# Generated by pormake.
# Topology unh, (4)-cn, num edge types: 1
# Building blocks:
#     Node 0, Type 0, BuildingBlock: GALJAG_clean_sbu_0, # of connection points: 4
#     Node 1, Type 0, BuildingBlock: GALJAG_clean_sbu_0, # of connection points: 4
#     Node 2, Type 0, BuildingBlock: GALJAG_clean_sbu_0, # of connection points: 4
#     Node 3, Type 0, BuildingBlock: GALJAG_clean_sbu_0, # of connection points: 4
#     Node 4, Type 0, BuildingBlock: GALJAG_clean_sbu_0, # of connection points: 4
#     Node 5, Type 0, BuildingBlock: GALJAG_clean_sbu_0, # of connection points: 4
#     Edge 6, Type (0, 0), BuildingBlock: TEMPAE_clean_linker_10, # of connection points: 2
#     Edge 7, Type (0, 0), BuildingBlock: TEMPAE_clean_linker_10, # of connection points: 2
#     Edge 8, Type (0, 0), BuildingBlock: TEMPAE_clean_linker_10, # of connection points: 2
#     Edge 9, Type (0, 0), BuildingBlock: TEMPAE_clean_linker_10, # of connection points: 2
#     Edge 10, Type (0, 0), BuildingBlock: TEMPAE_clean_linker_10, # of connection points: 2
#     Edge 11, Type (0, 0), BuildingBlock: TEMPAE_clean_linker_10, # of connection points: 2
#     Edge 12, Type (0, 0), BuildingBlock: TEMPAE_clean_linker_10, # of connection points: 2
#     Edge 13, Type (0, 0), BuildingBlock: TEMPAE_clean_linker_10, # of connection points: 2
#     Edge 14, Type (0, 0), BuildingBlock: TEMPAE_clean_linker_10, # of connection points: 2
#     Edge 15, Type (0, 0), BuildingBlock: TEMPAE_clean_linker_10, # of connection points: 2
#     Edge 16, Type (0, 0), BuildingBlock: TEMPAE_clean_linker_10, # of connection points: 2
#     Edge 17, Type (0, 0), BuildingBlock: TEMPAE_clean_linker_10, # of connection points: 2
# Relax obj value: 0.030
# Max RMSD: 0.132
# Mean RMSD: 0.132
data_MOF--net-unh--node1-GALJAG_clean_sbu_0--edge1-TEMPAE_clean_linker_10
_symmetry_space_group_name_H-M    P1
_symmetry_Int_Tables_number       1
_symmetry_cell_setting            triclinic
loop_
_symmetry_equiv_pos_as_xyz
'x, y, z'
_cell_length_a     46.046485
_cell_length_b     46.078669
_cell_length_c     20.504616
_cell_angle_alpha  90.056002
_cell_angle_beta   89.807032
_cell_angle_gamma 119.94704
loop_
_atom_site_label
_atom_site_type_symbol
_atom_site_fract_x
_atom_site_fract_y
_atom_site_fract_z
_atom_type_partial_charge
In0 In 0.13512 0.56623 0.09303 0.0
O1 O 0.10948 0.52388 0.01892 0.0
O2 O 0.09433 0.56069 0.02552 0.0
C3 C 0.17505 0.549 0.15758 0.0
C4 C 0.088 0.5544 0.18224 0.0
C5 C 0.17919 0.62302 0.03132 0.0
O6 O 0.16103 0.53524 0.10458 0.0
O7 O 0.16864 0.57105 0.1778 0.0
O8 O 0.16206 0.62318 0.07943 0.0
O9 O 0.17392 0.59444 0.0149 0.0
C10 C 0.0899 0.53392 -0.00031 0.0
O11 O 0.11102 0.58393 0.16949 0.0
O12 O 0.08986 0.53148 0.15217 0.0
In13 In 0.56454 0.13392 0.24147 0.0
O14 O 0.57078 0.08948 0.21074 0.0
O15 O 0.56506 0.11827 0.13665 0.0
C16 C 0.62122 0.17495 0.3064 0.0
C17 C 0.5187 0.09103 0.327 0.0
C18 C 0.5489 0.17704 0.18497 0.0
O19 O 0.6207 0.15592 0.26145 0.0
O20 O 0.59344 0.17308 0.31789 0.0
O21 O 0.529 0.15446 0.22362 0.0
O22 O 0.57623 0.17764 0.17539 0.0
C23 C 0.56832 0.09345 0.15057 0.0
O24 O 0.51141 0.09243 0.26818 0.0
O25 O 0.5486 0.1115 0.34212 0.0
In26 In 0.43677 0.57554 0.40783 0.0
O27 O 0.48756 0.58168 0.37757 0.0
O28 O 0.45325 0.57592 0.30319 0.0
C29 C 0.45028 0.6316 0.47319 0.0
C30 C 0.43455 0.53004 0.49273 0.0
C31 C 0.37774 0.55921 0.35199 0.0
O32 O 0.46844 0.63214 0.42633 0.0
O33 O 0.42594 0.60309 0.48656 0.0
O34 O 0.38063 0.53989 0.39173 0.0
O35 O 0.40444 0.58628 0.3408 0.0
C36 C 0.48125 0.57907 0.31738 0.0
O37 O 0.42368 0.52214 0.43518 0.0
O38 O 0.44598 0.56046 0.50685 0.0
In39 In 0.8546 0.42316 0.59333 0.0
O40 O 0.87987 0.40664 0.66893 0.0
O41 O 0.89768 0.45888 0.65563 0.0
C42 C 0.81406 0.36677 0.52739 0.0
C43 C 0.90081 0.45787 0.50242 0.0
C44 C 0.81082 0.43558 0.65725 0.0
O45 O 0.82969 0.36652 0.57773 0.0
O46 O 0.81902 0.39525 0.51097 0.0
O47 O 0.82609 0.45162 0.60662 0.0
O48 O 0.81792 0.41374 0.67539 0.0
C49 C 0.9011 0.43649 0.68401 0.0
O50 O 0.87997 0.46654 0.52089 0.0
O51 O 0.89718 0.43132 0.52788 0.0
In52 In 0.42253 0.86448 0.73827 0.0
O53 O 0.4022 0.89344 0.68137 0.0
O54 O 0.44646 0.89474 0.64724 0.0
C55 C 0.36802 0.82026 0.80586 0.0
C56 C 0.46146 0.91156 0.82553 0.0
C57 C 0.43674 0.82052 0.68121 0.0
O58 O 0.36583 0.83399 0.75425 0.0
O59 O 0.39754 0.82899 0.82299 0.0
O60 O 0.45441 0.83959 0.72679 0.0
O61 O 0.41197 0.82359 0.66513 0.0
C62 C 0.42528 0.9041 0.63913 0.0
O63 O 0.47225 0.89604 0.79162 0.0
O64 O 0.43135 0.90332 0.81511 0.0
In65 In 0.55173 0.42145 0.90891 0.0
O66 O 0.50353 0.40501 0.85071 0.0
O67 O 0.54883 0.44649 0.81637 0.0
C68 C 0.53545 0.36523 0.97623 0.0
C69 C 0.54671 0.46307 0.99451 0.0
C70 C 0.60947 0.43065 0.85723 0.0
O71 O 0.5226 0.36458 0.92153 0.0
O72 O 0.55608 0.39411 -0.00328 0.0
O73 O 0.60886 0.44933 0.90173 0.0
O74 O 0.58107 0.40751 0.83934 0.0
C75 C 0.51785 0.4275 0.80795 0.0
O76 O 0.57302 0.4718 0.96157 0.0
O77 O 0.52327 0.43366 0.98389 0.0
C78 C 0.03412 0.51916 0.95667 0.0
C79 C 0.06206 0.51475 0.9545 0.0
C80 C 0.00727 0.5018 0.91404 0.0
C81 C 0.0088 0.48011 0.86704 0.0
C82 C 0.03661 0.47488 0.8656 0.0
C83 C 0.06289 0.49208 0.91009 0.0
C84 C 0.97777 0.50761 0.91791 0.0
C85 C 0.03926 0.45235 0.81536 0.0
C86 C 0.92675 0.42457 0.78015 0.0
C87 C 0.9294 0.44531 0.72796 0.0
C88 C 0.95314 0.43481 0.82485 0.0
C89 C 0.98286 0.46599 0.81563 0.0
C90 C 0.98626 0.48588 0.7605 0.0
C91 C 0.95928 0.47548 0.71781 0.0
C92 C 0.9485 0.41326 0.88371 0.0
C93 C 0.01779 0.51896 0.74818 0.0
H94 H 0.0332 0.53625 0.99193 0.0
H95 H 0.0845 0.4886 0.9088 0.0
H96 H 0.97719 0.52119 0.87373 0.0
H97 H 0.95392 0.48334 0.91949 0.0
H98 H 0.97893 0.52251 0.96147 0.0
H99 H 0.06074 0.44834 0.82489 0.0
H100 H 0.01588 0.42768 0.81423 0.0
H101 H 0.04255 0.46372 0.76627 0.0
H102 H 0.90358 0.40116 0.7876 0.0
H103 H 0.96149 0.49118 0.67656 0.0
H104 H 0.94605 0.42573 0.92802 0.0
H105 H 0.97069 0.41018 0.89063 0.0
H106 H 0.92581 0.38809 0.87968 0.0
H107 H 0.02002 0.53744 0.78543 0.0
H108 H 0.0179 0.52928 0.69918 0.0
H109 H 0.04024 0.51608 0.75244 0.0
C110 C 0.46712 0.95023 0.91531 0.0
C111 C 0.48219 0.93748 0.87361 0.0
C112 C 0.48615 0.97546 0.96029 0.0
C113 C 0.52122 0.98849 0.96332 0.0
C114 C 0.53661 0.97544 0.92195 0.0
C115 C 0.51682 0.9499 0.87758 0.0
C116 C 0.46871 0.98854 0.0039 0.0
C117 C 0.57395 0.98891 0.92366 0.0
C118 C 0.56307 0.07536 0.03485 0.0
C119 C 0.56423 0.06848 0.10103 0.0
C120 C 0.55189 0.04986 0.98811 0.0
C121 C 0.54143 0.0167 0.00831 0.0
C122 C 0.54541 0.01021 0.07419 0.0
C123 C 0.55691 0.0363 0.11991 0.0
C124 C 0.54847 0.05792 0.91816 0.0
C125 C 0.53467 0.97522 0.09756 0.0
H126 H 0.44032 0.94055 0.91268 0.0
H127 H 0.52853 0.94007 0.84529 0.0
H128 H 0.47412 0.98643 0.05582 0.0
H129 H 0.47831 0.01546 0.99357 0.0
H130 H 0.4411 0.9748 -0.00293 0.0
H131 H 0.58174 0.97468 0.89116 0.0
H132 H 0.58731 0.01555 0.90825 0.0
H133 H 0.58208 0.98801 0.97412 0.0
H134 H 0.56911 0.10034 0.01997 0.0
H135 H 0.55794 0.03092 0.17104 0.0
H136 H 0.52162 0.04842 0.9072 0.0
H137 H 0.55756 0.04542 0.8842 0.0
H138 H 0.56253 0.0853 0.90853 0.0
H139 H 0.50689 0.96045 0.09981 0.0
H140 H 0.54463 0.97525 0.14685 0.0
H141 H 0.54311 0.96231 0.06318 0.0
C142 C 0.49473 0.57413 0.20185 0.0
C143 C 0.5019 0.57423 0.26823 0.0
C144 C 0.50808 0.56175 0.15523 0.0
C145 C 0.52875 0.54887 0.17579 0.0
C146 C 0.53858 0.55186 0.24195 0.0
C147 C 0.52511 0.56471 0.28752 0.0
C148 C 0.49744 0.55955 0.08498 0.0
C149 C 0.56065 0.5385 0.26577 0.0
C150 C 0.5151 0.47216 0.08288 0.0
C151 C 0.54325 0.48525 0.04199 0.0
C152 C 0.51063 0.49259 0.12749 0.0
C153 C 0.53479 0.5271 0.13096 0.0
C154 C 0.56352 0.54048 0.09034 0.0
C155 C 0.5675 0.51929 0.04633 0.0
C156 C 0.47971 0.47724 0.17032 0.0
C157 C 0.58962 0.57718 0.0925 0.0
H158 H 0.47708 0.58188 0.18671 0.0
H159 H 0.53081 0.56487 0.33883 0.0
H160 H 0.51904 0.56701 0.0516 0.0
H161 H 0.47846 0.53325 0.07342 0.0
H162 H 0.48627 0.57562 0.07514 0.0
H163 H 0.57077 0.54801 0.31519 0.0
H164 H 0.54578 0.51075 0.26796 0.0
H165 H 0.58187 0.54534 0.23175 0.0
H166 H 0.49639 0.44581 0.07995 0.0
H167 H 0.5893 0.52947 0.01468 0.0
H168 H 0.46421 0.4889 0.15947 0.0
H169 H 0.48699 0.48214 0.22242 0.0
H170 H 0.46403 0.44975 0.16322 0.0
H171 H 0.5783 0.59239 0.07689 0.0
H172 H 0.61142 0.58327 0.06039 0.0
H173 H 0.5987 0.58476 0.14311 0.0
C174 C 0.95671 0.47348 0.45783 0.0
C175 C 0.92874 0.47788 0.4575 0.0
C176 C 0.98331 0.49106 0.41445 0.0
C177 C 0.9816 0.51312 0.36874 0.0
C178 C 0.95393 0.51858 0.36954 0.0
C179 C 0.92781 0.50102 0.41455 0.0
C180 C 0.0126 0.48488 0.41584 0.0
C181 C 0.95118 0.54168 0.321 0.0
C182 C 0.06341 0.56742 0.2792 0.0
C183 C 0.05987 0.54659 0.22649 0.0
C184 C 0.03728 0.55782 0.3247 0.0
C185 C 0.00701 0.52713 0.31597 0.0
C186 C 0.00269 0.50729 0.26021 0.0
C187 C 0.02934 0.5171 0.21655 0.0
C188 C 0.04285 0.57938 0.38399 0.0
C189 C 0.97059 0.4747 0.24847 0.0
H190 H 0.95774 0.45604 0.49191 0.0
H191 H 0.90622 0.50453 0.41465 0.0
H192 H 0.01263 0.47147 0.37088 0.0
H193 H 0.0366 0.509 0.41701 0.0
H194 H 0.01166 0.46965 0.45863 0.0
H195 H 0.93032 0.54634 0.33309 0.0
H196 H 0.97491 0.56602 0.3188 0.0
H197 H 0.94674 0.53037 0.27165 0.0
H198 H 0.08705 0.59033 0.28651 0.0
H199 H 0.02643 0.50133 0.17493 0.0
H200 H 0.04587 0.56686 0.42754 0.0
H201 H 0.02086 0.58261 0.39297 0.0
H202 H 0.06558 0.60448 0.37899 0.0
H203 H 0.96822 0.45585 0.28492 0.0
H204 H 0.96978 0.4645 0.19897 0.0
H205 H 0.94856 0.47817 0.25448 0.0
C206 C 0.50551 0.06642 0.43814 0.0
C207 C 0.49563 0.0652 0.37319 0.0
C208 C 0.48741 0.03936 0.48029 0.0
C209 C 0.45868 0.01037 0.45686 0.0
C210 C 0.44697 0.01009 0.39297 0.0
C211 C 0.46569 0.03761 0.35164 0.0
C212 C 0.50068 0.0408 0.54823 0.0
C213 C 0.41616 0.97985 0.36665 0.0
C214 C 0.45156 0.93323 0.53555 0.0
C215 C 0.42901 0.92751 0.58653 0.0
C216 C 0.4595 0.95869 0.48995 0.0
C217 C 0.44467 0.97909 0.49582 0.0
C218 C 0.42011 0.97195 0.5445 0.0
C219 C 0.41248 0.94608 0.58945 0.0
C220 C 0.48553 0.96517 0.43827 0.0
C221 C 0.40355 0.99296 0.55179 0.0
H222 H 0.52842 0.08792 0.45526 0.0
H223 H 0.45785 0.03668 0.30152 0.0
H224 H 0.48026 0.03258 0.58478 0.0
H225 H 0.51081 0.02347 0.55153 0.0
H226 H 0.52097 0.06637 0.56127 0.0
H227 H 0.4066 0.98598 0.32213 0.0
H228 H 0.4224 0.96018 0.35398 0.0
H229 H 0.39591 0.96921 0.40385 0.0
H230 H 0.46399 0.91855 0.5326 0.0
H231 H 0.39488 0.94155 0.62871 0.0
H232 H 0.50868 0.98925 0.44857 0.0
H233 H 0.47642 0.96737 0.38954 0.0
H234 H 0.4921 0.94504 0.43633 0.0
H235 H 0.42151 0.01737 0.57407 0.0
H236 H 0.38091 0.98058 0.58338 0.0
H237 H 0.39635 -0.00179 0.50352 0.0
C238 C 0.51817 0.45522 0.7041 0.0
C239 C 0.49983 0.43309 0.75458 0.0
C240 C 0.50238 0.46484 0.65776 0.0
C241 C 0.4674 0.45218 0.66234 0.0
C242 C 0.44838 0.42805 0.71055 0.0
C243 C 0.46489 0.41869 0.75626 0.0
C244 C 0.52356 0.49037 0.60664 0.0
C245 C 0.41103 0.41382 0.71656 0.0
C246 C 0.44604 0.51666 0.60346 0.0
C247 C 0.43679 0.50668 0.53874 0.0
C248 C 0.45371 0.49766 0.64574 0.0
C249 C 0.45217 0.46798 0.62259 0.0
C250 C 0.44048 0.45646 0.55872 0.0
C251 C 0.43288 0.47603 0.51733 0.0
C252 C 0.46582 0.51071 0.71371 0.0
C253 C 0.4382 0.42476 0.53262 0.0
H254 H 0.54515 0.46602 0.70214 0.0
H255 H 0.45063 0.40141 0.79511 0.0
H256 H 0.51239 0.48195 0.55759 0.0
H257 H 0.52443 0.51444 0.61695 0.0
H258 H 0.54966 0.495 0.60546 0.0
H259 H 0.3992 0.39131 0.74843 0.0
H260 H 0.40598 0.43302 0.73782 0.0
H261 H 0.39894 0.40708 0.66794 0.0
H262 H 0.44867 0.54015 0.62042 0.0
H263 H 0.42555 0.46817 0.46734 0.0
H264 H 0.49292 0.5191 0.71749 0.0
H265 H 0.45244 0.49059 0.7503 0.0
H266 H 0.46219 0.53215 0.72634 0.0
H267 H 0.46376 0.42942 0.52136 0.0
H268 H 0.42301 0.41608 0.48736 0.0
H269 H 0.42709 0.40445 0.56951 0.0
C270 C 0.21163 0.52326 0.16013 0.0
C271 C 0.19926 0.54207 0.19093 0.0
C272 C 0.23815 0.52068 0.18752 0.0
C273 C 0.25236 0.53721 0.24705 0.0
C274 C 0.23839 0.55429 0.28041 0.0
C275 C 0.21205 0.5566 0.25181 0.0
C276 C 0.25235 0.50217 0.15065 0.0
C277 C 0.25268 0.57203 0.34426 0.0
C278 C 0.31548 0.52342 0.34088 0.0
C279 C 0.34564 0.55168 0.32208 0.0
C280 C 0.28475 0.51763 0.31535 0.0
C281 C 0.28443 0.54066 0.27012 0.0
C282 C 0.31496 0.56862 0.24952 0.0
C283 C 0.34516 0.57378 0.27581 0.0
C284 C 0.25265 0.48756 0.33826 0.0
C285 C 0.31569 0.59373 0.20119 0.0
H286 H 0.20167 0.51185 0.11316 0.0
H287 H 0.20228 0.57085 0.27613 0.0
H288 H 0.27702 0.52049 0.1295 0.0
H289 H 0.25652 0.48565 0.18394 0.0
H290 H 0.23565 0.48678 0.11039 0.0
H291 H 0.23655 0.58071 0.3676 0.0
H292 H 0.25585 0.55529 0.37875 0.0
H293 H 0.27783 0.59414 0.3356 0.0
H294 H 0.3158 0.50625 0.37657 0.0
H295 H 0.36844 0.59557 0.26082 0.0
H296 H 0.23714 0.47328 0.2959 0.0
H297 H 0.23778 0.49598 0.36707 0.0
H298 H 0.25736 0.47051 0.36903 0.0
H299 H 0.30211 0.5808 0.15613 0.0
H300 H 0.34164 0.61311 0.18772 0.0
H301 H 0.30275 0.60644 0.22226 0.0
C302 C 0.64934 0.21602 0.39556 0.0
C303 C 0.65186 0.19866 0.3417 0.0
C304 C 0.67801 0.24089 0.42666 0.0
C305 C 0.71003 0.2487 0.40312 0.0
C306 C 0.71279 0.23027 0.35054 0.0
C307 C 0.68356 0.20532 0.32038 0.0
C308 C 0.67398 0.25986 0.48284 0.0
C309 C 0.74655 0.23793 0.3243 0.0
C310 C 0.77531 0.33888 0.43469 0.0
C311 C 0.79042 0.33617 0.49181 0.0
C312 C 0.75033 0.31036 0.40332 0.0
C313 C 0.74018 0.27833 0.42982 0.0
C314 C 0.75649 0.2753 0.48563 0.0
C315 C 0.78152 0.30436 0.51609 0.0
C316 C 0.73361 0.31465 0.34375 0.0
C317 C 0.74637 0.24153 0.51504 0.0
H318 H 0.62486 0.21072 0.41262 0.0
H319 H 0.68556 0.19184 0.27885 0.0
H320 H 0.68894 0.26003 0.52527 0.0
H321 H 0.6835 0.2863 0.46832 0.0
H322 H 0.64742 0.24893 0.49843 0.0
H323 H 0.74448 0.21888 0.28849 0.0
H324 H 0.75879 0.26275 0.29995 0.0
H325 H 0.76317 0.23927 0.36465 0.0
H326 H 0.78233 0.36342 0.41538 0.0
H327 H 0.79329 0.30218 0.56008 0.0
H328 H 0.70722 0.30709 0.35555 0.0
H329 H 0.73314 0.29825 0.30365 0.0
H330 H 0.74645 0.34095 0.326 0.0
H331 H 0.72114 0.23098 0.53748 0.0
H332 H 0.76421 0.24313 0.55313 0.0
H333 H 0.74475 0.22377 0.47674 0.0
C334 C 0.42415 0.7768 0.5973 0.0
C335 C 0.44402 0.7961 0.64941 0.0
C336 C 0.42944 0.75231 0.5683 0.0
C337 C 0.45519 0.74693 0.59216 0.0
C338 C 0.47604 0.76704 0.64346 0.0
C339 C 0.4702 0.79148 0.67155 0.0
C340 C 0.4067 0.73139 0.51356 0.0
C341 C 0.50371 0.76196 0.67009 0.0
C342 C 0.43706 0.65839 0.5648 0.0
C343 C 0.45541 0.66185 0.50782 0.0
C344 C 0.43827 0.68626 0.59476 0.0
C345 C 0.45814 0.71835 0.56674 0.0
C346 C 0.47806 0.72226 0.51104 0.0
C347 C 0.47654 0.69386 0.48223 0.0
C348 C 0.41688 0.68107 0.65447 0.0
C349 C 0.49956 0.75613 0.47994 0.0
H350 H 0.40402 0.78045 0.57972 0.0
H351 H 0.48571 0.80648 0.71168 0.0
H352 H 0.42178 0.73187 0.47083 0.0
H353 H 0.39154 0.70493 0.52959 0.0
H354 H 0.38936 0.74024 0.49785 0.0
H355 H 0.51958 0.78162 0.70588 0.0
H356 H 0.49267 0.73719 0.69447 0.0
H357 H 0.51988 0.76197 0.62986 0.0
H358 H 0.42096 0.63368 0.58513 0.0
H359 H 0.49079 0.69658 0.43821 0.0
H360 H 0.39654 0.6864 0.64221 0.0
H361 H 0.43206 0.69865 0.69373 0.0
H362 H 0.40532 0.65508 0.67357 0.0
H363 H 0.48324 0.76461 0.45715 0.0
H364 H 0.51646 0.75555 0.44182 0.0
H365 H 0.51494 0.77497 0.51731 0.0
C366 C 0.63948 0.41372 0.77835 0.0
C367 C 0.64084 0.43514 0.82829 0.0
C368 C 0.66885 0.41683 0.7512 0.0
C369 C 0.70035 0.44196 0.77465 0.0
C370 C 0.70195 0.46406 0.82434 0.0
C371 C 0.67209 0.46038 0.85065 0.0
C372 C 0.66612 0.39277 0.69825 0.0
C373 C 0.73513 0.49111 0.85048 0.0
C374 C 0.77017 0.42245 0.74819 0.0
C375 C 0.7851 0.44033 0.69085 0.0
C376 C 0.74349 0.424 0.77767 0.0
C377 C 0.73141 0.44382 0.74892 0.0
C378 C 0.7473 0.46306 0.69257 0.0
C379 C 0.77406 0.46112 0.66416 0.0
C380 C 0.72729 0.40324 0.83793 0.0
C381 C 0.73509 0.48451 0.66068 0.0
H382 H 0.61538 0.39423 0.76075 0.0
H383 H 0.67322 0.47703 0.88918 0.0
H384 H 0.68042 0.40683 0.65447 0.0
H385 H 0.67726 0.37763 0.7153 0.0
H386 H 0.63974 0.37546 0.68381 0.0
H387 H 0.73208 0.50729 0.88685 0.0
H388 H 0.74862 0.47957 0.87386 0.0
H389 H 0.75116 0.50707 0.80997 0.0
H390 H 0.77878 0.40653 0.76928 0.0
H391 H 0.78562 0.47505 0.61992 0.0
H392 H 0.70143 0.38318 0.82633 0.0
H393 H 0.72538 0.41896 0.87682 0.0
H394 H 0.74142 0.39139 0.85724 0.0
H395 H 0.70981 0.46824 0.63985 0.0
H396 H 0.75208 0.50034 0.62097 0.0
H397 H 0.73277 0.50098 0.6973 0.0
C398 C 0.34302 0.78071 0.89909 0.0
C399 C 0.33852 0.79478 0.84214 0.0
C400 C 0.31565 0.75462 0.93161 0.0
C401 C 0.28297 0.74232 0.90653 0.0
C402 C 0.2781 0.75729 0.85048 0.0
C403 C 0.30601 0.78341 0.81884 0.0
C404 C 0.32187 0.73931 0.99129 0.0
C405 C 0.2436 0.74486 0.8225 0.0
C406 C 0.22218 0.65125 0.94453 0.0
C407 C 0.20419 0.65372 -0.00255 0.0
C408 C 0.24724 0.67994 0.91344 0.0
C409 C 0.25449 0.71193 0.93579 0.0
C410 C 0.23583 0.71464 0.98812 0.0
C411 C 0.21084 0.68542 0.01847 0.0
C412 C 0.2666 0.676 0.85781 0.0
C413 C 0.24286 0.74836 0.01304 0.0
H414 H 0.3681 0.78955 0.91753 0.0
H415 H 0.30242 0.79433 0.77495 0.0
H416 H 0.30568 0.7385 0.03225 0.0
H417 H 0.31529 0.71312 0.98061 0.0
H418 H 0.34843 0.75339 0.00729 0.0
H419 H 0.24371 0.76118 0.78253 0.0
H420 H 0.23376 0.71917 0.80303 0.0
H421 H 0.22603 0.74346 0.86117 0.0
H422 H 0.21704 0.6268 0.92791 0.0
H423 H 0.19691 0.68741 0.05926 0.0
H424 H 0.29336 0.68709 0.87151 0.0
H425 H 0.26557 0.68966 0.81416 0.0
H426 H 0.25681 0.64934 0.84444 0.0
H427 H 0.26844 0.762 0.03398 0.0
H428 H 0.22464 0.74615 0.05111 0.0
H429 H 0.24207 0.76378 0.9723 0.0
C430 C 0.51198 0.30329 0.9812 0.0
C431 C 0.52918 0.33472 0.01139 0.0
C432 C 0.51009 0.27493 0.01076 0.0
C433 C 0.52567 0.27824 0.07187 0.0
C434 C 0.54111 0.30949 0.1044 0.0
C435 C 0.54276 0.33739 0.07363 0.0
C436 C 0.49335 0.24199 0.9747 0.0
C437 C 0.55781 0.31398 0.16983 0.0
C438 C 0.51238 0.20252 0.16971 0.0
C439 C 0.54147 0.20145 0.15383 0.0
C440 C 0.5063 0.22689 0.14216 0.0
C441 C 0.52987 0.25052 0.09785 0.0
C442 C 0.55881 0.24892 0.08051 0.0
C443 C 0.56426 0.22444 0.10878 0.0
C444 C 0.47519 0.22792 0.16166 0.0
C445 C 0.58452 0.27362 0.03326 0.0
H446 H 0.50131 0.30111 0.93316 0.0
H447 H 0.55577 0.3616 0.09745 0.0
H448 H 0.51273 0.23638 0.95646 0.0
H449 H 0.47659 0.22128 0.00783 0.0
H450 H 0.47851 0.24241 0.93247 0.0
H451 H 0.56514 0.33871 0.19196 0.0
H452 H 0.54091 0.29401 0.20413 0.0
H453 H 0.58069 0.31193 0.16387 0.0
H454 H 0.49468 0.18471 0.20446 0.0
H455 H 0.5867 0.2236 0.09606 0.0
H456 H 0.46123 0.22793 0.11769 0.0
H457 H 0.48237 0.25142 0.18863 0.0
H458 H 0.45822 0.20636 0.19305 0.0
H459 H 0.57234 0.27352 0.9866 0.0
H460 H 0.60488 0.26799 0.02277 0.0
H461 H 0.59591 0.29932 0.05361 0.0
loop_
_geom_bond_atom_site_label_1
_geom_bond_atom_site_label_2
_geom_bond_distance
_geom_bond_site_symmetry_2
_ccdc_geom_bond_type
In0 O1 2.294 . S
In0 O2 2.326 . S
In0 O6 2.266 . S
In0 O7 2.326 . S
In0 O8 2.266 . S
In0 O9 2.326 . S
In0 O11 2.294 . S
In0 O12 2.326 . S
O1 In0 2.294 . S
O1 C10 1.240 1_554 S
O2 In0 2.326 . S
O2 C10 1.252 1_554 S
C3 O6 1.252 . S
C3 O7 1.260 . S
C4 O11 1.240 . S
C4 O12 1.252 . S
C5 O8 1.252 . S
C5 O9 1.260 . S
O6 In0 2.266 . S
O6 C3 1.252 . S
O7 In0 2.326 . S
O7 C3 1.260 . S
O8 In0 2.266 . S
O8 C5 1.252 . S
O9 In0 2.326 . S
O9 C5 1.260 . S
C10 O1 1.240 1_556 S
C10 O2 1.252 1_556 S
O11 In0 2.294 . S
O11 C4 1.240 . S
O12 In0 2.326 . S
O12 C4 1.252 . S
In13 O14 2.294 . S
In13 O15 2.326 . S
In13 O19 2.266 . S
In13 O20 2.326 . S
In13 O21 2.266 . S
In13 O22 2.326 . S
In13 O24 2.294 . S
In13 O25 2.326 . S
O14 In13 2.294 . S
O14 C23 1.240 . S
O15 In13 2.326 . S
O15 C23 1.252 . S
C16 O19 1.252 . S
C16 O20 1.260 . S
C17 O24 1.240 . S
C17 O25 1.252 . S
C18 O21 1.252 . S
C18 O22 1.260 . S
O19 In13 2.266 . S
O19 C16 1.252 . S
O20 In13 2.326 . S
O20 C16 1.260 . S
O21 In13 2.266 . S
O21 C18 1.252 . S
O22 In13 2.326 . S
O22 C18 1.260 . S
C23 O14 1.240 . S
C23 O15 1.252 . S
O24 In13 2.294 . S
O24 C17 1.240 . S
O25 In13 2.326 . S
O25 C17 1.252 . S
In26 O27 2.294 . S
In26 O28 2.326 . S
In26 O32 2.266 . S
In26 O33 2.326 . S
In26 O34 2.266 . S
In26 O35 2.326 . S
In26 O37 2.294 . S
In26 O38 2.326 . S
O27 In26 2.294 . S
O27 C36 1.240 . S
O28 In26 2.326 . S
O28 C36 1.252 . S
C29 O32 1.252 . S
C29 O33 1.260 . S
C30 O37 1.240 . S
C30 O38 1.252 . S
C31 O34 1.252 . S
C31 O35 1.260 . S
O32 In26 2.266 . S
O32 C29 1.252 . S
O33 In26 2.326 . S
O33 C29 1.260 . S
O34 In26 2.266 . S
O34 C31 1.252 . S
O35 In26 2.326 . S
O35 C31 1.260 . S
C36 O27 1.240 . S
C36 O28 1.252 . S
O37 In26 2.294 . S
O37 C30 1.240 . S
O38 In26 2.326 . S
O38 C30 1.252 . S
In39 O40 2.294 . S
In39 O41 2.326 . S
In39 O45 2.266 . S
In39 O46 2.326 . S
In39 O47 2.266 . S
In39 O48 2.326 . S
In39 O50 2.294 . S
In39 O51 2.326 . S
O40 In39 2.294 . S
O40 C49 1.240 . S
O41 In39 2.326 . S
O41 C49 1.252 . S
C42 O45 1.252 . S
C42 O46 1.260 . S
C43 O50 1.240 . S
C43 O51 1.252 . S
C44 O47 1.252 . S
C44 O48 1.260 . S
O45 In39 2.266 . S
O45 C42 1.252 . S
O46 In39 2.326 . S
O46 C42 1.260 . S
O47 In39 2.266 . S
O47 C44 1.252 . S
O48 In39 2.326 . S
O48 C44 1.260 . S
C49 O40 1.240 . S
C49 O41 1.252 . S
O50 In39 2.294 . S
O50 C43 1.240 . S
O51 In39 2.326 . S
O51 C43 1.252 . S
In52 O53 2.294 . S
In52 O54 2.326 . S
In52 O58 2.266 . S
In52 O59 2.326 . S
In52 O60 2.266 . S
In52 O61 2.326 . S
In52 O63 2.294 . S
In52 O64 2.326 . S
O53 In52 2.294 . S
O53 C62 1.240 . S
O54 In52 2.326 . S
O54 C62 1.252 . S
C55 O58 1.252 . S
C55 O59 1.260 . S
C56 O63 1.240 . S
C56 O64 1.252 . S
C57 O60 1.252 . S
C57 O61 1.260 . S
O58 In52 2.266 . S
O58 C55 1.252 . S
O59 In52 2.326 . S
O59 C55 1.260 . S
O60 In52 2.266 . S
O60 C57 1.252 . S
O61 In52 2.326 . S
O61 C57 1.260 . S
C62 O53 1.240 . S
C62 O54 1.252 . S
O63 In52 2.294 . S
O63 C56 1.240 . S
O64 In52 2.326 . S
O64 C56 1.252 . S
In65 O66 2.294 . S
In65 O67 2.326 . S
In65 O71 2.266 . S
In65 O72 2.326 . S
In65 O73 2.266 . S
In65 O74 2.326 . S
In65 O76 2.294 . S
In65 O77 2.326 . S
O66 In65 2.294 . S
O66 C75 1.240 . S
O67 In65 2.326 . S
O67 C75 1.252 . S
C68 O71 1.252 . S
C68 O72 1.260 . S
C69 O76 1.240 1_554 S
C69 O77 1.252 1_554 S
C70 O73 1.252 . S
C70 O74 1.260 . S
O71 In65 2.266 . S
O71 C68 1.252 . S
O72 In65 2.326 . S
O72 C68 1.260 . S
O73 In65 2.266 . S
O73 C70 1.252 . S
O74 In65 2.326 . S
O74 C70 1.260 . S
C75 O66 1.240 . S
C75 O67 1.252 . S
O76 In65 2.294 . S
O76 C69 1.240 1_556 S
O77 In65 2.326 . S
O77 C69 1.252 1_556 S
C78 C79 1.391 . S
C78 C80 1.394 . S
C78 H94 0.931 1_556 S
C79 C78 1.391 . S
C79 C83 1.376 . S
C80 C78 1.394 . S
C80 C81 1.369 . S
C80 C84 1.531 1_455 S
C81 C80 1.369 . S
C81 C82 1.410 . S
C81 C89 1.503 1_455 S
C82 C81 1.410 . S
C82 C83 1.392 . S
C82 C85 1.511 . S
C83 C79 1.376 . S
C83 C82 1.392 . S
C83 H95 0.929 . S
C84 C80 1.531 1_655 S
C84 H96 0.960 . S
C84 H97 0.962 . S
C84 H98 0.960 . S
C85 C82 1.511 . S
C85 H99 0.961 . S
C85 H100 0.961 . S
C85 H101 0.961 . S
C86 C87 1.370 . S
C86 C88 1.363 . S
C86 H102 0.931 . S
C87 C86 1.370 . S
C87 C91 1.408 . S
C88 C86 1.363 . S
C88 C89 1.370 . S
C88 C92 1.524 . S
C89 C81 1.503 1_655 S
C89 C88 1.370 . S
C89 C90 1.403 . S
C90 C89 1.403 . S
C90 C91 1.404 . S
C90 C93 1.539 1_655 S
C91 C87 1.408 . S
C91 C90 1.404 . S
C91 H103 0.930 . S
C92 C88 1.524 . S
C92 H104 0.956 . S
C92 H105 0.961 . S
C92 H106 0.961 . S
C93 C90 1.539 1_455 S
C93 H107 0.938 1_455 S
C93 H108 0.961 . S
C93 H109 0.960 . S
H94 C78 0.931 1_554 S
H95 C83 0.929 . S
H96 C84 0.960 . S
H97 C84 0.962 . S
H98 C84 0.960 . S
H99 C85 0.961 . S
H100 C85 0.961 . S
H101 C85 0.961 . S
H102 C86 0.931 . S
H103 C91 0.930 . S
H104 C92 0.956 . S
H105 C92 0.961 . S
H106 C92 0.961 . S
H107 C93 0.938 1_655 S
H108 C93 0.961 . S
H109 C93 0.960 . S
C110 C111 1.391 . S
C110 C112 1.394 . S
C110 H126 0.931 . S
C111 C110 1.391 . S
C111 C115 1.376 . S
C112 C110 1.394 . S
C112 C113 1.369 . S
C112 C116 1.531 1_556 S
C113 C112 1.369 . S
C113 C114 1.410 . S
C113 C121 1.503 1_566 S
C114 C113 1.410 . S
C114 C115 1.392 . S
C114 C117 1.511 1_565 S
C115 C111 1.376 . S
C115 C114 1.392 . S
C115 H127 0.929 . S
C116 C112 1.531 1_554 S
C116 H128 0.960 . S
C116 H129 0.962 . S
C116 H130 0.960 . S
C117 C114 1.511 1_545 S
C117 H131 0.961 . S
C117 H132 0.961 . S
C117 H133 0.961 1_545 S
C118 C119 1.370 . S
C118 C120 1.363 . S
C118 H134 0.931 . S
C119 C118 1.370 . S
C119 C123 1.408 . S
C120 C118 1.363 . S
C120 C121 1.370 . S
C120 C124 1.524 1_554 S
C121 C113 1.503 1_544 S
C121 C120 1.370 . S
C121 C122 1.403 . S
C122 C121 1.403 . S
C122 C123 1.404 . S
C122 C125 1.539 1_545 S
C123 C119 1.408 . S
C123 C122 1.404 . S
C123 H135 0.930 . S
C124 C120 1.524 1_556 S
C124 H136 0.956 . S
C124 H137 0.961 . S
C124 H138 0.961 . S
C125 C122 1.539 1_565 S
C125 H139 0.958 . S
C125 H140 0.961 . S
C125 H141 0.960 . S
H126 C110 0.931 . S
H127 C115 0.929 . S
H128 C116 0.960 . S
H129 C116 0.962 . S
H130 C116 0.960 . S
H131 C117 0.961 . S
H132 C117 0.961 . S
H133 C117 0.961 1_565 S
H134 C118 0.931 . S
H135 C123 0.930 . S
H136 C124 0.956 . S
H137 C124 0.961 . S
H138 C124 0.961 . S
H139 C125 0.958 . S
H140 C125 0.961 . S
H141 C125 0.960 . S
C142 C143 1.391 . S
C142 C144 1.394 . S
C142 H158 0.931 . S
C143 C142 1.391 . S
C143 C147 1.376 . S
C144 C142 1.394 . S
C144 C145 1.369 . S
C144 C148 1.531 . S
C145 C144 1.369 . S
C145 C146 1.410 . S
C145 C153 1.503 . S
C146 C145 1.410 . S
C146 C147 1.392 . S
C146 C149 1.511 . S
C147 C143 1.376 . S
C147 C146 1.392 . S
C147 H159 0.929 . S
C148 C144 1.531 . S
C148 H160 0.960 . S
C148 H161 0.962 . S
C148 H162 0.960 . S
C149 C146 1.511 . S
C149 H163 0.961 . S
C149 H164 0.961 . S
C149 H165 0.961 . S
C150 C151 1.370 . S
C150 C152 1.363 . S
C150 H166 0.931 . S
C151 C150 1.370 . S
C151 C155 1.408 . S
C152 C150 1.363 . S
C152 C153 1.370 . S
C152 C156 1.524 . S
C153 C145 1.503 . S
C153 C152 1.370 . S
C153 C154 1.403 . S
C154 C153 1.403 . S
C154 C155 1.404 . S
C154 C157 1.539 . S
C155 C151 1.408 . S
C155 C154 1.404 . S
C155 H167 0.930 . S
C156 C152 1.524 . S
C156 H168 0.956 . S
C156 H169 0.961 . S
C156 H170 0.961 . S
C157 C154 1.539 . S
C157 H171 0.958 . S
C157 H172 0.961 . S
C157 H173 0.960 . S
H158 C142 0.931 . S
H159 C147 0.929 . S
H160 C148 0.960 . S
H161 C148 0.962 . S
H162 C148 0.960 . S
H163 C149 0.961 . S
H164 C149 0.961 . S
H165 C149 0.961 . S
H166 C150 0.931 . S
H167 C155 0.930 . S
H168 C156 0.956 . S
H169 C156 0.961 . S
H170 C156 0.961 . S
H171 C157 0.958 . S
H172 C157 0.961 . S
H173 C157 0.960 . S
C174 C175 1.391 . S
C174 C176 1.394 . S
C174 H190 0.931 . S
C175 C174 1.391 . S
C175 C179 1.376 . S
C176 C174 1.394 . S
C176 C177 1.369 . S
C176 C180 1.531 . S
C177 C176 1.369 . S
C177 C178 1.410 . S
C177 C185 1.503 1_655 S
C178 C177 1.410 . S
C178 C179 1.392 . S
C178 C181 1.511 . S
C179 C175 1.376 . S
C179 C178 1.392 . S
C179 H191 0.929 . S
C180 C176 1.531 . S
C180 H192 0.960 . S
C180 H193 0.962 1_655 S
C180 H194 0.960 . S
C181 C178 1.511 . S
C181 H195 0.961 . S
C181 H196 0.964 1_655 S
C181 H197 0.961 . S
C182 C183 1.370 . S
C182 C184 1.363 . S
C182 H198 0.931 . S
C183 C182 1.370 . S
C183 C187 1.408 . S
C184 C182 1.363 . S
C184 C185 1.370 . S
C184 C188 1.524 . S
C185 C177 1.503 1_455 S
C185 C184 1.370 . S
C185 C186 1.403 . S
C186 C185 1.403 . S
C186 C187 1.404 . S
C186 C189 1.539 1_455 S
C187 C183 1.408 . S
C187 C186 1.404 . S
C187 H199 0.930 . S
C188 C184 1.524 . S
C188 H200 0.956 . S
C188 H201 0.961 . S
C188 H202 0.961 . S
C189 C186 1.539 1_655 S
C189 H203 0.958 . S
C189 H204 0.961 . S
C189 H205 0.960 . S
H190 C174 0.931 . S
H191 C179 0.929 . S
H192 C180 0.960 . S
H193 C180 0.962 1_455 S
H194 C180 0.960 . S
H195 C181 0.961 . S
H196 C181 0.964 1_455 S
H197 C181 0.961 . S
H198 C182 0.931 . S
H199 C187 0.930 . S
H200 C188 0.956 . S
H201 C188 0.961 . S
H202 C188 0.961 . S
H203 C189 0.958 . S
H204 C189 0.961 . S
H205 C189 0.960 . S
C206 C207 1.391 . S
C206 C208 1.394 . S
C206 H222 0.931 . S
C207 C206 1.391 . S
C207 C211 1.376 . S
C208 C206 1.394 . S
C208 C209 1.369 . S
C208 C212 1.531 . S
C209 C208 1.369 . S
C209 C210 1.410 . S
C209 C217 1.503 1_545 S
C210 C209 1.410 . S
C210 C211 1.392 . S
C210 C213 1.511 1_545 S
C211 C207 1.376 . S
C211 C210 1.392 . S
C211 H223 0.929 . S
C212 C208 1.531 . S
C212 H224 0.960 . S
C212 H225 0.962 . S
C212 H226 0.960 . S
C213 C210 1.511 1_565 S
C213 H227 0.961 . S
C213 H228 0.961 . S
C213 H229 0.961 1_565 S
C214 C215 1.370 . S
C214 C216 1.363 . S
C214 H230 0.931 . S
C215 C214 1.370 . S
C215 C219 1.408 . S
C216 C214 1.363 . S
C216 C217 1.370 . S
C216 C220 1.524 . S
C217 C209 1.503 1_565 S
C217 C216 1.370 . S
C217 C218 1.403 . S
C218 C217 1.403 . S
C218 C219 1.404 . S
C218 C221 1.539 1_565 S
C219 C215 1.408 . S
C219 C218 1.404 . S
C219 H231 0.930 . S
C220 C216 1.524 . S
C220 H232 0.956 . S
C220 H233 0.961 . S
C220 H234 0.961 . S
C221 C218 1.539 1_545 S
C221 H235 0.958 . S
C221 H236 0.961 . S
C221 H237 0.960 . S
H222 C206 0.931 . S
H223 C211 0.929 . S
H224 C212 0.960 . S
H225 C212 0.962 . S
H226 C212 0.960 . S
H227 C213 0.961 . S
H228 C213 0.961 . S
H229 C213 0.961 1_545 S
H230 C214 0.931 . S
H231 C219 0.930 . S
H232 C220 0.956 . S
H233 C220 0.961 . S
H234 C220 0.961 . S
H235 C221 0.958 . S
H236 C221 0.961 . S
H237 C221 0.960 . S
C238 C239 1.391 . S
C238 C240 1.394 . S
C238 H254 0.931 . S
C239 C238 1.391 . S
C239 C243 1.376 . S
C240 C238 1.394 . S
C240 C241 1.369 . S
C240 C244 1.531 . S
C241 C240 1.369 . S
C241 C242 1.410 . S
C241 C249 1.503 . S
C242 C241 1.410 . S
C242 C243 1.392 . S
C242 C245 1.511 . S
C243 C239 1.376 . S
C243 C242 1.392 . S
C243 H255 0.929 . S
C244 C240 1.531 . S
C244 H256 0.960 . S
C244 H257 0.962 . S
C244 H258 0.960 . S
C245 C242 1.511 . S
C245 H259 0.961 . S
C245 H260 0.961 . S
C245 H261 0.961 . S
C246 C247 1.370 . S
C246 C248 1.363 . S
C246 H262 0.931 . S
C247 C246 1.370 . S
C247 C251 1.408 . S
C248 C246 1.363 . S
C248 C249 1.370 . S
C248 C252 1.524 . S
C249 C241 1.503 . S
C249 C248 1.370 . S
C249 C250 1.403 . S
C250 C249 1.403 . S
C250 C251 1.404 . S
C250 C253 1.539 . S
C251 C247 1.408 . S
C251 C250 1.404 . S
C251 H263 0.930 . S
C252 C248 1.524 . S
C252 H264 0.956 . S
C252 H265 0.961 . S
C252 H266 0.961 . S
C253 C250 1.539 . S
C253 H267 0.958 . S
C253 H268 0.961 . S
C253 H269 0.960 . S
H254 C238 0.931 . S
H255 C243 0.929 . S
H256 C244 0.960 . S
H257 C244 0.962 . S
H258 C244 0.960 . S
H259 C245 0.961 . S
H260 C245 0.961 . S
H261 C245 0.961 . S
H262 C246 0.931 . S
H263 C251 0.930 . S
H264 C252 0.956 . S
H265 C252 0.961 . S
H266 C252 0.961 . S
H267 C253 0.958 . S
H268 C253 0.961 . S
H269 C253 0.960 . S
C270 C271 1.391 . S
C270 C272 1.394 . S
C270 H286 0.931 . S
C271 C270 1.391 . S
C271 C275 1.376 . S
C272 C270 1.394 . S
C272 C273 1.369 . S
C272 C276 1.531 . S
C273 C272 1.369 . S
C273 C274 1.410 . S
C273 C281 1.503 . S
C274 C273 1.410 . S
C274 C275 1.392 . S
C274 C277 1.511 . S
C275 C271 1.376 . S
C275 C274 1.392 . S
C275 H287 0.929 . S
C276 C272 1.531 . S
C276 H288 0.960 . S
C276 H289 0.962 . S
C276 H290 0.960 . S
C277 C274 1.511 . S
C277 H291 0.961 . S
C277 H292 0.961 . S
C277 H293 0.961 . S
C278 C279 1.370 . S
C278 C280 1.363 . S
C278 H294 0.931 . S
C279 C278 1.370 . S
C279 C283 1.408 . S
C280 C278 1.363 . S
C280 C281 1.370 . S
C280 C284 1.524 . S
C281 C273 1.503 . S
C281 C280 1.370 . S
C281 C282 1.403 . S
C282 C281 1.403 . S
C282 C283 1.404 . S
C282 C285 1.539 . S
C283 C279 1.408 . S
C283 C282 1.404 . S
C283 H295 0.930 . S
C284 C280 1.524 . S
C284 H296 0.956 . S
C284 H297 0.961 . S
C284 H298 0.961 . S
C285 C282 1.539 . S
C285 H299 0.958 . S
C285 H300 0.961 . S
C285 H301 0.960 . S
H286 C270 0.931 . S
H287 C275 0.929 . S
H288 C276 0.960 . S
H289 C276 0.962 . S
H290 C276 0.960 . S
H291 C277 0.961 . S
H292 C277 0.961 . S
H293 C277 0.961 . S
H294 C278 0.931 . S
H295 C283 0.930 . S
H296 C284 0.956 . S
H297 C284 0.961 . S
H298 C284 0.961 . S
H299 C285 0.958 . S
H300 C285 0.961 . S
H301 C285 0.960 . S
C302 C303 1.391 . S
C302 C304 1.394 . S
C302 H318 0.931 . S
C303 C302 1.391 . S
C303 C307 1.376 . S
C304 C302 1.394 . S
C304 C305 1.369 . S
C304 C308 1.531 . S
C305 C304 1.369 . S
C305 C306 1.410 . S
C305 C313 1.503 . S
C306 C305 1.410 . S
C306 C307 1.392 . S
C306 C309 1.511 . S
C307 C303 1.376 . S
C307 C306 1.392 . S
C307 H319 0.929 . S
C308 C304 1.531 . S
C308 H320 0.960 . S
C308 H321 0.962 . S
C308 H322 0.960 . S
C309 C306 1.511 . S
C309 H323 0.961 . S
C309 H324 0.961 . S
C309 H325 0.961 . S
C310 C311 1.370 . S
C310 C312 1.363 . S
C310 H326 0.931 . S
C311 C310 1.370 . S
C311 C315 1.408 . S
C312 C310 1.363 . S
C312 C313 1.370 . S
C312 C316 1.524 . S
C313 C305 1.503 . S
C313 C312 1.370 . S
C313 C314 1.403 . S
C314 C313 1.403 . S
C314 C315 1.404 . S
C314 C317 1.539 . S
C315 C311 1.408 . S
C315 C314 1.404 . S
C315 H327 0.930 . S
C316 C312 1.524 . S
C316 H328 0.956 . S
C316 H329 0.961 . S
C316 H330 0.961 . S
C317 C314 1.539 . S
C317 H331 0.958 . S
C317 H332 0.961 . S
C317 H333 0.960 . S
H318 C302 0.931 . S
H319 C307 0.929 . S
H320 C308 0.960 . S
H321 C308 0.962 . S
H322 C308 0.960 . S
H323 C309 0.961 . S
H324 C309 0.961 . S
H325 C309 0.961 . S
H326 C310 0.931 . S
H327 C315 0.930 . S
H328 C316 0.956 . S
H329 C316 0.961 . S
H330 C316 0.961 . S
H331 C317 0.958 . S
H332 C317 0.961 . S
H333 C317 0.960 . S
C334 C335 1.391 . S
C334 C336 1.394 . S
C334 H350 0.931 . S
C335 C334 1.391 . S
C335 C339 1.376 . S
C336 C334 1.394 . S
C336 C337 1.369 . S
C336 C340 1.531 . S
C337 C336 1.369 . S
C337 C338 1.410 . S
C337 C345 1.503 . S
C338 C337 1.410 . S
C338 C339 1.392 . S
C338 C341 1.511 . S
C339 C335 1.376 . S
C339 C338 1.392 . S
C339 H351 0.929 . S
C340 C336 1.531 . S
C340 H352 0.960 . S
C340 H353 0.962 . S
C340 H354 0.960 . S
C341 C338 1.511 . S
C341 H355 0.961 . S
C341 H356 0.961 . S
C341 H357 0.961 . S
C342 C343 1.370 . S
C342 C344 1.363 . S
C342 H358 0.931 . S
C343 C342 1.370 . S
C343 C347 1.408 . S
C344 C342 1.363 . S
C344 C345 1.370 . S
C344 C348 1.524 . S
C345 C337 1.503 . S
C345 C344 1.370 . S
C345 C346 1.403 . S
C346 C345 1.403 . S
C346 C347 1.404 . S
C346 C349 1.539 . S
C347 C343 1.408 . S
C347 C346 1.404 . S
C347 H359 0.930 . S
C348 C344 1.524 . S
C348 H360 0.956 . S
C348 H361 0.961 . S
C348 H362 0.961 . S
C349 C346 1.539 . S
C349 H363 0.958 . S
C349 H364 0.961 . S
C349 H365 0.960 . S
H350 C334 0.931 . S
H351 C339 0.929 . S
H352 C340 0.960 . S
H353 C340 0.962 . S
H354 C340 0.960 . S
H355 C341 0.961 . S
H356 C341 0.961 . S
H357 C341 0.961 . S
H358 C342 0.931 . S
H359 C347 0.930 . S
H360 C348 0.956 . S
H361 C348 0.961 . S
H362 C348 0.961 . S
H363 C349 0.958 . S
H364 C349 0.961 . S
H365 C349 0.960 . S
C366 C367 1.391 . S
C366 C368 1.394 . S
C366 H382 0.931 . S
C367 C366 1.391 . S
C367 C371 1.376 . S
C368 C366 1.394 . S
C368 C369 1.369 . S
C368 C372 1.531 . S
C369 C368 1.369 . S
C369 C370 1.410 . S
C369 C377 1.503 . S
C370 C369 1.410 . S
C370 C371 1.392 . S
C370 C373 1.511 . S
C371 C367 1.376 . S
C371 C370 1.392 . S
C371 H383 0.929 . S
C372 C368 1.531 . S
C372 H384 0.960 . S
C372 H385 0.962 . S
C372 H386 0.960 . S
C373 C370 1.511 . S
C373 H387 0.961 . S
C373 H388 0.961 . S
C373 H389 0.961 . S
C374 C375 1.370 . S
C374 C376 1.363 . S
C374 H390 0.931 . S
C375 C374 1.370 . S
C375 C379 1.408 . S
C376 C374 1.363 . S
C376 C377 1.370 . S
C376 C380 1.524 . S
C377 C369 1.503 . S
C377 C376 1.370 . S
C377 C378 1.403 . S
C378 C377 1.403 . S
C378 C379 1.404 . S
C378 C381 1.539 . S
C379 C375 1.408 . S
C379 C378 1.404 . S
C379 H391 0.930 . S
C380 C376 1.524 . S
C380 H392 0.956 . S
C380 H393 0.961 . S
C380 H394 0.961 . S
C381 C378 1.539 . S
C381 H395 0.958 . S
C381 H396 0.961 . S
C381 H397 0.960 . S
H382 C366 0.931 . S
H383 C371 0.929 . S
H384 C372 0.960 . S
H385 C372 0.962 . S
H386 C372 0.960 . S
H387 C373 0.961 . S
H388 C373 0.961 . S
H389 C373 0.961 . S
H390 C374 0.931 . S
H391 C379 0.930 . S
H392 C380 0.956 . S
H393 C380 0.961 . S
H394 C380 0.961 . S
H395 C381 0.958 . S
H396 C381 0.961 . S
H397 C381 0.960 . S
C398 C399 1.391 . S
C398 C400 1.394 . S
C398 H414 0.931 . S
C399 C398 1.391 . S
C399 C403 1.376 . S
C400 C398 1.394 . S
C400 C401 1.369 . S
C400 C404 1.531 . S
C401 C400 1.369 . S
C401 C402 1.410 . S
C401 C409 1.503 . S
C402 C401 1.410 . S
C402 C403 1.392 . S
C402 C405 1.511 . S
C403 C399 1.376 . S
C403 C402 1.392 . S
C403 H415 0.929 . S
C404 C400 1.531 . S
C404 H416 0.960 1_556 S
C404 H417 0.962 . S
C404 H418 0.960 1_556 S
C405 C402 1.511 . S
C405 H419 0.961 . S
C405 H420 0.961 . S
C405 H421 0.961 . S
C406 C407 1.370 1_556 S
C406 C408 1.363 . S
C406 H422 0.931 . S
C407 C406 1.370 1_554 S
C407 C411 1.408 . S
C408 C406 1.363 . S
C408 C409 1.370 . S
C408 C412 1.524 . S
C409 C401 1.503 . S
C409 C408 1.370 . S
C409 C410 1.403 . S
C410 C409 1.403 . S
C410 C411 1.404 1_556 S
C410 C413 1.539 1_556 S
C411 C407 1.408 . S
C411 C410 1.404 1_554 S
C411 H423 0.930 . S
C412 C408 1.524 . S
C412 H424 0.956 . S
C412 H425 0.961 . S
C412 H426 0.961 . S
C413 C410 1.539 1_554 S
C413 H427 0.958 . S
C413 H428 0.961 . S
C413 H429 0.960 1_554 S
H414 C398 0.931 . S
H415 C403 0.929 . S
H416 C404 0.960 1_554 S
H417 C404 0.962 . S
H418 C404 0.960 1_554 S
H419 C405 0.961 . S
H420 C405 0.961 . S
H421 C405 0.961 . S
H422 C406 0.931 . S
H423 C411 0.930 . S
H424 C412 0.956 . S
H425 C412 0.961 . S
H426 C412 0.961 . S
H427 C413 0.958 . S
H428 C413 0.961 . S
H429 C413 0.960 1_556 S
C430 C431 1.387 1_556 S
C430 C432 1.394 1_556 S
C430 H446 0.931 . S
C431 C430 1.387 1_554 S
C431 C435 1.387 . S
C432 C430 1.394 1_554 S
C432 C433 1.369 . S
C432 C436 1.531 1_554 S
C433 C432 1.369 . S
C433 C434 1.410 . S
C433 C441 1.503 . S
C434 C433 1.410 . S
C434 C435 1.392 . S
C434 C437 1.511 . S
C435 C431 1.387 . S
C435 C434 1.392 . S
C435 H447 0.929 . S
C436 C432 1.531 1_556 S
C436 H448 0.960 1_556 S
C436 H449 0.962 . S
C436 H450 0.960 . S
C437 C434 1.511 . S
C437 H451 0.961 . S
C437 H452 0.961 . S
C437 H453 0.961 . S
C438 C439 1.370 . S
C438 C440 1.363 . S
C438 H454 0.931 . S
C439 C438 1.370 . S
C439 C443 1.408 . S
C440 C438 1.363 . S
C440 C441 1.370 . S
C440 C444 1.524 . S
C441 C433 1.503 . S
C441 C440 1.370 . S
C441 C442 1.403 . S
C442 C441 1.403 . S
C442 C443 1.404 . S
C442 C445 1.539 . S
C443 C439 1.408 . S
C443 C442 1.404 . S
C443 H455 0.930 . S
C444 C440 1.524 . S
C444 H456 0.956 1_554 S
C444 H457 0.961 . S
C444 H458 0.961 . S
C445 C442 1.539 . S
C445 H459 0.958 . S
C445 H460 0.961 . S
C445 H461 0.960 . S
H446 C430 0.931 . S
H447 C435 0.929 . S
H448 C436 0.960 1_554 S
H449 C436 0.962 . S
H450 C436 0.960 . S
H451 C437 0.961 . S
H452 C437 0.961 . S
H453 C437 0.961 . S
H454 C438 0.931 . S
H455 C443 0.930 . S
H456 C444 0.956 1_556 S
H457 C444 0.961 . S
H458 C444 0.961 . S
H459 C445 0.958 . S
H460 C445 0.961 . S
H461 C445 0.960 . S
C79 C10 1.338 . S
C87 C49 1.341 . S
C111 C56 1.352 . S
C119 C23 1.346 . S
C143 C36 1.352 . S
C151 C69 1.349 . S
C175 C43 1.347 . S
C183 C4 1.343 . S
C207 C17 1.352 . S
C215 C62 1.346 . S
C239 C75 1.352 . S
C247 C30 1.349 . S
C271 C3 1.321 . S
C279 C31 1.337 . S
C303 C16 1.334 . S
C311 C42 1.343 . S
C335 C57 1.329 . S
C343 C29 1.343 . S
C367 C70 1.344 . S
C375 C44 1.343 . S
C399 C55 1.339 . S
C407 C5 1.344 . S
C431 C68 1.314 1_554 S
C439 C18 1.337 . S
