# Generated by pormake.
# Topology wgi, (5)-cn, num edge types: 1
# Building blocks:
#     Node 0, Type 0, BuildingBlock: XOMCOT_clean_sbu_1, # of connection points: 5
#     Node 1, Type 0, BuildingBlock: XOMCOT_clean_sbu_1, # of connection points: 5
#     Node 2, Type 0, BuildingBlock: XOMCOT_clean_sbu_1, # of connection points: 5
#     Node 3, Type 0, BuildingBlock: XOMCOT_clean_sbu_1, # of connection points: 5
#     Node 4, Type 0, BuildingBlock: XOMCOT_clean_sbu_1, # of connection points: 5
#     Node 5, Type 0, BuildingBlock: XOMCOT_clean_sbu_1, # of connection points: 5
#     Node 6, Type 0, BuildingBlock: XOMCOT_clean_sbu_1, # of connection points: 5
#     Node 7, Type 0, BuildingBlock: XOMCOT_clean_sbu_1, # of connection points: 5
#     Node 8, Type 0, BuildingBlock: XOMCOT_clean_sbu_1, # of connection points: 5
#     Node 9, Type 0, BuildingBlock: XOMCOT_clean_sbu_1, # of connection points: 5
#     Node 10, Type 0, BuildingBlock: XOMCOT_clean_sbu_1, # of connection points: 5
#     Node 11, Type 0, BuildingBlock: XOMCOT_clean_sbu_1, # of connection points: 5
#     Node 12, Type 0, BuildingBlock: XOMCOT_clean_sbu_1, # of connection points: 5
#     Node 13, Type 0, BuildingBlock: XOMCOT_clean_sbu_1, # of connection points: 5
#     Node 14, Type 0, BuildingBlock: XOMCOT_clean_sbu_1, # of connection points: 5
#     Node 15, Type 0, BuildingBlock: XOMCOT_clean_sbu_1, # of connection points: 5
#     Node 16, Type 0, BuildingBlock: XOMCOT_clean_sbu_1, # of connection points: 5
#     Node 17, Type 0, BuildingBlock: XOMCOT_clean_sbu_1, # of connection points: 5
#     Node 18, Type 0, BuildingBlock: XOMCOT_clean_sbu_1, # of connection points: 5
#     Node 19, Type 0, BuildingBlock: XOMCOT_clean_sbu_1, # of connection points: 5
#     Node 20, Type 0, BuildingBlock: XOMCOT_clean_sbu_1, # of connection points: 5
#     Node 21, Type 0, BuildingBlock: XOMCOT_clean_sbu_1, # of connection points: 5
#     Node 22, Type 0, BuildingBlock: XOMCOT_clean_sbu_1, # of connection points: 5
#     Node 23, Type 0, BuildingBlock: XOMCOT_clean_sbu_1, # of connection points: 5
#     Node 24, Type 0, BuildingBlock: XOMCOT_clean_sbu_1, # of connection points: 5
#     Node 25, Type 0, BuildingBlock: XOMCOT_clean_sbu_1, # of connection points: 5
#     Node 26, Type 0, BuildingBlock: XOMCOT_clean_sbu_1, # of connection points: 5
#     Node 27, Type 0, BuildingBlock: XOMCOT_clean_sbu_1, # of connection points: 5
#     Node 28, Type 0, BuildingBlock: XOMCOT_clean_sbu_1, # of connection points: 5
#     Node 29, Type 0, BuildingBlock: XOMCOT_clean_sbu_1, # of connection points: 5
#     Node 30, Type 0, BuildingBlock: XOMCOT_clean_sbu_1, # of connection points: 5
#     Node 31, Type 0, BuildingBlock: XOMCOT_clean_sbu_1, # of connection points: 5
#     Edge 32, Type (0, 0), BuildingBlock: KIFKEQ_clean_linker_1, # of connection points: 2
#     Edge 33, Type (0, 0), BuildingBlock: KIFKEQ_clean_linker_1, # of connection points: 2
#     Edge 34, Type (0, 0), BuildingBlock: KIFKEQ_clean_linker_1, # of connection points: 2
#     Edge 35, Type (0, 0), BuildingBlock: KIFKEQ_clean_linker_1, # of connection points: 2
#     Edge 36, Type (0, 0), BuildingBlock: KIFKEQ_clean_linker_1, # of connection points: 2
#     Edge 37, Type (0, 0), BuildingBlock: KIFKEQ_clean_linker_1, # of connection points: 2
#     Edge 38, Type (0, 0), BuildingBlock: KIFKEQ_clean_linker_1, # of connection points: 2
#     Edge 39, Type (0, 0), BuildingBlock: KIFKEQ_clean_linker_1, # of connection points: 2
#     Edge 40, Type (0, 0), BuildingBlock: KIFKEQ_clean_linker_1, # of connection points: 2
#     Edge 41, Type (0, 0), BuildingBlock: KIFKEQ_clean_linker_1, # of connection points: 2
#     Edge 42, Type (0, 0), BuildingBlock: KIFKEQ_clean_linker_1, # of connection points: 2
#     Edge 43, Type (0, 0), BuildingBlock: KIFKEQ_clean_linker_1, # of connection points: 2
#     Edge 44, Type (0, 0), BuildingBlock: KIFKEQ_clean_linker_1, # of connection points: 2
#     Edge 45, Type (0, 0), BuildingBlock: KIFKEQ_clean_linker_1, # of connection points: 2
#     Edge 46, Type (0, 0), BuildingBlock: KIFKEQ_clean_linker_1, # of connection points: 2
#     Edge 47, Type (0, 0), BuildingBlock: KIFKEQ_clean_linker_1, # of connection points: 2
#     Edge 48, Type (0, 0), BuildingBlock: KIFKEQ_clean_linker_1, # of connection points: 2
#     Edge 49, Type (0, 0), BuildingBlock: KIFKEQ_clean_linker_1, # of connection points: 2
#     Edge 50, Type (0, 0), BuildingBlock: KIFKEQ_clean_linker_1, # of connection points: 2
#     Edge 51, Type (0, 0), BuildingBlock: KIFKEQ_clean_linker_1, # of connection points: 2
#     Edge 52, Type (0, 0), BuildingBlock: KIFKEQ_clean_linker_1, # of connection points: 2
#     Edge 53, Type (0, 0), BuildingBlock: KIFKEQ_clean_linker_1, # of connection points: 2
#     Edge 54, Type (0, 0), BuildingBlock: KIFKEQ_clean_linker_1, # of connection points: 2
#     Edge 55, Type (0, 0), BuildingBlock: KIFKEQ_clean_linker_1, # of connection points: 2
#     Edge 56, Type (0, 0), BuildingBlock: KIFKEQ_clean_linker_1, # of connection points: 2
#     Edge 57, Type (0, 0), BuildingBlock: KIFKEQ_clean_linker_1, # of connection points: 2
#     Edge 58, Type (0, 0), BuildingBlock: KIFKEQ_clean_linker_1, # of connection points: 2
#     Edge 59, Type (0, 0), BuildingBlock: KIFKEQ_clean_linker_1, # of connection points: 2
#     Edge 60, Type (0, 0), BuildingBlock: KIFKEQ_clean_linker_1, # of connection points: 2
#     Edge 61, Type (0, 0), BuildingBlock: KIFKEQ_clean_linker_1, # of connection points: 2
#     Edge 62, Type (0, 0), BuildingBlock: KIFKEQ_clean_linker_1, # of connection points: 2
#     Edge 63, Type (0, 0), BuildingBlock: KIFKEQ_clean_linker_1, # of connection points: 2
#     Edge 64, Type (0, 0), BuildingBlock: KIFKEQ_clean_linker_1, # of connection points: 2
#     Edge 65, Type (0, 0), BuildingBlock: KIFKEQ_clean_linker_1, # of connection points: 2
#     Edge 66, Type (0, 0), BuildingBlock: KIFKEQ_clean_linker_1, # of connection points: 2
#     Edge 67, Type (0, 0), BuildingBlock: KIFKEQ_clean_linker_1, # of connection points: 2
#     Edge 68, Type (0, 0), BuildingBlock: KIFKEQ_clean_linker_1, # of connection points: 2
#     Edge 69, Type (0, 0), BuildingBlock: KIFKEQ_clean_linker_1, # of connection points: 2
#     Edge 70, Type (0, 0), BuildingBlock: KIFKEQ_clean_linker_1, # of connection points: 2
#     Edge 71, Type (0, 0), BuildingBlock: KIFKEQ_clean_linker_1, # of connection points: 2
#     Edge 72, Type (0, 0), BuildingBlock: KIFKEQ_clean_linker_1, # of connection points: 2
#     Edge 73, Type (0, 0), BuildingBlock: KIFKEQ_clean_linker_1, # of connection points: 2
#     Edge 74, Type (0, 0), BuildingBlock: KIFKEQ_clean_linker_1, # of connection points: 2
#     Edge 75, Type (0, 0), BuildingBlock: KIFKEQ_clean_linker_1, # of connection points: 2
#     Edge 76, Type (0, 0), BuildingBlock: KIFKEQ_clean_linker_1, # of connection points: 2
#     Edge 77, Type (0, 0), BuildingBlock: KIFKEQ_clean_linker_1, # of connection points: 2
#     Edge 78, Type (0, 0), BuildingBlock: KIFKEQ_clean_linker_1, # of connection points: 2
#     Edge 79, Type (0, 0), BuildingBlock: KIFKEQ_clean_linker_1, # of connection points: 2
#     Edge 80, Type (0, 0), BuildingBlock: KIFKEQ_clean_linker_1, # of connection points: 2
#     Edge 81, Type (0, 0), BuildingBlock: KIFKEQ_clean_linker_1, # of connection points: 2
#     Edge 82, Type (0, 0), BuildingBlock: KIFKEQ_clean_linker_1, # of connection points: 2
#     Edge 83, Type (0, 0), BuildingBlock: KIFKEQ_clean_linker_1, # of connection points: 2
#     Edge 84, Type (0, 0), BuildingBlock: KIFKEQ_clean_linker_1, # of connection points: 2
#     Edge 85, Type (0, 0), BuildingBlock: KIFKEQ_clean_linker_1, # of connection points: 2
#     Edge 86, Type (0, 0), BuildingBlock: KIFKEQ_clean_linker_1, # of connection points: 2
#     Edge 87, Type (0, 0), BuildingBlock: KIFKEQ_clean_linker_1, # of connection points: 2
#     Edge 88, Type (0, 0), BuildingBlock: KIFKEQ_clean_linker_1, # of connection points: 2
#     Edge 89, Type (0, 0), BuildingBlock: KIFKEQ_clean_linker_1, # of connection points: 2
#     Edge 90, Type (0, 0), BuildingBlock: KIFKEQ_clean_linker_1, # of connection points: 2
#     Edge 91, Type (0, 0), BuildingBlock: KIFKEQ_clean_linker_1, # of connection points: 2
#     Edge 92, Type (0, 0), BuildingBlock: KIFKEQ_clean_linker_1, # of connection points: 2
#     Edge 93, Type (0, 0), BuildingBlock: KIFKEQ_clean_linker_1, # of connection points: 2
#     Edge 94, Type (0, 0), BuildingBlock: KIFKEQ_clean_linker_1, # of connection points: 2
#     Edge 95, Type (0, 0), BuildingBlock: KIFKEQ_clean_linker_1, # of connection points: 2
#     Edge 96, Type (0, 0), BuildingBlock: KIFKEQ_clean_linker_1, # of connection points: 2
#     Edge 97, Type (0, 0), BuildingBlock: KIFKEQ_clean_linker_1, # of connection points: 2
#     Edge 98, Type (0, 0), BuildingBlock: KIFKEQ_clean_linker_1, # of connection points: 2
#     Edge 99, Type (0, 0), BuildingBlock: KIFKEQ_clean_linker_1, # of connection points: 2
#     Edge 100, Type (0, 0), BuildingBlock: KIFKEQ_clean_linker_1, # of connection points: 2
#     Edge 101, Type (0, 0), BuildingBlock: KIFKEQ_clean_linker_1, # of connection points: 2
#     Edge 102, Type (0, 0), BuildingBlock: KIFKEQ_clean_linker_1, # of connection points: 2
#     Edge 103, Type (0, 0), BuildingBlock: KIFKEQ_clean_linker_1, # of connection points: 2
#     Edge 104, Type (0, 0), BuildingBlock: KIFKEQ_clean_linker_1, # of connection points: 2
#     Edge 105, Type (0, 0), BuildingBlock: KIFKEQ_clean_linker_1, # of connection points: 2
#     Edge 106, Type (0, 0), BuildingBlock: KIFKEQ_clean_linker_1, # of connection points: 2
#     Edge 107, Type (0, 0), BuildingBlock: KIFKEQ_clean_linker_1, # of connection points: 2
#     Edge 108, Type (0, 0), BuildingBlock: KIFKEQ_clean_linker_1, # of connection points: 2
#     Edge 109, Type (0, 0), BuildingBlock: KIFKEQ_clean_linker_1, # of connection points: 2
#     Edge 110, Type (0, 0), BuildingBlock: KIFKEQ_clean_linker_1, # of connection points: 2
#     Edge 111, Type (0, 0), BuildingBlock: KIFKEQ_clean_linker_1, # of connection points: 2
# Relax obj value: 0.188
# Max RMSD: 0.146
# Mean RMSD: 0.146
data_MOF--net-wgi--node1-XOMCOT_clean_sbu_1--edge1-KIFKEQ_clean_linker_1
_symmetry_space_group_name_H-M    P1
_symmetry_Int_Tables_number       1
_symmetry_cell_setting            triclinic
loop_
_symmetry_equiv_pos_as_xyz
'x, y, z'
_cell_length_a     76.565975
_cell_length_b     76.508363
_cell_length_c     27.407829
_cell_angle_alpha  90.053364
_cell_angle_beta   89.912592
_cell_angle_gamma 90.023619
loop_
_atom_site_label
_atom_site_type_symbol
_atom_site_fract_x
_atom_site_fract_y
_atom_site_fract_z
_atom_type_partial_charge
C0 C 0.11486 0.18418 0.4283 0.0
C1 C 0.09726 0.18164 0.43531 0.0
N2 N 0.09319 0.16531 0.42071 0.0
N3 N 0.12186 0.16962 0.4087 0.0
C4 C 0.10837 0.15835 0.40453 0.0
H5 H 0.12216 0.19568 0.43871 0.0
Co6 Co 0.14548 0.16493 0.4003 0.0
C7 C 0.14916 0.15178 0.29939 0.0
O8 O 0.16321 0.16163 0.29686 0.0
N9 N 0.16951 0.15957 0.39456 0.0
C10 C 0.1928 0.14217 0.39239 0.0
C11 C 0.17541 0.14357 0.38161 0.0
C12 C 0.18363 0.16742 0.41479 0.0
N13 N 0.19801 0.15712 0.41378 0.0
O14 O 0.14288 0.14477 0.4413 0.0
H15 H 0.16726 0.13297 0.36889 0.0
H16 H 0.18314 0.17978 0.43356 0.0
O17 O 0.14026 0.15149 0.33922 0.0
C18 C 0.14684 0.15 0.48417 0.0
O19 O 0.15215 0.16624 0.48936 0.0
N20 N 0.14771 0.18618 0.36556 0.0
C21 C 0.14243 0.22124 0.33938 0.0
C22 C 0.13622 0.20756 0.30985 0.0
C23 C 0.13846 0.1902 0.32439 0.0
C24 C 0.15463 0.19927 0.3932 0.0
C25 C 0.15227 0.2168 0.38074 0.0
H26 H 0.13129 0.18031 0.30481 0.0
H27 H 0.16006 0.19633 0.4285 0.0
H28 H 0.10991 0.14496 0.39253 0.0
H29 H 0.08828 0.19103 0.4509 0.0
H30 H 0.20054 0.13039 0.38898 0.0
H31 H 0.12859 0.21018 0.27746 0.0
H32 H 0.15677 0.22669 0.40602 0.0
C33 C 0.06944 0.86285 0.70499 0.0
C34 C 0.0729 0.84545 0.71271 0.0
N35 N 0.08931 0.84209 0.69736 0.0
N36 N 0.0835 0.87043 0.68433 0.0
C37 C 0.09541 0.85751 0.68022 0.0
H38 H 0.05753 0.8696 0.71474 0.0
Co39 Co 0.08606 0.89412 0.67133 0.0
C40 C 0.11237 0.89465 0.58946 0.0
O41 O 0.12105 0.90775 0.60875 0.0
N42 N 0.08835 0.91816 0.65961 0.0
C43 C 0.08782 0.94484 0.62739 0.0
C44 C 0.0866 0.92718 0.6176 0.0
C45 C 0.09034 0.93057 0.69422 0.0
N46 N 0.09021 0.94691 0.67577 0.0
O47 O 0.10673 0.89428 0.71144 0.0
H48 H 0.08421 0.92133 0.5823 0.0
H49 H 0.09107 0.9278 0.73272 0.0
O50 O 0.09912 0.88839 0.61176 0.0
C51 C 0.10168 0.89571 0.75575 0.0
O52 O 0.08486 0.89719 0.76455 0.0
N53 N 0.06501 0.89387 0.6371 0.0
C54 C 0.03053 0.8877 0.6092 0.0
C55 C 0.04454 0.88136 0.58096 0.0
C56 C 0.06173 0.8844 0.59589 0.0
C57 C 0.05171 0.90135 0.66262 0.0
C58 C 0.03438 0.89838 0.64949 0.0
H59 H 0.0722 0.87812 0.57613 0.0
H60 H 0.05456 0.90847 0.6958 0.0
H61 H 0.10852 0.85958 0.66658 0.0
H62 H 0.06398 0.83607 0.72854 0.0
H63 H 0.08687 0.95529 0.60097 0.0
H64 H 0.04228 0.87335 0.54901 0.0
H65 H 0.02418 0.90338 0.67304 0.0
C66 C 0.3889 0.82091 0.93167 0.0
C67 C 0.40663 0.82332 0.93533 0.0
N68 N 0.41042 0.83951 0.91933 0.0
N69 N 0.38159 0.83538 0.9124 0.0
C70 C 0.39502 0.84659 0.90581 0.0
H71 H 0.38176 0.80943 0.94312 0.0
Co72 Co 0.35786 0.83925 0.90319 0.0
C73 C 0.35529 0.84988 0.79896 0.0
O74 O 0.34187 0.83922 0.79573 0.0
N75 N 0.33361 0.84365 0.89669 0.0
C76 C 0.30915 0.8593 0.89026 0.0
C77 C 0.32638 0.85808 0.87666 0.0
C78 C 0.32051 0.83674 0.92385 0.0
N79 N 0.3055 0.84596 0.9205 0.0
O80 O 0.35981 0.86022 0.94163 0.0
H81 H 0.33349 0.86811 0.85729 0.0
H82 H 0.32228 0.82617 0.94929 0.0
O83 O 0.36294 0.85182 0.84042 0.0
C84 C 0.35562 0.85633 0.98546 0.0
O85 O 0.35046 0.84029 0.99476 0.0
N86 N 0.35638 0.81733 0.87077 0.0
C87 C 0.36235 0.78207 0.84757 0.0
C88 C 0.3693 0.79552 0.81861 0.0
C89 C 0.36669 0.81297 0.83177 0.0
C90 C 0.34879 0.80441 0.89775 0.0
C91 C 0.35148 0.78679 0.88669 0.0
H92 H 0.37441 0.8227 0.8132 0.0
H93 H 0.34244 0.80754 0.93164 0.0
H94 H 0.39352 0.85972 0.89177 0.0
H95 H 0.41597 0.8141 0.94998 0.0
H96 H 0.3005 0.87012 0.88232 0.0
H97 H 0.37776 0.79268 0.78793 0.0
H98 H 0.34633 0.77706 0.9115 0.0
C99 C 0.44114 0.139 0.17776 0.0
C100 C 0.43866 0.15616 0.19101 0.0
N101 N 0.42143 0.15886 0.19683 0.0
N102 N 0.42548 0.13093 0.17408 0.0
C103 C 0.41378 0.14336 0.18718 0.0
H104 H 0.45367 0.13299 0.17128 0.0
Co105 Co 0.42052 0.1073 0.15911 0.0
C106 C 0.4051 0.12794 0.07451 0.0
O107 O 0.41375 0.1421 0.0865 0.0
N108 N 0.41573 0.08384 0.14704 0.0
C109 C 0.40632 0.05816 0.11955 0.0
C110 C 0.40857 0.07561 0.10834 0.0
C111 C 0.41792 0.07119 0.18068 0.0
N112 N 0.41223 0.05546 0.16523 0.0
O113 O 0.40032 0.10844 0.20117 0.0
H114 H 0.40486 0.08185 0.07457 0.0
H115 H 0.42307 0.07362 0.21672 0.0
O116 O 0.40681 0.11391 0.09978 0.0
C117 C 0.40613 0.10655 0.24459 0.0
O118 O 0.42305 0.10445 0.25023 0.0
N119 N 0.44138 0.10534 0.12372 0.0
C120 C 0.47647 0.10909 0.10011 0.0
C121 C 0.46352 0.11449 0.06723 0.0
C122 C 0.44588 0.11244 0.07972 0.0
C123 C 0.4538 0.09809 0.15292 0.0
C124 C 0.47145 0.09986 0.1419 0.0
H125 H 0.4362 0.11769 0.05551 0.0
H126 H 0.45005 0.09246 0.18756 0.0
H127 H 0.39979 0.14133 0.18714 0.0
H128 H 0.44877 0.16591 0.19581 0.0
H129 H 0.40066 0.04829 0.09606 0.0
H130 H 0.46695 0.12155 0.03435 0.0
H131 H 0.4811 0.09531 0.16783 0.0
C132 C 0.1161 0.82197 0.11824 0.0
C133 C 0.09855 0.82463 0.11122 0.0
N134 N 0.09455 0.84078 0.12728 0.0
N135 N 0.12308 0.83622 0.13971 0.0
C136 C 0.10966 0.84758 0.1442 0.0
H137 H 0.12343 0.81055 0.10721 0.0
Co138 Co 0.14675 0.83976 0.15119 0.0
C139 C 0.14795 0.84795 0.25691 0.0
O140 O 0.16051 0.83628 0.25956 0.0
N141 N 0.17103 0.84382 0.15926 0.0
C142 C 0.1964 0.85758 0.17125 0.0
C143 C 0.17919 0.85637 0.18554 0.0
C144 C 0.18352 0.83824 0.12782 0.0
N145 N 0.19905 0.84623 0.13449 0.0
O146 O 0.14528 0.86119 0.11482 0.0
H147 H 0.17285 0.86532 0.21035 0.0
H148 H 0.18095 0.8295 0.09778 0.0
O149 O 0.14126 0.85158 0.21506 0.0
C150 C 0.14865 0.85741 0.07036 0.0
O151 O 0.15269 0.84118 0.05949 0.0
N152 N 0.14778 0.81737 0.18174 0.0
C153 C 0.14223 0.78182 0.20075 0.0
C154 C 0.13281 0.79465 0.22613 0.0
C155 C 0.13562 0.81232 0.21569 0.0
C156 C 0.15761 0.80497 0.15873 0.0
C157 C 0.15527 0.78723 0.16825 0.0
H158 H 0.12678 0.82177 0.23145 0.0
H159 H 0.1661 0.80844 0.12919 0.0
H160 H 0.11103 0.86071 0.15848 0.0
H161 H 0.08955 0.81569 0.09374 0.0
H162 H 0.20577 0.86714 0.18403 0.0
H163 H 0.12229 0.79108 0.25065 0.0
H164 H 0.16282 0.77778 0.14769 0.0
C165 C 0.43175 0.86525 0.33128 0.0
C166 C 0.42826 0.84789 0.3238 0.0
N167 N 0.41433 0.84338 0.35125 0.0
N168 N 0.42018 0.87178 0.36349 0.0
C169 C 0.40965 0.85821 0.37495 0.0
H170 H 0.44176 0.87283 0.31317 0.0
Co171 Co 0.41917 0.8954 0.37851 0.0
C172 C 0.41037 0.89544 0.48517 0.0
O173 O 0.42349 0.90613 0.49202 0.0
N174 N 0.41837 0.92018 0.39125 0.0
C175 C 0.42686 0.94752 0.40799 0.0
C176 C 0.42959 0.93015 0.41758 0.0
C177 C 0.40887 0.9322 0.36631 0.0
N178 N 0.41399 0.9488 0.37499 0.0
O179 O 0.39757 0.89643 0.34281 0.0
H180 H 0.4403 0.92533 0.43933 0.0
H181 H 0.39895 0.92902 0.33992 0.0
O182 O 0.40683 0.89015 0.44174 0.0
C183 C 0.40185 0.89912 0.29827 0.0
O184 O 0.4183 0.90256 0.28829 0.0
N185 N 0.44148 0.89348 0.4061 0.0
C186 C 0.47656 0.88487 0.41739 0.0
C187 C 0.46384 0.87726 0.44748 0.0
C188 C 0.44624 0.88145 0.44046 0.0
C189 C 0.45382 0.90131 0.37762 0.0
C190 C 0.47144 0.89735 0.38302 0.0
H191 H 0.43645 0.87396 0.45969 0.0
H192 H 0.44982 0.90985 0.34826 0.0
H193 H 0.3986 0.85934 0.39937 0.0
H194 H 0.43511 0.83948 0.29846 0.0
H195 H 0.43491 0.95822 0.42071 0.0
H196 H 0.46732 0.86712 0.47326 0.0
H197 H 0.48089 0.90326 0.35862 0.0
C198 C 0.38652 0.18308 0.61299 0.0
C199 C 0.40419 0.18104 0.60603 0.0
N200 N 0.40851 0.16461 0.61884 0.0
N201 N 0.37983 0.16813 0.63121 0.0
C202 C 0.39352 0.15704 0.63384 0.0
H203 H 0.37892 0.19457 0.60421 0.0
Co204 Co 0.35629 0.16325 0.64133 0.0
C205 C 0.35446 0.15183 0.74365 0.0
O206 O 0.34096 0.1624 0.7467 0.0
N207 N 0.3323 0.15767 0.64776 0.0
C208 C 0.30832 0.14119 0.65339 0.0
C209 C 0.32535 0.14313 0.66816 0.0
C210 C 0.31934 0.16374 0.6188 0.0
N211 N 0.30459 0.1542 0.62222 0.0
O212 O 0.35871 0.14321 0.59943 0.0
H213 H 0.33254 0.1335 0.68875 0.0
H214 H 0.32121 0.17367 0.59123 0.0
O215 O 0.36219 0.14993 0.70224 0.0
C216 C 0.35599 0.14904 0.55639 0.0
O217 O 0.35203 0.16567 0.55169 0.0
N218 N 0.35419 0.18444 0.67802 0.0
C219 C 0.35825 0.21945 0.70657 0.0
C220 C 0.3692 0.20633 0.72527 0.0
C221 C 0.36682 0.18894 0.71105 0.0
C222 C 0.34272 0.19685 0.66231 0.0
C223 C 0.34416 0.2142 0.67733 0.0
H224 H 0.37641 0.17944 0.72257 0.0
H225 H 0.33325 0.19395 0.63482 0.0
H226 H 0.39241 0.14356 0.64536 0.0
H227 H 0.41305 0.19062 0.59073 0.0
H228 H 0.29975 0.13039 0.6623 0.0
H229 H 0.38043 0.20947 0.7475 0.0
H230 H 0.33489 0.22357 0.66314 0.0
C231 C 0.06228 0.1404 0.86603 0.0
C232 C 0.06426 0.15771 0.85387 0.0
N233 N 0.08142 0.16104 0.8488 0.0
N234 N 0.07817 0.13287 0.87026 0.0
C235 C 0.0895 0.14567 0.8573 0.0
H236 H 0.04995 0.13378 0.8711 0.0
Co237 Co 0.08316 0.10916 0.88366 0.0
C238 C 0.10179 0.1287 0.96632 0.0
O239 O 0.09565 0.144 0.95355 0.0
N240 N 0.0879 0.0855 0.8939 0.0
C241 C 0.09427 0.05919 0.92326 0.0
C242 C 0.09215 0.07665 0.93473 0.0
C243 C 0.0874 0.07324 0.85851 0.0
N244 N 0.09135 0.05713 0.87509 0.0
O245 O 0.10269 0.11042 0.83946 0.0
H246 H 0.09353 0.08243 0.97052 0.0
H247 H 0.08375 0.07601 0.82129 0.0
O248 O 0.09778 0.11494 0.94195 0.0
C249 C 0.09631 0.10911 0.79653 0.0
O250 O 0.07929 0.10734 0.79234 0.0
N251 N 0.06295 0.10731 0.92225 0.0
C252 C 0.02813 0.11021 0.95096 0.0
C253 C 0.0413 0.11926 0.97617 0.0
C254 C 0.05873 0.11753 0.96145 0.0
C255 C 0.05057 0.09711 0.90074 0.0
C256 C 0.03316 0.0981 0.91511 0.0
H257 H 0.06829 0.12582 0.97834 0.0
H258 H 0.05394 0.08924 0.86933 0.0
H259 H 0.10354 0.14397 0.85678 0.0
H260 H 0.05384 0.16712 0.84915 0.0
H261 H 0.09787 0.0489 0.94837 0.0
H262 H 0.03813 0.12879 1.004 0.0
H263 H 0.02356 0.0904 0.89561 0.0
C264 C 0.88838 0.81703 0.60626 0.0
C265 C 0.9061 0.8194 0.60158 0.0
N266 N 0.9099 0.83594 0.61467 0.0
N267 N 0.8811 0.83191 0.62318 0.0
C268 C 0.89453 0.84326 0.62749 0.0
H269 H 0.88123 0.80534 0.59672 0.0
Co270 Co 0.85743 0.83625 0.63158 0.0
C271 C 0.85453 0.84917 0.7336 0.0
O272 O 0.84067 0.83913 0.73783 0.0
N273 N 0.83328 0.84114 0.63728 0.0
C274 C 0.8095 0.85794 0.639 0.0
C275 C 0.82658 0.85646 0.65339 0.0
C276 C 0.81995 0.83381 0.61191 0.0
N277 N 0.80539 0.84377 0.61238 0.0
O278 O 0.85973 0.85649 0.59047 0.0
H279 H 0.83406 0.86681 0.67019 0.0
H280 H 0.82144 0.82266 0.58815 0.0
O281 O 0.8626 0.84983 0.69242 0.0
C282 C 0.85553 0.85199 0.54714 0.0
O283 O 0.8502 0.83588 0.53967 0.0
N284 N 0.85556 0.81505 0.66693 0.0
C285 C 0.86139 0.78023 0.6945 0.0
C286 C 0.868 0.79413 0.72241 0.0
C287 C 0.86549 0.81134 0.7071 0.0
C288 C 0.84814 0.80173 0.64117 0.0
C289 C 0.85079 0.78431 0.65434 0.0
H290 H 0.87305 0.82134 0.72496 0.0
H291 H 0.84201 0.80434 0.60664 0.0
H292 H 0.893 0.85671 0.63901 0.0
H293 H 0.91537 0.80993 0.58779 0.0
H294 H 0.80122 0.86925 0.64434 0.0
H295 H 0.87619 0.79179 0.75388 0.0
H296 H 0.84588 0.7742 0.63035 0.0
C297 C 0.93256 0.14143 0.35244 0.0
C298 C 0.93007 0.15917 0.34901 0.0
N299 N 0.91403 0.16292 0.36635 0.0
N300 N 0.91829 0.13408 0.3728 0.0
C301 C 0.90713 0.14748 0.38037 0.0
H302 H 0.9439 0.13428 0.33995 0.0
Co303 Co 0.9145 0.11026 0.3812 0.0
C304 C 0.90538 0.10706 0.48559 0.0
O305 O 0.9166 0.09405 0.48632 0.0
N306 N 0.91006 0.08589 0.38663 0.0
C307 C 0.89564 0.06075 0.39653 0.0
C308 C 0.89665 0.07801 0.41021 0.0
C309 C 0.91622 0.07323 0.35661 0.0
N310 N 0.90793 0.0578 0.36247 0.0
O311 O 0.8934 0.11232 0.34358 0.0
H312 H 0.88715 0.08459 0.43287 0.0
H313 H 0.92558 0.07552 0.3279 0.0
O314 O 0.90246 0.11498 0.44503 0.0
C315 C 0.8985 0.10968 0.29972 0.0
O316 O 0.91511 0.10618 0.29249 0.0
N317 N 0.93665 0.1086 0.41242 0.0
C318 C 0.9722 0.11411 0.43097 0.0
C319 C 0.95941 0.12275 0.45864 0.0
C320 C 0.94171 0.11994 0.4485 0.0
C321 C 0.94903 0.09951 0.38715 0.0
C322 C 0.96676 0.10174 0.39657 0.0
H323 H 0.93225 0.12831 0.46612 0.0
H324 H 0.94555 0.09198 0.3557 0.0
H325 H 0.8941 0.14589 0.3951 0.0
H326 H 0.93908 0.16851 0.33327 0.0
H327 H 0.8857 0.05152 0.40773 0.0
H328 H 0.963 0.13274 0.4848 0.0
H329 H 0.97615 0.09478 0.37425 0.0
C330 C 0.616 0.1837 0.07453 0.0
C331 C 0.59851 0.18057 0.06716 0.0
N332 N 0.59471 0.1647 0.08558 0.0
N333 N 0.62304 0.17004 0.09854 0.0
C334 C 0.6098 0.15856 0.10423 0.0
H335 H 0.62321 0.19509 0.06262 0.0
Co336 Co 0.64653 0.16705 0.11297 0.0
C337 C 0.64561 0.15912 0.21901 0.0
O338 O 0.6575 0.17139 0.22414 0.0
N339 N 0.67064 0.16347 0.12397 0.0
C340 C 0.69641 0.15129 0.14096 0.0
C341 C 0.67904 0.15215 0.15377 0.0
C342 C 0.68314 0.16857 0.09207 0.0
N343 N 0.69887 0.16154 0.10179 0.0
O344 O 0.64603 0.14564 0.07616 0.0
H345 H 0.67288 0.14376 0.18032 0.0
H346 H 0.68059 0.17657 0.06039 0.0
O347 O 0.64027 0.15508 0.17592 0.0
C348 C 0.64931 0.14965 0.03181 0.0
O349 O 0.6526 0.16608 0.02132 0.0
N350 N 0.64668 0.18937 0.14426 0.0
C351 C 0.64182 0.22465 0.16897 0.0
C352 C 0.63053 0.21167 0.18689 0.0
C353 C 0.6332 0.19419 0.17426 0.0
C354 C 0.6581 0.20176 0.12794 0.0
C355 C 0.65617 0.21931 0.14077 0.0
H356 H 0.62357 0.1847 0.18568 0.0
H357 H 0.66814 0.19851 0.10217 0.0
H358 H 0.61125 0.14588 0.12124 0.0
H359 H 0.58939 0.18905 0.04851 0.0
H360 H 0.70613 0.1427 0.15665 0.0
H361 H 0.61901 0.21499 0.20784 0.0
H362 H 0.66546 0.22869 0.12657 0.0
C363 C 0.57082 0.86239 0.83345 0.0
C364 C 0.5736 0.84471 0.82929 0.0
N365 N 0.58984 0.8412 0.84531 0.0
N366 N 0.58512 0.86995 0.85293 0.0
C367 C 0.59657 0.85672 0.85931 0.0
H368 H 0.55925 0.86933 0.82186 0.0
Co369 Co 0.58899 0.89368 0.86233 0.0
C370 C 0.59904 0.89615 0.96714 0.0
O371 O 0.58846 0.90964 0.97044 0.0
N372 N 0.59346 0.91796 0.86945 0.0
C373 C 0.60872 0.94263 0.87846 0.0
C374 C 0.60779 0.92518 0.89016 0.0
C375 C 0.58635 0.93131 0.84377 0.0
N376 N 0.59528 0.94643 0.84879 0.0
O377 O 0.61025 0.89156 0.82524 0.0
H378 H 0.61782 0.91798 0.90918 0.0
H379 H 0.57573 0.92979 0.81843 0.0
O380 O 0.60095 0.88849 0.92568 0.0
C381 C 0.60676 0.89586 0.78126 0.0
O382 O 0.591 0.90165 0.7714 0.0
N383 N 0.56681 0.89534 0.89285 0.0
C384 C 0.53124 0.89004 0.91094 0.0
C385 C 0.54385 0.88297 0.94221 0.0
C386 C 0.56161 0.88543 0.93188 0.0
C387 C 0.55455 0.90271 0.86326 0.0
C388 C 0.53677 0.90047 0.87202 0.0
H389 H 0.57093 0.87783 0.95231 0.0
H390 H 0.55837 0.9084 0.82905 0.0
H391 H 0.60968 0.85849 0.87321 0.0
H392 H 0.56464 0.83524 0.81393 0.0
H393 H 0.61931 0.95141 0.88755 0.0
H394 H 0.54007 0.87427 0.97154 0.0
H395 H 0.52744 0.90568 0.84617 0.0
C396 C 0.89398 0.19007 0.92678 0.0
C397 C 0.91055 0.18537 0.94108 0.0
N398 N 0.91148 0.16781 0.94181 0.0
N399 N 0.88448 0.17553 0.91792 0.0
C400 C 0.8955 0.16221 0.92823 0.0
H401 H 0.88935 0.20333 0.92348 0.0
Co402 Co 0.86067 0.17307 0.90149 0.0
C403 C 0.88036 0.15679 0.81772 0.0
O404 O 0.89383 0.16686 0.827 0.0
N405 N 0.83702 0.17067 0.88754 0.0
C406 C 0.81084 0.16859 0.85278 0.0
C407 C 0.82859 0.16999 0.84433 0.0
C408 C 0.82425 0.16972 0.92136 0.0
N409 N 0.80827 0.16827 0.90138 0.0
O410 O 0.8594 0.15326 0.94532 0.0
H411 H 0.83489 0.17057 0.80905 0.0
H412 H 0.82649 0.1704 0.96019 0.0
O413 O 0.86647 0.15798 0.84394 0.0
C414 C 0.85824 0.15959 0.98846 0.0
O415 O 0.85761 0.17669 0.99307 0.0
N416 N 0.86122 0.19364 0.86422 0.0
C417 C 0.8652 0.22761 0.82924 0.0
C418 C 0.86746 0.2132 0.79807 0.0
C419 C 0.86514 0.19624 0.81611 0.0
C420 C 0.85714 0.20748 0.89333 0.0
C421 C 0.85924 0.22456 0.87688 0.0
H422 H 0.86678 0.18548 0.79131 0.0
H423 H 0.85342 0.20519 0.93087 0.0
H424 H 0.89184 0.14859 0.92538 0.0
H425 H 0.92116 0.19424 0.94927 0.0
H426 H 0.80068 0.16763 0.82548 0.0
H427 H 0.87141 0.21499 0.76044 0.0
H428 H 0.85728 0.23519 0.90242 0.0
C429 C 0.56874 0.13935 0.67111 0.0
C430 C 0.57098 0.15704 0.67685 0.0
N431 N 0.587 0.16128 0.66035 0.0
N432 N 0.58314 0.1325 0.65006 0.0
C433 C 0.59416 0.14616 0.64452 0.0
H434 H 0.55746 0.13191 0.68253 0.0
Co435 Co 0.58687 0.10886 0.63831 0.0
C436 C 0.59674 0.10742 0.53345 0.0
O437 O 0.58569 0.09433 0.5296 0.0
N438 N 0.59109 0.08462 0.62935 0.0
C439 C 0.60611 0.05991 0.61859 0.0
C440 C 0.60507 0.07735 0.60693 0.0
C441 C 0.58435 0.07133 0.6561 0.0
N442 N 0.59315 0.05618 0.65002 0.0
O443 O 0.60801 0.11026 0.67586 0.0
H444 H 0.61495 0.08448 0.58701 0.0
H445 H 0.57422 0.07297 0.68305 0.0
O446 O 0.59917 0.11454 0.57547 0.0
C447 C 0.6042 0.10576 0.71949 0.0
O448 O 0.58812 0.10079 0.72895 0.0
N449 N 0.56479 0.10785 0.60684 0.0
C450 C 0.52943 0.11433 0.58678 0.0
C451 C 0.54268 0.1218 0.55808 0.0
C452 C 0.5602 0.11886 0.56965 0.0
C453 C 0.55205 0.09979 0.63339 0.0
C454 C 0.53439 0.10272 0.62384 0.0
H455 H 0.56986 0.12684 0.55158 0.0
H456 H 0.55536 0.09284 0.66612 0.0
H457 H 0.60724 0.14501 0.62982 0.0
H458 H 0.5618 0.16601 0.69351 0.0
H459 H 0.61656 0.05111 0.60838 0.0
H460 H 0.53964 0.13085 0.52898 0.0
H461 H 0.52484 0.09713 0.64846 0.0
C462 C 0.61762 0.81309 0.40681 0.0
C463 C 0.59992 0.81531 0.4124 0.0
N464 N 0.59601 0.83195 0.40093 0.0
N465 N 0.62475 0.82818 0.39082 0.0
C466 C 0.61127 0.83949 0.3881 0.0
H467 H 0.62486 0.80134 0.41498 0.0
Co468 Co 0.64829 0.83274 0.38131 0.0
C469 C 0.65057 0.8467 0.28018 0.0
O470 O 0.66446 0.83677 0.27486 0.0
N471 N 0.67236 0.8378 0.3746 0.0
C472 C 0.69618 0.8545 0.37176 0.0
C473 C 0.67884 0.85336 0.35979 0.0
C474 C 0.68604 0.83003 0.39718 0.0
N475 N 0.70072 0.83987 0.39584 0.0
O476 O 0.64619 0.85262 0.42419 0.0
H477 H 0.67112 0.86398 0.34539 0.0
H478 H 0.68494 0.8182 0.41825 0.0
O479 O 0.64263 0.84691 0.32163 0.0
C480 C 0.65084 0.8481 0.46713 0.0
O481 O 0.65676 0.83216 0.47367 0.0
N482 N 0.64993 0.81186 0.34408 0.0
C483 C 0.64316 0.77737 0.3147 0.0
C484 C 0.63665 0.79159 0.28803 0.0
C485 C 0.63966 0.80863 0.30421 0.0
C486 C 0.65732 0.7982 0.36843 0.0
C487 C 0.65423 0.78092 0.35426 0.0
H488 H 0.63209 0.81887 0.28753 0.0
H489 H 0.66369 0.80041 0.40285 0.0
H490 H 0.61265 0.85306 0.37755 0.0
H491 H 0.59072 0.80564 0.42553 0.0
H492 H 0.7043 0.86598 0.36738 0.0
H493 H 0.62807 0.78962 0.25714 0.0
H494 H 0.65909 0.77052 0.37726 0.0
C495 C 0.93552 0.86472 0.17885 0.0
C496 C 0.93266 0.84714 0.18537 0.0
N497 N 0.91603 0.84363 0.17288 0.0
N498 N 0.92084 0.87219 0.16135 0.0
C499 C 0.90915 0.85901 0.1585 0.0
H500 H 0.94738 0.87165 0.18788 0.0
Co501 Co 0.91673 0.89585 0.15115 0.0
C502 C 0.90574 0.89814 0.04742 0.0
O503 O 0.91605 0.91183 0.04386 0.0
N504 N 0.91198 0.91997 0.14321 0.0
C505 C 0.89587 0.94409 0.13563 0.0
C506 C 0.89698 0.92659 0.12492 0.0
C507 C 0.9194 0.93372 0.16645 0.0
N508 N 0.90991 0.94852 0.16229 0.0
O509 O 0.89575 0.89382 0.18937 0.0
H510 H 0.88666 0.91893 0.10856 0.0
H511 H 0.93067 0.9327 0.18972 0.0
O512 O 0.90436 0.89027 0.08871 0.0
C513 C 0.8993 0.89872 0.23283 0.0
O514 O 0.91498 0.90491 0.24179 0.0
N515 N 0.93866 0.89753 0.11931 0.0
C516 C 0.97413 0.89204 0.09845 0.0
C517 C 0.96105 0.88536 0.06774 0.0
C518 C 0.94344 0.88777 0.07961 0.0
C519 C 0.95122 0.90477 0.14814 0.0
C520 C 0.96893 0.90237 0.13822 0.0
H521 H 0.93394 0.8803 0.05944 0.0
H522 H 0.94768 0.91047 0.18268 0.0
H523 H 0.89572 0.86076 0.14719 0.0
H524 H 0.94184 0.83781 0.20025 0.0
H525 H 0.88477 0.95246 0.1284 0.0
H526 H 0.9643 0.87726 0.03663 0.0
H527 H 0.97834 0.90719 0.16442 0.0
C528 C 0.61511 0.684 0.92335 0.0
C529 C 0.59739 0.68168 0.92785 0.0
N530 N 0.59358 0.66508 0.91552 0.0
N531 N 0.62243 0.66902 0.90726 0.0
C532 C 0.60899 0.65766 0.90328 0.0
H533 H 0.62223 0.69571 0.93282 0.0
Co534 Co 0.6462 0.66455 0.90045 0.0
C535 C 0.65062 0.65219 0.79889 0.0
O536 O 0.66465 0.66209 0.79765 0.0
N537 N 0.67038 0.65948 0.89647 0.0
C538 C 0.69381 0.64217 0.89744 0.0
C539 C 0.67686 0.64385 0.88205 0.0
C540 C 0.68371 0.66684 0.92174 0.0
N541 N 0.69805 0.65657 0.92294 0.0
O542 O 0.64339 0.64407 0.94006 0.0
H543 H 0.66926 0.63349 0.86567 0.0
H544 H 0.68235 0.67831 0.94433 0.0
O545 O 0.64161 0.65142 0.83848 0.0
C546 C 0.64778 0.64818 0.98351 0.0
O547 O 0.6533 0.66416 0.99195 0.0
N548 N 0.64861 0.686 0.86651 0.0
C549 C 0.64313 0.72105 0.84082 0.0
C550 C 0.63697 0.70742 0.81114 0.0
C551 C 0.63933 0.69006 0.8254 0.0
C552 C 0.65561 0.69908 0.89407 0.0
C553 C 0.65315 0.71662 0.88182 0.0
H554 H 0.63211 0.6802 0.80585 0.0
H555 H 0.66112 0.69616 0.92922 0.0
H556 H 0.61053 0.64411 0.89273 0.0
H557 H 0.58812 0.69123 0.94131 0.0
H558 H 0.70189 0.63065 0.89356 0.0
H559 H 0.62921 0.71007 0.779 0.0
H560 H 0.65766 0.72652 0.90708 0.0
C561 C 0.57432 0.36613 0.21503 0.0
C562 C 0.57972 0.34923 0.22229 0.0
N563 N 0.59279 0.34589 0.1908 0.0
N564 N 0.58399 0.37341 0.17929 0.0
C565 C 0.59514 0.36072 0.16494 0.0
H566 H 0.56442 0.37295 0.2358 0.0
Co567 Co 0.58287 0.39703 0.16545 0.0
C568 C 0.59248 0.39939 0.05918 0.0
O569 O 0.57978 0.41068 0.05381 0.0
N570 N 0.58136 0.4219 0.15423 0.0
C571 C 0.56946 0.44828 0.14259 0.0
C572 C 0.56853 0.43087 0.13105 0.0
C573 C 0.59012 0.43462 0.17876 0.0
N574 N 0.58291 0.45059 0.17325 0.0
O575 O 0.60431 0.39981 0.20157 0.0
H576 H 0.55817 0.42516 0.10958 0.0
H577 H 0.60068 0.43224 0.20385 0.0
O578 O 0.5956 0.39314 0.10184 0.0
C579 C 0.59987 0.40222 0.24616 0.0
O580 O 0.58324 0.40453 0.25618 0.0
N581 N 0.56089 0.39323 0.13748 0.0
C582 C 0.52632 0.38342 0.1195 0.0
C583 C 0.53995 0.37762 0.08903 0.0
C584 C 0.55722 0.38234 0.09934 0.0
C585 C 0.54785 0.39894 0.16739 0.0
C586 C 0.53053 0.3944 0.1588 0.0
H587 H 0.56759 0.37638 0.07845 0.0
H588 H 0.55108 0.40654 0.19944 0.0
H589 H 0.60536 0.36254 0.13809 0.0
H590 H 0.57467 0.34017 0.24915 0.0
H591 H 0.56021 0.45826 0.13197 0.0
H592 H 0.53741 0.36896 0.0586 0.0
H593 H 0.52068 0.39869 0.18456 0.0
C594 C 0.88609 0.3279 0.4584 0.0
C595 C 0.9036 0.33098 0.46521 0.0
N596 N 0.9085 0.34377 0.43446 0.0
N597 N 0.88001 0.33874 0.42362 0.0
C598 C 0.89399 0.34827 0.40952 0.0
H599 H 0.87806 0.31902 0.47937 0.0
Co600 Co 0.85646 0.34177 0.41202 0.0
C601 C 0.85336 0.35177 0.30768 0.0
O602 O 0.83991 0.3411 0.30616 0.0
N603 N 0.83212 0.34524 0.40359 0.0
C604 C 0.80724 0.36023 0.39728 0.0
C605 C 0.82471 0.35996 0.38579 0.0
C606 C 0.81883 0.3371 0.42713 0.0
N607 N 0.80359 0.34593 0.42391 0.0
O608 O 0.85754 0.36321 0.44838 0.0
H609 H 0.83183 0.37064 0.3693 0.0
H610 H 0.8205 0.3258 0.45009 0.0
O611 O 0.86159 0.35375 0.34821 0.0
C612 C 0.85244 0.36 0.49189 0.0
O613 O 0.8464 0.34432 0.50179 0.0
N614 N 0.85603 0.31947 0.38226 0.0
C615 C 0.86288 0.28416 0.36217 0.0
C616 C 0.86881 0.2974 0.33077 0.0
C617 C 0.86577 0.31494 0.34231 0.0
C618 C 0.84982 0.30674 0.41242 0.0
C619 C 0.85289 0.28908 0.40287 0.0
H620 H 0.8726 0.32467 0.32123 0.0
H621 H 0.84416 0.31025 0.44708 0.0
H622 H 0.89333 0.35908 0.38417 0.0
H623 H 0.91197 0.32473 0.49179 0.0
H624 H 0.79835 0.37096 0.39066 0.0
H625 H 0.87668 0.29438 0.29905 0.0
H626 H 0.8487 0.27955 0.42959 0.0
C627 C 0.93227 0.63801 0.70492 0.0
C628 C 0.92976 0.65571 0.71033 0.0
N629 N 0.9137 0.65965 0.69369 0.0
N630 N 0.91799 0.63094 0.68394 0.0
C631 C 0.90681 0.64442 0.67805 0.0
H632 H 0.94363 0.63069 0.71632 0.0
Co633 Co 0.91387 0.60738 0.67259 0.0
C634 C 0.90521 0.60695 0.56686 0.0
O635 O 0.91662 0.59421 0.56232 0.0
N636 N 0.9091 0.58328 0.66412 0.0
C637 C 0.89403 0.55872 0.65189 0.0
C638 C 0.89623 0.57578 0.6376 0.0
C639 C 0.91398 0.57052 0.69553 0.0
N640 N 0.90511 0.55545 0.6888 0.0
O641 O 0.89264 0.60935 0.70976 0.0
H642 H 0.88767 0.58255 0.61273 0.0
H643 H 0.92248 0.57273 0.72631 0.0
O644 O 0.90202 0.61329 0.60946 0.0
C645 C 0.8967 0.60609 0.75405 0.0
O646 O 0.91298 0.60202 0.76397 0.0
N647 N 0.93606 0.60575 0.6414 0.0
C648 C 0.97166 0.61003 0.62106 0.0
C649 C 0.95909 0.61993 0.5963 0.0
C650 C 0.9414 0.61778 0.60748 0.0
C651 C 0.94816 0.59548 0.66396 0.0
C652 C 0.96595 0.59724 0.65391 0.0
H653 H 0.93221 0.62697 0.59218 0.0
H654 H 0.94442 0.58701 0.69336 0.0
H655 H 0.89378 0.64303 0.66328 0.0
H656 H 0.93879 0.66488 0.72677 0.0
H657 H 0.88423 0.5498 0.63809 0.0
H658 H 0.96294 0.6303 0.57161 0.0
H659 H 0.97522 0.58938 0.67408 0.0
C660 C 0.61301 0.32924 0.58605 0.0
C661 C 0.59561 0.33254 0.57821 0.0
N662 N 0.59051 0.34504 0.60973 0.0
N663 N 0.61884 0.33962 0.62227 0.0
C664 C 0.60481 0.34912 0.63619 0.0
H665 H 0.62115 0.32043 0.56514 0.0
Co666 Co 0.6423 0.34188 0.63649 0.0
C667 C 0.64345 0.3502 0.7429 0.0
O668 O 0.65594 0.33849 0.74634 0.0
N669 N 0.6666 0.34452 0.64771 0.0
C670 C 0.69206 0.35804 0.65975 0.0
C671 C 0.67452 0.35798 0.67079 0.0
C672 C 0.67965 0.33697 0.62174 0.0
N673 N 0.69523 0.34492 0.62828 0.0
O674 O 0.64228 0.36378 0.6018 0.0
H675 H 0.66781 0.36819 0.6906 0.0
H676 H 0.67761 0.32692 0.59482 0.0
O677 O 0.63671 0.3534 0.70081 0.0
C678 C 0.64728 0.36081 0.558 0.0
O679 O 0.6526 0.34499 0.54679 0.0
N680 N 0.64174 0.31923 0.66419 0.0
C681 C 0.63476 0.2837 0.68108 0.0
C682 C 0.62781 0.29671 0.7117 0.0
C683 C 0.63096 0.31435 0.70167 0.0
C684 C 0.64867 0.30674 0.63443 0.0
C685 C 0.64557 0.289 0.64249 0.0
H686 H 0.62359 0.32395 0.72187 0.0
H687 H 0.65504 0.31046 0.60103 0.0
H688 H 0.6053 0.35955 0.66288 0.0
H689 H 0.58742 0.32657 0.55067 0.0
H690 H 0.70136 0.36802 0.67023 0.0
H691 H 0.6192 0.2934 0.74166 0.0
H692 H 0.65052 0.27969 0.61612 0.0
C693 C 0.93922 0.36519 0.85514 0.0
C694 C 0.93691 0.34861 0.83686 0.0
N695 N 0.9197 0.34495 0.83742 0.0
N696 N 0.92362 0.37184 0.86872 0.0
C697 C 0.91196 0.35938 0.85576 0.0
H698 H 0.95152 0.3721 0.85697 0.0
Co699 Co 0.91903 0.39497 0.88855 0.0
C700 C 0.90257 0.37341 0.97158 0.0
O701 O 0.90805 0.35842 0.95414 0.0
N702 N 0.91461 0.41826 0.90498 0.0
C703 C 0.91108 0.44409 0.94112 0.0
C704 C 0.91358 0.42639 0.94862 0.0
C705 C 0.91279 0.43116 0.87191 0.0
N706 N 0.91048 0.44695 0.89265 0.0
O707 O 0.89819 0.39459 0.84898 0.0
H708 H 0.91495 0.41997 0.98352 0.0
H709 H 0.91384 0.42922 0.83304 0.0
O710 O 0.90608 0.38769 0.94898 0.0
C711 C 0.90279 0.39732 0.80476 0.0
O712 O 0.91943 0.39993 0.79534 0.0
N713 N 0.94037 0.39584 0.92252 0.0
C714 C 0.97598 0.3927 0.9433 0.0
C715 C 0.96361 0.38172 0.96584 0.0
C716 C 0.94584 0.38365 0.95545 0.0
C717 C 0.95196 0.40753 0.90349 0.0
C718 C 0.96971 0.40647 0.91433 0.0
H719 H 0.93692 0.3741 0.96981 0.0
H720 H 0.94765 0.41696 0.87678 0.0
H721 H 0.898 0.36078 0.86071 0.0
H722 H 0.94708 0.34009 0.82323 0.0
H723 H 0.90981 0.45404 0.96902 0.0
H724 H 0.96756 0.37076 0.98817 0.0
H725 H 0.97848 0.41578 0.89751 0.0
C726 C 0.88585 0.68631 0.11862 0.0
C727 C 0.90345 0.6838 0.11186 0.0
N728 N 0.9074 0.66745 0.12621 0.0
N729 N 0.87881 0.67174 0.13818 0.0
C730 C 0.89224 0.66038 0.14184 0.0
H731 H 0.8786 0.69788 0.10869 0.0
Co732 Co 0.85525 0.66786 0.15012 0.0
C733 C 0.85379 0.65684 0.25387 0.0
O734 O 0.84048 0.66758 0.25841 0.0
N735 N 0.83115 0.66345 0.15949 0.0
C736 C 0.80695 0.6475 0.16711 0.0
C737 C 0.82438 0.64859 0.17828 0.0
C738 C 0.81752 0.67085 0.13574 0.0
N739 N 0.80263 0.66144 0.13976 0.0
O740 O 0.85663 0.64703 0.11096 0.0
H741 H 0.83192 0.63826 0.19492 0.0
H742 H 0.81878 0.68197 0.11197 0.0
O743 O 0.86111 0.65502 0.21186 0.0
C744 C 0.85171 0.65095 0.06778 0.0
O745 O 0.84606 0.66688 0.05957 0.0
N746 N 0.85429 0.68965 0.18312 0.0
C747 C 0.86117 0.72482 0.20495 0.0
C748 C 0.86808 0.71134 0.23379 0.0
C749 C 0.86499 0.69391 0.22131 0.0
C750 C 0.84672 0.70263 0.15644 0.0
C751 C 0.84984 0.72021 0.16688 0.0
H752 H 0.8727 0.6841 0.23945 0.0
H753 H 0.8402 0.69955 0.12281 0.0
H754 H 0.89087 0.6471 0.15491 0.0
H755 H 0.91252 0.69301 0.09585 0.0
H756 H 0.7986 0.63638 0.17444 0.0
H757 H 0.87692 0.71413 0.2636 0.0
H758 H 0.84473 0.72995 0.1421 0.0
C759 C 0.56664 0.63938 0.35385 0.0
C760 C 0.56923 0.65639 0.33947 0.0
N761 N 0.58654 0.65947 0.33816 0.0
N762 N 0.58223 0.63178 0.36279 0.0
C763 C 0.5941 0.64427 0.35139 0.0
H764 H 0.55409 0.63304 0.35701 0.0
Co765 Co 0.58663 0.60835 0.38046 0.0
C766 C 0.60133 0.62938 0.46556 0.0
O767 O 0.59378 0.64387 0.45114 0.0
N768 N 0.59087 0.58491 0.39559 0.0
C769 C 0.59228 0.559 0.43225 0.0
C770 C 0.59021 0.57677 0.43924 0.0
C771 C 0.59343 0.57194 0.36295 0.0
N772 N 0.59442 0.55611 0.38414 0.0
O773 O 0.60766 0.60909 0.34213 0.0
H774 H 0.58764 0.58322 0.47363 0.0
H775 H 0.59359 0.57381 0.32394 0.0
O776 O 0.59925 0.61518 0.44128 0.0
C777 C 0.60313 0.60635 0.29793 0.0
O778 O 0.58655 0.60338 0.28854 0.0
N779 N 0.56504 0.60699 0.41263 0.0
C780 C 0.52941 0.60949 0.43204 0.0
C781 C 0.54165 0.61737 0.46325 0.0
C782 C 0.55951 0.61593 0.45296 0.0
C783 C 0.55343 0.59789 0.38486 0.0
C784 C 0.53557 0.59889 0.394 0.0
H785 H 0.56851 0.62304 0.47546 0.0
H786 H 0.55799 0.5909 0.35297 0.0
H787 H 0.60807 0.64248 0.3549 0.0
H788 H 0.55914 0.66573 0.33035 0.0
H789 H 0.59184 0.54899 0.46011 0.0
H790 H 0.53747 0.62565 0.49311 0.0
H791 H 0.52661 0.59227 0.36964 0.0
C792 C 0.38502 0.31139 0.12945 0.0
C793 C 0.40265 0.314 0.12408 0.0
N794 N 0.40626 0.33063 0.13662 0.0
N795 N 0.37757 0.32621 0.14619 0.0
C796 C 0.39083 0.33779 0.14975 0.0
H797 H 0.37801 0.29952 0.12071 0.0
Co798 Co 0.35376 0.32961 0.15594 0.0
C799 C 0.3526 0.35546 0.2399 0.0
O800 O 0.33949 0.3643 0.22136 0.0
N801 N 0.32959 0.33266 0.16377 0.0
C802 C 0.30193 0.33216 0.18912 0.0
C803 C 0.31921 0.33099 0.20339 0.0
C804 C 0.31836 0.33458 0.12622 0.0
N805 N 0.3015 0.33447 0.14039 0.0
O806 O 0.35499 0.35032 0.11557 0.0
H807 H 0.32387 0.32849 0.23996 0.0
H808 H 0.32237 0.33505 0.08854 0.0
O809 O 0.35891 0.34246 0.21648 0.0
C810 C 0.35471 0.34524 0.07108 0.0
O811 O 0.35364 0.32838 0.06215 0.0
N812 N 0.35267 0.30858 0.19042 0.0
C813 C 0.35934 0.27381 0.21276 0.0
C814 C 0.36642 0.28723 0.24153 0.0
C815 C 0.36296 0.30467 0.22961 0.0
C816 C 0.34422 0.29571 0.1655 0.0
C817 C 0.34732 0.27819 0.17624 0.0
H818 H 0.37007 0.31482 0.24845 0.0
H819 H 0.33644 0.29899 0.1339 0.0
H820 H 0.38916 0.35124 0.16112 0.0
H821 H 0.41202 0.3046 0.11033 0.0
H822 H 0.29062 0.33114 0.21268 0.0
H823 H 0.37589 0.28437 0.26973 0.0
H824 H 0.34149 0.26819 0.15348 0.0
C825 C 0.43322 0.64004 0.84886 0.0
C826 C 0.43029 0.65762 0.84297 0.0
N827 N 0.41393 0.66116 0.85805 0.0
N828 N 0.41887 0.63257 0.86839 0.0
C829 C 0.40724 0.64574 0.87309 0.0
H830 H 0.44502 0.63312 0.83899 0.0
Co831 Co 0.41604 0.60892 0.88192 0.0
C832 C 0.39083 0.60885 0.96633 0.0
O833 O 0.38183 0.59577 0.94806 0.0
N834 N 0.41342 0.58493 0.89449 0.0
C835 C 0.41491 0.55842 0.92769 0.0
C836 C 0.41655 0.57612 0.93625 0.0
C837 C 0.40999 0.57234 0.86126 0.0
N838 N 0.41073 0.55613 0.8804 0.0
O839 O 0.39492 0.60908 0.84359 0.0
H840 H 0.42029 0.58214 0.9704 0.0
H841 H 0.40783 0.57482 0.823 0.0
O842 O 0.40383 0.61499 0.94263 0.0
C843 C 0.39966 0.60729 0.7991 0.0
O844 O 0.41637 0.60522 0.78964 0.0
N845 N 0.43753 0.60884 0.91411 0.0
C846 C 0.47252 0.61467 0.93742 0.0
C847 C 0.45906 0.62151 0.96681 0.0
C848 C 0.4416 0.61861 0.95421 0.0
C849 C 0.45031 0.60085 0.88769 0.0
C850 C 0.46788 0.60362 0.89856 0.0
H851 H 0.43153 0.62529 0.97459 0.0
H852 H 0.44686 0.59349 0.8554 0.0
H853 H 0.39413 0.64406 0.88722 0.0
H854 H 0.43934 0.66702 0.82765 0.0
H855 H 0.41685 0.54807 0.95401 0.0
H856 H 0.46194 0.62982 0.99775 0.0
H857 H 0.47763 0.59821 0.87424 0.0
C858 C 0.11377 0.6804 0.60743 0.0
C859 C 0.09629 0.67719 0.60064 0.0
N860 N 0.09257 0.66118 0.61853 0.0
N861 N 0.12105 0.66664 0.63029 0.0
C862 C 0.10787 0.65511 0.63642 0.0
H863 H 0.12085 0.69185 0.59535 0.0
Co864 Co 0.14479 0.66345 0.64085 0.0
C865 C 0.1468 0.65488 0.7463 0.0
O866 O 0.15921 0.66673 0.74893 0.0
N867 N 0.16918 0.65972 0.64822 0.0
C868 C 0.19506 0.64714 0.66202 0.0
C869 C 0.17773 0.64763 0.67527 0.0
C870 C 0.18156 0.66551 0.61675 0.0
N871 N 0.19734 0.65835 0.62498 0.0
O872 O 0.14349 0.64204 0.60423 0.0
H873 H 0.17166 0.63851 0.7001 0.0
H874 H 0.17892 0.67379 0.58573 0.0
O875 O 0.1397 0.65158 0.70475 0.0
C876 C 0.14668 0.6461 0.55986 0.0
O877 O 0.15029 0.66247 0.54958 0.0
N878 N 0.14569 0.68578 0.67141 0.0
C879 C 0.14047 0.72124 0.69209 0.0
C880 C 0.13119 0.70834 0.71758 0.0
C881 C 0.13382 0.6907 0.70626 0.0
C882 C 0.15525 0.69823 0.64782 0.0
C883 C 0.15308 0.71593 0.65815 0.0
H884 H 0.12516 0.68117 0.72244 0.0
H885 H 0.16342 0.69479 0.61749 0.0
H886 H 0.10974 0.64218 0.65148 0.0
H887 H 0.08714 0.68595 0.58323 0.0
H888 H 0.20485 0.63814 0.67546 0.0
H889 H 0.12098 0.71185 0.74316 0.0
H890 H 0.16047 0.72545 0.63738 0.0
C891 C 0.073 0.36414 0.32761 0.0
C892 C 0.07577 0.34655 0.32096 0.0
N893 N 0.0914 0.34248 0.34029 0.0
N894 N 0.08664 0.37103 0.35205 0.0
C895 C 0.09779 0.35756 0.35868 0.0
H896 H 0.06184 0.37153 0.31503 0.0
Co897 Co 0.08961 0.39459 0.36643 0.0
C898 C 0.09728 0.39393 0.4726 0.0
O899 O 0.08497 0.4058 0.47733 0.0
N900 N 0.09316 0.41879 0.37741 0.0
C901 C 0.1056 0.44446 0.39465 0.0
C902 C 0.10465 0.42706 0.40704 0.0
C903 C 0.08806 0.43143 0.34595 0.0
N904 N 0.09524 0.44713 0.35586 0.0
O905 O 0.11111 0.39408 0.33006 0.0
H906 H 0.11309 0.42077 0.43315 0.0
H907 H 0.07997 0.42899 0.31439 0.0
O908 O 0.10139 0.38845 0.42965 0.0
C909 C 0.1073 0.39758 0.28574 0.0
O910 O 0.09094 0.40096 0.27489 0.0
N911 N 0.06718 0.39475 0.39727 0.0
C912 C 0.03176 0.38948 0.4199 0.0
C913 C 0.04472 0.37837 0.43861 0.0
C914 C 0.06227 0.38126 0.4271 0.0
C915 C 0.0548 0.40605 0.3804 0.0
C916 C 0.03719 0.40393 0.39222 0.0
H917 H 0.07177 0.37173 0.43902 0.0
H918 H 0.05813 0.41612 0.35483 0.0
H919 H 0.11039 0.35882 0.37619 0.0
H920 H 0.06721 0.33754 0.3021 0.0
H921 H 0.11433 0.45407 0.41038 0.0
H922 H 0.04139 0.36679 0.45928 0.0
H923 H 0.02785 0.41315 0.37759 0.0
C924 C 0.38735 0.67915 0.44843 0.0
C925 C 0.40457 0.67536 0.45761 0.0
N926 N 0.40843 0.65989 0.43648 0.0
N927 N 0.38042 0.6663 0.42097 0.0
C928 C 0.3935 0.65472 0.41444 0.0
H929 H 0.38018 0.69035 0.46184 0.0
Co930 Co 0.35693 0.6641 0.40558 0.0
C931 C 0.35796 0.65762 0.29869 0.0
O932 O 0.34659 0.67042 0.29493 0.0
N933 N 0.33271 0.66137 0.39345 0.0
C934 C 0.30653 0.65062 0.37335 0.0
C935 C 0.32403 0.651 0.36152 0.0
C936 C 0.32021 0.66633 0.42556 0.0
N937 N 0.30428 0.66021 0.41388 0.0
O938 O 0.35674 0.64223 0.44026 0.0
H939 H 0.32999 0.64286 0.33401 0.0
H940 H 0.32282 0.67345 0.45883 0.0
O941 O 0.36307 0.65275 0.34133 0.0
C942 C 0.35346 0.64592 0.48487 0.0
O943 O 0.35045 0.6623 0.49647 0.0
N944 N 0.3575 0.68684 0.37714 0.0
C945 C 0.36347 0.72232 0.35761 0.0
C946 C 0.37416 0.70936 0.33705 0.0
C947 C 0.37104 0.69177 0.34747 0.0
C948 C 0.3467 0.69929 0.3962 0.0
C949 C 0.34923 0.717 0.38619 0.0
H950 H 0.38033 0.68219 0.33448 0.0
H951 H 0.33678 0.69586 0.42221 0.0
H952 H 0.3918 0.64235 0.39588 0.0
H953 H 0.41347 0.68335 0.47862 0.0
H954 H 0.29657 0.64268 0.35619 0.0
H955 H 0.38559 0.71275 0.31578 0.0
H956 H 0.34055 0.72647 0.40276 0.0
C957 C 0.06786 0.64171 0.19645 0.0
C958 C 0.07156 0.65897 0.20577 0.0
N959 N 0.08809 0.66225 0.19127 0.0
N960 N 0.08188 0.63413 0.17557 0.0
C961 C 0.094 0.64692 0.17296 0.0
H962 H 0.05583 0.63503 0.20537 0.0
Co963 Co 0.08443 0.61053 0.1611 0.0
C964 C 0.11131 0.61164 0.08219 0.0
O965 O 0.12138 0.60101 0.1071 0.0
N966 N 0.08685 0.58665 0.14755 0.0
C967 C 0.08613 0.5604 0.11249 0.0
C968 C 0.08475 0.57817 0.10472 0.0
C969 C 0.08944 0.57383 0.18056 0.0
N970 N 0.08916 0.55778 0.16031 0.0
O971 O 0.10547 0.61029 0.19968 0.0
H972 H 0.08194 0.58447 0.0703 0.0
H973 H 0.09076 0.57604 0.21926 0.0
O974 O 0.09675 0.61652 0.10049 0.0
C975 C 0.10069 0.60829 0.24405 0.0
O976 O 0.08395 0.60639 0.25339 0.0
N977 N 0.06298 0.61076 0.12892 0.0
C978 C 0.02808 0.61658 0.10478 0.0
C979 C 0.04164 0.62356 0.07604 0.0
C980 C 0.05904 0.62074 0.08923 0.0
C981 C 0.05013 0.60268 0.15477 0.0
C982 C 0.0326 0.60546 0.14353 0.0
H983 H 0.06913 0.62763 0.06971 0.0
H984 H 0.05348 0.59518 0.18687 0.0
H985 H 0.10715 0.64477 0.15971 0.0
H986 H 0.06273 0.6683 0.22225 0.0
H987 H 0.08487 0.55023 0.08525 0.0
H988 H 0.03889 0.63194 0.0452 0.0
H989 H 0.02278 0.59996 0.16746 0.0
C990 C 0.11801 0.32361 0.94005 0.0
C991 C 0.10103 0.32793 0.95088 0.0
N992 N 0.09677 0.34214 0.92462 0.0
N993 N 0.12439 0.3351 0.90731 0.0
C994 C 0.11112 0.34626 0.89839 0.0
H995 H 0.12559 0.31335 0.95696 0.0
Co996 Co 0.14792 0.33666 0.89282 0.0
C997 C 0.14895 0.34576 0.78754 0.0
O998 O 0.16084 0.33345 0.78338 0.0
N999 N 0.17229 0.3386 0.88215 0.0
C1000 C 0.19783 0.35218 0.87254 0.0
C1001 C 0.1807 0.35152 0.85798 0.0
C1002 C 0.18469 0.33198 0.91221 0.0
N1003 N 0.20029 0.34009 0.90748 0.0
O1004 O 0.14878 0.35795 0.93017 0.0
H1005 H 0.17451 0.36128 0.83546 0.0
H1006 H 0.18181 0.32301 0.94154 0.0
O1007 O 0.1427 0.34932 0.83008 0.0
C1008 C 0.15258 0.35405 0.97423 0.0
O1009 O 0.15589 0.33765 0.9848 0.0
N1010 N 0.14638 0.3146 0.86109 0.0
C1011 C 0.13685 0.28025 0.8367 0.0
C1012 C 0.12924 0.2946 0.8131 0.0
C1013 C 0.1337 0.31155 0.82695 0.0
C1014 C 0.1546 0.30081 0.88262 0.0
C1015 C 0.15011 0.28357 0.87088 0.0
H1016 H 0.1259 0.32212 0.81273 0.0
H1017 H 0.1635 0.30297 0.91237 0.0
H1018 H 0.11231 0.35784 0.87596 0.0
H1019 H 0.09262 0.32152 0.97714 0.0
H1020 H 0.20729 0.36186 0.8611 0.0
H1021 H 0.11906 0.29286 0.78616 0.0
H1022 H 0.15607 0.27304 0.89127 0.0
C1023 C 0.42298 0.36453 0.72788 0.0
C1024 C 0.41991 0.34721 0.73826 0.0
N1025 N 0.40673 0.3417 0.70971 0.0
N1026 N 0.41174 0.36983 0.69312 0.0
C1027 C 0.40199 0.35562 0.68263 0.0
H1028 H 0.43223 0.37298 0.74611 0.0
Co1029 Co 0.40841 0.39304 0.67659 0.0
C1030 C 0.40132 0.39139 0.5701 0.0
O1031 O 0.41352 0.40338 0.56565 0.0
N1032 N 0.40451 0.41707 0.66386 0.0
C1033 C 0.39174 0.44247 0.64561 0.0
C1034 C 0.39295 0.425 0.63383 0.0
C1035 C 0.40946 0.42997 0.69475 0.0
N1036 N 0.40205 0.4455 0.68436 0.0
O1037 O 0.38677 0.3923 0.71251 0.0
H1038 H 0.38466 0.41842 0.60781 0.0
H1039 H 0.41763 0.42783 0.7263 0.0
O1040 O 0.39695 0.38611 0.61305 0.0
C1041 C 0.39015 0.39624 0.75688 0.0
O1042 O 0.40614 0.40097 0.76802 0.0
N1043 N 0.43098 0.39323 0.64664 0.0
C1044 C 0.46649 0.38831 0.62458 0.0
C1045 C 0.45375 0.37665 0.60726 0.0
C1046 C 0.43616 0.37935 0.61855 0.0
C1047 C 0.44315 0.40498 0.66235 0.0
C1048 C 0.46081 0.40301 0.6508 0.0
H1049 H 0.42683 0.36952 0.60744 0.0
H1050 H 0.43965 0.41538 0.68668 0.0
H1051 H 0.39094 0.35574 0.65805 0.0
H1052 H 0.4265 0.33939 0.76548 0.0
H1053 H 0.3829 0.45187 0.6295 0.0
H1054 H 0.45731 0.36487 0.58775 0.0
H1055 H 0.46999 0.41261 0.66441 0.0
H1056 H 0.12612 0.15113 0.99995 0.0
H1057 H 0.09747 0.10479 0.04032 0.0
H1058 H 0.13801 0.15312 0.08213 0.0
H1059 H 0.10927 0.10691 0.12376 0.0
H1060 H 0.11622 0.13916 0.27669 0.0
H1061 H 0.10588 0.12994 0.19565 0.0
H1062 H 0.158 0.13619 0.13823 0.0
H1063 H 0.16827 0.14524 0.21813 0.0
C1064 C 0.12267 0.14114 0.02627 0.0
C1065 C 0.1111 0.12766 1.01354 0.0
C1066 C 0.12945 0.14228 0.07341 0.0
C1067 C 0.12459 0.13017 0.10954 0.0
C1068 C 0.11323 0.11644 0.09672 0.0
C1069 C 0.10668 0.11509 0.0489 0.0
C1070 C 0.12551 0.13815 0.24698 0.0
C1071 C 0.14301 0.1432 0.25378 0.0
C1072 C 0.1196 0.13285 0.20061 0.0
C1073 C 0.1311 0.13258 0.16039 0.0
C1074 C 0.14877 0.13653 0.16822 0.0
C1075 C 0.15464 0.14172 0.21417 0.0
H1076 H 0.10302 0.86357 0.54718 0.0
H1077 H 0.13176 0.91103 0.51855 0.0
H1078 H 0.11011 0.85297 0.46528 0.0
H1079 H 0.13864 0.90048 0.43625 0.0
H1080 H 0.13226 0.88006 0.27423 0.0
H1081 H 0.12292 0.89195 0.35382 0.0
H1082 H 0.13864 0.84398 0.4237 0.0
H1083 H 0.14813 0.83236 0.34544 0.0
C1084 C 0.11081 0.87177 0.52341 0.0
C1085 C 0.11692 0.8881 0.53972 0.0
C1086 C 0.11487 0.8657 0.47643 0.0
C1087 C 0.12489 0.8759 0.4441 0.0
C1088 C 0.13075 0.89237 0.46004 0.0
C1089 C 0.12696 0.89833 0.50741 0.0
C1090 C 0.13359 0.87208 0.30662 0.0
C1091 C 0.14103 0.8553 0.30346 0.0
C1092 C 0.12836 0.8789 0.35218 0.0
C1093 C 0.13003 0.86889 0.39515 0.0
C1094 C 0.13704 0.85199 0.39145 0.0
C1095 C 0.14258 0.84538 0.34646 0.0
H1096 H 0.3794 0.87644 0.788 0.0
H1097 H 0.3478 0.84026 0.70552 0.0
H1098 H 0.39147 0.88794 0.712 0.0
H1099 H 0.36046 0.8509 0.63013 0.0
H1100 H 0.37691 0.88198 0.49529 0.0
H1101 H 0.36278 0.87223 0.57086 0.0
H1102 H 0.41065 0.88211 0.64983 0.0
H1103 H 0.42414 0.89258 0.5757 0.0
C1104 C 0.37509 0.87089 0.7537 0.0
C1105 C 0.3626 0.85746 0.75311 0.0
C1106 C 0.38212 0.87736 0.70986 0.0
C1107 C 0.37712 0.87034 0.66417 0.0
C1108 C 0.36451 0.85697 0.66395 0.0
C1109 C 0.3573 0.85074 0.70759 0.0
C1110 C 0.38432 0.88203 0.52891 0.0
C1111 C 0.40158 0.88823 0.52938 0.0
C1112 C 0.37627 0.87638 0.57243 0.0
C1113 C 0.38542 0.87649 0.61731 0.0
C1114 C 0.40285 0.88228 0.61694 0.0
C1115 C 0.41071 0.88816 0.57394 0.0
H1116 H 0.38642 0.13605 0.76258 0.0
H1117 H 0.33714 0.14953 0.82968 0.0
H1118 H 0.39774 0.1273 0.84314 0.0
H1119 H 0.34842 0.1411 0.90888 0.0
H1120 H 0.38542 0.15417 0.03862 0.0
H1121 H 0.37284 0.15685 0.9573 0.0
H1122 H 0.39185 0.10542 0.92036 0.0
H1123 H 0.40429 0.1026 1.00293 0.0
C1124 C 0.37791 0.13682 0.7941 0.0
C1125 C 0.36095 0.14372 0.78962 0.0
C1126 C 0.38437 0.13181 0.84018 0.0
C1127 C 0.37401 0.13373 0.88241 0.0
C1128 C 0.35679 0.13968 0.87721 0.0
C1129 C 0.35035 0.14453 0.8316 0.0
C1130 C 0.38664 0.14328 1.01352 0.0
C1131 C 0.39558 0.12808 0.02743 0.0
C1132 C 0.37947 0.14483 0.96688 0.0
C1133 C 0.38136 0.13135 0.93236 0.0
C1134 C 0.39023 0.11603 0.94617 0.0
C1135 C 0.39712 0.11432 0.99356 0.0
H1136 H 0.88578 0.86669 0.74568 0.0
H1137 H 0.83953 0.85042 0.82383 0.0
H1138 H 0.89794 0.87832 0.8217 0.0
H1139 H 0.8515 0.86214 0.89908 0.0
H1140 H 0.88625 0.86804 0.03512 0.0
H1141 H 0.87405 0.85657 0.95898 0.0
H1142 H 0.89412 0.90137 0.88127 0.0
H1143 H 0.90642 0.91264 0.9566 0.0
C1144 C 0.87812 0.86576 0.77884 0.0
C1145 C 0.86167 0.8576 0.77842 0.0
C1146 C 0.88508 0.87243 0.82252 0.0
C1147 C 0.87576 0.87108 0.86685 0.0
C1148 C 0.85922 0.86315 0.86606 0.0
C1149 C 0.85228 0.85654 0.82257 0.0
C1150 C 0.88797 0.87547 1.00183 0.0
C1151 C 0.89734 0.89127 1.00222 0.0
C1152 C 0.88094 0.86892 0.9581 0.0
C1153 C 0.88315 0.87799 0.91367 0.0
C1154 C 0.89239 0.89385 0.91438 0.0
C1155 C 0.89935 0.90039 0.95791 0.0
H1156 H 0.90773 0.13874 0.78168 0.0
H1157 H 0.85451 0.15281 0.74864 0.0
H1158 H 0.91096 0.12591 0.70074 0.0
H1159 H 0.85784 0.14013 0.66638 0.0
H1160 H 0.88656 0.13717 0.5068 0.0
H1161 H 0.87768 0.14759 0.58823 0.0
H1162 H 0.89824 0.10046 0.65243 0.0
H1163 H 0.90689 0.09005 0.57236 0.0
C1164 C 0.8966 0.13879 0.75729 0.0
C1165 C 0.88081 0.14655 0.77174 0.0
C1166 C 0.89846 0.13148 0.71084 0.0
C1167 C 0.88467 0.13203 0.67702 0.0
C1168 C 0.86871 0.13957 0.69158 0.0
C1169 C 0.86673 0.1466 0.73879 0.0
C1170 C 0.88886 0.12892 0.53823 0.0
C1171 C 0.89765 0.11287 0.53291 0.0
C1172 C 0.88375 0.13486 0.58483 0.0
C1173 C 0.88744 0.12492 0.62684 0.0
C1174 C 0.89541 0.10854 0.62097 0.0
C1175 C 0.90038 0.10259 0.57482 0.0
H1176 H 0.6454 0.17291 0.31019 0.0
H1177 H 0.62914 0.12717 0.23008 0.0
H1178 H 0.63402 0.1605 0.38494 0.0
H1179 H 0.6185 0.11407 0.30594 0.0
H1180 H 0.58574 0.10206 0.4403 0.0
H1181 H 0.59724 0.11412 0.36524 0.0
H1182 H 0.63753 0.14076 0.4471 0.0
H1183 H 0.62519 0.12934 0.52297 0.0
C1184 C 0.63955 0.16003 0.30863 0.0
C1185 C 0.63823 0.15102 0.26397 0.0
C1186 C 0.63312 0.15279 0.35193 0.0
C1187 C 0.62539 0.1361 0.35239 0.0
C1188 C 0.62408 0.12705 0.30747 0.0
C1189 C 0.63027 0.13449 0.26377 0.0
C1190 C 0.5971 0.11048 0.44244 0.0
C1191 C 0.60454 0.11471 0.48791 0.0
C1192 C 0.60383 0.11733 0.39898 0.0
C1193 C 0.61846 0.12847 0.39926 0.0
C1194 C 0.62606 0.13253 0.44492 0.0
C1195 C 0.61908 0.12588 0.48867 0.0
H1196 H 0.61869 0.86323 0.26865 0.0
H1197 H 0.66583 0.84962 0.19071 0.0
H1198 H 0.60634 0.87505 0.1931 0.0
H1199 H 0.65368 0.86151 0.11604 0.0
H1200 H 0.61965 0.86683 0.97907 0.0
H1201 H 0.63179 0.85537 0.05517 0.0
H1202 H 0.60908 0.89856 0.13446 0.0
H1203 H 0.59682 0.90982 0.05903 0.0
C1204 C 0.6265 0.86294 0.23568 0.0
C1205 C 0.64326 0.85542 0.23599 0.0
C1206 C 0.61944 0.86972 0.19225 0.0
C1207 C 0.62893 0.86912 0.14805 0.0
C1208 C 0.6458 0.86191 0.14886 0.0
C1209 C 0.65284 0.8552 0.19205 0.0
C1210 C 0.61732 0.87392 1.01269 0.0
C1211 C 0.60726 0.88928 1.01263 0.0
C1212 C 0.62432 0.86737 0.05644 0.0
C1213 C 0.62141 0.876 0.1013 0.0
C1214 C 0.61141 0.89139 0.101 0.0
C1215 C 0.60447 0.89793 0.05742 0.0
H1216 H 0.60229 0.60374 0.53624 0.0
H1217 H 0.62016 0.65594 0.50361 0.0
H1218 H 0.61446 0.60637 0.6192 0.0
H1219 H 0.63251 0.65839 0.58523 0.0
H1220 H 0.66828 0.65054 0.71303 0.0
H1221 H 0.65726 0.64244 0.63315 0.0
H1222 H 0.6078 0.62811 0.69707 0.0
H1223 H 0.61879 0.63654 0.77817 0.0
C1224 C 0.6091 0.6156 0.54644 0.0
C1225 C 0.6104 0.6296 0.51335 0.0
C1226 C 0.61588 0.61716 0.59397 0.0
C1227 C 0.62443 0.63258 0.60865 0.0
C1228 C 0.6261 0.64631 0.57494 0.0
C1229 C 0.61904 0.6449 0.52816 0.0
C1230 C 0.6551 0.64548 0.71055 0.0
C1231 C 0.64435 0.64444 0.75218 0.0
C1232 C 0.64881 0.64083 0.66457 0.0
C1233 C 0.63164 0.6348 0.65875 0.0
C1234 C 0.62113 0.63267 0.70056 0.0
C1235 C 0.62741 0.63752 0.74693 0.0
H1236 H 0.6234 0.37995 0.75476 0.0
H1237 H 0.64752 0.33811 0.83565 0.0
H1238 H 0.61254 0.39248 0.831 0.0
H1239 H 0.63594 0.34984 0.91117 0.0
H1240 H 0.62354 0.38098 0.04861 0.0
H1241 H 0.63663 0.37024 0.97267 0.0
H1242 H 0.59242 0.39017 0.89197 0.0
H1243 H 0.58015 0.40159 0.96653 0.0
C1244 C 0.62626 0.37334 0.78875 0.0
C1245 C 0.63639 0.35805 0.78883 0.0
C1246 C 0.61992 0.38044 0.83277 0.0
C1247 C 0.62321 0.37224 0.87815 0.0
C1248 C 0.63333 0.35688 0.87776 0.0
C1249 C 0.6399 0.35002 0.834 0.0
C1250 C 0.61674 0.38313 1.01451 0.0
C1251 C 0.60087 0.39232 1.01395 0.0
C1252 C 0.62417 0.37686 0.97072 0.0
C1253 C 0.61574 0.37932 0.92525 0.0
C1254 C 0.59973 0.38833 0.92534 0.0
C1255 C 0.59254 0.39482 0.96866 0.0
H1256 H 0.88236 0.34774 1.00932 0.0
H1257 H 0.90368 0.3984 0.04464 0.0
H1258 H 0.87036 0.34534 0.09129 0.0
H1259 H 0.89169 0.39588 0.12788 0.0
H1260 H 0.88533 0.36727 0.28644 0.0
H1261 H 0.89653 0.37518 0.20506 0.0
H1262 H 0.84715 0.36056 0.1414 0.0
H1263 H 0.83602 0.35285 0.22147 0.0
C1264 C 0.88433 0.35848 0.03452 0.0
C1265 C 0.89385 0.37333 0.02019 0.0
C1266 C 0.87743 0.35711 0.0816 0.0
C1267 C 0.88004 0.37042 0.11624 0.0
C1268 C 0.8895 0.38538 0.10208 0.0
C1269 C 0.89619 0.38691 0.0543 0.0
C1270 C 0.87679 0.36609 0.25516 0.0
C1271 C 0.85983 0.3592 0.26061 0.0
C1272 C 0.88319 0.37064 0.20856 0.0
C1273 C 0.8728 0.36827 0.16663 0.0
C1274 C 0.8556 0.36228 0.17272 0.0
C1275 C 0.84922 0.35787 0.21887 0.0
H1276 H 0.87476 0.62766 0.26334 0.0
H1277 H 0.8499 0.66851 0.34684 0.0
H1278 H 0.88621 0.61505 0.33873 0.0
H1279 H 0.86208 0.6568 0.42133 0.0
H1280 H 0.87429 0.62508 0.55645 0.0
H1281 H 0.86137 0.636 0.48091 0.0
H1282 H 0.90623 0.61724 0.40024 0.0
H1283 H 0.91836 0.60551 0.4749 0.0
C1284 C 0.87188 0.63403 0.29774 0.0
C1285 C 0.8613 0.649 0.29894 0.0
C1286 C 0.87855 0.62689 0.3412 0.0
C1287 C 0.87514 0.63479 0.38697 0.0
C1288 C 0.86472 0.64993 0.38759 0.0
C1289 C 0.8578 0.6568 0.34446 0.0
C1290 C 0.8813 0.62329 0.52245 0.0
C1291 C 0.89729 0.61433 0.52178 0.0
C1292 C 0.87397 0.62965 0.47891 0.0
C1293 C 0.88264 0.62758 0.43362 0.0
C1294 C 0.8988 0.6188 0.43356 0.0
C1295 C 0.90589 0.61216 0.47677 0.0
H1296 H 0.36853 0.37676 0.5546 0.0
H1297 H 0.4168 0.38961 0.48145 0.0
H1298 H 0.35611 0.36715 0.47598 0.0
H1299 H 0.40464 0.37994 0.40418 0.0
H1300 H 0.38353 0.34536 0.28163 0.0
H1301 H 0.39453 0.35229 0.3631 0.0
H1302 H 0.34777 0.38181 0.39347 0.0
H1303 H 0.33679 0.37505 0.31164 0.0
C1304 C 0.37653 0.37735 0.52204 0.0
C1305 C 0.39363 0.38404 0.52441 0.0
C1306 C 0.36941 0.37197 0.47696 0.0
C1307 C 0.37939 0.37276 0.43365 0.0
C1308 C 0.39661 0.37898 0.43665 0.0
C1309 C 0.40355 0.38463 0.48112 0.0
C1310 C 0.37556 0.35332 0.30561 0.0
C1311 C 0.35932 0.35976 0.28971 0.0
C1312 C 0.38188 0.3573 0.35239 0.0
C1313 C 0.37203 0.36759 0.38502 0.0
C1314 C 0.35563 0.37373 0.36954 0.0
C1315 C 0.34942 0.36999 0.32238 0.0
H1316 H 0.37053 0.59369 0.03749 0.0
H1317 H 0.40239 0.63914 1.00897 0.0
H1318 H 0.36445 0.6046 0.11984 0.0
H1319 H 0.39624 0.65002 0.09104 0.0
H1320 H 0.36071 0.67359 0.21113 0.0
H1321 H 0.36957 0.66136 0.13314 0.0
H1322 H 0.37943 0.61167 0.20215 0.0
H1323 H 0.37059 0.62414 0.28148 0.0
C1324 C 0.37622 0.60602 0.04868 0.0
C1325 C 0.38686 0.61558 1.0163 0.0
C1326 C 0.37287 0.61217 0.09613 0.0
C1327 C 0.37987 0.62818 0.11219 0.0
C1328 C 0.39056 0.63769 0.07984 0.0
C1329 C 0.3941 0.63143 0.03273 0.0
C1330 C 0.36487 0.66007 0.21 0.0
C1331 C 0.36487 0.64983 0.25267 0.0
C1332 C 0.37006 0.65308 0.16514 0.0
C1333 C 0.37521 0.63553 0.16119 0.0
C1334 C 0.37543 0.62523 0.20391 0.0
C1335 C 0.3705 0.63238 0.24936 0.0
H1336 H 0.14129 0.6037 0.03188 0.0
H1337 H 0.09261 0.63164 1.017 0.0
H1338 H 0.1493 0.61203 0.9489 0.0
H1339 H 0.10062 0.63992 0.93399 0.0
H1340 H 0.1151 0.63957 0.76959 0.0
H1341 H 0.10609 0.628 0.84958 0.0
H1342 H 0.15745 0.63908 0.90662 0.0
H1343 H 0.16632 0.65047 0.82771 0.0
C1344 C 0.13226 0.61161 1.01105 0.0
C1345 C 0.11628 0.61699 0.03156 0.0
C1346 C 0.13687 0.61641 0.96333 0.0
C1347 C 0.1256 0.62663 0.93451 0.0
C1348 C 0.10953 0.63184 0.95476 0.0
C1349 C 0.10498 0.62717 1.00267 0.0
C1350 C 0.12449 0.63926 0.7991 0.0
C1351 C 0.14142 0.64596 0.79221 0.0
C1352 C 0.11931 0.63279 0.84504 0.0
C1353 C 0.13104 0.63262 0.88472 0.0
C1354 C 0.1481 0.63881 0.87701 0.0
C1355 C 0.15316 0.64545 0.83164 0.0
H1356 H 0.1532 0.33394 0.69467 0.0
H1357 H 0.12853 0.37535 0.7766 0.0
H1358 H 0.14127 0.34547 0.6197 0.0
H1359 H 0.11722 0.38766 0.7006 0.0
H1360 H 0.08425 0.39535 0.56471 0.0
H1361 H 0.09681 0.38438 0.63963 0.0
H1362 H 0.142 0.36633 0.55928 0.0
H1363 H 0.12876 0.37662 0.48336 0.0
C1364 C 0.14541 0.34574 0.69668 0.0
C1365 C 0.14187 0.35372 0.74197 0.0
C1366 C 0.13863 0.35248 0.65322 0.0
C1367 C 0.12824 0.36763 0.65324 0.0
C1368 C 0.12488 0.37579 0.69867 0.0
C1369 C 0.13147 0.36883 0.74247 0.0
C1370 C 0.09689 0.38904 0.56287 0.0
C1371 C 0.10549 0.3869 0.5178 0.0
C1372 C 0.10423 0.38284 0.60626 0.0
C1373 C 0.12059 0.37449 0.60638 0.0
C1374 C 0.12926 0.37241 0.56109 0.0
C1375 C 0.12173 0.37839 0.51734 0.0
H1376 H 0.15685 0.15795 0.57632 0.0
H1377 H 0.13 0.11824 0.49313 0.0
H1378 H 0.14757 0.14438 0.65147 0.0
H1379 H 0.12133 0.10391 0.56923 0.0
H1380 H 0.08514 0.10437 0.7038 0.0
H1381 H 0.10045 0.11031 0.62876 0.0
H1382 H 0.14726 0.12228 0.71041 0.0
H1383 H 0.13138 0.11704 0.78672 0.0
C1384 C 0.14927 0.14603 0.57403 0.0
C1385 C 0.14384 0.13939 0.52862 0.0
C1386 C 0.14409 0.13808 0.61747 0.0
C1387 C 0.13345 0.12313 0.61686 0.0
C1388 C 0.12917 0.11566 0.57124 0.0
C1389 C 0.13425 0.12376 0.52752 0.0
C1390 C 0.09876 0.10813 0.70603 0.0
C1391 C 0.10695 0.11054 0.75146 0.0
C1392 C 0.10766 0.11132 0.66259 0.0
C1393 C 0.12514 0.11689 0.66306 0.0
C1394 C 0.1337 0.11832 0.70853 0.0
C1395 C 0.12467 0.11522 0.75233 0.0
H1396 H 0.10054 0.91651 0.8352 0.0
H1397 H 0.12896 0.87341 0.77223 0.0
H1398 H 0.11519 0.91196 0.91298 0.0
H1399 H 0.14311 0.86813 0.85067 0.0
H1400 H 0.16963 0.86191 0.99223 0.0
H1401 H 0.16189 0.87536 0.91464 0.0
H1402 H 0.11263 0.89196 0.97677 0.0
H1403 H 0.12095 0.87919 0.05491 0.0
C1404 C 0.11023 0.90623 0.83793 0.0
C1405 C 0.11367 0.89531 0.79783 0.0
C1406 C 0.11848 0.90348 0.8827 0.0
C1407 C 0.13014 0.88945 0.88886 0.0
C1408 C 0.13439 0.8792 0.84757 0.0
C1409 C 0.12631 0.88218 0.8024 0.0
C1410 C 0.15743 0.86903 0.98959 0.0
C1411 C 0.14592 0.86965 0.02953 0.0
C1412 C 0.15285 0.87651 0.94489 0.0
C1413 C 0.13646 0.88449 0.93868 0.0
C1414 C 0.12546 0.88613 0.9799 0.0
C1415 C 0.1302 0.87887 0.02497 0.0
H1416 H 0.33534 0.85898 0.06585 0.0
H1417 H 0.38224 0.87966 1.00049 0.0
H1418 H 0.34265 0.87302 0.14297 0.0
H1419 H 0.39011 0.89314 0.07821 0.0
H1420 H 0.37646 0.87451 0.28389 0.0
H1421 H 0.36245 0.86757 0.20627 0.0
H1422 H 0.38598 0.91342 0.14137 0.0
H1423 H 0.4005 0.91975 0.21843 0.0
C1424 C 0.34708 0.86686 0.06786 0.0
C1425 C 0.35822 0.86827 0.02724 0.0
C1426 C 0.35139 0.87474 0.11227 0.0
C1427 C 0.36715 0.88399 0.11752 0.0
C1428 C 0.37776 0.8863 0.07577 0.0
C1429 C 0.37328 0.87861 0.03099 0.0
C1430 C 0.37812 0.88337 0.25341 0.0
C1431 C 0.38954 0.89763 0.25707 0.0
C1432 C 0.37014 0.87941 0.20867 0.0
C1433 C 0.37326 0.88977 0.16688 0.0
C1434 C 0.3836 0.90485 0.1721 0.0
C1435 C 0.39175 0.90862 0.21648 0.0
H1436 H 0.37172 0.11728 0.25271 0.0
H1437 H 0.41575 0.09942 0.3374 0.0
H1438 H 0.35572 0.12323 0.32842 0.0
H1439 H 0.40042 0.10609 0.41196 0.0
H1440 H 0.37053 0.11613 0.54665 0.0
H1441 H 0.37877 0.10163 0.4703 0.0
H1442 H 0.35683 0.14469 0.38871 0.0
H1443 H 0.34793 0.15845 0.46392 0.0
C1444 C 0.37789 0.11444 0.28734 0.0
C1445 C 0.39509 0.10813 0.28892 0.0
C1446 C 0.36881 0.11797 0.33085 0.0
C1447 C 0.3768 0.11537 0.37675 0.0
C1448 C 0.39363 0.1081 0.37781 0.0
C1449 C 0.40257 0.10447 0.33465 0.0
C1450 C 0.36713 0.12222 0.51229 0.0
C1451 C 0.35884 0.13856 0.51149 0.0
C1452 C 0.37197 0.11401 0.46842 0.0
C1453 C 0.36874 0.12207 0.42292 0.0
C1454 C 0.35944 0.13788 0.42253 0.0
C1455 C 0.3545 0.14594 0.46606 0.0
H1456 H 0.89615 0.91855 0.31402 0.0
H1457 H 0.87698 0.87121 0.24744 0.0
H1458 H 0.88243 0.91047 0.39099 0.0
H1459 H 0.86378 0.86262 0.32499 0.0
H1460 H 0.83616 0.85229 0.46476 0.0
H1461 H 0.84306 0.86641 0.38753 0.0
H1462 H 0.8883 0.89045 0.45399 0.0
H1463 H 0.88084 0.87678 0.53183 0.0
C1464 C 0.88868 0.90653 0.31573 0.0
C1465 C 0.88759 0.8955 0.27479 0.0
C1466 C 0.88099 0.90178 0.36005 0.0
C1467 C 0.87222 0.88573 0.36484 0.0
C1468 C 0.87025 0.87518 0.32285 0.0
C1469 C 0.87777 0.88008 0.27819 0.0
C1470 C 0.84736 0.86094 0.46305 0.0
C1471 C 0.858 0.86344 0.50423 0.0
C1472 C 0.85142 0.8689 0.41859 0.0
C1473 C 0.86642 0.87938 0.41391 0.0
C1474 C 0.87653 0.88264 0.45604 0.0
C1475 C 0.87229 0.87483 0.50084 0.0
H1476 H 0.90508 0.09832 0.20817 0.0
H1477 H 0.8667 0.12666 0.29238 0.0
H1478 H 0.89115 0.1073 0.13342 0.0
H1479 H 0.85191 0.13502 0.2167 0.0
H1480 H 0.85274 0.17072 0.08098 0.0
H1481 H 0.85801 0.15535 0.15616 0.0
H1482 H 0.86932 0.10822 0.07479 0.0
H1483 H 0.86484 0.12418 0.99835 0.0
C1484 C 0.89333 0.10616 0.21076 0.0
C1485 C 0.88723 0.11211 0.25628 0.0
C1486 C 0.88516 0.11116 0.16755 0.0
C1487 C 0.87049 0.12218 0.16844 0.0
C1488 C 0.86345 0.1269 0.21435 0.0
C1489 C 0.87179 0.12197 0.25788 0.0
C1490 C 0.85619 0.15702 0.07884 0.0
C1491 C 0.85872 0.14879 0.03343 0.0
C1492 C 0.859 0.14806 0.1224 0.0
C1493 C 0.86428 0.13049 0.12212 0.0
C1494 C 0.86563 0.12186 0.07662 0.0
C1495 C 0.86295 0.13094 0.03269 0.0
H1496 H 0.62844 0.13154 0.73483 0.0
H1497 H 0.60638 0.08506 0.79904 0.0
H1498 H 0.64243 0.13861 0.81241 0.0
H1499 H 0.62086 0.09159 0.87601 0.0
H1500 H 0.66982 0.14743 0.95197 0.0
H1501 H 0.66282 0.13327 0.87476 0.0
H1502 H 0.61613 0.11158 0.93994 0.0
H1503 H 0.6237 0.12523 1.01768 0.0
C1504 C 0.62717 0.12249 0.76502 0.0
C1505 C 0.61631 0.10781 0.76104 0.0
C1506 C 0.63516 0.12651 0.8097 0.0
C1507 C 0.6326 0.1158 0.85109 0.0
C1508 C 0.62279 0.10039 0.84557 0.0
C1509 C 0.61465 0.09654 0.80125 0.0
C1510 C 0.65837 0.13913 0.95005 0.0
C1511 C 0.64732 0.13734 0.99073 0.0
C1512 C 0.65421 0.1312 0.9056 0.0
C1513 C 0.63871 0.12152 0.90046 0.0
C1514 C 0.62828 0.11877 0.94233 0.0
C1515 C 0.6326 0.12653 0.98713 0.0
H1516 H 0.62871 0.86797 0.76779 0.0
H1517 H 0.6105 0.91536 0.6998 0.0
H1518 H 0.64184 0.85883 0.69055 0.0
H1519 H 0.62417 0.90675 0.62318 0.0
H1520 H 0.62566 0.87306 0.48261 0.0
H1521 H 0.61811 0.88674 0.56041 0.0
H1522 H 0.66263 0.86187 0.62798 0.0
H1523 H 0.66963 0.84775 0.55077 0.0
C1524 C 0.62813 0.87674 0.73681 0.0
C1525 C 0.61861 0.89236 0.73974 0.0
C1526 C 0.6356 0.87152 0.6923 0.0
C1527 C 0.63387 0.88191 0.64998 0.0
C1528 C 0.62541 0.89815 0.65433 0.0
C1529 C 0.61776 0.90322 0.69848 0.0
C1530 C 0.63402 0.87088 0.51386 0.0
C1531 C 0.64817 0.85929 0.51065 0.0
C1532 C 0.62973 0.87871 0.55865 0.0
C1533 C 0.63964 0.87529 0.60107 0.0
C1534 C 0.65442 0.86451 0.59671 0.0
C1535 C 0.65855 0.85654 0.55224 0.0
H1536 H 0.6212 0.62505 1.00019 0.0
H1537 H 0.66862 0.64564 0.06255 0.0
H1538 H 0.61384 0.61164 0.07835 0.0
H1539 H 0.66183 0.63165 0.1401 0.0
H1540 H 0.60415 0.58544 0.2188 0.0
H1541 H 0.6185 0.59139 0.14118 0.0
H1542 H 0.64227 0.63748 0.2041 0.0
H1543 H 0.6285 0.63087 0.28232 0.0
C1544 C 0.63036 0.6261 0.03014 0.0
C1545 C 0.64539 0.63642 0.02556 0.0
C1546 C 0.62619 0.61844 0.07511 0.0
C1547 C 0.63712 0.62075 0.11611 0.0
C1548 C 0.65286 0.62995 0.10995 0.0
C1549 C 0.65686 0.63781 0.06534 0.0
C1550 C 0.61291 0.59653 0.21625 0.0
C1551 C 0.61526 0.60771 0.25636 0.0
C1552 C 0.62097 0.60007 0.17161 0.0
C1553 C 0.63129 0.61512 0.16574 0.0
C1554 C 0.63457 0.62567 0.20708 0.0
C1555 C 0.62671 0.62191 0.2521 0.0
H1556 H 0.61973 0.38301 0.54358 0.0
H1557 H 0.66802 0.36543 0.47916 0.0
H1558 H 0.61146 0.39643 0.46621 0.0
H1559 H 0.66025 0.37939 0.40232 0.0
H1560 H 0.62668 0.37914 0.2605 0.0
H1561 H 0.64093 0.3729 0.33826 0.0
H1562 H 0.61461 0.41712 0.40363 0.0
H1563 H 0.59992 0.42275 0.32642 0.0
C1564 C 0.62891 0.3827 0.51347 0.0
C1565 C 0.64451 0.37322 0.51738 0.0
C1566 C 0.62418 0.39034 0.46883 0.0
C1567 C 0.63506 0.3888 0.42732 0.0
C1568 C 0.65131 0.38049 0.43281 0.0
C1569 C 0.65589 0.37269 0.47712 0.0
C1570 C 0.62445 0.38784 0.29111 0.0
C1571 C 0.61224 0.40141 0.28748 0.0
C1572 C 0.63256 0.38426 0.33594 0.0
C1573 C 0.62875 0.39434 0.3779 0.0
C1574 C 0.61756 0.40878 0.37276 0.0
C1575 C 0.60931 0.41217 0.32828 0.0
H1576 H 0.903 0.41822 0.72559 0.0
H1577 H 0.87581 0.37446 0.78926 0.0
H1578 H 0.88772 0.41366 0.64875 0.0
H1579 H 0.86096 0.36926 0.7117 0.0
H1580 H 0.83239 0.36436 0.57221 0.0
H1581 H 0.84118 0.37723 0.64976 0.0
H1582 H 0.89002 0.39343 0.58447 0.0
H1583 H 0.88077 0.38113 0.50652 0.0
C1584 C 0.89347 0.40778 0.72325 0.0
C1585 C 0.89056 0.39667 0.76324 0.0
C1586 C 0.88484 0.40504 0.67902 0.0
C1587 C 0.8733 0.39089 0.67337 0.0
C1588 C 0.8696 0.38041 0.71455 0.0
C1589 C 0.87808 0.38336 0.75918 0.0
C1590 C 0.84476 0.37121 0.57419 0.0
C1591 C 0.85589 0.37182 0.53339 0.0
C1592 C 0.84991 0.37838 0.61883 0.0
C1593 C 0.86646 0.38611 0.624 0.0
C1594 C 0.87709 0.38777 0.58206 0.0
C1595 C 0.8718 0.38077 0.53713 0.0
H1596 H 0.87276 0.63221 0.76838 0.0
H1597 H 0.89438 0.58592 0.83442 0.0
H1598 H 0.8591 0.64001 0.84606 0.0
H1599 H 0.88022 0.59315 0.91147 0.0
H1600 H 0.83171 0.64931 0.98667 0.0
H1601 H 0.8388 0.63527 0.90934 0.0
H1602 H 0.8854 0.61348 0.97422 0.0
H1603 H 0.8778 0.62704 0.05211 0.0
C1604 C 0.87397 0.62335 0.79901 0.0
C1605 C 0.88459 0.60849 0.7955 0.0
C1606 C 0.8662 0.6278 0.84375 0.0
C1607 C 0.86876 0.61735 0.88565 0.0
C1608 C 0.87831 0.60177 0.88063 0.0
C1609 C 0.88624 0.59749 0.83626 0.0
C1610 C 0.84324 0.64112 0.98463 0.0
C1611 C 0.85421 0.63925 0.02537 0.0
C1612 C 0.84741 0.63322 0.9401 0.0
C1613 C 0.86284 0.62345 0.93491 0.0
C1614 C 0.87329 0.62074 0.97667 0.0
C1615 C 0.86896 0.62848 0.02152 0.0
H1616 H 0.37612 0.37341 0.05495 0.0
H1617 H 0.33428 0.34343 0.99126 0.0
H1618 H 0.38073 0.3882 0.97688 0.0
H1619 H 0.33818 0.35862 0.91398 0.0
H1620 H 0.37006 0.3672 0.77145 0.0
H1621 H 0.35823 0.35751 0.84959 0.0
H1622 H 0.37218 0.4072 0.91409 0.0
H1623 H 0.38465 0.4164 0.83633 0.0
C1624 C 0.36749 0.3705 0.02472 0.0
C1625 C 0.3549 0.35729 0.029 0.0
C1626 C 0.37009 0.37894 0.97978 0.0
C1627 C 0.35998 0.37447 0.93844 0.0
C1628 C 0.34654 0.36213 0.94428 0.0
C1629 C 0.34416 0.35354 0.98879 0.0
C1630 C 0.36994 0.37625 0.80188 0.0
C1631 C 0.37812 0.39258 0.7978 0.0
C1632 C 0.36325 0.3707 0.84699 0.0
C1633 C 0.36445 0.38145 0.88884 0.0
C1634 C 0.37139 0.39836 0.8833 0.0
C1635 C 0.37828 0.40377 0.83849 0.0
H1636 H 0.37304 0.6304 0.78228 0.0
H1637 H 0.3997 0.58592 0.72081 0.0
H1638 H 0.35879 0.63565 0.70391 0.0
H1639 H 0.38498 0.5905 0.64314 0.0
H1640 H 0.3803 0.62309 0.50021 0.0
H1641 H 0.38821 0.61025 0.57858 0.0
H1642 H 0.33952 0.62851 0.64046 0.0
H1643 H 0.33216 0.64195 0.56255 0.0
C1644 C 0.37526 0.62133 0.75253 0.0
C1645 C 0.38745 0.60779 0.75746 0.0
C1646 C 0.36714 0.6243 0.70739 0.0
C1647 C 0.3709 0.61365 0.66651 0.0
C1648 C 0.38207 0.59927 0.6731 0.0
C1649 C 0.39036 0.5965 0.71783 0.0
C1650 C 0.37103 0.62372 0.53009 0.0
C1651 C 0.3556 0.6334 0.52535 0.0
C1652 C 0.37556 0.61644 0.57532 0.0
C1653 C 0.36465 0.61856 0.61655 0.0
C1654 C 0.34849 0.62697 0.61018 0.0
C1655 C 0.34412 0.63444 0.56528 0.0
H1656 H 0.11971 0.62346 0.54338 0.0
H1657 H 0.16785 0.64261 0.48174 0.0
H1658 H 0.11185 0.61083 0.46461 0.0
H1659 H 0.16057 0.62935 0.40349 0.0
H1660 H 0.10051 0.58677 0.32188 0.0
H1661 H 0.11514 0.59123 0.39978 0.0
H1662 H 0.14146 0.63646 0.33998 0.0
H1663 H 0.12734 0.6313 0.2614 0.0
C1664 C 0.12896 0.62423 0.51351 0.0
C1665 C 0.14438 0.63394 0.51856 0.0
C1666 C 0.12448 0.61705 0.46809 0.0
C1667 C 0.13544 0.61928 0.427 0.0
C1668 C 0.15157 0.62774 0.43365 0.0
C1669 C 0.15588 0.63513 0.47872 0.0
C1670 C 0.10988 0.59733 0.32513 0.0
C1671 C 0.11286 0.60868 0.28573 0.0
C1672 C 0.11811 0.60004 0.36999 0.0
C1673 C 0.12927 0.61442 0.37692 0.0
C1674 C 0.13311 0.62512 0.33625 0.0
C1675 C 0.12506 0.6222 0.29099 0.0
H1676 H 0.10975 0.41861 0.20709 0.0
H1677 H 0.13206 0.37231 0.27117 0.0
H1678 H 0.1245 0.41232 0.13022 0.0
H1679 H 0.1463 0.36543 0.1937 0.0
H1680 H 0.12716 0.37861 0.98878 0.0
H1681 H 0.1198 0.39237 0.06649 0.0
H1682 H 0.16653 0.37063 0.13083 0.0
H1683 H 0.17332 0.35633 0.0536 0.0
C1684 C 0.11818 0.40726 0.2049 0.0
C1685 C 0.11983 0.39596 0.24501 0.0
C1686 C 0.12647 0.40352 0.16064 0.0
C1687 C 0.13637 0.38818 0.15505 0.0
C1688 C 0.13896 0.37748 0.19644 0.0
C1689 C 0.13085 0.3814 0.24108 0.0
C1690 C 0.13613 0.37732 1.01911 0.0
C1691 C 0.15079 0.36645 1.01525 0.0
C1692 C 0.13192 0.38516 0.06391 0.0
C1693 C 0.14242 0.38243 0.10558 0.0
C1694 C 0.15788 0.3727 0.10016 0.0
C1695 C 0.16191 0.36468 0.05569 0.0
H1696 H 0.2854 0.1279 0.58398 0.0
H1697 H 0.2895 0.18409 0.59122 0.0
H1698 H 0.26012 0.13055 0.53039 0.0
H1699 H 0.26403 0.18679 0.53735 0.0
H1700 H 0.20429 0.17803 0.49261 0.0
H1701 H 0.23085 0.17874 0.54169 0.0
H1702 H 0.25521 0.14206 0.44324 0.0
H1703 H 0.22894 0.14169 0.39322 0.0
C1704 C 0.28078 0.14082 0.57446 0.0
C1705 C 0.28934 0.1558 0.59189 0.0
C1706 C 0.26644 0.14234 0.54337 0.0
C1707 C 0.26022 0.15888 0.52953 0.0
C1708 C 0.26858 0.1739 0.54754 0.0
C1709 C 0.28313 0.17236 0.57809 0.0
C1710 C 0.21542 0.17046 0.48058 0.0
C1711 C 0.21434 0.1596 0.43917 0.0
C1712 C 0.23061 0.17082 0.50891 0.0
C1713 C 0.24495 0.16024 0.49662 0.0
C1714 C 0.24421 0.15009 0.45401 0.0
C1715 C 0.22914 0.14987 0.42545 0.0
H1716 H 0.07714 0.9787 0.65083 0.0
H1717 H 0.10597 0.95178 0.76335 0.0
H1718 H 0.07795 0.00544 0.69928 0.0
H1719 H 0.10671 0.97845 0.81175 0.0
H1720 H 0.09787 0.05421 0.77808 0.0
H1721 H 0.09811 0.02765 0.7293 0.0
H1722 H 0.08695 0.99719 0.85823 0.0
H1723 H 0.08663 0.02386 0.90718 0.0
C1724 C 0.08381 0.9785 0.68559 0.0
C1725 C 0.09138 0.96301 0.70321 0.0
C1726 C 0.08427 0.99384 0.71345 0.0
C1727 C 0.09231 0.99407 0.75959 0.0
C1728 C 0.10012 0.97866 0.77683 0.0
C1729 C 0.09968 0.96334 0.74899 0.0
C1730 C 0.0953 0.0419 0.79609 0.0
C1731 C 0.09209 0.04123 0.84664 0.0
C1732 C 0.09546 0.02664 0.76802 0.0
C1733 C 0.09246 0.01028 0.78974 0.0
C1734 C 0.0895 0.00956 0.8404 0.0
C1735 C 0.08932 0.02485 0.86852 0.0
H1736 H 0.2326 0.85244 0.16055 0.0
H1737 H 0.20036 0.83727 0.03845 0.0
H1738 H 0.25839 0.85142 0.1081 0.0
H1739 H 0.22611 0.83557 0.98672 0.0
H1740 H 0.2727 0.85582 0.89684 0.0
H1741 H 0.2469 0.85521 0.9491 0.0
H1742 H 0.27723 0.83127 0.06376 0.0
H1743 H 0.30313 0.83248 1.01216 0.0
C1744 C 0.23102 0.8488 0.12264 0.0
C1745 C 0.21439 0.8449 0.10391 0.0
C1746 C 0.24582 0.84803 0.09267 0.0
C1747 C 0.24434 0.84339 0.04315 0.0
C1748 C 0.22772 0.83935 0.02455 0.0
C1749 C 0.21295 0.84009 0.0545 0.0
C1750 C 0.27384 0.85042 0.93318 0.0
C1751 C 0.28999 0.84419 0.95016 0.0
C1752 C 0.25902 0.84992 0.96303 0.0
C1753 C 0.25998 0.84321 1.01072 0.0
C1754 C 0.27607 0.8367 0.02743 0.0
C1755 C 0.29089 0.83716 0.99752 0.0
H1756 H 0.41502 0.98246 0.40471 0.0
H1757 H 0.40465 0.94985 0.27939 0.0
H1758 H 0.41314 0.00841 0.35327 0.0
H1759 H 0.40285 0.97572 0.22796 0.0
H1760 H 0.38909 0.02866 0.1567 0.0
H1761 H 0.38709 0.00277 0.20871 0.0
H1762 H 0.43193 0.02057 0.2903 0.0
H1763 H 0.43392 0.04626 0.23857 0.0
C1764 C 0.41216 0.98086 0.36629 0.0
C1765 C 0.4101 0.96409 0.34621 0.0
C1766 C 0.41116 0.99569 0.33675 0.0
C1767 C 0.40812 0.99412 0.28633 0.0
C1768 C 0.40511 0.97741 0.26668 0.0
C1769 C 0.40608 0.96256 0.29628 0.0
C1770 C 0.39861 0.02693 0.18542 0.0
C1771 C 0.41158 0.03961 0.19368 0.0
C1772 C 0.39743 0.01214 0.21534 0.0
C1773 C 0.40919 0.00973 0.25413 0.0
C1774 C 0.42236 0.02224 0.26162 0.0
C1775 C 0.42354 0.03696 0.23181 0.0
H1776 H 0.73243 0.85364 0.37536 0.0
H1777 H 0.70539 0.82069 0.47882 0.0
H1778 H 0.75829 0.85319 0.42708 0.0
H1779 H 0.73146 0.81994 0.52985 0.0
H1780 H 0.78903 0.81368 0.58729 0.0
H1781 H 0.76402 0.81054 0.53171 0.0
H1782 H 0.76332 0.86645 0.51068 0.0
H1783 H 0.78808 0.86953 0.56554 0.0
C1784 C 0.73202 0.84619 0.40888 0.0
C1785 C 0.71669 0.83742 0.42307 0.0
C1786 C 0.74685 0.84591 0.43844 0.0
C1787 C 0.7468 0.8367 0.48275 0.0
C1788 C 0.73188 0.82709 0.49576 0.0
C1789 C 0.71694 0.82749 0.46633 0.0
C1790 C 0.78345 0.82524 0.57073 0.0
C1791 C 0.7904 0.84184 0.58107 0.0
C1792 C 0.76916 0.82346 0.53915 0.0
C1793 C 0.76182 0.83825 0.51666 0.0
C1794 C 0.76882 0.85481 0.52704 0.0
C1795 C 0.78287 0.85659 0.55898 0.0
H1796 H 0.9244 0.9526 0.25196 0.0
H1797 H 0.89991 0.98081 0.13413 0.0
H1798 H 0.92567 0.97939 0.30004 0.0
H1799 H 0.90075 0.00756 0.18275 0.0
H1800 H 0.91826 0.0556 0.26776 0.0
H1801 H 0.92083 0.02919 0.21848 0.0
H1802 H 0.90413 0.99815 0.34157 0.0
H1803 H 0.90204 0.02456 0.3913 0.0
C1804 C 0.91955 0.96457 0.23597 0.0
C1805 C 0.91208 0.96459 0.18911 0.0
C1806 C 0.92007 0.97988 0.2638 0.0
C1807 C 0.91322 0.99558 0.24533 0.0
C1808 C 0.90626 0.99572 0.1979 0.0
C1809 C 0.90565 0.98039 0.17019 0.0
C1810 C 0.91542 0.04313 0.28461 0.0
C1811 C 0.90999 0.04217 0.33359 0.0
C1812 C 0.91671 0.02801 0.25616 0.0
C1813 C 0.91267 0.01158 0.27609 0.0
C1814 C 0.90751 0.01059 0.32527 0.0
C1815 C 0.90614 0.02572 0.35363 0.0
H1816 H 0.77707 0.18263 0.87834 0.0
H1817 H 0.80299 0.14999 0.98387 0.0
H1818 H 0.75025 0.18142 0.92681 0.0
H1819 H 0.77621 0.14803 0.03133 0.0
H1820 H 0.73216 0.16258 0.13336 0.0
H1821 H 0.75852 0.16438 0.08352 0.0
H1822 H 0.72681 0.16394 0.95301 0.0
H1823 H 0.70056 0.16288 1.00331 0.0
C1824 C 0.77689 0.17498 0.91154 0.0
C1825 C 0.79209 0.16653 0.92764 0.0
C1826 C 0.76155 0.17422 0.93934 0.0
C1827 C 0.76102 0.16475 0.98344 0.0
C1828 C 0.77617 0.15586 0.99845 0.0
C1829 C 0.79152 0.15686 0.97111 0.0
C1830 C 0.73092 0.1629 0.09402 0.0
C1831 C 0.71437 0.16269 0.07221 0.0
C1832 C 0.746 0.16382 0.06532 0.0
C1833 C 0.74488 0.16422 1.014 0.0
C1834 C 0.72824 0.16398 0.9923 0.0
C1835 C 0.71316 0.16333 0.0211 0.0
H1836 H 0.5819 0.05303 0.74373 0.0
H1837 H 0.60074 0.02337 0.62037 0.0
H1838 H 0.58068 0.02638 0.79237 0.0
H1839 H 0.59996 0.99674 0.66938 0.0
H1840 H 0.58198 0.94977 0.7574 0.0
H1841 H 0.57964 0.97648 0.70953 0.0
H1842 H 0.6018 0.00593 0.82885 0.0
H1843 H 0.60369 0.97922 0.87733 0.0
C1844 C 0.58556 0.0408 0.72674 0.0
C1845 C 0.59136 0.04031 0.67803 0.0
C1846 C 0.58507 0.02554 0.75484 0.0
C1847 C 0.59027 0.00943 0.73483 0.0
C1848 C 0.5957 0.0089 0.6858 0.0
C1849 C 0.59629 0.02416 0.65782 0.0
C1850 C 0.58605 0.96197 0.77385 0.0
C1851 C 0.59298 0.96236 0.82136 0.0
C1852 C 0.5849 0.97726 0.74613 0.0
C1853 C 0.59059 0.99333 0.76527 0.0
C1854 C 0.59715 0.9938 0.81316 0.0
C1855 C 0.59839 0.97848 0.84079 0.0
H1856 H 0.71506 0.68653 0.94533 0.0
H1857 H 0.71426 0.63107 0.97372 0.0
H1858 H 0.73994 0.68979 1.00125 0.0
H1859 H 0.73892 0.63425 0.02895 0.0
H1860 H 0.77073 0.64833 0.16213 0.0
H1861 H 0.74477 0.64846 0.11076 0.0
H1862 H 0.77198 0.67958 1.00368 0.0
H1863 H 0.79809 0.67914 0.05412 0.0
C1864 C 0.72022 0.67509 0.96348 0.0
C1865 C 0.71286 0.65855 0.9548 0.0
C1866 C 0.73444 0.67692 0.99526 0.0
C1867 C 0.74128 0.66228 0.01961 0.0
C1868 C 0.73381 0.64579 1.01112 0.0
C1869 C 0.71983 0.64394 0.97896 0.0
C1870 C 0.77122 0.65523 0.12771 0.0
C1871 C 0.78667 0.66352 0.11226 0.0
C1872 C 0.75632 0.65533 0.09836 0.0
C1873 C 0.75642 0.66389 0.05304 0.0
C1874 C 0.7715 0.67298 0.0386 0.0
C1875 C 0.78649 0.67274 0.06775 0.0
H1876 H 0.61359 0.54878 0.30411 0.0
H1877 H 0.577 0.5264 0.40629 0.0
H1878 H 0.61227 0.52213 0.25459 0.0
H1879 H 0.57552 0.49979 0.35656 0.0
H1880 H 0.55837 0.47149 0.21307 0.0
H1881 H 0.563 0.49603 0.26843 0.0
H1882 H 0.61872 0.4881 0.25974 0.0
H1883 H 0.61403 0.46321 0.20428 0.0
C1884 C 0.60545 0.53804 0.31621 0.0
C1885 C 0.59534 0.53964 0.35885 0.0
C1886 C 0.60477 0.5228 0.28809 0.0
C1887 C 0.59372 0.50899 0.30165 0.0
C1888 C 0.58408 0.51032 0.34522 0.0
C1889 C 0.58501 0.52545 0.37381 0.0
C1890 C 0.57162 0.47508 0.22253 0.0
C1891 C 0.58587 0.46559 0.20394 0.0
C1892 C 0.57425 0.48897 0.25472 0.0
C1893 C 0.5912 0.49386 0.26858 0.0
C1894 C 0.60552 0.48455 0.24959 0.0
C1895 C 0.60286 0.47038 0.21799 0.0
H1896 H 0.69761 0.33365 0.53441 0.0
H1897 H 0.72847 0.35116 0.65679 0.0
H1898 H 0.7239 0.33159 0.48466 0.0
H1899 H 0.75481 0.34955 0.60647 0.0
H1900 H 0.80079 0.33136 0.514 0.0
H1901 H 0.77443 0.329 0.56374 0.0
H1902 H 0.74437 0.35247 0.44782 0.0
H1903 H 0.77069 0.35445 0.39768 0.0
C1904 C 0.71002 0.3368 0.55101 0.0
C1905 C 0.71093 0.34251 0.59978 0.0
C1906 C 0.72509 0.33583 0.52222 0.0
C1907 C 0.74146 0.34047 0.54147 0.0
C1908 C 0.74244 0.34573 0.5906 0.0
C1909 C 0.72734 0.3468 0.61934 0.0
C1910 C 0.7885 0.33567 0.49869 0.0
C1911 C 0.78782 0.34305 0.45173 0.0
C1912 C 0.77343 0.33452 0.52748 0.0
C1913 C 0.7573 0.34061 0.50988 0.0
C1914 C 0.75654 0.34751 0.46237 0.0
C1915 C 0.77163 0.34877 0.43374 0.0
H1916 H 0.92148 0.47916 0.92099 0.0
H1917 H 0.89481 0.45158 0.8056 0.0
H1918 H 0.91967 0.50627 0.87354 0.0
H1919 H 0.89339 0.47831 0.75795 0.0
H1920 H 0.87875 0.53233 0.70481 0.0
H1921 H 0.87927 0.5068 0.75744 0.0
H1922 H 0.93256 0.51839 0.79738 0.0
H1923 H 0.93211 0.544 0.74426 0.0
C1924 C 0.91511 0.47893 0.88577 0.0
C1925 C 0.90839 0.46323 0.8669 0.0
C1926 C 0.91423 0.49438 0.85838 0.0
C1927 C 0.90644 0.49442 0.81187 0.0
C1928 C 0.89934 0.47879 0.79375 0.0
C1929 C 0.90031 0.46341 0.82088 0.0
C1930 C 0.89067 0.52939 0.72427 0.0
C1931 C 0.90546 0.5402 0.71984 0.0
C1932 C 0.89093 0.51476 0.7547 0.0
C1933 C 0.90596 0.51054 0.78157 0.0
C1934 C 0.92069 0.52142 0.77768 0.0
C1935 C 0.92045 0.53607 0.74711 0.0
H1936 H 0.22322 0.36589 0.93087 0.0
H1937 H 0.21045 0.31196 0.96089 0.0
H1938 H 0.24711 0.36448 0.98856 0.0
H1939 H 0.23462 0.31054 1.01914 0.0
H1940 H 0.26911 0.32066 0.15502 0.0
H1941 H 0.24427 0.32179 0.09893 0.0
H1942 H 0.27543 0.35138 0.99667 0.0
H1943 H 0.29981 0.35082 0.05306 0.0
C1944 C 0.22565 0.35361 0.94911 0.0
C1945 C 0.21494 0.33896 0.94062 0.0
C1946 C 0.23938 0.35283 0.9825 0.0
C1947 C 0.24288 0.33738 1.00844 0.0
C1948 C 0.23217 0.32272 1.00022 0.0
C1949 C 0.21837 0.3235 0.96669 0.0
C1950 C 0.27055 0.32758 0.12083 0.0
C1951 C 0.2865 0.3356 0.10858 0.0
C1952 C 0.25639 0.32804 0.08841 0.0
C1953 C 0.25784 0.33665 0.04319 0.0
C1954 C 0.27375 0.34479 0.03131 0.0
C1955 C 0.28784 0.3443 0.06354 0.0
H1956 H 0.42734 0.5255 0.89782 0.0
H1957 H 0.38968 0.55003 0.80316 0.0
H1958 H 0.42525 0.49863 0.85023 0.0
H1959 H 0.38714 0.5231 0.75622 0.0
H1960 H 0.40049 0.47873 0.65131 0.0
H1961 H 0.40244 0.50551 0.69957 0.0
H1962 H 0.4071 0.47463 0.83096 0.0
H1963 H 0.40562 0.44803 0.78242 0.0
C1964 C 0.41841 0.52505 0.86728 0.0
C1965 C 0.40873 0.5399 0.85416 0.0
C1966 C 0.41717 0.50963 0.83993 0.0
C1967 C 0.40607 0.50864 0.79908 0.0
C1968 C 0.39612 0.52344 0.78669 0.0
C1969 C 0.3975 0.53888 0.81373 0.0
C1970 C 0.4019 0.47774 0.6905 0.0
C1971 C 0.40306 0.4613 0.71295 0.0
C1972 C 0.40295 0.49306 0.71829 0.0
C1973 C 0.40496 0.49231 0.76935 0.0
C1974 C 0.40593 0.47579 0.79173 0.0
C1975 C 0.40507 0.4605 0.76388 0.0
H1976 H 0.30232 0.65215 0.50903 0.0
H1977 H 0.27182 0.66922 0.38623 0.0
H1978 H 0.27627 0.65181 0.56001 0.0
H1979 H 0.24573 0.67034 0.43758 0.0
H1980 H 0.19866 0.65407 0.5277 0.0
H1981 H 0.22461 0.65457 0.47612 0.0
H1982 H 0.25607 0.66735 0.60248 0.0
H1983 H 0.23009 0.66537 0.65388 0.0
C1984 C 0.28997 0.65615 0.49339 0.0
C1985 C 0.28894 0.66074 0.44399 0.0
C1986 C 0.275 0.65612 0.5226 0.0
C1987 C 0.25869 0.66115 0.50339 0.0
C1988 C 0.25786 0.66602 0.45378 0.0
C1989 C 0.27279 0.66555 0.42428 0.0
C1990 C 0.21119 0.65702 0.54402 0.0
C1991 C 0.21252 0.65969 0.59448 0.0
C1992 C 0.2261 0.65745 0.51454 0.0
C1993 C 0.24266 0.66102 0.53473 0.0
C1994 C 0.24376 0.66411 0.58541 0.0
C1995 C 0.22889 0.66317 0.61499 0.0
H1996 H 0.07265 0.52732 0.13974 0.0
H1997 H 0.10922 0.55123 0.23902 0.0
H1998 H 0.0738 0.50028 0.18689 0.0
H1999 H 0.11089 0.52417 0.28537 0.0
H2000 H 0.09207 0.44937 0.2576 0.0
H2001 H 0.09111 0.47591 0.20859 0.0
H2002 H 0.09454 0.50702 0.34005 0.0
H2003 H 0.09603 0.48037 0.38863 0.0
C2004 C 0.08114 0.52668 0.17121 0.0
C2005 C 0.09075 0.54141 0.18588 0.0
C2006 C 0.08184 0.51118 0.19829 0.0
C2007 C 0.09234 0.51001 0.24035 0.0
C2008 C 0.10232 0.52466 0.25403 0.0
C2009 C 0.10145 0.54017 0.22732 0.0
C2010 C 0.09245 0.46189 0.27597 0.0
C2011 C 0.09407 0.46282 0.32699 0.0
C2012 C 0.09189 0.47714 0.24788 0.0
C2013 C 0.09278 0.4937 0.27018 0.0
C2014 C 0.09419 0.49455 0.32138 0.0
C2015 C 0.09495 0.4793 0.34935 0.0
H2016 H 0.15992 0.25194 0.36062 0.0
H2017 H 0.11121 0.23265 0.30154 0.0
H2018 H 0.1481 0.28142 0.36099 0.0
H2019 H 0.10018 0.26212 0.29743 0.0
H2020 H 0.07567 0.31149 0.35411 0.0
H2021 H 0.08898 0.28267 0.35069 0.0
H2022 H 0.13901 0.30639 0.31862 0.0
H2023 H 0.12557 0.33533 0.32466 0.0
C2024 C 0.14681 0.25393 0.34701 0.0
C2025 C 0.13654 0.23968 0.33163 0.0
C2026 C 0.14009 0.27096 0.3466 0.0
C2027 C 0.12301 0.27424 0.33005 0.0
C2028 C 0.11319 0.26013 0.31185 0.0
C2029 C 0.11975 0.24313 0.31315 0.0
C2030 C 0.08951 0.31047 0.34639 0.0
C2031 C 0.0996 0.32557 0.3396 0.0
C2032 C 0.09717 0.29395 0.34396 0.0
C2033 C 0.11509 0.29205 0.33358 0.0
C2034 C 0.12523 0.30726 0.32718 0.0
C2035 C 0.11757 0.32385 0.33054 0.0
H2036 H 0.94087 0.82106 0.63504 0.0
H2037 H 0.91707 0.86932 0.58868 0.0
H2038 H 0.96963 0.8344 0.6291 0.0
H2039 H 0.94594 0.88268 0.58069 0.0
H2040 H 0.99961 0.90548 0.62383 0.0
H2041 H 0.97023 0.8934 0.62427 0.0
H2042 H 0.99052 0.84396 0.57302 0.0
H2043 H 0.0199 0.85549 0.57661 0.0
C2044 C 0.94187 0.83451 0.6231 0.0
C2045 C 0.92679 0.84415 0.61234 0.0
C2046 C 0.95835 0.84217 0.61928 0.0
C2047 C 0.96022 0.85961 0.60376 0.0
C2048 C 0.94505 0.8693 0.59325 0.0
C2049 C 0.9285 0.86167 0.5978 0.0
C2050 C 0.99784 0.89201 0.61283 0.0
C2051 C 0.0123 0.88146 0.60086 0.0
C2052 C 0.9809 0.88512 0.61248 0.0
C2053 C 0.97795 0.86757 0.5995 0.0
C2054 C 0.99228 0.85738 0.58455 0.0
C2055 C 0.00921 0.86417 0.58563 0.0
H2056 H 0.42866 0.69216 0.87857 0.0
H2057 H 0.38024 0.66804 0.83509 0.0
H2058 H 0.4152 0.72086 0.87347 0.0
H2059 H 0.36671 0.69693 0.82766 0.0
H2060 H 0.34436 0.75143 0.86613 0.0
H2061 H 0.35618 0.72191 0.86938 0.0
H2062 H 0.40576 0.74117 0.81634 0.0
H2063 H 0.39459 0.77062 0.81739 0.0
C2064 C 0.41512 0.69309 0.86748 0.0
C2065 C 0.40551 0.67795 0.85701 0.0
C2066 C 0.40739 0.70954 0.86412 0.0
C2067 C 0.38989 0.71134 0.84923 0.0
C2068 C 0.38016 0.6961 0.83956 0.0
C2069 C 0.38787 0.67955 0.84375 0.0
C2070 C 0.35782 0.7494 0.85541 0.0
C2071 C 0.36847 0.76362 0.84192 0.0
C2072 C 0.36455 0.73237 0.85671 0.0
C2073 C 0.38206 0.7291 0.84395 0.0
C2074 C 0.39237 0.74317 0.82779 0.0
C2075 C 0.38577 0.76016 0.82731 0.0
H2076 H 0.49458 0.12656 0.16897 0.0
H2077 H 0.49885 0.10708 0.02151 0.0
H2078 H 0.52361 0.13949 0.16246 0.0
H2079 H 0.52833 0.1199 1.01538 0.0
H2080 H 0.58847 0.13035 0.06987 0.0
H2081 H 0.55982 0.11577 0.06974 0.0
H2082 H 0.53483 0.16516 0.0998 0.0
H2083 H 0.56332 0.17971 0.09911 0.0
C2084 C 0.50189 0.1248 0.13542 0.0
C2085 C 0.49458 0.11569 0.09585 0.0
C2086 C 0.51841 0.1323 0.13165 0.0
C2087 C 0.52809 0.13066 0.08848 0.0
C2088 C 0.52105 0.12123 0.0491 0.0
C2089 C 0.50427 0.11397 0.05254 0.0
C2090 C 0.57681 0.13802 0.07635 0.0
C2091 C 0.57802 0.15611 0.08474 0.0
C2092 C 0.5605 0.12974 0.07582 0.0
C2093 C 0.54524 0.1394 0.08471 0.0
C2094 C 0.54646 0.15748 0.09283 0.0
C2095 C 0.56269 0.16578 0.09235 0.0
H2096 H 0.13844 0.75946 0.12416 0.0
H2097 H 0.13306 0.76221 0.28087 0.0
H2098 H 0.12697 0.72993 0.12471 0.0
H2099 H 0.12172 0.73231 0.28161 0.0
H2100 H 0.08101 0.68912 0.25328 0.0
H2101 H 0.09572 0.71715 0.25774 0.0
H2102 H 0.13215 0.70029 0.14675 0.0
H2103 H 0.11681 0.67254 0.14029 0.0
C2104 C 0.13522 0.75359 0.15897 0.0
C2105 C 0.13679 0.76318 0.20255 0.0
C2106 C 0.12862 0.73659 0.15927 0.0
C2107 C 0.12341 0.72867 0.20319 0.0
C2108 C 0.12537 0.73809 0.24702 0.0
C2109 C 0.13192 0.75519 0.24668 0.0
C2110 C 0.09204 0.69137 0.22944 0.0
C2111 C 0.09752 0.67853 0.19592 0.0
C2112 C 0.10069 0.70741 0.23261 0.0
C2113 C 0.11512 0.71105 0.20255 0.0
C2114 C 0.12092 0.69804 0.17001 0.0
C2115 C 0.11222 0.68202 0.16665 0.0
H2116 H 0.49958 0.88189 0.49349 0.0
H2117 H 0.4939 0.87209 0.33919 0.0
H2118 H 0.52928 0.86958 0.49057 0.0
H2119 H 0.52323 0.85957 0.33654 0.0
H2120 H 0.56529 0.81757 0.3756 0.0
H2121 H 0.53636 0.83109 0.38131 0.0
H2122 H 0.55963 0.87793 0.44035 0.0
H2123 H 0.58868 0.86445 0.4338 0.0
C2124 C 0.50472 0.87715 0.4591 0.0
C2125 C 0.4946 0.87802 0.41651 0.0
C2126 C 0.52164 0.87021 0.45739 0.0
C2127 C 0.52842 0.86367 0.41332 0.0
C2128 C 0.51824 0.86451 0.3709 0.0
C2129 C 0.50155 0.87174 0.3724 0.0
C2130 C 0.56417 0.83074 0.38981 0.0
C2131 C 0.57913 0.84003 0.40402 0.0
C2132 C 0.54771 0.83846 0.39296 0.0
C2133 C 0.54587 0.85549 0.41133 0.0
C2134 C 0.56077 0.86474 0.42629 0.0
C2135 C 0.57732 0.85713 0.42215 0.0
H2136 H 0.35156 0.24629 0.6423 0.0
H2137 H 0.37578 0.23601 0.782 0.0
H2138 H 0.36094 0.2762 0.64659 0.0
H2139 H 0.38709 0.26558 0.78313 0.0
H2140 H 0.39692 0.32378 0.78967 0.0
H2141 H 0.38297 0.29511 0.79219 0.0
H2142 H 0.38527 0.29268 0.6344 0.0
H2143 H 0.39799 0.32186 0.63272 0.0
C2144 C 0.35872 0.25031 0.67438 0.0
C2145 C 0.36282 0.23839 0.71185 0.0
C2146 C 0.36456 0.26757 0.67614 0.0
C2147 C 0.37519 0.27342 0.71459 0.0
C2148 C 0.37887 0.26173 0.75289 0.0
C2149 C 0.3726 0.24454 0.75182 0.0
C2150 C 0.39429 0.31702 0.75573 0.0
C2151 C 0.39847 0.32488 0.71099 0.0
C2152 C 0.3864 0.30054 0.75703 0.0
C2153 C 0.38291 0.29137 0.71353 0.0
C2154 C 0.38725 0.29937 0.66875 0.0
C2155 C 0.3947 0.31604 0.66754 0.0
H2156 H 0.9393 0.17622 0.99839 0.0
H2157 H 0.91834 0.13542 0.90644 0.0
H2158 H 0.96641 0.15972 1.00688 0.0
H2159 H 0.94512 0.11872 0.91632 0.0
H2160 H 0.00376 0.11256 0.87872 0.0
H2161 H 0.97447 0.12406 0.88354 0.0
H2162 H 0.98062 0.13246 0.03836 0.0
H2163 H 0.0102 0.12038 0.034 0.0
C2164 C 0.94039 0.16366 0.98045 0.0
C2165 C 0.92671 0.15726 0.95126 0.0
C2166 C 0.95583 0.1541 0.98586 0.0
C2167 C 0.95793 0.13797 0.96203 0.0
C2168 C 0.94395 0.1312 0.93474 0.0
C2169 C 0.92853 0.14073 0.92941 0.0
C2170 C 0.99881 0.11624 0.91429 0.0
C2171 C 0.00943 0.11534 0.9561 0.0
C2172 C 0.98194 0.12295 0.91693 0.0
C2173 C 0.97519 0.12914 0.96133 0.0
C2174 C 0.98554 0.1279 1.00354 0.0
C2175 C 0.00248 0.121 1.001 0.0
H2176 H 0.87994 0.66667 0.71507 0.0
H2177 H 0.92887 0.69063 0.67526 0.0
H2178 H 0.86634 0.69551 0.721 0.0
H2179 H 0.91533 0.71936 0.67863 0.0
H2180 H 0.89346 0.76955 0.72795 0.0
H2181 H 0.90494 0.74027 0.73234 0.0
H2182 H 0.85613 0.71984 0.67745 0.0
H2183 H 0.84393 0.74918 0.67762 0.0
C2184 C 0.88768 0.67815 0.70692 0.0
C2185 C 0.90544 0.67651 0.6949 0.0
C2186 C 0.87992 0.69468 0.7102 0.0
C2187 C 0.88973 0.70989 0.70078 0.0
C2188 C 0.90743 0.70807 0.68763 0.0
C2189 C 0.91521 0.6916 0.68526 0.0
C2190 C 0.88485 0.75887 0.71838 0.0
C2191 C 0.86766 0.76194 0.70232 0.0
C2192 C 0.89165 0.74198 0.71981 0.0
C2193 C 0.88167 0.72761 0.70412 0.0
C2194 C 0.86426 0.73052 0.6899 0.0
C2195 C 0.8573 0.74745 0.68938 0.0
H2196 H 0.99237 0.12239 0.51093 0.0
H2197 H 0.9939 0.1194 0.35356 0.0
H2198 H 0.02239 0.13346 0.51106 0.0
H2199 H 0.02356 0.13041 0.35367 0.0
H2200 H 0.08154 0.13755 0.36827 0.0
H2201 H 0.05316 0.12334 0.37457 0.0
H2202 H 0.03812 0.15971 0.48772 0.0
H2203 H 0.06673 0.17337 0.48306 0.0
C2204 C 0.99912 0.124 0.47647 0.0
C2205 C 0.99079 0.11979 0.43234 0.0
C2206 C 0.01629 0.13038 0.47649 0.0
C2207 C 0.02543 0.13275 0.43235 0.0
C2208 C 0.0171 0.12838 0.38839 0.0
C2209 C 1.00004 0.12202 0.38838 0.0
C2210 C 0.07229 0.14237 0.39496 0.0
C2211 C 0.07645 0.15672 0.42484 0.0
C2212 C 0.05594 0.13432 0.39828 0.0
C2213 C 0.0433 0.14043 0.43149 0.0
C2214 C 0.04757 0.15454 0.46206 0.0
C2215 C 0.06393 0.16257 0.45881 0.0
H2216 H 0.62563 0.2408 0.24675 0.0
H2217 H 0.64814 0.25168 0.10512 0.0
H2218 H 0.61524 0.27063 0.25157 0.0
H2219 H 0.63941 0.28192 0.11238 0.0
H2220 H 0.60131 0.32804 0.10956 0.0
H2221 H 0.615 0.29927 0.10563 0.0
H2222 H 0.62108 0.29978 0.2627 0.0
H2223 H 0.60629 0.32797 0.266 0.0
C2224 C 0.6286 0.24956 0.21687 0.0
C2225 C 0.63762 0.24358 0.17534 0.0
C2226 C 0.62288 0.26687 0.22002 0.0
C2227 C 0.62635 0.27885 0.18221 0.0
C2228 C 0.63611 0.27308 0.1418 0.0
C2229 C 0.64148 0.25569 0.13814 0.0
C2230 C 0.60577 0.32195 0.14295 0.0
C2231 C 0.60266 0.33 0.18803 0.0
C2232 C 0.61371 0.3055 0.1409 0.0
C2233 C 0.6191 0.29697 0.18395 0.0
C2234 C 0.6167 0.30559 0.22887 0.0
C2235 C 0.60838 0.32181 0.23088 0.0
H2236 H 0.44072 0.82406 0.89481 0.0
H2237 H 0.41844 0.87298 0.9423 0.0
H2238 H 0.46981 0.83734 0.89416 0.0
H2239 H 0.44771 0.88627 0.9425 0.0
H2240 H 0.50873 0.89073 0.98914 0.0
H2241 H 0.47864 0.87933 0.9919 0.0
H2242 H 0.48287 0.86381 0.84096 0.0
H2243 H 0.51258 0.87537 0.83791 0.0
C2244 C 0.44211 0.83764 0.9053 0.0
C2245 C 0.4274 0.84754 0.91839 0.0
C2246 C 0.45869 0.84523 0.90482 0.0
C2247 C 0.46093 0.86279 0.91837 0.0
C2248 C 0.44628 0.87268 0.93213 0.0
C2249 C 0.42959 0.86516 0.9316 0.0
C2250 C 0.5031 0.88502 0.95659 0.0
C2251 C 0.51286 0.88405 0.91323 0.0
C2252 C 0.48594 0.87859 0.95808 0.0
C2253 C 0.47854 0.87072 0.9166 0.0
C2254 C 0.48832 0.8698 0.87339 0.0
C2255 C 0.50524 0.8765 0.87161 0.0
H2256 H 0.88632 0.34007 0.80659 0.0
H2257 H 0.93425 0.31275 0.83917 0.0
H2258 H 0.87174 0.31215 0.79211 0.0
H2259 H 0.91979 0.28502 0.82492 0.0
H2260 H 0.89403 0.23675 0.77614 0.0
H2261 H 0.90636 0.26585 0.7662 0.0
H2262 H 0.86215 0.28795 0.84248 0.0
H2263 H 0.84939 0.25893 0.8503 0.0
C2264 C 0.89376 0.32814 0.81053 0.0
C2265 C 0.91144 0.32866 0.82443 0.0
C2266 C 0.88542 0.31214 0.80211 0.0
C2267 C 0.89457 0.29633 0.80737 0.0
C2268 C 0.9124 0.29693 0.81959 0.0
C2269 C 0.92071 0.31288 0.82793 0.0
C2270 C 0.88663 0.24786 0.78934 0.0
C2271 C 0.87082 0.24547 0.81464 0.0
C2272 C 0.89383 0.26454 0.78421 0.0
C2273 C 0.88543 0.2792 0.80441 0.0
C2274 C 0.86898 0.27697 0.82642 0.0
C2275 C 0.86174 0.26029 0.83138 0.0
H2276 H 0.499 0.09595 0.60429 0.0
H2277 H 0.51777 0.14717 0.56276 0.0
H2278 H 0.46961 0.10766 0.61217 0.0
H2279 H 0.48833 0.15835 0.56613 0.0
H2280 H 0.43962 0.17961 0.63657 0.0
H2281 H 0.46839 0.1667 0.62544 0.0
H2282 H 0.44434 0.11877 0.57524 0.0
H2283 H 0.41552 0.13165 0.58885 0.0
C2284 C 0.49689 0.10963 0.59609 0.0
C2285 C 0.51097 0.12057 0.58336 0.0
C2286 C 0.47992 0.11631 0.60002 0.0
C2287 C 0.47653 0.13407 0.59059 0.0
C2288 C 0.49043 0.14473 0.57506 0.0
C2289 C 0.5074 0.13815 0.57201 0.0
C2290 C 0.44056 0.16631 0.62326 0.0
C2291 C 0.42541 0.15662 0.61362 0.0
C2292 C 0.45704 0.15891 0.61641 0.0
C2293 C 0.45881 0.1417 0.59873 0.0
C2294 C 0.44356 0.13196 0.58942 0.0
C2295 C 0.42703 0.13931 0.59714 0.0
H2296 H 0.61012 0.76806 0.28605 0.0
H2297 H 0.65984 0.74565 0.327 0.0
H2298 H 0.59731 0.73925 0.28379 0.0
H2299 H 0.64647 0.71672 0.32842 0.0
H2300 H 0.61871 0.66466 0.29887 0.0
H2301 H 0.63325 0.69273 0.2852 0.0
H2302 H 0.58822 0.71945 0.3445 0.0
H2303 H 0.57376 0.69162 0.357 0.0
C2304 C 0.6185 0.75702 0.29373 0.0
C2305 C 0.63612 0.75936 0.30685 0.0
C2306 C 0.61097 0.74042 0.29337 0.0
C2307 C 0.62071 0.72565 0.30701 0.0
C2308 C 0.63855 0.72779 0.3177 0.0
C2309 C 0.64618 0.74444 0.31743 0.0
C2310 C 0.61197 0.67657 0.30883 0.0
C2311 C 0.59504 0.67593 0.32873 0.0
C2312 C 0.62029 0.69266 0.30108 0.0
C2313 C 0.61189 0.70842 0.31334 0.0
C2314 C 0.59496 0.70767 0.33333 0.0
C2315 C 0.58664 0.69167 0.34067 0.0
H2316 H 0.08815 0.87454 0.10361 0.0
H2317 H 0.06319 0.82589 0.14144 0.0
H2318 H 0.05953 0.88798 0.0906 0.0
H2319 H 0.03465 0.83928 0.13072 0.0
H2320 H 0.98619 0.86011 0.06734 0.0
H2321 H 0.01565 0.84896 0.07032 0.0
H2322 H 0.03371 0.89834 0.12802 0.0
H2323 H 0.00431 0.91012 0.12089 0.0
C2324 C 0.07649 0.86684 0.1099 0.0
C2325 C 0.07781 0.84918 0.12331 0.0
C2326 C 0.06009 0.8745 0.10247 0.0
C2327 C 0.04468 0.86469 0.10892 0.0
C2328 C 0.04615 0.84715 0.12384 0.0
C2329 C 0.06249 0.83947 0.13047 0.0
C2330 C 0.99643 0.86889 0.07912 0.0
C2331 C 0.99266 0.88608 0.09411 0.0
C2332 C 0.0134 0.8623 0.08188 0.0
C2333 C 0.02709 0.87255 0.10066 0.0
C2334 C 0.02355 0.89001 0.11342 0.0
C2335 C 0.00658 0.89672 0.10987 0.0
H2336 H 0.57515 0.80999 0.864 0.0
H2337 H 0.62381 0.83463 0.82464 0.0
H2338 H 0.58902 0.78143 0.85992 0.0
H2339 H 0.63775 0.80594 0.81847 0.0
H2340 H 0.66034 0.75199 0.86088 0.0
H2341 H 0.648 0.78132 0.86229 0.0
H2342 H 0.59964 0.76114 0.80373 0.0
H2343 H 0.61129 0.73187 0.80633 0.0
C2344 C 0.58882 0.80922 0.85405 0.0
C2345 C 0.59839 0.82447 0.84455 0.0
C2346 C 0.59678 0.79285 0.85131 0.0
C2347 C 0.6145 0.79127 0.83809 0.0
C2348 C 0.62415 0.80662 0.82918 0.0
C2349 C 0.61619 0.82305 0.83267 0.0
C2350 C 0.64705 0.75379 0.84846 0.0
C2351 C 0.63685 0.73937 0.83388 0.0
C2352 C 0.64002 0.77069 0.84873 0.0
C2353 C 0.62268 0.77364 0.83389 0.0
C2354 C 0.61287 0.75938 0.81669 0.0
C2355 C 0.61977 0.74251 0.81715 0.0
H2356 H 0.41302 0.36387 0.10864 0.0
H2357 H 0.43739 0.31619 0.15727 0.0
H2358 H 0.44177 0.37731 0.09836 0.0
H2359 H 0.46605 0.32963 0.14904 0.0
H2360 H 0.51583 0.35068 0.09089 0.0
H2361 H 0.48649 0.33876 0.09081 0.0
H2362 H 0.46625 0.38848 0.14015 0.0
H2363 H 0.49547 0.40082 0.13639 0.0
C2364 C 0.42456 0.35639 0.11781 0.0
C2365 C 0.42305 0.339 0.13358 0.0
C2366 C 0.44104 0.36405 0.11194 0.0
C2367 C 0.45633 0.35452 0.12235 0.0
C2368 C 0.45466 0.33724 0.13927 0.0
C2369 C 0.43824 0.32955 0.14442 0.0
C2370 C 0.50511 0.35926 0.10035 0.0
C2371 C 0.50814 0.37672 0.11401 0.0
C2372 C 0.48825 0.3523 0.10123 0.0
C2373 C 0.47396 0.36252 0.1165 0.0
C2374 C 0.47687 0.38019 0.1281 0.0
C2375 C 0.49372 0.38722 0.12654 0.0
H2376 H 0.8946 0.27271 0.32792 0.0
H2377 H 0.84546 0.25364 0.3849 0.0
H2378 H 0.90581 0.24321 0.32604 0.0
H2379 H 0.85732 0.22413 0.3869 0.0
H2380 H 0.88006 0.17026 0.34815 0.0
H2381 H 0.86675 0.19926 0.34288 0.0
H2382 H 0.91628 0.22266 0.38154 0.0
H2383 H 0.92951 0.19379 0.38471 0.0
C2384 C 0.88604 0.26225 0.33954 0.0
C2385 C 0.86905 0.26573 0.35662 0.0
C2386 C 0.89266 0.24526 0.33945 0.0
C2387 C 0.88265 0.23123 0.35729 0.0
C2388 C 0.86544 0.23455 0.37277 0.0
C2389 C 0.85869 0.25157 0.37218 0.0
C2390 C 0.88799 0.18166 0.35581 0.0
C2391 C 0.90583 0.17984 0.36657 0.0
C2392 C 0.88039 0.19828 0.35283 0.0
C2393 C 0.89045 0.21341 0.36119 0.0
C2394 C 0.9082 0.21142 0.3734 0.0
C2395 C 0.9158 0.19487 0.37562 0.0
H2396 H 0.99462 0.61356 0.69622 0.0
H2397 H 0.99104 0.61777 0.53946 0.0
H2398 H 0.02442 0.62432 0.69342 0.0
H2399 H 0.02119 0.62826 0.53636 0.0
H2400 H 0.0653 0.66806 0.55792 0.0
H2401 H 0.03697 0.65399 0.55696 0.0
H2402 H 0.05382 0.61881 0.67076 0.0
H2403 H 0.08192 0.6336 0.6738 0.0
C2404 C 1.00037 0.61636 0.66094 0.0
C2405 C 0.99047 0.61474 0.618 0.0
C2406 C 0.01752 0.62255 0.65933 0.0
C2407 C 0.02527 0.62722 0.61469 0.0
C2408 C 0.01555 0.62507 0.5715 0.0
C2409 C 0.99831 0.61899 0.57317 0.0
C2410 C 0.063 0.65746 0.58317 0.0
C2411 C 0.07597 0.65218 0.61639 0.0
C2412 C 0.04676 0.64916 0.58201 0.0
C2413 C 0.04303 0.63523 0.61376 0.0
C2414 C 0.05612 0.62964 0.64619 0.0
C2415 C 0.07236 0.63803 0.64758 0.0
H2416 H 0.57114 0.19189 0.64226 0.0
H2417 H 0.62046 0.16919 0.68334 0.0
H2418 H 0.58352 0.22103 0.64989 0.0
H2419 H 0.63289 0.19845 0.6934 0.0
H2420 H 0.6535 0.25381 0.66018 0.0
H2421 H 0.64253 0.22405 0.65421 0.0
H2422 H 0.59231 0.24131 0.70798 0.0
H2423 H 0.60271 0.27113 0.70973 0.0
C2424 C 0.58465 0.19322 0.65327 0.0
C2425 C 0.59484 0.17835 0.66228 0.0
C2426 C 0.59175 0.20992 0.65813 0.0
C2427 C 0.60918 0.21223 0.67313 0.0
C2428 C 0.61949 0.19726 0.68139 0.0
C2429 C 0.6124 0.18048 0.67567 0.0
C2430 C 0.64007 0.2513 0.67044 0.0
C2431 C 0.629 0.26507 0.6849 0.0
C2432 C 0.63383 0.23412 0.66761 0.0
C2433 C 0.61641 0.23021 0.67983 0.0
C2434 C 0.60566 0.24382 0.69691 0.0
C2435 C 0.61179 0.261 0.69896 0.0
H2436 H 0.99479 0.37625 1.01628 0.0
H2437 H 1.00093 0.39917 0.87293 0.0
H2438 H 0.02433 0.3652 1.01177 0.0
H2439 H 0.03098 0.39007 0.8713 0.0
H2440 H 0.076 0.35196 0.85076 0.0
H2441 H 0.04744 0.36588 0.8573 0.0
H2442 H 0.05382 0.36915 1.01409 0.0
H2443 H 0.08172 0.35396 1.00681 0.0
C2444 C 0.00242 0.37921 0.98407 0.0
C2445 C 0.99509 0.38849 0.94478 0.0
C2446 C 0.01963 0.37311 0.98185 0.0
C2447 C 0.03022 0.37649 0.94082 0.0
C2448 C 0.02322 0.38669 0.90296 0.0
C2449 C 0.0059 0.39235 0.90454 0.0
C2450 C 0.07119 0.3558 0.88637 0.0
C2451 C 0.08081 0.35185 0.92827 0.0
C2452 C 0.05488 0.36392 0.89036 0.0
C2453 C 0.04808 0.36871 0.93639 0.0
C2454 C 0.05825 0.36531 0.97813 0.0
C2455 C 0.07431 0.35675 0.97411 0.0
H2456 H 0.88279 0.83812 0.20295 0.0
H2457 H 0.92955 0.81187 0.15475 0.0
H2458 H 0.86867 0.80987 0.21674 0.0
H2459 H 0.91542 0.78369 0.16628 0.0
H2460 H 0.89416 0.73546 0.23059 0.0
H2461 H 0.90635 0.76451 0.22718 0.0
H2462 H 0.85658 0.78483 0.1793 0.0
H2463 H 0.84384 0.75581 0.18702 0.0
C2464 C 0.88992 0.82627 0.1946 0.0
C2465 C 0.90726 0.82711 0.17796 0.0
C2466 C 0.88186 0.81008 0.20245 0.0
C2467 C 0.89093 0.7944 0.19322 0.0
C2468 C 0.90815 0.7954 0.17527 0.0
C2469 C 0.91625 0.81153 0.16821 0.0
C2470 C 0.88554 0.74611 0.22097 0.0
C2471 C 0.86793 0.74309 0.20895 0.0
C2472 C 0.89271 0.76284 0.21791 0.0
C2473 C 0.88261 0.77704 0.20175 0.0
C2474 C 0.8648 0.77425 0.19188 0.0
C2475 C 0.85752 0.75751 0.19576 0.0
H2476 H 0.42013 0.63473 0.37446 0.0
H2477 H 0.43419 0.66381 0.50384 0.0
H2478 H 0.44822 0.61991 0.37665 0.0
H2479 H 0.46258 0.64972 0.50442 0.0
H2480 H 0.50867 0.61285 0.51368 0.0
H2481 H 0.47838 0.62299 0.51715 0.0
H2482 H 0.47783 0.62751 0.35998 0.0
H2483 H 0.50774 0.61728 0.35659 0.0
C2484 C 0.42912 0.63793 0.40351 0.0
C2485 C 0.42486 0.65064 0.43865 0.0
C2486 C 0.44534 0.62954 0.40449 0.0
C2487 C 0.45775 0.63371 0.44049 0.0
C2488 C 0.45331 0.64605 0.4764 0.0
C2489 C 0.43707 0.65437 0.47557 0.0
C2490 C 0.50198 0.61588 0.47994 0.0
C2491 C 0.51058 0.61412 0.43489 0.0
C2492 C 0.48465 0.62174 0.48188 0.0
C2493 C 0.47563 0.62607 0.43881 0.0
C2494 C 0.48418 0.62396 0.39381 0.0
C2495 C 0.5014 0.61806 0.39188 0.0
H2496 H 0.39122 0.1642 0.24631 0.0
H2497 H 0.43202 0.19066 0.16641 0.0
H2498 H 0.37541 0.19199 0.25479 0.0
H2499 H 0.41629 0.21823 0.17479 0.0
H2500 H 0.3709 0.25479 0.13603 0.0
H2501 H 0.3859 0.22677 0.13706 0.0
H2502 H 0.38058 0.22451 0.29369 0.0
H2503 H 0.36549 0.25294 0.29284 0.0
C2504 C 0.39683 0.17596 0.23092 0.0
C2505 C 0.41281 0.17529 0.20555 0.0
C2506 C 0.38788 0.19182 0.23608 0.0
C2507 C 0.39462 0.20715 0.21518 0.0
C2508 C 0.41079 0.20654 0.19098 0.0
C2509 C 0.41984 0.1908 0.18649 0.0
C2510 C 0.37261 0.24821 0.17068 0.0
C2511 C 0.36686 0.25597 0.21435 0.0
C2512 C 0.38137 0.23227 0.17126 0.0
C2513 C 0.38446 0.22359 0.21545 0.0
C2514 C 0.37829 0.23099 0.25917 0.0
C2515 C 0.36972 0.24719 0.25869 0.0
H2516 H 0.50297 0.59627 0.92074 0.0
H2517 H 0.48407 0.64709 0.96541 0.0
H2518 H 0.53248 0.60792 0.91561 0.0
H2519 H 0.51362 0.65826 0.96416 0.0
H2520 H 0.56255 0.67977 0.89497 0.0
H2521 H 0.53376 0.66674 0.90441 0.0
H2522 H 0.55757 0.61892 0.9557 0.0
H2523 H 0.58647 0.63196 0.94433 0.0
C2524 C 0.50509 0.60985 0.93018 0.0
C2525 C 0.49096 0.62074 0.94288 0.0
C2526 C 0.52211 0.6165 0.9278 0.0
C2527 C 0.52548 0.63416 0.93862 0.0
C2528 C 0.51151 0.64473 0.95423 0.0
C2529 C 0.4945 0.63817 0.95595 0.0
C2530 C 0.56158 0.66647 0.90819 0.0
C2531 C 0.5767 0.65688 0.91894 0.0
C2532 C 0.54508 0.65901 0.91404 0.0
C2533 C 0.54323 0.64182 0.93158 0.0
C2534 C 0.55844 0.63212 0.94172 0.0
C2535 C 0.575 0.63956 0.9352 0.0
H2536 H 0.08231 0.81485 0.75787 0.0
H2537 H 0.11717 0.83168 0.643 0.0
H2538 H 0.0963 0.78641 0.7586 0.0
H2539 H 0.13182 0.80347 0.64561 0.0
H2540 H 0.13614 0.74437 0.6176 0.0
H2541 H 0.12547 0.77417 0.62162 0.0
H2542 H 0.1222 0.77041 0.77871 0.0
H2543 H 0.13273 0.74026 0.77448 0.0
C2544 C 0.09299 0.81255 0.73285 0.0
C2545 C 0.09841 0.82558 0.6999 0.0
C2546 C 0.10123 0.79627 0.73384 0.0
C2547 C 0.11518 0.79258 0.7021 0.0
C2548 C 0.12095 0.80577 0.67013 0.0
C2549 C 0.11266 0.82205 0.66898 0.0
C2550 C 0.13351 0.74998 0.65315 0.0
C2551 C 0.13539 0.73995 0.69579 0.0
C2552 C 0.12737 0.76713 0.65545 0.0
C2553 C 0.12298 0.77476 0.70048 0.0
C2554 C 0.12523 0.76487 0.74333 0.0
C2555 C 0.13131 0.74762 0.74099 0.0
H2556 H 0.92738 0.35468 0.51126 0.0
H2557 H 0.92729 0.35166 0.35442 0.0
H2558 H 0.9563 0.36798 0.50967 0.0
H2559 H 0.95678 0.36378 0.35207 0.0
H2560 H 0.00508 0.39603 0.35507 0.0
H2561 H 0.97483 0.3874 0.36068 0.0
H2562 H 0.98529 0.36212 0.49867 0.0
H2563 H 0.01513 0.37251 0.49575 0.0
C2564 C 0.93374 0.35677 0.47642 0.0
C2565 C 0.92528 0.35214 0.43296 0.0
C2566 C 0.95038 0.36427 0.47537 0.0
C2567 C 0.95916 0.36689 0.43076 0.0
C2568 C 0.95046 0.36235 0.38717 0.0
C2569 C 0.9336 0.35527 0.3883 0.0
C2570 C 1.00091 0.38914 0.38751 0.0
C2571 C 0.0128 0.38505 0.425 0.0
C2572 C 0.98349 0.38379 0.39017 0.0
C2573 C 0.97745 0.37378 0.42978 0.0
C2574 C 0.98924 0.36996 0.46772 0.0
C2575 C 0.00657 0.37569 0.46563 0.0
H2576 H 0.42822 0.81226 0.32327 0.0
H2577 H 0.38124 0.83566 0.38192 0.0
H2578 H 0.41391 0.78402 0.32145 0.0
H2579 H 0.36712 0.80703 0.3814 0.0
H2580 H 0.36066 0.74775 0.42789 0.0
H2581 H 0.37134 0.77769 0.42466 0.0
H2582 H 0.38879 0.76949 0.27662 0.0
H2583 H 0.3776 0.73962 0.27897 0.0
C2584 C 0.4148 0.81152 0.33539 0.0
C2585 C 0.4059 0.82645 0.35229 0.0
C2586 C 0.4066 0.79524 0.33434 0.0
C2587 C 0.38935 0.79336 0.35076 0.0
C2588 C 0.38046 0.80812 0.36856 0.0
C2589 C 0.38861 0.82452 0.36907 0.0
C2590 C 0.3663 0.7524 0.39406 0.0
C2591 C 0.36829 0.74116 0.35367 0.0
C2592 C 0.3725 0.76958 0.3924 0.0
C2593 C 0.38101 0.77586 0.35057 0.0
C2594 C 0.38248 0.76489 0.30961 0.0
C2595 C 0.37612 0.74776 0.31105 0.0
H2596 H 0.99754 0.59829 0.12158 0.0
H2597 H 0.01661 0.64889 0.07549 0.0
H2598 H 0.9681 0.61005 0.12642 0.0
H2599 H 0.98713 0.66007 0.07591 0.0
H2600 H 0.93852 0.68228 0.14425 0.0
H2601 H 0.9672 0.66906 0.13482 0.0
H2602 H 0.94296 0.62087 0.08739 0.0
H2603 H 0.91417 0.63411 0.09923 0.0
C2604 C 0.99549 0.61183 0.11175 0.0
C2605 C 0.00966 0.62263 0.09887 0.0
C2606 C 0.9785 0.61853 0.11391 0.0
C2607 C 0.9752 0.63614 0.10249 0.0
C2608 C 0.98919 0.64658 0.08642 0.0
C2609 C 0.00617 0.64 0.08512 0.0
C2610 C 0.93939 0.66885 0.13191 0.0
C2611 C 0.92421 0.6592 0.12245 0.0
C2612 C 0.95582 0.66128 0.12602 0.0
C2613 C 0.95751 0.64393 0.10953 0.0
C2614 C 0.94222 0.63419 0.10056 0.0
C2615 C 0.92573 0.64173 0.1073 0.0
H2616 H 0.15384 0.24838 0.84018 0.0
H2617 H 0.10268 0.27125 0.82047 0.0
H2618 H 0.14068 0.21933 0.8401 0.0
H2619 H 0.08993 0.24246 0.8164 0.0
H2620 H 0.06915 0.19214 0.8799 0.0
H2621 H 0.0831 0.22045 0.87257 0.0
H2622 H 0.12618 0.19671 0.79483 0.0
H2623 H 0.11221 0.16808 0.80355 0.0
C2624 C 0.13987 0.24727 0.83517 0.0
C2625 C 0.12941 0.26232 0.83052 0.0
C2626 C 0.13233 0.23057 0.83449 0.0
C2627 C 0.11418 0.2285 0.8288 0.0
C2628 C 0.10389 0.2435 0.82193 0.0
C2629 C 0.11134 0.26012 0.82329 0.0
C2630 C 0.08146 0.19297 0.86062 0.0
C2631 C 0.0895 0.17789 0.84198 0.0
C2632 C 0.0895 0.20925 0.8563 0.0
C2633 C 0.10574 0.21098 0.83263 0.0
C2634 C 0.11378 0.19587 0.81371 0.0
C2635 C 0.10576 0.17948 0.81852 0.0
H2636 H 0.48331 0.37114 0.54947 0.0
H2637 H 0.4931 0.39597 0.68863 0.0
H2638 H 0.51342 0.36152 0.54644 0.0
H2639 H 0.52356 0.38798 0.68301 0.0
H2640 H 0.57169 0.35288 0.68989 0.0
H2641 H 0.54202 0.36454 0.69229 0.0
H2642 H 0.54229 0.36841 0.53469 0.0
H2643 H 0.57145 0.35568 0.533 0.0
C2644 C 0.49187 0.37476 0.57921 0.0
C2645 C 0.48552 0.38427 0.61946 0.0
C2646 C 0.50933 0.36947 0.57707 0.0
C2647 C 0.52111 0.37386 0.6146 0.0
C2648 C 0.51492 0.38398 0.65384 0.0
C2649 C 0.49738 0.38893 0.65652 0.0
C2650 C 0.56532 0.35635 0.65601 0.0
C2651 C 0.57367 0.35326 0.61132 0.0
C2652 C 0.54835 0.36314 0.65718 0.0
C2653 C 0.53954 0.3674 0.6136 0.0
C2654 C 0.54833 0.36489 0.56897 0.0
C2655 C 0.56509 0.35771 0.56787 0.0
loop_
_geom_bond_atom_site_label_1
_geom_bond_atom_site_label_2
_geom_bond_distance
_geom_bond_site_symmetry_2
_ccdc_geom_bond_type
C0 C1 1.351 . S
C0 N3 1.368 . S
C0 H5 0.931 . S
C1 C0 1.351 . S
C1 N2 1.373 . S
C1 H29 0.930 . S
N2 C1 1.373 . S
N2 C4 1.340 . S
N3 C0 1.368 . S
N3 C4 1.321 . S
N3 Co6 2.135 . S
C4 N2 1.340 . S
C4 N3 1.321 . S
C4 H28 0.930 . S
H5 C0 0.931 . S
Co6 N3 2.135 . S
Co6 N9 2.121 . S
Co6 O14 2.055 . S
Co6 O17 2.039 . S
Co6 N20 2.140 . S
C7 O8 1.227 . S
C7 O17 1.265 . S
O8 C7 1.227 . S
N9 Co6 2.121 . S
N9 C11 1.375 . S
N9 C12 1.313 . S
C10 C11 1.338 . S
C10 N13 1.377 . S
C10 H30 0.930 . S
C11 N9 1.375 . S
C11 C10 1.338 . S
C11 H15 0.931 . S
C12 N9 1.313 . S
C12 N13 1.344 . S
C12 H16 0.930 . S
N13 C10 1.377 . S
N13 C12 1.344 . S
O14 Co6 2.055 . S
O14 C18 1.253 . S
H15 C11 0.931 . S
H16 C12 0.930 . S
O17 Co6 2.039 . S
O17 C7 1.265 . S
C18 O14 1.253 . S
C18 O19 1.227 . S
O19 C18 1.227 . S
N20 Co6 2.140 . S
N20 C23 1.346 . S
N20 C24 1.345 . S
C21 C22 1.387 . S
C21 C25 1.391 . S
C22 C21 1.387 . S
C22 C23 1.369 . S
C22 H31 0.929 . S
C23 N20 1.346 . S
C23 C22 1.369 . S
C23 H26 0.928 . S
C24 N20 1.345 . S
C24 C25 1.371 . S
C24 H27 0.931 . S
C25 C21 1.391 . S
C25 C24 1.371 . S
C25 H32 0.930 . S
H26 C23 0.928 . S
H27 C24 0.931 . S
H28 C4 0.930 . S
H29 C1 0.930 . S
H30 C10 0.930 . S
H31 C22 0.929 . S
H32 C25 0.930 . S
C33 C34 1.351 . S
C33 N36 1.368 . S
C33 H38 0.931 . S
C34 C33 1.351 . S
C34 N35 1.373 . S
C34 H62 0.930 . S
N35 C34 1.373 . S
N35 C37 1.340 . S
N36 C33 1.368 . S
N36 C37 1.321 . S
N36 Co39 2.135 . S
C37 N35 1.340 . S
C37 N36 1.321 . S
C37 H61 0.930 . S
H38 C33 0.931 . S
Co39 N36 2.135 . S
Co39 N42 2.121 . S
Co39 O47 2.055 . S
Co39 O50 2.039 . S
Co39 N53 2.140 . S
C40 O41 1.227 . S
C40 O50 1.265 . S
O41 C40 1.227 . S
N42 Co39 2.121 . S
N42 C44 1.375 . S
N42 C45 1.313 . S
C43 C44 1.338 . S
C43 N46 1.377 . S
C43 H63 0.930 . S
C44 N42 1.375 . S
C44 C43 1.338 . S
C44 H48 0.931 . S
C45 N42 1.313 . S
C45 N46 1.344 . S
C45 H49 0.930 . S
N46 C43 1.377 . S
N46 C45 1.344 . S
O47 Co39 2.055 . S
O47 C51 1.253 . S
H48 C44 0.931 . S
H49 C45 0.930 . S
O50 Co39 2.039 . S
O50 C40 1.265 . S
C51 O47 1.253 . S
C51 O52 1.227 . S
O52 C51 1.227 . S
N53 Co39 2.140 . S
N53 C56 1.346 . S
N53 C57 1.345 . S
C54 C55 1.387 . S
C54 C58 1.391 . S
C55 C54 1.387 . S
C55 C56 1.369 . S
C55 H64 0.929 . S
C56 N53 1.346 . S
C56 C55 1.369 . S
C56 H59 0.928 . S
C57 N53 1.345 . S
C57 C58 1.371 . S
C57 H60 0.931 . S
C58 C54 1.391 . S
C58 C57 1.371 . S
C58 H65 0.930 . S
H59 C56 0.928 . S
H60 C57 0.931 . S
H61 C37 0.930 . S
H62 C34 0.930 . S
H63 C43 0.930 . S
H64 C55 0.929 . S
H65 C58 0.930 . S
C66 C67 1.351 . S
C66 N69 1.368 . S
C66 H71 0.931 . S
C67 C66 1.351 . S
C67 N68 1.373 . S
C67 H95 0.930 . S
N68 C67 1.373 . S
N68 C70 1.340 . S
N69 C66 1.368 . S
N69 C70 1.321 . S
N69 Co72 2.135 . S
C70 N68 1.340 . S
C70 N69 1.321 . S
C70 H94 0.930 . S
H71 C66 0.931 . S
Co72 N69 2.135 . S
Co72 N75 2.121 . S
Co72 O80 2.055 . S
Co72 O83 2.039 . S
Co72 N86 2.140 . S
C73 O74 1.227 . S
C73 O83 1.265 . S
O74 C73 1.227 . S
N75 Co72 2.121 . S
N75 C77 1.375 . S
N75 C78 1.313 . S
C76 C77 1.338 . S
C76 N79 1.377 . S
C76 H96 0.930 . S
C77 N75 1.375 . S
C77 C76 1.338 . S
C77 H81 0.931 . S
C78 N75 1.313 . S
C78 N79 1.344 . S
C78 H82 0.930 . S
N79 C76 1.377 . S
N79 C78 1.344 . S
O80 Co72 2.055 . S
O80 C84 1.253 . S
H81 C77 0.931 . S
H82 C78 0.930 . S
O83 Co72 2.039 . S
O83 C73 1.265 . S
C84 O80 1.253 . S
C84 O85 1.227 . S
O85 C84 1.227 . S
N86 Co72 2.140 . S
N86 C89 1.346 . S
N86 C90 1.345 . S
C87 C88 1.387 . S
C87 C91 1.391 . S
C88 C87 1.387 . S
C88 C89 1.369 . S
C88 H97 0.929 . S
C89 N86 1.346 . S
C89 C88 1.369 . S
C89 H92 0.928 . S
C90 N86 1.345 . S
C90 C91 1.371 . S
C90 H93 0.931 . S
C91 C87 1.391 . S
C91 C90 1.371 . S
C91 H98 0.930 . S
H92 C89 0.928 . S
H93 C90 0.931 . S
H94 C70 0.930 . S
H95 C67 0.930 . S
H96 C76 0.930 . S
H97 C88 0.929 . S
H98 C91 0.930 . S
C99 C100 1.351 . S
C99 N102 1.368 . S
C99 H104 0.931 . S
C100 C99 1.351 . S
C100 N101 1.373 . S
C100 H128 0.930 . S
N101 C100 1.373 . S
N101 C103 1.340 . S
N102 C99 1.368 . S
N102 C103 1.321 . S
N102 Co105 2.135 . S
C103 N101 1.340 . S
C103 N102 1.321 . S
C103 H127 0.930 . S
H104 C99 0.931 . S
Co105 N102 2.135 . S
Co105 N108 2.121 . S
Co105 O113 2.055 . S
Co105 O116 2.039 . S
Co105 N119 2.140 . S
C106 O107 1.227 . S
C106 O116 1.265 . S
O107 C106 1.227 . S
N108 Co105 2.121 . S
N108 C110 1.375 . S
N108 C111 1.313 . S
C109 C110 1.338 . S
C109 N112 1.377 . S
C109 H129 0.930 . S
C110 N108 1.375 . S
C110 C109 1.338 . S
C110 H114 0.931 . S
C111 N108 1.313 . S
C111 N112 1.344 . S
C111 H115 0.930 . S
N112 C109 1.377 . S
N112 C111 1.344 . S
O113 Co105 2.055 . S
O113 C117 1.253 . S
H114 C110 0.931 . S
H115 C111 0.930 . S
O116 Co105 2.039 . S
O116 C106 1.265 . S
C117 O113 1.253 . S
C117 O118 1.227 . S
O118 C117 1.227 . S
N119 Co105 2.140 . S
N119 C122 1.346 . S
N119 C123 1.345 . S
C120 C121 1.387 . S
C120 C124 1.391 . S
C121 C120 1.387 . S
C121 C122 1.369 . S
C121 H130 0.929 . S
C122 N119 1.346 . S
C122 C121 1.369 . S
C122 H125 0.928 . S
C123 N119 1.345 . S
C123 C124 1.371 . S
C123 H126 0.931 . S
C124 C120 1.391 . S
C124 C123 1.371 . S
C124 H131 0.930 . S
H125 C122 0.928 . S
H126 C123 0.931 . S
H127 C103 0.930 . S
H128 C100 0.930 . S
H129 C109 0.930 . S
H130 C121 0.929 . S
H131 C124 0.930 . S
C132 C133 1.351 . S
C132 N135 1.368 . S
C132 H137 0.931 . S
C133 C132 1.351 . S
C133 N134 1.373 . S
C133 H161 0.930 . S
N134 C133 1.373 . S
N134 C136 1.340 . S
N135 C132 1.368 . S
N135 C136 1.321 . S
N135 Co138 2.135 . S
C136 N134 1.340 . S
C136 N135 1.321 . S
C136 H160 0.930 . S
H137 C132 0.931 . S
Co138 N135 2.135 . S
Co138 N141 2.121 . S
Co138 O146 2.055 . S
Co138 O149 2.039 . S
Co138 N152 2.140 . S
C139 O140 1.227 . S
C139 O149 1.265 . S
O140 C139 1.227 . S
N141 Co138 2.121 . S
N141 C143 1.375 . S
N141 C144 1.313 . S
C142 C143 1.338 . S
C142 N145 1.377 . S
C142 H162 0.930 . S
C143 N141 1.375 . S
C143 C142 1.338 . S
C143 H147 0.931 . S
C144 N141 1.313 . S
C144 N145 1.344 . S
C144 H148 0.930 . S
N145 C142 1.377 . S
N145 C144 1.344 . S
O146 Co138 2.055 . S
O146 C150 1.253 . S
H147 C143 0.931 . S
H148 C144 0.930 . S
O149 Co138 2.039 . S
O149 C139 1.265 . S
C150 O146 1.253 . S
C150 O151 1.227 . S
O151 C150 1.227 . S
N152 Co138 2.140 . S
N152 C155 1.346 . S
N152 C156 1.345 . S
C153 C154 1.387 . S
C153 C157 1.391 . S
C154 C153 1.387 . S
C154 C155 1.369 . S
C154 H163 0.929 . S
C155 N152 1.346 . S
C155 C154 1.369 . S
C155 H158 0.928 . S
C156 N152 1.345 . S
C156 C157 1.371 . S
C156 H159 0.931 . S
C157 C153 1.391 . S
C157 C156 1.371 . S
C157 H164 0.930 . S
H158 C155 0.928 . S
H159 C156 0.931 . S
H160 C136 0.930 . S
H161 C133 0.930 . S
H162 C142 0.930 . S
H163 C154 0.929 . S
H164 C157 0.930 . S
C165 C166 1.351 . S
C165 N168 1.368 . S
C165 H170 0.931 . S
C166 C165 1.351 . S
C166 N167 1.373 . S
C166 H194 0.930 . S
N167 C166 1.373 . S
N167 C169 1.340 . S
N168 C165 1.368 . S
N168 C169 1.321 . S
N168 Co171 2.135 . S
C169 N167 1.340 . S
C169 N168 1.321 . S
C169 H193 0.930 . S
H170 C165 0.931 . S
Co171 N168 2.135 . S
Co171 N174 2.121 . S
Co171 O179 2.055 . S
Co171 O182 2.039 . S
Co171 N185 2.140 . S
C172 O173 1.227 . S
C172 O182 1.265 . S
O173 C172 1.227 . S
N174 Co171 2.121 . S
N174 C176 1.375 . S
N174 C177 1.313 . S
C175 C176 1.338 . S
C175 N178 1.377 . S
C175 H195 0.930 . S
C176 N174 1.375 . S
C176 C175 1.338 . S
C176 H180 0.931 . S
C177 N174 1.313 . S
C177 N178 1.344 . S
C177 H181 0.930 . S
N178 C175 1.377 . S
N178 C177 1.344 . S
O179 Co171 2.055 . S
O179 C183 1.253 . S
H180 C176 0.931 . S
H181 C177 0.930 . S
O182 Co171 2.039 . S
O182 C172 1.265 . S
C183 O179 1.253 . S
C183 O184 1.227 . S
O184 C183 1.227 . S
N185 Co171 2.140 . S
N185 C188 1.346 . S
N185 C189 1.345 . S
C186 C187 1.387 . S
C186 C190 1.391 . S
C187 C186 1.387 . S
C187 C188 1.369 . S
C187 H196 0.929 . S
C188 N185 1.346 . S
C188 C187 1.369 . S
C188 H191 0.928 . S
C189 N185 1.345 . S
C189 C190 1.371 . S
C189 H192 0.931 . S
C190 C186 1.391 . S
C190 C189 1.371 . S
C190 H197 0.930 . S
H191 C188 0.928 . S
H192 C189 0.931 . S
H193 C169 0.930 . S
H194 C166 0.930 . S
H195 C175 0.930 . S
H196 C187 0.929 . S
H197 C190 0.930 . S
C198 C199 1.351 . S
C198 N201 1.368 . S
C198 H203 0.931 . S
C199 C198 1.351 . S
C199 N200 1.373 . S
C199 H227 0.930 . S
N200 C199 1.373 . S
N200 C202 1.340 . S
N201 C198 1.368 . S
N201 C202 1.321 . S
N201 Co204 2.135 . S
C202 N200 1.340 . S
C202 N201 1.321 . S
C202 H226 0.930 . S
H203 C198 0.931 . S
Co204 N201 2.135 . S
Co204 N207 2.121 . S
Co204 O212 2.055 . S
Co204 O215 2.039 . S
Co204 N218 2.140 . S
C205 O206 1.227 . S
C205 O215 1.265 . S
O206 C205 1.227 . S
N207 Co204 2.121 . S
N207 C209 1.375 . S
N207 C210 1.313 . S
C208 C209 1.338 . S
C208 N211 1.377 . S
C208 H228 0.930 . S
C209 N207 1.375 . S
C209 C208 1.338 . S
C209 H213 0.931 . S
C210 N207 1.313 . S
C210 N211 1.344 . S
C210 H214 0.930 . S
N211 C208 1.377 . S
N211 C210 1.344 . S
O212 Co204 2.055 . S
O212 C216 1.253 . S
H213 C209 0.931 . S
H214 C210 0.930 . S
O215 Co204 2.039 . S
O215 C205 1.265 . S
C216 O212 1.253 . S
C216 O217 1.227 . S
O217 C216 1.227 . S
N218 Co204 2.140 . S
N218 C221 1.346 . S
N218 C222 1.345 . S
C219 C220 1.387 . S
C219 C223 1.391 . S
C220 C219 1.387 . S
C220 C221 1.369 . S
C220 H229 0.929 . S
C221 N218 1.346 . S
C221 C220 1.369 . S
C221 H224 0.928 . S
C222 N218 1.345 . S
C222 C223 1.371 . S
C222 H225 0.931 . S
C223 C219 1.391 . S
C223 C222 1.371 . S
C223 H230 0.930 . S
H224 C221 0.928 . S
H225 C222 0.931 . S
H226 C202 0.930 . S
H227 C199 0.930 . S
H228 C208 0.930 . S
H229 C220 0.929 . S
H230 C223 0.930 . S
C231 C232 1.351 . S
C231 N234 1.368 . S
C231 H236 0.931 . S
C232 C231 1.351 . S
C232 N233 1.373 . S
C232 H260 0.930 . S
N233 C232 1.373 . S
N233 C235 1.340 . S
N234 C231 1.368 . S
N234 C235 1.321 . S
N234 Co237 2.135 . S
C235 N233 1.340 . S
C235 N234 1.321 . S
C235 H259 0.930 . S
H236 C231 0.931 . S
Co237 N234 2.135 . S
Co237 N240 2.121 . S
Co237 O245 2.055 . S
Co237 O248 2.039 . S
Co237 N251 2.140 . S
C238 O239 1.227 . S
C238 O248 1.265 . S
O239 C238 1.227 . S
N240 Co237 2.121 . S
N240 C242 1.375 . S
N240 C243 1.313 . S
C241 C242 1.338 . S
C241 N244 1.377 . S
C241 H261 0.930 . S
C242 N240 1.375 . S
C242 C241 1.338 . S
C242 H246 0.931 . S
C243 N240 1.313 . S
C243 N244 1.344 . S
C243 H247 0.930 . S
N244 C241 1.377 . S
N244 C243 1.344 . S
O245 Co237 2.055 . S
O245 C249 1.253 . S
H246 C242 0.931 . S
H247 C243 0.930 . S
O248 Co237 2.039 . S
O248 C238 1.265 . S
C249 O245 1.253 . S
C249 O250 1.227 . S
O250 C249 1.227 . S
N251 Co237 2.140 . S
N251 C254 1.346 . S
N251 C255 1.345 . S
C252 C253 1.387 . S
C252 C256 1.391 . S
C253 C252 1.387 . S
C253 C254 1.369 . S
C253 H262 0.929 . S
C254 N251 1.346 . S
C254 C253 1.369 . S
C254 H257 0.928 . S
C255 N251 1.345 . S
C255 C256 1.371 . S
C255 H258 0.931 . S
C256 C252 1.391 . S
C256 C255 1.371 . S
C256 H263 0.930 . S
H257 C254 0.928 . S
H258 C255 0.931 . S
H259 C235 0.930 . S
H260 C232 0.930 . S
H261 C241 0.930 . S
H262 C253 0.929 . S
H263 C256 0.930 . S
C264 C265 1.351 . S
C264 N267 1.368 . S
C264 H269 0.931 . S
C265 C264 1.351 . S
C265 N266 1.373 . S
C265 H293 0.930 . S
N266 C265 1.373 . S
N266 C268 1.340 . S
N267 C264 1.368 . S
N267 C268 1.321 . S
N267 Co270 2.135 . S
C268 N266 1.340 . S
C268 N267 1.321 . S
C268 H292 0.930 . S
H269 C264 0.931 . S
Co270 N267 2.135 . S
Co270 N273 2.121 . S
Co270 O278 2.055 . S
Co270 O281 2.039 . S
Co270 N284 2.140 . S
C271 O272 1.227 . S
C271 O281 1.265 . S
O272 C271 1.227 . S
N273 Co270 2.121 . S
N273 C275 1.375 . S
N273 C276 1.313 . S
C274 C275 1.338 . S
C274 N277 1.377 . S
C274 H294 0.930 . S
C275 N273 1.375 . S
C275 C274 1.338 . S
C275 H279 0.931 . S
C276 N273 1.313 . S
C276 N277 1.344 . S
C276 H280 0.930 . S
N277 C274 1.377 . S
N277 C276 1.344 . S
O278 Co270 2.055 . S
O278 C282 1.253 . S
H279 C275 0.931 . S
H280 C276 0.930 . S
O281 Co270 2.039 . S
O281 C271 1.265 . S
C282 O278 1.253 . S
C282 O283 1.227 . S
O283 C282 1.227 . S
N284 Co270 2.140 . S
N284 C287 1.346 . S
N284 C288 1.345 . S
C285 C286 1.387 . S
C285 C289 1.391 . S
C286 C285 1.387 . S
C286 C287 1.369 . S
C286 H295 0.929 . S
C287 N284 1.346 . S
C287 C286 1.369 . S
C287 H290 0.928 . S
C288 N284 1.345 . S
C288 C289 1.371 . S
C288 H291 0.931 . S
C289 C285 1.391 . S
C289 C288 1.371 . S
C289 H296 0.930 . S
H290 C287 0.928 . S
H291 C288 0.931 . S
H292 C268 0.930 . S
H293 C265 0.930 . S
H294 C274 0.930 . S
H295 C286 0.929 . S
H296 C289 0.930 . S
C297 C298 1.351 . S
C297 N300 1.368 . S
C297 H302 0.931 . S
C298 C297 1.351 . S
C298 N299 1.373 . S
C298 H326 0.930 . S
N299 C298 1.373 . S
N299 C301 1.340 . S
N300 C297 1.368 . S
N300 C301 1.321 . S
N300 Co303 2.135 . S
C301 N299 1.340 . S
C301 N300 1.321 . S
C301 H325 0.930 . S
H302 C297 0.931 . S
Co303 N300 2.135 . S
Co303 N306 2.121 . S
Co303 O311 2.055 . S
Co303 O314 2.039 . S
Co303 N317 2.140 . S
C304 O305 1.227 . S
C304 O314 1.265 . S
O305 C304 1.227 . S
N306 Co303 2.121 . S
N306 C308 1.375 . S
N306 C309 1.313 . S
C307 C308 1.338 . S
C307 N310 1.377 . S
C307 H327 0.930 . S
C308 N306 1.375 . S
C308 C307 1.338 . S
C308 H312 0.931 . S
C309 N306 1.313 . S
C309 N310 1.344 . S
C309 H313 0.930 . S
N310 C307 1.377 . S
N310 C309 1.344 . S
O311 Co303 2.055 . S
O311 C315 1.253 . S
H312 C308 0.931 . S
H313 C309 0.930 . S
O314 Co303 2.039 . S
O314 C304 1.265 . S
C315 O311 1.253 . S
C315 O316 1.227 . S
O316 C315 1.227 . S
N317 Co303 2.140 . S
N317 C320 1.346 . S
N317 C321 1.345 . S
C318 C319 1.387 . S
C318 C322 1.391 . S
C319 C318 1.387 . S
C319 C320 1.369 . S
C319 H328 0.929 . S
C320 N317 1.346 . S
C320 C319 1.369 . S
C320 H323 0.928 . S
C321 N317 1.345 . S
C321 C322 1.371 . S
C321 H324 0.931 . S
C322 C318 1.391 . S
C322 C321 1.371 . S
C322 H329 0.930 . S
H323 C320 0.928 . S
H324 C321 0.931 . S
H325 C301 0.930 . S
H326 C298 0.930 . S
H327 C307 0.930 . S
H328 C319 0.929 . S
H329 C322 0.930 . S
C330 C331 1.351 . S
C330 N333 1.368 . S
C330 H335 0.931 . S
C331 C330 1.351 . S
C331 N332 1.373 . S
C331 H359 0.930 . S
N332 C331 1.373 . S
N332 C334 1.340 . S
N333 C330 1.368 . S
N333 C334 1.321 . S
N333 Co336 2.135 . S
C334 N332 1.340 . S
C334 N333 1.321 . S
C334 H358 0.930 . S
H335 C330 0.931 . S
Co336 N333 2.135 . S
Co336 N339 2.121 . S
Co336 O344 2.055 . S
Co336 O347 2.039 . S
Co336 N350 2.140 . S
C337 O338 1.227 . S
C337 O347 1.265 . S
O338 C337 1.227 . S
N339 Co336 2.121 . S
N339 C341 1.375 . S
N339 C342 1.313 . S
C340 C341 1.338 . S
C340 N343 1.377 . S
C340 H360 0.930 . S
C341 N339 1.375 . S
C341 C340 1.338 . S
C341 H345 0.931 . S
C342 N339 1.313 . S
C342 N343 1.344 . S
C342 H346 0.930 . S
N343 C340 1.377 . S
N343 C342 1.344 . S
O344 Co336 2.055 . S
O344 C348 1.253 . S
H345 C341 0.931 . S
H346 C342 0.930 . S
O347 Co336 2.039 . S
O347 C337 1.265 . S
C348 O344 1.253 . S
C348 O349 1.227 . S
O349 C348 1.227 . S
N350 Co336 2.140 . S
N350 C353 1.346 . S
N350 C354 1.345 . S
C351 C352 1.387 . S
C351 C355 1.391 . S
C352 C351 1.387 . S
C352 C353 1.369 . S
C352 H361 0.929 . S
C353 N350 1.346 . S
C353 C352 1.369 . S
C353 H356 0.928 . S
C354 N350 1.345 . S
C354 C355 1.371 . S
C354 H357 0.931 . S
C355 C351 1.391 . S
C355 C354 1.371 . S
C355 H362 0.930 . S
H356 C353 0.928 . S
H357 C354 0.931 . S
H358 C334 0.930 . S
H359 C331 0.930 . S
H360 C340 0.930 . S
H361 C352 0.929 . S
H362 C355 0.930 . S
C363 C364 1.351 . S
C363 N366 1.368 . S
C363 H368 0.931 . S
C364 C363 1.351 . S
C364 N365 1.373 . S
C364 H392 0.930 . S
N365 C364 1.373 . S
N365 C367 1.340 . S
N366 C363 1.368 . S
N366 C367 1.321 . S
N366 Co369 2.135 . S
C367 N365 1.340 . S
C367 N366 1.321 . S
C367 H391 0.930 . S
H368 C363 0.931 . S
Co369 N366 2.135 . S
Co369 N372 2.121 . S
Co369 O377 2.055 . S
Co369 O380 2.039 . S
Co369 N383 2.140 . S
C370 O371 1.227 . S
C370 O380 1.265 . S
O371 C370 1.227 . S
N372 Co369 2.121 . S
N372 C374 1.375 . S
N372 C375 1.313 . S
C373 C374 1.338 . S
C373 N376 1.377 . S
C373 H393 0.930 . S
C374 N372 1.375 . S
C374 C373 1.338 . S
C374 H378 0.931 . S
C375 N372 1.313 . S
C375 N376 1.344 . S
C375 H379 0.930 . S
N376 C373 1.377 . S
N376 C375 1.344 . S
O377 Co369 2.055 . S
O377 C381 1.253 . S
H378 C374 0.931 . S
H379 C375 0.930 . S
O380 Co369 2.039 . S
O380 C370 1.265 . S
C381 O377 1.253 . S
C381 O382 1.227 . S
O382 C381 1.227 . S
N383 Co369 2.140 . S
N383 C386 1.346 . S
N383 C387 1.345 . S
C384 C385 1.387 . S
C384 C388 1.391 . S
C385 C384 1.387 . S
C385 C386 1.369 . S
C385 H394 0.929 . S
C386 N383 1.346 . S
C386 C385 1.369 . S
C386 H389 0.928 . S
C387 N383 1.345 . S
C387 C388 1.371 . S
C387 H390 0.931 . S
C388 C384 1.391 . S
C388 C387 1.371 . S
C388 H395 0.930 . S
H389 C386 0.928 . S
H390 C387 0.931 . S
H391 C367 0.930 . S
H392 C364 0.930 . S
H393 C373 0.930 . S
H394 C385 0.929 . S
H395 C388 0.930 . S
C396 C397 1.351 . S
C396 N399 1.368 . S
C396 H401 0.931 . S
C397 C396 1.351 . S
C397 N398 1.373 . S
C397 H425 0.930 . S
N398 C397 1.373 . S
N398 C400 1.340 . S
N399 C396 1.368 . S
N399 C400 1.321 . S
N399 Co402 2.135 . S
C400 N398 1.340 . S
C400 N399 1.321 . S
C400 H424 0.930 . S
H401 C396 0.931 . S
Co402 N399 2.135 . S
Co402 N405 2.121 . S
Co402 O410 2.055 . S
Co402 O413 2.039 . S
Co402 N416 2.140 . S
C403 O404 1.227 . S
C403 O413 1.265 . S
O404 C403 1.227 . S
N405 Co402 2.121 . S
N405 C407 1.375 . S
N405 C408 1.313 . S
C406 C407 1.338 . S
C406 N409 1.377 . S
C406 H426 0.930 . S
C407 N405 1.375 . S
C407 C406 1.338 . S
C407 H411 0.931 . S
C408 N405 1.313 . S
C408 N409 1.344 . S
C408 H412 0.930 . S
N409 C406 1.377 . S
N409 C408 1.344 . S
O410 Co402 2.055 . S
O410 C414 1.253 . S
H411 C407 0.931 . S
H412 C408 0.930 . S
O413 Co402 2.039 . S
O413 C403 1.265 . S
C414 O410 1.253 . S
C414 O415 1.227 . S
O415 C414 1.227 . S
N416 Co402 2.140 . S
N416 C419 1.346 . S
N416 C420 1.345 . S
C417 C418 1.387 . S
C417 C421 1.391 . S
C418 C417 1.387 . S
C418 C419 1.369 . S
C418 H427 0.929 . S
C419 N416 1.346 . S
C419 C418 1.369 . S
C419 H422 0.928 . S
C420 N416 1.345 . S
C420 C421 1.371 . S
C420 H423 0.931 . S
C421 C417 1.391 . S
C421 C420 1.371 . S
C421 H428 0.930 . S
H422 C419 0.928 . S
H423 C420 0.931 . S
H424 C400 0.930 . S
H425 C397 0.930 . S
H426 C406 0.930 . S
H427 C418 0.929 . S
H428 C421 0.930 . S
C429 C430 1.351 . S
C429 N432 1.368 . S
C429 H434 0.931 . S
C430 C429 1.351 . S
C430 N431 1.373 . S
C430 H458 0.930 . S
N431 C430 1.373 . S
N431 C433 1.340 . S
N432 C429 1.368 . S
N432 C433 1.321 . S
N432 Co435 2.135 . S
C433 N431 1.340 . S
C433 N432 1.321 . S
C433 H457 0.930 . S
H434 C429 0.931 . S
Co435 N432 2.135 . S
Co435 N438 2.121 . S
Co435 O443 2.055 . S
Co435 O446 2.039 . S
Co435 N449 2.140 . S
C436 O437 1.227 . S
C436 O446 1.265 . S
O437 C436 1.227 . S
N438 Co435 2.121 . S
N438 C440 1.375 . S
N438 C441 1.313 . S
C439 C440 1.338 . S
C439 N442 1.377 . S
C439 H459 0.930 . S
C440 N438 1.375 . S
C440 C439 1.338 . S
C440 H444 0.931 . S
C441 N438 1.313 . S
C441 N442 1.344 . S
C441 H445 0.930 . S
N442 C439 1.377 . S
N442 C441 1.344 . S
O443 Co435 2.055 . S
O443 C447 1.253 . S
H444 C440 0.931 . S
H445 C441 0.930 . S
O446 Co435 2.039 . S
O446 C436 1.265 . S
C447 O443 1.253 . S
C447 O448 1.227 . S
O448 C447 1.227 . S
N449 Co435 2.140 . S
N449 C452 1.346 . S
N449 C453 1.345 . S
C450 C451 1.387 . S
C450 C454 1.391 . S
C451 C450 1.387 . S
C451 C452 1.369 . S
C451 H460 0.929 . S
C452 N449 1.346 . S
C452 C451 1.369 . S
C452 H455 0.928 . S
C453 N449 1.345 . S
C453 C454 1.371 . S
C453 H456 0.931 . S
C454 C450 1.391 . S
C454 C453 1.371 . S
C454 H461 0.930 . S
H455 C452 0.928 . S
H456 C453 0.931 . S
H457 C433 0.930 . S
H458 C430 0.930 . S
H459 C439 0.930 . S
H460 C451 0.929 . S
H461 C454 0.930 . S
C462 C463 1.351 . S
C462 N465 1.368 . S
C462 H467 0.931 . S
C463 C462 1.351 . S
C463 N464 1.373 . S
C463 H491 0.930 . S
N464 C463 1.373 . S
N464 C466 1.340 . S
N465 C462 1.368 . S
N465 C466 1.321 . S
N465 Co468 2.135 . S
C466 N464 1.340 . S
C466 N465 1.321 . S
C466 H490 0.930 . S
H467 C462 0.931 . S
Co468 N465 2.135 . S
Co468 N471 2.121 . S
Co468 O476 2.055 . S
Co468 O479 2.039 . S
Co468 N482 2.140 . S
C469 O470 1.227 . S
C469 O479 1.265 . S
O470 C469 1.227 . S
N471 Co468 2.121 . S
N471 C473 1.375 . S
N471 C474 1.313 . S
C472 C473 1.338 . S
C472 N475 1.377 . S
C472 H492 0.930 . S
C473 N471 1.375 . S
C473 C472 1.338 . S
C473 H477 0.931 . S
C474 N471 1.313 . S
C474 N475 1.344 . S
C474 H478 0.930 . S
N475 C472 1.377 . S
N475 C474 1.344 . S
O476 Co468 2.055 . S
O476 C480 1.253 . S
H477 C473 0.931 . S
H478 C474 0.930 . S
O479 Co468 2.039 . S
O479 C469 1.265 . S
C480 O476 1.253 . S
C480 O481 1.227 . S
O481 C480 1.227 . S
N482 Co468 2.140 . S
N482 C485 1.346 . S
N482 C486 1.345 . S
C483 C484 1.387 . S
C483 C487 1.391 . S
C484 C483 1.387 . S
C484 C485 1.369 . S
C484 H493 0.929 . S
C485 N482 1.346 . S
C485 C484 1.369 . S
C485 H488 0.928 . S
C486 N482 1.345 . S
C486 C487 1.371 . S
C486 H489 0.931 . S
C487 C483 1.391 . S
C487 C486 1.371 . S
C487 H494 0.930 . S
H488 C485 0.928 . S
H489 C486 0.931 . S
H490 C466 0.930 . S
H491 C463 0.930 . S
H492 C472 0.930 . S
H493 C484 0.929 . S
H494 C487 0.930 . S
C495 C496 1.351 . S
C495 N498 1.368 . S
C495 H500 0.931 . S
C496 C495 1.351 . S
C496 N497 1.373 . S
C496 H524 0.930 . S
N497 C496 1.373 . S
N497 C499 1.340 . S
N498 C495 1.368 . S
N498 C499 1.321 . S
N498 Co501 2.135 . S
C499 N497 1.340 . S
C499 N498 1.321 . S
C499 H523 0.930 . S
H500 C495 0.931 . S
Co501 N498 2.135 . S
Co501 N504 2.121 . S
Co501 O509 2.055 . S
Co501 O512 2.039 . S
Co501 N515 2.140 . S
C502 O503 1.227 . S
C502 O512 1.265 . S
O503 C502 1.227 . S
N504 Co501 2.121 . S
N504 C506 1.375 . S
N504 C507 1.313 . S
C505 C506 1.338 . S
C505 N508 1.377 . S
C505 H525 0.930 . S
C506 N504 1.375 . S
C506 C505 1.338 . S
C506 H510 0.931 . S
C507 N504 1.313 . S
C507 N508 1.344 . S
C507 H511 0.930 . S
N508 C505 1.377 . S
N508 C507 1.344 . S
O509 Co501 2.055 . S
O509 C513 1.253 . S
H510 C506 0.931 . S
H511 C507 0.930 . S
O512 Co501 2.039 . S
O512 C502 1.265 . S
C513 O509 1.253 . S
C513 O514 1.227 . S
O514 C513 1.227 . S
N515 Co501 2.140 . S
N515 C518 1.346 . S
N515 C519 1.345 . S
C516 C517 1.387 . S
C516 C520 1.391 . S
C517 C516 1.387 . S
C517 C518 1.369 . S
C517 H526 0.929 . S
C518 N515 1.346 . S
C518 C517 1.369 . S
C518 H521 0.928 . S
C519 N515 1.345 . S
C519 C520 1.371 . S
C519 H522 0.931 . S
C520 C516 1.391 . S
C520 C519 1.371 . S
C520 H527 0.930 . S
H521 C518 0.928 . S
H522 C519 0.931 . S
H523 C499 0.930 . S
H524 C496 0.930 . S
H525 C505 0.930 . S
H526 C517 0.929 . S
H527 C520 0.930 . S
C528 C529 1.351 . S
C528 N531 1.368 . S
C528 H533 0.931 . S
C529 C528 1.351 . S
C529 N530 1.373 . S
C529 H557 0.930 . S
N530 C529 1.373 . S
N530 C532 1.340 . S
N531 C528 1.368 . S
N531 C532 1.321 . S
N531 Co534 2.135 . S
C532 N530 1.340 . S
C532 N531 1.321 . S
C532 H556 0.930 . S
H533 C528 0.931 . S
Co534 N531 2.135 . S
Co534 N537 2.121 . S
Co534 O542 2.055 . S
Co534 O545 2.039 . S
Co534 N548 2.140 . S
C535 O536 1.227 . S
C535 O545 1.265 . S
O536 C535 1.227 . S
N537 Co534 2.121 . S
N537 C539 1.375 . S
N537 C540 1.313 . S
C538 C539 1.338 . S
C538 N541 1.377 . S
C538 H558 0.930 . S
C539 N537 1.375 . S
C539 C538 1.338 . S
C539 H543 0.931 . S
C540 N537 1.313 . S
C540 N541 1.344 . S
C540 H544 0.930 . S
N541 C538 1.377 . S
N541 C540 1.344 . S
O542 Co534 2.055 . S
O542 C546 1.253 . S
H543 C539 0.931 . S
H544 C540 0.930 . S
O545 Co534 2.039 . S
O545 C535 1.265 . S
C546 O542 1.253 . S
C546 O547 1.227 . S
O547 C546 1.227 . S
N548 Co534 2.140 . S
N548 C551 1.346 . S
N548 C552 1.345 . S
C549 C550 1.387 . S
C549 C553 1.391 . S
C550 C549 1.387 . S
C550 C551 1.369 . S
C550 H559 0.929 . S
C551 N548 1.346 . S
C551 C550 1.369 . S
C551 H554 0.928 . S
C552 N548 1.345 . S
C552 C553 1.371 . S
C552 H555 0.931 . S
C553 C549 1.391 . S
C553 C552 1.371 . S
C553 H560 0.930 . S
H554 C551 0.928 . S
H555 C552 0.931 . S
H556 C532 0.930 . S
H557 C529 0.930 . S
H558 C538 0.930 . S
H559 C550 0.929 . S
H560 C553 0.930 . S
C561 C562 1.351 . S
C561 N564 1.368 . S
C561 H566 0.931 . S
C562 C561 1.351 . S
C562 N563 1.373 . S
C562 H590 0.930 . S
N563 C562 1.373 . S
N563 C565 1.340 . S
N564 C561 1.368 . S
N564 C565 1.321 . S
N564 Co567 2.135 . S
C565 N563 1.340 . S
C565 N564 1.321 . S
C565 H589 0.930 . S
H566 C561 0.931 . S
Co567 N564 2.135 . S
Co567 N570 2.121 . S
Co567 O575 2.055 . S
Co567 O578 2.039 . S
Co567 N581 2.140 . S
C568 O569 1.227 . S
C568 O578 1.265 . S
O569 C568 1.227 . S
N570 Co567 2.121 . S
N570 C572 1.375 . S
N570 C573 1.313 . S
C571 C572 1.338 . S
C571 N574 1.377 . S
C571 H591 0.930 . S
C572 N570 1.375 . S
C572 C571 1.338 . S
C572 H576 0.931 . S
C573 N570 1.313 . S
C573 N574 1.344 . S
C573 H577 0.930 . S
N574 C571 1.377 . S
N574 C573 1.344 . S
O575 Co567 2.055 . S
O575 C579 1.253 . S
H576 C572 0.931 . S
H577 C573 0.930 . S
O578 Co567 2.039 . S
O578 C568 1.265 . S
C579 O575 1.253 . S
C579 O580 1.227 . S
O580 C579 1.227 . S
N581 Co567 2.140 . S
N581 C584 1.346 . S
N581 C585 1.345 . S
C582 C583 1.387 . S
C582 C586 1.391 . S
C583 C582 1.387 . S
C583 C584 1.369 . S
C583 H592 0.929 . S
C584 N581 1.346 . S
C584 C583 1.369 . S
C584 H587 0.928 . S
C585 N581 1.345 . S
C585 C586 1.371 . S
C585 H588 0.931 . S
C586 C582 1.391 . S
C586 C585 1.371 . S
C586 H593 0.930 . S
H587 C584 0.928 . S
H588 C585 0.931 . S
H589 C565 0.930 . S
H590 C562 0.930 . S
H591 C571 0.930 . S
H592 C583 0.929 . S
H593 C586 0.930 . S
C594 C595 1.351 . S
C594 N597 1.368 . S
C594 H599 0.931 . S
C595 C594 1.351 . S
C595 N596 1.373 . S
C595 H623 0.930 . S
N596 C595 1.373 . S
N596 C598 1.340 . S
N597 C594 1.368 . S
N597 C598 1.321 . S
N597 Co600 2.135 . S
C598 N596 1.340 . S
C598 N597 1.321 . S
C598 H622 0.930 . S
H599 C594 0.931 . S
Co600 N597 2.135 . S
Co600 N603 2.121 . S
Co600 O608 2.055 . S
Co600 O611 2.039 . S
Co600 N614 2.140 . S
C601 O602 1.227 . S
C601 O611 1.265 . S
O602 C601 1.227 . S
N603 Co600 2.121 . S
N603 C605 1.375 . S
N603 C606 1.313 . S
C604 C605 1.338 . S
C604 N607 1.377 . S
C604 H624 0.930 . S
C605 N603 1.375 . S
C605 C604 1.338 . S
C605 H609 0.931 . S
C606 N603 1.313 . S
C606 N607 1.344 . S
C606 H610 0.930 . S
N607 C604 1.377 . S
N607 C606 1.344 . S
O608 Co600 2.055 . S
O608 C612 1.253 . S
H609 C605 0.931 . S
H610 C606 0.930 . S
O611 Co600 2.039 . S
O611 C601 1.265 . S
C612 O608 1.253 . S
C612 O613 1.227 . S
O613 C612 1.227 . S
N614 Co600 2.140 . S
N614 C617 1.346 . S
N614 C618 1.345 . S
C615 C616 1.387 . S
C615 C619 1.391 . S
C616 C615 1.387 . S
C616 C617 1.369 . S
C616 H625 0.929 . S
C617 N614 1.346 . S
C617 C616 1.369 . S
C617 H620 0.928 . S
C618 N614 1.345 . S
C618 C619 1.371 . S
C618 H621 0.931 . S
C619 C615 1.391 . S
C619 C618 1.371 . S
C619 H626 0.930 . S
H620 C617 0.928 . S
H621 C618 0.931 . S
H622 C598 0.930 . S
H623 C595 0.930 . S
H624 C604 0.930 . S
H625 C616 0.929 . S
H626 C619 0.930 . S
C627 C628 1.351 . S
C627 N630 1.368 . S
C627 H632 0.931 . S
C628 C627 1.351 . S
C628 N629 1.373 . S
C628 H656 0.930 . S
N629 C628 1.373 . S
N629 C631 1.340 . S
N630 C627 1.368 . S
N630 C631 1.321 . S
N630 Co633 2.135 . S
C631 N629 1.340 . S
C631 N630 1.321 . S
C631 H655 0.930 . S
H632 C627 0.931 . S
Co633 N630 2.135 . S
Co633 N636 2.121 . S
Co633 O641 2.055 . S
Co633 O644 2.039 . S
Co633 N647 2.140 . S
C634 O635 1.227 . S
C634 O644 1.265 . S
O635 C634 1.227 . S
N636 Co633 2.121 . S
N636 C638 1.375 . S
N636 C639 1.313 . S
C637 C638 1.338 . S
C637 N640 1.377 . S
C637 H657 0.930 . S
C638 N636 1.375 . S
C638 C637 1.338 . S
C638 H642 0.931 . S
C639 N636 1.313 . S
C639 N640 1.344 . S
C639 H643 0.930 . S
N640 C637 1.377 . S
N640 C639 1.344 . S
O641 Co633 2.055 . S
O641 C645 1.253 . S
H642 C638 0.931 . S
H643 C639 0.930 . S
O644 Co633 2.039 . S
O644 C634 1.265 . S
C645 O641 1.253 . S
C645 O646 1.227 . S
O646 C645 1.227 . S
N647 Co633 2.140 . S
N647 C650 1.346 . S
N647 C651 1.345 . S
C648 C649 1.387 . S
C648 C652 1.391 . S
C649 C648 1.387 . S
C649 C650 1.369 . S
C649 H658 0.929 . S
C650 N647 1.346 . S
C650 C649 1.369 . S
C650 H653 0.928 . S
C651 N647 1.345 . S
C651 C652 1.371 . S
C651 H654 0.931 . S
C652 C648 1.391 . S
C652 C651 1.371 . S
C652 H659 0.930 . S
H653 C650 0.928 . S
H654 C651 0.931 . S
H655 C631 0.930 . S
H656 C628 0.930 . S
H657 C637 0.930 . S
H658 C649 0.929 . S
H659 C652 0.930 . S
C660 C661 1.351 . S
C660 N663 1.368 . S
C660 H665 0.931 . S
C661 C660 1.351 . S
C661 N662 1.373 . S
C661 H689 0.930 . S
N662 C661 1.373 . S
N662 C664 1.340 . S
N663 C660 1.368 . S
N663 C664 1.321 . S
N663 Co666 2.135 . S
C664 N662 1.340 . S
C664 N663 1.321 . S
C664 H688 0.930 . S
H665 C660 0.931 . S
Co666 N663 2.135 . S
Co666 N669 2.121 . S
Co666 O674 2.055 . S
Co666 O677 2.039 . S
Co666 N680 2.140 . S
C667 O668 1.227 . S
C667 O677 1.265 . S
O668 C667 1.227 . S
N669 Co666 2.121 . S
N669 C671 1.375 . S
N669 C672 1.313 . S
C670 C671 1.338 . S
C670 N673 1.377 . S
C670 H690 0.930 . S
C671 N669 1.375 . S
C671 C670 1.338 . S
C671 H675 0.931 . S
C672 N669 1.313 . S
C672 N673 1.344 . S
C672 H676 0.930 . S
N673 C670 1.377 . S
N673 C672 1.344 . S
O674 Co666 2.055 . S
O674 C678 1.253 . S
H675 C671 0.931 . S
H676 C672 0.930 . S
O677 Co666 2.039 . S
O677 C667 1.265 . S
C678 O674 1.253 . S
C678 O679 1.227 . S
O679 C678 1.227 . S
N680 Co666 2.140 . S
N680 C683 1.346 . S
N680 C684 1.345 . S
C681 C682 1.387 . S
C681 C685 1.391 . S
C682 C681 1.387 . S
C682 C683 1.369 . S
C682 H691 0.929 . S
C683 N680 1.346 . S
C683 C682 1.369 . S
C683 H686 0.928 . S
C684 N680 1.345 . S
C684 C685 1.371 . S
C684 H687 0.931 . S
C685 C681 1.391 . S
C685 C684 1.371 . S
C685 H692 0.930 . S
H686 C683 0.928 . S
H687 C684 0.931 . S
H688 C664 0.930 . S
H689 C661 0.930 . S
H690 C670 0.930 . S
H691 C682 0.929 . S
H692 C685 0.930 . S
C693 C694 1.351 . S
C693 N696 1.368 . S
C693 H698 0.931 . S
C694 C693 1.351 . S
C694 N695 1.373 . S
C694 H722 0.930 . S
N695 C694 1.373 . S
N695 C697 1.340 . S
N696 C693 1.368 . S
N696 C697 1.321 . S
N696 Co699 2.135 . S
C697 N695 1.340 . S
C697 N696 1.321 . S
C697 H721 0.930 . S
H698 C693 0.931 . S
Co699 N696 2.135 . S
Co699 N702 2.121 . S
Co699 O707 2.055 . S
Co699 O710 2.039 . S
Co699 N713 2.140 . S
C700 O701 1.227 . S
C700 O710 1.265 . S
O701 C700 1.227 . S
N702 Co699 2.121 . S
N702 C704 1.375 . S
N702 C705 1.313 . S
C703 C704 1.338 . S
C703 N706 1.377 . S
C703 H723 0.930 . S
C704 N702 1.375 . S
C704 C703 1.338 . S
C704 H708 0.931 . S
C705 N702 1.313 . S
C705 N706 1.344 . S
C705 H709 0.930 . S
N706 C703 1.377 . S
N706 C705 1.344 . S
O707 Co699 2.055 . S
O707 C711 1.253 . S
H708 C704 0.931 . S
H709 C705 0.930 . S
O710 Co699 2.039 . S
O710 C700 1.265 . S
C711 O707 1.253 . S
C711 O712 1.227 . S
O712 C711 1.227 . S
N713 Co699 2.140 . S
N713 C716 1.346 . S
N713 C717 1.345 . S
C714 C715 1.387 . S
C714 C718 1.391 . S
C715 C714 1.387 . S
C715 C716 1.369 . S
C715 H724 0.929 . S
C716 N713 1.346 . S
C716 C715 1.369 . S
C716 H719 0.928 . S
C717 N713 1.345 . S
C717 C718 1.371 . S
C717 H720 0.931 . S
C718 C714 1.391 . S
C718 C717 1.371 . S
C718 H725 0.930 . S
H719 C716 0.928 . S
H720 C717 0.931 . S
H721 C697 0.930 . S
H722 C694 0.930 . S
H723 C703 0.930 . S
H724 C715 0.929 . S
H725 C718 0.930 . S
C726 C727 1.351 . S
C726 N729 1.368 . S
C726 H731 0.931 . S
C727 C726 1.351 . S
C727 N728 1.373 . S
C727 H755 0.930 . S
N728 C727 1.373 . S
N728 C730 1.340 . S
N729 C726 1.368 . S
N729 C730 1.321 . S
N729 Co732 2.135 . S
C730 N728 1.340 . S
C730 N729 1.321 . S
C730 H754 0.930 . S
H731 C726 0.931 . S
Co732 N729 2.135 . S
Co732 N735 2.121 . S
Co732 O740 2.055 . S
Co732 O743 2.039 . S
Co732 N746 2.140 . S
C733 O734 1.227 . S
C733 O743 1.265 . S
O734 C733 1.227 . S
N735 Co732 2.121 . S
N735 C737 1.375 . S
N735 C738 1.313 . S
C736 C737 1.338 . S
C736 N739 1.377 . S
C736 H756 0.930 . S
C737 N735 1.375 . S
C737 C736 1.338 . S
C737 H741 0.931 . S
C738 N735 1.313 . S
C738 N739 1.344 . S
C738 H742 0.930 . S
N739 C736 1.377 . S
N739 C738 1.344 . S
O740 Co732 2.055 . S
O740 C744 1.253 . S
H741 C737 0.931 . S
H742 C738 0.930 . S
O743 Co732 2.039 . S
O743 C733 1.265 . S
C744 O740 1.253 . S
C744 O745 1.227 . S
O745 C744 1.227 . S
N746 Co732 2.140 . S
N746 C749 1.346 . S
N746 C750 1.345 . S
C747 C748 1.387 . S
C747 C751 1.391 . S
C748 C747 1.387 . S
C748 C749 1.369 . S
C748 H757 0.929 . S
C749 N746 1.346 . S
C749 C748 1.369 . S
C749 H752 0.928 . S
C750 N746 1.345 . S
C750 C751 1.371 . S
C750 H753 0.931 . S
C751 C747 1.391 . S
C751 C750 1.371 . S
C751 H758 0.930 . S
H752 C749 0.928 . S
H753 C750 0.931 . S
H754 C730 0.930 . S
H755 C727 0.930 . S
H756 C736 0.930 . S
H757 C748 0.929 . S
H758 C751 0.930 . S
C759 C760 1.351 . S
C759 N762 1.368 . S
C759 H764 0.931 . S
C760 C759 1.351 . S
C760 N761 1.373 . S
C760 H788 0.930 . S
N761 C760 1.373 . S
N761 C763 1.340 . S
N762 C759 1.368 . S
N762 C763 1.321 . S
N762 Co765 2.135 . S
C763 N761 1.340 . S
C763 N762 1.321 . S
C763 H787 0.930 . S
H764 C759 0.931 . S
Co765 N762 2.135 . S
Co765 N768 2.121 . S
Co765 O773 2.055 . S
Co765 O776 2.039 . S
Co765 N779 2.140 . S
C766 O767 1.227 . S
C766 O776 1.265 . S
O767 C766 1.227 . S
N768 Co765 2.121 . S
N768 C770 1.375 . S
N768 C771 1.313 . S
C769 C770 1.338 . S
C769 N772 1.377 . S
C769 H789 0.930 . S
C770 N768 1.375 . S
C770 C769 1.338 . S
C770 H774 0.931 . S
C771 N768 1.313 . S
C771 N772 1.344 . S
C771 H775 0.930 . S
N772 C769 1.377 . S
N772 C771 1.344 . S
O773 Co765 2.055 . S
O773 C777 1.253 . S
H774 C770 0.931 . S
H775 C771 0.930 . S
O776 Co765 2.039 . S
O776 C766 1.265 . S
C777 O773 1.253 . S
C777 O778 1.227 . S
O778 C777 1.227 . S
N779 Co765 2.140 . S
N779 C782 1.346 . S
N779 C783 1.345 . S
C780 C781 1.387 . S
C780 C784 1.391 . S
C781 C780 1.387 . S
C781 C782 1.369 . S
C781 H790 0.929 . S
C782 N779 1.346 . S
C782 C781 1.369 . S
C782 H785 0.928 . S
C783 N779 1.345 . S
C783 C784 1.371 . S
C783 H786 0.931 . S
C784 C780 1.391 . S
C784 C783 1.371 . S
C784 H791 0.930 . S
H785 C782 0.928 . S
H786 C783 0.931 . S
H787 C763 0.930 . S
H788 C760 0.930 . S
H789 C769 0.930 . S
H790 C781 0.929 . S
H791 C784 0.930 . S
C792 C793 1.351 . S
C792 N795 1.368 . S
C792 H797 0.931 . S
C793 C792 1.351 . S
C793 N794 1.373 . S
C793 H821 0.930 . S
N794 C793 1.373 . S
N794 C796 1.340 . S
N795 C792 1.368 . S
N795 C796 1.321 . S
N795 Co798 2.135 . S
C796 N794 1.340 . S
C796 N795 1.321 . S
C796 H820 0.930 . S
H797 C792 0.931 . S
Co798 N795 2.135 . S
Co798 N801 2.121 . S
Co798 O806 2.055 . S
Co798 O809 2.039 . S
Co798 N812 2.140 . S
C799 O800 1.227 . S
C799 O809 1.265 . S
O800 C799 1.227 . S
N801 Co798 2.121 . S
N801 C803 1.375 . S
N801 C804 1.313 . S
C802 C803 1.338 . S
C802 N805 1.377 . S
C802 H822 0.930 . S
C803 N801 1.375 . S
C803 C802 1.338 . S
C803 H807 0.931 . S
C804 N801 1.313 . S
C804 N805 1.344 . S
C804 H808 0.930 . S
N805 C802 1.377 . S
N805 C804 1.344 . S
O806 Co798 2.055 . S
O806 C810 1.253 . S
H807 C803 0.931 . S
H808 C804 0.930 . S
O809 Co798 2.039 . S
O809 C799 1.265 . S
C810 O806 1.253 . S
C810 O811 1.227 . S
O811 C810 1.227 . S
N812 Co798 2.140 . S
N812 C815 1.346 . S
N812 C816 1.345 . S
C813 C814 1.387 . S
C813 C817 1.391 . S
C814 C813 1.387 . S
C814 C815 1.369 . S
C814 H823 0.929 . S
C815 N812 1.346 . S
C815 C814 1.369 . S
C815 H818 0.928 . S
C816 N812 1.345 . S
C816 C817 1.371 . S
C816 H819 0.931 . S
C817 C813 1.391 . S
C817 C816 1.371 . S
C817 H824 0.930 . S
H818 C815 0.928 . S
H819 C816 0.931 . S
H820 C796 0.930 . S
H821 C793 0.930 . S
H822 C802 0.930 . S
H823 C814 0.929 . S
H824 C817 0.930 . S
C825 C826 1.351 . S
C825 N828 1.368 . S
C825 H830 0.931 . S
C826 C825 1.351 . S
C826 N827 1.373 . S
C826 H854 0.930 . S
N827 C826 1.373 . S
N827 C829 1.340 . S
N828 C825 1.368 . S
N828 C829 1.321 . S
N828 Co831 2.135 . S
C829 N827 1.340 . S
C829 N828 1.321 . S
C829 H853 0.930 . S
H830 C825 0.931 . S
Co831 N828 2.135 . S
Co831 N834 2.121 . S
Co831 O839 2.055 . S
Co831 O842 2.039 . S
Co831 N845 2.140 . S
C832 O833 1.227 . S
C832 O842 1.265 . S
O833 C832 1.227 . S
N834 Co831 2.121 . S
N834 C836 1.375 . S
N834 C837 1.313 . S
C835 C836 1.338 . S
C835 N838 1.377 . S
C835 H855 0.930 . S
C836 N834 1.375 . S
C836 C835 1.338 . S
C836 H840 0.931 . S
C837 N834 1.313 . S
C837 N838 1.344 . S
C837 H841 0.930 . S
N838 C835 1.377 . S
N838 C837 1.344 . S
O839 Co831 2.055 . S
O839 C843 1.253 . S
H840 C836 0.931 . S
H841 C837 0.930 . S
O842 Co831 2.039 . S
O842 C832 1.265 . S
C843 O839 1.253 . S
C843 O844 1.227 . S
O844 C843 1.227 . S
N845 Co831 2.140 . S
N845 C848 1.346 . S
N845 C849 1.345 . S
C846 C847 1.387 . S
C846 C850 1.391 . S
C847 C846 1.387 . S
C847 C848 1.369 . S
C847 H856 0.929 . S
C848 N845 1.346 . S
C848 C847 1.369 . S
C848 H851 0.928 . S
C849 N845 1.345 . S
C849 C850 1.371 . S
C849 H852 0.931 . S
C850 C846 1.391 . S
C850 C849 1.371 . S
C850 H857 0.930 . S
H851 C848 0.928 . S
H852 C849 0.931 . S
H853 C829 0.930 . S
H854 C826 0.930 . S
H855 C835 0.930 . S
H856 C847 0.929 . S
H857 C850 0.930 . S
C858 C859 1.351 . S
C858 N861 1.368 . S
C858 H863 0.931 . S
C859 C858 1.351 . S
C859 N860 1.373 . S
C859 H887 0.930 . S
N860 C859 1.373 . S
N860 C862 1.340 . S
N861 C858 1.368 . S
N861 C862 1.321 . S
N861 Co864 2.135 . S
C862 N860 1.340 . S
C862 N861 1.321 . S
C862 H886 0.930 . S
H863 C858 0.931 . S
Co864 N861 2.135 . S
Co864 N867 2.121 . S
Co864 O872 2.055 . S
Co864 O875 2.039 . S
Co864 N878 2.140 . S
C865 O866 1.227 . S
C865 O875 1.265 . S
O866 C865 1.227 . S
N867 Co864 2.121 . S
N867 C869 1.375 . S
N867 C870 1.313 . S
C868 C869 1.338 . S
C868 N871 1.377 . S
C868 H888 0.930 . S
C869 N867 1.375 . S
C869 C868 1.338 . S
C869 H873 0.931 . S
C870 N867 1.313 . S
C870 N871 1.344 . S
C870 H874 0.930 . S
N871 C868 1.377 . S
N871 C870 1.344 . S
O872 Co864 2.055 . S
O872 C876 1.253 . S
H873 C869 0.931 . S
H874 C870 0.930 . S
O875 Co864 2.039 . S
O875 C865 1.265 . S
C876 O872 1.253 . S
C876 O877 1.227 . S
O877 C876 1.227 . S
N878 Co864 2.140 . S
N878 C881 1.346 . S
N878 C882 1.345 . S
C879 C880 1.387 . S
C879 C883 1.391 . S
C880 C879 1.387 . S
C880 C881 1.369 . S
C880 H889 0.929 . S
C881 N878 1.346 . S
C881 C880 1.369 . S
C881 H884 0.928 . S
C882 N878 1.345 . S
C882 C883 1.371 . S
C882 H885 0.931 . S
C883 C879 1.391 . S
C883 C882 1.371 . S
C883 H890 0.930 . S
H884 C881 0.928 . S
H885 C882 0.931 . S
H886 C862 0.930 . S
H887 C859 0.930 . S
H888 C868 0.930 . S
H889 C880 0.929 . S
H890 C883 0.930 . S
C891 C892 1.351 . S
C891 N894 1.368 . S
C891 H896 0.931 . S
C892 C891 1.351 . S
C892 N893 1.373 . S
C892 H920 0.930 . S
N893 C892 1.373 . S
N893 C895 1.340 . S
N894 C891 1.368 . S
N894 C895 1.321 . S
N894 Co897 2.135 . S
C895 N893 1.340 . S
C895 N894 1.321 . S
C895 H919 0.930 . S
H896 C891 0.931 . S
Co897 N894 2.135 . S
Co897 N900 2.121 . S
Co897 O905 2.055 . S
Co897 O908 2.039 . S
Co897 N911 2.140 . S
C898 O899 1.227 . S
C898 O908 1.265 . S
O899 C898 1.227 . S
N900 Co897 2.121 . S
N900 C902 1.375 . S
N900 C903 1.313 . S
C901 C902 1.338 . S
C901 N904 1.377 . S
C901 H921 0.930 . S
C902 N900 1.375 . S
C902 C901 1.338 . S
C902 H906 0.931 . S
C903 N900 1.313 . S
C903 N904 1.344 . S
C903 H907 0.930 . S
N904 C901 1.377 . S
N904 C903 1.344 . S
O905 Co897 2.055 . S
O905 C909 1.253 . S
H906 C902 0.931 . S
H907 C903 0.930 . S
O908 Co897 2.039 . S
O908 C898 1.265 . S
C909 O905 1.253 . S
C909 O910 1.227 . S
O910 C909 1.227 . S
N911 Co897 2.140 . S
N911 C914 1.346 . S
N911 C915 1.345 . S
C912 C913 1.387 . S
C912 C916 1.391 . S
C913 C912 1.387 . S
C913 C914 1.369 . S
C913 H922 0.929 . S
C914 N911 1.346 . S
C914 C913 1.369 . S
C914 H917 0.928 . S
C915 N911 1.345 . S
C915 C916 1.371 . S
C915 H918 0.931 . S
C916 C912 1.391 . S
C916 C915 1.371 . S
C916 H923 0.930 . S
H917 C914 0.928 . S
H918 C915 0.931 . S
H919 C895 0.930 . S
H920 C892 0.930 . S
H921 C901 0.930 . S
H922 C913 0.929 . S
H923 C916 0.930 . S
C924 C925 1.351 . S
C924 N927 1.368 . S
C924 H929 0.931 . S
C925 C924 1.351 . S
C925 N926 1.373 . S
C925 H953 0.930 . S
N926 C925 1.373 . S
N926 C928 1.340 . S
N927 C924 1.368 . S
N927 C928 1.321 . S
N927 Co930 2.135 . S
C928 N926 1.340 . S
C928 N927 1.321 . S
C928 H952 0.930 . S
H929 C924 0.931 . S
Co930 N927 2.135 . S
Co930 N933 2.121 . S
Co930 O938 2.055 . S
Co930 O941 2.039 . S
Co930 N944 2.140 . S
C931 O932 1.227 . S
C931 O941 1.265 . S
O932 C931 1.227 . S
N933 Co930 2.121 . S
N933 C935 1.375 . S
N933 C936 1.313 . S
C934 C935 1.338 . S
C934 N937 1.377 . S
C934 H954 0.930 . S
C935 N933 1.375 . S
C935 C934 1.338 . S
C935 H939 0.931 . S
C936 N933 1.313 . S
C936 N937 1.344 . S
C936 H940 0.930 . S
N937 C934 1.377 . S
N937 C936 1.344 . S
O938 Co930 2.055 . S
O938 C942 1.253 . S
H939 C935 0.931 . S
H940 C936 0.930 . S
O941 Co930 2.039 . S
O941 C931 1.265 . S
C942 O938 1.253 . S
C942 O943 1.227 . S
O943 C942 1.227 . S
N944 Co930 2.140 . S
N944 C947 1.346 . S
N944 C948 1.345 . S
C945 C946 1.387 . S
C945 C949 1.391 . S
C946 C945 1.387 . S
C946 C947 1.369 . S
C946 H955 0.929 . S
C947 N944 1.346 . S
C947 C946 1.369 . S
C947 H950 0.928 . S
C948 N944 1.345 . S
C948 C949 1.371 . S
C948 H951 0.931 . S
C949 C945 1.391 . S
C949 C948 1.371 . S
C949 H956 0.930 . S
H950 C947 0.928 . S
H951 C948 0.931 . S
H952 C928 0.930 . S
H953 C925 0.930 . S
H954 C934 0.930 . S
H955 C946 0.929 . S
H956 C949 0.930 . S
C957 C958 1.351 . S
C957 N960 1.368 . S
C957 H962 0.931 . S
C958 C957 1.351 . S
C958 N959 1.373 . S
C958 H986 0.930 . S
N959 C958 1.373 . S
N959 C961 1.340 . S
N960 C957 1.368 . S
N960 C961 1.321 . S
N960 Co963 2.135 . S
C961 N959 1.340 . S
C961 N960 1.321 . S
C961 H985 0.930 . S
H962 C957 0.931 . S
Co963 N960 2.135 . S
Co963 N966 2.121 . S
Co963 O971 2.055 . S
Co963 O974 2.039 . S
Co963 N977 2.140 . S
C964 O965 1.227 . S
C964 O974 1.265 . S
O965 C964 1.227 . S
N966 Co963 2.121 . S
N966 C968 1.375 . S
N966 C969 1.313 . S
C967 C968 1.338 . S
C967 N970 1.377 . S
C967 H987 0.930 . S
C968 N966 1.375 . S
C968 C967 1.338 . S
C968 H972 0.931 . S
C969 N966 1.313 . S
C969 N970 1.344 . S
C969 H973 0.930 . S
N970 C967 1.377 . S
N970 C969 1.344 . S
O971 Co963 2.055 . S
O971 C975 1.253 . S
H972 C968 0.931 . S
H973 C969 0.930 . S
O974 Co963 2.039 . S
O974 C964 1.265 . S
C975 O971 1.253 . S
C975 O976 1.227 . S
O976 C975 1.227 . S
N977 Co963 2.140 . S
N977 C980 1.346 . S
N977 C981 1.345 . S
C978 C979 1.387 . S
C978 C982 1.391 . S
C979 C978 1.387 . S
C979 C980 1.369 . S
C979 H988 0.929 . S
C980 N977 1.346 . S
C980 C979 1.369 . S
C980 H983 0.928 . S
C981 N977 1.345 . S
C981 C982 1.371 . S
C981 H984 0.931 . S
C982 C978 1.391 . S
C982 C981 1.371 . S
C982 H989 0.930 . S
H983 C980 0.928 . S
H984 C981 0.931 . S
H985 C961 0.930 . S
H986 C958 0.930 . S
H987 C967 0.930 . S
H988 C979 0.929 . S
H989 C982 0.930 . S
C990 C991 1.351 . S
C990 N993 1.368 . S
C990 H995 0.931 . S
C991 C990 1.351 . S
C991 N992 1.373 . S
C991 H1019 0.930 . S
N992 C991 1.373 . S
N992 C994 1.340 . S
N993 C990 1.368 . S
N993 C994 1.321 . S
N993 Co996 2.135 . S
C994 N992 1.340 . S
C994 N993 1.321 . S
C994 H1018 0.930 . S
H995 C990 0.931 . S
Co996 N993 2.135 . S
Co996 N999 2.121 . S
Co996 O1004 2.055 . S
Co996 O1007 2.039 . S
Co996 N1010 2.140 . S
C997 O998 1.227 . S
C997 O1007 1.265 . S
O998 C997 1.227 . S
N999 Co996 2.121 . S
N999 C1001 1.375 . S
N999 C1002 1.313 . S
C1000 C1001 1.338 . S
C1000 N1003 1.377 . S
C1000 H1020 0.930 . S
C1001 N999 1.375 . S
C1001 C1000 1.338 . S
C1001 H1005 0.931 . S
C1002 N999 1.313 . S
C1002 N1003 1.344 . S
C1002 H1006 0.930 . S
N1003 C1000 1.377 . S
N1003 C1002 1.344 . S
O1004 Co996 2.055 . S
O1004 C1008 1.253 . S
H1005 C1001 0.931 . S
H1006 C1002 0.930 . S
O1007 Co996 2.039 . S
O1007 C997 1.265 . S
C1008 O1004 1.253 . S
C1008 O1009 1.227 . S
O1009 C1008 1.227 . S
N1010 Co996 2.140 . S
N1010 C1013 1.346 . S
N1010 C1014 1.345 . S
C1011 C1012 1.387 . S
C1011 C1015 1.391 . S
C1012 C1011 1.387 . S
C1012 C1013 1.369 . S
C1012 H1021 0.929 . S
C1013 N1010 1.346 . S
C1013 C1012 1.369 . S
C1013 H1016 0.928 . S
C1014 N1010 1.345 . S
C1014 C1015 1.371 . S
C1014 H1017 0.931 . S
C1015 C1011 1.391 . S
C1015 C1014 1.371 . S
C1015 H1022 0.930 . S
H1016 C1013 0.928 . S
H1017 C1014 0.931 . S
H1018 C994 0.930 . S
H1019 C991 0.930 . S
H1020 C1000 0.930 . S
H1021 C1012 0.929 . S
H1022 C1015 0.930 . S
C1023 C1024 1.351 . S
C1023 N1026 1.368 . S
C1023 H1028 0.931 . S
C1024 C1023 1.351 . S
C1024 N1025 1.373 . S
C1024 H1052 0.930 . S
N1025 C1024 1.373 . S
N1025 C1027 1.340 . S
N1026 C1023 1.368 . S
N1026 C1027 1.321 . S
N1026 Co1029 2.135 . S
C1027 N1025 1.340 . S
C1027 N1026 1.321 . S
C1027 H1051 0.930 . S
H1028 C1023 0.931 . S
Co1029 N1026 2.135 . S
Co1029 N1032 2.121 . S
Co1029 O1037 2.055 . S
Co1029 O1040 2.039 . S
Co1029 N1043 2.140 . S
C1030 O1031 1.227 . S
C1030 O1040 1.265 . S
O1031 C1030 1.227 . S
N1032 Co1029 2.121 . S
N1032 C1034 1.375 . S
N1032 C1035 1.313 . S
C1033 C1034 1.338 . S
C1033 N1036 1.377 . S
C1033 H1053 0.930 . S
C1034 N1032 1.375 . S
C1034 C1033 1.338 . S
C1034 H1038 0.931 . S
C1035 N1032 1.313 . S
C1035 N1036 1.344 . S
C1035 H1039 0.930 . S
N1036 C1033 1.377 . S
N1036 C1035 1.344 . S
O1037 Co1029 2.055 . S
O1037 C1041 1.253 . S
H1038 C1034 0.931 . S
H1039 C1035 0.930 . S
O1040 Co1029 2.039 . S
O1040 C1030 1.265 . S
C1041 O1037 1.253 . S
C1041 O1042 1.227 . S
O1042 C1041 1.227 . S
N1043 Co1029 2.140 . S
N1043 C1046 1.346 . S
N1043 C1047 1.345 . S
C1044 C1045 1.387 . S
C1044 C1048 1.391 . S
C1045 C1044 1.387 . S
C1045 C1046 1.369 . S
C1045 H1054 0.929 . S
C1046 N1043 1.346 . S
C1046 C1045 1.369 . S
C1046 H1049 0.928 . S
C1047 N1043 1.345 . S
C1047 C1048 1.371 . S
C1047 H1050 0.931 . S
C1048 C1044 1.391 . S
C1048 C1047 1.371 . S
C1048 H1055 0.930 . S
H1049 C1046 0.928 . S
H1050 C1047 0.931 . S
H1051 C1027 0.930 . S
H1052 C1024 0.930 . S
H1053 C1033 0.930 . S
H1054 C1045 0.929 . S
H1055 C1048 0.930 . S
H1056 C1064 0.963 . S
H1057 C1069 0.950 . S
H1058 C1066 0.950 . S
H1059 C1068 0.950 . S
H1060 C1070 0.950 . S
H1061 C1072 0.950 . S
H1062 C1074 0.950 . S
H1063 C1075 0.950 . S
C1064 H1056 0.963 . S
C1064 C1065 1.396 . S
C1064 C1066 1.391 . S
C1065 C1064 1.396 . S
C1065 C1069 1.408 . S
C1066 H1058 0.950 . S
C1066 C1064 1.391 . S
C1066 C1067 1.400 . S
C1067 C1066 1.400 . S
C1067 C1068 1.398 . S
C1067 C1073 1.491 . S
C1068 H1059 0.950 . S
C1068 C1067 1.398 . S
C1068 C1069 1.391 . S
C1069 H1057 0.950 . S
C1069 C1065 1.408 . S
C1069 C1068 1.391 . S
C1070 H1060 0.950 . S
C1070 C1071 1.386 . S
C1070 C1072 1.391 . S
C1071 C1070 1.386 . S
C1071 C1075 1.393 . S
C1072 H1061 0.950 . S
C1072 C1070 1.391 . S
C1072 C1073 1.400 . S
C1073 C1067 1.491 . S
C1073 C1072 1.400 . S
C1073 C1074 1.398 . S
C1074 H1062 0.950 . S
C1074 C1073 1.398 . S
C1074 C1075 1.391 . S
C1075 H1063 0.950 . S
C1075 C1071 1.393 . S
C1075 C1074 1.391 . S
H1076 C1084 0.950 . S
H1077 C1089 0.950 . S
H1078 C1086 0.950 . S
H1079 C1088 0.950 . S
H1080 C1090 0.950 . S
H1081 C1092 0.950 . S
H1082 C1094 0.950 . S
H1083 C1095 0.950 . S
C1084 H1076 0.950 . S
C1084 C1085 1.386 . S
C1084 C1086 1.391 . S
C1085 C1084 1.386 . S
C1085 C1089 1.393 . S
C1086 H1078 0.950 . S
C1086 C1084 1.391 . S
C1086 C1087 1.400 . S
C1087 C1086 1.400 . S
C1087 C1088 1.398 . S
C1087 C1093 1.491 . S
C1088 H1079 0.950 . S
C1088 C1087 1.398 . S
C1088 C1089 1.391 . S
C1089 H1077 0.950 . S
C1089 C1085 1.393 . S
C1089 C1088 1.391 . S
C1090 H1080 0.950 . S
C1090 C1091 1.386 . S
C1090 C1092 1.391 . S
C1091 C1090 1.386 . S
C1091 C1095 1.393 . S
C1092 H1081 0.950 . S
C1092 C1090 1.391 . S
C1092 C1093 1.400 . S
C1093 C1087 1.491 . S
C1093 C1092 1.400 . S
C1093 C1094 1.398 . S
C1094 H1082 0.950 . S
C1094 C1093 1.398 . S
C1094 C1095 1.391 . S
C1095 H1083 0.950 . S
C1095 C1091 1.393 . S
C1095 C1094 1.391 . S
H1096 C1104 0.950 . S
H1097 C1109 0.950 . S
H1098 C1106 0.950 . S
H1099 C1108 0.950 . S
H1100 C1110 0.950 . S
H1101 C1112 0.950 . S
H1102 C1114 0.950 . S
H1103 C1115 0.950 . S
C1104 H1096 0.950 . S
C1104 C1105 1.386 . S
C1104 C1106 1.391 . S
C1105 C1104 1.386 . S
C1105 C1109 1.393 . S
C1106 H1098 0.950 . S
C1106 C1104 1.391 . S
C1106 C1107 1.400 . S
C1107 C1106 1.400 . S
C1107 C1108 1.398 . S
C1107 C1113 1.491 . S
C1108 H1099 0.950 . S
C1108 C1107 1.398 . S
C1108 C1109 1.391 . S
C1109 H1097 0.950 . S
C1109 C1105 1.393 . S
C1109 C1108 1.391 . S
C1110 H1100 0.950 . S
C1110 C1111 1.386 . S
C1110 C1112 1.391 . S
C1111 C1110 1.386 . S
C1111 C1115 1.393 . S
C1112 H1101 0.950 . S
C1112 C1110 1.391 . S
C1112 C1113 1.400 . S
C1113 C1107 1.491 . S
C1113 C1112 1.400 . S
C1113 C1114 1.398 . S
C1114 H1102 0.950 . S
C1114 C1113 1.398 . S
C1114 C1115 1.391 . S
C1115 H1103 0.950 . S
C1115 C1111 1.393 . S
C1115 C1114 1.391 . S
H1116 C1124 0.950 . S
H1117 C1129 0.950 . S
H1118 C1126 0.950 . S
H1119 C1128 0.950 . S
H1120 C1130 0.950 . S
H1121 C1132 0.950 . S
H1122 C1134 0.950 . S
H1123 C1135 0.950 . S
C1124 H1116 0.950 . S
C1124 C1125 1.386 . S
C1124 C1126 1.391 . S
C1125 C1124 1.386 . S
C1125 C1129 1.393 . S
C1126 H1118 0.950 . S
C1126 C1124 1.391 . S
C1126 C1127 1.400 . S
C1127 C1126 1.400 . S
C1127 C1128 1.398 . S
C1127 C1133 1.491 . S
C1128 H1119 0.950 . S
C1128 C1127 1.398 . S
C1128 C1129 1.391 . S
C1129 H1117 0.950 . S
C1129 C1125 1.393 . S
C1129 C1128 1.391 . S
C1130 H1120 0.950 . S
C1130 C1131 1.386 . S
C1130 C1132 1.391 . S
C1131 C1130 1.386 . S
C1131 C1135 1.393 . S
C1132 H1121 0.950 . S
C1132 C1130 1.391 . S
C1132 C1133 1.400 . S
C1133 C1127 1.491 . S
C1133 C1132 1.400 . S
C1133 C1134 1.398 . S
C1134 H1122 0.950 . S
C1134 C1133 1.398 . S
C1134 C1135 1.391 . S
C1135 H1123 0.950 . S
C1135 C1131 1.393 . S
C1135 C1134 1.391 . S
H1136 C1144 0.950 . S
H1137 C1149 0.950 . S
H1138 C1146 0.950 . S
H1139 C1148 0.950 . S
H1140 C1150 0.950 . S
H1141 C1152 0.950 . S
H1142 C1154 0.950 . S
H1143 C1155 0.950 . S
C1144 H1136 0.950 . S
C1144 C1145 1.386 . S
C1144 C1146 1.391 . S
C1145 C1144 1.386 . S
C1145 C1149 1.393 . S
C1146 H1138 0.950 . S
C1146 C1144 1.391 . S
C1146 C1147 1.400 . S
C1147 C1146 1.400 . S
C1147 C1148 1.398 . S
C1147 C1153 1.491 . S
C1148 H1139 0.950 . S
C1148 C1147 1.398 . S
C1148 C1149 1.391 . S
C1149 H1137 0.950 . S
C1149 C1145 1.393 . S
C1149 C1148 1.391 . S
C1150 H1140 0.950 . S
C1150 C1151 1.386 . S
C1150 C1152 1.391 . S
C1151 C1150 1.386 . S
C1151 C1155 1.393 . S
C1152 H1141 0.950 . S
C1152 C1150 1.391 . S
C1152 C1153 1.400 . S
C1153 C1147 1.491 . S
C1153 C1152 1.400 . S
C1153 C1154 1.398 . S
C1154 H1142 0.950 . S
C1154 C1153 1.398 . S
C1154 C1155 1.391 . S
C1155 H1143 0.950 . S
C1155 C1151 1.393 . S
C1155 C1154 1.391 . S
H1156 C1164 0.950 . S
H1157 C1169 0.950 . S
H1158 C1166 0.950 . S
H1159 C1168 0.950 . S
H1160 C1170 0.950 . S
H1161 C1172 0.950 . S
H1162 C1174 0.950 . S
H1163 C1175 0.950 . S
C1164 H1156 0.950 . S
C1164 C1165 1.386 . S
C1164 C1166 1.391 . S
C1165 C1164 1.386 . S
C1165 C1169 1.393 . S
C1166 H1158 0.950 . S
C1166 C1164 1.391 . S
C1166 C1167 1.400 . S
C1167 C1166 1.400 . S
C1167 C1168 1.398 . S
C1167 C1173 1.491 . S
C1168 H1159 0.950 . S
C1168 C1167 1.398 . S
C1168 C1169 1.391 . S
C1169 H1157 0.950 . S
C1169 C1165 1.393 . S
C1169 C1168 1.391 . S
C1170 H1160 0.950 . S
C1170 C1171 1.386 . S
C1170 C1172 1.391 . S
C1171 C1170 1.386 . S
C1171 C1175 1.393 . S
C1172 H1161 0.950 . S
C1172 C1170 1.391 . S
C1172 C1173 1.400 . S
C1173 C1167 1.491 . S
C1173 C1172 1.400 . S
C1173 C1174 1.398 . S
C1174 H1162 0.950 . S
C1174 C1173 1.398 . S
C1174 C1175 1.391 . S
C1175 H1163 0.950 . S
C1175 C1171 1.393 . S
C1175 C1174 1.391 . S
H1176 C1184 0.950 . S
H1177 C1189 0.950 . S
H1178 C1186 0.950 . S
H1179 C1188 0.950 . S
H1180 C1190 0.950 . S
H1181 C1192 0.950 . S
H1182 C1194 0.950 . S
H1183 C1195 0.950 . S
C1184 H1176 0.950 . S
C1184 C1185 1.386 . S
C1184 C1186 1.391 . S
C1185 C1184 1.386 . S
C1185 C1189 1.393 . S
C1186 H1178 0.950 . S
C1186 C1184 1.391 . S
C1186 C1187 1.400 . S
C1187 C1186 1.400 . S
C1187 C1188 1.398 . S
C1187 C1193 1.491 . S
C1188 H1179 0.950 . S
C1188 C1187 1.398 . S
C1188 C1189 1.391 . S
C1189 H1177 0.950 . S
C1189 C1185 1.393 . S
C1189 C1188 1.391 . S
C1190 H1180 0.950 . S
C1190 C1191 1.386 . S
C1190 C1192 1.391 . S
C1191 C1190 1.386 . S
C1191 C1195 1.393 . S
C1192 H1181 0.950 . S
C1192 C1190 1.391 . S
C1192 C1193 1.400 . S
C1193 C1187 1.491 . S
C1193 C1192 1.400 . S
C1193 C1194 1.398 . S
C1194 H1182 0.950 . S
C1194 C1193 1.398 . S
C1194 C1195 1.391 . S
C1195 H1183 0.950 . S
C1195 C1191 1.393 . S
C1195 C1194 1.391 . S
H1196 C1204 0.950 . S
H1197 C1209 0.950 . S
H1198 C1206 0.950 . S
H1199 C1208 0.950 . S
H1200 C1210 0.938 1_556 S
H1201 C1212 0.950 . S
H1202 C1214 0.950 . S
H1203 C1215 0.950 . S
C1204 H1196 0.950 . S
C1204 C1205 1.386 . S
C1204 C1206 1.391 . S
C1205 C1204 1.386 . S
C1205 C1209 1.393 . S
C1206 H1198 0.950 . S
C1206 C1204 1.391 . S
C1206 C1207 1.400 . S
C1207 C1206 1.400 . S
C1207 C1208 1.398 . S
C1207 C1213 1.491 . S
C1208 H1199 0.950 . S
C1208 C1207 1.398 . S
C1208 C1209 1.391 . S
C1209 H1197 0.950 . S
C1209 C1205 1.393 . S
C1209 C1208 1.391 . S
C1210 H1200 0.938 1_554 S
C1210 C1211 1.386 . S
C1210 C1212 1.391 . S
C1211 C1210 1.386 . S
C1211 C1215 1.393 . S
C1212 H1201 0.950 . S
C1212 C1210 1.391 . S
C1212 C1213 1.400 . S
C1213 C1207 1.491 . S
C1213 C1212 1.400 . S
C1213 C1214 1.398 . S
C1214 H1202 0.950 . S
C1214 C1213 1.398 . S
C1214 C1215 1.391 . S
C1215 H1203 0.950 . S
C1215 C1211 1.393 . S
C1215 C1214 1.391 . S
H1216 C1224 0.950 . S
H1217 C1229 0.950 . S
H1218 C1226 0.950 . S
H1219 C1228 0.950 . S
H1220 C1230 0.950 . S
H1221 C1232 0.950 . S
H1222 C1234 0.950 . S
H1223 C1235 0.950 . S
C1224 H1216 0.950 . S
C1224 C1225 1.386 . S
C1224 C1226 1.391 . S
C1225 C1224 1.386 . S
C1225 C1229 1.393 . S
C1226 H1218 0.950 . S
C1226 C1224 1.391 . S
C1226 C1227 1.400 . S
C1227 C1226 1.400 . S
C1227 C1228 1.398 . S
C1227 C1233 1.491 . S
C1228 H1219 0.950 . S
C1228 C1227 1.398 . S
C1228 C1229 1.391 . S
C1229 H1217 0.950 . S
C1229 C1225 1.393 . S
C1229 C1228 1.391 . S
C1230 H1220 0.950 . S
C1230 C1231 1.386 . S
C1230 C1232 1.391 . S
C1231 C1230 1.386 . S
C1231 C1235 1.393 . S
C1232 H1221 0.950 . S
C1232 C1230 1.391 . S
C1232 C1233 1.400 . S
C1233 C1227 1.491 . S
C1233 C1232 1.400 . S
C1233 C1234 1.398 . S
C1234 H1222 0.950 . S
C1234 C1233 1.398 . S
C1234 C1235 1.391 . S
C1235 H1223 0.950 . S
C1235 C1231 1.393 . S
C1235 C1234 1.391 . S
H1236 C1244 0.950 . S
H1237 C1249 0.950 . S
H1238 C1246 0.950 . S
H1239 C1248 0.950 . S
H1240 C1250 0.950 . S
H1241 C1252 0.950 . S
H1242 C1254 0.950 . S
H1243 C1255 0.950 . S
C1244 H1236 0.950 . S
C1244 C1245 1.386 . S
C1244 C1246 1.391 . S
C1245 C1244 1.386 . S
C1245 C1249 1.393 . S
C1246 H1238 0.950 . S
C1246 C1244 1.391 . S
C1246 C1247 1.400 . S
C1247 C1246 1.400 . S
C1247 C1248 1.398 . S
C1247 C1253 1.491 . S
C1248 H1239 0.950 . S
C1248 C1247 1.398 . S
C1248 C1249 1.391 . S
C1249 H1237 0.950 . S
C1249 C1245 1.393 . S
C1249 C1248 1.391 . S
C1250 H1240 0.950 . S
C1250 C1251 1.396 . S
C1250 C1252 1.391 . S
C1251 C1250 1.396 . S
C1251 C1255 1.406 . S
C1252 H1241 0.950 . S
C1252 C1250 1.391 . S
C1252 C1253 1.400 . S
C1253 C1247 1.491 . S
C1253 C1252 1.400 . S
C1253 C1254 1.398 . S
C1254 H1242 0.950 . S
C1254 C1253 1.398 . S
C1254 C1255 1.391 . S
C1255 H1243 0.950 . S
C1255 C1251 1.406 . S
C1255 C1254 1.391 . S
H1256 C1264 0.950 . S
H1257 C1269 0.950 . S
H1258 C1266 0.950 . S
H1259 C1268 0.950 . S
H1260 C1270 0.950 . S
H1261 C1272 0.950 . S
H1262 C1274 0.950 . S
H1263 C1275 0.950 . S
C1264 H1256 0.950 . S
C1264 C1265 1.396 . S
C1264 C1266 1.391 . S
C1265 C1264 1.396 . S
C1265 C1269 1.408 . S
C1266 H1258 0.950 . S
C1266 C1264 1.391 . S
C1266 C1267 1.400 . S
C1267 C1266 1.400 . S
C1267 C1268 1.398 . S
C1267 C1273 1.491 . S
C1268 H1259 0.950 . S
C1268 C1267 1.398 . S
C1268 C1269 1.391 . S
C1269 H1257 0.950 . S
C1269 C1265 1.408 . S
C1269 C1268 1.391 . S
C1270 H1260 0.950 . S
C1270 C1271 1.386 . S
C1270 C1272 1.391 . S
C1271 C1270 1.386 . S
C1271 C1275 1.393 . S
C1272 H1261 0.950 . S
C1272 C1270 1.391 . S
C1272 C1273 1.400 . S
C1273 C1267 1.491 . S
C1273 C1272 1.400 . S
C1273 C1274 1.398 . S
C1274 H1262 0.950 . S
C1274 C1273 1.398 . S
C1274 C1275 1.391 . S
C1275 H1263 0.950 . S
C1275 C1271 1.393 . S
C1275 C1274 1.391 . S
H1276 C1284 0.950 . S
H1277 C1289 0.950 . S
H1278 C1286 0.950 . S
H1279 C1288 0.950 . S
H1280 C1290 0.950 . S
H1281 C1292 0.950 . S
H1282 C1294 0.950 . S
H1283 C1295 0.950 . S
C1284 H1276 0.950 . S
C1284 C1285 1.386 . S
C1284 C1286 1.391 . S
C1285 C1284 1.386 . S
C1285 C1289 1.393 . S
C1286 H1278 0.950 . S
C1286 C1284 1.391 . S
C1286 C1287 1.400 . S
C1287 C1286 1.400 . S
C1287 C1288 1.398 . S
C1287 C1293 1.491 . S
C1288 H1279 0.950 . S
C1288 C1287 1.398 . S
C1288 C1289 1.391 . S
C1289 H1277 0.950 . S
C1289 C1285 1.393 . S
C1289 C1288 1.391 . S
C1290 H1280 0.950 . S
C1290 C1291 1.386 . S
C1290 C1292 1.391 . S
C1291 C1290 1.386 . S
C1291 C1295 1.393 . S
C1292 H1281 0.950 . S
C1292 C1290 1.391 . S
C1292 C1293 1.400 . S
C1293 C1287 1.491 . S
C1293 C1292 1.400 . S
C1293 C1294 1.398 . S
C1294 H1282 0.950 . S
C1294 C1293 1.398 . S
C1294 C1295 1.391 . S
C1295 H1283 0.950 . S
C1295 C1291 1.393 . S
C1295 C1294 1.391 . S
H1296 C1304 0.950 . S
H1297 C1309 0.950 . S
H1298 C1306 0.950 . S
H1299 C1308 0.950 . S
H1300 C1310 0.950 . S
H1301 C1312 0.950 . S
H1302 C1314 0.950 . S
H1303 C1315 0.950 . S
C1304 H1296 0.950 . S
C1304 C1305 1.386 . S
C1304 C1306 1.391 . S
C1305 C1304 1.386 . S
C1305 C1309 1.393 . S
C1306 H1298 0.950 . S
C1306 C1304 1.391 . S
C1306 C1307 1.400 . S
C1307 C1306 1.400 . S
C1307 C1308 1.398 . S
C1307 C1313 1.491 . S
C1308 H1299 0.950 . S
C1308 C1307 1.398 . S
C1308 C1309 1.391 . S
C1309 H1297 0.950 . S
C1309 C1305 1.393 . S
C1309 C1308 1.391 . S
C1310 H1300 0.950 . S
C1310 C1311 1.386 . S
C1310 C1312 1.391 . S
C1311 C1310 1.386 . S
C1311 C1315 1.393 . S
C1312 H1301 0.950 . S
C1312 C1310 1.391 . S
C1312 C1313 1.400 . S
C1313 C1307 1.491 . S
C1313 C1312 1.400 . S
C1313 C1314 1.398 . S
C1314 H1302 0.950 . S
C1314 C1313 1.398 . S
C1314 C1315 1.391 . S
C1315 H1303 0.950 . S
C1315 C1311 1.393 . S
C1315 C1314 1.391 . S
H1316 C1324 0.950 . S
H1317 C1329 0.939 1_556 S
H1318 C1326 0.950 . S
H1319 C1328 0.950 . S
H1320 C1330 0.950 . S
H1321 C1332 0.950 . S
H1322 C1334 0.950 . S
H1323 C1335 0.950 . S
C1324 H1316 0.950 . S
C1324 C1325 1.386 . S
C1324 C1326 1.391 . S
C1325 C1324 1.386 . S
C1325 C1329 1.393 . S
C1326 H1318 0.950 . S
C1326 C1324 1.391 . S
C1326 C1327 1.400 . S
C1327 C1326 1.400 . S
C1327 C1328 1.398 . S
C1327 C1333 1.491 . S
C1328 H1319 0.950 . S
C1328 C1327 1.398 . S
C1328 C1329 1.391 . S
C1329 H1317 0.939 1_554 S
C1329 C1325 1.393 . S
C1329 C1328 1.391 . S
C1330 H1320 0.950 . S
C1330 C1331 1.386 . S
C1330 C1332 1.391 . S
C1331 C1330 1.386 . S
C1331 C1335 1.393 . S
C1332 H1321 0.950 . S
C1332 C1330 1.391 . S
C1332 C1333 1.400 . S
C1333 C1327 1.491 . S
C1333 C1332 1.400 . S
C1333 C1334 1.398 . S
C1334 H1322 0.950 . S
C1334 C1333 1.398 . S
C1334 C1335 1.391 . S
C1335 H1323 0.950 . S
C1335 C1331 1.393 . S
C1335 C1334 1.391 . S
H1336 C1344 0.950 . S
H1337 C1349 0.950 . S
H1338 C1346 0.950 . S
H1339 C1348 0.950 . S
H1340 C1350 0.950 . S
H1341 C1352 0.950 . S
H1342 C1354 0.950 . S
H1343 C1355 0.950 . S
C1344 H1336 0.950 . S
C1344 C1345 1.386 . S
C1344 C1346 1.391 . S
C1345 C1344 1.386 . S
C1345 C1349 1.393 . S
C1346 H1338 0.950 . S
C1346 C1344 1.391 . S
C1346 C1347 1.400 . S
C1347 C1346 1.400 . S
C1347 C1348 1.398 . S
C1347 C1353 1.491 . S
C1348 H1339 0.950 . S
C1348 C1347 1.398 . S
C1348 C1349 1.391 . S
C1349 H1337 0.950 . S
C1349 C1345 1.393 . S
C1349 C1348 1.391 . S
C1350 H1340 0.950 . S
C1350 C1351 1.386 . S
C1350 C1352 1.391 . S
C1351 C1350 1.386 . S
C1351 C1355 1.393 . S
C1352 H1341 0.950 . S
C1352 C1350 1.391 . S
C1352 C1353 1.400 . S
C1353 C1347 1.491 . S
C1353 C1352 1.400 . S
C1353 C1354 1.398 . S
C1354 H1342 0.950 . S
C1354 C1353 1.398 . S
C1354 C1355 1.391 . S
C1355 H1343 0.950 . S
C1355 C1351 1.393 . S
C1355 C1354 1.391 . S
H1356 C1364 0.950 . S
H1357 C1369 0.950 . S
H1358 C1366 0.950 . S
H1359 C1368 0.950 . S
H1360 C1370 0.950 . S
H1361 C1372 0.950 . S
H1362 C1374 0.950 . S
H1363 C1375 0.950 . S
C1364 H1356 0.950 . S
C1364 C1365 1.386 . S
C1364 C1366 1.391 . S
C1365 C1364 1.386 . S
C1365 C1369 1.393 . S
C1366 H1358 0.950 . S
C1366 C1364 1.391 . S
C1366 C1367 1.400 . S
C1367 C1366 1.400 . S
C1367 C1368 1.398 . S
C1367 C1373 1.491 . S
C1368 H1359 0.950 . S
C1368 C1367 1.398 . S
C1368 C1369 1.391 . S
C1369 H1357 0.950 . S
C1369 C1365 1.393 . S
C1369 C1368 1.391 . S
C1370 H1360 0.950 . S
C1370 C1371 1.386 . S
C1370 C1372 1.391 . S
C1371 C1370 1.386 . S
C1371 C1375 1.393 . S
C1372 H1361 0.950 . S
C1372 C1370 1.391 . S
C1372 C1373 1.400 . S
C1373 C1367 1.491 . S
C1373 C1372 1.400 . S
C1373 C1374 1.398 . S
C1374 H1362 0.950 . S
C1374 C1373 1.398 . S
C1374 C1375 1.391 . S
C1375 H1363 0.950 . S
C1375 C1371 1.393 . S
C1375 C1374 1.391 . S
H1376 C1384 0.950 . S
H1377 C1389 0.950 . S
H1378 C1386 0.950 . S
H1379 C1388 0.950 . S
H1380 C1390 0.950 . S
H1381 C1392 0.950 . S
H1382 C1394 0.950 . S
H1383 C1395 0.950 . S
C1384 H1376 0.950 . S
C1384 C1385 1.386 . S
C1384 C1386 1.391 . S
C1385 C1384 1.386 . S
C1385 C1389 1.393 . S
C1386 H1378 0.950 . S
C1386 C1384 1.391 . S
C1386 C1387 1.400 . S
C1387 C1386 1.400 . S
C1387 C1388 1.398 . S
C1387 C1393 1.491 . S
C1388 H1379 0.950 . S
C1388 C1387 1.398 . S
C1388 C1389 1.391 . S
C1389 H1377 0.950 . S
C1389 C1385 1.393 . S
C1389 C1388 1.391 . S
C1390 H1380 0.950 . S
C1390 C1391 1.386 . S
C1390 C1392 1.391 . S
C1391 C1390 1.386 . S
C1391 C1395 1.393 . S
C1392 H1381 0.950 . S
C1392 C1390 1.391 . S
C1392 C1393 1.400 . S
C1393 C1387 1.491 . S
C1393 C1392 1.400 . S
C1393 C1394 1.398 . S
C1394 H1382 0.950 . S
C1394 C1393 1.398 . S
C1394 C1395 1.391 . S
C1395 H1383 0.950 . S
C1395 C1391 1.393 . S
C1395 C1394 1.391 . S
H1396 C1404 0.950 . S
H1397 C1409 0.950 . S
H1398 C1406 0.950 . S
H1399 C1408 0.950 . S
H1400 C1410 0.950 . S
H1401 C1412 0.950 . S
H1402 C1414 0.950 . S
H1403 C1415 0.950 1_554 S
C1404 H1396 0.950 . S
C1404 C1405 1.386 . S
C1404 C1406 1.391 . S
C1405 C1404 1.386 . S
C1405 C1409 1.393 . S
C1406 H1398 0.950 . S
C1406 C1404 1.391 . S
C1406 C1407 1.400 . S
C1407 C1406 1.400 . S
C1407 C1408 1.398 . S
C1407 C1413 1.491 . S
C1408 H1399 0.950 . S
C1408 C1407 1.398 . S
C1408 C1409 1.391 . S
C1409 H1397 0.950 . S
C1409 C1405 1.393 . S
C1409 C1408 1.391 . S
C1410 H1400 0.950 . S
C1410 C1411 1.386 . S
C1410 C1412 1.391 . S
C1411 C1410 1.386 . S
C1411 C1415 1.393 . S
C1412 H1401 0.950 . S
C1412 C1410 1.391 . S
C1412 C1413 1.400 . S
C1413 C1407 1.491 . S
C1413 C1412 1.400 . S
C1413 C1414 1.398 . S
C1414 H1402 0.950 . S
C1414 C1413 1.398 . S
C1414 C1415 1.391 . S
C1415 H1403 0.950 1_556 S
C1415 C1411 1.393 . S
C1415 C1414 1.391 . S
H1416 C1424 0.950 . S
H1417 C1429 0.950 . S
H1418 C1426 0.950 . S
H1419 C1428 0.950 . S
H1420 C1430 0.950 . S
H1421 C1432 0.950 . S
H1422 C1434 0.950 . S
H1423 C1435 0.950 . S
C1424 H1416 0.950 . S
C1424 C1425 1.386 . S
C1424 C1426 1.391 . S
C1425 C1424 1.386 . S
C1425 C1429 1.393 . S
C1426 H1418 0.950 . S
C1426 C1424 1.391 . S
C1426 C1427 1.400 . S
C1427 C1426 1.400 . S
C1427 C1428 1.398 . S
C1427 C1433 1.491 . S
C1428 H1419 0.950 . S
C1428 C1427 1.398 . S
C1428 C1429 1.391 . S
C1429 H1417 0.950 . S
C1429 C1425 1.393 . S
C1429 C1428 1.391 . S
C1430 H1420 0.950 . S
C1430 C1431 1.386 . S
C1430 C1432 1.391 . S
C1431 C1430 1.386 . S
C1431 C1435 1.393 . S
C1432 H1421 0.950 . S
C1432 C1430 1.391 . S
C1432 C1433 1.400 . S
C1433 C1427 1.491 . S
C1433 C1432 1.400 . S
C1433 C1434 1.398 . S
C1434 H1422 0.950 . S
C1434 C1433 1.398 . S
C1434 C1435 1.391 . S
C1435 H1423 0.950 . S
C1435 C1431 1.393 . S
C1435 C1434 1.391 . S
H1436 C1444 0.950 . S
H1437 C1449 0.950 . S
H1438 C1446 0.950 . S
H1439 C1448 0.950 . S
H1440 C1450 0.950 . S
H1441 C1452 0.950 . S
H1442 C1454 0.950 . S
H1443 C1455 0.950 . S
C1444 H1436 0.950 . S
C1444 C1445 1.386 . S
C1444 C1446 1.391 . S
C1445 C1444 1.386 . S
C1445 C1449 1.393 . S
C1446 H1438 0.950 . S
C1446 C1444 1.391 . S
C1446 C1447 1.400 . S
C1447 C1446 1.400 . S
C1447 C1448 1.398 . S
C1447 C1453 1.491 . S
C1448 H1439 0.950 . S
C1448 C1447 1.398 . S
C1448 C1449 1.391 . S
C1449 H1437 0.950 . S
C1449 C1445 1.393 . S
C1449 C1448 1.391 . S
C1450 H1440 0.950 . S
C1450 C1451 1.386 . S
C1450 C1452 1.391 . S
C1451 C1450 1.386 . S
C1451 C1455 1.393 . S
C1452 H1441 0.950 . S
C1452 C1450 1.391 . S
C1452 C1453 1.400 . S
C1453 C1447 1.491 . S
C1453 C1452 1.400 . S
C1453 C1454 1.398 . S
C1454 H1442 0.950 . S
C1454 C1453 1.398 . S
C1454 C1455 1.391 . S
C1455 H1443 0.950 . S
C1455 C1451 1.393 . S
C1455 C1454 1.391 . S
H1456 C1464 0.950 . S
H1457 C1469 0.950 . S
H1458 C1466 0.950 . S
H1459 C1468 0.950 . S
H1460 C1470 0.950 . S
H1461 C1472 0.950 . S
H1462 C1474 0.950 . S
H1463 C1475 0.950 . S
C1464 H1456 0.950 . S
C1464 C1465 1.386 . S
C1464 C1466 1.391 . S
C1465 C1464 1.386 . S
C1465 C1469 1.393 . S
C1466 H1458 0.950 . S
C1466 C1464 1.391 . S
C1466 C1467 1.400 . S
C1467 C1466 1.400 . S
C1467 C1468 1.398 . S
C1467 C1473 1.491 . S
C1468 H1459 0.950 . S
C1468 C1467 1.398 . S
C1468 C1469 1.391 . S
C1469 H1457 0.950 . S
C1469 C1465 1.393 . S
C1469 C1468 1.391 . S
C1470 H1460 0.950 . S
C1470 C1471 1.386 . S
C1470 C1472 1.391 . S
C1471 C1470 1.386 . S
C1471 C1475 1.393 . S
C1472 H1461 0.950 . S
C1472 C1470 1.391 . S
C1472 C1473 1.400 . S
C1473 C1467 1.491 . S
C1473 C1472 1.400 . S
C1473 C1474 1.398 . S
C1474 H1462 0.950 . S
C1474 C1473 1.398 . S
C1474 C1475 1.391 . S
C1475 H1463 0.950 . S
C1475 C1471 1.393 . S
C1475 C1474 1.391 . S
H1476 C1484 0.950 . S
H1477 C1489 0.950 . S
H1478 C1486 0.950 . S
H1479 C1488 0.950 . S
H1480 C1490 0.950 . S
H1481 C1492 0.950 . S
H1482 C1494 0.950 . S
H1483 C1495 0.950 . S
C1484 H1476 0.950 . S
C1484 C1485 1.386 . S
C1484 C1486 1.391 . S
C1485 C1484 1.386 . S
C1485 C1489 1.393 . S
C1486 H1478 0.950 . S
C1486 C1484 1.391 . S
C1486 C1487 1.400 . S
C1487 C1486 1.400 . S
C1487 C1488 1.398 . S
C1487 C1493 1.491 . S
C1488 H1479 0.950 . S
C1488 C1487 1.398 . S
C1488 C1489 1.391 . S
C1489 H1477 0.950 . S
C1489 C1485 1.393 . S
C1489 C1488 1.391 . S
C1490 H1480 0.950 . S
C1490 C1491 1.386 . S
C1490 C1492 1.391 . S
C1491 C1490 1.386 . S
C1491 C1495 1.393 . S
C1492 H1481 0.950 . S
C1492 C1490 1.391 . S
C1492 C1493 1.400 . S
C1493 C1487 1.491 . S
C1493 C1492 1.400 . S
C1493 C1494 1.398 . S
C1494 H1482 0.950 . S
C1494 C1493 1.398 . S
C1494 C1495 1.391 . S
C1495 H1483 0.950 . S
C1495 C1491 1.393 . S
C1495 C1494 1.391 . S
H1496 C1504 0.950 . S
H1497 C1509 0.950 . S
H1498 C1506 0.950 . S
H1499 C1508 0.950 . S
H1500 C1510 0.950 . S
H1501 C1512 0.950 . S
H1502 C1514 0.950 . S
H1503 C1515 0.950 . S
C1504 H1496 0.950 . S
C1504 C1505 1.386 . S
C1504 C1506 1.391 . S
C1505 C1504 1.386 . S
C1505 C1509 1.393 . S
C1506 H1498 0.950 . S
C1506 C1504 1.391 . S
C1506 C1507 1.400 . S
C1507 C1506 1.400 . S
C1507 C1508 1.398 . S
C1507 C1513 1.491 . S
C1508 H1499 0.950 . S
C1508 C1507 1.398 . S
C1508 C1509 1.391 . S
C1509 H1497 0.950 . S
C1509 C1505 1.393 . S
C1509 C1508 1.391 . S
C1510 H1500 0.950 . S
C1510 C1511 1.386 . S
C1510 C1512 1.391 . S
C1511 C1510 1.386 . S
C1511 C1515 1.393 . S
C1512 H1501 0.950 . S
C1512 C1510 1.391 . S
C1512 C1513 1.400 . S
C1513 C1507 1.491 . S
C1513 C1512 1.400 . S
C1513 C1514 1.398 . S
C1514 H1502 0.950 . S
C1514 C1513 1.398 . S
C1514 C1515 1.391 . S
C1515 H1503 0.950 . S
C1515 C1511 1.393 . S
C1515 C1514 1.391 . S
H1516 C1524 0.950 . S
H1517 C1529 0.950 . S
H1518 C1526 0.950 . S
H1519 C1528 0.950 . S
H1520 C1530 0.950 . S
H1521 C1532 0.950 . S
H1522 C1534 0.950 . S
H1523 C1535 0.950 . S
C1524 H1516 0.950 . S
C1524 C1525 1.386 . S
C1524 C1526 1.391 . S
C1525 C1524 1.386 . S
C1525 C1529 1.393 . S
C1526 H1518 0.950 . S
C1526 C1524 1.391 . S
C1526 C1527 1.400 . S
C1527 C1526 1.400 . S
C1527 C1528 1.398 . S
C1527 C1533 1.491 . S
C1528 H1519 0.950 . S
C1528 C1527 1.398 . S
C1528 C1529 1.391 . S
C1529 H1517 0.950 . S
C1529 C1525 1.393 . S
C1529 C1528 1.391 . S
C1530 H1520 0.950 . S
C1530 C1531 1.386 . S
C1530 C1532 1.391 . S
C1531 C1530 1.386 . S
C1531 C1535 1.393 . S
C1532 H1521 0.950 . S
C1532 C1530 1.391 . S
C1532 C1533 1.400 . S
C1533 C1527 1.491 . S
C1533 C1532 1.400 . S
C1533 C1534 1.398 . S
C1534 H1522 0.950 . S
C1534 C1533 1.398 . S
C1534 C1535 1.391 . S
C1535 H1523 0.950 . S
C1535 C1531 1.393 . S
C1535 C1534 1.391 . S
H1536 C1544 0.950 . S
H1537 C1549 0.950 . S
H1538 C1546 0.950 . S
H1539 C1548 0.950 . S
H1540 C1550 0.950 . S
H1541 C1552 0.950 . S
H1542 C1554 0.950 . S
H1543 C1555 0.950 . S
C1544 H1536 0.950 . S
C1544 C1545 1.386 . S
C1544 C1546 1.391 . S
C1545 C1544 1.386 . S
C1545 C1549 1.393 . S
C1546 H1538 0.950 . S
C1546 C1544 1.391 . S
C1546 C1547 1.400 . S
C1547 C1546 1.400 . S
C1547 C1548 1.398 . S
C1547 C1553 1.491 . S
C1548 H1539 0.950 . S
C1548 C1547 1.398 . S
C1548 C1549 1.391 . S
C1549 H1537 0.950 . S
C1549 C1545 1.393 . S
C1549 C1548 1.391 . S
C1550 H1540 0.950 . S
C1550 C1551 1.386 . S
C1550 C1552 1.391 . S
C1551 C1550 1.386 . S
C1551 C1555 1.393 . S
C1552 H1541 0.950 . S
C1552 C1550 1.391 . S
C1552 C1553 1.400 . S
C1553 C1547 1.491 . S
C1553 C1552 1.400 . S
C1553 C1554 1.398 . S
C1554 H1542 0.950 . S
C1554 C1553 1.398 . S
C1554 C1555 1.391 . S
C1555 H1543 0.950 . S
C1555 C1551 1.393 . S
C1555 C1554 1.391 . S
H1556 C1564 0.950 . S
H1557 C1569 0.950 . S
H1558 C1566 0.950 . S
H1559 C1568 0.950 . S
H1560 C1570 0.950 . S
H1561 C1572 0.950 . S
H1562 C1574 0.950 . S
H1563 C1575 0.950 . S
C1564 H1556 0.950 . S
C1564 C1565 1.386 . S
C1564 C1566 1.391 . S
C1565 C1564 1.386 . S
C1565 C1569 1.393 . S
C1566 H1558 0.950 . S
C1566 C1564 1.391 . S
C1566 C1567 1.400 . S
C1567 C1566 1.400 . S
C1567 C1568 1.398 . S
C1567 C1573 1.491 . S
C1568 H1559 0.950 . S
C1568 C1567 1.398 . S
C1568 C1569 1.391 . S
C1569 H1557 0.950 . S
C1569 C1565 1.393 . S
C1569 C1568 1.391 . S
C1570 H1560 0.950 . S
C1570 C1571 1.386 . S
C1570 C1572 1.391 . S
C1571 C1570 1.386 . S
C1571 C1575 1.393 . S
C1572 H1561 0.950 . S
C1572 C1570 1.391 . S
C1572 C1573 1.400 . S
C1573 C1567 1.491 . S
C1573 C1572 1.400 . S
C1573 C1574 1.398 . S
C1574 H1562 0.950 . S
C1574 C1573 1.398 . S
C1574 C1575 1.391 . S
C1575 H1563 0.950 . S
C1575 C1571 1.393 . S
C1575 C1574 1.391 . S
H1576 C1584 0.950 . S
H1577 C1589 0.950 . S
H1578 C1586 0.950 . S
H1579 C1588 0.950 . S
H1580 C1590 0.950 . S
H1581 C1592 0.950 . S
H1582 C1594 0.950 . S
H1583 C1595 0.950 . S
C1584 H1576 0.950 . S
C1584 C1585 1.386 . S
C1584 C1586 1.391 . S
C1585 C1584 1.386 . S
C1585 C1589 1.393 . S
C1586 H1578 0.950 . S
C1586 C1584 1.391 . S
C1586 C1587 1.400 . S
C1587 C1586 1.400 . S
C1587 C1588 1.398 . S
C1587 C1593 1.491 . S
C1588 H1579 0.950 . S
C1588 C1587 1.398 . S
C1588 C1589 1.391 . S
C1589 H1577 0.950 . S
C1589 C1585 1.393 . S
C1589 C1588 1.391 . S
C1590 H1580 0.950 . S
C1590 C1591 1.386 . S
C1590 C1592 1.391 . S
C1591 C1590 1.386 . S
C1591 C1595 1.393 . S
C1592 H1581 0.950 . S
C1592 C1590 1.391 . S
C1592 C1593 1.400 . S
C1593 C1587 1.491 . S
C1593 C1592 1.400 . S
C1593 C1594 1.398 . S
C1594 H1582 0.950 . S
C1594 C1593 1.398 . S
C1594 C1595 1.391 . S
C1595 H1583 0.950 . S
C1595 C1591 1.393 . S
C1595 C1594 1.391 . S
H1596 C1604 0.950 . S
H1597 C1609 0.950 . S
H1598 C1606 0.950 . S
H1599 C1608 0.950 . S
H1600 C1610 0.950 . S
H1601 C1612 0.950 . S
H1602 C1614 0.950 . S
H1603 C1615 0.950 . S
C1604 H1596 0.950 . S
C1604 C1605 1.386 . S
C1604 C1606 1.391 . S
C1605 C1604 1.386 . S
C1605 C1609 1.393 . S
C1606 H1598 0.950 . S
C1606 C1604 1.391 . S
C1606 C1607 1.400 . S
C1607 C1606 1.400 . S
C1607 C1608 1.398 . S
C1607 C1613 1.491 . S
C1608 H1599 0.950 . S
C1608 C1607 1.398 . S
C1608 C1609 1.391 . S
C1609 H1597 0.950 . S
C1609 C1605 1.393 . S
C1609 C1608 1.391 . S
C1610 H1600 0.950 . S
C1610 C1611 1.386 . S
C1610 C1612 1.391 . S
C1611 C1610 1.386 . S
C1611 C1615 1.393 . S
C1612 H1601 0.950 . S
C1612 C1610 1.391 . S
C1612 C1613 1.400 . S
C1613 C1607 1.491 . S
C1613 C1612 1.400 . S
C1613 C1614 1.398 . S
C1614 H1602 0.950 . S
C1614 C1613 1.398 . S
C1614 C1615 1.391 . S
C1615 H1603 0.950 . S
C1615 C1611 1.393 . S
C1615 C1614 1.391 . S
H1616 C1624 0.942 1_554 S
H1617 C1629 0.950 . S
H1618 C1626 0.950 . S
H1619 C1628 0.950 . S
H1620 C1630 0.950 . S
H1621 C1632 0.950 . S
H1622 C1634 0.950 . S
H1623 C1635 0.950 . S
C1624 H1616 0.942 1_556 S
C1624 C1625 1.386 . S
C1624 C1626 1.391 . S
C1625 C1624 1.386 . S
C1625 C1629 1.393 . S
C1626 H1618 0.950 . S
C1626 C1624 1.391 . S
C1626 C1627 1.400 . S
C1627 C1626 1.400 . S
C1627 C1628 1.398 . S
C1627 C1633 1.491 . S
C1628 H1619 0.950 . S
C1628 C1627 1.398 . S
C1628 C1629 1.391 . S
C1629 H1617 0.950 . S
C1629 C1625 1.393 . S
C1629 C1628 1.391 . S
C1630 H1620 0.950 . S
C1630 C1631 1.386 . S
C1630 C1632 1.391 . S
C1631 C1630 1.386 . S
C1631 C1635 1.393 . S
C1632 H1621 0.950 . S
C1632 C1630 1.391 . S
C1632 C1633 1.400 . S
C1633 C1627 1.491 . S
C1633 C1632 1.400 . S
C1633 C1634 1.398 . S
C1634 H1622 0.950 . S
C1634 C1633 1.398 . S
C1634 C1635 1.391 . S
C1635 H1623 0.950 . S
C1635 C1631 1.393 . S
C1635 C1634 1.391 . S
H1636 C1644 0.950 . S
H1637 C1649 0.950 . S
H1638 C1646 0.950 . S
H1639 C1648 0.950 . S
H1640 C1650 0.950 . S
H1641 C1652 0.950 . S
H1642 C1654 0.950 . S
H1643 C1655 0.950 . S
C1644 H1636 0.950 . S
C1644 C1645 1.386 . S
C1644 C1646 1.391 . S
C1645 C1644 1.386 . S
C1645 C1649 1.393 . S
C1646 H1638 0.950 . S
C1646 C1644 1.391 . S
C1646 C1647 1.400 . S
C1647 C1646 1.400 . S
C1647 C1648 1.398 . S
C1647 C1653 1.491 . S
C1648 H1639 0.950 . S
C1648 C1647 1.398 . S
C1648 C1649 1.391 . S
C1649 H1637 0.950 . S
C1649 C1645 1.393 . S
C1649 C1648 1.391 . S
C1650 H1640 0.950 . S
C1650 C1651 1.386 . S
C1650 C1652 1.391 . S
C1651 C1650 1.386 . S
C1651 C1655 1.393 . S
C1652 H1641 0.950 . S
C1652 C1650 1.391 . S
C1652 C1653 1.400 . S
C1653 C1647 1.491 . S
C1653 C1652 1.400 . S
C1653 C1654 1.398 . S
C1654 H1642 0.950 . S
C1654 C1653 1.398 . S
C1654 C1655 1.391 . S
C1655 H1643 0.950 . S
C1655 C1651 1.393 . S
C1655 C1654 1.391 . S
H1656 C1664 0.950 . S
H1657 C1669 0.950 . S
H1658 C1666 0.950 . S
H1659 C1668 0.950 . S
H1660 C1670 0.950 . S
H1661 C1672 0.950 . S
H1662 C1674 0.950 . S
H1663 C1675 0.950 . S
C1664 H1656 0.950 . S
C1664 C1665 1.386 . S
C1664 C1666 1.391 . S
C1665 C1664 1.386 . S
C1665 C1669 1.393 . S
C1666 H1658 0.950 . S
C1666 C1664 1.391 . S
C1666 C1667 1.400 . S
C1667 C1666 1.400 . S
C1667 C1668 1.398 . S
C1667 C1673 1.491 . S
C1668 H1659 0.950 . S
C1668 C1667 1.398 . S
C1668 C1669 1.391 . S
C1669 H1657 0.950 . S
C1669 C1665 1.393 . S
C1669 C1668 1.391 . S
C1670 H1660 0.950 . S
C1670 C1671 1.386 . S
C1670 C1672 1.391 . S
C1671 C1670 1.386 . S
C1671 C1675 1.393 . S
C1672 H1661 0.950 . S
C1672 C1670 1.391 . S
C1672 C1673 1.400 . S
C1673 C1667 1.491 . S
C1673 C1672 1.400 . S
C1673 C1674 1.398 . S
C1674 H1662 0.950 . S
C1674 C1673 1.398 . S
C1674 C1675 1.391 . S
C1675 H1663 0.950 . S
C1675 C1671 1.393 . S
C1675 C1674 1.391 . S
H1676 C1684 0.950 . S
H1677 C1689 0.950 . S
H1678 C1686 0.950 . S
H1679 C1688 0.950 . S
H1680 C1690 0.950 . S
H1681 C1692 0.950 . S
H1682 C1694 0.950 . S
H1683 C1695 0.950 . S
C1684 H1676 0.950 . S
C1684 C1685 1.386 . S
C1684 C1686 1.391 . S
C1685 C1684 1.386 . S
C1685 C1689 1.393 . S
C1686 H1678 0.950 . S
C1686 C1684 1.391 . S
C1686 C1687 1.400 . S
C1687 C1686 1.400 . S
C1687 C1688 1.398 . S
C1687 C1693 1.491 . S
C1688 H1679 0.950 . S
C1688 C1687 1.398 . S
C1688 C1689 1.391 . S
C1689 H1677 0.950 . S
C1689 C1685 1.393 . S
C1689 C1688 1.391 . S
C1690 H1680 0.950 . S
C1690 C1691 1.386 . S
C1690 C1692 1.391 . S
C1691 C1690 1.386 . S
C1691 C1695 1.393 . S
C1692 H1681 0.950 . S
C1692 C1690 1.391 . S
C1692 C1693 1.400 . S
C1693 C1687 1.491 . S
C1693 C1692 1.400 . S
C1693 C1694 1.398 . S
C1694 H1682 0.950 . S
C1694 C1693 1.398 . S
C1694 C1695 1.391 . S
C1695 H1683 0.950 . S
C1695 C1691 1.393 . S
C1695 C1694 1.391 . S
H1696 C1704 0.950 . S
H1697 C1709 0.950 . S
H1698 C1706 0.950 . S
H1699 C1708 0.950 . S
H1700 C1710 0.950 . S
H1701 C1712 0.950 . S
H1702 C1714 0.950 . S
H1703 C1715 0.950 . S
C1704 H1696 0.950 . S
C1704 C1705 1.386 . S
C1704 C1706 1.391 . S
C1705 C1704 1.386 . S
C1705 C1709 1.393 . S
C1706 H1698 0.950 . S
C1706 C1704 1.391 . S
C1706 C1707 1.400 . S
C1707 C1706 1.400 . S
C1707 C1708 1.398 . S
C1707 C1713 1.491 . S
C1708 H1699 0.950 . S
C1708 C1707 1.398 . S
C1708 C1709 1.391 . S
C1709 H1697 0.950 . S
C1709 C1705 1.393 . S
C1709 C1708 1.391 . S
C1710 H1700 0.950 . S
C1710 C1711 1.386 . S
C1710 C1712 1.391 . S
C1711 C1710 1.386 . S
C1711 C1715 1.393 . S
C1712 H1701 0.950 . S
C1712 C1710 1.391 . S
C1712 C1713 1.400 . S
C1713 C1707 1.491 . S
C1713 C1712 1.400 . S
C1713 C1714 1.398 . S
C1714 H1702 0.950 . S
C1714 C1713 1.398 . S
C1714 C1715 1.391 . S
C1715 H1703 0.950 . S
C1715 C1711 1.393 . S
C1715 C1714 1.391 . S
H1716 C1724 0.950 . S
H1717 C1729 0.950 . S
H1718 C1726 0.950 . S
H1719 C1728 0.950 . S
H1720 C1730 0.950 . S
H1721 C1732 0.950 . S
H1722 C1734 0.950 . S
H1723 C1735 0.950 . S
C1724 H1716 0.950 . S
C1724 C1725 1.386 . S
C1724 C1726 1.391 . S
C1725 C1724 1.386 . S
C1725 C1729 1.393 . S
C1726 H1718 0.950 . S
C1726 C1724 1.391 . S
C1726 C1727 1.400 . S
C1727 C1726 1.400 . S
C1727 C1728 1.398 . S
C1727 C1733 1.491 1_565 S
C1728 H1719 0.950 . S
C1728 C1727 1.398 . S
C1728 C1729 1.391 . S
C1729 H1717 0.950 . S
C1729 C1725 1.393 . S
C1729 C1728 1.391 . S
C1730 H1720 0.950 . S
C1730 C1731 1.386 . S
C1730 C1732 1.391 . S
C1731 C1730 1.386 . S
C1731 C1735 1.393 . S
C1732 H1721 0.950 . S
C1732 C1730 1.391 . S
C1732 C1733 1.400 . S
C1733 C1727 1.491 1_545 S
C1733 C1732 1.400 . S
C1733 C1734 1.398 . S
C1734 H1722 0.950 . S
C1734 C1733 1.398 . S
C1734 C1735 1.391 . S
C1735 H1723 0.950 . S
C1735 C1731 1.393 . S
C1735 C1734 1.391 . S
H1736 C1744 0.950 . S
H1737 C1749 0.950 1_556 S
H1738 C1746 0.950 . S
H1739 C1748 0.950 . S
H1740 C1750 0.950 . S
H1741 C1752 0.950 . S
H1742 C1754 0.950 . S
H1743 C1755 0.950 1_554 S
C1744 H1736 0.950 . S
C1744 C1745 1.386 . S
C1744 C1746 1.391 . S
C1745 C1744 1.386 . S
C1745 C1749 1.393 . S
C1746 H1738 0.950 . S
C1746 C1744 1.391 . S
C1746 C1747 1.400 . S
C1747 C1746 1.400 . S
C1747 C1748 1.398 1_554 S
C1747 C1753 1.491 1_554 S
C1748 H1739 0.950 . S
C1748 C1747 1.398 1_556 S
C1748 C1749 1.391 1_556 S
C1749 H1737 0.950 1_554 S
C1749 C1745 1.393 . S
C1749 C1748 1.391 1_554 S
C1750 H1740 0.950 . S
C1750 C1751 1.386 . S
C1750 C1752 1.391 . S
C1751 C1750 1.386 . S
C1751 C1755 1.393 . S
C1752 H1741 0.950 . S
C1752 C1750 1.391 . S
C1752 C1753 1.400 . S
C1753 C1747 1.491 1_556 S
C1753 C1752 1.400 . S
C1753 C1754 1.398 1_556 S
C1754 H1742 0.950 . S
C1754 C1753 1.398 1_554 S
C1754 C1755 1.391 1_554 S
C1755 H1743 0.950 1_556 S
C1755 C1751 1.393 . S
C1755 C1754 1.391 1_556 S
H1756 C1764 0.950 . S
H1757 C1769 0.950 . S
H1758 C1766 0.950 1_545 S
H1759 C1768 0.950 . S
H1760 C1770 0.950 . S
H1761 C1772 0.950 1_565 S
H1762 C1774 0.950 . S
H1763 C1775 0.950 . S
C1764 H1756 0.950 . S
C1764 C1765 1.386 . S
C1764 C1766 1.391 . S
C1765 C1764 1.386 . S
C1765 C1769 1.393 . S
C1766 H1758 0.950 1_565 S
C1766 C1764 1.391 . S
C1766 C1767 1.400 . S
C1767 C1766 1.400 . S
C1767 C1768 1.398 . S
C1767 C1773 1.491 1_565 S
C1768 H1759 0.950 . S
C1768 C1767 1.398 . S
C1768 C1769 1.391 . S
C1769 H1757 0.950 . S
C1769 C1765 1.393 . S
C1769 C1768 1.391 . S
C1770 H1760 0.950 . S
C1770 C1771 1.386 . S
C1770 C1772 1.391 . S
C1771 C1770 1.386 . S
C1771 C1775 1.393 . S
C1772 H1761 0.950 1_545 S
C1772 C1770 1.391 . S
C1772 C1773 1.400 . S
C1773 C1767 1.491 1_545 S
C1773 C1772 1.400 . S
C1773 C1774 1.398 . S
C1774 H1762 0.950 . S
C1774 C1773 1.398 . S
C1774 C1775 1.391 . S
C1775 H1763 0.950 . S
C1775 C1771 1.393 . S
C1775 C1774 1.391 . S
H1776 C1784 0.950 . S
H1777 C1789 0.950 . S
H1778 C1786 0.950 . S
H1779 C1788 0.950 . S
H1780 C1790 0.950 . S
H1781 C1792 0.950 . S
H1782 C1794 0.950 . S
H1783 C1795 0.950 . S
C1784 H1776 0.950 . S
C1784 C1785 1.386 . S
C1784 C1786 1.391 . S
C1785 C1784 1.386 . S
C1785 C1789 1.393 . S
C1786 H1778 0.950 . S
C1786 C1784 1.391 . S
C1786 C1787 1.400 . S
C1787 C1786 1.400 . S
C1787 C1788 1.398 . S
C1787 C1793 1.491 . S
C1788 H1779 0.950 . S
C1788 C1787 1.398 . S
C1788 C1789 1.391 . S
C1789 H1777 0.950 . S
C1789 C1785 1.393 . S
C1789 C1788 1.391 . S
C1790 H1780 0.950 . S
C1790 C1791 1.386 . S
C1790 C1792 1.391 . S
C1791 C1790 1.386 . S
C1791 C1795 1.393 . S
C1792 H1781 0.950 . S
C1792 C1790 1.391 . S
C1792 C1793 1.400 . S
C1793 C1787 1.491 . S
C1793 C1792 1.400 . S
C1793 C1794 1.398 . S
C1794 H1782 0.950 . S
C1794 C1793 1.398 . S
C1794 C1795 1.391 . S
C1795 H1783 0.950 . S
C1795 C1791 1.393 . S
C1795 C1794 1.391 . S
H1796 C1804 0.950 . S
H1797 C1809 0.950 . S
H1798 C1806 0.950 . S
H1799 C1808 0.950 1_545 S
H1800 C1810 0.950 . S
H1801 C1812 0.950 . S
H1802 C1814 0.950 1_565 S
H1803 C1815 0.950 . S
C1804 H1796 0.950 . S
C1804 C1805 1.386 . S
C1804 C1806 1.391 . S
C1805 C1804 1.386 . S
C1805 C1809 1.393 . S
C1806 H1798 0.950 . S
C1806 C1804 1.391 . S
C1806 C1807 1.400 . S
C1807 C1806 1.400 . S
C1807 C1808 1.398 . S
C1807 C1813 1.491 1_565 S
C1808 H1799 0.950 1_565 S
C1808 C1807 1.398 . S
C1808 C1809 1.391 . S
C1809 H1797 0.950 . S
C1809 C1805 1.393 . S
C1809 C1808 1.391 . S
C1810 H1800 0.950 . S
C1810 C1811 1.386 . S
C1810 C1812 1.391 . S
C1811 C1810 1.386 . S
C1811 C1815 1.393 . S
C1812 H1801 0.950 . S
C1812 C1810 1.391 . S
C1812 C1813 1.400 . S
C1813 C1807 1.491 1_545 S
C1813 C1812 1.400 . S
C1813 C1814 1.398 . S
C1814 H1802 0.950 1_545 S
C1814 C1813 1.398 . S
C1814 C1815 1.391 . S
C1815 H1803 0.950 . S
C1815 C1811 1.393 . S
C1815 C1814 1.391 . S
H1816 C1824 0.950 . S
H1817 C1829 0.950 . S
H1818 C1826 0.950 . S
H1819 C1828 0.950 . S
H1820 C1830 0.950 . S
H1821 C1832 0.950 . S
H1822 C1834 0.950 . S
H1823 C1835 0.950 . S
C1824 H1816 0.950 . S
C1824 C1825 1.386 . S
C1824 C1826 1.391 . S
C1825 C1824 1.386 . S
C1825 C1829 1.393 . S
C1826 H1818 0.950 . S
C1826 C1824 1.391 . S
C1826 C1827 1.400 . S
C1827 C1826 1.400 . S
C1827 C1828 1.398 1_556 S
C1827 C1833 1.491 1_556 S
C1828 H1819 0.950 . S
C1828 C1827 1.398 1_554 S
C1828 C1829 1.391 1_554 S
C1829 H1817 0.950 . S
C1829 C1825 1.393 . S
C1829 C1828 1.391 1_556 S
C1830 H1820 0.950 . S
C1830 C1831 1.386 . S
C1830 C1832 1.391 . S
C1831 C1830 1.386 . S
C1831 C1835 1.393 . S
C1832 H1821 0.950 . S
C1832 C1830 1.391 . S
C1832 C1833 1.400 . S
C1833 C1827 1.491 1_554 S
C1833 C1832 1.400 . S
C1833 C1834 1.398 1_554 S
C1834 H1822 0.950 . S
C1834 C1833 1.398 1_556 S
C1834 C1835 1.391 1_556 S
C1835 H1823 0.950 . S
C1835 C1831 1.393 . S
C1835 C1834 1.391 1_554 S
H1836 C1844 0.950 . S
H1837 C1849 0.950 . S
H1838 C1846 0.950 . S
H1839 C1848 0.950 . S
H1840 C1850 0.950 . S
H1841 C1852 0.950 . S
H1842 C1854 0.950 . S
H1843 C1855 0.950 . S
C1844 H1836 0.950 . S
C1844 C1845 1.386 . S
C1844 C1846 1.391 . S
C1845 C1844 1.386 . S
C1845 C1849 1.393 . S
C1846 H1838 0.950 . S
C1846 C1844 1.391 . S
C1846 C1847 1.400 . S
C1847 C1846 1.400 . S
C1847 C1848 1.398 . S
C1847 C1853 1.491 1_545 S
C1848 H1839 0.950 . S
C1848 C1847 1.398 . S
C1848 C1849 1.391 . S
C1849 H1837 0.950 . S
C1849 C1845 1.393 . S
C1849 C1848 1.391 . S
C1850 H1840 0.950 . S
C1850 C1851 1.386 . S
C1850 C1852 1.391 . S
C1851 C1850 1.386 . S
C1851 C1855 1.393 . S
C1852 H1841 0.950 . S
C1852 C1850 1.391 . S
C1852 C1853 1.400 . S
C1853 C1847 1.491 1_565 S
C1853 C1852 1.400 . S
C1853 C1854 1.398 . S
C1854 H1842 0.950 . S
C1854 C1853 1.398 . S
C1854 C1855 1.391 . S
C1855 H1843 0.950 . S
C1855 C1851 1.393 . S
C1855 C1854 1.391 . S
H1856 C1864 0.950 . S
H1857 C1869 0.950 . S
H1858 C1866 0.950 . S
H1859 C1868 0.950 . S
H1860 C1870 0.950 . S
H1861 C1872 0.950 . S
H1862 C1874 0.950 . S
H1863 C1875 0.950 . S
C1864 H1856 0.950 . S
C1864 C1865 1.386 . S
C1864 C1866 1.391 . S
C1865 C1864 1.386 . S
C1865 C1869 1.393 . S
C1866 H1858 0.950 . S
C1866 C1864 1.391 . S
C1866 C1867 1.400 . S
C1867 C1866 1.400 . S
C1867 C1868 1.398 1_556 S
C1867 C1873 1.491 1_556 S
C1868 H1859 0.950 . S
C1868 C1867 1.398 1_554 S
C1868 C1869 1.391 1_554 S
C1869 H1857 0.950 . S
C1869 C1865 1.393 . S
C1869 C1868 1.391 1_556 S
C1870 H1860 0.950 . S
C1870 C1871 1.386 . S
C1870 C1872 1.391 . S
C1871 C1870 1.386 . S
C1871 C1875 1.393 . S
C1872 H1861 0.950 . S
C1872 C1870 1.391 . S
C1872 C1873 1.400 . S
C1873 C1867 1.491 1_554 S
C1873 C1872 1.400 . S
C1873 C1874 1.398 1_554 S
C1874 H1862 0.950 . S
C1874 C1873 1.398 1_556 S
C1874 C1875 1.391 1_556 S
C1875 H1863 0.950 . S
C1875 C1871 1.393 . S
C1875 C1874 1.391 1_554 S
H1876 C1884 0.950 . S
H1877 C1889 0.950 . S
H1878 C1886 0.950 . S
H1879 C1888 0.950 . S
H1880 C1890 0.950 . S
H1881 C1892 0.950 . S
H1882 C1894 0.950 . S
H1883 C1895 0.950 . S
C1884 H1876 0.950 . S
C1884 C1885 1.386 . S
C1884 C1886 1.391 . S
C1885 C1884 1.386 . S
C1885 C1889 1.393 . S
C1886 H1878 0.950 . S
C1886 C1884 1.391 . S
C1886 C1887 1.400 . S
C1887 C1886 1.400 . S
C1887 C1888 1.398 . S
C1887 C1893 1.491 . S
C1888 H1879 0.950 . S
C1888 C1887 1.398 . S
C1888 C1889 1.391 . S
C1889 H1877 0.950 . S
C1889 C1885 1.393 . S
C1889 C1888 1.391 . S
C1890 H1880 0.950 . S
C1890 C1891 1.386 . S
C1890 C1892 1.391 . S
C1891 C1890 1.386 . S
C1891 C1895 1.393 . S
C1892 H1881 0.950 . S
C1892 C1890 1.391 . S
C1892 C1893 1.400 . S
C1893 C1887 1.491 . S
C1893 C1892 1.400 . S
C1893 C1894 1.398 . S
C1894 H1882 0.950 . S
C1894 C1893 1.398 . S
C1894 C1895 1.391 . S
C1895 H1883 0.950 . S
C1895 C1891 1.393 . S
C1895 C1894 1.391 . S
H1896 C1904 0.950 . S
H1897 C1909 0.950 . S
H1898 C1906 0.950 . S
H1899 C1908 0.950 . S
H1900 C1910 0.950 . S
H1901 C1912 0.950 . S
H1902 C1914 0.950 . S
H1903 C1915 0.950 . S
C1904 H1896 0.950 . S
C1904 C1905 1.386 . S
C1904 C1906 1.391 . S
C1905 C1904 1.386 . S
C1905 C1909 1.393 . S
C1906 H1898 0.950 . S
C1906 C1904 1.391 . S
C1906 C1907 1.400 . S
C1907 C1906 1.400 . S
C1907 C1908 1.398 . S
C1907 C1913 1.491 . S
C1908 H1899 0.950 . S
C1908 C1907 1.398 . S
C1908 C1909 1.391 . S
C1909 H1897 0.950 . S
C1909 C1905 1.393 . S
C1909 C1908 1.391 . S
C1910 H1900 0.950 . S
C1910 C1911 1.386 . S
C1910 C1912 1.391 . S
C1911 C1910 1.386 . S
C1911 C1915 1.393 . S
C1912 H1901 0.950 . S
C1912 C1910 1.391 . S
C1912 C1913 1.400 . S
C1913 C1907 1.491 . S
C1913 C1912 1.400 . S
C1913 C1914 1.398 . S
C1914 H1902 0.950 . S
C1914 C1913 1.398 . S
C1914 C1915 1.391 . S
C1915 H1903 0.950 . S
C1915 C1911 1.393 . S
C1915 C1914 1.391 . S
H1916 C1924 0.950 . S
H1917 C1929 0.950 . S
H1918 C1926 0.950 . S
H1919 C1928 0.950 . S
H1920 C1930 0.950 . S
H1921 C1932 0.950 . S
H1922 C1934 0.950 . S
H1923 C1935 0.950 . S
C1924 H1916 0.950 . S
C1924 C1925 1.386 . S
C1924 C1926 1.391 . S
C1925 C1924 1.386 . S
C1925 C1929 1.393 . S
C1926 H1918 0.950 . S
C1926 C1924 1.391 . S
C1926 C1927 1.400 . S
C1927 C1926 1.400 . S
C1927 C1928 1.398 . S
C1927 C1933 1.491 . S
C1928 H1919 0.950 . S
C1928 C1927 1.398 . S
C1928 C1929 1.391 . S
C1929 H1917 0.950 . S
C1929 C1925 1.393 . S
C1929 C1928 1.391 . S
C1930 H1920 0.950 . S
C1930 C1931 1.386 . S
C1930 C1932 1.391 . S
C1931 C1930 1.386 . S
C1931 C1935 1.393 . S
C1932 H1921 0.950 . S
C1932 C1930 1.391 . S
C1932 C1933 1.400 . S
C1933 C1927 1.491 . S
C1933 C1932 1.400 . S
C1933 C1934 1.398 . S
C1934 H1922 0.950 . S
C1934 C1933 1.398 . S
C1934 C1935 1.391 . S
C1935 H1923 0.950 . S
C1935 C1931 1.393 . S
C1935 C1934 1.391 . S
H1936 C1944 0.950 . S
H1937 C1949 0.950 . S
H1938 C1946 0.950 . S
H1939 C1948 0.950 . S
H1940 C1950 0.950 . S
H1941 C1952 0.950 . S
H1942 C1954 0.950 . S
H1943 C1955 0.950 . S
C1944 H1936 0.950 . S
C1944 C1945 1.386 . S
C1944 C1946 1.391 . S
C1945 C1944 1.386 . S
C1945 C1949 1.393 . S
C1946 H1938 0.950 . S
C1946 C1944 1.391 . S
C1946 C1947 1.400 . S
C1947 C1946 1.400 . S
C1947 C1948 1.398 . S
C1947 C1953 1.491 1_556 S
C1948 H1939 0.950 . S
C1948 C1947 1.398 . S
C1948 C1949 1.391 . S
C1949 H1937 0.950 . S
C1949 C1945 1.393 . S
C1949 C1948 1.391 . S
C1950 H1940 0.950 . S
C1950 C1951 1.386 . S
C1950 C1952 1.391 . S
C1951 C1950 1.386 . S
C1951 C1955 1.393 . S
C1952 H1941 0.950 . S
C1952 C1950 1.391 . S
C1952 C1953 1.400 . S
C1953 C1947 1.491 1_554 S
C1953 C1952 1.400 . S
C1953 C1954 1.398 . S
C1954 H1942 0.950 . S
C1954 C1953 1.398 . S
C1954 C1955 1.391 . S
C1955 H1943 0.950 . S
C1955 C1951 1.393 . S
C1955 C1954 1.391 . S
H1956 C1964 0.950 . S
H1957 C1969 0.950 . S
H1958 C1966 0.950 . S
H1959 C1968 0.950 . S
H1960 C1970 0.950 . S
H1961 C1972 0.950 . S
H1962 C1974 0.950 . S
H1963 C1975 0.950 . S
C1964 H1956 0.950 . S
C1964 C1965 1.386 . S
C1964 C1966 1.391 . S
C1965 C1964 1.386 . S
C1965 C1969 1.393 . S
C1966 H1958 0.950 . S
C1966 C1964 1.391 . S
C1966 C1967 1.400 . S
C1967 C1966 1.400 . S
C1967 C1968 1.398 . S
C1967 C1973 1.491 . S
C1968 H1959 0.950 . S
C1968 C1967 1.398 . S
C1968 C1969 1.391 . S
C1969 H1957 0.950 . S
C1969 C1965 1.393 . S
C1969 C1968 1.391 . S
C1970 H1960 0.950 . S
C1970 C1971 1.386 . S
C1970 C1972 1.391 . S
C1971 C1970 1.386 . S
C1971 C1975 1.393 . S
C1972 H1961 0.950 . S
C1972 C1970 1.391 . S
C1972 C1973 1.400 . S
C1973 C1967 1.491 . S
C1973 C1972 1.400 . S
C1973 C1974 1.398 . S
C1974 H1962 0.950 . S
C1974 C1973 1.398 . S
C1974 C1975 1.391 . S
C1975 H1963 0.950 . S
C1975 C1971 1.393 . S
C1975 C1974 1.391 . S
H1976 C1984 0.950 . S
H1977 C1989 0.950 . S
H1978 C1986 0.950 . S
H1979 C1988 0.950 . S
H1980 C1990 0.950 . S
H1981 C1992 0.950 . S
H1982 C1994 0.950 . S
H1983 C1995 0.950 . S
C1984 H1976 0.950 . S
C1984 C1985 1.386 . S
C1984 C1986 1.391 . S
C1985 C1984 1.386 . S
C1985 C1989 1.393 . S
C1986 H1978 0.950 . S
C1986 C1984 1.391 . S
C1986 C1987 1.400 . S
C1987 C1986 1.400 . S
C1987 C1988 1.398 . S
C1987 C1993 1.491 . S
C1988 H1979 0.950 . S
C1988 C1987 1.398 . S
C1988 C1989 1.391 . S
C1989 H1977 0.950 . S
C1989 C1985 1.393 . S
C1989 C1988 1.391 . S
C1990 H1980 0.950 . S
C1990 C1991 1.386 . S
C1990 C1992 1.391 . S
C1991 C1990 1.386 . S
C1991 C1995 1.393 . S
C1992 H1981 0.950 . S
C1992 C1990 1.391 . S
C1992 C1993 1.400 . S
C1993 C1987 1.491 . S
C1993 C1992 1.400 . S
C1993 C1994 1.398 . S
C1994 H1982 0.950 . S
C1994 C1993 1.398 . S
C1994 C1995 1.391 . S
C1995 H1983 0.950 . S
C1995 C1991 1.393 . S
C1995 C1994 1.391 . S
H1996 C2004 0.950 . S
H1997 C2009 0.950 . S
H1998 C2006 0.950 . S
H1999 C2008 0.950 . S
H2000 C2010 0.950 . S
H2001 C2012 0.950 . S
H2002 C2014 0.950 . S
H2003 C2015 0.950 . S
C2004 H1996 0.950 . S
C2004 C2005 1.386 . S
C2004 C2006 1.391 . S
C2005 C2004 1.386 . S
C2005 C2009 1.393 . S
C2006 H1998 0.950 . S
C2006 C2004 1.391 . S
C2006 C2007 1.400 . S
C2007 C2006 1.400 . S
C2007 C2008 1.398 . S
C2007 C2013 1.491 . S
C2008 H1999 0.950 . S
C2008 C2007 1.398 . S
C2008 C2009 1.391 . S
C2009 H1997 0.950 . S
C2009 C2005 1.393 . S
C2009 C2008 1.391 . S
C2010 H2000 0.950 . S
C2010 C2011 1.386 . S
C2010 C2012 1.391 . S
C2011 C2010 1.386 . S
C2011 C2015 1.393 . S
C2012 H2001 0.950 . S
C2012 C2010 1.391 . S
C2012 C2013 1.400 . S
C2013 C2007 1.491 . S
C2013 C2012 1.400 . S
C2013 C2014 1.398 . S
C2014 H2002 0.950 . S
C2014 C2013 1.398 . S
C2014 C2015 1.391 . S
C2015 H2003 0.950 . S
C2015 C2011 1.393 . S
C2015 C2014 1.391 . S
H2016 C2024 0.950 . S
H2017 C2029 0.950 . S
H2018 C2026 0.950 . S
H2019 C2028 0.950 . S
H2020 C2030 0.950 . S
H2021 C2032 0.950 . S
H2022 C2034 0.950 . S
H2023 C2035 0.950 . S
C2024 H2016 0.950 . S
C2024 C2025 1.386 . S
C2024 C2026 1.391 . S
C2025 C2024 1.386 . S
C2025 C2029 1.393 . S
C2026 H2018 0.950 . S
C2026 C2024 1.391 . S
C2026 C2027 1.400 . S
C2027 C2026 1.400 . S
C2027 C2028 1.398 . S
C2027 C2033 1.491 . S
C2028 H2019 0.950 . S
C2028 C2027 1.398 . S
C2028 C2029 1.391 . S
C2029 H2017 0.950 . S
C2029 C2025 1.393 . S
C2029 C2028 1.391 . S
C2030 H2020 0.950 . S
C2030 C2031 1.386 . S
C2030 C2032 1.391 . S
C2031 C2030 1.386 . S
C2031 C2035 1.393 . S
C2032 H2021 0.950 . S
C2032 C2030 1.391 . S
C2032 C2033 1.400 . S
C2033 C2027 1.491 . S
C2033 C2032 1.400 . S
C2033 C2034 1.398 . S
C2034 H2022 0.950 . S
C2034 C2033 1.398 . S
C2034 C2035 1.391 . S
C2035 H2023 0.950 . S
C2035 C2031 1.393 . S
C2035 C2034 1.391 . S
H2036 C2044 0.950 . S
H2037 C2049 0.950 . S
H2038 C2046 0.950 . S
H2039 C2048 0.950 . S
H2040 C2050 0.950 . S
H2041 C2052 0.954 1_655 S
H2042 C2054 0.954 . S
H2043 C2055 0.950 . S
C2044 H2036 0.950 . S
C2044 C2045 1.386 . S
C2044 C2046 1.391 . S
C2045 C2044 1.386 . S
C2045 C2049 1.393 . S
C2046 H2038 0.950 . S
C2046 C2044 1.391 . S
C2046 C2047 1.400 . S
C2047 C2046 1.400 . S
C2047 C2048 1.398 . S
C2047 C2053 1.491 . S
C2048 H2039 0.950 . S
C2048 C2047 1.398 . S
C2048 C2049 1.391 . S
C2049 H2037 0.950 . S
C2049 C2045 1.393 . S
C2049 C2048 1.391 . S
C2050 H2040 0.950 . S
C2050 C2051 1.386 . S
C2050 C2052 1.385 . S
C2051 C2050 1.386 . S
C2051 C2055 1.393 . S
C2052 H2041 0.954 1_455 S
C2052 C2050 1.385 . S
C2052 C2053 1.403 1_455 S
C2053 C2047 1.491 . S
C2053 C2052 1.403 1_655 S
C2053 C2054 1.398 1_655 S
C2054 H2042 0.954 . S
C2054 C2053 1.398 1_455 S
C2054 C2055 1.391 . S
C2055 H2043 0.950 . S
C2055 C2051 1.393 . S
C2055 C2054 1.391 . S
H2056 C2064 0.950 . S
H2057 C2069 0.950 . S
H2058 C2066 0.950 . S
H2059 C2068 0.950 . S
H2060 C2070 0.950 . S
H2061 C2072 0.950 . S
H2062 C2074 0.950 . S
H2063 C2075 0.950 . S
C2064 H2056 0.950 . S
C2064 C2065 1.386 . S
C2064 C2066 1.391 . S
C2065 C2064 1.386 . S
C2065 C2069 1.393 . S
C2066 H2058 0.950 . S
C2066 C2064 1.391 . S
C2066 C2067 1.400 . S
C2067 C2066 1.400 . S
C2067 C2068 1.398 . S
C2067 C2073 1.491 . S
C2068 H2059 0.950 . S
C2068 C2067 1.398 . S
C2068 C2069 1.391 . S
C2069 H2057 0.950 . S
C2069 C2065 1.393 . S
C2069 C2068 1.391 . S
C2070 H2060 0.950 . S
C2070 C2071 1.386 . S
C2070 C2072 1.391 . S
C2071 C2070 1.386 . S
C2071 C2075 1.393 . S
C2072 H2061 0.950 . S
C2072 C2070 1.391 . S
C2072 C2073 1.400 . S
C2073 C2067 1.491 . S
C2073 C2072 1.400 . S
C2073 C2074 1.398 . S
C2074 H2062 0.950 . S
C2074 C2073 1.398 . S
C2074 C2075 1.391 . S
C2075 H2063 0.950 . S
C2075 C2071 1.393 . S
C2075 C2074 1.391 . S
H2076 C2084 0.950 . S
H2077 C2089 0.950 . S
H2078 C2086 0.950 . S
H2079 C2088 0.950 . S
H2080 C2090 0.950 . S
H2081 C2092 0.950 . S
H2082 C2094 0.950 . S
H2083 C2095 0.950 . S
C2084 H2076 0.950 . S
C2084 C2085 1.386 . S
C2084 C2086 1.391 . S
C2085 C2084 1.386 . S
C2085 C2089 1.393 . S
C2086 H2078 0.950 . S
C2086 C2084 1.391 . S
C2086 C2087 1.400 . S
C2087 C2086 1.400 . S
C2087 C2088 1.398 . S
C2087 C2093 1.491 . S
C2088 H2079 0.950 . S
C2088 C2087 1.398 . S
C2088 C2089 1.391 . S
C2089 H2077 0.950 . S
C2089 C2085 1.393 . S
C2089 C2088 1.391 . S
C2090 H2080 0.950 . S
C2090 C2091 1.386 . S
C2090 C2092 1.391 . S
C2091 C2090 1.386 . S
C2091 C2095 1.393 . S
C2092 H2081 0.950 . S
C2092 C2090 1.391 . S
C2092 C2093 1.400 . S
C2093 C2087 1.491 . S
C2093 C2092 1.400 . S
C2093 C2094 1.398 . S
C2094 H2082 0.950 . S
C2094 C2093 1.398 . S
C2094 C2095 1.391 . S
C2095 H2083 0.950 . S
C2095 C2091 1.393 . S
C2095 C2094 1.391 . S
H2096 C2104 0.950 . S
H2097 C2109 0.950 . S
H2098 C2106 0.950 . S
H2099 C2108 0.950 . S
H2100 C2110 0.950 . S
H2101 C2112 0.950 . S
H2102 C2114 0.950 . S
H2103 C2115 0.950 . S
C2104 H2096 0.950 . S
C2104 C2105 1.386 . S
C2104 C2106 1.391 . S
C2105 C2104 1.386 . S
C2105 C2109 1.393 . S
C2106 H2098 0.950 . S
C2106 C2104 1.391 . S
C2106 C2107 1.400 . S
C2107 C2106 1.400 . S
C2107 C2108 1.398 . S
C2107 C2113 1.491 . S
C2108 H2099 0.950 . S
C2108 C2107 1.398 . S
C2108 C2109 1.391 . S
C2109 H2097 0.950 . S
C2109 C2105 1.393 . S
C2109 C2108 1.391 . S
C2110 H2100 0.950 . S
C2110 C2111 1.386 . S
C2110 C2112 1.391 . S
C2111 C2110 1.386 . S
C2111 C2115 1.393 . S
C2112 H2101 0.950 . S
C2112 C2110 1.391 . S
C2112 C2113 1.400 . S
C2113 C2107 1.491 . S
C2113 C2112 1.400 . S
C2113 C2114 1.398 . S
C2114 H2102 0.950 . S
C2114 C2113 1.398 . S
C2114 C2115 1.391 . S
C2115 H2103 0.950 . S
C2115 C2111 1.393 . S
C2115 C2114 1.391 . S
H2116 C2124 0.950 . S
H2117 C2129 0.950 . S
H2118 C2126 0.950 . S
H2119 C2128 0.950 . S
H2120 C2130 0.950 . S
H2121 C2132 0.950 . S
H2122 C2134 0.950 . S
H2123 C2135 0.950 . S
C2124 H2116 0.950 . S
C2124 C2125 1.386 . S
C2124 C2126 1.391 . S
C2125 C2124 1.386 . S
C2125 C2129 1.393 . S
C2126 H2118 0.950 . S
C2126 C2124 1.391 . S
C2126 C2127 1.400 . S
C2127 C2126 1.400 . S
C2127 C2128 1.398 . S
C2127 C2133 1.491 . S
C2128 H2119 0.950 . S
C2128 C2127 1.398 . S
C2128 C2129 1.391 . S
C2129 H2117 0.950 . S
C2129 C2125 1.393 . S
C2129 C2128 1.391 . S
C2130 H2120 0.950 . S
C2130 C2131 1.386 . S
C2130 C2132 1.391 . S
C2131 C2130 1.386 . S
C2131 C2135 1.393 . S
C2132 H2121 0.950 . S
C2132 C2130 1.391 . S
C2132 C2133 1.400 . S
C2133 C2127 1.491 . S
C2133 C2132 1.400 . S
C2133 C2134 1.398 . S
C2134 H2122 0.950 . S
C2134 C2133 1.398 . S
C2134 C2135 1.391 . S
C2135 H2123 0.950 . S
C2135 C2131 1.393 . S
C2135 C2134 1.391 . S
H2136 C2144 0.950 . S
H2137 C2149 0.950 . S
H2138 C2146 0.950 . S
H2139 C2148 0.950 . S
H2140 C2150 0.950 . S
H2141 C2152 0.950 . S
H2142 C2154 0.950 . S
H2143 C2155 0.950 . S
C2144 H2136 0.950 . S
C2144 C2145 1.386 . S
C2144 C2146 1.391 . S
C2145 C2144 1.386 . S
C2145 C2149 1.393 . S
C2146 H2138 0.950 . S
C2146 C2144 1.391 . S
C2146 C2147 1.400 . S
C2147 C2146 1.400 . S
C2147 C2148 1.398 . S
C2147 C2153 1.491 . S
C2148 H2139 0.950 . S
C2148 C2147 1.398 . S
C2148 C2149 1.391 . S
C2149 H2137 0.950 . S
C2149 C2145 1.393 . S
C2149 C2148 1.391 . S
C2150 H2140 0.950 . S
C2150 C2151 1.386 . S
C2150 C2152 1.391 . S
C2151 C2150 1.386 . S
C2151 C2155 1.393 . S
C2152 H2141 0.950 . S
C2152 C2150 1.391 . S
C2152 C2153 1.400 . S
C2153 C2147 1.491 . S
C2153 C2152 1.400 . S
C2153 C2154 1.398 . S
C2154 H2142 0.950 . S
C2154 C2153 1.398 . S
C2154 C2155 1.391 . S
C2155 H2143 0.950 . S
C2155 C2151 1.393 . S
C2155 C2154 1.391 . S
H2156 C2164 0.950 . S
H2157 C2169 0.950 . S
H2158 C2166 0.950 . S
H2159 C2168 0.950 . S
H2160 C2170 0.950 . S
H2161 C2172 0.950 1_655 S
H2162 C2174 0.950 1_655 S
H2163 C2175 0.950 . S
C2164 H2156 0.950 . S
C2164 C2165 1.386 . S
C2164 C2166 1.391 . S
C2165 C2164 1.386 . S
C2165 C2169 1.393 . S
C2166 H2158 0.950 . S
C2166 C2164 1.391 . S
C2166 C2167 1.400 . S
C2167 C2166 1.400 . S
C2167 C2168 1.398 . S
C2167 C2173 1.491 . S
C2168 H2159 0.950 . S
C2168 C2167 1.398 . S
C2168 C2169 1.391 . S
C2169 H2157 0.950 . S
C2169 C2165 1.393 . S
C2169 C2168 1.391 . S
C2170 H2160 0.950 . S
C2170 C2171 1.386 . S
C2170 C2172 1.391 . S
C2171 C2170 1.386 . S
C2171 C2175 1.393 . S
C2172 H2161 0.950 1_455 S
C2172 C2170 1.391 . S
C2172 C2173 1.400 1_455 S
C2173 C2167 1.491 . S
C2173 C2172 1.400 1_655 S
C2173 C2174 1.398 1_655 S
C2174 H2162 0.950 1_455 S
C2174 C2173 1.398 1_455 S
C2174 C2175 1.391 . S
C2175 H2163 0.950 . S
C2175 C2171 1.393 . S
C2175 C2174 1.391 . S
H2176 C2184 0.950 . S
H2177 C2189 0.950 . S
H2178 C2186 0.950 . S
H2179 C2188 0.950 . S
H2180 C2190 0.950 . S
H2181 C2192 0.950 . S
H2182 C2194 0.950 . S
H2183 C2195 0.950 . S
C2184 H2176 0.950 . S
C2184 C2185 1.386 . S
C2184 C2186 1.391 . S
C2185 C2184 1.386 . S
C2185 C2189 1.393 . S
C2186 H2178 0.950 . S
C2186 C2184 1.391 . S
C2186 C2187 1.400 . S
C2187 C2186 1.400 . S
C2187 C2188 1.398 . S
C2187 C2193 1.491 . S
C2188 H2179 0.950 . S
C2188 C2187 1.398 . S
C2188 C2189 1.391 . S
C2189 H2177 0.950 . S
C2189 C2185 1.393 . S
C2189 C2188 1.391 . S
C2190 H2180 0.950 . S
C2190 C2191 1.386 . S
C2190 C2192 1.391 . S
C2191 C2190 1.386 . S
C2191 C2195 1.393 . S
C2192 H2181 0.950 . S
C2192 C2190 1.391 . S
C2192 C2193 1.400 . S
C2193 C2187 1.491 . S
C2193 C2192 1.400 . S
C2193 C2194 1.398 . S
C2194 H2182 0.950 . S
C2194 C2193 1.398 . S
C2194 C2195 1.391 . S
C2195 H2183 0.950 . S
C2195 C2191 1.393 . S
C2195 C2194 1.391 . S
H2196 C2204 0.950 . S
H2197 C2209 0.950 . S
H2198 C2206 0.950 1_455 S
H2199 C2208 0.950 1_455 S
H2200 C2210 0.950 . S
H2201 C2212 0.950 . S
H2202 C2214 0.950 . S
H2203 C2215 0.950 . S
C2204 H2196 0.950 . S
C2204 C2205 1.386 . S
C2204 C2206 1.391 . S
C2205 C2204 1.386 . S
C2205 C2209 1.393 . S
C2206 H2198 0.950 1_655 S
C2206 C2204 1.391 . S
C2206 C2207 1.400 1_655 S
C2207 C2206 1.400 1_455 S
C2207 C2208 1.398 1_455 S
C2207 C2213 1.491 . S
C2208 H2199 0.950 1_655 S
C2208 C2207 1.398 1_655 S
C2208 C2209 1.391 . S
C2209 H2197 0.950 . S
C2209 C2205 1.393 . S
C2209 C2208 1.391 . S
C2210 H2200 0.950 . S
C2210 C2211 1.386 . S
C2210 C2212 1.391 . S
C2211 C2210 1.386 . S
C2211 C2215 1.393 . S
C2212 H2201 0.950 . S
C2212 C2210 1.391 . S
C2212 C2213 1.400 . S
C2213 C2207 1.491 . S
C2213 C2212 1.400 . S
C2213 C2214 1.398 . S
C2214 H2202 0.950 . S
C2214 C2213 1.398 . S
C2214 C2215 1.391 . S
C2215 H2203 0.950 . S
C2215 C2211 1.393 . S
C2215 C2214 1.391 . S
H2216 C2224 0.950 . S
H2217 C2229 0.950 . S
H2218 C2226 0.950 . S
H2219 C2228 0.950 . S
H2220 C2230 0.950 . S
H2221 C2232 0.950 . S
H2222 C2234 0.950 . S
H2223 C2235 0.950 . S
C2224 H2216 0.950 . S
C2224 C2225 1.386 . S
C2224 C2226 1.391 . S
C2225 C2224 1.386 . S
C2225 C2229 1.393 . S
C2226 H2218 0.950 . S
C2226 C2224 1.391 . S
C2226 C2227 1.400 . S
C2227 C2226 1.400 . S
C2227 C2228 1.398 . S
C2227 C2233 1.491 . S
C2228 H2219 0.950 . S
C2228 C2227 1.398 . S
C2228 C2229 1.391 . S
C2229 H2217 0.950 . S
C2229 C2225 1.393 . S
C2229 C2228 1.391 . S
C2230 H2220 0.950 . S
C2230 C2231 1.386 . S
C2230 C2232 1.391 . S
C2231 C2230 1.386 . S
C2231 C2235 1.393 . S
C2232 H2221 0.950 . S
C2232 C2230 1.391 . S
C2232 C2233 1.400 . S
C2233 C2227 1.491 . S
C2233 C2232 1.400 . S
C2233 C2234 1.398 . S
C2234 H2222 0.950 . S
C2234 C2233 1.398 . S
C2234 C2235 1.391 . S
C2235 H2223 0.950 . S
C2235 C2231 1.393 . S
C2235 C2234 1.391 . S
H2236 C2244 0.950 . S
H2237 C2249 0.950 . S
H2238 C2246 0.950 . S
H2239 C2248 0.950 . S
H2240 C2250 0.950 . S
H2241 C2252 0.950 . S
H2242 C2254 0.950 . S
H2243 C2255 0.950 . S
C2244 H2236 0.950 . S
C2244 C2245 1.386 . S
C2244 C2246 1.391 . S
C2245 C2244 1.386 . S
C2245 C2249 1.393 . S
C2246 H2238 0.950 . S
C2246 C2244 1.391 . S
C2246 C2247 1.400 . S
C2247 C2246 1.400 . S
C2247 C2248 1.398 . S
C2247 C2253 1.491 . S
C2248 H2239 0.950 . S
C2248 C2247 1.398 . S
C2248 C2249 1.391 . S
C2249 H2237 0.950 . S
C2249 C2245 1.393 . S
C2249 C2248 1.391 . S
C2250 H2240 0.950 . S
C2250 C2251 1.386 . S
C2250 C2252 1.391 . S
C2251 C2250 1.386 . S
C2251 C2255 1.393 . S
C2252 H2241 0.950 . S
C2252 C2250 1.391 . S
C2252 C2253 1.400 . S
C2253 C2247 1.491 . S
C2253 C2252 1.400 . S
C2253 C2254 1.398 . S
C2254 H2242 0.950 . S
C2254 C2253 1.398 . S
C2254 C2255 1.391 . S
C2255 H2243 0.950 . S
C2255 C2251 1.393 . S
C2255 C2254 1.391 . S
H2256 C2264 0.950 . S
H2257 C2269 0.950 . S
H2258 C2266 0.950 . S
H2259 C2268 0.950 . S
H2260 C2270 0.950 . S
H2261 C2272 0.950 . S
H2262 C2274 0.950 . S
H2263 C2275 0.950 . S
C2264 H2256 0.950 . S
C2264 C2265 1.386 . S
C2264 C2266 1.391 . S
C2265 C2264 1.386 . S
C2265 C2269 1.393 . S
C2266 H2258 0.950 . S
C2266 C2264 1.391 . S
C2266 C2267 1.400 . S
C2267 C2266 1.400 . S
C2267 C2268 1.398 . S
C2267 C2273 1.491 . S
C2268 H2259 0.950 . S
C2268 C2267 1.398 . S
C2268 C2269 1.391 . S
C2269 H2257 0.950 . S
C2269 C2265 1.393 . S
C2269 C2268 1.391 . S
C2270 H2260 0.950 . S
C2270 C2271 1.386 . S
C2270 C2272 1.391 . S
C2271 C2270 1.386 . S
C2271 C2275 1.393 . S
C2272 H2261 0.950 . S
C2272 C2270 1.391 . S
C2272 C2273 1.400 . S
C2273 C2267 1.491 . S
C2273 C2272 1.400 . S
C2273 C2274 1.398 . S
C2274 H2262 0.950 . S
C2274 C2273 1.398 . S
C2274 C2275 1.391 . S
C2275 H2263 0.950 . S
C2275 C2271 1.393 . S
C2275 C2274 1.391 . S
H2276 C2284 0.950 . S
H2277 C2289 0.950 . S
H2278 C2286 0.950 . S
H2279 C2288 0.950 . S
H2280 C2290 0.950 . S
H2281 C2292 0.950 . S
H2282 C2294 0.950 . S
H2283 C2295 0.950 . S
C2284 H2276 0.950 . S
C2284 C2285 1.386 . S
C2284 C2286 1.391 . S
C2285 C2284 1.386 . S
C2285 C2289 1.393 . S
C2286 H2278 0.950 . S
C2286 C2284 1.391 . S
C2286 C2287 1.400 . S
C2287 C2286 1.400 . S
C2287 C2288 1.398 . S
C2287 C2293 1.491 . S
C2288 H2279 0.950 . S
C2288 C2287 1.398 . S
C2288 C2289 1.391 . S
C2289 H2277 0.950 . S
C2289 C2285 1.393 . S
C2289 C2288 1.391 . S
C2290 H2280 0.950 . S
C2290 C2291 1.386 . S
C2290 C2292 1.391 . S
C2291 C2290 1.386 . S
C2291 C2295 1.393 . S
C2292 H2281 0.950 . S
C2292 C2290 1.391 . S
C2292 C2293 1.400 . S
C2293 C2287 1.491 . S
C2293 C2292 1.400 . S
C2293 C2294 1.398 . S
C2294 H2282 0.950 . S
C2294 C2293 1.398 . S
C2294 C2295 1.391 . S
C2295 H2283 0.950 . S
C2295 C2291 1.393 . S
C2295 C2294 1.391 . S
H2296 C2304 0.950 . S
H2297 C2309 0.950 . S
H2298 C2306 0.950 . S
H2299 C2308 0.950 . S
H2300 C2310 0.950 . S
H2301 C2312 0.950 . S
H2302 C2314 0.950 . S
H2303 C2315 0.950 . S
C2304 H2296 0.950 . S
C2304 C2305 1.386 . S
C2304 C2306 1.391 . S
C2305 C2304 1.386 . S
C2305 C2309 1.393 . S
C2306 H2298 0.950 . S
C2306 C2304 1.391 . S
C2306 C2307 1.400 . S
C2307 C2306 1.400 . S
C2307 C2308 1.398 . S
C2307 C2313 1.491 . S
C2308 H2299 0.950 . S
C2308 C2307 1.398 . S
C2308 C2309 1.391 . S
C2309 H2297 0.950 . S
C2309 C2305 1.393 . S
C2309 C2308 1.391 . S
C2310 H2300 0.950 . S
C2310 C2311 1.386 . S
C2310 C2312 1.391 . S
C2311 C2310 1.386 . S
C2311 C2315 1.393 . S
C2312 H2301 0.950 . S
C2312 C2310 1.391 . S
C2312 C2313 1.400 . S
C2313 C2307 1.491 . S
C2313 C2312 1.400 . S
C2313 C2314 1.398 . S
C2314 H2302 0.950 . S
C2314 C2313 1.398 . S
C2314 C2315 1.391 . S
C2315 H2303 0.950 . S
C2315 C2311 1.393 . S
C2315 C2314 1.391 . S
H2316 C2324 0.950 . S
H2317 C2329 0.950 . S
H2318 C2326 0.950 . S
H2319 C2328 0.950 . S
H2320 C2330 0.950 . S
H2321 C2332 0.963 . S
H2322 C2334 0.957 . S
H2323 C2335 0.950 . S
C2324 H2316 0.950 . S
C2324 C2325 1.386 . S
C2324 C2326 1.391 . S
C2325 C2324 1.386 . S
C2325 C2329 1.393 . S
C2326 H2318 0.950 . S
C2326 C2324 1.391 . S
C2326 C2327 1.400 . S
C2327 C2326 1.400 . S
C2327 C2328 1.398 . S
C2327 C2333 1.491 . S
C2328 H2319 0.950 . S
C2328 C2327 1.398 . S
C2328 C2329 1.391 . S
C2329 H2317 0.950 . S
C2329 C2325 1.393 . S
C2329 C2328 1.391 . S
C2330 H2320 0.950 . S
C2330 C2331 1.386 . S
C2330 C2332 1.391 . S
C2331 C2330 1.386 . S
C2331 C2335 1.393 . S
C2332 H2321 0.963 . S
C2332 C2330 1.391 . S
C2332 C2333 1.400 1_655 S
C2333 C2327 1.491 . S
C2333 C2332 1.400 1_455 S
C2333 C2334 1.403 . S
C2334 H2322 0.957 . S
C2334 C2333 1.403 . S
C2334 C2335 1.380 1_455 S
C2335 H2323 0.950 . S
C2335 C2331 1.393 . S
C2335 C2334 1.380 1_655 S
H2336 C2344 0.950 . S
H2337 C2349 0.950 . S
H2338 C2346 0.950 . S
H2339 C2348 0.950 . S
H2340 C2350 0.950 . S
H2341 C2352 0.950 . S
H2342 C2354 0.950 . S
H2343 C2355 0.950 . S
C2344 H2336 0.950 . S
C2344 C2345 1.386 . S
C2344 C2346 1.391 . S
C2345 C2344 1.386 . S
C2345 C2349 1.393 . S
C2346 H2338 0.950 . S
C2346 C2344 1.391 . S
C2346 C2347 1.400 . S
C2347 C2346 1.400 . S
C2347 C2348 1.398 . S
C2347 C2353 1.491 . S
C2348 H2339 0.950 . S
C2348 C2347 1.398 . S
C2348 C2349 1.391 . S
C2349 H2337 0.950 . S
C2349 C2345 1.393 . S
C2349 C2348 1.391 . S
C2350 H2340 0.950 . S
C2350 C2351 1.386 . S
C2350 C2352 1.391 . S
C2351 C2350 1.386 . S
C2351 C2355 1.393 . S
C2352 H2341 0.950 . S
C2352 C2350 1.391 . S
C2352 C2353 1.400 . S
C2353 C2347 1.491 . S
C2353 C2352 1.400 . S
C2353 C2354 1.398 . S
C2354 H2342 0.950 . S
C2354 C2353 1.398 . S
C2354 C2355 1.391 . S
C2355 H2343 0.950 . S
C2355 C2351 1.393 . S
C2355 C2354 1.391 . S
H2356 C2364 0.950 . S
H2357 C2369 0.950 . S
H2358 C2366 0.950 . S
H2359 C2368 0.950 . S
H2360 C2370 0.950 . S
H2361 C2372 0.950 . S
H2362 C2374 0.950 . S
H2363 C2375 0.950 . S
C2364 H2356 0.950 . S
C2364 C2365 1.386 . S
C2364 C2366 1.391 . S
C2365 C2364 1.386 . S
C2365 C2369 1.393 . S
C2366 H2358 0.950 . S
C2366 C2364 1.391 . S
C2366 C2367 1.400 . S
C2367 C2366 1.400 . S
C2367 C2368 1.398 . S
C2367 C2373 1.491 . S
C2368 H2359 0.950 . S
C2368 C2367 1.398 . S
C2368 C2369 1.391 . S
C2369 H2357 0.950 . S
C2369 C2365 1.393 . S
C2369 C2368 1.391 . S
C2370 H2360 0.950 . S
C2370 C2371 1.386 . S
C2370 C2372 1.391 . S
C2371 C2370 1.386 . S
C2371 C2375 1.393 . S
C2372 H2361 0.950 . S
C2372 C2370 1.391 . S
C2372 C2373 1.400 . S
C2373 C2367 1.491 . S
C2373 C2372 1.400 . S
C2373 C2374 1.398 . S
C2374 H2362 0.950 . S
C2374 C2373 1.398 . S
C2374 C2375 1.391 . S
C2375 H2363 0.950 . S
C2375 C2371 1.393 . S
C2375 C2374 1.391 . S
H2376 C2384 0.950 . S
H2377 C2389 0.950 . S
H2378 C2386 0.950 . S
H2379 C2388 0.950 . S
H2380 C2390 0.950 . S
H2381 C2392 0.950 . S
H2382 C2394 0.950 . S
H2383 C2395 0.950 . S
C2384 H2376 0.950 . S
C2384 C2385 1.386 . S
C2384 C2386 1.391 . S
C2385 C2384 1.386 . S
C2385 C2389 1.393 . S
C2386 H2378 0.950 . S
C2386 C2384 1.391 . S
C2386 C2387 1.400 . S
C2387 C2386 1.400 . S
C2387 C2388 1.398 . S
C2387 C2393 1.491 . S
C2388 H2379 0.950 . S
C2388 C2387 1.398 . S
C2388 C2389 1.391 . S
C2389 H2377 0.950 . S
C2389 C2385 1.393 . S
C2389 C2388 1.391 . S
C2390 H2380 0.950 . S
C2390 C2391 1.386 . S
C2390 C2392 1.391 . S
C2391 C2390 1.386 . S
C2391 C2395 1.393 . S
C2392 H2381 0.950 . S
C2392 C2390 1.391 . S
C2392 C2393 1.400 . S
C2393 C2387 1.491 . S
C2393 C2392 1.400 . S
C2393 C2394 1.398 . S
C2394 H2382 0.950 . S
C2394 C2393 1.398 . S
C2394 C2395 1.391 . S
C2395 H2383 0.950 . S
C2395 C2391 1.393 . S
C2395 C2394 1.391 . S
H2396 C2404 0.950 . S
H2397 C2409 0.950 . S
H2398 C2406 0.950 1_455 S
H2399 C2408 0.950 1_455 S
H2400 C2410 0.950 . S
H2401 C2412 0.950 . S
H2402 C2414 0.950 . S
H2403 C2415 0.950 . S
C2404 H2396 0.950 . S
C2404 C2405 1.386 . S
C2404 C2406 1.391 . S
C2405 C2404 1.386 . S
C2405 C2409 1.393 . S
C2406 H2398 0.950 1_655 S
C2406 C2404 1.391 . S
C2406 C2407 1.400 1_655 S
C2407 C2406 1.400 1_455 S
C2407 C2408 1.398 1_455 S
C2407 C2413 1.491 . S
C2408 H2399 0.950 1_655 S
C2408 C2407 1.398 1_655 S
C2408 C2409 1.391 . S
C2409 H2397 0.950 . S
C2409 C2405 1.393 . S
C2409 C2408 1.391 . S
C2410 H2400 0.950 . S
C2410 C2411 1.386 . S
C2410 C2412 1.391 . S
C2411 C2410 1.386 . S
C2411 C2415 1.393 . S
C2412 H2401 0.950 . S
C2412 C2410 1.391 . S
C2412 C2413 1.400 . S
C2413 C2407 1.491 . S
C2413 C2412 1.400 . S
C2413 C2414 1.398 . S
C2414 H2402 0.950 . S
C2414 C2413 1.398 . S
C2414 C2415 1.391 . S
C2415 H2403 0.950 . S
C2415 C2411 1.393 . S
C2415 C2414 1.391 . S
H2416 C2424 0.950 . S
H2417 C2429 0.950 . S
H2418 C2426 0.950 . S
H2419 C2428 0.950 . S
H2420 C2430 0.950 . S
H2421 C2432 0.950 . S
H2422 C2434 0.950 . S
H2423 C2435 0.950 . S
C2424 H2416 0.950 . S
C2424 C2425 1.386 . S
C2424 C2426 1.391 . S
C2425 C2424 1.386 . S
C2425 C2429 1.393 . S
C2426 H2418 0.950 . S
C2426 C2424 1.391 . S
C2426 C2427 1.400 . S
C2427 C2426 1.400 . S
C2427 C2428 1.398 . S
C2427 C2433 1.491 . S
C2428 H2419 0.950 . S
C2428 C2427 1.398 . S
C2428 C2429 1.391 . S
C2429 H2417 0.950 . S
C2429 C2425 1.393 . S
C2429 C2428 1.391 . S
C2430 H2420 0.950 . S
C2430 C2431 1.386 . S
C2430 C2432 1.391 . S
C2431 C2430 1.386 . S
C2431 C2435 1.393 . S
C2432 H2421 0.950 . S
C2432 C2430 1.391 . S
C2432 C2433 1.400 . S
C2433 C2427 1.491 . S
C2433 C2432 1.400 . S
C2433 C2434 1.398 . S
C2434 H2422 0.950 . S
C2434 C2433 1.398 . S
C2434 C2435 1.391 . S
C2435 H2423 0.950 . S
C2435 C2431 1.393 . S
C2435 C2434 1.391 . S
H2436 C2444 0.950 . S
H2437 C2449 0.950 . S
H2438 C2446 0.950 1_455 S
H2439 C2448 0.950 1_455 S
H2440 C2450 0.950 . S
H2441 C2452 0.950 . S
H2442 C2454 0.950 . S
H2443 C2455 0.950 . S
C2444 H2436 0.950 . S
C2444 C2445 1.386 . S
C2444 C2446 1.391 . S
C2445 C2444 1.386 . S
C2445 C2449 1.393 . S
C2446 H2438 0.950 1_655 S
C2446 C2444 1.391 . S
C2446 C2447 1.400 1_655 S
C2447 C2446 1.400 1_455 S
C2447 C2448 1.398 1_455 S
C2447 C2453 1.491 . S
C2448 H2439 0.950 1_655 S
C2448 C2447 1.398 1_655 S
C2448 C2449 1.391 . S
C2449 H2437 0.950 . S
C2449 C2445 1.393 . S
C2449 C2448 1.391 . S
C2450 H2440 0.950 . S
C2450 C2451 1.386 . S
C2450 C2452 1.391 . S
C2451 C2450 1.386 . S
C2451 C2455 1.393 . S
C2452 H2441 0.950 . S
C2452 C2450 1.391 . S
C2452 C2453 1.400 . S
C2453 C2447 1.491 . S
C2453 C2452 1.400 . S
C2453 C2454 1.398 . S
C2454 H2442 0.950 . S
C2454 C2453 1.398 . S
C2454 C2455 1.391 . S
C2455 H2443 0.950 . S
C2455 C2451 1.393 . S
C2455 C2454 1.391 . S
H2456 C2464 0.950 . S
H2457 C2469 0.950 . S
H2458 C2466 0.950 . S
H2459 C2468 0.950 . S
H2460 C2470 0.950 . S
H2461 C2472 0.950 . S
H2462 C2474 0.950 . S
H2463 C2475 0.950 . S
C2464 H2456 0.950 . S
C2464 C2465 1.386 . S
C2464 C2466 1.391 . S
C2465 C2464 1.386 . S
C2465 C2469 1.393 . S
C2466 H2458 0.950 . S
C2466 C2464 1.391 . S
C2466 C2467 1.400 . S
C2467 C2466 1.400 . S
C2467 C2468 1.398 . S
C2467 C2473 1.491 . S
C2468 H2459 0.950 . S
C2468 C2467 1.398 . S
C2468 C2469 1.391 . S
C2469 H2457 0.950 . S
C2469 C2465 1.393 . S
C2469 C2468 1.391 . S
C2470 H2460 0.950 . S
C2470 C2471 1.386 . S
C2470 C2472 1.391 . S
C2471 C2470 1.386 . S
C2471 C2475 1.393 . S
C2472 H2461 0.950 . S
C2472 C2470 1.391 . S
C2472 C2473 1.400 . S
C2473 C2467 1.491 . S
C2473 C2472 1.400 . S
C2473 C2474 1.398 . S
C2474 H2462 0.950 . S
C2474 C2473 1.398 . S
C2474 C2475 1.391 . S
C2475 H2463 0.950 . S
C2475 C2471 1.393 . S
C2475 C2474 1.391 . S
H2476 C2484 0.950 . S
H2477 C2489 0.950 . S
H2478 C2486 0.950 . S
H2479 C2488 0.950 . S
H2480 C2490 0.950 . S
H2481 C2492 0.950 . S
H2482 C2494 0.950 . S
H2483 C2495 0.950 . S
C2484 H2476 0.950 . S
C2484 C2485 1.386 . S
C2484 C2486 1.391 . S
C2485 C2484 1.386 . S
C2485 C2489 1.393 . S
C2486 H2478 0.950 . S
C2486 C2484 1.391 . S
C2486 C2487 1.400 . S
C2487 C2486 1.400 . S
C2487 C2488 1.398 . S
C2487 C2493 1.491 . S
C2488 H2479 0.950 . S
C2488 C2487 1.398 . S
C2488 C2489 1.391 . S
C2489 H2477 0.950 . S
C2489 C2485 1.393 . S
C2489 C2488 1.391 . S
C2490 H2480 0.950 . S
C2490 C2491 1.386 . S
C2490 C2492 1.391 . S
C2491 C2490 1.386 . S
C2491 C2495 1.393 . S
C2492 H2481 0.950 . S
C2492 C2490 1.391 . S
C2492 C2493 1.400 . S
C2493 C2487 1.491 . S
C2493 C2492 1.400 . S
C2493 C2494 1.398 . S
C2494 H2482 0.950 . S
C2494 C2493 1.398 . S
C2494 C2495 1.391 . S
C2495 H2483 0.950 . S
C2495 C2491 1.393 . S
C2495 C2494 1.391 . S
H2496 C2504 0.950 . S
H2497 C2509 0.950 . S
H2498 C2506 0.950 . S
H2499 C2508 0.950 . S
H2500 C2510 0.950 . S
H2501 C2512 0.950 . S
H2502 C2514 0.950 . S
H2503 C2515 0.950 . S
C2504 H2496 0.950 . S
C2504 C2505 1.386 . S
C2504 C2506 1.391 . S
C2505 C2504 1.386 . S
C2505 C2509 1.393 . S
C2506 H2498 0.950 . S
C2506 C2504 1.391 . S
C2506 C2507 1.400 . S
C2507 C2506 1.400 . S
C2507 C2508 1.398 . S
C2507 C2513 1.491 . S
C2508 H2499 0.950 . S
C2508 C2507 1.398 . S
C2508 C2509 1.391 . S
C2509 H2497 0.950 . S
C2509 C2505 1.393 . S
C2509 C2508 1.391 . S
C2510 H2500 0.950 . S
C2510 C2511 1.386 . S
C2510 C2512 1.391 . S
C2511 C2510 1.386 . S
C2511 C2515 1.393 . S
C2512 H2501 0.950 . S
C2512 C2510 1.391 . S
C2512 C2513 1.400 . S
C2513 C2507 1.491 . S
C2513 C2512 1.400 . S
C2513 C2514 1.398 . S
C2514 H2502 0.950 . S
C2514 C2513 1.398 . S
C2514 C2515 1.391 . S
C2515 H2503 0.950 . S
C2515 C2511 1.393 . S
C2515 C2514 1.391 . S
H2516 C2524 0.950 . S
H2517 C2529 0.950 . S
H2518 C2526 0.950 . S
H2519 C2528 0.950 . S
H2520 C2530 0.950 . S
H2521 C2532 0.950 . S
H2522 C2534 0.950 . S
H2523 C2535 0.950 . S
C2524 H2516 0.950 . S
C2524 C2525 1.386 . S
C2524 C2526 1.391 . S
C2525 C2524 1.386 . S
C2525 C2529 1.393 . S
C2526 H2518 0.950 . S
C2526 C2524 1.391 . S
C2526 C2527 1.400 . S
C2527 C2526 1.400 . S
C2527 C2528 1.398 . S
C2527 C2533 1.491 . S
C2528 H2519 0.950 . S
C2528 C2527 1.398 . S
C2528 C2529 1.391 . S
C2529 H2517 0.950 . S
C2529 C2525 1.393 . S
C2529 C2528 1.391 . S
C2530 H2520 0.950 . S
C2530 C2531 1.386 . S
C2530 C2532 1.391 . S
C2531 C2530 1.386 . S
C2531 C2535 1.393 . S
C2532 H2521 0.950 . S
C2532 C2530 1.391 . S
C2532 C2533 1.400 . S
C2533 C2527 1.491 . S
C2533 C2532 1.400 . S
C2533 C2534 1.398 . S
C2534 H2522 0.950 . S
C2534 C2533 1.398 . S
C2534 C2535 1.391 . S
C2535 H2523 0.950 . S
C2535 C2531 1.393 . S
C2535 C2534 1.391 . S
H2536 C2544 0.950 . S
H2537 C2549 0.950 . S
H2538 C2546 0.950 . S
H2539 C2548 0.950 . S
H2540 C2550 0.950 . S
H2541 C2552 0.950 . S
H2542 C2554 0.950 . S
H2543 C2555 0.950 . S
C2544 H2536 0.950 . S
C2544 C2545 1.386 . S
C2544 C2546 1.391 . S
C2545 C2544 1.386 . S
C2545 C2549 1.393 . S
C2546 H2538 0.950 . S
C2546 C2544 1.391 . S
C2546 C2547 1.400 . S
C2547 C2546 1.400 . S
C2547 C2548 1.398 . S
C2547 C2553 1.491 . S
C2548 H2539 0.950 . S
C2548 C2547 1.398 . S
C2548 C2549 1.391 . S
C2549 H2537 0.950 . S
C2549 C2545 1.393 . S
C2549 C2548 1.391 . S
C2550 H2540 0.950 . S
C2550 C2551 1.386 . S
C2550 C2552 1.391 . S
C2551 C2550 1.386 . S
C2551 C2555 1.393 . S
C2552 H2541 0.950 . S
C2552 C2550 1.391 . S
C2552 C2553 1.400 . S
C2553 C2547 1.491 . S
C2553 C2552 1.400 . S
C2553 C2554 1.398 . S
C2554 H2542 0.950 . S
C2554 C2553 1.398 . S
C2554 C2555 1.391 . S
C2555 H2543 0.950 . S
C2555 C2551 1.393 . S
C2555 C2554 1.391 . S
H2556 C2564 0.950 . S
H2557 C2569 0.950 . S
H2558 C2566 0.950 . S
H2559 C2568 0.950 . S
H2560 C2570 0.950 . S
H2561 C2572 0.950 1_655 S
H2562 C2574 0.950 1_655 S
H2563 C2575 0.950 . S
C2564 H2556 0.950 . S
C2564 C2565 1.386 . S
C2564 C2566 1.391 . S
C2565 C2564 1.386 . S
C2565 C2569 1.393 . S
C2566 H2558 0.950 . S
C2566 C2564 1.391 . S
C2566 C2567 1.400 . S
C2567 C2566 1.400 . S
C2567 C2568 1.398 . S
C2567 C2573 1.491 . S
C2568 H2559 0.950 . S
C2568 C2567 1.398 . S
C2568 C2569 1.391 . S
C2569 H2557 0.950 . S
C2569 C2565 1.393 . S
C2569 C2568 1.391 . S
C2570 H2560 0.950 . S
C2570 C2571 1.386 . S
C2570 C2572 1.391 . S
C2571 C2570 1.386 . S
C2571 C2575 1.393 . S
C2572 H2561 0.950 1_455 S
C2572 C2570 1.391 . S
C2572 C2573 1.400 1_455 S
C2573 C2567 1.491 . S
C2573 C2572 1.400 1_655 S
C2573 C2574 1.398 1_655 S
C2574 H2562 0.950 1_455 S
C2574 C2573 1.398 1_455 S
C2574 C2575 1.391 . S
C2575 H2563 0.950 . S
C2575 C2571 1.393 . S
C2575 C2574 1.391 . S
H2576 C2584 0.950 . S
H2577 C2589 0.950 . S
H2578 C2586 0.950 . S
H2579 C2588 0.950 . S
H2580 C2590 0.950 . S
H2581 C2592 0.950 . S
H2582 C2594 0.950 . S
H2583 C2595 0.950 . S
C2584 H2576 0.950 . S
C2584 C2585 1.386 . S
C2584 C2586 1.391 . S
C2585 C2584 1.386 . S
C2585 C2589 1.393 . S
C2586 H2578 0.950 . S
C2586 C2584 1.391 . S
C2586 C2587 1.400 . S
C2587 C2586 1.400 . S
C2587 C2588 1.398 . S
C2587 C2593 1.491 . S
C2588 H2579 0.950 . S
C2588 C2587 1.398 . S
C2588 C2589 1.391 . S
C2589 H2577 0.950 . S
C2589 C2585 1.393 . S
C2589 C2588 1.391 . S
C2590 H2580 0.950 . S
C2590 C2591 1.386 . S
C2590 C2592 1.391 . S
C2591 C2590 1.386 . S
C2591 C2595 1.393 . S
C2592 H2581 0.950 . S
C2592 C2590 1.391 . S
C2592 C2593 1.400 . S
C2593 C2587 1.491 . S
C2593 C2592 1.400 . S
C2593 C2594 1.398 . S
C2594 H2582 0.950 . S
C2594 C2593 1.398 . S
C2594 C2595 1.391 . S
C2595 H2583 0.950 . S
C2595 C2591 1.393 . S
C2595 C2594 1.391 . S
H2596 C2604 0.950 . S
H2597 C2609 0.950 . S
H2598 C2606 0.939 1_655 S
H2599 C2608 0.948 1_655 S
H2600 C2610 0.950 . S
H2601 C2612 0.950 . S
H2602 C2614 0.950 . S
H2603 C2615 0.950 . S
C2604 H2596 0.950 . S
C2604 C2605 1.386 . S
C2604 C2606 1.409 . S
C2605 C2604 1.386 . S
C2605 C2609 1.393 . S
C2606 H2598 0.939 1_455 S
C2606 C2604 1.409 . S
C2606 C2607 1.393 1_455 S
C2607 C2606 1.393 1_655 S
C2607 C2608 1.398 1_655 S
C2607 C2613 1.491 . S
C2608 H2599 0.948 1_455 S
C2608 C2607 1.398 1_455 S
C2608 C2609 1.391 . S
C2609 H2597 0.950 . S
C2609 C2605 1.393 . S
C2609 C2608 1.391 . S
C2610 H2600 0.950 . S
C2610 C2611 1.386 . S
C2610 C2612 1.391 . S
C2611 C2610 1.386 . S
C2611 C2615 1.393 . S
C2612 H2601 0.950 . S
C2612 C2610 1.391 . S
C2612 C2613 1.400 . S
C2613 C2607 1.491 . S
C2613 C2612 1.400 . S
C2613 C2614 1.398 . S
C2614 H2602 0.950 . S
C2614 C2613 1.398 . S
C2614 C2615 1.391 . S
C2615 H2603 0.950 . S
C2615 C2611 1.393 . S
C2615 C2614 1.391 . S
H2616 C2624 0.950 . S
H2617 C2629 0.950 . S
H2618 C2626 0.950 . S
H2619 C2628 0.950 . S
H2620 C2630 0.950 . S
H2621 C2632 0.950 . S
H2622 C2634 0.950 . S
H2623 C2635 0.950 . S
C2624 H2616 0.950 . S
C2624 C2625 1.386 . S
C2624 C2626 1.391 . S
C2625 C2624 1.386 . S
C2625 C2629 1.393 . S
C2626 H2618 0.950 . S
C2626 C2624 1.391 . S
C2626 C2627 1.400 . S
C2627 C2626 1.400 . S
C2627 C2628 1.398 . S
C2627 C2633 1.491 . S
C2628 H2619 0.950 . S
C2628 C2627 1.398 . S
C2628 C2629 1.391 . S
C2629 H2617 0.950 . S
C2629 C2625 1.393 . S
C2629 C2628 1.391 . S
C2630 H2620 0.950 . S
C2630 C2631 1.386 . S
C2630 C2632 1.391 . S
C2631 C2630 1.386 . S
C2631 C2635 1.393 . S
C2632 H2621 0.950 . S
C2632 C2630 1.391 . S
C2632 C2633 1.400 . S
C2633 C2627 1.491 . S
C2633 C2632 1.400 . S
C2633 C2634 1.398 . S
C2634 H2622 0.950 . S
C2634 C2633 1.398 . S
C2634 C2635 1.391 . S
C2635 H2623 0.950 . S
C2635 C2631 1.393 . S
C2635 C2634 1.391 . S
H2636 C2644 0.950 . S
H2637 C2649 0.950 . S
H2638 C2646 0.950 . S
H2639 C2648 0.950 . S
H2640 C2650 0.950 . S
H2641 C2652 0.950 . S
H2642 C2654 0.950 . S
H2643 C2655 0.950 . S
C2644 H2636 0.950 . S
C2644 C2645 1.386 . S
C2644 C2646 1.391 . S
C2645 C2644 1.386 . S
C2645 C2649 1.393 . S
C2646 H2638 0.950 . S
C2646 C2644 1.391 . S
C2646 C2647 1.400 . S
C2647 C2646 1.400 . S
C2647 C2648 1.398 . S
C2647 C2653 1.491 . S
C2648 H2639 0.950 . S
C2648 C2647 1.398 . S
C2648 C2649 1.391 . S
C2649 H2637 0.950 . S
C2649 C2645 1.393 . S
C2649 C2648 1.391 . S
C2650 H2640 0.950 . S
C2650 C2651 1.386 . S
C2650 C2652 1.391 . S
C2651 C2650 1.386 . S
C2651 C2655 1.393 . S
C2652 H2641 0.950 . S
C2652 C2650 1.391 . S
C2652 C2653 1.400 . S
C2653 C2647 1.491 . S
C2653 C2652 1.400 . S
C2653 C2654 1.398 . S
C2654 H2642 0.950 . S
C2654 C2653 1.398 . S
C2654 C2655 1.391 . S
C2655 H2643 0.950 . S
C2655 C2651 1.393 . S
C2655 C2654 1.391 . S
C1065 C238 1.331 1_554 S
C1071 C7 1.378 . S
C1085 C40 1.350 . S
C1091 C139 1.376 . S
C1105 C73 1.356 . S
C1111 C172 1.377 . S
C1125 C205 1.354 . S
C1131 C106 1.370 1_556 S
C1145 C271 1.369 . S
C1151 C502 1.355 1_556 S
C1165 C403 1.370 . S
C1171 C304 1.354 . S
C1185 C337 1.364 . S
C1191 C436 1.371 . S
C1205 C469 1.379 . S
C1211 C370 1.351 1_554 S
C1225 C766 1.374 . S
C1231 C535 1.351 . S
C1245 C667 1.359 . S
C1251 C568 1.354 1_556 S
C1265 C700 1.332 1_554 S
C1271 C601 1.378 . S
C1285 C733 1.363 . S
C1291 C634 1.372 . S
C1305 C1030 1.379 . S
C1311 C799 1.352 . S
C1325 C832 1.350 1_554 S
C1331 C931 1.379 . S
C1345 C964 1.357 1_556 S
C1351 C865 1.366 . S
C1365 C997 1.354 . S
C1371 C898 1.370 . S
C1385 C18 0.673 . S
C1391 C249 0.698 . S
C1405 C51 0.681 . S
C1411 C150 0.714 1_556 S
C1425 C84 0.677 1_554 S
C1431 C183 0.689 . S
C1445 C117 0.714 . S
C1451 C216 0.686 . S
C1465 C513 0.704 . S
C1471 C282 0.673 . S
C1485 C315 0.700 . S
C1491 C414 0.673 1_554 S
C1505 C447 0.690 . S
C1511 C348 0.677 1_556 S
C1525 C381 0.673 . S
C1531 C480 0.706 . S
C1545 C546 0.710 1_554 S
C1551 C777 0.700 . S
C1565 C678 0.707 . S
C1571 C579 0.674 . S
C1585 C711 0.688 . S
C1591 C612 0.714 . S
C1605 C645 0.711 . S
C1611 C744 0.698 1_556 S
C1625 C810 0.682 1_556 S
C1631 C1041 0.714 . S
C1645 C843 0.683 . S
C1651 C942 0.714 . S
C1665 C876 0.681 . S
C1671 C975 0.684 . S
C1685 C909 0.692 . S
C1691 C1008 0.714 1_554 S
C1705 N211 1.576 . S
C1711 N13 1.576 . S
C1725 N46 1.579 . S
C1731 N244 1.579 . S
C1745 N145 1.577 . S
C1751 N79 1.578 . S
C1765 N178 1.577 . S
C1771 N112 1.578 . S
C1785 N475 1.579 . S
C1791 N277 1.578 . S
C1805 N508 1.576 . S
C1811 N310 1.577 . S
C1825 N409 1.579 . S
C1831 N343 1.578 . S
C1845 N442 1.576 . S
C1851 N376 1.576 . S
C1865 N541 1.578 . S
C1871 N739 1.579 . S
C1885 N772 1.576 . S
C1891 N574 1.576 . S
C1905 N673 1.579 . S
C1911 N607 1.578 . S
C1925 N706 1.579 . S
C1931 N640 1.579 . S
C1945 N1003 1.579 . S
C1951 N805 1.579 . S
C1965 N838 1.576 . S
C1971 N1036 1.576 . S
C1985 N937 1.576 . S
C1991 N871 1.577 . S
C2005 N970 1.576 . S
C2011 N904 1.576 . S
C2025 C21 1.629 . S
C2031 N893 1.550 . S
C2045 N266 1.520 . S
C2051 C54 1.624 . S
C2065 N827 1.520 . S
C2071 C87 1.624 . S
C2085 C120 1.627 . S
C2091 N332 1.530 . S
C2105 C153 1.630 . S
C2111 N959 1.548 . S
C2125 C186 1.626 . S
C2131 N464 1.539 . S
C2145 C219 1.629 . S
C2151 N1025 1.541 . S
C2165 N398 1.527 . S
C2171 C252 1.624 . S
C2185 N629 1.526 . S
C2191 C285 1.626 . S
C2205 C318 1.630 . S
C2211 N2 1.546 . S
C2225 C351 1.627 . S
C2231 N563 1.531 . S
C2245 N68 1.541 . S
C2251 C384 1.626 . S
C2265 N695 1.521 . S
C2271 C417 1.625 . S
C2285 C450 1.624 . S
C2291 N200 1.520 . S
C2305 C483 1.630 . S
C2311 N761 1.549 . S
C2325 N134 1.523 . S
C2331 C516 1.625 . S
C2345 N365 1.524 . S
C2351 C549 1.626 . S
C2365 N794 1.550 . S
C2371 C582 1.630 . S
C2385 C615 1.624 . S
C2391 N299 1.521 . S
C2405 C648 1.630 . S
C2411 N860 1.546 . S
C2425 N431 1.521 . S
C2431 C681 1.624 . S
C2445 C714 1.625 . S
C2451 N992 1.531 . S
C2465 N497 1.551 . S
C2471 C747 1.630 . S
C2485 N926 1.549 . S
C2491 C780 1.630 . S
C2505 N101 1.531 . S
C2511 C813 1.627 . S
C2525 C846 1.624 . S
C2531 N530 1.521 . S
C2545 N35 1.548 . S
C2551 C879 1.630 . S
C2565 N596 1.541 . S
C2571 C912 1.629 . S
C2585 N167 1.549 . S
C2591 C945 1.630 . S
C2605 C978 1.624 . S
C2611 N728 1.521 . S
C2625 C1011 1.625 . S
C2631 N233 1.522 . S
C2645 C1044 1.629 . S
C2651 N662 1.537 . S
