# Generated by pormake.
# Topology etd, (3)-cn, num edge types: 1
# Building blocks:
#     Node 0, Type 0, BuildingBlock: OLANEW_clean_sbu_2, # of connection points: 3
#     Node 1, Type 0, BuildingBlock: OLANEW_clean_sbu_2, # of connection points: 3
#     Node 2, Type 0, BuildingBlock: OLANEW_clean_sbu_2, # of connection points: 3
#     Node 3, Type 0, BuildingBlock: OLANEW_clean_sbu_2, # of connection points: 3
#     Node 4, Type 0, BuildingBlock: OLANEW_clean_sbu_2, # of connection points: 3
#     Node 5, Type 0, BuildingBlock: OLANEW_clean_sbu_2, # of connection points: 3
#     Node 6, Type 0, BuildingBlock: OLANEW_clean_sbu_2, # of connection points: 3
#     Node 7, Type 0, BuildingBlock: OLANEW_clean_sbu_2, # of connection points: 3
#     Node 8, Type 0, BuildingBlock: OLANEW_clean_sbu_2, # of connection points: 3
#     Node 9, Type 0, BuildingBlock: OLANEW_clean_sbu_2, # of connection points: 3
#     Node 10, Type 0, BuildingBlock: OLANEW_clean_sbu_2, # of connection points: 3
#     Node 11, Type 0, BuildingBlock: OLANEW_clean_sbu_2, # of connection points: 3
#     Edge 12, Type (0, 0), BuildingBlock: FUNLAD_clean_linker_0, # of connection points: 2
#     Edge 13, Type (0, 0), BuildingBlock: FUNLAD_clean_linker_0, # of connection points: 2
#     Edge 14, Type (0, 0), BuildingBlock: FUNLAD_clean_linker_0, # of connection points: 2
#     Edge 15, Type (0, 0), BuildingBlock: FUNLAD_clean_linker_0, # of connection points: 2
#     Edge 16, Type (0, 0), BuildingBlock: FUNLAD_clean_linker_0, # of connection points: 2
#     Edge 17, Type (0, 0), BuildingBlock: FUNLAD_clean_linker_0, # of connection points: 2
#     Edge 18, Type (0, 0), BuildingBlock: FUNLAD_clean_linker_0, # of connection points: 2
#     Edge 19, Type (0, 0), BuildingBlock: FUNLAD_clean_linker_0, # of connection points: 2
#     Edge 20, Type (0, 0), BuildingBlock: FUNLAD_clean_linker_0, # of connection points: 2
#     Edge 21, Type (0, 0), BuildingBlock: FUNLAD_clean_linker_0, # of connection points: 2
#     Edge 22, Type (0, 0), BuildingBlock: FUNLAD_clean_linker_0, # of connection points: 2
#     Edge 23, Type (0, 0), BuildingBlock: FUNLAD_clean_linker_0, # of connection points: 2
#     Edge 24, Type (0, 0), BuildingBlock: FUNLAD_clean_linker_0, # of connection points: 2
#     Edge 25, Type (0, 0), BuildingBlock: FUNLAD_clean_linker_0, # of connection points: 2
#     Edge 26, Type (0, 0), BuildingBlock: FUNLAD_clean_linker_0, # of connection points: 2
#     Edge 27, Type (0, 0), BuildingBlock: FUNLAD_clean_linker_0, # of connection points: 2
#     Edge 28, Type (0, 0), BuildingBlock: FUNLAD_clean_linker_0, # of connection points: 2
#     Edge 29, Type (0, 0), BuildingBlock: FUNLAD_clean_linker_0, # of connection points: 2
# Relax obj value: 0.002
# Max RMSD: 0.055
# Mean RMSD: 0.055
data_MOF--net-etd--node1-OLANEW_clean_sbu_2--edge1-FUNLAD_clean_linker_0
_symmetry_space_group_name_H-M    P1
_symmetry_Int_Tables_number       1
_symmetry_cell_setting            triclinic
loop_
_symmetry_equiv_pos_as_xyz
'x, y, z'
_cell_length_a     70.720147
_cell_length_b     70.729823
_cell_length_c     52.393387
_cell_angle_alpha  89.967307
_cell_angle_beta   90.01292
_cell_angle_gamma 119.99248
loop_
_atom_site_label
_atom_site_type_symbol
_atom_site_fract_x
_atom_site_fract_y
_atom_site_fract_z
_atom_type_partial_charge
O0 O 0.59583 0.1173 0.12898 0.0
Cd1 Cd 0.60974 0.11987 0.08565 0.0
O2 O 0.5854 0.14004 0.11629 0.0
Cd3 Cd 0.5735 0.16329 0.11649 0.0
O4 O 0.56616 0.18824 0.10329 0.0
C5 C 0.56649 0.2027 0.11796 0.0
O6 O 0.57079 0.20244 0.14231 0.0
C7 C 0.58698 0.12866 0.13412 0.0
C8 C 0.59277 0.07993 0.06048 0.0
O9 O 0.61019 0.08739 0.07394 0.0
O10 O 0.58319 0.09124 0.05925 0.0
O11 O 0.47902 0.60368 0.29997 0.0
Cd12 Cd 0.49345 0.61944 0.25804 0.0
O13 O 0.44681 0.5958 0.28584 0.0
Cd14 Cd 0.412 0.58542 0.28688 0.0
O15 O 0.37835 0.57791 0.28109 0.0
C16 C 0.36887 0.56932 0.26015 0.0
O17 O 0.37945 0.56476 0.24285 0.0
C18 C 0.45869 0.59555 0.30395 0.0
C19 C 0.50985 0.59673 0.23118 0.0
O20 O 0.52214 0.61264 0.24596 0.0
O21 O 0.48974 0.59148 0.22924 0.0
O22 O 0.87439 0.4804 0.46958 0.0
Cd23 Cd 0.87228 0.4939 0.42732 0.0
O24 O 0.85599 0.44727 0.45421 0.0
Cd25 Cd 0.83669 0.4116 0.45535 0.0
O26 O 0.81254 0.37732 0.44887 0.0
C27 C 0.79879 0.36611 0.46606 0.0
O28 O 0.79977 0.3752 0.48825 0.0
C29 C 0.86536 0.45991 0.47302 0.0
C30 C 0.91153 0.51247 0.40038 0.0
O31 O 0.90696 0.52402 0.41523 0.0
O32 O 0.89762 0.49205 0.39849 0.0
O33 O 0.38907 0.87425 0.64011 0.0
Cd34 Cd 0.37406 0.87522 0.5984 0.0
O35 O 0.39797 0.85145 0.62344 0.0
Cd36 Cd 0.412 0.83004 0.62059 0.0
O37 O 0.42029 0.80454 0.61405 0.0
C38 C 0.41657 0.79038 0.63121 0.0
O39 O 0.40828 0.79172 0.65312 0.0
C40 C 0.39731 0.862 0.64278 0.0
C41 C 0.39991 0.91356 0.57108 0.0
O42 O 0.3848 0.91185 0.58606 0.0
O43 O 0.40296 0.8972 0.56924 0.0
O44 O 0.52486 0.40811 0.80337 0.0
Cd45 Cd 0.51741 0.39875 0.75816 0.0
O46 O 0.55869 0.41763 0.79477 0.0
Cd47 Cd 0.59373 0.43032 0.80001 0.0
O48 O 0.62755 0.43765 0.7971 0.0
C49 C 0.63453 0.42807 0.81162 0.0
O50 O 0.62135 0.41439 0.82894 0.0
C51 C 0.54429 0.41517 0.81109 0.0
C52 C 0.49762 0.41919 0.73319 0.0
O53 O 0.48617 0.40061 0.74407 0.0
O54 O 0.51847 0.42826 0.73444 0.0
O55 O 0.12432 0.52112 0.96224 0.0
Cd56 Cd 0.12438 0.51246 0.91706 0.0
O57 O 0.1457 0.55529 0.95167 0.0
Cd58 Cd 0.1686 0.59013 0.9572 0.0
O59 O 0.19564 0.6231 0.94994 0.0
C60 C 0.19687 0.63114 0.92788 0.0
O61 O 0.18153 0.6197 0.91111 0.0
C62 C 0.13556 0.54102 0.96884 0.0
C63 C 0.08365 0.49442 0.89345 0.0
O64 O 0.08999 0.48227 0.90425 0.0
O65 O 0.09646 0.51515 0.89416 0.0
O66 O 0.87349 0.39045 0.69915 0.0
Cd67 Cd 0.8731 0.3754 0.74131 0.0
O68 O 0.85093 0.40024 0.71446 0.0
Cd69 Cd 0.82991 0.41476 0.71657 0.0
O70 O 0.80478 0.42346 0.72387 0.0
C71 C 0.80213 0.42827 0.74647 0.0
O72 O 0.81501 0.42844 0.76466 0.0
C73 C 0.86171 0.39912 0.69562 0.0
C74 C 0.9129 0.3972 0.76707 0.0
O75 O 0.9085 0.38117 0.75213 0.0
O76 O 0.89857 0.40312 0.76956 0.0
O77 O 0.48611 0.87249 0.86286 0.0
Cd78 Cd 0.50177 0.87188 0.90421 0.0
O79 O 0.45387 0.85513 0.88075 0.0
Cd80 Cd 0.41818 0.83644 0.88235 0.0
O81 O 0.38421 0.81279 0.89139 0.0
C82 C 0.37373 0.79593 0.87756 0.0
O83 O 0.38338 0.79351 0.85741 0.0
C84 C 0.4655 0.86371 0.86098 0.0
C85 C 0.5147 0.90987 0.93235 0.0
O86 O 0.52802 0.90814 0.91724 0.0
O87 O 0.49522 0.89364 0.93404 0.0
O88 O 0.61361 0.4865 0.04124 0.0
Cd89 Cd 0.62369 0.49613 0.08595 0.0
O90 O 0.59446 0.4525 0.0536 0.0
Cd91 Cd 0.5761 0.41691 0.05008 0.0
O92 O 0.56447 0.38259 0.05874 0.0
C93 C 0.57285 0.37263 0.04748 0.0
O94 O 0.58767 0.38296 0.02977 0.0
C95 C 0.60142 0.46648 0.03564 0.0
C96 C 0.60313 0.51645 0.10933 0.0
O97 O 0.62139 0.52762 0.0977 0.0
O98 O 0.59441 0.49562 0.10956 0.0
O99 O 0.11962 0.60037 0.20102 0.0
Cd100 Cd 0.12103 0.60975 0.24617 0.0
O101 O 0.14126 0.58771 0.21059 0.0
Cd102 Cd 0.16139 0.57234 0.20668 0.0
O103 O 0.18654 0.56322 0.21069 0.0
C104 C 0.20169 0.56931 0.19424 0.0
O105 O 0.20152 0.58045 0.17425 0.0
C106 C 0.13071 0.59171 0.1938 0.0
C107 C 0.08092 0.58717 0.27114 0.0
O108 O 0.08689 0.60549 0.26013 0.0
O109 O 0.09383 0.57938 0.27005 0.0
O110 O 0.52242 0.11824 0.36952 0.0
Cd111 Cd 0.51212 0.12135 0.41321 0.0
O112 O 0.55519 0.14416 0.37976 0.0
Cd113 Cd 0.58933 0.16978 0.37509 0.0
O114 O 0.62262 0.1971 0.37923 0.0
C115 C 0.63394 0.19737 0.39823 0.0
O116 O 0.62545 0.18093 0.41434 0.0
C117 C 0.54214 0.13103 0.36309 0.0
C118 C 0.48989 0.08182 0.43944 0.0
O119 O 0.47955 0.089 0.42618 0.0
O120 O 0.51079 0.0932 0.43995 0.0
O121 O 0.3897 0.51404 0.53057 0.0
Cd122 Cd 0.3731 0.49933 0.57211 0.0
O123 O 0.39478 0.54561 0.54352 0.0
Cd124 Cd 0.40274 0.57973 0.5413 0.0
O125 O 0.40837 0.61285 0.54603 0.0
C126 C 0.41842 0.62367 0.56575 0.0
O127 O 0.42554 0.61477 0.5824 0.0
C128 C 0.39656 0.53409 0.52607 0.0
C129 C 0.39532 0.48315 0.60043 0.0
O130 O 0.38006 0.47088 0.5849 0.0
O131 O 0.40022 0.50316 0.60236 0.0
C132 C 0.58829 0.12283 0.18096 0.0
C133 C 0.5797 0.12907 0.16054 0.0
C134 C 0.58171 0.1231 0.20603 0.0
C135 C 0.56641 0.12978 0.21135 0.0
C136 C 0.55747 0.13554 0.19086 0.0
C137 C 0.56401 0.13518 0.16575 0.0
C138 C 0.55875 0.13012 0.23775 0.0
C139 C 0.5699 0.13081 0.25898 0.0
C140 C 0.56226 0.13089 0.28546 0.0
C141 C 0.57744 0.13747 0.30553 0.0
C142 C 0.57099 0.13749 0.33075 0.0
C143 C 0.5492 0.13099 0.33649 0.0
H144 H 0.52783 0.11786 0.27672 0.0
C145 C 0.53387 0.12393 0.31655 0.0
C146 C 0.54028 0.12383 0.29133 0.0
H147 H 0.51687 0.11852 0.32041 0.0
H148 H 0.6002 0.11773 0.1776 0.0
H149 H 0.58843 0.11768 0.22098 0.0
H150 H 0.54532 0.14032 0.19428 0.0
H151 H 0.55636 0.1392 0.15048 0.0
H152 H 0.54375 0.13067 0.2395 0.0
H153 H 0.58582 0.13219 0.25711 0.0
H154 H 0.59438 0.14254 0.30171 0.0
H155 H 0.58301 0.14207 0.34573 0.0
C156 C 0.39908 0.52956 0.47914 0.0
C157 C 0.40556 0.54327 0.50062 0.0
C158 C 0.4074 0.53795 0.45496 0.0
C159 C 0.42238 0.56035 0.45168 0.0
C160 C 0.42923 0.57392 0.4733 0.0
C161 C 0.42096 0.56549 0.4975 0.0
C162 C 0.4319 0.57006 0.42636 0.0
C163 C 0.42295 0.56053 0.40383 0.0
C164 C 0.43255 0.57009 0.3785 0.0
C165 C 0.41931 0.56205 0.35668 0.0
C166 C 0.42769 0.57024 0.33244 0.0
C167 C 0.44952 0.58676 0.32947 0.0
H168 H 0.4657 0.59243 0.39142 0.0
C169 C 0.46294 0.5945 0.35118 0.0
C170 C 0.45461 0.58627 0.3754 0.0
H171 H 0.47995 0.60701 0.34946 0.0
H172 H 0.38748 0.51228 0.48098 0.0
H173 H 0.40225 0.52667 0.43911 0.0
H174 H 0.4411 0.59113 0.4715 0.0
H175 H 0.42709 0.5763 0.51376 0.0
H176 H 0.44641 0.58609 0.42654 0.0
H177 H 0.40743 0.54538 0.40366 0.0
H178 H 0.40239 0.54927 0.35835 0.0
H179 H 0.41718 0.56317 0.31606 0.0
C180 C 0.87799 0.41319 0.65258 0.0
C181 C 0.86085 0.40758 0.67 0.0
C182 C 0.87715 0.42056 0.62807 0.0
C183 C 0.85908 0.42241 0.62041 0.0
C184 C 0.84205 0.41696 0.63784 0.0
C185 C 0.84277 0.40933 0.66225 0.0
C186 C 0.85784 0.43056 0.59469 0.0
C187 C 0.8668 0.42712 0.57378 0.0
C188 C 0.86575 0.43544 0.54809 0.0
C189 C 0.8662 0.42409 0.52634 0.0
C190 C 0.86578 0.43182 0.50188 0.0
C191 C 0.86519 0.45123 0.49873 0.0
H192 H 0.86565 0.46454 0.5612 0.0
C193 C 0.86514 0.46282 0.52047 0.0
C194 C 0.86533 0.45498 0.54491 0.0
H195 H 0.86492 0.47796 0.51859 0.0
H196 H 0.89216 0.41202 0.65794 0.0
H197 H 0.89083 0.42514 0.61535 0.0
H198 H 0.82791 0.41817 0.63237 0.0
H199 H 0.82885 0.40423 0.67462 0.0
H200 H 0.84831 0.43868 0.59281 0.0
H201 H 0.87437 0.41706 0.57523 0.0
H202 H 0.86689 0.40919 0.52827 0.0
H203 H 0.86655 0.42292 0.48549 0.0
C204 C 0.41285 0.87757 0.68563 0.0
C205 C 0.40595 0.86041 0.66796 0.0
C206 C 0.42067 0.87615 0.70964 0.0
C207 C 0.42168 0.85745 0.71654 0.0
C208 C 0.41484 0.84034 0.6989 0.0
C209 C 0.40676 0.84166 0.67501 0.0
C210 C 0.43046 0.85566 0.7416 0.0
C211 C 0.4284 0.865 0.76303 0.0
C212 C 0.43763 0.86367 0.78799 0.0
C213 C 0.42759 0.8648 0.81061 0.0
C214 C 0.43635 0.86439 0.83441 0.0
C215 C 0.45552 0.86314 0.83601 0.0
H216 H 0.46543 0.86226 0.77262 0.0
C217 C 0.46575 0.86232 0.8134 0.0
C218 C 0.45686 0.86248 0.78963 0.0
H219 H 0.48068 0.86159 0.81408 0.0
H220 H 0.4124 0.89224 0.6808 0.0
H221 H 0.4263 0.88988 0.72253 0.0
H222 H 0.41536 0.82572 0.70379 0.0
H223 H 0.40059 0.82772 0.66246 0.0
H224 H 0.43799 0.84553 0.74256 0.0
H225 H 0.41891 0.87323 0.76258 0.0
H226 H 0.41296 0.86608 0.80987 0.0
H227 H 0.42851 0.86576 0.85148 0.0
C228 C 0.57653 0.44162 0.00149 0.0
C229 C 0.59648 0.45982 0.00863 0.0
C230 C 0.57187 0.43587 0.97574 0.0
C231 C 0.58715 0.44822 0.95669 0.0
C232 C 0.60721 0.46617 0.96394 0.0
C233 C 0.61173 0.47208 0.9896 0.0
C234 C 0.58289 0.44268 0.92918 0.0
C235 C 0.56279 0.43358 0.91882 0.0
C236 C 0.55868 0.4291 0.89107 0.0
C237 C 0.54073 0.42931 0.87997 0.0
C238 C 0.53629 0.42505 0.85396 0.0
C239 C 0.54962 0.4203 0.83847 0.0
H240 H 0.58529 0.42281 0.8838 0.0
C241 C 0.56726 0.41954 0.84971 0.0
C242 C 0.57183 0.42399 0.8757 0.0
H243 H 0.57713 0.41477 0.83874 0.0
H244 H 0.56432 0.43211 0.01569 0.0
H245 H 0.55642 0.42166 0.97087 0.0
H246 H 0.6193 0.47586 0.94967 0.0
H247 H 0.62727 0.48616 0.99457 0.0
H248 H 0.59696 0.44771 0.91685 0.0
H249 H 0.54901 0.4306 0.93076 0.0
H250 H 0.5302 0.43295 0.89143 0.0
H251 H 0.5224 0.42552 0.84595 0.0
C252 C 0.13935 0.56702 0.00362 0.0
C253 C 0.13733 0.54705 0.99608 0.0
C254 C 0.14037 0.57227 0.02953 0.0
C255 C 0.1395 0.55764 0.04834 0.0
C256 C 0.13791 0.53788 0.04072 0.0
C257 C 0.13654 0.5325 0.01487 0.0
C258 C 0.14054 0.56262 0.07599 0.0
C259 C 0.13175 0.57402 0.086 0.0
C260 C 0.13175 0.5781 0.11379 0.0
C261 C 0.11466 0.5803 0.12414 0.0
C262 C 0.11424 0.58438 0.15016 0.0
C263 C 0.13106 0.58661 0.16642 0.0
H264 H 0.16262 0.57983 0.12242 0.0
C265 C 0.14846 0.58494 0.15593 0.0
C266 C 0.14875 0.58059 0.12993 0.0
H267 H 0.16226 0.58775 0.16748 0.0
H268 H 0.13963 0.57838 0.98957 0.0
H269 H 0.14204 0.58784 0.03474 0.0
H270 H 0.13735 0.52641 0.05483 0.0
H271 H 0.13505 0.51701 0.00957 0.0
H272 H 0.14732 0.55532 0.08862 0.0
H273 H 0.12299 0.57937 0.07363 0.0
H274 H 0.10148 0.57869 0.11207 0.0
H275 H 0.1007 0.58581 0.15755 0.0
C276 C 0.56537 0.23742 0.12297 0.0
C277 C 0.56354 0.22047 0.10728 0.0
C278 C 0.56412 0.25497 0.11252 0.0
C279 C 0.56084 0.25586 0.08612 0.0
C280 C 0.55863 0.23871 0.07058 0.0
C281 C 0.55987 0.22118 0.08102 0.0
C282 C 0.56134 0.27508 0.07381 0.0
C283 C 0.5576 0.28952 0.08635 0.0
C284 C 0.56026 0.30984 0.07451 0.0
C285 C 0.54983 0.32021 0.08578 0.0
C286 C 0.55333 0.34026 0.0765 0.0
C287 C 0.56755 0.3505 0.05585 0.0
H288 H 0.58303 0.31286 0.04468 0.0
C289 C 0.57767 0.33995 0.04425 0.0
C290 C 0.57415 0.3199 0.0535 0.0
H291 H 0.58882 0.34744 0.02841 0.0
H292 H 0.56833 0.23744 0.14325 0.0
H293 H 0.56652 0.26809 0.12513 0.0
H294 H 0.55624 0.23901 0.05019 0.0
H295 H 0.55838 0.20841 0.06836 0.0
H296 H 0.56475 0.27716 0.05348 0.0
H297 H 0.55216 0.28637 0.10606 0.0
H298 H 0.53917 0.31294 0.10208 0.0
H299 H 0.54529 0.34795 0.08593 0.0
C300 C 0.22103 0.55466 0.22079 0.0
C301 C 0.22015 0.56539 0.19859 0.0
C302 C 0.2392 0.55238 0.22582 0.0
C303 C 0.25698 0.56091 0.20879 0.0
C304 C 0.25566 0.57078 0.18613 0.0
C305 C 0.23751 0.5731 0.18111 0.0
C306 C 0.27719 0.56002 0.21406 0.0
C307 C 0.28406 0.55921 0.23784 0.0
C308 C 0.30537 0.56064 0.24336 0.0
C309 C 0.31508 0.56842 0.26731 0.0
C310 C 0.33554 0.57095 0.27293 0.0
C311 C 0.34669 0.56556 0.25475 0.0
H312 H 0.30896 0.54777 0.20712 0.0
C313 C 0.33665 0.55705 0.23109 0.0
C314 C 0.3162 0.55455 0.22545 0.0
H315 H 0.34468 0.55249 0.21676 0.0
H316 H 0.2078 0.54828 0.23451 0.0
H317 H 0.2392 0.54394 0.24304 0.0
H318 H 0.26899 0.57726 0.17252 0.0
H319 H 0.23729 0.58129 0.16373 0.0
H320 H 0.28759 0.56199 0.19786 0.0
H321 H 0.27463 0.55931 0.25414 0.0
H322 H 0.30703 0.57301 0.28157 0.0
H323 H 0.34273 0.57741 0.29142 0.0
C324 C 0.7792 0.33436 0.43625 0.0
C325 C 0.78097 0.34365 0.46048 0.0
C326 C 0.76156 0.31376 0.43043 0.0
C327 C 0.74522 0.30204 0.4487 0.0
C328 C 0.74748 0.31097 0.4732 0.0
C329 C 0.76509 0.33157 0.47902 0.0
C330 C 0.72557 0.2806 0.44297 0.0
C331 C 0.71732 0.27444 0.41926 0.0
C332 C 0.69648 0.254 0.41379 0.0
C333 C 0.68478 0.25298 0.39168 0.0
C334 C 0.66464 0.23449 0.38638 0.0
C335 C 0.65583 0.21648 0.403 0.0
H336 H 0.69686 0.23546 0.44673 0.0
C337 C 0.66789 0.21716 0.42467 0.0
C338 C 0.68802 0.23568 0.42999 0.0
H339 H 0.6617 0.20346 0.43772 0.0
H340 H 0.79129 0.34311 0.42162 0.0
H341 H 0.76088 0.30714 0.41162 0.0
H342 H 0.73528 0.3022 0.48775 0.0
H343 H 0.76603 0.33817 0.49793 0.0
H344 H 0.7167 0.27045 0.45916 0.0
H345 H 0.72508 0.28553 0.40338 0.0
H346 H 0.691 0.26675 0.37871 0.0
H347 H 0.65586 0.23445 0.36942 0.0
C348 C 0.43149 0.6571 0.59288 0.0
C349 C 0.42113 0.64553 0.57055 0.0
C350 C 0.43316 0.67727 0.59804 0.0
C351 C 0.42436 0.68627 0.58102 0.0
C352 C 0.41465 0.67502 0.55833 0.0
C353 C 0.41296 0.65484 0.55318 0.0
C354 C 0.42499 0.70726 0.58614 0.0
C355 C 0.42624 0.7153 0.6098 0.0
C356 C 0.42492 0.73528 0.61506 0.0
C357 C 0.41758 0.73763 0.63911 0.0
C358 C 0.4152 0.75568 0.64452 0.0
C359 C 0.4203 0.77192 0.626 0.0
H360 H 0.43721 0.75116 0.57838 0.0
C361 C 0.42838 0.76998 0.60222 0.0
C362 C 0.43074 0.75192 0.59681 0.0
H363 H 0.43271 0.78234 0.58763 0.0
H364 H 0.4382 0.65052 0.60653 0.0
H365 H 0.44147 0.68575 0.6153 0.0
H366 H 0.40795 0.68165 0.54474 0.0
H367 H 0.40502 0.64644 0.53571 0.0
H368 H 0.42265 0.71541 0.5699 0.0
H369 H 0.42652 0.70608 0.62622 0.0
H370 H 0.41322 0.72521 0.65364 0.0
H371 H 0.40908 0.75672 0.6631 0.0
C372 C 0.67029 0.44471 0.78832 0.0
C373 C 0.65663 0.43109 0.80785 0.0
C374 C 0.69056 0.44642 0.78368 0.0
C375 C 0.69757 0.43442 0.79842 0.0
C376 C 0.68427 0.42148 0.81853 0.0
C377 C 0.664 0.41974 0.82315 0.0
C378 C 0.71848 0.43483 0.7934 0.0
C379 C 0.72824 0.43933 0.77033 0.0
C380 C 0.74796 0.43762 0.76466 0.0
C381 C 0.75181 0.43389 0.73937 0.0
C382 C 0.76957 0.4312 0.73335 0.0
C383 C 0.78403 0.43236 0.75252 0.0
H384 H 0.76097 0.44319 0.80328 0.0
C385 C 0.78064 0.43687 0.7777 0.0
C386 C 0.76286 0.43955 0.78372 0.0
H387 H 0.79162 0.43814 0.79288 0.0
H388 H 0.66523 0.45389 0.77636 0.0
H389 H 0.70064 0.4572 0.7686 0.0
H390 H 0.68935 0.41225 0.83038 0.0
H391 H 0.65396 0.40922 0.83847 0.0
H392 H 0.72498 0.42948 0.80879 0.0
H393 H 0.72061 0.44269 0.75433 0.0
H394 H 0.74075 0.43258 0.72425 0.0
H395 H 0.77178 0.4279 0.71373 0.0
C396 C 0.23327 0.66395 0.9377 0.0
C397 C 0.21604 0.65226 0.92048 0.0
C398 C 0.25202 0.6831 0.93004 0.0
C399 C 0.25387 0.69105 0.90496 0.0
C400 C 0.23649 0.67952 0.88794 0.0
C401 C 0.21776 0.66042 0.8956 0.0
C402 C 0.27415 0.71031 0.89529 0.0
C403 C 0.28931 0.72593 0.91044 0.0
C404 C 0.31027 0.74422 0.90067 0.0
C405 C 0.32147 0.76326 0.9154 0.0
C406 C 0.34183 0.78029 0.90762 0.0
C407 C 0.35155 0.77855 0.885 0.0
H408 H 0.31221 0.72795 0.86635 0.0
C409 C 0.34028 0.75958 0.87013 0.0
C410 C 0.31992 0.74258 0.87789 0.0
H411 H 0.34737 0.75763 0.85271 0.0
H412 H 0.23253 0.65804 0.95696 0.0
H413 H 0.26523 0.69109 0.9436 0.0
H414 H 0.23749 0.68516 0.86849 0.0
H415 H 0.20481 0.65183 0.88182 0.0
H416 H 0.27636 0.71175 0.87473 0.0
H417 H 0.28622 0.7257 0.93076 0.0
H418 H 0.31454 0.76492 0.93313 0.0
H419 H 0.3501 0.79465 0.91958 0.0
C420 C 0.56531 0.05123 0.03133 0.0
C421 C 0.58431 0.05919 0.04622 0.0
C422 C 0.55782 0.03211 0.01705 0.0
C423 C 0.56915 0.02044 0.01747 0.0
C424 C 0.58811 0.02842 0.03238 0.0
C425 C 0.59557 0.04751 0.0467 0.0
C426 C 0.56236 0.00056 0.00175 0.0
C427 C 0.54182 0.9876 0.99326 0.0
C428 C 0.53531 0.96783 0.97745 0.0
C429 C 0.51351 0.95084 0.97799 0.0
C430 C 0.50679 0.93201 0.96336 0.0
C431 C 0.52171 0.9299 0.9476 0.0
H432 H 0.56695 0.97891 0.95971 0.0
C433 C 0.54345 0.94709 0.94665 0.0
C434 C 0.55018 0.96587 0.96136 0.0
H435 H 0.55531 0.94607 0.93454 0.0
H436 H 0.55636 0.05995 0.03039 0.0
H437 H 0.54351 0.02692 0.00524 0.0
H438 H 0.59725 0.01988 0.03293 0.0
H439 H 0.61031 0.05323 0.05789 0.0
H440 H 0.57467 0.99603 0.99797 0.0
H441 H 0.52898 0.99085 0.99905 0.0
H442 H 0.50166 0.95202 0.98999 0.0
H443 H 0.48989 0.91912 0.96442 0.0
C444 C 0.5731 0.51504 0.13619 0.0
C445 C 0.59274 0.52735 0.12272 0.0
C446 C 0.5638 0.52538 0.14976 0.0
C447 C 0.57389 0.54832 0.15 0.0
C448 C 0.59346 0.56056 0.13644 0.0
C449 C 0.60275 0.55022 0.12288 0.0
C450 C 0.56518 0.56013 0.16505 0.0
C451 C 0.54421 0.55113 0.1726 0.0
C452 C 0.53584 0.56313 0.18785 0.0
C453 C 0.51356 0.55654 0.18652 0.0
C454 C 0.50508 0.5674 0.20061 0.0
C455 C 0.51871 0.58498 0.21656 0.0
H456 H 0.5665 0.58559 0.20646 0.0
C457 C 0.54093 0.59131 0.21829 0.0
C458 C 0.54941 0.58049 0.20417 0.0
H459 H 0.55183 0.60465 0.2306 0.0
H460 H 0.56506 0.49738 0.13662 0.0
H461 H 0.54906 0.51531 0.16053 0.0
H462 H 0.60168 0.57824 0.13642 0.0
H463 H 0.61793 0.5602 0.11277 0.0
H464 H 0.57645 0.5772 0.1692 0.0
H465 H 0.53239 0.53474 0.16646 0.0
H466 H 0.50269 0.54307 0.17434 0.0
H467 H 0.48786 0.56203 0.19893 0.0
C468 C 0.04629 0.58466 0.28689 0.0
C469 C 0.05999 0.57562 0.28521 0.0
C470 C 0.02689 0.57418 0.3009 0.0
C471 C 0.02082 0.55445 0.31371 0.0
C472 C 0.03424 0.54515 0.31146 0.0
C473 C 0.05366 0.55565 0.29748 0.0
C474 C 0.00046 0.54292 0.32908 0.0
C475 C 0.99094 0.55324 0.34022 0.0
C476 C 0.97074 0.54205 0.35594 0.0
C477 C 0.96615 0.55459 0.37291 0.0
C478 C 0.94709 0.54495 0.38756 0.0
C479 C 0.93206 0.52252 0.38545 0.0
H480 H 0.95819 0.50938 0.34042 0.0
C481 C 0.93659 0.50992 0.36846 0.0
C482 C 0.95567 0.51956 0.35378 0.0
H483 H 0.92525 0.49262 0.36621 0.0
H484 H 0.05057 0.59991 0.27744 0.0
H485 H 0.01664 0.5815 0.30135 0.0
H486 H 0.02985 0.52985 0.32087 0.0
H487 H 0.06379 0.54818 0.29645 0.0
H488 H 0.99391 0.5256 0.3324 0.0
H489 H 0.99874 0.57088 0.33879 0.0
H490 H 0.97735 0.57196 0.37486 0.0
H491 H 0.94407 0.55515 0.40041 0.0
C492 C 0.48942 0.05377 0.46914 0.0
C493 C 0.47799 0.06135 0.45432 0.0
C494 C 0.47816 0.03493 0.48403 0.0
C495 C 0.45517 0.02318 0.4843 0.0
C496 C 0.44381 0.03077 0.46943 0.0
C497 C 0.45506 0.04957 0.45452 0.0
C498 C 0.44246 0.0036 0.50064 0.0
C499 C 0.4503 0.99093 0.50941 0.0
C500 C 0.43729 0.97138 0.52566 0.0
C501 C 0.44211 0.95439 0.52529 0.0
C502 C 0.43008 0.93566 0.54012 0.0
C503 C 0.4131 0.93364 0.55592 0.0
H504 H 0.41687 0.98261 0.54343 0.0
C505 C 0.40862 0.95088 0.55681 0.0
C506 C 0.42059 0.96956 0.5419 0.0
H507 H 0.39579 0.94993 0.56895 0.0
H508 H 0.5071 0.06256 0.46956 0.0
H509 H 0.48758 0.03004 0.49574 0.0
H510 H 0.42612 0.02216 0.4694 0.0
H511 H 0.44574 0.055 0.4434 0.0
H512 H 0.42562 0.999 0.50465 0.0
H513 H 0.46635 0.99419 0.50347 0.0
H514 H 0.45505 0.95547 0.5132 0.0
H515 H 0.43404 0.92273 0.53911 0.0
C516 C 0.46423 0.41904 0.71692 0.0
C517 C 0.48708 0.42957 0.71902 0.0
C518 C 0.45427 0.42838 0.70269 0.0
C519 C 0.46699 0.44845 0.69009 0.0
C520 C 0.48978 0.45925 0.6928 0.0
C521 C 0.49975 0.44988 0.70699 0.0
C522 C 0.45705 0.45876 0.6744 0.0
C523 C 0.43753 0.44724 0.66274 0.0
C524 C 0.42752 0.4572 0.64656 0.0
C525 C 0.41127 0.44388 0.62901 0.0
C526 C 0.401 0.45235 0.61384 0.0
C527 C 0.40666 0.47436 0.616 0.0
H528 H 0.44509 0.48995 0.66257 0.0
C529 C 0.42287 0.48772 0.6336 0.0
C530 C 0.43315 0.47925 0.64879 0.0
H531 H 0.42747 0.50471 0.63589 0.0
H532 H 0.45399 0.40348 0.72617 0.0
H533 H 0.43663 0.4199 0.70187 0.0
H534 H 0.49996 0.47484 0.68356 0.0
H535 H 0.51739 0.45849 0.70835 0.0
H536 H 0.4668 0.47623 0.67125 0.0
H537 H 0.42883 0.42954 0.66401 0.0
H538 H 0.40647 0.42681 0.627 0.0
H539 H 0.38852 0.44157 0.60054 0.0
C540 C 0.93801 0.42513 0.79868 0.0
C541 C 0.93368 0.40817 0.78151 0.0
C542 C 0.95728 0.43492 0.81301 0.0
C543 C 0.97274 0.42805 0.81032 0.0
C544 C 0.96836 0.41111 0.79314 0.0
C545 C 0.94912 0.40133 0.77883 0.0
C546 C 0.99312 0.43738 0.82575 0.0
C547 C 0.00234 0.45712 0.8371 0.0
C548 C 0.02288 0.46624 0.85216 0.0
C549 C 0.03602 0.48899 0.8544 0.0
C550 C 0.05565 0.49817 0.86801 0.0
C551 C 0.06245 0.48475 0.87993 0.0
H552 H 0.01938 0.43521 0.86421 0.0
C553 C 0.049 0.46198 0.87831 0.0
C554 C 0.02941 0.45281 0.86466 0.0
H555 H 0.05365 0.45118 0.88749 0.0
H556 H 0.92636 0.43066 0.80135 0.0
H557 H 0.95964 0.44746 0.82654 0.0
H558 H 0.97988 0.40536 0.79078 0.0
H559 H 0.94627 0.38826 0.76584 0.0
H560 H 0.00132 0.42789 0.82677 0.0
H561 H 0.99539 0.4676 0.83419 0.0
H562 H 0.03127 0.49972 0.84524 0.0
H563 H 0.06556 0.51578 0.869 0.0
loop_
_geom_bond_atom_site_label_1
_geom_bond_atom_site_label_2
_geom_bond_distance
_geom_bond_site_symmetry_2
_ccdc_geom_bond_type
O0 Cd1 2.300 . S
O0 C7 1.275 . S
Cd1 O0 2.300 . S
Cd1 O9 2.381 . S
Cd1 O10 2.378 . S
O2 Cd3 2.385 . S
O2 C7 1.255 . S
Cd3 O2 2.385 . S
Cd3 O4 2.317 . S
O4 Cd3 2.317 . S
O4 C5 1.232 . S
C5 O4 1.232 . S
C5 O6 1.218 . S
O6 C5 1.218 . S
C7 O0 1.275 . S
C7 O2 1.255 . S
C8 O9 1.258 . S
C8 O10 1.256 . S
O9 Cd1 2.381 . S
O9 C8 1.258 . S
O10 Cd1 2.378 . S
O10 C8 1.256 . S
O11 Cd12 2.300 . S
O11 C18 1.275 . S
Cd12 O11 2.300 . S
Cd12 O20 2.381 . S
Cd12 O21 2.378 . S
O13 Cd14 2.385 . S
O13 C18 1.255 . S
Cd14 O13 2.385 . S
Cd14 O15 2.317 . S
O15 Cd14 2.317 . S
O15 C16 1.232 . S
C16 O15 1.232 . S
C16 O17 1.218 . S
O17 C16 1.218 . S
C18 O11 1.275 . S
C18 O13 1.255 . S
C19 O20 1.258 . S
C19 O21 1.256 . S
O20 Cd12 2.381 . S
O20 C19 1.258 . S
O21 Cd12 2.378 . S
O21 C19 1.256 . S
O22 Cd23 2.300 . S
O22 C29 1.275 . S
Cd23 O22 2.300 . S
Cd23 O31 2.381 . S
Cd23 O32 2.378 . S
O24 Cd25 2.385 . S
O24 C29 1.255 . S
Cd25 O24 2.385 . S
Cd25 O26 2.317 . S
O26 Cd25 2.317 . S
O26 C27 1.232 . S
C27 O26 1.232 . S
C27 O28 1.218 . S
O28 C27 1.218 . S
C29 O22 1.275 . S
C29 O24 1.255 . S
C30 O31 1.258 . S
C30 O32 1.256 . S
O31 Cd23 2.381 . S
O31 C30 1.258 . S
O32 Cd23 2.378 . S
O32 C30 1.256 . S
O33 Cd34 2.300 . S
O33 C40 1.275 . S
Cd34 O33 2.300 . S
Cd34 O42 2.381 . S
Cd34 O43 2.378 . S
O35 Cd36 2.385 . S
O35 C40 1.255 . S
Cd36 O35 2.385 . S
Cd36 O37 2.317 . S
O37 Cd36 2.317 . S
O37 C38 1.232 . S
C38 O37 1.232 . S
C38 O39 1.218 . S
O39 C38 1.218 . S
C40 O33 1.275 . S
C40 O35 1.255 . S
C41 O42 1.258 . S
C41 O43 1.256 . S
O42 Cd34 2.381 . S
O42 C41 1.258 . S
O43 Cd34 2.378 . S
O43 C41 1.256 . S
O44 Cd45 2.300 . S
O44 C51 1.275 . S
Cd45 O44 2.300 . S
Cd45 O53 2.381 . S
Cd45 O54 2.378 . S
O46 Cd47 2.385 . S
O46 C51 1.255 . S
Cd47 O46 2.385 . S
Cd47 O48 2.317 . S
O48 Cd47 2.317 . S
O48 C49 1.232 . S
C49 O48 1.232 . S
C49 O50 1.218 . S
O50 C49 1.218 . S
C51 O44 1.275 . S
C51 O46 1.255 . S
C52 O53 1.258 . S
C52 O54 1.256 . S
O53 Cd45 2.381 . S
O53 C52 1.258 . S
O54 Cd45 2.378 . S
O54 C52 1.256 . S
O55 Cd56 2.300 . S
O55 C62 1.275 . S
Cd56 O55 2.300 . S
Cd56 O64 2.381 . S
Cd56 O65 2.378 . S
O57 Cd58 2.385 . S
O57 C62 1.255 . S
Cd58 O57 2.385 . S
Cd58 O59 2.317 . S
O59 Cd58 2.317 . S
O59 C60 1.232 . S
C60 O59 1.232 . S
C60 O61 1.218 . S
O61 C60 1.218 . S
C62 O55 1.275 . S
C62 O57 1.255 . S
C63 O64 1.258 . S
C63 O65 1.256 . S
O64 Cd56 2.381 . S
O64 C63 1.258 . S
O65 Cd56 2.378 . S
O65 C63 1.256 . S
O66 Cd67 2.300 . S
O66 C73 1.275 . S
Cd67 O66 2.300 . S
Cd67 O75 2.381 . S
Cd67 O76 2.378 . S
O68 Cd69 2.385 . S
O68 C73 1.255 . S
Cd69 O68 2.385 . S
Cd69 O70 2.317 . S
O70 Cd69 2.317 . S
O70 C71 1.232 . S
C71 O70 1.232 . S
C71 O72 1.218 . S
O72 C71 1.218 . S
C73 O66 1.275 . S
C73 O68 1.255 . S
C74 O75 1.258 . S
C74 O76 1.256 . S
O75 Cd67 2.381 . S
O75 C74 1.258 . S
O76 Cd67 2.378 . S
O76 C74 1.256 . S
O77 Cd78 2.300 . S
O77 C84 1.275 . S
Cd78 O77 2.300 . S
Cd78 O86 2.381 . S
Cd78 O87 2.378 . S
O79 Cd80 2.385 . S
O79 C84 1.255 . S
Cd80 O79 2.385 . S
Cd80 O81 2.317 . S
O81 Cd80 2.317 . S
O81 C82 1.232 . S
C82 O81 1.232 . S
C82 O83 1.218 . S
O83 C82 1.218 . S
C84 O77 1.275 . S
C84 O79 1.255 . S
C85 O86 1.258 . S
C85 O87 1.256 . S
O86 Cd78 2.381 . S
O86 C85 1.258 . S
O87 Cd78 2.378 . S
O87 C85 1.256 . S
O88 Cd89 2.300 . S
O88 C95 1.275 . S
Cd89 O88 2.300 . S
Cd89 O97 2.381 . S
Cd89 O98 2.378 . S
O90 Cd91 2.385 . S
O90 C95 1.255 . S
Cd91 O90 2.385 . S
Cd91 O92 2.317 . S
O92 Cd91 2.317 . S
O92 C93 1.232 . S
C93 O92 1.232 . S
C93 O94 1.218 . S
O94 C93 1.218 . S
C95 O88 1.275 . S
C95 O90 1.255 . S
C96 O97 1.258 . S
C96 O98 1.256 . S
O97 Cd89 2.381 . S
O97 C96 1.258 . S
O98 Cd89 2.378 . S
O98 C96 1.256 . S
O99 Cd100 2.300 . S
O99 C106 1.275 . S
Cd100 O99 2.300 . S
Cd100 O108 2.381 . S
Cd100 O109 2.378 . S
O101 Cd102 2.385 . S
O101 C106 1.255 . S
Cd102 O101 2.385 . S
Cd102 O103 2.317 . S
O103 Cd102 2.317 . S
O103 C104 1.232 . S
C104 O103 1.232 . S
C104 O105 1.218 . S
O105 C104 1.218 . S
C106 O99 1.275 . S
C106 O101 1.255 . S
C107 O108 1.258 . S
C107 O109 1.256 . S
O108 Cd100 2.381 . S
O108 C107 1.258 . S
O109 Cd100 2.378 . S
O109 C107 1.256 . S
O110 Cd111 2.300 . S
O110 C117 1.275 . S
Cd111 O110 2.300 . S
Cd111 O119 2.381 . S
Cd111 O120 2.378 . S
O112 Cd113 2.385 . S
O112 C117 1.255 . S
Cd113 O112 2.385 . S
Cd113 O114 2.317 . S
O114 Cd113 2.317 . S
O114 C115 1.232 . S
C115 O114 1.232 . S
C115 O116 1.218 . S
O116 C115 1.218 . S
C117 O110 1.275 . S
C117 O112 1.255 . S
C118 O119 1.258 . S
C118 O120 1.256 . S
O119 Cd111 2.381 . S
O119 C118 1.258 . S
O120 Cd111 2.378 . S
O120 C118 1.256 . S
O121 Cd122 2.300 . S
O121 C128 1.275 . S
Cd122 O121 2.300 . S
Cd122 O130 2.381 . S
Cd122 O131 2.378 . S
O123 Cd124 2.385 . S
O123 C128 1.255 . S
Cd124 O123 2.385 . S
Cd124 O125 2.317 . S
O125 Cd124 2.317 . S
O125 C126 1.232 . S
C126 O125 1.232 . S
C126 O127 1.218 . S
O127 C126 1.218 . S
C128 O121 1.275 . S
C128 O123 1.255 . S
C129 O130 1.258 . S
C129 O131 1.256 . S
O130 Cd122 2.381 . S
O130 C129 1.258 . S
O131 Cd122 2.378 . S
O131 C129 1.256 . S
C132 C133 1.386 . S
C132 C134 1.383 . S
C132 H148 0.951 . S
C133 C132 1.386 . S
C133 C137 1.383 . S
C134 C132 1.383 . S
C134 C135 1.402 . S
C134 H149 0.951 . S
C135 C134 1.402 . S
C135 C136 1.375 . S
C135 C138 1.481 . S
C136 C135 1.375 . S
C136 C137 1.367 . S
C136 H150 0.951 . S
C137 C133 1.383 . S
C137 C136 1.367 . S
C137 H151 0.950 . S
C138 C135 1.481 . S
C138 C139 1.297 . S
C138 H152 0.950 . S
C139 C138 1.297 . S
C139 C140 1.479 . S
C139 H153 0.950 . S
C140 C139 1.479 . S
C140 C141 1.375 . S
C140 C146 1.404 . S
C141 C140 1.375 . S
C141 C142 1.369 . S
C141 H154 0.950 . S
C142 C141 1.369 . S
C142 C143 1.392 . S
C142 H155 0.951 . S
C143 C142 1.392 . S
C143 C145 1.384 . S
H144 C146 0.949 . S
C145 C143 1.384 . S
C145 C146 1.385 . S
C145 H147 0.950 . S
C146 C140 1.404 . S
C146 H144 0.949 . S
C146 C145 1.385 . S
H147 C145 0.950 . S
H148 C132 0.951 . S
H149 C134 0.951 . S
H150 C136 0.951 . S
H151 C137 0.950 . S
H152 C138 0.950 . S
H153 C139 0.950 . S
H154 C141 0.950 . S
H155 C142 0.951 . S
C156 C157 1.386 . S
C156 C158 1.383 . S
C156 H172 0.951 . S
C157 C156 1.386 . S
C157 C161 1.383 . S
C158 C156 1.383 . S
C158 C159 1.402 . S
C158 H173 0.951 . S
C159 C158 1.402 . S
C159 C160 1.375 . S
C159 C162 1.481 . S
C160 C159 1.375 . S
C160 C161 1.367 . S
C160 H174 0.951 . S
C161 C157 1.383 . S
C161 C160 1.367 . S
C161 H175 0.950 . S
C162 C159 1.481 . S
C162 C163 1.297 . S
C162 H176 0.950 . S
C163 C162 1.297 . S
C163 C164 1.479 . S
C163 H177 0.950 . S
C164 C163 1.479 . S
C164 C165 1.375 . S
C164 C170 1.404 . S
C165 C164 1.375 . S
C165 C166 1.369 . S
C165 H178 0.950 . S
C166 C165 1.369 . S
C166 C167 1.392 . S
C166 H179 0.951 . S
C167 C166 1.392 . S
C167 C169 1.384 . S
H168 C170 0.949 . S
C169 C167 1.384 . S
C169 C170 1.385 . S
C169 H171 0.950 . S
C170 C164 1.404 . S
C170 H168 0.949 . S
C170 C169 1.385 . S
H171 C169 0.950 . S
H172 C156 0.951 . S
H173 C158 0.951 . S
H174 C160 0.951 . S
H175 C161 0.950 . S
H176 C162 0.950 . S
H177 C163 0.950 . S
H178 C165 0.950 . S
H179 C166 0.951 . S
C180 C181 1.386 . S
C180 C182 1.383 . S
C180 H196 0.951 . S
C181 C180 1.386 . S
C181 C185 1.383 . S
C182 C180 1.383 . S
C182 C183 1.402 . S
C182 H197 0.951 . S
C183 C182 1.402 . S
C183 C184 1.375 . S
C183 C186 1.481 . S
C184 C183 1.375 . S
C184 C185 1.367 . S
C184 H198 0.951 . S
C185 C181 1.383 . S
C185 C184 1.367 . S
C185 H199 0.950 . S
C186 C183 1.481 . S
C186 C187 1.297 . S
C186 H200 0.950 . S
C187 C186 1.297 . S
C187 C188 1.479 . S
C187 H201 0.950 . S
C188 C187 1.479 . S
C188 C189 1.375 . S
C188 C194 1.404 . S
C189 C188 1.375 . S
C189 C190 1.369 . S
C189 H202 0.950 . S
C190 C189 1.369 . S
C190 C191 1.392 . S
C190 H203 0.951 . S
C191 C190 1.392 . S
C191 C193 1.384 . S
H192 C194 0.949 . S
C193 C191 1.384 . S
C193 C194 1.385 . S
C193 H195 0.950 . S
C194 C188 1.404 . S
C194 H192 0.949 . S
C194 C193 1.385 . S
H195 C193 0.950 . S
H196 C180 0.951 . S
H197 C182 0.951 . S
H198 C184 0.951 . S
H199 C185 0.950 . S
H200 C186 0.950 . S
H201 C187 0.950 . S
H202 C189 0.950 . S
H203 C190 0.951 . S
C204 C205 1.386 . S
C204 C206 1.383 . S
C204 H220 0.951 . S
C205 C204 1.386 . S
C205 C209 1.383 . S
C206 C204 1.383 . S
C206 C207 1.402 . S
C206 H221 0.951 . S
C207 C206 1.402 . S
C207 C208 1.375 . S
C207 C210 1.481 . S
C208 C207 1.375 . S
C208 C209 1.367 . S
C208 H222 0.951 . S
C209 C205 1.383 . S
C209 C208 1.367 . S
C209 H223 0.950 . S
C210 C207 1.481 . S
C210 C211 1.297 . S
C210 H224 0.950 . S
C211 C210 1.297 . S
C211 C212 1.479 . S
C211 H225 0.950 . S
C212 C211 1.479 . S
C212 C213 1.375 . S
C212 C218 1.404 . S
C213 C212 1.375 . S
C213 C214 1.369 . S
C213 H226 0.950 . S
C214 C213 1.369 . S
C214 C215 1.392 . S
C214 H227 0.951 . S
C215 C214 1.392 . S
C215 C217 1.384 . S
H216 C218 0.949 . S
C217 C215 1.384 . S
C217 C218 1.385 . S
C217 H219 0.950 . S
C218 C212 1.404 . S
C218 H216 0.949 . S
C218 C217 1.385 . S
H219 C217 0.950 . S
H220 C204 0.951 . S
H221 C206 0.951 . S
H222 C208 0.951 . S
H223 C209 0.950 . S
H224 C210 0.950 . S
H225 C211 0.950 . S
H226 C213 0.950 . S
H227 C214 0.951 . S
C228 C229 1.386 1_556 S
C228 C230 1.383 . S
C228 H244 0.951 . S
C229 C228 1.386 1_554 S
C229 C233 1.383 1_554 S
C230 C228 1.383 . S
C230 C231 1.402 . S
C230 H245 0.951 . S
C231 C230 1.402 . S
C231 C232 1.375 . S
C231 C234 1.481 . S
C232 C231 1.375 . S
C232 C233 1.367 . S
C232 H246 0.951 . S
C233 C229 1.383 1_556 S
C233 C232 1.367 . S
C233 H247 0.950 1_556 S
C234 C231 1.481 . S
C234 C235 1.297 . S
C234 H248 0.950 . S
C235 C234 1.297 . S
C235 C236 1.479 . S
C235 H249 0.950 . S
C236 C235 1.479 . S
C236 C237 1.375 . S
C236 C242 1.404 . S
C237 C236 1.375 . S
C237 C238 1.369 . S
C237 H250 0.950 . S
C238 C237 1.369 . S
C238 C239 1.392 . S
C238 H251 0.951 . S
C239 C238 1.392 . S
C239 C241 1.384 . S
H240 C242 0.949 . S
C241 C239 1.384 . S
C241 C242 1.385 . S
C241 H243 0.950 . S
C242 C236 1.404 . S
C242 H240 0.949 . S
C242 C241 1.385 . S
H243 C241 0.950 . S
H244 C228 0.951 . S
H245 C230 0.951 . S
H246 C232 0.951 . S
H247 C233 0.950 1_554 S
H248 C234 0.950 . S
H249 C235 0.950 . S
H250 C237 0.950 . S
H251 C238 0.951 . S
C252 C253 1.386 1_554 S
C252 C254 1.383 . S
C252 H268 0.951 . S
C253 C252 1.386 1_556 S
C253 C257 1.383 1_556 S
C254 C252 1.383 . S
C254 C255 1.402 . S
C254 H269 0.951 . S
C255 C254 1.402 . S
C255 C256 1.375 . S
C255 C258 1.481 . S
C256 C255 1.375 . S
C256 C257 1.367 . S
C256 H270 0.951 . S
C257 C253 1.383 1_554 S
C257 C256 1.367 . S
C257 H271 0.950 1_554 S
C258 C255 1.481 . S
C258 C259 1.297 . S
C258 H272 0.950 . S
C259 C258 1.297 . S
C259 C260 1.479 . S
C259 H273 0.950 . S
C260 C259 1.479 . S
C260 C261 1.375 . S
C260 C266 1.404 . S
C261 C260 1.375 . S
C261 C262 1.369 . S
C261 H274 0.950 . S
C262 C261 1.369 . S
C262 C263 1.392 . S
C262 H275 0.951 . S
C263 C262 1.392 . S
C263 C265 1.384 . S
H264 C266 0.949 . S
C265 C263 1.384 . S
C265 C266 1.385 . S
C265 H267 0.950 . S
C266 C260 1.404 . S
C266 H264 0.949 . S
C266 C265 1.385 . S
H267 C265 0.950 . S
H268 C252 0.951 . S
H269 C254 0.951 . S
H270 C256 0.951 . S
H271 C257 0.950 1_556 S
H272 C258 0.950 . S
H273 C259 0.950 . S
H274 C261 0.950 . S
H275 C262 0.951 . S
C276 C277 1.386 . S
C276 C278 1.383 . S
C276 H292 0.951 . S
C277 C276 1.386 . S
C277 C281 1.383 . S
C278 C276 1.383 . S
C278 C279 1.402 . S
C278 H293 0.951 . S
C279 C278 1.402 . S
C279 C280 1.375 . S
C279 C282 1.481 . S
C280 C279 1.375 . S
C280 C281 1.367 . S
C280 H294 0.951 . S
C281 C277 1.383 . S
C281 C280 1.367 . S
C281 H295 0.950 . S
C282 C279 1.481 . S
C282 C283 1.297 . S
C282 H296 0.950 . S
C283 C282 1.297 . S
C283 C284 1.479 . S
C283 H297 0.950 . S
C284 C283 1.479 . S
C284 C285 1.375 . S
C284 C290 1.404 . S
C285 C284 1.375 . S
C285 C286 1.369 . S
C285 H298 0.950 . S
C286 C285 1.369 . S
C286 C287 1.392 . S
C286 H299 0.951 . S
C287 C286 1.392 . S
C287 C289 1.384 . S
H288 C290 0.949 . S
C289 C287 1.384 . S
C289 C290 1.385 . S
C289 H291 0.950 . S
C290 C284 1.404 . S
C290 H288 0.949 . S
C290 C289 1.385 . S
H291 C289 0.950 . S
H292 C276 0.951 . S
H293 C278 0.951 . S
H294 C280 0.951 . S
H295 C281 0.950 . S
H296 C282 0.950 . S
H297 C283 0.950 . S
H298 C285 0.950 . S
H299 C286 0.951 . S
C300 C301 1.386 . S
C300 C302 1.383 . S
C300 H316 0.951 . S
C301 C300 1.386 . S
C301 C305 1.383 . S
C302 C300 1.383 . S
C302 C303 1.402 . S
C302 H317 0.951 . S
C303 C302 1.402 . S
C303 C304 1.375 . S
C303 C306 1.481 . S
C304 C303 1.375 . S
C304 C305 1.367 . S
C304 H318 0.951 . S
C305 C301 1.383 . S
C305 C304 1.367 . S
C305 H319 0.950 . S
C306 C303 1.481 . S
C306 C307 1.297 . S
C306 H320 0.950 . S
C307 C306 1.297 . S
C307 C308 1.479 . S
C307 H321 0.950 . S
C308 C307 1.479 . S
C308 C309 1.375 . S
C308 C314 1.404 . S
C309 C308 1.375 . S
C309 C310 1.369 . S
C309 H322 0.950 . S
C310 C309 1.369 . S
C310 C311 1.392 . S
C310 H323 0.951 . S
C311 C310 1.392 . S
C311 C313 1.384 . S
H312 C314 0.949 . S
C313 C311 1.384 . S
C313 C314 1.385 . S
C313 H315 0.950 . S
C314 C308 1.404 . S
C314 H312 0.949 . S
C314 C313 1.385 . S
H315 C313 0.950 . S
H316 C300 0.951 . S
H317 C302 0.951 . S
H318 C304 0.951 . S
H319 C305 0.950 . S
H320 C306 0.950 . S
H321 C307 0.950 . S
H322 C309 0.950 . S
H323 C310 0.951 . S
C324 C325 1.386 . S
C324 C326 1.383 . S
C324 H340 0.951 . S
C325 C324 1.386 . S
C325 C329 1.383 . S
C326 C324 1.383 . S
C326 C327 1.402 . S
C326 H341 0.951 . S
C327 C326 1.402 . S
C327 C328 1.375 . S
C327 C330 1.481 . S
C328 C327 1.375 . S
C328 C329 1.367 . S
C328 H342 0.951 . S
C329 C325 1.383 . S
C329 C328 1.367 . S
C329 H343 0.950 . S
C330 C327 1.481 . S
C330 C331 1.297 . S
C330 H344 0.950 . S
C331 C330 1.297 . S
C331 C332 1.479 . S
C331 H345 0.950 . S
C332 C331 1.479 . S
C332 C333 1.375 . S
C332 C338 1.404 . S
C333 C332 1.375 . S
C333 C334 1.369 . S
C333 H346 0.950 . S
C334 C333 1.369 . S
C334 C335 1.392 . S
C334 H347 0.951 . S
C335 C334 1.392 . S
C335 C337 1.384 . S
H336 C338 0.949 . S
C337 C335 1.384 . S
C337 C338 1.385 . S
C337 H339 0.950 . S
C338 C332 1.404 . S
C338 H336 0.949 . S
C338 C337 1.385 . S
H339 C337 0.950 . S
H340 C324 0.951 . S
H341 C326 0.951 . S
H342 C328 0.951 . S
H343 C329 0.950 . S
H344 C330 0.950 . S
H345 C331 0.950 . S
H346 C333 0.950 . S
H347 C334 0.951 . S
C348 C349 1.386 . S
C348 C350 1.383 . S
C348 H364 0.951 . S
C349 C348 1.386 . S
C349 C353 1.383 . S
C350 C348 1.383 . S
C350 C351 1.402 . S
C350 H365 0.951 . S
C351 C350 1.402 . S
C351 C352 1.375 . S
C351 C354 1.481 . S
C352 C351 1.375 . S
C352 C353 1.367 . S
C352 H366 0.951 . S
C353 C349 1.383 . S
C353 C352 1.367 . S
C353 H367 0.950 . S
C354 C351 1.481 . S
C354 C355 1.297 . S
C354 H368 0.950 . S
C355 C354 1.297 . S
C355 C356 1.479 . S
C355 H369 0.950 . S
C356 C355 1.479 . S
C356 C357 1.375 . S
C356 C362 1.404 . S
C357 C356 1.375 . S
C357 C358 1.369 . S
C357 H370 0.950 . S
C358 C357 1.369 . S
C358 C359 1.392 . S
C358 H371 0.951 . S
C359 C358 1.392 . S
C359 C361 1.384 . S
H360 C362 0.949 . S
C361 C359 1.384 . S
C361 C362 1.385 . S
C361 H363 0.950 . S
C362 C356 1.404 . S
C362 H360 0.949 . S
C362 C361 1.385 . S
H363 C361 0.950 . S
H364 C348 0.951 . S
H365 C350 0.951 . S
H366 C352 0.951 . S
H367 C353 0.950 . S
H368 C354 0.950 . S
H369 C355 0.950 . S
H370 C357 0.950 . S
H371 C358 0.951 . S
C372 C373 1.386 . S
C372 C374 1.383 . S
C372 H388 0.951 . S
C373 C372 1.386 . S
C373 C377 1.383 . S
C374 C372 1.383 . S
C374 C375 1.402 . S
C374 H389 0.951 . S
C375 C374 1.402 . S
C375 C376 1.375 . S
C375 C378 1.481 . S
C376 C375 1.375 . S
C376 C377 1.367 . S
C376 H390 0.951 . S
C377 C373 1.383 . S
C377 C376 1.367 . S
C377 H391 0.950 . S
C378 C375 1.481 . S
C378 C379 1.297 . S
C378 H392 0.950 . S
C379 C378 1.297 . S
C379 C380 1.479 . S
C379 H393 0.950 . S
C380 C379 1.479 . S
C380 C381 1.375 . S
C380 C386 1.404 . S
C381 C380 1.375 . S
C381 C382 1.369 . S
C381 H394 0.950 . S
C382 C381 1.369 . S
C382 C383 1.392 . S
C382 H395 0.951 . S
C383 C382 1.392 . S
C383 C385 1.384 . S
H384 C386 0.949 . S
C385 C383 1.384 . S
C385 C386 1.385 . S
C385 H387 0.950 . S
C386 C380 1.404 . S
C386 H384 0.949 . S
C386 C385 1.385 . S
H387 C385 0.950 . S
H388 C372 0.951 . S
H389 C374 0.951 . S
H390 C376 0.951 . S
H391 C377 0.950 . S
H392 C378 0.950 . S
H393 C379 0.950 . S
H394 C381 0.950 . S
H395 C382 0.951 . S
C396 C397 1.386 . S
C396 C398 1.383 . S
C396 H412 0.951 . S
C397 C396 1.386 . S
C397 C401 1.383 . S
C398 C396 1.383 . S
C398 C399 1.402 . S
C398 H413 0.951 . S
C399 C398 1.402 . S
C399 C400 1.375 . S
C399 C402 1.481 . S
C400 C399 1.375 . S
C400 C401 1.367 . S
C400 H414 0.951 . S
C401 C397 1.383 . S
C401 C400 1.367 . S
C401 H415 0.950 . S
C402 C399 1.481 . S
C402 C403 1.297 . S
C402 H416 0.950 . S
C403 C402 1.297 . S
C403 C404 1.479 . S
C403 H417 0.950 . S
C404 C403 1.479 . S
C404 C405 1.375 . S
C404 C410 1.404 . S
C405 C404 1.375 . S
C405 C406 1.369 . S
C405 H418 0.950 . S
C406 C405 1.369 . S
C406 C407 1.392 . S
C406 H419 0.951 . S
C407 C406 1.392 . S
C407 C409 1.384 . S
H408 C410 0.949 . S
C409 C407 1.384 . S
C409 C410 1.385 . S
C409 H411 0.950 . S
C410 C404 1.404 . S
C410 H408 0.949 . S
C410 C409 1.385 . S
H411 C409 0.950 . S
H412 C396 0.951 . S
H413 C398 0.951 . S
H414 C400 0.951 . S
H415 C401 0.950 . S
H416 C402 0.950 . S
H417 C403 0.950 . S
H418 C405 0.950 . S
H419 C406 0.951 . S
C420 C421 1.386 . S
C420 C422 1.383 . S
C420 H436 0.951 . S
C421 C420 1.386 . S
C421 C425 1.383 . S
C422 C420 1.383 . S
C422 C423 1.402 . S
C422 H437 0.951 . S
C423 C422 1.402 . S
C423 C424 1.375 1_554 S
C423 C426 1.481 1_554 S
C424 C423 1.375 1_556 S
C424 C425 1.367 1_556 S
C424 H438 0.951 . S
C425 C421 1.383 . S
C425 C424 1.367 1_554 S
C425 H439 0.950 . S
C426 C423 1.481 1_556 S
C426 C427 1.288 1_546 S
C426 H440 0.950 . S
C427 C426 1.288 1_564 S
C427 C428 1.465 1_554 S
C427 H441 0.978 . S
C428 C427 1.465 1_556 S
C428 C429 1.386 . S
C428 C434 1.404 . S
C429 C428 1.386 . S
C429 C430 1.378 . S
C429 H442 0.930 1_556 S
C430 C429 1.378 . S
C430 C431 1.392 . S
C430 H443 0.951 . S
C431 C430 1.392 . S
C431 C433 1.384 . S
H432 C434 0.949 . S
C433 C431 1.384 . S
C433 C434 1.385 . S
C433 H435 0.950 . S
C434 C428 1.404 . S
C434 H432 0.949 . S
C434 C433 1.385 . S
H435 C433 0.950 . S
H436 C420 0.951 . S
H437 C422 0.951 . S
H438 C424 0.951 . S
H439 C425 0.950 . S
H440 C426 0.950 . S
H441 C427 0.978 . S
H442 C429 0.930 1_554 S
H443 C430 0.951 . S
C444 C445 1.386 . S
C444 C446 1.383 . S
C444 H460 0.951 . S
C445 C444 1.386 . S
C445 C449 1.383 . S
C446 C444 1.383 . S
C446 C447 1.402 . S
C446 H461 0.951 . S
C447 C446 1.402 . S
C447 C448 1.375 . S
C447 C450 1.481 . S
C448 C447 1.375 . S
C448 C449 1.367 . S
C448 H462 0.951 . S
C449 C445 1.383 . S
C449 C448 1.367 . S
C449 H463 0.950 . S
C450 C447 1.481 . S
C450 C451 1.297 . S
C450 H464 0.950 . S
C451 C450 1.297 . S
C451 C452 1.479 . S
C451 H465 0.950 . S
C452 C451 1.479 . S
C452 C453 1.375 . S
C452 C458 1.404 . S
C453 C452 1.375 . S
C453 C454 1.369 . S
C453 H466 0.950 . S
C454 C453 1.369 . S
C454 C455 1.392 . S
C454 H467 0.951 . S
C455 C454 1.392 . S
C455 C457 1.384 . S
H456 C458 0.949 . S
C457 C455 1.384 . S
C457 C458 1.385 . S
C457 H459 0.950 . S
C458 C452 1.404 . S
C458 H456 0.949 . S
C458 C457 1.385 . S
H459 C457 0.950 . S
H460 C444 0.951 . S
H461 C446 0.951 . S
H462 C448 0.951 . S
H463 C449 0.950 . S
H464 C450 0.950 . S
H465 C451 0.950 . S
H466 C453 0.950 . S
H467 C454 0.951 . S
C468 C469 1.386 . S
C468 C470 1.383 . S
C468 H484 0.951 . S
C469 C468 1.386 . S
C469 C473 1.383 . S
C470 C468 1.383 . S
C470 C471 1.402 . S
C470 H485 0.951 . S
C471 C470 1.402 . S
C471 C472 1.375 . S
C471 C474 1.481 . S
C472 C471 1.375 . S
C472 C473 1.367 . S
C472 H486 0.951 . S
C473 C469 1.383 . S
C473 C472 1.367 . S
C473 H487 0.950 . S
C474 C471 1.481 . S
C474 C475 1.297 1_455 S
C474 H488 0.950 . S
C475 C474 1.297 1_655 S
C475 C476 1.479 . S
C475 H489 0.950 . S
C476 C475 1.479 . S
C476 C477 1.375 . S
C476 C482 1.404 . S
C477 C476 1.375 . S
C477 C478 1.369 . S
C477 H490 0.950 . S
C478 C477 1.369 . S
C478 C479 1.392 . S
C478 H491 0.951 . S
C479 C478 1.392 . S
C479 C481 1.384 . S
H480 C482 0.949 . S
C481 C479 1.384 . S
C481 C482 1.385 . S
C481 H483 0.950 . S
C482 C476 1.404 . S
C482 H480 0.949 . S
C482 C481 1.385 . S
H483 C481 0.950 . S
H484 C468 0.951 . S
H485 C470 0.951 . S
H486 C472 0.951 . S
H487 C473 0.950 . S
H488 C474 0.950 . S
H489 C475 0.950 . S
H490 C477 0.950 . S
H491 C478 0.951 . S
C492 C493 1.386 . S
C492 C494 1.383 . S
C492 H508 0.951 . S
C493 C492 1.386 . S
C493 C497 1.383 . S
C494 C492 1.383 . S
C494 C495 1.402 . S
C494 H509 0.951 . S
C495 C494 1.402 . S
C495 C496 1.375 . S
C495 C498 1.481 . S
C496 C495 1.375 . S
C496 C497 1.367 . S
C496 H510 0.951 . S
C497 C493 1.383 . S
C497 C496 1.367 . S
C497 H511 0.950 . S
C498 C495 1.481 . S
C498 C499 1.297 1_545 S
C498 H512 0.950 . S
C499 C498 1.297 1_565 S
C499 C500 1.479 . S
C499 H513 0.950 . S
C500 C499 1.479 . S
C500 C501 1.375 . S
C500 C506 1.404 . S
C501 C500 1.375 . S
C501 C502 1.369 . S
C501 H514 0.950 . S
C502 C501 1.369 . S
C502 C503 1.392 . S
C502 H515 0.951 . S
C503 C502 1.392 . S
C503 C505 1.384 . S
H504 C506 0.949 . S
C505 C503 1.384 . S
C505 C506 1.385 . S
C505 H507 0.950 . S
C506 C500 1.404 . S
C506 H504 0.949 . S
C506 C505 1.385 . S
H507 C505 0.950 . S
H508 C492 0.951 . S
H509 C494 0.951 . S
H510 C496 0.951 . S
H511 C497 0.950 . S
H512 C498 0.950 . S
H513 C499 0.950 . S
H514 C501 0.950 . S
H515 C502 0.951 . S
C516 C517 1.386 . S
C516 C518 1.383 . S
C516 H532 0.951 . S
C517 C516 1.386 . S
C517 C521 1.383 . S
C518 C516 1.383 . S
C518 C519 1.402 . S
C518 H533 0.951 . S
C519 C518 1.402 . S
C519 C520 1.375 . S
C519 C522 1.481 . S
C520 C519 1.375 . S
C520 C521 1.367 . S
C520 H534 0.951 . S
C521 C517 1.383 . S
C521 C520 1.367 . S
C521 H535 0.950 . S
C522 C519 1.481 . S
C522 C523 1.297 . S
C522 H536 0.950 . S
C523 C522 1.297 . S
C523 C524 1.479 . S
C523 H537 0.950 . S
C524 C523 1.479 . S
C524 C525 1.375 . S
C524 C530 1.404 . S
C525 C524 1.375 . S
C525 C526 1.369 . S
C525 H538 0.950 . S
C526 C525 1.369 . S
C526 C527 1.392 . S
C526 H539 0.951 . S
C527 C526 1.392 . S
C527 C529 1.384 . S
H528 C530 0.949 . S
C529 C527 1.384 . S
C529 C530 1.385 . S
C529 H531 0.950 . S
C530 C524 1.404 . S
C530 H528 0.949 . S
C530 C529 1.385 . S
H531 C529 0.950 . S
H532 C516 0.951 . S
H533 C518 0.951 . S
H534 C520 0.951 . S
H535 C521 0.950 . S
H536 C522 0.950 . S
H537 C523 0.950 . S
H538 C525 0.950 . S
H539 C526 0.951 . S
C540 C541 1.386 . S
C540 C542 1.383 . S
C540 H556 0.951 . S
C541 C540 1.386 . S
C541 C545 1.383 . S
C542 C540 1.383 . S
C542 C543 1.402 . S
C542 H557 0.951 . S
C543 C542 1.402 . S
C543 C544 1.375 . S
C543 C546 1.481 . S
C544 C543 1.375 . S
C544 C545 1.367 . S
C544 H558 0.951 . S
C545 C541 1.383 . S
C545 C544 1.367 . S
C545 H559 0.950 . S
C546 C543 1.481 . S
C546 C547 1.297 1_655 S
C546 H560 0.950 1_655 S
C547 C546 1.297 1_455 S
C547 C548 1.479 . S
C547 H561 0.950 1_455 S
C548 C547 1.479 . S
C548 C549 1.375 . S
C548 C554 1.404 . S
C549 C548 1.375 . S
C549 C550 1.369 . S
C549 H562 0.950 . S
C550 C549 1.369 . S
C550 C551 1.392 . S
C550 H563 0.951 . S
C551 C550 1.392 . S
C551 C553 1.384 . S
H552 C554 0.949 . S
C553 C551 1.384 . S
C553 C554 1.385 . S
C553 H555 0.950 . S
C554 C548 1.404 . S
C554 H552 0.949 . S
C554 C553 1.385 . S
H555 C553 0.950 . S
H556 C540 0.951 . S
H557 C542 0.951 . S
H558 C544 0.951 . S
H559 C545 0.950 . S
H560 C546 0.950 1_455 S
H561 C547 0.950 1_655 S
H562 C549 0.950 . S
H563 C550 0.951 . S
C133 C7 1.549 . S
C143 C117 1.551 . S
C157 C128 1.534 . S
C167 C18 1.572 . S
C181 C73 1.558 . S
C191 C29 1.535 . S
C205 C40 1.558 . S
C215 C84 1.535 . S
C229 C95 1.561 . S
C239 C51 1.474 . S
C253 C62 1.556 . S
C263 C106 1.476 . S
C277 C5 1.385 . S
C287 C93 1.399 . S
C301 C104 1.294 . S
C311 C16 1.289 . S
C325 C27 1.292 . S
C335 C115 1.284 . S
C349 C126 1.326 . S
C359 C38 1.286 . S
C373 C49 1.317 . S
C383 C71 1.333 . S
C397 C60 1.380 . S
C407 C82 1.420 . S
C421 C8 1.596 . S
C431 C85 1.560 . S
C445 C96 1.608 . S
C455 C19 1.551 . S
C469 C107 1.586 . S
C479 C30 1.577 . S
C493 C118 1.609 . S
C503 C41 1.551 . S
C517 C52 1.585 . S
C527 C129 1.613 . S
C541 C74 1.598 . S
C551 C63 1.597 . S
