# Generated by pormake.
# Topology vbe, (5)-cn, num edge types: 1
# Building blocks:
#     Node 0, Type 0, BuildingBlock: XOMCOT_clean_sbu_0, # of connection points: 5
#     Node 1, Type 0, BuildingBlock: XOMCOT_clean_sbu_0, # of connection points: 5
#     Node 2, Type 0, BuildingBlock: XOMCOT_clean_sbu_0, # of connection points: 5
#     Node 3, Type 0, BuildingBlock: XOMCOT_clean_sbu_0, # of connection points: 5
#     Node 4, Type 0, BuildingBlock: XOMCOT_clean_sbu_0, # of connection points: 5
#     Node 5, Type 0, BuildingBlock: XOMCOT_clean_sbu_0, # of connection points: 5
#     Node 6, Type 0, BuildingBlock: XOMCOT_clean_sbu_0, # of connection points: 5
#     Node 7, Type 0, BuildingBlock: XOMCOT_clean_sbu_0, # of connection points: 5
#     Node 8, Type 0, BuildingBlock: XOMCOT_clean_sbu_0, # of connection points: 5
#     Node 9, Type 0, BuildingBlock: XOMCOT_clean_sbu_0, # of connection points: 5
#     Node 10, Type 0, BuildingBlock: XOMCOT_clean_sbu_0, # of connection points: 5
#     Node 11, Type 0, BuildingBlock: XOMCOT_clean_sbu_0, # of connection points: 5
#     Node 12, Type 0, BuildingBlock: XOMCOT_clean_sbu_0, # of connection points: 5
#     Node 13, Type 0, BuildingBlock: XOMCOT_clean_sbu_0, # of connection points: 5
#     Node 14, Type 0, BuildingBlock: XOMCOT_clean_sbu_0, # of connection points: 5
#     Node 15, Type 0, BuildingBlock: XOMCOT_clean_sbu_0, # of connection points: 5
#     Edge 16, Type (0, 0), BuildingBlock: KIFKEQ_clean_linker_1, # of connection points: 2
#     Edge 17, Type (0, 0), BuildingBlock: KIFKEQ_clean_linker_1, # of connection points: 2
#     Edge 18, Type (0, 0), BuildingBlock: KIFKEQ_clean_linker_1, # of connection points: 2
#     Edge 19, Type (0, 0), BuildingBlock: KIFKEQ_clean_linker_1, # of connection points: 2
#     Edge 20, Type (0, 0), BuildingBlock: KIFKEQ_clean_linker_1, # of connection points: 2
#     Edge 21, Type (0, 0), BuildingBlock: KIFKEQ_clean_linker_1, # of connection points: 2
#     Edge 22, Type (0, 0), BuildingBlock: KIFKEQ_clean_linker_1, # of connection points: 2
#     Edge 23, Type (0, 0), BuildingBlock: KIFKEQ_clean_linker_1, # of connection points: 2
#     Edge 24, Type (0, 0), BuildingBlock: KIFKEQ_clean_linker_1, # of connection points: 2
#     Edge 25, Type (0, 0), BuildingBlock: KIFKEQ_clean_linker_1, # of connection points: 2
#     Edge 26, Type (0, 0), BuildingBlock: KIFKEQ_clean_linker_1, # of connection points: 2
#     Edge 27, Type (0, 0), BuildingBlock: KIFKEQ_clean_linker_1, # of connection points: 2
#     Edge 28, Type (0, 0), BuildingBlock: KIFKEQ_clean_linker_1, # of connection points: 2
#     Edge 29, Type (0, 0), BuildingBlock: KIFKEQ_clean_linker_1, # of connection points: 2
#     Edge 30, Type (0, 0), BuildingBlock: KIFKEQ_clean_linker_1, # of connection points: 2
#     Edge 31, Type (0, 0), BuildingBlock: KIFKEQ_clean_linker_1, # of connection points: 2
#     Edge 32, Type (0, 0), BuildingBlock: KIFKEQ_clean_linker_1, # of connection points: 2
#     Edge 33, Type (0, 0), BuildingBlock: KIFKEQ_clean_linker_1, # of connection points: 2
#     Edge 34, Type (0, 0), BuildingBlock: KIFKEQ_clean_linker_1, # of connection points: 2
#     Edge 35, Type (0, 0), BuildingBlock: KIFKEQ_clean_linker_1, # of connection points: 2
#     Edge 36, Type (0, 0), BuildingBlock: KIFKEQ_clean_linker_1, # of connection points: 2
#     Edge 37, Type (0, 0), BuildingBlock: KIFKEQ_clean_linker_1, # of connection points: 2
#     Edge 38, Type (0, 0), BuildingBlock: KIFKEQ_clean_linker_1, # of connection points: 2
#     Edge 39, Type (0, 0), BuildingBlock: KIFKEQ_clean_linker_1, # of connection points: 2
#     Edge 40, Type (0, 0), BuildingBlock: KIFKEQ_clean_linker_1, # of connection points: 2
#     Edge 41, Type (0, 0), BuildingBlock: KIFKEQ_clean_linker_1, # of connection points: 2
#     Edge 42, Type (0, 0), BuildingBlock: KIFKEQ_clean_linker_1, # of connection points: 2
#     Edge 43, Type (0, 0), BuildingBlock: KIFKEQ_clean_linker_1, # of connection points: 2
#     Edge 44, Type (0, 0), BuildingBlock: KIFKEQ_clean_linker_1, # of connection points: 2
#     Edge 45, Type (0, 0), BuildingBlock: KIFKEQ_clean_linker_1, # of connection points: 2
#     Edge 46, Type (0, 0), BuildingBlock: KIFKEQ_clean_linker_1, # of connection points: 2
#     Edge 47, Type (0, 0), BuildingBlock: KIFKEQ_clean_linker_1, # of connection points: 2
#     Edge 48, Type (0, 0), BuildingBlock: KIFKEQ_clean_linker_1, # of connection points: 2
#     Edge 49, Type (0, 0), BuildingBlock: KIFKEQ_clean_linker_1, # of connection points: 2
#     Edge 50, Type (0, 0), BuildingBlock: KIFKEQ_clean_linker_1, # of connection points: 2
#     Edge 51, Type (0, 0), BuildingBlock: KIFKEQ_clean_linker_1, # of connection points: 2
#     Edge 52, Type (0, 0), BuildingBlock: KIFKEQ_clean_linker_1, # of connection points: 2
#     Edge 53, Type (0, 0), BuildingBlock: KIFKEQ_clean_linker_1, # of connection points: 2
#     Edge 54, Type (0, 0), BuildingBlock: KIFKEQ_clean_linker_1, # of connection points: 2
#     Edge 55, Type (0, 0), BuildingBlock: KIFKEQ_clean_linker_1, # of connection points: 2
# Relax obj value: 0.348
# Max RMSD: 0.243
# Mean RMSD: 0.243
data_MOF--net-vbe--node1-XOMCOT_clean_sbu_0--edge1-KIFKEQ_clean_linker_1
_symmetry_space_group_name_H-M    P1
_symmetry_Int_Tables_number       1
_symmetry_cell_setting            triclinic
loop_
_symmetry_equiv_pos_as_xyz
'x, y, z'
_cell_length_a     49.298406
_cell_length_b     36.515244
_cell_length_c     55.45824
_cell_angle_alpha  90.026613
_cell_angle_beta   89.990402
_cell_angle_gamma 89.998467
loop_
_atom_site_label
_atom_site_type_symbol
_atom_site_fract_x
_atom_site_fract_y
_atom_site_fract_z
_atom_type_partial_charge
Co0 Co 0.0648 0.08631 0.3618 0.0
C1 C 0.04065 0.04105 0.4007 0.0
C2 C 0.01322 0.05058 0.37139 0.0
C3 C 0.99903 0.03434 0.38983 0.0
N4 N 0.03937 0.05461 0.37813 0.0
N5 N 0.01638 0.02843 0.40814 0.0
H6 H 0.05797 0.04344 0.41243 0.0
H7 H 0.00463 0.0612 0.35487 0.0
C8 C 0.04774 0.03109 0.3245 0.0
O9 O 0.04898 0.00471 0.34057 0.0
N10 N 0.08922 0.11872 0.34528 0.0
C11 C 0.11366 0.13072 0.35268 0.0
C12 C 0.1235 0.15488 0.33572 0.0
C13 C 0.08435 0.13571 0.32424 0.0
N14 N 0.10501 0.15793 0.31786 0.0
C15 C 0.10696 0.05215 0.38912 0.0
C16 C 0.13346 0.02083 0.35035 0.0
C17 C 0.14622 0.02116 0.37288 0.0
C18 C 0.13244 0.03633 0.39253 0.0
C19 C 0.10815 0.03743 0.34762 0.0
N20 N 0.09505 0.05284 0.36687 0.0
H21 H 0.09801 0.06653 0.40409 0.0
H22 H 0.10048 0.0405 0.32956 0.0
H23 H 0.12349 0.1228 0.36931 0.0
H24 H 0.06565 0.13263 0.31424 0.0
O25 O 0.06817 0.1161 0.39062 0.0
O26 O 0.03756 0.12401 0.36166 0.0
O27 O 0.05468 0.06373 0.33 0.0
C28 C 0.0477 0.13448 0.38214 0.0
H29 H 0.97741 0.02925 0.39033 0.0
H30 H 0.14277 0.16901 0.33652 0.0
H31 H 0.14387 0.0104 0.33457 0.0
H32 H 0.14186 0.03761 0.41016 0.0
Co33 Co 0.43166 0.90314 0.36317 0.0
C34 C 0.45218 0.94752 0.40357 0.0
C35 C 0.47807 0.95141 0.37272 0.0
C36 C 0.49064 0.96861 0.39175 0.0
N37 N 0.45357 0.93897 0.37996 0.0
N38 N 0.47438 0.96568 0.41111 0.0
H39 H 0.43658 0.93791 0.41563 0.0
H40 H 0.4873 0.94563 0.35546 0.0
C41 C 0.44561 0.95783 0.32423 0.0
O42 O 0.44041 0.98539 0.33875 0.0
N43 N 0.41053 0.86678 0.34661 0.0
C44 C 0.38578 0.85424 0.35282 0.0
C45 C 0.37752 0.82924 0.33576 0.0
C46 C 0.4173 0.84893 0.32627 0.0
N47 N 0.39742 0.82597 0.31922 0.0
C48 C 0.38653 0.93576 0.38768 0.0
C49 C 0.35958 0.95873 0.34674 0.0
C50 C 0.34609 0.96051 0.36897 0.0
C51 C 0.36021 0.94955 0.38969 0.0
C52 C 0.3857 0.94419 0.34547 0.0
N53 N 0.39904 0.93303 0.36579 0.0
H54 H 0.39578 0.92442 0.40357 0.0
H55 H 0.39412 0.93945 0.32782 0.0
H56 H 0.37447 0.86286 0.36854 0.0
H57 H 0.43614 0.85313 0.31663 0.0
O58 O 0.4284 0.87445 0.3925 0.0
O59 O 0.46148 0.86952 0.36543 0.0
O60 O 0.44209 0.92484 0.33118 0.0
C61 C 0.45078 0.85871 0.38561 0.0
H62 H 0.51112 0.97932 0.39193 0.0
H63 H 0.35853 0.81436 0.33561 0.0
H64 H 0.34965 0.96692 0.33019 0.0
H65 H 0.35047 0.94924 0.40719 0.0
Co66 Co 0.56511 0.9074 0.13069 0.0
C67 C 0.54475 0.95585 0.09224 0.0
C68 C 0.52137 0.96137 0.12448 0.0
C69 C 0.50862 0.98056 0.10642 0.0
N70 N 0.54449 0.94655 0.11577 0.0
N71 N 0.52334 0.97684 0.08612 0.0
H72 H 0.55827 0.94394 0.07911 0.0
H73 H 0.5129 0.956 0.1421 0.0
C74 C 0.55536 0.95872 0.17241 0.0
O75 O 0.56281 0.98693 0.15928 0.0
N76 N 0.58477 0.86773 0.14532 0.0
C77 C 0.60869 0.85367 0.13802 0.0
C78 C 0.61662 0.82737 0.15434 0.0
C79 C 0.57809 0.84944 0.1655 0.0
N80 N 0.5973 0.82481 0.17146 0.0
C81 C 0.60992 0.94465 0.10797 0.0
C82 C 0.63993 0.95318 0.14971 0.0
C83 C 0.65151 0.96289 0.12761 0.0
C84 C 0.63607 0.95925 0.1066 0.0
C85 C 0.61357 0.93942 0.15034 0.0
N86 N 0.59878 0.93528 0.12964 0.0
H87 H 0.59953 0.93868 0.09141 0.0
H88 H 0.60583 0.92974 0.16739 0.0
H89 H 0.61985 0.8626 0.12229 0.0
H90 H 0.56002 0.85482 0.176 0.0
O91 O 0.56732 0.88167 0.10009 0.0
O92 O 0.53408 0.87636 0.127 0.0
O93 O 0.55582 0.92638 0.16368 0.0
C94 C 0.54438 0.86674 0.10641 0.0
H95 H 0.48915 0.99409 0.1078 0.0
H96 H 0.63516 0.8115 0.15379 0.0
H97 H 0.65149 0.95508 0.16627 0.0
H98 H 0.64474 0.96552 0.08913 0.0
Co99 Co 0.93664 0.08446 0.12763 0.0
C100 C 0.95422 0.03614 0.08805 0.0
C101 C 0.97686 0.02556 0.12013 0.0
C102 C 0.98798 0.00541 0.10164 0.0
N103 N 0.95511 0.04412 0.11178 0.0
N104 N 0.97372 0.01227 0.08141 0.0
H105 H 0.94162 0.05055 0.0753 0.0
H106 H 0.98558 0.02856 0.13788 0.0
C107 C 0.94459 0.03207 0.16929 0.0
O108 O 0.93554 0.00432 0.15652 0.0
N109 N 0.91908 0.12522 0.1431 0.0
C110 C 0.89634 0.14227 0.13578 0.0
C111 C 0.88999 0.16896 0.15235 0.0
C112 C 0.92656 0.14191 0.16366 0.0
N113 N 0.90899 0.16869 0.16992 0.0
C114 C 0.8902 0.05002 0.10551 0.0
C115 C 0.86053 0.04362 0.14762 0.0
C116 C 0.84848 0.03381 0.12574 0.0
C117 C 0.86371 0.0365 0.10453 0.0
C118 C 0.88721 0.05626 0.14787 0.0
N119 N 0.90185 0.05921 0.12701 0.0
H120 H 0.90058 0.05501 0.08882 0.0
H121 H 0.8955 0.06571 0.16478 0.0
H122 H 0.88488 0.13519 0.11982 0.0
H123 H 0.94454 0.13452 0.17369 0.0
O124 O 0.93468 0.11121 0.09743 0.0
O125 O 0.96881 0.11319 0.12363 0.0
O126 O 0.94587 0.06414 0.16023 0.0
C127 C 0.95829 0.1244 0.10347 0.0
H128 H 0.00605 0.98871 0.1028 0.0
H129 H 0.87228 0.18643 0.15175 0.0
H130 H 0.84919 0.04238 0.16434 0.0
H131 H 0.85472 0.03009 0.08721 0.0
Co132 Co 0.9343 0.90018 0.62635 0.0
C133 C 0.95177 0.9464 0.58574 0.0
C134 C 0.97693 0.95483 0.61666 0.0
C135 C 0.9879 0.97393 0.59763 0.0
N136 N 0.95375 0.9384 0.6094 0.0
N137 N 0.97209 0.96821 0.57827 0.0
H138 H 0.93732 0.93407 0.57359 0.0
H139 H 0.98659 0.95077 0.63394 0.0
C140 C 0.9461 0.95446 0.66636 0.0
O141 O 0.9386 0.98222 0.65283 0.0
N142 N 0.91555 0.86159 0.64301 0.0
C143 C 0.89123 0.84722 0.6372 0.0
C144 C 0.8839 0.82262 0.65483 0.0
C145 C 0.92305 0.84511 0.66365 0.0
N146 N 0.90397 0.82139 0.6713 0.0
C147 C 0.88738 0.93156 0.60369 0.0
C148 C 0.86069 0.94963 0.64584 0.0
C149 C 0.84687 0.95338 0.62387 0.0
C150 C 0.86079 0.94466 0.60256 0.0
C151 C 0.88705 0.93586 0.64618 0.0
N152 N 0.90034 0.92742 0.62527 0.0
H153 H 0.8967 0.92226 0.58725 0.0
H154 H 0.89594 0.92979 0.66348 0.0
H155 H 0.87934 0.85486 0.62161 0.0
H156 H 0.94159 0.85127 0.6733 0.0
O157 O 0.93102 0.87212 0.59677 0.0
O158 O 0.96547 0.86921 0.62257 0.0
O159 O 0.94491 0.9217 0.65837 0.0
C160 C 0.95433 0.85799 0.60267 0.0
H161 H 0.00722 0.98804 0.59744 0.0
H162 H 0.86522 0.80709 0.65564 0.0
H163 H 0.85095 0.95602 0.66282 0.0
H164 H 0.85079 0.9459 0.5852 0.0
Co165 Co 0.56528 0.08748 0.62972 0.0
C166 C 0.54521 0.03994 0.59045 0.0
C167 C 0.51581 0.04751 0.61842 0.0
C168 C 0.50353 0.02982 0.5995 0.0
N169 N 0.54203 0.05353 0.61285 0.0
N170 N 0.52199 0.0253 0.58177 0.0
H171 H 0.56351 0.04294 0.5801 0.0
H172 H 0.50577 0.05777 0.6344 0.0
C173 C 0.54735 0.03365 0.6679 0.0
O174 O 0.54975 0.00616 0.65275 0.0
N175 N 0.58771 0.12199 0.64657 0.0
C176 C 0.61225 0.13467 0.63999 0.0
C177 C 0.62094 0.1592 0.65719 0.0
C178 C 0.5816 0.13899 0.66735 0.0
N179 N 0.60163 0.16181 0.67439 0.0
C180 C 0.61049 0.05456 0.6055 0.0
C181 C 0.634 0.02432 0.64604 0.0
C182 C 0.64872 0.02429 0.62441 0.0
C183 C 0.63632 0.03901 0.60382 0.0
C184 C 0.60853 0.04081 0.64706 0.0
N185 N 0.5968 0.05546 0.62692 0.0
H186 H 0.60258 0.06847 0.58989 0.0
H187 H 0.59948 0.04399 0.66458 0.0
H188 H 0.62304 0.12671 0.62385 0.0
H189 H 0.56261 0.1352 0.67679 0.0
O190 O 0.56949 0.11624 0.60049 0.0
O191 O 0.53689 0.12343 0.62775 0.0
O192 O 0.55384 0.06611 0.66155 0.0
C193 C 0.54792 0.13371 0.60761 0.0
H194 H 0.48213 0.02356 0.59829 0.0
H195 H 0.6401 0.17364 0.65711 0.0
H196 H 0.64254 0.01319 0.66246 0.0
H197 H 0.64707 0.04073 0.58684 0.0
Co198 Co 0.43435 0.08898 0.86516 0.0
C199 C 0.45163 0.0424 0.90564 0.0
C200 C 0.48044 0.04191 0.87678 0.0
C201 C 0.49183 0.02469 0.89634 0.0
N202 N 0.45504 0.05257 0.88249 0.0
N203 N 0.47376 0.02542 0.91457 0.0
H204 H 0.43435 0.04996 0.9164 0.0
H205 H 0.4909 0.04909 0.86031 0.0
C206 C 0.44976 0.03415 0.82645 0.0
O207 O 0.44532 0.00635 0.84095 0.0
N208 N 0.41439 0.12586 0.84804 0.0
C209 C 0.39031 0.14045 0.85423 0.0
C210 C 0.38302 0.16551 0.83689 0.0
C211 C 0.42165 0.14232 0.82736 0.0
N212 N 0.40275 0.16663 0.81999 0.0
C213 C 0.38712 0.05927 0.88824 0.0
C214 C 0.36284 0.03319 0.84679 0.0
C215 C 0.34795 0.03291 0.86832 0.0
C216 C 0.36068 0.04558 0.88935 0.0
C217 C 0.38898 0.04771 0.84638 0.0
N218 N 0.4011 0.06018 0.86698 0.0
H219 H 0.39539 0.07179 0.90421 0.0
H220 H 0.3984 0.05118 0.82903 0.0
H221 H 0.37878 0.13319 0.87011 0.0
H222 H 0.44055 0.13682 0.81815 0.0
O223 O 0.4308 0.11807 0.89436 0.0
O224 O 0.46466 0.12171 0.86801 0.0
O225 O 0.44544 0.06696 0.83343 0.0
C226 C 0.45356 0.1332 0.88784 0.0
H227 H 0.51265 0.01553 0.8977 0.0
H228 H 0.36437 0.18111 0.83661 0.0
H229 H 0.35403 0.02368 0.83004 0.0
H230 H 0.34981 0.04708 0.90629 0.0
Co231 Co 0.06459 0.90444 0.86071 0.0
C232 C 0.04395 0.94968 0.90092 0.0
C233 C 0.01683 0.94883 0.87078 0.0
C234 C 0.00363 0.96462 0.88993 0.0
N235 N 0.0423 0.93982 0.87751 0.0
N236 N 0.0207 0.96489 0.90886 0.0
H237 H 0.06029 0.94191 0.91279 0.0
H238 H 0.00754 0.9412 0.85385 0.0
C239 C 0.04904 0.95853 0.82188 0.0
O240 O 0.0531 0.98627 0.83654 0.0
N241 N 0.08591 0.86848 0.84393 0.0
C242 C 0.11018 0.85482 0.85043 0.0
C243 C 0.11841 0.83026 0.83304 0.0
C244 C 0.07952 0.85203 0.82299 0.0
N245 N 0.09911 0.82862 0.81578 0.0
C246 C 0.10972 0.93814 0.88459 0.0
C247 C 0.1354 0.96227 0.84329 0.0
C248 C 0.14928 0.9645 0.86531 0.0
C249 C 0.13581 0.95288 0.88622 0.0
C250 C 0.10958 0.94675 0.84239 0.0
N251 N 0.09683 0.93511 0.86289 0.0
H252 H 0.10094 0.9265 0.90061 0.0
H253 H 0.10092 0.94181 0.82486 0.0
H254 H 0.1212 0.86242 0.86653 0.0
H255 H 0.06072 0.85689 0.81346 0.0
O256 O 0.06861 0.87625 0.89015 0.0
O257 O 0.03529 0.86999 0.86345 0.0
O258 O 0.05351 0.92572 0.82878 0.0
C259 C 0.04637 0.85984 0.88361 0.0
H260 H 0.98249 0.97265 0.89046 0.0
H261 H 0.13738 0.81534 0.83297 0.0
H262 H 0.1448 0.97095 0.8266 0.0
H263 H 0.14589 0.95294 0.90357 0.0
Co264 Co 0.56616 0.59263 0.36361 0.0
C265 C 0.54581 0.54612 0.40316 0.0
C266 C 0.51966 0.54459 0.37246 0.0
C267 C 0.50682 0.52739 0.39131 0.0
N268 N 0.54442 0.55577 0.37972 0.0
N269 N 0.52322 0.52862 0.41075 0.0
H270 H 0.5618 0.55476 0.41501 0.0
H271 H 0.51039 0.55147 0.3554 0.0
C272 C 0.55183 0.54112 0.323 0.0
O273 O 0.55779 0.5126 0.33644 0.0
N274 N 0.58691 0.63012 0.34775 0.0
C275 C 0.61196 0.64197 0.35358 0.0
C276 C 0.61997 0.66748 0.33673 0.0
C277 C 0.57969 0.64896 0.32795 0.0
N278 N 0.59958 0.67179 0.32079 0.0
C279 C 0.61091 0.55419 0.38539 0.0
C280 C 0.63772 0.5398 0.34264 0.0
C281 C 0.65044 0.53149 0.36447 0.0
C282 C 0.6366 0.53808 0.38604 0.0
C283 C 0.61183 0.55515 0.34278 0.0
N284 N 0.59857 0.5621 0.36397 0.0
H285 H 0.60208 0.56281 0.40216 0.0
H286 H 0.60348 0.56405 0.32579 0.0
H287 H 0.62377 0.63217 0.36869 0.0
H288 H 0.56061 0.64531 0.31859 0.0
O289 O 0.57077 0.61896 0.39378 0.0
O290 O 0.5368 0.62635 0.36781 0.0
O291 O 0.55462 0.57356 0.33121 0.0
C292 C 0.54835 0.63565 0.38794 0.0
H293 H 0.48608 0.51773 0.39113 0.0
H294 H 0.63923 0.68169 0.33616 0.0
H295 H 0.64814 0.53581 0.32564 0.0
H296 H 0.64629 0.53313 0.40327 0.0
Co297 Co 0.93393 0.40355 0.36251 0.0
C298 C 0.95175 0.45139 0.40226 0.0
C299 C 0.97435 0.46223 0.37019 0.0
C300 C 0.98545 0.48228 0.38874 0.0
N301 N 0.95262 0.44361 0.3785 0.0
N302 N 0.97124 0.47525 0.40898 0.0
H303 H 0.93912 0.4369 0.41494 0.0
H304 H 0.98309 0.45938 0.35244 0.0
C305 C 0.94269 0.45559 0.32073 0.0
O306 O 0.93378 0.48362 0.33331 0.0
N307 N 0.91615 0.36305 0.34695 0.0
C308 C 0.89304 0.34653 0.35401 0.0
C309 C 0.88665 0.31982 0.33743 0.0
C310 C 0.92384 0.34594 0.32659 0.0
N311 N 0.90606 0.31957 0.32028 0.0
C312 C 0.88781 0.43915 0.38429 0.0
C313 C 0.8584 0.44575 0.34206 0.0
C314 C 0.84642 0.45612 0.36386 0.0
C315 C 0.86151 0.45333 0.38513 0.0
C316 C 0.88491 0.43249 0.34195 0.0
N317 N 0.89942 0.42942 0.36288 0.0
H318 H 0.89807 0.43416 0.40104 0.0
H319 H 0.89318 0.4227 0.32511 0.0
H320 H 0.88146 0.35386 0.36986 0.0
H321 H 0.9417 0.35325 0.31632 0.0
O322 O 0.93142 0.37686 0.39271 0.0
O323 O 0.96578 0.37429 0.36674 0.0
O324 O 0.94364 0.4236 0.32993 0.0
C325 C 0.95496 0.36327 0.38682 0.0
H326 H 0.00349 0.49904 0.38756 0.0
H327 H 0.86911 0.302 0.33793 0.0
H328 H 0.84712 0.44704 0.32531 0.0
H329 H 0.85254 0.46019 0.40238 0.0
Co330 Co 0.06877 0.39847 0.13037 0.0
C331 C 0.04749 0.44494 0.09081 0.0
C332 C 0.01879 0.43753 0.11938 0.0
C333 C 0.00603 0.45518 0.10071 0.0
N334 N 0.04491 0.43157 0.11335 0.0
N335 N 0.02405 0.4596 0.08265 0.0
H336 H 0.06547 0.44204 0.08001 0.0
H337 H 0.00916 0.42745 0.13559 0.0
C338 C 0.05058 0.4528 0.16786 0.0
O339 O 0.05373 0.47979 0.15245 0.0
N340 N 0.09172 0.36467 0.14737 0.0
C341 C 0.11651 0.35281 0.14078 0.0
C342 C 0.12538 0.32787 0.15764 0.0
C343 C 0.08563 0.34667 0.16781 0.0
N344 N 0.10589 0.32402 0.17454 0.0
C345 C 0.11313 0.43291 0.1059 0.0
C346 C 0.1375 0.46118 0.14669 0.0
C347 C 0.15189 0.46171 0.12489 0.0
C348 C 0.13903 0.44821 0.10418 0.0
C349 C 0.11186 0.44516 0.1477 0.0
N350 N 0.0998 0.43126 0.12747 0.0
H351 H 0.10501 0.41948 0.09019 0.0
H352 H 0.103 0.4414 0.16527 0.0
H353 H 0.12721 0.36129 0.12471 0.0
H354 H 0.06675 0.35012 0.17749 0.0
O355 O 0.07353 0.36966 0.10125 0.0
O356 O 0.04098 0.36169 0.12848 0.0
O357 O 0.05695 0.42005 0.16205 0.0
C358 C 0.05226 0.3516 0.1084 0.0
H359 H 0.98463 0.46161 0.09986 0.0
H360 H 0.14438 0.31301 0.15715 0.0
H361 H 0.1465 0.47134 0.1632 0.0
H362 H 0.14956 0.44699 0.08706 0.0
Co363 Co 0.43335 0.59406 0.12704 0.0
C364 C 0.45335 0.5473 0.08726 0.0
C365 C 0.48335 0.55594 0.11457 0.0
C366 C 0.49541 0.53844 0.09545 0.0
N367 N 0.45688 0.56113 0.10956 0.0
N368 N 0.47655 0.53327 0.07816 0.0
H369 H 0.43474 0.54948 0.07726 0.0
H370 H 0.49361 0.56648 0.13036 0.0
C371 C 0.45317 0.5406 0.16467 0.0
O372 O 0.45125 0.51319 0.14941 0.0
N373 N 0.41063 0.62765 0.14447 0.0
C374 C 0.38488 0.63742 0.13943 0.0
C375 C 0.37619 0.66164 0.15683 0.0
C376 C 0.41749 0.64639 0.16443 0.0
N377 N 0.39679 0.66723 0.17238 0.0
C378 C 0.38833 0.55991 0.10334 0.0
C379 C 0.36582 0.52928 0.14421 0.0
C380 C 0.35063 0.52941 0.12285 0.0
C381 C 0.36256 0.54412 0.10206 0.0
C382 C 0.39128 0.54584 0.14482 0.0
N383 N 0.40242 0.56095 0.12455 0.0
H384 H 0.39575 0.57412 0.08766 0.0
H385 H 0.40071 0.54894 0.16219 0.0
H386 H 0.37322 0.62768 0.12422 0.0
H387 H 0.43711 0.64443 0.17311 0.0
O388 O 0.42799 0.62304 0.09805 0.0
O389 O 0.46099 0.63094 0.12485 0.0
O390 O 0.44579 0.57281 0.15859 0.0
C391 C 0.44936 0.64113 0.10497 0.0
H392 H 0.51685 0.53263 0.09376 0.0
H393 H 0.35645 0.67454 0.15783 0.0
H394 H 0.35756 0.51816 0.16076 0.0
H395 H 0.35141 0.54585 0.08528 0.0
Co396 Co 0.43172 0.4009 0.62771 0.0
C397 C 0.45 0.44755 0.58765 0.0
C398 C 0.47301 0.45829 0.61954 0.0
C399 C 0.48459 0.47725 0.60071 0.0
N400 N 0.45075 0.44043 0.61151 0.0
N401 N 0.47016 0.47004 0.5807 0.0
H402 H 0.43664 0.43401 0.57507 0.0
H403 H 0.48192 0.45517 0.6372 0.0
C404 C 0.44156 0.45335 0.66905 0.0
O405 O 0.43293 0.48125 0.65621 0.0
N406 N 0.41351 0.36088 0.64333 0.0
C407 C 0.39055 0.3444 0.63587 0.0
C408 C 0.38371 0.31782 0.65235 0.0
C409 C 0.42066 0.34393 0.66388 0.0
N410 N 0.40267 0.31763 0.66988 0.0
C411 C 0.38556 0.43688 0.60611 0.0
C412 C 0.35663 0.44393 0.64859 0.0
C413 C 0.3443 0.45386 0.62686 0.0
C414 C 0.35918 0.45091 0.60546 0.0
C415 C 0.38317 0.43079 0.64851 0.0
N416 N 0.39742 0.42739 0.62745 0.0
H417 H 0.39566 0.43173 0.58929 0.0
H418 H 0.39163 0.42123 0.66532 0.0
H419 H 0.3794 0.35161 0.61976 0.0
H420 H 0.43828 0.35124 0.67447 0.0
O421 O 0.4289 0.37399 0.59756 0.0
O422 O 0.46327 0.37101 0.62347 0.0
O423 O 0.44184 0.42108 0.66021 0.0
C424 C 0.45234 0.36005 0.60343 0.0
H425 H 0.50352 0.49226 0.60122 0.0
H426 H 0.3662 0.29997 0.65149 0.0
H427 H 0.34557 0.44541 0.66545 0.0
H428 H 0.34998 0.45747 0.58826 0.0
Co429 Co 0.06444 0.59149 0.62626 0.0
C430 C 0.04313 0.54407 0.58746 0.0
C431 C 0.01771 0.54331 0.61871 0.0
C432 C 0.00427 0.52593 0.60027 0.0
N433 N 0.04238 0.55422 0.61087 0.0
N434 N 0.02032 0.52656 0.58068 0.0
H435 H 0.05817 0.55332 0.57471 0.0
H436 H 0.00875 0.55078 0.63579 0.0
C437 C 0.04886 0.54345 0.66835 0.0
O438 O 0.05678 0.51388 0.65682 0.0
N439 N 0.08546 0.62945 0.64147 0.0
C440 C 0.1098 0.64232 0.63441 0.0
C441 C 0.11796 0.66881 0.65054 0.0
C442 C 0.07889 0.64841 0.66143 0.0
N443 N 0.09847 0.67255 0.66746 0.0
C444 C 0.10804 0.5486 0.60636 0.0
C445 C 0.13554 0.53997 0.64943 0.0
C446 C 0.14788 0.52852 0.62801 0.0
C447 C 0.1336 0.53209 0.60634 0.0
C448 C 0.10975 0.55562 0.64872 0.0
N449 N 0.09628 0.56 0.62735 0.0
H450 H 0.09876 0.55449 0.58929 0.0
H451 H 0.1015 0.56663 0.66524 0.0
H452 H 0.1209 0.63281 0.61879 0.0
H453 H 0.06042 0.64408 0.67158 0.0
O454 O 0.0703 0.61563 0.59549 0.0
O455 O 0.03585 0.62586 0.62054 0.0
O456 O 0.05164 0.57502 0.65882 0.0
C457 C 0.04812 0.63353 0.60045 0.0
H458 H 0.98354 0.51617 0.60069 0.0
H459 H 0.13669 0.68423 0.6498 0.0
H460 H 0.14619 0.5381 0.66648 0.0
H461 H 0.14287 0.52446 0.58935 0.0
Co462 Co 0.93259 0.59561 0.86754 0.0
C463 C 0.95164 0.54941 0.90764 0.0
C464 C 0.97363 0.53764 0.87533 0.0
C465 C 0.98543 0.51865 0.89399 0.0
N466 N 0.9519 0.55629 0.88373 0.0
N467 N 0.97167 0.52647 0.91428 0.0
H468 H 0.93845 0.56302 0.92036 0.0
H469 H 0.98221 0.54019 0.85752 0.0
C470 C 0.94448 0.54628 0.82468 0.0
O471 O 0.93276 0.51788 0.83482 0.0
N472 N 0.91416 0.63539 0.85174 0.0
C473 C 0.89007 0.64999 0.85806 0.0
C474 C 0.88304 0.67592 0.84118 0.0
C475 C 0.92185 0.65305 0.83159 0.0
N476 N 0.90309 0.67775 0.82469 0.0
C477 C 0.88742 0.55541 0.88713 0.0
C478 C 0.8587 0.55149 0.84436 0.0
C479 C 0.84645 0.53933 0.86565 0.0
C480 C 0.86128 0.54059 0.88715 0.0
C481 C 0.88504 0.56538 0.84505 0.0
N482 N 0.89908 0.56748 0.86627 0.0
H483 H 0.89751 0.55903 0.90413 0.0
H484 H 0.89353 0.57651 0.82866 0.0
H485 H 0.87812 0.64152 0.87343 0.0
H486 H 0.94025 0.64705 0.82168 0.0
O487 O 0.92753 0.6213 0.8979 0.0
O488 O 0.96305 0.62679 0.8734 0.0
O489 O 0.94502 0.57728 0.83528 0.0
C490 C 0.95082 0.63658 0.8931 0.0
H491 H 0.00408 0.50304 0.89312 0.0
H492 H 0.86454 0.6919 0.84084 0.0
H493 H 0.84772 0.5512 0.82744 0.0
H494 H 0.85219 0.53214 0.90404 0.0
Co495 Co 0.56559 0.40369 0.86138 0.0
C496 C 0.54401 0.44828 0.9012 0.0
C497 C 0.52036 0.45536 0.86925 0.0
C498 C 0.50738 0.47292 0.88795 0.0
N499 N 0.54384 0.44075 0.87738 0.0
N500 N 0.52225 0.46799 0.908 0.0
H501 H 0.55831 0.43687 0.91386 0.0
H502 H 0.51177 0.45079 0.85159 0.0
C503 C 0.55273 0.45511 0.82036 0.0
O504 O 0.55977 0.4835 0.83352 0.0
N505 N 0.5865 0.36599 0.84589 0.0
C506 C 0.6104 0.35229 0.85345 0.0
C507 C 0.6187 0.32595 0.83732 0.0
C508 C 0.5803 0.34767 0.8256 0.0
N509 N 0.59972 0.32313 0.81989 0.0
C510 C 0.60933 0.44419 0.8834 0.0
C511 C 0.63824 0.45415 0.84118 0.0
C512 C 0.65009 0.46425 0.8631 0.0
C513 C 0.63513 0.46 0.88436 0.0
C514 C 0.61225 0.43914 0.84098 0.0
N515 N 0.59806 0.4341 0.86192 0.0
H516 H 0.5994 0.43785 0.90012 0.0
H517 H 0.6044 0.42914 0.82404 0.0
H518 H 0.62105 0.36101 0.86951 0.0
H519 H 0.56216 0.35258 0.81511 0.0
O520 O 0.56992 0.37741 0.89158 0.0
O521 O 0.53612 0.37004 0.86546 0.0
O522 O 0.55444 0.42269 0.82883 0.0
C523 C 0.54755 0.36068 0.88562 0.0
H524 H 0.48746 0.48535 0.88734 0.0
H525 H 0.63708 0.30984 0.83847 0.0
H526 H 0.64939 0.45659 0.82442 0.0
H527 H 0.64398 0.46665 0.90169 0.0
H528 H 0.95046 0.08308 0.20424 0.0
H529 H 0.96577 0.96896 0.18883 0.0
H530 H 0.97629 0.07813 0.24132 0.0
H531 H 0.99211 0.96404 0.22632 0.0
H532 H 0.01577 0.97349 0.30997 0.0
H533 H 0.9894 0.96948 0.27253 0.0
H534 H 0.02577 0.07033 0.24789 0.0
H535 H 0.05168 0.07459 0.285 0.0
C536 C 0.95921 0.05681 0.20889 0.0
C537 C 0.95645 0.02655 0.19345 0.0
C538 C 0.97413 0.05402 0.23008 0.0
C539 C 0.98679 0.02094 0.23638 0.0
C540 C 0.98267 0.98992 0.22179 0.0
C541 C 0.96757 0.99271 0.20042 0.0
C542 C 0.01846 0.99438 0.29632 0.0
C543 C 0.03547 0.02465 0.30057 0.0
C544 C 0.00336 0.99208 0.27494 0.0
C545 C 0.00509 0.02003 0.25759 0.0
C546 C 0.02349 0.04889 0.26123 0.0
C547 C 0.03844 0.05121 0.28246 0.0
H548 H 0.55075 0.90833 0.20797 0.0
H549 H 0.53087 0.02047 0.19057 0.0
H550 H 0.52355 0.9124 0.24437 0.0
H551 H 0.50301 0.02438 0.22717 0.0
H552 H 0.47469 0.01775 0.30904 0.0
H553 H 0.50293 0.02188 0.27269 0.0
H554 H 0.47439 0.91536 0.25021 0.0
H555 H 0.44679 0.911 0.28634 0.0
C556 C 0.54073 0.93401 0.21206 0.0
C557 C 0.54266 0.96394 0.19628 0.0
C558 C 0.52497 0.93626 0.23283 0.0
C559 C 0.51057 0.96841 0.2383 0.0
C560 C 0.5138 -0.00079 0.22335 0.0
C561 C 0.52978 -0.003 0.20246 0.0
C562 C 0.47413 0.99559 0.29606 0.0
C563 C 0.45883 0.96385 0.30066 0.0
C564 C 0.49032 -0.00208 0.27532 0.0
C565 C 0.49137 0.96856 0.25892 0.0
C566 C 0.47465 0.93797 0.26286 0.0
C567 C 0.45867 0.93559 0.28349 0.0
H568 H 0.96969 0.01707 0.68439 0.0
H569 H 0.95047 0.90493 0.70246 0.0
H570 H 0.99601 0.0225 0.72185 0.0
H571 H 0.97622 0.91046 0.73953 0.0
H572 H 0.05109 0.91194 0.78391 0.0
H573 H 0.02552 0.91531 0.7466 0.0
H574 H 0.99315 0.02036 0.76792 0.0
H575 H 0.01928 0.0172 0.80556 0.0
C576 C 0.97067 0.99388 0.69653 0.0
C577 C 0.9584 0.9604 0.69033 0.0
C578 C 0.98573 -0.00303 0.7179 0.0
C579 C 0.98868 0.96662 0.73329 0.0
C580 C 0.97498 0.934 0.72769 0.0
C581 C 0.9601 0.9309 0.70648 0.0
C582 C 0.03877 0.93598 0.7806 0.0
C583 C 0.03687 0.96405 0.79783 0.0
C584 C 0.024 0.93783 0.75926 0.0
C585 C 0.00682 0.96769 0.75462 0.0
C586 C 0.00616 -0.00303 0.7711 0.0
C587 C 0.02112 0.99516 0.79258 0.0
H588 H 0.54841 0.08139 0.70543 0.0
H589 H 0.51938 0.97395 0.68523 0.0
H590 H 0.5241 0.07711 0.74334 0.0
H591 H 0.49468 0.96984 0.72359 0.0
H592 H 0.47593 0.97336 0.80843 0.0
H593 H 0.50062 0.96901 0.77004 0.0
H594 H 0.47435 0.07827 0.7516 0.0
H595 H 0.45006 0.08273 0.7895 0.0
C596 C 0.53697 0.05669 0.70913 0.0
C597 C 0.5355 0.02822 0.69213 0.0
C598 C 0.52295 0.05432 0.73085 0.0
C599 C 0.50704 0.02347 0.73617 0.0
C600 C 0.50674 0.99398 0.71987 0.0
C601 C 0.52086 -0.00364 0.69796 0.0
C602 C 0.47513 0.99615 0.79596 0.0
C603 C 0.46143 0.0286 0.80216 0.0
C604 C 0.48926 0.99365 0.77404 0.0
C605 C 0.48987 0.02361 0.75813 0.0
C606 C 0.47483 0.0551 0.7638 0.0
C607 C 0.46083 0.05758 0.78552 0.0
H608 H 0.52891 0.47937 0.30308 0.0
H609 H 0.54745 0.59278 0.2881 0.0
H610 H 0.50402 0.4754 0.26482 0.0
H611 H 0.52313 0.58867 0.25021 0.0
H612 H 0.45025 0.58701 0.20282 0.0
H613 H 0.47467 0.58331 0.2407 0.0
H614 H 0.50876 0.47931 0.21928 0.0
H615 H 0.4838 0.48275 0.18106 0.0
C616 C 0.52803 0.50321 0.2915 0.0
C617 C 0.53979 0.53652 0.29877 0.0
C618 C 0.51381 0.50093 0.26964 0.0
C619 C 0.51115 0.53195 0.25479 0.0
C620 C 0.52418 0.56457 0.26156 0.0
C621 C 0.53824 0.56686 0.28326 0.0
C622 C 0.46275 0.56315 0.20617 0.0
C623 C 0.46537 0.53539 0.18879 0.0
C624 C 0.47686 0.56113 0.22787 0.0
C625 C 0.49409 0.5314 0.23274 0.0
C626 C 0.49566 0.50258 0.21597 0.0
C627 C 0.48139 0.50456 0.19412 0.0
H628 H 0.96637 0.51744 0.30179 0.0
H629 H 0.94693 0.40478 0.28549 0.0
H630 H 0.99357 0.52096 0.26472 0.0
H631 H 0.97351 0.40839 0.24874 0.0
H632 H 0.05016 0.40708 0.20643 0.0
H633 H 0.02291 0.4121 0.24272 0.0
H634 H 0.99249 0.5169 0.21884 0.0
H635 H 0.02029 0.51212 0.18227 0.0
C636 C 0.96742 0.49377 0.29005 0.0
C637 C 0.95491 0.46067 0.29667 0.0
C638 C 0.98301 0.49575 0.26891 0.0
C639 C 0.9862 0.46466 0.25418 0.0
C640 C 0.9721 0.43247 0.26009 0.0
C641 C 0.95674 0.43047 0.28109 0.0
C642 C 0.03791 0.43142 0.20895 0.0
C643 C 0.03711 0.45899 0.19132 0.0
C644 C 0.02216 0.43419 0.22971 0.0
C645 C 0.00508 0.4645 0.23334 0.0
C646 C 0.00541 0.49318 0.21645 0.0
C647 C 0.02133 0.49044 0.19556 0.0
H648 H 0.5255 0.51557 0.80348 0.0
H649 H 0.54891 0.40537 0.78428 0.0
H650 H 0.49693 0.51885 0.76734 0.0
H651 H 0.52114 0.40888 0.74821 0.0
H652 H 0.44538 0.40407 0.70528 0.0
H653 H 0.47277 0.40836 0.74155 0.0
H654 H 0.49567 0.51884 0.7225 0.0
H655 H 0.46745 0.51474 0.68613 0.0
C656 C 0.525 0.4924 0.79129 0.0
C657 C 0.53915 0.46004 0.79683 0.0
C658 C 0.50862 0.49425 0.77064 0.0
C659 C 0.50626 0.4638 0.75522 0.0
C660 C 0.52182 0.43241 0.7601 0.0
C661 C 0.53792 0.43048 0.78069 0.0
C662 C 0.45598 0.42947 0.70895 0.0
C663 C 0.45454 0.45892 0.69276 0.0
C664 C 0.47186 0.43184 0.72965 0.0
C665 C 0.48699 0.4636 0.73459 0.0
C666 C 0.48432 0.49397 0.71915 0.0
C667 C 0.46813 0.49167 0.69838 0.0
H668 H 0.98186 0.59365 0.8072 0.0
H669 H 0.94328 0.49008 0.79133 0.0
H670 H 0.00777 0.58946 0.7704 0.0
H671 H 0.96901 0.4865 0.75342 0.0
H672 H 0.02283 0.59848 0.69164 0.0
H673 H 0.99734 0.59581 0.72871 0.0
H674 H 0.01528 0.48043 0.73533 0.0
H675 H 0.04049 0.48279 0.69715 0.0
C676 C 0.97868 0.57003 0.79571 0.0
C677 C 0.96014 0.54242 0.80206 0.0
C678 C 0.99357 0.56769 0.7745 0.0
C679 C 0.99013 0.53798 0.75873 0.0
C680 C 0.97214 0.50971 0.76525 0.0
C681 C 0.9573 0.51187 0.78683 0.0
C682 C 0.02156 0.57243 0.70091 0.0
C683 C 0.03402 0.54089 0.6915 0.0
C684 C 0.00694 0.57095 0.72231 0.0
C685 C 0.00458 0.53803 0.73521 0.0
C686 C 0.01666 0.50619 0.72574 0.0
C687 C 0.03126 0.5076 0.70402 0.0
H688 H 0.13441 0.22026 0.31235 0.0
H689 H 0.07868 0.14806 0.27544 0.0
H690 H 0.13529 0.26029 0.2772 0.0
H691 H 0.07932 0.18836 0.24052 0.0
H692 H 0.06273 0.29173 0.19586 0.0
H693 H 0.0633 0.25112 0.23072 0.0
H694 H 0.15056 0.26031 0.23428 0.0
H695 H 0.14991 0.30171 0.19969 0.0
C696 C 0.12257 0.21269 0.2967 0.0
C697 C 0.10635 0.18101 0.29682 0.0
C698 C 0.12305 0.23567 0.27658 0.0
C699 C 0.10725 0.22753 0.2562 0.0
C700 C 0.09134 0.19564 0.25615 0.0
C701 C 0.09096 0.17259 0.2762 0.0
C702 C 0.082 0.28536 0.2042 0.0
C703 C 0.10627 0.29996 0.19507 0.0
C704 C 0.08236 0.26179 0.224 0.0
C705 C 0.10699 0.25249 0.23516 0.0
C706 C 0.13127 0.26722 0.22612 0.0
C707 C 0.13092 0.29061 0.2062 0.0
H708 H 0.43777 0.70974 0.18803 0.0
H709 H 0.35571 0.67671 0.20373 0.0
H710 H 0.43781 0.74928 0.22346 0.0
H711 H 0.3559 0.71466 0.23992 0.0
H712 H 0.35494 0.81262 0.29003 0.0
H713 H 0.35472 0.77492 0.25375 0.0
H714 H 0.43935 0.74879 0.26547 0.0
H715 H 0.43957 0.78813 0.30101 0.0
C716 C 0.41986 0.71074 0.19932 0.0
C717 C 0.39673 0.69038 0.19326 0.0
C718 C 0.41987 0.73318 0.21969 0.0
C719 C 0.39688 0.73517 0.23469 0.0
C720 C 0.37378 0.71447 0.22858 0.0
C721 C 0.37364 0.69259 0.20795 0.0
C722 C 0.37339 0.79867 0.28476 0.0
C723 C 0.39727 0.80318 0.29816 0.0
C724 C 0.37331 0.77692 0.26406 0.0
C725 C 0.39702 0.75865 0.25661 0.0
C726 C 0.42085 0.763 0.2703 0.0
C727 C 0.42102 0.78533 0.29073 0.0
H728 H 0.64073 0.6811 0.28958 0.0
H729 H 0.55824 0.71285 0.30443 0.0
H730 H 0.64017 0.71716 0.25261 0.0
H731 H 0.55783 0.75092 0.26831 0.0
H732 H 0.55545 0.78752 0.19052 0.0
H733 H 0.55611 0.74943 0.22663 0.0
H734 H 0.64096 0.77577 0.23697 0.0
H735 H 0.64029 0.81183 0.20002 0.0
C736 C 0.62264 0.69643 0.28502 0.0
C737 C 0.59954 0.69437 0.29967 0.0
C738 C 0.62228 0.71725 0.26393 0.0
C739 C 0.59895 0.73714 0.25735 0.0
C740 C 0.57597 0.7354 0.2724 0.0
C741 C 0.57618 0.71388 0.29319 0.0
C742 C 0.57416 0.78487 0.20059 0.0
C743 C 0.59783 0.80228 0.19259 0.0
C744 C 0.57458 0.76333 0.22137 0.0
C745 C 0.59858 0.7595 0.23491 0.0
C746 C 0.62223 0.77731 0.22683 0.0
C747 C 0.6219 0.79813 0.20574 0.0
H748 H 0.95072 0.29347 0.2979 0.0
H749 H 0.86327 0.29555 0.29438 0.0
H750 H 0.95213 0.25688 0.26093 0.0
H751 H 0.86463 0.25885 0.25754 0.0
H752 H 0.88237 0.23288 0.17761 0.0
H753 H 0.88183 0.26902 0.21445 0.0
H754 H 0.93686 0.19249 0.24789 0.0
H755 H 0.93689 0.1555 0.21143 0.0
C756 C 0.93185 0.28612 0.28918 0.0
C757 C 0.90689 0.29727 0.29896 0.0
C758 C 0.93264 0.26503 0.26818 0.0
C759 C 0.90849 0.2552 0.25642 0.0
C760 C 0.88354 0.26634 0.26619 0.0
C761 C 0.88275 0.28699 0.28735 0.0
C762 C 0.89418 0.2234 0.1928 0.0
C763 C 0.90958 0.19101 0.1914 0.0
C764 C 0.89389 0.24424 0.21389 0.0
C765 C 0.90925 0.23344 0.23396 0.0
C766 C 0.92504 0.20156 0.23255 0.0
C767 C 0.92509 0.18044 0.21156 0.0
H768 H 0.86133 0.68838 0.7944 0.0
H769 H 0.94544 0.71483 0.80624 0.0
H770 H 0.86185 0.72264 0.75677 0.0
H771 H 0.9459 0.75134 0.76936 0.0
H772 H 0.94594 0.78428 0.69038 0.0
H773 H 0.94593 0.74884 0.7277 0.0
H774 H 0.86237 0.78026 0.74011 0.0
H775 H 0.86229 0.81343 0.70204 0.0
C776 C 0.8798 0.70221 0.78903 0.0
C777 C 0.90332 0.6992 0.80307 0.0
C778 C 0.88015 0.72204 0.76755 0.0
C779 C 0.9039 0.74008 0.75992 0.0
C780 C 0.92737 0.73731 0.77429 0.0
C781 C 0.92714 0.71668 0.7955 0.0
C782 C 0.92766 0.78332 0.7012 0.0
C783 C 0.90407 0.80113 0.69342 0.0
C784 C 0.92763 0.76331 0.72266 0.0
C785 C 0.90411 0.76149 0.73707 0.0
C786 C 0.88066 0.7801 0.72931 0.0
C787 C 0.88057 0.79931 0.70758 0.0
H788 H 0.55661 0.29328 0.7971 0.0
H789 H 0.64409 0.29914 0.79601 0.0
H790 H 0.55752 0.25362 0.76165 0.0
H791 H 0.64505 0.25891 0.76084 0.0
H792 H 0.63081 0.22389 0.68155 0.0
H793 H 0.63081 0.26251 0.71738 0.0
H794 H 0.57309 0.19007 0.75134 0.0
H795 H 0.5734 0.15102 0.71578 0.0
C796 C 0.57601 0.28614 0.78925 0.0
C797 C 0.60028 0.2993 0.79928 0.0
C798 C 0.57654 0.26319 0.76913 0.0
C799 C 0.60136 0.25323 0.75855 0.0
C800 C 0.62563 0.2664 0.76855 0.0
C801 C 0.6251 0.2891 0.78879 0.0
C802 C 0.61837 0.2159 0.69673 0.0
C803 C 0.60202 0.18439 0.69569 0.0
C804 C 0.61835 0.23807 0.71723 0.0
C805 C 0.60187 0.22931 0.73705 0.0
C806 C 0.58567 0.19774 0.73614 0.0
C807 C 0.58582 0.17544 0.71572 0.0
H808 H 0.44678 0.29235 0.69351 0.0
H809 H 0.35921 0.29258 0.69445 0.0
H810 H 0.4472 0.25551 0.73034 0.0
H811 H 0.3596 0.25546 0.73105 0.0
H812 H 0.37433 0.22894 0.81128 0.0
H813 H 0.37442 0.2651 0.77445 0.0
H814 H 0.43279 0.19118 0.74285 0.0
H815 H 0.43228 0.15428 0.77937 0.0
C816 C 0.42767 0.28455 0.70162 0.0
C817 C 0.40297 0.29527 0.69117 0.0
C818 C 0.4279 0.26328 0.72253 0.0
C819 C 0.40343 0.25277 0.73349 0.0
C820 C 0.37874 0.26347 0.72303 0.0
C821 C 0.37851 0.28437 0.702 0.0
C822 C 0.38699 0.22006 0.79646 0.0
C823 C 0.40326 0.18855 0.79839 0.0
C824 C 0.38706 0.24088 0.77538 0.0
C825 C 0.40359 0.23086 0.75587 0.0
C826 C 0.42008 0.19969 0.75778 0.0
C827 C 0.41982 0.17864 0.77877 0.0
H828 H 0.14256 0.69555 0.69225 0.0
H829 H 0.05521 0.7032 0.68964 0.0
H830 H 0.14309 0.73462 0.72799 0.0
H831 H 0.05567 0.74165 0.72565 0.0
H832 H 0.07111 0.8413 0.77442 0.0
H833 H 0.07113 0.80403 0.73804 0.0
H834 H 0.12818 0.72959 0.77097 0.0
H835 H 0.12787 0.76642 0.8076 0.0
C836 C 0.12351 0.70578 0.69922 0.0
C837 C 0.09884 0.6963 0.68816 0.0
C838 C 0.12379 0.72782 0.7198 0.0
C839 C 0.09942 0.74108 0.72962 0.0
C840 C 0.07478 0.73202 0.71838 0.0
C841 C 0.07449 0.70975 0.69791 0.0
C842 C 0.08345 0.8168 0.7741 0.0
C843 C 0.09941 0.80684 0.79408 0.0
C844 C 0.08349 0.79552 0.75318 0.0
C845 C 0.09964 0.76393 0.75169 0.0
C846 C 0.11579 0.75408 0.77151 0.0
C847 C 0.11562 0.77524 0.7925 0.0
H848 H 0.97363 0.05235 0.43387 0.0
H849 H 0.04415 0.98258 0.43686 0.0
H850 H 0.96338 0.03783 0.47609 0.0
H851 H 0.03349 0.96723 0.479 0.0
H852 H 0.97257 0.92131 0.54095 0.0
H853 H 0.98401 0.93555 0.49892 0.0
H854 H 0.99762 0.04845 0.51851 0.0
H855 H 0.98684 0.03386 0.56079 0.0
C856 C 0.98664 0.0335 0.44353 0.0
C857 C 0.00953 0.01825 0.4323 0.0
C858 C 0.98094 0.02551 0.46759 0.0
C859 C 0.99774 0.00158 0.48051 0.0
C860 C 0.02034 0.98577 0.4692 0.0
C861 C 0.0264 0.99445 0.44529 0.0
C862 C 0.97795 0.94912 0.53616 0.0
C863 C 0.9787 0.97669 0.55379 0.0
C864 C 0.98462 0.95715 0.51231 0.0
C865 C 0.99155 0.99299 0.50577 0.0
C866 C 0.99222 0.02064 0.52334 0.0
C867 C 0.98616 0.01239 0.54733 0.0
H868 H 0.46537 0.92248 0.44964 0.0
H869 H 0.50041 0.02534 0.4276 0.0
H870 H 0.47852 0.93447 0.49121 0.0
H871 H 0.51277 0.03843 0.46941 0.0
H872 H 0.55309 0.03736 0.54173 0.0
H873 H 0.54258 0.02066 0.50067 0.0
H874 H 0.46733 0.97179 0.5244 0.0
H875 H 0.47873 0.98603 0.56583 0.0
C876 C 0.47552 0.94798 0.45386 0.0
C877 C 0.48168 0.97326 0.43561 0.0
C878 C 0.48305 0.9549 0.47764 0.0
C879 C 0.4966 0.98749 0.48371 0.0
C880 C 0.50276 0.01276 0.46534 0.0
C881 C 0.49556 0.00552 0.44147 0.0
C882 C 0.53454 0.02243 0.53849 0.0
C883 C 0.51668 0.0134 0.55739 0.0
C884 C 0.52831 0.01333 0.51471 0.0
C885 C 0.50395 0.99532 0.50914 0.0
C886 C 0.48639 0.98545 0.52802 0.0
C887 C 0.49279 0.99411 0.55184 0.0
H888 H 0.45108 0.05725 0.95406 0.0
H889 H 0.50926 0.97537 0.93175 0.0
H890 H 0.46255 0.04598 -0.00404 0.0
H891 H 0.52102 0.96451 0.97391 0.0
H892 H 0.55681 0.98932 0.04847 0.0
H893 H 0.54382 9e-05 0.00666 0.0
H894 H 0.4593 -0.00299 0.02706 0.0
H895 H 0.47223 0.98581 0.06881 0.0
C896 C 0.46596 0.03636 0.95803 0.0
C897 C 0.47921 0.01707 0.93947 0.0
C898 C 0.47262 0.03007 0.98211 0.0
C899 C 0.49276 0.00455 0.98815 0.0
C900 C 0.5057 0.98479 0.9697 0.0
C901 C 0.49895 0.99094 0.9456 0.0
C902 C 0.53546 0.99086 0.04402 0.0
C903 C 0.51557 0.98653 0.06194 0.0
C904 C 0.52804 -0.00308 0.02009 0.0
C905 C 0.50056 -0.00099 0.01362 0.0
C906 C 0.48065 0.99574 0.0316 0.0
C907 C 0.48807 0.98951 0.05554 0.0
H908 H 0.93969 0.01135 0.04312 0.0
H909 H 0.02252 0.98904 0.06407 0.0
H910 H 0.95139 0.00039 0.00135 0.0
H911 H 0.03378 0.97536 0.02237 0.0
H912 H 0.05218 0.99615 0.94273 0.0
H913 H 0.04079 0.00582 0.98517 0.0
H914 H 0.96263 0.95505 0.97325 0.0
H915 H 0.97379 0.94703 0.93085 0.0
C916 C 0.96038 0.00387 0.03888 0.0
C917 C 0.98021 0.00168 0.05703 0.0
C918 C 0.96702 -0.00297 0.01488 0.0
C919 C 0.99359 0.98715 0.0084 0.0
C920 C 0.01323 0.98361 0.02664 0.0
C921 C 0.00665 0.99092 0.05067 0.0
C922 C 0.03256 0.98736 0.94933 0.0
C923 C 0.01371 0.97141 0.93359 0.0
C924 C 0.02608 0.99253 0.97362 0.0
C925 C 0.00075 0.98123 0.98268 0.0
C926 C 0.98207 0.96484 0.96684 0.0
C927 C 0.98841 0.96024 0.94254 0.0
H928 H 0.5484 0.5507 0.4523 0.0
H929 H 0.48205 0.48444 0.42558 0.0
H930 H 0.53604 0.53542 0.4931 0.0
H931 H 0.46857 0.47136 0.46673 0.0
H932 H 0.46797 0.42446 0.5425 0.0
H933 H 0.48147 0.43789 0.50125 0.0
H934 H 0.50277 0.54819 0.52258 0.0
H935 H 0.49007 0.5339 0.56415 0.0
C936 C 0.53119 0.53286 0.45489 0.0
C937 C 0.51626 0.51892 0.43526 0.0
C938 C 0.52383 0.52455 0.47853 0.0
C939 C 0.50117 0.50243 0.48329 0.0
C940 C 0.48633 0.48823 0.46376 0.0
C941 C 0.49388 0.49616 0.44007 0.0
C942 C 0.47532 0.45164 0.53826 0.0
C943 C 0.47779 0.47834 0.55635 0.0
C944 C 0.48303 0.4594 0.51462 0.0
C945 C 0.4931 0.49419 0.50851 0.0
C946 C 0.4955 0.52092 0.5267 0.0
C947 C 0.48813 0.51293 0.55044 0.0
H948 H 0.05174 0.49632 0.54645 0.0
H949 H 0.97186 0.53978 0.55991 0.0
H950 H 0.03955 0.485 0.50441 0.0
H951 H 0.95982 0.53026 0.51779 0.0
H952 H 0.93768 0.47395 0.44774 0.0
H953 H 0.94963 0.48509 0.48941 0.0
H954 H 0.03089 0.51481 0.46757 0.0
H955 H 0.01955 0.50083 0.42602 0.0
C956 C 0.03159 0.50347 0.54027 0.0
C957 C 0.01263 0.51846 0.55632 0.0
C958 C 0.02463 0.49738 0.51621 0.0
C959 C 0.99869 0.50683 0.50762 0.0
C960 C 0.97978 0.52196 0.52382 0.0
C961 C 0.98662 0.52743 0.54795 0.0
C962 C 0.95821 0.48242 0.45176 0.0
C963 C 0.97773 0.4858 0.43339 0.0
C964 C 0.96497 0.48938 0.47573 0.0
C965 C 0.99131 0.50063 0.48196 0.0
C966 C 0.01057 0.50541 0.46352 0.0
C967 C 0.00391 0.49792 0.43954 0.0
H968 H 0.98293 0.50402 0.06871 0.0
H969 H 0.05151 0.44283 0.04146 0.0
H970 H 0.97034 0.52011 0.02774 0.0
H971 H 0.03992 0.46091 0.00071 0.0
H972 H 0.9928 0.4627 0.92978 0.0
H973 H 0.00643 0.44757 0.97095 0.0
H974 H 0.9834 0.55634 0.99411 0.0
H975 H 0.96918 0.57078 0.95319 0.0
C976 C 0.99546 0.4942 0.05405 0.0
C977 C 0.01813 0.47188 0.05852 0.0
C978 C 0.98842 0.50382 0.03054 0.0
C979 C 0.00405 0.49166 0.01091 0.0
C980 C 0.02717 0.47023 0.01539 0.0
C981 C 0.03407 0.46033 0.03889 0.0
C982 C 0.99072 0.48321 0.94377 0.0
C983 C 0.97967 0.51764 0.93846 0.0
C984 C 0.99863 0.47473 0.96728 0.0
C985 C 0.99598 0.50076 0.98586 0.0
C986 C 0.98521 0.53541 0.98037 0.0
C987 C 0.97704 0.54369 0.95694 0.0
H988 H 0.52809 0.42419 0.94676 0.0
H989 H 0.49781 0.52936 0.92384 0.0
H990 H 0.51517 0.43786 0.98816 0.0
H991 H 0.48555 0.54392 0.96549 0.0
H992 H 0.44571 0.54719 0.03836 0.0
H993 H 0.45512 0.52901 -0.00276 0.0
H994 H 0.52872 0.47553 0.02075 0.0
H995 H 0.51837 0.49153 0.0622 0.0
C996 C 0.51896 0.45048 0.95073 0.0
C997 C 0.5142 0.476 0.93228 0.0
C998 C 0.51156 0.45835 0.97442 0.0
C999 C 0.4995 0.4921 0.98021 0.0
C1000 C 0.49445 0.51745 0.96162 0.0
C1001 C 0.50156 0.50932 0.93784 0.0
C1002 C 0.46361 0.5309 0.035 0.0
C1003 C 0.48132 0.52095 0.05381 0.0
C1004 C 0.46923 0.52095 0.01123 0.0
C1005 C 0.49279 0.5011 0.00562 0.0
C1006 C 0.51023 0.49054 0.02442 0.0
C1007 C 0.50447 0.50015 0.04823 0.0
H1008 H 0.1874 0.06033 0.3927 0.0
H1009 H 0.16988 0.95784 0.35725 0.0
H1010 H 0.23559 0.0459 0.39238 0.0
H1011 H 0.21805 0.94232 0.35782 0.0
H1012 H 0.30621 0.94438 0.33621 0.0
H1013 H 0.25837 0.95876 0.33841 0.0
H1014 H 0.27071 0.00964 0.40796 0.0
H1015 H 0.31915 -0.00211 0.40483 0.0
C1016 C 0.19388 0.03426 0.38537 0.0
C1017 C 0.17499 0.01013 0.37504 0.0
C1018 C 0.22152 0.02591 0.3852 0.0
C1019 C 0.23087 0.993 0.37495 0.0
C1020 C 0.21173 0.9683 0.36537 0.0
C1021 C 0.18411 0.97695 0.36521 0.0
C1022 C 0.29895 0.95942 0.35175 0.0
C1023 C 0.31677 0.97026 0.37023 0.0
C1024 C 0.27126 0.96699 0.35325 0.0
C1025 C 0.26047 0.98508 0.37347 0.0
C1026 C 0.27826 0.99597 0.39198 0.0
C1027 C 0.30607 0.98884 0.39032 0.0
H1028 H 0.8263 0.97193 0.10652 0.0
H1029 H 0.80573 0.07269 0.1429 0.0
H1030 H 0.77813 0.95463 0.10593 0.0
H1031 H 0.75764 0.05581 0.14183 0.0
H1032 H 0.67303 0.02489 0.10793 0.0
H1033 H 0.72114 0.04244 0.1064 0.0
H1034 H 0.74273 0.94162 0.14218 0.0
H1035 H 0.69473 0.92452 0.14419 0.0
C1036 C 0.81142 0.99037 0.11423 0.0
C1037 C 0.81956 0.02345 0.1249 0.0
C1038 C 0.78401 0.9805 0.11394 0.0
C1039 C 0.76434 0.004 0.1238 0.0
C1040 C 0.77246 0.0374 0.13401 0.0
C1041 C 0.79988 0.04689 0.13476 0.0
C1042 C 0.68814 0.00662 0.11544 0.0
C1043 C 0.68035 0.97357 0.12633 0.0
C1044 C 0.71551 0.01662 0.11461 0.0
C1045 C 0.73547 0.99327 0.12414 0.0
C1046 C 0.72768 0.95992 0.1346 0.0
C1047 C 0.70031 0.95031 0.1359 0.0
H1048 H 0.68697 0.03244 0.65987 0.0
H1049 H 0.67647 0.9899 0.58762 0.0
H1050 H 0.73431 0.0141 0.65908 0.0
H1051 H 0.72453 0.97324 0.58662 0.0
H1052 H 0.81964 0.99455 0.59001 0.0
H1053 H 0.77134 0.00976 0.58921 0.0
H1054 H 0.75966 0.95128 0.65596 0.0
H1055 H 0.80738 0.93449 0.65638 0.0
C1056 C 0.69454 0.01874 0.64392 0.0
C1057 C 0.67761 0.01226 0.62391 0.0
C1058 C 0.72179 0.00857 0.64344 0.0
C1059 C 0.73297 0.99229 0.62281 0.0
C1060 C 0.71635 0.98605 0.60267 0.0
C1061 C 0.68887 0.99567 0.60327 0.0
C1062 C 0.80676 0.98451 0.60438 0.0
C1063 C 0.81761 0.96357 0.62339 0.0
C1064 C 0.77914 0.99329 0.60389 0.0
C1065 C 0.76193 0.98177 0.62257 0.0
C1066 C 0.77263 0.96084 0.6415 0.0
C1067 C 0.80007 0.95156 0.64181 0.0
H1068 H 0.31905 -0.00264 0.90384 0.0
H1069 H 0.31018 0.04584 0.8331 0.0
H1070 H 0.27069 0.98226 0.90389 0.0
H1071 H 0.26246 0.02923 0.83291 0.0
H1072 H 0.18881 0.95033 0.83183 0.0
H1073 H 0.2364 0.96747 0.83313 0.0
H1074 H 0.22429 0.01864 0.90242 0.0
H1075 H 0.17607 0.00301 0.90082 0.0
C1076 C 0.30691 0.00484 0.88834 0.0
C1077 C 0.31872 0.0225 0.86836 0.0
C1078 C 0.27926 0.99614 0.88839 0.0
C1079 C 0.26298 0.00447 0.86836 0.0
C1080 C 0.27468 0.02208 0.84844 0.0
C1081 C 0.30214 0.03127 0.84852 0.0
C1082 C 0.19597 0.96597 0.84715 0.0
C1083 C 0.17834 0.97567 0.86609 0.0
C1084 C 0.22335 0.97547 0.84795 0.0
C1085 C 0.23393 0.99435 0.86786 0.0
C1086 C 0.2166 0.00377 0.88696 0.0
C1087 C 0.18902 0.99475 0.88602 0.0
H1088 H 0.82517 0.51931 0.38193 0.0
H1089 H 0.80314 0.41745 0.34763 0.0
H1090 H 0.7772 0.53758 0.38264 0.0
H1091 H 0.75521 0.43528 0.34889 0.0
H1092 H 0.67185 0.47014 0.38508 0.0
H1093 H 0.71977 0.45142 0.38555 0.0
H1094 H 0.74114 0.54893 0.3459 0.0
H1095 H 0.69331 0.5671 0.3449 0.0
C1096 C 0.81001 0.50087 0.37469 0.0
C1097 C 0.81766 0.46717 0.3646 0.0
C1098 C 0.78272 0.51127 0.37505 0.0
C1099 C 0.76271 0.48771 0.36586 0.0
C1100 C 0.77034 0.45374 0.35618 0.0
C1101 C 0.79764 0.44371 0.35533 0.0
C1102 C 0.68687 0.48737 0.37643 0.0
C1103 C 0.67908 0.51981 0.36479 0.0
C1104 C 0.71412 0.47672 0.37667 0.0
C1105 C 0.73395 0.49888 0.36581 0.0
C1106 C 0.72616 0.53157 0.35448 0.0
C1107 C 0.6989 0.54178 0.35378 0.0
H1108 H 0.322 0.49404 0.0871 0.0
H1109 H 0.31315 0.54015 0.15853 0.0
H1110 H 0.2737 0.47862 0.08692 0.0
H1111 H 0.26545 0.52361 0.15852 0.0
H1112 H 0.19056 0.44846 0.15915 0.0
H1113 H 0.23836 0.46451 0.15817 0.0
H1114 H 0.22789 0.5133 0.08793 0.0
H1115 H 0.17952 0.49835 0.0891 0.0
C1116 C 0.30987 0.50084 0.10275 0.0
C1117 C 0.32164 0.51802 0.12292 0.0
C1118 C 0.28224 0.49202 0.10261 0.0
C1119 C 0.26593 0.49984 0.12274 0.0
C1120 C 0.27766 0.5168 0.1429 0.0
C1121 C 0.3051 0.52598 0.14295 0.0
C1122 C 0.19817 0.46333 0.14367 0.0
C1123 C 0.18098 0.47256 0.12434 0.0
C1124 C 0.22566 0.47222 0.14306 0.0
C1125 C 0.23677 0.49015 0.123 0.0
C1126 C 0.21982 0.49914 0.10352 0.0
C1127 C 0.19216 0.49059 0.10423 0.0
H1128 H 0.30154 0.41535 0.64436 0.0
H1129 H 0.32221 0.51618 0.60819 0.0
H1130 H 0.25352 0.43276 0.64389 0.0
H1131 H 0.27415 0.53403 0.60822 0.0
H1132 H 0.19116 0.56525 0.64606 0.0
H1133 H 0.23897 0.54707 0.64478 0.0
H1134 H 0.21687 0.4468 0.60853 0.0
H1135 H 0.16896 0.46542 0.60933 0.0
C1136 C 0.29573 0.44129 0.63641 0.0
C1137 C 0.31542 0.46457 0.6264 0.0
C1138 C 0.26836 0.45109 0.63601 0.0
C1139 C 0.2603 0.48468 0.62604 0.0
C1140 C 0.27998 0.50804 0.61608 0.0
C1141 C 0.30733 0.49785 0.616 0.0
C1142 C 0.19656 0.53926 0.63793 0.0
C1143 C 0.17651 0.51655 0.62792 0.0
C1144 C 0.22383 0.52905 0.63703 0.0
C1145 C 0.23145 0.49564 0.62653 0.0
C1146 C 0.21139 0.47267 0.61677 0.0
C1147 C 0.18412 0.48327 0.6172 0.0
H1148 H 0.69348 0.42759 0.84519 0.0
H1149 H 0.67124 0.52629 0.8832 0.0
H1150 H 0.74129 0.44562 0.84683 0.0
H1151 H 0.71917 0.54477 0.88438 0.0
H1152 H 0.80339 0.57807 0.84893 0.0
H1153 H 0.75546 0.56026 0.84938 0.0
H1154 H 0.77682 0.45753 0.88283 0.0
H1155 H 0.8248 0.47572 0.88285 0.0
C1156 C 0.69888 0.45325 0.85375 0.0
C1157 C 0.67881 0.47574 0.86395 0.0
C1158 C 0.72616 0.46339 0.85483 0.0
C1159 C 0.73377 0.49651 0.86573 0.0
C1160 C 0.7137 0.51915 0.87582 0.0
C1161 C 0.68642 0.50861 0.8752 0.0
C1162 C 0.79778 0.55168 0.85634 0.0
C1163 C 0.81765 0.5281 0.86573 0.0
C1164 C 0.77044 0.54166 0.85676 0.0
C1165 C 0.7626 0.5076 0.86615 0.0
C1166 C 0.78247 0.48391 0.87544 0.0
C1167 C 0.80978 0.49428 0.87549 0.0
H1168 H 0.00551 0.14134 0.41333 0.0
H1169 H 0.06703 0.2022 0.37548 0.0
H1170 H 0.9839 0.19876 0.42592 0.0
H1171 H 0.04523 0.25929 0.38668 0.0
H1172 H 0.00645 0.36011 0.40339 0.0
H1173 H 0.03136 0.30435 0.41318 0.0
H1174 H 0.95712 0.24196 0.40609 0.0
H1175 H 0.93227 0.29825 0.39821 0.0
C1176 C 0.01466 0.1672 0.40825 0.0
C1177 C 0.03786 0.16787 0.39368 0.0
C1178 C 0.00225 0.20003 0.41521 0.0
C1179 C 0.01259 0.23391 0.40723 0.0
C1180 C 0.03682 0.23408 0.39369 0.0
C1181 C 0.04932 0.20137 0.38706 0.0
C1182 C 0.99543 0.33457 0.40509 0.0
C1183 C 0.96762 0.33313 0.40006 0.0
C1184 C 0.00967 0.30253 0.41035 0.0
C1185 C 0.99652 0.26831 0.40962 0.0
C1186 C 0.96807 0.26761 0.40694 0.0
C1187 C 0.95371 0.29989 0.40239 0.0
H1188 H 0.42997 0.79103 0.39054 0.0
H1189 H 0.49911 0.8576 0.40872 0.0
H1190 H 0.45492 0.73623 0.4015 0.0
H1191 H 0.52386 0.80312 0.42174 0.0
H1192 H 0.57038 0.70269 0.39135 0.0
H1193 H 0.54595 0.75853 0.4007 0.0
H1194 H 0.47717 0.69418 0.42458 0.0
H1195 H 0.50137 0.63845 0.41315 0.0
C1196 C 0.45017 0.79385 0.39803 0.0
C1197 C 0.46282 0.82808 0.39875 0.0
C1198 C 0.46459 0.76243 0.40449 0.0
C1199 C 0.49183 0.76483 0.41218 0.0
C1200 C 0.50332 0.79989 0.4152 0.0
C1201 C 0.48911 0.83118 0.40806 0.0
C1202 C 0.55043 0.70067 0.39946 0.0
C1203 C 0.53763 0.66666 0.40158 0.0
C1204 C 0.53627 0.73273 0.40492 0.0
C1205 C 0.50912 0.73124 0.41294 0.0
C1206 C 0.49763 0.69663 0.41768 0.0
C1207 C 0.51157 0.66463 0.41154 0.0
H1208 H 0.56602 0.80121 0.09481 0.0
H1209 H 0.49341 0.86609 0.08846 0.0
H1210 H 0.54053 0.74638 0.08468 0.0
H1211 H 0.4679 0.81189 0.07628 0.0
H1212 H 0.49246 0.64775 0.07488 0.0
H1213 H 0.5147 0.70506 0.06338 0.0
H1214 H 0.45091 0.76553 0.0995 0.0
H1215 H 0.42833 0.70846 0.10926 0.0
C1216 C 0.54482 0.80385 0.08994 0.0
C1217 C 0.53151 0.83747 0.0925 0.0
C1218 C 0.53006 0.77241 0.08406 0.0
C1219 C 0.5018 0.77429 0.08021 0.0
C1220 C 0.48936 0.80903 0.07996 0.0
C1221 C 0.50397 0.84021 0.08658 0.0
C1222 C 0.48283 0.67356 0.07932 0.0
C1223 C 0.45873 0.67415 0.09267 0.0
C1224 C 0.49567 0.70639 0.07307 0.0
C1225 C 0.48502 0.74024 0.08083 0.0
C1226 C 0.45973 0.7404 0.09276 0.0
C1227 C 0.4467 0.70765 0.09851 0.0
H1228 H 0.00989 0.12667 0.08695 0.0
H1229 H 0.93631 0.18982 0.09214 0.0
H1230 H 0.03526 0.18188 0.07676 0.0
H1231 H 0.96161 0.24558 0.08403 0.0
H1232 H 0.00975 0.34555 0.07752 0.0
H1233 H 0.98806 0.28848 0.0646 0.0
H1234 H 0.05051 0.22714 0.10188 0.0
H1235 H 0.07255 0.28398 0.11313 0.0
C1236 C 0.9991 0.1524 0.08522 0.0
C1237 C 0.97132 0.15433 0.0903 0.0
C1238 C 0.01362 0.18415 0.07975 0.0
C1239 C 0.0008 0.21862 0.08037 0.0
C1240 C 0.97237 0.21978 0.08322 0.0
C1241 C 0.95773 0.18779 0.08792 0.0
C1242 C 0.01918 0.31962 0.08201 0.0
C1243 C 0.04276 0.31868 0.09606 0.0
C1244 C 0.00668 0.28693 0.07491 0.0
C1245 C 0.01718 0.25288 0.0824 0.0
C1246 C 0.04188 0.25245 0.09526 0.0
C1247 C 0.05456 0.28506 0.10191 0.0
H1248 H 0.0042 0.85682 0.5822 0.0
H1249 H 0.93256 0.7917 0.59381 0.0
H1250 H 0.02874 0.80261 0.56853 0.0
H1251 H 0.95723 0.73689 0.58247 0.0
H1252 H 0.00299 0.63813 0.57267 0.0
H1253 H 0.98052 0.69488 0.5607 0.0
H1254 H 0.04876 0.75635 0.58882 0.0
H1255 H 0.07159 0.69961 0.59855 0.0
C1256 C 0.99366 0.8308 0.58133 0.0
C1257 C 0.9667 0.82802 0.58904 0.0
C1258 C 0.00773 0.7996 0.57383 0.0
C1259 C 0.99545 0.76477 0.57504 0.0
C1260 C 0.96762 0.76288 0.58096 0.0
C1261 C 0.95334 0.79432 0.58764 0.0
C1262 C 0.01354 0.66393 0.57505 0.0
C1263 C 0.03894 0.66489 0.5863 0.0
C1264 C 0.00054 0.69654 0.56863 0.0
C1265 C 0.01225 0.73067 0.57444 0.0
C1266 C 0.0389 0.73104 0.58374 0.0
C1267 C 0.05216 0.69841 0.58942 0.0
H1268 H 0.50289 0.35761 0.58449 0.0
H1269 H 0.43023 0.29393 0.59449 0.0
H1270 H 0.52802 0.30222 0.57417 0.0
H1271 H 0.45537 0.23811 0.58628 0.0
H1272 H 0.56864 0.20157 0.60943 0.0
H1273 H 0.54559 0.25784 0.59853 0.0
H1274 H 0.48049 0.19463 0.56653 0.0
H1275 H 0.50321 0.1383 0.57928 0.0
C1276 C 0.49221 0.33169 0.58379 0.0
C1277 C 0.46477 0.32971 0.59019 0.0
C1278 C 0.50662 0.29983 0.57827 0.0
C1279 C 0.49411 0.26525 0.58014 0.0
C1280 C 0.4659 0.26395 0.58443 0.0
C1281 C 0.45134 0.29599 0.58919 0.0
C1282 C 0.5498 0.19994 0.59941 0.0
C1283 C 0.53761 0.16603 0.59507 0.0
C1284 C 0.5365 0.23222 0.59297 0.0
C1285 C 0.5108 0.23117 0.58178 0.0
C1286 C 0.49985 0.19673 0.57562 0.0
C1287 C 0.51294 0.16443 0.5826 0.0
H1288 H 0.50269 0.13724 0.9095 0.0
H1289 H 0.43111 0.19994 0.89295 0.0
H1290 H 0.52656 0.19319 0.92088 0.0
H1291 H 0.45516 0.25622 0.90207 0.0
H1292 H 0.50041 0.35669 0.91065 0.0
H1293 H 0.47733 0.30052 0.92292 0.0
H1294 H 0.54694 0.23774 0.89903 0.0
H1295 H 0.57028 0.29408 0.88893 0.0
C1296 C 0.49197 0.16313 0.90886 0.0
C1297 C 0.4652 0.16465 0.9005 0.0
C1298 C 0.50569 0.19531 0.91501 0.0
C1299 C 0.49325 0.22974 0.91179 0.0
C1300 C 0.46561 0.2306 0.90513 0.0
C1301 C 0.45168 0.19829 0.89977 0.0
C1302 C 0.511 0.33078 0.90914 0.0
C1303 C 0.53702 0.32933 0.89907 0.0
C1304 C 0.4977 0.29849 0.91577 0.0
C1305 C 0.50978 0.2641 0.91143 0.0
C1306 C 0.53681 0.26331 0.90304 0.0
C1307 C 0.55034 0.29567 0.89712 0.0
H1308 H 0.92767 0.70277 0.89773 0.0
H1309 H 0.99861 0.64057 0.91704 0.0
H1310 H 0.95194 0.75931 0.90523 0.0
H1311 H 0.02271 0.69705 0.92677 0.0
H1312 H 0.0673 0.79224 0.88863 0.0
H1313 H 0.0432 0.73792 0.90182 0.0
H1314 H 0.97511 0.80545 0.92347 0.0
H1315 H 0.99893 0.85936 0.90821 0.0
C1316 C 0.94805 0.70134 0.90502 0.0
C1317 C 0.96142 0.66767 0.90678 0.0
C1318 C 0.96215 0.73385 0.90937 0.0
C1319 C 0.98979 0.73313 0.91598 0.0
C1320 C 0.00186 0.69891 0.92079 0.0
C1321 C 0.98798 0.66646 0.91568 0.0
C1322 C 0.04747 0.79532 0.89683 0.0
C1323 C 0.03477 0.82951 0.89737 0.0
C1324 C 0.03356 0.7642 0.90461 0.0
C1325 C 0.00677 0.76684 0.91348 0.0
C1326 C 0.99527 0.80197 0.91611 0.0
C1327 C 0.00896 0.83295 0.90765 0.0
loop_
_geom_bond_atom_site_label_1
_geom_bond_atom_site_label_2
_geom_bond_distance
_geom_bond_site_symmetry_2
_ccdc_geom_bond_type
Co0 N4 2.148 . S
Co0 N10 2.128 . S
Co0 N20 2.194 . S
Co0 O25 2.351 . S
Co0 O26 2.155 . S
Co0 O27 2.096 . S
C1 N4 1.301 . S
C1 N5 1.328 . S
C1 H6 0.930 . S
C2 C3 1.333 . S
C2 N4 1.317 . S
C2 H7 0.930 . S
C3 C2 1.333 . S
C3 N5 1.350 . S
C3 H29 0.931 . S
N4 Co0 2.148 . S
N4 C1 1.301 . S
N4 C2 1.317 . S
N5 C1 1.328 . S
N5 C3 1.350 . S
H6 C1 0.930 . S
H7 C2 0.930 . S
C8 O9 1.224 . S
C8 O27 1.247 . S
O9 C8 1.224 . S
N10 Co0 2.128 . S
N10 C11 1.355 . S
N10 C13 1.311 . S
C11 N10 1.355 . S
C11 C12 1.363 . S
C11 H23 0.929 . S
C12 C11 1.363 . S
C12 N14 1.375 . S
C12 H30 0.931 . S
C13 N10 1.311 . S
C13 N14 1.347 . S
C13 H24 0.929 . S
N14 C12 1.375 . S
N14 C13 1.347 . S
C15 C18 1.365 . S
C15 N20 1.328 . S
C15 H21 0.929 . S
C16 C17 1.362 . S
C16 C19 1.378 . S
C16 H31 0.929 . S
C17 C16 1.362 . S
C17 C18 1.366 . S
C18 C15 1.365 . S
C18 C17 1.366 . S
C18 H32 0.930 . S
C19 C16 1.378 . S
C19 N20 1.315 . S
C19 H22 0.930 . S
N20 Co0 2.194 . S
N20 C15 1.328 . S
N20 C19 1.315 . S
H21 C15 0.929 . S
H22 C19 0.930 . S
H23 C11 0.929 . S
H24 C13 0.929 . S
O25 Co0 2.351 . S
O25 C28 1.244 . S
O26 Co0 2.155 . S
O26 C28 1.240 . S
O27 Co0 2.096 . S
O27 C8 1.247 . S
C28 O25 1.244 . S
C28 O26 1.240 . S
H29 C3 0.931 . S
H30 C12 0.931 . S
H31 C16 0.929 . S
H32 C18 0.930 . S
Co33 N37 2.148 . S
Co33 N43 2.128 . S
Co33 N53 2.194 . S
Co33 O58 2.351 . S
Co33 O59 2.155 . S
Co33 O60 2.096 . S
C34 N37 1.301 . S
C34 N38 1.328 . S
C34 H39 0.930 . S
C35 C36 1.333 . S
C35 N37 1.317 . S
C35 H40 0.930 . S
C36 C35 1.333 . S
C36 N38 1.350 . S
C36 H62 0.931 . S
N37 Co33 2.148 . S
N37 C34 1.301 . S
N37 C35 1.317 . S
N38 C34 1.328 . S
N38 C36 1.350 . S
H39 C34 0.930 . S
H40 C35 0.930 . S
C41 O42 1.224 . S
C41 O60 1.247 . S
O42 C41 1.224 . S
N43 Co33 2.128 . S
N43 C44 1.355 . S
N43 C46 1.311 . S
C44 N43 1.355 . S
C44 C45 1.363 . S
C44 H56 0.929 . S
C45 C44 1.363 . S
C45 N47 1.375 . S
C45 H63 0.931 . S
C46 N43 1.311 . S
C46 N47 1.347 . S
C46 H57 0.929 . S
N47 C45 1.375 . S
N47 C46 1.347 . S
C48 C51 1.365 . S
C48 N53 1.328 . S
C48 H54 0.929 . S
C49 C50 1.362 . S
C49 C52 1.378 . S
C49 H64 0.929 . S
C50 C49 1.362 . S
C50 C51 1.366 . S
C51 C48 1.365 . S
C51 C50 1.366 . S
C51 H65 0.930 . S
C52 C49 1.378 . S
C52 N53 1.315 . S
C52 H55 0.930 . S
N53 Co33 2.194 . S
N53 C48 1.328 . S
N53 C52 1.315 . S
H54 C48 0.929 . S
H55 C52 0.930 . S
H56 C44 0.929 . S
H57 C46 0.929 . S
O58 Co33 2.351 . S
O58 C61 1.244 . S
O59 Co33 2.155 . S
O59 C61 1.240 . S
O60 Co33 2.096 . S
O60 C41 1.247 . S
C61 O58 1.244 . S
C61 O59 1.240 . S
H62 C36 0.931 . S
H63 C45 0.931 . S
H64 C49 0.929 . S
H65 C51 0.930 . S
Co66 N70 2.148 . S
Co66 N76 2.128 . S
Co66 N86 2.194 . S
Co66 O91 2.351 . S
Co66 O92 2.155 . S
Co66 O93 2.096 . S
C67 N70 1.301 . S
C67 N71 1.328 . S
C67 H72 0.930 . S
C68 C69 1.333 . S
C68 N70 1.317 . S
C68 H73 0.930 . S
C69 C68 1.333 . S
C69 N71 1.350 . S
C69 H95 0.931 . S
N70 Co66 2.148 . S
N70 C67 1.301 . S
N70 C68 1.317 . S
N71 C67 1.328 . S
N71 C69 1.350 . S
H72 C67 0.930 . S
H73 C68 0.930 . S
C74 O75 1.224 . S
C74 O93 1.247 . S
O75 C74 1.224 . S
N76 Co66 2.128 . S
N76 C77 1.355 . S
N76 C79 1.311 . S
C77 N76 1.355 . S
C77 C78 1.363 . S
C77 H89 0.929 . S
C78 C77 1.363 . S
C78 N80 1.375 . S
C78 H96 0.931 . S
C79 N76 1.311 . S
C79 N80 1.347 . S
C79 H90 0.929 . S
N80 C78 1.375 . S
N80 C79 1.347 . S
C81 C84 1.365 . S
C81 N86 1.328 . S
C81 H87 0.929 . S
C82 C83 1.362 . S
C82 C85 1.378 . S
C82 H97 0.929 . S
C83 C82 1.362 . S
C83 C84 1.366 . S
C84 C81 1.365 . S
C84 C83 1.366 . S
C84 H98 0.930 . S
C85 C82 1.378 . S
C85 N86 1.315 . S
C85 H88 0.930 . S
N86 Co66 2.194 . S
N86 C81 1.328 . S
N86 C85 1.315 . S
H87 C81 0.929 . S
H88 C85 0.930 . S
H89 C77 0.929 . S
H90 C79 0.929 . S
O91 Co66 2.351 . S
O91 C94 1.244 . S
O92 Co66 2.155 . S
O92 C94 1.240 . S
O93 Co66 2.096 . S
O93 C74 1.247 . S
C94 O91 1.244 . S
C94 O92 1.240 . S
H95 C69 0.931 . S
H96 C78 0.931 . S
H97 C82 0.929 . S
H98 C84 0.930 . S
Co99 N103 2.148 . S
Co99 N109 2.128 . S
Co99 N119 2.194 . S
Co99 O124 2.351 . S
Co99 O125 2.155 . S
Co99 O126 2.096 . S
C100 N103 1.301 . S
C100 N104 1.328 . S
C100 H105 0.930 . S
C101 C102 1.333 . S
C101 N103 1.317 . S
C101 H106 0.930 . S
C102 C101 1.333 . S
C102 N104 1.350 . S
C102 H128 0.931 . S
N103 Co99 2.148 . S
N103 C100 1.301 . S
N103 C101 1.317 . S
N104 C100 1.328 . S
N104 C102 1.350 . S
H105 C100 0.930 . S
H106 C101 0.930 . S
C107 O108 1.224 . S
C107 O126 1.247 . S
O108 C107 1.224 . S
N109 Co99 2.128 . S
N109 C110 1.355 . S
N109 C112 1.311 . S
C110 N109 1.355 . S
C110 C111 1.363 . S
C110 H122 0.929 . S
C111 C110 1.363 . S
C111 N113 1.375 . S
C111 H129 0.931 . S
C112 N109 1.311 . S
C112 N113 1.347 . S
C112 H123 0.929 . S
N113 C111 1.375 . S
N113 C112 1.347 . S
C114 C117 1.365 . S
C114 N119 1.328 . S
C114 H120 0.929 . S
C115 C116 1.362 . S
C115 C118 1.378 . S
C115 H130 0.929 . S
C116 C115 1.362 . S
C116 C117 1.366 . S
C117 C114 1.365 . S
C117 C116 1.366 . S
C117 H131 0.930 . S
C118 C115 1.378 . S
C118 N119 1.315 . S
C118 H121 0.930 . S
N119 Co99 2.194 . S
N119 C114 1.328 . S
N119 C118 1.315 . S
H120 C114 0.929 . S
H121 C118 0.930 . S
H122 C110 0.929 . S
H123 C112 0.929 . S
O124 Co99 2.351 . S
O124 C127 1.244 . S
O125 Co99 2.155 . S
O125 C127 1.240 . S
O126 Co99 2.096 . S
O126 C107 1.247 . S
C127 O124 1.244 . S
C127 O125 1.240 . S
H128 C102 0.931 . S
H129 C111 0.931 . S
H130 C115 0.929 . S
H131 C117 0.930 . S
Co132 N136 2.148 . S
Co132 N142 2.128 . S
Co132 N152 2.194 . S
Co132 O157 2.351 . S
Co132 O158 2.155 . S
Co132 O159 2.096 . S
C133 N136 1.301 . S
C133 N137 1.328 . S
C133 H138 0.930 . S
C134 C135 1.333 . S
C134 N136 1.317 . S
C134 H139 0.930 . S
C135 C134 1.333 . S
C135 N137 1.350 . S
C135 H161 0.931 . S
N136 Co132 2.148 . S
N136 C133 1.301 . S
N136 C134 1.317 . S
N137 C133 1.328 . S
N137 C135 1.350 . S
H138 C133 0.930 . S
H139 C134 0.930 . S
C140 O141 1.224 . S
C140 O159 1.247 . S
O141 C140 1.224 . S
N142 Co132 2.128 . S
N142 C143 1.355 . S
N142 C145 1.311 . S
C143 N142 1.355 . S
C143 C144 1.363 . S
C143 H155 0.929 . S
C144 C143 1.363 . S
C144 N146 1.375 . S
C144 H162 0.931 . S
C145 N142 1.311 . S
C145 N146 1.347 . S
C145 H156 0.929 . S
N146 C144 1.375 . S
N146 C145 1.347 . S
C147 C150 1.365 . S
C147 N152 1.328 . S
C147 H153 0.929 . S
C148 C149 1.362 . S
C148 C151 1.378 . S
C148 H163 0.929 . S
C149 C148 1.362 . S
C149 C150 1.366 . S
C150 C147 1.365 . S
C150 C149 1.366 . S
C150 H164 0.930 . S
C151 C148 1.378 . S
C151 N152 1.315 . S
C151 H154 0.930 . S
N152 Co132 2.194 . S
N152 C147 1.328 . S
N152 C151 1.315 . S
H153 C147 0.929 . S
H154 C151 0.930 . S
H155 C143 0.929 . S
H156 C145 0.929 . S
O157 Co132 2.351 . S
O157 C160 1.244 . S
O158 Co132 2.155 . S
O158 C160 1.240 . S
O159 Co132 2.096 . S
O159 C140 1.247 . S
C160 O157 1.244 . S
C160 O158 1.240 . S
H161 C135 0.931 . S
H162 C144 0.931 . S
H163 C148 0.929 . S
H164 C150 0.930 . S
Co165 N169 2.148 . S
Co165 N175 2.128 . S
Co165 N185 2.194 . S
Co165 O190 2.351 . S
Co165 O191 2.155 . S
Co165 O192 2.096 . S
C166 N169 1.301 . S
C166 N170 1.328 . S
C166 H171 0.930 . S
C167 C168 1.333 . S
C167 N169 1.317 . S
C167 H172 0.930 . S
C168 C167 1.333 . S
C168 N170 1.350 . S
C168 H194 0.931 . S
N169 Co165 2.148 . S
N169 C166 1.301 . S
N169 C167 1.317 . S
N170 C166 1.328 . S
N170 C168 1.350 . S
H171 C166 0.930 . S
H172 C167 0.930 . S
C173 O174 1.224 . S
C173 O192 1.247 . S
O174 C173 1.224 . S
N175 Co165 2.128 . S
N175 C176 1.355 . S
N175 C178 1.311 . S
C176 N175 1.355 . S
C176 C177 1.363 . S
C176 H188 0.929 . S
C177 C176 1.363 . S
C177 N179 1.375 . S
C177 H195 0.931 . S
C178 N175 1.311 . S
C178 N179 1.347 . S
C178 H189 0.929 . S
N179 C177 1.375 . S
N179 C178 1.347 . S
C180 C183 1.365 . S
C180 N185 1.328 . S
C180 H186 0.929 . S
C181 C182 1.362 . S
C181 C184 1.378 . S
C181 H196 0.929 . S
C182 C181 1.362 . S
C182 C183 1.366 . S
C183 C180 1.365 . S
C183 C182 1.366 . S
C183 H197 0.930 . S
C184 C181 1.378 . S
C184 N185 1.315 . S
C184 H187 0.930 . S
N185 Co165 2.194 . S
N185 C180 1.328 . S
N185 C184 1.315 . S
H186 C180 0.929 . S
H187 C184 0.930 . S
H188 C176 0.929 . S
H189 C178 0.929 . S
O190 Co165 2.351 . S
O190 C193 1.244 . S
O191 Co165 2.155 . S
O191 C193 1.240 . S
O192 Co165 2.096 . S
O192 C173 1.247 . S
C193 O190 1.244 . S
C193 O191 1.240 . S
H194 C168 0.931 . S
H195 C177 0.931 . S
H196 C181 0.929 . S
H197 C183 0.930 . S
Co198 N202 2.148 . S
Co198 N208 2.128 . S
Co198 N218 2.194 . S
Co198 O223 2.351 . S
Co198 O224 2.155 . S
Co198 O225 2.096 . S
C199 N202 1.301 . S
C199 N203 1.328 . S
C199 H204 0.930 . S
C200 C201 1.333 . S
C200 N202 1.317 . S
C200 H205 0.930 . S
C201 C200 1.333 . S
C201 N203 1.350 . S
C201 H227 0.931 . S
N202 Co198 2.148 . S
N202 C199 1.301 . S
N202 C200 1.317 . S
N203 C199 1.328 . S
N203 C201 1.350 . S
H204 C199 0.930 . S
H205 C200 0.930 . S
C206 O207 1.224 . S
C206 O225 1.247 . S
O207 C206 1.224 . S
N208 Co198 2.128 . S
N208 C209 1.355 . S
N208 C211 1.311 . S
C209 N208 1.355 . S
C209 C210 1.363 . S
C209 H221 0.929 . S
C210 C209 1.363 . S
C210 N212 1.375 . S
C210 H228 0.931 . S
C211 N208 1.311 . S
C211 N212 1.347 . S
C211 H222 0.929 . S
N212 C210 1.375 . S
N212 C211 1.347 . S
C213 C216 1.365 . S
C213 N218 1.328 . S
C213 H219 0.929 . S
C214 C215 1.362 . S
C214 C217 1.378 . S
C214 H229 0.929 . S
C215 C214 1.362 . S
C215 C216 1.366 . S
C216 C213 1.365 . S
C216 C215 1.366 . S
C216 H230 0.930 . S
C217 C214 1.378 . S
C217 N218 1.315 . S
C217 H220 0.930 . S
N218 Co198 2.194 . S
N218 C213 1.328 . S
N218 C217 1.315 . S
H219 C213 0.929 . S
H220 C217 0.930 . S
H221 C209 0.929 . S
H222 C211 0.929 . S
O223 Co198 2.351 . S
O223 C226 1.244 . S
O224 Co198 2.155 . S
O224 C226 1.240 . S
O225 Co198 2.096 . S
O225 C206 1.247 . S
C226 O223 1.244 . S
C226 O224 1.240 . S
H227 C201 0.931 . S
H228 C210 0.931 . S
H229 C214 0.929 . S
H230 C216 0.930 . S
Co231 N235 2.148 . S
Co231 N241 2.128 . S
Co231 N251 2.194 . S
Co231 O256 2.351 . S
Co231 O257 2.155 . S
Co231 O258 2.096 . S
C232 N235 1.301 . S
C232 N236 1.328 . S
C232 H237 0.930 . S
C233 C234 1.333 . S
C233 N235 1.317 . S
C233 H238 0.930 . S
C234 C233 1.333 . S
C234 N236 1.350 . S
C234 H260 0.931 . S
N235 Co231 2.148 . S
N235 C232 1.301 . S
N235 C233 1.317 . S
N236 C232 1.328 . S
N236 C234 1.350 . S
H237 C232 0.930 . S
H238 C233 0.930 . S
C239 O240 1.224 . S
C239 O258 1.247 . S
O240 C239 1.224 . S
N241 Co231 2.128 . S
N241 C242 1.355 . S
N241 C244 1.311 . S
C242 N241 1.355 . S
C242 C243 1.363 . S
C242 H254 0.929 . S
C243 C242 1.363 . S
C243 N245 1.375 . S
C243 H261 0.931 . S
C244 N241 1.311 . S
C244 N245 1.347 . S
C244 H255 0.929 . S
N245 C243 1.375 . S
N245 C244 1.347 . S
C246 C249 1.365 . S
C246 N251 1.328 . S
C246 H252 0.929 . S
C247 C248 1.362 . S
C247 C250 1.378 . S
C247 H262 0.929 . S
C248 C247 1.362 . S
C248 C249 1.366 . S
C249 C246 1.365 . S
C249 C248 1.366 . S
C249 H263 0.930 . S
C250 C247 1.378 . S
C250 N251 1.315 . S
C250 H253 0.930 . S
N251 Co231 2.194 . S
N251 C246 1.328 . S
N251 C250 1.315 . S
H252 C246 0.929 . S
H253 C250 0.930 . S
H254 C242 0.929 . S
H255 C244 0.929 . S
O256 Co231 2.351 . S
O256 C259 1.244 . S
O257 Co231 2.155 . S
O257 C259 1.240 . S
O258 Co231 2.096 . S
O258 C239 1.247 . S
C259 O256 1.244 . S
C259 O257 1.240 . S
H260 C234 0.931 . S
H261 C243 0.931 . S
H262 C247 0.929 . S
H263 C249 0.930 . S
Co264 N268 2.148 . S
Co264 N274 2.128 . S
Co264 N284 2.194 . S
Co264 O289 2.351 . S
Co264 O290 2.155 . S
Co264 O291 2.096 . S
C265 N268 1.301 . S
C265 N269 1.328 . S
C265 H270 0.930 . S
C266 C267 1.333 . S
C266 N268 1.317 . S
C266 H271 0.930 . S
C267 C266 1.333 . S
C267 N269 1.350 . S
C267 H293 0.931 . S
N268 Co264 2.148 . S
N268 C265 1.301 . S
N268 C266 1.317 . S
N269 C265 1.328 . S
N269 C267 1.350 . S
H270 C265 0.930 . S
H271 C266 0.930 . S
C272 O273 1.224 . S
C272 O291 1.247 . S
O273 C272 1.224 . S
N274 Co264 2.128 . S
N274 C275 1.355 . S
N274 C277 1.311 . S
C275 N274 1.355 . S
C275 C276 1.363 . S
C275 H287 0.929 . S
C276 C275 1.363 . S
C276 N278 1.375 . S
C276 H294 0.931 . S
C277 N274 1.311 . S
C277 N278 1.347 . S
C277 H288 0.929 . S
N278 C276 1.375 . S
N278 C277 1.347 . S
C279 C282 1.365 . S
C279 N284 1.328 . S
C279 H285 0.929 . S
C280 C281 1.362 . S
C280 C283 1.378 . S
C280 H295 0.929 . S
C281 C280 1.362 . S
C281 C282 1.366 . S
C282 C279 1.365 . S
C282 C281 1.366 . S
C282 H296 0.930 . S
C283 C280 1.378 . S
C283 N284 1.315 . S
C283 H286 0.930 . S
N284 Co264 2.194 . S
N284 C279 1.328 . S
N284 C283 1.315 . S
H285 C279 0.929 . S
H286 C283 0.930 . S
H287 C275 0.929 . S
H288 C277 0.929 . S
O289 Co264 2.351 . S
O289 C292 1.244 . S
O290 Co264 2.155 . S
O290 C292 1.240 . S
O291 Co264 2.096 . S
O291 C272 1.247 . S
C292 O289 1.244 . S
C292 O290 1.240 . S
H293 C267 0.931 . S
H294 C276 0.931 . S
H295 C280 0.929 . S
H296 C282 0.930 . S
Co297 N301 2.148 . S
Co297 N307 2.128 . S
Co297 N317 2.194 . S
Co297 O322 2.351 . S
Co297 O323 2.155 . S
Co297 O324 2.096 . S
C298 N301 1.301 . S
C298 N302 1.328 . S
C298 H303 0.930 . S
C299 C300 1.333 . S
C299 N301 1.317 . S
C299 H304 0.930 . S
C300 C299 1.333 . S
C300 N302 1.350 . S
C300 H326 0.931 . S
N301 Co297 2.148 . S
N301 C298 1.301 . S
N301 C299 1.317 . S
N302 C298 1.328 . S
N302 C300 1.350 . S
H303 C298 0.930 . S
H304 C299 0.930 . S
C305 O306 1.224 . S
C305 O324 1.247 . S
O306 C305 1.224 . S
N307 Co297 2.128 . S
N307 C308 1.355 . S
N307 C310 1.311 . S
C308 N307 1.355 . S
C308 C309 1.363 . S
C308 H320 0.929 . S
C309 C308 1.363 . S
C309 N311 1.375 . S
C309 H327 0.931 . S
C310 N307 1.311 . S
C310 N311 1.347 . S
C310 H321 0.929 . S
N311 C309 1.375 . S
N311 C310 1.347 . S
C312 C315 1.365 . S
C312 N317 1.328 . S
C312 H318 0.929 . S
C313 C314 1.362 . S
C313 C316 1.378 . S
C313 H328 0.929 . S
C314 C313 1.362 . S
C314 C315 1.366 . S
C315 C312 1.365 . S
C315 C314 1.366 . S
C315 H329 0.930 . S
C316 C313 1.378 . S
C316 N317 1.315 . S
C316 H319 0.930 . S
N317 Co297 2.194 . S
N317 C312 1.328 . S
N317 C316 1.315 . S
H318 C312 0.929 . S
H319 C316 0.930 . S
H320 C308 0.929 . S
H321 C310 0.929 . S
O322 Co297 2.351 . S
O322 C325 1.244 . S
O323 Co297 2.155 . S
O323 C325 1.240 . S
O324 Co297 2.096 . S
O324 C305 1.247 . S
C325 O322 1.244 . S
C325 O323 1.240 . S
H326 C300 0.931 . S
H327 C309 0.931 . S
H328 C313 0.929 . S
H329 C315 0.930 . S
Co330 N334 2.148 . S
Co330 N340 2.128 . S
Co330 N350 2.194 . S
Co330 O355 2.351 . S
Co330 O356 2.155 . S
Co330 O357 2.096 . S
C331 N334 1.301 . S
C331 N335 1.328 . S
C331 H336 0.930 . S
C332 C333 1.333 . S
C332 N334 1.317 . S
C332 H337 0.930 . S
C333 C332 1.333 . S
C333 N335 1.350 . S
C333 H359 0.931 . S
N334 Co330 2.148 . S
N334 C331 1.301 . S
N334 C332 1.317 . S
N335 C331 1.328 . S
N335 C333 1.350 . S
H336 C331 0.930 . S
H337 C332 0.930 . S
C338 O339 1.224 . S
C338 O357 1.247 . S
O339 C338 1.224 . S
N340 Co330 2.128 . S
N340 C341 1.355 . S
N340 C343 1.311 . S
C341 N340 1.355 . S
C341 C342 1.363 . S
C341 H353 0.929 . S
C342 C341 1.363 . S
C342 N344 1.375 . S
C342 H360 0.931 . S
C343 N340 1.311 . S
C343 N344 1.347 . S
C343 H354 0.929 . S
N344 C342 1.375 . S
N344 C343 1.347 . S
C345 C348 1.365 . S
C345 N350 1.328 . S
C345 H351 0.929 . S
C346 C347 1.362 . S
C346 C349 1.378 . S
C346 H361 0.929 . S
C347 C346 1.362 . S
C347 C348 1.366 . S
C348 C345 1.365 . S
C348 C347 1.366 . S
C348 H362 0.930 . S
C349 C346 1.378 . S
C349 N350 1.315 . S
C349 H352 0.930 . S
N350 Co330 2.194 . S
N350 C345 1.328 . S
N350 C349 1.315 . S
H351 C345 0.929 . S
H352 C349 0.930 . S
H353 C341 0.929 . S
H354 C343 0.929 . S
O355 Co330 2.351 . S
O355 C358 1.244 . S
O356 Co330 2.155 . S
O356 C358 1.240 . S
O357 Co330 2.096 . S
O357 C338 1.247 . S
C358 O355 1.244 . S
C358 O356 1.240 . S
H359 C333 0.931 . S
H360 C342 0.931 . S
H361 C346 0.929 . S
H362 C348 0.930 . S
Co363 N367 2.148 . S
Co363 N373 2.128 . S
Co363 N383 2.194 . S
Co363 O388 2.351 . S
Co363 O389 2.155 . S
Co363 O390 2.096 . S
C364 N367 1.301 . S
C364 N368 1.328 . S
C364 H369 0.930 . S
C365 C366 1.333 . S
C365 N367 1.317 . S
C365 H370 0.930 . S
C366 C365 1.333 . S
C366 N368 1.350 . S
C366 H392 0.931 . S
N367 Co363 2.148 . S
N367 C364 1.301 . S
N367 C365 1.317 . S
N368 C364 1.328 . S
N368 C366 1.350 . S
H369 C364 0.930 . S
H370 C365 0.930 . S
C371 O372 1.224 . S
C371 O390 1.247 . S
O372 C371 1.224 . S
N373 Co363 2.128 . S
N373 C374 1.355 . S
N373 C376 1.311 . S
C374 N373 1.355 . S
C374 C375 1.363 . S
C374 H386 0.929 . S
C375 C374 1.363 . S
C375 N377 1.375 . S
C375 H393 0.931 . S
C376 N373 1.311 . S
C376 N377 1.347 . S
C376 H387 0.929 . S
N377 C375 1.375 . S
N377 C376 1.347 . S
C378 C381 1.365 . S
C378 N383 1.328 . S
C378 H384 0.929 . S
C379 C380 1.362 . S
C379 C382 1.378 . S
C379 H394 0.929 . S
C380 C379 1.362 . S
C380 C381 1.366 . S
C381 C378 1.365 . S
C381 C380 1.366 . S
C381 H395 0.930 . S
C382 C379 1.378 . S
C382 N383 1.315 . S
C382 H385 0.930 . S
N383 Co363 2.194 . S
N383 C378 1.328 . S
N383 C382 1.315 . S
H384 C378 0.929 . S
H385 C382 0.930 . S
H386 C374 0.929 . S
H387 C376 0.929 . S
O388 Co363 2.351 . S
O388 C391 1.244 . S
O389 Co363 2.155 . S
O389 C391 1.240 . S
O390 Co363 2.096 . S
O390 C371 1.247 . S
C391 O388 1.244 . S
C391 O389 1.240 . S
H392 C366 0.931 . S
H393 C375 0.931 . S
H394 C379 0.929 . S
H395 C381 0.930 . S
Co396 N400 2.148 . S
Co396 N406 2.128 . S
Co396 N416 2.194 . S
Co396 O421 2.351 . S
Co396 O422 2.155 . S
Co396 O423 2.096 . S
C397 N400 1.301 . S
C397 N401 1.328 . S
C397 H402 0.930 . S
C398 C399 1.333 . S
C398 N400 1.317 . S
C398 H403 0.930 . S
C399 C398 1.333 . S
C399 N401 1.350 . S
C399 H425 0.931 . S
N400 Co396 2.148 . S
N400 C397 1.301 . S
N400 C398 1.317 . S
N401 C397 1.328 . S
N401 C399 1.350 . S
H402 C397 0.930 . S
H403 C398 0.930 . S
C404 O405 1.224 . S
C404 O423 1.247 . S
O405 C404 1.224 . S
N406 Co396 2.128 . S
N406 C407 1.355 . S
N406 C409 1.311 . S
C407 N406 1.355 . S
C407 C408 1.363 . S
C407 H419 0.929 . S
C408 C407 1.363 . S
C408 N410 1.375 . S
C408 H426 0.931 . S
C409 N406 1.311 . S
C409 N410 1.347 . S
C409 H420 0.929 . S
N410 C408 1.375 . S
N410 C409 1.347 . S
C411 C414 1.365 . S
C411 N416 1.328 . S
C411 H417 0.929 . S
C412 C413 1.362 . S
C412 C415 1.378 . S
C412 H427 0.929 . S
C413 C412 1.362 . S
C413 C414 1.366 . S
C414 C411 1.365 . S
C414 C413 1.366 . S
C414 H428 0.930 . S
C415 C412 1.378 . S
C415 N416 1.315 . S
C415 H418 0.930 . S
N416 Co396 2.194 . S
N416 C411 1.328 . S
N416 C415 1.315 . S
H417 C411 0.929 . S
H418 C415 0.930 . S
H419 C407 0.929 . S
H420 C409 0.929 . S
O421 Co396 2.351 . S
O421 C424 1.244 . S
O422 Co396 2.155 . S
O422 C424 1.240 . S
O423 Co396 2.096 . S
O423 C404 1.247 . S
C424 O421 1.244 . S
C424 O422 1.240 . S
H425 C399 0.931 . S
H426 C408 0.931 . S
H427 C412 0.929 . S
H428 C414 0.930 . S
Co429 N433 2.148 . S
Co429 N439 2.128 . S
Co429 N449 2.194 . S
Co429 O454 2.351 . S
Co429 O455 2.155 . S
Co429 O456 2.096 . S
C430 N433 1.301 . S
C430 N434 1.328 . S
C430 H435 0.930 . S
C431 C432 1.333 . S
C431 N433 1.317 . S
C431 H436 0.930 . S
C432 C431 1.333 . S
C432 N434 1.350 . S
C432 H458 0.931 . S
N433 Co429 2.148 . S
N433 C430 1.301 . S
N433 C431 1.317 . S
N434 C430 1.328 . S
N434 C432 1.350 . S
H435 C430 0.930 . S
H436 C431 0.930 . S
C437 O438 1.224 . S
C437 O456 1.247 . S
O438 C437 1.224 . S
N439 Co429 2.128 . S
N439 C440 1.355 . S
N439 C442 1.311 . S
C440 N439 1.355 . S
C440 C441 1.363 . S
C440 H452 0.929 . S
C441 C440 1.363 . S
C441 N443 1.375 . S
C441 H459 0.931 . S
C442 N439 1.311 . S
C442 N443 1.347 . S
C442 H453 0.929 . S
N443 C441 1.375 . S
N443 C442 1.347 . S
C444 C447 1.365 . S
C444 N449 1.328 . S
C444 H450 0.929 . S
C445 C446 1.362 . S
C445 C448 1.378 . S
C445 H460 0.929 . S
C446 C445 1.362 . S
C446 C447 1.366 . S
C447 C444 1.365 . S
C447 C446 1.366 . S
C447 H461 0.930 . S
C448 C445 1.378 . S
C448 N449 1.315 . S
C448 H451 0.930 . S
N449 Co429 2.194 . S
N449 C444 1.328 . S
N449 C448 1.315 . S
H450 C444 0.929 . S
H451 C448 0.930 . S
H452 C440 0.929 . S
H453 C442 0.929 . S
O454 Co429 2.351 . S
O454 C457 1.244 . S
O455 Co429 2.155 . S
O455 C457 1.240 . S
O456 Co429 2.096 . S
O456 C437 1.247 . S
C457 O454 1.244 . S
C457 O455 1.240 . S
H458 C432 0.931 . S
H459 C441 0.931 . S
H460 C445 0.929 . S
H461 C447 0.930 . S
Co462 N466 2.148 . S
Co462 N472 2.128 . S
Co462 N482 2.194 . S
Co462 O487 2.351 . S
Co462 O488 2.155 . S
Co462 O489 2.096 . S
C463 N466 1.301 . S
C463 N467 1.328 . S
C463 H468 0.930 . S
C464 C465 1.333 . S
C464 N466 1.317 . S
C464 H469 0.930 . S
C465 C464 1.333 . S
C465 N467 1.350 . S
C465 H491 0.931 . S
N466 Co462 2.148 . S
N466 C463 1.301 . S
N466 C464 1.317 . S
N467 C463 1.328 . S
N467 C465 1.350 . S
H468 C463 0.930 . S
H469 C464 0.930 . S
C470 O471 1.224 . S
C470 O489 1.247 . S
O471 C470 1.224 . S
N472 Co462 2.128 . S
N472 C473 1.355 . S
N472 C475 1.311 . S
C473 N472 1.355 . S
C473 C474 1.363 . S
C473 H485 0.929 . S
C474 C473 1.363 . S
C474 N476 1.375 . S
C474 H492 0.931 . S
C475 N472 1.311 . S
C475 N476 1.347 . S
C475 H486 0.929 . S
N476 C474 1.375 . S
N476 C475 1.347 . S
C477 C480 1.365 . S
C477 N482 1.328 . S
C477 H483 0.929 . S
C478 C479 1.362 . S
C478 C481 1.378 . S
C478 H493 0.929 . S
C479 C478 1.362 . S
C479 C480 1.366 . S
C480 C477 1.365 . S
C480 C479 1.366 . S
C480 H494 0.930 . S
C481 C478 1.378 . S
C481 N482 1.315 . S
C481 H484 0.930 . S
N482 Co462 2.194 . S
N482 C477 1.328 . S
N482 C481 1.315 . S
H483 C477 0.929 . S
H484 C481 0.930 . S
H485 C473 0.929 . S
H486 C475 0.929 . S
O487 Co462 2.351 . S
O487 C490 1.244 . S
O488 Co462 2.155 . S
O488 C490 1.240 . S
O489 Co462 2.096 . S
O489 C470 1.247 . S
C490 O487 1.244 . S
C490 O488 1.240 . S
H491 C465 0.931 . S
H492 C474 0.931 . S
H493 C478 0.929 . S
H494 C480 0.930 . S
Co495 N499 2.148 . S
Co495 N505 2.128 . S
Co495 N515 2.194 . S
Co495 O520 2.351 . S
Co495 O521 2.155 . S
Co495 O522 2.096 . S
C496 N499 1.301 . S
C496 N500 1.328 . S
C496 H501 0.930 . S
C497 C498 1.333 . S
C497 N499 1.317 . S
C497 H502 0.930 . S
C498 C497 1.333 . S
C498 N500 1.350 . S
C498 H524 0.931 . S
N499 Co495 2.148 . S
N499 C496 1.301 . S
N499 C497 1.317 . S
N500 C496 1.328 . S
N500 C498 1.350 . S
H501 C496 0.930 . S
H502 C497 0.930 . S
C503 O504 1.224 . S
C503 O522 1.247 . S
O504 C503 1.224 . S
N505 Co495 2.128 . S
N505 C506 1.355 . S
N505 C508 1.311 . S
C506 N505 1.355 . S
C506 C507 1.363 . S
C506 H518 0.929 . S
C507 C506 1.363 . S
C507 N509 1.375 . S
C507 H525 0.931 . S
C508 N505 1.311 . S
C508 N509 1.347 . S
C508 H519 0.929 . S
N509 C507 1.375 . S
N509 C508 1.347 . S
C510 C513 1.365 . S
C510 N515 1.328 . S
C510 H516 0.929 . S
C511 C512 1.362 . S
C511 C514 1.378 . S
C511 H526 0.929 . S
C512 C511 1.362 . S
C512 C513 1.366 . S
C513 C510 1.365 . S
C513 C512 1.366 . S
C513 H527 0.930 . S
C514 C511 1.378 . S
C514 N515 1.315 . S
C514 H517 0.930 . S
N515 Co495 2.194 . S
N515 C510 1.328 . S
N515 C514 1.315 . S
H516 C510 0.929 . S
H517 C514 0.930 . S
H518 C506 0.929 . S
H519 C508 0.929 . S
O520 Co495 2.351 . S
O520 C523 1.244 . S
O521 Co495 2.155 . S
O521 C523 1.240 . S
O522 Co495 2.096 . S
O522 C503 1.247 . S
C523 O520 1.244 . S
C523 O521 1.240 . S
H524 C498 0.931 . S
H525 C507 0.931 . S
H526 C511 0.929 . S
H527 C513 0.930 . S
H528 C536 0.950 . S
H529 C541 0.950 . S
H530 C538 0.950 . S
H531 C540 0.950 . S
H532 C542 0.950 . S
H533 C544 0.950 . S
H534 C546 0.950 . S
H535 C547 0.950 . S
C536 H528 0.950 . S
C536 C537 1.386 . S
C536 C538 1.391 1_655 S
C537 C536 1.386 . S
C537 C541 1.393 . S
C538 H530 0.950 . S
C538 C536 1.391 1_455 S
C538 C539 1.400 1_455 S
C539 C538 1.400 1_655 S
C539 C540 1.398 . S
C539 C545 1.491 1_655 S
C540 H531 0.950 . S
C540 C539 1.398 . S
C540 C541 1.391 . S
C541 H529 0.950 . S
C541 C537 1.393 . S
C541 C540 1.391 . S
C542 H532 0.950 . S
C542 C543 1.386 . S
C542 C544 1.391 1_455 S
C543 C542 1.386 . S
C543 C547 1.393 . S
C544 H533 0.950 . S
C544 C542 1.391 1_655 S
C544 C545 1.400 1_655 S
C545 C539 1.491 1_455 S
C545 C544 1.400 1_455 S
C545 C546 1.398 . S
C546 H534 0.950 . S
C546 C545 1.398 . S
C546 C547 1.391 . S
C547 H535 0.950 . S
C547 C543 1.393 . S
C547 C546 1.391 . S
H548 C556 0.950 . S
H549 C561 0.950 . S
H550 C558 0.950 . S
H551 C560 0.950 . S
H552 C562 0.950 . S
H553 C564 0.950 . S
H554 C566 0.950 . S
H555 C567 0.950 . S
C556 H548 0.950 . S
C556 C557 1.386 . S
C556 C558 1.391 . S
C557 C556 1.386 . S
C557 C561 1.393 . S
C558 H550 0.950 . S
C558 C556 1.391 . S
C558 C559 1.400 . S
C559 C558 1.400 . S
C559 C560 1.398 . S
C559 C565 1.491 . S
C560 H551 0.950 . S
C560 C559 1.398 . S
C560 C561 1.391 . S
C561 H549 0.950 . S
C561 C557 1.393 . S
C561 C560 1.391 . S
C562 H552 0.950 . S
C562 C563 1.386 . S
C562 C564 1.391 . S
C563 C562 1.386 . S
C563 C567 1.393 . S
C564 H553 0.950 . S
C564 C562 1.391 . S
C564 C565 1.400 . S
C565 C559 1.491 . S
C565 C564 1.400 . S
C565 C566 1.398 . S
C566 H554 0.950 . S
C566 C565 1.398 . S
C566 C567 1.391 . S
C567 H555 0.950 . S
C567 C563 1.393 . S
C567 C566 1.391 . S
H568 C576 0.950 . S
H569 C581 0.950 . S
H570 C578 0.950 . S
H571 C580 0.950 . S
H572 C582 0.950 . S
H573 C584 0.950 . S
H574 C586 0.950 . S
H575 C587 0.950 . S
C576 H568 0.950 . S
C576 C577 1.386 . S
C576 C578 1.391 1_655 S
C577 C576 1.386 . S
C577 C581 1.393 . S
C578 H570 0.950 . S
C578 C576 1.391 1_455 S
C578 C579 1.400 1_455 S
C579 C578 1.400 1_655 S
C579 C580 1.398 . S
C579 C585 1.491 1_655 S
C580 H571 0.950 . S
C580 C579 1.398 . S
C580 C581 1.391 . S
C581 H569 0.950 . S
C581 C577 1.393 . S
C581 C580 1.391 . S
C582 H572 0.950 . S
C582 C583 1.386 . S
C582 C584 1.391 1_455 S
C583 C582 1.386 . S
C583 C587 1.393 . S
C584 H573 0.950 . S
C584 C582 1.391 1_655 S
C584 C585 1.400 1_655 S
C585 C579 1.491 1_455 S
C585 C584 1.400 1_455 S
C585 C586 1.398 . S
C586 H574 0.950 . S
C586 C585 1.398 . S
C586 C587 1.391 . S
C587 H575 0.950 . S
C587 C583 1.393 . S
C587 C586 1.391 . S
H588 C596 0.950 . S
H589 C601 0.950 . S
H590 C598 0.950 . S
H591 C600 0.950 . S
H592 C602 0.950 . S
H593 C604 0.950 . S
H594 C606 0.950 . S
H595 C607 0.950 . S
C596 H588 0.950 . S
C596 C597 1.386 . S
C596 C598 1.391 . S
C597 C596 1.386 . S
C597 C601 1.393 . S
C598 H590 0.950 . S
C598 C596 1.391 . S
C598 C599 1.400 . S
C599 C598 1.400 . S
C599 C600 1.398 . S
C599 C605 1.491 . S
C600 H591 0.950 . S
C600 C599 1.398 . S
C600 C601 1.391 . S
C601 H589 0.950 . S
C601 C597 1.393 . S
C601 C600 1.391 . S
C602 H592 0.950 . S
C602 C603 1.386 . S
C602 C604 1.391 . S
C603 C602 1.386 . S
C603 C607 1.393 . S
C604 H593 0.950 . S
C604 C602 1.391 . S
C604 C605 1.400 . S
C605 C599 1.491 . S
C605 C604 1.400 . S
C605 C606 1.398 . S
C606 H594 0.950 . S
C606 C605 1.398 . S
C606 C607 1.391 . S
C607 H595 0.950 . S
C607 C603 1.393 . S
C607 C606 1.391 . S
H608 C616 0.950 . S
H609 C621 0.950 . S
H610 C618 0.950 . S
H611 C620 0.950 . S
H612 C622 0.950 . S
H613 C624 0.950 . S
H614 C626 0.950 . S
H615 C627 0.950 . S
C616 H608 0.950 . S
C616 C617 1.386 . S
C616 C618 1.391 . S
C617 C616 1.386 . S
C617 C621 1.393 . S
C618 H610 0.950 . S
C618 C616 1.391 . S
C618 C619 1.400 . S
C619 C618 1.400 . S
C619 C620 1.398 . S
C619 C625 1.491 . S
C620 H611 0.950 . S
C620 C619 1.398 . S
C620 C621 1.391 . S
C621 H609 0.950 . S
C621 C617 1.393 . S
C621 C620 1.391 . S
C622 H612 0.950 . S
C622 C623 1.386 . S
C622 C624 1.391 . S
C623 C622 1.386 . S
C623 C627 1.393 . S
C624 H613 0.950 . S
C624 C622 1.391 . S
C624 C625 1.400 . S
C625 C619 1.491 . S
C625 C624 1.400 . S
C625 C626 1.398 . S
C626 H614 0.950 . S
C626 C625 1.398 . S
C626 C627 1.391 . S
C627 H615 0.950 . S
C627 C623 1.393 . S
C627 C626 1.391 . S
H628 C636 0.950 . S
H629 C641 0.950 . S
H630 C638 0.950 . S
H631 C640 0.937 1_455 S
H632 C642 0.950 . S
H633 C644 0.950 . S
H634 C646 0.937 1_655 S
H635 C647 0.950 . S
C636 H628 0.950 . S
C636 C637 1.386 . S
C636 C638 1.391 . S
C637 C636 1.386 . S
C637 C641 1.393 . S
C638 H630 0.950 . S
C638 C636 1.391 . S
C638 C639 1.400 . S
C639 C638 1.400 . S
C639 C640 1.398 . S
C639 C645 1.491 1_655 S
C640 H631 0.937 1_655 S
C640 C639 1.398 . S
C640 C641 1.391 . S
C641 H629 0.950 . S
C641 C637 1.393 . S
C641 C640 1.391 . S
C642 H632 0.950 . S
C642 C643 1.386 . S
C642 C644 1.391 . S
C643 C642 1.386 . S
C643 C647 1.393 . S
C644 H633 0.950 . S
C644 C642 1.391 . S
C644 C645 1.400 . S
C645 C639 1.491 1_455 S
C645 C644 1.400 . S
C645 C646 1.398 . S
C646 H634 0.937 1_455 S
C646 C645 1.398 . S
C646 C647 1.391 . S
C647 H635 0.950 . S
C647 C643 1.393 . S
C647 C646 1.391 . S
H648 C656 0.950 . S
H649 C661 0.950 . S
H650 C658 0.950 . S
H651 C660 0.950 . S
H652 C662 0.950 . S
H653 C664 0.950 . S
H654 C666 0.950 . S
H655 C667 0.950 . S
C656 H648 0.950 . S
C656 C657 1.386 . S
C656 C658 1.391 . S
C657 C656 1.386 . S
C657 C661 1.393 . S
C658 H650 0.950 . S
C658 C656 1.391 . S
C658 C659 1.400 . S
C659 C658 1.400 . S
C659 C660 1.398 . S
C659 C665 1.491 . S
C660 H651 0.950 . S
C660 C659 1.398 . S
C660 C661 1.391 . S
C661 H649 0.950 . S
C661 C657 1.393 . S
C661 C660 1.391 . S
C662 H652 0.950 . S
C662 C663 1.386 . S
C662 C664 1.391 . S
C663 C662 1.386 . S
C663 C667 1.393 . S
C664 H653 0.950 . S
C664 C662 1.391 . S
C664 C665 1.400 . S
C665 C659 1.491 . S
C665 C664 1.400 . S
C665 C666 1.398 . S
C666 H654 0.950 . S
C666 C665 1.398 . S
C666 C667 1.391 . S
C667 H655 0.950 . S
C667 C663 1.393 . S
C667 C666 1.391 . S
H668 C676 0.945 1_455 S
H669 C681 0.950 . S
H670 C678 0.950 . S
H671 C680 0.950 . S
H672 C682 0.945 1_655 S
H673 C684 0.950 . S
H674 C686 0.950 . S
H675 C687 0.950 . S
C676 H668 0.945 1_655 S
C676 C677 1.386 . S
C676 C678 1.391 1_655 S
C677 C676 1.386 . S
C677 C681 1.393 . S
C678 H670 0.950 . S
C678 C676 1.391 1_455 S
C678 C679 1.400 1_455 S
C679 C678 1.400 1_655 S
C679 C680 1.398 . S
C679 C685 1.491 1_655 S
C680 H671 0.950 . S
C680 C679 1.398 . S
C680 C681 1.391 . S
C681 H669 0.950 . S
C681 C677 1.393 . S
C681 C680 1.391 . S
C682 H672 0.945 1_455 S
C682 C683 1.386 . S
C682 C684 1.391 1_455 S
C683 C682 1.386 . S
C683 C687 1.393 . S
C684 H673 0.950 . S
C684 C682 1.391 1_655 S
C684 C685 1.400 1_655 S
C685 C679 1.491 1_455 S
C685 C684 1.400 1_455 S
C685 C686 1.398 . S
C686 H674 0.950 . S
C686 C685 1.398 . S
C686 C687 1.391 . S
C687 H675 0.950 . S
C687 C683 1.393 . S
C687 C686 1.391 . S
H688 C696 0.950 . S
H689 C701 0.950 . S
H690 C698 0.950 . S
H691 C700 0.950 . S
H692 C702 0.950 . S
H693 C704 0.950 . S
H694 C706 0.950 . S
H695 C707 0.950 . S
C696 H688 0.950 . S
C696 C697 1.386 . S
C696 C698 1.391 . S
C697 C696 1.386 . S
C697 C701 1.393 . S
C698 H690 0.950 . S
C698 C696 1.391 . S
C698 C699 1.400 . S
C699 C698 1.400 . S
C699 C700 1.398 . S
C699 C705 1.491 . S
C700 H691 0.950 . S
C700 C699 1.398 . S
C700 C701 1.391 . S
C701 H689 0.950 . S
C701 C697 1.393 . S
C701 C700 1.391 . S
C702 H692 0.950 . S
C702 C703 1.386 . S
C702 C704 1.391 . S
C703 C702 1.386 . S
C703 C707 1.393 . S
C704 H693 0.950 . S
C704 C702 1.391 . S
C704 C705 1.400 . S
C705 C699 1.491 . S
C705 C704 1.400 . S
C705 C706 1.398 . S
C706 H694 0.950 . S
C706 C705 1.398 . S
C706 C707 1.391 . S
C707 H695 0.950 . S
C707 C703 1.393 . S
C707 C706 1.391 . S
H708 C716 0.950 . S
H709 C721 0.950 . S
H710 C718 0.950 . S
H711 C720 0.950 . S
H712 C722 0.950 . S
H713 C724 0.950 . S
H714 C726 0.950 . S
H715 C727 0.950 . S
C716 H708 0.950 . S
C716 C717 1.386 . S
C716 C718 1.391 . S
C717 C716 1.386 . S
C717 C721 1.393 . S
C718 H710 0.950 . S
C718 C716 1.391 . S
C718 C719 1.400 . S
C719 C718 1.400 . S
C719 C720 1.398 . S
C719 C725 1.491 . S
C720 H711 0.950 . S
C720 C719 1.398 . S
C720 C721 1.391 . S
C721 H709 0.950 . S
C721 C717 1.393 . S
C721 C720 1.391 . S
C722 H712 0.950 . S
C722 C723 1.386 . S
C722 C724 1.391 . S
C723 C722 1.386 . S
C723 C727 1.393 . S
C724 H713 0.950 . S
C724 C722 1.391 . S
C724 C725 1.400 . S
C725 C719 1.491 . S
C725 C724 1.400 . S
C725 C726 1.398 . S
C726 H714 0.950 . S
C726 C725 1.398 . S
C726 C727 1.391 . S
C727 H715 0.950 . S
C727 C723 1.393 . S
C727 C726 1.391 . S
H728 C736 0.950 . S
H729 C741 0.950 . S
H730 C738 0.950 . S
H731 C740 0.950 . S
H732 C742 0.950 . S
H733 C744 0.950 . S
H734 C746 0.950 . S
H735 C747 0.950 . S
C736 H728 0.950 . S
C736 C737 1.386 . S
C736 C738 1.391 . S
C737 C736 1.386 . S
C737 C741 1.393 . S
C738 H730 0.950 . S
C738 C736 1.391 . S
C738 C739 1.400 . S
C739 C738 1.400 . S
C739 C740 1.398 . S
C739 C745 1.491 . S
C740 H731 0.950 . S
C740 C739 1.398 . S
C740 C741 1.391 . S
C741 H729 0.950 . S
C741 C737 1.393 . S
C741 C740 1.391 . S
C742 H732 0.950 . S
C742 C743 1.386 . S
C742 C744 1.391 . S
C743 C742 1.386 . S
C743 C747 1.393 . S
C744 H733 0.950 . S
C744 C742 1.391 . S
C744 C745 1.400 . S
C745 C739 1.491 . S
C745 C744 1.400 . S
C745 C746 1.398 . S
C746 H734 0.950 . S
C746 C745 1.398 . S
C746 C747 1.391 . S
C747 H735 0.950 . S
C747 C743 1.393 . S
C747 C746 1.391 . S
H748 C756 0.950 . S
H749 C761 0.950 . S
H750 C758 0.950 . S
H751 C760 0.950 . S
H752 C762 0.950 . S
H753 C764 0.950 . S
H754 C766 0.950 . S
H755 C767 0.950 . S
C756 H748 0.950 . S
C756 C757 1.386 . S
C756 C758 1.391 . S
C757 C756 1.386 . S
C757 C761 1.393 . S
C758 H750 0.950 . S
C758 C756 1.391 . S
C758 C759 1.400 . S
C759 C758 1.400 . S
C759 C760 1.398 . S
C759 C765 1.491 . S
C760 H751 0.950 . S
C760 C759 1.398 . S
C760 C761 1.391 . S
C761 H749 0.950 . S
C761 C757 1.393 . S
C761 C760 1.391 . S
C762 H752 0.950 . S
C762 C763 1.386 . S
C762 C764 1.391 . S
C763 C762 1.386 . S
C763 C767 1.393 . S
C764 H753 0.950 . S
C764 C762 1.391 . S
C764 C765 1.400 . S
C765 C759 1.491 . S
C765 C764 1.400 . S
C765 C766 1.398 . S
C766 H754 0.950 . S
C766 C765 1.398 . S
C766 C767 1.391 . S
C767 H755 0.950 . S
C767 C763 1.393 . S
C767 C766 1.391 . S
H768 C776 0.950 . S
H769 C781 0.950 . S
H770 C778 0.950 . S
H771 C780 0.950 . S
H772 C782 0.950 . S
H773 C784 0.950 . S
H774 C786 0.950 . S
H775 C787 0.950 . S
C776 H768 0.950 . S
C776 C777 1.386 . S
C776 C778 1.391 . S
C777 C776 1.386 . S
C777 C781 1.393 . S
C778 H770 0.950 . S
C778 C776 1.391 . S
C778 C779 1.400 . S
C779 C778 1.400 . S
C779 C780 1.398 . S
C779 C785 1.491 . S
C780 H771 0.950 . S
C780 C779 1.398 . S
C780 C781 1.391 . S
C781 H769 0.950 . S
C781 C777 1.393 . S
C781 C780 1.391 . S
C782 H772 0.950 . S
C782 C783 1.386 . S
C782 C784 1.391 . S
C783 C782 1.386 . S
C783 C787 1.393 . S
C784 H773 0.950 . S
C784 C782 1.391 . S
C784 C785 1.400 . S
C785 C779 1.491 . S
C785 C784 1.400 . S
C785 C786 1.398 . S
C786 H774 0.950 . S
C786 C785 1.398 . S
C786 C787 1.391 . S
C787 H775 0.950 . S
C787 C783 1.393 . S
C787 C786 1.391 . S
H788 C796 0.950 . S
H789 C801 0.950 . S
H790 C798 0.950 . S
H791 C800 0.950 . S
H792 C802 0.950 . S
H793 C804 0.950 . S
H794 C806 0.950 . S
H795 C807 0.950 . S
C796 H788 0.950 . S
C796 C797 1.386 . S
C796 C798 1.391 . S
C797 C796 1.386 . S
C797 C801 1.393 . S
C798 H790 0.950 . S
C798 C796 1.391 . S
C798 C799 1.400 . S
C799 C798 1.400 . S
C799 C800 1.398 . S
C799 C805 1.491 . S
C800 H791 0.950 . S
C800 C799 1.398 . S
C800 C801 1.391 . S
C801 H789 0.950 . S
C801 C797 1.393 . S
C801 C800 1.391 . S
C802 H792 0.950 . S
C802 C803 1.386 . S
C802 C804 1.391 . S
C803 C802 1.386 . S
C803 C807 1.393 . S
C804 H793 0.950 . S
C804 C802 1.391 . S
C804 C805 1.400 . S
C805 C799 1.491 . S
C805 C804 1.400 . S
C805 C806 1.398 . S
C806 H794 0.950 . S
C806 C805 1.398 . S
C806 C807 1.391 . S
C807 H795 0.950 . S
C807 C803 1.393 . S
C807 C806 1.391 . S
H808 C816 0.950 . S
H809 C821 0.950 . S
H810 C818 0.950 . S
H811 C820 0.950 . S
H812 C822 0.950 . S
H813 C824 0.950 . S
H814 C826 0.950 . S
H815 C827 0.950 . S
C816 H808 0.950 . S
C816 C817 1.386 . S
C816 C818 1.391 . S
C817 C816 1.386 . S
C817 C821 1.393 . S
C818 H810 0.950 . S
C818 C816 1.391 . S
C818 C819 1.400 . S
C819 C818 1.400 . S
C819 C820 1.398 . S
C819 C825 1.491 . S
C820 H811 0.950 . S
C820 C819 1.398 . S
C820 C821 1.391 . S
C821 H809 0.950 . S
C821 C817 1.393 . S
C821 C820 1.391 . S
C822 H812 0.950 . S
C822 C823 1.386 . S
C822 C824 1.391 . S
C823 C822 1.386 . S
C823 C827 1.393 . S
C824 H813 0.950 . S
C824 C822 1.391 . S
C824 C825 1.400 . S
C825 C819 1.491 . S
C825 C824 1.400 . S
C825 C826 1.398 . S
C826 H814 0.950 . S
C826 C825 1.398 . S
C826 C827 1.391 . S
C827 H815 0.950 . S
C827 C823 1.393 . S
C827 C826 1.391 . S
H828 C836 0.950 . S
H829 C841 0.950 . S
H830 C838 0.950 . S
H831 C840 0.950 . S
H832 C842 0.950 . S
H833 C844 0.950 . S
H834 C846 0.950 . S
H835 C847 0.950 . S
C836 H828 0.950 . S
C836 C837 1.386 . S
C836 C838 1.391 . S
C837 C836 1.386 . S
C837 C841 1.393 . S
C838 H830 0.950 . S
C838 C836 1.391 . S
C838 C839 1.400 . S
C839 C838 1.400 . S
C839 C840 1.398 . S
C839 C845 1.491 . S
C840 H831 0.950 . S
C840 C839 1.398 . S
C840 C841 1.391 . S
C841 H829 0.950 . S
C841 C837 1.393 . S
C841 C840 1.391 . S
C842 H832 0.950 . S
C842 C843 1.386 . S
C842 C844 1.391 . S
C843 C842 1.386 . S
C843 C847 1.393 . S
C844 H833 0.950 . S
C844 C842 1.391 . S
C844 C845 1.400 . S
C845 C839 1.491 . S
C845 C844 1.400 . S
C845 C846 1.398 . S
C846 H834 0.950 . S
C846 C845 1.398 . S
C846 C847 1.391 . S
C847 H835 0.950 . S
C847 C843 1.393 . S
C847 C846 1.391 . S
H848 C856 0.950 . S
H849 C861 0.937 1_565 S
H850 C858 0.950 1_655 S
H851 C860 0.950 . S
H852 C862 0.950 . S
H853 C864 0.950 1_455 S
H854 C866 0.950 . S
H855 C867 0.937 1_545 S
C856 H848 0.950 . S
C856 C857 1.386 . S
C856 C858 1.391 . S
C857 C856 1.386 . S
C857 C861 1.414 . S
C858 H850 0.950 1_455 S
C858 C856 1.391 . S
C858 C859 1.400 . S
C859 C858 1.400 . S
C859 C860 1.398 1_545 S
C859 C865 1.491 1_445 S
C860 H851 0.950 . S
C860 C859 1.398 1_565 S
C860 C861 1.382 1_565 S
C861 H849 0.937 1_545 S
C861 C857 1.414 . S
C861 C860 1.382 1_545 S
C862 H852 0.950 . S
C862 C863 1.386 . S
C862 C864 1.391 . S
C863 C862 1.386 . S
C863 C867 1.414 . S
C864 H853 0.950 1_655 S
C864 C862 1.391 . S
C864 C865 1.400 . S
C865 C859 1.491 1_665 S
C865 C864 1.400 . S
C865 C866 1.398 1_565 S
C866 H854 0.950 . S
C866 C865 1.398 1_545 S
C866 C867 1.382 1_545 S
C867 H855 0.937 1_565 S
C867 C863 1.414 . S
C867 C866 1.382 1_565 S
H868 C876 0.950 . S
H869 C881 0.953 . S
H870 C878 0.950 . S
H871 C880 0.950 . S
H872 C882 0.950 . S
H873 C884 0.950 . S
H874 C886 0.950 . S
H875 C887 0.953 . S
C876 H868 0.950 . S
C876 C877 1.386 . S
C876 C878 1.391 . S
C877 C876 1.386 . S
C877 C881 1.387 1_565 S
C878 H870 0.950 . S
C878 C876 1.391 . S
C878 C879 1.400 . S
C879 C878 1.400 . S
C879 C880 1.398 1_565 S
C879 C885 1.491 1_565 S
C880 H871 0.950 . S
C880 C879 1.398 1_545 S
C880 C881 1.393 . S
C881 H869 0.953 . S
C881 C877 1.387 1_545 S
C881 C880 1.393 . S
C882 H872 0.950 . S
C882 C883 1.386 . S
C882 C884 1.391 . S
C883 C882 1.386 . S
C883 C887 1.387 1_545 S
C884 H873 0.950 . S
C884 C882 1.391 . S
C884 C885 1.400 . S
C885 C879 1.491 1_545 S
C885 C884 1.400 . S
C885 C886 1.398 1_545 S
C886 H874 0.950 . S
C886 C885 1.398 1_565 S
C886 C887 1.393 . S
C887 H875 0.953 . S
C887 C883 1.387 1_565 S
C887 C886 1.393 . S
H888 C896 0.950 . S
H889 C901 0.950 . S
H890 C898 0.950 1_554 S
H891 C900 0.950 1_565 S
H892 C902 0.950 . S
H893 C904 0.950 1_556 S
H894 C906 0.950 1_545 S
H895 C907 0.950 . S
C896 H888 0.950 . S
C896 C897 1.386 . S
C896 C898 1.391 . S
C897 C896 1.386 . S
C897 C901 1.393 . S
C898 H890 0.950 1_556 S
C898 C896 1.391 . S
C898 C899 1.400 . S
C899 C898 1.400 . S
C899 C900 1.398 . S
C899 C905 1.491 1_546 S
C900 H891 0.950 1_545 S
C900 C899 1.398 . S
C900 C901 1.391 . S
C901 H889 0.950 . S
C901 C897 1.393 . S
C901 C900 1.391 . S
C902 H892 0.950 . S
C902 C903 1.386 . S
C902 C904 1.391 . S
C903 C902 1.386 . S
C903 C907 1.393 . S
C904 H893 0.950 1_554 S
C904 C902 1.391 . S
C904 C905 1.400 . S
C905 C899 1.491 1_564 S
C905 C904 1.400 . S
C905 C906 1.398 . S
C906 H894 0.950 1_565 S
C906 C905 1.398 . S
C906 C907 1.391 . S
C907 H895 0.950 . S
C907 C903 1.393 . S
C907 C906 1.391 . S
H908 C916 0.950 . S
H909 C921 0.950 1_455 S
H910 C918 0.950 1_556 S
H911 C920 0.950 . S
H912 C922 0.950 . S
H913 C924 0.950 1_554 S
H914 C926 0.950 . S
H915 C927 0.950 1_655 S
C916 H908 0.950 . S
C916 C917 1.386 . S
C916 C918 1.391 . S
C917 C916 1.386 . S
C917 C921 1.393 . S
C918 H910 0.950 1_554 S
C918 C916 1.391 . S
C918 C919 1.400 . S
C919 C918 1.400 . S
C919 C920 1.398 1_655 S
C919 C925 1.491 1_644 S
C920 H911 0.950 . S
C920 C919 1.398 1_455 S
C920 C921 1.391 1_455 S
C921 H909 0.950 1_655 S
C921 C917 1.393 . S
C921 C920 1.391 1_655 S
C922 H912 0.950 . S
C922 C923 1.386 . S
C922 C924 1.391 . S
C923 C922 1.386 . S
C923 C927 1.393 . S
C924 H913 0.950 1_556 S
C924 C922 1.391 . S
C924 C925 1.400 . S
C925 C919 1.491 1_466 S
C925 C924 1.400 . S
C925 C926 1.398 1_455 S
C926 H914 0.950 . S
C926 C925 1.398 1_655 S
C926 C927 1.391 1_655 S
C927 H915 0.950 1_455 S
C927 C923 1.393 . S
C927 C926 1.391 1_455 S
H928 C936 0.950 . S
H929 C941 0.950 . S
H930 C938 0.950 . S
H931 C940 0.950 . S
H932 C942 0.950 . S
H933 C944 0.950 . S
H934 C946 0.950 . S
H935 C947 0.950 . S
C936 H928 0.950 . S
C936 C937 1.386 . S
C936 C938 1.391 . S
C937 C936 1.386 . S
C937 C941 1.393 . S
C938 H930 0.950 . S
C938 C936 1.391 . S
C938 C939 1.400 . S
C939 C938 1.400 . S
C939 C940 1.398 . S
C939 C945 1.491 . S
C940 H931 0.950 . S
C940 C939 1.398 . S
C940 C941 1.391 . S
C941 H929 0.950 . S
C941 C937 1.393 . S
C941 C940 1.391 . S
C942 H932 0.950 . S
C942 C943 1.386 . S
C942 C944 1.391 . S
C943 C942 1.386 . S
C943 C947 1.393 . S
C944 H933 0.950 . S
C944 C942 1.391 . S
C944 C945 1.400 . S
C945 C939 1.491 . S
C945 C944 1.400 . S
C945 C946 1.398 . S
C946 H934 0.950 . S
C946 C945 1.398 . S
C946 C947 1.391 . S
C947 H935 0.950 . S
C947 C943 1.393 . S
C947 C946 1.391 . S
H948 C956 0.950 . S
H949 C961 0.950 1_655 S
H950 C958 0.950 . S
H951 C960 0.950 . S
H952 C962 0.950 . S
H953 C964 0.950 . S
H954 C966 0.950 . S
H955 C967 0.950 1_455 S
C956 H948 0.950 . S
C956 C957 1.386 . S
C956 C958 1.391 . S
C957 C956 1.386 . S
C957 C961 1.393 . S
C958 H950 0.950 . S
C958 C956 1.391 . S
C958 C959 1.400 . S
C959 C958 1.400 . S
C959 C960 1.398 1_455 S
C959 C965 1.491 1_455 S
C960 H951 0.950 . S
C960 C959 1.398 1_655 S
C960 C961 1.391 1_655 S
C961 H949 0.950 1_455 S
C961 C957 1.393 . S
C961 C960 1.391 1_455 S
C962 H952 0.950 . S
C962 C963 1.386 . S
C962 C964 1.391 . S
C963 C962 1.386 . S
C963 C967 1.393 . S
C964 H953 0.950 . S
C964 C962 1.391 . S
C964 C965 1.400 . S
C965 C959 1.491 1_655 S
C965 C964 1.400 . S
C965 C966 1.398 1_655 S
C966 H954 0.950 . S
C966 C965 1.398 1_455 S
C966 C967 1.391 1_455 S
C967 H955 0.950 1_655 S
C967 C963 1.393 . S
C967 C966 1.391 1_655 S
H968 C976 0.950 . S
H969 C981 0.950 . S
H970 C978 0.950 . S
H971 C980 0.947 1_556 S
H972 C982 0.950 . S
H973 C984 0.950 . S
H974 C986 0.947 1_554 S
H975 C987 0.950 . S
C976 H968 0.950 . S
C976 C977 1.386 . S
C976 C978 1.391 . S
C977 C976 1.386 . S
C977 C981 1.393 . S
C978 H970 0.950 . S
C978 C976 1.391 . S
C978 C979 1.400 . S
C979 C978 1.400 . S
C979 C980 1.398 . S
C979 C985 1.491 1_454 S
C980 H971 0.947 1_554 S
C980 C979 1.398 . S
C980 C981 1.391 . S
C981 H969 0.950 . S
C981 C977 1.393 . S
C981 C980 1.391 . S
C982 H972 0.950 . S
C982 C983 1.386 . S
C982 C984 1.391 . S
C983 C982 1.386 . S
C983 C987 1.393 . S
C984 H973 0.950 . S
C984 C982 1.391 . S
C984 C985 1.400 . S
C985 C979 1.491 1_656 S
C985 C984 1.400 . S
C985 C986 1.398 . S
C986 H974 0.947 1_556 S
C986 C985 1.398 . S
C986 C987 1.391 . S
C987 H975 0.950 . S
C987 C983 1.393 . S
C987 C986 1.391 . S
H988 C996 0.950 . S
H989 C1001 0.950 . S
H990 C998 0.950 1_554 S
H991 C1000 0.950 . S
H992 C1002 0.950 . S
H993 C1004 0.950 1_556 S
H994 C1006 0.950 . S
H995 C1007 0.950 . S
C996 H988 0.950 . S
C996 C997 1.386 . S
C996 C998 1.391 . S
C997 C996 1.386 . S
C997 C1001 1.393 . S
C998 H990 0.950 1_556 S
C998 C996 1.391 . S
C998 C999 1.400 . S
C999 C998 1.400 . S
C999 C1000 1.398 . S
C999 C1005 1.491 1_556 S
C1000 H991 0.950 . S
C1000 C999 1.398 . S
C1000 C1001 1.391 . S
C1001 H989 0.950 . S
C1001 C997 1.393 . S
C1001 C1000 1.391 . S
C1002 H992 0.950 . S
C1002 C1003 1.386 . S
C1002 C1004 1.391 . S
C1003 C1002 1.386 . S
C1003 C1007 1.393 . S
C1004 H993 0.950 1_554 S
C1004 C1002 1.391 . S
C1004 C1005 1.400 . S
C1005 C999 1.491 1_554 S
C1005 C1004 1.400 . S
C1005 C1006 1.398 . S
C1006 H994 0.950 . S
C1006 C1005 1.398 . S
C1006 C1007 1.391 . S
C1007 H995 0.950 . S
C1007 C1003 1.393 . S
C1007 C1006 1.391 . S
H1008 C1016 0.950 . S
H1009 C1021 0.950 . S
H1010 C1018 0.950 . S
H1011 C1020 0.950 . S
H1012 C1022 0.950 . S
H1013 C1024 0.950 . S
H1014 C1026 0.950 . S
H1015 C1027 0.950 . S
C1016 H1008 0.950 . S
C1016 C1017 1.386 . S
C1016 C1018 1.391 . S
C1017 C1016 1.386 . S
C1017 C1021 1.393 . S
C1018 H1010 0.950 . S
C1018 C1016 1.391 . S
C1018 C1019 1.400 . S
C1019 C1018 1.400 . S
C1019 C1020 1.398 1_545 S
C1019 C1025 1.491 1_545 S
C1020 H1011 0.950 . S
C1020 C1019 1.398 1_565 S
C1020 C1021 1.391 1_565 S
C1021 H1009 0.950 . S
C1021 C1017 1.393 . S
C1021 C1020 1.391 1_545 S
C1022 H1012 0.950 . S
C1022 C1023 1.386 . S
C1022 C1024 1.391 . S
C1023 C1022 1.386 . S
C1023 C1027 1.393 . S
C1024 H1013 0.950 . S
C1024 C1022 1.391 . S
C1024 C1025 1.400 . S
C1025 C1019 1.491 1_565 S
C1025 C1024 1.400 . S
C1025 C1026 1.398 1_565 S
C1026 H1014 0.950 . S
C1026 C1025 1.398 1_545 S
C1026 C1027 1.391 1_545 S
C1027 H1015 0.950 . S
C1027 C1023 1.393 . S
C1027 C1026 1.391 1_565 S
H1028 C1036 0.950 . S
H1029 C1041 0.950 . S
H1030 C1038 0.950 . S
H1031 C1040 0.950 . S
H1032 C1042 0.950 . S
H1033 C1044 0.950 . S
H1034 C1046 0.950 . S
H1035 C1047 0.950 . S
C1036 H1028 0.950 . S
C1036 C1037 1.386 . S
C1036 C1038 1.391 1_545 S
C1037 C1036 1.386 . S
C1037 C1041 1.393 . S
C1038 H1030 0.950 . S
C1038 C1036 1.391 1_565 S
C1038 C1039 1.400 1_565 S
C1039 C1038 1.400 1_545 S
C1039 C1040 1.398 . S
C1039 C1045 1.491 1_545 S
C1040 H1031 0.950 . S
C1040 C1039 1.398 . S
C1040 C1041 1.391 . S
C1041 H1029 0.950 . S
C1041 C1037 1.393 . S
C1041 C1040 1.391 . S
C1042 H1032 0.950 . S
C1042 C1043 1.386 . S
C1042 C1044 1.391 1_565 S
C1043 C1042 1.386 . S
C1043 C1047 1.393 . S
C1044 H1033 0.950 . S
C1044 C1042 1.391 1_545 S
C1044 C1045 1.400 1_545 S
C1045 C1039 1.491 1_565 S
C1045 C1044 1.400 1_565 S
C1045 C1046 1.398 . S
C1046 H1034 0.950 . S
C1046 C1045 1.398 . S
C1046 C1047 1.391 . S
C1047 H1035 0.950 . S
C1047 C1043 1.393 . S
C1047 C1046 1.391 . S
H1048 C1056 0.950 . S
H1049 C1061 0.950 . S
H1050 C1058 0.950 1_565 S
H1051 C1060 0.950 . S
H1052 C1062 0.950 . S
H1053 C1064 0.950 1_545 S
H1054 C1066 0.950 . S
H1055 C1067 0.950 . S
C1056 H1048 0.950 . S
C1056 C1057 1.386 . S
C1056 C1058 1.391 . S
C1057 C1056 1.386 . S
C1057 C1061 1.393 . S
C1058 H1050 0.950 1_545 S
C1058 C1056 1.391 . S
C1058 C1059 1.400 . S
C1059 C1058 1.400 . S
C1059 C1060 1.398 . S
C1059 C1065 1.491 1_545 S
C1060 H1051 0.950 . S
C1060 C1059 1.398 . S
C1060 C1061 1.391 . S
C1061 H1049 0.950 . S
C1061 C1057 1.393 . S
C1061 C1060 1.391 . S
C1062 H1052 0.950 . S
C1062 C1063 1.386 . S
C1062 C1064 1.391 . S
C1063 C1062 1.386 . S
C1063 C1067 1.393 . S
C1064 H1053 0.950 1_565 S
C1064 C1062 1.391 . S
C1064 C1065 1.400 . S
C1065 C1059 1.491 1_565 S
C1065 C1064 1.400 . S
C1065 C1066 1.398 . S
C1066 H1054 0.950 . S
C1066 C1065 1.398 . S
C1066 C1067 1.391 . S
C1067 H1055 0.950 . S
C1067 C1063 1.393 . S
C1067 C1066 1.391 . S
H1068 C1076 0.950 . S
H1069 C1081 0.950 . S
H1070 C1078 0.950 1_565 S
H1071 C1080 0.950 . S
H1072 C1082 0.950 . S
H1073 C1084 0.950 1_545 S
H1074 C1086 0.950 . S
H1075 C1087 0.950 . S
C1076 H1068 0.950 . S
C1076 C1077 1.386 . S
C1076 C1078 1.391 . S
C1077 C1076 1.386 . S
C1077 C1081 1.393 . S
C1078 H1070 0.950 1_545 S
C1078 C1076 1.391 . S
C1078 C1079 1.400 . S
C1079 C1078 1.400 . S
C1079 C1080 1.398 . S
C1079 C1085 1.491 1_545 S
C1080 H1071 0.950 . S
C1080 C1079 1.398 . S
C1080 C1081 1.391 . S
C1081 H1069 0.950 . S
C1081 C1077 1.393 . S
C1081 C1080 1.391 . S
C1082 H1072 0.950 . S
C1082 C1083 1.386 . S
C1082 C1084 1.391 . S
C1083 C1082 1.386 . S
C1083 C1087 1.393 . S
C1084 H1073 0.950 1_565 S
C1084 C1082 1.391 . S
C1084 C1085 1.400 . S
C1085 C1079 1.491 1_565 S
C1085 C1084 1.400 . S
C1085 C1086 1.398 . S
C1086 H1074 0.950 . S
C1086 C1085 1.398 . S
C1086 C1087 1.391 . S
C1087 H1075 0.950 . S
C1087 C1083 1.393 . S
C1087 C1086 1.391 . S
H1088 C1096 0.950 . S
H1089 C1101 0.950 . S
H1090 C1098 0.950 . S
H1091 C1100 0.950 . S
H1092 C1102 0.950 . S
H1093 C1104 0.950 . S
H1094 C1106 0.950 . S
H1095 C1107 0.950 . S
C1096 H1088 0.950 . S
C1096 C1097 1.386 . S
C1096 C1098 1.391 . S
C1097 C1096 1.386 . S
C1097 C1101 1.393 . S
C1098 H1090 0.950 . S
C1098 C1096 1.391 . S
C1098 C1099 1.400 . S
C1099 C1098 1.400 . S
C1099 C1100 1.398 . S
C1099 C1105 1.491 . S
C1100 H1091 0.950 . S
C1100 C1099 1.398 . S
C1100 C1101 1.391 . S
C1101 H1089 0.950 . S
C1101 C1097 1.393 . S
C1101 C1100 1.391 . S
C1102 H1092 0.950 . S
C1102 C1103 1.386 . S
C1102 C1104 1.391 . S
C1103 C1102 1.386 . S
C1103 C1107 1.393 . S
C1104 H1093 0.950 . S
C1104 C1102 1.391 . S
C1104 C1105 1.400 . S
C1105 C1099 1.491 . S
C1105 C1104 1.400 . S
C1105 C1106 1.398 . S
C1106 H1094 0.950 . S
C1106 C1105 1.398 . S
C1106 C1107 1.391 . S
C1107 H1095 0.950 . S
C1107 C1103 1.393 . S
C1107 C1106 1.391 . S
H1108 C1116 0.950 . S
H1109 C1121 0.950 . S
H1110 C1118 0.950 . S
H1111 C1120 0.950 . S
H1112 C1122 0.950 . S
H1113 C1124 0.950 . S
H1114 C1126 0.950 . S
H1115 C1127 0.950 . S
C1116 H1108 0.950 . S
C1116 C1117 1.386 . S
C1116 C1118 1.391 . S
C1117 C1116 1.386 . S
C1117 C1121 1.393 . S
C1118 H1110 0.950 . S
C1118 C1116 1.391 . S
C1118 C1119 1.400 . S
C1119 C1118 1.400 . S
C1119 C1120 1.398 . S
C1119 C1125 1.491 . S
C1120 H1111 0.950 . S
C1120 C1119 1.398 . S
C1120 C1121 1.391 . S
C1121 H1109 0.950 . S
C1121 C1117 1.393 . S
C1121 C1120 1.391 . S
C1122 H1112 0.950 . S
C1122 C1123 1.386 . S
C1122 C1124 1.391 . S
C1123 C1122 1.386 . S
C1123 C1127 1.393 . S
C1124 H1113 0.950 . S
C1124 C1122 1.391 . S
C1124 C1125 1.400 . S
C1125 C1119 1.491 . S
C1125 C1124 1.400 . S
C1125 C1126 1.398 . S
C1126 H1114 0.950 . S
C1126 C1125 1.398 . S
C1126 C1127 1.391 . S
C1127 H1115 0.950 . S
C1127 C1123 1.393 . S
C1127 C1126 1.391 . S
H1128 C1136 0.950 . S
H1129 C1141 0.950 . S
H1130 C1138 0.950 . S
H1131 C1140 0.950 . S
H1132 C1142 0.950 . S
H1133 C1144 0.950 . S
H1134 C1146 0.950 . S
H1135 C1147 0.950 . S
C1136 H1128 0.950 . S
C1136 C1137 1.386 . S
C1136 C1138 1.391 . S
C1137 C1136 1.386 . S
C1137 C1141 1.393 . S
C1138 H1130 0.950 . S
C1138 C1136 1.391 . S
C1138 C1139 1.400 . S
C1139 C1138 1.400 . S
C1139 C1140 1.398 . S
C1139 C1145 1.491 . S
C1140 H1131 0.950 . S
C1140 C1139 1.398 . S
C1140 C1141 1.391 . S
C1141 H1129 0.950 . S
C1141 C1137 1.393 . S
C1141 C1140 1.391 . S
C1142 H1132 0.950 . S
C1142 C1143 1.386 . S
C1142 C1144 1.391 . S
C1143 C1142 1.386 . S
C1143 C1147 1.393 . S
C1144 H1133 0.950 . S
C1144 C1142 1.391 . S
C1144 C1145 1.400 . S
C1145 C1139 1.491 . S
C1145 C1144 1.400 . S
C1145 C1146 1.398 . S
C1146 H1134 0.950 . S
C1146 C1145 1.398 . S
C1146 C1147 1.391 . S
C1147 H1135 0.950 . S
C1147 C1143 1.393 . S
C1147 C1146 1.391 . S
H1148 C1156 0.950 . S
H1149 C1161 0.950 . S
H1150 C1158 0.950 . S
H1151 C1160 0.950 . S
H1152 C1162 0.950 . S
H1153 C1164 0.950 . S
H1154 C1166 0.950 . S
H1155 C1167 0.950 . S
C1156 H1148 0.950 . S
C1156 C1157 1.386 . S
C1156 C1158 1.391 . S
C1157 C1156 1.386 . S
C1157 C1161 1.393 . S
C1158 H1150 0.950 . S
C1158 C1156 1.391 . S
C1158 C1159 1.400 . S
C1159 C1158 1.400 . S
C1159 C1160 1.398 . S
C1159 C1165 1.491 . S
C1160 H1151 0.950 . S
C1160 C1159 1.398 . S
C1160 C1161 1.391 . S
C1161 H1149 0.950 . S
C1161 C1157 1.393 . S
C1161 C1160 1.391 . S
C1162 H1152 0.950 . S
C1162 C1163 1.386 . S
C1162 C1164 1.391 . S
C1163 C1162 1.386 . S
C1163 C1167 1.393 . S
C1164 H1153 0.950 . S
C1164 C1162 1.391 . S
C1164 C1165 1.400 . S
C1165 C1159 1.491 . S
C1165 C1164 1.400 . S
C1165 C1166 1.398 . S
C1166 H1154 0.950 . S
C1166 C1165 1.398 . S
C1166 C1167 1.391 . S
C1167 H1155 0.950 . S
C1167 C1163 1.393 . S
C1167 C1166 1.391 . S
H1168 C1176 0.950 . S
H1169 C1181 0.950 . S
H1170 C1178 0.957 . S
H1171 C1180 0.950 . S
H1172 C1182 0.950 . S
H1173 C1184 0.957 . S
H1174 C1186 0.950 . S
H1175 C1187 0.950 . S
C1176 H1168 0.950 . S
C1176 C1177 1.386 . S
C1176 C1178 1.391 . S
C1177 C1176 1.386 . S
C1177 C1181 1.393 . S
C1178 H1170 0.957 . S
C1178 C1176 1.391 . S
C1178 C1179 1.400 . S
C1179 C1178 1.400 . S
C1179 C1180 1.398 . S
C1179 C1185 1.491 1_455 S
C1180 H1171 0.950 . S
C1180 C1179 1.398 . S
C1180 C1181 1.391 . S
C1181 H1169 0.950 . S
C1181 C1177 1.393 . S
C1181 C1180 1.391 . S
C1182 H1172 0.950 . S
C1182 C1183 1.386 . S
C1182 C1184 1.391 . S
C1183 C1182 1.386 . S
C1183 C1187 1.393 . S
C1184 H1173 0.957 . S
C1184 C1182 1.391 . S
C1184 C1185 1.400 . S
C1185 C1179 1.491 1_655 S
C1185 C1184 1.400 . S
C1185 C1186 1.398 . S
C1186 H1174 0.950 . S
C1186 C1185 1.398 . S
C1186 C1187 1.391 . S
C1187 H1175 0.950 . S
C1187 C1183 1.393 . S
C1187 C1186 1.391 . S
H1188 C1196 0.950 . S
H1189 C1201 0.950 . S
H1190 C1198 0.950 . S
H1191 C1200 0.950 . S
H1192 C1202 0.950 . S
H1193 C1204 0.950 . S
H1194 C1206 0.950 . S
H1195 C1207 0.950 . S
C1196 H1188 0.950 . S
C1196 C1197 1.386 . S
C1196 C1198 1.391 . S
C1197 C1196 1.386 . S
C1197 C1201 1.393 . S
C1198 H1190 0.950 . S
C1198 C1196 1.391 . S
C1198 C1199 1.400 . S
C1199 C1198 1.400 . S
C1199 C1200 1.398 . S
C1199 C1205 1.491 . S
C1200 H1191 0.950 . S
C1200 C1199 1.398 . S
C1200 C1201 1.391 . S
C1201 H1189 0.950 . S
C1201 C1197 1.393 . S
C1201 C1200 1.391 . S
C1202 H1192 0.950 . S
C1202 C1203 1.386 . S
C1202 C1204 1.391 . S
C1203 C1202 1.386 . S
C1203 C1207 1.393 . S
C1204 H1193 0.950 . S
C1204 C1202 1.391 . S
C1204 C1205 1.400 . S
C1205 C1199 1.491 . S
C1205 C1204 1.400 . S
C1205 C1206 1.398 . S
C1206 H1194 0.950 . S
C1206 C1205 1.398 . S
C1206 C1207 1.391 . S
C1207 H1195 0.950 . S
C1207 C1203 1.393 . S
C1207 C1206 1.391 . S
H1208 C1216 0.950 . S
H1209 C1221 0.950 . S
H1210 C1218 0.950 . S
H1211 C1220 0.950 . S
H1212 C1222 0.950 . S
H1213 C1224 0.950 . S
H1214 C1226 0.950 . S
H1215 C1227 0.950 . S
C1216 H1208 0.950 . S
C1216 C1217 1.386 . S
C1216 C1218 1.391 . S
C1217 C1216 1.386 . S
C1217 C1221 1.393 . S
C1218 H1210 0.950 . S
C1218 C1216 1.391 . S
C1218 C1219 1.400 . S
C1219 C1218 1.400 . S
C1219 C1220 1.398 . S
C1219 C1225 1.491 . S
C1220 H1211 0.950 . S
C1220 C1219 1.398 . S
C1220 C1221 1.391 . S
C1221 H1209 0.950 . S
C1221 C1217 1.393 . S
C1221 C1220 1.391 . S
C1222 H1212 0.950 . S
C1222 C1223 1.386 . S
C1222 C1224 1.391 . S
C1223 C1222 1.386 . S
C1223 C1227 1.393 . S
C1224 H1213 0.950 . S
C1224 C1222 1.391 . S
C1224 C1225 1.400 . S
C1225 C1219 1.491 . S
C1225 C1224 1.400 . S
C1225 C1226 1.398 . S
C1226 H1214 0.950 . S
C1226 C1225 1.398 . S
C1226 C1227 1.391 . S
C1227 H1215 0.950 . S
C1227 C1223 1.393 . S
C1227 C1226 1.391 . S
H1228 C1236 0.950 . S
H1229 C1241 0.950 . S
H1230 C1238 0.950 1_455 S
H1231 C1240 0.950 . S
H1232 C1242 0.950 . S
H1233 C1244 0.950 1_655 S
H1234 C1246 0.950 . S
H1235 C1247 0.950 . S
C1236 H1228 0.950 . S
C1236 C1237 1.386 . S
C1236 C1238 1.391 . S
C1237 C1236 1.386 . S
C1237 C1241 1.393 . S
C1238 H1230 0.950 1_655 S
C1238 C1236 1.391 . S
C1238 C1239 1.400 . S
C1239 C1238 1.400 . S
C1239 C1240 1.398 . S
C1239 C1245 1.491 1_655 S
C1240 H1231 0.950 . S
C1240 C1239 1.398 . S
C1240 C1241 1.391 . S
C1241 H1229 0.950 . S
C1241 C1237 1.393 . S
C1241 C1240 1.391 . S
C1242 H1232 0.950 . S
C1242 C1243 1.386 . S
C1242 C1244 1.391 . S
C1243 C1242 1.386 . S
C1243 C1247 1.393 . S
C1244 H1233 0.950 1_455 S
C1244 C1242 1.391 . S
C1244 C1245 1.400 . S
C1245 C1239 1.491 1_455 S
C1245 C1244 1.400 . S
C1245 C1246 1.398 . S
C1246 H1234 0.950 . S
C1246 C1245 1.398 . S
C1246 C1247 1.391 . S
C1247 H1235 0.950 . S
C1247 C1243 1.393 . S
C1247 C1246 1.391 . S
H1248 C1256 0.950 . S
H1249 C1261 0.950 . S
H1250 C1258 0.950 1_455 S
H1251 C1260 0.950 . S
H1252 C1262 0.950 . S
H1253 C1264 0.950 1_655 S
H1254 C1266 0.950 . S
H1255 C1267 0.950 . S
C1256 H1248 0.950 . S
C1256 C1257 1.386 . S
C1256 C1258 1.391 . S
C1257 C1256 1.386 . S
C1257 C1261 1.393 . S
C1258 H1250 0.950 1_655 S
C1258 C1256 1.391 . S
C1258 C1259 1.400 . S
C1259 C1258 1.400 . S
C1259 C1260 1.398 . S
C1259 C1265 1.491 1_655 S
C1260 H1251 0.950 . S
C1260 C1259 1.398 . S
C1260 C1261 1.391 . S
C1261 H1249 0.950 . S
C1261 C1257 1.393 . S
C1261 C1260 1.391 . S
C1262 H1252 0.950 . S
C1262 C1263 1.386 . S
C1262 C1264 1.391 . S
C1263 C1262 1.386 . S
C1263 C1267 1.393 . S
C1264 H1253 0.950 1_455 S
C1264 C1262 1.391 . S
C1264 C1265 1.400 . S
C1265 C1259 1.491 1_455 S
C1265 C1264 1.400 . S
C1265 C1266 1.398 . S
C1266 H1254 0.950 . S
C1266 C1265 1.398 . S
C1266 C1267 1.391 . S
C1267 H1255 0.950 . S
C1267 C1263 1.393 . S
C1267 C1266 1.391 . S
H1268 C1276 0.950 . S
H1269 C1281 0.950 . S
H1270 C1278 0.950 . S
H1271 C1280 0.950 . S
H1272 C1282 0.950 . S
H1273 C1284 0.950 . S
H1274 C1286 0.950 . S
H1275 C1287 0.950 . S
C1276 H1268 0.950 . S
C1276 C1277 1.386 . S
C1276 C1278 1.391 . S
C1277 C1276 1.386 . S
C1277 C1281 1.393 . S
C1278 H1270 0.950 . S
C1278 C1276 1.391 . S
C1278 C1279 1.400 . S
C1279 C1278 1.400 . S
C1279 C1280 1.398 . S
C1279 C1285 1.491 . S
C1280 H1271 0.950 . S
C1280 C1279 1.398 . S
C1280 C1281 1.391 . S
C1281 H1269 0.950 . S
C1281 C1277 1.393 . S
C1281 C1280 1.391 . S
C1282 H1272 0.950 . S
C1282 C1283 1.386 . S
C1282 C1284 1.391 . S
C1283 C1282 1.386 . S
C1283 C1287 1.393 . S
C1284 H1273 0.950 . S
C1284 C1282 1.391 . S
C1284 C1285 1.400 . S
C1285 C1279 1.491 . S
C1285 C1284 1.400 . S
C1285 C1286 1.398 . S
C1286 H1274 0.950 . S
C1286 C1285 1.398 . S
C1286 C1287 1.391 . S
C1287 H1275 0.950 . S
C1287 C1283 1.393 . S
C1287 C1286 1.391 . S
H1288 C1296 0.950 . S
H1289 C1301 0.950 . S
H1290 C1298 0.950 . S
H1291 C1300 0.950 . S
H1292 C1302 0.950 . S
H1293 C1304 0.950 . S
H1294 C1306 0.950 . S
H1295 C1307 0.950 . S
C1296 H1288 0.950 . S
C1296 C1297 1.386 . S
C1296 C1298 1.391 . S
C1297 C1296 1.386 . S
C1297 C1301 1.393 . S
C1298 H1290 0.950 . S
C1298 C1296 1.391 . S
C1298 C1299 1.400 . S
C1299 C1298 1.400 . S
C1299 C1300 1.398 . S
C1299 C1305 1.491 . S
C1300 H1291 0.950 . S
C1300 C1299 1.398 . S
C1300 C1301 1.391 . S
C1301 H1289 0.950 . S
C1301 C1297 1.393 . S
C1301 C1300 1.391 . S
C1302 H1292 0.950 . S
C1302 C1303 1.386 . S
C1302 C1304 1.391 . S
C1303 C1302 1.386 . S
C1303 C1307 1.393 . S
C1304 H1293 0.950 . S
C1304 C1302 1.391 . S
C1304 C1305 1.400 . S
C1305 C1299 1.491 . S
C1305 C1304 1.400 . S
C1305 C1306 1.398 . S
C1306 H1294 0.950 . S
C1306 C1305 1.398 . S
C1306 C1307 1.391 . S
C1307 H1295 0.950 . S
C1307 C1303 1.393 . S
C1307 C1306 1.391 . S
H1308 C1316 0.950 . S
H1309 C1321 0.950 . S
H1310 C1318 0.950 . S
H1311 C1320 0.950 1_455 S
H1312 C1322 0.950 . S
H1313 C1324 0.950 . S
H1314 C1326 0.950 1_655 S
H1315 C1327 0.950 . S
C1316 H1308 0.950 . S
C1316 C1317 1.386 . S
C1316 C1318 1.391 . S
C1317 C1316 1.386 . S
C1317 C1321 1.393 . S
C1318 H1310 0.950 . S
C1318 C1316 1.391 . S
C1318 C1319 1.400 . S
C1319 C1318 1.400 . S
C1319 C1320 1.398 . S
C1319 C1325 1.491 1_655 S
C1320 H1311 0.950 1_655 S
C1320 C1319 1.398 . S
C1320 C1321 1.391 . S
C1321 H1309 0.950 . S
C1321 C1317 1.393 . S
C1321 C1320 1.391 . S
C1322 H1312 0.950 . S
C1322 C1323 1.386 . S
C1322 C1324 1.391 . S
C1323 C1322 1.386 . S
C1323 C1327 1.393 . S
C1324 H1313 0.950 . S
C1324 C1322 1.391 . S
C1324 C1325 1.400 . S
C1325 C1319 1.491 1_455 S
C1325 C1324 1.400 . S
C1325 C1326 1.398 . S
C1326 H1314 0.950 1_455 S
C1326 C1325 1.398 . S
C1326 C1327 1.391 . S
C1327 H1315 0.950 . S
C1327 C1323 1.393 . S
C1327 C1326 1.391 . S
C537 C107 1.459 . S
C543 C8 1.472 . S
C557 C74 1.459 . S
C563 C41 1.472 . S
C577 C140 1.473 . S
C583 C239 1.458 . S
C597 C173 1.462 . S
C603 C206 1.476 . S
C617 C272 1.475 . S
C623 C371 1.462 . S
C637 C305 1.471 . S
C643 C338 1.469 . S
C657 C503 1.472 . S
C663 C404 1.459 . S
C677 C470 1.476 . S
C683 C437 1.458 . S
C697 N14 0.589 . S
C703 N344 0.582 . S
C717 N377 0.554 . S
C723 N47 0.553 . S
C737 N278 0.597 . S
C743 N80 0.599 . S
C757 N311 0.566 . S
C763 N113 0.560 . S
C777 N476 0.555 . S
C783 N146 0.553 . S
C797 N509 0.586 . S
C803 N179 0.593 . S
C817 N410 0.595 . S
C823 N212 0.598 . S
C837 N443 0.565 . S
C843 N245 0.558 . S
C857 N5 1.466 . S
C863 N137 1.466 . S
C877 N38 1.466 . S
C883 N170 1.466 . S
C897 N203 1.476 . S
C903 N71 1.476 . S
C917 N104 1.475 . S
C923 N236 1.475 . S
C937 N269 1.468 . S
C943 N401 1.468 . S
C957 N434 1.468 . S
C963 N302 1.468 . S
C977 N335 1.484 . S
C983 N467 1.484 . S
C997 N500 1.478 . S
C1003 N368 1.478 . S
C1017 C17 1.357 . S
C1023 C50 1.351 . S
C1037 C116 1.357 . S
C1043 C83 1.362 . S
C1057 C182 1.352 . S
C1063 C149 1.349 . S
C1077 C215 1.364 . S
C1083 C248 1.361 . S
C1097 C314 1.352 . S
C1103 C281 1.358 . S
C1117 C380 1.349 . S
C1123 C347 1.351 . S
C1137 C413 1.350 . S
C1143 C446 1.355 . S
C1157 C512 1.353 . S
C1163 C479 1.358 . S
C1177 C28 0.675 . S
C1183 C325 0.626 . S
C1197 C61 0.626 . S
C1203 C292 0.695 . S
C1217 C94 0.636 . S
C1223 C391 0.658 . S
C1237 C127 0.702 . S
C1243 C358 0.647 . S
C1257 C160 0.639 . S
C1263 C457 0.703 . S
C1277 C424 0.636 . S
C1283 C193 0.657 . S
C1297 C226 0.628 . S
C1303 C523 0.698 . S
C1317 C490 0.701 . S
C1323 C259 0.633 . S
