# Generated by pormake.
# Topology snk, (6)-cn, num edge types: 1
# Building blocks:
#     Node 0, Type 0, BuildingBlock: PAMTUU_clean_sbu_0, # of connection points: 6
#     Node 1, Type 0, BuildingBlock: PAMTUU_clean_sbu_0, # of connection points: 6
#     Node 2, Type 0, BuildingBlock: PAMTUU_clean_sbu_0, # of connection points: 6
#     Node 3, Type 0, BuildingBlock: PAMTUU_clean_sbu_0, # of connection points: 6
#     Node 4, Type 0, BuildingBlock: PAMTUU_clean_sbu_0, # of connection points: 6
#     Node 5, Type 0, BuildingBlock: PAMTUU_clean_sbu_0, # of connection points: 6
#     Node 6, Type 0, BuildingBlock: PAMTUU_clean_sbu_0, # of connection points: 6
#     Node 7, Type 0, BuildingBlock: PAMTUU_clean_sbu_0, # of connection points: 6
#     Edge 8, Type (0, 0), BuildingBlock: UVAHIK_clean_linker_0, # of connection points: 2
#     Edge 9, Type (0, 0), BuildingBlock: UVAHIK_clean_linker_0, # of connection points: 2
#     Edge 10, Type (0, 0), BuildingBlock: UVAHIK_clean_linker_0, # of connection points: 2
#     Edge 11, Type (0, 0), BuildingBlock: UVAHIK_clean_linker_0, # of connection points: 2
#     Edge 12, Type (0, 0), BuildingBlock: UVAHIK_clean_linker_0, # of connection points: 2
#     Edge 13, Type (0, 0), BuildingBlock: UVAHIK_clean_linker_0, # of connection points: 2
#     Edge 14, Type (0, 0), BuildingBlock: UVAHIK_clean_linker_0, # of connection points: 2
#     Edge 15, Type (0, 0), BuildingBlock: UVAHIK_clean_linker_0, # of connection points: 2
#     Edge 16, Type (0, 0), BuildingBlock: UVAHIK_clean_linker_0, # of connection points: 2
#     Edge 17, Type (0, 0), BuildingBlock: UVAHIK_clean_linker_0, # of connection points: 2
#     Edge 18, Type (0, 0), BuildingBlock: UVAHIK_clean_linker_0, # of connection points: 2
#     Edge 19, Type (0, 0), BuildingBlock: UVAHIK_clean_linker_0, # of connection points: 2
#     Edge 20, Type (0, 0), BuildingBlock: UVAHIK_clean_linker_0, # of connection points: 2
#     Edge 21, Type (0, 0), BuildingBlock: UVAHIK_clean_linker_0, # of connection points: 2
#     Edge 22, Type (0, 0), BuildingBlock: UVAHIK_clean_linker_0, # of connection points: 2
#     Edge 23, Type (0, 0), BuildingBlock: UVAHIK_clean_linker_0, # of connection points: 2
#     Edge 24, Type (0, 0), BuildingBlock: UVAHIK_clean_linker_0, # of connection points: 2
#     Edge 25, Type (0, 0), BuildingBlock: UVAHIK_clean_linker_0, # of connection points: 2
#     Edge 26, Type (0, 0), BuildingBlock: UVAHIK_clean_linker_0, # of connection points: 2
#     Edge 27, Type (0, 0), BuildingBlock: UVAHIK_clean_linker_0, # of connection points: 2
#     Edge 28, Type (0, 0), BuildingBlock: UVAHIK_clean_linker_0, # of connection points: 2
#     Edge 29, Type (0, 0), BuildingBlock: UVAHIK_clean_linker_0, # of connection points: 2
#     Edge 30, Type (0, 0), BuildingBlock: UVAHIK_clean_linker_0, # of connection points: 2
#     Edge 31, Type (0, 0), BuildingBlock: UVAHIK_clean_linker_0, # of connection points: 2
# Relax obj value: 0.065
# Max RMSD: 0.112
# Mean RMSD: 0.112
data_MOF--net-snk--node1-PAMTUU_clean_sbu_0--edge1-UVAHIK_clean_linker_0
_symmetry_space_group_name_H-M    P1
_symmetry_Int_Tables_number       1
_symmetry_cell_setting            triclinic
loop_
_symmetry_equiv_pos_as_xyz
'x, y, z'
_cell_length_a     51.185941
_cell_length_b     51.082694
_cell_length_c     30.530135
_cell_angle_alpha  90.060618
_cell_angle_beta   90.099162
_cell_angle_gamma 90.097518
loop_
_atom_site_label
_atom_site_type_symbol
_atom_site_fract_x
_atom_site_fract_y
_atom_site_fract_z
_atom_type_partial_charge
Tb0 Tb -0.00175 0.0079 0.56563 0.0
Tb1 Tb -0.00213 0.97765 0.467 0.0
C2 C 0.96502 0.02763 0.48515 0.0
C3 C -0.00233 0.02255 0.68822 0.0
C4 C -0.00199 0.01181 0.77966 0.0
C5 C 0.98697 0.03505 0.76317 0.0
C6 C 0.98682 0.0403 0.71815 0.0
C7 C 0.00869 -0.00075 0.7042 0.0
C8 C 0.00892 -0.00604 0.74946 0.0
C9 C -0.00279 0.0292 0.64091 0.0
O10 O 0.97966 0.97034 0.57435 0.0
O11 O 0.96432 0.96372 0.50436 0.0
O12 O 0.01699 0.9512 0.51251 0.0
O13 O 0.03149 0.98154 0.56305 0.0
O14 O 0.97627 0.96516 0.41225 0.0
O15 O 0.01778 0.95824 0.41587 0.0
O16 O 0.03157 0.00349 0.4693 0.0
O17 O 0.01864 0.03384 0.52098 0.0
O18 O 0.96536 0.0228 0.52748 0.0
O19 O 0.9809 0.01591 0.45785 0.0
C20 C 0.96342 0.9592 0.54678 0.0
O21 O 0.01847 0.02537 0.61831 0.0
O22 O 0.97647 0.02228 0.61893 0.0
C23 C 0.0325 0.9582 0.54491 0.0
C24 C -0.00063 0.96367 0.3445 0.0
C25 C 0.00131 0.97392 0.2529 0.0
C26 C 0.01187 0.95073 0.27048 0.0
C27 C 0.01087 0.9457 0.3156 0.0
C28 C 0.98922 0.98711 0.3274 0.0
C29 C 0.99014 -0.00785 0.28214 0.0
C30 C -0.00315 0.95665 0.39156 0.0
C31 C 0.03342 0.0267 0.48783 0.0
H32 H 0.97878 0.0495 0.78516 0.0
H33 H 0.97828 0.05844 0.70666 0.0
H34 H 0.0171 0.98517 0.68174 0.0
H35 H 0.01736 0.97575 0.76073 0.0
H36 H 0.02031 0.93603 0.24923 0.0
H37 H 0.01867 0.92741 0.32787 0.0
H38 H 0.98027 0.00138 0.3489 0.0
H39 H 0.98213 0.01037 0.27007 0.0
Tb40 Tb 0.22758 0.73374 0.80592 0.0
Tb41 Tb 0.25774 0.73468 0.70719 0.0
C42 C 0.20735 0.7008 0.72601 0.0
C43 C 0.21452 0.73152 0.92859 0.0
C44 C 0.2248 0.7299 0.0202 0.0
C45 C 0.20345 0.71625 1.00198 0.0
C46 C 0.19837 0.71712 0.95685 0.0
C47 C 0.23626 0.7447 0.94636 0.0
C48 C 0.2413 0.74394 0.99162 0.0
C49 C 0.20712 0.73395 0.88164 0.0
O50 O 0.25295 0.69982 0.80204 0.0
O51 O 0.28347 0.71374 0.75163 0.0
O52 O 0.27228 0.76739 0.74604 0.0
O53 O 0.26573 0.751 0.81522 0.0
O54 O 0.27549 0.71476 0.65468 0.0
O55 O 0.27223 0.75684 0.65434 0.0
O56 O 0.2207 0.75413 0.69859 0.0
O57 O 0.21285 0.76738 0.76958 0.0
O58 O 0.20091 0.71503 0.76027 0.0
O59 O 0.23047 0.70217 0.7074 0.0
C60 C 0.27621 0.69836 0.78398 0.0
O61 O 0.21491 0.75487 0.86093 0.0
O62 O 0.20899 0.7131 0.85714 0.0
C63 C 0.27719 0.76734 0.78832 0.0
C64 C 0.27217 0.73576 0.58492 0.0
C65 C 0.2613 0.73502 0.49351 0.0
C66 C 0.28242 0.74958 0.51048 0.0
C67 C 0.28774 0.74992 0.55549 0.0
C68 C 0.25091 0.72129 0.56844 0.0
C69 C 0.24558 0.72088 0.52321 0.0
C70 C 0.27908 0.73616 0.63217 0.0
C71 C 0.20903 0.76938 0.72705 0.0
H72 H 0.1901 0.7055 0.02278 0.0
H73 H 0.18139 0.70694 0.94409 0.0
H74 H 0.24913 0.75594 0.92542 0.0
H75 H 0.25813 0.75439 1.00421 0.0
H76 H 0.29524 0.76038 0.48885 0.0
H77 H 0.3043 0.76113 0.56735 0.0
H78 H 0.2385 0.71027 0.59045 0.0
H79 H 0.22899 0.70967 0.51156 0.0
Tb80 Tb 0.48397 0.97786 0.05761 0.0
Tb81 Tb 0.48197 0.00858 0.95896 0.0
C82 C 0.51715 0.95982 0.97595 0.0
C83 C 0.48509 0.96253 0.17985 0.0
C84 C 0.48285 0.9724 0.27154 0.0
C85 C 0.49499 0.94974 0.25499 0.0
C86 C 0.49606 0.9449 0.20985 0.0
C87 C 0.4732 0.9854 0.19586 0.0
C88 C 0.47211 0.9903 0.24123 0.0
C89 C 0.48621 0.95619 0.13243 0.0
O90 O 0.50193 0.0157 0.06636 0.0
O91 O 0.51503 0.02433 0.99561 0.0
O92 O 0.46242 0.03433 1.00504 0.0
O93 O 0.45064 0.00407 0.05767 0.0
O94 O 0.50253 0.02227 0.90407 0.0
O95 O 0.46071 0.02672 0.90795 0.0
O96 O 0.44906 0.98189 0.96251 0.0
O97 O 0.46384 0.95165 0.01288 0.0
O98 O 0.51677 0.96402 0.01849 0.0
O99 O 0.50069 0.9712 0.94913 0.0
C100 C 0.51675 0.02811 0.03818 0.0
O101 O 0.46481 0.95876 0.10958 0.0
O102 O 0.50653 0.96457 0.1109 0.0
C103 C 0.44851 0.02726 0.0393 0.0
C104 C 0.4792 0.02261 0.8364 0.0
C105 C 0.47826 0.01286 0.74454 0.0
C106 C 0.46667 0.03549 0.76235 0.0
C107 C 0.46718 0.04028 0.80758 0.0
C108 C 0.49025 -0.00037 0.81909 0.0
C109 C 0.48976 -0.0052 0.77371 0.0
C110 C 0.48141 0.0296 0.88356 0.0
C111 C 0.44828 0.95853 0.98055 0.0
H112 H 0.50396 0.93573 0.27693 0.0
H113 H 0.50547 0.92721 0.19831 0.0
H114 H 0.46462 -0.00065 0.17336 0.0
H115 H 0.46243 0.00787 0.25255 0.0
H116 H 0.45718 0.04964 0.74131 0.0
H117 H 0.45852 0.05813 0.82004 0.0
H118 H 0.49972 0.98565 0.84052 0.0
H119 H 0.49906 0.97726 0.76142 0.0
Tb120 Tb 0.25478 0.24988 0.31022 0.0
Tb121 Tb 0.22506 0.24793 0.21131 0.0
C122 C 0.27399 0.2838 0.23082 0.0
C123 C 0.26788 0.25225 0.43289 0.0
C124 C 0.25756 0.25364 0.52442 0.0
C125 C 0.2786 0.26777 0.50639 0.0
C126 C 0.2837 0.26702 0.46129 0.0
C127 C 0.24644 0.23858 0.45048 0.0
C128 C 0.24139 0.23923 0.4957 0.0
C129 C 0.27532 0.25002 0.38598 0.0
O130 O 0.22836 0.28299 0.30656 0.0
O131 O 0.19866 0.26868 0.25476 0.0
O132 O 0.21103 0.2151 0.2505 0.0
O133 O 0.21688 0.23222 0.3194 0.0
O134 O 0.20644 0.26674 0.15848 0.0
O135 O 0.21208 0.2249 0.15825 0.0
O136 O 0.26326 0.23073 0.2035 0.0
O137 O 0.26969 0.21625 0.27394 0.0
O138 O 0.28083 0.2697 0.26504 0.0
O139 O 0.25103 0.28153 0.21175 0.0
C140 C 0.20532 0.28413 0.28747 0.0
O141 O 0.26797 0.22896 0.3651 0.0
O142 O 0.27299 0.27085 0.36161 0.0
C143 C 0.20578 0.21548 0.29266 0.0
C144 C 0.21097 0.24584 0.08881 0.0
C145 C 0.22176 0.24708 0.99748 0.0
C146 C 0.20109 0.23187 0.01421 0.0
C147 C 0.1958 0.23129 0.05919 0.0
C148 C 0.23178 0.26096 0.07257 0.0
C149 C 0.23708 0.26162 0.02737 0.0
C150 C 0.20409 0.24512 0.13599 0.0
C151 C 0.27489 0.21535 0.23177 0.0
H152 H 0.29169 0.27883 0.52731 0.0
H153 H 0.30044 0.27758 0.44867 0.0
H154 H 0.23382 0.22706 0.42942 0.0
H155 H 0.22479 0.2284 0.50816 0.0
H156 H 0.18857 0.22074 0.99243 0.0
H157 H 0.17959 0.21957 0.07087 0.0
H158 H 0.24387 0.2723 0.09476 0.0
H159 H 0.25332 0.27334 0.01589 0.0
Tb160 Tb 0.72828 0.23452 0.30644 0.0
Tb161 Tb 0.75772 0.23337 0.20769 0.0
C162 C 0.707 0.20093 0.22851 0.0
C163 C 0.71516 0.23327 0.42899 0.0
C164 C 0.72542 0.23099 0.52051 0.0
C165 C 0.70407 0.21746 0.50203 0.0
C166 C 0.69901 0.21865 0.45693 0.0
C167 C 0.73689 0.24634 0.44704 0.0
C168 C 0.74191 0.24525 0.49226 0.0
C169 C 0.70783 0.23597 0.38207 0.0
O170 O 0.75291 0.19998 0.30378 0.0
O171 O 0.78337 0.21242 0.2522 0.0
O172 O 0.77336 0.26614 0.24538 0.0
O173 O 0.76694 0.25061 0.31509 0.0
O174 O 0.77431 0.21261 0.15502 0.0
O175 O 0.77269 0.25479 0.1544 0.0
O176 O 0.72073 0.25305 0.19915 0.0
O177 O 0.71517 0.26854 0.26928 0.0
O178 O 0.70088 0.2165 0.26123 0.0
O179 O 0.73029 0.20095 0.21041 0.0
C180 C 0.77602 0.19771 0.28536 0.0
O181 O 0.71655 0.25645 0.36117 0.0
O182 O 0.70869 0.21497 0.35775 0.0
C183 C 0.77867 0.26633 0.28753 0.0
C184 C 0.77173 0.23363 0.08512 0.0
C185 C 0.76096 0.23334 0.99372 0.0
C186 C 0.78191 0.24801 0.01096 0.0
C187 C 0.78719 0.24812 0.05598 0.0
C188 C 0.75063 0.21905 0.06835 0.0
C189 C 0.74535 0.21886 0.0231 0.0
C190 C 0.77866 0.2338 0.13234 0.0
C191 C 0.71005 0.26938 0.22703 0.0
H192 H 0.69074 0.20654 0.52262 0.0
H193 H 0.68204 0.20856 0.44396 0.0
H194 H 0.74978 0.25772 0.42635 0.0
H195 H 0.75873 0.25562 0.5051 0.0
H196 H 0.79465 0.25907 0.98955 0.0
H197 H 0.80363 0.25943 0.06805 0.0
H198 H 0.73831 0.20776 0.09013 0.0
H199 H 0.72889 0.20755 0.01121 0.0
Tb200 Tb 0.75565 0.74946 0.81066 0.0
Tb201 Tb 0.72451 0.74807 0.71242 0.0
C202 C 0.77381 0.78269 0.72927 0.0
C203 C 0.77054 0.75021 0.93315 0.0
C204 C 0.75995 0.74875 0.02469 0.0
C205 C 0.78235 0.76145 1.00832 0.0
C206 C 0.78752 0.76216 0.96327 0.0
C207 C 0.74809 0.7375 0.94901 0.0
C208 C 0.74288 0.73672 0.9943 0.0
C209 C 0.77713 0.75121 0.88579 0.0
O210 O 0.71778 0.76714 0.8199 0.0
O211 O 0.70922 0.78112 0.74965 0.0
O212 O 0.69896 0.7282 0.75848 0.0
O213 O 0.73001 0.71566 0.80917 0.0
O214 O 0.71103 0.7688 0.65744 0.0
O215 O 0.70601 0.72696 0.66144 0.0
O216 O 0.75065 0.71476 0.71604 0.0
O217 O 0.78154 0.72925 0.7656 0.0
O218 O 0.76979 0.78229 0.77182 0.0
O219 O 0.76204 0.76643 0.70244 0.0
C220 C 0.7054 0.78235 0.79224 0.0
O221 O 0.7742 0.72986 0.86281 0.0
O222 O 0.76937 0.77175 0.86412 0.0
C223 C 0.7066 0.71361 0.79164 0.0
C224 C 0.71074 0.74528 0.58982 0.0
C225 C 0.7212 0.74344 0.49818 0.0
C226 C 0.69871 0.73152 0.51583 0.0
C227 C 0.69357 0.73247 0.56095 0.0
C228 C 0.7335 0.75679 0.57264 0.0
C229 C 0.73865 0.75591 0.5274 0.0
C230 C 0.70353 0.74769 0.63688 0.0
C231 C 0.7741 0.71359 0.73365 0.0
H232 H 0.79623 0.77055 0.0304 0.0
H233 H 0.80502 0.77198 0.95191 0.0
H234 H 0.7346 0.72818 0.92645 0.0
H235 H 0.72531 0.72697 1.00542 0.0
H236 H 0.68459 0.72203 0.49463 0.0
H237 H 0.67579 0.7236 0.57323 0.0
H238 H 0.74716 0.76676 0.59407 0.0
H239 H 0.75635 0.76499 0.51534 0.0
Tb240 Tb 0.49638 0.50675 0.06298 0.0
Tb241 Tb 0.49879 0.47698 0.96428 0.0
C242 C 0.46426 0.52585 0.98107 0.0
C243 C 0.49431 0.5215 0.18535 0.0
C244 C 0.49658 0.51186 0.27701 0.0
C245 C 0.48104 0.53216 0.2599 0.0
C246 C 0.47996 0.53689 0.21476 0.0
C247 C 0.50955 0.50088 0.20192 0.0
C248 C 0.51065 0.4961 0.24728 0.0
C249 C 0.49334 0.52802 0.13802 0.0
O250 O 0.47927 0.4684 0.07067 0.0
O251 O 0.46512 0.46192 1.00002 0.0
O252 O 0.51847 0.4509 1.00968 0.0
O253 O 0.52989 0.4807 0.06345 0.0
O254 O 0.47812 0.46357 0.90916 0.0
O255 O 0.51995 0.45899 0.91306 0.0
O256 O 0.53207 0.50316 0.96921 0.0
O257 O 0.51697 0.53326 0.01942 0.0
O258 O 0.46368 0.52055 0.02323 0.0
O259 O 0.48119 0.5149 0.95468 0.0
C260 C 0.46405 0.45671 0.04216 0.0
O261 O 0.51491 0.526 0.11555 0.0
O262 O 0.47326 0.51942 0.11594 0.0
C263 C 0.53242 0.4578 0.0441 0.0
C264 C 0.50145 0.46364 0.84154 0.0
C265 C 0.50261 0.47326 0.74974 0.0
C266 C 0.51699 0.45256 0.76834 0.0
C267 C 0.51636 0.44781 0.81354 0.0
C268 C 0.48761 0.48481 0.82344 0.0
C269 C 0.48819 0.48957 0.7781 0.0
C270 C 0.49922 0.45637 0.88854 0.0
C271 C 0.53291 0.52642 0.98765 0.0
H272 H 0.4695 0.54439 0.28141 0.0
H273 H 0.46796 0.55282 0.20278 0.0
H274 H 0.52079 0.48866 0.1799 0.0
H275 H 0.52298 0.4804 0.25909 0.0
H276 H 0.52875 0.43987 0.74793 0.0
H277 H 0.52721 0.43136 0.8266 0.0
H278 H 0.47588 0.49737 0.84416 0.0
H279 H 0.47669 0.50557 0.76518 0.0
Tb280 Tb 0.98396 0.47794 0.55765 0.0
Tb281 Tb 0.98246 0.5078 0.45892 0.0
C282 C 0.01634 0.45846 0.47635 0.0
C283 C 0.98564 0.46346 0.68014 0.0
C284 C 0.98462 0.47404 0.77161 0.0
C285 C -0.00204 0.45211 0.7549 0.0
C286 C -0.00155 0.44694 0.70985 0.0
C287 C 0.97234 0.48549 0.69634 0.0
C288 C 0.97179 0.49068 0.74162 0.0
C289 C 0.98631 0.4568 0.63284 0.0
O290 O 0.00153 0.51608 0.56572 0.0
O291 O 0.01616 0.52232 0.49537 0.0
O292 O 0.96314 0.5341 0.50446 0.0
O293 O 0.95049 0.50395 0.55654 0.0
O294 O 0.00342 0.52091 0.40408 0.0
O295 O 0.96168 0.52625 0.40769 0.0
O296 O 0.94916 0.48159 0.46255 0.0
O297 O 0.96337 0.45157 0.51374 0.0
O298 O 0.01663 0.46364 0.51857 0.0
O299 O -0.00011 0.46977 0.44948 0.0
C300 C 0.01706 0.52756 0.53754 0.0
O301 O 0.96481 0.45953 0.61031 0.0
O302 O 0.00664 0.46468 0.61081 0.0
C303 C 0.94868 0.52716 0.53814 0.0
C304 C 0.98013 0.52114 0.33637 0.0
C305 C 0.97859 0.51063 0.24484 0.0
C306 C 0.96616 0.53285 0.2625 0.0
C307 C 0.96698 0.53802 0.30759 0.0
C308 C -0.00789 0.4986 0.31918 0.0
C309 C -0.00862 0.49344 0.27395 0.0
C310 C 0.98248 0.52851 0.38333 0.0
C311 C 0.948 0.45839 0.48111 0.0
H312 H 0.0077 0.43856 0.77673 0.0
H313 H 0.00874 0.42978 0.69818 0.0
H314 H 0.96237 0.49862 0.67406 0.0
H315 H 0.96154 0.5079 0.75308 0.0
H316 H 0.95641 0.54674 0.2413 0.0
H317 H 0.95775 0.55562 0.31993 0.0
H318 H 0.00235 0.48517 0.34058 0.0
H319 H 0.00086 0.47596 0.26179 0.0
C320 C 0.06365 0.04069 0.42809 0.0
C321 C 0.05179 0.04584 0.46871 0.0
C322 C 0.08007 0.05916 0.40881 0.0
C323 C 0.12198 0.11517 0.43358 0.0
H324 H 0.11256 0.13221 0.31076 0.0
C325 C 0.17723 0.20032 0.35365 0.0
C326 C 0.18695 0.1966 0.31108 0.0
C327 C 0.1602 0.18216 0.37215 0.0
C328 C 0.11567 0.12743 0.34492 0.0
H329 H 0.04816 0.07426 0.52122 0.0
H330 H 0.07714 0.10648 0.48754 0.0
H331 H 0.0842 0.09975 0.34509 0.0
H332 H 0.18624 0.17106 0.25432 0.0
H333 H 0.15687 0.1389 0.28709 0.0
H334 H 0.15368 0.1424 0.43346 0.0
C335 C 0.07365 0.0881 0.47077 0.0
C336 C 0.0994 0.10891 0.36457 0.0
C337 C 0.05701 0.06971 0.48993 0.0
C338 C 0.17899 0.17449 0.28713 0.0
C339 C 0.16208 0.15614 0.30586 0.0
C340 C 0.13839 0.13351 0.41388 0.0
C341 C 0.08516 0.08305 0.42988 0.0
C342 C 0.10238 0.10268 0.4091 0.0
C343 C 0.15267 0.15969 0.34873 0.0
C344 C 0.13536 0.13994 0.36936 0.0
H345 H 0.06 0.02254 0.41075 0.0
H346 H 0.08893 0.05468 0.3775 0.0
H347 H 0.12491 0.11043 0.46782 0.0
H348 H 0.18275 0.21731 0.37283 0.0
H349 H 0.15287 0.1858 0.40485 0.0
C350 C 0.07221 0.94743 0.58888 0.0
C351 C 0.05105 0.93897 0.56306 0.0
C352 C 0.08938 0.92931 0.60726 0.0
C353 C 0.09386 0.86191 0.6446 0.0
H354 H 0.16863 0.87091 0.63014 0.0
C355 C 0.17181 0.80066 0.73723 0.0
C356 C 0.19091 0.78941 0.71012 0.0
C357 C 0.15445 0.81924 0.72039 0.0
C358 C 0.14779 0.86822 0.63445 0.0
H359 H 0.03119 0.90493 0.53645 0.0
H360 H 0.06113 0.87319 0.56923 0.0
H361 H 0.13861 0.90267 0.59761 0.0
H362 H 0.20713 0.7891 0.64444 0.0
H363 H 0.17716 0.82181 0.61549 0.0
H364 H 0.1031 0.82748 0.68162 0.0
C365 C 0.06438 0.89388 0.57497 0.0
C366 C 0.13068 0.88639 0.61606 0.0
C367 C 0.0474 0.91203 0.55599 0.0
C368 C 0.19254 0.79732 0.66612 0.0
C369 C 0.17552 0.81614 0.64957 0.0
C370 C 0.11101 0.84393 0.66358 0.0
C371 C 0.08551 0.90239 0.60072 0.0
C372 C 0.10357 0.88328 0.6207 0.0
C373 C 0.15627 0.82718 0.67646 0.0
C374 C 0.1381 0.84684 0.65833 0.0
H375 H 0.07556 0.96807 0.59487 0.0
H376 H 0.10547 0.93633 0.6272 0.0
H377 H 0.07301 0.85924 0.64887 0.0
H378 H 0.17005 0.79488 0.77122 0.0
H379 H 0.1398 0.82761 0.74177 0.0
C380 C 0.30425 0.808 0.782 0.0
C381 C 0.29611 0.78623 0.80655 0.0
C382 C 0.32123 0.82644 0.80033 0.0
C383 C 0.37041 0.83555 0.88611 0.0
H384 H 0.35144 0.90888 0.87887 0.0
C385 C 0.42547 0.91516 0.98342 0.0
C386 C 0.43016 0.93899 0.96189 0.0
C387 C 0.40896 0.89643 0.9647 0.0
C388 C 0.35721 0.88853 0.8807 0.0
H389 H 0.29987 0.76632 0.86909 0.0
H390 H 0.32967 0.79841 0.90075 0.0
H391 H 0.32383 0.87602 0.84384 0.0
H392 H 0.42136 0.96181 0.90372 0.0
H393 H 0.39316 0.92901 0.8708 0.0
H394 H 0.40399 0.84797 0.92236 0.0
C395 C 0.32288 0.8012 0.86745 0.0
C396 C 0.34139 0.86975 0.86068 0.0
C397 C 0.3057 0.78295 0.84937 0.0
C398 C 0.41796 0.94375 0.92141 0.0
C399 C 0.40168 0.92497 0.90257 0.0
C400 C 0.38639 0.85435 0.9058 0.0
C401 C 0.33059 0.82322 0.84326 0.0
C402 C 0.34782 0.84311 0.86332 0.0
C403 C 0.39701 0.90108 0.92393 0.0
C404 C 0.37993 0.88105 0.9034 0.0
H405 H 0.29716 0.81106 0.74896 0.0
H406 H 0.32708 0.84319 0.78094 0.0
H407 H 0.37588 0.81511 0.88825 0.0
H408 H 0.4345 0.91097 0.01474 0.0
H409 H 0.40545 0.87838 0.98231 0.0
C410 C 0.42016 0.04154 0.10139 0.0
C411 C 0.43073 0.04646 0.05972 0.0
C412 C 0.40417 0.05999 0.12169 0.0
C413 C 0.38684 0.1302 0.11904 0.0
H414 H 0.32614 0.10711 0.1845 0.0
C415 C 0.30433 0.19943 0.17249 0.0
C416 C 0.29448 0.19665 0.21519 0.0
C417 C 0.32223 0.18149 0.15586 0.0
C418 C 0.34322 0.1138 0.1668 0.0
H419 H 0.43254 0.07446 1.00645 0.0
H420 H 0.40407 0.10642 0.04147 0.0
H421 H 0.35429 0.0748 0.14957 0.0
H422 H 0.2959 0.17302 0.27414 0.0
H423 H 0.32716 0.14138 0.24471 0.0
H424 H 0.3753 0.16925 0.13551 0.0
C425 C 0.40861 0.08852 0.05884 0.0
C426 C 0.35935 0.09533 0.14678 0.0
C427 C 0.42478 0.07013 0.03862 0.0
C428 C 0.30315 0.17568 0.24113 0.0
C429 C 0.32091 0.15752 0.22426 0.0
C430 C 0.37059 0.14866 0.13879 0.0
C431 C 0.39822 0.0837 0.1007 0.0
C432 C 0.38127 0.10332 0.12248 0.0
C433 C 0.33053 0.16024 0.18141 0.0
C434 C 0.34856 0.14064 0.16263 0.0
H435 H 0.42456 0.02362 0.11881 0.0
H436 H 0.39686 0.05582 0.15421 0.0
H437 H 0.40385 0.137 0.10132 0.0
H438 H 0.29815 0.21545 0.15169 0.0
H439 H 0.32913 0.1839 0.12258 0.0
C440 C 0.92691 0.92689 0.53655 0.0
C441 C 0.94375 0.94087 0.56448 0.0
C442 C 0.90836 0.90968 0.55388 0.0
C443 C 0.89316 0.87193 0.65383 0.0
H444 H 0.82296 0.87016 0.60593 0.0
C445 C 0.80861 0.81689 0.73811 0.0
C446 C 0.79273 0.80149 0.71071 0.0
C447 C 0.82686 0.83416 0.72013 0.0
C448 C 0.84256 0.87031 0.6194 0.0
H449 H 0.95414 0.94791 0.63256 0.0
H450 H 0.92168 0.91831 0.66249 0.0
H451 H 0.85545 0.89946 0.57399 0.0
H452 H 0.7833 0.7924 0.64294 0.0
H453 H 0.81512 0.82243 0.61182 0.0
H454 H 0.8802 0.84291 0.69941 0.0
C455 C 0.92308 0.92024 0.62724 0.0
C456 C 0.86116 0.88701 0.60104 0.0
C457 C 0.94161 0.93734 0.61 0.0
C458 C 0.79526 0.80393 0.66503 0.0
C459 C 0.81337 0.82126 0.64712 0.0
C460 C 0.87453 0.85531 0.67227 0.0
C461 C 0.90629 0.90617 0.59942 0.0
C462 C 0.88665 0.88803 0.61814 0.0
C463 C 0.82943 0.83645 0.67446 0.0
C464 C 0.84905 0.85436 0.65526 0.0
H465 H 0.92811 0.92913 0.50134 0.0
H466 H 0.89585 0.89889 0.53158 0.0
H467 H 0.91275 0.87195 0.66728 0.0
H468 H 0.80713 0.81549 0.77341 0.0
H469 H 0.83884 0.84585 0.74195 0.0
C470 C 0.94957 0.05638 0.42445 0.0
C471 C 0.94621 0.04668 0.46715 0.0
C472 C 0.93138 0.07352 0.40629 0.0
C473 C 0.86284 0.09186 0.41224 0.0
H474 H 0.88502 0.15374 0.34877 0.0
C475 C 0.78951 0.16748 0.34557 0.0
C476 C 0.79491 0.17925 0.30498 0.0
C477 C 0.80789 0.15133 0.36569 0.0
C478 C 0.87852 0.13634 0.36583 0.0
H479 H 0.92126 0.04755 0.52449 0.0
H480 H 0.88918 0.07743 0.49236 0.0
H481 H 0.91754 0.12623 0.38462 0.0
H482 H 0.82364 0.18278 0.25316 0.0
H483 H 0.8555 0.15401 0.28778 0.0
H484 H 0.82391 0.10151 0.39275 0.0
C485 C 0.90599 0.07168 0.47312 0.0
C486 C 0.89713 0.1207 0.38656 0.0
C487 C 0.9244 0.05473 0.49154 0.0
C488 C 0.81892 0.17411 0.28453 0.0
C489 C 0.83726 0.15777 0.30454 0.0
C490 C 0.84423 0.10736 0.3912 0.0
C491 C 0.90929 0.08112 0.43025 0.0
C492 C 0.88947 0.09829 0.40987 0.0
C493 C 0.83205 0.1464 0.34557 0.0
C494 C 0.85185 0.12977 0.36768 0.0
H495 H 0.96622 0.05064 0.40481 0.0
H496 H 0.93428 0.08032 0.37305 0.0
H497 H 0.85646 0.07446 0.42948 0.0
H498 H 0.77129 0.17118 0.36246 0.0
H499 H 0.80337 0.14323 0.39756 0.0
C500 C 0.69366 0.16315 0.18168 0.0
C501 C 0.68667 0.18398 0.20929 0.0
C502 C 0.67447 0.14777 0.16185 0.0
C503 C 0.60472 0.1298 0.17047 0.0
H504 H 0.61624 0.10281 0.0533 0.0
C505 C 0.54725 0.0661 0.02825 0.0
C506 C 0.53574 0.04723 0.05554 0.0
C507 C 0.56477 0.08443 0.04556 0.0
C508 C 0.61253 0.11047 0.08578 0.0
H509 H 0.65414 0.20526 0.23749 0.0
H510 H 0.62059 0.1788 0.20204 0.0
H511 H 0.6481 0.13243 0.08585 0.0
H512 H 0.53399 0.03233 0.12206 0.0
H513 H 0.56496 0.06359 0.15176 0.0
H514 H 0.5688 0.10851 0.16994 0.0
C515 C 0.6409 0.17393 0.1965 0.0
C516 C 0.63099 0.12714 0.10473 0.0
C517 C 0.66012 0.18912 0.21677 0.0
C518 C 0.54229 0.04682 0.10022 0.0
C519 C 0.55994 0.06489 0.11736 0.0
C520 C 0.58615 0.11338 0.15136 0.0
C521 C 0.64786 0.15308 0.16875 0.0
C522 C 0.62751 0.13666 0.14757 0.0
C523 C 0.57125 0.08404 0.09036 0.0
C524 C 0.59005 0.10314 0.10912 0.0
H525 H 0.71399 0.15863 0.17547 0.0
H526 H 0.68055 0.13153 0.14145 0.0
H527 H 0.60148 0.13658 0.20363 0.0
H528 H 0.54245 0.06697 0.99371 0.0
H529 H 0.57296 0.0991 0.02396 0.0
C530 C 0.67006 0.81586 0.78223 0.0
C531 C 0.68605 0.80095 0.81009 0.0
C532 C 0.65158 0.83308 0.79969 0.0
C533 C 0.61453 0.84645 0.90107 0.0
H534 H 0.60478 0.91519 0.8499 0.0
C535 C 0.55346 0.92726 0.98449 0.0
C536 C 0.53649 0.9415 0.95727 0.0
C537 C 0.57167 0.91003 0.96638 0.0
C538 C 0.60713 0.89596 0.86429 0.0
H539 H 0.69542 0.79275 0.87816 0.0
H540 H 0.66362 0.82292 0.9083 0.0
H541 H 0.63648 0.88518 0.81785 0.0
H542 H 0.5254 0.94879 0.88962 0.0
H543 H 0.55702 0.91872 0.85833 0.0
H544 H 0.58529 0.85733 0.94766 0.0
C545 C 0.66495 0.82098 0.87304 0.0
C546 C 0.62523 0.87876 0.84589 0.0
C547 C 0.68331 0.80378 0.85567 0.0
C548 C 0.53816 0.93816 0.91162 0.0
C549 C 0.55641 0.92105 0.89358 0.0
C550 C 0.5965 0.86368 0.91953 0.0
C551 C 0.64879 0.83574 0.8453 0.0
C552 C 0.62917 0.85384 0.86415 0.0
C553 C 0.57335 0.90681 0.92074 0.0
C554 C 0.59263 0.88861 0.90136 0.0
H555 H 0.67162 0.81409 0.74698 0.0
H556 H 0.63922 0.84402 0.77746 0.0
H557 H 0.6168 0.82722 0.91547 0.0
H558 H 0.5527 0.9294 0.01977 0.0
H559 H 0.58467 0.89947 0.98808 0.0
C560 C 0.5508 0.57209 0.98383 0.0
C561 C 0.5514 0.54588 0.96981 0.0
C562 C 0.56743 0.59063 0.96495 0.0
C563 C 0.62877 0.59649 0.90319 0.0
H564 H 0.60188 0.6646 0.86987 0.0
C565 C 0.69611 0.67969 0.84762 0.0
C566 C 0.68828 0.69457 0.81119 0.0
C567 C 0.679 0.66191 0.86688 0.0
C568 C 0.60958 0.64558 0.87872 0.0
H569 H 0.57014 0.51854 0.92531 0.0
H570 H 0.59893 0.5508 0.89252 0.0
H571 H 0.57285 0.63273 0.90453 0.0
H572 H 0.65621 0.70254 0.76658 0.0
H573 H 0.62629 0.67111 0.80023 0.0
H574 H 0.66533 0.60906 0.87685 0.0
C575 C 0.58579 0.55701 0.91829 0.0
C576 C 0.59307 0.62749 0.89902 0.0
C577 C 0.56918 0.53854 0.937 0.0
C578 C 0.66286 0.69134 0.79455 0.0
C579 C 0.64568 0.67348 0.81395 0.0
C580 C 0.64524 0.61455 0.88303 0.0
C581 C 0.58502 0.58325 0.9319 0.0
C582 C 0.60253 0.60275 0.91137 0.0
C583 C 0.65366 0.65854 0.85021 0.0
C584 C 0.63584 0.63929 0.87066 0.0
H585 H 0.5373 0.5784 1.00898 0.0
H586 H 0.56663 0.61069 0.97638 0.0
H587 H 0.63665 0.57766 0.91267 0.0
H588 H 0.71546 0.68179 0.8616 0.0
H589 H 0.68557 0.65098 0.89522 0.0
C590 C 0.68154 0.2865 0.16717 0.0
C591 C 0.6912 0.28878 0.21015 0.0
C592 C 0.6638 0.30472 0.15079 0.0
C593 C 0.64172 0.37213 0.16416 0.0
H594 H 0.58093 0.34842 0.09917 0.0
C595 C 0.56186 0.44328 0.10482 0.0
C596 C 0.55086 0.43874 0.06326 0.0
C597 C 0.57869 0.425 0.12365 0.0
C598 C 0.59798 0.35538 0.11674 0.0
H599 H 0.68981 0.31201 0.26964 0.0
H600 H 0.65884 0.34407 0.24068 0.0
H601 H 0.61066 0.3164 0.13102 0.0
H602 H 0.54919 0.41159 1.00864 0.0
H603 H 0.57905 0.37995 0.04108 0.0
H604 H 0.62942 0.41109 0.14924 0.0
C605 C 0.66511 0.32812 0.21981 0.0
C606 C 0.61493 0.33704 0.13512 0.0
C607 C 0.68271 0.30971 0.23642 0.0
C608 C 0.55723 0.41561 0.04079 0.0
C609 C 0.57422 0.3974 0.05952 0.0
C610 C 0.62488 0.3905 0.14551 0.0
C611 C 0.65547 0.32574 0.17686 0.0
C612 C 0.63701 0.34523 0.15885 0.0
C613 C 0.58506 0.40183 0.10126 0.0
C614 C 0.60286 0.38233 0.12144 0.0
H615 H 0.68761 0.27058 0.14607 0.0
H616 H 0.6569 0.30258 0.1174 0.0
H617 H 0.65879 0.37896 0.18184 0.0
H618 H 0.55718 0.46079 0.12324 0.0
H619 H 0.58635 0.42885 0.15611 0.0
C620 C 0.91773 0.4437 0.42182 0.0
C621 C 0.92995 0.43883 0.46224 0.0
C622 C 0.9018 0.42479 0.40248 0.0
C623 C 0.88799 0.35386 0.40388 0.0
H624 H 0.82507 0.37471 0.34215 0.0
C625 C 0.80811 0.28163 0.34747 0.0
C626 C 0.79802 0.28502 0.305 0.0
C627 C 0.82538 0.29991 0.36519 0.0
C628 C 0.84275 0.36868 0.35887 0.0
H629 H 0.93464 0.41048 0.51453 0.0
H630 H 0.90621 0.37766 0.48122 0.0
H631 H 0.85195 0.40786 0.37795 0.0
H632 H 0.79844 0.30993 0.2475 0.0
H633 H 0.82855 0.34214 0.27888 0.0
H634 H 0.87829 0.31455 0.3855 0.0
C635 C 0.90944 0.39591 0.46404 0.0
C636 C 0.85815 0.38762 0.37936 0.0
C637 C 0.92557 0.41478 0.48328 0.0
C638 C 0.80591 0.30681 0.28029 0.0
C639 C 0.82299 0.32528 0.29828 0.0
C640 C 0.87243 0.33489 0.38371 0.0
C641 C 0.89753 0.40065 0.42326 0.0
C642 C 0.88096 0.38044 0.40207 0.0
C643 C 0.83271 0.32205 0.34098 0.0
C644 C 0.8497 0.34215 0.36103 0.0
H645 H 0.92087 0.46192 0.40449 0.0
H646 H 0.89329 0.42892 0.37073 0.0
H647 H 0.90568 0.34773 0.42041 0.0
H648 H 0.80249 0.26497 0.36726 0.0
H649 H 0.83246 0.29709 0.39832 0.0
C650 C 0.7844 0.67666 0.68303 0.0
C651 C 0.79267 0.69426 0.71568 0.0
C652 C 0.80178 0.65871 0.66499 0.0
C653 C 0.87143 0.64632 0.64697 0.0
H654 H 0.8477 0.5752 0.62634 0.0
C655 C 0.92899 0.57207 0.54152 0.0
C656 C 0.93068 0.54641 0.5579 0.0
C657 C 0.91258 0.59036 0.5615 0.0
C658 C 0.85468 0.59493 0.63215 0.0
H659 H 0.82579 0.70678 0.75498 0.0
H660 H 0.85624 0.67513 0.72343 0.0
H661 H 0.81868 0.60639 0.66178 0.0
H662 H 0.91648 0.51992 0.60821 0.0
H663 H 0.88808 0.55179 0.64286 0.0
H664 H 0.90759 0.63467 0.61766 0.0
C665 C 0.83626 0.67548 0.71171 0.0
C666 C 0.83798 0.61285 0.65208 0.0
C667 C 0.81879 0.69346 0.72995 0.0
C668 C 0.91556 0.53945 0.5945 0.0
C669 C 0.89919 0.55769 0.61435 0.0
C670 C 0.88815 0.62837 0.62688 0.0
C671 C 0.82787 0.65791 0.6791 0.0
C672 C 0.84612 0.63875 0.65951 0.0
C673 C 0.89752 0.58333 0.5981 0.0
C674 C 0.87991 0.60251 0.61922 0.0
H675 H 0.76446 0.67675 0.67108 0.0
H676 H 0.79485 0.64569 0.63946 0.0
H677 H 0.87813 0.66623 0.65198 0.0
H678 H 0.9404 0.57809 0.51344 0.0
H679 H 0.91147 0.60993 0.548 0.0
C680 C 0.28858 0.31264 0.16953 0.0
C681 C 0.29329 0.30172 0.21104 0.0
C682 C 0.3072 0.32864 0.14971 0.0
C683 C 0.37746 0.34507 0.15316 0.0
H684 H 0.3555 0.4066 0.08857 0.0
C685 C 0.44785 0.42711 0.10106 0.0
C686 C 0.44522 0.43714 0.05843 0.0
C687 C 0.4297 0.40931 0.11742 0.0
C688 C 0.36186 0.38929 0.10603 0.0
H689 H 0.32108 0.29937 0.26462 0.0
H690 H 0.35336 0.32787 0.23044 0.0
H691 H 0.32276 0.3787 0.12299 0.0
H692 H 0.42167 0.43615 0.9993 0.0
H693 H 0.38965 0.40506 0.02827 0.0
H694 H 0.41663 0.35612 0.13696 0.0
C695 C 0.33548 0.32358 0.21282 0.0
C696 C 0.34315 0.37331 0.12576 0.0
C697 C 0.31691 0.3074 0.23255 0.0
C698 C 0.42421 0.42874 0.03226 0.0
C699 C 0.40584 0.41109 0.04886 0.0
C700 C 0.39617 0.36117 0.13371 0.0
C701 C 0.33089 0.33425 0.17106 0.0
C702 C 0.35075 0.35108 0.14972 0.0
C703 C 0.4084 0.40132 0.09166 0.0
C704 C 0.38854 0.38349 0.11017 0.0
H705 H 0.27069 0.30847 0.15182 0.0
H706 H 0.30321 0.33621 0.11727 0.0
H707 H 0.38394 0.32781 0.17064 0.0
H708 H 0.4639 0.43309 0.12199 0.0
H709 H 0.43198 0.40226 0.15066 0.0
C710 C 0.42311 0.55228 0.98565 0.0
C711 C 0.44542 0.54461 0.96226 0.0
C712 C 0.40484 0.56913 0.96659 0.0
C713 C 0.38312 0.59348 0.85814 0.0
H714 H 0.34822 0.64669 0.9271 0.0
C715 C 0.31932 0.67512 0.78223 0.0
C716 C 0.29527 0.67983 0.8029 0.0
C717 C 0.33765 0.65841 0.8014 0.0
C718 C 0.3577 0.63178 0.90755 0.0
H719 H 0.46654 0.54924 0.90112 0.0
H720 H 0.43519 0.57904 0.86854 0.0
H721 H 0.3805 0.61837 0.96182 0.0
H722 H 0.27159 0.67061 0.85987 0.0
H723 H 0.30361 0.6416 0.89314 0.0
H724 H 0.36055 0.60724 0.80375 0.0
C725 C 0.43132 0.57153 0.90104 0.0
C726 C 0.37612 0.61551 0.92743 0.0
C727 C 0.4494 0.55454 0.91988 0.0
C728 C 0.28988 0.66737 0.84295 0.0
C729 C 0.30828 0.65089 0.86224 0.0
C730 C 0.36488 0.6099 0.83821 0.0
C731 C 0.40867 0.5788 0.92392 0.0
C732 C 0.38904 0.59614 0.90296 0.0
C733 C 0.33237 0.64634 0.84178 0.0
C734 C 0.35196 0.62915 0.86275 0.0
H735 H 0.41946 0.54486 0.0183 0.0
H736 H 0.38746 0.57411 0.98494 0.0
H737 H 0.39232 0.57845 0.83848 0.0
H738 H 0.32407 0.68443 0.75139 0.0
H739 H 0.35617 0.65533 0.78508 0.0
C740 C 0.19205 0.67244 0.66449 0.0
C741 C 0.18765 0.68333 0.70612 0.0
C742 C 0.17328 0.65651 0.64484 0.0
C743 C 0.10316 0.63965 0.6491 0.0
H744 H 0.12537 0.57805 0.5848 0.0
C745 C 0.03321 0.55703 0.59683 0.0
C746 C 0.03588 0.54707 0.55414 0.0
C747 C 0.05127 0.57493 0.61337 0.0
C748 C 0.11894 0.59537 0.6022 0.0
H749 H 0.16016 0.68587 0.75996 0.0
H750 H 0.12758 0.65744 0.72604 0.0
H751 H 0.158 0.60629 0.61895 0.0
H752 H 0.05938 0.54825 0.49511 0.0
H753 H 0.09122 0.57948 0.52439 0.0
H754 H 0.06402 0.62824 0.63308 0.0
C755 C 0.14536 0.66169 0.70824 0.0
C756 C 0.13759 0.61155 0.62175 0.0
C757 C 0.1641 0.67783 0.7278 0.0
C758 C 0.05683 0.55559 0.52812 0.0
C759 C 0.07509 0.57333 0.54489 0.0
C760 C 0.08451 0.62334 0.62982 0.0
C761 C 0.14974 0.65091 0.66649 0.0
C762 C 0.1299 0.63383 0.64552 0.0
C763 C 0.07249 0.58306 0.58772 0.0
C764 C 0.09224 0.60102 0.60634 0.0
H765 H 0.20987 0.67651 0.64663 0.0
H766 H 0.17708 0.64888 0.61236 0.0
H767 H 0.09663 0.65692 0.6665 0.0
H768 H 0.0172 0.55096 0.61766 0.0
H769 H 0.04897 0.58194 0.64664 0.0
C770 C 0.16209 0.30702 0.28364 0.0
C771 C 0.18579 0.30241 0.3056 0.0
C772 C 0.14335 0.32362 0.3019 0.0
C773 C 0.12141 0.35027 0.40694 0.0
H774 H 0.08866 0.4041 0.33638 0.0
C775 C 0.0568 0.43112 0.4823 0.0
C776 C 0.03496 0.43932 0.45809 0.0
C777 C 0.07484 0.41381 0.46392 0.0
C778 C 0.09732 0.38892 0.35641 0.0
H779 H 0.2084 0.31163 0.36393 0.0
H780 H 0.17569 0.34045 0.39561 0.0
H781 H 0.1206 0.37488 0.30315 0.0
H782 H 0.01442 0.43518 0.39615 0.0
H783 H 0.0454 0.40457 0.3647 0.0
H784 H 0.09796 0.36399 0.46009 0.0
C785 C 0.17159 0.33116 0.36441 0.0
C786 C 0.11565 0.37225 0.33735 0.0
C787 C 0.1904 0.3148 0.34603 0.0
C788 C 0.03121 0.42947 0.41554 0.0
C789 C 0.04907 0.41201 0.39737 0.0
C790 C 0.10291 0.36678 0.42594 0.0
C791 C 0.14788 0.33566 0.34262 0.0
C792 C 0.12795 0.35288 0.3625 0.0
C793 C 0.07125 0.40418 0.42111 0.0
C794 C 0.09071 0.38637 0.40093 0.0
H795 H 0.15794 0.29776 0.25246 0.0
H796 H 0.12513 0.32668 0.28456 0.0
H797 H 0.13041 0.33525 0.42691 0.0
H798 H 0.06026 0.43847 0.5151 0.0
H799 H 0.09188 0.40842 0.48292 0.0
C800 C 0.01989 -0.00499 0.84878 0.0
C801 C -0.00184 0.00655 0.82809 0.0
C802 C 0.02035 0.99124 0.89439 0.0
C803 C 0.98877 0.01452 0.99757 0.0
H804 H 0.02032 0.95259 0.04809 0.0
C805 C 0.97993 0.99017 0.1831 0.0
C806 C 0.00148 0.97864 0.20431 0.0
C807 C 0.97971 -0.00632 0.13747 0.0
C808 C 0.0117 0.9702 0.03469 0.0
H809 H 0.9594 0.02217 0.83975 0.0
H810 H 0.96018 0.01559 0.9187 0.0
H811 H 0.01954 0.95802 0.96876 0.0
H812 H 0.04009 0.96247 0.19346 0.0
H813 H 0.03976 0.96865 0.11432 0.0
H814 H 0.98095 0.02673 0.06343 0.0
C815 C 0.97719 0.00997 0.89988 0.0
C816 C 0.01124 0.97331 0.98898 0.0
C817 C 0.97673 0.01374 0.85438 0.0
C818 C 0.02293 0.971 0.17843 0.0
C819 C 0.02273 0.97453 0.13283 0.0
C820 C 0.98924 0.01142 0.04325 0.0
C821 C -0.00092 -0.00114 0.92073 0.0
C822 C -0.00027 -0.00449 0.96965 0.0
C823 C 0.00106 0.9858 0.11153 0.0
C824 C 0.00068 0.98919 0.0626 0.0
H825 H 0.0369 0.98948 0.82989 0.0
H826 H 0.0377 0.9829 0.90909 0.0
H827 H 0.98014 0.03213 0.98418 0.0
H828 H 0.96286 -0.00406 0.20163 0.0
H829 H 0.96248 0.00207 0.12244 0.0
C830 C 0.25961 0.75712 0.41942 0.0
C831 C 0.25611 0.73448 0.44508 0.0
C832 C 0.25596 0.75647 0.37389 0.0
C833 C 0.22544 0.71756 0.28375 0.0
H834 H 0.27332 0.75677 0.21052 0.0
C835 C 0.22506 0.70734 0.09406 0.0
C836 C 0.22934 0.73001 0.06881 0.0
C837 C 0.22846 0.70768 0.13969 0.0
C838 C 0.25953 0.74593 0.23036 0.0
H839 H 0.24577 0.69334 0.44218 0.0
H840 H 0.23936 0.6922 0.36294 0.0
H841 H 0.27844 0.75781 0.28983 0.0
H842 H 0.24039 0.77094 0.07259 0.0
H843 H 0.24621 0.77157 0.15183 0.0
H844 H 0.20649 0.70573 0.22426 0.0
C845 C 0.24469 0.7106 0.37816 0.0
C846 C 0.26248 0.74653 0.27606 0.0
C847 C 0.24835 0.71126 0.42377 0.0
C848 C 0.23731 0.75297 0.09065 0.0
C849 C 0.24065 0.75333 0.1363 0.0
C850 C 0.22246 0.71699 0.23802 0.0
C851 C 0.24865 0.73316 0.35244 0.0
C852 C 0.24546 0.73239 0.30352 0.0
C853 C 0.23619 0.73071 0.16162 0.0
C854 C 0.23945 0.73119 0.21055 0.0
H855 H 0.26505 0.77552 0.43456 0.0
H856 H 0.25867 0.77439 0.35553 0.0
H857 H 0.21169 0.70671 0.30365 0.0
H858 H 0.21931 0.68916 0.07849 0.0
H859 H 0.22528 0.68972 0.15773 0.0
C860 C 0.47547 0.98338 0.67764 0.0
C861 C 0.47875 0.00854 0.6958 0.0
C862 C 0.47574 0.97956 0.63203 0.0
C863 C 0.49671 0.01109 0.52725 0.0
H864 H 0.44886 0.96134 0.47442 0.0
C865 C 0.48456 0.0023 0.33803 0.0
C866 C 0.4814 0.97706 0.32013 0.0
C867 C 0.48395 0.00633 0.38359 0.0
C868 C 0.4626 0.97512 0.48854 0.0
H869 H 0.48549 0.04931 0.67935 0.0
H870 H 0.48544 0.04274 0.60039 0.0
H871 H 0.44874 0.96761 0.55356 0.0
H872 H 0.47438 0.93639 0.33696 0.0
H873 H 0.47384 0.94331 0.4158 0.0
H874 H 0.5106 0.01856 0.46223 0.0
C875 C 0.48284 0.02586 0.62134 0.0
C876 C 0.46254 0.97871 0.53415 0.0
C877 C 0.48251 0.02968 0.66686 0.0
C878 C 0.47727 0.95607 0.34926 0.0
C879 C 0.47662 0.96011 0.39471 0.0
C880 C 0.49678 0.00748 0.48163 0.0
C881 C 0.47941 0.00074 0.60312 0.0
C882 C 0.47959 -0.00324 0.55429 0.0
C883 C 0.48005 0.98528 0.4127 0.0
C884 C 0.47974 0.98942 0.46149 0.0
H885 H 0.47233 0.96661 0.69863 0.0
H886 H 0.47334 0.95987 0.61948 0.0
H887 H 0.51046 0.02485 0.54138 0.0
H888 H 0.48798 0.01895 0.31689 0.0
H889 H 0.48636 0.02606 0.39595 0.0
C890 C 0.22404 0.22515 0.92324 0.0
C891 C 0.22691 0.24784 0.94908 0.0
C892 C 0.2276 0.22599 0.87773 0.0
C893 C 0.25685 0.26584 0.78795 0.0
H894 H 0.20987 0.22549 0.7144 0.0
C895 C 0.25674 0.27618 0.59834 0.0
C896 C 0.25304 0.25341 0.57299 0.0
C897 C 0.25339 0.27574 0.64395 0.0
C898 C 0.22341 0.23665 0.73434 0.0
H899 H 0.23603 0.28928 0.94654 0.0
H900 H 0.24229 0.29073 0.86731 0.0
H901 H 0.20492 0.22422 0.7937 0.0
H902 H 0.24303 0.21221 0.57654 0.0
H903 H 0.23728 0.21141 0.65575 0.0
H904 H 0.27539 0.27822 0.72857 0.0
C905 C 0.23753 0.27215 0.88238 0.0
C906 C 0.22055 0.23593 0.78002 0.0
C907 C 0.23395 0.27132 0.92799 0.0
C908 C 0.24566 0.23025 0.59469 0.0
C909 C 0.24236 0.2298 0.64032 0.0
C910 C 0.25973 0.26654 0.74223 0.0
C911 C 0.23418 0.24954 0.85648 0.0
C912 C 0.23725 0.25047 0.80759 0.0
C913 C 0.24627 0.25251 0.66575 0.0
C914 C 0.24308 0.25193 0.71466 0.0
H915 H 0.21916 0.20658 0.93822 0.0
H916 H 0.22539 0.20803 0.85922 0.0
H917 H 0.27034 0.27703 0.80795 0.0
H918 H 0.26203 0.2945 0.58287 0.0
H919 H 0.25612 0.29377 0.66208 0.0
C920 C 0.74845 0.20984 0.92356 0.0
C921 C 0.75584 0.23304 0.94529 0.0
C922 C 0.74491 0.20941 0.87793 0.0
C923 C 0.76259 0.24609 0.77667 0.0
H924 H 0.70703 0.20521 0.72376 0.0
C925 C 0.73769 0.25363 0.59139 0.0
C926 C 0.72993 0.23076 0.56908 0.0
C927 C 0.74098 0.25368 0.63703 0.0
C928 C 0.72289 0.21649 0.73784 0.0
H929 H 0.76425 0.27426 0.93556 0.0
H930 H 0.75808 0.27352 0.85647 0.0
H931 H 0.71203 0.20572 0.8032 0.0
H932 H 0.72024 0.18976 0.57784 0.0
H933 H 0.72614 0.18977 0.6571 0.0
H934 H 0.77352 0.25682 0.7114 0.0
C935 C 0.75556 0.25545 0.87452 0.0
C936 C 0.72574 0.2168 0.78358 0.0
C937 C 0.75909 0.25588 0.92007 0.0
C938 C 0.72583 0.20786 0.59381 0.0
C939 C 0.72918 0.20789 0.63944 0.0
C940 C 0.75977 0.24575 0.73096 0.0
C941 C 0.74863 0.23217 0.85264 0.0
C942 C 0.7456 0.23166 0.80374 0.0
C943 C 0.73668 0.23083 0.66185 0.0
C944 C 0.73984 0.23099 0.71077 0.0
H945 H 0.74607 0.19177 0.94166 0.0
H946 H 0.73987 0.19103 0.86235 0.0
H947 H 0.77843 0.25741 0.79076 0.0
H948 H 0.74063 0.27176 0.5737 0.0
H949 H 0.74636 0.27185 0.65296 0.0
C950 C 0.71956 0.72137 0.4237 0.0
C951 C 0.72599 0.74334 0.44955 0.0
C952 C 0.72322 0.72158 0.37811 0.0
C953 C 0.75859 0.75695 0.28866 0.0
H954 H 0.70747 0.72323 0.21354 0.0
C955 C 0.76067 0.76984 0.09984 0.0
C956 C 0.75473 0.74808 0.07318 0.0
C957 C 0.7569 0.769 0.14533 0.0
C958 C 0.72214 0.7325 0.23394 0.0
H959 H 0.74125 0.78292 0.4467 0.0
H960 H 0.7476 0.78332 0.36762 0.0
H961 H 0.70182 0.7222 0.29282 0.0
H962 H 0.73991 0.7083 0.07444 0.0
H963 H 0.7333 0.70685 0.15361 0.0
H964 H 0.77889 0.76729 0.22983 0.0
C965 C 0.74008 0.76568 0.38266 0.0
C966 C 0.7189 0.7319 0.27964 0.0
C967 C 0.73643 0.76545 0.42826 0.0
C968 C 0.74445 0.72558 0.09357 0.0
C969 C 0.74066 0.72475 0.13918 0.0
C970 C 0.76182 0.75757 0.243 0.0
C971 C 0.73345 0.74378 0.35674 0.0
C972 C 0.73704 0.74417 0.3078 0.0
C973 C 0.74703 0.74639 0.16588 0.0
C974 C 0.74362 0.74543 0.21482 0.0
H975 H 0.71188 0.70378 0.43875 0.0
H976 H 0.71831 0.70414 0.35966 0.0
H977 H 0.77328 0.76622 0.309 0.0
H978 H 0.7681 0.78774 0.0855 0.0
H979 H 0.76152 0.7863 0.16438 0.0
C980 C 0.50196 0.50265 0.68278 0.0
C981 C 0.50222 0.47733 0.701 0.0
C982 C 0.5016 0.50629 0.63717 0.0
C983 C 0.48653 0.47173 0.53211 0.0
H984 H 0.52672 0.52811 0.48043 0.0
C985 C 0.49898 0.4821 0.3434 0.0
C986 C 0.49816 0.50751 0.32559 0.0
C987 C 0.49981 0.47823 0.38895 0.0
C988 C 0.51513 0.51242 0.49424 0.0
H989 H 0.50179 0.43598 0.68467 0.0
H990 H 0.50177 0.44229 0.60569 0.0
H991 H 0.5272 0.522 0.55958 0.0
H992 H 0.49829 0.54878 0.34251 0.0
H993 H 0.49922 0.54207 0.42137 0.0
H994 H 0.47445 0.46216 0.46675 0.0
C995 C 0.50161 0.45942 0.6266 0.0
C996 C 0.51539 0.50892 0.53983 0.0
C997 C 0.50198 0.45579 0.67213 0.0
C998 C 0.49852 0.5289 0.35477 0.0
C999 C 0.4994 0.52504 0.40021 0.0
C1000 C 0.48628 0.47522 0.48651 0.0
C1001 C 0.50142 0.48472 0.60833 0.0
C1002 C 0.50108 0.48853 0.55954 0.0
C1003 C 0.49997 0.49966 0.41809 0.0
C1004 C 0.50054 0.49565 0.46682 0.0
H1005 H 0.50234 0.51976 0.70374 0.0
H1006 H 0.50116 0.52608 0.62456 0.0
H1007 H 0.4749 0.45607 0.54592 0.0
H1008 H 0.49854 0.46511 0.32217 0.0
H1009 H 0.50053 0.45839 0.4013 0.0
C1010 C 0.96125 0.48829 0.84083 0.0
C1011 C 0.98403 0.47914 0.82007 0.0
C1012 C 0.96048 0.49188 0.88645 0.0
C1013 C -0.00567 0.47167 0.98938 0.0
H1014 H 0.95707 0.53018 0.04039 0.0
C1015 C 0.00119 0.49647 0.175 0.0
C1016 C 0.9787 0.50591 0.19628 0.0
C1017 C 0.00162 0.49303 0.12937 0.0
C1018 C 0.96731 0.51351 0.02685 0.0
H1019 H 0.02423 0.46761 0.83161 0.0
H1020 H 0.0229 0.47386 0.91063 0.0
H1021 H 0.95824 0.525 0.96102 0.0
H1022 H 0.93871 0.51838 0.18561 0.0
H1023 H 0.93939 0.51227 0.10644 0.0
H1024 H 0.00337 0.46013 0.05513 0.0
C1025 C 0.00537 0.47773 0.89183 0.0
C1026 C 0.96799 0.51055 0.98113 0.0
C1027 C 0.00614 0.47416 0.8463 0.0
C1028 C 0.95655 0.51149 0.1705 0.0
C1029 C 0.95696 0.50802 0.12489 0.0
C1030 C -0.00638 0.47462 0.03507 0.0
C1031 C 0.98248 0.48645 0.91273 0.0
C1032 C 0.98157 0.48961 0.96164 0.0
C1033 C 0.97955 0.49887 0.10352 0.0
C1034 C 0.98014 0.49561 0.05459 0.0
H1035 H 0.94371 0.49204 0.82198 0.0
H1036 H 0.94239 0.49833 0.90123 0.0
H1037 H 0.0046 0.45502 0.97583 0.0
H1038 H 0.01877 0.49233 0.19348 0.0
H1039 H 0.01952 0.48633 0.11427 0.0
loop_
_geom_bond_atom_site_label_1
_geom_bond_atom_site_label_2
_geom_bond_distance
_geom_bond_site_symmetry_2
_ccdc_geom_bond_type
Tb0 C9 2.764 1_455 S
Tb0 O10 2.325 1_445 S
Tb0 O13 2.303 1_545 S
Tb0 O17 2.322 . S
Tb0 O18 2.349 1_455 S
Tb0 O21 2.410 1_545 S
Tb0 O22 2.399 1_455 S
Tb1 O11 2.322 . S
Tb1 O12 2.349 1_655 S
Tb1 O14 2.406 1_565 S
Tb1 O15 2.399 1_655 S
Tb1 O16 2.325 1_665 S
Tb1 O19 2.303 1_565 S
Tb1 C30 2.764 1_655 S
C2 O18 1.261 . S
C2 O19 1.257 . S
C3 C6 1.358 . S
C3 C7 1.332 1_545 S
C3 C9 1.504 . S
C4 C5 1.373 . S
C4 C8 1.308 1_545 S
C5 C4 1.373 . S
C5 C6 1.429 . S
C5 H32 0.932 . S
C6 C3 1.358 . S
C6 C5 1.429 . S
C6 H33 0.930 . S
C7 C3 1.332 1_565 S
C7 C8 1.394 . S
C7 H34 0.932 1_655 S
C8 C4 1.308 1_565 S
C8 C7 1.394 . S
C8 H35 0.929 . S
C9 Tb0 2.764 1_655 S
C9 C3 1.504 . S
C9 O21 1.232 1_645 S
C9 O22 1.263 . S
O10 Tb0 2.325 1_665 S
O10 C20 1.236 . S
O11 Tb1 2.322 . S
O11 C20 1.257 . S
O12 Tb1 2.349 1_455 S
O12 C23 1.261 . S
O13 Tb0 2.303 1_565 S
O13 C23 1.257 . S
O14 Tb1 2.406 1_545 S
O14 C30 1.226 1_645 S
O15 Tb1 2.399 1_455 S
O15 C30 1.263 . S
O16 Tb1 2.325 1_445 S
O16 C31 1.236 . S
O17 Tb0 2.322 . S
O17 C31 1.257 . S
O18 Tb0 2.349 1_655 S
O18 C2 1.261 . S
O19 Tb1 2.303 1_545 S
O19 C2 1.257 . S
C20 O10 1.236 . S
C20 O11 1.257 . S
O21 Tb0 2.410 1_565 S
O21 C9 1.232 1_465 S
O22 Tb0 2.399 1_655 S
O22 C9 1.263 . S
C23 O12 1.261 . S
C23 O13 1.257 . S
C24 C27 1.358 . S
C24 C28 1.332 1_565 S
C24 C30 1.504 . S
C25 C26 1.373 . S
C25 C29 1.308 1_565 S
C26 C25 1.373 . S
C26 C27 1.429 . S
C26 H36 0.932 . S
C27 C24 1.358 . S
C27 C26 1.429 . S
C27 H37 0.930 . S
C28 C24 1.332 1_545 S
C28 C29 1.394 . S
C28 H38 0.916 1_455 S
C29 C25 1.308 1_545 S
C29 C28 1.394 . S
C29 H39 0.929 . S
C30 Tb1 2.764 1_455 S
C30 O14 1.226 1_465 S
C30 O15 1.263 . S
C30 C24 1.504 . S
C31 O16 1.236 . S
C31 O17 1.257 . S
H32 C5 0.932 . S
H33 C6 0.930 . S
H34 C7 0.932 1_455 S
H35 C8 0.929 . S
H36 C26 0.932 . S
H37 C27 0.930 . S
H38 C28 0.916 1_655 S
H39 C29 0.929 . S
Tb40 C49 2.764 . S
Tb40 O50 2.325 . S
Tb40 O53 2.303 . S
Tb40 O57 2.322 . S
Tb40 O58 2.349 . S
Tb40 O61 2.415 . S
Tb40 O62 2.399 . S
Tb41 O51 2.322 . S
Tb41 O52 2.349 . S
Tb41 O54 2.415 . S
Tb41 O55 2.399 . S
Tb41 O56 2.325 . S
Tb41 O59 2.303 . S
Tb41 C70 2.764 . S
C42 O58 1.261 . S
C42 O59 1.257 . S
C43 C46 1.358 . S
C43 C47 1.332 . S
C43 C49 1.504 . S
C44 C45 1.373 . S
C44 C48 1.308 . S
C45 C44 1.373 . S
C45 C46 1.429 1_554 S
C45 H72 0.932 . S
C46 C43 1.358 . S
C46 C45 1.429 1_556 S
C46 H73 0.930 . S
C47 C43 1.332 . S
C47 C48 1.394 1_556 S
C47 H74 0.932 . S
C48 C44 1.308 . S
C48 C47 1.394 1_554 S
C48 H75 0.929 . S
C49 Tb40 2.764 . S
C49 C43 1.504 . S
C49 O61 1.239 . S
C49 O62 1.263 . S
O50 Tb40 2.325 . S
O50 C60 1.236 . S
O51 Tb41 2.322 . S
O51 C60 1.257 . S
O52 Tb41 2.349 . S
O52 C63 1.261 . S
O53 Tb40 2.303 . S
O53 C63 1.257 . S
O54 Tb41 2.415 . S
O54 C70 1.239 . S
O55 Tb41 2.399 . S
O55 C70 1.263 . S
O56 Tb41 2.325 . S
O56 C71 1.236 . S
O57 Tb40 2.322 . S
O57 C71 1.257 . S
O58 Tb40 2.349 . S
O58 C42 1.261 . S
O59 Tb41 2.303 . S
O59 C42 1.257 . S
C60 O50 1.236 . S
C60 O51 1.257 . S
O61 Tb40 2.415 . S
O61 C49 1.239 . S
O62 Tb40 2.399 . S
O62 C49 1.263 . S
C63 O52 1.261 . S
C63 O53 1.257 . S
C64 C67 1.358 . S
C64 C68 1.332 . S
C64 C70 1.504 . S
C65 C66 1.373 . S
C65 C69 1.308 . S
C66 C65 1.373 . S
C66 C67 1.429 . S
C66 H76 0.932 . S
C67 C64 1.358 . S
C67 C66 1.429 . S
C67 H77 0.930 . S
C68 C64 1.332 . S
C68 C69 1.394 . S
C68 H78 0.932 . S
C69 C65 1.308 . S
C69 C68 1.394 . S
C69 H79 0.929 . S
C70 Tb41 2.764 . S
C70 O54 1.239 . S
C70 O55 1.263 . S
C70 C64 1.504 . S
C71 O56 1.236 . S
C71 O57 1.257 . S
H72 C45 0.932 . S
H73 C46 0.930 . S
H74 C47 0.932 . S
H75 C48 0.929 . S
H76 C66 0.932 . S
H77 C67 0.930 . S
H78 C68 0.932 . S
H79 C69 0.929 . S
Tb80 C89 2.764 . S
Tb80 O90 2.325 1_565 S
Tb80 O93 2.303 1_565 S
Tb80 O97 2.307 1_554 S
Tb80 O98 2.349 . S
Tb80 O101 2.406 1_565 S
Tb80 O102 2.399 . S
Tb81 O91 2.303 1_556 S
Tb81 O92 2.349 . S
Tb81 O94 2.410 1_545 S
Tb81 O95 2.399 . S
Tb81 O96 2.325 1_545 S
Tb81 O99 2.303 1_545 S
Tb81 C110 2.764 . S
C82 O98 1.261 1_556 S
C82 O99 1.257 . S
C83 C86 1.358 . S
C83 C87 1.332 1_565 S
C83 C89 1.504 . S
C84 C85 1.373 . S
C84 C88 1.308 1_565 S
C85 C84 1.373 . S
C85 C86 1.429 . S
C85 H112 0.932 . S
C86 C83 1.358 . S
C86 C85 1.429 . S
C86 H113 0.930 . S
C87 C83 1.332 1_545 S
C87 C88 1.394 . S
C87 H114 0.932 . S
C88 C84 1.308 1_545 S
C88 C87 1.394 . S
C88 H115 0.929 . S
C89 Tb80 2.764 . S
C89 C83 1.504 . S
C89 O101 1.226 1_565 S
C89 O102 1.263 . S
O90 Tb80 2.325 1_545 S
O90 C100 1.236 . S
O91 Tb81 2.303 1_554 S
O91 C100 1.281 . S
O92 Tb81 2.349 . S
O92 C103 1.261 1_556 S
O93 Tb80 2.303 1_545 S
O93 C103 1.257 . S
O94 Tb81 2.410 1_565 S
O94 C110 1.232 1_565 S
O95 Tb81 2.399 . S
O95 C110 1.263 . S
O96 Tb81 2.325 1_565 S
O96 C111 1.236 . S
O97 Tb80 2.307 1_556 S
O97 C111 1.276 . S
O98 Tb80 2.349 . S
O98 C82 1.261 1_554 S
O99 Tb81 2.303 1_565 S
O99 C82 1.257 . S
C100 O90 1.236 . S
C100 O91 1.281 . S
O101 Tb80 2.406 1_545 S
O101 C89 1.226 1_545 S
O102 Tb80 2.399 . S
O102 C89 1.263 . S
C103 O92 1.261 1_554 S
C103 O93 1.257 . S
C104 C107 1.358 . S
C104 C108 1.332 1_545 S
C104 C110 1.504 . S
C105 C106 1.373 . S
C105 C109 1.308 1_545 S
C106 C105 1.373 . S
C106 C107 1.429 . S
C106 H116 0.932 . S
C107 C104 1.358 . S
C107 C106 1.429 . S
C107 H117 0.930 . S
C108 C104 1.332 1_565 S
C108 C109 1.394 . S
C108 H118 0.932 . S
C109 C105 1.308 1_565 S
C109 C108 1.394 . S
C109 H119 0.929 . S
C110 Tb81 2.764 . S
C110 O94 1.232 1_545 S
C110 O95 1.263 . S
C110 C104 1.504 . S
C111 O96 1.236 . S
C111 O97 1.276 . S
H112 C85 0.932 . S
H113 C86 0.930 . S
H114 C87 0.932 . S
H115 C88 0.929 . S
H116 C106 0.932 . S
H117 C107 0.930 . S
H118 C108 0.932 . S
H119 C109 0.929 . S
Tb120 C129 2.764 . S
Tb120 O130 2.325 . S
Tb120 O133 2.303 . S
Tb120 O137 2.322 . S
Tb120 O138 2.349 . S
Tb120 O141 2.415 . S
Tb120 O142 2.399 . S
Tb121 O131 2.322 . S
Tb121 O132 2.349 . S
Tb121 O134 2.415 . S
Tb121 O135 2.399 . S
Tb121 O136 2.325 . S
Tb121 O139 2.303 . S
Tb121 C150 2.764 . S
C122 O138 1.261 . S
C122 O139 1.257 . S
C123 C126 1.358 . S
C123 C127 1.332 . S
C123 C129 1.504 . S
C124 C125 1.373 . S
C124 C128 1.308 . S
C125 C124 1.373 . S
C125 C126 1.429 . S
C125 H152 0.932 . S
C126 C123 1.358 . S
C126 C125 1.429 . S
C126 H153 0.930 . S
C127 C123 1.332 . S
C127 C128 1.394 . S
C127 H154 0.932 . S
C128 C124 1.308 . S
C128 C127 1.394 . S
C128 H155 0.929 . S
C129 Tb120 2.764 . S
C129 C123 1.504 . S
C129 O141 1.239 . S
C129 O142 1.263 . S
O130 Tb120 2.325 . S
O130 C140 1.236 . S
O131 Tb121 2.322 . S
O131 C140 1.257 . S
O132 Tb121 2.349 . S
O132 C143 1.261 . S
O133 Tb120 2.303 . S
O133 C143 1.257 . S
O134 Tb121 2.415 . S
O134 C150 1.239 . S
O135 Tb121 2.399 . S
O135 C150 1.263 . S
O136 Tb121 2.325 . S
O136 C151 1.236 . S
O137 Tb120 2.322 . S
O137 C151 1.257 . S
O138 Tb120 2.349 . S
O138 C122 1.261 . S
O139 Tb121 2.303 . S
O139 C122 1.257 . S
C140 O130 1.236 . S
C140 O131 1.257 . S
O141 Tb120 2.415 . S
O141 C129 1.239 . S
O142 Tb120 2.399 . S
O142 C129 1.263 . S
C143 O132 1.261 . S
C143 O133 1.257 . S
C144 C147 1.358 . S
C144 C148 1.332 . S
C144 C150 1.504 . S
C145 C146 1.373 . S
C145 C149 1.308 . S
C146 C145 1.373 . S
C146 C147 1.429 1_556 S
C146 H156 0.932 . S
C147 C144 1.358 . S
C147 C146 1.429 1_554 S
C147 H157 0.930 . S
C148 C144 1.332 . S
C148 C149 1.394 1_554 S
C148 H158 0.932 . S
C149 C145 1.308 . S
C149 C148 1.394 1_556 S
C149 H159 0.929 . S
C150 Tb121 2.764 . S
C150 O134 1.239 . S
C150 O135 1.263 . S
C150 C144 1.504 . S
C151 O136 1.236 . S
C151 O137 1.257 . S
H152 C125 0.932 . S
H153 C126 0.930 . S
H154 C127 0.932 . S
H155 C128 0.929 . S
H156 C146 0.932 . S
H157 C147 0.930 . S
H158 C148 0.932 . S
H159 C149 0.929 . S
Tb160 C169 2.764 . S
Tb160 O170 2.325 . S
Tb160 O173 2.303 . S
Tb160 O177 2.322 . S
Tb160 O178 2.349 . S
Tb160 O181 2.415 . S
Tb160 O182 2.399 . S
Tb161 O171 2.322 . S
Tb161 O172 2.349 . S
Tb161 O174 2.415 . S
Tb161 O175 2.399 . S
Tb161 O176 2.325 . S
Tb161 O179 2.303 . S
Tb161 C190 2.764 . S
C162 O178 1.261 . S
C162 O179 1.257 . S
C163 C166 1.358 . S
C163 C167 1.332 . S
C163 C169 1.504 . S
C164 C165 1.373 . S
C164 C168 1.308 . S
C165 C164 1.373 . S
C165 C166 1.429 . S
C165 H192 0.932 . S
C166 C163 1.358 . S
C166 C165 1.429 . S
C166 H193 0.930 . S
C167 C163 1.332 . S
C167 C168 1.394 . S
C167 H194 0.932 . S
C168 C164 1.308 . S
C168 C167 1.394 . S
C168 H195 0.929 . S
C169 Tb160 2.764 . S
C169 C163 1.504 . S
C169 O181 1.239 . S
C169 O182 1.263 . S
O170 Tb160 2.325 . S
O170 C180 1.236 . S
O171 Tb161 2.322 . S
O171 C180 1.257 . S
O172 Tb161 2.349 . S
O172 C183 1.261 . S
O173 Tb160 2.303 . S
O173 C183 1.257 . S
O174 Tb161 2.415 . S
O174 C190 1.239 . S
O175 Tb161 2.399 . S
O175 C190 1.263 . S
O176 Tb161 2.325 . S
O176 C191 1.236 . S
O177 Tb160 2.322 . S
O177 C191 1.257 . S
O178 Tb160 2.349 . S
O178 C162 1.261 . S
O179 Tb161 2.303 . S
O179 C162 1.257 . S
C180 O170 1.236 . S
C180 O171 1.257 . S
O181 Tb160 2.415 . S
O181 C169 1.239 . S
O182 Tb160 2.399 . S
O182 C169 1.263 . S
C183 O172 1.261 . S
C183 O173 1.257 . S
C184 C187 1.358 . S
C184 C188 1.332 . S
C184 C190 1.504 . S
C185 C186 1.373 . S
C185 C189 1.308 . S
C186 C185 1.373 . S
C186 C187 1.429 1_556 S
C186 H196 0.932 . S
C187 C184 1.358 . S
C187 C186 1.429 1_554 S
C187 H197 0.930 . S
C188 C184 1.332 . S
C188 C189 1.394 1_554 S
C188 H198 0.932 . S
C189 C185 1.308 . S
C189 C188 1.394 1_556 S
C189 H199 0.929 . S
C190 Tb161 2.764 . S
C190 O174 1.239 . S
C190 O175 1.263 . S
C190 C184 1.504 . S
C191 O176 1.236 . S
C191 O177 1.257 . S
H192 C165 0.932 . S
H193 C166 0.930 . S
H194 C167 0.932 . S
H195 C168 0.929 . S
H196 C186 0.932 . S
H197 C187 0.930 . S
H198 C188 0.932 . S
H199 C189 0.929 . S
Tb200 C209 2.764 . S
Tb200 O210 2.325 . S
Tb200 O213 2.303 . S
Tb200 O217 2.322 . S
Tb200 O218 2.349 . S
Tb200 O221 2.415 . S
Tb200 O222 2.399 . S
Tb201 O211 2.322 . S
Tb201 O212 2.349 . S
Tb201 O214 2.415 . S
Tb201 O215 2.399 . S
Tb201 O216 2.325 . S
Tb201 O219 2.303 . S
Tb201 C230 2.764 . S
C202 O218 1.261 . S
C202 O219 1.257 . S
C203 C206 1.358 . S
C203 C207 1.332 . S
C203 C209 1.504 . S
C204 C205 1.373 . S
C204 C208 1.308 . S
C205 C204 1.373 . S
C205 C206 1.429 1_554 S
C205 H232 0.932 . S
C206 C203 1.358 . S
C206 C205 1.429 1_556 S
C206 H233 0.930 . S
C207 C203 1.332 . S
C207 C208 1.394 1_556 S
C207 H234 0.932 . S
C208 C204 1.308 . S
C208 C207 1.394 1_554 S
C208 H235 0.929 . S
C209 Tb200 2.764 . S
C209 C203 1.504 . S
C209 O221 1.239 . S
C209 O222 1.263 . S
O210 Tb200 2.325 . S
O210 C220 1.236 . S
O211 Tb201 2.322 . S
O211 C220 1.257 . S
O212 Tb201 2.349 . S
O212 C223 1.261 . S
O213 Tb200 2.303 . S
O213 C223 1.257 . S
O214 Tb201 2.415 . S
O214 C230 1.239 . S
O215 Tb201 2.399 . S
O215 C230 1.263 . S
O216 Tb201 2.325 . S
O216 C231 1.236 . S
O217 Tb200 2.322 . S
O217 C231 1.257 . S
O218 Tb200 2.349 . S
O218 C202 1.261 . S
O219 Tb201 2.303 . S
O219 C202 1.257 . S
C220 O210 1.236 . S
C220 O211 1.257 . S
O221 Tb200 2.415 . S
O221 C209 1.239 . S
O222 Tb200 2.399 . S
O222 C209 1.263 . S
C223 O212 1.261 . S
C223 O213 1.257 . S
C224 C227 1.358 . S
C224 C228 1.332 . S
C224 C230 1.504 . S
C225 C226 1.373 . S
C225 C229 1.308 . S
C226 C225 1.373 . S
C226 C227 1.429 . S
C226 H236 0.932 . S
C227 C224 1.358 . S
C227 C226 1.429 . S
C227 H237 0.930 . S
C228 C224 1.332 . S
C228 C229 1.394 . S
C228 H238 0.932 . S
C229 C225 1.308 . S
C229 C228 1.394 . S
C229 H239 0.929 . S
C230 Tb201 2.764 . S
C230 O214 1.239 . S
C230 O215 1.263 . S
C230 C224 1.504 . S
C231 O216 1.236 . S
C231 O217 1.257 . S
H232 C205 0.932 . S
H233 C206 0.930 . S
H234 C207 0.932 . S
H235 C208 0.929 . S
H236 C226 0.932 . S
H237 C227 0.930 . S
H238 C228 0.932 . S
H239 C229 0.929 . S
Tb240 C249 2.764 . S
Tb240 O250 2.325 . S
Tb240 O253 2.303 . S
Tb240 O257 2.307 1_554 S
Tb240 O258 2.349 . S
Tb240 O261 2.415 . S
Tb240 O262 2.399 . S
Tb241 O251 2.303 1_556 S
Tb241 O252 2.349 . S
Tb241 O254 2.415 . S
Tb241 O255 2.399 . S
Tb241 O256 2.325 . S
Tb241 O259 2.303 . S
Tb241 C270 2.764 . S
C242 O258 1.261 1_556 S
C242 O259 1.257 . S
C243 C246 1.358 . S
C243 C247 1.332 . S
C243 C249 1.504 . S
C244 C245 1.373 . S
C244 C248 1.308 . S
C245 C244 1.373 . S
C245 C246 1.429 . S
C245 H272 0.932 . S
C246 C243 1.358 . S
C246 C245 1.429 . S
C246 H273 0.930 . S
C247 C243 1.332 . S
C247 C248 1.394 . S
C247 H274 0.932 . S
C248 C244 1.308 . S
C248 C247 1.394 . S
C248 H275 0.929 . S
C249 Tb240 2.764 . S
C249 C243 1.504 . S
C249 O261 1.239 . S
C249 O262 1.263 . S
O250 Tb240 2.325 . S
O250 C260 1.236 . S
O251 Tb241 2.303 1_554 S
O251 C260 1.281 . S
O252 Tb241 2.349 . S
O252 C263 1.261 1_556 S
O253 Tb240 2.303 . S
O253 C263 1.257 . S
O254 Tb241 2.415 . S
O254 C270 1.239 . S
O255 Tb241 2.399 . S
O255 C270 1.263 . S
O256 Tb241 2.325 . S
O256 C271 1.236 . S
O257 Tb240 2.307 1_556 S
O257 C271 1.276 . S
O258 Tb240 2.349 . S
O258 C242 1.261 1_554 S
O259 Tb241 2.303 . S
O259 C242 1.257 . S
C260 O250 1.236 . S
C260 O251 1.281 . S
O261 Tb240 2.415 . S
O261 C249 1.239 . S
O262 Tb240 2.399 . S
O262 C249 1.263 . S
C263 O252 1.261 1_554 S
C263 O253 1.257 . S
C264 C267 1.358 . S
C264 C268 1.332 . S
C264 C270 1.504 . S
C265 C266 1.373 . S
C265 C269 1.308 . S
C266 C265 1.373 . S
C266 C267 1.429 . S
C266 H276 0.932 . S
C267 C264 1.358 . S
C267 C266 1.429 . S
C267 H277 0.930 . S
C268 C264 1.332 . S
C268 C269 1.394 . S
C268 H278 0.932 . S
C269 C265 1.308 . S
C269 C268 1.394 . S
C269 H279 0.929 . S
C270 Tb241 2.764 . S
C270 O254 1.239 . S
C270 O255 1.263 . S
C270 C264 1.504 . S
C271 O256 1.236 . S
C271 O257 1.276 . S
H272 C245 0.932 . S
H273 C246 0.930 . S
H274 C247 0.932 . S
H275 C248 0.929 . S
H276 C266 0.932 . S
H277 C267 0.930 . S
H278 C268 0.932 . S
H279 C269 0.929 . S
Tb280 C289 2.764 1_655 S
Tb280 O290 2.325 1_655 S
Tb280 O293 2.303 . S
Tb280 O297 2.322 . S
Tb280 O298 2.349 1_655 S
Tb280 O301 2.415 . S
Tb280 O302 2.399 1_655 S
Tb281 O291 2.322 . S
Tb281 O292 2.349 1_455 S
Tb281 O294 2.415 . S
Tb281 O295 2.399 1_455 S
Tb281 O296 2.325 1_455 S
Tb281 O299 2.303 . S
Tb281 C310 2.764 1_455 S
C282 O298 1.261 . S
C282 O299 1.257 . S
C283 C286 1.358 . S
C283 C287 1.332 . S
C283 C289 1.504 . S
C284 C285 1.373 . S
C284 C288 1.308 . S
C285 C284 1.373 . S
C285 C286 1.429 . S
C285 H312 0.932 . S
C286 C283 1.358 . S
C286 C285 1.429 . S
C286 H313 0.930 . S
C287 C283 1.332 . S
C287 C288 1.394 . S
C287 H314 0.916 1_455 S
C288 C284 1.308 . S
C288 C287 1.394 . S
C288 H315 0.929 . S
C289 Tb280 2.764 1_455 S
C289 C283 1.504 . S
C289 O301 1.239 1_455 S
C289 O302 1.263 . S
O290 Tb280 2.325 1_455 S
O290 C300 1.236 . S
O291 Tb281 2.322 . S
O291 C300 1.257 . S
O292 Tb281 2.349 1_655 S
O292 C303 1.261 . S
O293 Tb280 2.303 . S
O293 C303 1.257 . S
O294 Tb281 2.415 . S
O294 C310 1.239 1_455 S
O295 Tb281 2.399 1_655 S
O295 C310 1.263 . S
O296 Tb281 2.325 1_655 S
O296 C311 1.236 . S
O297 Tb280 2.322 . S
O297 C311 1.257 . S
O298 Tb280 2.349 1_455 S
O298 C282 1.261 . S
O299 Tb281 2.303 . S
O299 C282 1.257 . S
C300 O290 1.236 . S
C300 O291 1.257 . S
O301 Tb280 2.415 . S
O301 C289 1.239 1_655 S
O302 Tb280 2.399 1_455 S
O302 C289 1.263 . S
C303 O292 1.261 . S
C303 O293 1.257 . S
C304 C307 1.358 . S
C304 C308 1.332 . S
C304 C310 1.504 . S
C305 C306 1.373 . S
C305 C309 1.308 . S
C306 C305 1.373 . S
C306 C307 1.429 . S
C306 H316 0.932 . S
C307 C304 1.358 . S
C307 C306 1.429 . S
C307 H317 0.930 . S
C308 C304 1.332 . S
C308 C309 1.394 . S
C308 H318 0.932 1_655 S
C309 C305 1.308 . S
C309 C308 1.394 . S
C309 H319 0.929 . S
C310 Tb281 2.764 1_655 S
C310 O294 1.239 1_655 S
C310 O295 1.263 . S
C310 C304 1.504 . S
C311 O296 1.236 . S
C311 O297 1.257 . S
H312 C285 0.932 . S
H313 C286 0.930 . S
H314 C287 0.916 1_655 S
H315 C288 0.929 . S
H316 C306 0.932 . S
H317 C307 0.930 . S
H318 C308 0.932 1_455 S
H319 C309 0.929 . S
C320 C321 1.349 . S
C320 C322 1.327 . S
C320 H345 0.950 . S
C321 C320 1.349 . S
C321 C337 1.349 . S
C322 C320 1.327 . S
C322 C341 1.429 . S
C322 H346 0.950 . S
C323 C340 1.574 . S
C323 C342 1.368 . S
C323 H347 0.949 . S
H324 C328 0.949 . S
C325 C326 1.349 . S
C325 C327 1.327 . S
C325 H348 0.950 . S
C326 C325 1.349 . S
C326 C338 1.349 . S
C327 C325 1.327 . S
C327 C343 1.429 . S
C327 H349 0.950 . S
C328 H324 0.949 . S
C328 C336 1.574 . S
C328 C344 1.368 . S
H329 C337 0.950 . S
H330 C335 0.950 . S
H331 C336 0.949 . S
H332 C338 0.950 . S
H333 C339 0.950 . S
H334 C340 0.949 . S
C335 H330 0.950 . S
C335 C337 1.327 . S
C335 C341 1.429 . S
C336 C328 1.574 . S
C336 H331 0.949 . S
C336 C342 1.368 . S
C337 C321 1.349 . S
C337 H329 0.950 . S
C337 C335 1.327 . S
C338 C326 1.349 . S
C338 H332 0.950 . S
C338 C339 1.327 . S
C339 H333 0.950 . S
C339 C338 1.327 . S
C339 C343 1.429 . S
C340 C323 1.574 . S
C340 H334 0.949 . S
C340 C344 1.368 . S
C341 C322 1.429 . S
C341 C335 1.429 . S
C341 C342 1.523 . S
C342 C323 1.368 . S
C342 C336 1.368 . S
C342 C341 1.523 . S
C343 C327 1.429 . S
C343 C339 1.429 . S
C343 C344 1.523 . S
C344 C328 1.368 . S
C344 C340 1.368 . S
C344 C343 1.523 . S
H345 C320 0.950 . S
H346 C322 0.950 . S
H347 C323 0.949 . S
H348 C325 0.950 . S
H349 C327 0.950 . S
C350 C351 1.349 . S
C350 C352 1.327 . S
C350 H375 0.950 . S
C351 C350 1.349 . S
C351 C367 1.349 . S
C352 C350 1.327 . S
C352 C371 1.429 . S
C352 H376 0.950 . S
C353 C370 1.574 . S
C353 C372 1.368 . S
C353 H377 0.949 . S
H354 C358 0.949 . S
C355 C356 1.349 . S
C355 C357 1.327 . S
C355 H378 0.950 . S
C356 C355 1.349 . S
C356 C368 1.349 . S
C357 C355 1.327 . S
C357 C373 1.429 . S
C357 H379 0.950 . S
C358 H354 0.949 . S
C358 C366 1.574 . S
C358 C374 1.368 . S
H359 C367 0.950 . S
H360 C365 0.950 . S
H361 C366 0.949 . S
H362 C368 0.950 . S
H363 C369 0.950 . S
H364 C370 0.949 . S
C365 H360 0.950 . S
C365 C367 1.327 . S
C365 C371 1.429 . S
C366 C358 1.574 . S
C366 H361 0.949 . S
C366 C372 1.368 . S
C367 C351 1.349 . S
C367 H359 0.950 . S
C367 C365 1.327 . S
C368 C356 1.349 . S
C368 H362 0.950 . S
C368 C369 1.327 . S
C369 H363 0.950 . S
C369 C368 1.327 . S
C369 C373 1.429 . S
C370 C353 1.574 . S
C370 H364 0.949 . S
C370 C374 1.368 . S
C371 C352 1.429 . S
C371 C365 1.429 . S
C371 C372 1.523 . S
C372 C353 1.368 . S
C372 C366 1.368 . S
C372 C371 1.523 . S
C373 C357 1.429 . S
C373 C369 1.429 . S
C373 C374 1.523 . S
C374 C358 1.368 . S
C374 C370 1.368 . S
C374 C373 1.523 . S
H375 C350 0.950 . S
H376 C352 0.950 . S
H377 C353 0.949 . S
H378 C355 0.950 . S
H379 C357 0.950 . S
C380 C381 1.349 . S
C380 C382 1.327 . S
C380 H405 0.950 . S
C381 C380 1.349 . S
C381 C397 1.349 . S
C382 C380 1.327 . S
C382 C401 1.429 . S
C382 H406 0.950 . S
C383 C400 1.574 . S
C383 C402 1.368 . S
C383 H407 0.949 . S
H384 C388 0.949 . S
C385 C386 1.349 . S
C385 C387 1.327 . S
C385 H408 0.950 . S
C386 C385 1.349 . S
C386 C398 1.349 . S
C387 C385 1.327 . S
C387 C403 1.429 . S
C387 H409 0.950 . S
C388 H384 0.949 . S
C388 C396 1.574 . S
C388 C404 1.368 . S
H389 C397 0.950 . S
H390 C395 0.950 . S
H391 C396 0.949 . S
H392 C398 0.950 . S
H393 C399 0.950 . S
H394 C400 0.949 . S
C395 H390 0.950 . S
C395 C397 1.327 . S
C395 C401 1.429 . S
C396 C388 1.574 . S
C396 H391 0.949 . S
C396 C402 1.368 . S
C397 C381 1.349 . S
C397 H389 0.950 . S
C397 C395 1.327 . S
C398 C386 1.349 . S
C398 H392 0.950 . S
C398 C399 1.327 . S
C399 H393 0.950 . S
C399 C398 1.327 . S
C399 C403 1.429 . S
C400 C383 1.574 . S
C400 H394 0.949 . S
C400 C404 1.368 . S
C401 C382 1.429 . S
C401 C395 1.429 . S
C401 C402 1.523 . S
C402 C383 1.368 . S
C402 C396 1.368 . S
C402 C401 1.523 . S
C403 C387 1.429 . S
C403 C399 1.429 . S
C403 C404 1.523 . S
C404 C388 1.368 . S
C404 C400 1.368 . S
C404 C403 1.523 . S
H405 C380 0.950 . S
H406 C382 0.950 . S
H407 C383 0.949 . S
H408 C385 0.950 . S
H409 C387 0.950 . S
C410 C411 1.349 . S
C410 C412 1.327 . S
C410 H435 0.950 . S
C411 C410 1.349 . S
C411 C427 1.349 . S
C412 C410 1.327 . S
C412 C431 1.429 . S
C412 H436 0.950 . S
C413 C430 1.574 . S
C413 C432 1.368 . S
C413 H437 0.949 . S
H414 C418 0.949 . S
C415 C416 1.349 . S
C415 C417 1.327 . S
C415 H438 0.950 . S
C416 C415 1.349 . S
C416 C428 1.349 . S
C417 C415 1.327 . S
C417 C433 1.429 . S
C417 H439 0.950 . S
C418 H414 0.949 . S
C418 C426 1.574 . S
C418 C434 1.368 . S
H419 C427 0.950 1_556 S
H420 C425 0.950 . S
H421 C426 0.949 . S
H422 C428 0.950 . S
H423 C429 0.950 . S
H424 C430 0.949 . S
C425 H420 0.950 . S
C425 C427 1.327 . S
C425 C431 1.429 . S
C426 C418 1.574 . S
C426 H421 0.949 . S
C426 C432 1.368 . S
C427 C411 1.349 . S
C427 H419 0.950 1_554 S
C427 C425 1.327 . S
C428 C416 1.349 . S
C428 H422 0.950 . S
C428 C429 1.327 . S
C429 H423 0.950 . S
C429 C428 1.327 . S
C429 C433 1.429 . S
C430 C413 1.574 . S
C430 H424 0.949 . S
C430 C434 1.368 . S
C431 C412 1.429 . S
C431 C425 1.429 . S
C431 C432 1.523 . S
C432 C413 1.368 . S
C432 C426 1.368 . S
C432 C431 1.523 . S
C433 C417 1.429 . S
C433 C429 1.429 . S
C433 C434 1.523 . S
C434 C418 1.368 . S
C434 C430 1.368 . S
C434 C433 1.523 . S
H435 C410 0.950 . S
H436 C412 0.950 . S
H437 C413 0.949 . S
H438 C415 0.950 . S
H439 C417 0.950 . S
C440 C441 1.349 . S
C440 C442 1.327 . S
C440 H465 0.950 . S
C441 C440 1.349 . S
C441 C457 1.349 . S
C442 C440 1.327 . S
C442 C461 1.429 . S
C442 H466 0.950 . S
C443 C460 1.574 . S
C443 C462 1.368 . S
C443 H467 0.949 . S
H444 C448 0.949 . S
C445 C446 1.349 . S
C445 C447 1.327 . S
C445 H468 0.950 . S
C446 C445 1.349 . S
C446 C458 1.349 . S
C447 C445 1.327 . S
C447 C463 1.429 . S
C447 H469 0.950 . S
C448 H444 0.949 . S
C448 C456 1.574 . S
C448 C464 1.368 . S
H449 C457 0.950 . S
H450 C455 0.950 . S
H451 C456 0.949 . S
H452 C458 0.950 . S
H453 C459 0.950 . S
H454 C460 0.949 . S
C455 H450 0.950 . S
C455 C457 1.327 . S
C455 C461 1.429 . S
C456 C448 1.574 . S
C456 H451 0.949 . S
C456 C462 1.368 . S
C457 C441 1.349 . S
C457 H449 0.950 . S
C457 C455 1.327 . S
C458 C446 1.349 . S
C458 H452 0.950 . S
C458 C459 1.327 . S
C459 H453 0.950 . S
C459 C458 1.327 . S
C459 C463 1.429 . S
C460 C443 1.574 . S
C460 H454 0.949 . S
C460 C464 1.368 . S
C461 C442 1.429 . S
C461 C455 1.429 . S
C461 C462 1.523 . S
C462 C443 1.368 . S
C462 C456 1.368 . S
C462 C461 1.523 . S
C463 C447 1.429 . S
C463 C459 1.429 . S
C463 C464 1.523 . S
C464 C448 1.368 . S
C464 C460 1.368 . S
C464 C463 1.523 . S
H465 C440 0.950 . S
H466 C442 0.950 . S
H467 C443 0.949 . S
H468 C445 0.950 . S
H469 C447 0.950 . S
C470 C471 1.349 . S
C470 C472 1.327 . S
C470 H495 0.950 . S
C471 C470 1.349 . S
C471 C487 1.349 . S
C472 C470 1.327 . S
C472 C491 1.429 . S
C472 H496 0.950 . S
C473 C490 1.574 . S
C473 C492 1.368 . S
C473 H497 0.949 . S
H474 C478 0.949 . S
C475 C476 1.349 . S
C475 C477 1.327 . S
C475 H498 0.950 . S
C476 C475 1.349 . S
C476 C488 1.349 . S
C477 C475 1.327 . S
C477 C493 1.429 . S
C477 H499 0.950 . S
C478 H474 0.949 . S
C478 C486 1.574 . S
C478 C494 1.368 . S
H479 C487 0.950 . S
H480 C485 0.950 . S
H481 C486 0.949 . S
H482 C488 0.950 . S
H483 C489 0.950 . S
H484 C490 0.949 . S
C485 H480 0.950 . S
C485 C487 1.327 . S
C485 C491 1.429 . S
C486 C478 1.574 . S
C486 H481 0.949 . S
C486 C492 1.368 . S
C487 C471 1.349 . S
C487 H479 0.950 . S
C487 C485 1.327 . S
C488 C476 1.349 . S
C488 H482 0.950 . S
C488 C489 1.327 . S
C489 H483 0.950 . S
C489 C488 1.327 . S
C489 C493 1.429 . S
C490 C473 1.574 . S
C490 H484 0.949 . S
C490 C494 1.368 . S
C491 C472 1.429 . S
C491 C485 1.429 . S
C491 C492 1.523 . S
C492 C473 1.368 . S
C492 C486 1.368 . S
C492 C491 1.523 . S
C493 C477 1.429 . S
C493 C489 1.429 . S
C493 C494 1.523 . S
C494 C478 1.368 . S
C494 C490 1.368 . S
C494 C493 1.523 . S
H495 C470 0.950 . S
H496 C472 0.950 . S
H497 C473 0.949 . S
H498 C475 0.950 . S
H499 C477 0.950 . S
C500 C501 1.349 . S
C500 C502 1.327 . S
C500 H525 0.950 . S
C501 C500 1.349 . S
C501 C517 1.349 . S
C502 C500 1.327 . S
C502 C521 1.429 . S
C502 H526 0.950 . S
C503 C520 1.574 . S
C503 C522 1.368 . S
C503 H527 0.949 . S
H504 C508 0.949 . S
C505 C506 1.349 . S
C505 C507 1.327 . S
C505 H528 0.950 . S
C506 C505 1.349 . S
C506 C518 1.349 . S
C507 C505 1.327 . S
C507 C523 1.429 . S
C507 H529 0.950 . S
C508 H504 0.949 . S
C508 C516 1.574 . S
C508 C524 1.368 . S
H509 C517 0.950 . S
H510 C515 0.950 . S
H511 C516 0.949 . S
H512 C518 0.950 . S
H513 C519 0.950 . S
H514 C520 0.949 . S
C515 H510 0.950 . S
C515 C517 1.327 . S
C515 C521 1.429 . S
C516 C508 1.574 . S
C516 H511 0.949 . S
C516 C522 1.368 . S
C517 C501 1.349 . S
C517 H509 0.950 . S
C517 C515 1.327 . S
C518 C506 1.349 . S
C518 H512 0.950 . S
C518 C519 1.327 . S
C519 H513 0.950 . S
C519 C518 1.327 . S
C519 C523 1.429 . S
C520 C503 1.574 . S
C520 H514 0.949 . S
C520 C524 1.368 . S
C521 C502 1.429 . S
C521 C515 1.429 . S
C521 C522 1.523 . S
C522 C503 1.368 . S
C522 C516 1.368 . S
C522 C521 1.523 . S
C523 C507 1.429 . S
C523 C519 1.429 . S
C523 C524 1.523 . S
C524 C508 1.368 . S
C524 C520 1.368 . S
C524 C523 1.523 . S
H525 C500 0.950 . S
H526 C502 0.950 . S
H527 C503 0.949 . S
H528 C505 0.950 . S
H529 C507 0.950 . S
C530 C531 1.349 . S
C530 C532 1.327 . S
C530 H555 0.950 . S
C531 C530 1.349 . S
C531 C547 1.349 . S
C532 C530 1.327 . S
C532 C551 1.429 . S
C532 H556 0.950 . S
C533 C550 1.574 . S
C533 C552 1.368 . S
C533 H557 0.949 . S
H534 C538 0.949 . S
C535 C536 1.349 . S
C535 C537 1.327 . S
C535 H558 0.950 1_556 S
C536 C535 1.349 . S
C536 C548 1.349 . S
C537 C535 1.327 . S
C537 C553 1.429 . S
C537 H559 0.950 . S
C538 H534 0.949 . S
C538 C546 1.574 . S
C538 C554 1.368 . S
H539 C547 0.950 . S
H540 C545 0.950 . S
H541 C546 0.949 . S
H542 C548 0.950 . S
H543 C549 0.950 . S
H544 C550 0.949 . S
C545 H540 0.950 . S
C545 C547 1.327 . S
C545 C551 1.429 . S
C546 C538 1.574 . S
C546 H541 0.949 . S
C546 C552 1.368 . S
C547 C531 1.349 . S
C547 H539 0.950 . S
C547 C545 1.327 . S
C548 C536 1.349 . S
C548 H542 0.950 . S
C548 C549 1.327 . S
C549 H543 0.950 . S
C549 C548 1.327 . S
C549 C553 1.429 . S
C550 C533 1.574 . S
C550 H544 0.949 . S
C550 C554 1.368 . S
C551 C532 1.429 . S
C551 C545 1.429 . S
C551 C552 1.523 . S
C552 C533 1.368 . S
C552 C546 1.368 . S
C552 C551 1.523 . S
C553 C537 1.429 . S
C553 C549 1.429 . S
C553 C554 1.523 . S
C554 C538 1.368 . S
C554 C550 1.368 . S
C554 C553 1.523 . S
H555 C530 0.950 . S
H556 C532 0.950 . S
H557 C533 0.949 . S
H558 C535 0.950 1_554 S
H559 C537 0.950 . S
C560 C561 1.349 . S
C560 C562 1.327 . S
C560 H585 0.950 . S
C561 C560 1.349 . S
C561 C577 1.349 . S
C562 C560 1.327 . S
C562 C581 1.429 . S
C562 H586 0.950 . S
C563 C580 1.574 . S
C563 C582 1.368 . S
C563 H587 0.949 . S
H564 C568 0.949 . S
C565 C566 1.349 . S
C565 C567 1.327 . S
C565 H588 0.950 . S
C566 C565 1.349 . S
C566 C578 1.349 . S
C567 C565 1.327 . S
C567 C583 1.429 . S
C567 H589 0.950 . S
C568 H564 0.949 . S
C568 C576 1.574 . S
C568 C584 1.368 . S
H569 C577 0.950 . S
H570 C575 0.950 . S
H571 C576 0.949 . S
H572 C578 0.950 . S
H573 C579 0.950 . S
H574 C580 0.949 . S
C575 H570 0.950 . S
C575 C577 1.327 . S
C575 C581 1.429 . S
C576 C568 1.574 . S
C576 H571 0.949 . S
C576 C582 1.368 . S
C577 C561 1.349 . S
C577 H569 0.950 . S
C577 C575 1.327 . S
C578 C566 1.349 . S
C578 H572 0.950 . S
C578 C579 1.327 . S
C579 H573 0.950 . S
C579 C578 1.327 . S
C579 C583 1.429 . S
C580 C563 1.574 . S
C580 H574 0.949 . S
C580 C584 1.368 . S
C581 C562 1.429 . S
C581 C575 1.429 . S
C581 C582 1.523 . S
C582 C563 1.368 . S
C582 C576 1.368 . S
C582 C581 1.523 . S
C583 C567 1.429 . S
C583 C579 1.429 . S
C583 C584 1.523 . S
C584 C568 1.368 . S
C584 C580 1.368 . S
C584 C583 1.523 . S
H585 C560 0.950 . S
H586 C562 0.950 . S
H587 C563 0.949 . S
H588 C565 0.950 . S
H589 C567 0.950 . S
C590 C591 1.349 . S
C590 C592 1.327 . S
C590 H615 0.950 . S
C591 C590 1.349 . S
C591 C607 1.349 . S
C592 C590 1.327 . S
C592 C611 1.429 . S
C592 H616 0.950 . S
C593 C610 1.574 . S
C593 C612 1.368 . S
C593 H617 0.949 . S
H594 C598 0.949 . S
C595 C596 1.349 . S
C595 C597 1.327 . S
C595 H618 0.950 . S
C596 C595 1.349 . S
C596 C608 1.349 . S
C597 C595 1.327 . S
C597 C613 1.429 . S
C597 H619 0.950 . S
C598 H594 0.949 . S
C598 C606 1.574 . S
C598 C614 1.368 . S
H599 C607 0.950 . S
H600 C605 0.950 . S
H601 C606 0.949 . S
H602 C608 0.950 1_556 S
H603 C609 0.950 . S
H604 C610 0.949 . S
C605 H600 0.950 . S
C605 C607 1.327 . S
C605 C611 1.429 . S
C606 C598 1.574 . S
C606 H601 0.949 . S
C606 C612 1.368 . S
C607 C591 1.349 . S
C607 H599 0.950 . S
C607 C605 1.327 . S
C608 C596 1.349 . S
C608 H602 0.950 1_554 S
C608 C609 1.327 . S
C609 H603 0.950 . S
C609 C608 1.327 . S
C609 C613 1.429 . S
C610 C593 1.574 . S
C610 H604 0.949 . S
C610 C614 1.368 . S
C611 C592 1.429 . S
C611 C605 1.429 . S
C611 C612 1.523 . S
C612 C593 1.368 . S
C612 C606 1.368 . S
C612 C611 1.523 . S
C613 C597 1.429 . S
C613 C609 1.429 . S
C613 C614 1.523 . S
C614 C598 1.368 . S
C614 C610 1.368 . S
C614 C613 1.523 . S
H615 C590 0.950 . S
H616 C592 0.950 . S
H617 C593 0.949 . S
H618 C595 0.950 . S
H619 C597 0.950 . S
C620 C621 1.349 . S
C620 C622 1.327 . S
C620 H645 0.950 . S
C621 C620 1.349 . S
C621 C637 1.349 . S
C622 C620 1.327 . S
C622 C641 1.429 . S
C622 H646 0.950 . S
C623 C640 1.574 . S
C623 C642 1.368 . S
C623 H647 0.949 . S
H624 C628 0.949 . S
C625 C626 1.349 . S
C625 C627 1.327 . S
C625 H648 0.950 . S
C626 C625 1.349 . S
C626 C638 1.349 . S
C627 C625 1.327 . S
C627 C643 1.429 . S
C627 H649 0.950 . S
C628 H624 0.949 . S
C628 C636 1.574 . S
C628 C644 1.368 . S
H629 C637 0.950 . S
H630 C635 0.950 . S
H631 C636 0.949 . S
H632 C638 0.950 . S
H633 C639 0.950 . S
H634 C640 0.949 . S
C635 H630 0.950 . S
C635 C637 1.327 . S
C635 C641 1.429 . S
C636 C628 1.574 . S
C636 H631 0.949 . S
C636 C642 1.368 . S
C637 C621 1.349 . S
C637 H629 0.950 . S
C637 C635 1.327 . S
C638 C626 1.349 . S
C638 H632 0.950 . S
C638 C639 1.327 . S
C639 H633 0.950 . S
C639 C638 1.327 . S
C639 C643 1.429 . S
C640 C623 1.574 . S
C640 H634 0.949 . S
C640 C644 1.368 . S
C641 C622 1.429 . S
C641 C635 1.429 . S
C641 C642 1.523 . S
C642 C623 1.368 . S
C642 C636 1.368 . S
C642 C641 1.523 . S
C643 C627 1.429 . S
C643 C639 1.429 . S
C643 C644 1.523 . S
C644 C628 1.368 . S
C644 C640 1.368 . S
C644 C643 1.523 . S
H645 C620 0.950 . S
H646 C622 0.950 . S
H647 C623 0.949 . S
H648 C625 0.950 . S
H649 C627 0.950 . S
C650 C651 1.349 . S
C650 C652 1.327 . S
C650 H675 0.950 . S
C651 C650 1.349 . S
C651 C667 1.349 . S
C652 C650 1.327 . S
C652 C671 1.429 . S
C652 H676 0.950 . S
C653 C670 1.574 . S
C653 C672 1.368 . S
C653 H677 0.949 . S
H654 C658 0.949 . S
C655 C656 1.349 . S
C655 C657 1.327 . S
C655 H678 0.950 . S
C656 C655 1.349 . S
C656 C668 1.349 . S
C657 C655 1.327 . S
C657 C673 1.429 . S
C657 H679 0.950 . S
C658 H654 0.949 . S
C658 C666 1.574 . S
C658 C674 1.368 . S
H659 C667 0.950 . S
H660 C665 0.950 . S
H661 C666 0.949 . S
H662 C668 0.950 . S
H663 C669 0.950 . S
H664 C670 0.949 . S
C665 H660 0.950 . S
C665 C667 1.327 . S
C665 C671 1.429 . S
C666 C658 1.574 . S
C666 H661 0.949 . S
C666 C672 1.368 . S
C667 C651 1.349 . S
C667 H659 0.950 . S
C667 C665 1.327 . S
C668 C656 1.349 . S
C668 H662 0.950 . S
C668 C669 1.327 . S
C669 H663 0.950 . S
C669 C668 1.327 . S
C669 C673 1.429 . S
C670 C653 1.574 . S
C670 H664 0.949 . S
C670 C674 1.368 . S
C671 C652 1.429 . S
C671 C665 1.429 . S
C671 C672 1.523 . S
C672 C653 1.368 . S
C672 C666 1.368 . S
C672 C671 1.523 . S
C673 C657 1.429 . S
C673 C669 1.429 . S
C673 C674 1.523 . S
C674 C658 1.368 . S
C674 C670 1.368 . S
C674 C673 1.523 . S
H675 C650 0.950 . S
H676 C652 0.950 . S
H677 C653 0.949 . S
H678 C655 0.950 . S
H679 C657 0.950 . S
C680 C681 1.349 . S
C680 C682 1.327 . S
C680 H705 0.950 . S
C681 C680 1.349 . S
C681 C697 1.349 . S
C682 C680 1.327 . S
C682 C701 1.429 . S
C682 H706 0.950 . S
C683 C700 1.574 . S
C683 C702 1.368 . S
C683 H707 0.949 . S
H684 C688 0.949 . S
C685 C686 1.349 . S
C685 C687 1.327 . S
C685 H708 0.950 . S
C686 C685 1.349 . S
C686 C698 1.349 . S
C687 C685 1.327 . S
C687 C703 1.429 . S
C687 H709 0.950 . S
C688 H684 0.949 . S
C688 C696 1.574 . S
C688 C704 1.368 . S
H689 C697 0.950 . S
H690 C695 0.950 . S
H691 C696 0.949 . S
H692 C698 0.950 . S
H693 C699 0.950 . S
H694 C700 0.949 . S
C695 H690 0.950 . S
C695 C697 1.327 . S
C695 C701 1.429 . S
C696 C688 1.574 . S
C696 H691 0.949 . S
C696 C702 1.368 . S
C697 C681 1.349 . S
C697 H689 0.950 . S
C697 C695 1.327 . S
C698 C686 1.349 . S
C698 H692 0.950 . S
C698 C699 1.327 . S
C699 H693 0.950 . S
C699 C698 1.327 . S
C699 C703 1.429 . S
C700 C683 1.574 . S
C700 H694 0.949 . S
C700 C704 1.368 . S
C701 C682 1.429 . S
C701 C695 1.429 . S
C701 C702 1.523 . S
C702 C683 1.368 . S
C702 C696 1.368 . S
C702 C701 1.523 . S
C703 C687 1.429 . S
C703 C699 1.429 . S
C703 C704 1.523 . S
C704 C688 1.368 . S
C704 C700 1.368 . S
C704 C703 1.523 . S
H705 C680 0.950 . S
H706 C682 0.950 . S
H707 C683 0.949 . S
H708 C685 0.950 . S
H709 C687 0.950 . S
C710 C711 1.349 . S
C710 C712 1.327 . S
C710 H735 0.950 1_556 S
C711 C710 1.349 . S
C711 C727 1.349 . S
C712 C710 1.327 . S
C712 C731 1.429 . S
C712 H736 0.950 . S
C713 C730 1.574 . S
C713 C732 1.368 . S
C713 H737 0.949 . S
H714 C718 0.949 . S
C715 C716 1.349 . S
C715 C717 1.327 . S
C715 H738 0.950 . S
C716 C715 1.349 . S
C716 C728 1.349 . S
C717 C715 1.327 . S
C717 C733 1.429 . S
C717 H739 0.950 . S
C718 H714 0.949 . S
C718 C726 1.574 . S
C718 C734 1.368 . S
H719 C727 0.950 . S
H720 C725 0.950 . S
H721 C726 0.949 . S
H722 C728 0.950 . S
H723 C729 0.950 . S
H724 C730 0.949 . S
C725 H720 0.950 . S
C725 C727 1.327 . S
C725 C731 1.429 . S
C726 C718 1.574 . S
C726 H721 0.949 . S
C726 C732 1.368 . S
C727 C711 1.349 . S
C727 H719 0.950 . S
C727 C725 1.327 . S
C728 C716 1.349 . S
C728 H722 0.950 . S
C728 C729 1.327 . S
C729 H723 0.950 . S
C729 C728 1.327 . S
C729 C733 1.429 . S
C730 C713 1.574 . S
C730 H724 0.949 . S
C730 C734 1.368 . S
C731 C712 1.429 . S
C731 C725 1.429 . S
C731 C732 1.523 . S
C732 C713 1.368 . S
C732 C726 1.368 . S
C732 C731 1.523 . S
C733 C717 1.429 . S
C733 C729 1.429 . S
C733 C734 1.523 . S
C734 C718 1.368 . S
C734 C730 1.368 . S
C734 C733 1.523 . S
H735 C710 0.950 1_554 S
H736 C712 0.950 . S
H737 C713 0.949 . S
H738 C715 0.950 . S
H739 C717 0.950 . S
C740 C741 1.349 . S
C740 C742 1.327 . S
C740 H765 0.950 . S
C741 C740 1.349 . S
C741 C757 1.349 . S
C742 C740 1.327 . S
C742 C761 1.429 . S
C742 H766 0.950 . S
C743 C760 1.574 . S
C743 C762 1.368 . S
C743 H767 0.949 . S
H744 C748 0.949 . S
C745 C746 1.349 . S
C745 C747 1.327 . S
C745 H768 0.950 . S
C746 C745 1.349 . S
C746 C758 1.349 . S
C747 C745 1.327 . S
C747 C763 1.429 . S
C747 H769 0.950 . S
C748 H744 0.949 . S
C748 C756 1.574 . S
C748 C764 1.368 . S
H749 C757 0.950 . S
H750 C755 0.950 . S
H751 C756 0.949 . S
H752 C758 0.950 . S
H753 C759 0.950 . S
H754 C760 0.949 . S
C755 H750 0.950 . S
C755 C757 1.327 . S
C755 C761 1.429 . S
C756 C748 1.574 . S
C756 H751 0.949 . S
C756 C762 1.368 . S
C757 C741 1.349 . S
C757 H749 0.950 . S
C757 C755 1.327 . S
C758 C746 1.349 . S
C758 H752 0.950 . S
C758 C759 1.327 . S
C759 H753 0.950 . S
C759 C758 1.327 . S
C759 C763 1.429 . S
C760 C743 1.574 . S
C760 H754 0.949 . S
C760 C764 1.368 . S
C761 C742 1.429 . S
C761 C755 1.429 . S
C761 C762 1.523 . S
C762 C743 1.368 . S
C762 C756 1.368 . S
C762 C761 1.523 . S
C763 C747 1.429 . S
C763 C759 1.429 . S
C763 C764 1.523 . S
C764 C748 1.368 . S
C764 C760 1.368 . S
C764 C763 1.523 . S
H765 C740 0.950 . S
H766 C742 0.950 . S
H767 C743 0.949 . S
H768 C745 0.950 . S
H769 C747 0.950 . S
C770 C771 1.349 . S
C770 C772 1.327 . S
C770 H795 0.950 . S
C771 C770 1.349 . S
C771 C787 1.349 . S
C772 C770 1.327 . S
C772 C791 1.429 . S
C772 H796 0.950 . S
C773 C790 1.574 . S
C773 C792 1.368 . S
C773 H797 0.949 . S
H774 C778 0.949 . S
C775 C776 1.349 . S
C775 C777 1.327 . S
C775 H798 0.950 . S
C776 C775 1.349 . S
C776 C788 1.349 . S
C777 C775 1.327 . S
C777 C793 1.429 . S
C777 H799 0.950 . S
C778 H774 0.949 . S
C778 C786 1.574 . S
C778 C794 1.368 . S
H779 C787 0.950 . S
H780 C785 0.950 . S
H781 C786 0.949 . S
H782 C788 0.950 . S
H783 C789 0.950 . S
H784 C790 0.949 . S
C785 H780 0.950 . S
C785 C787 1.327 . S
C785 C791 1.429 . S
C786 C778 1.574 . S
C786 H781 0.949 . S
C786 C792 1.368 . S
C787 C771 1.349 . S
C787 H779 0.950 . S
C787 C785 1.327 . S
C788 C776 1.349 . S
C788 H782 0.950 . S
C788 C789 1.327 . S
C789 H783 0.950 . S
C789 C788 1.327 . S
C789 C793 1.429 . S
C790 C773 1.574 . S
C790 H784 0.949 . S
C790 C794 1.368 . S
C791 C772 1.429 . S
C791 C785 1.429 . S
C791 C792 1.523 . S
C792 C773 1.368 . S
C792 C786 1.368 . S
C792 C791 1.523 . S
C793 C777 1.429 . S
C793 C789 1.429 . S
C793 C794 1.523 . S
C794 C778 1.368 . S
C794 C790 1.368 . S
C794 C793 1.523 . S
H795 C770 0.950 . S
H796 C772 0.950 . S
H797 C773 0.949 . S
H798 C775 0.950 . S
H799 C777 0.950 . S
C800 C801 1.349 1_565 S
C800 C802 1.327 . S
C800 H825 0.950 1_655 S
C801 C800 1.349 1_545 S
C801 C817 1.349 . S
C802 C800 1.327 . S
C802 C821 1.429 1_565 S
C802 H826 0.949 1_655 S
C803 C820 1.574 1_556 S
C803 C822 1.368 . S
C803 H827 0.949 . S
H804 C808 0.949 . S
C805 C806 1.349 1_545 S
C805 C807 1.329 . S
C805 H828 0.950 1_455 S
C806 C805 1.349 1_565 S
C806 C818 1.349 . S
C807 C805 1.329 . S
C807 C823 1.433 1_545 S
C807 H829 0.943 1_455 S
C808 H804 0.949 . S
C808 C816 1.574 1_554 S
C808 C824 1.368 . S
H809 C817 0.950 . S
H810 C815 0.950 . S
H811 C816 0.949 . S
H812 C818 0.950 . S
H813 C819 0.950 . S
H814 C820 0.949 . S
C815 H810 0.950 . S
C815 C817 1.327 . S
C815 C821 1.429 . S
C816 C808 1.574 1_556 S
C816 H811 0.949 . S
C816 C822 1.368 1_465 S
C817 C801 1.349 . S
C817 H809 0.950 . S
C817 C815 1.327 . S
C818 C806 1.349 . S
C818 H812 0.950 . S
C818 C819 1.327 . S
C819 H813 0.950 . S
C819 C818 1.327 . S
C819 C823 1.429 . S
C820 C803 1.574 1_554 S
C820 H814 0.949 . S
C820 C824 1.368 1_645 S
C821 C802 1.429 1_545 S
C821 C815 1.429 . S
C821 C822 1.523 . S
C822 C803 1.368 . S
C822 C816 1.368 1_645 S
C822 C821 1.523 . S
C823 C807 1.433 1_565 S
C823 C819 1.429 . S
C823 C824 1.523 . S
C824 C808 1.368 . S
C824 C820 1.368 1_465 S
C824 C823 1.523 . S
H825 C800 0.950 1_455 S
H826 C802 0.949 1_455 S
H827 C803 0.949 . S
H828 C805 0.950 1_655 S
H829 C807 0.943 1_655 S
C830 C831 1.349 . S
C830 C832 1.327 . S
C830 H855 0.950 . S
C831 C830 1.349 . S
C831 C847 1.349 . S
C832 C830 1.327 . S
C832 C851 1.429 . S
C832 H856 0.950 . S
C833 C850 1.574 . S
C833 C852 1.368 . S
C833 H857 0.949 . S
H834 C838 0.949 . S
C835 C836 1.349 . S
C835 C837 1.327 . S
C835 H858 0.950 . S
C836 C835 1.349 . S
C836 C848 1.349 . S
C837 C835 1.327 . S
C837 C853 1.429 . S
C837 H859 0.950 . S
C838 H834 0.949 . S
C838 C846 1.574 . S
C838 C854 1.368 . S
H839 C847 0.950 . S
H840 C845 0.950 . S
H841 C846 0.949 . S
H842 C848 0.950 . S
H843 C849 0.950 . S
H844 C850 0.949 . S
C845 H840 0.950 . S
C845 C847 1.327 . S
C845 C851 1.429 . S
C846 C838 1.574 . S
C846 H841 0.949 . S
C846 C852 1.368 . S
C847 C831 1.349 . S
C847 H839 0.950 . S
C847 C845 1.327 . S
C848 C836 1.349 . S
C848 H842 0.950 . S
C848 C849 1.327 . S
C849 H843 0.950 . S
C849 C848 1.327 . S
C849 C853 1.429 . S
C850 C833 1.574 . S
C850 H844 0.949 . S
C850 C854 1.368 . S
C851 C832 1.429 . S
C851 C845 1.429 . S
C851 C852 1.523 . S
C852 C833 1.368 . S
C852 C846 1.368 . S
C852 C851 1.523 . S
C853 C837 1.429 . S
C853 C849 1.429 . S
C853 C854 1.523 . S
C854 C838 1.368 . S
C854 C850 1.368 . S
C854 C853 1.523 . S
H855 C830 0.950 . S
H856 C832 0.950 . S
H857 C833 0.949 . S
H858 C835 0.950 . S
H859 C837 0.950 . S
C860 C861 1.349 1_565 S
C860 C862 1.327 . S
C860 H885 0.950 . S
C861 C860 1.349 1_545 S
C861 C877 1.349 . S
C862 C860 1.327 . S
C862 C881 1.429 1_565 S
C862 H886 0.950 . S
C863 C880 1.574 . S
C863 C882 1.368 . S
C863 H887 0.949 . S
H864 C868 0.949 . S
C865 C866 1.349 1_545 S
C865 C867 1.327 . S
C865 H888 0.950 . S
C866 C865 1.349 1_565 S
C866 C878 1.349 . S
C867 C865 1.327 . S
C867 C883 1.429 1_545 S
C867 H889 0.950 . S
C868 H864 0.949 . S
C868 C876 1.574 . S
C868 C884 1.368 . S
H869 C877 0.950 . S
H870 C875 0.950 . S
H871 C876 0.949 . S
H872 C878 0.950 . S
H873 C879 0.950 . S
H874 C880 0.949 . S
C875 H870 0.950 . S
C875 C877 1.327 . S
C875 C881 1.429 . S
C876 C868 1.574 . S
C876 H871 0.949 . S
C876 C882 1.368 1_565 S
C877 C861 1.349 . S
C877 H869 0.950 . S
C877 C875 1.327 . S
C878 C866 1.349 . S
C878 H872 0.950 . S
C878 C879 1.327 . S
C879 H873 0.950 . S
C879 C878 1.327 . S
C879 C883 1.429 . S
C880 C863 1.574 . S
C880 H874 0.949 . S
C880 C884 1.368 1_545 S
C881 C862 1.429 1_545 S
C881 C875 1.429 . S
C881 C882 1.523 . S
C882 C863 1.368 . S
C882 C876 1.368 1_545 S
C882 C881 1.523 . S
C883 C867 1.429 1_565 S
C883 C879 1.429 . S
C883 C884 1.523 . S
C884 C868 1.368 . S
C884 C880 1.368 1_565 S
C884 C883 1.523 . S
H885 C860 0.950 . S
H886 C862 0.950 . S
H887 C863 0.949 . S
H888 C865 0.950 . S
H889 C867 0.950 . S
C890 C891 1.349 . S
C890 C892 1.327 . S
C890 H915 0.950 . S
C891 C890 1.349 . S
C891 C907 1.349 . S
C892 C890 1.327 . S
C892 C911 1.429 . S
C892 H916 0.950 . S
C893 C910 1.574 . S
C893 C912 1.368 . S
C893 H917 0.949 . S
H894 C898 0.949 . S
C895 C896 1.349 . S
C895 C897 1.327 . S
C895 H918 0.950 . S
C896 C895 1.349 . S
C896 C908 1.349 . S
C897 C895 1.327 . S
C897 C913 1.429 . S
C897 H919 0.950 . S
C898 H894 0.949 . S
C898 C906 1.574 . S
C898 C914 1.368 . S
H899 C907 0.950 . S
H900 C905 0.950 . S
H901 C906 0.949 . S
H902 C908 0.950 . S
H903 C909 0.950 . S
H904 C910 0.949 . S
C905 H900 0.950 . S
C905 C907 1.327 . S
C905 C911 1.429 . S
C906 C898 1.574 . S
C906 H901 0.949 . S
C906 C912 1.368 . S
C907 C891 1.349 . S
C907 H899 0.950 . S
C907 C905 1.327 . S
C908 C896 1.349 . S
C908 H902 0.950 . S
C908 C909 1.327 . S
C909 H903 0.950 . S
C909 C908 1.327 . S
C909 C913 1.429 . S
C910 C893 1.574 . S
C910 H904 0.949 . S
C910 C914 1.368 . S
C911 C892 1.429 . S
C911 C905 1.429 . S
C911 C912 1.523 . S
C912 C893 1.368 . S
C912 C906 1.368 . S
C912 C911 1.523 . S
C913 C897 1.429 . S
C913 C909 1.429 . S
C913 C914 1.523 . S
C914 C898 1.368 . S
C914 C910 1.368 . S
C914 C913 1.523 . S
H915 C890 0.950 . S
H916 C892 0.950 . S
H917 C893 0.949 . S
H918 C895 0.950 . S
H919 C897 0.950 . S
C920 C921 1.349 . S
C920 C922 1.327 . S
C920 H945 0.950 . S
C921 C920 1.349 . S
C921 C937 1.349 . S
C922 C920 1.327 . S
C922 C941 1.429 . S
C922 H946 0.950 . S
C923 C940 1.574 . S
C923 C942 1.368 . S
C923 H947 0.949 . S
H924 C928 0.949 . S
C925 C926 1.349 . S
C925 C927 1.327 . S
C925 H948 0.950 . S
C926 C925 1.349 . S
C926 C938 1.349 . S
C927 C925 1.327 . S
C927 C943 1.429 . S
C927 H949 0.950 . S
C928 H924 0.949 . S
C928 C936 1.574 . S
C928 C944 1.368 . S
H929 C937 0.950 . S
H930 C935 0.950 . S
H931 C936 0.949 . S
H932 C938 0.950 . S
H933 C939 0.950 . S
H934 C940 0.949 . S
C935 H930 0.950 . S
C935 C937 1.327 . S
C935 C941 1.429 . S
C936 C928 1.574 . S
C936 H931 0.949 . S
C936 C942 1.368 . S
C937 C921 1.349 . S
C937 H929 0.950 . S
C937 C935 1.327 . S
C938 C926 1.349 . S
C938 H932 0.950 . S
C938 C939 1.327 . S
C939 H933 0.950 . S
C939 C938 1.327 . S
C939 C943 1.429 . S
C940 C923 1.574 . S
C940 H934 0.949 . S
C940 C944 1.368 . S
C941 C922 1.429 . S
C941 C935 1.429 . S
C941 C942 1.523 . S
C942 C923 1.368 . S
C942 C936 1.368 . S
C942 C941 1.523 . S
C943 C927 1.429 . S
C943 C939 1.429 . S
C943 C944 1.523 . S
C944 C928 1.368 . S
C944 C940 1.368 . S
C944 C943 1.523 . S
H945 C920 0.950 . S
H946 C922 0.950 . S
H947 C923 0.949 . S
H948 C925 0.950 . S
H949 C927 0.950 . S
C950 C951 1.349 . S
C950 C952 1.327 . S
C950 H975 0.950 . S
C951 C950 1.349 . S
C951 C967 1.349 . S
C952 C950 1.327 . S
C952 C971 1.429 . S
C952 H976 0.950 . S
C953 C970 1.574 . S
C953 C972 1.368 . S
C953 H977 0.949 . S
H954 C958 0.949 . S
C955 C956 1.349 . S
C955 C957 1.327 . S
C955 H978 0.950 . S
C956 C955 1.349 . S
C956 C968 1.349 . S
C957 C955 1.327 . S
C957 C973 1.429 . S
C957 H979 0.950 . S
C958 H954 0.949 . S
C958 C966 1.574 . S
C958 C974 1.368 . S
H959 C967 0.950 . S
H960 C965 0.950 . S
H961 C966 0.949 . S
H962 C968 0.950 . S
H963 C969 0.950 . S
H964 C970 0.949 . S
C965 H960 0.950 . S
C965 C967 1.327 . S
C965 C971 1.429 . S
C966 C958 1.574 . S
C966 H961 0.949 . S
C966 C972 1.368 . S
C967 C951 1.349 . S
C967 H959 0.950 . S
C967 C965 1.327 . S
C968 C956 1.349 . S
C968 H962 0.950 . S
C968 C969 1.327 . S
C969 H963 0.950 . S
C969 C968 1.327 . S
C969 C973 1.429 . S
C970 C953 1.574 . S
C970 H964 0.949 . S
C970 C974 1.368 . S
C971 C952 1.429 . S
C971 C965 1.429 . S
C971 C972 1.523 . S
C972 C953 1.368 . S
C972 C966 1.368 . S
C972 C971 1.523 . S
C973 C957 1.429 . S
C973 C969 1.429 . S
C973 C974 1.523 . S
C974 C958 1.368 . S
C974 C970 1.368 . S
C974 C973 1.523 . S
H975 C950 0.950 . S
H976 C952 0.950 . S
H977 C953 0.949 . S
H978 C955 0.950 . S
H979 C957 0.950 . S
C980 C981 1.349 . S
C980 C982 1.327 . S
C980 H1005 0.950 . S
C981 C980 1.349 . S
C981 C997 1.349 . S
C982 C980 1.327 . S
C982 C1001 1.429 . S
C982 H1006 0.950 . S
C983 C1000 1.574 . S
C983 C1002 1.368 . S
C983 H1007 0.949 . S
H984 C988 0.949 . S
C985 C986 1.349 . S
C985 C987 1.327 . S
C985 H1008 0.950 . S
C986 C985 1.349 . S
C986 C998 1.349 . S
C987 C985 1.327 . S
C987 C1003 1.429 . S
C987 H1009 0.950 . S
C988 H984 0.949 . S
C988 C996 1.574 . S
C988 C1004 1.368 . S
H989 C997 0.950 . S
H990 C995 0.950 . S
H991 C996 0.949 . S
H992 C998 0.950 . S
H993 C999 0.950 . S
H994 C1000 0.949 . S
C995 H990 0.950 . S
C995 C997 1.327 . S
C995 C1001 1.429 . S
C996 C988 1.574 . S
C996 H991 0.949 . S
C996 C1002 1.368 . S
C997 C981 1.349 . S
C997 H989 0.950 . S
C997 C995 1.327 . S
C998 C986 1.349 . S
C998 H992 0.950 . S
C998 C999 1.327 . S
C999 H993 0.950 . S
C999 C998 1.327 . S
C999 C1003 1.429 . S
C1000 C983 1.574 . S
C1000 H994 0.949 . S
C1000 C1004 1.368 . S
C1001 C982 1.429 . S
C1001 C995 1.429 . S
C1001 C1002 1.523 . S
C1002 C983 1.368 . S
C1002 C996 1.368 . S
C1002 C1001 1.523 . S
C1003 C987 1.429 . S
C1003 C999 1.429 . S
C1003 C1004 1.523 . S
C1004 C988 1.368 . S
C1004 C1000 1.368 . S
C1004 C1003 1.523 . S
H1005 C980 0.950 . S
H1006 C982 0.950 . S
H1007 C983 0.949 . S
H1008 C985 0.950 . S
H1009 C987 0.950 . S
C1010 C1011 1.349 . S
C1010 C1012 1.330 . S
C1010 H1035 0.950 1_455 S
C1011 C1010 1.349 . S
C1011 C1027 1.349 . S
C1012 C1010 1.330 . S
C1012 C1031 1.434 . S
C1012 H1036 0.942 1_455 S
C1013 C1030 1.574 1_556 S
C1013 C1032 1.368 . S
C1013 H1037 0.949 . S
H1014 C1018 0.949 . S
C1015 C1016 1.349 . S
C1015 C1017 1.328 . S
C1015 H1038 0.950 1_655 S
C1016 C1015 1.349 . S
C1016 C1028 1.349 . S
C1017 C1015 1.328 . S
C1017 C1033 1.430 . S
C1017 H1039 0.948 1_655 S
C1018 H1014 0.949 . S
C1018 C1026 1.574 1_554 S
C1018 C1034 1.368 . S
H1019 C1027 0.950 . S
H1020 C1025 0.950 . S
H1021 C1026 0.949 . S
H1022 C1028 0.950 . S
H1023 C1029 0.950 . S
H1024 C1030 0.949 . S
C1025 H1020 0.950 . S
C1025 C1027 1.327 . S
C1025 C1031 1.429 . S
C1026 C1018 1.574 1_556 S
C1026 H1021 0.949 . S
C1026 C1032 1.368 1_655 S
C1027 C1011 1.349 . S
C1027 H1019 0.950 . S
C1027 C1025 1.327 . S
C1028 C1016 1.349 . S
C1028 H1022 0.950 . S
C1028 C1029 1.327 . S
C1029 H1023 0.950 . S
C1029 C1028 1.327 . S
C1029 C1033 1.429 . S
C1030 C1013 1.574 1_554 S
C1030 H1024 0.949 . S
C1030 C1034 1.368 1_455 S
C1031 C1012 1.434 . S
C1031 C1025 1.429 . S
C1031 C1032 1.523 . S
C1032 C1013 1.368 . S
C1032 C1026 1.368 1_455 S
C1032 C1031 1.523 . S
C1033 C1017 1.430 . S
C1033 C1029 1.429 . S
C1033 C1034 1.523 . S
C1034 C1018 1.368 . S
C1034 C1030 1.368 1_655 S
C1034 C1033 1.523 . S
H1035 C1010 0.950 1_655 S
H1036 C1012 0.942 1_655 S
H1037 C1013 0.949 . S
H1038 C1015 0.950 1_455 S
H1039 C1017 0.948 1_455 S
C321 C31 1.513 . S
C326 C143 1.495 . S
C351 C23 1.501 . S
C356 C71 1.513 . S
C381 C63 1.501 . S
C386 C111 1.518 . S
C411 C103 1.501 . S
C416 C151 1.509 . S
C441 C20 1.513 . S
C446 C202 1.507 . S
C471 C2 1.501 . S
C476 C180 1.513 . S
C501 C162 1.501 . S
C506 C100 1.508 . S
C531 C220 1.513 . S
C536 C82 1.505 . S
C561 C271 1.513 . S
C566 C223 1.502 . S
C591 C191 1.513 . S
C596 C263 1.499 . S
C621 C311 1.513 . S
C626 C183 1.504 . S
C651 C231 1.513 . S
C656 C303 1.504 . S
C681 C122 1.501 . S
C686 C260 1.512 . S
C711 C242 1.501 . S
C716 C60 1.514 . S
C741 C42 1.501 . S
C746 C300 1.510 . S
C771 C140 1.513 . S
C776 C282 1.498 . S
C801 C4 1.462 . S
C806 C25 1.462 . S
C831 C65 1.462 . S
C836 C44 1.462 . S
C861 C105 1.462 . S
C866 C84 1.462 . S
C891 C145 1.462 . S
C896 C124 1.462 . S
C921 C185 1.462 . S
C926 C164 1.462 . S
C951 C225 1.462 . S
C956 C204 1.462 . S
C981 C265 1.462 . S
C986 C244 1.462 . S
C1011 C284 1.462 . S
C1016 C305 1.462 . S
