# Generated by pormake.
# Topology whv, (6)-cn, num edge types: 1
# Building blocks:
#     Node 0, Type 0, BuildingBlock: VOLQOD_clean_sbu_1, # of connection points: 6
#     Node 1, Type 0, BuildingBlock: VOLQOD_clean_sbu_1, # of connection points: 6
#     Node 2, Type 0, BuildingBlock: VOLQOD_clean_sbu_1, # of connection points: 6
#     Node 3, Type 0, BuildingBlock: VOLQOD_clean_sbu_1, # of connection points: 6
#     Node 4, Type 0, BuildingBlock: VOLQOD_clean_sbu_1, # of connection points: 6
#     Node 5, Type 0, BuildingBlock: VOLQOD_clean_sbu_1, # of connection points: 6
#     Node 6, Type 0, BuildingBlock: VOLQOD_clean_sbu_1, # of connection points: 6
#     Node 7, Type 0, BuildingBlock: VOLQOD_clean_sbu_1, # of connection points: 6
#     Node 8, Type 0, BuildingBlock: VOLQOD_clean_sbu_1, # of connection points: 6
#     Node 9, Type 0, BuildingBlock: VOLQOD_clean_sbu_1, # of connection points: 6
#     Node 10, Type 0, BuildingBlock: VOLQOD_clean_sbu_1, # of connection points: 6
#     Node 11, Type 0, BuildingBlock: VOLQOD_clean_sbu_1, # of connection points: 6
#     Node 12, Type 0, BuildingBlock: VOLQOD_clean_sbu_1, # of connection points: 6
#     Node 13, Type 0, BuildingBlock: VOLQOD_clean_sbu_1, # of connection points: 6
#     Node 14, Type 0, BuildingBlock: VOLQOD_clean_sbu_1, # of connection points: 6
#     Node 15, Type 0, BuildingBlock: VOLQOD_clean_sbu_1, # of connection points: 6
#     Edge 16, Type (0, 0), BuildingBlock: CIFDUS_clean_linker_0, # of connection points: 2
#     Edge 17, Type (0, 0), BuildingBlock: CIFDUS_clean_linker_0, # of connection points: 2
#     Edge 18, Type (0, 0), BuildingBlock: CIFDUS_clean_linker_0, # of connection points: 2
#     Edge 19, Type (0, 0), BuildingBlock: CIFDUS_clean_linker_0, # of connection points: 2
#     Edge 20, Type (0, 0), BuildingBlock: CIFDUS_clean_linker_0, # of connection points: 2
#     Edge 21, Type (0, 0), BuildingBlock: CIFDUS_clean_linker_0, # of connection points: 2
#     Edge 22, Type (0, 0), BuildingBlock: CIFDUS_clean_linker_0, # of connection points: 2
#     Edge 23, Type (0, 0), BuildingBlock: CIFDUS_clean_linker_0, # of connection points: 2
#     Edge 24, Type (0, 0), BuildingBlock: CIFDUS_clean_linker_0, # of connection points: 2
#     Edge 25, Type (0, 0), BuildingBlock: CIFDUS_clean_linker_0, # of connection points: 2
#     Edge 26, Type (0, 0), BuildingBlock: CIFDUS_clean_linker_0, # of connection points: 2
#     Edge 27, Type (0, 0), BuildingBlock: CIFDUS_clean_linker_0, # of connection points: 2
#     Edge 28, Type (0, 0), BuildingBlock: CIFDUS_clean_linker_0, # of connection points: 2
#     Edge 29, Type (0, 0), BuildingBlock: CIFDUS_clean_linker_0, # of connection points: 2
#     Edge 30, Type (0, 0), BuildingBlock: CIFDUS_clean_linker_0, # of connection points: 2
#     Edge 31, Type (0, 0), BuildingBlock: CIFDUS_clean_linker_0, # of connection points: 2
#     Edge 32, Type (0, 0), BuildingBlock: CIFDUS_clean_linker_0, # of connection points: 2
#     Edge 33, Type (0, 0), BuildingBlock: CIFDUS_clean_linker_0, # of connection points: 2
#     Edge 34, Type (0, 0), BuildingBlock: CIFDUS_clean_linker_0, # of connection points: 2
#     Edge 35, Type (0, 0), BuildingBlock: CIFDUS_clean_linker_0, # of connection points: 2
#     Edge 36, Type (0, 0), BuildingBlock: CIFDUS_clean_linker_0, # of connection points: 2
#     Edge 37, Type (0, 0), BuildingBlock: CIFDUS_clean_linker_0, # of connection points: 2
#     Edge 38, Type (0, 0), BuildingBlock: CIFDUS_clean_linker_0, # of connection points: 2
#     Edge 39, Type (0, 0), BuildingBlock: CIFDUS_clean_linker_0, # of connection points: 2
#     Edge 40, Type (0, 0), BuildingBlock: CIFDUS_clean_linker_0, # of connection points: 2
#     Edge 41, Type (0, 0), BuildingBlock: CIFDUS_clean_linker_0, # of connection points: 2
#     Edge 42, Type (0, 0), BuildingBlock: CIFDUS_clean_linker_0, # of connection points: 2
#     Edge 43, Type (0, 0), BuildingBlock: CIFDUS_clean_linker_0, # of connection points: 2
#     Edge 44, Type (0, 0), BuildingBlock: CIFDUS_clean_linker_0, # of connection points: 2
#     Edge 45, Type (0, 0), BuildingBlock: CIFDUS_clean_linker_0, # of connection points: 2
#     Edge 46, Type (0, 0), BuildingBlock: CIFDUS_clean_linker_0, # of connection points: 2
#     Edge 47, Type (0, 0), BuildingBlock: CIFDUS_clean_linker_0, # of connection points: 2
#     Edge 48, Type (0, 0), BuildingBlock: CIFDUS_clean_linker_0, # of connection points: 2
#     Edge 49, Type (0, 0), BuildingBlock: CIFDUS_clean_linker_0, # of connection points: 2
#     Edge 50, Type (0, 0), BuildingBlock: CIFDUS_clean_linker_0, # of connection points: 2
#     Edge 51, Type (0, 0), BuildingBlock: CIFDUS_clean_linker_0, # of connection points: 2
#     Edge 52, Type (0, 0), BuildingBlock: CIFDUS_clean_linker_0, # of connection points: 2
#     Edge 53, Type (0, 0), BuildingBlock: CIFDUS_clean_linker_0, # of connection points: 2
#     Edge 54, Type (0, 0), BuildingBlock: CIFDUS_clean_linker_0, # of connection points: 2
#     Edge 55, Type (0, 0), BuildingBlock: CIFDUS_clean_linker_0, # of connection points: 2
#     Edge 56, Type (0, 0), BuildingBlock: CIFDUS_clean_linker_0, # of connection points: 2
#     Edge 57, Type (0, 0), BuildingBlock: CIFDUS_clean_linker_0, # of connection points: 2
#     Edge 58, Type (0, 0), BuildingBlock: CIFDUS_clean_linker_0, # of connection points: 2
#     Edge 59, Type (0, 0), BuildingBlock: CIFDUS_clean_linker_0, # of connection points: 2
#     Edge 60, Type (0, 0), BuildingBlock: CIFDUS_clean_linker_0, # of connection points: 2
#     Edge 61, Type (0, 0), BuildingBlock: CIFDUS_clean_linker_0, # of connection points: 2
#     Edge 62, Type (0, 0), BuildingBlock: CIFDUS_clean_linker_0, # of connection points: 2
#     Edge 63, Type (0, 0), BuildingBlock: CIFDUS_clean_linker_0, # of connection points: 2
# Relax obj value: 0.298
# Max RMSD: 0.250
# Mean RMSD: 0.250
data_MOF--net-whv--node1-VOLQOD_clean_sbu_1--edge1-CIFDUS_clean_linker_0
_symmetry_space_group_name_H-M    P1
_symmetry_Int_Tables_number       1
_symmetry_cell_setting            triclinic
loop_
_symmetry_equiv_pos_as_xyz
'x, y, z'
_cell_length_a     47.99521
_cell_length_b     48.022719
_cell_length_c     24.199909
_cell_angle_alpha  89.622992
_cell_angle_beta   89.979424
_cell_angle_gamma 89.934076
loop_
_atom_site_label
_atom_site_type_symbol
_atom_site_fract_x
_atom_site_fract_y
_atom_site_fract_z
_atom_type_partial_charge
O0 O 0.30063 0.20094 0.90684 0.0
Zn1 Zn 0.31539 0.17148 0.95697 0.0
O2 O 0.31896 0.18735 0.0304 0.0
Zn3 Zn 0.3573 0.18536 0.05549 0.0
Zn4 Zn 0.30595 0.22504 0.03201 0.0
Zn5 Zn 0.2947 0.16705 0.07861 0.0
O6 O 0.36084 0.15378 0.11306 0.0
O7 O 0.31743 0.13696 0.11391 0.0
O8 O 0.35284 0.16044 0.92392 0.0
O9 O 0.38102 0.17438 0.99096 0.0
O10 O 0.37303 0.2242 0.07346 0.0
O11 O 0.33766 0.25009 0.04332 0.0
O12 O 0.27988 0.23257 0.09336 0.0
O13 O 0.28526 0.1417 0.95448 0.0
O14 O 0.2778 0.19193 0.13701 0.0
O15 O 0.26364 0.15008 0.03403 0.0
C16 C 0.28996 0.2249 0.91381 0.0
C17 C 0.34311 0.13503 0.12694 0.0
C18 C 0.36233 0.24791 0.06151 0.0
C19 C 0.3773 0.16497 0.94246 0.0
C20 C 0.272 0.21781 0.13412 0.0
C21 C 0.26409 0.13918 0.98617 0.0
O22 O 0.28898 0.23622 0.96103 0.0
O23 O 0.54953 0.53855 0.16073 0.0
Zn24 Zn 0.57947 0.55537 0.20539 0.0
O25 O 0.56373 0.56432 0.27641 0.0
Zn26 Zn 0.56564 0.60443 0.28693 0.0
Zn27 Zn 0.5265 0.54997 0.28543 0.0
Zn28 Zn 0.58558 0.54443 0.32912 0.0
O29 O 0.59649 0.61259 0.34407 0.0
O30 O 0.61495 0.57008 0.35417 0.0
O31 O 0.59343 0.58872 0.1634 0.0
O32 O 0.57822 0.62331 0.21584 0.0
O33 O 0.52634 0.62025 0.29949 0.0
O34 O 0.5007 0.58208 0.28775 0.0
O35 O 0.52104 0.52955 0.35792 0.0
O36 O 0.60881 0.5256 0.20965 0.0
O37 O 0.56325 0.53226 0.39446 0.0
O38 O 0.60258 0.51027 0.2955 0.0
C39 C 0.52624 0.527 0.1709 0.0
C40 C 0.61597 0.59632 0.36098 0.0
C41 C 0.50269 0.60819 0.29493 0.0
C42 C 0.58958 0.61457 0.17163 0.0
C43 C 0.53763 0.52589 0.39842 0.0
C44 C 0.61276 0.50747 0.24737 0.0
O45 O 0.51541 0.52735 0.21904 0.0
O46 O 0.20044 0.79613 0.40406 0.0
Zn47 Zn 0.18502 0.82542 0.45288 0.0
O48 O 0.17768 0.80895 0.52443 0.0
Zn49 Zn 0.13823 0.8123 0.54179 0.0
Zn50 Zn 0.18959 0.77086 0.52745 0.0
Zn51 Zn 0.20083 0.82806 0.57615 0.0
O52 O 0.13381 0.84286 0.60042 0.0
O53 O 0.17761 0.85812 0.60904 0.0
O54 O 0.1505 0.84011 0.41584 0.0
O55 O 0.11745 0.82578 0.47368 0.0
O56 O 0.1209 0.77389 0.55783 0.0
O57 O 0.1569 0.74681 0.53626 0.0
O58 O 0.21356 0.76216 0.59175 0.0
O59 O 0.21546 0.85412 0.45545 0.0
O60 O 0.21459 0.80228 0.63628 0.0
O61 O 0.23434 0.84456 0.53723 0.0
C62 C 0.20996 0.7717 0.41175 0.0
C63 C 0.15157 0.86062 0.61822 0.0
C64 C 0.1316 0.7498 0.55019 0.0
C65 C 0.1249 0.83686 0.42802 0.0
C66 C 0.22002 0.77635 0.63384 0.0
C67 C 0.23549 0.85604 0.4897 0.0
O68 O 0.20859 0.75965 0.45853 0.0
O69 O 0.94521 0.45638 0.66231 0.0
Zn70 Zn 0.91753 0.43782 0.71159 0.0
O71 O 0.93521 0.42911 0.78154 0.0
Zn72 Zn 0.9321 0.38954 0.7978 0.0
Zn73 Zn 0.9736 0.44 0.78075 0.0
Zn74 Zn 0.91724 0.45146 0.83634 0.0
O75 O 0.90285 0.38399 0.85897 0.0
O76 O 0.88827 0.42759 0.87304 0.0
O77 O 0.90469 0.40353 0.67167 0.0
O78 O 0.9182 0.37009 0.72965 0.0
O79 O 0.9704 0.3713 0.80875 0.0
O80 O 0.99708 0.4064 0.78023 0.0
O81 O 0.98459 0.46084 0.84755 0.0
O82 O 0.88724 0.46654 0.71942 0.0
O83 O 0.94483 0.46451 0.89359 0.0
O84 O 0.89943 0.48523 0.79965 0.0
C85 C 0.9697 0.46585 0.66905 0.0
C86 C 0.88591 0.40139 0.88088 0.0
C87 C 0.99413 0.38108 0.79451 0.0
C88 C 0.90798 0.37787 0.68352 0.0
C89 C 0.97111 0.46798 0.89028 0.0
C90 C 0.8863 0.48645 0.75392 0.0
O91 O 0.9829 0.46224 0.71401 0.0
O92 O 0.68888 0.7946 0.14403 0.0
Zn93 Zn 0.67904 0.82519 0.09303 0.0
O94 O 0.67616 0.81022 0.01941 0.0
Zn95 Zn 0.63731 0.80989 -0.00187 0.0
Zn96 Zn 0.6926 0.77334 0.01884 0.0
Zn97 Zn 0.69752 0.83284 0.96949 0.0
O98 O 0.63045 0.83857 0.93622 0.0
O99 O 0.67223 0.85881 0.92946 0.0
O100 O 0.64276 0.84049 0.12422 0.0
O101 O 0.61414 0.82267 0.06196 0.0
O102 O 0.62354 0.76999 0.9886 0.0
O103 O 0.66093 0.74667 0.01797 0.0
O104 O 0.7149 0.76663 0.94778 0.0
O105 O 0.7125 0.85043 0.09805 0.0
O106 O 0.71548 0.80927 0.91192 0.0
O107 O 0.72739 0.85333 0.01099 0.0
C108 C 0.70528 0.774 0.1393 0.0
C109 C 0.64655 0.85747 0.9167 0.0
C110 C 0.63535 0.74735 0.00408 0.0
C111 C 0.61818 0.83472 0.10791 0.0
C112 C 0.72118 0.78346 0.9086 0.0
C113 C 0.73025 0.85854 0.06221 0.0
O114 O 0.71322 0.76539 0.09187 0.0
O115 O 0.44629 0.44911 0.90189 0.0
Zn116 Zn 0.41674 0.43182 0.85623 0.0
O117 O 0.43159 0.42758 0.78198 0.0
Zn118 Zn 0.43119 0.38891 0.75993 0.0
Zn119 Zn 0.46855 0.44274 0.77591 0.0
Zn120 Zn 0.40917 0.44958 0.73383 0.0
O121 O 0.40122 0.38314 0.69953 0.0
O122 O 0.38078 0.42492 0.69996 0.0
O123 O 0.40779 0.39452 0.89328 0.0
O124 O 0.41991 0.366 0.82554 0.0
O125 O 0.47111 0.37425 0.74827 0.0
O126 O 0.49503 0.41124 0.77615 0.0
O127 O 0.47449 0.46387 0.70472 0.0
O128 O 0.38598 0.46109 0.85923 0.0
O129 O 0.43151 0.46585 0.6717 0.0
O130 O 0.39199 0.48089 0.77672 0.0
C131 C 0.46808 0.46326 0.89154 0.0
C132 C 0.38126 0.39948 0.68519 0.0
C133 C 0.49402 0.38571 0.76287 0.0
C134 C 0.41176 0.36996 0.87492 0.0
C135 C 0.45744 0.47061 0.6666 0.0
C136 C 0.38239 0.48147 0.82576 0.0
O137 O 0.47794 0.46532 0.84277 0.0
O138 O 0.79923 0.19825 0.65486 0.0
Zn139 Zn 0.81044 0.16734 0.606 0.0
O140 O 0.82062 0.1826 0.53467 0.0
Zn141 Zn 0.86088 0.17944 0.5272 0.0
Zn142 Zn 0.8096 0.22108 0.53076 0.0
Zn143 Zn 0.80016 0.1634 0.47722 0.0
O144 O 0.86898 0.15166 0.46615 0.0
O145 O 0.82664 0.13703 0.44112 0.0
O146 O 0.84175 0.1469 0.64533 0.0
O147 O 0.87758 0.16302 0.59677 0.0
O148 O 0.87981 0.21747 0.52085 0.0
O149 O 0.84297 0.24484 0.53191 0.0
O150 O 0.78893 0.23068 0.4622 0.0
O151 O 0.77556 0.14479 0.60015 0.0
O152 O 0.78561 0.19032 0.4189 0.0
O153 O 0.76667 0.14296 0.50999 0.0
C154 C 0.78838 0.22193 0.64512 0.0
C155 C 0.85315 0.13542 0.43855 0.0
C156 C 0.86909 0.2416 0.52696 0.0
C157 C 0.86789 0.14993 0.63842 0.0
C158 C 0.7817 0.21657 0.42041 0.0
C159 C 0.76015 0.13752 0.56002 0.0
O160 O 0.78779 0.23233 0.59671 0.0
O161 O 0.04662 0.55045 0.40259 0.0
Zn162 Zn 0.0769 0.56497 0.35452 0.0
O163 O 0.06293 0.56932 0.27938 0.0
Zn164 Zn 0.0641 0.60796 0.25554 0.0
Zn165 Zn 0.02537 0.55586 0.27652 0.0
Zn166 Zn 0.08456 0.54695 0.22962 0.0
O167 O 0.09537 0.61391 0.19805 0.0
O168 O 0.11343 0.57115 0.19432 0.0
O169 O 0.08782 0.60212 0.38924 0.0
O170 O 0.07433 0.63033 0.32126 0.0
O171 O 0.02502 0.6236 0.23954 0.0
O172 O -0.00018 0.58766 0.26918 0.0
O173 O 0.01883 0.5319 0.21232 0.0
O174 O 0.10475 0.53313 0.35875 0.0
O175 O 0.05997 0.52949 0.17082 0.0
O176 O 0.10357 0.51652 0.2729 0.0
C177 C 0.02386 0.53783 0.39337 0.0
C178 C 0.11453 0.59703 0.18261 0.0
C179 C 0.00161 0.61268 0.2525 0.0
C180 C 0.08305 0.62656 0.37035 0.0
C181 C 0.03397 0.52404 0.17237 0.0
C182 C 0.11099 0.51453 0.32333 0.0
O183 O 0.01395 0.53593 0.34493 0.0
O184 O 0.80378 0.6943 0.3977 0.0
Zn185 Zn 0.81738 0.66583 0.45038 0.0
O186 O 0.8181 0.68243 0.52285 0.0
Zn187 Zn 0.85597 0.68376 0.54987 0.0
Zn188 Zn 0.79969 0.71816 0.52254 0.0
Zn189 Zn 0.79608 0.65981 0.56975 0.0
O190 O 0.86127 0.65407 0.61152 0.0
O191 O 0.82062 0.63182 0.60545 0.0
O192 O 0.8556 0.6554 0.42156 0.0
O193 O 0.88192 0.67306 0.48796 0.0
O194 O 0.86695 0.72437 0.56396 0.0
O195 O 0.8299 0.74594 0.52799 0.0
O196 O 0.776 0.72403 0.59204 0.0
O197 O 0.78782 0.63579 0.44495 0.0
O198 O 0.77858 0.68195 0.62985 0.0
O199 O 0.76598 0.6425 0.52487 0.0
C200 C 0.78754 0.71511 0.40118 0.0
C201 C 0.84554 0.63327 0.6234 0.0
C202 C 0.85463 0.7465 0.54694 0.0
C203 C 0.87946 0.66197 0.44055 0.0
C204 C 0.77118 0.70733 0.63222 0.0
C205 C 0.76663 0.63262 0.47624 0.0
O206 O 0.78031 0.72514 0.44795 0.0
O207 O 0.05687 0.0473 0.65461 0.0
Zn208 Zn 0.08396 0.06196 0.70835 0.0
O209 O 0.06566 0.06225 0.77962 0.0
Zn210 Zn 0.06339 0.09964 0.80757 0.0
Zn211 Zn 0.02995 0.044 0.77798 0.0
Zn212 Zn 0.088 0.0406 0.82753 0.0
O213 O 0.0933 0.10559 0.86799 0.0
O214 O 0.11651 0.06551 0.86033 0.0
O215 O 0.09339 0.1009 0.67971 0.0
O216 O 0.07403 0.1257 0.74654 0.0
O217 O 0.02249 0.11065 0.81983 0.0
O218 O 0.0017 0.07429 0.78053 0.0
O219 O 0.02359 0.02051 0.84824 0.0
O220 O 0.11489 0.03278 0.70529 0.0
O221 O 0.06507 0.02385 0.88813 0.0
O222 O 0.10545 0.01021 0.78363 0.0
C223 C 0.03587 0.03127 0.65702 0.0
C224 C 0.11486 0.09047 0.87759 0.0
C225 C 0.00078 0.09887 0.7999 0.0
C226 C 0.0857 0.12428 0.69946 0.0
C227 C 0.03969 0.01621 0.88955 0.0
C228 C 0.11682 0.01116 0.73613 0.0
O229 O 0.02457 0.02459 0.70323 0.0
O230 O 0.70701 0.30235 0.90922 0.0
Zn231 Zn 0.68851 0.33041 0.95685 0.0
O232 O 0.67927 0.3124 0.02655 0.0
Zn233 Zn 0.63936 0.31563 0.03962 0.0
Zn234 Zn 0.6902 0.274 0.02793 0.0
Zn235 Zn 0.70156 0.32984 0.08221 0.0
O236 O 0.63344 0.34347 0.10238 0.0
O237 O 0.67706 0.35764 0.11859 0.0
O238 O 0.65469 0.34453 0.91538 0.0
O239 O 0.62044 0.33124 0.97132 0.0
O240 O 0.62083 0.27737 0.04699 0.0
O241 O 0.65669 0.25064 0.02321 0.0
O242 O 0.70984 0.26252 0.09697 0.0
O243 O 0.71782 0.36017 0.96518 0.0
O244 O 0.71511 0.3026 0.14024 0.0
O245 O 0.7352 0.34852 0.04725 0.0
C246 C 0.7171 0.27818 0.91761 0.0
C247 C 0.65082 0.35988 0.1257 0.0
C248 C 0.63095 0.25369 0.0338 0.0
C249 C 0.62882 0.34194 0.92598 0.0
C250 C 0.71772 0.27623 0.13883 0.0
C251 C 0.73707 0.36148 0.00128 0.0
O252 O 0.71367 0.26527 0.9631 0.0
O253 O 0.44412 0.95217 0.15129 0.0
Zn254 Zn 0.41631 0.93313 0.19892 0.0
O255 O 0.43259 0.92957 0.27223 0.0
Zn256 Zn 0.43421 0.89105 0.29531 0.0
Zn257 Zn 0.46852 0.94697 0.27671 0.0
Zn258 Zn 0.40979 0.95032 0.32073 0.0
O259 O 0.40424 0.88366 0.35526 0.0
O260 O 0.38213 0.92457 0.35311 0.0
O261 O 0.40854 0.89531 0.16335 0.0
O262 O 0.42393 0.86753 0.2304 0.0
O263 O 0.47489 0.87908 0.30814 0.0
O264 O 0.49686 0.91716 0.27808 0.0
O265 O 0.47396 0.96838 0.34718 0.0
O266 O 0.38426 0.96123 0.19729 0.0
O267 O 0.43153 0.96667 0.38291 0.0
O268 O 0.39172 0.9813 0.27847 0.0
C269 C 0.46491 0.96785 0.16062 0.0
C270 C 0.3834 0.89911 0.36802 0.0
C271 C 0.49718 0.89186 0.29375 0.0
C272 C 0.41443 0.871 0.18172 0.0
C273 C 0.4571 0.9733 0.38653 0.0
C274 C 0.38111 0.98167 0.2303 0.0
O275 O 0.47535 0.97021 0.20882 0.0
O276 O 0.20833 0.30263 0.64649 0.0
Zn277 Zn 0.18758 0.33007 0.60082 0.0
O278 O 0.17759 0.31229 0.53219 0.0
Zn279 Zn 0.13756 0.31419 0.52305 0.0
Zn280 Zn 0.19002 0.27448 0.53018 0.0
Zn281 Zn 0.19769 0.33138 0.4748 0.0
O282 O 0.12939 0.34628 0.46907 0.0
O283 O 0.17196 0.36081 0.44484 0.0
O284 O 0.15433 0.34185 0.64603 0.0
O285 O 0.1198 0.32526 0.59503 0.0
O286 O 0.12061 0.27543 0.50966 0.0
O287 O 0.15756 0.24961 0.53201 0.0
O288 O 0.20979 0.26531 0.46109 0.0
O289 O 0.21515 0.36107 0.58986 0.0
O290 O 0.20951 0.30504 0.41401 0.0
O291 O 0.23241 0.34888 0.50826 0.0
C292 C 0.21833 0.27846 0.63868 0.0
C293 C 0.14551 0.36377 0.44471 0.0
C294 C 0.13189 0.25183 0.52021 0.0
C295 C 0.12859 0.33648 0.63919 0.0
C296 C 0.21466 0.27902 0.41716 0.0
C297 C 0.23444 0.36198 0.55375 0.0
O298 O 0.21397 0.2652 0.59429 0.0
O299 O 0.9429 0.94494 0.40247 0.0
Zn300 Zn 0.9123 0.93731 0.35122 0.0
O301 O 0.92835 0.92839 0.28115 0.0
Zn302 Zn 0.92594 0.88837 0.27473 0.0
Zn303 Zn 0.96625 0.94214 0.27773 0.0
Zn304 Zn 0.90712 0.94732 0.22534 0.0
O305 O 0.89524 0.87886 0.21915 0.0
O306 O 0.87895 0.9209 0.19574 0.0
O307 O 0.89064 0.90631 0.38777 0.0
O308 O 0.91296 0.8717 0.34678 0.0
O309 O 0.9645 0.87123 0.26497 0.0
O310 O 0.99082 0.9087 0.27881 0.0
O311 O 0.97385 0.96243 0.20383 0.0
O312 O 0.89171 0.97324 0.34654 0.0
O313 O 0.93222 0.95959 0.16399 0.0
O314 O 0.88882 0.98183 0.25631 0.0
C315 C 0.96603 0.95745 0.39728 0.0
C316 C 0.87734 0.89441 0.1946 0.0
C317 C 0.9883 0.88252 0.27262 0.0
C318 C 0.89751 0.88073 0.38544 0.0
C319 C 0.95798 0.96584 0.16178 0.0
C320 C 0.88461 0.98883 0.30627 0.0
O321 O 0.97643 0.96277 0.34959 0.0
O322 O 0.29885 0.69752 0.14953 0.0
Zn323 Zn 0.31642 0.66921 0.10071 0.0
O324 O 0.32075 0.68575 0.0276 0.0
Zn325 Zn 0.35907 0.68462 0.00302 0.0
Zn326 Zn 0.30736 0.72315 0.02569 0.0
Zn327 Zn 0.29724 0.66562 0.97876 0.0
O328 O 0.36343 0.6533 0.94536 0.0
O329 O 0.32037 0.6356 0.94549 0.0
O330 O 0.35401 0.65929 0.13549 0.0
O331 O 0.38219 0.67337 0.06804 0.0
O332 O 0.3744 0.72411 0.98691 0.0
O333 O 0.33899 0.74884 0.02024 0.0
O334 O 0.28392 0.73118 0.96059 0.0
O335 O 0.28712 0.63841 0.10112 0.0
O336 O 0.2817 0.69044 0.91846 0.0
O337 O 0.26549 0.6492 0.02254 0.0
C338 C 0.28665 0.72067 0.14078 0.0
C339 C 0.34605 0.63414 0.93229 0.0
C340 C 0.36366 0.74733 0.0017 0.0
C341 C 0.37846 0.66403 0.11682 0.0
C342 C 0.27663 0.71647 0.91974 0.0
C343 C 0.26574 0.63728 0.06973 0.0
O344 O 0.28677 0.73234 0.09357 0.0
O345 O 0.53474 0.05506 0.89182 0.0
Zn346 Zn 0.56883 0.06245 0.84898 0.0
O347 O 0.55897 0.06867 0.77367 0.0
Zn348 Zn 0.56126 0.10831 0.76067 0.0
Zn349 Zn 0.52184 0.05457 0.76406 0.0
Zn350 Zn 0.58312 0.0468 0.7274 0.0
O351 O 0.59257 0.11485 0.70436 0.0
O352 O 0.61238 0.07273 0.69704 0.0
O353 O 0.58764 0.09438 0.88617 0.0
O354 O 0.5736 0.12819 0.82996 0.0
O355 O 0.52224 0.12458 0.74723 0.0
O356 O 0.49617 0.08676 0.76045 0.0
O357 O 0.51796 0.03403 0.69274 0.0
O358 O 0.58991 0.02721 0.85664 0.0
O359 O 0.56155 0.03208 0.66245 0.0
O360 O 0.5982 0.01316 0.771 0.0
C361 C 0.51508 0.03841 0.88033 0.0
C362 C 0.61229 0.09895 0.68742 0.0
C363 C 0.49845 0.11285 0.75266 0.0
C364 C 0.58468 0.12012 0.87509 0.0
C365 C 0.53562 0.02768 0.6556 0.0
C366 C 0.59884 0.00896 0.82319 0.0
O367 O 0.50966 0.03193 0.83046 0.0
H368 H 0.21036 0.15309 0.00784 0.0
H369 H 0.26086 0.09539 0.91551 0.0
H370 H 0.21886 0.07455 0.87621 0.0
H371 H 0.16822 0.07379 0.86569 0.0
H372 H 0.11742 0.13391 0.9511 0.0
H373 H 0.15919 0.15294 -0.00449 0.0
C374 C 0.2121 0.13573 0.97961 0.0
C375 C 0.23865 0.12552 0.96504 0.0
C376 C 0.18788 0.1245 0.95573 0.0
C377 C 0.24067 0.10348 0.92747 0.0
C378 C 0.21668 0.09162 0.90498 0.0
C379 C 0.16618 0.09093 0.8944 0.0
C380 C 0.13967 0.10225 0.90553 0.0
C381 C 0.19024 0.10211 0.91848 0.0
C382 C 0.13754 0.12481 0.94192 0.0
C383 C 0.16141 0.13564 0.96733 0.0
H384 H 0.67782 0.40822 0.14207 0.0
H385 H 0.60088 0.36573 0.17989 0.0
H386 H 0.58375 0.40722 0.2278 0.0
H387 H 0.58959 0.45668 0.25278 0.0
H388 H 0.66438 0.50006 0.20471 0.0
H389 H 0.68384 0.45686 0.16751 0.0
C390 C 0.65743 0.40784 0.16144 0.0
C391 C 0.64066 0.38391 0.15775 0.0
C392 C 0.64747 0.43191 0.18704 0.0
C393 C 0.61412 0.38394 0.18216 0.0
C394 C 0.60437 0.40761 0.20954 0.0
C395 C 0.61037 0.45637 0.23512 0.0
C396 C 0.6259 0.4811 0.23206 0.0
C397 C 0.62073 0.43184 0.2115 0.0
C398 C 0.65239 0.48101 0.20783 0.0
C399 C 0.66337 0.45643 0.18642 0.0
H400 H 0.33179 0.92106 0.37146 0.0
H401 H 0.38003 0.85132 0.43179 0.0
H402 H 0.33874 0.83327 0.48009 0.0
H403 H 0.28824 0.83661 0.50159 0.0
H404 H 0.24032 0.90462 0.43344 0.0
H405 H 0.28245 0.92447 0.39239 0.0
C406 C 0.33349 0.902 0.39554 0.0
C407 C 0.35906 0.88763 0.39826 0.0
C408 C 0.30972 0.8916 0.42199 0.0
C409 C 0.36061 0.86275 0.42896 0.0
C410 C 0.33703 0.8525 0.45666 0.0
C411 C 0.28726 0.85604 0.47858 0.0
C412 C 0.26142 0.86947 0.47106 0.0
C413 C 0.31142 0.86669 0.45317 0.0
C414 C 0.26008 0.89417 0.44 0.0
C415 C 0.28409 0.9054 0.41639 0.0
H416 H 0.82111 0.58294 0.63609 0.0
H417 H 0.8939 0.62948 0.68473 0.0
H418 H 0.91133 0.5887 0.73567 0.0
H419 H 0.90707 0.53876 0.76119 0.0
H420 H 0.836 0.49216 0.70452 0.0
H421 H 0.81635 0.53429 0.66263 0.0
C422 C 0.8407 0.58442 0.65818 0.0
C423 C 0.85616 0.60936 0.65653 0.0
C424 C 0.85078 0.56085 0.68617 0.0
C425 C 0.88161 0.61058 0.68512 0.0
C426 C 0.89154 0.58727 0.71432 0.0
C427 C 0.88699 0.5381 0.74069 0.0
C428 C 0.8727 0.51259 0.73649 0.0
C429 C 0.87644 0.56219 0.71459 0.0
C430 C 0.84713 0.51166 0.70857 0.0
C431 C 0.83602 0.53567 0.68441 0.0
H432 H 0.76387 0.83546 0.13812 0.0
H433 H 0.75709 0.90531 0.02631 0.0
H434 H 0.80315 0.92192 0.05542 0.0
H435 H 0.84476 0.91673 0.11409 0.0
H436 H 0.85284 0.84477 0.22071 0.0
H437 H 0.80708 0.82827 0.19109 0.0
C438 C 0.77245 0.85449 0.12069 0.0
C439 C 0.75704 0.86968 0.08139 0.0
C440 C 0.79926 0.86314 0.13593 0.0
C441 C 0.76854 0.8937 0.0574 0.0
C442 C 0.79486 0.90302 0.07378 0.0
C443 C 0.83664 0.89726 0.13034 0.0
C444 C 0.85212 0.88204 0.16971 0.0
C445 C 0.81038 0.8879 0.11304 0.0
C446 C 0.84146 0.85674 0.19005 0.0
C447 C 0.81517 0.84746 0.17359 0.0
H448 H 0.40046 0.53356 0.80337 0.0
H449 H 0.33868 0.48817 0.8967 0.0
H450 H 0.32123 0.53188 0.93553 0.0
H451 H 0.32468 0.58257 0.94518 0.0
H452 H 0.3895 0.62763 0.85954 0.0
H453 H 0.40488 0.58437 0.81545 0.0
C454 C 0.38292 0.53334 0.83165 0.0
C455 C 0.37048 0.50779 0.84653 0.0
C456 C 0.37381 0.55839 0.8554 0.0
C457 C 0.34835 0.50762 0.88437 0.0
C458 C 0.33847 0.53256 0.9066 0.0
C459 C 0.34206 0.58299 0.91651 0.0
C460 C 0.35577 0.60833 0.90509 0.0
C461 C 0.3512 0.55801 0.89274 0.0
C462 C 0.37861 0.60842 0.86886 0.0
C463 C 0.38733 0.58371 0.84363 0.0
H464 H 0.64877 0.0739 0.61695 0.0
H465 H 0.63177 0.15189 0.69811 0.0
H466 H 0.67591 0.17069 0.66445 0.0
H467 H 0.7208 0.16389 0.61762 0.0
H468 H 0.73722 0.08741 0.53156 0.0
H469 H 0.6918 0.06892 0.5614 0.0
C470 C 0.65461 0.09512 0.62672 0.0
C471 C 0.63709 0.1114 0.66039 0.0
C472 C 0.67997 0.1059 0.60677 0.0
C473 C 0.64478 0.13895 0.67217 0.0
C474 C 0.67012 0.14966 0.65324 0.0
C475 C 0.71424 0.14324 0.60515 0.0
C476 C 0.7322 0.12678 0.57319 0.0
C477 C 0.68807 0.13315 0.62148 0.0
C478 C 0.7236 0.10027 0.55637 0.0
C479 C 0.69773 0.08977 0.57352 0.0
H480 H 0.16987 0.39951 0.37139 0.0
H481 H 0.09533 0.38776 0.46868 0.0
H482 H 0.07927 0.43431 0.44277 0.0
H483 H 0.08699 0.47901 0.39466 0.0
H484 H 0.15945 0.48964 0.29174 0.0
H485 H 0.17614 0.44308 0.31846 0.0
C486 C 0.14996 0.40701 0.38648 0.0
C487 C 0.13387 0.39011 0.42204 0.0
C488 C 0.1408 0.43381 0.37128 0.0
C489 C 0.10805 0.40014 0.4409 0.0
C490 C 0.09896 0.4269 0.42656 0.0
C491 C 0.10662 0.47116 0.3788 0.0
C492 C 0.12248 0.48779 0.34265 0.0
C493 C 0.11535 0.44405 0.39247 0.0
C494 C 0.14733 0.47726 0.32057 0.0
C495 C 0.15669 0.45064 0.3355 0.0
H496 H 0.66759 0.57555 0.35058 0.0
H497 H 0.62166 0.64216 0.42738 0.0
H498 H 0.66446 0.65812 0.47292 0.0
H499 H 0.71479 0.65265 0.49076 0.0
H500 H 0.76098 0.58836 0.40722 0.0
H501 H 0.7179 0.57151 0.36457 0.0
C502 C 0.66691 0.59354 0.37744 0.0
C503 C 0.64152 0.60753 0.3863 0.0
C504 C 0.6915 0.60273 0.40239 0.0
C505 C 0.641 0.63113 0.42009 0.0
C506 C 0.66539 0.6401 0.44623 0.0
C507 C 0.71528 0.63472 0.46373 0.0
C508 C 0.74078 0.62129 0.45285 0.0
C509 C 0.69069 0.62592 0.4379 0.0
C510 C 0.74147 0.5987 0.41651 0.0
C511 C 0.71693 0.5892 0.39209 0.0
H512 H 0.1748 0.91164 0.61216 0.0
H513 H 0.10662 0.86665 0.68688 0.0
H514 H 0.09131 0.90922 0.73347 0.0
H515 H 0.09681 0.95932 0.75086 0.0
H516 H 0.16206 0.0052 0.66844 0.0
H517 H 0.17933 0.96201 0.62695 0.0
C518 C 0.1567 0.91112 0.639 0.0
C519 C 0.14199 0.88602 0.64668 0.0
C520 C 0.14763 0.93576 0.66415 0.0
C521 C 0.11824 0.88573 0.6805 0.0
C522 C 0.10957 0.91002 0.70715 0.0
C523 C 0.11505 0.95977 0.72437 0.0
C524 C 0.12853 0.98524 0.71336 0.0
C525 C 0.12408 0.93513 0.69912 0.0
C526 C 0.15158 0.98576 0.67777 0.0
C527 C 0.16136 0.96112 0.65404 0.0
H528 H 0.83641 0.4275 0.89388 0.0
H529 H 0.88026 0.35206 0.93771 0.0
H530 H 0.83865 0.3346 0.98534 0.0
H531 H 0.78878 0.33958 0.00896 0.0
H532 H 0.74403 0.41275 0.95534 0.0
H533 H 0.78711 0.43262 0.91776 0.0
C534 C 0.83702 0.40737 0.91445 0.0
C535 C 0.86148 0.39115 0.91253 0.0
C536 C 0.81282 0.39715 0.94004 0.0
C537 C 0.86171 0.36491 0.93855 0.0
C538 C 0.83794 0.35496 0.96581 0.0
C539 C 0.7887 0.36013 0.99005 0.0
C540 C 0.76351 0.37499 0.98562 0.0
C541 C 0.81326 0.37074 0.96619 0.0
C542 C 0.76331 0.40117 0.95962 0.0
C543 C 0.78787 0.41241 0.93794 0.0
H544 H 0.39816 0.03368 0.25395 0.0
H545 H 0.33734 0.98853 0.15895 0.0
H546 H 0.31916 0.03252 0.12144 0.0
H547 H 0.32188 0.08351 0.11325 0.0
H548 H 0.38597 0.12816 0.20058 0.0
H549 H 0.40174 0.08455 0.24371 0.0
C550 C 0.38066 0.03352 0.22558 0.0
C551 C 0.36873 0.00798 0.20983 0.0
C552 C 0.37115 0.05873 0.20268 0.0
C553 C 0.34664 0.00796 0.17191 0.0
C554 C 0.33634 0.03307 0.15047 0.0
C555 C 0.33915 0.08373 0.14216 0.0
C556 C 0.35258 0.10905 0.15431 0.0
C557 C 0.34859 0.05854 0.16523 0.0
C558 C 0.3753 0.10896 0.19077 0.0
C559 C 0.38426 0.08406 0.2154 0.0
H560 H 0.33237 0.42605 0.66648 0.0
H561 H 0.37585 0.34952 0.6305 0.0
H562 H 0.33504 0.33265 0.57983 0.0
H563 H 0.28575 0.33861 0.5512 0.0
H564 H 0.24191 0.41359 0.59545 0.0
H565 H 0.28439 0.43246 0.63659 0.0
C566 C 0.33318 0.40574 0.64723 0.0
C567 C 0.35726 0.38908 0.65241 0.0
C568 C 0.30956 0.39603 0.6193 0.0
C569 C 0.35762 0.36275 0.62741 0.0
C570 C 0.33429 0.35313 0.59833 0.0
C571 C 0.28582 0.35935 0.56868 0.0
C572 C 0.26101 0.37502 0.56953 0.0
C573 C 0.31003 0.36948 0.59455 0.0
C574 C 0.26093 0.40144 0.59379 0.0
C575 C 0.28512 0.41209 0.61761 0.0
H576 H 0.82899 0.10426 0.35827 0.0
H577 H 0.90476 0.1128 0.45292 0.0
H578 H 0.92141 0.06827 0.41801 0.0
H579 H 0.91233 0.02488 0.36861 0.0
H580 H 0.8379 0.0164 0.27079 0.0
H581 H 0.82257 0.06308 0.29919 0.0
C582 C 0.84934 0.09658 0.37056 0.0
C583 C 0.86545 0.11165 0.40873 0.0
C584 C 0.85874 0.07087 0.35054 0.0
C585 C 0.89194 0.10164 0.42365 0.0
C586 C 0.90139 0.07606 0.40409 0.0
C587 C 0.89281 0.03342 0.35338 0.0
C588 C 0.87585 0.01734 0.31883 0.0
C589 C 0.88459 0.06018 0.36896 0.0
C590 C 0.85099 0.02854 0.29797 0.0
C591 C 0.84232 0.05511 0.31418 0.0
H592 H 0.16634 0.57514 0.18831 0.0
H593 H 0.11992 0.64285 0.11487 0.0
H594 H 0.1625 0.65994 0.06995 0.0
H595 H 0.21319 0.65622 0.05388 0.0
H596 H 0.25999 0.59111 0.13513 0.0
H597 H 0.21689 0.57217 0.1745 0.0
C598 C 0.16545 0.59352 0.16207 0.0
C599 C 0.13991 0.60756 0.15441 0.0
C600 C 0.19008 0.60361 0.13785 0.0
C601 C 0.13927 0.63167 0.1213 0.0
C602 C 0.1636 0.64139 0.0956 0.0
C603 C 0.21386 0.63767 0.07967 0.0
C604 C 0.23965 0.62477 0.09101 0.0
C605 C 0.18914 0.62758 0.10378 0.0
C606 C 0.24037 0.60123 0.12561 0.0
C607 C 0.21576 0.59047 0.14814 0.0
H608 H 0.61421 0.89723 0.95825 0.0
H609 H 0.65567 0.87198 0.80913 0.0
H610 H 0.64421 0.91686 0.76521 0.0
H611 H 0.6248 0.96472 0.77223 0.0
H612 H 0.5878 0.99022 0.9268 0.0
H613 H 0.59545 0.94427 0.96559 0.0
C614 C 0.62001 0.90137 0.91561 0.0
C615 C 0.63491 0.88128 0.88616 0.0
C616 C 0.61477 0.92762 0.89209 0.0
C617 C 0.64346 0.88707 0.83181 0.0
C618 C 0.63723 0.9128 0.80708 0.0
C619 C 0.61857 0.96022 0.81443 0.0
C620 C 0.60596 0.98114 0.84642 0.0
C621 C 0.62338 0.93353 0.83729 0.0
C622 C 0.59793 0.97483 0.90112 0.0
C623 C 0.60204 0.94838 0.92346 0.0
H624 H 0.38022 0.1401 0.84073 0.0
H625 H 0.43035 0.18204 0.96278 0.0
H626 H 0.47171 0.17545 0.90645 0.0
H627 H 0.49479 0.15298 0.8285 0.0
H628 H 0.44615 0.10692 0.71099 0.0
H629 H 0.40313 0.12089 0.75783 0.0
C630 C 0.40016 0.14791 0.85483 0.0
C631 C 0.4021 0.16108 0.90652 0.0
C632 C 0.42419 0.14373 0.82242 0.0
C633 C 0.42816 0.17132 0.92379 0.0
C634 C 0.45191 0.16778 0.89135 0.0
C635 C 0.47468 0.14707 0.81179 0.0
C636 C 0.47352 0.12943 0.76585 0.0
C637 C 0.4503 0.15353 0.8412 0.0
C638 C 0.44742 0.12101 0.74569 0.0
C639 C 0.42289 0.12856 0.7731 0.0
H640 H 0.56505 0.66366 0.1432 0.0
H641 H 0.63476 0.61048 0.10451 0.0
H642 H 0.65281 0.64554 0.04021 0.0
H643 H 0.65171 0.69343 0.00421 0.0
H644 H 0.58163 0.74645 0.04102 0.0
H645 H 0.56019 0.70897 0.09502 0.0
C646 C 0.58408 0.65974 0.12031 0.0
C647 C 0.59893 0.63485 0.12939 0.0
C648 C 0.59408 0.67981 0.08267 0.0
C649 C 0.62315 0.62963 0.09856 0.0
C650 C 0.63346 0.64964 0.06178 0.0
C651 C 0.63133 0.69647 0.02264 0.0
C652 C 0.61841 0.72273 0.01903 0.0
C653 C 0.61946 0.67507 0.05459 0.0
C654 C 0.59194 0.72638 0.04281 0.0
C655 C 0.57988 0.70508 0.07448 0.0
H656 H 0.04269 0.89654 0.26327 0.0
H657 H 0.98852 0.83036 0.31851 0.0
H658 H 0.02694 0.80939 0.37046 0.0
H659 H 0.07396 0.81385 0.41089 0.0
H660 H 0.12806 0.87988 0.35461 0.0
H661 H 0.09153 0.89713 0.29287 0.0
C662 C 0.0395 0.87709 0.28543 0.0
C663 C 0.01272 0.86521 0.28749 0.0
C664 C 0.06145 0.86558 0.3163 0.0
C665 C 0.00894 0.83988 0.31595 0.0
C666 C 0.03081 0.82811 0.34642 0.0
C667 C 0.07773 0.83194 0.38487 0.0
C668 C 0.10339 0.84599 0.38814 0.0
C669 C 0.05678 0.84148 0.34883 0.0
C670 C 0.10835 0.86893 0.35322 0.0
C671 C 0.08751 0.87876 0.31786 0.0
H672 H 0.85667 0.2958 0.51034 0.0
H673 H 0.91968 0.24156 0.57877 0.0
H674 H 0.93865 0.28031 0.63194 0.0
H675 H 0.93214 0.3273 0.67035 0.0
H676 H 0.86854 0.38117 0.6027 0.0
H677 H 0.85466 0.3447 0.5383 0.0
C678 C 0.87511 0.29268 0.5356 0.0
C679 C 0.88654 0.26581 0.54121 0.0
C680 C 0.88516 0.31473 0.56752 0.0
C681 C 0.91057 0.26206 0.57354 0.0
C682 C 0.92111 0.28411 0.60472 0.0
C683 C 0.91531 0.33105 0.64132 0.0
C684 C 0.90085 0.35657 0.64216 0.0
C685 C 0.90765 0.31011 0.6041 0.0
C686 C 0.87968 0.36154 0.60331 0.0
C687 C 0.87181 0.34074 0.56642 0.0
H688 H 0.61545 0.86577 0.20278 0.0
H689 H 0.56566 0.81464 0.09483 0.0
H690 H 0.52483 0.82278 0.1518 0.0
H691 H 0.50184 0.84836 0.226 0.0
H692 H 0.54977 0.90335 0.32848 0.0
H693 H 0.59272 0.88898 0.28182 0.0
C694 C 0.5957 0.85633 0.19191 0.0
C695 C 0.59368 0.84001 0.14395 0.0
C696 C 0.57194 0.86141 0.2246 0.0
C697 C 0.56788 0.82776 0.13081 0.0
C698 C 0.54445 0.83218 0.16367 0.0
C699 C 0.52187 0.85624 0.2396 0.0
C700 C 0.52284 0.87633 0.28135 0.0
C701 C 0.54608 0.84935 0.21004 0.0
C702 C 0.54872 0.88732 0.29724 0.0
C703 C 0.57317 0.87948 0.26988 0.0
H704 H 0.40451 0.2524 0.99055 0.0
H705 H 0.35603 0.29906 0.10742 0.0
H706 H 0.36925 0.3427 0.06149 0.0
H707 H 0.38751 0.36641 0.97785 0.0
H708 H 0.43141 0.31783 0.85591 0.0
H709 H 0.42672 0.27639 0.91304 0.0
C710 C 0.39806 0.27226 0.00754 0.0
C711 C 0.37984 0.27264 0.05284 0.0
C712 C 0.40388 0.29692 0.97826 0.0
C713 C 0.37066 0.29839 0.07334 0.0
C714 C 0.3777 0.32327 0.04627 0.0
C715 C 0.39619 0.3468 0.96402 0.0
C716 C 0.40921 0.34527 0.91196 0.0
C717 C 0.39305 0.32264 -0.0031 0.0
C718 C 0.42065 0.31966 0.89508 0.0
C719 C 0.41824 0.29587 0.928 0.0
H720 H 0.91495 0.17418 0.67627 0.0
H721 H 0.86477 0.10023 0.69326 0.0
H722 H 0.90015 0.07921 0.75353 0.0
H723 H 0.94776 0.07991 0.79153 0.0
H724 H 0.99733 0.15444 0.77663 0.0
H725 H 0.95936 0.17764 0.72714 0.0
C726 C 0.9117 0.15356 0.69368 0.0
C727 C 0.88764 0.13845 0.67954 0.0
C728 C 0.93188 0.14187 0.72899 0.0
C729 C 0.88326 0.11208 0.70326 0.0
C730 C 0.90348 0.1001 0.73766 0.0
C731 C 0.94992 0.10151 0.77888 0.0
C732 C 0.97543 0.11535 0.78735 0.0
C733 C 0.92818 0.11453 0.7496 0.0
C734 C 0.97789 0.14338 0.77104 0.0
C735 C 0.95631 0.15652 0.74197 0.0
H736 H 0.10694 0.6308 0.47334 0.0
H737 H 0.06273 0.67829 0.34892 0.0
H738 H 0.06701 0.72009 0.40382 0.0
H739 H 0.0893 0.74477 0.47956 0.0
H740 H 0.1377 0.69916 0.59935 0.0
H741 H 0.12466 0.65514 0.55599 0.0
C742 C 0.09811 0.65025 0.45851 0.0
C743 C 0.08522 0.65139 0.40632 0.0
C744 C 0.10096 0.67463 0.49013 0.0
C745 C 0.07348 0.67678 0.38818 0.0
C746 C 0.07564 0.70078 0.41982 0.0
C747 C 0.09578 0.72508 0.49774 0.0
C748 C 0.11407 0.72507 0.54284 0.0
C749 C 0.09001 0.70016 0.47004 0.0
C750 C 0.12314 0.69952 0.56514 0.0
C751 C 0.11619 0.67442 0.5396 0.0
H752 H 0.88342 0.63951 0.33696 0.0
H753 H 0.93264 0.67753 0.4654 0.0
H754 H 0.97452 0.67208 0.40984 0.0
H755 H -0.00189 0.65153 0.33019 0.0
H756 H 0.95014 0.6092 0.20634 0.0
H757 H 0.90683 0.62246 0.25296 0.0
C758 C 0.90327 0.64669 0.35276 0.0
C759 C 0.9048 0.65847 0.40586 0.0
C760 C 0.92752 0.64326 0.32069 0.0
C761 C 0.93076 0.66795 0.42518 0.0
C762 C 0.95478 0.66506 0.39322 0.0
C763 C 0.97807 0.64643 0.31208 0.0
C764 C 0.97716 0.63008 0.26424 0.0
C765 C 0.95351 0.65229 0.3414 0.0
C766 C 0.9512 0.62249 0.24229 0.0
C767 C 0.92651 0.62954 0.26966 0.0
H768 H 0.0943 0.24581 0.60071 0.0
H769 H 0.13523 0.20179 0.46935 0.0
H770 H 0.12295 0.15713 0.5123 0.0
H771 H 0.10709 0.13115 0.59491 0.0
H772 H 0.06996 0.17647 0.72997 0.0
H773 H 0.07461 0.2198 0.67864 0.0
C774 C 0.09931 0.22638 0.58027 0.0
C775 C 0.11502 0.22694 0.53144 0.0
C776 C 0.09389 0.20096 0.6072 0.0
C777 C 0.12247 0.20172 0.5063 0.0
C778 C 0.11596 0.17623 0.53148 0.0
C779 C 0.09995 0.15048 0.61303 0.0
C780 C 0.08867 0.15042 0.66676 0.0
C781 C 0.10285 0.17565 0.58333 0.0
C782 C 0.07916 0.17574 0.68913 0.0
C783 C 0.0816 0.20064 0.65963 0.0
H784 H 0.57908 0.31768 0.90323 0.0
H785 H 0.63227 0.38589 0.85457 0.0
H786 H 0.59643 0.40288 0.79076 0.0
H787 H 0.54806 0.40135 0.7576 0.0
H788 H 0.49502 0.33279 0.80477 0.0
H789 H 0.53309 0.31225 0.85859 0.0
C790 C 0.58283 0.33618 0.87837 0.0
C791 C 0.60798 0.35093 0.88446 0.0
C792 C 0.56232 0.34551 0.84103 0.0
C793 C 0.61294 0.3744 0.85101 0.0
C794 C 0.59249 0.38407 0.81448 0.0
C795 C 0.54514 0.38143 0.77821 0.0
C796 C 0.51872 0.36869 0.77742 0.0
C797 C 0.56687 0.37016 0.81015 0.0
C798 C 0.5152 0.34288 0.80418 0.0
C799 C 0.53684 0.33138 0.8358 0.0
H800 H 0.40578 0.75242 0.07304 0.0
H801 H 0.35664 0.7984 0.95504 0.0
H802 H 0.37009 0.8423 -0.00152 0.0
H803 H 0.3892 0.86661 0.07995 0.0
H804 H 0.43459 0.81902 0.20246 0.0
H805 H 0.42901 0.77707 0.14818 0.0
C806 C 0.39921 0.77218 0.05528 0.0
C807 C 0.38081 0.7723 0.01025 0.0
C808 C 0.40541 0.79708 0.0829 0.0
C809 C 0.37144 0.79793 0.98886 0.0
C810 C 0.37865 0.82297 0.01446 0.0
C811 C 0.39805 0.84712 0.0945 0.0
C812 C 0.41176 0.84604 0.14595 0.0
C813 C 0.39448 0.82268 0.06323 0.0
C814 C 0.42337 0.82054 0.16373 0.0
C815 C 0.42041 0.79644 0.13246 0.0
H816 H 0.07855 0.31211 0.65958 0.0
H817 H 0.1333 0.377 0.717 0.0
H818 H 0.09742 0.39297 0.78107 0.0
H819 H 0.04837 0.39294 0.80939 0.0
H820 H 0.99316 0.32881 0.75106 0.0
H821 H 0.03167 0.30729 0.70043 0.0
C822 C 0.0827 0.32957 0.68656 0.0
C823 C 0.10826 0.34384 0.68262 0.0
C824 C 0.06199 0.33857 0.72342 0.0
C825 C 0.11367 0.36592 0.71879 0.0
C826 C 0.09317 0.37504 0.75544 0.0
C827 C 0.04505 0.37367 0.78716 0.0
C828 C 0.018 0.36259 0.78343 0.0
C829 C 0.06698 0.36211 0.75668 0.0
C830 C 0.01386 0.33759 0.75485 0.0
C831 C 0.03577 0.32559 0.72509 0.0
H832 H 0.83426 0.79897 0.54477 0.0
H833 H 0.91004 0.75185 0.52359 0.0
H834 H 0.93118 0.79116 0.47453 0.0
H835 H 0.92487 0.83534 0.42379 0.0
H836 H 0.84888 0.88224 0.44397 0.0
H837 H 0.83088 0.84645 0.50704 0.0
C838 C 0.85572 0.79765 0.53092 0.0
C839 C 0.87044 0.77243 0.53708 0.0
C840 C 0.86734 0.81994 0.50118 0.0
C841 C 0.89831 0.77104 0.51956 0.0
C842 C 0.91023 0.79336 0.49067 0.0
C843 C 0.90446 0.8378 0.44244 0.0
C844 C 0.88786 0.86096 0.42828 0.0
C845 C 0.8944 0.81729 0.47883 0.0
C846 C 0.86183 0.86439 0.45379 0.0
C847 C 0.85158 0.84396 0.48982 0.0
H848 H 0.38279 0.63565 0.21543 0.0
H849 H 0.43035 0.68472 0.09872 0.0
H850 H 0.47242 0.67709 0.15243 0.0
H851 H 0.49707 0.65149 0.2251 0.0
H852 H 0.451 0.5989 0.33713 0.0
H853 H 0.40712 0.61371 0.29451 0.0
C854 C 0.40231 0.64486 0.20209 0.0
C855 C 0.40339 0.66021 0.15241 0.0
C856 C 0.42679 0.64004 0.23286 0.0
C857 C 0.42889 0.67223 0.13606 0.0
C858 C 0.45304 0.66809 0.16699 0.0
C859 C 0.47733 0.64425 0.24165 0.0
C860 C 0.47716 0.62445 0.28451 0.0
C861 C 0.45242 0.65144 0.21463 0.0
C862 C 0.45152 0.6145 0.30458 0.0
C863 C 0.42648 0.62261 0.27962 0.0
H864 H 0.56243 0.17137 0.89187 0.0
H865 H 0.62613 0.1152 0.95121 0.0
H866 H 0.6427 0.15064 0.01529 0.0
H867 H 0.64265 0.19918 0.04557 0.0
H868 H 0.57941 0.25573 0.98622 0.0
H869 H 0.55821 0.21817 0.93278 0.0
C870 C 0.57988 0.16691 0.91901 0.0
C871 C 0.59353 0.141 0.91594 0.0
C872 C 0.58905 0.18726 0.95622 0.0
C873 C 0.61556 0.13513 0.95236 0.0
C874 C 0.62497 0.15533 0.98908 0.0
C875 C 0.62369 0.20303 0.02229 0.0
C876 C 0.61271 0.23016 0.01939 0.0
C877 C 0.6123 0.18166 0.99035 0.0
C878 C 0.58809 0.23495 0.98945 0.0
C879 C 0.57629 0.21359 0.9581 0.0
H880 H 0.26346 0.1978 0.23803 0.0
H881 H 0.2493 0.26984 0.13401 0.0
H882 H 0.23044 0.29528 0.21235 0.0
H883 H 0.21955 0.29776 0.31116 0.0
H884 H 0.23414 0.22575 0.41514 0.0
H885 H 0.25133 0.19981 0.33613 0.0
C886 C 0.25594 0.21894 0.23236 0.0
C887 C 0.25788 0.23188 0.18037 0.0
C888 C 0.24546 0.23364 0.27771 0.0
C889 C 0.24818 0.25938 0.17375 0.0
C890 C 0.23744 0.27402 0.21853 0.0
C891 C 0.22658 0.27644 0.31655 0.0
C892 C 0.22567 0.26383 0.36901 0.0
C893 C 0.23637 0.2615 0.27087 0.0
C894 C 0.23463 0.23605 0.3752 0.0
C895 C 0.24444 0.22112 0.33003 0.0
H896 H 0.51144 0.47993 0.63758 0.0
H897 H 0.42709 0.48821 0.57738 0.0
H898 H 0.44446 0.50559 0.489 0.0
H899 H 0.48352 0.5178 0.42822 0.0
H900 H 0.56782 0.50963 0.48865 0.0
H901 H 0.55043 0.49272 0.57734 0.0
C902 C 0.49681 0.48567 0.6053 0.0
C903 C 0.46801 0.48273 0.61425 0.0
C904 C 0.5069 0.49551 0.55439 0.0
C905 C 0.44939 0.49024 0.57176 0.0
C906 C 0.45928 0.50013 0.52107 0.0
C907 C 0.49811 0.51221 0.46067 0.0
C908 C 0.52693 0.5149 0.4516 0.0
C909 C 0.488 0.50266 0.5118 0.0
C910 C 0.54552 0.50776 0.49438 0.0
C911 C 0.53561 0.49811 0.54521 0.0
H912 H 0.22583 0.79581 0.73817 0.0
H913 H 0.24155 0.7238 0.63678 0.0
H914 H 0.25928 0.69837 0.71685 0.0
H915 H 0.27029 0.69653 0.81568 0.0
H916 H 0.2545 0.76864 0.91678 0.0
H917 H 0.23656 0.79389 0.83682 0.0
C918 C 0.23333 0.77464 0.73349 0.0
C919 C 0.23242 0.76178 0.68165 0.0
C920 C 0.24323 0.76001 0.77972 0.0
C921 C 0.242 0.73422 0.67634 0.0
C922 C 0.25208 0.7196 0.72209 0.0
C923 C 0.26267 0.71766 0.82029 0.0
C924 C 0.26372 0.73064 0.87202 0.0
C925 C 0.25264 0.73223 0.77404 0.0
C926 C 0.25399 0.75815 0.87729 0.0
C927 C 0.24378 0.77268 0.83161 0.0
H928 H 0.05333 0.51745 0.06739 0.0
H929 H 0.983 0.4996 0.17321 0.0
H930 H 0.95719 0.48122 0.09514 0.0
H931 H 0.95374 0.4717 -0.00355 0.0
H932 H 0.02386 0.48906 0.88995 0.0
H933 H 0.05043 0.5063 0.96854 0.0
C934 C 0.03251 0.50921 0.07341 0.0
C935 C 0.02009 0.51004 0.12589 0.0
C936 C 0.01755 0.4989 0.02815 0.0
C937 C 0.99301 0.4994 0.13308 0.0
C938 C 0.97815 0.48893 0.08846 0.0
C939 C 0.97477 0.4794 0.99038 0.0
C940 C 0.9867 0.4793 0.9375 0.0
C941 C 0.99004 0.48898 0.0357 0.0
C942 C 0.01414 0.48898 0.93037 0.0
C943 C 0.0294 0.49879 0.97526 0.0
H944 H 0.72318 0.72982 0.8713 0.0
H945 H 0.74563 0.81404 0.82664 0.0
H946 H 0.76148 0.79838 0.73639 0.0
H947 H 0.76882 0.76085 0.6693 0.0
H948 H 0.74678 0.67657 0.71398 0.0
H949 H 0.73068 0.69223 0.80421 0.0
C950 C 0.73183 0.7447 0.84209 0.0
C951 C 0.73325 0.77306 0.85606 0.0
C952 C 0.74067 0.73562 0.78969 0.0
C953 C 0.74425 0.79206 0.81723 0.0
C954 C 0.75325 0.78316 0.76536 0.0
C955 C 0.76017 0.74597 0.6985 0.0
C956 C 0.7589 0.71761 0.68461 0.0
C957 C 0.75135 0.75503 0.75089 0.0
C958 C 0.748 0.69856 0.72343 0.0
C959 C 0.73886 0.70746 0.77524 0.0
H960 H 0.73274 0.29745 0.23842 0.0
H961 H 0.72933 0.22061 0.14693 0.0
H962 H 0.74836 0.19529 0.22598 0.0
H963 H 0.76616 0.19488 0.3211 0.0
H964 H 0.76932 0.27188 0.41223 0.0
H965 H 0.75014 0.29701 0.33338 0.0
C966 C 0.7362 0.27518 0.23565 0.0
C967 C 0.72964 0.26104 0.18672 0.0
C968 C 0.74706 0.26067 0.2813 0.0
C969 C 0.73418 0.23211 0.18406 0.0
C970 C 0.74506 0.21755 0.22928 0.0
C971 C 0.76258 0.21714 0.3238 0.0
C972 C 0.76923 0.23138 0.3726 0.0
C973 C 0.75156 0.23161 0.27815 0.0
C974 C 0.76446 0.26028 0.37524 0.0
C975 C 0.75349 0.27476 0.33011 0.0
H976 H 0.98526 0.0088 0.91978 0.0
H977 H 0.06944 0.997 0.97818 0.0
H978 H 0.05195 0.98113 0.06756 0.0
H979 H 0.01269 0.97138 0.1305 0.0
H980 H 0.92858 0.98346 0.07172 0.0
H981 H 0.94612 -0.0015 0.98205 0.0
C982 C -0.00021 0.00248 0.9518 0.0
C983 C 0.02864 0.00411 0.94193 0.0
C984 C 0.98962 0.99364 0.00364 0.0
C985 C 0.04711 0.99603 0.98437 0.0
C986 C 0.03714 0.987 0.03574 0.0
C987 C -0.0018 0.97747 0.09821 0.0
C988 C 0.96933 0.97631 0.10827 0.0
C989 C 0.00842 0.98598 0.04613 0.0
C990 C 0.95092 0.98407 0.0655 0.0
C991 C 0.96091 0.99267 0.01393 0.0
H992 H 0.48192 0.02083 0.62332 0.0
H993 H 0.56673 0.00951 0.56798 0.0
H994 H 0.5499 0.99268 0.47905 0.0
H995 H 0.51111 0.98104 0.41722 0.0
H996 H 0.42643 0.99233 0.4734 0.0
H997 H 0.44335 0.00957 0.56169 0.0
C998 C 0.49679 0.01458 0.59199 0.0
C999 C 0.52555 0.01637 0.6025 0.0
C1000 C 0.48702 0.0051 0.54092 0.0
C1001 C 0.54446 0.00831 0.56114 0.0
C1002 C 0.53487 -0.00126 0.51018 0.0
C1003 C 0.49634 0.98746 0.44859 0.0
C1004 C 0.46754 0.9854 0.43859 0.0
C1005 C 0.50619 0.99712 0.49959 0.0
C1006 C 0.44871 0.99365 0.47993 0.0
C1007 C 0.45835 0.00347 0.53053 0.0
H1008 H 0.23076 0.30054 0.73787 0.0
H1009 H 0.24252 0.2269 0.63875 0.0
H1010 H 0.26714 0.20433 0.71502 0.0
H1011 H 0.28301 0.20478 0.8107 0.0
H1012 H 0.27005 0.27809 0.91025 0.0
H1013 H 0.24807 0.30164 0.83215 0.0
C1014 C 0.23879 0.27959 0.73272 0.0
C1015 C 0.23464 0.26532 0.683 0.0
C1016 C 0.25254 0.26669 0.77665 0.0
C1017 C 0.24534 0.23827 0.67685 0.0
C1018 C 0.25937 0.22535 0.72036 0.0
C1019 C 0.27553 0.22597 0.8153 0.0
C1020 C 0.27793 0.23961 0.86618 0.0
C1021 C 0.26272 0.23926 0.77061 0.0
C1022 C 0.26821 0.26707 0.87151 0.0
C1023 C 0.25569 0.28056 0.82696 0.0
H1024 H 0.45117 0.46486 -0.00172 0.0
H1025 H 0.51669 0.49288 0.88869 0.0
H1026 H 0.54036 0.51488 0.96617 0.0
H1027 H 0.54252 0.5257 0.06408 0.0
H1028 H 0.4771 0.49793 0.17411 0.0
H1029 H 0.45321 0.47602 0.09655 0.0
C1030 C 0.47063 0.47578 0.99117 0.0
C1031 C 0.48218 0.4772 0.93776 0.0
C1032 C 0.48411 0.48829 0.03574 0.0
C1033 C 0.50734 0.49151 0.92936 0.0
C1034 C 0.5209 0.50404 0.97361 0.0
C1035 C 0.52305 0.51483 0.07138 0.0
C1036 C 0.51163 0.51339 0.12487 0.0
C1037 C 0.50948 0.50246 0.02687 0.0
C1038 C 0.48635 0.49931 0.13334 0.0
C1039 C 0.47269 0.48681 0.08907 0.0
H1040 H 0.21934 0.79261 0.30968 0.0
H1041 H 0.23182 0.71911 0.41077 0.0
H1042 H 0.25677 0.6968 0.33518 0.0
H1043 H 0.27567 0.69867 0.24159 0.0
H1044 H 0.26324 0.7724 0.14111 0.0
H1045 H 0.23751 0.79422 0.21603 0.0
C1046 C 0.2274 0.77166 0.31525 0.0
C1047 C 0.22384 0.75757 0.36573 0.0
C1048 C 0.24179 0.75909 0.27205 0.0
C1049 C 0.23437 0.73043 0.37225 0.0
C1050 C 0.24866 0.71768 0.32916 0.0
C1051 C 0.26743 0.71955 0.2361 0.0
C1052 C 0.27144 0.73395 0.18609 0.0
C1053 C 0.25265 0.73193 0.27911 0.0
C1054 C 0.26043 0.76089 0.17935 0.0
C1055 C 0.24573 0.77338 0.22206 0.0
H1056 H 0.04296 0.53145 0.4976 0.0
H1057 H 0.97212 0.51409 0.39325 0.0
H1058 H 0.94881 0.49076 0.47031 0.0
H1059 H 0.94913 0.47458 0.56618 0.0
H1060 H 0.02047 0.49137 0.6697 0.0
H1061 H 0.04306 0.51584 0.59344 0.0
C1062 C 0.02236 0.52271 0.49166 0.0
C1063 C 0.00929 0.52446 0.43986 0.0
C1064 C 0.00924 0.50921 0.53575 0.0
C1065 C 0.98265 0.51292 0.43278 0.0
C1066 C 0.96932 0.4996 0.47674 0.0
C1067 C 0.96959 0.48364 0.5722 0.0
C1068 C 0.98312 0.48111 0.62344 0.0
C1069 C 0.98252 0.49751 0.52824 0.0
C1070 C 0.00963 0.49296 0.63055 0.0
C1071 C 0.02256 0.50696 0.58705 0.0
H1072 H 0.7552 0.7481 0.1567 0.0
H1073 H 0.6796 0.7734 0.23889 0.0
H1074 H 0.69874 0.75912 0.32783 0.0
H1075 H 0.73736 0.74017 0.38317 0.0
H1076 H 0.81283 0.71447 0.30113 0.0
H1077 H 0.79362 0.72851 0.21198 0.0
C1078 C 0.74283 0.75005 0.19399 0.0
C1079 C 0.71608 0.76173 0.19115 0.0
C1080 C 0.75411 0.74218 0.2454 0.0
C1081 C 0.70036 0.76451 0.23998 0.0
C1082 C 0.71129 0.75648 0.29098 0.0
C1083 C 0.74966 0.738 0.34583 0.0
C1084 C 0.77645 0.72646 0.34877 0.0
C1085 C 0.7383 0.74562 0.29437 0.0
C1086 C 0.79207 0.72332 0.29992 0.0
C1087 C 0.78109 0.73123 0.24882 0.0
H1088 H 0.78264 0.20383 0.75021 0.0
H1089 H 0.76541 0.27407 0.64291 0.0
H1090 H 0.74259 0.29815 0.71908 0.0
H1091 H 0.72635 0.29839 0.81463 0.0
H1092 H 0.74299 0.2276 0.92095 0.0
H1093 H 0.76749 0.20453 0.84591 0.0
C1094 C 0.77402 0.22447 0.74337 0.0
C1095 C 0.77556 0.23711 0.69102 0.0
C1096 C 0.76083 0.23801 0.7869 0.0
C1097 C 0.76433 0.26385 0.68288 0.0
C1098 C 0.75131 0.27762 0.72632 0.0
C1099 C 0.73541 0.27796 0.82153 0.0
C1100 C 0.73274 0.26466 0.87311 0.0
C1101 C 0.74924 0.26474 0.77828 0.0
C1102 C 0.74465 0.23823 0.88147 0.0
C1103 C 0.75866 0.22502 0.83868 0.0
H1104 H 0.00272 0.00033 0.41225 0.0
H1105 H 0.95938 0.93453 0.49886 0.0
H1106 H 0.97653 0.95154 0.58688 0.0
H1107 H 0.00239 0.98616 0.64036 0.0
H1108 H 0.04591 0.05197 0.55411 0.0
H1109 H 0.03009 0.03407 0.46576 0.0
C1110 C 0.9974 0.98955 0.45033 0.0
C1111 C 0.9797 0.96637 0.44892 0.0
C1112 C 0.00707 -0.00038 0.5013 0.0
C1113 C 0.97281 0.95266 0.49875 0.0
C1114 C 0.98254 0.96236 0.54928 0.0
C1115 C 0.00829 0.99662 0.60225 0.0
C1116 C 0.02519 0.02037 0.60405 0.0
C1117 C -0.00068 0.9861 0.55122 0.0
C1118 C 0.03292 0.03355 0.5541 0.0
C1119 C 0.02392 0.02333 0.50335 0.0
H1120 H 0.52683 0.04389 0.98864 0.0
H1121 H 0.47104 0.00202 0.8764 0.0
H1122 H 0.45016 0.97683 0.95428 0.0
H1123 H 0.44937 0.96553 0.05304 0.0
H1124 H 0.50647 0.00664 0.16394 0.0
H1125 H 0.52552 0.03335 0.08672 0.0
C1126 C 0.50995 0.02942 0.98093 0.0
C1127 C 0.50052 0.02477 0.92672 0.0
C1128 C 0.49854 0.01476 0.02538 0.0
C1129 C 0.47867 0.00593 0.91774 0.0
C1130 C 0.46682 0.99149 0.96216 0.0
C1131 C 0.46597 0.98035 0.06048 0.0
C1132 C 0.47658 0.98401 0.11418 0.0
C1133 C 0.47689 0.99551 0.01599 0.0
C1134 C 0.49804 0.00332 0.123 0.0
C1135 C 0.50888 0.01864 0.07894 0.0
loop_
_geom_bond_atom_site_label_1
_geom_bond_atom_site_label_2
_geom_bond_distance
_geom_bond_site_symmetry_2
_ccdc_geom_bond_type
O0 Zn1 1.953 . S
O0 C16 1.225 . S
Zn1 O0 1.953 . S
Zn1 O2 1.949 1_556 S
Zn1 O8 1.919 . S
Zn1 O13 1.924 . S
O2 Zn1 1.949 1_554 S
O2 Zn3 1.923 . S
O2 Zn4 1.950 . S
O2 Zn5 1.945 . S
Zn3 O2 1.923 . S
Zn3 O6 1.933 . S
Zn3 O9 1.941 1_554 S
Zn3 O10 1.965 . S
Zn4 O2 1.950 . S
Zn4 O11 1.938 . S
Zn4 O12 1.906 . S
Zn4 O22 1.953 1_554 S
Zn5 O2 1.945 . S
Zn5 O7 1.932 . S
Zn5 O14 1.977 . S
Zn5 O15 1.910 . S
O6 Zn3 1.933 . S
O6 C17 1.226 . S
O7 Zn5 1.932 . S
O7 C17 1.307 . S
O8 Zn1 1.919 . S
O8 C19 1.253 . S
O9 Zn3 1.941 1_556 S
O9 C19 1.283 . S
O10 Zn3 1.965 . S
O10 C18 1.303 . S
O11 Zn4 1.938 . S
O11 C18 1.247 . S
O12 Zn4 1.906 . S
O12 C20 1.304 . S
O13 Zn1 1.924 . S
O13 C21 1.311 . S
O14 Zn5 1.977 . S
O14 C20 1.272 . S
O15 Zn5 1.910 . S
O15 C21 1.231 1_554 S
C16 O0 1.225 . S
C16 O22 1.298 . S
C17 O6 1.226 . S
C17 O7 1.307 . S
C18 O10 1.303 . S
C18 O11 1.247 . S
C19 O8 1.253 . S
C19 O9 1.283 . S
C20 O12 1.304 . S
C20 O14 1.272 . S
C21 O13 1.311 . S
C21 O15 1.231 1_556 S
O22 Zn4 1.953 1_556 S
O22 C16 1.298 . S
O23 Zn24 1.953 . S
O23 C39 1.225 . S
Zn24 O23 1.953 . S
Zn24 O25 1.949 . S
Zn24 O31 1.919 . S
Zn24 O36 1.924 . S
O25 Zn24 1.949 . S
O25 Zn26 1.923 . S
O25 Zn27 1.950 . S
O25 Zn28 1.945 . S
Zn26 O25 1.923 . S
Zn26 O29 1.933 . S
Zn26 O32 1.941 . S
Zn26 O33 1.965 . S
Zn27 O25 1.950 . S
Zn27 O34 1.938 . S
Zn27 O35 1.906 . S
Zn27 O45 1.953 . S
Zn28 O25 1.945 . S
Zn28 O30 1.932 . S
Zn28 O37 1.977 . S
Zn28 O38 1.910 . S
O29 Zn26 1.933 . S
O29 C40 1.226 . S
O30 Zn28 1.932 . S
O30 C40 1.307 . S
O31 Zn24 1.919 . S
O31 C42 1.253 . S
O32 Zn26 1.941 . S
O32 C42 1.283 . S
O33 Zn26 1.965 . S
O33 C41 1.303 . S
O34 Zn27 1.938 . S
O34 C41 1.247 . S
O35 Zn27 1.906 . S
O35 C43 1.304 . S
O36 Zn24 1.924 . S
O36 C44 1.311 . S
O37 Zn28 1.977 . S
O37 C43 1.272 . S
O38 Zn28 1.910 . S
O38 C44 1.231 . S
C39 O23 1.225 . S
C39 O45 1.298 . S
C40 O29 1.226 . S
C40 O30 1.307 . S
C41 O33 1.303 . S
C41 O34 1.247 . S
C42 O31 1.253 . S
C42 O32 1.283 . S
C43 O35 1.304 . S
C43 O37 1.272 . S
C44 O36 1.311 . S
C44 O38 1.231 . S
O45 Zn27 1.953 . S
O45 C39 1.298 . S
O46 Zn47 1.953 . S
O46 C62 1.225 . S
Zn47 O46 1.953 . S
Zn47 O48 1.949 . S
Zn47 O54 1.919 . S
Zn47 O59 1.924 . S
O48 Zn47 1.949 . S
O48 Zn49 1.923 . S
O48 Zn50 1.950 . S
O48 Zn51 1.945 . S
Zn49 O48 1.923 . S
Zn49 O52 1.933 . S
Zn49 O55 1.941 . S
Zn49 O56 1.965 . S
Zn50 O48 1.950 . S
Zn50 O57 1.938 . S
Zn50 O58 1.906 . S
Zn50 O68 1.953 . S
Zn51 O48 1.945 . S
Zn51 O53 1.932 . S
Zn51 O60 1.977 . S
Zn51 O61 1.910 . S
O52 Zn49 1.933 . S
O52 C63 1.226 . S
O53 Zn51 1.932 . S
O53 C63 1.307 . S
O54 Zn47 1.919 . S
O54 C65 1.253 . S
O55 Zn49 1.941 . S
O55 C65 1.283 . S
O56 Zn49 1.965 . S
O56 C64 1.303 . S
O57 Zn50 1.938 . S
O57 C64 1.247 . S
O58 Zn50 1.906 . S
O58 C66 1.304 . S
O59 Zn47 1.924 . S
O59 C67 1.311 . S
O60 Zn51 1.977 . S
O60 C66 1.272 . S
O61 Zn51 1.910 . S
O61 C67 1.231 . S
C62 O46 1.225 . S
C62 O68 1.298 . S
C63 O52 1.226 . S
C63 O53 1.307 . S
C64 O56 1.303 . S
C64 O57 1.247 . S
C65 O54 1.253 . S
C65 O55 1.283 . S
C66 O58 1.304 . S
C66 O60 1.272 . S
C67 O59 1.311 . S
C67 O61 1.231 . S
O68 Zn50 1.953 . S
O68 C62 1.298 . S
O69 Zn70 1.953 . S
O69 C85 1.225 . S
Zn70 O69 1.953 . S
Zn70 O71 1.949 . S
Zn70 O77 1.919 . S
Zn70 O82 1.924 . S
O71 Zn70 1.949 . S
O71 Zn72 1.923 . S
O71 Zn73 1.950 . S
O71 Zn74 1.945 . S
Zn72 O71 1.923 . S
Zn72 O75 1.933 . S
Zn72 O78 1.941 . S
Zn72 O79 1.965 . S
Zn73 O71 1.950 . S
Zn73 O80 1.938 1_655 S
Zn73 O81 1.906 . S
Zn73 O91 1.953 . S
Zn74 O71 1.945 . S
Zn74 O76 1.932 . S
Zn74 O83 1.977 . S
Zn74 O84 1.910 . S
O75 Zn72 1.933 . S
O75 C86 1.226 . S
O76 Zn74 1.932 . S
O76 C86 1.307 . S
O77 Zn70 1.919 . S
O77 C88 1.253 . S
O78 Zn72 1.941 . S
O78 C88 1.283 . S
O79 Zn72 1.965 . S
O79 C87 1.303 1_655 S
O80 Zn73 1.938 1_455 S
O80 C87 1.247 . S
O81 Zn73 1.906 . S
O81 C89 1.304 . S
O82 Zn70 1.924 . S
O82 C90 1.311 . S
O83 Zn74 1.977 . S
O83 C89 1.272 . S
O84 Zn74 1.910 . S
O84 C90 1.231 . S
C85 O69 1.225 . S
C85 O91 1.298 . S
C86 O75 1.226 . S
C86 O76 1.307 . S
C87 O79 1.303 1_455 S
C87 O80 1.247 . S
C88 O77 1.253 . S
C88 O78 1.283 . S
C89 O81 1.304 . S
C89 O83 1.272 . S
C90 O82 1.311 . S
C90 O84 1.231 . S
O91 Zn73 1.953 . S
O91 C85 1.298 . S
O92 Zn93 1.953 . S
O92 C108 1.225 . S
Zn93 O92 1.953 . S
Zn93 O94 1.949 . S
Zn93 O100 1.919 . S
Zn93 O105 1.924 . S
O94 Zn93 1.949 . S
O94 Zn95 1.923 . S
O94 Zn96 1.950 . S
O94 Zn97 1.945 1_554 S
Zn95 O94 1.923 . S
Zn95 O98 1.933 1_554 S
Zn95 O101 1.941 . S
Zn95 O102 1.965 . S
Zn96 O94 1.950 . S
Zn96 O103 1.938 . S
Zn96 O104 1.906 1_554 S
Zn96 O114 1.953 . S
Zn97 O94 1.945 1_556 S
Zn97 O99 1.932 . S
Zn97 O106 1.977 . S
Zn97 O107 1.910 1_556 S
O98 Zn95 1.933 1_556 S
O98 C109 1.226 . S
O99 Zn97 1.932 . S
O99 C109 1.307 . S
O100 Zn93 1.919 . S
O100 C111 1.253 . S
O101 Zn95 1.941 . S
O101 C111 1.283 . S
O102 Zn95 1.965 . S
O102 C110 1.303 . S
O103 Zn96 1.938 . S
O103 C110 1.247 . S
O104 Zn96 1.906 1_556 S
O104 C112 1.304 . S
O105 Zn93 1.924 . S
O105 C113 1.311 . S
O106 Zn97 1.977 . S
O106 C112 1.272 . S
O107 Zn97 1.910 1_554 S
O107 C113 1.231 . S
C108 O92 1.225 . S
C108 O114 1.298 . S
C109 O98 1.226 . S
C109 O99 1.307 . S
C110 O102 1.303 . S
C110 O103 1.247 . S
C111 O100 1.253 . S
C111 O101 1.283 . S
C112 O104 1.304 . S
C112 O106 1.272 . S
C113 O105 1.311 . S
C113 O107 1.231 . S
O114 Zn96 1.953 . S
O114 C108 1.298 . S
O115 Zn116 1.953 . S
O115 C131 1.225 . S
Zn116 O115 1.953 . S
Zn116 O117 1.949 . S
Zn116 O123 1.919 . S
Zn116 O128 1.924 . S
O117 Zn116 1.949 . S
O117 Zn118 1.923 . S
O117 Zn119 1.950 . S
O117 Zn120 1.945 . S
Zn118 O117 1.923 . S
Zn118 O121 1.933 . S
Zn118 O124 1.941 . S
Zn118 O125 1.965 . S
Zn119 O117 1.950 . S
Zn119 O126 1.938 . S
Zn119 O127 1.906 . S
Zn119 O137 1.953 . S
Zn120 O117 1.945 . S
Zn120 O122 1.932 . S
Zn120 O129 1.977 . S
Zn120 O130 1.910 . S
O121 Zn118 1.933 . S
O121 C132 1.226 . S
O122 Zn120 1.932 . S
O122 C132 1.307 . S
O123 Zn116 1.919 . S
O123 C134 1.253 . S
O124 Zn118 1.941 . S
O124 C134 1.283 . S
O125 Zn118 1.965 . S
O125 C133 1.303 . S
O126 Zn119 1.938 . S
O126 C133 1.247 . S
O127 Zn119 1.906 . S
O127 C135 1.304 . S
O128 Zn116 1.924 . S
O128 C136 1.311 . S
O129 Zn120 1.977 . S
O129 C135 1.272 . S
O130 Zn120 1.910 . S
O130 C136 1.231 . S
C131 O115 1.225 . S
C131 O137 1.298 . S
C132 O121 1.226 . S
C132 O122 1.307 . S
C133 O125 1.303 . S
C133 O126 1.247 . S
C134 O123 1.253 . S
C134 O124 1.283 . S
C135 O127 1.304 . S
C135 O129 1.272 . S
C136 O128 1.311 . S
C136 O130 1.231 . S
O137 Zn119 1.953 . S
O137 C131 1.298 . S
O138 Zn139 1.953 . S
O138 C154 1.225 . S
Zn139 O138 1.953 . S
Zn139 O140 1.949 . S
Zn139 O146 1.919 . S
Zn139 O151 1.924 . S
O140 Zn139 1.949 . S
O140 Zn141 1.923 . S
O140 Zn142 1.950 . S
O140 Zn143 1.945 . S
Zn141 O140 1.923 . S
Zn141 O144 1.933 . S
Zn141 O147 1.941 . S
Zn141 O148 1.965 . S
Zn142 O140 1.950 . S
Zn142 O149 1.938 . S
Zn142 O150 1.906 . S
Zn142 O160 1.953 . S
Zn143 O140 1.945 . S
Zn143 O145 1.932 . S
Zn143 O152 1.977 . S
Zn143 O153 1.910 . S
O144 Zn141 1.933 . S
O144 C155 1.226 . S
O145 Zn143 1.932 . S
O145 C155 1.307 . S
O146 Zn139 1.919 . S
O146 C157 1.253 . S
O147 Zn141 1.941 . S
O147 C157 1.283 . S
O148 Zn141 1.965 . S
O148 C156 1.303 . S
O149 Zn142 1.938 . S
O149 C156 1.247 . S
O150 Zn142 1.906 . S
O150 C158 1.304 . S
O151 Zn139 1.924 . S
O151 C159 1.311 . S
O152 Zn143 1.977 . S
O152 C158 1.272 . S
O153 Zn143 1.910 . S
O153 C159 1.231 . S
C154 O138 1.225 . S
C154 O160 1.298 . S
C155 O144 1.226 . S
C155 O145 1.307 . S
C156 O148 1.303 . S
C156 O149 1.247 . S
C157 O146 1.253 . S
C157 O147 1.283 . S
C158 O150 1.304 . S
C158 O152 1.272 . S
C159 O151 1.311 . S
C159 O153 1.231 . S
O160 Zn142 1.953 . S
O160 C154 1.298 . S
O161 Zn162 1.953 . S
O161 C177 1.225 . S
Zn162 O161 1.953 . S
Zn162 O163 1.949 . S
Zn162 O169 1.919 . S
Zn162 O174 1.924 . S
O163 Zn162 1.949 . S
O163 Zn164 1.923 . S
O163 Zn165 1.950 . S
O163 Zn166 1.945 . S
Zn164 O163 1.923 . S
Zn164 O167 1.933 . S
Zn164 O170 1.941 . S
Zn164 O171 1.965 . S
Zn165 O163 1.950 . S
Zn165 O172 1.938 1_455 S
Zn165 O173 1.906 . S
Zn165 O183 1.953 . S
Zn166 O163 1.945 . S
Zn166 O168 1.932 . S
Zn166 O175 1.977 . S
Zn166 O176 1.910 . S
O167 Zn164 1.933 . S
O167 C178 1.226 . S
O168 Zn166 1.932 . S
O168 C178 1.307 . S
O169 Zn162 1.919 . S
O169 C180 1.253 . S
O170 Zn164 1.941 . S
O170 C180 1.283 . S
O171 Zn164 1.965 . S
O171 C179 1.303 1_455 S
O172 Zn165 1.938 1_655 S
O172 C179 1.247 . S
O173 Zn165 1.906 . S
O173 C181 1.304 . S
O174 Zn162 1.924 . S
O174 C182 1.311 . S
O175 Zn166 1.977 . S
O175 C181 1.272 . S
O176 Zn166 1.910 . S
O176 C182 1.231 . S
C177 O161 1.225 . S
C177 O183 1.298 . S
C178 O167 1.226 . S
C178 O168 1.307 . S
C179 O171 1.303 1_655 S
C179 O172 1.247 . S
C180 O169 1.253 . S
C180 O170 1.283 . S
C181 O173 1.304 . S
C181 O175 1.272 . S
C182 O174 1.311 . S
C182 O176 1.231 . S
O183 Zn165 1.953 . S
O183 C177 1.298 . S
O184 Zn185 1.953 . S
O184 C200 1.225 . S
Zn185 O184 1.953 . S
Zn185 O186 1.949 . S
Zn185 O192 1.919 . S
Zn185 O197 1.924 . S
O186 Zn185 1.949 . S
O186 Zn187 1.923 . S
O186 Zn188 1.950 . S
O186 Zn189 1.945 . S
Zn187 O186 1.923 . S
Zn187 O190 1.933 . S
Zn187 O193 1.941 . S
Zn187 O194 1.965 . S
Zn188 O186 1.950 . S
Zn188 O195 1.938 . S
Zn188 O196 1.906 . S
Zn188 O206 1.953 . S
Zn189 O186 1.945 . S
Zn189 O191 1.932 . S
Zn189 O198 1.977 . S
Zn189 O199 1.910 . S
O190 Zn187 1.933 . S
O190 C201 1.226 . S
O191 Zn189 1.932 . S
O191 C201 1.307 . S
O192 Zn185 1.919 . S
O192 C203 1.253 . S
O193 Zn187 1.941 . S
O193 C203 1.283 . S
O194 Zn187 1.965 . S
O194 C202 1.303 . S
O195 Zn188 1.938 . S
O195 C202 1.247 . S
O196 Zn188 1.906 . S
O196 C204 1.304 . S
O197 Zn185 1.924 . S
O197 C205 1.311 . S
O198 Zn189 1.977 . S
O198 C204 1.272 . S
O199 Zn189 1.910 . S
O199 C205 1.231 . S
C200 O184 1.225 . S
C200 O206 1.298 . S
C201 O190 1.226 . S
C201 O191 1.307 . S
C202 O194 1.303 . S
C202 O195 1.247 . S
C203 O192 1.253 . S
C203 O193 1.283 . S
C204 O196 1.304 . S
C204 O198 1.272 . S
C205 O197 1.311 . S
C205 O199 1.231 . S
O206 Zn188 1.953 . S
O206 C200 1.298 . S
O207 Zn208 1.953 . S
O207 C223 1.225 . S
Zn208 O207 1.953 . S
Zn208 O209 1.949 . S
Zn208 O215 1.919 . S
Zn208 O220 1.924 . S
O209 Zn208 1.949 . S
O209 Zn210 1.923 . S
O209 Zn211 1.950 . S
O209 Zn212 1.945 . S
Zn210 O209 1.923 . S
Zn210 O213 1.933 . S
Zn210 O216 1.941 . S
Zn210 O217 1.965 . S
Zn211 O209 1.950 . S
Zn211 O218 1.938 1_455 S
Zn211 O219 1.906 . S
Zn211 O229 1.953 . S
Zn212 O209 1.945 . S
Zn212 O214 1.932 . S
Zn212 O221 1.977 . S
Zn212 O222 1.910 . S
O213 Zn210 1.933 . S
O213 C224 1.226 . S
O214 Zn212 1.932 . S
O214 C224 1.307 . S
O215 Zn208 1.919 . S
O215 C226 1.253 . S
O216 Zn210 1.941 . S
O216 C226 1.283 . S
O217 Zn210 1.965 . S
O217 C225 1.303 1_455 S
O218 Zn211 1.938 1_655 S
O218 C225 1.247 . S
O219 Zn211 1.906 . S
O219 C227 1.304 . S
O220 Zn208 1.924 . S
O220 C228 1.311 . S
O221 Zn212 1.977 . S
O221 C227 1.272 . S
O222 Zn212 1.910 . S
O222 C228 1.231 . S
C223 O207 1.225 . S
C223 O229 1.298 . S
C224 O213 1.226 . S
C224 O214 1.307 . S
C225 O217 1.303 1_655 S
C225 O218 1.247 . S
C226 O215 1.253 . S
C226 O216 1.283 . S
C227 O219 1.304 . S
C227 O221 1.272 . S
C228 O220 1.311 . S
C228 O222 1.231 . S
O229 Zn211 1.953 . S
O229 C223 1.298 . S
O230 Zn231 1.953 . S
O230 C246 1.225 . S
Zn231 O230 1.953 . S
Zn231 O232 1.949 1_556 S
Zn231 O238 1.919 . S
Zn231 O243 1.924 . S
O232 Zn231 1.949 1_554 S
O232 Zn233 1.923 . S
O232 Zn234 1.950 . S
O232 Zn235 1.945 . S
Zn233 O232 1.923 . S
Zn233 O236 1.933 . S
Zn233 O239 1.941 1_554 S
Zn233 O240 1.965 . S
Zn234 O232 1.950 . S
Zn234 O241 1.938 . S
Zn234 O242 1.906 . S
Zn234 O252 1.953 1_554 S
Zn235 O232 1.945 . S
Zn235 O237 1.932 . S
Zn235 O244 1.977 . S
Zn235 O245 1.910 . S
O236 Zn233 1.933 . S
O236 C247 1.226 . S
O237 Zn235 1.932 . S
O237 C247 1.307 . S
O238 Zn231 1.919 . S
O238 C249 1.253 . S
O239 Zn233 1.941 1_556 S
O239 C249 1.283 . S
O240 Zn233 1.965 . S
O240 C248 1.303 . S
O241 Zn234 1.938 . S
O241 C248 1.247 . S
O242 Zn234 1.906 . S
O242 C250 1.304 . S
O243 Zn231 1.924 . S
O243 C251 1.311 . S
O244 Zn235 1.977 . S
O244 C250 1.272 . S
O245 Zn235 1.910 . S
O245 C251 1.231 1_554 S
C246 O230 1.225 . S
C246 O252 1.298 . S
C247 O236 1.226 . S
C247 O237 1.307 . S
C248 O240 1.303 . S
C248 O241 1.247 . S
C249 O238 1.253 . S
C249 O239 1.283 . S
C250 O242 1.304 . S
C250 O244 1.272 . S
C251 O243 1.311 . S
C251 O245 1.231 1_556 S
O252 Zn234 1.953 1_556 S
O252 C246 1.298 . S
O253 Zn254 1.953 . S
O253 C269 1.225 . S
Zn254 O253 1.953 . S
Zn254 O255 1.949 . S
Zn254 O261 1.919 . S
Zn254 O266 1.924 . S
O255 Zn254 1.949 . S
O255 Zn256 1.923 . S
O255 Zn257 1.950 . S
O255 Zn258 1.945 . S
Zn256 O255 1.923 . S
Zn256 O259 1.933 . S
Zn256 O262 1.941 . S
Zn256 O263 1.965 . S
Zn257 O255 1.950 . S
Zn257 O264 1.938 . S
Zn257 O265 1.906 . S
Zn257 O275 1.953 . S
Zn258 O255 1.945 . S
Zn258 O260 1.932 . S
Zn258 O267 1.977 . S
Zn258 O268 1.910 . S
O259 Zn256 1.933 . S
O259 C270 1.226 . S
O260 Zn258 1.932 . S
O260 C270 1.307 . S
O261 Zn254 1.919 . S
O261 C272 1.253 . S
O262 Zn256 1.941 . S
O262 C272 1.283 . S
O263 Zn256 1.965 . S
O263 C271 1.303 . S
O264 Zn257 1.938 . S
O264 C271 1.247 . S
O265 Zn257 1.906 . S
O265 C273 1.304 . S
O266 Zn254 1.924 . S
O266 C274 1.311 . S
O267 Zn258 1.977 . S
O267 C273 1.272 . S
O268 Zn258 1.910 . S
O268 C274 1.231 . S
C269 O253 1.225 . S
C269 O275 1.298 . S
C270 O259 1.226 . S
C270 O260 1.307 . S
C271 O263 1.303 . S
C271 O264 1.247 . S
C272 O261 1.253 . S
C272 O262 1.283 . S
C273 O265 1.304 . S
C273 O267 1.272 . S
C274 O266 1.311 . S
C274 O268 1.231 . S
O275 Zn257 1.953 . S
O275 C269 1.298 . S
O276 Zn277 1.953 . S
O276 C292 1.225 . S
Zn277 O276 1.953 . S
Zn277 O278 1.949 . S
Zn277 O284 1.919 . S
Zn277 O289 1.924 . S
O278 Zn277 1.949 . S
O278 Zn279 1.923 . S
O278 Zn280 1.950 . S
O278 Zn281 1.945 . S
Zn279 O278 1.923 . S
Zn279 O282 1.933 . S
Zn279 O285 1.941 . S
Zn279 O286 1.965 . S
Zn280 O278 1.950 . S
Zn280 O287 1.938 . S
Zn280 O288 1.906 . S
Zn280 O298 1.953 . S
Zn281 O278 1.945 . S
Zn281 O283 1.932 . S
Zn281 O290 1.977 . S
Zn281 O291 1.910 . S
O282 Zn279 1.933 . S
O282 C293 1.226 . S
O283 Zn281 1.932 . S
O283 C293 1.307 . S
O284 Zn277 1.919 . S
O284 C295 1.253 . S
O285 Zn279 1.941 . S
O285 C295 1.283 . S
O286 Zn279 1.965 . S
O286 C294 1.303 . S
O287 Zn280 1.938 . S
O287 C294 1.247 . S
O288 Zn280 1.906 . S
O288 C296 1.304 . S
O289 Zn277 1.924 . S
O289 C297 1.311 . S
O290 Zn281 1.977 . S
O290 C296 1.272 . S
O291 Zn281 1.910 . S
O291 C297 1.231 . S
C292 O276 1.225 . S
C292 O298 1.298 . S
C293 O282 1.226 . S
C293 O283 1.307 . S
C294 O286 1.303 . S
C294 O287 1.247 . S
C295 O284 1.253 . S
C295 O285 1.283 . S
C296 O288 1.304 . S
C296 O290 1.272 . S
C297 O289 1.311 . S
C297 O291 1.231 . S
O298 Zn280 1.953 . S
O298 C292 1.298 . S
O299 Zn300 1.953 . S
O299 C315 1.225 . S
Zn300 O299 1.953 . S
Zn300 O301 1.949 . S
Zn300 O307 1.919 . S
Zn300 O312 1.924 . S
O301 Zn300 1.949 . S
O301 Zn302 1.923 . S
O301 Zn303 1.950 . S
O301 Zn304 1.945 . S
Zn302 O301 1.923 . S
Zn302 O305 1.933 . S
Zn302 O308 1.941 . S
Zn302 O309 1.965 . S
Zn303 O301 1.950 . S
Zn303 O310 1.938 1_655 S
Zn303 O311 1.906 . S
Zn303 O321 1.953 . S
Zn304 O301 1.945 . S
Zn304 O306 1.932 . S
Zn304 O313 1.977 . S
Zn304 O314 1.910 . S
O305 Zn302 1.933 . S
O305 C316 1.226 . S
O306 Zn304 1.932 . S
O306 C316 1.307 . S
O307 Zn300 1.919 . S
O307 C318 1.253 . S
O308 Zn302 1.941 . S
O308 C318 1.283 . S
O309 Zn302 1.965 . S
O309 C317 1.303 1_655 S
O310 Zn303 1.938 1_455 S
O310 C317 1.247 . S
O311 Zn303 1.906 . S
O311 C319 1.304 . S
O312 Zn300 1.924 . S
O312 C320 1.311 . S
O313 Zn304 1.977 . S
O313 C319 1.272 . S
O314 Zn304 1.910 . S
O314 C320 1.231 . S
C315 O299 1.225 . S
C315 O321 1.298 . S
C316 O305 1.226 . S
C316 O306 1.307 . S
C317 O309 1.303 1_455 S
C317 O310 1.247 . S
C318 O307 1.253 . S
C318 O308 1.283 . S
C319 O311 1.304 . S
C319 O313 1.272 . S
C320 O312 1.311 . S
C320 O314 1.231 . S
O321 Zn303 1.953 . S
O321 C315 1.298 . S
O322 Zn323 1.953 . S
O322 C338 1.225 . S
Zn323 O322 1.953 . S
Zn323 O324 1.949 . S
Zn323 O330 1.919 . S
Zn323 O335 1.924 . S
O324 Zn323 1.949 . S
O324 Zn325 1.923 . S
O324 Zn326 1.950 . S
O324 Zn327 1.945 1_554 S
Zn325 O324 1.923 . S
Zn325 O328 1.933 1_554 S
Zn325 O331 1.941 . S
Zn325 O332 1.965 . S
Zn326 O324 1.950 . S
Zn326 O333 1.938 . S
Zn326 O334 1.906 1_554 S
Zn326 O344 1.953 . S
Zn327 O324 1.945 1_556 S
Zn327 O329 1.932 . S
Zn327 O336 1.977 . S
Zn327 O337 1.910 1_556 S
O328 Zn325 1.933 1_556 S
O328 C339 1.226 . S
O329 Zn327 1.932 . S
O329 C339 1.307 . S
O330 Zn323 1.919 . S
O330 C341 1.253 . S
O331 Zn325 1.941 . S
O331 C341 1.283 . S
O332 Zn325 1.965 . S
O332 C340 1.303 . S
O333 Zn326 1.938 . S
O333 C340 1.247 . S
O334 Zn326 1.906 1_556 S
O334 C342 1.304 . S
O335 Zn323 1.924 . S
O335 C343 1.311 . S
O336 Zn327 1.977 . S
O336 C342 1.272 . S
O337 Zn327 1.910 1_554 S
O337 C343 1.231 . S
C338 O322 1.225 . S
C338 O344 1.298 . S
C339 O328 1.226 . S
C339 O329 1.307 . S
C340 O332 1.303 . S
C340 O333 1.247 . S
C341 O330 1.253 . S
C341 O331 1.283 . S
C342 O334 1.304 . S
C342 O336 1.272 . S
C343 O335 1.311 . S
C343 O337 1.231 . S
O344 Zn326 1.953 . S
O344 C338 1.298 . S
O345 Zn346 1.953 . S
O345 C361 1.225 . S
Zn346 O345 1.953 . S
Zn346 O347 1.949 . S
Zn346 O353 1.919 . S
Zn346 O358 1.924 . S
O347 Zn346 1.949 . S
O347 Zn348 1.923 . S
O347 Zn349 1.950 . S
O347 Zn350 1.945 . S
Zn348 O347 1.923 . S
Zn348 O351 1.933 . S
Zn348 O354 1.941 . S
Zn348 O355 1.965 . S
Zn349 O347 1.950 . S
Zn349 O356 1.938 . S
Zn349 O357 1.906 . S
Zn349 O367 1.953 . S
Zn350 O347 1.945 . S
Zn350 O352 1.932 . S
Zn350 O359 1.977 . S
Zn350 O360 1.910 . S
O351 Zn348 1.933 . S
O351 C362 1.226 . S
O352 Zn350 1.932 . S
O352 C362 1.307 . S
O353 Zn346 1.919 . S
O353 C364 1.253 . S
O354 Zn348 1.941 . S
O354 C364 1.283 . S
O355 Zn348 1.965 . S
O355 C363 1.303 . S
O356 Zn349 1.938 . S
O356 C363 1.247 . S
O357 Zn349 1.906 . S
O357 C365 1.304 . S
O358 Zn346 1.924 . S
O358 C366 1.311 . S
O359 Zn350 1.977 . S
O359 C365 1.272 . S
O360 Zn350 1.910 . S
O360 C366 1.231 . S
C361 O345 1.225 . S
C361 O367 1.298 . S
C362 O351 1.226 . S
C362 O352 1.307 . S
C363 O355 1.303 . S
C363 O356 1.247 . S
C364 O353 1.253 . S
C364 O354 1.283 . S
C365 O357 1.304 . S
C365 O359 1.272 . S
C366 O358 1.311 . S
C366 O360 1.231 . S
O367 Zn349 1.953 . S
O367 C361 1.298 . S
H368 C374 0.930 1_554 S
H369 C377 0.930 . S
H370 C378 0.930 . S
H371 C379 0.930 . S
H372 C382 0.930 . S
H373 C383 0.930 1_554 S
C374 H368 0.930 1_556 S
C374 C375 1.355 . S
C374 C376 1.415 . S
C375 C374 1.355 . S
C375 C377 1.419 . S
C376 C374 1.415 . S
C376 C381 1.425 . S
C376 C383 1.409 . S
C377 H369 0.930 . S
C377 C375 1.419 . S
C377 C378 1.362 . S
C378 H370 0.930 . S
C378 C377 1.362 . S
C378 C381 1.409 . S
C379 H371 0.930 . S
C379 C380 1.355 . S
C379 C381 1.415 . S
C380 C379 1.355 . S
C380 C382 1.419 . S
C381 C376 1.425 . S
C381 C378 1.409 . S
C381 C379 1.415 . S
C382 H372 0.930 . S
C382 C380 1.419 . S
C382 C383 1.362 . S
C383 H373 0.930 1_556 S
C383 C376 1.409 . S
C383 C382 1.362 . S
H384 C390 0.930 . S
H385 C393 0.930 . S
H386 C394 0.930 . S
H387 C395 0.930 . S
H388 C398 0.930 . S
H389 C399 0.930 . S
C390 H384 0.930 . S
C390 C391 1.355 . S
C390 C392 1.415 . S
C391 C390 1.355 . S
C391 C393 1.419 . S
C392 C390 1.415 . S
C392 C397 1.425 . S
C392 C399 1.409 . S
C393 H385 0.930 . S
C393 C391 1.419 . S
C393 C394 1.362 . S
C394 H386 0.930 . S
C394 C393 1.362 . S
C394 C397 1.409 . S
C395 H387 0.930 . S
C395 C396 1.355 . S
C395 C397 1.415 . S
C396 C395 1.355 . S
C396 C398 1.419 . S
C397 C392 1.425 . S
C397 C394 1.409 . S
C397 C395 1.415 . S
C398 H388 0.930 . S
C398 C396 1.419 . S
C398 C399 1.362 . S
C399 H389 0.930 . S
C399 C392 1.409 . S
C399 C398 1.362 . S
H400 C406 0.930 . S
H401 C409 0.930 . S
H402 C410 0.930 . S
H403 C411 0.930 . S
H404 C414 0.930 . S
H405 C415 0.930 . S
C406 H400 0.930 . S
C406 C407 1.355 . S
C406 C408 1.415 . S
C407 C406 1.355 . S
C407 C409 1.419 . S
C408 C406 1.415 . S
C408 C413 1.425 . S
C408 C415 1.409 . S
C409 H401 0.930 . S
C409 C407 1.419 . S
C409 C410 1.362 . S
C410 H402 0.930 . S
C410 C409 1.362 . S
C410 C413 1.409 . S
C411 H403 0.930 . S
C411 C412 1.355 . S
C411 C413 1.415 . S
C412 C411 1.355 . S
C412 C414 1.419 . S
C413 C408 1.425 . S
C413 C410 1.409 . S
C413 C411 1.415 . S
C414 H404 0.930 . S
C414 C412 1.419 . S
C414 C415 1.362 . S
C415 H405 0.930 . S
C415 C408 1.409 . S
C415 C414 1.362 . S
H416 C422 0.930 . S
H417 C425 0.930 . S
H418 C426 0.930 . S
H419 C427 0.930 . S
H420 C430 0.930 . S
H421 C431 0.930 . S
C422 H416 0.930 . S
C422 C423 1.355 . S
C422 C424 1.415 . S
C423 C422 1.355 . S
C423 C425 1.419 . S
C424 C422 1.415 . S
C424 C429 1.425 . S
C424 C431 1.409 . S
C425 H417 0.930 . S
C425 C423 1.419 . S
C425 C426 1.362 . S
C426 H418 0.930 . S
C426 C425 1.362 . S
C426 C429 1.409 . S
C427 H419 0.930 . S
C427 C428 1.355 . S
C427 C429 1.415 . S
C428 C427 1.355 . S
C428 C430 1.419 . S
C429 C424 1.425 . S
C429 C426 1.409 . S
C429 C427 1.415 . S
C430 H420 0.930 . S
C430 C428 1.419 . S
C430 C431 1.362 . S
C431 H421 0.930 . S
C431 C424 1.409 . S
C431 C430 1.362 . S
H432 C438 0.930 . S
H433 C441 0.930 . S
H434 C442 0.930 . S
H435 C443 0.930 . S
H436 C446 0.930 . S
H437 C447 0.930 . S
C438 H432 0.930 . S
C438 C439 1.355 . S
C438 C440 1.415 . S
C439 C438 1.355 . S
C439 C441 1.419 . S
C440 C438 1.415 . S
C440 C445 1.425 . S
C440 C447 1.409 . S
C441 H433 0.930 . S
C441 C439 1.419 . S
C441 C442 1.362 . S
C442 H434 0.930 . S
C442 C441 1.362 . S
C442 C445 1.409 . S
C443 H435 0.930 . S
C443 C444 1.355 . S
C443 C445 1.415 . S
C444 C443 1.355 . S
C444 C446 1.419 . S
C445 C440 1.425 . S
C445 C442 1.409 . S
C445 C443 1.415 . S
C446 H436 0.930 . S
C446 C444 1.419 . S
C446 C447 1.362 . S
C447 H437 0.930 . S
C447 C440 1.409 . S
C447 C446 1.362 . S
H448 C454 0.930 . S
H449 C457 0.930 . S
H450 C458 0.930 . S
H451 C459 0.930 . S
H452 C462 0.930 . S
H453 C463 0.930 . S
C454 H448 0.930 . S
C454 C455 1.355 . S
C454 C456 1.415 . S
C455 C454 1.355 . S
C455 C457 1.419 . S
C456 C454 1.415 . S
C456 C461 1.425 . S
C456 C463 1.409 . S
C457 H449 0.930 . S
C457 C455 1.419 . S
C457 C458 1.362 . S
C458 H450 0.930 . S
C458 C457 1.362 . S
C458 C461 1.409 . S
C459 H451 0.930 . S
C459 C460 1.355 . S
C459 C461 1.415 . S
C460 C459 1.355 . S
C460 C462 1.419 . S
C461 C456 1.425 . S
C461 C458 1.409 . S
C461 C459 1.415 . S
C462 H452 0.930 . S
C462 C460 1.419 . S
C462 C463 1.362 . S
C463 H453 0.930 . S
C463 C456 1.409 . S
C463 C462 1.362 . S
H464 C470 0.930 . S
H465 C473 0.930 . S
H466 C474 0.930 . S
H467 C475 0.930 . S
H468 C478 0.930 . S
H469 C479 0.930 . S
C470 H464 0.930 . S
C470 C471 1.355 . S
C470 C472 1.415 . S
C471 C470 1.355 . S
C471 C473 1.419 . S
C472 C470 1.415 . S
C472 C477 1.425 . S
C472 C479 1.409 . S
C473 H465 0.930 . S
C473 C471 1.419 . S
C473 C474 1.362 . S
C474 H466 0.930 . S
C474 C473 1.362 . S
C474 C477 1.409 . S
C475 H467 0.930 . S
C475 C476 1.355 . S
C475 C477 1.415 . S
C476 C475 1.355 . S
C476 C478 1.419 . S
C477 C472 1.425 . S
C477 C474 1.409 . S
C477 C475 1.415 . S
C478 H468 0.930 . S
C478 C476 1.419 . S
C478 C479 1.362 . S
C479 H469 0.930 . S
C479 C472 1.409 . S
C479 C478 1.362 . S
H480 C486 0.930 . S
H481 C489 0.930 . S
H482 C490 0.930 . S
H483 C491 0.930 . S
H484 C494 0.930 . S
H485 C495 0.930 . S
C486 H480 0.930 . S
C486 C487 1.355 . S
C486 C488 1.415 . S
C487 C486 1.355 . S
C487 C489 1.419 . S
C488 C486 1.415 . S
C488 C493 1.425 . S
C488 C495 1.409 . S
C489 H481 0.930 . S
C489 C487 1.419 . S
C489 C490 1.362 . S
C490 H482 0.930 . S
C490 C489 1.362 . S
C490 C493 1.409 . S
C491 H483 0.930 . S
C491 C492 1.355 . S
C491 C493 1.415 . S
C492 C491 1.355 . S
C492 C494 1.419 . S
C493 C488 1.425 . S
C493 C490 1.409 . S
C493 C491 1.415 . S
C494 H484 0.930 . S
C494 C492 1.419 . S
C494 C495 1.362 . S
C495 H485 0.930 . S
C495 C488 1.409 . S
C495 C494 1.362 . S
H496 C502 0.930 . S
H497 C505 0.930 . S
H498 C506 0.930 . S
H499 C507 0.930 . S
H500 C510 0.930 . S
H501 C511 0.930 . S
C502 H496 0.930 . S
C502 C503 1.355 . S
C502 C504 1.415 . S
C503 C502 1.355 . S
C503 C505 1.419 . S
C504 C502 1.415 . S
C504 C509 1.425 . S
C504 C511 1.409 . S
C505 H497 0.930 . S
C505 C503 1.419 . S
C505 C506 1.362 . S
C506 H498 0.930 . S
C506 C505 1.362 . S
C506 C509 1.409 . S
C507 H499 0.930 . S
C507 C508 1.355 . S
C507 C509 1.415 . S
C508 C507 1.355 . S
C508 C510 1.419 . S
C509 C504 1.425 . S
C509 C506 1.409 . S
C509 C507 1.415 . S
C510 H500 0.930 . S
C510 C508 1.419 . S
C510 C511 1.362 . S
C511 H501 0.930 . S
C511 C504 1.409 . S
C511 C510 1.362 . S
H512 C518 0.930 . S
H513 C521 0.930 . S
H514 C522 0.930 . S
H515 C523 0.930 . S
H516 C526 0.930 . S
H517 C527 0.930 . S
C518 H512 0.930 . S
C518 C519 1.355 . S
C518 C520 1.415 . S
C519 C518 1.355 . S
C519 C521 1.419 . S
C520 C518 1.415 . S
C520 C525 1.425 . S
C520 C527 1.409 . S
C521 H513 0.930 . S
C521 C519 1.419 . S
C521 C522 1.362 . S
C522 H514 0.930 . S
C522 C521 1.362 . S
C522 C525 1.409 . S
C523 H515 0.930 . S
C523 C524 1.355 . S
C523 C525 1.415 . S
C524 C523 1.355 . S
C524 C526 1.419 . S
C525 C520 1.425 . S
C525 C522 1.409 . S
C525 C523 1.415 . S
C526 H516 0.930 . S
C526 C524 1.419 . S
C526 C527 1.362 . S
C527 H517 0.930 . S
C527 C520 1.409 . S
C527 C526 1.362 . S
H528 C534 0.930 . S
H529 C537 0.930 . S
H530 C538 0.930 1_554 S
H531 C539 0.930 1_554 S
H532 C542 0.930 . S
H533 C543 0.930 . S
C534 H528 0.930 . S
C534 C535 1.355 . S
C534 C536 1.415 . S
C535 C534 1.355 . S
C535 C537 1.419 . S
C536 C534 1.415 . S
C536 C541 1.425 . S
C536 C543 1.409 . S
C537 H529 0.930 . S
C537 C535 1.419 . S
C537 C538 1.362 . S
C538 H530 0.930 1_556 S
C538 C537 1.362 . S
C538 C541 1.409 . S
C539 H531 0.930 1_556 S
C539 C540 1.355 . S
C539 C541 1.415 . S
C540 C539 1.355 . S
C540 C542 1.419 . S
C541 C536 1.425 . S
C541 C538 1.409 . S
C541 C539 1.415 . S
C542 H532 0.930 . S
C542 C540 1.419 . S
C542 C543 1.362 . S
C543 H533 0.930 . S
C543 C536 1.409 . S
C543 C542 1.362 . S
H544 C550 0.930 . S
H545 C553 0.930 . S
H546 C554 0.930 . S
H547 C555 0.930 . S
H548 C558 0.930 . S
H549 C559 0.930 . S
C550 H544 0.930 . S
C550 C551 1.355 . S
C550 C552 1.415 . S
C551 C550 1.355 . S
C551 C553 1.419 . S
C552 C550 1.415 . S
C552 C557 1.425 . S
C552 C559 1.409 . S
C553 H545 0.930 . S
C553 C551 1.419 . S
C553 C554 1.362 . S
C554 H546 0.930 . S
C554 C553 1.362 . S
C554 C557 1.409 . S
C555 H547 0.930 . S
C555 C556 1.355 . S
C555 C557 1.415 . S
C556 C555 1.355 . S
C556 C558 1.419 . S
C557 C552 1.425 . S
C557 C554 1.409 . S
C557 C555 1.415 . S
C558 H548 0.930 . S
C558 C556 1.419 . S
C558 C559 1.362 . S
C559 H549 0.930 . S
C559 C552 1.409 . S
C559 C558 1.362 . S
H560 C566 0.930 . S
H561 C569 0.930 . S
H562 C570 0.930 . S
H563 C571 0.930 . S
H564 C574 0.930 . S
H565 C575 0.930 . S
C566 H560 0.930 . S
C566 C567 1.355 . S
C566 C568 1.415 . S
C567 C566 1.355 . S
C567 C569 1.419 . S
C568 C566 1.415 . S
C568 C573 1.425 . S
C568 C575 1.409 . S
C569 H561 0.930 . S
C569 C567 1.419 . S
C569 C570 1.362 . S
C570 H562 0.930 . S
C570 C569 1.362 . S
C570 C573 1.409 . S
C571 H563 0.930 . S
C571 C572 1.355 . S
C571 C573 1.415 . S
C572 C571 1.355 . S
C572 C574 1.419 . S
C573 C568 1.425 . S
C573 C570 1.409 . S
C573 C571 1.415 . S
C574 H564 0.930 . S
C574 C572 1.419 . S
C574 C575 1.362 . S
C575 H565 0.930 . S
C575 C568 1.409 . S
C575 C574 1.362 . S
H576 C582 0.930 . S
H577 C585 0.930 . S
H578 C586 0.930 . S
H579 C587 0.930 . S
H580 C590 0.930 . S
H581 C591 0.930 . S
C582 H576 0.930 . S
C582 C583 1.355 . S
C582 C584 1.415 . S
C583 C582 1.355 . S
C583 C585 1.419 . S
C584 C582 1.415 . S
C584 C589 1.425 . S
C584 C591 1.409 . S
C585 H577 0.930 . S
C585 C583 1.419 . S
C585 C586 1.362 . S
C586 H578 0.930 . S
C586 C585 1.362 . S
C586 C589 1.409 . S
C587 H579 0.930 . S
C587 C588 1.355 . S
C587 C589 1.415 . S
C588 C587 1.355 . S
C588 C590 1.419 . S
C589 C584 1.425 . S
C589 C586 1.409 . S
C589 C587 1.415 . S
C590 H580 0.930 . S
C590 C588 1.419 . S
C590 C591 1.362 . S
C591 H581 0.930 . S
C591 C584 1.409 . S
C591 C590 1.362 . S
H592 C598 0.930 . S
H593 C601 0.930 . S
H594 C602 0.930 . S
H595 C603 0.930 . S
H596 C606 0.930 . S
H597 C607 0.930 . S
C598 H592 0.930 . S
C598 C599 1.355 . S
C598 C600 1.415 . S
C599 C598 1.355 . S
C599 C601 1.419 . S
C600 C598 1.415 . S
C600 C605 1.425 . S
C600 C607 1.409 . S
C601 H593 0.930 . S
C601 C599 1.419 . S
C601 C602 1.362 . S
C602 H594 0.930 . S
C602 C601 1.362 . S
C602 C605 1.409 . S
C603 H595 0.930 . S
C603 C604 1.355 . S
C603 C605 1.415 . S
C604 C603 1.355 . S
C604 C606 1.419 . S
C605 C600 1.425 . S
C605 C602 1.409 . S
C605 C603 1.415 . S
C606 H596 0.930 . S
C606 C604 1.419 . S
C606 C607 1.362 . S
C607 H597 0.930 . S
C607 C600 1.409 . S
C607 C606 1.362 . S
H608 C614 0.930 . S
H609 C617 0.930 . S
H610 C618 0.930 . S
H611 C619 0.930 . S
H612 C622 0.930 . S
H613 C623 0.930 . S
C614 H608 0.930 . S
C614 C615 1.355 . S
C614 C616 1.415 . S
C615 C614 1.355 . S
C615 C617 1.419 . S
C616 C614 1.415 . S
C616 C621 1.425 . S
C616 C623 1.409 . S
C617 H609 0.930 . S
C617 C615 1.419 . S
C617 C618 1.362 . S
C618 H610 0.930 . S
C618 C617 1.362 . S
C618 C621 1.409 . S
C619 H611 0.930 . S
C619 C620 1.355 . S
C619 C621 1.415 . S
C620 C619 1.355 . S
C620 C622 1.419 . S
C621 C616 1.425 . S
C621 C618 1.409 . S
C621 C619 1.415 . S
C622 H612 0.930 . S
C622 C620 1.419 . S
C622 C623 1.362 . S
C623 H613 0.930 . S
C623 C616 1.409 . S
C623 C622 1.362 . S
H624 C630 0.930 . S
H625 C633 0.930 . S
H626 C634 0.930 . S
H627 C635 0.930 . S
H628 C638 0.930 . S
H629 C639 0.930 . S
C630 H624 0.930 . S
C630 C631 1.355 . S
C630 C632 1.415 . S
C631 C630 1.355 . S
C631 C633 1.419 . S
C632 C630 1.415 . S
C632 C637 1.425 . S
C632 C639 1.409 . S
C633 H625 0.930 . S
C633 C631 1.419 . S
C633 C634 1.362 . S
C634 H626 0.930 . S
C634 C633 1.362 . S
C634 C637 1.409 . S
C635 H627 0.930 . S
C635 C636 1.355 . S
C635 C637 1.415 . S
C636 C635 1.355 . S
C636 C638 1.419 . S
C637 C632 1.425 . S
C637 C634 1.409 . S
C637 C635 1.415 . S
C638 H628 0.930 . S
C638 C636 1.419 . S
C638 C639 1.362 . S
C639 H629 0.930 . S
C639 C632 1.409 . S
C639 C638 1.362 . S
H640 C646 0.930 . S
H641 C649 0.930 . S
H642 C650 0.930 . S
H643 C651 0.930 . S
H644 C654 0.930 . S
H645 C655 0.930 . S
C646 H640 0.930 . S
C646 C647 1.355 . S
C646 C648 1.415 . S
C647 C646 1.355 . S
C647 C649 1.419 . S
C648 C646 1.415 . S
C648 C653 1.425 . S
C648 C655 1.409 . S
C649 H641 0.930 . S
C649 C647 1.419 . S
C649 C650 1.362 . S
C650 H642 0.930 . S
C650 C649 1.362 . S
C650 C653 1.409 . S
C651 H643 0.930 . S
C651 C652 1.355 . S
C651 C653 1.415 . S
C652 C651 1.355 . S
C652 C654 1.419 . S
C653 C648 1.425 . S
C653 C650 1.409 . S
C653 C651 1.415 . S
C654 H644 0.930 . S
C654 C652 1.419 . S
C654 C655 1.362 . S
C655 H645 0.930 . S
C655 C648 1.409 . S
C655 C654 1.362 . S
H656 C662 0.930 . S
H657 C665 0.930 . S
H658 C666 0.930 . S
H659 C667 0.930 . S
H660 C670 0.930 . S
H661 C671 0.930 . S
C662 H656 0.930 . S
C662 C663 1.355 . S
C662 C664 1.415 . S
C663 C662 1.355 . S
C663 C665 1.419 . S
C664 C662 1.415 . S
C664 C669 1.425 . S
C664 C671 1.409 . S
C665 H657 0.930 . S
C665 C663 1.419 . S
C665 C666 1.362 . S
C666 H658 0.930 . S
C666 C665 1.362 . S
C666 C669 1.409 . S
C667 H659 0.930 . S
C667 C668 1.355 . S
C667 C669 1.415 . S
C668 C667 1.355 . S
C668 C670 1.419 . S
C669 C664 1.425 . S
C669 C666 1.409 . S
C669 C667 1.415 . S
C670 H660 0.930 . S
C670 C668 1.419 . S
C670 C671 1.362 . S
C671 H661 0.930 . S
C671 C664 1.409 . S
C671 C670 1.362 . S
H672 C678 0.930 . S
H673 C681 0.930 . S
H674 C682 0.930 . S
H675 C683 0.930 . S
H676 C686 0.930 . S
H677 C687 0.930 . S
C678 H672 0.930 . S
C678 C679 1.355 . S
C678 C680 1.415 . S
C679 C678 1.355 . S
C679 C681 1.419 . S
C680 C678 1.415 . S
C680 C685 1.425 . S
C680 C687 1.409 . S
C681 H673 0.930 . S
C681 C679 1.419 . S
C681 C682 1.362 . S
C682 H674 0.930 . S
C682 C681 1.362 . S
C682 C685 1.409 . S
C683 H675 0.930 . S
C683 C684 1.355 . S
C683 C685 1.415 . S
C684 C683 1.355 . S
C684 C686 1.419 . S
C685 C680 1.425 . S
C685 C682 1.409 . S
C685 C683 1.415 . S
C686 H676 0.930 . S
C686 C684 1.419 . S
C686 C687 1.362 . S
C687 H677 0.930 . S
C687 C680 1.409 . S
C687 C686 1.362 . S
H688 C694 0.930 . S
H689 C697 0.930 . S
H690 C698 0.930 . S
H691 C699 0.930 . S
H692 C702 0.930 . S
H693 C703 0.930 . S
C694 H688 0.930 . S
C694 C695 1.355 . S
C694 C696 1.415 . S
C695 C694 1.355 . S
C695 C697 1.419 . S
C696 C694 1.415 . S
C696 C701 1.425 . S
C696 C703 1.409 . S
C697 H689 0.930 . S
C697 C695 1.419 . S
C697 C698 1.362 . S
C698 H690 0.930 . S
C698 C697 1.362 . S
C698 C701 1.409 . S
C699 H691 0.930 . S
C699 C700 1.355 . S
C699 C701 1.415 . S
C700 C699 1.355 . S
C700 C702 1.419 . S
C701 C696 1.425 . S
C701 C698 1.409 . S
C701 C699 1.415 . S
C702 H692 0.930 . S
C702 C700 1.419 . S
C702 C703 1.362 . S
C703 H693 0.930 . S
C703 C696 1.409 . S
C703 C702 1.362 . S
H704 C710 0.930 . S
H705 C713 0.930 . S
H706 C714 0.930 . S
H707 C715 0.930 . S
H708 C718 0.930 . S
H709 C719 0.930 . S
C710 H704 0.930 . S
C710 C711 1.348 1_556 S
C710 C712 1.415 . S
C711 C710 1.348 1_554 S
C711 C713 1.424 . S
C712 C710 1.415 . S
C712 C717 1.425 . S
C712 C719 1.409 . S
C713 H705 0.930 . S
C713 C711 1.424 . S
C713 C714 1.362 . S
C714 H706 0.930 . S
C714 C713 1.362 . S
C714 C717 1.409 1_554 S
C715 H707 0.930 . S
C715 C716 1.355 . S
C715 C717 1.415 . S
C716 C715 1.355 . S
C716 C718 1.419 . S
C717 C712 1.425 . S
C717 C714 1.409 1_556 S
C717 C715 1.415 . S
C718 H708 0.930 . S
C718 C716 1.419 . S
C718 C719 1.362 . S
C719 H709 0.930 . S
C719 C712 1.409 . S
C719 C718 1.362 . S
H720 C726 0.930 . S
H721 C729 0.930 . S
H722 C730 0.930 . S
H723 C731 0.930 . S
H724 C734 0.930 . S
H725 C735 0.930 . S
C726 H720 0.930 . S
C726 C727 1.355 . S
C726 C728 1.415 . S
C727 C726 1.355 . S
C727 C729 1.419 . S
C728 C726 1.415 . S
C728 C733 1.425 . S
C728 C735 1.409 . S
C729 H721 0.930 . S
C729 C727 1.419 . S
C729 C730 1.362 . S
C730 H722 0.930 . S
C730 C729 1.362 . S
C730 C733 1.409 . S
C731 H723 0.930 . S
C731 C732 1.355 . S
C731 C733 1.415 . S
C732 C731 1.355 . S
C732 C734 1.419 . S
C733 C728 1.425 . S
C733 C730 1.409 . S
C733 C731 1.415 . S
C734 H724 0.930 . S
C734 C732 1.419 . S
C734 C735 1.362 . S
C735 H725 0.930 . S
C735 C728 1.409 . S
C735 C734 1.362 . S
H736 C742 0.930 . S
H737 C745 0.930 . S
H738 C746 0.930 . S
H739 C747 0.930 . S
H740 C750 0.930 . S
H741 C751 0.930 . S
C742 H736 0.930 . S
C742 C743 1.355 . S
C742 C744 1.415 . S
C743 C742 1.355 . S
C743 C745 1.419 . S
C744 C742 1.415 . S
C744 C749 1.425 . S
C744 C751 1.409 . S
C745 H737 0.930 . S
C745 C743 1.419 . S
C745 C746 1.362 . S
C746 H738 0.930 . S
C746 C745 1.362 . S
C746 C749 1.409 . S
C747 H739 0.930 . S
C747 C748 1.355 . S
C747 C749 1.415 . S
C748 C747 1.355 . S
C748 C750 1.419 . S
C749 C744 1.425 . S
C749 C746 1.409 . S
C749 C747 1.415 . S
C750 H740 0.930 . S
C750 C748 1.419 . S
C750 C751 1.362 . S
C751 H741 0.930 . S
C751 C744 1.409 . S
C751 C750 1.362 . S
H752 C758 0.930 . S
H753 C761 0.930 . S
H754 C762 0.930 . S
H755 C763 0.930 . S
H756 C766 0.930 . S
H757 C767 0.930 . S
C758 H752 0.930 . S
C758 C759 1.355 . S
C758 C760 1.415 . S
C759 C758 1.355 . S
C759 C761 1.419 . S
C760 C758 1.415 . S
C760 C765 1.425 . S
C760 C767 1.409 . S
C761 H753 0.930 . S
C761 C759 1.419 . S
C761 C762 1.362 . S
C762 H754 0.930 . S
C762 C761 1.362 . S
C762 C765 1.409 . S
C763 H755 0.930 . S
C763 C764 1.355 . S
C763 C765 1.415 . S
C764 C763 1.355 . S
C764 C766 1.419 . S
C765 C760 1.425 . S
C765 C762 1.409 . S
C765 C763 1.415 . S
C766 H756 0.930 . S
C766 C764 1.419 . S
C766 C767 1.362 . S
C767 H757 0.930 . S
C767 C760 1.409 . S
C767 C766 1.362 . S
H768 C774 0.930 . S
H769 C777 0.930 . S
H770 C778 0.930 . S
H771 C779 0.930 . S
H772 C782 0.930 . S
H773 C783 0.930 . S
C774 H768 0.930 . S
C774 C775 1.355 . S
C774 C776 1.415 . S
C775 C774 1.355 . S
C775 C777 1.419 . S
C776 C774 1.415 . S
C776 C781 1.425 . S
C776 C783 1.409 . S
C777 H769 0.930 . S
C777 C775 1.419 . S
C777 C778 1.362 . S
C778 H770 0.930 . S
C778 C777 1.362 . S
C778 C781 1.409 . S
C779 H771 0.930 . S
C779 C780 1.355 . S
C779 C781 1.415 . S
C780 C779 1.355 . S
C780 C782 1.419 . S
C781 C776 1.425 . S
C781 C778 1.409 . S
C781 C779 1.415 . S
C782 H772 0.930 . S
C782 C780 1.419 . S
C782 C783 1.362 . S
C783 H773 0.930 . S
C783 C776 1.409 . S
C783 C782 1.362 . S
H784 C790 0.930 . S
H785 C793 0.930 . S
H786 C794 0.930 . S
H787 C795 0.930 . S
H788 C798 0.930 . S
H789 C799 0.930 . S
C790 H784 0.930 . S
C790 C791 1.355 . S
C790 C792 1.415 . S
C791 C790 1.355 . S
C791 C793 1.419 . S
C792 C790 1.415 . S
C792 C797 1.425 . S
C792 C799 1.409 . S
C793 H785 0.930 . S
C793 C791 1.419 . S
C793 C794 1.362 . S
C794 H786 0.930 . S
C794 C793 1.362 . S
C794 C797 1.409 . S
C795 H787 0.930 . S
C795 C796 1.355 . S
C795 C797 1.415 . S
C796 C795 1.355 . S
C796 C798 1.419 . S
C797 C792 1.425 . S
C797 C794 1.409 . S
C797 C795 1.415 . S
C798 H788 0.930 . S
C798 C796 1.419 . S
C798 C799 1.362 . S
C799 H789 0.930 . S
C799 C792 1.409 . S
C799 C798 1.362 . S
H800 C806 0.930 . S
H801 C809 0.930 1_556 S
H802 C810 0.930 . S
H803 C811 0.930 . S
H804 C814 0.930 . S
H805 C815 0.930 . S
C806 H800 0.930 . S
C806 C807 1.355 . S
C806 C808 1.415 . S
C807 C806 1.355 . S
C807 C809 1.419 . S
C808 C806 1.415 . S
C808 C813 1.425 . S
C808 C815 1.409 . S
C809 H801 0.930 1_554 S
C809 C807 1.419 . S
C809 C810 1.362 . S
C810 H802 0.930 . S
C810 C809 1.362 . S
C810 C813 1.409 . S
C811 H803 0.930 . S
C811 C812 1.355 . S
C811 C813 1.415 . S
C812 C811 1.355 . S
C812 C814 1.419 . S
C813 C808 1.425 . S
C813 C810 1.409 . S
C813 C811 1.415 . S
C814 H804 0.930 . S
C814 C812 1.419 . S
C814 C815 1.362 . S
C815 H805 0.930 . S
C815 C808 1.409 . S
C815 C814 1.362 . S
H816 C822 0.930 . S
H817 C825 0.930 . S
H818 C826 0.930 . S
H819 C827 0.930 . S
H820 C830 0.930 . S
H821 C831 0.930 . S
C822 H816 0.930 . S
C822 C823 1.355 . S
C822 C824 1.415 . S
C823 C822 1.355 . S
C823 C825 1.419 . S
C824 C822 1.415 . S
C824 C829 1.425 . S
C824 C831 1.409 . S
C825 H817 0.930 . S
C825 C823 1.419 . S
C825 C826 1.362 . S
C826 H818 0.930 . S
C826 C825 1.362 . S
C826 C829 1.409 . S
C827 H819 0.930 . S
C827 C828 1.355 . S
C827 C829 1.415 . S
C828 C827 1.355 . S
C828 C830 1.419 . S
C829 C824 1.425 . S
C829 C826 1.409 . S
C829 C827 1.415 . S
C830 H820 0.930 . S
C830 C828 1.419 . S
C830 C831 1.362 . S
C831 H821 0.930 . S
C831 C824 1.409 . S
C831 C830 1.362 . S
H832 C838 0.930 . S
H833 C841 0.930 . S
H834 C842 0.930 . S
H835 C843 0.930 . S
H836 C846 0.930 . S
H837 C847 0.930 . S
C838 H832 0.930 . S
C838 C839 1.355 . S
C838 C840 1.415 . S
C839 C838 1.355 . S
C839 C841 1.419 . S
C840 C838 1.415 . S
C840 C845 1.425 . S
C840 C847 1.409 . S
C841 H833 0.930 . S
C841 C839 1.419 . S
C841 C842 1.362 . S
C842 H834 0.930 . S
C842 C841 1.362 . S
C842 C845 1.409 . S
C843 H835 0.930 . S
C843 C844 1.355 . S
C843 C845 1.415 . S
C844 C843 1.355 . S
C844 C846 1.419 . S
C845 C840 1.425 . S
C845 C842 1.409 . S
C845 C843 1.415 . S
C846 H836 0.930 . S
C846 C844 1.419 . S
C846 C847 1.362 . S
C847 H837 0.930 . S
C847 C840 1.409 . S
C847 C846 1.362 . S
H848 C854 0.930 . S
H849 C857 0.930 . S
H850 C858 0.930 . S
H851 C859 0.930 . S
H852 C862 0.930 . S
H853 C863 0.930 . S
C854 H848 0.930 . S
C854 C855 1.355 . S
C854 C856 1.415 . S
C855 C854 1.355 . S
C855 C857 1.419 . S
C856 C854 1.415 . S
C856 C861 1.425 . S
C856 C863 1.409 . S
C857 H849 0.930 . S
C857 C855 1.419 . S
C857 C858 1.362 . S
C858 H850 0.930 . S
C858 C857 1.362 . S
C858 C861 1.409 . S
C859 H851 0.930 . S
C859 C860 1.355 . S
C859 C861 1.415 . S
C860 C859 1.355 . S
C860 C862 1.419 . S
C861 C856 1.425 . S
C861 C858 1.409 . S
C861 C859 1.415 . S
C862 H852 0.930 . S
C862 C860 1.419 . S
C862 C863 1.362 . S
C863 H853 0.930 . S
C863 C856 1.409 . S
C863 C862 1.362 . S
H864 C870 0.930 . S
H865 C873 0.930 . S
H866 C874 0.930 1_554 S
H867 C875 0.930 . S
H868 C878 0.930 . S
H869 C879 0.930 . S
C870 H864 0.930 . S
C870 C871 1.355 . S
C870 C872 1.415 . S
C871 C870 1.355 . S
C871 C873 1.419 . S
C872 C870 1.415 . S
C872 C877 1.425 . S
C872 C879 1.409 . S
C873 H865 0.930 . S
C873 C871 1.419 . S
C873 C874 1.362 . S
C874 H866 0.930 1_556 S
C874 C873 1.362 . S
C874 C877 1.409 . S
C875 H867 0.930 . S
C875 C876 1.355 1_554 S
C875 C877 1.415 1_554 S
C876 C875 1.355 1_556 S
C876 C878 1.419 . S
C877 C872 1.425 . S
C877 C874 1.409 . S
C877 C875 1.415 1_556 S
C878 H868 0.930 . S
C878 C876 1.419 . S
C878 C879 1.362 . S
C879 H869 0.930 . S
C879 C872 1.409 . S
C879 C878 1.362 . S
H880 C886 0.930 . S
H881 C889 0.930 . S
H882 C890 0.930 . S
H883 C891 0.930 . S
H884 C894 0.930 . S
H885 C895 0.930 . S
C886 H880 0.930 . S
C886 C887 1.355 . S
C886 C888 1.415 . S
C887 C886 1.355 . S
C887 C889 1.419 . S
C888 C886 1.415 . S
C888 C893 1.425 . S
C888 C895 1.409 . S
C889 H881 0.930 . S
C889 C887 1.419 . S
C889 C890 1.362 . S
C890 H882 0.930 . S
C890 C889 1.362 . S
C890 C893 1.409 . S
C891 H883 0.930 . S
C891 C892 1.355 . S
C891 C893 1.415 . S
C892 C891 1.355 . S
C892 C894 1.419 . S
C893 C888 1.425 . S
C893 C890 1.409 . S
C893 C891 1.415 . S
C894 H884 0.930 . S
C894 C892 1.419 . S
C894 C895 1.362 . S
C895 H885 0.930 . S
C895 C888 1.409 . S
C895 C894 1.362 . S
H896 C902 0.930 . S
H897 C905 0.930 . S
H898 C906 0.930 . S
H899 C907 0.930 . S
H900 C910 0.930 . S
H901 C911 0.930 . S
C902 H896 0.930 . S
C902 C903 1.355 . S
C902 C904 1.415 . S
C903 C902 1.355 . S
C903 C905 1.419 . S
C904 C902 1.415 . S
C904 C909 1.425 . S
C904 C911 1.409 . S
C905 H897 0.930 . S
C905 C903 1.419 . S
C905 C906 1.362 . S
C906 H898 0.930 . S
C906 C905 1.362 . S
C906 C909 1.409 . S
C907 H899 0.930 . S
C907 C908 1.355 . S
C907 C909 1.415 . S
C908 C907 1.355 . S
C908 C910 1.419 . S
C909 C904 1.425 . S
C909 C906 1.409 . S
C909 C907 1.415 . S
C910 H900 0.930 . S
C910 C908 1.419 . S
C910 C911 1.362 . S
C911 H901 0.930 . S
C911 C904 1.409 . S
C911 C910 1.362 . S
H912 C918 0.930 . S
H913 C921 0.930 . S
H914 C922 0.930 . S
H915 C923 0.930 . S
H916 C926 0.930 . S
H917 C927 0.930 . S
C918 H912 0.930 . S
C918 C919 1.355 . S
C918 C920 1.415 . S
C919 C918 1.355 . S
C919 C921 1.419 . S
C920 C918 1.415 . S
C920 C925 1.425 . S
C920 C927 1.409 . S
C921 H913 0.930 . S
C921 C919 1.419 . S
C921 C922 1.362 . S
C922 H914 0.930 . S
C922 C921 1.362 . S
C922 C925 1.409 . S
C923 H915 0.930 . S
C923 C924 1.355 . S
C923 C925 1.415 . S
C924 C923 1.355 . S
C924 C926 1.419 . S
C925 C920 1.425 . S
C925 C922 1.409 . S
C925 C923 1.415 . S
C926 H916 0.930 . S
C926 C924 1.419 . S
C926 C927 1.362 . S
C927 H917 0.930 . S
C927 C920 1.409 . S
C927 C926 1.362 . S
H928 C934 0.930 . S
H929 C937 0.930 . S
H930 C938 0.930 . S
H931 C939 0.930 . S
H932 C942 0.930 . S
H933 C943 0.930 . S
C934 H928 0.930 . S
C934 C935 1.355 . S
C934 C936 1.415 . S
C935 C934 1.355 . S
C935 C937 1.419 . S
C936 C934 1.415 . S
C936 C941 1.425 1_455 S
C936 C943 1.409 1_554 S
C937 H929 0.930 . S
C937 C935 1.419 . S
C937 C938 1.362 1_455 S
C938 H930 0.930 . S
C938 C937 1.362 1_655 S
C938 C941 1.409 . S
C939 H931 0.930 . S
C939 C940 1.355 . S
C939 C941 1.415 1_556 S
C940 C939 1.355 . S
C940 C942 1.419 . S
C941 C936 1.425 1_655 S
C941 C938 1.409 . S
C941 C939 1.415 1_554 S
C942 H932 0.930 . S
C942 C940 1.419 . S
C942 C943 1.362 1_655 S
C943 H933 0.930 . S
C943 C936 1.409 1_556 S
C943 C942 1.362 1_455 S
H944 C950 0.930 . S
H945 C953 0.930 . S
H946 C954 0.930 . S
H947 C955 0.930 . S
H948 C958 0.930 . S
H949 C959 0.930 . S
C950 H944 0.930 . S
C950 C951 1.355 . S
C950 C952 1.415 . S
C951 C950 1.355 . S
C951 C953 1.419 . S
C952 C950 1.415 . S
C952 C957 1.425 . S
C952 C959 1.409 . S
C953 H945 0.930 . S
C953 C951 1.419 . S
C953 C954 1.362 . S
C954 H946 0.930 . S
C954 C953 1.362 . S
C954 C957 1.409 . S
C955 H947 0.930 . S
C955 C956 1.355 . S
C955 C957 1.415 . S
C956 C955 1.355 . S
C956 C958 1.419 . S
C957 C952 1.425 . S
C957 C954 1.409 . S
C957 C955 1.415 . S
C958 H948 0.930 . S
C958 C956 1.419 . S
C958 C959 1.362 . S
C959 H949 0.930 . S
C959 C952 1.409 . S
C959 C958 1.362 . S
H960 C966 0.930 . S
H961 C969 0.930 . S
H962 C970 0.930 . S
H963 C971 0.930 . S
H964 C974 0.930 . S
H965 C975 0.930 . S
C966 H960 0.930 . S
C966 C967 1.355 . S
C966 C968 1.415 . S
C967 C966 1.355 . S
C967 C969 1.419 . S
C968 C966 1.415 . S
C968 C973 1.425 . S
C968 C975 1.409 . S
C969 H961 0.930 . S
C969 C967 1.419 . S
C969 C970 1.362 . S
C970 H962 0.930 . S
C970 C969 1.362 . S
C970 C973 1.409 . S
C971 H963 0.930 . S
C971 C972 1.355 . S
C971 C973 1.415 . S
C972 C971 1.355 . S
C972 C974 1.419 . S
C973 C968 1.425 . S
C973 C970 1.409 . S
C973 C971 1.415 . S
C974 H964 0.930 . S
C974 C972 1.419 . S
C974 C975 1.362 . S
C975 H965 0.930 . S
C975 C968 1.409 . S
C975 C974 1.362 . S
H976 C982 0.930 1_655 S
H977 C985 0.930 . S
H978 C986 0.930 . S
H979 C987 0.930 1_455 S
H980 C990 0.930 . S
H981 C991 0.930 . S
C982 H976 0.930 1_455 S
C982 C983 1.355 1_565 S
C982 C984 1.415 1_456 S
C983 C982 1.355 1_545 S
C983 C985 1.419 . S
C984 C982 1.415 1_654 S
C984 C989 1.425 1_665 S
C984 C991 1.409 . S
C985 H977 0.930 . S
C985 C983 1.419 . S
C985 C986 1.362 1_556 S
C986 H978 0.930 . S
C986 C985 1.362 1_554 S
C986 C989 1.409 . S
C987 H979 0.930 1_655 S
C987 C988 1.355 1_545 S
C987 C989 1.415 1_655 S
C988 C987 1.355 1_565 S
C988 C990 1.419 . S
C989 C984 1.425 1_445 S
C989 C986 1.409 . S
C989 C987 1.415 1_455 S
C990 H980 0.930 . S
C990 C988 1.419 . S
C990 C991 1.362 . S
C991 H981 0.930 . S
C991 C984 1.409 . S
C991 C990 1.362 . S
H992 C998 0.930 . S
H993 C1001 0.930 . S
H994 C1002 0.930 . S
H995 C1003 0.930 . S
H996 C1006 0.930 . S
H997 C1007 0.930 . S
C998 H992 0.930 . S
C998 C999 1.355 1_565 S
C998 C1000 1.415 . S
C999 C998 1.355 1_545 S
C999 C1001 1.419 . S
C1000 C998 1.415 . S
C1000 C1005 1.425 1_565 S
C1000 C1007 1.409 . S
C1001 H993 0.930 . S
C1001 C999 1.419 . S
C1001 C1002 1.362 . S
C1002 H994 0.930 . S
C1002 C1001 1.362 . S
C1002 C1005 1.409 . S
C1003 H995 0.930 . S
C1003 C1004 1.355 1_545 S
C1003 C1005 1.415 . S
C1004 C1003 1.355 1_565 S
C1004 C1006 1.419 . S
C1005 C1000 1.425 1_545 S
C1005 C1002 1.409 . S
C1005 C1003 1.415 . S
C1006 H996 0.930 . S
C1006 C1004 1.419 . S
C1006 C1007 1.362 . S
C1007 H997 0.930 . S
C1007 C1000 1.409 . S
C1007 C1006 1.362 . S
H1008 C1014 0.930 . S
H1009 C1017 0.930 . S
H1010 C1018 0.930 . S
H1011 C1019 0.930 . S
H1012 C1022 0.930 . S
H1013 C1023 0.930 . S
C1014 H1008 0.930 . S
C1014 C1015 1.355 . S
C1014 C1016 1.415 . S
C1015 C1014 1.355 . S
C1015 C1017 1.419 . S
C1016 C1014 1.415 . S
C1016 C1021 1.425 . S
C1016 C1023 1.409 . S
C1017 H1009 0.930 . S
C1017 C1015 1.419 . S
C1017 C1018 1.362 . S
C1018 H1010 0.930 . S
C1018 C1017 1.362 . S
C1018 C1021 1.409 . S
C1019 H1011 0.930 . S
C1019 C1020 1.355 . S
C1019 C1021 1.415 . S
C1020 C1019 1.355 . S
C1020 C1022 1.419 . S
C1021 C1016 1.425 . S
C1021 C1018 1.409 . S
C1021 C1019 1.415 . S
C1022 H1012 0.930 . S
C1022 C1020 1.419 . S
C1022 C1023 1.362 . S
C1023 H1013 0.930 . S
C1023 C1016 1.409 . S
C1023 C1022 1.362 . S
H1024 C1030 0.930 . S
H1025 C1033 0.930 . S
H1026 C1034 0.930 1_554 S
H1027 C1035 0.930 . S
H1028 C1038 0.930 . S
H1029 C1039 0.930 . S
C1030 H1024 0.930 . S
C1030 C1031 1.355 . S
C1030 C1032 1.415 1_556 S
C1031 C1030 1.355 . S
C1031 C1033 1.419 . S
C1032 C1030 1.415 1_554 S
C1032 C1037 1.425 . S
C1032 C1039 1.409 . S
C1033 H1025 0.930 . S
C1033 C1031 1.419 . S
C1033 C1034 1.362 . S
C1034 H1026 0.930 1_556 S
C1034 C1033 1.362 . S
C1034 C1037 1.409 1_556 S
C1035 H1027 0.930 . S
C1035 C1036 1.355 . S
C1035 C1037 1.415 . S
C1036 C1035 1.355 . S
C1036 C1038 1.419 . S
C1037 C1032 1.425 . S
C1037 C1034 1.409 1_554 S
C1037 C1035 1.415 . S
C1038 H1028 0.930 . S
C1038 C1036 1.419 . S
C1038 C1039 1.362 . S
C1039 H1029 0.930 . S
C1039 C1032 1.409 . S
C1039 C1038 1.362 . S
H1040 C1046 0.930 . S
H1041 C1049 0.930 . S
H1042 C1050 0.930 . S
H1043 C1051 0.930 . S
H1044 C1054 0.930 . S
H1045 C1055 0.930 . S
C1046 H1040 0.930 . S
C1046 C1047 1.355 . S
C1046 C1048 1.415 . S
C1047 C1046 1.355 . S
C1047 C1049 1.419 . S
C1048 C1046 1.415 . S
C1048 C1053 1.425 . S
C1048 C1055 1.409 . S
C1049 H1041 0.930 . S
C1049 C1047 1.419 . S
C1049 C1050 1.362 . S
C1050 H1042 0.930 . S
C1050 C1049 1.362 . S
C1050 C1053 1.409 . S
C1051 H1043 0.930 . S
C1051 C1052 1.355 . S
C1051 C1053 1.415 . S
C1052 C1051 1.355 . S
C1052 C1054 1.419 . S
C1053 C1048 1.425 . S
C1053 C1050 1.409 . S
C1053 C1051 1.415 . S
C1054 H1044 0.930 . S
C1054 C1052 1.419 . S
C1054 C1055 1.362 . S
C1055 H1045 0.930 . S
C1055 C1048 1.409 . S
C1055 C1054 1.362 . S
H1056 C1062 0.930 . S
H1057 C1065 0.930 . S
H1058 C1066 0.930 . S
H1059 C1067 0.930 . S
H1060 C1070 0.930 . S
H1061 C1071 0.930 . S
C1062 H1056 0.930 . S
C1062 C1063 1.355 . S
C1062 C1064 1.415 . S
C1063 C1062 1.355 . S
C1063 C1065 1.419 1_455 S
C1064 C1062 1.415 . S
C1064 C1069 1.425 1_455 S
C1064 C1071 1.409 . S
C1065 H1057 0.930 . S
C1065 C1063 1.419 1_655 S
C1065 C1066 1.362 . S
C1066 H1058 0.930 . S
C1066 C1065 1.362 . S
C1066 C1069 1.409 . S
C1067 H1059 0.930 . S
C1067 C1068 1.355 . S
C1067 C1069 1.415 . S
C1068 C1067 1.355 . S
C1068 C1070 1.419 1_655 S
C1069 C1064 1.425 1_655 S
C1069 C1066 1.409 . S
C1069 C1067 1.415 . S
C1070 H1060 0.930 . S
C1070 C1068 1.419 1_455 S
C1070 C1071 1.362 . S
C1071 H1061 0.930 . S
C1071 C1064 1.409 . S
C1071 C1070 1.362 . S
H1072 C1078 0.930 . S
H1073 C1081 0.930 . S
H1074 C1082 0.930 . S
H1075 C1083 0.930 . S
H1076 C1086 0.930 . S
H1077 C1087 0.930 . S
C1078 H1072 0.930 . S
C1078 C1079 1.355 . S
C1078 C1080 1.415 . S
C1079 C1078 1.355 . S
C1079 C1081 1.419 . S
C1080 C1078 1.415 . S
C1080 C1085 1.425 . S
C1080 C1087 1.409 . S
C1081 H1073 0.930 . S
C1081 C1079 1.419 . S
C1081 C1082 1.362 . S
C1082 H1074 0.930 . S
C1082 C1081 1.362 . S
C1082 C1085 1.409 . S
C1083 H1075 0.930 . S
C1083 C1084 1.355 . S
C1083 C1085 1.415 . S
C1084 C1083 1.355 . S
C1084 C1086 1.419 . S
C1085 C1080 1.425 . S
C1085 C1082 1.409 . S
C1085 C1083 1.415 . S
C1086 H1076 0.930 . S
C1086 C1084 1.419 . S
C1086 C1087 1.362 . S
C1087 H1077 0.930 . S
C1087 C1080 1.409 . S
C1087 C1086 1.362 . S
H1088 C1094 0.930 . S
H1089 C1097 0.930 . S
H1090 C1098 0.930 . S
H1091 C1099 0.930 . S
H1092 C1102 0.930 . S
H1093 C1103 0.930 . S
C1094 H1088 0.930 . S
C1094 C1095 1.355 . S
C1094 C1096 1.415 . S
C1095 C1094 1.355 . S
C1095 C1097 1.419 . S
C1096 C1094 1.415 . S
C1096 C1101 1.425 . S
C1096 C1103 1.409 . S
C1097 H1089 0.930 . S
C1097 C1095 1.419 . S
C1097 C1098 1.362 . S
C1098 H1090 0.930 . S
C1098 C1097 1.362 . S
C1098 C1101 1.409 . S
C1099 H1091 0.930 . S
C1099 C1100 1.355 . S
C1099 C1101 1.415 . S
C1100 C1099 1.355 . S
C1100 C1102 1.419 . S
C1101 C1096 1.425 . S
C1101 C1098 1.409 . S
C1101 C1099 1.415 . S
C1102 H1092 0.930 . S
C1102 C1100 1.419 . S
C1102 C1103 1.362 . S
C1103 H1093 0.930 . S
C1103 C1096 1.409 . S
C1103 C1102 1.362 . S
H1104 C1110 0.943 . S
H1105 C1113 0.930 . S
H1106 C1114 0.930 . S
H1107 C1115 0.943 . S
H1108 C1118 0.930 . S
H1109 C1119 0.930 . S
C1110 H1104 0.943 . S
C1110 C1111 1.335 1_445 S
C1110 C1112 1.421 . S
C1111 C1110 1.335 1_665 S
C1111 C1113 1.419 . S
C1112 C1110 1.421 . S
C1112 C1117 1.425 1_445 S
C1112 C1119 1.409 . S
C1113 H1105 0.930 . S
C1113 C1111 1.419 . S
C1113 C1114 1.362 . S
C1114 H1106 0.930 . S
C1114 C1113 1.362 . S
C1114 C1117 1.409 . S
C1115 H1107 0.943 . S
C1115 C1116 1.335 1_665 S
C1115 C1117 1.421 . S
C1116 C1115 1.335 1_445 S
C1116 C1118 1.419 . S
C1117 C1112 1.425 1_665 S
C1117 C1114 1.409 . S
C1117 C1115 1.421 . S
C1118 H1108 0.930 . S
C1118 C1116 1.419 . S
C1118 C1119 1.362 . S
C1119 H1109 0.930 . S
C1119 C1112 1.409 . S
C1119 C1118 1.362 . S
H1120 C1126 0.930 . S
H1121 C1129 0.930 . S
H1122 C1130 0.930 1_554 S
H1123 C1131 0.930 . S
H1124 C1134 0.930 . S
H1125 C1135 0.930 . S
C1126 H1120 0.930 . S
C1126 C1127 1.355 . S
C1126 C1128 1.406 1_546 S
C1127 C1126 1.355 . S
C1127 C1129 1.419 . S
C1128 C1126 1.406 1_564 S
C1128 C1133 1.423 1_565 S
C1128 C1135 1.421 . S
C1129 H1121 0.930 . S
C1129 C1127 1.419 . S
C1129 C1130 1.362 . S
C1130 H1122 0.930 1_556 S
C1130 C1129 1.362 . S
C1130 C1133 1.421 1_556 S
C1131 H1123 0.930 . S
C1131 C1132 1.355 . S
C1131 C1133 1.406 1_565 S
C1132 C1131 1.355 . S
C1132 C1134 1.419 . S
C1133 C1128 1.423 1_545 S
C1133 C1130 1.421 1_554 S
C1133 C1131 1.406 1_545 S
C1134 H1124 0.930 . S
C1134 C1132 1.419 . S
C1134 C1135 1.362 . S
C1135 H1125 0.930 . S
C1135 C1128 1.421 . S
C1135 C1134 1.362 . S
C375 C21 1.704 . S
C380 C224 1.677 . S
C391 C247 1.670 . S
C396 C44 1.705 . S
C407 C270 1.637 . S
C412 C67 1.698 . S
C423 C201 1.648 . S
C428 C90 1.698 . S
C439 C113 1.698 . S
C444 C316 1.617 . S
C455 C136 1.698 . S
C460 C339 1.648 . S
C471 C362 1.616 . S
C476 C159 1.699 . S
C487 C293 1.625 . S
C492 C182 1.702 . S
C503 C40 1.647 . S
C508 C205 1.698 . S
C519 C63 1.636 . S
C524 C228 1.697 1_565 S
C535 C86 1.677 . S
C540 C251 1.703 . S
C551 C274 1.700 1_545 S
C556 C17 1.664 . S
C567 C132 1.677 . S
C572 C297 1.704 . S
C583 C155 1.628 . S
C588 C320 1.697 1_545 S
C599 C178 1.669 . S
C604 C343 1.701 . S
C615 C109 1.641 . S
C620 C366 1.697 1_565 S
C631 C19 1.559 . S
C636 C363 1.580 . S
C647 C42 1.582 . S
C652 C110 1.598 . S
C663 C317 1.563 . S
C668 C65 1.531 . S
C679 C156 1.585 . S
C684 C88 1.560 . S
C695 C111 1.527 . S
C700 C271 1.557 . S
C711 C18 1.576 . S
C716 C134 1.550 . S
C727 C157 1.535 . S
C732 C225 1.566 . S
C743 C180 1.520 . S
C748 C64 1.554 . S
C759 C203 1.544 . S
C764 C179 1.569 . S
C775 C294 1.559 . S
C780 C226 1.530 . S
C791 C249 1.527 . S
C796 C133 1.560 . S
C807 C340 1.571 . S
C812 C272 1.547 . S
C823 C295 1.567 . S
C828 C87 1.590 . S
C839 C202 1.574 . S
C844 C318 1.546 . S
C855 C341 1.522 . S
C860 C41 1.554 . S
C871 C364 1.581 . S
C876 C248 1.599 1_556 S
C887 C20 1.501 . S
C892 C296 1.501 . S
C903 C135 1.506 . S
C908 C43 1.506 . S
C919 C66 1.505 . S
C924 C342 1.505 . S
C935 C181 1.504 . S
C940 C89 1.504 . S
C951 C112 1.506 . S
C956 C204 1.506 . S
C967 C250 1.500 . S
C972 C158 1.500 . S
C983 C227 1.500 . S
C988 C319 1.500 . S
C999 C365 1.501 . S
C1004 C273 1.501 . S
C1015 C292 0.872 . S
C1020 C16 0.872 . S
C1031 C131 0.844 . S
C1036 C39 0.844 . S
C1047 C62 0.929 . S
C1052 C338 0.929 . S
C1063 C177 0.934 . S
C1068 C85 0.934 . S
C1079 C108 0.834 . S
C1084 C200 0.834 . S
C1095 C154 0.914 . S
C1100 C246 0.914 . S
C1111 C315 0.831 . S
C1116 C223 0.831 . S
C1127 C361 0.933 . S
C1132 C269 0.933 . S
