# Generated by pormake.
# Topology vbm, (6)-cn, num edge types: 1
# Building blocks:
#     Node 0, Type 0, BuildingBlock: BETDIP_clean_sbu_0, # of connection points: 6
#     Node 1, Type 0, BuildingBlock: BETDIP_clean_sbu_0, # of connection points: 6
#     Node 2, Type 0, BuildingBlock: BETDIP_clean_sbu_0, # of connection points: 6
#     Node 3, Type 0, BuildingBlock: BETDIP_clean_sbu_0, # of connection points: 6
#     Node 4, Type 0, BuildingBlock: BETDIP_clean_sbu_0, # of connection points: 6
#     Node 5, Type 0, BuildingBlock: BETDIP_clean_sbu_0, # of connection points: 6
#     Node 6, Type 0, BuildingBlock: BETDIP_clean_sbu_0, # of connection points: 6
#     Node 7, Type 0, BuildingBlock: BETDIP_clean_sbu_0, # of connection points: 6
#     Node 8, Type 0, BuildingBlock: BETDIP_clean_sbu_0, # of connection points: 6
#     Node 9, Type 0, BuildingBlock: BETDIP_clean_sbu_0, # of connection points: 6
#     Node 10, Type 0, BuildingBlock: BETDIP_clean_sbu_0, # of connection points: 6
#     Node 11, Type 0, BuildingBlock: BETDIP_clean_sbu_0, # of connection points: 6
#     Node 12, Type 0, BuildingBlock: BETDIP_clean_sbu_0, # of connection points: 6
#     Node 13, Type 0, BuildingBlock: BETDIP_clean_sbu_0, # of connection points: 6
#     Node 14, Type 0, BuildingBlock: BETDIP_clean_sbu_0, # of connection points: 6
#     Node 15, Type 0, BuildingBlock: BETDIP_clean_sbu_0, # of connection points: 6
#     Edge 16, Type (0, 0), BuildingBlock: AJUNOK_clean_linker_0, # of connection points: 2
#     Edge 17, Type (0, 0), BuildingBlock: AJUNOK_clean_linker_0, # of connection points: 2
#     Edge 18, Type (0, 0), BuildingBlock: AJUNOK_clean_linker_0, # of connection points: 2
#     Edge 19, Type (0, 0), BuildingBlock: AJUNOK_clean_linker_0, # of connection points: 2
#     Edge 20, Type (0, 0), BuildingBlock: AJUNOK_clean_linker_0, # of connection points: 2
#     Edge 21, Type (0, 0), BuildingBlock: AJUNOK_clean_linker_0, # of connection points: 2
#     Edge 22, Type (0, 0), BuildingBlock: AJUNOK_clean_linker_0, # of connection points: 2
#     Edge 23, Type (0, 0), BuildingBlock: AJUNOK_clean_linker_0, # of connection points: 2
#     Edge 24, Type (0, 0), BuildingBlock: AJUNOK_clean_linker_0, # of connection points: 2
#     Edge 25, Type (0, 0), BuildingBlock: AJUNOK_clean_linker_0, # of connection points: 2
#     Edge 26, Type (0, 0), BuildingBlock: AJUNOK_clean_linker_0, # of connection points: 2
#     Edge 27, Type (0, 0), BuildingBlock: AJUNOK_clean_linker_0, # of connection points: 2
#     Edge 28, Type (0, 0), BuildingBlock: AJUNOK_clean_linker_0, # of connection points: 2
#     Edge 29, Type (0, 0), BuildingBlock: AJUNOK_clean_linker_0, # of connection points: 2
#     Edge 30, Type (0, 0), BuildingBlock: AJUNOK_clean_linker_0, # of connection points: 2
#     Edge 31, Type (0, 0), BuildingBlock: AJUNOK_clean_linker_0, # of connection points: 2
#     Edge 32, Type (0, 0), BuildingBlock: AJUNOK_clean_linker_0, # of connection points: 2
#     Edge 33, Type (0, 0), BuildingBlock: AJUNOK_clean_linker_0, # of connection points: 2
#     Edge 34, Type (0, 0), BuildingBlock: AJUNOK_clean_linker_0, # of connection points: 2
#     Edge 35, Type (0, 0), BuildingBlock: AJUNOK_clean_linker_0, # of connection points: 2
#     Edge 36, Type (0, 0), BuildingBlock: AJUNOK_clean_linker_0, # of connection points: 2
#     Edge 37, Type (0, 0), BuildingBlock: AJUNOK_clean_linker_0, # of connection points: 2
#     Edge 38, Type (0, 0), BuildingBlock: AJUNOK_clean_linker_0, # of connection points: 2
#     Edge 39, Type (0, 0), BuildingBlock: AJUNOK_clean_linker_0, # of connection points: 2
#     Edge 40, Type (0, 0), BuildingBlock: AJUNOK_clean_linker_0, # of connection points: 2
#     Edge 41, Type (0, 0), BuildingBlock: AJUNOK_clean_linker_0, # of connection points: 2
#     Edge 42, Type (0, 0), BuildingBlock: AJUNOK_clean_linker_0, # of connection points: 2
#     Edge 43, Type (0, 0), BuildingBlock: AJUNOK_clean_linker_0, # of connection points: 2
#     Edge 44, Type (0, 0), BuildingBlock: AJUNOK_clean_linker_0, # of connection points: 2
#     Edge 45, Type (0, 0), BuildingBlock: AJUNOK_clean_linker_0, # of connection points: 2
#     Edge 46, Type (0, 0), BuildingBlock: AJUNOK_clean_linker_0, # of connection points: 2
#     Edge 47, Type (0, 0), BuildingBlock: AJUNOK_clean_linker_0, # of connection points: 2
#     Edge 48, Type (0, 0), BuildingBlock: AJUNOK_clean_linker_0, # of connection points: 2
#     Edge 49, Type (0, 0), BuildingBlock: AJUNOK_clean_linker_0, # of connection points: 2
#     Edge 50, Type (0, 0), BuildingBlock: AJUNOK_clean_linker_0, # of connection points: 2
#     Edge 51, Type (0, 0), BuildingBlock: AJUNOK_clean_linker_0, # of connection points: 2
#     Edge 52, Type (0, 0), BuildingBlock: AJUNOK_clean_linker_0, # of connection points: 2
#     Edge 53, Type (0, 0), BuildingBlock: AJUNOK_clean_linker_0, # of connection points: 2
#     Edge 54, Type (0, 0), BuildingBlock: AJUNOK_clean_linker_0, # of connection points: 2
#     Edge 55, Type (0, 0), BuildingBlock: AJUNOK_clean_linker_0, # of connection points: 2
#     Edge 56, Type (0, 0), BuildingBlock: AJUNOK_clean_linker_0, # of connection points: 2
#     Edge 57, Type (0, 0), BuildingBlock: AJUNOK_clean_linker_0, # of connection points: 2
#     Edge 58, Type (0, 0), BuildingBlock: AJUNOK_clean_linker_0, # of connection points: 2
#     Edge 59, Type (0, 0), BuildingBlock: AJUNOK_clean_linker_0, # of connection points: 2
#     Edge 60, Type (0, 0), BuildingBlock: AJUNOK_clean_linker_0, # of connection points: 2
#     Edge 61, Type (0, 0), BuildingBlock: AJUNOK_clean_linker_0, # of connection points: 2
#     Edge 62, Type (0, 0), BuildingBlock: AJUNOK_clean_linker_0, # of connection points: 2
#     Edge 63, Type (0, 0), BuildingBlock: AJUNOK_clean_linker_0, # of connection points: 2
# Relax obj value: 0.068
# Max RMSD: 0.154
# Mean RMSD: 0.154
data_MOF--net-vbm--node1-BETDIP_clean_sbu_0--edge1-AJUNOK_clean_linker_0
_symmetry_space_group_name_H-M    P1
_symmetry_Int_Tables_number       1
_symmetry_cell_setting            triclinic
loop_
_symmetry_equiv_pos_as_xyz
'x, y, z'
_cell_length_a     39.162339
_cell_length_b     21.432562
_cell_length_c     40.006068
_cell_angle_alpha  90.136353
_cell_angle_beta   89.625752
_cell_angle_gamma 89.692928
loop_
_atom_site_label
_atom_site_type_symbol
_atom_site_fract_x
_atom_site_fract_y
_atom_site_fract_z
_atom_type_partial_charge
Tb0 Tb 0.14097 0.08886 0.155 0.0
Tb1 Tb 0.1022 0.20397 0.16796 0.0
C2 C 0.16267 0.97694 0.15598 0.0
C3 C 0.15031 0.91104 0.15703 0.0
C4 C 0.13155 0.88728 0.18429 0.0
C5 C 0.12287 0.82365 0.18573 0.0
C6 C 0.13261 0.782 0.15994 0.0
C7 C 0.15107 0.8062 0.13262 0.0
C8 C 0.15979 0.86963 0.13123 0.0
C9 C 0.13661 0.15998 0.10079 0.0
C10 C 0.0588 0.09291 0.14994 0.0
C11 C 0.07978 0.31492 0.17382 0.0
C12 C 0.09027 0.38177 0.17167 0.0
C13 C 0.10588 0.40715 0.14299 0.0
C14 C 0.11303 0.47144 0.14111 0.0
C15 C 0.10433 0.51209 0.16763 0.0
C16 C 0.08927 0.48627 0.19645 0.0
C17 C 0.08233 0.42216 0.1984 0.0
C18 C 0.10656 0.12497 0.21996 0.0
C19 C 0.18222 0.21066 0.16444 0.0
O20 O 0.15865 1.01175 0.18263 0.0
O21 O 0.15715 1.00852 0.12866 0.0
O22 O 0.11289 0.15125 0.12226 0.0
O23 O 0.16311 0.1278 0.1098 0.0
O24 O 0.08688 0.05952 0.15538 0.0
O25 O 0.05947 0.15407 0.14926 0.0
O26 O 0.07827 0.28212 0.14623 0.0
O27 O 0.09187 0.2821 0.19859 0.0
O28 O 0.13009 0.13932 0.19959 0.0
O29 O 0.07969 0.15687 0.2119 0.0
O30 O 0.15291 0.2386 0.15924 0.0
O31 O 0.18397 0.14928 0.16848 0.0
H32 H 0.12411 0.91751 0.20485 0.0
H33 H 0.10931 0.80681 0.20755 0.0
H34 H 0.1589 0.77595 0.11221 0.0
H35 H 0.17453 0.88621 0.11006 0.0
H36 H 0.1122 0.37756 0.12183 0.0
H37 H 0.12467 0.48963 0.11854 0.0
H38 H 0.08283 0.51572 0.21763 0.0
H39 H 0.0702 0.40419 0.22078 0.0
Tb40 Tb 0.84363 0.98386 0.15701 0.0
Tb41 Tb 0.88128 0.86799 0.16923 0.0
C42 C 0.82136 0.09535 0.15841 0.0
C43 C 0.83198 0.16211 0.15959 0.0
C44 C 0.85049 0.18719 0.18649 0.0
C45 C 0.85708 0.25163 0.18827 0.0
C46 C 0.84505 0.29267 0.16343 0.0
C47 C 0.82724 0.26712 0.13624 0.0
C48 C 0.82072 0.20289 0.13444 0.0
C49 C 0.84646 0.91193 0.10277 0.0
C50 C 0.92568 0.97681 0.14965 0.0
C51 C 0.90279 0.75667 0.1747 0.0
C52 C 0.89057 0.69093 0.17361 0.0
C53 C 0.87065 0.66772 0.14724 0.0
C54 C 0.8617 0.60423 0.14598 0.0
C55 C 0.8724 0.56244 0.17106 0.0
C56 C 0.89187 0.58622 0.1976 0.0
C57 C 0.90078 0.64949 0.19884 0.0
C58 C 0.87824 0.94789 0.22109 0.0
C59 C 0.80154 0.86336 0.16937 0.0
O60 O 0.8258 0.06089 0.18498 0.0
O61 O 0.82767 0.06418 0.13095 0.0
O62 O 0.87055 0.92014 0.1236 0.0
O63 O 0.82027 0.9443 0.11279 0.0
O64 O 0.89817 1.01166 0.15607 0.0
O65 O 0.92386 0.91584 0.1487 0.0
O66 O 0.90337 0.78841 0.1468 0.0
O67 O 0.89261 0.79094 0.19994 0.0
O68 O 0.85439 0.93376 0.20137 0.0
O69 O 0.90488 0.91551 0.21238 0.0
O70 O 0.83023 0.83403 0.16294 0.0
O71 O 0.8003 0.92507 0.17171 0.0
H72 H 0.85938 0.1573 0.20646 0.0
H73 H 0.8709 0.26959 0.20956 0.0
H74 H 0.81829 0.29685 0.11624 0.0
H75 H 0.80626 0.18515 0.1135 0.0
H76 H 0.86239 0.69835 0.12733 0.0
H77 H 0.84713 0.58758 0.12488 0.0
H78 H 0.90036 0.55571 0.21747 0.0
H79 H 0.91622 0.66594 0.21941 0.0
Tb80 Tb 0.14165 0.99384 0.3978 0.0
Tb81 Tb 0.10295 0.8713 0.38705 0.0
C82 C 0.16221 0.1016 0.38228 0.0
C83 C 0.15301 0.16858 0.38752 0.0
C84 C 0.13417 0.2001 0.36286 0.0
C85 C 0.12633 0.26355 0.36613 0.0
C86 C 0.13717 0.29775 0.3941 0.0
C87 C 0.15661 0.2668 0.41856 0.0
C88 C 0.16441 0.20285 0.41535 0.0
C89 C 0.12988 0.9441 0.45763 0.0
C90 C 0.06028 0.98323 0.41007 0.0
C91 C 0.08213 0.76071 0.38025 0.0
C92 C 0.09216 0.69444 0.38484 0.0
C93 C 0.10867 0.67253 0.41369 0.0
C94 C 0.11639 0.60865 0.41722 0.0
C95 C 0.10732 0.56562 0.39218 0.0
C96 C 0.09136 0.5881 0.3632 0.0
C97 C 0.08388 0.65161 0.35962 0.0
C98 C 0.10688 0.95006 0.33508 0.0
C99 C 0.18309 0.86811 0.3944 0.0
O100 O 0.14052 0.06901 0.36481 0.0
O101 O 0.17492 0.0693 0.40716 0.0
O102 O 0.12129 0.9221 0.42934 0.0
O103 O 0.14602 0.99583 0.45236 0.0
O104 O 0.08695 1.01899 0.4024 0.0
O105 O 0.06206 0.92194 0.40995 0.0
O106 O 0.07601 0.795 0.40685 0.0
O107 O 0.09844 0.79149 0.35693 0.0
O108 O 0.13018 0.93662 0.35571 0.0
O109 O 0.08012 0.91837 0.34346 0.0
O110 O 0.15379 0.83921 0.3982 0.0
O111 O 0.18484 0.92939 0.38934 0.0
H112 H 0.12572 0.1758 0.34064 0.0
H113 H 0.11221 0.2862 0.34633 0.0
H114 H 0.16556 0.29197 0.44029 0.0
H115 H 0.17951 0.18046 0.43451 0.0
H116 H 0.11532 0.70455 0.43357 0.0
H117 H 0.12876 0.59268 0.43979 0.0
H118 H 0.08463 0.55642 0.34319 0.0
H119 H 0.07124 0.66728 0.33711 0.0
Tb120 Tb 0.84363 0.07838 0.39803 0.0
Tb121 Tb 0.88142 0.20239 0.38821 0.0
C122 C 0.82217 0.97138 0.38274 0.0
C123 C 0.82712 0.9046 0.3912 0.0
C124 C 0.85977 0.87972 0.39738 0.0
C125 C 0.86459 0.8151 0.4005 0.0
C126 C 0.83691 0.77384 0.39742 0.0
C127 C 0.80403 0.79919 0.3928 0.0
C128 C 0.79925 0.86381 0.38958 0.0
C129 C 0.85411 0.12768 0.45825 0.0
C130 C 0.92487 0.091 0.40941 0.0
C131 C 0.9005 0.31424 0.38253 0.0
C132 C 0.88853 0.3788 0.38941 0.0
C133 C 0.85394 0.39583 0.38676 0.0
C134 C 0.84377 0.45845 0.39015 0.0
C135 C 0.86805 0.50559 0.39576 0.0
C136 C 0.90252 0.48795 0.3993 0.0
C137 C 0.9126 0.42534 0.39615 0.0
C138 C 0.87838 0.12434 0.33565 0.0
C139 C 0.80178 0.20329 0.39307 0.0
O140 O 0.84797 0.99894 0.368 0.0
O141 O 0.80686 1.00763 0.40476 0.0
O142 O 0.8628 0.15029 0.43011 0.0
O143 O 0.83845 0.07565 0.45261 0.0
O144 O 0.89851 0.05443 0.40201 0.0
O145 O 0.92267 0.15227 0.41001 0.0
O146 O 0.90822 0.27895 0.40817 0.0
O147 O 0.88417 0.28345 0.35933 0.0
O148 O 0.85503 0.13679 0.3566 0.0
O149 O 0.90476 0.15708 0.34377 0.0
O150 O 0.83026 0.23215 0.40054 0.0
O151 O 0.8012 0.14242 0.38667 0.0
H152 H 0.88177 0.91 0.39865 0.0
H153 H 0.89024 0.79728 0.40406 0.0
H154 H 0.78201 0.76899 0.39115 0.0
H155 H 0.77383 0.88179 0.38482 0.0
H156 H 0.83489 0.36098 0.38129 0.0
H157 H 0.81692 0.46998 0.38804 0.0
H158 H 0.92193 0.52287 0.40346 0.0
H159 H 0.93946 0.41349 0.39804 0.0
Tb160 Tb 0.88137 0.86586 0.89022 0.0
Tb161 Tb 0.84275 0.98055 0.90186 0.0
C162 C 0.90224 0.75404 0.88456 0.0
C163 C 0.88999 0.68835 0.88819 0.0
C164 C 0.8875 0.65922 0.91963 0.0
C165 C 0.87942 0.59552 0.92219 0.0
C166 C 0.87386 0.55901 0.8934 0.0
C167 C 0.87542 0.58865 0.86208 0.0
C168 C 0.88353 0.6522 0.85951 0.0
C169 C 0.87778 0.94341 0.8376 0.0
C170 C 0.8021 0.85833 0.89166 0.0
C171 C 0.82059 0.09213 0.89937 0.0
C172 C 0.83251 0.15839 0.89887 0.0
C173 C 0.83484 0.19129 0.86851 0.0
C174 C 0.84249 0.25529 0.86809 0.0
C175 C 0.84801 0.28841 0.89801 0.0
C176 C 0.84586 0.25542 0.92835 0.0
C177 C 0.83818 0.19145 0.92879 0.0
C178 C 0.84617 0.91113 0.95681 0.0
C179 C 0.92495 0.97576 0.909 0.0
O180 O 0.90594 0.78792 0.91156 0.0
O181 O 0.88976 0.7868 0.85994 0.0
O182 O 0.85398 0.9295 0.8577 0.0
O183 O 0.90466 0.91227 0.8464 0.0
O184 O 0.83091 0.83178 0.89997 0.0
O185 O 0.80062 0.91941 0.88643 0.0
O186 O 0.82682 0.05753 0.87307 0.0
O187 O 0.82418 0.06039 0.92697 0.0
O188 O 0.87019 0.91931 0.93562 0.0
O189 O 0.81967 0.94232 0.94683 0.0
O190 O 0.89709 1.00965 0.90293 0.0
O191 O 0.9239 0.91471 0.90957 0.0
H192 H 0.89234 0.6853 0.94231 0.0
H193 H 0.87766 0.57478 0.94679 0.0
H194 H 0.87144 0.56217 0.83936 0.0
H195 H 0.8856 0.67272 0.83487 0.0
H196 H 0.83007 0.16782 0.845 0.0
H197 H 0.84397 0.279 0.84425 0.0
H198 H 0.84913 0.27946 0.95194 0.0
H199 H 0.83589 0.16827 0.95272 0.0
Tb200 Tb 0.1004 0.20442 0.88934 0.0
Tb201 Tb 0.13937 0.0898 0.90071 0.0
C202 C 0.079 0.31597 0.88442 0.0
C203 C 0.09092 0.38202 0.88724 0.0
C204 C 0.09597 0.41108 0.91843 0.0
C205 C 0.10415 0.47485 0.92045 0.0
C206 C 0.1074 0.51139 0.89136 0.0
C207 C 0.10258 0.48212 0.86023 0.0
C208 C 0.09446 0.4185 0.85822 0.0
C209 C 0.10316 0.1256 0.837 0.0
C210 C 0.18017 0.21162 0.88962 0.0
C211 C 0.16124 0.97803 0.8988 0.0
C212 C 0.14899 0.91196 0.8981 0.0
C213 C 0.1434 0.88069 0.86762 0.0
C214 C 0.13581 0.81662 0.86697 0.0
C215 C 0.13395 0.78176 0.89673 0.0
C216 C 0.13861 0.81343 0.92723 0.0
C217 C 0.14618 0.87741 0.9279 0.0
C218 C 0.13583 0.16091 0.95533 0.0
C219 C 0.05724 0.09376 0.90812 0.0
O220 O 0.07645 0.28254 0.91166 0.0
O221 O 0.09082 0.28299 0.85933 0.0
O222 O 0.12736 0.13952 0.85647 0.0
O223 O 0.07675 0.15819 0.84607 0.0
O224 O 0.15114 0.23873 0.89718 0.0
O225 O 0.18184 0.15028 0.88529 0.0
O226 O 0.1565 1.01258 0.87232 0.0
O227 O 0.15653 1.01 0.9263 0.0
O228 O 0.11181 0.15168 0.93457 0.0
O229 O 0.16234 0.12937 0.94528 0.0
O230 O 0.08527 0.06029 0.902 0.0
O231 O 0.05786 0.1549 0.90891 0.0
H232 H 0.09303 0.38492 0.94138 0.0
H233 H 0.10708 0.49589 0.94488 0.0
H234 H 0.10496 0.50859 0.83731 0.0
H235 H 0.09032 0.39804 0.8338 0.0
H236 H 0.14573 0.90534 0.84411 0.0
H237 H 0.13242 0.79392 0.84301 0.0
H238 H 0.13661 0.78862 0.9507 0.0
H239 H 0.15056 0.89952 0.95185 0.0
Tb240 Tb 0.88099 0.19687 0.67062 0.0
Tb241 Tb 0.84239 0.07458 0.6595 0.0
C242 C 0.89998 0.30848 0.67775 0.0
C243 C 0.88944 0.37374 0.67024 0.0
C244 C 0.85688 0.39702 0.679 0.0
C245 C 0.84913 0.46074 0.67548 0.0
C246 C 0.87382 0.50275 0.66344 0.0
C247 C 0.90587 0.47886 0.65352 0.0
C248 C 0.91359 0.41524 0.65698 0.0
C249 C 0.87721 0.11791 0.72242 0.0
C250 C 0.80139 0.20019 0.6614 0.0
C251 C 0.82088 0.96723 0.67451 0.0
C252 C 0.82757 0.90063 0.66661 0.0
C253 C 0.85936 0.88039 0.65407 0.0
C254 C 0.86681 0.81642 0.65125 0.0
C255 C 0.84271 0.77128 0.66108 0.0
C256 C 0.81041 0.7919 0.67227 0.0
C257 C 0.803 0.85583 0.67511 0.0
C258 C 0.85429 0.12457 0.59976 0.0
C259 C 0.9236 0.08569 0.64683 0.0
O260 O 0.90989 0.27286 0.65276 0.0
O261 O 0.88166 0.27803 0.69976 0.0
O262 O 0.85381 0.13113 0.70186 0.0
O263 O 0.90383 0.15011 0.71422 0.0
O264 O 0.83083 0.228 0.65681 0.0
O265 O 0.79944 0.1395 0.66796 0.0
O266 O 0.84534 0.99618 0.69029 0.0
O267 O 0.80687 1.00227 0.65144 0.0
O268 O 0.86279 0.14645 0.6281 0.0
O269 O 0.83834 0.07259 0.6049 0.0
O270 O 0.89702 0.04971 0.65449 0.0
O271 O 0.92188 0.14698 0.64738 0.0
H272 H 0.83765 0.36637 0.68936 0.0
H273 H 0.82417 0.47749 0.68327 0.0
H274 H 0.92523 0.50959 0.64346 0.0
H275 H 0.93888 0.39871 0.65011 0.0
H276 H 0.87877 0.91401 0.64734 0.0
H277 H 0.89165 0.80226 0.64181 0.0
H278 H 0.79127 0.75857 0.68007 0.0
H279 H 0.77839 0.87028 0.68506 0.0
Tb280 Tb 0.10259 0.86961 0.66987 0.0
Tb281 Tb 0.13959 0.99345 0.65938 0.0
C282 C 0.08343 0.75801 0.67637 0.0
C283 C 0.09361 0.69306 0.66809 0.0
C284 C 0.12796 0.67366 0.66792 0.0
C285 C 0.1365 0.61054 0.66317 0.0
C286 C 0.11088 0.56546 0.65855 0.0
C287 C 0.07657 0.58539 0.65832 0.0
C288 C 0.06809 0.64842 0.66293 0.0
C289 C 0.10417 0.94878 0.72206 0.0
C290 C 0.18208 0.86954 0.66333 0.0
C291 C 0.16007 0.10146 0.67386 0.0
C292 C 0.15348 0.16754 0.6649 0.0
C293 C 0.12011 0.19019 0.66007 0.0
C294 C 0.11398 0.25423 0.65599 0.0
C295 C 0.14109 0.29713 0.65648 0.0
C296 C 0.17456 0.27404 0.66037 0.0
C297 C 0.18065 0.20999 0.66452 0.0
C298 C 0.12945 0.94329 0.59928 0.0
C299 C 0.05884 0.97939 0.64724 0.0
O300 O 0.07369 0.79413 0.65176 0.0
O301 O 0.1023 0.78758 0.69813 0.0
O302 O 0.12812 0.93672 0.70161 0.0
O303 O 0.0784 0.91481 0.71367 0.0
O304 O 0.15354 0.84034 0.65653 0.0
O305 O 0.18257 0.93031 0.66996 0.0
O306 O 0.13529 0.07271 0.68956 0.0
O307 O 0.17533 0.06558 0.65165 0.0
O308 O 0.12079 0.92074 0.62747 0.0
O309 O 0.14475 0.99571 0.60481 0.0
O310 O 0.0848 1.01658 0.65487 0.0
O311 O 0.06146 0.91821 0.64696 0.0
H312 H 0.14812 0.70698 0.67226 0.0
H313 H 0.16316 0.59686 0.66347 0.0
H314 H 0.05611 0.55196 0.65573 0.0
H315 H 0.04141 0.66208 0.66343 0.0
H316 H 0.09859 0.15867 0.66059 0.0
H317 H 0.08784 0.27032 0.65376 0.0
H318 H 0.19603 0.30569 0.66071 0.0
H319 H 0.20658 0.1938 0.66842 0.0
Tb320 Tb 0.64188 0.57804 0.15064 0.0
Tb321 Tb 0.60334 0.70263 0.15934 0.0
C322 C 0.66319 0.47088 0.16655 0.0
C323 C 0.65816 0.40443 0.15787 0.0
C324 C 0.67946 0.35915 0.17224 0.0
C325 C 0.6726 0.29545 0.16819 0.0
C326 C 0.64415 0.27555 0.14975 0.0
C327 C 0.62365 0.32119 0.13419 0.0
C328 C 0.63049 0.385 0.13834 0.0
C329 C 0.63236 0.62676 0.09006 0.0
C330 C 0.56071 0.59062 0.13853 0.0
C331 C 0.58395 0.81498 0.16292 0.0
C332 C 0.59602 0.87944 0.15596 0.0
C333 C 0.57581 0.91944 0.13648 0.0
C334 C 0.58418 0.98264 0.13297 0.0
C335 C 0.61284 1.0077 0.14917 0.0
C336 C 0.63391 0.96702 0.16752 0.0
C337 C 0.62557 0.90371 0.17097 0.0
C338 C 0.60605 0.62594 0.21234 0.0
C339 C 0.68311 0.70263 0.15775 0.0
O340 O 0.6369 0.49879 0.18054 0.0
O341 O 0.67875 0.50661 0.14469 0.0
O342 O 0.62297 0.64946 0.11805 0.0
O343 O 0.64841 0.57502 0.09612 0.0
O344 O 0.58719 0.55452 0.14667 0.0
O345 O 0.5628 0.65176 0.13716 0.0
O346 O 0.57745 0.77861 0.13735 0.0
O347 O 0.59865 0.78478 0.1874 0.0
O348 O 0.62954 0.63765 0.19154 0.0
O349 O 0.57965 0.65888 0.20389 0.0
O350 O 0.65486 0.7318 0.14935 0.0
O351 O 0.6837 0.64157 0.1635 0.0
H352 H 0.70081 0.3731 0.1876 0.0
H353 H 0.68887 0.26178 0.18059 0.0
H354 H 0.60202 0.3076 0.11916 0.0
H355 H 0.61367 0.41915 0.12705 0.0
H356 H 0.55292 0.90215 0.12463 0.0
H357 H 0.56788 1.01216 0.11792 0.0
H358 H 0.6562 0.98463 0.18027 0.0
H359 H 0.64176 0.87429 0.18619 0.0
Tb360 Tb 0.34443 0.48967 0.15347 0.0
Tb361 Tb 0.38181 0.37348 0.16609 0.0
C362 C 0.32254 0.60133 0.15453 0.0
C363 C 0.33356 0.6678 0.15493 0.0
C364 C 0.35563 0.69177 0.1794 0.0
C365 C 0.36264 0.75608 0.18085 0.0
C366 C 0.34754 0.79797 0.1581 0.0
C367 C 0.32632 0.77341 0.13311 0.0
C368 C 0.31936 0.70934 0.13165 0.0
C369 C 0.34637 0.41636 0.09969 0.0
C370 C 0.42612 0.48209 0.14487 0.0
C371 C 0.40389 0.26241 0.17079 0.0
C372 C 0.39216 0.19645 0.16979 0.0
C373 C 0.36875 0.17479 0.14594 0.0
C374 C 0.36024 0.11114 0.14433 0.0
C375 C 0.37478 0.06768 0.16662 0.0
C376 C 0.39779 0.08994 0.19071 0.0
C377 C 0.40632 0.15337 0.19225 0.0
C378 C 0.37968 0.45448 0.21755 0.0
C379 C 0.30179 0.37037 0.16742 0.0
O380 O 0.32762 0.56759 0.18126 0.0
O381 O 0.32797 0.56937 0.12716 0.0
O382 O 0.37066 0.42474 0.12028 0.0
O383 O 0.32041 0.44931 0.10976 0.0
O384 O 0.39878 0.51737 0.151 0.0
O385 O 0.42448 0.42102 0.1452 0.0
O386 O 0.40331 0.29421 0.14292 0.0
O387 O 0.39423 0.2963 0.19637 0.0
O388 O 0.35558 0.44039 0.19809 0.0
O389 O 0.40602 0.42125 0.20885 0.0
O390 O 0.3303 0.33952 0.16212 0.0
O391 O 0.30106 0.43216 0.16884 0.0
H392 H 0.36696 0.66113 0.1978 0.0
H393 H 0.37918 0.77327 0.20037 0.0
H394 H 0.31494 0.80382 0.11464 0.0
H395 H 0.30224 0.69231 0.11256 0.0
H396 H 0.35749 0.2068 0.12818 0.0
H397 H 0.34292 0.09576 0.12504 0.0
H398 H 0.4093 0.05818 0.20844 0.0
H399 H 0.42449 0.16869 0.21082 0.0
Tb400 Tb 0.64316 0.49468 0.38923 0.0
Tb401 Tb 0.60414 0.37108 0.37862 0.0
C402 C 0.66441 0.60235 0.37455 0.0
C403 C 0.65742 0.66936 0.38207 0.0
C404 C 0.62493 0.69584 0.37684 0.0
C405 C 0.61972 0.76035 0.37991 0.0
C406 C 0.64674 0.80041 0.3884 0.0
C407 C 0.67897 0.77354 0.39479 0.0
C408 C 0.68427 0.7089 0.39142 0.0
C409 C 0.63296 0.44205 0.44867 0.0
C410 C 0.56214 0.48386 0.40306 0.0
C411 C 0.58294 0.26017 0.37454 0.0
C412 C 0.59431 0.19492 0.37982 0.0
C413 C 0.62674 0.17995 0.39245 0.0
C414 C 0.63705 0.11724 0.39558 0.0
C415 C 0.61499 0.06844 0.38638 0.0
C416 C 0.58239 0.08396 0.37428 0.0
C417 C 0.57227 0.14637 0.37094 0.0
C418 C 0.6067 0.45091 0.32716 0.0
C419 C 0.68463 0.36905 0.3812 0.0
O420 O 0.64089 0.5724 0.35793 0.0
O421 O 0.67819 0.56769 0.39791 0.0
O422 O 0.62376 0.42171 0.42026 0.0
O423 O 0.64876 0.49428 0.44377 0.0
O424 O 0.58868 0.51995 0.39539 0.0
O425 O 0.56385 0.42253 0.40225 0.0
O426 O 0.57876 0.29552 0.40106 0.0
O427 O 0.59743 0.29018 0.34981 0.0
O428 O 0.63039 0.4377 0.34738 0.0
O429 O 0.5804 0.41761 0.33529 0.0
O430 O 0.65575 0.33889 0.38504 0.0
O431 O 0.68627 0.43094 0.37926 0.0
H432 H 0.60362 0.66699 0.36948 0.0
H433 H 0.59459 0.77908 0.37463 0.0
H434 H 0.70022 0.8024 0.40225 0.0
H435 H 0.70961 0.68994 0.39548 0.0
H436 H 0.64411 0.21657 0.39973 0.0
H437 H 0.66214 0.10695 0.40543 0.0
H438 H 0.56484 0.04769 0.3668 0.0
H439 H 0.54717 0.15676 0.36108 0.0
Tb440 Tb 0.34583 0.58207 0.39683 0.0
Tb441 Tb 0.38369 0.70606 0.38611 0.0
C442 C 0.32483 0.47438 0.3822 0.0
C443 C 0.33182 0.40777 0.39007 0.0
C444 C 0.36503 0.38257 0.38787 0.0
C445 C 0.37054 0.31817 0.39103 0.0
C446 C 0.34306 0.27722 0.39646 0.0
C447 C 0.31005 0.30292 0.40009 0.0
C448 C 0.30451 0.36736 0.39673 0.0
C449 C 0.35672 0.63248 0.45672 0.0
C450 C 0.42705 0.59344 0.40705 0.0
C451 C 0.4052 0.81683 0.38245 0.0
C452 C 0.39424 0.88221 0.38815 0.0
C453 C 0.36042 0.89811 0.39665 0.0
C454 C 0.35058 0.96104 0.39979 0.0
C455 C 0.37442 1.00918 0.39457 0.0
C456 C 0.40838 0.99271 0.38679 0.0
C457 C 0.4181 0.93002 0.38353 0.0
C458 C 0.38046 0.62746 0.33387 0.0
C459 C 0.30329 0.70684 0.39034 0.0
O460 O 0.34867 0.50399 0.36561 0.0
O461 O 0.31058 0.50939 0.4054 0.0
O462 O 0.36536 0.65458 0.42839 0.0
O463 O 0.34133 0.58007 0.45142 0.0
O464 O 0.40045 0.55717 0.40035 0.0
O465 O 0.42502 0.65473 0.40735 0.0
O466 O 0.40911 0.78127 0.40877 0.0
O467 O 0.39057 0.78725 0.35777 0.0
O468 O 0.35717 0.63986 0.35498 0.0
O469 O 0.40677 0.66087 0.34157 0.0
O470 O 0.33195 0.73793 0.39344 0.0
O471 O 0.30232 0.64495 0.38801 0.0
H472 H 0.38669 0.41232 0.38272 0.0
H473 H 0.3963 0.30021 0.38808 0.0
H474 H 0.28839 0.27318 0.40522 0.0
H475 H 0.27868 0.38546 0.39853 0.0
H476 H 0.34163 0.86205 0.40062 0.0
H477 H 0.32436 0.97203 0.40638 0.0
H478 H 0.42733 1.02847 0.38245 0.0
H479 H 0.44431 0.91887 0.37688 0.0
Tb480 Tb 0.38103 0.37149 0.88687 0.0
Tb481 Tb 0.34394 0.48787 0.89961 0.0
C482 C 0.40285 0.26025 0.88197 0.0
C483 C 0.39104 0.19438 0.88338 0.0
C484 C 0.37042 0.1718 0.90958 0.0
C485 C 0.36199 0.10815 0.91131 0.0
C486 C 0.37385 0.06562 0.88684 0.0
C487 C 0.39403 0.08875 0.86045 0.0
C488 C 0.40247 0.15218 0.85877 0.0
C489 C 0.37987 0.45161 0.83524 0.0
C490 C 0.30113 0.36885 0.88614 0.0
C491 C 0.32208 0.59951 0.89942 0.0
C492 C 0.33328 0.66586 0.89864 0.0
C493 C 0.35279 0.69047 0.87213 0.0
C494 C 0.35979 0.75474 0.87062 0.0
C495 C 0.34724 0.79596 0.89539 0.0
C496 C 0.32867 0.77076 0.92234 0.0
C497 C 0.32169 0.70673 0.92384 0.0
C498 C 0.34601 0.4151 0.95355 0.0
C499 C 0.42554 0.48038 0.90639 0.0
O500 O 0.40279 0.29263 0.90974 0.0
O501 O 0.39289 0.2937 0.85654 0.0
O502 O 0.35538 0.43859 0.85478 0.0
O503 O 0.40573 0.41747 0.84382 0.0
O504 O 0.32946 0.33812 0.89203 0.0
O505 O 0.30077 0.43054 0.88399 0.0
O506 O 0.3263 0.56552 0.8725 0.0
O507 O 0.32822 0.56773 0.92654 0.0
O508 O 0.37021 0.42369 0.93266 0.0
O509 O 0.31992 0.44744 0.94365 0.0
O510 O 0.39826 0.51549 0.90024 0.0
O511 O 0.42369 0.41934 0.90711 0.0
H512 H 0.3613 0.20303 0.92904 0.0
H513 H 0.34692 0.092 0.93233 0.0
H514 H 0.40341 0.05767 0.84104 0.0
H515 H 0.41848 0.16819 0.83836 0.0
H516 H 0.36205 0.6604 0.85221 0.0
H517 H 0.37424 0.77246 0.84955 0.0
H518 H 0.31936 0.80065 0.94231 0.0
H519 H 0.30656 0.68923 0.94453 0.0
Tb520 Tb 0.60279 0.69921 0.87833 0.0
Tb521 Tb 0.64083 0.57461 0.88801 0.0
C522 C 0.58134 0.81041 0.8746 0.0
C523 C 0.59217 0.87559 0.88033 0.0
C524 C 0.62548 0.89069 0.89021 0.0
C525 C 0.6354 0.95339 0.8932 0.0
C526 C 0.61205 1.00206 0.88664 0.0
C527 C 0.57851 0.98644 0.87759 0.0
C528 C 0.56877 0.92397 0.87435 0.0
C529 C 0.60489 0.62028 0.8262 0.0
C530 C 0.68312 0.69823 0.8806 0.0
C531 C 0.66127 0.4663 0.87276 0.0
C532 C 0.65439 0.3998 0.88083 0.0
C533 C 0.62133 0.37479 0.87838 0.0
C534 C 0.61597 0.31049 0.88171 0.0
C535 C 0.64343 0.26939 0.88763 0.0
C536 C 0.67627 0.29486 0.89145 0.0
C537 C 0.68168 0.35922 0.88787 0.0
C538 C 0.63135 0.62559 0.94814 0.0
C539 C 0.56014 0.58825 0.90194 0.0
O540 O 0.57698 0.77491 0.9009 0.0
O541 O 0.59643 0.78058 0.84999 0.0
O542 O 0.62864 0.63231 0.84645 0.0
O543 O 0.57867 0.65391 0.8348 0.0
O544 O 0.65454 0.72971 0.88507 0.0
O545 O 0.684 0.63647 0.87752 0.0
O546 O 0.63712 0.49652 0.85699 0.0
O547 O 0.67611 0.50099 0.89545 0.0
O548 O 0.62204 0.64775 0.9201 0.0
O549 O 0.64684 0.57306 0.94236 0.0
O550 O 0.58635 0.55129 0.89382 0.0
O551 O 0.56237 0.6494 0.90188 0.0
H552 H 0.64383 0.85414 0.89539 0.0
H553 H 0.66126 0.96382 0.90076 0.0
H554 H 0.55996 1.02267 0.87225 0.0
H555 H 0.54295 0.91344 0.86666 0.0
H556 H 0.59967 0.40461 0.87292 0.0
H557 H 0.59035 0.29273 0.87855 0.0
H558 H 0.6979 0.26502 0.89693 0.0
H559 H 0.70741 0.37713 0.88984 0.0
Tb560 Tb 0.38167 0.70621 0.66831 0.0
Tb561 Tb 0.34303 0.58221 0.65831 0.0
C562 C 0.4038 0.81667 0.67135 0.0
C563 C 0.39377 0.88239 0.66528 0.0
C564 C 0.36018 0.89974 0.65721 0.0
C565 C 0.35129 0.96307 0.65377 0.0
C566 C 0.37598 1.01006 0.65776 0.0
C567 C 0.40965 0.99215 0.66538 0.0
C568 C 0.41839 0.92912 0.66913 0.0
C569 C 0.38013 0.62691 0.72012 0.0
C570 C 0.30123 0.70722 0.6673 0.0
C571 C 0.32254 0.47399 0.67275 0.0
C572 C 0.33044 0.40768 0.66456 0.0
C573 C 0.36418 0.38477 0.66482 0.0
C574 C 0.37091 0.3208 0.66103 0.0
C575 C 0.34414 0.27798 0.65653 0.0
C576 C 0.31044 0.30123 0.65561 0.0
C577 C 0.3037 0.36527 0.6596 0.0
C578 C 0.35349 0.63358 0.5984 0.0
C579 C 0.42386 0.59328 0.645 0.0
O580 O 0.40781 0.78028 0.64523 0.0
O581 O 0.38848 0.78822 0.69614 0.0
O582 O 0.35609 0.63919 0.70011 0.0
O583 O 0.40594 0.6612 0.71169 0.0
O584 O 0.32984 0.73792 0.66263 0.0
O585 O 0.29994 0.64532 0.66919 0.0
O586 O 0.34586 0.50431 0.68945 0.0
O587 O 0.30833 0.5087 0.64966 0.0
O588 O 0.3623 0.65483 0.62675 0.0
O589 O 0.33782 0.58138 0.60367 0.0
O590 O 0.39746 0.55725 0.65297 0.0
O591 O 0.42183 0.65451 0.64483 0.0
H592 H 0.34083 0.86451 0.65383 0.0
H593 H 0.32515 0.97532 0.64785 0.0
H594 H 0.42914 1.02706 0.66923 0.0
H595 H 0.44442 0.91688 0.67553 0.0
H596 H 0.38538 0.41601 0.66896 0.0
H597 H 0.39709 0.30473 0.66277 0.0
H598 H 0.2892 0.26977 0.65211 0.0
H599 H 0.27745 0.38149 0.65959 0.0
Tb600 Tb 0.60165 0.3677 0.65819 0.0
Tb601 Tb 0.63966 0.48358 0.64651 0.0
C602 C 0.57888 0.25726 0.66043 0.0
C603 C 0.58984 0.19062 0.65782 0.0
C604 C 0.57397 0.15161 0.63436 0.0
C605 C 0.5811 0.0874 0.63332 0.0
C606 C 0.60409 0.0601 0.65598 0.0
C607 C 0.62077 0.09951 0.67886 0.0
C608 C 0.61367 0.16391 0.67986 0.0
C609 C 0.60445 0.44568 0.71075 0.0
C610 C 0.68186 0.36251 0.65884 0.0
C611 C 0.66146 0.59479 0.64833 0.0
C612 C 0.64932 0.66066 0.6512 0.0
C613 C 0.66373 0.69989 0.67546 0.0
C614 C 0.65524 0.76357 0.67691 0.0
C615 C 0.63195 0.78979 0.6542 0.0
C616 C 0.61716 0.75027 0.63015 0.0
C617 C 0.62576 0.68656 0.62863 0.0
C618 C 0.63621 0.41273 0.59176 0.0
C619 C 0.55786 0.47973 0.64078 0.0
O620 O 0.57996 0.2909 0.63321 0.0
O621 O 0.5883 0.28913 0.68669 0.0
O622 O 0.62831 0.43234 0.69047 0.0
O623 O 0.57805 0.41305 0.70243 0.0
O624 O 0.65323 0.33257 0.65371 0.0
O625 O 0.68287 0.42424 0.6605 0.0
O626 O 0.65841 0.55927 0.67469 0.0
O627 O 0.65467 0.56441 0.62083 0.0
O628 O 0.6125 0.42164 0.61322 0.0
O629 O 0.66267 0.44376 0.60159 0.0
O630 O 0.58549 0.51337 0.64698 0.0
O631 O 0.55916 0.41865 0.63934 0.0
H632 H 0.55547 0.17068 0.61709 0.0
H633 H 0.56846 0.05906 0.61474 0.0
H634 H 0.63868 0.08026 0.69664 0.0
H635 H 0.62635 0.19244 0.69834 0.0
H636 H 0.68218 0.68147 0.69299 0.0
H637 H 0.66704 0.79243 0.69581 0.0
H638 H 0.59962 0.76894 0.61186 0.0
H639 H 0.61449 0.65796 0.60932 0.0
C640 C 0.24327 0.23167 0.17997 0.0
C641 C 0.21287 0.25128 0.16477 0.0
C642 C 0.27151 0.27165 0.18182 0.0
C643 C 0.27029 0.33286 0.16885 0.0
H644 H 0.24522 0.18545 0.1907 0.0
H645 H 0.29465 0.2543 0.19334 0.0
S646 S 0.19811 0.40515 0.12379 0.0
N647 N 0.1843 0.33525 0.13431 0.0
N648 N 0.23713 0.40982 0.13879 0.0
C649 C 0.24027 0.35295 0.15347 0.0
C650 C 0.21169 0.31224 0.1511 0.0
C651 C 0.7396 0.84664 0.15805 0.0
C652 C 0.77058 0.8242 0.17055 0.0
C653 C 0.71182 0.80654 0.15377 0.0
C654 C 0.71378 0.74239 0.16207 0.0
H655 H 0.73717 0.89482 0.15023 0.0
H656 H 0.68872 0.82631 0.14339 0.0
S657 S 0.78865 0.66219 0.19898 0.0
N658 N 0.80123 0.73486 0.19349 0.0
N659 N 0.74894 0.65978 0.18546 0.0
C660 C 0.74436 0.71993 0.17569 0.0
C661 C 0.7727 0.76077 0.18001 0.0
C662 C 0.27246 0.80562 0.37624 0.0
C663 C 0.27173 0.74515 0.3902 0.0
C664 C 0.24421 0.84611 0.37845 0.0
C665 C 0.21413 0.82773 0.39483 0.0
H666 H 0.29512 0.82183 0.36331 0.0
H667 H 0.24579 0.89154 0.36675 0.0
S668 S 0.20039 0.67609 0.43823 0.0
N669 N 0.23925 0.67017 0.42231 0.0
N670 N 0.18625 0.74571 0.42721 0.0
C671 C 0.21338 0.76757 0.40947 0.0
C672 C 0.24206 0.72635 0.40687 0.0
C673 C 0.77088 0.30345 0.40499 0.0
C674 C 0.77093 0.24347 0.39012 0.0
C675 C 0.7439 0.34577 0.40035 0.0
C676 C 0.71566 0.32948 0.381 0.0
H677 H 0.79186 0.31797 0.42065 0.0
H678 H 0.74458 0.39047 0.41303 0.0
S679 S 0.70348 0.18006 0.3353 0.0
N680 N 0.74054 0.17135 0.35422 0.0
N681 N 0.68959 0.2504 0.34574 0.0
C682 C 0.71539 0.27004 0.36569 0.0
C683 C 0.74296 0.22705 0.37031 0.0
C684 C 0.71346 0.79873 0.87058 0.0
C685 C 0.71473 0.73566 0.88071 0.0
C686 C 0.74151 0.8385 0.87442 0.0
C687 C 0.77201 0.81669 0.88849 0.0
H688 H 0.69041 0.8178 0.85972 0.0
H689 H 0.73923 0.88648 0.86624 0.0
S690 S 0.78846 0.65463 0.9188 0.0
N691 N 0.74888 0.65307 0.905 0.0
N692 N 0.80175 0.72656 0.91243 0.0
C693 C 0.77373 0.75306 0.89826 0.0
C694 C 0.74514 0.7128 0.89418 0.0
C695 C 0.2716 0.26708 0.87699 0.0
C696 C 0.26947 0.33152 0.88438 0.0
C697 C 0.24278 0.22849 0.87845 0.0
C698 C 0.21068 0.25272 0.88753 0.0
H699 H 0.2959 0.24589 0.87034 0.0
H700 H 0.2458 0.17934 0.87271 0.0
S701 S 0.19169 0.41881 0.90964 0.0
N702 N 0.23291 0.41777 0.90105 0.0
N703 N 0.17868 0.34651 0.90407 0.0
C704 C 0.20823 0.31759 0.89464 0.0
C705 C 0.23759 0.35667 0.89292 0.0
C706 C 0.71131 0.26344 0.67472 0.0
C707 C 0.71312 0.3239 0.6609 0.0
C708 C 0.73958 0.22285 0.67426 0.0
C709 C 0.77061 0.24098 0.65958 0.0
H710 H 0.68777 0.2473 0.68606 0.0
H711 H 0.73719 0.17741 0.68581 0.0
S712 S 0.78716 0.39232 0.61667 0.0
N713 N 0.74755 0.39862 0.6306 0.0
N714 N 0.80043 0.32261 0.62847 0.0
C715 C 0.77236 0.30106 0.64487 0.0
C716 C 0.74374 0.34251 0.64593 0.0
C717 C 0.21307 0.77063 0.64902 0.0
C718 C 0.21333 0.83012 0.66444 0.0
C719 C 0.24079 0.72928 0.65153 0.0
C720 C 0.27003 0.74608 0.66927 0.0
H721 H 0.19131 0.75578 0.63452 0.0
H722 H 0.23979 0.68494 0.63852 0.0
S723 S 0.28331 0.89406 0.71593 0.0
N724 N 0.24508 0.90212 0.69925 0.0
N725 N 0.29728 0.82464 0.70395 0.0
C726 C 0.27057 0.80487 0.68523 0.0
C727 C 0.2423 0.84694 0.68271 0.0
C728 C 0.07794 1.01682 0.29138 0.0
C729 C 0.10851 0.99509 0.30594 0.0
C730 C 0.07787 0.05835 0.26396 0.0
C731 C 0.10837 0.07993 0.24906 0.0
H732 H 0.05358 1.00192 0.30146 0.0
H733 H 0.05346 0.07341 0.25417 0.0
S734 S 0.19571 0.03735 0.27702 0.0
N735 N 0.17044 0.99874 0.30287 0.0
N736 N 0.17031 0.07596 0.25141 0.0
C737 C 0.13923 0.05835 0.26314 0.0
C738 C 0.1393 1.01636 0.29143 0.0
C739 C 0.90743 0.05864 0.291 0.0
C740 C 0.87693 0.07902 0.30664 0.0
C741 C 0.90737 1.01655 0.2637 0.0
C742 C 0.8768 0.99331 0.25008 0.0
H743 H 0.93179 0.07498 0.30012 0.0
H744 H 0.9317 1.00245 0.25298 0.0
S745 S 0.78965 1.03185 0.28138 0.0
N746 N 0.81504 0.07209 0.30615 0.0
N747 N 0.81491 0.99425 0.2548 0.0
C748 C 0.84602 1.01362 0.26526 0.0
C749 C 0.8461 0.05594 0.29345 0.0
C750 C 0.90641 0.05131 0.76604 0.0
C751 C 0.87578 0.0726 0.75141 0.0
C752 C 0.90656 1.00979 0.79348 0.0
C753 C 0.87609 0.9879 0.80828 0.0
H754 H 0.93073 0.06662 0.75607 0.0
H755 H 0.93099 0.99513 0.8034 0.0
S756 S 0.78866 1.0293 0.78003 0.0
N757 N 0.81386 0.06806 0.75419 0.0
N758 N 0.81413 0.99106 0.80573 0.0
C759 C 0.84519 1.00896 0.79405 0.0
C760 C 0.84504 0.05083 0.76574 0.0
C761 C 0.1347 0.05851 0.79314 0.0
C762 C 0.10389 0.07998 0.80795 0.0
C763 C 0.13492 1.01719 0.76519 0.0
C764 C 0.10435 0.99455 0.75106 0.0
H765 H 0.15887 0.07427 0.80297 0.0
H766 H 0.15926 1.00239 0.7548 0.0
S767 S 0.01678 1.0352 0.78063 0.0
N768 N 0.042 0.07439 0.80595 0.0
N769 N 0.04242 0.99724 0.75464 0.0
C770 C 0.07352 1.01536 0.76589 0.0
C771 C 0.07329 0.05776 0.79388 0.0
C772 C 0.57727 0.5189 0.28426 0.0
C773 C 0.60793 0.49629 0.29824 0.0
C774 C 0.57707 0.56062 0.25689 0.0
C775 C 0.60753 0.58117 0.24151 0.0
H776 H 0.55298 0.50455 0.29474 0.0
H777 H 0.55266 0.57648 0.24747 0.0
S778 S 0.695 0.53575 0.26783 0.0
N779 N 0.66984 0.49812 0.29418 0.0
N780 N 0.66948 0.57515 0.24269 0.0
C781 C 0.63844 0.55869 0.25506 0.0
C782 C 0.63865 0.51679 0.28332 0.0
C783 C 0.40926 0.56198 0.28888 0.0
C784 C 0.37883 0.5828 0.3045 0.0
C785 C 0.40907 0.52082 0.26116 0.0
C786 C 0.37842 0.49898 0.24702 0.0
H787 H 0.43369 0.57729 0.29834 0.0
H788 H 0.43336 0.50633 0.25051 0.0
S789 S 0.29138 0.53939 0.27792 0.0
N790 N 0.3169 0.57785 0.30335 0.0
N791 N 0.31652 0.50185 0.25121 0.0
C792 C 0.34772 0.51975 0.26218 0.0
C793 C 0.34792 0.56108 0.29081 0.0
C794 C 0.34897 0.5196 0.79203 0.0
C795 C 0.37961 0.49675 0.80609 0.0
C796 C 0.34902 0.56053 0.76404 0.0
C797 C 0.37974 0.58143 0.74912 0.0
H798 H 0.32468 0.50526 0.80248 0.0
H799 H 0.32479 0.57646 0.75426 0.0
S800 S 0.46701 0.53651 0.77647 0.0
N801 N 0.44154 0.49899 0.8025 0.0
N802 N 0.44164 0.57554 0.7511 0.0
C803 C 0.41043 0.55922 0.76319 0.0
C804 C 0.41037 0.51715 0.79123 0.0
C805 C 0.57542 0.5545 0.78234 0.0
C806 C 0.60604 0.57523 0.797 0.0
C807 C 0.57532 0.5128 0.75484 0.0
C808 C 0.60585 0.49034 0.74006 0.0
H809 H 0.55111 0.57031 0.79237 0.0
H810 H 0.55093 0.49844 0.74487 0.0
S811 S 0.69322 0.53009 0.76848 0.0
N812 N 0.66796 0.56947 0.7943 0.0
N813 N 0.66779 0.49232 0.74268 0.0
C814 C 0.63671 0.51093 0.75431 0.0
C815 C 0.6368 0.55285 0.78266 0.0
C816 C 0.10286 0.15648 1.01066 0.0
C817 C 0.13176 0.17536 0.99197 0.0
C818 C 0.10301 0.15634 0.04622 0.0
C819 C 0.13207 0.1751 0.06438 0.0
H820 H 0.0809 0.13773 0.99783 0.0
H821 H 0.08119 0.13742 0.05943 0.0
S822 S 0.21216 0.2371 0.02748 0.0
N823 N 0.18857 0.21953 0.99474 0.0
N824 N 0.18884 0.21933 0.06063 0.0
C825 C 0.15994 0.19817 0.04586 0.0
C826 C 0.1598 0.19828 1.01001 0.0
C827 C 0.82053 0.88503 1.01244 0.0
C828 C 0.85015 0.89783 0.99354 0.0
C829 C 0.82062 0.8851 0.04762 0.0
C830 C 0.85034 0.89797 0.06602 0.0
H831 H 0.79643 0.87779 0.99988 0.0
H832 H 0.79658 0.87797 0.0606 0.0
S833 S 0.93578 0.92926 0.02904 0.0
N834 N 0.91096 0.9194 0.99619 0.0
N835 N 0.91113 0.91959 0.06232 0.0
C836 C 0.8808 0.90696 0.0476 0.0
C837 C 0.88071 0.90687 1.01144 0.0
C838 C 0.15282 0.89935 0.51056 0.0
C839 C 0.12418 0.91915 0.49216 0.0
C840 C 0.15273 0.8992 0.5459 0.0
C841 C 0.124 0.91883 0.56462 0.0
H842 H 0.17658 0.88917 0.49758 0.0
H843 H 0.17643 0.88892 0.55864 0.0
S844 S 0.04187 0.97294 0.52884 0.0
N845 N 0.06567 0.95638 0.49567 0.0
N846 N 0.06551 0.95616 0.56174 0.0
C847 C 0.09445 0.93488 0.54657 0.0
C848 C 0.09453 0.93501 0.51051 0.0
C849 C 0.83154 0.17104 0.54719 0.0
C850 C 0.86005 0.14987 0.56535 0.0
C851 C 0.83149 0.17183 0.51186 0.0
C852 C 0.85995 0.15155 0.49293 0.0
H853 H 0.80794 0.18181 0.56033 0.0
H854 H 0.80784 0.18314 0.49927 0.0
S855 S 0.94167 0.09399 0.52808 0.0
N856 N 0.91816 0.11071 0.56142 0.0
N857 N 0.91807 0.11221 0.49537 0.0
C858 C 0.88941 0.13417 0.51077 0.0
C859 C 0.88946 0.13333 0.54681 0.0
C860 C 0.65809 0.66229 0.03628 0.0
C861 C 0.62829 0.65152 0.05529 0.0
C862 C 0.65779 0.66232 1.00101 0.0
C863 C 0.62769 0.65146 0.98282 0.0
H864 H 0.6825 0.66545 0.04876 0.0
H865 H 0.682 0.66539 0.98785 0.0
S866 S 0.54222 0.62351 1.02025 0.0
N867 N 0.5673 0.63275 0.05296 0.0
N868 N 0.56677 0.63258 0.98684 0.0
C869 C 0.59723 0.6448 1.00143 0.0
C870 C 0.59752 0.64487 0.03754 0.0
C871 C 0.32022 0.38935 1.00929 0.0
C872 C 0.34985 0.40198 0.99035 0.0
C873 C 0.32032 0.38957 0.04451 0.0
C874 C 0.35007 0.40245 0.06289 0.0
H875 H 0.29612 0.3821 0.99673 0.0
H876 H 0.29629 0.38251 0.05751 0.0
S877 S 0.43539 0.4344 0.02583 0.0
N878 N 0.4106 0.42411 0.993 0.0
N879 N 0.41078 0.42457 0.05911 0.0
C880 C 0.38049 0.41155 0.04442 0.0
C881 C 0.38038 0.41131 1.00826 0.0
C882 C 0.6594 0.39646 0.49956 0.0
C883 C 0.6294 0.41379 0.48267 0.0
C884 C 0.66027 0.3908 0.53466 0.0
C885 C 0.63126 0.40287 0.55481 0.0
H886 H 0.68313 0.39154 0.48569 0.0
H887 H 0.6846 0.38084 0.5463 0.0
S888 S 0.54558 0.4467 0.52288 0.0
N889 N 0.56936 0.44007 0.48875 0.0
N890 N 0.5708 0.42934 0.55456 0.0
C891 C 0.60044 0.4164 0.53811 0.0
C892 C 0.59961 0.42211 0.50216 0.0
C893 C 0.33105 0.67636 0.54477 0.0
C894 C 0.35958 0.65832 0.56384 0.0
C895 C 0.33189 0.6763 0.50944 0.0
C896 C 0.3613 0.65806 0.4913 0.0
H897 H 0.30685 0.68532 0.55722 0.0
H898 H 0.3083 0.68514 0.49621 0.0
S899 S 0.44342 0.60861 0.52891 0.0
N900 N 0.4187 0.62423 0.56156 0.0
N901 N 0.42024 0.62382 0.49548 0.0
C902 C 0.39068 0.64373 0.51001 0.0
C903 C 0.38984 0.64393 0.54609 0.0
C904 C 0.96309 0.07048 0.14935 0.0
C905 C 0.9597 1.00563 0.14608 0.0
C906 C -0.00473 0.09823 0.14956 0.0
C907 C 0.02537 0.06219 0.14672 0.0
H908 H 0.94081 0.1001 0.15263 0.0
H909 H -0.00357 0.14831 0.15301 0.0
S910 S 0.03066 0.89082 0.13462 0.0
N911 N 0.98941 0.90616 0.13751 0.0
N912 N 0.0498 0.95881 0.13834 0.0
C913 C 0.02243 0.99755 0.14219 0.0
C914 C 0.98962 0.96916 0.14172 0.0
C915 C 0.98799 0.09997 0.40575 0.0
C916 C 0.95917 0.06386 0.4139 0.0
C917 C 0.02087 0.07448 0.40636 0.0
C918 C 0.02623 1.01193 0.41529 0.0
H919 H 0.98515 0.14774 0.39739 0.0
H920 H 0.04197 0.10341 0.39833 0.0
S921 S 0.95962 0.90093 0.44441 0.0
N922 N 0.93825 0.96499 0.43491 0.0
N923 N 0.00014 0.9166 0.43667 0.0
C924 C -0.00223 0.97649 0.42575 0.0
C925 C 0.9642 1.00251 0.42482 0.0
C926 C -0.00611 0.09801 0.90571 0.0
C927 C 0.02386 0.06321 0.9116 0.0
C928 C 0.96183 0.06985 0.90618 0.0
C929 C 0.95852 1.00589 0.91272 0.0
H930 H -0.00485 0.14714 0.89956 0.0
H931 H 0.93968 0.0982 0.90035 0.0
S932 S 0.02901 0.89567 0.93368 0.0
N933 N 0.04818 0.9628 0.92674 0.0
N934 N 0.98792 0.90941 0.92822 0.0
C935 C 0.98823 0.97109 0.92029 0.0
C936 C 0.02092 0.99984 0.91951 0.0
C937 C 0.96297 0.99459 0.65006 0.0
C938 C 0.9575 0.05709 0.64113 0.0
C939 C -0.00413 0.96937 0.65058 0.0
C940 C 0.02453 1.00576 0.64231 0.0
H941 H 0.94198 0.96558 0.65828 0.0
H942 H -0.00112 0.92172 0.65909 0.0
S943 S 0.02363 0.16836 0.61133 0.0
N944 N 0.98319 0.15245 0.61931 0.0
N945 N 0.04517 0.10452 0.62088 0.0
C946 C 0.01935 0.06691 0.63118 0.0
C947 C 0.98577 0.09266 0.63035 0.0
C948 C 0.48941 0.47331 0.14371 0.0
C949 C 0.45992 0.51028 0.1394 0.0
C950 C 0.52202 0.49902 0.14159 0.0
C951 C 0.52647 0.56271 0.13491 0.0
H952 H 0.48745 0.42433 0.15003 0.0
H953 H 0.54374 0.46899 0.14651 0.0
S954 S 0.45744 0.67772 0.11668 0.0
N955 N 0.43714 0.61218 0.12484 0.0
N956 N 0.49844 0.66101 0.12023 0.0
C957 C 0.49717 0.59951 0.1284 0.0
C958 C 0.4639 0.57322 0.1309 0.0
C959 C 0.49031 0.6022 0.40358 0.0
C960 C 0.46137 0.56571 0.41086 0.0
C961 C 0.52307 0.57609 0.40286 0.0
C962 C 0.52824 0.5125 0.40956 0.0
H963 H 0.48763 0.65089 0.39683 0.0
H964 H 0.54421 0.60558 0.39556 0.0
S965 S 0.46141 0.39933 0.4357 0.0
N966 N 0.44028 0.46478 0.42873 0.0
N967 N 0.5019 0.41528 0.42802 0.0
C968 C 0.49973 0.47642 0.41925 0.0
C969 C 0.46628 0.50309 0.41967 0.0
C970 C 0.4887 0.47103 0.90387 0.0
C971 C 0.45956 0.50848 0.90953 0.0
C972 C 0.52134 0.49675 0.9031 0.0
C973 C 0.52614 0.56091 0.90813 0.0
H974 H 0.48635 0.42164 0.89862 0.0
H975 H 0.54272 0.46629 0.89725 0.0
S976 S 0.45837 0.67755 0.92895 0.0
N977 N 0.43765 0.61149 0.92359 0.0
N978 N 0.49908 0.66042 0.9228 0.0
C979 C 0.49732 0.59833 0.91598 0.0
C980 C 0.464 0.572 0.91643 0.0
C981 C 0.46215 0.5003 0.64364 0.0
C982 C 0.45781 0.56475 0.63915 0.0
C983 C 0.49461 0.47323 0.64297 0.0
C984 C 0.52406 0.50956 0.63795 0.0
H985 H 0.4405 0.47056 0.64888 0.0
H986 H 0.49656 0.42359 0.64769 0.0
S987 S 0.52655 0.6791 0.62033 0.0
N988 N 0.48569 0.66352 0.62589 0.0
N989 N 0.54676 0.61203 0.6252 0.0
C990 C 0.5201 0.57345 0.63169 0.0
C991 C 0.48695 0.60117 0.63206 0.0
C992 C 0.14964 0.66825 0.15336 0.0
C993 C 0.12456 0.71336 0.16178 0.0
C994 C 0.14288 0.60372 0.155 0.0
C995 C 0.11078 0.58112 0.16531 0.0
H996 H 0.17498 0.68288 0.14588 0.0
H997 H 0.16321 0.57121 0.14868 0.0
S998 S 0.03516 0.67892 0.18692 0.0
N999 N 0.06545 0.72999 0.17858 0.0
N1000 N 0.05296 0.60944 0.18201 0.0
C1001 C 0.0853 0.6256 0.17325 0.0
C1002 C 0.09212 0.69129 0.17143 0.0
C1003 C 0.88381 0.38472 0.17346 0.0
C1004 C 0.85114 0.36175 0.16573 0.0
C1005 C 0.89033 0.44924 0.17512 0.0
C1006 C 0.86449 0.49394 0.1692 0.0
H1007 H 0.90474 0.35253 0.17773 0.0
H1008 H 0.91606 0.46422 0.18064 0.0
S1009 S 0.77366 0.45869 0.15137 0.0
N1010 N 0.79204 0.3894 0.1543 0.0
N1011 N 0.80429 0.51009 0.15742 0.0
C1012 C 0.83154 0.47164 0.16206 0.0
C1013 C 0.82489 0.4059 0.16036 0.0
C1014 C 0.15419 0.41008 0.40355 0.0
C1015 C 0.1286 0.36572 0.39697 0.0
C1016 C 0.14702 0.47464 0.40308 0.0
C1017 C 0.11401 0.49726 0.39593 0.0
H1018 H 0.1802 0.39489 0.40794 0.0
H1019 H 0.16769 0.5071 0.40718 0.0
S1020 S 0.03703 0.40065 0.38192 0.0
N1021 N 0.06821 0.34933 0.38666 0.0
N1022 N 0.0549 0.46992 0.38556 0.0
C1023 C 0.08796 0.45332 0.39089 0.0
C1024 C 0.0952 0.38787 0.39146 0.0
C1025 C 0.87143 0.61299 0.42154 0.0
C1026 C 0.85796 0.57314 0.39688 0.0
C1027 C 0.86403 0.6773 0.42192 0.0
C1028 C 0.84275 0.7047 0.39771 0.0
H1029 H 0.88797 0.59433 0.44072 0.0
H1030 H 0.87514 0.70586 0.44135 0.0
S1031 S 0.80229 0.62191 0.32669 0.0
N1032 N 0.82306 0.56662 0.34695 0.0
N1033 N 0.8091 0.68695 0.34775 0.0
C1034 C 0.82892 0.66538 0.37304 0.0
C1035 C 0.8365 0.5999 0.37261 0.0
C1036 C 0.8351 0.39767 0.87762 0.0
C1037 C 0.85498 0.35736 0.89752 0.0
C1038 C 0.84108 0.46245 0.87672 0.0
C1039 C 0.86723 0.49008 0.89569 0.0
H1040 H 0.81443 0.37909 0.86281 0.0
H1041 H 0.82488 0.49124 0.86116 0.0
S1042 S 0.92832 0.40502 0.94995 0.0
N1043 N 0.90303 0.34995 0.93544 0.0
N1044 N 0.91426 0.47104 0.93374 0.0
C1045 C 0.88746 0.45026 0.9155 0.0
C1046 C 0.88136 0.38429 0.91641 0.0
C1047 C 0.09538 0.62298 0.87439 0.0
C1048 C 0.11473 0.58012 0.89327 0.0
C1049 C 0.10168 0.68764 0.87566 0.0
C1050 C 0.12765 0.71259 0.89587 0.0
H1051 H 0.07483 0.60648 0.85875 0.0
H1052 H 0.08577 0.71845 0.86095 0.0
S1053 S 0.18782 0.62028 0.94775 0.0
N1054 N 0.16232 0.56748 0.93134 0.0
N1055 N 0.1743 0.68831 0.93357 0.0
C1056 C 0.14754 0.67016 0.91447 0.0
C1057 C 0.14106 0.60433 0.91322 0.0
C1058 C 0.82864 0.65886 0.64784 0.0
C1059 C 0.8515 0.70309 0.661 0.0
C1060 C 0.83602 0.59445 0.64854 0.0
C1061 C 0.86659 0.57146 0.66238 0.0
H1062 H 0.80488 0.67418 0.63675 0.0
H1063 H 0.81772 0.56239 0.63793 0.0
S1064 S 0.93352 0.66692 0.70299 0.0
N1065 N 0.90506 0.71852 0.69017 0.0
N1066 N 0.91887 0.59815 0.6914 0.0
C1067 C 0.88944 0.61512 0.67598 0.0
C1068 C 0.88193 0.68059 0.6753 0.0
C1069 C 0.15005 0.40621 0.67814 0.0
C1070 C 0.13438 0.3659 0.65504 0.0
C1071 C 0.14288 0.47055 0.6786 0.0
C1072 C 0.11969 0.49753 0.65598 0.0
H1073 H 0.16737 0.38766 0.69668 0.0
H1074 H 0.1549 0.4991 0.6975 0.0
S1075 S 0.07459 0.41379 0.58809 0.0
N1076 N 0.09649 0.35865 0.60733 0.0
N1077 N 0.08306 0.4793 0.60813 0.0
C1078 C 0.1046 0.45807 0.6321 0.0
C1079 C 0.1119 0.39249 0.63165 0.0
C1080 C 0.65339 0.09811 0.14189 0.0
C1081 C 0.62006 0.0763 0.14805 0.0
C1082 C 0.66085 0.16233 0.14189 0.0
C1083 C 0.63531 0.20762 0.14809 0.0
H1084 H 0.67393 0.06525 0.13693 0.0
H1085 H 0.68689 0.17662 0.13697 0.0
S1086 S 0.54443 0.17509 0.16822 0.0
N1087 N 0.56162 0.10546 0.16211 0.0
N1088 N 0.57557 0.2255 0.16216 0.0
C1089 C 0.60191 0.1864 0.15444 0.0
C1090 C 0.59432 0.12108 0.15442 0.0
C1091 C 0.3871 0.89006 0.16442 0.0
C1092 C 0.35375 0.86698 0.16045 0.0
C1093 C 0.39357 0.95458 0.16629 0.0
C1094 C 0.36699 0.99915 0.16438 0.0
H1095 H 0.40853 0.85799 0.1656 0.0
H1096 H 0.41977 0.96967 0.16883 0.0
S1097 S 0.27464 0.96328 0.15707 0.0
N1098 N 0.29353 0.8942 0.15664 0.0
N1099 N 0.30564 1.01486 0.16026 0.0
C1100 C 0.33344 0.97667 0.16092 0.0
C1101 C 0.32686 0.91095 0.15897 0.0
C1102 C 0.60307 0.95797 0.40395 0.0
C1103 C 0.6254 1.00129 0.38911 0.0
C1104 C 0.6107 0.89383 0.40448 0.0
C1105 C 0.64094 0.86974 0.38996 0.0
H1106 H 0.57925 0.97376 0.41508 0.0
H1107 H 0.5925 0.86272 0.41616 0.0
S1108 S 0.70797 0.96353 0.34751 0.0
N1109 N 0.67925 1.01563 0.35971 0.0
N1110 N 0.69342 0.89527 0.36013 0.0
C1111 C 0.66386 0.9128 0.37556 0.0
C1112 C 0.65614 0.97834 0.37526 0.0
C1113 C 0.38448 0.11903 0.41461 0.0
C1114 C 0.36427 0.07653 0.39664 0.0
C1115 C 0.37699 0.18326 0.41504 0.0
C1116 C 0.34901 0.20805 0.39742 0.0
H1117 H 0.40646 0.10251 0.42838 0.0
H1118 H 0.39343 0.21384 0.42923 0.0
S1119 S 0.28872 0.11701 0.34534 0.0
N1120 N 0.31528 0.06408 0.36032 0.0
N1121 N 0.30138 0.1845 0.36079 0.0
C1122 C 0.32836 0.16593 0.37958 0.0
C1123 C 0.33593 0.10041 0.37927 0.0
C1124 C 0.38606 0.88806 0.8856 0.0
C1125 C 0.35329 0.86495 0.89308 0.0
C1126 C 0.39239 0.95259 0.8837 0.0
C1127 C 0.36624 0.9971 0.88911 0.0
H1128 H 0.40718 0.85598 0.88166 0.0
H1129 H 0.4182 0.96773 0.87836 0.0
S1130 S 0.27515 0.96124 0.90636 0.0
N1131 N 0.29385 0.89212 0.9039 0.0
N1132 N 0.30572 1.01285 0.90028 0.0
C1133 C 0.33321 0.97461 0.89607 0.0
C1134 C 0.32677 0.90888 0.89804 0.0
C1135 C 0.60907 0.1764 0.90632 0.0
C1136 C 0.63758 0.20031 0.88899 0.0
C1137 C 0.60155 0.11234 0.90608 0.0
C1138 C 0.62227 0.06912 0.88867 0.0
H1139 H 0.59222 0.20756 0.92007 0.0
H1140 H 0.57911 0.09652 0.91951 0.0
S1141 S 0.69944 0.10694 0.83849 0.0
N1142 N 0.68633 0.17502 0.85331 0.0
N1143 N 0.6724 0.05486 0.85334 0.0
C1144 C 0.65118 0.09203 0.8717 0.0
C1145 C 0.65877 0.1574 0.87175 0.0
C1146 C 0.33893 0.10241 0.67337 0.0
C1147 C 0.36672 0.0777 0.65505 0.0
C1148 C 0.33141 0.16675 0.67316 0.0
C1149 C 0.35126 0.20917 0.6545 0.0
H1150 H 0.32348 0.07203 0.68883 0.0
H1151 H 0.31045 0.18357 0.68857 0.0
S1152 S 0.42409 0.16698 0.59879 0.0
N1153 N 0.41236 0.10001 0.61552 0.0
N1154 N 0.39805 0.22029 0.61472 0.0
C1155 C 0.37829 0.18455 0.63503 0.0
C1156 C 0.38603 0.11915 0.63539 0.0
C1157 C 0.65068 0.90233 0.65726 0.0
C1158 C 0.62408 0.85843 0.65501 0.0
C1159 C 0.64405 0.96701 0.65767 0.0
C1160 C 0.61049 0.99087 0.65587 0.0
H1161 H 0.67699 0.88659 0.6582 0.0
H1162 H 0.66549 0.99863 0.6589 0.0
S1163 S 0.53144 0.89584 0.65299 0.0
N1164 N 0.56265 0.84373 0.65305 0.0
N1165 N 0.55016 0.96467 0.65402 0.0
C1166 C 0.5836 0.94741 0.65426 0.0
C1167 C 0.59038 0.88156 0.65377 0.0
loop_
_geom_bond_atom_site_label_1
_geom_bond_atom_site_label_2
_geom_bond_distance
_geom_bond_site_symmetry_2
_ccdc_geom_bond_type
Tb0 C2 2.809 1_545 S
Tb0 O20 2.484 1_545 S
Tb0 O21 2.440 1_545 S
Tb0 O22 2.658 . S
Tb0 O23 2.409 . S
Tb0 O24 2.378 . S
Tb0 O28 2.325 . S
Tb0 O31 2.341 . S
Tb1 C11 2.809 . S
Tb1 O22 2.325 . S
Tb1 O25 2.341 . S
Tb1 O26 2.484 . S
Tb1 O27 2.440 . S
Tb1 O28 2.658 . S
Tb1 O29 2.409 . S
Tb1 O30 2.378 . S
C2 Tb0 2.809 1_565 S
C2 C3 1.514 . S
C2 O20 1.248 . S
C2 O21 1.266 . S
C3 C2 1.514 . S
C3 C4 1.359 . S
C3 C8 1.348 . S
C4 C3 1.359 . S
C4 C5 1.380 . S
C4 H32 0.929 . S
C5 C4 1.380 . S
C5 C6 1.347 . S
C5 H33 0.931 . S
C6 C5 1.347 . S
C6 C7 1.369 . S
C7 C6 1.369 . S
C7 C8 1.408 . S
C7 H34 0.930 . S
C8 C3 1.348 . S
C8 C7 1.408 . S
C8 H35 0.930 . S
C9 O22 1.281 . S
C9 O23 1.254 . S
C10 O24 1.236 . S
C10 O25 1.266 . S
C11 Tb1 2.809 . S
C11 C12 1.514 . S
C11 O26 1.248 . S
C11 O27 1.266 . S
C12 C11 1.514 . S
C12 C13 1.359 . S
C12 C17 1.348 . S
C13 C12 1.359 . S
C13 C14 1.380 . S
C13 H36 0.929 . S
C14 C13 1.380 . S
C14 C15 1.347 . S
C14 H37 0.931 . S
C15 C14 1.347 . S
C15 C16 1.369 . S
C16 C15 1.369 . S
C16 C17 1.408 . S
C16 H38 0.930 . S
C17 C12 1.348 . S
C17 C16 1.408 . S
C17 H39 0.930 . S
C18 O28 1.281 . S
C18 O29 1.254 . S
C19 O30 1.236 . S
C19 O31 1.266 . S
O20 Tb0 2.484 1_565 S
O20 C2 1.248 . S
O21 Tb0 2.440 1_565 S
O21 C2 1.266 . S
O22 Tb0 2.658 . S
O22 Tb1 2.325 . S
O22 C9 1.281 . S
O23 Tb0 2.409 . S
O23 C9 1.254 . S
O24 Tb0 2.378 . S
O24 C10 1.236 . S
O25 Tb1 2.341 . S
O25 C10 1.266 . S
O26 Tb1 2.484 . S
O26 C11 1.248 . S
O27 Tb1 2.440 . S
O27 C11 1.266 . S
O28 Tb0 2.325 . S
O28 Tb1 2.658 . S
O28 C18 1.281 . S
O29 Tb1 2.409 . S
O29 C18 1.254 . S
O30 Tb1 2.378 . S
O30 C19 1.236 . S
O31 Tb0 2.341 . S
O31 C19 1.266 . S
H32 C4 0.929 . S
H33 C5 0.931 . S
H34 C7 0.930 . S
H35 C8 0.930 . S
H36 C13 0.929 . S
H37 C14 0.931 . S
H38 C16 0.930 . S
H39 C17 0.930 . S
Tb40 C42 2.809 1_565 S
Tb40 O60 2.484 1_565 S
Tb40 O61 2.440 1_565 S
Tb40 O62 2.658 . S
Tb40 O63 2.409 . S
Tb40 O64 2.378 . S
Tb40 O68 2.325 . S
Tb40 O71 2.341 . S
Tb41 C51 2.809 . S
Tb41 O62 2.325 . S
Tb41 O65 2.341 . S
Tb41 O66 2.484 . S
Tb41 O67 2.440 . S
Tb41 O68 2.658 . S
Tb41 O69 2.409 . S
Tb41 O70 2.378 . S
C42 Tb40 2.809 1_545 S
C42 C43 1.514 . S
C42 O60 1.248 . S
C42 O61 1.266 . S
C43 C42 1.514 . S
C43 C44 1.359 . S
C43 C48 1.348 . S
C44 C43 1.359 . S
C44 C45 1.380 . S
C44 H72 0.929 . S
C45 C44 1.380 . S
C45 C46 1.347 . S
C45 H73 0.931 . S
C46 C45 1.347 . S
C46 C47 1.369 . S
C47 C46 1.369 . S
C47 C48 1.408 . S
C47 H74 0.930 . S
C48 C43 1.348 . S
C48 C47 1.408 . S
C48 H75 0.930 . S
C49 O62 1.281 . S
C49 O63 1.254 . S
C50 O64 1.236 . S
C50 O65 1.266 . S
C51 Tb41 2.809 . S
C51 C52 1.514 . S
C51 O66 1.248 . S
C51 O67 1.266 . S
C52 C51 1.514 . S
C52 C53 1.359 . S
C52 C57 1.348 . S
C53 C52 1.359 . S
C53 C54 1.380 . S
C53 H76 0.929 . S
C54 C53 1.380 . S
C54 C55 1.347 . S
C54 H77 0.931 . S
C55 C54 1.347 . S
C55 C56 1.369 . S
C56 C55 1.369 . S
C56 C57 1.408 . S
C56 H78 0.930 . S
C57 C52 1.348 . S
C57 C56 1.408 . S
C57 H79 0.930 . S
C58 O68 1.281 . S
C58 O69 1.254 . S
C59 O70 1.236 . S
C59 O71 1.266 . S
O60 Tb40 2.484 1_545 S
O60 C42 1.248 . S
O61 Tb40 2.440 1_545 S
O61 C42 1.266 . S
O62 Tb40 2.658 . S
O62 Tb41 2.325 . S
O62 C49 1.281 . S
O63 Tb40 2.409 . S
O63 C49 1.254 . S
O64 Tb40 2.378 . S
O64 C50 1.236 . S
O65 Tb41 2.341 . S
O65 C50 1.266 . S
O66 Tb41 2.484 . S
O66 C51 1.248 . S
O67 Tb41 2.440 . S
O67 C51 1.266 . S
O68 Tb40 2.325 . S
O68 Tb41 2.658 . S
O68 C58 1.281 . S
O69 Tb41 2.409 . S
O69 C58 1.254 . S
O70 Tb41 2.378 . S
O70 C59 1.236 . S
O71 Tb40 2.341 . S
O71 C59 1.266 . S
H72 C44 0.929 . S
H73 C45 0.931 . S
H74 C47 0.930 . S
H75 C48 0.930 . S
H76 C53 0.929 . S
H77 C54 0.931 . S
H78 C56 0.930 . S
H79 C57 0.930 . S
Tb80 C82 2.809 1_565 S
Tb80 O100 2.484 1_565 S
Tb80 O101 2.440 1_565 S
Tb80 O102 2.658 . S
Tb80 O103 2.409 . S
Tb80 O104 2.378 . S
Tb80 O108 2.325 . S
Tb80 O111 2.341 . S
Tb81 C91 2.809 . S
Tb81 O102 2.325 . S
Tb81 O105 2.341 . S
Tb81 O106 2.484 . S
Tb81 O107 2.440 . S
Tb81 O108 2.658 . S
Tb81 O109 2.409 . S
Tb81 O110 2.378 . S
C82 Tb80 2.809 1_545 S
C82 C83 1.514 . S
C82 O100 1.248 . S
C82 O101 1.266 . S
C83 C82 1.514 . S
C83 C84 1.359 . S
C83 C88 1.348 . S
C84 C83 1.359 . S
C84 C85 1.380 . S
C84 H112 0.929 . S
C85 C84 1.380 . S
C85 C86 1.347 . S
C85 H113 0.931 . S
C86 C85 1.347 . S
C86 C87 1.369 . S
C87 C86 1.369 . S
C87 C88 1.408 . S
C87 H114 0.930 . S
C88 C83 1.348 . S
C88 C87 1.408 . S
C88 H115 0.930 . S
C89 O102 1.281 . S
C89 O103 1.254 . S
C90 O104 1.236 . S
C90 O105 1.266 . S
C91 Tb81 2.809 . S
C91 C92 1.514 . S
C91 O106 1.248 . S
C91 O107 1.266 . S
C92 C91 1.514 . S
C92 C93 1.359 . S
C92 C97 1.348 . S
C93 C92 1.359 . S
C93 C94 1.380 . S
C93 H116 0.929 . S
C94 C93 1.380 . S
C94 C95 1.347 . S
C94 H117 0.931 . S
C95 C94 1.347 . S
C95 C96 1.369 . S
C96 C95 1.369 . S
C96 C97 1.408 . S
C96 H118 0.930 . S
C97 C92 1.348 . S
C97 C96 1.408 . S
C97 H119 0.930 . S
C98 O108 1.281 . S
C98 O109 1.254 . S
C99 O110 1.236 . S
C99 O111 1.266 . S
O100 Tb80 2.484 1_545 S
O100 C82 1.248 . S
O101 Tb80 2.440 1_545 S
O101 C82 1.266 . S
O102 Tb80 2.658 . S
O102 Tb81 2.325 . S
O102 C89 1.281 . S
O103 Tb80 2.409 . S
O103 C89 1.254 . S
O104 Tb80 2.378 . S
O104 C90 1.236 . S
O105 Tb81 2.341 . S
O105 C90 1.266 . S
O106 Tb81 2.484 . S
O106 C91 1.248 . S
O107 Tb81 2.440 . S
O107 C91 1.266 . S
O108 Tb80 2.325 . S
O108 Tb81 2.658 . S
O108 C98 1.281 . S
O109 Tb81 2.409 . S
O109 C98 1.254 . S
O110 Tb81 2.378 . S
O110 C99 1.236 . S
O111 Tb80 2.341 . S
O111 C99 1.266 . S
H112 C84 0.929 . S
H113 C85 0.931 . S
H114 C87 0.930 . S
H115 C88 0.930 . S
H116 C93 0.929 . S
H117 C94 0.931 . S
H118 C96 0.930 . S
H119 C97 0.930 . S
Tb120 C122 2.809 1_545 S
Tb120 O140 2.484 1_545 S
Tb120 O141 2.440 1_545 S
Tb120 O142 2.658 . S
Tb120 O143 2.409 . S
Tb120 O144 2.378 . S
Tb120 O148 2.325 . S
Tb120 O151 2.341 . S
Tb121 C131 2.809 . S
Tb121 O142 2.325 . S
Tb121 O145 2.341 . S
Tb121 O146 2.484 . S
Tb121 O147 2.440 . S
Tb121 O148 2.658 . S
Tb121 O149 2.409 . S
Tb121 O150 2.378 . S
C122 Tb120 2.809 1_565 S
C122 C123 1.514 . S
C122 O140 1.248 . S
C122 O141 1.266 . S
C123 C122 1.514 . S
C123 C124 1.359 . S
C123 C128 1.348 . S
C124 C123 1.359 . S
C124 C125 1.380 . S
C124 H152 0.929 . S
C125 C124 1.380 . S
C125 C126 1.347 . S
C125 H153 0.931 . S
C126 C125 1.347 . S
C126 C127 1.369 . S
C127 C126 1.369 . S
C127 C128 1.408 . S
C127 H154 0.930 . S
C128 C123 1.348 . S
C128 C127 1.408 . S
C128 H155 0.930 . S
C129 O142 1.281 . S
C129 O143 1.254 . S
C130 O144 1.236 . S
C130 O145 1.266 . S
C131 Tb121 2.809 . S
C131 C132 1.514 . S
C131 O146 1.248 . S
C131 O147 1.266 . S
C132 C131 1.514 . S
C132 C133 1.359 . S
C132 C137 1.348 . S
C133 C132 1.359 . S
C133 C134 1.380 . S
C133 H156 0.929 . S
C134 C133 1.380 . S
C134 C135 1.347 . S
C134 H157 0.931 . S
C135 C134 1.347 . S
C135 C136 1.369 . S
C136 C135 1.369 . S
C136 C137 1.408 . S
C136 H158 0.930 . S
C137 C132 1.348 . S
C137 C136 1.408 . S
C137 H159 0.930 . S
C138 O148 1.281 . S
C138 O149 1.254 . S
C139 O150 1.236 . S
C139 O151 1.266 . S
O140 Tb120 2.484 1_565 S
O140 C122 1.248 . S
O141 Tb120 2.440 1_565 S
O141 C122 1.266 . S
O142 Tb120 2.658 . S
O142 Tb121 2.325 . S
O142 C129 1.281 . S
O143 Tb120 2.409 . S
O143 C129 1.254 . S
O144 Tb120 2.378 . S
O144 C130 1.236 . S
O145 Tb121 2.341 . S
O145 C130 1.266 . S
O146 Tb121 2.484 . S
O146 C131 1.248 . S
O147 Tb121 2.440 . S
O147 C131 1.266 . S
O148 Tb120 2.325 . S
O148 Tb121 2.658 . S
O148 C138 1.281 . S
O149 Tb121 2.409 . S
O149 C138 1.254 . S
O150 Tb121 2.378 . S
O150 C139 1.236 . S
O151 Tb120 2.341 . S
O151 C139 1.266 . S
H152 C124 0.929 . S
H153 C125 0.931 . S
H154 C127 0.930 . S
H155 C128 0.930 . S
H156 C133 0.929 . S
H157 C134 0.931 . S
H158 C136 0.930 . S
H159 C137 0.930 . S
Tb160 C162 2.809 . S
Tb160 O180 2.484 . S
Tb160 O181 2.440 . S
Tb160 O182 2.658 . S
Tb160 O183 2.409 . S
Tb160 O184 2.378 . S
Tb160 O188 2.325 . S
Tb160 O191 2.341 . S
Tb161 C171 2.809 1_565 S
Tb161 O182 2.325 . S
Tb161 O185 2.341 . S
Tb161 O186 2.484 1_565 S
Tb161 O187 2.440 1_565 S
Tb161 O188 2.658 . S
Tb161 O189 2.409 . S
Tb161 O190 2.378 . S
C162 Tb160 2.809 . S
C162 C163 1.514 . S
C162 O180 1.248 . S
C162 O181 1.266 . S
C163 C162 1.514 . S
C163 C164 1.359 . S
C163 C168 1.348 . S
C164 C163 1.359 . S
C164 C165 1.380 . S
C164 H192 0.929 . S
C165 C164 1.380 . S
C165 C166 1.347 . S
C165 H193 0.931 . S
C166 C165 1.347 . S
C166 C167 1.369 . S
C167 C166 1.369 . S
C167 C168 1.408 . S
C167 H194 0.930 . S
C168 C163 1.348 . S
C168 C167 1.408 . S
C168 H195 0.930 . S
C169 O182 1.281 . S
C169 O183 1.254 . S
C170 O184 1.236 . S
C170 O185 1.266 . S
C171 Tb161 2.809 1_545 S
C171 C172 1.514 . S
C171 O186 1.248 . S
C171 O187 1.266 . S
C172 C171 1.514 . S
C172 C173 1.359 . S
C172 C177 1.348 . S
C173 C172 1.359 . S
C173 C174 1.380 . S
C173 H196 0.929 . S
C174 C173 1.380 . S
C174 C175 1.347 . S
C174 H197 0.931 . S
C175 C174 1.347 . S
C175 C176 1.369 . S
C176 C175 1.369 . S
C176 C177 1.408 . S
C176 H198 0.930 . S
C177 C172 1.348 . S
C177 C176 1.408 . S
C177 H199 0.930 . S
C178 O188 1.281 . S
C178 O189 1.254 . S
C179 O190 1.236 . S
C179 O191 1.266 . S
O180 Tb160 2.484 . S
O180 C162 1.248 . S
O181 Tb160 2.440 . S
O181 C162 1.266 . S
O182 Tb160 2.658 . S
O182 Tb161 2.325 . S
O182 C169 1.281 . S
O183 Tb160 2.409 . S
O183 C169 1.254 . S
O184 Tb160 2.378 . S
O184 C170 1.236 . S
O185 Tb161 2.341 . S
O185 C170 1.266 . S
O186 Tb161 2.484 1_545 S
O186 C171 1.248 . S
O187 Tb161 2.440 1_545 S
O187 C171 1.266 . S
O188 Tb160 2.325 . S
O188 Tb161 2.658 . S
O188 C178 1.281 . S
O189 Tb161 2.409 . S
O189 C178 1.254 . S
O190 Tb161 2.378 . S
O190 C179 1.236 . S
O191 Tb160 2.341 . S
O191 C179 1.266 . S
H192 C164 0.929 . S
H193 C165 0.931 . S
H194 C167 0.930 . S
H195 C168 0.930 . S
H196 C173 0.929 . S
H197 C174 0.931 . S
H198 C176 0.930 . S
H199 C177 0.930 . S
Tb200 C202 2.809 . S
Tb200 O220 2.484 . S
Tb200 O221 2.440 . S
Tb200 O222 2.658 . S
Tb200 O223 2.409 . S
Tb200 O224 2.378 . S
Tb200 O228 2.325 . S
Tb200 O231 2.341 . S
Tb201 C211 2.809 1_545 S
Tb201 O222 2.325 . S
Tb201 O225 2.341 . S
Tb201 O226 2.484 1_545 S
Tb201 O227 2.440 1_545 S
Tb201 O228 2.658 . S
Tb201 O229 2.409 . S
Tb201 O230 2.378 . S
C202 Tb200 2.809 . S
C202 C203 1.514 . S
C202 O220 1.248 . S
C202 O221 1.266 . S
C203 C202 1.514 . S
C203 C204 1.359 . S
C203 C208 1.348 . S
C204 C203 1.359 . S
C204 C205 1.380 . S
C204 H232 0.929 . S
C205 C204 1.380 . S
C205 C206 1.347 . S
C205 H233 0.931 . S
C206 C205 1.347 . S
C206 C207 1.369 . S
C207 C206 1.369 . S
C207 C208 1.408 . S
C207 H234 0.930 . S
C208 C203 1.348 . S
C208 C207 1.408 . S
C208 H235 0.930 . S
C209 O222 1.281 . S
C209 O223 1.254 . S
C210 O224 1.236 . S
C210 O225 1.266 . S
C211 Tb201 2.809 1_565 S
C211 C212 1.514 . S
C211 O226 1.248 . S
C211 O227 1.266 . S
C212 C211 1.514 . S
C212 C213 1.359 . S
C212 C217 1.348 . S
C213 C212 1.359 . S
C213 C214 1.380 . S
C213 H236 0.929 . S
C214 C213 1.380 . S
C214 C215 1.347 . S
C214 H237 0.931 . S
C215 C214 1.347 . S
C215 C216 1.369 . S
C216 C215 1.369 . S
C216 C217 1.408 . S
C216 H238 0.930 . S
C217 C212 1.348 . S
C217 C216 1.408 . S
C217 H239 0.930 . S
C218 O228 1.281 . S
C218 O229 1.254 . S
C219 O230 1.236 . S
C219 O231 1.266 . S
O220 Tb200 2.484 . S
O220 C202 1.248 . S
O221 Tb200 2.440 . S
O221 C202 1.266 . S
O222 Tb200 2.658 . S
O222 Tb201 2.325 . S
O222 C209 1.281 . S
O223 Tb200 2.409 . S
O223 C209 1.254 . S
O224 Tb200 2.378 . S
O224 C210 1.236 . S
O225 Tb201 2.341 . S
O225 C210 1.266 . S
O226 Tb201 2.484 1_565 S
O226 C211 1.248 . S
O227 Tb201 2.440 1_565 S
O227 C211 1.266 . S
O228 Tb200 2.325 . S
O228 Tb201 2.658 . S
O228 C218 1.281 . S
O229 Tb201 2.409 . S
O229 C218 1.254 . S
O230 Tb201 2.378 . S
O230 C219 1.236 . S
O231 Tb200 2.341 . S
O231 C219 1.266 . S
H232 C204 0.929 . S
H233 C205 0.931 . S
H234 C207 0.930 . S
H235 C208 0.930 . S
H236 C213 0.929 . S
H237 C214 0.931 . S
H238 C216 0.930 . S
H239 C217 0.930 . S
Tb240 C242 2.809 . S
Tb240 O260 2.484 . S
Tb240 O261 2.440 . S
Tb240 O262 2.658 . S
Tb240 O263 2.409 . S
Tb240 O264 2.378 . S
Tb240 O268 2.325 . S
Tb240 O271 2.341 . S
Tb241 C251 2.809 1_545 S
Tb241 O262 2.325 . S
Tb241 O265 2.341 . S
Tb241 O266 2.484 1_545 S
Tb241 O267 2.440 1_545 S
Tb241 O268 2.658 . S
Tb241 O269 2.409 . S
Tb241 O270 2.378 . S
C242 Tb240 2.809 . S
C242 C243 1.514 . S
C242 O260 1.248 . S
C242 O261 1.266 . S
C243 C242 1.514 . S
C243 C244 1.359 . S
C243 C248 1.348 . S
C244 C243 1.359 . S
C244 C245 1.380 . S
C244 H272 0.929 . S
C245 C244 1.380 . S
C245 C246 1.347 . S
C245 H273 0.931 . S
C246 C245 1.347 . S
C246 C247 1.369 . S
C247 C246 1.369 . S
C247 C248 1.408 . S
C247 H274 0.930 . S
C248 C243 1.348 . S
C248 C247 1.408 . S
C248 H275 0.930 . S
C249 O262 1.281 . S
C249 O263 1.254 . S
C250 O264 1.236 . S
C250 O265 1.266 . S
C251 Tb241 2.809 1_565 S
C251 C252 1.514 . S
C251 O266 1.248 . S
C251 O267 1.266 . S
C252 C251 1.514 . S
C252 C253 1.359 . S
C252 C257 1.348 . S
C253 C252 1.359 . S
C253 C254 1.380 . S
C253 H276 0.929 . S
C254 C253 1.380 . S
C254 C255 1.347 . S
C254 H277 0.931 . S
C255 C254 1.347 . S
C255 C256 1.369 . S
C256 C255 1.369 . S
C256 C257 1.408 . S
C256 H278 0.930 . S
C257 C252 1.348 . S
C257 C256 1.408 . S
C257 H279 0.930 . S
C258 O268 1.281 . S
C258 O269 1.254 . S
C259 O270 1.236 . S
C259 O271 1.266 . S
O260 Tb240 2.484 . S
O260 C242 1.248 . S
O261 Tb240 2.440 . S
O261 C242 1.266 . S
O262 Tb240 2.658 . S
O262 Tb241 2.325 . S
O262 C249 1.281 . S
O263 Tb240 2.409 . S
O263 C249 1.254 . S
O264 Tb240 2.378 . S
O264 C250 1.236 . S
O265 Tb241 2.341 . S
O265 C250 1.266 . S
O266 Tb241 2.484 1_565 S
O266 C251 1.248 . S
O267 Tb241 2.440 1_565 S
O267 C251 1.266 . S
O268 Tb240 2.325 . S
O268 Tb241 2.658 . S
O268 C258 1.281 . S
O269 Tb241 2.409 . S
O269 C258 1.254 . S
O270 Tb241 2.378 . S
O270 C259 1.236 . S
O271 Tb240 2.341 . S
O271 C259 1.266 . S
H272 C244 0.929 . S
H273 C245 0.931 . S
H274 C247 0.930 . S
H275 C248 0.930 . S
H276 C253 0.929 . S
H277 C254 0.931 . S
H278 C256 0.930 . S
H279 C257 0.930 . S
Tb280 C282 2.809 . S
Tb280 O300 2.484 . S
Tb280 O301 2.440 . S
Tb280 O302 2.658 . S
Tb280 O303 2.409 . S
Tb280 O304 2.378 . S
Tb280 O308 2.325 . S
Tb280 O311 2.341 . S
Tb281 C291 2.809 1_565 S
Tb281 O302 2.325 . S
Tb281 O305 2.341 . S
Tb281 O306 2.484 1_565 S
Tb281 O307 2.440 1_565 S
Tb281 O308 2.658 . S
Tb281 O309 2.409 . S
Tb281 O310 2.378 . S
C282 Tb280 2.809 . S
C282 C283 1.514 . S
C282 O300 1.248 . S
C282 O301 1.266 . S
C283 C282 1.514 . S
C283 C284 1.359 . S
C283 C288 1.348 . S
C284 C283 1.359 . S
C284 C285 1.380 . S
C284 H312 0.929 . S
C285 C284 1.380 . S
C285 C286 1.347 . S
C285 H313 0.931 . S
C286 C285 1.347 . S
C286 C287 1.369 . S
C287 C286 1.369 . S
C287 C288 1.408 . S
C287 H314 0.930 . S
C288 C283 1.348 . S
C288 C287 1.408 . S
C288 H315 0.930 . S
C289 O302 1.281 . S
C289 O303 1.254 . S
C290 O304 1.236 . S
C290 O305 1.266 . S
C291 Tb281 2.809 1_545 S
C291 C292 1.514 . S
C291 O306 1.248 . S
C291 O307 1.266 . S
C292 C291 1.514 . S
C292 C293 1.359 . S
C292 C297 1.348 . S
C293 C292 1.359 . S
C293 C294 1.380 . S
C293 H316 0.929 . S
C294 C293 1.380 . S
C294 C295 1.347 . S
C294 H317 0.931 . S
C295 C294 1.347 . S
C295 C296 1.369 . S
C296 C295 1.369 . S
C296 C297 1.408 . S
C296 H318 0.930 . S
C297 C292 1.348 . S
C297 C296 1.408 . S
C297 H319 0.930 . S
C298 O308 1.281 . S
C298 O309 1.254 . S
C299 O310 1.236 . S
C299 O311 1.266 . S
O300 Tb280 2.484 . S
O300 C282 1.248 . S
O301 Tb280 2.440 . S
O301 C282 1.266 . S
O302 Tb280 2.658 . S
O302 Tb281 2.325 . S
O302 C289 1.281 . S
O303 Tb280 2.409 . S
O303 C289 1.254 . S
O304 Tb280 2.378 . S
O304 C290 1.236 . S
O305 Tb281 2.341 . S
O305 C290 1.266 . S
O306 Tb281 2.484 1_545 S
O306 C291 1.248 . S
O307 Tb281 2.440 1_545 S
O307 C291 1.266 . S
O308 Tb280 2.325 . S
O308 Tb281 2.658 . S
O308 C298 1.281 . S
O309 Tb281 2.409 . S
O309 C298 1.254 . S
O310 Tb281 2.378 . S
O310 C299 1.236 . S
O311 Tb280 2.341 . S
O311 C299 1.266 . S
H312 C284 0.929 . S
H313 C285 0.931 . S
H314 C287 0.930 . S
H315 C288 0.930 . S
H316 C293 0.929 . S
H317 C294 0.931 . S
H318 C296 0.930 . S
H319 C297 0.930 . S
Tb320 C322 2.809 . S
Tb320 O340 2.484 . S
Tb320 O341 2.440 . S
Tb320 O342 2.658 . S
Tb320 O343 2.409 . S
Tb320 O344 2.378 . S
Tb320 O348 2.325 . S
Tb320 O351 2.341 . S
Tb321 C331 2.809 . S
Tb321 O342 2.325 . S
Tb321 O345 2.341 . S
Tb321 O346 2.484 . S
Tb321 O347 2.440 . S
Tb321 O348 2.658 . S
Tb321 O349 2.409 . S
Tb321 O350 2.378 . S
C322 Tb320 2.809 . S
C322 C323 1.514 . S
C322 O340 1.248 . S
C322 O341 1.266 . S
C323 C322 1.514 . S
C323 C324 1.359 . S
C323 C328 1.348 . S
C324 C323 1.359 . S
C324 C325 1.380 . S
C324 H352 0.929 . S
C325 C324 1.380 . S
C325 C326 1.347 . S
C325 H353 0.931 . S
C326 C325 1.347 . S
C326 C327 1.369 . S
C327 C326 1.369 . S
C327 C328 1.408 . S
C327 H354 0.930 . S
C328 C323 1.348 . S
C328 C327 1.408 . S
C328 H355 0.930 . S
C329 O342 1.281 . S
C329 O343 1.254 . S
C330 O344 1.236 . S
C330 O345 1.266 . S
C331 Tb321 2.809 . S
C331 C332 1.514 . S
C331 O346 1.248 . S
C331 O347 1.266 . S
C332 C331 1.514 . S
C332 C333 1.359 . S
C332 C337 1.348 . S
C333 C332 1.359 . S
C333 C334 1.380 . S
C333 H356 0.929 . S
C334 C333 1.380 . S
C334 C335 1.347 . S
C334 H357 0.931 . S
C335 C334 1.347 . S
C335 C336 1.369 . S
C336 C335 1.369 . S
C336 C337 1.408 . S
C336 H358 0.930 . S
C337 C332 1.348 . S
C337 C336 1.408 . S
C337 H359 0.930 . S
C338 O348 1.281 . S
C338 O349 1.254 . S
C339 O350 1.236 . S
C339 O351 1.266 . S
O340 Tb320 2.484 . S
O340 C322 1.248 . S
O341 Tb320 2.440 . S
O341 C322 1.266 . S
O342 Tb320 2.658 . S
O342 Tb321 2.325 . S
O342 C329 1.281 . S
O343 Tb320 2.409 . S
O343 C329 1.254 . S
O344 Tb320 2.378 . S
O344 C330 1.236 . S
O345 Tb321 2.341 . S
O345 C330 1.266 . S
O346 Tb321 2.484 . S
O346 C331 1.248 . S
O347 Tb321 2.440 . S
O347 C331 1.266 . S
O348 Tb320 2.325 . S
O348 Tb321 2.658 . S
O348 C338 1.281 . S
O349 Tb321 2.409 . S
O349 C338 1.254 . S
O350 Tb321 2.378 . S
O350 C339 1.236 . S
O351 Tb320 2.341 . S
O351 C339 1.266 . S
H352 C324 0.929 . S
H353 C325 0.931 . S
H354 C327 0.930 . S
H355 C328 0.930 . S
H356 C333 0.929 . S
H357 C334 0.931 . S
H358 C336 0.930 . S
H359 C337 0.930 . S
Tb360 C362 2.809 . S
Tb360 O380 2.484 . S
Tb360 O381 2.440 . S
Tb360 O382 2.658 . S
Tb360 O383 2.409 . S
Tb360 O384 2.378 . S
Tb360 O388 2.325 . S
Tb360 O391 2.341 . S
Tb361 C371 2.809 . S
Tb361 O382 2.325 . S
Tb361 O385 2.341 . S
Tb361 O386 2.484 . S
Tb361 O387 2.440 . S
Tb361 O388 2.658 . S
Tb361 O389 2.409 . S
Tb361 O390 2.378 . S
C362 Tb360 2.809 . S
C362 C363 1.514 . S
C362 O380 1.248 . S
C362 O381 1.266 . S
C363 C362 1.514 . S
C363 C364 1.359 . S
C363 C368 1.348 . S
C364 C363 1.359 . S
C364 C365 1.380 . S
C364 H392 0.929 . S
C365 C364 1.380 . S
C365 C366 1.347 . S
C365 H393 0.931 . S
C366 C365 1.347 . S
C366 C367 1.369 . S
C367 C366 1.369 . S
C367 C368 1.408 . S
C367 H394 0.930 . S
C368 C363 1.348 . S
C368 C367 1.408 . S
C368 H395 0.930 . S
C369 O382 1.281 . S
C369 O383 1.254 . S
C370 O384 1.236 . S
C370 O385 1.266 . S
C371 Tb361 2.809 . S
C371 C372 1.514 . S
C371 O386 1.248 . S
C371 O387 1.266 . S
C372 C371 1.514 . S
C372 C373 1.359 . S
C372 C377 1.348 . S
C373 C372 1.359 . S
C373 C374 1.380 . S
C373 H396 0.929 . S
C374 C373 1.380 . S
C374 C375 1.347 . S
C374 H397 0.931 . S
C375 C374 1.347 . S
C375 C376 1.369 . S
C376 C375 1.369 . S
C376 C377 1.408 . S
C376 H398 0.930 . S
C377 C372 1.348 . S
C377 C376 1.408 . S
C377 H399 0.930 . S
C378 O388 1.281 . S
C378 O389 1.254 . S
C379 O390 1.236 . S
C379 O391 1.266 . S
O380 Tb360 2.484 . S
O380 C362 1.248 . S
O381 Tb360 2.440 . S
O381 C362 1.266 . S
O382 Tb360 2.658 . S
O382 Tb361 2.325 . S
O382 C369 1.281 . S
O383 Tb360 2.409 . S
O383 C369 1.254 . S
O384 Tb360 2.378 . S
O384 C370 1.236 . S
O385 Tb361 2.341 . S
O385 C370 1.266 . S
O386 Tb361 2.484 . S
O386 C371 1.248 . S
O387 Tb361 2.440 . S
O387 C371 1.266 . S
O388 Tb360 2.325 . S
O388 Tb361 2.658 . S
O388 C378 1.281 . S
O389 Tb361 2.409 . S
O389 C378 1.254 . S
O390 Tb361 2.378 . S
O390 C379 1.236 . S
O391 Tb360 2.341 . S
O391 C379 1.266 . S
H392 C364 0.929 . S
H393 C365 0.931 . S
H394 C367 0.930 . S
H395 C368 0.930 . S
H396 C373 0.929 . S
H397 C374 0.931 . S
H398 C376 0.930 . S
H399 C377 0.930 . S
Tb400 C402 2.809 . S
Tb400 O420 2.484 . S
Tb400 O421 2.440 . S
Tb400 O422 2.658 . S
Tb400 O423 2.409 . S
Tb400 O424 2.378 . S
Tb400 O428 2.325 . S
Tb400 O431 2.341 . S
Tb401 C411 2.809 . S
Tb401 O422 2.325 . S
Tb401 O425 2.341 . S
Tb401 O426 2.484 . S
Tb401 O427 2.440 . S
Tb401 O428 2.658 . S
Tb401 O429 2.409 . S
Tb401 O430 2.378 . S
C402 Tb400 2.809 . S
C402 C403 1.514 . S
C402 O420 1.248 . S
C402 O421 1.266 . S
C403 C402 1.514 . S
C403 C404 1.359 . S
C403 C408 1.348 . S
C404 C403 1.359 . S
C404 C405 1.380 . S
C404 H432 0.929 . S
C405 C404 1.380 . S
C405 C406 1.347 . S
C405 H433 0.931 . S
C406 C405 1.347 . S
C406 C407 1.369 . S
C407 C406 1.369 . S
C407 C408 1.408 . S
C407 H434 0.930 . S
C408 C403 1.348 . S
C408 C407 1.408 . S
C408 H435 0.930 . S
C409 O422 1.281 . S
C409 O423 1.254 . S
C410 O424 1.236 . S
C410 O425 1.266 . S
C411 Tb401 2.809 . S
C411 C412 1.514 . S
C411 O426 1.248 . S
C411 O427 1.266 . S
C412 C411 1.514 . S
C412 C413 1.359 . S
C412 C417 1.348 . S
C413 C412 1.359 . S
C413 C414 1.380 . S
C413 H436 0.929 . S
C414 C413 1.380 . S
C414 C415 1.347 . S
C414 H437 0.931 . S
C415 C414 1.347 . S
C415 C416 1.369 . S
C416 C415 1.369 . S
C416 C417 1.408 . S
C416 H438 0.930 . S
C417 C412 1.348 . S
C417 C416 1.408 . S
C417 H439 0.930 . S
C418 O428 1.281 . S
C418 O429 1.254 . S
C419 O430 1.236 . S
C419 O431 1.266 . S
O420 Tb400 2.484 . S
O420 C402 1.248 . S
O421 Tb400 2.440 . S
O421 C402 1.266 . S
O422 Tb400 2.658 . S
O422 Tb401 2.325 . S
O422 C409 1.281 . S
O423 Tb400 2.409 . S
O423 C409 1.254 . S
O424 Tb400 2.378 . S
O424 C410 1.236 . S
O425 Tb401 2.341 . S
O425 C410 1.266 . S
O426 Tb401 2.484 . S
O426 C411 1.248 . S
O427 Tb401 2.440 . S
O427 C411 1.266 . S
O428 Tb400 2.325 . S
O428 Tb401 2.658 . S
O428 C418 1.281 . S
O429 Tb401 2.409 . S
O429 C418 1.254 . S
O430 Tb401 2.378 . S
O430 C419 1.236 . S
O431 Tb400 2.341 . S
O431 C419 1.266 . S
H432 C404 0.929 . S
H433 C405 0.931 . S
H434 C407 0.930 . S
H435 C408 0.930 . S
H436 C413 0.929 . S
H437 C414 0.931 . S
H438 C416 0.930 . S
H439 C417 0.930 . S
Tb440 C442 2.809 . S
Tb440 O460 2.484 . S
Tb440 O461 2.440 . S
Tb440 O462 2.658 . S
Tb440 O463 2.409 . S
Tb440 O464 2.378 . S
Tb440 O468 2.325 . S
Tb440 O471 2.341 . S
Tb441 C451 2.809 . S
Tb441 O462 2.325 . S
Tb441 O465 2.341 . S
Tb441 O466 2.484 . S
Tb441 O467 2.440 . S
Tb441 O468 2.658 . S
Tb441 O469 2.409 . S
Tb441 O470 2.378 . S
C442 Tb440 2.809 . S
C442 C443 1.514 . S
C442 O460 1.248 . S
C442 O461 1.266 . S
C443 C442 1.514 . S
C443 C444 1.359 . S
C443 C448 1.348 . S
C444 C443 1.359 . S
C444 C445 1.380 . S
C444 H472 0.929 . S
C445 C444 1.380 . S
C445 C446 1.347 . S
C445 H473 0.931 . S
C446 C445 1.347 . S
C446 C447 1.369 . S
C447 C446 1.369 . S
C447 C448 1.408 . S
C447 H474 0.930 . S
C448 C443 1.348 . S
C448 C447 1.408 . S
C448 H475 0.930 . S
C449 O462 1.281 . S
C449 O463 1.254 . S
C450 O464 1.236 . S
C450 O465 1.266 . S
C451 Tb441 2.809 . S
C451 C452 1.514 . S
C451 O466 1.248 . S
C451 O467 1.266 . S
C452 C451 1.514 . S
C452 C453 1.359 . S
C452 C457 1.348 . S
C453 C452 1.359 . S
C453 C454 1.380 . S
C453 H476 0.929 . S
C454 C453 1.380 . S
C454 C455 1.347 . S
C454 H477 0.931 . S
C455 C454 1.347 . S
C455 C456 1.369 . S
C456 C455 1.369 . S
C456 C457 1.408 . S
C456 H478 0.930 . S
C457 C452 1.348 . S
C457 C456 1.408 . S
C457 H479 0.930 . S
C458 O468 1.281 . S
C458 O469 1.254 . S
C459 O470 1.236 . S
C459 O471 1.266 . S
O460 Tb440 2.484 . S
O460 C442 1.248 . S
O461 Tb440 2.440 . S
O461 C442 1.266 . S
O462 Tb440 2.658 . S
O462 Tb441 2.325 . S
O462 C449 1.281 . S
O463 Tb440 2.409 . S
O463 C449 1.254 . S
O464 Tb440 2.378 . S
O464 C450 1.236 . S
O465 Tb441 2.341 . S
O465 C450 1.266 . S
O466 Tb441 2.484 . S
O466 C451 1.248 . S
O467 Tb441 2.440 . S
O467 C451 1.266 . S
O468 Tb440 2.325 . S
O468 Tb441 2.658 . S
O468 C458 1.281 . S
O469 Tb441 2.409 . S
O469 C458 1.254 . S
O470 Tb441 2.378 . S
O470 C459 1.236 . S
O471 Tb440 2.341 . S
O471 C459 1.266 . S
H472 C444 0.929 . S
H473 C445 0.931 . S
H474 C447 0.930 . S
H475 C448 0.930 . S
H476 C453 0.929 . S
H477 C454 0.931 . S
H478 C456 0.930 . S
H479 C457 0.930 . S
Tb480 C482 2.809 . S
Tb480 O500 2.484 . S
Tb480 O501 2.440 . S
Tb480 O502 2.658 . S
Tb480 O503 2.409 . S
Tb480 O504 2.378 . S
Tb480 O508 2.325 . S
Tb480 O511 2.341 . S
Tb481 C491 2.809 . S
Tb481 O502 2.325 . S
Tb481 O505 2.341 . S
Tb481 O506 2.484 . S
Tb481 O507 2.440 . S
Tb481 O508 2.658 . S
Tb481 O509 2.409 . S
Tb481 O510 2.378 . S
C482 Tb480 2.809 . S
C482 C483 1.514 . S
C482 O500 1.248 . S
C482 O501 1.266 . S
C483 C482 1.514 . S
C483 C484 1.359 . S
C483 C488 1.348 . S
C484 C483 1.359 . S
C484 C485 1.380 . S
C484 H512 0.929 . S
C485 C484 1.380 . S
C485 C486 1.347 . S
C485 H513 0.931 . S
C486 C485 1.347 . S
C486 C487 1.369 . S
C487 C486 1.369 . S
C487 C488 1.408 . S
C487 H514 0.930 . S
C488 C483 1.348 . S
C488 C487 1.408 . S
C488 H515 0.930 . S
C489 O502 1.281 . S
C489 O503 1.254 . S
C490 O504 1.236 . S
C490 O505 1.266 . S
C491 Tb481 2.809 . S
C491 C492 1.514 . S
C491 O506 1.248 . S
C491 O507 1.266 . S
C492 C491 1.514 . S
C492 C493 1.359 . S
C492 C497 1.348 . S
C493 C492 1.359 . S
C493 C494 1.380 . S
C493 H516 0.929 . S
C494 C493 1.380 . S
C494 C495 1.347 . S
C494 H517 0.931 . S
C495 C494 1.347 . S
C495 C496 1.369 . S
C496 C495 1.369 . S
C496 C497 1.408 . S
C496 H518 0.930 . S
C497 C492 1.348 . S
C497 C496 1.408 . S
C497 H519 0.930 . S
C498 O508 1.281 . S
C498 O509 1.254 . S
C499 O510 1.236 . S
C499 O511 1.266 . S
O500 Tb480 2.484 . S
O500 C482 1.248 . S
O501 Tb480 2.440 . S
O501 C482 1.266 . S
O502 Tb480 2.658 . S
O502 Tb481 2.325 . S
O502 C489 1.281 . S
O503 Tb480 2.409 . S
O503 C489 1.254 . S
O504 Tb480 2.378 . S
O504 C490 1.236 . S
O505 Tb481 2.341 . S
O505 C490 1.266 . S
O506 Tb481 2.484 . S
O506 C491 1.248 . S
O507 Tb481 2.440 . S
O507 C491 1.266 . S
O508 Tb480 2.325 . S
O508 Tb481 2.658 . S
O508 C498 1.281 . S
O509 Tb481 2.409 . S
O509 C498 1.254 . S
O510 Tb481 2.378 . S
O510 C499 1.236 . S
O511 Tb480 2.341 . S
O511 C499 1.266 . S
H512 C484 0.929 . S
H513 C485 0.931 . S
H514 C487 0.930 . S
H515 C488 0.930 . S
H516 C493 0.929 . S
H517 C494 0.931 . S
H518 C496 0.930 . S
H519 C497 0.930 . S
Tb520 C522 2.809 . S
Tb520 O540 2.484 . S
Tb520 O541 2.440 . S
Tb520 O542 2.658 . S
Tb520 O543 2.409 . S
Tb520 O544 2.378 . S
Tb520 O548 2.325 . S
Tb520 O551 2.341 . S
Tb521 C531 2.809 . S
Tb521 O542 2.325 . S
Tb521 O545 2.341 . S
Tb521 O546 2.484 . S
Tb521 O547 2.440 . S
Tb521 O548 2.658 . S
Tb521 O549 2.409 . S
Tb521 O550 2.378 . S
C522 Tb520 2.809 . S
C522 C523 1.514 . S
C522 O540 1.248 . S
C522 O541 1.266 . S
C523 C522 1.514 . S
C523 C524 1.359 . S
C523 C528 1.348 . S
C524 C523 1.359 . S
C524 C525 1.380 . S
C524 H552 0.929 . S
C525 C524 1.380 . S
C525 C526 1.347 . S
C525 H553 0.931 . S
C526 C525 1.347 . S
C526 C527 1.369 . S
C527 C526 1.369 . S
C527 C528 1.408 . S
C527 H554 0.930 . S
C528 C523 1.348 . S
C528 C527 1.408 . S
C528 H555 0.930 . S
C529 O542 1.281 . S
C529 O543 1.254 . S
C530 O544 1.236 . S
C530 O545 1.266 . S
C531 Tb521 2.809 . S
C531 C532 1.514 . S
C531 O546 1.248 . S
C531 O547 1.266 . S
C532 C531 1.514 . S
C532 C533 1.359 . S
C532 C537 1.348 . S
C533 C532 1.359 . S
C533 C534 1.380 . S
C533 H556 0.929 . S
C534 C533 1.380 . S
C534 C535 1.347 . S
C534 H557 0.931 . S
C535 C534 1.347 . S
C535 C536 1.369 . S
C536 C535 1.369 . S
C536 C537 1.408 . S
C536 H558 0.930 . S
C537 C532 1.348 . S
C537 C536 1.408 . S
C537 H559 0.930 . S
C538 O548 1.281 . S
C538 O549 1.254 . S
C539 O550 1.236 . S
C539 O551 1.266 . S
O540 Tb520 2.484 . S
O540 C522 1.248 . S
O541 Tb520 2.440 . S
O541 C522 1.266 . S
O542 Tb520 2.658 . S
O542 Tb521 2.325 . S
O542 C529 1.281 . S
O543 Tb520 2.409 . S
O543 C529 1.254 . S
O544 Tb520 2.378 . S
O544 C530 1.236 . S
O545 Tb521 2.341 . S
O545 C530 1.266 . S
O546 Tb521 2.484 . S
O546 C531 1.248 . S
O547 Tb521 2.440 . S
O547 C531 1.266 . S
O548 Tb520 2.325 . S
O548 Tb521 2.658 . S
O548 C538 1.281 . S
O549 Tb521 2.409 . S
O549 C538 1.254 . S
O550 Tb521 2.378 . S
O550 C539 1.236 . S
O551 Tb520 2.341 . S
O551 C539 1.266 . S
H552 C524 0.929 . S
H553 C525 0.931 . S
H554 C527 0.930 . S
H555 C528 0.930 . S
H556 C533 0.929 . S
H557 C534 0.931 . S
H558 C536 0.930 . S
H559 C537 0.930 . S
Tb560 C562 2.809 . S
Tb560 O580 2.484 . S
Tb560 O581 2.440 . S
Tb560 O582 2.658 . S
Tb560 O583 2.409 . S
Tb560 O584 2.378 . S
Tb560 O588 2.325 . S
Tb560 O591 2.341 . S
Tb561 C571 2.809 . S
Tb561 O582 2.325 . S
Tb561 O585 2.341 . S
Tb561 O586 2.484 . S
Tb561 O587 2.440 . S
Tb561 O588 2.658 . S
Tb561 O589 2.409 . S
Tb561 O590 2.378 . S
C562 Tb560 2.809 . S
C562 C563 1.514 . S
C562 O580 1.248 . S
C562 O581 1.266 . S
C563 C562 1.514 . S
C563 C564 1.359 . S
C563 C568 1.348 . S
C564 C563 1.359 . S
C564 C565 1.380 . S
C564 H592 0.929 . S
C565 C564 1.380 . S
C565 C566 1.347 . S
C565 H593 0.931 . S
C566 C565 1.347 . S
C566 C567 1.369 . S
C567 C566 1.369 . S
C567 C568 1.408 . S
C567 H594 0.930 . S
C568 C563 1.348 . S
C568 C567 1.408 . S
C568 H595 0.930 . S
C569 O582 1.281 . S
C569 O583 1.254 . S
C570 O584 1.236 . S
C570 O585 1.266 . S
C571 Tb561 2.809 . S
C571 C572 1.514 . S
C571 O586 1.248 . S
C571 O587 1.266 . S
C572 C571 1.514 . S
C572 C573 1.359 . S
C572 C577 1.348 . S
C573 C572 1.359 . S
C573 C574 1.380 . S
C573 H596 0.929 . S
C574 C573 1.380 . S
C574 C575 1.347 . S
C574 H597 0.931 . S
C575 C574 1.347 . S
C575 C576 1.369 . S
C576 C575 1.369 . S
C576 C577 1.408 . S
C576 H598 0.930 . S
C577 C572 1.348 . S
C577 C576 1.408 . S
C577 H599 0.930 . S
C578 O588 1.281 . S
C578 O589 1.254 . S
C579 O590 1.236 . S
C579 O591 1.266 . S
O580 Tb560 2.484 . S
O580 C562 1.248 . S
O581 Tb560 2.440 . S
O581 C562 1.266 . S
O582 Tb560 2.658 . S
O582 Tb561 2.325 . S
O582 C569 1.281 . S
O583 Tb560 2.409 . S
O583 C569 1.254 . S
O584 Tb560 2.378 . S
O584 C570 1.236 . S
O585 Tb561 2.341 . S
O585 C570 1.266 . S
O586 Tb561 2.484 . S
O586 C571 1.248 . S
O587 Tb561 2.440 . S
O587 C571 1.266 . S
O588 Tb560 2.325 . S
O588 Tb561 2.658 . S
O588 C578 1.281 . S
O589 Tb561 2.409 . S
O589 C578 1.254 . S
O590 Tb561 2.378 . S
O590 C579 1.236 . S
O591 Tb560 2.341 . S
O591 C579 1.266 . S
H592 C564 0.929 . S
H593 C565 0.931 . S
H594 C567 0.930 . S
H595 C568 0.930 . S
H596 C573 0.929 . S
H597 C574 0.931 . S
H598 C576 0.930 . S
H599 C577 0.930 . S
Tb600 C602 2.809 . S
Tb600 O620 2.484 . S
Tb600 O621 2.440 . S
Tb600 O622 2.658 . S
Tb600 O623 2.409 . S
Tb600 O624 2.378 . S
Tb600 O628 2.325 . S
Tb600 O631 2.341 . S
Tb601 C611 2.809 . S
Tb601 O622 2.325 . S
Tb601 O625 2.341 . S
Tb601 O626 2.484 . S
Tb601 O627 2.440 . S
Tb601 O628 2.658 . S
Tb601 O629 2.409 . S
Tb601 O630 2.378 . S
C602 Tb600 2.809 . S
C602 C603 1.514 . S
C602 O620 1.248 . S
C602 O621 1.266 . S
C603 C602 1.514 . S
C603 C604 1.359 . S
C603 C608 1.348 . S
C604 C603 1.359 . S
C604 C605 1.380 . S
C604 H632 0.929 . S
C605 C604 1.380 . S
C605 C606 1.347 . S
C605 H633 0.931 . S
C606 C605 1.347 . S
C606 C607 1.369 . S
C607 C606 1.369 . S
C607 C608 1.408 . S
C607 H634 0.930 . S
C608 C603 1.348 . S
C608 C607 1.408 . S
C608 H635 0.930 . S
C609 O622 1.281 . S
C609 O623 1.254 . S
C610 O624 1.236 . S
C610 O625 1.266 . S
C611 Tb601 2.809 . S
C611 C612 1.514 . S
C611 O626 1.248 . S
C611 O627 1.266 . S
C612 C611 1.514 . S
C612 C613 1.359 . S
C612 C617 1.348 . S
C613 C612 1.359 . S
C613 C614 1.380 . S
C613 H636 0.929 . S
C614 C613 1.380 . S
C614 C615 1.347 . S
C614 H637 0.931 . S
C615 C614 1.347 . S
C615 C616 1.369 . S
C616 C615 1.369 . S
C616 C617 1.408 . S
C616 H638 0.930 . S
C617 C612 1.348 . S
C617 C616 1.408 . S
C617 H639 0.930 . S
C618 O628 1.281 . S
C618 O629 1.254 . S
C619 O630 1.236 . S
C619 O631 1.266 . S
O620 Tb600 2.484 . S
O620 C602 1.248 . S
O621 Tb600 2.440 . S
O621 C602 1.266 . S
O622 Tb600 2.658 . S
O622 Tb601 2.325 . S
O622 C609 1.281 . S
O623 Tb600 2.409 . S
O623 C609 1.254 . S
O624 Tb600 2.378 . S
O624 C610 1.236 . S
O625 Tb601 2.341 . S
O625 C610 1.266 . S
O626 Tb601 2.484 . S
O626 C611 1.248 . S
O627 Tb601 2.440 . S
O627 C611 1.266 . S
O628 Tb600 2.325 . S
O628 Tb601 2.658 . S
O628 C618 1.281 . S
O629 Tb601 2.409 . S
O629 C618 1.254 . S
O630 Tb601 2.378 . S
O630 C619 1.236 . S
O631 Tb600 2.341 . S
O631 C619 1.266 . S
H632 C604 0.929 . S
H633 C605 0.931 . S
H634 C607 0.930 . S
H635 C608 0.930 . S
H636 C613 0.929 . S
H637 C614 0.931 . S
H638 C616 0.930 . S
H639 C617 0.930 . S
C640 C641 1.369 . S
C640 C642 1.419 . S
C640 H644 0.930 . S
C641 C640 1.369 . S
C641 C650 1.429 . S
C642 C640 1.419 . S
C642 C643 1.363 . S
C642 H645 0.929 . S
C643 C642 1.363 . S
C643 C649 1.428 . S
H644 C640 0.930 . S
H645 C642 0.929 . S
S646 N647 1.613 . S
S646 N648 1.610 . S
N647 S646 1.613 . S
N647 C650 1.350 . S
N648 S646 1.610 . S
N648 C649 1.351 . S
C649 C643 1.428 . S
C649 N648 1.351 . S
C649 C650 1.434 . S
C650 C641 1.429 . S
C650 N647 1.350 . S
C650 C649 1.434 . S
C651 C652 1.369 . S
C651 C653 1.419 . S
C651 H655 0.930 . S
C652 C651 1.369 . S
C652 C661 1.429 . S
C653 C651 1.419 . S
C653 C654 1.363 . S
C653 H656 0.929 . S
C654 C653 1.363 . S
C654 C660 1.428 . S
H655 C651 0.930 . S
H656 C653 0.929 . S
S657 N658 1.613 . S
S657 N659 1.610 . S
N658 S657 1.613 . S
N658 C661 1.350 . S
N659 S657 1.610 . S
N659 C660 1.351 . S
C660 C654 1.428 . S
C660 N659 1.351 . S
C660 C661 1.434 . S
C661 C652 1.429 . S
C661 N658 1.350 . S
C661 C660 1.434 . S
C662 C663 1.369 . S
C662 C664 1.419 . S
C662 H666 0.930 . S
C663 C662 1.369 . S
C663 C672 1.429 . S
C664 C662 1.419 . S
C664 C665 1.363 . S
C664 H667 0.929 . S
C665 C664 1.363 . S
C665 C671 1.428 . S
H666 C662 0.930 . S
H667 C664 0.929 . S
S668 N669 1.613 . S
S668 N670 1.610 . S
N669 S668 1.613 . S
N669 C672 1.350 . S
N670 S668 1.610 . S
N670 C671 1.351 . S
C671 C665 1.428 . S
C671 N670 1.351 . S
C671 C672 1.434 . S
C672 C663 1.429 . S
C672 N669 1.350 . S
C672 C671 1.434 . S
C673 C674 1.369 . S
C673 C675 1.419 . S
C673 H677 0.930 . S
C674 C673 1.369 . S
C674 C683 1.429 . S
C675 C673 1.419 . S
C675 C676 1.363 . S
C675 H678 0.929 . S
C676 C675 1.363 . S
C676 C682 1.428 . S
H677 C673 0.930 . S
H678 C675 0.929 . S
S679 N680 1.613 . S
S679 N681 1.610 . S
N680 S679 1.613 . S
N680 C683 1.350 . S
N681 S679 1.610 . S
N681 C682 1.351 . S
C682 C676 1.428 . S
C682 N681 1.351 . S
C682 C683 1.434 . S
C683 C674 1.429 . S
C683 N680 1.350 . S
C683 C682 1.434 . S
C684 C685 1.369 . S
C684 C686 1.419 . S
C684 H688 0.930 . S
C685 C684 1.369 . S
C685 C694 1.429 . S
C686 C684 1.419 . S
C686 C687 1.363 . S
C686 H689 0.929 . S
C687 C686 1.363 . S
C687 C693 1.428 . S
H688 C684 0.930 . S
H689 C686 0.929 . S
S690 N691 1.613 . S
S690 N692 1.610 . S
N691 S690 1.613 . S
N691 C694 1.350 . S
N692 S690 1.610 . S
N692 C693 1.351 . S
C693 C687 1.428 . S
C693 N692 1.351 . S
C693 C694 1.434 . S
C694 C685 1.429 . S
C694 N691 1.350 . S
C694 C693 1.434 . S
C695 C696 1.369 . S
C695 C697 1.419 . S
C695 H699 0.930 . S
C696 C695 1.369 . S
C696 C705 1.429 . S
C697 C695 1.419 . S
C697 C698 1.363 . S
C697 H700 0.929 . S
C698 C697 1.363 . S
C698 C704 1.428 . S
H699 C695 0.930 . S
H700 C697 0.929 . S
S701 N702 1.613 . S
S701 N703 1.610 . S
N702 S701 1.613 . S
N702 C705 1.350 . S
N703 S701 1.610 . S
N703 C704 1.351 . S
C704 C698 1.428 . S
C704 N703 1.351 . S
C704 C705 1.434 . S
C705 C696 1.429 . S
C705 N702 1.350 . S
C705 C704 1.434 . S
C706 C707 1.369 . S
C706 C708 1.419 . S
C706 H710 0.930 . S
C707 C706 1.369 . S
C707 C716 1.429 . S
C708 C706 1.419 . S
C708 C709 1.363 . S
C708 H711 0.929 . S
C709 C708 1.363 . S
C709 C715 1.428 . S
H710 C706 0.930 . S
H711 C708 0.929 . S
S712 N713 1.613 . S
S712 N714 1.610 . S
N713 S712 1.613 . S
N713 C716 1.350 . S
N714 S712 1.610 . S
N714 C715 1.351 . S
C715 C709 1.428 . S
C715 N714 1.351 . S
C715 C716 1.434 . S
C716 C707 1.429 . S
C716 N713 1.350 . S
C716 C715 1.434 . S
C717 C718 1.369 . S
C717 C719 1.419 . S
C717 H721 0.930 . S
C718 C717 1.369 . S
C718 C727 1.429 . S
C719 C717 1.419 . S
C719 C720 1.363 . S
C719 H722 0.929 . S
C720 C719 1.363 . S
C720 C726 1.428 . S
H721 C717 0.930 . S
H722 C719 0.929 . S
S723 N724 1.613 . S
S723 N725 1.610 . S
N724 S723 1.613 . S
N724 C727 1.350 . S
N725 S723 1.610 . S
N725 C726 1.351 . S
C726 C720 1.428 . S
C726 N725 1.351 . S
C726 C727 1.434 . S
C727 C718 1.429 . S
C727 N724 1.350 . S
C727 C726 1.434 . S
C728 C729 1.369 1_545 S
C728 C730 1.419 . S
C728 H732 0.930 . S
C729 C728 1.369 1_565 S
C729 C738 1.429 . S
C730 C728 1.419 . S
C730 C731 1.363 . S
C730 H733 0.929 . S
C731 C730 1.363 . S
C731 C737 1.428 1_545 S
H732 C728 0.930 . S
H733 C730 0.929 . S
S734 N735 1.613 . S
S734 N736 1.610 . S
N735 S734 1.613 . S
N735 C738 1.350 . S
N736 S734 1.610 . S
N736 C737 1.351 . S
C737 C731 1.428 1_565 S
C737 N736 1.351 . S
C737 C738 1.434 . S
C738 C729 1.429 . S
C738 N735 1.350 . S
C738 C737 1.434 . S
C739 C740 1.369 . S
C739 C741 1.419 . S
C739 H743 0.930 . S
C740 C739 1.369 . S
C740 C749 1.429 1_545 S
C741 C739 1.419 . S
C741 C742 1.363 1_545 S
C741 H744 0.929 . S
C742 C741 1.363 1_565 S
C742 C748 1.428 . S
H743 C739 0.930 . S
H744 C741 0.929 . S
S745 N746 1.613 . S
S745 N747 1.610 . S
N746 S745 1.613 . S
N746 C749 1.350 . S
N747 S745 1.610 . S
N747 C748 1.351 . S
C748 C742 1.428 . S
C748 N747 1.351 . S
C748 C749 1.434 . S
C749 C740 1.429 1_565 S
C749 N746 1.350 . S
C749 C748 1.434 . S
C750 C751 1.369 1_565 S
C750 C752 1.419 . S
C750 H754 0.930 . S
C751 C750 1.369 1_545 S
C751 C760 1.429 . S
C752 C750 1.419 . S
C752 C753 1.363 . S
C752 H755 0.929 . S
C753 C752 1.363 . S
C753 C759 1.428 1_565 S
H754 C750 0.930 . S
H755 C752 0.929 . S
S756 N757 1.613 . S
S756 N758 1.610 . S
N757 S756 1.613 . S
N757 C760 1.350 . S
N758 S756 1.610 . S
N758 C759 1.351 . S
C759 C753 1.428 1_545 S
C759 N758 1.351 . S
C759 C760 1.434 . S
C760 C751 1.429 . S
C760 N757 1.350 . S
C760 C759 1.434 . S
C761 C762 1.369 . S
C761 C763 1.419 . S
C761 H765 0.930 . S
C762 C761 1.369 . S
C762 C771 1.429 1_545 S
C763 C761 1.419 . S
C763 C764 1.363 1_545 S
C763 H766 0.929 . S
C764 C763 1.363 1_565 S
C764 C770 1.428 . S
H765 C761 0.930 . S
H766 C763 0.929 . S
S767 N768 1.613 . S
S767 N769 1.610 . S
N768 S767 1.613 . S
N768 C771 1.350 . S
N769 S767 1.610 . S
N769 C770 1.351 . S
C770 C764 1.428 . S
C770 N769 1.351 . S
C770 C771 1.434 . S
C771 C762 1.429 1_565 S
C771 N768 1.350 . S
C771 C770 1.434 . S
C772 C773 1.369 . S
C772 C774 1.419 . S
C772 H776 0.930 . S
C773 C772 1.369 . S
C773 C782 1.429 . S
C774 C772 1.419 . S
C774 C775 1.363 . S
C774 H777 0.929 . S
C775 C774 1.363 . S
C775 C781 1.428 . S
H776 C772 0.930 . S
H777 C774 0.929 . S
S778 N779 1.613 . S
S778 N780 1.610 . S
N779 S778 1.613 . S
N779 C782 1.350 . S
N780 S778 1.610 . S
N780 C781 1.351 . S
C781 C775 1.428 . S
C781 N780 1.351 . S
C781 C782 1.434 . S
C782 C773 1.429 . S
C782 N779 1.350 . S
C782 C781 1.434 . S
C783 C784 1.369 . S
C783 C785 1.419 . S
C783 H787 0.930 . S
C784 C783 1.369 . S
C784 C793 1.429 . S
C785 C783 1.419 . S
C785 C786 1.363 . S
C785 H788 0.929 . S
C786 C785 1.363 . S
C786 C792 1.428 . S
H787 C783 0.930 . S
H788 C785 0.929 . S
S789 N790 1.613 . S
S789 N791 1.610 . S
N790 S789 1.613 . S
N790 C793 1.350 . S
N791 S789 1.610 . S
N791 C792 1.351 . S
C792 C786 1.428 . S
C792 N791 1.351 . S
C792 C793 1.434 . S
C793 C784 1.429 . S
C793 N790 1.350 . S
C793 C792 1.434 . S
C794 C795 1.369 . S
C794 C796 1.419 . S
C794 H798 0.930 . S
C795 C794 1.369 . S
C795 C804 1.429 . S
C796 C794 1.419 . S
C796 C797 1.363 . S
C796 H799 0.929 . S
C797 C796 1.363 . S
C797 C803 1.428 . S
H798 C794 0.930 . S
H799 C796 0.929 . S
S800 N801 1.613 . S
S800 N802 1.610 . S
N801 S800 1.613 . S
N801 C804 1.350 . S
N802 S800 1.610 . S
N802 C803 1.351 . S
C803 C797 1.428 . S
C803 N802 1.351 . S
C803 C804 1.434 . S
C804 C795 1.429 . S
C804 N801 1.350 . S
C804 C803 1.434 . S
C805 C806 1.369 . S
C805 C807 1.419 . S
C805 H809 0.930 . S
C806 C805 1.369 . S
C806 C815 1.429 . S
C807 C805 1.419 . S
C807 C808 1.363 . S
C807 H810 0.929 . S
C808 C807 1.363 . S
C808 C814 1.428 . S
H809 C805 0.930 . S
H810 C807 0.929 . S
S811 N812 1.613 . S
S811 N813 1.610 . S
N812 S811 1.613 . S
N812 C815 1.350 . S
N813 S811 1.610 . S
N813 C814 1.351 . S
C814 C808 1.428 . S
C814 N813 1.351 . S
C814 C815 1.434 . S
C815 C806 1.429 . S
C815 N812 1.350 . S
C815 C814 1.434 . S
C816 C817 1.369 . S
C816 C818 1.419 1_556 S
C816 H820 0.930 . S
C817 C816 1.369 . S
C817 C826 1.429 . S
C818 C816 1.419 1_554 S
C818 C819 1.363 . S
C818 H821 0.929 . S
C819 C818 1.363 . S
C819 C825 1.428 . S
H820 C816 0.930 . S
H821 C818 0.929 . S
S822 N823 1.616 1_554 S
S822 N824 1.608 . S
N823 S822 1.616 1_556 S
N823 C826 1.350 . S
N824 S822 1.608 . S
N824 C825 1.351 . S
C825 C819 1.428 . S
C825 N824 1.351 . S
C825 C826 1.434 1_554 S
C826 C817 1.429 . S
C826 N823 1.350 . S
C826 C825 1.434 1_556 S
C827 C828 1.369 . S
C827 C829 1.419 1_556 S
C827 H831 0.930 . S
C828 C827 1.369 . S
C828 C837 1.429 . S
C829 C827 1.419 1_554 S
C829 C830 1.363 . S
C829 H832 0.929 . S
C830 C829 1.363 . S
C830 C836 1.428 . S
H831 C827 0.930 . S
H832 C829 0.929 . S
S833 N834 1.616 1_544 S
S833 N835 1.608 1_545 S
N834 S833 1.616 1_566 S
N834 C837 1.350 . S
N835 S833 1.608 1_565 S
N835 C836 1.351 . S
C836 C830 1.428 . S
C836 N835 1.351 . S
C836 C837 1.434 1_554 S
C837 C828 1.429 . S
C837 N834 1.350 . S
C837 C836 1.434 1_556 S
C838 C839 1.369 . S
C838 C840 1.419 . S
C838 H842 0.930 . S
C839 C838 1.369 . S
C839 C848 1.429 . S
C840 C838 1.419 . S
C840 C841 1.363 . S
C840 H843 0.929 . S
C841 C840 1.363 . S
C841 C847 1.428 . S
H842 C838 0.930 . S
H843 C840 0.929 . S
S844 N845 1.613 . S
S844 N846 1.610 . S
N845 S844 1.613 . S
N845 C848 1.350 . S
N846 S844 1.610 . S
N846 C847 1.351 . S
C847 C841 1.428 . S
C847 N846 1.351 . S
C847 C848 1.434 . S
C848 C839 1.429 . S
C848 N845 1.350 . S
C848 C847 1.434 . S
C849 C850 1.369 . S
C849 C851 1.419 . S
C849 H853 0.930 . S
C850 C849 1.369 . S
C850 C859 1.429 . S
C851 C849 1.419 . S
C851 C852 1.363 . S
C851 H854 0.929 . S
C852 C851 1.363 . S
C852 C858 1.428 . S
H853 C849 0.930 . S
H854 C851 0.929 . S
S855 N856 1.613 . S
S855 N857 1.610 . S
N856 S855 1.613 . S
N856 C859 1.350 . S
N857 S855 1.610 . S
N857 C858 1.351 . S
C858 C852 1.428 . S
C858 N857 1.351 . S
C858 C859 1.434 . S
C859 C850 1.429 . S
C859 N856 1.350 . S
C859 C858 1.434 . S
C860 C861 1.369 . S
C860 C862 1.419 1_554 S
C860 H864 0.930 . S
C861 C860 1.369 . S
C861 C870 1.429 . S
C862 C860 1.419 1_556 S
C862 C863 1.363 . S
C862 H865 0.929 . S
C863 C862 1.363 . S
C863 C869 1.428 . S
H864 C860 0.930 . S
H865 C862 0.929 . S
S866 N867 1.616 1_556 S
S866 N868 1.608 . S
N867 S866 1.616 1_554 S
N867 C870 1.350 . S
N868 S866 1.608 . S
N868 C869 1.351 . S
C869 C863 1.428 . S
C869 N868 1.351 . S
C869 C870 1.434 1_556 S
C870 C861 1.429 . S
C870 N867 1.350 . S
C870 C869 1.434 1_554 S
C871 C872 1.369 . S
C871 C873 1.419 1_556 S
C871 H875 0.930 . S
C872 C871 1.369 . S
C872 C881 1.429 . S
C873 C871 1.419 1_554 S
C873 C874 1.363 . S
C873 H876 0.929 . S
C874 C873 1.363 . S
C874 C880 1.428 . S
H875 C871 0.930 . S
H876 C873 0.929 . S
S877 N878 1.616 1_554 S
S877 N879 1.608 . S
N878 S877 1.616 1_556 S
N878 C881 1.350 . S
N879 S877 1.608 . S
N879 C880 1.351 . S
C880 C874 1.428 . S
C880 N879 1.351 . S
C880 C881 1.434 1_554 S
C881 C872 1.429 . S
C881 N878 1.350 . S
C881 C880 1.434 1_556 S
C882 C883 1.369 . S
C882 C884 1.419 . S
C882 H886 0.930 . S
C883 C882 1.369 . S
C883 C892 1.429 . S
C884 C882 1.419 . S
C884 C885 1.363 . S
C884 H887 0.929 . S
C885 C884 1.363 . S
C885 C891 1.428 . S
H886 C882 0.930 . S
H887 C884 0.929 . S
S888 N889 1.613 . S
S888 N890 1.610 . S
N889 S888 1.613 . S
N889 C892 1.350 . S
N890 S888 1.610 . S
N890 C891 1.351 . S
C891 C885 1.428 . S
C891 N890 1.351 . S
C891 C892 1.434 . S
C892 C883 1.429 . S
C892 N889 1.350 . S
C892 C891 1.434 . S
C893 C894 1.369 . S
C893 C895 1.419 . S
C893 H897 0.930 . S
C894 C893 1.369 . S
C894 C903 1.429 . S
C895 C893 1.419 . S
C895 C896 1.363 . S
C895 H898 0.929 . S
C896 C895 1.363 . S
C896 C902 1.428 . S
H897 C893 0.930 . S
H898 C895 0.929 . S
S899 N900 1.613 . S
S899 N901 1.610 . S
N900 S899 1.613 . S
N900 C903 1.350 . S
N901 S899 1.610 . S
N901 C902 1.351 . S
C902 C896 1.428 . S
C902 N901 1.351 . S
C902 C903 1.434 . S
C903 C894 1.429 . S
C903 N900 1.350 . S
C903 C902 1.434 . S
C904 C905 1.369 1_545 S
C904 C906 1.419 1_655 S
C904 H908 0.930 . S
C905 C904 1.369 1_565 S
C905 C914 1.429 . S
C906 C904 1.419 1_455 S
C906 C907 1.363 . S
C906 H909 0.929 . S
C907 C906 1.363 . S
C907 C913 1.428 1_545 S
H908 C904 0.930 . S
H909 C906 0.929 . S
S910 N911 1.613 1_455 S
S910 N912 1.610 . S
N911 S910 1.613 1_655 S
N911 C914 1.350 . S
N912 S910 1.610 . S
N912 C913 1.351 . S
C913 C907 1.428 1_565 S
C913 N912 1.351 . S
C913 C914 1.434 1_455 S
C914 C905 1.429 . S
C914 N911 1.350 . S
C914 C913 1.434 1_655 S
C915 C916 1.369 . S
C915 C917 1.419 1_655 S
C915 H919 0.930 . S
C916 C915 1.369 . S
C916 C925 1.429 1_545 S
C917 C915 1.419 1_455 S
C917 C918 1.363 1_545 S
C917 H920 0.929 . S
C918 C917 1.363 1_565 S
C918 C924 1.428 . S
H919 C915 0.930 . S
H920 C917 0.929 . S
S921 N922 1.613 . S
S921 N923 1.610 1_655 S
N922 S921 1.613 . S
N922 C925 1.350 . S
N923 S921 1.610 1_455 S
N923 C924 1.351 . S
C924 C918 1.428 . S
C924 N923 1.351 . S
C924 C925 1.434 1_455 S
C925 C916 1.429 1_565 S
C925 N922 1.350 . S
C925 C924 1.434 1_655 S
C926 C927 1.369 . S
C926 C928 1.419 1_455 S
C926 H930 0.930 . S
C927 C926 1.369 . S
C927 C936 1.429 1_545 S
C928 C926 1.419 1_655 S
C928 C929 1.363 1_545 S
C928 H931 0.929 . S
C929 C928 1.363 1_565 S
C929 C935 1.428 . S
H930 C926 0.930 . S
H931 C928 0.929 . S
S932 N933 1.613 . S
S932 N934 1.610 1_455 S
N933 S932 1.613 . S
N933 C936 1.350 . S
N934 S932 1.610 1_655 S
N934 C935 1.351 . S
C935 C929 1.428 . S
C935 N934 1.351 . S
C935 C936 1.434 1_655 S
C936 C927 1.429 1_565 S
C936 N933 1.350 . S
C936 C935 1.434 1_455 S
C937 C938 1.369 1_565 S
C937 C939 1.419 1_655 S
C937 H941 0.930 . S
C938 C937 1.369 1_545 S
C938 C947 1.429 . S
C939 C937 1.419 1_455 S
C939 C940 1.363 . S
C939 H942 0.929 . S
C940 C939 1.363 . S
C940 C946 1.428 1_565 S
H941 C937 0.930 . S
H942 C939 0.929 . S
S943 N944 1.613 1_455 S
S943 N945 1.610 . S
N944 S943 1.613 1_655 S
N944 C947 1.350 . S
N945 S943 1.610 . S
N945 C946 1.351 . S
C946 C940 1.428 1_545 S
C946 N945 1.351 . S
C946 C947 1.434 1_455 S
C947 C938 1.429 . S
C947 N944 1.350 . S
C947 C946 1.434 1_655 S
C948 C949 1.369 . S
C948 C950 1.419 . S
C948 H952 0.930 . S
C949 C948 1.369 . S
C949 C958 1.429 . S
C950 C948 1.419 . S
C950 C951 1.363 . S
C950 H953 0.929 . S
C951 C950 1.363 . S
C951 C957 1.428 . S
H952 C948 0.930 . S
H953 C950 0.929 . S
S954 N955 1.613 . S
S954 N956 1.610 . S
N955 S954 1.613 . S
N955 C958 1.350 . S
N956 S954 1.610 . S
N956 C957 1.351 . S
C957 C951 1.428 . S
C957 N956 1.351 . S
C957 C958 1.434 . S
C958 C949 1.429 . S
C958 N955 1.350 . S
C958 C957 1.434 . S
C959 C960 1.369 . S
C959 C961 1.419 . S
C959 H963 0.930 . S
C960 C959 1.369 . S
C960 C969 1.429 . S
C961 C959 1.419 . S
C961 C962 1.363 . S
C961 H964 0.929 . S
C962 C961 1.363 . S
C962 C968 1.428 . S
H963 C959 0.930 . S
H964 C961 0.929 . S
S965 N966 1.613 . S
S965 N967 1.610 . S
N966 S965 1.613 . S
N966 C969 1.350 . S
N967 S965 1.610 . S
N967 C968 1.351 . S
C968 C962 1.428 . S
C968 N967 1.351 . S
C968 C969 1.434 . S
C969 C960 1.429 . S
C969 N966 1.350 . S
C969 C968 1.434 . S
C970 C971 1.369 . S
C970 C972 1.419 . S
C970 H974 0.930 . S
C971 C970 1.369 . S
C971 C980 1.429 . S
C972 C970 1.419 . S
C972 C973 1.363 . S
C972 H975 0.929 . S
C973 C972 1.363 . S
C973 C979 1.428 . S
H974 C970 0.930 . S
H975 C972 0.929 . S
S976 N977 1.613 . S
S976 N978 1.610 . S
N977 S976 1.613 . S
N977 C980 1.350 . S
N978 S976 1.610 . S
N978 C979 1.351 . S
C979 C973 1.428 . S
C979 N978 1.351 . S
C979 C980 1.434 . S
C980 C971 1.429 . S
C980 N977 1.350 . S
C980 C979 1.434 . S
C981 C982 1.369 . S
C981 C983 1.419 . S
C981 H985 0.930 . S
C982 C981 1.369 . S
C982 C991 1.429 . S
C983 C981 1.419 . S
C983 C984 1.363 . S
C983 H986 0.929 . S
C984 C983 1.363 . S
C984 C990 1.428 . S
H985 C981 0.930 . S
H986 C983 0.929 . S
S987 N988 1.613 . S
S987 N989 1.610 . S
N988 S987 1.613 . S
N988 C991 1.350 . S
N989 S987 1.610 . S
N989 C990 1.351 . S
C990 C984 1.428 . S
C990 N989 1.351 . S
C990 C991 1.434 . S
C991 C982 1.429 . S
C991 N988 1.350 . S
C991 C990 1.434 . S
C992 C993 1.369 . S
C992 C994 1.419 . S
C992 H996 0.930 . S
C993 C992 1.369 . S
C993 C1002 1.429 . S
C994 C992 1.419 . S
C994 C995 1.363 . S
C994 H997 0.929 . S
C995 C994 1.363 . S
C995 C1001 1.428 . S
H996 C992 0.930 . S
H997 C994 0.929 . S
S998 N999 1.613 . S
S998 N1000 1.610 . S
N999 S998 1.613 . S
N999 C1002 1.350 . S
N1000 S998 1.610 . S
N1000 C1001 1.351 . S
C1001 C995 1.428 . S
C1001 N1000 1.351 . S
C1001 C1002 1.434 . S
C1002 C993 1.429 . S
C1002 N999 1.350 . S
C1002 C1001 1.434 . S
C1003 C1004 1.369 . S
C1003 C1005 1.419 . S
C1003 H1007 0.930 . S
C1004 C1003 1.369 . S
C1004 C1013 1.429 . S
C1005 C1003 1.419 . S
C1005 C1006 1.363 . S
C1005 H1008 0.929 . S
C1006 C1005 1.363 . S
C1006 C1012 1.428 . S
H1007 C1003 0.930 . S
H1008 C1005 0.929 . S
S1009 N1010 1.613 . S
S1009 N1011 1.610 . S
N1010 S1009 1.613 . S
N1010 C1013 1.350 . S
N1011 S1009 1.610 . S
N1011 C1012 1.351 . S
C1012 C1006 1.428 . S
C1012 N1011 1.351 . S
C1012 C1013 1.434 . S
C1013 C1004 1.429 . S
C1013 N1010 1.350 . S
C1013 C1012 1.434 . S
C1014 C1015 1.369 . S
C1014 C1016 1.419 . S
C1014 H1018 0.930 . S
C1015 C1014 1.369 . S
C1015 C1024 1.429 . S
C1016 C1014 1.419 . S
C1016 C1017 1.363 . S
C1016 H1019 0.929 . S
C1017 C1016 1.363 . S
C1017 C1023 1.428 . S
H1018 C1014 0.930 . S
H1019 C1016 0.929 . S
S1020 N1021 1.613 . S
S1020 N1022 1.610 . S
N1021 S1020 1.613 . S
N1021 C1024 1.350 . S
N1022 S1020 1.610 . S
N1022 C1023 1.351 . S
C1023 C1017 1.428 . S
C1023 N1022 1.351 . S
C1023 C1024 1.434 . S
C1024 C1015 1.429 . S
C1024 N1021 1.350 . S
C1024 C1023 1.434 . S
C1025 C1026 1.369 . S
C1025 C1027 1.419 . S
C1025 H1029 0.930 . S
C1026 C1025 1.369 . S
C1026 C1035 1.429 . S
C1027 C1025 1.419 . S
C1027 C1028 1.363 . S
C1027 H1030 0.929 . S
C1028 C1027 1.363 . S
C1028 C1034 1.428 . S
H1029 C1025 0.930 . S
H1030 C1027 0.929 . S
S1031 N1032 1.613 . S
S1031 N1033 1.610 . S
N1032 S1031 1.613 . S
N1032 C1035 1.350 . S
N1033 S1031 1.610 . S
N1033 C1034 1.351 . S
C1034 C1028 1.428 . S
C1034 N1033 1.351 . S
C1034 C1035 1.434 . S
C1035 C1026 1.429 . S
C1035 N1032 1.350 . S
C1035 C1034 1.434 . S
C1036 C1037 1.369 . S
C1036 C1038 1.419 . S
C1036 H1040 0.930 . S
C1037 C1036 1.369 . S
C1037 C1046 1.429 . S
C1038 C1036 1.419 . S
C1038 C1039 1.363 . S
C1038 H1041 0.929 . S
C1039 C1038 1.363 . S
C1039 C1045 1.428 . S
H1040 C1036 0.930 . S
H1041 C1038 0.929 . S
S1042 N1043 1.613 . S
S1042 N1044 1.610 . S
N1043 S1042 1.613 . S
N1043 C1046 1.350 . S
N1044 S1042 1.610 . S
N1044 C1045 1.351 . S
C1045 C1039 1.428 . S
C1045 N1044 1.351 . S
C1045 C1046 1.434 . S
C1046 C1037 1.429 . S
C1046 N1043 1.350 . S
C1046 C1045 1.434 . S
C1047 C1048 1.369 . S
C1047 C1049 1.419 . S
C1047 H1051 0.930 . S
C1048 C1047 1.369 . S
C1048 C1057 1.429 . S
C1049 C1047 1.419 . S
C1049 C1050 1.363 . S
C1049 H1052 0.929 . S
C1050 C1049 1.363 . S
C1050 C1056 1.428 . S
H1051 C1047 0.930 . S
H1052 C1049 0.929 . S
S1053 N1054 1.613 . S
S1053 N1055 1.610 . S
N1054 S1053 1.613 . S
N1054 C1057 1.350 . S
N1055 S1053 1.610 . S
N1055 C1056 1.351 . S
C1056 C1050 1.428 . S
C1056 N1055 1.351 . S
C1056 C1057 1.434 . S
C1057 C1048 1.429 . S
C1057 N1054 1.350 . S
C1057 C1056 1.434 . S
C1058 C1059 1.369 . S
C1058 C1060 1.419 . S
C1058 H1062 0.930 . S
C1059 C1058 1.369 . S
C1059 C1068 1.429 . S
C1060 C1058 1.419 . S
C1060 C1061 1.363 . S
C1060 H1063 0.929 . S
C1061 C1060 1.363 . S
C1061 C1067 1.428 . S
H1062 C1058 0.930 . S
H1063 C1060 0.929 . S
S1064 N1065 1.613 . S
S1064 N1066 1.610 . S
N1065 S1064 1.613 . S
N1065 C1068 1.350 . S
N1066 S1064 1.610 . S
N1066 C1067 1.351 . S
C1067 C1061 1.428 . S
C1067 N1066 1.351 . S
C1067 C1068 1.434 . S
C1068 C1059 1.429 . S
C1068 N1065 1.350 . S
C1068 C1067 1.434 . S
C1069 C1070 1.369 . S
C1069 C1071 1.419 . S
C1069 H1073 0.930 . S
C1070 C1069 1.369 . S
C1070 C1079 1.429 . S
C1071 C1069 1.419 . S
C1071 C1072 1.363 . S
C1071 H1074 0.929 . S
C1072 C1071 1.363 . S
C1072 C1078 1.428 . S
H1073 C1069 0.930 . S
H1074 C1071 0.929 . S
S1075 N1076 1.613 . S
S1075 N1077 1.610 . S
N1076 S1075 1.613 . S
N1076 C1079 1.350 . S
N1077 S1075 1.610 . S
N1077 C1078 1.351 . S
C1078 C1072 1.428 . S
C1078 N1077 1.351 . S
C1078 C1079 1.434 . S
C1079 C1070 1.429 . S
C1079 N1076 1.350 . S
C1079 C1078 1.434 . S
C1080 C1081 1.369 . S
C1080 C1082 1.419 . S
C1080 H1084 0.930 . S
C1081 C1080 1.369 . S
C1081 C1090 1.429 . S
C1082 C1080 1.419 . S
C1082 C1083 1.363 . S
C1082 H1085 0.929 . S
C1083 C1082 1.363 . S
C1083 C1089 1.428 . S
H1084 C1080 0.930 . S
H1085 C1082 0.929 . S
S1086 N1087 1.613 . S
S1086 N1088 1.610 . S
N1087 S1086 1.613 . S
N1087 C1090 1.350 . S
N1088 S1086 1.610 . S
N1088 C1089 1.351 . S
C1089 C1083 1.428 . S
C1089 N1088 1.351 . S
C1089 C1090 1.434 . S
C1090 C1081 1.429 . S
C1090 N1087 1.350 . S
C1090 C1089 1.434 . S
C1091 C1092 1.369 . S
C1091 C1093 1.419 . S
C1091 H1095 0.930 . S
C1092 C1091 1.369 . S
C1092 C1101 1.429 . S
C1093 C1091 1.419 . S
C1093 C1094 1.363 . S
C1093 H1096 0.929 . S
C1094 C1093 1.363 . S
C1094 C1100 1.428 . S
H1095 C1091 0.930 . S
H1096 C1093 0.929 . S
S1097 N1098 1.613 . S
S1097 N1099 1.610 . S
N1098 S1097 1.613 . S
N1098 C1101 1.350 . S
N1099 S1097 1.610 . S
N1099 C1100 1.351 . S
C1100 C1094 1.428 . S
C1100 N1099 1.351 . S
C1100 C1101 1.434 . S
C1101 C1092 1.429 . S
C1101 N1098 1.350 . S
C1101 C1100 1.434 . S
C1102 C1103 1.369 . S
C1102 C1104 1.419 . S
C1102 H1106 0.930 . S
C1103 C1102 1.369 . S
C1103 C1112 1.429 . S
C1104 C1102 1.419 . S
C1104 C1105 1.363 . S
C1104 H1107 0.929 . S
C1105 C1104 1.363 . S
C1105 C1111 1.428 . S
H1106 C1102 0.930 . S
H1107 C1104 0.929 . S
S1108 N1109 1.613 . S
S1108 N1110 1.610 . S
N1109 S1108 1.613 . S
N1109 C1112 1.350 . S
N1110 S1108 1.610 . S
N1110 C1111 1.351 . S
C1111 C1105 1.428 . S
C1111 N1110 1.351 . S
C1111 C1112 1.434 . S
C1112 C1103 1.429 . S
C1112 N1109 1.350 . S
C1112 C1111 1.434 . S
C1113 C1114 1.369 . S
C1113 C1115 1.419 . S
C1113 H1117 0.930 . S
C1114 C1113 1.369 . S
C1114 C1123 1.429 . S
C1115 C1113 1.419 . S
C1115 C1116 1.363 . S
C1115 H1118 0.929 . S
C1116 C1115 1.363 . S
C1116 C1122 1.428 . S
H1117 C1113 0.930 . S
H1118 C1115 0.929 . S
S1119 N1120 1.613 . S
S1119 N1121 1.610 . S
N1120 S1119 1.613 . S
N1120 C1123 1.350 . S
N1121 S1119 1.610 . S
N1121 C1122 1.351 . S
C1122 C1116 1.428 . S
C1122 N1121 1.351 . S
C1122 C1123 1.434 . S
C1123 C1114 1.429 . S
C1123 N1120 1.350 . S
C1123 C1122 1.434 . S
C1124 C1125 1.369 . S
C1124 C1126 1.419 . S
C1124 H1128 0.930 . S
C1125 C1124 1.369 . S
C1125 C1134 1.429 . S
C1126 C1124 1.419 . S
C1126 C1127 1.363 . S
C1126 H1129 0.929 . S
C1127 C1126 1.363 . S
C1127 C1133 1.428 . S
H1128 C1124 0.930 . S
H1129 C1126 0.929 . S
S1130 N1131 1.613 . S
S1130 N1132 1.610 . S
N1131 S1130 1.613 . S
N1131 C1134 1.350 . S
N1132 S1130 1.610 . S
N1132 C1133 1.351 . S
C1133 C1127 1.428 . S
C1133 N1132 1.351 . S
C1133 C1134 1.434 . S
C1134 C1125 1.429 . S
C1134 N1131 1.350 . S
C1134 C1133 1.434 . S
C1135 C1136 1.369 . S
C1135 C1137 1.419 . S
C1135 H1139 0.930 . S
C1136 C1135 1.369 . S
C1136 C1145 1.429 . S
C1137 C1135 1.419 . S
C1137 C1138 1.363 . S
C1137 H1140 0.929 . S
C1138 C1137 1.363 . S
C1138 C1144 1.428 . S
H1139 C1135 0.930 . S
H1140 C1137 0.929 . S
S1141 N1142 1.613 . S
S1141 N1143 1.610 . S
N1142 S1141 1.613 . S
N1142 C1145 1.350 . S
N1143 S1141 1.610 . S
N1143 C1144 1.351 . S
C1144 C1138 1.428 . S
C1144 N1143 1.351 . S
C1144 C1145 1.434 . S
C1145 C1136 1.429 . S
C1145 N1142 1.350 . S
C1145 C1144 1.434 . S
C1146 C1147 1.369 . S
C1146 C1148 1.419 . S
C1146 H1150 0.930 . S
C1147 C1146 1.369 . S
C1147 C1156 1.429 . S
C1148 C1146 1.419 . S
C1148 C1149 1.363 . S
C1148 H1151 0.929 . S
C1149 C1148 1.363 . S
C1149 C1155 1.428 . S
H1150 C1146 0.930 . S
H1151 C1148 0.929 . S
S1152 N1153 1.613 . S
S1152 N1154 1.610 . S
N1153 S1152 1.613 . S
N1153 C1156 1.350 . S
N1154 S1152 1.610 . S
N1154 C1155 1.351 . S
C1155 C1149 1.428 . S
C1155 N1154 1.351 . S
C1155 C1156 1.434 . S
C1156 C1147 1.429 . S
C1156 N1153 1.350 . S
C1156 C1155 1.434 . S
C1157 C1158 1.369 . S
C1157 C1159 1.419 . S
C1157 H1161 0.930 . S
C1158 C1157 1.369 . S
C1158 C1167 1.429 . S
C1159 C1157 1.419 . S
C1159 C1160 1.363 . S
C1159 H1162 0.929 . S
C1160 C1159 1.363 . S
C1160 C1166 1.428 . S
H1161 C1157 0.930 . S
H1162 C1159 0.929 . S
S1163 N1164 1.613 . S
S1163 N1165 1.610 . S
N1164 S1163 1.613 . S
N1164 C1167 1.350 . S
N1165 S1163 1.610 . S
N1165 C1166 1.351 . S
C1166 C1160 1.428 . S
C1166 N1165 1.351 . S
C1166 C1167 1.434 . S
C1167 C1158 1.429 . S
C1167 N1164 1.350 . S
C1167 C1166 1.434 . S
C641 C19 1.610 . S
C643 C379 1.610 . S
C652 C59 1.607 . S
C654 C339 1.608 . S
C663 C459 1.611 . S
C665 C99 1.609 . S
C674 C139 1.609 . S
C676 C419 1.607 . S
C685 C530 1.611 . S
C687 C170 1.609 . S
C696 C490 1.610 . S
C698 C210 1.610 . S
C707 C610 1.610 . S
C709 C250 1.609 . S
C718 C290 1.610 . S
C720 C570 1.607 . S
C729 C98 1.771 . S
C731 C18 1.770 . S
C740 C138 1.766 . S
C742 C58 1.769 . S
C751 C249 1.770 . S
C753 C169 1.768 . S
C762 C209 1.766 . S
C764 C289 1.768 . S
C773 C418 1.771 . S
C775 C338 1.769 . S
C784 C458 1.768 . S
C786 C378 1.770 . S
C795 C489 1.768 . S
C797 C569 1.767 . S
C806 C529 1.768 . S
C808 C609 1.770 . S
C817 C218 1.519 . S
C819 C9 1.518 . S
C828 C178 1.511 . S
C830 C49 1.512 . S
C839 C89 1.516 . S
C841 C298 1.516 . S
C850 C258 1.520 . S
C852 C129 1.518 . S
C861 C329 1.513 . S
C863 C538 1.514 . S
C872 C498 1.514 . S
C874 C369 1.514 . S
C883 C409 1.512 . S
C885 C618 1.513 . S
C894 C578 1.520 . S
C896 C449 1.519 . S
C905 C50 1.643 . S
C907 C10 1.647 . S
C916 C130 1.642 . S
C918 C90 1.643 . S
C927 C219 1.647 . S
C929 C179 1.640 . S
C938 C259 1.641 . S
C940 C299 1.647 . S
C949 C370 1.645 . S
C951 C330 1.641 . S
C960 C450 1.648 . S
C962 C410 1.641 . S
C971 C499 1.648 . S
C973 C539 1.641 . S
C982 C579 1.639 . S
C984 C619 1.646 . S
C993 C6 1.521 . S
C995 C15 1.516 . S
C1004 C46 1.519 . S
C1006 C55 1.518 . S
C1015 C86 1.519 . S
C1017 C95 1.518 . S
C1026 C135 1.522 . S
C1028 C126 1.516 . S
C1037 C175 1.520 . S
C1039 C166 1.517 . S
C1048 C206 1.517 . S
C1050 C215 1.519 . S
C1059 C255 1.519 . S
C1061 C246 1.518 . S
C1070 C295 1.521 . S
C1072 C286 1.517 . S
C1081 C335 1.516 1_545 S
C1083 C326 1.521 . S
C1092 C366 1.517 . S
C1094 C375 1.520 1_565 S
C1103 C415 1.521 1_565 S
C1105 C406 1.517 . S
C1114 C455 1.522 1_545 S
C1116 C446 1.516 . S
C1125 C495 1.515 . S
C1127 C486 1.521 1_565 S
C1136 C535 1.516 . S
C1138 C526 1.520 1_545 S
C1147 C566 1.516 1_545 S
C1149 C575 1.521 . S
C1158 C615 1.521 . S
C1160 C606 1.516 1_565 S
