# Generated by pormake.
# Topology qtz-e, (6)-cn, num edge types: 1
# Building blocks:
#     Node 0, Type 0, BuildingBlock: BETDAH_clean_sbu_0, # of connection points: 6
#     Node 1, Type 0, BuildingBlock: BETDAH_clean_sbu_0, # of connection points: 6
#     Node 2, Type 0, BuildingBlock: BETDAH_clean_sbu_0, # of connection points: 6
#     Node 3, Type 0, BuildingBlock: BETDAH_clean_sbu_0, # of connection points: 6
#     Node 4, Type 0, BuildingBlock: BETDAH_clean_sbu_0, # of connection points: 6
#     Node 5, Type 0, BuildingBlock: BETDAH_clean_sbu_0, # of connection points: 6
#     Edge 6, Type (0, 0), BuildingBlock: TEMPAE_clean_linker_10, # of connection points: 2
#     Edge 7, Type (0, 0), BuildingBlock: TEMPAE_clean_linker_10, # of connection points: 2
#     Edge 8, Type (0, 0), BuildingBlock: TEMPAE_clean_linker_10, # of connection points: 2
#     Edge 9, Type (0, 0), BuildingBlock: TEMPAE_clean_linker_10, # of connection points: 2
#     Edge 10, Type (0, 0), BuildingBlock: TEMPAE_clean_linker_10, # of connection points: 2
#     Edge 11, Type (0, 0), BuildingBlock: TEMPAE_clean_linker_10, # of connection points: 2
#     Edge 12, Type (0, 0), BuildingBlock: TEMPAE_clean_linker_10, # of connection points: 2
#     Edge 13, Type (0, 0), BuildingBlock: TEMPAE_clean_linker_10, # of connection points: 2
#     Edge 14, Type (0, 0), BuildingBlock: TEMPAE_clean_linker_10, # of connection points: 2
#     Edge 15, Type (0, 0), BuildingBlock: TEMPAE_clean_linker_10, # of connection points: 2
#     Edge 16, Type (0, 0), BuildingBlock: TEMPAE_clean_linker_10, # of connection points: 2
#     Edge 17, Type (0, 0), BuildingBlock: TEMPAE_clean_linker_10, # of connection points: 2
#     Edge 18, Type (0, 0), BuildingBlock: TEMPAE_clean_linker_10, # of connection points: 2
#     Edge 19, Type (0, 0), BuildingBlock: TEMPAE_clean_linker_10, # of connection points: 2
#     Edge 20, Type (0, 0), BuildingBlock: TEMPAE_clean_linker_10, # of connection points: 2
#     Edge 21, Type (0, 0), BuildingBlock: TEMPAE_clean_linker_10, # of connection points: 2
#     Edge 22, Type (0, 0), BuildingBlock: TEMPAE_clean_linker_10, # of connection points: 2
#     Edge 23, Type (0, 0), BuildingBlock: TEMPAE_clean_linker_10, # of connection points: 2
# Relax obj value: 0.097
# Max RMSD: 0.179
# Mean RMSD: 0.179
data_MOF--net-qtz-e--node1-BETDAH_clean_sbu_0--edge1-TEMPAE_clean_linker_10
_symmetry_space_group_name_H-M    P1
_symmetry_Int_Tables_number       1
_symmetry_cell_setting            triclinic
loop_
_symmetry_equiv_pos_as_xyz
'x, y, z'
_cell_length_a     26.152229
_cell_length_b     26.149003
_cell_length_c     52.064241
_cell_angle_alpha  90.106563
_cell_angle_beta   89.892835
_cell_angle_gamma 120.14013
loop_
_atom_site_label
_atom_site_type_symbol
_atom_site_fract_x
_atom_site_fract_y
_atom_site_fract_z
_atom_type_partial_charge
Ho0 Ho 0.19944 0.47388 0.06286 0.0
Ho1 Ho 0.1657 0.34693 0.04455 0.0
C2 C 0.12738 0.36144 0.10053 0.0
C3 C 0.20088 0.56992 0.07489 0.0
C4 C 0.19024 0.5888 0.1001 0.0
C5 C 0.14449 0.5479 0.11606 0.0
C6 C 0.13925 0.56283 0.14125 0.0
C7 C 0.17954 0.61887 0.15105 0.0
C8 C 0.22346 0.66087 0.13476 0.0
C9 C 0.22892 0.64581 0.10947 0.0
C10 C 0.26621 0.4317 0.08227 0.0
C11 C 0.24344 0.46121 1.00705 0.0
C12 C 0.16749 0.25944 1.02202 0.0
C13 C 0.19209 0.25404 0.99717 0.0
C14 C 0.23891 0.30379 0.98525 0.0
C15 C 0.25721 0.29972 0.96041 0.0
C16 C 0.23015 0.24543 0.94723 0.0
C17 C 0.18492 0.19516 0.95958 0.0
C18 C 0.16569 0.19959 0.98422 0.0
C19 C 0.08607 0.38213 0.03815 0.0
O20 O 0.13378 0.41246 0.09237 0.0
O21 O 0.14411 0.33007 0.08645 0.0
O22 O 0.24933 0.56678 0.0731 0.0
O23 O 0.15489 0.52426 0.06456 0.0
O24 O 0.25218 0.46592 0.09473 0.0
O25 O 0.24608 0.42401 0.05973 0.0
O26 O 0.21363 0.40325 1.01047 0.0
O27 O 0.24682 0.49913 0.02482 0.0
O28 O 0.12326 0.26921 1.02028 0.0
O29 O 0.20552 0.29206 0.03976 0.0
O30 O 0.07065 0.32905 0.04598 0.0
O31 O 0.14048 0.41117 0.03476 0.0
H32 H 0.11377 0.5036 0.1094 0.0
H33 H 0.10439 0.53009 0.15328 0.0
H34 H 0.25516 0.70438 0.14194 0.0
H35 H 0.26459 0.67791 0.09754 0.0
H36 H 0.26097 0.34607 0.99493 0.0
H37 H 0.29261 0.33905 0.95149 0.0
H38 H 0.16315 0.15282 0.94983 0.0
H39 H 0.1294 0.16068 0.99297 0.0
Ho40 Ho 0.72212 0.20299 0.39616 0.0
Ho41 Ho 0.81439 0.16998 0.37838 0.0
C42 C 0.75452 0.1244 0.4325 0.0
C43 C 0.6321 0.2105 0.41026 0.0
C44 C 0.61162 0.2067 0.43686 0.0
C45 C 0.63718 0.18935 0.45616 0.0
C46 C 0.62046 0.18683 0.4817 0.0
C47 C 0.57815 0.2023 0.48862 0.0
C48 C 0.5524 0.2198 0.4693 0.0
C49 C 0.56895 0.22179 0.44351 0.0
C50 C 0.8304 0.26806 0.41751 0.0
C51 C 0.77987 0.24877 0.34069 0.0
C52 C 0.90449 0.17096 0.35702 0.0
C53 C 0.936 0.19581 0.33249 0.0
C54 C 0.93425 0.24307 0.32053 0.0
C55 C 0.95688 0.26095 0.29573 0.0
C56 C -0.01663 0.23315 0.28267 0.0
C57 C -0.01218 0.18786 0.2951 0.0
C58 C 0.96371 0.16891 0.31971 0.0
C59 C 0.69948 0.09124 0.36963 0.0
O60 O 0.71089 0.13 0.42274 0.0
O61 O 0.80562 0.14518 0.42022 0.0
O62 O 0.68361 0.25721 0.40526 0.0
O63 O 0.62763 0.16141 0.4014 0.0
O64 O 0.781 0.25042 0.42949 0.0
O65 O 0.81943 0.25038 0.39458 0.0
O66 O 0.80985 0.22103 0.34456 0.0
O67 O 0.74262 0.24895 0.3579 0.0
O68 O 0.85021 0.12727 0.35467 0.0
O69 O 0.90942 0.2088 0.37475 0.0
O70 O 0.73613 0.07527 0.37814 0.0
O71 O 0.72562 0.14588 0.367 0.0
H72 H 0.67084 0.17842 0.45156 0.0
H73 H 0.64173 0.17405 0.49613 0.0
H74 H 0.51937 0.23164 0.47414 0.0
H75 H 0.54893 0.23549 0.42889 0.0
H76 H 0.91446 0.2656 0.33011 0.0
H77 H 0.95338 0.29633 0.28665 0.0
H78 H 0.00795 0.16568 0.2854 0.0
H79 H 0.96548 0.13231 0.3285 0.0
Ho80 Ho 0.48935 0.70857 0.72779 0.0
Ho81 Ho 0.60171 0.82263 0.71603 0.0
C82 C 0.59709 0.76884 0.77017 0.0
C83 C 0.41534 0.60457 0.74451 0.0
C84 C 0.40149 0.58268 0.7712 0.0
C85 C 0.44624 0.58849 0.78797 0.0
C86 C 0.43496 0.57745 0.81422 0.0
C87 C 0.37857 0.56001 0.82417 0.0
C88 C 0.33301 0.55077 0.80711 0.0
C89 C 0.3444 0.56205 0.78089 0.0
C90 C 0.4831 0.80421 0.7403 0.0
C91 C 0.49299 0.76576 0.67468 0.0
C92 C 0.67884 0.92257 0.69591 0.0
C93 C 0.68709 0.94206 0.6688 0.0
C94 C 0.72199 0.00199 0.66241 0.0
C95 C 0.72826 0.02022 0.63668 0.0
C96 C 0.69927 0.97887 0.61679 0.0
C97 C 0.66418 0.91876 0.62344 0.0
C98 C 0.65851 0.90062 0.64908 0.0
C99 C 0.59782 0.72063 0.7026 0.0
O100 O 0.552 0.72028 0.76039 0.0
O101 O 0.62045 0.82 0.75787 0.0
O102 O 0.39976 0.64323 0.73826 0.0
O103 O 0.46799 0.61905 0.73593 0.0
O104 O 0.43906 0.75532 0.73197 0.0
O105 O 0.52859 0.79967 0.74343 0.0
O106 O 0.53685 0.81414 0.6851 0.0
O107 O 0.47165 0.71398 0.6862 0.0
O108 O 0.68977 0.88008 0.70106 0.0
O109 O 0.62997 0.91388 0.70674 0.0
O110 O 0.64276 0.76345 0.71419 0.0
O111 O 0.55904 0.73431 0.69966 0.0
H112 H 0.49051 0.60353 0.781 0.0
H113 H 0.47099 0.58492 0.82682 0.0
H114 H 0.28871 0.53591 0.81412 0.0
H115 H 0.3091 0.55683 0.76833 0.0
H116 H 0.74447 0.03472 0.67731 0.0
H117 H 0.75644 0.06672 0.6324 0.0
H118 H 0.64025 0.88556 0.6089 0.0
H119 H 0.63125 0.85406 0.65352 0.0
Ho120 Ho 0.76647 0.50129 0.06194 0.0
Ho121 Ho 0.77666 0.61957 0.04799 0.0
C122 C 0.81897 0.61169 0.10372 0.0
C123 C 0.79241 0.42479 0.07914 0.0
C124 C 0.80126 0.41081 0.10565 0.0
C125 C 0.8378 0.45586 0.12294 0.0
C126 C 0.83904 0.44318 0.14892 0.0
C127 C 0.80378 0.38523 0.15817 0.0
C128 C 0.76973 0.3398 0.14054 0.0
C129 C 0.76842 0.35252 0.11457 0.0
C130 C 0.66851 0.50487 0.07191 0.0
C131 C 0.71816 0.50828 1.00753 0.0
C132 C 0.76145 0.70139 0.02783 0.0
C133 C 0.74286 0.7099 1.00196 0.0
C134 C 0.68634 0.67055 0.99206 0.0
C135 C 0.67073 0.67796 0.96717 0.0
C136 C 0.7113 0.72462 0.95148 0.0
C137 C 0.76746 0.76438 0.96158 0.0
C138 C 0.78292 0.7572 0.98651 0.0
C139 C 0.86893 0.60435 0.03655 0.0
O140 O 0.81285 0.56045 0.09616 0.0
O141 O 0.80259 0.64238 0.08916 0.0
O142 O 0.73833 0.41152 0.07354 0.0
O143 O 0.83211 0.47658 0.07023 0.0
O144 O 0.66938 0.45755 0.06519 0.0
O145 O 0.72032 0.54803 0.07522 0.0
O146 O 0.71938 0.55644 1.01647 0.0
O147 O 0.74273 0.48261 1.02043 0.0
O148 O 0.81289 0.70456 0.02904 0.0
O149 O 0.72159 0.65861 0.04203 0.0
O150 O 0.8761 0.65268 0.04692 0.0
O151 O 0.81531 0.56902 0.03372 0.0
H152 H 0.864 0.5013 0.11664 0.0
H153 H 0.8659 0.47925 0.16188 0.0
H154 H 0.74327 0.2944 0.14688 0.0
H155 H 0.74024 0.31705 0.10158 0.0
H156 H 0.6543 0.63348 1.00337 0.0
H157 H 0.62722 0.64637 0.96004 0.0
H158 H 0.79949 0.80141 0.95025 0.0
H159 H 0.82661 0.78843 0.99365 0.0
Ho160 Ho 0.2484 0.7688 0.3925 0.0
Ho161 Ho 0.14721 0.78929 0.37914 0.0
C162 C 0.19907 0.8283 0.43488 0.0
C163 C 0.34615 0.78116 0.40989 0.0
C164 C 0.36231 0.77853 0.43664 0.0
C165 C 0.42138 0.80102 0.44374 0.0
C166 C 0.4363 0.80166 0.4696 0.0
C167 C 0.3921 0.77878 0.48872 0.0
C168 C 0.33272 0.75497 0.48124 0.0
C169 C 0.31809 0.75533 0.45554 0.0
C170 C 0.14175 0.67546 0.40206 0.0
C171 C 0.19304 0.7268 0.33779 0.0
C172 C 0.05297 0.78299 0.35991 0.0
C173 C 0.02443 0.76473 0.3344 0.0
C174 C 0.02058 0.71561 0.32156 0.0
C175 C -0.00148 0.70184 0.29651 0.0
C176 C 0.97907 0.73639 0.28385 0.0
C177 C -0.01876 0.78451 0.29698 0.0
C178 C 0.0041 0.79876 0.32197 0.0
C179 C 0.25824 0.87746 0.36884 0.0
O180 O 0.24221 0.81937 0.42687 0.0
O181 O 0.15203 0.81386 0.42055 0.0
O182 O 0.3037 0.73126 0.40063 0.0
O183 O 0.33901 0.82607 0.40452 0.0
O184 O 0.18738 0.67225 0.3948 0.0
O185 O 0.15569 0.72856 0.40605 0.0
O186 O 0.14735 0.7294 0.34734 0.0
O187 O 0.24366 0.7499 0.35041 0.0
O188 O 0.10441 0.83156 0.36018 0.0
O189 O 0.05212 0.74155 0.37431 0.0
O190 O 0.21892 0.88708 0.37945 0.0
O191 O 0.23649 0.82357 0.36498 0.0
H192 H 0.45595 0.81845 0.42938 0.0
H193 H 0.48253 0.82096 0.47459 0.0
H194 H 0.29726 0.73572 0.49521 0.0
H195 H 0.27208 0.7376 0.4504 0.0
H196 H 0.03512 0.68812 0.3308 0.0
H197 H -0.00369 0.66391 0.28705 0.0
H198 H 0.96666 0.81198 0.28767 0.0
H199 H 0.00679 0.83696 0.33145 0.0
Ho200 Ho 0.46921 0.24903 0.72976 0.0
Ho201 Ho 0.34112 0.16385 0.70986 0.0
C202 C 0.35713 0.21741 0.76603 0.0
C203 C 0.56984 0.33471 0.74412 0.0
C204 C 0.5921 0.35448 0.77034 0.0
C205 C 0.62335 0.41499 0.77626 0.0
C206 C 0.63679 0.4337 0.80183 0.0
C207 C 0.61872 0.39205 0.82186 0.0
C208 C 0.58878 0.33154 0.81572 0.0
C209 C 0.57544 0.31296 0.79026 0.0
C210 C 0.41713 0.13737 0.74779 0.0
C211 C 0.45505 0.19801 0.67243 0.0
C212 C 0.24986 0.07819 0.68735 0.0
C213 C 0.24175 0.04472 0.66326 0.0
C214 C 0.28969 0.04386 0.65145 0.0
C215 C 0.28345 0.01854 0.6271 0.0
C216 C 0.22865 -0.00813 0.61444 0.0
C217 C 0.17997 -0.00977 0.62675 0.0
C218 C 0.18666 0.01704 0.65084 0.0
C219 C 0.38492 0.28101 0.70481 0.0
O220 O 0.41011 0.25939 0.75828 0.0
O221 O 0.32353 0.1701 0.75175 0.0
O222 O 0.562 0.28285 0.73724 0.0
O223 O 0.52547 0.34207 0.73774 0.0
O224 O 0.453 0.18369 0.76094 0.0
O225 O 0.41321 0.15283 0.72535 0.0
O226 O 0.39714 0.16827 0.67621 0.0
O227 O 0.49276 0.23286 0.69018 0.0
O228 O 0.26622 0.13398 0.68433 0.0
O229 O 0.27874 0.07 0.70594 0.0
O230 O 0.33017 0.24521 0.71133 0.0
O231 O 0.41089 0.25266 0.70147 0.0
H232 H 0.6356 0.44768 0.76121 0.0
H233 H 0.65947 0.48063 0.80599 0.0
H234 H 0.57504 0.2984 0.83065 0.0
H235 H 0.55061 0.26599 0.78629 0.0
H236 H 0.33229 0.06367 0.6608 0.0
H237 H 0.32153 0.01999 0.61808 0.0
H238 H 0.13731 0.96999 0.61733 0.0
H239 H 0.14908 0.0172 0.65955 0.0
C240 C 0.24099 0.72132 0.29713 0.0
C241 C 0.1893 0.70438 0.31133 0.0
C242 C 0.23823 0.70515 0.27123 0.0
C243 C 0.18245 0.6709 0.25929 0.0
C244 C 0.1301 0.65172 0.27379 0.0
C245 C 0.13418 0.66891 0.29962 0.0
C246 C 0.29504 0.72587 0.25647 0.0
C247 C 0.06982 0.6142 0.26186 0.0
C248 C 0.17888 0.68318 0.18665 0.0
C249 C 0.17814 0.63164 0.17868 0.0
C250 C 0.17881 0.69579 0.21289 0.0
C251 C 0.17907 0.65638 0.23148 0.0
C252 C 0.17779 0.60401 0.22347 0.0
C253 C 0.17721 0.59224 0.19716 0.0
C254 C 0.17917 0.75159 0.22072 0.0
C255 C 0.17814 0.56093 0.24266 0.0
H256 H 0.28376 0.74881 0.30601 0.0
H257 H 0.09412 0.65471 0.3106 0.0
H258 H 0.29572 0.68754 0.24767 0.0
H259 H 0.29785 0.75544 0.2406 0.0
H260 H 0.33476 0.75015 0.26882 0.0
H261 H 0.03384 0.59729 0.27638 0.0
H262 H 0.06191 0.64076 0.24751 0.0
H263 H 0.06742 0.57593 0.25153 0.0
H264 H 0.17918 0.7134 0.17235 0.0
H265 H 0.17752 0.55279 0.19098 0.0
H266 H 0.22095 0.78151 0.23094 0.0
H267 H 0.14228 0.74093 0.23423 0.0
H268 H 0.17504 0.77555 0.20398 0.0
H269 H 0.21972 0.58287 0.25393 0.0
H270 H 0.1744 0.521 0.23327 0.0
H271 H 0.14104 0.54672 0.25643 0.0
C272 C 0.53705 0.22012 0.64111 0.0
C273 C 0.47663 0.19603 0.64632 0.0
C274 C 0.55701 0.22089 0.61592 0.0
C275 C 0.51558 0.1977 0.59555 0.0
C276 C 0.45465 0.1731 0.60077 0.0
C277 C 0.43597 0.17211 0.62604 0.0
C278 C 0.62237 0.2473 0.611 0.0
C279 C 0.40879 0.14799 0.57971 0.0
C280 C 0.55983 0.24906 0.52683 0.0
C281 C 0.56239 0.20127 0.51605 0.0
C282 C 0.54673 0.24937 0.55295 0.0
C283 C 0.53547 0.2005 0.56857 0.0
C284 C 0.53846 0.15231 0.55783 0.0
C285 C 0.55201 0.15334 0.5317 0.0
C286 C 0.54337 0.30129 0.56369 0.0
C287 C 0.52596 0.09907 0.57377 0.0
H288 H 0.56875 0.23867 0.65666 0.0
H289 H 0.38921 0.15387 0.62969 0.0
H290 H 0.63079 0.21465 0.60108 0.0
H291 H 0.63823 0.28614 0.59813 0.0
H292 H 0.64865 0.26155 0.62901 0.0
H293 H 0.36564 0.1419 0.58624 0.0
H294 H 0.42312 0.17715 0.5626 0.0
H295 H 0.40234 0.10442 0.57366 0.0
H296 H 0.5687 0.28653 0.51487 0.0
H297 H 0.55362 0.11613 0.52337 0.0
H298 H 0.5721 0.31926 0.58086 0.0
H299 H 0.4974 0.2865 0.56991 0.0
H300 H 0.55692 0.33739 0.54942 0.0
H301 H 0.55293 0.11311 0.59156 0.0
H302 H 0.53531 0.06779 0.56312 0.0
H303 H 0.4788 0.07527 0.57967 0.0
C304 C 0.32107 0.5368 0.97775 0.0
C305 C 0.26931 0.48226 0.98134 0.0
C306 C 0.34594 0.55462 0.95307 0.0
C307 C 0.31729 0.51762 0.93167 0.0
C308 C 0.26464 0.46294 0.93531 0.0
C309 C 0.24173 0.44575 0.96007 0.0
C310 C 0.40283 0.61267 0.94987 0.0
C311 C 0.23148 0.4231 0.91296 0.0
C312 C 0.33376 0.57531 0.86381 0.0
C313 C 0.36755 0.55352 0.85229 0.0
C314 C 0.31981 0.56678 0.89003 0.0
C315 C 0.34049 0.53604 0.90517 0.0
C316 C 0.37696 0.51632 0.89395 0.0
C317 C 0.39001 0.52523 0.8676 0.0
C318 C 0.28046 0.58812 0.90119 0.0
C319 C 0.39939 0.48283 0.90942 0.0
H320 H 0.34267 0.56481 0.99422 0.0
H321 H 0.20128 0.40379 0.96271 0.0
H322 H 0.43669 0.60506 0.9406 0.0
H323 H 0.3956 0.64228 0.93705 0.0
H324 H 0.42047 0.63556 0.9685 0.0
H325 H 0.19477 0.37942 0.91931 0.0
H326 H 0.21268 0.44464 0.90095 0.0
H327 H 0.26185 0.41591 0.90061 0.0
H328 H 0.3175 0.5985 0.85221 0.0
H329 H 0.41601 0.50813 0.85881 0.0
H330 H 0.30031 0.61412 0.91893 0.0
H331 H 0.23714 0.54953 0.90656 0.0
H332 H 0.27254 0.61586 0.88745 0.0
H333 H 0.41778 0.50531 0.92803 0.0
H334 H 0.43398 0.47827 0.89898 0.0
H335 H 0.36211 0.43786 0.91373 0.0
C336 C 0.77436 0.32215 0.31134 0.0
C337 C 0.78477 0.27507 0.31505 0.0
C338 C 0.77906 0.34635 0.28671 0.0
C339 C 0.79276 0.32163 0.26536 0.0
C340 C 0.80268 0.27376 0.26909 0.0
C341 C 0.79948 0.25174 0.29387 0.0
C342 C 0.7692 0.39809 0.28348 0.0
C343 C 0.81556 0.24494 0.24678 0.0
C344 C 0.74648 0.3323 0.19756 0.0
C345 C 0.80076 0.37235 0.18617 0.0
C346 C 0.74285 0.31741 0.22362 0.0
C347 C 0.79468 0.34368 0.23884 0.0
C348 C 0.84923 0.38606 0.22777 0.0
C349 C 0.85169 0.3997 0.20154 0.0
C350 C 0.68393 0.27152 0.23458 0.0
C351 C 0.90547 0.41524 0.24337 0.0
H352 H 0.7633 0.34046 0.32769 0.0
H353 H 0.80703 0.21494 0.29654 0.0
H354 H 0.80806 0.4352 0.27392 0.0
H355 H 0.73041 0.38535 0.27092 0.0
H356 H 0.76159 0.41393 0.30213 0.0
H357 H 0.81948 0.20635 0.25285 0.0
H358 H 0.77986 0.22971 0.23225 0.0
H359 H 0.85728 0.27766 0.23727 0.0
H360 H 0.70663 0.31209 0.18602 0.0
H361 H 0.89388 0.43053 0.19294 0.0
H362 H 0.67376 0.28853 0.25223 0.0
H363 H 0.68586 0.23153 0.24006 0.0
H364 H 0.64716 0.25829 0.2207 0.0
H365 H 0.8981 0.43143 0.26195 0.0
H366 H 0.94222 0.45296 0.23303 0.0
H367 H 0.91926 0.38241 0.24778 0.0
C368 C 0.43224 0.71828 0.63539 0.0
C369 C 0.47376 0.76942 0.64836 0.0
C370 C 0.41814 0.72071 0.60959 0.0
C371 C 0.44659 0.77551 0.59644 0.0
C372 C 0.48757 0.8275 0.60957 0.0
C373 C 0.50024 0.82389 0.63542 0.0
C374 C 0.3737 0.66445 0.59624 0.0
C375 C 0.51926 0.88669 0.59614 0.0
C376 C 0.45359 0.77003 0.5237 0.0
C377 C 0.40747 0.77965 0.51633 0.0
C378 C 0.46745 0.76957 0.5497 0.0
C379 C 0.43397 0.7782 0.56882 0.0
C380 C 0.38783 0.7885 0.56159 0.0
C381 C 0.37532 0.7893 0.53548 0.0
C382 C 0.51752 0.75917 0.55672 0.0
C383 C 0.35136 0.79827 0.58144 0.0
H384 H 0.41154 0.67606 0.64523 0.0
H385 H 0.53203 0.86379 0.64531 0.0
H386 H 0.33757 0.66982 0.58801 0.0
H387 H 0.39531 0.65487 0.58007 0.0
H388 H 0.35404 0.62582 0.60941 0.0
H389 H 0.54746 0.92339 0.60946 0.0
H390 H 0.54773 0.8854 0.58062 0.0
H391 H 0.48689 0.89657 0.58702 0.0
H392 H 0.47821 0.76164 0.50918 0.0
H393 H 0.34021 0.79758 0.53012 0.0
H394 H 0.50037 0.71831 0.56838 0.0
H395 H 0.55051 0.79631 0.56865 0.0
H396 H 0.54028 0.75478 0.53954 0.0
H397 H 0.32914 0.75925 0.59427 0.0
H398 H 0.31714 0.80593 0.57261 0.0
H399 H 0.38046 0.83694 0.59362 0.0
C400 C 0.70263 0.44316 0.96962 0.0
C401 C 0.69583 0.48787 0.98118 0.0
C402 C 0.6873 0.42753 0.94381 0.0
C403 C 0.66431 0.45708 0.92923 0.0
C404 C 0.65532 0.50078 0.94101 0.0
C405 C 0.67144 0.51582 0.96681 0.0
C406 C 0.69725 0.38047 0.93195 0.0
C407 C 0.63085 0.5334 0.92623 0.0
C408 C 0.68461 0.45801 0.85694 0.0
C409 C 0.62963 0.41111 0.84916 0.0
C410 C 0.69607 0.47433 0.88292 0.0
C411 C 0.65138 0.44315 0.90148 0.0
C412 C 0.5952 0.39706 0.89363 0.0
C413 C 0.58511 0.38143 0.86759 0.0
C414 C 0.75638 0.52407 0.89058 0.0
C415 C 0.54596 0.36389 0.91276 0.0
H416 H 0.72147 0.42133 0.98051 0.0
H417 H 0.66594 0.5504 0.97554 0.0
H418 H 0.6554 0.34482 0.92361 0.0
H419 H 0.72976 0.39983 0.91605 0.0
H420 H 0.7139 0.36052 0.94609 0.0
H421 H 0.61285 0.55419 0.93928 0.0
H422 H 0.66679 0.5689 0.91467 0.0
H423 H 0.59534 0.50354 0.91284 0.0
H424 H 0.71924 0.48091 0.84281 0.0
H425 H 0.54221 0.3458 0.86163 0.0
H426 H 0.77775 0.50717 0.90379 0.0
H427 H 0.75199 0.55863 0.90108 0.0
H428 H 0.78582 0.54478 0.87375 0.0
H429 H 0.55922 0.34087 0.92683 0.0
H430 H 0.50415 0.33066 0.9034 0.0
H431 H 0.53749 0.39538 0.92369 0.0
C432 C 0.35166 0.45739 0.11087 0.0
C433 C 0.32025 0.43047 0.08835 0.0
C434 C 0.40996 0.46977 0.11395 0.0
C435 C 0.43678 0.45482 0.09399 0.0
C436 C 0.40346 0.42318 0.0722 0.0
C437 C 0.34526 0.41105 0.06973 0.0
C438 C 0.44389 0.50232 0.13767 0.0
C439 C 0.43046 0.40578 0.05063 0.0
C440 C 0.59836 0.5417 0.07701 0.0
C441 C 0.61536 0.50051 0.08319 0.0
C442 C 0.54084 0.52958 0.08242 0.0
C443 C 0.50065 0.47554 0.09458 0.0
C444 C 0.52003 0.43704 0.1033 0.0
C445 C 0.57723 0.44973 0.0972 0.0
C446 C 0.52152 0.57173 0.07289 0.0
C447 C 0.47891 0.37985 0.1169 0.0
H448 H 0.33197 0.4719 0.12541 0.0
H449 H 0.32072 0.38979 0.05241 0.0
H450 H 0.47058 0.48335 0.14506 0.0
H451 H 0.47492 0.54926 0.13275 0.0
H452 H 0.41406 0.50104 0.1532 0.0
H453 H 0.39746 0.37859 0.03575 0.0
H454 H 0.4662 0.44613 0.04131 0.0
H455 H 0.4506 0.38038 0.05826 0.0
H456 H 0.62814 0.58081 0.06619 0.0
H457 H 0.59114 0.41834 0.10228 0.0
H458 H 0.49649 0.57984 0.08801 0.0
H459 H 0.4916 0.55176 0.05618 0.0
H460 H 0.55964 0.61481 0.06683 0.0
H461 H 0.45119 0.38638 0.1312 0.0
H462 H 0.50357 0.36127 0.1268 0.0
H463 H 0.44876 0.34688 0.10267 0.0
C464 C 0.03542 0.60175 0.40534 0.0
C465 C 0.09275 0.625 0.41474 0.0
C466 C -0.0082 0.54401 0.41179 0.0
C467 C 0.00671 0.50978 0.42792 0.0
C468 C 0.06296 0.53583 0.43961 0.0
C469 C 0.10564 0.59333 0.4327 0.0
C470 C 0.93182 0.51775 0.39926 0.0
C471 C 0.08017 0.50116 0.45722 0.0
C472 C 0.88055 0.35795 0.4449 0.0
C473 C 0.88278 0.32473 0.42418 0.0
C474 C 0.92253 0.41812 0.44727 0.0
C475 C 0.96776 0.44488 0.42866 0.0
C476 C 0.97335 0.41009 0.40917 0.0
C477 C 0.9306 0.35022 0.40716 0.0
C478 C 0.91561 0.45373 0.46844 0.0
C479 C 0.02198 0.43691 0.38927 0.0
H480 H 0.02608 0.62658 0.39131 0.0
H481 H 0.15039 0.61205 0.43996 0.0
H482 H 0.92809 0.48636 0.384 0.0
H483 H 0.89623 0.49262 0.41347 0.0
H484 H 0.92451 0.55221 0.39042 0.0
H485 H 0.12034 0.53067 0.46857 0.0
H486 H 0.04366 0.47331 0.47062 0.0
H487 H 0.08956 0.47124 0.44556 0.0
H488 H 0.84371 0.33812 0.45822 0.0
H489 H 0.93252 0.32434 0.39128 0.0
H490 H 0.89646 0.47966 0.46033 0.0
H491 H 0.95904 0.48557 0.47695 0.0
H492 H 0.88584 0.42497 0.48393 0.0
H493 H 0.01567 0.46798 0.37701 0.0
H494 H 0.02268 0.40288 0.37671 0.0
H495 H 0.06569 0.46256 0.39873 0.0
C496 C 0.42745 0.0691 0.77751 0.0
C497 C 0.41035 0.07948 0.75349 0.0
C498 C 0.43579 0.02076 0.78117 0.0
C499 C 0.42758 0.98309 0.76017 0.0
C500 C 0.4054 -0.00936 0.73654 0.0
C501 C 0.39633 0.03856 0.7336 0.0
C502 C 0.45724 0.01257 0.80689 0.0
C503 C 0.39569 0.95097 0.71371 0.0
C504 C 0.51825 0.90992 0.7492 0.0
C505 C 0.47431 0.85067 0.75125 0.0
C506 C 0.50481 0.9546 0.75403 0.0
C507 C 0.44667 0.93885 0.76174 0.0
C508 C 0.40438 0.8792 0.7667 0.0
C509 C 0.41848 0.83556 0.76097 0.0
C510 C 0.55102 0.01798 0.74851 0.0
C511 C 0.34276 0.861 0.77588 0.0
H512 H 0.43753 0.10054 0.79299 0.0
H513 H 0.38249 0.04636 0.7151 0.0
H514 H 0.43514 0.96509 0.81218 0.0
H515 H 0.50545 0.02922 0.80583 0.0
H516 H 0.44935 0.03715 0.82235 0.0
H517 H 0.37583 0.96145 0.69714 0.0
H518 H 0.43857 0.9559 0.70751 0.0
H519 H 0.36624 0.90399 0.71902 0.0
H520 H 0.56149 0.92116 0.74197 0.0
H521 H 0.38488 0.78938 0.76306 0.0
H522 H 0.55379 0.04713 0.76458 0.0
H523 H 0.53828 0.03318 0.73103 0.0
H524 H 0.59547 0.02333 0.74531 0.0
H525 H 0.34385 0.89204 0.79072 0.0
H526 H 0.32 0.81552 0.78393 0.0
H527 H 0.31619 0.86206 0.75952 0.0
C528 C 0.59296 0.63155 0.72239 0.0
C529 C 0.58203 0.65854 0.70161 0.0
C530 C 0.56263 0.56954 0.72449 0.0
C531 C 0.521 0.53479 0.70533 0.0
C532 C 0.51248 0.5623 0.68372 0.0
C533 C 0.54322 0.62385 0.68215 0.0
C534 C 0.57277 0.5415 0.74778 0.0
C535 C 0.46897 0.52689 0.66277 0.0
C536 C 0.47364 0.37504 0.6936 0.0
C537 C 0.41728 0.34575 0.70487 0.0
C538 C 0.50906 0.4364 0.69487 0.0
C539 C 0.48694 0.46947 0.70713 0.0
C540 C 0.42985 0.44009 0.7185 0.0
C541 C 0.39547 0.37819 0.71725 0.0
C542 C 0.56976 0.46582 0.6827 0.0
C543 C 0.40486 0.47398 0.73168 0.0
H544 H 0.6218 0.65869 0.73776 0.0
H545 H 0.53447 0.64521 0.66627 0.0
H546 H 0.53301 0.52269 0.76027 0.0
H547 H 0.57977 0.50459 0.74201 0.0
H548 H 0.61141 0.5739 0.75922 0.0
H549 H 0.46812 0.55535 0.64715 0.0
H550 H 0.48031 0.4949 0.65428 0.0
H551 H 0.42383 0.50104 0.67098 0.0
H552 H 0.49056 0.34974 0.68397 0.0
H553 H 0.35213 0.35528 0.72615 0.0
H554 H 0.60356 0.4956 0.69674 0.0
H555 H 0.57116 0.4934 0.66624 0.0
H556 H 0.582 0.43325 0.67567 0.0
H557 H 0.43614 0.50302 0.74662 0.0
H558 H 0.36137 0.44453 0.74086 0.0
H559 H 0.3993 0.50231 0.71745 0.0
C560 C 0.07169 0.46138 1.02151 0.0
C561 C 0.05039 0.41081 0.03691 0.0
C562 C 0.04681 0.49756 0.02264 0.0
C563 C -0.00204 0.48163 0.03896 0.0
C564 C 0.97485 0.42948 0.05404 0.0
C565 C 0.00166 0.39445 0.0529 0.0
C566 C 0.07317 0.55305 1.00648 0.0
C567 C 0.92171 0.41052 0.07113 0.0
C568 C 0.95514 0.59792 0.05335 0.0
C569 C 0.91123 0.58341 0.03485 0.0
C570 C -0.01572 0.5651 0.05502 0.0
C571 C 0.96804 0.51683 0.03803 0.0
C572 C 0.92514 0.50378 1.01883 0.0
C573 C 0.89802 0.53785 1.01726 0.0
C574 C 0.03093 0.58069 0.07535 0.0
C575 C 0.9064 0.45261 1.00042 0.0
H576 H 0.10961 0.47396 1.00913 0.0
H577 H -0.01421 0.35562 0.06495 0.0
H578 H 0.04049 0.54966 0.99203 0.0
H579 H 0.08418 0.59197 1.01876 0.0
H580 H 0.11386 0.56112 0.99624 0.0
H581 H 0.91329 0.3728 0.08371 0.0
H582 H 0.92764 0.44791 0.08335 0.0
H583 H 0.88208 0.39703 0.05902 0.0
H584 H 0.96432 0.63243 0.06723 0.0
H585 H 0.86372 0.52667 1.00302 0.0
H586 H 0.07259 0.58782 0.06643 0.0
H587 H 0.0162 0.54345 0.08906 0.0
H588 H 0.04036 0.62107 0.08625 0.0
H589 H 0.94468 0.4593 0.98866 0.0
H590 H 0.87061 0.44721 0.98726 0.0
H591 H 0.89059 0.4109 1.01132 0.0
C592 C 0.35249 0.96259 0.38556 0.0
C593 C 0.32237 0.9171 0.36773 0.0
C594 C 0.41458 -0.00828 0.38707 0.0
C595 C 0.44614 0.97427 0.37043 0.0
C596 C 0.41558 0.92945 0.35198 0.0
C597 C 0.35418 0.90186 0.35074 0.0
C598 C 0.44631 0.04 0.40675 0.0
C599 C 0.44756 0.90972 0.33384 0.0
C600 C 0.60566 0.07805 0.35358 0.0
C601 C 0.63487 0.05645 0.36876 0.0
C602 C 0.54442 0.05288 0.35466 0.0
C603 C 0.51144 0.00439 0.37114 0.0
C604 C 0.54057 0.98177 0.38635 0.0
C605 C 0.60242 0.00815 0.38494 0.0
C606 C 0.51506 0.07818 0.33809 0.0
C607 C 0.50639 0.92971 0.40394 0.0
H608 H 0.3276 0.97352 0.39894 0.0
H609 H 0.33061 0.86655 0.33693 0.0
H610 H 0.47049 0.02714 0.42036 0.0
H611 H 0.47965 0.08136 0.39718 0.0
H612 H 0.41548 0.04922 0.41783 0.0
H613 H 0.41678 0.87332 0.32094 0.0
H614 H 0.47922 0.94743 0.32181 0.0
H615 H 0.47349 0.89436 0.34494 0.0
H616 H 0.63112 0.11583 0.34116 0.0
H617 H 0.62537 -0.00764 0.39698 0.0
H618 H 0.48758 0.09013 0.35014 0.0
H619 H 0.48518 0.04446 0.32405 0.0
H620 H 0.54763 0.11808 0.32736 0.0
H621 H 0.47713 0.93766 0.41675 0.0
H622 H 0.53595 0.92056 0.41595 0.0
H623 H 0.47762 0.88981 0.39233 0.0
C624 C 0.37794 0.26211 0.81008 0.0
C625 C 0.33683 0.22319 0.79204 0.0
C626 C 0.36068 0.26667 0.83517 0.0
C627 C 0.30061 0.23177 0.8425 0.0
C628 C 0.25864 0.19331 0.82424 0.0
C629 C 0.27731 0.18905 0.79933 0.0
C630 C 0.40725 0.30759 0.854 0.0
C631 C 0.19393 0.15667 0.83104 0.0
C632 C 0.26251 0.19856 0.91357 0.0
C633 C 0.24811 0.24167 0.92045 0.0
C634 C 0.28008 0.19515 0.88835 0.0
C635 C 0.28193 0.23488 0.86937 0.0
C636 C 0.26668 0.27804 0.8762 0.0
C637 C 0.25063 0.28128 0.90169 0.0
C638 C 0.29746 0.14953 0.88209 0.0
C639 C 0.26779 0.32119 0.85666 0.0
H640 H 0.42421 0.28827 0.80481 0.0
H641 H 0.2452 0.15911 0.78552 0.0
H642 H 0.39261 0.33497 0.86447 0.0
H643 H 0.41466 0.28089 0.86848 0.0
H644 H 0.45 0.33752 0.84439 0.0
H645 H 0.16652 0.13073 0.81443 0.0
H646 H 0.18788 0.12563 0.84681 0.0
H647 H 0.1774 0.18582 0.8381 0.0
H648 H 0.26108 0.16818 0.92808 0.0
H649 H 0.239 0.31422 0.90692 0.0
H650 H 0.34359 0.17177 0.87481 0.0
H651 H 0.26869 0.11975 0.86665 0.0
H652 H 0.29419 0.12228 0.89903 0.0
H653 H 0.31422 0.35309 0.85129 0.0
H654 H 0.24717 0.34646 0.8641 0.0
H655 H 0.24427 0.29764 0.8389 0.0
C656 C 0.06268 0.2691 0.24891 0.0
C657 C 0.00395 0.24989 0.25577 0.0
C658 C 0.08254 0.28667 0.22355 0.0
C659 C 0.04236 0.28373 0.20453 0.0
C660 C -0.01732 0.26313 0.21136 0.0
C661 C 0.96444 0.24694 0.23691 0.0
C662 C 0.14673 0.30929 0.21721 0.0
C663 C 0.93812 0.25864 0.19175 0.0
C664 C 0.10247 0.38018 0.14484 0.0
C665 C 0.10323 0.34061 0.12676 0.0
C666 C 0.08293 0.36229 0.17016 0.0
C667 C 0.06292 0.30315 0.17762 0.0
C668 C 0.06253 0.26269 0.15936 0.0
C669 C 0.08314 0.282 0.13424 0.0
C670 C 0.08485 0.40706 0.18909 0.0
C671 C 0.04025 0.19892 0.16637 0.0
H672 H 0.09331 0.27153 0.26352 0.0
H673 H 0.91891 0.23111 0.24217 0.0
H674 H 0.15035 0.282 0.20177 0.0
H675 H 0.16729 0.35527 0.20989 0.0
H676 H 0.17226 0.30875 0.23413 0.0
H677 H 0.89233 0.23581 0.19949 0.0
H678 H 0.94929 0.3036 0.18548 0.0
H679 H 0.93944 0.23438 0.17448 0.0
H680 H 0.11851 0.42574 0.1394 0.0
H681 H 0.08334 0.25104 0.12043 0.0
H682 H 0.11588 0.41338 0.20491 0.0
H683 H 0.04064 0.39089 0.19782 0.0
H684 H 0.09923 0.45055 0.18001 0.0
H685 H 0.06751 0.19647 0.18209 0.0
H686 H 0.04138 0.17263 0.14981 0.0
H687 H -0.00586 0.17834 0.17356 0.0
C688 C 0.70976 0.05199 0.58254 0.0
C689 C 0.70587 -0.00191 0.58926 0.0
C690 C 0.71712 0.07101 0.55682 0.0
C691 C 0.72007 0.03509 0.53712 0.0
C692 C 0.71499 0.98017 0.54365 0.0
C693 C 0.70843 0.9626 0.56954 0.0
C694 C 0.72198 0.12975 0.55075 0.0
C695 C 0.71663 0.93991 0.52324 0.0
C696 C 0.68873 0.06402 0.46876 0.0
C697 C 0.74591 0.09733 0.45842 0.0
C698 C 0.6796 0.04242 0.49407 0.0
C699 C 0.72887 0.0552 0.50972 0.0
C700 C 0.78668 0.08811 0.49929 0.0
C701 C 0.79447 0.10834 0.47373 0.0
C702 C 0.61716 0.0068 0.50418 0.0
C703 C 0.84045 0.10344 0.51539 0.0
H704 H 0.70656 0.07931 0.5974 0.0
H705 H 0.70624 0.92126 0.57434 0.0
H706 H 0.76402 0.15855 0.54045 0.0
H707 H 0.68538 0.12303 0.53786 0.0
H708 H 0.7204 0.15319 0.56829 0.0
H709 H 0.70994 0.89769 0.53133 0.0
H710 H 0.68181 0.92966 0.50869 0.0
H711 H 0.7598 0.96247 0.51312 0.0
H712 H 0.65082 0.05515 0.45711 0.0
H713 H 0.83879 0.13455 0.46604 0.0
H714 H 0.60998 0.03193 0.51957 0.0
H715 H 0.60979 0.96481 0.51276 0.0
H716 H 0.58362 -0.00375 0.48893 0.0
H717 H 0.8419 0.13035 0.53218 0.0
H718 H 0.88229 0.12859 0.5044 0.0
H719 H 0.83782 0.06254 0.52295 0.0
C720 C 0.6463 0.81388 0.81233 0.0
C721 C 0.61885 0.76466 0.796 0.0
C722 C 0.66212 0.80838 0.83762 0.0
C723 C 0.65075 0.75248 0.84669 0.0
C724 C 0.62442 0.70304 0.83 0.0
C725 C 0.60891 0.70978 0.80494 0.0
C726 C 0.6899 0.86214 0.85481 0.0
C727 C 0.61196 0.64274 0.83868 0.0
C728 C 0.73682 0.74688 0.90464 0.0
C729 C 0.6955 0.73154 0.92462 0.0
C730 C 0.72291 0.7539 0.87929 0.0
C731 C 0.66625 0.74555 0.87363 0.0
C732 C 0.62413 0.72966 0.89365 0.0
C733 C 0.63922 0.72282 0.91884 0.0
C734 C 0.76875 0.76976 0.85848 0.0
C735 C 0.56309 0.72002 0.88847 0.0
H736 H 0.6539 0.85635 0.80561 0.0
H737 H 0.58898 0.67182 0.79226 0.0
H738 H 0.66142 0.85433 0.87188 0.0
H739 H 0.73332 0.8702 0.86188 0.0
H740 H 0.6965 0.90253 0.84482 0.0
H741 H 0.59293 0.60923 0.82309 0.0
H742 H 0.65327 0.64521 0.84556 0.0
H743 H 0.58046 0.6274 0.85502 0.0
H744 H 0.78 0.75261 0.90876 0.0
H745 H 0.60712 0.71147 0.93413 0.0
H746 H 0.77815 0.8116 0.84903 0.0
H747 H 0.75157 0.73485 0.8435 0.0
H748 H 0.81087 0.7751 0.86603 0.0
H749 H 0.56657 0.76063 0.88008 0.0
H750 H 0.5356 0.70831 0.90613 0.0
H751 H 0.53996 0.68399 0.87421 0.0
C752 C -0.01056 0.7119 0.23824 0.0
C753 C 0.95702 0.72221 0.25697 0.0
C754 C 0.96844 0.69659 0.21295 0.0
C755 C 0.91331 0.6909 0.20624 0.0
C756 C 0.88067 0.70185 0.22504 0.0
C757 C 0.90314 0.71782 0.25012 0.0
C758 C 0.00508 0.68611 0.19348 0.0
C759 C 0.82114 0.69494 0.21887 0.0
C760 C 0.87492 0.69323 0.13567 0.0
C761 C 0.84223 0.63273 0.12993 0.0
C762 C 0.89894 0.71291 0.16034 0.0
C763 C 0.8886 0.67105 0.17988 0.0
C764 C 0.85444 0.60988 0.17427 0.0
C765 C 0.8324 0.59156 0.14932 0.0
C766 C 0.93608 0.77845 0.1654 0.0
C767 C 0.84124 0.56361 0.19456 0.0
H768 H 0.03157 0.71624 0.24339 0.0
H769 H 0.87776 0.72533 0.26459 0.0
H770 H 0.98023 0.63981 0.18646 0.0
H771 H 0.01412 0.71533 0.17661 0.0
H772 H 0.04787 0.69432 0.20153 0.0
H773 H 0.80191 0.70631 0.23545 0.0
H774 H 0.82507 0.7236 0.20242 0.0
H775 H 0.78998 0.64858 0.21308 0.0
H776 H 0.88294 0.72518 0.1207 0.0
H777 H 0.80654 0.5447 0.14509 0.0
H778 H -0.01915 0.78932 0.17187 0.0
H779 H 0.91612 0.79147 0.18108 0.0
H780 H 0.94065 0.80526 0.14811 0.0
H781 H 0.88247 0.56371 0.19965 0.0
H782 H 0.80809 0.51845 0.188 0.0
H783 H 0.82446 0.57373 0.21232 0.0
C784 C 0.18459 0.90787 0.58288 0.0
C785 C 0.22309 0.96789 0.58806 0.0
C786 C 0.18046 0.88482 0.55801 0.0
C787 C 0.2147 0.92299 0.53775 0.0
C788 C 0.25301 0.98387 0.54294 0.0
C789 C 0.25691 0.00539 0.56803 0.0
C790 C 0.14015 0.81948 0.55347 0.0
C791 C 0.29012 0.02627 0.522 0.0
C792 C 0.24642 0.85769 0.4784 0.0
C793 C 0.20328 0.85324 0.46105 0.0
C794 C 0.25073 0.88038 0.50331 0.0
C795 C 0.21098 0.89926 0.51122 0.0
C796 C 0.16783 0.89563 0.49371 0.0
C797 C 0.16426 0.87237 0.46893 0.0
C798 C 0.29717 0.88287 0.52128 0.0
C799 C 0.12562 0.91669 0.50111 0.0
H800 H 0.15856 0.87883 0.59842 0.0
H801 H 0.28584 0.05188 0.57199 0.0
H802 H 0.10704 0.81234 0.53851 0.0
H803 H 0.16632 0.79968 0.54625 0.0
H804 H 0.11645 0.79575 0.57119 0.0
H805 H 0.31658 0.0725 0.52906 0.0
H806 H 0.32079 0.01271 0.51389 0.0
H807 H 0.26129 0.02501 0.5061 0.0
H808 H 0.27666 0.8428 0.47265 0.0
H809 H 0.13105 0.86956 0.45567 0.0
H810 H 0.27551 0.84741 0.53587 0.0
H811 H 0.32011 0.92567 0.53167 0.0
H812 H 0.33086 0.87672 0.51091 0.0
H813 H 0.09852 0.89108 0.51782 0.0
H814 H 0.09549 0.91214 0.48514 0.0
H815 H 0.15082 0.96382 0.50703 0.0
loop_
_geom_bond_atom_site_label_1
_geom_bond_atom_site_label_2
_geom_bond_distance
_geom_bond_site_symmetry_2
_ccdc_geom_bond_type
Ho0 C3 2.811 . S
Ho0 O20 2.322 . S
Ho0 O22 2.378 . S
Ho0 O23 2.524 . S
Ho0 O24 2.381 . S
Ho0 O25 2.669 . S
Ho0 O27 2.346 . S
Ho0 O31 2.305 . S
Ho1 C12 2.811 1_554 S
Ho1 O21 2.346 . S
Ho1 O25 2.305 . S
Ho1 O26 2.322 1_554 S
Ho1 O28 2.378 1_554 S
Ho1 O29 2.524 1_554 S
Ho1 O30 2.381 . S
Ho1 O31 2.669 . S
C2 O20 1.259 . S
C2 O21 1.268 . S
C3 Ho0 2.811 . S
C3 C4 1.488 . S
C3 O22 1.215 . S
C3 O23 1.289 . S
C4 C3 1.488 . S
C4 C5 1.348 . S
C4 C9 1.413 . S
C5 C4 1.348 . S
C5 C6 1.442 . S
C5 H32 0.930 . S
C6 C5 1.442 . S
C6 C7 1.381 . S
C6 H33 0.931 . S
C7 C6 1.381 . S
C7 C8 1.321 . S
C8 C7 1.321 . S
C8 C9 1.403 . S
C8 H34 0.934 . S
C9 C4 1.413 . S
C9 C8 1.403 . S
C9 H35 0.930 . S
C10 O24 1.275 . S
C10 O25 1.256 . S
C11 O26 1.259 . S
C11 O27 1.268 1_556 S
C12 Ho1 2.811 1_556 S
C12 C13 1.488 . S
C12 O28 1.215 . S
C12 O29 1.289 . S
C13 C12 1.488 . S
C13 C14 1.348 . S
C13 C18 1.413 . S
C14 C13 1.348 . S
C14 C15 1.442 . S
C14 H36 0.930 . S
C15 C14 1.442 . S
C15 C16 1.381 . S
C15 H37 0.931 . S
C16 C15 1.381 . S
C16 C17 1.321 . S
C17 C16 1.321 . S
C17 C18 1.403 . S
C17 H38 0.934 . S
C18 C13 1.413 . S
C18 C17 1.403 . S
C18 H39 0.930 . S
C19 O30 1.275 . S
C19 O31 1.256 . S
O20 Ho0 2.322 . S
O20 C2 1.259 . S
O21 Ho1 2.346 . S
O21 C2 1.268 . S
O22 Ho0 2.378 . S
O22 C3 1.215 . S
O23 Ho0 2.524 . S
O23 C3 1.289 . S
O24 Ho0 2.381 . S
O24 C10 1.275 . S
O25 Ho0 2.669 . S
O25 Ho1 2.305 . S
O25 C10 1.256 . S
O26 Ho1 2.322 1_556 S
O26 C11 1.259 . S
O27 Ho0 2.346 . S
O27 C11 1.268 1_554 S
O28 Ho1 2.378 1_556 S
O28 C12 1.215 . S
O29 Ho1 2.524 1_556 S
O29 C12 1.289 . S
O30 Ho1 2.381 . S
O30 C19 1.275 . S
O31 Ho0 2.305 . S
O31 Ho1 2.669 . S
O31 C19 1.256 . S
H32 C5 0.930 . S
H33 C6 0.931 . S
H34 C8 0.934 . S
H35 C9 0.930 . S
H36 C14 0.930 . S
H37 C15 0.931 . S
H38 C17 0.934 . S
H39 C18 0.930 . S
Ho40 C43 2.811 . S
Ho40 O60 2.322 . S
Ho40 O62 2.378 . S
Ho40 O63 2.524 . S
Ho40 O64 2.381 . S
Ho40 O65 2.669 . S
Ho40 O67 2.346 . S
Ho40 O71 2.305 . S
Ho41 C52 2.811 . S
Ho41 O61 2.346 . S
Ho41 O65 2.305 . S
Ho41 O66 2.322 . S
Ho41 O68 2.378 . S
Ho41 O69 2.524 . S
Ho41 O70 2.381 . S
Ho41 O71 2.669 . S
C42 O60 1.259 . S
C42 O61 1.268 . S
C43 Ho40 2.811 . S
C43 C44 1.488 . S
C43 O62 1.215 . S
C43 O63 1.289 . S
C44 C43 1.488 . S
C44 C45 1.348 . S
C44 C49 1.413 . S
C45 C44 1.348 . S
C45 C46 1.442 . S
C45 H72 0.930 . S
C46 C45 1.442 . S
C46 C47 1.381 . S
C46 H73 0.931 . S
C47 C46 1.381 . S
C47 C48 1.321 . S
C48 C47 1.321 . S
C48 C49 1.403 . S
C48 H74 0.934 . S
C49 C44 1.413 . S
C49 C48 1.403 . S
C49 H75 0.930 . S
C50 O64 1.275 . S
C50 O65 1.256 . S
C51 O66 1.259 . S
C51 O67 1.268 . S
C52 Ho41 2.811 . S
C52 C53 1.488 . S
C52 O68 1.215 . S
C52 O69 1.289 . S
C53 C52 1.488 . S
C53 C54 1.348 . S
C53 C58 1.413 . S
C54 C53 1.348 . S
C54 C55 1.442 . S
C54 H76 0.930 . S
C55 C54 1.442 . S
C55 C56 1.381 . S
C55 H77 0.931 1_655 S
C56 C55 1.381 . S
C56 C57 1.321 . S
C57 C56 1.321 . S
C57 C58 1.403 . S
C57 H78 0.934 . S
C58 C53 1.413 . S
C58 C57 1.403 . S
C58 H79 0.930 . S
C59 O70 1.275 . S
C59 O71 1.256 . S
O60 Ho40 2.322 . S
O60 C42 1.259 . S
O61 Ho41 2.346 . S
O61 C42 1.268 . S
O62 Ho40 2.378 . S
O62 C43 1.215 . S
O63 Ho40 2.524 . S
O63 C43 1.289 . S
O64 Ho40 2.381 . S
O64 C50 1.275 . S
O65 Ho40 2.669 . S
O65 Ho41 2.305 . S
O65 C50 1.256 . S
O66 Ho41 2.322 . S
O66 C51 1.259 . S
O67 Ho40 2.346 . S
O67 C51 1.268 . S
O68 Ho41 2.378 . S
O68 C52 1.215 . S
O69 Ho41 2.524 . S
O69 C52 1.289 . S
O70 Ho41 2.381 . S
O70 C59 1.275 . S
O71 Ho40 2.305 . S
O71 Ho41 2.669 . S
O71 C59 1.256 . S
H72 C45 0.930 . S
H73 C46 0.931 . S
H74 C48 0.934 . S
H75 C49 0.930 . S
H76 C54 0.930 . S
H77 C55 0.931 1_455 S
H78 C57 0.934 . S
H79 C58 0.930 . S
Ho80 C83 2.811 . S
Ho80 O100 2.322 . S
Ho80 O102 2.378 . S
Ho80 O103 2.524 . S
Ho80 O104 2.381 . S
Ho80 O105 2.669 . S
Ho80 O107 2.346 . S
Ho80 O111 2.305 . S
Ho81 C92 2.811 . S
Ho81 O101 2.346 . S
Ho81 O105 2.305 . S
Ho81 O106 2.322 . S
Ho81 O108 2.378 . S
Ho81 O109 2.524 . S
Ho81 O110 2.381 . S
Ho81 O111 2.669 . S
C82 O100 1.259 . S
C82 O101 1.268 . S
C83 Ho80 2.811 . S
C83 C84 1.488 . S
C83 O102 1.215 . S
C83 O103 1.289 . S
C84 C83 1.488 . S
C84 C85 1.348 . S
C84 C89 1.413 . S
C85 C84 1.348 . S
C85 C86 1.442 . S
C85 H112 0.930 . S
C86 C85 1.442 . S
C86 C87 1.381 . S
C86 H113 0.931 . S
C87 C86 1.381 . S
C87 C88 1.321 . S
C88 C87 1.321 . S
C88 C89 1.403 . S
C88 H114 0.934 . S
C89 C84 1.413 . S
C89 C88 1.403 . S
C89 H115 0.930 . S
C90 O104 1.275 . S
C90 O105 1.256 . S
C91 O106 1.259 . S
C91 O107 1.268 . S
C92 Ho81 2.811 . S
C92 C93 1.488 . S
C92 O108 1.215 . S
C92 O109 1.289 . S
C93 C92 1.488 . S
C93 C94 1.348 . S
C93 C98 1.413 . S
C94 C93 1.348 . S
C94 C95 1.442 . S
C94 H116 0.930 . S
C95 C94 1.442 . S
C95 C96 1.381 . S
C95 H117 0.931 1_565 S
C96 C95 1.381 . S
C96 C97 1.321 . S
C97 C96 1.321 . S
C97 C98 1.403 . S
C97 H118 0.934 . S
C98 C93 1.413 . S
C98 C97 1.403 . S
C98 H119 0.930 . S
C99 O110 1.275 . S
C99 O111 1.256 . S
O100 Ho80 2.322 . S
O100 C82 1.259 . S
O101 Ho81 2.346 . S
O101 C82 1.268 . S
O102 Ho80 2.378 . S
O102 C83 1.215 . S
O103 Ho80 2.524 . S
O103 C83 1.289 . S
O104 Ho80 2.381 . S
O104 C90 1.275 . S
O105 Ho80 2.669 . S
O105 Ho81 2.305 . S
O105 C90 1.256 . S
O106 Ho81 2.322 . S
O106 C91 1.259 . S
O107 Ho80 2.346 . S
O107 C91 1.268 . S
O108 Ho81 2.378 . S
O108 C92 1.215 . S
O109 Ho81 2.524 . S
O109 C92 1.289 . S
O110 Ho81 2.381 . S
O110 C99 1.275 . S
O111 Ho80 2.305 . S
O111 Ho81 2.669 . S
O111 C99 1.256 . S
H112 C85 0.930 . S
H113 C86 0.931 . S
H114 C88 0.934 . S
H115 C89 0.930 . S
H116 C94 0.930 . S
H117 C95 0.931 1_545 S
H118 C97 0.934 . S
H119 C98 0.930 . S
Ho120 C123 2.811 . S
Ho120 O140 2.322 . S
Ho120 O142 2.378 . S
Ho120 O143 2.524 . S
Ho120 O144 2.381 . S
Ho120 O145 2.669 . S
Ho120 O147 2.346 . S
Ho120 O151 2.305 . S
Ho121 C132 2.811 1_554 S
Ho121 O141 2.346 . S
Ho121 O145 2.305 . S
Ho121 O146 2.322 1_554 S
Ho121 O148 2.378 1_554 S
Ho121 O149 2.524 1_554 S
Ho121 O150 2.381 . S
Ho121 O151 2.669 . S
C122 O140 1.259 . S
C122 O141 1.268 . S
C123 Ho120 2.811 . S
C123 C124 1.488 . S
C123 O142 1.215 . S
C123 O143 1.289 . S
C124 C123 1.488 . S
C124 C125 1.348 . S
C124 C129 1.413 . S
C125 C124 1.348 . S
C125 C126 1.442 . S
C125 H152 0.930 . S
C126 C125 1.442 . S
C126 C127 1.381 . S
C126 H153 0.931 . S
C127 C126 1.381 . S
C127 C128 1.321 . S
C128 C127 1.321 . S
C128 C129 1.403 . S
C128 H154 0.934 . S
C129 C124 1.413 . S
C129 C128 1.403 . S
C129 H155 0.930 . S
C130 O144 1.275 . S
C130 O145 1.256 . S
C131 O146 1.259 . S
C131 O147 1.268 1_556 S
C132 Ho121 2.811 1_556 S
C132 C133 1.488 . S
C132 O148 1.215 . S
C132 O149 1.289 . S
C133 C132 1.488 . S
C133 C134 1.348 . S
C133 C138 1.413 . S
C134 C133 1.348 . S
C134 C135 1.442 . S
C134 H156 0.930 . S
C135 C134 1.442 . S
C135 C136 1.381 . S
C135 H157 0.931 . S
C136 C135 1.381 . S
C136 C137 1.321 . S
C137 C136 1.321 . S
C137 C138 1.403 . S
C137 H158 0.934 . S
C138 C133 1.413 . S
C138 C137 1.403 . S
C138 H159 0.930 . S
C139 O150 1.275 . S
C139 O151 1.256 . S
O140 Ho120 2.322 . S
O140 C122 1.259 . S
O141 Ho121 2.346 . S
O141 C122 1.268 . S
O142 Ho120 2.378 . S
O142 C123 1.215 . S
O143 Ho120 2.524 . S
O143 C123 1.289 . S
O144 Ho120 2.381 . S
O144 C130 1.275 . S
O145 Ho120 2.669 . S
O145 Ho121 2.305 . S
O145 C130 1.256 . S
O146 Ho121 2.322 1_556 S
O146 C131 1.259 . S
O147 Ho120 2.346 . S
O147 C131 1.268 1_554 S
O148 Ho121 2.378 1_556 S
O148 C132 1.215 . S
O149 Ho121 2.524 1_556 S
O149 C132 1.289 . S
O150 Ho121 2.381 . S
O150 C139 1.275 . S
O151 Ho120 2.305 . S
O151 Ho121 2.669 . S
O151 C139 1.256 . S
H152 C125 0.930 . S
H153 C126 0.931 . S
H154 C128 0.934 . S
H155 C129 0.930 . S
H156 C134 0.930 . S
H157 C135 0.931 . S
H158 C137 0.934 . S
H159 C138 0.930 . S
Ho160 C163 2.811 . S
Ho160 O180 2.322 . S
Ho160 O182 2.378 . S
Ho160 O183 2.524 . S
Ho160 O184 2.381 . S
Ho160 O185 2.669 . S
Ho160 O187 2.346 . S
Ho160 O191 2.305 . S
Ho161 C172 2.811 . S
Ho161 O181 2.346 . S
Ho161 O185 2.305 . S
Ho161 O186 2.322 . S
Ho161 O188 2.378 . S
Ho161 O189 2.524 . S
Ho161 O190 2.381 . S
Ho161 O191 2.669 . S
C162 O180 1.259 . S
C162 O181 1.268 . S
C163 Ho160 2.811 . S
C163 C164 1.488 . S
C163 O182 1.215 . S
C163 O183 1.289 . S
C164 C163 1.488 . S
C164 C165 1.348 . S
C164 C169 1.413 . S
C165 C164 1.348 . S
C165 C166 1.442 . S
C165 H192 0.930 . S
C166 C165 1.442 . S
C166 C167 1.381 . S
C166 H193 0.931 . S
C167 C166 1.381 . S
C167 C168 1.321 . S
C168 C167 1.321 . S
C168 C169 1.403 . S
C168 H194 0.934 . S
C169 C164 1.413 . S
C169 C168 1.403 . S
C169 H195 0.930 . S
C170 O184 1.275 . S
C170 O185 1.256 . S
C171 O186 1.259 . S
C171 O187 1.268 . S
C172 Ho161 2.811 . S
C172 C173 1.488 . S
C172 O188 1.215 . S
C172 O189 1.289 . S
C173 C172 1.488 . S
C173 C174 1.348 . S
C173 C178 1.413 . S
C174 C173 1.348 . S
C174 C175 1.442 . S
C174 H196 0.930 . S
C175 C174 1.442 . S
C175 C176 1.381 . S
C175 H197 0.931 1_455 S
C176 C175 1.381 . S
C176 C177 1.321 . S
C177 C176 1.321 . S
C177 C178 1.403 . S
C177 H198 0.934 . S
C178 C173 1.413 . S
C178 C177 1.403 . S
C178 H199 0.930 . S
C179 O190 1.275 . S
C179 O191 1.256 . S
O180 Ho160 2.322 . S
O180 C162 1.259 . S
O181 Ho161 2.346 . S
O181 C162 1.268 . S
O182 Ho160 2.378 . S
O182 C163 1.215 . S
O183 Ho160 2.524 . S
O183 C163 1.289 . S
O184 Ho160 2.381 . S
O184 C170 1.275 . S
O185 Ho160 2.669 . S
O185 Ho161 2.305 . S
O185 C170 1.256 . S
O186 Ho161 2.322 . S
O186 C171 1.259 . S
O187 Ho160 2.346 . S
O187 C171 1.268 . S
O188 Ho161 2.378 . S
O188 C172 1.215 . S
O189 Ho161 2.524 . S
O189 C172 1.289 . S
O190 Ho161 2.381 . S
O190 C179 1.275 . S
O191 Ho160 2.305 . S
O191 Ho161 2.669 . S
O191 C179 1.256 . S
H192 C165 0.930 . S
H193 C166 0.931 . S
H194 C168 0.934 . S
H195 C169 0.930 . S
H196 C174 0.930 . S
H197 C175 0.931 1_655 S
H198 C177 0.934 . S
H199 C178 0.930 . S
Ho200 C203 2.811 . S
Ho200 O220 2.322 . S
Ho200 O222 2.378 . S
Ho200 O223 2.524 . S
Ho200 O224 2.381 . S
Ho200 O225 2.669 . S
Ho200 O227 2.346 . S
Ho200 O231 2.305 . S
Ho201 C212 2.811 . S
Ho201 O221 2.346 . S
Ho201 O225 2.305 . S
Ho201 O226 2.322 . S
Ho201 O228 2.378 . S
Ho201 O229 2.524 . S
Ho201 O230 2.381 . S
Ho201 O231 2.669 . S
C202 O220 1.259 . S
C202 O221 1.268 . S
C203 Ho200 2.811 . S
C203 C204 1.488 . S
C203 O222 1.215 . S
C203 O223 1.289 . S
C204 C203 1.488 . S
C204 C205 1.348 . S
C204 C209 1.413 . S
C205 C204 1.348 . S
C205 C206 1.442 . S
C205 H232 0.930 . S
C206 C205 1.442 . S
C206 C207 1.381 . S
C206 H233 0.931 . S
C207 C206 1.381 . S
C207 C208 1.321 . S
C208 C207 1.321 . S
C208 C209 1.403 . S
C208 H234 0.934 . S
C209 C204 1.413 . S
C209 C208 1.403 . S
C209 H235 0.930 . S
C210 O224 1.275 . S
C210 O225 1.256 . S
C211 O226 1.259 . S
C211 O227 1.268 . S
C212 Ho201 2.811 . S
C212 C213 1.488 . S
C212 O228 1.215 . S
C212 O229 1.289 . S
C213 C212 1.488 . S
C213 C214 1.348 . S
C213 C218 1.413 . S
C214 C213 1.348 . S
C214 C215 1.442 . S
C214 H236 0.930 . S
C215 C214 1.442 . S
C215 C216 1.381 . S
C215 H237 0.931 1_545 S
C216 C215 1.381 . S
C216 C217 1.321 . S
C217 C216 1.321 . S
C217 C218 1.403 . S
C217 H238 0.934 . S
C218 C213 1.413 . S
C218 C217 1.403 . S
C218 H239 0.930 . S
C219 O230 1.275 . S
C219 O231 1.256 . S
O220 Ho200 2.322 . S
O220 C202 1.259 . S
O221 Ho201 2.346 . S
O221 C202 1.268 . S
O222 Ho200 2.378 . S
O222 C203 1.215 . S
O223 Ho200 2.524 . S
O223 C203 1.289 . S
O224 Ho200 2.381 . S
O224 C210 1.275 . S
O225 Ho200 2.669 . S
O225 Ho201 2.305 . S
O225 C210 1.256 . S
O226 Ho201 2.322 . S
O226 C211 1.259 . S
O227 Ho200 2.346 . S
O227 C211 1.268 . S
O228 Ho201 2.378 . S
O228 C212 1.215 . S
O229 Ho201 2.524 . S
O229 C212 1.289 . S
O230 Ho201 2.381 . S
O230 C219 1.275 . S
O231 Ho200 2.305 . S
O231 Ho201 2.669 . S
O231 C219 1.256 . S
H232 C205 0.930 . S
H233 C206 0.931 . S
H234 C208 0.934 . S
H235 C209 0.930 . S
H236 C214 0.930 . S
H237 C215 0.931 1_565 S
H238 C217 0.934 . S
H239 C218 0.930 . S
C240 C241 1.391 . S
C240 C242 1.394 . S
C240 H256 0.931 . S
C241 C240 1.391 . S
C241 C245 1.376 . S
C242 C240 1.394 . S
C242 C243 1.369 . S
C242 C246 1.531 . S
C243 C242 1.369 . S
C243 C244 1.410 . S
C243 C251 1.503 . S
C244 C243 1.410 . S
C244 C245 1.392 . S
C244 C247 1.511 . S
C245 C241 1.376 . S
C245 C244 1.392 . S
C245 H257 0.929 . S
C246 C242 1.531 . S
C246 H258 0.960 . S
C246 H259 0.962 . S
C246 H260 0.960 . S
C247 C244 1.511 . S
C247 H261 0.961 . S
C247 H262 0.961 . S
C247 H263 0.961 . S
C248 C249 1.370 . S
C248 C250 1.363 . S
C248 H264 0.931 . S
C249 C248 1.370 . S
C249 C253 1.408 . S
C250 C248 1.363 . S
C250 C251 1.370 . S
C250 C254 1.524 . S
C251 C243 1.503 . S
C251 C250 1.370 . S
C251 C252 1.403 . S
C252 C251 1.403 . S
C252 C253 1.404 . S
C252 C255 1.539 . S
C253 C249 1.408 . S
C253 C252 1.404 . S
C253 H265 0.930 . S
C254 C250 1.524 . S
C254 H266 0.956 . S
C254 H267 0.961 . S
C254 H268 0.961 . S
C255 C252 1.539 . S
C255 H269 0.958 . S
C255 H270 0.961 . S
C255 H271 0.960 . S
H256 C240 0.931 . S
H257 C245 0.929 . S
H258 C246 0.960 . S
H259 C246 0.962 . S
H260 C246 0.960 . S
H261 C247 0.961 . S
H262 C247 0.961 . S
H263 C247 0.961 . S
H264 C248 0.931 . S
H265 C253 0.930 . S
H266 C254 0.956 . S
H267 C254 0.961 . S
H268 C254 0.961 . S
H269 C255 0.958 . S
H270 C255 0.961 . S
H271 C255 0.960 . S
C272 C273 1.391 . S
C272 C274 1.394 . S
C272 H288 0.931 . S
C273 C272 1.391 . S
C273 C277 1.376 . S
C274 C272 1.394 . S
C274 C275 1.369 . S
C274 C278 1.531 . S
C275 C274 1.369 . S
C275 C276 1.410 . S
C275 C283 1.503 . S
C276 C275 1.410 . S
C276 C277 1.392 . S
C276 C279 1.511 . S
C277 C273 1.376 . S
C277 C276 1.392 . S
C277 H289 0.929 . S
C278 C274 1.531 . S
C278 H290 0.960 . S
C278 H291 0.962 . S
C278 H292 0.960 . S
C279 C276 1.511 . S
C279 H293 0.961 . S
C279 H294 0.961 . S
C279 H295 0.961 . S
C280 C281 1.370 . S
C280 C282 1.363 . S
C280 H296 0.931 . S
C281 C280 1.370 . S
C281 C285 1.408 . S
C282 C280 1.363 . S
C282 C283 1.370 . S
C282 C286 1.524 . S
C283 C275 1.503 . S
C283 C282 1.370 . S
C283 C284 1.403 . S
C284 C283 1.403 . S
C284 C285 1.404 . S
C284 C287 1.539 . S
C285 C281 1.408 . S
C285 C284 1.404 . S
C285 H297 0.930 . S
C286 C282 1.524 . S
C286 H298 0.956 . S
C286 H299 0.961 . S
C286 H300 0.961 . S
C287 C284 1.539 . S
C287 H301 0.958 . S
C287 H302 0.961 . S
C287 H303 0.960 . S
H288 C272 0.931 . S
H289 C277 0.929 . S
H290 C278 0.960 . S
H291 C278 0.962 . S
H292 C278 0.960 . S
H293 C279 0.961 . S
H294 C279 0.961 . S
H295 C279 0.961 . S
H296 C280 0.931 . S
H297 C285 0.930 . S
H298 C286 0.956 . S
H299 C286 0.961 . S
H300 C286 0.961 . S
H301 C287 0.958 . S
H302 C287 0.961 . S
H303 C287 0.960 . S
C304 C305 1.391 . S
C304 C306 1.394 . S
C304 H320 0.931 . S
C305 C304 1.391 . S
C305 C309 1.376 . S
C306 C304 1.394 . S
C306 C307 1.369 . S
C306 C310 1.531 . S
C307 C306 1.369 . S
C307 C308 1.410 . S
C307 C315 1.503 . S
C308 C307 1.410 . S
C308 C309 1.392 . S
C308 C311 1.511 . S
C309 C305 1.376 . S
C309 C308 1.392 . S
C309 H321 0.929 . S
C310 C306 1.531 . S
C310 H322 0.960 . S
C310 H323 0.962 . S
C310 H324 0.960 . S
C311 C308 1.511 . S
C311 H325 0.961 . S
C311 H326 0.961 . S
C311 H327 0.961 . S
C312 C313 1.370 . S
C312 C314 1.363 . S
C312 H328 0.931 . S
C313 C312 1.370 . S
C313 C317 1.408 . S
C314 C312 1.363 . S
C314 C315 1.370 . S
C314 C318 1.524 . S
C315 C307 1.503 . S
C315 C314 1.370 . S
C315 C316 1.403 . S
C316 C315 1.403 . S
C316 C317 1.404 . S
C316 C319 1.539 . S
C317 C313 1.408 . S
C317 C316 1.404 . S
C317 H329 0.930 . S
C318 C314 1.524 . S
C318 H330 0.956 . S
C318 H331 0.961 . S
C318 H332 0.961 . S
C319 C316 1.539 . S
C319 H333 0.958 . S
C319 H334 0.961 . S
C319 H335 0.960 . S
H320 C304 0.931 . S
H321 C309 0.929 . S
H322 C310 0.960 . S
H323 C310 0.962 . S
H324 C310 0.960 . S
H325 C311 0.961 . S
H326 C311 0.961 . S
H327 C311 0.961 . S
H328 C312 0.931 . S
H329 C317 0.930 . S
H330 C318 0.956 . S
H331 C318 0.961 . S
H332 C318 0.961 . S
H333 C319 0.958 . S
H334 C319 0.961 . S
H335 C319 0.960 . S
C336 C337 1.391 . S
C336 C338 1.394 . S
C336 H352 0.931 . S
C337 C336 1.391 . S
C337 C341 1.376 . S
C338 C336 1.394 . S
C338 C339 1.369 . S
C338 C342 1.531 . S
C339 C338 1.369 . S
C339 C340 1.410 . S
C339 C347 1.503 . S
C340 C339 1.410 . S
C340 C341 1.392 . S
C340 C343 1.511 . S
C341 C337 1.376 . S
C341 C340 1.392 . S
C341 H353 0.929 . S
C342 C338 1.531 . S
C342 H354 0.960 . S
C342 H355 0.962 . S
C342 H356 0.960 . S
C343 C340 1.511 . S
C343 H357 0.961 . S
C343 H358 0.961 . S
C343 H359 0.961 . S
C344 C345 1.370 . S
C344 C346 1.363 . S
C344 H360 0.931 . S
C345 C344 1.370 . S
C345 C349 1.408 . S
C346 C344 1.363 . S
C346 C347 1.370 . S
C346 C350 1.524 . S
C347 C339 1.503 . S
C347 C346 1.370 . S
C347 C348 1.403 . S
C348 C347 1.403 . S
C348 C349 1.404 . S
C348 C351 1.539 . S
C349 C345 1.408 . S
C349 C348 1.404 . S
C349 H361 0.930 . S
C350 C346 1.524 . S
C350 H362 0.956 . S
C350 H363 0.961 . S
C350 H364 0.961 . S
C351 C348 1.539 . S
C351 H365 0.958 . S
C351 H366 0.961 . S
C351 H367 0.960 . S
H352 C336 0.931 . S
H353 C341 0.929 . S
H354 C342 0.960 . S
H355 C342 0.962 . S
H356 C342 0.960 . S
H357 C343 0.961 . S
H358 C343 0.961 . S
H359 C343 0.961 . S
H360 C344 0.931 . S
H361 C349 0.930 . S
H362 C350 0.956 . S
H363 C350 0.961 . S
H364 C350 0.961 . S
H365 C351 0.958 . S
H366 C351 0.961 . S
H367 C351 0.960 . S
C368 C369 1.391 . S
C368 C370 1.394 . S
C368 H384 0.931 . S
C369 C368 1.391 . S
C369 C373 1.376 . S
C370 C368 1.394 . S
C370 C371 1.369 . S
C370 C374 1.531 . S
C371 C370 1.369 . S
C371 C372 1.410 . S
C371 C379 1.503 . S
C372 C371 1.410 . S
C372 C373 1.392 . S
C372 C375 1.511 . S
C373 C369 1.376 . S
C373 C372 1.392 . S
C373 H385 0.929 . S
C374 C370 1.531 . S
C374 H386 0.960 . S
C374 H387 0.962 . S
C374 H388 0.960 . S
C375 C372 1.511 . S
C375 H389 0.961 . S
C375 H390 0.961 . S
C375 H391 0.961 . S
C376 C377 1.370 . S
C376 C378 1.363 . S
C376 H392 0.931 . S
C377 C376 1.370 . S
C377 C381 1.408 . S
C378 C376 1.363 . S
C378 C379 1.370 . S
C378 C382 1.524 . S
C379 C371 1.503 . S
C379 C378 1.370 . S
C379 C380 1.403 . S
C380 C379 1.403 . S
C380 C381 1.404 . S
C380 C383 1.539 . S
C381 C377 1.408 . S
C381 C380 1.404 . S
C381 H393 0.930 . S
C382 C378 1.524 . S
C382 H394 0.956 . S
C382 H395 0.961 . S
C382 H396 0.961 . S
C383 C380 1.539 . S
C383 H397 0.958 . S
C383 H398 0.961 . S
C383 H399 0.960 . S
H384 C368 0.931 . S
H385 C373 0.929 . S
H386 C374 0.960 . S
H387 C374 0.962 . S
H388 C374 0.960 . S
H389 C375 0.961 . S
H390 C375 0.961 . S
H391 C375 0.961 . S
H392 C376 0.931 . S
H393 C381 0.930 . S
H394 C382 0.956 . S
H395 C382 0.961 . S
H396 C382 0.961 . S
H397 C383 0.958 . S
H398 C383 0.961 . S
H399 C383 0.960 . S
C400 C401 1.391 . S
C400 C402 1.394 . S
C400 H416 0.931 . S
C401 C400 1.391 . S
C401 C405 1.376 . S
C402 C400 1.394 . S
C402 C403 1.369 . S
C402 C406 1.531 . S
C403 C402 1.369 . S
C403 C404 1.410 . S
C403 C411 1.503 . S
C404 C403 1.410 . S
C404 C405 1.392 . S
C404 C407 1.511 . S
C405 C401 1.376 . S
C405 C404 1.392 . S
C405 H417 0.929 . S
C406 C402 1.531 . S
C406 H418 0.960 . S
C406 H419 0.962 . S
C406 H420 0.960 . S
C407 C404 1.511 . S
C407 H421 0.961 . S
C407 H422 0.961 . S
C407 H423 0.961 . S
C408 C409 1.370 . S
C408 C410 1.363 . S
C408 H424 0.931 . S
C409 C408 1.370 . S
C409 C413 1.408 . S
C410 C408 1.363 . S
C410 C411 1.370 . S
C410 C414 1.524 . S
C411 C403 1.503 . S
C411 C410 1.370 . S
C411 C412 1.403 . S
C412 C411 1.403 . S
C412 C413 1.404 . S
C412 C415 1.539 . S
C413 C409 1.408 . S
C413 C412 1.404 . S
C413 H425 0.930 . S
C414 C410 1.524 . S
C414 H426 0.956 . S
C414 H427 0.961 . S
C414 H428 0.961 . S
C415 C412 1.539 . S
C415 H429 0.958 . S
C415 H430 0.961 . S
C415 H431 0.960 . S
H416 C400 0.931 . S
H417 C405 0.929 . S
H418 C406 0.960 . S
H419 C406 0.962 . S
H420 C406 0.960 . S
H421 C407 0.961 . S
H422 C407 0.961 . S
H423 C407 0.961 . S
H424 C408 0.931 . S
H425 C413 0.930 . S
H426 C414 0.956 . S
H427 C414 0.961 . S
H428 C414 0.961 . S
H429 C415 0.958 . S
H430 C415 0.961 . S
H431 C415 0.960 . S
C432 C433 1.391 . S
C432 C434 1.394 . S
C432 H448 0.931 . S
C433 C432 1.391 . S
C433 C437 1.376 . S
C434 C432 1.394 . S
C434 C435 1.369 . S
C434 C438 1.531 . S
C435 C434 1.369 . S
C435 C436 1.410 . S
C435 C443 1.503 . S
C436 C435 1.410 . S
C436 C437 1.392 . S
C436 C439 1.511 . S
C437 C433 1.376 . S
C437 C436 1.392 . S
C437 H449 0.929 . S
C438 C434 1.531 . S
C438 H450 0.960 . S
C438 H451 0.962 . S
C438 H452 0.960 . S
C439 C436 1.511 . S
C439 H453 0.961 . S
C439 H454 0.961 . S
C439 H455 0.961 . S
C440 C441 1.370 . S
C440 C442 1.363 . S
C440 H456 0.931 . S
C441 C440 1.370 . S
C441 C445 1.408 . S
C442 C440 1.363 . S
C442 C443 1.370 . S
C442 C446 1.561 . S
C443 C435 1.503 . S
C443 C442 1.370 . S
C443 C444 1.403 . S
C444 C443 1.403 . S
C444 C445 1.404 . S
C444 C447 1.539 . S
C445 C441 1.408 . S
C445 C444 1.404 . S
C445 H457 0.930 . S
C446 C442 1.561 . S
C446 H458 0.962 . S
C446 H459 0.955 1_554 S
C446 H460 0.926 1_554 S
C447 C444 1.539 . S
C447 H461 0.958 . S
C447 H462 0.961 . S
C447 H463 0.960 . S
H448 C432 0.931 . S
H449 C437 0.929 . S
H450 C438 0.960 . S
H451 C438 0.962 . S
H452 C438 0.960 . S
H453 C439 0.961 . S
H454 C439 0.961 . S
H455 C439 0.961 . S
H456 C440 0.931 . S
H457 C445 0.930 . S
H458 C446 0.962 . S
H459 C446 0.955 1_556 S
H460 C446 0.926 1_556 S
H461 C447 0.958 . S
H462 C447 0.961 . S
H463 C447 0.960 . S
C464 C465 1.391 . S
C464 C466 1.394 . S
C464 H480 0.931 . S
C465 C464 1.391 . S
C465 C469 1.376 . S
C466 C464 1.394 . S
C466 C467 1.369 . S
C466 C470 1.531 . S
C467 C466 1.369 . S
C467 C468 1.410 . S
C467 C475 1.503 1_455 S
C468 C467 1.410 . S
C468 C469 1.392 . S
C468 C471 1.511 . S
C469 C465 1.376 . S
C469 C468 1.392 . S
C469 H481 0.929 . S
C470 C466 1.531 . S
C470 H482 0.960 . S
C470 H483 0.962 1_455 S
C470 H484 0.960 . S
C471 C468 1.511 . S
C471 H485 0.961 . S
C471 H486 0.961 1_455 S
C471 H487 0.961 . S
C472 C473 1.370 . S
C472 C474 1.363 . S
C472 H488 0.931 . S
C473 C472 1.370 . S
C473 C477 1.408 . S
C474 C472 1.363 . S
C474 C475 1.370 . S
C474 C478 1.524 . S
C475 C467 1.503 1_655 S
C475 C474 1.370 . S
C475 C476 1.403 1_655 S
C476 C475 1.403 1_455 S
C476 C477 1.404 1_455 S
C476 C479 1.539 . S
C477 C473 1.408 . S
C477 C476 1.404 1_655 S
C477 H489 0.930 1_655 S
C478 C474 1.524 . S
C478 H490 0.956 . S
C478 H491 0.961 . S
C478 H492 0.961 . S
C479 C476 1.539 . S
C479 H493 0.958 . S
C479 H494 0.961 . S
C479 H495 0.960 . S
H480 C464 0.931 . S
H481 C469 0.929 . S
H482 C470 0.960 . S
H483 C470 0.962 1_655 S
H484 C470 0.960 . S
H485 C471 0.961 . S
H486 C471 0.961 1_655 S
H487 C471 0.961 . S
H488 C472 0.931 . S
H489 C477 0.930 1_455 S
H490 C478 0.956 . S
H491 C478 0.961 . S
H492 C478 0.961 . S
H493 C479 0.958 . S
H494 C479 0.961 . S
H495 C479 0.960 . S
C496 C497 1.391 . S
C496 C498 1.394 . S
C496 H512 0.931 . S
C497 C496 1.391 . S
C497 C501 1.376 . S
C498 C496 1.394 . S
C498 C499 1.369 . S
C498 C502 1.531 . S
C499 C498 1.369 . S
C499 C500 1.410 1_545 S
C499 C507 1.503 1_545 S
C500 C499 1.410 1_565 S
C500 C501 1.392 1_565 S
C500 C503 1.511 . S
C501 C497 1.376 . S
C501 C500 1.392 1_545 S
C501 H513 0.929 1_545 S
C502 C498 1.531 . S
C502 H514 0.960 . S
C502 H515 0.962 . S
C502 H516 0.960 . S
C503 C500 1.511 . S
C503 H517 0.961 . S
C503 H518 0.961 . S
C503 H519 0.961 . S
C504 C505 1.370 . S
C504 C506 1.363 . S
C504 H520 0.931 . S
C505 C504 1.370 . S
C505 C509 1.408 . S
C506 C504 1.363 . S
C506 C507 1.370 . S
C506 C510 1.524 1_565 S
C507 C499 1.503 1_565 S
C507 C506 1.370 . S
C507 C508 1.403 . S
C508 C507 1.403 . S
C508 C509 1.404 . S
C508 C511 1.539 . S
C509 C505 1.408 . S
C509 C508 1.404 . S
C509 H521 0.930 . S
C510 C506 1.524 1_545 S
C510 H522 0.956 . S
C510 H523 0.961 1_545 S
C510 H524 0.953 1_545 S
C511 C508 1.539 . S
C511 H525 0.958 . S
C511 H526 0.961 . S
C511 H527 0.960 . S
H512 C496 0.931 . S
H513 C501 0.929 1_565 S
H514 C502 0.960 . S
H515 C502 0.962 . S
H516 C502 0.960 . S
H517 C503 0.961 . S
H518 C503 0.961 . S
H519 C503 0.961 . S
H520 C504 0.931 . S
H521 C509 0.930 . S
H522 C510 0.956 . S
H523 C510 0.961 1_565 S
H524 C510 0.953 1_565 S
H525 C511 0.958 . S
H526 C511 0.961 . S
H527 C511 0.960 . S
C528 C529 1.391 . S
C528 C530 1.394 . S
C528 H544 0.931 . S
C529 C528 1.391 . S
C529 C533 1.376 . S
C530 C528 1.394 . S
C530 C531 1.369 . S
C530 C534 1.531 . S
C531 C530 1.369 . S
C531 C532 1.410 . S
C531 C539 1.503 . S
C532 C531 1.410 . S
C532 C533 1.392 . S
C532 C535 1.511 . S
C533 C529 1.376 . S
C533 C532 1.392 . S
C533 H545 0.929 . S
C534 C530 1.531 . S
C534 H546 0.960 . S
C534 H547 0.962 . S
C534 H548 0.960 . S
C535 C532 1.511 . S
C535 H549 0.961 . S
C535 H550 0.961 . S
C535 H551 0.961 . S
C536 C537 1.370 . S
C536 C538 1.363 . S
C536 H552 0.931 . S
C537 C536 1.370 . S
C537 C541 1.408 . S
C538 C536 1.363 . S
C538 C539 1.370 . S
C538 C542 1.524 . S
C539 C531 1.503 . S
C539 C538 1.370 . S
C539 C540 1.403 . S
C540 C539 1.403 . S
C540 C541 1.404 . S
C540 C543 1.539 . S
C541 C537 1.408 . S
C541 C540 1.404 . S
C541 H553 0.930 . S
C542 C538 1.524 . S
C542 H554 0.956 . S
C542 H555 0.961 . S
C542 H556 0.961 . S
C543 C540 1.539 . S
C543 H557 0.958 . S
C543 H558 0.961 . S
C543 H559 0.960 . S
H544 C528 0.931 . S
H545 C533 0.929 . S
H546 C534 0.960 . S
H547 C534 0.962 . S
H548 C534 0.960 . S
H549 C535 0.961 . S
H550 C535 0.961 . S
H551 C535 0.961 . S
H552 C536 0.931 . S
H553 C541 0.930 . S
H554 C542 0.956 . S
H555 C542 0.961 . S
H556 C542 0.961 . S
H557 C543 0.958 . S
H558 C543 0.961 . S
H559 C543 0.960 . S
C560 C561 1.391 . S
C560 C562 1.394 . S
C560 H576 0.931 1_554 S
C561 C560 1.391 . S
C561 C565 1.376 . S
C562 C560 1.394 . S
C562 C563 1.369 . S
C562 C566 1.531 1_554 S
C563 C562 1.369 . S
C563 C564 1.410 1_455 S
C563 C571 1.503 1_455 S
C564 C563 1.410 1_655 S
C564 C565 1.392 1_655 S
C564 C567 1.511 . S
C565 C561 1.376 . S
C565 C564 1.392 1_455 S
C565 H577 0.929 . S
C566 C562 1.531 1_556 S
C566 H578 0.960 . S
C566 H579 0.962 . S
C566 H580 0.960 . S
C567 C564 1.511 . S
C567 H581 0.961 . S
C567 H582 0.961 . S
C567 H583 0.961 . S
C568 C569 1.370 . S
C568 C570 1.363 . S
C568 H584 0.931 . S
C569 C568 1.370 . S
C569 C573 1.408 . S
C570 C568 1.363 . S
C570 C571 1.370 . S
C570 C574 1.524 1_655 S
C571 C563 1.503 1_655 S
C571 C570 1.370 . S
C571 C572 1.403 . S
C572 C571 1.403 . S
C572 C573 1.404 . S
C572 C575 1.539 1_554 S
C573 C569 1.408 . S
C573 C572 1.404 . S
C573 H585 0.930 1_554 S
C574 C570 1.524 1_455 S
C574 H586 0.956 . S
C574 H587 0.961 . S
C574 H588 0.961 . S
C575 C572 1.539 1_556 S
C575 H589 0.958 . S
C575 H590 0.961 . S
C575 H591 0.960 . S
H576 C560 0.931 1_556 S
H577 C565 0.929 . S
H578 C566 0.960 . S
H579 C566 0.962 . S
H580 C566 0.960 . S
H581 C567 0.961 . S
H582 C567 0.961 . S
H583 C567 0.961 . S
H584 C568 0.931 . S
H585 C573 0.930 1_556 S
H586 C574 0.956 . S
H587 C574 0.961 . S
H588 C574 0.961 . S
H589 C575 0.958 . S
H590 C575 0.961 . S
H591 C575 0.960 . S
C592 C593 1.391 . S
C592 C594 1.394 1_565 S
C592 H608 0.931 1_565 S
C593 C592 1.391 . S
C593 C597 1.376 . S
C594 C592 1.394 1_545 S
C594 C595 1.369 1_545 S
C594 C598 1.531 . S
C595 C594 1.369 1_565 S
C595 C596 1.410 . S
C595 C603 1.503 1_565 S
C596 C595 1.410 . S
C596 C597 1.392 . S
C596 C599 1.511 . S
C597 C593 1.376 . S
C597 C596 1.392 . S
C597 H609 0.929 . S
C598 C594 1.531 . S
C598 H610 0.960 . S
C598 H611 0.962 . S
C598 H612 0.960 . S
C599 C596 1.511 . S
C599 H613 0.961 . S
C599 H614 0.961 . S
C599 H615 0.961 . S
C600 C601 1.370 . S
C600 C602 1.363 . S
C600 H616 0.931 . S
C601 C600 1.370 . S
C601 C605 1.408 . S
C602 C600 1.363 . S
C602 C603 1.370 . S
C602 C606 1.524 . S
C603 C595 1.503 1_545 S
C603 C602 1.370 . S
C603 C604 1.403 . S
C604 C603 1.403 . S
C604 C605 1.404 . S
C604 C607 1.539 1_545 S
C605 C601 1.408 . S
C605 C604 1.404 . S
C605 H617 0.930 . S
C606 C602 1.524 . S
C606 H618 0.956 . S
C606 H619 0.961 1_545 S
C606 H620 0.961 . S
C607 C604 1.539 1_565 S
C607 H621 0.958 1_565 S
C607 H622 0.961 . S
C607 H623 0.960 . S
H608 C592 0.931 1_545 S
H609 C597 0.929 . S
H610 C598 0.960 . S
H611 C598 0.962 . S
H612 C598 0.960 . S
H613 C599 0.961 . S
H614 C599 0.961 . S
H615 C599 0.961 . S
H616 C600 0.931 . S
H617 C605 0.930 . S
H618 C606 0.956 . S
H619 C606 0.961 1_565 S
H620 C606 0.961 . S
H621 C607 0.958 1_545 S
H622 C607 0.961 . S
H623 C607 0.960 . S
C624 C625 1.391 . S
C624 C626 1.394 . S
C624 H640 0.931 . S
C625 C624 1.391 . S
C625 C629 1.376 . S
C626 C624 1.394 . S
C626 C627 1.369 . S
C626 C630 1.531 . S
C627 C626 1.369 . S
C627 C628 1.410 . S
C627 C635 1.503 . S
C628 C627 1.410 . S
C628 C629 1.392 . S
C628 C631 1.511 . S
C629 C625 1.376 . S
C629 C628 1.392 . S
C629 H641 0.929 . S
C630 C626 1.531 . S
C630 H642 0.960 . S
C630 H643 0.962 . S
C630 H644 0.960 . S
C631 C628 1.511 . S
C631 H645 0.961 . S
C631 H646 0.961 . S
C631 H647 0.961 . S
C632 C633 1.370 . S
C632 C634 1.363 . S
C632 H648 0.931 . S
C633 C632 1.370 . S
C633 C637 1.408 . S
C634 C632 1.363 . S
C634 C635 1.370 . S
C634 C638 1.524 . S
C635 C627 1.503 . S
C635 C634 1.370 . S
C635 C636 1.403 . S
C636 C635 1.403 . S
C636 C637 1.404 . S
C636 C639 1.539 . S
C637 C633 1.408 . S
C637 C636 1.404 . S
C637 H649 0.930 . S
C638 C634 1.524 . S
C638 H650 0.956 . S
C638 H651 0.961 . S
C638 H652 0.961 . S
C639 C636 1.539 . S
C639 H653 0.958 . S
C639 H654 0.961 . S
C639 H655 0.960 . S
H640 C624 0.931 . S
H641 C629 0.929 . S
H642 C630 0.960 . S
H643 C630 0.962 . S
H644 C630 0.960 . S
H645 C631 0.961 . S
H646 C631 0.961 . S
H647 C631 0.961 . S
H648 C632 0.931 . S
H649 C637 0.930 . S
H650 C638 0.956 . S
H651 C638 0.961 . S
H652 C638 0.961 . S
H653 C639 0.958 . S
H654 C639 0.961 . S
H655 C639 0.960 . S
C656 C657 1.391 1_455 S
C656 C658 1.394 . S
C656 H672 0.931 . S
C657 C656 1.391 1_655 S
C657 C661 1.376 . S
C658 C656 1.394 . S
C658 C659 1.369 . S
C658 C662 1.531 . S
C659 C658 1.369 . S
C659 C660 1.410 1_455 S
C659 C667 1.503 . S
C660 C659 1.410 1_655 S
C660 C661 1.392 . S
C660 C663 1.511 . S
C661 C657 1.376 . S
C661 C660 1.392 . S
C661 H673 0.929 . S
C662 C658 1.531 . S
C662 H674 0.960 . S
C662 H675 0.962 . S
C662 H676 0.960 . S
C663 C660 1.511 . S
C663 H677 0.961 . S
C663 H678 0.961 . S
C663 H679 0.961 . S
C664 C665 1.370 . S
C664 C666 1.363 . S
C664 H680 0.931 . S
C665 C664 1.370 . S
C665 C669 1.408 . S
C666 C664 1.363 . S
C666 C667 1.370 . S
C666 C670 1.524 . S
C667 C659 1.503 . S
C667 C666 1.370 . S
C667 C668 1.403 . S
C668 C667 1.403 . S
C668 C669 1.404 . S
C668 C671 1.539 1_455 S
C669 C665 1.408 . S
C669 C668 1.404 . S
C669 H681 0.930 . S
C670 C666 1.524 . S
C670 H682 0.956 . S
C670 H683 0.961 . S
C670 H684 0.961 . S
C671 C668 1.539 1_655 S
C671 H685 0.958 1_655 S
C671 H686 0.961 . S
C671 H687 0.960 . S
H672 C656 0.931 . S
H673 C661 0.929 . S
H674 C662 0.960 . S
H675 C662 0.962 . S
H676 C662 0.960 . S
H677 C663 0.961 . S
H678 C663 0.961 . S
H679 C663 0.961 . S
H680 C664 0.931 . S
H681 C669 0.930 . S
H682 C670 0.956 . S
H683 C670 0.961 . S
H684 C670 0.961 . S
H685 C671 0.958 1_455 S
H686 C671 0.961 . S
H687 C671 0.960 . S
C688 C689 1.391 1_545 S
C688 C690 1.394 . S
C688 H704 0.931 . S
C689 C688 1.391 1_565 S
C689 C693 1.380 1_565 S
C690 C688 1.394 . S
C690 C691 1.369 . S
C690 C694 1.531 . S
C691 C690 1.369 . S
C691 C692 1.410 . S
C691 C699 1.503 . S
C692 C691 1.410 . S
C692 C693 1.402 . S
C692 C695 1.511 . S
C693 C689 1.380 1_545 S
C693 C692 1.402 . S
C693 H705 0.914 1_545 S
C694 C690 1.531 . S
C694 H706 0.960 . S
C694 H707 0.962 . S
C694 H708 0.960 . S
C695 C692 1.511 . S
C695 H709 0.961 . S
C695 H710 0.961 . S
C695 H711 0.961 . S
C696 C697 1.370 . S
C696 C698 1.363 . S
C696 H712 0.931 . S
C697 C696 1.370 . S
C697 C701 1.408 . S
C698 C696 1.363 . S
C698 C699 1.370 . S
C698 C702 1.524 1_545 S
C699 C691 1.503 . S
C699 C698 1.370 . S
C699 C700 1.403 . S
C700 C699 1.403 . S
C700 C701 1.404 . S
C700 C703 1.539 . S
C701 C697 1.408 . S
C701 C700 1.404 . S
C701 H713 0.930 . S
C702 C698 1.524 1_565 S
C702 H714 0.956 . S
C702 H715 0.961 . S
C702 H716 0.961 . S
C703 C700 1.539 . S
C703 H717 0.958 . S
C703 H718 0.961 . S
C703 H719 0.960 . S
H704 C688 0.931 . S
H705 C693 0.914 1_565 S
H706 C694 0.960 . S
H707 C694 0.962 . S
H708 C694 0.960 . S
H709 C695 0.961 . S
H710 C695 0.961 . S
H711 C695 0.961 . S
H712 C696 0.931 . S
H713 C701 0.930 . S
H714 C702 0.956 . S
H715 C702 0.961 . S
H716 C702 0.961 . S
H717 C703 0.958 . S
H718 C703 0.961 . S
H719 C703 0.960 . S
C720 C721 1.391 . S
C720 C722 1.394 . S
C720 H736 0.931 . S
C721 C720 1.391 . S
C721 C725 1.376 . S
C722 C720 1.394 . S
C722 C723 1.369 . S
C722 C726 1.531 . S
C723 C722 1.369 . S
C723 C724 1.410 . S
C723 C731 1.503 . S
C724 C723 1.410 . S
C724 C725 1.392 . S
C724 C727 1.511 . S
C725 C721 1.376 . S
C725 C724 1.392 . S
C725 H737 0.929 . S
C726 C722 1.531 . S
C726 H738 0.960 . S
C726 H739 0.962 . S
C726 H740 0.960 . S
C727 C724 1.511 . S
C727 H741 0.961 . S
C727 H742 0.961 . S
C727 H743 0.961 . S
C728 C729 1.370 . S
C728 C730 1.363 . S
C728 H744 0.931 . S
C729 C728 1.370 . S
C729 C733 1.408 . S
C730 C728 1.363 . S
C730 C731 1.370 . S
C730 C734 1.524 . S
C731 C723 1.503 . S
C731 C730 1.370 . S
C731 C732 1.403 . S
C732 C731 1.403 . S
C732 C733 1.404 . S
C732 C735 1.539 . S
C733 C729 1.408 . S
C733 C732 1.404 . S
C733 H745 0.930 . S
C734 C730 1.524 . S
C734 H746 0.956 . S
C734 H747 0.961 . S
C734 H748 0.961 . S
C735 C732 1.539 . S
C735 H749 0.958 . S
C735 H750 0.961 . S
C735 H751 0.960 . S
H736 C720 0.931 . S
H737 C725 0.929 . S
H738 C726 0.960 . S
H739 C726 0.962 . S
H740 C726 0.960 . S
H741 C727 0.961 . S
H742 C727 0.961 . S
H743 C727 0.961 . S
H744 C728 0.931 . S
H745 C733 0.930 . S
H746 C734 0.956 . S
H747 C734 0.961 . S
H748 C734 0.961 . S
H749 C735 0.958 . S
H750 C735 0.961 . S
H751 C735 0.960 . S
C752 C753 1.391 . S
C752 C754 1.394 1_455 S
C752 H768 0.931 . S
C753 C752 1.391 . S
C753 C757 1.376 1_455 S
C754 C752 1.394 1_655 S
C754 C755 1.369 . S
C754 C758 1.531 . S
C755 C754 1.369 . S
C755 C756 1.410 . S
C755 C763 1.503 . S
C756 C755 1.410 . S
C756 C757 1.392 . S
C756 C759 1.511 . S
C757 C753 1.376 1_655 S
C757 C756 1.392 . S
C757 H769 0.929 . S
C758 C754 1.531 . S
C758 H770 0.960 . S
C758 H771 0.962 1_655 S
C758 H772 0.960 . S
C759 C756 1.511 . S
C759 H773 0.961 . S
C759 H774 0.961 . S
C759 H775 0.961 . S
C760 C761 1.370 . S
C760 C762 1.363 . S
C760 H776 0.931 . S
C761 C760 1.370 . S
C761 C765 1.408 . S
C762 C760 1.363 . S
C762 C763 1.370 . S
C762 C766 1.524 1_655 S
C763 C755 1.503 . S
C763 C762 1.370 . S
C763 C764 1.403 . S
C764 C763 1.403 . S
C764 C765 1.404 . S
C764 C767 1.539 . S
C765 C761 1.408 . S
C765 C764 1.404 . S
C765 H777 0.930 . S
C766 C762 1.524 1_455 S
C766 H778 0.956 . S
C766 H779 0.961 . S
C766 H780 0.961 . S
C767 C764 1.539 . S
C767 H781 0.958 . S
C767 H782 0.961 . S
C767 H783 0.960 . S
H768 C752 0.931 . S
H769 C757 0.929 . S
H770 C758 0.960 . S
H771 C758 0.962 1_455 S
H772 C758 0.960 . S
H773 C759 0.961 . S
H774 C759 0.961 . S
H775 C759 0.961 . S
H776 C760 0.931 . S
H777 C765 0.930 . S
H778 C766 0.956 . S
H779 C766 0.961 . S
H780 C766 0.961 . S
H781 C767 0.958 . S
H782 C767 0.961 . S
H783 C767 0.960 . S
C784 C785 1.391 1_565 S
C784 C786 1.394 . S
C784 H800 0.931 . S
C785 C784 1.391 1_545 S
C785 C789 1.376 . S
C786 C784 1.394 . S
C786 C787 1.369 . S
C786 C790 1.531 . S
C787 C786 1.369 . S
C787 C788 1.410 . S
C787 C795 1.503 . S
C788 C787 1.410 . S
C788 C789 1.392 1_565 S
C788 C791 1.511 1_565 S
C789 C785 1.376 . S
C789 C788 1.392 1_545 S
C789 H801 0.929 . S
C790 C786 1.531 . S
C790 H802 0.960 . S
C790 H803 0.962 . S
C790 H804 0.960 . S
C791 C788 1.511 1_545 S
C791 H805 0.961 . S
C791 H806 0.961 1_545 S
C791 H807 0.961 . S
C792 C793 1.370 . S
C792 C794 1.363 . S
C792 H808 0.931 . S
C793 C792 1.370 . S
C793 C797 1.408 . S
C794 C792 1.363 . S
C794 C795 1.370 . S
C794 C798 1.524 . S
C795 C787 1.503 . S
C795 C794 1.370 . S
C795 C796 1.403 . S
C796 C795 1.403 . S
C796 C797 1.404 . S
C796 C799 1.539 1_565 S
C797 C793 1.408 . S
C797 C796 1.404 . S
C797 H809 0.930 . S
C798 C794 1.524 . S
C798 H810 0.956 . S
C798 H811 0.961 . S
C798 H812 0.961 . S
C799 C796 1.539 1_545 S
C799 H813 0.958 . S
C799 H814 0.961 . S
C799 H815 0.960 . S
H800 C784 0.931 . S
H801 C789 0.929 . S
H802 C790 0.960 . S
H803 C790 0.962 . S
H804 C790 0.960 . S
H805 C791 0.961 . S
H806 C791 0.961 1_565 S
H807 C791 0.961 . S
H808 C792 0.931 . S
H809 C797 0.930 . S
H810 C798 0.956 . S
H811 C798 0.961 . S
H812 C798 0.961 . S
H813 C799 0.958 . S
H814 C799 0.961 . S
H815 C799 0.960 . S
C241 C171 1.195 . S
C249 C7 1.190 . S
C273 C211 1.191 . S
C281 C47 1.192 . S
C305 C11 1.188 . S
C313 C87 1.192 . S
C337 C51 1.194 . S
C345 C127 1.191 . S
C369 C91 1.177 . S
C377 C167 1.189 . S
C401 C131 1.179 . S
C409 C207 1.189 . S
C433 C10 0.935 . S
C441 C130 0.907 . S
C465 C170 0.841 . S
C473 C50 0.955 . S
C497 C210 0.933 . S
C505 C90 0.907 . S
C529 C99 1.021 . S
C537 C219 1.026 . S
C561 C19 1.023 . S
C569 C139 1.014 . S
C593 C179 1.022 . S
C601 C59 1.026 . S
C625 C202 1.318 . S
C633 C16 1.281 . S
C657 C56 1.304 . S
C665 C2 1.315 . S
C689 C96 1.291 . S
C697 C42 1.310 . S
C721 C82 1.305 . S
C729 C136 1.287 . S
C753 C176 1.274 . S
C761 C122 1.312 . S
C785 C216 1.293 . S
C793 C162 1.316 . S
