# Generated by pormake.
# Topology ukb, (4)-cn, num edge types: 1
# Building blocks:
#     Node 0, Type 0, BuildingBlock: CEKHIL_clean_sbu_0, # of connection points: 4
#     Node 1, Type 0, BuildingBlock: CEKHIL_clean_sbu_0, # of connection points: 4
#     Node 2, Type 0, BuildingBlock: CEKHIL_clean_sbu_0, # of connection points: 4
#     Node 3, Type 0, BuildingBlock: CEKHIL_clean_sbu_0, # of connection points: 4
#     Node 4, Type 0, BuildingBlock: CEKHIL_clean_sbu_0, # of connection points: 4
#     Node 5, Type 0, BuildingBlock: CEKHIL_clean_sbu_0, # of connection points: 4
#     Node 6, Type 0, BuildingBlock: CEKHIL_clean_sbu_0, # of connection points: 4
#     Node 7, Type 0, BuildingBlock: CEKHIL_clean_sbu_0, # of connection points: 4
#     Node 8, Type 0, BuildingBlock: CEKHIL_clean_sbu_0, # of connection points: 4
#     Node 9, Type 0, BuildingBlock: CEKHIL_clean_sbu_0, # of connection points: 4
#     Node 10, Type 0, BuildingBlock: CEKHIL_clean_sbu_0, # of connection points: 4
#     Node 11, Type 0, BuildingBlock: CEKHIL_clean_sbu_0, # of connection points: 4
#     Node 12, Type 0, BuildingBlock: CEKHIL_clean_sbu_0, # of connection points: 4
#     Node 13, Type 0, BuildingBlock: CEKHIL_clean_sbu_0, # of connection points: 4
#     Node 14, Type 0, BuildingBlock: CEKHIL_clean_sbu_0, # of connection points: 4
#     Node 15, Type 0, BuildingBlock: CEKHIL_clean_sbu_0, # of connection points: 4
#     Edge 16, Type (0, 0), BuildingBlock: ZUJKAS_clean_linker_0, # of connection points: 2
#     Edge 17, Type (0, 0), BuildingBlock: ZUJKAS_clean_linker_0, # of connection points: 2
#     Edge 18, Type (0, 0), BuildingBlock: ZUJKAS_clean_linker_0, # of connection points: 2
#     Edge 19, Type (0, 0), BuildingBlock: ZUJKAS_clean_linker_0, # of connection points: 2
#     Edge 20, Type (0, 0), BuildingBlock: ZUJKAS_clean_linker_0, # of connection points: 2
#     Edge 21, Type (0, 0), BuildingBlock: ZUJKAS_clean_linker_0, # of connection points: 2
#     Edge 22, Type (0, 0), BuildingBlock: ZUJKAS_clean_linker_0, # of connection points: 2
#     Edge 23, Type (0, 0), BuildingBlock: ZUJKAS_clean_linker_0, # of connection points: 2
#     Edge 24, Type (0, 0), BuildingBlock: ZUJKAS_clean_linker_0, # of connection points: 2
#     Edge 25, Type (0, 0), BuildingBlock: ZUJKAS_clean_linker_0, # of connection points: 2
#     Edge 26, Type (0, 0), BuildingBlock: ZUJKAS_clean_linker_0, # of connection points: 2
#     Edge 27, Type (0, 0), BuildingBlock: ZUJKAS_clean_linker_0, # of connection points: 2
#     Edge 28, Type (0, 0), BuildingBlock: ZUJKAS_clean_linker_0, # of connection points: 2
#     Edge 29, Type (0, 0), BuildingBlock: ZUJKAS_clean_linker_0, # of connection points: 2
#     Edge 30, Type (0, 0), BuildingBlock: ZUJKAS_clean_linker_0, # of connection points: 2
#     Edge 31, Type (0, 0), BuildingBlock: ZUJKAS_clean_linker_0, # of connection points: 2
#     Edge 32, Type (0, 0), BuildingBlock: ZUJKAS_clean_linker_0, # of connection points: 2
#     Edge 33, Type (0, 0), BuildingBlock: ZUJKAS_clean_linker_0, # of connection points: 2
#     Edge 34, Type (0, 0), BuildingBlock: ZUJKAS_clean_linker_0, # of connection points: 2
#     Edge 35, Type (0, 0), BuildingBlock: ZUJKAS_clean_linker_0, # of connection points: 2
#     Edge 36, Type (0, 0), BuildingBlock: ZUJKAS_clean_linker_0, # of connection points: 2
#     Edge 37, Type (0, 0), BuildingBlock: ZUJKAS_clean_linker_0, # of connection points: 2
#     Edge 38, Type (0, 0), BuildingBlock: ZUJKAS_clean_linker_0, # of connection points: 2
#     Edge 39, Type (0, 0), BuildingBlock: ZUJKAS_clean_linker_0, # of connection points: 2
#     Edge 40, Type (0, 0), BuildingBlock: ZUJKAS_clean_linker_0, # of connection points: 2
#     Edge 41, Type (0, 0), BuildingBlock: ZUJKAS_clean_linker_0, # of connection points: 2
#     Edge 42, Type (0, 0), BuildingBlock: ZUJKAS_clean_linker_0, # of connection points: 2
#     Edge 43, Type (0, 0), BuildingBlock: ZUJKAS_clean_linker_0, # of connection points: 2
#     Edge 44, Type (0, 0), BuildingBlock: ZUJKAS_clean_linker_0, # of connection points: 2
#     Edge 45, Type (0, 0), BuildingBlock: ZUJKAS_clean_linker_0, # of connection points: 2
#     Edge 46, Type (0, 0), BuildingBlock: ZUJKAS_clean_linker_0, # of connection points: 2
#     Edge 47, Type (0, 0), BuildingBlock: ZUJKAS_clean_linker_0, # of connection points: 2
# Relax obj value: 0.092
# Max RMSD: 0.049
# Mean RMSD: 0.049
data_MOF--net-ukb--node1-CEKHIL_clean_sbu_0--edge1-ZUJKAS_clean_linker_0
_symmetry_space_group_name_H-M    P1
_symmetry_Int_Tables_number       1
_symmetry_cell_setting            triclinic
loop_
_symmetry_equiv_pos_as_xyz
'x, y, z'
_cell_length_a     56.463215
_cell_length_b     56.460866
_cell_length_c     48.762412
_cell_angle_alpha  90.0015
_cell_angle_beta   89.999814
_cell_angle_gamma 90.002708
loop_
_atom_site_label
_atom_site_type_symbol
_atom_site_fract_x
_atom_site_fract_y
_atom_site_fract_z
_atom_type_partial_charge
Co0 Co 0.52939 0.18724 0.17051 0.0
O1 O 0.51297 0.1577 0.16726 0.0
O2 O 0.51285 0.18041 0.20434 0.0
C3 C 0.51741 0.20151 0.12978 0.0
O4 O 0.54353 0.21924 0.18081 0.0
Co5 Co 0.56905 0.20054 0.1293 0.0
O6 O 0.56578 0.23252 0.14579 0.0
C7 C 0.57833 0.16496 0.17236 0.0
C8 C 0.50551 0.16128 0.19207 0.0
C9 C 0.55571 0.23558 0.16893 0.0
O10 O 0.55853 0.17018 0.18396 0.0
O11 O 0.58477 0.17361 0.14925 0.0
O12 O 0.50378 0.20333 0.15114 0.0
O13 O 0.53675 0.1897 0.1333 0.0
Co14 Co 0.31323 0.53077 0.67135 0.0
O15 O 0.3416 0.51274 0.66618 0.0
O16 O 0.3205 0.51346 0.70452 0.0
C17 C 0.29662 0.52031 0.63127 0.0
O18 O 0.28249 0.54641 0.68357 0.0
Co19 Co 0.30056 0.57179 0.6316 0.0
O20 O 0.26921 0.57023 0.64998 0.0
C21 C 0.33805 0.57851 0.67303 0.0
C22 C 0.33857 0.50513 0.69102 0.0
C23 C 0.26646 0.5598 0.67296 0.0
O24 O 0.3323 0.55878 0.68444 0.0
O25 O 0.32897 0.58576 0.65046 0.0
O26 O 0.29499 0.50637 0.65239 0.0
O27 O 0.30965 0.53888 0.63451 0.0
Co28 Co 0.96974 0.31298 0.17416 0.0
O29 O 0.98648 0.34245 0.1728 0.0
O30 O 0.98616 0.31802 0.20845 0.0
C31 C 0.98191 0.30017 0.13287 0.0
O32 O 0.95516 0.2808 0.18256 0.0
Co33 Co 0.93038 0.30161 0.13176 0.0
O34 O 0.93277 0.26906 0.14693 0.0
C35 C 0.92121 0.33587 0.17632 0.0
C36 C 0.99379 0.33755 0.19737 0.0
C37 C 0.94271 0.26509 0.16996 0.0
O38 O 0.94068 0.32983 0.18813 0.0
O39 O 0.91502 0.32821 0.15264 0.0
O40 O 0.99533 0.29737 0.15426 0.0
O41 O 0.96269 0.31208 0.13676 0.0
Co42 Co 0.18573 0.97038 0.672 0.0
O43 O 0.15641 0.98717 0.66844 0.0
O44 O 0.17893 0.98708 0.70569 0.0
C45 C 0.20047 0.9819 0.63135 0.0
O46 O 0.21745 0.95594 0.68272 0.0
Co47 Co 0.19897 0.93029 0.63137 0.0
O48 O 0.23078 0.93287 0.64848 0.0
C49 C 0.16283 0.92176 0.67398 0.0
C50 C 0.15995 0.99458 0.69328 0.0
C51 C 0.23371 0.94325 0.67145 0.0
O52 O 0.16823 0.94155 0.68549 0.0
O53 O 0.17161 0.91506 0.65103 0.0
O54 O 0.20228 0.99567 0.65259 0.0
O55 O 0.18839 0.96273 0.6349 0.0
Co56 Co 0.52931 0.31526 0.82599 0.0
O57 O 0.51164 0.34411 0.82907 0.0
O58 O 0.51307 0.32156 0.79188 0.0
C59 C 0.5174 0.30032 0.86642 0.0
O60 O 0.54472 0.2839 0.8157 0.0
Co61 Co 0.56895 0.30301 0.86758 0.0
O62 O 0.56738 0.2711 0.85056 0.0
C63 C 0.57761 0.33899 0.82478 0.0
C64 C 0.50472 0.34029 0.80409 0.0
C65 C 0.55753 0.26792 0.82732 0.0
O66 O 0.55795 0.33342 0.8131 0.0
O67 O 0.5842 0.33033 0.84784 0.0
O68 O 0.5041 0.29811 0.84482 0.0
O69 O 0.53634 0.31285 0.86331 0.0
Co70 Co 0.18552 0.52913 0.3234 0.0
O71 O 0.15602 0.51249 0.32558 0.0
O72 O 0.18052 0.5114 0.29001 0.0
C73 C 0.19825 0.51858 0.3653 0.0
O74 O 0.21777 0.54333 0.3143 0.0
Co75 Co 0.19693 0.57015 0.36358 0.0
O76 O 0.22959 0.5666 0.34911 0.0
C77 C 0.16299 0.57778 0.31826 0.0
C78 C 0.16095 0.50424 0.30142 0.0
C79 C 0.23358 0.55593 0.32654 0.0
O80 O 0.16869 0.55761 0.30788 0.0
O81 O 0.17088 0.5851 0.3414 0.0
O82 O 0.20104 0.50433 0.34465 0.0
O83 O 0.1864 0.53768 0.3604 0.0
Co84 Co 0.97045 0.18641 0.82796 0.0
O85 O 0.9873 0.1572 0.83198 0.0
O86 O 0.98766 0.17954 0.79459 0.0
C87 C 0.98145 0.20131 0.86873 0.0
O88 O 0.95594 0.21806 0.81697 0.0
Co89 Co 0.92977 0.19925 0.86792 0.0
O90 O 0.93338 0.23131 0.85172 0.0
C91 C 0.92157 0.16384 0.8244 0.0
C92 C 0.99508 0.16066 0.80729 0.0
C93 C 0.94361 0.23436 0.82869 0.0
O94 O 0.9419 0.16879 0.81395 0.0
O95 O 0.91421 0.17275 0.84702 0.0
O96 O 0.99542 0.20311 0.84767 0.0
O97 O 0.96238 0.18909 0.86499 0.0
Co98 Co 0.31492 0.97046 0.32675 0.0
O99 O 0.34374 0.98798 0.33029 0.0
O100 O 0.32118 0.98762 0.29311 0.0
C101 C 0.30005 0.98145 0.36757 0.0
O102 O 0.28346 0.95512 0.31645 0.0
Co103 Co 0.30427 0.92974 0.36772 0.0
O104 O 0.27286 0.9294 0.34953 0.0
C105 C 0.3397 0.92268 0.3242 0.0
C106 C 0.33997 0.99556 0.3056 0.0
C107 C 0.26865 0.94047 0.32726 0.0
O108 O 0.33311 0.94215 0.3128 0.0
O109 O 0.33198 0.91579 0.34757 0.0
O110 O 0.29778 0.9952 0.34638 0.0
O111 O 0.3128 0.96274 0.3639 0.0
Co112 Co 0.46987 0.8141 0.82489 0.0
O113 O 0.4865 0.84343 0.82936 0.0
O114 O 0.48723 0.82137 0.79176 0.0
C115 C 0.48061 0.7989 0.86562 0.0
O116 O 0.45573 0.78245 0.81334 0.0
Co117 Co 0.42906 0.80035 0.86441 0.0
O118 O 0.43211 0.76874 0.84688 0.0
C119 C 0.42125 0.83691 0.82209 0.0
C120 C 0.49444 0.84022 0.80468 0.0
C121 C 0.4429 0.76605 0.82412 0.0
O122 O 0.44121 0.83165 0.81091 0.0
O123 O 0.41422 0.82795 0.84482 0.0
O124 O 0.49482 0.79738 0.84474 0.0
O125 O 0.46151 0.81099 0.86172 0.0
Co126 Co 0.68524 0.47001 0.32605 0.0
O127 O 0.65649 0.48757 0.33042 0.0
O128 O 0.67883 0.48786 0.29303 0.0
C129 C 0.70039 0.48004 0.36703 0.0
O130 O 0.71653 0.45496 0.31474 0.0
Co131 Co 0.69722 0.42844 0.36509 0.0
O132 O 0.72923 0.43105 0.34851 0.0
C133 C 0.66153 0.42172 0.32152 0.0
C134 C 0.66019 0.49566 0.3059 0.0
C135 C 0.73249 0.44179 0.32583 0.0
O136 O 0.66692 0.44209 0.31145 0.0
O137 O 0.67029 0.41387 0.34399 0.0
O138 O 0.70254 0.49425 0.34624 0.0
O139 O 0.68772 0.46132 0.36292 0.0
Co140 Co 0.02964 0.68718 0.82677 0.0
O141 O 0.01308 0.6578 0.83105 0.0
O142 O 0.01265 0.67983 0.79342 0.0
C143 C 0.0184 0.70236 0.86733 0.0
O144 O 0.04377 0.71887 0.81535 0.0
Co145 Co 0.07001 0.70114 0.86679 0.0
O146 O 0.06731 0.73263 0.84894 0.0
C147 C 0.07842 0.66463 0.82456 0.0
C148 C 0.00537 0.66098 0.80627 0.0
C149 C 0.05665 0.73526 0.8261 0.0
O150 O 0.0585 0.66974 0.8132 0.0
O151 O 0.08523 0.67368 0.84734 0.0
O152 O 0.00439 0.70377 0.84626 0.0
O153 O 0.03761 0.69037 0.86371 0.0
Co154 Co 0.81258 0.02935 0.32438 0.0
O155 O 0.84183 0.01272 0.32929 0.0
O156 O 0.81977 0.01126 0.29173 0.0
C157 C 0.79745 0.01948 0.36544 0.0
O158 O 0.78097 0.04344 0.31252 0.0
Co159 Co 0.79929 0.07111 0.36265 0.0
O160 O 0.76753 0.06762 0.34567 0.0
C161 C 0.83511 0.07812 0.31931 0.0
C162 C 0.83861 0.00429 0.30484 0.0
C163 C 0.76468 0.05651 0.32315 0.0
O164 O 0.8302 0.05756 0.30945 0.0
O165 O 0.82608 0.086 0.34162 0.0
O166 O 0.79585 0.00488 0.34493 0.0
O167 O 0.80961 0.03848 0.36103 0.0
Co168 Co 0.46901 0.68598 0.17222 0.0
O169 O 0.48605 0.65679 0.16878 0.0
O170 O 0.48673 0.68006 0.2054 0.0
C171 C 0.47925 0.7001 0.13083 0.0
O172 O 0.45452 0.71773 0.18273 0.0
Co173 Co 0.42758 0.69799 0.13308 0.0
O174 O 0.43022 0.73017 0.14922 0.0
C175 C 0.42051 0.66292 0.17722 0.0
C176 C 0.49412 0.66092 0.19322 0.0
C177 C 0.44127 0.73364 0.17165 0.0
O178 O 0.44083 0.66841 0.18732 0.0
O179 O 0.41281 0.67135 0.15452 0.0
O180 O 0.49351 0.70242 0.15155 0.0
O181 O 0.46029 0.68786 0.13528 0.0
Co182 Co 0.81434 0.46971 0.6732 0.0
O183 O 0.84349 0.48672 0.66909 0.0
O184 O 0.82097 0.48728 0.70633 0.0
C185 C 0.79946 0.48005 0.6322 0.0
O186 O 0.78277 0.45521 0.68441 0.0
Co187 Co 0.80167 0.42842 0.63403 0.0
O188 O 0.76986 0.43088 0.65114 0.0
C189 C 0.83757 0.42125 0.6772 0.0
C190 C 0.8399 0.49466 0.69371 0.0
C191 C 0.76673 0.44189 0.67368 0.0
O192 O 0.83213 0.44144 0.68769 0.0
O193 O 0.82886 0.41372 0.65457 0.0
O194 O 0.79754 0.49431 0.65299 0.0
O195 O 0.81177 0.46111 0.63634 0.0
Co196 Co 0.03184 0.81506 0.17268 0.0
O197 O 0.01566 0.84477 0.16946 0.0
O198 O 0.0153 0.82195 0.20645 0.0
C199 C 0.01989 0.80091 0.13192 0.0
O200 O 0.04555 0.78283 0.18305 0.0
Co201 Co 0.07146 0.80082 0.13192 0.0
O202 O 0.06621 0.76871 0.14722 0.0
C203 C 0.08177 0.83528 0.17598 0.0
C204 C 0.00814 0.84116 0.19424 0.0
C205 C 0.05655 0.76597 0.17062 0.0
O206 O 0.06105 0.83192 0.18625 0.0
O207 O 0.08883 0.82552 0.15371 0.0
O208 O 0.00615 0.79924 0.1532 0.0
O209 O 0.03937 0.81249 0.13549 0.0
Co210 Co 0.68669 0.03123 0.67334 0.0
O211 O 0.65724 0.01475 0.66954 0.0
O212 O 0.67978 0.01407 0.70675 0.0
C213 C 0.70124 0.02012 0.6324 0.0
O214 O 0.71858 0.04535 0.68411 0.0
Co215 Co 0.69993 0.07169 0.63301 0.0
O216 O 0.73186 0.06814 0.64955 0.0
C217 C 0.66434 0.08012 0.67632 0.0
C218 C 0.66074 0.00688 0.69419 0.0
C219 C 0.7349 0.05776 0.6725 0.0
O220 O 0.6695 0.06008 0.68741 0.0
O221 O 0.67303 0.087 0.65339 0.0
O222 O 0.70299 0.00605 0.65338 0.0
O223 O 0.68929 0.0393 0.63638 0.0
H224 H 0.48275 0.16558 0.24155 0.0
H225 H 0.45385 0.13794 0.26146 0.0
H226 H 0.46135 0.0922 0.19118 0.0
H227 H 0.49013 0.11941 0.1713 0.0
H228 H 0.40967 0.12105 0.23627 0.0
H229 H 0.47384 0.04903 0.25881 0.0
H230 H 0.48289 0.07927 0.25278 0.0
H231 H 0.47513 0.06046 0.22444 0.0
C232 C 0.47833 0.14954 0.23048 0.0
C233 C 0.48879 0.14458 0.20496 0.0
C234 C 0.46179 0.13387 0.24179 0.0
C235 C 0.4557 0.113 0.22783 0.0
C236 C 0.46608 0.10808 0.20238 0.0
H237 H 0.33767 0.0156 0.25426 0.0
H238 H 0.36502 0.04494 0.23468 0.0
C239 C 0.48249 0.12369 0.19106 0.0
C240 C 0.43845 0.09621 0.23962 0.0
H241 H 0.4331 0.03951 0.26282 0.0
C242 C 0.41473 0.10325 0.24224 0.0
C243 C 0.44525 0.0731 0.24742 0.0
C244 C 0.47069 0.06499 0.24598 0.0
C245 C 0.39747 0.08754 0.25219 0.0
C246 C 0.40419 0.06422 0.25935 0.0
C247 C 0.42799 0.05734 0.25701 0.0
C248 C 0.38719 0.04696 0.27083 0.0
C249 C 0.37231 0.0961 0.25542 0.0
C250 C 0.39093 0.03813 0.29731 0.0
C251 C 0.3756 0.02135 0.30835 0.0
C252 C 0.35619 0.01298 0.29309 0.0
C253 C 0.35245 0.02176 0.26647 0.0
C254 C 0.36793 0.03862 0.25537 0.0
H255 H 0.37113 0.11574 0.25465 0.0
H256 H 0.36135 0.08882 0.23853 0.0
H257 H 0.36467 0.08988 0.27513 0.0
H258 H 0.40574 0.0443 0.30952 0.0
H259 H 0.37897 0.015 0.32894 0.0
H260 H 0.37078 0.47866 0.66342 0.0
H261 H 0.39726 0.44851 0.68175 0.0
H262 H 0.36981 0.46104 0.76306 0.0
H263 H 0.34252 0.49085 0.74459 0.0
H264 H 0.43211 0.45356 0.71773 0.0
H265 H 0.3663 0.38986 0.75884 0.0
H266 H 0.35812 0.41394 0.73641 0.0
H267 H 0.36283 0.41919 0.77241 0.0
C268 C 0.37027 0.47496 0.68521 0.0
C269 C 0.35459 0.48711 0.70261 0.0
C270 C 0.3854 0.45768 0.69563 0.0
C271 C 0.38528 0.45227 0.72368 0.0
C272 C 0.36977 0.4645 0.74122 0.0
H273 H 0.4817 0.37739 0.82749 0.0
H274 H 0.45236 0.40343 0.80645 0.0
C275 C 0.35435 0.48166 0.73071 0.0
C276 C 0.40229 0.43464 0.73453 0.0
H277 H 0.40667 0.38347 0.77155 0.0
C278 C 0.4265 0.43813 0.72927 0.0
C279 C 0.39492 0.41443 0.74945 0.0
C280 C 0.36911 0.40896 0.75439 0.0
C281 C 0.44358 0.42224 0.73905 0.0
C282 C 0.43624 0.40248 0.75452 0.0
C283 C 0.4121 0.39874 0.75961 0.0
C284 C 0.45362 0.38626 0.76689 0.0
C285 C 0.46944 0.4268 0.73333 0.0
C286 C 0.46394 0.36805 0.7514 0.0
C287 C 0.48074 0.35304 0.76336 0.0
C288 C 0.48743 0.3562 0.79088 0.0
C289 C 0.477 0.37455 0.8062 0.0
C290 C 0.46018 0.38939 0.79431 0.0
H291 H 0.4723 0.44345 0.72167 0.0
H292 H 0.47938 0.42782 0.75294 0.0
H293 H 0.47689 0.41182 0.72136 0.0
H294 H 0.459 0.3655 0.73014 0.0
H295 H 0.48845 0.33902 0.75111 0.0
H296 H 0.00077 0.38432 0.18831 0.0
H297 H 0.03228 0.40924 0.20665 0.0
H298 H 0.05861 0.35027 0.254 0.0
H299 H 0.02625 0.32544 0.23654 0.0
H300 H 0.06094 0.38914 0.283 0.0
H301 H 0.09943 0.40827 0.18154 0.0
H302 H 0.06891 0.41688 0.18204 0.0
H303 H 0.07677 0.38614 0.18636 0.0
C304 C 0.01317 0.37672 0.2028 0.0
C305 C 0.01124 0.35296 0.2109 0.0
C306 C 0.03133 0.39089 0.21301 0.0
C307 C 0.04832 0.38139 0.23089 0.0
C308 C 0.04588 0.35787 0.23991 0.0
H309 H 0.17294 0.47059 0.26357 0.0
H310 H 0.14789 0.43807 0.24699 0.0
C311 C 0.02736 0.34376 0.23006 0.0
C312 C 0.06825 0.39633 0.24044 0.0
H313 H 0.10951 0.43588 0.2177 0.0
C314 C 0.0718 0.39909 0.26872 0.0
C315 C 0.08303 0.40872 0.22185 0.0
C316 C 0.08202 0.40461 0.19128 0.0
C317 C 0.08866 0.41506 0.2789 0.0
C318 C 0.1016 0.42932 0.26027 0.0
C319 C 0.09916 0.42542 0.23201 0.0
C320 C 0.11679 0.44912 0.26966 0.0
C321 C 0.09236 0.41643 0.30951 0.0
C322 C 0.10741 0.46655 0.28708 0.0
C323 C 0.12171 0.48481 0.2968 0.0
C324 C 0.14549 0.4864 0.28867 0.0
C325 C 0.15461 0.46975 0.27007 0.0
C326 C 0.14037 0.45115 0.26072 0.0
H327 H 0.08831 0.3992 0.31949 0.0
H328 H 0.11083 0.42148 0.31469 0.0
H329 H 0.08014 0.42983 0.31828 0.0
H330 H 0.08903 0.46593 0.29335 0.0
H331 H 0.11418 0.49761 0.31087 0.0
H332 H 0.16386 0.01644 0.74331 0.0
H333 H 0.1362 0.0451 0.76356 0.0
H334 H 0.09127 0.03941 0.69235 0.0
H335 H 0.11853 0.01084 0.67211 0.0
H336 H 0.12021 0.08975 0.7397 0.0
H337 H 0.04699 0.02609 0.75863 0.0
H338 H 0.07716 0.01676 0.75275 0.0
H339 H 0.05881 0.02551 0.72441 0.0
C340 C 0.14801 0.0212 0.73209 0.0
C341 C 0.14328 0.01131 0.70621 0.0
C342 C 0.13232 0.0376 0.74361 0.0
C343 C 0.11166 0.04411 0.7295 0.0
C344 C 0.10698 0.03432 0.70367 0.0
H345 H 0.01593 0.16295 0.75648 0.0
H346 H 0.04499 0.1352 0.73718 0.0
C347 C 0.12262 0.01804 0.69214 0.0
C348 C 0.0949 0.06127 0.74151 0.0
H349 H 0.03791 0.06688 0.76367 0.0
C350 C 0.10224 0.08481 0.7451 0.0
C351 C 0.07158 0.05461 0.74862 0.0
C352 C 0.06315 0.02933 0.74617 0.0
C353 C 0.08662 0.10203 0.75528 0.0
C354 C 0.06309 0.09548 0.76166 0.0
C355 C 0.05591 0.07186 0.75843 0.0
C356 C 0.04583 0.11254 0.77299 0.0
C357 C 0.0955 0.12697 0.75953 0.0
C358 C 0.03639 0.10864 0.79916 0.0
C359 C 0.01977 0.12423 0.81006 0.0
C360 C 0.01218 0.14403 0.79495 0.0
C361 C 0.02149 0.14786 0.76859 0.0
C362 C 0.03819 0.13216 0.75765 0.0
H363 H 0.11515 0.12784 0.75944 0.0
H364 H 0.08882 0.13841 0.74273 0.0
H365 H 0.08891 0.13429 0.77925 0.0
H366 H 0.04201 0.09354 0.81124 0.0
H367 H 0.01296 0.12077 0.83043 0.0
H368 H 0.51127 0.88067 0.8277 0.0
H369 H 0.54002 0.90834 0.80861 0.0
H370 H 0.54507 0.86584 0.73536 0.0
H371 H 0.51627 0.83773 0.75449 0.0
H372 H 0.58982 0.88079 0.75887 0.0
H373 H 0.52648 0.95511 0.74515 0.0
H374 H 0.52647 0.94221 0.77883 0.0
H375 H 0.51698 0.92486 0.74995 0.0
C376 C 0.51838 0.8772 0.80747 0.0
C377 C 0.51139 0.85709 0.7925 0.0
C378 C 0.53476 0.89308 0.79659 0.0
C379 C 0.5444 0.88924 0.7705 0.0
C380 C 0.5377 0.8691 0.75553 0.0
H381 H 0.61997 0.99028 0.67183 0.0
H382 H 0.59277 0.96112 0.69089 0.0
C383 C 0.52122 0.85314 0.76641 0.0
C384 C 0.56153 0.90635 0.75907 0.0
H385 H 0.56723 0.96407 0.73958 0.0
C386 C 0.58494 0.89898 0.75452 0.0
C387 C 0.55496 0.92999 0.75332 0.0
C388 C 0.52981 0.93854 0.75681 0.0
C389 C 0.6021 0.91483 0.74464 0.0
C390 C 0.59564 0.93863 0.73957 0.0
C391 C 0.57216 0.94587 0.74382 0.0
C392 C 0.61258 0.95609 0.7284 0.0
C393 C 0.62686 0.90592 0.73926 0.0
C394 C 0.63262 0.96312 0.74339 0.0
C395 C 0.64829 0.97989 0.73253 0.0
C396 C 0.64403 0.98987 0.70659 0.0
C397 C 0.62378 0.98294 0.69187 0.0
C398 C 0.6082 0.96625 0.7027 0.0
H399 H 0.6276 0.88627 0.73859 0.0
H400 H 0.63375 0.91302 0.71958 0.0
H401 H 0.63875 0.91206 0.75593 0.0
H402 H 0.63605 0.95575 0.76351 0.0
H403 H 0.66374 0.98493 0.74433 0.0
H404 H 0.5093 0.61864 0.17332 0.0
H405 H 0.5385 0.59195 0.19342 0.0
H406 H 0.54758 0.63969 0.26163 0.0
H407 H 0.5182 0.66673 0.24158 0.0
H408 H 0.59152 0.621 0.23421 0.0
H409 H 0.52642 0.5521 0.26517 0.0
H410 H 0.52378 0.56269 0.23052 0.0
H411 H 0.51808 0.58246 0.2586 0.0
C412 C 0.51742 0.62349 0.19264 0.0
C413 C 0.51137 0.64472 0.20598 0.0
C414 C 0.53408 0.6082 0.20407 0.0
C415 C 0.54498 0.61385 0.22901 0.0
C416 C 0.53923 0.6351 0.24234 0.0
H417 H 0.62316 0.51722 0.33106 0.0
H418 H 0.59659 0.54704 0.31224 0.0
C419 C 0.52241 0.65042 0.23096 0.0
C420 C 0.56225 0.59729 0.2411 0.0
H421 H 0.56698 0.54186 0.26816 0.0
C422 C 0.58624 0.60373 0.2418 0.0
C423 C 0.55514 0.57492 0.25104 0.0
C424 C 0.52944 0.56759 0.25156 0.0
C425 C 0.60346 0.58806 0.25191 0.0
C426 C 0.5964 0.56539 0.26117 0.0
C427 C 0.57234 0.55918 0.26079 0.0
C428 C 0.61343 0.54806 0.27242 0.0
C429 C 0.62896 0.59599 0.25297 0.0
C430 C 0.63169 0.53867 0.25615 0.0
C431 C 0.64704 0.52156 0.26691 0.0
C432 C 0.64415 0.51352 0.29397 0.0
C433 C 0.6258 0.52296 0.31009 0.0
C434 C 0.61061 0.54005 0.29941 0.0
H435 H 0.63059 0.61555 0.25128 0.0
H436 H 0.63753 0.59016 0.27232 0.0
H437 H 0.63877 0.58794 0.23559 0.0
H438 H 0.63384 0.5443 0.23507 0.0
H439 H 0.661 0.51455 0.25402 0.0
H440 H 0.98387 0.66348 0.75589 0.0
H441 H 0.95481 0.63567 0.73677 0.0
H442 H 0.95942 0.59313 0.81003 0.0
H443 H 0.98849 0.62048 0.82908 0.0
H444 H 0.96275 0.56712 0.76156 0.0
H445 H 0.8851 0.62768 0.76107 0.0
H446 H 0.91105 0.63872 0.74395 0.0
H447 H 0.9117 0.63388 0.78034 0.0
C448 C 0.97869 0.64817 0.76786 0.0
C449 C 0.98842 0.64416 0.79398 0.0
C450 C 0.96199 0.63243 0.75702 0.0
C451 C 0.95477 0.61258 0.7722 0.0
C452 C 0.9647 0.60843 0.79809 0.0
H453 H 0.83664 0.51636 0.74388 0.0
H454 H 0.86447 0.54507 0.76372 0.0
C455 C 0.98132 0.62408 0.8089 0.0
C456 C 0.93737 0.59559 0.76101 0.0
H457 H 0.87983 0.58993 0.74057 0.0
C458 C 0.94461 0.57209 0.75697 0.0
C459 C 0.91367 0.60212 0.75548 0.0
C460 C 0.90476 0.62691 0.76062 0.0
C461 C 0.92883 0.55493 0.74716 0.0
C462 C 0.90532 0.56158 0.7409 0.0
C463 C 0.89793 0.58499 0.74531 0.0
C464 C 0.88837 0.54452 0.72903 0.0
C465 C 0.93736 0.52976 0.74383 0.0
C466 C 0.89258 0.53502 0.70296 0.0
C467 C 0.87684 0.5187 0.69167 0.0
C468 C 0.85653 0.51166 0.70622 0.0
C469 C 0.85221 0.52137 0.73228 0.0
C470 C 0.86801 0.53778 0.74357 0.0
H471 H 0.95376 0.52637 0.7558 0.0
H472 H 0.92354 0.51697 0.75041 0.0
H473 H 0.94133 0.52641 0.72188 0.0
H474 H 0.90802 0.54031 0.69128 0.0
H475 H 0.88061 0.51167 0.67146 0.0
H476 H 0.8375 0.98314 0.25415 0.0
H477 H 0.86597 0.95438 0.2357 0.0
H478 H 0.90595 0.95783 0.31096 0.0
H479 H 0.87801 0.98662 0.32931 0.0
H480 H 0.93364 0.96235 0.26445 0.0
H481 H 0.87388 0.88434 0.25759 0.0
H482 H 0.86336 0.91055 0.24058 0.0
H483 H 0.86651 0.91043 0.27724 0.0
C484 C 0.85236 0.97772 0.26672 0.0
C485 C 0.85553 0.98713 0.29315 0.0
C486 C 0.86848 0.96119 0.25625 0.0
C487 C 0.88785 0.95379 0.27215 0.0
C488 C 0.89106 0.96327 0.29844 0.0
H489 H 0.98545 0.83671 0.24369 0.0
H490 H 0.95639 0.8641 0.26365 0.0
C491 C 0.87506 0.97974 0.30885 0.0
C492 C 0.90543 0.93682 0.26126 0.0
H493 H 0.91245 0.87998 0.23885 0.0
C494 C 0.92903 0.94433 0.25887 0.0
C495 C 0.89936 0.91326 0.25442 0.0
C496 C 0.87445 0.90401 0.25777 0.0
C497 C 0.94672 0.92897 0.24944 0.0
C498 C 0.94054 0.90563 0.24186 0.0
C499 C 0.91703 0.89796 0.24462 0.0
C500 C 0.95819 0.88919 0.23017 0.0
C501 C 0.97193 0.93777 0.24791 0.0
C502 C 0.96862 0.89428 0.20479 0.0
C503 C 0.98514 0.87879 0.19343 0.0
C504 C 0.99147 0.85786 0.20721 0.0
C505 C 0.98102 0.85278 0.2327 0.0
C506 C 0.96438 0.86831 0.24405 0.0
H507 H 0.97467 0.95377 0.26078 0.0
H508 H 0.98454 0.92382 0.25459 0.0
H509 H 0.97615 0.94249 0.22637 0.0
H510 H 0.96379 0.91015 0.19362 0.0
H511 H 0.99278 0.88316 0.17369 0.0
H512 H 0.55081 0.24475 0.22379 0.0
H513 H 0.5631 0.28042 0.24832 0.0
H514 H 0.58216 0.31341 0.17164 0.0
H515 H 0.57061 0.27755 0.14704 0.0
H516 H 0.61742 0.31568 0.20691 0.0
H517 H 0.53597 0.34527 0.25983 0.0
H518 H 0.5427 0.31488 0.26709 0.0
H519 H 0.53547 0.32363 0.23257 0.0
C520 C 0.55717 0.25977 0.21208 0.0
C521 C 0.55989 0.25824 0.18347 0.0
C522 C 0.56405 0.28024 0.22615 0.0
C523 C 0.57331 0.29974 0.21182 0.0
C524 C 0.57503 0.29861 0.18313 0.0
H525 H 0.64461 0.42822 0.26931 0.0
H526 H 0.62108 0.40047 0.24202 0.0
C527 C 0.56845 0.27808 0.1691 0.0
C528 C 0.58364 0.32016 0.22684 0.0
H529 H 0.57275 0.36096 0.27709 0.0
C530 C 0.6075 0.3258 0.22192 0.0
C531 C 0.57075 0.33336 0.24651 0.0
C532 C 0.54474 0.32914 0.25162 0.0
C533 C 0.61901 0.34371 0.23671 0.0
C534 C 0.60632 0.35637 0.25691 0.0
C535 C 0.58238 0.35111 0.26158 0.0
C536 C 0.61819 0.37429 0.2742 0.0
C537 C 0.6449 0.3485 0.23131 0.0
C538 C 0.6238 0.36891 0.30148 0.0
C539 C 0.63735 0.38461 0.31711 0.0
C540 C 0.64539 0.40608 0.30576 0.0
C541 C 0.63881 0.41183 0.27871 0.0
C542 C 0.62537 0.39602 0.26305 0.0
H543 H 0.65295 0.33502 0.21758 0.0
H544 H 0.64683 0.36613 0.22151 0.0
H545 H 0.65494 0.34885 0.25089 0.0
H546 H 0.61838 0.35218 0.31038 0.0
H547 H 0.64191 0.37966 0.33791 0.0
H548 H 0.22618 0.58192 0.65508 0.0
H549 H 0.19196 0.59388 0.68245 0.0
H550 H 0.22273 0.5611 0.75386 0.0
H551 H 0.25713 0.54894 0.72672 0.0
H552 H 0.15968 0.56448 0.72071 0.0
H553 H 0.21392 0.63529 0.7697 0.0
H554 H 0.22215 0.62189 0.73745 0.0
H555 H 0.226 0.60579 0.76884 0.0
C556 C 0.22562 0.57699 0.67654 0.0
C557 C 0.24457 0.56469 0.68877 0.0
C558 C 0.20598 0.58376 0.69208 0.0
C559 C 0.20499 0.5785 0.72012 0.0
C560 C 0.2233 0.56537 0.73221 0.0
H561 H 0.1163 0.64097 0.84609 0.0
H562 H 0.14538 0.61695 0.82165 0.0
C563 C 0.24292 0.55844 0.71665 0.0
C564 C 0.18573 0.58844 0.73709 0.0
H565 H 0.17411 0.63252 0.7829 0.0
C566 C 0.16276 0.57926 0.73447 0.0
C567 C 0.18993 0.60768 0.75492 0.0
C568 C 0.21427 0.61844 0.75793 0.0
C569 C 0.14377 0.58884 0.74946 0.0
C570 C 0.14787 0.60849 0.76688 0.0
C571 C 0.17097 0.61743 0.76962 0.0
C572 C 0.12856 0.62064 0.78199 0.0
C573 C 0.11963 0.57762 0.74674 0.0
C574 C 0.10924 0.6305 0.7679 0.0
C575 C 0.0924 0.64407 0.78189 0.0
C576 C 0.09485 0.64841 0.81016 0.0
C577 C 0.11396 0.63811 0.82429 0.0
C578 C 0.13059 0.62433 0.81036 0.0
H579 H 0.12097 0.55884 0.74011 0.0
H580 H 0.10972 0.57836 0.76639 0.0
H581 H 0.10932 0.58731 0.73095 0.0
H582 H 0.10761 0.62846 0.7459 0.0
H583 H 0.07799 0.65189 0.77036 0.0
H584 H 0.85426 0.12042 0.33557 0.0
H585 H 0.87784 0.14791 0.30809 0.0
H586 H 0.87564 0.09943 0.23988 0.0
H587 H 0.85211 0.07165 0.26715 0.0
H588 H 0.92421 0.13743 0.27383 0.0
H589 H 0.84369 0.16639 0.21669 0.0
H590 H 0.84183 0.15318 0.25036 0.0
H591 H 0.84884 0.13514 0.22123 0.0
C592 C 0.85894 0.11544 0.31482 0.0
C593 C 0.85108 0.09388 0.30351 0.0
C594 C 0.87251 0.13114 0.29922 0.0
C595 C 0.87833 0.12566 0.27203 0.0
C596 C 0.87124 0.10391 0.26088 0.0
H597 H 0.92608 0.22428 0.14671 0.0
H598 H 0.91396 0.18801 0.17015 0.0
C599 C 0.85779 0.08809 0.27651 0.0
C600 C 0.89036 0.14349 0.25482 0.0
H601 H 0.87939 0.18552 0.20631 0.0
C602 C 0.91455 0.14788 0.25888 0.0
C603 C 0.87763 0.15689 0.23533 0.0
C604 C 0.85152 0.15287 0.23055 0.0
C605 C 0.92638 0.16559 0.24396 0.0
C606 C 0.91344 0.17962 0.22511 0.0
C607 C 0.88933 0.17477 0.22072 0.0
C608 C 0.924 0.20018 0.2106 0.0
C609 C 0.95261 0.16891 0.24839 0.0
C610 C 0.93408 0.21895 0.22547 0.0
C611 C 0.94127 0.23964 0.21207 0.0
C612 C 0.93806 0.24212 0.18361 0.0
C613 C 0.92865 0.22301 0.16867 0.0
C614 C 0.92174 0.20224 0.18203 0.0
H615 H 0.96107 0.1523 0.25567 0.0
H616 H 0.96159 0.17472 0.22929 0.0
H617 H 0.95542 0.18263 0.26436 0.0
H618 H 0.93545 0.21807 0.24759 0.0
H619 H 0.94829 0.25408 0.22423 0.0
H620 H 0.24303 0.95235 0.72557 0.0
H621 H 0.27795 0.94027 0.7518 0.0
H622 H 0.30962 0.91198 0.67836 0.0
H623 H 0.27482 0.92384 0.65191 0.0
H624 H 0.29198 0.88974 0.75176 0.0
H625 H 0.36403 0.95033 0.71815 0.0
H626 H 0.33305 0.95821 0.7159 0.0
H627 H 0.34563 0.9379 0.69166 0.0
C628 C 0.2576 0.94398 0.71485 0.0
C629 C 0.25602 0.93889 0.68666 0.0
C630 C 0.27752 0.93711 0.72989 0.0
C631 C 0.29637 0.92542 0.71694 0.0
C632 C 0.29537 0.92128 0.68862 0.0
H633 H 0.42114 0.84834 0.76749 0.0
H634 H 0.39137 0.87157 0.7428 0.0
C635 C 0.27538 0.92793 0.6736 0.0
C636 C 0.31569 0.91501 0.73345 0.0
H637 H 0.37525 0.91723 0.74518 0.0
C638 C 0.31017 0.89587 0.75059 0.0
C639 C 0.33937 0.92288 0.73143 0.0
C640 C 0.346 0.94356 0.71345 0.0
C641 C 0.3278 0.88397 0.76538 0.0
C642 C 0.35154 0.89196 0.76367 0.0
C643 C 0.35705 0.91124 0.7466 0.0
C644 C 0.37085 0.88004 0.77898 0.0
C645 C 0.3209 0.86239 0.78186 0.0
C646 C 0.36964 0.87781 0.80761 0.0
C647 C 0.38638 0.86427 0.82169 0.0
C648 C 0.40496 0.85312 0.80748 0.0
C649 C 0.40699 0.85662 0.77901 0.0
C650 C 0.39001 0.86991 0.76488 0.0
H651 H 0.30378 0.85482 0.77482 0.0
H652 H 0.33466 0.8484 0.7805 0.0
H653 H 0.31882 0.86747 0.80371 0.0
H654 H 0.3554 0.88607 0.81901 0.0
H655 H 0.38455 0.86227 0.84368 0.0
H656 H 0.54986 0.25847 0.77296 0.0
H657 H 0.56285 0.22363 0.74717 0.0
H658 H 0.58989 0.19236 0.82145 0.0
H659 H 0.57716 0.22713 0.84749 0.0
H660 H 0.61444 0.2094 0.74991 0.0
H661 H 0.55117 0.13822 0.77951 0.0
H662 H 0.54336 0.16927 0.78059 0.0
H663 H 0.56245 0.15705 0.80633 0.0
C664 C 0.55818 0.24403 0.78395 0.0
C665 C 0.56263 0.24569 0.81228 0.0
C666 C 0.56557 0.22415 0.76916 0.0
C667 C 0.57715 0.20544 0.78249 0.0
C668 C 0.58072 0.20654 0.8109 0.0
H669 H 0.65228 0.07933 0.73078 0.0
H670 H 0.62972 0.10925 0.75607 0.0
C671 C 0.57355 0.22649 0.82568 0.0
C672 C 0.58787 0.18608 0.76633 0.0
H673 H 0.5843 0.12687 0.75281 0.0
C674 C 0.60778 0.19137 0.75033 0.0
C675 C 0.57927 0.16262 0.76738 0.0
C676 C 0.5578 0.15629 0.78423 0.0
C677 C 0.61965 0.17369 0.73557 0.0
C678 C 0.61086 0.1502 0.73616 0.0
C679 C 0.5909 0.14491 0.75224 0.0
C680 C 0.62248 0.13095 0.72046 0.0
C681 C 0.64193 0.18025 0.72021 0.0
C682 C 0.62519 0.13283 0.69195 0.0
C683 C 0.63829 0.11598 0.67752 0.0
C684 C 0.64859 0.09665 0.69127 0.0
C685 C 0.64467 0.09405 0.7196 0.0
C686 C 0.63176 0.11112 0.73409 0.0
H687 H 0.64983 0.19692 0.72815 0.0
H688 H 0.6554 0.16598 0.72165 0.0
H689 H 0.6376 0.18304 0.69826 0.0
H690 H 0.6176 0.14764 0.68092 0.0
H691 H 0.64063 0.1183 0.65564 0.0
H692 H 0.37852 0.64311 0.16091 0.0
H693 H 0.35124 0.61932 0.18842 0.0
H694 H 0.39937 0.62264 0.2569 0.0
H695 H 0.42693 0.64641 0.22962 0.0
H696 H 0.36112 0.57362 0.22212 0.0
H697 H 0.33301 0.65361 0.28074 0.0
H698 H 0.34671 0.65576 0.24736 0.0
H699 H 0.36425 0.64817 0.27672 0.0
C700 C 0.38347 0.63865 0.18174 0.0
C701 C 0.40485 0.6469 0.19311 0.0
C702 C 0.36789 0.62495 0.19736 0.0
C703 C 0.37331 0.61939 0.22464 0.0
C704 C 0.39491 0.62687 0.23585 0.0
H705 H 0.27476 0.57141 0.34986 0.0
H706 H 0.3112 0.58302 0.32647 0.0
C707 C 0.4106 0.64045 0.22021 0.0
C708 C 0.35554 0.60725 0.24186 0.0
H709 H 0.31397 0.61786 0.291 0.0
C710 C 0.35088 0.58316 0.23736 0.0
C711 C 0.3424 0.6198 0.26174 0.0
C712 C 0.34663 0.6458 0.267 0.0
C713 C 0.33318 0.57126 0.25223 0.0
C714 C 0.31941 0.58404 0.27148 0.0
C715 C 0.32452 0.60804 0.2763 0.0
C716 C 0.2988 0.57349 0.28594 0.0
C717 C 0.32959 0.54513 0.24732 0.0
C718 C 0.27985 0.56378 0.27104 0.0
C719 C 0.25906 0.55685 0.28442 0.0
C720 C 0.25666 0.55999 0.3129 0.0
C721 C 0.27597 0.56893 0.32788 0.0
C722 C 0.29683 0.57555 0.31454 0.0
H723 H 0.34611 0.53661 0.23983 0.0
H724 H 0.32374 0.53592 0.26627 0.0
H725 H 0.31582 0.54267 0.23134 0.0
H726 H 0.28065 0.56257 0.2489 0.0
H727 H 0.24446 0.55019 0.27226 0.0
H728 H 0.85279 0.42595 0.7303 0.0
H729 H 0.87662 0.39789 0.75677 0.0
H730 H 0.8828 0.35281 0.68579 0.0
H731 H 0.85893 0.3806 0.65912 0.0
H732 H 0.86162 0.34816 0.76255 0.0
H733 H 0.95183 0.35786 0.71829 0.0
H734 H 0.92972 0.38095 0.71618 0.0
H735 H 0.92784 0.35557 0.69414 0.0
C736 C 0.85949 0.41025 0.72015 0.0
C737 C 0.8538 0.40547 0.6926 0.0
C738 C 0.87312 0.39427 0.73533 0.0
C739 C 0.88163 0.37346 0.72312 0.0
C740 C 0.87667 0.36898 0.69544 0.0
H741 H 0.94646 0.24267 0.77349 0.0
H742 H 0.93333 0.27813 0.74894 0.0
C743 C 0.86287 0.38482 0.6803 0.0
C744 C 0.89354 0.35524 0.73994 0.0
H745 H 0.94546 0.32505 0.74791 0.0
C746 C 0.88003 0.34325 0.75963 0.0
C747 C 0.91744 0.3488 0.73573 0.0
C748 C 0.9327 0.36153 0.71508 0.0
C749 C 0.88955 0.3244 0.77474 0.0
C750 C 0.91353 0.31789 0.77063 0.0
C751 C 0.92715 0.33014 0.75114 0.0
C752 C 0.92432 0.29774 0.78563 0.0
C753 C 0.87349 0.31104 0.79408 0.0
C754 C 0.92453 0.29737 0.8144 0.0
C755 C 0.93167 0.27703 0.82845 0.0
C756 C 0.93923 0.25686 0.81398 0.0
C757 C 0.94067 0.25789 0.78521 0.0
C758 C 0.93317 0.27815 0.77116 0.0
H759 H 0.85449 0.31406 0.78927 0.0
H760 H 0.87702 0.29171 0.79327 0.0
H761 H 0.87665 0.31725 0.81536 0.0
H762 H 0.91845 0.31256 0.826 0.0
H763 H 0.93074 0.27693 0.85064 0.0
H764 H 0.07147 0.87168 0.21113 0.0
H765 H 0.09956 0.89732 0.23537 0.0
H766 H 0.15777 0.85845 0.1998 0.0
H767 H 0.12993 0.83372 0.17459 0.0
H768 H 0.12987 0.8887 0.27295 0.0
H769 H 0.18053 0.92335 0.18534 0.0
H770 H 0.1532 0.90728 0.18079 0.0
H771 H 0.18095 0.89167 0.18421 0.0
C772 C 0.09029 0.86881 0.2083 0.0
C773 C 0.09852 0.85084 0.19077 0.0
C774 C 0.10632 0.88349 0.22212 0.0
C775 C 0.13085 0.88028 0.21889 0.0
C776 C 0.139 0.86198 0.20182 0.0
H777 H 0.24073 0.90155 0.33345 0.0
H778 H 0.20536 0.89107 0.30784 0.0
C779 C 0.12304 0.84766 0.18759 0.0
C780 C 0.14802 0.89486 0.2347 0.0
H781 H 0.20136 0.92285 0.22906 0.0
C782 C 0.14527 0.89656 0.26325 0.0
C783 C 0.16779 0.90586 0.22214 0.0
C784 C 0.1706 0.90718 0.1914 0.0
C785 C 0.16251 0.90746 0.27969 0.0
C786 C 0.18357 0.91601 0.26738 0.0
C787 C 0.18553 0.91583 0.23867 0.0
C788 C 0.20447 0.92336 0.28387 0.0
C789 C 0.15794 0.90951 0.31009 0.0
C790 C 0.21644 0.94467 0.27831 0.0
C791 C 0.23722 0.95046 0.29253 0.0
C792 C 0.24626 0.93513 0.3127 0.0
C793 C 0.23408 0.91396 0.31836 0.0
C794 C 0.21365 0.90802 0.30387 0.0
H795 H 0.13869 0.91138 0.31431 0.0
H796 H 0.16404 0.89311 0.32045 0.0
H797 H 0.16733 0.9249 0.31918 0.0
H798 H 0.20985 0.95671 0.2628 0.0
H799 H 0.24619 0.9669 0.2877 0.0
H800 H 0.34948 0.57891 0.7276 0.0
H801 H 0.37304 0.60863 0.75193 0.0
H802 H 0.38865 0.64327 0.67519 0.0
H803 H 0.36451 0.61417 0.65085 0.0
H804 H 0.41882 0.62441 0.74996 0.0
H805 H 0.35721 0.69578 0.71774 0.0
H806 H 0.35067 0.66486 0.71259 0.0
H807 H 0.37022 0.68019 0.68947 0.0
C808 C 0.35813 0.59272 0.71587 0.0
C809 C 0.35479 0.59444 0.68735 0.0
C810 C 0.37159 0.60968 0.7298 0.0
C811 C 0.38209 0.62851 0.71544 0.0
C812 C 0.38012 0.6293 0.68677 0.0
H813 H 0.45279 0.75718 0.77007 0.0
H814 H 0.44148 0.72227 0.74335 0.0
C815 C 0.36639 0.6126 0.67288 0.0
C816 C 0.39393 0.64798 0.73056 0.0
H817 H 0.39157 0.70765 0.74172 0.0
C818 C 0.4129 0.64261 0.74815 0.0
C819 C 0.38604 0.67173 0.72833 0.0
C820 C 0.36478 0.67851 0.71124 0.0
C821 C 0.42427 0.66041 0.76341 0.0
C822 C 0.41643 0.68407 0.76097 0.0
C823 C 0.39767 0.68948 0.74323 0.0
C824 C 0.42635 0.70348 0.77779 0.0
C825 C 0.4446 0.65389 0.78199 0.0
C826 C 0.42179 0.70429 0.80602 0.0
C827 C 0.428 0.72427 0.82131 0.0
C828 C 0.43894 0.74381 0.80862 0.0
C829 C 0.44443 0.74246 0.78051 0.0
C830 C 0.438 0.72254 0.7652 0.0
H831 H 0.4517 0.63599 0.77728 0.0
H832 H 0.45914 0.66704 0.78019 0.0
H833 H 0.43838 0.65395 0.80358 0.0
H834 H 0.4125 0.68988 0.81601 0.0
H835 H 0.4236 0.72465 0.84293 0.0
H836 H 0.91994 0.34581 0.23133 0.0
H837 H 0.88988 0.36873 0.25595 0.0
H838 H 0.85543 0.38513 0.17934 0.0
H839 H 0.88488 0.36174 0.15468 0.0
H840 H 0.87445 0.41493 0.25391 0.0
H841 H 0.80274 0.35363 0.22194 0.0
H842 H 0.83364 0.34689 0.21689 0.0
H843 H 0.81845 0.3664 0.1936 0.0
C844 C 0.90605 0.35442 0.21971 0.0
C845 C 0.90457 0.35161 0.19109 0.0
C846 C 0.88891 0.36753 0.23381 0.0
C847 C 0.87012 0.37815 0.21952 0.0
C848 C 0.86939 0.37651 0.19083 0.0
H849 H 0.74219 0.45102 0.27183 0.0
H850 H 0.77722 0.4388 0.24584 0.0
C851 C 0.8863 0.36319 0.17677 0.0
C852 C 0.85073 0.39008 0.23466 0.0
H853 H 0.79099 0.38839 0.24536 0.0
C854 C 0.8562 0.40914 0.25207 0.0
C855 C 0.82694 0.38237 0.23236 0.0
C856 C 0.82007 0.36106 0.21541 0.0
C857 C 0.83843 0.42085 0.26701 0.0
C858 C 0.8147 0.41324 0.26444 0.0
C859 C 0.80922 0.39432 0.24696 0.0
C860 C 0.79528 0.42366 0.28079 0.0
C861 C 0.84503 0.44133 0.28533 0.0
C862 C 0.79405 0.4194 0.30906 0.0
C863 C 0.77401 0.42613 0.32393 0.0
C864 C 0.75483 0.4373 0.31076 0.0
C865 C 0.75663 0.4425 0.28262 0.0
C866 C 0.77661 0.43554 0.26772 0.0
H867 H 0.86311 0.44806 0.28086 0.0
H868 H 0.83216 0.45606 0.28297 0.0
H869 H 0.84451 0.43544 0.30703 0.0
H870 H 0.80816 0.40995 0.31941 0.0
H871 H 0.77327 0.42196 0.3456 0.0
H872 H 0.04525 0.74454 0.77249 0.0
H873 H 0.05723 0.7789 0.74517 0.0
H874 H 0.08983 0.81013 0.81643 0.0
H875 H 0.07803 0.77595 0.84398 0.0
H876 H 0.06095 0.8423 0.77741 0.0
H877 H 0.13161 0.78686 0.72998 0.0
H878 H 0.10198 0.77508 0.73063 0.0
H879 H 0.11784 0.77908 0.76216 0.0
C880 C 0.05462 0.75887 0.78251 0.0
C881 C 0.06094 0.75732 0.81037 0.0
C882 C 0.06145 0.77846 0.76684 0.0
C883 C 0.07454 0.79686 0.77881 0.0
C884 C 0.07973 0.79605 0.80689 0.0
H885 H 0.14973 0.92254 0.72807 0.0
H886 H 0.12575 0.89334 0.75249 0.0
C887 C 0.07305 0.77643 0.82254 0.0
C888 C 0.08477 0.81585 0.76166 0.0
H889 H 0.12937 0.82655 0.71623 0.0
C890 C 0.07581 0.83894 0.76386 0.0
C891 C 0.10412 0.81127 0.7441 0.0
C892 C 0.11465 0.78679 0.74154 0.0
C893 C 0.08573 0.85767 0.74874 0.0
C894 C 0.1055 0.85319 0.73163 0.0
C895 C 0.1142 0.82998 0.72928 0.0
C896 C 0.11805 0.87223 0.71649 0.0
C897 C 0.07476 0.88196 0.75101 0.0
C898 C 0.12201 0.86995 0.68819 0.0
C899 C 0.1361 0.88634 0.67429 0.0
C900 C 0.14646 0.90545 0.68838 0.0
C901 C 0.14189 0.90812 0.71657 0.0
C902 C 0.128 0.89153 0.73053 0.0
H903 H 0.0559 0.88089 0.75739 0.0
H904 H 0.0844 0.89231 0.76681 0.0
H905 H 0.07581 0.89168 0.73126 0.0
H906 H 0.11458 0.85517 0.67694 0.0
H907 H 0.13913 0.88383 0.65255 0.0
H908 H 0.57837 0.15265 0.22674 0.0
H909 H 0.60816 0.12923 0.25111 0.0
H910 H 0.64514 0.11701 0.17502 0.0
H911 H 0.61593 0.14096 0.15066 0.0
H912 H 0.62428 0.08363 0.2471 0.0
H913 H 0.69619 0.14685 0.22144 0.0
H914 H 0.66539 0.15348 0.21547 0.0
H915 H 0.68153 0.13512 0.19178 0.0
C916 C 0.59277 0.14487 0.21516 0.0
C917 C 0.59499 0.14899 0.18682 0.0
C918 C 0.60977 0.13147 0.22912 0.0
C919 C 0.62917 0.12184 0.21498 0.0
C920 C 0.63069 0.12485 0.18647 0.0
H921 H 0.75628 0.04805 0.26869 0.0
H922 H 0.72176 0.06053 0.24194 0.0
C923 C 0.61392 0.13848 0.17256 0.0
C924 C 0.64827 0.10946 0.23015 0.0
H925 H 0.70764 0.11125 0.24333 0.0
C926 C 0.64251 0.08965 0.24628 0.0
C927 C 0.67203 0.11746 0.22922 0.0
C928 C 0.67917 0.13952 0.21378 0.0
C929 C 0.65996 0.07753 0.26131 0.0
C930 C 0.68366 0.08544 0.26009 0.0
C931 C 0.68945 0.10509 0.24386 0.0
C932 C 0.70267 0.07462 0.27674 0.0
C933 C 0.65304 0.05633 0.27831 0.0
C934 C 0.70314 0.07815 0.30518 0.0
C935 C 0.72288 0.07128 0.32049 0.0
C936 C 0.74252 0.06068 0.3076 0.0
C937 C 0.74146 0.05609 0.27927 0.0
C938 C 0.72177 0.06322 0.26394 0.0
H939 H 0.6351 0.0497 0.27294 0.0
H940 H 0.66605 0.04176 0.27556 0.0
H941 H 0.65305 0.06135 0.30031 0.0
H942 H 0.68868 0.08721 0.31536 0.0
H943 H 0.72307 0.07497 0.34229 0.0
H944 H 0.42022 0.774 0.15226 0.0
H945 H 0.40903 0.80918 0.17845 0.0
H946 H 0.44112 0.77946 0.25089 0.0
H947 H 0.45252 0.74418 0.22492 0.0
H948 H 0.39056 0.79304 0.25377 0.0
H949 H 0.44866 0.86481 0.21401 0.0
H950 H 0.43507 0.84573 0.18897 0.0
H951 H 0.45672 0.83386 0.21212 0.0
C952 C 0.42527 0.77507 0.17365 0.0
C953 C 0.43713 0.75616 0.18653 0.0
C954 C 0.41899 0.79527 0.18852 0.0
C955 C 0.42443 0.79694 0.2165 0.0
C956 C 0.43695 0.77852 0.22923 0.0
H957 H 0.36708 0.8871 0.34499 0.0
H958 H 0.39005 0.85783 0.31945 0.0
C959 C 0.44344 0.75839 0.21434 0.0
C960 C 0.41463 0.81654 0.23309 0.0
H961 H 0.41697 0.87634 0.24303 0.0
C962 C 0.39646 0.81124 0.25167 0.0
C963 C 0.42218 0.84022 0.22987 0.0
C964 C 0.44184 0.84663 0.21031 0.0
C965 C 0.38522 0.82909 0.2668 0.0
C966 C 0.39292 0.85284 0.26392 0.0
C967 C 0.41121 0.85813 0.24536 0.0
C968 C 0.38168 0.87236 0.27954 0.0
C969 C 0.3646 0.82239 0.28496 0.0
C970 C 0.37054 0.89109 0.26568 0.0
C971 C 0.35772 0.90814 0.28028 0.0
C972 C 0.35571 0.90661 0.30898 0.0
C973 C 0.36794 0.88854 0.32286 0.0
C974 C 0.381 0.87173 0.30829 0.0
H975 H 0.35684 0.80506 0.27895 0.0
H976 H 0.37083 0.82083 0.30646 0.0
H977 H 0.35044 0.83601 0.28418 0.0
H978 H 0.37099 0.89201 0.24349 0.0
H979 H 0.34857 0.92189 0.26898 0.0
H980 H 0.7565 0.45411 0.72681 0.0
H981 H 0.72172 0.4425 0.75361 0.0
H982 H 0.6919 0.40836 0.68252 0.0
H983 H 0.72654 0.41975 0.65548 0.0
H984 H 0.65918 0.43882 0.72065 0.0
H985 H 0.71308 0.36781 0.7698 0.0
H986 H 0.72537 0.39722 0.76833 0.0
H987 H 0.72116 0.38077 0.73726 0.0
C988 C 0.7424 0.44446 0.7167 0.0
C989 C 0.74447 0.43762 0.68904 0.0
C990 C 0.72256 0.43786 0.73207 0.0
C991 C 0.70442 0.42449 0.72001 0.0
C992 C 0.70578 0.4187 0.69212 0.0
H993 H 0.57713 0.3518 0.77059 0.0
H994 H 0.60677 0.37514 0.74607 0.0
C995 C 0.72566 0.42514 0.67677 0.0
C996 C 0.68508 0.41467 0.73695 0.0
H997 H 0.67325 0.37072 0.78287 0.0
C998 C 0.66218 0.42402 0.73441 0.0
C999 C 0.68919 0.39541 0.7548 0.0
C1000 C 0.71346 0.38452 0.75777 0.0
C1001 C 0.64316 0.41458 0.74948 0.0
C1002 C 0.64716 0.39492 0.76692 0.0
C1003 C 0.67019 0.38582 0.76958 0.0
C1004 C 0.6278 0.38291 0.78211 0.0
C1005 C 0.61909 0.42597 0.74684 0.0
C1006 C 0.62984 0.37925 0.81048 0.0
C1007 C 0.61318 0.36553 0.82446 0.0
C1008 C 0.59403 0.35525 0.81037 0.0
C1009 C 0.59156 0.35959 0.7821 0.0
C1010 C 0.60842 0.37311 0.76807 0.0
H1011 H 0.62054 0.44472 0.74015 0.0
H1012 H 0.60866 0.41632 0.73113 0.0
H1013 H 0.60924 0.42534 0.76653 0.0
H1014 H 0.64468 0.38658 0.82173 0.0
H1015 H 0.61555 0.36268 0.84625 0.0
H1016 H 0.14622 0.57176 0.26585 0.0
H1017 H 0.12231 0.59955 0.23902 0.0
H1018 H 0.12002 0.64746 0.30778 0.0
H1019 H 0.1438 0.61994 0.33483 0.0
H1020 H 0.07478 0.63999 0.27751 0.0
H1021 H 0.15201 0.66373 0.2119 0.0
H1022 H 0.1452 0.63276 0.21546 0.0
H1023 H 0.15544 0.64919 0.24463 0.0
C1024 C 0.1405 0.58812 0.27538 0.0
C1025 C 0.14719 0.5937 0.30244 0.0
C1026 C 0.12685 0.60396 0.25999 0.0
C1027 C 0.11962 0.62558 0.27141 0.0
C1028 C 0.12547 0.63083 0.29865 0.0
H1029 H 0.05409 0.75687 0.22571 0.0
H1030 H 0.06609 0.72058 0.24922 0.0
C1031 C 0.13918 0.6151 0.31401 0.0
C1032 C 0.10717 0.64346 0.25459 0.0
H1033 H 0.11629 0.6835 0.20336 0.0
C1034 C 0.08372 0.64942 0.26113 0.0
C1035 C 0.11894 0.65562 0.23326 0.0
C1036 C 0.14433 0.65021 0.22587 0.0
C1037 C 0.0717 0.66742 0.24689 0.0
C1038 C 0.08373 0.68013 0.22611 0.0
C1039 C 0.10704 0.67374 0.21925 0.0
C1040 C 0.07319 0.7009 0.21198 0.0
C1041 C 0.04623 0.67249 0.25414 0.0
C1042 C 0.07318 0.702 0.18323 0.0
C1043 C 0.06677 0.72286 0.16977 0.0
C1044 C 0.06012 0.74306 0.1848 0.0
C1045 C 0.05897 0.74158 0.21355 0.0
C1046 C 0.06568 0.72076 0.22703 0.0
H1047 H 0.03748 0.65665 0.26312 0.0
H1048 H 0.04562 0.68682 0.2697 0.0
H1049 H 0.03598 0.67828 0.2359 0.0
H1050 H 0.07892 0.68692 0.17119 0.0
H1051 H 0.06766 0.72335 0.14759 0.0
H1052 H 0.92736 0.14638 0.77235 0.0
H1053 H 0.89909 0.12301 0.74563 0.0
H1054 H 0.85112 0.12192 0.81435 0.0
H1055 H 0.87913 0.14534 0.84132 0.0
H1056 H 0.85992 0.07543 0.78115 0.0
H1057 H 0.83322 0.15552 0.72188 0.0
H1058 H 0.86438 0.14964 0.72591 0.0
H1059 H 0.84696 0.15758 0.75524 0.0
C1060 C 0.91093 0.14099 0.78195 0.0
C1061 C 0.90544 0.14797 0.80894 0.0
C1062 C 0.89482 0.12763 0.76663 0.0
C1063 C 0.87306 0.1209 0.77806 0.0
C1064 C 0.86788 0.12698 0.80526 0.0
H1065 H 0.7438 0.05264 0.72738 0.0
H1066 H 0.77925 0.06511 0.75223 0.0
C1067 C 0.88388 0.14045 0.82056 0.0
C1068 C 0.85496 0.109 0.76108 0.0
H1069 H 0.81405 0.11987 0.71128 0.0
C1070 C 0.84992 0.08501 0.76573 0.0
C1071 C 0.84212 0.12164 0.74101 0.0
C1072 C 0.84673 0.14756 0.73565 0.0
C1073 C 0.83224 0.07325 0.75069 0.0
C1074 C 0.81891 0.08608 0.73107 0.0
C1075 C 0.82428 0.11001 0.72625 0.0
C1076 C 0.79869 0.07554 0.7159 0.0
C1077 C 0.82824 0.0472 0.75573 0.0
C1078 C 0.79773 0.07729 0.6872 0.0
C1079 C 0.77733 0.07059 0.673 0.0
C1080 C 0.75747 0.0619 0.6872 0.0
C1081 C 0.75885 0.0591 0.71582 0.0
C1082 C 0.7792 0.06609 0.73006 0.0
H1083 H 0.8444 0.03858 0.76406 0.0
H1084 H 0.81389 0.045 0.77106 0.0
H1085 H 0.82294 0.03791 0.73662 0.0
H1086 H 0.81254 0.08454 0.67584 0.0
H1087 H 0.77692 0.0728 0.65094 0.0
H1088 H 0.47756 0.22653 0.11615 0.0
H1089 H 0.4671 0.24233 0.07081 0.0
H1090 H 0.53264 0.21519 0.03794 0.0
H1091 H 0.54307 0.19928 0.08278 0.0
H1092 H 0.49195 0.27514 0.03973 0.0
H1093 H 0.48359 0.19083 0.98315 0.0
H1094 H 0.48306 0.19233 0.02017 0.0
H1095 H 0.51084 0.19205 0.00201 0.0
C1096 C 0.48966 0.22389 0.09918 0.0
C1097 C 0.51108 0.21162 0.10292 0.0
C1098 C 0.48363 0.23283 0.07335 0.0
C1099 C 0.49885 0.2294 0.05096 0.0
C1100 C 0.52034 0.21742 0.05481 0.0
H1101 H 0.54226 0.3034 0.91392 0.0
H1102 H 0.53182 0.28694 0.95849 0.0
C1103 C 0.52638 0.20855 0.08051 0.0
C1104 C 0.49338 0.23957 0.02379 0.0
H1105 H 0.49373 0.2254 0.95583 0.0
C1106 C 0.49175 0.26426 0.02139 0.0
C1107 C 0.49255 0.22533 -4e-05 0.0
C1108 C 0.49233 0.19865 0.00146 0.0
C1109 C 0.4915 0.27518 0.99559 0.0
C1110 C 0.49335 0.26099 0.97178 0.0
C1111 C 0.49276 0.23626 0.97415 0.0
C1112 C 0.49883 0.27141 0.94475 0.0
C1113 C 0.49018 0.30183 0.99406 0.0
C1114 C 0.4841 0.26744 0.92204 0.0
C1115 C 0.49014 0.27671 0.89637 0.0
C1116 C 0.5111 0.28985 0.8931 0.0
C1117 C 0.52593 0.29346 0.91582 0.0
C1118 C 0.51988 0.28426 0.94137 0.0
H1119 H 0.48084 0.30926 0.01219 0.0
H1120 H 0.50839 0.30921 0.99387 0.0
H1121 H 0.48092 0.30774 0.97517 0.0
H1122 H 0.46793 0.25727 0.92423 0.0
H1123 H 0.47841 0.27363 0.87916 0.0
H1124 H 0.19639 0.54673 0.41041 0.0
H1125 H 0.21222 0.53843 0.45595 0.0
H1126 H 0.2372 0.47036 0.42807 0.0
H1127 H 0.22166 0.47871 0.38208 0.0
H1128 H 0.20169 0.50038 0.49186 0.0
H1129 H 0.29661 0.50237 0.46044 0.0
H1130 H 0.27333 0.51361 0.43867 0.0
H1131 H 0.27742 0.48226 0.44243 0.0
C1132 C 0.20529 0.53001 0.41391 0.0
C1133 C 0.20795 0.51343 0.39268 0.0
C1134 C 0.21421 0.52525 0.43996 0.0
C1135 C 0.22596 0.50386 0.44525 0.0
C1136 C 0.22842 0.48709 0.42423 0.0
H1137 H 0.27092 0.48098 0.61721 0.0
H1138 H 0.25321 0.47219 0.57234 0.0
C1139 C 0.21953 0.49187 0.39805 0.0
C1140 C 0.23606 0.49979 0.47276 0.0
H1141 H 0.28849 0.49927 0.50742 0.0
C1142 C 0.22065 0.49971 0.49536 0.0
C1143 C 0.2608 0.49895 0.47704 0.0
C1144 C 0.27811 0.49943 0.45346 0.0
C1145 C 0.22939 0.50012 0.52227 0.0
C1146 C 0.25414 0.50035 0.5265 0.0
C1147 C 0.26951 0.49907 0.50395 0.0
C1148 C 0.26447 0.50512 0.55373 0.0
C1149 C 0.21219 0.50178 0.54588 0.0
C1150 C 0.27669 0.52642 0.55791 0.0
C1151 C 0.28681 0.53142 0.58328 0.0
C1152 C 0.28492 0.51517 0.60496 0.0
C1153 C 0.27252 0.49386 0.60086 0.0
C1154 C 0.2624 0.48883 0.57532 0.0
H1155 H 0.19368 0.50447 0.53883 0.0
H1156 H 0.21289 0.48517 0.558 0.0
H1157 H 0.21714 0.51661 0.55969 0.0
H1158 H 0.27837 0.53922 0.54147 0.0
H1159 H 0.29625 0.54798 0.58581 0.0
H1160 H 0.02074 0.27374 0.11898 0.0
H1161 H 0.0306 0.2579 0.07349 0.0
H1162 H 0.9667 0.28869 0.04062 0.0
H1163 H 0.95689 0.30467 0.08563 0.0
H1164 H 0.00396 0.22657 0.04255 0.0
H1165 H 0.01699 0.31022 0.9858 0.0
H1166 H 0.01736 0.30875 0.02281 0.0
H1167 H 0.98968 0.31043 0.00457 0.0
C1168 C 0.00891 0.27723 0.10197 0.0
C1169 C 0.98808 0.29047 0.10577 0.0
C1170 C 0.01459 0.26825 0.07606 0.0
C1171 C 0.99963 0.27261 0.05365 0.0
C1172 C 0.9788 0.2857 0.05751 0.0
H1173 H 0.95494 0.19974 0.91518 0.0
H1174 H 0.96469 0.21624 0.95999 0.0
C1175 C 0.9731 0.29462 0.0833 0.0
C1176 C 0.00455 0.26212 0.02651 0.0
H1177 H 0.00549 0.27612 0.9585 0.0
C1178 C 0.00485 0.23737 0.02419 0.0
C1179 C 0.00624 0.27625 0.00265 0.0
C1180 C 0.00782 0.30289 0.00409 0.0
C1181 C 0.00476 0.22639 0.99842 0.0
C1182 C 0.00391 0.24059 0.97456 0.0
C1183 C 0.00569 0.26528 0.97687 0.0
C1184 C 0.99864 0.23034 0.94739 0.0
C1185 C 0.00476 0.1997 0.997 0.0
C1186 C 0.01417 0.23354 0.92525 0.0
C1187 C 0.00854 0.22427 0.89947 0.0
C1188 C 0.98722 0.21187 0.89552 0.0
C1189 C 0.97156 0.20908 0.91765 0.0
C1190 C 0.9772 0.21831 0.94332 0.0
H1191 H 0.01333 0.19184 0.01538 0.0
H1192 H 0.98621 0.19326 0.99629 0.0
H1193 H 0.0141 0.19329 0.97838 0.0
H1194 H 0.03067 0.24305 0.92798 0.0
H1195 H 0.0209 0.22671 0.88272 0.0
H1196 H 0.27394 0.02045 0.38142 0.0
H1197 H 0.25789 0.03032 0.42677 0.0
H1198 H 0.2866 0.96533 0.4593 0.0
H1199 H 0.30282 0.9555 0.41438 0.0
H1200 H 0.22574 0.0049 0.45766 0.0
H1201 H 0.30993 0.01468 0.51424 0.0
H1202 H 0.30842 0.01509 0.47723 0.0
H1203 H 0.30904 0.98736 0.49549 0.0
C1204 C 0.27687 0.00834 0.3983 0.0
C1205 C 0.2897 0.98726 0.39445 0.0
C1206 C 0.26778 0.01404 0.42414 0.0
C1207 C 0.27158 0.99882 0.44645 0.0
C1208 C 0.28407 0.97763 0.4425 0.0
H1209 H 0.19802 0.95604 0.58454 0.0
H1210 H 0.21453 0.96583 0.5398 0.0
C1211 C 0.29313 0.97193 0.41676 0.0
C1212 C 0.26132 0.00405 0.47363 0.0
H1213 H 0.27545 0.0046 0.54161 0.0
C1214 C 0.23661 0.00538 0.476 0.0
C1215 C 0.27554 0.00526 0.49746 0.0
C1216 C 0.30222 0.00579 0.49597 0.0
C1217 C 0.22568 0.0058 0.50179 0.0
C1218 C 0.23987 0.00443 0.52562 0.0
C1219 C 0.2646 0.00522 0.52326 0.0
C1220 C 0.22948 0.99931 0.55275 0.0
C1221 C 0.19901 0.00684 0.50329 0.0
C1222 C 0.23311 0.01458 0.57506 0.0
C1223 C 0.22379 0.00893 0.60082 0.0
C1224 C 0.21096 0.98784 0.60457 0.0
C1225 C 0.20772 0.97248 0.58225 0.0
C1226 C 0.21695 0.97814 0.55661 0.0
H1227 H 0.19146 0.01572 0.48493 0.0
H1228 H 0.19186 0.98854 0.504 0.0
H1229 H 0.19301 0.0164 0.52194 0.0
H1230 H 0.24303 0.03085 0.57248 0.0
H1231 H 0.22659 0.02106 0.61773 0.0
H1232 H 0.45396 0.80117 0.91184 0.0
H1233 H 0.4628 0.78417 0.9566 0.0
H1234 H 0.52793 0.75504 0.92502 0.0
H1235 H 0.51914 0.77203 0.87976 0.0
H1236 H 0.50001 0.72278 0.9557 0.0
H1237 H 0.51316 0.80689 0.01179 0.0
H1238 H 0.48627 0.8069 0.99216 0.0
H1239 H 0.51435 0.80497 0.97482 0.0
C1240 C 0.47021 0.79121 0.91436 0.0
C1241 C 0.48593 0.788 0.89236 0.0
C1242 C 0.47531 0.78167 0.94001 0.0
C1243 C 0.49625 0.76883 0.94419 0.0
C1244 C 0.51183 0.76517 0.92219 0.0
H1245 H 0.51847 0.72519 0.11543 0.0
H1246 H 0.52766 0.74056 0.0696 0.0
C1247 C 0.50676 0.77482 0.89641 0.0
C1248 C 0.50093 0.75842 0.97141 0.0
H1249 H 0.50218 0.77296 0.03924 0.0
C1250 C 0.501 0.7337 0.97397 0.0
C1251 C 0.50273 0.77273 0.99511 0.0
C1252 C 0.50439 0.79935 0.99335 0.0
C1253 C 0.50091 0.72292 -0.00013 0.0
C1254 C 0.50033 0.73732 0.02359 0.0
C1255 C 0.50222 0.76197 0.02099 0.0
C1256 C 0.49547 0.72734 0.05102 0.0
C1257 C 0.50074 0.69624 0.00158 0.0
C1258 C 0.47413 0.7153 0.05575 0.0
C1259 C 0.46881 0.70662 0.08178 0.0
C1260 C 0.48468 0.70998 0.1036 0.0
C1261 C 0.50593 0.72232 0.09895 0.0
C1262 C 0.51124 0.73103 0.07283 0.0
H1263 H 0.50907 0.68816 0.98317 0.0
H1264 H 0.5102 0.68991 0.02015 0.0
H1265 H 0.48214 0.68994 0.00259 0.0
H1266 H 0.46143 0.71286 0.03934 0.0
H1267 H 0.45225 0.69728 0.08478 0.0
H1268 H 0.80181 0.45306 0.58619 0.0
H1269 H 0.78554 0.46202 0.54106 0.0
H1270 H 0.75743 0.52793 0.57174 0.0
H1271 H 0.77358 0.51898 0.61732 0.0
H1272 H 0.72498 0.5015 0.5413 0.0
H1273 H 0.80955 0.51062 0.48519 0.0
H1274 H 0.8085 0.48374 0.50478 0.0
H1275 H 0.80775 0.51187 0.52216 0.0
C1276 C 0.79223 0.4695 0.58337 0.0
C1277 C 0.78903 0.48537 0.60522 0.0
C1278 C 0.78313 0.47469 0.55752 0.0
C1279 C 0.77079 0.49588 0.55298 0.0
C1280 C 0.76718 0.51163 0.57483 0.0
H1281 H 0.72705 0.51848 0.38161 0.0
H1282 H 0.74333 0.52742 0.42712 0.0
C1283 C 0.77634 0.50646 0.6008 0.0
C1284 C 0.76065 0.50063 0.52563 0.0
H1285 H 0.77521 0.50063 0.45778 0.0
C1286 C 0.73595 0.50182 0.52304 0.0
C1287 C 0.77503 0.50159 0.50192 0.0
C1288 C 0.8017 0.50216 0.50364 0.0
C1289 C 0.72518 0.50199 0.49715 0.0
C1290 C 0.73954 0.50053 0.47345 0.0
C1291 C 0.76425 0.50132 0.47603 0.0
C1292 C 0.72931 0.49577 0.44615 0.0
C1293 C 0.69853 0.50301 0.49541 0.0
C1294 C 0.71656 0.47479 0.44179 0.0
C1295 C 0.70738 0.46961 0.41596 0.0
C1296 C 0.71092 0.48527 0.39398 0.0
C1297 C 0.72402 0.50612 0.39824 0.0
C1298 C 0.73326 0.51129 0.42416 0.0
H1299 H 0.69081 0.51177 0.51376 0.0
H1300 H 0.69265 0.51269 0.47678 0.0
H1301 H 0.6914 0.48472 0.49446 0.0
H1302 H 0.71388 0.46229 0.45835 0.0
H1303 H 0.69747 0.45335 0.41326 0.0
H1304 H 0.9797 0.7765 0.11809 0.0
H1305 H 0.96972 0.7598 0.07304 0.0
H1306 H 0.03628 0.78495 0.04083 0.0
H1307 H 0.04624 0.80179 0.0854 0.0
H1308 H 0.99543 0.79496 0.00742 0.0
H1309 H 0.00209 0.70031 0.03925 0.0
H1310 H 0.983 0.71953 0.05869 0.0
H1311 H 0.01444 0.72393 0.0597 0.0
C1312 C 0.99218 0.7784 0.10138 0.0
C1313 C 0.01378 0.79036 0.10522 0.0
C1314 C 0.98646 0.76886 0.07574 0.0
C1315 C 0.00232 0.77112 0.05375 0.0
C1316 C 0.02379 0.78313 0.05758 0.0
H1317 H 0.04622 0.70347 0.91265 0.0
H1318 H 0.0368 0.72023 0.95738 0.0
C1319 C 0.0295 0.79264 0.08308 0.0
C1320 C 0.9972 0.76071 0.02666 0.0
H1321 H 0.99817 0.70814 0.99229 0.0
C1322 C 0.99552 0.77597 0.00403 0.0
C1323 C 0.99734 0.73594 0.02255 0.0
C1324 C 0.99942 0.71885 0.04622 0.0
C1325 C 0.99549 0.76714 0.97717 0.0
C1326 C 0.99693 0.74242 0.97302 0.0
C1327 C 0.99706 0.7271 0.99569 0.0
C1328 C 0.00184 0.7323 0.94571 0.0
C1329 C 0.99555 0.78431 0.95345 0.0
C1330 C 0.98528 0.73365 0.92432 0.0
C1331 C 0.99071 0.7242 0.89855 0.0
C1332 C 0.01269 0.71318 0.894 0.0
C1333 C 0.02915 0.71187 0.91552 0.0
C1334 C 0.02376 0.72134 0.94112 0.0
H1335 H 0.99737 0.80299 0.96033 0.0
H1336 H 0.01027 0.78017 0.93913 0.0
H1337 H 0.97869 0.78264 0.94193 0.0
H1338 H 0.96818 0.74186 0.92761 0.0
H1339 H 0.97765 0.72531 0.88233 0.0
H1340 H 0.72624 0.98055 0.61749 0.0
H1341 H 0.74287 0.97167 0.57207 0.0
H1342 H 0.71684 0.03855 0.54178 0.0
H1343 H 0.70009 0.04743 0.58667 0.0
H1344 H 0.70666 0.99812 0.50773 0.0
H1345 H 0.80169 0.00518 0.53782 0.0
H1346 H 0.78291 0.9857 0.55734 0.0
H1347 H 0.77827 0.01709 0.5589 0.0
C1348 C 0.72416 0.99335 0.60112 0.0
C1349 C 0.71194 0.01471 0.60559 0.0
C1350 C 0.73367 0.98826 0.57528 0.0
C1351 C 0.73109 0.00451 0.55372 0.0
C1352 C 0.7189 0.02577 0.5582 0.0
H1353 H 0.79716 0.04817 0.41012 0.0
H1354 H 0.78096 0.03961 0.45542 0.0
C1355 C 0.70944 0.03086 0.58389 0.0
C1356 C 0.74118 0.99992 0.52632 0.0
H1357 H 0.79323 0.00143 0.49095 0.0
C1358 C 0.7256 0.99837 0.50398 0.0
C1359 C 0.76587 0.0003 0.52173 0.0
C1360 C 0.78328 0.00227 0.54511 0.0
C1361 C 0.73403 0.99856 0.47695 0.0
C1362 C 0.75869 1.00009 0.47233 0.0
C1363 C 0.77433 1.00026 0.4947 0.0
C1364 C 0.76843 0.00459 0.44473 0.0
C1365 C 0.71651 0.99864 0.45358 0.0
C1366 C 0.76663 0.9877 0.42374 0.0
C1367 C 0.77575 0.99262 0.39768 0.0
C1368 C 0.7869 0.01443 0.39243 0.0
C1369 C 0.78865 0.03123 0.41355 0.0
C1370 C 0.77951 0.02634 0.43946 0.0
H1371 H 0.69797 0.00078 0.46082 0.0
H1372 H 0.72062 0.01317 0.43898 0.0
H1373 H 0.71777 0.98165 0.44225 0.0
H1374 H 0.75835 0.97072 0.42755 0.0
H1375 H 0.77431 0.97929 0.3818 0.0
loop_
_geom_bond_atom_site_label_1
_geom_bond_atom_site_label_2
_geom_bond_distance
_geom_bond_site_symmetry_2
_ccdc_geom_bond_type
Co0 O1 2.216 . S
Co0 O2 2.091 . S
Co0 O4 2.004 . S
Co0 O10 2.021 . S
Co0 O12 2.137 . S
Co0 O13 2.244 . S
O1 Co0 2.216 . S
O1 C8 1.247 . S
O2 Co0 2.091 . S
O2 C8 1.261 . S
C3 O12 1.247 . S
C3 O13 1.272 . S
O4 Co0 2.004 . S
O4 C9 1.259 . S
Co5 O6 2.061 . S
Co5 O11 2.052 . S
Co5 O13 2.135 . S
O6 Co5 2.061 . S
O6 C9 1.235 . S
C7 O10 1.238 . S
C7 O11 1.241 . S
C8 O1 1.247 . S
C8 O2 1.261 . S
C9 O4 1.259 . S
C9 O6 1.235 . S
O10 Co0 2.021 . S
O10 C7 1.238 . S
O11 Co5 2.052 . S
O11 C7 1.241 . S
O12 Co0 2.137 . S
O12 C3 1.247 . S
O13 Co0 2.244 . S
O13 C3 1.272 . S
O13 Co5 2.135 . S
Co14 O15 2.216 . S
Co14 O16 2.091 . S
Co14 O18 2.004 . S
Co14 O24 2.021 . S
Co14 O26 2.137 . S
Co14 O27 2.244 . S
O15 Co14 2.216 . S
O15 C22 1.247 . S
O16 Co14 2.091 . S
O16 C22 1.261 . S
C17 O26 1.247 . S
C17 O27 1.272 . S
O18 Co14 2.004 . S
O18 C23 1.259 . S
Co19 O20 2.061 . S
Co19 O25 2.052 . S
Co19 O27 2.135 . S
O20 Co19 2.061 . S
O20 C23 1.235 . S
C21 O24 1.238 . S
C21 O25 1.241 . S
C22 O15 1.247 . S
C22 O16 1.261 . S
C23 O18 1.259 . S
C23 O20 1.235 . S
O24 Co14 2.021 . S
O24 C21 1.238 . S
O25 Co19 2.052 . S
O25 C21 1.241 . S
O26 Co14 2.137 . S
O26 C17 1.247 . S
O27 Co14 2.244 . S
O27 C17 1.272 . S
O27 Co19 2.135 . S
Co28 O29 2.216 1_655 S
Co28 O30 2.091 1_655 S
Co28 O32 2.004 . S
Co28 O38 2.021 . S
Co28 O40 2.137 1_655 S
Co28 O41 2.244 . S
O29 Co28 2.216 1_455 S
O29 C36 1.247 . S
O30 Co28 2.091 1_455 S
O30 C36 1.261 . S
C31 O40 1.247 1_655 S
C31 O41 1.272 . S
O32 Co28 2.004 . S
O32 C37 1.259 . S
Co33 O34 2.061 . S
Co33 O39 2.052 . S
Co33 O41 2.135 . S
O34 Co33 2.061 . S
O34 C37 1.235 . S
C35 O38 1.238 . S
C35 O39 1.241 . S
C36 O29 1.247 . S
C36 O30 1.261 . S
C37 O32 1.259 . S
C37 O34 1.235 . S
O38 Co28 2.021 . S
O38 C35 1.238 . S
O39 Co33 2.052 . S
O39 C35 1.241 . S
O40 Co28 2.137 1_455 S
O40 C31 1.247 1_455 S
O41 Co28 2.244 . S
O41 C31 1.272 . S
O41 Co33 2.135 . S
Co42 O43 2.216 1_565 S
Co42 O44 2.091 1_565 S
Co42 O46 2.004 . S
Co42 O52 2.021 . S
Co42 O54 2.137 1_565 S
Co42 O55 2.244 . S
O43 Co42 2.216 1_545 S
O43 C50 1.247 . S
O44 Co42 2.091 1_545 S
O44 C50 1.261 . S
C45 O54 1.247 1_565 S
C45 O55 1.272 . S
O46 Co42 2.004 . S
O46 C51 1.259 . S
Co47 O48 2.061 . S
Co47 O53 2.052 . S
Co47 O55 2.135 . S
O48 Co47 2.061 . S
O48 C51 1.235 . S
C49 O52 1.238 . S
C49 O53 1.241 . S
C50 O43 1.247 . S
C50 O44 1.261 . S
C51 O46 1.259 . S
C51 O48 1.235 . S
O52 Co42 2.021 . S
O52 C49 1.238 . S
O53 Co47 2.052 . S
O53 C49 1.241 . S
O54 Co42 2.137 1_545 S
O54 C45 1.247 1_545 S
O55 Co42 2.244 . S
O55 C45 1.272 . S
O55 Co47 2.135 . S
Co56 O57 2.216 . S
Co56 O58 2.091 . S
Co56 O60 2.004 . S
Co56 O66 2.021 . S
Co56 O68 2.137 . S
Co56 O69 2.244 . S
O57 Co56 2.216 . S
O57 C64 1.247 . S
O58 Co56 2.091 . S
O58 C64 1.261 . S
C59 O68 1.247 . S
C59 O69 1.272 . S
O60 Co56 2.004 . S
O60 C65 1.259 . S
Co61 O62 2.061 . S
Co61 O67 2.052 . S
Co61 O69 2.135 . S
O62 Co61 2.061 . S
O62 C65 1.235 . S
C63 O66 1.238 . S
C63 O67 1.241 . S
C64 O57 1.247 . S
C64 O58 1.261 . S
C65 O60 1.259 . S
C65 O62 1.235 . S
O66 Co56 2.021 . S
O66 C63 1.238 . S
O67 Co61 2.052 . S
O67 C63 1.241 . S
O68 Co56 2.137 . S
O68 C59 1.247 . S
O69 Co56 2.244 . S
O69 C59 1.272 . S
O69 Co61 2.135 . S
Co70 O71 2.216 . S
Co70 O72 2.091 . S
Co70 O74 2.004 . S
Co70 O80 2.021 . S
Co70 O82 2.137 . S
Co70 O83 2.244 . S
O71 Co70 2.216 . S
O71 C78 1.247 . S
O72 Co70 2.091 . S
O72 C78 1.261 . S
C73 O82 1.247 . S
C73 O83 1.272 . S
O74 Co70 2.004 . S
O74 C79 1.259 . S
Co75 O76 2.061 . S
Co75 O81 2.052 . S
Co75 O83 2.135 . S
O76 Co75 2.061 . S
O76 C79 1.235 . S
C77 O80 1.238 . S
C77 O81 1.241 . S
C78 O71 1.247 . S
C78 O72 1.261 . S
C79 O74 1.259 . S
C79 O76 1.235 . S
O80 Co70 2.021 . S
O80 C77 1.238 . S
O81 Co75 2.052 . S
O81 C77 1.241 . S
O82 Co70 2.137 . S
O82 C73 1.247 . S
O83 Co70 2.244 . S
O83 C73 1.272 . S
O83 Co75 2.135 . S
Co84 O85 2.216 1_655 S
Co84 O86 2.091 1_655 S
Co84 O88 2.004 . S
Co84 O94 2.021 . S
Co84 O96 2.137 1_655 S
Co84 O97 2.244 . S
O85 Co84 2.216 1_455 S
O85 C92 1.247 . S
O86 Co84 2.091 1_455 S
O86 C92 1.261 . S
C87 O96 1.247 1_655 S
C87 O97 1.272 . S
O88 Co84 2.004 . S
O88 C93 1.259 . S
Co89 O90 2.061 . S
Co89 O95 2.052 . S
Co89 O97 2.135 . S
O90 Co89 2.061 . S
O90 C93 1.235 . S
C91 O94 1.238 . S
C91 O95 1.241 . S
C92 O85 1.247 . S
C92 O86 1.261 . S
C93 O88 1.259 . S
C93 O90 1.235 . S
O94 Co84 2.021 . S
O94 C91 1.238 . S
O95 Co89 2.052 . S
O95 C91 1.241 . S
O96 Co84 2.137 1_455 S
O96 C87 1.247 1_455 S
O97 Co84 2.244 . S
O97 C87 1.272 . S
O97 Co89 2.135 . S
Co98 O99 2.216 1_565 S
Co98 O100 2.091 1_565 S
Co98 O102 2.004 . S
Co98 O108 2.021 . S
Co98 O110 2.137 1_565 S
Co98 O111 2.244 . S
O99 Co98 2.216 1_545 S
O99 C106 1.247 . S
O100 Co98 2.091 1_545 S
O100 C106 1.261 . S
C101 O110 1.247 1_565 S
C101 O111 1.272 . S
O102 Co98 2.004 . S
O102 C107 1.259 . S
Co103 O104 2.061 . S
Co103 O109 2.052 . S
Co103 O111 2.135 . S
O104 Co103 2.061 . S
O104 C107 1.235 . S
C105 O108 1.238 . S
C105 O109 1.241 . S
C106 O99 1.247 . S
C106 O100 1.261 . S
C107 O102 1.259 . S
C107 O104 1.235 . S
O108 Co98 2.021 . S
O108 C105 1.238 . S
O109 Co103 2.052 . S
O109 C105 1.241 . S
O110 Co98 2.137 1_545 S
O110 C101 1.247 1_545 S
O111 Co98 2.244 . S
O111 C101 1.272 . S
O111 Co103 2.135 . S
Co112 O113 2.216 . S
Co112 O114 2.091 . S
Co112 O116 2.004 . S
Co112 O122 2.021 . S
Co112 O124 2.137 . S
Co112 O125 2.244 . S
O113 Co112 2.216 . S
O113 C120 1.247 . S
O114 Co112 2.091 . S
O114 C120 1.261 . S
C115 O124 1.247 . S
C115 O125 1.272 . S
O116 Co112 2.004 . S
O116 C121 1.259 . S
Co117 O118 2.061 . S
Co117 O123 2.052 . S
Co117 O125 2.135 . S
O118 Co117 2.061 . S
O118 C121 1.235 . S
C119 O122 1.238 . S
C119 O123 1.241 . S
C120 O113 1.247 . S
C120 O114 1.261 . S
C121 O116 1.259 . S
C121 O118 1.235 . S
O122 Co112 2.021 . S
O122 C119 1.238 . S
O123 Co117 2.052 . S
O123 C119 1.241 . S
O124 Co112 2.137 . S
O124 C115 1.247 . S
O125 Co112 2.244 . S
O125 C115 1.272 . S
O125 Co117 2.135 . S
Co126 O127 2.216 . S
Co126 O128 2.091 . S
Co126 O130 2.004 . S
Co126 O136 2.021 . S
Co126 O138 2.137 . S
Co126 O139 2.244 . S
O127 Co126 2.216 . S
O127 C134 1.247 . S
O128 Co126 2.091 . S
O128 C134 1.261 . S
C129 O138 1.247 . S
C129 O139 1.272 . S
O130 Co126 2.004 . S
O130 C135 1.259 . S
Co131 O132 2.061 . S
Co131 O137 2.052 . S
Co131 O139 2.135 . S
O132 Co131 2.061 . S
O132 C135 1.235 . S
C133 O136 1.238 . S
C133 O137 1.241 . S
C134 O127 1.247 . S
C134 O128 1.261 . S
C135 O130 1.259 . S
C135 O132 1.235 . S
O136 Co126 2.021 . S
O136 C133 1.238 . S
O137 Co131 2.052 . S
O137 C133 1.241 . S
O138 Co126 2.137 . S
O138 C129 1.247 . S
O139 Co126 2.244 . S
O139 C129 1.272 . S
O139 Co131 2.135 . S
Co140 O141 2.216 1_455 S
Co140 O142 2.091 1_455 S
Co140 O144 2.004 . S
Co140 O150 2.021 . S
Co140 O152 2.137 1_455 S
Co140 O153 2.244 . S
O141 Co140 2.216 1_655 S
O141 C148 1.247 . S
O142 Co140 2.091 1_655 S
O142 C148 1.261 . S
C143 O152 1.247 1_455 S
C143 O153 1.272 . S
O144 Co140 2.004 . S
O144 C149 1.259 . S
Co145 O146 2.061 . S
Co145 O151 2.052 . S
Co145 O153 2.135 . S
O146 Co145 2.061 . S
O146 C149 1.235 . S
C147 O150 1.238 . S
C147 O151 1.241 . S
C148 O141 1.247 . S
C148 O142 1.261 . S
C149 O144 1.259 . S
C149 O146 1.235 . S
O150 Co140 2.021 . S
O150 C147 1.238 . S
O151 Co145 2.052 . S
O151 C147 1.241 . S
O152 Co140 2.137 1_655 S
O152 C143 1.247 1_655 S
O153 Co140 2.244 . S
O153 C143 1.272 . S
O153 Co145 2.135 . S
Co154 O155 2.216 1_545 S
Co154 O156 2.091 1_545 S
Co154 O158 2.004 . S
Co154 O164 2.021 . S
Co154 O166 2.137 1_545 S
Co154 O167 2.244 . S
O155 Co154 2.216 1_565 S
O155 C162 1.247 . S
O156 Co154 2.091 1_565 S
O156 C162 1.261 . S
C157 O166 1.247 1_545 S
C157 O167 1.272 . S
O158 Co154 2.004 . S
O158 C163 1.259 . S
Co159 O160 2.061 . S
Co159 O165 2.052 . S
Co159 O167 2.135 . S
O160 Co159 2.061 . S
O160 C163 1.235 . S
C161 O164 1.238 . S
C161 O165 1.241 . S
C162 O155 1.247 . S
C162 O156 1.261 . S
C163 O158 1.259 . S
C163 O160 1.235 . S
O164 Co154 2.021 . S
O164 C161 1.238 . S
O165 Co159 2.052 . S
O165 C161 1.241 . S
O166 Co154 2.137 1_565 S
O166 C157 1.247 1_565 S
O167 Co154 2.244 . S
O167 C157 1.272 . S
O167 Co159 2.135 . S
Co168 O169 2.216 . S
Co168 O170 2.091 . S
Co168 O172 2.004 . S
Co168 O178 2.021 . S
Co168 O180 2.137 . S
Co168 O181 2.244 . S
O169 Co168 2.216 . S
O169 C176 1.247 . S
O170 Co168 2.091 . S
O170 C176 1.261 . S
C171 O180 1.247 . S
C171 O181 1.272 . S
O172 Co168 2.004 . S
O172 C177 1.259 . S
Co173 O174 2.061 . S
Co173 O179 2.052 . S
Co173 O181 2.135 . S
O174 Co173 2.061 . S
O174 C177 1.235 . S
C175 O178 1.238 . S
C175 O179 1.241 . S
C176 O169 1.247 . S
C176 O170 1.261 . S
C177 O172 1.259 . S
C177 O174 1.235 . S
O178 Co168 2.021 . S
O178 C175 1.238 . S
O179 Co173 2.052 . S
O179 C175 1.241 . S
O180 Co168 2.137 . S
O180 C171 1.247 . S
O181 Co168 2.244 . S
O181 C171 1.272 . S
O181 Co173 2.135 . S
Co182 O183 2.216 . S
Co182 O184 2.091 . S
Co182 O186 2.004 . S
Co182 O192 2.021 . S
Co182 O194 2.137 . S
Co182 O195 2.244 . S
O183 Co182 2.216 . S
O183 C190 1.247 . S
O184 Co182 2.091 . S
O184 C190 1.261 . S
C185 O194 1.247 . S
C185 O195 1.272 . S
O186 Co182 2.004 . S
O186 C191 1.259 . S
Co187 O188 2.061 . S
Co187 O193 2.052 . S
Co187 O195 2.135 . S
O188 Co187 2.061 . S
O188 C191 1.235 . S
C189 O192 1.238 . S
C189 O193 1.241 . S
C190 O183 1.247 . S
C190 O184 1.261 . S
C191 O186 1.259 . S
C191 O188 1.235 . S
O192 Co182 2.021 . S
O192 C189 1.238 . S
O193 Co187 2.052 . S
O193 C189 1.241 . S
O194 Co182 2.137 . S
O194 C185 1.247 . S
O195 Co182 2.244 . S
O195 C185 1.272 . S
O195 Co187 2.135 . S
Co196 O197 2.216 1_455 S
Co196 O198 2.091 1_455 S
Co196 O200 2.004 . S
Co196 O206 2.021 . S
Co196 O208 2.137 1_455 S
Co196 O209 2.244 . S
O197 Co196 2.216 1_655 S
O197 C204 1.247 . S
O198 Co196 2.091 1_655 S
O198 C204 1.261 . S
C199 O208 1.247 1_455 S
C199 O209 1.272 . S
O200 Co196 2.004 . S
O200 C205 1.259 . S
Co201 O202 2.061 . S
Co201 O207 2.052 . S
Co201 O209 2.135 . S
O202 Co201 2.061 . S
O202 C205 1.235 . S
C203 O206 1.238 . S
C203 O207 1.241 . S
C204 O197 1.247 . S
C204 O198 1.261 . S
C205 O200 1.259 . S
C205 O202 1.235 . S
O206 Co196 2.021 . S
O206 C203 1.238 . S
O207 Co201 2.052 . S
O207 C203 1.241 . S
O208 Co196 2.137 1_655 S
O208 C199 1.247 1_655 S
O209 Co196 2.244 . S
O209 C199 1.272 . S
O209 Co201 2.135 . S
Co210 O211 2.216 1_545 S
Co210 O212 2.091 1_545 S
Co210 O214 2.004 . S
Co210 O220 2.021 . S
Co210 O222 2.137 1_545 S
Co210 O223 2.244 . S
O211 Co210 2.216 1_565 S
O211 C218 1.247 . S
O212 Co210 2.091 1_565 S
O212 C218 1.261 . S
C213 O222 1.247 1_545 S
C213 O223 1.272 . S
O214 Co210 2.004 . S
O214 C219 1.259 . S
Co215 O216 2.061 . S
Co215 O221 2.052 . S
Co215 O223 2.135 . S
O216 Co215 2.061 . S
O216 C219 1.235 . S
C217 O220 1.238 . S
C217 O221 1.241 . S
C218 O211 1.247 . S
C218 O212 1.261 . S
C219 O214 1.259 . S
C219 O216 1.235 . S
O220 Co210 2.021 . S
O220 C217 1.238 . S
O221 Co215 2.052 . S
O221 C217 1.241 . S
O222 Co210 2.137 1_565 S
O222 C213 1.247 1_565 S
O223 Co210 2.244 . S
O223 C213 1.272 . S
O223 Co215 2.135 . S
H224 C232 0.929 . S
H225 C234 0.930 . S
H226 C236 0.930 . S
H227 C239 0.929 . S
H228 C242 0.930 . S
H229 C244 0.960 . S
H230 C244 0.960 . S
H231 C244 0.960 . S
C232 H224 0.929 . S
C232 C233 1.377 . S
C232 C234 1.384 . S
C233 C232 1.377 . S
C233 C239 1.390 . S
C234 H225 0.930 . S
C234 C232 1.384 . S
C234 C235 1.372 . S
C235 C234 1.372 . S
C235 C236 1.400 . S
C235 C240 1.490 . S
C236 H226 0.930 . S
C236 C235 1.400 . S
C236 C239 1.386 . S
H237 C253 0.930 . S
H238 C254 0.931 . S
C239 H227 0.929 . S
C239 C233 1.390 . S
C239 C236 1.386 . S
C240 C235 1.490 . S
C240 C242 1.395 . S
C240 C243 1.403 . S
H241 C247 0.930 . S
C242 H228 0.930 . S
C242 C240 1.395 . S
C242 C245 1.403 . S
C243 C240 1.403 . S
C243 C244 1.524 . S
C243 C247 1.400 . S
C244 H229 0.960 . S
C244 H230 0.960 . S
C244 H231 0.960 . S
C244 C243 1.524 . S
C245 C242 1.403 . S
C245 C246 1.392 . S
C245 C249 1.495 . S
C246 C245 1.392 . S
C246 C247 1.385 . S
C246 C248 1.478 . S
C247 H241 0.930 . S
C247 C243 1.400 . S
C247 C246 1.385 . S
C248 C246 1.478 . S
C248 C250 1.381 . S
C248 C254 1.383 . S
C249 C245 1.495 . S
C249 H255 0.959 . S
C249 H256 0.961 . S
C249 H257 0.960 . S
C250 C248 1.381 . S
C250 C251 1.394 . S
C250 H258 0.930 . S
C251 C250 1.394 . S
C251 C252 1.383 . S
C251 H259 0.929 . S
C252 C251 1.383 . S
C252 C253 1.377 . S
C253 H237 0.930 . S
C253 C252 1.377 . S
C253 C254 1.379 . S
C254 H238 0.931 . S
C254 C248 1.383 . S
C254 C253 1.379 . S
H255 C249 0.959 . S
H256 C249 0.961 . S
H257 C249 0.960 . S
H258 C250 0.930 . S
H259 C251 0.929 . S
H260 C268 0.929 . S
H261 C270 0.930 . S
H262 C272 0.930 . S
H263 C275 0.929 . S
H264 C278 0.930 . S
H265 C280 0.960 . S
H266 C280 0.960 . S
H267 C280 0.960 . S
C268 H260 0.929 . S
C268 C269 1.377 . S
C268 C270 1.384 . S
C269 C268 1.377 . S
C269 C275 1.390 . S
C270 H261 0.930 . S
C270 C268 1.384 . S
C270 C271 1.372 . S
C271 C270 1.372 . S
C271 C272 1.400 . S
C271 C276 1.490 . S
C272 H262 0.930 . S
C272 C271 1.400 . S
C272 C275 1.386 . S
H273 C289 0.930 . S
H274 C290 0.931 . S
C275 H263 0.929 . S
C275 C269 1.390 . S
C275 C272 1.386 . S
C276 C271 1.490 . S
C276 C278 1.395 . S
C276 C279 1.403 . S
H277 C283 0.930 . S
C278 H264 0.930 . S
C278 C276 1.395 . S
C278 C281 1.403 . S
C279 C276 1.403 . S
C279 C280 1.524 . S
C279 C283 1.400 . S
C280 H265 0.960 . S
C280 H266 0.960 . S
C280 H267 0.960 . S
C280 C279 1.524 . S
C281 C278 1.403 . S
C281 C282 1.392 . S
C281 C285 1.495 . S
C282 C281 1.392 . S
C282 C283 1.385 . S
C282 C284 1.478 . S
C283 H277 0.930 . S
C283 C279 1.400 . S
C283 C282 1.385 . S
C284 C282 1.478 . S
C284 C286 1.381 . S
C284 C290 1.383 . S
C285 C281 1.495 . S
C285 H291 0.959 . S
C285 H292 0.961 . S
C285 H293 0.960 . S
C286 C284 1.381 . S
C286 C287 1.394 . S
C286 H294 0.930 . S
C287 C286 1.394 . S
C287 C288 1.383 . S
C287 H295 0.929 . S
C288 C287 1.383 . S
C288 C289 1.377 . S
C289 H273 0.930 . S
C289 C288 1.377 . S
C289 C290 1.379 . S
C290 H274 0.931 . S
C290 C284 1.383 . S
C290 C289 1.379 . S
H291 C285 0.959 . S
H292 C285 0.961 . S
H293 C285 0.960 . S
H294 C286 0.930 . S
H295 C287 0.929 . S
H296 C304 0.929 . S
H297 C306 0.930 . S
H298 C308 0.930 . S
H299 C311 0.929 . S
H300 C314 0.930 . S
H301 C316 0.960 . S
H302 C316 0.960 . S
H303 C316 0.960 . S
C304 H296 0.929 . S
C304 C305 1.377 . S
C304 C306 1.384 . S
C305 C304 1.377 . S
C305 C311 1.390 . S
C306 H297 0.930 . S
C306 C304 1.384 . S
C306 C307 1.372 . S
C307 C306 1.372 . S
C307 C308 1.400 . S
C307 C312 1.490 . S
C308 H298 0.930 . S
C308 C307 1.400 . S
C308 C311 1.386 . S
H309 C325 0.930 . S
H310 C326 0.931 . S
C311 H299 0.929 . S
C311 C305 1.390 . S
C311 C308 1.386 . S
C312 C307 1.490 . S
C312 C314 1.395 . S
C312 C315 1.403 . S
H313 C319 0.930 . S
C314 H300 0.930 . S
C314 C312 1.395 . S
C314 C317 1.403 . S
C315 C312 1.403 . S
C315 C316 1.524 . S
C315 C319 1.400 . S
C316 H301 0.960 . S
C316 H302 0.960 . S
C316 H303 0.960 . S
C316 C315 1.524 . S
C317 C314 1.403 . S
C317 C318 1.392 . S
C317 C321 1.495 . S
C318 C317 1.392 . S
C318 C319 1.385 . S
C318 C320 1.478 . S
C319 H313 0.930 . S
C319 C315 1.400 . S
C319 C318 1.385 . S
C320 C318 1.478 . S
C320 C322 1.381 . S
C320 C326 1.383 . S
C321 C317 1.495 . S
C321 H327 0.959 . S
C321 H328 0.961 . S
C321 H329 0.960 . S
C322 C320 1.381 . S
C322 C323 1.394 . S
C322 H330 0.930 . S
C323 C322 1.394 . S
C323 C324 1.383 . S
C323 H331 0.929 . S
C324 C323 1.383 . S
C324 C325 1.377 . S
C325 H309 0.930 . S
C325 C324 1.377 . S
C325 C326 1.379 . S
C326 H310 0.931 . S
C326 C320 1.383 . S
C326 C325 1.379 . S
H327 C321 0.959 . S
H328 C321 0.961 . S
H329 C321 0.960 . S
H330 C322 0.930 . S
H331 C323 0.929 . S
H332 C340 0.929 . S
H333 C342 0.930 . S
H334 C344 0.930 . S
H335 C347 0.929 . S
H336 C350 0.930 . S
H337 C352 0.960 . S
H338 C352 0.960 . S
H339 C352 0.960 . S
C340 H332 0.929 . S
C340 C341 1.377 . S
C340 C342 1.384 . S
C341 C340 1.377 . S
C341 C347 1.390 . S
C342 H333 0.930 . S
C342 C340 1.384 . S
C342 C343 1.372 . S
C343 C342 1.372 . S
C343 C344 1.400 . S
C343 C348 1.490 . S
C344 H334 0.930 . S
C344 C343 1.400 . S
C344 C347 1.386 . S
H345 C361 0.930 . S
H346 C362 0.931 . S
C347 H335 0.929 . S
C347 C341 1.390 . S
C347 C344 1.386 . S
C348 C343 1.490 . S
C348 C350 1.395 . S
C348 C351 1.403 . S
H349 C355 0.930 . S
C350 H336 0.930 . S
C350 C348 1.395 . S
C350 C353 1.403 . S
C351 C348 1.403 . S
C351 C352 1.524 . S
C351 C355 1.400 . S
C352 H337 0.960 . S
C352 H338 0.960 . S
C352 H339 0.960 . S
C352 C351 1.524 . S
C353 C350 1.403 . S
C353 C354 1.392 . S
C353 C357 1.495 . S
C354 C353 1.392 . S
C354 C355 1.385 . S
C354 C356 1.478 . S
C355 H349 0.930 . S
C355 C351 1.400 . S
C355 C354 1.385 . S
C356 C354 1.478 . S
C356 C358 1.381 . S
C356 C362 1.383 . S
C357 C353 1.495 . S
C357 H363 0.959 . S
C357 H364 0.961 . S
C357 H365 0.960 . S
C358 C356 1.381 . S
C358 C359 1.394 . S
C358 H366 0.930 . S
C359 C358 1.394 . S
C359 C360 1.383 . S
C359 H367 0.929 . S
C360 C359 1.383 . S
C360 C361 1.377 . S
C361 H345 0.930 . S
C361 C360 1.377 . S
C361 C362 1.379 . S
C362 H346 0.931 . S
C362 C356 1.383 . S
C362 C361 1.379 . S
H363 C357 0.959 . S
H364 C357 0.961 . S
H365 C357 0.960 . S
H366 C358 0.930 . S
H367 C359 0.929 . S
H368 C376 0.929 . S
H369 C378 0.930 . S
H370 C380 0.930 . S
H371 C383 0.929 . S
H372 C386 0.930 . S
H373 C388 0.960 . S
H374 C388 0.960 . S
H375 C388 0.960 . S
C376 H368 0.929 . S
C376 C377 1.377 . S
C376 C378 1.384 . S
C377 C376 1.377 . S
C377 C383 1.390 . S
C378 H369 0.930 . S
C378 C376 1.384 . S
C378 C379 1.372 . S
C379 C378 1.372 . S
C379 C380 1.400 . S
C379 C384 1.490 . S
C380 H370 0.930 . S
C380 C379 1.400 . S
C380 C383 1.386 . S
H381 C397 0.930 . S
H382 C398 0.931 . S
C383 H371 0.929 . S
C383 C377 1.390 . S
C383 C380 1.386 . S
C384 C379 1.490 . S
C384 C386 1.395 . S
C384 C387 1.403 . S
H385 C391 0.930 . S
C386 H372 0.930 . S
C386 C384 1.395 . S
C386 C389 1.403 . S
C387 C384 1.403 . S
C387 C388 1.524 . S
C387 C391 1.400 . S
C388 H373 0.960 . S
C388 H374 0.960 . S
C388 H375 0.960 . S
C388 C387 1.524 . S
C389 C386 1.403 . S
C389 C390 1.392 . S
C389 C393 1.495 . S
C390 C389 1.392 . S
C390 C391 1.385 . S
C390 C392 1.478 . S
C391 H385 0.930 . S
C391 C387 1.400 . S
C391 C390 1.385 . S
C392 C390 1.478 . S
C392 C394 1.381 . S
C392 C398 1.383 . S
C393 C389 1.495 . S
C393 H399 0.959 . S
C393 H400 0.961 . S
C393 H401 0.960 . S
C394 C392 1.381 . S
C394 C395 1.394 . S
C394 H402 0.930 . S
C395 C394 1.394 . S
C395 C396 1.383 . S
C395 H403 0.929 . S
C396 C395 1.383 . S
C396 C397 1.377 . S
C397 H381 0.930 . S
C397 C396 1.377 . S
C397 C398 1.379 . S
C398 H382 0.931 . S
C398 C392 1.383 . S
C398 C397 1.379 . S
H399 C393 0.959 . S
H400 C393 0.961 . S
H401 C393 0.960 . S
H402 C394 0.930 . S
H403 C395 0.929 . S
H404 C412 0.929 . S
H405 C414 0.930 . S
H406 C416 0.930 . S
H407 C419 0.929 . S
H408 C422 0.930 . S
H409 C424 0.960 . S
H410 C424 0.960 . S
H411 C424 0.960 . S
C412 H404 0.929 . S
C412 C413 1.377 . S
C412 C414 1.384 . S
C413 C412 1.377 . S
C413 C419 1.390 . S
C414 H405 0.930 . S
C414 C412 1.384 . S
C414 C415 1.372 . S
C415 C414 1.372 . S
C415 C416 1.400 . S
C415 C420 1.490 . S
C416 H406 0.930 . S
C416 C415 1.400 . S
C416 C419 1.386 . S
H417 C433 0.930 . S
H418 C434 0.931 . S
C419 H407 0.929 . S
C419 C413 1.390 . S
C419 C416 1.386 . S
C420 C415 1.490 . S
C420 C422 1.395 . S
C420 C423 1.403 . S
H421 C427 0.930 . S
C422 H408 0.930 . S
C422 C420 1.395 . S
C422 C425 1.403 . S
C423 C420 1.403 . S
C423 C424 1.524 . S
C423 C427 1.400 . S
C424 H409 0.960 . S
C424 H410 0.960 . S
C424 H411 0.960 . S
C424 C423 1.524 . S
C425 C422 1.403 . S
C425 C426 1.392 . S
C425 C429 1.495 . S
C426 C425 1.392 . S
C426 C427 1.385 . S
C426 C428 1.478 . S
C427 H421 0.930 . S
C427 C423 1.400 . S
C427 C426 1.385 . S
C428 C426 1.478 . S
C428 C430 1.381 . S
C428 C434 1.383 . S
C429 C425 1.495 . S
C429 H435 0.959 . S
C429 H436 0.961 . S
C429 H437 0.960 . S
C430 C428 1.381 . S
C430 C431 1.394 . S
C430 H438 0.930 . S
C431 C430 1.394 . S
C431 C432 1.383 . S
C431 H439 0.929 . S
C432 C431 1.383 . S
C432 C433 1.377 . S
C433 H417 0.930 . S
C433 C432 1.377 . S
C433 C434 1.379 . S
C434 H418 0.931 . S
C434 C428 1.383 . S
C434 C433 1.379 . S
H435 C429 0.959 . S
H436 C429 0.961 . S
H437 C429 0.960 . S
H438 C430 0.930 . S
H439 C431 0.929 . S
H440 C448 0.929 . S
H441 C450 0.930 . S
H442 C452 0.930 . S
H443 C455 0.929 . S
H444 C458 0.930 . S
H445 C460 0.960 . S
H446 C460 0.960 . S
H447 C460 0.960 . S
C448 H440 0.929 . S
C448 C449 1.377 . S
C448 C450 1.384 . S
C449 C448 1.377 . S
C449 C455 1.390 . S
C450 H441 0.930 . S
C450 C448 1.384 . S
C450 C451 1.372 . S
C451 C450 1.372 . S
C451 C452 1.400 . S
C451 C456 1.490 . S
C452 H442 0.930 . S
C452 C451 1.400 . S
C452 C455 1.386 . S
H453 C469 0.930 . S
H454 C470 0.931 . S
C455 H443 0.929 . S
C455 C449 1.390 . S
C455 C452 1.386 . S
C456 C451 1.490 . S
C456 C458 1.395 . S
C456 C459 1.403 . S
H457 C463 0.930 . S
C458 H444 0.930 . S
C458 C456 1.395 . S
C458 C461 1.403 . S
C459 C456 1.403 . S
C459 C460 1.524 . S
C459 C463 1.400 . S
C460 H445 0.960 . S
C460 H446 0.960 . S
C460 H447 0.960 . S
C460 C459 1.524 . S
C461 C458 1.403 . S
C461 C462 1.392 . S
C461 C465 1.495 . S
C462 C461 1.392 . S
C462 C463 1.385 . S
C462 C464 1.478 . S
C463 H457 0.930 . S
C463 C459 1.400 . S
C463 C462 1.385 . S
C464 C462 1.478 . S
C464 C466 1.381 . S
C464 C470 1.383 . S
C465 C461 1.495 . S
C465 H471 0.959 . S
C465 H472 0.961 . S
C465 H473 0.960 . S
C466 C464 1.381 . S
C466 C467 1.394 . S
C466 H474 0.930 . S
C467 C466 1.394 . S
C467 C468 1.383 . S
C467 H475 0.929 . S
C468 C467 1.383 . S
C468 C469 1.377 . S
C469 H453 0.930 . S
C469 C468 1.377 . S
C469 C470 1.379 . S
C470 H454 0.931 . S
C470 C464 1.383 . S
C470 C469 1.379 . S
H471 C465 0.959 . S
H472 C465 0.961 . S
H473 C465 0.960 . S
H474 C466 0.930 . S
H475 C467 0.929 . S
H476 C484 0.929 . S
H477 C486 0.930 . S
H478 C488 0.930 . S
H479 C491 0.929 . S
H480 C494 0.930 . S
H481 C496 0.960 . S
H482 C496 0.960 . S
H483 C496 0.960 . S
C484 H476 0.929 . S
C484 C485 1.377 . S
C484 C486 1.384 . S
C485 C484 1.377 . S
C485 C491 1.390 . S
C486 H477 0.930 . S
C486 C484 1.384 . S
C486 C487 1.372 . S
C487 C486 1.372 . S
C487 C488 1.400 . S
C487 C492 1.490 . S
C488 H478 0.930 . S
C488 C487 1.400 . S
C488 C491 1.386 . S
H489 C505 0.930 . S
H490 C506 0.931 . S
C491 H479 0.929 . S
C491 C485 1.390 . S
C491 C488 1.386 . S
C492 C487 1.490 . S
C492 C494 1.395 . S
C492 C495 1.403 . S
H493 C499 0.930 . S
C494 H480 0.930 . S
C494 C492 1.395 . S
C494 C497 1.403 . S
C495 C492 1.403 . S
C495 C496 1.524 . S
C495 C499 1.400 . S
C496 H481 0.960 . S
C496 H482 0.960 . S
C496 H483 0.960 . S
C496 C495 1.524 . S
C497 C494 1.403 . S
C497 C498 1.392 . S
C497 C501 1.495 . S
C498 C497 1.392 . S
C498 C499 1.385 . S
C498 C500 1.478 . S
C499 H493 0.930 . S
C499 C495 1.400 . S
C499 C498 1.385 . S
C500 C498 1.478 . S
C500 C502 1.381 . S
C500 C506 1.383 . S
C501 C497 1.495 . S
C501 H507 0.959 . S
C501 H508 0.961 . S
C501 H509 0.960 . S
C502 C500 1.381 . S
C502 C503 1.394 . S
C502 H510 0.930 . S
C503 C502 1.394 . S
C503 C504 1.383 . S
C503 H511 0.929 . S
C504 C503 1.383 . S
C504 C505 1.377 . S
C505 H489 0.930 . S
C505 C504 1.377 . S
C505 C506 1.379 . S
C506 H490 0.931 . S
C506 C500 1.383 . S
C506 C505 1.379 . S
H507 C501 0.959 . S
H508 C501 0.961 . S
H509 C501 0.960 . S
H510 C502 0.930 . S
H511 C503 0.929 . S
H512 C520 0.929 . S
H513 C522 0.930 . S
H514 C524 0.930 . S
H515 C527 0.929 . S
H516 C530 0.930 . S
H517 C532 0.960 . S
H518 C532 0.960 . S
H519 C532 0.960 . S
C520 H512 0.929 . S
C520 C521 1.377 . S
C520 C522 1.384 . S
C521 C520 1.377 . S
C521 C527 1.390 . S
C522 H513 0.930 . S
C522 C520 1.384 . S
C522 C523 1.372 . S
C523 C522 1.372 . S
C523 C524 1.400 . S
C523 C528 1.490 . S
C524 H514 0.930 . S
C524 C523 1.400 . S
C524 C527 1.386 . S
H525 C541 0.930 . S
H526 C542 0.931 . S
C527 H515 0.929 . S
C527 C521 1.390 . S
C527 C524 1.386 . S
C528 C523 1.490 . S
C528 C530 1.395 . S
C528 C531 1.403 . S
H529 C535 0.930 . S
C530 H516 0.930 . S
C530 C528 1.395 . S
C530 C533 1.403 . S
C531 C528 1.403 . S
C531 C532 1.524 . S
C531 C535 1.400 . S
C532 H517 0.960 . S
C532 H518 0.960 . S
C532 H519 0.960 . S
C532 C531 1.524 . S
C533 C530 1.403 . S
C533 C534 1.392 . S
C533 C537 1.495 . S
C534 C533 1.392 . S
C534 C535 1.385 . S
C534 C536 1.478 . S
C535 H529 0.930 . S
C535 C531 1.400 . S
C535 C534 1.385 . S
C536 C534 1.478 . S
C536 C538 1.381 . S
C536 C542 1.383 . S
C537 C533 1.495 . S
C537 H543 0.959 . S
C537 H544 0.961 . S
C537 H545 0.960 . S
C538 C536 1.381 . S
C538 C539 1.394 . S
C538 H546 0.930 . S
C539 C538 1.394 . S
C539 C540 1.383 . S
C539 H547 0.929 . S
C540 C539 1.383 . S
C540 C541 1.377 . S
C541 H525 0.930 . S
C541 C540 1.377 . S
C541 C542 1.379 . S
C542 H526 0.931 . S
C542 C536 1.383 . S
C542 C541 1.379 . S
H543 C537 0.959 . S
H544 C537 0.961 . S
H545 C537 0.960 . S
H546 C538 0.930 . S
H547 C539 0.929 . S
H548 C556 0.929 . S
H549 C558 0.930 . S
H550 C560 0.930 . S
H551 C563 0.929 . S
H552 C566 0.930 . S
H553 C568 0.960 . S
H554 C568 0.960 . S
H555 C568 0.960 . S
C556 H548 0.929 . S
C556 C557 1.377 . S
C556 C558 1.384 . S
C557 C556 1.377 . S
C557 C563 1.390 . S
C558 H549 0.930 . S
C558 C556 1.384 . S
C558 C559 1.372 . S
C559 C558 1.372 . S
C559 C560 1.400 . S
C559 C564 1.490 . S
C560 H550 0.930 . S
C560 C559 1.400 . S
C560 C563 1.386 . S
H561 C577 0.930 . S
H562 C578 0.931 . S
C563 H551 0.929 . S
C563 C557 1.390 . S
C563 C560 1.386 . S
C564 C559 1.490 . S
C564 C566 1.395 . S
C564 C567 1.403 . S
H565 C571 0.930 . S
C566 H552 0.930 . S
C566 C564 1.395 . S
C566 C569 1.403 . S
C567 C564 1.403 . S
C567 C568 1.524 . S
C567 C571 1.400 . S
C568 H553 0.960 . S
C568 H554 0.960 . S
C568 H555 0.960 . S
C568 C567 1.524 . S
C569 C566 1.403 . S
C569 C570 1.392 . S
C569 C573 1.495 . S
C570 C569 1.392 . S
C570 C571 1.385 . S
C570 C572 1.478 . S
C571 H565 0.930 . S
C571 C567 1.400 . S
C571 C570 1.385 . S
C572 C570 1.478 . S
C572 C574 1.381 . S
C572 C578 1.383 . S
C573 C569 1.495 . S
C573 H579 0.959 . S
C573 H580 0.961 . S
C573 H581 0.960 . S
C574 C572 1.381 . S
C574 C575 1.394 . S
C574 H582 0.930 . S
C575 C574 1.394 . S
C575 C576 1.383 . S
C575 H583 0.929 . S
C576 C575 1.383 . S
C576 C577 1.377 . S
C577 H561 0.930 . S
C577 C576 1.377 . S
C577 C578 1.379 . S
C578 H562 0.931 . S
C578 C572 1.383 . S
C578 C577 1.379 . S
H579 C573 0.959 . S
H580 C573 0.961 . S
H581 C573 0.960 . S
H582 C574 0.930 . S
H583 C575 0.929 . S
H584 C592 0.929 . S
H585 C594 0.930 . S
H586 C596 0.930 . S
H587 C599 0.929 . S
H588 C602 0.930 . S
H589 C604 0.960 . S
H590 C604 0.960 . S
H591 C604 0.960 . S
C592 H584 0.929 . S
C592 C593 1.377 . S
C592 C594 1.384 . S
C593 C592 1.377 . S
C593 C599 1.390 . S
C594 H585 0.930 . S
C594 C592 1.384 . S
C594 C595 1.372 . S
C595 C594 1.372 . S
C595 C596 1.400 . S
C595 C600 1.490 . S
C596 H586 0.930 . S
C596 C595 1.400 . S
C596 C599 1.386 . S
H597 C613 0.930 . S
H598 C614 0.931 . S
C599 H587 0.929 . S
C599 C593 1.390 . S
C599 C596 1.386 . S
C600 C595 1.490 . S
C600 C602 1.395 . S
C600 C603 1.403 . S
H601 C607 0.930 . S
C602 H588 0.930 . S
C602 C600 1.395 . S
C602 C605 1.403 . S
C603 C600 1.403 . S
C603 C604 1.524 . S
C603 C607 1.400 . S
C604 H589 0.960 . S
C604 H590 0.960 . S
C604 H591 0.960 . S
C604 C603 1.524 . S
C605 C602 1.403 . S
C605 C606 1.392 . S
C605 C609 1.495 . S
C606 C605 1.392 . S
C606 C607 1.385 . S
C606 C608 1.478 . S
C607 H601 0.930 . S
C607 C603 1.400 . S
C607 C606 1.385 . S
C608 C606 1.478 . S
C608 C610 1.381 . S
C608 C614 1.383 . S
C609 C605 1.495 . S
C609 H615 0.959 . S
C609 H616 0.961 . S
C609 H617 0.960 . S
C610 C608 1.381 . S
C610 C611 1.394 . S
C610 H618 0.930 . S
C611 C610 1.394 . S
C611 C612 1.383 . S
C611 H619 0.929 . S
C612 C611 1.383 . S
C612 C613 1.377 . S
C613 H597 0.930 . S
C613 C612 1.377 . S
C613 C614 1.379 . S
C614 H598 0.931 . S
C614 C608 1.383 . S
C614 C613 1.379 . S
H615 C609 0.959 . S
H616 C609 0.961 . S
H617 C609 0.960 . S
H618 C610 0.930 . S
H619 C611 0.929 . S
H620 C628 0.929 . S
H621 C630 0.930 . S
H622 C632 0.930 . S
H623 C635 0.929 . S
H624 C638 0.930 . S
H625 C640 0.960 . S
H626 C640 0.960 . S
H627 C640 0.960 . S
C628 H620 0.929 . S
C628 C629 1.377 . S
C628 C630 1.384 . S
C629 C628 1.377 . S
C629 C635 1.390 . S
C630 H621 0.930 . S
C630 C628 1.384 . S
C630 C631 1.372 . S
C631 C630 1.372 . S
C631 C632 1.400 . S
C631 C636 1.490 . S
C632 H622 0.930 . S
C632 C631 1.400 . S
C632 C635 1.386 . S
H633 C649 0.930 . S
H634 C650 0.931 . S
C635 H623 0.929 . S
C635 C629 1.390 . S
C635 C632 1.386 . S
C636 C631 1.490 . S
C636 C638 1.395 . S
C636 C639 1.403 . S
H637 C643 0.930 . S
C638 H624 0.930 . S
C638 C636 1.395 . S
C638 C641 1.403 . S
C639 C636 1.403 . S
C639 C640 1.524 . S
C639 C643 1.400 . S
C640 H625 0.960 . S
C640 H626 0.960 . S
C640 H627 0.960 . S
C640 C639 1.524 . S
C641 C638 1.403 . S
C641 C642 1.392 . S
C641 C645 1.495 . S
C642 C641 1.392 . S
C642 C643 1.385 . S
C642 C644 1.478 . S
C643 H637 0.930 . S
C643 C639 1.400 . S
C643 C642 1.385 . S
C644 C642 1.478 . S
C644 C646 1.381 . S
C644 C650 1.383 . S
C645 C641 1.495 . S
C645 H651 0.959 . S
C645 H652 0.961 . S
C645 H653 0.960 . S
C646 C644 1.381 . S
C646 C647 1.394 . S
C646 H654 0.930 . S
C647 C646 1.394 . S
C647 C648 1.383 . S
C647 H655 0.929 . S
C648 C647 1.383 . S
C648 C649 1.377 . S
C649 H633 0.930 . S
C649 C648 1.377 . S
C649 C650 1.379 . S
C650 H634 0.931 . S
C650 C644 1.383 . S
C650 C649 1.379 . S
H651 C645 0.959 . S
H652 C645 0.961 . S
H653 C645 0.960 . S
H654 C646 0.930 . S
H655 C647 0.929 . S
H656 C664 0.929 . S
H657 C666 0.930 . S
H658 C668 0.930 . S
H659 C671 0.929 . S
H660 C674 0.930 . S
H661 C676 0.960 . S
H662 C676 0.960 . S
H663 C676 0.960 . S
C664 H656 0.929 . S
C664 C665 1.377 . S
C664 C666 1.384 . S
C665 C664 1.377 . S
C665 C671 1.390 . S
C666 H657 0.930 . S
C666 C664 1.384 . S
C666 C667 1.372 . S
C667 C666 1.372 . S
C667 C668 1.400 . S
C667 C672 1.490 . S
C668 H658 0.930 . S
C668 C667 1.400 . S
C668 C671 1.386 . S
H669 C685 0.930 . S
H670 C686 0.931 . S
C671 H659 0.929 . S
C671 C665 1.390 . S
C671 C668 1.386 . S
C672 C667 1.490 . S
C672 C674 1.395 . S
C672 C675 1.403 . S
H673 C679 0.930 . S
C674 H660 0.930 . S
C674 C672 1.395 . S
C674 C677 1.403 . S
C675 C672 1.403 . S
C675 C676 1.524 . S
C675 C679 1.400 . S
C676 H661 0.960 . S
C676 H662 0.960 . S
C676 H663 0.960 . S
C676 C675 1.524 . S
C677 C674 1.403 . S
C677 C678 1.392 . S
C677 C681 1.495 . S
C678 C677 1.392 . S
C678 C679 1.385 . S
C678 C680 1.478 . S
C679 H673 0.930 . S
C679 C675 1.400 . S
C679 C678 1.385 . S
C680 C678 1.478 . S
C680 C682 1.381 . S
C680 C686 1.383 . S
C681 C677 1.495 . S
C681 H687 0.959 . S
C681 H688 0.961 . S
C681 H689 0.960 . S
C682 C680 1.381 . S
C682 C683 1.394 . S
C682 H690 0.930 . S
C683 C682 1.394 . S
C683 C684 1.383 . S
C683 H691 0.929 . S
C684 C683 1.383 . S
C684 C685 1.377 . S
C685 H669 0.930 . S
C685 C684 1.377 . S
C685 C686 1.379 . S
C686 H670 0.931 . S
C686 C680 1.383 . S
C686 C685 1.379 . S
H687 C681 0.959 . S
H688 C681 0.961 . S
H689 C681 0.960 . S
H690 C682 0.930 . S
H691 C683 0.929 . S
H692 C700 0.929 . S
H693 C702 0.930 . S
H694 C704 0.930 . S
H695 C707 0.929 . S
H696 C710 0.930 . S
H697 C712 0.960 . S
H698 C712 0.960 . S
H699 C712 0.960 . S
C700 H692 0.929 . S
C700 C701 1.377 . S
C700 C702 1.384 . S
C701 C700 1.377 . S
C701 C707 1.390 . S
C702 H693 0.930 . S
C702 C700 1.384 . S
C702 C703 1.372 . S
C703 C702 1.372 . S
C703 C704 1.400 . S
C703 C708 1.490 . S
C704 H694 0.930 . S
C704 C703 1.400 . S
C704 C707 1.386 . S
H705 C721 0.930 . S
H706 C722 0.931 . S
C707 H695 0.929 . S
C707 C701 1.390 . S
C707 C704 1.386 . S
C708 C703 1.490 . S
C708 C710 1.395 . S
C708 C711 1.403 . S
H709 C715 0.930 . S
C710 H696 0.930 . S
C710 C708 1.395 . S
C710 C713 1.403 . S
C711 C708 1.403 . S
C711 C712 1.524 . S
C711 C715 1.400 . S
C712 H697 0.960 . S
C712 H698 0.960 . S
C712 H699 0.960 . S
C712 C711 1.524 . S
C713 C710 1.403 . S
C713 C714 1.392 . S
C713 C717 1.495 . S
C714 C713 1.392 . S
C714 C715 1.385 . S
C714 C716 1.478 . S
C715 H709 0.930 . S
C715 C711 1.400 . S
C715 C714 1.385 . S
C716 C714 1.478 . S
C716 C718 1.381 . S
C716 C722 1.383 . S
C717 C713 1.495 . S
C717 H723 0.959 . S
C717 H724 0.961 . S
C717 H725 0.960 . S
C718 C716 1.381 . S
C718 C719 1.394 . S
C718 H726 0.930 . S
C719 C718 1.394 . S
C719 C720 1.383 . S
C719 H727 0.929 . S
C720 C719 1.383 . S
C720 C721 1.377 . S
C721 H705 0.930 . S
C721 C720 1.377 . S
C721 C722 1.379 . S
C722 H706 0.931 . S
C722 C716 1.383 . S
C722 C721 1.379 . S
H723 C717 0.959 . S
H724 C717 0.961 . S
H725 C717 0.960 . S
H726 C718 0.930 . S
H727 C719 0.929 . S
H728 C736 0.929 . S
H729 C738 0.930 . S
H730 C740 0.930 . S
H731 C743 0.929 . S
H732 C746 0.930 . S
H733 C748 0.960 . S
H734 C748 0.960 . S
H735 C748 0.960 . S
C736 H728 0.929 . S
C736 C737 1.377 . S
C736 C738 1.384 . S
C737 C736 1.377 . S
C737 C743 1.390 . S
C738 H729 0.930 . S
C738 C736 1.384 . S
C738 C739 1.372 . S
C739 C738 1.372 . S
C739 C740 1.400 . S
C739 C744 1.490 . S
C740 H730 0.930 . S
C740 C739 1.400 . S
C740 C743 1.386 . S
H741 C757 0.930 . S
H742 C758 0.931 . S
C743 H731 0.929 . S
C743 C737 1.390 . S
C743 C740 1.386 . S
C744 C739 1.490 . S
C744 C746 1.395 . S
C744 C747 1.403 . S
H745 C751 0.930 . S
C746 H732 0.930 . S
C746 C744 1.395 . S
C746 C749 1.403 . S
C747 C744 1.403 . S
C747 C748 1.524 . S
C747 C751 1.400 . S
C748 H733 0.960 . S
C748 H734 0.960 . S
C748 H735 0.960 . S
C748 C747 1.524 . S
C749 C746 1.403 . S
C749 C750 1.392 . S
C749 C753 1.495 . S
C750 C749 1.392 . S
C750 C751 1.385 . S
C750 C752 1.478 . S
C751 H745 0.930 . S
C751 C747 1.400 . S
C751 C750 1.385 . S
C752 C750 1.478 . S
C752 C754 1.381 . S
C752 C758 1.383 . S
C753 C749 1.495 . S
C753 H759 0.959 . S
C753 H760 0.961 . S
C753 H761 0.960 . S
C754 C752 1.381 . S
C754 C755 1.394 . S
C754 H762 0.930 . S
C755 C754 1.394 . S
C755 C756 1.383 . S
C755 H763 0.929 . S
C756 C755 1.383 . S
C756 C757 1.377 . S
C757 H741 0.930 . S
C757 C756 1.377 . S
C757 C758 1.379 . S
C758 H742 0.931 . S
C758 C752 1.383 . S
C758 C757 1.379 . S
H759 C753 0.959 . S
H760 C753 0.961 . S
H761 C753 0.960 . S
H762 C754 0.930 . S
H763 C755 0.929 . S
H764 C772 0.929 . S
H765 C774 0.930 . S
H766 C776 0.930 . S
H767 C779 0.929 . S
H768 C782 0.930 . S
H769 C784 0.960 . S
H770 C784 0.960 . S
H771 C784 0.960 . S
C772 H764 0.929 . S
C772 C773 1.377 . S
C772 C774 1.384 . S
C773 C772 1.377 . S
C773 C779 1.390 . S
C774 H765 0.930 . S
C774 C772 1.384 . S
C774 C775 1.372 . S
C775 C774 1.372 . S
C775 C776 1.400 . S
C775 C780 1.490 . S
C776 H766 0.930 . S
C776 C775 1.400 . S
C776 C779 1.386 . S
H777 C793 0.930 . S
H778 C794 0.931 . S
C779 H767 0.929 . S
C779 C773 1.390 . S
C779 C776 1.386 . S
C780 C775 1.490 . S
C780 C782 1.395 . S
C780 C783 1.403 . S
H781 C787 0.930 . S
C782 H768 0.930 . S
C782 C780 1.395 . S
C782 C785 1.403 . S
C783 C780 1.403 . S
C783 C784 1.524 . S
C783 C787 1.400 . S
C784 H769 0.960 . S
C784 H770 0.960 . S
C784 H771 0.960 . S
C784 C783 1.524 . S
C785 C782 1.403 . S
C785 C786 1.392 . S
C785 C789 1.495 . S
C786 C785 1.392 . S
C786 C787 1.385 . S
C786 C788 1.478 . S
C787 H781 0.930 . S
C787 C783 1.400 . S
C787 C786 1.385 . S
C788 C786 1.478 . S
C788 C790 1.381 . S
C788 C794 1.383 . S
C789 C785 1.495 . S
C789 H795 0.959 . S
C789 H796 0.961 . S
C789 H797 0.960 . S
C790 C788 1.381 . S
C790 C791 1.394 . S
C790 H798 0.930 . S
C791 C790 1.394 . S
C791 C792 1.383 . S
C791 H799 0.929 . S
C792 C791 1.383 . S
C792 C793 1.377 . S
C793 H777 0.930 . S
C793 C792 1.377 . S
C793 C794 1.379 . S
C794 H778 0.931 . S
C794 C788 1.383 . S
C794 C793 1.379 . S
H795 C789 0.959 . S
H796 C789 0.961 . S
H797 C789 0.960 . S
H798 C790 0.930 . S
H799 C791 0.929 . S
H800 C808 0.929 . S
H801 C810 0.930 . S
H802 C812 0.930 . S
H803 C815 0.929 . S
H804 C818 0.930 . S
H805 C820 0.960 . S
H806 C820 0.960 . S
H807 C820 0.960 . S
C808 H800 0.929 . S
C808 C809 1.377 . S
C808 C810 1.384 . S
C809 C808 1.377 . S
C809 C815 1.390 . S
C810 H801 0.930 . S
C810 C808 1.384 . S
C810 C811 1.372 . S
C811 C810 1.372 . S
C811 C812 1.400 . S
C811 C816 1.490 . S
C812 H802 0.930 . S
C812 C811 1.400 . S
C812 C815 1.386 . S
H813 C829 0.930 . S
H814 C830 0.931 . S
C815 H803 0.929 . S
C815 C809 1.390 . S
C815 C812 1.386 . S
C816 C811 1.490 . S
C816 C818 1.395 . S
C816 C819 1.403 . S
H817 C823 0.930 . S
C818 H804 0.930 . S
C818 C816 1.395 . S
C818 C821 1.403 . S
C819 C816 1.403 . S
C819 C820 1.524 . S
C819 C823 1.400 . S
C820 H805 0.960 . S
C820 H806 0.960 . S
C820 H807 0.960 . S
C820 C819 1.524 . S
C821 C818 1.403 . S
C821 C822 1.392 . S
C821 C825 1.495 . S
C822 C821 1.392 . S
C822 C823 1.385 . S
C822 C824 1.478 . S
C823 H817 0.930 . S
C823 C819 1.400 . S
C823 C822 1.385 . S
C824 C822 1.478 . S
C824 C826 1.381 . S
C824 C830 1.383 . S
C825 C821 1.495 . S
C825 H831 0.959 . S
C825 H832 0.961 . S
C825 H833 0.960 . S
C826 C824 1.381 . S
C826 C827 1.394 . S
C826 H834 0.930 . S
C827 C826 1.394 . S
C827 C828 1.383 . S
C827 H835 0.929 . S
C828 C827 1.383 . S
C828 C829 1.377 . S
C829 H813 0.930 . S
C829 C828 1.377 . S
C829 C830 1.379 . S
C830 H814 0.931 . S
C830 C824 1.383 . S
C830 C829 1.379 . S
H831 C825 0.959 . S
H832 C825 0.961 . S
H833 C825 0.960 . S
H834 C826 0.930 . S
H835 C827 0.929 . S
H836 C844 0.929 . S
H837 C846 0.930 . S
H838 C848 0.930 . S
H839 C851 0.929 . S
H840 C854 0.930 . S
H841 C856 0.960 . S
H842 C856 0.960 . S
H843 C856 0.960 . S
C844 H836 0.929 . S
C844 C845 1.377 . S
C844 C846 1.384 . S
C845 C844 1.377 . S
C845 C851 1.390 . S
C846 H837 0.930 . S
C846 C844 1.384 . S
C846 C847 1.372 . S
C847 C846 1.372 . S
C847 C848 1.400 . S
C847 C852 1.490 . S
C848 H838 0.930 . S
C848 C847 1.400 . S
C848 C851 1.386 . S
H849 C865 0.930 . S
H850 C866 0.931 . S
C851 H839 0.929 . S
C851 C845 1.390 . S
C851 C848 1.386 . S
C852 C847 1.490 . S
C852 C854 1.395 . S
C852 C855 1.403 . S
H853 C859 0.930 . S
C854 H840 0.930 . S
C854 C852 1.395 . S
C854 C857 1.403 . S
C855 C852 1.403 . S
C855 C856 1.524 . S
C855 C859 1.400 . S
C856 H841 0.960 . S
C856 H842 0.960 . S
C856 H843 0.960 . S
C856 C855 1.524 . S
C857 C854 1.403 . S
C857 C858 1.392 . S
C857 C861 1.495 . S
C858 C857 1.392 . S
C858 C859 1.385 . S
C858 C860 1.478 . S
C859 H853 0.930 . S
C859 C855 1.400 . S
C859 C858 1.385 . S
C860 C858 1.478 . S
C860 C862 1.381 . S
C860 C866 1.383 . S
C861 C857 1.495 . S
C861 H867 0.959 . S
C861 H868 0.961 . S
C861 H869 0.960 . S
C862 C860 1.381 . S
C862 C863 1.394 . S
C862 H870 0.930 . S
C863 C862 1.394 . S
C863 C864 1.383 . S
C863 H871 0.929 . S
C864 C863 1.383 . S
C864 C865 1.377 . S
C865 H849 0.930 . S
C865 C864 1.377 . S
C865 C866 1.379 . S
C866 H850 0.931 . S
C866 C860 1.383 . S
C866 C865 1.379 . S
H867 C861 0.959 . S
H868 C861 0.961 . S
H869 C861 0.960 . S
H870 C862 0.930 . S
H871 C863 0.929 . S
H872 C880 0.929 . S
H873 C882 0.930 . S
H874 C884 0.930 . S
H875 C887 0.929 . S
H876 C890 0.930 . S
H877 C892 0.960 . S
H878 C892 0.960 . S
H879 C892 0.960 . S
C880 H872 0.929 . S
C880 C881 1.377 . S
C880 C882 1.384 . S
C881 C880 1.377 . S
C881 C887 1.390 . S
C882 H873 0.930 . S
C882 C880 1.384 . S
C882 C883 1.372 . S
C883 C882 1.372 . S
C883 C884 1.400 . S
C883 C888 1.490 . S
C884 H874 0.930 . S
C884 C883 1.400 . S
C884 C887 1.386 . S
H885 C901 0.930 . S
H886 C902 0.931 . S
C887 H875 0.929 . S
C887 C881 1.390 . S
C887 C884 1.386 . S
C888 C883 1.490 . S
C888 C890 1.395 . S
C888 C891 1.403 . S
H889 C895 0.930 . S
C890 H876 0.930 . S
C890 C888 1.395 . S
C890 C893 1.403 . S
C891 C888 1.403 . S
C891 C892 1.524 . S
C891 C895 1.400 . S
C892 H877 0.960 . S
C892 H878 0.960 . S
C892 H879 0.960 . S
C892 C891 1.524 . S
C893 C890 1.403 . S
C893 C894 1.392 . S
C893 C897 1.495 . S
C894 C893 1.392 . S
C894 C895 1.385 . S
C894 C896 1.478 . S
C895 H889 0.930 . S
C895 C891 1.400 . S
C895 C894 1.385 . S
C896 C894 1.478 . S
C896 C898 1.381 . S
C896 C902 1.383 . S
C897 C893 1.495 . S
C897 H903 0.959 . S
C897 H904 0.961 . S
C897 H905 0.960 . S
C898 C896 1.381 . S
C898 C899 1.394 . S
C898 H906 0.930 . S
C899 C898 1.394 . S
C899 C900 1.383 . S
C899 H907 0.929 . S
C900 C899 1.383 . S
C900 C901 1.377 . S
C901 H885 0.930 . S
C901 C900 1.377 . S
C901 C902 1.379 . S
C902 H886 0.931 . S
C902 C896 1.383 . S
C902 C901 1.379 . S
H903 C897 0.959 . S
H904 C897 0.961 . S
H905 C897 0.960 . S
H906 C898 0.930 . S
H907 C899 0.929 . S
H908 C916 0.929 . S
H909 C918 0.930 . S
H910 C920 0.930 . S
H911 C923 0.929 . S
H912 C926 0.930 . S
H913 C928 0.960 . S
H914 C928 0.960 . S
H915 C928 0.960 . S
C916 H908 0.929 . S
C916 C917 1.377 . S
C916 C918 1.384 . S
C917 C916 1.377 . S
C917 C923 1.390 . S
C918 H909 0.930 . S
C918 C916 1.384 . S
C918 C919 1.372 . S
C919 C918 1.372 . S
C919 C920 1.400 . S
C919 C924 1.490 . S
C920 H910 0.930 . S
C920 C919 1.400 . S
C920 C923 1.386 . S
H921 C937 0.930 . S
H922 C938 0.931 . S
C923 H911 0.929 . S
C923 C917 1.390 . S
C923 C920 1.386 . S
C924 C919 1.490 . S
C924 C926 1.395 . S
C924 C927 1.403 . S
H925 C931 0.930 . S
C926 H912 0.930 . S
C926 C924 1.395 . S
C926 C929 1.403 . S
C927 C924 1.403 . S
C927 C928 1.524 . S
C927 C931 1.400 . S
C928 H913 0.960 . S
C928 H914 0.960 . S
C928 H915 0.960 . S
C928 C927 1.524 . S
C929 C926 1.403 . S
C929 C930 1.392 . S
C929 C933 1.495 . S
C930 C929 1.392 . S
C930 C931 1.385 . S
C930 C932 1.478 . S
C931 H925 0.930 . S
C931 C927 1.400 . S
C931 C930 1.385 . S
C932 C930 1.478 . S
C932 C934 1.381 . S
C932 C938 1.383 . S
C933 C929 1.495 . S
C933 H939 0.959 . S
C933 H940 0.961 . S
C933 H941 0.960 . S
C934 C932 1.381 . S
C934 C935 1.394 . S
C934 H942 0.930 . S
C935 C934 1.394 . S
C935 C936 1.383 . S
C935 H943 0.929 . S
C936 C935 1.383 . S
C936 C937 1.377 . S
C937 H921 0.930 . S
C937 C936 1.377 . S
C937 C938 1.379 . S
C938 H922 0.931 . S
C938 C932 1.383 . S
C938 C937 1.379 . S
H939 C933 0.959 . S
H940 C933 0.961 . S
H941 C933 0.960 . S
H942 C934 0.930 . S
H943 C935 0.929 . S
H944 C952 0.929 . S
H945 C954 0.930 . S
H946 C956 0.930 . S
H947 C959 0.929 . S
H948 C962 0.930 . S
H949 C964 0.960 . S
H950 C964 0.960 . S
H951 C964 0.960 . S
C952 H944 0.929 . S
C952 C953 1.377 . S
C952 C954 1.384 . S
C953 C952 1.377 . S
C953 C959 1.390 . S
C954 H945 0.930 . S
C954 C952 1.384 . S
C954 C955 1.372 . S
C955 C954 1.372 . S
C955 C956 1.400 . S
C955 C960 1.490 . S
C956 H946 0.930 . S
C956 C955 1.400 . S
C956 C959 1.386 . S
H957 C973 0.930 . S
H958 C974 0.931 . S
C959 H947 0.929 . S
C959 C953 1.390 . S
C959 C956 1.386 . S
C960 C955 1.490 . S
C960 C962 1.395 . S
C960 C963 1.403 . S
H961 C967 0.930 . S
C962 H948 0.930 . S
C962 C960 1.395 . S
C962 C965 1.403 . S
C963 C960 1.403 . S
C963 C964 1.524 . S
C963 C967 1.400 . S
C964 H949 0.960 . S
C964 H950 0.960 . S
C964 H951 0.960 . S
C964 C963 1.524 . S
C965 C962 1.403 . S
C965 C966 1.392 . S
C965 C969 1.495 . S
C966 C965 1.392 . S
C966 C967 1.385 . S
C966 C968 1.478 . S
C967 H961 0.930 . S
C967 C963 1.400 . S
C967 C966 1.385 . S
C968 C966 1.478 . S
C968 C970 1.381 . S
C968 C974 1.383 . S
C969 C965 1.495 . S
C969 H975 0.959 . S
C969 H976 0.961 . S
C969 H977 0.960 . S
C970 C968 1.381 . S
C970 C971 1.394 . S
C970 H978 0.930 . S
C971 C970 1.394 . S
C971 C972 1.383 . S
C971 H979 0.929 . S
C972 C971 1.383 . S
C972 C973 1.377 . S
C973 H957 0.930 . S
C973 C972 1.377 . S
C973 C974 1.379 . S
C974 H958 0.931 . S
C974 C968 1.383 . S
C974 C973 1.379 . S
H975 C969 0.959 . S
H976 C969 0.961 . S
H977 C969 0.960 . S
H978 C970 0.930 . S
H979 C971 0.929 . S
H980 C988 0.929 . S
H981 C990 0.930 . S
H982 C992 0.930 . S
H983 C995 0.929 . S
H984 C998 0.930 . S
H985 C1000 0.960 . S
H986 C1000 0.960 . S
H987 C1000 0.960 . S
C988 H980 0.929 . S
C988 C989 1.377 . S
C988 C990 1.384 . S
C989 C988 1.377 . S
C989 C995 1.390 . S
C990 H981 0.930 . S
C990 C988 1.384 . S
C990 C991 1.372 . S
C991 C990 1.372 . S
C991 C992 1.400 . S
C991 C996 1.490 . S
C992 H982 0.930 . S
C992 C991 1.400 . S
C992 C995 1.386 . S
H993 C1009 0.930 . S
H994 C1010 0.931 . S
C995 H983 0.929 . S
C995 C989 1.390 . S
C995 C992 1.386 . S
C996 C991 1.490 . S
C996 C998 1.395 . S
C996 C999 1.403 . S
H997 C1003 0.930 . S
C998 H984 0.930 . S
C998 C996 1.395 . S
C998 C1001 1.403 . S
C999 C996 1.403 . S
C999 C1000 1.524 . S
C999 C1003 1.400 . S
C1000 H985 0.960 . S
C1000 H986 0.960 . S
C1000 H987 0.960 . S
C1000 C999 1.524 . S
C1001 C998 1.403 . S
C1001 C1002 1.392 . S
C1001 C1005 1.495 . S
C1002 C1001 1.392 . S
C1002 C1003 1.385 . S
C1002 C1004 1.478 . S
C1003 H997 0.930 . S
C1003 C999 1.400 . S
C1003 C1002 1.385 . S
C1004 C1002 1.478 . S
C1004 C1006 1.381 . S
C1004 C1010 1.383 . S
C1005 C1001 1.495 . S
C1005 H1011 0.959 . S
C1005 H1012 0.961 . S
C1005 H1013 0.960 . S
C1006 C1004 1.381 . S
C1006 C1007 1.394 . S
C1006 H1014 0.930 . S
C1007 C1006 1.394 . S
C1007 C1008 1.383 . S
C1007 H1015 0.929 . S
C1008 C1007 1.383 . S
C1008 C1009 1.377 . S
C1009 H993 0.930 . S
C1009 C1008 1.377 . S
C1009 C1010 1.379 . S
C1010 H994 0.931 . S
C1010 C1004 1.383 . S
C1010 C1009 1.379 . S
H1011 C1005 0.959 . S
H1012 C1005 0.961 . S
H1013 C1005 0.960 . S
H1014 C1006 0.930 . S
H1015 C1007 0.929 . S
H1016 C1024 0.929 . S
H1017 C1026 0.930 . S
H1018 C1028 0.930 . S
H1019 C1031 0.929 . S
H1020 C1034 0.930 . S
H1021 C1036 0.960 . S
H1022 C1036 0.960 . S
H1023 C1036 0.960 . S
C1024 H1016 0.929 . S
C1024 C1025 1.377 . S
C1024 C1026 1.384 . S
C1025 C1024 1.377 . S
C1025 C1031 1.390 . S
C1026 H1017 0.930 . S
C1026 C1024 1.384 . S
C1026 C1027 1.372 . S
C1027 C1026 1.372 . S
C1027 C1028 1.400 . S
C1027 C1032 1.490 . S
C1028 H1018 0.930 . S
C1028 C1027 1.400 . S
C1028 C1031 1.386 . S
H1029 C1045 0.930 . S
H1030 C1046 0.931 . S
C1031 H1019 0.929 . S
C1031 C1025 1.390 . S
C1031 C1028 1.386 . S
C1032 C1027 1.490 . S
C1032 C1034 1.395 . S
C1032 C1035 1.403 . S
H1033 C1039 0.930 . S
C1034 H1020 0.930 . S
C1034 C1032 1.395 . S
C1034 C1037 1.403 . S
C1035 C1032 1.403 . S
C1035 C1036 1.524 . S
C1035 C1039 1.400 . S
C1036 H1021 0.960 . S
C1036 H1022 0.960 . S
C1036 H1023 0.960 . S
C1036 C1035 1.524 . S
C1037 C1034 1.403 . S
C1037 C1038 1.392 . S
C1037 C1041 1.495 . S
C1038 C1037 1.392 . S
C1038 C1039 1.385 . S
C1038 C1040 1.478 . S
C1039 H1033 0.930 . S
C1039 C1035 1.400 . S
C1039 C1038 1.385 . S
C1040 C1038 1.478 . S
C1040 C1042 1.381 . S
C1040 C1046 1.383 . S
C1041 C1037 1.495 . S
C1041 H1047 0.959 . S
C1041 H1048 0.961 . S
C1041 H1049 0.960 . S
C1042 C1040 1.381 . S
C1042 C1043 1.394 . S
C1042 H1050 0.930 . S
C1043 C1042 1.394 . S
C1043 C1044 1.383 . S
C1043 H1051 0.929 . S
C1044 C1043 1.383 . S
C1044 C1045 1.377 . S
C1045 H1029 0.930 . S
C1045 C1044 1.377 . S
C1045 C1046 1.379 . S
C1046 H1030 0.931 . S
C1046 C1040 1.383 . S
C1046 C1045 1.379 . S
H1047 C1041 0.959 . S
H1048 C1041 0.961 . S
H1049 C1041 0.960 . S
H1050 C1042 0.930 . S
H1051 C1043 0.929 . S
H1052 C1060 0.929 . S
H1053 C1062 0.930 . S
H1054 C1064 0.930 . S
H1055 C1067 0.929 . S
H1056 C1070 0.930 . S
H1057 C1072 0.960 . S
H1058 C1072 0.960 . S
H1059 C1072 0.960 . S
C1060 H1052 0.929 . S
C1060 C1061 1.377 . S
C1060 C1062 1.384 . S
C1061 C1060 1.377 . S
C1061 C1067 1.390 . S
C1062 H1053 0.930 . S
C1062 C1060 1.384 . S
C1062 C1063 1.372 . S
C1063 C1062 1.372 . S
C1063 C1064 1.400 . S
C1063 C1068 1.490 . S
C1064 H1054 0.930 . S
C1064 C1063 1.400 . S
C1064 C1067 1.386 . S
H1065 C1081 0.930 . S
H1066 C1082 0.931 . S
C1067 H1055 0.929 . S
C1067 C1061 1.390 . S
C1067 C1064 1.386 . S
C1068 C1063 1.490 . S
C1068 C1070 1.395 . S
C1068 C1071 1.403 . S
H1069 C1075 0.930 . S
C1070 H1056 0.930 . S
C1070 C1068 1.395 . S
C1070 C1073 1.403 . S
C1071 C1068 1.403 . S
C1071 C1072 1.524 . S
C1071 C1075 1.400 . S
C1072 H1057 0.960 . S
C1072 H1058 0.960 . S
C1072 H1059 0.960 . S
C1072 C1071 1.524 . S
C1073 C1070 1.403 . S
C1073 C1074 1.392 . S
C1073 C1077 1.495 . S
C1074 C1073 1.392 . S
C1074 C1075 1.385 . S
C1074 C1076 1.478 . S
C1075 H1069 0.930 . S
C1075 C1071 1.400 . S
C1075 C1074 1.385 . S
C1076 C1074 1.478 . S
C1076 C1078 1.381 . S
C1076 C1082 1.383 . S
C1077 C1073 1.495 . S
C1077 H1083 0.959 . S
C1077 H1084 0.961 . S
C1077 H1085 0.960 . S
C1078 C1076 1.381 . S
C1078 C1079 1.394 . S
C1078 H1086 0.930 . S
C1079 C1078 1.394 . S
C1079 C1080 1.383 . S
C1079 H1087 0.929 . S
C1080 C1079 1.383 . S
C1080 C1081 1.377 . S
C1081 H1065 0.930 . S
C1081 C1080 1.377 . S
C1081 C1082 1.379 . S
C1082 H1066 0.931 . S
C1082 C1076 1.383 . S
C1082 C1081 1.379 . S
H1083 C1077 0.959 . S
H1084 C1077 0.961 . S
H1085 C1077 0.960 . S
H1086 C1078 0.930 . S
H1087 C1079 0.929 . S
H1088 C1096 0.929 . S
H1089 C1098 0.930 . S
H1090 C1100 0.930 . S
H1091 C1103 0.929 . S
H1092 C1106 0.930 . S
H1093 C1108 0.960 1_556 S
H1094 C1108 0.960 . S
H1095 C1108 0.960 . S
C1096 H1088 0.929 . S
C1096 C1097 1.377 . S
C1096 C1098 1.384 . S
C1097 C1096 1.377 . S
C1097 C1103 1.390 . S
C1098 H1089 0.930 . S
C1098 C1096 1.384 . S
C1098 C1099 1.372 . S
C1099 C1098 1.372 . S
C1099 C1100 1.400 . S
C1099 C1104 1.490 . S
C1100 H1090 0.930 . S
C1100 C1099 1.400 . S
C1100 C1103 1.386 . S
H1101 C1117 0.930 . S
H1102 C1118 0.931 . S
C1103 H1091 0.929 . S
C1103 C1097 1.390 . S
C1103 C1100 1.386 . S
C1104 C1099 1.490 . S
C1104 C1106 1.395 . S
C1104 C1107 1.403 . S
H1105 C1111 0.930 . S
C1106 H1092 0.930 . S
C1106 C1104 1.395 . S
C1106 C1109 1.403 1_554 S
C1107 C1104 1.403 . S
C1107 C1108 1.524 . S
C1107 C1111 1.400 1_554 S
C1108 H1093 0.960 1_554 S
C1108 H1094 0.960 . S
C1108 H1095 0.960 . S
C1108 C1107 1.524 . S
C1109 C1106 1.403 1_556 S
C1109 C1110 1.392 . S
C1109 C1113 1.495 . S
C1110 C1109 1.392 . S
C1110 C1111 1.385 . S
C1110 C1112 1.478 . S
C1111 H1105 0.930 . S
C1111 C1107 1.400 1_556 S
C1111 C1110 1.385 . S
C1112 C1110 1.478 . S
C1112 C1114 1.381 . S
C1112 C1118 1.383 . S
C1113 C1109 1.495 . S
C1113 H1119 0.959 1_556 S
C1113 H1120 0.961 . S
C1113 H1121 0.960 . S
C1114 C1112 1.381 . S
C1114 C1115 1.394 . S
C1114 H1122 0.930 . S
C1115 C1114 1.394 . S
C1115 C1116 1.383 . S
C1115 H1123 0.929 . S
C1116 C1115 1.383 . S
C1116 C1117 1.377 . S
C1117 H1101 0.930 . S
C1117 C1116 1.377 . S
C1117 C1118 1.379 . S
C1118 H1102 0.931 . S
C1118 C1112 1.383 . S
C1118 C1117 1.379 . S
H1119 C1113 0.959 1_554 S
H1120 C1113 0.961 . S
H1121 C1113 0.960 . S
H1122 C1114 0.930 . S
H1123 C1115 0.929 . S
H1124 C1132 0.929 . S
H1125 C1134 0.930 . S
H1126 C1136 0.930 . S
H1127 C1139 0.929 . S
H1128 C1142 0.930 . S
H1129 C1144 0.960 . S
H1130 C1144 0.960 . S
H1131 C1144 0.960 . S
C1132 H1124 0.929 . S
C1132 C1133 1.377 . S
C1132 C1134 1.384 . S
C1133 C1132 1.377 . S
C1133 C1139 1.390 . S
C1134 H1125 0.930 . S
C1134 C1132 1.384 . S
C1134 C1135 1.372 . S
C1135 C1134 1.372 . S
C1135 C1136 1.400 . S
C1135 C1140 1.490 . S
C1136 H1126 0.930 . S
C1136 C1135 1.400 . S
C1136 C1139 1.386 . S
H1137 C1153 0.930 . S
H1138 C1154 0.931 . S
C1139 H1127 0.929 . S
C1139 C1133 1.390 . S
C1139 C1136 1.386 . S
C1140 C1135 1.490 . S
C1140 C1142 1.395 . S
C1140 C1143 1.403 . S
H1141 C1147 0.930 . S
C1142 H1128 0.930 . S
C1142 C1140 1.395 . S
C1142 C1145 1.403 . S
C1143 C1140 1.403 . S
C1143 C1144 1.524 . S
C1143 C1147 1.400 . S
C1144 H1129 0.960 . S
C1144 H1130 0.960 . S
C1144 H1131 0.960 . S
C1144 C1143 1.524 . S
C1145 C1142 1.403 . S
C1145 C1146 1.392 . S
C1145 C1149 1.495 . S
C1146 C1145 1.392 . S
C1146 C1147 1.385 . S
C1146 C1148 1.478 . S
C1147 H1141 0.930 . S
C1147 C1143 1.400 . S
C1147 C1146 1.385 . S
C1148 C1146 1.478 . S
C1148 C1150 1.381 . S
C1148 C1154 1.383 . S
C1149 C1145 1.495 . S
C1149 H1155 0.959 . S
C1149 H1156 0.961 . S
C1149 H1157 0.960 . S
C1150 C1148 1.381 . S
C1150 C1151 1.394 . S
C1150 H1158 0.930 . S
C1151 C1150 1.394 . S
C1151 C1152 1.383 . S
C1151 H1159 0.929 . S
C1152 C1151 1.383 . S
C1152 C1153 1.377 . S
C1153 H1137 0.930 . S
C1153 C1152 1.377 . S
C1153 C1154 1.379 . S
C1154 H1138 0.931 . S
C1154 C1148 1.383 . S
C1154 C1153 1.379 . S
H1155 C1149 0.959 . S
H1156 C1149 0.961 . S
H1157 C1149 0.960 . S
H1158 C1150 0.930 . S
H1159 C1151 0.929 . S
H1160 C1168 0.929 . S
H1161 C1170 0.930 . S
H1162 C1172 0.930 . S
H1163 C1175 0.929 . S
H1164 C1178 0.930 . S
H1165 C1180 0.959 1_556 S
H1166 C1180 0.960 . S
H1167 C1180 0.960 . S
C1168 H1160 0.929 . S
C1168 C1169 1.377 1_455 S
C1168 C1170 1.384 . S
C1169 C1168 1.377 1_655 S
C1169 C1175 1.390 . S
C1170 H1161 0.930 . S
C1170 C1168 1.384 . S
C1170 C1171 1.372 1_455 S
C1171 C1170 1.372 1_655 S
C1171 C1172 1.400 . S
C1171 C1176 1.490 . S
C1172 H1162 0.930 . S
C1172 C1171 1.400 . S
C1172 C1175 1.386 . S
H1173 C1189 0.930 . S
H1174 C1190 0.931 . S
C1175 H1163 0.929 . S
C1175 C1169 1.390 . S
C1175 C1172 1.386 . S
C1176 C1171 1.490 . S
C1176 C1178 1.395 . S
C1176 C1179 1.403 1_655 S
H1177 C1183 0.944 . S
C1178 H1164 0.930 . S
C1178 C1176 1.395 . S
C1178 C1181 1.403 1_554 S
C1179 C1176 1.403 1_455 S
C1179 C1180 1.524 . S
C1179 C1183 1.402 1_554 S
C1180 H1165 0.959 1_554 S
C1180 H1166 0.960 . S
C1180 H1167 0.960 . S
C1180 C1179 1.524 . S
C1181 C1178 1.403 1_556 S
C1181 C1182 1.392 . S
C1181 C1185 1.495 . S
C1182 C1181 1.392 . S
C1182 C1183 1.371 1_655 S
C1182 C1184 1.478 . S
C1183 H1177 0.944 . S
C1183 C1179 1.402 1_556 S
C1183 C1182 1.371 1_455 S
C1184 C1182 1.478 . S
C1184 C1186 1.369 1_655 S
C1184 C1190 1.383 . S
C1185 C1181 1.495 . S
C1185 H1191 0.948 1_556 S
C1185 H1192 0.961 . S
C1185 H1193 0.960 . S
C1186 C1184 1.369 1_455 S
C1186 C1187 1.395 . S
C1186 H1194 0.942 . S
C1187 C1186 1.395 . S
C1187 C1188 1.383 1_455 S
C1187 H1195 0.929 . S
C1188 C1187 1.383 1_655 S
C1188 C1189 1.377 . S
C1189 H1173 0.930 . S
C1189 C1188 1.377 . S
C1189 C1190 1.379 . S
C1190 H1174 0.931 . S
C1190 C1184 1.383 . S
C1190 C1189 1.379 . S
H1191 C1185 0.948 1_554 S
H1192 C1185 0.961 . S
H1193 C1185 0.960 . S
H1194 C1186 0.942 . S
H1195 C1187 0.929 . S
H1196 C1204 0.929 . S
H1197 C1206 0.930 . S
H1198 C1208 0.930 . S
H1199 C1211 0.929 . S
H1200 C1214 0.930 . S
H1201 C1216 0.960 . S
H1202 C1216 0.960 . S
H1203 C1216 0.960 . S
C1204 H1196 0.929 . S
C1204 C1205 1.377 1_545 S
C1204 C1206 1.384 . S
C1205 C1204 1.377 1_565 S
C1205 C1211 1.390 . S
C1206 H1197 0.930 . S
C1206 C1204 1.384 . S
C1206 C1207 1.372 1_545 S
C1207 C1206 1.372 1_565 S
C1207 C1208 1.400 . S
C1207 C1212 1.490 . S
C1208 H1198 0.930 . S
C1208 C1207 1.400 . S
C1208 C1211 1.386 . S
H1209 C1225 0.930 . S
H1210 C1226 0.931 . S
C1211 H1199 0.929 . S
C1211 C1205 1.390 . S
C1211 C1208 1.386 . S
C1212 C1207 1.490 . S
C1212 C1214 1.395 1_565 S
C1212 C1215 1.403 . S
H1213 C1219 0.930 . S
C1214 H1200 0.930 . S
C1214 C1212 1.395 1_545 S
C1214 C1217 1.403 . S
C1215 C1212 1.403 . S
C1215 C1216 1.524 . S
C1215 C1219 1.400 . S
C1216 H1201 0.960 . S
C1216 H1202 0.960 . S
C1216 H1203 0.960 . S
C1216 C1215 1.524 . S
C1217 C1214 1.403 . S
C1217 C1218 1.392 1_545 S
C1217 C1221 1.495 . S
C1218 C1217 1.392 1_565 S
C1218 C1219 1.385 . S
C1218 C1220 1.478 . S
C1219 H1213 0.930 . S
C1219 C1215 1.400 . S
C1219 C1218 1.385 . S
C1220 C1218 1.478 . S
C1220 C1222 1.381 1_565 S
C1220 C1226 1.383 . S
C1221 C1217 1.495 . S
C1221 H1227 0.959 . S
C1221 H1228 0.936 1_545 S
C1221 H1229 0.960 . S
C1222 C1220 1.381 1_545 S
C1222 C1223 1.394 . S
C1222 H1230 0.930 . S
C1223 C1222 1.394 . S
C1223 C1224 1.383 1_545 S
C1223 H1231 0.929 . S
C1224 C1223 1.383 1_565 S
C1224 C1225 1.377 . S
C1225 H1209 0.930 . S
C1225 C1224 1.377 . S
C1225 C1226 1.379 . S
C1226 H1210 0.931 . S
C1226 C1220 1.383 . S
C1226 C1225 1.379 . S
H1227 C1221 0.959 . S
H1228 C1221 0.936 1_565 S
H1229 C1221 0.960 . S
H1230 C1222 0.930 . S
H1231 C1223 0.929 . S
H1232 C1240 0.929 . S
H1233 C1242 0.930 . S
H1234 C1244 0.930 . S
H1235 C1247 0.929 . S
H1236 C1250 0.930 . S
H1237 C1252 0.960 . S
H1238 C1252 0.960 . S
H1239 C1252 0.960 . S
C1240 H1232 0.929 . S
C1240 C1241 1.377 . S
C1240 C1242 1.384 . S
C1241 C1240 1.377 . S
C1241 C1247 1.390 . S
C1242 H1233 0.930 . S
C1242 C1240 1.384 . S
C1242 C1243 1.372 . S
C1243 C1242 1.372 . S
C1243 C1244 1.400 . S
C1243 C1248 1.490 . S
C1244 H1234 0.930 . S
C1244 C1243 1.400 . S
C1244 C1247 1.386 . S
H1245 C1261 0.930 . S
H1246 C1262 0.931 . S
C1247 H1235 0.929 . S
C1247 C1241 1.390 . S
C1247 C1244 1.386 . S
C1248 C1243 1.490 . S
C1248 C1250 1.395 . S
C1248 C1251 1.403 . S
H1249 C1255 0.930 . S
C1250 H1236 0.930 . S
C1250 C1248 1.395 . S
C1250 C1253 1.403 1_556 S
C1251 C1248 1.403 . S
C1251 C1252 1.524 . S
C1251 C1255 1.400 1_556 S
C1252 H1237 0.960 . S
C1252 H1238 0.960 . S
C1252 H1239 0.960 . S
C1252 C1251 1.524 . S
C1253 C1250 1.403 1_554 S
C1253 C1254 1.392 . S
C1253 C1257 1.495 . S
C1254 C1253 1.392 . S
C1254 C1255 1.385 . S
C1254 C1256 1.478 . S
C1255 H1249 0.930 . S
C1255 C1251 1.400 1_554 S
C1255 C1254 1.385 . S
C1256 C1254 1.478 . S
C1256 C1258 1.381 . S
C1256 C1262 1.383 . S
C1257 C1253 1.495 . S
C1257 H1263 0.959 . S
C1257 H1264 0.961 . S
C1257 H1265 0.960 . S
C1258 C1256 1.381 . S
C1258 C1259 1.394 . S
C1258 H1266 0.930 . S
C1259 C1258 1.394 . S
C1259 C1260 1.383 . S
C1259 H1267 0.929 . S
C1260 C1259 1.383 . S
C1260 C1261 1.377 . S
C1261 H1245 0.930 . S
C1261 C1260 1.377 . S
C1261 C1262 1.379 . S
C1262 H1246 0.931 . S
C1262 C1256 1.383 . S
C1262 C1261 1.379 . S
H1263 C1257 0.959 . S
H1264 C1257 0.961 . S
H1265 C1257 0.960 . S
H1266 C1258 0.930 . S
H1267 C1259 0.929 . S
H1268 C1276 0.929 . S
H1269 C1278 0.930 . S
H1270 C1280 0.930 . S
H1271 C1283 0.929 . S
H1272 C1286 0.930 . S
H1273 C1288 0.960 . S
H1274 C1288 0.960 . S
H1275 C1288 0.960 . S
C1276 H1268 0.929 . S
C1276 C1277 1.377 . S
C1276 C1278 1.384 . S
C1277 C1276 1.377 . S
C1277 C1283 1.390 . S
C1278 H1269 0.930 . S
C1278 C1276 1.384 . S
C1278 C1279 1.372 . S
C1279 C1278 1.372 . S
C1279 C1280 1.400 . S
C1279 C1284 1.490 . S
C1280 H1270 0.930 . S
C1280 C1279 1.400 . S
C1280 C1283 1.386 . S
H1281 C1297 0.930 . S
H1282 C1298 0.931 . S
C1283 H1271 0.929 . S
C1283 C1277 1.390 . S
C1283 C1280 1.386 . S
C1284 C1279 1.490 . S
C1284 C1286 1.395 . S
C1284 C1287 1.403 . S
H1285 C1291 0.930 . S
C1286 H1272 0.930 . S
C1286 C1284 1.395 . S
C1286 C1289 1.403 . S
C1287 C1284 1.403 . S
C1287 C1288 1.524 . S
C1287 C1291 1.400 . S
C1288 H1273 0.960 . S
C1288 H1274 0.960 . S
C1288 H1275 0.960 . S
C1288 C1287 1.524 . S
C1289 C1286 1.403 . S
C1289 C1290 1.392 . S
C1289 C1293 1.495 . S
C1290 C1289 1.392 . S
C1290 C1291 1.385 . S
C1290 C1292 1.478 . S
C1291 H1285 0.930 . S
C1291 C1287 1.400 . S
C1291 C1290 1.385 . S
C1292 C1290 1.478 . S
C1292 C1294 1.381 . S
C1292 C1298 1.383 . S
C1293 C1289 1.495 . S
C1293 H1299 0.959 . S
C1293 H1300 0.961 . S
C1293 H1301 0.960 . S
C1294 C1292 1.381 . S
C1294 C1295 1.394 . S
C1294 H1302 0.930 . S
C1295 C1294 1.394 . S
C1295 C1296 1.383 . S
C1295 H1303 0.929 . S
C1296 C1295 1.383 . S
C1296 C1297 1.377 . S
C1297 H1281 0.930 . S
C1297 C1296 1.377 . S
C1297 C1298 1.379 . S
C1298 H1282 0.931 . S
C1298 C1292 1.383 . S
C1298 C1297 1.379 . S
H1299 C1293 0.959 . S
H1300 C1293 0.961 . S
H1301 C1293 0.960 . S
H1302 C1294 0.930 . S
H1303 C1295 0.929 . S
H1304 C1312 0.929 . S
H1305 C1314 0.930 . S
H1306 C1316 0.930 . S
H1307 C1319 0.929 . S
H1308 C1322 0.930 . S
H1309 C1324 0.960 . S
H1310 C1324 0.960 . S
H1311 C1324 0.960 . S
C1312 H1304 0.929 . S
C1312 C1313 1.377 1_655 S
C1312 C1314 1.384 . S
C1313 C1312 1.377 1_455 S
C1313 C1319 1.390 . S
C1314 H1305 0.930 . S
C1314 C1312 1.384 . S
C1314 C1315 1.372 1_655 S
C1315 C1314 1.372 1_455 S
C1315 C1316 1.400 . S
C1315 C1320 1.490 . S
C1316 H1306 0.930 . S
C1316 C1315 1.400 . S
C1316 C1319 1.386 . S
H1317 C1333 0.930 . S
H1318 C1334 0.931 . S
C1319 H1307 0.929 . S
C1319 C1313 1.390 . S
C1319 C1316 1.386 . S
C1320 C1315 1.490 . S
C1320 C1322 1.395 1_455 S
C1320 C1323 1.403 . S
H1321 C1327 0.930 . S
C1322 H1308 0.930 . S
C1322 C1320 1.395 1_655 S
C1322 C1325 1.403 1_554 S
C1323 C1320 1.403 . S
C1323 C1324 1.524 . S
C1323 C1327 1.400 1_554 S
C1324 H1309 0.960 . S
C1324 H1310 0.960 . S
C1324 H1311 0.960 . S
C1324 C1323 1.524 . S
C1325 C1322 1.403 1_556 S
C1325 C1326 1.392 1_655 S
C1325 C1329 1.495 . S
C1326 C1325 1.392 1_455 S
C1326 C1327 1.385 . S
C1326 C1328 1.478 . S
C1327 H1321 0.930 . S
C1327 C1323 1.400 1_556 S
C1327 C1326 1.385 . S
C1328 C1326 1.478 . S
C1328 C1330 1.381 1_455 S
C1328 C1334 1.383 . S
C1329 C1325 1.495 . S
C1329 H1335 0.959 . S
C1329 H1336 0.961 . S
C1329 H1337 0.960 . S
C1330 C1328 1.381 1_655 S
C1330 C1331 1.394 . S
C1330 H1338 0.930 . S
C1331 C1330 1.394 . S
C1331 C1332 1.383 1_655 S
C1331 H1339 0.929 . S
C1332 C1331 1.383 1_455 S
C1332 C1333 1.377 . S
C1333 H1317 0.930 . S
C1333 C1332 1.377 . S
C1333 C1334 1.379 . S
C1334 H1318 0.931 . S
C1334 C1328 1.383 . S
C1334 C1333 1.379 . S
H1335 C1329 0.959 . S
H1336 C1329 0.961 . S
H1337 C1329 0.960 . S
H1338 C1330 0.930 . S
H1339 C1331 0.929 . S
H1340 C1348 0.929 . S
H1341 C1350 0.930 . S
H1342 C1352 0.930 . S
H1343 C1355 0.929 . S
H1344 C1358 0.930 . S
H1345 C1360 0.960 . S
H1346 C1360 0.960 . S
H1347 C1360 0.960 . S
C1348 H1340 0.929 . S
C1348 C1349 1.377 1_565 S
C1348 C1350 1.384 . S
C1349 C1348 1.377 1_545 S
C1349 C1355 1.390 . S
C1350 H1341 0.930 . S
C1350 C1348 1.384 . S
C1350 C1351 1.372 1_565 S
C1351 C1350 1.372 1_545 S
C1351 C1352 1.400 . S
C1351 C1356 1.490 . S
C1352 H1342 0.930 . S
C1352 C1351 1.400 . S
C1352 C1355 1.386 . S
H1353 C1369 0.930 . S
H1354 C1370 0.931 . S
C1355 H1343 0.929 . S
C1355 C1349 1.390 . S
C1355 C1352 1.386 . S
C1356 C1351 1.490 . S
C1356 C1358 1.395 1_545 S
C1356 C1359 1.403 . S
H1357 C1363 0.930 . S
C1358 H1344 0.930 . S
C1358 C1356 1.395 1_565 S
C1358 C1361 1.403 . S
C1359 C1356 1.403 . S
C1359 C1360 1.524 . S
C1359 C1363 1.400 . S
C1360 H1345 0.960 . S
C1360 H1346 0.960 . S
C1360 H1347 0.960 . S
C1360 C1359 1.524 . S
C1361 C1358 1.403 . S
C1361 C1362 1.392 1_565 S
C1361 C1365 1.495 . S
C1362 C1361 1.392 1_545 S
C1362 C1363 1.385 . S
C1362 C1364 1.478 . S
C1363 H1357 0.930 . S
C1363 C1359 1.400 . S
C1363 C1362 1.385 . S
C1364 C1362 1.478 . S
C1364 C1366 1.381 1_545 S
C1364 C1370 1.383 . S
C1365 C1361 1.495 . S
C1365 H1371 0.959 . S
C1365 H1372 0.961 . S
C1365 H1373 0.960 . S
C1366 C1364 1.381 1_565 S
C1366 C1367 1.394 . S
C1366 H1374 0.930 . S
C1367 C1366 1.394 . S
C1367 C1368 1.383 1_565 S
C1367 H1375 0.929 . S
C1368 C1367 1.383 1_545 S
C1368 C1369 1.377 . S
C1369 H1353 0.930 . S
C1369 C1368 1.377 . S
C1369 C1370 1.379 . S
C1370 H1354 0.931 . S
C1370 C1364 1.383 . S
C1370 C1369 1.379 . S
H1371 C1365 0.959 . S
H1372 C1365 0.961 . S
H1373 C1365 0.960 . S
H1374 C1366 0.930 . S
H1375 C1367 0.929 . S
C233 C8 1.244 . S
C252 C106 1.246 . S
C269 C22 1.245 . S
C288 C64 1.236 . S
C305 C36 1.243 . S
C324 C78 1.242 . S
C341 C50 1.243 . S
C360 C92 1.247 . S
C377 C120 1.245 . S
C396 C218 1.248 . S
C413 C176 1.243 . S
C432 C134 1.246 . S
C449 C148 1.245 . S
C468 C190 1.235 . S
C485 C162 1.243 . S
C504 C204 1.235 . S
C521 C9 1.411 . S
C540 C133 1.406 . S
C557 C23 1.403 . S
C576 C147 1.431 . S
C593 C161 1.412 . S
C612 C37 1.428 . S
C629 C51 1.414 . S
C648 C119 1.391 . S
C665 C65 1.413 . S
C684 C217 1.397 . S
C701 C175 1.412 . S
C720 C79 1.432 . S
C737 C189 1.420 . S
C756 C93 1.385 . S
C773 C203 1.415 . S
C792 C107 1.409 . S
C809 C21 1.414 . S
C828 C121 1.407 . S
C845 C35 1.417 . S
C864 C135 1.423 . S
C881 C149 1.410 . S
C900 C49 1.435 . S
C917 C7 1.418 . S
C936 C163 1.426 . S
C953 C177 1.404 . S
C972 C105 1.389 . S
C989 C191 1.409 . S
C1008 C63 1.433 . S
C1025 C77 1.422 . S
C1044 C205 1.430 . S
C1061 C91 1.419 . S
C1080 C219 1.430 . S
C1097 C3 1.618 . S
C1116 C59 1.614 . S
C1133 C73 1.617 . S
C1152 C17 1.616 . S
C1169 C31 1.619 . S
C1188 C87 1.611 . S
C1205 C101 1.618 . S
C1224 C45 1.615 . S
C1241 C115 1.617 . S
C1260 C171 1.611 . S
C1277 C185 1.617 . S
C1296 C129 1.616 . S
C1313 C199 1.618 . S
C1332 C143 1.619 . S
C1349 C213 1.618 . S
C1368 C157 1.619 . S
