# Generated by pormake.
# Topology snk, (6)-cn, num edge types: 1
# Building blocks:
#     Node 0, Type 0, BuildingBlock: BETFEN_clean_sbu_0, # of connection points: 6
#     Node 1, Type 0, BuildingBlock: BETFEN_clean_sbu_0, # of connection points: 6
#     Node 2, Type 0, BuildingBlock: BETFEN_clean_sbu_0, # of connection points: 6
#     Node 3, Type 0, BuildingBlock: BETFEN_clean_sbu_0, # of connection points: 6
#     Node 4, Type 0, BuildingBlock: BETFEN_clean_sbu_0, # of connection points: 6
#     Node 5, Type 0, BuildingBlock: BETFEN_clean_sbu_0, # of connection points: 6
#     Node 6, Type 0, BuildingBlock: BETFEN_clean_sbu_0, # of connection points: 6
#     Node 7, Type 0, BuildingBlock: BETFEN_clean_sbu_0, # of connection points: 6
#     Edge 8, Type (0, 0), None
#     Edge 9, Type (0, 0), None
#     Edge 10, Type (0, 0), None
#     Edge 11, Type (0, 0), None
#     Edge 12, Type (0, 0), None
#     Edge 13, Type (0, 0), None
#     Edge 14, Type (0, 0), None
#     Edge 15, Type (0, 0), None
#     Edge 16, Type (0, 0), None
#     Edge 17, Type (0, 0), None
#     Edge 18, Type (0, 0), None
#     Edge 19, Type (0, 0), None
#     Edge 20, Type (0, 0), None
#     Edge 21, Type (0, 0), None
#     Edge 22, Type (0, 0), None
#     Edge 23, Type (0, 0), None
#     Edge 24, Type (0, 0), None
#     Edge 25, Type (0, 0), None
#     Edge 26, Type (0, 0), None
#     Edge 27, Type (0, 0), None
#     Edge 28, Type (0, 0), None
#     Edge 29, Type (0, 0), None
#     Edge 30, Type (0, 0), None
#     Edge 31, Type (0, 0), None
# Relax obj value: 0.227
# Max RMSD: 0.303
# Mean RMSD: 0.255
data_MOF--net-snk--node1-BETFEN_clean_sbu_0--edge1-none
_symmetry_space_group_name_H-M    P1
_symmetry_Int_Tables_number       1
_symmetry_cell_setting            triclinic
loop_
_symmetry_equiv_pos_as_xyz
'x, y, z'
_cell_length_a     16.046553
_cell_length_b     16.221079
_cell_length_c     15.62208
_cell_angle_alpha  97.780725
_cell_angle_beta   96.207511
_cell_angle_gamma 93.857841
loop_
_atom_site_label
_atom_site_type_symbol
_atom_site_fract_x
_atom_site_fract_y
_atom_site_fract_z
_atom_type_partial_charge
Pr0 Pr 0.93278 0.89291 0.50502 0.0
Pr1 Pr -0.0342 0.01501 0.62894 0.0
C2 C 0.94063 0.82474 0.34226 0.0
C3 C -0.04638 0.86961 0.2671 0.0
C4 C 0.01713 0.85129 0.21389 0.0
C5 C 0.01951 0.88344 0.13616 0.0
C6 C -0.03802 0.93998 0.1118 0.0
C7 C 0.91263 -0.02668 0.17602 0.0
C8 C 0.90817 0.9379 0.25231 0.0
C9 C 0.02643 0.83029 0.6431 0.0
C10 C 0.07083 0.04214 0.47575 0.0
C11 C -0.02995 0.08487 0.79344 0.0
C12 C -0.03858 0.03925 0.86876 0.0
C13 C 0.89789 0.05465 0.92215 0.0
C14 C 0.89507 0.01934 0.99783 0.0
C15 C -0.04486 -0.03475 1.02228 0.0
C16 C 0.00756 0.93631 0.95907 0.0
C17 C 0.0101 -0.02722 0.883 0.0
C18 C 0.86767 0.07605 0.49221 0.0
C19 C 0.82382 0.8654 0.65492 0.0
O20 O 0.86848 0.82906 0.3744 0.0
O21 O 0.00497 0.83131 0.40218 0.0
O22 O 0.04471 0.90009 0.61723 0.0
O23 O -0.03718 0.78965 0.59333 0.0
O24 O 0.08055 0.06173 0.561 0.0
O25 O 0.00839 -0.0105 0.43987 0.0
O26 O 0.03895 0.07834 0.75577 0.0
O27 O 0.90271 0.07949 0.73766 0.0
O28 O 0.85169 0.00613 0.5186 0.0
O29 O 0.93156 0.11776 0.54065 0.0
O30 O 0.81744 0.84348 0.56991 0.0
O31 O 0.88326 0.92145 0.69199 0.0
H32 H 0.06736 0.81433 0.231 0.0
H33 H 0.06763 0.86338 0.0969 0.0
H34 H 0.8747 0.02472 0.16796 0.0
H35 H 0.86667 -0.03786 0.29815 0.0
H36 H 0.84782 0.09146 0.906 0.0
H37 H 0.84471 0.03529 1.03578 0.0
H38 H 0.04955 0.88824 0.96795 0.0
H39 H 0.05291 -0.04876 0.83736 0.0
Pr40 Pr 0.25336 0.67769 0.72911 0.0
Pr41 Pr 0.12393 0.67731 0.86863 0.0
C42 C 0.27363 0.61883 0.56211 0.0
C43 C 0.21839 0.59452 0.47564 0.0
C44 C 0.21744 0.6464 0.41062 0.0
C45 C 0.17192 0.62049 0.32778 0.0
C46 C 0.1161 0.54643 0.31004 0.0
C47 C 0.12945 0.49015 0.36802 0.0
C48 C 0.17468 0.51419 0.45167 0.0
C49 C 0.2985 0.80682 0.86656 0.0
C50 C 0.08373 0.7863 0.70087 0.0
C51 C 0.00018 0.65552 0.96605 0.0
C52 C -0.01661 0.58892 1.01823 0.0
C53 C 0.9012 0.60254 0.07277 0.0
C54 C 0.90399 0.58708 0.1771 0.0
C55 C 0.04917 0.52712 0.22685 0.0
C56 C 0.10469 0.51465 0.14176 0.0
C57 C 0.07175 0.54359 1.04723 0.0
C58 C 0.11074 0.53338 0.74282 0.0
C59 C 0.31083 0.60575 0.92268 0.0
O60 O 0.26314 0.57237 0.62256 0.0
O61 O 0.29091 0.69782 0.59494 0.0
O62 O 0.22164 0.77948 0.83725 0.0
O63 O 0.35124 0.7751 0.81435 0.0
O64 O 0.06401 0.77178 0.77822 0.0
O65 O 0.1473 0.75263 0.66767 0.0
O66 O 0.06807 0.70697 0.9938 0.0
O67 O -0.00783 0.63083 0.88293 0.0
O68 O 0.1745 0.57966 0.77631 0.0
O69 O 0.05329 0.55507 0.78975 0.0
O70 O 0.32967 0.61182 0.84139 0.0
O71 O 0.24028 0.63186 0.95049 0.0
H72 H 0.25212 0.70695 0.4234 0.0
H73 H 0.17717 0.66148 0.27911 0.0
H74 H 0.10637 0.4275 0.34515 0.0
H75 H 0.17852 0.46833 0.49587 0.0
H76 H 0.84678 0.6225 1.03902 0.0
H77 H 0.85173 0.60699 0.21202 0.0
H78 H 0.16802 0.49557 0.15105 0.0
H79 H 0.11794 0.54161 1.00164 0.0
Pr80 Pr 0.43994 0.87949 0.11699 0.0
Pr81 Pr 0.46217 0.00455 1.01584 0.0
C82 C 0.42868 0.79906 0.25445 0.0
C83 C 0.43146 0.83755 0.34522 0.0
C84 C 0.40642 0.79155 0.40865 0.0
C85 C 0.40953 0.83002 0.49485 0.0
C86 C 0.4411 0.91411 0.51924 0.0
C87 C 0.46384 -0.03961 0.45445 0.0
C88 C 0.45882 0.92243 0.36837 0.0
C89 C 0.33169 0.83358 0.96036 0.0
C90 C 0.35486 0.05865 0.17472 0.0
C91 C 0.48941 0.07436 0.87666 0.0
C92 C 0.48035 0.02951 0.78685 0.0
C93 C 0.54111 0.04299 0.73144 0.0
C94 C 0.52876 0.00519 0.64457 0.0
C95 C 0.45594 -0.04829 0.6123 0.0
C96 C 0.3985 0.93325 0.67007 0.0
C97 C 0.41138 -0.02937 0.75673 0.0
C98 C 0.56567 0.05395 0.17294 0.0
C99 C 0.54044 0.8269 0.95099 0.0
O100 O 0.49887 0.80898 0.22004 0.0
O101 O 0.36254 0.81321 0.20376 0.0
O102 O 0.34453 0.90839 1.00068 0.0
O103 O 0.37381 0.78319 1.00199 0.0
O104 O 0.37347 0.08156 0.10062 0.0
O105 O 0.37455 -0.01379 0.19542 0.0
O106 O 0.41983 0.08173 0.91333 0.0
O107 O 0.55177 0.054 0.92843 0.0
O108 O 0.55531 -0.02157 0.13389 0.0
O109 O 0.5251 0.10339 0.12877 0.0
O110 O 0.52811 0.80541 1.02743 0.0
O111 O 0.51483 0.89647 0.92961 0.0
H112 H 0.38762 0.72551 0.39206 0.0
H113 H 0.39468 0.79215 0.54363 0.0
H114 H 0.48682 0.02561 0.47042 0.0
H115 H 0.4791 -0.04133 0.32016 0.0
H116 H 0.59813 0.08228 0.75568 0.0
H117 H 0.57651 0.01743 0.60288 0.0
H118 H 0.34249 0.8915 0.64803 0.0
H119 H 0.36546 -0.04398 0.79946 0.0
Pr120 Pr 0.26237 0.22357 0.37465 0.0
Pr121 Pr 0.14037 0.16254 0.24251 0.0
C122 C 0.34441 0.2388 0.53336 0.0
C123 C 0.30751 0.2167 0.61095 0.0
C124 C 0.35131 0.16921 0.6659 0.0
C125 C 0.31665 0.14722 0.73861 0.0
C126 C 0.23878 0.17179 0.75949 0.0
C127 C 0.19353 0.21787 0.70332 0.0
C128 C 0.22676 0.23881 0.62876 0.0
C129 C 0.32211 0.11777 0.24165 0.0
C130 C 0.11766 0.08632 0.41704 0.0
C131 C 0.10675 0.09436 0.07569 0.0
C132 C 0.14617 0.11649 0.99808 0.0
C133 C 0.1518 0.19831 0.97751 0.0
C134 C 0.17938 0.21563 0.89937 0.0
C135 C 0.2083 0.15266 0.84223 0.0
C136 C 0.21232 0.07269 0.86735 0.0
C137 C 0.18259 0.05522 0.94486 0.0
C138 C 0.06602 0.27301 0.36667 0.0
C139 C 0.27259 0.32658 0.21633 0.0
O140 O 0.31553 0.30204 0.49913 0.0
O141 O 0.35316 0.17548 0.4749 0.0
O142 O 0.25912 0.10183 0.28053 0.0
O143 O 0.3583 0.19114 0.27229 0.0
O144 O 0.10152 0.06556 0.33205 0.0
O145 O 0.16642 0.15343 0.44848 0.0
O146 O 0.15456 0.06018 0.13135 0.0
O147 O 0.05731 0.14495 0.11366 0.0
O148 O 0.1388 0.28632 0.34167 0.0
O149 O 0.02828 0.20339 0.32315 0.0
O150 O 0.29963 0.3332 0.29999 0.0
O151 O 0.2149 0.26679 0.1807 0.0
H152 H 0.41298 0.1506 0.65359 0.0
H153 H 0.3523 0.11504 0.78209 0.0
H154 H 0.13307 0.23802 0.71745 0.0
H155 H 0.19058 0.27477 0.58684 0.0
H156 H 0.13761 0.2502 1.02198 0.0
H157 H 0.17973 0.27898 0.88461 0.0
H158 H 0.2362 0.02295 0.82588 0.0
H159 H 0.18523 -0.00732 0.96149 0.0
Pr160 Pr 0.76304 0.21658 0.25941 0.0
Pr161 Pr 0.63414 0.21861 0.39963 0.0
C162 C 0.87862 0.23512 0.15323 0.0
C163 C 0.89356 0.30312 0.10206 0.0
C164 C -0.02731 0.28702 1.04454 0.0
C165 C -0.03164 0.30366 0.94127 0.0
C166 C 0.82662 0.37101 0.89613 0.0
C167 C 0.77309 0.38456 0.9833 0.0
C168 C 0.80634 0.35223 0.07653 0.0
C169 C 0.77706 0.36286 0.38116 0.0
C170 C 0.57811 0.29041 0.20533 0.0
C171 C 0.60243 0.27856 0.56266 0.0
C172 C 0.65461 0.30606 0.64996 0.0
C173 C 0.64782 0.26041 0.71922 0.0
C174 C 0.6965 0.28561 0.80055 0.0
C175 C 0.75819 0.355 0.81413 0.0
C176 C 0.75144 0.408 0.75172 0.0
C177 C 0.70504 0.38294 0.66894 0.0
C178 C 0.59511 0.08315 0.26663 0.0
C179 C 0.8088 0.11755 0.43323 0.0
O180 O 0.80826 0.18658 0.12891 0.0
O181 O 0.8951 0.25546 0.237 0.0
O182 O 0.71253 0.3164 0.35015 0.0
O183 O 0.83339 0.34054 0.33278 0.0
O184 O 0.5594 0.28527 0.28674 0.0
O185 O 0.64688 0.26095 0.17714 0.0
O186 O 0.61486 0.32358 0.5016 0.0
O187 O 0.58915 0.1987 0.53161 0.0
O188 O 0.67013 0.11431 0.29679 0.0
O189 O 0.54024 0.11611 0.31517 0.0
O190 O 0.82558 0.12648 0.35332 0.0
O191 O 0.74611 0.15349 0.46641 0.0
H192 H 0.02731 0.26694 0.07608 0.0
H193 H 0.01882 0.28147 0.90477 0.0
H194 H 0.71072 0.40613 0.97601 0.0
H195 H 0.76138 0.35499 0.12337 0.0
H196 H 0.60354 0.20618 0.7106 0.0
H197 H 0.68861 0.24778 0.85154 0.0
H198 H 0.7801 0.46918 0.77002 0.0
H199 H 0.70639 0.42535 0.62124 0.0
Pr200 Pr 0.76215 0.74092 0.88817 0.0
Pr201 Pr 0.64066 0.67111 0.75172 0.0
C202 C 0.80076 0.81711 1.05187 0.0
C203 C 0.75934 0.8007 0.1296 0.0
C204 C 0.73987 0.71896 0.14459 0.0
C205 C 0.7099 0.7025 0.22099 0.0
C206 C 0.69702 0.76758 0.2857 0.0
C207 C 0.70469 0.84995 0.26577 0.0
C208 C 0.73347 0.86584 0.1871 0.0
C209 C 0.83489 0.62812 0.76425 0.0
C210 C 0.62858 0.57527 0.91464 0.0
C211 C 0.57369 0.65479 0.5884 0.0
C212 C 0.61449 0.68982 0.5183 0.0
C213 C 0.5984 0.769 0.49724 0.0
C214 C 0.62775 0.79708 0.42411 0.0
C215 C 0.67634 0.7471 0.37203 0.0
C216 C 0.70467 0.6749 0.40293 0.0
C217 C 0.67561 0.64775 0.47622 0.0
C218 C 0.57501 0.77085 0.88344 0.0
C219 C 0.7784 0.81889 0.71306 0.0
O220 O 0.75474 0.85019 0.99378 0.0
O221 O 0.84623 0.76025 1.01697 0.0
O222 O 0.76474 0.61513 0.79358 0.0
O223 O 0.87114 0.70069 0.8017 0.0
O224 O 0.60577 0.56314 0.82967 0.0
O225 O 0.68265 0.63885 0.9498 0.0
O226 O 0.6098 0.59419 0.62142 0.0
O227 O 0.54652 0.70839 0.64723 0.0
O228 O 0.63864 0.79054 0.84687 0.0
O229 O 0.53758 0.69964 0.84631 0.0
O230 O 0.79405 0.83952 0.79794 0.0
O231 O 0.7336 0.74939 0.68131 0.0
H232 H 0.74673 0.66642 0.09788 0.0
H233 H 0.6983 0.63779 0.22918 0.0
H234 H 0.69228 0.90249 0.31173 0.0
H235 H 0.73936 0.9295 0.17342 0.0
H236 H 0.56391 0.80936 0.53808 0.0
H237 H 0.61045 0.85661 0.40766 0.0
H238 H 0.74783 0.6377 0.36936 0.0
H239 H 0.69809 0.59131 0.49702 0.0
Pr240 Pr 0.42557 0.38767 1.00045 0.0
Pr241 Pr 0.47022 0.51707 0.12924 0.0
C242 C 0.39903 0.32097 0.8348 0.0
C243 C 0.41245 0.36702 0.76031 0.0
C244 C 0.49331 0.39011 0.74097 0.0
C245 C 0.5045 0.42944 0.66791 0.0
C246 C 0.43616 0.44137 0.60781 0.0
C247 C 0.35551 0.4274 0.63461 0.0
C248 C 0.34433 0.3942 0.71114 0.0
C249 C 0.52027 0.32854 0.14131 0.0
C250 C 0.57992 0.52979 0.97276 0.0
C251 C 0.49079 0.58937 0.29368 0.0
C252 C 0.47565 0.5447 0.36888 0.0
C253 C 0.39452 0.52944 0.39169 0.0
C254 C 0.38193 0.48813 0.46316 0.0
C255 C 0.44927 0.46917 0.52019 0.0
C256 C 0.52878 0.47517 0.48974 0.0
C257 C 0.54063 0.50783 0.41295 0.0
C258 C 0.3711 0.571 0.98728 0.0
C259 C 0.31924 0.37396 0.15879 0.0
O260 O 0.3366 0.34193 0.87836 0.0
O261 O 0.46598 0.30667 0.88467 0.0
O262 O 0.5387 0.39569 0.11057 0.0
O263 O 0.45647 0.28609 0.09276 0.0
O264 O 0.58502 0.55555 1.05702 0.0
O265 O 0.51933 0.47359 0.93678 0.0
O266 O 0.55511 0.56893 0.25282 0.0
O267 O 0.42457 0.59969 0.24069 0.0
O268 O 0.35479 0.50603 1.02189 0.0
O269 O 0.43697 0.61402 1.03127 0.0
O270 O 0.31188 0.3501 0.0741 0.0
O271 O 0.38103 0.42874 0.19475 0.0
H272 H 0.54816 0.37955 0.78332 0.0
H273 H 0.56707 0.45059 0.65936 0.0
H274 H 0.29886 0.43517 0.59447 0.0
H275 H 0.28128 0.38512 0.7287 0.0
H276 H 0.34044 0.54654 0.35251 0.0
H277 H 0.31936 0.47001 0.47273 0.0
H278 H 0.58415 0.45964 0.52655 0.0
H279 H 0.60194 0.50721 0.3903 0.0
Pr280 Pr 0.93278 0.37863 0.60779 0.0
Pr281 Pr -0.04432 0.51872 0.51669 0.0
C282 C 0.91034 0.26061 0.70519 0.0
C283 C 0.90545 0.28855 0.7936 0.0
C284 C 0.85274 0.22856 0.8506 0.0
C285 C 0.84161 0.25989 0.95517 0.0
C286 C 0.92132 0.41366 1.00881 0.0
C287 C -0.03781 0.44468 0.91786 0.0
C288 C -0.04765 0.38459 0.82361 0.0
C289 C 0.80707 0.36955 0.47148 0.0
C290 C 0.87113 0.56893 0.69484 0.0
C291 C -0.03567 0.63492 0.41519 0.0
C292 C -0.03497 0.607 0.32598 0.0
C293 C 0.0153 0.66774 0.26865 0.0
C294 C 0.02961 0.63606 0.16537 0.0
C295 C -0.04285 0.47927 0.11316 0.0
C296 C 0.91705 0.4476 0.20436 0.0
C297 C 0.92304 0.50927 0.29756 0.0
C298 C 0.08365 0.52673 0.65165 0.0
C299 C 0.02563 0.33164 0.43386 0.0
O300 O -0.01577 0.2792 0.68165 0.0
O301 O 0.8483 0.28396 0.65644 0.0
O302 O 0.83447 0.43702 0.51967 0.0
O303 O 0.84687 0.30795 0.49279 0.0
O304 O 0.87701 0.59051 0.61779 0.0
O305 O 0.89811 0.49582 0.70998 0.0
O306 O 0.89365 0.61321 0.44357 0.0
O307 O 0.03065 0.61531 0.4607 0.0
O308 O 0.05401 0.45969 0.60407 0.0
O309 O 0.04789 0.58981 0.6278 0.0
O310 O 0.02052 0.31182 0.51202 0.0
O311 O -0.00712 0.40163 0.41554 0.0
H312 H 0.81693 0.17307 0.81626 0.0
H313 H 0.80241 0.21731 0.98501 0.0
H314 H 0.94227 0.43464 0.97493 0.0
H315 H -0.01258 0.40953 0.77686 0.0
H316 H 0.05091 0.72166 0.3044 0.0
H317 H 0.06804 0.6796 0.13615 0.0
H318 H 0.93678 0.45771 0.1472 0.0
H319 H 0.89238 0.48297 0.3464 0.0
loop_
_geom_bond_atom_site_label_1
_geom_bond_atom_site_label_2
_geom_bond_distance
_geom_bond_site_symmetry_2
_ccdc_geom_bond_type
Pr0 C2 2.880 1_655 S
Pr0 O20 2.562 . S
Pr0 O21 2.490 1_655 S
Pr0 O22 2.695 1_655 S
Pr0 O23 2.512 1_655 S
Pr0 O25 2.432 1_665 S
Pr0 O28 2.436 1_565 S
Pr0 O30 2.438 . S
Pr1 C11 2.880 1_455 S
Pr1 O22 2.436 1_545 S
Pr1 O24 2.438 . S
Pr1 O26 2.562 . S
Pr1 O27 2.490 1_455 S
Pr1 O28 2.695 1_455 S
Pr1 O29 2.512 1_455 S
Pr1 O31 2.435 1_445 S
C2 Pr0 2.880 1_455 S
C2 C3 1.491 . S
C2 O20 1.254 1_455 S
C2 O21 1.225 . S
C3 C2 1.491 . S
C3 C4 1.392 . S
C3 C8 1.356 . S
C4 C3 1.392 . S
C4 C5 1.368 . S
C4 H32 0.929 . S
C5 C4 1.368 . S
C5 C6 1.386 . S
C5 H33 0.929 . S
C6 C5 1.386 . S
C6 C7 1.373 . S
C7 C6 1.373 . S
C7 C8 1.409 . S
C7 H34 0.931 . S
C8 C3 1.356 . S
C8 C7 1.409 . S
C8 H35 0.930 1_455 S
C9 O22 1.270 . S
C9 O23 1.248 . S
C10 O24 1.267 . S
C10 O25 1.285 . S
C11 Pr1 2.880 1_655 S
C11 C12 1.491 . S
C11 O26 1.254 1_655 S
C11 O27 1.225 . S
C12 C11 1.491 . S
C12 C13 1.392 . S
C12 C17 1.356 . S
C13 C12 1.392 . S
C13 C14 1.368 . S
C13 H36 0.929 . S
C14 C13 1.368 . S
C14 C15 1.386 . S
C14 H37 0.929 . S
C15 C14 1.386 . S
C15 C16 1.373 . S
C16 C15 1.373 . S
C16 C17 1.409 . S
C16 H38 0.931 . S
C17 C12 1.356 . S
C17 C16 1.409 . S
C17 H39 0.930 1_655 S
C18 O28 1.270 . S
C18 O29 1.248 . S
C19 O30 1.267 . S
C19 O31 1.281 . S
O20 Pr0 2.562 . S
O20 C2 1.254 1_655 S
O21 Pr0 2.490 1_455 S
O21 C2 1.225 . S
O22 Pr0 2.695 1_455 S
O22 Pr1 2.436 1_565 S
O22 C9 1.270 . S
O23 Pr0 2.512 1_455 S
O23 C9 1.248 . S
O24 Pr1 2.438 . S
O24 C10 1.267 . S
O25 Pr0 2.432 1_445 S
O25 C10 1.285 . S
O26 Pr1 2.562 . S
O26 C11 1.254 1_455 S
O27 Pr1 2.490 1_655 S
O27 C11 1.225 . S
O28 Pr0 2.436 1_545 S
O28 Pr1 2.695 1_655 S
O28 C18 1.270 . S
O29 Pr1 2.512 1_655 S
O29 C18 1.248 . S
O30 Pr0 2.438 . S
O30 C19 1.267 . S
O31 Pr1 2.435 1_665 S
O31 C19 1.281 . S
H32 C4 0.929 . S
H33 C5 0.929 . S
H34 C7 0.931 . S
H35 C8 0.930 1_655 S
H36 C13 0.929 . S
H37 C14 0.929 . S
H38 C16 0.931 . S
H39 C17 0.930 1_455 S
Pr40 C42 2.880 . S
Pr40 O60 2.562 . S
Pr40 O61 2.490 . S
Pr40 O62 2.695 . S
Pr40 O63 2.512 . S
Pr40 O65 2.437 . S
Pr40 O68 2.436 . S
Pr40 O70 2.438 . S
Pr41 C51 2.880 . S
Pr41 O62 2.436 . S
Pr41 O64 2.438 . S
Pr41 O66 2.562 . S
Pr41 O67 2.490 . S
Pr41 O68 2.695 . S
Pr41 O69 2.512 . S
Pr41 O71 2.437 . S
C42 Pr40 2.880 . S
C42 C43 1.491 . S
C42 O60 1.254 . S
C42 O61 1.225 . S
C43 C42 1.491 . S
C43 C44 1.392 . S
C43 C48 1.356 . S
C44 C43 1.392 . S
C44 C45 1.368 . S
C44 H72 0.929 . S
C45 C44 1.368 . S
C45 C46 1.386 . S
C45 H73 0.929 . S
C46 C45 1.386 . S
C46 C47 1.373 . S
C47 C46 1.373 . S
C47 C48 1.409 . S
C47 H74 0.931 . S
C48 C43 1.356 . S
C48 C47 1.409 . S
C48 H75 0.930 . S
C49 O62 1.270 . S
C49 O63 1.248 . S
C50 O64 1.267 . S
C50 O65 1.278 . S
C51 Pr41 2.880 . S
C51 C52 1.491 1_556 S
C51 O66 1.254 . S
C51 O67 1.225 . S
C52 C51 1.491 1_554 S
C52 C53 1.392 . S
C52 C57 1.356 . S
C53 C52 1.392 . S
C53 C54 1.368 . S
C53 H76 0.929 . S
C54 C53 1.368 . S
C54 C55 1.386 . S
C54 H77 0.929 . S
C55 C54 1.386 . S
C55 C56 1.373 . S
C56 C55 1.373 . S
C56 C57 1.409 . S
C56 H78 0.931 . S
C57 C52 1.356 . S
C57 C56 1.409 . S
C57 H79 0.930 . S
C58 O68 1.270 . S
C58 O69 1.248 . S
C59 O70 1.267 . S
C59 O71 1.278 . S
O60 Pr40 2.562 . S
O60 C42 1.254 . S
O61 Pr40 2.490 . S
O61 C42 1.225 . S
O62 Pr40 2.695 . S
O62 Pr41 2.436 . S
O62 C49 1.270 . S
O63 Pr40 2.512 . S
O63 C49 1.248 . S
O64 Pr41 2.438 . S
O64 C50 1.267 . S
O65 Pr40 2.437 . S
O65 C50 1.278 . S
O66 Pr41 2.562 . S
O66 C51 1.254 . S
O67 Pr41 2.490 . S
O67 C51 1.225 . S
O68 Pr40 2.436 . S
O68 Pr41 2.695 . S
O68 C58 1.270 . S
O69 Pr41 2.512 . S
O69 C58 1.248 . S
O70 Pr40 2.438 . S
O70 C59 1.267 . S
O71 Pr41 2.437 . S
O71 C59 1.278 . S
H72 C44 0.929 . S
H73 C45 0.929 . S
H74 C47 0.931 . S
H75 C48 0.930 . S
H76 C53 0.929 . S
H77 C54 0.929 . S
H78 C56 0.931 . S
H79 C57 0.930 . S
Pr80 C82 2.880 . S
Pr80 O100 2.562 . S
Pr80 O101 2.490 . S
Pr80 O102 2.695 1_554 S
Pr80 O103 2.512 1_554 S
Pr80 O105 2.437 1_565 S
Pr80 O108 2.436 1_565 S
Pr80 O110 2.438 1_554 S
Pr81 C91 2.880 . S
Pr81 O102 2.436 1_545 S
Pr81 O104 2.438 1_556 S
Pr81 O106 2.562 . S
Pr81 O107 2.490 . S
Pr81 O108 2.695 1_556 S
Pr81 O109 2.512 1_556 S
Pr81 O111 2.437 1_545 S
C82 Pr80 2.880 . S
C82 C83 1.491 . S
C82 O100 1.254 . S
C82 O101 1.225 . S
C83 C82 1.491 . S
C83 C84 1.392 . S
C83 C88 1.356 . S
C84 C83 1.392 . S
C84 C85 1.368 . S
C84 H112 0.929 . S
C85 C84 1.368 . S
C85 C86 1.386 . S
C85 H113 0.929 . S
C86 C85 1.386 . S
C86 C87 1.373 . S
C87 C86 1.373 . S
C87 C88 1.409 . S
C87 H114 0.931 1_565 S
C88 C83 1.356 . S
C88 C87 1.409 . S
C88 H115 0.930 1_565 S
C89 O102 1.270 . S
C89 O103 1.248 . S
C90 O104 1.267 . S
C90 O105 1.278 . S
C91 Pr81 2.880 . S
C91 C92 1.491 . S
C91 O106 1.254 . S
C91 O107 1.225 . S
C92 C91 1.491 . S
C92 C93 1.392 . S
C92 C97 1.356 . S
C93 C92 1.392 . S
C93 C94 1.368 . S
C93 H116 0.929 . S
C94 C93 1.368 . S
C94 C95 1.386 . S
C94 H117 0.929 . S
C95 C94 1.386 . S
C95 C96 1.373 . S
C96 C95 1.373 . S
C96 C97 1.409 . S
C96 H118 0.931 1_545 S
C97 C92 1.356 . S
C97 C96 1.409 . S
C97 H119 0.930 1_545 S
C98 O108 1.270 . S
C98 O109 1.248 . S
C99 O110 1.267 . S
C99 O111 1.278 . S
O100 Pr80 2.562 . S
O100 C82 1.254 . S
O101 Pr80 2.490 . S
O101 C82 1.225 . S
O102 Pr80 2.695 1_556 S
O102 Pr81 2.436 1_565 S
O102 C89 1.270 . S
O103 Pr80 2.512 1_556 S
O103 C89 1.248 . S
O104 Pr81 2.438 1_554 S
O104 C90 1.267 . S
O105 Pr80 2.437 1_545 S
O105 C90 1.278 . S
O106 Pr81 2.562 . S
O106 C91 1.254 . S
O107 Pr81 2.490 . S
O107 C91 1.225 . S
O108 Pr80 2.436 1_545 S
O108 Pr81 2.695 1_554 S
O108 C98 1.270 . S
O109 Pr81 2.512 1_554 S
O109 C98 1.248 . S
O110 Pr80 2.438 1_556 S
O110 C99 1.267 . S
O111 Pr81 2.437 1_565 S
O111 C99 1.278 . S
H112 C84 0.929 . S
H113 C85 0.929 . S
H114 C87 0.931 1_545 S
H115 C88 0.930 1_545 S
H116 C93 0.929 . S
H117 C94 0.929 . S
H118 C96 0.931 1_565 S
H119 C97 0.930 1_565 S
Pr120 C122 2.880 . S
Pr120 O140 2.562 . S
Pr120 O141 2.490 . S
Pr120 O142 2.695 . S
Pr120 O143 2.512 . S
Pr120 O145 2.437 . S
Pr120 O148 2.436 . S
Pr120 O150 2.438 . S
Pr121 C131 2.894 . S
Pr121 O142 2.436 . S
Pr121 O144 2.438 . S
Pr121 O146 2.562 . S
Pr121 O147 2.490 . S
Pr121 O148 2.695 . S
Pr121 O149 2.512 . S
Pr121 O151 2.437 . S
C122 Pr120 2.880 . S
C122 C123 1.491 . S
C122 O140 1.254 . S
C122 O141 1.225 . S
C123 C122 1.491 . S
C123 C124 1.392 . S
C123 C128 1.356 . S
C124 C123 1.392 . S
C124 C125 1.368 . S
C124 H152 0.929 . S
C125 C124 1.368 . S
C125 C126 1.386 . S
C125 H153 0.929 . S
C126 C125 1.386 . S
C126 C127 1.373 . S
C127 C126 1.373 . S
C127 C128 1.409 . S
C127 H154 0.931 . S
C128 C123 1.356 . S
C128 C127 1.409 . S
C128 H155 0.930 . S
C129 O142 1.270 . S
C129 O143 1.248 . S
C130 O144 1.267 . S
C130 O145 1.278 . S
C131 Pr121 2.894 . S
C131 C132 1.477 1_554 S
C131 O146 1.258 . S
C131 O147 1.234 . S
C132 C131 1.477 1_556 S
C132 C133 1.392 . S
C132 C137 1.356 . S
C133 C132 1.392 . S
C133 C134 1.368 . S
C133 H156 0.929 1_455 S
C134 C133 1.368 . S
C134 C135 1.386 . S
C134 H157 0.929 1_455 S
C135 C134 1.386 . S
C135 C136 1.373 . S
C136 C135 1.373 . S
C136 C137 1.409 . S
C136 H158 0.931 . S
C137 C132 1.356 . S
C137 C136 1.409 . S
C137 H159 0.930 . S
C138 O148 1.270 . S
C138 O149 1.248 . S
C139 O150 1.267 . S
C139 O151 1.278 . S
O140 Pr120 2.562 . S
O140 C122 1.254 . S
O141 Pr120 2.490 . S
O141 C122 1.225 . S
O142 Pr120 2.695 . S
O142 Pr121 2.436 . S
O142 C129 1.270 . S
O143 Pr120 2.512 . S
O143 C129 1.248 . S
O144 Pr121 2.438 . S
O144 C130 1.267 . S
O145 Pr120 2.437 . S
O145 C130 1.278 . S
O146 Pr121 2.562 . S
O146 C131 1.258 . S
O147 Pr121 2.490 . S
O147 C131 1.234 . S
O148 Pr120 2.436 . S
O148 Pr121 2.695 . S
O148 C138 1.270 . S
O149 Pr121 2.512 . S
O149 C138 1.248 . S
O150 Pr120 2.438 . S
O150 C139 1.267 . S
O151 Pr121 2.437 . S
O151 C139 1.278 . S
H152 C124 0.929 . S
H153 C125 0.929 . S
H154 C127 0.931 . S
H155 C128 0.930 . S
H156 C133 0.929 1_655 S
H157 C134 0.929 1_655 S
H158 C136 0.931 . S
H159 C137 0.930 . S
Pr160 C162 2.880 . S
Pr160 O180 2.562 . S
Pr160 O181 2.490 . S
Pr160 O182 2.695 . S
Pr160 O183 2.512 . S
Pr160 O185 2.437 . S
Pr160 O188 2.436 . S
Pr160 O190 2.438 . S
Pr161 C171 2.880 . S
Pr161 O182 2.436 . S
Pr161 O184 2.438 . S
Pr161 O186 2.562 . S
Pr161 O187 2.490 . S
Pr161 O188 2.695 . S
Pr161 O189 2.512 . S
Pr161 O191 2.437 . S
C162 Pr160 2.880 . S
C162 C163 1.491 1_554 S
C162 O180 1.254 . S
C162 O181 1.225 . S
C163 C162 1.491 1_556 S
C163 C164 1.392 . S
C163 C168 1.356 . S
C164 C163 1.392 . S
C164 C165 1.368 . S
C164 H192 0.929 . S
C165 C164 1.368 . S
C165 C166 1.386 . S
C165 H193 0.929 . S
C166 C165 1.386 . S
C166 C167 1.373 . S
C167 C166 1.373 . S
C167 C168 1.409 . S
C167 H194 0.931 . S
C168 C163 1.356 . S
C168 C167 1.409 . S
C168 H195 0.930 . S
C169 O182 1.270 . S
C169 O183 1.248 . S
C170 O184 1.267 . S
C170 O185 1.278 . S
C171 Pr161 2.880 . S
C171 C172 1.491 . S
C171 O186 1.254 . S
C171 O187 1.225 . S
C172 C171 1.491 . S
C172 C173 1.392 . S
C172 C177 1.356 . S
C173 C172 1.392 . S
C173 C174 1.368 . S
C173 H196 0.929 . S
C174 C173 1.368 . S
C174 C175 1.386 . S
C174 H197 0.929 . S
C175 C174 1.386 . S
C175 C176 1.373 . S
C176 C175 1.373 . S
C176 C177 1.409 . S
C176 H198 0.931 . S
C177 C172 1.356 . S
C177 C176 1.409 . S
C177 H199 0.930 . S
C178 O188 1.270 . S
C178 O189 1.248 . S
C179 O190 1.267 . S
C179 O191 1.278 . S
O180 Pr160 2.562 . S
O180 C162 1.254 . S
O181 Pr160 2.490 . S
O181 C162 1.225 . S
O182 Pr160 2.695 . S
O182 Pr161 2.436 . S
O182 C169 1.270 . S
O183 Pr160 2.512 . S
O183 C169 1.248 . S
O184 Pr161 2.438 . S
O184 C170 1.267 . S
O185 Pr160 2.437 . S
O185 C170 1.278 . S
O186 Pr161 2.562 . S
O186 C171 1.254 . S
O187 Pr161 2.490 . S
O187 C171 1.225 . S
O188 Pr160 2.436 . S
O188 Pr161 2.695 . S
O188 C178 1.270 . S
O189 Pr161 2.512 . S
O189 C178 1.248 . S
O190 Pr160 2.438 . S
O190 C179 1.267 . S
O191 Pr161 2.437 . S
O191 C179 1.278 . S
H192 C164 0.929 . S
H193 C165 0.929 . S
H194 C167 0.931 . S
H195 C168 0.930 . S
H196 C173 0.929 . S
H197 C174 0.929 . S
H198 C176 0.931 . S
H199 C177 0.930 . S
Pr200 C202 2.880 . S
Pr200 O220 2.562 . S
Pr200 O221 2.490 . S
Pr200 O222 2.695 . S
Pr200 O223 2.512 . S
Pr200 O225 2.437 . S
Pr200 O228 2.436 . S
Pr200 O230 2.438 . S
Pr201 C211 2.880 . S
Pr201 O222 2.436 . S
Pr201 O224 2.438 . S
Pr201 O226 2.562 . S
Pr201 O227 2.490 . S
Pr201 O228 2.695 . S
Pr201 O229 2.512 . S
Pr201 O231 2.437 . S
C202 Pr200 2.880 . S
C202 C203 1.491 1_556 S
C202 O220 1.254 . S
C202 O221 1.225 . S
C203 C202 1.491 1_554 S
C203 C204 1.392 . S
C203 C208 1.356 . S
C204 C203 1.392 . S
C204 C205 1.368 . S
C204 H232 0.929 1_655 S
C205 C204 1.368 . S
C205 C206 1.386 . S
C205 H233 0.929 1_655 S
C206 C205 1.386 . S
C206 C207 1.373 . S
C207 C206 1.373 . S
C207 C208 1.409 . S
C207 H234 0.931 . S
C208 C203 1.356 . S
C208 C207 1.409 . S
C208 H235 0.930 . S
C209 O222 1.270 . S
C209 O223 1.248 . S
C210 O224 1.267 . S
C210 O225 1.278 . S
C211 Pr201 2.880 . S
C211 C212 1.491 . S
C211 O226 1.254 . S
C211 O227 1.225 . S
C212 C211 1.491 . S
C212 C213 1.392 . S
C212 C217 1.356 . S
C213 C212 1.392 . S
C213 C214 1.368 . S
C213 H236 0.929 . S
C214 C213 1.368 . S
C214 C215 1.386 . S
C214 H237 0.929 . S
C215 C214 1.386 . S
C215 C216 1.373 . S
C216 C215 1.373 . S
C216 C217 1.409 . S
C216 H238 0.931 . S
C217 C212 1.356 . S
C217 C216 1.409 . S
C217 H239 0.930 . S
C218 O228 1.270 . S
C218 O229 1.248 . S
C219 O230 1.267 . S
C219 O231 1.278 . S
O220 Pr200 2.562 . S
O220 C202 1.254 . S
O221 Pr200 2.490 . S
O221 C202 1.225 . S
O222 Pr200 2.695 . S
O222 Pr201 2.436 . S
O222 C209 1.270 . S
O223 Pr200 2.512 . S
O223 C209 1.248 . S
O224 Pr201 2.438 . S
O224 C210 1.267 . S
O225 Pr200 2.437 . S
O225 C210 1.278 . S
O226 Pr201 2.562 . S
O226 C211 1.254 . S
O227 Pr201 2.490 . S
O227 C211 1.225 . S
O228 Pr200 2.436 . S
O228 Pr201 2.695 . S
O228 C218 1.270 . S
O229 Pr201 2.512 . S
O229 C218 1.248 . S
O230 Pr200 2.438 . S
O230 C219 1.267 . S
O231 Pr201 2.437 . S
O231 C219 1.278 . S
H232 C204 0.929 1_455 S
H233 C205 0.929 1_455 S
H234 C207 0.931 . S
H235 C208 0.930 . S
H236 C213 0.929 . S
H237 C214 0.929 . S
H238 C216 0.931 . S
H239 C217 0.930 . S
Pr240 C242 2.880 . S
Pr240 O260 2.562 . S
Pr240 O261 2.490 . S
Pr240 O262 2.695 1_556 S
Pr240 O263 2.512 . S
Pr240 O265 2.437 . S
Pr240 O268 2.436 . S
Pr240 O270 2.438 . S
Pr241 C251 2.880 . S
Pr241 O262 2.436 . S
Pr241 O264 2.438 . S
Pr241 O266 2.562 . S
Pr241 O267 2.490 . S
Pr241 O268 2.695 1_554 S
Pr241 O269 2.512 . S
Pr241 O271 2.437 . S
C242 Pr240 2.880 . S
C242 C243 1.491 . S
C242 O260 1.254 . S
C242 O261 1.225 . S
C243 C242 1.491 . S
C243 C244 1.392 . S
C243 C248 1.356 . S
C244 C243 1.392 . S
C244 C245 1.368 . S
C244 H272 0.929 . S
C245 C244 1.368 . S
C245 C246 1.386 . S
C245 H273 0.929 . S
C246 C245 1.386 . S
C246 C247 1.373 . S
C247 C246 1.373 . S
C247 C248 1.409 . S
C247 H274 0.931 . S
C248 C243 1.356 . S
C248 C247 1.409 . S
C248 H275 0.930 . S
C249 O262 1.270 . S
C249 O263 1.248 1_554 S
C250 O264 1.267 1_556 S
C250 O265 1.278 . S
C251 Pr241 2.880 . S
C251 C252 1.491 . S
C251 O266 1.254 . S
C251 O267 1.225 . S
C252 C251 1.491 . S
C252 C253 1.392 . S
C252 C257 1.356 . S
C253 C252 1.392 . S
C253 C254 1.368 . S
C253 H276 0.929 . S
C254 C253 1.368 . S
C254 C255 1.386 . S
C254 H277 0.929 . S
C255 C254 1.386 . S
C255 C256 1.373 . S
C256 C255 1.373 . S
C256 C257 1.409 . S
C256 H278 0.931 . S
C257 C252 1.356 . S
C257 C256 1.409 . S
C257 H279 0.930 . S
C258 O268 1.270 . S
C258 O269 1.248 1_556 S
C259 O270 1.267 1_554 S
C259 O271 1.278 . S
O260 Pr240 2.562 . S
O260 C242 1.254 . S
O261 Pr240 2.490 . S
O261 C242 1.225 . S
O262 Pr240 2.695 1_554 S
O262 Pr241 2.436 . S
O262 C249 1.270 . S
O263 Pr240 2.512 . S
O263 C249 1.248 1_556 S
O264 Pr241 2.438 . S
O264 C250 1.267 1_554 S
O265 Pr240 2.437 . S
O265 C250 1.278 . S
O266 Pr241 2.562 . S
O266 C251 1.254 . S
O267 Pr241 2.490 . S
O267 C251 1.225 . S
O268 Pr240 2.436 . S
O268 Pr241 2.695 1_556 S
O268 C258 1.270 . S
O269 Pr241 2.512 . S
O269 C258 1.248 1_554 S
O270 Pr240 2.438 . S
O270 C259 1.267 1_556 S
O271 Pr241 2.437 . S
O271 C259 1.278 . S
H272 C244 0.929 . S
H273 C245 0.929 . S
H274 C247 0.931 . S
H275 C248 0.930 . S
H276 C253 0.929 . S
H277 C254 0.929 . S
H278 C256 0.931 . S
H279 C257 0.930 . S
Pr280 C282 2.880 1_455 S
Pr280 O300 2.562 . S
Pr280 O301 2.490 1_455 S
Pr280 O302 2.695 1_455 S
Pr280 O303 2.512 1_455 S
Pr280 O305 2.437 1_455 S
Pr280 O308 2.436 . S
Pr280 O310 2.438 . S
Pr281 C291 2.880 1_655 S
Pr281 O302 2.436 . S
Pr281 O304 2.438 . S
Pr281 O306 2.562 . S
Pr281 O307 2.490 1_655 S
Pr281 O308 2.695 1_655 S
Pr281 O309 2.512 1_655 S
Pr281 O311 2.437 1_655 S
C282 Pr280 2.880 1_655 S
C282 C283 1.491 . S
C282 O300 1.254 1_655 S
C282 O301 1.225 . S
C283 C282 1.491 . S
C283 C284 1.392 . S
C283 C288 1.356 . S
C284 C283 1.392 . S
C284 C285 1.368 . S
C284 H312 0.929 . S
C285 C284 1.368 . S
C285 C286 1.386 . S
C285 H313 0.929 . S
C286 C285 1.386 . S
C286 C287 1.373 . S
C287 C286 1.373 . S
C287 C288 1.409 . S
C287 H314 0.931 . S
C288 C283 1.356 . S
C288 C287 1.409 . S
C288 H315 0.930 1_655 S
C289 O302 1.270 . S
C289 O303 1.248 . S
C290 O304 1.267 . S
C290 O305 1.278 . S
C291 Pr281 2.880 1_455 S
C291 C292 1.491 . S
C291 O306 1.254 1_455 S
C291 O307 1.225 . S
C292 C291 1.491 . S
C292 C293 1.392 . S
C292 C297 1.356 . S
C293 C292 1.392 . S
C293 C294 1.368 . S
C293 H316 0.929 . S
C294 C293 1.368 . S
C294 C295 1.386 . S
C294 H317 0.929 . S
C295 C294 1.386 . S
C295 C296 1.373 . S
C296 C295 1.373 . S
C296 C297 1.409 . S
C296 H318 0.931 . S
C297 C292 1.356 . S
C297 C296 1.409 . S
C297 H319 0.930 1_455 S
C298 O308 1.270 . S
C298 O309 1.248 . S
C299 O310 1.267 . S
C299 O311 1.278 . S
O300 Pr280 2.562 . S
O300 C282 1.254 1_455 S
O301 Pr280 2.490 1_655 S
O301 C282 1.225 . S
O302 Pr280 2.695 1_655 S
O302 Pr281 2.436 . S
O302 C289 1.270 . S
O303 Pr280 2.512 1_655 S
O303 C289 1.248 . S
O304 Pr281 2.438 . S
O304 C290 1.267 . S
O305 Pr280 2.437 1_655 S
O305 C290 1.278 . S
O306 Pr281 2.562 . S
O306 C291 1.254 1_655 S
O307 Pr281 2.490 1_455 S
O307 C291 1.225 . S
O308 Pr280 2.436 . S
O308 Pr281 2.695 1_455 S
O308 C298 1.270 . S
O309 Pr281 2.512 1_455 S
O309 C298 1.248 . S
O310 Pr280 2.438 . S
O310 C299 1.267 . S
O311 Pr281 2.437 1_455 S
O311 C299 1.278 . S
H312 C284 0.929 . S
H313 C285 0.929 . S
H314 C287 0.931 . S
H315 C288 0.930 1_455 S
H316 C293 0.929 . S
H317 C294 0.929 . S
H318 C296 0.931 . S
H319 C297 0.930 1_655 S
C10 C130 2.622 . S
C9 C50 2.297 . S
C49 C89 2.069 . S
C90 C129 2.297 . S
C19 C219 2.623 . S
C18 C179 2.297 . S
C178 C98 2.070 . S
C218 C99 2.297 . S
C250 C210 2.622 . S
C170 C249 2.297 . S
C289 C169 2.069 . S
C209 C290 2.296 . S
C139 C259 2.622 . S
C258 C59 2.297 . S
C58 C298 2.070 . S
C138 C299 2.297 . S
C15 C6 5.426 1_646 S
C46 C55 3.925 . S
C95 C86 3.925 1_545 S
C135 C126 5.425 . S
C166 C175 3.924 . S
C215 C206 5.426 . S
C246 C255 5.426 . S
C286 C295 3.925 1_656 S
