# Generated by pormake.
# Topology snk, (6)-cn, num edge types: 1
# Building blocks:
#     Node 0, Type 0, BuildingBlock: KUMJIN_clean_sbu_1, # of connection points: 6
#     Node 1, Type 0, BuildingBlock: KUMJIN_clean_sbu_1, # of connection points: 6
#     Node 2, Type 0, BuildingBlock: KUMJIN_clean_sbu_1, # of connection points: 6
#     Node 3, Type 0, BuildingBlock: KUMJIN_clean_sbu_1, # of connection points: 6
#     Node 4, Type 0, BuildingBlock: KUMJIN_clean_sbu_1, # of connection points: 6
#     Node 5, Type 0, BuildingBlock: KUMJIN_clean_sbu_1, # of connection points: 6
#     Node 6, Type 0, BuildingBlock: KUMJIN_clean_sbu_1, # of connection points: 6
#     Node 7, Type 0, BuildingBlock: KUMJIN_clean_sbu_1, # of connection points: 6
#     Edge 8, Type (0, 0), BuildingBlock: KIFKEQ_clean_linker_1, # of connection points: 2
#     Edge 9, Type (0, 0), BuildingBlock: KIFKEQ_clean_linker_1, # of connection points: 2
#     Edge 10, Type (0, 0), BuildingBlock: KIFKEQ_clean_linker_1, # of connection points: 2
#     Edge 11, Type (0, 0), BuildingBlock: KIFKEQ_clean_linker_1, # of connection points: 2
#     Edge 12, Type (0, 0), BuildingBlock: KIFKEQ_clean_linker_1, # of connection points: 2
#     Edge 13, Type (0, 0), BuildingBlock: KIFKEQ_clean_linker_1, # of connection points: 2
#     Edge 14, Type (0, 0), BuildingBlock: KIFKEQ_clean_linker_1, # of connection points: 2
#     Edge 15, Type (0, 0), BuildingBlock: KIFKEQ_clean_linker_1, # of connection points: 2
#     Edge 16, Type (0, 0), BuildingBlock: KIFKEQ_clean_linker_1, # of connection points: 2
#     Edge 17, Type (0, 0), BuildingBlock: KIFKEQ_clean_linker_1, # of connection points: 2
#     Edge 18, Type (0, 0), BuildingBlock: KIFKEQ_clean_linker_1, # of connection points: 2
#     Edge 19, Type (0, 0), BuildingBlock: KIFKEQ_clean_linker_1, # of connection points: 2
#     Edge 20, Type (0, 0), BuildingBlock: KIFKEQ_clean_linker_1, # of connection points: 2
#     Edge 21, Type (0, 0), BuildingBlock: KIFKEQ_clean_linker_1, # of connection points: 2
#     Edge 22, Type (0, 0), BuildingBlock: KIFKEQ_clean_linker_1, # of connection points: 2
#     Edge 23, Type (0, 0), BuildingBlock: KIFKEQ_clean_linker_1, # of connection points: 2
#     Edge 24, Type (0, 0), BuildingBlock: KIFKEQ_clean_linker_1, # of connection points: 2
#     Edge 25, Type (0, 0), BuildingBlock: KIFKEQ_clean_linker_1, # of connection points: 2
#     Edge 26, Type (0, 0), BuildingBlock: KIFKEQ_clean_linker_1, # of connection points: 2
#     Edge 27, Type (0, 0), BuildingBlock: KIFKEQ_clean_linker_1, # of connection points: 2
#     Edge 28, Type (0, 0), BuildingBlock: KIFKEQ_clean_linker_1, # of connection points: 2
#     Edge 29, Type (0, 0), BuildingBlock: KIFKEQ_clean_linker_1, # of connection points: 2
#     Edge 30, Type (0, 0), BuildingBlock: KIFKEQ_clean_linker_1, # of connection points: 2
#     Edge 31, Type (0, 0), BuildingBlock: KIFKEQ_clean_linker_1, # of connection points: 2
# Relax obj value: 0.008
# Max RMSD: 0.072
# Mean RMSD: 0.071
data_MOF--net-snk--node1-KUMJIN_clean_sbu_1--edge1-KIFKEQ_clean_linker_1
_symmetry_space_group_name_H-M    P1
_symmetry_Int_Tables_number       1
_symmetry_cell_setting            triclinic
loop_
_symmetry_equiv_pos_as_xyz
'x, y, z'
_cell_length_a     39.174054
_cell_length_b     39.194457
_cell_length_c     25.051958
_cell_angle_alpha  90.330374
_cell_angle_beta   89.921648
_cell_angle_gamma 90.019894
loop_
_atom_site_label
_atom_site_type_symbol
_atom_site_fract_x
_atom_site_fract_y
_atom_site_fract_z
_atom_type_partial_charge
Eu0 Eu 0.99874 0.02947 0.58179 0.0
C1 C 0.98407 0.89736 0.4403 0.0
N2 N 0.01304 0.91601 0.44695 0.0
C3 C 0.0463 0.86488 0.45248 0.0
C4 C 0.98516 0.86141 0.44016 0.0
C5 C 0.04397 0.90047 0.45225 0.0
C6 C 0.01675 0.84525 0.44663 0.0
C7 C 0.92274 0.89566 0.42645 0.0
C8 C 0.95318 0.91434 0.43338 0.0
C9 C 0.92372 0.85984 0.42671 0.0
C10 C 0.95483 0.84278 0.4335 0.0
Eu11 Eu 0.0065 0.97572 0.44648 0.0
N12 N 0.95286 0.94909 0.43448 0.0
C13 C 0.89217 0.91354 0.41941 0.0
C14 C 0.9234 0.96659 0.42531 0.0
C15 C 0.89258 0.94915 0.4184 0.0
H16 H 0.06696 0.91551 0.45534 0.0
H17 H 0.86919 0.96319 0.4118 0.0
H18 H 0.93759 0.08902 0.57363 0.0
H19 H 0.13603 0.04341 0.61569 0.0
H20 H 0.92346 0.9939 0.42241 0.0
H21 H 0.86823 0.90012 0.414 0.0
H22 H 0.08206 0.01212 0.60541 0.0
H23 H 0.07088 0.85263 0.45685 0.0
H24 H 0.90056 0.84508 0.42155 0.0
H25 H 0.95516 0.81514 0.43343 0.0
H26 H 0.93304 0.15189 0.57192 0.0
H27 H 0.01865 0.81767 0.44673 0.0
H28 H 0.13633 0.10648 0.61326 0.0
N29 N 0.99153 0.0891 0.58175 0.0
C30 C 0.02036 0.10804 0.58791 0.0
C31 C 0.95776 0.13988 0.57619 0.0
C32 C 0.01891 0.14397 0.58798 0.0
C33 C 0.96043 0.10432 0.57657 0.0
C34 C 0.98713 0.15981 0.58175 0.0
N35 N 0.05218 0.05662 0.59335 0.0
C36 C 0.08183 0.03943 0.60244 0.0
C37 C 0.08176 0.11038 0.60107 0.0
C38 C 0.0515 0.09138 0.59435 0.0
C39 C 0.11252 0.09281 0.608 0.0
C40 C 0.11249 0.0572 0.60915 0.0
H41 H 0.98497 0.18737 0.58154 0.0
H42 H 0.04847 0.19055 0.59429 0.0
H43 H 0.10342 0.16118 0.60574 0.0
O44 O 0.00723 0.00804 0.661 0.0
O45 O 0.02535 0.05461 0.51073 0.0
O46 O 0.05094 0.01017 0.46671 0.0
O47 O 0.97072 0.04877 0.65113 0.0
O48 O 0.02759 0.97892 0.58327 0.0
O49 O 0.05252 0.97139 0.50056 0.0
O50 O 0.9963 0.9942 0.36573 0.0
O51 O 0.98032 0.95054 0.51795 0.0
O52 O 0.95425 0.99522 0.56069 0.0
O53 O 0.03691 0.95793 0.37897 0.0
O54 O 0.97833 0.02676 0.44503 0.0
O55 O 0.95286 0.03339 0.52748 0.0
C56 C 0.04829 0.04285 0.477 0.0
C57 C 1.00095 0.04656 0.73262 0.0
C58 C 0.01368 0.04579 0.8277 0.0
C59 C 0.03061 0.07719 0.82268 0.0
C60 C 0.01761 0.07814 0.72858 0.0
C61 C 0.03239 0.09331 0.77336 0.0
C62 C 0.99874 0.03053 0.7825 0.0
C63 C 0.05074 0.96484 0.55193 0.0
C64 C 0.98695 0.0296 0.68493 0.0
C65 C 0.04909 0.16291 0.59427 0.0
C66 C 0.0804 0.14618 0.60079 0.0
C67 C 0.957 0.96245 0.55091 0.0
C68 C 0.00875 0.9554 0.29586 0.0
C69 C 0.00272 0.95223 0.1993 0.0
C70 C 0.99291 0.91792 0.20355 0.0
C71 C 0.99864 0.92112 0.29939 0.0
C72 C 0.01026 0.97109 0.24566 0.0
C73 C 0.99061 0.90257 0.25345 0.0
C74 C 0.95503 0.04061 0.47637 0.0
C75 C 0.01924 0.97457 0.34371 0.0
H76 H 0.04212 0.08942 0.85713 0.0
H77 H 0.01918 0.09116 0.691 0.0
H78 H 0.04527 0.11763 0.76982 0.0
H79 H 0.98602 0.00605 0.78596 0.0
H80 H 0.987 0.90303 0.16817 0.0
H81 H 0.99752 0.90844 0.33738 0.0
H82 H 0.0183 0.9975 0.24251 0.0
H83 H 0.98303 0.8761 0.25648 0.0
Eu84 Eu 0.22448 0.75368 0.83391 0.0
C85 C 0.35871 0.728 0.70097 0.0
N86 N 0.34098 0.75781 0.70266 0.0
C87 C 0.39312 0.78965 0.70552 0.0
C88 C 0.39468 0.72797 0.70266 0.0
C89 C 0.35749 0.78842 0.70394 0.0
C90 C 0.41181 0.75931 0.70519 0.0
C91 C 0.35856 0.66603 0.69763 0.0
C92 C 0.34081 0.69733 0.69849 0.0
C93 C 0.39438 0.66596 0.69959 0.0
C94 C 0.41238 0.69682 0.70208 0.0
Eu95 Eu 0.28111 0.75309 0.70127 0.0
N96 N 0.30604 0.6981 0.69862 0.0
C97 C 0.33975 0.6357 0.6951 0.0
C98 C 0.28768 0.6687 0.69362 0.0
C99 C 0.30419 0.63708 0.69252 0.0
H100 H 0.34316 0.81189 0.70276 0.0
H101 H 0.28946 0.61379 0.68935 0.0
H102 H 0.16395 0.69315 0.82889 0.0
H103 H 0.21263 0.89245 0.84992 0.0
H104 H 0.26041 0.66938 0.68987 0.0
H105 H 0.35245 0.61115 0.69443 0.0
H106 H 0.24318 0.83762 0.84668 0.0
H107 H 0.40615 0.814 0.70678 0.0
H108 H 0.40842 0.64214 0.69923 0.0
H109 H 0.44002 0.69631 0.70358 0.0
H110 H 0.10105 0.68957 0.82493 0.0
H111 H 0.43944 0.76035 0.70655 0.0
H112 H 0.14955 0.89349 0.84611 0.0
N113 N 0.16477 0.7473 0.83208 0.0
C114 C 0.14628 0.77662 0.83514 0.0
C115 C 0.11345 0.7142 0.82748 0.0
C116 C 0.11032 0.77575 0.83353 0.0
C117 C 0.14904 0.71631 0.82907 0.0
C118 C 0.09399 0.74404 0.82948 0.0
N119 N 0.19817 0.80788 0.83831 0.0
C120 C 0.21582 0.83767 0.84383 0.0
C121 C 0.14484 0.83852 0.84103 0.0
C122 C 0.16339 0.80772 0.83885 0.0
C123 C 0.16288 0.86929 0.84443 0.0
C124 C 0.1985 0.86882 0.84631 0.0
H125 H 0.0664 0.74232 0.82812 0.0
H126 H 0.06418 0.80623 0.83426 0.0
H127 H 0.09437 0.86112 0.84078 0.0
O128 O 0.2435 0.76782 0.91295 0.0
O129 O 0.20245 0.77878 0.75976 0.0
O130 O 0.24814 0.80019 0.71304 0.0
O131 O 0.20199 0.73175 0.90557 0.0
O132 O 0.27612 0.78036 0.8352 0.0
O133 O 0.28752 0.80122 0.7509 0.0
O134 O 0.26618 0.73539 0.62203 0.0
O135 O 0.30327 0.72964 0.77696 0.0
O136 O 0.2573 0.7068 0.82089 0.0
O137 O 0.30129 0.7776 0.62965 0.0
O138 O 0.22834 0.72867 0.70005 0.0
O139 O 0.21959 0.70583 0.78344 0.0
C140 C 0.21555 0.80034 0.72541 0.0
C141 C 0.23889 0.72567 0.97895 0.0
C142 C 0.25473 0.71714 0.07212 0.0
C143 C 0.2673 0.68456 0.05829 0.0
C144 C 0.25169 0.69332 0.9661 0.0
C145 C 0.26603 0.67295 1.00558 0.0
C146 C 0.24075 0.73769 0.03168 0.0
C147 C 0.2919 0.80171 0.80306 0.0
C148 C 0.22314 0.74698 0.93789 0.0
C149 C 0.09182 0.80642 0.83562 0.0
C150 C 0.10902 0.83769 0.83935 0.0
C151 C 0.29015 0.70763 0.81066 0.0
C152 C 0.26421 0.777 0.55557 0.0
C153 C 0.24724 0.78263 0.46259 0.0
C154 C 0.22458 0.80885 0.47738 0.0
C155 C 0.24148 0.80313 0.56955 0.0
C156 C 0.26723 0.76686 0.50199 0.0
C157 C 0.22183 0.81908 0.53062 0.0
C158 C 0.21343 0.70656 0.73184 0.0
C159 C 0.28328 0.75892 0.59703 0.0
H160 H 0.2775 0.66764 0.0883 0.0
H161 H 0.25008 0.68374 0.9257 0.0
H162 H 0.27571 0.64786 0.99546 0.0
H163 H 0.23131 0.76303 0.04093 0.0
H164 H 0.20917 0.82158 0.44766 0.0
H165 H 0.23888 0.8109 0.61063 0.0
H166 H 0.28441 0.74624 0.49122 0.0
H167 H 0.20431 0.83926 0.54174 0.0
Eu168 Eu 0.50168 0.9773 0.09025 0.0
C169 C 0.51355 0.10932 0.94126 0.0
N170 N 0.48729 0.08806 0.95356 0.0
C171 C 0.45022 0.13619 0.96645 0.0
C172 C 0.50938 0.14509 0.94338 0.0
C173 C 0.45548 0.10098 0.96325 0.0
C174 C 0.47742 0.15837 0.95729 0.0
C175 C 0.57175 0.11684 0.90989 0.0
C176 C 0.54438 0.09537 0.92438 0.0
C177 C 0.56795 0.15238 0.91357 0.0
C178 C 0.53686 0.16646 0.93026 0.0
Eu179 Eu 0.49932 0.02888 0.9475 0.0
N180 N 0.5476 0.06085 0.92182 0.0
C181 C 0.60221 0.10193 0.89213 0.0
C182 C 0.57675 0.04627 0.90253 0.0
C183 C 0.6046 0.06649 0.88805 0.0
H184 H 0.43368 0.08443 0.96657 0.0
H185 H 0.62776 0.05474 0.87321 0.0
H186 H 0.56055 0.91362 0.08935 0.0
H187 H 0.36821 0.96962 0.15104 0.0
H188 H 0.5784 0.01911 0.89689 0.0
H189 H 0.62383 0.11755 0.88078 0.0
H190 H 0.42341 0.99799 0.1326 0.0
H191 H 0.42502 0.1462 0.97491 0.0
H192 H 0.5888 0.16923 0.90301 0.0
H193 H 0.53414 0.19396 0.93202 0.0
H194 H 0.56152 0.85085 0.08528 0.0
H195 H 0.47319 0.18567 0.95925 0.0
H196 H 0.36315 0.90695 0.14097 0.0
N197 N 0.50621 0.91691 0.08999 0.0
C198 C 0.47641 0.89946 0.09561 0.0
C199 C 0.53737 0.86419 0.08751 0.0
C200 C 0.47593 0.86346 0.0953 0.0
C201 C 0.53664 0.89984 0.08904 0.0
C202 C 0.50684 0.84591 0.08965 0.0
N203 N 0.44833 0.95215 0.10947 0.0
C204 C 0.42111 0.97076 0.12735 0.0
C205 C 0.41595 0.90022 0.11734 0.0
C206 C 0.44672 0.91754 0.10661 0.0
C207 C 0.38726 0.91933 0.13241 0.0
C208 C 0.39 0.95472 0.13813 0.0
H209 H 0.50753 0.81828 0.08916 0.0
H210 H 0.44406 0.8185 0.10242 0.0
H211 H 0.39154 0.8507 0.12163 0.0
O212 O 0.49319 1.00213 0.16774 0.0
O213 O 0.45711 0.96825 0.03345 0.0
O214 O 0.48634 0.97306 0.95601 0.0
O215 O 0.53017 0.96172 0.16063 0.0
O216 O 0.48274 0.03124 0.08211 0.0
O217 O 0.45355 0.03246 1.0036 0.0
O218 O 0.50754 0.02189 0.86211 0.0
O219 O 0.53029 0.05312 1.01471 0.0
O220 O 0.54848 0.00764 0.06608 0.0
O221 O 0.45701 0.03417 0.8914 0.0
O222 O 0.53891 0.98648 0.94858 0.0
O223 O 0.54199 0.95881 0.03139 0.0
C224 C 0.45977 0.96212 0.98217 0.0
C225 C 0.49923 0.96513 0.24077 0.0
C226 C 0.48827 0.96537 0.33649 0.0
C227 C 0.47277 0.93312 0.33146 0.0
C228 C 0.48418 0.93272 0.23692 0.0
C229 C 0.4708 0.91696 0.28195 0.0
C230 C 0.50111 0.98153 0.29061 0.0
C231 C 0.4557 0.03974 0.05481 0.0
C232 C 0.51343 0.98155 0.19313 0.0
C233 C 0.44494 0.84613 0.10307 0.0
C234 C 0.41503 0.86447 0.11413 0.0
C235 C 0.55012 0.03984 0.05171 0.0
C236 C 0.47231 0.05303 0.80472 0.0
C237 C 0.47337 0.06225 0.70863 0.0
C238 C 0.46576 0.09688 0.71747 0.0
C239 C 0.46495 0.08768 0.81287 0.0
C240 C 0.47668 0.04047 0.75267 0.0
C241 C 0.46166 0.10945 0.76933 0.0
C242 C 0.55192 0.96378 0.98162 0.0
C243 C 0.47629 0.02946 0.84952 0.0
H244 H 0.46201 0.92039 0.36586 0.0
H245 H 0.48313 0.91935 0.19932 0.0
H246 H 0.45907 0.89204 0.27851 0.0
H247 H 0.5132 0.00635 0.29375 0.0
H248 H 0.46339 0.11434 0.68433 0.0
H249 H 0.46167 0.09795 0.8526 0.0
H250 H 0.48223 0.01361 0.74653 0.0
H251 H 0.45596 0.13618 0.77579 0.0
Eu252 Eu 0.22847 0.2537 0.19834 0.0
C253 C 0.35173 0.29268 0.33913 0.0
N254 N 0.34017 0.26103 0.3262 0.0
C255 C 0.39704 0.24247 0.30651 0.0
C256 C 0.38664 0.30081 0.33433 0.0
C257 C 0.36215 0.23569 0.31152 0.0
C258 C 0.40933 0.27525 0.31757 0.0
C259 C 0.33968 0.3502 0.36983 0.0
C260 C 0.3284 0.31705 0.35651 0.0
C261 C 0.37431 0.35869 0.36375 0.0
C262 C 0.39773 0.33405 0.34617 0.0
Eu263 Eu 0.28147 0.25116 0.33748 0.0
N264 N 0.29503 0.30802 0.36233 0.0
C265 C 0.31598 0.37359 0.39022 0.0
C266 C 0.27259 0.32989 0.38637 0.0
C267 C 0.28242 0.3632 0.39934 0.0
H268 H 0.3527 0.21029 0.30367 0.0
H269 H 0.26427 0.38059 0.41744 0.0
H270 H 0.17028 0.31687 0.2115 0.0
H271 H 0.20643 0.12278 0.13326 0.0
H272 H 0.24743 0.3216 0.3975 0.0
H273 H 0.32362 0.39931 0.4009 0.0
H274 H 0.24029 0.17502 0.15147 0.0
H275 H 0.41442 0.22245 0.2942 0.0
H276 H 0.38335 0.3841 0.37346 0.0
H277 H 0.42442 0.34089 0.34227 0.0
H278 H 0.10847 0.32294 0.22708 0.0
H279 H 0.43636 0.28048 0.31341 0.0
H280 H 0.14427 0.12245 0.15138 0.0
N281 N 0.16895 0.26268 0.2084 0.0
C282 C 0.14875 0.23465 0.20362 0.0
C283 C 0.1195 0.29786 0.22143 0.0
C284 C 0.11302 0.23701 0.20969 0.0
C285 C 0.15469 0.29427 0.21393 0.0
C286 C 0.09861 0.26901 0.22027 0.0
N287 N 0.19784 0.20303 0.18093 0.0
C288 C 0.2132 0.17482 0.15954 0.0
C289 C 0.14322 0.17498 0.17875 0.0
C290 C 0.16355 0.20401 0.1885 0.0
C291 C 0.15901 0.14529 0.15944 0.0
C292 C 0.19411 0.14537 0.14914 0.0
H293 H 0.07128 0.27191 0.22525 0.0
H294 H 0.06532 0.20898 0.2078 0.0
H295 H 0.09179 0.15464 0.1806 0.0
O296 O 0.25293 0.24662 0.12002 0.0
O297 O 0.22056 0.20869 0.25526 0.0
O298 O 0.22653 0.23332 0.33774 0.0
O299 O 0.20975 0.28014 0.128 0.0
O300 O 0.27956 0.22686 0.19926 0.0
O301 O 0.28734 0.20434 0.28367 0.0
O302 O 0.28675 0.25567 0.4252 0.0
O303 O 0.30651 0.27242 0.26207 0.0
O304 O 0.26138 0.29865 0.22259 0.0
O305 O 0.29741 0.20735 0.38408 0.0
O306 O 0.22917 0.27624 0.33891 0.0
O307 O 0.22254 0.29924 0.25493 0.0
C308 C 0.21309 0.21005 0.3064 0.0
C309 C 0.2151 0.25036 0.04654 0.0
C310 C 0.21566 0.24072 0.95011 0.0
C311 C 0.1828 0.22656 0.95367 0.0
C312 C 0.1824 0.23574 0.04906 0.0
C313 C 0.16645 0.22386 1.00289 0.0
C314 C 0.23201 0.25229 0.99695 0.0
C315 C 0.2913 0.20309 0.23128 0.0
C316 C 0.23065 0.26518 0.095 0.0
C317 C 0.09277 0.20771 0.20284 0.0
C318 C 0.10783 0.17678 0.18725 0.0
C319 C 0.29432 0.29603 0.2303 0.0
C320 C 0.30625 0.20765 0.47974 0.0
C321 C 0.30325 0.20233 0.57716 0.0
C322 C 0.32883 0.1771 0.57413 0.0
C323 C 0.33097 0.18182 0.47824 0.0
C324 C 0.29241 0.21805 0.52937 0.0
C325 C 0.34229 0.16685 0.52516 0.0
C326 C 0.21535 0.29855 0.30631 0.0
C327 C 0.29642 0.22405 0.4292 0.0
H328 H 0.16989 0.21724 0.91825 0.0
H329 H 0.16884 0.23408 0.08657 0.0
H330 H 0.14118 0.2128 1.0052 0.0
H331 H 0.25727 0.2635 0.9946 0.0
H332 H 0.33881 0.16529 0.60981 0.0
H333 H 0.34213 0.17363 0.44069 0.0
H334 H 0.27296 0.2377 0.53053 0.0
H335 H 0.36179 0.14731 0.52363 0.0
Eu336 Eu 0.72423 0.25218 0.33472 0.0
C337 C 0.85451 0.22066 0.20283 0.0
N338 N 0.83895 0.2516 0.20696 0.0
C339 C 0.89306 0.27923 0.2176 0.0
C340 C 0.89029 0.21788 0.20714 0.0
C341 C 0.85752 0.28075 0.21352 0.0
C342 C 0.90952 0.24766 0.21461 0.0
C343 C 0.85001 0.15907 0.19353 0.0
C344 C 0.83447 0.19149 0.19631 0.0
C345 C 0.88564 0.15629 0.19789 0.0
C346 C 0.9057 0.18558 0.20464 0.0
Eu347 Eu 0.77909 0.25138 0.19975 0.0
N348 N 0.79982 0.19475 0.19401 0.0
C349 C 0.82928 0.13034 0.18643 0.0
C350 C 0.77979 0.16702 0.18383 0.0
C351 C 0.79408 0.13439 0.18088 0.0
H352 H 0.845 0.30525 0.2146 0.0
H353 H 0.77796 0.11242 0.17361 0.0
H354 H 0.66569 0.18959 0.33229 0.0
H355 H 0.70833 0.39039 0.35131 0.0
H356 H 0.75297 0.1698 0.17649 0.0
H357 H 0.84026 0.105 0.18413 0.0
H358 H 0.74053 0.33663 0.34353 0.0
H359 H 0.90773 0.3024 0.22288 0.0
H360 H 0.89795 0.13156 0.19611 0.0
H361 H 0.93314 0.18296 0.2081 0.0
H362 H 0.60291 0.18393 0.33445 0.0
H363 H 0.93706 0.24657 0.21808 0.0
H364 H 0.64525 0.38924 0.35544 0.0
N365 N 0.66482 0.24374 0.33719 0.0
C366 C 0.64551 0.27237 0.3428 0.0
C367 C 0.61456 0.20894 0.33656 0.0
C368 C 0.60961 0.27028 0.34483 0.0
C369 C 0.65007 0.21225 0.33475 0.0
C370 C 0.59423 0.23807 0.34148 0.0
N371 N 0.69626 0.30539 0.3407 0.0
C372 C 0.7131 0.33577 0.34422 0.0
C373 C 0.64221 0.33415 0.35017 0.0
C374 C 0.66165 0.30401 0.34537 0.0
C375 C 0.65929 0.36552 0.35184 0.0
C376 C 0.69489 0.36629 0.34922 0.0
H377 H 0.56671 0.23541 0.34283 0.0
H378 H 0.56259 0.29914 0.35125 0.0
H379 H 0.5911 0.35499 0.35594 0.0
O380 O 0.74366 0.26847 0.41232 0.0
O381 O 0.70053 0.27828 0.2625 0.0
O382 O 0.74508 0.29775 0.21048 0.0
O383 O 0.70548 0.22877 0.4081 0.0
O384 O 0.77544 0.27957 0.33304 0.0
O385 O 0.78455 0.30024 0.24792 0.0
O386 O 0.76325 0.23977 0.11771 0.0
O387 O 0.80202 0.22969 0.27608 0.0
O388 O 0.75694 0.20539 0.31977 0.0
O389 O 0.80573 0.27364 0.13209 0.0
O390 O 0.72624 0.22706 0.19929 0.0
O391 O 0.7191 0.20475 0.28346 0.0
C392 C 0.71276 0.29815 0.22484 0.0
C393 C 0.74452 0.22716 0.47957 0.0
C394 C 0.76248 0.22047 0.57193 0.0
C395 C 0.78325 0.1929 0.55632 0.0
C396 C 0.7652 0.19954 0.46478 0.0
C397 C 0.78446 0.18245 0.50302 0.0
C398 C 0.74297 0.23747 0.53325 0.0
C399 C 0.78982 0.30124 0.29986 0.0
C400 C 0.72575 0.24629 0.43897 0.0
C401 C 0.59021 0.30027 0.34972 0.0
C402 C 0.60645 0.33209 0.35243 0.0
C403 C 0.7896 0.20652 0.30834 0.0
C404 C 0.77424 0.28228 0.05328 0.0
C405 C 0.76328 0.29138 0.95872 0.0
C406 C 0.7564 0.3259 0.96964 0.0
C407 C 0.76795 0.31696 0.0632 0.0
C408 C 0.77155 0.26942 1.00097 0.0
C409 C 0.7585 0.33851 0.02168 0.0
C410 C 0.71115 0.20596 0.23256 0.0
C411 C 0.7859 0.25987 0.09639 0.0
H412 H 0.79836 0.17932 0.58547 0.0
H413 H 0.76643 0.19142 0.42367 0.0
H414 H 0.80046 0.16117 0.4913 0.0
H415 H 0.7273 0.25914 0.54463 0.0
H416 H 0.74979 0.34319 0.93769 0.0
H417 H 0.77127 0.32747 0.10281 0.0
H418 H 0.77731 0.24282 0.99286 0.0
H419 H 0.75358 0.36523 0.02966 0.0
Eu420 Eu 0.72389 0.75729 0.69511 0.0
C421 C 0.85375 0.78138 0.83349 0.0
N422 N 0.83909 0.75079 0.82182 0.0
C423 C 0.89389 0.72646 0.80292 0.0
C424 C 0.88936 0.78579 0.82916 0.0
C425 C 0.85846 0.72336 0.80741 0.0
C426 C 0.90941 0.75785 0.81362 0.0
C427 C 0.8474 0.8408 0.85939 0.0
C428 C 0.83284 0.80867 0.8479 0.0
C429 C 0.88285 0.84532 0.8548 0.0
C430 C 0.90376 0.81792 0.83971 0.0
Eu431 Eu 0.7793 0.7479 0.82967 0.0
N432 N 0.79843 0.80376 0.85101 0.0
C433 C 0.82595 0.86736 0.87594 0.0
C434 C 0.77793 0.82885 0.87121 0.0
C435 C 0.79116 0.86118 0.88272 0.0
H436 H 0.8466 0.69896 0.80011 0.0
H437 H 0.77459 0.88112 0.89783 0.0
H438 H 0.65969 0.81115 0.7218 0.0
H439 H 0.72061 0.62232 0.63645 0.0
H440 H 0.75166 0.82397 0.8806 0.0
H441 H 0.83615 0.89241 0.8852 0.0
H442 H 0.74735 0.67788 0.65282 0.0
H443 H 0.90919 0.70465 0.7913 0.0
H444 H 0.8944 0.86989 0.8632 0.0
H445 H 0.93105 0.82184 0.83637 0.0
H446 H 0.59681 0.80973 0.72889 0.0
H447 H 0.93686 0.76024 0.80982 0.0
H448 H 0.65805 0.61596 0.64483 0.0
N449 N 0.66398 0.75861 0.70194 0.0
C450 C 0.64742 0.72897 0.69051 0.0
C451 C 0.61074 0.78681 0.7184 0.0
C452 C 0.61153 0.72705 0.69374 0.0
C453 C 0.64633 0.78746 0.715 0.0
C454 C 0.59325 0.75644 0.70792 0.0
N455 N 0.70128 0.70246 0.67619 0.0
C456 C 0.72045 0.67535 0.6596 0.0
C457 C 0.64999 0.66882 0.66704 0.0
C458 C 0.66655 0.7001 0.67761 0.0
C459 C 0.66982 0.64042 0.65327 0.0
C460 C 0.70515 0.64384 0.64888 0.0
H461 H 0.56565 0.75597 0.71084 0.0
H462 H 0.56755 0.69387 0.68603 0.0
H463 H 0.60115 0.64299 0.66246 0.0
O464 O 0.73824 0.75342 0.60928 0.0
O465 O 0.69891 0.73017 0.76575 0.0
O466 O 0.74397 0.70428 0.80731 0.0
O467 O 0.70065 0.79066 0.63716 0.0
O468 O 0.77487 0.72959 0.68937 0.0
O469 O 0.78313 0.7038 0.77119 0.0
O470 O 0.76549 0.74982 0.9161 0.0
O471 O 0.80438 0.77345 0.75782 0.0
O472 O 0.75952 0.80056 0.71796 0.0
O473 O 0.80389 0.71427 0.88551 0.0
O474 O 0.7276 0.77426 0.83465 0.0
O475 O 0.721 0.80132 0.75377 0.0
C476 C 0.71114 0.70676 0.79785 0.0
C477 C 0.7118 0.79129 0.54233 0.0
C478 C 0.71791 0.78823 0.44522 0.0
C479 C 0.69725 0.8173 0.44066 0.0
C480 C 0.69133 0.8205 0.53631 0.0
C481 C 0.68425 0.83338 0.48591 0.0
C482 C 0.72557 0.77531 0.49636 0.0
C483 C 0.78935 0.70631 0.71968 0.0
C484 C 0.71709 0.77778 0.59677 0.0
C485 C 0.59509 0.69586 0.68356 0.0
C486 C 0.61425 0.66685 0.67026 0.0
C487 C 0.79237 0.79746 0.72671 0.0
C488 C 0.79244 0.70979 0.97957 0.0
C489 C 0.78964 0.71024 0.07732 0.0
C490 C 0.80385 0.67726 0.07732 0.0
C491 C 0.80693 0.67703 0.98132 0.0
C492 C 0.78344 0.72637 0.02785 0.0
C493 C 0.81244 0.66093 0.02979 0.0
C494 C 0.71367 0.79803 0.80473 0.0
C495 C 0.78713 0.72554 0.92674 0.0
H496 H 0.69128 0.82769 0.40178 0.0
H497 H 0.68049 0.83344 0.57068 0.0
H498 H 0.66841 0.85583 0.4819 0.0
H499 H 0.74128 0.7527 0.50012 0.0
H500 H 0.80808 0.66377 0.11434 0.0
H501 H 0.81383 0.66357 0.94499 0.0
H502 H 0.77243 0.75173 0.02698 0.0
H503 H 0.82339 0.63559 0.03052 0.0
Eu504 Eu 0.50239 0.52715 0.08061 0.0
C505 C 0.4833 0.39662 0.93351 0.0
N506 N 0.51139 0.41596 0.94406 0.0
C507 C 0.5458 0.36546 0.9497 0.0
C508 C 0.48541 0.36069 0.93172 0.0
C509 C 0.54265 0.40098 0.94987 0.0
C510 C 0.51701 0.3452 0.94103 0.0
C511 C 0.42362 0.39351 0.9073 0.0
C512 C 0.45268 0.41277 0.92137 0.0
C513 C 0.42547 0.35775 0.90691 0.0
C514 C 0.45626 0.34139 0.91908 0.0
Eu515 Eu 0.50304 0.47568 0.94022 0.0
N516 N 0.45152 0.44739 0.9218 0.0
C517 C 0.39373 0.41081 0.89296 0.0
C518 C 0.42316 0.46444 0.90488 0.0
C519 C 0.39359 0.44644 0.89136 0.0
H520 H 0.5655 0.41623 0.95325 0.0
H521 H 0.37084 0.46002 0.87935 0.0
H522 H 0.45882 0.59786 0.05213 0.0
H523 H 0.63525 0.51185 0.14431 0.0
H524 H 0.42334 0.49196 0.90259 0.0
H525 H 0.37084 0.3969 0.88212 0.0
H526 H 0.57598 0.49376 0.1297 0.0
H527 H 0.57056 0.35375 0.95512 0.0
H528 H 0.40338 0.34252 0.89633 0.0
H529 H 0.45744 0.31379 0.91755 0.0
H530 H 0.46962 0.65971 0.04231 0.0
H531 H 0.51966 0.31769 0.93998 0.0
H532 H 0.6518 0.57193 0.12926 0.0
N533 N 0.51045 0.58618 0.07002 0.0
C534 C 0.5423 0.59832 0.08024 0.0
C535 C 0.49032 0.64269 0.05263 0.0
C536 C 0.54961 0.63337 0.0753 0.0
C537 C 0.48431 0.60769 0.05776 0.0
C538 C 0.52315 0.65558 0.0611 0.0
N539 N 0.55982 0.54169 0.09943 0.0
C540 C 0.58318 0.51938 0.11945 0.0
C541 C 0.60116 0.58724 0.10452 0.0
C542 C 0.56779 0.57537 0.0944 0.0
C543 C 0.62587 0.56383 0.12109 0.0
C544 C 0.61669 0.52986 0.12934 0.0
H545 H 0.52775 0.68269 0.0569 0.0
H546 H 0.58915 0.67191 0.08046 0.0
H547 H 0.63423 0.63158 0.10623 0.0
O548 O 0.51076 0.5301 0.16714 0.0
O549 O 0.52318 0.55187 1.0048 0.0
O550 O 0.54946 0.50749 0.96228 0.0
O551 O 0.46114 0.54412 0.13355 0.0
O552 O 0.52661 0.47439 0.08015 0.0
O553 O 0.54873 0.46882 0.99512 0.0
O554 O 0.49676 0.50211 0.86426 0.0
O555 O 0.45868 0.46548 0.99835 0.0
O556 O 0.48237 0.47297 0.08128 0.0
O557 O 0.52405 0.45439 0.86635 0.0
O558 O 0.4766 0.52683 0.94363 0.0
O559 O 0.4547 0.53351 0.02902 0.0
C560 C 0.54763 0.54013 0.97388 0.0
C561 C 0.46701 0.54839 0.23046 0.0
C562 C 0.46913 0.54147 0.32747 0.0
C563 C 0.4393 0.56121 0.33188 0.0
C564 C 0.43733 0.5681 0.23623 0.0
C565 C 0.42371 0.57454 0.28665 0.0
C566 C 0.48333 0.53552 0.27647 0.0
C567 C 0.54735 0.45984 0.04552 0.0
C568 C 0.47984 0.54069 0.17625 0.0
C569 C 0.58298 0.64508 0.08434 0.0
C570 C 0.60868 0.62209 0.09885 0.0
C571 C 0.45949 0.45897 0.04983 0.0
C572 C 0.53758 0.49239 0.79665 0.0
C573 C 0.54983 0.50615 0.70352 0.0
C574 C 0.58249 0.51744 0.71914 0.0
C575 C 0.57017 0.50369 0.81129 0.0
C576 C 0.52748 0.49359 0.7429 0.0
C577 C 0.59247 0.51626 0.77262 0.0
C578 C 0.45383 0.53935 0.97709 0.0
C579 C 0.5136 0.47944 0.83674 0.0
H580 H 0.42814 0.56662 0.37061 0.0
H581 H 0.42454 0.57851 0.20166 0.0
H582 H 0.40083 0.5898 0.29069 0.0
H583 H 0.50623 0.52019 0.27259 0.0
H584 H 0.60054 0.52681 0.68992 0.0
H585 H 0.57829 0.5026 0.85246 0.0
H586 H 0.50204 0.48519 0.73204 0.0
H587 H 0.61765 0.52498 0.78408 0.0
Eu588 Eu 0.00343 0.47561 0.57692 0.0
C589 C 0.02486 0.61109 0.44577 0.0
N590 N 0.99588 0.592 0.44658 0.0
C591 C 0.96161 0.64256 0.44916 0.0
C592 C 0.02321 0.647 0.44774 0.0
C593 C 0.96451 0.60704 0.44722 0.0
C594 C 0.99108 0.66264 0.44972 0.0
C595 C 0.08683 0.6138 0.44369 0.0
C596 C 0.05637 0.59466 0.44374 0.0
C597 C 0.08524 0.64957 0.4459 0.0
C598 C 0.05354 0.66611 0.4479 0.0
Eu599 Eu 0.00357 0.5325 0.44497 0.0
N600 N 0.05721 0.55993 0.44373 0.0
C601 C 0.11801 0.59639 0.44179 0.0
C602 C 0.08742 0.54288 0.43943 0.0
C603 C 0.11828 0.56079 0.43912 0.0
H604 H 0.94172 0.59163 0.44526 0.0
H605 H 0.14223 0.54713 0.43657 0.0
H606 H 0.06263 0.41392 0.57114 0.0
H607 H 0.86446 0.46651 0.59356 0.0
H608 H 0.08792 0.51557 0.43591 0.0
H609 H 0.14198 0.61018 0.44178 0.0
H610 H 0.91989 0.4958 0.59252 0.0
H611 H 0.93667 0.65443 0.44996 0.0
H612 H 0.10839 0.66469 0.44613 0.0
H613 H 0.05277 0.69373 0.44959 0.0
H614 H 0.06495 0.35105 0.56437 0.0
H615 H 0.98875 0.69018 0.45129 0.0
H616 H 0.86201 0.40361 0.58603 0.0
N617 N 0.00855 0.41586 0.57307 0.0
C618 C 0.97883 0.39799 0.57525 0.0
C619 C 0.04056 0.36393 0.567 0.0
C620 C 0.97892 0.36206 0.57217 0.0
C621 C 0.03921 0.39952 0.57001 0.0
C622 C 0.01028 0.34511 0.56777 0.0
N623 N 0.94867 0.45048 0.58055 0.0
C624 C 0.91928 0.46861 0.5874 0.0
C625 C 0.91689 0.39782 0.58074 0.0
C626 C 0.94809 0.41572 0.57946 0.0
C627 C 0.88651 0.41643 0.585 0.0
C628 C 0.88776 0.45195 0.58893 0.0
H629 H 0.0114 0.31753 0.56532 0.0
H630 H 0.94741 0.31663 0.57068 0.0
H631 H 0.89318 0.34789 0.57813 0.0
O632 O 0.98928 0.49338 0.65679 0.0
O633 O 0.97957 0.45345 0.50126 0.0
O634 O 0.95694 0.49896 0.4561 0.0
O635 O 0.02576 0.45242 0.6476 0.0
O636 O 0.9771 0.52737 0.57832 0.0
O637 O 0.95537 0.53712 0.49418 0.0
O638 O 0.02211 0.51681 0.36652 0.0
O639 O 0.02744 0.5547 0.52073 0.0
O640 O 0.04998 0.50914 0.56593 0.0
O641 O 0.97976 0.55189 0.37232 0.0
O642 O 0.02933 0.48055 0.44405 0.0
O643 O 0.05177 0.47102 0.52768 0.0
C644 C 0.95742 0.46632 0.46759 0.0
C645 C 0.03183 0.48846 0.72243 0.0
C646 C 0.04039 0.50403 0.81592 0.0
C647 C 0.0731 0.51637 0.80265 0.0
C648 C 0.06434 0.50104 0.71013 0.0
C649 C 0.08478 0.51512 0.75005 0.0
C650 C 0.01976 0.49028 0.77508 0.0
C651 C 0.95528 0.54236 0.54611 0.0
C652 C 0.01046 0.47298 0.68083 0.0
C653 C 0.94783 0.34423 0.57321 0.0
C654 C 0.91693 0.36204 0.57746 0.0
C655 C 0.04905 0.54187 0.55536 0.0
C656 C 0.98106 0.51401 0.29894 0.0
C657 C 0.97558 0.49662 0.20593 0.0
C658 C 0.94972 0.47361 0.22056 0.0
C659 C 0.95532 0.49091 0.31277 0.0
C660 C 0.9911 0.517 0.24542 0.0
C661 C 0.93962 0.47087 0.27375 0.0
C662 C 0.05211 0.46648 0.47555 0.0
C663 C 0.99878 0.53357 0.34056 0.0
H664 H 0.09006 0.52637 0.833 0.0
H665 H 0.07398 0.49944 0.66981 0.0
H666 H 0.10997 0.52461 0.74035 0.0
H667 H 0.99433 0.48098 0.78396 0.0
H668 H 0.93716 0.45791 0.19076 0.0
H669 H 0.94766 0.48834 0.35379 0.0
H670 H 0.01143 0.53448 0.23478 0.0
H671 H 0.91973 0.45307 0.28477 0.0
H672 H 0.10435 0.02825 0.41512 0.0
H673 H 0.04647 0.11269 0.47978 0.0
H674 H 0.14372 0.06826 0.37337 0.0
H675 H 0.08542 0.15259 0.43781 0.0
H676 H 0.18036 0.21502 0.40228 0.0
H677 H 0.14133 0.17459 0.44291 0.0
H678 H 0.14995 0.10912 0.30412 0.0
H679 H 0.19087 0.14879 0.2651 0.0
C680 C 0.09997 0.05534 0.42046 0.0
C681 C 0.07238 0.06716 0.45144 0.0
C682 C 0.12246 0.07835 0.39615 0.0
C683 C 0.11794 0.11382 0.40211 0.0
C684 C 0.0902 0.12555 0.43295 0.0
C685 C 0.06774 0.10256 0.45713 0.0
C686 C 0.17406 0.19196 0.38039 0.0
C687 C 0.1885 0.18541 0.32994 0.0
C688 C 0.15131 0.16884 0.40355 0.0
C689 C 0.14215 0.13851 0.37686 0.0
C690 C 0.15657 0.13199 0.32625 0.0
C691 C 0.17962 0.15505 0.3033 0.0
H692 H 0.04573 0.93364 0.64842 0.0
H693 H 0.11234 0.94252 0.51159 0.0
H694 H 0.08616 0.89518 0.69031 0.0
H695 H 0.15267 0.9031 0.55332 0.0
H696 H 0.23179 0.86006 0.674 0.0
H697 H 0.1926 0.89989 0.63067 0.0
H698 H 0.10724 0.83716 0.67807 0.0
H699 H 0.14614 0.79725 0.71998 0.0
C700 C 0.069 0.92734 0.62714 0.0
C701 C 0.07567 0.94109 0.57647 0.0
C702 C 0.0921 0.90505 0.65108 0.0
C703 C 0.12262 0.89595 0.62515 0.0
C704 C 0.12951 0.90984 0.57457 0.0
C705 C 0.10625 0.93214 0.55043 0.0
C706 C 0.20466 0.85472 0.67482 0.0
C707 C 0.19218 0.82533 0.70018 0.0
C708 C 0.18223 0.87749 0.64993 0.0
C709 C 0.14678 0.8717 0.65081 0.0
C710 C 0.13435 0.84261 0.677 0.0
C711 C 0.15673 0.81969 0.70114 0.0
H712 H 0.3153 0.80223 0.90552 0.0
H713 H 0.32288 0.85769 0.75735 0.0
H714 H 0.35481 0.84188 0.9472 0.0
H715 H 0.36293 0.89745 0.79938 0.0
H716 H 0.46212 0.93721 0.87991 0.0
H717 H 0.42116 0.89969 0.83564 0.0
H718 H 0.35805 0.90089 0.97715 0.0
H719 H 0.39875 0.9387 0.02099 0.0
C720 C 0.32532 0.82293 0.88168 0.0
C721 C 0.31605 0.82648 0.82772 0.0
C722 C 0.34795 0.84581 0.90582 0.0
C723 C 0.36206 0.87293 0.87675 0.0
C724 C 0.35285 0.87658 0.82276 0.0
C725 C 0.32994 0.85374 0.7986 0.0
C726 C 0.43946 0.92955 0.90158 0.0
C727 C 0.43412 0.94041 0.95458 0.0
C728 C 0.41588 0.90816 0.87604 0.0
C729 C 0.38642 0.897 0.90291 0.0
C730 C 0.38078 0.90843 0.95556 0.0
C731 C 0.40421 0.93003 0.98088 0.0
H732 H 0.39073 0.05438 0.02025 0.0
H733 H 0.46066 0.07222 0.15073 0.0
H734 H 0.34845 0.09079 0.06445 0.0
H735 H 0.41868 0.1083 0.19458 0.0
H736 H 0.32602 0.151 0.2811 0.0
H737 H 0.36326 0.10843 0.23933 0.0
H738 H 0.34199 0.15134 0.08448 0.0
H739 H 0.30479 0.19326 0.12554 0.0
C740 C 0.39714 0.06616 0.05815 0.0
C741 C 0.42927 0.06086 0.08146 0.0
C742 C 0.37292 0.08694 0.08355 0.0
C743 C 0.38021 0.10251 0.13306 0.0
C744 C 0.41202 0.09639 0.15689 0.0
C745 C 0.43621 0.07585 0.13144 0.0
C746 C 0.32914 0.1512 0.23814 0.0
C747 C 0.31258 0.17582 0.20687 0.0
C748 C 0.35056 0.12688 0.21421 0.0
C749 C 0.35563 0.12652 0.15853 0.0
C750 C 0.33834 0.15056 0.12733 0.0
C751 C 0.31716 0.17486 0.15113 0.0
H752 H 0.95904 0.89251 0.55024 0.0
H753 H 0.89972 0.97762 0.60937 0.0
H754 H 0.91913 0.853 0.5916 0.0
H755 H 0.8604 0.93808 0.65229 0.0
H756 H 0.77728 0.85716 0.67552 0.0
H757 H 0.81666 0.8966 0.63249 0.0
H758 H 0.90153 0.83284 0.67829 0.0
H759 H 0.86204 0.79279 0.71948 0.0
C760 C 0.93744 0.90285 0.5719 0.0
C761 C 0.93254 0.93833 0.57606 0.0
C762 C 0.91471 0.88013 0.5962 0.0
C763 C 0.88649 0.89226 0.62552 0.0
C764 C 0.88157 0.92776 0.62954 0.0
C765 C 0.90429 0.95048 0.60518 0.0
C766 C 0.80434 0.85151 0.67639 0.0
C767 C 0.81646 0.82188 0.70144 0.0
C768 C 0.82699 0.8743 0.65201 0.0
C769 C 0.86237 0.86804 0.65189 0.0
C770 C 0.87446 0.83837 0.67702 0.0
C771 C 0.8518 0.81558 0.70134 0.0
H772 H 0.8927 0.06109 0.51563 0.0
H773 H 0.96134 0.07454 0.38228 0.0
H774 H 0.85246 0.10101 0.47498 0.0
H775 H 0.92101 0.11377 0.34144 0.0
H776 H 0.85873 0.21193 0.31793 0.0
H777 H 0.89821 0.17155 0.35785 0.0
H778 H 0.81401 0.10465 0.39534 0.0
H779 H 0.77444 0.14475 0.35361 0.0
C780 C 0.89924 0.07259 0.47776 0.0
C781 C 0.93031 0.06473 0.45233 0.0
C782 C 0.87606 0.09521 0.45426 0.0
C783 C 0.88353 0.11055 0.40496 0.0
C784 C 0.91461 0.10267 0.37967 0.0
C785 C 0.93763 0.07998 0.40296 0.0
C786 C 0.84861 0.18843 0.334 0.0
C787 C 0.81339 0.18159 0.33258 0.0
C788 C 0.87128 0.1653 0.35706 0.0
C789 C 0.85926 0.13492 0.37999 0.0
C790 C 0.82403 0.12802 0.37858 0.0
C791 C 0.80138 0.15095 0.35462 0.0
H792 H 0.66869 0.21645 0.14898 0.0
H793 H 0.69704 0.14084 0.26516 0.0
H794 H 0.62931 0.17641 0.10791 0.0
H795 H 0.65917 0.09955 0.22212 0.0
H796 H 0.56758 0.04001 0.15715 0.0
H797 H 0.60471 0.08037 0.20373 0.0
H798 H 0.62672 0.12976 0.05344 0.0
H799 H 0.58841 0.09055 1.0086 0.0
C800 C 0.66659 0.19104 0.1655 0.0
C801 C 0.68595 0.18171 0.21015 0.0
C802 C 0.64422 0.16782 0.14159 0.0
C803 C 0.6412 0.13423 0.16081 0.0
C804 C 0.6603 0.12515 0.20629 0.0
C805 C 0.68217 0.14876 0.23098 0.0
C806 C 0.58053 0.05953 0.13432 0.0
C807 C 0.57477 0.06248 0.07922 0.0
C808 C 0.60197 0.08267 0.16093 0.0
C809 C 0.6187 0.10891 0.13281 0.0
C810 C 0.6136 0.11087 0.07723 0.0
C811 C 0.59168 0.08822 0.05108 0.0
H812 H 0.69297 0.86066 0.76854 0.0
H813 H 0.68081 0.79061 0.89976 0.0
H814 H 0.65436 0.90083 0.81282 0.0
H815 H 0.64317 0.83101 0.94452 0.0
H816 H 0.5471 0.89508 0.97777 0.0
H817 H 0.58642 0.85487 0.93549 0.0
H818 H 0.65219 0.93863 0.89101 0.0
H819 H 0.61295 0.97861 0.9345 0.0
C820 C 0.68203 0.85382 0.80675 0.0
C821 C 0.68984 0.8224 0.83052 0.0
C822 C 0.66019 0.87696 0.83236 0.0
C823 C 0.64574 0.86915 0.88228 0.0
C824 C 0.65354 0.83768 0.90586 0.0
C825 C 0.67532 0.8146 0.88032 0.0
C826 C 0.57037 0.9047 0.96 0.0
C827 C 0.57713 0.93982 0.95937 0.0
C828 C 0.59279 0.88176 0.93547 0.0
C829 C 0.62238 0.89355 0.90957 0.0
C830 C 0.6293 0.92878 0.90971 0.0
C831 C 0.60687 0.9517 0.93446 0.0
H832 H 0.54034 0.60915 0.96205 0.0
H833 H 0.60973 0.5263 0.92826 0.0
H834 H 0.58001 0.64918 0.92144 0.0
H835 H 0.64845 0.56589 0.88413 0.0
H836 H 0.72689 0.65016 0.8568 0.0
H837 H 0.68785 0.61054 0.89991 0.0
H838 H 0.60204 0.66724 0.83835 0.0
H839 H 0.64108 0.70777 0.79781 0.0
C840 C 0.5641 0.59944 0.94593 0.0
C841 C 0.57184 0.56445 0.94858 0.0
C842 C 0.5867 0.62238 0.92181 0.0
C843 C 0.61757 0.61094 0.89904 0.0
C844 C 0.62524 0.57587 0.90173 0.0
C845 C 0.60278 0.55301 0.92646 0.0
C846 C 0.69969 0.65421 0.85245 0.0
C847 C 0.68724 0.68206 0.82316 0.0
C848 C 0.67721 0.63126 0.87692 0.0
C849 C 0.6416 0.63541 0.87267 0.0
C850 C 0.6292 0.66328 0.84322 0.0
C851 C 0.65169 0.68635 0.81913 0.0
H852 H 0.72739 0.34696 0.1505 0.0
H853 H 0.64351 0.30404 0.23889 0.0
H854 H 0.68829 0.3823 0.10147 0.0
H855 H 0.60494 0.34365 0.19794 0.0
H856 H 0.53276 0.39976 0.09265 0.0
H857 H 0.57235 0.35967 0.13224 0.0
H858 H 0.65622 0.42708 0.09105 0.0
H859 H 0.61638 0.46425 0.04576 0.0
C860 C 0.70059 0.34526 0.15985 0.0
C861 C 0.68887 0.32217 0.19827 0.0
C862 C 0.67786 0.36641 0.13257 0.0
C863 C 0.64267 0.36652 0.14488 0.0
C864 C 0.63128 0.34416 0.18515 0.0
C865 C 0.65383 0.32177 0.21024 0.0
C866 C 0.55987 0.40531 0.09142 0.0
C867 C 0.57176 0.43475 0.06614 0.0
C868 C 0.58279 0.38264 0.11505 0.0
C869 C 0.61818 0.38974 0.11634 0.0
C870 C 0.62969 0.41959 0.09046 0.0
C871 C 0.60682 0.44133 0.06461 0.0
H872 H 0.8977 0.48241 0.41597 0.0
H873 H 0.96057 0.39691 0.46165 0.0
H874 H 0.85752 0.44312 0.37294 0.0
H875 H 0.92003 0.35788 0.42058 0.0
H876 H 0.82107 0.29826 0.39662 0.0
H877 H 0.86077 0.33872 0.4361 0.0
H878 H 0.85441 0.40139 0.29529 0.0
H879 H 0.81401 0.36072 0.25547 0.0
C880 C 0.90296 0.45529 0.41687 0.0
C881 C 0.93242 0.44286 0.44221 0.0
C882 C 0.87999 0.43283 0.39214 0.0
C883 C 0.88559 0.39741 0.39334 0.0
C884 C 0.91481 0.38501 0.41928 0.0
C885 C 0.93803 0.40744 0.44303 0.0
C886 C 0.82795 0.32068 0.37391 0.0
C887 C 0.81431 0.32623 0.32277 0.0
C888 C 0.85095 0.34377 0.39651 0.0
C889 C 0.86081 0.37322 0.3688 0.0
C890 C 0.84707 0.37903 0.31776 0.0
C891 C 0.82416 0.35565 0.29483 0.0
H892 H 0.81539 0.70857 0.61857 0.0
H893 H 0.81601 0.64758 0.76181 0.0
H894 H 0.85428 0.66834 0.57587 0.0
H895 H 0.85508 0.6074 0.71892 0.0
H896 H 0.95575 0.56843 0.64709 0.0
H897 H 0.91486 0.60703 0.68825 0.0
H898 H 0.85653 0.60865 0.54214 0.0
H899 H 0.8974 0.56943 0.50077 0.0
C900 C 0.82372 0.68654 0.64096 0.0
C901 C 0.81278 0.68149 0.69385 0.0
C902 C 0.8459 0.6634 0.61631 0.0
C903 C 0.85781 0.63474 0.64402 0.0
C904 C 0.84667 0.6295 0.69675 0.0
C905 C 0.82428 0.65252 0.72131 0.0
C906 C 0.93418 0.57685 0.62359 0.0
C907 C 0.93009 0.56607 0.57032 0.0
C908 C 0.91065 0.59891 0.64738 0.0
C909 C 0.88245 0.61088 0.61851 0.0
C910 C 0.87826 0.60016 0.56521 0.0
C911 C 0.90173 0.5778 0.54145 0.0
H912 H 0.27842 0.35082 0.16708 0.0
H913 H 0.36414 0.29307 0.22587 0.0
H914 H 0.31772 0.38932 0.12107 0.0
H915 H 0.40326 0.3322 0.18194 0.0
H916 H 0.46062 0.4325 0.15046 0.0
H917 H 0.42051 0.39325 0.19159 0.0
H918 H 0.36157 0.39021 0.04626 0.0
H919 H 0.40139 0.43053 1.0053 0.0
C920 C 0.30562 0.34638 0.17052 0.0
C921 C 0.31809 0.31922 0.20145 0.0
C922 C 0.32813 0.3684 0.14393 0.0
C923 C 0.36368 0.36407 0.14815 0.0
C924 C 0.37607 0.33666 0.17852 0.0
C925 C 0.35359 0.31434 0.20421 0.0
C926 C 0.4392 0.42354 0.12695 0.0
C927 C 0.43466 0.43453 0.07399 0.0
C928 C 0.41626 0.40079 0.1506 0.0
C929 C 0.38791 0.38835 0.12221 0.0
C930 C 0.38307 0.39942 0.06938 0.0
C931 C 0.40617 0.42222 0.0456 0.0
H932 H 0.45647 0.57015 0.88017 0.0
H933 H 0.39449 0.56422 0.02275 0.0
H934 H 0.41639 0.60999 0.84147 0.0
H935 H 0.35396 0.60475 0.9833 0.0
H936 H 0.27353 0.64759 0.86054 0.0
H937 H 0.31222 0.60751 0.90427 0.0
H938 H 0.39814 0.66988 0.85848 0.0
H939 H 0.35959 0.7106 0.81723 0.0
C940 C 0.43422 0.57726 0.90341 0.0
C941 C 0.42874 0.56385 0.95476 0.0
C942 C 0.41133 0.60037 0.88117 0.0
C943 C 0.38208 0.61062 0.90935 0.0
C944 C 0.37623 0.5971 0.96053 0.0
C945 C 0.39949 0.57408 0.98321 0.0
C946 C 0.30059 0.65313 0.86088 0.0
C947 C 0.31334 0.68264 0.83619 0.0
C948 C 0.32275 0.63008 0.88569 0.0
C949 C 0.3582 0.63561 0.88508 0.0
C950 C 0.37096 0.66481 0.85953 0.0
C951 C 0.34882 0.68813 0.83574 0.0
H952 H 0.19022 0.64577 0.77259 0.0
H953 H 0.18158 0.7118 0.63578 0.0
H954 H 0.15033 0.60557 0.73077 0.0
H955 H 0.1425 0.67159 0.59391 0.0
H956 H 0.04483 0.6112 0.56253 0.0
H957 H 0.08426 0.65042 0.60586 0.0
H958 H 0.14766 0.56562 0.65271 0.0
H959 H 0.10875 0.52629 0.60727 0.0
C960 C 0.17972 0.65178 0.7338 0.0
C961 C 0.18894 0.68207 0.7077 0.0
C962 C 0.15715 0.62862 0.70963 0.0
C963 C 0.14319 0.63541 0.65903 0.0
C964 C 0.15243 0.66576 0.63315 0.0
C965 C 0.17505 0.68872 0.65708 0.0
C966 C 0.06727 0.60082 0.58173 0.0
C967 C 0.07335 0.56547 0.58203 0.0
C968 C 0.08989 0.62337 0.60665 0.0
C969 C 0.11903 0.61115 0.63307 0.0
C970 C 0.12514 0.5758 0.63347 0.0
C971 C 0.10275 0.55324 0.60769 0.0
H972 H 0.18069 0.29385 0.40006 0.0
H973 H 0.19691 0.36099 0.26617 0.0
H974 H 0.14323 0.33605 0.44127 0.0
H975 H 0.15841 0.40291 0.30697 0.0
H976 H 0.1082 0.4364 0.52198 0.0
H977 H 0.14811 0.39622 0.48054 0.0
H978 H 0.09512 0.40602 0.33048 0.0
H979 H 0.05467 0.44511 0.37181 0.0
C980 C 0.1762 0.31761 0.37932 0.0
C981 C 0.1916 0.32399 0.32962 0.0
C982 C 0.15485 0.3418 0.4031 0.0
C983 C 0.14803 0.37277 0.37743 0.0
C984 C 0.1631 0.37911 0.32747 0.0
C985 C 0.18494 0.35506 0.30399 0.0
C986 C 0.10473 0.42962 0.4804 0.0
C987 C 0.07769 0.44341 0.45069 0.0
C988 C 0.12771 0.40679 0.45661 0.0
C989 C 0.12459 0.39793 0.40235 0.0
C990 C 0.09827 0.41254 0.37227 0.0
C991 C 0.07502 0.43487 0.39617 0.0
H992 H 0.95697 0.02534 0.88219 0.0
H993 H 0.06686 0.02999 0.89181 0.0
H994 H 0.95461 0.00353 0.97388 0.0
H995 H 0.06462 0.00807 0.98288 0.0
H996 H 0.04405 0.93119 0.11924 0.0
H997 H 0.04639 0.95276 0.02791 0.0
H998 H 0.97041 0.02861 0.06779 0.0
H999 H 0.96843 0.00708 0.15973 0.0
C1000 C 0.98055 0.02126 0.90379 0.0
C1001 C 0.01209 0.02933 0.88041 0.0
C1002 C 0.97921 0.00918 0.95617 0.0
C1003 C 0.00944 0.00445 0.98535 0.0
C1004 C 0.04098 0.01148 0.96116 0.0
C1005 C 0.04227 0.02401 0.90926 0.0
C1006 C 0.0281 0.95264 0.10841 0.0
C1007 C 0.00603 0.96753 0.146 0.0
C1008 C 0.02943 0.96496 0.0564 0.0
C1009 C 0.00835 0.99209 0.0409 0.0
C1010 C 0.98659 0.00737 0.07876 0.0
C1011 C 0.98569 0.99536 0.13121 0.0
H1012 H 0.30465 0.7736 0.40215 0.0
H1013 H 0.19478 0.76699 0.39611 0.0
H1014 H 0.30775 0.76014 0.30712 0.0
H1015 H 0.19759 0.75184 0.30202 0.0
H1016 H 0.20746 0.75679 0.12505 0.0
H1017 H 0.20753 0.7739 0.21813 0.0
H1018 H 0.30185 0.71872 0.24206 0.0
H1019 H 0.30358 0.70466 0.14789 0.0
C1020 C 0.28121 0.76876 0.3805 0.0
C1021 C 0.24947 0.7717 0.40612 0.0
C1022 C 0.2829 0.76092 0.32605 0.0
C1023 C 0.25288 0.75524 0.29638 0.0
C1024 C 0.22122 0.75706 0.32287 0.0
C1025 C 0.21955 0.76545 0.37696 0.0
C1026 C 0.22869 0.74897 0.14974 0.0
C1027 C 0.25538 0.729 0.1287 0.0
C1028 C 0.22838 0.75826 0.20363 0.0
C1029 C 0.25439 0.74724 0.23822 0.0
C1030 C 0.28146 0.72795 0.21688 0.0
C1031 C 0.28214 0.71931 0.16278 0.0
H1032 H 0.52222 0.01819 0.6715 0.0
H1033 H 0.43406 0.07595 0.62164 0.0
H1034 H 0.52954 0.99689 0.58066 0.0
H1035 H 0.44091 0.05426 0.53108 0.0
H1036 H 0.47649 0.03223 0.36372 0.0
H1037 H 0.476 0.0571 0.45332 0.0
H1038 H 0.50378 0.95919 0.51905 0.0
H1039 H 0.50618 0.9351 0.42971 0.0
C1040 C 0.50428 0.02615 0.64116 0.0
C1041 C 0.47767 0.04889 0.65359 0.0
C1042 C 0.50845 0.01396 0.5891 0.0
C1043 C 0.48593 0.02402 0.54843 0.0
C1044 C 0.45921 0.04661 0.56107 0.0
C1045 C 0.45518 0.05895 0.61303 0.0
C1046 C 0.48314 0.01629 0.39731 0.0
C1047 C 0.4909 0.9816 0.38985 0.0
C1048 C 0.48244 0.03038 0.44868 0.0
C1049 C 0.48942 0.01004 0.4935 0.0
C1050 C 0.49849 0.97571 0.48558 0.0
C1051 C 0.49942 0.96174 0.43437 0.0
H1052 H 0.27642 0.2128 0.91936 0.0
H1053 H 0.19151 0.27184 0.86115 0.0
H1054 H 0.29803 0.20679 0.82786 0.0
H1055 H 0.21314 0.2661 0.76976 0.0
H1056 H 0.28289 0.26562 0.61585 0.0
H1057 H 0.26378 0.27962 0.70676 0.0
H1058 H 0.27193 0.17356 0.74999 0.0
H1059 H 0.28926 0.15927 0.65969 0.0
C1060 C 0.26292 0.22521 0.88712 0.0
C1061 C 0.23229 0.24264 0.89706 0.0
C1062 C 0.27506 0.22156 0.8348 0.0
C1063 C 0.25704 0.23571 0.79164 0.0
C1064 C 0.2276 0.25504 0.80215 0.0
C1065 C 0.21521 0.25824 0.85433 0.0
C1066 C 0.28013 0.24523 0.64451 0.0
C1067 C 0.28847 0.21137 0.63048 0.0
C1068 C 0.26945 0.25331 0.69665 0.0
C1069 C 0.26731 0.22778 0.7358 0.0
C1070 C 0.27438 0.19393 0.72119 0.0
C1071 C 0.2844 0.1858 0.66926 0.0
H1072 H 0.79934 0.3182 0.877 0.0
H1073 H 0.72856 0.23742 0.91477 0.0
H1074 H 0.79836 0.30117 0.78317 0.0
H1075 H 0.7274 0.22031 0.82016 0.0
H1076 H 0.70694 0.23212 0.63587 0.0
H1077 H 0.70704 0.24788 0.73092 0.0
H1078 H 0.81725 0.24975 0.72932 0.0
H1079 H 0.81713 0.23408 0.63489 0.0
C1080 C 0.78358 0.29677 0.86502 0.0
C1081 C 0.76382 0.27926 0.90277 0.0
C1082 C 0.78312 0.28695 0.81149 0.0
C1083 C 0.76264 0.2596 0.79448 0.0
C1084 C 0.7431 0.24174 0.83229 0.0
C1085 C 0.74396 0.2513 0.88624 0.0
C1086 C 0.7311 0.2361 0.65598 0.0
C1087 C 0.76205 0.23171 0.62837 0.0
C1088 C 0.73116 0.24476 0.71026 0.0
C1089 C 0.76217 0.24977 0.73738 0.0
C1090 C 0.79301 0.24607 0.70934 0.0
C1091 C 0.79295 0.23698 0.65547 0.0
H1092 H 0.78361 0.78406 0.40948 0.0
H1093 H 0.68003 0.75853 0.36765 0.0
H1094 H 0.80223 0.7693 0.31913 0.0
H1095 H 0.69841 0.74204 0.27817 0.0
H1096 H 0.73191 0.746 0.10676 0.0
H1097 H 0.71603 0.76469 0.1967 0.0
H1098 H 0.81249 0.72733 0.25647 0.0
H1099 H 0.82901 0.71118 0.16671 0.0
C1100 C 0.76507 0.77421 0.38128 0.0
C1101 C 0.7305 0.77214 0.3954 0.0
C1102 C 0.7756 0.76585 0.32932 0.0
C1103 C 0.75179 0.75486 0.29059 0.0
C1104 C 0.71742 0.7513 0.30604 0.0
C1105 C 0.7069 0.76009 0.35763 0.0
C1106 C 0.74998 0.74263 0.139 0.0
C1107 C 0.7815 0.7266 0.12966 0.0
C1108 C 0.74068 0.75276 0.19085 0.0
C1109 C 0.76263 0.74691 0.23455 0.0
C1110 C 0.79483 0.73249 0.22434 0.0
C1111 C 0.80422 0.72283 0.17268 0.0
H1112 H 0.51225 0.45943 0.64588 0.0
H1113 H 0.56308 0.55683 0.6318 0.0
H1114 H 0.49591 0.46221 0.55201 0.0
H1115 H 0.54695 0.5595 0.53831 0.0
H1116 H 0.53544 0.54714 0.36169 0.0
H1117 H 0.55711 0.53446 0.45115 0.0
H1118 H 0.45847 0.49377 0.49484 0.0
H1119 H 0.43743 0.50555 0.40548 0.0
C1120 C 0.51984 0.4815 0.6229 0.0
C1121 C 0.53924 0.50779 0.64644 0.0
C1122 C 0.51058 0.48302 0.56898 0.0
C1123 C 0.52049 0.51088 0.53728 0.0
C1124 C 0.53967 0.53721 0.561 0.0
C1125 C 0.54886 0.53572 0.61479 0.0
C1126 C 0.51879 0.53465 0.39008 0.0
C1127 C 0.48464 0.52773 0.37697 0.0
C1128 C 0.53101 0.52776 0.4415 0.0
C1129 C 0.50934 0.51366 0.48059 0.0
C1130 C 0.47593 0.50454 0.46595 0.0
C1131 C 0.46378 0.51148 0.41478 0.0
H1132 H 1.00069 0.45679 0.868 0.0
H1133 H 0.05287 0.55289 0.89219 0.0
H1134 H 0.98367 0.45683 0.96107 0.0
H1135 H 0.03883 0.55118 0.98627 0.0
H1136 H 0.98391 0.55398 0.14592 0.0
H1137 H 0.99709 0.55703 0.05092 0.0
H1138 H 0.00626 0.44701 0.04497 0.0
H1139 H 0.99148 0.4442 0.13907 0.0
C1140 C 0.00851 0.47801 0.89299 0.0
C1141 C 0.02848 0.50471 0.87238 0.0
C1142 C 0.99928 0.4777 0.94684 0.0
C1143 C 0.01031 0.50373 0.98173 0.0
C1144 C 0.02958 0.5308 0.96081 0.0
C1145 C 0.0382 0.53146 0.90678 0.0
C1146 C 0.9889 0.53055 0.1241 0.0
C1147 C 0.98633 0.49884 0.14949 0.0
C1148 C 0.99656 0.53223 0.06968 0.0
C1149 C 1.00241 0.50222 0.03981 0.0
C1150 C 1.00092 0.47061 0.06603 0.0
C1151 C 0.99274 0.46895 0.12011 0.0
loop_
_geom_bond_atom_site_label_1
_geom_bond_atom_site_label_2
_geom_bond_distance
_geom_bond_site_symmetry_2
_ccdc_geom_bond_type
Eu0 N29 2.601 . S
Eu0 N35 2.544 1_655 S
Eu0 O44 2.458 1_655 S
Eu0 O45 2.361 1_655 S
Eu0 O47 2.443 . S
Eu0 O48 2.277 1_645 S
Eu0 O52 2.348 1_545 S
Eu0 O55 2.388 . S
Eu0 C64 2.791 . S
C1 N2 1.365 1_655 S
C1 C4 1.405 . S
C1 C8 1.448 . S
N2 C1 1.365 1_455 S
N2 C5 1.319 . S
N2 Eu11 2.601 . S
C3 C5 1.397 . S
C3 C6 1.367 . S
C3 H23 0.931 . S
C4 C1 1.405 . S
C4 C6 1.403 1_655 S
C4 C10 1.439 . S
C5 N2 1.319 . S
C5 C3 1.397 . S
C5 H16 0.930 . S
C6 C3 1.367 . S
C6 C4 1.403 1_455 S
C6 H27 0.929 . S
C7 C8 1.430 . S
C7 C9 1.387 . S
C7 C13 1.404 . S
C8 C1 1.448 . S
C8 C7 1.430 . S
C8 N12 1.351 . S
C9 C7 1.387 . S
C9 C10 1.374 . S
C9 H24 0.931 . S
C10 C4 1.439 . S
C10 C9 1.374 . S
C10 H25 0.931 . S
Eu11 N2 2.601 . S
Eu11 N12 2.537 1_455 S
Eu11 O46 2.353 1_565 S
Eu11 O49 2.394 . S
Eu11 O50 2.457 1_455 S
Eu11 O51 2.357 1_455 S
Eu11 O53 2.447 . S
Eu11 O54 2.272 1_465 S
Eu11 C75 2.793 . S
N12 C8 1.351 . S
N12 Eu11 2.537 1_655 S
N12 C14 1.325 . S
C13 C7 1.404 . S
C13 C15 1.366 . S
C13 H21 0.930 . S
C14 N12 1.325 . S
C14 C15 1.416 . S
C14 H20 0.929 . S
C15 C13 1.366 . S
C15 C14 1.416 . S
C15 H17 0.930 . S
H16 C5 0.930 . S
H17 C15 0.930 . S
H18 C33 0.930 . S
H19 C40 0.930 . S
H20 C14 0.929 . S
H21 C13 0.930 . S
H22 C36 0.929 . S
H23 C3 0.931 . S
H24 C9 0.931 . S
H25 C10 0.931 . S
H26 C31 0.931 . S
H27 C6 0.929 . S
H28 C39 0.930 . S
N29 Eu0 2.601 . S
N29 C30 1.365 1_655 S
N29 C33 1.319 . S
C30 N29 1.365 1_455 S
C30 C32 1.405 . S
C30 C38 1.448 . S
C31 H26 0.931 . S
C31 C33 1.397 . S
C31 C34 1.367 . S
C32 C30 1.405 . S
C32 C34 1.403 1_455 S
C32 C65 1.439 . S
C33 H18 0.930 . S
C33 N29 1.319 . S
C33 C31 1.397 . S
C34 C31 1.367 . S
C34 C32 1.403 1_655 S
C34 H41 0.929 . S
N35 Eu0 2.544 1_455 S
N35 C36 1.325 . S
N35 C38 1.351 . S
C36 H22 0.929 . S
C36 N35 1.325 . S
C36 C40 1.416 . S
C37 C38 1.430 . S
C37 C39 1.404 . S
C37 C66 1.387 . S
C38 C30 1.448 . S
C38 N35 1.351 . S
C38 C37 1.430 . S
C39 H28 0.930 . S
C39 C37 1.404 . S
C39 C40 1.366 . S
C40 H19 0.930 . S
C40 C36 1.416 . S
C40 C39 1.366 . S
H41 C34 0.929 . S
H42 C65 0.931 . S
H43 C66 0.931 . S
O44 Eu0 2.458 1_455 S
O44 C64 1.252 1_455 S
O45 Eu0 2.361 1_455 S
O45 C56 1.249 . S
O46 Eu11 2.353 1_545 S
O46 C56 1.264 . S
O47 Eu0 2.443 . S
O47 C64 1.268 . S
O48 Eu0 2.277 1_465 S
O48 C63 1.255 . S
O49 Eu11 2.394 . S
O49 C63 1.257 . S
O50 Eu11 2.457 1_655 S
O50 C75 1.252 1_655 S
O51 Eu11 2.357 1_655 S
O51 C67 1.249 . S
O52 Eu0 2.348 1_565 S
O52 C67 1.264 . S
O53 Eu11 2.447 . S
O53 C75 1.268 . S
O54 Eu11 2.272 1_645 S
O54 C74 1.255 . S
O55 Eu0 2.388 . S
O55 C74 1.257 . S
C56 O45 1.249 . S
C56 O46 1.264 . S
C57 C60 1.382 . S
C57 C62 1.390 . S
C57 C64 1.506 . S
C58 C59 1.398 . S
C58 C62 1.392 . S
C59 C58 1.398 . S
C59 C61 1.372 . S
C59 H76 0.931 . S
C60 C57 1.382 . S
C60 C61 1.390 . S
C60 H77 0.931 . S
C61 C59 1.372 . S
C61 C60 1.390 . S
C61 H78 0.929 . S
C62 C57 1.390 . S
C62 C58 1.392 . S
C62 H79 0.930 1_645 S
C63 O48 1.255 . S
C63 O49 1.257 . S
C64 Eu0 2.791 . S
C64 O44 1.252 1_655 S
C64 O47 1.268 . S
C64 C57 1.506 . S
C65 C32 1.439 . S
C65 H42 0.931 . S
C65 C66 1.374 . S
C66 C37 1.387 . S
C66 H43 0.931 . S
C66 C65 1.374 . S
C67 O51 1.249 . S
C67 O52 1.264 . S
C68 C71 1.382 . S
C68 C72 1.390 . S
C68 C75 1.506 . S
C69 C70 1.398 . S
C69 C72 1.392 . S
C70 C69 1.398 . S
C70 C73 1.372 . S
C70 H80 0.931 . S
C71 C68 1.382 . S
C71 C73 1.390 . S
C71 H81 0.931 . S
C72 C68 1.390 . S
C72 C69 1.392 . S
C72 H82 0.930 1_465 S
C73 C70 1.372 . S
C73 C71 1.390 . S
C73 H83 0.929 . S
C74 O54 1.255 . S
C74 O55 1.257 . S
C75 Eu11 2.793 . S
C75 O50 1.252 1_455 S
C75 O53 1.268 . S
C75 C68 1.506 . S
H76 C59 0.931 . S
H77 C60 0.931 . S
H78 C61 0.929 . S
H79 C62 0.930 1_465 S
H80 C70 0.931 . S
H81 C71 0.931 . S
H82 C72 0.930 1_645 S
H83 C73 0.929 . S
Eu84 N113 2.600 . S
Eu84 N119 2.562 . S
Eu84 O128 2.462 . S
Eu84 O129 2.373 . S
Eu84 O131 2.432 . S
Eu84 O132 2.291 . S
Eu84 O136 2.335 . S
Eu84 O139 2.372 . S
Eu84 C148 2.787 . S
C85 N86 1.365 . S
C85 C88 1.405 . S
C85 C92 1.448 . S
N86 C85 1.365 . S
N86 C89 1.319 . S
N86 Eu95 2.600 . S
C87 C89 1.397 . S
C87 C90 1.367 . S
C87 H107 0.931 . S
C88 C85 1.405 . S
C88 C90 1.403 . S
C88 C94 1.439 . S
C89 N86 1.319 . S
C89 C87 1.397 . S
C89 H100 0.930 . S
C90 C87 1.367 . S
C90 C88 1.403 . S
C90 H111 0.929 . S
C91 C92 1.430 . S
C91 C93 1.387 . S
C91 C97 1.404 . S
C92 C85 1.448 . S
C92 C91 1.430 . S
C92 N96 1.351 . S
C93 C91 1.387 . S
C93 C94 1.374 . S
C93 H108 0.931 . S
C94 C88 1.439 . S
C94 C93 1.374 . S
C94 H109 0.931 . S
Eu95 N86 2.600 . S
Eu95 N96 2.562 . S
Eu95 O130 2.335 . S
Eu95 O133 2.372 . S
Eu95 O134 2.462 . S
Eu95 O135 2.373 . S
Eu95 O137 2.432 . S
Eu95 O138 2.291 . S
Eu95 C159 2.787 . S
N96 C92 1.351 . S
N96 Eu95 2.562 . S
N96 C98 1.325 . S
C97 C91 1.404 . S
C97 C99 1.366 . S
C97 H105 0.930 . S
C98 N96 1.325 . S
C98 C99 1.416 . S
C98 H104 0.929 . S
C99 C97 1.366 . S
C99 C98 1.416 . S
C99 H101 0.930 . S
H100 C89 0.930 . S
H101 C99 0.930 . S
H102 C117 0.930 . S
H103 C124 0.930 . S
H104 C98 0.929 . S
H105 C97 0.930 . S
H106 C120 0.929 . S
H107 C87 0.931 . S
H108 C93 0.931 . S
H109 C94 0.931 . S
H110 C115 0.931 . S
H111 C90 0.929 . S
H112 C123 0.930 . S
N113 Eu84 2.600 . S
N113 C114 1.365 . S
N113 C117 1.319 . S
C114 N113 1.365 . S
C114 C116 1.405 . S
C114 C122 1.448 . S
C115 H110 0.931 . S
C115 C117 1.397 . S
C115 C118 1.367 . S
C116 C114 1.405 . S
C116 C118 1.403 . S
C116 C149 1.439 . S
C117 H102 0.930 . S
C117 N113 1.319 . S
C117 C115 1.397 . S
C118 C115 1.367 . S
C118 C116 1.403 . S
C118 H125 0.929 . S
N119 Eu84 2.562 . S
N119 C120 1.325 . S
N119 C122 1.351 . S
C120 H106 0.929 . S
C120 N119 1.325 . S
C120 C124 1.416 . S
C121 C122 1.430 . S
C121 C123 1.404 . S
C121 C150 1.387 . S
C122 C114 1.448 . S
C122 N119 1.351 . S
C122 C121 1.430 . S
C123 H112 0.930 . S
C123 C121 1.404 . S
C123 C124 1.366 . S
C124 H103 0.930 . S
C124 C120 1.416 . S
C124 C123 1.366 . S
H125 C118 0.929 . S
H126 C149 0.931 . S
H127 C150 0.931 . S
O128 Eu84 2.462 . S
O128 C148 1.252 . S
O129 Eu84 2.373 . S
O129 C140 1.249 . S
O130 Eu95 2.335 . S
O130 C140 1.264 . S
O131 Eu84 2.432 . S
O131 C148 1.268 . S
O132 Eu84 2.291 . S
O132 C147 1.255 . S
O133 Eu95 2.372 . S
O133 C147 1.257 . S
O134 Eu95 2.462 . S
O134 C159 1.252 . S
O135 Eu95 2.373 . S
O135 C151 1.249 . S
O136 Eu84 2.335 . S
O136 C151 1.264 . S
O137 Eu95 2.432 . S
O137 C159 1.268 . S
O138 Eu95 2.291 . S
O138 C158 1.255 . S
O139 Eu84 2.372 . S
O139 C158 1.257 . S
C140 O129 1.249 . S
C140 O130 1.264 . S
C141 C144 1.388 . S
C141 C146 1.390 1_556 S
C141 C148 1.506 . S
C142 C143 1.398 . S
C142 C146 1.392 . S
C143 C142 1.398 . S
C143 C145 1.372 . S
C143 H160 0.931 . S
C144 C141 1.388 . S
C144 C145 1.375 1_556 S
C144 H161 0.940 . S
C145 C143 1.372 . S
C145 C144 1.375 1_554 S
C145 H162 0.929 . S
C146 C141 1.390 1_554 S
C146 C142 1.392 . S
C146 H163 0.930 1_554 S
C147 O132 1.255 . S
C147 O133 1.257 . S
C148 Eu84 2.787 . S
C148 O128 1.252 . S
C148 O131 1.268 . S
C148 C141 1.506 . S
C149 C116 1.439 . S
C149 H126 0.931 . S
C149 C150 1.374 . S
C150 C121 1.387 . S
C150 H127 0.931 . S
C150 C149 1.374 . S
C151 O135 1.249 . S
C151 O136 1.264 . S
C152 C155 1.382 . S
C152 C156 1.390 . S
C152 C159 1.506 . S
C153 C154 1.398 . S
C153 C156 1.392 . S
C154 C153 1.398 . S
C154 C157 1.372 . S
C154 H164 0.931 . S
C155 C152 1.382 . S
C155 C157 1.390 . S
C155 H165 0.931 . S
C156 C152 1.390 . S
C156 C153 1.392 . S
C156 H166 0.930 . S
C157 C154 1.372 . S
C157 C155 1.390 . S
C157 H167 0.929 . S
C158 O138 1.255 . S
C158 O139 1.257 . S
C159 Eu95 2.787 . S
C159 O134 1.252 . S
C159 O137 1.268 . S
C159 C152 1.506 . S
H160 C143 0.931 . S
H161 C144 0.940 . S
H162 C145 0.929 . S
H163 C146 0.930 1_556 S
H164 C154 0.931 . S
H165 C155 0.931 . S
H166 C156 0.930 . S
H167 C157 0.929 . S
Eu168 N197 2.600 . S
Eu168 N203 2.562 . S
Eu168 O212 2.462 . S
Eu168 O213 2.373 1_554 S
Eu168 O215 2.432 . S
Eu168 O216 2.291 1_565 S
Eu168 O220 2.335 1_565 S
Eu168 O223 2.372 . S
Eu168 C232 2.787 . S
C169 N170 1.365 . S
C169 C172 1.405 . S
C169 C176 1.448 . S
N170 C169 1.365 . S
N170 C173 1.319 . S
N170 Eu179 2.600 . S
C171 C173 1.397 . S
C171 C174 1.367 . S
C171 H191 0.931 . S
C172 C169 1.405 . S
C172 C174 1.403 . S
C172 C178 1.439 . S
C173 N170 1.319 . S
C173 C171 1.397 . S
C173 H184 0.930 . S
C174 C171 1.367 . S
C174 C172 1.403 . S
C174 H195 0.929 . S
C175 C176 1.430 . S
C175 C177 1.387 . S
C175 C181 1.404 . S
C176 C169 1.448 . S
C176 C175 1.430 . S
C176 N180 1.351 . S
C177 C175 1.387 . S
C177 C178 1.374 . S
C177 H192 0.931 . S
C178 C172 1.439 . S
C178 C177 1.374 . S
C178 H193 0.931 . S
Eu179 N170 2.600 . S
Eu179 N180 2.562 . S
Eu179 O214 2.335 1_545 S
Eu179 O217 2.372 . S
Eu179 O218 2.462 . S
Eu179 O219 2.373 1_556 S
Eu179 O221 2.432 . S
Eu179 O222 2.291 1_545 S
Eu179 C243 2.787 . S
N180 C176 1.351 . S
N180 Eu179 2.562 . S
N180 C182 1.325 . S
C181 C175 1.404 . S
C181 C183 1.366 . S
C181 H189 0.930 . S
C182 N180 1.325 . S
C182 C183 1.416 . S
C182 H188 0.929 . S
C183 C181 1.366 . S
C183 C182 1.416 . S
C183 H185 0.930 . S
H184 C173 0.930 . S
H185 C183 0.930 . S
H186 C201 0.930 . S
H187 C208 0.930 . S
H188 C182 0.929 . S
H189 C181 0.930 . S
H190 C204 0.929 . S
H191 C171 0.931 . S
H192 C177 0.931 . S
H193 C178 0.931 . S
H194 C199 0.931 . S
H195 C174 0.929 . S
H196 C207 0.930 . S
N197 Eu168 2.600 . S
N197 C198 1.365 . S
N197 C201 1.319 . S
C198 N197 1.365 . S
C198 C200 1.405 . S
C198 C206 1.448 . S
C199 H194 0.931 . S
C199 C201 1.397 . S
C199 C202 1.367 . S
C200 C198 1.405 . S
C200 C202 1.403 . S
C200 C233 1.439 . S
C201 H186 0.930 . S
C201 N197 1.319 . S
C201 C199 1.397 . S
C202 C199 1.367 . S
C202 C200 1.403 . S
C202 H209 0.929 . S
N203 Eu168 2.562 . S
N203 C204 1.325 . S
N203 C206 1.351 . S
C204 H190 0.929 . S
C204 N203 1.325 . S
C204 C208 1.416 . S
C205 C206 1.430 . S
C205 C207 1.404 . S
C205 C234 1.387 . S
C206 C198 1.448 . S
C206 N203 1.351 . S
C206 C205 1.430 . S
C207 H196 0.930 . S
C207 C205 1.404 . S
C207 C208 1.366 . S
C208 H187 0.930 . S
C208 C204 1.416 . S
C208 C207 1.366 . S
H209 C202 0.929 . S
H210 C233 0.931 . S
H211 C234 0.931 . S
O212 Eu168 2.462 . S
O212 C232 1.252 . S
O213 Eu168 2.373 1_556 S
O213 C224 1.249 . S
O214 Eu179 2.335 1_565 S
O214 C224 1.264 . S
O215 Eu168 2.432 . S
O215 C232 1.268 . S
O216 Eu168 2.291 1_545 S
O216 C231 1.255 . S
O217 Eu179 2.372 . S
O217 C231 1.257 1_556 S
O218 Eu179 2.462 . S
O218 C243 1.252 . S
O219 Eu179 2.373 1_554 S
O219 C235 1.249 . S
O220 Eu168 2.335 1_545 S
O220 C235 1.264 . S
O221 Eu179 2.432 . S
O221 C243 1.268 . S
O222 Eu179 2.291 1_565 S
O222 C242 1.255 . S
O223 Eu168 2.372 . S
O223 C242 1.257 1_554 S
C224 O213 1.249 . S
C224 O214 1.264 . S
C225 C228 1.382 . S
C225 C230 1.390 . S
C225 C232 1.506 . S
C226 C227 1.398 . S
C226 C230 1.392 . S
C227 C226 1.398 . S
C227 C229 1.372 . S
C227 H244 0.931 . S
C228 C225 1.382 . S
C228 C229 1.390 . S
C228 H245 0.931 . S
C229 C227 1.372 . S
C229 C228 1.390 . S
C229 H246 0.929 . S
C230 C225 1.390 . S
C230 C226 1.392 . S
C230 H247 0.930 1_565 S
C231 O216 1.255 . S
C231 O217 1.257 1_554 S
C232 Eu168 2.787 . S
C232 O212 1.252 . S
C232 O215 1.268 . S
C232 C225 1.506 . S
C233 C200 1.439 . S
C233 H210 0.931 . S
C233 C234 1.374 . S
C234 C205 1.387 . S
C234 H211 0.931 . S
C234 C233 1.374 . S
C235 O219 1.249 . S
C235 O220 1.264 . S
C236 C239 1.382 . S
C236 C240 1.390 . S
C236 C243 1.506 . S
C237 C238 1.398 . S
C237 C240 1.392 . S
C238 C237 1.398 . S
C238 C241 1.372 . S
C238 H248 0.931 . S
C239 C236 1.382 . S
C239 C241 1.390 . S
C239 H249 0.931 . S
C240 C236 1.390 . S
C240 C237 1.392 . S
C240 H250 0.930 1_545 S
C241 C238 1.372 . S
C241 C239 1.390 . S
C241 H251 0.929 . S
C242 O222 1.255 . S
C242 O223 1.257 1_556 S
C243 Eu179 2.787 . S
C243 O218 1.252 . S
C243 O221 1.268 . S
C243 C236 1.506 . S
H244 C227 0.931 . S
H245 C228 0.931 . S
H246 C229 0.929 . S
H247 C230 0.930 1_545 S
H248 C238 0.931 . S
H249 C239 0.931 . S
H250 C240 0.930 1_565 S
H251 C241 0.929 . S
Eu252 N281 2.600 . S
Eu252 N287 2.562 . S
Eu252 O296 2.462 . S
Eu252 O297 2.373 . S
Eu252 O299 2.432 . S
Eu252 O300 2.291 . S
Eu252 O304 2.335 . S
Eu252 O307 2.372 . S
Eu252 C316 2.787 . S
C253 N254 1.365 . S
C253 C256 1.405 . S
C253 C260 1.448 . S
N254 C253 1.365 . S
N254 C257 1.319 . S
N254 Eu263 2.600 . S
C255 C257 1.397 . S
C255 C258 1.367 . S
C255 H275 0.931 . S
C256 C253 1.405 . S
C256 C258 1.403 . S
C256 C262 1.439 . S
C257 N254 1.319 . S
C257 C255 1.397 . S
C257 H268 0.930 . S
C258 C255 1.367 . S
C258 C256 1.403 . S
C258 H279 0.929 . S
C259 C260 1.430 . S
C259 C261 1.387 . S
C259 C265 1.404 . S
C260 C253 1.448 . S
C260 C259 1.430 . S
C260 N264 1.351 . S
C261 C259 1.387 . S
C261 C262 1.374 . S
C261 H276 0.931 . S
C262 C256 1.439 . S
C262 C261 1.374 . S
C262 H277 0.931 . S
Eu263 N254 2.600 . S
Eu263 N264 2.562 . S
Eu263 O298 2.335 . S
Eu263 O301 2.372 . S
Eu263 O302 2.462 . S
Eu263 O303 2.373 . S
Eu263 O305 2.432 . S
Eu263 O306 2.291 . S
Eu263 C327 2.787 . S
N264 C260 1.351 . S
N264 Eu263 2.562 . S
N264 C266 1.325 . S
C265 C259 1.404 . S
C265 C267 1.366 . S
C265 H273 0.930 . S
C266 N264 1.325 . S
C266 C267 1.416 . S
C266 H272 0.929 . S
C267 C265 1.366 . S
C267 C266 1.416 . S
C267 H269 0.930 . S
H268 C257 0.930 . S
H269 C267 0.930 . S
H270 C285 0.930 . S
H271 C292 0.930 . S
H272 C266 0.929 . S
H273 C265 0.930 . S
H274 C288 0.929 . S
H275 C255 0.931 . S
H276 C261 0.931 . S
H277 C262 0.931 . S
H278 C283 0.931 . S
H279 C258 0.929 . S
H280 C291 0.930 . S
N281 Eu252 2.600 . S
N281 C282 1.365 . S
N281 C285 1.319 . S
C282 N281 1.365 . S
C282 C284 1.405 . S
C282 C290 1.448 . S
C283 H278 0.931 . S
C283 C285 1.397 . S
C283 C286 1.367 . S
C284 C282 1.405 . S
C284 C286 1.403 . S
C284 C317 1.439 . S
C285 H270 0.930 . S
C285 N281 1.319 . S
C285 C283 1.397 . S
C286 C283 1.367 . S
C286 C284 1.403 . S
C286 H293 0.929 . S
N287 Eu252 2.562 . S
N287 C288 1.325 . S
N287 C290 1.351 . S
C288 H274 0.929 . S
C288 N287 1.325 . S
C288 C292 1.416 . S
C289 C290 1.430 . S
C289 C291 1.404 . S
C289 C318 1.387 . S
C290 C282 1.448 . S
C290 N287 1.351 . S
C290 C289 1.430 . S
C291 H280 0.930 . S
C291 C289 1.404 . S
C291 C292 1.366 . S
C292 H271 0.930 . S
C292 C288 1.416 . S
C292 C291 1.366 . S
H293 C286 0.929 . S
H294 C317 0.931 . S
H295 C318 0.931 . S
O296 Eu252 2.462 . S
O296 C316 1.252 . S
O297 Eu252 2.373 . S
O297 C308 1.249 . S
O298 Eu263 2.335 . S
O298 C308 1.264 . S
O299 Eu252 2.432 . S
O299 C316 1.268 . S
O300 Eu252 2.291 . S
O300 C315 1.255 . S
O301 Eu263 2.372 . S
O301 C315 1.257 . S
O302 Eu263 2.462 . S
O302 C327 1.252 . S
O303 Eu263 2.373 . S
O303 C319 1.249 . S
O304 Eu252 2.335 . S
O304 C319 1.264 . S
O305 Eu263 2.432 . S
O305 C327 1.268 . S
O306 Eu263 2.291 . S
O306 C326 1.255 . S
O307 Eu252 2.372 . S
O307 C326 1.257 . S
C308 O297 1.249 . S
C308 O298 1.264 . S
C309 C312 1.389 . S
C309 C314 1.390 1_554 S
C309 C316 1.506 . S
C310 C311 1.398 . S
C310 C314 1.392 . S
C311 C310 1.398 . S
C311 C313 1.372 . S
C311 H328 0.931 . S
C312 C309 1.389 . S
C312 C313 1.371 1_554 S
C312 H329 0.943 . S
C313 C311 1.372 . S
C313 C312 1.371 1_556 S
C313 H330 0.929 . S
C314 C309 1.390 1_556 S
C314 C310 1.392 . S
C314 H331 0.930 1_556 S
C315 O300 1.255 . S
C315 O301 1.257 . S
C316 Eu252 2.787 . S
C316 O296 1.252 . S
C316 O299 1.268 . S
C316 C309 1.506 . S
C317 C284 1.439 . S
C317 H294 0.931 . S
C317 C318 1.374 . S
C318 C289 1.387 . S
C318 H295 0.931 . S
C318 C317 1.374 . S
C319 O303 1.249 . S
C319 O304 1.264 . S
C320 C323 1.382 . S
C320 C324 1.390 . S
C320 C327 1.506 . S
C321 C322 1.398 . S
C321 C324 1.392 . S
C322 C321 1.398 . S
C322 C325 1.372 . S
C322 H332 0.931 . S
C323 C320 1.382 . S
C323 C325 1.390 . S
C323 H333 0.931 . S
C324 C320 1.390 . S
C324 C321 1.392 . S
C324 H334 0.930 . S
C325 C322 1.372 . S
C325 C323 1.390 . S
C325 H335 0.929 . S
C326 O306 1.255 . S
C326 O307 1.257 . S
C327 Eu263 2.787 . S
C327 O302 1.252 . S
C327 O305 1.268 . S
C327 C320 1.506 . S
H328 C311 0.931 . S
H329 C312 0.943 . S
H330 C313 0.929 . S
H331 C314 0.930 1_554 S
H332 C322 0.931 . S
H333 C323 0.931 . S
H334 C324 0.930 . S
H335 C325 0.929 . S
Eu336 N365 2.600 . S
Eu336 N371 2.562 . S
Eu336 O380 2.462 . S
Eu336 O381 2.373 . S
Eu336 O383 2.432 . S
Eu336 O384 2.291 . S
Eu336 O388 2.335 . S
Eu336 O391 2.372 . S
Eu336 C400 2.787 . S
C337 N338 1.365 . S
C337 C340 1.405 . S
C337 C344 1.448 . S
N338 C337 1.365 . S
N338 C341 1.319 . S
N338 Eu347 2.600 . S
C339 C341 1.397 . S
C339 C342 1.367 . S
C339 H359 0.931 . S
C340 C337 1.405 . S
C340 C342 1.403 . S
C340 C346 1.439 . S
C341 N338 1.319 . S
C341 C339 1.397 . S
C341 H352 0.930 . S
C342 C339 1.367 . S
C342 C340 1.403 . S
C342 H363 0.929 . S
C343 C344 1.430 . S
C343 C345 1.387 . S
C343 C349 1.404 . S
C344 C337 1.448 . S
C344 C343 1.430 . S
C344 N348 1.351 . S
C345 C343 1.387 . S
C345 C346 1.374 . S
C345 H360 0.931 . S
C346 C340 1.439 . S
C346 C345 1.374 . S
C346 H361 0.931 . S
Eu347 N338 2.600 . S
Eu347 N348 2.562 . S
Eu347 O382 2.335 . S
Eu347 O385 2.372 . S
Eu347 O386 2.462 . S
Eu347 O387 2.373 . S
Eu347 O389 2.432 . S
Eu347 O390 2.291 . S
Eu347 C411 2.787 . S
N348 C344 1.351 . S
N348 Eu347 2.562 . S
N348 C350 1.325 . S
C349 C343 1.404 . S
C349 C351 1.366 . S
C349 H357 0.930 . S
C350 N348 1.325 . S
C350 C351 1.416 . S
C350 H356 0.929 . S
C351 C349 1.366 . S
C351 C350 1.416 . S
C351 H353 0.930 . S
H352 C341 0.930 . S
H353 C351 0.930 . S
H354 C369 0.930 . S
H355 C376 0.930 . S
H356 C350 0.929 . S
H357 C349 0.930 . S
H358 C372 0.929 . S
H359 C339 0.931 . S
H360 C345 0.931 . S
H361 C346 0.931 . S
H362 C367 0.931 . S
H363 C342 0.929 . S
H364 C375 0.930 . S
N365 Eu336 2.600 . S
N365 C366 1.365 . S
N365 C369 1.319 . S
C366 N365 1.365 . S
C366 C368 1.405 . S
C366 C374 1.448 . S
C367 H362 0.931 . S
C367 C369 1.397 . S
C367 C370 1.367 . S
C368 C366 1.405 . S
C368 C370 1.403 . S
C368 C401 1.439 . S
C369 H354 0.930 . S
C369 N365 1.319 . S
C369 C367 1.397 . S
C370 C367 1.367 . S
C370 C368 1.403 . S
C370 H377 0.929 . S
N371 Eu336 2.562 . S
N371 C372 1.325 . S
N371 C374 1.351 . S
C372 H358 0.929 . S
C372 N371 1.325 . S
C372 C376 1.416 . S
C373 C374 1.430 . S
C373 C375 1.404 . S
C373 C402 1.387 . S
C374 C366 1.448 . S
C374 N371 1.351 . S
C374 C373 1.430 . S
C375 H364 0.930 . S
C375 C373 1.404 . S
C375 C376 1.366 . S
C376 H355 0.930 . S
C376 C372 1.416 . S
C376 C375 1.366 . S
H377 C370 0.929 . S
H378 C401 0.931 . S
H379 C402 0.931 . S
O380 Eu336 2.462 . S
O380 C400 1.252 . S
O381 Eu336 2.373 . S
O381 C392 1.249 . S
O382 Eu347 2.335 . S
O382 C392 1.264 . S
O383 Eu336 2.432 . S
O383 C400 1.268 . S
O384 Eu336 2.291 . S
O384 C399 1.255 . S
O385 Eu347 2.372 . S
O385 C399 1.257 . S
O386 Eu347 2.462 . S
O386 C411 1.252 . S
O387 Eu347 2.373 . S
O387 C403 1.249 . S
O388 Eu336 2.335 . S
O388 C403 1.264 . S
O389 Eu347 2.432 . S
O389 C411 1.268 . S
O390 Eu347 2.291 . S
O390 C410 1.255 . S
O391 Eu336 2.372 . S
O391 C410 1.257 . S
C392 O381 1.249 . S
C392 O382 1.264 . S
C393 C396 1.382 . S
C393 C398 1.390 . S
C393 C400 1.506 . S
C394 C395 1.398 . S
C394 C398 1.392 . S
C395 C394 1.398 . S
C395 C397 1.372 . S
C395 H412 0.931 . S
C396 C393 1.382 . S
C396 C397 1.390 . S
C396 H413 0.931 . S
C397 C395 1.372 . S
C397 C396 1.390 . S
C397 H414 0.929 . S
C398 C393 1.390 . S
C398 C394 1.392 . S
C398 H415 0.930 . S
C399 O384 1.255 . S
C399 O385 1.257 . S
C400 Eu336 2.787 . S
C400 O380 1.252 . S
C400 O383 1.268 . S
C400 C393 1.506 . S
C401 C368 1.439 . S
C401 H378 0.931 . S
C401 C402 1.374 . S
C402 C373 1.387 . S
C402 H379 0.931 . S
C402 C401 1.374 . S
C403 O387 1.249 . S
C403 O388 1.264 . S
C404 C407 1.388 . S
C404 C408 1.390 1_554 S
C404 C411 1.506 . S
C405 C406 1.398 . S
C405 C408 1.392 . S
C406 C405 1.398 . S
C406 C409 1.372 . S
C406 H416 0.931 . S
C407 C404 1.388 . S
C407 C409 1.375 1_554 S
C407 H417 0.940 . S
C408 C404 1.390 1_556 S
C408 C405 1.392 . S
C408 H418 0.930 1_556 S
C409 C406 1.372 . S
C409 C407 1.375 1_556 S
C409 H419 0.929 . S
C410 O390 1.255 . S
C410 O391 1.257 . S
C411 Eu347 2.787 . S
C411 O386 1.252 . S
C411 O389 1.268 . S
C411 C404 1.506 . S
H412 C395 0.931 . S
H413 C396 0.931 . S
H414 C397 0.929 . S
H415 C398 0.930 . S
H416 C406 0.931 . S
H417 C407 0.940 . S
H418 C408 0.930 1_554 S
H419 C409 0.929 . S
Eu420 N449 2.600 . S
Eu420 N455 2.562 . S
Eu420 O464 2.462 . S
Eu420 O465 2.373 . S
Eu420 O467 2.432 . S
Eu420 O468 2.291 . S
Eu420 O472 2.335 . S
Eu420 O475 2.372 . S
Eu420 C484 2.787 . S
C421 N422 1.365 . S
C421 C424 1.405 . S
C421 C428 1.448 . S
N422 C421 1.365 . S
N422 C425 1.319 . S
N422 Eu431 2.600 . S
C423 C425 1.397 . S
C423 C426 1.367 . S
C423 H443 0.931 . S
C424 C421 1.405 . S
C424 C426 1.403 . S
C424 C430 1.439 . S
C425 N422 1.319 . S
C425 C423 1.397 . S
C425 H436 0.930 . S
C426 C423 1.367 . S
C426 C424 1.403 . S
C426 H447 0.929 . S
C427 C428 1.430 . S
C427 C429 1.387 . S
C427 C433 1.404 . S
C428 C421 1.448 . S
C428 C427 1.430 . S
C428 N432 1.351 . S
C429 C427 1.387 . S
C429 C430 1.374 . S
C429 H444 0.931 . S
C430 C424 1.439 . S
C430 C429 1.374 . S
C430 H445 0.931 . S
Eu431 N422 2.600 . S
Eu431 N432 2.562 . S
Eu431 O466 2.335 . S
Eu431 O469 2.372 . S
Eu431 O470 2.462 . S
Eu431 O471 2.373 . S
Eu431 O473 2.432 . S
Eu431 O474 2.291 . S
Eu431 C495 2.787 . S
N432 C428 1.351 . S
N432 Eu431 2.562 . S
N432 C434 1.325 . S
C433 C427 1.404 . S
C433 C435 1.366 . S
C433 H441 0.930 . S
C434 N432 1.325 . S
C434 C435 1.416 . S
C434 H440 0.929 . S
C435 C433 1.366 . S
C435 C434 1.416 . S
C435 H437 0.930 . S
H436 C425 0.930 . S
H437 C435 0.930 . S
H438 C453 0.930 . S
H439 C460 0.930 . S
H440 C434 0.929 . S
H441 C433 0.930 . S
H442 C456 0.929 . S
H443 C423 0.931 . S
H444 C429 0.931 . S
H445 C430 0.931 . S
H446 C451 0.931 . S
H447 C426 0.929 . S
H448 C459 0.930 . S
N449 Eu420 2.600 . S
N449 C450 1.365 . S
N449 C453 1.319 . S
C450 N449 1.365 . S
C450 C452 1.405 . S
C450 C458 1.448 . S
C451 H446 0.931 . S
C451 C453 1.397 . S
C451 C454 1.367 . S
C452 C450 1.405 . S
C452 C454 1.403 . S
C452 C485 1.439 . S
C453 H438 0.930 . S
C453 N449 1.319 . S
C453 C451 1.397 . S
C454 C451 1.367 . S
C454 C452 1.403 . S
C454 H461 0.929 . S
N455 Eu420 2.562 . S
N455 C456 1.325 . S
N455 C458 1.351 . S
C456 H442 0.929 . S
C456 N455 1.325 . S
C456 C460 1.416 . S
C457 C458 1.430 . S
C457 C459 1.404 . S
C457 C486 1.387 . S
C458 C450 1.448 . S
C458 N455 1.351 . S
C458 C457 1.430 . S
C459 H448 0.930 . S
C459 C457 1.404 . S
C459 C460 1.366 . S
C460 H439 0.930 . S
C460 C456 1.416 . S
C460 C459 1.366 . S
H461 C454 0.929 . S
H462 C485 0.931 . S
H463 C486 0.931 . S
O464 Eu420 2.462 . S
O464 C484 1.252 . S
O465 Eu420 2.373 . S
O465 C476 1.249 . S
O466 Eu431 2.335 . S
O466 C476 1.264 . S
O467 Eu420 2.432 . S
O467 C484 1.268 . S
O468 Eu420 2.291 . S
O468 C483 1.255 . S
O469 Eu431 2.372 . S
O469 C483 1.257 . S
O470 Eu431 2.462 . S
O470 C495 1.252 . S
O471 Eu431 2.373 . S
O471 C487 1.249 . S
O472 Eu420 2.335 . S
O472 C487 1.264 . S
O473 Eu431 2.432 . S
O473 C495 1.268 . S
O474 Eu431 2.291 . S
O474 C494 1.255 . S
O475 Eu420 2.372 . S
O475 C494 1.257 . S
C476 O465 1.249 . S
C476 O466 1.264 . S
C477 C480 1.382 . S
C477 C482 1.390 . S
C477 C484 1.506 . S
C478 C479 1.398 . S
C478 C482 1.392 . S
C479 C478 1.398 . S
C479 C481 1.372 . S
C479 H496 0.931 . S
C480 C477 1.382 . S
C480 C481 1.390 . S
C480 H497 0.931 . S
C481 C479 1.372 . S
C481 C480 1.390 . S
C481 H498 0.929 . S
C482 C477 1.390 . S
C482 C478 1.392 . S
C482 H499 0.930 . S
C483 O468 1.255 . S
C483 O469 1.257 . S
C484 Eu420 2.787 . S
C484 O464 1.252 . S
C484 O467 1.268 . S
C484 C477 1.506 . S
C485 C452 1.439 . S
C485 H462 0.931 . S
C485 C486 1.374 . S
C486 C457 1.387 . S
C486 H463 0.931 . S
C486 C485 1.374 . S
C487 O471 1.249 . S
C487 O472 1.264 . S
C488 C491 1.389 . S
C488 C492 1.390 1_556 S
C488 C495 1.506 . S
C489 C490 1.398 . S
C489 C492 1.392 . S
C490 C489 1.398 . S
C490 C493 1.372 . S
C490 H500 0.931 . S
C491 C488 1.389 . S
C491 C493 1.371 1_556 S
C491 H501 0.943 . S
C492 C488 1.390 1_554 S
C492 C489 1.392 . S
C492 H502 0.930 1_554 S
C493 C490 1.372 . S
C493 C491 1.371 1_554 S
C493 H503 0.929 . S
C494 O474 1.255 . S
C494 O475 1.257 . S
C495 Eu431 2.787 . S
C495 O470 1.252 . S
C495 O473 1.268 . S
C495 C488 1.506 . S
H496 C479 0.931 . S
H497 C480 0.931 . S
H498 C481 0.929 . S
H499 C482 0.930 . S
H500 C490 0.931 . S
H501 C491 0.943 . S
H502 C492 0.930 1_556 S
H503 C493 0.929 . S
Eu504 N533 2.600 . S
Eu504 N539 2.562 . S
Eu504 O548 2.462 . S
Eu504 O549 2.373 1_554 S
Eu504 O551 2.432 . S
Eu504 O552 2.291 . S
Eu504 O556 2.335 . S
Eu504 O559 2.372 . S
Eu504 C568 2.787 . S
C505 N506 1.365 . S
C505 C508 1.405 . S
C505 C512 1.448 . S
N506 C505 1.365 . S
N506 C509 1.319 . S
N506 Eu515 2.600 . S
C507 C509 1.397 . S
C507 C510 1.367 . S
C507 H527 0.931 . S
C508 C505 1.405 . S
C508 C510 1.403 . S
C508 C514 1.439 . S
C509 N506 1.319 . S
C509 C507 1.397 . S
C509 H520 0.930 . S
C510 C507 1.367 . S
C510 C508 1.403 . S
C510 H531 0.929 . S
C511 C512 1.430 . S
C511 C513 1.387 . S
C511 C517 1.404 . S
C512 C505 1.448 . S
C512 C511 1.430 . S
C512 N516 1.351 . S
C513 C511 1.387 . S
C513 C514 1.374 . S
C513 H528 0.931 . S
C514 C508 1.439 . S
C514 C513 1.374 . S
C514 H529 0.931 . S
Eu515 N506 2.600 . S
Eu515 N516 2.562 . S
Eu515 O550 2.335 . S
Eu515 O553 2.372 . S
Eu515 O554 2.462 . S
Eu515 O555 2.373 1_556 S
Eu515 O557 2.432 . S
Eu515 O558 2.291 . S
Eu515 C579 2.787 . S
N516 C512 1.351 . S
N516 Eu515 2.562 . S
N516 C518 1.325 . S
C517 C511 1.404 . S
C517 C519 1.366 . S
C517 H525 0.930 . S
C518 N516 1.325 . S
C518 C519 1.416 . S
C518 H524 0.929 . S
C519 C517 1.366 . S
C519 C518 1.416 . S
C519 H521 0.930 . S
H520 C509 0.930 . S
H521 C519 0.930 . S
H522 C537 0.930 . S
H523 C544 0.930 . S
H524 C518 0.929 . S
H525 C517 0.930 . S
H526 C540 0.929 . S
H527 C507 0.931 . S
H528 C513 0.931 . S
H529 C514 0.931 . S
H530 C535 0.931 . S
H531 C510 0.929 . S
H532 C543 0.930 . S
N533 Eu504 2.600 . S
N533 C534 1.365 . S
N533 C537 1.319 . S
C534 N533 1.365 . S
C534 C536 1.405 . S
C534 C542 1.448 . S
C535 H530 0.931 . S
C535 C537 1.397 . S
C535 C538 1.367 . S
C536 C534 1.405 . S
C536 C538 1.403 . S
C536 C569 1.439 . S
C537 H522 0.930 . S
C537 N533 1.319 . S
C537 C535 1.397 . S
C538 C535 1.367 . S
C538 C536 1.403 . S
C538 H545 0.929 . S
N539 Eu504 2.562 . S
N539 C540 1.325 . S
N539 C542 1.351 . S
C540 H526 0.929 . S
C540 N539 1.325 . S
C540 C544 1.416 . S
C541 C542 1.430 . S
C541 C543 1.404 . S
C541 C570 1.387 . S
C542 C534 1.448 . S
C542 N539 1.351 . S
C542 C541 1.430 . S
C543 H532 0.930 . S
C543 C541 1.404 . S
C543 C544 1.366 . S
C544 H523 0.930 . S
C544 C540 1.416 . S
C544 C543 1.366 . S
H545 C538 0.929 . S
H546 C569 0.931 . S
H547 C570 0.931 . S
O548 Eu504 2.462 . S
O548 C568 1.252 . S
O549 Eu504 2.373 1_556 S
O549 C560 1.249 . S
O550 Eu515 2.335 . S
O550 C560 1.264 . S
O551 Eu504 2.432 . S
O551 C568 1.268 . S
O552 Eu504 2.291 . S
O552 C567 1.255 . S
O553 Eu515 2.372 . S
O553 C567 1.257 1_556 S
O554 Eu515 2.462 . S
O554 C579 1.252 . S
O555 Eu515 2.373 1_554 S
O555 C571 1.249 . S
O556 Eu504 2.335 . S
O556 C571 1.264 . S
O557 Eu515 2.432 . S
O557 C579 1.268 . S
O558 Eu515 2.291 . S
O558 C578 1.255 . S
O559 Eu504 2.372 . S
O559 C578 1.257 1_554 S
C560 O549 1.249 . S
C560 O550 1.264 . S
C561 C564 1.382 . S
C561 C566 1.390 . S
C561 C568 1.506 . S
C562 C563 1.398 . S
C562 C566 1.392 . S
C563 C562 1.398 . S
C563 C565 1.372 . S
C563 H580 0.931 . S
C564 C561 1.382 . S
C564 C565 1.390 . S
C564 H581 0.931 . S
C565 C563 1.372 . S
C565 C564 1.390 . S
C565 H582 0.929 . S
C566 C561 1.390 . S
C566 C562 1.392 . S
C566 H583 0.930 . S
C567 O552 1.255 . S
C567 O553 1.257 1_554 S
C568 Eu504 2.787 . S
C568 O548 1.252 . S
C568 O551 1.268 . S
C568 C561 1.506 . S
C569 C536 1.439 . S
C569 H546 0.931 . S
C569 C570 1.374 . S
C570 C541 1.387 . S
C570 H547 0.931 . S
C570 C569 1.374 . S
C571 O555 1.249 . S
C571 O556 1.264 . S
C572 C575 1.382 . S
C572 C576 1.390 . S
C572 C579 1.506 . S
C573 C574 1.398 . S
C573 C576 1.392 . S
C574 C573 1.398 . S
C574 C577 1.372 . S
C574 H584 0.931 . S
C575 C572 1.382 . S
C575 C577 1.390 . S
C575 H585 0.931 . S
C576 C572 1.390 . S
C576 C573 1.392 . S
C576 H586 0.930 . S
C577 C574 1.372 . S
C577 C575 1.390 . S
C577 H587 0.929 . S
C578 O558 1.255 . S
C578 O559 1.257 1_556 S
C579 Eu515 2.787 . S
C579 O554 1.252 . S
C579 O557 1.268 . S
C579 C572 1.506 . S
H580 C563 0.931 . S
H581 C564 0.931 . S
H582 C565 0.929 . S
H583 C566 0.930 . S
H584 C574 0.931 . S
H585 C575 0.931 . S
H586 C576 0.930 . S
H587 C577 0.929 . S
Eu588 N617 2.601 . S
Eu588 N623 2.537 1_455 S
Eu588 O632 2.457 1_455 S
Eu588 O633 2.357 1_455 S
Eu588 O635 2.447 . S
Eu588 O636 2.272 1_455 S
Eu588 O640 2.353 . S
Eu588 O643 2.394 . S
Eu588 C652 2.793 . S
C589 N590 1.365 1_455 S
C589 C592 1.405 . S
C589 C596 1.448 . S
N590 C589 1.365 1_655 S
N590 C593 1.319 . S
N590 Eu599 2.601 . S
C591 C593 1.397 . S
C591 C594 1.367 . S
C591 H611 0.931 . S
C592 C589 1.405 . S
C592 C594 1.403 1_455 S
C592 C598 1.439 . S
C593 N590 1.319 . S
C593 C591 1.397 . S
C593 H604 0.930 . S
C594 C591 1.367 . S
C594 C592 1.403 1_655 S
C594 H615 0.929 . S
C595 C596 1.430 . S
C595 C597 1.387 . S
C595 C601 1.404 . S
C596 C589 1.448 . S
C596 C595 1.430 . S
C596 N600 1.351 . S
C597 C595 1.387 . S
C597 C598 1.374 . S
C597 H612 0.931 . S
C598 C592 1.439 . S
C598 C597 1.374 . S
C598 H613 0.931 . S
Eu599 N590 2.601 . S
Eu599 N600 2.544 1_655 S
Eu599 O634 2.348 . S
Eu599 O637 2.388 . S
Eu599 O638 2.458 1_655 S
Eu599 O639 2.362 1_655 S
Eu599 O641 2.443 . S
Eu599 O642 2.277 1_655 S
Eu599 C663 2.791 . S
N600 C596 1.351 . S
N600 Eu599 2.544 1_455 S
N600 C602 1.325 . S
C601 C595 1.404 . S
C601 C603 1.366 . S
C601 H609 0.930 . S
C602 N600 1.325 . S
C602 C603 1.416 . S
C602 H608 0.929 . S
C603 C601 1.366 . S
C603 C602 1.416 . S
C603 H605 0.930 . S
H604 C593 0.930 . S
H605 C603 0.930 . S
H606 C621 0.930 . S
H607 C628 0.930 . S
H608 C602 0.929 . S
H609 C601 0.930 . S
H610 C624 0.929 . S
H611 C591 0.931 . S
H612 C597 0.931 . S
H613 C598 0.931 . S
H614 C619 0.931 . S
H615 C594 0.929 . S
H616 C627 0.930 . S
N617 Eu588 2.601 . S
N617 C618 1.365 1_455 S
N617 C621 1.319 . S
C618 N617 1.365 1_655 S
C618 C620 1.405 . S
C618 C626 1.448 . S
C619 H614 0.931 . S
C619 C621 1.397 . S
C619 C622 1.367 . S
C620 C618 1.405 . S
C620 C622 1.403 1_655 S
C620 C653 1.439 . S
C621 H606 0.930 . S
C621 N617 1.319 . S
C621 C619 1.397 . S
C622 C619 1.367 . S
C622 C620 1.403 1_455 S
C622 H629 0.929 . S
N623 Eu588 2.537 1_655 S
N623 C624 1.325 . S
N623 C626 1.351 . S
C624 H610 0.929 . S
C624 N623 1.325 . S
C624 C628 1.416 . S
C625 C626 1.430 . S
C625 C627 1.404 . S
C625 C654 1.387 . S
C626 C618 1.448 . S
C626 N623 1.351 . S
C626 C625 1.430 . S
C627 H616 0.930 . S
C627 C625 1.404 . S
C627 C628 1.366 . S
C628 H607 0.930 . S
C628 C624 1.416 . S
C628 C627 1.366 . S
H629 C622 0.929 . S
H630 C653 0.931 . S
H631 C654 0.931 . S
O632 Eu588 2.457 1_655 S
O632 C652 1.252 1_655 S
O633 Eu588 2.357 1_655 S
O633 C644 1.249 . S
O634 Eu599 2.348 . S
O634 C644 1.264 . S
O635 Eu588 2.447 . S
O635 C652 1.268 . S
O636 Eu588 2.272 1_655 S
O636 C651 1.255 . S
O637 Eu599 2.388 . S
O637 C651 1.257 . S
O638 Eu599 2.458 1_455 S
O638 C663 1.252 1_455 S
O639 Eu599 2.362 1_455 S
O639 C655 1.249 . S
O640 Eu588 2.353 . S
O640 C655 1.264 . S
O641 Eu599 2.443 . S
O641 C663 1.268 . S
O642 Eu599 2.277 1_455 S
O642 C662 1.255 . S
O643 Eu588 2.394 . S
O643 C662 1.257 . S
C644 O633 1.249 . S
C644 O634 1.264 . S
C645 C648 1.382 . S
C645 C650 1.390 . S
C645 C652 1.506 . S
C646 C647 1.398 . S
C646 C650 1.392 . S
C647 C646 1.398 . S
C647 C649 1.372 . S
C647 H664 0.931 . S
C648 C645 1.382 . S
C648 C649 1.390 . S
C648 H665 0.931 . S
C649 C647 1.372 . S
C649 C648 1.390 . S
C649 H666 0.929 . S
C650 C645 1.390 . S
C650 C646 1.392 . S
C650 H667 0.930 1_455 S
C651 O636 1.255 . S
C651 O637 1.257 . S
C652 Eu588 2.793 . S
C652 O632 1.252 1_455 S
C652 O635 1.268 . S
C652 C645 1.506 . S
C653 C620 1.439 . S
C653 H630 0.931 . S
C653 C654 1.374 . S
C654 C625 1.387 . S
C654 H631 0.931 . S
C654 C653 1.374 . S
C655 O639 1.249 . S
C655 O640 1.264 . S
C656 C659 1.382 . S
C656 C660 1.390 . S
C656 C663 1.506 . S
C657 C658 1.398 . S
C657 C660 1.392 . S
C658 C657 1.398 . S
C658 C661 1.372 . S
C658 H668 0.931 . S
C659 C656 1.382 . S
C659 C661 1.390 . S
C659 H669 0.931 . S
C660 C656 1.390 . S
C660 C657 1.392 . S
C660 H670 0.930 1_655 S
C661 C658 1.372 . S
C661 C659 1.390 . S
C661 H671 0.929 . S
C662 O642 1.255 . S
C662 O643 1.257 . S
C663 Eu599 2.791 . S
C663 O638 1.252 1_655 S
C663 O641 1.268 . S
C663 C656 1.506 . S
H664 C647 0.931 . S
H665 C648 0.931 . S
H666 C649 0.929 . S
H667 C650 0.930 1_655 S
H668 C658 0.931 . S
H669 C659 0.931 . S
H670 C660 0.930 1_455 S
H671 C661 0.929 . S
H672 C680 0.950 . S
H673 C685 0.950 . S
H674 C682 0.950 . S
H675 C684 0.950 . S
H676 C686 0.950 . S
H677 C688 0.950 . S
H678 C690 0.950 . S
H679 C691 0.950 . S
C680 H672 0.950 . S
C680 C681 1.386 . S
C680 C682 1.391 . S
C681 C680 1.386 . S
C681 C685 1.393 . S
C682 H674 0.950 . S
C682 C680 1.391 . S
C682 C683 1.400 . S
C683 C682 1.400 . S
C683 C684 1.398 . S
C683 C689 1.491 . S
C684 H675 0.950 . S
C684 C683 1.398 . S
C684 C685 1.391 . S
C685 H673 0.950 . S
C685 C681 1.393 . S
C685 C684 1.391 . S
C686 H676 0.950 . S
C686 C687 1.386 . S
C686 C688 1.391 . S
C687 C686 1.386 . S
C687 C691 1.393 . S
C688 H677 0.950 . S
C688 C686 1.391 . S
C688 C689 1.400 . S
C689 C683 1.491 . S
C689 C688 1.400 . S
C689 C690 1.398 . S
C690 H678 0.950 . S
C690 C689 1.398 . S
C690 C691 1.391 . S
C691 H679 0.950 . S
C691 C687 1.393 . S
C691 C690 1.391 . S
H692 C700 0.950 . S
H693 C705 0.950 . S
H694 C702 0.950 . S
H695 C704 0.950 . S
H696 C706 0.950 . S
H697 C708 0.950 . S
H698 C710 0.950 . S
H699 C711 0.950 . S
C700 H692 0.950 . S
C700 C701 1.386 . S
C700 C702 1.391 . S
C701 C700 1.386 . S
C701 C705 1.393 . S
C702 H694 0.950 . S
C702 C700 1.391 . S
C702 C703 1.400 . S
C703 C702 1.400 . S
C703 C704 1.398 . S
C703 C709 1.491 . S
C704 H695 0.950 . S
C704 C703 1.398 . S
C704 C705 1.391 . S
C705 H693 0.950 . S
C705 C701 1.393 . S
C705 C704 1.391 . S
C706 H696 0.950 . S
C706 C707 1.386 . S
C706 C708 1.391 . S
C707 C706 1.386 . S
C707 C711 1.393 . S
C708 H697 0.950 . S
C708 C706 1.391 . S
C708 C709 1.400 . S
C709 C703 1.491 . S
C709 C708 1.400 . S
C709 C710 1.398 . S
C710 H698 0.950 . S
C710 C709 1.398 . S
C710 C711 1.391 . S
C711 H699 0.950 . S
C711 C707 1.393 . S
C711 C710 1.391 . S
H712 C720 0.950 . S
H713 C725 0.950 . S
H714 C722 0.950 . S
H715 C724 0.950 . S
H716 C726 0.950 . S
H717 C728 0.950 . S
H718 C730 0.950 . S
H719 C731 0.950 . S
C720 H712 0.950 . S
C720 C721 1.386 . S
C720 C722 1.391 . S
C721 C720 1.386 . S
C721 C725 1.393 . S
C722 H714 0.950 . S
C722 C720 1.391 . S
C722 C723 1.400 . S
C723 C722 1.400 . S
C723 C724 1.398 . S
C723 C729 1.491 . S
C724 H715 0.950 . S
C724 C723 1.398 . S
C724 C725 1.391 . S
C725 H713 0.950 . S
C725 C721 1.393 . S
C725 C724 1.391 . S
C726 H716 0.950 . S
C726 C727 1.386 . S
C726 C728 1.391 . S
C727 C726 1.386 . S
C727 C731 1.393 . S
C728 H717 0.950 . S
C728 C726 1.391 . S
C728 C729 1.400 . S
C729 C723 1.491 . S
C729 C728 1.400 . S
C729 C730 1.398 . S
C730 H718 0.950 . S
C730 C729 1.398 . S
C730 C731 1.391 . S
C731 H719 0.950 . S
C731 C727 1.393 . S
C731 C730 1.391 . S
H732 C740 0.927 1_556 S
H733 C745 0.950 . S
H734 C742 0.950 . S
H735 C744 0.950 . S
H736 C746 0.950 . S
H737 C748 0.950 . S
H738 C750 0.950 . S
H739 C751 0.950 . S
C740 H732 0.927 1_554 S
C740 C741 1.386 . S
C740 C742 1.391 . S
C741 C740 1.386 . S
C741 C745 1.393 . S
C742 H734 0.950 . S
C742 C740 1.391 . S
C742 C743 1.400 . S
C743 C742 1.400 . S
C743 C744 1.398 . S
C743 C749 1.491 . S
C744 H735 0.950 . S
C744 C743 1.398 . S
C744 C745 1.391 . S
C745 H733 0.950 . S
C745 C741 1.393 . S
C745 C744 1.391 . S
C746 H736 0.950 . S
C746 C747 1.386 . S
C746 C748 1.391 . S
C747 C746 1.386 . S
C747 C751 1.393 . S
C748 H737 0.950 . S
C748 C746 1.391 . S
C748 C749 1.400 . S
C749 C743 1.491 . S
C749 C748 1.400 . S
C749 C750 1.398 . S
C750 H738 0.950 . S
C750 C749 1.398 . S
C750 C751 1.391 . S
C751 H739 0.950 . S
C751 C747 1.393 . S
C751 C750 1.391 . S
H752 C760 0.950 . S
H753 C765 0.950 . S
H754 C762 0.950 . S
H755 C764 0.950 . S
H756 C766 0.950 . S
H757 C768 0.950 . S
H758 C770 0.950 . S
H759 C771 0.950 . S
C760 H752 0.950 . S
C760 C761 1.386 . S
C760 C762 1.391 . S
C761 C760 1.386 . S
C761 C765 1.393 . S
C762 H754 0.950 . S
C762 C760 1.391 . S
C762 C763 1.400 . S
C763 C762 1.400 . S
C763 C764 1.398 . S
C763 C769 1.491 . S
C764 H755 0.950 . S
C764 C763 1.398 . S
C764 C765 1.391 . S
C765 H753 0.950 . S
C765 C761 1.393 . S
C765 C764 1.391 . S
C766 H756 0.950 . S
C766 C767 1.386 . S
C766 C768 1.391 . S
C767 C766 1.386 . S
C767 C771 1.393 . S
C768 H757 0.950 . S
C768 C766 1.391 . S
C768 C769 1.400 . S
C769 C763 1.491 . S
C769 C768 1.400 . S
C769 C770 1.398 . S
C770 H758 0.950 . S
C770 C769 1.398 . S
C770 C771 1.391 . S
C771 H759 0.950 . S
C771 C767 1.393 . S
C771 C770 1.391 . S
H772 C780 0.950 . S
H773 C785 0.950 . S
H774 C782 0.950 . S
H775 C784 0.950 . S
H776 C786 0.950 . S
H777 C788 0.950 . S
H778 C790 0.950 . S
H779 C791 0.950 . S
C780 H772 0.950 . S
C780 C781 1.386 . S
C780 C782 1.391 . S
C781 C780 1.386 . S
C781 C785 1.393 . S
C782 H774 0.950 . S
C782 C780 1.391 . S
C782 C783 1.400 . S
C783 C782 1.400 . S
C783 C784 1.398 . S
C783 C789 1.491 . S
C784 H775 0.950 . S
C784 C783 1.398 . S
C784 C785 1.391 . S
C785 H773 0.950 . S
C785 C781 1.393 . S
C785 C784 1.391 . S
C786 H776 0.950 . S
C786 C787 1.386 . S
C786 C788 1.391 . S
C787 C786 1.386 . S
C787 C791 1.393 . S
C788 H777 0.950 . S
C788 C786 1.391 . S
C788 C789 1.400 . S
C789 C783 1.491 . S
C789 C788 1.400 . S
C789 C790 1.398 . S
C790 H778 0.950 . S
C790 C789 1.398 . S
C790 C791 1.391 . S
C791 H779 0.950 . S
C791 C787 1.393 . S
C791 C790 1.391 . S
H792 C800 0.950 . S
H793 C805 0.950 . S
H794 C802 0.950 . S
H795 C804 0.950 . S
H796 C806 0.950 . S
H797 C808 0.950 . S
H798 C810 0.950 . S
H799 C811 0.950 . S
C800 H792 0.950 . S
C800 C801 1.386 . S
C800 C802 1.391 . S
C801 C800 1.386 . S
C801 C805 1.393 . S
C802 H794 0.950 . S
C802 C800 1.391 . S
C802 C803 1.400 . S
C803 C802 1.400 . S
C803 C804 1.398 . S
C803 C809 1.491 . S
C804 H795 0.950 . S
C804 C803 1.398 . S
C804 C805 1.391 . S
C805 H793 0.950 . S
C805 C801 1.393 . S
C805 C804 1.391 . S
C806 H796 0.950 . S
C806 C807 1.386 . S
C806 C808 1.391 . S
C807 C806 1.386 . S
C807 C811 1.393 . S
C808 H797 0.950 . S
C808 C806 1.391 . S
C808 C809 1.400 . S
C809 C803 1.491 . S
C809 C808 1.400 . S
C809 C810 1.398 . S
C810 H798 0.950 . S
C810 C809 1.398 . S
C810 C811 1.391 . S
C811 H799 0.950 . S
C811 C807 1.393 . S
C811 C810 1.391 . S
H812 C820 0.950 . S
H813 C825 0.950 . S
H814 C822 0.950 . S
H815 C824 0.950 . S
H816 C826 0.950 . S
H817 C828 0.950 . S
H818 C830 0.950 . S
H819 C831 0.950 . S
C820 H812 0.950 . S
C820 C821 1.386 . S
C820 C822 1.391 . S
C821 C820 1.386 . S
C821 C825 1.393 . S
C822 H814 0.950 . S
C822 C820 1.391 . S
C822 C823 1.400 . S
C823 C822 1.400 . S
C823 C824 1.398 . S
C823 C829 1.491 . S
C824 H815 0.950 . S
C824 C823 1.398 . S
C824 C825 1.391 . S
C825 H813 0.950 . S
C825 C821 1.393 . S
C825 C824 1.391 . S
C826 H816 0.950 . S
C826 C827 1.386 . S
C826 C828 1.391 . S
C827 C826 1.386 . S
C827 C831 1.393 . S
C828 H817 0.950 . S
C828 C826 1.391 . S
C828 C829 1.400 . S
C829 C823 1.491 . S
C829 C828 1.400 . S
C829 C830 1.398 . S
C830 H818 0.950 . S
C830 C829 1.398 . S
C830 C831 1.391 . S
C831 H819 0.950 . S
C831 C827 1.393 . S
C831 C830 1.391 . S
H832 C840 0.950 . S
H833 C845 0.950 . S
H834 C842 0.950 . S
H835 C844 0.950 . S
H836 C846 0.950 . S
H837 C848 0.950 . S
H838 C850 0.950 . S
H839 C851 0.950 . S
C840 H832 0.950 . S
C840 C841 1.386 . S
C840 C842 1.391 . S
C841 C840 1.386 . S
C841 C845 1.393 . S
C842 H834 0.950 . S
C842 C840 1.391 . S
C842 C843 1.400 . S
C843 C842 1.400 . S
C843 C844 1.398 . S
C843 C849 1.491 . S
C844 H835 0.950 . S
C844 C843 1.398 . S
C844 C845 1.391 . S
C845 H833 0.950 . S
C845 C841 1.393 . S
C845 C844 1.391 . S
C846 H836 0.950 . S
C846 C847 1.386 . S
C846 C848 1.391 . S
C847 C846 1.386 . S
C847 C851 1.393 . S
C848 H837 0.950 . S
C848 C846 1.391 . S
C848 C849 1.400 . S
C849 C843 1.491 . S
C849 C848 1.400 . S
C849 C850 1.398 . S
C850 H838 0.950 . S
C850 C849 1.398 . S
C850 C851 1.391 . S
C851 H839 0.950 . S
C851 C847 1.393 . S
C851 C850 1.391 . S
H852 C860 0.950 . S
H853 C865 0.950 . S
H854 C862 0.950 . S
H855 C864 0.950 . S
H856 C866 0.950 . S
H857 C868 0.950 . S
H858 C870 0.950 . S
H859 C871 0.950 . S
C860 H852 0.950 . S
C860 C861 1.386 . S
C860 C862 1.391 . S
C861 C860 1.386 . S
C861 C865 1.393 . S
C862 H854 0.950 . S
C862 C860 1.391 . S
C862 C863 1.400 . S
C863 C862 1.400 . S
C863 C864 1.398 . S
C863 C869 1.491 . S
C864 H855 0.950 . S
C864 C863 1.398 . S
C864 C865 1.391 . S
C865 H853 0.950 . S
C865 C861 1.393 . S
C865 C864 1.391 . S
C866 H856 0.950 . S
C866 C867 1.386 . S
C866 C868 1.391 . S
C867 C866 1.386 . S
C867 C871 1.393 . S
C868 H857 0.950 . S
C868 C866 1.391 . S
C868 C869 1.400 . S
C869 C863 1.491 . S
C869 C868 1.400 . S
C869 C870 1.398 . S
C870 H858 0.950 . S
C870 C869 1.398 . S
C870 C871 1.391 . S
C871 H859 0.950 . S
C871 C867 1.393 . S
C871 C870 1.391 . S
H872 C880 0.950 . S
H873 C885 0.950 . S
H874 C882 0.950 . S
H875 C884 0.950 . S
H876 C886 0.950 . S
H877 C888 0.950 . S
H878 C890 0.950 . S
H879 C891 0.950 . S
C880 H872 0.950 . S
C880 C881 1.386 . S
C880 C882 1.391 . S
C881 C880 1.386 . S
C881 C885 1.393 . S
C882 H874 0.950 . S
C882 C880 1.391 . S
C882 C883 1.400 . S
C883 C882 1.400 . S
C883 C884 1.398 . S
C883 C889 1.491 . S
C884 H875 0.950 . S
C884 C883 1.398 . S
C884 C885 1.391 . S
C885 H873 0.950 . S
C885 C881 1.393 . S
C885 C884 1.391 . S
C886 H876 0.950 . S
C886 C887 1.386 . S
C886 C888 1.391 . S
C887 C886 1.386 . S
C887 C891 1.393 . S
C888 H877 0.950 . S
C888 C886 1.391 . S
C888 C889 1.400 . S
C889 C883 1.491 . S
C889 C888 1.400 . S
C889 C890 1.398 . S
C890 H878 0.950 . S
C890 C889 1.398 . S
C890 C891 1.391 . S
C891 H879 0.950 . S
C891 C887 1.393 . S
C891 C890 1.391 . S
H892 C900 0.950 . S
H893 C905 0.950 . S
H894 C902 0.950 . S
H895 C904 0.950 . S
H896 C906 0.950 . S
H897 C908 0.950 . S
H898 C910 0.950 . S
H899 C911 0.950 . S
C900 H892 0.950 . S
C900 C901 1.386 . S
C900 C902 1.391 . S
C901 C900 1.386 . S
C901 C905 1.393 . S
C902 H894 0.950 . S
C902 C900 1.391 . S
C902 C903 1.400 . S
C903 C902 1.400 . S
C903 C904 1.398 . S
C903 C909 1.491 . S
C904 H895 0.950 . S
C904 C903 1.398 . S
C904 C905 1.391 . S
C905 H893 0.950 . S
C905 C901 1.393 . S
C905 C904 1.391 . S
C906 H896 0.950 . S
C906 C907 1.386 . S
C906 C908 1.391 . S
C907 C906 1.386 . S
C907 C911 1.393 . S
C908 H897 0.950 . S
C908 C906 1.391 . S
C908 C909 1.400 . S
C909 C903 1.491 . S
C909 C908 1.400 . S
C909 C910 1.398 . S
C910 H898 0.950 . S
C910 C909 1.398 . S
C910 C911 1.391 . S
C911 H899 0.950 . S
C911 C907 1.393 . S
C911 C910 1.391 . S
H912 C920 0.950 . S
H913 C925 0.950 . S
H914 C922 0.950 . S
H915 C924 0.950 . S
H916 C926 0.950 . S
H917 C928 0.950 . S
H918 C930 0.950 . S
H919 C931 0.950 . S
C920 H912 0.950 . S
C920 C921 1.386 . S
C920 C922 1.391 . S
C921 C920 1.386 . S
C921 C925 1.393 . S
C922 H914 0.950 . S
C922 C920 1.391 . S
C922 C923 1.400 . S
C923 C922 1.400 . S
C923 C924 1.398 . S
C923 C929 1.491 . S
C924 H915 0.950 . S
C924 C923 1.398 . S
C924 C925 1.391 . S
C925 H913 0.950 . S
C925 C921 1.393 . S
C925 C924 1.391 . S
C926 H916 0.950 . S
C926 C927 1.386 . S
C926 C928 1.391 . S
C927 C926 1.386 . S
C927 C931 1.393 . S
C928 H917 0.950 . S
C928 C926 1.391 . S
C928 C929 1.400 . S
C929 C923 1.491 . S
C929 C928 1.400 . S
C929 C930 1.398 . S
C930 H918 0.950 . S
C930 C929 1.398 . S
C930 C931 1.391 . S
C931 H919 0.950 . S
C931 C927 1.393 . S
C931 C930 1.391 . S
H932 C940 0.950 . S
H933 C945 0.950 . S
H934 C942 0.950 . S
H935 C944 0.950 . S
H936 C946 0.950 . S
H937 C948 0.950 . S
H938 C950 0.950 . S
H939 C951 0.950 . S
C940 H932 0.950 . S
C940 C941 1.386 . S
C940 C942 1.391 . S
C941 C940 1.386 . S
C941 C945 1.393 . S
C942 H934 0.950 . S
C942 C940 1.391 . S
C942 C943 1.400 . S
C943 C942 1.400 . S
C943 C944 1.398 . S
C943 C949 1.491 . S
C944 H935 0.950 . S
C944 C943 1.398 . S
C944 C945 1.391 . S
C945 H933 0.950 . S
C945 C941 1.393 . S
C945 C944 1.391 . S
C946 H936 0.950 . S
C946 C947 1.386 . S
C946 C948 1.391 . S
C947 C946 1.386 . S
C947 C951 1.393 . S
C948 H937 0.950 . S
C948 C946 1.391 . S
C948 C949 1.400 . S
C949 C943 1.491 . S
C949 C948 1.400 . S
C949 C950 1.398 . S
C950 H938 0.950 . S
C950 C949 1.398 . S
C950 C951 1.391 . S
C951 H939 0.950 . S
C951 C947 1.393 . S
C951 C950 1.391 . S
H952 C960 0.950 . S
H953 C965 0.950 . S
H954 C962 0.950 . S
H955 C964 0.950 . S
H956 C966 0.950 . S
H957 C968 0.950 . S
H958 C970 0.950 . S
H959 C971 0.950 . S
C960 H952 0.950 . S
C960 C961 1.386 . S
C960 C962 1.391 . S
C961 C960 1.386 . S
C961 C965 1.393 . S
C962 H954 0.950 . S
C962 C960 1.391 . S
C962 C963 1.400 . S
C963 C962 1.400 . S
C963 C964 1.398 . S
C963 C969 1.491 . S
C964 H955 0.950 . S
C964 C963 1.398 . S
C964 C965 1.391 . S
C965 H953 0.950 . S
C965 C961 1.393 . S
C965 C964 1.391 . S
C966 H956 0.950 . S
C966 C967 1.386 . S
C966 C968 1.391 . S
C967 C966 1.386 . S
C967 C971 1.393 . S
C968 H957 0.950 . S
C968 C966 1.391 . S
C968 C969 1.400 . S
C969 C963 1.491 . S
C969 C968 1.400 . S
C969 C970 1.398 . S
C970 H958 0.950 . S
C970 C969 1.398 . S
C970 C971 1.391 . S
C971 H959 0.950 . S
C971 C967 1.393 . S
C971 C970 1.391 . S
H972 C980 0.950 . S
H973 C985 0.950 . S
H974 C982 0.950 . S
H975 C984 0.950 . S
H976 C986 0.950 . S
H977 C988 0.950 . S
H978 C990 0.950 . S
H979 C991 0.950 . S
C980 H972 0.950 . S
C980 C981 1.386 . S
C980 C982 1.391 . S
C981 C980 1.386 . S
C981 C985 1.393 . S
C982 H974 0.950 . S
C982 C980 1.391 . S
C982 C983 1.400 . S
C983 C982 1.400 . S
C983 C984 1.398 . S
C983 C989 1.491 . S
C984 H975 0.950 . S
C984 C983 1.398 . S
C984 C985 1.391 . S
C985 H973 0.950 . S
C985 C981 1.393 . S
C985 C984 1.391 . S
C986 H976 0.950 . S
C986 C987 1.386 . S
C986 C988 1.391 . S
C987 C986 1.386 . S
C987 C991 1.393 . S
C988 H977 0.950 . S
C988 C986 1.391 . S
C988 C989 1.400 . S
C989 C983 1.491 . S
C989 C988 1.400 . S
C989 C990 1.398 . S
C990 H978 0.950 . S
C990 C989 1.398 . S
C990 C991 1.391 . S
C991 H979 0.950 . S
C991 C987 1.393 . S
C991 C990 1.391 . S
H992 C1000 0.950 . S
H993 C1005 0.950 . S
H994 C1002 0.950 . S
H995 C1004 0.950 . S
H996 C1006 0.950 . S
H997 C1008 0.950 . S
H998 C1010 0.950 . S
H999 C1011 0.950 . S
C1000 H992 0.950 . S
C1000 C1001 1.386 1_545 S
C1000 C1002 1.391 . S
C1001 C1000 1.386 1_565 S
C1001 C1005 1.393 1_655 S
C1002 H994 0.950 . S
C1002 C1000 1.391 . S
C1002 C1003 1.413 1_545 S
C1003 C1002 1.413 1_565 S
C1003 C1004 1.387 1_655 S
C1003 C1009 1.490 1_666 S
C1004 H995 0.950 . S
C1004 C1003 1.387 1_455 S
C1004 C1005 1.391 . S
C1005 H993 0.950 . S
C1005 C1001 1.393 1_455 S
C1005 C1004 1.391 . S
C1006 H996 0.950 . S
C1006 C1007 1.386 1_565 S
C1006 C1008 1.391 . S
C1007 C1006 1.386 1_545 S
C1007 C1011 1.393 1_455 S
C1008 H997 0.950 . S
C1008 C1006 1.391 . S
C1008 C1009 1.419 1_565 S
C1009 C1003 1.490 1_444 S
C1009 C1008 1.419 1_545 S
C1009 C1010 1.381 1_455 S
C1010 H998 0.950 . S
C1010 C1009 1.381 1_655 S
C1010 C1011 1.391 . S
C1011 H999 0.950 . S
C1011 C1007 1.393 1_655 S
C1011 C1010 1.391 . S
H1012 C1020 0.950 . S
H1013 C1025 0.950 . S
H1014 C1022 0.950 . S
H1015 C1024 0.950 . S
H1016 C1026 0.950 . S
H1017 C1028 0.950 . S
H1018 C1030 0.950 . S
H1019 C1031 0.950 . S
C1020 H1012 0.950 . S
C1020 C1021 1.386 . S
C1020 C1022 1.391 . S
C1021 C1020 1.386 . S
C1021 C1025 1.393 . S
C1022 H1014 0.950 . S
C1022 C1020 1.391 . S
C1022 C1023 1.400 . S
C1023 C1022 1.400 . S
C1023 C1024 1.398 . S
C1023 C1029 1.491 . S
C1024 H1015 0.950 . S
C1024 C1023 1.398 . S
C1024 C1025 1.391 . S
C1025 H1013 0.950 . S
C1025 C1021 1.393 . S
C1025 C1024 1.391 . S
C1026 H1016 0.950 . S
C1026 C1027 1.386 . S
C1026 C1028 1.391 . S
C1027 C1026 1.386 . S
C1027 C1031 1.393 . S
C1028 H1017 0.950 . S
C1028 C1026 1.391 . S
C1028 C1029 1.400 . S
C1029 C1023 1.491 . S
C1029 C1028 1.400 . S
C1029 C1030 1.398 . S
C1030 H1018 0.950 . S
C1030 C1029 1.398 . S
C1030 C1031 1.391 . S
C1031 H1019 0.950 . S
C1031 C1027 1.393 . S
C1031 C1030 1.391 . S
H1032 C1040 0.950 . S
H1033 C1045 0.950 1_545 S
H1034 C1042 0.950 . S
H1035 C1044 0.950 . S
H1036 C1046 0.950 . S
H1037 C1048 0.950 . S
H1038 C1050 0.950 . S
H1039 C1051 0.950 1_565 S
C1040 H1032 0.950 . S
C1040 C1041 1.386 . S
C1040 C1042 1.391 . S
C1041 C1040 1.386 . S
C1041 C1045 1.393 . S
C1042 H1034 0.950 . S
C1042 C1040 1.391 . S
C1042 C1043 1.400 . S
C1043 C1042 1.400 . S
C1043 C1044 1.398 1_565 S
C1043 C1049 1.491 1_565 S
C1044 H1035 0.950 . S
C1044 C1043 1.398 1_545 S
C1044 C1045 1.391 1_545 S
C1045 H1033 0.950 1_565 S
C1045 C1041 1.393 . S
C1045 C1044 1.391 1_565 S
C1046 H1036 0.950 . S
C1046 C1047 1.386 . S
C1046 C1048 1.391 . S
C1047 C1046 1.386 . S
C1047 C1051 1.393 . S
C1048 H1037 0.950 . S
C1048 C1046 1.391 . S
C1048 C1049 1.400 . S
C1049 C1043 1.491 1_545 S
C1049 C1048 1.400 . S
C1049 C1050 1.398 1_545 S
C1050 H1038 0.950 . S
C1050 C1049 1.398 1_565 S
C1050 C1051 1.391 1_565 S
C1051 H1039 0.950 1_545 S
C1051 C1047 1.393 . S
C1051 C1050 1.391 1_545 S
H1052 C1060 0.950 . S
H1053 C1065 0.950 . S
H1054 C1062 0.950 . S
H1055 C1064 0.950 . S
H1056 C1066 0.950 . S
H1057 C1068 0.950 . S
H1058 C1070 0.950 . S
H1059 C1071 0.950 . S
C1060 H1052 0.950 . S
C1060 C1061 1.386 . S
C1060 C1062 1.391 . S
C1061 C1060 1.386 . S
C1061 C1065 1.393 . S
C1062 H1054 0.950 . S
C1062 C1060 1.391 . S
C1062 C1063 1.400 . S
C1063 C1062 1.400 . S
C1063 C1064 1.398 . S
C1063 C1069 1.491 . S
C1064 H1055 0.950 . S
C1064 C1063 1.398 . S
C1064 C1065 1.391 . S
C1065 H1053 0.950 . S
C1065 C1061 1.393 . S
C1065 C1064 1.391 . S
C1066 H1056 0.950 . S
C1066 C1067 1.386 . S
C1066 C1068 1.391 . S
C1067 C1066 1.386 . S
C1067 C1071 1.393 . S
C1068 H1057 0.950 . S
C1068 C1066 1.391 . S
C1068 C1069 1.400 . S
C1069 C1063 1.491 . S
C1069 C1068 1.400 . S
C1069 C1070 1.398 . S
C1070 H1058 0.950 . S
C1070 C1069 1.398 . S
C1070 C1071 1.391 . S
C1071 H1059 0.950 . S
C1071 C1067 1.393 . S
C1071 C1070 1.391 . S
H1072 C1080 0.950 . S
H1073 C1085 0.950 . S
H1074 C1082 0.950 . S
H1075 C1084 0.950 . S
H1076 C1086 0.950 . S
H1077 C1088 0.950 . S
H1078 C1090 0.950 . S
H1079 C1091 0.950 . S
C1080 H1072 0.950 . S
C1080 C1081 1.386 . S
C1080 C1082 1.391 . S
C1081 C1080 1.386 . S
C1081 C1085 1.393 . S
C1082 H1074 0.950 . S
C1082 C1080 1.391 . S
C1082 C1083 1.400 . S
C1083 C1082 1.400 . S
C1083 C1084 1.398 . S
C1083 C1089 1.491 . S
C1084 H1075 0.950 . S
C1084 C1083 1.398 . S
C1084 C1085 1.391 . S
C1085 H1073 0.950 . S
C1085 C1081 1.393 . S
C1085 C1084 1.391 . S
C1086 H1076 0.950 . S
C1086 C1087 1.386 . S
C1086 C1088 1.391 . S
C1087 C1086 1.386 . S
C1087 C1091 1.393 . S
C1088 H1077 0.950 . S
C1088 C1086 1.391 . S
C1088 C1089 1.400 . S
C1089 C1083 1.491 . S
C1089 C1088 1.400 . S
C1089 C1090 1.398 . S
C1090 H1078 0.950 . S
C1090 C1089 1.398 . S
C1090 C1091 1.391 . S
C1091 H1079 0.950 . S
C1091 C1087 1.393 . S
C1091 C1090 1.391 . S
H1092 C1100 0.950 . S
H1093 C1105 0.950 . S
H1094 C1102 0.950 . S
H1095 C1104 0.950 . S
H1096 C1106 0.950 . S
H1097 C1108 0.950 . S
H1098 C1110 0.950 . S
H1099 C1111 0.950 . S
C1100 H1092 0.950 . S
C1100 C1101 1.386 . S
C1100 C1102 1.391 . S
C1101 C1100 1.386 . S
C1101 C1105 1.393 . S
C1102 H1094 0.950 . S
C1102 C1100 1.391 . S
C1102 C1103 1.400 . S
C1103 C1102 1.400 . S
C1103 C1104 1.398 . S
C1103 C1109 1.491 . S
C1104 H1095 0.950 . S
C1104 C1103 1.398 . S
C1104 C1105 1.391 . S
C1105 H1093 0.950 . S
C1105 C1101 1.393 . S
C1105 C1104 1.391 . S
C1106 H1096 0.950 . S
C1106 C1107 1.386 . S
C1106 C1108 1.391 . S
C1107 C1106 1.386 . S
C1107 C1111 1.393 . S
C1108 H1097 0.950 . S
C1108 C1106 1.391 . S
C1108 C1109 1.400 . S
C1109 C1103 1.491 . S
C1109 C1108 1.400 . S
C1109 C1110 1.398 . S
C1110 H1098 0.950 . S
C1110 C1109 1.398 . S
C1110 C1111 1.391 . S
C1111 H1099 0.950 . S
C1111 C1107 1.393 . S
C1111 C1110 1.391 . S
H1112 C1120 0.950 . S
H1113 C1125 0.950 . S
H1114 C1122 0.950 . S
H1115 C1124 0.950 . S
H1116 C1126 0.950 . S
H1117 C1128 0.950 . S
H1118 C1130 0.950 . S
H1119 C1131 0.950 . S
C1120 H1112 0.950 . S
C1120 C1121 1.386 . S
C1120 C1122 1.391 . S
C1121 C1120 1.386 . S
C1121 C1125 1.393 . S
C1122 H1114 0.950 . S
C1122 C1120 1.391 . S
C1122 C1123 1.400 . S
C1123 C1122 1.400 . S
C1123 C1124 1.398 . S
C1123 C1129 1.491 . S
C1124 H1115 0.950 . S
C1124 C1123 1.398 . S
C1124 C1125 1.391 . S
C1125 H1113 0.950 . S
C1125 C1121 1.393 . S
C1125 C1124 1.391 . S
C1126 H1116 0.950 . S
C1126 C1127 1.386 . S
C1126 C1128 1.391 . S
C1127 C1126 1.386 . S
C1127 C1131 1.393 . S
C1128 H1117 0.950 . S
C1128 C1126 1.391 . S
C1128 C1129 1.400 . S
C1129 C1123 1.491 . S
C1129 C1128 1.400 . S
C1129 C1130 1.398 . S
C1130 H1118 0.950 . S
C1130 C1129 1.398 . S
C1130 C1131 1.391 . S
C1131 H1119 0.950 . S
C1131 C1127 1.393 . S
C1131 C1130 1.391 . S
H1132 C1140 0.950 . S
H1133 C1145 0.950 . S
H1134 C1142 0.950 . S
H1135 C1144 0.950 . S
H1136 C1146 0.950 . S
H1137 C1148 0.950 . S
H1138 C1150 0.950 . S
H1139 C1151 0.950 . S
C1140 H1132 0.950 . S
C1140 C1141 1.386 . S
C1140 C1142 1.391 . S
C1141 C1140 1.386 . S
C1141 C1145 1.393 1_455 S
C1142 H1134 0.950 . S
C1142 C1140 1.391 . S
C1142 C1143 1.415 . S
C1143 C1142 1.415 . S
C1143 C1144 1.386 1_455 S
C1143 C1149 1.489 1_456 S
C1144 H1135 0.950 . S
C1144 C1143 1.386 1_655 S
C1144 C1145 1.391 . S
C1145 H1133 0.950 . S
C1145 C1141 1.393 1_655 S
C1145 C1144 1.391 . S
C1146 H1136 0.950 . S
C1146 C1147 1.386 . S
C1146 C1148 1.391 . S
C1147 C1146 1.386 . S
C1147 C1151 1.393 1_655 S
C1148 H1137 0.950 . S
C1148 C1146 1.391 . S
C1148 C1149 1.412 . S
C1149 C1143 1.489 1_654 S
C1149 C1148 1.412 . S
C1149 C1150 1.388 1_655 S
C1150 H1138 0.950 . S
C1150 C1149 1.388 1_455 S
C1150 C1151 1.391 . S
C1151 H1139 0.950 . S
C1151 C1147 1.393 1_455 S
C1151 C1150 1.391 . S
C681 C56 1.489 . S
C687 C308 1.494 . S
C701 C63 1.487 . S
C707 C140 1.492 . S
C721 C147 1.503 . S
C727 C224 1.512 . S
C741 C231 1.500 . S
C747 C315 1.499 . S
C761 C67 1.496 . S
C767 C487 1.495 . S
C781 C74 1.492 . S
C787 C403 1.500 . S
C801 C410 1.494 . S
C807 C235 1.498 . S
C821 C494 1.496 . S
C827 C242 1.498 . S
C841 C560 1.499 . S
C847 C476 1.494 . S
C861 C392 1.492 . S
C867 C567 1.497 . S
C881 C644 1.498 . S
C887 C399 1.504 . S
C901 C483 1.502 . S
C907 C651 1.502 . S
C921 C319 1.500 . S
C927 C571 1.492 . S
C941 C578 1.499 . S
C947 C151 1.497 . S
C961 C158 1.494 . S
C967 C655 1.504 . S
C981 C326 1.505 . S
C987 C662 1.504 . S
C1001 C58 1.366 1_565 S
C1007 C69 1.366 1_545 S
C1021 C153 1.362 . S
C1027 C142 1.362 . S
C1041 C237 1.369 1_565 S
C1047 C226 1.369 1_545 S
C1061 C310 1.341 . S
C1067 C321 1.341 . S
C1081 C405 1.355 . S
C1087 C394 1.355 . S
C1101 C478 1.361 . S
C1107 C489 1.361 . S
C1121 C573 1.377 . S
C1127 C562 1.377 . S
C1141 C646 1.357 . S
C1147 C657 1.357 . S
