# Generated by pormake.
# Topology eci, (8)-cn, num edge types: 1
# Building blocks:
#     Node 0, Type 0, BuildingBlock: TAGTUT_clean_sbu_3, # of connection points: 8
#     Node 1, Type 0, BuildingBlock: TAGTUT_clean_sbu_3, # of connection points: 8
#     Node 2, Type 0, BuildingBlock: TAGTUT_clean_sbu_3, # of connection points: 8
#     Node 3, Type 0, BuildingBlock: TAGTUT_clean_sbu_3, # of connection points: 8
#     Edge 4, Type (0, 0), BuildingBlock: XIVTED_clean_linker_0, # of connection points: 2
#     Edge 5, Type (0, 0), BuildingBlock: XIVTED_clean_linker_0, # of connection points: 2
#     Edge 6, Type (0, 0), BuildingBlock: XIVTED_clean_linker_0, # of connection points: 2
#     Edge 7, Type (0, 0), BuildingBlock: XIVTED_clean_linker_0, # of connection points: 2
#     Edge 8, Type (0, 0), BuildingBlock: XIVTED_clean_linker_0, # of connection points: 2
#     Edge 9, Type (0, 0), BuildingBlock: XIVTED_clean_linker_0, # of connection points: 2
#     Edge 10, Type (0, 0), BuildingBlock: XIVTED_clean_linker_0, # of connection points: 2
#     Edge 11, Type (0, 0), BuildingBlock: XIVTED_clean_linker_0, # of connection points: 2
#     Edge 12, Type (0, 0), BuildingBlock: XIVTED_clean_linker_0, # of connection points: 2
#     Edge 13, Type (0, 0), BuildingBlock: XIVTED_clean_linker_0, # of connection points: 2
#     Edge 14, Type (0, 0), BuildingBlock: XIVTED_clean_linker_0, # of connection points: 2
#     Edge 15, Type (0, 0), BuildingBlock: XIVTED_clean_linker_0, # of connection points: 2
#     Edge 16, Type (0, 0), BuildingBlock: XIVTED_clean_linker_0, # of connection points: 2
#     Edge 17, Type (0, 0), BuildingBlock: XIVTED_clean_linker_0, # of connection points: 2
#     Edge 18, Type (0, 0), BuildingBlock: XIVTED_clean_linker_0, # of connection points: 2
#     Edge 19, Type (0, 0), BuildingBlock: XIVTED_clean_linker_0, # of connection points: 2
# Relax obj value: 0.305
# Max RMSD: 0.269
# Mean RMSD: 0.266
data_MOF--net-eci--node1-TAGTUT_clean_sbu_3--edge1-XIVTED_clean_linker_0
_symmetry_space_group_name_H-M    P1
_symmetry_Int_Tables_number       1
_symmetry_cell_setting            triclinic
loop_
_symmetry_equiv_pos_as_xyz
'x, y, z'
_cell_length_a     31.743023
_cell_length_b     32.141675
_cell_length_c     16.169936
_cell_angle_alpha  89.821735
_cell_angle_beta   89.883937
_cell_angle_gamma 90.049789
loop_
_atom_site_label
_atom_site_type_symbol
_atom_site_fract_x
_atom_site_fract_y
_atom_site_fract_z
_atom_type_partial_charge
C0 C 0.75738 0.87738 0.01858 0.0
C1 C 0.65439 0.76073 0.9637 0.0
C2 C 0.76876 0.67768 0.00103 0.0
Mg3 Mg 0.85397 0.88734 -0.01539 0.0
Mg4 Mg 0.90093 0.84254 0.82964 0.0
O5 O 0.87001 0.83431 0.92739 0.0
Mg6 Mg 0.81351 0.80642 0.92487 0.0
O7 O 0.75557 0.78292 0.93213 0.0
Mg8 Mg 0.74767 0.77812 0.05597 0.0
Mg9 Mg 0.7367 0.73842 0.86884 0.0
C10 C 0.87617 0.74611 0.81997 0.0
O11 O 0.80305 0.81541 0.78286 0.0
O12 O 0.92461 0.89825 -0.00518 0.0
O13 O 0.76172 0.76019 0.75233 0.0
O14 O 0.85469 0.92711 0.86896 0.0
O15 O 0.95759 0.86431 0.89111 0.0
O16 O 0.87758 0.89431 0.75761 0.0
O17 O 0.81901 0.79246 0.06518 0.0
O18 O 0.85349 0.84964 0.10256 0.0
C19 C 0.83643 0.81487 0.12097 0.0
C20 C 0.95802 0.88682 0.95646 0.0
O21 O 0.8489 0.74735 0.87941 0.0
O22 O 0.67604 0.76902 0.02876 0.0
O23 O 0.89384 0.77878 0.78925 0.0
O24 O 0.76233 0.70664 0.05389 0.0
O25 O 0.67142 0.74796 0.89652 0.0
O26 O 0.7627 0.68359 0.92399 0.0
O27 O 0.78536 0.86779 0.96527 0.0
O28 O 0.73728 0.84928 0.0588 0.0
C29 C 0.86327 0.92696 0.79216 0.0
C30 C 0.78474 0.79119 0.73037 0.0
C31 C 0.62521 0.24414 0.26971 0.0
C32 C 0.76712 0.17386 0.20364 0.0
C33 C 0.82491 0.28664 0.30511 0.0
Mg34 Mg 0.59874 0.33791 0.28724 0.0
Mg35 Mg 0.64141 0.41334 0.17977 0.0
O36 O 0.65086 0.36811 0.24948 0.0
Mg37 Mg 0.68953 0.32054 0.22547 0.0
O38 O 0.72347 0.26889 0.21077 0.0
Mg39 Mg 0.72519 0.24679 0.32735 0.0
Mg40 Mg 0.77367 0.2671 0.15201 0.0
C41 C 0.74177 0.40514 0.1725 0.0
O42 O 0.68687 0.32546 0.08223 0.0
O43 O 0.5778 0.40055 0.34139 0.0
O44 O 0.75141 0.30125 0.0464 0.0
O45 O 0.56173 0.35231 0.1699 0.0
O46 O 0.61301 0.45126 0.27422 0.0
O47 O 0.59427 0.39817 0.08895 0.0
O48 O 0.69858 0.31104 0.36655 0.0
O49 O 0.63266 0.32474 0.40476 0.0
C50 C 0.67029 0.31459 0.42254 0.0
C51 C 0.58849 0.43885 0.33235 0.0
O52 O 0.744 0.36964 0.21018 0.0
O53 O 0.74935 0.18486 0.27161 0.0
O54 O 0.70702 0.42247 0.15087 0.0
O55 O 0.79526 0.26938 0.3471 0.0
O56 O 0.77891 0.20034 0.1488 0.0
O57 O 0.82142 0.29293 0.22768 0.0
O58 O 0.63105 0.27941 0.23522 0.0
O59 O 0.65544 0.22541 0.30701 0.0
C60 C 0.56304 0.37436 0.10436 0.0
C61 C 0.71637 0.31905 0.0287 0.0
C62 C 0.17003 0.17837 0.28446 0.0
C63 C 0.08795 0.05353 0.37209 0.0
C64 C 0.06236 0.11686 0.60161 0.0
Mg65 Mg 0.2247 0.2456 0.38099 0.0
Mg66 Mg 0.27332 0.22401 0.55521 0.0
O67 O 0.223 0.22285 0.49714 0.0
Mg68 Mg 0.18907 0.17125 0.48152 0.0
O69 O 0.15039 0.12378 0.45651 0.0
Mg70 Mg 0.09835 0.15419 0.41946 0.0
Mg71 Mg 0.14074 0.07813 0.52514 0.0
C72 C 0.21582 0.17174 0.67818 0.0
O73 O 0.24349 0.1222 0.49581 0.0
O74 O 0.24905 0.30713 0.43811 0.0
O75 O 0.20632 0.06896 0.55373 0.0
O76 O 0.29471 0.22324 0.36 0.0
O77 O 0.279 0.2907 0.55985 0.0
O78 O 0.32094 0.19867 0.47829 0.0
O79 O 0.13063 0.2123 0.47295 0.0
O80 O 0.15491 0.26685 0.40239 0.0
C81 C 0.12476 0.24781 0.43965 0.0
C82 C 0.26715 0.31758 0.50597 0.0
O83 O 0.18628 0.16568 0.62478 0.0
O84 O 0.07735 0.09187 0.36396 0.0
O85 O 0.251 0.18938 0.66046 0.0
O86 O 0.06123 0.13925 0.53654 0.0
O87 O 0.11241 0.04078 0.42983 0.0
O88 O 0.09345 0.09285 0.61637 0.0
O89 O 0.19817 0.18148 0.34062 0.0
O90 O 0.13235 0.16811 0.30194 0.0
C91 C 0.3244 0.20568 0.40105 0.0
C92 C 0.24114 0.08649 0.53269 0.0
C93 C 0.33693 0.67762 0.58474 0.0
C94 C 0.45892 0.60642 0.74711 0.0
C95 C 0.36469 0.56488 0.91226 0.0
Mg96 Mg 0.24818 0.71401 0.65066 0.0
Mg97 Mg 0.23714 0.75338 0.83795 0.0
O98 O 0.25595 0.70891 0.7744 0.0
Mg99 Mg 0.31394 0.68556 0.78114 0.0
O100 O 0.37051 0.65794 0.77802 0.0
Mg101 Mg 0.35484 0.60498 0.72025 0.0
Mg102 Mg 0.40166 0.64974 0.87524 0.0
C103 C 0.28508 0.70047 -0.02414 0.0
O104 O 0.34911 0.74472 0.82691 0.0
O105 O 0.17654 0.72299 0.67829 0.0
O106 O 0.39418 0.71332 0.91638 0.0
O107 O 0.26282 0.78545 0.65303 0.0
O108 O 0.17184 0.74388 0.81065 0.0
O109 O 0.26317 0.80836 0.783 0.0
O110 O 0.28601 0.62398 0.74028 0.0
O111 O 0.23783 0.64297 0.64763 0.0
C112 C 0.25796 0.61468 0.68703 0.0
C113 C 0.15485 0.7312 0.7435 0.0
O114 O 0.30343 0.67632 0.92319 0.0
O115 O 0.42554 0.59476 0.70912 0.0
O116 O 0.26209 0.73146 0.95413 0.0
O117 O 0.35597 0.56488 0.83558 0.0
O118 O 0.45842 0.62869 0.81278 0.0
O119 O 0.37881 0.59756 0.94701 0.0
O120 O 0.3195 0.69976 0.64101 0.0
O121 O 0.35413 0.64291 0.60263 0.0
C122 C 0.26923 0.81437 0.70594 0.0
C123 C 0.37633 0.74596 0.88621 0.0
H124 H 0.78131 0.76046 0.19807 0.0
H125 H 0.84523 0.83856 0.65204 0.0
H126 H 0.88156 0.84778 0.24732 0.0
H127 H 0.74187 0.75474 0.60358 0.0
H128 H 0.86023 0.84096 0.50363 0.0
H129 H 0.769 0.75432 0.34739 0.0
C130 C 0.80103 0.77791 0.24009 0.0
C131 C 0.83208 0.80509 0.21003 0.0
C132 C 0.83417 0.82214 0.52557 0.0
C133 C 0.81801 0.79862 0.38047 0.0
C134 C 0.8254 0.82111 0.61029 0.0
C135 C 0.79221 0.79658 0.64053 0.0
C136 C 0.80958 0.79844 0.47072 0.0
C137 C 0.7679 0.77405 0.58334 0.0
C138 C 0.79384 0.77465 0.32531 0.0
C139 C 0.85681 0.82688 0.26756 0.0
N140 N 0.77712 0.77547 0.50141 0.0
N141 N 0.84906 0.82339 0.34974 0.0
H142 H 0.61613 0.29224 0.54374 0.0
H143 H 0.77548 0.33664 0.91207 0.0
H144 H 0.74564 0.32782 0.50226 0.0
H145 H 0.64155 0.31988 0.94485 0.0
H146 H 0.76597 0.3344 0.76255 0.0
H147 H 0.6267 0.2988 0.6917 0.0
C148 C 0.64707 0.30094 0.56605 0.0
C149 C 0.68004 0.30988 0.51081 0.0
C150 C 0.7386 0.33171 0.80231 0.0
C151 C 0.69212 0.31811 0.68048 0.0
C152 C 0.74392 0.3332 0.88758 0.0
C153 C 0.70923 0.32786 0.94066 0.0
C154 C 0.69836 0.3245 0.77002 0.0
C155 C 0.66908 0.32402 0.90603 0.0
C156 C 0.65294 0.30504 0.65058 0.0
C157 C 0.7195 0.32056 0.54296 0.0
N158 N 0.66481 0.3218 0.82262 0.0
N159 N 0.72441 0.32472 0.62611 0.0
H160 H 0.27451 0.15272 0.79423 0.0
H161 H 0.11678 0.20264 0.16372 0.0
H162 H 0.14107 0.17269 0.76275 0.0
H163 H 0.24507 0.16334 0.20447 0.0
H164 H 0.12717 0.19557 0.01565 0.0
H165 H 0.26521 0.15575 0.94388 0.0
C166 C 0.24308 0.15698 0.81905 0.0
C167 C 0.2085 0.16299 0.76628 0.0
C168 C 0.1532 0.18865 0.05664 0.0
C169 C 0.1979 0.16735 0.93702 0.0
C170 C 0.14746 0.19307 0.14119 0.0
C171 C 0.18009 0.18321 0.19626 0.0
C172 C 0.19193 0.1743 0.02655 0.0
C173 C 0.21921 0.17136 0.1639 0.0
C174 C 0.23789 0.15895 0.90438 0.0
C175 C 0.1685 0.16796 0.80132 0.0
N176 N 0.22399 0.16687 0.08074 0.0
N177 N 0.16438 0.17064 0.88475 0.0
H178 H 0.3461 0.65389 0.05378 0.0
H179 H 0.28086 0.73106 0.50818 0.0
H180 H 0.24156 0.73614 0.10286 0.0
H181 H 0.38293 0.646 0.45813 0.0
H182 H 0.26845 0.73694 0.35893 0.0
H183 H 0.36113 0.65186 0.20212 0.0
C184 C 0.32602 0.67106 0.09567 0.0
C185 C 0.2925 0.69507 0.06564 0.0
C186 C 0.29372 0.71719 0.38082 0.0
C187 C 0.3099 0.69364 0.2353 0.0
C188 C 0.30096 0.71409 0.46599 0.0
C189 C 0.33254 0.68757 0.49581 0.0
C190 C 0.31837 0.69372 0.32547 0.0
C191 C 0.35776 0.66637 0.43808 0.0
C192 C 0.33481 0.67025 0.18033 0.0
C193 C 0.26786 0.71725 0.12296 0.0
N194 N 0.34994 0.66967 0.35597 0.0
N195 N 0.2771 0.71605 0.20482 0.0
H196 H 0.41068 0.80263 0.7814 0.0
H197 H 0.60052 0.7782 0.09349 0.0
H198 H 0.39429 0.77563 0.04017 0.0
H199 H 0.6063 0.77318 0.82682 0.0
H200 H 0.52688 0.80141 0.08336 0.0
H201 H 0.48295 0.8241 0.80888 0.0
C202 C 0.42136 0.80374 0.84498 0.0
C203 C 0.39761 0.78498 0.90794 0.0
C204 C 0.54462 0.79564 0.02728 0.0
C205 C 0.48021 0.80783 0.93941 0.0
C206 C 0.58638 0.78189 0.033 0.0
C207 C 0.60933 0.7726 0.96102 0.0
C208 C 0.52605 0.80079 0.94903 0.0
C209 C 0.58966 0.77881 0.88421 0.0
C210 C 0.4631 0.81497 0.86041 0.0
C211 C 0.41259 0.78831 -0.01062 0.0
N212 N 0.54928 0.79229 0.88038 0.0
N213 N 0.45386 0.79725 0.00258 0.0
H214 H 0.73864 0.10729 0.29528 0.0
H215 H 0.77967 0.94565 0.92926 0.0
H216 H 0.8003 0.13818 0.06464 0.0
H217 H 0.72964 0.90898 0.16687 0.0
H218 H 0.78479 0.01706 -0.02235 0.0
H219 H 0.73455 0.03473 0.25099 0.0
C220 C 0.75179 0.09882 0.23582 0.0
C221 C 0.76964 0.12905 0.18342 0.0
C222 C 0.77259 0.99352 0.01937 0.0
C223 C 0.76443 0.0462 0.13205 0.0
C224 C 0.76966 0.9527 -0.00832 0.0
C225 C 0.7547 0.92127 0.04441 0.0
C226 C 0.76031 0.00318 0.10049 0.0
C227 C 0.74128 0.93231 0.12413 0.0
C228 C 0.74921 0.0574 0.21044 0.0
C229 C 0.78608 0.11613 0.10706 0.0
N230 N 0.7446 0.97242 0.14999 0.0
N231 N 0.78281 0.0758 0.08355 0.0
H232 H 0.35478 0.23689 0.25392 0.0
H233 H 0.59313 0.18435 0.37502 0.0
H234 H 0.3901 0.1598 0.46157 0.0
H235 H 0.5574 0.26746 0.17717 0.0
H236 H 0.51891 0.16518 0.39268 0.0
H237 H 0.42843 0.23778 0.20901 0.0
C238 C 0.37778 0.21937 0.28906 0.0
C239 C 0.36626 0.19883 0.36243 0.0
C240 C 0.5274 0.18732 0.34486 0.0
C241 C 0.45079 0.20024 0.31208 0.0
C242 C 0.5698 0.1982 0.33468 0.0
C243 C 0.58145 0.22815 0.27558 0.0
C244 C 0.49647 0.20645 0.29546 0.0
C245 C 0.5498 0.24492 0.22478 0.0
C246 C 0.41995 0.22014 0.26372 0.0
C247 C 0.39757 0.17665 0.40534 0.0
N248 N 0.50882 0.23416 0.23638 0.0
N249 N 0.43841 0.17842 0.3802 0.0
H250 H 0.29318 0.88085 0.80074 0.0
H251 H 0.2796 0.03624 0.42233 0.0
H252 H 0.27867 0.84315 0.54632 0.0
H253 H 0.28173 0.07374 0.67742 0.0
H254 H 0.30375 0.96699 0.46322 0.0
H255 H 0.30989 0.95114 0.75401 0.0
C256 C 0.29376 0.88721 0.73493 0.0
C257 C 0.28343 0.85612 0.67749 0.0
C258 C 0.30061 0.99077 0.51011 0.0
C259 C 0.30285 0.93693 0.62344 0.0
C260 C 0.2878 0.03069 0.48645 0.0
C261 C 0.27839 0.06055 0.54674 0.0
C262 C 0.30383 0.98094 0.59463 0.0
C263 C 0.28865 0.05147 0.62911 0.0
C264 C 0.30359 0.92741 0.70826 0.0
C265 C 0.28566 0.86621 0.59298 0.0
N266 N 0.29958 0.01208 0.65106 0.0
N267 N 0.29447 0.90586 0.5686 0.0
H268 H 0.91043 0.68997 0.92564 0.0
H269 H 0.10121 0.71355 0.61384 0.0
H270 H 0.89486 0.71614 0.66646 0.0
H271 H 0.1064 0.71909 0.88046 0.0
H272 H 0.02749 0.69045 0.62407 0.0
H273 H 0.98278 0.66854 0.89873 0.0
C274 C 0.92131 0.68869 0.86212 0.0
C275 C 0.89775 0.70717 0.79881 0.0
C276 C 0.04511 0.69632 0.68013 0.0
C277 C 0.98046 0.68438 0.76798 0.0
C278 C 0.08692 0.71001 0.67434 0.0
C279 C 0.10974 0.71939 0.74627 0.0
C280 C 0.02634 0.69135 0.75839 0.0
C281 C 0.08988 0.71337 0.82311 0.0
C282 C 0.9631 0.67748 0.847 0.0
C283 C 0.913 0.70366 0.71749 0.0
N284 N 0.04944 0.69995 0.827 0.0
N285 N 0.95431 0.69473 0.70458 0.0
H286 H 0.77971 0.45533 0.28343 0.0
H287 H 0.79353 0.61154 0.90613 0.0
H288 H 0.78283 0.41839 0.02805 0.0
H289 H 0.77765 0.64873 0.16063 0.0
H290 H 0.81052 0.54133 0.95256 0.0
H291 H 0.80345 0.5249 0.24317 0.0
C292 C 0.78805 0.4611 0.21938 0.0
C293 C 0.779 0.43129 0.15882 0.0
C294 C 0.80385 0.56493 -0.00159 0.0
C295 C 0.80401 0.51121 0.11166 0.0
C296 C 0.79385 0.60509 -0.02809 0.0
C297 C 0.78307 0.63601 0.02943 0.0
C298 C 0.80282 0.55527 0.08315 0.0
C299 C 0.785 0.6258 0.1139 0.0
C300 C 0.80062 0.50118 0.19609 0.0
C301 C 0.78945 0.44062 0.07657 0.0
N302 N 0.79399 0.58618 0.13812 0.0
N303 N 0.80017 0.48015 0.05497 0.0
H304 H 0.8893 0.3346 0.24484 0.0
H305 H 0.05811 0.22516 0.53622 0.0
H306 H 0.85661 0.25464 0.45011 0.0
H307 H 0.09133 0.30627 0.33314 0.0
H308 H 0.98435 0.24391 0.51822 0.0
H309 H 0.96256 0.33384 0.28999 0.0
C310 C 0.89737 0.31746 0.30038 0.0
C311 C 0.86676 0.29408 0.343 0.0
C312 C 0.00771 0.25801 0.47806 0.0
C313 C 0.95099 0.29264 0.39439 0.0
C314 C 0.04992 0.24717 0.48804 0.0
C315 C 0.08095 0.26359 0.43511 0.0
C316 C 0.99615 0.28538 0.41426 0.0
C317 C 0.06848 0.29263 0.375 0.0
C318 C 0.93932 0.31697 0.32598 0.0
C319 C 0.87909 0.27291 0.41502 0.0
N320 N 0.02697 0.30218 0.36551 0.0
N321 N 0.92037 0.27214 0.43764 0.0
H322 H 0.3036 0.35227 0.6426 0.0
H323 H 0.22807 0.58415 0.53974 0.0
H324 H 0.23684 0.38473 0.41892 0.0
H325 H 0.28203 0.54573 0.77248 0.0
H326 H 0.23239 0.51209 0.49139 0.0
H327 H 0.30009 0.42458 0.68592 0.0
C328 C 0.28854 0.37464 0.60209 0.0
C329 C 0.27024 0.36223 0.52717 0.0
C330 C 0.24316 0.51949 0.55312 0.0
C331 C 0.26564 0.44528 0.57715 0.0
C332 C 0.24038 0.56051 0.58098 0.0
C333 C 0.25514 0.57097 0.66 0.0
C334 C 0.2608 0.48889 0.60473 0.0
C335 C 0.27104 0.53917 0.71061 0.0
C336 C 0.28633 0.41597 0.62718 0.0
C337 C 0.25131 0.3928 0.47728 0.0
N338 N 0.27364 0.49967 0.682 0.0
N339 N 0.24928 0.43291 0.50341 0.0
H340 H 0.09324 0.96814 0.37168 0.0
H341 H 1.0021 0.95537 0.91375 0.0
H342 H 0.05839 0.07312 0.21899 0.0
H343 H 0.99962 0.85234 0.08452 0.0
H344 H 0.04634 0.99411 0.01048 0.0
H345 H 0.07792 0.92177 0.25531 0.0
C346 C 0.08224 0.98141 0.31398 0.0
C347 C 0.07628 0.02448 0.30557 0.0
C348 C 0.03733 0.96248 0.02568 0.0
C349 C 0.06017 0.97197 0.17219 0.0
C350 C 0.01278 0.94021 0.96988 0.0
C351 C 0.99767 0.90083 -0.00825 0.0
C352 C 0.04596 0.94522 0.10381 0.0
C353 C 0.01117 0.88267 0.06585 0.0
C354 C 0.07394 0.95501 0.24754 0.0
C355 C 0.06261 0.04007 0.22903 0.0
N356 N 0.03396 0.90539 0.1204 0.0
N357 N 0.05497 0.01383 0.16546 0.0
H358 H 0.59318 0.52428 0.33038 0.0
H359 H 0.50455 0.5391 0.79067 0.0
H360 H 0.55979 0.42001 0.48664 0.0
H361 H 0.49914 0.64065 0.61673 0.0
H362 H 0.54883 0.50041 0.69368 0.0
H363 H 0.57808 0.57129 0.44598 0.0
C364 C 0.58255 0.5113 0.38871 0.0
C365 C 0.57691 0.46824 0.39837 0.0
C366 C 0.53917 0.53174 0.67782 0.0
C367 C 0.5611 0.52147 0.53083 0.0
C368 C 0.5146 0.554 0.73372 0.0
C369 C 0.49862 0.59289 0.71108 0.0
C370 C 0.54698 0.54852 0.59886 0.0
C371 C 0.51135 0.6107 0.63598 0.0
C372 C 0.57438 0.53806 0.45468 0.0
C373 C 0.56372 0.45303 0.47566 0.0
N374 N 0.53419 0.58797 0.58141 0.0
N375 N 0.55622 0.47961 0.53876 0.0
H376 H 0.04923 0.08204 0.75515 0.0
H377 H 0.8874 0.94413 0.63179 0.0
H378 H 0.98338 0.13122 0.54273 0.0
H379 H 0.85628 0.00369 0.86327 0.0
H380 H 0.92522 0.00733 0.58983 0.0
H381 H 0.98359 0.04819 0.79971 0.0
C382 C 0.02078 0.08695 0.71955 0.0
C383 C 0.022 0.10902 0.64468 0.0
C384 C 0.90879 0.00676 0.64863 0.0
C385 C 0.94794 0.06941 0.69344 0.0
C386 C 0.88708 0.97084 0.67247 0.0
C387 C 0.86974 0.968 0.75217 0.0
C388 C 0.91383 0.0392 0.70563 0.0
C389 C 0.87012 0.00394 0.80201 0.0
C390 C 0.98349 0.06761 0.7448 0.0
C391 C 0.98406 0.11423 0.60064 0.0
N392 N 0.89357 0.03744 0.77952 0.0
N393 N 0.9489 0.09314 0.62391 0.0
H394 H 0.55025 0.40779 0.94961 0.0
H395 H 0.38801 0.54744 0.07281 0.0
H396 H 0.48394 0.36161 0.16472 0.0
H397 H 0.35925 0.48835 0.83987 0.0
H398 H 0.42562 0.48429 0.1152 0.0
H399 H 0.48502 0.44193 0.90438 0.0
C400 C 0.52176 0.40358 -0.01429 0.0
C401 C 0.52275 0.38225 0.06143 0.0
C402 C 0.40977 0.48495 0.05592 0.0
C403 C 0.44918 0.42225 0.0119 0.0
C404 C 0.38818 0.52084 0.03184 0.0
C405 C 0.37147 0.52379 0.95178 0.0
C406 C 0.41537 0.45263 -0.0012 0.0
C407 C 0.37252 0.48801 0.90149 0.0
C408 C 0.48471 0.4231 0.96008 0.0
C409 C 0.48479 0.37796 0.10611 0.0
N410 N 0.39582 0.45454 0.92434 0.0
N411 N 0.4499 0.39922 0.08237 0.0
loop_
_geom_bond_atom_site_label_1
_geom_bond_atom_site_label_2
_geom_bond_distance
_geom_bond_site_symmetry_2
_ccdc_geom_bond_type
C0 O27 1.312 . S
C0 O28 1.208 . S
C1 O22 1.331 . S
C1 O25 1.244 . S
C2 O24 1.264 . S
C2 O26 1.273 1_554 S
Mg3 O5 1.936 . S
Mg3 O12 2.081 . S
Mg3 O14 2.023 1_554 S
Mg3 O18 2.031 . S
Mg3 O27 2.291 . S
Mg4 O5 1.963 1_556 S
Mg4 O15 1.942 1_556 S
Mg4 O16 1.955 . S
Mg4 O23 1.986 . S
O5 Mg3 1.936 . S
O5 Mg4 1.963 1_554 S
O5 Mg6 1.915 1_554 S
Mg6 O5 1.915 1_556 S
Mg6 O7 1.915 . S
Mg6 O11 2.013 . S
Mg6 O17 2.114 1_556 S
Mg6 O21 2.013 . S
Mg6 O27 2.114 1_556 S
O7 Mg6 1.915 . S
O7 Mg8 1.936 1_556 S
O7 Mg9 1.963 . S
Mg8 O7 1.936 1_554 S
Mg8 O17 2.291 . S
Mg8 O22 2.081 1_554 S
Mg8 O24 2.023 . S
Mg8 O28 2.031 . S
Mg9 O7 1.963 . S
Mg9 O13 1.986 . S
Mg9 O25 1.942 . S
Mg9 O26 1.955 . S
C10 O21 1.191 . S
C10 O23 1.307 . S
O11 Mg6 2.013 . S
O11 C30 1.191 . S
O12 Mg3 2.081 . S
O12 C20 1.331 . S
O13 Mg9 1.986 . S
O13 C30 1.307 . S
O14 Mg3 2.023 1_556 S
O14 C29 1.264 . S
O15 Mg4 1.942 1_554 S
O15 C20 1.244 . S
O16 Mg4 1.955 . S
O16 C29 1.273 . S
O17 Mg6 2.114 1_554 S
O17 Mg8 2.291 . S
O17 C19 1.312 . S
O18 Mg3 2.031 . S
O18 C19 1.208 . S
C19 O17 1.312 . S
C19 O18 1.208 . S
C20 O12 1.331 . S
C20 O15 1.244 . S
O21 Mg6 2.013 . S
O21 C10 1.191 . S
O22 C1 1.331 . S
O22 Mg8 2.081 1_556 S
O23 Mg4 1.986 . S
O23 C10 1.307 . S
O24 C2 1.264 . S
O24 Mg8 2.023 . S
O25 C1 1.244 . S
O25 Mg9 1.942 . S
O26 C2 1.273 1_556 S
O26 Mg9 1.955 . S
O27 C0 1.312 . S
O27 Mg3 2.291 . S
O27 Mg6 2.114 1_554 S
O28 C0 1.208 . S
O28 Mg8 2.031 . S
C29 O14 1.264 . S
C29 O16 1.273 . S
C30 O11 1.191 . S
C30 O13 1.307 . S
C31 O58 1.312 . S
C31 O59 1.208 . S
C32 O53 1.331 . S
C32 O56 1.244 . S
C33 O55 1.264 . S
C33 O57 1.273 . S
Mg34 O36 1.936 . S
Mg34 O43 2.081 . S
Mg34 O45 2.023 . S
Mg34 O49 2.031 . S
Mg34 O58 2.291 . S
Mg35 O36 1.963 . S
Mg35 O46 1.942 . S
Mg35 O47 1.955 . S
Mg35 O54 1.986 . S
O36 Mg34 1.936 . S
O36 Mg35 1.963 . S
O36 Mg37 1.915 . S
Mg37 O36 1.915 . S
Mg37 O38 1.915 . S
Mg37 O42 2.013 . S
Mg37 O48 2.114 . S
Mg37 O52 2.013 . S
Mg37 O58 2.114 . S
O38 Mg37 1.915 . S
O38 Mg39 1.936 . S
O38 Mg40 1.963 . S
Mg39 O38 1.936 . S
Mg39 O48 2.291 . S
Mg39 O53 2.081 . S
Mg39 O55 2.023 . S
Mg39 O59 2.031 . S
Mg40 O38 1.963 . S
Mg40 O44 1.986 . S
Mg40 O56 1.942 . S
Mg40 O57 1.955 . S
C41 O52 1.191 . S
C41 O54 1.307 . S
O42 Mg37 2.013 . S
O42 C61 1.191 . S
O43 Mg34 2.081 . S
O43 C51 1.331 . S
O44 Mg40 1.986 . S
O44 C61 1.307 . S
O45 Mg34 2.023 . S
O45 C60 1.264 . S
O46 Mg35 1.942 . S
O46 C51 1.244 . S
O47 Mg35 1.955 . S
O47 C60 1.273 . S
O48 Mg37 2.114 . S
O48 Mg39 2.291 . S
O48 C50 1.312 . S
O49 Mg34 2.031 . S
O49 C50 1.208 . S
C50 O48 1.312 . S
C50 O49 1.208 . S
C51 O43 1.331 . S
C51 O46 1.244 . S
O52 Mg37 2.013 . S
O52 C41 1.191 . S
O53 C32 1.331 . S
O53 Mg39 2.081 . S
O54 Mg35 1.986 . S
O54 C41 1.307 . S
O55 C33 1.264 . S
O55 Mg39 2.023 . S
O56 C32 1.244 . S
O56 Mg40 1.942 . S
O57 C33 1.273 . S
O57 Mg40 1.955 . S
O58 C31 1.312 . S
O58 Mg34 2.291 . S
O58 Mg37 2.114 . S
O59 C31 1.208 . S
O59 Mg39 2.031 . S
C60 O45 1.264 . S
C60 O47 1.273 . S
C61 O42 1.191 . S
C61 O44 1.307 . S
C62 O89 1.312 . S
C62 O90 1.208 . S
C63 O84 1.331 . S
C63 O87 1.244 . S
C64 O86 1.264 . S
C64 O88 1.273 . S
Mg65 O67 1.936 . S
Mg65 O74 2.081 . S
Mg65 O76 2.023 . S
Mg65 O80 2.031 . S
Mg65 O89 2.291 . S
Mg66 O67 1.963 . S
Mg66 O77 1.942 . S
Mg66 O78 1.955 . S
Mg66 O85 1.986 . S
O67 Mg65 1.936 . S
O67 Mg66 1.963 . S
O67 Mg68 1.915 . S
Mg68 O67 1.915 . S
Mg68 O69 1.915 . S
Mg68 O73 2.013 . S
Mg68 O79 2.114 . S
Mg68 O83 2.013 . S
Mg68 O89 2.114 . S
O69 Mg68 1.915 . S
O69 Mg70 1.936 . S
O69 Mg71 1.963 . S
Mg70 O69 1.936 . S
Mg70 O79 2.291 . S
Mg70 O84 2.081 . S
Mg70 O86 2.023 . S
Mg70 O90 2.031 . S
Mg71 O69 1.963 . S
Mg71 O75 1.986 . S
Mg71 O87 1.942 . S
Mg71 O88 1.955 . S
C72 O83 1.191 . S
C72 O85 1.307 . S
O73 Mg68 2.013 . S
O73 C92 1.191 . S
O74 Mg65 2.081 . S
O74 C82 1.331 . S
O75 Mg71 1.986 . S
O75 C92 1.307 . S
O76 Mg65 2.023 . S
O76 C91 1.264 . S
O77 Mg66 1.942 . S
O77 C82 1.244 . S
O78 Mg66 1.955 . S
O78 C91 1.273 . S
O79 Mg68 2.114 . S
O79 Mg70 2.291 . S
O79 C81 1.312 . S
O80 Mg65 2.031 . S
O80 C81 1.208 . S
C81 O79 1.312 . S
C81 O80 1.208 . S
C82 O74 1.331 . S
C82 O77 1.244 . S
O83 Mg68 2.013 . S
O83 C72 1.191 . S
O84 C63 1.331 . S
O84 Mg70 2.081 . S
O85 Mg66 1.986 . S
O85 C72 1.307 . S
O86 C64 1.264 . S
O86 Mg70 2.023 . S
O87 C63 1.244 . S
O87 Mg71 1.942 . S
O88 C64 1.273 . S
O88 Mg71 1.955 . S
O89 C62 1.312 . S
O89 Mg65 2.291 . S
O89 Mg68 2.114 . S
O90 C62 1.208 . S
O90 Mg70 2.031 . S
C91 O76 1.264 . S
C91 O78 1.273 . S
C92 O73 1.191 . S
C92 O75 1.307 . S
C93 O120 1.312 . S
C93 O121 1.208 . S
C94 O115 1.331 . S
C94 O118 1.244 . S
C95 O117 1.264 . S
C95 O119 1.273 . S
Mg96 O98 1.936 . S
Mg96 O105 2.081 . S
Mg96 O107 2.023 . S
Mg96 O111 2.031 . S
Mg96 O120 2.291 . S
Mg97 O98 1.963 . S
Mg97 O108 1.942 . S
Mg97 O109 1.955 . S
Mg97 O116 1.986 . S
O98 Mg96 1.936 . S
O98 Mg97 1.963 . S
O98 Mg99 1.915 . S
Mg99 O98 1.915 . S
Mg99 O100 1.915 . S
Mg99 O104 2.013 . S
Mg99 O110 2.114 . S
Mg99 O114 2.013 . S
Mg99 O120 2.114 . S
O100 Mg99 1.915 . S
O100 Mg101 1.936 . S
O100 Mg102 1.963 . S
Mg101 O100 1.936 . S
Mg101 O110 2.291 . S
Mg101 O115 2.081 . S
Mg101 O117 2.023 . S
Mg101 O121 2.031 . S
Mg102 O100 1.963 . S
Mg102 O106 1.986 . S
Mg102 O118 1.942 . S
Mg102 O119 1.955 . S
C103 O114 1.191 . S
C103 O116 1.307 . S
O104 Mg99 2.013 . S
O104 C123 1.191 . S
O105 Mg96 2.081 . S
O105 C113 1.331 . S
O106 Mg102 1.986 . S
O106 C123 1.307 . S
O107 Mg96 2.023 . S
O107 C122 1.264 . S
O108 Mg97 1.942 . S
O108 C113 1.244 . S
O109 Mg97 1.955 . S
O109 C122 1.273 . S
O110 Mg99 2.114 . S
O110 Mg101 2.291 . S
O110 C112 1.312 . S
O111 Mg96 2.031 . S
O111 C112 1.208 . S
C112 O110 1.312 . S
C112 O111 1.208 . S
C113 O105 1.331 . S
C113 O108 1.244 . S
O114 Mg99 2.013 . S
O114 C103 1.191 . S
O115 C94 1.331 . S
O115 Mg101 2.081 . S
O116 Mg97 1.986 . S
O116 C103 1.307 . S
O117 C95 1.264 . S
O117 Mg101 2.023 . S
O118 C94 1.244 . S
O118 Mg102 1.942 . S
O119 C95 1.273 . S
O119 Mg102 1.955 . S
O120 C93 1.312 . S
O120 Mg96 2.291 . S
O120 Mg99 2.114 . S
O121 C93 1.208 . S
O121 Mg101 2.031 . S
C122 O107 1.264 . S
C122 O109 1.273 . S
C123 O104 1.191 . S
C123 O106 1.307 . S
H124 C130 0.930 . S
H125 C134 0.930 . S
H126 C139 0.929 . S
H127 C137 0.929 . S
H128 C132 0.929 . S
H129 C138 0.929 . S
C130 H124 0.930 . S
C130 C131 1.367 . S
C130 C138 1.378 . S
C131 C130 1.367 . S
C131 C139 1.433 . S
C132 H128 0.929 . S
C132 C134 1.378 . S
C132 C136 1.350 . S
C133 C136 1.463 . S
C133 C138 1.350 . S
C133 N141 1.427 . S
C134 H125 0.930 . S
C134 C132 1.378 . S
C134 C135 1.367 . S
C135 C134 1.367 . S
C135 C137 1.433 . S
C136 C132 1.350 . S
C136 C133 1.463 . S
C136 N140 1.427 . S
C137 H127 0.929 . S
C137 C135 1.433 . S
C137 N140 1.384 . S
C138 H129 0.929 . S
C138 C130 1.378 . S
C138 C133 1.350 . S
C139 H126 0.929 . S
C139 C131 1.433 . S
C139 N141 1.384 . S
N140 C136 1.427 . S
N140 C137 1.384 . S
N141 C133 1.427 . S
N141 C139 1.384 . S
H142 C148 0.930 . S
H143 C152 0.930 . S
H144 C157 0.929 . S
H145 C155 0.929 . S
H146 C150 0.929 . S
H147 C156 0.929 . S
C148 H142 0.930 . S
C148 C149 1.367 . S
C148 C156 1.378 . S
C149 C148 1.367 . S
C149 C157 1.433 . S
C150 H146 0.929 . S
C150 C152 1.378 . S
C150 C154 1.350 . S
C151 C154 1.463 . S
C151 C156 1.350 . S
C151 N159 1.427 . S
C152 H143 0.930 . S
C152 C150 1.378 . S
C152 C153 1.367 . S
C153 C152 1.367 . S
C153 C155 1.433 . S
C154 C150 1.350 . S
C154 C151 1.463 . S
C154 N158 1.427 . S
C155 H145 0.929 . S
C155 C153 1.433 . S
C155 N158 1.384 . S
C156 H147 0.929 . S
C156 C148 1.378 . S
C156 C151 1.350 . S
C157 H144 0.929 . S
C157 C149 1.433 . S
C157 N159 1.384 . S
N158 C154 1.427 . S
N158 C155 1.384 . S
N159 C151 1.427 . S
N159 C157 1.384 . S
H160 C166 0.930 . S
H161 C170 0.930 . S
H162 C175 0.929 . S
H163 C173 0.929 . S
H164 C168 0.929 . S
H165 C174 0.929 . S
C166 H160 0.930 . S
C166 C167 1.367 . S
C166 C174 1.378 . S
C167 C166 1.367 . S
C167 C175 1.433 . S
C168 H164 0.929 . S
C168 C170 1.378 . S
C168 C172 1.350 . S
C169 C172 1.463 1_556 S
C169 C174 1.350 . S
C169 N177 1.427 . S
C170 H161 0.930 . S
C170 C168 1.378 . S
C170 C171 1.367 . S
C171 C170 1.367 . S
C171 C173 1.433 . S
C172 C168 1.350 . S
C172 C169 1.463 1_554 S
C172 N176 1.427 . S
C173 H163 0.929 . S
C173 C171 1.433 . S
C173 N176 1.384 . S
C174 H165 0.929 . S
C174 C166 1.378 . S
C174 C169 1.350 . S
C175 H162 0.929 . S
C175 C167 1.433 . S
C175 N177 1.384 . S
N176 C172 1.427 . S
N176 C173 1.384 . S
N177 C169 1.427 . S
N177 C175 1.384 . S
H178 C184 0.930 . S
H179 C188 0.930 . S
H180 C193 0.929 . S
H181 C191 0.929 . S
H182 C186 0.929 . S
H183 C192 0.929 . S
C184 H178 0.930 . S
C184 C185 1.367 . S
C184 C192 1.378 . S
C185 C184 1.367 . S
C185 C193 1.433 . S
C186 H182 0.929 . S
C186 C188 1.378 . S
C186 C190 1.350 . S
C187 C190 1.463 . S
C187 C192 1.350 . S
C187 N195 1.427 . S
C188 H179 0.930 . S
C188 C186 1.378 . S
C188 C189 1.367 . S
C189 C188 1.367 . S
C189 C191 1.433 . S
C190 C186 1.350 . S
C190 C187 1.463 . S
C190 N194 1.427 . S
C191 H181 0.929 . S
C191 C189 1.433 . S
C191 N194 1.384 . S
C192 H183 0.929 . S
C192 C184 1.378 . S
C192 C187 1.350 . S
C193 H180 0.929 . S
C193 C185 1.433 . S
C193 N195 1.384 . S
N194 C190 1.427 . S
N194 C191 1.384 . S
N195 C187 1.427 . S
N195 C193 1.384 . S
H196 C202 0.930 . S
H197 C206 0.930 . S
H198 C211 0.929 . S
H199 C209 0.929 . S
H200 C204 0.929 . S
H201 C210 0.929 . S
C202 H196 0.930 . S
C202 C203 1.367 . S
C202 C210 1.378 . S
C203 C202 1.367 . S
C203 C211 1.433 . S
C204 H200 0.929 . S
C204 C206 1.378 . S
C204 C208 1.350 . S
C205 C208 1.463 . S
C205 C210 1.350 . S
C205 N213 1.427 . S
C206 H197 0.930 . S
C206 C204 1.378 . S
C206 C207 1.367 . S
C207 C206 1.367 . S
C207 C209 1.433 . S
C208 C204 1.350 . S
C208 C205 1.463 . S
C208 N212 1.427 . S
C209 H199 0.929 . S
C209 C207 1.433 . S
C209 N212 1.384 . S
C210 H201 0.929 . S
C210 C202 1.378 . S
C210 C205 1.350 . S
C211 H198 0.929 . S
C211 C203 1.433 . S
C211 N213 1.384 . S
N212 C208 1.427 . S
N212 C209 1.384 . S
N213 C205 1.427 . S
N213 C211 1.384 . S
H214 C220 0.930 . S
H215 C224 0.930 . S
H216 C229 0.929 . S
H217 C227 0.929 . S
H218 C222 0.929 . S
H219 C228 0.929 . S
C220 H214 0.930 . S
C220 C221 1.367 . S
C220 C228 1.378 . S
C221 C220 1.367 . S
C221 C229 1.433 . S
C222 H218 0.929 . S
C222 C224 1.378 1_545 S
C222 C226 1.350 1_556 S
C223 C226 1.463 . S
C223 C228 1.350 . S
C223 N231 1.427 . S
C224 H215 0.930 . S
C224 C222 1.378 1_565 S
C224 C225 1.367 1_556 S
C225 C224 1.367 1_554 S
C225 C227 1.433 . S
C226 C222 1.350 1_554 S
C226 C223 1.463 . S
C226 N230 1.427 . S
C227 H217 0.929 . S
C227 C225 1.433 . S
C227 N230 1.384 1_565 S
C228 H219 0.929 . S
C228 C220 1.378 . S
C228 C223 1.350 . S
C229 H216 0.929 . S
C229 C221 1.433 . S
C229 N231 1.384 . S
N230 C226 1.427 . S
N230 C227 1.384 1_545 S
N231 C223 1.427 . S
N231 C229 1.384 . S
H232 C238 0.930 . S
H233 C242 0.930 . S
H234 C247 0.929 . S
H235 C245 0.929 . S
H236 C240 0.929 . S
H237 C246 0.929 . S
C238 H232 0.930 . S
C238 C239 1.367 . S
C238 C246 1.378 . S
C239 C238 1.367 . S
C239 C247 1.433 . S
C240 H236 0.929 . S
C240 C242 1.378 . S
C240 C244 1.350 . S
C241 C244 1.463 . S
C241 C246 1.350 . S
C241 N249 1.427 . S
C242 H233 0.930 . S
C242 C240 1.378 . S
C242 C243 1.367 . S
C243 C242 1.367 . S
C243 C245 1.433 . S
C244 C240 1.350 . S
C244 C241 1.463 . S
C244 N248 1.427 . S
C245 H235 0.929 . S
C245 C243 1.433 . S
C245 N248 1.384 . S
C246 H237 0.929 . S
C246 C238 1.378 . S
C246 C241 1.350 . S
C247 H234 0.929 . S
C247 C239 1.433 . S
C247 N249 1.384 . S
N248 C244 1.427 . S
N248 C245 1.384 . S
N249 C241 1.427 . S
N249 C247 1.384 . S
H250 C256 0.930 . S
H251 C260 0.930 . S
H252 C265 0.929 . S
H253 C263 0.929 . S
H254 C258 0.929 . S
H255 C264 0.929 . S
C256 H250 0.930 . S
C256 C257 1.367 . S
C256 C264 1.378 . S
C257 C256 1.367 . S
C257 C265 1.433 . S
C258 H254 0.929 . S
C258 C260 1.378 1_565 S
C258 C262 1.350 . S
C259 C262 1.463 . S
C259 C264 1.350 . S
C259 N267 1.427 . S
C260 H251 0.930 . S
C260 C258 1.378 1_545 S
C260 C261 1.367 . S
C261 C260 1.367 . S
C261 C263 1.433 . S
C262 C258 1.350 . S
C262 C259 1.463 . S
C262 N266 1.427 . S
C263 H253 0.929 . S
C263 C261 1.433 . S
C263 N266 1.384 1_545 S
C264 H255 0.929 . S
C264 C256 1.378 . S
C264 C259 1.350 . S
C265 H252 0.929 . S
C265 C257 1.433 . S
C265 N267 1.384 . S
N266 C262 1.427 . S
N266 C263 1.384 1_565 S
N267 C259 1.427 . S
N267 C265 1.384 . S
H268 C274 0.930 . S
H269 C278 0.930 . S
H270 C283 0.929 . S
H271 C281 0.929 1_554 S
H272 C276 0.929 . S
H273 C282 0.929 . S
C274 H268 0.930 . S
C274 C275 1.367 1_554 S
C274 C282 1.378 1_655 S
C275 C274 1.367 1_556 S
C275 C283 1.433 . S
C276 H272 0.929 . S
C276 C278 1.378 . S
C276 C280 1.350 . S
C277 C280 1.463 . S
C277 C282 1.350 1_556 S
C277 N285 1.427 . S
C278 H269 0.930 . S
C278 C276 1.378 . S
C278 C279 1.367 . S
C279 C278 1.367 . S
C279 C281 1.433 . S
C280 C276 1.350 . S
C280 C277 1.463 . S
C280 N284 1.427 . S
C281 H271 0.929 1_556 S
C281 C279 1.433 . S
C281 N284 1.384 . S
C282 H273 0.929 . S
C282 C274 1.378 1_455 S
C282 C277 1.350 1_554 S
C283 H270 0.929 . S
C283 C275 1.433 . S
C283 N285 1.384 1_655 S
N284 C280 1.427 . S
N284 C281 1.384 . S
N285 C277 1.427 . S
N285 C283 1.384 1_455 S
H286 C292 0.930 . S
H287 C296 0.930 1_556 S
H288 C301 0.929 . S
H289 C299 0.929 . S
H290 C294 0.929 . S
H291 C300 0.929 . S
C292 H286 0.930 . S
C292 C293 1.367 . S
C292 C300 1.378 . S
C293 C292 1.367 . S
C293 C301 1.433 . S
C294 H290 0.929 . S
C294 C296 1.378 . S
C294 C298 1.350 . S
C295 C298 1.463 . S
C295 C300 1.350 . S
C295 N303 1.427 . S
C296 H287 0.930 1_554 S
C296 C294 1.378 . S
C296 C297 1.367 . S
C297 C296 1.367 . S
C297 C299 1.433 . S
C298 C294 1.350 . S
C298 C295 1.463 . S
C298 N302 1.427 . S
C299 H289 0.929 . S
C299 C297 1.433 . S
C299 N302 1.384 . S
C300 H291 0.929 . S
C300 C292 1.378 . S
C300 C295 1.350 . S
C301 H288 0.929 . S
C301 C293 1.433 . S
C301 N303 1.384 . S
N302 C298 1.427 . S
N302 C299 1.384 . S
N303 C295 1.427 . S
N303 C301 1.384 . S
H304 C310 0.930 . S
H305 C314 0.930 . S
H306 C319 0.929 . S
H307 C317 0.929 . S
H308 C312 0.929 . S
H309 C318 0.929 . S
C310 H304 0.930 . S
C310 C311 1.367 . S
C310 C318 1.378 . S
C311 C310 1.367 . S
C311 C319 1.433 . S
C312 H308 0.929 . S
C312 C314 1.378 1_655 S
C312 C316 1.350 . S
C313 C316 1.463 . S
C313 C318 1.350 . S
C313 N321 1.427 . S
C314 H305 0.930 . S
C314 C312 1.378 1_455 S
C314 C315 1.367 . S
C315 C314 1.367 . S
C315 C317 1.433 . S
C316 C312 1.350 . S
C316 C313 1.463 . S
C316 N320 1.427 . S
C317 H307 0.929 . S
C317 C315 1.433 . S
C317 N320 1.384 1_455 S
C318 H309 0.929 . S
C318 C310 1.378 . S
C318 C313 1.350 . S
C319 H306 0.929 . S
C319 C311 1.433 . S
C319 N321 1.384 . S
N320 C316 1.427 . S
N320 C317 1.384 1_655 S
N321 C313 1.427 . S
N321 C319 1.384 . S
H322 C328 0.930 . S
H323 C332 0.930 . S
H324 C337 0.929 . S
H325 C335 0.929 . S
H326 C330 0.929 . S
H327 C336 0.929 . S
C328 H322 0.930 . S
C328 C329 1.367 . S
C328 C336 1.378 . S
C329 C328 1.367 . S
C329 C337 1.433 . S
C330 H326 0.929 . S
C330 C332 1.378 . S
C330 C334 1.350 . S
C331 C334 1.463 . S
C331 C336 1.350 . S
C331 N339 1.427 . S
C332 H323 0.930 . S
C332 C330 1.378 . S
C332 C333 1.367 . S
C333 C332 1.367 . S
C333 C335 1.433 . S
C334 C330 1.350 . S
C334 C331 1.463 . S
C334 N338 1.427 . S
C335 H325 0.929 . S
C335 C333 1.433 . S
C335 N338 1.384 . S
C336 H327 0.929 . S
C336 C328 1.378 . S
C336 C331 1.350 . S
C337 H324 0.929 . S
C337 C329 1.433 . S
C337 N339 1.384 . S
N338 C334 1.427 . S
N338 C335 1.384 . S
N339 C331 1.427 . S
N339 C337 1.384 . S
H340 C346 0.930 . S
H341 C350 0.930 . S
H342 C355 0.929 . S
H343 C353 0.929 . S
H344 C348 0.929 . S
H345 C354 0.929 . S
C346 H340 0.930 . S
C346 C347 1.367 1_565 S
C346 C354 1.378 . S
C347 C346 1.367 1_545 S
C347 C355 1.433 . S
C348 H344 0.929 . S
C348 C350 1.378 1_455 S
C348 C352 1.350 . S
C349 C352 1.463 . S
C349 C354 1.350 . S
C349 N357 1.427 1_565 S
C350 H341 0.930 . S
C350 C348 1.378 1_655 S
C350 C351 1.367 . S
C351 C350 1.367 . S
C351 C353 1.433 1_655 S
C352 C348 1.350 . S
C352 C349 1.463 . S
C352 N356 1.427 . S
C353 H343 0.929 . S
C353 C351 1.433 1_455 S
C353 N356 1.384 . S
C354 H345 0.929 . S
C354 C346 1.378 . S
C354 C349 1.350 . S
C355 H342 0.929 . S
C355 C347 1.433 . S
C355 N357 1.384 . S
N356 C352 1.427 . S
N356 C353 1.384 . S
N357 C349 1.427 1_545 S
N357 C355 1.384 . S
H358 C364 0.930 . S
H359 C368 0.930 . S
H360 C373 0.929 . S
H361 C371 0.929 . S
H362 C366 0.929 . S
H363 C372 0.929 . S
C364 H358 0.930 . S
C364 C365 1.367 . S
C364 C372 1.378 . S
C365 C364 1.367 . S
C365 C373 1.433 . S
C366 H362 0.929 . S
C366 C368 1.378 . S
C366 C370 1.350 . S
C367 C370 1.463 . S
C367 C372 1.350 . S
C367 N375 1.427 . S
C368 H359 0.930 . S
C368 C366 1.378 . S
C368 C369 1.367 . S
C369 C368 1.367 . S
C369 C371 1.433 . S
C370 C366 1.350 . S
C370 C367 1.463 . S
C370 N374 1.427 . S
C371 H361 0.929 . S
C371 C369 1.433 . S
C371 N374 1.384 . S
C372 H363 0.929 . S
C372 C364 1.378 . S
C372 C367 1.350 . S
C373 H360 0.929 . S
C373 C365 1.433 . S
C373 N375 1.384 . S
N374 C370 1.427 . S
N374 C371 1.384 . S
N375 C367 1.427 . S
N375 C373 1.384 . S
H376 C382 0.930 . S
H377 C386 0.930 . S
H378 C391 0.929 . S
H379 C389 0.929 . S
H380 C384 0.929 . S
H381 C390 0.929 . S
C382 H376 0.930 . S
C382 C383 1.367 . S
C382 C390 1.378 . S
C383 C382 1.367 . S
C383 C391 1.433 1_455 S
C384 H380 0.929 . S
C384 C386 1.378 1_545 S
C384 C388 1.350 . S
C385 C388 1.463 . S
C385 C390 1.350 1_655 S
C385 N393 1.427 . S
C386 H377 0.930 . S
C386 C384 1.378 1_565 S
C386 C387 1.367 . S
C387 C386 1.367 . S
C387 C389 1.433 . S
C388 C384 1.350 . S
C388 C385 1.463 . S
C388 N392 1.427 . S
C389 H379 0.929 . S
C389 C387 1.433 . S
C389 N392 1.384 1_565 S
C390 H381 0.929 . S
C390 C382 1.378 . S
C390 C385 1.350 1_455 S
C391 H378 0.929 . S
C391 C383 1.433 1_655 S
C391 N393 1.384 . S
N392 C388 1.427 . S
N392 C389 1.384 1_545 S
N393 C385 1.427 . S
N393 C391 1.384 . S
H394 C400 0.930 . S
H395 C404 0.930 . S
H396 C409 0.929 . S
H397 C407 0.929 . S
H398 C402 0.929 . S
H399 C408 0.929 . S
C400 H394 0.930 . S
C400 C401 1.367 . S
C400 C408 1.378 1_554 S
C401 C400 1.367 . S
C401 C409 1.433 . S
C402 H398 0.929 . S
C402 C404 1.378 1_554 S
C402 C406 1.350 1_554 S
C403 C406 1.463 1_554 S
C403 C408 1.350 1_554 S
C403 N411 1.427 . S
C404 H395 0.930 . S
C404 C402 1.378 1_556 S
C404 C405 1.367 . S
C405 C404 1.367 . S
C405 C407 1.433 . S
C406 C402 1.350 1_556 S
C406 C403 1.463 1_556 S
C406 N410 1.427 . S
C407 H397 0.929 . S
C407 C405 1.433 . S
C407 N410 1.384 . S
C408 H399 0.929 . S
C408 C400 1.378 1_556 S
C408 C403 1.350 1_556 S
C409 H396 0.929 . S
C409 C401 1.433 . S
C409 N411 1.384 . S
N410 C406 1.427 . S
N410 C407 1.384 . S
N411 C403 1.427 . S
N411 C409 1.384 . S
C131 C19 1.289 . S
C135 C30 1.307 . S
C149 C50 1.278 . S
C153 C61 1.299 1_556 S
C167 C72 1.298 . S
C171 C62 1.276 . S
C185 C103 1.308 1_554 S
C189 C93 1.287 . S
C203 C123 1.469 . S
C207 C1 1.631 . S
C221 C32 1.749 . S
C225 C0 1.709 . S
C239 C91 1.979 . S
C243 C31 1.929 . S
C257 C122 1.848 . S
C261 C92 1.697 . S
C275 C10 1.474 . S
C279 C113 1.629 . S
C293 C41 1.692 . S
C297 C2 1.848 . S
C311 C33 1.978 . S
C315 C81 1.934 . S
C329 C82 1.751 . S
C333 C112 1.699 . S
C347 C63 0.446 . S
C351 C20 0.410 . S
C365 C51 0.404 . S
C369 C94 0.450 . S
C383 C64 0.587 . S
C387 C29 0.609 . S
C401 C60 0.594 . S
C405 C95 0.602 . S
