# Generated by pormake.
# Topology ukk, (4)-cn, num edge types: 1
# Building blocks:
#     Node 0, Type 0, BuildingBlock: QUQFOY_clean_sbu_1, # of connection points: 4
#     Node 1, Type 0, BuildingBlock: QUQFOY_clean_sbu_1, # of connection points: 4
#     Node 2, Type 0, BuildingBlock: QUQFOY_clean_sbu_1, # of connection points: 4
#     Node 3, Type 0, BuildingBlock: QUQFOY_clean_sbu_1, # of connection points: 4
#     Node 4, Type 0, BuildingBlock: QUQFOY_clean_sbu_1, # of connection points: 4
#     Node 5, Type 0, BuildingBlock: QUQFOY_clean_sbu_1, # of connection points: 4
#     Node 6, Type 0, BuildingBlock: QUQFOY_clean_sbu_1, # of connection points: 4
#     Node 7, Type 0, BuildingBlock: QUQFOY_clean_sbu_1, # of connection points: 4
#     Node 8, Type 0, BuildingBlock: QUQFOY_clean_sbu_1, # of connection points: 4
#     Node 9, Type 0, BuildingBlock: QUQFOY_clean_sbu_1, # of connection points: 4
#     Node 10, Type 0, BuildingBlock: QUQFOY_clean_sbu_1, # of connection points: 4
#     Node 11, Type 0, BuildingBlock: QUQFOY_clean_sbu_1, # of connection points: 4
#     Node 12, Type 0, BuildingBlock: QUQFOY_clean_sbu_1, # of connection points: 4
#     Node 13, Type 0, BuildingBlock: QUQFOY_clean_sbu_1, # of connection points: 4
#     Node 14, Type 0, BuildingBlock: QUQFOY_clean_sbu_1, # of connection points: 4
#     Node 15, Type 0, BuildingBlock: QUQFOY_clean_sbu_1, # of connection points: 4
#     Edge 16, Type (0, 0), BuildingBlock: XUDNAN_clean_linker_2, # of connection points: 2
#     Edge 17, Type (0, 0), BuildingBlock: XUDNAN_clean_linker_2, # of connection points: 2
#     Edge 18, Type (0, 0), BuildingBlock: XUDNAN_clean_linker_2, # of connection points: 2
#     Edge 19, Type (0, 0), BuildingBlock: XUDNAN_clean_linker_2, # of connection points: 2
#     Edge 20, Type (0, 0), BuildingBlock: XUDNAN_clean_linker_2, # of connection points: 2
#     Edge 21, Type (0, 0), BuildingBlock: XUDNAN_clean_linker_2, # of connection points: 2
#     Edge 22, Type (0, 0), BuildingBlock: XUDNAN_clean_linker_2, # of connection points: 2
#     Edge 23, Type (0, 0), BuildingBlock: XUDNAN_clean_linker_2, # of connection points: 2
#     Edge 24, Type (0, 0), BuildingBlock: XUDNAN_clean_linker_2, # of connection points: 2
#     Edge 25, Type (0, 0), BuildingBlock: XUDNAN_clean_linker_2, # of connection points: 2
#     Edge 26, Type (0, 0), BuildingBlock: XUDNAN_clean_linker_2, # of connection points: 2
#     Edge 27, Type (0, 0), BuildingBlock: XUDNAN_clean_linker_2, # of connection points: 2
#     Edge 28, Type (0, 0), BuildingBlock: XUDNAN_clean_linker_2, # of connection points: 2
#     Edge 29, Type (0, 0), BuildingBlock: XUDNAN_clean_linker_2, # of connection points: 2
#     Edge 30, Type (0, 0), BuildingBlock: XUDNAN_clean_linker_2, # of connection points: 2
#     Edge 31, Type (0, 0), BuildingBlock: XUDNAN_clean_linker_2, # of connection points: 2
#     Edge 32, Type (0, 0), BuildingBlock: XUDNAN_clean_linker_2, # of connection points: 2
#     Edge 33, Type (0, 0), BuildingBlock: XUDNAN_clean_linker_2, # of connection points: 2
#     Edge 34, Type (0, 0), BuildingBlock: XUDNAN_clean_linker_2, # of connection points: 2
#     Edge 35, Type (0, 0), BuildingBlock: XUDNAN_clean_linker_2, # of connection points: 2
#     Edge 36, Type (0, 0), BuildingBlock: XUDNAN_clean_linker_2, # of connection points: 2
#     Edge 37, Type (0, 0), BuildingBlock: XUDNAN_clean_linker_2, # of connection points: 2
#     Edge 38, Type (0, 0), BuildingBlock: XUDNAN_clean_linker_2, # of connection points: 2
#     Edge 39, Type (0, 0), BuildingBlock: XUDNAN_clean_linker_2, # of connection points: 2
#     Edge 40, Type (0, 0), BuildingBlock: XUDNAN_clean_linker_2, # of connection points: 2
#     Edge 41, Type (0, 0), BuildingBlock: XUDNAN_clean_linker_2, # of connection points: 2
#     Edge 42, Type (0, 0), BuildingBlock: XUDNAN_clean_linker_2, # of connection points: 2
#     Edge 43, Type (0, 0), BuildingBlock: XUDNAN_clean_linker_2, # of connection points: 2
#     Edge 44, Type (0, 0), BuildingBlock: XUDNAN_clean_linker_2, # of connection points: 2
#     Edge 45, Type (0, 0), BuildingBlock: XUDNAN_clean_linker_2, # of connection points: 2
#     Edge 46, Type (0, 0), BuildingBlock: XUDNAN_clean_linker_2, # of connection points: 2
#     Edge 47, Type (0, 0), BuildingBlock: XUDNAN_clean_linker_2, # of connection points: 2
# Relax obj value: 0.045
# Max RMSD: 0.179
# Mean RMSD: 0.179
data_MOF--net-ukk--node1-QUQFOY_clean_sbu_1--edge1-XUDNAN_clean_linker_2
_symmetry_space_group_name_H-M    P1
_symmetry_Int_Tables_number       1
_symmetry_cell_setting            triclinic
loop_
_symmetry_equiv_pos_as_xyz
'x, y, z'
_cell_length_a     51.0516
_cell_length_b     51.047482
_cell_length_c     24.201889
_cell_angle_alpha  89.673132
_cell_angle_beta   90.153771
_cell_angle_gamma 90.04565
loop_
_atom_site_label
_atom_site_type_symbol
_atom_site_fract_x
_atom_site_fract_y
_atom_site_fract_z
_atom_type_partial_charge
O0 O 0.33168 0.16515 0.11015 0.0
Cd1 Cd 0.35335 0.13284 0.08919 0.0
Cd2 Cd 0.34618 0.12447 0.19821 0.0
O3 O 0.31695 0.15273 0.19218 0.0
O4 O 0.3488 0.12981 1.00654 0.0
O5 O 0.33004 0.10277 0.06617 0.0
C6 C 0.33247 0.11099 1.01591 0.0
C7 C 0.34455 0.07998 0.22128 0.0
C8 C 0.31696 0.16883 0.15166 0.0
C9 C 0.39959 0.14191 0.16156 0.0
O10 O 0.38277 0.14051 0.20003 0.0
O11 O 0.39335 0.13551 0.11224 0.0
O12 O 0.34374 0.09755 0.25954 0.0
O13 O 0.34415 0.08791 0.17043 0.0
O14 O 0.16233 0.67581 0.94381 0.0
Cd15 Cd 0.12782 0.65655 0.95915 0.0
Cd16 Cd 0.12486 0.66294 0.84752 0.0
O17 O 0.15539 0.68957 0.85814 0.0
O18 O 0.12228 0.66075 0.04125 0.0
O19 O 0.0989 0.68194 0.97841 0.0
C20 C 0.1051 0.67849 0.02965 0.0
C21 C 0.08137 0.66961 0.82143 0.0
C22 C 0.16916 0.68947 0.9022 0.0
C23 C 0.13357 0.60836 0.88876 0.0
O24 O 0.13574 0.62444 0.84878 0.0
O25 O 0.12721 0.61657 0.93676 0.0
O26 O 0.09948 0.66819 0.78428 0.0
O27 O 0.08847 0.66935 0.87274 0.0
O28 O 0.67977 0.86138 0.11058 0.0
Cd29 Cd 0.66086 0.89578 0.09364 0.0
Cd30 Cd 0.66526 0.89938 0.20448 0.0
O31 O 0.69205 0.86879 0.19672 0.0
O32 O 0.67011 0.90274 1.01417 0.0
O33 O 0.68574 0.92601 0.08368 0.0
C34 C 0.68648 0.92015 0.03175 0.0
C35 C 0.67023 0.93891 0.25232 0.0
C36 C 0.69268 0.85477 0.15333 0.0
C37 C 0.61145 0.88907 0.15728 0.0
O38 O 0.62681 0.88814 0.19864 0.0
O39 O 0.62035 0.89504 0.1095 0.0
O40 O 0.6681 0.91686 0.27834 0.0
O41 O 0.67183 0.93823 0.19902 0.0
O42 O 0.86281 0.333 0.92558 0.0
Cd43 Cd 0.89755 0.35125 0.94251 0.0
Cd44 Cd 0.89992 0.34892 0.82961 0.0
O45 O 0.86882 0.3224 0.83807 0.0
O46 O 0.90448 0.34078 0.02163 0.0
O47 O 0.92751 0.3258 0.95137 0.0
C48 C 0.9217 0.32446 1.00335 0.0
C49 C 0.93797 0.34539 0.7753 0.0
C50 C 0.85536 0.3211 0.88237 0.0
C51 C 0.89077 0.40192 0.88189 0.0
O52 O 0.88932 0.38731 0.83966 0.0
O53 O 0.89703 0.39212 0.92888 0.0
O54 O 0.91513 0.34816 0.75303 0.0
O55 O 0.93896 0.34214 0.82831 0.0
O56 O 0.34354 0.35737 0.17227 0.0
Cd57 Cd 0.36114 0.39304 0.18419 0.0
Cd58 Cd 0.34429 0.40024 0.08395 0.0
O59 O 0.3177 0.37065 0.10449 0.0
O60 O 0.35732 0.40184 0.26484 0.0
O61 O 0.33347 0.42027 0.19859 0.0
C62 C 0.33775 0.41655 0.25075 0.0
C63 C 0.33827 0.4404 0.03795 0.0
C64 C 0.32413 0.35336 0.14036 0.0
C65 C 0.40159 0.38918 0.09895 0.0
O66 O 0.38125 0.38686 0.06911 0.0
O67 O 0.39914 0.39601 0.14939 0.0
O68 O 0.33512 0.41842 1.01261 0.0
O69 O 0.34187 0.43952 0.09083 0.0
O70 O 0.36023 0.68067 0.85997 0.0
Cd71 Cd 0.39519 0.66448 0.83729 0.0
Cd72 Cd 0.40201 0.66713 0.94845 0.0
O73 O 0.37099 0.69369 0.94381 0.0
O74 O 0.40022 0.67632 0.75839 0.0
O75 O 0.42413 0.69103 0.82796 0.0
C76 C 0.41742 0.69281 0.77643 0.0
C77 C 0.44007 0.67061 1.00313 0.0
C78 C 0.3548 0.69329 0.90354 0.0
C79 C 0.39135 0.61397 0.89736 0.0
O80 O 0.39099 0.6287 0.93948 0.0
O81 O 0.39637 0.62367 0.84972 0.0
O82 O 0.41726 0.66764 0.0251 0.0
O83 O 0.44106 0.67393 0.95017 0.0
O84 O 0.67983 0.66201 0.19331 0.0
Cd85 Cd 0.66471 0.6261 0.21464 0.0
Cd86 Cd 0.66914 0.62022 0.10407 0.0
O87 O 0.69325 0.65305 0.10883 0.0
O88 O 0.67648 0.6199 0.29338 0.0
O89 O 0.6921 0.59794 0.22225 0.0
C90 C 0.69347 0.60354 0.27425 0.0
C91 C 0.67849 0.58082 0.05931 0.0
C92 C 0.69218 0.6686 0.14986 0.0
C93 C 0.61467 0.62674 0.15215 0.0
O94 O 0.62984 0.62784 0.1107 0.0
O95 O 0.62413 0.62266 0.20039 0.0
O96 O 0.67181 0.6014 0.03146 0.0
O97 O 0.68155 0.58309 0.11209 0.0
O98 O 0.66609 0.34277 0.85396 0.0
Cd99 Cd 0.63317 0.36331 0.83253 0.0
Cd100 Cd 0.62495 0.35365 0.94105 0.0
O101 O 0.65359 0.3247 0.93264 0.0
O102 O 0.63022 0.35658 0.75052 0.0
O103 O 0.60248 0.34053 0.81184 0.0
C104 C 0.61102 0.3409 0.76167 0.0
C105 C 0.58061 0.35056 0.96524 0.0
C106 C 0.67019 0.3268 0.89348 0.0
C107 C 0.64152 0.40828 0.90607 0.0
O108 O 0.6404 0.39067 0.94338 0.0
O109 O 0.63509 0.40299 0.85625 0.0
O110 O 0.59852 0.35 1.00313 0.0
O111 O 0.58816 0.35101 0.91434 0.0
O112 O 0.84519 0.66064 0.61546 0.0
Cd113 Cd 0.86255 0.625 0.60365 0.0
Cd114 Cd 0.84546 0.61777 0.70333 0.0
O115 O 0.81919 0.64773 0.68303 0.0
O116 O 0.85909 0.61672 0.52279 0.0
O117 O 0.83499 0.59785 0.58793 0.0
C118 C 0.83945 0.60194 0.53601 0.0
C119 C 0.83936 0.57726 0.748 0.0
C120 C 0.82592 0.66496 0.64729 0.0
C121 C 0.90274 0.62952 0.68892 0.0
O122 O 0.88237 0.63128 0.71861 0.0
O123 O 0.90048 0.62248 0.63857 0.0
O124 O 0.8363 0.59906 0.77404 0.0
O125 O 0.84296 0.57853 0.69519 0.0
O126 O 0.66329 0.18637 0.40352 0.0
Cd127 Cd 0.62911 0.16979 0.43145 0.0
Cd128 Cd 0.62016 0.17081 0.32092 0.0
O129 O 0.65256 0.19553 0.31716 0.0
O130 O 0.62828 0.18029 0.5114 0.0
O131 O 0.60026 0.19557 0.44919 0.0
C132 C 0.6095 0.19616 0.49891 0.0
C133 C 0.57837 0.17917 0.28533 0.0
C134 C 0.66872 0.19694 0.35729 0.0
C135 C 0.62964 0.11801 0.37529 0.0
O136 O 0.62876 0.13181 0.33147 0.0
O137 O 0.62713 0.12889 0.42239 0.0
O138 O 0.59725 0.17217 0.25326 0.0
O139 O 0.58368 0.183 0.33695 0.0
O140 O 0.18003 0.36021 0.58283 0.0
Cd141 Cd 0.16298 0.39579 0.56755 0.0
Cd142 Cd 0.16725 0.39748 0.67917 0.0
O143 O 0.19314 0.36639 0.66889 0.0
O144 O 0.17359 0.40367 0.48896 0.0
O145 O 0.18976 0.42468 0.56105 0.0
C146 C 0.19081 0.41971 0.50869 0.0
C147 C 0.17294 0.43468 0.73454 0.0
C148 C 0.19298 0.35275 0.62494 0.0
C149 C 0.1131 0.39032 0.63068 0.0
O150 O 0.12848 0.38763 0.67165 0.0
O151 O 0.12226 0.3971 0.58352 0.0
O152 O 0.16984 0.4117 0.75608 0.0
O153 O 0.17513 0.43622 0.68139 0.0
O154 O 0.35636 0.84551 0.43531 0.0
Cd155 Cd 0.39229 0.86257 0.44667 0.0
Cd156 Cd 0.39897 0.84504 0.34713 0.0
O157 O 0.36901 0.81916 0.36853 0.0
O158 O 0.4014 0.85891 0.52736 0.0
O159 O 0.41914 0.83457 0.46179 0.0
C160 C 0.41573 0.83907 0.51382 0.0
C161 C 0.4386 0.83773 0.30108 0.0
C162 C 0.35195 0.82604 0.40407 0.0
C163 C 0.38907 0.90262 0.35973 0.0
O164 O 0.38644 0.88221 0.33054 0.0
O165 O 0.39572 0.90029 0.41045 0.0
O166 O 0.41639 0.83506 0.27605 0.0
O167 O 0.43817 0.84157 0.35382 0.0
O168 O 0.83458 0.85832 0.68049 0.0
Cd169 Cd 0.85341 0.89267 0.70022 0.0
Cd170 Cd 0.85141 0.89683 0.5878 0.0
O171 O 0.82611 0.86486 0.59172 0.0
O172 O 0.84661 0.8972 0.7816 0.0
O173 O 0.82818 0.92211 0.71742 0.0
C174 C 0.82997 0.91523 0.76872 0.0
C175 C 0.84373 0.93894 0.55313 0.0
C176 C 0.82385 0.8511 0.63561 0.0
C177 C 0.90442 0.88818 0.63899 0.0
O178 O 0.89013 0.88746 0.596 0.0
O179 O 0.89417 0.89297 0.68599 0.0
O180 O 0.8488 0.9198 0.52009 0.0
O181 O 0.84116 0.93365 0.60518 0.0
O182 O 0.85887 0.17702 0.33562 0.0
Cd183 Cd 0.89365 0.1573 0.33093 0.0
Cd184 Cd 0.89624 0.17275 0.43352 0.0
O185 O 0.86841 0.20048 0.40949 0.0
O186 O 0.90436 0.16 0.25113 0.0
O187 O 0.92274 0.18321 0.31795 0.0
C188 C 0.91966 0.17895 0.26571 0.0
C189 C 0.93586 0.17738 0.48185 0.0
C190 C 0.8536 0.19571 0.36819 0.0
C191 C 0.8826 0.11635 0.41342 0.0
O192 O 0.88059 0.13628 0.44427 0.0
O193 O 0.89223 0.11894 0.36498 0.0
O194 O 0.91361 0.18071 0.50613 0.0
O195 O 0.93561 0.17397 0.42895 0.0
O196 O 0.17544 0.16193 0.66851 0.0
Cd197 Cd 0.15952 0.12666 0.69072 0.0
Cd198 Cd 0.16365 0.11955 0.58171 0.0
O199 O 0.19022 0.15051 0.58658 0.0
O200 O 0.171 0.12114 0.76957 0.0
O201 O 0.18661 0.09832 0.69952 0.0
C202 C 0.18801 0.10461 0.75119 0.0
C203 C 0.16875 0.08037 0.53257 0.0
C204 C 0.18905 0.16698 0.62592 0.0
C205 C 0.1097 0.12935 0.62867 0.0
O206 O 0.12494 0.13022 0.58728 0.0
O207 O 0.11895 0.12438 0.67672 0.0
O208 O 0.16587 0.10252 0.50733 0.0
O209 O 0.17099 0.08076 0.58579 0.0
O210 O 0.15959 0.83251 0.37047 0.0
Cd211 Cd 0.12457 0.84999 0.35083 0.0
Cd212 Cd 0.12094 0.84857 0.4623 0.0
O213 O 0.1522 0.82258 0.4581 0.0
O214 O 0.11811 0.83894 0.27232 0.0
O215 O 0.09512 0.82399 0.34315 0.0
C216 C 0.10104 0.82252 0.29129 0.0
C217 C 0.08211 0.84405 0.51291 0.0
C218 C 0.16639 0.82108 0.415 0.0
C219 C 0.12915 0.90129 0.40826 0.0
O220 O 0.13098 0.88707 0.45132 0.0
O221 O 0.12337 0.89089 0.36186 0.0
O222 O 0.10435 0.84758 0.53728 0.0
O223 O 0.08226 0.84075 0.45997 0.0
H224 H 0.38076 0.95242 0.40613 0.0
H225 H 0.38526 0.91119 0.24968 0.0
H226 H 0.37269 0.95108 0.20029 0.0
H227 H 0.32498 0.99261 0.37048 0.0
H228 H 0.33686 0.0218 0.40382 0.0
H229 H 0.34666 0.99002 0.42919 0.0
H230 H 0.39546 1.00279 0.41832 0.0
H231 H 0.38581 0.03472 0.39354 0.0
H232 H 0.40709 0.01456 0.35241 0.0
H233 H 0.35813 0.99383 0.16623 0.0
H234 H 0.34656 0.03977 0.14819 0.0
H235 H 0.35211 0.05613 0.32387 0.0
C236 C 0.37934 0.95193 0.36151 0.0
C237 C 0.38383 0.92835 0.33218 0.0
C238 C 0.3817 0.92868 0.27363 0.0
C239 C 0.37451 0.95133 0.24485 0.0
C240 C 0.36958 0.97391 0.2747 0.0
C241 C 0.3722 0.97471 0.33154 0.0
C242 C 0.36597 1.00211 0.35245 0.0
C243 C 0.3422 1.00159 0.39129 0.0
C244 C 0.39002 0.01426 0.38086 0.0
C245 C 0.35951 0.01627 0.29843 0.0
C246 C 0.36155 0.99936 0.25439 0.0
C247 C 0.35656 1.00737 0.2003 0.0
C248 C 0.34988 0.03357 0.1905 0.0
C249 C 0.34836 0.0517 0.23444 0.0
C250 C 0.35293 0.04276 0.28935 0.0
H251 H 0.05828 0.65678 0.72115 0.0
H252 H 0.04043 0.6799 0.88935 0.0
H253 H 0.99356 0.67295 0.87129 0.0
H254 H 0.99863 0.68615 0.65704 0.0
H255 H 0.99463 0.65973 0.60864 0.0
H256 H 0.0269 0.66857 0.63261 0.0
H257 H 0.03453 0.62076 0.66493 0.0
H258 H 1.0022 0.61183 0.64172 0.0
H259 H 0.01177 0.60578 0.7124 0.0
H260 H 0.94997 0.66021 0.83983 0.0
H261 H 0.90994 0.64561 0.79433 0.0
H262 H 0.95346 0.63074 0.64338 0.0
C263 C 0.04441 0.66098 0.75368 0.0
C264 C 0.0531 0.66904 0.80673 0.0
C265 C 0.03436 0.67382 0.84846 0.0
C266 C 1.00764 0.66988 0.83862 0.0
C267 C 0.9998 0.66123 0.78669 0.0
C268 C 0.01743 0.65711 0.74452 0.0
C269 C 1.00339 0.64696 0.69318 0.0
C270 C 1.00605 0.66652 0.64501 0.0
C271 C 0.01359 0.61971 0.67713 0.0
C272 C 0.97525 0.64556 0.71374 0.0
C273 C 0.97393 0.65397 0.76785 0.0
C274 C 0.95065 0.6539 0.79725 0.0
C275 C 0.92793 0.6454 0.7707 0.0
C276 C 0.92824 0.63705 0.71477 0.0
C277 C 0.95242 0.63705 0.68595 0.0
H278 H 0.66399 0.98817 0.20806 0.0
H279 H 0.66993 0.9467 0.36454 0.0
H280 H 0.66045 0.98783 0.41415 0.0
H281 H 0.69275 0.04994 0.2542 0.0
H282 H 0.67067 0.06937 0.21268 0.0
H283 H 0.67983 0.03704 0.19051 0.0
H284 H 0.63077 0.02421 0.18462 0.0
H285 H 0.62148 0.05637 0.20749 0.0
H286 H 0.61029 0.0278 0.24467 0.0
H287 H 0.64804 0.03399 0.4466 0.0
H288 H 0.63577 0.08068 0.45799 0.0
H289 H 0.63708 0.09067 0.27976 0.0
C290 C 0.66384 0.98779 0.2528 0.0
C291 C 0.66796 0.96417 0.28233 0.0
C292 C 0.66705 0.96455 0.34091 0.0
C293 C 0.66158 0.98783 0.36951 0.0
C294 C 0.65698 0.01065 0.33904 0.0
C295 C 0.65823 0.01078 0.28193 0.0
C296 C 0.65164 0.03757 0.25861 0.0
C297 C 0.67512 0.04916 0.22715 0.0
C298 C 0.62709 0.0364 0.22168 0.0
C299 C 0.64634 0.05247 0.31135 0.0
C300 C 0.64954 0.03674 0.35745 0.0
C301 C 0.64556 0.04647 0.41067 0.0
C302 C 0.63848 0.073 0.41679 0.0
C303 C 0.63535 0.08949 0.36993 0.0
C304 C 0.6392 0.07877 0.31667 0.0
H305 H 0.08916 0.37789 0.72833 0.0
H306 H 0.07269 0.38861 0.55362 0.0
H307 H 0.02634 0.37617 0.57046 0.0
H308 H 0.04832 0.32175 0.74968 0.0
H309 H 0.03824 0.33166 0.81776 0.0
H310 H 0.06977 0.3415 0.79162 0.0
H311 H 0.05827 0.39022 0.80868 0.0
H312 H 0.02683 0.38052 0.8354 0.0
H313 H 0.02873 0.40368 0.77906 0.0
H314 H 0.98121 0.36239 0.60821 0.0
H315 H 0.94186 0.35097 0.66263 0.0
H316 H 0.98896 0.34893 0.81205 0.0
C317 C 0.07592 0.37773 0.6933 0.0
C318 C 0.08475 0.38429 0.63943 0.0
C319 C 0.06651 0.38378 0.59521 0.0
C320 C 0.04015 0.37662 0.60443 0.0
C321 C 0.03231 0.36998 0.65809 0.0
C322 C 0.04975 0.37063 0.70173 0.0
C323 C 0.03665 0.36299 0.75565 0.0
C324 C 0.04898 0.33799 0.7801 0.0
C325 C 0.03768 0.38571 0.79713 0.0
C326 C 1.00894 0.35798 0.7359 0.0
C327 C 1.00677 0.36201 0.67948 0.0
C328 C 0.98282 0.35912 0.65231 0.0
C329 C 0.96054 0.35252 0.68364 0.0
C330 C 0.96222 0.34881 0.74172 0.0
C331 C 0.98695 0.35125 0.76774 0.0
H332 H 0.35158 0.48891 0.07803 0.0
H333 H 0.33347 0.44809 0.92589 0.0
H334 H 0.34546 0.48765 0.87221 0.0
H335 H 0.32801 0.55349 0.03371 0.0
H336 H 0.35386 0.57038 0.0698 0.0
H337 H 0.34204 0.53939 0.09549 0.0
H338 H 0.38937 0.52109 0.09296 0.0
H339 H 0.40125 0.55187 0.06635 0.0
H340 H 0.40742 0.52205 0.02906 0.0
H341 H 0.36243 0.53174 0.8346 0.0
H342 H 0.37905 0.57684 0.81817 0.0
H343 H 0.38616 0.58766 0.99532 0.0
C344 C 0.34956 0.48841 0.0335 0.0
C345 C 0.34137 0.46534 1.00635 0.0
C346 C 0.33947 0.46553 0.94783 0.0
C347 C 0.3464 0.48791 0.91688 0.0
C348 C 0.35517 0.51006 0.94491 0.0
C349 C 0.35644 0.51052 1.00201 0.0
C350 C 0.36705 0.53645 0.02235 0.0
C351 C 0.34651 0.55077 0.0574 0.0
C352 C 0.3928 0.53262 0.05457 0.0
C353 C 0.37172 0.55047 0.96791 0.0
C354 C 0.36484 0.53503 0.92354 0.0
C355 C 0.36775 0.54401 0.86918 0.0
C356 C 0.37738 0.5696 0.86015 0.0
C357 C 0.38395 0.58593 0.90527 0.0
C358 C 0.38131 0.57586 0.95968 0.0
H359 H 0.49071 0.66501 0.96675 0.0
H360 H 0.44406 0.66746 0.11615 0.0
H361 H 0.48331 0.65643 0.17168 0.0
H362 H 0.52889 0.61013 1.00523 0.0
H363 H 0.55865 0.62205 0.97402 0.0
H364 H 0.52738 0.63203 0.9466 0.0
H365 H 0.54003 0.68084 0.95895 0.0
H366 H 0.5715 0.671 0.98569 0.0
H367 H 0.55074 0.69217 0.02573 0.0
H368 H 0.5283 0.64303 0.21084 0.0
H369 H 0.57456 0.63059 0.22899 0.0
H370 H 0.59042 0.63598 0.05315 0.0
C371 C 0.48881 0.66375 1.01123 0.0
C372 C 0.46427 0.66736 0.03701 0.0
C373 C 0.46264 0.66499 0.09536 0.0
C374 C 0.48485 0.65863 0.12731 0.0
C375 C 0.50862 0.65458 0.10043 0.0
C376 C 0.51071 0.65723 0.04367 0.0
C377 C 0.5382 0.65106 0.02441 0.0
C378 C 0.53827 0.62741 0.98526 0.0
C379 C 0.55086 0.67521 0.9971 0.0
C380 C 0.55125 0.64444 0.07902 0.0
C381 C 0.53401 0.64658 0.12257 0.0
C382 C 0.54195 0.64136 0.17691 0.0
C383 C 0.56824 0.63417 0.18688 0.0
C384 C 0.58628 0.63219 0.1427 0.0
C385 C 0.57732 0.6372 0.08815 0.0
H386 H 0.6261 0.45965 0.88196 0.0
H387 H 0.68483 0.41331 0.96775 0.0
H388 H 0.70363 0.45324 1.00785 0.0
H389 H 0.66917 0.51864 0.85653 0.0
H390 H 0.64283 0.54131 0.86913 0.0
H391 H 0.63591 0.50954 0.8403 0.0
H392 H 0.60323 0.50026 0.91967 0.0
H393 H 0.61013 0.53188 0.94884 0.0
H394 H 0.61424 0.50272 0.99031 0.0
H395 H 0.71222 0.4962 0.04984 0.0
H396 H 0.71158 0.54112 0.08728 0.0
H397 H 0.64906 0.56163 0.9734 0.0
C398 C 0.6434 0.45814 0.90775 0.0
C399 C 0.65411 0.43338 0.92152 0.0
C400 C 0.67632 0.43207 0.95668 0.0
C401 C 0.68723 0.45466 0.97959 0.0
C402 C 0.67583 0.47867 0.96696 0.0
C403 C 0.6546 0.48076 0.93148 0.0
C404 C 0.64509 0.50898 0.9287 0.0
C405 C 0.64846 0.52029 0.87018 0.0
C406 C 0.61648 0.51107 0.94804 0.0
C407 C 0.66375 0.52201 0.96935 0.0
C408 C 0.68137 0.50408 0.99063 0.0
C409 C 0.69896 0.51063 0.03257 0.0
C410 C 0.69844 0.53614 0.05371 0.0
C411 C 0.68069 0.55492 0.03249 0.0
C412 C 0.6634 0.54784 0.98917 0.0
H413 H 0.45204 0.38474 0.14623 0.0
H414 H 0.40972 0.38021 0.99028 0.0
H415 H 0.44991 0.36795 0.943 0.0
H416 H 0.51175 0.41244 0.08692 0.0
H417 H 0.53364 0.39419 0.13122 0.0
H418 H 0.50129 0.40248 0.15497 0.0
H419 H 0.492 0.35346 0.17479 0.0
H420 H 0.52425 0.34502 0.15061 0.0
H421 H 0.49578 0.32993 0.12014 0.0
H422 H 0.49331 0.35561 0.91062 0.0
H423 H 0.53987 0.3471 0.89333 0.0
H424 H 0.55703 0.35984 0.06709 0.0
C425 C 0.45132 0.38127 0.10217 0.0
C426 C 0.42736 0.38333 0.07248 0.0
C427 C 0.42748 0.37863 1.01464 0.0
C428 C 0.45032 0.37157 0.98701 0.0
C429 C 0.47333 0.36927 0.01722 0.0
C430 C 0.47431 0.37419 0.0733 0.0
C431 C 0.50225 0.37069 0.09461 0.0
C432 C 0.51286 0.39649 0.11833 0.0
C433 C 0.50364 0.34845 0.13759 0.0
C434 C 0.5165 0.36324 0.04161 0.0
C435 C 0.49917 0.36237 0.99782 0.0
C436 C 0.50716 0.35623 0.9445 0.0
C437 C 0.53373 0.35136 0.93513 0.0
C438 C 0.55225 0.35272 0.97869 0.0
C439 C 0.54337 0.35841 0.03294 0.0
H440 H 0.88449 0.42875 0.78479 0.0
H441 H 0.87999 0.43877 0.96245 0.0
H442 H 0.86397 0.48421 0.94785 0.0
H443 H 0.90687 0.49384 0.75219 0.0
H444 H 0.88824 0.49561 0.68891 0.0
H445 H 0.8995 0.46439 0.71443 0.0
H446 H 0.85181 0.44699 0.71231 0.0
H447 H 0.84034 0.4783 0.68759 0.0
H448 H 0.82668 0.46421 0.74961 0.0
H449 H 0.84736 0.52878 0.91211 0.0
H450 H 0.83564 0.56891 0.85999 0.0
H451 H 0.85119 0.52872 0.70606 0.0
C452 C 0.88029 0.44043 0.8209 0.0
C453 C 0.88352 0.43005 0.87494 0.0
C454 C 0.87785 0.44624 0.92072 0.0
C455 C 0.86857 0.47203 0.91274 0.0
C456 C 0.86513 0.48136 0.85874 0.0
C457 C 0.87112 0.46604 0.81369 0.0
C458 C 0.86616 0.48053 0.75982 0.0
C459 C 0.89171 0.48379 0.72692 0.0
C460 C 0.84499 0.46668 0.72532 0.0
C461 C 0.85642 0.50654 0.78129 0.0
C462 C 0.85578 0.50666 0.83844 0.0
C463 C 0.84781 0.5288 0.8674 0.0
C464 C 0.84103 0.55151 0.83734 0.0
C465 C 0.8423 0.55205 0.77876 0.0
C466 C 0.84969 0.52899 0.75067 0.0
H467 H 0.55553 0.15148 0.20066 0.0
H468 H 0.53929 0.20983 0.32555 0.0
H469 H 0.49266 0.20979 0.29834 0.0
H470 H 0.50629 0.17383 0.09647 0.0
H471 H 0.49751 0.14085 0.07764 0.0
H472 H 0.5303 0.14802 0.10098 0.0
H473 H 0.52599 0.11253 0.17724 0.0
H474 H 0.49322 0.1053 0.1543 0.0
H475 H 0.4991 0.11416 0.22525 0.0
H476 H 0.44799 0.20091 0.26484 0.0
H477 H 0.40675 0.18258 0.22971 0.0
H478 H 0.45006 0.12851 0.12673 0.0
C479 C 0.54223 0.16477 0.22111 0.0
C480 C 0.55107 0.18103 0.26467 0.0
C481 C 0.53298 0.19745 0.29183 0.0
C482 C 0.50648 0.1976 0.27651 0.0
C483 C 0.49827 0.18103 0.23422 0.0
C484 C 0.5155 0.16483 0.20688 0.0
C485 C 0.50094 0.14709 0.16674 0.0
C486 C 0.50926 0.1528 0.1069 0.0
C487 C 0.50506 0.11805 0.18181 0.0
C488 C 0.47278 0.15549 0.17672 0.0
C489 C 0.47194 0.17536 0.21535 0.0
C490 C 0.4484 0.18556 0.23419 0.0
C491 C 0.42506 0.17491 0.21406 0.0
C492 C 0.42515 0.15415 0.17538 0.0
C493 C 0.44939 0.14465 0.15552 0.0
H494 H 0.1453 0.58584 0.78956 0.0
H495 H 0.13558 0.56709 0.96348 0.0
H496 H 0.14725 0.52088 0.94407 0.0
H497 H 0.11796 0.5268 0.7364 0.0
H498 H 0.14056 0.52508 0.67944 0.0
H499 H 0.13191 0.55638 0.70795 0.0
H500 H 0.18105 0.56651 0.7245 0.0
H501 H 0.18985 0.5351 0.69653 0.0
H502 H 0.20062 0.54405 0.76486 0.0
H503 H 0.15967 0.47626 0.90407 0.0
H504 H 0.16915 0.43728 0.84746 0.0
H505 H 0.17093 0.48611 0.70018 0.0
C506 C 0.14559 0.57213 0.82385 0.0
C507 C 0.13949 0.58023 0.87824 0.0
C508 C 0.14009 0.56143 0.92152 0.0
C509 C 0.14682 0.53516 0.91086 0.0
C510 C 0.15294 0.528 0.85674 0.0
C511 C 0.15224 0.546 0.81398 0.0
C512 C 0.15905 0.53345 0.75925 0.0
C513 C 0.136 0.53555 0.71837 0.0
C514 C 0.18413 0.5455 0.73487 0.0
C515 C 0.16352 0.5054 0.77755 0.0
C516 C 0.16007 0.50263 0.83396 0.0
C517 C 0.1625 0.47831 0.85996 0.0
C518 C 0.16799 0.45626 0.82739 0.0
C519 C 0.17098 0.45856 0.76929 0.0
C520 C 0.16911 0.48364 0.74447 0.0
H521 H 0.48782 0.84909 0.34047 0.0
H522 H 0.44518 0.8334 0.18891 0.0
H523 H 0.48454 0.84483 0.13459 0.0
H524 H 0.52171 0.90442 0.29239 0.0
H525 H 0.55178 0.89725 0.3286 0.0
H526 H 0.52106 0.88569 0.35575 0.0
H527 H 0.53839 0.83797 0.35627 0.0
H528 H 0.56935 0.84945 0.33005 0.0
H529 H 0.55157 0.82434 0.29367 0.0
H530 H 0.52836 0.86151 0.09635 0.0
H531 H 0.5734 0.8779 0.07904 0.0
H532 H 0.58641 0.88253 0.25602 0.0
C533 C 0.48688 0.84745 0.29592 0.0
C534 C 0.46336 0.84015 0.26911 0.0
C535 C 0.46298 0.83871 0.21057 0.0
C536 C 0.48523 0.84532 0.17927 0.0
C537 C 0.50784 0.85327 0.20698 0.0
C538 C 0.50888 0.85399 0.26408 0.0
C539 C 0.53522 0.86384 0.28402 0.0
C540 C 0.53225 0.88931 0.31713 0.0
C541 C 0.54947 0.84264 0.318 0.0
C542 C 0.54876 0.86883 0.22933 0.0
C543 C 0.53274 0.86269 0.18522 0.0
C544 C 0.54111 0.86619 0.1307 0.0
C545 C 0.56667 0.87569 0.1212 0.0
C546 C 0.58357 0.88151 0.16601 0.0
C547 C 0.57415 0.87822 0.22063 0.0
H548 H 0.86766 0.9603 0.46104 0.0
H549 H 0.81908 0.98 0.60167 0.0
H550 H 0.8215 0.0267 0.57565 0.0
H551 H 0.91072 0.01387 0.47413 0.0
H552 H 0.91499 0.01965 0.40117 0.0
H553 H 0.90706 0.98729 0.42597 0.0
H554 H 0.86648 0.98602 0.36171 0.0
H555 H 0.87438 0.01835 0.33638 0.0
H556 H 0.84252 0.01187 0.36536 0.0
H557 H 0.83146 0.07071 0.5402 0.0
H558 H 0.8485 0.11078 0.49785 0.0
H559 H 0.89225 0.06465 0.37919 0.0
C560 C 0.85698 0.97442 0.48542 0.0
C561 C 0.84283 0.96646 0.53307 0.0
C562 C 0.82981 0.98559 0.56489 0.0
C563 C 0.83106 0.01217 0.55036 0.0
C564 C 0.84557 0.01944 0.50401 0.0
C565 C 0.85831 1.00124 0.47182 0.0
C566 C 0.87412 0.0148 0.42654 0.0
C567 C 0.90346 1.00853 0.43232 0.0
C568 C 0.86375 1.00731 0.36908 0.0
C569 C 0.86861 0.04346 0.43907 0.0
C570 C 0.85187 0.04541 0.48372 0.0
C571 C 0.84443 0.06945 0.50502 0.0
C572 C 0.85443 0.09218 0.4806 0.0
C573 C 0.87191 0.09109 0.43507 0.0
C574 C 0.87883 0.06625 0.41358 0.0
H575 H 0.98509 0.16562 0.44356 0.0
H576 H 0.94216 0.18107 0.59435 0.0
H577 H 0.98156 0.17005 0.64937 0.0
H578 H 0.02 0.11064 0.49314 0.0
H579 H 0.04987 0.11837 0.45699 0.0
H580 H 0.01887 0.12909 0.42943 0.0
H581 H 0.03522 0.17718 0.42808 0.0
H582 H 0.06642 0.16654 0.45482 0.0
H583 H 0.04811 0.19139 0.49053 0.0
H584 H 0.02584 0.15462 0.68837 0.0
H585 H 0.07137 0.13975 0.70636 0.0
H586 H 0.08433 0.13447 0.52961 0.0
C587 C 0.98405 0.16718 0.4881 0.0
C588 C 0.96047 0.17438 0.51448 0.0
C589 C 0.95999 0.1758 0.57301 0.0
C590 C 0.98228 0.16944 0.60471 0.0
C591 C 1.005 0.16173 0.57739 0.0
C592 C 1.00608 0.16089 0.52032 0.0
C593 C 0.03262 0.15156 0.50082 0.0
C594 C 0.03018 0.12589 0.46818 0.0
C595 C 0.04641 0.17294 0.46655 0.0
C596 C 0.04629 0.14712 0.55572 0.0
C597 C 0.03013 0.15299 0.59957 0.0
C598 C 0.03867 0.15009 0.65422 0.0
C599 C 0.06452 0.14147 0.66412 0.0
C600 C 0.08155 0.13591 0.61957 0.0
C601 C 0.07197 0.13857 0.56482 0.0
H602 H 0.14012 0.92783 0.50321 0.0
H603 H 0.13161 0.9394 0.32622 0.0
H604 H 0.14324 0.9863 0.33771 0.0
H605 H 0.11273 0.9889 0.54452 0.0
H606 H 0.13502 0.99276 0.6018 0.0
H607 H 0.12628 0.96047 0.57861 0.0
H608 H 0.17544 0.94947 0.56579 0.0
H609 H 0.18433 0.98184 0.5884 0.0
H610 H 0.19541 0.97015 0.52234 0.0
H611 H 0.1556 0.03251 0.37029 0.0
H612 H 0.1652 0.07353 0.42032 0.0
H613 H 0.166 0.03049 0.57542 0.0
C614 C 0.14064 0.9401 0.46657 0.0
C615 C 0.13491 0.92979 0.41364 0.0
C616 C 0.13583 0.94677 0.36716 0.0
C617 C 0.14253 0.97341 0.37333 0.0
C618 C 0.14832 0.98275 0.4262 0.0
C619 C 0.1473 0.96652 0.47196 0.0
C620 C 0.15389 0.98115 0.52449 0.0
C621 C 0.13059 0.9808 0.5647 0.0
C622 C 0.17874 0.96998 0.55184 0.0
C623 C 0.15867 1.00834 0.50147 0.0
C624 C 0.15549 1.00892 0.44469 0.0
C625 C 0.15823 0.03216 0.41467 0.0
C626 C 0.16379 0.05538 0.44351 0.0
C627 C 0.16657 0.05528 0.50187 0.0
C628 C 0.16436 0.03127 0.53082 0.0
H629 H 0.93045 0.87651 0.54369 0.0
H630 H 0.94268 0.88508 0.72026 0.0
H631 H 0.9892 0.8723 0.70833 0.0
H632 H 0.97114 0.82006 0.5258 0.0
H633 H 0.98301 0.83054 0.45917 0.0
H634 H 0.95096 0.84041 0.48194 0.0
H635 H 0.96335 0.8892 0.46722 0.0
H636 H 0.99531 0.87948 0.44382 0.0
H637 H 0.99224 0.90209 0.50036 0.0
H638 H 0.03497 0.85888 0.67545 0.0
H639 H 0.07563 0.84813 0.62512 0.0
H640 H 0.03223 0.84764 0.47076 0.0
C641 C 0.9428 0.87582 0.58012 0.0
C642 C 0.93278 0.8819 0.63307 0.0
C643 C 0.94983 0.88063 0.6793 0.0
C644 C 0.97627 0.87328 0.67289 0.0
C645 C 0.98531 0.86714 0.62004 0.0
C646 C 0.96902 0.86846 0.57451 0.0
C647 C 0.98334 0.86125 0.52199 0.0
C648 C 0.9714 0.8366 0.4957 0.0
C649 C 0.98358 0.88438 0.48095 0.0
C650 C 0.01043 0.85581 0.54477 0.0
C651 C 0.01123 0.85921 0.60142 0.0
C652 C 0.03445 0.85605 0.63117 0.0
C653 C 0.05746 0.84984 0.60219 0.0
C654 C 0.05716 0.8468 0.54395 0.0
C655 C 0.03314 0.84942 0.51529 0.0
H656 H 0.32908 0.31593 0.2206 0.0
H657 H 0.29044 0.3317 0.06411 0.0
H658 H 0.27538 0.28568 0.06099 0.0
H659 H 0.35508 0.25802 0.18608 0.0
H660 H 0.35127 0.24215 0.2523 0.0
H661 H 0.35361 0.27717 0.24838 0.0
H662 H 0.30941 0.2814 0.3 0.0
H663 H 0.30691 0.24619 0.30396 0.0
H664 H 0.28074 0.26507 0.27339 0.0
H665 H 0.27339 0.23676 0.06451 0.0
H666 H 0.28426 0.18982 0.07483 0.0
H667 H 0.32231 0.20564 0.231 0.0
C668 C 0.31672 0.30997 0.18649 0.0
C669 C 0.3109 0.32746 0.1426 0.0
C670 C 0.29495 0.31876 0.09844 0.0
C671 C 0.28627 0.29263 0.09642 0.0
C672 C 0.29327 0.2756 0.13938 0.0
C673 C 0.30785 0.28407 0.18404 0.0
C674 C 0.31564 0.26141 0.22135 0.0
C675 C 0.34566 0.25959 0.2273 0.0
C676 C 0.30237 0.26366 0.27804 0.0
C677 C 0.30462 0.2386 0.18899 0.0
C678 C 0.29133 0.24722 0.14233 0.0
C679 C 0.28286 0.22979 0.10184 0.0
C680 C 0.28901 0.20315 0.10809 0.0
C681 C 0.30326 0.19414 0.15466 0.0
C682 C 0.31024 0.21193 0.19652 0.0
H683 H 0.20625 0.69362 0.82137 0.0
H684 H 0.19012 0.71361 0.99154 0.0
H685 H 0.23639 0.72597 1.00509 0.0
H686 H 0.26138 0.6612 0.84707 0.0
H687 H 0.27953 0.67106 0.78663 0.0
H688 H 0.2444 0.67112 0.78497 0.0
H689 H 0.24436 0.72011 0.75638 0.0
H690 H 0.27968 0.72015 0.75739 0.0
H691 H 0.2618 0.7436 0.79793 0.0
H692 H 0.28516 0.72663 1.00651 0.0
H693 H 0.33201 0.7158 0.9949 0.0
H694 H 0.31688 0.69527 0.82399 0.0
C695 C 0.21226 0.70195 0.86047 0.0
C696 C 0.19464 0.7031 0.90513 0.0
C697 C 0.20334 0.7129 0.95663 0.0
C698 C 0.22958 0.72003 0.96467 0.0
C699 C 0.24692 0.71732 0.92074 0.0
C700 C 0.23856 0.70882 0.86933 0.0
C701 C 0.26165 0.70365 0.83177 0.0
C702 C 0.26173 0.67507 0.81149 0.0
C703 C 0.26188 0.72304 0.78298 0.0
C704 C 0.28417 0.70891 0.87111 0.0
C705 C 0.27535 0.71742 0.9218 0.0
C706 C 0.29239 0.72066 0.96652 0.0
C707 C 0.319 0.71441 0.95963 0.0
C708 C 0.32821 0.70475 0.90855 0.0
C709 C 0.3106 0.70289 0.86345 0.0
H710 H 0.69251 0.81717 0.23392 0.0
H711 H 0.72002 0.83398 0.06843 0.0
H712 H 0.73112 0.78739 0.05582 0.0
H713 H 0.73907 0.75951 0.26471 0.0
H714 H 0.7133 0.74223 0.30035 0.0
H715 H 0.71462 0.77752 0.30231 0.0
H716 H 0.66704 0.77958 0.26508 0.0
H717 H 0.66567 0.74449 0.2622 0.0
H718 H 0.65913 0.76362 0.20087 0.0
H719 H 0.72996 0.73865 0.05321 0.0
H720 H 0.71773 0.69196 0.06225 0.0
H721 H 0.69052 0.70645 0.22907 0.0
C722 C 0.70226 0.81119 0.19637 0.0
C723 C 0.70594 0.82913 0.15257 0.0
C724 C 0.71747 0.82051 0.10276 0.0
C725 C 0.72385 0.79408 0.09525 0.0
C726 C 0.71859 0.77648 0.13799 0.0
C727 C 0.70838 0.78472 0.18798 0.0
C728 C 0.70073 0.76152 0.2238 0.0
C729 C 0.71796 0.76011 0.27588 0.0
C730 C 0.67142 0.76237 0.2388 0.0
C731 C 0.70673 0.73916 0.18494 0.0
C732 C 0.71757 0.7481 0.13614 0.0
C733 C 0.72213 0.73131 0.09182 0.0
C734 C 0.71503 0.70481 0.09721 0.0
C735 C 0.70326 0.69544 0.14639 0.0
C736 C 0.69979 0.71283 0.19112 0.0
H737 H 0.70667 0.32529 0.81168 0.0
H738 H 0.69273 0.29928 0.98002 0.0
H739 H 0.73907 0.28545 0.98725 0.0
H740 H 0.75896 0.27545 0.77525 0.0
H741 H 0.77678 0.29979 0.73628 0.0
H742 H 0.74152 0.30119 0.73959 0.0
H743 H 0.74431 0.3488 0.77566 0.0
H744 H 0.77939 0.34753 0.77269 0.0
H745 H 0.76341 0.35555 0.83674 0.0
H746 H 0.78794 0.28343 0.98283 0.0
H747 H 0.83457 0.294 0.96841 0.0
H748 H 0.8171 0.32163 0.80291 0.0
C749 C 0.71304 0.31584 0.84955 0.0
C750 C 0.69596 0.31329 0.89531 0.0
C751 C 0.70529 0.30118 0.94425 0.0
C752 C 0.73162 0.29325 0.94862 0.0
C753 C 0.74823 0.29725 0.90349 0.0
C754 C 0.73917 0.30803 0.8546 0.0
C755 C 0.76145 0.31388 0.81503 0.0
C756 C 0.75956 0.29653 0.76348 0.0
C757 C 0.76218 0.34317 0.79917 0.0
C758 C 0.78473 0.30625 0.85047 0.0
C759 C 0.77665 0.29607 0.90084 0.0
C760 C 0.79447 0.29066 0.94306 0.0
C761 C 0.82094 0.29674 0.93449 0.0
C762 C 0.82944 0.30818 0.88416 0.0
C763 C 0.81125 0.31202 0.84092 0.0
H764 H 0.83158 0.70227 0.56718 0.0
H765 H 0.79361 0.68763 0.72448 0.0
H766 H 0.78082 0.73429 0.72881 0.0
H767 H 0.8607 0.75872 0.60218 0.0
H768 H 0.85711 0.77517 0.53649 0.0
H769 H 0.85782 0.74004 0.53943 0.0
H770 H 0.81304 0.73801 0.489 0.0
H771 H 0.81222 0.7733 0.48567 0.0
H772 H 0.78541 0.75555 0.51659 0.0
H773 H 0.78079 0.78329 0.72574 0.0
H774 H 0.79253 0.82997 0.71468 0.0
H775 H 0.8293 0.813 0.55793 0.0
C776 C 0.8198 0.70865 0.60173 0.0
C777 C 0.81355 0.69125 0.6455 0.0
C778 C 0.79841 0.70049 0.69023 0.0
C779 C 0.79105 0.72699 0.69296 0.0
C780 C 0.79858 0.74386 0.65019 0.0
C781 C 0.8123 0.73493 0.60494 0.0
C782 C 0.82087 0.75736 0.56781 0.0
C783 C 0.85089 0.75784 0.56116 0.0
C784 C 0.80705 0.75597 0.51143 0.0
C785 C 0.81124 0.78052 0.60085 0.0
C786 C 0.798 0.7723 0.64776 0.0
C787 C 0.79035 0.78996 0.68836 0.0
C788 C 0.79711 0.81643 0.68176 0.0
C789 C 0.81124 0.82508 0.63481 0.0
C790 C 0.81757 0.80703 0.59303 0.0
H791 H 0.8162 0.20572 0.44519 0.0
H792 H 0.83391 0.21377 0.27119 0.0
H793 H 0.78772 0.22476 0.25175 0.0
H794 H 0.76214 0.17103 0.42788 0.0
H795 H 0.74304 0.18438 0.48354 0.0
H796 H 0.77812 0.18542 0.48694 0.0
H797 H 0.77691 0.23577 0.49931 0.0
H798 H 0.74161 0.23489 0.49667 0.0
H799 H 0.75951 0.2558 0.44985 0.0
H800 H 0.73896 0.22468 0.24805 0.0
H801 H 0.6922 0.21367 0.26086 0.0
H802 H 0.7057 0.20485 0.43709 0.0
C803 C 0.81054 0.21135 0.40363 0.0
C804 C 0.82857 0.20956 0.35984 0.0
C805 C 0.82036 0.21557 0.30535 0.0
C806 C 0.79417 0.22185 0.29396 0.0
C807 C 0.77638 0.22198 0.33755 0.0
C808 C 0.78428 0.21719 0.39153 0.0
C809 C 0.76085 0.21403 0.42928 0.0
C810 C 0.76106 0.18712 0.45856 0.0
C811 C 0.75965 0.23646 0.47125 0.0
C812 C 0.73871 0.21606 0.38765 0.0
C813 C 0.74796 0.22135 0.33521 0.0
C814 C 0.73139 0.22122 0.28917 0.0
C815 C 0.70483 0.21489 0.29678 0.0
C816 C 0.69521 0.20843 0.34993 0.0
C817 C 0.71232 0.20994 0.39593 0.0
H818 H 0.19437 0.31549 0.70622 0.0
H819 H 0.21731 0.33091 0.53702 0.0
H820 H 0.22776 0.28416 0.52462 0.0
H821 H 0.24126 0.25772 0.73307 0.0
H822 H 0.21639 0.24089 0.77236 0.0
H823 H 0.21802 0.27618 0.77304 0.0
H824 H 0.16952 0.2784 0.74157 0.0
H825 H 0.16781 0.24331 0.74016 0.0
H826 H 0.15973 0.26199 0.67903 0.0
H827 H 0.2264 0.23541 0.52388 0.0
H828 H 0.21351 0.18902 0.53549 0.0
H829 H 0.19091 0.20492 0.70475 0.0
C830 C 0.20294 0.30916 0.66765 0.0
C831 C 0.2055 0.32675 0.62289 0.0
C832 C 0.21556 0.31769 0.57201 0.0
C833 C 0.22161 0.29118 0.56464 0.0
C834 C 0.21751 0.27394 0.60859 0.0
C835 C 0.20869 0.2826 0.65942 0.0
C836 C 0.20187 0.25974 0.69687 0.0
C837 C 0.22051 0.25856 0.74679 0.0
C838 C 0.17303 0.26095 0.71543 0.0
C839 C 0.20664 0.23707 0.65807 0.0
C840 C 0.2163 0.24555 0.60782 0.0
C841 C 0.21949 0.22842 0.56354 0.0
C842 C 0.21206 0.20209 0.57042 0.0
C843 C 0.20125 0.19326 0.621 0.0
C844 C 0.19936 0.21092 0.66569 0.0
H845 H 0.20427 0.82729 0.49306 0.0
H846 H 0.18757 0.78945 0.33733 0.0
H847 H 0.23434 0.77818 0.32728 0.0
H848 H 0.25697 0.85929 0.44833 0.0
H849 H 0.27632 0.85742 0.51063 0.0
H850 H 0.24129 0.85554 0.51459 0.0
H851 H 0.24453 0.81107 0.56627 0.0
H852 H 0.27977 0.81293 0.56304 0.0
H853 H 0.26296 0.78464 0.53628 0.0
H854 H 0.28317 0.77894 0.32455 0.0
H855 H 0.32954 0.79282 0.32821 0.0
H856 H 0.31481 0.83181 0.48388 0.0
C857 C 0.21036 0.81536 0.45854 0.0
C858 C 0.19238 0.80859 0.41669 0.0
C859 C 0.20109 0.79428 0.37034 0.0
C860 C 0.2276 0.78778 0.36436 0.0
C861 C 0.2452 0.79588 0.40496 0.0
C862 C 0.23691 0.80923 0.45144 0.0
C863 C 0.26001 0.81973 0.48392 0.0
C864 C 0.25855 0.84976 0.48963 0.0
C865 C 0.26193 0.80628 0.54075 0.0
C866 C 0.28239 0.81156 0.44686 0.0
C867 C 0.27358 0.79717 0.40237 0.0
C868 C 0.2904 0.78967 0.35988 0.0
C869 C 0.31673 0.79766 0.36224 0.0
C870 C 0.32583 0.81338 0.4063 0.0
C871 C 0.30852 0.81963 0.44983 0.0
H872 H 0.19424 0.10935 0.86411 0.0
H873 H 0.23417 0.08311 0.71647 0.0
H874 H 0.27509 0.07799 0.76999 0.0
H875 H 0.24455 0.14679 0.91777 0.0
H876 H 0.23936 0.13819 0.98924 0.0
H877 H 0.21248 0.13698 0.94112 0.0
H878 H 0.20405 0.08839 0.96689 0.0
H879 H 0.23082 0.08951 1.01558 0.0
H880 H 0.23043 0.06505 0.96215 0.0
H881 H 0.31349 0.0834 0.83603 0.0
H882 H 0.34454 0.09317 0.91235 0.0
H883 H 0.27929 0.11142 0.01925 0.0
C884 C 0.21138 0.10178 0.84337 0.0
C885 C 0.21084 0.09652 0.78595 0.0
C886 C 0.23388 0.087 0.76041 0.0
C887 C 0.25734 0.08414 0.79049 0.0
C888 C 0.25743 0.09032 0.84656 0.0
C889 C 0.23487 0.09832 0.87309 0.0
C890 C 0.24043 0.1046 0.93326 0.0
C891 C 0.23382 0.13334 0.94606 0.0
C892 C 0.22555 0.08576 0.97175 0.0
C893 C 0.26976 0.09976 0.93596 0.0
C894 C 0.27927 0.09169 0.88541 0.0
C895 C 0.30615 0.08888 0.87623 0.0
C896 C 0.32367 0.09446 0.91969 0.0
C897 C 0.31424 0.10216 0.97202 0.0
C898 C 0.28693 0.10453 0.98023 0.0
H899 H 0.105 0.81658 0.17839 0.0
H900 H 0.07819 0.77697 0.32686 0.0
H901 H 0.07191 0.73629 0.27378 0.0
H902 H 0.05973 0.78122 0.08097 0.0
H903 H 0.08419 0.7805 0.02743 0.0
H904 H 0.08348 0.80726 0.07569 0.0
H905 H 0.13192 0.79815 0.10132 0.0
H906 H 0.13273 0.77127 0.05365 0.0
H907 H 0.14123 0.76594 0.12517 0.0
H908 H 0.07669 0.69792 0.20844 0.0
H909 H 0.08648 0.66671 0.133 0.0
H910 H 0.10575 0.73169 0.02478 0.0
C911 C 0.09701 0.79959 0.19938 0.0
C912 C 0.09198 0.80011 0.2569 0.0
C913 C 0.08191 0.77726 0.28283 0.0
C914 C 0.07839 0.75396 0.253 0.0
C915 C 0.08443 0.75384 0.19682 0.0
C916 C 0.09289 0.77627 0.16993 0.0
C917 C 0.0991 0.77065 0.10983 0.0
C918 C 0.08051 0.78581 0.0712 0.0
C919 C 0.12795 0.77687 0.09677 0.0
C920 C 0.09379 0.7414 0.10764 0.0
C921 C 0.08546 0.73201 0.15833 0.0
C922 C 0.08234 0.70518 0.1681 0.0
C923 C 0.08795 0.68757 0.12514 0.0
C924 C 0.09599 0.69686 0.07271 0.0
C925 C 0.09857 0.72415 0.06383 0.0
H926 H 0.69217 0.91384 0.91925 0.0
H927 H 0.73099 0.94607 0.06336 0.0
H928 H 0.77115 0.95282 1.00861 0.0
H929 H 0.74413 0.87844 0.86986 0.0
H930 H 0.73835 0.88469 0.79748 0.0
H931 H 0.71153 0.88573 0.84541 0.0
H932 H 0.70037 0.93297 0.8137 0.0
H933 H 0.72707 0.932 0.76512 0.0
H934 H 0.72541 0.95788 0.81537 0.0
H935 H 0.80948 0.94805 0.94324 0.0
H936 H 0.84098 0.93739 0.86878 0.0
H937 H 0.77682 0.91228 0.76446 0.0
C938 C 0.70882 0.92314 0.93885 0.0
C939 C 0.70826 0.92953 0.99573 0.0
C940 C 0.7307 0.94125 0.01984 0.0
C941 C 0.75373 0.94507 0.98905 0.0
C942 C 0.75395 0.93762 0.93369 0.0
C943 C 0.73186 0.9275 0.9084 0.0
C944 C 0.73765 0.91984 0.84912 0.0
C945 C 0.73262 0.89044 0.83997 0.0
C946 C 0.72168 0.93668 0.80842 0.0
C947 C 0.76665 0.92627 0.84567 0.0
C948 C 0.77573 0.93644 0.89498 0.0
C949 C 0.80242 0.94095 0.90386 0.0
C950 C 0.8202 0.93485 0.86147 0.0
C951 C 0.8112 0.9249 0.81043 0.0
C952 C 0.78406 0.92091 0.80233 0.0
H953 H 0.91628 0.23205 0.27012 0.0
H954 H 0.94194 0.16881 0.16492 0.0
H955 H 0.95149 0.20086 0.09016 0.0
H956 H 0.88113 0.26394 0.16665 0.0
H957 H 0.88768 0.2967 0.19049 0.0
H958 H 0.88787 0.26976 0.2387 0.0
H959 H 0.93499 0.28199 0.26903 0.0
H960 H 0.93494 0.30904 0.22081 0.0
H961 H 0.96045 0.2847 0.21781 0.0
H962 H 0.95507 0.23974 0.02446 0.0
H963 H 0.94758 0.28022 0.97039 0.0
H964 H 0.91555 0.31756 0.11589 0.0
C965 C 0.92489 0.22512 0.23205 0.0
C966 C 0.92929 0.19804 0.22389 0.0
C967 C 0.93911 0.18951 0.17244 0.0
C968 C 0.94456 0.20761 0.12982 0.0
C969 C 0.93956 0.23417 0.1388 0.0
C970 C 0.92965 0.24285 0.18857 0.0
C971 C 0.9225 0.27171 0.18529 0.0
C972 C 0.89306 0.27575 0.19589 0.0
C973 C 0.93922 0.28781 0.22564 0.0
C974 C 0.92956 0.27791 0.12572 0.0
C975 C 0.93994 0.25616 0.09999 0.0
C976 C 0.94712 0.25689 0.04441 0.0
C977 C 0.94289 0.2801 1.01401 0.0
C978 C 0.93109 0.30227 0.03873 0.0
C979 C 0.92488 0.30116 0.09575 0.0
H980 H 0.19808 0.41423 0.39613 0.0
H981 H 0.23584 0.44364 0.54413 0.0
H982 H 0.27682 0.45012 0.49196 0.0
H983 H 0.25044 0.37844 0.34673 0.0
H984 H 0.2454 0.3859 0.2746 0.0
H985 H 0.21815 0.38647 0.32153 0.0
H986 H 0.20779 0.43428 0.29258 0.0
H987 H 0.23495 0.43379 0.24513 0.0
H988 H 0.23306 0.45887 0.29711 0.0
H989 H 0.31584 0.44611 0.42757 0.0
H990 H 0.3479 0.43681 0.35338 0.0
H991 H 0.28443 0.41392 0.24483 0.0
C992 C 0.21471 0.42279 0.41721 0.0
C993 C 0.21352 0.42855 0.47441 0.0
C994 C 0.23599 0.43932 0.50038 0.0
C995 C 0.2595 0.44297 0.47104 0.0
C996 C 0.26026 0.43627 0.41525 0.0
C997 C 0.23826 0.42696 0.38825 0.0
C998 C 0.24459 0.4202 0.32867 0.0
C999 C 0.23934 0.39103 0.31725 0.0
C1000 C 0.22918 0.43784 0.2885 0.0
C1001 C 0.27371 0.42635 0.32686 0.0
C1002 C 0.28243 0.43548 0.37733 0.0
C1003 C 0.30907 0.43974 0.38742 0.0
C1004 C 0.32718 0.43441 0.34511 0.0
C1005 C 0.31861 0.42547 0.29286 0.0
C1006 C 0.29145 0.42176 0.28364 0.0
H1007 H 0.41143 0.7859 0.50985 0.0
H1008 H 0.43718 0.84906 0.61564 0.0
H1009 H 0.44612 0.81701 0.69081 0.0
H1010 H 0.37577 0.75382 0.61299 0.0
H1011 H 0.38241 0.72111 0.58912 0.0
H1012 H 0.38262 0.7481 0.54102 0.0
H1013 H 0.42979 0.73603 0.51143 0.0
H1014 H 0.42972 0.70894 0.55955 0.0
H1015 H 0.45518 0.73336 0.56308 0.0
H1016 H 0.44964 0.77809 0.7564 0.0
H1017 H 0.44262 0.7374 0.80997 0.0
H1018 H 0.41053 0.70012 0.66403 0.0
C1019 C 0.41983 0.79282 0.54825 0.0
C1020 C 0.42445 0.81988 0.55643 0.0
C1021 C 0.4341 0.82838 0.60817 0.0
C1022 C 0.43923 0.81029 0.65102 0.0
C1023 C 0.43407 0.78375 0.64195 0.0
C1024 C 0.42428 0.7751 0.59195 0.0
C1025 C 0.41717 0.74621 0.595 0.0
C1026 C 0.38775 0.74208 0.58389 0.0
C1027 C 0.43397 0.73019 0.55488 0.0
C1028 C 0.42416 0.73996 0.65468 0.0
C1029 C 0.43444 0.76173 0.68068 0.0
C1030 C 0.44173 0.76093 0.73627 0.0
C1031 C 0.43776 0.7376 0.76639 0.0
C1032 C 0.42612 0.71537 0.74139 0.0
C1033 C 0.41971 0.71659 0.68439 0.0
H1034 H 0.70062 0.60873 0.38698 0.0
H1035 H 0.73814 0.57912 0.23935 0.0
H1036 H 0.77874 0.57133 0.29246 0.0
H1037 H 0.75386 0.64278 0.43914 0.0
H1038 H 0.74823 0.63494 0.51084 0.0
H1039 H 0.72121 0.63549 0.463 0.0
H1040 H 0.70931 0.5878 0.49011 0.0
H1041 H 0.73625 0.58715 0.53839 0.0
H1042 H 0.73385 0.56253 0.48552 0.0
H1043 H 0.81754 0.57388 0.35796 0.0
H1044 H 0.84955 0.5819 0.43331 0.0
H1045 H 0.78629 0.60573 0.5407 0.0
C1046 C 0.71713 0.59992 0.36615 0.0
C1047 C 0.71602 0.59446 0.30883 0.0
C1048 C 0.73828 0.58327 0.28318 0.0
C1049 C 0.76155 0.57884 0.31305 0.0
C1050 C 0.76225 0.58518 0.36902 0.0
C1051 C 0.74043 0.59494 0.39564 0.0
C1052 C 0.74666 0.60108 0.45561 0.0
C1053 C 0.74223 0.6303 0.46783 0.0
C1054 C 0.73056 0.58359 0.49472 0.0
C1055 C 0.77557 0.59409 0.45807 0.0
C1056 C 0.78425 0.58506 0.4076 0.0
C1057 C 0.81079 0.58015 0.39811 0.0
C1058 C 0.82886 0.58474 0.44107 0.0
C1059 C 0.82031 0.59358 0.49329 0.0
C1060 C 0.79325 0.59792 0.50189 0.0
H1061 H 0.63135 0.24428 0.50775 0.0
H1062 H 0.57157 0.19442 0.57897 0.0
H1063 H 0.56181 0.22868 0.64858 0.0
H1064 H 0.65639 0.26802 0.63277 0.0
H1065 H 0.66296 0.30066 0.60753 0.0
H1066 H 0.66295 0.27352 0.56045 0.0
H1067 H 0.6282 0.29705 0.49981 0.0
H1068 H 0.62803 0.32427 0.54694 0.0
H1069 H 0.59789 0.3076 0.53054 0.0
H1070 H 0.56119 0.26739 0.71459 0.0
H1071 H 0.57092 0.30551 0.7736 0.0
H1072 H 0.63153 0.33006 0.65911 0.0
C1073 C 0.61584 0.24089 0.53742 0.0
C1074 C 0.60186 0.217 0.5378 0.0
C1075 C 0.58216 0.21281 0.57778 0.0
C1076 C 0.57653 0.23217 0.6173 0.0
C1077 C 0.59079 0.25557 0.61611 0.0
C1078 C 0.61006 0.25997 0.57708 0.0
C1079 C 0.62382 0.28591 0.58683 0.0
C1080 C 0.65327 0.28177 0.59755 0.0
C1081 C 0.6192 0.30482 0.53813 0.0
C1082 C 0.60984 0.2952 0.63835 0.0
C1083 C 0.5906 0.27762 0.65418 0.0
C1084 C 0.576 0.28138 0.70212 0.0
C1085 C 0.58164 0.30321 0.73537 0.0
C1086 C 0.60184 0.32105 0.72093 0.0
C1087 C 0.61565 0.31715 0.67097 0.0
loop_
_geom_bond_atom_site_label_1
_geom_bond_atom_site_label_2
_geom_bond_distance
_geom_bond_site_symmetry_2
_ccdc_geom_bond_type
O0 Cd1 2.223 . S
O0 C8 1.315 . S
Cd1 O0 2.223 . S
Cd1 O4 2.297 . S
Cd1 O5 2.439 . S
Cd1 O11 2.240 . S
Cd2 O3 2.240 . S
Cd2 O10 2.223 . S
Cd2 O12 2.297 . S
Cd2 O13 2.439 . S
O3 Cd2 2.240 . S
O3 C8 1.279 . S
O4 Cd1 2.297 . S
O4 C6 1.247 . S
O5 Cd1 2.439 . S
O5 C6 1.208 . S
C6 O4 1.247 . S
C6 O5 1.208 . S
C7 O12 1.247 . S
C7 O13 1.208 . S
C8 O0 1.315 . S
C8 O3 1.279 . S
C9 O10 1.315 . S
C9 O11 1.279 . S
O10 Cd2 2.223 . S
O10 C9 1.315 . S
O11 Cd1 2.240 . S
O11 C9 1.279 . S
O12 Cd2 2.297 . S
O12 C7 1.247 . S
O13 Cd2 2.439 . S
O13 C7 1.208 . S
O14 Cd15 2.223 . S
O14 C22 1.315 . S
Cd15 O14 2.223 . S
Cd15 O18 2.297 . S
Cd15 O19 2.439 . S
Cd15 O25 2.240 . S
Cd16 O17 2.240 . S
Cd16 O24 2.223 . S
Cd16 O26 2.297 . S
Cd16 O27 2.439 . S
O17 Cd16 2.240 . S
O17 C22 1.279 . S
O18 Cd15 2.297 . S
O18 C20 1.247 . S
O19 Cd15 2.439 . S
O19 C20 1.208 . S
C20 O18 1.247 . S
C20 O19 1.208 . S
C21 O26 1.247 . S
C21 O27 1.208 . S
C22 O14 1.315 . S
C22 O17 1.279 . S
C23 O24 1.315 . S
C23 O25 1.279 . S
O24 Cd16 2.223 . S
O24 C23 1.315 . S
O25 Cd15 2.240 . S
O25 C23 1.279 . S
O26 Cd16 2.297 . S
O26 C21 1.247 . S
O27 Cd16 2.439 . S
O27 C21 1.208 . S
O28 Cd29 2.223 . S
O28 C36 1.315 . S
Cd29 O28 2.223 . S
Cd29 O32 2.297 . S
Cd29 O33 2.439 . S
Cd29 O39 2.240 . S
Cd30 O31 2.240 . S
Cd30 O38 2.223 . S
Cd30 O40 2.297 . S
Cd30 O41 2.439 . S
O31 Cd30 2.240 . S
O31 C36 1.279 . S
O32 Cd29 2.297 . S
O32 C34 1.247 . S
O33 Cd29 2.439 . S
O33 C34 1.208 . S
C34 O32 1.247 . S
C34 O33 1.208 . S
C35 O40 1.247 . S
C35 O41 1.208 . S
C36 O28 1.315 . S
C36 O31 1.279 . S
C37 O38 1.315 . S
C37 O39 1.279 . S
O38 Cd30 2.223 . S
O38 C37 1.315 . S
O39 Cd29 2.240 . S
O39 C37 1.279 . S
O40 Cd30 2.297 . S
O40 C35 1.247 . S
O41 Cd30 2.439 . S
O41 C35 1.208 . S
O42 Cd43 2.223 . S
O42 C50 1.315 . S
Cd43 O42 2.223 . S
Cd43 O46 2.297 . S
Cd43 O47 2.439 . S
Cd43 O53 2.240 . S
Cd44 O45 2.240 . S
Cd44 O52 2.223 . S
Cd44 O54 2.297 . S
Cd44 O55 2.439 . S
O45 Cd44 2.240 . S
O45 C50 1.279 . S
O46 Cd43 2.297 . S
O46 C48 1.247 . S
O47 Cd43 2.439 . S
O47 C48 1.208 . S
C48 O46 1.247 . S
C48 O47 1.208 . S
C49 O54 1.247 . S
C49 O55 1.208 . S
C50 O42 1.315 . S
C50 O45 1.279 . S
C51 O52 1.315 . S
C51 O53 1.279 . S
O52 Cd44 2.223 . S
O52 C51 1.315 . S
O53 Cd43 2.240 . S
O53 C51 1.279 . S
O54 Cd44 2.297 . S
O54 C49 1.247 . S
O55 Cd44 2.439 . S
O55 C49 1.208 . S
O56 Cd57 2.223 . S
O56 C64 1.315 . S
Cd57 O56 2.223 . S
Cd57 O60 2.297 . S
Cd57 O61 2.439 . S
Cd57 O67 2.240 . S
Cd58 O59 2.240 . S
Cd58 O66 2.223 . S
Cd58 O68 2.297 1_554 S
Cd58 O69 2.439 . S
O59 Cd58 2.240 . S
O59 C64 1.279 . S
O60 Cd57 2.297 . S
O60 C62 1.247 . S
O61 Cd57 2.439 . S
O61 C62 1.208 . S
C62 O60 1.247 . S
C62 O61 1.208 . S
C63 O68 1.247 1_554 S
C63 O69 1.208 . S
C64 O56 1.315 . S
C64 O59 1.279 . S
C65 O66 1.315 . S
C65 O67 1.279 . S
O66 Cd58 2.223 . S
O66 C65 1.315 . S
O67 Cd57 2.240 . S
O67 C65 1.279 . S
O68 Cd58 2.297 1_556 S
O68 C63 1.247 1_556 S
O69 Cd58 2.439 . S
O69 C63 1.208 . S
O70 Cd71 2.223 . S
O70 C78 1.315 . S
Cd71 O70 2.223 . S
Cd71 O74 2.297 . S
Cd71 O75 2.439 . S
Cd71 O81 2.240 . S
Cd72 O73 2.240 . S
Cd72 O80 2.223 . S
Cd72 O82 2.297 1_556 S
Cd72 O83 2.439 . S
O73 Cd72 2.240 . S
O73 C78 1.279 . S
O74 Cd71 2.297 . S
O74 C76 1.247 . S
O75 Cd71 2.439 . S
O75 C76 1.208 . S
C76 O74 1.247 . S
C76 O75 1.208 . S
C77 O82 1.247 1_556 S
C77 O83 1.208 . S
C78 O70 1.315 . S
C78 O73 1.279 . S
C79 O80 1.315 . S
C79 O81 1.279 . S
O80 Cd72 2.223 . S
O80 C79 1.315 . S
O81 Cd71 2.240 . S
O81 C79 1.279 . S
O82 Cd72 2.297 1_554 S
O82 C77 1.247 1_554 S
O83 Cd72 2.439 . S
O83 C77 1.208 . S
O84 Cd85 2.223 . S
O84 C92 1.315 . S
Cd85 O84 2.223 . S
Cd85 O88 2.297 . S
Cd85 O89 2.439 . S
Cd85 O95 2.240 . S
Cd86 O87 2.240 . S
Cd86 O94 2.223 . S
Cd86 O96 2.297 1_554 S
Cd86 O97 2.439 . S
O87 Cd86 2.240 . S
O87 C92 1.279 . S
O88 Cd85 2.297 . S
O88 C90 1.247 . S
O89 Cd85 2.439 . S
O89 C90 1.208 . S
C90 O88 1.247 . S
C90 O89 1.208 . S
C91 O96 1.247 1_554 S
C91 O97 1.208 . S
C92 O84 1.315 . S
C92 O87 1.279 . S
C93 O94 1.315 . S
C93 O95 1.279 . S
O94 Cd86 2.223 . S
O94 C93 1.315 . S
O95 Cd85 2.240 . S
O95 C93 1.279 . S
O96 Cd86 2.297 1_556 S
O96 C91 1.247 1_556 S
O97 Cd86 2.439 . S
O97 C91 1.208 . S
O98 Cd99 2.223 . S
O98 C106 1.315 . S
Cd99 O98 2.223 . S
Cd99 O102 2.297 . S
Cd99 O103 2.439 . S
Cd99 O109 2.240 . S
Cd100 O101 2.240 . S
Cd100 O108 2.223 . S
Cd100 O110 2.297 1_556 S
Cd100 O111 2.439 . S
O101 Cd100 2.240 . S
O101 C106 1.279 . S
O102 Cd99 2.297 . S
O102 C104 1.247 . S
O103 Cd99 2.439 . S
O103 C104 1.208 . S
C104 O102 1.247 . S
C104 O103 1.208 . S
C105 O110 1.247 1_556 S
C105 O111 1.208 . S
C106 O98 1.315 . S
C106 O101 1.279 . S
C107 O108 1.315 . S
C107 O109 1.279 . S
O108 Cd100 2.223 . S
O108 C107 1.315 . S
O109 Cd99 2.240 . S
O109 C107 1.279 . S
O110 Cd100 2.297 1_554 S
O110 C105 1.247 1_554 S
O111 Cd100 2.439 . S
O111 C105 1.208 . S
O112 Cd113 2.223 . S
O112 C120 1.315 . S
Cd113 O112 2.223 . S
Cd113 O116 2.297 . S
Cd113 O117 2.439 . S
Cd113 O123 2.240 . S
Cd114 O115 2.240 . S
Cd114 O122 2.223 . S
Cd114 O124 2.297 . S
Cd114 O125 2.439 . S
O115 Cd114 2.240 . S
O115 C120 1.279 . S
O116 Cd113 2.297 . S
O116 C118 1.247 . S
O117 Cd113 2.439 . S
O117 C118 1.208 . S
C118 O116 1.247 . S
C118 O117 1.208 . S
C119 O124 1.247 . S
C119 O125 1.208 . S
C120 O112 1.315 . S
C120 O115 1.279 . S
C121 O122 1.315 . S
C121 O123 1.279 . S
O122 Cd114 2.223 . S
O122 C121 1.315 . S
O123 Cd113 2.240 . S
O123 C121 1.279 . S
O124 Cd114 2.297 . S
O124 C119 1.247 . S
O125 Cd114 2.439 . S
O125 C119 1.208 . S
O126 Cd127 2.223 . S
O126 C134 1.315 . S
Cd127 O126 2.223 . S
Cd127 O130 2.297 . S
Cd127 O131 2.439 . S
Cd127 O137 2.240 . S
Cd128 O129 2.240 . S
Cd128 O136 2.223 . S
Cd128 O138 2.297 . S
Cd128 O139 2.439 . S
O129 Cd128 2.240 . S
O129 C134 1.279 . S
O130 Cd127 2.297 . S
O130 C132 1.247 . S
O131 Cd127 2.439 . S
O131 C132 1.208 . S
C132 O130 1.247 . S
C132 O131 1.208 . S
C133 O138 1.247 . S
C133 O139 1.208 . S
C134 O126 1.315 . S
C134 O129 1.279 . S
C135 O136 1.315 . S
C135 O137 1.279 . S
O136 Cd128 2.223 . S
O136 C135 1.315 . S
O137 Cd127 2.240 . S
O137 C135 1.279 . S
O138 Cd128 2.297 . S
O138 C133 1.247 . S
O139 Cd128 2.439 . S
O139 C133 1.208 . S
O140 Cd141 2.223 . S
O140 C148 1.315 . S
Cd141 O140 2.223 . S
Cd141 O144 2.297 . S
Cd141 O145 2.439 . S
Cd141 O151 2.240 . S
Cd142 O143 2.240 . S
Cd142 O150 2.223 . S
Cd142 O152 2.297 . S
Cd142 O153 2.439 . S
O143 Cd142 2.240 . S
O143 C148 1.279 . S
O144 Cd141 2.297 . S
O144 C146 1.247 . S
O145 Cd141 2.439 . S
O145 C146 1.208 . S
C146 O144 1.247 . S
C146 O145 1.208 . S
C147 O152 1.247 . S
C147 O153 1.208 . S
C148 O140 1.315 . S
C148 O143 1.279 . S
C149 O150 1.315 . S
C149 O151 1.279 . S
O150 Cd142 2.223 . S
O150 C149 1.315 . S
O151 Cd141 2.240 . S
O151 C149 1.279 . S
O152 Cd142 2.297 . S
O152 C147 1.247 . S
O153 Cd142 2.439 . S
O153 C147 1.208 . S
O154 Cd155 2.223 . S
O154 C162 1.315 . S
Cd155 O154 2.223 . S
Cd155 O158 2.297 . S
Cd155 O159 2.439 . S
Cd155 O165 2.240 . S
Cd156 O157 2.240 . S
Cd156 O164 2.223 . S
Cd156 O166 2.297 . S
Cd156 O167 2.439 . S
O157 Cd156 2.240 . S
O157 C162 1.279 . S
O158 Cd155 2.297 . S
O158 C160 1.247 . S
O159 Cd155 2.439 . S
O159 C160 1.208 . S
C160 O158 1.247 . S
C160 O159 1.208 . S
C161 O166 1.247 . S
C161 O167 1.208 . S
C162 O154 1.315 . S
C162 O157 1.279 . S
C163 O164 1.315 . S
C163 O165 1.279 . S
O164 Cd156 2.223 . S
O164 C163 1.315 . S
O165 Cd155 2.240 . S
O165 C163 1.279 . S
O166 Cd156 2.297 . S
O166 C161 1.247 . S
O167 Cd156 2.439 . S
O167 C161 1.208 . S
O168 Cd169 2.223 . S
O168 C176 1.315 . S
Cd169 O168 2.223 . S
Cd169 O172 2.297 . S
Cd169 O173 2.439 . S
Cd169 O179 2.240 . S
Cd170 O171 2.240 . S
Cd170 O178 2.223 . S
Cd170 O180 2.297 . S
Cd170 O181 2.439 . S
O171 Cd170 2.240 . S
O171 C176 1.279 . S
O172 Cd169 2.297 . S
O172 C174 1.247 . S
O173 Cd169 2.439 . S
O173 C174 1.208 . S
C174 O172 1.247 . S
C174 O173 1.208 . S
C175 O180 1.247 . S
C175 O181 1.208 . S
C176 O168 1.315 . S
C176 O171 1.279 . S
C177 O178 1.315 . S
C177 O179 1.279 . S
O178 Cd170 2.223 . S
O178 C177 1.315 . S
O179 Cd169 2.240 . S
O179 C177 1.279 . S
O180 Cd170 2.297 . S
O180 C175 1.247 . S
O181 Cd170 2.439 . S
O181 C175 1.208 . S
O182 Cd183 2.223 . S
O182 C190 1.315 . S
Cd183 O182 2.223 . S
Cd183 O186 2.297 . S
Cd183 O187 2.439 . S
Cd183 O193 2.240 . S
Cd184 O185 2.240 . S
Cd184 O192 2.223 . S
Cd184 O194 2.297 . S
Cd184 O195 2.439 . S
O185 Cd184 2.240 . S
O185 C190 1.279 . S
O186 Cd183 2.297 . S
O186 C188 1.247 . S
O187 Cd183 2.439 . S
O187 C188 1.208 . S
C188 O186 1.247 . S
C188 O187 1.208 . S
C189 O194 1.247 . S
C189 O195 1.208 . S
C190 O182 1.315 . S
C190 O185 1.279 . S
C191 O192 1.315 . S
C191 O193 1.279 . S
O192 Cd184 2.223 . S
O192 C191 1.315 . S
O193 Cd183 2.240 . S
O193 C191 1.279 . S
O194 Cd184 2.297 . S
O194 C189 1.247 . S
O195 Cd184 2.439 . S
O195 C189 1.208 . S
O196 Cd197 2.223 . S
O196 C204 1.315 . S
Cd197 O196 2.223 . S
Cd197 O200 2.297 . S
Cd197 O201 2.439 . S
Cd197 O207 2.240 . S
Cd198 O199 2.240 . S
Cd198 O206 2.223 . S
Cd198 O208 2.297 . S
Cd198 O209 2.439 . S
O199 Cd198 2.240 . S
O199 C204 1.279 . S
O200 Cd197 2.297 . S
O200 C202 1.247 . S
O201 Cd197 2.439 . S
O201 C202 1.208 . S
C202 O200 1.247 . S
C202 O201 1.208 . S
C203 O208 1.247 . S
C203 O209 1.208 . S
C204 O196 1.315 . S
C204 O199 1.279 . S
C205 O206 1.315 . S
C205 O207 1.279 . S
O206 Cd198 2.223 . S
O206 C205 1.315 . S
O207 Cd197 2.240 . S
O207 C205 1.279 . S
O208 Cd198 2.297 . S
O208 C203 1.247 . S
O209 Cd198 2.439 . S
O209 C203 1.208 . S
O210 Cd211 2.223 . S
O210 C218 1.315 . S
Cd211 O210 2.223 . S
Cd211 O214 2.297 . S
Cd211 O215 2.439 . S
Cd211 O221 2.240 . S
Cd212 O213 2.240 . S
Cd212 O220 2.223 . S
Cd212 O222 2.297 . S
Cd212 O223 2.439 . S
O213 Cd212 2.240 . S
O213 C218 1.279 . S
O214 Cd211 2.297 . S
O214 C216 1.247 . S
O215 Cd211 2.439 . S
O215 C216 1.208 . S
C216 O214 1.247 . S
C216 O215 1.208 . S
C217 O222 1.247 . S
C217 O223 1.208 . S
C218 O210 1.315 . S
C218 O213 1.279 . S
C219 O220 1.315 . S
C219 O221 1.279 . S
O220 Cd212 2.223 . S
O220 C219 1.315 . S
O221 Cd211 2.240 . S
O221 C219 1.279 . S
O222 Cd212 2.297 . S
O222 C217 1.247 . S
O223 Cd212 2.439 . S
O223 C217 1.208 . S
H224 C236 0.930 . S
H225 C238 0.930 . S
H226 C239 0.930 . S
H227 C243 0.959 . S
H228 C243 0.959 . S
H229 C243 0.961 . S
H230 C244 0.960 . S
H231 C244 0.961 1_545 S
H232 C244 0.959 . S
H233 C247 0.929 . S
H234 C248 0.931 . S
H235 C250 0.930 . S
C236 H224 0.930 . S
C236 C237 1.399 . S
C236 C241 1.399 . S
C237 C236 1.399 . S
C237 C238 1.376 . S
C238 H225 0.930 . S
C238 C237 1.376 . S
C238 C239 1.388 . S
C239 H226 0.930 . S
C239 C238 1.388 . S
C239 C240 1.390 . S
C240 C239 1.390 . S
C240 C241 1.394 . S
C240 C246 1.465 . S
C241 C236 1.399 . S
C241 C240 1.394 . S
C241 C242 1.516 . S
C242 C241 1.516 . S
C242 C243 1.502 . S
C242 C244 1.561 . S
C242 C245 1.526 . S
C243 H227 0.959 . S
C243 H228 0.959 . S
C243 H229 0.961 . S
C243 C242 1.502 . S
C244 H230 0.960 . S
C244 H231 0.961 1_565 S
C244 H232 0.959 . S
C244 C242 1.561 . S
C245 C242 1.526 . S
C245 C246 1.396 . S
C245 C250 1.390 1_565 S
C246 C240 1.465 . S
C246 C245 1.396 . S
C246 C247 1.399 . S
C247 H233 0.929 . S
C247 C246 1.399 . S
C247 C248 1.385 1_565 S
C248 H234 0.931 . S
C248 C247 1.385 1_545 S
C248 C249 1.389 . S
C249 C248 1.389 . S
C249 C250 1.387 . S
C250 H235 0.930 . S
C250 C245 1.390 1_545 S
C250 C249 1.387 . S
H251 C263 0.930 . S
H252 C265 0.930 . S
H253 C266 0.930 . S
H254 C270 0.959 . S
H255 C270 0.959 . S
H256 C270 0.961 . S
H257 C271 0.960 1_455 S
H258 C271 0.961 . S
H259 C271 0.959 . S
H260 C274 0.929 . S
H261 C275 0.931 . S
H262 C277 0.930 . S
C263 H251 0.930 . S
C263 C264 1.399 . S
C263 C268 1.399 1_455 S
C264 C263 1.399 . S
C264 C265 1.376 . S
C265 H252 0.930 . S
C265 C264 1.376 . S
C265 C266 1.388 1_455 S
C266 H253 0.930 . S
C266 C265 1.388 1_655 S
C266 C267 1.390 . S
C267 C266 1.390 . S
C267 C268 1.394 . S
C267 C273 1.465 . S
C268 C263 1.399 1_655 S
C268 C267 1.394 . S
C268 C269 1.516 . S
C269 C268 1.516 . S
C269 C270 1.502 . S
C269 C271 1.561 . S
C269 C272 1.526 . S
C270 H254 0.959 . S
C270 H255 0.959 . S
C270 H256 0.961 . S
C270 C269 1.502 . S
C271 H257 0.960 1_655 S
C271 H258 0.961 . S
C271 H259 0.959 . S
C271 C269 1.561 . S
C272 C269 1.526 . S
C272 C273 1.396 . S
C272 C277 1.390 . S
C273 C267 1.465 . S
C273 C272 1.396 . S
C273 C274 1.399 . S
C274 H260 0.929 . S
C274 C273 1.399 . S
C274 C275 1.385 . S
C275 H261 0.931 . S
C275 C274 1.385 . S
C275 C276 1.389 . S
C276 C275 1.389 . S
C276 C277 1.387 . S
C277 H262 0.930 . S
C277 C272 1.390 . S
C277 C276 1.387 . S
H278 C290 0.930 . S
H279 C292 0.930 . S
H280 C293 0.930 . S
H281 C297 0.959 . S
H282 C297 0.959 . S
H283 C297 0.961 . S
H284 C298 0.960 . S
H285 C298 0.961 . S
H286 C298 0.959 . S
H287 C301 0.929 . S
H288 C302 0.931 . S
H289 C304 0.930 . S
C290 H278 0.930 . S
C290 C291 1.399 . S
C290 C295 1.399 1_565 S
C291 C290 1.399 . S
C291 C292 1.376 . S
C292 H279 0.930 . S
C292 C291 1.376 . S
C292 C293 1.388 . S
C293 H280 0.930 . S
C293 C292 1.388 . S
C293 C294 1.390 1_565 S
C294 C293 1.390 1_545 S
C294 C295 1.394 . S
C294 C300 1.465 . S
C295 C290 1.399 1_545 S
C295 C294 1.394 . S
C295 C296 1.516 . S
C296 C295 1.516 . S
C296 C297 1.502 . S
C296 C298 1.561 . S
C296 C299 1.526 . S
C297 H281 0.959 . S
C297 H282 0.959 . S
C297 H283 0.961 . S
C297 C296 1.502 . S
C298 H284 0.960 . S
C298 H285 0.961 . S
C298 H286 0.959 . S
C298 C296 1.561 . S
C299 C296 1.526 . S
C299 C300 1.396 . S
C299 C304 1.390 . S
C300 C294 1.465 . S
C300 C299 1.396 . S
C300 C301 1.399 . S
C301 H287 0.929 . S
C301 C300 1.399 . S
C301 C302 1.385 . S
C302 H288 0.931 . S
C302 C301 1.385 . S
C302 C303 1.389 . S
C303 C302 1.389 . S
C303 C304 1.387 . S
C304 H289 0.930 . S
C304 C299 1.390 . S
C304 C303 1.387 . S
H305 C317 0.930 . S
H306 C319 0.930 . S
H307 C320 0.930 . S
H308 C324 0.959 . S
H309 C324 0.959 . S
H310 C324 0.961 . S
H311 C325 0.960 . S
H312 C325 0.990 . S
H313 C325 0.959 . S
H314 C328 0.929 1_455 S
H315 C329 0.931 . S
H316 C331 0.930 . S
C317 H305 0.930 . S
C317 C318 1.399 . S
C317 C322 1.399 . S
C318 C317 1.399 . S
C318 C319 1.376 . S
C319 H306 0.930 . S
C319 C318 1.376 . S
C319 C320 1.388 . S
C320 H307 0.930 . S
C320 C319 1.388 . S
C320 C321 1.390 . S
C321 C320 1.390 . S
C321 C322 1.394 . S
C321 C327 1.465 . S
C322 C317 1.399 . S
C322 C321 1.394 . S
C322 C323 1.516 . S
C323 C322 1.516 . S
C323 C324 1.502 . S
C323 C325 1.561 . S
C323 C326 1.526 . S
C324 H308 0.959 . S
C324 H309 0.959 . S
C324 H310 0.961 . S
C324 C323 1.502 . S
C325 H311 0.960 . S
C325 H312 0.990 . S
C325 H313 0.959 . S
C325 C323 1.561 . S
C326 C323 1.526 . S
C326 C327 1.396 . S
C326 C331 1.390 1_455 S
C327 C321 1.465 . S
C327 C326 1.396 . S
C327 C328 1.399 1_455 S
C328 H314 0.929 1_655 S
C328 C327 1.399 1_655 S
C328 C329 1.385 . S
C329 H315 0.931 . S
C329 C328 1.385 . S
C329 C330 1.389 . S
C330 C329 1.389 . S
C330 C331 1.387 . S
C331 H316 0.930 . S
C331 C326 1.390 1_655 S
C331 C330 1.387 . S
H332 C344 0.930 . S
H333 C346 0.930 . S
H334 C347 0.930 . S
H335 C351 0.959 . S
H336 C351 0.959 . S
H337 C351 0.961 . S
H338 C352 0.960 . S
H339 C352 0.961 . S
H340 C352 0.959 . S
H341 C355 0.929 . S
H342 C356 0.931 . S
H343 C358 0.930 1_554 S
C344 H332 0.930 . S
C344 C345 1.399 . S
C344 C349 1.399 . S
C345 C344 1.399 . S
C345 C346 1.376 1_554 S
C346 H333 0.930 . S
C346 C345 1.376 1_556 S
C346 C347 1.388 . S
C347 H334 0.930 . S
C347 C346 1.388 . S
C347 C348 1.390 . S
C348 C347 1.390 . S
C348 C349 1.394 1_556 S
C348 C354 1.465 . S
C349 C344 1.399 . S
C349 C348 1.394 1_554 S
C349 C350 1.516 . S
C350 C349 1.516 . S
C350 C351 1.502 . S
C350 C352 1.561 . S
C350 C353 1.526 1_554 S
C351 H335 0.959 . S
C351 H336 0.959 . S
C351 H337 0.961 . S
C351 C350 1.502 . S
C352 H338 0.960 . S
C352 H339 0.961 . S
C352 H340 0.959 . S
C352 C350 1.561 . S
C353 C350 1.526 1_556 S
C353 C354 1.396 . S
C353 C358 1.390 . S
C354 C348 1.465 . S
C354 C353 1.396 . S
C354 C355 1.399 . S
C355 H341 0.929 . S
C355 C354 1.399 . S
C355 C356 1.385 . S
C356 H342 0.931 . S
C356 C355 1.385 . S
C356 C357 1.389 . S
C357 C356 1.389 . S
C357 C358 1.387 . S
C358 H343 0.930 1_556 S
C358 C353 1.390 . S
C358 C357 1.387 . S
H359 C371 0.930 . S
H360 C373 0.930 . S
H361 C374 0.930 . S
H362 C378 0.959 1_554 S
H363 C378 0.959 . S
H364 C378 0.961 . S
H365 C379 0.960 . S
H366 C379 0.961 . S
H367 C379 0.959 . S
H368 C382 0.929 . S
H369 C383 0.931 . S
H370 C385 0.930 . S
C371 H359 0.930 . S
C371 C372 1.399 . S
C371 C376 1.399 . S
C372 C371 1.399 . S
C372 C373 1.376 1_556 S
C373 H360 0.930 . S
C373 C372 1.376 1_554 S
C373 C374 1.388 . S
C374 H361 0.930 . S
C374 C373 1.388 . S
C374 C375 1.390 . S
C375 C374 1.390 . S
C375 C376 1.394 1_554 S
C375 C381 1.465 . S
C376 C371 1.399 . S
C376 C375 1.394 1_556 S
C376 C377 1.516 . S
C377 C376 1.516 . S
C377 C378 1.502 . S
C377 C379 1.561 . S
C377 C380 1.526 1_556 S
C378 H362 0.959 1_556 S
C378 H363 0.959 . S
C378 H364 0.961 . S
C378 C377 1.502 . S
C379 H365 0.960 . S
C379 H366 0.961 . S
C379 H367 0.959 . S
C379 C377 1.561 . S
C380 C377 1.526 1_554 S
C380 C381 1.396 . S
C380 C385 1.390 . S
C381 C375 1.465 . S
C381 C380 1.396 . S
C381 C382 1.399 . S
C382 H368 0.929 . S
C382 C381 1.399 . S
C382 C383 1.385 . S
C383 H369 0.931 . S
C383 C382 1.385 . S
C383 C384 1.389 . S
C384 C383 1.389 . S
C384 C385 1.387 . S
C385 H370 0.930 . S
C385 C380 1.390 . S
C385 C384 1.387 . S
H386 C398 0.930 . S
H387 C400 0.930 1_554 S
H388 C401 0.930 . S
H389 C405 0.959 . S
H390 C405 0.959 . S
H391 C405 0.961 . S
H392 C406 0.960 . S
H393 C406 0.961 . S
H394 C406 0.959 . S
H395 C409 0.929 . S
H396 C410 0.931 . S
H397 C412 0.930 . S
C398 H386 0.930 . S
C398 C399 1.399 . S
C398 C403 1.399 . S
C399 C398 1.399 . S
C399 C400 1.376 . S
C400 H387 0.930 1_556 S
C400 C399 1.376 . S
C400 C401 1.388 1_556 S
C401 H388 0.930 . S
C401 C400 1.388 1_554 S
C401 C402 1.390 1_554 S
C402 C401 1.390 1_556 S
C402 C403 1.394 . S
C402 C408 1.465 1_556 S
C403 C398 1.399 . S
C403 C402 1.394 . S
C403 C404 1.516 . S
C404 C403 1.516 . S
C404 C405 1.502 . S
C404 C406 1.561 . S
C404 C407 1.526 . S
C405 H389 0.959 . S
C405 H390 0.959 . S
C405 H391 0.961 . S
C405 C404 1.502 . S
C406 H392 0.960 . S
C406 H393 0.961 . S
C406 H394 0.959 . S
C406 C404 1.561 . S
C407 C404 1.526 . S
C407 C408 1.396 1_556 S
C407 C412 1.390 . S
C408 C402 1.465 1_554 S
C408 C407 1.396 1_554 S
C408 C409 1.399 . S
C409 H395 0.929 . S
C409 C408 1.399 . S
C409 C410 1.385 . S
C410 H396 0.931 . S
C410 C409 1.385 . S
C410 C411 1.389 . S
C411 C410 1.389 . S
C411 C412 1.387 1_554 S
C412 H397 0.930 . S
C412 C407 1.390 . S
C412 C411 1.387 1_556 S
H413 C425 0.930 . S
H414 C427 0.930 1_556 S
H415 C428 0.930 . S
H416 C432 0.959 . S
H417 C432 0.959 . S
H418 C432 0.961 . S
H419 C433 0.960 . S
H420 C433 0.961 . S
H421 C433 0.959 . S
H422 C436 0.929 . S
H423 C437 0.931 . S
H424 C439 0.930 . S
C425 H413 0.930 . S
C425 C426 1.399 . S
C425 C430 1.399 . S
C426 C425 1.399 . S
C426 C427 1.376 . S
C427 H414 0.930 1_554 S
C427 C426 1.376 . S
C427 C428 1.388 1_554 S
C428 H415 0.930 . S
C428 C427 1.388 1_556 S
C428 C429 1.390 1_556 S
C429 C428 1.390 1_554 S
C429 C430 1.394 . S
C429 C435 1.465 1_554 S
C430 C425 1.399 . S
C430 C429 1.394 . S
C430 C431 1.516 . S
C431 C430 1.516 . S
C431 C432 1.502 . S
C431 C433 1.561 . S
C431 C434 1.526 . S
C432 H416 0.959 . S
C432 H417 0.959 . S
C432 H418 0.961 . S
C432 C431 1.502 . S
C433 H419 0.960 . S
C433 H420 0.961 . S
C433 H421 0.959 . S
C433 C431 1.561 . S
C434 C431 1.526 . S
C434 C435 1.396 1_554 S
C434 C439 1.390 . S
C435 C429 1.465 1_556 S
C435 C434 1.396 1_556 S
C435 C436 1.399 . S
C436 H422 0.929 . S
C436 C435 1.399 . S
C436 C437 1.385 . S
C437 H423 0.931 . S
C437 C436 1.385 . S
C437 C438 1.389 . S
C438 C437 1.389 . S
C438 C439 1.387 1_556 S
C439 H424 0.930 . S
C439 C434 1.390 . S
C439 C438 1.387 1_554 S
H440 C452 0.930 . S
H441 C454 0.930 . S
H442 C455 0.930 . S
H443 C459 0.959 . S
H444 C459 0.959 . S
H445 C459 0.961 . S
H446 C460 0.960 . S
H447 C460 0.961 . S
H448 C460 0.959 . S
H449 C463 0.929 . S
H450 C464 0.931 . S
H451 C466 0.930 . S
C452 H440 0.930 . S
C452 C453 1.399 . S
C452 C457 1.399 . S
C453 C452 1.399 . S
C453 C454 1.376 . S
C454 H441 0.930 . S
C454 C453 1.376 . S
C454 C455 1.388 . S
C455 H442 0.930 . S
C455 C454 1.388 . S
C455 C456 1.390 . S
C456 C455 1.390 . S
C456 C457 1.394 . S
C456 C462 1.465 . S
C457 C452 1.399 . S
C457 C456 1.394 . S
C457 C458 1.516 . S
C458 C457 1.516 . S
C458 C459 1.502 . S
C458 C460 1.561 . S
C458 C461 1.526 . S
C459 H443 0.959 . S
C459 H444 0.959 . S
C459 H445 0.961 . S
C459 C458 1.502 . S
C460 H446 0.960 . S
C460 H447 0.961 . S
C460 H448 0.959 . S
C460 C458 1.561 . S
C461 C458 1.526 . S
C461 C462 1.396 . S
C461 C466 1.390 . S
C462 C456 1.465 . S
C462 C461 1.396 . S
C462 C463 1.399 . S
C463 H449 0.929 . S
C463 C462 1.399 . S
C463 C464 1.385 . S
C464 H450 0.931 . S
C464 C463 1.385 . S
C464 C465 1.389 . S
C465 C464 1.389 . S
C465 C466 1.387 . S
C466 H451 0.930 . S
C466 C461 1.390 . S
C466 C465 1.387 . S
H467 C479 0.930 . S
H468 C481 0.930 . S
H469 C482 0.930 . S
H470 C486 0.959 . S
H471 C486 0.959 . S
H472 C486 0.961 . S
H473 C487 0.960 . S
H474 C487 0.961 . S
H475 C487 0.959 . S
H476 C490 0.929 . S
H477 C491 0.931 . S
H478 C493 0.930 . S
C479 H467 0.930 . S
C479 C480 1.399 . S
C479 C484 1.399 . S
C480 C479 1.399 . S
C480 C481 1.376 . S
C481 H468 0.930 . S
C481 C480 1.376 . S
C481 C482 1.388 . S
C482 H469 0.930 . S
C482 C481 1.388 . S
C482 C483 1.390 . S
C483 C482 1.390 . S
C483 C484 1.394 . S
C483 C489 1.465 . S
C484 C479 1.399 . S
C484 C483 1.394 . S
C484 C485 1.516 . S
C485 C484 1.516 . S
C485 C486 1.502 . S
C485 C487 1.561 . S
C485 C488 1.526 . S
C486 H470 0.959 . S
C486 H471 0.959 . S
C486 H472 0.961 . S
C486 C485 1.502 . S
C487 H473 0.960 . S
C487 H474 0.961 . S
C487 H475 0.959 . S
C487 C485 1.561 . S
C488 C485 1.526 . S
C488 C489 1.396 . S
C488 C493 1.390 . S
C489 C483 1.465 . S
C489 C488 1.396 . S
C489 C490 1.399 . S
C490 H476 0.929 . S
C490 C489 1.399 . S
C490 C491 1.385 . S
C491 H477 0.931 . S
C491 C490 1.385 . S
C491 C492 1.389 . S
C492 C491 1.389 . S
C492 C493 1.387 . S
C493 H478 0.930 . S
C493 C488 1.390 . S
C493 C492 1.387 . S
H494 C506 0.930 . S
H495 C508 0.930 . S
H496 C509 0.930 . S
H497 C513 0.959 . S
H498 C513 0.959 . S
H499 C513 0.961 . S
H500 C514 0.960 . S
H501 C514 0.961 . S
H502 C514 0.959 . S
H503 C517 0.929 . S
H504 C518 0.931 . S
H505 C520 0.930 . S
C506 H494 0.930 . S
C506 C507 1.399 . S
C506 C511 1.399 . S
C507 C506 1.399 . S
C507 C508 1.376 . S
C508 H495 0.930 . S
C508 C507 1.376 . S
C508 C509 1.388 . S
C509 H496 0.930 . S
C509 C508 1.388 . S
C509 C510 1.390 . S
C510 C509 1.390 . S
C510 C511 1.394 . S
C510 C516 1.465 . S
C511 C506 1.399 . S
C511 C510 1.394 . S
C511 C512 1.516 . S
C512 C511 1.516 . S
C512 C513 1.502 . S
C512 C514 1.561 . S
C512 C515 1.526 . S
C513 H497 0.959 . S
C513 H498 0.959 . S
C513 H499 0.961 . S
C513 C512 1.502 . S
C514 H500 0.960 . S
C514 H501 0.961 . S
C514 H502 0.959 . S
C514 C512 1.561 . S
C515 C512 1.526 . S
C515 C516 1.396 . S
C515 C520 1.390 . S
C516 C510 1.465 . S
C516 C515 1.396 . S
C516 C517 1.399 . S
C517 H503 0.929 . S
C517 C516 1.399 . S
C517 C518 1.385 . S
C518 H504 0.931 . S
C518 C517 1.385 . S
C518 C519 1.389 . S
C519 C518 1.389 . S
C519 C520 1.387 . S
C520 H505 0.930 . S
C520 C515 1.390 . S
C520 C519 1.387 . S
H521 C533 0.930 . S
H522 C535 0.930 . S
H523 C536 0.930 . S
H524 C540 0.959 . S
H525 C540 0.959 . S
H526 C540 0.961 . S
H527 C541 0.960 . S
H528 C541 0.961 . S
H529 C541 0.959 . S
H530 C544 0.929 . S
H531 C545 0.931 . S
H532 C547 0.930 . S
C533 H521 0.930 . S
C533 C534 1.399 . S
C533 C538 1.399 . S
C534 C533 1.399 . S
C534 C535 1.376 . S
C535 H522 0.930 . S
C535 C534 1.376 . S
C535 C536 1.388 . S
C536 H523 0.930 . S
C536 C535 1.388 . S
C536 C537 1.390 . S
C537 C536 1.390 . S
C537 C538 1.394 . S
C537 C543 1.465 . S
C538 C533 1.399 . S
C538 C537 1.394 . S
C538 C539 1.516 . S
C539 C538 1.516 . S
C539 C540 1.502 . S
C539 C541 1.561 . S
C539 C542 1.526 . S
C540 H524 0.959 . S
C540 H525 0.959 . S
C540 H526 0.961 . S
C540 C539 1.502 . S
C541 H527 0.960 . S
C541 H528 0.961 . S
C541 H529 0.959 . S
C541 C539 1.561 . S
C542 C539 1.526 . S
C542 C543 1.396 . S
C542 C547 1.390 . S
C543 C537 1.465 . S
C543 C542 1.396 . S
C543 C544 1.399 . S
C544 H530 0.929 . S
C544 C543 1.399 . S
C544 C545 1.385 . S
C545 H531 0.931 . S
C545 C544 1.385 . S
C545 C546 1.389 . S
C546 C545 1.389 . S
C546 C547 1.387 . S
C547 H532 0.930 . S
C547 C542 1.390 . S
C547 C546 1.387 . S
H548 C560 0.930 . S
H549 C562 0.930 . S
H550 C563 0.930 . S
H551 C567 0.959 . S
H552 C567 0.959 . S
H553 C567 0.961 1_565 S
H554 C568 0.960 . S
H555 C568 0.961 . S
H556 C568 0.959 . S
H557 C571 0.929 . S
H558 C572 0.931 . S
H559 C574 0.930 . S
C560 H548 0.930 . S
C560 C561 1.399 . S
C560 C565 1.399 1_565 S
C561 C560 1.399 . S
C561 C562 1.376 . S
C562 H549 0.930 . S
C562 C561 1.376 . S
C562 C563 1.388 1_565 S
C563 H550 0.930 . S
C563 C562 1.388 1_545 S
C563 C564 1.390 . S
C564 C563 1.390 . S
C564 C565 1.394 . S
C564 C570 1.465 . S
C565 C560 1.399 1_545 S
C565 C564 1.394 . S
C565 C566 1.516 . S
C566 C565 1.516 . S
C566 C567 1.502 . S
C566 C568 1.561 . S
C566 C569 1.526 . S
C567 H551 0.959 . S
C567 H552 0.959 . S
C567 H553 0.961 1_545 S
C567 C566 1.502 . S
C568 H554 0.960 . S
C568 H555 0.961 . S
C568 H556 0.959 . S
C568 C566 1.561 . S
C569 C566 1.526 . S
C569 C570 1.396 . S
C569 C574 1.390 . S
C570 C564 1.465 . S
C570 C569 1.396 . S
C570 C571 1.399 . S
C571 H557 0.929 . S
C571 C570 1.399 . S
C571 C572 1.385 . S
C572 H558 0.931 . S
C572 C571 1.385 . S
C572 C573 1.389 . S
C573 C572 1.389 . S
C573 C574 1.387 . S
C574 H559 0.930 . S
C574 C569 1.390 . S
C574 C573 1.387 . S
H575 C587 0.930 . S
H576 C589 0.930 . S
H577 C590 0.929 1_455 S
H578 C594 0.959 . S
H579 C594 0.959 . S
H580 C594 0.961 . S
H581 C595 0.960 . S
H582 C595 0.961 . S
H583 C595 0.959 . S
H584 C598 0.929 . S
H585 C599 0.931 . S
H586 C601 0.930 . S
C587 H575 0.930 . S
C587 C588 1.399 . S
C587 C592 1.399 1_655 S
C588 C587 1.399 . S
C588 C589 1.376 . S
C589 H576 0.930 . S
C589 C588 1.376 . S
C589 C590 1.390 . S
C590 H577 0.929 1_655 S
C590 C589 1.390 . S
C590 C591 1.389 1_655 S
C591 C590 1.389 1_455 S
C591 C592 1.394 . S
C591 C597 1.465 . S
C592 C587 1.399 1_455 S
C592 C591 1.394 . S
C592 C593 1.516 . S
C593 C592 1.516 . S
C593 C594 1.502 . S
C593 C595 1.561 . S
C593 C596 1.526 . S
C594 H578 0.959 . S
C594 H579 0.959 . S
C594 H580 0.961 . S
C594 C593 1.502 . S
C595 H581 0.960 . S
C595 H582 0.961 . S
C595 H583 0.959 . S
C595 C593 1.561 . S
C596 C593 1.526 . S
C596 C597 1.396 . S
C596 C601 1.390 . S
C597 C591 1.465 . S
C597 C596 1.396 . S
C597 C598 1.399 . S
C598 H584 0.929 . S
C598 C597 1.399 . S
C598 C599 1.385 . S
C599 H585 0.931 . S
C599 C598 1.385 . S
C599 C600 1.389 . S
C600 C599 1.389 . S
C600 C601 1.387 . S
C601 H586 0.930 . S
C601 C596 1.390 . S
C601 C600 1.387 . S
H602 C614 0.930 . S
H603 C616 0.930 . S
H604 C617 0.930 . S
H605 C621 0.959 . S
H606 C621 0.959 . S
H607 C621 0.961 . S
H608 C622 0.960 . S
H609 C622 0.961 . S
H610 C622 0.959 . S
H611 C625 0.926 1_565 S
H612 C626 0.931 . S
H613 C628 0.930 . S
C614 H602 0.930 . S
C614 C615 1.399 . S
C614 C619 1.399 . S
C615 C614 1.399 . S
C615 C616 1.376 . S
C616 H603 0.930 . S
C616 C615 1.376 . S
C616 C617 1.388 . S
C617 H604 0.930 . S
C617 C616 1.388 . S
C617 C618 1.390 . S
C618 C617 1.390 . S
C618 C619 1.394 . S
C618 C624 1.465 . S
C619 C614 1.399 . S
C619 C618 1.394 . S
C619 C620 1.516 . S
C620 C619 1.516 . S
C620 C621 1.502 . S
C620 C622 1.561 . S
C620 C623 1.526 . S
C621 H605 0.959 . S
C621 H606 0.959 . S
C621 H607 0.961 . S
C621 C620 1.502 . S
C622 H608 0.960 . S
C622 H609 0.961 . S
C622 H610 0.959 . S
C622 C620 1.561 . S
C623 C620 1.526 . S
C623 C624 1.396 . S
C623 C628 1.390 1_565 S
C624 C618 1.465 . S
C624 C623 1.396 . S
C624 C625 1.399 1_565 S
C625 H611 0.926 1_545 S
C625 C624 1.399 1_545 S
C625 C626 1.385 . S
C626 H612 0.931 . S
C626 C625 1.385 . S
C626 C627 1.389 . S
C627 C626 1.389 . S
C627 C628 1.387 . S
C628 H613 0.930 . S
C628 C623 1.390 1_545 S
C628 C627 1.387 . S
H629 C641 0.930 . S
H630 C643 0.930 . S
H631 C644 0.930 . S
H632 C648 0.959 . S
H633 C648 0.959 . S
H634 C648 0.961 . S
H635 C649 0.960 . S
H636 C649 0.961 . S
H637 C649 0.959 . S
H638 C652 0.929 . S
H639 C653 0.931 . S
H640 C655 0.930 . S
C641 H629 0.930 . S
C641 C642 1.399 . S
C641 C646 1.399 . S
C642 C641 1.399 . S
C642 C643 1.376 . S
C643 H630 0.930 . S
C643 C642 1.376 . S
C643 C644 1.388 . S
C644 H631 0.930 . S
C644 C643 1.388 . S
C644 C645 1.390 . S
C645 C644 1.390 . S
C645 C646 1.394 . S
C645 C651 1.465 . S
C646 C641 1.399 . S
C646 C645 1.394 . S
C646 C647 1.516 . S
C647 C646 1.516 . S
C647 C648 1.502 . S
C647 C649 1.561 . S
C647 C650 1.526 . S
C648 H632 0.959 . S
C648 H633 0.959 . S
C648 H634 0.961 . S
C648 C647 1.502 . S
C649 H635 0.960 . S
C649 H636 0.961 . S
C649 H637 0.959 . S
C649 C647 1.561 . S
C650 C647 1.526 . S
C650 C651 1.396 . S
C650 C655 1.390 1_655 S
C651 C645 1.465 . S
C651 C650 1.396 . S
C651 C652 1.399 1_655 S
C652 H638 0.929 . S
C652 C651 1.399 1_455 S
C652 C653 1.385 . S
C653 H639 0.931 . S
C653 C652 1.385 . S
C653 C654 1.389 . S
C654 C653 1.389 . S
C654 C655 1.387 . S
C655 H640 0.930 . S
C655 C650 1.390 1_455 S
C655 C654 1.387 . S
H656 C668 0.930 . S
H657 C670 0.930 . S
H658 C671 0.930 . S
H659 C675 0.959 . S
H660 C675 0.959 . S
H661 C675 0.961 . S
H662 C676 0.960 . S
H663 C676 0.961 . S
H664 C676 0.959 . S
H665 C679 0.929 . S
H666 C680 0.931 . S
H667 C682 0.930 . S
C668 H656 0.930 . S
C668 C669 1.399 . S
C668 C673 1.399 . S
C669 C668 1.399 . S
C669 C670 1.376 . S
C670 H657 0.930 . S
C670 C669 1.376 . S
C670 C671 1.388 . S
C671 H658 0.930 . S
C671 C670 1.388 . S
C671 C672 1.390 . S
C672 C671 1.390 . S
C672 C673 1.394 . S
C672 C678 1.465 . S
C673 C668 1.399 . S
C673 C672 1.394 . S
C673 C674 1.516 . S
C674 C673 1.516 . S
C674 C675 1.502 . S
C674 C676 1.561 . S
C674 C677 1.526 . S
C675 H659 0.959 . S
C675 H660 0.959 . S
C675 H661 0.961 . S
C675 C674 1.502 . S
C676 H662 0.960 . S
C676 H663 0.961 . S
C676 H664 0.959 . S
C676 C674 1.561 . S
C677 C674 1.526 . S
C677 C678 1.396 . S
C677 C682 1.390 . S
C678 C672 1.465 . S
C678 C677 1.396 . S
C678 C679 1.399 . S
C679 H665 0.929 . S
C679 C678 1.399 . S
C679 C680 1.385 . S
C680 H666 0.931 . S
C680 C679 1.385 . S
C680 C681 1.389 . S
C681 C680 1.389 . S
C681 C682 1.387 . S
C682 H667 0.930 . S
C682 C677 1.390 . S
C682 C681 1.387 . S
H683 C695 0.930 . S
H684 C697 0.930 . S
H685 C698 0.930 . S
H686 C702 0.959 . S
H687 C702 0.959 . S
H688 C702 0.961 . S
H689 C703 0.960 . S
H690 C703 0.961 . S
H691 C703 0.959 . S
H692 C706 0.929 . S
H693 C707 0.931 . S
H694 C709 0.930 . S
C695 H683 0.930 . S
C695 C696 1.399 . S
C695 C700 1.399 . S
C696 C695 1.399 . S
C696 C697 1.376 . S
C697 H684 0.930 . S
C697 C696 1.376 . S
C697 C698 1.388 . S
C698 H685 0.930 . S
C698 C697 1.388 . S
C698 C699 1.390 . S
C699 C698 1.390 . S
C699 C700 1.394 . S
C699 C705 1.465 . S
C700 C695 1.399 . S
C700 C699 1.394 . S
C700 C701 1.516 . S
C701 C700 1.516 . S
C701 C702 1.502 . S
C701 C703 1.561 . S
C701 C704 1.526 . S
C702 H686 0.959 . S
C702 H687 0.959 . S
C702 H688 0.961 . S
C702 C701 1.502 . S
C703 H689 0.960 . S
C703 H690 0.961 . S
C703 H691 0.959 . S
C703 C701 1.561 . S
C704 C701 1.526 . S
C704 C705 1.396 . S
C704 C709 1.390 . S
C705 C699 1.465 . S
C705 C704 1.396 . S
C705 C706 1.399 . S
C706 H692 0.929 . S
C706 C705 1.399 . S
C706 C707 1.385 . S
C707 H693 0.931 . S
C707 C706 1.385 . S
C707 C708 1.389 . S
C708 C707 1.389 . S
C708 C709 1.387 . S
C709 H694 0.930 . S
C709 C704 1.390 . S
C709 C708 1.387 . S
H710 C722 0.930 . S
H711 C724 0.930 . S
H712 C725 0.930 . S
H713 C729 0.959 . S
H714 C729 0.959 . S
H715 C729 0.961 . S
H716 C730 0.960 . S
H717 C730 0.961 . S
H718 C730 0.959 . S
H719 C733 0.929 . S
H720 C734 0.931 . S
H721 C736 0.930 . S
C722 H710 0.930 . S
C722 C723 1.399 . S
C722 C727 1.399 . S
C723 C722 1.399 . S
C723 C724 1.376 . S
C724 H711 0.930 . S
C724 C723 1.376 . S
C724 C725 1.388 . S
C725 H712 0.930 . S
C725 C724 1.388 . S
C725 C726 1.390 . S
C726 C725 1.390 . S
C726 C727 1.394 . S
C726 C732 1.465 . S
C727 C722 1.399 . S
C727 C726 1.394 . S
C727 C728 1.516 . S
C728 C727 1.516 . S
C728 C729 1.502 . S
C728 C730 1.561 . S
C728 C731 1.526 . S
C729 H713 0.959 . S
C729 H714 0.959 . S
C729 H715 0.961 . S
C729 C728 1.502 . S
C730 H716 0.960 . S
C730 H717 0.961 . S
C730 H718 0.959 . S
C730 C728 1.561 . S
C731 C728 1.526 . S
C731 C732 1.396 . S
C731 C736 1.390 . S
C732 C726 1.465 . S
C732 C731 1.396 . S
C732 C733 1.399 . S
C733 H719 0.929 . S
C733 C732 1.399 . S
C733 C734 1.385 . S
C734 H720 0.931 . S
C734 C733 1.385 . S
C734 C735 1.389 . S
C735 C734 1.389 . S
C735 C736 1.387 . S
C736 H721 0.930 . S
C736 C731 1.390 . S
C736 C735 1.387 . S
H737 C749 0.930 . S
H738 C751 0.930 . S
H739 C752 0.930 . S
H740 C756 0.959 . S
H741 C756 0.959 . S
H742 C756 0.961 . S
H743 C757 0.960 . S
H744 C757 0.961 . S
H745 C757 0.959 . S
H746 C760 0.929 . S
H747 C761 0.931 . S
H748 C763 0.930 . S
C749 H737 0.930 . S
C749 C750 1.399 . S
C749 C754 1.399 . S
C750 C749 1.399 . S
C750 C751 1.376 . S
C751 H738 0.930 . S
C751 C750 1.376 . S
C751 C752 1.388 . S
C752 H739 0.930 . S
C752 C751 1.388 . S
C752 C753 1.390 . S
C753 C752 1.390 . S
C753 C754 1.394 . S
C753 C759 1.465 . S
C754 C749 1.399 . S
C754 C753 1.394 . S
C754 C755 1.516 . S
C755 C754 1.516 . S
C755 C756 1.502 . S
C755 C757 1.561 . S
C755 C758 1.526 . S
C756 H740 0.959 . S
C756 H741 0.959 . S
C756 H742 0.961 . S
C756 C755 1.502 . S
C757 H743 0.960 . S
C757 H744 0.961 . S
C757 H745 0.959 . S
C757 C755 1.561 . S
C758 C755 1.526 . S
C758 C759 1.396 . S
C758 C763 1.390 . S
C759 C753 1.465 . S
C759 C758 1.396 . S
C759 C760 1.399 . S
C760 H746 0.929 . S
C760 C759 1.399 . S
C760 C761 1.385 . S
C761 H747 0.931 . S
C761 C760 1.385 . S
C761 C762 1.389 . S
C762 C761 1.389 . S
C762 C763 1.387 . S
C763 H748 0.930 . S
C763 C758 1.390 . S
C763 C762 1.387 . S
H764 C776 0.930 . S
H765 C778 0.930 . S
H766 C779 0.930 . S
H767 C783 0.959 . S
H768 C783 0.959 . S
H769 C783 0.961 . S
H770 C784 0.960 . S
H771 C784 0.961 . S
H772 C784 0.959 . S
H773 C787 0.929 . S
H774 C788 0.931 . S
H775 C790 0.930 . S
C776 H764 0.930 . S
C776 C777 1.399 . S
C776 C781 1.399 . S
C777 C776 1.399 . S
C777 C778 1.376 . S
C778 H765 0.930 . S
C778 C777 1.376 . S
C778 C779 1.388 . S
C779 H766 0.930 . S
C779 C778 1.388 . S
C779 C780 1.390 . S
C780 C779 1.390 . S
C780 C781 1.394 . S
C780 C786 1.465 . S
C781 C776 1.399 . S
C781 C780 1.394 . S
C781 C782 1.516 . S
C782 C781 1.516 . S
C782 C783 1.502 . S
C782 C784 1.561 . S
C782 C785 1.526 . S
C783 H767 0.959 . S
C783 H768 0.959 . S
C783 H769 0.961 . S
C783 C782 1.502 . S
C784 H770 0.960 . S
C784 H771 0.961 . S
C784 H772 0.959 . S
C784 C782 1.561 . S
C785 C782 1.526 . S
C785 C786 1.396 . S
C785 C790 1.390 . S
C786 C780 1.465 . S
C786 C785 1.396 . S
C786 C787 1.399 . S
C787 H773 0.929 . S
C787 C786 1.399 . S
C787 C788 1.385 . S
C788 H774 0.931 . S
C788 C787 1.385 . S
C788 C789 1.389 . S
C789 C788 1.389 . S
C789 C790 1.387 . S
C790 H775 0.930 . S
C790 C785 1.390 . S
C790 C789 1.387 . S
H791 C803 0.930 . S
H792 C805 0.930 . S
H793 C806 0.930 . S
H794 C810 0.959 . S
H795 C810 0.959 . S
H796 C810 0.961 . S
H797 C811 0.960 . S
H798 C811 0.961 . S
H799 C811 0.959 . S
H800 C814 0.929 . S
H801 C815 0.931 . S
H802 C817 0.930 . S
C803 H791 0.930 . S
C803 C804 1.399 . S
C803 C808 1.399 . S
C804 C803 1.399 . S
C804 C805 1.376 . S
C805 H792 0.930 . S
C805 C804 1.376 . S
C805 C806 1.388 . S
C806 H793 0.930 . S
C806 C805 1.388 . S
C806 C807 1.390 . S
C807 C806 1.390 . S
C807 C808 1.394 . S
C807 C813 1.465 . S
C808 C803 1.399 . S
C808 C807 1.394 . S
C808 C809 1.516 . S
C809 C808 1.516 . S
C809 C810 1.502 . S
C809 C811 1.561 . S
C809 C812 1.526 . S
C810 H794 0.959 . S
C810 H795 0.959 . S
C810 H796 0.961 . S
C810 C809 1.502 . S
C811 H797 0.960 . S
C811 H798 0.961 . S
C811 H799 0.959 . S
C811 C809 1.561 . S
C812 C809 1.526 . S
C812 C813 1.396 . S
C812 C817 1.390 . S
C813 C807 1.465 . S
C813 C812 1.396 . S
C813 C814 1.399 . S
C814 H800 0.929 . S
C814 C813 1.399 . S
C814 C815 1.385 . S
C815 H801 0.931 . S
C815 C814 1.385 . S
C815 C816 1.389 . S
C816 C815 1.389 . S
C816 C817 1.387 . S
C817 H802 0.930 . S
C817 C812 1.390 . S
C817 C816 1.387 . S
H818 C830 0.930 . S
H819 C832 0.930 . S
H820 C833 0.930 . S
H821 C837 0.959 . S
H822 C837 0.959 . S
H823 C837 0.961 . S
H824 C838 0.960 . S
H825 C838 0.961 . S
H826 C838 0.959 . S
H827 C841 0.929 . S
H828 C842 0.931 . S
H829 C844 0.930 . S
C830 H818 0.930 . S
C830 C831 1.399 . S
C830 C835 1.399 . S
C831 C830 1.399 . S
C831 C832 1.376 . S
C832 H819 0.930 . S
C832 C831 1.376 . S
C832 C833 1.388 . S
C833 H820 0.930 . S
C833 C832 1.388 . S
C833 C834 1.390 . S
C834 C833 1.390 . S
C834 C835 1.394 . S
C834 C840 1.465 . S
C835 C830 1.399 . S
C835 C834 1.394 . S
C835 C836 1.516 . S
C836 C835 1.516 . S
C836 C837 1.502 . S
C836 C838 1.561 . S
C836 C839 1.526 . S
C837 H821 0.959 . S
C837 H822 0.959 . S
C837 H823 0.961 . S
C837 C836 1.502 . S
C838 H824 0.960 . S
C838 H825 0.961 . S
C838 H826 0.959 . S
C838 C836 1.561 . S
C839 C836 1.526 . S
C839 C840 1.396 . S
C839 C844 1.390 . S
C840 C834 1.465 . S
C840 C839 1.396 . S
C840 C841 1.399 . S
C841 H827 0.929 . S
C841 C840 1.399 . S
C841 C842 1.385 . S
C842 H828 0.931 . S
C842 C841 1.385 . S
C842 C843 1.389 . S
C843 C842 1.389 . S
C843 C844 1.387 . S
C844 H829 0.930 . S
C844 C839 1.390 . S
C844 C843 1.387 . S
H845 C857 0.930 . S
H846 C859 0.930 . S
H847 C860 0.930 . S
H848 C864 0.959 . S
H849 C864 0.959 . S
H850 C864 0.961 . S
H851 C865 0.960 . S
H852 C865 0.961 . S
H853 C865 0.959 . S
H854 C868 0.929 . S
H855 C869 0.931 . S
H856 C871 0.930 . S
C857 H845 0.930 . S
C857 C858 1.399 . S
C857 C862 1.399 . S
C858 C857 1.399 . S
C858 C859 1.376 . S
C859 H846 0.930 . S
C859 C858 1.376 . S
C859 C860 1.388 . S
C860 H847 0.930 . S
C860 C859 1.388 . S
C860 C861 1.390 . S
C861 C860 1.390 . S
C861 C862 1.394 . S
C861 C867 1.465 . S
C862 C857 1.399 . S
C862 C861 1.394 . S
C862 C863 1.516 . S
C863 C862 1.516 . S
C863 C864 1.502 . S
C863 C865 1.561 . S
C863 C866 1.526 . S
C864 H848 0.959 . S
C864 H849 0.959 . S
C864 H850 0.961 . S
C864 C863 1.502 . S
C865 H851 0.960 . S
C865 H852 0.961 . S
C865 H853 0.959 . S
C865 C863 1.561 . S
C866 C863 1.526 . S
C866 C867 1.396 . S
C866 C871 1.390 . S
C867 C861 1.465 . S
C867 C866 1.396 . S
C867 C868 1.399 . S
C868 H854 0.929 . S
C868 C867 1.399 . S
C868 C869 1.385 . S
C869 H855 0.931 . S
C869 C868 1.385 . S
C869 C870 1.389 . S
C870 C869 1.389 . S
C870 C871 1.387 . S
C871 H856 0.930 . S
C871 C866 1.390 . S
C871 C870 1.387 . S
H872 C884 0.930 . S
H873 C886 0.930 . S
H874 C887 0.930 . S
H875 C891 0.959 . S
H876 C891 0.959 . S
H877 C891 0.961 . S
H878 C892 0.960 . S
H879 C892 0.961 . S
H880 C892 0.959 . S
H881 C895 0.929 . S
H882 C896 0.931 . S
H883 C898 0.930 . S
C884 H872 0.930 . S
C884 C885 1.399 . S
C884 C889 1.399 . S
C885 C884 1.399 . S
C885 C886 1.376 . S
C886 H873 0.930 . S
C886 C885 1.376 . S
C886 C887 1.388 . S
C887 H874 0.930 . S
C887 C886 1.388 . S
C887 C888 1.390 . S
C888 C887 1.390 . S
C888 C889 1.394 . S
C888 C894 1.465 . S
C889 C884 1.399 . S
C889 C888 1.394 . S
C889 C890 1.516 . S
C890 C889 1.516 . S
C890 C891 1.502 . S
C890 C892 1.561 . S
C890 C893 1.526 . S
C891 H875 0.959 . S
C891 H876 0.959 . S
C891 H877 0.961 . S
C891 C890 1.502 . S
C892 H878 0.960 . S
C892 H879 0.961 . S
C892 H880 0.959 . S
C892 C890 1.561 . S
C893 C890 1.526 . S
C893 C894 1.396 . S
C893 C898 1.390 . S
C894 C888 1.465 . S
C894 C893 1.396 . S
C894 C895 1.399 . S
C895 H881 0.929 . S
C895 C894 1.399 . S
C895 C896 1.385 . S
C896 H882 0.931 . S
C896 C895 1.385 . S
C896 C897 1.389 . S
C897 C896 1.389 . S
C897 C898 1.387 . S
C898 H883 0.930 . S
C898 C893 1.390 . S
C898 C897 1.387 . S
H899 C911 0.930 . S
H900 C913 0.930 . S
H901 C914 0.930 . S
H902 C918 0.959 . S
H903 C918 0.959 . S
H904 C918 0.961 . S
H905 C919 0.960 . S
H906 C919 0.961 . S
H907 C919 0.959 . S
H908 C922 0.929 . S
H909 C923 0.931 . S
H910 C925 0.930 1_556 S
C911 H899 0.930 . S
C911 C912 1.399 . S
C911 C916 1.399 . S
C912 C911 1.399 . S
C912 C913 1.376 . S
C913 H900 0.930 . S
C913 C912 1.376 . S
C913 C914 1.388 . S
C914 H901 0.930 . S
C914 C913 1.388 . S
C914 C915 1.390 . S
C915 C914 1.390 . S
C915 C916 1.394 . S
C915 C921 1.465 . S
C916 C911 1.399 . S
C916 C915 1.394 . S
C916 C917 1.516 . S
C917 C916 1.516 . S
C917 C918 1.502 . S
C917 C919 1.561 . S
C917 C920 1.526 . S
C918 H902 0.959 . S
C918 H903 0.959 . S
C918 H904 0.961 . S
C918 C917 1.502 . S
C919 H905 0.960 . S
C919 H906 0.961 . S
C919 H907 0.959 . S
C919 C917 1.561 . S
C920 C917 1.526 . S
C920 C921 1.396 . S
C920 C925 1.390 . S
C921 C915 1.465 . S
C921 C920 1.396 . S
C921 C922 1.399 . S
C922 H908 0.929 . S
C922 C921 1.399 . S
C922 C923 1.385 . S
C923 H909 0.931 . S
C923 C922 1.385 . S
C923 C924 1.389 . S
C924 C923 1.389 . S
C924 C925 1.387 . S
C925 H910 0.930 1_554 S
C925 C920 1.390 . S
C925 C924 1.387 . S
H926 C938 0.930 . S
H927 C940 0.930 1_554 S
H928 C941 0.930 . S
H929 C945 0.959 . S
H930 C945 0.959 . S
H931 C945 0.961 . S
H932 C946 0.960 . S
H933 C946 0.961 . S
H934 C946 0.959 . S
H935 C949 0.929 . S
H936 C950 0.931 . S
H937 C952 0.930 . S
C938 H926 0.930 . S
C938 C939 1.399 . S
C938 C943 1.399 . S
C939 C938 1.399 . S
C939 C940 1.376 . S
C940 H927 0.930 1_556 S
C940 C939 1.376 . S
C940 C941 1.388 . S
C941 H928 0.930 . S
C941 C940 1.388 . S
C941 C942 1.390 . S
C942 C941 1.390 . S
C942 C943 1.394 . S
C942 C948 1.465 . S
C943 C938 1.399 . S
C943 C942 1.394 . S
C943 C944 1.516 . S
C944 C943 1.516 . S
C944 C945 1.502 . S
C944 C946 1.561 . S
C944 C947 1.526 . S
C945 H929 0.959 . S
C945 H930 0.959 . S
C945 H931 0.961 . S
C945 C944 1.502 . S
C946 H932 0.960 . S
C946 H933 0.961 . S
C946 H934 0.959 . S
C946 C944 1.561 . S
C947 C944 1.526 . S
C947 C948 1.396 . S
C947 C952 1.390 . S
C948 C942 1.465 . S
C948 C947 1.396 . S
C948 C949 1.399 . S
C949 H935 0.929 . S
C949 C948 1.399 . S
C949 C950 1.385 . S
C950 H936 0.931 . S
C950 C949 1.385 . S
C950 C951 1.389 . S
C951 C950 1.389 . S
C951 C952 1.387 . S
C952 H937 0.930 . S
C952 C947 1.390 . S
C952 C951 1.387 . S
H953 C965 0.930 . S
H954 C967 0.930 . S
H955 C968 0.930 . S
H956 C972 0.959 . S
H957 C972 0.959 . S
H958 C972 0.961 . S
H959 C973 0.960 . S
H960 C973 0.961 . S
H961 C973 0.959 . S
H962 C976 0.929 . S
H963 C977 0.931 1_556 S
H964 C979 0.930 . S
C965 H953 0.930 . S
C965 C966 1.399 . S
C965 C970 1.399 . S
C966 C965 1.399 . S
C966 C967 1.376 . S
C967 H954 0.930 . S
C967 C966 1.376 . S
C967 C968 1.388 . S
C968 H955 0.930 . S
C968 C967 1.388 . S
C968 C969 1.390 . S
C969 C968 1.390 . S
C969 C970 1.394 . S
C969 C975 1.465 . S
C970 C965 1.399 . S
C970 C969 1.394 . S
C970 C971 1.516 . S
C971 C970 1.516 . S
C971 C972 1.502 . S
C971 C973 1.561 . S
C971 C974 1.526 . S
C972 H956 0.959 . S
C972 H957 0.959 . S
C972 H958 0.961 . S
C972 C971 1.502 . S
C973 H959 0.960 . S
C973 H960 0.961 . S
C973 H961 0.959 . S
C973 C971 1.561 . S
C974 C971 1.526 . S
C974 C975 1.396 . S
C974 C979 1.390 . S
C975 C969 1.465 . S
C975 C974 1.396 . S
C975 C976 1.399 . S
C976 H962 0.929 . S
C976 C975 1.399 . S
C976 C977 1.385 . S
C977 H963 0.931 1_554 S
C977 C976 1.385 . S
C977 C978 1.389 . S
C978 C977 1.389 . S
C978 C979 1.387 . S
C979 H964 0.930 . S
C979 C974 1.390 . S
C979 C978 1.387 . S
H980 C992 0.930 . S
H981 C994 0.930 . S
H982 C995 0.930 . S
H983 C999 0.959 . S
H984 C999 0.959 . S
H985 C999 0.961 . S
H986 C1000 0.960 . S
H987 C1000 0.961 . S
H988 C1000 0.959 . S
H989 C1003 0.929 . S
H990 C1004 0.931 . S
H991 C1006 0.930 . S
C992 H980 0.930 . S
C992 C993 1.399 . S
C992 C997 1.399 . S
C993 C992 1.399 . S
C993 C994 1.376 . S
C994 H981 0.930 . S
C994 C993 1.376 . S
C994 C995 1.388 . S
C995 H982 0.930 . S
C995 C994 1.388 . S
C995 C996 1.390 . S
C996 C995 1.390 . S
C996 C997 1.394 . S
C996 C1002 1.465 . S
C997 C992 1.399 . S
C997 C996 1.394 . S
C997 C998 1.516 . S
C998 C997 1.516 . S
C998 C999 1.502 . S
C998 C1000 1.561 . S
C998 C1001 1.526 . S
C999 H983 0.959 . S
C999 H984 0.959 . S
C999 H985 0.961 . S
C999 C998 1.502 . S
C1000 H986 0.960 . S
C1000 H987 0.961 . S
C1000 H988 0.959 . S
C1000 C998 1.561 . S
C1001 C998 1.526 . S
C1001 C1002 1.396 . S
C1001 C1006 1.390 . S
C1002 C996 1.465 . S
C1002 C1001 1.396 . S
C1002 C1003 1.399 . S
C1003 H989 0.929 . S
C1003 C1002 1.399 . S
C1003 C1004 1.385 . S
C1004 H990 0.931 . S
C1004 C1003 1.385 . S
C1004 C1005 1.389 . S
C1005 C1004 1.389 . S
C1005 C1006 1.387 . S
C1006 H991 0.930 . S
C1006 C1001 1.390 . S
C1006 C1005 1.387 . S
H1007 C1019 0.930 . S
H1008 C1021 0.930 . S
H1009 C1022 0.930 . S
H1010 C1026 0.959 . S
H1011 C1026 0.959 . S
H1012 C1026 0.961 . S
H1013 C1027 0.960 . S
H1014 C1027 0.961 . S
H1015 C1027 0.959 . S
H1016 C1030 0.929 . S
H1017 C1031 0.931 . S
H1018 C1033 0.930 . S
C1019 H1007 0.930 . S
C1019 C1020 1.399 . S
C1019 C1024 1.399 . S
C1020 C1019 1.399 . S
C1020 C1021 1.376 . S
C1021 H1008 0.930 . S
C1021 C1020 1.376 . S
C1021 C1022 1.388 . S
C1022 H1009 0.930 . S
C1022 C1021 1.388 . S
C1022 C1023 1.390 . S
C1023 C1022 1.390 . S
C1023 C1024 1.394 . S
C1023 C1029 1.465 . S
C1024 C1019 1.399 . S
C1024 C1023 1.394 . S
C1024 C1025 1.516 . S
C1025 C1024 1.516 . S
C1025 C1026 1.502 . S
C1025 C1027 1.561 . S
C1025 C1028 1.526 . S
C1026 H1010 0.959 . S
C1026 H1011 0.959 . S
C1026 H1012 0.961 . S
C1026 C1025 1.502 . S
C1027 H1013 0.960 . S
C1027 H1014 0.961 . S
C1027 H1015 0.959 . S
C1027 C1025 1.561 . S
C1028 C1025 1.526 . S
C1028 C1029 1.396 . S
C1028 C1033 1.390 . S
C1029 C1023 1.465 . S
C1029 C1028 1.396 . S
C1029 C1030 1.399 . S
C1030 H1016 0.929 . S
C1030 C1029 1.399 . S
C1030 C1031 1.385 . S
C1031 H1017 0.931 . S
C1031 C1030 1.385 . S
C1031 C1032 1.389 . S
C1032 C1031 1.389 . S
C1032 C1033 1.387 . S
C1033 H1018 0.930 . S
C1033 C1028 1.390 . S
C1033 C1032 1.387 . S
H1034 C1046 0.930 . S
H1035 C1048 0.930 . S
H1036 C1049 0.930 . S
H1037 C1053 0.959 . S
H1038 C1053 0.959 . S
H1039 C1053 0.961 . S
H1040 C1054 0.960 . S
H1041 C1054 0.961 . S
H1042 C1054 0.959 . S
H1043 C1057 0.929 . S
H1044 C1058 0.931 . S
H1045 C1060 0.930 . S
C1046 H1034 0.930 . S
C1046 C1047 1.399 . S
C1046 C1051 1.399 . S
C1047 C1046 1.399 . S
C1047 C1048 1.376 . S
C1048 H1035 0.930 . S
C1048 C1047 1.376 . S
C1048 C1049 1.388 . S
C1049 H1036 0.930 . S
C1049 C1048 1.388 . S
C1049 C1050 1.390 . S
C1050 C1049 1.390 . S
C1050 C1051 1.394 . S
C1050 C1056 1.465 . S
C1051 C1046 1.399 . S
C1051 C1050 1.394 . S
C1051 C1052 1.516 . S
C1052 C1051 1.516 . S
C1052 C1053 1.502 . S
C1052 C1054 1.561 . S
C1052 C1055 1.526 . S
C1053 H1037 0.959 . S
C1053 H1038 0.959 . S
C1053 H1039 0.961 . S
C1053 C1052 1.502 . S
C1054 H1040 0.960 . S
C1054 H1041 0.961 . S
C1054 H1042 0.959 . S
C1054 C1052 1.561 . S
C1055 C1052 1.526 . S
C1055 C1056 1.396 . S
C1055 C1060 1.390 . S
C1056 C1050 1.465 . S
C1056 C1055 1.396 . S
C1056 C1057 1.399 . S
C1057 H1043 0.929 . S
C1057 C1056 1.399 . S
C1057 C1058 1.385 . S
C1058 H1044 0.931 . S
C1058 C1057 1.385 . S
C1058 C1059 1.389 . S
C1059 C1058 1.389 . S
C1059 C1060 1.387 . S
C1060 H1045 0.930 . S
C1060 C1055 1.390 . S
C1060 C1059 1.387 . S
H1061 C1073 0.930 . S
H1062 C1075 0.930 . S
H1063 C1076 0.930 . S
H1064 C1080 0.959 . S
H1065 C1080 0.959 . S
H1066 C1080 0.961 . S
H1067 C1081 0.960 . S
H1068 C1081 0.961 . S
H1069 C1081 0.959 . S
H1070 C1084 0.929 . S
H1071 C1085 0.931 . S
H1072 C1087 0.930 . S
C1073 H1061 0.930 . S
C1073 C1074 1.399 . S
C1073 C1078 1.399 . S
C1074 C1073 1.399 . S
C1074 C1075 1.376 . S
C1075 H1062 0.930 . S
C1075 C1074 1.376 . S
C1075 C1076 1.388 . S
C1076 H1063 0.930 . S
C1076 C1075 1.388 . S
C1076 C1077 1.390 . S
C1077 C1076 1.390 . S
C1077 C1078 1.394 . S
C1077 C1083 1.465 . S
C1078 C1073 1.399 . S
C1078 C1077 1.394 . S
C1078 C1079 1.516 . S
C1079 C1078 1.516 . S
C1079 C1080 1.502 . S
C1079 C1081 1.561 . S
C1079 C1082 1.526 . S
C1080 H1064 0.959 . S
C1080 H1065 0.959 . S
C1080 H1066 0.961 . S
C1080 C1079 1.502 . S
C1081 H1067 0.960 . S
C1081 H1068 0.961 . S
C1081 H1069 0.959 . S
C1081 C1079 1.561 . S
C1082 C1079 1.526 . S
C1082 C1083 1.396 . S
C1082 C1087 1.390 . S
C1083 C1077 1.465 . S
C1083 C1082 1.396 . S
C1083 C1084 1.399 . S
C1084 H1070 0.929 . S
C1084 C1083 1.399 . S
C1084 C1085 1.385 . S
C1085 H1071 0.931 . S
C1085 C1084 1.385 . S
C1085 C1086 1.389 . S
C1086 C1085 1.389 . S
C1086 C1087 1.387 . S
C1087 H1072 0.930 . S
C1087 C1082 1.390 . S
C1087 C1086 1.387 . S
C237 C163 1.384 . S
C249 C7 1.409 . S
C264 C21 1.398 . S
C276 C121 1.382 . S
C291 C35 1.389 . S
C303 C135 1.430 . S
C318 C149 1.430 . S
C330 C49 1.421 . S
C345 C63 1.387 . S
C357 C79 1.428 . S
C372 C77 1.432 . S
C384 C93 1.420 . S
C399 C107 1.380 . S
C411 C91 1.414 . S
C426 C65 1.377 . S
C438 C105 1.417 . S
C453 C51 1.433 . S
C465 C119 1.394 . S
C480 C133 1.434 . S
C492 C9 1.394 . S
C507 C23 1.426 . S
C519 C147 1.413 . S
C534 C161 1.433 . S
C546 C37 1.418 . S
C561 C175 1.432 . S
C573 C191 1.380 . S
C588 C189 1.431 . S
C600 C205 1.421 . S
C615 C219 1.420 . S
C627 C203 1.420 . S
C642 C177 1.389 . S
C654 C217 1.391 . S
C669 C64 1.319 . S
C681 C8 1.213 . S
C696 C22 1.195 . S
C708 C78 1.289 . S
C723 C36 1.205 . S
C735 C92 1.300 . S
C750 C106 1.315 . S
C762 C50 1.255 . S
C777 C120 1.322 . S
C789 C176 1.207 . S
C804 C190 1.210 . S
C816 C134 1.257 . S
C831 C148 1.213 . S
C843 C204 1.291 . S
C858 C218 1.197 . S
C870 C162 1.281 . S
C885 C202 1.362 . S
C897 C6 1.331 1_556 S
C912 C216 1.362 . S
C924 C20 1.335 1_554 S
C939 C34 1.380 1_556 S
C951 C174 1.354 . S
C966 C188 1.370 . S
C978 C48 1.380 1_554 S
C993 C146 1.349 . S
C1005 C62 1.335 . S
C1020 C160 1.352 . S
C1032 C76 1.379 . S
C1047 C90 1.354 . S
C1059 C118 1.333 . S
C1074 C132 1.330 . S
C1086 C104 1.348 . S
