# Generated by pormake.
# Topology ukf, (4)-cn, num edge types: 1
# Building blocks:
#     Node 0, Type 0, BuildingBlock: CEKHIL_clean_sbu_0, # of connection points: 4
#     Node 1, Type 0, BuildingBlock: CEKHIL_clean_sbu_0, # of connection points: 4
#     Node 2, Type 0, BuildingBlock: CEKHIL_clean_sbu_0, # of connection points: 4
#     Node 3, Type 0, BuildingBlock: CEKHIL_clean_sbu_0, # of connection points: 4
#     Node 4, Type 0, BuildingBlock: CEKHIL_clean_sbu_0, # of connection points: 4
#     Node 5, Type 0, BuildingBlock: CEKHIL_clean_sbu_0, # of connection points: 4
#     Node 6, Type 0, BuildingBlock: CEKHIL_clean_sbu_0, # of connection points: 4
#     Node 7, Type 0, BuildingBlock: CEKHIL_clean_sbu_0, # of connection points: 4
#     Node 8, Type 0, BuildingBlock: CEKHIL_clean_sbu_0, # of connection points: 4
#     Node 9, Type 0, BuildingBlock: CEKHIL_clean_sbu_0, # of connection points: 4
#     Node 10, Type 0, BuildingBlock: CEKHIL_clean_sbu_0, # of connection points: 4
#     Node 11, Type 0, BuildingBlock: CEKHIL_clean_sbu_0, # of connection points: 4
#     Edge 12, Type (0, 0), BuildingBlock: MIFKUJ_clean_linker_0, # of connection points: 2
#     Edge 13, Type (0, 0), BuildingBlock: MIFKUJ_clean_linker_0, # of connection points: 2
#     Edge 14, Type (0, 0), BuildingBlock: MIFKUJ_clean_linker_0, # of connection points: 2
#     Edge 15, Type (0, 0), BuildingBlock: MIFKUJ_clean_linker_0, # of connection points: 2
#     Edge 16, Type (0, 0), BuildingBlock: MIFKUJ_clean_linker_0, # of connection points: 2
#     Edge 17, Type (0, 0), BuildingBlock: MIFKUJ_clean_linker_0, # of connection points: 2
#     Edge 18, Type (0, 0), BuildingBlock: MIFKUJ_clean_linker_0, # of connection points: 2
#     Edge 19, Type (0, 0), BuildingBlock: MIFKUJ_clean_linker_0, # of connection points: 2
#     Edge 20, Type (0, 0), BuildingBlock: MIFKUJ_clean_linker_0, # of connection points: 2
#     Edge 21, Type (0, 0), BuildingBlock: MIFKUJ_clean_linker_0, # of connection points: 2
#     Edge 22, Type (0, 0), BuildingBlock: MIFKUJ_clean_linker_0, # of connection points: 2
#     Edge 23, Type (0, 0), BuildingBlock: MIFKUJ_clean_linker_0, # of connection points: 2
#     Edge 24, Type (0, 0), BuildingBlock: MIFKUJ_clean_linker_0, # of connection points: 2
#     Edge 25, Type (0, 0), BuildingBlock: MIFKUJ_clean_linker_0, # of connection points: 2
#     Edge 26, Type (0, 0), BuildingBlock: MIFKUJ_clean_linker_0, # of connection points: 2
#     Edge 27, Type (0, 0), BuildingBlock: MIFKUJ_clean_linker_0, # of connection points: 2
#     Edge 28, Type (0, 0), BuildingBlock: MIFKUJ_clean_linker_0, # of connection points: 2
#     Edge 29, Type (0, 0), BuildingBlock: MIFKUJ_clean_linker_0, # of connection points: 2
#     Edge 30, Type (0, 0), BuildingBlock: MIFKUJ_clean_linker_0, # of connection points: 2
#     Edge 31, Type (0, 0), BuildingBlock: MIFKUJ_clean_linker_0, # of connection points: 2
#     Edge 32, Type (0, 0), BuildingBlock: MIFKUJ_clean_linker_0, # of connection points: 2
#     Edge 33, Type (0, 0), BuildingBlock: MIFKUJ_clean_linker_0, # of connection points: 2
#     Edge 34, Type (0, 0), BuildingBlock: MIFKUJ_clean_linker_0, # of connection points: 2
#     Edge 35, Type (0, 0), BuildingBlock: MIFKUJ_clean_linker_0, # of connection points: 2
# Relax obj value: 0.106
# Max RMSD: 0.082
# Mean RMSD: 0.082
data_MOF--net-ukf--node1-CEKHIL_clean_sbu_0--edge1-MIFKUJ_clean_linker_0
_symmetry_space_group_name_H-M    P1
_symmetry_Int_Tables_number       1
_symmetry_cell_setting            triclinic
loop_
_symmetry_equiv_pos_as_xyz
'x, y, z'
_cell_length_a     42.056973
_cell_length_b     42.094554
_cell_length_c     82.333667
_cell_angle_alpha  89.995225
_cell_angle_beta   90.044087
_cell_angle_gamma 120.01695
loop_
_atom_site_label
_atom_site_type_symbol
_atom_site_fract_x
_atom_site_fract_y
_atom_site_fract_z
_atom_type_partial_charge
Co0 Co 0.43434 0.25191 0.04838 0.0
O1 O 0.46762 0.30048 0.05625 0.0
O2 O 0.41139 0.28251 0.04778 0.0
C3 C 0.47671 0.25024 0.0323 0.0
O4 O 0.39306 0.2036 0.03873 0.0
Co5 Co 0.45221 0.18923 0.05434 0.0
O6 O 0.41202 0.16197 0.03866 0.0
C7 C 0.42294 0.21444 0.08107 0.0
C8 C 0.44265 0.30899 0.05318 0.0
C9 C 0.38908 0.17206 0.03482 0.0
O10 O 0.41657 0.23463 0.0713 0.0
O11 O 0.4395 0.19727 0.07674 0.0
O12 O 0.45818 0.26521 0.02701 0.0
O13 O 0.47051 0.23878 0.04706 0.0
Co14 Co 0.17596 0.42139 0.3801 0.0
O15 O 0.16288 0.45567 0.38903 0.0
O16 O 0.12305 0.40142 0.37896 0.0
C17 C 0.22218 0.46338 0.36475 0.0
O18 O 0.17989 0.37929 0.36929 0.0
Co19 Co 0.25421 0.4319 0.38583 0.0
O20 O 0.23982 0.39582 0.36807 0.0
C21 C 0.19794 0.40068 0.41183 0.0
C22 C 0.12918 0.43241 0.38521 0.0
C23 C 0.20635 0.37453 0.3643 0.0
O24 O 0.17306 0.40013 0.40247 0.0
O25 O 0.23155 0.41389 0.40766 0.0
O26 O 0.1886 0.44818 0.35951 0.0
O27 O 0.22642 0.45476 0.37928 0.0
Co28 Co 0.75376 0.1851 0.7127 0.0
O29 O 0.70328 0.16959 0.71714 0.0
O30 O 0.72313 0.13156 0.71088 0.0
C31 C 0.76196 0.2315 0.69624 0.0
O32 O 0.80501 0.19352 0.70663 0.0
Co33 Co 0.81226 0.26509 0.72331 0.0
O34 O 0.84602 0.25324 0.71162 0.0
C35 C 0.77601 0.2066 0.74774 0.0
C36 C 0.69547 0.1363 0.71425 0.0
C37 C 0.83798 0.22155 0.7064 0.0
O38 O 0.76309 0.18168 0.73661 0.0
O39 O 0.79231 0.24102 0.7447 0.0
O40 O 0.74789 0.19846 0.69044 0.0
O41 O 0.76772 0.23437 0.71163 0.0
Co42 Co 0.57133 0.7541 0.04695 0.0
O43 O 0.53433 0.70548 0.05329 0.0
O44 O 0.59174 0.72133 0.04784 0.0
C45 C 0.5356 0.76104 0.02854 0.0
O46 O 0.61627 0.80224 0.03929 0.0
Co47 Co 0.55542 0.81868 0.05247 0.0
O48 O 0.60085 0.84662 0.03967 0.0
C49 C 0.57624 0.7881 0.08015 0.0
C50 C 0.55869 0.69552 0.05166 0.0
C51 C 0.62313 0.83531 0.03642 0.0
O52 O 0.58416 0.76882 0.07053 0.0
O53 O 0.56133 0.80651 0.07531 0.0
O54 O 0.55256 0.74352 0.02457 0.0
O55 O 0.53836 0.77069 0.04352 0.0
Co56 Co 0.83116 0.58081 0.37743 0.0
O57 O 0.85039 0.54957 0.38345 0.0
O58 O 0.88454 0.60664 0.37481 0.0
C59 C 0.78508 0.53781 0.36231 0.0
O60 O 0.81874 0.61979 0.36942 0.0
Co61 Co 0.75082 0.55717 0.38821 0.0
O62 O 0.75726 0.59429 0.37182 0.0
C63 C 0.81122 0.58734 0.41206 0.0
C64 C 0.8825 0.57611 0.37952 0.0
C65 C 0.7883 0.61953 0.36664 0.0
O66 O 0.83544 0.59821 0.40068 0.0
O67 O 0.77664 0.56741 0.40961 0.0
O68 O 0.81765 0.55693 0.35606 0.0
O69 O 0.78252 0.54318 0.37751 0.0
Co70 Co 0.24886 0.82213 0.7134 0.0
O71 O 0.29713 0.83496 0.72101 0.0
O72 O 0.28171 0.87528 0.71275 0.0
C73 C 0.24335 0.77661 0.69713 0.0
O74 O 0.20134 0.8177 0.70391 0.0
Co75 Co 0.18303 0.74288 0.71992 0.0
O76 O 0.15742 0.75774 0.70426 0.0
C77 C 0.21592 0.79674 0.74663 0.0
C78 C 0.30727 0.86887 0.71795 0.0
C79 C 0.16907 0.79093 0.70017 0.0
O80 O 0.23305 0.82349 0.73654 0.0
O81 O 0.19804 0.76302 0.74231 0.0
O82 O 0.2608 0.8103 0.69199 0.0
O83 O 0.23234 0.77224 0.71195 0.0
Co84 Co 0.75181 0.58069 0.61079 0.0
O85 O 0.70076 0.55329 0.60495 0.0
O86 O 0.72704 0.608 0.61655 0.0
C87 C 0.75297 0.53314 0.6228 0.0
O88 O 0.80468 0.61579 0.61873 0.0
Co89 Co 0.80326 0.55469 0.59546 0.0
O90 O 0.83957 0.59192 0.61042 0.0
C91 C 0.77356 0.59186 0.5755 0.0
C92 C 0.6974 0.57992 0.6108 0.0
C93 C 0.83557 0.61596 0.61816 0.0
O94 O 0.76398 0.60279 0.58823 0.0
O95 O 0.78543 0.56919 0.57587 0.0
O96 O 0.74194 0.55228 0.63093 0.0
O97 O 0.75952 0.54137 0.60768 0.0
Co98 Co 0.17405 0.75298 0.95048 0.0
O99 O 0.15817 0.70298 0.9446 0.0
O100 O 0.121 0.72222 0.95336 0.0
C101 C 0.22212 0.75996 0.96527 0.0
O102 O 0.18206 0.80291 0.95853 0.0
Co103 Co 0.25244 0.81518 0.93987 0.0
O104 O 0.24165 0.84558 0.95451 0.0
C105 C 0.19105 0.78488 0.91634 0.0
C106 C 0.12534 0.69504 0.94872 0.0
C107 C 0.20978 0.83579 0.96002 0.0
O108 O 0.1677 0.7648 0.92728 0.0
O109 O 0.22561 0.80465 0.91878 0.0
O110 O 0.18957 0.74438 0.97168 0.0
O111 O 0.224 0.76804 0.9501 0.0
Co112 Co 0.42834 0.17899 0.2823 0.0
O113 O 0.46242 0.16609 0.27312 0.0
O114 O 0.4079 0.1258 0.28264 0.0
C115 C 0.47075 0.22384 0.29803 0.0
O116 O 0.38669 0.18348 0.29337 0.0
Co117 Co 0.44084 0.25808 0.27725 0.0
O118 O 0.40622 0.24394 0.29557 0.0
C119 C 0.40766 0.20275 0.25098 0.0
C120 C 0.43914 0.13221 0.27651 0.0
C121 C 0.38374 0.21059 0.29902 0.0
O122 O 0.40724 0.1775 0.26002 0.0
O123 O 0.42133 0.23623 0.25541 0.0
O124 O 0.45498 0.19003 0.30291 0.0
O125 O 0.46251 0.22911 0.2836 0.0
Co126 Co 0.25091 0.42393 0.61433 0.0
O127 O 0.29856 0.45635 0.60513 0.0
O128 O 0.28232 0.40225 0.6159 0.0
C129 C 0.24907 0.46795 0.62914 0.0
O130 O 0.2041 0.38365 0.62549 0.0
Co131 Co 0.18552 0.4383 0.60826 0.0
O132 O 0.16088 0.40059 0.62514 0.0
C133 C 0.20957 0.40583 0.58236 0.0
C134 C 0.30786 0.43249 0.60936 0.0
C135 C 0.17242 0.37916 0.62958 0.0
O136 O 0.23158 0.402 0.59207 0.0
O137 O 0.19186 0.42206 0.58636 0.0
O138 O 0.26632 0.45186 0.63468 0.0
O139 O 0.23596 0.45882 0.61469 0.0
Co140 Co 0.82957 0.24567 0.94682 0.0
O141 O 0.84427 0.29355 0.93811 0.0
O142 O 0.882 0.27897 0.95028 0.0
C143 C 0.7797 0.24018 0.95963 0.0
O144 O 0.82321 0.19883 0.95787 0.0
Co145 Co 0.75315 0.17862 0.93757 0.0
O146 O 0.76422 0.15366 0.95502 0.0
C147 C 0.8157 0.20564 0.91462 0.0
C148 C 0.87705 0.30405 0.94339 0.0
C149 C 0.79632 0.16618 0.96086 0.0
O150 O 0.8381 0.22943 0.92491 0.0
O151 O 0.78129 0.18487 0.91717 0.0
O152 O 0.81178 0.25773 0.96649 0.0
O153 O 0.77922 0.22865 0.9451 0.0
Co154 Co 0.57746 0.82279 0.28136 0.0
O155 O 0.54452 0.83752 0.27246 0.0
O156 O 0.59724 0.87557 0.28426 0.0
C157 C 0.53255 0.77372 0.29435 0.0
O158 O 0.61727 0.81574 0.29283 0.0
Co159 Co 0.56726 0.74596 0.2728 0.0
O160 O 0.59566 0.75479 0.29302 0.0
C161 C 0.60398 0.80748 0.24948 0.0
C162 C 0.56693 0.8704 0.27753 0.0
C163 C 0.6179 0.78705 0.29808 0.0
O164 O 0.6023 0.83019 0.25949 0.0
O165 O 0.59042 0.77323 0.25236 0.0
O166 O 0.54732 0.80597 0.30103 0.0
O167 O 0.54373 0.77271 0.2799 0.0
H168 H 0.21913 0.89641 0.94502 0.0
H169 H 0.23515 0.95468 0.95802 0.0
H170 H 0.21143 0.90227 0.00492 0.0
H171 H 0.19536 0.84346 0.99181 0.0
H172 H 0.19595 0.96681 -0.00018 0.0
H173 H 0.29006 0.93267 0.99637 0.0
H174 H 0.32532 0.90912 0.98188 0.0
H175 H 0.36235 0.99716 0.94742 0.0
H176 H 0.32659 0.02076 0.96153 0.0
H177 H 0.32804 0.1169 0.04847 0.0
H178 H 0.28307 0.06014 0.03499 0.0
H179 H 0.33255 0.10625 0.98865 0.0
H180 H 0.37796 0.16282 0.00228 0.0
H181 H 0.33097 0.04412 0.99332 0.0
H182 H 0.24202 0.08227 -0.00191 0.0
H183 H 0.20536 0.10526 0.01177 0.0
H184 H 0.15842 0.01141 0.04328 0.0
H185 H 0.1952 0.9881 0.02994 0.0
C186 C 0.21562 0.89692 0.95804 0.0
C187 C 0.20571 0.86546 0.96742 0.0
C188 C 0.22493 0.93027 0.96546 0.0
C189 C 0.22478 0.93288 0.98243 0.0
C190 C 0.21145 0.90075 0.99179 0.0
C191 C 0.20211 0.86715 0.98431 0.0
C192 C 0.24481 0.96972 0.99015 0.0
C193 C 0.2255 0.98367 -0.00138 0.0
C194 C 0.28326 0.99195 0.98822 0.0
C195 C 0.3053 0.97821 0.97989 0.0
C196 C 0.30543 0.9468 0.98561 0.0
C197 C 0.32554 0.93346 0.97748 0.0
C198 C 0.34598 0.95158 0.96371 0.0
C199 C 0.34644 0.98312 0.95807 0.0
C200 C 0.32625 0.99648 0.96613 0.0
C201 C 0.32815 0.11544 0.03533 0.0
C202 C 0.35584 0.14442 0.02634 0.0
C203 C 0.30252 0.08292 0.02761 0.0
C204 C 0.30422 0.07876 0.01075 0.0
C205 C 0.33055 0.10874 0.00165 0.0
C206 C 0.35623 0.14124 0.00939 0.0
C207 C 0.28228 0.04189 0.00303 0.0
C208 C 0.30137 0.02766 0.99454 0.0
C209 C 0.24372 0.01962 0.00501 0.0
C210 C 0.22166 0.03361 0.01311 0.0
C211 C 0.22414 0.06669 0.00803 0.0
C212 C 0.20328 0.07975 0.01571 0.0
C213 C 0.17965 0.05986 0.02841 0.0
C214 C 0.17677 0.02682 0.03345 0.0
C215 C 0.19759 0.01365 0.02582 0.0
H216 H 0.1635 0.07 0.03433 0.0
H217 H 0.36155 0.94123 0.95743 0.0
H218 H 0.18707 0.30814 0.377 0.0
H219 H 0.20152 0.26382 0.36474 0.0
H220 H 0.22714 0.32332 0.31954 0.0
H221 H 0.21375 0.3682 0.33197 0.0
H222 H 0.18966 0.21772 0.3371 0.0
H223 H 0.31084 0.34456 0.30962 0.0
H224 H 0.34294 0.41192 0.31283 0.0
H225 H 0.31725 0.39955 0.36372 0.0
H226 H 0.28536 0.33218 0.36083 0.0
H227 H 0.31246 0.17889 0.28914 0.0
H228 H 0.26666 0.19232 0.30076 0.0
H229 H 0.33858 0.24597 0.34142 0.0
H230 H 0.38436 0.23324 0.32965 0.0
H231 H 0.32329 0.29167 0.32592 0.0
H232 H 0.25392 0.16849 0.34622 0.0
H233 H 0.22069 0.10098 0.34437 0.0
H234 H 0.1442 0.10414 0.31076 0.0
H235 H 0.1773 0.17174 0.31223 0.0
C236 C 0.19377 0.3105 0.36419 0.0
C237 C 0.19887 0.34125 0.35534 0.0
C238 C 0.20219 0.28524 0.3572 0.0
C239 C 0.21597 0.29054 0.3413 0.0
C240 C 0.21676 0.3188 0.33187 0.0
C241 C 0.20879 0.34428 0.33891 0.0
C242 C 0.23662 0.27217 0.33593 0.0
C243 C 0.2188 0.23378 0.33452 0.0
C244 C 0.27484 0.29302 0.33294 0.0
C245 C 0.29559 0.33344 0.33498 0.0
C246 C 0.31234 0.35627 0.32151 0.0
C247 C 0.3304 0.39442 0.32327 0.0
C248 C 0.33206 0.41 0.33846 0.0
C249 C 0.3159 0.38746 0.35196 0.0
C250 C 0.29785 0.34931 0.35027 0.0
C251 C 0.31753 0.19179 0.30098 0.0
C252 C 0.35166 0.20456 0.30865 0.0
C253 C 0.2915 0.19979 0.30755 0.0
C254 C 0.29927 0.22052 0.32191 0.0
C255 C 0.33198 0.23016 0.33029 0.0
C256 C 0.35797 0.22245 0.32368 0.0
C257 C 0.27651 0.23691 0.32698 0.0
C258 C 0.29408 0.27528 0.32834 0.0
C259 C 0.23829 0.21584 0.33008 0.0
C260 C 0.21832 0.17521 0.32921 0.0
C261 C 0.23021 0.15482 0.33832 0.0
C262 C 0.21136 0.11653 0.33736 0.0
C263 C 0.18042 0.09829 0.32742 0.0
C264 C 0.1682 0.11831 0.31844 0.0
C265 C 0.18698 0.15661 0.31935 0.0
H266 H 0.16586 0.06864 0.32669 0.0
H267 H 0.3459 0.43953 0.33978 0.0
H268 H 0.84481 0.19283 0.67733 0.0
H269 H 0.9033 0.20538 0.66482 0.0
H270 H 0.96065 0.25833 0.70894 0.0
H271 H 0.90294 0.24595 0.72131 0.0
H272 H 0.98386 0.30378 0.68153 0.0
H273 H 0.95869 0.18316 0.69773 0.0
H274 H 0.92268 0.11561 0.69866 0.0
H275 H 0.92977 0.11086 0.64678 0.0
H276 H 0.96538 0.17846 0.64551 0.0
H277 H 0.16541 0.37238 0.66233 0.0
H278 H 0.10868 0.33033 0.67674 0.0
H279 H 0.06062 0.27399 0.63179 0.0
H280 H 0.11762 0.31564 0.61749 0.0
H281 H 0.03137 0.22679 0.65836 0.0
H282 H 0.0515 0.34396 0.64112 0.0
H283 H 0.08655 0.41134 0.63855 0.0
H284 H 0.08531 0.42224 0.69036 0.0
H285 H 0.0508 0.35483 0.69326 0.0
C286 C 0.86973 0.20577 0.68451 0.0
C287 C 0.86942 0.2185 0.70026 0.0
C288 C 0.90315 0.21313 0.67735 0.0
C289 C 0.93643 0.23314 0.68591 0.0
C290 C 0.93543 0.24306 0.70207 0.0
C291 C 0.90238 0.23583 0.70915 0.0
C292 C 0.97266 0.24851 0.67766 0.0
C293 C 0.99437 0.28685 0.67668 0.0
C294 C 0.98588 0.22651 0.67076 0.0
C295 C 0.96432 0.1859 0.67151 0.0
C296 C 0.95222 0.16774 0.6865 0.0
C297 C 0.93197 0.12943 0.6871 0.0
C298 C 0.92384 0.10895 0.67279 0.0
C299 C 0.93603 0.12676 0.65785 0.0
C300 C 0.95627 0.16507 0.65719 0.0
C301 C 0.14347 0.34973 0.65574 0.0
C302 C 0.146 0.34679 0.63889 0.0
C303 C 0.11089 0.32594 0.66392 0.0
C304 C 0.08009 0.29938 0.65529 0.0
C305 C 0.08393 0.29413 0.63872 0.0
C306 C 0.11659 0.31783 0.63057 0.0
C307 C 0.04285 0.28199 0.66277 0.0
C308 C 0.02084 0.24355 0.66336 0.0
C309 C 0.02883 0.3038 0.66912 0.0
C310 C 0.04893 0.34436 0.66742 0.0
C311 C 0.05891 0.36072 0.65197 0.0
C312 C 0.07867 0.39891 0.65045 0.0
C313 C 0.08824 0.42106 0.66429 0.0
C314 C 0.07793 0.40504 0.67966 0.0
C315 C 0.05828 0.36685 0.68125 0.0
H316 H 0.10357 0.45063 0.66309 0.0
H317 H 0.90818 0.07929 0.67328 0.0
H318 H 0.67571 0.89197 0.05317 0.0
H319 H 0.72274 0.95015 0.04159 0.0
H320 H 0.6963 0.90262 0.99366 0.0
H321 H 0.64885 0.84408 0.00532 0.0
H322 H 0.77633 0.96152 -0.00012 0.0
H323 H 0.65091 0.93723 0.00304 0.0
H324 H 0.59248 0.91743 0.01736 0.0
H325 H 0.64841 0.00311 0.05256 0.0
H326 H 0.70736 0.02293 0.03861 0.0
H327 H 0.79955 0.10835 0.9491 0.0
H328 H 0.78695 0.05336 0.96419 0.0
H329 H 0.78914 0.10738 0.00908 0.0
H330 H 0.80112 0.16241 0.99377 0.0
H331 H 0.72718 0.04622 0.00636 0.0
H332 H 0.85179 0.07682 0.00057 0.0
H333 H 0.91029 0.0959 0.98646 0.0
H334 H 0.85764 0.99994 0.95629 0.0
H335 H 0.79866 0.9805 0.97007 0.0
C336 C 0.68127 0.89339 0.04026 0.0
C337 C 0.65909 0.86349 0.03014 0.0
C338 C 0.70799 0.9267 0.03364 0.0
C339 C 0.71282 0.93081 0.01676 0.0
C340 C 0.69321 0.89993 0.00673 0.0
C341 C 0.66625 0.86645 0.01339 0.0
C342 C 0.73268 0.96828 0.00966 0.0
C343 C 0.76561 0.98007 0.00115 0.0
C344 C 0.71905 0.99269 0.01166 0.0
C345 C 0.68358 0.98126 0.01991 0.0
C346 C 0.6508 0.95163 0.01392 0.0
C347 C 0.61758 0.94043 0.02195 0.0
C348 C 0.61675 0.95894 0.03589 0.0
C349 C 0.64912 0.98875 0.04178 0.0
C350 C 0.68243 0.99998 0.03382 0.0
C351 C 0.79907 0.10902 0.96226 0.0
C352 C 0.80202 0.13977 0.97033 0.0
C353 C 0.79177 0.0775 0.9709 0.0
C354 C 0.78719 0.07605 0.98784 0.0
C355 C 0.79267 0.1078 0.99603 0.0
C356 C 0.79997 0.13941 0.98734 0.0
C357 C 0.77128 0.04008 0.99646 0.0
C358 C 0.7386 0.02823 0.00522 0.0
C359 C 0.78528 0.0158 0.99461 0.0
C360 C 0.8207 0.02734 0.98629 0.0
C361 C 0.8526 0.05992 0.99084 0.0
C362 C 0.88587 0.07077 0.98292 0.0
C363 C 0.88767 0.04918 0.97046 0.0
C364 C 0.8562 0.01664 0.96594 0.0
C365 C 0.82285 0.00566 0.97382 0.0
H366 H 0.91345 0.05764 0.96434 0.0
H367 H 0.591 0.95024 0.0421 0.0
H368 H 0.6921 0.83803 0.29851 0.0
H369 H 0.73983 0.83082 0.3126 0.0
H370 H 0.65546 0.73327 0.33615 0.0
H371 H 0.60853 0.7411 0.32266 0.0
H372 H 0.70911 0.76406 0.35584 0.0
H373 H 0.69764 0.73376 0.29787 0.0
H374 H 0.70161 0.74888 0.2687 0.0
H375 H 0.81527 0.83053 0.27445 0.0
H376 H 0.81179 0.81609 0.3037 0.0
H377 H 0.73411 0.61399 0.34719 0.0
H378 H 0.72503 0.66326 0.33716 0.0
H379 H 0.83089 0.74347 0.35596 0.0
H380 H 0.84017 0.69362 0.36637 0.0
H381 H 0.7875 0.74242 0.31765 0.0
H382 H 0.79505 0.7582 0.3775 0.0
H383 H 0.78292 0.73083 0.40492 0.0
H384 H 0.6681 0.66587 0.39366 0.0
H385 H 0.67968 0.69244 0.36611 0.0
C386 C 0.68395 0.81597 0.3072 0.0
C387 C 0.64663 0.78999 0.30942 0.0
C388 C 0.71121 0.81154 0.31509 0.0
C389 C 0.7014 0.78096 0.32521 0.0
C390 C 0.66404 0.75704 0.32843 0.0
C391 C 0.63709 0.7615 0.32066 0.0
C392 C 0.72872 0.77077 0.33119 0.0
C393 C 0.72692 0.76024 0.34753 0.0
C394 C 0.75225 0.76567 0.32048 0.0
C395 C 0.75434 0.77423 0.30295 0.0
C396 C 0.7234 0.75508 0.2929 0.0
C397 C 0.72556 0.7635 0.27637 0.0
C398 C 0.75864 0.79074 0.26974 0.0
C399 C 0.78965 0.80952 0.27961 0.0
C400 C 0.7876 0.80124 0.29616 0.0
C401 C 0.7559 0.64208 0.34895 0.0
C402 C 0.78774 0.6499 0.35772 0.0
C403 C 0.75066 0.67021 0.34316 0.0
C404 C 0.77708 0.70694 0.34595 0.0
C405 C 0.81014 0.7152 0.35372 0.0
C406 C 0.8155 0.68676 0.35958 0.0
C407 C 0.7672 0.7354 0.34211 0.0
C408 C 0.77157 0.74853 0.32615 0.0
C409 C 0.74541 0.74224 0.35304 0.0
C410 C 0.73828 0.72715 0.36975 0.0
C411 C 0.76727 0.73794 0.38087 0.0
C412 C 0.76049 0.72258 0.39643 0.0
C413 C 0.72477 0.69658 0.40102 0.0
C414 C 0.69574 0.686 0.39009 0.0
C415 C 0.7024 0.70123 0.37452 0.0
H416 H 0.71954 0.68462 0.41304 0.0
H417 H 0.76026 0.79723 0.25694 0.0
H418 H 0.84164 0.66107 0.64415 0.0
H419 H 0.89844 0.70351 0.65893 0.0
H420 H 0.96156 0.67868 0.62531 0.0
H421 H 0.90609 0.63705 0.61074 0.0
H422 H 0.97544 0.66903 0.65634 0.0
H423 H 0.96546 0.76029 0.62455 0.0
H424 H 0.93549 0.79453 0.61517 0.0
H425 H 0.93457 0.82984 0.66401 0.0
H426 H 0.96409 0.79533 0.67372 0.0
H427 H 0.15891 0.78411 0.66776 0.0
H428 H 0.10112 0.7677 0.65398 0.0
H429 H 0.05981 0.78999 0.69782 0.0
H430 H 0.1178 0.80638 0.71166 0.0
H431 H 0.03133 0.80306 0.66536 0.0
H432 H 0.04203 0.71167 0.69688 0.0
H433 H 0.0749 0.67978 0.70559 0.0
H434 H 0.07447 0.64496 0.65653 0.0
H435 H 0.04216 0.67726 0.64748 0.0
C436 C 0.86774 0.66516 0.63982 0.0
C437 C 0.8691 0.64513 0.6264 0.0
C438 C 0.90016 0.68939 0.64827 0.0
C439 C 0.93431 0.69402 0.64332 0.0
C440 C 0.93563 0.6753 0.62951 0.0
C441 C 0.90365 0.65135 0.62118 0.0
C442 C 0.96877 0.71612 0.65281 0.0
C443 C 0.98753 0.69834 0.65825 0.0
C444 C 0.98438 0.75425 0.65571 0.0
C445 C 0.9665 0.77482 0.64989 0.0
C446 C 0.9585 0.77502 0.63332 0.0
C447 C 0.94168 0.79456 0.62793 0.0
C448 C 0.933 0.81424 0.639 0.0
C449 C 0.94122 0.81451 0.65546 0.0
C450 C 0.95801 0.79497 0.66091 0.0
C451 C 0.13836 0.78764 0.67415 0.0
C452 C 0.14303 0.79718 0.69066 0.0
C453 C 0.10521 0.77797 0.66631 0.0
C454 C 0.07604 0.77735 0.67491 0.0
C455 C 0.08203 0.79059 0.69092 0.0
C456 C 0.11525 0.80016 0.69879 0.0
C457 C 0.03806 0.75595 0.66832 0.0
C458 C 0.01877 0.77368 0.66358 0.0
C459 C 0.02168 0.71762 0.66601 0.0
C460 C 0.03999 0.69714 0.67149 0.0
C461 C 0.04915 0.69739 0.68794 0.0
C462 C 0.06766 0.67924 0.69293 0.0
C463 C 0.07684 0.66042 0.68161 0.0
C464 C 0.06737 0.65958 0.66528 0.0
C465 C 0.04893 0.67778 0.66021 0.0
H466 H 0.09124 0.64644 0.6855 0.0
H467 H 0.92001 0.82937 0.6348 0.0
H468 H 0.77339 0.26657 0.98903 0.0
H469 H 0.71834 0.26396 0.00038 0.0
H470 H 0.65554 0.20187 0.95878 0.0
H471 H 0.71041 0.20464 0.94731 0.0
H472 H 0.64499 0.25941 0.9656 0.0
H473 H 0.64397 0.15979 0.99477 0.0
H474 H 0.67075 0.13093 0.01183 0.0
H475 H 0.68879 0.20708 0.05028 0.0
H476 H 0.66258 0.23673 0.03337 0.0
H477 H 0.47522 0.22838 0.00085 0.0
H478 H 0.52369 0.22211 0.98706 0.0
H479 H 0.59308 0.26679 0.02937 0.0
H480 H 0.54405 0.27053 0.04333 0.0
H481 H 0.59614 0.21144 0.02049 0.0
H482 H 0.60424 0.31542 0.99147 0.0
H483 H 0.58072 0.3478 0.97471 0.0
H484 H 0.55297 0.26834 0.93668 0.0
H485 H 0.57594 0.23526 0.95331 0.0
C486 C 0.74775 0.252 0.98242 0.0
C487 C 0.74615 0.23583 0.96731 0.0
C488 C 0.71635 0.2505 0.9889 0.0
C489 C 0.6829 0.23258 0.98042 0.0
C490 C 0.68113 0.21586 0.96548 0.0
C491 C 0.71246 0.21735 0.95899 0.0
C492 C 0.65006 0.23245 0.98687 0.0
C493 C 0.63389 0.24848 0.97752 0.0
C494 C 0.63617 0.21876 0.0025 0.0
C495 C 0.65153 0.20063 0.01275 0.0
C496 C 0.65385 0.17053 0.00683 0.0
C497 C 0.6689 0.15401 0.01647 0.0
C498 C 0.68152 0.1672 0.03211 0.0
C499 C 0.67902 0.19689 0.03816 0.0
C500 C 0.66402 0.21353 0.02856 0.0
C501 C 0.50105 0.23707 0.00702 0.0
C502 C 0.5062 0.24983 0.02306 0.0
C503 C 0.52873 0.23364 -0.00082 0.0
C504 C 0.56222 0.24417 0.00715 0.0
C505 C 0.56746 0.25811 0.02301 0.0
C506 C 0.53956 0.26044 0.03095 0.0
C507 C 0.5916 0.23961 -0.00053 0.0
C508 C 0.60702 0.22234 0.00855 0.0
C509 C 0.60516 0.25272 0.98369 0.0
C510 C 0.59142 0.27265 0.9737 0.0
C511 C 0.59288 0.30472 0.97958 0.0
C512 C 0.57969 0.32322 0.9701 0.0
C513 C 0.56526 0.31007 0.95466 0.0
C514 C 0.56409 0.27845 0.94865 0.0
C515 C 0.57721 0.25984 0.95809 0.0
H516 H 0.55506 0.32443 0.94734 0.0
H517 H 0.69318 0.15439 0.03956 0.0
H518 H 0.22372 0.51461 0.34424 0.0
H519 H 0.27802 0.56566 0.33176 0.0
H520 H 0.34525 0.52367 0.3512 0.0
H521 H 0.29138 0.47422 0.36459 0.0
H522 H 0.37829 0.59143 0.35635 0.0
H523 H 0.32024 0.51924 0.30879 0.0
H524 H 0.26958 0.48492 0.28942 0.0
H525 H 0.26446 0.5824 0.27945 0.0
H526 H 0.31479 0.61719 0.29891 0.0
H527 H 0.50337 0.70368 0.28357 0.0
H528 H 0.45259 0.64843 0.29532 0.0
H529 H 0.44523 0.7127 0.33443 0.0
H530 H 0.49676 0.76826 0.32285 0.0
H531 H 0.38411 0.63207 0.29935 0.0
H532 H 0.41357 0.65909 0.36837 0.0
H533 H 0.46688 0.68991 0.38677 0.0
H534 H 0.53432 0.67534 0.35186 0.0
H535 H 0.48133 0.64395 0.33337 0.0
C536 C 0.25007 0.51611 0.3456 0.0
C537 C 0.25357 0.49066 0.35531 0.0
C538 C 0.28107 0.54518 0.33844 0.0
C539 C 0.3158 0.5484 0.34038 0.0
C540 C 0.31887 0.52198 0.3496 0.0
C541 C 0.28809 0.49362 0.35716 0.0
C542 C 0.34922 0.58022 0.33355 0.0
C543 C 0.37954 0.60015 0.34385 0.0
C544 C 0.35116 0.59156 0.31721 0.0
C545 C 0.3211 0.57074 0.3054 0.0
C546 C 0.30817 0.5333 0.30253 0.0
C547 C 0.27953 0.51377 0.29153 0.0
C548 C 0.26377 0.53145 0.28323 0.0
C549 C 0.27668 0.56873 0.28589 0.0
C550 C 0.30529 0.58838 0.29689 0.0
C551 C 0.49123 0.70604 0.29477 0.0
C552 C 0.50394 0.74025 0.30231 0.0
C553 C 0.46212 0.67445 0.30143 0.0
C554 C 0.44515 0.67646 0.31573 0.0
C555 C 0.45823 0.71051 0.32347 0.0
C556 C 0.48758 0.74219 0.31685 0.0
C557 C 0.41294 0.64302 0.32214 0.0
C558 C 0.38282 0.62307 0.3118 0.0
C559 C 0.41158 0.63105 0.33829 0.0
C560 C 0.44354 0.64952 0.34942 0.0
C561 C 0.43974 0.66234 0.36465 0.0
C562 C 0.46991 0.67992 0.3751 0.0
C563 C 0.50399 0.68469 0.37047 0.0
C564 C 0.50794 0.67176 0.35541 0.0
C565 C 0.47786 0.65411 0.34494 0.0
H566 H 0.52731 0.69833 0.37856 0.0
H567 H 0.24158 0.51628 0.27473 0.0
H568 H 0.78428 0.29996 0.70739 0.0
H569 H 0.78631 0.35101 0.69259 0.0
H570 H 0.75513 0.28713 0.64853 0.0
H571 H 0.75209 0.23495 0.66343 0.0
H572 H 0.82395 0.37881 0.65338 0.0
H573 H 0.6919 0.28401 0.65382 0.0
H574 H 0.63735 0.23598 0.66805 0.0
H575 H 0.65017 0.31329 0.70513 0.0
H576 H 0.70519 0.36161 0.69121 0.0
H577 H 0.77492 0.49022 0.60755 0.0
H578 H 0.78039 0.43982 0.61901 0.0
H579 H 0.74763 0.45936 0.66591 0.0
H580 H 0.74147 0.50975 0.65438 0.0
H581 H 0.71131 0.38819 0.65867 0.0
H582 H 0.83625 0.48374 0.65851 0.0
H583 H 0.89352 0.5343 0.64717 0.0
H584 H 0.89861 0.46022 0.61282 0.0
H585 H 0.84101 0.40928 0.6238 0.0
C586 C 0.77828 0.29676 0.6945 0.0
C587 C 0.7677 0.26335 0.68656 0.0
C588 C 0.77953 0.32601 0.68609 0.0
C589 C 0.77067 0.32254 0.66958 0.0
C590 C 0.76198 0.29003 0.66133 0.0
C591 C 0.76024 0.26038 0.66982 0.0
C592 C 0.76789 0.35223 0.66154 0.0
C593 C 0.79915 0.38063 0.65412 0.0
C594 C 0.73604 0.35508 0.66332 0.0
C595 C 0.70283 0.32622 0.67159 0.0
C596 C 0.68329 0.29063 0.66509 0.0
C597 C 0.65225 0.26339 0.67308 0.0
C598 C 0.64037 0.27154 0.68752 0.0
C599 C 0.65944 0.30699 0.69397 0.0
C600 C 0.69053 0.3343 0.68603 0.0
C601 C 0.7691 0.48399 0.62033 0.0
C602 C 0.7578 0.50391 0.6301 0.0
C603 C 0.77239 0.45526 0.62687 0.0
C604 C 0.76478 0.44611 0.64333 0.0
C605 C 0.75367 0.46607 0.65316 0.0
C606 C 0.75027 0.49486 0.6466 0.0
C607 C 0.76723 0.41484 0.65007 0.0
C608 C 0.73602 0.38631 0.65753 0.0
C609 C 0.79939 0.41222 0.64849 0.0
C610 C 0.83408 0.44276 0.64186 0.0
C611 C 0.84939 0.47828 0.64844 0.0
C612 C 0.88195 0.507 0.6421 0.0
C613 C 0.89964 0.50049 0.62925 0.0
C614 C 0.88484 0.46523 0.62275 0.0
C615 C 0.85225 0.43641 0.62904 0.0
H616 H 0.92485 0.52276 0.62436 0.0
H617 H 0.61633 0.25043 0.69368 0.0
H618 H 0.22626 0.7073 0.98228 0.0
H619 H 0.2822 0.70889 0.99158 0.0
H620 H 0.34602 0.82245 0.97687 0.0
H621 H 0.29025 0.81959 0.96629 0.0
H622 H 0.37988 0.7921 0.96729 0.0
H623 H 0.32658 0.78974 0.01894 0.0
H624 H 0.2787 0.76753 0.0401 0.0
H625 H 0.27512 0.66379 0.04107 0.0
H626 H 0.32267 0.68523 0.01978 0.0
H627 H 0.52308 0.81808 0.02792 0.0
H628 H 0.47229 0.81987 0.01427 0.0
H629 H 0.43966 0.71533 0.99193 0.0
H630 H 0.49141 0.71401 0.00513 0.0
H631 H 0.39192 0.7405 0.01956 0.0
H632 H 0.44659 0.7483 0.96527 0.0
H633 H 0.4986 0.77786 0.94618 0.0
H634 H 0.5038 0.88137 0.95349 0.0
H635 H 0.45214 0.85245 0.97282 0.0
C636 C 0.25222 0.73275 0.9814 0.0
C637 C 0.25423 0.76345 0.97378 0.0
C638 C 0.2842 0.73374 0.98674 0.0
C639 C 0.31849 0.76597 0.98516 0.0
C640 C 0.32004 0.79719 0.97816 0.0
C641 C 0.28822 0.79574 0.97228 0.0
C642 C 0.35289 0.76654 0.98986 0.0
C643 C 0.38239 0.78105 0.97882 0.0
C644 C 0.35647 0.75191 0.00481 0.0
C645 C 0.32794 0.73899 0.01766 0.0
C646 C 0.3154 0.76211 0.02359 0.0
C647 C 0.28835 0.74967 0.03562 0.0
C648 C 0.27381 0.71424 0.04189 0.0
C649 C 0.28637 0.69121 0.03619 0.0
C650 C 0.3134 0.70351 0.02415 0.0
C651 C 0.5058 0.79611 0.01966 0.0
C652 C 0.51094 0.76589 0.01753 0.0
C653 C 0.47692 0.79718 0.01189 0.0
C654 C 0.45255 0.76783 0.0021 0.0
C655 C 0.45868 0.73846 -0.00073 0.0
C656 C 0.48817 0.73778 0.00676 0.0
C657 C 0.41801 0.76563 0.99697 0.0
C658 C 0.3888 0.75113 0.00802 0.0
C659 C 0.41502 0.78106 0.98228 0.0
C660 C 0.4459 0.79833 0.97064 0.0
C661 C 0.45914 0.77744 0.96296 0.0
C662 C 0.48846 0.79405 0.95205 0.0
C663 C 0.50459 0.8315 0.94867 0.0
C664 C 0.49134 0.85239 0.95614 0.0
C665 C 0.46204 0.8359 0.96707 0.0
H666 H 0.52728 0.84431 0.94022 0.0
H667 H 0.25287 0.70466 0.0512 0.0
H668 H 0.47379 0.28664 0.30801 0.0
H669 H 0.52714 0.34078 0.31934 0.0
H670 H 0.58894 0.28408 0.31766 0.0
H671 H 0.53441 0.22895 0.30768 0.0
H672 H 0.61083 0.32443 0.34192 0.0
H673 H 0.59276 0.34765 0.28686 0.0
H674 H 0.55878 0.35171 0.26327 0.0
H675 H 0.54408 0.43343 0.28784 0.0
H676 H 0.57756 0.4295 0.31167 0.0
H677 H 0.78508 0.49612 0.337 0.0
H678 H 0.73105 0.44304 0.32497 0.0
H679 H 0.65996 0.46457 0.35497 0.0
H680 H 0.71354 0.51652 0.36742 0.0
H681 H 0.64643 0.44334 0.31515 0.0
H682 H 0.66017 0.40902 0.37194 0.0
H683 H 0.69932 0.40512 0.39328 0.0
H684 H 0.72907 0.34399 0.36107 0.0
H685 H 0.69047 0.34806 0.33947 0.0
C686 C 0.49855 0.28562 0.31049 0.0
C687 C 0.5003 0.25394 0.30712 0.0
C688 C 0.52918 0.31666 0.31673 0.0
C689 C 0.56256 0.31704 0.31882 0.0
C690 C 0.56365 0.28464 0.31608 0.0
C691 C 0.53257 0.25315 0.31042 0.0
C692 C 0.59653 0.35141 0.32336 0.0
C693 C 0.6186 0.35022 0.33588 0.0
C694 C 0.60718 0.38531 0.31548 0.0
C695 C 0.5874 0.38805 0.3011 0.0
C696 C 0.58212 0.36635 0.28726 0.0
C697 C 0.56296 0.36864 0.27385 0.0
C698 C 0.54921 0.39276 0.27407 0.0
C699 C 0.55471 0.41473 0.28769 0.0
C700 C 0.5738 0.41252 0.30115 0.0
C701 C 0.75787 0.48987 0.34076 0.0
C702 C 0.7533 0.51013 0.35315 0.0
C703 C 0.7272 0.45965 0.33394 0.0
C704 C 0.69183 0.45011 0.3392 0.0
C705 C 0.68718 0.4717 0.35082 0.0
C706 C 0.71775 0.50124 0.35792 0.0
C707 C 0.6597 0.41589 0.33367 0.0
C708 C 0.6383 0.41727 0.32099 0.0
C709 C 0.65016 0.38204 0.34104 0.0
C710 C 0.67286 0.37922 0.35407 0.0
C711 C 0.67535 0.39506 0.36938 0.0
C712 C 0.69736 0.39276 0.38152 0.0
C713 C 0.71677 0.37442 0.37852 0.0
C714 C 0.71409 0.35825 0.36337 0.0
C715 C 0.69215 0.36054 0.35118 0.0
H716 H 0.73379 0.37266 0.38793 0.0
H717 H 0.53437 0.39447 0.26368 0.0
H718 H 0.29732 0.51671 0.65111 0.0
H719 H 0.29627 0.56999 0.66254 0.0
H720 H 0.19231 0.53557 0.6389 0.0
H721 H 0.19421 0.48361 0.62695 0.0
H722 H 0.23547 0.6043 0.63334 0.0
H723 H 0.20167 0.5275 0.68119 0.0
H724 H 0.20972 0.49035 0.70222 0.0
H725 H 0.31171 0.58391 0.7168 0.0
H726 H 0.30446 0.6215 0.69572 0.0
H727 H 0.19553 0.70485 0.70276 0.0
H728 H 0.19534 0.65225 0.6904 0.0
H729 H 0.28284 0.7245 0.65822 0.0
H730 H 0.28273 0.77763 0.67048 0.0
H731 H 0.25076 0.63876 0.69159 0.0
H732 H 0.27578 0.67508 0.62346 0.0
H733 H 0.26229 0.70928 0.60284 0.0
H734 H 0.16697 0.69065 0.62969 0.0
H735 H 0.17961 0.65596 0.65033 0.0
C736 C 0.27403 0.52033 0.64863 0.0
C737 C 0.24591 0.4963 0.63815 0.0
C738 C 0.27344 0.55072 0.65512 0.0
C739 C 0.2442 0.55679 0.65155 0.0
C740 C 0.21534 0.5317 0.64167 0.0
C741 C 0.21633 0.5019 0.63493 0.0
C742 C 0.24404 0.58991 0.65747 0.0
C743 C 0.23883 0.61182 0.64609 0.0
C744 C 0.24841 0.59975 0.67407 0.0
C745 C 0.2527 0.5772 0.68678 0.0
C746 C 0.22593 0.54007 0.68881 0.0
C747 C 0.23033 0.51896 0.70075 0.0
C748 C 0.26126 0.53474 0.71081 0.0
C749 C 0.2878 0.57171 0.70898 0.0
C750 C 0.28354 0.59294 0.69706 0.0
C751 C 0.21432 0.70956 0.69286 0.0
C752 C 0.23933 0.74527 0.68762 0.0
C753 C 0.2143 0.67948 0.68588 0.0
C754 C 0.23932 0.68453 0.67354 0.0
C755 C 0.2632 0.72007 0.6677 0.0
C756 C 0.26305 0.75032 0.67465 0.0
C757 C 0.24139 0.65256 0.66752 0.0
C758 C 0.24745 0.6312 0.67884 0.0
C759 C 0.23697 0.64276 0.65093 0.0
C760 C 0.22892 0.66332 0.63852 0.0
C761 C 0.2519 0.67822 0.62493 0.0
C762 C 0.2444 0.69769 0.61324 0.0
C763 C 0.21387 0.70225 0.61498 0.0
C764 C 0.1907 0.68724 0.62839 0.0
C765 C 0.19805 0.66773 0.6401 0.0
H766 H 0.20812 0.71734 0.60592 0.0
H767 H 0.26462 0.51834 0.72005 0.0
H768 H 0.38655 0.24502 0.09682 0.0
H769 H 0.36816 0.23733 0.12552 0.0
H770 H 0.41355 0.16634 0.13255 0.0
H771 H 0.43117 0.17311 0.10428 0.0
H772 H 0.3501 0.13968 0.14817 0.0
H773 H 0.46191 0.25842 0.14227 0.0
H774 H 0.49844 0.32096 0.13112 0.0
H775 H 0.42049 0.34902 0.15001 0.0
H776 H 0.38328 0.28646 0.1611 0.0
H777 H 0.41187 0.15542 0.22952 0.0
H778 H 0.39899 0.15126 0.20035 0.0
H779 H 0.35741 0.22595 0.20582 0.0
H780 H 0.37165 0.23124 0.23477 0.0
H781 H 0.40617 0.24991 0.18346 0.0
H782 H 0.30116 0.13296 0.1943 0.0
H783 H 0.26689 0.07059 0.20579 0.0
H784 H 0.33267 0.03849 0.17808 0.0
H785 H 0.36767 0.10079 0.16658 0.0
C786 C 0.39238 0.22761 0.10449 0.0
C787 C 0.41062 0.20996 0.09821 0.0
C788 C 0.38185 0.22324 0.12086 0.0
C789 C 0.38963 0.20134 0.13118 0.0
C790 C 0.40702 0.18315 0.12482 0.0
C791 C 0.41739 0.18735 0.10859 0.0
C792 C 0.38206 0.1987 0.14885 0.0
C793 C 0.36224 0.16373 0.15594 0.0
C794 C 0.39716 0.2301 0.15891 0.0
C795 C 0.41961 0.2677 0.15232 0.0
C796 C 0.45245 0.27787 0.14394 0.0
C797 C 0.47329 0.31332 0.13765 0.0
C798 C 0.46173 0.33891 0.1398 0.0
C799 C 0.42937 0.32914 0.14831 0.0
C800 C 0.4084 0.29371 0.1546 0.0
C801 C 0.3991 0.17012 0.22453 0.0
C802 C 0.39304 0.19387 0.23431 0.0
C803 C 0.39161 0.16769 0.20787 0.0
C804 C 0.37713 0.18828 0.20086 0.0
C805 C 0.36877 0.21 0.2109 0.0
C806 C 0.37685 0.21295 0.22744 0.0
C807 C 0.37491 0.19072 0.18294 0.0
C808 C 0.39303 0.22573 0.17578 0.0
C809 C 0.35839 0.15929 0.17285 0.0
C810 C 0.33717 0.12165 0.17964 0.0
C811 C 0.30847 0.11267 0.19073 0.0
C812 C 0.28889 0.07731 0.19723 0.0
C813 C 0.29763 0.05061 0.19268 0.0
C814 C 0.32592 0.05919 0.18159 0.0
C815 C 0.34559 0.09451 0.17505 0.0
H816 H 0.28246 0.02326 0.19774 0.0
H817 H 0.4779 0.36633 0.13493 0.0
H818 H 0.22635 0.36609 0.4292 0.0
H819 H 0.22137 0.35498 0.45843 0.0
H820 H 0.14524 0.39514 0.46194 0.0
H821 H 0.1499 0.40606 0.43249 0.0
H822 H 0.20671 0.43209 0.48174 0.0
H823 H 0.11544 0.30846 0.47025 0.0
H824 H 0.08848 0.24807 0.45688 0.0
H825 H 0.17393 0.23194 0.47657 0.0
H826 H 0.20175 0.29252 0.48988 0.0
H827 H 0.15314 0.39248 0.5623 0.0
H828 H 0.14866 0.38088 0.5333 0.0
H829 H 0.24857 0.376 0.53461 0.0
H830 H 0.25396 0.38857 0.56404 0.0
H831 H 0.17656 0.31919 0.51268 0.0
H832 H 0.26998 0.44579 0.52258 0.0
H833 H 0.29494 0.50564 0.53631 0.0
H834 H 0.20359 0.51536 0.51935 0.0
H835 H 0.17774 0.45518 0.50576 0.0
C836 C 0.20783 0.3717 0.43614 0.0
C837 C 0.18866 0.38714 0.42865 0.0
C838 C 0.20491 0.36519 0.45282 0.0
C839 C 0.18301 0.3743 0.46232 0.0
C840 C 0.16225 0.38789 0.45476 0.0
C841 C 0.16474 0.39392 0.43797 0.0
C842 C 0.18549 0.37378 0.48024 0.0
C843 C 0.1997 0.40729 0.48849 0.0
C844 C 0.17744 0.34162 0.48896 0.0
C845 C 0.16091 0.30523 0.48092 0.0
C846 C 0.12871 0.29222 0.4716 0.0
C847 C 0.11322 0.25791 0.46406 0.0
C848 C 0.12954 0.23623 0.46584 0.0
C849 C 0.16135 0.24879 0.47519 0.0
C850 C 0.17697 0.2831 0.48274 0.0
C851 C 0.1741 0.38855 0.55657 0.0
C852 C 0.20437 0.39218 0.56545 0.0
C853 C 0.17126 0.38166 0.53998 0.0
C854 C 0.19839 0.37792 0.53189 0.0
C855 C 0.22736 0.3788 0.54077 0.0
C856 C 0.23041 0.38599 0.55752 0.0
C857 C 0.19792 0.37744 0.51398 0.0
C858 C 0.18391 0.3439 0.50579 0.0
C859 C 0.20623 0.40955 0.50523 0.0
C860 C 0.22171 0.44579 0.51333 0.0
C861 C 0.255 0.46049 0.52194 0.0
C862 C 0.26935 0.49451 0.52966 0.0
C863 C 0.2508 0.51424 0.52875 0.0
C864 C 0.2179 0.50001 0.52007 0.0
C865 C 0.20339 0.46595 0.51236 0.0
H866 H 0.26198 0.5406 0.53472 0.0
H867 H 0.11749 0.20966 0.46 0.0
H868 H 0.80398 0.14439 0.89889 0.0
H869 H 0.80439 0.13758 0.86937 0.0
H870 H 0.85212 0.25449 0.86379 0.0
H871 H 0.85279 0.26155 0.89339 0.0
H872 H 0.76706 0.1898 0.85338 0.0
H873 H 0.90013 0.24134 0.84823 0.0
H874 H 0.95776 0.24159 0.85408 0.0
H875 H 0.91165 0.13269 0.83463 0.0
H876 H 0.85349 0.13161 0.8289 0.0
H877 H 0.77546 0.24518 0.77385 0.0
H878 H 0.784 0.23507 0.80213 0.0
H879 H 0.78305 0.13522 0.78927 0.0
H880 H 0.77498 0.14564 0.76049 0.0
H881 H 0.84125 0.17927 0.80912 0.0
H882 H 0.71264 0.12912 0.81059 0.0
H883 H 0.65287 0.12454 0.80508 0.0
H884 H 0.68596 0.2234 0.83218 0.0
H885 H 0.74617 0.22891 0.83766 0.0
C886 C 0.81639 0.16879 0.89137 0.0
C887 C 0.82845 0.2035 0.89829 0.0
C888 C 0.81656 0.16485 0.87455 0.0
C889 C 0.82835 0.19553 0.8645 0.0
C890 C 0.84345 0.23061 0.87144 0.0
C891 C 0.84396 0.23465 0.88831 0.0
C892 C 0.81697 0.19011 0.84733 0.0
C893 C 0.78337 0.18783 0.84364 0.0
C894 C 0.83741 0.18551 0.83491 0.0
C895 C 0.8723 0.18619 0.83837 0.0
C896 C 0.9021 0.21726 0.84541 0.0
C897 C 0.93492 0.21761 0.84864 0.0
C898 C 0.93832 0.18712 0.84479 0.0
C899 C 0.90895 0.15626 0.83765 0.0
C900 C 0.87607 0.15578 0.83439 0.0
C901 C 0.7765 0.22073 0.777 0.0
C902 C 0.77465 0.19624 0.76495 0.0
C903 C 0.78125 0.21491 0.79321 0.0
C904 C 0.78398 0.1843 0.79782 0.0
C905 C 0.78096 0.15899 0.78593 0.0
C906 C 0.776 0.16476 0.76956 0.0
C907 C 0.79196 0.18063 0.81501 0.0
C908 C 0.82464 0.18081 0.81882 0.0
C909 C 0.77033 0.18271 0.82766 0.0
C910 C 0.73404 0.17951 0.82448 0.0
C911 C 0.70729 0.15003 0.81529 0.0
C912 C 0.6733 0.14724 0.81218 0.0
C913 C 0.66564 0.17368 0.81826 0.0
C914 C 0.69193 0.20293 0.82748 0.0
C915 C 0.72598 0.20586 0.83062 0.0
H916 H 0.63931 0.17148 0.81584 0.0
H917 H 0.96375 0.18745 0.8473 0.0
H918 H 0.55984 0.82287 0.10378 0.0
H919 H 0.57877 0.83206 0.13199 0.0
H920 H 0.63423 0.77037 0.12483 0.0
H921 H 0.61516 0.76072 0.09618 0.0
H922 H 0.59207 0.75115 0.15281 0.0
H923 H 0.68484 0.86134 0.12841 0.0
H924 H 0.70918 0.91597 0.11083 0.0
H925 H 0.65268 0.95783 0.13928 0.0
H926 H 0.62752 0.90318 0.15689 0.0
H927 H 0.64806 0.78886 0.23316 0.0
H928 H 0.6589 0.79377 0.20389 0.0
H929 H 0.60331 0.8561 0.19945 0.0
H930 H 0.59353 0.85227 0.22892 0.0
H931 H 0.6567 0.87647 0.1765 0.0
H932 H 0.55553 0.76317 0.19705 0.0
H933 H 0.52725 0.70779 0.21426 0.0
H934 H 0.59623 0.67135 0.1925 0.0
H935 H 0.62531 0.72684 0.17532 0.0
C936 C 0.57608 0.81115 0.10806 0.0
C937 C 0.58619 0.79122 0.09759 0.0
C938 C 0.5871 0.8167 0.12424 0.0
C939 C 0.60862 0.80267 0.13039 0.0
C940 C 0.61797 0.7818 0.12021 0.0
C941 C 0.60696 0.77623 0.10389 0.0
C942 C 0.61988 0.80901 0.14767 0.0
C943 C 0.60709 0.77854 0.15794 0.0
C944 C 0.63867 0.84482 0.15437 0.0
C945 C 0.65415 0.87803 0.14394 0.0
C946 C 0.67743 0.88208 0.13087 0.0
C947 C 0.69139 0.91307 0.1209 0.0
C948 C 0.68245 0.94033 0.12392 0.0
C949 C 0.65959 0.9367 0.13695 0.0
C950 C 0.64552 0.90574 0.14695 0.0
C951 C 0.63937 0.80476 0.22599 0.0
C952 C 0.61964 0.81988 0.23319 0.0
C953 C 0.64541 0.80739 0.20928 0.0
C954 C 0.63095 0.82434 0.19946 0.0
C955 C 0.61449 0.84267 0.20682 0.0
C956 C 0.60899 0.84059 0.22364 0.0
C957 C 0.62838 0.81859 0.18163 0.0
C958 C 0.64257 0.84912 0.1713 0.0
C959 C 0.61054 0.78281 0.17484 0.0
C960 C 0.59289 0.74933 0.18506 0.0
C961 C 0.56484 0.74346 0.19603 0.0
C962 C 0.54865 0.71205 0.20576 0.0
C963 C 0.56002 0.68612 0.20451 0.0
C964 C 0.58752 0.6915 0.19348 0.0
C965 C 0.60386 0.72292 0.18374 0.0
H966 H 0.54745 0.66182 0.21205 0.0
H967 H 0.69326 0.96429 0.11619 0.0
H968 H 0.73602 0.55366 0.54928 0.0
H969 H 0.75288 0.57295 0.52115 0.0
H970 H 0.83071 0.68235 0.53723 0.0
H971 H 0.81344 0.66302 0.56562 0.0
H972 H 0.78579 0.66581 0.50214 0.0
H973 H 0.87373 0.64921 0.53419 0.0
H974 H 0.88863 0.61762 0.55555 0.0
H975 H 0.82925 0.51591 0.52956 0.0
H976 H 0.8134 0.5468 0.5082 0.0
H977 H 0.85718 0.65658 0.42358 0.0
H978 H 0.86391 0.67598 0.45224 0.0
H979 H 0.79612 0.56293 0.46673 0.0
H980 H 0.78903 0.54382 0.43838 0.0
H981 H 0.85444 0.60217 0.48769 0.0
H982 H 0.75815 0.61446 0.45927 0.0
H983 H 0.73702 0.64161 0.43829 0.0
H984 H 0.80954 0.74927 0.45725 0.0
H985 H 0.83146 0.72274 0.47819 0.0
C986 C 0.75529 0.58228 0.54676 0.0
C987 C 0.77339 0.60695 0.55949 0.0
C988 C 0.76498 0.59326 0.53072 0.0
C989 C 0.79325 0.62891 0.52721 0.0
C990 C 0.80865 0.6548 0.53977 0.0
C991 C 0.79869 0.6438 0.55593 0.0
C992 C 0.81105 0.6357 0.51114 0.0
C993 C 0.8019 0.65307 0.49901 0.0
C994 C 0.83175 0.61872 0.50713 0.0
C995 C 0.84225 0.60029 0.51965 0.0
C996 C 0.86369 0.62007 0.53308 0.0
C997 C 0.8723 0.60229 0.54518 0.0
C998 C 0.85986 0.56477 0.54392 0.0
C999 C 0.83888 0.54498 0.53052 0.0
C1000 C 0.83011 0.56262 0.51841 0.0
C1001 C 0.84476 0.63598 0.433 0.0
C1002 C 0.82263 0.59877 0.42892 0.0
C1003 C 0.84837 0.64705 0.44929 0.0
C1004 C 0.83027 0.62087 0.46155 0.0
C1005 C 0.81038 0.58354 0.45746 0.0
C1006 C 0.80631 0.57263 0.44129 0.0
C1007 C 0.82847 0.6315 0.4785 0.0
C1008 C 0.84018 0.61681 0.49086 0.0
C1009 C 0.81018 0.65095 0.48265 0.0
C1010 C 0.79679 0.66671 0.47013 0.0
C1011 C 0.76979 0.64394 0.45887 0.0
C1012 C 0.75764 0.6592 0.447 0.0
C1013 C 0.77203 0.69715 0.44641 0.0
C1014 C 0.79851 0.71989 0.4577 0.0
C1015 C 0.81081 0.70477 0.46956 0.0
H1016 H 0.76261 0.70895 0.43724 0.0
H1017 H 0.86651 0.55105 0.55331 0.0
H1018 H 0.19165 0.84182 0.90102 0.0
H1019 H 0.19041 0.84924 0.8715 0.0
H1020 H 0.16618 0.73773 0.86472 0.0
H1021 H 0.16643 0.72999 0.89428 0.0
H1022 H 0.23646 0.7988 0.85146 0.0
H1023 H 0.10549 0.75187 0.85263 0.0
H1024 H 0.04911 0.75082 0.86166 0.0
H1025 H 0.09053 0.8602 0.84353 0.0
H1026 H 0.14746 0.86209 0.83461 0.0
H1027 H 0.20964 0.75084 0.77082 0.0
H1028 H 0.2043 0.75787 0.79971 0.0
H1029 H 0.21746 0.86508 0.79169 0.0
H1030 H 0.2227 0.85806 0.76219 0.0
H1031 H 0.15734 0.81828 0.81274 0.0
H1032 H 0.28528 0.86368 0.80898 0.0
H1033 H 0.34202 0.86568 0.79981 0.0
H1034 H 0.3085 0.76249 0.82318 0.0
H1035 H 0.25125 0.75955 0.83229 0.0
C1036 C 0.18431 0.81844 0.8932 0.0
C1037 C 0.17864 0.78521 0.89976 0.0
C1038 C 0.18379 0.82274 0.8764 0.0
C1039 C 0.17833 0.79407 0.86602 0.0
C1040 C 0.17022 0.76005 0.87261 0.0
C1041 C 0.17007 0.75553 0.88943 0.0
C1042 C 0.18689 0.80131 0.84857 0.0
C1043 C 0.21904 0.80277 0.84295 0.0
C1044 C 0.16508 0.80838 0.83775 0.0
C1045 C 0.13095 0.80731 0.84315 0.0
C1046 C 0.10278 0.77586 0.85074 0.0
C1047 C 0.07067 0.77507 0.85579 0.0
C1048 C 0.06629 0.80548 0.85322 0.0
C1049 C 0.09399 0.8367 0.84555 0.0
C1050 C 0.12617 0.83763 0.84048 0.0
C1051 C 0.21161 0.77609 0.77511 0.0
C1052 C 0.21644 0.80387 0.76421 0.0
C1053 C 0.20868 0.7801 0.79167 0.0
C1054 C 0.21066 0.81203 0.79783 0.0
C1055 C 0.21593 0.84024 0.78711 0.0
C1056 C 0.21919 0.83634 0.77034 0.0
C1057 C 0.20629 0.81449 0.81553 0.0
C1058 C 0.17513 0.815 0.82128 0.0
C1059 C 0.22926 0.80964 0.82659 0.0
C1060 C 0.26384 0.81134 0.82127 0.0
C1061 C 0.28987 0.84128 0.81208 0.0
C1062 C 0.32216 0.8426 0.8069 0.0
C1063 C 0.32885 0.81421 0.8109 0.0
C1064 C 0.30329 0.78447 0.82011 0.0
C1065 C 0.27093 0.783 0.82531 0.0
H1066 H 0.35385 0.81527 0.80687 0.0
H1067 H 0.0414 0.80481 0.85714 0.0
H1068 H 0.48931 0.63741 0.0522 0.0
H1069 H 0.46943 0.57245 0.05303 0.0
H1070 H 0.58238 0.59818 0.05512 0.0
H1071 H 0.60266 0.664 0.05353 0.0
H1072 H 0.54712 0.54333 0.03567 0.0
H1073 H 0.52152 0.56696 0.08938 0.0
H1074 H 0.49631 0.58988 0.11041 0.0
H1075 H 0.38705 0.51759 0.09297 0.0
H1076 H 0.41165 0.49457 0.07168 0.0
H1077 H 0.50817 0.36764 0.06174 0.0
H1078 H 0.52603 0.43225 0.06189 0.0
H1079 H 0.41626 0.40431 0.04795 0.0
H1080 H 0.39798 0.33879 0.04756 0.0
H1081 H 0.44922 0.45929 0.07354 0.0
H1082 H 0.47745 0.43561 0.01984 0.0
H1083 H 0.50469 0.41229 -2e-05 0.0
H1084 H 0.61211 0.48492 0.01921 0.0
H1085 H 0.58544 0.5083 0.03937 0.0
C1086 C 0.51009 0.62943 0.05296 0.0
C1087 C 0.54767 0.65606 0.05295 0.0
C1088 C 0.49857 0.59205 0.05353 0.0
C1089 C 0.52423 0.58005 0.05453 0.0
C1090 C 0.56191 0.60658 0.05445 0.0
C1091 C 0.57354 0.64423 0.05361 0.0
C1092 C 0.51145 0.53986 0.05521 0.0
C1093 C 0.52613 0.52518 0.04415 0.0
C1094 C 0.48339 0.51564 0.066 0.0
C1095 C 0.46847 0.52927 0.07885 0.0
C1096 C 0.49214 0.55612 0.08996 0.0
C1097 C 0.47795 0.56911 0.10194 0.0
C1098 C 0.44011 0.55526 0.103 0.0
C1099 C 0.41636 0.52832 0.09212 0.0
C1100 C 0.43041 0.51526 0.08011 0.0
C1101 C 0.48756 0.37496 0.05879 0.0
C1102 C 0.45156 0.34786 0.05457 0.0
C1103 C 0.49796 0.41209 0.05884 0.0
C1104 C 0.47267 0.42323 0.05476 0.0
C1105 C 0.43628 0.39631 0.05109 0.0
C1106 C 0.42586 0.3589 0.05088 0.0
C1107 C 0.48491 0.46311 0.05404 0.0
C1108 C 0.47017 0.47763 0.06509 0.0
C1109 C 0.51324 0.48725 0.04342 0.0
C1110 C 0.52939 0.47346 0.03121 0.0
C1111 C 0.50684 0.4464 0.01992 0.0
C1112 C 0.52219 0.43321 0.0086 0.0
C1113 C 0.5601 0.44705 0.00836 0.0
C1114 C 0.58275 0.4742 0.01942 0.0
C1115 C 0.56753 0.48745 0.03079 0.0
H1116 H 0.57193 0.4368 -0.00042 0.0
H1117 H 0.42918 0.56535 0.11228 0.0
H1118 H 0.94249 0.60126 0.39955 0.0
H1119 H 0.98561 0.57786 0.4009 0.0
H1120 H 0.93328 0.50966 0.35903 0.0
H1121 H 0.88977 0.53213 0.3581 0.0
H1122 H 0.93974 0.47012 0.38138 0.0
H1123 H 0.02267 0.58845 0.35824 0.0
H1124 H 0.05584 0.65605 0.35692 0.0
H1125 H 0.10689 0.66191 0.40287 0.0
H1126 H 0.07366 0.59433 0.40455 0.0
H1127 H 0.06742 0.40858 0.36655 0.0
H1128 H 0.0264 0.43411 0.3656 0.0
H1129 H 0.08527 0.5059 0.40565 0.0
H1130 H 0.12746 0.48185 0.40595 0.0
H1131 H 0.07543 0.54397 0.38477 0.0
H1132 H 0.99285 0.42566 0.40797 0.0
H1133 H 0.95939 0.35806 0.40943 0.0
H1134 H 0.90719 0.352 0.36378 0.0
H1135 H 0.94067 0.41955 0.36195 0.0
C1136 C 0.94105 0.58209 0.3904 0.0
C1137 C 0.91339 0.56896 0.37854 0.0
C1138 C 0.96556 0.56858 0.39118 0.0
C1139 C 0.96294 0.54198 0.38 0.0
C1140 C 0.93595 0.53 0.36783 0.0
C1141 C 0.91134 0.54313 0.36718 0.0
C1142 C 0.98656 0.52482 0.38145 0.0
C1143 C 0.96947 0.48633 0.38192 0.0
C1144 C 0.0253 0.54574 0.38263 0.0
C1145 C 0.04541 0.58635 0.38159 0.0
C1146 C 0.04077 0.60417 0.36811 0.0
C1147 C 0.05961 0.64248 0.36729 0.0
C1148 C 0.08338 0.66326 0.37982 0.0
C1149 C 0.08843 0.64578 0.39318 0.0
C1150 C 0.06963 0.60748 0.39407 0.0
C1151 C 0.07111 0.42929 0.37534 0.0
C1152 C 0.10053 0.44305 0.38638 0.0
C1153 C 0.04758 0.44392 0.37482 0.0
C1154 C 0.05226 0.47185 0.38567 0.0
C1155 C 0.08097 0.48458 0.39708 0.0
C1156 C 0.10495 0.47059 0.39734 0.0
C1157 C 0.02865 0.48916 0.38468 0.0
C1158 C 0.04571 0.5277 0.38429 0.0
C1159 C 0.98982 0.46827 0.38362 0.0
C1160 C 0.96951 0.42765 0.38477 0.0
C1161 C 0.9744 0.4099 0.3982 0.0
C1162 C 0.95541 0.37159 0.3991 0.0
C1163 C 0.93125 0.35075 0.38669 0.0
C1164 C 0.92594 0.36817 0.37337 0.0
C1165 C 0.94488 0.40646 0.37241 0.0
H1166 H 0.91659 0.3211 0.3874 0.0
H1167 H 0.09794 0.69292 0.37917 0.0
H1168 H 0.66589 0.06168 0.71951 0.0
H1169 H 0.60028 0.01502 0.72093 0.0
H1170 H 0.57181 0.09772 0.7093 0.0
H1171 H 0.63647 0.14403 0.7087 0.0
H1172 H 0.52992 0.05993 0.7318 0.0
H1173 H 0.56519 0.02763 0.68152 0.0
H1174 H 0.60104 0.00972 0.66391 0.0
H1175 H 0.56645 0.91225 0.69228 0.0
H1176 H 0.53074 0.92982 0.71019 0.0
H1177 H 0.34054 0.94227 0.70975 0.0
H1178 H 0.40668 0.98705 0.70961 0.0
H1179 H 0.42924 0.90467 0.72834 0.0
H1180 H 0.36375 0.86011 0.72848 0.0
H1181 H 0.47375 0.94051 0.70306 0.0
H1182 H 0.43619 0.97349 0.75257 0.0
H1183 H 0.39925 0.99194 0.76911 0.0
H1184 H 0.43743 0.08961 0.74047 0.0
H1185 H 0.47423 0.07148 0.72362 0.0
C1186 C 0.64551 0.06968 0.71719 0.0
C1187 C 0.65639 0.10656 0.71408 0.0
C1188 C 0.60796 0.043 0.71793 0.0
C1189 C 0.58069 0.0526 0.71514 0.0
C1190 C 0.59192 0.08938 0.71168 0.0
C1191 C 0.6291 0.11593 0.71128 0.0
C1192 C 0.54046 0.02512 0.71614 0.0
C1193 C 0.51773 0.03405 0.72531 0.0
C1194 C 0.52417 0.99082 0.70803 0.0
C1195 C 0.54564 0.98025 0.69729 0.0
C1196 C 0.56546 0.00252 0.68408 0.0
C1197 C 0.58571 0.99241 0.67403 0.0
C1198 C 0.58611 0.95993 0.67701 0.0
C1199 C 0.56617 0.93744 0.69001 0.0
C1200 C 0.54591 0.94745 0.7001 0.0
C1201 C 0.35959 0.93387 0.71402 0.0
C1202 C 0.34674 0.89758 0.71914 0.0
C1203 C 0.39742 0.95947 0.71392 0.0
C1204 C 0.42309 0.94928 0.71898 0.0
C1205 C 0.41015 0.91322 0.72431 0.0
C1206 C 0.37253 0.88779 0.72445 0.0
C1207 C 0.46346 0.97572 0.71847 0.0
C1208 C 0.48612 0.96649 0.70949 0.0
C1209 C 0.47965 0.00994 0.72657 0.0
C1210 C 0.45768 0.02095 0.73675 0.0
C1211 C 0.43649 0.99876 0.74973 0.0
C1212 C 0.41561 0.00919 0.75917 0.0
C1213 C 0.41591 0.04188 0.75582 0.0
C1214 C 0.43718 0.06427 0.74304 0.0
C1215 C 0.45808 0.05395 0.73355 0.0
H1216 H 0.39973 0.0499 0.76314 0.0
H1217 H 0.6018 0.95214 0.66921 0.0
H1218 H 0.65753 0.57618 0.63756 0.0
H1219 H 0.59095 0.55317 0.63833 0.0
H1220 H 0.58745 0.54985 0.586 0.0
H1221 H 0.6535 0.57147 0.58525 0.0
H1222 H 0.54238 0.57835 0.60374 0.0
H1223 H 0.56741 0.47647 0.60102 0.0
H1224 H 0.59675 0.44237 0.61138 0.0
H1225 H 0.54343 0.4285 0.65742 0.0
H1226 H 0.51424 0.46308 0.64739 0.0
H1227 H 0.35647 0.46826 0.58504 0.0
H1228 H 0.42304 0.49421 0.5857 0.0
H1229 H 0.41455 0.4489 0.63361 0.0
H1230 H 0.34753 0.42049 0.63232 0.0
H1231 H 0.46717 0.44799 0.62039 0.0
H1232 H 0.4393 0.54394 0.62519 0.0
H1233 H 0.41131 0.58142 0.618 0.0
H1234 H 0.47041 0.61156 0.5729 0.0
H1235 H 0.49839 0.57384 0.57972 0.0
C1236 C 0.64269 0.57174 0.62625 0.0
C1237 C 0.66063 0.57623 0.61133 0.0
C1238 C 0.60467 0.55829 0.6267 0.0
C1239 C 0.58425 0.54972 0.61221 0.0
C1240 C 0.60267 0.55645 0.5973 0.0
C1241 C 0.64039 0.56899 0.59688 0.0
C1242 C 0.54343 0.53081 0.61248 0.0
C1243 C 0.52582 0.54979 0.60726 0.0
C1244 C 0.5219 0.49394 0.61762 0.0
C1245 C 0.539 0.47271 0.62352 0.0
C1246 C 0.56221 0.46644 0.6134 0.0
C1247 C 0.57876 0.44697 0.6192 0.0
C1248 C 0.57205 0.43337 0.63507 0.0
C1249 C 0.54866 0.4391 0.64514 0.0
C1250 C 0.5321 0.45862 0.63941 0.0
C1251 C 0.36882 0.4631 0.59553 0.0
C1252 C 0.34688 0.44226 0.6086 0.0
C1253 C 0.407 0.47846 0.59604 0.0
C1254 C 0.42438 0.4749 0.60998 0.0
C1255 C 0.40217 0.45248 0.62274 0.0
C1256 C 0.36378 0.43605 0.62198 0.0
C1257 C 0.46548 0.49529 0.61139 0.0
C1258 C 0.48335 0.47663 0.61695 0.0
C1259 C 0.48725 0.53289 0.60702 0.0
C1260 C 0.47069 0.5558 0.60291 0.0
C1261 C 0.44616 0.55839 0.6137 0.0
C1262 C 0.43031 0.57969 0.60969 0.0
C1263 C 0.43901 0.59879 0.59499 0.0
C1264 C 0.46366 0.59671 0.58427 0.0
C1265 C 0.47955 0.57541 0.58821 0.0
H1266 H 0.42671 0.61526 0.59191 0.0
H1267 H 0.58489 0.41831 0.63954 0.0
H1268 H 0.12524 0.64349 0.968 0.0
H1269 H 0.08215 0.57744 0.96785 0.0
H1270 H 0.01839 0.5923 0.93064 0.0
H1271 H 0.06075 0.65909 0.93153 0.0
H1272 H 0.97383 0.54025 0.95024 0.0
H1273 H 0.08456 0.56399 0.92255 0.0
H1274 H 0.15141 0.58945 0.91991 0.0
H1275 H 0.15022 0.5252 0.96067 0.0
H1276 H 0.08343 0.4997 0.96367 0.0
H1277 H 0.87827 0.35669 0.92383 0.0
H1278 H 0.92039 0.42274 0.92481 0.0
H1279 H 0.98189 0.40746 0.96294 0.0
H1280 H 0.9402 0.3408 0.96161 0.0
H1281 H 0.02739 0.45953 0.94306 0.0
H1282 H 0.91698 0.43527 0.97066 0.0
H1283 H 0.85024 0.40995 0.97363 0.0
H1284 H 0.85081 0.47507 0.93336 0.0
H1285 H 0.91749 0.50041 0.93001 0.0
C1286 C 0.10159 0.63264 0.96002 0.0
C1287 C 0.09614 0.65621 0.94982 0.0
C1288 C 0.07718 0.59482 0.95979 0.0
C1289 C 0.0475 0.57947 0.94886 0.0
C1290 C 0.04118 0.60329 0.9391 0.0
C1291 C 0.06526 0.64143 0.93962 0.0
C1292 C 0.0239 0.53868 0.94736 0.0
C1293 C 0.98559 0.52271 0.94844 0.0
C1294 C 0.03903 0.51538 0.94541 0.0
C1295 C 0.07906 0.53015 0.9434 0.0
C1296 C 0.09859 0.55541 0.93099 0.0
C1297 C 0.13646 0.56984 0.92943 0.0
C1298 C 0.15506 0.55901 0.94014 0.0
C1299 C 0.13579 0.5336 0.95239 0.0
C1300 C 0.09792 0.51911 0.95401 0.0
C1301 C 0.90102 0.36729 0.93231 0.0
C1302 C 0.90576 0.34346 0.94271 0.0
C1303 C 0.92496 0.4052 0.93295 0.0
C1304 C 0.95383 0.42041 0.94427 0.0
C1305 C 0.95967 0.39653 0.95418 0.0
C1306 C 0.9359 0.35839 0.95339 0.0
C1307 C 0.97736 0.46115 0.9459 0.0
C1308 C 0.01565 0.47709 0.94485 0.0
C1309 C 0.96221 0.4844 0.94789 0.0
C1310 C 0.92218 0.4695 0.95 0.0
C1311 C 0.90283 0.44402 0.96238 0.0
C1312 C 0.86502 0.42969 0.96413 0.0
C1313 C 0.84628 0.44083 0.95367 0.0
C1314 C 0.86535 0.46643 0.94145 0.0
C1315 C 0.90316 0.48082 0.93962 0.0
H1316 H 0.817 0.42969 0.95504 0.0
H1317 H 0.18438 0.57025 0.93892 0.0
H1318 H 0.61046 0.94607 0.27717 0.0
H1319 H 0.5896 0.99115 0.27596 0.0
H1320 H 0.47688 0.90296 0.27676 0.0
H1321 H 0.49757 0.85846 0.27684 0.0
H1322 H 0.47825 0.94788 0.2573 0.0
H1323 H 0.52767 0.96314 0.31124 0.0
H1324 H 0.57463 0.97527 0.33206 0.0
H1325 H 0.64484 0.08193 0.31167 0.0
H1326 H 0.59845 0.07025 0.2906 0.0
H1327 H 0.39793 0.05755 0.28226 0.0
H1328 H 0.41953 0.01292 0.28177 0.0
H1329 H 0.52727 0.09857 0.26747 0.0
H1330 H 0.50604 0.14281 0.2677 0.0
H1331 H 0.52868 0.05635 0.29357 0.0
H1332 H 0.4744 0.03855 0.24009 0.0
H1333 H 0.42395 0.02471 0.22095 0.0
H1334 H 0.35804 0.91932 0.24325 0.0
H1335 H 0.40794 0.93276 0.26268 0.0
C1336 C 0.58129 0.9365 0.27702 0.0
C1337 C 0.55572 0.89873 0.27701 0.0
C1338 C 0.56927 0.96226 0.27647 0.0
C1339 C 0.53144 0.95074 0.2765 0.0
C1340 C 0.50614 0.91292 0.2766 0.0
C1341 C 0.51807 0.88736 0.27669 0.0
C1342 C 0.51769 0.9775 0.27624 0.0
C1343 C 0.48909 0.97124 0.26545 0.0
C1344 C 0.53185 0.00857 0.28661 0.0
C1345 C 0.55977 0.01565 0.29925 0.0
C1346 C 0.55324 0.98907 0.31114 0.0
C1347 C 0.57973 0.99588 0.32299 0.0
C1348 C 0.61274 0.0293 0.32316 0.0
C1349 C 0.61929 0.05603 0.3115 0.0
C1350 C 0.5929 0.04934 0.29961 0.0
C1351 C 0.42606 0.06671 0.27882 0.0
C1352 C 0.45015 0.10377 0.27498 0.0
C1353 C 0.43841 0.04123 0.27858 0.0
C1354 C 0.47512 0.05244 0.27463 0.0
C1355 C 0.49894 0.08928 0.27063 0.0
C1356 C 0.48659 0.11453 0.27068 0.0
C1357 C 0.48921 0.0262 0.27486 0.0
C1358 C 0.5179 0.03275 0.28556 0.0
C1359 C 0.47462 0.99498 0.26469 0.0
C1360 C 0.44476 0.98681 0.25294 0.0
C1361 C 0.44904 0.01254 0.24099 0.0
C1362 C 0.42056 0.00475 0.23008 0.0
C1363 C 0.38777 0.9712 0.23091 0.0
C1364 C 0.38343 0.94532 0.24264 0.0
C1365 C 0.41181 0.953 0.25359 0.0
H1366 H 0.36576 0.96522 0.22245 0.0
H1367 H 0.63322 0.03453 0.33234 0.0
loop_
_geom_bond_atom_site_label_1
_geom_bond_atom_site_label_2
_geom_bond_distance
_geom_bond_site_symmetry_2
_ccdc_geom_bond_type
Co0 O1 2.216 . S
Co0 O2 2.091 . S
Co0 O4 2.004 . S
Co0 O10 2.021 . S
Co0 O12 2.137 . S
Co0 O13 2.244 . S
O1 Co0 2.216 . S
O1 C8 1.247 . S
O2 Co0 2.091 . S
O2 C8 1.261 . S
C3 O12 1.247 . S
C3 O13 1.272 . S
O4 Co0 2.004 . S
O4 C9 1.259 . S
Co5 O6 2.061 . S
Co5 O11 2.052 . S
Co5 O13 2.135 . S
O6 Co5 2.061 . S
O6 C9 1.235 . S
C7 O10 1.238 . S
C7 O11 1.241 . S
C8 O1 1.247 . S
C8 O2 1.261 . S
C9 O4 1.259 . S
C9 O6 1.235 . S
O10 Co0 2.021 . S
O10 C7 1.238 . S
O11 Co5 2.052 . S
O11 C7 1.241 . S
O12 Co0 2.137 . S
O12 C3 1.247 . S
O13 Co0 2.244 . S
O13 C3 1.272 . S
O13 Co5 2.135 . S
Co14 O15 2.216 . S
Co14 O16 2.091 . S
Co14 O18 2.004 . S
Co14 O24 2.021 . S
Co14 O26 2.137 . S
Co14 O27 2.244 . S
O15 Co14 2.216 . S
O15 C22 1.247 . S
O16 Co14 2.091 . S
O16 C22 1.261 . S
C17 O26 1.247 . S
C17 O27 1.272 . S
O18 Co14 2.004 . S
O18 C23 1.259 . S
Co19 O20 2.061 . S
Co19 O25 2.052 . S
Co19 O27 2.135 . S
O20 Co19 2.061 . S
O20 C23 1.235 . S
C21 O24 1.238 . S
C21 O25 1.241 . S
C22 O15 1.247 . S
C22 O16 1.261 . S
C23 O18 1.259 . S
C23 O20 1.235 . S
O24 Co14 2.021 . S
O24 C21 1.238 . S
O25 Co19 2.052 . S
O25 C21 1.241 . S
O26 Co14 2.137 . S
O26 C17 1.247 . S
O27 Co14 2.244 . S
O27 C17 1.272 . S
O27 Co19 2.135 . S
Co28 O29 2.216 . S
Co28 O30 2.091 . S
Co28 O32 2.004 . S
Co28 O38 2.021 . S
Co28 O40 2.137 . S
Co28 O41 2.244 . S
O29 Co28 2.216 . S
O29 C36 1.247 . S
O30 Co28 2.091 . S
O30 C36 1.261 . S
C31 O40 1.247 . S
C31 O41 1.272 . S
O32 Co28 2.004 . S
O32 C37 1.259 . S
Co33 O34 2.061 . S
Co33 O39 2.052 . S
Co33 O41 2.135 . S
O34 Co33 2.061 . S
O34 C37 1.235 . S
C35 O38 1.238 . S
C35 O39 1.241 . S
C36 O29 1.247 . S
C36 O30 1.261 . S
C37 O32 1.259 . S
C37 O34 1.235 . S
O38 Co28 2.021 . S
O38 C35 1.238 . S
O39 Co33 2.052 . S
O39 C35 1.241 . S
O40 Co28 2.137 . S
O40 C31 1.247 . S
O41 Co28 2.244 . S
O41 C31 1.272 . S
O41 Co33 2.135 . S
Co42 O43 2.216 . S
Co42 O44 2.091 . S
Co42 O46 2.004 . S
Co42 O52 2.021 . S
Co42 O54 2.137 . S
Co42 O55 2.244 . S
O43 Co42 2.216 . S
O43 C50 1.247 . S
O44 Co42 2.091 . S
O44 C50 1.261 . S
C45 O54 1.247 . S
C45 O55 1.272 . S
O46 Co42 2.004 . S
O46 C51 1.259 . S
Co47 O48 2.061 . S
Co47 O53 2.052 . S
Co47 O55 2.135 . S
O48 Co47 2.061 . S
O48 C51 1.235 . S
C49 O52 1.238 . S
C49 O53 1.241 . S
C50 O43 1.247 . S
C50 O44 1.261 . S
C51 O46 1.259 . S
C51 O48 1.235 . S
O52 Co42 2.021 . S
O52 C49 1.238 . S
O53 Co47 2.052 . S
O53 C49 1.241 . S
O54 Co42 2.137 . S
O54 C45 1.247 . S
O55 Co42 2.244 . S
O55 C45 1.272 . S
O55 Co47 2.135 . S
Co56 O57 2.216 . S
Co56 O58 2.091 . S
Co56 O60 2.004 . S
Co56 O66 2.021 . S
Co56 O68 2.137 . S
Co56 O69 2.244 . S
O57 Co56 2.216 . S
O57 C64 1.247 . S
O58 Co56 2.091 . S
O58 C64 1.261 . S
C59 O68 1.247 . S
C59 O69 1.272 . S
O60 Co56 2.004 . S
O60 C65 1.259 . S
Co61 O62 2.061 . S
Co61 O67 2.052 . S
Co61 O69 2.135 . S
O62 Co61 2.061 . S
O62 C65 1.235 . S
C63 O66 1.238 . S
C63 O67 1.241 . S
C64 O57 1.247 . S
C64 O58 1.261 . S
C65 O60 1.259 . S
C65 O62 1.235 . S
O66 Co56 2.021 . S
O66 C63 1.238 . S
O67 Co61 2.052 . S
O67 C63 1.241 . S
O68 Co56 2.137 . S
O68 C59 1.247 . S
O69 Co56 2.244 . S
O69 C59 1.272 . S
O69 Co61 2.135 . S
Co70 O71 2.216 . S
Co70 O72 2.091 . S
Co70 O74 2.004 . S
Co70 O80 2.021 . S
Co70 O82 2.137 . S
Co70 O83 2.244 . S
O71 Co70 2.216 . S
O71 C78 1.247 . S
O72 Co70 2.091 . S
O72 C78 1.261 . S
C73 O82 1.247 . S
C73 O83 1.272 . S
O74 Co70 2.004 . S
O74 C79 1.259 . S
Co75 O76 2.061 . S
Co75 O81 2.052 . S
Co75 O83 2.135 . S
O76 Co75 2.061 . S
O76 C79 1.235 . S
C77 O80 1.238 . S
C77 O81 1.241 . S
C78 O71 1.247 . S
C78 O72 1.261 . S
C79 O74 1.259 . S
C79 O76 1.235 . S
O80 Co70 2.021 . S
O80 C77 1.238 . S
O81 Co75 2.052 . S
O81 C77 1.241 . S
O82 Co70 2.137 . S
O82 C73 1.247 . S
O83 Co70 2.244 . S
O83 C73 1.272 . S
O83 Co75 2.135 . S
Co84 O85 2.216 . S
Co84 O86 2.091 . S
Co84 O88 2.004 . S
Co84 O94 2.021 . S
Co84 O96 2.137 . S
Co84 O97 2.244 . S
O85 Co84 2.216 . S
O85 C92 1.247 . S
O86 Co84 2.091 . S
O86 C92 1.261 . S
C87 O96 1.247 . S
C87 O97 1.272 . S
O88 Co84 2.004 . S
O88 C93 1.259 . S
Co89 O90 2.061 . S
Co89 O95 2.052 . S
Co89 O97 2.135 . S
O90 Co89 2.061 . S
O90 C93 1.235 . S
C91 O94 1.238 . S
C91 O95 1.241 . S
C92 O85 1.247 . S
C92 O86 1.261 . S
C93 O88 1.259 . S
C93 O90 1.235 . S
O94 Co84 2.021 . S
O94 C91 1.238 . S
O95 Co89 2.052 . S
O95 C91 1.241 . S
O96 Co84 2.137 . S
O96 C87 1.247 . S
O97 Co84 2.244 . S
O97 C87 1.272 . S
O97 Co89 2.135 . S
Co98 O99 2.216 . S
Co98 O100 2.091 . S
Co98 O102 2.004 . S
Co98 O108 2.021 . S
Co98 O110 2.137 . S
Co98 O111 2.244 . S
O99 Co98 2.216 . S
O99 C106 1.247 . S
O100 Co98 2.091 . S
O100 C106 1.261 . S
C101 O110 1.247 . S
C101 O111 1.272 . S
O102 Co98 2.004 . S
O102 C107 1.259 . S
Co103 O104 2.061 . S
Co103 O109 2.052 . S
Co103 O111 2.135 . S
O104 Co103 2.061 . S
O104 C107 1.235 . S
C105 O108 1.238 . S
C105 O109 1.241 . S
C106 O99 1.247 . S
C106 O100 1.261 . S
C107 O102 1.259 . S
C107 O104 1.235 . S
O108 Co98 2.021 . S
O108 C105 1.238 . S
O109 Co103 2.052 . S
O109 C105 1.241 . S
O110 Co98 2.137 . S
O110 C101 1.247 . S
O111 Co98 2.244 . S
O111 C101 1.272 . S
O111 Co103 2.135 . S
Co112 O113 2.216 . S
Co112 O114 2.091 . S
Co112 O116 2.004 . S
Co112 O122 2.021 . S
Co112 O124 2.137 . S
Co112 O125 2.244 . S
O113 Co112 2.216 . S
O113 C120 1.247 . S
O114 Co112 2.091 . S
O114 C120 1.261 . S
C115 O124 1.247 . S
C115 O125 1.272 . S
O116 Co112 2.004 . S
O116 C121 1.259 . S
Co117 O118 2.061 . S
Co117 O123 2.052 . S
Co117 O125 2.135 . S
O118 Co117 2.061 . S
O118 C121 1.235 . S
C119 O122 1.238 . S
C119 O123 1.241 . S
C120 O113 1.247 . S
C120 O114 1.261 . S
C121 O116 1.259 . S
C121 O118 1.235 . S
O122 Co112 2.021 . S
O122 C119 1.238 . S
O123 Co117 2.052 . S
O123 C119 1.241 . S
O124 Co112 2.137 . S
O124 C115 1.247 . S
O125 Co112 2.244 . S
O125 C115 1.272 . S
O125 Co117 2.135 . S
Co126 O127 2.216 . S
Co126 O128 2.091 . S
Co126 O130 2.004 . S
Co126 O136 2.021 . S
Co126 O138 2.137 . S
Co126 O139 2.244 . S
O127 Co126 2.216 . S
O127 C134 1.247 . S
O128 Co126 2.091 . S
O128 C134 1.261 . S
C129 O138 1.247 . S
C129 O139 1.272 . S
O130 Co126 2.004 . S
O130 C135 1.259 . S
Co131 O132 2.061 . S
Co131 O137 2.052 . S
Co131 O139 2.135 . S
O132 Co131 2.061 . S
O132 C135 1.235 . S
C133 O136 1.238 . S
C133 O137 1.241 . S
C134 O127 1.247 . S
C134 O128 1.261 . S
C135 O130 1.259 . S
C135 O132 1.235 . S
O136 Co126 2.021 . S
O136 C133 1.238 . S
O137 Co131 2.052 . S
O137 C133 1.241 . S
O138 Co126 2.137 . S
O138 C129 1.247 . S
O139 Co126 2.244 . S
O139 C129 1.272 . S
O139 Co131 2.135 . S
Co140 O141 2.216 . S
Co140 O142 2.091 . S
Co140 O144 2.004 . S
Co140 O150 2.021 . S
Co140 O152 2.137 . S
Co140 O153 2.244 . S
O141 Co140 2.216 . S
O141 C148 1.247 . S
O142 Co140 2.091 . S
O142 C148 1.261 . S
C143 O152 1.247 . S
C143 O153 1.272 . S
O144 Co140 2.004 . S
O144 C149 1.259 . S
Co145 O146 2.061 . S
Co145 O151 2.052 . S
Co145 O153 2.135 . S
O146 Co145 2.061 . S
O146 C149 1.235 . S
C147 O150 1.238 . S
C147 O151 1.241 . S
C148 O141 1.247 . S
C148 O142 1.261 . S
C149 O144 1.259 . S
C149 O146 1.235 . S
O150 Co140 2.021 . S
O150 C147 1.238 . S
O151 Co145 2.052 . S
O151 C147 1.241 . S
O152 Co140 2.137 . S
O152 C143 1.247 . S
O153 Co140 2.244 . S
O153 C143 1.272 . S
O153 Co145 2.135 . S
Co154 O155 2.216 . S
Co154 O156 2.091 . S
Co154 O158 2.004 . S
Co154 O164 2.021 . S
Co154 O166 2.137 . S
Co154 O167 2.244 . S
O155 Co154 2.216 . S
O155 C162 1.247 . S
O156 Co154 2.091 . S
O156 C162 1.261 . S
C157 O166 1.247 . S
C157 O167 1.272 . S
O158 Co154 2.004 . S
O158 C163 1.259 . S
Co159 O160 2.061 . S
Co159 O165 2.052 . S
Co159 O167 2.135 . S
O160 Co159 2.061 . S
O160 C163 1.235 . S
C161 O164 1.238 . S
C161 O165 1.241 . S
C162 O155 1.247 . S
C162 O156 1.261 . S
C163 O158 1.259 . S
C163 O160 1.235 . S
O164 Co154 2.021 . S
O164 C161 1.238 . S
O165 Co159 2.052 . S
O165 C161 1.241 . S
O166 Co154 2.137 . S
O166 C157 1.247 . S
O167 Co154 2.244 . S
O167 C157 1.272 . S
O167 Co159 2.135 . S
H168 C186 0.951 . S
H169 C188 0.951 . S
H170 C190 0.950 1_554 S
H171 C191 0.950 . S
H172 C193 0.950 . S
H173 C196 0.949 . S
H174 C197 0.950 . S
H175 C199 0.950 1_545 S
H176 C200 0.950 1_545 S
H177 C201 0.951 . S
H178 C203 0.951 . S
H179 C205 0.950 1_556 S
H180 C206 0.950 . S
H181 C208 0.950 . S
H182 C211 0.949 . S
H183 C212 0.950 . S
H184 C214 0.950 1_565 S
H185 C215 0.950 1_565 S
C186 H168 0.951 . S
C186 C187 1.366 . S
C186 C188 1.388 . S
C187 C186 1.366 . S
C187 C191 1.385 . S
C188 H169 0.951 . S
C188 C186 1.388 . S
C188 C189 1.366 . S
C189 C188 1.366 . S
C189 C190 1.414 . S
C189 C192 1.499 . S
C190 H170 0.950 1_556 S
C190 C189 1.414 . S
C190 C191 1.374 . S
C191 H171 0.950 . S
C191 C187 1.385 . S
C191 C190 1.374 . S
C192 C189 1.499 . S
C192 C193 1.373 1_556 S
C192 C194 1.389 . S
C193 H172 0.950 . S
C193 C192 1.373 1_554 S
C193 C209 1.377 1_565 S
C194 C192 1.389 . S
C194 C195 1.524 . S
C194 C208 1.377 1_565 S
C195 C194 1.524 . S
C195 C196 1.397 . S
C195 C200 1.363 . S
C196 H173 0.949 . S
C196 C195 1.397 . S
C196 C197 1.334 . S
C197 H174 0.950 . S
C197 C196 1.334 . S
C197 C198 1.287 . S
C198 C197 1.287 . S
C198 C199 1.524 . S
C198 H217 0.913 . S
C199 H175 0.950 1_565 S
C199 C198 1.524 . S
C199 C200 1.415 . S
C200 H176 0.950 1_565 S
C200 C195 1.363 . S
C200 C199 1.415 . S
C201 H177 0.951 . S
C201 C202 1.366 . S
C201 C203 1.388 . S
C202 C201 1.366 . S
C202 C206 1.385 . S
C203 H178 0.951 . S
C203 C201 1.388 . S
C203 C204 1.366 . S
C204 C203 1.366 . S
C204 C205 1.414 . S
C204 C207 1.499 . S
C205 H179 0.950 1_554 S
C205 C204 1.414 . S
C205 C206 1.374 . S
C206 H180 0.950 . S
C206 C202 1.385 . S
C206 C205 1.374 . S
C207 C204 1.499 . S
C207 C208 1.373 1_554 S
C207 C209 1.389 . S
C208 H181 0.950 . S
C208 C194 1.377 1_545 S
C208 C207 1.373 1_556 S
C209 C193 1.377 1_545 S
C209 C207 1.389 . S
C209 C210 1.524 . S
C210 C209 1.524 . S
C210 C211 1.397 . S
C210 C215 1.363 . S
C211 H182 0.949 . S
C211 C210 1.397 . S
C211 C212 1.334 . S
C212 H183 0.950 . S
C212 C211 1.334 . S
C212 C213 1.287 . S
C213 C212 1.287 . S
C213 C214 1.524 . S
C213 H216 0.999 . S
C214 H184 0.950 1_545 S
C214 C213 1.524 . S
C214 C215 1.415 . S
C215 H185 0.950 1_545 S
C215 C210 1.363 . S
C215 C214 1.415 . S
H216 C213 0.999 . S
H217 C198 0.913 . S
H218 C236 0.951 . S
H219 C238 0.951 . S
H220 C240 0.950 . S
H221 C241 0.950 . S
H222 C243 0.950 . S
H223 C246 0.950 . S
H224 C247 0.950 . S
H225 C249 0.950 . S
H226 C250 0.950 . S
H227 C251 0.951 . S
H228 C253 0.951 . S
H229 C255 0.950 . S
H230 C256 0.950 . S
H231 C258 0.950 . S
H232 C261 0.950 . S
H233 C262 0.950 . S
H234 C264 0.950 . S
H235 C265 0.950 . S
C236 H218 0.951 . S
C236 C237 1.366 . S
C236 C238 1.388 . S
C237 C236 1.366 . S
C237 C241 1.385 . S
C238 H219 0.951 . S
C238 C236 1.388 . S
C238 C239 1.366 . S
C239 C238 1.366 . S
C239 C240 1.414 . S
C239 C242 1.499 . S
C240 H220 0.950 . S
C240 C239 1.414 . S
C240 C241 1.374 . S
C241 H221 0.950 . S
C241 C237 1.385 . S
C241 C240 1.374 . S
C242 C239 1.499 . S
C242 C243 1.373 . S
C242 C244 1.389 . S
C243 H222 0.950 . S
C243 C242 1.373 . S
C243 C259 1.377 . S
C244 C242 1.389 . S
C244 C245 1.524 . S
C244 C258 1.377 . S
C245 C244 1.524 . S
C245 C246 1.397 . S
C245 C250 1.363 . S
C246 H223 0.950 . S
C246 C245 1.397 . S
C246 C247 1.334 . S
C247 H224 0.950 . S
C247 C246 1.334 . S
C247 C248 1.287 . S
C248 C247 1.287 . S
C248 C249 1.524 . S
C248 H267 0.913 . S
C249 H225 0.950 . S
C249 C248 1.524 . S
C249 C250 1.415 . S
C250 H226 0.950 . S
C250 C245 1.363 . S
C250 C249 1.415 . S
C251 H227 0.951 . S
C251 C252 1.366 . S
C251 C253 1.388 . S
C252 C251 1.366 . S
C252 C256 1.385 . S
C253 H228 0.951 . S
C253 C251 1.388 . S
C253 C254 1.366 . S
C254 C253 1.366 . S
C254 C255 1.414 . S
C254 C257 1.499 . S
C255 H229 0.950 . S
C255 C254 1.414 . S
C255 C256 1.374 . S
C256 H230 0.950 . S
C256 C252 1.385 . S
C256 C255 1.374 . S
C257 C254 1.499 . S
C257 C258 1.373 . S
C257 C259 1.389 . S
C258 H231 0.950 . S
C258 C244 1.377 . S
C258 C257 1.373 . S
C259 C243 1.377 . S
C259 C257 1.389 . S
C259 C260 1.524 . S
C260 C259 1.524 . S
C260 C261 1.397 . S
C260 C265 1.363 . S
C261 H232 0.950 . S
C261 C260 1.397 . S
C261 C262 1.334 . S
C262 H233 0.950 . S
C262 C261 1.334 . S
C262 C263 1.287 . S
C263 C262 1.287 . S
C263 C264 1.524 . S
C263 H266 0.999 . S
C264 H234 0.950 . S
C264 C263 1.524 . S
C264 C265 1.415 . S
C265 H235 0.950 . S
C265 C260 1.363 . S
C265 C264 1.415 . S
H266 C263 0.999 . S
H267 C248 0.913 . S
H268 C286 0.951 . S
H269 C288 0.951 . S
H270 C290 0.950 . S
H271 C291 0.950 . S
H272 C293 0.950 . S
H273 C296 0.950 . S
H274 C297 0.950 . S
H275 C299 0.950 . S
H276 C300 0.950 . S
H277 C301 0.951 . S
H278 C303 0.951 . S
H279 C305 0.950 . S
H280 C306 0.950 . S
H281 C308 0.950 . S
H282 C311 0.950 . S
H283 C312 0.950 . S
H284 C314 0.950 . S
H285 C315 0.950 . S
C286 H268 0.951 . S
C286 C287 1.366 . S
C286 C288 1.388 . S
C287 C286 1.366 . S
C287 C291 1.385 . S
C288 H269 0.951 . S
C288 C286 1.388 . S
C288 C289 1.366 . S
C289 C288 1.366 . S
C289 C290 1.414 . S
C289 C292 1.499 . S
C290 H270 0.950 . S
C290 C289 1.414 . S
C290 C291 1.374 . S
C291 H271 0.950 . S
C291 C287 1.385 . S
C291 C290 1.374 . S
C292 C289 1.499 . S
C292 C293 1.373 . S
C292 C294 1.389 . S
C293 H272 0.950 . S
C293 C292 1.373 . S
C293 C309 1.377 1_655 S
C294 C292 1.389 . S
C294 C295 1.524 . S
C294 C308 1.377 1_655 S
C295 C294 1.524 . S
C295 C296 1.397 . S
C295 C300 1.363 . S
C296 H273 0.950 . S
C296 C295 1.397 . S
C296 C297 1.334 . S
C297 H274 0.950 . S
C297 C296 1.334 . S
C297 C298 1.287 . S
C298 C297 1.287 . S
C298 C299 1.524 . S
C298 H317 0.913 . S
C299 H275 0.950 . S
C299 C298 1.524 . S
C299 C300 1.415 . S
C300 H276 0.950 . S
C300 C295 1.363 . S
C300 C299 1.415 . S
C301 H277 0.951 . S
C301 C302 1.366 . S
C301 C303 1.388 . S
C302 C301 1.366 . S
C302 C306 1.385 . S
C303 H278 0.951 . S
C303 C301 1.388 . S
C303 C304 1.366 . S
C304 C303 1.366 . S
C304 C305 1.414 . S
C304 C307 1.499 . S
C305 H279 0.950 . S
C305 C304 1.414 . S
C305 C306 1.374 . S
C306 H280 0.950 . S
C306 C302 1.385 . S
C306 C305 1.374 . S
C307 C304 1.499 . S
C307 C308 1.373 . S
C307 C309 1.389 . S
C308 H281 0.950 . S
C308 C294 1.377 1_455 S
C308 C307 1.373 . S
C309 C293 1.377 1_455 S
C309 C307 1.389 . S
C309 C310 1.524 . S
C310 C309 1.524 . S
C310 C311 1.397 . S
C310 C315 1.363 . S
C311 H282 0.950 . S
C311 C310 1.397 . S
C311 C312 1.334 . S
C312 H283 0.950 . S
C312 C311 1.334 . S
C312 C313 1.287 . S
C313 C312 1.287 . S
C313 C314 1.524 . S
C313 H316 0.999 . S
C314 H284 0.950 . S
C314 C313 1.524 . S
C314 C315 1.415 . S
C315 H285 0.950 . S
C315 C310 1.363 . S
C315 C314 1.415 . S
H316 C313 0.999 . S
H317 C298 0.913 . S
H318 C336 0.951 . S
H319 C338 0.951 . S
H320 C340 0.950 1_556 S
H321 C341 0.950 . S
H322 C343 0.950 . S
H323 C346 0.970 . S
H324 C347 0.950 . S
H325 C349 0.950 1_545 S
H326 C350 0.938 1_545 S
H327 C351 0.951 . S
H328 C353 0.951 . S
H329 C355 0.950 1_554 S
H330 C356 0.950 . S
H331 C358 0.950 . S
H332 C361 0.970 . S
H333 C362 0.950 . S
H334 C364 0.950 1_565 S
H335 C365 0.938 1_565 S
C336 H318 0.951 . S
C336 C337 1.366 . S
C336 C338 1.388 . S
C337 C336 1.366 . S
C337 C341 1.385 . S
C338 H319 0.951 . S
C338 C336 1.388 . S
C338 C339 1.366 . S
C339 C338 1.366 . S
C339 C340 1.414 . S
C339 C342 1.499 . S
C340 H320 0.950 1_554 S
C340 C339 1.414 . S
C340 C341 1.374 . S
C341 H321 0.950 . S
C341 C337 1.385 . S
C341 C340 1.374 . S
C342 C339 1.499 . S
C342 C343 1.373 1_554 S
C342 C344 1.389 . S
C343 H322 0.950 . S
C343 C342 1.373 1_556 S
C343 C359 1.377 1_565 S
C344 C342 1.389 . S
C344 C345 1.524 . S
C344 C358 1.377 1_565 S
C345 C344 1.524 . S
C345 C346 1.397 . S
C345 C350 1.381 . S
C346 H323 0.970 . S
C346 C345 1.397 . S
C346 C347 1.334 . S
C347 H324 0.950 . S
C347 C346 1.334 . S
C347 C348 1.287 . S
C348 C347 1.287 . S
C348 C349 1.524 . S
C348 H367 0.913 . S
C349 H325 0.950 1_565 S
C349 C348 1.524 . S
C349 C350 1.409 . S
C350 H326 0.938 1_565 S
C350 C345 1.381 . S
C350 C349 1.409 . S
C351 H327 0.951 . S
C351 C352 1.366 . S
C351 C353 1.388 . S
C352 C351 1.366 . S
C352 C356 1.385 . S
C353 H328 0.951 . S
C353 C351 1.388 . S
C353 C354 1.366 . S
C354 C353 1.366 . S
C354 C355 1.414 . S
C354 C357 1.499 . S
C355 H329 0.950 1_556 S
C355 C354 1.414 . S
C355 C356 1.374 . S
C356 H330 0.950 . S
C356 C352 1.385 . S
C356 C355 1.374 . S
C357 C354 1.499 . S
C357 C358 1.373 1_556 S
C357 C359 1.389 . S
C358 H331 0.950 . S
C358 C344 1.377 1_545 S
C358 C357 1.373 1_554 S
C359 C343 1.377 1_545 S
C359 C357 1.389 . S
C359 C360 1.524 . S
C360 C359 1.524 . S
C360 C361 1.397 . S
C360 C365 1.381 . S
C361 H332 0.970 . S
C361 C360 1.397 . S
C361 C362 1.334 . S
C362 H333 0.950 . S
C362 C361 1.334 . S
C362 C363 1.287 . S
C363 C362 1.287 . S
C363 C364 1.524 . S
C363 H366 0.999 . S
C364 H334 0.950 1_545 S
C364 C363 1.524 . S
C364 C365 1.409 . S
C365 H335 0.938 1_545 S
C365 C360 1.381 . S
C365 C364 1.409 . S
H366 C363 0.999 . S
H367 C348 0.913 . S
H368 C386 0.951 . S
H369 C388 0.951 . S
H370 C390 0.950 . S
H371 C391 0.950 . S
H372 C393 0.950 . S
H373 C396 0.950 . S
H374 C397 0.950 . S
H375 C399 0.950 . S
H376 C400 0.950 . S
H377 C401 0.951 . S
H378 C403 0.951 . S
H379 C405 0.950 . S
H380 C406 0.950 . S
H381 C408 0.950 . S
H382 C411 0.950 . S
H383 C412 0.950 . S
H384 C414 0.950 . S
H385 C415 0.950 . S
C386 H368 0.951 . S
C386 C387 1.366 . S
C386 C388 1.388 . S
C387 C386 1.366 . S
C387 C391 1.385 . S
C388 H369 0.951 . S
C388 C386 1.388 . S
C388 C389 1.366 . S
C389 C388 1.366 . S
C389 C390 1.414 . S
C389 C392 1.499 . S
C390 H370 0.950 . S
C390 C389 1.414 . S
C390 C391 1.374 . S
C391 H371 0.950 . S
C391 C387 1.385 . S
C391 C390 1.374 . S
C392 C389 1.499 . S
C392 C393 1.373 . S
C392 C394 1.389 . S
C393 H372 0.950 . S
C393 C392 1.373 . S
C393 C409 1.377 . S
C394 C392 1.389 . S
C394 C395 1.524 . S
C394 C408 1.377 . S
C395 C394 1.524 . S
C395 C396 1.397 . S
C395 C400 1.363 . S
C396 H373 0.950 . S
C396 C395 1.397 . S
C396 C397 1.334 . S
C397 H374 0.950 . S
C397 C396 1.334 . S
C397 C398 1.287 . S
C398 C397 1.287 . S
C398 C399 1.524 . S
C398 H417 0.913 . S
C399 H375 0.950 . S
C399 C398 1.524 . S
C399 C400 1.415 . S
C400 H376 0.950 . S
C400 C395 1.363 . S
C400 C399 1.415 . S
C401 H377 0.951 . S
C401 C402 1.366 . S
C401 C403 1.388 . S
C402 C401 1.366 . S
C402 C406 1.385 . S
C403 H378 0.951 . S
C403 C401 1.388 . S
C403 C404 1.366 . S
C404 C403 1.366 . S
C404 C405 1.414 . S
C404 C407 1.499 . S
C405 H379 0.950 . S
C405 C404 1.414 . S
C405 C406 1.374 . S
C406 H380 0.950 . S
C406 C402 1.385 . S
C406 C405 1.374 . S
C407 C404 1.499 . S
C407 C408 1.373 . S
C407 C409 1.389 . S
C408 H381 0.950 . S
C408 C394 1.377 . S
C408 C407 1.373 . S
C409 C393 1.377 . S
C409 C407 1.389 . S
C409 C410 1.524 . S
C410 C409 1.524 . S
C410 C411 1.397 . S
C410 C415 1.363 . S
C411 H382 0.950 . S
C411 C410 1.397 . S
C411 C412 1.334 . S
C412 H383 0.950 . S
C412 C411 1.334 . S
C412 C413 1.287 . S
C413 C412 1.287 . S
C413 C414 1.524 . S
C413 H416 0.999 . S
C414 H384 0.950 . S
C414 C413 1.524 . S
C414 C415 1.415 . S
C415 H385 0.950 . S
C415 C410 1.363 . S
C415 C414 1.415 . S
H416 C413 0.999 . S
H417 C398 0.913 . S
H418 C436 0.951 . S
H419 C438 0.951 . S
H420 C440 0.950 . S
H421 C441 0.950 . S
H422 C443 0.950 . S
H423 C446 0.950 . S
H424 C447 0.950 . S
H425 C449 0.950 . S
H426 C450 0.950 . S
H427 C451 0.951 . S
H428 C453 0.951 . S
H429 C455 0.950 . S
H430 C456 0.950 . S
H431 C458 0.950 . S
H432 C461 0.950 . S
H433 C462 0.950 . S
H434 C464 0.950 . S
H435 C465 0.950 . S
C436 H418 0.951 . S
C436 C437 1.366 . S
C436 C438 1.388 . S
C437 C436 1.366 . S
C437 C441 1.385 . S
C438 H419 0.951 . S
C438 C436 1.388 . S
C438 C439 1.366 . S
C439 C438 1.366 . S
C439 C440 1.414 . S
C439 C442 1.499 . S
C440 H420 0.950 . S
C440 C439 1.414 . S
C440 C441 1.374 . S
C441 H421 0.950 . S
C441 C437 1.385 . S
C441 C440 1.374 . S
C442 C439 1.499 . S
C442 C443 1.373 . S
C442 C444 1.389 . S
C443 H422 0.950 . S
C443 C442 1.373 . S
C443 C459 1.377 1_655 S
C444 C442 1.389 . S
C444 C445 1.524 . S
C444 C458 1.377 1_655 S
C445 C444 1.524 . S
C445 C446 1.397 . S
C445 C450 1.363 . S
C446 H423 0.950 . S
C446 C445 1.397 . S
C446 C447 1.334 . S
C447 H424 0.950 . S
C447 C446 1.334 . S
C447 C448 1.287 . S
C448 C447 1.287 . S
C448 C449 1.524 . S
C448 H467 0.913 . S
C449 H425 0.950 . S
C449 C448 1.524 . S
C449 C450 1.415 . S
C450 H426 0.950 . S
C450 C445 1.363 . S
C450 C449 1.415 . S
C451 H427 0.951 . S
C451 C452 1.366 . S
C451 C453 1.388 . S
C452 C451 1.366 . S
C452 C456 1.385 . S
C453 H428 0.951 . S
C453 C451 1.388 . S
C453 C454 1.366 . S
C454 C453 1.366 . S
C454 C455 1.414 . S
C454 C457 1.499 . S
C455 H429 0.950 . S
C455 C454 1.414 . S
C455 C456 1.374 . S
C456 H430 0.950 . S
C456 C452 1.385 . S
C456 C455 1.374 . S
C457 C454 1.499 . S
C457 C458 1.373 . S
C457 C459 1.389 . S
C458 H431 0.950 . S
C458 C444 1.377 1_455 S
C458 C457 1.373 . S
C459 C443 1.377 1_455 S
C459 C457 1.389 . S
C459 C460 1.524 . S
C460 C459 1.524 . S
C460 C461 1.397 . S
C460 C465 1.363 . S
C461 H432 0.950 . S
C461 C460 1.397 . S
C461 C462 1.334 . S
C462 H433 0.950 . S
C462 C461 1.334 . S
C462 C463 1.287 . S
C463 C462 1.287 . S
C463 C464 1.524 . S
C463 H466 0.999 . S
C464 H434 0.950 . S
C464 C463 1.524 . S
C464 C465 1.415 . S
C465 H435 0.950 . S
C465 C460 1.363 . S
C465 C464 1.415 . S
H466 C463 0.999 . S
H467 C448 0.913 . S
H468 C486 0.951 . S
H469 C488 0.951 1_554 S
H470 C490 0.950 . S
H471 C491 0.950 . S
H472 C493 0.950 . S
H473 C496 0.950 . S
H474 C497 0.950 . S
H475 C499 0.950 . S
H476 C500 0.950 . S
H477 C501 0.951 . S
H478 C503 0.951 1_556 S
H479 C505 0.950 . S
H480 C506 0.950 . S
H481 C508 0.950 . S
H482 C511 0.950 . S
H483 C512 0.950 . S
H484 C514 0.950 . S
H485 C515 0.950 . S
C486 H468 0.951 . S
C486 C487 1.366 . S
C486 C488 1.388 . S
C487 C486 1.366 . S
C487 C491 1.385 . S
C488 H469 0.951 1_556 S
C488 C486 1.388 . S
C488 C489 1.366 . S
C489 C488 1.366 . S
C489 C490 1.414 . S
C489 C492 1.499 . S
C490 H470 0.950 . S
C490 C489 1.414 . S
C490 C491 1.374 . S
C491 H471 0.950 . S
C491 C487 1.385 . S
C491 C490 1.374 . S
C492 C489 1.499 . S
C492 C493 1.373 . S
C492 C494 1.389 1_556 S
C493 H472 0.950 . S
C493 C492 1.373 . S
C493 C509 1.377 . S
C494 C492 1.389 1_554 S
C494 C495 1.524 . S
C494 C508 1.377 . S
C495 C494 1.524 . S
C495 C496 1.397 . S
C495 C500 1.363 . S
C496 H473 0.950 . S
C496 C495 1.397 . S
C496 C497 1.334 . S
C497 H474 0.950 . S
C497 C496 1.334 . S
C497 C498 1.287 . S
C498 C497 1.287 . S
C498 C499 1.524 . S
C498 H517 0.913 . S
C499 H475 0.950 . S
C499 C498 1.524 . S
C499 C500 1.415 . S
C500 H476 0.950 . S
C500 C495 1.363 . S
C500 C499 1.415 . S
C501 H477 0.951 . S
C501 C502 1.366 . S
C501 C503 1.388 . S
C502 C501 1.366 . S
C502 C506 1.385 . S
C503 H478 0.951 1_554 S
C503 C501 1.388 . S
C503 C504 1.366 . S
C504 C503 1.366 . S
C504 C505 1.414 . S
C504 C507 1.499 . S
C505 H479 0.950 . S
C505 C504 1.414 . S
C505 C506 1.374 . S
C506 H480 0.950 . S
C506 C502 1.385 . S
C506 C505 1.374 . S
C507 C504 1.499 . S
C507 C508 1.373 . S
C507 C509 1.389 1_554 S
C508 H481 0.950 . S
C508 C494 1.377 . S
C508 C507 1.373 . S
C509 C493 1.377 . S
C509 C507 1.389 1_556 S
C509 C510 1.524 . S
C510 C509 1.524 . S
C510 C511 1.397 . S
C510 C515 1.363 . S
C511 H482 0.950 . S
C511 C510 1.397 . S
C511 C512 1.334 . S
C512 H483 0.950 . S
C512 C511 1.334 . S
C512 C513 1.287 . S
C513 C512 1.287 . S
C513 C514 1.524 . S
C513 H516 0.999 . S
C514 H484 0.950 . S
C514 C513 1.524 . S
C514 C515 1.415 . S
C515 H485 0.950 . S
C515 C510 1.363 . S
C515 C514 1.415 . S
H516 C513 0.999 . S
H517 C498 0.913 . S
H518 C536 0.951 . S
H519 C538 0.951 . S
H520 C540 0.950 . S
H521 C541 0.950 . S
H522 C543 0.950 . S
H523 C546 0.950 . S
H524 C547 0.950 . S
H525 C549 0.950 . S
H526 C550 0.950 . S
H527 C551 0.951 . S
H528 C553 0.951 . S
H529 C555 0.950 . S
H530 C556 0.950 . S
H531 C558 0.950 . S
H532 C561 0.950 . S
H533 C562 0.950 . S
H534 C564 0.950 . S
H535 C565 0.950 . S
C536 H518 0.951 . S
C536 C537 1.366 . S
C536 C538 1.388 . S
C537 C536 1.366 . S
C537 C541 1.385 . S
C538 H519 0.951 . S
C538 C536 1.388 . S
C538 C539 1.366 . S
C539 C538 1.366 . S
C539 C540 1.414 . S
C539 C542 1.499 . S
C540 H520 0.950 . S
C540 C539 1.414 . S
C540 C541 1.374 . S
C541 H521 0.950 . S
C541 C537 1.385 . S
C541 C540 1.374 . S
C542 C539 1.499 . S
C542 C543 1.373 . S
C542 C544 1.389 . S
C543 H522 0.950 . S
C543 C542 1.373 . S
C543 C559 1.377 . S
C544 C542 1.389 . S
C544 C545 1.524 . S
C544 C558 1.377 . S
C545 C544 1.524 . S
C545 C546 1.397 . S
C545 C550 1.363 . S
C546 H523 0.950 . S
C546 C545 1.397 . S
C546 C547 1.334 . S
C547 H524 0.950 . S
C547 C546 1.334 . S
C547 C548 1.287 . S
C548 C547 1.287 . S
C548 C549 1.524 . S
C548 H567 0.913 . S
C549 H525 0.950 . S
C549 C548 1.524 . S
C549 C550 1.415 . S
C550 H526 0.950 . S
C550 C545 1.363 . S
C550 C549 1.415 . S
C551 H527 0.951 . S
C551 C552 1.366 . S
C551 C553 1.388 . S
C552 C551 1.366 . S
C552 C556 1.385 . S
C553 H528 0.951 . S
C553 C551 1.388 . S
C553 C554 1.366 . S
C554 C553 1.366 . S
C554 C555 1.414 . S
C554 C557 1.499 . S
C555 H529 0.950 . S
C555 C554 1.414 . S
C555 C556 1.374 . S
C556 H530 0.950 . S
C556 C552 1.385 . S
C556 C555 1.374 . S
C557 C554 1.499 . S
C557 C558 1.373 . S
C557 C559 1.389 . S
C558 H531 0.950 . S
C558 C544 1.377 . S
C558 C557 1.373 . S
C559 C543 1.377 . S
C559 C557 1.389 . S
C559 C560 1.524 . S
C560 C559 1.524 . S
C560 C561 1.397 . S
C560 C565 1.363 . S
C561 H532 0.950 . S
C561 C560 1.397 . S
C561 C562 1.334 . S
C562 H533 0.950 . S
C562 C561 1.334 . S
C562 C563 1.287 . S
C563 C562 1.287 . S
C563 C564 1.524 . S
C563 H566 0.999 . S
C564 H534 0.950 . S
C564 C563 1.524 . S
C564 C565 1.415 . S
C565 H535 0.950 . S
C565 C560 1.363 . S
C565 C564 1.415 . S
H566 C563 0.999 . S
H567 C548 0.913 . S
H568 C586 0.951 . S
H569 C588 0.951 . S
H570 C590 0.950 . S
H571 C591 0.950 . S
H572 C593 0.950 . S
H573 C596 0.950 . S
H574 C597 0.950 . S
H575 C599 0.950 . S
H576 C600 0.950 . S
H577 C601 0.951 . S
H578 C603 0.951 . S
H579 C605 0.950 . S
H580 C606 0.950 . S
H581 C608 0.950 . S
H582 C611 0.950 . S
H583 C612 0.950 . S
H584 C614 0.950 . S
H585 C615 0.950 . S
C586 H568 0.951 . S
C586 C587 1.366 . S
C586 C588 1.388 . S
C587 C586 1.366 . S
C587 C591 1.385 . S
C588 H569 0.951 . S
C588 C586 1.388 . S
C588 C589 1.366 . S
C589 C588 1.366 . S
C589 C590 1.414 . S
C589 C592 1.499 . S
C590 H570 0.950 . S
C590 C589 1.414 . S
C590 C591 1.374 . S
C591 H571 0.950 . S
C591 C587 1.385 . S
C591 C590 1.374 . S
C592 C589 1.499 . S
C592 C593 1.373 . S
C592 C594 1.389 . S
C593 H572 0.950 . S
C593 C592 1.373 . S
C593 C609 1.377 . S
C594 C592 1.389 . S
C594 C595 1.524 . S
C594 C608 1.377 . S
C595 C594 1.524 . S
C595 C596 1.397 . S
C595 C600 1.363 . S
C596 H573 0.950 . S
C596 C595 1.397 . S
C596 C597 1.334 . S
C597 H574 0.950 . S
C597 C596 1.334 . S
C597 C598 1.287 . S
C598 C597 1.287 . S
C598 C599 1.524 . S
C598 H617 0.913 . S
C599 H575 0.950 . S
C599 C598 1.524 . S
C599 C600 1.415 . S
C600 H576 0.950 . S
C600 C595 1.363 . S
C600 C599 1.415 . S
C601 H577 0.951 . S
C601 C602 1.366 . S
C601 C603 1.388 . S
C602 C601 1.366 . S
C602 C606 1.385 . S
C603 H578 0.951 . S
C603 C601 1.388 . S
C603 C604 1.366 . S
C604 C603 1.366 . S
C604 C605 1.414 . S
C604 C607 1.499 . S
C605 H579 0.950 . S
C605 C604 1.414 . S
C605 C606 1.374 . S
C606 H580 0.950 . S
C606 C602 1.385 . S
C606 C605 1.374 . S
C607 C604 1.499 . S
C607 C608 1.373 . S
C607 C609 1.389 . S
C608 H581 0.950 . S
C608 C594 1.377 . S
C608 C607 1.373 . S
C609 C593 1.377 . S
C609 C607 1.389 . S
C609 C610 1.524 . S
C610 C609 1.524 . S
C610 C611 1.397 . S
C610 C615 1.363 . S
C611 H582 0.950 . S
C611 C610 1.397 . S
C611 C612 1.334 . S
C612 H583 0.950 . S
C612 C611 1.334 . S
C612 C613 1.287 . S
C613 C612 1.287 . S
C613 C614 1.524 . S
C613 H616 0.999 . S
C614 H584 0.950 . S
C614 C613 1.524 . S
C614 C615 1.415 . S
C615 H585 0.950 . S
C615 C610 1.363 . S
C615 C614 1.415 . S
H616 C613 0.999 . S
H617 C598 0.913 . S
H618 C636 0.951 . S
H619 C638 0.951 . S
H620 C640 0.950 . S
H621 C641 0.950 . S
H622 C643 0.950 . S
H623 C646 0.950 . S
H624 C647 0.950 . S
H625 C649 0.950 . S
H626 C650 0.950 . S
H627 C651 0.951 . S
H628 C653 0.951 . S
H629 C655 0.950 . S
H630 C656 0.950 . S
H631 C658 0.950 . S
H632 C661 0.950 . S
H633 C662 0.950 . S
H634 C664 0.950 . S
H635 C665 0.950 . S
C636 H618 0.951 . S
C636 C637 1.366 . S
C636 C638 1.388 . S
C637 C636 1.366 . S
C637 C641 1.385 . S
C638 H619 0.951 . S
C638 C636 1.388 . S
C638 C639 1.366 . S
C639 C638 1.366 . S
C639 C640 1.414 . S
C639 C642 1.499 . S
C640 H620 0.950 . S
C640 C639 1.414 . S
C640 C641 1.374 . S
C641 H621 0.950 . S
C641 C637 1.385 . S
C641 C640 1.374 . S
C642 C639 1.499 . S
C642 C643 1.373 . S
C642 C644 1.389 1_556 S
C643 H622 0.950 . S
C643 C642 1.373 . S
C643 C659 1.377 . S
C644 C642 1.389 1_554 S
C644 C645 1.524 . S
C644 C658 1.377 . S
C645 C644 1.524 . S
C645 C646 1.397 . S
C645 C650 1.363 . S
C646 H623 0.950 . S
C646 C645 1.397 . S
C646 C647 1.334 . S
C647 H624 0.950 . S
C647 C646 1.334 . S
C647 C648 1.287 . S
C648 C647 1.287 . S
C648 C649 1.524 . S
C648 H667 0.913 . S
C649 H625 0.950 . S
C649 C648 1.524 . S
C649 C650 1.415 . S
C650 H626 0.950 . S
C650 C645 1.363 . S
C650 C649 1.415 . S
C651 H627 0.951 . S
C651 C652 1.366 . S
C651 C653 1.388 . S
C652 C651 1.366 . S
C652 C656 1.385 . S
C653 H628 0.951 . S
C653 C651 1.388 . S
C653 C654 1.366 . S
C654 C653 1.366 . S
C654 C655 1.414 . S
C654 C657 1.499 . S
C655 H629 0.950 . S
C655 C654 1.414 . S
C655 C656 1.374 . S
C656 H630 0.950 . S
C656 C652 1.385 . S
C656 C655 1.374 . S
C657 C654 1.499 . S
C657 C658 1.373 . S
C657 C659 1.389 1_554 S
C658 H631 0.950 . S
C658 C644 1.377 . S
C658 C657 1.373 . S
C659 C643 1.377 . S
C659 C657 1.389 1_556 S
C659 C660 1.524 . S
C660 C659 1.524 . S
C660 C661 1.397 . S
C660 C665 1.363 . S
C661 H632 0.950 . S
C661 C660 1.397 . S
C661 C662 1.334 . S
C662 H633 0.950 . S
C662 C661 1.334 . S
C662 C663 1.287 . S
C663 C662 1.287 . S
C663 C664 1.524 . S
C663 H666 0.999 . S
C664 H634 0.950 . S
C664 C663 1.524 . S
C664 C665 1.415 . S
C665 H635 0.950 . S
C665 C660 1.363 . S
C665 C664 1.415 . S
H666 C663 0.999 . S
H667 C648 0.913 . S
H668 C686 0.951 . S
H669 C688 0.951 . S
H670 C690 0.950 . S
H671 C691 0.950 . S
H672 C693 0.950 . S
H673 C696 0.950 . S
H674 C697 0.950 . S
H675 C699 0.950 . S
H676 C700 0.950 . S
H677 C701 0.951 . S
H678 C703 0.951 . S
H679 C705 0.950 . S
H680 C706 0.950 . S
H681 C708 0.950 . S
H682 C711 0.950 . S
H683 C712 0.950 . S
H684 C714 0.950 . S
H685 C715 0.950 . S
C686 H668 0.951 . S
C686 C687 1.366 . S
C686 C688 1.388 . S
C687 C686 1.366 . S
C687 C691 1.385 . S
C688 H669 0.951 . S
C688 C686 1.388 . S
C688 C689 1.366 . S
C689 C688 1.366 . S
C689 C690 1.414 . S
C689 C692 1.499 . S
C690 H670 0.950 . S
C690 C689 1.414 . S
C690 C691 1.374 . S
C691 H671 0.950 . S
C691 C687 1.385 . S
C691 C690 1.374 . S
C692 C689 1.499 . S
C692 C693 1.373 . S
C692 C694 1.389 . S
C693 H672 0.950 . S
C693 C692 1.373 . S
C693 C709 1.377 . S
C694 C692 1.389 . S
C694 C695 1.524 . S
C694 C708 1.377 . S
C695 C694 1.524 . S
C695 C696 1.397 . S
C695 C700 1.363 . S
C696 H673 0.950 . S
C696 C695 1.397 . S
C696 C697 1.334 . S
C697 H674 0.950 . S
C697 C696 1.334 . S
C697 C698 1.287 . S
C698 C697 1.287 . S
C698 C699 1.524 . S
C698 H717 0.913 . S
C699 H675 0.950 . S
C699 C698 1.524 . S
C699 C700 1.415 . S
C700 H676 0.950 . S
C700 C695 1.363 . S
C700 C699 1.415 . S
C701 H677 0.951 . S
C701 C702 1.366 . S
C701 C703 1.388 . S
C702 C701 1.366 . S
C702 C706 1.385 . S
C703 H678 0.951 . S
C703 C701 1.388 . S
C703 C704 1.366 . S
C704 C703 1.366 . S
C704 C705 1.414 . S
C704 C707 1.499 . S
C705 H679 0.950 . S
C705 C704 1.414 . S
C705 C706 1.374 . S
C706 H680 0.950 . S
C706 C702 1.385 . S
C706 C705 1.374 . S
C707 C704 1.499 . S
C707 C708 1.373 . S
C707 C709 1.389 . S
C708 H681 0.950 . S
C708 C694 1.377 . S
C708 C707 1.373 . S
C709 C693 1.377 . S
C709 C707 1.389 . S
C709 C710 1.524 . S
C710 C709 1.524 . S
C710 C711 1.397 . S
C710 C715 1.363 . S
C711 H682 0.950 . S
C711 C710 1.397 . S
C711 C712 1.334 . S
C712 H683 0.950 . S
C712 C711 1.334 . S
C712 C713 1.287 . S
C713 C712 1.287 . S
C713 C714 1.524 . S
C713 H716 0.999 . S
C714 H684 0.950 . S
C714 C713 1.524 . S
C714 C715 1.415 . S
C715 H685 0.950 . S
C715 C710 1.363 . S
C715 C714 1.415 . S
H716 C713 0.999 . S
H717 C698 0.913 . S
H718 C736 0.951 . S
H719 C738 0.951 . S
H720 C740 0.950 . S
H721 C741 0.950 . S
H722 C743 0.950 . S
H723 C746 0.950 . S
H724 C747 0.950 . S
H725 C749 0.950 . S
H726 C750 0.950 . S
H727 C751 0.951 . S
H728 C753 0.951 . S
H729 C755 0.950 . S
H730 C756 0.950 . S
H731 C758 0.950 . S
H732 C761 0.950 . S
H733 C762 0.950 . S
H734 C764 0.950 . S
H735 C765 0.950 . S
C736 H718 0.951 . S
C736 C737 1.366 . S
C736 C738 1.388 . S
C737 C736 1.366 . S
C737 C741 1.385 . S
C738 H719 0.951 . S
C738 C736 1.388 . S
C738 C739 1.366 . S
C739 C738 1.366 . S
C739 C740 1.414 . S
C739 C742 1.499 . S
C740 H720 0.950 . S
C740 C739 1.414 . S
C740 C741 1.374 . S
C741 H721 0.950 . S
C741 C737 1.385 . S
C741 C740 1.374 . S
C742 C739 1.499 . S
C742 C743 1.373 . S
C742 C744 1.389 . S
C743 H722 0.950 . S
C743 C742 1.373 . S
C743 C759 1.377 . S
C744 C742 1.389 . S
C744 C745 1.524 . S
C744 C758 1.377 . S
C745 C744 1.524 . S
C745 C746 1.397 . S
C745 C750 1.363 . S
C746 H723 0.950 . S
C746 C745 1.397 . S
C746 C747 1.334 . S
C747 H724 0.950 . S
C747 C746 1.334 . S
C747 C748 1.287 . S
C748 C747 1.287 . S
C748 C749 1.524 . S
C748 H767 0.913 . S
C749 H725 0.950 . S
C749 C748 1.524 . S
C749 C750 1.415 . S
C750 H726 0.950 . S
C750 C745 1.363 . S
C750 C749 1.415 . S
C751 H727 0.951 . S
C751 C752 1.366 . S
C751 C753 1.388 . S
C752 C751 1.366 . S
C752 C756 1.385 . S
C753 H728 0.951 . S
C753 C751 1.388 . S
C753 C754 1.366 . S
C754 C753 1.366 . S
C754 C755 1.414 . S
C754 C757 1.499 . S
C755 H729 0.950 . S
C755 C754 1.414 . S
C755 C756 1.374 . S
C756 H730 0.950 . S
C756 C752 1.385 . S
C756 C755 1.374 . S
C757 C754 1.499 . S
C757 C758 1.373 . S
C757 C759 1.389 . S
C758 H731 0.950 . S
C758 C744 1.377 . S
C758 C757 1.373 . S
C759 C743 1.377 . S
C759 C757 1.389 . S
C759 C760 1.524 . S
C760 C759 1.524 . S
C760 C761 1.397 . S
C760 C765 1.363 . S
C761 H732 0.950 . S
C761 C760 1.397 . S
C761 C762 1.334 . S
C762 H733 0.950 . S
C762 C761 1.334 . S
C762 C763 1.287 . S
C763 C762 1.287 . S
C763 C764 1.524 . S
C763 H766 0.999 . S
C764 H734 0.950 . S
C764 C763 1.524 . S
C764 C765 1.415 . S
C765 H735 0.950 . S
C765 C760 1.363 . S
C765 C764 1.415 . S
H766 C763 0.999 . S
H767 C748 0.913 . S
H768 C786 0.951 . S
H769 C788 0.951 . S
H770 C790 0.950 . S
H771 C791 0.950 . S
H772 C793 0.950 . S
H773 C796 0.950 . S
H774 C797 0.950 . S
H775 C799 0.950 . S
H776 C800 0.950 . S
H777 C801 0.951 . S
H778 C803 0.951 . S
H779 C805 0.950 . S
H780 C806 0.950 . S
H781 C808 0.950 . S
H782 C811 0.950 . S
H783 C812 0.950 . S
H784 C814 0.950 . S
H785 C815 0.950 . S
C786 H768 0.951 . S
C786 C787 1.366 . S
C786 C788 1.388 . S
C787 C786 1.366 . S
C787 C791 1.385 . S
C788 H769 0.951 . S
C788 C786 1.388 . S
C788 C789 1.366 . S
C789 C788 1.366 . S
C789 C790 1.414 . S
C789 C792 1.499 . S
C790 H770 0.950 . S
C790 C789 1.414 . S
C790 C791 1.374 . S
C791 H771 0.950 . S
C791 C787 1.385 . S
C791 C790 1.374 . S
C792 C789 1.499 . S
C792 C793 1.373 . S
C792 C794 1.389 . S
C793 H772 0.950 . S
C793 C792 1.373 . S
C793 C809 1.377 . S
C794 C792 1.389 . S
C794 C795 1.524 . S
C794 C808 1.377 . S
C795 C794 1.524 . S
C795 C796 1.397 . S
C795 C800 1.363 . S
C796 H773 0.950 . S
C796 C795 1.397 . S
C796 C797 1.334 . S
C797 H774 0.950 . S
C797 C796 1.334 . S
C797 C798 1.287 . S
C798 C797 1.287 . S
C798 C799 1.524 . S
C798 H817 0.913 . S
C799 H775 0.950 . S
C799 C798 1.524 . S
C799 C800 1.415 . S
C800 H776 0.950 . S
C800 C795 1.363 . S
C800 C799 1.415 . S
C801 H777 0.951 . S
C801 C802 1.366 . S
C801 C803 1.388 . S
C802 C801 1.366 . S
C802 C806 1.385 . S
C803 H778 0.951 . S
C803 C801 1.388 . S
C803 C804 1.366 . S
C804 C803 1.366 . S
C804 C805 1.414 . S
C804 C807 1.499 . S
C805 H779 0.950 . S
C805 C804 1.414 . S
C805 C806 1.374 . S
C806 H780 0.950 . S
C806 C802 1.385 . S
C806 C805 1.374 . S
C807 C804 1.499 . S
C807 C808 1.373 . S
C807 C809 1.389 . S
C808 H781 0.950 . S
C808 C794 1.377 . S
C808 C807 1.373 . S
C809 C793 1.377 . S
C809 C807 1.389 . S
C809 C810 1.524 . S
C810 C809 1.524 . S
C810 C811 1.397 . S
C810 C815 1.363 . S
C811 H782 0.950 . S
C811 C810 1.397 . S
C811 C812 1.334 . S
C812 H783 0.950 . S
C812 C811 1.334 . S
C812 C813 1.287 . S
C813 C812 1.287 . S
C813 C814 1.524 . S
C813 H816 0.999 . S
C814 H784 0.950 . S
C814 C813 1.524 . S
C814 C815 1.415 . S
C815 H785 0.950 . S
C815 C810 1.363 . S
C815 C814 1.415 . S
H816 C813 0.999 . S
H817 C798 0.913 . S
H818 C836 0.951 . S
H819 C838 0.951 . S
H820 C840 0.950 . S
H821 C841 0.950 . S
H822 C843 0.950 . S
H823 C846 0.950 . S
H824 C847 0.950 . S
H825 C849 0.950 . S
H826 C850 0.950 . S
H827 C851 0.951 . S
H828 C853 0.951 . S
H829 C855 0.950 . S
H830 C856 0.950 . S
H831 C858 0.950 . S
H832 C861 0.950 . S
H833 C862 0.950 . S
H834 C864 0.950 . S
H835 C865 0.950 . S
C836 H818 0.951 . S
C836 C837 1.366 . S
C836 C838 1.388 . S
C837 C836 1.366 . S
C837 C841 1.385 . S
C838 H819 0.951 . S
C838 C836 1.388 . S
C838 C839 1.366 . S
C839 C838 1.366 . S
C839 C840 1.414 . S
C839 C842 1.499 . S
C840 H820 0.950 . S
C840 C839 1.414 . S
C840 C841 1.374 . S
C841 H821 0.950 . S
C841 C837 1.385 . S
C841 C840 1.374 . S
C842 C839 1.499 . S
C842 C843 1.373 . S
C842 C844 1.389 . S
C843 H822 0.950 . S
C843 C842 1.373 . S
C843 C859 1.377 . S
C844 C842 1.389 . S
C844 C845 1.524 . S
C844 C858 1.377 . S
C845 C844 1.524 . S
C845 C846 1.397 . S
C845 C850 1.363 . S
C846 H823 0.950 . S
C846 C845 1.397 . S
C846 C847 1.334 . S
C847 H824 0.950 . S
C847 C846 1.334 . S
C847 C848 1.287 . S
C848 C847 1.287 . S
C848 C849 1.524 . S
C848 H867 0.913 . S
C849 H825 0.950 . S
C849 C848 1.524 . S
C849 C850 1.415 . S
C850 H826 0.950 . S
C850 C845 1.363 . S
C850 C849 1.415 . S
C851 H827 0.951 . S
C851 C852 1.366 . S
C851 C853 1.388 . S
C852 C851 1.366 . S
C852 C856 1.385 . S
C853 H828 0.951 . S
C853 C851 1.388 . S
C853 C854 1.366 . S
C854 C853 1.366 . S
C854 C855 1.414 . S
C854 C857 1.499 . S
C855 H829 0.950 . S
C855 C854 1.414 . S
C855 C856 1.374 . S
C856 H830 0.950 . S
C856 C852 1.385 . S
C856 C855 1.374 . S
C857 C854 1.499 . S
C857 C858 1.373 . S
C857 C859 1.389 . S
C858 H831 0.950 . S
C858 C844 1.377 . S
C858 C857 1.373 . S
C859 C843 1.377 . S
C859 C857 1.389 . S
C859 C860 1.524 . S
C860 C859 1.524 . S
C860 C861 1.397 . S
C860 C865 1.363 . S
C861 H832 0.950 . S
C861 C860 1.397 . S
C861 C862 1.334 . S
C862 H833 0.950 . S
C862 C861 1.334 . S
C862 C863 1.287 . S
C863 C862 1.287 . S
C863 C864 1.524 . S
C863 H866 0.999 . S
C864 H834 0.950 . S
C864 C863 1.524 . S
C864 C865 1.415 . S
C865 H835 0.950 . S
C865 C860 1.363 . S
C865 C864 1.415 . S
H866 C863 0.999 . S
H867 C848 0.913 . S
H868 C886 0.951 . S
H869 C888 0.951 . S
H870 C890 0.950 . S
H871 C891 0.950 . S
H872 C893 0.950 . S
H873 C896 0.950 . S
H874 C897 0.950 . S
H875 C899 0.950 . S
H876 C900 0.950 . S
H877 C901 0.951 . S
H878 C903 0.951 . S
H879 C905 0.950 . S
H880 C906 0.950 . S
H881 C908 0.950 . S
H882 C911 0.950 . S
H883 C912 0.950 . S
H884 C914 0.950 . S
H885 C915 0.950 . S
C886 H868 0.951 . S
C886 C887 1.366 . S
C886 C888 1.388 . S
C887 C886 1.366 . S
C887 C891 1.385 . S
C888 H869 0.951 . S
C888 C886 1.388 . S
C888 C889 1.366 . S
C889 C888 1.366 . S
C889 C890 1.414 . S
C889 C892 1.499 . S
C890 H870 0.950 . S
C890 C889 1.414 . S
C890 C891 1.374 . S
C891 H871 0.950 . S
C891 C887 1.385 . S
C891 C890 1.374 . S
C892 C889 1.499 . S
C892 C893 1.373 . S
C892 C894 1.389 . S
C893 H872 0.950 . S
C893 C892 1.373 . S
C893 C909 1.377 . S
C894 C892 1.389 . S
C894 C895 1.524 . S
C894 C908 1.377 . S
C895 C894 1.524 . S
C895 C896 1.397 . S
C895 C900 1.363 . S
C896 H873 0.950 . S
C896 C895 1.397 . S
C896 C897 1.334 . S
C897 H874 0.950 . S
C897 C896 1.334 . S
C897 C898 1.287 . S
C898 C897 1.287 . S
C898 C899 1.524 . S
C898 H917 0.913 . S
C899 H875 0.950 . S
C899 C898 1.524 . S
C899 C900 1.415 . S
C900 H876 0.950 . S
C900 C895 1.363 . S
C900 C899 1.415 . S
C901 H877 0.951 . S
C901 C902 1.366 . S
C901 C903 1.388 . S
C902 C901 1.366 . S
C902 C906 1.385 . S
C903 H878 0.951 . S
C903 C901 1.388 . S
C903 C904 1.366 . S
C904 C903 1.366 . S
C904 C905 1.414 . S
C904 C907 1.499 . S
C905 H879 0.950 . S
C905 C904 1.414 . S
C905 C906 1.374 . S
C906 H880 0.950 . S
C906 C902 1.385 . S
C906 C905 1.374 . S
C907 C904 1.499 . S
C907 C908 1.373 . S
C907 C909 1.389 . S
C908 H881 0.950 . S
C908 C894 1.377 . S
C908 C907 1.373 . S
C909 C893 1.377 . S
C909 C907 1.389 . S
C909 C910 1.524 . S
C910 C909 1.524 . S
C910 C911 1.397 . S
C910 C915 1.363 . S
C911 H882 0.950 . S
C911 C910 1.397 . S
C911 C912 1.334 . S
C912 H883 0.950 . S
C912 C911 1.334 . S
C912 C913 1.287 . S
C913 C912 1.287 . S
C913 C914 1.524 . S
C913 H916 0.999 . S
C914 H884 0.950 . S
C914 C913 1.524 . S
C914 C915 1.415 . S
C915 H885 0.950 . S
C915 C910 1.363 . S
C915 C914 1.415 . S
H916 C913 0.999 . S
H917 C898 0.913 . S
H918 C936 0.951 . S
H919 C938 0.951 . S
H920 C940 0.950 . S
H921 C941 0.950 . S
H922 C943 0.950 . S
H923 C946 0.950 . S
H924 C947 0.950 . S
H925 C949 0.950 . S
H926 C950 0.950 . S
H927 C951 0.951 . S
H928 C953 0.951 . S
H929 C955 0.950 . S
H930 C956 0.950 . S
H931 C958 0.950 . S
H932 C961 0.950 . S
H933 C962 0.950 . S
H934 C964 0.950 . S
H935 C965 0.950 . S
C936 H918 0.951 . S
C936 C937 1.366 . S
C936 C938 1.388 . S
C937 C936 1.366 . S
C937 C941 1.385 . S
C938 H919 0.951 . S
C938 C936 1.388 . S
C938 C939 1.366 . S
C939 C938 1.366 . S
C939 C940 1.414 . S
C939 C942 1.499 . S
C940 H920 0.950 . S
C940 C939 1.414 . S
C940 C941 1.374 . S
C941 H921 0.950 . S
C941 C937 1.385 . S
C941 C940 1.374 . S
C942 C939 1.499 . S
C942 C943 1.373 . S
C942 C944 1.389 . S
C943 H922 0.950 . S
C943 C942 1.373 . S
C943 C959 1.377 . S
C944 C942 1.389 . S
C944 C945 1.524 . S
C944 C958 1.377 . S
C945 C944 1.524 . S
C945 C946 1.397 . S
C945 C950 1.363 . S
C946 H923 0.950 . S
C946 C945 1.397 . S
C946 C947 1.334 . S
C947 H924 0.950 . S
C947 C946 1.334 . S
C947 C948 1.287 . S
C948 C947 1.287 . S
C948 C949 1.524 . S
C948 H967 0.913 . S
C949 H925 0.950 . S
C949 C948 1.524 . S
C949 C950 1.415 . S
C950 H926 0.950 . S
C950 C945 1.363 . S
C950 C949 1.415 . S
C951 H927 0.951 . S
C951 C952 1.366 . S
C951 C953 1.388 . S
C952 C951 1.366 . S
C952 C956 1.385 . S
C953 H928 0.951 . S
C953 C951 1.388 . S
C953 C954 1.366 . S
C954 C953 1.366 . S
C954 C955 1.414 . S
C954 C957 1.499 . S
C955 H929 0.950 . S
C955 C954 1.414 . S
C955 C956 1.374 . S
C956 H930 0.950 . S
C956 C952 1.385 . S
C956 C955 1.374 . S
C957 C954 1.499 . S
C957 C958 1.373 . S
C957 C959 1.389 . S
C958 H931 0.950 . S
C958 C944 1.377 . S
C958 C957 1.373 . S
C959 C943 1.377 . S
C959 C957 1.389 . S
C959 C960 1.524 . S
C960 C959 1.524 . S
C960 C961 1.397 . S
C960 C965 1.363 . S
C961 H932 0.950 . S
C961 C960 1.397 . S
C961 C962 1.334 . S
C962 H933 0.950 . S
C962 C961 1.334 . S
C962 C963 1.287 . S
C963 C962 1.287 . S
C963 C964 1.524 . S
C963 H966 0.999 . S
C964 H934 0.950 . S
C964 C963 1.524 . S
C964 C965 1.415 . S
C965 H935 0.950 . S
C965 C960 1.363 . S
C965 C964 1.415 . S
H966 C963 0.999 . S
H967 C948 0.913 . S
H968 C986 0.951 . S
H969 C988 0.951 . S
H970 C990 0.950 . S
H971 C991 0.950 . S
H972 C993 0.950 . S
H973 C996 0.950 . S
H974 C997 0.950 . S
H975 C999 0.950 . S
H976 C1000 0.950 . S
H977 C1001 0.951 . S
H978 C1003 0.951 . S
H979 C1005 0.950 . S
H980 C1006 0.950 . S
H981 C1008 0.950 . S
H982 C1011 0.950 . S
H983 C1012 0.950 . S
H984 C1014 0.950 . S
H985 C1015 0.950 . S
C986 H968 0.951 . S
C986 C987 1.366 . S
C986 C988 1.388 . S
C987 C986 1.366 . S
C987 C991 1.385 . S
C988 H969 0.951 . S
C988 C986 1.388 . S
C988 C989 1.366 . S
C989 C988 1.366 . S
C989 C990 1.414 . S
C989 C992 1.499 . S
C990 H970 0.950 . S
C990 C989 1.414 . S
C990 C991 1.374 . S
C991 H971 0.950 . S
C991 C987 1.385 . S
C991 C990 1.374 . S
C992 C989 1.499 . S
C992 C993 1.373 . S
C992 C994 1.389 . S
C993 H972 0.950 . S
C993 C992 1.373 . S
C993 C1009 1.377 . S
C994 C992 1.389 . S
C994 C995 1.524 . S
C994 C1008 1.377 . S
C995 C994 1.524 . S
C995 C996 1.397 . S
C995 C1000 1.363 . S
C996 H973 0.950 . S
C996 C995 1.397 . S
C996 C997 1.334 . S
C997 H974 0.950 . S
C997 C996 1.334 . S
C997 C998 1.287 . S
C998 C997 1.287 . S
C998 C999 1.524 . S
C998 H1017 0.913 . S
C999 H975 0.950 . S
C999 C998 1.524 . S
C999 C1000 1.415 . S
C1000 H976 0.950 . S
C1000 C995 1.363 . S
C1000 C999 1.415 . S
C1001 H977 0.951 . S
C1001 C1002 1.366 . S
C1001 C1003 1.388 . S
C1002 C1001 1.366 . S
C1002 C1006 1.385 . S
C1003 H978 0.951 . S
C1003 C1001 1.388 . S
C1003 C1004 1.366 . S
C1004 C1003 1.366 . S
C1004 C1005 1.414 . S
C1004 C1007 1.499 . S
C1005 H979 0.950 . S
C1005 C1004 1.414 . S
C1005 C1006 1.374 . S
C1006 H980 0.950 . S
C1006 C1002 1.385 . S
C1006 C1005 1.374 . S
C1007 C1004 1.499 . S
C1007 C1008 1.373 . S
C1007 C1009 1.389 . S
C1008 H981 0.950 . S
C1008 C994 1.377 . S
C1008 C1007 1.373 . S
C1009 C993 1.377 . S
C1009 C1007 1.389 . S
C1009 C1010 1.524 . S
C1010 C1009 1.524 . S
C1010 C1011 1.397 . S
C1010 C1015 1.363 . S
C1011 H982 0.950 . S
C1011 C1010 1.397 . S
C1011 C1012 1.334 . S
C1012 H983 0.950 . S
C1012 C1011 1.334 . S
C1012 C1013 1.287 . S
C1013 C1012 1.287 . S
C1013 C1014 1.524 . S
C1013 H1016 0.999 . S
C1014 H984 0.950 . S
C1014 C1013 1.524 . S
C1014 C1015 1.415 . S
C1015 H985 0.950 . S
C1015 C1010 1.363 . S
C1015 C1014 1.415 . S
H1016 C1013 0.999 . S
H1017 C998 0.913 . S
H1018 C1036 0.951 . S
H1019 C1038 0.951 . S
H1020 C1040 0.950 . S
H1021 C1041 0.950 . S
H1022 C1043 0.950 . S
H1023 C1046 0.950 . S
H1024 C1047 0.950 . S
H1025 C1049 0.950 . S
H1026 C1050 0.950 . S
H1027 C1051 0.951 . S
H1028 C1053 0.951 . S
H1029 C1055 0.950 . S
H1030 C1056 0.950 . S
H1031 C1058 0.950 . S
H1032 C1061 0.950 . S
H1033 C1062 0.950 . S
H1034 C1064 0.950 . S
H1035 C1065 0.950 . S
C1036 H1018 0.951 . S
C1036 C1037 1.366 . S
C1036 C1038 1.388 . S
C1037 C1036 1.366 . S
C1037 C1041 1.385 . S
C1038 H1019 0.951 . S
C1038 C1036 1.388 . S
C1038 C1039 1.366 . S
C1039 C1038 1.366 . S
C1039 C1040 1.414 . S
C1039 C1042 1.499 . S
C1040 H1020 0.950 . S
C1040 C1039 1.414 . S
C1040 C1041 1.374 . S
C1041 H1021 0.950 . S
C1041 C1037 1.385 . S
C1041 C1040 1.374 . S
C1042 C1039 1.499 . S
C1042 C1043 1.373 . S
C1042 C1044 1.389 . S
C1043 H1022 0.950 . S
C1043 C1042 1.373 . S
C1043 C1059 1.377 . S
C1044 C1042 1.389 . S
C1044 C1045 1.524 . S
C1044 C1058 1.377 . S
C1045 C1044 1.524 . S
C1045 C1046 1.397 . S
C1045 C1050 1.363 . S
C1046 H1023 0.950 . S
C1046 C1045 1.397 . S
C1046 C1047 1.334 . S
C1047 H1024 0.950 . S
C1047 C1046 1.334 . S
C1047 C1048 1.287 . S
C1048 C1047 1.287 . S
C1048 C1049 1.524 . S
C1048 H1067 0.913 . S
C1049 H1025 0.950 . S
C1049 C1048 1.524 . S
C1049 C1050 1.415 . S
C1050 H1026 0.950 . S
C1050 C1045 1.363 . S
C1050 C1049 1.415 . S
C1051 H1027 0.951 . S
C1051 C1052 1.366 . S
C1051 C1053 1.388 . S
C1052 C1051 1.366 . S
C1052 C1056 1.385 . S
C1053 H1028 0.951 . S
C1053 C1051 1.388 . S
C1053 C1054 1.366 . S
C1054 C1053 1.366 . S
C1054 C1055 1.414 . S
C1054 C1057 1.499 . S
C1055 H1029 0.950 . S
C1055 C1054 1.414 . S
C1055 C1056 1.374 . S
C1056 H1030 0.950 . S
C1056 C1052 1.385 . S
C1056 C1055 1.374 . S
C1057 C1054 1.499 . S
C1057 C1058 1.373 . S
C1057 C1059 1.389 . S
C1058 H1031 0.950 . S
C1058 C1044 1.377 . S
C1058 C1057 1.373 . S
C1059 C1043 1.377 . S
C1059 C1057 1.389 . S
C1059 C1060 1.524 . S
C1060 C1059 1.524 . S
C1060 C1061 1.397 . S
C1060 C1065 1.363 . S
C1061 H1032 0.950 . S
C1061 C1060 1.397 . S
C1061 C1062 1.334 . S
C1062 H1033 0.950 . S
C1062 C1061 1.334 . S
C1062 C1063 1.287 . S
C1063 C1062 1.287 . S
C1063 C1064 1.524 . S
C1063 H1066 0.999 . S
C1064 H1034 0.950 . S
C1064 C1063 1.524 . S
C1064 C1065 1.415 . S
C1065 H1035 0.950 . S
C1065 C1060 1.363 . S
C1065 C1064 1.415 . S
H1066 C1063 0.999 . S
H1067 C1048 0.913 . S
H1068 C1086 0.951 . S
H1069 C1088 0.951 . S
H1070 C1090 0.950 . S
H1071 C1091 0.950 . S
H1072 C1093 0.950 . S
H1073 C1096 0.950 . S
H1074 C1097 0.950 . S
H1075 C1099 0.950 . S
H1076 C1100 0.950 . S
H1077 C1101 0.951 . S
H1078 C1103 0.951 . S
H1079 C1105 0.950 . S
H1080 C1106 0.950 . S
H1081 C1108 0.950 . S
H1082 C1111 0.950 . S
H1083 C1112 0.943 1_556 S
H1084 C1114 0.950 . S
H1085 C1115 0.950 . S
C1086 H1068 0.951 . S
C1086 C1087 1.366 . S
C1086 C1088 1.388 . S
C1087 C1086 1.366 . S
C1087 C1091 1.385 . S
C1088 H1069 0.951 . S
C1088 C1086 1.388 . S
C1088 C1089 1.366 . S
C1089 C1088 1.366 . S
C1089 C1090 1.414 . S
C1089 C1092 1.499 . S
C1090 H1070 0.950 . S
C1090 C1089 1.414 . S
C1090 C1091 1.374 . S
C1091 H1071 0.950 . S
C1091 C1087 1.385 . S
C1091 C1090 1.374 . S
C1092 C1089 1.499 . S
C1092 C1093 1.373 . S
C1092 C1094 1.389 . S
C1093 H1072 0.950 . S
C1093 C1092 1.373 . S
C1093 C1109 1.377 . S
C1094 C1092 1.389 . S
C1094 C1095 1.524 . S
C1094 C1108 1.377 . S
C1095 C1094 1.524 . S
C1095 C1096 1.397 . S
C1095 C1100 1.363 . S
C1096 H1073 0.950 . S
C1096 C1095 1.397 . S
C1096 C1097 1.334 . S
C1097 H1074 0.950 . S
C1097 C1096 1.334 . S
C1097 C1098 1.287 . S
C1098 C1097 1.287 . S
C1098 C1099 1.524 . S
C1098 H1117 0.913 . S
C1099 H1075 0.950 . S
C1099 C1098 1.524 . S
C1099 C1100 1.415 . S
C1100 H1076 0.950 . S
C1100 C1095 1.363 . S
C1100 C1099 1.415 . S
C1101 H1077 0.951 . S
C1101 C1102 1.366 . S
C1101 C1103 1.388 . S
C1102 C1101 1.366 . S
C1102 C1106 1.385 . S
C1103 H1078 0.951 . S
C1103 C1101 1.388 . S
C1103 C1104 1.366 . S
C1104 C1103 1.366 . S
C1104 C1105 1.414 . S
C1104 C1107 1.499 . S
C1105 H1079 0.950 . S
C1105 C1104 1.414 . S
C1105 C1106 1.374 . S
C1106 H1080 0.950 . S
C1106 C1102 1.385 . S
C1106 C1105 1.374 . S
C1107 C1104 1.499 . S
C1107 C1108 1.373 . S
C1107 C1109 1.389 . S
C1108 H1081 0.950 . S
C1108 C1094 1.377 . S
C1108 C1107 1.373 . S
C1109 C1093 1.377 . S
C1109 C1107 1.389 . S
C1109 C1110 1.524 . S
C1110 C1109 1.524 . S
C1110 C1111 1.397 . S
C1110 C1115 1.363 . S
C1111 H1082 0.950 . S
C1111 C1110 1.397 . S
C1111 C1112 1.342 . S
C1112 H1083 0.943 1_554 S
C1112 C1111 1.342 . S
C1112 C1113 1.287 . S
C1113 C1112 1.287 . S
C1113 C1114 1.537 . S
C1113 H1116 0.986 1_554 S
C1114 H1084 0.950 . S
C1114 C1113 1.537 . S
C1114 C1115 1.415 . S
C1115 H1085 0.950 . S
C1115 C1110 1.363 . S
C1115 C1114 1.415 . S
H1116 C1113 0.986 1_556 S
H1117 C1098 0.913 . S
H1118 C1136 0.951 . S
H1119 C1138 0.951 . S
H1120 C1140 0.950 . S
H1121 C1141 0.950 . S
H1122 C1143 0.950 . S
H1123 C1146 0.950 . S
H1124 C1147 0.950 . S
H1125 C1149 0.950 . S
H1126 C1150 0.950 . S
H1127 C1151 0.951 . S
H1128 C1153 0.951 . S
H1129 C1155 0.950 . S
H1130 C1156 0.950 . S
H1131 C1158 0.950 . S
H1132 C1161 0.950 . S
H1133 C1162 0.950 . S
H1134 C1164 0.950 . S
H1135 C1165 0.950 . S
C1136 H1118 0.951 . S
C1136 C1137 1.366 . S
C1136 C1138 1.388 . S
C1137 C1136 1.366 . S
C1137 C1141 1.385 . S
C1138 H1119 0.951 . S
C1138 C1136 1.388 . S
C1138 C1139 1.366 . S
C1139 C1138 1.366 . S
C1139 C1140 1.414 . S
C1139 C1142 1.499 . S
C1140 H1120 0.950 . S
C1140 C1139 1.414 . S
C1140 C1141 1.374 . S
C1141 H1121 0.950 . S
C1141 C1137 1.385 . S
C1141 C1140 1.374 . S
C1142 C1139 1.499 . S
C1142 C1143 1.373 . S
C1142 C1144 1.389 1_655 S
C1143 H1122 0.950 . S
C1143 C1142 1.373 . S
C1143 C1159 1.377 . S
C1144 C1142 1.389 1_455 S
C1144 C1145 1.524 . S
C1144 C1158 1.377 . S
C1145 C1144 1.524 . S
C1145 C1146 1.397 . S
C1145 C1150 1.363 . S
C1146 H1123 0.950 . S
C1146 C1145 1.397 . S
C1146 C1147 1.334 . S
C1147 H1124 0.950 . S
C1147 C1146 1.334 . S
C1147 C1148 1.287 . S
C1148 C1147 1.287 . S
C1148 C1149 1.524 . S
C1148 H1167 0.913 . S
C1149 H1125 0.950 . S
C1149 C1148 1.524 . S
C1149 C1150 1.415 . S
C1150 H1126 0.950 . S
C1150 C1145 1.363 . S
C1150 C1149 1.415 . S
C1151 H1127 0.951 . S
C1151 C1152 1.366 . S
C1151 C1153 1.388 . S
C1152 C1151 1.366 . S
C1152 C1156 1.385 . S
C1153 H1128 0.951 . S
C1153 C1151 1.388 . S
C1153 C1154 1.366 . S
C1154 C1153 1.366 . S
C1154 C1155 1.414 . S
C1154 C1157 1.499 . S
C1155 H1129 0.950 . S
C1155 C1154 1.414 . S
C1155 C1156 1.374 . S
C1156 H1130 0.950 . S
C1156 C1152 1.385 . S
C1156 C1155 1.374 . S
C1157 C1154 1.499 . S
C1157 C1158 1.373 . S
C1157 C1159 1.389 1_455 S
C1158 H1131 0.950 . S
C1158 C1144 1.377 . S
C1158 C1157 1.373 . S
C1159 C1143 1.377 . S
C1159 C1157 1.389 1_655 S
C1159 C1160 1.524 . S
C1160 C1159 1.524 . S
C1160 C1161 1.397 . S
C1160 C1165 1.363 . S
C1161 H1132 0.950 . S
C1161 C1160 1.397 . S
C1161 C1162 1.334 . S
C1162 H1133 0.950 . S
C1162 C1161 1.334 . S
C1162 C1163 1.287 . S
C1163 C1162 1.287 . S
C1163 C1164 1.524 . S
C1163 H1166 0.999 . S
C1164 H1134 0.950 . S
C1164 C1163 1.524 . S
C1164 C1165 1.415 . S
C1165 H1135 0.950 . S
C1165 C1160 1.363 . S
C1165 C1164 1.415 . S
H1166 C1163 0.999 . S
H1167 C1148 0.913 . S
H1168 C1186 0.951 . S
H1169 C1188 0.951 . S
H1170 C1190 0.950 . S
H1171 C1191 0.950 . S
H1172 C1193 0.950 . S
H1173 C1196 0.950 1_545 S
H1174 C1197 0.950 . S
H1175 C1199 0.950 . S
H1176 C1200 0.950 . S
H1177 C1201 0.951 . S
H1178 C1203 0.951 . S
H1179 C1205 0.950 . S
H1180 C1206 0.950 . S
H1181 C1208 0.950 . S
H1182 C1211 0.950 1_565 S
H1183 C1212 0.950 . S
H1184 C1214 0.950 . S
H1185 C1215 0.950 . S
C1186 H1168 0.951 . S
C1186 C1187 1.366 . S
C1186 C1188 1.388 . S
C1187 C1186 1.366 . S
C1187 C1191 1.385 . S
C1188 H1169 0.951 . S
C1188 C1186 1.388 . S
C1188 C1189 1.366 . S
C1189 C1188 1.366 . S
C1189 C1190 1.414 . S
C1189 C1192 1.499 . S
C1190 H1170 0.950 . S
C1190 C1189 1.414 . S
C1190 C1191 1.374 . S
C1191 H1171 0.950 . S
C1191 C1187 1.385 . S
C1191 C1190 1.374 . S
C1192 C1189 1.499 . S
C1192 C1193 1.373 . S
C1192 C1194 1.389 1_545 S
C1193 H1172 0.950 . S
C1193 C1192 1.373 . S
C1193 C1209 1.377 . S
C1194 C1192 1.389 1_565 S
C1194 C1195 1.524 . S
C1194 C1208 1.377 . S
C1195 C1194 1.524 . S
C1195 C1196 1.397 . S
C1195 C1200 1.363 . S
C1196 H1173 0.950 1_565 S
C1196 C1195 1.397 . S
C1196 C1197 1.334 . S
C1197 H1174 0.950 . S
C1197 C1196 1.334 . S
C1197 C1198 1.287 . S
C1198 C1197 1.287 . S
C1198 C1199 1.524 . S
C1198 H1217 0.913 . S
C1199 H1175 0.950 . S
C1199 C1198 1.524 . S
C1199 C1200 1.415 . S
C1200 H1176 0.950 . S
C1200 C1195 1.363 . S
C1200 C1199 1.415 . S
C1201 H1177 0.951 . S
C1201 C1202 1.366 . S
C1201 C1203 1.388 . S
C1202 C1201 1.366 . S
C1202 C1206 1.385 . S
C1203 H1178 0.951 . S
C1203 C1201 1.388 . S
C1203 C1204 1.366 . S
C1204 C1203 1.366 . S
C1204 C1205 1.414 . S
C1204 C1207 1.499 . S
C1205 H1179 0.950 . S
C1205 C1204 1.414 . S
C1205 C1206 1.374 . S
C1206 H1180 0.950 . S
C1206 C1202 1.385 . S
C1206 C1205 1.374 . S
C1207 C1204 1.499 . S
C1207 C1208 1.373 . S
C1207 C1209 1.389 1_565 S
C1208 H1181 0.950 . S
C1208 C1194 1.377 . S
C1208 C1207 1.373 . S
C1209 C1193 1.377 . S
C1209 C1207 1.389 1_545 S
C1209 C1210 1.524 . S
C1210 C1209 1.524 . S
C1210 C1211 1.397 . S
C1210 C1215 1.363 . S
C1211 H1182 0.950 1_545 S
C1211 C1210 1.397 . S
C1211 C1212 1.334 . S
C1212 H1183 0.950 . S
C1212 C1211 1.334 . S
C1212 C1213 1.287 . S
C1213 C1212 1.287 . S
C1213 C1214 1.524 . S
C1213 H1216 0.999 . S
C1214 H1184 0.950 . S
C1214 C1213 1.524 . S
C1214 C1215 1.415 . S
C1215 H1185 0.950 . S
C1215 C1210 1.363 . S
C1215 C1214 1.415 . S
H1216 C1213 0.999 . S
H1217 C1198 0.913 . S
H1218 C1236 0.951 . S
H1219 C1238 0.951 . S
H1220 C1240 0.950 . S
H1221 C1241 0.950 . S
H1222 C1243 0.950 . S
H1223 C1246 0.950 . S
H1224 C1247 0.950 . S
H1225 C1249 0.950 . S
H1226 C1250 0.950 . S
H1227 C1251 0.951 . S
H1228 C1253 0.951 . S
H1229 C1255 0.950 . S
H1230 C1256 0.950 . S
H1231 C1258 0.950 . S
H1232 C1261 0.950 . S
H1233 C1262 0.950 . S
H1234 C1264 0.950 . S
H1235 C1265 0.950 . S
C1236 H1218 0.951 . S
C1236 C1237 1.366 . S
C1236 C1238 1.388 . S
C1237 C1236 1.366 . S
C1237 C1241 1.385 . S
C1238 H1219 0.951 . S
C1238 C1236 1.388 . S
C1238 C1239 1.366 . S
C1239 C1238 1.366 . S
C1239 C1240 1.414 . S
C1239 C1242 1.499 . S
C1240 H1220 0.950 . S
C1240 C1239 1.414 . S
C1240 C1241 1.374 . S
C1241 H1221 0.950 . S
C1241 C1237 1.385 . S
C1241 C1240 1.374 . S
C1242 C1239 1.499 . S
C1242 C1243 1.373 . S
C1242 C1244 1.389 . S
C1243 H1222 0.950 . S
C1243 C1242 1.373 . S
C1243 C1259 1.377 . S
C1244 C1242 1.389 . S
C1244 C1245 1.524 . S
C1244 C1258 1.377 . S
C1245 C1244 1.524 . S
C1245 C1246 1.397 . S
C1245 C1250 1.363 . S
C1246 H1223 0.950 . S
C1246 C1245 1.397 . S
C1246 C1247 1.334 . S
C1247 H1224 0.950 . S
C1247 C1246 1.334 . S
C1247 C1248 1.287 . S
C1248 C1247 1.287 . S
C1248 C1249 1.524 . S
C1248 H1267 0.913 . S
C1249 H1225 0.950 . S
C1249 C1248 1.524 . S
C1249 C1250 1.415 . S
C1250 H1226 0.950 . S
C1250 C1245 1.363 . S
C1250 C1249 1.415 . S
C1251 H1227 0.951 . S
C1251 C1252 1.366 . S
C1251 C1253 1.388 . S
C1252 C1251 1.366 . S
C1252 C1256 1.385 . S
C1253 H1228 0.951 . S
C1253 C1251 1.388 . S
C1253 C1254 1.366 . S
C1254 C1253 1.366 . S
C1254 C1255 1.414 . S
C1254 C1257 1.499 . S
C1255 H1229 0.950 . S
C1255 C1254 1.414 . S
C1255 C1256 1.374 . S
C1256 H1230 0.950 . S
C1256 C1252 1.385 . S
C1256 C1255 1.374 . S
C1257 C1254 1.499 . S
C1257 C1258 1.373 . S
C1257 C1259 1.389 . S
C1258 H1231 0.950 . S
C1258 C1244 1.377 . S
C1258 C1257 1.373 . S
C1259 C1243 1.377 . S
C1259 C1257 1.389 . S
C1259 C1260 1.524 . S
C1260 C1259 1.524 . S
C1260 C1261 1.397 . S
C1260 C1265 1.363 . S
C1261 H1232 0.950 . S
C1261 C1260 1.397 . S
C1261 C1262 1.334 . S
C1262 H1233 0.950 . S
C1262 C1261 1.334 . S
C1262 C1263 1.287 . S
C1263 C1262 1.287 . S
C1263 C1264 1.524 . S
C1263 H1266 0.999 . S
C1264 H1234 0.950 . S
C1264 C1263 1.524 . S
C1264 C1265 1.415 . S
C1265 H1235 0.950 . S
C1265 C1260 1.363 . S
C1265 C1264 1.415 . S
H1266 C1263 0.999 . S
H1267 C1248 0.913 . S
H1268 C1286 0.951 . S
H1269 C1288 0.951 . S
H1270 C1290 0.950 . S
H1271 C1291 0.950 . S
H1272 C1293 0.950 . S
H1273 C1296 0.950 . S
H1274 C1297 0.950 . S
H1275 C1299 0.950 . S
H1276 C1300 0.950 . S
H1277 C1301 0.951 . S
H1278 C1303 0.951 . S
H1279 C1305 0.950 . S
H1280 C1306 0.950 . S
H1281 C1308 0.950 . S
H1282 C1311 0.950 . S
H1283 C1312 0.950 . S
H1284 C1314 0.950 . S
H1285 C1315 0.950 . S
C1286 H1268 0.951 . S
C1286 C1287 1.366 . S
C1286 C1288 1.388 . S
C1287 C1286 1.366 . S
C1287 C1291 1.385 . S
C1288 H1269 0.951 . S
C1288 C1286 1.388 . S
C1288 C1289 1.366 . S
C1289 C1288 1.366 . S
C1289 C1290 1.414 . S
C1289 C1292 1.499 . S
C1290 H1270 0.950 . S
C1290 C1289 1.414 . S
C1290 C1291 1.374 . S
C1291 H1271 0.950 . S
C1291 C1287 1.385 . S
C1291 C1290 1.374 . S
C1292 C1289 1.499 . S
C1292 C1293 1.373 1_455 S
C1292 C1294 1.389 . S
C1293 H1272 0.950 . S
C1293 C1292 1.373 1_655 S
C1293 C1309 1.377 . S
C1294 C1292 1.389 . S
C1294 C1295 1.524 . S
C1294 C1308 1.377 . S
C1295 C1294 1.524 . S
C1295 C1296 1.397 . S
C1295 C1300 1.363 . S
C1296 H1273 0.950 . S
C1296 C1295 1.397 . S
C1296 C1297 1.334 . S
C1297 H1274 0.950 . S
C1297 C1296 1.334 . S
C1297 C1298 1.287 . S
C1298 C1297 1.287 . S
C1298 C1299 1.524 . S
C1298 H1317 0.913 . S
C1299 H1275 0.950 . S
C1299 C1298 1.524 . S
C1299 C1300 1.415 . S
C1300 H1276 0.950 . S
C1300 C1295 1.363 . S
C1300 C1299 1.415 . S
C1301 H1277 0.951 . S
C1301 C1302 1.366 . S
C1301 C1303 1.388 . S
C1302 C1301 1.366 . S
C1302 C1306 1.385 . S
C1303 H1278 0.951 . S
C1303 C1301 1.388 . S
C1303 C1304 1.366 . S
C1304 C1303 1.366 . S
C1304 C1305 1.414 . S
C1304 C1307 1.499 . S
C1305 H1279 0.950 . S
C1305 C1304 1.414 . S
C1305 C1306 1.374 . S
C1306 H1280 0.950 . S
C1306 C1302 1.385 . S
C1306 C1305 1.374 . S
C1307 C1304 1.499 . S
C1307 C1308 1.373 1_655 S
C1307 C1309 1.389 . S
C1308 H1281 0.950 . S
C1308 C1294 1.377 . S
C1308 C1307 1.373 1_455 S
C1309 C1293 1.377 . S
C1309 C1307 1.389 . S
C1309 C1310 1.524 . S
C1310 C1309 1.524 . S
C1310 C1311 1.397 . S
C1310 C1315 1.363 . S
C1311 H1282 0.950 . S
C1311 C1310 1.397 . S
C1311 C1312 1.334 . S
C1312 H1283 0.950 . S
C1312 C1311 1.334 . S
C1312 C1313 1.287 . S
C1313 C1312 1.287 . S
C1313 C1314 1.524 . S
C1313 H1316 0.999 . S
C1314 H1284 0.950 . S
C1314 C1313 1.524 . S
C1314 C1315 1.415 . S
C1315 H1285 0.950 . S
C1315 C1310 1.363 . S
C1315 C1314 1.415 . S
H1316 C1313 0.999 . S
H1317 C1298 0.913 . S
H1318 C1336 0.951 . S
H1319 C1338 0.951 . S
H1320 C1340 0.950 . S
H1321 C1341 0.950 . S
H1322 C1343 0.950 . S
H1323 C1346 0.965 . S
H1324 C1347 0.950 1_565 S
H1325 C1349 0.950 . S
H1326 C1350 0.950 . S
H1327 C1351 0.951 . S
H1328 C1353 0.951 . S
H1329 C1355 0.950 . S
H1330 C1356 0.950 . S
H1331 C1358 0.950 . S
H1332 C1361 0.965 . S
H1333 C1362 0.950 1_545 S
H1334 C1364 0.950 . S
H1335 C1365 0.950 . S
C1336 H1318 0.951 . S
C1336 C1337 1.366 . S
C1336 C1338 1.388 . S
C1337 C1336 1.366 . S
C1337 C1341 1.385 . S
C1338 H1319 0.951 . S
C1338 C1336 1.388 . S
C1338 C1339 1.366 . S
C1339 C1338 1.366 . S
C1339 C1340 1.414 . S
C1339 C1342 1.499 . S
C1340 H1320 0.950 . S
C1340 C1339 1.414 . S
C1340 C1341 1.374 . S
C1341 H1321 0.950 . S
C1341 C1337 1.385 . S
C1341 C1340 1.374 . S
C1342 C1339 1.499 . S
C1342 C1343 1.373 . S
C1342 C1344 1.389 1_565 S
C1343 H1322 0.950 . S
C1343 C1342 1.373 . S
C1343 C1359 1.377 . S
C1344 C1342 1.389 1_545 S
C1344 C1345 1.524 . S
C1344 C1358 1.377 . S
C1345 C1344 1.524 . S
C1345 C1346 1.378 1_545 S
C1345 C1350 1.363 . S
C1346 H1323 0.965 . S
C1346 C1345 1.378 1_565 S
C1346 C1347 1.338 1_565 S
C1347 H1324 0.950 1_545 S
C1347 C1346 1.338 1_545 S
C1347 C1348 1.287 . S
C1348 C1347 1.287 . S
C1348 C1349 1.524 . S
C1348 H1367 0.913 . S
C1349 H1325 0.950 . S
C1349 C1348 1.524 . S
C1349 C1350 1.415 . S
C1350 H1326 0.950 . S
C1350 C1345 1.363 . S
C1350 C1349 1.415 . S
C1351 H1327 0.951 . S
C1351 C1352 1.366 . S
C1351 C1353 1.388 . S
C1352 C1351 1.366 . S
C1352 C1356 1.385 . S
C1353 H1328 0.951 . S
C1353 C1351 1.388 . S
C1353 C1354 1.366 . S
C1354 C1353 1.366 . S
C1354 C1355 1.414 . S
C1354 C1357 1.499 . S
C1355 H1329 0.950 . S
C1355 C1354 1.414 . S
C1355 C1356 1.374 . S
C1356 H1330 0.950 . S
C1356 C1352 1.385 . S
C1356 C1355 1.374 . S
C1357 C1354 1.499 . S
C1357 C1358 1.373 . S
C1357 C1359 1.389 1_545 S
C1358 H1331 0.950 . S
C1358 C1344 1.377 . S
C1358 C1357 1.373 . S
C1359 C1343 1.377 . S
C1359 C1357 1.389 1_565 S
C1359 C1360 1.524 . S
C1360 C1359 1.524 . S
C1360 C1361 1.378 1_565 S
C1360 C1365 1.363 . S
C1361 H1332 0.965 . S
C1361 C1360 1.378 1_545 S
C1361 C1362 1.338 1_545 S
C1362 H1333 0.950 1_565 S
C1362 C1361 1.338 1_565 S
C1362 C1363 1.287 . S
C1363 C1362 1.287 . S
C1363 C1364 1.524 . S
C1363 H1366 0.999 . S
C1364 H1334 0.950 . S
C1364 C1363 1.524 . S
C1364 C1365 1.415 . S
C1365 H1335 0.950 . S
C1365 C1360 1.363 . S
C1365 C1364 1.415 . S
H1366 C1363 0.999 . S
H1367 C1348 0.913 . S
C187 C107 1.284 . S
C202 C9 1.282 . S
C237 C23 1.284 . S
C252 C121 1.282 . S
C287 C37 1.282 . S
C302 C135 1.284 . S
C337 C51 1.284 . S
C352 C149 1.282 . S
C387 C163 1.283 . S
C402 C65 1.283 . S
C437 C93 1.282 . S
C452 C79 1.283 . S
C487 C143 1.337 . S
C502 C3 1.337 . S
C537 C17 1.337 . S
C552 C157 1.337 . S
C587 C31 1.337 . S
C602 C87 1.338 . S
C637 C101 1.337 . S
C652 C45 1.337 . S
C687 C115 1.337 . S
C702 C59 1.337 . S
C737 C129 1.337 . S
C752 C73 1.337 . S
C787 C7 1.668 . S
C802 C119 1.667 . S
C837 C21 1.667 . S
C852 C133 1.668 . S
C887 C147 1.667 . S
C902 C35 1.668 . S
C937 C49 1.668 . S
C952 C161 1.668 . S
C987 C91 1.668 . S
C1002 C63 1.668 . S
C1037 C105 1.667 . S
C1052 C77 1.668 . S
C1087 C50 1.333 . S
C1102 C8 1.333 . S
C1137 C64 1.333 . S
C1152 C22 1.333 . S
C1187 C36 1.333 . S
C1202 C78 1.333 . S
C1237 C92 1.333 . S
C1252 C134 1.333 . S
C1287 C106 1.333 . S
C1302 C148 1.333 . S
C1337 C162 1.333 . S
C1352 C120 1.333 . S
