# Generated by pormake.
# Topology unb, (4)-cn, num edge types: 1
# Building blocks:
#     Node 0, Type 0, BuildingBlock: NAHDIM_clean_sbu_0, # of connection points: 4
#     Node 1, Type 0, BuildingBlock: NAHDIM_clean_sbu_0, # of connection points: 4
#     Node 2, Type 0, BuildingBlock: NAHDIM_clean_sbu_0, # of connection points: 4
#     Node 3, Type 0, BuildingBlock: NAHDIM_clean_sbu_0, # of connection points: 4
#     Node 4, Type 0, BuildingBlock: NAHDIM_clean_sbu_0, # of connection points: 4
#     Node 5, Type 0, BuildingBlock: NAHDIM_clean_sbu_0, # of connection points: 4
#     Node 6, Type 0, BuildingBlock: NAHDIM_clean_sbu_0, # of connection points: 4
#     Node 7, Type 0, BuildingBlock: NAHDIM_clean_sbu_0, # of connection points: 4
#     Node 8, Type 0, BuildingBlock: NAHDIM_clean_sbu_0, # of connection points: 4
#     Node 9, Type 0, BuildingBlock: NAHDIM_clean_sbu_0, # of connection points: 4
#     Node 10, Type 0, BuildingBlock: NAHDIM_clean_sbu_0, # of connection points: 4
#     Node 11, Type 0, BuildingBlock: NAHDIM_clean_sbu_0, # of connection points: 4
#     Node 12, Type 0, BuildingBlock: NAHDIM_clean_sbu_0, # of connection points: 4
#     Node 13, Type 0, BuildingBlock: NAHDIM_clean_sbu_0, # of connection points: 4
#     Node 14, Type 0, BuildingBlock: NAHDIM_clean_sbu_0, # of connection points: 4
#     Node 15, Type 0, BuildingBlock: NAHDIM_clean_sbu_0, # of connection points: 4
#     Node 16, Type 0, BuildingBlock: NAHDIM_clean_sbu_0, # of connection points: 4
#     Node 17, Type 0, BuildingBlock: NAHDIM_clean_sbu_0, # of connection points: 4
#     Edge 18, Type (0, 0), BuildingBlock: AJUNOK_clean_linker_0, # of connection points: 2
#     Edge 19, Type (0, 0), BuildingBlock: AJUNOK_clean_linker_0, # of connection points: 2
#     Edge 20, Type (0, 0), BuildingBlock: AJUNOK_clean_linker_0, # of connection points: 2
#     Edge 21, Type (0, 0), BuildingBlock: AJUNOK_clean_linker_0, # of connection points: 2
#     Edge 22, Type (0, 0), BuildingBlock: AJUNOK_clean_linker_0, # of connection points: 2
#     Edge 23, Type (0, 0), BuildingBlock: AJUNOK_clean_linker_0, # of connection points: 2
#     Edge 24, Type (0, 0), BuildingBlock: AJUNOK_clean_linker_0, # of connection points: 2
#     Edge 25, Type (0, 0), BuildingBlock: AJUNOK_clean_linker_0, # of connection points: 2
#     Edge 26, Type (0, 0), BuildingBlock: AJUNOK_clean_linker_0, # of connection points: 2
#     Edge 27, Type (0, 0), BuildingBlock: AJUNOK_clean_linker_0, # of connection points: 2
#     Edge 28, Type (0, 0), BuildingBlock: AJUNOK_clean_linker_0, # of connection points: 2
#     Edge 29, Type (0, 0), BuildingBlock: AJUNOK_clean_linker_0, # of connection points: 2
#     Edge 30, Type (0, 0), BuildingBlock: AJUNOK_clean_linker_0, # of connection points: 2
#     Edge 31, Type (0, 0), BuildingBlock: AJUNOK_clean_linker_0, # of connection points: 2
#     Edge 32, Type (0, 0), BuildingBlock: AJUNOK_clean_linker_0, # of connection points: 2
#     Edge 33, Type (0, 0), BuildingBlock: AJUNOK_clean_linker_0, # of connection points: 2
#     Edge 34, Type (0, 0), BuildingBlock: AJUNOK_clean_linker_0, # of connection points: 2
#     Edge 35, Type (0, 0), BuildingBlock: AJUNOK_clean_linker_0, # of connection points: 2
#     Edge 36, Type (0, 0), BuildingBlock: AJUNOK_clean_linker_0, # of connection points: 2
#     Edge 37, Type (0, 0), BuildingBlock: AJUNOK_clean_linker_0, # of connection points: 2
#     Edge 38, Type (0, 0), BuildingBlock: AJUNOK_clean_linker_0, # of connection points: 2
#     Edge 39, Type (0, 0), BuildingBlock: AJUNOK_clean_linker_0, # of connection points: 2
#     Edge 40, Type (0, 0), BuildingBlock: AJUNOK_clean_linker_0, # of connection points: 2
#     Edge 41, Type (0, 0), BuildingBlock: AJUNOK_clean_linker_0, # of connection points: 2
#     Edge 42, Type (0, 0), BuildingBlock: AJUNOK_clean_linker_0, # of connection points: 2
#     Edge 43, Type (0, 0), BuildingBlock: AJUNOK_clean_linker_0, # of connection points: 2
#     Edge 44, Type (0, 0), BuildingBlock: AJUNOK_clean_linker_0, # of connection points: 2
#     Edge 45, Type (0, 0), BuildingBlock: AJUNOK_clean_linker_0, # of connection points: 2
#     Edge 46, Type (0, 0), BuildingBlock: AJUNOK_clean_linker_0, # of connection points: 2
#     Edge 47, Type (0, 0), BuildingBlock: AJUNOK_clean_linker_0, # of connection points: 2
#     Edge 48, Type (0, 0), BuildingBlock: AJUNOK_clean_linker_0, # of connection points: 2
#     Edge 49, Type (0, 0), BuildingBlock: AJUNOK_clean_linker_0, # of connection points: 2
#     Edge 50, Type (0, 0), BuildingBlock: AJUNOK_clean_linker_0, # of connection points: 2
#     Edge 51, Type (0, 0), BuildingBlock: AJUNOK_clean_linker_0, # of connection points: 2
#     Edge 52, Type (0, 0), BuildingBlock: AJUNOK_clean_linker_0, # of connection points: 2
#     Edge 53, Type (0, 0), BuildingBlock: AJUNOK_clean_linker_0, # of connection points: 2
# Relax obj value: 0.064
# Max RMSD: 0.063
# Mean RMSD: 0.063
data_MOF--net-unb--node1-NAHDIM_clean_sbu_0--edge1-AJUNOK_clean_linker_0
_symmetry_space_group_name_H-M    P1
_symmetry_Int_Tables_number       1
_symmetry_cell_setting            triclinic
loop_
_symmetry_equiv_pos_as_xyz
'x, y, z'
_cell_length_a     47.638262
_cell_length_b     47.72015
_cell_length_c     19.143323
_cell_angle_alpha  90.087162
_cell_angle_beta   89.997776
_cell_angle_gamma 120.06514
loop_
_atom_site_label
_atom_site_type_symbol
_atom_site_fract_x
_atom_site_fract_y
_atom_site_fract_z
_atom_type_partial_charge
C0 C 0.14875 0.30157 0.19411 0.0
O1 O 0.13186 0.31029 0.15471 0.0
O2 O 0.15544 0.22878 0.05445 0.0
Zn3 Zn 0.13752 0.25807 0.07779 0.0
O4 O 0.08858 0.23178 0.07494 0.0
C5 C 0.1463 0.28129 0.93877 0.0
O6 O 0.12799 0.25006 0.92763 0.0
O7 O 0.15398 0.27942 0.17217 0.0
C8 C 0.07129 0.24148 0.0445 0.0
O9 O 0.08536 0.27092 0.0187 0.0
C10 C 0.13818 0.20126 0.02566 0.0
O11 O 0.10716 0.19045 0.01546 0.0
O12 O 0.15367 0.29144 1.00131 0.0
C13 C 0.72394 0.85613 0.20789 0.0
O14 O 0.74661 0.84813 0.20893 0.0
O15 O 0.77917 0.92522 0.05214 0.0
Zn16 Zn 0.74788 0.87737 0.06572 0.0
O17 O 0.77255 0.8529 0.06727 0.0
C18 C 0.71019 0.88164 0.95379 0.0
O19 O 0.7198 0.91008 0.98236 0.0
O20 O 0.72054 0.86919 0.15307 0.0
C21 C 0.77573 0.83988 0.01199 0.0
O22 O 0.76234 0.84208 0.9538 0.0
C23 C 0.80155 0.93449 0.00663 0.0
O24 O 0.80521 0.91263 0.97263 0.0
O25 O 0.71837 0.86275 0.98219 0.0
C26 C 0.13962 0.84367 0.25074 0.0
O27 O 0.11287 0.8207 0.2221 0.0
O28 O 0.09456 0.85709 0.1077 0.0
Zn29 Zn 0.14307 0.87956 0.12356 0.0
O30 O 0.16313 0.92759 0.10863 0.0
C31 C 0.14478 0.83423 0.0275 0.0
O32 O 0.11863 0.8137 0.06196 0.0
O33 O 0.15572 0.87046 0.21865 0.0
C34 C 0.16631 0.93796 0.04629 0.0
O35 O 0.15583 0.91695 0.99467 0.0
C36 C 0.07922 0.87181 0.09332 0.0
O37 O 0.09453 0.90357 0.09657 0.0
O38 O 0.16049 0.86353 0.04748 0.0
C39 C 0.3051 0.16831 0.78026 0.0
O40 O 0.31451 0.19235 0.8248 0.0
O41 O 0.23303 0.15109 0.90301 0.0
Zn42 Zn 0.2628 0.13264 0.89497 0.0
O43 O 0.23893 0.08473 0.91758 0.0
C44 C 0.292 0.16705 0.02227 0.0
O45 O 0.26348 0.16466 0.02972 0.0
O46 O 0.28284 0.14026 0.79858 0.0
C47 C 0.22954 0.07548 0.97986 0.0
O48 O 0.23483 0.09735 0.02756 0.0
C49 C 0.2027 0.1345 0.91429 0.0
O50 O 0.18833 0.10277 0.91297 0.0
O51 O 0.29783 0.1555 0.96777 0.0
C52 C 0.83634 0.13562 0.79256 0.0
O53 O 0.81256 0.12002 0.83723 0.0
O54 O 0.85545 0.08506 0.92178 0.0
Zn55 Zn 0.87443 0.13312 0.90786 0.0
O56 O 0.9227 0.15829 0.92665 0.0
C57 C 0.8466 0.1341 0.03918 0.0
O58 O 0.85219 0.11026 0.05135 0.0
O59 O 0.865 0.14337 0.81097 0.0
C60 C 0.93517 0.15285 0.98001 0.0
O61 O 0.91647 0.12892 0.02183 0.0
C62 C 0.87015 0.06913 0.91607 0.0
O63 O 0.90037 0.08395 0.89442 0.0
O64 O 0.85366 0.14776 0.97969 0.0
C65 C 0.85155 0.70588 0.82006 0.0
O66 O 0.82678 0.70139 0.85846 0.0
O67 O 0.93518 0.77645 0.95444 0.0
Zn68 Zn 0.88715 0.74664 0.93748 0.0
O69 O 0.86192 0.77068 0.94343 0.0
C70 C 0.88511 0.72048 0.07361 0.0
O71 O 0.90985 0.74971 0.08352 0.0
O72 O 0.88008 0.72455 0.84305 0.0
C73 C 0.85284 0.77593 1.00221 0.0
O74 O 0.86049 0.76609 0.05925 0.0
C75 C 0.94757 0.80461 0.98104 0.0
O76 O 0.92904 0.81731 0.99191 0.0
O77 O 0.87137 0.71288 0.01403 0.0
C78 C 0.83473 0.64107 0.55046 0.0
O79 O 0.86058 0.64816 0.51306 0.0
O80 O 0.82012 0.57139 0.42396 0.0
Zn81 Zn 0.80019 0.60002 0.4305 0.0
O82 O 0.75196 0.5751 0.40897 0.0
C83 C 0.83249 0.62837 0.30147 0.0
O84 O 0.82851 0.59932 0.29233 0.0
O85 O 0.80693 0.62087 0.52619 0.0
C86 C 0.74106 0.56759 0.3469 0.0
O87 O 0.76166 0.57534 0.29513 0.0
C88 C 0.80431 0.54102 0.41317 0.0
O89 O 0.77247 0.52581 0.41347 0.0
O90 O 0.82239 0.63473 0.35751 0.0
C91 C 0.36499 0.18484 0.50519 0.0
O92 O 0.35505 0.15936 0.46461 0.0
O93 O 0.44069 0.26455 0.37237 0.0
Zn94 Zn 0.40848 0.21737 0.38878 0.0
O95 O 0.42966 0.18976 0.38169 0.0
C96 C 0.38292 0.21773 0.25322 0.0
O97 O 0.41226 0.24252 0.24479 0.0
O98 O 0.38755 0.21207 0.48356 0.0
C99 C 0.43887 0.18537 0.3223 0.0
O100 O 0.43523 0.19972 0.26755 0.0
C101 C 0.47063 0.27674 0.35802 0.0
O102 O 0.48374 0.25823 0.35913 0.0
O103 O 0.37489 0.20336 0.31199 0.0
C104 C 0.81648 0.1789 0.5207 0.0
O105 O 0.84206 0.19769 0.48266 0.0
O106 O 0.73717 0.16996 0.37807 0.0
Zn107 Zn 0.7842 0.18926 0.4046 0.0
O108 O 0.80786 0.23823 0.40738 0.0
C109 C 0.79584 0.17686 0.26594 0.0
O110 O 0.77448 0.18601 0.25421 0.0
O111 O 0.78859 0.17175 0.4978 0.0
C112 C 0.80287 0.25541 0.36394 0.0
O113 O 0.77998 0.24101 0.31679 0.0
C114 C 0.71795 0.17981 0.39612 0.0
O115 O 0.72813 0.20437 0.4395 0.0
O116 O 0.80429 0.17592 0.32855 0.0
C117 C 0.95605 0.49838 0.16464 0.0
O118 O 0.95087 0.51998 0.19556 0.0
O119 O 0.893 0.48048 0.29446 0.0
Zn120 Zn 0.91995 0.45871 0.28443 0.0
O121 O 0.89087 0.40991 0.29097 0.0
C122 C 0.95919 0.5 0.39758 0.0
O123 O 0.94996 0.51961 0.37185 0.0
O124 O 0.94501 0.4707 0.19285 0.0
C125 C 0.88804 0.39542 0.34859 0.0
O126 O 0.90395 0.41255 0.40346 0.0
C127 C 0.86899 0.46928 0.33615 0.0
O128 O 0.86001 0.44174 0.36809 0.0
O129 O 0.95086 0.47347 0.36623 0.0
C130 C 0.49623 0.46265 0.11708 0.0
O131 O 0.476 0.43846 0.15675 0.0
O132 O 0.52237 0.42222 0.23786 0.0
Zn133 Zn 0.53905 0.47019 0.23039 0.0
O134 O 0.58812 0.49532 0.24135 0.0
C135 C 0.51127 0.46555 0.3661 0.0
O136 O 0.51746 0.44177 0.37198 0.0
O137 O 0.52537 0.48025 0.13773 0.0
C138 C 0.60125 0.50386 0.3014 0.0
O139 O 0.58259 0.49696 0.35654 0.0
C140 C 0.53922 0.40999 0.25904 0.0
O141 O 0.57031 0.4291 0.2709 0.0
O142 O 0.51817 0.48152 0.30933 0.0
C143 C 0.52663 0.04093 0.09868 0.0
O144 O 0.55745 0.06329 0.09688 0.0
O145 O 0.57371 0.09538 0.24624 0.0
Zn146 Zn 0.52503 0.06791 0.23752 0.0
O147 O 0.50506 0.09655 0.2425 0.0
C148 C 0.52211 0.01964 0.32862 0.0
O149 O 0.54208 0.01939 0.28164 0.0
O150 O 0.50965 0.03962 0.15111 0.0
C151 C 0.49146 0.09866 0.29788 0.0
O152 O 0.48986 0.08131 0.35253 0.0
C153 C 0.58358 0.11258 0.30139 0.0
O154 O 0.56196 0.11238 0.34429 0.0
O155 O 0.51076 0.03844 0.3201 0.0
C156 C 0.4712 0.94931 0.86633 0.0
O157 O 0.44255 0.92304 0.86993 0.0
O158 O 0.49389 0.90007 0.71665 0.0
Zn159 Zn 0.47127 0.92615 0.72458 0.0
O160 O 0.42202 0.89715 0.72416 0.0
C161 C 0.48862 0.94273 0.58201 0.0
O162 O 0.48226 0.91261 0.58047 0.0
O163 O 0.4874 0.95515 0.8101 0.0
C164 C 0.40486 0.89973 0.6763 0.0
O165 O 0.41923 0.92215 0.62846 0.0
C166 C 0.47959 0.86979 0.70487 0.0
O167 O 0.44776 0.85291 0.70546 0.0
O168 O 0.48516 0.95441 0.639 0.0
C169 C 0.0281 0.53361 0.90097 0.0
O170 O 0.03336 0.56025 0.86941 0.0
O171 O 0.09196 0.57729 0.76984 0.0
Zn172 Zn 0.06323 0.52872 0.78069 0.0
O173 O 0.09005 0.50687 0.7715 0.0
C174 C 0.02525 0.5324 0.66714 0.0
O175 O 0.03634 0.56183 0.69155 0.0
O176 O 0.03878 0.51658 0.87296 0.0
C177 C 0.09765 0.5021 0.7107 0.0
O178 O 0.08796 0.51174 0.65624 0.0
C179 C 0.12172 0.59128 0.75243 0.0
O180 O 0.13621 0.5741 0.74755 0.0
O181 O 0.03198 0.51327 0.69952 0.0
C182 C 0.45546 0.49249 0.85255 0.0
O183 O 0.43053 0.47046 0.81702 0.0
O184 O 0.41237 0.51314 0.72187 0.0
Zn185 Zn 0.46084 0.53229 0.73308 0.0
O186 O 0.48537 0.58112 0.72186 0.0
C187 C 0.46046 0.50464 0.59889 0.0
O188 O 0.43525 0.50835 0.58875 0.0
O189 O 0.47188 0.52082 0.82716 0.0
C190 C 0.49167 0.59426 0.66176 0.0
O191 O 0.48106 0.57568 0.60622 0.0
C192 C 0.39879 0.52859 0.69988 0.0
O193 O 0.4165 0.55994 0.6896 0.0
O194 O 0.47532 0.51298 0.65713 0.0
C195 C 0.63362 0.82691 0.44057 0.0
O196 O 0.61132 0.83535 0.43618 0.0
O197 O 0.57533 0.81819 0.58071 0.0
Zn198 Zn 0.60454 0.79868 0.57856 0.0
O199 O 0.57722 0.7498 0.58298 0.0
C200 C 0.64102 0.84299 0.68836 0.0
O201 O 0.6334 0.86183 0.65311 0.0
O202 O 0.63442 0.81178 0.49446 0.0
C203 C 0.57351 0.73451 0.6398 0.0
O204 O 0.5881 0.75091 0.69647 0.0
C205 C 0.55251 0.80682 0.62547 0.0
O206 O 0.54741 0.78161 0.66268 0.0
O207 O 0.63213 0.81482 0.66494 0.0
C208 C 0.19237 0.82417 0.51068 0.0
O209 O 0.22038 0.84764 0.53351 0.0
O210 O 0.17754 0.7409 0.64327 0.0
Zn211 Zn 0.19757 0.78929 0.6313 0.0
O212 O 0.24654 0.81225 0.62485 0.0
C213 C 0.17578 0.78924 0.77216 0.0
O214 O 0.17207 0.76008 0.77225 0.0
O215 O 0.17846 0.7976 0.54418 0.0
C216 C 0.2639 0.81825 0.67944 0.0
O217 O 0.2495 0.80775 0.74007 0.0
C218 C 0.19226 0.72594 0.66075 0.0
O219 O 0.22404 0.74198 0.66536 0.0
O220 O 0.18595 0.80637 0.71705 0.0
C221 C 0.19488 0.36452 0.46586 0.0
O222 O 0.21057 0.35605 0.50955 0.0
O223 O 0.24821 0.43299 0.59437 0.0
Zn224 Zn 0.19956 0.40572 0.58194 0.0
O225 O 0.17723 0.43168 0.59997 0.0
C226 C 0.19871 0.37358 0.70992 0.0
O227 O 0.22639 0.40049 0.71967 0.0
O228 O 0.18791 0.38585 0.4851 0.0
C229 C 0.17372 0.43886 0.66221 0.0
O230 O 0.18602 0.43035 0.71374 0.0
C231 C 0.26323 0.4627 0.61196 0.0
O232 O 0.24716 0.47836 0.61627 0.0
O233 O 0.18297 0.36996 0.65374 0.0
C234 C 0.16397 0.35504 0.35382 0.0
C235 C 0.18424 0.34861 0.39621 0.0
C236 C 0.15279 0.33981 0.28885 0.0
C237 C 0.16136 0.31743 0.26316 0.0
H238 H 0.15635 0.37182 0.37109 0.0
H239 H 0.13709 0.34557 0.25878 0.0
S240 S 0.21499 0.2929 0.35224 0.0
N241 N 0.21318 0.31881 0.40664 0.0
N242 N 0.1922 0.29025 0.28479 0.0
C243 C 0.18193 0.31099 0.3046 0.0
C244 C 0.19334 0.32654 0.3709 0.0
C245 C 0.65472 0.84901 0.32088 0.0
C246 C 0.65741 0.83463 0.38281 0.0
C247 C 0.67641 0.85607 0.26515 0.0
C248 C 0.70185 0.84912 0.26876 0.0
H249 H 0.63552 0.85471 0.31494 0.0
H250 H 0.67299 0.8669 0.21861 0.0
S251 S 0.72038 0.8124 0.42018 0.0
N252 N 0.68821 0.81434 0.4449 0.0
N253 N 0.72884 0.82759 0.34054 0.0
C254 C 0.70509 0.83506 0.33072 0.0
C255 C 0.68295 0.82784 0.38751 0.0
C256 C 0.1946 0.85745 0.40716 0.0
C257 C 0.17772 0.82856 0.4457 0.0
C258 C 0.18194 0.86217 0.34495 0.0
C259 C 0.15179 0.83821 0.31826 0.0
H260 H 0.21803 0.87665 0.42474 0.0
H261 H 0.19619 0.88478 0.3173 0.0
S262 S 0.09711 0.75845 0.40021 0.0
N263 N 0.12864 0.77582 0.45323 0.0
N264 N 0.1049 0.78465 0.33659 0.0
C265 C 0.13438 0.80931 0.35668 0.0
C266 C 0.1473 0.8045 0.42018 0.0
C267 C 0.32565 0.15108 0.5987 0.0
C268 C 0.35009 0.18165 0.57532 0.0
C269 C 0.31123 0.14711 0.66457 0.0
C270 C 0.32058 0.17352 0.71019 0.0
H271 H 0.31753 0.12985 0.56599 0.0
H272 H 0.29265 0.123 0.67981 0.0
S273 S 0.38318 0.25895 0.67403 0.0
N274 N 0.38278 0.23901 0.60318 0.0
N275 N 0.35576 0.23158 0.72669 0.0
C276 C 0.34489 0.20431 0.68742 0.0
C277 C 0.3596 0.20837 0.6202 0.0
C278 C 0.85173 0.17576 0.61402 0.0
C279 C 0.82043 0.16675 0.58956 0.0
C280 C 0.85652 0.16529 0.67905 0.0
C281 C 0.83023 0.14535 0.72278 0.0
H282 H 0.87291 0.19126 0.58294 0.0
H283 H 0.88117 0.17324 0.6953 0.0
S284 S 0.74312 0.11385 0.68264 0.0
N285 N 0.76254 0.13593 0.61393 0.0
N286 N 0.7715 0.11631 0.73596 0.0
C287 C 0.79871 0.1358 0.69873 0.0
C288 C 0.79383 0.14646 0.63231 0.0
C289 C 0.87311 0.69198 0.71368 0.0
C290 C 0.84641 0.6891 0.75144 0.0
C291 C 0.86904 0.67633 0.64918 0.0
C292 C 0.83809 0.65702 0.61947 0.0
H293 H 0.89749 0.70641 0.73406 0.0
H294 H 0.89047 0.6794 0.62257 0.0
S295 S 0.76008 0.64212 0.69592 0.0
N296 N 0.78776 0.66573 0.75333 0.0
N297 N 0.78017 0.63638 0.63257 0.0
C298 C 0.81113 0.65398 0.6565 0.0
C299 C 0.81527 0.66998 0.7222 0.0
C300 C 0.9835 0.53601 0.06408 0.0
C301 C 0.97443 0.50641 0.09757 0.0
C302 C 0.00073 0.54444 1.0009 0.0
C303 C 0.00988 0.52375 0.96827 0.0
H304 H 0.97717 0.55294 0.08661 0.0
H305 H 0.00697 0.56752 0.97764 0.0
S306 S 0.99237 0.44337 0.03428 0.0
N307 N 0.9761 0.45628 0.09309 0.0
N308 N 0.00852 0.47214 0.97469 0.0
C309 C 0.00108 0.49406 1.00121 0.0
C310 C 0.98338 0.4854 0.06559 0.0
C311 C 0.50521 0.49857 0.0137 0.0
C312 C 0.48516 0.46958 0.04982 0.0
C313 C 0.49529 0.50585 0.95055 0.0
C314 C 0.46499 0.48434 0.92033 0.0
H315 H 0.52878 0.51598 0.03445 0.0
H316 H 0.51172 0.52849 0.92498 0.0
S317 S 0.40322 0.40507 0.99369 0.0
N318 N 0.43335 0.41917 0.05043 0.0
N319 N 0.41487 0.43277 0.93193 0.0
C320 C 0.44468 0.45522 0.95582 0.0
C321 C 0.45469 0.44789 0.02042 0.0
C322 C 0.52916 0.02159 0.97805 0.0
C323 C 0.51181 0.01717 0.04046 0.0
C324 C 0.51584 -0.00039 0.92234 0.0
C325 C 0.48461 0.9721 0.92662 0.0
H326 H 0.55325 0.04233 0.9718 0.0
H327 H 0.53027 0.00432 0.87551 0.0
S328 S 0.42923 0.94881 0.07932 0.0
N329 N 0.46173 0.98276 0.10359 0.0
N330 N 0.4368 0.94154 0.99927 0.0
C331 C 0.46702 0.96725 0.98893 0.0
C332 C 0.48056 0.98973 0.04563 0.0
C333 C 0.18498 0.33575 0.88979 0.0
C334 C 0.15884 0.30422 0.87941 0.0
C335 C 0.1979 0.35774 0.83442 0.0
C336 C 0.18497 0.34923 0.76652 0.0
H337 H 0.19585 0.34352 0.94102 0.0
H338 H 0.21801 0.38174 0.84535 0.0
S339 S 0.11617 0.2697 0.71153 0.0
N340 N 0.1203 0.26555 0.79587 0.0
N341 N 0.14446 0.30701 0.69193 0.0
C342 C 0.15872 0.31781 0.75534 0.0
C343 C 0.1457 0.29528 0.8117 0.0
C344 C 0.66745 0.83346 0.79124 0.0
C345 C 0.65863 0.85372 0.75582 0.0
C346 C 0.68372 0.84257 0.85538 0.0
C347 C 0.69186 0.87234 0.88703 0.0
H348 H 0.66185 0.81028 0.7693 0.0
H349 H 0.69011 0.8261 0.88 0.0
S350 S 0.67364 0.93405 0.81676 0.0
N351 N 0.65883 0.90485 0.75783 0.0
N352 N 0.68941 0.92198 0.87839 0.0
C353 C 0.68299 0.8928 0.85252 0.0
C354 C 0.66642 0.88352 0.78698 0.0
C355 C 0.14149 0.79061 0.94994 0.0
C356 C 0.15416 0.8238 0.96298 0.0
C357 C 0.14873 0.77982 0.88817 0.0
C358 C 0.16854 0.80174 0.8364 0.0
H359 H 0.12583 0.77272 0.98778 0.0
H360 H 0.13836 0.75398 0.88072 0.0
S361 S 0.20788 0.89129 0.84474 0.0
N362 N 0.18776 0.87867 0.91897 0.0
N363 N 0.20101 0.85826 0.80244 0.0
C364 C 0.18139 0.83503 0.84858 0.0
C365 C 0.17435 0.84608 0.912 0.0
C366 C 0.32674 0.19036 0.20487 0.0
C367 C 0.36032 0.20541 0.19351 0.0
C368 C 0.30489 0.17852 0.14885 0.0
C369 C 0.31582 0.1806 0.07971 0.0
H370 H 0.31728 0.18801 0.25733 0.0
H371 H 0.27919 0.16713 0.16003 0.0
S372 S 0.40138 0.21707 0.02237 0.0
N373 N 0.40357 0.22161 0.1081 0.0
N374 N 0.36237 0.19861 1.00299 0.0
C375 C 0.34933 0.19529 0.06769 0.0
C376 C 0.37162 0.20793 0.12458 0.0
C377 C 0.83537 0.13735 0.16527 0.0
C378 C 0.83353 0.14555 0.09548 0.0
C379 C 0.82356 0.14797 0.22007 0.0
C380 C 0.80902 0.16684 0.20717 0.0
H381 H 0.84628 0.1228 0.17796 0.0
H382 H 0.82548 0.14096 0.27287 0.0
S383 S 0.7983 0.19503 0.03369 0.0
N384 N 0.81626 0.17388 0.01641 0.0
N385 N 0.79374 0.19362 0.11932 0.0
C386 C 0.80701 0.17524 0.1376 0.0
C387 C 0.81936 0.16468 0.0818 0.0
C388 C 0.85632 0.66405 0.11991 0.0
C389 C 0.87214 0.69755 0.1325 0.0
C390 C 0.84401 0.64189 0.17514 0.0
C391 C 0.84644 0.65244 0.24475 0.0
H392 H 0.85374 0.65488 0.06708 0.0
H393 H 0.83205 0.61628 0.163 0.0
S394 S 0.88497 0.73764 0.30529 0.0
N395 N 0.88941 0.74028 0.2196 0.0
N396 N 0.86565 0.69855 0.32322 0.0
C397 C 0.86192 0.68586 0.25799 0.0
C398 C 0.87497 0.70844 0.20189 0.0
C399 C 0.98531 0.53706 0.49931 0.0
C400 C 0.97661 0.5076 0.46547 0.0
C401 C 0.00054 0.54453 0.56471 0.0
C402 C 0.00769 0.52286 0.59936 0.0
H403 H 0.98027 0.55461 0.47529 0.0
H404 H 0.00681 0.56764 0.58808 0.0
S405 S 0.98996 0.44229 0.53358 0.0
N406 N 0.97633 0.45649 0.47178 0.0
N407 N 0.00487 0.47051 0.5947 0.0
C408 C 0.9991 0.49323 0.56628 0.0
C409 C 0.98365 0.48564 0.4994 0.0
C410 C 0.46725 0.49904 0.47136 0.0
C411 C 0.47302 0.49367 0.54081 0.0
C412 C 0.47989 0.49007 0.41511 0.0
C413 C 0.49816 0.47476 0.42625 0.0
H414 H 0.45336 0.51085 0.46026 0.0
H415 H 0.47508 0.49493 0.36251 0.0
S416 S 0.51967 0.45468 0.59814 0.0
N417 N 0.49811 0.47199 0.61768 0.0
N418 N 0.52134 0.45448 0.512 0.0
C419 C 0.50376 0.46884 0.49544 0.0
C420 C 0.49136 0.4785 0.55272 0.0
C421 C 0.49225 0.98825 0.51122 0.0
C422 C 0.49794 0.96218 0.51738 0.0
C423 C 0.4999 0.00644 0.44974 0.0
C424 C 0.51394 -0.00046 0.39235 0.0
H425 H 0.48136 0.99442 0.55384 0.0
H426 H 0.49494 0.02624 0.44753 0.0
S427 S 0.5347 0.93429 0.38303 0.0
N428 N 0.51898 0.93062 0.46162 0.0
N429 N 0.53366 0.965 0.34614 0.0
C430 C 0.52013 0.97373 0.39814 0.0
C431 C 0.51201 0.95498 0.4606 0.0
C432 C 0.18758 0.19928 0.98989 0.0
C433 C 0.15367 0.18332 0.99746 0.0
C434 C 0.20297 0.18353 0.9611 0.0
C435 C 0.18517 0.15099 0.93928 0.0
H436 H 0.20249 0.22432 0.00579 0.0
H437 H 0.22918 0.19695 0.95714 0.0
S438 S 0.09568 0.09822 0.94719 0.0
N439 N 0.1026 0.13312 0.98007 0.0
N440 N 0.13162 0.1034 0.92651 0.0
C441 C 0.15121 0.13471 0.94625 0.0
C442 C 0.13545 0.15088 0.97516 0.0
C443 C 0.82463 0.02205 0.97745 0.0
C444 C 0.85373 0.03481 0.93912 0.0
C445 C 0.80851 0.98994 1.00079 0.0
C446 C 0.82059 0.96905 0.98618 0.0
H447 H 0.81409 0.03699 0.98983 0.0
H448 H 0.78599 0.98126 0.0292 0.0
S449 S 0.89641 0.99053 0.88989 0.0
N450 N 0.89444 0.0241 0.8894 0.0
N451 N 0.86395 0.96361 0.93269 0.0
C452 C 0.84984 0.98149 0.94864 0.0
C453 C 0.86646 0.01437 0.92533 0.0
C454 C 0.99633 0.85387 0.02866 0.0
C455 C 0.98143 0.82123 0.00771 0.0
C456 C 0.02771 0.86981 0.05703 0.0
C457 C 0.04542 0.85372 0.06637 0.0
H458 H 0.98372 0.86734 0.02304 0.0
H459 H 0.03811 0.89501 0.07175 0.0
S460 S 0.01728 0.7679 0.02103 0.0
N461 N 0.9868 0.77321 0.99886 0.0
N462 N 0.04553 0.80305 0.05247 0.0
C463 C 0.03073 0.82098 0.04606 0.0
C464 C 0.99887 0.80481 0.01657 0.0
C465 C 0.82158 0.79907 0.94515 0.0
C466 C 0.83354 0.79254 0.00647 0.0
C467 C 0.80283 0.81417 0.94772 0.0
C468 C 0.79537 0.82359 0.01166 0.0
H469 H 0.82653 0.79231 0.89456 0.0
H470 H 0.79427 0.81861 0.89885 0.0
S471 S 0.8209 0.81223 0.18764 0.0
N472 N 0.83659 0.79684 0.13343 0.0
N473 N 0.80146 0.82524 0.13801 0.0
C474 C 0.80724 0.81733 0.07346 0.0
C475 C 0.82626 0.80181 0.07092 0.0
C476 C 0.19014 0.98415 0.96208 0.0
C477 C 0.1819 0.9731 0.03129 0.0
C478 C 0.20541 0.01719 0.94601 0.0
C479 C 0.21294 0.04061 0.99843 0.0
H480 H 0.18508 0.96719 0.91971 0.0
H481 H 0.21138 0.02436 0.89193 0.0
S482 S 0.19568 0.02435 0.18807 0.0
N483 N 0.18188 0.98823 0.15271 0.0
N484 N 0.21048 0.05027 0.12273 0.0
C485 C 0.20454 0.02989 0.06792 0.0
C486 C 0.18908 0.99619 0.08429 0.0
C487 C 0.98725 0.20506 0.96456 0.0
C488 C 0.96988 0.17468 0.9973 0.0
C489 C 0.01973 0.22669 0.9814 0.0
C490 C 0.03635 0.21875 0.03119 0.0
H491 H 0.97563 0.21243 0.9259 0.0
H492 H 0.03198 0.24967 0.95427 0.0
S493 S 0.00204 0.14208 0.13182 0.0
N494 N 0.9718 0.1377 0.08206 0.0
N495 N 0.03289 0.17824 0.11333 0.0
C496 C 0.01931 0.18841 0.06437 0.0
C497 C 0.98611 0.16644 0.04755 0.0
C498 C 0.80591 0.48959 0.40109 0.0
C499 C 0.82158 0.52346 0.39415 0.0
C500 C 0.82136 0.4723 0.38173 0.0
C501 C 0.85282 0.4881 0.35325 0.0
H502 H 0.78158 0.4763 0.42223 0.0
H503 H 0.80842 0.44628 0.38884 0.0
S504 S 0.90429 0.57648 0.32288 0.0
N505 N 0.87047 0.5722 0.35655 0.0
N506 N 0.8991 0.53963 0.31872 0.0
C507 C 0.86865 0.52192 0.3452 0.0
C508 C 0.85317 0.53961 0.36613 0.0
C509 C 0.48876 0.3585 0.28865 0.0
C510 C 0.52269 0.37556 0.28086 0.0
C511 C 0.47242 0.32685 0.31436 0.0
C512 C 0.4892 0.31065 0.33286 0.0
H513 H 0.47457 0.36982 0.27606 0.0
H514 H 0.44628 0.31498 0.31935 0.0
S515 S 0.57815 0.34407 0.32033 0.0
N516 N 0.57258 0.37366 0.29244 0.0
N517 N 0.54175 0.3139 0.34029 0.0
C518 C 0.52311 0.32717 0.32438 0.0
C519 C 0.53986 0.35965 0.29855 0.0
C520 C 0.62856 0.15276 0.37717 0.0
C521 C 0.61846 0.13086 0.32068 0.0
C522 C 0.66081 0.16884 0.40033 0.0
C523 C 0.68429 0.16349 0.36845 0.0
H524 H 0.61136 0.15737 0.40446 0.0
H525 H 0.66716 0.18512 0.44454 0.0
S526 S 0.67093 0.1098 0.21605 0.0
N527 N 0.63496 0.10567 0.23152 0.0
N528 N 0.69551 0.13571 0.27512 0.0
C529 C 0.67473 0.14218 0.31084 0.0
C530 C 0.64188 0.12596 0.2869 0.0
C531 C 0.46574 0.12472 0.3658 0.0
C532 C 0.47835 0.12103 0.30209 0.0
C533 C 0.45335 0.14574 0.37195 0.0
C534 C 0.45291 0.16391 0.31461 0.0
H535 H 0.46542 0.1113 0.41164 0.0
H536 H 0.44384 0.14753 0.42212 0.0
S537 S 0.48336 0.16346 0.13602 0.0
N538 N 0.48986 0.13763 0.1804 0.0
N539 N 0.46657 0.17708 0.19184 0.0
C540 C 0.46556 0.16059 0.25053 0.0
C541 C 0.47826 0.1392 0.24432 0.0
C542 C 0.82307 0.30906 0.30553 0.0
C543 C 0.82415 0.29118 0.36291 0.0
C544 C 0.84387 0.34263 0.30121 0.0
C545 C 0.86643 0.35982 0.35441 0.0
H546 H 0.80632 0.29702 0.26287 0.0
H547 H 0.8421 0.35518 0.25581 0.0
S548 S 0.87882 0.32461 0.51651 0.0
N549 N 0.84958 0.29336 0.47461 0.0
N550 N 0.8885 0.35638 0.46673 0.0
C551 C 0.86758 0.34233 0.4125 0.0
C552 C 0.84652 0.30807 0.41669 0.0
C553 C 0.65039 0.52883 0.37801 0.0
C554 C 0.63701 0.52025 0.31042 0.0
C555 C 0.6839 0.54388 0.38913 0.0
C556 C 0.7056 0.55107 0.3332 0.0
H557 H 0.6349 0.52389 0.42313 0.0
H558 H 0.69279 0.54998 0.44225 0.0
S559 S 0.68314 0.53349 0.14567 0.0
N560 N 0.6482 0.51997 0.18649 0.0
N561 N 0.71118 0.54828 0.20723 0.0
C562 C 0.6926 0.54259 0.26517 0.0
C563 C 0.65837 0.52722 0.25386 0.0
C564 C 0.50361 0.80595 0.67529 0.0
C565 C 0.53374 0.82318 0.64111 0.0
C566 C 0.48619 0.82116 0.69538 0.0
C567 C 0.49856 0.85435 0.68352 0.0
H568 H 0.49335 0.78044 0.68681 0.0
H569 H 0.46308 0.80689 0.72144 0.0
S570 S 0.57593 0.91031 0.59407 0.0
N571 N 0.57476 0.87514 0.59443 0.0
N572 N 0.54237 0.90387 0.63337 0.0
C573 C 0.52856 0.87187 0.64888 0.0
C574 C 0.54602 0.85624 0.62727 0.0
C575 C 0.18933 0.67357 0.69207 0.0
C576 C 0.17352 0.69154 0.68306 0.0
C577 C 0.17248 0.64141 0.71537 0.0
C578 C 0.13916 0.62592 0.73137 0.0
H579 H 0.21496 0.68436 0.68074 0.0
H580 H 0.18578 0.62861 0.7207 0.0
S581 S 0.08652 0.6626 0.71879 0.0
N582 N 0.12255 0.69154 0.69314 0.0
N583 N 0.09108 0.63139 0.73762 0.0
C584 C 0.1231 0.64374 0.72338 0.0
C585 C 0.14019 0.6764 0.69896 0.0
C586 C 0.34804 0.52839 0.66462 0.0
C587 C 0.36402 0.51101 0.67938 0.0
C588 C 0.31561 0.51261 0.64243 0.0
C589 C 0.29788 0.4788 0.63322 0.0
H590 H 0.36063 0.55449 0.67034 0.0
H591 H 0.30443 0.52714 0.63216 0.0
S592 S 0.32843 0.42189 0.66444 0.0
N593 N 0.35951 0.4579 0.68315 0.0
N594 N 0.29881 0.42834 0.641 0.0
C595 C 0.31358 0.46107 0.64757 0.0
C596 C 0.34653 0.47712 0.67084 0.0
C597 C 0.1417 0.4642 0.6207 0.0
C598 C 0.15517 0.45568 0.67645 0.0
C599 C 0.12331 0.47924 0.63248 0.0
C600 C 0.11752 0.48639 0.70056 0.0
H601 H 0.14517 0.45907 0.56725 0.0
H602 H 0.11341 0.48509 0.58758 0.0
S603 S 0.14795 0.4698 0.865 0.0
N604 N 0.16185 0.45606 0.8027 0.0
N605 N 0.1273 0.48427 0.82469 0.0
C606 C 0.13105 0.47826 0.7569 0.0
C607 C 0.14986 0.46296 0.74491 0.0
C608 C 0.52675 0.64929 0.71358 0.0
C609 C 0.51168 0.62999 0.65447 0.0
C610 C 0.54664 0.68293 0.70808 0.0
C611 C 0.55225 0.69879 0.64328 0.0
H612 H 0.52347 0.63837 0.7647 0.0
H613 H 0.55771 0.69654 0.75533 0.0
S614 S 0.51786 0.65953 0.47242 0.0
N615 N 0.5033 0.62937 0.52882 0.0
N616 N 0.54062 0.69253 0.5186 0.0
C617 C 0.53708 0.67984 0.5837 0.0
C618 C 0.51685 0.64551 0.58927 0.0
C619 C 0.31871 0.8404 0.7347 0.0
C620 C 0.29986 0.83795 0.67579 0.0
C621 C 0.35261 0.85994 0.73408 0.0
C622 C 0.36907 0.87814 0.67477 0.0
H623 H 0.30722 0.82725 0.78206 0.0
H624 H 0.36592 0.86121 0.78099 0.0
S625 S 0.33127 0.87946 0.50585 0.0
N626 N 0.30043 0.85481 0.55565 0.0
N627 N 0.36395 0.89158 0.55452 0.0
C628 C 0.35059 0.87556 0.61508 0.0
C629 C 0.31608 0.85546 0.61555 0.0
loop_
_geom_bond_atom_site_label_1
_geom_bond_atom_site_label_2
_geom_bond_distance
_geom_bond_site_symmetry_2
_ccdc_geom_bond_type
C0 O1 1.160 . S
C0 O7 1.185 . S
O1 C0 1.160 . S
O2 Zn3 1.899 . S
O2 C10 1.284 . S
Zn3 O2 1.899 . S
Zn3 O4 2.032 . S
Zn3 O7 2.086 . S
Zn3 O12 1.977 1_554 S
O4 Zn3 2.032 . S
O4 C8 1.278 . S
C5 O6 1.203 . S
C5 O12 1.267 . S
O6 C5 1.203 . S
O7 C0 1.185 . S
O7 Zn3 2.086 . S
C8 O4 1.278 . S
C8 O9 1.211 1_554 S
O9 C8 1.211 1_556 S
C10 O2 1.284 . S
C10 O11 1.273 . S
O11 C10 1.273 . S
O12 Zn3 1.977 1_556 S
O12 C5 1.267 . S
C13 O14 1.160 . S
C13 O20 1.185 . S
O14 C13 1.160 . S
O15 Zn16 1.899 . S
O15 C23 1.284 . S
Zn16 O15 1.899 . S
Zn16 O17 2.032 . S
Zn16 O20 2.086 . S
Zn16 O25 1.977 1_554 S
O17 Zn16 2.032 . S
O17 C21 1.278 . S
C18 O19 1.203 . S
C18 O25 1.267 . S
O19 C18 1.203 . S
O20 C13 1.185 . S
O20 Zn16 2.086 . S
C21 O17 1.278 . S
C21 O22 1.211 1_554 S
O22 C21 1.211 1_556 S
C23 O15 1.284 . S
C23 O24 1.273 . S
O24 C23 1.273 . S
O25 Zn16 1.977 1_556 S
O25 C18 1.267 . S
C26 O27 1.160 . S
C26 O33 1.185 . S
O27 C26 1.160 . S
O28 Zn29 1.899 . S
O28 C36 1.284 . S
Zn29 O28 1.899 . S
Zn29 O30 2.032 . S
Zn29 O33 2.086 . S
Zn29 O38 1.977 1_554 S
O30 Zn29 2.032 . S
O30 C34 1.278 . S
C31 O32 1.203 . S
C31 O38 1.267 . S
O32 C31 1.203 . S
O33 C26 1.185 . S
O33 Zn29 2.086 . S
C34 O30 1.278 . S
C34 O35 1.211 1_554 S
O35 C34 1.211 1_556 S
C36 O28 1.284 . S
C36 O37 1.273 . S
O37 C36 1.273 . S
O38 Zn29 1.977 1_556 S
O38 C31 1.267 . S
C39 O40 1.160 . S
C39 O46 1.185 . S
O40 C39 1.160 . S
O41 Zn42 1.899 . S
O41 C49 1.284 . S
Zn42 O41 1.899 . S
Zn42 O43 2.032 . S
Zn42 O46 2.086 . S
Zn42 O51 1.977 1_556 S
O43 Zn42 2.032 . S
O43 C47 1.278 . S
C44 O45 1.203 . S
C44 O51 1.267 . S
O45 C44 1.203 . S
O46 C39 1.185 . S
O46 Zn42 2.086 . S
C47 O43 1.278 . S
C47 O48 1.211 1_556 S
O48 C47 1.211 1_554 S
C49 O41 1.284 . S
C49 O50 1.273 . S
O50 C49 1.273 . S
O51 Zn42 1.977 1_554 S
O51 C44 1.267 . S
C52 O53 1.160 . S
C52 O59 1.185 . S
O53 C52 1.160 . S
O54 Zn55 1.899 . S
O54 C62 1.284 . S
Zn55 O54 1.899 . S
Zn55 O56 2.032 . S
Zn55 O59 2.086 . S
Zn55 O64 1.977 1_556 S
O56 Zn55 2.032 . S
O56 C60 1.278 . S
C57 O58 1.203 . S
C57 O64 1.267 . S
O58 C57 1.203 . S
O59 C52 1.185 . S
O59 Zn55 2.086 . S
C60 O56 1.278 . S
C60 O61 1.211 1_556 S
O61 C60 1.211 1_554 S
C62 O54 1.284 . S
C62 O63 1.273 . S
O63 C62 1.273 . S
O64 Zn55 1.977 1_554 S
O64 C57 1.267 . S
C65 O66 1.160 . S
C65 O72 1.185 . S
O66 C65 1.160 . S
O67 Zn68 1.899 . S
O67 C75 1.284 . S
Zn68 O67 1.899 . S
Zn68 O69 2.032 . S
Zn68 O72 2.086 . S
Zn68 O77 1.977 1_556 S
O69 Zn68 2.032 . S
O69 C73 1.278 . S
C70 O71 1.203 . S
C70 O77 1.267 . S
O71 C70 1.203 . S
O72 C65 1.185 . S
O72 Zn68 2.086 . S
C73 O69 1.278 . S
C73 O74 1.211 1_556 S
O74 C73 1.211 1_554 S
C75 O67 1.284 . S
C75 O76 1.273 . S
O76 C75 1.273 . S
O77 Zn68 1.977 1_554 S
O77 C70 1.267 . S
C78 O79 1.160 . S
C78 O85 1.185 . S
O79 C78 1.160 . S
O80 Zn81 1.899 . S
O80 C88 1.284 . S
Zn81 O80 1.899 . S
Zn81 O82 2.032 . S
Zn81 O85 2.086 . S
Zn81 O90 1.977 . S
O82 Zn81 2.032 . S
O82 C86 1.278 . S
C83 O84 1.203 . S
C83 O90 1.267 . S
O84 C83 1.203 . S
O85 C78 1.185 . S
O85 Zn81 2.086 . S
C86 O82 1.278 . S
C86 O87 1.211 . S
O87 C86 1.211 . S
C88 O80 1.284 . S
C88 O89 1.273 . S
O89 C88 1.273 . S
O90 Zn81 1.977 . S
O90 C83 1.267 . S
C91 O92 1.160 . S
C91 O98 1.185 . S
O92 C91 1.160 . S
O93 Zn94 1.899 . S
O93 C101 1.284 . S
Zn94 O93 1.899 . S
Zn94 O95 2.032 . S
Zn94 O98 2.086 . S
Zn94 O103 1.977 . S
O95 Zn94 2.032 . S
O95 C99 1.278 . S
C96 O97 1.203 . S
C96 O103 1.267 . S
O97 C96 1.203 . S
O98 C91 1.185 . S
O98 Zn94 2.086 . S
C99 O95 1.278 . S
C99 O100 1.211 . S
O100 C99 1.211 . S
C101 O93 1.284 . S
C101 O102 1.273 . S
O102 C101 1.273 . S
O103 Zn94 1.977 . S
O103 C96 1.267 . S
C104 O105 1.160 . S
C104 O111 1.185 . S
O105 C104 1.160 . S
O106 Zn107 1.899 . S
O106 C114 1.284 . S
Zn107 O106 1.899 . S
Zn107 O108 2.032 . S
Zn107 O111 2.086 . S
Zn107 O116 1.977 . S
O108 Zn107 2.032 . S
O108 C112 1.278 . S
C109 O110 1.203 . S
C109 O116 1.267 . S
O110 C109 1.203 . S
O111 C104 1.185 . S
O111 Zn107 2.086 . S
C112 O108 1.278 . S
C112 O113 1.211 . S
O113 C112 1.211 . S
C114 O106 1.284 . S
C114 O115 1.273 . S
O115 C114 1.273 . S
O116 Zn107 1.977 . S
O116 C109 1.267 . S
C117 O118 1.160 . S
C117 O124 1.185 . S
O118 C117 1.160 . S
O119 Zn120 1.899 . S
O119 C127 1.284 . S
Zn120 O119 1.899 . S
Zn120 O121 2.032 . S
Zn120 O124 2.086 . S
Zn120 O129 1.977 . S
O121 Zn120 2.032 . S
O121 C125 1.278 . S
C122 O123 1.203 . S
C122 O129 1.267 . S
O123 C122 1.203 . S
O124 C117 1.185 . S
O124 Zn120 2.086 . S
C125 O121 1.278 . S
C125 O126 1.211 . S
O126 C125 1.211 . S
C127 O119 1.284 . S
C127 O128 1.273 . S
O128 C127 1.273 . S
O129 Zn120 1.977 . S
O129 C122 1.267 . S
C130 O131 1.160 . S
C130 O137 1.185 . S
O131 C130 1.160 . S
O132 Zn133 1.899 . S
O132 C140 1.284 . S
Zn133 O132 1.899 . S
Zn133 O134 2.032 . S
Zn133 O137 2.086 . S
Zn133 O142 1.977 . S
O134 Zn133 2.032 . S
O134 C138 1.278 . S
C135 O136 1.203 . S
C135 O142 1.267 . S
O136 C135 1.203 . S
O137 C130 1.185 . S
O137 Zn133 2.086 . S
C138 O134 1.278 . S
C138 O139 1.211 . S
O139 C138 1.211 . S
C140 O132 1.284 . S
C140 O141 1.273 . S
O141 C140 1.273 . S
O142 Zn133 1.977 . S
O142 C135 1.267 . S
C143 O144 1.160 . S
C143 O150 1.185 . S
O144 C143 1.160 . S
O145 Zn146 1.899 . S
O145 C153 1.284 . S
Zn146 O145 1.899 . S
Zn146 O147 2.032 . S
Zn146 O150 2.086 . S
Zn146 O155 1.977 . S
O147 Zn146 2.032 . S
O147 C151 1.278 . S
C148 O149 1.203 . S
C148 O155 1.267 . S
O149 C148 1.203 . S
O150 C143 1.185 . S
O150 Zn146 2.086 . S
C151 O147 1.278 . S
C151 O152 1.211 . S
O152 C151 1.211 . S
C153 O145 1.284 . S
C153 O154 1.273 . S
O154 C153 1.273 . S
O155 Zn146 1.977 . S
O155 C148 1.267 . S
C156 O157 1.160 . S
C156 O163 1.185 . S
O157 C156 1.160 . S
O158 Zn159 1.899 . S
O158 C166 1.284 . S
Zn159 O158 1.899 . S
Zn159 O160 2.032 . S
Zn159 O163 2.086 . S
Zn159 O168 1.977 . S
O160 Zn159 2.032 . S
O160 C164 1.278 . S
C161 O162 1.203 . S
C161 O168 1.267 . S
O162 C161 1.203 . S
O163 C156 1.185 . S
O163 Zn159 2.086 . S
C164 O160 1.278 . S
C164 O165 1.211 . S
O165 C164 1.211 . S
C166 O158 1.284 . S
C166 O167 1.273 . S
O167 C166 1.273 . S
O168 Zn159 1.977 . S
O168 C161 1.267 . S
C169 O170 1.160 . S
C169 O176 1.185 . S
O170 C169 1.160 . S
O171 Zn172 1.899 . S
O171 C179 1.284 . S
Zn172 O171 1.899 . S
Zn172 O173 2.032 . S
Zn172 O176 2.086 . S
Zn172 O181 1.977 . S
O173 Zn172 2.032 . S
O173 C177 1.278 . S
C174 O175 1.203 . S
C174 O181 1.267 . S
O175 C174 1.203 . S
O176 C169 1.185 . S
O176 Zn172 2.086 . S
C177 O173 1.278 . S
C177 O178 1.211 . S
O178 C177 1.211 . S
C179 O171 1.284 . S
C179 O180 1.273 . S
O180 C179 1.273 . S
O181 Zn172 1.977 . S
O181 C174 1.267 . S
C182 O183 1.160 . S
C182 O189 1.185 . S
O183 C182 1.160 . S
O184 Zn185 1.899 . S
O184 C192 1.284 . S
Zn185 O184 1.899 . S
Zn185 O186 2.032 . S
Zn185 O189 2.086 . S
Zn185 O194 1.977 . S
O186 Zn185 2.032 . S
O186 C190 1.278 . S
C187 O188 1.203 . S
C187 O194 1.267 . S
O188 C187 1.203 . S
O189 C182 1.185 . S
O189 Zn185 2.086 . S
C190 O186 1.278 . S
C190 O191 1.211 . S
O191 C190 1.211 . S
C192 O184 1.284 . S
C192 O193 1.273 . S
O193 C192 1.273 . S
O194 Zn185 1.977 . S
O194 C187 1.267 . S
C195 O196 1.160 . S
C195 O202 1.185 . S
O196 C195 1.160 . S
O197 Zn198 1.899 . S
O197 C205 1.284 . S
Zn198 O197 1.899 . S
Zn198 O199 2.032 . S
Zn198 O202 2.086 . S
Zn198 O207 1.977 . S
O199 Zn198 2.032 . S
O199 C203 1.278 . S
C200 O201 1.203 . S
C200 O207 1.267 . S
O201 C200 1.203 . S
O202 C195 1.185 . S
O202 Zn198 2.086 . S
C203 O199 1.278 . S
C203 O204 1.211 . S
O204 C203 1.211 . S
C205 O197 1.284 . S
C205 O206 1.273 . S
O206 C205 1.273 . S
O207 Zn198 1.977 . S
O207 C200 1.267 . S
C208 O209 1.160 . S
C208 O215 1.185 . S
O209 C208 1.160 . S
O210 Zn211 1.899 . S
O210 C218 1.284 . S
Zn211 O210 1.899 . S
Zn211 O212 2.032 . S
Zn211 O215 2.086 . S
Zn211 O220 1.977 . S
O212 Zn211 2.032 . S
O212 C216 1.278 . S
C213 O214 1.203 . S
C213 O220 1.267 . S
O214 C213 1.203 . S
O215 C208 1.185 . S
O215 Zn211 2.086 . S
C216 O212 1.278 . S
C216 O217 1.211 . S
O217 C216 1.211 . S
C218 O210 1.284 . S
C218 O219 1.273 . S
O219 C218 1.273 . S
O220 Zn211 1.977 . S
O220 C213 1.267 . S
C221 O222 1.160 . S
C221 O228 1.185 . S
O222 C221 1.160 . S
O223 Zn224 1.899 . S
O223 C231 1.284 . S
Zn224 O223 1.899 . S
Zn224 O225 2.032 . S
Zn224 O228 2.086 . S
Zn224 O233 1.977 . S
O225 Zn224 2.032 . S
O225 C229 1.278 . S
C226 O227 1.203 . S
C226 O233 1.267 . S
O227 C226 1.203 . S
O228 C221 1.185 . S
O228 Zn224 2.086 . S
C229 O225 1.278 . S
C229 O230 1.211 . S
O230 C229 1.211 . S
C231 O223 1.284 . S
C231 O232 1.273 . S
O232 C231 1.273 . S
O233 Zn224 1.977 . S
O233 C226 1.267 . S
C234 C235 1.369 . S
C234 C236 1.419 . S
C234 H238 0.930 . S
C235 C234 1.369 . S
C235 C244 1.429 . S
C236 C234 1.419 . S
C236 C237 1.363 . S
C236 H239 0.929 . S
C237 C236 1.363 . S
C237 C243 1.428 . S
H238 C234 0.930 . S
H239 C236 0.929 . S
S240 N241 1.613 . S
S240 N242 1.610 . S
N241 S240 1.613 . S
N241 C244 1.350 . S
N242 S240 1.610 . S
N242 C243 1.351 . S
C243 C237 1.428 . S
C243 N242 1.351 . S
C243 C244 1.434 . S
C244 C235 1.429 . S
C244 N241 1.350 . S
C244 C243 1.434 . S
C245 C246 1.369 . S
C245 C247 1.419 . S
C245 H249 0.930 . S
C246 C245 1.369 . S
C246 C255 1.429 . S
C247 C245 1.419 . S
C247 C248 1.363 . S
C247 H250 0.929 . S
C248 C247 1.363 . S
C248 C254 1.428 . S
H249 C245 0.930 . S
H250 C247 0.929 . S
S251 N252 1.613 . S
S251 N253 1.610 . S
N252 S251 1.613 . S
N252 C255 1.350 . S
N253 S251 1.610 . S
N253 C254 1.351 . S
C254 C248 1.428 . S
C254 N253 1.351 . S
C254 C255 1.434 . S
C255 C246 1.429 . S
C255 N252 1.350 . S
C255 C254 1.434 . S
C256 C257 1.369 . S
C256 C258 1.419 . S
C256 H260 0.930 . S
C257 C256 1.369 . S
C257 C266 1.429 . S
C258 C256 1.419 . S
C258 C259 1.363 . S
C258 H261 0.929 . S
C259 C258 1.363 . S
C259 C265 1.428 . S
H260 C256 0.930 . S
H261 C258 0.929 . S
S262 N263 1.613 . S
S262 N264 1.610 . S
N263 S262 1.613 . S
N263 C266 1.350 . S
N264 S262 1.610 . S
N264 C265 1.351 . S
C265 C259 1.428 . S
C265 N264 1.351 . S
C265 C266 1.434 . S
C266 C257 1.429 . S
C266 N263 1.350 . S
C266 C265 1.434 . S
C267 C268 1.369 . S
C267 C269 1.419 . S
C267 H271 0.930 . S
C268 C267 1.369 . S
C268 C277 1.429 . S
C269 C267 1.419 . S
C269 C270 1.363 . S
C269 H272 0.929 . S
C270 C269 1.363 . S
C270 C276 1.428 . S
H271 C267 0.930 . S
H272 C269 0.929 . S
S273 N274 1.613 . S
S273 N275 1.610 . S
N274 S273 1.613 . S
N274 C277 1.350 . S
N275 S273 1.610 . S
N275 C276 1.351 . S
C276 C270 1.428 . S
C276 N275 1.351 . S
C276 C277 1.434 . S
C277 C268 1.429 . S
C277 N274 1.350 . S
C277 C276 1.434 . S
C278 C279 1.369 . S
C278 C280 1.419 . S
C278 H282 0.930 . S
C279 C278 1.369 . S
C279 C288 1.429 . S
C280 C278 1.419 . S
C280 C281 1.363 . S
C280 H283 0.929 . S
C281 C280 1.363 . S
C281 C287 1.428 . S
H282 C278 0.930 . S
H283 C280 0.929 . S
S284 N285 1.613 . S
S284 N286 1.610 . S
N285 S284 1.613 . S
N285 C288 1.350 . S
N286 S284 1.610 . S
N286 C287 1.351 . S
C287 C281 1.428 . S
C287 N286 1.351 . S
C287 C288 1.434 . S
C288 C279 1.429 . S
C288 N285 1.350 . S
C288 C287 1.434 . S
C289 C290 1.369 . S
C289 C291 1.419 . S
C289 H293 0.930 . S
C290 C289 1.369 . S
C290 C299 1.429 . S
C291 C289 1.419 . S
C291 C292 1.363 . S
C291 H294 0.929 . S
C292 C291 1.363 . S
C292 C298 1.428 . S
H293 C289 0.930 . S
H294 C291 0.929 . S
S295 N296 1.613 . S
S295 N297 1.610 . S
N296 S295 1.613 . S
N296 C299 1.350 . S
N297 S295 1.610 . S
N297 C298 1.351 . S
C298 C292 1.428 . S
C298 N297 1.351 . S
C298 C299 1.434 . S
C299 C290 1.429 . S
C299 N296 1.350 . S
C299 C298 1.434 . S
C300 C301 1.369 . S
C300 C302 1.419 1_654 S
C300 H304 0.930 . S
C301 C300 1.369 . S
C301 C310 1.429 . S
C302 C300 1.419 1_456 S
C302 C303 1.363 . S
C302 H305 0.929 . S
C303 C302 1.363 . S
C303 C309 1.428 . S
H304 C300 0.930 . S
H305 C302 0.929 . S
S306 N307 1.613 1_455 S
S306 N308 1.610 1_554 S
N307 S306 1.613 1_655 S
N307 C310 1.350 . S
N308 S306 1.610 1_556 S
N308 C309 1.351 . S
C309 C303 1.428 . S
C309 N308 1.351 . S
C309 C310 1.434 1_456 S
C310 C301 1.429 . S
C310 N307 1.350 . S
C310 C309 1.434 1_654 S
C311 C312 1.369 . S
C311 C313 1.419 1_554 S
C311 H315 0.930 . S
C312 C311 1.369 . S
C312 C321 1.429 . S
C313 C311 1.419 1_556 S
C313 C314 1.363 . S
C313 H316 0.929 . S
C314 C313 1.363 . S
C314 C320 1.428 . S
H315 C311 0.930 . S
H316 C313 0.929 . S
S317 N318 1.613 . S
S317 N319 1.610 1_554 S
N318 S317 1.613 . S
N318 C321 1.350 . S
N319 S317 1.610 1_556 S
N319 C320 1.351 . S
C320 C314 1.428 . S
C320 N319 1.351 . S
C320 C321 1.434 1_556 S
C321 C312 1.429 . S
C321 N318 1.350 . S
C321 C320 1.434 1_554 S
C322 C323 1.369 1_556 S
C322 C324 1.419 . S
C322 H326 0.930 . S
C323 C322 1.369 1_554 S
C323 C332 1.429 1_545 S
C324 C322 1.419 . S
C324 C325 1.363 1_545 S
C324 H327 0.929 . S
C325 C324 1.363 1_565 S
C325 C331 1.428 1_556 S
H326 C322 0.930 . S
H327 C324 0.929 . S
S328 N329 1.613 . S
S328 N330 1.610 . S
N329 S328 1.613 . S
N329 C332 1.350 . S
N330 S328 1.610 . S
N330 C331 1.351 . S
C331 C325 1.428 1_554 S
C331 N330 1.351 . S
C331 C332 1.434 . S
C332 C323 1.429 1_565 S
C332 N329 1.350 . S
C332 C331 1.434 . S
C333 C334 1.369 . S
C333 C335 1.419 . S
C333 H337 0.930 . S
C334 C333 1.369 . S
C334 C343 1.429 . S
C335 C333 1.419 . S
C335 C336 1.363 . S
C335 H338 0.929 . S
C336 C335 1.363 . S
C336 C342 1.428 . S
H337 C333 0.930 . S
H338 C335 0.929 . S
S339 N340 1.613 . S
S339 N341 1.610 . S
N340 S339 1.613 . S
N340 C343 1.350 . S
N341 S339 1.610 . S
N341 C342 1.351 . S
C342 C336 1.428 . S
C342 N341 1.351 . S
C342 C343 1.434 . S
C343 C334 1.429 . S
C343 N340 1.350 . S
C343 C342 1.434 . S
C344 C345 1.369 . S
C344 C346 1.419 . S
C344 H348 0.930 . S
C345 C344 1.369 . S
C345 C354 1.429 . S
C346 C344 1.419 . S
C346 C347 1.363 . S
C346 H349 0.929 . S
C347 C346 1.363 . S
C347 C353 1.428 . S
H348 C344 0.930 . S
H349 C346 0.929 . S
S350 N351 1.613 . S
S350 N352 1.610 . S
N351 S350 1.613 . S
N351 C354 1.350 . S
N352 S350 1.610 . S
N352 C353 1.351 . S
C353 C347 1.428 . S
C353 N352 1.351 . S
C353 C354 1.434 . S
C354 C345 1.429 . S
C354 N351 1.350 . S
C354 C353 1.434 . S
C355 C356 1.369 . S
C355 C357 1.419 . S
C355 H359 0.930 . S
C356 C355 1.369 . S
C356 C365 1.429 . S
C357 C355 1.419 . S
C357 C358 1.363 . S
C357 H360 0.929 . S
C358 C357 1.363 . S
C358 C364 1.428 . S
H359 C355 0.930 . S
H360 C357 0.929 . S
S361 N362 1.613 . S
S361 N363 1.610 . S
N362 S361 1.613 . S
N362 C365 1.350 . S
N363 S361 1.610 . S
N363 C364 1.351 . S
C364 C358 1.428 . S
C364 N363 1.351 . S
C364 C365 1.434 . S
C365 C356 1.429 . S
C365 N362 1.350 . S
C365 C364 1.434 . S
C366 C367 1.369 . S
C366 C368 1.419 . S
C366 H370 0.930 . S
C367 C366 1.369 . S
C367 C376 1.429 . S
C368 C366 1.419 . S
C368 C369 1.363 . S
C368 H371 0.929 . S
C369 C368 1.363 . S
C369 C375 1.428 . S
H370 C366 0.930 . S
H371 C368 0.929 . S
S372 N373 1.613 . S
S372 N374 1.610 . S
N373 S372 1.613 . S
N373 C376 1.350 . S
N374 S372 1.610 . S
N374 C375 1.351 . S
C375 C369 1.428 . S
C375 N374 1.351 . S
C375 C376 1.434 . S
C376 C367 1.429 . S
C376 N373 1.350 . S
C376 C375 1.434 . S
C377 C378 1.369 . S
C377 C379 1.419 . S
C377 H381 0.930 . S
C378 C377 1.369 . S
C378 C387 1.429 . S
C379 C377 1.419 . S
C379 C380 1.363 . S
C379 H382 0.929 . S
C380 C379 1.363 . S
C380 C386 1.428 . S
H381 C377 0.930 . S
H382 C379 0.929 . S
S383 N384 1.613 . S
S383 N385 1.610 . S
N384 S383 1.613 . S
N384 C387 1.350 . S
N385 S383 1.610 . S
N385 C386 1.351 . S
C386 C380 1.428 . S
C386 N385 1.351 . S
C386 C387 1.434 . S
C387 C378 1.429 . S
C387 N384 1.350 . S
C387 C386 1.434 . S
C388 C389 1.369 . S
C388 C390 1.419 . S
C388 H392 0.930 . S
C389 C388 1.369 . S
C389 C398 1.429 . S
C390 C388 1.419 . S
C390 C391 1.363 . S
C390 H393 0.929 . S
C391 C390 1.363 . S
C391 C397 1.428 . S
H392 C388 0.930 . S
H393 C390 0.929 . S
S394 N395 1.613 . S
S394 N396 1.610 . S
N395 S394 1.613 . S
N395 C398 1.350 . S
N396 S394 1.610 . S
N396 C397 1.351 . S
C397 C391 1.428 . S
C397 N396 1.351 . S
C397 C398 1.434 . S
C398 C389 1.429 . S
C398 N395 1.350 . S
C398 C397 1.434 . S
C399 C400 1.369 . S
C399 C401 1.419 1_655 S
C399 H403 0.930 . S
C400 C399 1.369 . S
C400 C409 1.429 . S
C401 C399 1.419 1_455 S
C401 C402 1.363 . S
C401 H404 0.929 . S
C402 C401 1.363 . S
C402 C408 1.428 . S
H403 C399 0.930 . S
H404 C401 0.929 . S
S405 N406 1.613 1_455 S
S405 N407 1.610 . S
N406 S405 1.613 1_655 S
N406 C409 1.350 . S
N407 S405 1.610 . S
N407 C408 1.351 . S
C408 C402 1.428 . S
C408 N407 1.351 . S
C408 C409 1.434 1_455 S
C409 C400 1.429 . S
C409 N406 1.350 . S
C409 C408 1.434 1_655 S
C410 C411 1.369 . S
C410 C412 1.419 . S
C410 H414 0.930 . S
C411 C410 1.369 . S
C411 C420 1.429 . S
C412 C410 1.419 . S
C412 C413 1.363 . S
C412 H415 0.929 . S
C413 C412 1.363 . S
C413 C419 1.428 . S
H414 C410 0.930 . S
H415 C412 0.929 . S
S416 N417 1.613 . S
S416 N418 1.610 . S
N417 S416 1.613 . S
N417 C420 1.350 . S
N418 S416 1.610 . S
N418 C419 1.351 . S
C419 C413 1.428 . S
C419 N418 1.351 . S
C419 C420 1.434 . S
C420 C411 1.429 . S
C420 N417 1.350 . S
C420 C419 1.434 . S
C421 C422 1.369 1_545 S
C421 C423 1.419 . S
C421 H425 0.930 . S
C422 C421 1.369 1_565 S
C422 C431 1.429 . S
C423 C421 1.419 . S
C423 C424 1.363 . S
C423 H426 0.929 . S
C424 C423 1.363 . S
C424 C430 1.428 1_545 S
H425 C421 0.930 . S
H426 C423 0.929 . S
S427 N428 1.613 . S
S427 N429 1.610 . S
N428 S427 1.613 . S
N428 C431 1.350 . S
N429 S427 1.610 . S
N429 C430 1.351 . S
C430 C424 1.428 1_565 S
C430 N429 1.351 . S
C430 C431 1.434 . S
C431 C422 1.429 . S
C431 N428 1.350 . S
C431 C430 1.434 . S
C432 C433 1.369 . S
C432 C434 1.419 . S
C432 H436 0.930 . S
C433 C432 1.369 . S
C433 C442 1.429 1_554 S
C434 C432 1.419 . S
C434 C435 1.363 1_554 S
C434 H437 0.929 . S
C435 C434 1.363 1_556 S
C435 C441 1.428 . S
H436 C432 0.930 . S
H437 C434 0.929 . S
S438 N439 1.613 . S
S438 N440 1.610 . S
N439 S438 1.613 . S
N439 C442 1.350 . S
N440 S438 1.610 . S
N440 C441 1.351 . S
C441 C435 1.428 . S
C441 N440 1.351 . S
C441 C442 1.434 . S
C442 C433 1.429 1_556 S
C442 N439 1.350 . S
C442 C441 1.434 . S
C443 C444 1.369 . S
C443 C445 1.419 1_545 S
C443 H447 0.930 . S
C444 C443 1.369 . S
C444 C453 1.429 1_556 S
C445 C443 1.419 1_565 S
C445 C446 1.363 1_556 S
C445 H448 0.929 . S
C446 C445 1.363 1_554 S
C446 C452 1.428 . S
H447 C443 0.930 . S
H448 C445 0.929 . S
S449 N450 1.613 . S
S449 N451 1.610 1_545 S
N450 S449 1.613 . S
N450 C453 1.350 . S
N451 S449 1.610 1_565 S
N451 C452 1.351 . S
C452 C446 1.428 . S
C452 N451 1.351 . S
C452 C453 1.434 1_565 S
C453 C444 1.429 1_554 S
C453 N450 1.350 . S
C453 C452 1.434 1_545 S
C454 C455 1.366 1_554 S
C454 C456 1.422 1_655 S
C454 H458 0.930 . S
C455 C454 1.366 1_556 S
C455 C464 1.429 . S
C456 C454 1.422 1_455 S
C456 C457 1.363 . S
C456 H459 0.929 . S
C457 C456 1.363 . S
C457 C463 1.427 1_554 S
H458 C454 0.930 . S
H459 C456 0.929 . S
S460 N461 1.613 1_455 S
S460 N462 1.610 . S
N461 S460 1.613 1_655 S
N461 C464 1.350 . S
N462 S460 1.610 . S
N462 C463 1.351 . S
C463 C457 1.427 1_556 S
C463 N462 1.351 . S
C463 C464 1.436 1_455 S
C464 C455 1.429 . S
C464 N461 1.350 . S
C464 C463 1.436 1_655 S
C465 C466 1.369 . S
C465 C467 1.419 . S
C465 H469 0.930 . S
C466 C465 1.369 . S
C466 C475 1.429 1_556 S
C467 C465 1.419 . S
C467 C468 1.363 1_556 S
C467 H470 0.929 . S
C468 C467 1.363 1_554 S
C468 C474 1.428 . S
H469 C465 0.930 . S
H470 C467 0.929 . S
S471 N472 1.613 . S
S471 N473 1.610 . S
N472 S471 1.613 . S
N472 C475 1.350 . S
N473 S471 1.610 . S
N473 C474 1.351 . S
C474 C468 1.428 . S
C474 N473 1.351 . S
C474 C475 1.434 . S
C475 C466 1.429 1_554 S
C475 N472 1.350 . S
C475 C474 1.434 . S
C476 C477 1.369 1_556 S
C476 C478 1.419 1_565 S
C476 H480 0.930 . S
C477 C476 1.369 1_554 S
C477 C486 1.429 . S
C478 C476 1.419 1_545 S
C478 C479 1.363 . S
C478 H481 0.929 . S
C479 C478 1.363 . S
C479 C485 1.428 1_556 S
H480 C476 0.930 . S
H481 C478 0.929 . S
S482 N483 1.613 1_545 S
S482 N484 1.610 . S
N483 S482 1.613 1_565 S
N483 C486 1.350 . S
N484 S482 1.610 . S
N484 C485 1.351 . S
C485 C479 1.428 1_554 S
C485 N484 1.351 . S
C485 C486 1.434 1_545 S
C486 C477 1.429 . S
C486 N483 1.350 . S
C486 C485 1.434 1_565 S
C487 C488 1.369 . S
C487 C489 1.419 1_655 S
C487 H491 0.930 . S
C488 C487 1.369 . S
C488 C497 1.429 1_556 S
C489 C487 1.419 1_455 S
C489 C490 1.363 1_556 S
C489 H492 0.929 . S
C490 C489 1.363 1_554 S
C490 C496 1.428 . S
H491 C487 0.930 . S
H492 C489 0.929 . S
S493 N494 1.613 . S
S493 N495 1.610 1_655 S
N494 S493 1.613 . S
N494 C497 1.350 . S
N495 S493 1.610 1_455 S
N495 C496 1.351 . S
C496 C490 1.428 . S
C496 N495 1.351 . S
C496 C497 1.434 1_455 S
C497 C488 1.429 1_554 S
C497 N494 1.350 . S
C497 C496 1.434 1_655 S
C498 C499 1.369 . S
C498 C500 1.419 . S
C498 H502 0.930 . S
C499 C498 1.369 . S
C499 C508 1.429 . S
C500 C498 1.419 . S
C500 C501 1.363 . S
C500 H503 0.929 . S
C501 C500 1.363 . S
C501 C507 1.428 . S
H502 C498 0.930 . S
H503 C500 0.929 . S
S504 N505 1.613 . S
S504 N506 1.610 . S
N505 S504 1.613 . S
N505 C508 1.350 . S
N506 S504 1.610 . S
N506 C507 1.351 . S
C507 C501 1.428 . S
C507 N506 1.351 . S
C507 C508 1.434 . S
C508 C499 1.429 . S
C508 N505 1.350 . S
C508 C507 1.434 . S
C509 C510 1.369 . S
C509 C511 1.419 . S
C509 H513 0.930 . S
C510 C509 1.369 . S
C510 C519 1.429 . S
C511 C509 1.419 . S
C511 C512 1.363 . S
C511 H514 0.929 . S
C512 C511 1.363 . S
C512 C518 1.428 . S
H513 C509 0.930 . S
H514 C511 0.929 . S
S515 N516 1.613 . S
S515 N517 1.610 . S
N516 S515 1.613 . S
N516 C519 1.350 . S
N517 S515 1.610 . S
N517 C518 1.351 . S
C518 C512 1.428 . S
C518 N517 1.351 . S
C518 C519 1.434 . S
C519 C510 1.429 . S
C519 N516 1.350 . S
C519 C518 1.434 . S
C520 C521 1.369 . S
C520 C522 1.419 . S
C520 H524 0.930 . S
C521 C520 1.369 . S
C521 C530 1.429 . S
C522 C520 1.419 . S
C522 C523 1.363 . S
C522 H525 0.929 . S
C523 C522 1.363 . S
C523 C529 1.428 . S
H524 C520 0.930 . S
H525 C522 0.929 . S
S526 N527 1.613 . S
S526 N528 1.610 . S
N527 S526 1.613 . S
N527 C530 1.350 . S
N528 S526 1.610 . S
N528 C529 1.351 . S
C529 C523 1.428 . S
C529 N528 1.351 . S
C529 C530 1.434 . S
C530 C521 1.429 . S
C530 N527 1.350 . S
C530 C529 1.434 . S
C531 C532 1.369 . S
C531 C533 1.419 . S
C531 H535 0.930 . S
C532 C531 1.369 . S
C532 C541 1.429 . S
C533 C531 1.419 . S
C533 C534 1.363 . S
C533 H536 0.929 . S
C534 C533 1.363 . S
C534 C540 1.428 . S
H535 C531 0.930 . S
H536 C533 0.929 . S
S537 N538 1.613 . S
S537 N539 1.610 . S
N538 S537 1.613 . S
N538 C541 1.350 . S
N539 S537 1.610 . S
N539 C540 1.351 . S
C540 C534 1.428 . S
C540 N539 1.351 . S
C540 C541 1.434 . S
C541 C532 1.429 . S
C541 N538 1.350 . S
C541 C540 1.434 . S
C542 C543 1.369 . S
C542 C544 1.419 . S
C542 H546 0.930 . S
C543 C542 1.369 . S
C543 C552 1.429 . S
C544 C542 1.419 . S
C544 C545 1.363 . S
C544 H547 0.929 . S
C545 C544 1.363 . S
C545 C551 1.428 . S
H546 C542 0.930 . S
H547 C544 0.929 . S
S548 N549 1.613 . S
S548 N550 1.610 . S
N549 S548 1.613 . S
N549 C552 1.350 . S
N550 S548 1.610 . S
N550 C551 1.351 . S
C551 C545 1.428 . S
C551 N550 1.351 . S
C551 C552 1.434 . S
C552 C543 1.429 . S
C552 N549 1.350 . S
C552 C551 1.434 . S
C553 C554 1.369 . S
C553 C555 1.419 . S
C553 H557 0.930 . S
C554 C553 1.369 . S
C554 C563 1.429 . S
C555 C553 1.419 . S
C555 C556 1.363 . S
C555 H558 0.929 . S
C556 C555 1.363 . S
C556 C562 1.428 . S
H557 C553 0.930 . S
H558 C555 0.929 . S
S559 N560 1.613 . S
S559 N561 1.610 . S
N560 S559 1.613 . S
N560 C563 1.350 . S
N561 S559 1.610 . S
N561 C562 1.351 . S
C562 C556 1.428 . S
C562 N561 1.351 . S
C562 C563 1.434 . S
C563 C554 1.429 . S
C563 N560 1.350 . S
C563 C562 1.434 . S
C564 C565 1.369 . S
C564 C566 1.419 . S
C564 H568 0.930 . S
C565 C564 1.369 . S
C565 C574 1.429 . S
C566 C564 1.419 . S
C566 C567 1.363 . S
C566 H569 0.929 . S
C567 C566 1.363 . S
C567 C573 1.428 . S
H568 C564 0.930 . S
H569 C566 0.929 . S
S570 N571 1.613 . S
S570 N572 1.610 . S
N571 S570 1.613 . S
N571 C574 1.350 . S
N572 S570 1.610 . S
N572 C573 1.351 . S
C573 C567 1.428 . S
C573 N572 1.351 . S
C573 C574 1.434 . S
C574 C565 1.429 . S
C574 N571 1.350 . S
C574 C573 1.434 . S
C575 C576 1.369 . S
C575 C577 1.419 . S
C575 H579 0.930 . S
C576 C575 1.369 . S
C576 C585 1.429 . S
C577 C575 1.419 . S
C577 C578 1.363 . S
C577 H580 0.929 . S
C578 C577 1.363 . S
C578 C584 1.428 . S
H579 C575 0.930 . S
H580 C577 0.929 . S
S581 N582 1.613 . S
S581 N583 1.610 . S
N582 S581 1.613 . S
N582 C585 1.350 . S
N583 S581 1.610 . S
N583 C584 1.351 . S
C584 C578 1.428 . S
C584 N583 1.351 . S
C584 C585 1.434 . S
C585 C576 1.429 . S
C585 N582 1.350 . S
C585 C584 1.434 . S
C586 C587 1.369 . S
C586 C588 1.419 . S
C586 H590 0.930 . S
C587 C586 1.369 . S
C587 C596 1.429 . S
C588 C586 1.419 . S
C588 C589 1.363 . S
C588 H591 0.929 . S
C589 C588 1.363 . S
C589 C595 1.428 . S
H590 C586 0.930 . S
H591 C588 0.929 . S
S592 N593 1.613 . S
S592 N594 1.610 . S
N593 S592 1.613 . S
N593 C596 1.350 . S
N594 S592 1.610 . S
N594 C595 1.351 . S
C595 C589 1.428 . S
C595 N594 1.351 . S
C595 C596 1.434 . S
C596 C587 1.429 . S
C596 N593 1.350 . S
C596 C595 1.434 . S
C597 C598 1.369 . S
C597 C599 1.419 . S
C597 H601 0.930 . S
C598 C597 1.369 . S
C598 C607 1.429 . S
C599 C597 1.419 . S
C599 C600 1.363 . S
C599 H602 0.929 . S
C600 C599 1.363 . S
C600 C606 1.428 . S
H601 C597 0.930 . S
H602 C599 0.929 . S
S603 N604 1.613 . S
S603 N605 1.610 . S
N604 S603 1.613 . S
N604 C607 1.350 . S
N605 S603 1.610 . S
N605 C606 1.351 . S
C606 C600 1.428 . S
C606 N605 1.351 . S
C606 C607 1.434 . S
C607 C598 1.429 . S
C607 N604 1.350 . S
C607 C606 1.434 . S
C608 C609 1.369 . S
C608 C610 1.419 . S
C608 H612 0.930 . S
C609 C608 1.369 . S
C609 C618 1.429 . S
C610 C608 1.419 . S
C610 C611 1.363 . S
C610 H613 0.929 . S
C611 C610 1.363 . S
C611 C617 1.428 . S
H612 C608 0.930 . S
H613 C610 0.929 . S
S614 N615 1.613 . S
S614 N616 1.610 . S
N615 S614 1.613 . S
N615 C618 1.350 . S
N616 S614 1.610 . S
N616 C617 1.351 . S
C617 C611 1.428 . S
C617 N616 1.351 . S
C617 C618 1.434 . S
C618 C609 1.429 . S
C618 N615 1.350 . S
C618 C617 1.434 . S
C619 C620 1.369 . S
C619 C621 1.419 . S
C619 H623 0.930 . S
C620 C619 1.369 . S
C620 C629 1.429 . S
C621 C619 1.419 . S
C621 C622 1.363 . S
C621 H624 0.929 . S
C622 C621 1.363 . S
C622 C628 1.428 . S
H623 C619 0.930 . S
H624 C621 0.929 . S
S625 N626 1.613 . S
S625 N627 1.610 . S
N626 S625 1.613 . S
N626 C629 1.350 . S
N627 S625 1.610 . S
N627 C628 1.351 . S
C628 C622 1.428 . S
C628 N627 1.351 . S
C628 C629 1.434 . S
C629 C620 1.429 . S
C629 N626 1.350 . S
C629 C628 1.434 . S
C235 C221 1.749 . S
C237 C0 1.749 . S
C246 C195 1.749 . S
C248 C13 1.750 . S
C257 C208 1.746 . S
C259 C26 1.747 . S
C268 C91 1.747 . S
C270 C39 1.747 . S
C279 C104 1.746 . S
C281 C52 1.747 . S
C290 C65 1.751 . S
C292 C78 1.750 . S
C301 C117 1.751 . S
C303 C169 1.751 . S
C312 C130 1.747 . S
C314 C182 1.747 . S
C323 C143 1.749 . S
C325 C156 1.750 . S
C334 C5 1.016 . S
C336 C226 1.024 . S
C345 C200 1.018 . S
C347 C18 1.019 . S
C356 C31 1.021 . S
C358 C213 1.022 . S
C367 C96 1.015 . S
C369 C44 1.024 . S
C378 C57 1.024 . S
C380 C109 1.019 . S
C389 C70 1.017 . S
C391 C83 1.024 . S
C400 C122 1.021 . S
C402 C174 1.022 . S
C411 C187 1.025 . S
C413 C135 1.016 . S
C422 C161 1.018 . S
C424 C148 1.019 . S
C433 C10 1.480 . S
C435 C49 1.483 . S
C444 C62 1.482 . S
C446 C23 1.482 . S
C455 C75 1.484 . S
C457 C36 1.484 . S
C466 C73 1.433 . S
C468 C21 1.442 . S
C477 C34 1.440 . S
C479 C47 1.438 . S
C488 C60 1.434 . S
C490 C8 1.442 . S
C499 C88 1.484 . S
C501 C127 1.484 . S
C510 C140 1.485 . S
C512 C101 1.481 . S
C521 C153 1.485 . S
C523 C114 1.483 . S
C532 C151 1.440 . S
C534 C99 1.438 . S
C543 C112 1.441 . S
C545 C125 1.433 . S
C554 C138 1.443 . S
C556 C86 1.434 . S
C565 C205 1.485 . S
C567 C166 1.483 . S
C576 C218 1.481 . S
C578 C179 1.485 . S
C587 C192 1.482 . S
C589 C231 1.485 . S
C598 C229 1.433 . S
C600 C177 1.442 . S
C609 C190 1.431 . S
C611 C203 1.441 . S
C620 C216 1.440 . S
C622 C164 1.434 . S
