# Generated by pormake.
# Topology smu, (6)-cn, num edge types: 1
# Building blocks:
#     Node 0, Type 0, BuildingBlock: HISSIN_clean_sbu_0, # of connection points: 6
#     Node 1, Type 0, BuildingBlock: HISSIN_clean_sbu_0, # of connection points: 6
#     Node 2, Type 0, BuildingBlock: HISSIN_clean_sbu_0, # of connection points: 6
#     Node 3, Type 0, BuildingBlock: HISSIN_clean_sbu_0, # of connection points: 6
#     Node 4, Type 0, BuildingBlock: HISSIN_clean_sbu_0, # of connection points: 6
#     Node 5, Type 0, BuildingBlock: HISSIN_clean_sbu_0, # of connection points: 6
#     Edge 6, Type (0, 0), BuildingBlock: ZUJKAS_clean_linker_0, # of connection points: 2
#     Edge 7, Type (0, 0), BuildingBlock: ZUJKAS_clean_linker_0, # of connection points: 2
#     Edge 8, Type (0, 0), BuildingBlock: ZUJKAS_clean_linker_0, # of connection points: 2
#     Edge 9, Type (0, 0), BuildingBlock: ZUJKAS_clean_linker_0, # of connection points: 2
#     Edge 10, Type (0, 0), BuildingBlock: ZUJKAS_clean_linker_0, # of connection points: 2
#     Edge 11, Type (0, 0), BuildingBlock: ZUJKAS_clean_linker_0, # of connection points: 2
#     Edge 12, Type (0, 0), BuildingBlock: ZUJKAS_clean_linker_0, # of connection points: 2
#     Edge 13, Type (0, 0), BuildingBlock: ZUJKAS_clean_linker_0, # of connection points: 2
#     Edge 14, Type (0, 0), BuildingBlock: ZUJKAS_clean_linker_0, # of connection points: 2
#     Edge 15, Type (0, 0), BuildingBlock: ZUJKAS_clean_linker_0, # of connection points: 2
#     Edge 16, Type (0, 0), BuildingBlock: ZUJKAS_clean_linker_0, # of connection points: 2
#     Edge 17, Type (0, 0), BuildingBlock: ZUJKAS_clean_linker_0, # of connection points: 2
#     Edge 18, Type (0, 0), BuildingBlock: ZUJKAS_clean_linker_0, # of connection points: 2
#     Edge 19, Type (0, 0), BuildingBlock: ZUJKAS_clean_linker_0, # of connection points: 2
#     Edge 20, Type (0, 0), BuildingBlock: ZUJKAS_clean_linker_0, # of connection points: 2
#     Edge 21, Type (0, 0), BuildingBlock: ZUJKAS_clean_linker_0, # of connection points: 2
#     Edge 22, Type (0, 0), BuildingBlock: ZUJKAS_clean_linker_0, # of connection points: 2
#     Edge 23, Type (0, 0), BuildingBlock: ZUJKAS_clean_linker_0, # of connection points: 2
# Relax obj value: 0.212
# Max RMSD: 0.299
# Mean RMSD: 0.299
data_MOF--net-smu--node1-HISSIN_clean_sbu_0--edge1-ZUJKAS_clean_linker_0
_symmetry_space_group_name_H-M    P1
_symmetry_Int_Tables_number       1
_symmetry_cell_setting            triclinic
loop_
_symmetry_equiv_pos_as_xyz
'x, y, z'
_cell_length_a     48.478854
_cell_length_b     48.429836
_cell_length_c     36.508044
_cell_angle_alpha  90.057105
_cell_angle_beta   90.093662
_cell_angle_gamma 119.99935
loop_
_atom_site_label
_atom_site_type_symbol
_atom_site_fract_x
_atom_site_fract_y
_atom_site_fract_z
_atom_type_partial_charge
Eu0 Eu 0.31801 0.11166 0.26701 0.0
Eu1 Eu 0.37096 0.08792 0.26193 0.0
C2 C 0.33265 0.08832 0.19101 0.0
C3 C 0.25292 0.13958 0.27089 0.0
C4 C 0.23575 0.13424 0.2381 0.0
C5 C 0.2215 0.16031 0.29862 0.0
C6 C 0.21176 0.14228 0.23555 0.0
C7 C 0.24511 0.15201 0.30121 0.0
C8 C 0.20484 0.15609 0.2656 0.0
C9 C 0.28203 0.1373 0.27318 0.0
O10 O 0.39692 0.13973 0.27973 0.0
O11 O 0.36442 0.1534 0.25018 0.0
C12 C 0.39174 0.16153 0.26544 0.0
O13 O 0.33211 0.10638 0.32503 0.0
O14 O 0.40212 0.07552 0.2312 0.0
O15 O 0.40444 0.07794 0.29047 0.0
O16 O 0.34331 0.06684 0.31298 0.0
C17 C 0.33363 0.08116 0.33554 0.0
O18 O 0.28727 0.05868 0.26753 0.0
O19 O 0.32358 0.04207 0.25317 0.0
O20 O 0.36121 0.09734 0.2042 0.0
O21 O 0.28559 0.12115 0.2995 0.0
O22 O 0.29718 0.13832 0.2433 0.0
O23 O 0.31038 0.08825 0.21161 0.0
C24 C 0.45249 0.09184 0.25902 0.0
C25 C 0.47137 0.11765 0.28241 0.0
C26 C 0.50068 0.09494 0.23481 0.0
C27 C 0.50462 0.1317 0.28226 0.0
C28 C 0.46749 0.0809 0.23503 0.0
C29 C 0.51972 0.12033 0.25868 0.0
C30 C 0.41727 0.0749 0.2605 0.0
C31 C 0.29432 0.03644 0.25946 0.0
H32 H 0.24151 0.12484 0.2142 0.0
H33 H 0.21746 0.17145 0.32213 0.0
H34 H 0.1991 0.13826 0.20986 0.0
H35 H 0.25843 0.15683 0.32656 0.0
H36 H 0.46048 0.12676 0.30112 0.0
H37 H 0.51132 0.08525 0.21659 0.0
H38 H 0.51849 0.1515 0.30061 0.0
H39 H 0.45345 0.06099 0.21687 0.0
Eu40 Eu 0.8077 0.70169 0.26695 0.0
Eu41 Eu 0.73129 0.64863 0.26838 0.0
C42 C 0.76418 0.68575 0.19333 0.0
C43 C 0.90054 0.76606 0.26191 0.0
C44 C 0.91421 0.77169 0.22688 0.0
C45 C 0.9506 0.80818 0.28647 0.0
C46 C 0.9461 0.7952 0.22185 0.0
C47 C 0.91881 0.78498 0.29138 0.0
C48 C 0.96489 0.81319 0.25181 0.0
C49 C 0.86942 0.73796 0.2701 0.0
O50 O 0.75835 0.62375 0.25246 0.0
O51 O 0.80041 0.6551 0.28832 0.0
C52 C 0.78368 0.62848 0.27043 0.0
O53 O 0.78996 0.70941 0.32064 0.0
O54 O 0.68621 0.61696 0.24064 0.0
O55 O 0.68942 0.61513 0.29953 0.0
O56 O 0.74713 0.65933 0.32744 0.0
C57 C 0.76694 0.68775 0.3407 0.0
O58 O 0.78481 0.73046 0.25333 0.0
O59 O 0.73373 0.69663 0.27505 0.0
O60 O 0.73832 0.67106 0.21327 0.0
O61 O 0.84991 0.74123 0.29179 0.0
O62 O 0.85499 0.71535 0.24575 0.0
O63 O 0.7928 0.69488 0.20686 0.0
C64 C 0.65428 0.56656 0.26862 0.0
C65 C 0.6603 0.54779 0.29313 0.0
C66 C 0.61125 0.51809 0.24161 0.0
C67 C 0.64162 0.51449 0.29221 0.0
C68 C 0.6299 0.55135 0.24258 0.0
C69 C 0.61655 0.4992 0.26675 0.0
C70 C 0.67211 0.60184 0.27049 0.0
C71 C 0.75639 0.72473 0.26329 0.0
H72 H 0.90066 0.75727 0.20371 0.0
H73 H 0.96432 0.82104 0.31034 0.0
H74 H 0.95622 0.79878 0.19466 0.0
H75 H 0.90894 0.78072 0.31878 0.0
H76 H 0.67916 0.55879 0.31332 0.0
H77 H 0.59204 0.50728 0.22184 0.0
H78 H 0.64679 0.50072 0.31153 0.0
H79 H 0.62483 0.56528 0.22335 0.0
Eu80 Eu 0.90733 0.21185 0.26253 0.0
Eu81 Eu 0.93089 0.28842 0.26077 0.0
C82 C 0.93352 0.25246 0.1883 0.0
C83 C 0.87881 0.1192 0.27079 0.0
C84 C 0.89497 0.10679 0.25086 0.0
C85 C 0.84646 0.06733 0.29912 0.0
C86 C 0.88636 0.07476 0.2543 0.0
C87 C 0.85509 0.09938 0.29569 0.0
C88 C 0.86129 0.05444 0.27757 0.0
C89 C 0.88191 0.15003 0.26026 0.0
O90 O 0.87873 0.26184 0.2759 0.0
O91 O 0.86765 0.21873 0.24159 0.0
C92 C 0.85797 0.2359 0.25888 0.0
O93 O 0.9157 0.22674 0.32262 0.0
O94 O 0.93916 0.33035 0.22953 0.0
O95 O 0.94547 0.33381 0.28821 0.0
O96 O 0.94571 0.28133 0.31625 0.0
C97 C 0.93482 0.25546 0.33619 0.0
O98 O 0.95882 0.23474 0.27674 0.0
O99 O 0.97617 0.28546 0.25379 0.0
O100 O 0.92557 0.27267 0.20175 0.0
O101 O 0.87222 0.16458 0.28252 0.0
O102 O 0.90584 0.16957 0.23988 0.0
O103 O 0.93184 0.22916 0.20821 0.0
C104 C 0.92668 0.36604 0.26069 0.0
C105 C 0.92109 0.37609 0.29466 0.0
C106 C 0.90335 0.39434 0.23023 0.0
C107 C 0.90698 0.39519 0.29636 0.0
C108 C 0.9174 0.37521 0.22854 0.0
C109 C 0.8983 0.40493 0.26413 0.0
C110 C 0.94386 0.34787 0.25855 0.0
C111 C 0.98157 0.2629 0.26615 0.0
H112 H 0.91313 0.12134 0.23112 0.0
H113 H 0.82687 0.05228 0.31705 0.0
H114 H 0.8986 0.06565 0.23777 0.0
H115 H 0.84185 0.1081 0.31097 0.0
H116 H 0.92803 0.36961 0.32 0.0
H117 H 0.8974 0.40166 0.20481 0.0
H118 H 0.90302 0.40244 0.32299 0.0
H119 H 0.92161 0.36816 0.20191 0.0
Eu120 Eu 0.09213 0.36919 0.76045 0.0
Eu121 Eu 0.11526 0.31509 0.76284 0.0
C122 C 0.08643 0.33048 0.8356 0.0
C123 C 0.09561 0.45069 0.76006 0.0
C124 C 0.10055 0.46675 0.79367 0.0
C125 C 0.11959 0.50198 0.72882 0.0
C126 C 0.11469 0.49998 0.79482 0.0
C127 C 0.1055 0.46874 0.72767 0.0
C128 C 0.12404 0.51803 0.76238 0.0
C129 C 0.07858 0.41527 0.7587 0.0
O130 O 0.06303 0.28629 0.77273 0.0
O131 O 0.04692 0.32129 0.75166 0.0
C132 C 0.04096 0.2926 0.76176 0.0
O133 O 0.09889 0.3596 0.70154 0.0
O134 O 0.14634 0.29899 0.78629 0.0
O135 O 0.11871 0.2764 0.73703 0.0
O136 O 0.09246 0.30968 0.70759 0.0
C137 C 0.09128 0.3316 0.68774 0.0
O138 O 0.14458 0.39588 0.77445 0.0
O139 O 0.15725 0.36171 0.74639 0.0
O140 O 0.10468 0.31982 0.82236 0.0
O141 O 0.08208 0.40183 0.72949 0.0
O142 O 0.07845 0.40038 0.78844 0.0
O143 O 0.07697 0.34683 0.81582 0.0
C144 C 0.14093 0.24848 0.76842 0.0
C145 C 0.13012 0.22415 0.74195 0.0
C146 C 0.16703 0.22391 0.80068 0.0
C147 C 0.13842 0.20045 0.74429 0.0
C148 C 0.15868 0.2476 0.79837 0.0
C149 C 0.15788 0.2007 0.77302 0.0
C150 C 0.13943 0.27759 0.76072 0.0
C151 C 0.16574 0.38944 0.76098 0.0
H152 H 0.09311 0.45362 0.81916 0.0
H153 H 0.12611 0.515 0.70324 0.0
H154 H 0.11819 0.51151 0.82122 0.0
H155 H 0.1018 0.45716 0.70128 0.0
H156 H 0.11672 0.22437 0.71829 0.0
H157 H 0.18228 0.22499 0.82301 0.0
H158 H 0.13053 0.18258 0.72287 0.0
H159 H 0.16777 0.26627 0.8189 0.0
Eu160 Eu 0.29281 0.92935 0.76749 0.0
Eu161 Eu 0.21687 0.90739 0.7643 0.0
C162 C 0.25672 0.93074 0.83984 0.0
C163 C 0.36949 0.92367 0.76847 0.0
C164 C 0.37244 0.90911 0.80039 0.0
C165 C 0.40343 0.9078 0.73642 0.0
C166 C 0.39092 0.89432 0.80037 0.0
C167 C 0.38499 0.92262 0.73645 0.0
C168 C 0.40697 0.8938 0.76851 0.0
C169 C 0.35185 0.94138 0.76853 0.0
O170 O 0.24141 0.95916 0.75137 0.0
O171 O 0.29107 0.97507 0.77631 0.0
C172 C 0.26922 0.98128 0.76357 0.0
O173 O 0.2867 0.94691 0.71332 0.0
O174 O 0.17532 0.90829 0.78604 0.0
O175 O 0.17012 0.87704 0.73952 0.0
O176 O 0.23292 0.9144 0.70477 0.0
C177 C 0.26141 0.9351 0.69228 0.0
O178 O 0.2651 0.8771 0.75219 0.0
O179 O 0.22066 0.86559 0.78425 0.0
O180 O 0.23396 0.93015 0.81974 0.0
O181 O 0.33642 0.93995 0.7387 0.0
O182 O 0.33595 0.94008 0.79789 0.0
O183 O 0.27658 0.92241 0.82624 0.0
C184 C 0.12214 0.87608 0.76072 0.0
C185 C 0.10522 0.86436 0.72784 0.0
C186 C 0.07345 0.86583 0.79104 0.0
C187 C 0.0726 0.85345 0.72653 0.0
C188 C 0.10613 0.87701 0.79224 0.0
C189 C 0.05637 0.85381 0.7582 0.0
C190 C 0.1564 0.88741 0.76203 0.0
C191 C 0.23878 0.85627 0.76847 0.0
H192 H 0.36082 0.90946 0.82555 0.0
H193 H 0.4157 0.90819 0.71149 0.0
H194 H 0.39272 0.88334 0.82541 0.0
H195 H 0.38337 0.93381 0.71149 0.0
H196 H 0.11721 0.86367 0.70313 0.0
H197 H 0.06156 0.86668 0.81575 0.0
H198 H 0.05998 0.84411 0.70093 0.0
H199 H 0.11878 0.88603 0.8179 0.0
Eu200 Eu 0.65275 0.72845 0.76408 0.0
Eu201 Eu 0.70573 0.8056 0.76879 0.0
C202 C 0.69085 0.75945 0.83737 0.0
C203 C 0.57117 0.65059 0.76362 0.0
C204 C 0.55506 0.63291 0.79476 0.0
C205 C 0.52 0.63023 0.73268 0.0
C206 C 0.52188 0.61398 0.79487 0.0
C207 C 0.55327 0.64931 0.73264 0.0
C208 C 0.50391 0.612 0.76367 0.0
C209 C 0.60648 0.66904 0.76381 0.0
O210 O 0.73617 0.78368 0.76054 0.0
O211 O 0.69964 0.72931 0.75586 0.0
C212 C 0.72899 0.75388 0.75599 0.0
O213 O 0.66201 0.74627 0.70585 0.0
O214 O 0.74667 0.84617 0.79505 0.0
O215 O 0.71859 0.85406 0.75424 0.0
O216 O 0.71129 0.79143 0.71145 0.0
C217 C 0.68955 0.76758 0.69182 0.0
O218 O 0.62657 0.75411 0.78153 0.0
O219 O 0.65913 0.80111 0.7533 0.0
O220 O 0.69275 0.78632 0.8268 0.0
O221 O 0.62113 0.68456 0.73422 0.0
O222 O 0.61992 0.68521 0.79351 0.0
O223 O 0.68141 0.73559 0.8146 0.0
C224 C 0.77096 0.89771 0.7662 0.0
C225 C 0.77075 0.91388 0.73432 0.0
C226 C 0.81859 0.94565 0.78673 0.0
C227 C 0.79366 0.94593 0.72932 0.0
C228 C 0.79566 0.91363 0.79176 0.0
C229 C 0.81717 0.96244 0.75609 0.0
C230 C 0.74284 0.8671 0.7766 0.0
C231 C 0.63186 0.78146 0.76826 0.0
H232 H 0.5682 0.63344 0.81904 0.0
H233 H 0.507 0.62909 0.70805 0.0
H234 H 0.51032 0.60081 0.81947 0.0
H235 H 0.56493 0.66263 0.70815 0.0
H236 H 0.75196 0.90234 0.71413 0.0
H237 H 0.83624 0.95773 0.80799 0.0
H238 H 0.79228 0.95811 0.70512 0.0
H239 H 0.79615 0.9019 0.8168 0.0
H240 H 0.21886 0.94713 0.87905 0.0
H241 H 0.23087 0.97504 0.93792 0.0
H242 H 0.31972 0.97507 0.9435 0.0
H243 H 0.30813 0.94745 0.88458 0.0
H244 H 0.24266 0.95695 1.00648 0.0
H245 H 0.34734 0.0691 0.95877 0.0
H246 H 0.31958 0.03914 0.92749 0.0
H247 H 0.34989 0.03403 0.94963 0.0
C248 C 0.24085 0.95282 0.89291 0.0
C249 C 0.26241 0.94478 0.87715 0.0
C250 C 0.24771 0.96888 0.92651 0.0
C251 C 0.27639 0.97756 0.94483 0.0
C252 C 0.29769 0.96909 0.92954 0.0
H253 H 0.36927 0.0758 0.14451 0.0
H254 H 0.3538 0.04819 0.08569 0.0
C255 C 0.29082 0.95293 0.89602 0.0
C256 C 0.28383 0.99499 0.98023 0.0
H257 H 0.33842 0.06361 0.02287 0.0
C258 C 0.26349 0.98036 1.0101 0.0
C259 C 0.311 0.02553 0.98481 0.0
C260 C 0.33307 0.04305 0.95341 0.0
C261 C 0.27015 0.99494 0.0448 0.0
C262 C 0.29751 0.02543 0.0495 0.0
C263 C 0.31753 0.04023 0.01938 0.0
C264 C 0.30646 0.04221 0.08547 0.0
C265 C 0.24836 0.97694 0.07625 0.0
C266 C 0.28523 0.0486 0.10481 0.0
C267 C 0.29396 0.06426 0.13869 0.0
C268 C 0.32434 0.0744 0.15363 0.0
C269 C 0.3458 0.06865 0.13375 0.0
C270 C 0.33694 0.05272 0.10011 0.0
H271 H 0.23457 0.95089 0.07072 0.0
H272 H 0.26195 0.98093 0.10211 0.0
H273 H 0.23104 0.98531 0.08024 0.0
H274 H 0.26189 0.04152 0.09372 0.0
H275 H 0.27676 0.06813 0.15331 0.0
H276 H 0.74214 0.80706 0.65056 0.0
H277 H 0.75659 0.79599 0.59025 0.0
H278 H 0.67124 0.70374 0.58935 0.0
H279 H 0.65604 0.71502 0.64854 0.0
H280 H 0.76942 0.75158 0.5677 0.0
H281 H 0.66348 0.73493 0.49144 0.0
H282 H 0.67224 0.75083 0.53735 0.0
H283 H 0.65258 0.70839 0.5297 0.0
C284 C 0.72608 0.78471 0.63713 0.0
C285 C 0.69747 0.76233 0.65407 0.0
C286 C 0.7345 0.77831 0.60275 0.0
C287 C 0.71459 0.74936 0.58467 0.0
C288 C 0.68643 0.72674 0.60195 0.0
H289 H 0.71795 0.65197 0.38784 0.0
H290 H 0.70696 0.66834 0.44685 0.0
C291 C 0.67779 0.73325 0.63599 0.0
C292 C 0.72356 0.74227 0.5483 0.0
H293 H 0.69526 0.71654 0.46178 0.0
C294 C 0.75333 0.74423 0.54444 0.0
C295 C 0.70263 0.73272 0.51781 0.0
C296 C 0.67111 0.73191 0.51915 0.0
C297 C 0.76224 0.73584 0.51144 0.0
C298 C 0.74095 0.72555 0.48131 0.0
C299 C 0.71146 0.72415 0.48496 0.0
C300 C 0.74845 0.71561 0.44589 0.0
C301 C 0.79398 0.73716 0.50957 0.0
C302 C 0.77529 0.73682 0.42551 0.0
C303 C 0.78181 0.72742 0.39188 0.0
C304 C 0.76145 0.69669 0.37776 0.0
C305 C 0.73445 0.67559 0.39814 0.0
C306 C 0.72801 0.685 0.43179 0.0
H307 H 0.80337 0.73693 0.53729 0.0
H308 H 0.7922 0.71681 0.49358 0.0
H309 H 0.8115 0.75958 0.49586 0.0
H310 H 0.79094 0.76085 0.43527 0.0
H311 H 0.80253 0.74452 0.37668 0.0
H312 H 0.94769 0.30218 0.14188 0.0
H313 H 0.97426 0.31295 0.08254 0.0
H314 H 0.98009 0.22727 0.09218 0.0
H315 H 0.95286 0.21588 0.15115 0.0
H316 H 0.03266 0.32381 0.06592 0.0
H317 H 0.94337 0.21625 0.99085 0.0
H318 H 0.9353 0.22729 0.03506 0.0
H319 H 0.95802 0.20726 0.03164 0.0
C320 C 0.95402 0.28525 0.1311 0.0
C321 C 0.94754 0.25783 0.15106 0.0
C322 C 0.96944 0.29157 0.09723 0.0
C323 C 0.97864 0.27061 0.08247 0.0
C324 C 0.97245 0.24335 0.10244 0.0
H325 H 0.08013 0.28115 0.87898 0.0
H326 H 0.0549 0.26577 0.93959 0.0
C327 C 0.95694 0.23694 0.13629 0.0
C328 C 0.99566 0.27801 0.04679 0.0
H329 H 0.99224 0.24932 0.96026 0.0
C330 C 0.02377 0.3075 0.04283 0.0
C331 C 0.98417 0.25669 0.01664 0.0
C332 C 0.95341 0.22524 0.01855 0.0
C333 C 0.04066 0.31628 1.0097 0.0
C334 C 0.02901 0.29514 0.97947 0.0
C335 C 1.00122 0.26541 0.98352 0.0
C336 C 0.0445 0.30426 0.94297 0.0
C337 C 0.07096 0.34813 1.00742 0.0
C338 C 0.04664 0.33068 0.92464 0.0
C339 C 0.06109 0.33955 0.89034 0.0
C340 C 0.07366 0.32212 0.87338 0.0
C341 C 0.07134 0.29548 0.89164 0.0
C342 C 0.05668 0.28651 0.92609 0.0
H343 H 0.08146 0.35706 0.03496 0.0
H344 H 0.08896 0.34667 0.99003 0.0
H345 H 0.06556 0.36584 0.9951 0.0
H346 H 0.03679 0.34431 0.93671 0.0
H347 H 0.06214 0.36001 0.87695 0.0
H348 H 0.32788 0.10884 0.39921 0.0
H349 H 0.31325 0.08401 0.46018 0.0
H350 H 0.29729 0.99514 0.41402 0.0
H351 H 0.31337 0.01995 0.3543 0.0
H352 H 0.26326 0.03704 0.49058 0.0
H353 H 0.35724 1.00435 0.49224 0.0
H354 H 0.35508 0.02899 0.45676 0.0
H355 H 0.33121 0.9861 0.45398 0.0
C356 C 0.32144 0.08409 0.40229 0.0
C357 C 0.32266 0.06667 0.37218 0.0
C358 C 0.313 0.06987 0.43705 0.0
C359 C 0.30526 0.03794 0.44205 0.0
C360 C 0.3045 0.02012 0.4114 0.0
H361 H 0.21542 0.92446 0.64034 0.0
H362 H 0.22402 0.9492 0.57959 0.0
C363 C 0.31355 0.03439 0.37709 0.0
C364 C 0.29814 0.02307 0.47907 0.0
H365 H 0.31616 0.97886 0.53672 0.0
C366 C 0.27505 0.02459 0.50086 0.0
C367 C 0.31378 1.00711 0.49283 0.0
C368 C 0.34093 1.00686 0.47285 0.0
C369 C 0.26703 0.01042 0.53577 0.0
C370 C 0.28156 0.99314 0.54863 0.0
C371 C 0.30464 0.9917 0.52679 0.0
C372 C 0.27525 0.97819 0.58557 0.0
C373 C 0.24382 0.01499 0.55883 0.0
C374 C 0.30109 0.98547 0.60879 0.0
C375 C 0.29634 0.97081 0.64277 0.0
C376 C 0.26553 0.94855 0.65484 0.0
C377 C 0.23948 0.94125 0.63176 0.0
C378 C 0.24434 0.95577 0.59725 0.0
H379 H 0.2422 0.03604 0.54976 0.0
H380 H 0.21978 0.99366 0.55614 0.0
H381 H 0.25078 0.01814 0.58818 0.0
H382 H 0.32516 1.00265 0.60059 0.0
H383 H 0.31708 0.97728 0.6597 0.0
H384 H 0.6858 0.70548 0.86661 0.0
H385 H 0.70219 0.69796 0.92688 0.0
H386 H 0.73507 0.79641 0.95343 0.0
H387 H 0.71807 0.80417 0.89269 0.0
H388 H 0.76046 0.72601 0.95864 0.0
H389 H 0.67736 0.74934 0.03967 0.0
H390 H 0.67374 0.74338 0.99074 0.0
H391 H 0.70301 0.78117 1.00949 0.0
C392 C 0.69628 0.72564 0.88521 0.0
C393 C 0.70024 0.75543 0.87485 0.0
C394 C 0.7058 0.72125 0.91972 0.0
C395 C 0.71954 0.74647 0.94488 0.0
C396 C 0.72393 0.77642 0.93468 0.0
H397 H 0.81042 0.72792 0.14601 0.0
H398 H 0.80208 0.74549 0.08601 0.0
C399 C 0.71426 0.78085 0.89997 0.0
C400 C 0.72909 0.74092 0.98163 0.0
H401 H 0.71356 0.73979 0.07298 0.0
C402 C 0.75041 0.72926 0.9837 0.0
C403 C 0.71547 0.74454 0.01421 0.0
C404 C 0.69089 0.755 0.0136 0.0
C405 C 0.75823 0.72084 0.01736 0.0
C406 C 0.74507 0.72503 0.05003 0.0
C407 C 0.72399 0.737 0.04798 0.0
C408 C 0.75082 0.71484 0.0863 0.0
C409 C 0.77941 0.70626 0.01744 0.0
C410 C 0.72484 0.69221 0.10665 0.0
C411 C 0.72951 0.68228 0.14077 0.0
C412 C 0.76034 0.69473 0.15556 0.0
C413 C 0.78645 0.71741 0.13516 0.0
C414 C 0.7817 0.72749 0.10088 0.0
H415 H 0.78084 0.69728 0.9899 0.0
H416 H 0.80385 0.72463 0.02573 0.0
H417 H 0.7707 0.68622 0.0372 0.0
H418 H 0.7008 0.68213 0.09607 0.0
H419 H 0.70873 0.66496 0.15569 0.0
H420 H 0.96591 0.31069 0.37496 0.0
H421 H 0.99193 0.31962 0.43418 0.0
H422 H 0.9597 0.21922 0.44302 0.0
H423 H 0.934 0.21003 0.38263 0.0
H424 H 0.96585 0.29597 0.50047 0.0
H425 H 0.05438 0.25915 0.46555 0.0
H426 H 0.03155 0.26567 0.43103 0.0
H427 H 0.01353 0.22952 0.45736 0.0
C428 C 0.96417 0.29034 0.38937 0.0
C429 C 0.94763 0.25954 0.37401 0.0
C430 C 0.97917 0.29557 0.42332 0.0
C431 C 0.97816 0.27021 0.44291 0.0
C432 C 0.96128 0.23926 0.42809 0.0
H433 H 0.06611 0.27365 0.65329 0.0
H434 H 0.0374 0.25778 0.59514 0.0
C435 C 0.94619 0.23396 0.39384 0.0
C436 C 0.99408 0.27663 0.47927 0.0
H437 H 0.05393 0.27475 0.52668 0.0
C438 C 0.98505 0.29123 0.50625 0.0
C439 C 0.01907 0.27037 0.48682 0.0
C440 C 0.03047 0.25556 0.45862 0.0
C441 C 1.00026 0.2998 0.5405 0.0
C442 C 0.02587 0.29436 0.54779 0.0
C443 C 0.03447 0.27912 0.52107 0.0
C444 C 0.04416 0.30446 0.58278 0.0
C445 C 0.98824 0.31411 0.56863 0.0
C446 C 0.05834 0.33623 0.59492 0.0
C447 C 0.07446 0.34535 0.6285 0.0
C448 C 0.07737 0.32303 0.65033 0.0
C449 C 0.06434 0.29154 0.63732 0.0
C450 C 0.04785 0.28236 0.604 0.0
H451 H 0.96297 0.3071 0.56346 0.0
H452 H 0.99023 0.30669 0.59681 0.0
H453 H 1.00253 0.34049 0.56701 0.0
H454 H 0.05676 0.35401 0.57855 0.0
H455 H 0.08421 0.36978 0.63756 0.0
H456 H 0.55971 0.14029 0.31844 0.0
H457 H 0.6174 0.1621 0.31946 0.0
H458 H 0.61727 0.152 0.20211 0.0
H459 H 0.55993 0.13159 0.20059 0.0
H460 H 0.65195 0.13451 0.29808 0.0
H461 H 0.68744 0.24339 0.21595 0.0
H462 H 0.64794 0.21972 0.23464 0.0
H463 H 0.65888 0.20743 0.19323 0.0
C464 C 0.57199 0.14327 0.29273 0.0
C465 C 0.55504 0.1343 0.25939 0.0
C466 C 0.60498 0.15549 0.29342 0.0
C467 C 0.6218 0.15916 0.26082 0.0
C468 C 0.60497 0.15005 0.22755 0.0
H469 H 0.80856 0.17823 0.23728 0.0
H470 H 0.75167 0.16007 0.23898 0.0
C471 C 0.57204 0.13797 0.2268 0.0
C472 C 0.65677 0.17165 0.26171 0.0
H473 H 0.72769 0.22989 0.22719 0.0
C474 C 0.66852 0.15548 0.28275 0.0
C475 C 0.67848 0.19922 0.24203 0.0
C476 C 0.66764 0.21866 0.22047 0.0
C477 C 0.70123 0.16572 0.28404 0.0
C478 C 0.72278 0.19259 0.26328 0.0
C479 C 0.71113 0.20915 0.24285 0.0
C480 C 0.75746 0.20379 0.2622 0.0
C481 C 0.71245 0.14788 0.30799 0.0
C482 C 0.7798 0.23475 0.27383 0.0
C483 C 0.81249 0.24531 0.27279 0.0
C484 C 0.82346 0.22523 0.25962 0.0
C485 C 0.801 0.19439 0.24752 0.0
C486 C 0.76838 0.18382 0.24876 0.0
H487 H 0.69474 0.13391 0.32951 0.0
H488 H 0.71595 0.13095 0.29085 0.0
H489 H 0.73549 0.16447 0.32143 0.0
H490 H 0.77191 0.25065 0.28405 0.0
H491 H 0.82914 0.26922 0.28218 0.0
H492 H 0.59378 0.45969 0.32642 0.0
H493 H 0.55813 0.402 0.32717 0.0
H494 H 0.55364 0.40104 0.20917 0.0
H495 H 0.59052 0.4585 0.20805 0.0
H496 H 0.49769 0.36755 0.3029 0.0
H497 H 0.57334 0.3306 0.22801 0.0
H498 H 0.58864 0.37047 0.24564 0.0
H499 H 0.5668 0.35877 0.20318 0.0
C500 C 0.58581 0.44718 0.30055 0.0
C501 C 0.59534 0.46385 0.26715 0.0
C502 C 0.56516 0.41418 0.30106 0.0
C503 C 0.55359 0.39705 0.26822 0.0
C504 C 0.56281 0.41358 0.23485 0.0
H505 H 0.38542 0.21179 0.24316 0.0
H506 H 0.42506 0.26824 0.24481 0.0
C507 C 0.5836 0.44657 0.23429 0.0
C508 C 0.531 0.36209 0.26904 0.0
H509 H 0.51912 0.29059 0.23706 0.0
C510 C 0.50249 0.35072 0.2887 0.0
C511 C 0.5374 0.34005 0.2509 0.0
C512 C 0.56834 0.35051 0.23104 0.0
C513 C 0.47996 0.31804 0.29012 0.0
C514 C 0.48578 0.29613 0.27072 0.0
C515 C 0.51457 0.3074 0.2517 0.0
C516 C 0.46199 0.26153 0.26923 0.0
C517 C 0.4503 0.30731 0.31277 0.0
C518 C 0.46982 0.23873 0.28126 0.0
C519 C 0.44715 0.20613 0.28008 0.0
C520 C 0.41634 0.19582 0.26655 0.0
C521 C 0.40885 0.21878 0.25393 0.0
C522 C 0.43144 0.2512 0.2551 0.0
H523 H 0.45395 0.32504 0.33434 0.0
H524 H 0.43067 0.30466 0.29473 0.0
H525 H 0.44276 0.284 0.32607 0.0
H526 H 0.49339 0.24618 0.29194 0.0
H527 H 0.45374 0.18908 0.28975 0.0
H528 H 0.85116 0.40424 0.22146 0.0
H529 H 0.83184 0.4422 0.22215 0.0
H530 H 0.89517 0.49268 0.3119 0.0
H531 H 0.91568 0.45578 0.31039 0.0
H532 H 0.80257 0.45698 0.27793 0.0
H533 H 0.91657 0.56394 0.23895 0.0
H534 H 0.91003 0.52399 0.23438 0.0
H535 H 0.91929 0.54333 0.27838 0.0
C536 C 0.86129 0.42362 0.24109 0.0
C537 C 0.88519 0.42699 0.26571 0.0
C538 C 0.85004 0.44518 0.2416 0.0
C539 C 0.86246 0.47061 0.26663 0.0
C540 C 0.88572 0.47364 0.29181 0.0
H541 H 0.83213 0.6294 0.30969 0.0
H542 H 0.84982 0.59028 0.30885 0.0
C543 C 0.89709 0.45219 0.29124 0.0
C544 C 0.85071 0.49367 0.26673 0.0
H545 H 0.87455 0.57257 0.25678 0.0
C546 C 0.81824 0.48225 0.27317 0.0
C547 C 0.87124 0.52664 0.26062 0.0
C548 C 0.90617 0.54025 0.25236 0.0
C549 C 0.80583 0.50297 0.27455 0.0
C550 C 0.82633 0.53598 0.26827 0.0
C551 C 0.8588 0.54733 0.26163 0.0
C552 C 0.81483 0.5593 0.26899 0.0
C553 C 0.77109 0.48929 0.28387 0.0
C554 C 0.78944 0.55522 0.24658 0.0
C555 C 0.7789 0.57735 0.24744 0.0
C556 C 0.79398 0.60438 0.27018 0.0
C557 C 0.81978 0.60873 0.29205 0.0
C558 C 0.83002 0.58641 0.29152 0.0
H559 H 0.76153 0.46636 0.29886 0.0
H560 H 0.76724 0.50609 0.30086 0.0
H561 H 0.75716 0.48449 0.25816 0.0
H562 H 0.77796 0.53509 0.22807 0.0
H563 H 0.75925 0.57352 0.2299 0.0
H564 H 0.17247 0.56399 0.72077 0.0
H565 H 0.19347 0.62161 0.72203 0.0
H566 H 0.12664 0.60953 0.80695 0.0
H567 H 0.10549 0.55202 0.80587 0.0
H568 H 0.16508 0.65628 0.70834 0.0
H569 H 0.20871 0.67734 0.85162 0.0
H570 H 0.19618 0.64005 0.82829 0.0
H571 H 0.16715 0.64836 0.84823 0.0
C572 C 0.16218 0.57355 0.73971 0.0
C573 C 0.13743 0.55327 0.76345 0.0
C574 C 0.17432 0.60654 0.74048 0.0
C575 C 0.16212 0.62003 0.7651 0.0
C576 C 0.13712 0.59984 0.78846 0.0
H577 H 0.1885 0.80778 0.80452 0.0
H578 H 0.17092 0.75089 0.80266 0.0
C579 C 0.12504 0.56689 0.78779 0.0
C580 C 0.17493 0.65509 0.76569 0.0
H581 H 0.20678 0.72027 0.82206 0.0
C582 C 0.17446 0.67031 0.73313 0.0
C583 C 0.18723 0.67346 0.79804 0.0
C584 C 0.19018 0.65904 0.83342 0.0
C585 C 0.1852 0.70317 0.73227 0.0
C586 C 0.19694 0.72134 0.76476 0.0
C587 C 0.19765 0.70624 0.79723 0.0
C588 C 0.20805 0.75599 0.76581 0.0
C589 C 0.18317 0.71808 0.69684 0.0
C590 C 0.23507 0.77781 0.74609 0.0
C591 C 0.24533 0.81045 0.74721 0.0
C592 C 0.22871 0.82185 0.76807 0.0
C593 C 0.20184 0.79988 0.78809 0.0
C594 C 0.19173 0.76732 0.7871 0.0
H595 H 0.16758 0.69986 0.67644 0.0
H596 H 0.17397 0.73466 0.70174 0.0
H597 H 0.20735 0.73203 0.68489 0.0
H598 H 0.24829 0.76959 0.72992 0.0
H599 H 0.26611 0.82668 0.7315 0.0
H600 H 0.41421 0.85782 0.71525 0.0
H601 H 0.45018 0.83611 0.71573 0.0
H602 H 0.48418 0.87675 0.82284 0.0
H603 H 0.44831 0.89846 0.82262 0.0
H604 H 0.51346 0.86555 0.71892 0.0
H605 H 0.46424 0.78657 0.83945 0.0
H606 H 0.44401 0.80503 0.81792 0.0
H607 H 0.47593 0.82717 0.84994 0.0
C608 C 0.42931 0.86212 0.73895 0.0
C609 C 0.42814 0.8797 0.76904 0.0
C610 C 0.44978 0.84958 0.73924 0.0
C611 C 0.46945 0.85422 0.76963 0.0
C612 C 0.46857 0.87201 0.79953 0.0
H613 H 0.64123 0.84159 0.76513 0.0
H614 H 0.60133 0.85812 0.76566 0.0
C615 C 0.44803 0.88445 0.79934 0.0
C616 C 0.49177 0.84155 0.76937 0.0
H617 H 0.51492 0.79634 0.81808 0.0
C618 C 0.5136 0.8502 0.74046 0.0
C619 C 0.49168 0.82112 0.79716 0.0
C620 C 0.46749 0.80915 0.82766 0.0
C621 C 0.5357 0.83954 0.73891 0.0
C622 C 0.53672 0.82045 0.76771 0.0
C623 C 0.51442 0.81122 0.79621 0.0
C624 C 0.56098 0.81022 0.76902 0.0
C625 C 0.55733 0.84848 0.70602 0.0
C626 C 0.55181 0.77783 0.77275 0.0
C627 C 0.57477 0.76828 0.77335 0.0
C628 C 0.60724 0.79098 0.76993 0.0
C629 C 0.61634 0.82342 0.76715 0.0
C630 C 0.59352 0.83293 0.76717 0.0
H631 H 0.54664 0.85345 0.68175 0.0
H632 H 0.58013 0.87052 0.71226 0.0
H633 H 0.56256 0.8293 0.69876 0.0
H634 H 0.52685 0.75987 0.77461 0.0
H635 H 0.56706 0.74315 0.77561 0.0
H636 H 0.19425 0.45366 0.74865 0.0
H637 H 0.25161 0.49213 0.74679 0.0
H638 H 0.27132 0.41764 0.77763 0.0
H639 H 0.21438 0.37897 0.77654 0.0
H640 H 0.29618 0.5151 0.79335 0.0
H641 H 0.3295 0.45017 0.69473 0.0
H642 H 0.2885 0.43753 0.70465 0.0
H643 H 0.31104 0.42617 0.73423 0.0
C644 C 0.21097 0.44562 0.75477 0.0
C645 C 0.20002 0.41337 0.76226 0.0
C646 C 0.24373 0.46755 0.75371 0.0
C647 C 0.2661 0.45774 0.76093 0.0
C648 C 0.25489 0.42571 0.77023 0.0
H649 H 0.47 0.55208 0.79294 0.0
H650 H 0.41239 0.51628 0.7924 0.0
C651 C 0.22227 0.40365 0.77007 0.0
C652 C 0.30101 0.48112 0.75977 0.0
H653 H 0.37233 0.49235 0.7282 0.0
C654 C 0.31269 0.5102 0.77869 0.0
C655 C 0.32285 0.47499 0.74056 0.0
C656 C 0.31225 0.44567 0.71711 0.0
C657 C 0.3454 0.53278 0.77968 0.0
C658 C 0.36712 0.5261 0.76148 0.0
C659 C 0.35559 0.49726 0.74237 0.0
C660 C 0.40201 0.54848 0.76236 0.0
C661 C 0.35659 0.56333 0.80086 0.0
C662 C 0.41534 0.57843 0.74541 0.0
C663 C 0.44835 0.59914 0.74588 0.0
C664 C 0.46869 0.59024 0.76323 0.0
C665 C 0.45512 0.56004 0.77993 0.0
C666 C 0.42218 0.5394 0.77942 0.0
H667 H 0.33769 0.56226 0.81897 0.0
H668 H 0.37776 0.56875 0.81781 0.0
H669 H 0.36361 0.58329 0.78134 0.0
H670 H 0.40022 0.5857 0.73157 0.0
H671 H 0.45789 0.62223 0.73292 0.0
H672 H 0.19423 0.18463 0.20635 0.0
H673 H 0.15964 0.20793 0.20331 0.0
H674 H 0.1301 0.17927 0.31472 0.0
H675 H 0.16339 0.15468 0.31771 0.0
H676 H 0.0887 0.17562 0.22201 0.0
H677 H 0.1686 0.28009 0.3088 0.0
H678 H 0.18258 0.25691 0.28449 0.0
H679 H 0.1594 0.24143 0.32539 0.0
C680 C 0.1799 0.18262 0.22999 0.0
C681 C 0.18183 0.16788 0.26238 0.0
C682 C 0.16039 0.19623 0.22827 0.0
C683 C 0.14284 0.1957 0.25898 0.0
C684 C 0.14393 0.18031 0.29094 0.0
H685 H 0.01281 0.25607 0.32312 0.0
H686 H 0.05578 0.24364 0.31885 0.0
C687 C 0.1631 0.16639 0.29259 0.0
C688 C 0.12344 0.21139 0.25786 0.0
H689 H 0.11838 0.27389 0.29346 0.0
C690 C 0.09527 0.19731 0.23721 0.0
C691 C 0.13213 0.23948 0.27807 0.0
C692 C 0.16242 0.25561 0.30032 0.0
C693 C 0.07494 0.21013 0.23709 0.0
C694 C 0.08363 0.23832 0.25732 0.0
C695 C 0.11205 0.25258 0.27759 0.0
C696 C 0.06213 0.25164 0.26039 0.0
C697 C 0.04368 0.19261 0.21671 0.0
C698 C 0.05287 0.26213 0.22929 0.0
C699 C 0.02864 0.26976 0.23185 0.0
C700 C 0.01354 0.26691 0.26551 0.0
C701 C 0.02458 0.25889 0.29702 0.0
C702 C 0.04887 0.25152 0.29453 0.0
H703 H 0.03759 0.16792 0.20936 0.0
H704 H 0.02397 0.19145 0.23335 0.0
H705 H 0.0453 0.20553 0.19099 0.0
H706 H 0.06318 0.26277 0.20279 0.0
H707 H 0.01988 0.27514 0.20709 0.0
H708 H 1.00739 0.80624 0.20873 0.0
H709 H 0.06506 0.84111 0.20585 0.0
H710 H 0.05931 0.90431 0.28483 0.0
H711 H 1.00148 0.87075 0.28618 0.0
H712 H 0.09955 0.93671 0.22988 0.0
H713 H 0.12654 0.84563 0.28376 0.0
H714 H 0.10227 0.8333 0.24323 0.0
H715 H 0.08703 0.84049 0.28485 0.0
C716 C 0.01824 0.82788 0.22494 0.0
C717 C 0.99969 0.83555 0.24784 0.0
C718 C 0.05131 0.84749 0.22373 0.0
C719 C 0.06651 0.87484 0.24582 0.0
C720 C 0.04806 0.88311 0.26784 0.0
H721 H 0.26031 0.99588 0.31349 0.0
H722 H 0.20469 0.95308 0.30807 0.0
C723 C 0.015 0.86374 0.26876 0.0
C724 C 0.10165 0.89503 0.24597 0.0
H725 H 0.17051 0.89427 0.2636 0.0
C726 C 0.11507 0.92741 0.23713 0.0
C727 C 0.12179 0.8829 0.25603 0.0
C728 C 0.10873 0.84876 0.26786 0.0
C729 C 0.14812 0.94798 0.23783 0.0
C730 C 0.16823 0.93562 0.24687 0.0
C731 C 0.15491 0.90338 0.25602 0.0
C732 C 0.2031 0.95648 0.24909 0.0
C733 C 0.16126 0.98295 0.22988 0.0
C734 C 0.22088 0.97112 0.2175 0.0
C735 C 0.25274 0.99504 0.22055 0.0
C736 C 0.26702 1.00445 0.25518 0.0
C737 C 0.2499 0.98822 0.28649 0.0
C738 C 0.21814 0.96412 0.28343 0.0
H739 H 0.14237 0.98957 0.23002 0.0
H740 H 0.17973 0.9979 0.25037 0.0
H741 H 0.17262 0.9886 0.20247 0.0
H742 H 0.20959 0.96537 0.19079 0.0
H743 H 0.26534 1.00802 0.19624 0.0
H744 H 0.84154 0.01346 0.33598 0.0
H745 H 0.81897 0.95555 0.3346 0.0
H746 H 0.82985 0.95868 0.21721 0.0
H747 H 0.85219 0.01637 0.21825 0.0
H748 H 0.76509 0.90956 0.29827 0.0
H749 H 0.87339 0.90948 0.24973 0.0
H750 H 0.87436 0.94497 0.26668 0.0
H751 H 0.86151 0.93151 0.22056 0.0
C752 C 0.83919 1.00181 0.30989 0.0
C753 C 0.84903 0.01957 0.27729 0.0
C754 C 0.82634 0.96878 0.30917 0.0
C755 C 0.82326 0.95298 0.2759 0.0
C756 C 0.83277 0.97055 0.24328 0.0
H757 H 0.76215 0.76201 0.20604 0.0
H758 H 0.77381 0.81723 0.20987 0.0
C759 C 0.84564 1.00354 0.24396 0.0
C760 C 0.80948 0.918 0.2751 0.0
H761 H 0.82512 0.85965 0.24899 0.0
C762 C 0.7782 0.89856 0.28768 0.0
C763 C 0.82677 0.90385 0.26142 0.0
C764 C 0.86097 0.92352 0.24916 0.0
C765 C 0.76334 0.86519 0.28586 0.0
C766 C 0.78042 0.85107 0.2715 0.0
C767 C 0.81191 0.87057 0.25957 0.0
C768 C 0.76646 0.81612 0.26845 0.0
C769 C 0.7293 0.84541 0.29847 0.0
C770 C 0.75696 0.79679 0.29985 0.0
C771 C 0.74949 0.76495 0.29747 0.0
C772 C 0.752 0.75244 0.2638 0.0
C773 C 0.75946 0.77113 0.23211 0.0
C774 C 0.76646 0.80269 0.23438 0.0
H775 H 0.71701 0.85957 0.29923 0.0
H776 H 0.71566 0.82443 0.28034 0.0
H777 H 0.72905 0.83662 0.3266 0.0
H778 H 0.75752 0.80684 0.32653 0.0
H779 H 0.74478 0.75114 0.32237 0.0
H780 H 0.1658 0.16949 0.83111 0.0
H781 H 0.19081 0.13637 0.8307 0.0
H782 H 0.203 0.1479 0.71367 0.0
H783 H 0.17945 0.18218 0.71399 0.0
H784 H 0.17304 0.08007 0.79468 0.0
H785 H 0.29239 0.17404 0.74799 0.0
H786 H 0.26245 0.18298 0.7638 0.0
H787 H 0.26052 0.16822 0.71807 0.0
C788 C 0.17404 0.16519 0.80533 0.0
C789 C 0.17071 0.17857 0.77263 0.0
C790 C 0.18817 0.14616 0.80513 0.0
C791 C 0.1993 0.14025 0.77227 0.0
C792 C 0.19522 0.15278 0.73944 0.0
H793 H 0.26879 0.01642 0.70692 0.0
H794 H 0.25476 0.0584 0.71087 0.0
C795 C 0.18126 0.17195 0.73962 0.0
C796 C 0.21471 0.12051 0.77231 0.0
H797 H 0.28321 0.12097 0.74939 0.0
C798 C 0.19723 0.08908 0.78515 0.0
C799 C 0.24625 0.13239 0.75969 0.0
C800 C 0.26663 0.16635 0.74691 0.0
C801 C 0.21024 0.06894 0.785 0.0
C802 C 0.2417 0.08082 0.77223 0.0
C803 C 0.25921 0.1122 0.75946 0.0
C804 C 0.25606 0.06028 0.77008 0.0
C805 C 0.18997 0.03485 0.79747 0.0
C806 C 0.26315 0.04894 0.80205 0.0
C807 C 0.27189 0.02552 0.79977 0.0
C808 C 0.27341 0.01324 0.76552 0.0
C809 C 0.26856 0.02628 0.73352 0.0
C810 C 0.26018 0.04988 0.73577 0.0
H811 H 0.16452 0.02798 0.80046 0.0
H812 H 0.19166 0.01828 0.77776 0.0
H813 H 0.19874 0.03182 0.82441 0.0
H814 H 0.26014 0.05687 0.82874 0.0
H815 H 0.2745 0.01496 0.82476 0.0
H816 H 0.02156 0.86362 0.70615 0.0
H817 H 0.96368 0.84098 0.70439 0.0
H818 H 0.95492 0.79148 0.80571 0.0
H819 H 0.01262 0.81415 0.80779 0.0
H820 H 0.91635 0.77807 0.70228 0.0
H821 H 0.90585 0.8371 0.82748 0.0
H822 H 0.94355 0.84914 0.80566 0.0
H823 H 0.92586 0.81492 0.83527 0.0
C824 C 1.00724 0.84793 0.72804 0.0
C825 C 0.02154 0.8408 0.75726 0.0
C826 C 0.97427 0.8351 0.72704 0.0
C827 C 0.95517 0.81502 0.75524 0.0
C828 C 0.96936 0.80759 0.78418 0.0
H829 H 0.75258 0.72617 0.80124 0.0
H830 H 0.80743 0.73584 0.79942 0.0
C831 C 1.00229 0.82053 0.78532 0.0
C832 C 0.92027 0.80118 0.75402 0.0
H833 H 0.85756 0.79635 0.80161 0.0
C834 C 0.90344 0.78203 0.72397 0.0
C835 C 0.90361 0.8065 0.78235 0.0
C836 C 0.92065 0.82828 0.81433 0.0
C837 C 0.87021 0.76762 0.72169 0.0
C838 C 0.85351 0.77281 0.75008 0.0
C839 C 0.87037 0.79192 0.78019 0.0
C840 C 0.81895 0.76113 0.74776 0.0
C841 C 0.85335 0.74686 0.68899 0.0
C842 C 0.8071 0.77123 0.71881 0.0
C843 C 0.7759 0.76528 0.71962 0.0
C844 C 0.75615 0.74936 0.74945 0.0
C845 C 0.7672 0.73755 0.77742 0.0
C846 C 0.79855 0.74347 0.7766 0.0
H847 H 0.86732 0.73666 0.67685 0.0
H848 H 0.82936 0.72704 0.69639 0.0
H849 H 0.85054 0.76157 0.66763 0.0
H850 H 0.82258 0.78567 0.69687 0.0
H851 H 0.76796 0.77534 0.69834 0.0
H852 H 0.02708 0.25259 0.70583 0.0
H853 H 0.98355 0.19779 0.70288 0.0
H854 H 0.94224 0.21335 0.7999 0.0
H855 H 0.98735 0.26827 0.80382 0.0
H856 H 0.94717 0.16296 0.80806 0.0
H857 H 0.8941 0.15273 0.67138 0.0
H858 H 0.93605 0.168 0.6674 0.0
H859 H 0.92161 0.19088 0.69133 0.0
C860 C 1.00794 0.24466 0.72556 0.0
C861 C 1.00991 0.26462 0.75447 0.0
C862 C 0.983 0.21331 0.72387 0.0
C863 C 0.95915 0.20147 0.75071 0.0
C864 C 0.9602 0.22206 0.77866 0.0
H865 H 0.80083 1.00669 0.7362 0.0
H866 H 0.83449 0.06462 0.73613 0.0
C867 C 0.98561 0.25348 0.78065 0.0
C868 C 0.93566 0.16683 0.75189 0.0
H869 H 0.88563 0.10351 0.69833 0.0
C870 C 0.93326 0.15007 0.78424 0.0
C871 C 0.91748 0.14988 0.72088 0.0
C872 C 0.91722 0.16644 0.68598 0.0
C873 C 0.91375 0.11684 0.78618 0.0
C874 C 0.89702 0.09976 0.75451 0.0
C875 C 0.89881 0.11656 0.72246 0.0
C876 C 0.877 0.06451 0.75413 0.0
C877 C 0.91105 0.10051 0.82229 0.0
C878 C 0.88987 0.04513 0.76352 0.0
C879 C 0.87063 0.01194 0.76366 0.0
C880 C 0.83831 0.99752 0.75377 0.0
C881 C 0.82574 0.01701 0.74344 0.0
C882 C 0.8449 0.05015 0.74362 0.0
H883 H 0.91703 0.11725 0.8457 0.0
H884 H 0.88665 0.08003 0.82642 0.0
H885 H 0.92807 0.0915 0.82267 0.0
H886 H 0.9148 0.05564 0.7707 0.0
H887 H 0.88106 0.99755 0.77136 0.0
loop_
_geom_bond_atom_site_label_1
_geom_bond_atom_site_label_2
_geom_bond_distance
_geom_bond_site_symmetry_2
_ccdc_geom_bond_type
Eu0 C9 2.828 . S
Eu0 O11 2.392 . S
Eu0 O13 2.418 . S
Eu0 O18 2.373 . S
Eu0 O21 2.488 . S
Eu0 O22 2.471 . S
Eu0 O23 2.349 . S
Eu1 O10 2.373 . S
Eu1 O14 2.488 . S
Eu1 O15 2.471 . S
Eu1 O16 2.349 . S
Eu1 O19 2.392 . S
Eu1 O20 2.418 . S
Eu1 C30 2.828 . S
C2 O20 1.244 . S
C2 O23 1.265 . S
C3 C4 1.379 . S
C3 C7 1.373 . S
C3 C9 1.505 . S
C4 C3 1.379 . S
C4 C6 1.369 . S
C4 H32 0.930 . S
C5 C7 1.383 . S
C5 C8 1.382 . S
C5 H33 0.930 . S
C6 C4 1.369 . S
C6 C8 1.392 . S
C6 H34 0.930 . S
C7 C3 1.373 . S
C7 C5 1.383 . S
C7 H35 0.931 . S
C8 C5 1.382 . S
C8 C6 1.392 . S
C9 Eu0 2.828 . S
C9 C3 1.505 . S
C9 O21 1.249 . S
C9 O22 1.244 . S
O10 Eu1 2.373 . S
O10 C12 1.258 . S
O11 Eu0 2.392 . S
O11 C12 1.242 . S
C12 O10 1.258 . S
C12 O11 1.242 . S
O13 Eu0 2.418 . S
O13 C17 1.244 . S
O14 Eu1 2.488 . S
O14 C30 1.249 . S
O15 Eu1 2.471 . S
O15 C30 1.244 . S
O16 Eu1 2.349 . S
O16 C17 1.265 . S
C17 O13 1.244 . S
C17 O16 1.265 . S
O18 Eu0 2.373 . S
O18 C31 1.258 . S
O19 Eu1 2.392 . S
O19 C31 1.242 . S
O20 Eu1 2.418 . S
O20 C2 1.244 . S
O21 Eu0 2.488 . S
O21 C9 1.249 . S
O22 Eu0 2.471 . S
O22 C9 1.244 . S
O23 Eu0 2.349 . S
O23 C2 1.265 . S
C24 C25 1.379 . S
C24 C28 1.373 . S
C24 C30 1.505 . S
C25 C24 1.379 . S
C25 C27 1.369 . S
C25 H36 0.930 . S
C26 C28 1.383 . S
C26 C29 1.382 . S
C26 H37 0.930 . S
C27 C25 1.369 . S
C27 C29 1.392 . S
C27 H38 0.930 . S
C28 C24 1.373 . S
C28 C26 1.383 . S
C28 H39 0.931 . S
C29 C26 1.382 . S
C29 C27 1.392 . S
C30 Eu1 2.828 . S
C30 O14 1.249 . S
C30 O15 1.244 . S
C30 C24 1.505 . S
C31 O18 1.258 . S
C31 O19 1.242 . S
H32 C4 0.930 . S
H33 C5 0.930 . S
H34 C6 0.930 . S
H35 C7 0.931 . S
H36 C25 0.930 . S
H37 C26 0.930 . S
H38 C27 0.930 . S
H39 C28 0.931 . S
Eu40 C49 2.828 . S
Eu40 O51 2.392 . S
Eu40 O53 2.418 . S
Eu40 O58 2.373 . S
Eu40 O61 2.488 . S
Eu40 O62 2.471 . S
Eu40 O63 2.349 . S
Eu41 O50 2.373 . S
Eu41 O54 2.488 . S
Eu41 O55 2.471 . S
Eu41 O56 2.349 . S
Eu41 O59 2.392 . S
Eu41 O60 2.418 . S
Eu41 C70 2.828 . S
C42 O60 1.244 . S
C42 O63 1.265 . S
C43 C44 1.379 . S
C43 C47 1.373 . S
C43 C49 1.505 . S
C44 C43 1.379 . S
C44 C46 1.369 . S
C44 H72 0.930 . S
C45 C47 1.383 . S
C45 C48 1.382 . S
C45 H73 0.930 . S
C46 C44 1.369 . S
C46 C48 1.392 . S
C46 H74 0.930 . S
C47 C43 1.373 . S
C47 C45 1.383 . S
C47 H75 0.931 . S
C48 C45 1.382 . S
C48 C46 1.392 . S
C49 Eu40 2.828 . S
C49 C43 1.505 . S
C49 O61 1.249 . S
C49 O62 1.244 . S
O50 Eu41 2.373 . S
O50 C52 1.258 . S
O51 Eu40 2.392 . S
O51 C52 1.242 . S
C52 O50 1.258 . S
C52 O51 1.242 . S
O53 Eu40 2.418 . S
O53 C57 1.244 . S
O54 Eu41 2.488 . S
O54 C70 1.249 . S
O55 Eu41 2.471 . S
O55 C70 1.244 . S
O56 Eu41 2.349 . S
O56 C57 1.265 . S
C57 O53 1.244 . S
C57 O56 1.265 . S
O58 Eu40 2.373 . S
O58 C71 1.258 . S
O59 Eu41 2.392 . S
O59 C71 1.242 . S
O60 Eu41 2.418 . S
O60 C42 1.244 . S
O61 Eu40 2.488 . S
O61 C49 1.249 . S
O62 Eu40 2.471 . S
O62 C49 1.244 . S
O63 Eu40 2.349 . S
O63 C42 1.265 . S
C64 C65 1.379 . S
C64 C68 1.373 . S
C64 C70 1.505 . S
C65 C64 1.379 . S
C65 C67 1.369 . S
C65 H76 0.930 . S
C66 C68 1.383 . S
C66 C69 1.382 . S
C66 H77 0.930 . S
C67 C65 1.369 . S
C67 C69 1.392 . S
C67 H78 0.930 . S
C68 C64 1.373 . S
C68 C66 1.383 . S
C68 H79 0.931 . S
C69 C66 1.382 . S
C69 C67 1.392 . S
C70 Eu41 2.828 . S
C70 O54 1.249 . S
C70 O55 1.244 . S
C70 C64 1.505 . S
C71 O58 1.258 . S
C71 O59 1.242 . S
H72 C44 0.930 . S
H73 C45 0.930 . S
H74 C46 0.930 . S
H75 C47 0.931 . S
H76 C65 0.930 . S
H77 C66 0.930 . S
H78 C67 0.930 . S
H79 C68 0.931 . S
Eu80 C89 2.828 . S
Eu80 O91 2.392 . S
Eu80 O93 2.418 . S
Eu80 O98 2.373 . S
Eu80 O101 2.488 . S
Eu80 O102 2.471 . S
Eu80 O103 2.349 . S
Eu81 O90 2.373 . S
Eu81 O94 2.488 . S
Eu81 O95 2.471 . S
Eu81 O96 2.349 . S
Eu81 O99 2.392 . S
Eu81 O100 2.418 . S
Eu81 C110 2.828 . S
C82 O100 1.244 . S
C82 O103 1.265 . S
C83 C84 1.379 . S
C83 C87 1.373 . S
C83 C89 1.505 . S
C84 C83 1.379 . S
C84 C86 1.369 . S
C84 H112 0.930 . S
C85 C87 1.383 . S
C85 C88 1.382 . S
C85 H113 0.930 . S
C86 C84 1.369 . S
C86 C88 1.392 . S
C86 H114 0.930 . S
C87 C83 1.373 . S
C87 C85 1.383 . S
C87 H115 0.931 . S
C88 C85 1.382 . S
C88 C86 1.392 . S
C89 Eu80 2.828 . S
C89 C83 1.505 . S
C89 O101 1.249 . S
C89 O102 1.244 . S
O90 Eu81 2.373 . S
O90 C92 1.258 . S
O91 Eu80 2.392 . S
O91 C92 1.242 . S
C92 O90 1.258 . S
C92 O91 1.242 . S
O93 Eu80 2.418 . S
O93 C97 1.244 . S
O94 Eu81 2.488 . S
O94 C110 1.249 . S
O95 Eu81 2.471 . S
O95 C110 1.244 . S
O96 Eu81 2.349 . S
O96 C97 1.265 . S
C97 O93 1.244 . S
C97 O96 1.265 . S
O98 Eu80 2.373 . S
O98 C111 1.258 . S
O99 Eu81 2.392 . S
O99 C111 1.242 . S
O100 Eu81 2.418 . S
O100 C82 1.244 . S
O101 Eu80 2.488 . S
O101 C89 1.249 . S
O102 Eu80 2.471 . S
O102 C89 1.244 . S
O103 Eu80 2.349 . S
O103 C82 1.265 . S
C104 C105 1.379 . S
C104 C108 1.373 . S
C104 C110 1.505 . S
C105 C104 1.379 . S
C105 C107 1.369 . S
C105 H116 0.930 . S
C106 C108 1.383 . S
C106 C109 1.382 . S
C106 H117 0.930 . S
C107 C105 1.369 . S
C107 C109 1.392 . S
C107 H118 0.930 . S
C108 C104 1.373 . S
C108 C106 1.383 . S
C108 H119 0.931 . S
C109 C106 1.382 . S
C109 C107 1.392 . S
C110 Eu81 2.828 . S
C110 O94 1.249 . S
C110 O95 1.244 . S
C110 C104 1.505 . S
C111 O98 1.258 . S
C111 O99 1.242 . S
H112 C84 0.930 . S
H113 C85 0.930 . S
H114 C86 0.930 . S
H115 C87 0.931 . S
H116 C105 0.930 . S
H117 C106 0.930 . S
H118 C107 0.930 . S
H119 C108 0.931 . S
Eu120 C129 2.828 . S
Eu120 O131 2.392 . S
Eu120 O133 2.418 . S
Eu120 O138 2.373 . S
Eu120 O141 2.488 . S
Eu120 O142 2.471 . S
Eu120 O143 2.349 . S
Eu121 O130 2.373 . S
Eu121 O134 2.488 . S
Eu121 O135 2.471 . S
Eu121 O136 2.349 . S
Eu121 O139 2.392 . S
Eu121 O140 2.418 . S
Eu121 C150 2.828 . S
C122 O140 1.244 . S
C122 O143 1.265 . S
C123 C124 1.379 . S
C123 C127 1.373 . S
C123 C129 1.505 . S
C124 C123 1.379 . S
C124 C126 1.369 . S
C124 H152 0.930 . S
C125 C127 1.383 . S
C125 C128 1.382 . S
C125 H153 0.930 . S
C126 C124 1.369 . S
C126 C128 1.392 . S
C126 H154 0.930 . S
C127 C123 1.373 . S
C127 C125 1.383 . S
C127 H155 0.931 . S
C128 C125 1.382 . S
C128 C126 1.392 . S
C129 Eu120 2.828 . S
C129 C123 1.505 . S
C129 O141 1.249 . S
C129 O142 1.244 . S
O130 Eu121 2.373 . S
O130 C132 1.258 . S
O131 Eu120 2.392 . S
O131 C132 1.242 . S
C132 O130 1.258 . S
C132 O131 1.242 . S
O133 Eu120 2.418 . S
O133 C137 1.244 . S
O134 Eu121 2.488 . S
O134 C150 1.249 . S
O135 Eu121 2.471 . S
O135 C150 1.244 . S
O136 Eu121 2.349 . S
O136 C137 1.265 . S
C137 O133 1.244 . S
C137 O136 1.265 . S
O138 Eu120 2.373 . S
O138 C151 1.258 . S
O139 Eu121 2.392 . S
O139 C151 1.242 . S
O140 Eu121 2.418 . S
O140 C122 1.244 . S
O141 Eu120 2.488 . S
O141 C129 1.249 . S
O142 Eu120 2.471 . S
O142 C129 1.244 . S
O143 Eu120 2.349 . S
O143 C122 1.265 . S
C144 C145 1.379 . S
C144 C148 1.373 . S
C144 C150 1.505 . S
C145 C144 1.379 . S
C145 C147 1.369 . S
C145 H156 0.930 . S
C146 C148 1.383 . S
C146 C149 1.382 . S
C146 H157 0.930 . S
C147 C145 1.369 . S
C147 C149 1.392 . S
C147 H158 0.930 . S
C148 C144 1.373 . S
C148 C146 1.383 . S
C148 H159 0.931 . S
C149 C146 1.382 . S
C149 C147 1.392 . S
C150 Eu121 2.828 . S
C150 O134 1.249 . S
C150 O135 1.244 . S
C150 C144 1.505 . S
C151 O138 1.258 . S
C151 O139 1.242 . S
H152 C124 0.930 . S
H153 C125 0.930 . S
H154 C126 0.930 . S
H155 C127 0.931 . S
H156 C145 0.930 . S
H157 C146 0.930 . S
H158 C147 0.930 . S
H159 C148 0.931 . S
Eu160 C169 2.828 . S
Eu160 O171 2.392 . S
Eu160 O173 2.418 . S
Eu160 O178 2.373 . S
Eu160 O181 2.488 . S
Eu160 O182 2.471 . S
Eu160 O183 2.349 . S
Eu161 O170 2.373 . S
Eu161 O174 2.488 . S
Eu161 O175 2.471 . S
Eu161 O176 2.349 . S
Eu161 O179 2.392 . S
Eu161 O180 2.418 . S
Eu161 C190 2.828 . S
C162 O180 1.244 . S
C162 O183 1.265 . S
C163 C164 1.379 . S
C163 C167 1.373 . S
C163 C169 1.505 . S
C164 C163 1.379 . S
C164 C166 1.369 . S
C164 H192 0.930 . S
C165 C167 1.383 . S
C165 C168 1.382 . S
C165 H193 0.930 . S
C166 C164 1.369 . S
C166 C168 1.392 . S
C166 H194 0.930 . S
C167 C163 1.373 . S
C167 C165 1.383 . S
C167 H195 0.931 . S
C168 C165 1.382 . S
C168 C166 1.392 . S
C169 Eu160 2.828 . S
C169 C163 1.505 . S
C169 O181 1.249 . S
C169 O182 1.244 . S
O170 Eu161 2.373 . S
O170 C172 1.258 . S
O171 Eu160 2.392 . S
O171 C172 1.242 . S
C172 O170 1.258 . S
C172 O171 1.242 . S
O173 Eu160 2.418 . S
O173 C177 1.244 . S
O174 Eu161 2.488 . S
O174 C190 1.249 . S
O175 Eu161 2.471 . S
O175 C190 1.244 . S
O176 Eu161 2.349 . S
O176 C177 1.265 . S
C177 O173 1.244 . S
C177 O176 1.265 . S
O178 Eu160 2.373 . S
O178 C191 1.258 . S
O179 Eu161 2.392 . S
O179 C191 1.242 . S
O180 Eu161 2.418 . S
O180 C162 1.244 . S
O181 Eu160 2.488 . S
O181 C169 1.249 . S
O182 Eu160 2.471 . S
O182 C169 1.244 . S
O183 Eu160 2.349 . S
O183 C162 1.265 . S
C184 C185 1.379 . S
C184 C188 1.373 . S
C184 C190 1.505 . S
C185 C184 1.379 . S
C185 C187 1.369 . S
C185 H196 0.930 . S
C186 C188 1.383 . S
C186 C189 1.382 . S
C186 H197 0.930 . S
C187 C185 1.369 . S
C187 C189 1.392 . S
C187 H198 0.930 . S
C188 C184 1.373 . S
C188 C186 1.383 . S
C188 H199 0.931 . S
C189 C186 1.382 . S
C189 C187 1.392 . S
C190 Eu161 2.828 . S
C190 O174 1.249 . S
C190 O175 1.244 . S
C190 C184 1.505 . S
C191 O178 1.258 . S
C191 O179 1.242 . S
H192 C164 0.930 . S
H193 C165 0.930 . S
H194 C166 0.930 . S
H195 C167 0.931 . S
H196 C185 0.930 . S
H197 C186 0.930 . S
H198 C187 0.930 . S
H199 C188 0.931 . S
Eu200 C209 2.828 . S
Eu200 O211 2.392 . S
Eu200 O213 2.418 . S
Eu200 O218 2.373 . S
Eu200 O221 2.488 . S
Eu200 O222 2.471 . S
Eu200 O223 2.349 . S
Eu201 O210 2.373 . S
Eu201 O214 2.488 . S
Eu201 O215 2.471 . S
Eu201 O216 2.349 . S
Eu201 O219 2.392 . S
Eu201 O220 2.418 . S
Eu201 C230 2.828 . S
C202 O220 1.244 . S
C202 O223 1.265 . S
C203 C204 1.379 . S
C203 C207 1.373 . S
C203 C209 1.505 . S
C204 C203 1.379 . S
C204 C206 1.369 . S
C204 H232 0.930 . S
C205 C207 1.383 . S
C205 C208 1.382 . S
C205 H233 0.930 . S
C206 C204 1.369 . S
C206 C208 1.392 . S
C206 H234 0.930 . S
C207 C203 1.373 . S
C207 C205 1.383 . S
C207 H235 0.931 . S
C208 C205 1.382 . S
C208 C206 1.392 . S
C209 Eu200 2.828 . S
C209 C203 1.505 . S
C209 O221 1.249 . S
C209 O222 1.244 . S
O210 Eu201 2.373 . S
O210 C212 1.258 . S
O211 Eu200 2.392 . S
O211 C212 1.242 . S
C212 O210 1.258 . S
C212 O211 1.242 . S
O213 Eu200 2.418 . S
O213 C217 1.244 . S
O214 Eu201 2.488 . S
O214 C230 1.249 . S
O215 Eu201 2.471 . S
O215 C230 1.244 . S
O216 Eu201 2.349 . S
O216 C217 1.265 . S
C217 O213 1.244 . S
C217 O216 1.265 . S
O218 Eu200 2.373 . S
O218 C231 1.258 . S
O219 Eu201 2.392 . S
O219 C231 1.242 . S
O220 Eu201 2.418 . S
O220 C202 1.244 . S
O221 Eu200 2.488 . S
O221 C209 1.249 . S
O222 Eu200 2.471 . S
O222 C209 1.244 . S
O223 Eu200 2.349 . S
O223 C202 1.265 . S
C224 C225 1.379 . S
C224 C228 1.373 . S
C224 C230 1.505 . S
C225 C224 1.379 . S
C225 C227 1.369 . S
C225 H236 0.930 . S
C226 C228 1.383 . S
C226 C229 1.382 . S
C226 H237 0.930 . S
C227 C225 1.369 . S
C227 C229 1.392 . S
C227 H238 0.930 . S
C228 C224 1.373 . S
C228 C226 1.383 . S
C228 H239 0.931 . S
C229 C226 1.382 . S
C229 C227 1.392 . S
C230 Eu201 2.828 . S
C230 O214 1.249 . S
C230 O215 1.244 . S
C230 C224 1.505 . S
C231 O218 1.258 . S
C231 O219 1.242 . S
H232 C204 0.930 . S
H233 C205 0.930 . S
H234 C206 0.930 . S
H235 C207 0.931 . S
H236 C225 0.930 . S
H237 C226 0.930 . S
H238 C227 0.930 . S
H239 C228 0.931 . S
H240 C248 0.929 . S
H241 C250 0.930 . S
H242 C252 0.930 . S
H243 C255 0.929 . S
H244 C258 0.930 . S
H245 C260 0.960 . S
H246 C260 0.960 . S
H247 C260 0.960 . S
C248 H240 0.929 . S
C248 C249 1.377 . S
C248 C250 1.384 . S
C249 C248 1.377 . S
C249 C255 1.390 . S
C250 H241 0.930 . S
C250 C248 1.384 . S
C250 C251 1.372 . S
C251 C250 1.372 . S
C251 C252 1.400 . S
C251 C256 1.490 . S
C252 H242 0.930 . S
C252 C251 1.400 . S
C252 C255 1.386 . S
H253 C269 0.930 . S
H254 C270 0.931 . S
C255 H243 0.929 . S
C255 C249 1.390 . S
C255 C252 1.386 . S
C256 C251 1.490 . S
C256 C258 1.395 1_556 S
C256 C259 1.403 1_565 S
H257 C263 0.930 . S
C258 H244 0.930 . S
C258 C256 1.395 1_554 S
C258 C261 1.403 . S
C259 C256 1.403 1_545 S
C259 C260 1.524 . S
C259 C263 1.400 1_556 S
C260 H245 0.960 . S
C260 H246 0.960 . S
C260 H247 0.960 . S
C260 C259 1.524 . S
C261 C258 1.403 . S
C261 C262 1.392 1_565 S
C261 C265 1.495 . S
C262 C261 1.392 1_545 S
C262 C263 1.385 . S
C262 C264 1.478 . S
C263 H257 0.930 . S
C263 C259 1.400 1_554 S
C263 C262 1.385 . S
C264 C262 1.478 . S
C264 C266 1.381 . S
C264 C270 1.383 . S
C265 C261 1.495 . S
C265 H271 0.959 . S
C265 H272 0.961 . S
C265 H273 0.960 . S
C266 C264 1.381 . S
C266 C267 1.394 . S
C266 H274 0.930 . S
C267 C266 1.394 . S
C267 C268 1.383 . S
C267 H275 0.929 . S
C268 C267 1.383 . S
C268 C269 1.377 . S
C269 H253 0.930 . S
C269 C268 1.377 . S
C269 C270 1.379 . S
C270 H254 0.931 . S
C270 C264 1.383 . S
C270 C269 1.379 . S
H271 C265 0.959 . S
H272 C265 0.961 . S
H273 C265 0.960 . S
H274 C266 0.930 . S
H275 C267 0.929 . S
H276 C284 0.929 . S
H277 C286 0.930 . S
H278 C288 0.930 . S
H279 C291 0.929 . S
H280 C294 0.930 . S
H281 C296 0.960 . S
H282 C296 0.960 . S
H283 C296 0.960 . S
C284 H276 0.929 . S
C284 C285 1.377 . S
C284 C286 1.384 . S
C285 C284 1.377 . S
C285 C291 1.390 . S
C286 H277 0.930 . S
C286 C284 1.384 . S
C286 C287 1.372 . S
C287 C286 1.372 . S
C287 C288 1.400 . S
C287 C292 1.490 . S
C288 H278 0.930 . S
C288 C287 1.400 . S
C288 C291 1.386 . S
H289 C305 0.930 . S
H290 C306 0.931 . S
C291 H279 0.929 . S
C291 C285 1.390 . S
C291 C288 1.386 . S
C292 C287 1.490 . S
C292 C294 1.395 . S
C292 C295 1.403 . S
H293 C299 0.930 . S
C294 H280 0.930 . S
C294 C292 1.395 . S
C294 C297 1.403 . S
C295 C292 1.403 . S
C295 C296 1.524 . S
C295 C299 1.400 . S
C296 H281 0.960 . S
C296 H282 0.960 . S
C296 H283 0.960 . S
C296 C295 1.524 . S
C297 C294 1.403 . S
C297 C298 1.392 . S
C297 C301 1.495 . S
C298 C297 1.392 . S
C298 C299 1.385 . S
C298 C300 1.478 . S
C299 H293 0.930 . S
C299 C295 1.400 . S
C299 C298 1.385 . S
C300 C298 1.478 . S
C300 C302 1.381 . S
C300 C306 1.383 . S
C301 C297 1.495 . S
C301 H307 0.959 . S
C301 H308 0.961 . S
C301 H309 0.960 . S
C302 C300 1.381 . S
C302 C303 1.394 . S
C302 H310 0.930 . S
C303 C302 1.394 . S
C303 C304 1.383 . S
C303 H311 0.929 . S
C304 C303 1.383 . S
C304 C305 1.377 . S
C305 H289 0.930 . S
C305 C304 1.377 . S
C305 C306 1.379 . S
C306 H290 0.931 . S
C306 C300 1.383 . S
C306 C305 1.379 . S
H307 C301 0.959 . S
H308 C301 0.961 . S
H309 C301 0.960 . S
H310 C302 0.930 . S
H311 C303 0.929 . S
H312 C320 0.929 . S
H313 C322 0.930 . S
H314 C324 0.930 . S
H315 C327 0.929 . S
H316 C330 0.930 . S
H317 C332 0.960 . S
H318 C332 0.960 . S
H319 C332 0.957 1_554 S
C320 H312 0.929 . S
C320 C321 1.377 . S
C320 C322 1.384 . S
C321 C320 1.377 . S
C321 C327 1.390 . S
C322 H313 0.930 . S
C322 C320 1.384 . S
C322 C323 1.372 . S
C323 C322 1.372 . S
C323 C324 1.400 . S
C323 C328 1.490 . S
C324 H314 0.930 . S
C324 C323 1.400 . S
C324 C327 1.386 . S
H325 C341 0.930 . S
H326 C342 0.931 . S
C327 H315 0.929 . S
C327 C321 1.390 . S
C327 C324 1.386 . S
C328 C323 1.490 . S
C328 C330 1.395 1_655 S
C328 C331 1.403 1_554 S
H329 C335 0.930 . S
C330 H316 0.930 . S
C330 C328 1.395 1_455 S
C330 C333 1.403 . S
C331 C328 1.403 1_556 S
C331 C332 1.524 . S
C331 C335 1.400 . S
C332 H317 0.960 . S
C332 H318 0.960 . S
C332 H319 0.957 1_556 S
C332 C331 1.524 . S
C333 C330 1.403 . S
C333 C334 1.392 1_554 S
C333 C337 1.495 . S
C334 C333 1.392 1_556 S
C334 C335 1.385 1_455 S
C334 C336 1.478 . S
C335 H329 0.930 . S
C335 C331 1.400 . S
C335 C334 1.385 1_655 S
C336 C334 1.478 . S
C336 C338 1.381 . S
C336 C342 1.383 . S
C337 C333 1.495 . S
C337 H343 0.959 . S
C337 H344 0.961 . S
C337 H345 0.960 . S
C338 C336 1.381 . S
C338 C339 1.394 . S
C338 H346 0.930 . S
C339 C338 1.394 . S
C339 C340 1.383 . S
C339 H347 0.929 . S
C340 C339 1.383 . S
C340 C341 1.377 . S
C341 H325 0.930 . S
C341 C340 1.377 . S
C341 C342 1.379 . S
C342 H326 0.931 . S
C342 C336 1.383 . S
C342 C341 1.379 . S
H343 C337 0.959 . S
H344 C337 0.961 . S
H345 C337 0.960 . S
H346 C338 0.930 . S
H347 C339 0.929 . S
H348 C356 0.929 . S
H349 C358 0.930 . S
H350 C360 0.930 . S
H351 C363 0.929 . S
H352 C366 0.930 . S
H353 C368 0.960 . S
H354 C368 0.960 . S
H355 C368 0.960 . S
C356 H348 0.929 . S
C356 C357 1.377 . S
C356 C358 1.384 . S
C357 C356 1.377 . S
C357 C363 1.390 . S
C358 H349 0.930 . S
C358 C356 1.384 . S
C358 C359 1.372 . S
C359 C358 1.372 . S
C359 C360 1.400 . S
C359 C364 1.490 . S
C360 H350 0.930 . S
C360 C359 1.400 . S
C360 C363 1.386 . S
H361 C377 0.930 . S
H362 C378 0.931 . S
C363 H351 0.929 . S
C363 C357 1.390 . S
C363 C360 1.386 . S
C364 C359 1.490 . S
C364 C366 1.395 . S
C364 C367 1.403 1_545 S
H365 C371 0.930 . S
C366 H352 0.930 . S
C366 C364 1.395 . S
C366 C369 1.403 . S
C367 C364 1.403 1_565 S
C367 C368 1.524 . S
C367 C371 1.400 . S
C368 H353 0.960 . S
C368 H354 0.960 . S
C368 H355 0.960 . S
C368 C367 1.524 . S
C369 C366 1.403 . S
C369 C370 1.392 1_545 S
C369 C373 1.495 . S
C370 C369 1.392 1_565 S
C370 C371 1.385 . S
C370 C372 1.478 . S
C371 H365 0.930 . S
C371 C367 1.400 . S
C371 C370 1.385 . S
C372 C370 1.478 . S
C372 C374 1.381 . S
C372 C378 1.383 . S
C373 C369 1.495 . S
C373 H379 0.959 . S
C373 H380 0.961 . S
C373 H381 0.960 . S
C374 C372 1.381 . S
C374 C375 1.394 . S
C374 H382 0.930 . S
C375 C374 1.394 . S
C375 C376 1.383 . S
C375 H383 0.929 . S
C376 C375 1.383 . S
C376 C377 1.377 . S
C377 H361 0.930 . S
C377 C376 1.377 . S
C377 C378 1.379 . S
C378 H362 0.931 . S
C378 C372 1.383 . S
C378 C377 1.379 . S
H379 C373 0.959 . S
H380 C373 0.961 . S
H381 C373 0.960 . S
H382 C374 0.930 . S
H383 C375 0.929 . S
H384 C392 0.929 . S
H385 C394 0.930 . S
H386 C396 0.930 . S
H387 C399 0.929 . S
H388 C402 0.930 . S
H389 C404 0.960 . S
H390 C404 0.960 1_556 S
H391 C404 0.960 . S
C392 H384 0.929 . S
C392 C393 1.377 . S
C392 C394 1.384 . S
C393 C392 1.377 . S
C393 C399 1.390 . S
C394 H385 0.930 . S
C394 C392 1.384 . S
C394 C395 1.372 . S
C395 C394 1.372 . S
C395 C396 1.400 . S
C395 C400 1.490 . S
C396 H386 0.930 . S
C396 C395 1.400 . S
C396 C399 1.386 . S
H397 C413 0.930 . S
H398 C414 0.931 . S
C399 H387 0.929 . S
C399 C393 1.390 . S
C399 C396 1.386 . S
C400 C395 1.490 . S
C400 C402 1.395 . S
C400 C403 1.403 1_556 S
H401 C407 0.930 . S
C402 H388 0.930 . S
C402 C400 1.395 . S
C402 C405 1.403 . S
C403 C400 1.403 1_554 S
C403 C404 1.524 . S
C403 C407 1.400 . S
C404 H389 0.960 . S
C404 H390 0.960 1_554 S
C404 H391 0.960 . S
C404 C403 1.524 . S
C405 C402 1.403 . S
C405 C406 1.392 1_556 S
C405 C409 1.495 . S
C406 C405 1.392 1_554 S
C406 C407 1.385 . S
C406 C408 1.478 . S
C407 H401 0.930 . S
C407 C403 1.400 . S
C407 C406 1.385 . S
C408 C406 1.478 . S
C408 C410 1.381 . S
C408 C414 1.383 . S
C409 C405 1.495 . S
C409 H415 0.959 . S
C409 H416 0.959 1_556 S
C409 H417 0.960 . S
C410 C408 1.381 . S
C410 C411 1.394 . S
C410 H418 0.930 . S
C411 C410 1.394 . S
C411 C412 1.383 . S
C411 H419 0.929 . S
C412 C411 1.383 . S
C412 C413 1.377 . S
C413 H397 0.930 . S
C413 C412 1.377 . S
C413 C414 1.379 . S
C414 H398 0.931 . S
C414 C408 1.383 . S
C414 C413 1.379 . S
H415 C409 0.959 . S
H416 C409 0.959 1_554 S
H417 C409 0.960 . S
H418 C410 0.930 . S
H419 C411 0.929 . S
H420 C428 0.929 . S
H421 C430 0.930 . S
H422 C432 0.930 . S
H423 C435 0.929 . S
H424 C438 0.930 . S
H425 C440 0.929 1_455 S
H426 C440 0.950 1_455 S
H427 C440 0.987 . S
C428 H420 0.929 . S
C428 C429 1.377 . S
C428 C430 1.384 . S
C429 C428 1.377 . S
C429 C435 1.390 . S
C430 H421 0.930 . S
C430 C428 1.384 . S
C430 C431 1.372 . S
C431 C430 1.372 . S
C431 C432 1.400 . S
C431 C436 1.490 . S
C432 H422 0.930 . S
C432 C431 1.400 . S
C432 C435 1.386 . S
H433 C449 0.930 . S
H434 C450 0.931 . S
C435 H423 0.929 . S
C435 C429 1.390 . S
C435 C432 1.386 . S
C436 C431 1.490 . S
C436 C438 1.395 . S
C436 C439 1.403 1_655 S
H437 C443 0.930 . S
C438 H424 0.930 . S
C438 C436 1.395 . S
C438 C441 1.403 1_655 S
C439 C436 1.403 1_455 S
C439 C440 1.540 1_455 S
C439 C443 1.400 . S
C440 H425 0.929 1_655 S
C440 H426 0.950 1_655 S
C440 H427 0.987 . S
C440 C439 1.540 1_655 S
C441 C438 1.403 1_455 S
C441 C442 1.392 . S
C441 C445 1.495 . S
C442 C441 1.392 . S
C442 C443 1.385 . S
C442 C444 1.478 . S
C443 H437 0.930 . S
C443 C439 1.400 . S
C443 C442 1.385 . S
C444 C442 1.478 . S
C444 C446 1.381 . S
C444 C450 1.383 . S
C445 C441 1.495 . S
C445 H451 0.959 1_455 S
C445 H452 0.961 . S
C445 H453 0.960 . S
C446 C444 1.381 . S
C446 C447 1.394 . S
C446 H454 0.930 . S
C447 C446 1.394 . S
C447 C448 1.383 . S
C447 H455 0.929 . S
C448 C447 1.383 . S
C448 C449 1.377 . S
C449 H433 0.930 . S
C449 C448 1.377 . S
C449 C450 1.379 . S
C450 H434 0.931 . S
C450 C444 1.383 . S
C450 C449 1.379 . S
H451 C445 0.959 1_655 S
H452 C445 0.961 . S
H453 C445 0.960 . S
H454 C446 0.930 . S
H455 C447 0.929 . S
H456 C464 0.929 . S
H457 C466 0.930 . S
H458 C468 0.930 . S
H459 C471 0.929 . S
H460 C474 0.930 . S
H461 C476 0.960 . S
H462 C476 0.960 . S
H463 C476 0.960 . S
C464 H456 0.929 . S
C464 C465 1.377 . S
C464 C466 1.384 . S
C465 C464 1.377 . S
C465 C471 1.390 . S
C466 H457 0.930 . S
C466 C464 1.384 . S
C466 C467 1.372 . S
C467 C466 1.372 . S
C467 C468 1.400 . S
C467 C472 1.490 . S
C468 H458 0.930 . S
C468 C467 1.400 . S
C468 C471 1.386 . S
H469 C485 0.930 . S
H470 C486 0.931 . S
C471 H459 0.929 . S
C471 C465 1.390 . S
C471 C468 1.386 . S
C472 C467 1.490 . S
C472 C474 1.395 . S
C472 C475 1.403 . S
H473 C479 0.930 . S
C474 H460 0.930 . S
C474 C472 1.395 . S
C474 C477 1.403 . S
C475 C472 1.403 . S
C475 C476 1.524 . S
C475 C479 1.400 . S
C476 H461 0.960 . S
C476 H462 0.960 . S
C476 H463 0.960 . S
C476 C475 1.524 . S
C477 C474 1.403 . S
C477 C478 1.392 . S
C477 C481 1.495 . S
C478 C477 1.392 . S
C478 C479 1.385 . S
C478 C480 1.478 . S
C479 H473 0.930 . S
C479 C475 1.400 . S
C479 C478 1.385 . S
C480 C478 1.478 . S
C480 C482 1.381 . S
C480 C486 1.383 . S
C481 C477 1.495 . S
C481 H487 0.959 . S
C481 H488 0.961 . S
C481 H489 0.960 . S
C482 C480 1.381 . S
C482 C483 1.394 . S
C482 H490 0.930 . S
C483 C482 1.394 . S
C483 C484 1.383 . S
C483 H491 0.929 . S
C484 C483 1.383 . S
C484 C485 1.377 . S
C485 H469 0.930 . S
C485 C484 1.377 . S
C485 C486 1.379 . S
C486 H470 0.931 . S
C486 C480 1.383 . S
C486 C485 1.379 . S
H487 C481 0.959 . S
H488 C481 0.961 . S
H489 C481 0.960 . S
H490 C482 0.930 . S
H491 C483 0.929 . S
H492 C500 0.929 . S
H493 C502 0.930 . S
H494 C504 0.930 . S
H495 C507 0.929 . S
H496 C510 0.930 . S
H497 C512 0.960 . S
H498 C512 0.960 . S
H499 C512 0.960 . S
C500 H492 0.929 . S
C500 C501 1.377 . S
C500 C502 1.384 . S
C501 C500 1.377 . S
C501 C507 1.390 . S
C502 H493 0.930 . S
C502 C500 1.384 . S
C502 C503 1.372 . S
C503 C502 1.372 . S
C503 C504 1.400 . S
C503 C508 1.490 . S
C504 H494 0.930 . S
C504 C503 1.400 . S
C504 C507 1.386 . S
H505 C521 0.930 . S
H506 C522 0.931 . S
C507 H495 0.929 . S
C507 C501 1.390 . S
C507 C504 1.386 . S
C508 C503 1.490 . S
C508 C510 1.395 . S
C508 C511 1.403 . S
H509 C515 0.930 . S
C510 H496 0.930 . S
C510 C508 1.395 . S
C510 C513 1.403 . S
C511 C508 1.403 . S
C511 C512 1.524 . S
C511 C515 1.400 . S
C512 H497 0.960 . S
C512 H498 0.960 . S
C512 H499 0.960 . S
C512 C511 1.524 . S
C513 C510 1.403 . S
C513 C514 1.392 . S
C513 C517 1.495 . S
C514 C513 1.392 . S
C514 C515 1.385 . S
C514 C516 1.478 . S
C515 H509 0.930 . S
C515 C511 1.400 . S
C515 C514 1.385 . S
C516 C514 1.478 . S
C516 C518 1.381 . S
C516 C522 1.383 . S
C517 C513 1.495 . S
C517 H523 0.959 . S
C517 H524 0.961 . S
C517 H525 0.960 . S
C518 C516 1.381 . S
C518 C519 1.394 . S
C518 H526 0.930 . S
C519 C518 1.394 . S
C519 C520 1.383 . S
C519 H527 0.929 . S
C520 C519 1.383 . S
C520 C521 1.377 . S
C521 H505 0.930 . S
C521 C520 1.377 . S
C521 C522 1.379 . S
C522 H506 0.931 . S
C522 C516 1.383 . S
C522 C521 1.379 . S
H523 C517 0.959 . S
H524 C517 0.961 . S
H525 C517 0.960 . S
H526 C518 0.930 . S
H527 C519 0.929 . S
H528 C536 0.929 . S
H529 C538 0.930 . S
H530 C540 0.930 . S
H531 C543 0.929 . S
H532 C546 0.930 . S
H533 C548 0.960 . S
H534 C548 0.960 . S
H535 C548 0.960 . S
C536 H528 0.929 . S
C536 C537 1.377 . S
C536 C538 1.384 . S
C537 C536 1.377 . S
C537 C543 1.390 . S
C538 H529 0.930 . S
C538 C536 1.384 . S
C538 C539 1.372 . S
C539 C538 1.372 . S
C539 C540 1.400 . S
C539 C544 1.490 . S
C540 H530 0.930 . S
C540 C539 1.400 . S
C540 C543 1.386 . S
H541 C557 0.930 . S
H542 C558 0.931 . S
C543 H531 0.929 . S
C543 C537 1.390 . S
C543 C540 1.386 . S
C544 C539 1.490 . S
C544 C546 1.395 . S
C544 C547 1.403 . S
H545 C551 0.930 . S
C546 H532 0.930 . S
C546 C544 1.395 . S
C546 C549 1.403 . S
C547 C544 1.403 . S
C547 C548 1.524 . S
C547 C551 1.400 . S
C548 H533 0.960 . S
C548 H534 0.960 . S
C548 H535 0.960 . S
C548 C547 1.524 . S
C549 C546 1.403 . S
C549 C550 1.392 . S
C549 C553 1.495 . S
C550 C549 1.392 . S
C550 C551 1.385 . S
C550 C552 1.478 . S
C551 H545 0.930 . S
C551 C547 1.400 . S
C551 C550 1.385 . S
C552 C550 1.478 . S
C552 C554 1.381 . S
C552 C558 1.383 . S
C553 C549 1.495 . S
C553 H559 0.959 . S
C553 H560 0.961 . S
C553 H561 0.960 . S
C554 C552 1.381 . S
C554 C555 1.394 . S
C554 H562 0.930 . S
C555 C554 1.394 . S
C555 C556 1.383 . S
C555 H563 0.929 . S
C556 C555 1.383 . S
C556 C557 1.377 . S
C557 H541 0.930 . S
C557 C556 1.377 . S
C557 C558 1.379 . S
C558 H542 0.931 . S
C558 C552 1.383 . S
C558 C557 1.379 . S
H559 C553 0.959 . S
H560 C553 0.961 . S
H561 C553 0.960 . S
H562 C554 0.930 . S
H563 C555 0.929 . S
H564 C572 0.929 . S
H565 C574 0.930 . S
H566 C576 0.930 . S
H567 C579 0.929 . S
H568 C582 0.930 . S
H569 C584 0.960 . S
H570 C584 0.960 . S
H571 C584 0.960 . S
C572 H564 0.929 . S
C572 C573 1.377 . S
C572 C574 1.384 . S
C573 C572 1.377 . S
C573 C579 1.390 . S
C574 H565 0.930 . S
C574 C572 1.384 . S
C574 C575 1.372 . S
C575 C574 1.372 . S
C575 C576 1.400 . S
C575 C580 1.490 . S
C576 H566 0.930 . S
C576 C575 1.400 . S
C576 C579 1.386 . S
H577 C593 0.930 . S
H578 C594 0.931 . S
C579 H567 0.929 . S
C579 C573 1.390 . S
C579 C576 1.386 . S
C580 C575 1.490 . S
C580 C582 1.395 . S
C580 C583 1.403 . S
H581 C587 0.930 . S
C582 H568 0.930 . S
C582 C580 1.395 . S
C582 C585 1.403 . S
C583 C580 1.403 . S
C583 C584 1.524 . S
C583 C587 1.400 . S
C584 H569 0.960 . S
C584 H570 0.960 . S
C584 H571 0.960 . S
C584 C583 1.524 . S
C585 C582 1.403 . S
C585 C586 1.392 . S
C585 C589 1.495 . S
C586 C585 1.392 . S
C586 C587 1.385 . S
C586 C588 1.478 . S
C587 H581 0.930 . S
C587 C583 1.400 . S
C587 C586 1.385 . S
C588 C586 1.478 . S
C588 C590 1.381 . S
C588 C594 1.383 . S
C589 C585 1.495 . S
C589 H595 0.959 . S
C589 H596 0.961 . S
C589 H597 0.960 . S
C590 C588 1.381 . S
C590 C591 1.394 . S
C590 H598 0.930 . S
C591 C590 1.394 . S
C591 C592 1.383 . S
C591 H599 0.929 . S
C592 C591 1.383 . S
C592 C593 1.377 . S
C593 H577 0.930 . S
C593 C592 1.377 . S
C593 C594 1.379 . S
C594 H578 0.931 . S
C594 C588 1.383 . S
C594 C593 1.379 . S
H595 C589 0.959 . S
H596 C589 0.961 . S
H597 C589 0.960 . S
H598 C590 0.930 . S
H599 C591 0.929 . S
H600 C608 0.929 . S
H601 C610 0.930 . S
H602 C612 0.930 . S
H603 C615 0.929 . S
H604 C618 0.930 . S
H605 C620 0.960 . S
H606 C620 0.960 . S
H607 C620 0.960 . S
C608 H600 0.929 . S
C608 C609 1.377 . S
C608 C610 1.384 . S
C609 C608 1.377 . S
C609 C615 1.390 . S
C610 H601 0.930 . S
C610 C608 1.384 . S
C610 C611 1.372 . S
C611 C610 1.372 . S
C611 C612 1.400 . S
C611 C616 1.490 . S
C612 H602 0.930 . S
C612 C611 1.400 . S
C612 C615 1.386 . S
H613 C629 0.930 . S
H614 C630 0.931 . S
C615 H603 0.929 . S
C615 C609 1.390 . S
C615 C612 1.386 . S
C616 C611 1.490 . S
C616 C618 1.395 . S
C616 C619 1.403 . S
H617 C623 0.930 . S
C618 H604 0.930 . S
C618 C616 1.395 . S
C618 C621 1.403 . S
C619 C616 1.403 . S
C619 C620 1.524 . S
C619 C623 1.400 . S
C620 H605 0.960 . S
C620 H606 0.960 . S
C620 H607 0.960 . S
C620 C619 1.524 . S
C621 C618 1.403 . S
C621 C622 1.392 . S
C621 C625 1.495 . S
C622 C621 1.392 . S
C622 C623 1.385 . S
C622 C624 1.478 . S
C623 H617 0.930 . S
C623 C619 1.400 . S
C623 C622 1.385 . S
C624 C622 1.478 . S
C624 C626 1.381 . S
C624 C630 1.383 . S
C625 C621 1.495 . S
C625 H631 0.959 . S
C625 H632 0.961 . S
C625 H633 0.960 . S
C626 C624 1.381 . S
C626 C627 1.394 . S
C626 H634 0.930 . S
C627 C626 1.394 . S
C627 C628 1.383 . S
C627 H635 0.929 . S
C628 C627 1.383 . S
C628 C629 1.377 . S
C629 H613 0.930 . S
C629 C628 1.377 . S
C629 C630 1.379 . S
C630 H614 0.931 . S
C630 C624 1.383 . S
C630 C629 1.379 . S
H631 C625 0.959 . S
H632 C625 0.961 . S
H633 C625 0.960 . S
H634 C626 0.930 . S
H635 C627 0.929 . S
H636 C644 0.929 . S
H637 C646 0.930 . S
H638 C648 0.930 . S
H639 C651 0.929 . S
H640 C654 0.930 . S
H641 C656 0.960 . S
H642 C656 0.960 . S
H643 C656 0.960 . S
C644 H636 0.929 . S
C644 C645 1.377 . S
C644 C646 1.384 . S
C645 C644 1.377 . S
C645 C651 1.390 . S
C646 H637 0.930 . S
C646 C644 1.384 . S
C646 C647 1.372 . S
C647 C646 1.372 . S
C647 C648 1.400 . S
C647 C652 1.490 . S
C648 H638 0.930 . S
C648 C647 1.400 . S
C648 C651 1.386 . S
H649 C665 0.930 . S
H650 C666 0.931 . S
C651 H639 0.929 . S
C651 C645 1.390 . S
C651 C648 1.386 . S
C652 C647 1.490 . S
C652 C654 1.395 . S
C652 C655 1.403 . S
H653 C659 0.930 . S
C654 H640 0.930 . S
C654 C652 1.395 . S
C654 C657 1.403 . S
C655 C652 1.403 . S
C655 C656 1.524 . S
C655 C659 1.400 . S
C656 H641 0.960 . S
C656 H642 0.960 . S
C656 H643 0.960 . S
C656 C655 1.524 . S
C657 C654 1.403 . S
C657 C658 1.392 . S
C657 C661 1.495 . S
C658 C657 1.392 . S
C658 C659 1.385 . S
C658 C660 1.478 . S
C659 H653 0.930 . S
C659 C655 1.400 . S
C659 C658 1.385 . S
C660 C658 1.478 . S
C660 C662 1.381 . S
C660 C666 1.383 . S
C661 C657 1.495 . S
C661 H667 0.959 . S
C661 H668 0.961 . S
C661 H669 0.960 . S
C662 C660 1.381 . S
C662 C663 1.394 . S
C662 H670 0.930 . S
C663 C662 1.394 . S
C663 C664 1.383 . S
C663 H671 0.929 . S
C664 C663 1.383 . S
C664 C665 1.377 . S
C665 H649 0.930 . S
C665 C664 1.377 . S
C665 C666 1.379 . S
C666 H650 0.931 . S
C666 C660 1.383 . S
C666 C665 1.379 . S
H667 C661 0.959 . S
H668 C661 0.961 . S
H669 C661 0.960 . S
H670 C662 0.930 . S
H671 C663 0.929 . S
H672 C680 0.929 . S
H673 C682 0.930 . S
H674 C684 0.930 . S
H675 C687 0.929 . S
H676 C690 0.930 . S
H677 C692 0.960 . S
H678 C692 0.960 . S
H679 C692 0.960 . S
C680 H672 0.929 . S
C680 C681 1.377 . S
C680 C682 1.384 . S
C681 C680 1.377 . S
C681 C687 1.390 . S
C682 H673 0.930 . S
C682 C680 1.384 . S
C682 C683 1.372 . S
C683 C682 1.372 . S
C683 C684 1.400 . S
C683 C688 1.490 . S
C684 H674 0.930 . S
C684 C683 1.400 . S
C684 C687 1.386 . S
H685 C701 0.930 . S
H686 C702 0.931 . S
C687 H675 0.929 . S
C687 C681 1.390 . S
C687 C684 1.386 . S
C688 C683 1.490 . S
C688 C690 1.395 . S
C688 C691 1.403 . S
H689 C695 0.930 . S
C690 H676 0.930 . S
C690 C688 1.395 . S
C690 C693 1.403 . S
C691 C688 1.403 . S
C691 C692 1.524 . S
C691 C695 1.400 . S
C692 H677 0.960 . S
C692 H678 0.960 . S
C692 H679 0.960 . S
C692 C691 1.524 . S
C693 C690 1.403 . S
C693 C694 1.392 . S
C693 C697 1.495 1_455 S
C694 C693 1.392 . S
C694 C695 1.385 . S
C694 C696 1.478 . S
C695 H689 0.930 . S
C695 C691 1.400 . S
C695 C694 1.385 . S
C696 C694 1.478 . S
C696 C698 1.381 1_455 S
C696 C702 1.383 1_455 S
C697 C693 1.495 1_655 S
C697 H703 0.959 . S
C697 H704 0.961 . S
C697 H705 0.960 . S
C698 C696 1.381 1_655 S
C698 C699 1.394 . S
C698 H706 0.914 1_655 S
C699 C698 1.394 . S
C699 C700 1.383 . S
C699 H707 0.929 . S
C700 C699 1.383 . S
C700 C701 1.377 . S
C701 H685 0.930 . S
C701 C700 1.377 . S
C701 C702 1.379 . S
C702 H686 0.931 . S
C702 C696 1.383 1_655 S
C702 C701 1.379 . S
H703 C697 0.959 . S
H704 C697 0.961 . S
H705 C697 0.960 . S
H706 C698 0.914 1_455 S
H707 C699 0.929 . S
H708 C716 0.929 . S
H709 C718 0.930 . S
H710 C720 0.930 . S
H711 C723 0.929 . S
H712 C726 0.930 . S
H713 C728 0.960 . S
H714 C728 0.960 . S
H715 C728 0.960 . S
C716 H708 0.929 . S
C716 C717 1.377 . S
C716 C718 1.384 1_655 S
C717 C716 1.377 . S
C717 C723 1.390 . S
C718 H709 0.930 . S
C718 C716 1.384 1_455 S
C718 C719 1.372 . S
C719 C718 1.372 . S
C719 C720 1.400 . S
C719 C724 1.490 . S
C720 H710 0.930 . S
C720 C719 1.400 . S
C720 C723 1.386 1_455 S
H721 C737 0.930 . S
H722 C738 0.931 . S
C723 H711 0.929 . S
C723 C717 1.390 . S
C723 C720 1.386 1_655 S
C724 C719 1.490 . S
C724 C726 1.395 . S
C724 C727 1.403 . S
H725 C731 0.930 . S
C726 H712 0.930 . S
C726 C724 1.395 . S
C726 C729 1.403 . S
C727 C724 1.403 . S
C727 C728 1.524 . S
C727 C731 1.400 . S
C728 H713 0.960 . S
C728 H714 0.960 . S
C728 H715 0.960 . S
C728 C727 1.524 . S
C729 C726 1.403 . S
C729 C730 1.392 . S
C729 C733 1.495 1_565 S
C730 C729 1.392 . S
C730 C731 1.385 . S
C730 C732 1.478 . S
C731 H725 0.930 . S
C731 C727 1.400 . S
C731 C730 1.385 . S
C732 C730 1.478 . S
C732 C734 1.381 1_565 S
C732 C738 1.382 . S
C733 C729 1.495 1_545 S
C733 H739 0.959 . S
C733 H740 0.961 . S
C733 H741 0.960 . S
C734 C732 1.381 1_545 S
C734 C735 1.394 . S
C734 H742 0.930 . S
C735 C734 1.394 . S
C735 C736 1.383 . S
C735 H743 0.929 . S
C736 C735 1.383 . S
C736 C737 1.377 . S
C737 H721 0.930 . S
C737 C736 1.377 . S
C737 C738 1.379 1_545 S
C738 H722 0.931 . S
C738 C732 1.382 . S
C738 C737 1.379 1_565 S
H739 C733 0.959 . S
H740 C733 0.961 . S
H741 C733 0.960 . S
H742 C734 0.930 . S
H743 C735 0.929 . S
H744 C752 0.929 . S
H745 C754 0.930 . S
H746 C756 0.930 . S
H747 C759 0.929 . S
H748 C762 0.930 . S
H749 C764 0.960 . S
H750 C764 0.960 . S
H751 C764 0.960 . S
C752 H744 0.929 . S
C752 C753 1.377 . S
C752 C754 1.384 1_545 S
C753 C752 1.377 . S
C753 C759 1.390 . S
C754 H745 0.930 . S
C754 C752 1.384 1_565 S
C754 C755 1.372 . S
C755 C754 1.372 . S
C755 C756 1.400 . S
C755 C760 1.490 . S
C756 H746 0.930 . S
C756 C755 1.400 . S
C756 C759 1.386 1_565 S
H757 C773 0.930 . S
H758 C774 0.931 . S
C759 H747 0.929 . S
C759 C753 1.390 . S
C759 C756 1.386 1_545 S
C760 C755 1.490 . S
C760 C762 1.395 . S
C760 C763 1.403 . S
H761 C767 0.930 . S
C762 H748 0.930 . S
C762 C760 1.395 . S
C762 C765 1.403 . S
C763 C760 1.403 . S
C763 C764 1.524 . S
C763 C767 1.400 . S
C764 H749 0.960 . S
C764 H750 0.960 . S
C764 H751 0.960 . S
C764 C763 1.524 . S
C765 C762 1.403 . S
C765 C766 1.392 . S
C765 C769 1.495 . S
C766 C765 1.392 . S
C766 C767 1.385 . S
C766 C768 1.478 . S
C767 H761 0.930 . S
C767 C763 1.400 . S
C767 C766 1.385 . S
C768 C766 1.478 . S
C768 C770 1.381 . S
C768 C774 1.383 . S
C769 C765 1.495 . S
C769 H775 0.959 . S
C769 H776 0.961 . S
C769 H777 0.960 . S
C770 C768 1.381 . S
C770 C771 1.394 . S
C770 H778 0.930 . S
C771 C770 1.394 . S
C771 C772 1.383 . S
C771 H779 0.929 . S
C772 C771 1.383 . S
C772 C773 1.377 . S
C773 H757 0.930 . S
C773 C772 1.377 . S
C773 C774 1.379 . S
C774 H758 0.931 . S
C774 C768 1.383 . S
C774 C773 1.379 . S
H775 C769 0.959 . S
H776 C769 0.961 . S
H777 C769 0.960 . S
H778 C770 0.930 . S
H779 C771 0.929 . S
H780 C788 0.929 . S
H781 C790 0.930 . S
H782 C792 0.930 . S
H783 C795 0.929 . S
H784 C798 0.930 . S
H785 C800 0.960 . S
H786 C800 0.960 . S
H787 C800 0.960 . S
C788 H780 0.929 . S
C788 C789 1.377 . S
C788 C790 1.384 . S
C789 C788 1.377 . S
C789 C795 1.390 . S
C790 H781 0.930 . S
C790 C788 1.384 . S
C790 C791 1.372 . S
C791 C790 1.372 . S
C791 C792 1.400 . S
C791 C796 1.490 . S
C792 H782 0.930 . S
C792 C791 1.400 . S
C792 C795 1.386 . S
H793 C809 0.930 . S
H794 C810 0.930 1_545 S
C795 H783 0.929 . S
C795 C789 1.390 . S
C795 C792 1.386 . S
C796 C791 1.490 . S
C796 C798 1.395 . S
C796 C799 1.403 . S
H797 C803 0.930 . S
C798 H784 0.930 . S
C798 C796 1.395 . S
C798 C801 1.403 . S
C799 C796 1.403 . S
C799 C800 1.524 . S
C799 C803 1.400 . S
C800 H785 0.960 . S
C800 H786 0.960 . S
C800 H787 0.960 . S
C800 C799 1.524 . S
C801 C798 1.403 . S
C801 C802 1.392 . S
C801 C805 1.495 1_545 S
C802 C801 1.392 . S
C802 C803 1.385 . S
C802 C804 1.478 . S
C803 H797 0.930 . S
C803 C799 1.400 . S
C803 C802 1.385 . S
C804 C802 1.478 . S
C804 C806 1.381 1_545 S
C804 C810 1.382 1_545 S
C805 C801 1.495 1_565 S
C805 H811 0.959 . S
C805 H812 0.961 . S
C805 H813 0.960 . S
C806 C804 1.381 1_565 S
C806 C807 1.394 . S
C806 H814 0.930 . S
C807 C806 1.394 . S
C807 C808 1.383 . S
C807 H815 0.929 . S
C808 C807 1.383 . S
C808 C809 1.377 . S
C809 H793 0.930 . S
C809 C808 1.377 . S
C809 C810 1.382 . S
C810 H794 0.930 1_565 S
C810 C804 1.382 1_565 S
C810 C809 1.382 . S
H811 C805 0.959 . S
H812 C805 0.961 . S
H813 C805 0.960 . S
H814 C806 0.930 . S
H815 C807 0.929 . S
H816 C824 0.929 . S
H817 C826 0.930 . S
H818 C828 0.930 . S
H819 C831 0.929 . S
H820 C834 0.930 . S
H821 C836 0.960 . S
H822 C836 0.960 . S
H823 C836 0.960 . S
C824 H816 0.929 . S
C824 C825 1.377 . S
C824 C826 1.384 1_455 S
C825 C824 1.377 . S
C825 C831 1.390 . S
C826 H817 0.930 . S
C826 C824 1.384 1_655 S
C826 C827 1.372 . S
C827 C826 1.372 . S
C827 C828 1.400 . S
C827 C832 1.490 . S
C828 H818 0.930 . S
C828 C827 1.400 . S
C828 C831 1.386 1_655 S
H829 C845 0.930 . S
H830 C846 0.931 . S
C831 H819 0.929 . S
C831 C825 1.390 . S
C831 C828 1.386 1_455 S
C832 C827 1.490 . S
C832 C834 1.395 . S
C832 C835 1.403 . S
H833 C839 0.930 . S
C834 H820 0.930 . S
C834 C832 1.395 . S
C834 C837 1.403 . S
C835 C832 1.403 . S
C835 C836 1.524 . S
C835 C839 1.400 . S
C836 H821 0.960 . S
C836 H822 0.960 . S
C836 H823 0.960 . S
C836 C835 1.524 . S
C837 C834 1.403 . S
C837 C838 1.392 . S
C837 C841 1.495 . S
C838 C837 1.392 . S
C838 C839 1.385 . S
C838 C840 1.478 . S
C839 H833 0.930 . S
C839 C835 1.400 . S
C839 C838 1.385 . S
C840 C838 1.478 . S
C840 C842 1.381 . S
C840 C846 1.383 . S
C841 C837 1.495 . S
C841 H847 0.959 . S
C841 H848 0.961 . S
C841 H849 0.960 . S
C842 C840 1.381 . S
C842 C843 1.394 . S
C842 H850 0.930 . S
C843 C842 1.394 . S
C843 C844 1.383 . S
C843 H851 0.929 . S
C844 C843 1.383 . S
C844 C845 1.377 . S
C845 H829 0.930 . S
C845 C844 1.377 . S
C845 C846 1.379 . S
C846 H830 0.931 . S
C846 C840 1.383 . S
C846 C845 1.379 . S
H847 C841 0.959 . S
H848 C841 0.961 . S
H849 C841 0.960 . S
H850 C842 0.930 . S
H851 C843 0.929 . S
H852 C860 0.929 . S
H853 C862 0.930 . S
H854 C864 0.930 . S
H855 C867 0.929 . S
H856 C870 0.930 . S
H857 C872 0.960 . S
H858 C872 0.960 . S
H859 C872 0.960 . S
C860 H852 0.929 . S
C860 C861 1.377 . S
C860 C862 1.384 . S
C861 C860 1.377 . S
C861 C867 1.390 1_455 S
C862 H853 0.930 . S
C862 C860 1.384 . S
C862 C863 1.372 1_455 S
C863 C862 1.372 1_655 S
C863 C864 1.400 . S
C863 C868 1.490 . S
C864 H854 0.930 . S
C864 C863 1.400 . S
C864 C867 1.386 . S
H865 C881 0.930 . S
H866 C882 0.931 . S
C867 H855 0.929 . S
C867 C861 1.390 1_655 S
C867 C864 1.386 . S
C868 C863 1.490 . S
C868 C870 1.395 . S
C868 C871 1.403 . S
H869 C875 0.930 . S
C870 H856 0.930 . S
C870 C868 1.395 . S
C870 C873 1.403 . S
C871 C868 1.403 . S
C871 C872 1.524 . S
C871 C875 1.400 . S
C872 H857 0.960 . S
C872 H858 0.960 . S
C872 H859 0.960 . S
C872 C871 1.524 . S
C873 C870 1.403 . S
C873 C874 1.392 . S
C873 C877 1.495 . S
C874 C873 1.392 . S
C874 C875 1.385 . S
C874 C876 1.478 . S
C875 H869 0.930 . S
C875 C871 1.400 . S
C875 C874 1.385 . S
C876 C874 1.478 . S
C876 C878 1.381 . S
C876 C882 1.383 . S
C877 C873 1.495 . S
C877 H883 0.959 . S
C877 H884 0.961 . S
C877 H885 0.960 . S
C878 C876 1.381 . S
C878 C879 1.394 1_545 S
C878 H886 0.930 . S
C879 C878 1.394 1_565 S
C879 C880 1.383 . S
C879 H887 0.929 . S
C880 C879 1.383 . S
C880 C881 1.377 . S
C881 H865 0.930 . S
C881 C880 1.377 . S
C881 C882 1.379 1_565 S
C882 H866 0.931 . S
C882 C876 1.383 . S
C882 C881 1.379 1_545 S
H883 C877 0.959 . S
H884 C877 0.961 . S
H885 C877 0.960 . S
H886 C878 0.930 . S
H887 C879 0.929 . S
C249 C162 2.480 . S
C268 C2 2.310 . S
C285 C217 2.339 . S
C304 C57 2.474 . S
C321 C82 2.334 . S
C340 C122 2.491 . S
C357 C17 2.487 . S
C376 C177 2.323 . S
C393 C202 2.487 . S
C412 C42 2.356 . S
C429 C97 2.481 . S
C448 C137 2.309 . S
C465 C29 1.902 . S
C484 C92 1.847 . S
C501 C69 1.902 . S
C520 C12 1.846 . S
C537 C109 1.902 . S
C556 C52 1.880 . S
C573 C128 1.901 . S
C592 C191 1.857 . S
C609 C168 1.901 . S
C628 C231 1.854 . S
C645 C151 1.867 . S
C664 C208 1.897 . S
C681 C8 0.984 . S
C700 C111 0.998 . S
C717 C48 0.987 . S
C736 C31 0.998 . S
C753 C88 0.993 . S
C772 C71 1.048 . S
C789 C149 0.982 . S
C808 C172 0.998 . S
C825 C189 0.996 . S
C844 C212 1.015 . S
C861 C132 1.020 . S
C880 C229 0.984 . S
