# Generated by pormake.
# Topology fnc, (5)-cn, num edge types: 1
# Building blocks:
#     Node 0, Type 0, BuildingBlock: BEQFEK_clean_sbu_0, # of connection points: 5
#     Node 1, Type 0, BuildingBlock: BEQFEK_clean_sbu_0, # of connection points: 5
#     Node 2, Type 0, BuildingBlock: BEQFEK_clean_sbu_0, # of connection points: 5
#     Node 3, Type 0, BuildingBlock: BEQFEK_clean_sbu_0, # of connection points: 5
#     Node 4, Type 0, BuildingBlock: BEQFEK_clean_sbu_0, # of connection points: 5
#     Node 5, Type 0, BuildingBlock: BEQFEK_clean_sbu_0, # of connection points: 5
#     Node 6, Type 0, BuildingBlock: BEQFEK_clean_sbu_0, # of connection points: 5
#     Node 7, Type 0, BuildingBlock: BEQFEK_clean_sbu_0, # of connection points: 5
#     Node 8, Type 0, BuildingBlock: BEQFEK_clean_sbu_0, # of connection points: 5
#     Node 9, Type 0, BuildingBlock: BEQFEK_clean_sbu_0, # of connection points: 5
#     Node 10, Type 0, BuildingBlock: BEQFEK_clean_sbu_0, # of connection points: 5
#     Node 11, Type 0, BuildingBlock: BEQFEK_clean_sbu_0, # of connection points: 5
#     Node 12, Type 0, BuildingBlock: BEQFEK_clean_sbu_0, # of connection points: 5
#     Node 13, Type 0, BuildingBlock: BEQFEK_clean_sbu_0, # of connection points: 5
#     Node 14, Type 0, BuildingBlock: BEQFEK_clean_sbu_0, # of connection points: 5
#     Node 15, Type 0, BuildingBlock: BEQFEK_clean_sbu_0, # of connection points: 5
#     Node 16, Type 0, BuildingBlock: BEQFEK_clean_sbu_0, # of connection points: 5
#     Node 17, Type 0, BuildingBlock: BEQFEK_clean_sbu_0, # of connection points: 5
#     Edge 18, Type (0, 0), BuildingBlock: XIVTED_clean_linker_0, # of connection points: 2
#     Edge 19, Type (0, 0), BuildingBlock: XIVTED_clean_linker_0, # of connection points: 2
#     Edge 20, Type (0, 0), BuildingBlock: XIVTED_clean_linker_0, # of connection points: 2
#     Edge 21, Type (0, 0), BuildingBlock: XIVTED_clean_linker_0, # of connection points: 2
#     Edge 22, Type (0, 0), BuildingBlock: XIVTED_clean_linker_0, # of connection points: 2
#     Edge 23, Type (0, 0), BuildingBlock: XIVTED_clean_linker_0, # of connection points: 2
#     Edge 24, Type (0, 0), BuildingBlock: XIVTED_clean_linker_0, # of connection points: 2
#     Edge 25, Type (0, 0), BuildingBlock: XIVTED_clean_linker_0, # of connection points: 2
#     Edge 26, Type (0, 0), BuildingBlock: XIVTED_clean_linker_0, # of connection points: 2
#     Edge 27, Type (0, 0), BuildingBlock: XIVTED_clean_linker_0, # of connection points: 2
#     Edge 28, Type (0, 0), BuildingBlock: XIVTED_clean_linker_0, # of connection points: 2
#     Edge 29, Type (0, 0), BuildingBlock: XIVTED_clean_linker_0, # of connection points: 2
#     Edge 30, Type (0, 0), BuildingBlock: XIVTED_clean_linker_0, # of connection points: 2
#     Edge 31, Type (0, 0), BuildingBlock: XIVTED_clean_linker_0, # of connection points: 2
#     Edge 32, Type (0, 0), BuildingBlock: XIVTED_clean_linker_0, # of connection points: 2
#     Edge 33, Type (0, 0), BuildingBlock: XIVTED_clean_linker_0, # of connection points: 2
#     Edge 34, Type (0, 0), BuildingBlock: XIVTED_clean_linker_0, # of connection points: 2
#     Edge 35, Type (0, 0), BuildingBlock: XIVTED_clean_linker_0, # of connection points: 2
#     Edge 36, Type (0, 0), BuildingBlock: XIVTED_clean_linker_0, # of connection points: 2
#     Edge 37, Type (0, 0), BuildingBlock: XIVTED_clean_linker_0, # of connection points: 2
#     Edge 38, Type (0, 0), BuildingBlock: XIVTED_clean_linker_0, # of connection points: 2
#     Edge 39, Type (0, 0), BuildingBlock: XIVTED_clean_linker_0, # of connection points: 2
#     Edge 40, Type (0, 0), BuildingBlock: XIVTED_clean_linker_0, # of connection points: 2
#     Edge 41, Type (0, 0), BuildingBlock: XIVTED_clean_linker_0, # of connection points: 2
#     Edge 42, Type (0, 0), BuildingBlock: XIVTED_clean_linker_0, # of connection points: 2
#     Edge 43, Type (0, 0), BuildingBlock: XIVTED_clean_linker_0, # of connection points: 2
#     Edge 44, Type (0, 0), BuildingBlock: XIVTED_clean_linker_0, # of connection points: 2
#     Edge 45, Type (0, 0), BuildingBlock: XIVTED_clean_linker_0, # of connection points: 2
#     Edge 46, Type (0, 0), BuildingBlock: XIVTED_clean_linker_0, # of connection points: 2
#     Edge 47, Type (0, 0), BuildingBlock: XIVTED_clean_linker_0, # of connection points: 2
#     Edge 48, Type (0, 0), BuildingBlock: XIVTED_clean_linker_0, # of connection points: 2
#     Edge 49, Type (0, 0), BuildingBlock: XIVTED_clean_linker_0, # of connection points: 2
#     Edge 50, Type (0, 0), BuildingBlock: XIVTED_clean_linker_0, # of connection points: 2
#     Edge 51, Type (0, 0), BuildingBlock: XIVTED_clean_linker_0, # of connection points: 2
#     Edge 52, Type (0, 0), BuildingBlock: XIVTED_clean_linker_0, # of connection points: 2
#     Edge 53, Type (0, 0), BuildingBlock: XIVTED_clean_linker_0, # of connection points: 2
#     Edge 54, Type (0, 0), BuildingBlock: XIVTED_clean_linker_0, # of connection points: 2
#     Edge 55, Type (0, 0), BuildingBlock: XIVTED_clean_linker_0, # of connection points: 2
#     Edge 56, Type (0, 0), BuildingBlock: XIVTED_clean_linker_0, # of connection points: 2
#     Edge 57, Type (0, 0), BuildingBlock: XIVTED_clean_linker_0, # of connection points: 2
#     Edge 58, Type (0, 0), BuildingBlock: XIVTED_clean_linker_0, # of connection points: 2
#     Edge 59, Type (0, 0), BuildingBlock: XIVTED_clean_linker_0, # of connection points: 2
#     Edge 60, Type (0, 0), BuildingBlock: XIVTED_clean_linker_0, # of connection points: 2
#     Edge 61, Type (0, 0), BuildingBlock: XIVTED_clean_linker_0, # of connection points: 2
#     Edge 62, Type (0, 0), BuildingBlock: XIVTED_clean_linker_0, # of connection points: 2
# Relax obj value: 0.265
# Max RMSD: 0.290
# Mean RMSD: 0.263
data_MOF--net-fnc--node1-BEQFEK_clean_sbu_0--edge1-XIVTED_clean_linker_0
_symmetry_space_group_name_H-M    P1
_symmetry_Int_Tables_number       1
_symmetry_cell_setting            triclinic
loop_
_symmetry_equiv_pos_as_xyz
'x, y, z'
_cell_length_a     93.70962
_cell_length_b     102.12187
_cell_length_c     18.655391
_cell_angle_alpha  89.064337
_cell_angle_beta   92.134471
_cell_angle_gamma 128.03378
loop_
_atom_site_label
_atom_site_type_symbol
_atom_site_fract_x
_atom_site_fract_y
_atom_site_fract_z
_atom_type_partial_charge
Co0 Co 0.06982 0.49236 0.0344 0.0
Co1 Co 0.05258 0.48831 0.18031 0.0
C2 C 0.07901 0.48089 0.15988 0.0
O3 O 0.08187 0.4852 0.09436 0.0
O4 O 0.06798 0.48137 0.19503 0.0
C5 C 0.09149 0.50398 0.89876 0.0
O6 O 0.10743 0.51479 0.93051 0.0
C7 C 0.05883 0.49808 0.32889 0.0
C8 C 0.03126 0.48262 0.37104 0.0
C9 C 0.04948 0.49363 0.39174 0.0
N10 N 0.04675 0.49001 0.27399 0.0
N11 N 0.03026 0.48104 0.29914 0.0
C12 C 0.0789 0.50825 0.32156 0.0
H13 H 0.08233 0.50814 0.26548 0.0
H14 H 0.08549 0.52132 0.33691 0.0
H15 H 0.08438 0.5035 0.35803 0.0
C16 C 0.07855 0.52582 0.04462 0.0
N17 N 0.07281 0.5111 0.07261 0.0
N18 N 0.06507 0.50902 0.13364 0.0
C19 C 0.06557 0.52221 0.14648 0.0
C20 C 0.07425 0.5334 0.09076 0.0
C21 C 0.08672 0.53188 0.97267 0.0
H22 H 0.09932 0.53314 0.97237 0.0
H23 H 0.09014 0.54415 0.95992 0.0
H24 H 0.07717 0.52266 0.93081 0.0
O25 O 0.04348 0.47387 0.02329 0.0
O26 O 0.03022 0.471 0.12467 0.0
H27 H 0.05255 0.5317 0.19263 0.0
H28 H 0.06302 0.52617 0.25584 0.0
C29 C 0.05517 0.52266 0.20424 0.0
H30 H 0.04198 0.51017 0.21013 0.0
H31 H 0.01841 0.47307 0.2679 0.0
O32 O 0.0772 0.49555 0.93462 0.0
C33 C 0.02931 0.46677 0.05984 0.0
Co34 Co 0.57631 0.63947 0.05879 0.0
Co35 Co 0.59145 0.63657 0.2046 0.0
C36 C 0.58985 0.66498 0.16923 0.0
O37 O 0.58248 0.65968 0.10697 0.0
O38 O 0.59377 0.6572 0.20832 0.0
C39 C 0.57568 0.64883 0.92009 0.0
O40 O 0.58956 0.66316 0.94765 0.0
C41 C 0.58804 0.63453 0.35669 0.0
C42 C 0.60659 0.62949 0.39798 0.0
C43 C 0.5948 0.63249 0.41902 0.0
N44 N 0.5955 0.633 0.30081 0.0
N45 N 0.60654 0.62988 0.32553 0.0
C46 C 0.5738 0.63689 0.35034 0.0
H47 H 0.56827 0.63472 0.29447 0.0
H48 H 0.56266 0.62825 0.38693 0.0
H49 H 0.57972 0.6497 0.3672 0.0
C50 C 0.54539 0.60498 0.09452 0.0
N51 N 0.56118 0.61982 0.1123 0.0
N52 N 0.56791 0.61834 0.17221 0.0
C53 C 0.55665 0.60251 0.1946 0.0
C54 C 0.54201 0.59348 0.14606 0.0
C55 C 0.53548 0.60147 0.02392 0.0
H56 H 0.54381 0.60228 0.98068 0.0
H57 H 0.53358 0.61105 0.01356 0.0
H58 H 0.52212 0.58896 0.02213 0.0
O59 O 0.59875 0.64258 0.03976 0.0
O60 O 0.60999 0.6399 0.14068 0.0
H61 H 0.57408 0.59918 0.25492 0.0
H62 H 0.55011 0.58239 0.26469 0.0
C63 C 0.56049 0.59601 0.25886 0.0
H64 H 0.56062 0.60209 0.30779 0.0
H65 H 0.61426 0.62833 0.29319 0.0
O66 O 0.56596 0.63663 0.96174 0.0
C67 C 0.61064 0.6423 0.0732 0.0
Co68 Co 0.44357 0.056 0.15358 0.0
Co69 Co 0.42604 0.03867 0.00623 0.0
C70 C 0.44334 0.07508 0.03623 0.0
O71 O 0.44866 0.07527 0.10024 0.0
O72 O 0.4345 0.06186 -0.00165 0.0
C73 C 0.4648 0.07147 0.29778 0.0
O74 O 0.48113 0.08299 0.27479 0.0
C75 C 0.43273 0.03866 0.85758 0.0
C76 C 0.40589 0.01817 0.81089 0.0
C77 C 0.42363 0.03094 0.79325 0.0
N78 N 0.42098 0.03083 0.91056 0.0
N79 N 0.405 0.01842 0.8827 0.0
C80 C 0.45176 0.0543 0.86831 0.0
H81 H 0.45445 0.05887 0.92436 0.0
H82 H 0.46141 0.0518 0.85686 0.0
H83 H 0.45426 0.06403 0.83086 0.0
C84 C 0.46386 0.04273 0.13043 0.0
N85 N 0.45221 0.0457 0.10893 0.0
N86 N 0.44407 0.03771 0.0482 0.0
C87 C 0.45006 0.02922 0.02952 0.0
C88 C 0.46288 0.0322 0.0807 0.0
C89 C 0.47561 0.0499 0.19718 0.0
H90 H 0.48302 0.06351 0.19784 0.0
H91 H 0.4856 0.04743 0.20043 0.0
H92 H 0.46698 0.04458 0.24469 0.0
O93 O 0.41713 0.03914 0.16461 0.0
O94 O 0.40379 0.02544 0.06242 0.0
H95 H 0.42743 0.01076 0.96135 0.0
H96 H 0.44405 0.0074 0.9782 0.0
C97 C 0.44213 0.01699 0.96862 0.0
H98 H 0.44894 0.02365 0.91861 0.0
H99 H 0.39333 0.01066 0.91219 0.0
O100 O 0.45162 0.06182 0.25424 0.0
C101 C 0.403 0.02783 0.12844 0.0
Co102 Co 0.00638 0.61778 0.12872 0.0
Co103 Co 0.02497 0.63561 0.98674 0.0
C104 C 0.9842 0.61541 0.00837 0.0
O105 O 0.98446 0.61074 0.07174 0.0
O106 O -0.00128 0.62494 0.97415 0.0
C107 C 0.99192 0.59816 0.27186 0.0
O108 O 0.98095 0.58264 0.24955 0.0
C109 C 0.02644 0.63025 0.83784 0.0
C110 C 0.04678 0.65548 0.79605 0.0
C111 C 0.03446 0.63889 0.77543 0.0
N112 N 0.03372 0.64114 0.89268 0.0
N113 N 0.04605 0.6562 0.86777 0.0
C114 C 0.01077 0.61217 0.84476 0.0
H115 H -0.00024 0.60863 0.80522 0.0
H116 H 0.00557 0.60923 0.8997 0.0
H117 H 0.01522 0.60457 0.83356 0.0
C118 C 0.02456 0.60258 0.10327 0.0
N119 N 0.02004 0.61241 0.08438 0.0
N120 N 0.02872 0.62072 0.02655 0.0
C121 C 0.03926 0.61665 0.00739 0.0
C122 C 0.03689 0.60495 0.05502 0.0
C123 C 0.01674 0.59085 0.16497 0.0
H124 H 0.00179 0.58334 0.16153 0.0
H125 H 0.02035 0.58235 0.16511 0.0
H126 H 0.02171 0.59807 0.21593 0.0
O127 O 0.02221 0.64207 0.14548 0.0
O128 O 0.03699 0.65576 0.04785 0.0
H129 H 0.06402 0.62444 0.95972 0.0
H130 H 0.04577 0.61831 0.89737 0.0
C131 C 0.05262 0.6249 0.94882 0.0
H132 H 0.05805 0.63805 0.94354 0.0
H133 H 0.05337 0.66701 0.89912 0.0
O134 O 0.00064 0.61001 0.22779 0.0
C135 C 0.03364 0.65565 0.11349 0.0
Co136 Co 0.41425 0.42134 0.14963 0.0
Co137 Co 0.40446 0.42809 -0.00074 0.0
C138 C 0.40642 0.3998 0.02822 0.0
O139 O 0.41147 0.40341 0.09394 0.0
O140 O 0.40328 0.40824 0.99015 0.0
C141 C 0.43152 0.42151 0.2918 0.0
O142 O 0.44626 0.42498 0.26506 0.0
C143 C 0.4138 0.43521 0.85099 0.0
C144 C 0.39219 0.43554 0.80245 0.0
C145 C 0.40691 0.43615 0.78588 0.0
N146 N 0.40365 0.43407 0.90339 0.0
N147 N 0.39093 0.43458 0.87432 0.0
C148 C 0.42852 0.43355 0.86298 0.0
H149 H 0.42988 0.43131 0.92022 0.0
H150 H 0.44164 0.44523 0.8472 0.0
H151 H 0.42573 0.42331 0.82918 0.0
C152 C 0.44518 0.4576 0.13829 0.0
N153 N 0.43068 0.44296 0.11041 0.0
N154 N 0.4261 0.4457 0.04761 0.0
C155 C 0.43748 0.46206 0.03345 0.0
C156 C 0.44996 0.47014 0.0903 0.0
C157 C 0.45264 0.45986 0.21326 0.0
H158 H 0.44138 0.45311 0.25103 0.0
H159 H 0.46006 0.45462 0.21688 0.0
H160 H 0.46208 0.47317 0.2293 0.0
O161 O 0.39045 0.41652 0.15473 0.0
O162 O 0.38289 0.42187 0.05052 0.0
H163 H 0.42165 0.46551 0.96177 0.0
H164 H 0.44529 0.48359 0.97079 0.0
C165 C 0.43577 0.46983 0.96826 0.0
H166 H 0.43882 0.46581 0.92029 0.0
H167 H 0.38077 0.43325 0.90302 0.0
O168 O 0.41952 0.42023 0.25136 0.0
C169 C 0.37956 0.41727 0.11563 0.0
Co170 Co 0.57308 0.98707 0.02592 0.0
Co171 Co 0.58622 0.00688 0.1699 0.0
C172 C 0.58689 0.97787 0.14285 0.0
O173 O 0.58003 0.97464 0.07935 0.0
O174 O 0.58974 0.98973 0.17933 0.0
C175 C 0.57333 0.97716 0.88868 0.0
O176 O 0.58769 0.97928 0.91693 0.0
C177 C 0.58091 0.00453 0.32068 0.0
C178 C 0.59968 0.03035 0.36122 0.0
C179 C 0.58734 0.01398 0.38262 0.0
N180 N 0.58909 0.01467 0.26481 0.0
N181 N 0.60023 0.03016 0.28902 0.0
C182 C 0.56675 0.98607 0.31456 0.0
H183 H 0.56191 0.9822 0.25809 0.0
H184 H 0.55517 0.98199 0.34833 0.0
H185 H 0.57245 0.97986 0.33488 0.0
C186 C 0.54066 0.98469 0.05391 0.0
N187 N 0.55673 0.98847 0.07474 0.0
N188 N 0.5627 0.99756 0.13353 0.0
C189 C 0.55075 1e-05 0.15192 0.0
C190 C 0.5363 0.99187 0.10215 0.0
C191 C 0.53054 0.97562 0.98582 0.0
H192 H 0.53078 0.965 0.97834 0.0
H193 H 0.51629 0.97101 0.98631 0.0
H194 H 0.53735 0.98416 0.9399 0.0
O195 O 0.59506 0.0099 0.0065 0.0
O196 O 0.60467 0.02494 0.10665 0.0
H197 H 0.56924 0.02301 0.20959 0.0
H198 H 0.54654 0.01659 0.19984 0.0
C199 C 0.55467 0.01213 0.20873 0.0
H200 H 0.5515 0.00603 0.26179 0.0
H201 H 0.60853 0.04052 0.25664 0.0
O202 O 0.56334 0.97799 0.92922 0.0
C203 C 0.6061 0.02364 0.03993 0.0
Co204 Co 0.70869 0.80581 0.38123 0.0
Co205 Co 0.68811 0.79508 0.52284 0.0
C206 C 0.72005 0.79479 0.49997 0.0
O207 O 0.72308 0.8007 0.4369 0.0
O208 O 0.70711 0.79207 0.53533 0.0
C209 C 0.71952 0.80524 0.24518 0.0
O210 O 0.71729 0.79211 0.27171 0.0
C211 C 0.6909 0.80017 0.67376 0.0
C212 C 0.66269 0.78391 0.70932 0.0
C213 C 0.68061 0.79464 0.73387 0.0
N214 N 0.67976 0.79298 0.61596 0.0
N215 N 0.66284 0.78336 0.63711 0.0
C216 C 0.71112 0.81244 0.67105 0.0
H217 H 0.71528 0.81808 0.6171 0.0
H218 H 0.71649 0.82232 0.71223 0.0
H219 H 0.7171 0.80605 0.68297 0.0
C220 C 0.71329 0.83656 0.41137 0.0
N221 N 0.70745 0.82119 0.42877 0.0
N222 N 0.69795 0.81641 0.48687 0.0
C223 C 0.69721 0.82852 0.50804 0.0
C224 C 0.70697 0.84175 0.46096 0.0
C225 C 0.72474 0.84603 0.34851 0.0
H226 H 0.73489 0.84388 0.3427 0.0
H227 H 0.73183 0.85955 0.35464 0.0
H228 H 0.71596 0.84144 0.299 0.0
O229 O 0.68392 0.78497 0.35985 0.0
O230 O 0.66829 0.77734 0.45889 0.0
H231 H 0.67333 0.81381 0.57031 0.0
H232 H 0.68247 0.8353 0.5615 0.0
C233 C 0.68599 0.82677 0.56808 0.0
H234 H 0.69376 0.82974 0.61959 0.0
H235 H 0.65148 0.77608 0.60264 0.0
O236 O 0.71832 0.81426 0.28629 0.0
C237 C 0.66926 0.77507 0.39289 0.0
Co238 Co 0.25941 0.98396 0.35699 0.0
Co239 Co 0.26748 0.97414 0.50344 0.0
C240 C 0.27248 0.00645 0.479 0.0
O241 O 0.26662 0.00357 0.414 0.0
O242 O 0.27344 0.99623 0.51416 0.0
C243 C 0.24502 0.98684 0.21024 0.0
O244 O 0.23176 0.98676 0.23144 0.0
C245 C 0.25809 0.96773 0.65168 0.0
C246 C 0.27651 0.9631 0.69915 0.0
C247 C 0.26363 0.96505 0.71634 0.0
N248 N 0.2672 0.96735 0.59895 0.0
N249 N 0.27801 0.96432 0.62735 0.0
C250 C 0.24579 0.97237 0.64056 0.0
H251 H 0.25008 0.98278 0.67702 0.0
H252 H 0.24563 0.97581 0.58413 0.0
H253 H 0.23175 0.9616 0.65328 0.0
C254 C 0.22375 0.95034 0.37362 0.0
N255 N 0.24051 0.96325 0.39754 0.0
N256 N 0.24447 0.95891 0.45735 0.0
C257 C 0.23053 0.9431 0.47287 0.0
C258 C 0.2169 0.93719 0.42062 0.0
C259 C 0.21523 0.95005 0.30374 0.0
H260 H 0.2246 0.95345 0.25993 0.0
H261 H 0.21281 0.95938 0.3058 0.0
H262 H 0.20217 0.93764 0.29188 0.0
O263 O 0.28073 0.98455 0.34867 0.0
O264 O 0.2868 0.97664 0.44891 0.0
H265 H 0.24385 0.93645 0.5426 0.0
H266 H 0.21967 0.92023 0.5308 0.0
C267 C 0.23048 0.93381 0.536 0.0
H268 H 0.22809 0.93807 0.58509 0.0
H269 H 0.28709 0.96399 0.59831 0.0
O270 O 0.25469 0.98571 0.25525 0.0
C271 C 0.29015 0.98142 0.38404 0.0
Co272 Co 0.06658 0.36405 0.37978 0.0
Co273 Co 0.08507 0.38118 0.52733 0.0
C274 C 0.04395 0.35613 0.50138 0.0
O275 O 0.0444 0.35295 0.43612 0.0
O276 O 0.05844 0.36671 0.53771 0.0
C277 C 0.0525 0.34519 0.23533 0.0
O278 O 0.04272 0.32993 0.25972 0.0
C279 C 0.08891 0.37611 0.67674 0.0
C280 C 0.10631 0.40159 0.72148 0.0
C281 C 0.09588 0.38497 0.74077 0.0
N282 N 0.0948 0.38695 0.62261 0.0
N283 N 0.10552 0.40219 0.6494 0.0
C284 C 0.07517 0.35766 0.66711 0.0
H285 H 0.07064 0.35428 0.61014 0.0
H286 H 0.08131 0.35163 0.68423 0.0
H287 H 0.06338 0.35281 0.7009 0.0
C288 C 0.09065 0.35436 0.39771 0.0
N289 N 0.0836 0.36162 0.42108 0.0
N290 N 0.09201 0.36957 0.48162 0.0
C291 C 0.10482 0.36778 0.49838 0.0
C292 C 0.10434 0.35802 0.44591 0.0
C293 C 0.08405 0.34385 0.33138 0.0
H294 H 0.06912 0.33446 0.33232 0.0
H295 H 0.09001 0.3373 0.32723 0.0
H296 H 0.08748 0.35178 0.28359 0.0
O297 O 0.07824 0.38799 0.37167 0.0
O298 O 0.09277 0.40133 0.47324 0.0
H299 H 0.13087 0.37808 0.54981 0.0
H300 H 0.11225 0.36903 0.60909 0.0
C301 C 0.11829 0.37649 0.55984 0.0
H302 H 0.12177 0.38888 0.56885 0.0
H303 H 0.11131 0.41293 0.61895 0.0
O304 O 0.06127 0.35756 0.27797 0.0
C305 C 0.08818 0.40137 0.40824 0.0
Co306 Co 0.70944 0.97803 0.37911 0.0
Co307 Co 0.68878 0.96504 0.52067 0.0
C308 C 0.71968 0.00172 0.49421 0.0
O309 O 0.72297 -0.00058 0.43205 0.0
O310 O 0.70701 0.98961 0.53051 0.0
C311 C 0.71949 0.99061 0.24158 0.0
O312 O 0.716 0.00038 0.26547 0.0
C313 C 0.69165 0.96322 0.67222 0.0
C314 C 0.66344 0.94737 0.70778 0.0
C315 C 0.68137 0.9571 0.73238 0.0
N316 N 0.68049 0.95757 0.61424 0.0
N317 N 0.66358 0.94792 0.63542 0.0
C318 C 0.71189 0.97427 0.6699 0.0
H319 H 0.71627 0.97389 0.61605 0.0
H320 H 0.71745 0.9704 0.71114 0.0
H321 H 0.71747 0.98722 0.68236 0.0
C322 C 0.71503 0.95312 0.41423 0.0
N323 N 0.70898 0.96171 0.43001 0.0
N324 N 0.69946 0.95556 0.48811 0.0
C325 C 0.69893 0.94268 0.51095 0.0
C326 C 0.70883 0.94073 0.46491 0.0
C327 C 0.72627 0.95665 0.35108 0.0
H328 H 0.73638 0.97027 0.3439 0.0
H329 H 0.73339 0.95114 0.35789 0.0
H330 H 0.71734 0.95134 0.30203 0.0
O331 O 0.68431 0.96986 0.35586 0.0
O332 O 0.66867 0.95955 0.45504 0.0
H333 H 0.67475 0.92987 0.57141 0.0
H334 H 0.68431 0.91907 0.56578 0.0
C335 C 0.68756 0.93146 0.57091 0.0
H336 H 0.69508 0.93719 0.62267 0.0
H337 H 0.6522 0.94221 0.60079 0.0
O338 O 0.71937 0.98087 0.28497 0.0
C339 C 0.66954 0.96274 0.38836 0.0
Co340 Co 0.05526 0.77634 0.35729 0.0
Co341 Co 0.06981 0.77303 0.50419 0.0
C342 C 0.03102 0.76112 0.477 0.0
O343 O 0.03303 0.76622 0.41265 0.0
O344 O 0.04394 0.76293 0.51288 0.0
C345 C 0.04764 0.78608 0.21085 0.0
O346 O 0.04365 0.79559 0.23295 0.0
C347 C 0.07545 0.78162 0.65424 0.0
C348 C 0.08619 0.76906 0.69965 0.0
C349 C 0.08021 0.778 0.7185 0.0
N350 N 0.07843 0.77512 0.60029 0.0
N351 N 0.08515 0.76785 0.62752 0.0
C352 C 0.06636 0.78954 0.6442 0.0
H353 H 0.0544 0.78333 0.67848 0.0
H354 H 0.06223 0.78903 0.5873 0.0
H355 H 0.07594 0.80281 0.66038 0.0
C356 C 0.08783 0.81172 0.37819 0.0
N357 N 0.07617 0.7959 0.40065 0.0
N358 N 0.08271 0.79423 0.46077 0.0
C359 C 0.09879 0.80885 0.47812 0.0
C360 C 0.10251 0.82044 0.42661 0.0
C361 C 0.08589 0.81785 0.30802 0.0
H362 H 0.08424 0.8098 0.26405 0.0
H363 H 0.07357 0.81709 0.30822 0.0
H364 H 0.09781 0.83087 0.29772 0.0
O365 O 0.05993 0.76013 0.34754 0.0
O366 O 0.07147 0.75766 0.44797 0.0
H367 H 0.11102 0.80097 0.54684 0.0
H368 H 0.12439 0.82334 0.53934 0.0
C369 C 0.11046 0.81149 0.54208 0.0
H370 H 0.10439 0.81185 0.59109 0.0
H371 H 0.08803 0.76127 0.5973 0.0
O372 O 0.05185 0.77937 0.25547 0.0
C373 C 0.06629 0.75386 0.38239 0.0
Co374 Co 0.22513 0.32452 0.3421 0.0
Co375 Co 0.24125 0.34358 0.48713 0.0
C376 C 0.23264 0.30992 0.45864 0.0
O377 O 0.2262 0.30814 0.39509 0.0
O378 O 0.23872 0.32284 0.49582 0.0
C379 C 0.22235 0.31307 0.20459 0.0
O380 O 0.23434 0.3116 0.23303 0.0
C381 C 0.23656 0.34219 0.63794 0.0
C382 C 0.25897 0.36732 0.67851 0.0
C383 C 0.2445 0.35154 0.69988 0.0
N384 N 0.2459 0.35181 0.58208 0.0
N385 N 0.25924 0.36691 0.60628 0.0
C386 C 0.21987 0.32447 0.63169 0.0
H387 H 0.21426 0.32137 0.57577 0.0
H388 H 0.2095 0.32222 0.66827 0.0
H389 H 0.2232 0.31614 0.64814 0.0
C390 C 0.19685 0.32796 0.37363 0.0
N391 N 0.21225 0.33011 0.39067 0.0
N392 N 0.21953 0.33895 0.45009 0.0
C393 C 0.2091 0.34289 0.47255 0.0
C394 C 0.19431 0.33597 0.42506 0.0
C395 C 0.18482 0.31828 0.30962 0.0
H396 H 0.18422 0.30722 0.30121 0.0
H397 H 0.17092 0.31426 0.31616 0.0
H398 H 0.19061 0.32621 0.26135 0.0
O399 O 0.25008 0.34482 0.32473 0.0
O400 O 0.26188 0.35946 0.42583 0.0
H401 H 0.20747 0.36025 0.5289 0.0
H402 H 0.20953 0.34691 0.58487 0.0
C403 C 0.21405 0.35423 0.5347 0.0
H404 H 0.22895 0.36398 0.53896 0.0
H405 H 0.26876 0.37676 0.57384 0.0
O406 O 0.21473 0.3168 0.245 0.0
C407 C 0.26307 0.35761 0.35953 0.0
Co408 Co 0.3921 0.14762 0.72273 0.0
Co409 Co 0.37226 0.13386 0.86575 0.0
C410 C 0.40733 0.13925 0.83753 0.0
O411 O 0.40911 0.14513 0.77501 0.0
O412 O 0.39387 0.13459 0.87484 0.0
C413 C 0.40602 0.15103 0.588 0.0
O414 O 0.4078 0.14009 0.61461 0.0
C415 C 0.37489 0.13879 0.01654 0.0
C416 C 0.34738 0.11936 0.05463 0.0
C417 C 0.36497 0.13219 0.07756 0.0
N418 N 0.36387 0.13023 0.95976 0.0
N419 N 0.34735 0.11867 0.98241 0.0
C420 C 0.39449 0.15343 0.01187 0.0
H421 H 0.39749 0.15878 0.95725 0.0
H422 H 0.39816 0.16307 0.05194 0.0
H423 H 0.40295 0.14946 0.02411 0.0
C424 C 0.38758 0.17317 0.75194 0.0
N425 N 0.38723 0.1603 0.77286 0.0
N426 N 0.3781 0.15406 0.83182 0.0
C427 C 0.37217 0.1626 0.85024 0.0
C428 C 0.37796 0.17503 0.80009 0.0
C429 C 0.39536 0.18234 0.68329 0.0
H430 H 0.4087 0.18516 0.67602 0.0
H431 H 0.39705 0.1941 0.68287 0.0
H432 H 0.38617 0.17435 0.63776 0.0
O433 O 0.36882 0.12538 0.70033 0.0
O434 O 0.35377 0.11538 0.80115 0.0
H435 H 0.35184 0.16286 0.90123 0.0
H436 H 0.36562 0.16031 0.96046 0.0
C437 C 0.35862 0.15703 0.90695 0.0
H438 H 0.34816 0.14333 0.90414 0.0
H439 H 0.33621 0.11012 0.94889 0.0
O440 O 0.40106 0.15729 0.62851 0.0
C441 C 0.35483 0.11405 0.73412 0.0
Co442 Co 0.91102 0.34074 0.69761 0.0
Co443 Co 0.91464 0.3284 0.84583 0.0
C444 C 0.92735 0.36363 0.82036 0.0
O445 O 0.92191 0.36136 0.7549 0.0
O446 O 0.92535 0.35203 0.85692 0.0
C447 C 0.89989 0.3477 0.5537 0.0
O448 O 0.88944 0.35099 0.57826 0.0
C449 C 0.9048 0.32306 0.99355 0.0
C450 C 0.91934 0.31416 0.04088 0.0
C451 C 0.90899 0.31908 0.05824 0.0
N452 N 0.9124 0.3207 0.94086 0.0
N453 N 0.92079 0.31508 0.96912 0.0
C454 C 0.89555 0.33079 0.98226 0.0
H455 H 0.89628 0.33462 0.92579 0.0
H456 H 0.88104 0.32158 0.99481 0.0
H457 H 0.90175 0.34166 0.01866 0.0
C458 C 0.87321 0.30933 0.70711 0.0
N459 N 0.88976 0.32133 0.73629 0.0
N460 N 0.89166 0.31604 0.79795 0.0
C461 C 0.87652 0.30057 0.80999 0.0
C462 C 0.86424 0.29578 0.75291 0.0
C463 C 0.86678 0.31029 0.63411 0.0
H464 H 0.87563 0.31118 0.59321 0.0
H465 H 0.86774 0.32165 0.63111 0.0
H466 H 0.85251 0.29934 0.62221 0.0
O467 O 0.92909 0.33679 0.6906 0.0
O468 O 0.93161 0.32695 0.79309 0.0
H469 H 0.88837 0.29184 0.87552 0.0
H470 H 0.86445 0.2763 0.85665 0.0
C471 C 0.87526 0.28967 0.86838 0.0
H472 H 0.87236 0.29291 0.91941 0.0
H473 H 0.92838 0.31281 0.94003 0.0
O474 O 0.90765 0.34384 0.59602 0.0
C475 C 0.93594 0.33129 0.72826 0.0
Co476 Co 0.75882 0.7098 0.79998 0.0
Co477 Co 0.73814 0.69224 0.65549 0.0
C478 C 0.75616 0.72875 0.6891 0.0
O479 O 0.76259 0.72904 0.75089 0.0
O480 O 0.74682 0.71554 0.65105 0.0
C481 C 0.76573 0.72238 0.93781 0.0
O482 O 0.75751 0.7281 0.90948 0.0
C483 C 0.74156 0.69332 0.50359 0.0
C484 C 0.71615 0.67003 0.46212 0.0
C485 C 0.73237 0.68466 0.44116 0.0
N486 N 0.7313 0.68444 0.55927 0.0
N487 N 0.71609 0.67046 0.53445 0.0
C488 C 0.76048 0.70925 0.51062 0.0
H489 H 0.76601 0.71113 0.56634 0.0
H490 H 0.76936 0.70918 0.47311 0.0
H491 H 0.76048 0.71979 0.49598 0.0
C492 C 0.77884 0.69735 0.76065 0.0
N493 N 0.76636 0.69967 0.74647 0.0
N494 N 0.75691 0.69135 0.68797 0.0
C495 C 0.76289 0.68323 0.66347 0.0
C496 C 0.77703 0.68683 0.70853 0.0
C497 C 0.7909 0.70378 0.8268 0.0
H498 H 0.78249 0.69725 0.87416 0.0
H499 H 0.79762 0.71722 0.83361 0.0
H500 H 0.80126 0.70181 0.82485 0.0
O501 O 0.73286 0.69318 0.81938 0.0
O502 O 0.71717 0.67945 0.71977 0.0
H503 H 0.74009 0.66405 0.59852 0.0
H504 H 0.75968 0.66448 0.59525 0.0
C505 C 0.75511 0.67221 0.59834 0.0
H506 H 0.75956 0.68003 0.54973 0.0
H507 H 0.70564 0.66133 0.56665 0.0
O508 O 0.76997 0.71553 0.89699 0.0
C509 C 0.71793 0.68202 0.78697 0.0
Co510 Co 0.30272 0.25595 0.79988 0.0
Co511 Co 0.323 0.26994 0.65684 0.0
C512 C 0.28596 0.26107 0.67796 0.0
O513 O 0.28452 0.25594 0.74191 0.0
O514 O 0.3 0.26671 0.64262 0.0
C515 C 0.29139 0.25563 0.93372 0.0
O516 O 0.29186 0.26752 0.90253 0.0
C517 C 0.32327 0.26526 0.50544 0.0
C518 C 0.34856 0.28912 0.47256 0.0
C519 C 0.333 0.27422 0.44596 0.0
N520 N 0.33258 0.27441 0.56432 0.0
N521 N 0.34787 0.28854 0.54462 0.0
C522 C 0.30435 0.24929 0.50612 0.0
H523 H 0.29939 0.2459 0.56149 0.0
H524 H 0.30407 0.23916 0.48354 0.0
H525 H 0.29519 0.25041 0.47203 0.0
C526 C 0.31058 0.23239 0.77808 0.0
N527 N 0.30993 0.24454 0.75464 0.0
N528 N 0.31905 0.2508 0.69554 0.0
C529 C 0.32594 0.24295 0.67958 0.0
C530 C 0.32079 0.23098 0.73139 0.0
C531 C 0.30271 0.22324 0.84669 0.0
H532 H 0.28908 0.2199 0.85233 0.0
H533 H 0.30163 0.21179 0.84855 0.0
H534 H 0.3115 0.23147 0.89245 0.0
O535 O 0.32454 0.27911 0.82041 0.0
O536 O 0.33984 0.28937 0.72044 0.0
H537 H 0.34869 0.26237 0.62003 0.0
H538 H 0.34763 0.24425 0.63266 0.0
C539 C 0.33945 0.24861 0.62261 0.0
H540 H 0.33213 0.24365 0.56993 0.0
H541 H 0.35725 0.2982 0.57994 0.0
O542 O 0.29388 0.24702 0.89594 0.0
C543 C 0.33817 0.29089 0.78655 0.0
Co544 Co 0.75563 0.1282 0.78933 0.0
Co545 Co 0.73656 0.1249 0.64308 0.0
C546 C 0.75346 0.10755 0.6764 0.0
O547 O 0.75945 0.11367 0.73921 0.0
O548 O 0.74471 0.11101 0.63783 0.0
C549 C 0.7611 0.12205 0.92947 0.0
O550 O 0.75169 0.10686 0.90337 0.0
C551 C 0.7411 0.12954 0.49227 0.0
C552 C 0.71562 0.12382 0.4483 0.0
C553 C 0.73207 0.12793 0.42898 0.0
N554 N 0.73054 0.12636 0.5469 0.0
N555 N 0.71533 0.12308 0.52063 0.0
C556 C 0.75983 0.13456 0.50093 0.0
H557 H 0.76534 0.139 0.55639 0.0
H558 H 0.76891 0.14447 0.46213 0.0
H559 H 0.75948 0.12377 0.48937 0.0
C560 C 0.77656 0.16386 0.7563 0.0
N561 N 0.76402 0.14771 0.73879 0.0
N562 N 0.75542 0.14647 0.67889 0.0
C563 C 0.76216 0.16185 0.65633 0.0
C564 C 0.77577 0.17338 0.70478 0.0
C565 C 0.78895 0.16992 0.82136 0.0
H566 H 0.78154 0.16893 0.8688 0.0
H567 H 0.79326 0.16205 0.83073 0.0
H568 H 0.80111 0.18306 0.81543 0.0
O569 O 0.72954 0.11552 0.80573 0.0
O570 O 0.71505 0.11334 0.70429 0.0
H571 H 0.73974 0.15582 0.58907 0.0
H572 H 0.75824 0.17785 0.59692 0.0
C573 C 0.75469 0.16531 0.59302 0.0
H574 H 0.7604 0.16463 0.54345 0.0
H575 H 0.7046 0.11991 0.55178 0.0
O576 O 0.76629 0.13392 0.8869 0.0
C577 C 0.71503 0.11053 0.77115 0.0
Co578 Co 0.88485 0.63793 0.67486 0.0
Co579 Co 0.8927 0.65392 0.82548 0.0
C580 C 0.8961 0.62693 0.79604 0.0
O581 O 0.8908 0.62499 0.73059 0.0
O582 O 0.89747 0.63769 0.83547 0.0
C583 C 0.86753 0.61766 0.53813 0.0
O584 O 0.85319 0.6047 0.56871 0.0
C585 C 0.8834 0.6493 0.97362 0.0
C586 C 0.90273 0.67451 0.02025 0.0
C587 C 0.88928 0.65803 0.03779 0.0
N588 N 0.89284 0.66007 0.92066 0.0
N589 N 0.90421 0.67518 0.9485 0.0
C590 C 0.87042 0.63083 0.96325 0.0
H591 H 0.87461 0.6248 -0.0015 0.0
H592 H 0.86965 0.62734 0.90652 0.0
H593 H 0.85668 0.62615 0.97831 0.0
C594 C 0.85217 0.63648 0.6844 0.0
N595 N 0.86656 0.63814 0.71434 0.0
N596 N 0.87005 0.64479 0.77868 0.0
C597 C 0.85787 0.64727 0.7922 0.0
C598 C 0.84609 0.64203 0.73318 0.0
C599 C 0.84661 0.63281 0.60659 0.0
H600 H 0.85879 0.63979 0.57342 0.0
H601 H 0.83908 0.61934 0.5967 0.0
H602 H 0.83768 0.63609 0.59007 0.0
O603 O 0.9068 0.66121 0.66713 0.0
O604 O 0.91265 0.67363 0.77255 0.0
H605 H 0.87322 0.66909 0.85899 0.0
H606 H 0.84929 0.65941 0.85093 0.0
C607 C 0.85937 0.65706 0.85502 0.0
H608 H 0.85701 0.65002 0.90485 0.0
H609 H 0.91359 0.68578 0.91911 0.0
O610 O 0.87966 0.63048 0.57472 0.0
C611 C 0.91631 0.67411 0.70701 0.0
H612 H 0.06755 0.4758 0.8233 0.0
H613 H 0.07943 0.52228 0.45571 0.0
H614 H 0.10942 0.52843 0.79715 0.0
H615 H 0.03642 0.47049 0.49588 0.0
H616 H 0.09257 0.52483 0.57568 0.0
H617 H 0.05868 0.47343 0.69727 0.0
C618 C 0.07509 0.48683 0.79035 0.0
C619 C 0.08915 0.50234 0.82034 0.0
C620 C 0.08031 0.51291 0.55798 0.0
C621 C 0.07875 0.49985 0.67627 0.0
C622 C 0.07285 0.51143 0.4895 0.0
C623 C 0.05695 0.49609 0.46561 0.0
C624 C 0.07176 0.49894 0.60253 0.0
C625 C 0.04865 0.48256 0.5123 0.0
C626 C 0.06994 0.48551 0.71849 0.0
C627 C 0.09855 0.51624 0.77559 0.0
N628 N 0.05618 0.4843 0.57832 0.0
N629 N 0.09299 0.51473 0.70562 0.0
H630 H 0.5576 0.61893 0.85004 0.0
H631 H 0.60016 0.65977 0.472 0.0
H632 H 0.59212 0.67188 0.8138 0.0
H633 H 0.5822 0.61089 0.53123 0.0
H634 H 0.59289 0.66333 0.59108 0.0
H635 H 0.56136 0.6146 0.7258 0.0
C636 C 0.56566 0.62963 0.81558 0.0
C637 C 0.57469 0.64583 0.84239 0.0
C638 C 0.59052 0.65182 0.57814 0.0
C639 C 0.57915 0.64091 0.70082 0.0
C640 C 0.59461 0.64977 0.51032 0.0
C641 C 0.59162 0.63498 0.49226 0.0
C642 C 0.58325 0.63891 0.62797 0.0
C643 C 0.58472 0.62249 0.54372 0.0
C644 C 0.56794 0.62713 0.74498 0.0
C645 C 0.58502 0.6592 0.79542 0.0
N646 N 0.58064 0.62469 0.60946 0.0
N647 N 0.58705 0.65645 0.72694 0.0
H648 H 0.40519 0.03235 0.6822 0.0
H649 H 0.48713 0.07611 0.41175 0.0
H650 H 0.45663 0.0433 0.73847 0.0
H651 H 0.43348 0.06042 0.35741 0.0
H652 H 0.47775 0.06694 0.53579 0.0
H653 H 0.41643 0.04442 0.56459 0.0
C654 C 0.41885 0.03725 0.66959 0.0
C655 C 0.4301 0.03709 0.72043 0.0
C656 C 0.46814 0.06568 0.49665 0.0
C657 C 0.44319 0.05107 0.58609 0.0
C658 C 0.47354 0.07104 0.42632 0.0
C659 C 0.461 0.06886 0.37456 0.0
C660 C 0.45017 0.05826 0.51458 0.0
C661 C 0.4435 0.06213 0.39564 0.0
C662 C 0.42534 0.04427 0.60265 0.0
C663 C 0.44771 0.04365 0.70152 0.0
N664 N 0.4386 0.057 0.46379 0.0
N665 N 0.45376 0.05042 0.63571 0.0
H666 H 0.0256 0.60991 0.71889 0.0
H667 H 0.00151 0.62663 0.33073 0.0
H668 H 0.03028 0.65353 0.66291 0.0
H669 H 0.99053 0.58009 0.38661 0.0
H670 H 0.01153 0.63619 0.45369 0.0
H671 H 0.01292 0.59857 0.59854 0.0
C672 C 0.02378 0.61701 0.68155 0.0
C673 C 0.02858 0.6325 0.70128 0.0
C674 C 0.00682 0.62383 0.43962 0.0
C675 C 0.01448 0.6198 0.56343 0.0
C676 C 0.00105 0.61833 0.36935 0.0
C677 C 0.99529 0.60257 0.34857 0.0
C678 C 0.00705 0.61358 0.48977 0.0
C679 C 0.99483 0.5923 0.40075 0.0
C680 C 0.01664 0.61058 0.61277 0.0
C681 C 0.02671 0.64153 0.64986 0.0
N682 N 0.00085 0.59807 0.46916 0.0
N683 N 0.01973 0.63501 0.58341 0.0
H684 H 0.45775 0.43921 0.39894 0.0
H685 H 0.3829 0.41584 0.67991 0.0
H686 H 0.39997 0.40334 0.36043 0.0
H687 H 0.44031 0.45127 0.72804 0.0
H688 H 0.38943 0.41036 0.56397 0.0
H689 H 0.45233 0.44226 0.52346 0.0
C690 C 0.44399 0.4317 0.41725 0.0
C691 C 0.42927 0.42111 0.36959 0.0
C692 C 0.40066 0.41929 0.59987 0.0
C693 C 0.42296 0.42472 0.51025 0.0
C694 C 0.39691 0.42252 0.66581 0.0
C695 C 0.41108 0.43386 0.71386 0.0
C696 C 0.41875 0.42759 0.58131 0.0
C697 C 0.42899 0.44211 0.6932 0.0
C698 C 0.44088 0.43355 0.48789 0.0
C699 C 0.41169 0.41177 0.39543 0.0
N700 N 0.43235 0.43883 0.62825 0.0
N701 N 0.40903 0.4139 0.4637 0.0
H702 H 0.58993 0.97301 0.78421 0.0
H703 H 0.57486 0.02124 0.49288 0.0
H704 H 0.55387 0.98518 0.81555 0.0
H705 H 0.59272 0.99267 0.43882 0.0
H706 H 0.56872 0.00967 0.6146 0.0
H707 H 0.592 0.98081 0.65822 0.0
C708 C 0.5822 0.97704 0.76428 0.0
C709 C 0.57181 0.97854 0.81044 0.0
C710 C 0.57383 0.00584 0.57579 0.0
C711 C 0.57448 0.98786 0.66723 0.0
C712 C 0.57745 0.01253 0.50691 0.0
C713 C 0.58406 0.0077 0.45629 0.0
C714 C 0.57725 0.99455 0.59394 0.0
C715 C 0.58729 0.99642 0.47636 0.0
C716 C 0.58344 0.98154 0.6925 0.0
C717 C 0.56206 0.98383 0.78183 0.0
N718 N 0.58394 0.99028 0.54385 0.0
N719 N 0.56387 0.98857 0.71224 0.0
H720 H 0.67283 0.80587 0.84587 0.0
H721 H 0.72313 0.78934 0.13935 0.0
H722 H 0.70351 0.78915 0.79031 0.0
H723 H 0.71253 0.82434 0.17329 0.0
H724 H 0.71503 0.788 0.01204 0.0
H725 H 0.6853 0.81091 0.96954 0.0
C726 C 0.6822 0.80329 0.85999 0.0
C727 C 0.68739 0.79731 0.80847 0.0
C728 C 0.71475 0.79615 0.04732 0.0
C729 C 0.70152 0.80287 0.94821 0.0
C730 C 0.71942 0.79696 0.11982 0.0
C731 C 0.71835 0.80685 0.16699 0.0
C732 C 0.70868 0.80506 0.0224 0.0
C733 C 0.71347 0.81649 0.13886 0.0
C734 C 0.68941 0.80628 0.92998 0.0
C735 C 0.6995 0.79408 0.82865 0.0
N736 N 0.70851 0.81514 0.0685 0.0
N737 N 0.70609 0.79681 0.89722 0.0
H738 H 0.23113 0.95426 0.77099 0.0
H739 H 0.27654 0.99804 0.15109 0.0
H740 H 0.28792 0.98156 0.82749 0.0
H741 H 0.2202 0.9738 0.09645 0.0
H742 H 0.28087 0.99299 0.03006 0.0
H743 H 0.22655 0.96142 0.88798 0.0
C744 C 0.24266 0.9619 0.80768 0.0
C745 C 0.26001 0.96764 0.78899 0.0
C746 C 0.26757 0.98887 0.04395 0.0
C747 C 0.25483 0.97561 0.92315 0.0
C748 C 0.2651 0.99182 0.11306 0.0
C749 C 0.24796 0.98625 0.13376 0.0
C750 C 0.25274 0.98012 0.99494 0.0
C751 C 0.23365 0.97834 0.08236 0.0
C752 C 0.24002 0.9659 0.87459 0.0
C753 C 0.27432 0.97689 0.83974 0.0
N754 N 0.23631 0.97533 0.01523 0.0
N755 N 0.27143 0.98064 0.90431 0.0
H756 H 0.08932 0.3572 0.80438 0.0
H757 H 0.05786 0.37132 0.16742 0.0
H758 H 0.08829 0.39813 0.84346 0.0
H759 H 0.05393 0.32764 0.12918 0.0
H760 H 0.0677 0.38038 0.04575 0.0
H761 H 0.07595 0.34563 0.92104 0.0
C762 C 0.08613 0.36366 0.8371 0.0
C763 C 0.08959 0.37848 0.81361 0.0
C764 C 0.06454 0.36872 0.06331 0.0
C765 C 0.07462 0.3655 0.94731 0.0
C766 C 0.05884 0.36351 0.13276 0.0
C767 C 0.05515 0.34875 0.15821 0.0
C768 C 0.06684 0.35924 0.0189 0.0
C769 C 0.05656 0.33906 0.11119 0.0
C770 C 0.07858 0.3571 0.90381 0.0
C771 C 0.08587 0.38669 0.85945 0.0
N772 N 0.06254 0.34459 0.04373 0.0
N773 N 0.07853 0.38006 0.92387 0.0
H774 H 0.71551 0.96487 0.17478 0.0
H775 H 0.70186 0.98863 0.78327 0.0
H776 H 0.72058 0.00924 0.13172 0.0
H777 H 0.67631 0.93814 0.84803 0.0
H778 H 0.71442 0.99818 0.90546 0.0
H779 H 0.70755 0.95707 0.04827 0.0
C780 C 0.71532 0.97315 0.13853 0.0
C781 C 0.71851 0.98765 0.16392 0.0
C782 C 0.70611 0.98502 0.89292 0.0
C783 C 0.70932 0.97871 0.01964 0.0
C784 C 0.699 0.97959 0.82348 0.0
C785 C 0.68817 0.96263 0.80632 0.0
C786 C 0.70249 0.97338 0.94508 0.0
C787 C 0.68458 0.95132 0.85987 0.0
C788 C 0.71061 0.96859 0.06655 0.0
C789 C 0.71807 0.99789 0.11447 0.0
N790 N 0.69183 0.95692 0.92718 0.0
N791 N 0.71342 0.99317 0.04457 0.0
H792 H 0.06666 0.75517 0.8246 0.0
H793 H 0.05567 0.80765 0.10019 0.0
H794 H 0.08397 0.80448 0.77918 0.0
H795 H 0.04452 0.76071 0.14814 0.0
H796 H 0.06344 0.8059 0.978 0.0
H797 H 0.0569 0.75658 0.94153 0.0
C798 C 0.06847 0.76634 0.83938 0.0
C799 C 0.07579 0.77959 0.79151 0.0
C800 C 0.05913 0.79594 0.01527 0.0
C801 C 0.06449 0.78128 0.92517 0.0
C802 C 0.05454 0.79687 0.08459 0.0
C803 C 0.04956 0.78436 0.13423 0.0
C804 C 0.05859 0.78237 -0.00407 0.0
C805 C 0.04846 0.77071 0.11168 0.0
C806 C 0.06276 0.7671 0.90596 0.0
C807 C 0.0778 0.79375 0.81339 0.0
N808 N 0.05302 0.77013 0.04446 0.0
N809 N 0.07212 0.79422 0.87865 0.0
H810 H 0.23686 0.36317 0.81085 0.0
H811 H 0.23477 0.30429 0.10015 0.0
H812 H 0.24263 0.32588 0.75518 0.0
H813 H 0.20893 0.327 0.13165 0.0
H814 H 0.23887 0.31274 0.97451 0.0
H815 H 0.2286 0.35154 0.93231 0.0
C816 C 0.23637 0.35254 0.82448 0.0
C817 C 0.24016 0.34528 0.77347 0.0
C818 C 0.23208 0.31566 0.00877 0.0
C819 C 0.2309 0.33204 0.91076 0.0
C820 C 0.22968 0.31079 0.08033 0.0
C821 C 0.22162 0.31504 0.12644 0.0
C822 C 0.22665 0.32508 0.98372 0.0
C823 C 0.21525 0.32348 0.09799 0.0
C824 C 0.23153 0.34584 0.89319 0.0
C825 C 0.23943 0.33158 0.79302 0.0
N826 N 0.21817 0.32846 0.02863 0.0
N827 N 0.23496 0.32543 0.86036 0.0
H828 H 0.41589 0.13988 0.48309 0.0
H829 H 0.35314 0.13997 0.18812 0.0
H830 H 0.39261 0.16491 0.51489 0.0
H831 H 0.39298 0.13372 0.13454 0.0
H832 H 0.36624 0.14774 0.31102 0.0
H833 H 0.40745 0.13702 0.35545 0.0
C834 C 0.40931 0.14504 0.46303 0.0
C835 C 0.40474 0.15245 0.50975 0.0
C836 C 0.37221 0.14483 0.27203 0.0
C837 C 0.3947 0.14887 0.36473 0.0
C838 C 0.36465 0.14027 0.20249 0.0
C839 C 0.37219 0.13644 0.15172 0.0
C840 C 0.38711 0.14515 0.29065 0.0
C841 C 0.38706 0.13693 0.17222 0.0
C842 C 0.40445 0.14336 0.39031 0.0
C843 C 0.39628 0.15899 0.48088 0.0
N844 N 0.39399 0.14112 0.24039 0.0
N845 N 0.39123 0.15678 0.41034 0.0
H846 H 0.87496 0.33861 0.44327 0.0
H847 H 0.93423 0.33264 0.16701 0.0
H848 H 0.92875 0.3539 0.48936 0.0
H849 H 0.87976 0.31507 0.11523 0.0
H850 H 0.93259 0.34173 0.28397 0.0
H851 H 0.87695 0.33214 0.31917 0.0
C852 C 0.88729 0.34094 0.42679 0.0
C853 C 0.90166 0.34667 0.47639 0.0
C854 C 0.92097 0.33595 0.24707 0.0
C855 C 0.90394 0.33912 0.33619 0.0
C856 C 0.92187 0.33063 0.18045 0.0
C857 C 0.90722 0.32332 0.13096 0.0
C858 C 0.90523 0.33384 0.26484 0.0
C859 C 0.89156 0.32109 0.15105 0.0
C860 C 0.88837 0.3371 0.35641 0.0
C861 C 0.91729 0.34933 0.45287 0.0
N862 N 0.89096 0.32635 0.2166 0.0
N863 N 0.91796 0.34544 0.38475 0.0
H864 H 0.76096 0.73759 0.04259 0.0
H865 H 0.73355 0.66812 0.33085 0.0
H866 H 0.76849 0.70047 0.01009 0.0
H867 H 0.744 0.71427 0.38477 0.0
H868 H 0.74459 0.67885 0.21 0.0
H869 H 0.75403 0.72897 0.16756 0.0
C870 C 0.76147 0.72783 0.06211 0.0
C871 C 0.76522 0.71969 0.01587 0.0
C872 C 0.7446 0.68666 0.24859 0.0
C873 C 0.75686 0.70948 0.158 0.0
C874 C 0.73817 0.68049 0.31701 0.0
C875 C 0.73815 0.69045 0.36755 0.0
C876 C 0.75067 0.70275 0.23071 0.0
C877 C 0.74421 0.70638 0.34756 0.0
C878 C 0.75745 0.72287 0.13331 0.0
C879 C 0.76569 0.7071 0.04393 0.0
N880 N 0.75016 0.71202 0.28055 0.0
N881 N 0.76127 0.7022 0.11298 0.0
H882 H 0.29291 0.23411 0.01716 0.0
H883 H 0.33365 0.29525 0.35321 0.0
H884 H 0.29399 0.2769 0.02994 0.0
H885 H 0.31694 0.24542 0.36863 0.0
H886 H 0.32051 0.28904 0.2313 0.0
H887 H 0.30175 0.23763 0.14473 0.0
C888 C 0.29467 0.24405 0.04703 0.0
C889 C 0.29292 0.25535 0.01266 0.0
C890 C 0.31961 0.27942 0.26142 0.0
C891 C 0.30336 0.25962 0.15775 0.0
C892 C 0.32728 0.28302 0.33058 0.0
C893 C 0.32622 0.27077 0.37083 0.0
C894 C 0.31107 0.26353 0.23193 0.0
C895 C 0.31773 0.25509 0.33952 0.0
C896 C 0.29978 0.24608 0.11971 0.0
C897 C 0.29532 0.26797 0.054 0.0
N898 N 0.31053 0.25191 0.27156 0.0
N899 N 0.30068 0.26991 0.1241 0.0
H900 H 0.7344 0.14585 0.31354 0.0
H901 H 0.75387 0.10069 0.03826 0.0
H902 H 0.74189 0.10976 0.38006 0.0
H903 H 0.76778 0.14898 -0.00324 0.0
H904 H 0.74826 0.10297 0.16275 0.0
H905 H 0.74452 0.14598 0.19352 0.0
C906 C 0.7382 0.138 0.30263 0.0
C907 C 0.73759 0.12795 0.3563 0.0
C908 C 0.75279 0.11316 0.12655 0.0
C909 C 0.74896 0.12791 0.22055 0.0
C910 C 0.75605 0.11189 0.05565 0.0
C911 C 0.76119 0.12461 0.00707 0.0
C912 C 0.75436 0.1271 0.14843 0.0
C913 C 0.76381 0.13886 0.03241 0.0
C914 C 0.74409 0.13816 0.23471 0.0
C915 C 0.74256 0.11793 0.34016 0.0
N916 N 0.76008 0.13961 0.10115 0.0
N917 N 0.74795 0.11808 0.2735 0.0
H918 H 0.84057 0.60517 0.43347 0.0
H919 H 0.91366 0.66641 0.1457 0.0
H920 H 0.89842 0.63368 0.46612 0.0
H921 H 0.85622 0.63385 0.09476 0.0
H922 H 0.90775 0.65371 0.26346 0.0
H923 H 0.84524 0.61358 0.30683 0.0
C924 C 0.85417 0.6128 0.41342 0.0
C925 C 0.86916 0.61889 0.45993 0.0
C926 C 0.89639 0.64922 0.22654 0.0
C927 C 0.87463 0.62879 0.31703 0.0
C928 C 0.89977 0.6566 0.15961 0.0
C929 C 0.88542 0.65103 0.11045 0.0
C930 C 0.87847 0.63628 0.24491 0.0
C931 C 0.86768 0.63822 0.13075 0.0
C932 C 0.85685 0.61773 0.34157 0.0
C933 C 0.88653 0.62889 0.43194 0.0
N934 N 0.86467 0.63128 0.19675 0.0
N935 N 0.88879 0.63366 0.36259 0.0
H936 H 0.03816 0.58904 0.94304 0.0
H937 H 0.08771 0.56025 0.17633 0.0
H938 H 0.05562 0.60296 0.16439 0.0
H939 H 0.05949 0.53794 0.97382 0.0
H940 H 0.08186 0.58051 0.16237 0.0
H941 H 0.05146 0.57456 0.94366 0.0
C942 C 0.04494 0.58912 0.99157 0.0
C943 C 0.04562 0.59692 0.05408 0.0
C944 C 0.07723 0.57137 0.12037 0.0
C945 C 0.06083 0.58052 0.05533 0.0
C946 C 0.08067 0.55993 0.12814 0.0
C947 C 0.07409 0.54753 0.07606 0.0
C948 C 0.06713 0.57033 0.06009 0.0
C949 C 0.06495 0.54746 0.01474 0.0
C950 C 0.05248 0.58086 0.99199 0.0
C951 C 0.05455 0.59677 0.11559 0.0
N952 N 0.06157 0.5586 0.00872 0.0
N953 N 0.06174 0.5886 0.11484 0.0
H954 H 0.44341 0.49258 0.0962 0.0
H955 H 0.54839 0.57094 0.13889 0.0
H956 H 0.48643 0.48842 0.11333 0.0
H957 H 0.50516 0.57484 0.14036 0.0
H958 H 0.52592 0.54068 0.12942 0.0
H959 H 0.46575 0.52275 0.11239 0.0
C960 C 0.45763 0.49812 0.10325 0.0
C961 C 0.46325 0.48821 0.1025 0.0
C962 C 0.5213 0.54811 0.1321 0.0
C963 C 0.48881 0.52252 0.12154 0.0
C964 C 0.5341 0.56534 0.13768 0.0
C965 C 0.5285 0.57524 0.1409 0.0
C966 C 0.50276 0.54077 0.12918 0.0
C967 C 0.50992 0.56752 0.13799 0.0
C968 C 0.47035 0.51527 0.11272 0.0
C969 C 0.48169 0.49577 0.11314 0.0
N970 N 0.49767 0.5507 0.13221 0.0
N971 N 0.49387 0.51253 0.12184 0.0
H972 H 0.5291 0.00318 0.98387 0.0
H973 H 0.46509 0.01568 0.19172 0.0
H974 H 0.51271 0.98695 0.2007 0.0
H975 H 0.48153 0.03153 0.97463 0.0
H976 H 0.48073 0.00335 0.19389 0.0
H977 H 0.50936 0.01121 0.97568 0.0
C978 C 0.52099 0.00095 0.02917 0.0
C979 C 0.52241 0.99435 0.09297 0.0
C980 C 0.4809 0.00949 0.1457 0.0
C981 C 0.50024 0.00395 0.08495 0.0
C982 C 0.47212 0.01663 0.14474 0.0
C983 C 0.4723 0.02478 0.08326 0.0
C984 C 0.48989 0.01053 0.08464 0.0
C985 C 0.48118 0.02537 0.0231 0.0
C986 C 0.50987 0.0057 0.02481 0.0
C987 C 0.51194 0.99204 0.15067 0.0
N988 N 0.4897 0.0184 0.02538 0.0
N989 N 0.5014 0.99698 0.14557 0.0
H990 H 0.70058 0.85486 0.34767 0.0
H991 H 0.71866 0.92981 0.57619 0.0
H992 H 0.71688 0.86325 0.57182 0.0
H993 H 0.70181 0.92059 0.35264 0.0
H994 H 0.71939 0.90622 0.57524 0.0
H995 H 0.70248 0.87981 0.3473 0.0
C996 C 0.70475 0.86209 0.39663 0.0
C997 C 0.70865 0.8571 0.4598 0.0
C998 C 0.71564 0.90941 0.52627 0.0
C999 C 0.71059 0.88549 0.46031 0.0
C1000 C 0.7152 0.92283 0.5269 0.0
C1001 C 0.71024 0.92711 0.46436 0.0
C1002 C 0.71103 0.90023 0.46259 0.0
C1003 C 0.70595 0.9178 0.40172 0.0
C1004 C 0.70573 0.87627 0.39658 0.0
C1005 C 0.71366 0.86669 0.52217 0.0
N1006 N 0.70639 0.90476 0.40246 0.0
N1007 N 0.71446 0.88044 0.52094 0.0
H1008 H 0.13672 0.83056 0.4135 0.0
H1009 H 0.1826 0.92761 0.41903 0.0
H1010 H 0.10603 0.84897 0.42316 0.0
H1011 H 0.2125 0.90849 0.40486 0.0
H1012 H 0.15417 0.89902 0.4145 0.0
H1013 H 0.16458 0.85915 0.40532 0.0
C1014 C 0.13595 0.84071 0.41411 0.0
C1015 C 0.11926 0.83759 0.41999 0.0
C1016 C 0.16694 0.90106 0.41213 0.0
C1017 C 0.15087 0.87023 0.40999 0.0
C1018 C 0.18308 0.91733 0.41456 0.0
C1019 C 0.19973 0.92022 0.4133 0.0
C1020 C 0.16758 0.8877 0.40825 0.0
C1021 C 0.19983 0.90664 0.4071 0.0
C1022 C 0.15178 0.857 0.40913 0.0
C1023 C 0.11877 0.85102 0.41917 0.0
N1024 N 0.18399 0.89094 0.40523 0.0
N1025 N 0.1344 0.86682 0.41468 0.0
H1026 H 0.17374 0.3305 0.53805 0.0
H1027 H 0.12375 0.36203 0.33081 0.0
H1028 H 0.1823 0.34558 0.31674 0.0
H1029 H 0.11298 0.34444 0.54853 0.0
H1030 H 0.14469 0.35541 0.32345 0.0
H1031 H 0.15092 0.33495 0.54245 0.0
C1032 C 0.17072 0.3347 0.49036 0.0
C1033 C 0.17983 0.3377 0.42699 0.0
C1034 C 0.13769 0.3529 0.37276 0.0
C1035 C 0.15385 0.3428 0.43132 0.0
C1036 C 0.12569 0.3566 0.37678 0.0
C1037 C 0.11662 0.35366 0.4402 0.0
C1038 C 0.14069 0.3463 0.43283 0.0
C1039 C 0.11982 0.34693 0.4988 0.0
C1040 C 0.1577 0.3372 0.49276 0.0
C1041 C 0.1754 0.34299 0.36641 0.0
N1042 N 0.13163 0.3435 0.49378 0.0
N1043 N 0.16277 0.34545 0.37013 0.0
H1044 H 0.32034 0.21084 0.63608 0.0
H1045 H 0.37926 0.19582 0.89466 0.0
H1046 H 0.33836 0.23082 0.85077 0.0
H1047 H 0.35989 0.17484 0.68201 0.0
H1048 H 0.36484 0.20923 0.87927 0.0
H1049 H 0.33487 0.19758 0.65168 0.0
C1050 C 0.32723 0.21226 0.68672 0.0
C1051 C 0.32808 0.22175 0.74244 0.0
C1052 C 0.36386 0.2018 0.83574 0.0
C1053 C 0.34486 0.20688 0.76067 0.0
C1054 C 0.37213 0.19424 0.84448 0.0
C1055 C 0.37087 0.18443 0.78923 0.0
C1056 C 0.35423 0.19944 0.77132 0.0
C1057 C 0.36142 0.18258 0.72536 0.0
C1058 C 0.33556 0.20477 0.69562 0.0
C1059 C 0.33719 0.22335 0.80698 0.0
N1060 N 0.35341 0.18999 0.71818 0.0
N1061 N 0.34529 0.21602 0.8143 0.0
H1062 H 0.83488 0.27567 0.83537 0.0
H1063 H 0.79503 0.19475 0.59564 0.0
H1064 H 0.85721 0.27685 0.63538 0.0
H1065 H 0.7801 0.19323 0.81309 0.0
H1066 H 0.81399 0.22521 0.59937 0.0
H1067 H 0.81064 0.2458 0.81778 0.0
C1068 C 0.8344 0.26965 0.78704 0.0
C1069 C 0.84794 0.27862 0.73667 0.0
C1070 C 0.80647 0.21821 0.64611 0.0
C1071 C 0.82057 0.24459 0.71648 0.0
C1072 C 0.79565 0.20088 0.64387 0.0
C1073 C 0.78626 0.19161 0.70447 0.0
C1074 C 0.80777 0.22624 0.70932 0.0
C1075 C 0.78744 0.20002 0.76573 0.0
C1076 C 0.82067 0.25264 0.77715 0.0
C1077 C 0.84687 0.27035 0.67504 0.0
N1078 N 0.79809 0.21688 0.76677 0.0
N1079 N 0.8335 0.25374 0.66694 0.0
H1080 H 0.81317 0.70394 0.69311 0.0
H1081 H 0.80932 0.62364 0.73615 0.0
H1082 H 0.7634 0.65438 0.71658 0.0
H1083 H 0.85806 0.67284 0.69541 0.0
H1084 H 0.79179 0.63416 0.72321 0.0
H1085 H 0.82971 0.69252 0.68971 0.0
C1086 C 0.80579 0.69063 0.69735 0.0
C1087 C 0.78701 0.68002 0.70501 0.0
C1088 C 0.80629 0.64263 0.71631 0.0
C1089 C 0.80565 0.66684 0.70129 0.0
C1090 C 0.81621 0.6366 0.72339 0.0
C1091 C 0.83501 0.64746 0.71671 0.0
C1092 C 0.81537 0.65963 0.703 0.0
C1093 C 0.8435 0.66416 0.70076 0.0
C1094 C 0.81516 0.6841 0.69519 0.0
C1095 C 0.77792 0.66288 0.71018 0.0
N1096 N 0.83364 0.66978 0.69493 0.0
N1097 N 0.78734 0.65679 0.70852 0.0
H1098 H 0.09751 0.42985 0.47254 0.0
H1099 H 0.09264 0.4666 0.0982 0.0
H1100 H 0.09076 0.40808 0.26551 0.0
H1101 H 0.084 0.47913 0.30348 0.0
H1102 H 0.10081 0.45059 0.16019 0.0
H1103 H 0.10127 0.45328 0.41199 0.0
C1104 C 0.09718 0.43016 0.41446 0.0
C1105 C 0.0935 0.41688 0.37398 0.0
C1106 C 0.09741 0.45709 0.1916 0.0
C1107 C 0.0978 0.44353 0.30465 0.0
C1108 C 0.09284 0.46628 0.15628 0.0
C1109 C 0.08731 0.47394 0.1957 0.0
C1110 C 0.09657 0.45568 0.26672 0.0
C1111 C 0.08786 0.47316 0.27093 0.0
C1112 C 0.09925 0.44348 0.37996 0.0
C1113 C 0.09324 0.41792 0.29882 0.0
N1114 N 0.09218 0.46403 0.30396 0.0
N1115 N 0.09518 0.43092 0.26661 0.0
H1116 H 0.66486 0.76831 0.24882 0.0
H1117 H 0.58723 0.6726 0.30423 0.0
H1118 H 0.63809 0.7476 0.44922 0.0
H1119 H 0.60598 0.69408 0.09553 0.0
H1120 H 0.60289 0.70031 0.35526 0.0
H1121 H 0.64117 0.74203 0.18881 0.0
C1122 C 0.65388 0.7583 0.28014 0.0
C1123 C 0.65364 0.76009 0.35453 0.0
C1124 C 0.60336 0.69903 0.29806 0.0
C1125 C 0.6265 0.7299 0.28595 0.0
C1126 C 0.59443 0.68319 0.26901 0.0
C1127 C 0.59555 0.68111 0.19594 0.0
C1128 C 0.61387 0.71298 0.25391 0.0
C1129 C 0.60482 0.6952 0.15225 0.0
C1130 C 0.64031 0.74331 0.24567 0.0
C1131 C 0.63894 0.74676 0.39198 0.0
N1132 N 0.61397 0.71061 0.18219 0.0
N1133 N 0.62612 0.73215 0.3575 0.0
H1134 H 0.36851 0.0076 0.06793 0.0
H1135 H 0.32079 0.98727 0.44542 0.0
H1136 H 0.39771 0.02476 0.27245 0.0
H1137 H 0.29465 0.98196 0.24055 0.0
H1138 H 0.34778 0.99558 0.38269 0.0
H1139 H 0.33997 0.99281 0.13087 0.0
C1140 C 0.36892 0.00812 0.12598 0.0
C1141 C 0.38552 0.01761 0.16488 0.0
C1142 C 0.33603 0.99241 0.3516 0.0
C1143 C 0.35301 0.0007 0.2371 0.0
C1144 C 0.32062 0.98759 0.38735 0.0
C1145 C 0.30558 0.98416 0.3482 0.0
C1146 C 0.33625 0.99361 0.27635 0.0
C1147 C 0.30607 0.98476 0.27295 0.0
C1148 C 0.35265 -0.00029 0.16186 0.0
C1149 C 0.38524 0.0178 0.24015 0.0
N1150 N 0.32118 0.98951 0.23954 0.0
N1151 N 0.36927 0.00955 0.27374 0.0
H1152 H 0.44925 0.10114 0.10972 0.0
H1153 H 0.42772 0.13373 0.76163 0.0
H1154 H 0.44254 0.08238 0.8954 0.0
H1155 H 0.41503 0.13697 0.97736 0.0
H1156 H 0.44311 0.12268 0.80962 0.0
H1157 H 0.44684 0.12211 0.06018 0.0
C1158 C 0.4477 0.10168 0.05216 0.0
C1159 C 0.44572 0.0898 0.00672 0.0
C1160 C 0.43728 0.12618 0.8464 0.0
C1161 C 0.44298 0.11369 0.94994 0.0
C1162 C 0.42859 0.13255 0.81915 0.0
C1163 C 0.41987 0.13604 0.86559 0.0
C1164 C 0.43741 0.12352 0.92051 0.0
C1165 C 0.42136 0.13424 0.93961 0.0
C1166 C 0.44626 0.11359 0.02399 0.0
C1167 C 0.44378 0.09111 0.93248 0.0
N1168 N 0.42979 0.12796 0.96473 0.0
N1169 N 0.44225 0.1027 0.90644 0.0
H1170 H 0.99729 0.44274 0.12429 0.0
H1171 H 0.94771 0.39402 0.75448 0.0
H1172 H 0.02107 0.46001 0.91677 0.0
H1173 H 0.93171 0.37117 0.96279 0.0
H1174 H 0.97036 0.42099 0.81329 0.0
H1175 H 0.96922 0.41903 0.06528 0.0
C1176 C 0.99655 0.44166 0.06637 0.0
C1177 C 0.01164 0.45322 0.02552 0.0
C1178 C 0.96166 0.41009 0.84605 0.0
C1179 C 0.9796 0.42628 0.95781 0.0
C1180 C 0.94864 0.39474 0.81253 0.0
C1181 C 0.93802 0.38033 0.85382 0.0
C1182 C 0.96391 0.41099 0.92123 0.0
C1183 C 0.93983 0.38196 0.92892 0.0
C1184 C 0.98055 0.42813 0.03276 0.0
C1185 C 0.00988 0.45125 0.95054 0.0
N1186 N 0.95267 0.39698 0.9602 0.0
N1187 N 0.99421 0.438 0.91919 0.0
H1188 H 0.71574 0.67937 0.93244 0.0
H1189 H 0.61193 0.6413 0.92778 0.0
H1190 H 0.68235 0.66362 0.73828 0.0
H1191 H 0.64294 0.64964 0.12266 0.0
H1192 H 0.63704 0.64797 0.85798 0.0
H1193 H 0.6889 0.66704 0.00285 0.0
C1194 C 0.70271 0.67317 0.9045 0.0
C1195 C 0.70132 0.67268 0.82915 0.0
C1196 C 0.63833 0.64821 0.91596 0.0
C1197 C 0.67047 0.65862 0.90993 0.0
C1198 C 0.62401 0.64446 0.95605 0.0
C1199 C 0.6254 0.64508 0.03141 0.0
C1200 C 0.65432 0.65282 0.95121 0.0
C1201 C 0.64131 0.64907 0.06478 0.0
C1202 C 0.68737 0.6661 0.94491 0.0
C1203 C 0.68406 0.66433 0.79615 0.0
N1204 N 0.65524 0.65297 0.0244 0.0
N1205 N 0.66933 0.6578 0.83678 0.0
H1206 H 0.97624 0.61468 0.86571 0.0
H1207 H 0.89805 0.6201 0.93629 0.0
H1208 H 0.95342 0.60589 0.07404 0.0
H1209 H 0.91036 0.61444 0.72383 0.0
H1210 H 0.91561 0.61167 0.98715 0.0
H1211 H 0.95019 0.61159 0.81168 0.0
C1212 C 0.9656 0.61187 0.9 0.0
C1213 C 0.96713 0.6108 0.97465 0.0
C1214 C 0.91418 0.61192 0.92938 0.0
C1215 C 0.93734 0.60744 0.91315 0.0
C1216 C 0.90415 0.61674 0.90029 0.0
C1217 C 0.90297 0.6182 0.82574 0.0
C1218 C 0.92343 0.60887 0.88366 0.0
C1219 C 0.911 0.61355 0.7816 0.0
C1220 C 0.95068 0.61003 0.86905 0.0
C1221 C 0.95284 0.60692 0.01634 0.0
N1222 N 0.92124 0.60945 0.81129 0.0
N1223 N 0.9387 0.6057 0.98517 0.0
H1224 H 0.40802 0.3944 0.88764 0.0
H1225 H 0.34189 0.2969 0.93105 0.0
H1226 H 0.3947 0.37065 0.09414 0.0
H1227 H 0.36577 0.32097 0.73009 0.0
H1228 H 0.36284 0.32358 0.99284 0.0
H1229 H 0.39501 0.36778 0.83017 0.0
C1230 C 0.40265 0.3836 0.92099 0.0
C1231 C 0.40226 0.38467 -0.00432 0.0
C1232 C 0.36367 0.323 0.93537 0.0
C1233 C 0.38693 0.35404 0.93011 0.0
C1234 C 0.35164 0.30778 0.89989 0.0
C1235 C 0.3519 0.30673 0.82501 0.0
C1236 C 0.37592 0.33736 0.89569 0.0
C1237 C 0.36498 0.32121 0.78774 0.0
C1238 C 0.3952 0.36839 0.88813 0.0
C1239 C 0.39524 0.37034 0.03638 0.0
N1240 N 0.3763 0.33596 0.82335 0.0
N1241 N 0.38752 0.35552 0.00291 0.0
H1242 H 0.71101 0.10936 0.91549 0.0
H1243 H 0.60928 0.02679 0.89456 0.0
H1244 H 0.68016 0.08849 0.71587 0.0
H1245 H 0.63655 0.05348 0.09259 0.0
H1246 H 0.63455 0.04982 0.82815 0.0
H1247 H 0.68348 0.0899 0.9809 0.0
C1248 C 0.69838 0.10079 0.88533 0.0
C1249 C 0.69791 0.10043 0.81 0.0
C1250 C 0.63496 0.05073 0.88605 0.0
C1251 C 0.66631 0.07794 0.88489 0.0
C1252 C 0.62056 0.03754 0.92418 0.0
C1253 C 0.62087 0.03812 -0.00051 0.0
C1254 C 0.64994 0.06457 0.92334 0.0
C1255 C 0.63577 0.05246 0.03468 0.0
C1256 C 0.68264 0.08969 0.92283 0.0
C1257 C 0.68113 0.08917 0.77389 0.0
N1258 N 0.6498 0.06504 -0.00368 0.0
N1259 N 0.66602 0.07819 0.81172 0.0
H1260 H 0.66483 0.96346 0.24305 0.0
H1261 H 0.58555 0.96919 0.28196 0.0
H1262 H 0.63791 0.95414 0.44183 0.0
H1263 H 0.60323 0.96673 0.07622 0.0
H1264 H 0.60199 0.96028 0.33944 0.0
H1265 H 0.64042 0.96157 0.17905 0.0
C1266 C 0.65367 0.96081 0.27321 0.0
C1267 C 0.65358 0.95924 0.34821 0.0
C1268 C 0.60204 0.96134 0.28158 0.0
C1269 C 0.62562 0.95716 0.27506 0.0
C1270 C 0.59263 0.96644 0.24878 0.0
C1271 C 0.59321 0.96886 0.17446 0.0
C1272 C 0.6125 0.95903 0.23994 0.0
C1273 C 0.60247 0.965 0.13376 0.0
C1274 C 0.63969 0.95967 0.23648 0.0
C1275 C 0.63865 0.95561 0.38417 0.0
N1276 N 0.61211 0.96061 0.16724 0.0
N1277 N 0.62542 0.95496 0.3474 0.0
H1278 H 0.03598 0.65955 0.25878 0.0
H1279 H 0.06889 0.75177 0.23923 0.0
H1280 H 0.05198 0.68748 0.06212 0.0
H1281 H 0.06459 0.72789 0.43913 0.0
H1282 H 0.06496 0.7292 0.17424 0.0
H1283 H 0.04827 0.6849 0.32615 0.0
C1284 C 0.0422 0.67106 0.22969 0.0
C1285 C 0.04273 0.67135 0.15445 0.0
C1286 C 0.06513 0.72896 0.23231 0.0
C1287 C 0.05679 0.70047 0.23168 0.0
C1288 C 0.06734 0.74184 0.26954 0.0
C1289 C 0.06684 0.74158 0.34472 0.0
C1290 C 0.06207 0.71553 0.27034 0.0
C1291 C 0.065 0.72853 0.38118 0.0
C1292 C 0.0493 0.68556 0.26838 0.0
C1293 C 0.05118 0.68666 0.11995 0.0
N1294 N 0.06237 0.71585 0.34353 0.0
N1295 N 0.05766 0.70058 0.1588 0.0
H1296 H 0.34711 0.40562 0.04762 0.0
H1297 H 0.29636 0.38302 0.41859 0.0
H1298 H 0.37361 0.4173 0.25703 0.0
H1299 H 0.26864 0.36011 0.21541 0.0
H1300 H 0.32496 0.40083 0.35661 0.0
H1301 H 0.31842 0.39399 0.10545 0.0
C1302 C 0.34695 0.40598 0.10557 0.0
C1303 C 0.36267 0.4122 0.14764 0.0
C1304 C 0.31257 0.39201 0.32558 0.0
C1305 C 0.33011 0.39905 0.21383 0.0
C1306 C 0.29624 0.38187 0.36091 0.0
C1307 C 0.28012 0.36988 0.32235 0.0
C1308 C 0.31278 0.3902 0.25116 0.0
C1309 C 0.28078 0.36902 0.24752 0.0
C1310 C 0.3306 0.39929 0.13852 0.0
C1311 C 0.36173 0.41238 0.22255 0.0
N1312 N 0.29686 0.37894 0.21445 0.0
N1313 N 0.34573 0.40581 0.2532 0.0
H1314 H 0.72182 0.7874 0.64002 0.0
H1315 H 0.75702 0.73782 0.5504 0.0
H1316 H 0.74247 0.79051 0.43223 0.0
H1317 H 0.75818 0.75235 0.7675 0.0
H1318 H 0.75345 0.75826 0.50617 0.0
H1319 H 0.73638 0.77587 0.68887 0.0
C1320 C 0.72967 0.78594 0.60483 0.0
C1321 C 0.73081 0.78986 0.5317 0.0
C1322 C 0.75487 0.75726 0.56346 0.0
C1323 C 0.74724 0.77629 0.58727 0.0
C1324 C 0.7569 0.74557 0.58875 0.0
C1325 C 0.75777 0.7433 0.66269 0.0
C1326 C 0.75319 0.76646 0.6125 0.0
C1327 C 0.75756 0.75371 0.71004 0.0
C1328 C 0.73803 0.77937 0.63292 0.0
C1329 C 0.74116 0.78761 0.48882 0.0
N1330 N 0.75488 0.76461 0.68416 0.0
N1331 N 0.7487 0.78069 0.51696 0.0
H1332 H 0.27313 0.01197 0.62133 0.0
H1333 H 0.35013 0.10888 0.58877 0.0
H1334 H 0.28889 0.0371 0.41787 0.0
H1335 H 0.32527 0.08482 0.78857 0.0
H1336 H 0.32659 0.08321 0.5245 0.0
H1337 H 0.29032 0.03877 0.68271 0.0
C1338 C 0.27998 0.02316 0.58952 0.0
C1339 C 0.27974 0.02235 0.51444 0.0
C1340 C 0.32616 0.0836 0.58231 0.0
C1341 C 0.29981 0.05315 0.58449 0.0
C1342 C 0.33966 0.09823 0.61918 0.0
C1343 C 0.33983 0.09895 0.6944 0.0
C1344 C 0.31283 0.06949 0.62087 0.0
C1345 C 0.32578 0.08481 0.7307 0.0
C1346 C 0.28981 0.03848 0.62463 0.0
C1347 C 0.28875 0.03721 0.47585 0.0
N1348 N 0.31298 0.07061 0.69365 0.0
N1349 N 0.29872 0.05206 0.51141 0.0
H1350 H 0.03791 0.35383 0.64458 0.0
H1351 H 0.94058 0.33022 0.58587 0.0
H1352 H 0.01017 0.34056 0.43726 0.0
H1353 H 0.96237 0.33094 0.79502 0.0
H1354 H 0.96516 0.33247 0.53077 0.0
H1355 H 0.00988 0.34401 0.70102 0.0
C1356 C 0.02586 0.34868 0.61091 0.0
C1357 C 0.02644 0.3482 0.53591 0.0
C1358 C 0.96448 0.33192 0.58867 0.0
C1359 C 0.9943 0.33707 0.60041 0.0
C1360 C 0.95047 0.3307 0.62027 0.0
C1361 C 0.94956 0.3306 0.69526 0.0
C1362 C 0.97789 0.33332 0.63228 0.0
C1363 C 0.96261 0.33105 0.73704 0.0
C1364 C 0.00983 0.34303 0.64329 0.0
C1365 C 0.01036 0.34124 0.49517 0.0
N1366 N 0.97642 0.33265 0.70497 0.0
N1367 N 0.99499 0.33618 0.52789 0.0
H1368 H 0.26155 0.26255 0.74596 0.0
H1369 H 0.23372 0.28718 0.38761 0.0
H1370 H 0.27902 0.26222 0.53562 0.0
H1371 H 0.23594 0.30466 0.59983 0.0
H1372 H 0.24156 0.27008 0.4405 0.0
H1373 H 0.24305 0.26977 0.69112 0.0
C1374 C 0.26116 0.26361 0.68817 0.0
C1375 C 0.27206 0.26208 0.64536 0.0
C1376 C 0.23997 0.27744 0.47538 0.0
C1377 C 0.25102 0.2703 0.58256 0.0
C1378 C 0.23544 0.28714 0.44534 0.0
C1379 C 0.23436 0.2975 0.48937 0.0
C1380 C 0.24315 0.27796 0.54988 0.0
C1381 C 0.23677 0.29699 0.56382 0.0
C1382 C 0.25069 0.26781 0.65698 0.0
C1383 C 0.27104 0.26358 0.57069 0.0
N1384 N 0.24116 0.28749 0.59167 0.0
N1385 N 0.26086 0.26778 0.54168 0.0
H1386 H 0.75227 0.0991 0.53714 0.0
H1387 H 0.72186 0.0109 0.63342 0.0
H1388 H 0.75705 0.08663 0.7541 0.0
H1389 H 0.74026 0.03138 0.42247 0.0
H1390 H 0.73544 0.03864 0.67932 0.0
H1391 H 0.74898 0.07497 0.49365 0.0
C1392 C 0.753 0.09148 0.57558 0.0
C1393 C 0.75485 0.09485 0.64941 0.0
C1394 C 0.73681 0.03713 0.62328 0.0
C1395 C 0.75061 0.06691 0.60001 0.0
C1396 C 0.72901 0.02126 0.59689 0.0
C1397 C 0.72983 0.01876 0.52383 0.0
C1398 C 0.74512 0.05058 0.576 0.0
C1399 C 0.73926 0.03271 0.47912 0.0
C1400 C 0.75113 0.07769 0.55065 0.0
C1401 C 0.75566 0.08449 0.69674 0.0
N1402 N 0.74625 0.048 0.50566 0.0
N1403 N 0.75315 0.07076 0.67134 0.0
H1404 H 0.94591 0.70182 0.77671 0.0
H1405 H 0.99726 0.74467 0.41143 0.0
H1406 H 0.92247 0.6818 0.56532 0.0
H1407 H 0.02432 0.75642 0.61968 0.0
H1408 H 0.96803 0.72583 0.46905 0.0
H1409 H 0.97309 0.72602 0.72128 0.0
C1410 C 0.94638 0.70261 0.71876 0.0
C1411 C 0.93204 0.68966 0.67561 0.0
C1412 C 0.98039 0.73272 0.5021 0.0
C1413 C 0.96294 0.71725 0.61202 0.0
C1414 C 0.99704 0.74353 0.46928 0.0
C1415 C 0.01323 0.75192 0.5107 0.0
C1416 C 0.97998 0.73043 0.57677 0.0
C1417 C 0.01217 0.74999 0.58555 0.0
C1418 C 0.96189 0.71638 0.68717 0.0
C1419 C 0.93334 0.69136 0.60072 0.0
N1420 N 0.99585 0.73935 0.6161 0.0
N1421 N 0.94855 0.70483 0.57136 0.0
loop_
_geom_bond_atom_site_label_1
_geom_bond_atom_site_label_2
_geom_bond_distance
_geom_bond_site_symmetry_2
_ccdc_geom_bond_type
Co0 O3 1.970 1_556 S
Co0 N17 1.989 1_556 S
Co0 O25 1.967 . S
Co0 O32 1.920 . S
Co1 O4 1.966 . S
Co1 N10 2.022 . S
Co1 N18 1.993 . S
Co1 O26 1.941 . S
C2 O3 1.258 . S
C2 O4 1.263 . S
O3 Co0 1.970 1_554 S
O3 C2 1.258 . S
O4 Co1 1.966 . S
O4 C2 1.263 . S
C5 O6 1.235 . S
C5 O32 1.289 . S
O6 C5 1.235 . S
C7 C9 1.400 . S
C7 N10 1.351 . S
C7 C12 1.501 . S
C8 C9 1.387 . S
C8 N11 1.341 . S
C9 C7 1.400 . S
C9 C8 1.387 . S
N10 Co1 2.022 . S
N10 C7 1.351 . S
N10 N11 1.365 . S
N11 C8 1.341 . S
N11 N10 1.365 . S
N11 H31 0.862 . S
C12 C7 1.501 . S
C12 H13 0.961 . S
C12 H14 0.961 . S
C12 H15 0.960 . S
H13 C12 0.961 . S
H14 C12 0.961 . S
H15 C12 0.960 . S
C16 N17 1.342 . S
C16 C20 1.401 . S
C16 C21 1.499 1_554 S
N17 Co0 1.989 1_554 S
N17 C16 1.342 . S
N17 N18 1.388 . S
N18 Co1 1.993 . S
N18 N17 1.388 . S
N18 C19 1.346 . S
C19 N18 1.346 . S
C19 C20 1.396 . S
C19 C29 1.510 . S
C20 C16 1.401 . S
C20 C19 1.396 . S
C21 C16 1.499 1_556 S
C21 H22 0.959 . S
C21 H23 0.960 . S
C21 H24 0.961 . S
H22 C21 0.959 . S
H23 C21 0.960 . S
H24 C21 0.961 . S
O25 Co0 1.967 . S
O25 C33 1.258 1_556 S
O26 Co1 1.941 . S
O26 C33 1.266 . S
H27 C29 0.959 . S
H28 C29 0.961 . S
C29 C19 1.510 . S
C29 H27 0.959 . S
C29 H28 0.961 . S
C29 H30 0.960 . S
H30 C29 0.960 . S
H31 N11 0.862 . S
O32 Co0 1.920 . S
O32 C5 1.289 . S
C33 O25 1.258 1_554 S
C33 O26 1.266 . S
Co34 O37 1.970 . S
Co34 N51 1.989 . S
Co34 O59 1.967 . S
Co34 O66 1.920 1_554 S
Co35 O38 1.966 . S
Co35 N44 2.022 . S
Co35 N52 1.993 . S
Co35 O60 1.941 . S
C36 O37 1.258 . S
C36 O38 1.263 . S
O37 Co34 1.970 . S
O37 C36 1.258 . S
O38 Co35 1.966 . S
O38 C36 1.263 . S
C39 O40 1.235 . S
C39 O66 1.289 . S
O40 C39 1.235 . S
C41 C43 1.400 . S
C41 N44 1.351 . S
C41 C46 1.501 . S
C42 C43 1.387 . S
C42 N45 1.341 . S
C43 C41 1.400 . S
C43 C42 1.387 . S
N44 Co35 2.022 . S
N44 C41 1.351 . S
N44 N45 1.365 . S
N45 C42 1.341 . S
N45 N44 1.365 . S
N45 H65 0.862 . S
C46 C41 1.501 . S
C46 H47 0.961 . S
C46 H48 0.961 . S
C46 H49 0.960 . S
H47 C46 0.961 . S
H48 C46 0.961 . S
H49 C46 0.960 . S
C50 N51 1.342 . S
C50 C54 1.401 . S
C50 C55 1.499 1_554 S
N51 Co34 1.989 . S
N51 C50 1.342 . S
N51 N52 1.388 . S
N52 Co35 1.993 . S
N52 N51 1.388 . S
N52 C53 1.346 . S
C53 N52 1.346 . S
C53 C54 1.396 . S
C53 C63 1.510 . S
C54 C50 1.401 . S
C54 C53 1.396 . S
C55 C50 1.499 1_556 S
C55 H56 0.959 . S
C55 H57 0.960 . S
C55 H58 0.961 . S
H56 C55 0.959 . S
H57 C55 0.960 . S
H58 C55 0.961 . S
O59 Co34 1.967 . S
O59 C67 1.258 . S
O60 Co35 1.941 . S
O60 C67 1.266 . S
H61 C63 0.959 . S
H62 C63 0.961 . S
C63 C53 1.510 . S
C63 H61 0.959 . S
C63 H62 0.961 . S
C63 H64 0.960 . S
H64 C63 0.960 . S
H65 N45 0.862 . S
O66 Co34 1.920 1_556 S
O66 C39 1.289 . S
C67 O59 1.258 . S
C67 O60 1.266 . S
Co68 O71 1.970 . S
Co68 N85 1.989 . S
Co68 O93 1.967 . S
Co68 O100 1.920 . S
Co69 O72 1.966 1_556 S
Co69 N78 2.021 . S
Co69 N86 1.994 1_556 S
Co69 O94 1.942 1_556 S
C70 O71 1.258 . S
C70 O72 1.263 . S
O71 Co68 1.970 . S
O71 C70 1.258 . S
O72 Co69 1.966 1_554 S
O72 C70 1.263 . S
C73 O74 1.235 . S
C73 O100 1.289 . S
O74 C73 1.235 . S
C75 C77 1.400 . S
C75 N78 1.351 . S
C75 C80 1.501 . S
C76 C77 1.387 . S
C76 N79 1.341 . S
C77 C75 1.400 . S
C77 C76 1.387 . S
N78 Co69 2.021 . S
N78 C75 1.351 . S
N78 N79 1.365 . S
N79 C76 1.341 . S
N79 N78 1.365 . S
N79 H99 0.862 . S
C80 C75 1.501 . S
C80 H81 0.961 . S
C80 H82 0.961 . S
C80 H83 0.960 . S
H81 C80 0.961 . S
H82 C80 0.961 . S
H83 C80 0.960 . S
C84 N85 1.342 . S
C84 C88 1.401 . S
C84 C89 1.499 . S
N85 Co68 1.989 . S
N85 C84 1.342 . S
N85 N86 1.388 . S
N86 Co69 1.994 1_554 S
N86 N85 1.388 . S
N86 C87 1.346 . S
C87 N86 1.346 . S
C87 C88 1.396 . S
C87 C97 1.510 1_554 S
C88 C84 1.401 . S
C88 C87 1.396 . S
C89 C84 1.499 . S
C89 H90 0.959 . S
C89 H91 0.960 . S
C89 H92 0.961 . S
H90 C89 0.959 . S
H91 C89 0.960 . S
H92 C89 0.961 . S
O93 Co68 1.967 . S
O93 C101 1.258 . S
O94 Co69 1.942 1_554 S
O94 C101 1.266 . S
H95 C97 0.959 . S
H96 C97 0.961 . S
C97 C87 1.510 1_556 S
C97 H95 0.959 . S
C97 H96 0.961 . S
C97 H98 0.960 . S
H98 C97 0.960 . S
H99 N79 0.862 . S
O100 Co68 1.920 . S
O100 C73 1.289 . S
C101 O93 1.258 . S
C101 O94 1.266 . S
Co102 O105 1.970 1_455 S
Co102 N119 1.989 . S
Co102 O127 1.967 . S
Co102 O134 1.927 . S
Co103 O106 1.966 1_455 S
Co103 N112 2.022 . S
Co103 N120 1.993 1_556 S
Co103 O128 1.941 1_556 S
C104 O105 1.258 . S
C104 O106 1.263 1_554 S
O105 Co102 1.970 1_655 S
O105 C104 1.258 . S
O106 Co103 1.966 1_655 S
O106 C104 1.263 1_556 S
C107 O108 1.235 . S
C107 O134 1.268 1_655 S
O108 C107 1.235 . S
C109 C111 1.400 . S
C109 N112 1.351 . S
C109 C114 1.501 1_455 S
C110 C111 1.387 . S
C110 N113 1.341 . S
C111 C109 1.400 . S
C111 C110 1.387 . S
N112 Co103 2.022 . S
N112 C109 1.351 . S
N112 N113 1.365 . S
N113 C110 1.341 . S
N113 N112 1.365 . S
N113 H133 0.862 . S
C114 C109 1.501 1_655 S
C114 H115 0.961 . S
C114 H116 0.961 . S
C114 H117 0.960 . S
H115 C114 0.961 . S
H116 C114 0.961 . S
H117 C114 0.960 . S
C118 N119 1.342 . S
C118 C122 1.401 . S
C118 C123 1.499 . S
N119 Co102 1.989 . S
N119 C118 1.342 . S
N119 N120 1.388 . S
N120 Co103 1.993 1_554 S
N120 N119 1.388 . S
N120 C121 1.346 . S
C121 N120 1.346 . S
C121 C122 1.396 . S
C121 C131 1.510 1_554 S
C122 C118 1.401 . S
C122 C121 1.396 . S
C123 C118 1.499 . S
C123 H124 0.959 . S
C123 H125 0.960 . S
C123 H126 0.961 . S
H124 C123 0.959 . S
H125 C123 0.960 . S
H126 C123 0.961 . S
O127 Co102 1.967 . S
O127 C135 1.258 . S
O128 Co103 1.941 1_554 S
O128 C135 1.266 . S
H129 C131 0.959 . S
H130 C131 0.961 . S
C131 C121 1.510 1_556 S
C131 H129 0.959 . S
C131 H130 0.961 . S
C131 H132 0.960 . S
H132 C131 0.960 . S
H133 N113 0.862 . S
O134 Co102 1.927 . S
O134 C107 1.268 1_455 S
C135 O127 1.258 . S
C135 O128 1.266 . S
Co136 O139 1.970 . S
Co136 N153 1.989 . S
Co136 O161 1.967 . S
Co136 O168 1.920 . S
Co137 O140 1.966 . S
Co137 N146 2.022 1_554 S
Co137 N154 1.993 . S
Co137 O162 1.941 . S
C138 O139 1.258 . S
C138 O140 1.263 . S
O139 Co136 1.970 . S
O139 C138 1.258 . S
O140 Co137 1.966 . S
O140 C138 1.263 . S
C141 O142 1.235 . S
C141 O168 1.289 . S
O142 C141 1.235 . S
C143 C145 1.400 . S
C143 N146 1.351 . S
C143 C148 1.501 . S
C144 C145 1.387 . S
C144 N147 1.341 . S
C145 C143 1.400 . S
C145 C144 1.387 . S
N146 Co137 2.022 1_556 S
N146 C143 1.351 . S
N146 N147 1.365 . S
N147 C144 1.341 . S
N147 N146 1.365 . S
N147 H167 0.862 . S
C148 C143 1.501 . S
C148 H149 0.961 . S
C148 H150 0.961 . S
C148 H151 0.960 . S
H149 C148 0.961 . S
H150 C148 0.961 . S
H151 C148 0.960 . S
C152 N153 1.342 . S
C152 C156 1.401 . S
C152 C157 1.499 . S
N153 Co136 1.989 . S
N153 C152 1.342 . S
N153 N154 1.388 . S
N154 Co137 1.993 . S
N154 N153 1.388 . S
N154 C155 1.346 . S
C155 N154 1.346 . S
C155 C156 1.396 . S
C155 C165 1.510 1_554 S
C156 C152 1.401 . S
C156 C155 1.396 . S
C157 C152 1.499 . S
C157 H158 0.959 . S
C157 H159 0.960 . S
C157 H160 0.961 . S
H158 C157 0.959 . S
H159 C157 0.960 . S
H160 C157 0.961 . S
O161 Co136 1.967 . S
O161 C169 1.258 . S
O162 Co137 1.941 . S
O162 C169 1.266 . S
H163 C165 0.959 . S
H164 C165 0.961 . S
C165 C155 1.510 1_556 S
C165 H163 0.959 . S
C165 H164 0.961 . S
C165 H166 0.960 . S
H166 C165 0.960 . S
H167 N147 0.862 . S
O168 Co136 1.920 . S
O168 C141 1.289 . S
C169 O161 1.258 . S
C169 O162 1.266 . S
Co170 O173 1.970 . S
Co170 N187 1.963 1_565 S
Co170 O195 1.967 1_565 S
Co170 O202 1.920 1_554 S
Co171 O174 1.966 1_545 S
Co171 N180 2.022 . S
Co171 N188 1.993 . S
Co171 O196 1.941 . S
C172 O173 1.258 . S
C172 O174 1.263 . S
O173 Co170 1.970 . S
O173 C172 1.258 . S
O174 Co171 1.966 1_565 S
O174 C172 1.263 . S
C175 O176 1.235 . S
C175 O202 1.289 . S
O176 C175 1.235 . S
C177 C179 1.400 . S
C177 N180 1.351 . S
C177 C182 1.501 1_545 S
C178 C179 1.387 . S
C178 N181 1.341 . S
C179 C177 1.400 . S
C179 C178 1.387 . S
N180 Co171 2.022 . S
N180 C177 1.351 . S
N180 N181 1.365 . S
N181 C178 1.341 . S
N181 N180 1.365 . S
N181 H201 0.862 . S
C182 C177 1.501 1_565 S
C182 H183 0.961 . S
C182 H184 0.961 . S
C182 H185 0.960 . S
H183 C182 0.961 . S
H184 C182 0.961 . S
H185 C182 0.960 . S
C186 N187 1.342 . S
C186 C190 1.423 . S
C186 C191 1.500 1_544 S
N187 Co170 1.963 1_545 S
N187 C186 1.342 . S
N187 N188 1.396 . S
N188 Co171 1.993 . S
N188 N187 1.396 . S
N188 C189 1.346 . S
C189 N188 1.346 . S
C189 C190 1.396 . S
C189 C199 1.510 . S
C190 C186 1.423 . S
C190 C189 1.396 . S
C191 C186 1.500 1_566 S
C191 H192 0.959 . S
C191 H193 0.960 . S
C191 H194 0.961 1_565 S
H192 C191 0.959 . S
H193 C191 0.960 . S
H194 C191 0.961 1_545 S
O195 Co170 1.967 1_545 S
O195 C203 1.258 . S
O196 Co171 1.941 . S
O196 C203 1.266 . S
H197 C199 0.959 . S
H198 C199 0.961 . S
C199 C189 1.510 . S
C199 H197 0.959 . S
C199 H198 0.961 . S
C199 H200 0.960 . S
H200 C199 0.960 . S
H201 N181 0.862 . S
O202 Co170 1.920 1_556 S
O202 C175 1.289 . S
C203 O195 1.258 . S
C203 O196 1.266 . S
Co204 O207 1.970 . S
Co204 N221 1.989 . S
Co204 O229 1.967 . S
Co204 O236 1.920 . S
Co205 O208 1.966 . S
Co205 N214 2.022 . S
Co205 N222 1.993 . S
Co205 O230 1.941 . S
C206 O207 1.258 . S
C206 O208 1.263 . S
O207 Co204 1.970 . S
O207 C206 1.258 . S
O208 Co205 1.966 . S
O208 C206 1.263 . S
C209 O210 1.235 . S
C209 O236 1.289 . S
O210 C209 1.235 . S
C211 C213 1.400 . S
C211 N214 1.351 . S
C211 C216 1.501 . S
C212 C213 1.387 . S
C212 N215 1.341 . S
C213 C211 1.400 . S
C213 C212 1.387 . S
N214 Co205 2.022 . S
N214 C211 1.351 . S
N214 N215 1.365 . S
N215 C212 1.341 . S
N215 N214 1.365 . S
N215 H235 0.862 . S
C216 C211 1.501 . S
C216 H217 0.961 . S
C216 H218 0.961 . S
C216 H219 0.960 . S
H217 C216 0.961 . S
H218 C216 0.961 . S
H219 C216 0.960 . S
C220 N221 1.342 . S
C220 C224 1.401 . S
C220 C225 1.499 . S
N221 Co204 1.989 . S
N221 C220 1.342 . S
N221 N222 1.388 . S
N222 Co205 1.993 . S
N222 N221 1.388 . S
N222 C223 1.346 . S
C223 N222 1.346 . S
C223 C224 1.396 . S
C223 C233 1.510 . S
C224 C220 1.401 . S
C224 C223 1.396 . S
C225 C220 1.499 . S
C225 H226 0.959 . S
C225 H227 0.960 . S
C225 H228 0.961 . S
H226 C225 0.959 . S
H227 C225 0.960 . S
H228 C225 0.961 . S
O229 Co204 1.967 . S
O229 C237 1.258 . S
O230 Co205 1.941 . S
O230 C237 1.266 . S
H231 C233 0.959 . S
H232 C233 0.961 . S
C233 C223 1.510 . S
C233 H231 0.959 . S
C233 H232 0.961 . S
C233 H234 0.960 . S
H234 C233 0.960 . S
H235 N215 0.862 . S
O236 Co204 1.920 . S
O236 C209 1.289 . S
C237 O229 1.258 . S
C237 O230 1.266 . S
Co238 O241 1.970 . S
Co238 N255 1.989 . S
Co238 O263 1.967 . S
Co238 O270 1.920 . S
Co239 O242 1.966 . S
Co239 N248 2.022 . S
Co239 N256 1.993 . S
Co239 O264 1.941 . S
C240 O241 1.258 1_545 S
C240 O242 1.263 1_545 S
O241 Co238 1.970 . S
O241 C240 1.258 1_565 S
O242 Co239 1.966 . S
O242 C240 1.263 1_565 S
C243 O244 1.235 . S
C243 O270 1.289 . S
O244 C243 1.235 . S
C245 C247 1.400 . S
C245 N248 1.351 . S
C245 C250 1.501 . S
C246 C247 1.387 . S
C246 N249 1.341 . S
C247 C245 1.400 . S
C247 C246 1.387 . S
N248 Co239 2.022 . S
N248 C245 1.351 . S
N248 N249 1.365 . S
N249 C246 1.341 . S
N249 N248 1.365 . S
N249 H269 0.862 . S
C250 C245 1.501 . S
C250 H251 0.961 . S
C250 H252 0.961 . S
C250 H253 0.960 . S
H251 C250 0.961 . S
H252 C250 0.961 . S
H253 C250 0.960 . S
C254 N255 1.342 . S
C254 C258 1.401 . S
C254 C259 1.499 . S
N255 Co238 1.989 . S
N255 C254 1.342 . S
N255 N256 1.388 . S
N256 Co239 1.993 . S
N256 N255 1.388 . S
N256 C257 1.346 . S
C257 N256 1.346 . S
C257 C258 1.396 . S
C257 C267 1.510 . S
C258 C254 1.401 . S
C258 C257 1.396 . S
C259 C254 1.499 . S
C259 H260 0.959 . S
C259 H261 0.960 . S
C259 H262 0.961 . S
H260 C259 0.959 . S
H261 C259 0.960 . S
H262 C259 0.961 . S
O263 Co238 1.967 . S
O263 C271 1.258 . S
O264 Co239 1.941 . S
O264 C271 1.266 . S
H265 C267 0.959 . S
H266 C267 0.961 . S
C267 C257 1.510 . S
C267 H265 0.959 . S
C267 H266 0.961 . S
C267 H268 0.960 . S
H268 C267 0.960 . S
H269 N249 0.862 . S
O270 Co238 1.920 . S
O270 C243 1.289 . S
C271 O263 1.258 . S
C271 O264 1.266 . S
Co272 O275 1.970 . S
Co272 N289 1.989 . S
Co272 O297 1.967 . S
Co272 O304 1.920 . S
Co273 O276 1.966 . S
Co273 N282 2.022 . S
Co273 N290 1.993 . S
Co273 O298 1.941 . S
C274 O275 1.258 . S
C274 O276 1.263 . S
O275 Co272 1.970 . S
O275 C274 1.258 . S
O276 Co273 1.966 . S
O276 C274 1.263 . S
C277 O278 1.235 . S
C277 O304 1.289 . S
O278 C277 1.235 . S
C279 C281 1.400 . S
C279 N282 1.351 . S
C279 C284 1.501 . S
C280 C281 1.387 . S
C280 N283 1.341 . S
C281 C279 1.400 . S
C281 C280 1.387 . S
N282 Co273 2.022 . S
N282 C279 1.351 . S
N282 N283 1.365 . S
N283 C280 1.341 . S
N283 N282 1.365 . S
N283 H303 0.862 . S
C284 C279 1.501 . S
C284 H285 0.961 . S
C284 H286 0.961 . S
C284 H287 0.960 . S
H285 C284 0.961 . S
H286 C284 0.961 . S
H287 C284 0.960 . S
C288 N289 1.342 . S
C288 C292 1.401 . S
C288 C293 1.499 . S
N289 Co272 1.989 . S
N289 C288 1.342 . S
N289 N290 1.388 . S
N290 Co273 1.993 . S
N290 N289 1.388 . S
N290 C291 1.346 . S
C291 N290 1.346 . S
C291 C292 1.396 . S
C291 C301 1.510 . S
C292 C288 1.401 . S
C292 C291 1.396 . S
C293 C288 1.499 . S
C293 H294 0.959 . S
C293 H295 0.960 . S
C293 H296 0.961 . S
H294 C293 0.959 . S
H295 C293 0.960 . S
H296 C293 0.961 . S
O297 Co272 1.967 . S
O297 C305 1.258 . S
O298 Co273 1.941 . S
O298 C305 1.266 . S
H299 C301 0.959 . S
H300 C301 0.961 . S
C301 C291 1.510 . S
C301 H299 0.959 . S
C301 H300 0.961 . S
C301 H302 0.960 . S
H302 C301 0.960 . S
H303 N283 0.862 . S
O304 Co272 1.920 . S
O304 C277 1.289 . S
C305 O297 1.258 . S
C305 O298 1.266 . S
Co306 O309 1.970 . S
Co306 N323 1.989 . S
Co306 O331 1.967 . S
Co306 O338 1.920 . S
Co307 O310 1.966 . S
Co307 N316 2.022 . S
Co307 N324 1.993 . S
Co307 O332 1.941 . S
C308 O309 1.258 . S
C308 O310 1.263 . S
O309 Co306 1.970 . S
O309 C308 1.258 . S
O310 Co307 1.966 . S
O310 C308 1.263 . S
C311 O312 1.235 . S
C311 O338 1.289 . S
O312 C311 1.235 . S
C313 C315 1.400 . S
C313 N316 1.351 . S
C313 C318 1.501 . S
C314 C315 1.387 . S
C314 N317 1.341 . S
C315 C313 1.400 . S
C315 C314 1.387 . S
N316 Co307 2.022 . S
N316 C313 1.351 . S
N316 N317 1.365 . S
N317 C314 1.341 . S
N317 N316 1.365 . S
N317 H337 0.862 . S
C318 C313 1.501 . S
C318 H319 0.961 . S
C318 H320 0.961 . S
C318 H321 0.960 . S
H319 C318 0.961 . S
H320 C318 0.961 . S
H321 C318 0.960 . S
C322 N323 1.342 . S
C322 C326 1.401 . S
C322 C327 1.499 . S
N323 Co306 1.989 . S
N323 C322 1.342 . S
N323 N324 1.388 . S
N324 Co307 1.993 . S
N324 N323 1.388 . S
N324 C325 1.346 . S
C325 N324 1.346 . S
C325 C326 1.396 . S
C325 C335 1.510 . S
C326 C322 1.401 . S
C326 C325 1.396 . S
C327 C322 1.499 . S
C327 H328 0.959 . S
C327 H329 0.960 . S
C327 H330 0.961 . S
H328 C327 0.959 . S
H329 C327 0.960 . S
H330 C327 0.961 . S
O331 Co306 1.967 . S
O331 C339 1.258 . S
O332 Co307 1.941 . S
O332 C339 1.266 . S
H333 C335 0.959 . S
H334 C335 0.961 . S
C335 C325 1.510 . S
C335 H333 0.959 . S
C335 H334 0.961 . S
C335 H336 0.960 . S
H336 C335 0.960 . S
H337 N317 0.862 . S
O338 Co306 1.920 . S
O338 C311 1.289 . S
C339 O331 1.258 . S
C339 O332 1.266 . S
Co340 O343 1.970 . S
Co340 N357 1.989 . S
Co340 O365 1.967 . S
Co340 O372 1.920 . S
Co341 O344 1.966 . S
Co341 N350 2.022 . S
Co341 N358 1.993 . S
Co341 O366 1.941 . S
C342 O343 1.258 . S
C342 O344 1.263 . S
O343 Co340 1.970 . S
O343 C342 1.258 . S
O344 Co341 1.966 . S
O344 C342 1.263 . S
C345 O346 1.235 . S
C345 O372 1.289 . S
O346 C345 1.235 . S
C347 C349 1.400 . S
C347 N350 1.351 . S
C347 C352 1.501 . S
C348 C349 1.387 . S
C348 N351 1.341 . S
C349 C347 1.400 . S
C349 C348 1.387 . S
N350 Co341 2.022 . S
N350 C347 1.351 . S
N350 N351 1.365 . S
N351 C348 1.341 . S
N351 N350 1.365 . S
N351 H371 0.862 . S
C352 C347 1.501 . S
C352 H353 0.961 . S
C352 H354 0.961 . S
C352 H355 0.960 . S
H353 C352 0.961 . S
H354 C352 0.961 . S
H355 C352 0.960 . S
C356 N357 1.342 . S
C356 C360 1.401 . S
C356 C361 1.499 . S
N357 Co340 1.989 . S
N357 C356 1.342 . S
N357 N358 1.388 . S
N358 Co341 1.993 . S
N358 N357 1.388 . S
N358 C359 1.346 . S
C359 N358 1.346 . S
C359 C360 1.396 . S
C359 C369 1.510 . S
C360 C356 1.401 . S
C360 C359 1.396 . S
C361 C356 1.499 . S
C361 H362 0.959 . S
C361 H363 0.960 . S
C361 H364 0.961 . S
H362 C361 0.959 . S
H363 C361 0.960 . S
H364 C361 0.961 . S
O365 Co340 1.967 . S
O365 C373 1.258 . S
O366 Co341 1.941 . S
O366 C373 1.266 . S
H367 C369 0.959 . S
H368 C369 0.961 . S
C369 C359 1.510 . S
C369 H367 0.959 . S
C369 H368 0.961 . S
C369 H370 0.960 . S
H370 C369 0.960 . S
H371 N351 0.862 . S
O372 Co340 1.920 . S
O372 C345 1.289 . S
C373 O365 1.258 . S
C373 O366 1.266 . S
Co374 O377 1.970 . S
Co374 N391 1.989 . S
Co374 O399 1.967 . S
Co374 O406 1.920 . S
Co375 O378 1.966 . S
Co375 N384 2.022 . S
Co375 N392 1.993 . S
Co375 O400 1.941 . S
C376 O377 1.258 . S
C376 O378 1.263 . S
O377 Co374 1.970 . S
O377 C376 1.258 . S
O378 Co375 1.966 . S
O378 C376 1.263 . S
C379 O380 1.235 . S
C379 O406 1.289 . S
O380 C379 1.235 . S
C381 C383 1.400 . S
C381 N384 1.351 . S
C381 C386 1.501 . S
C382 C383 1.387 . S
C382 N385 1.341 . S
C383 C381 1.400 . S
C383 C382 1.387 . S
N384 Co375 2.022 . S
N384 C381 1.351 . S
N384 N385 1.365 . S
N385 C382 1.341 . S
N385 N384 1.365 . S
N385 H405 0.862 . S
C386 C381 1.501 . S
C386 H387 0.961 . S
C386 H388 0.961 . S
C386 H389 0.960 . S
H387 C386 0.961 . S
H388 C386 0.961 . S
H389 C386 0.960 . S
C390 N391 1.342 . S
C390 C394 1.401 . S
C390 C395 1.499 . S
N391 Co374 1.989 . S
N391 C390 1.342 . S
N391 N392 1.388 . S
N392 Co375 1.993 . S
N392 N391 1.388 . S
N392 C393 1.346 . S
C393 N392 1.346 . S
C393 C394 1.396 . S
C393 C403 1.510 . S
C394 C390 1.401 . S
C394 C393 1.396 . S
C395 C390 1.499 . S
C395 H396 0.959 . S
C395 H397 0.960 . S
C395 H398 0.961 . S
H396 C395 0.959 . S
H397 C395 0.960 . S
H398 C395 0.961 . S
O399 Co374 1.967 . S
O399 C407 1.258 . S
O400 Co375 1.941 . S
O400 C407 1.266 . S
H401 C403 0.959 . S
H402 C403 0.961 . S
C403 C393 1.510 . S
C403 H401 0.959 . S
C403 H402 0.961 . S
C403 H404 0.960 . S
H404 C403 0.960 . S
H405 N385 0.862 . S
O406 Co374 1.920 . S
O406 C379 1.289 . S
C407 O399 1.258 . S
C407 O400 1.266 . S
Co408 O411 1.970 . S
Co408 N425 1.989 . S
Co408 O433 1.967 . S
Co408 O440 1.920 . S
Co409 O412 1.966 . S
Co409 N418 2.022 . S
Co409 N426 1.993 . S
Co409 O434 1.941 . S
C410 O411 1.258 . S
C410 O412 1.263 . S
O411 Co408 1.970 . S
O411 C410 1.258 . S
O412 Co409 1.966 . S
O412 C410 1.263 . S
C413 O414 1.235 . S
C413 O440 1.289 . S
O414 C413 1.235 . S
C415 C417 1.400 . S
C415 N418 1.351 1_554 S
C415 C420 1.501 . S
C416 C417 1.387 . S
C416 N419 1.341 1_554 S
C417 C415 1.400 . S
C417 C416 1.387 . S
N418 Co409 2.022 . S
N418 C415 1.351 1_556 S
N418 N419 1.365 . S
N419 C416 1.341 1_556 S
N419 N418 1.365 . S
N419 H439 0.862 . S
C420 C415 1.501 . S
C420 H421 0.961 1_554 S
C420 H422 0.961 . S
C420 H423 0.960 . S
H421 C420 0.961 1_556 S
H422 C420 0.961 . S
H423 C420 0.960 . S
C424 N425 1.342 . S
C424 C428 1.401 . S
C424 C429 1.499 . S
N425 Co408 1.989 . S
N425 C424 1.342 . S
N425 N426 1.388 . S
N426 Co409 1.993 . S
N426 N425 1.388 . S
N426 C427 1.346 . S
C427 N426 1.346 . S
C427 C428 1.396 . S
C427 C437 1.510 . S
C428 C424 1.401 . S
C428 C427 1.396 . S
C429 C424 1.499 . S
C429 H430 0.959 . S
C429 H431 0.960 . S
C429 H432 0.961 . S
H430 C429 0.959 . S
H431 C429 0.960 . S
H432 C429 0.961 . S
O433 Co408 1.967 . S
O433 C441 1.258 . S
O434 Co409 1.941 . S
O434 C441 1.266 . S
H435 C437 0.959 . S
H436 C437 0.961 . S
C437 C427 1.510 . S
C437 H435 0.959 . S
C437 H436 0.961 . S
C437 H438 0.960 . S
H438 C437 0.960 . S
H439 N419 0.862 . S
O440 Co408 1.920 . S
O440 C413 1.289 . S
C441 O433 1.258 . S
C441 O434 1.266 . S
Co442 O445 1.970 . S
Co442 N459 1.989 . S
Co442 O467 1.967 . S
Co442 O474 1.920 . S
Co443 O446 1.966 . S
Co443 N452 2.022 . S
Co443 N460 1.993 . S
Co443 O468 1.941 . S
C444 O445 1.258 . S
C444 O446 1.263 . S
O445 Co442 1.970 . S
O445 C444 1.258 . S
O446 Co443 1.966 . S
O446 C444 1.263 . S
C447 O448 1.235 . S
C447 O474 1.289 . S
O448 C447 1.235 . S
C449 C451 1.400 1_556 S
C449 N452 1.351 . S
C449 C454 1.501 . S
C450 C451 1.387 . S
C450 N453 1.341 1_554 S
C451 C449 1.400 1_554 S
C451 C450 1.387 . S
N452 Co443 2.022 . S
N452 C449 1.351 . S
N452 N453 1.365 . S
N453 C450 1.341 1_556 S
N453 N452 1.365 . S
N453 H473 0.862 . S
C454 C449 1.501 . S
C454 H455 0.961 . S
C454 H456 0.961 . S
C454 H457 0.960 1_556 S
H455 C454 0.961 . S
H456 C454 0.961 . S
H457 C454 0.960 1_554 S
C458 N459 1.342 . S
C458 C462 1.401 . S
C458 C463 1.499 . S
N459 Co442 1.989 . S
N459 C458 1.342 . S
N459 N460 1.388 . S
N460 Co443 1.993 . S
N460 N459 1.388 . S
N460 C461 1.346 . S
C461 N460 1.346 . S
C461 C462 1.396 . S
C461 C471 1.510 . S
C462 C458 1.401 . S
C462 C461 1.396 . S
C463 C458 1.499 . S
C463 H464 0.959 . S
C463 H465 0.960 . S
C463 H466 0.961 . S
H464 C463 0.959 . S
H465 C463 0.960 . S
H466 C463 0.961 . S
O467 Co442 1.967 . S
O467 C475 1.258 . S
O468 Co443 1.941 . S
O468 C475 1.266 . S
H469 C471 0.959 . S
H470 C471 0.961 . S
C471 C461 1.510 . S
C471 H469 0.959 . S
C471 H470 0.961 . S
C471 H472 0.960 . S
H472 C471 0.960 . S
H473 N453 0.862 . S
O474 Co442 1.920 . S
O474 C447 1.289 . S
C475 O467 1.258 . S
C475 O468 1.266 . S
Co476 O479 1.970 . S
Co476 N493 1.989 . S
Co476 O501 1.967 . S
Co476 O508 1.920 . S
Co477 O480 1.966 . S
Co477 N486 2.022 . S
Co477 N494 1.993 . S
Co477 O502 1.941 . S
C478 O479 1.258 . S
C478 O480 1.263 . S
O479 Co476 1.970 . S
O479 C478 1.258 . S
O480 Co477 1.966 . S
O480 C478 1.263 . S
C481 O482 1.235 . S
C481 O508 1.289 . S
O482 C481 1.235 . S
C483 C485 1.400 . S
C483 N486 1.351 . S
C483 C488 1.501 . S
C484 C485 1.387 . S
C484 N487 1.341 . S
C485 C483 1.400 . S
C485 C484 1.387 . S
N486 Co477 2.022 . S
N486 C483 1.351 . S
N486 N487 1.365 . S
N487 C484 1.341 . S
N487 N486 1.365 . S
N487 H507 0.862 . S
C488 C483 1.501 . S
C488 H489 0.961 . S
C488 H490 0.961 . S
C488 H491 0.960 . S
H489 C488 0.961 . S
H490 C488 0.961 . S
H491 C488 0.960 . S
C492 N493 1.342 . S
C492 C496 1.401 . S
C492 C497 1.499 . S
N493 Co476 1.989 . S
N493 C492 1.342 . S
N493 N494 1.388 . S
N494 Co477 1.993 . S
N494 N493 1.388 . S
N494 C495 1.346 . S
C495 N494 1.346 . S
C495 C496 1.396 . S
C495 C505 1.510 . S
C496 C492 1.401 . S
C496 C495 1.396 . S
C497 C492 1.499 . S
C497 H498 0.959 . S
C497 H499 0.960 . S
C497 H500 0.961 . S
H498 C497 0.959 . S
H499 C497 0.960 . S
H500 C497 0.961 . S
O501 Co476 1.967 . S
O501 C509 1.258 . S
O502 Co477 1.941 . S
O502 C509 1.266 . S
H503 C505 0.959 . S
H504 C505 0.961 . S
C505 C495 1.510 . S
C505 H503 0.959 . S
C505 H504 0.961 . S
C505 H506 0.960 . S
H506 C505 0.960 . S
H507 N487 0.862 . S
O508 Co476 1.920 . S
O508 C481 1.289 . S
C509 O501 1.258 . S
C509 O502 1.266 . S
Co510 O513 1.970 . S
Co510 N527 1.989 . S
Co510 O535 1.967 . S
Co510 O542 1.920 . S
Co511 O514 1.966 . S
Co511 N520 2.022 . S
Co511 N528 1.993 . S
Co511 O536 1.941 . S
C512 O513 1.258 . S
C512 O514 1.263 . S
O513 Co510 1.970 . S
O513 C512 1.258 . S
O514 Co511 1.966 . S
O514 C512 1.263 . S
C515 O516 1.235 . S
C515 O542 1.289 . S
O516 C515 1.235 . S
C517 C519 1.400 . S
C517 N520 1.351 . S
C517 C522 1.501 . S
C518 C519 1.387 . S
C518 N521 1.341 . S
C519 C517 1.400 . S
C519 C518 1.387 . S
N520 Co511 2.022 . S
N520 C517 1.351 . S
N520 N521 1.365 . S
N521 C518 1.341 . S
N521 N520 1.365 . S
N521 H541 0.862 . S
C522 C517 1.501 . S
C522 H523 0.961 . S
C522 H524 0.961 . S
C522 H525 0.960 . S
H523 C522 0.961 . S
H524 C522 0.961 . S
H525 C522 0.960 . S
C526 N527 1.342 . S
C526 C530 1.401 . S
C526 C531 1.499 . S
N527 Co510 1.989 . S
N527 C526 1.342 . S
N527 N528 1.388 . S
N528 Co511 1.993 . S
N528 N527 1.388 . S
N528 C529 1.346 . S
C529 N528 1.346 . S
C529 C530 1.396 . S
C529 C539 1.510 . S
C530 C526 1.401 . S
C530 C529 1.396 . S
C531 C526 1.499 . S
C531 H532 0.959 . S
C531 H533 0.960 . S
C531 H534 0.961 . S
H532 C531 0.959 . S
H533 C531 0.960 . S
H534 C531 0.961 . S
O535 Co510 1.967 . S
O535 C543 1.258 . S
O536 Co511 1.941 . S
O536 C543 1.266 . S
H537 C539 0.959 . S
H538 C539 0.961 . S
C539 C529 1.510 . S
C539 H537 0.959 . S
C539 H538 0.961 . S
C539 H540 0.960 . S
H540 C539 0.960 . S
H541 N521 0.862 . S
O542 Co510 1.920 . S
O542 C515 1.289 . S
C543 O535 1.258 . S
C543 O536 1.266 . S
Co544 O547 1.970 . S
Co544 N561 1.989 . S
Co544 O569 1.967 . S
Co544 O576 1.920 . S
Co545 O548 1.966 . S
Co545 N554 2.022 . S
Co545 N562 1.993 . S
Co545 O570 1.941 . S
C546 O547 1.258 . S
C546 O548 1.263 . S
O547 Co544 1.970 . S
O547 C546 1.258 . S
O548 Co545 1.966 . S
O548 C546 1.263 . S
C549 O550 1.235 . S
C549 O576 1.289 . S
O550 C549 1.235 . S
C551 C553 1.400 . S
C551 N554 1.351 . S
C551 C556 1.501 . S
C552 C553 1.387 . S
C552 N555 1.341 . S
C553 C551 1.400 . S
C553 C552 1.387 . S
N554 Co545 2.022 . S
N554 C551 1.351 . S
N554 N555 1.365 . S
N555 C552 1.341 . S
N555 N554 1.365 . S
N555 H575 0.862 . S
C556 C551 1.501 . S
C556 H557 0.961 . S
C556 H558 0.961 . S
C556 H559 0.960 . S
H557 C556 0.961 . S
H558 C556 0.961 . S
H559 C556 0.960 . S
C560 N561 1.342 . S
C560 C564 1.401 . S
C560 C565 1.499 . S
N561 Co544 1.989 . S
N561 C560 1.342 . S
N561 N562 1.388 . S
N562 Co545 1.993 . S
N562 N561 1.388 . S
N562 C563 1.346 . S
C563 N562 1.346 . S
C563 C564 1.396 . S
C563 C573 1.510 . S
C564 C560 1.401 . S
C564 C563 1.396 . S
C565 C560 1.499 . S
C565 H566 0.959 . S
C565 H567 0.960 . S
C565 H568 0.961 . S
H566 C565 0.959 . S
H567 C565 0.960 . S
H568 C565 0.961 . S
O569 Co544 1.967 . S
O569 C577 1.258 . S
O570 Co545 1.941 . S
O570 C577 1.266 . S
H571 C573 0.959 . S
H572 C573 0.961 . S
C573 C563 1.510 . S
C573 H571 0.959 . S
C573 H572 0.961 . S
C573 H574 0.960 . S
H574 C573 0.960 . S
H575 N555 0.862 . S
O576 Co544 1.920 . S
O576 C549 1.289 . S
C577 O569 1.258 . S
C577 O570 1.266 . S
Co578 O581 1.970 . S
Co578 N595 1.989 . S
Co578 O603 1.967 . S
Co578 O610 1.920 . S
Co579 O582 1.966 . S
Co579 N588 2.022 . S
Co579 N596 1.993 . S
Co579 O604 1.941 . S
C580 O581 1.258 . S
C580 O582 1.263 . S
O581 Co578 1.970 . S
O581 C580 1.258 . S
O582 Co579 1.966 . S
O582 C580 1.263 . S
C583 O584 1.235 . S
C583 O610 1.289 . S
O584 C583 1.235 . S
C585 C587 1.400 1_556 S
C585 N588 1.351 . S
C585 C590 1.501 . S
C586 C587 1.387 . S
C586 N589 1.341 1_554 S
C587 C585 1.400 1_554 S
C587 C586 1.387 . S
N588 Co579 2.022 . S
N588 C585 1.351 . S
N588 N589 1.365 . S
N589 C586 1.341 1_556 S
N589 N588 1.365 . S
N589 H609 0.862 . S
C590 C585 1.501 . S
C590 H591 0.961 . S
C590 H592 0.961 1_556 S
C590 H593 0.960 1_556 S
H591 C590 0.961 . S
H592 C590 0.961 1_554 S
H593 C590 0.960 1_554 S
C594 N595 1.342 . S
C594 C598 1.401 . S
C594 C599 1.499 . S
N595 Co578 1.989 . S
N595 C594 1.342 . S
N595 N596 1.388 . S
N596 Co579 1.993 . S
N596 N595 1.388 . S
N596 C597 1.346 . S
C597 N596 1.346 . S
C597 C598 1.396 . S
C597 C607 1.510 . S
C598 C594 1.401 . S
C598 C597 1.396 . S
C599 C594 1.499 . S
C599 H600 0.959 . S
C599 H601 0.960 . S
C599 H602 0.961 . S
H600 C599 0.959 . S
H601 C599 0.960 . S
H602 C599 0.961 . S
O603 Co578 1.967 . S
O603 C611 1.258 . S
O604 Co579 1.941 . S
O604 C611 1.266 . S
H605 C607 0.959 . S
H606 C607 0.961 . S
C607 C597 1.510 . S
C607 H605 0.959 . S
C607 H606 0.961 . S
C607 H608 0.960 . S
H608 C607 0.960 . S
H609 N589 0.862 . S
O610 Co578 1.920 . S
O610 C583 1.289 . S
C611 O603 1.258 . S
C611 O604 1.266 . S
H612 C618 0.930 . S
H613 C622 0.930 . S
H614 C627 0.929 . S
H615 C625 0.929 . S
H616 C620 0.929 . S
H617 C626 0.929 . S
C618 H612 0.930 . S
C618 C619 1.367 . S
C618 C626 1.378 . S
C619 C618 1.367 . S
C619 C627 1.433 . S
C620 H616 0.929 . S
C620 C622 1.378 . S
C620 C624 1.350 . S
C621 C624 1.463 . S
C621 C626 1.350 . S
C621 N629 1.427 . S
C622 H613 0.930 . S
C622 C620 1.378 . S
C622 C623 1.367 . S
C623 C622 1.367 . S
C623 C625 1.433 . S
C624 C620 1.350 . S
C624 C621 1.463 . S
C624 N628 1.427 . S
C625 H615 0.929 . S
C625 C623 1.433 . S
C625 N628 1.384 . S
C626 H617 0.929 . S
C626 C618 1.378 . S
C626 C621 1.350 . S
C627 H614 0.929 . S
C627 C619 1.433 . S
C627 N629 1.384 . S
N628 C624 1.427 . S
N628 C625 1.384 . S
N629 C621 1.427 . S
N629 C627 1.384 . S
H630 C636 0.930 . S
H631 C640 0.930 . S
H632 C645 0.929 . S
H633 C643 0.929 . S
H634 C638 0.929 . S
H635 C644 0.929 . S
C636 H630 0.930 . S
C636 C637 1.367 . S
C636 C644 1.378 . S
C637 C636 1.367 . S
C637 C645 1.433 . S
C638 H634 0.929 . S
C638 C640 1.378 . S
C638 C642 1.350 . S
C639 C642 1.463 . S
C639 C644 1.350 . S
C639 N647 1.427 . S
C640 H631 0.930 . S
C640 C638 1.378 . S
C640 C641 1.367 . S
C641 C640 1.367 . S
C641 C643 1.433 . S
C642 C638 1.350 . S
C642 C639 1.463 . S
C642 N646 1.427 . S
C643 H633 0.929 . S
C643 C641 1.433 . S
C643 N646 1.384 . S
C644 H635 0.929 . S
C644 C636 1.378 . S
C644 C639 1.350 . S
C645 H632 0.929 . S
C645 C637 1.433 . S
C645 N647 1.384 . S
N646 C642 1.427 . S
N646 C643 1.384 . S
N647 C639 1.427 . S
N647 C645 1.384 . S
H648 C654 0.930 . S
H649 C658 0.930 . S
H650 C663 0.929 . S
H651 C661 0.929 . S
H652 C656 0.929 . S
H653 C662 0.929 . S
C654 H648 0.930 . S
C654 C655 1.367 . S
C654 C662 1.378 . S
C655 C654 1.367 . S
C655 C663 1.433 . S
C656 H652 0.929 . S
C656 C658 1.378 . S
C656 C660 1.350 . S
C657 C660 1.463 . S
C657 C662 1.350 . S
C657 N665 1.427 . S
C658 H649 0.930 . S
C658 C656 1.378 . S
C658 C659 1.367 . S
C659 C658 1.367 . S
C659 C661 1.433 . S
C660 C656 1.350 . S
C660 C657 1.463 . S
C660 N664 1.427 . S
C661 H651 0.929 . S
C661 C659 1.433 . S
C661 N664 1.384 . S
C662 H653 0.929 . S
C662 C654 1.378 . S
C662 C657 1.350 . S
C663 H650 0.929 . S
C663 C655 1.433 . S
C663 N665 1.384 . S
N664 C660 1.427 . S
N664 C661 1.384 . S
N665 C657 1.427 . S
N665 C663 1.384 . S
H666 C672 0.930 1_655 S
H667 C676 0.930 . S
H668 C681 0.929 . S
H669 C679 0.929 . S
H670 C674 0.929 . S
H671 C680 0.929 . S
C672 H666 0.930 1_455 S
C672 C673 1.367 . S
C672 C680 1.378 1_455 S
C673 C672 1.367 . S
C673 C681 1.433 . S
C674 H670 0.929 . S
C674 C676 1.378 . S
C674 C678 1.351 1_455 S
C675 C678 1.457 1_455 S
C675 C680 1.350 1_455 S
C675 N683 1.427 . S
C676 H667 0.930 . S
C676 C674 1.378 . S
C676 C677 1.367 1_455 S
C677 C676 1.367 1_655 S
C677 C679 1.433 . S
C678 C674 1.351 1_655 S
C678 C675 1.457 1_655 S
C678 N682 1.433 . S
C679 H669 0.929 . S
C679 C677 1.433 . S
C679 N682 1.384 . S
C680 H671 0.929 . S
C680 C672 1.378 1_655 S
C680 C675 1.350 1_655 S
C681 H668 0.929 . S
C681 C673 1.433 . S
C681 N683 1.384 . S
N682 C678 1.433 . S
N682 C679 1.384 . S
N683 C675 1.427 . S
N683 C681 1.384 . S
H684 C690 0.930 . S
H685 C694 0.930 . S
H686 C699 0.929 . S
H687 C697 0.929 . S
H688 C692 0.929 . S
H689 C698 0.929 . S
C690 H684 0.930 . S
C690 C691 1.367 . S
C690 C698 1.378 . S
C691 C690 1.367 . S
C691 C699 1.433 . S
C692 H688 0.929 . S
C692 C694 1.378 . S
C692 C696 1.350 . S
C693 C696 1.463 . S
C693 C698 1.350 . S
C693 N701 1.427 . S
C694 H685 0.930 . S
C694 C692 1.378 . S
C694 C695 1.367 . S
C695 C694 1.367 . S
C695 C697 1.433 . S
C696 C692 1.350 . S
C696 C693 1.463 . S
C696 N700 1.427 . S
C697 H687 0.929 . S
C697 C695 1.433 . S
C697 N700 1.384 . S
C698 H689 0.929 . S
C698 C690 1.378 . S
C698 C693 1.350 . S
C699 H686 0.929 . S
C699 C691 1.433 . S
C699 N701 1.384 . S
N700 C696 1.427 . S
N700 C697 1.384 . S
N701 C693 1.427 . S
N701 C699 1.384 . S
H702 C708 0.930 . S
H703 C712 0.930 . S
H704 C717 0.929 . S
H705 C715 0.929 . S
H706 C710 0.929 . S
H707 C716 0.929 . S
C708 H702 0.930 . S
C708 C709 1.367 . S
C708 C716 1.378 . S
C709 C708 1.367 . S
C709 C717 1.433 . S
C710 H706 0.929 . S
C710 C712 1.378 . S
C710 C714 1.350 1_545 S
C711 C714 1.463 . S
C711 C716 1.350 . S
C711 N719 1.427 . S
C712 H703 0.930 . S
C712 C710 1.378 . S
C712 C713 1.367 . S
C713 C712 1.367 . S
C713 C715 1.433 1_545 S
C714 C710 1.350 1_565 S
C714 C711 1.463 . S
C714 N718 1.427 . S
C715 H705 0.929 . S
C715 C713 1.433 1_565 S
C715 N718 1.384 . S
C716 H707 0.929 . S
C716 C708 1.378 . S
C716 C711 1.350 . S
C717 H704 0.929 . S
C717 C709 1.433 . S
C717 N719 1.384 . S
N718 C714 1.427 . S
N718 C715 1.384 . S
N719 C711 1.427 . S
N719 C717 1.384 . S
H720 C726 0.930 . S
H721 C730 0.930 . S
H722 C735 0.929 . S
H723 C733 0.929 . S
H724 C728 0.929 . S
H725 C734 0.929 . S
C726 H720 0.930 . S
C726 C727 1.367 . S
C726 C734 1.378 . S
C727 C726 1.367 . S
C727 C735 1.433 . S
C728 H724 0.929 . S
C728 C730 1.378 . S
C728 C732 1.350 . S
C729 C732 1.463 1_556 S
C729 C734 1.350 . S
C729 N737 1.427 . S
C730 H721 0.930 . S
C730 C728 1.378 . S
C730 C731 1.367 . S
C731 C730 1.367 . S
C731 C733 1.433 . S
C732 C728 1.350 . S
C732 C729 1.463 1_554 S
C732 N736 1.427 . S
C733 H723 0.929 . S
C733 C731 1.433 . S
C733 N736 1.384 . S
C734 H725 0.929 . S
C734 C726 1.378 . S
C734 C729 1.350 . S
C735 H722 0.929 . S
C735 C727 1.433 . S
C735 N737 1.384 . S
N736 C732 1.427 . S
N736 C733 1.384 . S
N737 C729 1.427 . S
N737 C735 1.384 . S
H738 C744 0.930 . S
H739 C748 0.930 . S
H740 C753 0.929 . S
H741 C751 0.929 . S
H742 C746 0.929 . S
H743 C752 0.929 . S
C744 H738 0.930 . S
C744 C745 1.367 . S
C744 C752 1.378 . S
C745 C744 1.367 . S
C745 C753 1.433 . S
C746 H742 0.929 . S
C746 C748 1.378 . S
C746 C750 1.350 . S
C747 C750 1.463 1_556 S
C747 C752 1.350 . S
C747 N755 1.427 . S
C748 H739 0.930 . S
C748 C746 1.378 . S
C748 C749 1.367 . S
C749 C748 1.367 . S
C749 C751 1.433 . S
C750 C746 1.350 . S
C750 C747 1.463 1_554 S
C750 N754 1.427 . S
C751 H741 0.929 . S
C751 C749 1.433 . S
C751 N754 1.384 . S
C752 H743 0.929 . S
C752 C744 1.378 . S
C752 C747 1.350 . S
C753 H740 0.929 . S
C753 C745 1.433 . S
C753 N755 1.384 . S
N754 C750 1.427 . S
N754 C751 1.384 . S
N755 C747 1.427 . S
N755 C753 1.384 . S
H756 C762 0.930 . S
H757 C766 0.930 . S
H758 C771 0.929 . S
H759 C769 0.929 . S
H760 C764 0.929 . S
H761 C770 0.929 . S
C762 H756 0.930 . S
C762 C763 1.367 . S
C762 C770 1.378 . S
C763 C762 1.367 . S
C763 C771 1.433 . S
C764 H760 0.929 . S
C764 C766 1.378 . S
C764 C768 1.350 . S
C765 C768 1.463 1_556 S
C765 C770 1.350 . S
C765 N773 1.427 . S
C766 H757 0.930 . S
C766 C764 1.378 . S
C766 C767 1.367 . S
C767 C766 1.367 . S
C767 C769 1.433 . S
C768 C764 1.350 . S
C768 C765 1.463 1_554 S
C768 N772 1.427 . S
C769 H759 0.929 . S
C769 C767 1.433 . S
C769 N772 1.384 . S
C770 H761 0.929 . S
C770 C762 1.378 . S
C770 C765 1.350 . S
C771 H758 0.929 . S
C771 C763 1.433 . S
C771 N773 1.384 . S
N772 C768 1.427 . S
N772 C769 1.384 . S
N773 C765 1.427 . S
N773 C771 1.384 . S
H774 C780 0.930 . S
H775 C784 0.930 . S
H776 C789 0.929 . S
H777 C787 0.929 . S
H778 C782 0.929 . S
H779 C788 0.929 . S
C780 H774 0.930 . S
C780 C781 1.367 . S
C780 C788 1.378 . S
C781 C780 1.367 . S
C781 C789 1.433 . S
C782 H778 0.929 . S
C782 C784 1.378 . S
C782 C786 1.350 . S
C783 C786 1.463 1_554 S
C783 C788 1.350 . S
C783 N791 1.427 . S
C784 H775 0.930 . S
C784 C782 1.378 . S
C784 C785 1.367 . S
C785 C784 1.367 . S
C785 C787 1.433 . S
C786 C782 1.350 . S
C786 C783 1.463 1_556 S
C786 N790 1.427 . S
C787 H777 0.929 . S
C787 C785 1.433 . S
C787 N790 1.384 . S
C788 H779 0.929 . S
C788 C780 1.378 . S
C788 C783 1.350 . S
C789 H776 0.929 . S
C789 C781 1.433 . S
C789 N791 1.384 . S
N790 C786 1.427 . S
N790 C787 1.384 . S
N791 C783 1.427 . S
N791 C789 1.384 . S
H792 C798 0.930 . S
H793 C802 0.930 . S
H794 C807 0.929 . S
H795 C805 0.929 . S
H796 C800 0.929 1_556 S
H797 C806 0.929 . S
C798 H792 0.930 . S
C798 C799 1.367 . S
C798 C806 1.378 . S
C799 C798 1.367 . S
C799 C807 1.433 . S
C800 H796 0.929 1_554 S
C800 C802 1.378 . S
C800 C804 1.350 . S
C801 C804 1.463 1_556 S
C801 C806 1.350 . S
C801 N809 1.427 . S
C802 H793 0.930 . S
C802 C800 1.378 . S
C802 C803 1.367 . S
C803 C802 1.367 . S
C803 C805 1.433 . S
C804 C800 1.350 . S
C804 C801 1.463 1_554 S
C804 N808 1.427 . S
C805 H795 0.929 . S
C805 C803 1.433 . S
C805 N808 1.384 . S
C806 H797 0.929 . S
C806 C798 1.378 . S
C806 C801 1.350 . S
C807 H794 0.929 . S
C807 C799 1.433 . S
C807 N809 1.384 . S
N808 C804 1.427 . S
N808 C805 1.384 . S
N809 C801 1.427 . S
N809 C807 1.384 . S
H810 C816 0.930 . S
H811 C820 0.930 . S
H812 C825 0.929 . S
H813 C823 0.929 . S
H814 C818 0.929 . S
H815 C824 0.929 . S
C816 H810 0.930 . S
C816 C817 1.367 . S
C816 C824 1.378 . S
C817 C816 1.367 . S
C817 C825 1.433 . S
C818 H814 0.929 . S
C818 C820 1.378 . S
C818 C822 1.350 . S
C819 C822 1.463 1_556 S
C819 C824 1.350 . S
C819 N827 1.427 . S
C820 H811 0.930 . S
C820 C818 1.378 . S
C820 C821 1.367 . S
C821 C820 1.367 . S
C821 C823 1.433 . S
C822 C818 1.350 . S
C822 C819 1.463 1_554 S
C822 N826 1.427 . S
C823 H813 0.929 . S
C823 C821 1.433 . S
C823 N826 1.384 . S
C824 H815 0.929 . S
C824 C816 1.378 . S
C824 C819 1.350 . S
C825 H812 0.929 . S
C825 C817 1.433 . S
C825 N827 1.384 . S
N826 C822 1.427 . S
N826 C823 1.384 . S
N827 C819 1.427 . S
N827 C825 1.384 . S
H828 C834 0.930 . S
H829 C838 0.930 . S
H830 C843 0.929 . S
H831 C841 0.929 . S
H832 C836 0.929 . S
H833 C842 0.929 . S
C834 H828 0.930 . S
C834 C835 1.367 . S
C834 C842 1.378 . S
C835 C834 1.367 . S
C835 C843 1.433 . S
C836 H832 0.929 . S
C836 C838 1.378 . S
C836 C840 1.350 . S
C837 C840 1.463 . S
C837 C842 1.350 . S
C837 N845 1.427 . S
C838 H829 0.930 . S
C838 C836 1.378 . S
C838 C839 1.367 . S
C839 C838 1.367 . S
C839 C841 1.433 . S
C840 C836 1.350 . S
C840 C837 1.463 . S
C840 N844 1.427 . S
C841 H831 0.929 . S
C841 C839 1.433 . S
C841 N844 1.384 . S
C842 H833 0.929 . S
C842 C834 1.378 . S
C842 C837 1.350 . S
C843 H830 0.929 . S
C843 C835 1.433 . S
C843 N845 1.384 . S
N844 C840 1.427 . S
N844 C841 1.384 . S
N845 C837 1.427 . S
N845 C843 1.384 . S
H846 C852 0.930 . S
H847 C856 0.930 . S
H848 C861 0.929 . S
H849 C859 0.929 . S
H850 C854 0.929 . S
H851 C860 0.929 . S
C852 H846 0.930 . S
C852 C853 1.367 . S
C852 C860 1.378 . S
C853 C852 1.367 . S
C853 C861 1.433 . S
C854 H850 0.929 . S
C854 C856 1.378 . S
C854 C858 1.350 . S
C855 C858 1.463 . S
C855 C860 1.350 . S
C855 N863 1.427 . S
C856 H847 0.930 . S
C856 C854 1.378 . S
C856 C857 1.367 . S
C857 C856 1.367 . S
C857 C859 1.433 . S
C858 C854 1.350 . S
C858 C855 1.463 . S
C858 N862 1.427 . S
C859 H849 0.929 . S
C859 C857 1.433 . S
C859 N862 1.384 . S
C860 H851 0.929 . S
C860 C852 1.378 . S
C860 C855 1.350 . S
C861 H848 0.929 . S
C861 C853 1.433 . S
C861 N863 1.384 . S
N862 C858 1.427 . S
N862 C859 1.384 . S
N863 C855 1.427 . S
N863 C861 1.384 . S
H864 C870 0.930 . S
H865 C874 0.930 . S
H866 C879 0.929 . S
H867 C877 0.929 . S
H868 C872 0.929 . S
H869 C878 0.929 . S
C870 H864 0.930 . S
C870 C871 1.367 . S
C870 C878 1.378 . S
C871 C870 1.367 . S
C871 C879 1.433 . S
C872 H868 0.929 . S
C872 C874 1.378 . S
C872 C876 1.350 . S
C873 C876 1.463 . S
C873 C878 1.350 . S
C873 N881 1.427 . S
C874 H865 0.930 . S
C874 C872 1.378 . S
C874 C875 1.367 . S
C875 C874 1.367 . S
C875 C877 1.433 . S
C876 C872 1.350 . S
C876 C873 1.463 . S
C876 N880 1.427 . S
C877 H867 0.929 . S
C877 C875 1.433 . S
C877 N880 1.384 . S
C878 H869 0.929 . S
C878 C870 1.378 . S
C878 C873 1.350 . S
C879 H866 0.929 . S
C879 C871 1.433 . S
C879 N881 1.384 . S
N880 C876 1.427 . S
N880 C877 1.384 . S
N881 C873 1.427 . S
N881 C879 1.384 . S
H882 C888 0.930 . S
H883 C892 0.930 . S
H884 C897 0.929 . S
H885 C895 0.929 . S
H886 C890 0.929 . S
H887 C896 0.929 . S
C888 H882 0.930 . S
C888 C889 1.367 . S
C888 C896 1.378 . S
C889 C888 1.367 . S
C889 C897 1.433 . S
C890 H886 0.929 . S
C890 C892 1.378 . S
C890 C894 1.350 . S
C891 C894 1.463 . S
C891 C896 1.350 . S
C891 N899 1.427 . S
C892 H883 0.930 . S
C892 C890 1.378 . S
C892 C893 1.367 . S
C893 C892 1.367 . S
C893 C895 1.433 . S
C894 C890 1.350 . S
C894 C891 1.463 . S
C894 N898 1.427 . S
C895 H885 0.929 . S
C895 C893 1.433 . S
C895 N898 1.384 . S
C896 H887 0.929 . S
C896 C888 1.378 . S
C896 C891 1.350 . S
C897 H884 0.929 . S
C897 C889 1.433 . S
C897 N899 1.384 . S
N898 C894 1.427 . S
N898 C895 1.384 . S
N899 C891 1.427 . S
N899 C897 1.384 . S
H900 C906 0.930 . S
H901 C910 0.930 . S
H902 C915 0.929 . S
H903 C913 0.922 1_556 S
H904 C908 0.929 . S
H905 C914 0.929 . S
C906 H900 0.930 . S
C906 C907 1.367 . S
C906 C914 1.378 . S
C907 C906 1.367 . S
C907 C915 1.433 . S
C908 H904 0.929 . S
C908 C910 1.378 . S
C908 C912 1.350 . S
C909 C912 1.463 . S
C909 C914 1.350 . S
C909 N917 1.427 . S
C910 H901 0.930 . S
C910 C908 1.378 . S
C910 C911 1.367 . S
C911 C910 1.367 . S
C911 C913 1.433 . S
C912 C908 1.350 . S
C912 C909 1.463 . S
C912 N916 1.427 . S
C913 H903 0.922 1_554 S
C913 C911 1.433 . S
C913 N916 1.384 . S
C914 H905 0.929 . S
C914 C906 1.378 . S
C914 C909 1.350 . S
C915 H902 0.929 . S
C915 C907 1.433 . S
C915 N917 1.384 . S
N916 C912 1.427 . S
N916 C913 1.384 . S
N917 C909 1.427 . S
N917 C915 1.384 . S
H918 C924 0.930 . S
H919 C928 0.930 . S
H920 C933 0.929 . S
H921 C931 0.929 . S
H922 C926 0.929 . S
H923 C932 0.929 . S
C924 H918 0.930 . S
C924 C925 1.367 . S
C924 C932 1.378 . S
C925 C924 1.367 . S
C925 C933 1.433 . S
C926 H922 0.929 . S
C926 C928 1.378 . S
C926 C930 1.350 . S
C927 C930 1.463 . S
C927 C932 1.350 . S
C927 N935 1.427 . S
C928 H919 0.930 . S
C928 C926 1.378 . S
C928 C929 1.367 . S
C929 C928 1.367 . S
C929 C931 1.433 . S
C930 C926 1.350 . S
C930 C927 1.463 . S
C930 N934 1.427 . S
C931 H921 0.929 . S
C931 C929 1.433 . S
C931 N934 1.384 . S
C932 H923 0.929 . S
C932 C924 1.378 . S
C932 C927 1.350 . S
C933 H920 0.929 . S
C933 C925 1.433 . S
C933 N935 1.384 . S
N934 C930 1.427 . S
N934 C931 1.384 . S
N935 C927 1.427 . S
N935 C933 1.384 . S
H936 C942 0.930 . S
H937 C946 0.930 . S
H938 C951 0.929 . S
H939 C949 0.929 . S
H940 C944 0.929 . S
H941 C950 0.929 . S
C942 H936 0.930 . S
C942 C943 1.367 1_556 S
C942 C950 1.378 . S
C943 C942 1.367 1_554 S
C943 C951 1.433 . S
C944 H940 0.929 . S
C944 C946 1.378 . S
C944 C948 1.350 . S
C945 C948 1.463 . S
C945 C950 1.350 1_554 S
C945 N953 1.427 . S
C946 H937 0.930 . S
C946 C944 1.378 . S
C946 C947 1.367 . S
C947 C946 1.367 . S
C947 C949 1.433 1_554 S
C948 C944 1.350 . S
C948 C945 1.463 . S
C948 N952 1.427 1_554 S
C949 H939 0.929 . S
C949 C947 1.433 1_556 S
C949 N952 1.384 . S
C950 H941 0.929 . S
C950 C942 1.378 . S
C950 C945 1.350 1_556 S
C951 H938 0.929 . S
C951 C943 1.433 . S
C951 N953 1.384 . S
N952 C948 1.427 1_556 S
N952 C949 1.384 . S
N953 C945 1.427 . S
N953 C951 1.384 . S
H954 C960 0.930 . S
H955 C964 0.930 . S
H956 C969 0.929 . S
H957 C967 0.929 . S
H958 C962 0.929 . S
H959 C968 0.929 . S
C960 H954 0.930 . S
C960 C961 1.367 . S
C960 C968 1.378 . S
C961 C960 1.367 . S
C961 C969 1.433 . S
C962 H958 0.929 . S
C962 C964 1.378 . S
C962 C966 1.350 . S
C963 C966 1.463 . S
C963 C968 1.350 . S
C963 N971 1.427 . S
C964 H955 0.930 . S
C964 C962 1.378 . S
C964 C965 1.367 . S
C965 C964 1.367 . S
C965 C967 1.433 . S
C966 C962 1.350 . S
C966 C963 1.463 . S
C966 N970 1.427 . S
C967 H957 0.929 . S
C967 C965 1.433 . S
C967 N970 1.384 . S
C968 H959 0.929 . S
C968 C960 1.378 . S
C968 C963 1.350 . S
C969 H956 0.929 . S
C969 C961 1.433 . S
C969 N971 1.384 . S
N970 C966 1.427 . S
N970 C967 1.384 . S
N971 C963 1.427 . S
N971 C969 1.384 . S
H972 C978 0.930 1_556 S
H973 C982 0.930 . S
H974 C987 0.929 1_565 S
H975 C985 0.929 1_556 S
H976 C980 0.929 . S
H977 C986 0.929 1_556 S
C978 H972 0.930 1_554 S
C978 C979 1.367 . S
C978 C986 1.378 . S
C979 C978 1.367 . S
C979 C987 1.433 . S
C980 H976 0.929 . S
C980 C982 1.378 . S
C980 C984 1.350 . S
C981 C984 1.463 . S
C981 C986 1.350 . S
C981 N989 1.427 . S
C982 H973 0.930 . S
C982 C980 1.378 . S
C982 C983 1.367 . S
C983 C982 1.367 . S
C983 C985 1.433 . S
C984 C980 1.350 . S
C984 C981 1.463 . S
C984 N988 1.427 . S
C985 H975 0.929 1_554 S
C985 C983 1.433 . S
C985 N988 1.384 . S
C986 H977 0.929 1_554 S
C986 C978 1.378 . S
C986 C981 1.350 . S
C987 H974 0.929 1_545 S
C987 C979 1.433 . S
C987 N989 1.384 . S
N988 C984 1.427 . S
N988 C985 1.384 . S
N989 C981 1.427 . S
N989 C987 1.384 . S
H990 C996 0.930 . S
H991 C1000 0.930 . S
H992 C1005 0.929 . S
H993 C1003 0.929 . S
H994 C998 0.929 . S
H995 C1004 0.929 . S
C996 H990 0.930 . S
C996 C997 1.367 . S
C996 C1004 1.378 . S
C997 C996 1.367 . S
C997 C1005 1.433 . S
C998 H994 0.929 . S
C998 C1000 1.378 . S
C998 C1002 1.350 . S
C999 C1002 1.463 . S
C999 C1004 1.350 . S
C999 N1007 1.427 . S
C1000 H991 0.930 . S
C1000 C998 1.378 . S
C1000 C1001 1.367 . S
C1001 C1000 1.367 . S
C1001 C1003 1.433 . S
C1002 C998 1.350 . S
C1002 C999 1.463 . S
C1002 N1006 1.427 . S
C1003 H993 0.929 . S
C1003 C1001 1.433 . S
C1003 N1006 1.384 . S
C1004 H995 0.929 . S
C1004 C996 1.378 . S
C1004 C999 1.350 . S
C1005 H992 0.929 . S
C1005 C997 1.433 . S
C1005 N1007 1.384 . S
N1006 C1002 1.427 . S
N1006 C1003 1.384 . S
N1007 C999 1.427 . S
N1007 C1005 1.384 . S
H1008 C1014 0.930 . S
H1009 C1018 0.930 . S
H1010 C1023 0.929 . S
H1011 C1021 0.929 . S
H1012 C1016 0.929 . S
H1013 C1022 0.929 . S
C1014 H1008 0.930 . S
C1014 C1015 1.367 . S
C1014 C1022 1.378 . S
C1015 C1014 1.367 . S
C1015 C1023 1.433 . S
C1016 H1012 0.929 . S
C1016 C1018 1.378 . S
C1016 C1020 1.350 . S
C1017 C1020 1.463 . S
C1017 C1022 1.350 . S
C1017 N1025 1.427 . S
C1018 H1009 0.930 . S
C1018 C1016 1.378 . S
C1018 C1019 1.367 . S
C1019 C1018 1.367 . S
C1019 C1021 1.433 . S
C1020 C1016 1.350 . S
C1020 C1017 1.463 . S
C1020 N1024 1.427 . S
C1021 H1011 0.929 . S
C1021 C1019 1.433 . S
C1021 N1024 1.384 . S
C1022 H1013 0.929 . S
C1022 C1014 1.378 . S
C1022 C1017 1.350 . S
C1023 H1010 0.929 . S
C1023 C1015 1.433 . S
C1023 N1025 1.384 . S
N1024 C1020 1.427 . S
N1024 C1021 1.384 . S
N1025 C1017 1.427 . S
N1025 C1023 1.384 . S
H1026 C1032 0.930 . S
H1027 C1036 0.930 . S
H1028 C1041 0.929 . S
H1029 C1039 0.929 . S
H1030 C1034 0.929 . S
H1031 C1040 0.929 . S
C1032 H1026 0.930 . S
C1032 C1033 1.367 . S
C1032 C1040 1.378 . S
C1033 C1032 1.367 . S
C1033 C1041 1.433 . S
C1034 H1030 0.929 . S
C1034 C1036 1.378 . S
C1034 C1038 1.350 . S
C1035 C1038 1.463 . S
C1035 C1040 1.350 . S
C1035 N1043 1.427 . S
C1036 H1027 0.930 . S
C1036 C1034 1.378 . S
C1036 C1037 1.367 . S
C1037 C1036 1.367 . S
C1037 C1039 1.433 . S
C1038 C1034 1.350 . S
C1038 C1035 1.463 . S
C1038 N1042 1.427 . S
C1039 H1029 0.929 . S
C1039 C1037 1.433 . S
C1039 N1042 1.384 . S
C1040 H1031 0.929 . S
C1040 C1032 1.378 . S
C1040 C1035 1.350 . S
C1041 H1028 0.929 . S
C1041 C1033 1.433 . S
C1041 N1043 1.384 . S
N1042 C1038 1.427 . S
N1042 C1039 1.384 . S
N1043 C1035 1.427 . S
N1043 C1041 1.384 . S
H1044 C1050 0.930 . S
H1045 C1054 0.930 . S
H1046 C1059 0.929 . S
H1047 C1057 0.929 . S
H1048 C1052 0.929 . S
H1049 C1058 0.929 . S
C1050 H1044 0.930 . S
C1050 C1051 1.367 . S
C1050 C1058 1.378 . S
C1051 C1050 1.367 . S
C1051 C1059 1.433 . S
C1052 H1048 0.929 . S
C1052 C1054 1.378 . S
C1052 C1056 1.350 . S
C1053 C1056 1.463 . S
C1053 C1058 1.350 . S
C1053 N1061 1.427 . S
C1054 H1045 0.930 . S
C1054 C1052 1.378 . S
C1054 C1055 1.367 . S
C1055 C1054 1.367 . S
C1055 C1057 1.433 . S
C1056 C1052 1.350 . S
C1056 C1053 1.463 . S
C1056 N1060 1.427 . S
C1057 H1047 0.929 . S
C1057 C1055 1.433 . S
C1057 N1060 1.384 . S
C1058 H1049 0.929 . S
C1058 C1050 1.378 . S
C1058 C1053 1.350 . S
C1059 H1046 0.929 . S
C1059 C1051 1.433 . S
C1059 N1061 1.384 . S
N1060 C1056 1.427 . S
N1060 C1057 1.384 . S
N1061 C1053 1.427 . S
N1061 C1059 1.384 . S
H1062 C1068 0.930 . S
H1063 C1072 0.930 . S
H1064 C1077 0.929 . S
H1065 C1075 0.929 . S
H1066 C1070 0.929 . S
H1067 C1076 0.929 . S
C1068 H1062 0.930 . S
C1068 C1069 1.367 . S
C1068 C1076 1.378 . S
C1069 C1068 1.367 . S
C1069 C1077 1.433 . S
C1070 H1066 0.929 . S
C1070 C1072 1.378 . S
C1070 C1074 1.350 . S
C1071 C1074 1.463 . S
C1071 C1076 1.350 . S
C1071 N1079 1.427 . S
C1072 H1063 0.930 . S
C1072 C1070 1.378 . S
C1072 C1073 1.367 . S
C1073 C1072 1.367 . S
C1073 C1075 1.433 . S
C1074 C1070 1.350 . S
C1074 C1071 1.463 . S
C1074 N1078 1.427 . S
C1075 H1065 0.929 . S
C1075 C1073 1.433 . S
C1075 N1078 1.384 . S
C1076 H1067 0.929 . S
C1076 C1068 1.378 . S
C1076 C1071 1.350 . S
C1077 H1064 0.929 . S
C1077 C1069 1.433 . S
C1077 N1079 1.384 . S
N1078 C1074 1.427 . S
N1078 C1075 1.384 . S
N1079 C1071 1.427 . S
N1079 C1077 1.384 . S
H1080 C1086 0.930 . S
H1081 C1090 0.930 . S
H1082 C1095 0.929 . S
H1083 C1093 0.929 . S
H1084 C1088 0.929 . S
H1085 C1094 0.929 . S
C1086 H1080 0.930 . S
C1086 C1087 1.367 . S
C1086 C1094 1.378 . S
C1087 C1086 1.367 . S
C1087 C1095 1.433 . S
C1088 H1084 0.929 . S
C1088 C1090 1.378 . S
C1088 C1092 1.350 . S
C1089 C1092 1.463 . S
C1089 C1094 1.350 . S
C1089 N1097 1.427 . S
C1090 H1081 0.930 . S
C1090 C1088 1.378 . S
C1090 C1091 1.367 . S
C1091 C1090 1.367 . S
C1091 C1093 1.433 . S
C1092 C1088 1.350 . S
C1092 C1089 1.463 . S
C1092 N1096 1.427 . S
C1093 H1083 0.929 . S
C1093 C1091 1.433 . S
C1093 N1096 1.384 . S
C1094 H1085 0.929 . S
C1094 C1086 1.378 . S
C1094 C1089 1.350 . S
C1095 H1082 0.929 . S
C1095 C1087 1.433 . S
C1095 N1097 1.384 . S
N1096 C1092 1.427 . S
N1096 C1093 1.384 . S
N1097 C1089 1.427 . S
N1097 C1095 1.384 . S
H1098 C1104 0.930 . S
H1099 C1108 0.930 . S
H1100 C1113 0.929 . S
H1101 C1111 0.929 . S
H1102 C1106 0.929 . S
H1103 C1112 0.929 . S
C1104 H1098 0.930 . S
C1104 C1105 1.367 . S
C1104 C1112 1.378 . S
C1105 C1104 1.367 . S
C1105 C1113 1.433 . S
C1106 H1102 0.929 . S
C1106 C1108 1.378 . S
C1106 C1110 1.350 . S
C1107 C1110 1.463 . S
C1107 C1112 1.350 . S
C1107 N1115 1.427 . S
C1108 H1099 0.930 . S
C1108 C1106 1.378 . S
C1108 C1109 1.367 . S
C1109 C1108 1.367 . S
C1109 C1111 1.433 . S
C1110 C1106 1.350 . S
C1110 C1107 1.463 . S
C1110 N1114 1.427 . S
C1111 H1101 0.929 . S
C1111 C1109 1.433 . S
C1111 N1114 1.384 . S
C1112 H1103 0.929 . S
C1112 C1104 1.378 . S
C1112 C1107 1.350 . S
C1113 H1100 0.929 . S
C1113 C1105 1.433 . S
C1113 N1115 1.384 . S
N1114 C1110 1.427 . S
N1114 C1111 1.384 . S
N1115 C1107 1.427 . S
N1115 C1113 1.384 . S
H1116 C1122 0.930 . S
H1117 C1126 0.930 . S
H1118 C1131 0.929 . S
H1119 C1129 0.929 . S
H1120 C1124 0.929 . S
H1121 C1130 0.929 . S
C1122 H1116 0.930 . S
C1122 C1123 1.367 . S
C1122 C1130 1.378 . S
C1123 C1122 1.367 . S
C1123 C1131 1.433 . S
C1124 H1120 0.929 . S
C1124 C1126 1.378 . S
C1124 C1128 1.350 . S
C1125 C1128 1.463 . S
C1125 C1130 1.350 . S
C1125 N1133 1.427 . S
C1126 H1117 0.930 . S
C1126 C1124 1.378 . S
C1126 C1127 1.367 . S
C1127 C1126 1.367 . S
C1127 C1129 1.433 . S
C1128 C1124 1.350 . S
C1128 C1125 1.463 . S
C1128 N1132 1.427 . S
C1129 H1119 0.929 . S
C1129 C1127 1.433 . S
C1129 N1132 1.384 . S
C1130 H1121 0.929 . S
C1130 C1122 1.378 . S
C1130 C1125 1.350 . S
C1131 H1118 0.929 . S
C1131 C1123 1.433 . S
C1131 N1133 1.384 . S
N1132 C1128 1.427 . S
N1132 C1129 1.384 . S
N1133 C1125 1.427 . S
N1133 C1131 1.384 . S
H1134 C1140 0.930 1_565 S
H1135 C1144 0.930 . S
H1136 C1149 0.929 . S
H1137 C1147 0.929 . S
H1138 C1142 0.929 . S
H1139 C1148 0.929 . S
C1140 H1134 0.930 1_545 S
C1140 C1141 1.367 . S
C1140 C1148 1.378 1_545 S
C1141 C1140 1.367 . S
C1141 C1149 1.433 . S
C1142 H1138 0.929 . S
C1142 C1144 1.378 . S
C1142 C1146 1.339 1_545 S
C1143 C1146 1.465 1_545 S
C1143 C1148 1.350 1_545 S
C1143 N1151 1.427 . S
C1144 H1135 0.930 . S
C1144 C1142 1.378 . S
C1144 C1145 1.367 1_545 S
C1145 C1144 1.367 1_565 S
C1145 C1147 1.433 . S
C1146 C1142 1.339 1_565 S
C1146 C1143 1.465 1_565 S
C1146 N1150 1.437 . S
C1147 H1137 0.929 . S
C1147 C1145 1.433 . S
C1147 N1150 1.384 . S
C1148 H1139 0.929 . S
C1148 C1140 1.378 1_565 S
C1148 C1143 1.350 1_565 S
C1149 H1136 0.929 . S
C1149 C1141 1.433 . S
C1149 N1151 1.384 . S
N1150 C1146 1.437 . S
N1150 C1147 1.384 . S
N1151 C1143 1.427 . S
N1151 C1149 1.384 . S
H1152 C1158 0.930 . S
H1153 C1162 0.930 . S
H1154 C1167 0.929 . S
H1155 C1165 0.929 . S
H1156 C1160 0.929 . S
H1157 C1166 0.929 . S
C1158 H1152 0.930 . S
C1158 C1159 1.367 . S
C1158 C1166 1.378 . S
C1159 C1158 1.367 . S
C1159 C1167 1.433 1_554 S
C1160 H1156 0.929 . S
C1160 C1162 1.378 . S
C1160 C1164 1.350 . S
C1161 C1164 1.463 . S
C1161 C1166 1.350 1_556 S
C1161 N1169 1.427 . S
C1162 H1153 0.930 . S
C1162 C1160 1.378 . S
C1162 C1163 1.367 . S
C1163 C1162 1.367 . S
C1163 C1165 1.433 . S
C1164 C1160 1.350 . S
C1164 C1161 1.463 . S
C1164 N1168 1.427 . S
C1165 H1155 0.929 . S
C1165 C1163 1.433 . S
C1165 N1168 1.384 . S
C1166 H1157 0.929 . S
C1166 C1158 1.378 . S
C1166 C1161 1.350 1_554 S
C1167 H1154 0.929 . S
C1167 C1159 1.433 1_556 S
C1167 N1169 1.384 . S
N1168 C1164 1.427 . S
N1168 C1165 1.384 . S
N1169 C1161 1.427 . S
N1169 C1167 1.384 . S
H1170 C1176 0.940 . S
H1171 C1180 0.930 . S
H1172 C1185 0.929 . S
H1173 C1183 0.929 . S
H1174 C1178 0.929 . S
H1175 C1184 0.929 1_554 S
C1176 H1170 0.940 . S
C1176 C1177 1.368 . S
C1176 C1184 1.369 1_454 S
C1177 C1176 1.368 . S
C1177 C1185 1.433 1_554 S
C1178 H1174 0.929 . S
C1178 C1180 1.378 . S
C1178 C1182 1.350 . S
C1179 C1182 1.463 . S
C1179 C1184 1.350 . S
C1179 N1187 1.427 . S
C1180 H1171 0.930 . S
C1180 C1178 1.378 . S
C1180 C1181 1.367 . S
C1181 C1180 1.367 . S
C1181 C1183 1.433 . S
C1182 C1178 1.350 . S
C1182 C1179 1.463 . S
C1182 N1186 1.427 . S
C1183 H1173 0.929 . S
C1183 C1181 1.433 . S
C1183 N1186 1.384 . S
C1184 H1175 0.929 1_556 S
C1184 C1176 1.369 1_656 S
C1184 C1179 1.350 . S
C1185 H1172 0.929 . S
C1185 C1177 1.433 1_556 S
C1185 N1187 1.384 1_455 S
N1186 C1182 1.427 . S
N1186 C1183 1.384 . S
N1187 C1179 1.427 . S
N1187 C1185 1.384 1_655 S
H1188 C1194 0.930 . S
H1189 C1198 0.930 . S
H1190 C1203 0.929 . S
H1191 C1201 0.929 . S
H1192 C1196 0.929 . S
H1193 C1202 0.929 . S
C1194 H1188 0.930 . S
C1194 C1195 1.367 . S
C1194 C1202 1.378 . S
C1195 C1194 1.367 . S
C1195 C1203 1.433 . S
C1196 H1192 0.929 . S
C1196 C1198 1.378 . S
C1196 C1200 1.350 . S
C1197 C1200 1.463 . S
C1197 C1202 1.350 . S
C1197 N1205 1.427 . S
C1198 H1189 0.930 . S
C1198 C1196 1.378 . S
C1198 C1199 1.367 1_556 S
C1199 C1198 1.367 1_554 S
C1199 C1201 1.433 . S
C1200 C1196 1.350 . S
C1200 C1197 1.463 . S
C1200 N1204 1.427 . S
C1201 H1191 0.929 . S
C1201 C1199 1.433 . S
C1201 N1204 1.384 1_554 S
C1202 H1193 0.929 . S
C1202 C1194 1.378 . S
C1202 C1197 1.350 . S
C1203 H1190 0.929 . S
C1203 C1195 1.433 . S
C1203 N1205 1.384 . S
N1204 C1200 1.427 . S
N1204 C1201 1.384 1_556 S
N1205 C1197 1.427 . S
N1205 C1203 1.384 . S
H1206 C1212 0.930 . S
H1207 C1216 0.930 . S
H1208 C1221 0.929 . S
H1209 C1219 0.929 . S
H1210 C1214 0.929 . S
H1211 C1220 0.929 . S
C1212 H1206 0.930 . S
C1212 C1213 1.367 . S
C1212 C1220 1.378 . S
C1213 C1212 1.367 . S
C1213 C1221 1.433 1_556 S
C1214 H1210 0.929 . S
C1214 C1216 1.378 . S
C1214 C1218 1.350 . S
C1215 C1218 1.463 . S
C1215 C1220 1.350 . S
C1215 N1223 1.427 . S
C1216 H1207 0.930 . S
C1216 C1214 1.378 . S
C1216 C1217 1.367 . S
C1217 C1216 1.367 . S
C1217 C1219 1.433 . S
C1218 C1214 1.350 . S
C1218 C1215 1.463 . S
C1218 N1222 1.427 . S
C1219 H1209 0.929 . S
C1219 C1217 1.433 . S
C1219 N1222 1.384 . S
C1220 H1211 0.929 . S
C1220 C1212 1.378 . S
C1220 C1215 1.350 . S
C1221 H1208 0.929 . S
C1221 C1213 1.433 1_554 S
C1221 N1223 1.384 1_554 S
N1222 C1218 1.427 . S
N1222 C1219 1.384 . S
N1223 C1215 1.427 . S
N1223 C1221 1.384 1_556 S
H1224 C1230 0.930 . S
H1225 C1234 0.930 . S
H1226 C1239 0.929 . S
H1227 C1237 0.929 . S
H1228 C1232 0.941 . S
H1229 C1238 0.929 . S
C1230 H1224 0.930 . S
C1230 C1231 1.367 1_556 S
C1230 C1238 1.378 . S
C1231 C1230 1.367 1_554 S
C1231 C1239 1.433 . S
C1232 H1228 0.941 . S
C1232 C1234 1.378 . S
C1232 C1236 1.350 . S
C1233 C1236 1.463 . S
C1233 C1238 1.350 . S
C1233 N1241 1.427 1_556 S
C1234 H1225 0.930 . S
C1234 C1232 1.378 . S
C1234 C1235 1.367 . S
C1235 C1234 1.367 . S
C1235 C1237 1.433 . S
C1236 C1232 1.350 . S
C1236 C1233 1.463 . S
C1236 N1240 1.427 . S
C1237 H1227 0.929 . S
C1237 C1235 1.433 . S
C1237 N1240 1.384 . S
C1238 H1229 0.929 . S
C1238 C1230 1.378 . S
C1238 C1233 1.350 . S
C1239 H1226 0.929 . S
C1239 C1231 1.433 . S
C1239 N1241 1.384 . S
N1240 C1236 1.427 . S
N1240 C1237 1.384 . S
N1241 C1233 1.427 1_554 S
N1241 C1239 1.384 . S
H1242 C1248 0.930 . S
H1243 C1252 0.930 . S
H1244 C1257 0.929 . S
H1245 C1255 0.929 . S
H1246 C1250 0.929 . S
H1247 C1256 0.929 . S
C1248 H1242 0.930 . S
C1248 C1249 1.367 . S
C1248 C1256 1.378 . S
C1249 C1248 1.367 . S
C1249 C1257 1.433 . S
C1250 H1246 0.929 . S
C1250 C1252 1.378 . S
C1250 C1254 1.350 . S
C1251 C1254 1.463 . S
C1251 C1256 1.350 . S
C1251 N1259 1.427 . S
C1252 H1243 0.930 . S
C1252 C1250 1.378 . S
C1252 C1253 1.367 1_556 S
C1253 C1252 1.367 1_554 S
C1253 C1255 1.433 . S
C1254 C1250 1.350 . S
C1254 C1251 1.463 . S
C1254 N1258 1.427 . S
C1255 H1245 0.929 . S
C1255 C1253 1.433 . S
C1255 N1258 1.384 1_554 S
C1256 H1247 0.929 . S
C1256 C1248 1.378 . S
C1256 C1251 1.350 . S
C1257 H1244 0.929 . S
C1257 C1249 1.433 . S
C1257 N1259 1.384 . S
N1258 C1254 1.427 . S
N1258 C1255 1.384 1_556 S
N1259 C1251 1.427 . S
N1259 C1257 1.384 . S
H1260 C1266 0.930 . S
H1261 C1270 0.930 . S
H1262 C1275 0.929 . S
H1263 C1273 0.929 . S
H1264 C1268 0.929 . S
H1265 C1274 0.929 . S
C1266 H1260 0.930 . S
C1266 C1267 1.367 . S
C1266 C1274 1.378 . S
C1267 C1266 1.367 . S
C1267 C1275 1.433 . S
C1268 H1264 0.929 . S
C1268 C1270 1.378 . S
C1268 C1272 1.350 . S
C1269 C1272 1.463 . S
C1269 C1274 1.350 . S
C1269 N1277 1.427 . S
C1270 H1261 0.930 . S
C1270 C1268 1.378 . S
C1270 C1271 1.367 . S
C1271 C1270 1.367 . S
C1271 C1273 1.433 . S
C1272 C1268 1.350 . S
C1272 C1269 1.463 . S
C1272 N1276 1.427 . S
C1273 H1263 0.929 . S
C1273 C1271 1.433 . S
C1273 N1276 1.384 . S
C1274 H1265 0.929 . S
C1274 C1266 1.378 . S
C1274 C1269 1.350 . S
C1275 H1262 0.929 . S
C1275 C1267 1.433 . S
C1275 N1277 1.384 . S
N1276 C1272 1.427 . S
N1276 C1273 1.384 . S
N1277 C1269 1.427 . S
N1277 C1275 1.384 . S
H1278 C1284 0.930 . S
H1279 C1288 0.930 . S
H1280 C1293 0.929 . S
H1281 C1291 0.929 . S
H1282 C1286 0.929 . S
H1283 C1292 0.929 . S
C1284 H1278 0.930 . S
C1284 C1285 1.367 . S
C1284 C1292 1.378 . S
C1285 C1284 1.367 . S
C1285 C1293 1.433 . S
C1286 H1282 0.929 . S
C1286 C1288 1.378 . S
C1286 C1290 1.350 . S
C1287 C1290 1.463 . S
C1287 C1292 1.350 . S
C1287 N1295 1.427 . S
C1288 H1279 0.930 . S
C1288 C1286 1.378 . S
C1288 C1289 1.367 . S
C1289 C1288 1.367 . S
C1289 C1291 1.433 . S
C1290 C1286 1.350 . S
C1290 C1287 1.463 . S
C1290 N1294 1.427 . S
C1291 H1281 0.929 . S
C1291 C1289 1.433 . S
C1291 N1294 1.384 . S
C1292 H1283 0.929 . S
C1292 C1284 1.378 . S
C1292 C1287 1.350 . S
C1293 H1280 0.929 . S
C1293 C1285 1.433 . S
C1293 N1295 1.384 . S
N1294 C1290 1.427 . S
N1294 C1291 1.384 . S
N1295 C1287 1.427 . S
N1295 C1293 1.384 . S
H1296 C1302 0.930 . S
H1297 C1306 0.930 . S
H1298 C1311 0.929 . S
H1299 C1309 0.929 . S
H1300 C1304 0.929 . S
H1301 C1310 0.929 . S
C1302 H1296 0.930 . S
C1302 C1303 1.367 . S
C1302 C1310 1.378 . S
C1303 C1302 1.367 . S
C1303 C1311 1.433 . S
C1304 H1300 0.929 . S
C1304 C1306 1.378 . S
C1304 C1308 1.350 . S
C1305 C1308 1.463 . S
C1305 C1310 1.350 . S
C1305 N1313 1.427 . S
C1306 H1297 0.930 . S
C1306 C1304 1.378 . S
C1306 C1307 1.367 . S
C1307 C1306 1.367 . S
C1307 C1309 1.433 . S
C1308 C1304 1.350 . S
C1308 C1305 1.463 . S
C1308 N1312 1.427 . S
C1309 H1299 0.929 . S
C1309 C1307 1.433 . S
C1309 N1312 1.384 . S
C1310 H1301 0.929 . S
C1310 C1302 1.378 . S
C1310 C1305 1.350 . S
C1311 H1298 0.929 . S
C1311 C1303 1.433 . S
C1311 N1313 1.384 . S
N1312 C1308 1.427 . S
N1312 C1309 1.384 . S
N1313 C1305 1.427 . S
N1313 C1311 1.384 . S
H1314 C1320 0.930 . S
H1315 C1324 0.930 . S
H1316 C1329 0.929 . S
H1317 C1327 0.929 . S
H1318 C1322 0.929 . S
H1319 C1328 0.929 . S
C1320 H1314 0.930 . S
C1320 C1321 1.367 . S
C1320 C1328 1.378 . S
C1321 C1320 1.367 . S
C1321 C1329 1.433 . S
C1322 H1318 0.929 . S
C1322 C1324 1.378 . S
C1322 C1326 1.350 . S
C1323 C1326 1.463 . S
C1323 C1328 1.350 . S
C1323 N1331 1.427 . S
C1324 H1315 0.930 . S
C1324 C1322 1.378 . S
C1324 C1325 1.367 . S
C1325 C1324 1.367 . S
C1325 C1327 1.433 . S
C1326 C1322 1.350 . S
C1326 C1323 1.463 . S
C1326 N1330 1.427 . S
C1327 H1317 0.929 . S
C1327 C1325 1.433 . S
C1327 N1330 1.384 . S
C1328 H1319 0.929 . S
C1328 C1320 1.378 . S
C1328 C1323 1.350 . S
C1329 H1316 0.929 . S
C1329 C1321 1.433 . S
C1329 N1331 1.384 . S
N1330 C1326 1.427 . S
N1330 C1327 1.384 . S
N1331 C1323 1.427 . S
N1331 C1329 1.384 . S
H1332 C1338 0.930 . S
H1333 C1342 0.930 . S
H1334 C1347 0.929 . S
H1335 C1345 0.929 . S
H1336 C1340 0.929 . S
H1337 C1346 0.929 . S
C1338 H1332 0.930 . S
C1338 C1339 1.367 . S
C1338 C1346 1.378 . S
C1339 C1338 1.367 . S
C1339 C1347 1.433 . S
C1340 H1336 0.929 . S
C1340 C1342 1.378 . S
C1340 C1344 1.350 . S
C1341 C1344 1.463 . S
C1341 C1346 1.350 . S
C1341 N1349 1.427 . S
C1342 H1333 0.930 . S
C1342 C1340 1.378 . S
C1342 C1343 1.367 . S
C1343 C1342 1.367 . S
C1343 C1345 1.433 . S
C1344 C1340 1.350 . S
C1344 C1341 1.463 . S
C1344 N1348 1.427 . S
C1345 H1335 0.929 . S
C1345 C1343 1.433 . S
C1345 N1348 1.384 . S
C1346 H1337 0.929 . S
C1346 C1338 1.378 . S
C1346 C1341 1.350 . S
C1347 H1334 0.929 . S
C1347 C1339 1.433 . S
C1347 N1349 1.384 . S
N1348 C1344 1.427 . S
N1348 C1345 1.384 . S
N1349 C1341 1.427 . S
N1349 C1347 1.384 . S
H1350 C1356 0.930 . S
H1351 C1360 0.930 . S
H1352 C1365 0.929 . S
H1353 C1363 0.929 . S
H1354 C1358 0.929 . S
H1355 C1364 0.929 . S
C1356 H1350 0.930 . S
C1356 C1357 1.367 . S
C1356 C1364 1.378 . S
C1357 C1356 1.367 . S
C1357 C1365 1.433 . S
C1358 H1354 0.929 . S
C1358 C1360 1.378 . S
C1358 C1362 1.350 . S
C1359 C1362 1.463 1_455 S
C1359 C1364 1.350 . S
C1359 N1367 1.427 . S
C1360 H1351 0.930 . S
C1360 C1358 1.378 . S
C1360 C1361 1.367 . S
C1361 C1360 1.367 . S
C1361 C1363 1.433 . S
C1362 C1358 1.350 . S
C1362 C1359 1.463 1_655 S
C1362 N1366 1.427 . S
C1363 H1353 0.929 . S
C1363 C1361 1.433 . S
C1363 N1366 1.384 . S
C1364 H1355 0.929 . S
C1364 C1356 1.378 . S
C1364 C1359 1.350 . S
C1365 H1352 0.929 . S
C1365 C1357 1.433 . S
C1365 N1367 1.384 . S
N1366 C1362 1.427 . S
N1366 C1363 1.384 . S
N1367 C1359 1.427 . S
N1367 C1365 1.384 . S
H1368 C1374 0.930 . S
H1369 C1378 0.930 . S
H1370 C1383 0.929 . S
H1371 C1381 0.929 . S
H1372 C1376 0.929 . S
H1373 C1382 0.929 . S
C1374 H1368 0.930 . S
C1374 C1375 1.367 . S
C1374 C1382 1.378 . S
C1375 C1374 1.367 . S
C1375 C1383 1.433 . S
C1376 H1372 0.929 . S
C1376 C1378 1.378 . S
C1376 C1380 1.350 . S
C1377 C1380 1.463 . S
C1377 C1382 1.350 . S
C1377 N1385 1.427 . S
C1378 H1369 0.930 . S
C1378 C1376 1.378 . S
C1378 C1379 1.367 . S
C1379 C1378 1.367 . S
C1379 C1381 1.433 . S
C1380 C1376 1.350 . S
C1380 C1377 1.463 . S
C1380 N1384 1.427 . S
C1381 H1371 0.929 . S
C1381 C1379 1.433 . S
C1381 N1384 1.384 . S
C1382 H1373 0.929 . S
C1382 C1374 1.378 . S
C1382 C1377 1.350 . S
C1383 H1370 0.929 . S
C1383 C1375 1.433 . S
C1383 N1385 1.384 . S
N1384 C1380 1.427 . S
N1384 C1381 1.384 . S
N1385 C1377 1.427 . S
N1385 C1383 1.384 . S
H1386 C1392 0.930 . S
H1387 C1396 0.930 1_565 S
H1388 C1401 0.929 . S
H1389 C1399 0.929 . S
H1390 C1394 0.929 . S
H1391 C1400 0.929 . S
C1392 H1386 0.930 . S
C1392 C1393 1.367 . S
C1392 C1400 1.378 . S
C1393 C1392 1.367 . S
C1393 C1401 1.433 . S
C1394 H1390 0.929 . S
C1394 C1396 1.378 . S
C1394 C1398 1.350 . S
C1395 C1398 1.463 . S
C1395 C1400 1.350 . S
C1395 N1403 1.427 . S
C1396 H1387 0.930 1_545 S
C1396 C1394 1.378 . S
C1396 C1397 1.367 . S
C1397 C1396 1.367 . S
C1397 C1399 1.433 . S
C1398 C1394 1.350 . S
C1398 C1395 1.463 . S
C1398 N1402 1.427 . S
C1399 H1389 0.929 . S
C1399 C1397 1.433 . S
C1399 N1402 1.384 . S
C1400 H1391 0.929 . S
C1400 C1392 1.378 . S
C1400 C1395 1.350 . S
C1401 H1388 0.929 . S
C1401 C1393 1.433 . S
C1401 N1403 1.384 . S
N1402 C1398 1.427 . S
N1402 C1399 1.384 . S
N1403 C1395 1.427 . S
N1403 C1401 1.384 . S
H1404 C1410 0.930 . S
H1405 C1414 0.930 . S
H1406 C1419 0.929 . S
H1407 C1417 0.929 . S
H1408 C1412 0.929 . S
H1409 C1418 0.929 . S
C1410 H1404 0.930 . S
C1410 C1411 1.367 . S
C1410 C1418 1.378 . S
C1411 C1410 1.367 . S
C1411 C1419 1.433 . S
C1412 H1408 0.929 . S
C1412 C1414 1.378 1_655 S
C1412 C1416 1.350 . S
C1413 C1416 1.463 . S
C1413 C1418 1.350 . S
C1413 N1421 1.427 . S
C1414 H1405 0.930 . S
C1414 C1412 1.378 1_455 S
C1414 C1415 1.367 . S
C1415 C1414 1.367 . S
C1415 C1417 1.433 . S
C1416 C1412 1.350 . S
C1416 C1413 1.463 . S
C1416 N1420 1.427 1_655 S
C1417 H1407 0.929 . S
C1417 C1415 1.433 . S
C1417 N1420 1.384 . S
C1418 H1409 0.929 . S
C1418 C1410 1.378 . S
C1418 C1413 1.350 . S
C1419 H1406 0.929 . S
C1419 C1411 1.433 . S
C1419 N1421 1.384 . S
N1420 C1416 1.427 1_455 S
N1420 C1417 1.384 . S
N1421 C1413 1.427 . S
N1421 C1419 1.384 . S
C619 C5 1.226 . S
C623 C9 1.243 . S
C637 C39 1.290 . S
C641 C43 1.310 . S
C655 C77 1.248 . S
C659 C73 1.242 . S
C673 C111 1.252 . S
C677 C107 1.230 . S
C691 C141 1.287 . S
C695 C145 1.304 . S
C709 C175 1.291 . S
C713 C179 1.310 . S
C727 C213 1.179 . S
C731 C209 1.179 . S
C745 C247 1.311 . S
C749 C243 1.279 . S
C763 C281 1.251 . S
C767 C277 1.233 . S
C781 C311 1.179 . S
C785 C315 1.188 . S
C799 C349 1.319 . S
C803 C345 1.303 . S
C817 C383 1.247 . S
C821 C379 1.236 . S
C835 C413 1.176 . S
C839 C417 1.173 . S
C853 C447 1.222 . S
C857 C451 1.232 . S
C871 C481 1.234 1_554 S
C875 C485 1.242 . S
C889 C515 1.176 1_554 S
C893 C519 1.177 . S
C907 C553 1.253 . S
C911 C549 1.242 1_554 S
C925 C583 1.180 . S
C929 C587 1.175 . S
C943 C122 1.538 . S
C947 C20 1.533 . S
C961 C156 1.489 . S
C965 C54 1.487 . S
C979 C190 1.485 . S
C983 C88 1.491 . S
C997 C224 1.321 . S
C1001 C326 1.313 . S
C1015 C360 1.436 . S
C1019 C258 1.444 . S
C1033 C394 1.399 . S
C1037 C292 1.391 . S
C1051 C530 1.496 . S
C1055 C428 1.494 . S
C1069 C462 1.472 . S
C1073 C564 1.479 . S
C1087 C496 1.477 . S
C1091 C598 1.470 . S
C1105 C305 1.480 . S
C1109 C2 1.448 . S
C1123 C237 1.424 . S
C1127 C36 1.401 . S
C1141 C101 1.427 . S
C1145 C271 1.418 . S
C1159 C70 1.395 . S
C1163 C410 1.361 . S
C1177 C33 1.653 . S
C1181 C444 1.575 . S
C1195 C509 1.477 . S
C1199 C67 1.498 . S
C1213 C104 1.444 1_556 S
C1217 C580 1.397 . S
C1231 C138 1.428 . S
C1235 C543 1.459 . S
C1249 C577 1.471 . S
C1253 C203 1.490 . S
C1267 C339 1.447 . S
C1271 C172 1.416 . S
C1285 C135 1.373 . S
C1289 C373 1.382 . S
C1303 C169 1.429 . S
C1307 C407 1.407 . S
C1321 C206 1.264 . S
C1325 C478 1.267 . S
C1339 C240 1.440 . S
C1343 C441 1.455 . S
C1357 C274 1.377 . S
C1361 C475 1.390 . S
C1375 C512 1.358 . S
C1379 C376 1.394 . S
C1393 C546 1.239 . S
C1397 C308 1.235 1_545 S
C1411 C611 1.472 . S
C1415 C342 1.463 . S
