# Generated by pormake.
# Topology smu, (6)-cn, num edge types: 1
# Building blocks:
#     Node 0, Type 0, BuildingBlock: VOLQOD_clean_sbu_1, # of connection points: 6
#     Node 1, Type 0, BuildingBlock: VOLQOD_clean_sbu_1, # of connection points: 6
#     Node 2, Type 0, BuildingBlock: VOLQOD_clean_sbu_1, # of connection points: 6
#     Node 3, Type 0, BuildingBlock: VOLQOD_clean_sbu_1, # of connection points: 6
#     Node 4, Type 0, BuildingBlock: VOLQOD_clean_sbu_1, # of connection points: 6
#     Node 5, Type 0, BuildingBlock: VOLQOD_clean_sbu_1, # of connection points: 6
#     Edge 6, Type (0, 0), BuildingBlock: TEMPAE_clean_linker_10, # of connection points: 2
#     Edge 7, Type (0, 0), BuildingBlock: TEMPAE_clean_linker_10, # of connection points: 2
#     Edge 8, Type (0, 0), BuildingBlock: TEMPAE_clean_linker_10, # of connection points: 2
#     Edge 9, Type (0, 0), BuildingBlock: TEMPAE_clean_linker_10, # of connection points: 2
#     Edge 10, Type (0, 0), BuildingBlock: TEMPAE_clean_linker_10, # of connection points: 2
#     Edge 11, Type (0, 0), BuildingBlock: TEMPAE_clean_linker_10, # of connection points: 2
#     Edge 12, Type (0, 0), BuildingBlock: TEMPAE_clean_linker_10, # of connection points: 2
#     Edge 13, Type (0, 0), BuildingBlock: TEMPAE_clean_linker_10, # of connection points: 2
#     Edge 14, Type (0, 0), BuildingBlock: TEMPAE_clean_linker_10, # of connection points: 2
#     Edge 15, Type (0, 0), BuildingBlock: TEMPAE_clean_linker_10, # of connection points: 2
#     Edge 16, Type (0, 0), BuildingBlock: TEMPAE_clean_linker_10, # of connection points: 2
#     Edge 17, Type (0, 0), BuildingBlock: TEMPAE_clean_linker_10, # of connection points: 2
#     Edge 18, Type (0, 0), BuildingBlock: TEMPAE_clean_linker_10, # of connection points: 2
#     Edge 19, Type (0, 0), BuildingBlock: TEMPAE_clean_linker_10, # of connection points: 2
#     Edge 20, Type (0, 0), BuildingBlock: TEMPAE_clean_linker_10, # of connection points: 2
#     Edge 21, Type (0, 0), BuildingBlock: TEMPAE_clean_linker_10, # of connection points: 2
#     Edge 22, Type (0, 0), BuildingBlock: TEMPAE_clean_linker_10, # of connection points: 2
#     Edge 23, Type (0, 0), BuildingBlock: TEMPAE_clean_linker_10, # of connection points: 2
# Relax obj value: 0.300
# Max RMSD: 0.244
# Mean RMSD: 0.244
data_MOF--net-smu--node1-VOLQOD_clean_sbu_1--edge1-TEMPAE_clean_linker_10
_symmetry_space_group_name_H-M    P1
_symmetry_Int_Tables_number       1
_symmetry_cell_setting            triclinic
loop_
_symmetry_equiv_pos_as_xyz
'x, y, z'
_cell_length_a     31.19438
_cell_length_b     31.179766
_cell_length_c     33.0786
_cell_angle_alpha  89.948434
_cell_angle_beta   90.048883
_cell_angle_gamma 120.03867
loop_
_atom_site_label
_atom_site_type_symbol
_atom_site_fract_x
_atom_site_fract_y
_atom_site_fract_z
_atom_type_partial_charge
O0 O 0.38976 0.17549 0.22327 0.0
Zn1 Zn 0.32966 0.10973 0.21004 0.0
O2 O 0.31219 0.06296 0.25386 0.0
Zn3 Zn 0.32407 0.01019 0.23766 0.0
Zn4 Zn 0.35273 0.09965 0.29811 0.0
Zn5 Zn 0.24532 0.03776 0.27127 0.0
O6 O 0.2625 0.94333 0.24732 0.0
O7 O 0.20676 0.96832 0.25233 0.0
O8 O 0.33565 0.08121 0.15704 0.0
O9 O 0.33316 0.0121 0.17728 0.0
O10 O 0.38807 0.02084 0.26305 0.0
O11 O 0.41001 0.08891 0.29928 0.0
O12 O 0.31774 0.07821 0.35117 0.0
O13 O 0.27739 0.12794 0.20494 0.0
O14 O 0.23929 0.03426 0.3323 0.0
O15 O 0.21912 0.08069 0.2493 0.0
C16 C 0.39553 0.19666 0.2574 0.0
C17 C 0.21784 0.93443 0.24789 0.0
C18 C 0.41916 0.05626 0.28538 0.0
C19 C 0.33628 0.04151 0.14921 0.0
C20 C 0.27206 0.05214 0.35996 0.0
C21 C 0.23674 0.1152 0.22291 0.0
O22 O 0.37726 0.17169 0.28959 0.0
O23 O 0.76777 0.58369 0.21949 0.0
Zn24 Zn 0.7663 0.6454 0.20401 0.0
O25 O 0.73596 0.66469 0.24559 0.0
Zn26 Zn 0.6731 0.65499 0.22709 0.0
Zn27 Zn 0.7287 0.62432 0.29075 0.0
Zn28 Zn 0.77824 0.73137 0.26254 0.0
O29 O 0.6704 0.71845 0.23436 0.0
O30 O 0.75196 0.77153 0.2381 0.0
O31 O 0.73501 0.64046 0.14942 0.0
O32 O 0.66853 0.6448 0.16689 0.0
O33 O 0.61722 0.59207 0.25186 0.0
O34 O 0.66006 0.56763 0.28987 0.0
O35 O 0.73978 0.66027 0.3431 0.0
O36 O 0.83822 0.69514 0.20192 0.0
O37 O 0.77609 0.73859 0.32334 0.0
O38 O 0.8483 0.7542 0.24508 0.0
C39 C 0.7833 0.57989 0.25422 0.0
C40 C 0.70772 0.76227 0.23254 0.0
C41 C 0.61933 0.56 0.27459 0.0
C42 C 0.69544 0.64063 0.14002 0.0
C43 C 0.75916 0.70611 0.3513 0.0
C44 C 0.86591 0.73527 0.2207 0.0
O45 O 0.77655 0.59975 0.28533 0.0
O46 O 0.80042 0.21459 0.22412 0.0
Zn47 Zn 0.86379 0.21721 0.2075 0.0
O48 O 0.9143 0.24827 0.24881 0.0
Zn49 Zn 0.96822 0.31036 0.22874 0.0
Zn50 Zn 0.88387 0.25877 0.2946 0.0
Zn51 Zn 0.93755 0.20499 0.26647 0.0
O52 O 0.03371 0.3116 0.23427 0.0
O53 O 0.00442 0.23052 0.2435 0.0
O54 O 0.88849 0.24892 0.15262 0.0
O55 O 0.96062 0.31463 0.16881 0.0
O56 O 0.96518 0.36832 0.25346 0.0
O57 O 0.8997 0.32876 0.29382 0.0
O58 O 0.90769 0.24607 0.34695 0.0
O59 O 0.8429 0.14543 0.20394 0.0
O60 O 0.94529 0.20543 0.32728 0.0
O61 O 0.89124 0.13538 0.24774 0.0
C62 C 0.78278 0.20452 0.25984 0.0
C63 C 0.03958 0.27394 0.23546 0.0
C64 C 0.93323 0.36847 0.2775 0.0
C65 C 0.92829 0.28811 0.14255 0.0
C66 C 0.93152 0.22393 0.35522 0.0
C67 C 0.85556 0.11775 0.2225 0.0
O68 O 0.81066 0.21443 0.29064 0.0
O69 O 0.17366 0.39478 0.77685 0.0
Zn70 Zn 0.10805 0.33528 0.79177 0.0
O71 O 0.06018 0.31695 0.74869 0.0
Zn72 Zn 0.00753 0.32877 0.76531 0.0
Zn73 Zn 0.09521 0.35649 0.70353 0.0
Zn74 Zn 0.03461 0.24969 0.73223 0.0
O75 O 0.94065 0.26696 0.75633 0.0
O76 O 0.96616 0.21148 0.75328 0.0
O77 O 0.08076 0.34268 0.84502 0.0
O78 O 0.01071 0.33876 0.82563 0.0
O79 O 0.01724 0.3922 0.73947 0.0
O80 O 0.08421 0.41363 0.70196 0.0
O81 O 0.07221 0.32015 0.65122 0.0
O82 O 0.12595 0.28272 0.79746 0.0
O83 O 0.02863 0.24207 0.67124 0.0
O84 O 0.0783 0.2241 0.75354 0.0
C85 C 0.19353 0.40011 0.74216 0.0
C86 C 0.93215 0.22243 0.75741 0.0
C87 C 0.05184 0.42288 0.71631 0.0
C88 C 0.04097 0.34292 0.85331 0.0
C89 C 0.04574 0.2743 0.64312 0.0
C90 C 0.11301 0.24187 0.77972 0.0
O91 O 0.1674 0.38146 0.71057 0.0
O92 O 0.21058 0.80351 0.77694 0.0
Zn93 Zn 0.21235 0.86627 0.79425 0.0
O94 O 0.24414 0.91772 0.75381 0.0
Zn95 Zn 0.30614 0.97106 0.77448 0.0
Zn96 Zn 0.25455 0.88798 0.70756 0.0
Zn97 Zn 0.2015 0.94191 0.73681 0.0
O98 O 0.30754 0.03689 0.7703 0.0
O99 O 0.22637 0.00754 0.76198 0.0
O100 O 0.24319 0.88987 0.84949 0.0
O101 O 0.30978 0.96179 0.83421 0.0
O102 O 0.36412 0.96835 0.74931 0.0
O103 O 0.32444 0.9037 0.70811 0.0
O104 O 0.24235 0.91314 0.65578 0.0
O105 O 0.14038 0.84489 0.79691 0.0
O106 O 0.20346 0.95224 0.67622 0.0
O107 O 0.13154 0.89488 0.75404 0.0
C108 C 0.20043 0.78635 0.74108 0.0
C109 C 0.26974 0.04256 0.77032 0.0
C110 C 0.36417 0.93685 0.72467 0.0
C111 C 0.28263 0.92914 0.86006 0.0
C112 C 0.22147 0.9383 0.648 0.0
C113 C 0.11324 0.85826 0.77838 0.0
O114 O 0.21005 0.81465 0.71059 0.0
O115 O 0.58048 0.77053 0.77346 0.0
Zn116 Zn 0.64251 0.76917 0.78769 0.0
O117 O 0.6613 0.73939 0.74531 0.0
Zn118 Zn 0.65165 0.67633 0.76335 0.0
Zn119 Zn 0.6202 0.73266 0.70074 0.0
Zn120 Zn 0.72775 0.78192 0.72778 0.0
O121 O 0.7148 0.67346 0.75538 0.0
O122 O 0.76824 0.75488 0.75037 0.0
O123 O 0.63845 0.73766 0.84194 0.0
O124 O 0.64217 0.6711 0.82365 0.0
O125 O 0.58847 0.62078 0.73881 0.0
O126 O 0.56354 0.66391 0.70168 0.0
O127 O 0.65533 0.74445 0.6478 0.0
O128 O 0.69221 0.84099 0.79004 0.0
O129 O 0.73387 0.78091 0.66687 0.0
O130 O 0.75098 0.8518 0.74632 0.0
C131 C 0.57603 0.78651 0.73915 0.0
C132 C 0.75879 0.71055 0.75597 0.0
C133 C 0.55608 0.62307 0.71663 0.0
C134 C 0.63858 0.69794 0.85089 0.0
C135 C 0.70109 0.76425 0.63917 0.0
C136 C 0.73219 0.86902 0.77124 0.0
O137 O 0.59555 0.78041 0.7075 0.0
C138 C 0.25837 0.91714 0.93308 0.0
C139 C 0.29516 0.93984 0.90345 0.0
C140 C 0.26808 0.93247 0.97359 0.0
C141 C 0.31591 0.97083 0.98479 0.0
C142 C 0.35394 0.99183 0.95545 0.0
C143 C 0.34301 0.97636 0.91507 0.0
C144 C 0.22645 0.90939 0.00399 0.0
C145 C 0.40566 0.03206 0.96635 0.0
C146 C 0.32341 0.04889 0.07543 0.0
C147 C 0.33611 0.02676 0.10659 0.0
C148 C 0.31743 0.03144 0.03557 0.0
C149 C 0.32507 0.99138 0.0265 0.0
C150 C 0.33986 0.97018 0.05747 0.0
C151 C 0.34485 0.98788 0.09721 0.0
C152 C 0.3013 0.05482 0.0034 0.0
C153 C 0.34927 0.92806 0.04881 0.0
H154 H 0.22129 0.88905 0.92431 0.0
H155 H 0.37177 -0.00624 0.89238 0.0
H156 H 0.23785 0.89592 0.03067 0.0
H157 H 0.21761 0.93774 0.01488 0.0
H158 H 0.1923 0.87794 0.99103 0.0
H159 H 0.43216 0.04071 0.94105 0.0
H160 H 0.40522 0.06635 0.9745 0.0
H161 H 0.41931 0.02096 0.99311 0.0
H162 H 0.31633 0.07875 0.08241 0.0
H163 H 0.35494 0.97074 0.12107 0.0
H164 H 0.26495 0.0267 0.99085 0.0
H165 H 0.3282 0.06838 0.97808 0.0
H166 H 0.29789 0.08632 0.01523 0.0
H167 H 0.31429 0.89485 0.03929 0.0
H168 H 0.36406 0.91815 0.07558 0.0
H169 H 0.37594 0.93802 0.02351 0.0
C170 C 0.76426 0.77734 0.5863 0.0
C171 C 0.71577 0.76525 0.59639 0.0
C172 C 0.77697 0.77345 0.54626 0.0
C173 C 0.74036 0.75726 0.51567 0.0
C174 C 0.69203 0.74725 0.52537 0.0
C175 C 0.68033 0.75129 0.56556 0.0
C176 C 0.82891 0.7845 0.53705 0.0
C177 C 0.65198 0.73014 0.49358 0.0
C178 C 0.77137 0.76969 0.40358 0.0
C179 C 0.7595 0.72115 0.39388 0.0
C180 C 0.76717 0.78269 0.44347 0.0
C181 C 0.75088 0.74631 0.47428 0.0
C182 C 0.74089 0.69788 0.46494 0.0
C183 C 0.74526 0.6859 0.42492 0.0
C184 C 0.77824 0.83473 0.45233 0.0
C185 C 0.72365 0.65805 0.49696 0.0
H186 H 0.79195 0.78826 0.60988 0.0
H187 H 0.64289 0.74233 0.57293 0.0
H188 H 0.82826 0.74964 0.529 0.0
H189 H 0.84407 0.80972 0.51067 0.0
H190 H 0.85429 0.80162 0.56316 0.0
H191 H 0.61751 0.72769 0.50541 0.0
H192 H 0.66509 0.75582 0.46739 0.0
H193 H 0.643 0.69305 0.48229 0.0
H194 H 0.78248 0.79721 0.37983 0.0
H195 H 0.73644 0.64841 0.41786 0.0
H196 H 0.80374 0.85022 0.47851 0.0
H197 H 0.74347 0.83414 0.46057 0.0
H198 H 0.79504 0.85982 0.426 0.0
H199 H 0.74956 0.67117 0.52299 0.0
H200 H 0.7207 0.62326 0.4853 0.0
H201 H 0.6868 0.64955 0.50844 0.0
C202 C 0.9172 0.26473 0.06932 0.0
C203 C 0.93985 0.30109 0.09929 0.0
C204 C 0.933 0.27483 0.02893 0.0
C205 C 0.97179 0.32266 0.01817 0.0
C206 C -0.00712 0.36025 0.04788 0.0
C207 C 0.97696 0.34891 0.08814 0.0
C208 C 0.90982 0.23362 0.99815 0.0
C209 C 0.03356 0.41197 0.03745 0.0
C210 C 0.04919 0.33024 0.92699 0.0
C211 C 0.02702 0.34326 0.8961 0.0
C212 C 0.03208 0.32426 0.96698 0.0
C213 C -0.00764 0.33228 0.97644 0.0
C214 C 0.9713 0.3476 0.94575 0.0
C215 C -0.0114 0.35252 0.90589 0.0
C216 C 0.0553 0.30753 0.99881 0.0
C217 C 0.92961 0.35751 0.95483 0.0
H218 H 0.88869 0.22766 0.07772 0.0
H219 H -0.00565 0.37735 0.11108 0.0
H220 H 0.89634 0.24548 0.97176 0.0
H221 H 0.93808 0.22488 0.98689 0.0
H222 H 0.87836 0.1993 0.01089 0.0
H223 H 0.04246 0.43814 0.06306 0.0
H224 H 0.06759 0.4112 0.02908 0.0
H225 H 0.02276 0.42629 0.01095 0.0
H226 H 0.07868 0.32274 0.9197 0.0
H227 H 0.97146 0.36289 0.88223 0.0
H228 H 0.02707 0.27101 0.01106 0.0
H229 H 0.0689 0.33405 0.02441 0.0
H230 H 0.08671 0.30415 0.98676 0.0
H231 H 0.89614 0.32256 0.96399 0.0
H232 H 0.92005 0.37305 0.92835 0.0
H233 H 0.93979 0.38376 0.98047 0.0
C234 C 0.21007 0.00155 0.41339 0.0
C235 C 0.25762 0.03974 0.40291 0.0
C236 C 0.1983 0.98544 0.45364 0.0
C237 C 0.23489 0.00822 0.48402 0.0
C238 C 0.28197 0.04862 0.47395 0.0
C239 C 0.29278 0.06381 0.43355 0.0
C240 C 0.14764 0.94232 0.46325 0.0
C241 C 0.32192 0.07416 0.5055 0.0
C242 C 0.20519 0.98752 0.59626 0.0
C243 C 0.22027 0.95312 0.60559 0.0
C244 C 0.20798 0.00462 0.55647 0.0
C245 C 0.22618 0.98681 0.5254 0.0
C246 C 0.23963 0.95072 0.53439 0.0
C247 C 0.23654 0.93438 0.5743 0.0
C248 C 0.19321 0.04304 0.54795 0.0
C249 C 0.25903 0.93061 0.50209 0.0
H250 H 0.18262 0.9828 0.38994 0.0
H251 H 0.32944 0.09373 0.42584 0.0
H252 H 0.15085 0.90936 0.47083 0.0
H253 H 0.1317 0.95074 0.48999 0.0
H254 H 0.1216 0.93272 0.43744 0.0
H255 H 0.35481 0.10782 0.49348 0.0
H256 H 0.30741 0.08489 0.53186 0.0
H257 H 0.33398 0.04825 0.51657 0.0
H258 H 0.19247 0.00215 0.62019 0.0
H259 H 0.24788 0.90748 0.58107 0.0
H260 H 0.16725 0.03145 0.52199 0.0
H261 H 0.22647 0.07858 0.53955 0.0
H262 H 0.17544 0.04959 0.5745 0.0
H263 H 0.2328 0.91611 0.47631 0.0
H264 H 0.26498 0.90049 0.51358 0.0
H265 H 0.29477 0.96086 0.49031 0.0
C266 C 0.62903 0.63685 0.90426 0.0
C267 C 0.63886 0.68459 0.89384 0.0
C268 C 0.63426 0.62506 0.94424 0.0
C269 C 0.65042 0.66211 0.97439 0.0
C270 C 0.65902 0.70995 0.96431 0.0
C271 C 0.65275 0.7205 0.9242 0.0
C272 C 0.62379 0.57338 0.95399 0.0
C273 C 0.67666 0.75057 0.9956 0.0
C274 C 0.6347 0.63059 0.08622 0.0
C275 C 0.68232 0.64038 0.09694 0.0
C276 C 0.62321 0.63569 0.04613 0.0
C277 C 0.66042 0.65168 0.01615 0.0
C278 C 0.70809 0.66004 0.0265 0.0
C279 C 0.71835 0.65392 0.06674 0.0
C280 C 0.57169 0.62547 0.03611 0.0
C281 C 0.74887 0.67746 0.9954 0.0
H282 H 0.61794 0.60877 0.881 0.0
H283 H 0.66066 0.75752 0.91638 0.0
H284 H 0.65859 0.57456 0.96313 0.0
H285 H 0.59777 0.55799 0.97985 0.0
H286 H 0.60774 0.54783 0.92785 0.0
H287 H 0.68016 0.78529 0.98315 0.0
H288 H 0.65064 0.73833 0.02153 0.0
H289 H 0.71327 0.75877 0.00749 0.0
H290 H 0.60652 0.61973 0.10935 0.0
H291 H 0.75528 0.66177 0.07479 0.0
H292 H 0.5565 0.59973 0.01006 0.0
H293 H 0.5731 0.66045 0.02716 0.0
H294 H 0.54589 0.60922 0.06207 0.0
H295 H 0.73655 0.65167 0.96931 0.0
H296 H 0.78326 0.68036 0.00796 0.0
H297 H 0.75764 0.71436 0.98371 0.0
C298 C 0.97798 0.20496 0.40769 0.0
C299 C 0.94522 0.22194 0.39785 0.0
C300 C -0.00559 0.2072 0.44763 0.0
C301 C 0.97761 0.22681 0.47836 0.0
C302 C 0.94295 0.242 0.46889 0.0
C303 C 0.92723 0.23941 0.42882 0.0
C304 C 0.03125 0.19051 0.45663 0.0
C305 C 0.92395 0.26296 0.50082 0.0
C306 C -0.00733 0.21204 0.59066 0.0
C307 C 0.0322 0.25916 0.60042 0.0
C308 C 0.97579 0.19992 0.5506 0.0
C309 C -0.00083 0.2357 0.5197 0.0
C310 C 0.04077 0.28228 0.52909 0.0
C311 C 0.05668 0.29345 0.56929 0.0
C312 C 0.93139 0.14983 0.54171 0.0
C313 C 0.067 0.32136 0.49699 0.0
H314 H -0.00802 0.19124 0.38402 0.0
H315 H 0.90157 0.2522 0.42167 0.0
H316 H 0.06753 0.2231 0.46457 0.0
H317 H 0.01895 0.16513 0.48303 0.0
H318 H 0.03662 0.17139 0.43046 0.0
H319 H 0.89449 0.26976 0.48909 0.0
H320 H 0.90898 0.23727 0.52693 0.0
H321 H 0.95491 0.29852 0.51219 0.0
H322 H 0.97357 0.18529 0.6145 0.0
H323 H 0.08762 0.32975 0.57646 0.0
H324 H 0.93867 0.13262 0.51522 0.0
H325 H 0.89923 0.15433 0.53404 0.0
H326 H 0.92118 0.1242 0.56789 0.0
H327 H 0.07691 0.30565 0.47095 0.0
H328 H 0.10125 0.35394 0.50861 0.0
H329 H 0.04189 0.33423 0.48557 0.0
C330 C 0.50386 0.10523 0.31404 0.0
C331 C 0.47003 0.06505 0.29041 0.0
C332 C 0.5547 0.12291 0.31148 0.0
C333 C 0.57206 0.09901 0.28544 0.0
C334 C 0.53795 0.05541 0.26467 0.0
C335 C 0.48711 0.03904 0.26716 0.0
C336 C 0.5899 0.16966 0.33405 0.0
C337 C 0.55526 0.02808 0.23768 0.0
C338 C 0.69771 0.18369 0.23918 0.0
C339 C 0.72883 0.17693 0.26561 0.0
C340 C 0.64629 0.1576 0.24483 0.0
C341 C 0.62576 0.12298 0.27693 0.0
C342 C 0.657 0.1146 0.30268 0.0
C343 C 0.70833 0.14229 0.29708 0.0
C344 C 0.61409 0.16824 0.21726 0.0
C345 C 0.63626 0.07697 0.33644 0.0
H346 H 0.49099 0.12512 0.33266 0.0
H347 H 0.46122 0.00768 0.2491 0.0
H348 H 0.61748 0.16439 0.35118 0.0
H349 H 0.6106 0.20012 0.31209 0.0
H350 H 0.57033 0.18141 0.35547 0.0
H351 H 0.52453 0.99064 0.22954 0.0
H352 H 0.57081 0.04946 0.2094 0.0
H353 H 0.58507 0.02426 0.25258 0.0
H354 H 0.71368 0.21034 0.21477 0.0
H355 H 0.73247 0.13633 0.31703 0.0
H356 H 0.59435 0.18308 0.23522 0.0
H357 H 0.5856 0.13355 0.2027 0.0
H358 H 0.63582 0.19547 0.19325 0.0
H359 H 0.61927 0.08929 0.35978 0.0
H360 H 0.66517 0.0714 0.35109 0.0
H361 H 0.60666 0.04083 0.32471 0.0
C362 C 0.53408 0.49401 0.25397 0.0
C363 C 0.57574 0.50982 0.27887 0.0
C364 C 0.49798 0.4436 0.25153 0.0
C365 C 0.50431 0.40858 0.27413 0.0
C366 C 0.5442 0.42481 0.30159 0.0
C367 C 0.57909 0.47527 0.30394 0.0
C368 C 0.45493 0.4276 0.22289 0.0
C369 C 0.55228 0.38861 0.32624 0.0
C370 C 0.4069 0.27415 0.28856 0.0
C371 C 0.42143 0.25103 0.25969 0.0
C372 C 0.43153 0.32584 0.2919 0.0
C373 C 0.47252 0.3548 0.26656 0.0
C374 C 0.4865 0.33165 0.23661 0.0
C375 C 0.46024 0.2799 0.23316 0.0
C376 C 0.41468 0.34933 0.32332 0.0
C377 C 0.5306 0.36135 0.20946 0.0
H378 H 0.53097 0.52048 0.23472 0.0
H379 H 0.61072 0.48719 0.32379 0.0
H380 H 0.46105 0.41074 0.19557 0.0
H381 H 0.41994 0.39911 0.23712 0.0
H382 H 0.4505 0.45929 0.2132 0.0
H383 H 0.58332 0.40753 0.34807 0.0
H384 H 0.51828 0.36316 0.34324 0.0
H385 H 0.56067 0.36562 0.30572 0.0
H386 H 0.37609 0.25175 0.30853 0.0
H387 H 0.47123 0.26192 0.21073 0.0
H388 H 0.41181 0.38043 0.30992 0.0
H389 H 0.44234 0.36484 0.34806 0.0
H390 H 0.37829 0.32229 0.33659 0.0
H391 H 0.52683 0.39066 0.19362 0.0
H392 H 0.5351 0.33791 0.1865 0.0
H393 H 0.56483 0.38004 0.22799 0.0
C394 C 0.95044 0.45159 0.253 0.0
C395 C 0.92895 0.41335 0.28165 0.0
C396 C 0.93519 0.48688 0.24996 0.0
C397 C 0.89746 0.48324 0.27592 0.0
C398 C 0.87952 0.4479 0.30748 0.0
C399 C 0.89587 0.41366 0.31018 0.0
C400 C 0.95642 0.52532 0.21686 0.0
C401 C 0.83949 0.44301 0.336 0.0
C402 C 0.85549 0.57765 0.2832 0.0
C403 C 0.81377 0.55639 0.25797 0.0
C404 C 0.88521 0.556 0.28743 0.0
C405 C 0.87166 0.51118 0.26703 0.0
C406 C 0.83013 0.49022 0.24075 0.0
C407 C 0.80207 0.51364 0.23604 0.0
C408 C 0.9302 0.58037 0.31449 0.0
C409 C 0.81415 0.44202 0.21888 0.0
H410 H 0.97642 0.45192 0.23108 0.0
H411 H 0.87986 0.38481 0.33296 0.0
H412 H 0.92961 0.51382 0.1915 0.0
H413 H 0.96296 0.56173 0.22786 0.0
H414 H -0.00824 0.52983 0.205 0.0
H415 H 0.83316 0.41695 0.36123 0.0
H416 H 0.84913 0.47954 0.34894 0.0
H417 H 0.80426 0.42921 0.31907 0.0
H418 H 0.86511 0.61153 0.29941 0.0
H419 H 0.76997 0.49761 0.21633 0.0
H420 H 0.96242 0.58102 0.29967 0.0
H421 H 0.92269 0.55878 0.34286 0.0
H422 H 0.94031 0.61892 0.32245 0.0
H423 H 0.8452 0.44478 0.20056 0.0
H424 H 0.78198 0.43158 0.19862 0.0
H425 H 0.80389 0.41182 0.24121 0.0
C426 C 0.03493 0.49102 0.73456 0.0
C427 C 0.06015 0.47353 0.71077 0.0
C428 C 0.05135 0.54192 0.73662 0.0
C429 C 0.09417 0.57565 0.71481 0.0
C430 C 0.11701 0.5578 0.68811 0.0
C431 C 0.09931 0.5069 0.68604 0.0
C432 C 0.02511 0.55973 0.76435 0.0
C433 C 0.16288 0.59259 0.66441 0.0
C434 C 0.1376 0.71217 0.70393 0.0
C435 C 0.17297 0.73247 0.73488 0.0
C436 C 0.10978 0.66083 0.69818 0.0
C437 C 0.11879 0.62944 0.72322 0.0
C438 C 0.15432 0.64981 0.75469 0.0
C439 C 0.18051 0.70121 0.76054 0.0
C440 C 0.07118 0.64025 0.66515 0.0
C441 C 0.16566 0.61746 0.78146 0.0
H442 H 0.00433 0.46547 0.75344 0.0
H443 H 0.11851 0.49367 0.66697 0.0
H444 H 0.04738 0.57539 0.79222 0.0
H445 H 0.02105 0.58956 0.74976 0.0
H446 H 0.98786 0.5292 0.77319 0.0
H447 H 0.17337 0.57266 0.64228 0.0
H448 H 0.15732 0.62039 0.64792 0.0
H449 H 0.19431 0.61307 0.68559 0.0
H450 H 0.13109 0.73644 0.6846 0.0
H451 H 0.20775 0.71706 0.78454 0.0
H452 H 0.03522 0.61113 0.67756 0.0
H453 H 0.08237 0.62263 0.64149 0.0
H454 H 0.06571 0.66936 0.65074 0.0
H455 H 0.13147 0.58924 0.79679 0.0
H456 H 0.19389 0.63913 0.80484 0.0
H457 H 0.17948 0.59736 0.76277 0.0
C458 C 0.44704 0.95277 0.74862 0.0
C459 C 0.40901 0.93269 0.71973 0.0
C460 C 0.48232 0.93741 0.75045 0.0
C461 C 0.47889 0.90099 0.72301 0.0
C462 C 0.44373 0.88456 0.69135 0.0
C463 C 0.40949 0.90099 0.6899 0.0
C464 C 0.52054 0.95703 0.78375 0.0
C465 C 0.43903 0.84595 0.6613 0.0
C466 C 0.57348 0.85959 0.71256 0.0
C467 C 0.55225 0.81681 0.7366 0.0
C468 C 0.55173 0.88938 0.70978 0.0
C469 C 0.50681 0.87482 0.73037 0.0
C470 C 0.48579 0.83208 0.75535 0.0
C471 C 0.50933 0.80398 0.75869 0.0
C472 C 0.57616 0.93562 0.68411 0.0
C473 C 0.43745 0.81495 0.77731 0.0
H474 H 0.44721 0.97766 0.77156 0.0
H475 H 0.3808 0.8861 0.66696 0.0
H476 H 0.50898 0.92895 0.80814 0.0
H477 H 0.55703 0.96425 0.77239 0.0
H478 H 0.52489 0.99171 0.79702 0.0
H479 H 0.41312 0.84084 0.63627 0.0
H480 H 0.47562 0.85623 0.64817 0.0
H481 H 0.42514 0.80991 0.67701 0.0
H482 H 0.60747 0.87004 0.69624 0.0
H483 H 0.49332 0.77104 0.77747 0.0
H484 H 0.57686 0.96715 0.70025 0.0
H485 H 0.55459 0.92949 0.65591 0.0
H486 H 0.61468 0.94606 0.67578 0.0
H487 H 0.44006 0.84504 0.79688 0.0
H488 H 0.42688 0.78176 0.79636 0.0
H489 H 0.40742 0.80583 0.75507 0.0
C490 C 0.26966 0.4114 0.70852 0.0
C491 C 0.24776 0.42603 0.73842 0.0
C492 C 0.32115 0.43607 0.7037 0.0
C493 C 0.35112 0.47716 0.72862 0.0
C494 C 0.32924 0.49129 0.75955 0.0
C495 C 0.27769 0.46502 0.76444 0.0
C496 C 0.34329 0.41909 0.67121 0.0
C497 C 0.36007 0.53551 0.78629 0.0
C498 C 0.49054 0.53787 0.73773 0.0
C499 C 0.50574 0.57961 0.71301 0.0
C500 C 0.44019 0.50203 0.74121 0.0
C501 C 0.40461 0.50868 0.71983 0.0
C502 C 0.42011 0.54859 0.69247 0.0
C503 C 0.47053 0.58324 0.68907 0.0
C504 C 0.42491 0.45896 0.76971 0.0
C505 C 0.38329 0.55699 0.66909 0.0
H506 H 0.24646 0.38049 0.68889 0.0
H507 H 0.26067 0.47612 0.78764 0.0
H508 H 0.35815 0.44687 0.64651 0.0
H509 H 0.37467 0.4159 0.68355 0.0
H510 H 0.31565 0.38281 0.65812 0.0
H511 H 0.33759 0.54024 0.81003 0.0
H512 H 0.38985 0.53168 0.80116 0.0
H513 H 0.37816 0.56967 0.76762 0.0
H514 H 0.51752 0.53453 0.75611 0.0
H515 H 0.48195 0.61494 0.66937 0.0
H516 H 0.39592 0.424 0.75579 0.0
H517 H 0.40896 0.46517 0.79755 0.0
H518 H 0.45678 0.45437 0.77848 0.0
H519 H 0.35695 0.52297 0.6525 0.0
H520 H 0.40159 0.58788 0.64705 0.0
H521 H 0.36134 0.56579 0.69044 0.0
C522 C 0.16408 0.12789 0.2281 0.0
C523 C 0.21324 0.14558 0.21656 0.0
C524 C 0.14332 0.1586 0.22628 0.0
C525 C 0.17281 0.20841 0.21326 0.0
C526 C 0.22206 0.22613 0.20058 0.0
C527 C 0.24163 0.19435 0.20211 0.0
C528 C 0.09017 0.13809 0.23936 0.0
C529 C 0.25473 0.27911 0.18708 0.0
C530 C 0.0915 0.26135 0.18724 0.0
C531 C 0.08698 0.27823 0.22526 0.0
C532 C 0.12382 0.24302 0.18139 0.0
C533 C 0.15186 0.24178 0.21453 0.0
C534 C 0.15194 0.26473 0.2515 0.0
C535 C 0.11891 0.28241 0.25656 0.0
C536 C 0.12297 0.21927 0.14143 0.0
C537 C 0.18224 0.26513 0.28724 0.0
H538 H 0.14206 0.09024 0.23913 0.0
H539 H 0.27994 0.20848 0.19357 0.0
H540 H 0.08879 0.15816 0.26657 0.0
H541 H 0.06882 0.14373 0.21516 0.0
H542 H 0.07164 0.09793 0.24658 0.0
H543 H 0.29014 0.28542 0.17381 0.0
H544 H 0.23534 0.28963 0.16447 0.0
H545 H 0.26339 0.30419 0.21339 0.0
H546 H 0.06597 0.25754 0.16334 0.0
H547 H 0.11455 0.29479 0.28612 0.0
H548 H 0.09958 0.17844 0.1443 0.0
H549 H 0.16066 0.22762 0.1326 0.0
H550 H 0.10741 0.23181 0.11691 0.0
H551 H 0.16424 0.22771 0.30115 0.0
H552 H 0.18543 0.29211 0.31064 0.0
H553 H 0.21996 0.27431 0.27763 0.0
C554 C 0.95159 0.80718 0.22474 0.0
C555 C 0.91989 0.75664 0.218 0.0
C556 C 0.00292 0.82692 0.22626 0.0
C557 C 0.02278 0.79497 0.22192 0.0
C558 C -0.00904 0.74397 0.21436 0.0
C559 C 0.93977 0.72544 0.21215 0.0
C560 C 0.0358 0.88182 0.23366 0.0
C561 C 0.01051 0.70857 0.21059 0.0
C562 C 0.15874 0.87234 0.20097 0.0
C563 C 0.17665 0.88464 0.2405 0.0
C564 C 0.10879 0.83787 0.19382 0.0
C565 C 0.07677 0.81561 0.22716 0.0
C566 C 0.09654 0.82283 0.26675 0.0
C567 C 0.14648 0.85797 0.27302 0.0
C568 C 0.08926 0.83067 0.15114 0.0
C569 C 0.06381 0.79857 0.30297 0.0
H570 H 0.93616 0.8312 0.22923 0.0
H571 H 0.91514 0.68605 0.20765 0.0
H572 H 0.05488 0.88791 0.26319 0.0
H573 H 0.06476 0.89838 0.20994 0.0
H574 H 0.01468 0.90182 0.23388 0.0
H575 H 0.98236 0.67226 0.19787 0.0
H576 H 0.04404 0.72441 0.19126 0.0
H577 H 0.02125 0.702 0.24095 0.0
H578 H 0.18228 0.89372 0.17597 0.0
H579 H 0.16054 0.86818 0.30361 0.0
H580 H 0.0715 0.85351 0.14646 0.0
H581 H 0.0608 0.79145 0.14562 0.0
H582 H 0.11936 0.84211 0.12851 0.0
H583 H 0.04347 0.81828 0.31041 0.0
H584 H 0.08572 0.79986 0.32991 0.0
H585 H 0.03601 0.7594 0.29642 0.0
C586 C 0.77645 0.04221 0.20284 0.0
C587 C 0.82525 0.06359 0.21732 0.0
C588 C 0.74561 0.9906 0.20134 0.0
C589 C 0.76431 0.9599 0.21421 0.0
C590 C 0.81396 0.98131 0.2278 0.0
C591 C 0.84371 0.03292 0.22942 0.0
C592 C 0.69276 0.96904 0.18715 0.0
C593 C 0.83556 0.94971 0.24123 0.0
C594 C 0.69409 0.8299 0.25442 0.0
C595 C 0.70165 0.80458 0.22295 0.0
C596 C 0.70914 0.88027 0.2503 0.0
C597 C 0.73263 0.90523 0.21406 0.0
C598 C 0.73452 0.87802 0.18059 0.0
C599 C 0.71909 0.82777 0.18555 0.0
C600 C 0.70562 0.90787 0.28641 0.0
C601 C 0.75883 0.90308 0.14132 0.0
H602 H 0.76177 0.06579 0.19386 0.0
H603 H 0.8814 0.04928 0.24049 0.0
H604 H 0.68407 0.94061 0.16352 0.0
H605 H 0.6672 0.95035 0.2128 0.0
H606 H 0.68527 -0.00218 0.17485 0.0
H607 H 0.8752 0.97225 0.24986 0.0
H608 H 0.8146 0.92674 0.26758 0.0
H609 H 0.83225 0.92408 0.2166 0.0
H610 H 0.68123 0.81184 0.2835 0.0
H611 H 0.72537 0.80793 0.16148 0.0
H612 H 0.69542 0.93576 0.27702 0.0
H613 H 0.74225 0.92788 0.30156 0.0
H614 H 0.67802 0.88232 0.30874 0.0
H615 H 0.74863 0.93121 0.13276 0.0
H616 H 0.7485 0.87596 0.11625 0.0
H617 H 0.79966 0.92245 0.14505 0.0
C618 C 0.19052 0.24506 0.80346 0.0
C619 C 0.14295 0.21789 0.78646 0.0
C620 C 0.22189 0.22506 0.80587 0.0
C621 C 0.20502 0.17664 0.79133 0.0
C622 C 0.15641 0.14836 0.77552 0.0
C623 C 0.12605 0.16948 0.77305 0.0
C624 C 0.27358 0.25636 0.82255 0.0
C625 C 0.13678 0.09611 0.76031 0.0
C626 C 0.28166 0.12397 0.7512 0.0
C627 C 0.27389 0.08967 0.78156 0.0
C628 C 0.26419 0.15726 0.75588 0.0
C629 C 0.23796 0.15515 0.79148 0.0
C630 C 0.23558 0.12464 0.82408 0.0
C631 C 0.25363 0.09202 0.81862 0.0
C632 C 0.26838 0.19012 0.7208 0.0
C633 C 0.20835 0.12159 0.86264 0.0
H634 H 0.20407 0.28276 0.81357 0.0
H635 H 0.08933 0.14832 0.76006 0.0
H636 H 0.28162 0.23538 0.8455 0.0
H637 H 0.30091 0.26609 0.7978 0.0
H638 H 0.27915 0.2912 0.83648 0.0
H639 H 0.09752 0.07855 0.75046 0.0
H640 H 0.15938 0.09632 0.73434 0.0
H641 H 0.13966 0.07286 0.78437 0.0
H642 H 0.29666 0.12134 0.72234 0.0
H643 H 0.24713 0.06473 0.84177 0.0
H644 H 0.27694 0.22728 0.73152 0.0
H645 H 0.23245 0.17344 0.70454 0.0
H646 H 0.29743 0.19451 0.69905 0.0
H647 H 0.21637 0.15885 0.87255 0.0
H648 H 0.21822 0.10408 0.88747 0.0
H649 H 0.16788 0.09893 0.85721 0.0
C650 C 0.02887 0.84736 0.77169 0.0
C651 C 0.05899 0.82769 0.78221 0.0
C652 C 0.97726 0.81752 0.77143 0.0
C653 C 0.95533 0.76657 0.78134 0.0
C654 C 0.98545 0.74666 0.79285 0.0
C655 C 0.03706 0.77761 0.7934 0.0
C656 C 0.94628 0.84041 0.75962 0.0
C657 C 0.96339 0.69245 0.80306 0.0
C658 C 0.82092 0.71686 0.80452 0.0
C659 C 0.80087 0.70417 0.76563 0.0
C660 C 0.87083 0.7321 0.81138 0.0
C661 C 0.90083 0.73469 0.77834 0.0
C662 C 0.87895 0.71584 0.74012 0.0
C663 C 0.82898 0.70115 0.73409 0.0
C664 C 0.89258 0.75149 0.85264 0.0
C665 C 0.90954 0.71702 0.70437 0.0
H666 H 0.04571 0.88606 0.76321 0.0
H667 H 0.06029 0.76207 0.80112 0.0
H668 H 0.9255 0.82295 0.73145 0.0
H669 H 0.91872 0.83365 0.78358 0.0
H670 H 0.96907 0.881 0.75454 0.0
H671 H -0.00866 0.68403 0.81578 0.0
H672 H 0.93269 0.68062 0.82508 0.0
H673 H 0.94758 0.66996 0.77533 0.0
H674 H 0.79897 0.71975 0.82866 0.0
H675 H 0.81332 0.69196 0.70391 0.0
H676 H 0.91171 0.79258 0.85232 0.0
H677 H 0.92036 0.74066 0.86078 0.0
H678 H 0.86353 0.73782 0.8764 0.0
H679 H 0.93066 0.75542 0.69249 0.0
H680 H 0.88598 0.69246 0.6796 0.0
H681 H 0.93666 0.70564 0.71337 0.0
C682 C 0.8538 0.15422 0.73169 0.0
C683 C 0.88246 0.18114 0.76479 0.0
C684 C 0.81866 0.10384 0.73577 0.0
C685 C 0.81326 0.08045 0.77365 0.0
C686 C 0.83747 0.10928 0.80816 0.0
C687 C 0.87208 0.15962 0.80324 0.0
C688 C 0.79247 0.07455 0.69847 0.0
C689 C 0.83223 0.08588 0.84917 0.0
C690 C 0.72319 0.94274 0.78441 0.0
C691 C 0.75378 0.923 0.77502 0.0
C692 C 0.74182 -0.00598 0.78431 0.0
C693 C 0.79231 0.02609 0.7752 0.0
C694 C 0.82362 0.00634 0.76677 0.0
C695 C 0.80379 0.95493 0.76639 0.0
C696 C 0.70713 0.01362 0.79249 0.0
C697 C 0.87801 0.03948 0.75749 0.0
H698 H 0.86256 0.17104 0.7019 0.0
H699 H 0.89496 0.18068 0.82864 0.0
H700 H 0.81182 0.05527 0.68708 0.0
H701 H 0.75373 0.04595 0.70546 0.0
H702 H 0.79226 0.09888 0.674 0.0
H703 H 0.84519 0.11389 0.87375 0.0
H704 H 0.79322 0.05722 0.85513 0.0
H705 H 0.85483 0.06747 0.85 0.0
H706 H 0.68416 0.91802 0.79038 0.0
H707 H 0.82738 0.93968 0.75914 0.0
H708 H 0.70086 0.02862 0.76408 0.0
H709 H 0.7236 0.04444 0.81464 0.0
H710 H 0.67066 0.98437 0.80409 0.0
H711 H 0.8824 0.06108 0.72958 0.0
H712 H 0.8975 0.01821 0.75316 0.0
H713 H 0.89638 0.06635 0.78244 0.0
loop_
_geom_bond_atom_site_label_1
_geom_bond_atom_site_label_2
_geom_bond_distance
_geom_bond_site_symmetry_2
_ccdc_geom_bond_type
O0 Zn1 1.953 . S
O0 C16 1.225 . S
Zn1 O0 1.953 . S
Zn1 O2 1.949 . S
Zn1 O8 1.919 . S
Zn1 O13 1.924 . S
O2 Zn1 1.949 . S
O2 Zn3 1.923 . S
O2 Zn4 1.950 . S
O2 Zn5 1.945 . S
Zn3 O2 1.923 . S
Zn3 O6 1.933 1_545 S
Zn3 O9 1.941 . S
Zn3 O10 1.965 . S
Zn4 O2 1.950 . S
Zn4 O11 1.938 . S
Zn4 O12 1.906 . S
Zn4 O22 1.953 . S
Zn5 O2 1.945 . S
Zn5 O7 1.932 1_545 S
Zn5 O14 1.977 . S
Zn5 O15 1.910 . S
O6 Zn3 1.933 1_565 S
O6 C17 1.226 . S
O7 Zn5 1.932 1_565 S
O7 C17 1.307 . S
O8 Zn1 1.919 . S
O8 C19 1.253 . S
O9 Zn3 1.941 . S
O9 C19 1.283 . S
O10 Zn3 1.965 . S
O10 C18 1.303 . S
O11 Zn4 1.938 . S
O11 C18 1.247 . S
O12 Zn4 1.906 . S
O12 C20 1.304 . S
O13 Zn1 1.924 . S
O13 C21 1.311 . S
O14 Zn5 1.977 . S
O14 C20 1.272 . S
O15 Zn5 1.910 . S
O15 C21 1.231 . S
C16 O0 1.225 . S
C16 O22 1.298 . S
C17 O6 1.226 . S
C17 O7 1.307 . S
C18 O10 1.303 . S
C18 O11 1.247 . S
C19 O8 1.253 . S
C19 O9 1.283 . S
C20 O12 1.304 . S
C20 O14 1.272 . S
C21 O13 1.311 . S
C21 O15 1.231 . S
O22 Zn4 1.953 . S
O22 C16 1.298 . S
O23 Zn24 1.953 . S
O23 C39 1.225 . S
Zn24 O23 1.953 . S
Zn24 O25 1.949 . S
Zn24 O31 1.919 . S
Zn24 O36 1.924 . S
O25 Zn24 1.949 . S
O25 Zn26 1.923 . S
O25 Zn27 1.950 . S
O25 Zn28 1.945 . S
Zn26 O25 1.923 . S
Zn26 O29 1.933 . S
Zn26 O32 1.941 . S
Zn26 O33 1.965 . S
Zn27 O25 1.950 . S
Zn27 O34 1.938 . S
Zn27 O35 1.906 . S
Zn27 O45 1.953 . S
Zn28 O25 1.945 . S
Zn28 O30 1.932 . S
Zn28 O37 1.977 . S
Zn28 O38 1.910 . S
O29 Zn26 1.933 . S
O29 C40 1.226 . S
O30 Zn28 1.932 . S
O30 C40 1.307 . S
O31 Zn24 1.919 . S
O31 C42 1.253 . S
O32 Zn26 1.941 . S
O32 C42 1.283 . S
O33 Zn26 1.965 . S
O33 C41 1.303 . S
O34 Zn27 1.938 . S
O34 C41 1.247 . S
O35 Zn27 1.906 . S
O35 C43 1.304 . S
O36 Zn24 1.924 . S
O36 C44 1.311 . S
O37 Zn28 1.977 . S
O37 C43 1.272 . S
O38 Zn28 1.910 . S
O38 C44 1.231 . S
C39 O23 1.225 . S
C39 O45 1.298 . S
C40 O29 1.226 . S
C40 O30 1.307 . S
C41 O33 1.303 . S
C41 O34 1.247 . S
C42 O31 1.253 . S
C42 O32 1.283 . S
C43 O35 1.304 . S
C43 O37 1.272 . S
C44 O36 1.311 . S
C44 O38 1.231 . S
O45 Zn27 1.953 . S
O45 C39 1.298 . S
O46 Zn47 1.953 . S
O46 C62 1.225 . S
Zn47 O46 1.953 . S
Zn47 O48 1.949 . S
Zn47 O54 1.919 . S
Zn47 O59 1.924 . S
O48 Zn47 1.949 . S
O48 Zn49 1.923 . S
O48 Zn50 1.950 . S
O48 Zn51 1.945 . S
Zn49 O48 1.923 . S
Zn49 O52 1.933 1_655 S
Zn49 O55 1.941 . S
Zn49 O56 1.965 . S
Zn50 O48 1.950 . S
Zn50 O57 1.938 . S
Zn50 O58 1.906 . S
Zn50 O68 1.953 . S
Zn51 O48 1.945 . S
Zn51 O53 1.932 1_655 S
Zn51 O60 1.977 . S
Zn51 O61 1.910 . S
O52 Zn49 1.933 1_455 S
O52 C63 1.226 . S
O53 Zn51 1.932 1_455 S
O53 C63 1.307 . S
O54 Zn47 1.919 . S
O54 C65 1.253 . S
O55 Zn49 1.941 . S
O55 C65 1.283 . S
O56 Zn49 1.965 . S
O56 C64 1.303 . S
O57 Zn50 1.938 . S
O57 C64 1.247 . S
O58 Zn50 1.906 . S
O58 C66 1.304 . S
O59 Zn47 1.924 . S
O59 C67 1.311 . S
O60 Zn51 1.977 . S
O60 C66 1.272 . S
O61 Zn51 1.910 . S
O61 C67 1.231 . S
C62 O46 1.225 . S
C62 O68 1.298 . S
C63 O52 1.226 . S
C63 O53 1.307 . S
C64 O56 1.303 . S
C64 O57 1.247 . S
C65 O54 1.253 . S
C65 O55 1.283 . S
C66 O58 1.304 . S
C66 O60 1.272 . S
C67 O59 1.311 . S
C67 O61 1.231 . S
O68 Zn50 1.953 . S
O68 C62 1.298 . S
O69 Zn70 1.953 . S
O69 C85 1.225 . S
Zn70 O69 1.953 . S
Zn70 O71 1.949 . S
Zn70 O77 1.919 . S
Zn70 O82 1.924 . S
O71 Zn70 1.949 . S
O71 Zn72 1.923 . S
O71 Zn73 1.950 . S
O71 Zn74 1.945 . S
Zn72 O71 1.923 . S
Zn72 O75 1.933 1_455 S
Zn72 O78 1.941 . S
Zn72 O79 1.965 . S
Zn73 O71 1.950 . S
Zn73 O80 1.938 . S
Zn73 O81 1.906 . S
Zn73 O91 1.953 . S
Zn74 O71 1.945 . S
Zn74 O76 1.932 1_455 S
Zn74 O83 1.977 . S
Zn74 O84 1.910 . S
O75 Zn72 1.933 1_655 S
O75 C86 1.226 . S
O76 Zn74 1.932 1_655 S
O76 C86 1.307 . S
O77 Zn70 1.919 . S
O77 C88 1.253 . S
O78 Zn72 1.941 . S
O78 C88 1.283 . S
O79 Zn72 1.965 . S
O79 C87 1.303 . S
O80 Zn73 1.938 . S
O80 C87 1.247 . S
O81 Zn73 1.906 . S
O81 C89 1.304 . S
O82 Zn70 1.924 . S
O82 C90 1.311 . S
O83 Zn74 1.977 . S
O83 C89 1.272 . S
O84 Zn74 1.910 . S
O84 C90 1.231 . S
C85 O69 1.225 . S
C85 O91 1.298 . S
C86 O75 1.226 . S
C86 O76 1.307 . S
C87 O79 1.303 . S
C87 O80 1.247 . S
C88 O77 1.253 . S
C88 O78 1.283 . S
C89 O81 1.304 . S
C89 O83 1.272 . S
C90 O82 1.311 . S
C90 O84 1.231 . S
O91 Zn73 1.953 . S
O91 C85 1.298 . S
O92 Zn93 1.953 . S
O92 C108 1.225 . S
Zn93 O92 1.953 . S
Zn93 O94 1.949 . S
Zn93 O100 1.919 . S
Zn93 O105 1.924 . S
O94 Zn93 1.949 . S
O94 Zn95 1.923 . S
O94 Zn96 1.950 . S
O94 Zn97 1.945 . S
Zn95 O94 1.923 . S
Zn95 O98 1.933 1_565 S
Zn95 O101 1.941 . S
Zn95 O102 1.965 . S
Zn96 O94 1.950 . S
Zn96 O103 1.938 . S
Zn96 O104 1.906 . S
Zn96 O114 1.953 . S
Zn97 O94 1.945 . S
Zn97 O99 1.932 1_565 S
Zn97 O106 1.977 . S
Zn97 O107 1.910 . S
O98 Zn95 1.933 1_545 S
O98 C109 1.226 . S
O99 Zn97 1.932 1_545 S
O99 C109 1.307 . S
O100 Zn93 1.919 . S
O100 C111 1.253 . S
O101 Zn95 1.941 . S
O101 C111 1.283 . S
O102 Zn95 1.965 . S
O102 C110 1.303 . S
O103 Zn96 1.938 . S
O103 C110 1.247 . S
O104 Zn96 1.906 . S
O104 C112 1.304 . S
O105 Zn93 1.924 . S
O105 C113 1.311 . S
O106 Zn97 1.977 . S
O106 C112 1.272 . S
O107 Zn97 1.910 . S
O107 C113 1.231 . S
C108 O92 1.225 . S
C108 O114 1.298 . S
C109 O98 1.226 . S
C109 O99 1.307 . S
C110 O102 1.303 . S
C110 O103 1.247 . S
C111 O100 1.253 . S
C111 O101 1.283 . S
C112 O104 1.304 . S
C112 O106 1.272 . S
C113 O105 1.311 . S
C113 O107 1.231 . S
O114 Zn96 1.953 . S
O114 C108 1.298 . S
O115 Zn116 1.953 . S
O115 C131 1.225 . S
Zn116 O115 1.953 . S
Zn116 O117 1.949 . S
Zn116 O123 1.919 . S
Zn116 O128 1.924 . S
O117 Zn116 1.949 . S
O117 Zn118 1.923 . S
O117 Zn119 1.950 . S
O117 Zn120 1.945 . S
Zn118 O117 1.923 . S
Zn118 O121 1.933 . S
Zn118 O124 1.941 . S
Zn118 O125 1.965 . S
Zn119 O117 1.950 . S
Zn119 O126 1.938 . S
Zn119 O127 1.906 . S
Zn119 O137 1.953 . S
Zn120 O117 1.945 . S
Zn120 O122 1.932 . S
Zn120 O129 1.977 . S
Zn120 O130 1.910 . S
O121 Zn118 1.933 . S
O121 C132 1.226 . S
O122 Zn120 1.932 . S
O122 C132 1.307 . S
O123 Zn116 1.919 . S
O123 C134 1.253 . S
O124 Zn118 1.941 . S
O124 C134 1.283 . S
O125 Zn118 1.965 . S
O125 C133 1.303 . S
O126 Zn119 1.938 . S
O126 C133 1.247 . S
O127 Zn119 1.906 . S
O127 C135 1.304 . S
O128 Zn116 1.924 . S
O128 C136 1.311 . S
O129 Zn120 1.977 . S
O129 C135 1.272 . S
O130 Zn120 1.910 . S
O130 C136 1.231 . S
C131 O115 1.225 . S
C131 O137 1.298 . S
C132 O121 1.226 . S
C132 O122 1.307 . S
C133 O125 1.303 . S
C133 O126 1.247 . S
C134 O123 1.253 . S
C134 O124 1.283 . S
C135 O127 1.304 . S
C135 O129 1.272 . S
C136 O128 1.311 . S
C136 O130 1.231 . S
O137 Zn119 1.953 . S
O137 C131 1.298 . S
C138 C139 1.391 . S
C138 C140 1.394 . S
C138 H154 0.931 . S
C139 C138 1.391 . S
C139 C143 1.376 . S
C140 C138 1.394 . S
C140 C141 1.369 . S
C140 C144 1.531 1_556 S
C141 C140 1.369 . S
C141 C142 1.410 . S
C141 C149 1.503 1_566 S
C142 C141 1.410 . S
C142 C143 1.392 . S
C142 C145 1.511 1_565 S
C143 C139 1.376 . S
C143 C142 1.392 . S
C143 H155 0.929 . S
C144 C140 1.531 1_554 S
C144 H156 0.960 . S
C144 H157 0.962 . S
C144 H158 0.960 1_554 S
C145 C142 1.511 1_545 S
C145 H159 0.961 . S
C145 H160 0.961 . S
C145 H161 0.961 . S
C146 C147 1.370 . S
C146 C148 1.363 . S
C146 H162 0.931 . S
C147 C146 1.370 . S
C147 C151 1.408 . S
C148 C146 1.363 . S
C148 C149 1.370 . S
C148 C152 1.524 1_554 S
C149 C141 1.503 1_544 S
C149 C148 1.370 . S
C149 C150 1.403 1_545 S
C150 C149 1.403 1_565 S
C150 C151 1.404 1_565 S
C150 C153 1.539 . S
C151 C147 1.408 . S
C151 C150 1.404 1_545 S
C151 H163 0.930 1_545 S
C152 C148 1.524 1_556 S
C152 H164 0.956 . S
C152 H165 0.961 . S
C152 H166 0.961 . S
C153 C150 1.539 . S
C153 H167 0.958 . S
C153 H168 0.961 . S
C153 H169 0.960 . S
H154 C138 0.931 . S
H155 C143 0.929 . S
H156 C144 0.960 . S
H157 C144 0.962 . S
H158 C144 0.960 1_556 S
H159 C145 0.961 . S
H160 C145 0.961 . S
H161 C145 0.961 . S
H162 C146 0.931 . S
H163 C151 0.930 1_565 S
H164 C152 0.956 . S
H165 C152 0.961 . S
H166 C152 0.961 . S
H167 C153 0.958 . S
H168 C153 0.961 . S
H169 C153 0.960 . S
C170 C171 1.391 . S
C170 C172 1.394 . S
C170 H186 0.931 . S
C171 C170 1.391 . S
C171 C175 1.376 . S
C172 C170 1.394 . S
C172 C173 1.369 . S
C172 C176 1.531 . S
C173 C172 1.369 . S
C173 C174 1.410 . S
C173 C181 1.503 . S
C174 C173 1.410 . S
C174 C175 1.392 . S
C174 C177 1.511 . S
C175 C171 1.376 . S
C175 C174 1.392 . S
C175 H187 0.929 . S
C176 C172 1.531 . S
C176 H188 0.960 . S
C176 H189 0.962 . S
C176 H190 0.960 . S
C177 C174 1.511 . S
C177 H191 0.961 . S
C177 H192 0.961 . S
C177 H193 0.961 . S
C178 C179 1.370 . S
C178 C180 1.363 . S
C178 H194 0.931 . S
C179 C178 1.370 . S
C179 C183 1.408 . S
C180 C178 1.363 . S
C180 C181 1.370 . S
C180 C184 1.524 . S
C181 C173 1.503 . S
C181 C180 1.370 . S
C181 C182 1.403 . S
C182 C181 1.403 . S
C182 C183 1.404 . S
C182 C185 1.539 . S
C183 C179 1.408 . S
C183 C182 1.404 . S
C183 H195 0.930 . S
C184 C180 1.524 . S
C184 H196 0.956 . S
C184 H197 0.961 . S
C184 H198 0.961 . S
C185 C182 1.539 . S
C185 H199 0.958 . S
C185 H200 0.961 . S
C185 H201 0.960 . S
H186 C170 0.931 . S
H187 C175 0.929 . S
H188 C176 0.960 . S
H189 C176 0.962 . S
H190 C176 0.960 . S
H191 C177 0.961 . S
H192 C177 0.961 . S
H193 C177 0.961 . S
H194 C178 0.931 . S
H195 C183 0.930 . S
H196 C184 0.956 . S
H197 C184 0.961 . S
H198 C184 0.961 . S
H199 C185 0.958 . S
H200 C185 0.961 . S
H201 C185 0.960 . S
C202 C203 1.391 . S
C202 C204 1.394 . S
C202 H218 0.931 . S
C203 C202 1.391 . S
C203 C207 1.376 . S
C204 C202 1.394 . S
C204 C205 1.369 . S
C204 C208 1.531 1_554 S
C205 C204 1.369 . S
C205 C206 1.410 1_655 S
C205 C213 1.503 1_654 S
C206 C205 1.410 1_455 S
C206 C207 1.392 1_455 S
C206 C209 1.511 . S
C207 C203 1.376 . S
C207 C206 1.392 1_655 S
C207 H219 0.929 1_655 S
C208 C204 1.531 1_556 S
C208 H220 0.960 . S
C208 H221 0.962 . S
C208 H222 0.960 . S
C209 C206 1.511 . S
C209 H223 0.961 . S
C209 H224 0.961 . S
C209 H225 0.961 . S
C210 C211 1.370 . S
C210 C212 1.363 . S
C210 H226 0.931 . S
C211 C210 1.370 . S
C211 C215 1.408 . S
C212 C210 1.363 . S
C212 C213 1.370 . S
C212 C216 1.524 . S
C213 C205 1.503 1_456 S
C213 C212 1.370 . S
C213 C214 1.403 . S
C214 C213 1.403 . S
C214 C215 1.404 . S
C214 C217 1.539 1_455 S
C215 C211 1.408 . S
C215 C214 1.404 . S
C215 H227 0.930 . S
C216 C212 1.524 . S
C216 H228 0.956 1_455 S
C216 H229 0.961 1_556 S
C216 H230 0.961 . S
C217 C214 1.539 1_655 S
C217 H231 0.958 . S
C217 H232 0.961 1_655 S
C217 H233 0.960 . S
H218 C202 0.931 . S
H219 C207 0.929 1_455 S
H220 C208 0.960 . S
H221 C208 0.962 . S
H222 C208 0.960 . S
H223 C209 0.961 . S
H224 C209 0.961 . S
H225 C209 0.961 . S
H226 C210 0.931 . S
H227 C215 0.930 . S
H228 C216 0.956 1_655 S
H229 C216 0.961 1_554 S
H230 C216 0.961 . S
H231 C217 0.958 . S
H232 C217 0.961 1_455 S
H233 C217 0.960 . S
C234 C235 1.391 . S
C234 C236 1.394 1_545 S
C234 H250 0.931 1_545 S
C235 C234 1.391 . S
C235 C239 1.376 . S
C236 C234 1.394 1_565 S
C236 C237 1.369 1_565 S
C236 C240 1.531 . S
C237 C236 1.369 1_545 S
C237 C238 1.410 . S
C237 C245 1.503 1_545 S
C238 C237 1.410 . S
C238 C239 1.392 . S
C238 C241 1.511 . S
C239 C235 1.376 . S
C239 C238 1.392 . S
C239 H251 0.929 . S
C240 C236 1.531 . S
C240 H252 0.960 . S
C240 H253 0.962 . S
C240 H254 0.960 . S
C241 C238 1.511 . S
C241 H255 0.961 . S
C241 H256 0.961 . S
C241 H257 0.961 . S
C242 C243 1.370 . S
C242 C244 1.363 . S
C242 H258 0.931 . S
C243 C242 1.370 . S
C243 C247 1.408 . S
C244 C242 1.363 . S
C244 C245 1.370 . S
C244 C248 1.524 . S
C245 C237 1.503 1_565 S
C245 C244 1.370 . S
C245 C246 1.403 . S
C246 C245 1.403 . S
C246 C247 1.404 . S
C246 C249 1.539 . S
C247 C243 1.408 . S
C247 C246 1.404 . S
C247 H259 0.930 . S
C248 C244 1.524 . S
C248 H260 0.956 . S
C248 H261 0.961 1_565 S
C248 H262 0.961 . S
C249 C246 1.539 . S
C249 H263 0.958 . S
C249 H264 0.961 . S
C249 H265 0.960 1_565 S
H250 C234 0.931 1_565 S
H251 C239 0.929 . S
H252 C240 0.960 . S
H253 C240 0.962 . S
H254 C240 0.960 . S
H255 C241 0.961 . S
H256 C241 0.961 . S
H257 C241 0.961 . S
H258 C242 0.931 . S
H259 C247 0.930 . S
H260 C248 0.956 . S
H261 C248 0.961 1_545 S
H262 C248 0.961 . S
H263 C249 0.958 . S
H264 C249 0.961 . S
H265 C249 0.960 1_545 S
C266 C267 1.391 . S
C266 C268 1.394 . S
C266 H282 0.931 . S
C267 C266 1.391 . S
C267 C271 1.376 . S
C268 C266 1.394 . S
C268 C269 1.369 . S
C268 C272 1.531 . S
C269 C268 1.369 . S
C269 C270 1.410 . S
C269 C277 1.503 1_556 S
C270 C269 1.410 . S
C270 C271 1.392 . S
C270 C273 1.511 . S
C271 C267 1.376 . S
C271 C270 1.392 . S
C271 H283 0.929 . S
C272 C268 1.531 . S
C272 H284 0.960 1_556 S
C272 H285 0.962 1_556 S
C272 H286 0.960 . S
C273 C270 1.511 . S
C273 H287 0.961 . S
C273 H288 0.961 . S
C273 H289 0.961 . S
C274 C275 1.370 . S
C274 C276 1.363 . S
C274 H290 0.931 . S
C275 C274 1.370 . S
C275 C279 1.408 . S
C276 C274 1.363 . S
C276 C277 1.370 . S
C276 C280 1.524 . S
C277 C269 1.503 1_554 S
C277 C276 1.370 . S
C277 C278 1.403 . S
C278 C277 1.403 . S
C278 C279 1.404 . S
C278 C281 1.539 1_554 S
C279 C275 1.408 . S
C279 C278 1.404 . S
C279 H291 0.930 . S
C280 C276 1.524 . S
C280 H292 0.956 . S
C280 H293 0.961 . S
C280 H294 0.961 . S
C281 C278 1.539 1_556 S
C281 H295 0.958 . S
C281 H296 0.964 . S
C281 H297 0.960 . S
H282 C266 0.931 . S
H283 C271 0.929 . S
H284 C272 0.960 1_554 S
H285 C272 0.962 1_554 S
H286 C272 0.960 . S
H287 C273 0.961 . S
H288 C273 0.961 . S
H289 C273 0.961 . S
H290 C274 0.931 . S
H291 C279 0.930 . S
H292 C280 0.956 . S
H293 C280 0.961 . S
H294 C280 0.961 . S
H295 C281 0.958 . S
H296 C281 0.964 . S
H297 C281 0.960 . S
C298 C299 1.391 . S
C298 C300 1.394 . S
C298 H314 0.931 . S
C299 C298 1.391 . S
C299 C303 1.376 . S
C300 C298 1.394 . S
C300 C301 1.369 . S
C300 C304 1.531 . S
C301 C300 1.369 . S
C301 C302 1.410 . S
C301 C309 1.503 1_655 S
C302 C301 1.410 . S
C302 C303 1.392 . S
C302 C305 1.511 1_655 S
C303 C299 1.376 . S
C303 C302 1.392 . S
C303 H315 0.929 . S
C304 C300 1.531 . S
C304 H316 0.960 1_655 S
C304 H317 0.962 . S
C304 H318 0.960 . S
C305 C302 1.511 1_455 S
C305 H319 0.961 1_455 S
C305 H320 0.961 . S
C305 H321 0.961 . S
C306 C307 1.370 . S
C306 C308 1.363 1_455 S
C306 H322 0.931 1_455 S
C307 C306 1.370 . S
C307 C311 1.408 . S
C308 C306 1.363 1_655 S
C308 C309 1.370 1_655 S
C308 C312 1.524 . S
C309 C301 1.503 1_455 S
C309 C308 1.370 1_455 S
C309 C310 1.403 . S
C310 C309 1.403 . S
C310 C311 1.404 . S
C310 C313 1.539 . S
C311 C307 1.408 . S
C311 C310 1.404 . S
C311 H323 0.930 . S
C312 C308 1.524 . S
C312 H324 0.956 . S
C312 H325 0.961 . S
C312 H326 0.961 . S
C313 C310 1.539 . S
C313 H327 0.958 . S
C313 H328 0.961 . S
C313 H329 0.960 . S
H314 C298 0.931 . S
H315 C303 0.929 . S
H316 C304 0.960 1_455 S
H317 C304 0.962 . S
H318 C304 0.960 . S
H319 C305 0.961 1_655 S
H320 C305 0.961 . S
H321 C305 0.961 . S
H322 C306 0.931 1_655 S
H323 C311 0.930 . S
H324 C312 0.956 . S
H325 C312 0.961 . S
H326 C312 0.961 . S
H327 C313 0.958 . S
H328 C313 0.961 . S
H329 C313 0.960 . S
C330 C331 1.391 . S
C330 C332 1.394 . S
C330 H346 0.931 . S
C331 C330 1.391 . S
C331 C335 1.376 . S
C332 C330 1.394 . S
C332 C333 1.369 . S
C332 C336 1.531 . S
C333 C332 1.369 . S
C333 C334 1.410 . S
C333 C341 1.503 . S
C334 C333 1.410 . S
C334 C335 1.392 . S
C334 C337 1.511 . S
C335 C331 1.376 . S
C335 C334 1.392 . S
C335 H347 0.929 . S
C336 C332 1.531 . S
C336 H348 0.960 . S
C336 H349 0.962 . S
C336 H350 0.960 . S
C337 C334 1.511 . S
C337 H351 0.961 . S
C337 H352 0.961 . S
C337 H353 0.961 . S
C338 C339 1.370 . S
C338 C340 1.363 . S
C338 H354 0.931 . S
C339 C338 1.370 . S
C339 C343 1.408 . S
C340 C338 1.363 . S
C340 C341 1.370 . S
C340 C344 1.524 . S
C341 C333 1.503 . S
C341 C340 1.370 . S
C341 C342 1.403 . S
C342 C341 1.403 . S
C342 C343 1.404 . S
C342 C345 1.539 . S
C343 C339 1.408 . S
C343 C342 1.404 . S
C343 H355 0.930 . S
C344 C340 1.524 . S
C344 H356 0.956 . S
C344 H357 0.961 . S
C344 H358 0.961 . S
C345 C342 1.539 . S
C345 H359 0.958 . S
C345 H360 0.961 . S
C345 H361 0.960 . S
H346 C330 0.931 . S
H347 C335 0.929 . S
H348 C336 0.960 . S
H349 C336 0.962 . S
H350 C336 0.960 . S
H351 C337 0.961 . S
H352 C337 0.961 . S
H353 C337 0.961 . S
H354 C338 0.931 . S
H355 C343 0.930 . S
H356 C344 0.956 . S
H357 C344 0.961 . S
H358 C344 0.961 . S
H359 C345 0.958 . S
H360 C345 0.961 . S
H361 C345 0.960 . S
C362 C363 1.391 . S
C362 C364 1.394 . S
C362 H378 0.931 . S
C363 C362 1.391 . S
C363 C367 1.376 . S
C364 C362 1.394 . S
C364 C365 1.369 . S
C364 C368 1.531 . S
C365 C364 1.369 . S
C365 C366 1.410 . S
C365 C373 1.503 . S
C366 C365 1.410 . S
C366 C367 1.392 . S
C366 C369 1.511 . S
C367 C363 1.376 . S
C367 C366 1.392 . S
C367 H379 0.929 . S
C368 C364 1.531 . S
C368 H380 0.960 . S
C368 H381 0.962 . S
C368 H382 0.960 . S
C369 C366 1.511 . S
C369 H383 0.961 . S
C369 H384 0.961 . S
C369 H385 0.961 . S
C370 C371 1.370 . S
C370 C372 1.363 . S
C370 H386 0.931 . S
C371 C370 1.370 . S
C371 C375 1.408 . S
C372 C370 1.363 . S
C372 C373 1.370 . S
C372 C376 1.524 . S
C373 C365 1.503 . S
C373 C372 1.370 . S
C373 C374 1.403 . S
C374 C373 1.403 . S
C374 C375 1.404 . S
C374 C377 1.539 . S
C375 C371 1.408 . S
C375 C374 1.404 . S
C375 H387 0.930 . S
C376 C372 1.524 . S
C376 H388 0.956 . S
C376 H389 0.961 . S
C376 H390 0.961 . S
C377 C374 1.539 . S
C377 H391 0.958 . S
C377 H392 0.961 . S
C377 H393 0.960 . S
H378 C362 0.931 . S
H379 C367 0.929 . S
H380 C368 0.960 . S
H381 C368 0.962 . S
H382 C368 0.960 . S
H383 C369 0.961 . S
H384 C369 0.961 . S
H385 C369 0.961 . S
H386 C370 0.931 . S
H387 C375 0.930 . S
H388 C376 0.956 . S
H389 C376 0.961 . S
H390 C376 0.961 . S
H391 C377 0.958 . S
H392 C377 0.961 . S
H393 C377 0.960 . S
C394 C395 1.391 . S
C394 C396 1.394 . S
C394 H410 0.931 . S
C395 C394 1.391 . S
C395 C399 1.376 . S
C396 C394 1.394 . S
C396 C397 1.369 . S
C396 C400 1.531 . S
C397 C396 1.369 . S
C397 C398 1.410 . S
C397 C405 1.503 . S
C398 C397 1.410 . S
C398 C399 1.392 . S
C398 C401 1.511 . S
C399 C395 1.376 . S
C399 C398 1.392 . S
C399 H411 0.929 . S
C400 C396 1.531 . S
C400 H412 0.960 . S
C400 H413 0.962 . S
C400 H414 0.960 . S
C401 C398 1.511 . S
C401 H415 0.961 . S
C401 H416 0.961 . S
C401 H417 0.961 . S
C402 C403 1.370 . S
C402 C404 1.363 . S
C402 H418 0.931 . S
C403 C402 1.370 . S
C403 C407 1.408 . S
C404 C402 1.363 . S
C404 C405 1.370 . S
C404 C408 1.524 . S
C405 C397 1.503 . S
C405 C404 1.370 . S
C405 C406 1.403 . S
C406 C405 1.403 . S
C406 C407 1.404 . S
C406 C409 1.539 . S
C407 C403 1.408 . S
C407 C406 1.404 . S
C407 H419 0.930 . S
C408 C404 1.524 . S
C408 H420 0.956 . S
C408 H421 0.961 . S
C408 H422 0.961 . S
C409 C406 1.539 . S
C409 H423 0.958 . S
C409 H424 0.961 . S
C409 H425 0.960 . S
H410 C394 0.931 . S
H411 C399 0.929 . S
H412 C400 0.960 . S
H413 C400 0.962 . S
H414 C400 0.960 . S
H415 C401 0.961 . S
H416 C401 0.961 . S
H417 C401 0.961 . S
H418 C402 0.931 . S
H419 C407 0.930 . S
H420 C408 0.956 . S
H421 C408 0.961 . S
H422 C408 0.961 . S
H423 C409 0.958 . S
H424 C409 0.961 . S
H425 C409 0.960 . S
C426 C427 1.391 . S
C426 C428 1.394 . S
C426 H442 0.931 . S
C427 C426 1.391 . S
C427 C431 1.376 . S
C428 C426 1.394 . S
C428 C429 1.369 . S
C428 C432 1.531 . S
C429 C428 1.369 . S
C429 C430 1.410 . S
C429 C437 1.503 . S
C430 C429 1.410 . S
C430 C431 1.392 . S
C430 C433 1.511 . S
C431 C427 1.376 . S
C431 C430 1.392 . S
C431 H443 0.929 . S
C432 C428 1.531 . S
C432 H444 0.960 . S
C432 H445 0.962 . S
C432 H446 0.960 . S
C433 C430 1.511 . S
C433 H447 0.961 . S
C433 H448 0.961 . S
C433 H449 0.961 . S
C434 C435 1.370 . S
C434 C436 1.363 . S
C434 H450 0.931 . S
C435 C434 1.370 . S
C435 C439 1.408 . S
C436 C434 1.363 . S
C436 C437 1.370 . S
C436 C440 1.524 . S
C437 C429 1.503 . S
C437 C436 1.370 . S
C437 C438 1.403 . S
C438 C437 1.403 . S
C438 C439 1.404 . S
C438 C441 1.539 . S
C439 C435 1.408 . S
C439 C438 1.404 . S
C439 H451 0.930 . S
C440 C436 1.524 . S
C440 H452 0.956 . S
C440 H453 0.961 . S
C440 H454 0.961 . S
C441 C438 1.539 . S
C441 H455 0.958 . S
C441 H456 0.961 . S
C441 H457 0.960 . S
H442 C426 0.931 . S
H443 C431 0.929 . S
H444 C432 0.960 . S
H445 C432 0.962 . S
H446 C432 0.960 . S
H447 C433 0.961 . S
H448 C433 0.961 . S
H449 C433 0.961 . S
H450 C434 0.931 . S
H451 C439 0.930 . S
H452 C440 0.956 . S
H453 C440 0.961 . S
H454 C440 0.961 . S
H455 C441 0.958 . S
H456 C441 0.961 . S
H457 C441 0.960 . S
C458 C459 1.391 . S
C458 C460 1.394 . S
C458 H474 0.931 . S
C459 C458 1.391 . S
C459 C463 1.376 . S
C460 C458 1.394 . S
C460 C461 1.369 . S
C460 C464 1.531 . S
C461 C460 1.369 . S
C461 C462 1.410 . S
C461 C469 1.503 . S
C462 C461 1.410 . S
C462 C463 1.392 . S
C462 C465 1.511 . S
C463 C459 1.376 . S
C463 C462 1.392 . S
C463 H475 0.929 . S
C464 C460 1.531 . S
C464 H476 0.960 . S
C464 H477 0.962 . S
C464 H478 0.960 . S
C465 C462 1.511 . S
C465 H479 0.961 . S
C465 H480 0.961 . S
C465 H481 0.961 . S
C466 C467 1.370 . S
C466 C468 1.363 . S
C466 H482 0.931 . S
C467 C466 1.370 . S
C467 C471 1.408 . S
C468 C466 1.363 . S
C468 C469 1.370 . S
C468 C472 1.524 . S
C469 C461 1.503 . S
C469 C468 1.370 . S
C469 C470 1.403 . S
C470 C469 1.403 . S
C470 C471 1.404 . S
C470 C473 1.539 . S
C471 C467 1.408 . S
C471 C470 1.404 . S
C471 H483 0.930 . S
C472 C468 1.524 . S
C472 H484 0.956 . S
C472 H485 0.961 . S
C472 H486 0.961 . S
C473 C470 1.539 . S
C473 H487 0.958 . S
C473 H488 0.961 . S
C473 H489 0.960 . S
H474 C458 0.931 . S
H475 C463 0.929 . S
H476 C464 0.960 . S
H477 C464 0.962 . S
H478 C464 0.960 . S
H479 C465 0.961 . S
H480 C465 0.961 . S
H481 C465 0.961 . S
H482 C466 0.931 . S
H483 C471 0.930 . S
H484 C472 0.956 . S
H485 C472 0.961 . S
H486 C472 0.961 . S
H487 C473 0.958 . S
H488 C473 0.961 . S
H489 C473 0.960 . S
C490 C491 1.391 . S
C490 C492 1.394 . S
C490 H506 0.931 . S
C491 C490 1.391 . S
C491 C495 1.376 . S
C492 C490 1.394 . S
C492 C493 1.369 . S
C492 C496 1.531 . S
C493 C492 1.369 . S
C493 C494 1.410 . S
C493 C501 1.503 . S
C494 C493 1.410 . S
C494 C495 1.392 . S
C494 C497 1.511 . S
C495 C491 1.376 . S
C495 C494 1.392 . S
C495 H507 0.929 . S
C496 C492 1.531 . S
C496 H508 0.960 . S
C496 H509 0.962 . S
C496 H510 0.960 . S
C497 C494 1.511 . S
C497 H511 0.961 . S
C497 H512 0.961 . S
C497 H513 0.961 . S
C498 C499 1.370 . S
C498 C500 1.363 . S
C498 H514 0.931 . S
C499 C498 1.370 . S
C499 C503 1.408 . S
C500 C498 1.363 . S
C500 C501 1.370 . S
C500 C504 1.524 . S
C501 C493 1.503 . S
C501 C500 1.370 . S
C501 C502 1.403 . S
C502 C501 1.403 . S
C502 C503 1.404 . S
C502 C505 1.539 . S
C503 C499 1.408 . S
C503 C502 1.404 . S
C503 H515 0.930 . S
C504 C500 1.524 . S
C504 H516 0.956 . S
C504 H517 0.961 . S
C504 H518 0.961 . S
C505 C502 1.539 . S
C505 H519 0.958 . S
C505 H520 0.961 . S
C505 H521 0.960 . S
H506 C490 0.931 . S
H507 C495 0.929 . S
H508 C496 0.960 . S
H509 C496 0.962 . S
H510 C496 0.960 . S
H511 C497 0.961 . S
H512 C497 0.961 . S
H513 C497 0.961 . S
H514 C498 0.931 . S
H515 C503 0.930 . S
H516 C504 0.956 . S
H517 C504 0.961 . S
H518 C504 0.961 . S
H519 C505 0.958 . S
H520 C505 0.961 . S
H521 C505 0.960 . S
C522 C523 1.391 . S
C522 C524 1.394 . S
C522 H538 0.931 . S
C523 C522 1.391 . S
C523 C527 1.376 . S
C524 C522 1.394 . S
C524 C525 1.369 . S
C524 C528 1.531 . S
C525 C524 1.369 . S
C525 C526 1.410 . S
C525 C533 1.503 . S
C526 C525 1.410 . S
C526 C527 1.392 . S
C526 C529 1.511 . S
C527 C523 1.376 . S
C527 C526 1.392 . S
C527 H539 0.929 . S
C528 C524 1.531 . S
C528 H540 0.960 . S
C528 H541 0.962 . S
C528 H542 0.960 . S
C529 C526 1.511 . S
C529 H543 0.961 . S
C529 H544 0.961 . S
C529 H545 0.961 . S
C530 C531 1.370 . S
C530 C532 1.363 . S
C530 H546 0.931 . S
C531 C530 1.370 . S
C531 C535 1.408 . S
C532 C530 1.363 . S
C532 C533 1.370 . S
C532 C536 1.524 . S
C533 C525 1.503 . S
C533 C532 1.370 . S
C533 C534 1.403 . S
C534 C533 1.403 . S
C534 C535 1.404 . S
C534 C537 1.539 . S
C535 C531 1.408 . S
C535 C534 1.404 . S
C535 H547 0.930 . S
C536 C532 1.524 . S
C536 H548 0.956 . S
C536 H549 0.961 . S
C536 H550 0.961 . S
C537 C534 1.539 . S
C537 H551 0.958 . S
C537 H552 0.961 . S
C537 H553 0.960 . S
H538 C522 0.931 . S
H539 C527 0.929 . S
H540 C528 0.960 . S
H541 C528 0.962 . S
H542 C528 0.960 . S
H543 C529 0.961 . S
H544 C529 0.961 . S
H545 C529 0.961 . S
H546 C530 0.931 . S
H547 C535 0.930 . S
H548 C536 0.956 . S
H549 C536 0.961 . S
H550 C536 0.961 . S
H551 C537 0.958 . S
H552 C537 0.961 . S
H553 C537 0.960 . S
C554 C555 1.391 . S
C554 C556 1.394 1_655 S
C554 H570 0.931 . S
C555 C554 1.391 . S
C555 C559 1.376 . S
C556 C554 1.394 1_455 S
C556 C557 1.369 . S
C556 C560 1.531 . S
C557 C556 1.369 . S
C557 C558 1.410 . S
C557 C565 1.503 . S
C558 C557 1.410 . S
C558 C559 1.392 1_455 S
C558 C561 1.511 . S
C559 C555 1.376 . S
C559 C558 1.392 1_655 S
C559 H571 0.929 . S
C560 C556 1.531 . S
C560 H572 0.960 . S
C560 H573 0.962 . S
C560 H574 0.960 . S
C561 C558 1.511 . S
C561 H575 0.961 . S
C561 H576 0.961 . S
C561 H577 0.961 . S
C562 C563 1.370 . S
C562 C564 1.363 . S
C562 H578 0.931 . S
C563 C562 1.370 . S
C563 C567 1.408 . S
C564 C562 1.363 . S
C564 C565 1.370 . S
C564 C568 1.524 . S
C565 C557 1.503 . S
C565 C564 1.370 . S
C565 C566 1.403 . S
C566 C565 1.403 . S
C566 C567 1.404 . S
C566 C569 1.539 . S
C567 C563 1.408 . S
C567 C566 1.404 . S
C567 H579 0.930 . S
C568 C564 1.524 . S
C568 H580 0.956 . S
C568 H581 0.961 . S
C568 H582 0.961 . S
C569 C566 1.539 . S
C569 H583 0.958 . S
C569 H584 0.961 . S
C569 H585 0.960 . S
H570 C554 0.931 . S
H571 C559 0.929 . S
H572 C560 0.960 . S
H573 C560 0.962 . S
H574 C560 0.960 . S
H575 C561 0.961 . S
H576 C561 0.961 . S
H577 C561 0.961 . S
H578 C562 0.931 . S
H579 C567 0.930 . S
H580 C568 0.956 . S
H581 C568 0.961 . S
H582 C568 0.961 . S
H583 C569 0.958 . S
H584 C569 0.961 . S
H585 C569 0.960 . S
C586 C587 1.391 . S
C586 C588 1.394 1_545 S
C586 H602 0.931 . S
C587 C586 1.391 . S
C587 C591 1.376 . S
C588 C586 1.394 1_565 S
C588 C589 1.369 . S
C588 C592 1.531 . S
C589 C588 1.369 . S
C589 C590 1.410 . S
C589 C597 1.503 . S
C590 C589 1.410 . S
C590 C591 1.392 1_565 S
C590 C593 1.511 . S
C591 C587 1.376 . S
C591 C590 1.392 1_545 S
C591 H603 0.929 . S
C592 C588 1.531 . S
C592 H604 0.960 . S
C592 H605 0.962 . S
C592 H606 0.960 . S
C593 C590 1.511 . S
C593 H607 0.961 . S
C593 H608 0.961 . S
C593 H609 0.961 . S
C594 C595 1.370 . S
C594 C596 1.363 . S
C594 H610 0.931 . S
C595 C594 1.370 . S
C595 C599 1.408 . S
C596 C594 1.363 . S
C596 C597 1.370 . S
C596 C600 1.524 . S
C597 C589 1.503 . S
C597 C596 1.370 . S
C597 C598 1.403 . S
C598 C597 1.403 . S
C598 C599 1.404 . S
C598 C601 1.539 . S
C599 C595 1.408 . S
C599 C598 1.404 . S
C599 H611 0.930 . S
C600 C596 1.524 . S
C600 H612 0.956 . S
C600 H613 0.961 . S
C600 H614 0.961 . S
C601 C598 1.539 . S
C601 H615 0.958 . S
C601 H616 0.961 . S
C601 H617 0.960 . S
H602 C586 0.931 . S
H603 C591 0.929 . S
H604 C592 0.960 . S
H605 C592 0.962 . S
H606 C592 0.960 . S
H607 C593 0.961 . S
H608 C593 0.961 . S
H609 C593 0.961 . S
H610 C594 0.931 . S
H611 C599 0.930 . S
H612 C600 0.956 . S
H613 C600 0.961 . S
H614 C600 0.961 . S
H615 C601 0.958 . S
H616 C601 0.961 . S
H617 C601 0.960 . S
C618 C619 1.391 . S
C618 C620 1.394 . S
C618 H634 0.931 . S
C619 C618 1.391 . S
C619 C623 1.376 . S
C620 C618 1.394 . S
C620 C621 1.369 . S
C620 C624 1.531 . S
C621 C620 1.369 . S
C621 C622 1.410 . S
C621 C629 1.503 . S
C622 C621 1.410 . S
C622 C623 1.392 . S
C622 C625 1.511 . S
C623 C619 1.376 . S
C623 C622 1.392 . S
C623 H635 0.929 . S
C624 C620 1.531 . S
C624 H636 0.960 . S
C624 H637 0.962 . S
C624 H638 0.960 . S
C625 C622 1.511 . S
C625 H639 0.961 . S
C625 H640 0.961 . S
C625 H641 0.961 . S
C626 C627 1.370 . S
C626 C628 1.363 . S
C626 H642 0.931 . S
C627 C626 1.370 . S
C627 C631 1.408 . S
C628 C626 1.363 . S
C628 C629 1.370 . S
C628 C632 1.524 . S
C629 C621 1.503 . S
C629 C628 1.370 . S
C629 C630 1.403 . S
C630 C629 1.403 . S
C630 C631 1.404 . S
C630 C633 1.539 . S
C631 C627 1.408 . S
C631 C630 1.404 . S
C631 H643 0.930 . S
C632 C628 1.524 . S
C632 H644 0.956 . S
C632 H645 0.961 . S
C632 H646 0.961 . S
C633 C630 1.539 . S
C633 H647 0.958 . S
C633 H648 0.961 . S
C633 H649 0.960 . S
H634 C618 0.931 . S
H635 C623 0.929 . S
H636 C624 0.960 . S
H637 C624 0.962 . S
H638 C624 0.960 . S
H639 C625 0.961 . S
H640 C625 0.961 . S
H641 C625 0.961 . S
H642 C626 0.931 . S
H643 C631 0.930 . S
H644 C632 0.956 . S
H645 C632 0.961 . S
H646 C632 0.961 . S
H647 C633 0.958 . S
H648 C633 0.961 . S
H649 C633 0.960 . S
C650 C651 1.391 . S
C650 C652 1.394 1_455 S
C650 H666 0.931 . S
C651 C650 1.391 . S
C651 C655 1.376 . S
C652 C650 1.394 1_655 S
C652 C653 1.369 . S
C652 C656 1.531 . S
C653 C652 1.369 . S
C653 C654 1.410 . S
C653 C661 1.503 . S
C654 C653 1.410 . S
C654 C655 1.392 1_655 S
C654 C657 1.511 . S
C655 C651 1.376 . S
C655 C654 1.392 1_455 S
C655 H667 0.929 . S
C656 C652 1.531 . S
C656 H668 0.960 . S
C656 H669 0.962 . S
C656 H670 0.960 . S
C657 C654 1.511 . S
C657 H671 0.961 . S
C657 H672 0.961 . S
C657 H673 0.961 . S
C658 C659 1.370 . S
C658 C660 1.363 . S
C658 H674 0.931 . S
C659 C658 1.370 . S
C659 C663 1.408 . S
C660 C658 1.363 . S
C660 C661 1.370 . S
C660 C664 1.524 . S
C661 C653 1.503 . S
C661 C660 1.370 . S
C661 C662 1.403 . S
C662 C661 1.403 . S
C662 C663 1.404 . S
C662 C665 1.539 . S
C663 C659 1.408 . S
C663 C662 1.404 . S
C663 H675 0.930 . S
C664 C660 1.524 . S
C664 H676 0.956 . S
C664 H677 0.961 . S
C664 H678 0.961 . S
C665 C662 1.539 . S
C665 H679 0.958 . S
C665 H680 0.961 . S
C665 H681 0.960 . S
H666 C650 0.931 . S
H667 C655 0.929 . S
H668 C656 0.960 . S
H669 C656 0.962 . S
H670 C656 0.960 . S
H671 C657 0.961 . S
H672 C657 0.961 . S
H673 C657 0.961 . S
H674 C658 0.931 . S
H675 C663 0.930 . S
H676 C664 0.956 . S
H677 C664 0.961 . S
H678 C664 0.961 . S
H679 C665 0.958 . S
H680 C665 0.961 . S
H681 C665 0.960 . S
C682 C683 1.391 . S
C682 C684 1.394 . S
C682 H698 0.931 . S
C683 C682 1.391 . S
C683 C687 1.376 . S
C684 C682 1.394 . S
C684 C685 1.369 . S
C684 C688 1.531 . S
C685 C684 1.369 . S
C685 C686 1.410 . S
C685 C693 1.503 . S
C686 C685 1.410 . S
C686 C687 1.392 . S
C686 C689 1.511 . S
C687 C683 1.376 . S
C687 C686 1.392 . S
C687 H699 0.929 . S
C688 C684 1.531 . S
C688 H700 0.960 . S
C688 H701 0.962 . S
C688 H702 0.960 . S
C689 C686 1.511 . S
C689 H703 0.961 . S
C689 H704 0.961 . S
C689 H705 0.961 . S
C690 C691 1.370 . S
C690 C692 1.363 1_565 S
C690 H706 0.931 . S
C691 C690 1.370 . S
C691 C695 1.408 . S
C692 C690 1.363 1_545 S
C692 C693 1.370 . S
C692 C696 1.524 . S
C693 C685 1.503 . S
C693 C692 1.370 . S
C693 C694 1.403 . S
C694 C693 1.403 . S
C694 C695 1.404 1_545 S
C694 C697 1.539 . S
C695 C691 1.408 . S
C695 C694 1.404 1_565 S
C695 H707 0.930 . S
C696 C692 1.524 . S
C696 H708 0.956 . S
C696 H709 0.961 . S
C696 H710 0.961 . S
C697 C694 1.539 . S
C697 H711 0.958 . S
C697 H712 0.961 . S
C697 H713 0.960 . S
H698 C682 0.931 . S
H699 C687 0.929 . S
H700 C688 0.960 . S
H701 C688 0.962 . S
H702 C688 0.960 . S
H703 C689 0.961 . S
H704 C689 0.961 . S
H705 C689 0.961 . S
H706 C690 0.931 . S
H707 C695 0.930 . S
H708 C696 0.956 . S
H709 C696 0.961 . S
H710 C696 0.961 . S
H711 C697 0.958 . S
H712 C697 0.961 . S
H713 C697 0.960 . S
C139 C111 1.739 . S
C147 C19 1.746 . S
C171 C135 1.760 . S
C179 C43 1.762 . S
C203 C65 1.733 . S
C211 C88 1.744 . S
C235 C20 1.760 . S
C243 C112 1.762 . S
C267 C134 1.737 . S
C275 C42 1.748 . S
C299 C66 1.754 . S
C307 C89 1.761 . S
C331 C18 1.176 . S
C339 C62 1.227 . S
C363 C41 1.228 . S
C371 C16 1.224 . S
C395 C64 1.228 . S
C403 C39 1.224 . S
C427 C87 1.220 . S
C435 C108 1.226 . S
C459 C110 1.190 . S
C467 C131 1.228 . S
C491 C85 1.228 . S
C499 C133 1.195 . S
C523 C21 0.864 . S
C531 C63 0.846 . S
C555 C44 0.846 . S
C563 C17 0.836 . S
C587 C67 0.867 . S
C595 C40 0.866 . S
C619 C90 0.826 . S
C627 C109 0.831 . S
C651 C113 0.859 . S
C659 C132 0.843 . S
C683 C86 0.820 . S
C691 C136 0.860 . S
