# Generated by pormake.
# Topology zga, (5)-cn, num edge types: 1
# Building blocks:
#     Node 0, Type 0, BuildingBlock: BEQFEK_clean_sbu_0, # of connection points: 5
#     Node 1, Type 0, BuildingBlock: BEQFEK_clean_sbu_0, # of connection points: 5
#     Node 2, Type 0, BuildingBlock: BEQFEK_clean_sbu_0, # of connection points: 5
#     Node 3, Type 0, BuildingBlock: BEQFEK_clean_sbu_0, # of connection points: 5
#     Node 4, Type 0, BuildingBlock: BEQFEK_clean_sbu_0, # of connection points: 5
#     Node 5, Type 0, BuildingBlock: BEQFEK_clean_sbu_0, # of connection points: 5
#     Node 6, Type 0, BuildingBlock: BEQFEK_clean_sbu_0, # of connection points: 5
#     Node 7, Type 0, BuildingBlock: BEQFEK_clean_sbu_0, # of connection points: 5
#     Node 8, Type 0, BuildingBlock: BEQFEK_clean_sbu_0, # of connection points: 5
#     Node 9, Type 0, BuildingBlock: BEQFEK_clean_sbu_0, # of connection points: 5
#     Node 10, Type 0, BuildingBlock: BEQFEK_clean_sbu_0, # of connection points: 5
#     Node 11, Type 0, BuildingBlock: BEQFEK_clean_sbu_0, # of connection points: 5
#     Node 12, Type 0, BuildingBlock: BEQFEK_clean_sbu_0, # of connection points: 5
#     Node 13, Type 0, BuildingBlock: BEQFEK_clean_sbu_0, # of connection points: 5
#     Node 14, Type 0, BuildingBlock: BEQFEK_clean_sbu_0, # of connection points: 5
#     Node 15, Type 0, BuildingBlock: BEQFEK_clean_sbu_0, # of connection points: 5
#     Edge 16, Type (0, 0), BuildingBlock: AJUNOK_clean_linker_0, # of connection points: 2
#     Edge 17, Type (0, 0), BuildingBlock: AJUNOK_clean_linker_0, # of connection points: 2
#     Edge 18, Type (0, 0), BuildingBlock: AJUNOK_clean_linker_0, # of connection points: 2
#     Edge 19, Type (0, 0), BuildingBlock: AJUNOK_clean_linker_0, # of connection points: 2
#     Edge 20, Type (0, 0), BuildingBlock: AJUNOK_clean_linker_0, # of connection points: 2
#     Edge 21, Type (0, 0), BuildingBlock: AJUNOK_clean_linker_0, # of connection points: 2
#     Edge 22, Type (0, 0), BuildingBlock: AJUNOK_clean_linker_0, # of connection points: 2
#     Edge 23, Type (0, 0), BuildingBlock: AJUNOK_clean_linker_0, # of connection points: 2
#     Edge 24, Type (0, 0), BuildingBlock: AJUNOK_clean_linker_0, # of connection points: 2
#     Edge 25, Type (0, 0), BuildingBlock: AJUNOK_clean_linker_0, # of connection points: 2
#     Edge 26, Type (0, 0), BuildingBlock: AJUNOK_clean_linker_0, # of connection points: 2
#     Edge 27, Type (0, 0), BuildingBlock: AJUNOK_clean_linker_0, # of connection points: 2
#     Edge 28, Type (0, 0), BuildingBlock: AJUNOK_clean_linker_0, # of connection points: 2
#     Edge 29, Type (0, 0), BuildingBlock: AJUNOK_clean_linker_0, # of connection points: 2
#     Edge 30, Type (0, 0), BuildingBlock: AJUNOK_clean_linker_0, # of connection points: 2
#     Edge 31, Type (0, 0), BuildingBlock: AJUNOK_clean_linker_0, # of connection points: 2
#     Edge 32, Type (0, 0), BuildingBlock: AJUNOK_clean_linker_0, # of connection points: 2
#     Edge 33, Type (0, 0), BuildingBlock: AJUNOK_clean_linker_0, # of connection points: 2
#     Edge 34, Type (0, 0), BuildingBlock: AJUNOK_clean_linker_0, # of connection points: 2
#     Edge 35, Type (0, 0), BuildingBlock: AJUNOK_clean_linker_0, # of connection points: 2
#     Edge 36, Type (0, 0), BuildingBlock: AJUNOK_clean_linker_0, # of connection points: 2
#     Edge 37, Type (0, 0), BuildingBlock: AJUNOK_clean_linker_0, # of connection points: 2
#     Edge 38, Type (0, 0), BuildingBlock: AJUNOK_clean_linker_0, # of connection points: 2
#     Edge 39, Type (0, 0), BuildingBlock: AJUNOK_clean_linker_0, # of connection points: 2
#     Edge 40, Type (0, 0), BuildingBlock: AJUNOK_clean_linker_0, # of connection points: 2
#     Edge 41, Type (0, 0), BuildingBlock: AJUNOK_clean_linker_0, # of connection points: 2
#     Edge 42, Type (0, 0), BuildingBlock: AJUNOK_clean_linker_0, # of connection points: 2
#     Edge 43, Type (0, 0), BuildingBlock: AJUNOK_clean_linker_0, # of connection points: 2
#     Edge 44, Type (0, 0), BuildingBlock: AJUNOK_clean_linker_0, # of connection points: 2
#     Edge 45, Type (0, 0), BuildingBlock: AJUNOK_clean_linker_0, # of connection points: 2
#     Edge 46, Type (0, 0), BuildingBlock: AJUNOK_clean_linker_0, # of connection points: 2
#     Edge 47, Type (0, 0), BuildingBlock: AJUNOK_clean_linker_0, # of connection points: 2
#     Edge 48, Type (0, 0), BuildingBlock: AJUNOK_clean_linker_0, # of connection points: 2
#     Edge 49, Type (0, 0), BuildingBlock: AJUNOK_clean_linker_0, # of connection points: 2
#     Edge 50, Type (0, 0), BuildingBlock: AJUNOK_clean_linker_0, # of connection points: 2
#     Edge 51, Type (0, 0), BuildingBlock: AJUNOK_clean_linker_0, # of connection points: 2
#     Edge 52, Type (0, 0), BuildingBlock: AJUNOK_clean_linker_0, # of connection points: 2
#     Edge 53, Type (0, 0), BuildingBlock: AJUNOK_clean_linker_0, # of connection points: 2
#     Edge 54, Type (0, 0), BuildingBlock: AJUNOK_clean_linker_0, # of connection points: 2
#     Edge 55, Type (0, 0), BuildingBlock: AJUNOK_clean_linker_0, # of connection points: 2
# Relax obj value: 0.171
# Max RMSD: 0.228
# Mean RMSD: 0.186
data_MOF--net-zga--node1-BEQFEK_clean_sbu_0--edge1-AJUNOK_clean_linker_0
_symmetry_space_group_name_H-M    P1
_symmetry_Int_Tables_number       1
_symmetry_cell_setting            triclinic
loop_
_symmetry_equiv_pos_as_xyz
'x, y, z'
_cell_length_a     39.783129
_cell_length_b     66.556561
_cell_length_c     15.143367
_cell_angle_alpha  90.849918
_cell_angle_beta   90.064911
_cell_angle_gamma 101.42218
loop_
_atom_site_label
_atom_site_type_symbol
_atom_site_fract_x
_atom_site_fract_y
_atom_site_fract_z
_atom_type_partial_charge
Co0 Co 0.11909 0.54531 0.03721 0.0
Co1 Co 0.08918 0.5408 0.22881 0.0
C2 C 0.10852 0.58191 0.14075 0.0
O3 O 0.11893 0.57396 0.07164 0.0
O4 O 0.09682 0.57101 0.20662 0.0
C5 C 0.12149 0.55463 0.86221 0.0
O6 O 0.10335 0.56726 0.89618 0.0
C7 C 0.09712 0.54681 0.41904 0.0
C8 C 0.05848 0.52124 0.47094 0.0
C9 C 0.08498 0.53712 0.49636 0.0
N10 N 0.07911 0.53686 0.35094 0.0
N11 N 0.05565 0.52181 0.38241 0.0
C12 C 0.12776 0.56372 0.40861 0.0
H13 H 0.13883 0.5631 0.34163 0.0
H14 H 0.14749 0.56272 0.45936 0.0
H15 H 0.11971 0.57866 0.41714 0.0
C16 C 0.1708 0.5242 0.11799 0.0
N17 N 0.14245 0.53241 0.12173 0.0
N18 N 0.1291 0.52982 0.20132 0.0
C19 C 0.14822 0.51943 0.25001 0.0
C20 C 0.17556 0.51585 0.19954 0.0
C21 C 0.19295 0.5246 0.03812 0.0
H22 H 0.19331 0.5389 0.00104 0.0
H23 H 0.21948 0.52342 0.0567 0.0
H24 H 0.18205 0.51141 0.99428 0.0
O25 O 0.07154 0.5306 0.02559 0.0
O26 O 0.04877 0.52642 0.15862 0.0
H27 H 0.1109 0.50553 0.34441 0.0
H28 H 0.15199 0.49838 0.35546 0.0
C29 C 0.13893 0.51119 0.34015 0.0
H30 H 0.14691 0.52351 0.39027 0.0
H31 H 0.03874 0.51138 0.3432 0.0
O32 O 0.13538 0.54375 0.91406 0.0
C33 C 0.04624 0.52395 0.0751 0.0
Co34 Co 0.14548 0.70966 0.24757 0.0
Co35 Co 0.12041 0.70985 0.0532 0.0
C36 C 0.11865 0.67042 0.14604 0.0
O37 O 0.13221 0.68016 0.21422 0.0
O38 O 0.1115 0.67996 0.07836 0.0
C39 C 0.14023 0.70002 0.41852 0.0
O40 O 0.11409 0.68792 0.37993 0.0
C41 C 0.11757 0.70331 0.86006 0.0
C42 C 0.10792 0.7333 0.81736 0.0
C43 C 0.11563 0.71509 0.78637 0.0
N44 N 0.11232 0.71436 0.93198 0.0
N45 N 0.10567 0.73203 0.90576 0.0
C46 C 0.12892 0.68319 0.86247 0.0
H47 H 0.13997 0.68088 0.92783 0.0
H48 H 0.14822 0.68234 0.81036 0.0
H49 H 0.10643 0.67071 0.84945 0.0
C50 C 0.21032 0.7332 0.16776 0.0
N51 N 0.17729 0.72325 0.16373 0.0
N52 N 0.16696 0.72207 0.08084 0.0
C53 C 0.19333 0.7307 0.02933 0.0
C54 C 0.22156 0.7383 0.08229 0.0
C55 C 0.23006 0.73805 0.25204 0.0
H56 H 0.21304 0.7421 0.3046 0.0
H57 H 0.23937 0.72423 0.27339 0.0
H58 H 0.25236 0.75083 0.24343 0.0
O59 O 0.10535 0.72289 0.25714 0.0
O60 O 0.08849 0.7242 0.11864 0.0
H61 H 0.17616 0.73979 0.90478 0.0
H62 H 0.21869 0.73427 0.90134 0.0
C63 C 0.19284 0.7297 0.93044 0.0
H64 H 0.18284 0.71375 0.90868 0.0
H65 H 0.10165 0.74374 0.94861 0.0
O66 O 0.16224 0.71132 0.37042 0.0
C67 C 0.08551 0.72821 0.20027 0.0
Co68 Co 0.851 0.45133 0.96303 0.0
Co69 Co 0.87744 0.45722 0.76985 0.0
C70 C 0.8707 0.41675 0.85928 0.0
O71 O 0.85851 0.42389 0.92787 0.0
O72 O 0.87894 0.42788 0.7919 0.0
C73 C 0.85282 0.44241 0.13597 0.0
O74 O 0.87712 0.43416 0.10075 0.0
C75 C 0.87289 0.45055 0.57974 0.0
C76 C 0.89997 0.48047 0.52999 0.0
C77 C 0.88074 0.46166 0.50346 0.0
N78 N 0.88618 0.46244 0.64861 0.0
N79 N 0.90294 0.48014 0.61848 0.0
C80 C 0.84969 0.43004 0.58844 0.0
H81 H 0.83657 0.42894 0.65333 0.0
H82 H 0.83036 0.42729 0.53442 0.0
H83 H 0.86527 0.41795 0.58447 0.0
C84 C 0.79316 0.468 0.88889 0.0
N85 N 0.82293 0.46139 0.88101 0.0
N86 N 0.83411 0.46402 0.79937 0.0
C87 C 0.81176 0.47258 0.75285 0.0
C88 C 0.78522 0.4754 0.80789 0.0
C89 C 0.77426 0.46846 0.97395 0.0
H90 H 0.79115 0.47826 0.02266 0.0
H91 H 0.76803 0.45276 0.00095 0.0
H92 H 0.75037 0.47444 0.96511 0.0
O93 O 0.89579 0.47002 0.97391 0.0
O94 O 0.91532 0.47476 0.83773 0.0
H95 H 0.84049 0.48871 0.64731 0.0
H96 H 0.79468 0.48559 0.63402 0.0
C97 C 0.81558 0.47816 0.65744 0.0
H98 H 0.81482 0.4641 0.61702 0.0
H99 H 0.91495 0.49235 0.65863 0.0
O100 O 0.83384 0.45046 0.08531 0.0
C101 C 0.91892 0.47814 0.92049 0.0
Co102 Co 0.9212 0.3012 0.97174 0.0
Co103 Co 0.8941 0.2936 0.77726 0.0
C104 C 0.90331 0.33509 0.86435 0.0
O105 O 0.9158 0.32875 0.93362 0.0
O106 O 0.89397 0.32315 0.79863 0.0
C107 C 0.91344 0.30952 0.14235 0.0
O108 O 0.88958 0.3166 0.09967 0.0
C109 C 0.89861 0.29965 0.58695 0.0
C110 C 0.86585 0.27127 0.53416 0.0
C111 C 0.88722 0.28932 0.50947 0.0
N112 N 0.88525 0.28804 0.65502 0.0
N113 N 0.86548 0.27115 0.62312 0.0
C114 C 0.92155 0.3203 0.59653 0.0
H115 H 0.90549 0.33215 0.59821 0.0
H116 H 0.93627 0.32137 0.65929 0.0
H117 H 0.93935 0.32345 0.53984 0.0
C118 C 0.97517 0.27986 0.90067 0.0
N119 N 0.94761 0.28865 0.89144 0.0
N120 N 0.9368 0.28634 0.80893 0.0
C121 C 0.95774 0.2765 0.76265 0.0
C122 C 0.98229 0.27165 0.81936 0.0
C123 C 0.9926 0.27811 0.98696 0.0
H124 H 0.9736 0.27617 0.04125 0.0
H125 H 0.01158 0.29248 1e-05 0.0
H126 H 0.00617 0.26506 0.98583 0.0
O127 O 0.87553 0.28403 0.9804 0.0
O128 O 0.85532 0.27695 0.84494 0.0
H129 H 0.93106 0.26221 0.64795 0.0
H130 H 0.97726 0.26635 0.639 0.0
C131 C 0.9555 0.27278 0.66479 0.0
H132 H 0.95623 0.28752 0.63147 0.0
H133 H 0.85212 0.25943 0.66206 0.0
O134 O 0.93599 0.30276 0.09739 0.0
C135 C 0.85204 0.27528 0.92837 0.0
Co136 Co 0.1166 0.04471 0.55469 0.0
Co137 Co 0.08657 0.03934 0.74614 0.0
C138 C 0.10883 0.08102 0.66242 0.0
O139 O 0.11932 0.07331 0.59288 0.0
O140 O 0.09555 0.06965 0.72541 0.0
C141 C 0.11878 0.05543 0.38129 0.0
O142 O 0.10137 0.06805 0.4187 0.0
C143 C 0.09557 0.04604 0.93592 0.0
C144 C 0.05573 0.02166 0.99155 0.0
C145 C 0.08266 0.03748 0.01475 0.0
N146 N 0.07722 0.03574 0.8691 0.0
N147 N 0.05317 0.02133 0.90275 0.0
C148 C 0.12727 0.0621 0.92345 0.0
H149 H 0.1384 0.06048 0.85717 0.0
H150 H 0.14652 0.06107 0.97549 0.0
H151 H 0.12062 0.07746 0.92853 0.0
C152 C 0.16697 0.02215 0.63162 0.0
N153 N 0.1389 0.03057 0.63671 0.0
N154 N 0.12541 0.02751 0.71602 0.0
C155 C 0.14402 0.01645 0.7629 0.0
C156 C 0.17112 0.01291 0.71148 0.0
C157 C 0.18903 0.0229 0.55141 0.0
H158 H 0.17275 0.01738 0.49302 0.0
H159 H 0.20161 0.03905 0.53937 0.0
H160 H 0.20888 0.01344 0.55913 0.0
O161 O 0.06834 0.03121 0.54352 0.0
O162 O 0.04544 0.02586 0.67608 0.0
H163 H 0.10879 0.00434 0.86501 0.0
H164 H 0.15009 0.99732 0.87422 0.0
C165 C 0.13671 0.00978 0.8561 0.0
H166 H 0.14577 0.02291 0.90159 0.0
H167 H 0.03573 0.01085 0.86503 0.0
O168 O 0.13212 0.04371 0.43037 0.0
C169 C 0.04285 0.02439 0.59219 0.0
Co170 Co 0.14771 0.20942 0.76295 0.0
Co171 Co 0.12221 0.20831 0.56684 0.0
C172 C 0.12098 0.16971 0.66923 0.0
O173 O 0.13241 0.17976 0.73871 0.0
O174 O 0.11614 0.17877 0.59802 0.0
C175 C 0.16601 0.19916 0.93777 0.0
O176 O 0.16463 0.1806 0.90558 0.0
C177 C 0.12578 0.19994 0.37607 0.0
C178 C 0.10749 0.22639 0.32087 0.0
C179 C 0.12229 0.20989 0.29747 0.0
N180 N 0.1151 0.21067 0.44277 0.0
N181 N 0.1034 0.22616 0.40904 0.0
C182 C 0.13747 0.18016 0.38846 0.0
H183 H 0.11892 0.17019 0.43126 0.0
H184 H 0.16276 0.18315 0.42239 0.0
H185 H 0.13902 0.17195 0.32477 0.0
C186 C 0.21372 0.22867 0.67831 0.0
N187 N 0.1797 0.22101 0.67647 0.0
N188 N 0.16818 0.22183 0.59527 0.0
C189 C 0.19437 0.23071 0.54368 0.0
C190 C 0.22419 0.2348 0.5937 0.0
C191 C 0.23578 0.22914 0.75859 0.0
H192 H 0.22592 0.2157 0.80029 0.0
H193 H 0.26283 0.22929 0.74019 0.0
H194 H 0.2348 0.24322 0.79784 0.0
O195 O 0.10861 0.22358 0.76556 0.0
O196 O 0.08788 0.22138 0.62912 0.0
H197 H 0.21286 0.24874 0.42943 0.0
H198 H 0.18931 0.22329 0.40592 0.0
C199 C 0.19074 0.23684 0.44998 0.0
H200 H 0.16717 0.24312 0.44252 0.0
H201 H 0.09431 0.2372 0.44667 0.0
O202 O 0.1643 0.21373 0.8858 0.0
C203 C 0.08675 0.22697 0.70958 0.0
Co204 Co 0.85001 0.95025 0.46951 0.0
Co205 Co 0.87697 0.95826 0.27703 0.0
C206 C 0.87175 0.91717 0.36225 0.0
O207 O 0.85883 0.92322 0.43209 0.0
O208 O 0.87977 0.92909 0.29737 0.0
C209 C 0.8569 0.9418 0.63914 0.0
O210 O 0.88153 0.9353 0.59649 0.0
C211 C 0.8683 0.9524 0.08687 0.0
C212 C 0.9082 0.97721 0.03444 0.0
C213 C 0.88193 0.9612 0.00955 0.0
N214 N 0.88524 0.96298 0.15503 0.0
N215 N 0.90909 0.9778 0.12336 0.0
C216 C 0.84061 0.93375 0.09591 0.0
H217 H 0.85025 0.92013 0.07165 0.0
H218 H 0.83262 0.93152 0.16585 0.0
H219 H 0.8182 0.93513 0.05447 0.0
C220 C 0.79079 0.96616 0.39518 0.0
N221 N 0.82126 0.9603 0.388 0.0
N222 N 0.83332 0.96423 0.30777 0.0
C223 C 0.81121 0.97312 0.26206 0.0
C224 C 0.78334 0.97439 0.31518 0.0
C225 C 0.76976 0.96412 0.4775 0.0
H226 H 0.77084 0.94938 0.50963 0.0
H227 H 0.74273 0.96499 0.46303 0.0
H228 H 0.78079 0.97668 0.52436 0.0
O229 O 0.89427 0.96969 0.47999 0.0
O230 O 0.91425 0.97618 0.34514 0.0
H231 H 0.80346 0.99478 0.16246 0.0
H232 H 0.81089 0.97063 0.12118 0.0
C233 C 0.81834 0.98258 0.17315 0.0
H234 H 0.84595 0.98939 0.16682 0.0
H235 H 0.92598 0.98828 0.16241 0.0
O236 O 0.83447 0.94849 0.59413 0.0
C237 C 0.91727 0.97882 0.42843 0.0
Co238 Co 0.92127 0.80184 0.47533 0.0
Co239 Co 0.89164 0.79347 0.28257 0.0
C240 C 0.90453 0.83569 0.36763 0.0
O241 O 0.91649 0.8297 0.43849 0.0
O242 O 0.89462 0.82324 0.30396 0.0
C243 C 0.92426 0.81334 0.65166 0.0
O244 O 0.90531 0.82543 0.61814 0.0
C245 C 0.90262 0.79998 0.09486 0.0
C246 C 0.86413 0.77543 0.03222 0.0
C247 C 0.89075 0.79164 0.01371 0.0
N248 N 0.88392 0.78924 0.15859 0.0
N249 N 0.86076 0.77465 0.1208 0.0
C250 C 0.93363 0.8164 0.11216 0.0
H251 H 0.94375 0.81507 0.17966 0.0
H252 H 0.9538 0.81547 0.06251 0.0
H253 H 0.92658 0.83161 0.10688 0.0
C254 C 0.9764 0.78241 0.39695 0.0
N255 N 0.94682 0.78937 0.39238 0.0
N256 N 0.9329 0.78476 0.31392 0.0
C257 C 0.95252 0.77412 0.26729 0.0
C258 C 0.98121 0.77269 0.31721 0.0
C259 C 0.99939 0.78506 0.47616 0.0
H260 H 0.99103 0.77198 0.52094 0.0
H261 H 0.99756 0.7994 0.51247 0.0
H262 H 0.02638 0.78534 0.45669 0.0
O263 O 0.87486 0.78489 0.48634 0.0
O264 O 0.85213 0.77881 0.35198 0.0
H265 H 0.91375 0.75733 0.18091 0.0
H266 H 0.95491 0.75011 0.17087 0.0
C267 C 0.94182 0.7632 0.18149 0.0
H268 H 0.94851 0.77397 0.12624 0.0
H269 H 0.84318 0.76392 0.15544 0.0
O270 O 0.93808 0.80226 0.59923 0.0
C271 C 0.85021 0.77695 0.4356 0.0
Co272 Co 0.6167 0.54447 0.54508 0.0
Co273 Co 0.58756 0.53905 0.737 0.0
C274 C 0.60843 0.58074 0.65303 0.0
O275 O 0.61875 0.57305 0.58323 0.0
O276 O 0.59568 0.56937 0.71655 0.0
C277 C 0.61771 0.55487 0.37231 0.0
O278 O 0.5992 0.56683 0.41016 0.0
C279 C 0.59571 0.54563 0.92711 0.0
C280 C 0.5574 0.52019 0.98118 0.0
C281 C 0.58321 0.53656 0.00532 0.0
N282 N 0.57822 0.53506 0.85965 0.0
N283 N 0.55506 0.52001 0.89236 0.0
C284 C 0.62638 0.56249 0.91583 0.0
H285 H 0.63797 0.56135 0.84977 0.0
H286 H 0.6457 0.56194 0.96824 0.0
H287 H 0.61834 0.57746 0.92127 0.0
C288 C 0.66801 0.52242 0.6203 0.0
N289 N 0.63977 0.53065 0.62643 0.0
N290 N 0.62688 0.52771 0.70639 0.0
C291 C 0.64617 0.517 0.75293 0.0
C292 C 0.673 0.51349 0.70033 0.0
C293 C 0.6893 0.52294 0.53875 0.0
H294 H 0.67246 0.51733 0.48145 0.0
H295 H 0.70187 0.53903 0.52565 0.0
H296 H 0.70913 0.51344 0.54545 0.0
O297 O 0.56869 0.53045 0.53426 0.0
O298 O 0.54654 0.52515 0.66758 0.0
H299 H 0.61218 0.50444 0.85678 0.0
H300 H 0.65465 0.49909 0.86663 0.0
C301 C 0.63981 0.51074 0.84699 0.0
H302 H 0.64772 0.52432 0.89083 0.0
H303 H 0.53844 0.50923 0.85397 0.0
O304 O 0.63224 0.54365 0.421 0.0
C305 C 0.54357 0.52347 0.58384 0.0
Co306 Co 0.64614 0.7094 0.75794 0.0
Co307 Co 0.62101 0.70778 0.56058 0.0
C308 C 0.6201 0.66943 0.65989 0.0
O309 O 0.63146 0.67963 0.72906 0.0
O310 O 0.61501 0.67834 0.58874 0.0
C311 C 0.66026 0.69681 0.93089 0.0
O312 O 0.65555 0.67861 0.89303 0.0
C313 C 0.62249 0.6991 0.36995 0.0
C314 C 0.60473 0.72584 0.3155 0.0
C315 C 0.61804 0.70883 0.29146 0.0
N316 N 0.61298 0.71017 0.43713 0.0
N317 N 0.60153 0.72582 0.40395 0.0
C318 C 0.63976 0.68127 0.3824 0.0
H319 H 0.65322 0.68255 0.44704 0.0
H320 H 0.65832 0.68029 0.3286 0.0
H321 H 0.62002 0.66693 0.38192 0.0
C322 C 0.71053 0.73239 0.67626 0.0
N323 N 0.67762 0.72229 0.67205 0.0
N324 N 0.66691 0.72167 0.58942 0.0
C325 C 0.69281 0.7313 0.53854 0.0
C326 C 0.72127 0.73843 0.59158 0.0
C327 C 0.73068 0.73655 0.76024 0.0
H328 H 0.71442 0.74136 0.81285 0.0
H329 H 0.73825 0.72221 0.7817 0.0
H330 H 0.75404 0.7486 0.75151 0.0
O331 O 0.60649 0.72296 0.76179 0.0
O332 O 0.58633 0.72047 0.62454 0.0
H333 H 0.66994 0.73966 0.41998 0.0
H334 H 0.71529 0.7407 0.41033 0.0
C335 C 0.69131 0.73227 0.43983 0.0
H336 H 0.68711 0.71655 0.41205 0.0
H337 H 0.5935 0.73717 0.44206 0.0
O338 O 0.66285 0.71251 0.88242 0.0
C339 C 0.58467 0.72602 0.70499 0.0
Co340 Co 0.34891 0.45026 0.46828 0.0
Co341 Co 0.37624 0.45625 0.27563 0.0
C342 C 0.36861 0.41562 0.36561 0.0
O343 O 0.356 0.42277 0.43347 0.0
O344 O 0.37751 0.42683 0.29884 0.0
C345 C 0.35049 0.44052 0.64044 0.0
O346 O 0.37464 0.4324 0.60369 0.0
C347 C 0.36899 0.44884 0.0868 0.0
C348 C 0.40142 0.47662 0.03158 0.0
C349 C 0.37887 0.45866 0.00835 0.0
N350 N 0.38472 0.46055 0.15349 0.0
N351 N 0.40448 0.477 0.12019 0.0
C352 C 0.34239 0.4298 0.09961 0.0
H353 H 0.32861 0.43085 0.16268 0.0
H354 H 0.32388 0.4272 0.04373 0.0
H355 H 0.35525 0.41649 0.10357 0.0
C356 C 0.29121 0.46685 0.39177 0.0
N357 N 0.32111 0.46034 0.38528 0.0
N358 N 0.33301 0.46331 0.30443 0.0
C359 C 0.31126 0.47222 0.25737 0.0
C360 C 0.28392 0.4746 0.31067 0.0
C361 C 0.27036 0.46564 0.47432 0.0
H362 H 0.27017 0.4508 0.50694 0.0
H363 H 0.24368 0.46731 0.46009 0.0
H364 H 0.28245 0.47805 0.52069 0.0
O365 O 0.39389 0.4689 0.47876 0.0
O366 O 0.41403 0.47397 0.34316 0.0
H367 H 0.34553 0.48821 0.16109 0.0
H368 H 0.3022 0.49183 0.15037 0.0
C369 C 0.31829 0.48053 0.16642 0.0
H370 H 0.31276 0.46777 0.11743 0.0
H371 H 0.41897 0.48884 0.1581 0.0
O372 O 0.33203 0.44935 0.59139 0.0
C373 C 0.4172 0.47722 0.42613 0.0
Co374 Co 0.42299 0.30158 0.48271 0.0
Co375 Co 0.39396 0.29228 0.29035 0.0
C376 C 0.40317 0.33449 0.37691 0.0
O377 O 0.41656 0.32897 0.44667 0.0
O378 O 0.39379 0.32197 0.31296 0.0
C379 C 0.42598 0.31193 0.66099 0.0
O380 O 0.40637 0.32404 0.63114 0.0
C381 C 0.40347 0.2987 0.10221 0.0
C382 C 0.36924 0.27177 0.04217 0.0
C383 C 0.39358 0.28905 0.02207 0.0
N384 N 0.38619 0.28753 0.16689 0.0
N385 N 0.36541 0.27158 0.13062 0.0
C386 C 0.43117 0.31717 0.11818 0.0
H387 H 0.44212 0.31687 0.18547 0.0
H388 H 0.45173 0.31797 0.06809 0.0
H389 H 0.42005 0.33114 0.11293 0.0
C390 C 0.47907 0.28286 0.40754 0.0
N391 N 0.44945 0.28968 0.40042 0.0
N392 N 0.43629 0.28492 0.32135 0.0
C393 C 0.45648 0.2743 0.27666 0.0
C394 C 0.48452 0.2728 0.32905 0.0
C395 C 0.50159 0.28628 0.48767 0.0
H396 H 0.50166 0.30173 0.51641 0.0
H397 H 0.5282 0.28479 0.4715 0.0
H398 H 0.49107 0.27482 0.53808 0.0
O399 O 0.37691 0.28425 0.49348 0.0
O400 O 0.35617 0.27565 0.35899 0.0
H401 H 0.4608 0.25082 0.17882 0.0
H402 H 0.45351 0.27468 0.13566 0.0
C403 C 0.44699 0.26357 0.18983 0.0
H404 H 0.41913 0.25714 0.1879 0.0
H405 H 0.3495 0.26021 0.16636 0.0
O406 O 0.44029 0.30179 0.6057 0.0
C407 C 0.3534 0.27475 0.44277 0.0
Co408 Co 0.61882 0.04439 0.03548 0.0
Co409 Co 0.58892 0.0406 0.22712 0.0
C410 C 0.60955 0.08148 0.13707 0.0
O411 O 0.62017 0.07323 0.06914 0.0
O412 O 0.59712 0.07074 0.20277 0.0
C413 C 0.61857 0.05362 0.86301 0.0
O414 O 0.598 0.06429 0.90091 0.0
C415 C 0.59702 0.04752 0.41684 0.0
C416 C 0.55813 0.02238 0.47105 0.0
C417 C 0.58457 0.0384 0.49508 0.0
N418 N 0.57899 0.03722 0.34959 0.0
N419 N 0.55541 0.02241 0.38237 0.0
C420 C 0.62797 0.06414 0.4048 0.0
H421 H 0.64065 0.06191 0.34116 0.0
H422 H 0.64639 0.06452 0.4602 0.0
H423 H 0.61979 0.07913 0.40272 0.0
C424 C 0.67006 0.02296 0.11803 0.0
N425 N 0.64185 0.03134 0.12047 0.0
N426 N 0.62831 0.02905 0.19996 0.0
C427 C 0.64703 0.01863 0.2497 0.0
C428 C 0.67445 0.0148 0.20027 0.0
C429 C 0.69257 0.02316 0.03896 0.0
H430 H 0.69175 0.0368 0.99841 0.0
H431 H 0.71939 0.02308 0.05908 0.0
H432 H 0.68298 0.00923 0.99805 0.0
O433 O 0.57078 0.03023 0.02524 0.0
O434 O 0.54816 0.02644 0.15855 0.0
H435 H 0.64992 0.99771 0.35622 0.0
H436 H 0.64495 0.02296 0.38974 0.0
C437 C 0.63716 0.01058 0.33981 0.0
H438 H 0.60906 0.00504 0.34306 0.0
H439 H 0.53846 0.01179 0.34406 0.0
O440 O 0.63453 0.04308 0.91144 0.0
C441 C 0.54542 0.02396 0.07513 0.0
Co442 Co 0.64779 0.2079 0.2533 0.0
Co443 Co 0.62136 0.21063 0.06088 0.0
C444 C 0.62035 0.17004 0.14925 0.0
O445 O 0.63365 0.17888 0.21935 0.0
O446 O 0.61367 0.1804 0.08358 0.0
C447 C 0.63808 0.19899 0.42168 0.0
O448 O 0.61136 0.18902 0.37739 0.0
C449 C 0.62777 0.20548 0.86991 0.0
C450 C 0.59404 0.22533 0.81849 0.0
C451 C 0.61628 0.21278 0.79298 0.0
N452 N 0.6136 0.21373 0.93853 0.0
N453 N 0.59337 0.22553 0.90737 0.0
C454 C 0.65131 0.19063 0.87795 0.0
H455 H 0.65814 0.18883 0.94803 0.0
H456 H 0.67497 0.19593 0.83926 0.0
H457 H 0.63853 0.17559 0.84957 0.0
C458 C 0.71399 0.22814 0.16761 0.0
N459 N 0.67981 0.22091 0.16845 0.0
N460 N 0.66724 0.22344 0.08974 0.0
C461 C 0.6925 0.2334 0.03835 0.0
C462 C 0.72316 0.23594 0.08429 0.0
C463 C 0.73737 0.22671 0.24356 0.0
H464 H 0.72557 0.21421 0.28816 0.0
H465 H 0.76253 0.22409 0.21953 0.0
H466 H 0.7418 0.2414 0.28148 0.0
O467 O 0.60812 0.22196 0.26188 0.0
O468 O 0.58906 0.22434 0.126 0.0
H469 H 0.70688 0.25695 0.94137 0.0
H470 H 0.68884 0.2321 0.89703 0.0
C471 C 0.68697 0.24296 0.95188 0.0
H472 H 0.66138 0.24715 0.95018 0.0
H473 H 0.57929 0.23384 0.94678 0.0
O474 O 0.66324 0.20892 0.37818 0.0
C475 C 0.58739 0.22771 0.20852 0.0
Co476 Co 0.35109 0.95027 0.9671 0.0
Co477 Co 0.37578 0.9582 0.77275 0.0
C478 C 0.37212 0.91725 0.85722 0.0
O479 O 0.35971 0.92328 0.9279 0.0
O480 O 0.37939 0.92916 0.79195 0.0
C481 C 0.36113 0.9427 0.13489 0.0
O482 O 0.38468 0.93577 0.08962 0.0
C483 C 0.37066 0.95307 0.58033 0.0
C484 C 0.40533 0.98122 0.53577 0.0
C485 C 0.38358 0.96357 0.50572 0.0
N486 N 0.38383 0.96414 0.65161 0.0
N487 N 0.40452 0.98095 0.62455 0.0
C488 C 0.34725 0.93252 0.58395 0.0
H489 H 0.33997 0.92844 0.65302 0.0
H490 H 0.32372 0.93256 0.54474 0.0
H491 H 0.36025 0.92078 0.55413 0.0
C492 C 0.29134 0.9665 0.89836 0.0
N493 N 0.32144 0.96034 0.88833 0.0
N494 N 0.33226 0.96385 0.80673 0.0
C495 C 0.30953 0.97256 0.76266 0.0
C496 C 0.28294 0.97455 0.81901 0.0
C497 C 0.27271 0.96618 0.98413 0.0
H498 H 0.28718 0.97824 0.02875 0.0
H499 H 0.27164 0.95118 0.01621 0.0
H500 H 0.2464 0.96903 0.97463 0.0
O501 O 0.39529 0.96974 0.9753 0.0
O502 O 0.41349 0.97604 0.83906 0.0
H503 H 0.33874 0.9893 0.65915 0.0
H504 H 0.293 0.9874 0.64794 0.0
C505 C 0.31333 0.97919 0.66851 0.0
H506 H 0.31151 0.96549 0.62515 0.0
H507 H 0.41812 0.99224 0.66672 0.0
O508 O 0.33724 0.94866 0.09277 0.0
C509 C 0.4176 0.97877 0.92193 0.0
Co510 Co 0.42063 0.80116 0.96495 0.0
Co511 Co 0.3926 0.79407 0.77089 0.0
C512 C 0.40497 0.83575 0.85754 0.0
O513 O 0.41624 0.82921 0.9282 0.0
O514 O 0.39538 0.82376 0.79215 0.0
C515 C 0.42096 0.81121 0.14032 0.0
O516 O 0.40068 0.82253 0.10688 0.0
C517 C 0.39767 0.79992 0.58011 0.0
C518 C 0.36604 0.77121 0.52722 0.0
C519 C 0.38752 0.78925 0.50239 0.0
N520 N 0.3833 0.78863 0.64817 0.0
N521 N 0.36399 0.77161 0.61605 0.0
C522 C 0.42438 0.81912 0.5897 0.0
H523 H 0.43442 0.82112 0.65826 0.0
H524 H 0.44583 0.81871 0.54331 0.0
H525 H 0.41294 0.83241 0.57215 0.0
C526 C 0.47283 0.77895 0.89302 0.0
N527 N 0.44563 0.78804 0.88365 0.0
N528 N 0.43425 0.78541 0.80177 0.0
C529 C 0.45443 0.77492 0.75593 0.0
C530 C 0.47918 0.77017 0.81238 0.0
C531 C 0.4904 0.77744 0.97935 0.0
H532 H 0.47093 0.77256 0.03118 0.0
H533 H 0.50517 0.79282 0.99878 0.0
H534 H 0.50797 0.76643 0.97556 0.0
O535 O 0.37471 0.78452 0.97696 0.0
O536 O 0.35291 0.77928 0.84161 0.0
H537 H 0.42616 0.76028 0.64416 0.0
H538 H 0.47212 0.76315 0.63318 0.0
C539 C 0.45125 0.77041 0.65872 0.0
H540 H 0.45284 0.78492 0.62315 0.0
H541 H 0.35047 0.75992 0.65489 0.0
O542 O 0.43737 0.80161 0.08787 0.0
C543 C 0.35039 0.77693 0.92497 0.0
C544 C 0.23555 0.47812 0.21028 0.0
C545 C 0.25532 0.48472 0.28628 0.0
C546 C 0.21005 0.48842 0.1816 0.0
C547 C 0.20344 0.5056 0.22823 0.0
H548 H 0.24002 0.46496 0.17246 0.0
H549 H 0.19518 0.48278 0.12321 0.0
S550 S 0.24942 0.52976 0.42785 0.0
N551 N 0.26757 0.51003 0.40509 0.0
N552 N 0.21944 0.52926 0.35185 0.0
C553 C 0.22313 0.51241 0.30395 0.0
C554 C 0.2491 0.50197 0.33296 0.0
C555 C 0.04459 0.73675 0.31415 0.0
C556 C 0.05951 0.73997 0.22986 0.0
C557 C 0.01988 0.74775 0.34338 0.0
C558 C 0.00968 0.76257 0.28989 0.0
H559 H 0.05152 0.72533 0.3571 0.0
H560 H 0.00808 0.74426 0.40719 0.0
S561 S 0.04438 0.77881 0.06925 0.0
N562 N 0.06411 0.76016 0.09638 0.0
N563 N 0.01887 0.78137 0.15283 0.0
C564 C 0.02555 0.76658 0.20734 0.0
C565 C 0.05012 0.75514 0.17688 0.0
C566 C 0.28752 0.77323 0.94546 0.0
C567 C 0.31798 0.76659 0.9648 0.0
C568 C 0.25696 0.76489 0.98872 0.0
C569 C 0.25549 0.74909 0.05037 0.0
H570 H 0.28748 0.78525 0.89795 0.0
H571 H 0.23396 0.77044 0.97185 0.0
S572 S 0.3287 0.72668 0.1247 0.0
N573 N 0.34559 0.74422 0.05277 0.0
N574 N 0.28744 0.72735 0.12907 0.0
C575 C 0.28595 0.74253 0.07112 0.0
C576 C 0.31734 0.75151 0.02915 0.0
C577 C 0.95523 0.49337 0.04938 0.0
C578 C 0.95105 0.49084 0.95706 0.0
C579 C 0.98582 0.50423 0.08682 0.0
C580 C 0.01363 0.51306 0.03371 0.0
H581 H 0.93486 0.48668 0.09373 0.0
H582 H 0.98771 0.50548 0.15813 0.0
S583 S 0.01556 0.51177 0.78777 0.0
N584 N 0.97715 0.49872 0.8132 0.0
N585 N 0.03455 0.51913 0.88301 0.0
C586 C 0.00962 0.51101 0.94102 0.0
C587 C 0.97841 0.49994 0.90291 0.0
C588 C 0.72284 0.47429 0.78215 0.0
C589 C 0.75662 0.48557 0.78531 0.0
C590 C 0.69584 0.48334 0.75328 0.0
C591 C 0.70187 0.50394 0.72719 0.0
H592 H 0.71741 0.4583 0.80045 0.0
H593 H 0.67009 0.47419 0.75101 0.0
S594 S 0.78555 0.54015 0.72758 0.0
N595 N 0.79458 0.51843 0.76269 0.0
N596 N 0.74377 0.53547 0.70901 0.0
C597 C 0.73546 0.51539 0.73113 0.0
C598 C 0.76287 0.5062 0.76038 0.0
C599 C 0.06838 0.25595 0.79007 0.0
C600 C 0.05973 0.23774 0.73947 0.0
C601 C 0.04311 0.26666 0.81791 0.0
C602 C 0.00836 0.25922 0.79763 0.0
H603 H 0.09496 0.26223 0.80617 0.0
H604 H 0.05088 0.28107 0.85355 0.0
S605 S 0.97213 0.2105 0.67931 0.0
N606 N 0.01403 0.21187 0.67656 0.0
N607 N 0.9663 0.23122 0.73367 0.0
C608 C 0.9993 0.24038 0.75168 0.0
C609 C 0.02507 0.22985 0.72113 0.0
C610 C 0.77965 0.26026 0.09209 0.0
C611 C 0.75755 0.24423 0.04809 0.0
C612 C 0.8104 0.26995 0.053 0.0
C613 C 0.81992 0.26408 0.96808 0.0
H614 H 0.77262 0.26583 0.15565 0.0
H615 H 0.82634 0.28256 0.08873 0.0
S616 S 0.77281 0.22102 0.83101 0.0
N617 N 0.74892 0.22127 0.91997 0.0
N618 N 0.80602 0.24009 0.84482 0.0
C619 C 0.79855 0.24758 0.92484 0.0
C620 C 0.76757 0.23747 0.96539 0.0
C621 C 0.22061 0.97337 0.79174 0.0
C622 C 0.25419 0.98482 0.79913 0.0
C623 C 0.19375 0.98251 0.7625 0.0
C624 C 0.19977 0.00334 0.73984 0.0
H625 H 0.21529 0.95717 0.80653 0.0
H626 H 0.16818 0.97323 0.75676 0.0
S627 S 0.28282 0.04004 0.75231 0.0
N628 N 0.29181 0.0181 0.78481 0.0
N629 N 0.24132 0.03526 0.72989 0.0
C630 C 0.2331 0.01497 0.74844 0.0
C631 C 0.26033 0.00572 0.77838 0.0
C632 C 0.27869 0.26098 0.60044 0.0
C633 C 0.25906 0.24329 0.56099 0.0
C634 C 0.30967 0.27079 0.56262 0.0
C635 C 0.32173 0.26336 0.48348 0.0
H636 H 0.26946 0.2677 0.65892 0.0
H637 H 0.32366 0.28469 0.59396 0.0
S638 S 0.28225 0.21579 0.36239 0.0
N639 N 0.25583 0.21727 0.4452 0.0
N640 N 0.31338 0.23618 0.3722 0.0
C641 C 0.30304 0.24519 0.44568 0.0
C642 C 0.27189 0.23501 0.48509 0.0
C643 C 0.95295 0.99265 0.56048 0.0
C644 C 0.94864 0.99176 0.46786 0.0
C645 C 0.98306 0.00355 0.60019 0.0
C646 C 0.01023 0.01405 0.5491 0.0
H647 H 0.93316 0.98452 0.6032 0.0
H648 H 0.98523 0.00337 0.67147 0.0
S649 S 0.01111 0.01789 0.3039 0.0
N650 N 0.97361 0.00328 0.32635 0.0
N651 N 0.03007 0.02381 0.40038 0.0
C652 C 0.0059 0.01382 0.45636 0.0
C653 C 0.97519 0.00269 0.41596 0.0
C654 C 0.70964 0.98765 0.18389 0.0
C655 C 0.70222 0.00461 0.23065 0.0
C656 C 0.73519 0.97751 0.21363 0.0
C657 C 0.75411 0.98399 0.29108 0.0
H658 H 0.69546 0.9821 0.12438 0.0
H659 H 0.74045 0.96461 0.1753 0.0
S660 S 0.746 0.02844 0.43376 0.0
N661 N 0.71674 0.02799 0.35591 0.0
N662 N 0.76469 0.0089 0.4116 0.0
C663 C 0.74701 0.00095 0.33814 0.0
C664 C 0.7211 0.0113 0.30784 0.0
C665 C 0.75765 0.76647 0.50706 0.0
C666 C 0.75535 0.74919 0.56091 0.0
C667 C 0.78826 0.77496 0.46432 0.0
C668 C 0.81792 0.76692 0.47668 0.0
H669 H 0.73521 0.77303 0.49551 0.0
H670 H 0.78886 0.78805 0.42225 0.0
S671 S 0.82644 0.72302 0.61665 0.0
N672 N 0.78574 0.72477 0.62621 0.0
N673 N 0.84408 0.74175 0.55088 0.0
C674 C 0.81658 0.7504 0.53402 0.0
C675 C 0.78511 0.74133 0.57536 0.0
C676 C 0.54032 0.76594 0.80823 0.0
C677 C 0.50552 0.75794 0.79063 0.0
C678 C 0.56582 0.75535 0.78109 0.0
C679 C 0.55735 0.73668 0.73366 0.0
H680 H 0.54792 0.78067 0.84145 0.0
H681 H 0.59241 0.76205 0.79532 0.0
S682 S 0.46991 0.70812 0.68012 0.0
N683 N 0.46375 0.72912 0.73179 0.0
N684 N 0.51189 0.70992 0.67583 0.0
C685 C 0.5227 0.72829 0.71755 0.0
C686 C 0.49671 0.73873 0.74749 0.0
C687 C 0.48405 0.50237 0.59457 0.0
C688 C 0.51089 0.51276 0.54213 0.0
C689 C 0.45377 0.4913 0.55635 0.0
C690 C 0.44895 0.4901 0.46392 0.0
H691 H 0.48658 0.50247 0.66582 0.0
H692 H 0.43421 0.48332 0.60008 0.0
S693 S 0.51045 0.51572 0.29669 0.0
N694 N 0.52992 0.52199 0.39229 0.0
N695 N 0.47314 0.50113 0.32103 0.0
C696 C 0.47522 0.50084 0.41063 0.0
C697 C 0.5061 0.51216 0.44952 0.0
C698 C 0.52837 0.2659 0.2213 0.0
C699 C 0.51276 0.26221 0.30439 0.0
C700 C 0.55221 0.25455 0.19064 0.0
C701 C 0.56199 0.23936 0.24278 0.0
H702 H 0.52159 0.27745 0.17879 0.0
H703 H 0.56324 0.2578 0.12577 0.0
S704 S 0.52887 0.22374 0.46557 0.0
N705 N 0.50833 0.24199 0.43773 0.0
N706 N 0.55462 0.22137 0.38224 0.0
C707 C 0.54734 0.23588 0.32714 0.0
C708 C 0.52243 0.24717 0.35755 0.0
C709 C 0.45464 0.9931 0.05078 0.0
C710 C 0.4496 0.99159 0.95848 0.0
C711 C 0.4854 0.00378 0.08789 0.0
C712 C 0.51248 0.01346 0.03439 0.0
H713 H 0.43488 0.98568 0.09526 0.0
H714 H 0.48807 0.00414 0.15914 0.0
S715 S 0.51168 0.0154 0.78878 0.0
N716 N 0.47388 0.00158 0.8145 0.0
N717 N 0.53157 0.02174 0.88378 0.0
C718 C 0.50749 0.01258 0.94189 0.0
C719 C 0.47612 0.00166 0.90412 0.0
C720 C 0.10466 0.56173 0.62058 0.0
C721 C 0.09843 0.54155 0.58704 0.0
C722 C 0.1143 0.56599 0.70895 0.0
C723 C 0.11864 0.55026 0.76639 0.0
H724 H 0.1005 0.57421 0.57953 0.0
H725 H 0.11719 0.58163 0.73336 0.0
S726 S 0.1075 0.49498 0.70881 0.0
N727 N 0.09871 0.50579 0.61637 0.0
N728 N 0.11738 0.51382 0.78232 0.0
C729 C 0.11407 0.53013 0.73248 0.0
C730 C 0.10367 0.52576 0.64287 0.0
C731 C 0.11073 0.69205 0.6542 0.0
C732 C 0.12511 0.71081 0.69511 0.0
C733 C 0.11763 0.68824 0.5657 0.0
C734 C 0.13931 0.70303 0.51519 0.0
H735 H 0.09301 0.68053 0.68978 0.0
H736 H 0.10487 0.67385 0.53582 0.0
S737 S 0.18637 0.75376 0.5959 0.0
N738 N 0.16416 0.74368 0.68206 0.0
N739 N 0.17729 0.73656 0.51521 0.0
C740 C 0.15537 0.72144 0.55702 0.0
C741 C 0.14807 0.72536 0.64707 0.0
C742 C 0.87411 0.43716 0.37596 0.0
C743 C 0.86896 0.45576 0.41286 0.0
C744 C 0.86659 0.43233 0.28692 0.0
C745 C 0.85317 0.4458 0.23238 0.0
H746 H 0.88554 0.42673 0.41495 0.0
H747 H 0.87258 0.41831 0.25973 0.0
S748 S 0.83154 0.49543 0.30113 0.0
N749 N 0.84729 0.48699 0.39117 0.0
N750 N 0.83257 0.4778 0.22378 0.0
C751 C 0.84589 0.46387 0.27018 0.0
C752 C 0.8541 0.46892 0.36048 0.0
C753 C 0.87688 0.30612 0.27651 0.0
C754 C 0.90915 0.30591 0.23828 0.0
C755 C 0.8702 0.30092 0.3647 0.0
C756 C 0.89568 0.29573 0.41846 0.0
H757 H 0.85607 0.30971 0.23746 0.0
H758 H 0.84482 0.30081 0.39088 0.0
S759 S 0.98459 0.29343 0.35345 0.0
N760 N 0.96706 0.30034 0.26263 0.0
N761 N 0.95445 0.29093 0.42976 0.0
C762 C 0.92826 0.29588 0.38262 0.0
C763 C 0.93502 0.3009 0.29211 0.0
C764 C 0.11263 0.03195 0.24931 0.0
C765 C 0.11554 0.05189 0.28474 0.0
C766 C 0.10246 0.02748 0.16123 0.0
C767 C 0.09558 0.04286 0.10526 0.0
H768 H 0.11639 0.01949 0.29103 0.0
H769 H 0.09944 0.01182 0.1371 0.0
S770 S 0.10101 0.09763 0.16455 0.0
N771 N 0.11201 0.08727 0.25589 0.0
N772 N 0.09306 0.07881 0.09056 0.0
C773 C 0.09966 0.06296 0.13878 0.0
C774 C 0.10964 0.06749 0.22851 0.0
C775 C 0.11388 0.20943 0.13489 0.0
C776 C 0.13407 0.20593 0.20714 0.0
C777 C 0.12481 0.20737 0.0481 0.0
C778 C 0.15622 0.20158 0.0302 0.0
H779 H 0.08941 0.21388 0.14547 0.0
H780 H 0.10835 0.21014 0.9944 0.0
S781 S 0.22025 0.19241 0.19383 0.0
N782 N 0.18878 0.19822 0.25393 0.0
N783 N 0.20797 0.19298 0.08986 0.0
C784 C 0.17678 0.19803 0.10097 0.0
C785 C 0.16607 0.20059 0.18981 0.0
C786 C 0.89657 0.94655 0.8673 0.0
C787 C 0.8728 0.95442 0.91844 0.0
C788 C 0.89011 0.94154 0.77821 0.0
C789 C 0.85988 0.94462 0.73631 0.0
H790 H 0.92063 0.94455 0.8961 0.0
H791 H 0.90975 0.93589 0.7414 0.0
S792 S 0.78889 0.96429 0.84432 0.0
N793 N 0.81741 0.96446 0.92389 0.0
N794 N 0.80521 0.95535 0.75509 0.0
C795 C 0.83538 0.952 0.7879 0.0
C796 C 0.84188 0.95686 0.87937 0.0
C797 C 0.91233 0.7838 0.86487 0.0
C798 C 0.90346 0.79817 0.92494 0.0
C799 C 0.92179 0.78925 0.77784 0.0
C800 C 0.92194 0.80917 0.7475 0.0
H801 H 0.91131 0.76812 0.88487 0.0
H802 H 0.92711 0.77748 0.73286 0.0
S803 S 0.90181 0.85256 0.88031 0.0
N804 N 0.89644 0.83323 0.94935 0.0
N805 N 0.91397 0.84352 0.78599 0.0
C806 C 0.91423 0.82383 0.80807 0.0
C807 C 0.905 0.81832 0.89677 0.0
C808 C 0.604 0.52706 0.15151 0.0
C809 C 0.59553 0.54209 0.09609 0.0
C810 C 0.61376 0.53168 0.23974 0.0
C811 C 0.61467 0.55139 0.27577 0.0
H812 H 0.60256 0.51155 0.1268 0.0
H813 H 0.61883 0.51946 0.28105 0.0
S814 S 0.59528 0.59615 0.15717 0.0
N815 N 0.58925 0.57745 0.08252 0.0
N816 N 0.60747 0.58619 0.24816 0.0
C817 C 0.60714 0.56666 0.22009 0.0
C818 C 0.59756 0.56199 0.13025 0.0
C819 C 0.66094 0.71822 0.06842 0.0
C820 C 0.65345 0.6988 0.02673 0.0
C821 C 0.64979 0.72118 0.15454 0.0
C822 C 0.63077 0.70486 0.20242 0.0
H823 H 0.67476 0.73138 0.03344 0.0
H824 H 0.65584 0.73645 0.1836 0.0
S825 S 0.60359 0.65113 0.12397 0.0
N826 N 0.62579 0.66289 0.04117 0.0
N827 N 0.60434 0.66875 0.2021 0.0
C828 C 0.62358 0.68532 0.16262 0.0
C829 C 0.63512 0.68221 0.0751 0.0
C830 C 0.35445 0.46644 0.86428 0.0
C831 C 0.36684 0.45247 0.91813 0.0
C832 C 0.34615 0.46174 0.77535 0.0
C833 C 0.35076 0.44309 0.73726 0.0
H834 H 0.35197 0.48131 0.89055 0.0
H835 H 0.3382 0.47329 0.73502 0.0
S836 S 0.38061 0.40091 0.85184 0.0
N837 N 0.38161 0.41889 0.92873 0.0
N838 N 0.36643 0.41009 0.76137 0.0
C839 C 0.3617 0.42866 0.79159 0.0
C840 C 0.3697 0.43334 0.88221 0.0
C841 C 0.40723 0.31539 0.90487 0.0
C842 C 0.40636 0.29529 0.93303 0.0
C843 C 0.41571 0.321 0.81761 0.0
C844 C 0.42421 0.3068 0.75586 0.0
H845 H 0.39969 0.3266 0.94929 0.0
H846 H 0.41441 0.33639 0.79753 0.0
S847 S 0.4288 0.25269 0.79994 0.0
N848 N 0.41673 0.26149 0.89485 0.0
N849 N 0.43338 0.27206 0.73117 0.0
C850 C 0.4253 0.28694 0.78482 0.0
C851 C 0.41605 0.28116 0.87328 0.0
C852 C 0.60512 0.02755 0.63911 0.0
C853 C 0.59774 0.04325 0.58563 0.0
C854 C 0.61485 0.03138 0.72784 0.0
C855 C 0.61677 0.05094 0.76618 0.0
H856 H 0.60263 0.01211 0.61263 0.0
H857 H 0.61881 0.01868 0.76785 0.0
S858 S 0.60113 0.09733 0.65332 0.0
N859 N 0.5942 0.07916 0.57625 0.0
N860 N 0.61211 0.08635 0.74306 0.0
C861 C 0.61061 0.06689 0.71243 0.0
C862 C 0.60115 0.06304 0.62205 0.0
C863 C 0.59775 0.19706 0.64795 0.0
C864 C 0.62412 0.20782 0.70151 0.0
C865 C 0.60329 0.19353 0.55858 0.0
C866 C 0.6353 0.20101 0.51881 0.0
H867 H 0.57245 0.19158 0.67513 0.0
H868 H 0.58174 0.18545 0.51999 0.0
S869 S 0.71296 0.22989 0.63303 0.0
N870 N 0.68355 0.22558 0.7111 0.0
N871 N 0.69413 0.21923 0.5418 0.0
C872 C 0.66221 0.21146 0.57261 0.0
C873 C 0.65656 0.21482 0.66436 0.0
C874 C 0.34434 0.95284 0.37687 0.0
C875 C 0.37769 0.95724 0.41261 0.0
C876 C 0.33888 0.94796 0.28675 0.0
C877 C 0.3666 0.94703 0.23034 0.0
H878 H 0.32247 0.95377 0.41812 0.0
H879 H 0.31291 0.94496 0.2611 0.0
S880 S 0.45894 0.95784 0.29285 0.0
N881 N 0.43862 0.96081 0.3856 0.0
N882 N 0.42872 0.95137 0.21712 0.0
C883 C 0.40006 0.95132 0.26605 0.0
C884 C 0.40551 0.95655 0.35701 0.0
C885 C 0.40717 0.82019 0.29438 0.0
C886 C 0.41787 0.80625 0.23515 0.0
C887 C 0.39813 0.81472 0.38137 0.0
C888 C 0.39905 0.79502 0.41195 0.0
H889 H 0.40478 0.83528 0.27259 0.0
H890 H 0.38907 0.82574 0.4238 0.0
S891 S 0.42638 0.75303 0.28499 0.0
N892 N 0.43002 0.77204 0.21455 0.0
N893 N 0.41266 0.76176 0.37813 0.0
C894 C 0.41046 0.78107 0.3544 0.0
C895 C 0.42015 0.78672 0.26606 0.0
C896 C 0.1169 0.61578 0.22065 0.0
C897 C 0.10896 0.60418 0.14249 0.0
C898 C 0.11923 0.63711 0.22155 0.0
C899 C 0.11312 0.64762 0.14464 0.0
H900 H 0.12232 0.60841 0.2809 0.0
H901 H 0.12635 0.64542 0.28296 0.0
S902 S 0.08708 0.62358 0.92565 0.0
N903 N 0.09226 0.60433 0.98822 0.0
N904 N 0.09584 0.64419 0.98999 0.0
C905 C 0.10352 0.63593 0.06715 0.0
C906 C 0.1017 0.6143 0.06603 0.0
C907 C 0.88576 0.3859 0.78271 0.0
C908 C 0.87804 0.39569 0.86113 0.0
C909 C 0.89424 0.36638 0.78402 0.0
C910 C 0.89609 0.35612 0.86397 0.0
H911 H 0.88512 0.39331 0.71968 0.0
H912 H 0.89961 0.35935 0.72203 0.0
S913 S 0.87771 0.37478 0.0877 0.0
N914 N 0.87214 0.39321 0.02098 0.0
N915 N 0.88884 0.35703 0.02328 0.0
C916 C 0.88855 0.36575 0.94273 0.0
C917 C 0.87928 0.38536 0.94134 0.0
C918 C 0.11831 0.11517 0.59 0.0
C919 C 0.11097 0.10356 0.66719 0.0
C920 C 0.1205 0.1364 0.59105 0.0
C921 C 0.11582 0.14705 0.66941 0.0
H922 H 0.12244 0.10784 0.52771 0.0
H923 H 0.12689 0.14457 0.53021 0.0
S924 S 0.09503 0.12407 0.88943 0.0
N925 N 0.09796 0.10441 0.82409 0.0
N926 N 0.10271 0.14445 0.82616 0.0
C927 C 0.10818 0.13573 0.7471 0.0
C928 C 0.10554 0.11398 0.74592 0.0
C929 C 0.88655 0.8873 0.44032 0.0
C930 C 0.88029 0.89648 0.36037 0.0
C931 C 0.89569 0.86805 0.44157 0.0
C932 C 0.8984 0.85696 0.36296 0.0
H933 H 0.88468 0.89513 0.50283 0.0
H934 H 0.89979 0.86162 0.50506 0.0
S935 S 0.88493 0.87423 0.13566 0.0
N936 N 0.87809 0.89321 0.20027 0.0
N937 N 0.89445 0.85677 0.20246 0.0
C938 C 0.89239 0.866 0.28233 0.0
C939 C 0.88358 0.8858 0.28106 0.0
C940 C 0.62019 0.63619 0.58187 0.0
C941 C 0.61516 0.64678 0.66016 0.0
C942 C 0.61808 0.61495 0.58077 0.0
C943 C 0.61036 0.60329 0.65772 0.0
H944 H 0.62667 0.64443 0.5211 0.0
H945 H 0.62255 0.60767 0.51863 0.0
S946 S 0.59247 0.6236 0.87891 0.0
N947 N 0.60067 0.64403 0.81603 0.0
N948 N 0.59608 0.60401 0.81389 0.0
C949 C 0.60436 0.61365 0.73616 0.0
C950 C 0.60695 0.63539 0.73743 0.0
C951 C 0.38702 0.38534 0.29192 0.0
C952 C 0.37577 0.39448 0.36814 0.0
C953 C 0.39594 0.36593 0.29478 0.0
C954 C 0.3947 0.35517 0.37435 0.0
H955 H 0.38906 0.39324 0.22953 0.0
H956 H 0.40428 0.35943 0.2346 0.0
S957 S 0.36504 0.37143 0.59133 0.0
N958 N 0.36226 0.39041 0.52475 0.0
N959 N 0.37968 0.35444 0.52976 0.0
C960 C 0.38312 0.36395 0.45052 0.0
C961 C 0.37346 0.38345 0.4475 0.0
C962 C 0.61312 0.1359 0.2217 0.0
C963 C 0.61475 0.14734 0.14364 0.0
C964 C 0.61092 0.11461 0.21905 0.0
C965 C 0.61085 0.10393 0.13827 0.0
H966 H 0.61387 0.14347 0.28571 0.0
H967 H 0.61003 0.10656 0.28092 0.0
S968 S 0.61304 0.1265 0.91467 0.0
N969 N 0.61468 0.14619 0.98313 0.0
N970 N 0.61112 0.10632 0.97788 0.0
C971 C 0.61182 0.11512 0.05961 0.0
C972 C 0.61353 0.13676 0.06235 0.0
C973 C 0.39406 0.86733 0.93427 0.0
C974 C 0.39911 0.85708 0.85497 0.0
C975 C 0.38485 0.88658 0.93398 0.0
C976 C 0.38077 0.89656 0.85441 0.0
H977 H 0.39632 0.86022 0.99731 0.0
H978 H 0.38113 0.89373 0.99699 0.0
S979 S 0.39246 0.8767 0.62857 0.0
N980 N 0.40014 0.85861 0.69463 0.0
N981 N 0.38337 0.89492 0.69409 0.0
C982 C 0.38645 0.8867 0.77462 0.0
C983 C 0.39545 0.86695 0.77492 0.0
loop_
_geom_bond_atom_site_label_1
_geom_bond_atom_site_label_2
_geom_bond_distance
_geom_bond_site_symmetry_2
_ccdc_geom_bond_type
Co0 O3 1.970 . S
Co0 N17 1.989 . S
Co0 O25 1.967 . S
Co0 O32 1.920 1_554 S
Co1 O4 1.966 . S
Co1 N10 2.022 . S
Co1 N18 1.993 . S
Co1 O26 1.941 . S
C2 O3 1.258 . S
C2 O4 1.263 . S
O3 Co0 1.970 . S
O3 C2 1.258 . S
O4 Co1 1.966 . S
O4 C2 1.263 . S
C5 O6 1.235 . S
C5 O32 1.289 . S
O6 C5 1.235 . S
C7 C9 1.400 . S
C7 N10 1.351 . S
C7 C12 1.501 . S
C8 C9 1.387 . S
C8 N11 1.341 . S
C9 C7 1.400 . S
C9 C8 1.387 . S
N10 Co1 2.022 . S
N10 C7 1.351 . S
N10 N11 1.365 . S
N11 C8 1.341 . S
N11 N10 1.365 . S
N11 H31 0.862 . S
C12 C7 1.501 . S
C12 H13 0.961 . S
C12 H14 0.961 . S
C12 H15 0.960 . S
H13 C12 0.961 . S
H14 C12 0.961 . S
H15 C12 0.960 . S
C16 N17 1.342 . S
C16 C20 1.401 . S
C16 C21 1.499 . S
N17 Co0 1.989 . S
N17 C16 1.342 . S
N17 N18 1.388 . S
N18 Co1 1.993 . S
N18 N17 1.388 . S
N18 C19 1.346 . S
C19 N18 1.346 . S
C19 C20 1.396 . S
C19 C29 1.510 . S
C20 C16 1.401 . S
C20 C19 1.396 . S
C21 C16 1.499 . S
C21 H22 0.959 1_554 S
C21 H23 0.960 . S
C21 H24 0.961 . S
H22 C21 0.959 1_556 S
H23 C21 0.960 . S
H24 C21 0.961 . S
O25 Co0 1.967 . S
O25 C33 1.258 . S
O26 Co1 1.941 . S
O26 C33 1.266 . S
H27 C29 0.959 . S
H28 C29 0.961 . S
C29 C19 1.510 . S
C29 H27 0.959 . S
C29 H28 0.961 . S
C29 H30 0.960 . S
H30 C29 0.960 . S
H31 N11 0.862 . S
O32 Co0 1.920 1_556 S
O32 C5 1.289 . S
C33 O25 1.258 . S
C33 O26 1.266 . S
Co34 O37 1.970 . S
Co34 N51 1.989 . S
Co34 O59 1.967 . S
Co34 O66 1.920 . S
Co35 O38 1.966 . S
Co35 N44 2.022 1_554 S
Co35 N52 1.993 . S
Co35 O60 1.941 . S
C36 O37 1.258 . S
C36 O38 1.263 . S
O37 Co34 1.970 . S
O37 C36 1.258 . S
O38 Co35 1.966 . S
O38 C36 1.263 . S
C39 O40 1.235 . S
C39 O66 1.289 . S
O40 C39 1.235 . S
C41 C43 1.400 . S
C41 N44 1.351 . S
C41 C46 1.501 . S
C42 C43 1.387 . S
C42 N45 1.341 . S
C43 C41 1.400 . S
C43 C42 1.387 . S
N44 Co35 2.022 1_556 S
N44 C41 1.351 . S
N44 N45 1.365 . S
N45 C42 1.341 . S
N45 N44 1.365 . S
N45 H65 0.862 . S
C46 C41 1.501 . S
C46 H47 0.961 . S
C46 H48 0.961 . S
C46 H49 0.960 . S
H47 C46 0.961 . S
H48 C46 0.961 . S
H49 C46 0.960 . S
C50 N51 1.342 . S
C50 C54 1.401 . S
C50 C55 1.499 . S
N51 Co34 1.989 . S
N51 C50 1.342 . S
N51 N52 1.388 . S
N52 Co35 1.993 . S
N52 N51 1.388 . S
N52 C53 1.346 . S
C53 N52 1.346 . S
C53 C54 1.396 . S
C53 C63 1.510 1_554 S
C54 C50 1.401 . S
C54 C53 1.396 . S
C55 C50 1.499 . S
C55 H56 0.959 . S
C55 H57 0.960 . S
C55 H58 0.961 . S
H56 C55 0.959 . S
H57 C55 0.960 . S
H58 C55 0.961 . S
O59 Co34 1.967 . S
O59 C67 1.258 . S
O60 Co35 1.941 . S
O60 C67 1.266 . S
H61 C63 0.959 . S
H62 C63 0.961 . S
C63 C53 1.510 1_556 S
C63 H61 0.959 . S
C63 H62 0.961 . S
C63 H64 0.960 . S
H64 C63 0.960 . S
H65 N45 0.862 . S
O66 Co34 1.920 . S
O66 C39 1.289 . S
C67 O59 1.258 . S
C67 O60 1.266 . S
Co68 O71 1.970 . S
Co68 N85 1.989 . S
Co68 O93 1.967 . S
Co68 O100 1.920 1_556 S
Co69 O72 1.966 . S
Co69 N78 2.022 . S
Co69 N86 1.993 . S
Co69 O94 1.941 . S
C70 O71 1.258 . S
C70 O72 1.263 . S
O71 Co68 1.970 . S
O71 C70 1.258 . S
O72 Co69 1.966 . S
O72 C70 1.263 . S
C73 O74 1.235 . S
C73 O100 1.289 . S
O74 C73 1.235 . S
C75 C77 1.400 . S
C75 N78 1.351 . S
C75 C80 1.501 . S
C76 C77 1.387 . S
C76 N79 1.341 . S
C77 C75 1.400 . S
C77 C76 1.387 . S
N78 Co69 2.022 . S
N78 C75 1.351 . S
N78 N79 1.365 . S
N79 C76 1.341 . S
N79 N78 1.365 . S
N79 H99 0.862 . S
C80 C75 1.501 . S
C80 H81 0.961 . S
C80 H82 0.961 . S
C80 H83 0.960 . S
H81 C80 0.961 . S
H82 C80 0.961 . S
H83 C80 0.960 . S
C84 N85 1.342 . S
C84 C88 1.401 . S
C84 C89 1.499 1_556 S
N85 Co68 1.989 . S
N85 C84 1.342 . S
N85 N86 1.388 . S
N86 Co69 1.993 . S
N86 N85 1.388 . S
N86 C87 1.346 . S
C87 N86 1.346 . S
C87 C88 1.396 . S
C87 C97 1.510 . S
C88 C84 1.401 . S
C88 C87 1.396 . S
C89 C84 1.499 1_554 S
C89 H90 0.959 . S
C89 H91 0.960 . S
C89 H92 0.961 . S
H90 C89 0.959 . S
H91 C89 0.960 . S
H92 C89 0.961 . S
O93 Co68 1.967 . S
O93 C101 1.258 . S
O94 Co69 1.941 . S
O94 C101 1.266 . S
H95 C97 0.959 . S
H96 C97 0.961 . S
C97 C87 1.510 . S
C97 H95 0.959 . S
C97 H96 0.961 . S
C97 H98 0.960 . S
H98 C97 0.960 . S
H99 N79 0.862 . S
O100 Co68 1.920 1_554 S
O100 C73 1.289 . S
C101 O93 1.258 . S
C101 O94 1.266 . S
Co102 O105 1.970 . S
Co102 N119 1.989 . S
Co102 O127 1.967 . S
Co102 O134 1.920 1_556 S
Co103 O106 1.966 . S
Co103 N112 2.022 . S
Co103 N120 1.993 . S
Co103 O128 1.941 . S
C104 O105 1.258 . S
C104 O106 1.263 . S
O105 Co102 1.970 . S
O105 C104 1.258 . S
O106 Co103 1.966 . S
O106 C104 1.263 . S
C107 O108 1.235 . S
C107 O134 1.289 . S
O108 C107 1.235 . S
C109 C111 1.400 . S
C109 N112 1.351 . S
C109 C114 1.501 . S
C110 C111 1.387 . S
C110 N113 1.341 . S
C111 C109 1.400 . S
C111 C110 1.387 . S
N112 Co103 2.022 . S
N112 C109 1.351 . S
N112 N113 1.365 . S
N113 C110 1.341 . S
N113 N112 1.365 . S
N113 H133 0.862 . S
C114 C109 1.501 . S
C114 H115 0.961 . S
C114 H116 0.961 . S
C114 H117 0.960 . S
H115 C114 0.961 . S
H116 C114 0.961 . S
H117 C114 0.960 . S
C118 N119 1.342 . S
C118 C122 1.405 . S
C118 C123 1.499 1_556 S
N119 Co102 1.989 . S
N119 C118 1.342 . S
N119 N120 1.388 . S
N120 Co103 1.993 . S
N120 N119 1.388 . S
N120 C121 1.346 . S
C121 N120 1.346 . S
C121 C122 1.402 . S
C121 C131 1.510 . S
C122 C118 1.405 . S
C122 C121 1.402 . S
C123 C118 1.499 1_554 S
C123 H124 0.959 . S
C123 H125 0.960 1_655 S
C123 H126 0.961 . S
H124 C123 0.959 . S
H125 C123 0.960 1_455 S
H126 C123 0.961 . S
O127 Co102 1.967 . S
O127 C135 1.258 . S
O128 Co103 1.941 . S
O128 C135 1.266 . S
H129 C131 0.959 . S
H130 C131 0.961 1_455 S
C131 C121 1.510 . S
C131 H129 0.959 . S
C131 H130 0.961 1_655 S
C131 H132 0.960 . S
H132 C131 0.960 . S
H133 N113 0.862 . S
O134 Co102 1.920 1_554 S
O134 C107 1.289 . S
C135 O127 1.258 . S
C135 O128 1.266 . S
Co136 O139 1.970 . S
Co136 N153 1.989 . S
Co136 O161 1.967 . S
Co136 O168 1.920 . S
Co137 O140 1.966 . S
Co137 N146 2.022 . S
Co137 N154 1.993 . S
Co137 O162 1.941 . S
C138 O139 1.258 . S
C138 O140 1.263 . S
O139 Co136 1.970 . S
O139 C138 1.258 . S
O140 Co137 1.966 . S
O140 C138 1.263 . S
C141 O142 1.235 . S
C141 O168 1.289 . S
O142 C141 1.235 . S
C143 C145 1.400 1_556 S
C143 N146 1.351 . S
C143 C148 1.501 . S
C144 C145 1.387 . S
C144 N147 1.341 1_554 S
C145 C143 1.400 1_554 S
C145 C144 1.387 . S
N146 Co137 2.022 . S
N146 C143 1.351 . S
N146 N147 1.365 . S
N147 C144 1.341 1_556 S
N147 N146 1.365 . S
N147 H167 0.862 . S
C148 C143 1.501 . S
C148 H149 0.961 . S
C148 H150 0.961 . S
C148 H151 0.960 . S
H149 C148 0.961 . S
H150 C148 0.961 . S
H151 C148 0.960 . S
C152 N153 1.342 . S
C152 C156 1.401 . S
C152 C157 1.499 . S
N153 Co136 1.989 . S
N153 C152 1.342 . S
N153 N154 1.388 . S
N154 Co137 1.993 . S
N154 N153 1.388 . S
N154 C155 1.346 . S
C155 N154 1.346 . S
C155 C156 1.396 . S
C155 C165 1.510 . S
C156 C152 1.401 . S
C156 C155 1.396 . S
C157 C152 1.499 . S
C157 H158 0.959 . S
C157 H159 0.960 . S
C157 H160 0.961 1_545 S
H158 C157 0.959 . S
H159 C157 0.960 . S
H160 C157 0.961 1_565 S
O161 Co136 1.967 . S
O161 C169 1.258 . S
O162 Co137 1.941 . S
O162 C169 1.266 . S
H163 C165 0.959 . S
H164 C165 0.961 . S
C165 C155 1.510 . S
C165 H163 0.959 . S
C165 H164 0.961 . S
C165 H166 0.960 . S
H166 C165 0.960 . S
H167 N147 0.862 . S
O168 Co136 1.920 . S
O168 C141 1.289 . S
C169 O161 1.258 . S
C169 O162 1.266 . S
Co170 O173 1.970 . S
Co170 N187 1.989 . S
Co170 O195 1.967 . S
Co170 O202 1.920 . S
Co171 O174 1.966 . S
Co171 N180 2.022 . S
Co171 N188 1.993 . S
Co171 O196 1.941 . S
C172 O173 1.258 . S
C172 O174 1.263 . S
O173 Co170 1.970 . S
O173 C172 1.258 . S
O174 Co171 1.966 . S
O174 C172 1.263 . S
C175 O176 1.235 . S
C175 O202 1.289 . S
O176 C175 1.235 . S
C177 C179 1.400 . S
C177 N180 1.351 . S
C177 C182 1.501 . S
C178 C179 1.387 . S
C178 N181 1.341 . S
C179 C177 1.400 . S
C179 C178 1.387 . S
N180 Co171 2.022 . S
N180 C177 1.351 . S
N180 N181 1.365 . S
N181 C178 1.341 . S
N181 N180 1.365 . S
N181 H201 0.862 . S
C182 C177 1.501 . S
C182 H183 0.961 . S
C182 H184 0.961 . S
C182 H185 0.960 . S
H183 C182 0.961 . S
H184 C182 0.961 . S
H185 C182 0.960 . S
C186 N187 1.342 . S
C186 C190 1.401 . S
C186 C191 1.499 . S
N187 Co170 1.989 . S
N187 C186 1.342 . S
N187 N188 1.388 . S
N188 Co171 1.993 . S
N188 N187 1.388 . S
N188 C189 1.346 . S
C189 N188 1.346 . S
C189 C190 1.396 . S
C189 C199 1.510 . S
C190 C186 1.401 . S
C190 C189 1.396 . S
C191 C186 1.499 . S
C191 H192 0.959 . S
C191 H193 0.960 . S
C191 H194 0.961 . S
H192 C191 0.959 . S
H193 C191 0.960 . S
H194 C191 0.961 . S
O195 Co170 1.967 . S
O195 C203 1.258 . S
O196 Co171 1.941 . S
O196 C203 1.266 . S
H197 C199 0.959 . S
H198 C199 0.961 . S
C199 C189 1.510 . S
C199 H197 0.959 . S
C199 H198 0.961 . S
C199 H200 0.960 . S
H200 C199 0.960 . S
H201 N181 0.862 . S
O202 Co170 1.920 . S
O202 C175 1.289 . S
C203 O195 1.258 . S
C203 O196 1.266 . S
Co204 O207 1.970 . S
Co204 N221 1.989 . S
Co204 O229 1.967 . S
Co204 O236 1.920 . S
Co205 O208 1.966 . S
Co205 N214 2.022 . S
Co205 N222 1.993 . S
Co205 O230 1.941 . S
C206 O207 1.258 . S
C206 O208 1.263 . S
O207 Co204 1.970 . S
O207 C206 1.258 . S
O208 Co205 1.966 . S
O208 C206 1.263 . S
C209 O210 1.235 . S
C209 O236 1.289 . S
O210 C209 1.235 . S
C211 C213 1.400 . S
C211 N214 1.351 . S
C211 C216 1.501 . S
C212 C213 1.387 . S
C212 N215 1.341 . S
C213 C211 1.400 . S
C213 C212 1.387 . S
N214 Co205 2.022 . S
N214 C211 1.351 . S
N214 N215 1.365 . S
N215 C212 1.341 . S
N215 N214 1.365 . S
N215 H235 0.862 . S
C216 C211 1.501 . S
C216 H217 0.961 . S
C216 H218 0.961 . S
C216 H219 0.960 . S
H217 C216 0.961 . S
H218 C216 0.961 . S
H219 C216 0.960 . S
C220 N221 1.342 . S
C220 C224 1.401 . S
C220 C225 1.499 . S
N221 Co204 1.989 . S
N221 C220 1.342 . S
N221 N222 1.388 . S
N222 Co205 1.993 . S
N222 N221 1.388 . S
N222 C223 1.346 . S
C223 N222 1.346 . S
C223 C224 1.396 . S
C223 C233 1.510 . S
C224 C220 1.401 . S
C224 C223 1.396 . S
C225 C220 1.499 . S
C225 H226 0.959 . S
C225 H227 0.960 . S
C225 H228 0.961 . S
H226 C225 0.959 . S
H227 C225 0.960 . S
H228 C225 0.961 . S
O229 Co204 1.967 . S
O229 C237 1.258 . S
O230 Co205 1.941 . S
O230 C237 1.266 . S
H231 C233 0.959 . S
H232 C233 0.961 . S
C233 C223 1.510 . S
C233 H231 0.959 . S
C233 H232 0.961 . S
C233 H234 0.960 . S
H234 C233 0.960 . S
H235 N215 0.862 . S
O236 Co204 1.920 . S
O236 C209 1.289 . S
C237 O229 1.258 . S
C237 O230 1.266 . S
Co238 O241 1.970 . S
Co238 N255 1.989 . S
Co238 O263 1.967 . S
Co238 O270 1.920 . S
Co239 O242 1.966 . S
Co239 N248 2.022 . S
Co239 N256 1.993 . S
Co239 O264 1.941 . S
C240 O241 1.258 . S
C240 O242 1.263 . S
O241 Co238 1.970 . S
O241 C240 1.258 . S
O242 Co239 1.966 . S
O242 C240 1.263 . S
C243 O244 1.235 . S
C243 O270 1.289 . S
O244 C243 1.235 . S
C245 C247 1.400 1_554 S
C245 N248 1.351 . S
C245 C250 1.501 . S
C246 C247 1.387 1_554 S
C246 N249 1.341 . S
C247 C245 1.400 1_556 S
C247 C246 1.387 1_556 S
N248 Co239 2.022 . S
N248 C245 1.351 . S
N248 N249 1.365 . S
N249 C246 1.341 . S
N249 N248 1.365 . S
N249 H269 0.862 . S
C250 C245 1.501 . S
C250 H251 0.961 . S
C250 H252 0.961 . S
C250 H253 0.960 . S
H251 C250 0.961 . S
H252 C250 0.961 . S
H253 C250 0.960 . S
C254 N255 1.342 . S
C254 C258 1.405 . S
C254 C259 1.499 . S
N255 Co238 1.989 . S
N255 C254 1.342 . S
N255 N256 1.388 . S
N256 Co239 1.993 . S
N256 N255 1.388 . S
N256 C257 1.346 . S
C257 N256 1.346 . S
C257 C258 1.401 . S
C257 C267 1.510 . S
C258 C254 1.405 . S
C258 C257 1.401 . S
C259 C254 1.499 . S
C259 H260 0.959 . S
C259 H261 0.960 1_655 S
C259 H262 0.961 . S
H260 C259 0.959 . S
H261 C259 0.960 1_455 S
H262 C259 0.961 . S
O263 Co238 1.967 . S
O263 C271 1.258 . S
O264 Co239 1.941 . S
O264 C271 1.266 . S
H265 C267 0.959 . S
H266 C267 0.961 1_455 S
C267 C257 1.510 . S
C267 H265 0.959 . S
C267 H266 0.961 1_655 S
C267 H268 0.960 . S
H268 C267 0.960 . S
H269 N249 0.862 . S
O270 Co238 1.920 . S
O270 C243 1.289 . S
C271 O263 1.258 . S
C271 O264 1.266 . S
Co272 O275 1.970 . S
Co272 N289 1.989 . S
Co272 O297 1.967 . S
Co272 O304 1.920 . S
Co273 O276 1.966 . S
Co273 N282 2.022 . S
Co273 N290 1.993 . S
Co273 O298 1.941 . S
C274 O275 1.258 . S
C274 O276 1.263 . S
O275 Co272 1.970 . S
O275 C274 1.258 . S
O276 Co273 1.966 . S
O276 C274 1.263 . S
C277 O278 1.235 . S
C277 O304 1.289 . S
O278 C277 1.235 . S
C279 C281 1.400 1_556 S
C279 N282 1.351 . S
C279 C284 1.501 . S
C280 C281 1.387 . S
C280 N283 1.341 1_554 S
C281 C279 1.400 1_554 S
C281 C280 1.387 . S
N282 Co273 2.022 . S
N282 C279 1.351 . S
N282 N283 1.365 . S
N283 C280 1.341 1_556 S
N283 N282 1.365 . S
N283 H303 0.862 . S
C284 C279 1.501 . S
C284 H285 0.961 . S
C284 H286 0.961 . S
C284 H287 0.960 . S
H285 C284 0.961 . S
H286 C284 0.961 . S
H287 C284 0.960 . S
C288 N289 1.342 . S
C288 C292 1.401 . S
C288 C293 1.499 . S
N289 Co272 1.989 . S
N289 C288 1.342 . S
N289 N290 1.388 . S
N290 Co273 1.993 . S
N290 N289 1.388 . S
N290 C291 1.346 . S
C291 N290 1.346 . S
C291 C292 1.396 . S
C291 C301 1.510 . S
C292 C288 1.401 . S
C292 C291 1.396 . S
C293 C288 1.499 . S
C293 H294 0.959 . S
C293 H295 0.960 . S
C293 H296 0.961 . S
H294 C293 0.959 . S
H295 C293 0.960 . S
H296 C293 0.961 . S
O297 Co272 1.967 . S
O297 C305 1.258 . S
O298 Co273 1.941 . S
O298 C305 1.266 . S
H299 C301 0.959 . S
H300 C301 0.961 . S
C301 C291 1.510 . S
C301 H299 0.959 . S
C301 H300 0.961 . S
C301 H302 0.960 . S
H302 C301 0.960 . S
H303 N283 0.862 . S
O304 Co272 1.920 . S
O304 C277 1.289 . S
C305 O297 1.258 . S
C305 O298 1.266 . S
Co306 O309 1.970 . S
Co306 N323 1.989 . S
Co306 O331 1.967 . S
Co306 O338 1.920 . S
Co307 O310 1.966 . S
Co307 N316 2.022 . S
Co307 N324 1.993 . S
Co307 O332 1.941 . S
C308 O309 1.258 . S
C308 O310 1.263 . S
O309 Co306 1.970 . S
O309 C308 1.258 . S
O310 Co307 1.966 . S
O310 C308 1.263 . S
C311 O312 1.235 . S
C311 O338 1.289 . S
O312 C311 1.235 . S
C313 C315 1.400 . S
C313 N316 1.351 . S
C313 C318 1.501 . S
C314 C315 1.387 . S
C314 N317 1.341 . S
C315 C313 1.400 . S
C315 C314 1.387 . S
N316 Co307 2.022 . S
N316 C313 1.351 . S
N316 N317 1.365 . S
N317 C314 1.341 . S
N317 N316 1.365 . S
N317 H337 0.862 . S
C318 C313 1.501 . S
C318 H319 0.961 . S
C318 H320 0.961 . S
C318 H321 0.960 . S
H319 C318 0.961 . S
H320 C318 0.961 . S
H321 C318 0.960 . S
C322 N323 1.342 . S
C322 C326 1.401 . S
C322 C327 1.499 . S
N323 Co306 1.989 . S
N323 C322 1.342 . S
N323 N324 1.388 . S
N324 Co307 1.993 . S
N324 N323 1.388 . S
N324 C325 1.346 . S
C325 N324 1.346 . S
C325 C326 1.396 . S
C325 C335 1.510 . S
C326 C322 1.401 . S
C326 C325 1.396 . S
C327 C322 1.499 . S
C327 H328 0.959 . S
C327 H329 0.960 . S
C327 H330 0.961 . S
H328 C327 0.959 . S
H329 C327 0.960 . S
H330 C327 0.961 . S
O331 Co306 1.967 . S
O331 C339 1.258 . S
O332 Co307 1.941 . S
O332 C339 1.266 . S
H333 C335 0.959 . S
H334 C335 0.961 . S
C335 C325 1.510 . S
C335 H333 0.959 . S
C335 H334 0.961 . S
C335 H336 0.960 . S
H336 C335 0.960 . S
H337 N317 0.862 . S
O338 Co306 1.920 . S
O338 C311 1.289 . S
C339 O331 1.258 . S
C339 O332 1.266 . S
Co340 O343 1.970 . S
Co340 N357 1.989 . S
Co340 O365 1.967 . S
Co340 O372 1.920 . S
Co341 O344 1.966 . S
Co341 N350 2.022 . S
Co341 N358 1.993 . S
Co341 O366 1.941 . S
C342 O343 1.258 . S
C342 O344 1.263 . S
O343 Co340 1.970 . S
O343 C342 1.258 . S
O344 Co341 1.966 . S
O344 C342 1.263 . S
C345 O346 1.235 . S
C345 O372 1.289 . S
O346 C345 1.235 . S
C347 C349 1.400 . S
C347 N350 1.351 . S
C347 C352 1.501 . S
C348 C349 1.387 . S
C348 N351 1.341 . S
C349 C347 1.400 . S
C349 C348 1.387 . S
N350 Co341 2.022 . S
N350 C347 1.351 . S
N350 N351 1.365 . S
N351 C348 1.341 . S
N351 N350 1.365 . S
N351 H371 0.862 . S
C352 C347 1.501 . S
C352 H353 0.961 . S
C352 H354 0.961 . S
C352 H355 0.960 . S
H353 C352 0.961 . S
H354 C352 0.961 . S
H355 C352 0.960 . S
C356 N357 1.342 . S
C356 C360 1.401 . S
C356 C361 1.499 . S
N357 Co340 1.989 . S
N357 C356 1.342 . S
N357 N358 1.388 . S
N358 Co341 1.993 . S
N358 N357 1.388 . S
N358 C359 1.346 . S
C359 N358 1.346 . S
C359 C360 1.396 . S
C359 C369 1.510 . S
C360 C356 1.401 . S
C360 C359 1.396 . S
C361 C356 1.499 . S
C361 H362 0.959 . S
C361 H363 0.960 . S
C361 H364 0.961 . S
H362 C361 0.959 . S
H363 C361 0.960 . S
H364 C361 0.961 . S
O365 Co340 1.967 . S
O365 C373 1.258 . S
O366 Co341 1.941 . S
O366 C373 1.266 . S
H367 C369 0.959 . S
H368 C369 0.961 . S
C369 C359 1.510 . S
C369 H367 0.959 . S
C369 H368 0.961 . S
C369 H370 0.960 . S
H370 C369 0.960 . S
H371 N351 0.862 . S
O372 Co340 1.920 . S
O372 C345 1.289 . S
C373 O365 1.258 . S
C373 O366 1.266 . S
Co374 O377 1.970 . S
Co374 N391 1.989 . S
Co374 O399 1.967 . S
Co374 O406 1.920 . S
Co375 O378 1.966 . S
Co375 N384 2.022 . S
Co375 N392 1.993 . S
Co375 O400 1.941 . S
C376 O377 1.258 . S
C376 O378 1.263 . S
O377 Co374 1.970 . S
O377 C376 1.258 . S
O378 Co375 1.966 . S
O378 C376 1.263 . S
C379 O380 1.235 . S
C379 O406 1.289 . S
O380 C379 1.235 . S
C381 C383 1.400 1_554 S
C381 N384 1.351 . S
C381 C386 1.501 . S
C382 C383 1.387 1_554 S
C382 N385 1.341 . S
C383 C381 1.400 1_556 S
C383 C382 1.387 1_556 S
N384 Co375 2.022 . S
N384 C381 1.351 . S
N384 N385 1.365 . S
N385 C382 1.341 . S
N385 N384 1.365 . S
N385 H405 0.862 . S
C386 C381 1.501 . S
C386 H387 0.961 . S
C386 H388 0.961 . S
C386 H389 0.960 . S
H387 C386 0.961 . S
H388 C386 0.961 . S
H389 C386 0.960 . S
C390 N391 1.342 . S
C390 C394 1.401 . S
C390 C395 1.499 . S
N391 Co374 1.989 . S
N391 C390 1.342 . S
N391 N392 1.388 . S
N392 Co375 1.993 . S
N392 N391 1.388 . S
N392 C393 1.346 . S
C393 N392 1.346 . S
C393 C394 1.396 . S
C393 C403 1.510 . S
C394 C390 1.401 . S
C394 C393 1.396 . S
C395 C390 1.499 . S
C395 H396 0.959 . S
C395 H397 0.960 . S
C395 H398 0.961 . S
H396 C395 0.959 . S
H397 C395 0.960 . S
H398 C395 0.961 . S
O399 Co374 1.967 . S
O399 C407 1.258 . S
O400 Co375 1.941 . S
O400 C407 1.266 . S
H401 C403 0.959 . S
H402 C403 0.961 . S
C403 C393 1.510 . S
C403 H401 0.959 . S
C403 H402 0.961 . S
C403 H404 0.960 . S
H404 C403 0.960 . S
H405 N385 0.862 . S
O406 Co374 1.920 . S
O406 C379 1.289 . S
C407 O399 1.258 . S
C407 O400 1.266 . S
Co408 O411 1.970 . S
Co408 N425 1.989 . S
Co408 O433 1.967 . S
Co408 O440 1.920 1_554 S
Co409 O412 1.966 . S
Co409 N418 2.022 . S
Co409 N426 1.993 . S
Co409 O434 1.941 . S
C410 O411 1.258 . S
C410 O412 1.263 . S
O411 Co408 1.970 . S
O411 C410 1.258 . S
O412 Co409 1.966 . S
O412 C410 1.263 . S
C413 O414 1.235 . S
C413 O440 1.289 . S
O414 C413 1.235 . S
C415 C417 1.400 . S
C415 N418 1.351 . S
C415 C420 1.501 . S
C416 C417 1.387 . S
C416 N419 1.341 . S
C417 C415 1.400 . S
C417 C416 1.387 . S
N418 Co409 2.022 . S
N418 C415 1.351 . S
N418 N419 1.365 . S
N419 C416 1.341 . S
N419 N418 1.365 . S
N419 H439 0.862 . S
C420 C415 1.501 . S
C420 H421 0.961 . S
C420 H422 0.961 . S
C420 H423 0.960 . S
H421 C420 0.961 . S
H422 C420 0.961 . S
H423 C420 0.960 . S
C424 N425 1.342 . S
C424 C428 1.401 . S
C424 C429 1.499 . S
N425 Co408 1.989 . S
N425 C424 1.342 . S
N425 N426 1.388 . S
N426 Co409 1.993 . S
N426 N425 1.388 . S
N426 C427 1.346 . S
C427 N426 1.346 . S
C427 C428 1.396 . S
C427 C437 1.510 . S
C428 C424 1.401 . S
C428 C427 1.396 . S
C429 C424 1.499 . S
C429 H430 0.959 1_554 S
C429 H431 0.960 . S
C429 H432 0.961 1_545 S
H430 C429 0.959 1_556 S
H431 C429 0.960 . S
H432 C429 0.961 1_565 S
O433 Co408 1.967 . S
O433 C441 1.258 . S
O434 Co409 1.941 . S
O434 C441 1.266 . S
H435 C437 0.959 . S
H436 C437 0.961 . S
C437 C427 1.510 . S
C437 H435 0.959 . S
C437 H436 0.961 . S
C437 H438 0.960 . S
H438 C437 0.960 . S
H439 N419 0.862 . S
O440 Co408 1.920 1_556 S
O440 C413 1.289 . S
C441 O433 1.258 . S
C441 O434 1.266 . S
Co442 O445 1.970 . S
Co442 N459 1.989 . S
Co442 O467 1.967 . S
Co442 O474 1.920 . S
Co443 O446 1.966 . S
Co443 N452 2.022 1_554 S
Co443 N460 1.993 . S
Co443 O468 1.941 . S
C444 O445 1.258 . S
C444 O446 1.263 . S
O445 Co442 1.970 . S
O445 C444 1.258 . S
O446 Co443 1.966 . S
O446 C444 1.263 . S
C447 O448 1.235 . S
C447 O474 1.289 . S
O448 C447 1.235 . S
C449 C451 1.400 . S
C449 N452 1.351 . S
C449 C454 1.501 . S
C450 C451 1.387 . S
C450 N453 1.341 . S
C451 C449 1.400 . S
C451 C450 1.387 . S
N452 Co443 2.022 1_556 S
N452 C449 1.351 . S
N452 N453 1.365 . S
N453 C450 1.341 . S
N453 N452 1.365 . S
N453 H473 0.862 . S
C454 C449 1.501 . S
C454 H455 0.961 . S
C454 H456 0.961 . S
C454 H457 0.960 . S
H455 C454 0.961 . S
H456 C454 0.961 . S
H457 C454 0.960 . S
C458 N459 1.342 . S
C458 C462 1.401 . S
C458 C463 1.499 . S
N459 Co442 1.989 . S
N459 C458 1.342 . S
N459 N460 1.388 . S
N460 Co443 1.993 . S
N460 N459 1.388 . S
N460 C461 1.346 . S
C461 N460 1.346 . S
C461 C462 1.396 . S
C461 C471 1.510 1_554 S
C462 C458 1.401 . S
C462 C461 1.396 . S
C463 C458 1.499 . S
C463 H464 0.959 . S
C463 H465 0.960 . S
C463 H466 0.961 . S
H464 C463 0.959 . S
H465 C463 0.960 . S
H466 C463 0.961 . S
O467 Co442 1.967 . S
O467 C475 1.258 . S
O468 Co443 1.941 . S
O468 C475 1.266 . S
H469 C471 0.959 . S
H470 C471 0.961 . S
C471 C461 1.510 1_556 S
C471 H469 0.959 . S
C471 H470 0.961 . S
C471 H472 0.960 . S
H472 C471 0.960 . S
H473 N453 0.862 . S
O474 Co442 1.920 . S
O474 C447 1.289 . S
C475 O467 1.258 . S
C475 O468 1.266 . S
Co476 O479 1.970 . S
Co476 N493 1.989 . S
Co476 O501 1.967 . S
Co476 O508 1.920 1_556 S
Co477 O480 1.966 . S
Co477 N486 2.022 . S
Co477 N494 1.993 . S
Co477 O502 1.941 . S
C478 O479 1.258 . S
C478 O480 1.263 . S
O479 Co476 1.970 . S
O479 C478 1.258 . S
O480 Co477 1.966 . S
O480 C478 1.263 . S
C481 O482 1.235 . S
C481 O508 1.289 . S
O482 C481 1.235 . S
C483 C485 1.400 . S
C483 N486 1.351 . S
C483 C488 1.501 . S
C484 C485 1.387 . S
C484 N487 1.341 . S
C485 C483 1.400 . S
C485 C484 1.387 . S
N486 Co477 2.022 . S
N486 C483 1.351 . S
N486 N487 1.365 . S
N487 C484 1.341 . S
N487 N486 1.365 . S
N487 H507 0.862 . S
C488 C483 1.501 . S
C488 H489 0.961 . S
C488 H490 0.961 . S
C488 H491 0.960 . S
H489 C488 0.961 . S
H490 C488 0.961 . S
H491 C488 0.960 . S
C492 N493 1.342 . S
C492 C496 1.401 . S
C492 C497 1.499 1_556 S
N493 Co476 1.989 . S
N493 C492 1.342 . S
N493 N494 1.388 . S
N494 Co477 1.993 . S
N494 N493 1.388 . S
N494 C495 1.346 . S
C495 N494 1.346 . S
C495 C496 1.396 . S
C495 C505 1.510 . S
C496 C492 1.401 . S
C496 C495 1.396 . S
C497 C492 1.499 1_554 S
C497 H498 0.959 . S
C497 H499 0.960 . S
C497 H500 0.961 . S
H498 C497 0.959 . S
H499 C497 0.960 . S
H500 C497 0.961 . S
O501 Co476 1.967 . S
O501 C509 1.258 . S
O502 Co477 1.941 . S
O502 C509 1.266 . S
H503 C505 0.959 . S
H504 C505 0.961 . S
C505 C495 1.510 . S
C505 H503 0.959 . S
C505 H504 0.961 . S
C505 H506 0.960 . S
H506 C505 0.960 . S
H507 N487 0.862 . S
O508 Co476 1.920 1_554 S
O508 C481 1.289 . S
C509 O501 1.258 . S
C509 O502 1.266 . S
Co510 O513 1.970 . S
Co510 N527 1.989 . S
Co510 O535 1.967 . S
Co510 O542 1.920 1_556 S
Co511 O514 1.966 . S
Co511 N520 2.022 . S
Co511 N528 1.993 . S
Co511 O536 1.941 . S
C512 O513 1.258 . S
C512 O514 1.263 . S
O513 Co510 1.970 . S
O513 C512 1.258 . S
O514 Co511 1.966 . S
O514 C512 1.263 . S
C515 O516 1.235 . S
C515 O542 1.289 . S
O516 C515 1.235 . S
C517 C519 1.400 . S
C517 N520 1.351 . S
C517 C522 1.501 . S
C518 C519 1.387 . S
C518 N521 1.341 . S
C519 C517 1.400 . S
C519 C518 1.387 . S
N520 Co511 2.022 . S
N520 C517 1.351 . S
N520 N521 1.365 . S
N521 C518 1.341 . S
N521 N520 1.365 . S
N521 H541 0.862 . S
C522 C517 1.501 . S
C522 H523 0.961 . S
C522 H524 0.961 . S
C522 H525 0.960 . S
H523 C522 0.961 . S
H524 C522 0.961 . S
H525 C522 0.960 . S
C526 N527 1.342 . S
C526 C530 1.401 . S
C526 C531 1.499 1_556 S
N527 Co510 1.989 . S
N527 C526 1.342 . S
N527 N528 1.388 . S
N528 Co511 1.993 . S
N528 N527 1.388 . S
N528 C529 1.346 . S
C529 N528 1.346 . S
C529 C530 1.396 . S
C529 C539 1.510 . S
C530 C526 1.401 . S
C530 C529 1.396 . S
C531 C526 1.499 1_554 S
C531 H532 0.959 . S
C531 H533 0.960 . S
C531 H534 0.961 . S
H532 C531 0.959 . S
H533 C531 0.960 . S
H534 C531 0.961 . S
O535 Co510 1.967 . S
O535 C543 1.258 . S
O536 Co511 1.941 . S
O536 C543 1.266 . S
H537 C539 0.959 . S
H538 C539 0.961 . S
C539 C529 1.510 . S
C539 H537 0.959 . S
C539 H538 0.961 . S
C539 H540 0.960 . S
H540 C539 0.960 . S
H541 N521 0.862 . S
O542 Co510 1.920 1_554 S
O542 C515 1.289 . S
C543 O535 1.258 . S
C543 O536 1.266 . S
C544 C545 1.369 . S
C544 C546 1.419 . S
C544 H548 0.930 . S
C545 C544 1.369 . S
C545 C554 1.429 . S
C546 C544 1.419 . S
C546 C547 1.363 . S
C546 H549 0.929 . S
C547 C546 1.363 . S
C547 C553 1.428 . S
H548 C544 0.930 . S
H549 C546 0.929 . S
S550 N551 1.613 . S
S550 N552 1.610 . S
N551 S550 1.613 . S
N551 C554 1.350 . S
N552 S550 1.610 . S
N552 C553 1.351 . S
C553 C547 1.428 . S
C553 N552 1.351 . S
C553 C554 1.434 . S
C554 C545 1.429 . S
C554 N551 1.350 . S
C554 C553 1.434 . S
C555 C556 1.369 . S
C555 C557 1.419 . S
C555 H559 0.930 . S
C556 C555 1.369 . S
C556 C565 1.429 . S
C557 C555 1.419 . S
C557 C558 1.363 . S
C557 H560 0.929 1_455 S
C558 C557 1.363 . S
C558 C564 1.428 . S
H559 C555 0.930 . S
H560 C557 0.929 1_655 S
S561 N562 1.613 . S
S561 N563 1.610 . S
N562 S561 1.613 . S
N562 C565 1.350 . S
N563 S561 1.610 . S
N563 C564 1.351 . S
C564 C558 1.428 . S
C564 N563 1.351 . S
C564 C565 1.434 . S
C565 C556 1.429 . S
C565 N562 1.350 . S
C565 C564 1.434 . S
C566 C567 1.369 . S
C566 C568 1.419 . S
C566 H570 0.930 . S
C567 C566 1.369 . S
C567 C576 1.429 1_556 S
C568 C566 1.419 . S
C568 C569 1.363 1_556 S
C568 H571 0.929 . S
C569 C568 1.363 1_554 S
C569 C575 1.428 . S
H570 C566 0.930 . S
H571 C568 0.929 . S
S572 N573 1.613 . S
S572 N574 1.610 . S
N573 S572 1.613 . S
N573 C576 1.350 . S
N574 S572 1.610 . S
N574 C575 1.351 . S
C575 C569 1.428 . S
C575 N574 1.351 . S
C575 C576 1.434 . S
C576 C567 1.429 1_554 S
C576 N573 1.350 . S
C576 C575 1.434 . S
C577 C578 1.369 1_554 S
C577 C579 1.419 . S
C577 H581 0.930 1_554 S
C578 C577 1.369 1_556 S
C578 C587 1.429 . S
C579 C577 1.419 . S
C579 C580 1.363 . S
C579 H582 0.929 . S
C580 C579 1.363 . S
C580 C586 1.428 . S
H581 C577 0.930 1_556 S
H582 C579 0.929 . S
S583 N584 1.613 1_454 S
S583 N585 1.610 . S
N584 S583 1.613 1_656 S
N584 C587 1.350 . S
N585 S583 1.610 . S
N585 C586 1.351 1_455 S
C586 C580 1.428 . S
C586 N585 1.351 1_655 S
C586 C587 1.434 1_554 S
C587 C578 1.429 . S
C587 N584 1.350 . S
C587 C586 1.434 1_556 S
C588 C589 1.369 . S
C588 C590 1.419 . S
C588 H592 0.930 . S
C589 C588 1.369 . S
C589 C598 1.429 . S
C590 C588 1.419 . S
C590 C591 1.363 . S
C590 H593 0.929 . S
C591 C590 1.363 . S
C591 C597 1.428 . S
H592 C588 0.930 . S
H593 C590 0.929 . S
S594 N595 1.613 . S
S594 N596 1.610 . S
N595 S594 1.613 . S
N595 C598 1.350 . S
N596 S594 1.610 . S
N596 C597 1.351 . S
C597 C591 1.428 . S
C597 N596 1.351 . S
C597 C598 1.434 . S
C598 C589 1.429 . S
C598 N595 1.350 . S
C598 C597 1.434 . S
C599 C600 1.369 . S
C599 C601 1.419 . S
C599 H603 0.930 . S
C600 C599 1.369 . S
C600 C609 1.429 . S
C601 C599 1.419 . S
C601 C602 1.363 . S
C601 H604 0.929 . S
C602 C601 1.363 . S
C602 C608 1.428 . S
H603 C599 0.930 . S
H604 C601 0.929 . S
S605 N606 1.613 1_655 S
S605 N607 1.610 . S
N606 S605 1.613 1_455 S
N606 C609 1.350 . S
N607 S605 1.610 . S
N607 C608 1.351 1_655 S
C608 C602 1.428 . S
C608 N607 1.351 1_455 S
C608 C609 1.434 . S
C609 C600 1.429 . S
C609 N606 1.350 . S
C609 C608 1.434 . S
C610 C611 1.369 . S
C610 C612 1.419 . S
C610 H614 0.930 . S
C611 C610 1.369 . S
C611 C620 1.429 1_554 S
C612 C610 1.419 . S
C612 C613 1.363 1_554 S
C612 H615 0.929 . S
C613 C612 1.363 1_556 S
C613 C619 1.428 . S
H614 C610 0.930 . S
H615 C612 0.929 . S
S616 N617 1.613 . S
S616 N618 1.610 . S
N617 S616 1.613 . S
N617 C620 1.350 . S
N618 S616 1.610 . S
N618 C619 1.351 . S
C619 C613 1.428 . S
C619 N618 1.351 . S
C619 C620 1.434 . S
C620 C611 1.429 1_556 S
C620 N617 1.350 . S
C620 C619 1.434 . S
C621 C622 1.369 . S
C621 C623 1.419 . S
C621 H625 0.930 . S
C622 C621 1.369 . S
C622 C631 1.429 . S
C623 C621 1.419 . S
C623 C624 1.363 . S
C623 H626 0.929 . S
C624 C623 1.363 . S
C624 C630 1.428 1_565 S
H625 C621 0.930 . S
H626 C623 0.929 . S
S627 N628 1.589 1_545 S
S627 N629 1.610 . S
N628 S627 1.589 1_565 S
N628 C631 1.354 . S
N629 S627 1.610 . S
N629 C630 1.351 . S
C630 C624 1.428 1_545 S
C630 N629 1.351 . S
C630 C631 1.434 1_545 S
C631 C622 1.429 . S
C631 N628 1.354 . S
C631 C630 1.434 1_565 S
C632 C633 1.369 . S
C632 C634 1.419 . S
C632 H636 0.930 . S
C633 C632 1.369 . S
C633 C642 1.429 . S
C634 C632 1.419 . S
C634 C635 1.363 . S
C634 H637 0.929 . S
C635 C634 1.363 . S
C635 C641 1.428 . S
H636 C632 0.930 . S
H637 C634 0.929 . S
S638 N639 1.613 . S
S638 N640 1.610 . S
N639 S638 1.613 . S
N639 C642 1.350 . S
N640 S638 1.610 . S
N640 C641 1.351 . S
C641 C635 1.428 . S
C641 N640 1.351 . S
C641 C642 1.434 . S
C642 C633 1.429 . S
C642 N639 1.350 . S
C642 C641 1.434 . S
C643 C644 1.369 1_545 S
C643 C645 1.419 . S
C643 H647 0.930 . S
C644 C643 1.369 1_565 S
C644 C653 1.429 . S
C645 C643 1.419 . S
C645 C646 1.363 . S
C645 H648 0.929 . S
C646 C645 1.363 . S
C646 C652 1.428 1_545 S
H647 C643 0.930 . S
H648 C645 0.929 . S
S649 N650 1.613 1_455 S
S649 N651 1.610 . S
N650 S649 1.613 1_655 S
N650 C653 1.350 . S
N651 S649 1.610 . S
N651 C652 1.351 1_455 S
C652 C646 1.428 1_565 S
C652 N651 1.351 1_655 S
C652 C653 1.434 . S
C653 C644 1.429 . S
C653 N650 1.350 . S
C653 C652 1.434 . S
C654 C655 1.369 . S
C654 C656 1.419 . S
C654 H658 0.930 . S
C655 C654 1.369 . S
C655 C664 1.429 1_565 S
C656 C654 1.419 . S
C656 C657 1.363 . S
C656 H659 0.929 . S
C657 C656 1.363 . S
C657 C663 1.428 . S
H658 C654 0.930 . S
H659 C656 0.929 . S
S660 N661 1.613 . S
S660 N662 1.610 . S
N661 S660 1.613 . S
N661 C664 1.350 . S
N662 S660 1.610 . S
N662 C663 1.351 1_545 S
C663 C657 1.428 . S
C663 N662 1.351 1_565 S
C663 C664 1.434 1_565 S
C664 C655 1.429 1_545 S
C664 N661 1.350 . S
C664 C663 1.434 1_545 S
C665 C666 1.369 . S
C665 C667 1.419 . S
C665 H669 0.930 . S
C666 C665 1.369 . S
C666 C675 1.429 . S
C667 C665 1.419 . S
C667 C668 1.363 . S
C667 H670 0.929 . S
C668 C667 1.363 . S
C668 C674 1.428 . S
H669 C665 0.930 . S
H670 C667 0.929 . S
S671 N672 1.613 . S
S671 N673 1.610 . S
N672 S671 1.613 . S
N672 C675 1.350 . S
N673 S671 1.610 . S
N673 C674 1.351 . S
C674 C668 1.428 . S
C674 N673 1.351 . S
C674 C675 1.434 . S
C675 C666 1.429 . S
C675 N672 1.350 . S
C675 C674 1.434 . S
C676 C677 1.369 . S
C676 C678 1.419 . S
C676 H680 0.930 . S
C677 C676 1.369 . S
C677 C686 1.429 . S
C678 C676 1.419 . S
C678 C679 1.363 . S
C678 H681 0.929 . S
C679 C678 1.363 . S
C679 C685 1.428 . S
H680 C676 0.930 . S
H681 C678 0.929 . S
S682 N683 1.613 . S
S682 N684 1.610 . S
N683 S682 1.613 . S
N683 C686 1.350 . S
N684 S682 1.610 . S
N684 C685 1.351 . S
C685 C679 1.428 . S
C685 N684 1.351 . S
C685 C686 1.434 . S
C686 C677 1.429 . S
C686 N683 1.350 . S
C686 C685 1.434 . S
C687 C688 1.369 . S
C687 C689 1.419 . S
C687 H691 0.930 . S
C688 C687 1.369 . S
C688 C697 1.429 . S
C689 C687 1.419 . S
C689 C690 1.363 . S
C689 H692 0.929 . S
C690 C689 1.363 . S
C690 C696 1.428 . S
H691 C687 0.930 . S
H692 C689 0.929 . S
S693 N694 1.613 . S
S693 N695 1.610 . S
N694 S693 1.613 . S
N694 C697 1.350 . S
N695 S693 1.610 . S
N695 C696 1.351 . S
C696 C690 1.428 . S
C696 N695 1.351 . S
C696 C697 1.434 . S
C697 C688 1.429 . S
C697 N694 1.350 . S
C697 C696 1.434 . S
C698 C699 1.369 . S
C698 C700 1.419 . S
C698 H702 0.930 . S
C699 C698 1.369 . S
C699 C708 1.429 . S
C700 C698 1.419 . S
C700 C701 1.363 . S
C700 H703 0.929 . S
C701 C700 1.363 . S
C701 C707 1.428 . S
H702 C698 0.930 . S
H703 C700 0.929 . S
S704 N705 1.613 . S
S704 N706 1.610 . S
N705 S704 1.613 . S
N705 C708 1.350 . S
N706 S704 1.610 . S
N706 C707 1.351 . S
C707 C701 1.428 . S
C707 N706 1.351 . S
C707 C708 1.434 . S
C708 C699 1.429 . S
C708 N705 1.350 . S
C708 C707 1.434 . S
C709 C710 1.369 1_544 S
C709 C711 1.419 . S
C709 H713 0.930 . S
C710 C709 1.369 1_566 S
C710 C719 1.429 . S
C711 C709 1.419 . S
C711 C712 1.363 . S
C711 H714 0.929 . S
C712 C711 1.363 . S
C712 C718 1.428 1_545 S
H713 C709 0.930 . S
H714 C711 0.929 . S
S715 N716 1.613 . S
S715 N717 1.610 1_556 S
N716 S715 1.613 . S
N716 C719 1.350 . S
N717 S715 1.610 1_554 S
N717 C718 1.351 . S
C718 C712 1.428 1_565 S
C718 N717 1.351 . S
C718 C719 1.434 1_554 S
C719 C710 1.429 . S
C719 N716 1.350 . S
C719 C718 1.434 1_556 S
C720 C721 1.369 . S
C720 C722 1.419 . S
C720 H724 0.930 . S
C721 C720 1.369 . S
C721 C730 1.429 . S
C722 C720 1.419 . S
C722 C723 1.363 . S
C722 H725 0.929 . S
C723 C722 1.363 . S
C723 C729 1.428 . S
H724 C720 0.930 . S
H725 C722 0.929 . S
S726 N727 1.613 . S
S726 N728 1.610 . S
N727 S726 1.613 . S
N727 C730 1.350 . S
N728 S726 1.610 . S
N728 C729 1.351 . S
C729 C723 1.428 . S
C729 N728 1.351 . S
C729 C730 1.434 . S
C730 C721 1.429 . S
C730 N727 1.350 . S
C730 C729 1.434 . S
C731 C732 1.369 . S
C731 C733 1.419 . S
C731 H735 0.930 . S
C732 C731 1.369 . S
C732 C741 1.429 . S
C733 C731 1.419 . S
C733 C734 1.363 . S
C733 H736 0.929 . S
C734 C733 1.363 . S
C734 C740 1.428 . S
H735 C731 0.930 . S
H736 C733 0.929 . S
S737 N738 1.613 . S
S737 N739 1.610 . S
N738 S737 1.613 . S
N738 C741 1.350 . S
N739 S737 1.610 . S
N739 C740 1.351 . S
C740 C734 1.428 . S
C740 N739 1.351 . S
C740 C741 1.434 . S
C741 C732 1.429 . S
C741 N738 1.350 . S
C741 C740 1.434 . S
C742 C743 1.369 . S
C742 C744 1.419 . S
C742 H746 0.930 . S
C743 C742 1.369 . S
C743 C752 1.429 . S
C744 C742 1.419 . S
C744 C745 1.363 . S
C744 H747 0.929 . S
C745 C744 1.363 . S
C745 C751 1.428 . S
H746 C742 0.930 . S
H747 C744 0.929 . S
S748 N749 1.613 . S
S748 N750 1.610 . S
N749 S748 1.613 . S
N749 C752 1.350 . S
N750 S748 1.610 . S
N750 C751 1.351 . S
C751 C745 1.428 . S
C751 N750 1.351 . S
C751 C752 1.434 . S
C752 C743 1.429 . S
C752 N749 1.350 . S
C752 C751 1.434 . S
C753 C754 1.369 . S
C753 C755 1.419 . S
C753 H757 0.930 . S
C754 C753 1.369 . S
C754 C763 1.429 . S
C755 C753 1.419 . S
C755 C756 1.363 . S
C755 H758 0.929 . S
C756 C755 1.363 . S
C756 C762 1.428 . S
H757 C753 0.930 . S
H758 C755 0.929 . S
S759 N760 1.613 . S
S759 N761 1.610 1_455 S
N760 S759 1.613 . S
N760 C763 1.350 1_455 S
N761 S759 1.610 1_655 S
N761 C762 1.351 . S
C762 C756 1.428 . S
C762 N761 1.351 . S
C762 C763 1.434 . S
C763 C754 1.429 . S
C763 N760 1.350 1_655 S
C763 C762 1.434 . S
C764 C765 1.369 . S
C764 C766 1.419 . S
C764 H768 0.930 . S
C765 C764 1.369 . S
C765 C774 1.429 . S
C766 C764 1.419 . S
C766 C767 1.363 . S
C766 H769 0.929 . S
C767 C766 1.363 . S
C767 C773 1.428 . S
H768 C764 0.930 . S
H769 C766 0.929 . S
S770 N771 1.613 . S
S770 N772 1.610 . S
N771 S770 1.613 . S
N771 C774 1.350 . S
N772 S770 1.610 . S
N772 C773 1.351 . S
C773 C767 1.428 . S
C773 N772 1.351 . S
C773 C774 1.434 . S
C774 C765 1.429 . S
C774 N771 1.350 . S
C774 C773 1.434 . S
C775 C776 1.369 . S
C775 C777 1.419 . S
C775 H779 0.930 . S
C776 C775 1.369 . S
C776 C785 1.429 . S
C777 C775 1.419 . S
C777 C778 1.363 1_554 S
C777 H780 0.929 1_554 S
C778 C777 1.363 1_556 S
C778 C784 1.428 1_556 S
H779 C775 0.930 . S
H780 C777 0.929 1_556 S
S781 N782 1.613 . S
S781 N783 1.610 . S
N782 S781 1.613 . S
N782 C785 1.350 . S
N783 S781 1.610 . S
N783 C784 1.351 . S
C784 C778 1.428 1_554 S
C784 N783 1.351 . S
C784 C785 1.434 . S
C785 C776 1.429 . S
C785 N782 1.350 . S
C785 C784 1.434 . S
C786 C787 1.369 . S
C786 C788 1.419 . S
C786 H790 0.930 . S
C787 C786 1.369 . S
C787 C796 1.429 . S
C788 C786 1.419 . S
C788 C789 1.363 . S
C788 H791 0.929 . S
C789 C788 1.363 . S
C789 C795 1.428 . S
H790 C786 0.930 . S
H791 C788 0.929 . S
S792 N793 1.613 . S
S792 N794 1.610 . S
N793 S792 1.613 . S
N793 C796 1.350 . S
N794 S792 1.610 . S
N794 C795 1.351 . S
C795 C789 1.428 . S
C795 N794 1.351 . S
C795 C796 1.434 . S
C796 C787 1.429 . S
C796 N793 1.350 . S
C796 C795 1.434 . S
C797 C798 1.369 . S
C797 C799 1.419 . S
C797 H801 0.930 . S
C798 C797 1.369 . S
C798 C807 1.429 . S
C799 C797 1.419 . S
C799 C800 1.363 . S
C799 H802 0.929 . S
C800 C799 1.363 . S
C800 C806 1.428 . S
H801 C797 0.930 . S
H802 C799 0.929 . S
S803 N804 1.613 . S
S803 N805 1.610 . S
N804 S803 1.613 . S
N804 C807 1.350 . S
N805 S803 1.610 . S
N805 C806 1.351 . S
C806 C800 1.428 . S
C806 N805 1.351 . S
C806 C807 1.434 . S
C807 C798 1.429 . S
C807 N804 1.350 . S
C807 C806 1.434 . S
C808 C809 1.369 . S
C808 C810 1.419 . S
C808 H812 0.930 . S
C809 C808 1.369 . S
C809 C818 1.429 . S
C810 C808 1.419 . S
C810 C811 1.363 . S
C810 H813 0.929 . S
C811 C810 1.363 . S
C811 C817 1.428 . S
H812 C808 0.930 . S
H813 C810 0.929 . S
S814 N815 1.613 . S
S814 N816 1.610 . S
N815 S814 1.613 . S
N815 C818 1.350 . S
N816 S814 1.610 . S
N816 C817 1.351 . S
C817 C811 1.428 . S
C817 N816 1.351 . S
C817 C818 1.434 . S
C818 C809 1.429 . S
C818 N815 1.350 . S
C818 C817 1.434 . S
C819 C820 1.369 1_554 S
C819 C821 1.419 . S
C819 H823 0.930 . S
C820 C819 1.369 1_556 S
C820 C829 1.429 . S
C821 C819 1.419 . S
C821 C822 1.363 . S
C821 H824 0.929 . S
C822 C821 1.363 . S
C822 C828 1.428 . S
H823 C819 0.930 . S
H824 C821 0.929 . S
S825 N826 1.613 . S
S825 N827 1.610 1_556 S
N826 S825 1.613 . S
N826 C829 1.350 . S
N827 S825 1.610 1_554 S
N827 C828 1.351 . S
C828 C822 1.428 . S
C828 N827 1.351 . S
C828 C829 1.434 1_554 S
C829 C820 1.429 . S
C829 N826 1.350 . S
C829 C828 1.434 1_556 S
C830 C831 1.369 . S
C830 C832 1.419 . S
C830 H834 0.930 . S
C831 C830 1.369 . S
C831 C840 1.429 . S
C832 C830 1.419 . S
C832 C833 1.363 . S
C832 H835 0.929 . S
C833 C832 1.363 . S
C833 C839 1.428 . S
H834 C830 0.930 . S
H835 C832 0.929 . S
S836 N837 1.613 . S
S836 N838 1.610 . S
N837 S836 1.613 . S
N837 C840 1.350 . S
N838 S836 1.610 . S
N838 C839 1.351 . S
C839 C833 1.428 . S
C839 N838 1.351 . S
C839 C840 1.434 . S
C840 C831 1.429 . S
C840 N837 1.350 . S
C840 C839 1.434 . S
C841 C842 1.369 . S
C841 C843 1.419 . S
C841 H845 0.930 . S
C842 C841 1.369 . S
C842 C851 1.429 . S
C843 C841 1.419 . S
C843 C844 1.363 . S
C843 H846 0.929 . S
C844 C843 1.363 . S
C844 C850 1.428 . S
H845 C841 0.930 . S
H846 C843 0.929 . S
S847 N848 1.613 . S
S847 N849 1.610 . S
N848 S847 1.613 . S
N848 C851 1.350 . S
N849 S847 1.610 . S
N849 C850 1.351 . S
C850 C844 1.428 . S
C850 N849 1.351 . S
C850 C851 1.434 . S
C851 C842 1.429 . S
C851 N848 1.350 . S
C851 C850 1.434 . S
C852 C853 1.369 . S
C852 C854 1.419 . S
C852 H856 0.930 . S
C853 C852 1.369 . S
C853 C862 1.429 . S
C854 C852 1.419 . S
C854 C855 1.363 . S
C854 H857 0.929 . S
C855 C854 1.363 . S
C855 C861 1.428 . S
H856 C852 0.930 . S
H857 C854 0.929 . S
S858 N859 1.613 . S
S858 N860 1.610 . S
N859 S858 1.613 . S
N859 C862 1.350 . S
N860 S858 1.610 . S
N860 C861 1.351 . S
C861 C855 1.428 . S
C861 N860 1.351 . S
C861 C862 1.434 . S
C862 C853 1.429 . S
C862 N859 1.350 . S
C862 C861 1.434 . S
C863 C864 1.369 . S
C863 C865 1.419 . S
C863 H867 0.930 . S
C864 C863 1.369 . S
C864 C873 1.429 . S
C865 C863 1.419 . S
C865 C866 1.363 . S
C865 H868 0.929 . S
C866 C865 1.363 . S
C866 C872 1.428 . S
H867 C863 0.930 . S
H868 C865 0.929 . S
S869 N870 1.613 . S
S869 N871 1.610 . S
N870 S869 1.613 . S
N870 C873 1.350 . S
N871 S869 1.610 . S
N871 C872 1.351 . S
C872 C866 1.428 . S
C872 N871 1.351 . S
C872 C873 1.434 . S
C873 C864 1.429 . S
C873 N870 1.350 . S
C873 C872 1.434 . S
C874 C875 1.369 . S
C874 C876 1.419 . S
C874 H878 0.930 . S
C875 C874 1.369 . S
C875 C884 1.429 . S
C876 C874 1.419 . S
C876 C877 1.363 . S
C876 H879 0.929 . S
C877 C876 1.363 . S
C877 C883 1.428 . S
H878 C874 0.930 . S
H879 C876 0.929 . S
S880 N881 1.613 . S
S880 N882 1.610 . S
N881 S880 1.613 . S
N881 C884 1.350 . S
N882 S880 1.610 . S
N882 C883 1.351 . S
C883 C877 1.428 . S
C883 N882 1.351 . S
C883 C884 1.434 . S
C884 C875 1.429 . S
C884 N881 1.350 . S
C884 C883 1.434 . S
C885 C886 1.369 . S
C885 C887 1.419 . S
C885 H889 0.930 . S
C886 C885 1.369 . S
C886 C895 1.429 . S
C887 C885 1.419 . S
C887 C888 1.363 . S
C887 H890 0.929 . S
C888 C887 1.363 . S
C888 C894 1.428 . S
H889 C885 0.930 . S
H890 C887 0.929 . S
S891 N892 1.613 . S
S891 N893 1.610 . S
N892 S891 1.613 . S
N892 C895 1.350 . S
N893 S891 1.610 . S
N893 C894 1.351 . S
C894 C888 1.428 . S
C894 N893 1.351 . S
C894 C895 1.434 . S
C895 C886 1.429 . S
C895 N892 1.350 . S
C895 C894 1.434 . S
C896 C897 1.369 . S
C896 C898 1.419 . S
C896 H900 0.930 . S
C897 C896 1.369 . S
C897 C906 1.429 . S
C898 C896 1.419 . S
C898 C899 1.363 . S
C898 H901 0.929 . S
C899 C898 1.363 . S
C899 C905 1.428 . S
H900 C896 0.930 . S
H901 C898 0.929 . S
S902 N903 1.613 . S
S902 N904 1.610 . S
N903 S902 1.613 . S
N903 C906 1.350 . S
N904 S902 1.610 . S
N904 C905 1.351 . S
C905 C899 1.428 . S
C905 N904 1.351 . S
C905 C906 1.434 . S
C906 C897 1.429 . S
C906 N903 1.350 . S
C906 C905 1.434 . S
C907 C908 1.369 . S
C907 C909 1.419 . S
C907 H911 0.930 . S
C908 C907 1.369 . S
C908 C917 1.429 . S
C909 C907 1.419 . S
C909 C910 1.363 . S
C909 H912 0.929 . S
C910 C909 1.363 . S
C910 C916 1.428 . S
H911 C907 0.930 . S
H912 C909 0.929 . S
S913 N914 1.613 . S
S913 N915 1.610 . S
N914 S913 1.613 . S
N914 C917 1.350 . S
N915 S913 1.610 . S
N915 C916 1.351 . S
C916 C910 1.428 . S
C916 N915 1.351 . S
C916 C917 1.434 . S
C917 C908 1.429 . S
C917 N914 1.350 . S
C917 C916 1.434 . S
C918 C919 1.369 . S
C918 C920 1.419 . S
C918 H922 0.930 . S
C919 C918 1.369 . S
C919 C928 1.429 . S
C920 C918 1.419 . S
C920 C921 1.363 . S
C920 H923 0.929 . S
C921 C920 1.363 . S
C921 C927 1.428 . S
H922 C918 0.930 . S
H923 C920 0.929 . S
S924 N925 1.613 . S
S924 N926 1.610 . S
N925 S924 1.613 . S
N925 C928 1.350 . S
N926 S924 1.610 . S
N926 C927 1.351 . S
C927 C921 1.428 . S
C927 N926 1.351 . S
C927 C928 1.434 . S
C928 C919 1.429 . S
C928 N925 1.350 . S
C928 C927 1.434 . S
C929 C930 1.369 . S
C929 C931 1.419 . S
C929 H933 0.930 . S
C930 C929 1.369 . S
C930 C939 1.429 . S
C931 C929 1.419 . S
C931 C932 1.363 . S
C931 H934 0.929 . S
C932 C931 1.363 . S
C932 C938 1.428 . S
H933 C929 0.930 . S
H934 C931 0.929 . S
S935 N936 1.613 . S
S935 N937 1.610 . S
N936 S935 1.613 . S
N936 C939 1.350 . S
N937 S935 1.610 . S
N937 C938 1.351 . S
C938 C932 1.428 . S
C938 N937 1.351 . S
C938 C939 1.434 . S
C939 C930 1.429 . S
C939 N936 1.350 . S
C939 C938 1.434 . S
C940 C941 1.369 . S
C940 C942 1.419 . S
C940 H944 0.930 . S
C941 C940 1.369 . S
C941 C950 1.429 . S
C942 C940 1.419 . S
C942 C943 1.363 . S
C942 H945 0.929 . S
C943 C942 1.363 . S
C943 C949 1.428 . S
H944 C940 0.930 . S
H945 C942 0.929 . S
S946 N947 1.613 . S
S946 N948 1.610 . S
N947 S946 1.613 . S
N947 C950 1.350 . S
N948 S946 1.610 . S
N948 C949 1.351 . S
C949 C943 1.428 . S
C949 N948 1.351 . S
C949 C950 1.434 . S
C950 C941 1.429 . S
C950 N947 1.350 . S
C950 C949 1.434 . S
C951 C952 1.369 . S
C951 C953 1.419 . S
C951 H955 0.930 . S
C952 C951 1.369 . S
C952 C961 1.429 . S
C953 C951 1.419 . S
C953 C954 1.363 . S
C953 H956 0.929 . S
C954 C953 1.363 . S
C954 C960 1.428 . S
H955 C951 0.930 . S
H956 C953 0.929 . S
S957 N958 1.613 . S
S957 N959 1.610 . S
N958 S957 1.613 . S
N958 C961 1.350 . S
N959 S957 1.610 . S
N959 C960 1.351 . S
C960 C954 1.428 . S
C960 N959 1.351 . S
C960 C961 1.434 . S
C961 C952 1.429 . S
C961 N958 1.350 . S
C961 C960 1.434 . S
C962 C963 1.369 . S
C962 C964 1.419 . S
C962 H966 0.930 . S
C963 C962 1.369 . S
C963 C972 1.429 . S
C964 C962 1.419 . S
C964 C965 1.363 . S
C964 H967 0.929 . S
C965 C964 1.363 . S
C965 C971 1.428 . S
H966 C962 0.930 . S
H967 C964 0.929 . S
S968 N969 1.613 . S
S968 N970 1.610 . S
N969 S968 1.613 . S
N969 C972 1.350 . S
N970 S968 1.610 . S
N970 C971 1.351 . S
C971 C965 1.428 . S
C971 N970 1.351 . S
C971 C972 1.434 . S
C972 C963 1.429 . S
C972 N969 1.350 . S
C972 C971 1.434 . S
C973 C974 1.369 . S
C973 C975 1.419 . S
C973 H977 0.930 . S
C974 C973 1.369 . S
C974 C983 1.429 . S
C975 C973 1.419 . S
C975 C976 1.363 . S
C975 H978 0.929 . S
C976 C975 1.363 . S
C976 C982 1.428 . S
H977 C973 0.930 . S
H978 C975 0.929 . S
S979 N980 1.613 . S
S979 N981 1.610 . S
N980 S979 1.613 . S
N980 C983 1.350 . S
N981 S979 1.610 . S
N981 C982 1.351 . S
C982 C976 1.428 . S
C982 N981 1.351 . S
C982 C983 1.434 . S
C983 C974 1.429 . S
C983 N980 1.350 . S
C983 C982 1.434 . S
C545 C360 1.613 . S
C547 C20 1.595 . S
C556 C67 1.647 . S
C558 C258 1.638 1_455 S
C567 C543 1.592 . S
C569 C54 1.572 . S
C578 C101 1.624 . S
C580 C33 1.609 1_655 S
C589 C88 1.612 . S
C591 C292 1.595 . S
C600 C203 1.652 . S
C602 C122 1.634 1_455 S
C611 C462 1.567 . S
C613 C135 1.595 . S
C622 C496 1.610 . S
C624 C156 1.597 1_565 S
C633 C190 1.567 . S
C635 C407 1.595 . S
C644 C237 1.623 . S
C646 C169 1.609 1_655 S
C655 C428 1.595 1_565 S
C657 C224 1.612 . S
C666 C326 1.574 . S
C668 C271 1.591 . S
C677 C530 1.641 . S
C679 C339 1.651 . S
C688 C305 1.608 . S
C690 C373 1.625 . S
C699 C394 1.646 . S
C701 C475 1.647 . S
C710 C509 1.624 . S
C712 C441 1.608 . S
C721 C9 1.353 . S
C723 C5 1.391 . S
C732 C43 1.354 . S
C734 C39 1.407 . S
C743 C77 1.364 . S
C745 C73 1.378 . S
C754 C107 1.365 . S
C756 C111 1.339 . S
C765 C141 1.385 . S
C767 C145 1.361 . S
C776 C179 1.361 . S
C778 C175 1.407 . S
C787 C213 1.371 1_556 S
C789 C209 1.379 . S
C798 C247 1.342 . S
C800 C243 1.360 . S
C809 C281 1.362 . S
C811 C277 1.387 . S
C820 C311 1.401 . S
C822 C315 1.361 . S
C831 C349 1.369 1_556 S
C833 C345 1.376 . S
C842 C383 1.333 . S
C844 C379 1.363 . S
C853 C417 1.361 . S
C855 C413 1.385 . S
C864 C451 1.358 . S
C866 C447 1.408 . S
C875 C485 1.365 . S
C877 C481 1.376 . S
C886 C515 1.362 . S
C888 C519 1.335 . S
C897 C2 1.595 . S
C899 C36 1.602 . S
C908 C70 1.523 . S
C910 C104 1.521 . S
C919 C138 1.597 . S
C921 C172 1.602 . S
C930 C206 1.524 . S
C932 C240 1.521 . S
C941 C308 1.602 . S
C943 C274 1.596 . S
C952 C342 1.523 . S
C954 C376 1.521 . S
C963 C444 1.599 . S
C965 C410 1.592 . S
C974 C512 1.523 . S
C976 C478 1.522 . S
