# Generated by pormake.
# Topology uoz, (4)-cn, num edge types: 1
# Building blocks:
#     Node 0, Type 0, BuildingBlock: KUFVIS_clean_sbu_0, # of connection points: 4
#     Node 1, Type 0, BuildingBlock: KUFVIS_clean_sbu_0, # of connection points: 4
#     Node 2, Type 0, BuildingBlock: KUFVIS_clean_sbu_0, # of connection points: 4
#     Node 3, Type 0, BuildingBlock: KUFVIS_clean_sbu_0, # of connection points: 4
#     Node 4, Type 0, BuildingBlock: KUFVIS_clean_sbu_0, # of connection points: 4
#     Node 5, Type 0, BuildingBlock: KUFVIS_clean_sbu_0, # of connection points: 4
#     Node 6, Type 0, BuildingBlock: KUFVIS_clean_sbu_0, # of connection points: 4
#     Node 7, Type 0, BuildingBlock: KUFVIS_clean_sbu_0, # of connection points: 4
#     Node 8, Type 0, BuildingBlock: KUFVIS_clean_sbu_0, # of connection points: 4
#     Node 9, Type 0, BuildingBlock: KUFVIS_clean_sbu_0, # of connection points: 4
#     Node 10, Type 0, BuildingBlock: KUFVIS_clean_sbu_0, # of connection points: 4
#     Node 11, Type 0, BuildingBlock: KUFVIS_clean_sbu_0, # of connection points: 4
#     Node 12, Type 0, BuildingBlock: KUFVIS_clean_sbu_0, # of connection points: 4
#     Node 13, Type 0, BuildingBlock: KUFVIS_clean_sbu_0, # of connection points: 4
#     Node 14, Type 0, BuildingBlock: KUFVIS_clean_sbu_0, # of connection points: 4
#     Node 15, Type 0, BuildingBlock: KUFVIS_clean_sbu_0, # of connection points: 4
#     Edge 16, Type (0, 0), BuildingBlock: EZIPEK_clean_linker_0, # of connection points: 2
#     Edge 17, Type (0, 0), BuildingBlock: EZIPEK_clean_linker_0, # of connection points: 2
#     Edge 18, Type (0, 0), BuildingBlock: EZIPEK_clean_linker_0, # of connection points: 2
#     Edge 19, Type (0, 0), BuildingBlock: EZIPEK_clean_linker_0, # of connection points: 2
#     Edge 20, Type (0, 0), BuildingBlock: EZIPEK_clean_linker_0, # of connection points: 2
#     Edge 21, Type (0, 0), BuildingBlock: EZIPEK_clean_linker_0, # of connection points: 2
#     Edge 22, Type (0, 0), BuildingBlock: EZIPEK_clean_linker_0, # of connection points: 2
#     Edge 23, Type (0, 0), BuildingBlock: EZIPEK_clean_linker_0, # of connection points: 2
#     Edge 24, Type (0, 0), BuildingBlock: EZIPEK_clean_linker_0, # of connection points: 2
#     Edge 25, Type (0, 0), BuildingBlock: EZIPEK_clean_linker_0, # of connection points: 2
#     Edge 26, Type (0, 0), BuildingBlock: EZIPEK_clean_linker_0, # of connection points: 2
#     Edge 27, Type (0, 0), BuildingBlock: EZIPEK_clean_linker_0, # of connection points: 2
#     Edge 28, Type (0, 0), BuildingBlock: EZIPEK_clean_linker_0, # of connection points: 2
#     Edge 29, Type (0, 0), BuildingBlock: EZIPEK_clean_linker_0, # of connection points: 2
#     Edge 30, Type (0, 0), BuildingBlock: EZIPEK_clean_linker_0, # of connection points: 2
#     Edge 31, Type (0, 0), BuildingBlock: EZIPEK_clean_linker_0, # of connection points: 2
#     Edge 32, Type (0, 0), BuildingBlock: EZIPEK_clean_linker_0, # of connection points: 2
#     Edge 33, Type (0, 0), BuildingBlock: EZIPEK_clean_linker_0, # of connection points: 2
#     Edge 34, Type (0, 0), BuildingBlock: EZIPEK_clean_linker_0, # of connection points: 2
#     Edge 35, Type (0, 0), BuildingBlock: EZIPEK_clean_linker_0, # of connection points: 2
#     Edge 36, Type (0, 0), BuildingBlock: EZIPEK_clean_linker_0, # of connection points: 2
#     Edge 37, Type (0, 0), BuildingBlock: EZIPEK_clean_linker_0, # of connection points: 2
#     Edge 38, Type (0, 0), BuildingBlock: EZIPEK_clean_linker_0, # of connection points: 2
#     Edge 39, Type (0, 0), BuildingBlock: EZIPEK_clean_linker_0, # of connection points: 2
#     Edge 40, Type (0, 0), BuildingBlock: EZIPEK_clean_linker_0, # of connection points: 2
#     Edge 41, Type (0, 0), BuildingBlock: EZIPEK_clean_linker_0, # of connection points: 2
#     Edge 42, Type (0, 0), BuildingBlock: EZIPEK_clean_linker_0, # of connection points: 2
#     Edge 43, Type (0, 0), BuildingBlock: EZIPEK_clean_linker_0, # of connection points: 2
#     Edge 44, Type (0, 0), BuildingBlock: EZIPEK_clean_linker_0, # of connection points: 2
#     Edge 45, Type (0, 0), BuildingBlock: EZIPEK_clean_linker_0, # of connection points: 2
#     Edge 46, Type (0, 0), BuildingBlock: EZIPEK_clean_linker_0, # of connection points: 2
#     Edge 47, Type (0, 0), BuildingBlock: EZIPEK_clean_linker_0, # of connection points: 2
# Relax obj value: 0.146
# Max RMSD: 0.147
# Mean RMSD: 0.147
data_MOF--net-uoz--node1-KUFVIS_clean_sbu_0--edge1-EZIPEK_clean_linker_0
_symmetry_space_group_name_H-M    P1
_symmetry_Int_Tables_number       1
_symmetry_cell_setting            triclinic
loop_
_symmetry_equiv_pos_as_xyz
'x, y, z'
_cell_length_a     45.139229
_cell_length_b     45.049752
_cell_length_c     15.249537
_cell_angle_alpha  90.038256
_cell_angle_beta   90.051566
_cell_angle_gamma 90.00168
loop_
_atom_site_label
_atom_site_type_symbol
_atom_site_fract_x
_atom_site_fract_y
_atom_site_fract_z
_atom_type_partial_charge
Mn0 Mn 0.05476 0.57412 0.31714 0.0
Mn1 Mn 0.05518 0.59431 0.09959 0.0
C2 C 0.03635 0.54381 0.20655 0.0
C3 C 0.07075 0.54598 0.44249 0.0
C4 C 0.01209 0.61918 0.23128 0.0
O5 O 0.08797 0.60624 0.31264 0.0
O6 O 0.08335 0.61766 0.16791 0.0
C7 C 0.11629 0.57637 0.05186 0.0
N8 N 0.08651 0.57446 0.03863 0.0
C9 C 0.09368 0.54597 0.90671 0.0
C10 C 0.1244 0.54755 0.9193 0.0
C11 C 0.13574 0.56265 0.99258 0.0
C12 C 0.07537 0.55964 0.96893 0.0
H13 H 0.12517 0.5884 0.10687 0.0
C14 C 0.09547 0.62081 0.24296 0.0
O15 O 0.05366 0.56901 0.44944 0.0
O16 O 0.08182 0.54181 0.36508 0.0
N17 N 0.02909 0.57231 0.02467 0.0
C18 C -0.00104 0.5729 0.02123 0.0
C19 C 0.98408 0.55747 0.95436 0.0
C20 C 0.00038 0.5424 0.88984 0.0
C21 C 0.0314 0.543 0.89275 0.0
C22 C 0.04497 0.55827 0.96198 0.0
H23 H 0.98644 0.58519 0.06875 0.0
O24 O 0.02646 0.54123 0.28595 0.0
O25 O 0.05507 0.56482 0.19315 0.0
O26 O 0.02245 0.60612 0.29916 0.0
O27 O 0.02223 0.61573 0.15407 0.0
C28 C 0.04938 0.52924 0.82922 0.0
C29 C 0.08049 0.53086 0.83581 0.0
H30 H 0.13947 0.53709 0.87346 0.0
H31 H 0.15943 0.56398 1.00287 0.0
H32 H 0.96012 0.5575 0.95198 0.0
H33 H 0.98886 0.53069 0.83794 0.0
H34 H 0.03947 0.51742 0.77502 0.0
H35 H 0.09407 0.52008 0.78667 0.0
Mn36 Mn 0.73006 0.75184 0.56913 0.0
Mn37 Mn 0.71197 0.7589 0.3511 0.0
C38 C 0.76012 0.73401 0.45788 0.0
C39 C 0.75826 0.76513 0.69719 0.0
C40 C 0.68405 0.71363 0.47045 0.0
O41 O 0.69892 0.78581 0.57023 0.0
O42 O 0.69016 0.78744 0.42326 0.0
C43 C 0.73436 0.81923 0.31209 0.0
N44 N 0.7343 0.78957 0.29534 0.0
C45 C 0.76154 0.79678 0.16135 0.0
C46 C 0.76183 0.82744 0.17725 0.0
C47 C 0.74844 0.83867 0.25349 0.0
C48 C 0.74759 0.77848 0.22298 0.0
H49 H 0.72342 0.82794 0.36907 0.0
C50 C 0.68615 0.7967 0.50153 0.0
O51 O 0.73495 0.74827 0.70141 0.0
O52 O 0.76274 0.77732 0.62156 0.0
N53 N 0.73215 0.73232 0.27364 0.0
C54 C 0.72981 0.70222 0.26766 0.0
C55 C 0.74382 0.68727 0.19831 0.0
C56 C 0.75927 0.70348 0.13436 0.0
C57 C 0.7606 0.7345 0.1405 0.0
C58 C 0.74682 0.74812 0.21217 0.0
H59 H 0.71749 0.6897 0.31573 0.0
O60 O 0.76184 0.72282 0.53594 0.0
O61 O 0.74051 0.75442 0.44622 0.0
O62 O 0.69715 0.72074 0.54216 0.0
O63 O 0.68815 0.72677 0.39787 0.0
C64 C 0.7748 0.75247 0.07782 0.0
C65 C 0.77507 0.7836 0.08773 0.0
H66 H 0.77253 0.84251 0.1319 0.0
H67 H 0.74861 0.8623 0.26643 0.0
H68 H 0.74247 0.66334 0.19371 0.0
H69 H 0.76983 0.69191 0.08049 0.0
H70 H 0.78543 0.74254 0.02162 0.0
H71 H 0.7861 0.79716 0.03906 0.0
Mn72 Mn 0.56038 0.41982 0.81556 0.0
Mn73 Mn 0.55942 0.40014 0.59758 0.0
C74 C 0.58014 0.44977 0.70566 0.0
C75 C 0.54514 0.44815 0.94182 0.0
C76 C 0.60169 0.37351 0.72897 0.0
O77 O 0.52618 0.38863 0.81004 0.0
O78 O 0.53054 0.37757 0.66514 0.0
C79 C 0.49897 0.42082 0.55207 0.0
N80 N 0.52875 0.42139 0.53783 0.0
C81 C 0.52235 0.45073 0.40738 0.0
C82 C 0.49163 0.4504 0.42068 0.0
C83 C 0.47992 0.43558 0.49382 0.0
C84 C 0.54027 0.43606 0.46857 0.0
H85 H 0.4898 0.40903 0.60703 0.0
C86 C 0.51832 0.37443 0.7399 0.0
O87 O 0.56149 0.42456 0.94818 0.0
O88 O 0.53431 0.45287 0.86438 0.0
N89 N 0.58617 0.42124 0.52272 0.0
C90 C 0.6162 0.41901 0.51772 0.0
C91 C 0.63148 0.43379 0.45051 0.0
C92 C 0.61562 0.44983 0.38707 0.0
C93 C 0.58463 0.45081 0.39133 0.0
C94 C 0.57068 0.43612 0.46083 0.0
H95 H 0.62832 0.40583 0.56406 0.0
O96 O 0.58977 0.45192 0.78549 0.0
O97 O 0.56066 0.42949 0.69157 0.0
O98 O 0.59175 0.38685 0.797 0.0
O99 O 0.59169 0.37742 0.65169 0.0
C100 C 0.56703 0.46553 0.32876 0.0
C101 C 0.53591 0.4654 0.33647 0.0
H102 H 0.47686 0.46164 0.37556 0.0
H103 H 0.45623 0.43526 0.50477 0.0
H104 H 0.65538 0.43246 0.44695 0.0
H105 H 0.62744 0.46102 0.33486 0.0
H106 H 0.57725 0.47692 0.27441 0.0
H107 H 0.52262 0.47683 0.28794 0.0
Mn108 Mn 0.88531 0.2484 0.07031 0.0
Mn109 Mn 0.90544 0.24743 0.8527 0.0
C110 C 0.85515 0.26689 0.95927 0.0
C111 C 0.85717 0.23271 0.19619 0.0
C112 C 0.93055 0.29076 0.98381 0.0
O113 O 0.91722 0.21494 0.06627 0.0
O114 O 0.92857 0.21918 0.92144 0.0
C115 C 0.88752 0.18622 0.80483 0.0
N116 N 0.88549 0.21606 0.7919 0.0
C117 C 0.85782 0.20881 0.65853 0.0
C118 C 0.85975 0.17802 0.67041 0.0
C119 C 0.8744 0.16669 0.74442 0.0
C120 C 0.87094 0.22718 0.72176 0.0
H121 H 0.89937 0.17735 0.86013 0.0
C122 C 0.93171 0.2072 0.99665 0.0
O123 O 0.88018 0.24981 0.20278 0.0
O124 O 0.85296 0.22151 0.11893 0.0
N125 N 0.8837 0.27358 0.77733 0.0
C126 C 0.88471 0.30374 0.77309 0.0
C127 C 0.86956 0.31863 0.70577 0.0
C128 C 0.85443 0.30229 0.64139 0.0
C129 C 0.85476 0.2712 0.6448 0.0
C130 C 0.86966 0.25764 0.71468 0.0
H131 H 0.89712 0.31628 0.82036 0.0
O132 O 0.85264 0.27688 0.03866 0.0
O133 O 0.87594 0.2479 0.9461 0.0
O134 O 0.91745 0.28063 0.05189 0.0
O135 O 0.92702 0.28042 0.90682 0.0
C136 C 0.84127 0.25316 0.58079 0.0
C137 C 0.84297 0.222 0.5872 0.0
H138 H 0.84978 0.1629 0.62366 0.0
H139 H 0.87593 0.14295 0.7543 0.0
H140 H 0.86989 0.34263 0.70286 0.0
H141 H 0.84301 0.3138 0.58899 0.0
H142 H 0.82976 0.26307 0.52606 0.0
H143 H 0.83254 0.20837 0.53742 0.0
Mn144 Mn 0.06032 0.42216 0.83791 0.0
Mn145 Mn 0.06883 0.40489 0.05571 0.0
C146 C 0.04186 0.4521 0.94883 0.0
C147 C 0.07298 0.45026 0.70934 0.0
C148 C 0.02384 0.3753 0.93883 0.0
O149 O 0.09468 0.39156 0.83608 0.0
O150 O 0.09749 0.38349 0.98302 0.0
C151 C 0.12832 0.43034 0.08825 0.0
N152 N 0.09904 0.42862 0.1085 0.0
C153 C 0.10625 0.4576 0.23938 0.0
C154 C 0.13654 0.45959 0.22002 0.0
C155 C 0.14757 0.44614 0.14358 0.0
C156 C 0.08809 0.442 0.18086 0.0
H157 H 0.13684 0.41961 0.03065 0.0
C158 C 0.1062 0.3792 0.90442 0.0
O159 O 0.05655 0.4266 0.7056 0.0
O160 O 0.08505 0.45525 0.78491 0.0
N161 N 0.04223 0.42444 0.1343 0.0
C162 C 0.01237 0.42092 0.14261 0.0
C163 C -0.00244 0.43454 0.21288 0.0
C164 C 0.01369 0.45088 0.27519 0.0
C165 C 0.04449 0.45353 0.26641 0.0
C166 C 0.05796 0.43994 0.19421 0.0
H167 H -7e-05 0.40794 0.09578 0.0
O168 O 0.03069 0.45347 0.87069 0.0
O169 O 0.06281 0.43305 0.96044 0.0
O170 O 0.03018 0.38854 0.86668 0.0
O171 O 0.03721 0.37987 1.01092 0.0
C172 C 0.06238 0.46898 0.32671 0.0
C173 C 0.09325 0.47091 0.31359 0.0
H174 H 0.15146 0.47163 0.26287 0.0
H175 H 0.1709 0.44767 0.12788 0.0
H176 H 0.9738 0.43224 0.21941 0.0
H177 H 0.00224 0.46122 0.32963 0.0
H178 H 0.05253 0.47945 0.38324 0.0
H179 H 0.10673 0.48302 0.36024 0.0
Mn180 Mn 0.88228 0.75127 0.09158 0.0
Mn181 Mn 0.90044 0.75872 0.30948 0.0
C182 C 0.85219 0.73376 0.20308 0.0
C183 C 0.85415 0.76463 0.9635 0.0
C184 C 0.92829 0.71325 0.19064 0.0
O185 O 0.91367 0.78494 0.08985 0.0
O186 O 0.92237 0.78701 0.23682 0.0
C187 C 0.87817 0.81918 0.34757 0.0
N188 N 0.87819 0.78956 0.36484 0.0
C189 C 0.85107 0.79714 0.4989 0.0
C190 C 0.85085 0.82776 0.48251 0.0
C191 C 0.86418 0.83878 0.40597 0.0
C192 C 0.86494 0.77867 0.43747 0.0
H193 H 0.88904 0.82771 0.29029 0.0
C194 C 0.92653 0.79592 0.15828 0.0
O195 O 0.87733 0.74757 0.95933 0.0
O196 O 0.84976 0.77691 0.03911 0.0
N197 N 0.88021 0.73236 0.38738 0.0
C198 C 0.8825 0.70227 0.39381 0.0
C199 C 0.86851 0.6875 0.46348 0.0
C200 C 0.85315 0.70389 0.5273 0.0
C201 C 0.85188 0.7349 0.5207 0.0
C202 C 0.86564 0.74832 0.44872 0.0
H203 H 0.89476 0.68962 0.34585 0.0
O204 O 0.85035 0.72247 0.12511 0.0
O205 O 0.87188 0.75411 0.21446 0.0
O206 O 0.91509 0.72014 0.11892 0.0
O207 O 0.92418 0.72648 0.26312 0.0
C208 C 0.83778 0.75304 0.58322 0.0
C209 C 0.83758 0.78415 0.57282 0.0
H210 H 0.84022 0.84295 0.5277 0.0
H211 H 0.86405 0.86237 0.39263 0.0
H212 H 0.86981 0.66358 0.46844 0.0
H213 H 0.84261 0.69246 0.58143 0.0
H214 H 0.82718 0.74326 0.63967 0.0
H215 H 0.82662 0.79784 0.62136 0.0
Mn216 Mn 0.56106 0.57171 0.33745 0.0
Mn217 Mn 0.55954 0.59117 0.55543 0.0
C218 C 0.58061 0.54172 0.44749 0.0
C219 C 0.54577 0.54349 0.21105 0.0
C220 C 0.60241 0.61769 0.42579 0.0
O221 O 0.52705 0.60308 0.34193 0.0
O222 O 0.53114 0.61408 0.48692 0.0
C223 C 0.49876 0.57081 0.59791 0.0
N224 N 0.52846 0.5701 0.61367 0.0
C225 C 0.52124 0.54067 0.74353 0.0
C226 C 0.49061 0.54106 0.7285 0.0
C227 C 0.47934 0.55602 0.65494 0.0
C228 C 0.53955 0.55531 0.68336 0.0
H229 H 0.48994 0.58268 0.54259 0.0
C230 C 0.5192 0.61738 0.41179 0.0
O231 O 0.56232 0.56694 0.20487 0.0
O232 O 0.53487 0.53881 0.28838 0.0
N233 N 0.5858 0.56984 0.63139 0.0
C234 C 0.6158 0.57191 0.63791 0.0
C235 C 0.63066 0.55704 0.70583 0.0
C236 C 0.61441 0.54107 0.76846 0.0
C237 C 0.58343 0.54028 0.76269 0.0
C238 C 0.56991 0.55506 0.69254 0.0
H239 H 0.62822 0.58502 0.59218 0.0
O240 O 0.5904 0.53958 0.36787 0.0
O241 O 0.561 0.56191 0.46123 0.0
O242 O 0.59251 0.60458 0.35722 0.0
O243 O 0.5922 0.61366 0.50276 0.0
C244 C 0.56544 0.52566 0.82438 0.0
C245 C 0.53437 0.52595 0.81514 0.0
H246 H 0.47557 0.52981 0.77271 0.0
H247 H 0.45573 0.55642 0.64271 0.0
H248 H 0.65456 0.55823 0.71056 0.0
H249 H 0.62589 0.52981 0.82122 0.0
H250 H 0.57532 0.51421 0.87919 0.0
H251 H 0.52077 0.51455 0.86294 0.0
Mn252 Mn 0.73346 0.24288 0.59205 0.0
Mn253 Mn 0.71586 0.23512 0.80988 0.0
C254 C 0.76303 0.26196 0.70326 0.0
C255 C 0.76176 0.23019 0.46368 0.0
C256 C 0.68624 0.2795 0.69096 0.0
O257 O 0.70314 0.20816 0.59085 0.0
O258 O 0.6948 0.20594 0.73778 0.0
C259 C 0.74107 0.17572 0.84623 0.0
N260 N 0.73954 0.20523 0.86448 0.0
C261 C 0.76766 0.19875 0.99724 0.0
C262 C 0.76937 0.16821 0.98005 0.0
C263 C 0.75629 0.15671 0.90362 0.0
C264 C 0.75263 0.21663 0.93675 0.0
H265 H 0.7305 0.16682 0.78885 0.0
C266 C 0.69074 0.19681 0.6594 0.0
O267 O 0.73801 0.24643 0.45965 0.0
O268 O 0.76677 0.21828 0.53944 0.0
N269 N 0.73513 0.26227 0.88773 0.0
C270 C 0.73138 0.29219 0.89496 0.0
C271 C 0.74481 0.30748 0.96477 0.0
C272 C 0.76112 0.29172 0.02791 0.0
C273 C 0.76387 0.26082 0.02052 0.0
C274 C 0.75058 0.2469 0.94852 0.0
H275 H 0.71838 0.30435 0.84757 0.0
O276 O 0.7644 0.27296 0.62492 0.0
O277 O 0.74421 0.24079 0.71494 0.0
O278 O 0.69967 0.27292 0.61937 0.0
O279 O 0.69076 0.26648 0.7636 0.0
C280 C 0.77901 0.24326 0.08231 0.0
C281 C 0.78074 0.21222 0.07114 0.0
H282 H 0.78095 0.15348 0.02451 0.0
H283 H 0.75761 0.1332 0.88957 0.0
H284 H 0.74236 0.3313 0.97034 0.0
H285 H 0.77124 0.30353 0.08212 0.0
H286 H 0.78925 0.25345 0.13874 0.0
H287 H 0.79248 0.19897 0.1191 0.0
Mn288 Mn 0.38265 0.25109 0.58339 0.0
Mn289 Mn 0.39978 0.25918 0.80145 0.0
C290 C 0.35286 0.23214 0.69397 0.0
C291 C 0.35453 0.26374 0.45457 0.0
C292 C 0.42963 0.21456 0.6838 0.0
O293 O 0.413 0.28579 0.58254 0.0
O294 O 0.42098 0.28824 0.72962 0.0
C295 C 0.37442 0.31862 0.8363 0.0
N296 N 0.376 0.28916 0.85512 0.0
C297 C 0.34776 0.29591 0.98738 0.0
C298 C 0.34601 0.3264 0.96966 0.0
C299 C 0.35912 0.33774 0.89317 0.0
C300 C 0.36285 0.2779 0.92736 0.0
H301 H 0.385 0.32739 0.77886 0.0
C302 C 0.42524 0.29725 0.65129 0.0
O303 O 0.37824 0.24742 0.45092 0.0
O304 O 0.34947 0.27571 0.53021 0.0
N305 N 0.38038 0.23217 0.87917 0.0
C306 C 0.3841 0.20225 0.8868 0.0
C307 C 0.3706 0.18711 0.9566 0.0
C308 C 0.35426 0.20299 0.01936 0.0
C309 C 0.35154 0.23388 1.01157 0.0
C310 C 0.36489 0.24766 0.93956 0.0
H311 H 0.39714 0.19001 0.83973 0.0
O312 O 0.35164 0.22105 0.61567 0.0
O313 O 0.37163 0.25334 0.70597 0.0
O314 O 0.41638 0.22101 0.61174 0.0
O315 O 0.42496 0.22775 0.7561 0.0
C316 C 0.33638 0.25157 0.07296 0.0
C317 C 0.33466 0.28258 0.06135 0.0
H318 H 0.33438 0.34122 1.01373 0.0
H319 H 0.35776 0.36121 0.87868 0.0
H320 H 0.37303 0.16329 0.96248 0.0
H321 H 0.34409 0.19129 0.07359 0.0
H322 H 0.32612 0.24149 0.12941 0.0
H323 H 0.32288 0.29593 0.109 0.0
Mn324 Mn 0.23268 0.74246 0.0905 0.0
Mn325 Mn 0.21458 0.73468 0.30819 0.0
C326 C 0.26275 0.7599 0.20232 0.0
C327 C 0.26083 0.72921 0.96242 0.0
C328 C 0.18666 0.78032 0.19004 0.0
O329 O 0.20133 0.70876 0.08809 0.0
O330 O 0.19264 0.7065 0.23496 0.0
C331 C 0.23695 0.67419 0.34506 0.0
N332 N 0.23686 0.70376 0.36302 0.0
C333 C 0.264 0.69596 0.49702 0.0
C334 C 0.26429 0.66537 0.47995 0.0
C335 C 0.25097 0.65449 0.40309 0.0
C336 C 0.25011 0.71453 0.43593 0.0
H337 H 0.2261 0.66576 0.28752 0.0
C338 C 0.18847 0.6977 0.15628 0.0
O339 O 0.23765 0.74627 0.95829 0.0
O340 O 0.26523 0.71689 0.03792 0.0
N341 N 0.2348 0.76092 0.3867 0.0
C342 C 0.23248 0.79099 0.39374 0.0
C343 C 0.24646 0.80564 0.4638 0.0
C344 C 0.26183 0.78915 0.52737 0.0
C345 C 0.26312 0.75815 0.52014 0.0
C346 C 0.24938 0.74485 0.4478 0.0
H347 H 0.2202 0.80373 0.34599 0.0
O348 O 0.26456 0.77127 0.1245 0.0
O349 O 0.24311 0.73949 0.21336 0.0
O350 O 0.19983 0.77352 0.11821 0.0
O351 O 0.19082 0.767 0.26232 0.0
C352 C 0.27723 0.73991 0.58236 0.0
C353 C 0.27748 0.70882 0.57131 0.0
H354 H 0.27495 0.65011 0.52484 0.0
H355 H 0.25116 0.63093 0.38921 0.0
H356 H 0.24513 0.82956 0.46925 0.0
H357 H 0.27235 0.80048 0.58179 0.0
H358 H 0.28781 0.74959 0.63908 0.0
H359 H 0.28846 0.69504 0.6196 0.0
Mn360 Mn 0.23083 0.24545 0.06117 0.0
Mn361 Mn 0.21015 0.24625 0.84393 0.0
C362 C 0.2608 0.22707 0.94965 0.0
C363 C 0.25908 0.26121 0.18683 0.0
C364 C 0.18557 0.20286 0.97543 0.0
O365 O 0.19873 0.27869 0.05781 0.0
O366 O 0.18692 0.2742 0.91333 0.0
C367 C 0.22752 0.3077 0.79715 0.0
N368 N 0.22971 0.2779 0.78344 0.0
C369 C 0.25726 0.28564 0.65029 0.0
C370 C 0.25516 0.31639 0.66294 0.0
C371 C 0.24048 0.32745 0.73722 0.0
C372 C 0.24429 0.26703 0.71306 0.0
H373 H 0.21571 0.31637 0.85277 0.0
C374 C 0.18392 0.28623 0.98856 0.0
O375 O 0.23613 0.24403 0.1935 0.0
O376 O 0.26315 0.27244 0.1096 0.0
N377 N 0.23196 0.22042 0.76773 0.0
C378 C 0.2311 0.19027 0.76265 0.0
C379 C 0.24629 0.17564 0.6949 0.0
C380 C 0.26127 0.19223 0.63092 0.0
C381 C 0.26075 0.2233 0.63509 0.0
C382 C 0.24581 0.2366 0.70533 0.0
H383 H 0.21878 0.17754 0.80956 0.0
O384 O 0.26355 0.21711 0.02898 0.0
O385 O 0.2399 0.24598 0.93682 0.0
O386 O 0.19882 0.21315 0.0431 0.0
O387 O 0.18896 0.21299 0.89814 0.0
C388 C 0.27407 0.24158 0.57149 0.0
C389 C 0.27217 0.27272 0.57865 0.0
H390 H 0.26501 0.33168 0.61658 0.0
H391 H 0.23883 0.35115 0.74772 0.0
H392 H 0.24609 0.15165 0.69135 0.0
H393 H 0.27272 0.18091 0.5782 0.0
H394 H 0.28563 0.23188 0.5165 0.0
H395 H 0.28251 0.28652 0.52924 0.0
Mn396 Mn 0.38494 0.74202 0.56879 0.0
Mn397 Mn 0.40303 0.73509 0.35078 0.0
C398 C 0.35485 0.75983 0.45751 0.0
C399 C 0.35674 0.7287 0.69664 0.0
C400 C 0.4309 0.78034 0.47063 0.0
O401 O 0.4161 0.70807 0.56977 0.0
O402 O 0.42488 0.70655 0.42283 0.0
C403 C 0.38078 0.67473 0.31109 0.0
N404 N 0.38076 0.7044 0.29464 0.0
C405 C 0.35354 0.69721 0.16043 0.0
C406 C 0.35334 0.66654 0.17602 0.0
C407 C 0.36675 0.65529 0.25222 0.0
C408 C 0.36745 0.71551 0.22231 0.0
H409 H 0.39175 0.66601 0.36803 0.0
C410 C 0.42888 0.69723 0.50103 0.0
O411 O 0.38005 0.74556 0.70108 0.0
O412 O 0.35227 0.71651 0.62093 0.0
N413 N 0.38279 0.76167 0.27345 0.0
C414 C 0.38507 0.79178 0.26777 0.0
C415 C 0.37102 0.80674 0.19849 0.0
C416 C 0.3556 0.79054 0.13431 0.0
C417 C 0.35434 0.75951 0.14017 0.0
C418 C 0.36815 0.74588 0.21178 0.0
H419 H 0.39736 0.8043 0.31602 0.0
O420 O 0.35312 0.77102 0.53562 0.0
O421 O 0.37449 0.73947 0.44581 0.0
O422 O 0.41782 0.77316 0.54222 0.0
O423 O 0.4268 0.76724 0.39791 0.0
C424 C 0.34018 0.74154 0.07725 0.0
C425 C 0.33998 0.71041 0.08686 0.0
H426 H 0.34267 0.65148 0.13046 0.0
H427 H 0.36664 0.63166 0.26492 0.0
H428 H 0.37231 0.83068 0.19412 0.0
H429 H 0.34502 0.80211 0.0805 0.0
H430 H 0.32952 0.75149 0.02108 0.0
H431 H 0.32898 0.69685 0.03801 0.0
Mn432 Mn 0.55476 0.07436 0.81758 0.0
Mn433 Mn 0.55681 0.09382 0.59973 0.0
C434 C 0.53505 0.04458 0.70727 0.0
C435 C 0.56962 0.04589 0.94389 0.0
C436 C 0.51395 0.12071 0.72883 0.0
O437 O 0.58914 0.10533 0.8136 0.0
O438 O 0.58537 0.11643 0.66867 0.0
C439 C 0.61746 0.0729 0.55785 0.0
N440 N 0.58778 0.07245 0.54179 0.0
C441 C 0.59488 0.04291 0.41196 0.0
C442 C 0.6255 0.04302 0.42733 0.0
C443 C 0.63681 0.05791 0.50101 0.0
C444 C 0.57664 0.05775 0.47194 0.0
H445 H 0.62634 0.08472 0.61327 0.0
C446 C 0.59729 0.11954 0.74393 0.0
O447 O 0.55329 0.06951 0.95013 0.0
O448 O 0.58056 0.04116 0.86663 0.0
N449 N 0.53045 0.07271 0.52342 0.0
C450 C 0.50047 0.07499 0.51671 0.0
C451 C 0.48555 0.06016 0.44874 0.0
C452 C 0.50174 0.04403 0.38627 0.0
C453 C 0.53271 0.04301 0.39226 0.0
C454 C 0.54628 0.05776 0.46245 0.0
H455 H 0.4881 0.08824 0.56229 0.0
O456 O 0.52513 0.04256 0.78676 0.0
O457 O 0.55489 0.06456 0.69378 0.0
O458 O 0.52363 0.10755 0.79758 0.0
O459 O 0.52428 0.1166 0.65204 0.0
C460 C 0.55064 0.0282 0.33076 0.0
C461 C 0.58171 0.02825 0.34025 0.0
H462 H 0.64049 0.03161 0.38328 0.0
H463 H 0.66042 0.0581 0.51348 0.0
H464 H 0.46167 0.06152 0.44384 0.0
H465 H 0.49022 0.03279 0.33348 0.0
H466 H 0.54072 0.01676 0.27593 0.0
H467 H 0.59525 0.01669 0.29262 0.0
Mn468 Mn 0.06039 0.91937 0.31983 0.0
Mn469 Mn 0.05947 0.89924 0.10213 0.0
C470 C 0.07874 0.94966 0.20905 0.0
C471 C 0.04458 0.94739 0.44582 0.0
C472 C 0.10288 0.87433 0.23299 0.0
O473 O 0.02718 0.88726 0.31569 0.0
O474 O 0.03146 0.87592 0.17085 0.0
C475 C -0.00175 0.91699 0.05507 0.0
N476 N 0.028 0.91907 0.04169 0.0
C477 C 0.02049 0.94666 0.90836 0.0
C478 C 0.98978 0.94466 0.92065 0.0
C479 C 0.97863 0.93002 0.99487 0.0
C480 C 0.03896 0.93363 0.9714 0.0
H481 H 0.98952 0.90519 0.11061 0.0
C482 C 0.01952 0.87272 0.24603 0.0
O483 O 0.06177 0.92441 0.45226 0.0
O484 O 0.0334 0.95161 0.3686 0.0
N485 N 0.08539 0.92113 0.02663 0.0
C486 C 0.11549 0.92024 0.0221 0.0
C487 C 0.1302 0.93542 0.95455 0.0
C488 C 0.11374 0.95044 0.89026 0.0
C489 C 0.08273 0.94997 0.89397 0.0
C490 C 0.06934 0.93506 0.96404 0.0
H491 H 0.12812 0.90792 0.06932 0.0
O492 O 0.08868 0.95223 0.28848 0.0
O493 O 0.05983 0.92878 0.19571 0.0
O494 O 0.09268 0.88737 0.30114 0.0
O495 O 0.09255 0.87781 0.15599 0.0
C496 C 0.06459 0.96335 0.83009 0.0
C497 C 0.0335 0.96153 0.83684 0.0
H498 H 0.97459 0.95456 0.87407 0.0
H499 H 0.95496 0.92845 1.0051 0.0
H500 H 0.15415 0.9352 0.95142 0.0
H501 H 0.12512 0.96188 0.83769 0.0
H502 H 0.07436 0.97487 0.77521 0.0
H503 H 0.01979 0.97189 0.78719 0.0
Mn504 Mn 0.55385 0.92232 0.339 0.0
Mn505 Mn 0.55537 0.9028 0.55697 0.0
C506 C 0.5347 0.95249 0.44924 0.0
C507 C 0.56912 0.95048 0.21258 0.0
C508 C 0.51234 0.87649 0.42706 0.0
O509 O 0.58767 0.89074 0.34339 0.0
O510 O 0.58368 0.8798 0.48842 0.0
C511 C 0.61624 0.92281 0.60012 0.0
N512 N 0.58654 0.92372 0.61555 0.0
C513 C 0.59386 0.95301 0.74579 0.0
C514 C 0.62451 0.95233 0.73127 0.0
C515 C 0.63572 0.93737 0.65764 0.0
C516 C 0.57549 0.93852 0.68528 0.0
H517 H 0.62501 0.91092 0.54477 0.0
C518 C 0.59555 0.87645 0.41324 0.0
O519 O 0.55244 0.92711 0.20641 0.0
O520 O 0.58018 0.95506 0.28982 0.0
N521 N 0.52919 0.92425 0.63282 0.0
C522 C 0.49917 0.92239 0.63894 0.0
C523 C 0.48436 0.93735 0.70677 0.0
C524 C 0.50067 0.9532 0.76966 0.0
C525 C 0.53165 0.95381 0.76423 0.0
C526 C 0.54513 0.93894 0.69418 0.0
H527 H 0.4867 0.9094 0.59293 0.0
O528 O 0.52486 0.9547 0.36966 0.0
O529 O 0.55406 0.93207 0.46293 0.0
O530 O 0.52221 0.88963 0.35863 0.0
O531 O 0.52262 0.88043 0.50405 0.0
C532 C 0.5497 0.96834 0.82615 0.0
C533 C 0.58078 0.96785 0.81726 0.0
H534 H 0.6396 0.96341 0.77583 0.0
H535 H 0.65934 0.93679 0.64574 0.0
H536 H 0.46045 0.93632 0.7112 0.0
H537 H 0.48922 0.96454 0.82234 0.0
H538 H 0.53985 0.97987 0.88087 0.0
H539 H 0.59441 0.97915 0.86527 0.0
Mn540 Mn 0.05465 0.07121 0.84178 0.0
Mn541 Mn 0.04725 0.08889 0.05974 0.0
C542 C 0.07371 0.04158 0.95269 0.0
C543 C 0.04185 0.04294 0.71345 0.0
C544 C 0.09163 0.11822 0.94061 0.0
O545 O 0.02013 0.10169 0.8408 0.0
O546 O 0.01836 0.11025 0.98769 0.0
C547 C 0.98771 0.06417 0.0956 0.0
N548 N 0.01716 0.06547 0.11412 0.0
C549 C 0.01034 0.03737 0.24674 0.0
C550 C 0.97987 0.03589 0.22926 0.0
C551 C 0.96857 0.04907 0.15277 0.0
C552 C 0.02837 0.05227 0.18643 0.0
H553 H 0.97896 0.07482 0.03818 0.0
C554 C 0.0091 0.1143 0.90949 0.0
O555 O 0.05809 0.06671 0.70943 0.0
O556 O 0.02998 0.03792 0.78922 0.0
N557 N 0.07411 0.06937 0.13774 0.0
C558 C 0.10399 0.07295 0.14537 0.0
C559 C 0.11906 0.05944 0.21538 0.0
C560 C 0.10314 0.04325 0.27836 0.0
C561 C 0.0723 0.04071 0.27063 0.0
C562 C 0.05858 0.05407 0.19844 0.0
H563 H 0.11627 0.08587 0.09813 0.0
O564 O 0.08462 0.04015 0.87427 0.0
O565 O 0.05263 0.06046 0.96465 0.0
O566 O 0.08474 0.10496 0.86893 0.0
O567 O 0.07881 0.11367 1.0135 0.0
C568 C 0.05459 0.02572 0.33227 0.0
C569 C 0.02361 0.02421 0.32077 0.0
H570 H 0.96504 0.02442 0.27355 0.0
H571 H 0.9451 0.04793 0.13851 0.0
H572 H 0.14284 0.06174 0.22125 0.0
H573 H 0.11478 0.03307 0.33273 0.0
H574 H 0.06461 0.01543 0.38883 0.0
H575 H 0.01025 0.01255 0.36861 0.0
C576 C 0.17208 0.64608 0.18272 0.0
C577 C 0.16519 0.67475 0.15041 0.0
C578 C 0.11478 0.67025 0.20635 0.0
C579 C 0.12111 0.64142 0.2389 0.0
N580 N 0.15562 0.60132 0.25857 0.0
N581 N 0.12847 0.70986 0.10646 0.0
C582 C 0.14992 0.62922 0.22771 0.0
C583 C 0.13591 0.68536 0.15415 0.0
N584 N 0.19996 0.63531 0.16894 0.0
N585 N 0.08833 0.68315 0.22658 0.0
H586 H 0.14395 0.72081 0.06717 0.0
H587 H 0.10685 0.71764 0.09995 0.0
H588 H 0.07314 0.67252 0.26709 0.0
H589 H 0.08292 0.70501 0.21115 0.0
H590 H 0.20783 0.61517 0.1926 0.0
H591 H 0.21545 0.64712 0.13189 0.0
H592 H 0.1755 0.59006 0.25004 0.0
H593 H 0.14007 0.58925 0.29436 0.0
C594 C 0.6497 0.86661 0.43035 0.0
C595 C 0.6207 0.8552 0.41674 0.0
C596 C 0.63391 0.81031 0.49947 0.0
C597 C 0.66338 0.82022 0.50613 0.0
N598 N 0.69931 0.85883 0.49084 0.0
N599 N 0.58703 0.81413 0.4235 0.0
C600 C 0.6712 0.8489 0.47554 0.0
C601 C 0.61354 0.82628 0.44676 0.0
N602 N 0.65623 0.89453 0.40118 0.0
N603 N 0.62556 0.78557 0.5447 0.0
H604 H 0.57258 0.82542 0.38212 0.0
H605 H 0.58095 0.79231 0.43706 0.0
H606 H 0.64045 0.77399 0.58445 0.0
H607 H 0.60374 0.77822 0.54894 0.0
H608 H 0.67628 0.9053 0.4116 0.0
H609 H 0.64111 0.9071 0.36512 0.0
H610 H 0.7078 0.87885 0.46822 0.0
H611 H 0.71435 0.84641 0.52783 0.0
C612 C 0.46378 0.36606 0.72391 0.0
C613 C 0.4926 0.35387 0.73519 0.0
C614 C 0.47774 0.31 0.64973 0.0
C615 C 0.44839 0.32044 0.64655 0.0
N616 N 0.41334 0.35946 0.66869 0.0
N617 N 0.52533 0.31212 0.72233 0.0
C618 C 0.44146 0.34899 0.67998 0.0
C619 C 0.49888 0.32505 0.7023 0.0
N620 N 0.45823 0.39418 0.75319 0.0
N621 N 0.48529 0.28567 0.60131 0.0
H622 H 0.54059 0.32272 0.76279 0.0
H623 H 0.53069 0.29025 0.70675 0.0
H624 H 0.46986 0.27472 0.56177 0.0
H625 H 0.50696 0.2781 0.59439 0.0
H626 H 0.43862 0.40568 0.7422 0.0
H627 H 0.47382 0.40636 0.78867 0.0
H628 H 0.40528 0.37906 0.69565 0.0
H629 H 0.39776 0.34777 0.63153 0.0
C630 C 0.9403 0.15264 0.98136 0.0
C631 C 0.95235 0.18154 0.99307 0.0
C632 C -0.00361 0.16689 0.90887 0.0
C633 C 0.98597 0.13748 0.90473 0.0
N634 N 0.94705 0.10223 0.92538 0.0
N635 N 0.994 0.21441 0.98242 0.0
C636 C 0.95743 0.1304 0.93738 0.0
C637 C 0.98119 0.18794 0.96131 0.0
N638 N 0.91221 0.14695 1.01023 0.0
N639 N 0.02087 0.17454 0.86157 0.0
H640 H 0.98329 0.2295 0.02322 0.0
H641 H 0.01584 0.21987 0.96754 0.0
H642 H 0.03194 0.15916 0.82216 0.0
H643 H 0.02848 0.19627 0.85544 0.0
H644 H 0.90082 0.12726 0.99903 0.0
H645 H 0.89998 0.16248 0.04575 0.0
H646 H 0.92741 0.09408 0.95157 0.0
H647 H 0.95884 0.08669 0.88836 0.0
C648 C 0.11894 0.32658 0.90166 0.0
C649 C 0.12929 0.35602 0.89878 0.0
C650 C 0.175 0.34078 0.97516 0.0
C651 C 0.16311 0.31175 0.98528 0.0
N652 N 0.12178 0.27853 0.97181 0.0
N653 N 0.16834 0.39115 0.9187 0.0
C654 C 0.13433 0.30529 0.95274 0.0
C655 C 0.15787 0.36304 0.93131 0.0
N656 N 0.09442 0.31911 0.85411 0.0
N657 N 0.20287 0.34661 1.00579 0.0
H658 H 0.15645 0.40668 0.88194 0.0
H659 H 0.18831 0.39916 0.94302 0.0
H660 H 0.21514 0.33099 0.04083 0.0
H661 H 0.21393 0.36664 0.99767 0.0
H662 H 0.08684 0.29741 0.84689 0.0
H663 H 0.08324 0.33465 0.81556 0.0
H664 H 0.09998 0.27298 0.95653 0.0
H665 H 0.13266 0.26312 1.0111 0.0
C666 C 0.00021 0.82329 0.20924 0.0
C667 C 0.9939 0.85209 0.24214 0.0
C668 C 0.94292 0.8475 0.18572 0.0
C669 C 0.94981 0.81888 0.15291 0.0
N670 N 0.98654 0.78386 0.10851 0.0
N671 N 0.95936 0.89211 0.26263 0.0
C672 C 0.97909 0.80828 0.15662 0.0
C673 C 0.96508 0.86429 0.23114 0.0
N674 N 0.02664 0.81036 0.22951 0.0
N675 N 0.91504 0.8583 0.17196 0.0
H676 H 0.97493 0.90411 0.29872 0.0
H677 H 0.93946 0.90336 0.25445 0.0
H678 H 0.89954 0.84653 0.13468 0.0
H679 H 0.90718 0.87842 0.19582 0.0
H680 H 0.03205 0.78853 0.21374 0.0
H681 H 0.0418 0.82093 0.2704 0.0
H682 H 0.00817 0.77611 0.10201 0.0
H683 H 0.97108 0.77297 0.06892 0.0
C684 C 0.44369 0.64501 0.47483 0.0
C685 C 0.45162 0.67368 0.50543 0.0
C686 C 0.5013 0.66756 0.44523 0.0
C687 C 0.49406 0.63863 0.41532 0.0
N688 N 0.45845 0.59936 0.40013 0.0
N689 N 0.48958 0.70827 0.54354 0.0
C690 C 0.46508 0.62726 0.42931 0.0
C691 C 0.48108 0.68354 0.49837 0.0
N692 N 0.41559 0.63513 0.49039 0.0
N693 N 0.52774 0.67971 0.4214 0.0
H694 H 0.47479 0.71987 0.58357 0.0
H695 H 0.51142 0.71561 0.54744 0.0
H696 H 0.54202 0.66842 0.37957 0.0
H697 H 0.53386 0.70153 0.43493 0.0
H698 H 0.40703 0.61513 0.46775 0.0
H699 H 0.40063 0.64757 0.52756 0.0
H700 H 0.43842 0.5886 0.41081 0.0
H701 H 0.47349 0.58678 0.3638 0.0
C702 C 0.6744 0.14509 0.68779 0.0
C703 C 0.66757 0.17364 0.65418 0.0
C704 C 0.61685 0.16896 0.70773 0.0
C705 C 0.62302 0.14012 0.74056 0.0
N706 N 0.65737 0.09988 0.7601 0.0
N707 N 0.63084 0.20844 0.60783 0.0
C708 C 0.65191 0.12799 0.7306 0.0
C709 C 0.6382 0.18406 0.65625 0.0
N710 N 0.70258 0.13465 0.6777 0.0
N711 N 0.59032 0.18186 0.72685 0.0
H712 H 0.64642 0.21945 0.56907 0.0
H713 H 0.60919 0.216 0.60011 0.0
H714 H 0.57493 0.17121 0.76667 0.0
H715 H 0.585 0.20373 0.71129 0.0
H716 H 0.71053 0.11505 0.70488 0.0
H717 H 0.71832 0.14636 0.64127 0.0
H718 H 0.67706 0.08842 0.7501 0.0
H719 H 0.64162 0.08768 0.7948 0.0
C720 C 0.00529 0.32549 0.98267 0.0
C721 C -0.00085 0.35365 0.94457 0.0
C722 C 0.94579 0.34325 0.95466 0.0
C723 C 0.95237 0.31517 0.99169 0.0
N724 N 0.98685 0.28465 0.07005 0.0
N725 N 0.96351 0.3918 0.90915 0.0
C726 C 0.98169 0.30785 1.01464 0.0
C727 C 0.96931 0.36326 0.93429 0.0
N728 N 0.03378 0.31532 0.98673 0.0
N729 N 0.91687 0.35075 0.94063 0.0
H730 H 0.98004 0.40683 0.89191 0.0
H731 H 0.9425 0.40127 0.90928 0.0
H732 H 0.89947 0.33766 0.96384 0.0
H733 H 0.91005 0.36916 0.90473 0.0
H734 H 0.0393 0.29372 1.00488 0.0
H735 H 0.05175 0.32769 0.96451 0.0
H736 H 0.00764 0.2797 0.09587 0.0
H737 H 0.96963 0.27246 0.098 0.0
C738 C 0.49706 0.17217 0.75887 0.0
C739 C 0.48974 0.14282 0.73551 0.0
C740 C 0.44167 0.15993 0.67855 0.0
C741 C 0.45128 0.18982 0.68922 0.0
N742 N 0.48954 0.22443 0.73194 0.0
N743 N 0.45414 0.10738 0.68389 0.0
C744 C 0.47942 0.19588 0.72731 0.0
C745 C 0.46167 0.13632 0.69837 0.0
N746 N 0.52017 0.17723 0.81459 0.0
N747 N 0.41312 0.15416 0.65379 0.0
H748 H 0.46719 0.08987 0.70675 0.0
H749 H 0.43575 0.10064 0.6478 0.0
H750 H 0.39804 0.17075 0.63734 0.0
H751 H 0.40369 0.1331 0.65368 0.0
H752 H 0.52516 0.19803 0.84058 0.0
H753 H 0.53221 0.15993 0.84276 0.0
H754 H 0.51111 0.22993 0.75009 0.0
H755 H 0.47714 0.24247 0.71025 0.0
C756 C 0.65426 0.63448 0.45752 0.0
C757 C 0.62631 0.64011 0.41847 0.0
C758 C 0.63509 0.69338 0.4262 0.0
C759 C 0.66318 0.68825 0.46569 0.0
N760 N 0.70222 0.65377 0.50259 0.0
N761 N 0.59617 0.67343 0.33454 0.0
C762 C 0.67358 0.65869 0.47726 0.0
C763 C 0.61855 0.66914 0.39329 0.0
N764 N 0.6624 0.60582 0.47359 0.0
N765 N 0.62397 0.72154 0.42132 0.0
H766 H 0.58498 0.65575 0.30534 0.0
H767 H 0.59112 0.69405 0.30744 0.0
H768 H 0.63549 0.73996 0.44468 0.0
H769 H 0.60236 0.72623 0.40158 0.0
H770 H 0.68072 0.59977 0.51104 0.0
H771 H 0.64995 0.5879 0.45057 0.0
H772 H 0.71216 0.63294 0.50339 0.0
H773 H 0.71687 0.67081 0.51844 0.0
C774 C 0.13705 0.79932 0.23252 0.0
C775 C 0.16529 0.80523 0.19501 0.0
C776 C 0.15521 0.85874 0.20407 0.0
C777 C 0.12711 0.85238 0.24103 0.0
N778 N 0.09643 0.81813 0.3197 0.0
N779 N 0.20381 0.8406 0.16122 0.0
C780 C 0.11962 0.82309 0.26429 0.0
C781 C 0.17513 0.83502 0.18484 0.0
N782 N 0.12665 0.77086 0.23638 0.0
N783 N 0.16282 0.88762 0.18905 0.0
H784 H 0.21888 0.82389 0.1457 0.0
H785 H 0.21333 0.86163 0.1615 0.0
H786 H 0.14982 0.90522 0.21155 0.0
H787 H 0.18124 0.89416 0.15294 0.0
H788 H 0.105 0.76554 0.25409 0.0
H789 H 0.13889 0.75274 0.2144 0.0
H790 H 0.09143 0.79735 0.34575 0.0
H791 H 0.08428 0.83544 0.34737 0.0
C792 C 0.95972 0.63481 0.20341 0.0
C793 C 0.9879 0.64114 0.23996 0.0
C794 C 0.97795 0.69421 0.23246 0.0
C795 C 0.94965 0.68834 0.19518 0.0
N796 N 0.91105 0.65302 0.1613 0.0
N797 N 0.01879 0.67528 0.31866 0.0
C798 C 0.93977 0.65856 0.18471 0.0
C799 C 0.99546 0.67039 0.26356 0.0
N800 N 0.95205 0.60594 0.18832 0.0
N801 N 0.98835 0.72266 0.23673 0.0
H802 H 0.03103 0.65793 0.34581 0.0
H803 H 0.02386 0.69601 0.34498 0.0
H804 H 0.97604 0.74081 0.21533 0.0
H805 H 0.01003 0.72797 0.25423 0.0
H806 H 0.93352 0.59943 0.1525 0.0
H807 H 0.96508 0.58832 0.21052 0.0
H808 H 0.90152 0.632 0.16129 0.0
H809 H 0.89596 0.66976 0.14621 0.0
C810 C 0.11072 0.16805 0.98276 0.0
C811 C 0.11638 0.13982 0.94444 0.0
C812 C 0.16979 0.15041 0.94717 0.0
C813 C 0.16369 0.17856 0.98461 0.0
N814 N 0.13027 0.20913 0.06706 0.0
N815 N 0.15159 0.10157 0.90609 0.0
C816 C 0.13472 0.18584 1.01136 0.0
C817 C 0.14606 0.13025 0.93061 0.0
N818 N 0.08229 0.17818 0.99012 0.0
N819 N 0.19847 0.14296 0.92936 0.0
H820 H 0.1349 0.08629 0.89247 0.0
H821 H 0.17265 0.09223 0.90373 0.0
H822 H 0.21621 0.15603 0.95048 0.0
H823 H 0.20473 0.12456 0.89249 0.0
H824 H 0.07701 0.19983 1.00835 0.0
H825 H 0.06402 0.16572 0.97053 0.0
H826 H 0.10988 0.21394 0.09565 0.0
H827 H 0.14774 0.22164 0.09233 0.0
C828 C 0.63626 0.29829 0.73204 0.0
C829 C 0.6646 0.30425 0.69522 0.0
C830 C 0.65412 0.35776 0.70187 0.0
C831 C 0.62582 0.35137 0.73737 0.0
N832 N 0.59488 0.31731 0.81582 0.0
N833 N 0.70294 0.33977 0.66076 0.0
C834 C 0.61837 0.32213 0.76146 0.0
C835 C 0.67424 0.33408 0.68405 0.0
N836 N 0.62619 0.26975 0.73739 0.0
N837 N 0.66175 0.38665 0.68715 0.0
H838 H 0.71815 0.32313 0.64596 0.0
H839 H 0.71235 0.36084 0.6603 0.0
H840 H 0.64858 0.40421 0.70895 0.0
H841 H 0.68036 0.39328 0.65206 0.0
H842 H 0.60453 0.26428 0.75448 0.0
H843 H 0.63878 0.2516 0.71739 0.0
H844 H 0.58976 0.29664 0.8424 0.0
H845 H 0.58256 0.33471 0.84234 0.0
C846 C 0.4798 0.80072 0.42664 0.0
C847 C 0.45172 0.80576 0.46616 0.0
C848 C 0.46053 0.85956 0.4586 0.0
C849 C 0.48847 0.85403 0.41948 0.0
N850 N 0.51864 0.82082 0.33524 0.0
N851 N 0.41263 0.84015 0.50341 0.0
C852 C 0.49627 0.82503 0.39399 0.0
C853 C 0.44127 0.8353 0.47806 0.0
N854 N 0.49097 0.77259 0.42149 0.0
N855 N 0.45233 0.88819 0.47494 0.0
H856 H 0.39801 0.82306 0.51901 0.0
H857 H 0.40265 0.86096 0.50445 0.0
H858 H 0.46472 0.90614 0.45191 0.0
H859 H 0.43405 0.89418 0.5125 0.0
H860 H 0.51258 0.76797 0.40172 0.0
H861 H 0.47951 0.75414 0.44467 0.0
H862 H 0.52369 0.80024 0.30789 0.0
H863 H 0.52984 0.83854 0.30638 0.0
C864 C 0.06413 0.50892 0.11379 0.0
C865 C 0.03632 0.51862 0.14608 0.0
C866 C 0.01087 0.48512 0.04543 0.0
C867 C 0.03878 0.4768 1.01023 0.0
N868 N 0.09192 0.48672 1.00094 0.0
N869 N 0.98288 0.51577 0.14467 0.0
C870 C 0.06512 0.49047 0.04063 0.0
C871 C 0.00962 0.50661 0.11285 0.0
N872 N 0.0902 0.51745 0.15222 0.0
N873 N 0.98508 0.47277 1.01703 0.0
H874 H 0.98085 0.53178 0.19372 0.0
H875 H 0.96283 0.50744 0.12095 0.0
H876 H 0.98382 0.45653 0.96837 0.0
H877 H 0.98382 0.45653 0.96837 0.0
H878 H 0.11093 0.51166 0.1272 0.0
H879 H 0.09141 0.52826 0.21228 0.0
H880 H 0.09536 0.47559 0.94192 0.0
H881 H 0.09536 0.47559 0.94192 0.0
C882 C 0.81747 0.7046 0.29835 0.0
C883 C 0.82726 0.73211 0.26383 0.0
C884 C 0.79715 0.75948 0.36771 0.0
C885 C 0.78511 0.73224 0.39736 0.0
N886 N 0.78181 0.67887 0.39007 0.0
N887 N 0.82099 0.78529 0.24935 0.0
C888 C 0.79486 0.70466 0.3631 0.0
C889 C 0.81529 0.75941 0.29333 0.0
N890 N 0.8305 0.67875 0.27159 0.0
N891 N 0.79149 0.78541 0.41153 0.0
H892 H 0.83152 0.78601 0.18886 0.0
H893 H 0.8126 0.80594 0.26658 0.0
H894 H 0.78097 0.78622 0.47201 0.0
H895 H 0.79993 0.80603 0.39417 0.0
H896 H 0.82662 0.65826 0.3008 0.0
H897 H 0.84691 0.67805 0.22363 0.0
H898 H 0.78566 0.65832 0.36104 0.0
H899 H 0.7654 0.67825 0.43805 0.0
C900 C 0.60936 0.50638 0.54261 0.0
C901 C 0.58208 0.51657 0.50812 0.0
C902 C 0.55472 0.4865 0.61219 0.0
C903 C 0.58181 0.47486 0.64475 0.0
N904 N 0.63565 0.47497 0.64168 0.0
N905 N 0.52849 0.51192 0.49963 0.0
C906 C 0.60923 0.48513 0.61086 0.0
C907 C 0.55486 0.50507 0.53922 0.0
N908 N 0.63556 0.51708 0.51122 0.0
N909 N 0.52791 0.48065 0.64949 0.0
H910 H 0.52693 0.52286 0.4399 0.0
H911 H 0.50804 0.50467 0.52329 0.0
H912 H 0.52471 0.46909 0.70779 0.0
H913 H 0.52471 0.46909 0.70779 0.0
H914 H 0.65602 0.51015 0.53578 0.0
H915 H 0.63671 0.53282 0.46124 0.0
H916 H 0.63771 0.45931 0.69167 0.0
H917 H 0.63771 0.45931 0.69167 0.0
C918 C 0.81974 0.23935 0.86745 0.0
C919 C 0.82997 0.26722 0.89859 0.0
C920 C 0.79607 0.29303 0.7994 0.0
C921 C 0.78787 0.26503 0.76431 0.0
N922 N 0.79743 0.21245 0.74827 0.0
N923 N 0.82964 0.32068 0.89376 0.0
C924 C 0.80152 0.23849 0.79311 0.0
C925 C 0.81847 0.2942 0.86499 0.0
N926 N 0.82711 0.2136 0.90988 0.0
N927 N 0.78177 0.31812 0.77215 0.0
H928 H 0.84566 0.32213 0.94284 0.0
H929 H 0.82451 0.34109 0.86576 0.0
H930 H 0.76561 0.31789 0.72332 0.0
H931 H 0.78444 0.33884 0.80122 0.0
H932 H 0.81958 0.19263 0.8923 0.0
H933 H 0.83817 0.21306 0.96948 0.0
H934 H 0.80752 0.19243 0.76405 0.0
H935 H 0.78659 0.21119 0.68829 0.0
C936 C 0.29735 0.19983 0.85494 0.0
C937 C 0.28583 0.2268 0.88856 0.0
C938 C 0.31416 0.25554 0.78308 0.0
C939 C 0.32793 0.22902 0.75455 0.0
N940 N 0.33417 0.17596 0.76251 0.0
N941 N 0.28848 0.28045 0.89961 0.0
C942 C 0.31978 0.20103 0.78956 0.0
C943 C 0.29593 0.25469 0.85731 0.0
N944 N 0.28621 0.17334 0.8835 0.0
N945 N 0.31818 0.28154 0.73814 0.0
H946 H 0.27748 0.28101 0.95927 0.0
H947 H 0.29589 0.30143 0.88186 0.0
H948 H 0.32907 0.28276 0.67828 0.0
H949 H 0.30802 0.30155 0.75371 0.0
H950 H 0.29136 0.15294 0.8554 0.0
H951 H 0.27015 0.17187 0.93239 0.0
H952 H 0.33154 0.15525 0.79163 0.0
H953 H 0.35035 0.17619 0.71384 0.0
C954 C 0.31999 0.78911 0.36285 0.0
C955 C 0.32983 0.76156 0.39694 0.0
C956 C 0.29973 0.73433 0.29258 0.0
C957 C 0.28766 0.7616 0.26326 0.0
N958 N 0.28422 0.81494 0.27154 0.0
N959 N 0.32361 0.70836 0.41069 0.0
C960 C 0.29735 0.78913 0.29806 0.0
C961 C 0.31787 0.73429 0.36704 0.0
N962 N 0.33297 0.81494 0.39002 0.0
N963 N 0.2941 0.70846 0.24835 0.0
H964 H 0.33414 0.70756 0.47121 0.0
H965 H 0.31525 0.68771 0.39311 0.0
H966 H 0.28358 0.70773 0.18779 0.0
H967 H 0.30255 0.68782 0.26547 0.0
H968 H 0.32905 0.83548 0.36111 0.0
H969 H 0.34941 0.81559 0.43803 0.0
H970 H 0.28803 0.83543 0.30098 0.0
H971 H 0.26778 0.81562 0.22356 0.0
C972 C 0.50593 0.988 0.54437 0.0
C973 C 0.53326 0.97756 0.51027 0.0
C974 C 0.56049 0.00768 0.61546 0.0
C975 C 0.53337 0.01942 0.64662 0.0
N976 N 0.47988 0.02022 0.64396 0.0
N977 N 0.58718 0.98301 0.50503 0.0
C978 C 0.506 0.00936 0.6124 0.0
C979 C 0.56045 0.98905 0.54254 0.0
N980 N 0.47942 0.97785 0.51415 0.0
N981 N 0.58693 0.01434 0.65496 0.0
H982 H 0.59025 0.97139 0.44668 0.0
H983 H 0.59025 0.97139 0.44668 0.0
H984 H 0.58861 0.02527 0.71475 0.0
H985 H 0.60731 0.00691 0.63121 0.0
H986 H 0.47721 0.96202 0.46459 0.0
H987 H 0.47721 0.96202 0.46459 0.0
H988 H 0.45936 0.0134 0.61954 0.0
H989 H 0.47886 0.03597 0.69401 0.0
C990 C 0.05033 0.00315 0.04278 0.0
C991 C 0.07682 0.01674 1.0137 0.0
C992 C 0.10597 0.98628 0.11462 0.0
C993 C 0.07906 0.97483 0.14838 0.0
N994 N 0.02555 0.97769 0.15986 0.0
N995 N 0.12981 0.02285 0.02118 0.0
C996 C 0.05122 0.98501 0.11726 0.0
C997 C 0.10477 0.00859 0.04874 0.0
N998 N 0.02431 0.00721 0.99805 0.0
N999 N 0.1324 0.97516 0.14354 0.0
H1000 H 0.12956 0.03895 0.97217 0.0
H1001 H 0.15051 0.02021 0.05013 0.0
H1002 H 0.13386 0.95922 0.19287 0.0
H1003 H 0.15277 0.98025 0.1155 0.0
H1004 H 0.00433 -0.00285 1.01404 0.0
H1005 H 0.02303 0.01799 0.93799 0.0
H1006 H 0.00461 0.98524 0.14237 0.0
H1007 H 0.02505 0.96667 0.2195 0.0
C1008 C 0.04549 0.48661 0.61003 0.0
C1009 C 0.07283 0.47387 0.63796 0.0
C1010 C 0.09925 0.51086 0.5454 0.0
C1011 C 0.07183 0.52193 0.51258 0.0
N1012 N 0.01885 0.51487 0.50069 0.0
N1013 N 0.12582 0.47172 0.62334 0.0
C1014 C 0.045 0.50838 0.54174 0.0
C1015 C 0.09975 0.48553 0.60324 0.0
N1016 N 0.01973 0.47922 0.65182 0.0
N1017 N 0.12486 0.52517 0.52337 0.0
H1018 H 0.1269 0.45326 0.6645 0.0
H1019 H 0.14597 0.47686 0.5939 0.0
H1020 H 0.12522 0.54354 0.48175 0.0
H1021 H 0.14535 0.52048 0.55143 0.0
H1022 H -9e-05 0.49066 0.64252 0.0
H1023 H 0.01852 0.46395 0.70282 0.0
H1024 H -0.00053 0.50276 0.51054 0.0
H1025 H 0.01691 0.53016 0.44998 0.0
C1026 C 0.81912 0.79237 0.85886 0.0
C1027 C 0.83038 0.7651 0.89258 0.0
C1028 C 0.79523 0.73817 0.79601 0.0
C1029 C 0.78208 0.76536 0.76801 0.0
N1030 N 0.77953 0.81847 0.78178 0.0
N1031 N 0.82365 0.71204 0.90615 0.0
C1032 C 0.7936 0.79251 0.80188 0.0
C1033 C 0.817 0.73805 0.86433 0.0
N1034 N 0.83345 0.81819 0.87911 0.0
N1035 N 0.78835 0.71225 0.75396 0.0
H1036 H 0.83877 0.71047 0.95747 0.0
H1037 H 0.81178 0.69248 0.89633 0.0
H1038 H 0.77319 0.71083 0.70272 0.0
H1039 H 0.80006 0.69258 0.76356 0.0
H1040 H 0.82857 0.83853 0.85016 0.0
H1041 H 0.85207 0.81884 0.91967 0.0
H1042 H 0.78461 0.83875 0.81086 0.0
H1043 H 0.76093 0.81931 0.7412 0.0
C1044 C 0.57208 0.50658 0.11059 0.0
C1045 C 0.54506 0.51968 0.13996 0.0
C1046 C 0.51764 0.48353 0.04663 0.0
C1047 C 0.54474 0.47203 1.01272 0.0
N1048 N 0.5979 0.47748 1.00131 0.0
N1049 N 0.49204 0.52257 0.12807 0.0
C1050 C 0.57193 0.48482 0.0421 0.0
C1051 C 0.51781 0.50855 0.10589 0.0
N1052 N 0.59816 0.51367 0.15129 0.0
N1053 N 0.49169 0.46986 0.02429 0.0
H1054 H 0.49145 0.54069 0.17066 0.0
H1055 H 0.47164 0.51789 0.09944 0.0
H1056 H 0.49085 0.45176 0.98165 0.0
H1057 H 0.47135 0.47482 0.0528 0.0
H1058 H 0.61777 0.50192 0.14164 0.0
H1059 H 0.59988 0.52908 0.20182 0.0
H1060 H 0.61763 0.48903 1.01089 0.0
H1061 H 0.59941 0.46204 0.9508 0.0
C1062 C 0.81965 0.25841 0.29596 0.0
C1063 C 0.83324 0.23159 0.26659 0.0
C1064 C 0.79711 0.20349 0.35755 0.0
C1065 C 0.78536 0.23041 0.39233 0.0
N1066 N 0.79045 0.28364 0.40618 0.0
N1067 N 0.83675 0.17848 0.27749 0.0
C1068 C 0.79794 0.25785 0.36433 0.0
C1069 C 0.82235 0.20408 0.29955 0.0
N1070 N 0.82607 0.28464 0.25504 0.0
N1071 N 0.78349 0.1773 0.37776 0.0
H1072 H 0.85506 0.17818 0.23579 0.0
H1073 H 0.83219 0.15794 0.30564 0.0
H1074 H 0.76512 0.17614 0.4191 0.0
H1075 H 0.78869 0.15713 0.34828 0.0
H1076 H 0.81398 0.30404 0.26509 0.0
H1077 H 0.84127 0.28659 0.20417 0.0
H1078 H 0.80176 0.30355 0.3969 0.0
H1079 H 0.7752 0.28478 0.45716 0.0
C1080 C 0.31821 0.23609 0.35539 0.0
C1081 C 0.33096 0.26351 0.38303 0.0
C1082 C 0.29411 0.28987 0.28979 0.0
C1083 C 0.28307 0.26236 0.25714 0.0
N1084 N 0.29009 0.20926 0.24598 0.0
N1085 N 0.33317 0.31657 0.36768 0.0
C1086 C 0.29654 0.23551 0.28684 0.0
C1087 C 0.31937 0.29043 0.34782 0.0
N1088 N 0.32551 0.21034 0.3977 0.0
N1089 N 0.27984 0.31551 0.2674 0.0
H1090 H 0.35155 0.3177 0.40906 0.0
H1091 H 0.32809 0.33671 0.33786 0.0
H1092 H 0.26151 0.31583 0.22569 0.0
H1093 H 0.28453 0.33607 0.2953 0.0
H1094 H 0.31405 0.1905 0.38865 0.0
H1095 H 0.34079 0.20921 0.44869 0.0
H1096 H 0.30209 0.18982 0.25646 0.0
H1097 H 0.27501 0.20731 0.1947 0.0
C1098 C 0.31974 0.75567 0.79528 0.0
C1099 C 0.3329 0.72847 0.76729 0.0
C1100 C 0.29584 0.70147 0.85781 0.0
C1101 C 0.28459 0.72874 0.89158 0.0
N1102 N 0.29132 0.7818 0.90536 0.0
N1103 N 0.33544 0.67536 0.7809 0.0
C1104 C 0.29797 0.75579 0.86348 0.0
C1105 C 0.32137 0.70133 0.801 0.0
N1106 N 0.32661 0.78158 0.7533 0.0
N1107 N 0.2815 0.67565 0.87785 0.0
H1108 H 0.35404 0.67452 0.74043 0.0
H1109 H 0.33035 0.65508 0.80987 0.0
H1110 H 0.26287 0.67501 0.91825 0.0
H1111 H 0.28638 0.65532 0.84885 0.0
H1112 H 0.31488 0.80124 0.76288 0.0
H1113 H 0.34178 0.78299 0.70216 0.0
H1114 H 0.30319 0.80136 0.89563 0.0
H1115 H 0.27622 0.78338 0.95664 0.0
C1116 C 0.54276 0.98751 0.11255 0.0
C1117 C 0.56979 0.97434 0.14171 0.0
C1118 C 0.59716 0.01054 0.04869 0.0
C1119 C 0.57004 0.02203 1.01479 0.0
N1120 N 0.51688 0.01655 1.00322 0.0
N1121 N 0.62279 0.97143 0.12968 0.0
C1122 C 0.54287 0.00924 0.04407 0.0
C1123 C 0.59702 0.98547 0.10769 0.0
N1124 N 0.51672 0.98056 0.15353 0.0
N1125 N 0.62309 0.02424 0.02659 0.0
H1126 H 0.62341 0.95327 0.17209 0.0
H1127 H 0.64317 0.97611 0.10102 0.0
H1128 H 0.62391 0.04238 0.98419 0.0
H1129 H 0.64344 0.01928 0.05516 0.0
H1130 H 0.49715 0.99237 0.14397 0.0
H1131 H 0.51505 0.96519 0.20414 0.0
H1132 H 0.49716 0.00501 1.01289 0.0
H1133 H 0.51537 0.03192 0.95258 0.0
C1134 C 0.06952 0.00676 0.61407 0.0
C1135 C 0.0421 0.01928 0.64215 0.0
C1136 C 0.01591 0.9821 0.54943 0.0
C1137 C 0.0434 0.97132 0.51632 0.0
N1138 N 0.09631 0.97874 0.50453 0.0
N1139 N 0.98907 0.02093 0.62791 0.0
C1140 C 0.07013 0.98503 0.5456 0.0
C1141 C 0.01525 0.00739 0.6075 0.0
N1142 N 0.09525 0.01431 0.65597 0.0
N1143 N 0.99041 0.96755 0.52744 0.0
H1144 H 0.96894 0.01562 0.59854 0.0
H1145 H 0.98787 0.03934 0.66931 0.0
H1146 H 0.99017 0.9492 0.48569 0.0
H1147 H 0.96992 0.97203 0.55569 0.0
H1148 H 0.11514 0.00303 0.64658 0.0
H1149 H 0.09637 0.02957 0.70709 0.0
H1150 H 0.11562 0.99095 0.51454 0.0
H1151 H 0.09831 0.9635 0.45361 0.0
loop_
_geom_bond_atom_site_label_1
_geom_bond_atom_site_label_2
_geom_bond_distance
_geom_bond_site_symmetry_2
_ccdc_geom_bond_type
Mn0 O5 2.095 . S
Mn0 O15 2.162 . S
Mn0 O16 2.297 . S
Mn0 O24 2.385 . S
Mn0 O25 2.209 . S
Mn0 O26 2.094 . S
Mn1 O6 2.121 . S
Mn1 N8 2.257 1_554 S
Mn1 N17 2.282 1_554 S
Mn1 O25 2.215 . S
Mn1 O27 2.117 . S
C2 O24 1.234 . S
C2 O25 1.283 . S
C3 O15 1.281 . S
C3 O16 1.236 . S
C4 O26 1.240 . S
C4 O27 1.264 . S
O5 Mn0 2.095 . S
O5 C14 1.250 . S
O6 Mn1 2.121 . S
O6 C14 1.258 . S
C7 N8 1.326 . S
C7 C11 1.460 . S
C7 H13 0.929 1_556 S
N8 Mn1 2.257 1_556 S
N8 C7 1.326 . S
N8 C12 1.362 . S
C9 C10 1.258 . S
C9 C12 1.431 . S
C9 C29 1.449 . S
C10 C9 1.258 . S
C10 C11 1.477 . S
C10 H30 0.931 . S
C11 C7 1.460 . S
C11 C10 1.477 . S
C11 H31 0.930 . S
C12 N8 1.362 . S
C12 C9 1.431 . S
C12 C22 1.476 . S
H13 C7 0.929 1_554 S
C14 O5 1.250 . S
C14 O6 1.258 . S
O15 Mn0 2.162 . S
O15 C3 1.281 . S
O16 Mn0 2.297 . S
O16 C3 1.236 . S
N17 Mn1 2.282 1_556 S
N17 C18 1.328 . S
N17 C22 1.318 . S
C18 N17 1.328 . S
C18 C19 1.457 . S
C18 H23 0.929 1_556 S
C19 C18 1.457 . S
C19 C20 1.291 . S
C19 H32 0.931 1_455 S
C20 C19 1.291 . S
C20 C21 1.373 . S
C20 H33 0.929 . S
C21 C20 1.373 . S
C21 C22 1.396 . S
C21 C28 1.403 . S
C22 C12 1.476 . S
C22 N17 1.318 . S
C22 C21 1.396 . S
H23 C18 0.929 1_554 S
O24 Mn0 2.385 . S
O24 C2 1.234 . S
O25 Mn0 2.209 . S
O25 Mn1 2.215 . S
O25 C2 1.283 . S
O26 Mn0 2.094 . S
O26 C4 1.240 . S
O27 Mn1 2.117 . S
O27 C4 1.264 . S
C28 C21 1.403 . S
C28 C29 1.399 . S
C28 H34 0.929 . S
C29 C9 1.449 . S
C29 C28 1.399 . S
C29 H35 0.930 . S
H30 C10 0.931 . S
H31 C11 0.930 . S
H32 C19 0.931 1_655 S
H33 C20 0.929 . S
H34 C28 0.929 . S
H35 C29 0.930 . S
Mn36 O41 2.095 . S
Mn36 O51 2.162 . S
Mn36 O52 2.297 . S
Mn36 O60 2.385 . S
Mn36 O61 2.209 . S
Mn36 O62 2.094 . S
Mn37 O42 2.121 . S
Mn37 N44 2.257 . S
Mn37 N53 2.282 . S
Mn37 O61 2.215 . S
Mn37 O63 2.117 . S
C38 O60 1.234 . S
C38 O61 1.283 . S
C39 O51 1.281 . S
C39 O52 1.236 . S
C40 O62 1.240 . S
C40 O63 1.264 . S
O41 Mn36 2.095 . S
O41 C50 1.250 . S
O42 Mn37 2.121 . S
O42 C50 1.258 . S
C43 N44 1.326 . S
C43 C47 1.460 . S
C43 H49 0.929 . S
N44 Mn37 2.257 . S
N44 C43 1.326 . S
N44 C48 1.362 . S
C45 C46 1.258 . S
C45 C48 1.431 . S
C45 C65 1.449 . S
C46 C45 1.258 . S
C46 C47 1.477 . S
C46 H66 0.931 . S
C47 C43 1.460 . S
C47 C46 1.477 . S
C47 H67 0.930 . S
C48 N44 1.362 . S
C48 C45 1.431 . S
C48 C58 1.476 . S
H49 C43 0.929 . S
C50 O41 1.250 . S
C50 O42 1.258 . S
O51 Mn36 2.162 . S
O51 C39 1.281 . S
O52 Mn36 2.297 . S
O52 C39 1.236 . S
N53 Mn37 2.282 . S
N53 C54 1.328 . S
N53 C58 1.318 . S
C54 N53 1.328 . S
C54 C55 1.457 . S
C54 H59 0.929 . S
C55 C54 1.457 . S
C55 C56 1.291 . S
C55 H68 0.931 . S
C56 C55 1.291 . S
C56 C57 1.373 . S
C56 H69 0.929 . S
C57 C56 1.373 . S
C57 C58 1.396 . S
C57 C64 1.403 . S
C58 C48 1.476 . S
C58 N53 1.318 . S
C58 C57 1.396 . S
H59 C54 0.929 . S
O60 Mn36 2.385 . S
O60 C38 1.234 . S
O61 Mn36 2.209 . S
O61 Mn37 2.215 . S
O61 C38 1.283 . S
O62 Mn36 2.094 . S
O62 C40 1.240 . S
O63 Mn37 2.117 . S
O63 C40 1.264 . S
C64 C57 1.403 . S
C64 C65 1.399 . S
C64 H70 0.929 1_554 S
C65 C45 1.449 . S
C65 C64 1.399 . S
C65 H71 0.930 1_554 S
H66 C46 0.931 . S
H67 C47 0.930 . S
H68 C55 0.931 . S
H69 C56 0.929 . S
H70 C64 0.929 1_556 S
H71 C65 0.930 1_556 S
Mn72 O77 2.095 . S
Mn72 O87 2.162 . S
Mn72 O88 2.297 . S
Mn72 O96 2.385 . S
Mn72 O97 2.209 . S
Mn72 O98 2.094 . S
Mn73 O78 2.121 . S
Mn73 N80 2.257 . S
Mn73 N89 2.282 . S
Mn73 O97 2.215 . S
Mn73 O99 2.117 . S
C74 O96 1.234 . S
C74 O97 1.283 . S
C75 O87 1.281 . S
C75 O88 1.236 . S
C76 O98 1.240 . S
C76 O99 1.264 . S
O77 Mn72 2.095 . S
O77 C86 1.250 . S
O78 Mn73 2.121 . S
O78 C86 1.258 . S
C79 N80 1.326 . S
C79 C83 1.460 . S
C79 H85 0.929 . S
N80 Mn73 2.257 . S
N80 C79 1.326 . S
N80 C84 1.362 . S
C81 C82 1.258 . S
C81 C84 1.431 . S
C81 C101 1.449 . S
C82 C81 1.258 . S
C82 C83 1.477 . S
C82 H102 0.931 . S
C83 C79 1.460 . S
C83 C82 1.477 . S
C83 H103 0.930 . S
C84 N80 1.362 . S
C84 C81 1.431 . S
C84 C94 1.476 . S
H85 C79 0.929 . S
C86 O77 1.250 . S
C86 O78 1.258 . S
O87 Mn72 2.162 . S
O87 C75 1.281 . S
O88 Mn72 2.297 . S
O88 C75 1.236 . S
N89 Mn73 2.282 . S
N89 C90 1.328 . S
N89 C94 1.318 . S
C90 N89 1.328 . S
C90 C91 1.457 . S
C90 H95 0.929 . S
C91 C90 1.457 . S
C91 C92 1.291 . S
C91 H104 0.931 . S
C92 C91 1.291 . S
C92 C93 1.373 . S
C92 H105 0.929 . S
C93 C92 1.373 . S
C93 C94 1.396 . S
C93 C100 1.403 . S
C94 C84 1.476 . S
C94 N89 1.318 . S
C94 C93 1.396 . S
H95 C90 0.929 . S
O96 Mn72 2.385 . S
O96 C74 1.234 . S
O97 Mn72 2.209 . S
O97 Mn73 2.215 . S
O97 C74 1.283 . S
O98 Mn72 2.094 . S
O98 C76 1.240 . S
O99 Mn73 2.117 . S
O99 C76 1.264 . S
C100 C93 1.403 . S
C100 C101 1.399 . S
C100 H106 0.929 . S
C101 C81 1.449 . S
C101 C100 1.399 . S
C101 H107 0.930 . S
H102 C82 0.931 . S
H103 C83 0.930 . S
H104 C91 0.931 . S
H105 C92 0.929 . S
H106 C100 0.929 . S
H107 C101 0.930 . S
Mn108 O113 2.095 . S
Mn108 O123 2.162 . S
Mn108 O124 2.297 . S
Mn108 O132 2.385 1_554 S
Mn108 O133 2.209 1_554 S
Mn108 O134 2.094 . S
Mn109 O114 2.121 . S
Mn109 N116 2.257 . S
Mn109 N125 2.282 . S
Mn109 O133 2.215 . S
Mn109 O135 2.117 . S
C110 O132 1.234 . S
C110 O133 1.283 . S
C111 O123 1.281 . S
C111 O124 1.236 . S
C112 O134 1.240 1_556 S
C112 O135 1.264 . S
O113 Mn108 2.095 . S
O113 C122 1.250 1_554 S
O114 Mn109 2.121 . S
O114 C122 1.258 . S
C115 N116 1.326 . S
C115 C119 1.460 . S
C115 H121 0.929 . S
N116 Mn109 2.257 . S
N116 C115 1.326 . S
N116 C120 1.362 . S
C117 C118 1.258 . S
C117 C120 1.431 . S
C117 C137 1.449 . S
C118 C117 1.258 . S
C118 C119 1.477 . S
C118 H138 0.931 . S
C119 C115 1.460 . S
C119 C118 1.477 . S
C119 H139 0.930 . S
C120 N116 1.362 . S
C120 C117 1.431 . S
C120 C130 1.476 . S
H121 C115 0.929 . S
C122 O113 1.250 1_556 S
C122 O114 1.258 . S
O123 Mn108 2.162 . S
O123 C111 1.281 . S
O124 Mn108 2.297 . S
O124 C111 1.236 . S
N125 Mn109 2.282 . S
N125 C126 1.328 . S
N125 C130 1.318 . S
C126 N125 1.328 . S
C126 C127 1.457 . S
C126 H131 0.929 . S
C127 C126 1.457 . S
C127 C128 1.291 . S
C127 H140 0.931 . S
C128 C127 1.291 . S
C128 C129 1.373 . S
C128 H141 0.929 . S
C129 C128 1.373 . S
C129 C130 1.396 . S
C129 C136 1.403 . S
C130 C120 1.476 . S
C130 N125 1.318 . S
C130 C129 1.396 . S
H131 C126 0.929 . S
O132 Mn108 2.385 1_556 S
O132 C110 1.234 . S
O133 Mn108 2.209 1_556 S
O133 Mn109 2.215 . S
O133 C110 1.283 . S
O134 Mn108 2.094 . S
O134 C112 1.240 1_554 S
O135 Mn109 2.117 . S
O135 C112 1.264 . S
C136 C129 1.403 . S
C136 C137 1.399 . S
C136 H142 0.929 . S
C137 C117 1.449 . S
C137 C136 1.399 . S
C137 H143 0.930 . S
H138 C118 0.931 . S
H139 C119 0.930 . S
H140 C127 0.931 . S
H141 C128 0.929 . S
H142 C136 0.929 . S
H143 C137 0.930 . S
Mn144 O149 2.095 . S
Mn144 O159 2.162 . S
Mn144 O160 2.297 . S
Mn144 O168 2.385 . S
Mn144 O169 2.209 . S
Mn144 O170 2.094 . S
Mn145 O150 2.121 1_554 S
Mn145 N152 2.257 . S
Mn145 N161 2.282 . S
Mn145 O169 2.215 1_554 S
Mn145 O171 2.117 1_554 S
C146 O168 1.234 . S
C146 O169 1.283 . S
C147 O159 1.281 . S
C147 O160 1.236 . S
C148 O170 1.240 . S
C148 O171 1.264 . S
O149 Mn144 2.095 . S
O149 C158 1.250 . S
O150 Mn145 2.121 1_556 S
O150 C158 1.258 . S
C151 N152 1.326 . S
C151 C155 1.460 . S
C151 H157 0.929 . S
N152 Mn145 2.257 . S
N152 C151 1.326 . S
N152 C156 1.362 . S
C153 C154 1.258 . S
C153 C156 1.431 . S
C153 C173 1.449 . S
C154 C153 1.258 . S
C154 C155 1.477 . S
C154 H174 0.931 . S
C155 C151 1.460 . S
C155 C154 1.477 . S
C155 H175 0.930 . S
C156 N152 1.362 . S
C156 C153 1.431 . S
C156 C166 1.476 . S
H157 C151 0.929 . S
C158 O149 1.250 . S
C158 O150 1.258 . S
O159 Mn144 2.162 . S
O159 C147 1.281 . S
O160 Mn144 2.297 . S
O160 C147 1.236 . S
N161 Mn145 2.282 . S
N161 C162 1.328 . S
N161 C166 1.318 . S
C162 N161 1.328 . S
C162 C163 1.457 . S
C162 H167 0.929 . S
C163 C162 1.457 . S
C163 C164 1.291 . S
C163 H176 0.931 1_455 S
C164 C163 1.291 . S
C164 C165 1.373 . S
C164 H177 0.929 . S
C165 C164 1.373 . S
C165 C166 1.396 . S
C165 C172 1.403 . S
C166 C156 1.476 . S
C166 N161 1.318 . S
C166 C165 1.396 . S
H167 C162 0.929 . S
O168 Mn144 2.385 . S
O168 C146 1.234 . S
O169 Mn144 2.209 . S
O169 Mn145 2.215 1_556 S
O169 C146 1.283 . S
O170 Mn144 2.094 . S
O170 C148 1.240 . S
O171 Mn145 2.117 1_556 S
O171 C148 1.264 . S
C172 C165 1.403 . S
C172 C173 1.399 . S
C172 H178 0.929 . S
C173 C153 1.449 . S
C173 C172 1.399 . S
C173 H179 0.930 . S
H174 C154 0.931 . S
H175 C155 0.930 . S
H176 C163 0.931 1_655 S
H177 C164 0.929 . S
H178 C172 0.929 . S
H179 C173 0.930 . S
Mn180 O185 2.095 . S
Mn180 O195 2.162 1_554 S
Mn180 O196 2.297 . S
Mn180 O204 2.385 . S
Mn180 O205 2.209 . S
Mn180 O206 2.094 . S
Mn181 O186 2.121 . S
Mn181 N188 2.257 . S
Mn181 N197 2.282 . S
Mn181 O205 2.215 . S
Mn181 O207 2.117 . S
C182 O204 1.234 . S
C182 O205 1.283 . S
C183 O195 1.281 . S
C183 O196 1.236 1_556 S
C184 O206 1.240 . S
C184 O207 1.264 . S
O185 Mn180 2.095 . S
O185 C194 1.250 . S
O186 Mn181 2.121 . S
O186 C194 1.258 . S
C187 N188 1.326 . S
C187 C191 1.460 . S
C187 H193 0.929 . S
N188 Mn181 2.257 . S
N188 C187 1.326 . S
N188 C192 1.362 . S
C189 C190 1.258 . S
C189 C192 1.431 . S
C189 C209 1.449 . S
C190 C189 1.258 . S
C190 C191 1.477 . S
C190 H210 0.931 . S
C191 C187 1.460 . S
C191 C190 1.477 . S
C191 H211 0.930 . S
C192 N188 1.362 . S
C192 C189 1.431 . S
C192 C202 1.476 . S
H193 C187 0.929 . S
C194 O185 1.250 . S
C194 O186 1.258 . S
O195 Mn180 2.162 1_556 S
O195 C183 1.281 . S
O196 Mn180 2.297 . S
O196 C183 1.236 1_554 S
N197 Mn181 2.282 . S
N197 C198 1.328 . S
N197 C202 1.318 . S
C198 N197 1.328 . S
C198 C199 1.457 . S
C198 H203 0.929 . S
C199 C198 1.457 . S
C199 C200 1.291 . S
C199 H212 0.931 . S
C200 C199 1.291 . S
C200 C201 1.373 . S
C200 H213 0.929 . S
C201 C200 1.373 . S
C201 C202 1.396 . S
C201 C208 1.403 . S
C202 C192 1.476 . S
C202 N197 1.318 . S
C202 C201 1.396 . S
H203 C198 0.929 . S
O204 Mn180 2.385 . S
O204 C182 1.234 . S
O205 Mn180 2.209 . S
O205 Mn181 2.215 . S
O205 C182 1.283 . S
O206 Mn180 2.094 . S
O206 C184 1.240 . S
O207 Mn181 2.117 . S
O207 C184 1.264 . S
C208 C201 1.403 . S
C208 C209 1.399 . S
C208 H214 0.929 . S
C209 C189 1.449 . S
C209 C208 1.399 . S
C209 H215 0.930 . S
H210 C190 0.931 . S
H211 C191 0.930 . S
H212 C199 0.931 . S
H213 C200 0.929 . S
H214 C208 0.929 . S
H215 C209 0.930 . S
Mn216 O221 2.095 . S
Mn216 O231 2.162 . S
Mn216 O232 2.297 . S
Mn216 O240 2.385 . S
Mn216 O241 2.209 . S
Mn216 O242 2.094 . S
Mn217 O222 2.121 . S
Mn217 N224 2.257 . S
Mn217 N233 2.282 . S
Mn217 O241 2.215 . S
Mn217 O243 2.117 . S
C218 O240 1.234 . S
C218 O241 1.283 . S
C219 O231 1.281 . S
C219 O232 1.236 . S
C220 O242 1.240 . S
C220 O243 1.264 . S
O221 Mn216 2.095 . S
O221 C230 1.250 . S
O222 Mn217 2.121 . S
O222 C230 1.258 . S
C223 N224 1.326 . S
C223 C227 1.460 . S
C223 H229 0.929 . S
N224 Mn217 2.257 . S
N224 C223 1.326 . S
N224 C228 1.362 . S
C225 C226 1.258 . S
C225 C228 1.431 . S
C225 C245 1.449 . S
C226 C225 1.258 . S
C226 C227 1.477 . S
C226 H246 0.931 . S
C227 C223 1.460 . S
C227 C226 1.477 . S
C227 H247 0.930 . S
C228 N224 1.362 . S
C228 C225 1.431 . S
C228 C238 1.476 . S
H229 C223 0.929 . S
C230 O221 1.250 . S
C230 O222 1.258 . S
O231 Mn216 2.162 . S
O231 C219 1.281 . S
O232 Mn216 2.297 . S
O232 C219 1.236 . S
N233 Mn217 2.282 . S
N233 C234 1.328 . S
N233 C238 1.318 . S
C234 N233 1.328 . S
C234 C235 1.457 . S
C234 H239 0.929 . S
C235 C234 1.457 . S
C235 C236 1.291 . S
C235 H248 0.931 . S
C236 C235 1.291 . S
C236 C237 1.373 . S
C236 H249 0.929 . S
C237 C236 1.373 . S
C237 C238 1.396 . S
C237 C244 1.403 . S
C238 C228 1.476 . S
C238 N233 1.318 . S
C238 C237 1.396 . S
H239 C234 0.929 . S
O240 Mn216 2.385 . S
O240 C218 1.234 . S
O241 Mn216 2.209 . S
O241 Mn217 2.215 . S
O241 C218 1.283 . S
O242 Mn216 2.094 . S
O242 C220 1.240 . S
O243 Mn217 2.117 . S
O243 C220 1.264 . S
C244 C237 1.403 . S
C244 C245 1.399 . S
C244 H250 0.929 . S
C245 C225 1.449 . S
C245 C244 1.399 . S
C245 H251 0.930 . S
H246 C226 0.931 . S
H247 C227 0.930 . S
H248 C235 0.931 . S
H249 C236 0.929 . S
H250 C244 0.929 . S
H251 C245 0.930 . S
Mn252 O257 2.095 . S
Mn252 O267 2.162 . S
Mn252 O268 2.297 . S
Mn252 O276 2.385 . S
Mn252 O277 2.209 . S
Mn252 O278 2.094 . S
Mn253 O258 2.121 . S
Mn253 N260 2.257 . S
Mn253 N269 2.282 . S
Mn253 O277 2.215 . S
Mn253 O279 2.117 . S
C254 O276 1.234 . S
C254 O277 1.283 . S
C255 O267 1.281 . S
C255 O268 1.236 . S
C256 O278 1.240 . S
C256 O279 1.264 . S
O257 Mn252 2.095 . S
O257 C266 1.250 . S
O258 Mn253 2.121 . S
O258 C266 1.258 . S
C259 N260 1.326 . S
C259 C263 1.460 . S
C259 H265 0.929 . S
N260 Mn253 2.257 . S
N260 C259 1.326 . S
N260 C264 1.362 . S
C261 C262 1.258 . S
C261 C264 1.431 1_554 S
C261 C281 1.449 . S
C262 C261 1.258 . S
C262 C263 1.477 1_554 S
C262 H282 0.931 . S
C263 C259 1.460 . S
C263 C262 1.477 1_556 S
C263 H283 0.930 . S
C264 N260 1.362 . S
C264 C261 1.431 1_556 S
C264 C274 1.476 . S
H265 C259 0.929 . S
C266 O257 1.250 . S
C266 O258 1.258 . S
O267 Mn252 2.162 . S
O267 C255 1.281 . S
O268 Mn252 2.297 . S
O268 C255 1.236 . S
N269 Mn253 2.282 . S
N269 C270 1.328 . S
N269 C274 1.318 . S
C270 N269 1.328 . S
C270 C271 1.457 . S
C270 H275 0.929 . S
C271 C270 1.457 . S
C271 C272 1.291 1_556 S
C271 H284 0.931 . S
C272 C271 1.291 1_554 S
C272 C273 1.373 . S
C272 H285 0.929 . S
C273 C272 1.373 . S
C273 C274 1.396 1_554 S
C273 C280 1.403 . S
C274 C264 1.476 . S
C274 N269 1.318 . S
C274 C273 1.396 1_556 S
H275 C270 0.929 . S
O276 Mn252 2.385 . S
O276 C254 1.234 . S
O277 Mn252 2.209 . S
O277 Mn253 2.215 . S
O277 C254 1.283 . S
O278 Mn252 2.094 . S
O278 C256 1.240 . S
O279 Mn253 2.117 . S
O279 C256 1.264 . S
C280 C273 1.403 . S
C280 C281 1.399 . S
C280 H286 0.929 . S
C281 C261 1.449 . S
C281 C280 1.399 . S
C281 H287 0.930 . S
H282 C262 0.931 . S
H283 C263 0.930 . S
H284 C271 0.931 . S
H285 C272 0.929 . S
H286 C280 0.929 . S
H287 C281 0.930 . S
Mn288 O293 2.095 . S
Mn288 O303 2.162 . S
Mn288 O304 2.297 . S
Mn288 O312 2.385 . S
Mn288 O313 2.209 . S
Mn288 O314 2.094 . S
Mn289 O294 2.121 . S
Mn289 N296 2.257 . S
Mn289 N305 2.282 . S
Mn289 O313 2.215 . S
Mn289 O315 2.117 . S
C290 O312 1.234 . S
C290 O313 1.283 . S
C291 O303 1.281 . S
C291 O304 1.236 . S
C292 O314 1.240 . S
C292 O315 1.264 . S
O293 Mn288 2.095 . S
O293 C302 1.250 . S
O294 Mn289 2.121 . S
O294 C302 1.258 . S
C295 N296 1.326 . S
C295 C299 1.460 . S
C295 H301 0.929 . S
N296 Mn289 2.257 . S
N296 C295 1.326 . S
N296 C300 1.362 . S
C297 C298 1.258 . S
C297 C300 1.431 1_554 S
C297 C317 1.449 . S
C298 C297 1.258 . S
C298 C299 1.477 1_554 S
C298 H318 0.931 . S
C299 C295 1.460 . S
C299 C298 1.477 1_556 S
C299 H319 0.930 . S
C300 N296 1.362 . S
C300 C297 1.431 1_556 S
C300 C310 1.476 . S
H301 C295 0.929 . S
C302 O293 1.250 . S
C302 O294 1.258 . S
O303 Mn288 2.162 . S
O303 C291 1.281 . S
O304 Mn288 2.297 . S
O304 C291 1.236 . S
N305 Mn289 2.282 . S
N305 C306 1.328 . S
N305 C310 1.318 . S
C306 N305 1.328 . S
C306 C307 1.457 . S
C306 H311 0.929 . S
C307 C306 1.457 . S
C307 C308 1.291 1_556 S
C307 H320 0.931 . S
C308 C307 1.291 1_554 S
C308 C309 1.373 . S
C308 H321 0.929 . S
C309 C308 1.373 . S
C309 C310 1.396 1_554 S
C309 C316 1.403 . S
C310 C300 1.476 . S
C310 N305 1.318 . S
C310 C309 1.396 1_556 S
H311 C306 0.929 . S
O312 Mn288 2.385 . S
O312 C290 1.234 . S
O313 Mn288 2.209 . S
O313 Mn289 2.215 . S
O313 C290 1.283 . S
O314 Mn288 2.094 . S
O314 C292 1.240 . S
O315 Mn289 2.117 . S
O315 C292 1.264 . S
C316 C309 1.403 . S
C316 C317 1.399 . S
C316 H322 0.929 . S
C317 C297 1.449 . S
C317 C316 1.399 . S
C317 H323 0.930 . S
H318 C298 0.931 . S
H319 C299 0.930 . S
H320 C307 0.931 . S
H321 C308 0.929 . S
H322 C316 0.929 . S
H323 C317 0.930 . S
Mn324 O329 2.095 . S
Mn324 O339 2.162 1_554 S
Mn324 O340 2.297 . S
Mn324 O348 2.385 . S
Mn324 O349 2.209 . S
Mn324 O350 2.094 . S
Mn325 O330 2.121 . S
Mn325 N332 2.257 . S
Mn325 N341 2.282 . S
Mn325 O349 2.215 . S
Mn325 O351 2.117 . S
C326 O348 1.234 . S
C326 O349 1.283 . S
C327 O339 1.281 . S
C327 O340 1.236 1_556 S
C328 O350 1.240 . S
C328 O351 1.264 . S
O329 Mn324 2.095 . S
O329 C338 1.250 . S
O330 Mn325 2.121 . S
O330 C338 1.258 . S
C331 N332 1.326 . S
C331 C335 1.460 . S
C331 H337 0.929 . S
N332 Mn325 2.257 . S
N332 C331 1.326 . S
N332 C336 1.362 . S
C333 C334 1.258 . S
C333 C336 1.431 . S
C333 C353 1.449 . S
C334 C333 1.258 . S
C334 C335 1.477 . S
C334 H354 0.931 . S
C335 C331 1.460 . S
C335 C334 1.477 . S
C335 H355 0.930 . S
C336 N332 1.362 . S
C336 C333 1.431 . S
C336 C346 1.476 . S
H337 C331 0.929 . S
C338 O329 1.250 . S
C338 O330 1.258 . S
O339 Mn324 2.162 1_556 S
O339 C327 1.281 . S
O340 Mn324 2.297 . S
O340 C327 1.236 1_554 S
N341 Mn325 2.282 . S
N341 C342 1.328 . S
N341 C346 1.318 . S
C342 N341 1.328 . S
C342 C343 1.457 . S
C342 H347 0.929 . S
C343 C342 1.457 . S
C343 C344 1.291 . S
C343 H356 0.931 . S
C344 C343 1.291 . S
C344 C345 1.373 . S
C344 H357 0.929 . S
C345 C344 1.373 . S
C345 C346 1.396 . S
C345 C352 1.403 . S
C346 C336 1.476 . S
C346 N341 1.318 . S
C346 C345 1.396 . S
H347 C342 0.929 . S
O348 Mn324 2.385 . S
O348 C326 1.234 . S
O349 Mn324 2.209 . S
O349 Mn325 2.215 . S
O349 C326 1.283 . S
O350 Mn324 2.094 . S
O350 C328 1.240 . S
O351 Mn325 2.117 . S
O351 C328 1.264 . S
C352 C345 1.403 . S
C352 C353 1.399 . S
C352 H358 0.929 . S
C353 C333 1.449 . S
C353 C352 1.399 . S
C353 H359 0.930 . S
H354 C334 0.931 . S
H355 C335 0.930 . S
H356 C343 0.931 . S
H357 C344 0.929 . S
H358 C352 0.929 . S
H359 C353 0.930 . S
Mn360 O365 2.095 . S
Mn360 O375 2.162 . S
Mn360 O376 2.297 . S
Mn360 O384 2.385 1_554 S
Mn360 O385 2.209 1_554 S
Mn360 O386 2.094 . S
Mn361 O366 2.121 . S
Mn361 N368 2.257 . S
Mn361 N377 2.282 . S
Mn361 O385 2.215 . S
Mn361 O387 2.117 . S
C362 O384 1.234 . S
C362 O385 1.283 . S
C363 O375 1.281 . S
C363 O376 1.236 . S
C364 O386 1.240 1_556 S
C364 O387 1.264 . S
O365 Mn360 2.095 . S
O365 C374 1.250 1_554 S
O366 Mn361 2.121 . S
O366 C374 1.258 . S
C367 N368 1.326 . S
C367 C371 1.460 . S
C367 H373 0.929 . S
N368 Mn361 2.257 . S
N368 C367 1.326 . S
N368 C372 1.362 . S
C369 C370 1.258 . S
C369 C372 1.431 . S
C369 C389 1.449 . S
C370 C369 1.258 . S
C370 C371 1.477 . S
C370 H390 0.931 . S
C371 C367 1.460 . S
C371 C370 1.477 . S
C371 H391 0.930 . S
C372 N368 1.362 . S
C372 C369 1.431 . S
C372 C382 1.476 . S
H373 C367 0.929 . S
C374 O365 1.250 1_556 S
C374 O366 1.258 . S
O375 Mn360 2.162 . S
O375 C363 1.281 . S
O376 Mn360 2.297 . S
O376 C363 1.236 . S
N377 Mn361 2.282 . S
N377 C378 1.328 . S
N377 C382 1.318 . S
C378 N377 1.328 . S
C378 C379 1.457 . S
C378 H383 0.929 . S
C379 C378 1.457 . S
C379 C380 1.291 . S
C379 H392 0.931 . S
C380 C379 1.291 . S
C380 C381 1.373 . S
C380 H393 0.929 . S
C381 C380 1.373 . S
C381 C382 1.396 . S
C381 C388 1.403 . S
C382 C372 1.476 . S
C382 N377 1.318 . S
C382 C381 1.396 . S
H383 C378 0.929 . S
O384 Mn360 2.385 1_556 S
O384 C362 1.234 . S
O385 Mn360 2.209 1_556 S
O385 Mn361 2.215 . S
O385 C362 1.283 . S
O386 Mn360 2.094 . S
O386 C364 1.240 1_554 S
O387 Mn361 2.117 . S
O387 C364 1.264 . S
C388 C381 1.403 . S
C388 C389 1.399 . S
C388 H394 0.929 . S
C389 C369 1.449 . S
C389 C388 1.399 . S
C389 H395 0.930 . S
H390 C370 0.931 . S
H391 C371 0.930 . S
H392 C379 0.931 . S
H393 C380 0.929 . S
H394 C388 0.929 . S
H395 C389 0.930 . S
Mn396 O401 2.095 . S
Mn396 O411 2.162 . S
Mn396 O412 2.297 . S
Mn396 O420 2.385 . S
Mn396 O421 2.209 . S
Mn396 O422 2.094 . S
Mn397 O402 2.121 . S
Mn397 N404 2.257 . S
Mn397 N413 2.282 . S
Mn397 O421 2.215 . S
Mn397 O423 2.117 . S
C398 O420 1.234 . S
C398 O421 1.283 . S
C399 O411 1.281 . S
C399 O412 1.236 . S
C400 O422 1.240 . S
C400 O423 1.264 . S
O401 Mn396 2.095 . S
O401 C410 1.250 . S
O402 Mn397 2.121 . S
O402 C410 1.258 . S
C403 N404 1.326 . S
C403 C407 1.460 . S
C403 H409 0.929 . S
N404 Mn397 2.257 . S
N404 C403 1.326 . S
N404 C408 1.362 . S
C405 C406 1.258 . S
C405 C408 1.431 . S
C405 C425 1.449 . S
C406 C405 1.258 . S
C406 C407 1.477 . S
C406 H426 0.931 . S
C407 C403 1.460 . S
C407 C406 1.477 . S
C407 H427 0.930 . S
C408 N404 1.362 . S
C408 C405 1.431 . S
C408 C418 1.476 . S
H409 C403 0.929 . S
C410 O401 1.250 . S
C410 O402 1.258 . S
O411 Mn396 2.162 . S
O411 C399 1.281 . S
O412 Mn396 2.297 . S
O412 C399 1.236 . S
N413 Mn397 2.282 . S
N413 C414 1.328 . S
N413 C418 1.318 . S
C414 N413 1.328 . S
C414 C415 1.457 . S
C414 H419 0.929 . S
C415 C414 1.457 . S
C415 C416 1.291 . S
C415 H428 0.931 . S
C416 C415 1.291 . S
C416 C417 1.373 . S
C416 H429 0.929 . S
C417 C416 1.373 . S
C417 C418 1.396 . S
C417 C424 1.403 . S
C418 C408 1.476 . S
C418 N413 1.318 . S
C418 C417 1.396 . S
H419 C414 0.929 . S
O420 Mn396 2.385 . S
O420 C398 1.234 . S
O421 Mn396 2.209 . S
O421 Mn397 2.215 . S
O421 C398 1.283 . S
O422 Mn396 2.094 . S
O422 C400 1.240 . S
O423 Mn397 2.117 . S
O423 C400 1.264 . S
C424 C417 1.403 . S
C424 C425 1.399 . S
C424 H430 0.929 1_554 S
C425 C405 1.449 . S
C425 C424 1.399 . S
C425 H431 0.930 1_554 S
H426 C406 0.931 . S
H427 C407 0.930 . S
H428 C415 0.931 . S
H429 C416 0.929 . S
H430 C424 0.929 1_556 S
H431 C425 0.930 1_556 S
Mn432 O437 2.095 . S
Mn432 O447 2.162 . S
Mn432 O448 2.297 . S
Mn432 O456 2.385 . S
Mn432 O457 2.209 . S
Mn432 O458 2.094 . S
Mn433 O438 2.121 . S
Mn433 N440 2.257 . S
Mn433 N449 2.282 . S
Mn433 O457 2.215 . S
Mn433 O459 2.117 . S
C434 O456 1.234 . S
C434 O457 1.283 . S
C435 O447 1.281 . S
C435 O448 1.236 . S
C436 O458 1.240 . S
C436 O459 1.264 . S
O437 Mn432 2.095 . S
O437 C446 1.250 . S
O438 Mn433 2.121 . S
O438 C446 1.258 . S
C439 N440 1.326 . S
C439 C443 1.460 . S
C439 H445 0.929 . S
N440 Mn433 2.257 . S
N440 C439 1.326 . S
N440 C444 1.362 . S
C441 C442 1.258 . S
C441 C444 1.431 . S
C441 C461 1.449 . S
C442 C441 1.258 . S
C442 C443 1.477 . S
C442 H462 0.931 . S
C443 C439 1.460 . S
C443 C442 1.477 . S
C443 H463 0.930 . S
C444 N440 1.362 . S
C444 C441 1.431 . S
C444 C454 1.476 . S
H445 C439 0.929 . S
C446 O437 1.250 . S
C446 O438 1.258 . S
O447 Mn432 2.162 . S
O447 C435 1.281 . S
O448 Mn432 2.297 . S
O448 C435 1.236 . S
N449 Mn433 2.282 . S
N449 C450 1.328 . S
N449 C454 1.318 . S
C450 N449 1.328 . S
C450 C451 1.457 . S
C450 H455 0.929 . S
C451 C450 1.457 . S
C451 C452 1.291 . S
C451 H464 0.931 . S
C452 C451 1.291 . S
C452 C453 1.373 . S
C452 H465 0.929 . S
C453 C452 1.373 . S
C453 C454 1.396 . S
C453 C460 1.403 . S
C454 C444 1.476 . S
C454 N449 1.318 . S
C454 C453 1.396 . S
H455 C450 0.929 . S
O456 Mn432 2.385 . S
O456 C434 1.234 . S
O457 Mn432 2.209 . S
O457 Mn433 2.215 . S
O457 C434 1.283 . S
O458 Mn432 2.094 . S
O458 C436 1.240 . S
O459 Mn433 2.117 . S
O459 C436 1.264 . S
C460 C453 1.403 . S
C460 C461 1.399 . S
C460 H466 0.929 . S
C461 C441 1.449 . S
C461 C460 1.399 . S
C461 H467 0.930 . S
H462 C442 0.931 . S
H463 C443 0.930 . S
H464 C451 0.931 . S
H465 C452 0.929 . S
H466 C460 0.929 . S
H467 C461 0.930 . S
Mn468 O473 2.095 . S
Mn468 O483 2.162 . S
Mn468 O484 2.297 . S
Mn468 O492 2.385 . S
Mn468 O493 2.209 . S
Mn468 O494 2.094 . S
Mn469 O474 2.121 . S
Mn469 N476 2.257 1_554 S
Mn469 N485 2.282 1_554 S
Mn469 O493 2.215 . S
Mn469 O495 2.117 . S
C470 O492 1.234 . S
C470 O493 1.283 . S
C471 O483 1.281 . S
C471 O484 1.236 . S
C472 O494 1.240 . S
C472 O495 1.264 . S
O473 Mn468 2.095 . S
O473 C482 1.250 . S
O474 Mn469 2.121 . S
O474 C482 1.258 . S
C475 N476 1.326 1_655 S
C475 C479 1.460 . S
C475 H481 0.929 1_556 S
N476 Mn469 2.257 1_556 S
N476 C475 1.326 1_455 S
N476 C480 1.362 . S
C477 C478 1.258 1_455 S
C477 C480 1.431 . S
C477 C497 1.449 . S
C478 C477 1.258 1_655 S
C478 C479 1.477 . S
C478 H498 0.931 . S
C479 C475 1.460 . S
C479 C478 1.477 . S
C479 H499 0.930 . S
C480 N476 1.362 . S
C480 C477 1.431 . S
C480 C490 1.476 . S
H481 C475 0.929 1_554 S
C482 O473 1.250 . S
C482 O474 1.258 . S
O483 Mn468 2.162 . S
O483 C471 1.281 . S
O484 Mn468 2.297 . S
O484 C471 1.236 . S
N485 Mn469 2.282 1_556 S
N485 C486 1.328 . S
N485 C490 1.318 . S
C486 N485 1.328 . S
C486 C487 1.457 . S
C486 H491 0.929 1_556 S
C487 C486 1.457 . S
C487 C488 1.291 . S
C487 H500 0.931 . S
C488 C487 1.291 . S
C488 C489 1.373 . S
C488 H501 0.929 . S
C489 C488 1.373 . S
C489 C490 1.396 . S
C489 C496 1.403 . S
C490 C480 1.476 . S
C490 N485 1.318 . S
C490 C489 1.396 . S
H491 C486 0.929 1_554 S
O492 Mn468 2.385 . S
O492 C470 1.234 . S
O493 Mn468 2.209 . S
O493 Mn469 2.215 . S
O493 C470 1.283 . S
O494 Mn468 2.094 . S
O494 C472 1.240 . S
O495 Mn469 2.117 . S
O495 C472 1.264 . S
C496 C489 1.403 . S
C496 C497 1.399 . S
C496 H502 0.929 . S
C497 C477 1.449 . S
C497 C496 1.399 . S
C497 H503 0.930 . S
H498 C478 0.931 . S
H499 C479 0.930 . S
H500 C487 0.931 . S
H501 C488 0.929 . S
H502 C496 0.929 . S
H503 C497 0.930 . S
Mn504 O509 2.095 . S
Mn504 O519 2.162 . S
Mn504 O520 2.297 . S
Mn504 O528 2.385 . S
Mn504 O529 2.209 . S
Mn504 O530 2.094 . S
Mn505 O510 2.121 . S
Mn505 N512 2.257 . S
Mn505 N521 2.282 . S
Mn505 O529 2.215 . S
Mn505 O531 2.117 . S
C506 O528 1.234 . S
C506 O529 1.283 . S
C507 O519 1.281 . S
C507 O520 1.236 . S
C508 O530 1.240 . S
C508 O531 1.264 . S
O509 Mn504 2.095 . S
O509 C518 1.250 . S
O510 Mn505 2.121 . S
O510 C518 1.258 . S
C511 N512 1.326 . S
C511 C515 1.460 . S
C511 H517 0.929 . S
N512 Mn505 2.257 . S
N512 C511 1.326 . S
N512 C516 1.362 . S
C513 C514 1.258 . S
C513 C516 1.431 . S
C513 C533 1.449 . S
C514 C513 1.258 . S
C514 C515 1.477 . S
C514 H534 0.931 . S
C515 C511 1.460 . S
C515 C514 1.477 . S
C515 H535 0.930 . S
C516 N512 1.362 . S
C516 C513 1.431 . S
C516 C526 1.476 . S
H517 C511 0.929 . S
C518 O509 1.250 . S
C518 O510 1.258 . S
O519 Mn504 2.162 . S
O519 C507 1.281 . S
O520 Mn504 2.297 . S
O520 C507 1.236 . S
N521 Mn505 2.282 . S
N521 C522 1.328 . S
N521 C526 1.318 . S
C522 N521 1.328 . S
C522 C523 1.457 . S
C522 H527 0.929 . S
C523 C522 1.457 . S
C523 C524 1.291 . S
C523 H536 0.931 . S
C524 C523 1.291 . S
C524 C525 1.373 . S
C524 H537 0.929 . S
C525 C524 1.373 . S
C525 C526 1.396 . S
C525 C532 1.403 . S
C526 C516 1.476 . S
C526 N521 1.318 . S
C526 C525 1.396 . S
H527 C522 0.929 . S
O528 Mn504 2.385 . S
O528 C506 1.234 . S
O529 Mn504 2.209 . S
O529 Mn505 2.215 . S
O529 C506 1.283 . S
O530 Mn504 2.094 . S
O530 C508 1.240 . S
O531 Mn505 2.117 . S
O531 C508 1.264 . S
C532 C525 1.403 . S
C532 C533 1.399 . S
C532 H538 0.929 . S
C533 C513 1.449 . S
C533 C532 1.399 . S
C533 H539 0.930 . S
H534 C514 0.931 . S
H535 C515 0.930 . S
H536 C523 0.931 . S
H537 C524 0.929 . S
H538 C532 0.929 . S
H539 C533 0.930 . S
Mn540 O545 2.095 . S
Mn540 O555 2.162 . S
Mn540 O556 2.297 . S
Mn540 O564 2.385 . S
Mn540 O565 2.209 . S
Mn540 O566 2.094 . S
Mn541 O546 2.121 1_554 S
Mn541 N548 2.257 . S
Mn541 N557 2.282 . S
Mn541 O565 2.215 1_554 S
Mn541 O567 2.117 1_554 S
C542 O564 1.234 . S
C542 O565 1.283 . S
C543 O555 1.281 . S
C543 O556 1.236 . S
C544 O566 1.240 . S
C544 O567 1.264 . S
O545 Mn540 2.095 . S
O545 C554 1.250 . S
O546 Mn541 2.121 1_556 S
O546 C554 1.258 . S
C547 N548 1.326 1_655 S
C547 C551 1.460 . S
C547 H553 0.929 . S
N548 Mn541 2.257 . S
N548 C547 1.326 1_455 S
N548 C552 1.362 . S
C549 C550 1.258 1_455 S
C549 C552 1.431 . S
C549 C569 1.449 . S
C550 C549 1.258 1_655 S
C550 C551 1.477 . S
C550 H570 0.931 . S
C551 C547 1.460 . S
C551 C550 1.477 . S
C551 H571 0.930 . S
C552 N548 1.362 . S
C552 C549 1.431 . S
C552 C562 1.476 . S
H553 C547 0.929 . S
C554 O545 1.250 . S
C554 O546 1.258 . S
O555 Mn540 2.162 . S
O555 C543 1.281 . S
O556 Mn540 2.297 . S
O556 C543 1.236 . S
N557 Mn541 2.282 . S
N557 C558 1.328 . S
N557 C562 1.318 . S
C558 N557 1.328 . S
C558 C559 1.457 . S
C558 H563 0.929 . S
C559 C558 1.457 . S
C559 C560 1.291 . S
C559 H572 0.931 . S
C560 C559 1.291 . S
C560 C561 1.373 . S
C560 H573 0.929 . S
C561 C560 1.373 . S
C561 C562 1.396 . S
C561 C568 1.403 . S
C562 C552 1.476 . S
C562 N557 1.318 . S
C562 C561 1.396 . S
H563 C558 0.929 . S
O564 Mn540 2.385 . S
O564 C542 1.234 . S
O565 Mn540 2.209 . S
O565 Mn541 2.215 1_556 S
O565 C542 1.283 . S
O566 Mn540 2.094 . S
O566 C544 1.240 . S
O567 Mn541 2.117 1_556 S
O567 C544 1.264 . S
C568 C561 1.403 . S
C568 C569 1.399 . S
C568 H574 0.929 . S
C569 C549 1.449 . S
C569 C568 1.399 . S
C569 H575 0.930 . S
H570 C550 0.931 . S
H571 C551 0.930 . S
H572 C559 0.931 . S
H573 C560 0.929 . S
H574 C568 0.929 . S
H575 C569 0.930 . S
C576 C577 1.363 . S
C576 C582 1.379 . S
C576 N584 1.356 . S
C577 C576 1.363 . S
C577 C583 1.363 . S
C578 C579 1.363 . S
C578 C583 1.379 . S
C578 N585 1.356 . S
C579 C578 1.363 . S
C579 C582 1.363 . S
N580 C582 1.356 . S
N580 H592 0.984 . S
N580 H593 0.985 . S
N581 C583 1.356 . S
N581 H586 0.984 . S
N581 H587 0.985 1_554 S
C582 C576 1.379 . S
C582 C579 1.363 . S
C582 N580 1.356 . S
C583 C577 1.363 . S
C583 C578 1.379 . S
C583 N581 1.356 . S
N584 C576 1.356 . S
N584 H590 0.984 . S
N584 H591 0.984 . S
N585 C578 1.356 . S
N585 H588 0.984 . S
N585 H589 0.985 . S
H586 N581 0.984 . S
H587 N581 0.985 1_556 S
H588 N585 0.984 . S
H589 N585 0.985 . S
H590 N584 0.984 . S
H591 N584 0.984 . S
H592 N580 0.984 . S
H593 N580 0.985 . S
C594 C595 1.363 . S
C594 C600 1.379 . S
C594 N602 1.356 . S
C595 C594 1.363 . S
C595 C601 1.363 . S
C596 C597 1.363 . S
C596 C601 1.379 . S
C596 N603 1.356 . S
C597 C596 1.363 . S
C597 C600 1.363 . S
N598 C600 1.356 . S
N598 H610 0.984 . S
N598 H611 0.985 . S
N599 C601 1.356 . S
N599 H604 0.984 . S
N599 H605 0.985 . S
C600 C594 1.379 . S
C600 C597 1.363 . S
C600 N598 1.356 . S
C601 C595 1.363 . S
C601 C596 1.379 . S
C601 N599 1.356 . S
N602 C594 1.356 . S
N602 H608 0.984 . S
N602 H609 0.984 . S
N603 C596 1.356 . S
N603 H606 0.984 . S
N603 H607 0.985 . S
H604 N599 0.984 . S
H605 N599 0.985 . S
H606 N603 0.984 . S
H607 N603 0.985 . S
H608 N602 0.984 . S
H609 N602 0.984 . S
H610 N598 0.984 . S
H611 N598 0.985 . S
C612 C613 1.363 . S
C612 C618 1.379 . S
C612 N620 1.356 . S
C613 C612 1.363 . S
C613 C619 1.363 . S
C614 C615 1.363 . S
C614 C619 1.379 . S
C614 N621 1.356 . S
C615 C614 1.363 . S
C615 C618 1.363 . S
N616 C618 1.356 . S
N616 H628 0.984 . S
N616 H629 0.985 . S
N617 C619 1.356 . S
N617 H622 0.984 . S
N617 H623 0.985 . S
C618 C612 1.379 . S
C618 C615 1.363 . S
C618 N616 1.356 . S
C619 C613 1.363 . S
C619 C614 1.379 . S
C619 N617 1.356 . S
N620 C612 1.356 . S
N620 H626 0.984 . S
N620 H627 0.984 . S
N621 C614 1.356 . S
N621 H624 0.984 . S
N621 H625 0.985 . S
H622 N617 0.984 . S
H623 N617 0.985 . S
H624 N621 0.984 . S
H625 N621 0.985 . S
H626 N620 0.984 . S
H627 N620 0.984 . S
H628 N616 0.984 . S
H629 N616 0.985 . S
C630 C631 1.363 1_554 S
C630 C636 1.379 1_554 S
C630 N638 1.356 . S
C631 C630 1.363 1_556 S
C631 C637 1.363 . S
C632 C633 1.363 . S
C632 C637 1.379 . S
C632 N639 1.356 . S
C633 C632 1.363 . S
C633 C636 1.363 . S
N634 C636 1.356 1_455 S
N634 H646 0.984 1_556 S
N634 H647 0.985 . S
N635 C637 1.356 . S
N635 H640 0.984 . S
N635 H641 0.985 . S
C636 C630 1.379 1_556 S
C636 C633 1.363 . S
C636 N634 1.356 1_655 S
C637 C631 1.363 . S
C637 C632 1.379 . S
C637 N635 1.356 . S
N638 C630 1.356 . S
N638 H644 0.984 . S
N638 H645 0.984 . S
N639 C632 1.356 . S
N639 H642 0.984 . S
N639 H643 0.985 . S
H640 N635 0.984 . S
H641 N635 0.985 . S
H642 N639 0.984 . S
H643 N639 0.985 . S
H644 N638 0.984 . S
H645 N638 0.984 . S
H646 N634 0.984 1_554 S
H647 N634 0.985 . S
C648 C649 1.363 . S
C648 C654 1.379 . S
C648 N656 1.356 . S
C649 C648 1.363 . S
C649 C655 1.363 . S
C650 C651 1.363 . S
C650 C655 1.379 . S
C650 N657 1.356 1_556 S
C651 C650 1.363 . S
C651 C654 1.363 . S
N652 C654 1.356 . S
N652 H664 0.984 . S
N652 H665 0.985 . S
N653 C655 1.356 . S
N653 H658 0.984 . S
N653 H659 0.985 . S
C654 C648 1.379 . S
C654 C651 1.363 . S
C654 N652 1.356 . S
C655 C649 1.363 . S
C655 C650 1.379 . S
C655 N653 1.356 . S
N656 C648 1.356 . S
N656 H662 0.984 . S
N656 H663 0.984 . S
N657 C650 1.356 1_554 S
N657 H660 0.984 . S
N657 H661 0.985 . S
H658 N653 0.984 . S
H659 N653 0.985 . S
H660 N657 0.984 . S
H661 N657 0.985 . S
H662 N656 0.984 . S
H663 N656 0.984 . S
H664 N652 0.984 . S
H665 N652 0.985 . S
C666 C667 1.363 . S
C666 C672 1.379 . S
C666 N674 1.356 1_655 S
C667 C666 1.363 . S
C667 C673 1.363 . S
C668 C669 1.363 . S
C668 C673 1.379 . S
C668 N675 1.356 . S
C669 C668 1.363 . S
C669 C672 1.363 . S
N670 C672 1.356 . S
N670 H682 0.984 . S
N670 H683 0.985 . S
N671 C673 1.356 . S
N671 H676 0.984 . S
N671 H677 0.985 . S
C672 C666 1.379 . S
C672 C669 1.363 . S
C672 N670 1.356 . S
C673 C667 1.363 . S
C673 C668 1.379 . S
C673 N671 1.356 . S
N674 C666 1.356 1_455 S
N674 H680 0.984 . S
N674 H681 0.984 . S
N675 C668 1.356 . S
N675 H678 0.984 . S
N675 H679 0.985 . S
H676 N671 0.984 . S
H677 N671 0.985 . S
H678 N675 0.984 . S
H679 N675 0.985 . S
H680 N674 0.984 . S
H681 N674 0.984 . S
H682 N670 0.984 . S
H683 N670 0.985 . S
C684 C685 1.363 . S
C684 C690 1.379 . S
C684 N692 1.356 . S
C685 C684 1.363 . S
C685 C691 1.363 . S
C686 C687 1.363 . S
C686 C691 1.379 . S
C686 N693 1.356 . S
C687 C686 1.363 . S
C687 C690 1.363 . S
N688 C690 1.356 . S
N688 H700 0.984 . S
N688 H701 0.985 . S
N689 C691 1.356 . S
N689 H694 0.984 . S
N689 H695 0.985 . S
C690 C684 1.379 . S
C690 C687 1.363 . S
C690 N688 1.356 . S
C691 C685 1.363 . S
C691 C686 1.379 . S
C691 N689 1.356 . S
N692 C684 1.356 . S
N692 H698 0.984 . S
N692 H699 0.984 . S
N693 C686 1.356 . S
N693 H696 0.984 . S
N693 H697 0.985 . S
H694 N689 0.984 . S
H695 N689 0.985 . S
H696 N693 0.984 . S
H697 N693 0.985 . S
H698 N692 0.984 . S
H699 N692 0.984 . S
H700 N688 0.984 . S
H701 N688 0.985 . S
C702 C703 1.363 . S
C702 C708 1.379 . S
C702 N710 1.356 . S
C703 C702 1.363 . S
C703 C709 1.363 . S
C704 C705 1.363 . S
C704 C709 1.379 . S
C704 N711 1.356 . S
C705 C704 1.363 . S
C705 C708 1.363 . S
N706 C708 1.356 . S
N706 H718 0.984 . S
N706 H719 0.985 . S
N707 C709 1.356 . S
N707 H712 0.984 . S
N707 H713 0.985 . S
C708 C702 1.379 . S
C708 C705 1.363 . S
C708 N706 1.356 . S
C709 C703 1.363 . S
C709 C704 1.379 . S
C709 N707 1.356 . S
N710 C702 1.356 . S
N710 H716 0.984 . S
N710 H717 0.984 . S
N711 C704 1.356 . S
N711 H714 0.984 . S
N711 H715 0.985 . S
H712 N707 0.984 . S
H713 N707 0.985 . S
H714 N711 0.984 . S
H715 N711 0.985 . S
H716 N710 0.984 . S
H717 N710 0.984 . S
H718 N706 0.984 . S
H719 N706 0.985 . S
C720 C721 1.363 . S
C720 C726 1.379 . S
C720 N728 1.356 1_656 S
C721 C720 1.363 . S
C721 C727 1.363 . S
C722 C723 1.363 . S
C722 C727 1.379 . S
C722 N729 1.356 . S
C723 C722 1.363 . S
C723 C726 1.363 . S
N724 C726 1.356 1_554 S
N724 H736 0.984 . S
N724 H737 0.985 . S
N725 C727 1.356 . S
N725 H730 0.984 . S
N725 H731 0.985 . S
C726 C720 1.379 . S
C726 C723 1.363 . S
C726 N724 1.356 1_556 S
C727 C721 1.363 . S
C727 C722 1.379 . S
C727 N725 1.356 . S
N728 C720 1.356 1_454 S
N728 H734 0.984 . S
N728 H735 0.984 1_554 S
N729 C722 1.356 . S
N729 H732 0.984 . S
N729 H733 0.985 . S
H730 N725 0.984 . S
H731 N725 0.985 . S
H732 N729 0.984 . S
H733 N729 0.985 . S
H734 N728 0.984 . S
H735 N728 0.984 1_556 S
H736 N724 0.984 . S
H737 N724 0.985 . S
C738 C739 1.363 . S
C738 C744 1.379 . S
C738 N746 1.356 . S
C739 C738 1.363 . S
C739 C745 1.363 . S
C740 C741 1.363 . S
C740 C745 1.379 . S
C740 N747 1.356 . S
C741 C740 1.363 . S
C741 C744 1.363 . S
N742 C744 1.356 . S
N742 H754 0.984 . S
N742 H755 0.985 . S
N743 C745 1.356 . S
N743 H748 0.984 . S
N743 H749 0.985 . S
C744 C738 1.379 . S
C744 C741 1.363 . S
C744 N742 1.356 . S
C745 C739 1.363 . S
C745 C740 1.379 . S
C745 N743 1.356 . S
N746 C738 1.356 . S
N746 H752 0.984 . S
N746 H753 0.984 . S
N747 C740 1.356 . S
N747 H750 0.984 . S
N747 H751 0.985 . S
H748 N743 0.984 . S
H749 N743 0.985 . S
H750 N747 0.984 . S
H751 N747 0.985 . S
H752 N746 0.984 . S
H753 N746 0.984 . S
H754 N742 0.984 . S
H755 N742 0.985 . S
C756 C757 1.363 . S
C756 C762 1.379 . S
C756 N764 1.356 . S
C757 C756 1.363 . S
C757 C763 1.363 . S
C758 C759 1.363 . S
C758 C763 1.379 . S
C758 N765 1.356 . S
C759 C758 1.363 . S
C759 C762 1.363 . S
N760 C762 1.356 . S
N760 H772 0.984 . S
N760 H773 0.985 . S
N761 C763 1.356 . S
N761 H766 0.984 . S
N761 H767 0.985 . S
C762 C756 1.379 . S
C762 C759 1.363 . S
C762 N760 1.356 . S
C763 C757 1.363 . S
C763 C758 1.379 . S
C763 N761 1.356 . S
N764 C756 1.356 . S
N764 H770 0.984 . S
N764 H771 0.984 . S
N765 C758 1.356 . S
N765 H768 0.984 . S
N765 H769 0.985 . S
H766 N761 0.984 . S
H767 N761 0.985 . S
H768 N765 0.984 . S
H769 N765 0.985 . S
H770 N764 0.984 . S
H771 N764 0.984 . S
H772 N760 0.984 . S
H773 N760 0.985 . S
C774 C775 1.363 . S
C774 C780 1.379 . S
C774 N782 1.356 . S
C775 C774 1.363 . S
C775 C781 1.363 . S
C776 C777 1.363 . S
C776 C781 1.379 . S
C776 N783 1.356 . S
C777 C776 1.363 . S
C777 C780 1.363 . S
N778 C780 1.356 . S
N778 H790 0.984 . S
N778 H791 0.985 . S
N779 C781 1.356 . S
N779 H784 0.984 . S
N779 H785 0.985 . S
C780 C774 1.379 . S
C780 C777 1.363 . S
C780 N778 1.356 . S
C781 C775 1.363 . S
C781 C776 1.379 . S
C781 N779 1.356 . S
N782 C774 1.356 . S
N782 H788 0.984 . S
N782 H789 0.984 . S
N783 C776 1.356 . S
N783 H786 0.984 . S
N783 H787 0.985 . S
H784 N779 0.984 . S
H785 N779 0.985 . S
H786 N783 0.984 . S
H787 N783 0.985 . S
H788 N782 0.984 . S
H789 N782 0.984 . S
H790 N778 0.984 . S
H791 N778 0.985 . S
C792 C793 1.363 . S
C792 C798 1.379 . S
C792 N800 1.356 . S
C793 C792 1.363 . S
C793 C799 1.363 . S
C794 C795 1.363 . S
C794 C799 1.377 . S
C794 N801 1.356 . S
C795 C794 1.363 . S
C795 C798 1.363 . S
N796 C798 1.356 . S
N796 H808 0.984 . S
N796 H809 0.985 . S
N797 C799 1.359 1_455 S
N797 H802 0.984 . S
N797 H803 0.985 . S
C798 C792 1.379 . S
C798 C795 1.363 . S
C798 N796 1.356 . S
C799 C793 1.363 . S
C799 C794 1.377 . S
C799 N797 1.359 1_655 S
N800 C792 1.356 . S
N800 H806 0.984 . S
N800 H807 0.984 . S
N801 C794 1.356 . S
N801 H804 0.984 . S
N801 H805 0.985 . S
H802 N797 0.984 . S
H803 N797 0.985 . S
H804 N801 0.984 . S
H805 N801 0.985 . S
H806 N800 0.984 . S
H807 N800 0.984 . S
H808 N796 0.984 . S
H809 N796 0.985 . S
C810 C811 1.363 1_554 S
C810 C816 1.379 . S
C810 N818 1.356 . S
C811 C810 1.363 1_556 S
C811 C817 1.363 . S
C812 C813 1.363 . S
C812 C817 1.379 . S
C812 N819 1.356 . S
C813 C812 1.363 . S
C813 C816 1.363 1_556 S
N814 C816 1.356 . S
N814 H826 0.984 . S
N814 H827 0.985 . S
N815 C817 1.356 . S
N815 H820 0.984 . S
N815 H821 0.985 . S
C816 C810 1.379 . S
C816 C813 1.363 1_554 S
C816 N814 1.356 . S
C817 C811 1.363 . S
C817 C812 1.379 . S
C817 N815 1.356 . S
N818 C810 1.356 . S
N818 H824 0.984 . S
N818 H825 0.984 . S
N819 C812 1.356 . S
N819 H822 0.984 . S
N819 H823 0.985 . S
H820 N815 0.984 . S
H821 N815 0.985 . S
H822 N819 0.984 . S
H823 N819 0.985 . S
H824 N818 0.984 . S
H825 N818 0.984 . S
H826 N814 0.984 . S
H827 N814 0.985 . S
C828 C829 1.363 . S
C828 C834 1.379 . S
C828 N836 1.356 . S
C829 C828 1.363 . S
C829 C835 1.363 . S
C830 C831 1.363 . S
C830 C835 1.379 . S
C830 N837 1.356 . S
C831 C830 1.363 . S
C831 C834 1.363 . S
N832 C834 1.356 . S
N832 H844 0.984 . S
N832 H845 0.985 . S
N833 C835 1.356 . S
N833 H838 0.984 . S
N833 H839 0.985 . S
C834 C828 1.379 . S
C834 C831 1.363 . S
C834 N832 1.356 . S
C835 C829 1.363 . S
C835 C830 1.379 . S
C835 N833 1.356 . S
N836 C828 1.356 . S
N836 H842 0.984 . S
N836 H843 0.984 . S
N837 C830 1.356 . S
N837 H840 0.984 . S
N837 H841 0.985 . S
H838 N833 0.984 . S
H839 N833 0.985 . S
H840 N837 0.984 . S
H841 N837 0.985 . S
H842 N836 0.984 . S
H843 N836 0.984 . S
H844 N832 0.984 . S
H845 N832 0.985 . S
C846 C847 1.363 . S
C846 C852 1.379 . S
C846 N854 1.356 . S
C847 C846 1.363 . S
C847 C853 1.363 . S
C848 C849 1.363 . S
C848 C853 1.379 . S
C848 N855 1.356 . S
C849 C848 1.363 . S
C849 C852 1.363 . S
N850 C852 1.356 . S
N850 H862 0.984 . S
N850 H863 0.985 . S
N851 C853 1.356 . S
N851 H856 0.984 . S
N851 H857 0.985 . S
C852 C846 1.379 . S
C852 C849 1.363 . S
C852 N850 1.356 . S
C853 C847 1.363 . S
C853 C848 1.379 . S
C853 N851 1.356 . S
N854 C846 1.356 . S
N854 H860 0.984 . S
N854 H861 0.984 . S
N855 C848 1.356 . S
N855 H858 0.984 . S
N855 H859 0.985 . S
H856 N851 0.984 . S
H857 N851 0.985 . S
H858 N855 0.984 . S
H859 N855 0.985 . S
H860 N854 0.984 . S
H861 N854 0.984 . S
H862 N850 0.984 . S
H863 N850 0.985 . S
C864 C865 1.363 . S
C864 C870 1.379 . S
C864 N872 1.356 . S
C865 C864 1.363 . S
C865 C871 1.363 . S
C866 C867 1.363 . S
C866 C871 1.379 1_556 S
C866 N873 1.356 . S
C867 C866 1.363 . S
C867 C870 1.363 1_556 S
N868 C870 1.356 . S
N868 H880 0.984 . S
N868 H881 0.985 . S
N869 C871 1.356 . S
N869 H874 0.984 . S
N869 H875 0.985 1_554 S
C870 C864 1.379 . S
C870 C867 1.363 1_554 S
C870 N868 1.356 . S
C871 C865 1.363 . S
C871 C866 1.379 1_554 S
C871 N869 1.356 . S
N872 C864 1.356 . S
N872 H878 0.984 . S
N872 H879 0.984 . S
N873 C866 1.356 . S
N873 H876 0.984 . S
N873 H877 0.985 . S
H874 N869 0.984 . S
H875 N869 0.985 1_556 S
H876 N873 0.984 . S
H877 N873 0.985 . S
H878 N872 0.984 . S
H879 N872 0.984 . S
H880 N868 0.984 . S
H881 N868 0.985 . S
C882 C883 1.363 . S
C882 C888 1.379 . S
C882 N890 1.356 . S
C883 C882 1.363 . S
C883 C889 1.363 . S
C884 C885 1.363 . S
C884 C889 1.379 . S
C884 N891 1.356 . S
C885 C884 1.363 . S
C885 C888 1.363 . S
N886 C888 1.356 . S
N886 H898 0.984 . S
N886 H899 0.985 . S
N887 C889 1.356 . S
N887 H892 0.984 . S
N887 H893 0.985 . S
C888 C882 1.379 . S
C888 C885 1.363 . S
C888 N886 1.356 . S
C889 C883 1.363 . S
C889 C884 1.379 . S
C889 N887 1.356 . S
N890 C882 1.356 . S
N890 H896 0.984 . S
N890 H897 0.984 . S
N891 C884 1.356 . S
N891 H894 0.984 . S
N891 H895 0.985 . S
H892 N887 0.984 . S
H893 N887 0.985 . S
H894 N891 0.984 . S
H895 N891 0.985 . S
H896 N890 0.984 . S
H897 N890 0.984 . S
H898 N886 0.984 . S
H899 N886 0.985 . S
C900 C901 1.363 . S
C900 C906 1.379 . S
C900 N908 1.356 . S
C901 C900 1.363 . S
C901 C907 1.363 . S
C902 C903 1.363 . S
C902 C907 1.379 . S
C902 N909 1.356 . S
C903 C902 1.363 . S
C903 C906 1.363 . S
N904 C906 1.356 . S
N904 H916 0.984 . S
N904 H917 0.985 . S
N905 C907 1.356 . S
N905 H910 0.984 . S
N905 H911 0.985 . S
C906 C900 1.379 . S
C906 C903 1.363 . S
C906 N904 1.356 . S
C907 C901 1.363 . S
C907 C902 1.379 . S
C907 N905 1.356 . S
N908 C900 1.356 . S
N908 H914 0.984 . S
N908 H915 0.984 . S
N909 C902 1.356 . S
N909 H912 0.984 . S
N909 H913 0.985 . S
H910 N905 0.984 . S
H911 N905 0.985 . S
H912 N909 0.984 . S
H913 N909 0.985 . S
H914 N908 0.984 . S
H915 N908 0.984 . S
H916 N904 0.984 . S
H917 N904 0.985 . S
C918 C919 1.363 . S
C918 C924 1.379 . S
C918 N926 1.356 . S
C919 C918 1.363 . S
C919 C925 1.363 . S
C920 C921 1.363 . S
C920 C925 1.379 . S
C920 N927 1.356 . S
C921 C920 1.363 . S
C921 C924 1.363 . S
N922 C924 1.356 . S
N922 H934 0.984 . S
N922 H935 0.985 . S
N923 C925 1.356 . S
N923 H928 0.984 . S
N923 H929 0.985 . S
C924 C918 1.379 . S
C924 C921 1.363 . S
C924 N922 1.356 . S
C925 C919 1.363 . S
C925 C920 1.379 . S
C925 N923 1.356 . S
N926 C918 1.356 . S
N926 H932 0.984 . S
N926 H933 0.984 . S
N927 C920 1.356 . S
N927 H930 0.984 . S
N927 H931 0.985 . S
H928 N923 0.984 . S
H929 N923 0.985 . S
H930 N927 0.984 . S
H931 N927 0.985 . S
H932 N926 0.984 . S
H933 N926 0.984 . S
H934 N922 0.984 . S
H935 N922 0.985 . S
C936 C937 1.363 . S
C936 C942 1.379 . S
C936 N944 1.356 . S
C937 C936 1.363 . S
C937 C943 1.363 . S
C938 C939 1.363 . S
C938 C943 1.379 . S
C938 N945 1.356 . S
C939 C938 1.363 . S
C939 C942 1.363 . S
N940 C942 1.356 . S
N940 H952 0.984 . S
N940 H953 0.985 . S
N941 C943 1.356 . S
N941 H946 0.984 . S
N941 H947 0.985 . S
C942 C936 1.379 . S
C942 C939 1.363 . S
C942 N940 1.356 . S
C943 C937 1.363 . S
C943 C938 1.379 . S
C943 N941 1.356 . S
N944 C936 1.356 . S
N944 H950 0.984 . S
N944 H951 0.984 . S
N945 C938 1.356 . S
N945 H948 0.984 . S
N945 H949 0.985 . S
H946 N941 0.984 . S
H947 N941 0.985 . S
H948 N945 0.984 . S
H949 N945 0.985 . S
H950 N944 0.984 . S
H951 N944 0.984 . S
H952 N940 0.984 . S
H953 N940 0.985 . S
C954 C955 1.363 . S
C954 C960 1.379 . S
C954 N962 1.356 . S
C955 C954 1.363 . S
C955 C961 1.363 . S
C956 C957 1.363 . S
C956 C961 1.379 . S
C956 N963 1.356 . S
C957 C956 1.363 . S
C957 C960 1.363 . S
N958 C960 1.356 . S
N958 H970 0.984 . S
N958 H971 0.985 . S
N959 C961 1.356 . S
N959 H964 0.984 . S
N959 H965 0.985 . S
C960 C954 1.379 . S
C960 C957 1.363 . S
C960 N958 1.356 . S
C961 C955 1.363 . S
C961 C956 1.379 . S
C961 N959 1.356 . S
N962 C954 1.356 . S
N962 H968 0.984 . S
N962 H969 0.984 . S
N963 C956 1.356 . S
N963 H966 0.984 . S
N963 H967 0.985 . S
H964 N959 0.984 . S
H965 N959 0.985 . S
H966 N963 0.984 . S
H967 N963 0.985 . S
H968 N962 0.984 . S
H969 N962 0.984 . S
H970 N958 0.984 . S
H971 N958 0.985 . S
C972 C973 1.363 1_545 S
C972 C978 1.379 . S
C972 N980 1.356 . S
C973 C972 1.363 1_565 S
C973 C979 1.363 . S
C974 C975 1.363 1_565 S
C974 C979 1.379 . S
C974 N981 1.356 . S
C975 C974 1.363 1_545 S
C975 C978 1.363 . S
N976 C978 1.356 . S
N976 H988 0.984 . S
N976 H989 0.985 . S
N977 C979 1.356 . S
N977 H982 0.984 . S
N977 H983 0.985 . S
C978 C972 1.379 . S
C978 C975 1.363 . S
C978 N976 1.356 . S
C979 C973 1.363 . S
C979 C974 1.379 . S
C979 N977 1.356 . S
N980 C972 1.356 . S
N980 H986 0.984 . S
N980 H987 0.984 1_545 S
N981 C974 1.356 . S
N981 H984 0.984 1_565 S
N981 H985 0.985 . S
H982 N977 0.984 . S
H983 N977 0.985 . S
H984 N981 0.984 1_545 S
H985 N981 0.985 . S
H986 N980 0.984 . S
H987 N980 0.984 1_565 S
H988 N976 0.984 . S
H989 N976 0.985 . S
C990 C991 1.363 1_554 S
C990 C996 1.379 1_545 S
C990 N998 1.356 . S
C991 C990 1.363 1_556 S
C991 C997 1.363 1_556 S
C992 C993 1.363 . S
C992 C997 1.379 1_565 S
C992 N999 1.356 . S
C993 C992 1.363 . S
C993 C996 1.363 . S
N994 C996 1.356 . S
N994 H1006 0.986 1_565 S
N994 H1007 0.985 . S
N995 C997 1.356 1_556 S
N995 H1000 0.984 . S
N995 H1001 0.986 1_545 S
C996 C990 1.379 1_565 S
C996 C993 1.363 . S
C996 N994 1.356 . S
C997 C991 1.363 1_554 S
C997 C992 1.379 1_545 S
C997 N995 1.356 1_554 S
N998 C990 1.356 . S
N998 H1004 0.984 . S
N998 H1005 0.984 1_554 S
N999 C992 1.356 . S
N999 H1002 0.984 . S
N999 H1003 0.985 . S
H1000 N995 0.984 . S
H1001 N995 0.986 1_565 S
H1002 N999 0.984 . S
H1003 N999 0.985 . S
H1004 N998 0.984 . S
H1005 N998 0.984 1_556 S
H1006 N994 0.986 1_545 S
H1007 N994 0.985 . S
C1008 C1009 1.363 . S
C1008 C1014 1.379 . S
C1008 N1016 1.356 . S
C1009 C1008 1.363 . S
C1009 C1015 1.363 . S
C1010 C1011 1.363 . S
C1010 C1015 1.379 . S
C1010 N1017 1.356 . S
C1011 C1010 1.363 . S
C1011 C1014 1.363 . S
N1012 C1014 1.356 . S
N1012 H1024 0.984 . S
N1012 H1025 0.985 . S
N1013 C1015 1.356 . S
N1013 H1018 0.984 . S
N1013 H1019 0.985 . S
C1014 C1008 1.379 . S
C1014 C1011 1.363 . S
C1014 N1012 1.356 . S
C1015 C1009 1.363 . S
C1015 C1010 1.379 . S
C1015 N1013 1.356 . S
N1016 C1008 1.356 . S
N1016 H1022 0.984 . S
N1016 H1023 0.984 . S
N1017 C1010 1.356 . S
N1017 H1020 0.984 . S
N1017 H1021 0.985 . S
H1018 N1013 0.984 . S
H1019 N1013 0.985 . S
H1020 N1017 0.984 . S
H1021 N1017 0.985 . S
H1022 N1016 0.984 . S
H1023 N1016 0.984 . S
H1024 N1012 0.984 . S
H1025 N1012 0.985 . S
C1026 C1027 1.363 . S
C1026 C1032 1.379 . S
C1026 N1034 1.356 . S
C1027 C1026 1.363 . S
C1027 C1033 1.363 . S
C1028 C1029 1.363 . S
C1028 C1033 1.379 . S
C1028 N1035 1.356 . S
C1029 C1028 1.363 . S
C1029 C1032 1.363 . S
N1030 C1032 1.356 . S
N1030 H1042 0.984 . S
N1030 H1043 0.985 . S
N1031 C1033 1.356 . S
N1031 H1036 0.984 . S
N1031 H1037 0.985 . S
C1032 C1026 1.379 . S
C1032 C1029 1.363 . S
C1032 N1030 1.356 . S
C1033 C1027 1.363 . S
C1033 C1028 1.379 . S
C1033 N1031 1.356 . S
N1034 C1026 1.356 . S
N1034 H1040 0.984 . S
N1034 H1041 0.984 . S
N1035 C1028 1.356 . S
N1035 H1038 0.984 . S
N1035 H1039 0.985 . S
H1036 N1031 0.984 . S
H1037 N1031 0.985 . S
H1038 N1035 0.984 . S
H1039 N1035 0.985 . S
H1040 N1034 0.984 . S
H1041 N1034 0.984 . S
H1042 N1030 0.984 . S
H1043 N1030 0.985 . S
C1044 C1045 1.363 . S
C1044 C1050 1.379 . S
C1044 N1052 1.356 . S
C1045 C1044 1.363 . S
C1045 C1051 1.363 . S
C1046 C1047 1.363 . S
C1046 C1051 1.379 1_556 S
C1046 N1053 1.356 . S
C1047 C1046 1.363 . S
C1047 C1050 1.363 1_556 S
N1048 C1050 1.356 . S
N1048 H1060 0.984 . S
N1048 H1061 0.985 1_554 S
N1049 C1051 1.356 . S
N1049 H1054 0.984 . S
N1049 H1055 0.985 . S
C1050 C1044 1.379 . S
C1050 C1047 1.363 1_554 S
C1050 N1048 1.356 . S
C1051 C1045 1.363 . S
C1051 C1046 1.379 1_554 S
C1051 N1049 1.356 . S
N1052 C1044 1.356 . S
N1052 H1058 0.984 . S
N1052 H1059 0.984 . S
N1053 C1046 1.356 . S
N1053 H1056 0.984 . S
N1053 H1057 0.985 . S
H1054 N1049 0.984 . S
H1055 N1049 0.985 . S
H1056 N1053 0.984 . S
H1057 N1053 0.985 . S
H1058 N1052 0.984 . S
H1059 N1052 0.984 . S
H1060 N1048 0.984 . S
H1061 N1048 0.985 1_556 S
C1062 C1063 1.363 . S
C1062 C1068 1.379 . S
C1062 N1070 1.356 . S
C1063 C1062 1.363 . S
C1063 C1069 1.363 . S
C1064 C1065 1.363 . S
C1064 C1069 1.379 . S
C1064 N1071 1.356 . S
C1065 C1064 1.363 . S
C1065 C1068 1.363 . S
N1066 C1068 1.356 . S
N1066 H1078 0.984 . S
N1066 H1079 0.985 . S
N1067 C1069 1.356 . S
N1067 H1072 0.984 . S
N1067 H1073 0.985 . S
C1068 C1062 1.379 . S
C1068 C1065 1.363 . S
C1068 N1066 1.356 . S
C1069 C1063 1.363 . S
C1069 C1064 1.379 . S
C1069 N1067 1.356 . S
N1070 C1062 1.356 . S
N1070 H1076 0.984 . S
N1070 H1077 0.984 . S
N1071 C1064 1.356 . S
N1071 H1074 0.984 . S
N1071 H1075 0.985 . S
H1072 N1067 0.984 . S
H1073 N1067 0.985 . S
H1074 N1071 0.984 . S
H1075 N1071 0.985 . S
H1076 N1070 0.984 . S
H1077 N1070 0.984 . S
H1078 N1066 0.984 . S
H1079 N1066 0.985 . S
C1080 C1081 1.363 . S
C1080 C1086 1.379 . S
C1080 N1088 1.356 . S
C1081 C1080 1.363 . S
C1081 C1087 1.363 . S
C1082 C1083 1.363 . S
C1082 C1087 1.379 . S
C1082 N1089 1.356 . S
C1083 C1082 1.363 . S
C1083 C1086 1.363 . S
N1084 C1086 1.356 . S
N1084 H1096 0.984 . S
N1084 H1097 0.985 . S
N1085 C1087 1.356 . S
N1085 H1090 0.984 . S
N1085 H1091 0.985 . S
C1086 C1080 1.379 . S
C1086 C1083 1.363 . S
C1086 N1084 1.356 . S
C1087 C1081 1.363 . S
C1087 C1082 1.379 . S
C1087 N1085 1.356 . S
N1088 C1080 1.356 . S
N1088 H1094 0.984 . S
N1088 H1095 0.984 . S
N1089 C1082 1.356 . S
N1089 H1092 0.984 . S
N1089 H1093 0.985 . S
H1090 N1085 0.984 . S
H1091 N1085 0.985 . S
H1092 N1089 0.984 . S
H1093 N1089 0.985 . S
H1094 N1088 0.984 . S
H1095 N1088 0.984 . S
H1096 N1084 0.984 . S
H1097 N1084 0.985 . S
C1098 C1099 1.363 . S
C1098 C1104 1.379 . S
C1098 N1106 1.356 . S
C1099 C1098 1.363 . S
C1099 C1105 1.363 . S
C1100 C1101 1.363 . S
C1100 C1105 1.379 . S
C1100 N1107 1.356 . S
C1101 C1100 1.363 . S
C1101 C1104 1.363 . S
N1102 C1104 1.356 . S
N1102 H1114 0.984 . S
N1102 H1115 0.985 . S
N1103 C1105 1.356 . S
N1103 H1108 0.984 . S
N1103 H1109 0.985 . S
C1104 C1098 1.379 . S
C1104 C1101 1.363 . S
C1104 N1102 1.356 . S
C1105 C1099 1.363 . S
C1105 C1100 1.379 . S
C1105 N1103 1.356 . S
N1106 C1098 1.356 . S
N1106 H1112 0.984 . S
N1106 H1113 0.984 . S
N1107 C1100 1.356 . S
N1107 H1110 0.984 . S
N1107 H1111 0.985 . S
H1108 N1103 0.984 . S
H1109 N1103 0.985 . S
H1110 N1107 0.984 . S
H1111 N1107 0.985 . S
H1112 N1106 0.984 . S
H1113 N1106 0.984 . S
H1114 N1102 0.984 . S
H1115 N1102 0.985 . S
C1116 C1117 1.363 1_545 S
C1116 C1122 1.379 . S
C1116 N1124 1.359 . S
C1117 C1116 1.363 1_565 S
C1117 C1123 1.363 . S
C1118 C1119 1.363 1_565 S
C1118 C1123 1.379 1_556 S
C1118 N1125 1.359 . S
C1119 C1118 1.363 1_545 S
C1119 C1122 1.363 1_556 S
N1120 C1122 1.356 . S
N1120 H1132 0.984 . S
N1120 H1133 0.985 1_554 S
N1121 C1123 1.356 . S
N1121 H1126 0.984 . S
N1121 H1127 0.985 . S
C1122 C1116 1.379 . S
C1122 C1119 1.363 1_554 S
C1122 N1120 1.356 . S
C1123 C1117 1.363 . S
C1123 C1118 1.379 1_554 S
C1123 N1121 1.356 . S
N1124 C1116 1.359 . S
N1124 H1130 0.998 . S
N1124 H1131 0.969 1_545 S
N1125 C1118 1.359 . S
N1125 H1128 0.969 1_565 S
N1125 H1129 0.998 . S
H1126 N1121 0.984 . S
H1127 N1121 0.985 . S
H1128 N1125 0.969 1_545 S
H1129 N1125 0.998 . S
H1130 N1124 0.998 . S
H1131 N1124 0.969 1_565 S
H1132 N1120 0.984 . S
H1133 N1120 0.985 1_556 S
C1134 C1135 1.363 . S
C1134 C1140 1.379 . S
C1134 N1142 1.356 . S
C1135 C1134 1.363 . S
C1135 C1141 1.363 1_545 S
C1136 C1137 1.363 . S
C1136 C1141 1.379 . S
C1136 N1143 1.356 . S
C1137 C1136 1.363 . S
C1137 C1140 1.363 1_565 S
N1138 C1140 1.356 . S
N1138 H1150 0.984 . S
N1138 H1151 0.985 1_545 S
N1139 C1141 1.356 . S
N1139 H1144 0.984 1_565 S
N1139 H1145 0.985 . S
C1140 C1134 1.379 . S
C1140 C1137 1.363 1_545 S
C1140 N1138 1.356 . S
C1141 C1135 1.363 1_565 S
C1141 C1136 1.379 . S
C1141 N1139 1.356 . S
N1142 C1134 1.356 . S
N1142 H1148 0.984 . S
N1142 H1149 0.984 . S
N1143 C1136 1.356 . S
N1143 H1146 0.984 . S
N1143 H1147 0.985 . S
H1144 N1139 0.984 1_545 S
H1145 N1139 0.985 . S
H1146 N1143 0.984 . S
H1147 N1143 0.985 . S
H1148 N1142 0.984 . S
H1149 N1142 0.984 . S
H1150 N1138 0.984 . S
H1151 N1138 0.985 1_565 S
C577 C338 1.394 . S
C579 C14 1.394 . S
C595 C518 1.394 . S
C597 C50 1.394 . S
C613 C86 1.394 . S
C615 C302 1.394 . S
C631 C122 1.394 . S
C633 C554 1.394 1_655 S
C649 C158 1.394 . S
C651 C374 1.394 . S
C667 C482 1.394 1_655 S
C669 C194 1.394 . S
C685 C410 1.394 . S
C687 C230 1.394 . S
C703 C266 1.394 . S
C705 C446 1.394 . S
C721 C148 1.502 1_655 S
C723 C112 1.502 . S
C739 C436 1.502 . S
C741 C292 1.502 . S
C757 C220 1.502 . S
C759 C40 1.502 . S
C775 C328 1.502 . S
C777 C472 1.502 . S
C793 C4 1.502 1_655 S
C795 C184 1.502 . S
C811 C544 1.502 . S
C813 C364 1.502 . S
C829 C256 1.502 . S
C831 C76 1.502 . S
C847 C400 1.502 . S
C849 C508 1.502 . S
C865 C2 0.858 . S
C867 C146 0.858 . S
C883 C182 0.859 . S
C885 C38 0.859 . S
C901 C218 0.859 . S
C903 C74 0.859 . S
C919 C110 0.859 . S
C921 C254 0.859 . S
C937 C362 0.859 . S
C939 C290 0.859 . S
C955 C398 0.858 . S
C957 C326 0.858 . S
C973 C506 0.859 . S
C975 C434 0.859 . S
C991 C542 0.858 . S
C993 C470 0.858 . S
C1009 C147 1.662 . S
C1011 C3 1.662 . S
C1027 C183 1.661 . S
C1029 C39 1.661 . S
C1045 C219 1.661 . S
C1047 C75 1.661 . S
C1063 C111 1.661 . S
C1065 C255 1.661 . S
C1081 C291 1.661 . S
C1083 C363 1.661 . S
C1099 C399 1.661 . S
C1101 C327 1.661 . S
C1117 C507 1.661 . S
C1119 C435 1.661 . S
C1135 C543 1.661 . S
C1137 C471 1.661 . S
