# Generated by pormake.
# Topology pbz, (3)-cn, num edge types: 1
# Building blocks:
#     Node 0, Type 0, BuildingBlock: WUSLED_clean_sbu_0, # of connection points: 3
#     Node 1, Type 0, BuildingBlock: WUSLED_clean_sbu_0, # of connection points: 3
#     Node 2, Type 0, BuildingBlock: WUSLED_clean_sbu_0, # of connection points: 3
#     Node 3, Type 0, BuildingBlock: WUSLED_clean_sbu_0, # of connection points: 3
#     Node 4, Type 0, BuildingBlock: WUSLED_clean_sbu_0, # of connection points: 3
#     Node 5, Type 0, BuildingBlock: WUSLED_clean_sbu_0, # of connection points: 3
#     Node 6, Type 0, BuildingBlock: WUSLED_clean_sbu_0, # of connection points: 3
#     Node 7, Type 0, BuildingBlock: WUSLED_clean_sbu_0, # of connection points: 3
#     Node 8, Type 0, BuildingBlock: WUSLED_clean_sbu_0, # of connection points: 3
#     Node 9, Type 0, BuildingBlock: WUSLED_clean_sbu_0, # of connection points: 3
#     Node 10, Type 0, BuildingBlock: WUSLED_clean_sbu_0, # of connection points: 3
#     Node 11, Type 0, BuildingBlock: WUSLED_clean_sbu_0, # of connection points: 3
#     Node 12, Type 0, BuildingBlock: WUSLED_clean_sbu_0, # of connection points: 3
#     Node 13, Type 0, BuildingBlock: WUSLED_clean_sbu_0, # of connection points: 3
#     Node 14, Type 0, BuildingBlock: WUSLED_clean_sbu_0, # of connection points: 3
#     Node 15, Type 0, BuildingBlock: WUSLED_clean_sbu_0, # of connection points: 3
#     Node 16, Type 0, BuildingBlock: WUSLED_clean_sbu_0, # of connection points: 3
#     Node 17, Type 0, BuildingBlock: WUSLED_clean_sbu_0, # of connection points: 3
#     Node 18, Type 0, BuildingBlock: WUSLED_clean_sbu_0, # of connection points: 3
#     Node 19, Type 0, BuildingBlock: WUSLED_clean_sbu_0, # of connection points: 3
#     Node 20, Type 0, BuildingBlock: WUSLED_clean_sbu_0, # of connection points: 3
#     Node 21, Type 0, BuildingBlock: WUSLED_clean_sbu_0, # of connection points: 3
#     Node 22, Type 0, BuildingBlock: WUSLED_clean_sbu_0, # of connection points: 3
#     Node 23, Type 0, BuildingBlock: WUSLED_clean_sbu_0, # of connection points: 3
#     Edge 24, Type (0, 0), BuildingBlock: ZUJKAS_clean_linker_0, # of connection points: 2
#     Edge 25, Type (0, 0), BuildingBlock: ZUJKAS_clean_linker_0, # of connection points: 2
#     Edge 26, Type (0, 0), BuildingBlock: ZUJKAS_clean_linker_0, # of connection points: 2
#     Edge 27, Type (0, 0), BuildingBlock: ZUJKAS_clean_linker_0, # of connection points: 2
#     Edge 28, Type (0, 0), BuildingBlock: ZUJKAS_clean_linker_0, # of connection points: 2
#     Edge 29, Type (0, 0), BuildingBlock: ZUJKAS_clean_linker_0, # of connection points: 2
#     Edge 30, Type (0, 0), BuildingBlock: ZUJKAS_clean_linker_0, # of connection points: 2
#     Edge 31, Type (0, 0), BuildingBlock: ZUJKAS_clean_linker_0, # of connection points: 2
#     Edge 32, Type (0, 0), BuildingBlock: ZUJKAS_clean_linker_0, # of connection points: 2
#     Edge 33, Type (0, 0), BuildingBlock: ZUJKAS_clean_linker_0, # of connection points: 2
#     Edge 34, Type (0, 0), BuildingBlock: ZUJKAS_clean_linker_0, # of connection points: 2
#     Edge 35, Type (0, 0), BuildingBlock: ZUJKAS_clean_linker_0, # of connection points: 2
#     Edge 36, Type (0, 0), BuildingBlock: ZUJKAS_clean_linker_0, # of connection points: 2
#     Edge 37, Type (0, 0), BuildingBlock: ZUJKAS_clean_linker_0, # of connection points: 2
#     Edge 38, Type (0, 0), BuildingBlock: ZUJKAS_clean_linker_0, # of connection points: 2
#     Edge 39, Type (0, 0), BuildingBlock: ZUJKAS_clean_linker_0, # of connection points: 2
#     Edge 40, Type (0, 0), BuildingBlock: ZUJKAS_clean_linker_0, # of connection points: 2
#     Edge 41, Type (0, 0), BuildingBlock: ZUJKAS_clean_linker_0, # of connection points: 2
#     Edge 42, Type (0, 0), BuildingBlock: ZUJKAS_clean_linker_0, # of connection points: 2
#     Edge 43, Type (0, 0), BuildingBlock: ZUJKAS_clean_linker_0, # of connection points: 2
#     Edge 44, Type (0, 0), BuildingBlock: ZUJKAS_clean_linker_0, # of connection points: 2
#     Edge 45, Type (0, 0), BuildingBlock: ZUJKAS_clean_linker_0, # of connection points: 2
#     Edge 46, Type (0, 0), BuildingBlock: ZUJKAS_clean_linker_0, # of connection points: 2
#     Edge 47, Type (0, 0), BuildingBlock: ZUJKAS_clean_linker_0, # of connection points: 2
#     Edge 48, Type (0, 0), BuildingBlock: ZUJKAS_clean_linker_0, # of connection points: 2
#     Edge 49, Type (0, 0), BuildingBlock: ZUJKAS_clean_linker_0, # of connection points: 2
#     Edge 50, Type (0, 0), BuildingBlock: ZUJKAS_clean_linker_0, # of connection points: 2
#     Edge 51, Type (0, 0), BuildingBlock: ZUJKAS_clean_linker_0, # of connection points: 2
#     Edge 52, Type (0, 0), BuildingBlock: ZUJKAS_clean_linker_0, # of connection points: 2
#     Edge 53, Type (0, 0), BuildingBlock: ZUJKAS_clean_linker_0, # of connection points: 2
#     Edge 54, Type (0, 0), BuildingBlock: ZUJKAS_clean_linker_0, # of connection points: 2
#     Edge 55, Type (0, 0), BuildingBlock: ZUJKAS_clean_linker_0, # of connection points: 2
#     Edge 56, Type (0, 0), BuildingBlock: ZUJKAS_clean_linker_0, # of connection points: 2
#     Edge 57, Type (0, 0), BuildingBlock: ZUJKAS_clean_linker_0, # of connection points: 2
#     Edge 58, Type (0, 0), BuildingBlock: ZUJKAS_clean_linker_0, # of connection points: 2
#     Edge 59, Type (0, 0), BuildingBlock: ZUJKAS_clean_linker_0, # of connection points: 2
# Relax obj value: 0.000
# Max RMSD: 0.013
# Mean RMSD: 0.009
data_MOF--net-pbz--node1-WUSLED_clean_sbu_0--edge1-ZUJKAS_clean_linker_0
_symmetry_space_group_name_H-M    P1
_symmetry_Int_Tables_number       1
_symmetry_cell_setting            triclinic
loop_
_symmetry_equiv_pos_as_xyz
'x, y, z'
_cell_length_a     116.64381
_cell_length_b     116.52586
_cell_length_c     116.69084
_cell_angle_alpha  89.496097
_cell_angle_beta   89.95738
_cell_angle_gamma 89.951799
loop_
_atom_site_label
_atom_site_type_symbol
_atom_site_fract_x
_atom_site_fract_y
_atom_site_fract_z
_atom_type_partial_charge
C0 C 1.00865 0.21622 0.70799 0.0
C1 C 1.01234 0.21217 0.71875 0.0
C2 C 1.01098 0.23152 0.7266 0.0
C3 C 1.01346 0.21974 0.72797 0.0
C4 C 1.00748 0.23552 0.71574 0.0
C5 C 1.00632 0.22796 0.70657 0.0
U6 U 0.01602 0.19019 0.68885 0.0
O7 O 1.00442 0.17777 0.68078 0.0
O8 O 1.01515 0.18895 0.67002 0.0
C9 C 1.00692 0.18126 0.67033 0.0
C10 C 1.0067 0.20843 0.69822 0.0
C11 C 0.99717 0.18326 0.66244 0.0
C12 C 0.97724 0.18833 0.65867 0.0
C13 C 0.98643 0.18708 0.66634 0.0
C14 C 0.98945 0.1822 0.6431 0.0
C15 C 0.97862 0.18586 0.64695 0.0
C16 C 0.99859 0.18091 0.65076 0.0
C17 C 0.04282 0.17156 0.69568 0.0
C18 C 0.04714 0.15132 0.69269 0.0
C19 C 0.06261 0.16491 0.69506 0.0
C20 C 0.05462 0.17379 0.69619 0.0
C21 C 0.059 0.15351 0.69346 0.0
C22 C 0.03914 0.16024 0.69379 0.0
C23 C 0.03467 0.18109 0.69777 0.0
O24 O 1.01421 0.20901 0.68984 0.0
O25 O 1.00355 0.19786 0.70071 0.0
O26 O 0.02425 0.17833 0.7011 0.0
O27 O 0.03486 0.18962 0.69032 0.0
H28 H 1.01426 0.20316 0.72007 0.0
H29 H 0.01631 0.21638 0.73617 0.0
H30 H 1.00534 0.24447 0.71438 0.0
H31 H 1.00341 0.23126 0.69836 0.0
H32 H 0.96906 0.19129 0.66192 0.0
H33 H 0.98512 0.189 0.67531 0.0
H34 H 0.99081 0.18007 0.63419 0.0
H35 H 1.00678 0.17791 0.64757 0.0
H36 H 0.04402 0.14265 0.69156 0.0
H37 H 0.07164 0.167 0.69547 0.0
H38 H 0.05769 0.18244 0.69763 0.0
H39 H 0.03008 0.15825 0.69336 0.0
C40 C 0.8253 0.51287 0.21225 0.0
C41 C 0.82309 0.52375 0.21686 0.0
C42 C 0.81002 0.51528 0.23097 0.0
C43 C 0.81549 0.52495 0.22611 0.0
C44 C 0.81238 0.50441 0.22635 0.0
C45 C 0.81992 0.50324 0.21711 0.0
U46 U 0.85081 0.52096 0.19244 0.0
O47 O 0.86341 0.50943 0.18435 0.0
O48 O 0.85199 0.51996 0.17365 0.0
C49 C 0.85978 0.5118 0.17394 0.0
C50 C 0.83291 0.51125 0.20226 0.0
C51 C 0.85791 0.50186 0.16634 0.0
C52 C 0.84549 0.48922 0.15537 0.0
C53 C 0.84688 0.49827 0.16311 0.0
C54 C 0.86609 0.48707 0.15418 0.0
C55 C 0.85509 0.48354 0.15076 0.0
C56 C 0.86747 0.49612 0.16186 0.0
C57 C 0.86937 0.54773 0.19894 0.0
C58 C 0.88924 0.55182 0.19388 0.0
C59 C 0.87676 0.56723 0.1999 0.0
C60 C 0.86774 0.55942 0.20119 0.0
C61 C 0.88769 0.56354 0.19636 0.0
C62 C 0.88018 0.54399 0.19515 0.0
C63 C 0.85982 0.53964 0.20117 0.0
O64 O 0.83211 0.51889 0.19393 0.0
O65 O 0.84354 0.50827 0.20454 0.0
O66 O 0.86262 0.52921 0.20451 0.0
O67 O 0.85133 0.53984 0.19376 0.0
H68 H 0.82719 0.53131 0.21327 0.0
H69 H 0.81397 0.53343 0.22952 0.0
H70 H 0.80822 0.4968 0.22973 0.0
H71 H 0.82147 0.49477 0.21367 0.0
H72 H 0.83689 0.48665 0.15304 0.0
H73 H 0.83935 0.50251 0.16648 0.0
H74 H 0.87368 0.48302 0.15071 0.0
H75 H 0.87606 0.49877 0.16418 0.0
H76 H 0.89754 0.54862 0.19123 0.0
H77 H 0.87514 0.57619 0.20167 0.0
H78 H 0.85947 0.5625 0.20409 0.0
H79 H 0.88167 0.53501 0.19335 0.0
C80 C 0.4934 0.38114 0.68388 0.0
C81 C 0.48224 0.37703 0.68586 0.0
C82 C 0.47491 0.39666 0.68676 0.0
C83 C 0.47308 0.38472 0.68725 0.0
C84 C 0.48614 0.40071 0.68495 0.0
C85 C 0.49525 0.39304 0.6835 0.0
U86 U 0.51209 0.35432 0.69017 0.0
O87 O 0.52024 0.34241 0.67811 0.0
O88 O 0.53093 0.35264 0.68963 0.0
C89 C 0.53069 0.34552 0.68096 0.0
C90 C 0.50318 0.37332 0.68168 0.0
C91 C 0.53881 0.34794 0.67146 0.0
C92 C 0.54296 0.35224 0.65139 0.0
C93 C 0.53504 0.35077 0.66034 0.0
C94 C 0.55852 0.34835 0.66457 0.0
C95 C 0.55481 0.35098 0.65338 0.0
C96 C 0.55061 0.34682 0.67348 0.0
C97 C 0.50398 0.33411 0.71545 0.0
C98 C 0.51609 0.31998 0.7251 0.0
C99 C 0.49561 0.31999 0.72846 0.0
C100 C 0.49439 0.32932 0.72093 0.0
C101 C 0.50648 0.31521 0.7307 0.0
C102 C 0.51485 0.32933 0.71752 0.0
C103 C 0.50236 0.34427 0.70796 0.0
O104 O 0.51137 0.37323 0.68941 0.0
O105 O 0.50072 0.36304 0.67782 0.0
O106 O 0.49935 0.34224 0.69732 0.0
O107 O 0.51004 0.35247 0.70883 0.0
H108 H 0.48055 0.3679 0.68624 0.0
H109 H 0.46458 0.38131 0.68876 0.0
H110 H 0.48786 0.40983 0.68438 0.0
H111 H 0.50377 0.39641 0.68192 0.0
H112 H 0.5398 0.3544 0.64292 0.0
H113 H 0.52598 0.35173 0.65853 0.0
H114 H 0.56755 0.34717 0.6664 0.0
H115 H 0.55373 0.34457 0.68195 0.0
H116 H 0.52457 0.31645 0.72651 0.0
H117 H 0.48804 0.31667 0.73271 0.0
H118 H 0.48593 0.33291 0.7195 0.0
H119 H 0.52238 0.33286 0.71335 0.0
C120 C 0.67789 0.03763 0.16137 0.0
C121 C 0.68286 0.04797 0.16497 0.0
C122 C 0.68052 0.05623 0.14578 0.0
C123 C 0.68414 0.05719 0.15726 0.0
C124 C 0.6757 0.04578 0.14222 0.0
C125 C 0.67439 0.03661 0.14994 0.0
U126 U 0.6851 0.01883 0.18793 0.0
O127 O 0.67338 1.01095 0.20052 0.0
O128 O 0.68423 1.00002 0.18981 0.0
C129 C 0.67598 1.00043 0.19748 0.0
C130 C 0.6759 0.02792 0.16937 0.0
C131 C 0.66625 0.99255 0.1957 0.0
C132 C 0.64823 0.98743 0.18654 0.0
C133 C 0.65745 0.99505 0.18786 0.0
C134 C 0.65659 0.97473 0.20079 0.0
C135 C 0.64765 0.97718 0.19305 0.0
C136 C 0.66577 0.98233 0.2021 0.0
C137 C 0.71153 0.02602 0.20669 0.0
C138 C 0.71529 0.02296 0.22705 0.0
C139 C 0.73113 0.02572 0.21391 0.0
C140 C 0.72339 0.02679 0.2048 0.0
C141 C 0.72719 0.02391 0.22518 0.0
C142 C 0.70754 0.02398 0.2179 0.0
C143 C 0.70361 0.02797 0.19693 0.0
O144 O 0.68348 0.01958 0.1691 0.0
O145 O 0.67265 0.03053 0.17982 0.0
O146 O 0.69314 0.03136 0.1994 0.0
O147 O 0.70394 0.02036 0.1887 0.0
H148 H 0.68568 0.04894 0.17376 0.0
H149 H 0.68801 0.06505 0.16027 0.0
H150 H 0.67268 0.04476 0.13352 0.0
H151 H 0.6705 0.02873 0.14699 0.0
H152 H 0.64147 0.98966 0.18057 0.0
H153 H 0.65768 1.00291 0.18283 0.0
H154 H 0.65658 0.96686 0.20579 0.0
H155 H 0.67251 0.98022 0.20815 0.0
H156 H 0.71196 0.02143 0.23559 0.0
H157 H 0.7402 0.02663 0.21215 0.0
H158 H 0.72668 0.02842 0.19625 0.0
H159 H 0.69844 0.0233 0.21963 0.0
C160 C 1.00563 0.32804 0.83821 0.0
C161 C 0.01568 0.32807 0.83157 0.0
C162 C 1.00821 0.31241 0.81991 0.0
C163 C 0.01695 0.32033 0.82249 0.0
C164 C 0.99812 0.31258 0.82654 0.0
C165 C 0.99686 0.32029 0.83557 0.0
U166 U 1.01358 0.35409 0.85704 0.0
O167 O 1.00208 0.36636 0.8655 0.0
O168 O 1.01328 0.35531 0.87591 0.0
C169 C 1.00488 0.36284 0.87586 0.0
C170 C 1.00409 0.33577 0.84805 0.0
C171 C 0.99534 0.36061 0.88396 0.0
C172 C 0.97532 0.35616 0.88806 0.0
C173 C 0.98433 0.35753 0.88019 0.0
C174 C 0.98824 0.36066 0.9036 0.0
C175 C 0.97715 0.35777 0.89987 0.0
C176 C 0.99721 0.36208 0.89573 0.0
C177 C 0.03936 0.37348 0.8491 0.0
C178 C 0.04917 0.38703 0.86148 0.0
C179 C 0.05268 0.38744 0.84103 0.0
C180 C 0.045 0.37834 0.83962 0.0
C181 C 0.05492 0.39189 0.85198 0.0
C182 C 0.04144 0.37793 0.86005 0.0
C183 C 0.0316 0.36363 0.84729 0.0
O184 O 1.01205 0.33531 0.85601 0.0
O185 O 1.00076 0.34629 0.84564 0.0
O186 O 0.021 0.36616 0.84441 0.0
O187 O 0.03228 0.35517 0.85479 0.0
H188 H 0.02256 0.33399 0.83348 0.0
H189 H 0.02487 0.32041 0.81764 0.0
H190 H 0.99111 0.30679 0.8247 0.0
H191 H 0.98902 0.32016 0.84056 0.0
H192 H 0.96693 0.35379 0.8849 0.0
H193 H 0.98265 0.35628 0.87115 0.0
H194 H 0.98995 0.3621 0.91259 0.0
H195 H 1.0056 0.36452 0.89884 0.0
H196 H 0.05058 0.39031 0.87001 0.0
H197 H 0.05705 0.39083 0.83354 0.0
H198 H 0.04355 0.37501 0.8311 0.0
H199 H 0.03714 0.37434 0.86749 0.0
C200 C 0.67579 0.50259 0.3851 0.0
C201 C 0.68671 0.49798 0.38732 0.0
C202 C 0.67841 0.48392 0.40061 0.0
C203 C 0.68801 0.48876 0.39503 0.0
C204 C 0.6675 0.48853 0.39823 0.0
C205 C 0.66623 0.49776 0.39058 0.0
U206 U 0.68403 0.52218 0.35943 0.0
O207 O 0.6727 0.53023 0.34653 0.0
O208 O 0.68302 0.54099 0.3579 0.0
C209 C 0.67503 0.54069 0.34997 0.0
C210 C 0.67411 0.51255 0.37735 0.0
C211 C 0.6651 0.54842 0.35154 0.0
C212 C 0.65125 0.55828 0.36362 0.0
C213 C 0.66029 0.55043 0.36239 0.0
C214 C 0.65157 0.56201 0.34319 0.0
C215 C 0.64684 0.56427 0.35404 0.0
C216 C 0.66059 0.55419 0.34197 0.0
C217 C 0.71114 0.51532 0.34147 0.0
C218 C 0.7156 0.5204 0.32165 0.0
C219 C 0.73068 0.51376 0.33431 0.0
C220 C 0.72274 0.51268 0.34325 0.0
C221 C 0.72721 0.51748 0.32334 0.0
C222 C 0.70764 0.51933 0.33063 0.0
C223 C 0.70289 0.51325 0.35091 0.0
O224 O 0.68163 0.52091 0.37811 0.0
O225 O 0.67131 0.51018 0.36673 0.0
O226 O 0.69254 0.50993 0.34798 0.0
O227 O 0.7029 0.52075 0.35926 0.0
H228 H 0.69422 0.50155 0.38314 0.0
H229 H 0.69652 0.48535 0.39655 0.0
H230 H 0.65994 0.48516 0.40247 0.0
H231 H 0.65773 0.5012 0.38902 0.0
H232 H 0.6479 0.55985 0.37212 0.0
H233 H 0.66362 0.54605 0.36991 0.0
H234 H 0.64827 0.56626 0.33558 0.0
H235 H 0.66414 0.55274 0.33352 0.0
H236 H 0.71258 0.52321 0.31332 0.0
H237 H 0.73956 0.51165 0.33602 0.0
H238 H 0.72564 0.50961 0.35154 0.0
H239 H 0.69873 0.52144 0.32904 0.0
C240 C 0.49557 0.16072 0.86608 0.0
C241 C 0.48838 0.16154 0.85646 0.0
C242 C 0.47727 0.14503 0.86325 0.0
C243 C 0.47931 0.15377 0.85506 0.0
C244 C 0.48449 0.14436 0.8729 0.0
C245 C 0.49352 0.15211 0.87428 0.0
U246 U 0.5142 0.18687 0.8577 0.0
O247 O 0.52229 0.19968 0.86883 0.0
O248 O 0.53302 0.18859 0.85816 0.0
C249 C 0.53275 0.19644 0.86618 0.0
C250 C 0.5053 0.16862 0.86773 0.0
C251 C 0.54079 0.19477 0.87582 0.0
C252 C 0.54546 0.1876 0.89493 0.0
C253 C 0.53769 0.18871 0.8858 0.0
C254 C 0.55954 0.19846 0.88413 0.0
C255 C 0.55648 0.19254 0.89425 0.0
C256 C 0.55179 0.19957 0.87505 0.0
C257 C 0.50644 0.205 0.8308 0.0
C258 C 0.51147 0.2248 0.82618 0.0
C259 C 0.50446 0.2123 0.81129 0.0
C260 C 0.50352 0.20333 0.81928 0.0
C261 C 0.50832 0.22322 0.81464 0.0
C262 C 0.51055 0.21578 0.83418 0.0
C263 C 0.50468 0.19547 0.83908 0.0
O264 O 0.51349 0.16812 0.86002 0.0
O265 O 0.50267 0.17918 0.87061 0.0
O266 O 0.50155 0.1983 0.84951 0.0
O267 O 0.51231 0.18717 0.83889 0.0
H268 H 0.48984 0.16813 0.85002 0.0
H269 H 0.47401 0.1545 0.84747 0.0
H270 H 0.48309 0.1379 0.87948 0.0
H271 H 0.49895 0.15137 0.88179 0.0
H272 H 0.54275 0.18306 0.90261 0.0
H273 H 0.52924 0.18492 0.88657 0.0
H274 H 0.56799 0.20219 0.88318 0.0
H275 H 0.55437 0.20423 0.8674 0.0
H276 H 0.51439 0.2331 0.82911 0.0
H277 H 0.50217 0.21066 0.80247 0.0
H278 H 0.50038 0.19507 0.81647 0.0
H279 H 0.51288 0.21729 0.84302 0.0
C280 C 0.82546 0.0307 0.33585 0.0
C281 C 0.82445 0.02019 0.33012 0.0
C282 C 0.80976 0.02834 0.3175 0.0
C283 C 0.81668 0.01903 0.32102 0.0
C284 C 0.811 0.03888 0.32317 0.0
C285 C 0.81875 0.04003 0.33224 0.0
U286 U 0.85153 0.02269 0.35491 0.0
O287 O 0.86362 0.03419 0.36359 0.0
O288 O 0.85273 0.02264 0.37379 0.0
C289 C 0.86017 0.0311 0.3739 0.0
C290 C 0.83313 0.03214 0.3458 0.0
C291 C 0.85783 0.04046 0.38206 0.0
C292 C 0.85162 0.05993 0.38641 0.0
C293 C 0.85319 0.05104 0.37851 0.0
C294 C 0.85908 0.04769 0.40153 0.0
C295 C 0.85459 0.05838 0.39803 0.0
C296 C 0.86068 0.03886 0.39364 0.0
C297 C 0.87116 0.99719 0.34684 0.0
C298 C 0.88499 0.98743 0.35917 0.0
C299 C 0.88496 0.98383 0.33877 0.0
C300 C 0.87583 0.99151 0.33738 0.0
C301 C 0.88964 0.98162 0.34969 0.0
C302 C 0.87585 0.99516 0.35776 0.0
C303 C 0.86126 1.00493 0.34506 0.0
O304 O 0.83275 0.02405 0.35371 0.0
O305 O 0.8436 0.03566 0.34355 0.0
O306 O 0.86369 1.01562 0.34233 0.0
O307 O 0.85282 1.00403 0.35248 0.0
H308 H 0.82956 1.01288 0.33277 0.0
H309 H 0.81591 1.01077 0.31692 0.0
H310 H 0.80602 0.0463 0.32058 0.0
H311 H 0.81943 0.04822 0.3365 0.0
H312 H 0.84802 0.06799 0.38343 0.0
H313 H 0.85086 0.05248 0.36963 0.0
H314 H 0.86162 0.04622 0.41035 0.0
H315 H 0.86432 0.03079 0.39656 0.0
H316 H 0.88845 0.98605 0.36768 0.0
H317 H 0.88819 0.97942 0.3313 0.0
H318 H 0.87232 0.99292 0.32889 0.0
H319 H 0.87241 0.9995 0.36518 0.0
C320 C 0.17518 0.66103 1.00289 0.0
C321 C 0.18619 0.65829 0.99885 0.0
C322 C 0.17797 0.64553 0.98451 0.0
C323 C 0.18757 0.65059 0.98977 0.0
C324 C 0.16697 0.64844 0.98853 0.0
C325 C 0.16561 0.65609 0.99761 0.0
U326 U 0.1831 0.68653 0.02245 0.0
O327 O 0.17162 0.69933 0.0303 0.0
O328 O 0.18183 0.6878 0.04121 0.0
C329 C 0.17382 0.69574 0.04078 0.0
C330 C 0.17338 0.6687 1.01277 0.0
C331 C 0.16381 0.69412 0.04842 0.0
C332 C 0.15061 0.68198 0.05926 0.0
C333 C 0.15968 0.68317 0.05144 0.0
C334 C 0.1495 0.70263 0.06095 0.0
C335 C 0.14543 0.6917 0.06418 0.0
C336 C 0.15858 0.70381 0.05318 0.0
C337 C 0.21019 0.70473 0.01607 0.0
C338 C 0.21441 0.72455 0.0211 0.0
C339 C 0.22983 0.7118 1.01563 0.0
C340 C 0.22192 0.70291 1.01414 0.0
C341 C 0.22618 0.72277 0.01905 0.0
C342 C 0.20649 0.71561 0.01966 0.0
C343 C 0.20205 0.69528 1.0138 0.0
O344 O 0.18078 0.66785 0.02122 0.0
O345 O 0.17057 0.67937 1.01031 0.0
O346 O 0.19173 0.69822 1.01032 0.0
O347 O 0.20198 0.68676 0.02127 0.0
H348 H 0.19372 0.66204 1.00276 0.0
H349 H 0.19616 0.64865 0.98682 0.0
H350 H 0.15939 0.64461 0.98483 0.0
H351 H 0.15704 0.65804 1.00062 0.0
H352 H 0.14762 0.67344 0.06144 0.0
H353 H 0.16355 0.67554 0.04785 0.0
H354 H 0.14586 0.71031 0.06465 0.0
H355 H 0.16165 0.71233 0.05103 0.0
H356 H 0.21132 0.73284 0.02388 0.0
H357 H 0.23878 0.71014 1.01382 0.0
H358 H 0.22496 0.69462 1.01131 0.0
H359 H 0.19749 0.71723 0.02126 0.0
C360 C 0.15742 0.86567 0.50281 0.0
C361 C 0.15613 0.85488 0.49769 0.0
C362 C 0.14178 0.86274 0.4845 0.0
C363 C 0.14838 0.85343 0.48862 0.0
C364 C 0.14328 0.87354 0.48959 0.0
C365 C 0.151 0.87497 0.49864 0.0
U366 U 0.18314 0.85749 0.52212 0.0
O367 O 0.19608 0.86881 0.5299 0.0
O368 O 0.18471 0.85851 0.54087 0.0
C369 C 0.19267 0.86648 0.5404 0.0
C370 C 0.16521 0.86745 0.51261 0.0
C371 C 0.1911 0.87641 0.54803 0.0
C372 C 0.17912 0.89088 0.5571 0.0
C373 C 0.18041 0.8818 0.54936 0.0
C374 C 0.19921 0.88939 0.56208 0.0
C375 C 0.18849 0.89473 0.56365 0.0
C376 C 0.20048 0.88034 0.55438 0.0
C377 C 0.20092 0.83022 0.51536 0.0
C378 C 0.22061 0.82555 0.52064 0.0
C379 C 0.20799 0.81064 0.51376 0.0
C380 C 0.19913 0.81867 0.51262 0.0
C381 C 0.21891 0.81398 0.51764 0.0
C382 C 0.21171 0.83359 0.51951 0.0
C383 C 0.19155 0.83854 0.51331 0.0
O384 O 0.16447 0.85996 0.52107 0.0
O385 O 0.17584 0.87019 0.51005 0.0
O386 O 0.19456 0.84889 0.50987 0.0
O387 O 0.18321 0.8386 0.52089 0.0
H388 H 0.16102 0.84758 0.50078 0.0
H389 H 0.1474 0.84497 0.48499 0.0
H390 H 0.13854 0.88095 0.48653 0.0
H391 H 0.15191 0.88338 0.50243 0.0
H392 H 0.17072 0.8947 0.55812 0.0
H393 H 0.17305 0.87891 0.54454 0.0
H394 H 0.20667 0.89224 0.56678 0.0
H395 H 0.20881 0.87633 0.55345 0.0
H396 H 0.22891 0.82846 0.52357 0.0
H397 H 0.20627 0.80179 0.51159 0.0
H398 H 0.19088 0.81587 0.50945 0.0
H399 H 0.2133 0.84246 0.5217 0.0
C400 C 0.32945 0.71519 0.51432 0.0
C401 C 0.32433 0.71691 0.52507 0.0
C402 C 0.3108 0.73061 0.51663 0.0
C403 C 0.31512 0.72457 0.52622 0.0
C404 C 0.31592 0.72874 0.50588 0.0
C405 C 0.32513 0.72113 0.50475 0.0
U406 U 0.34842 0.68908 0.52238 0.0
O407 O 0.35707 0.67685 0.51101 0.0
O408 O 0.36729 0.6877 0.52237 0.0
C409 C 0.36739 0.68021 0.51402 0.0
C410 C 0.33945 0.70755 0.51282 0.0
C411 C 0.3756 0.68243 0.5046 0.0
C412 C 0.38014 0.68919 0.48531 0.0
C413 C 0.37223 0.68771 0.49427 0.0
C414 C 0.39492 0.68036 0.49697 0.0
C415 C 0.39159 0.68549 0.48652 0.0
C416 C 0.38701 0.67885 0.50589 0.0
C417 C 0.3399 0.66955 0.54802 0.0
C418 C 0.35189 0.65517 0.55743 0.0
C419 C 0.33162 0.65615 0.56181 0.0
C420 C 0.33042 0.66533 0.55411 0.0
C421 C 0.34237 0.65094 0.56362 0.0
C422 C 0.35066 0.66437 0.54967 0.0
C423 C 0.33832 0.67947 0.54021 0.0
O424 O 0.34735 0.70788 0.52085 0.0
O425 O 0.33722 0.69709 0.50935 0.0
O426 O 0.33566 0.67706 0.52956 0.0
O427 O 0.34585 0.68781 0.54104 0.0
H428 H 0.32749 0.71237 0.53258 0.0
H429 H 0.31131 0.72569 0.53461 0.0
H430 H 0.31295 0.73333 0.49834 0.0
H431 H 0.32897 0.71997 0.49638 0.0
H432 H 0.3773 0.69329 0.47744 0.0
H433 H 0.36348 0.6906 0.4931 0.0
H434 H 0.40359 0.67726 0.49819 0.0
H435 H 0.38979 0.67472 0.51377 0.0
H436 H 0.36027 0.6513 0.5585 0.0
H437 H 0.32414 0.65326 0.56652 0.0
H438 H 0.32205 0.66924 0.55298 0.0
H439 H 0.35809 0.66746 0.54502 0.0
C440 C 0.33156 0.8264 0.03037 0.0
C441 C 0.32511 0.82625 0.02021 0.0
C442 C 0.31353 0.81037 0.0277 0.0
C443 C 0.31616 0.81831 0.0189 0.0
C444 C 0.31994 0.81074 0.03791 0.0
C445 C 0.32884 0.81866 0.03921 0.0
U446 U 0.35036 0.85257 0.02203 0.0
O447 O 0.35865 0.86513 0.03329 0.0
O448 O 0.36921 0.85404 0.02245 0.0
C449 C 0.36906 0.86175 0.03059 0.0
C450 C 0.34132 0.8343 0.03191 0.0
C451 C 0.37714 0.85986 0.04019 0.0
C452 C 0.38139 0.85428 0.05992 0.0
C453 C 0.37356 0.85544 0.05085 0.0
C454 C 0.3965 0.86173 0.04773 0.0
C455 C 0.39296 0.85751 0.05851 0.0
C456 C 0.38868 0.8629 0.0387 0.0
C457 C 0.34287 0.87121 0.99544 0.0
C458 C 0.34784 0.89113 0.99126 0.0
C459 C 0.34156 0.87874 0.97596 0.0
C460 C 0.3404 0.86966 0.9838 0.0
C461 C 0.34517 0.88966 0.97958 0.0
C462 C 0.34672 0.882 0.9991 0.0
C463 C 0.34093 0.86156 1.00355 0.0
O464 O 0.34945 0.8338 0.02412 0.0
O465 O 0.33877 0.84485 0.03489 0.0
O466 O 0.33783 0.86425 1.01403 0.0
O467 O 0.34843 0.85315 1.00323 0.0
H468 H 0.32708 0.83217 1.01328 0.0
H469 H 0.31147 0.81823 1.01089 0.0
H470 H 0.31805 0.80493 0.04496 0.0
H471 H 0.33369 0.81867 0.04713 0.0
H472 H 0.37831 0.8511 0.0681 0.0
H473 H 0.36469 0.85302 0.0522 0.0
H474 H 0.40535 0.86409 0.04622 0.0
H475 H 0.39164 0.86628 0.03054 0.0
H476 H 0.35055 0.89941 0.9944 0.0
H477 H 0.33964 0.87718 0.96703 0.0
H478 H 0.33746 0.86141 0.98077 0.0
H479 H 0.3487 0.88343 1.00804 0.0
C480 C 1.01019 0.83704 0.32885 0.0
C481 C 0.01952 0.8295 0.33007 0.0
C482 C 1.01318 0.81869 0.31335 0.0
C483 C 0.02099 0.8204 0.3224 0.0
C484 C 1.00386 0.8263 0.31223 0.0
C485 C 1.0024 0.83536 0.31989 0.0
U486 U 0.01768 0.85546 0.35524 0.0
O487 O 0.01671 0.87421 0.35714 0.0
O488 O 1.00596 0.86307 0.36792 0.0
C489 C 1.00845 0.87364 0.3648 0.0
C490 C 1.00832 0.84667 0.33677 0.0
C491 C 0.9986 0.88145 0.36304 0.0
C492 C 0.98476 0.89126 0.35077 0.0
C493 C 0.99385 0.88347 0.35215 0.0
C494 C 0.98495 0.89494 0.37115 0.0
C495 C 0.9802 0.89712 0.36026 0.0
C496 C 0.99404 0.88721 0.37251 0.0
C497 C 0.0439 0.84775 0.37408 0.0
C498 C 0.05293 0.85994 0.38833 0.0
C499 C 0.05811 0.83986 0.38723 0.0
C500 C 0.05038 0.83845 0.37819 0.0
C501 C 0.05958 0.85064 0.39238 0.0
C502 C 0.04516 0.85851 0.37927 0.0
C503 C 0.03612 0.846 0.36427 0.0
O504 O 1.00517 0.84387 0.34724 0.0
O505 O 0.016 0.85492 0.33645 0.0
O506 O 0.03646 0.85381 0.35608 0.0
O507 O 0.02565 0.84268 0.3668 0.0
H508 H 0.02564 0.83066 0.33694 0.0
H509 H 0.02832 0.81479 0.32347 0.0
H510 H 0.99755 0.82517 0.30553 0.0
H511 H 0.99512 0.84105 0.31883 0.0
H512 H 0.98123 0.89261 0.34228 0.0
H513 H 0.9972 0.87907 0.34472 0.0
H514 H 0.9818 0.8994 0.37863 0.0
H515 H 0.9976 0.88581 0.38098 0.0
H516 H 0.05388 0.86839 0.392 0.0
H517 H 0.06289 0.83245 0.39023 0.0
H518 H 0.0495 0.83007 0.37434 0.0
H519 H 0.04023 0.86581 0.37625 0.0
C520 C 0.15548 0.49999 0.86573 0.0
C521 C 0.15342 0.49551 0.85479 0.0
C522 C 0.13987 0.48162 0.86286 0.0
C523 C 0.14566 0.48643 0.85336 0.0
C524 C 0.14208 0.4861 0.8738 0.0
C525 C 0.14979 0.49518 0.8752 0.0
U526 U 0.18149 0.51907 0.85786 0.0
O527 O 0.18328 0.53783 0.85884 0.0
O528 O 0.19436 0.52673 0.86933 0.0
C529 C 0.19109 0.53728 0.86695 0.0
C530 C 0.16331 0.50978 0.86754 0.0
C531 C 0.18947 0.54494 0.87687 0.0
C532 C 0.17731 0.55537 0.89022 0.0
C533 C 0.17853 0.54765 0.88113 0.0
C534 C 0.19792 0.55758 0.89105 0.0
C535 C 0.187 0.56047 0.89527 0.0
C536 C 0.19912 0.54992 0.88195 0.0
C537 C 0.19973 0.5118 0.83115 0.0
C538 C 0.21649 0.52245 0.8246 0.0
C539 C 0.21024 0.50564 0.81427 0.0
C540 C 0.20121 0.50419 0.82204 0.0
C541 C 0.21804 0.51477 0.81544 0.0
C542 C 0.20743 0.52096 0.83239 0.0
C543 C 0.19014 0.50991 0.83919 0.0
O544 O 0.17386 0.50717 0.87052 0.0
O545 O 0.16276 0.5182 0.85998 0.0
O546 O 0.18196 0.51768 0.83904 0.0
O547 O 0.19295 0.50658 0.8496 0.0
H548 H 0.15777 0.49905 0.84735 0.0
H549 H 0.14427 0.48312 0.84484 0.0
H550 H 0.13769 0.48274 0.88129 0.0
H551 H 0.15123 0.49852 0.88372 0.0
H552 H 0.16878 0.55729 0.89333 0.0
H553 H 0.17094 0.54388 0.87738 0.0
H554 H 0.20556 0.56143 0.8946 0.0
H555 H 0.20764 0.54799 0.87878 0.0
H556 H 0.22238 0.52951 0.82583 0.0
H557 H 0.21101 0.49968 0.80725 0.0
H558 H 0.19533 0.49709 0.82091 0.0
H559 H 0.20644 0.52692 0.8394 0.0
C560 C 0.53669 0.66317 0.36641 0.0
C561 C 0.54153 0.66113 0.35559 0.0
C562 C 0.55506 0.64742 0.36404 0.0
C563 C 0.55063 0.65332 0.35441 0.0
C564 C 0.5503 0.64972 0.37487 0.0
C565 C 0.54122 0.65748 0.37602 0.0
U566 U 0.51758 0.68923 0.35834 0.0
O567 O 0.49871 0.69054 0.35849 0.0
O568 O 0.50898 0.70146 0.36974 0.0
C569 C 0.49865 0.69806 0.36681 0.0
C570 C 0.52671 0.67085 0.36792 0.0
C571 C 0.4905 0.69586 0.37629 0.0
C572 C 0.48608 0.68913 0.39562 0.0
C573 C 0.49394 0.69062 0.38662 0.0
C574 C 0.47122 0.69789 0.38401 0.0
C575 C 0.47461 0.6928 0.39445 0.0
C576 C 0.47908 0.69941 0.37505 0.0
C577 C 0.52577 0.70871 0.33253 0.0
C578 C 0.51356 0.72214 0.32205 0.0
C579 C 0.53416 0.72295 0.31966 0.0
C580 C 0.5354 0.7138 0.3274 0.0
C581 C 0.52323 0.72723 0.31683 0.0
C582 C 0.51482 0.71299 0.32985 0.0
C583 C 0.52746 0.69882 0.34037 0.0
O584 O 0.52896 0.68134 0.37129 0.0
O585 O 0.51874 0.67044 0.35998 0.0
O586 O 0.51998 0.69041 0.33965 0.0
O587 O 0.53024 0.70127 0.35098 0.0
H588 H 0.53819 0.66544 0.34803 0.0
H589 H 0.554 0.65172 0.34593 0.0
H590 H 0.5536 0.64553 0.38251 0.0
H591 H 0.53765 0.65897 0.38446 0.0
H592 H 0.48896 0.68505 0.40348 0.0
H593 H 0.50271 0.68776 0.38776 0.0
H594 H 0.46253 0.70096 0.38282 0.0
H595 H 0.47625 0.7035 0.36717 0.0
H596 H 0.50503 0.7253 0.32017 0.0
H597 H 0.54179 0.72652 0.31571 0.0
H598 H 0.54393 0.71061 0.32931 0.0
H599 H 0.50726 0.70922 0.33374 0.0
C600 C 0.32098 1.01401 0.83793 0.0
C601 C 0.32433 0.01905 0.82747 0.0
C602 C 0.30507 0.01629 0.81969 0.0
C603 C 0.31646 0.02018 0.81843 0.0
C604 C 0.30174 1.01151 0.8303 0.0
C605 C 0.30961 1.01037 0.83928 0.0
U606 U 0.34782 0.02125 0.85603 0.0
O607 O 0.35012 0.02 0.87471 0.0
O608 O 0.3607 1.00943 0.86338 0.0
C609 C 0.35776 1.01173 0.87399 0.0
C610 C 0.32918 1.01201 0.8474 0.0
C611 C 0.35617 1.00174 0.88173 0.0
C612 C 0.34404 0.9885 0.89255 0.0
C613 C 0.34523 0.99764 0.88472 0.0
C614 C 0.36468 0.98731 0.8943 0.0
C615 C 0.35376 0.98327 0.89754 0.0
C616 C 0.36585 0.99644 0.88652 0.0
C617 C 0.36619 0.04786 0.8484 0.0
C618 C 0.38243 0.05474 0.85949 0.0
C619 C 0.37722 0.06431 0.84174 0.0
C620 C 0.36821 0.05655 0.84028 0.0
C621 C 0.38444 0.06357 0.85138 0.0
C622 C 0.37337 0.04696 0.85801 0.0
C623 C 0.35646 0.03997 0.84667 0.0
O624 O 0.33962 1.00891 0.84448 0.0
O625 O 0.32898 0.01947 0.85577 0.0
O626 O 0.34845 0.04009 0.85459 0.0
O627 O 0.35906 0.02957 0.84326 0.0
H628 H 0.33307 0.02194 0.82622 0.0
H629 H 0.31937 0.02383 0.81038 0.0
H630 H 0.29302 1.00863 0.83169 0.0
H631 H 0.30682 1.00651 0.84729 0.0
H632 H 0.3355 0.98572 0.89489 0.0
H633 H 0.33761 1.00158 0.88112 0.0
H634 H 0.37237 0.98338 0.89775 0.0
H635 H 0.37437 0.99943 0.8843 0.0
H636 H 0.38773 0.05396 0.86707 0.0
H637 H 0.3786 0.07084 0.83522 0.0
H638 H 0.36278 0.05735 0.83278 0.0
H639 H 0.37194 0.0403 0.86439 0.0
C640 C 1.01208 0.70577 0.21841 0.0
C641 C 0.01715 0.71604 0.21456 0.0
C642 C 1.01499 0.72439 0.2336 0.0
C643 C 0.01856 0.72527 0.22208 0.0
C644 C 1.01006 0.71401 0.2374 0.0
C645 C 1.00863 0.70483 0.22989 0.0
U646 U 0.01853 0.68712 0.19184 0.0
O647 O 0.01793 0.66826 0.19035 0.0
O648 O 1.00644 0.67901 0.17994 0.0
C649 C 1.00929 0.66854 0.18313 0.0
C650 C 1.00998 0.69603 0.21066 0.0
C651 C 0.99978 0.66043 0.18545 0.0
C652 C 0.97994 0.6563 0.19061 0.0
C653 C 0.98897 0.66415 0.18926 0.0
C654 C 0.99246 0.64089 0.18465 0.0
C655 C 0.98153 0.64457 0.1882 0.0
C656 C 1.00145 0.64873 0.18328 0.0
C657 C 0.04378 0.69497 0.17165 0.0
C658 C 0.05422 0.68265 0.15848 0.0
C659 C 0.0559 0.70329 0.15677 0.0
C660 C 0.0484 0.70459 0.16604 0.0
C661 C 0.05898 0.69231 0.15289 0.0
C662 C 0.04667 0.68396 0.16775 0.0
C663 C 0.03635 0.69672 0.18178 0.0
O664 O 1.00623 0.69859 0.20032 0.0
O665 O 0.01776 0.68787 0.21071 0.0
O666 O 0.03721 0.6891 0.19011 0.0
O667 O 0.02572 0.69982 0.17968 0.0
H668 H 0.01993 0.71695 0.20574 0.0
H669 H 0.02251 0.73308 0.21889 0.0
H670 H 1.00706 0.71305 0.24614 0.0
H671 H 1.00466 0.69701 0.23303 0.0
H672 H 0.97163 0.65948 0.19326 0.0
H673 H 0.98744 0.67314 0.19101 0.0
H674 H 0.99411 0.63192 0.18293 0.0
H675 H 1.00972 0.64566 0.18037 0.0
H676 H 0.0563 0.67406 0.15565 0.0
H677 H 0.05949 0.71092 0.15281 0.0
H678 H 0.04633 0.71316 0.16893 0.0
H679 H 0.04317 0.67639 0.17191 0.0
C680 C 0.31972 0.52982 0.70841 0.0
C681 C 0.32173 0.5215 0.71695 0.0
C682 C 0.30413 0.52712 0.72687 0.0
C683 C 0.31399 0.52015 0.72609 0.0
C684 C 0.30217 0.53536 0.71819 0.0
C685 C 0.30988 0.53669 0.70909 0.0
U686 U 0.34628 0.52224 0.69005 0.0
O687 O 0.34835 0.52328 0.67132 0.0
O688 O 0.35907 0.53394 0.6824 0.0
C689 C 0.35606 0.53148 0.67186 0.0
C690 C 0.32775 0.53167 0.69879 0.0
C691 C 0.35447 0.54136 0.664 0.0
C692 C 0.34249 0.55574 0.65457 0.0
C693 C 0.34373 0.54658 0.66237 0.0
C694 C 0.36273 0.55467 0.6501 0.0
C695 C 0.35199 0.5599 0.64831 0.0
C696 C 0.36394 0.54551 0.65784 0.0
C697 C 0.36517 0.49596 0.69767 0.0
C698 C 0.37731 0.48424 0.68541 0.0
C699 C 0.38055 0.48439 0.70589 0.0
C700 C 0.37145 0.49211 0.70721 0.0
C701 C 0.38356 0.48029 0.69499 0.0
C702 C 0.36823 0.49203 0.68673 0.0
C703 C 0.35528 0.50372 0.69948 0.0
O704 O 0.33822 0.53475 0.70157 0.0
O705 O 0.32748 0.52401 0.69059 0.0
O706 O 0.34704 0.50344 0.69179 0.0
O707 O 0.35773 0.51417 0.70284 0.0
H708 H 0.32929 0.51612 0.71658 0.0
H709 H 0.31584 0.51379 0.73265 0.0
H710 H 0.2946 0.54074 0.71835 0.0
H711 H 0.30816 0.54313 0.70255 0.0
H712 H 0.33412 0.55964 0.65352 0.0
H713 H 0.3363 0.54354 0.66708 0.0
H714 H 0.3702 0.5575 0.64534 0.0
H715 H 0.3723 0.54158 0.65894 0.0
H716 H 0.37948 0.48137 0.67688 0.0
H717 H 0.38507 0.48144 0.71347 0.0
H718 H 0.36922 0.49497 0.71573 0.0
H719 H 0.36357 0.4949 0.67921 0.0
C720 C 0.53558 0.88075 0.18037 0.0
C721 C 0.54439 0.8783 0.18821 0.0
C722 C 0.55426 0.89607 0.18281 0.0
C723 C 0.55365 0.88589 0.18942 0.0
C724 C 0.54531 0.89847 0.17505 0.0
C725 C 0.5361 0.89089 0.17385 0.0
U726 U 0.51664 0.85473 0.18869 0.0
O727 O 0.4978 0.85327 0.18814 0.0
O728 O 0.50844 0.84206 0.17749 0.0
C729 C 0.49801 0.84547 0.18007 0.0
C730 C 0.52579 0.87291 0.17874 0.0
C731 C 0.49 0.84727 0.1704 0.0
C732 C 0.4859 0.85276 0.15062 0.0
C733 C 0.49366 0.85167 0.15976 0.0
C734 C 0.47073 0.84528 0.1627 0.0
C735 C 0.47433 0.84948 0.15194 0.0
C736 C 0.47847 0.84418 0.1718 0.0
C737 C 0.52399 0.83648 0.21566 0.0
C738 C 0.51949 0.81653 0.22024 0.0
C739 C 0.52509 0.82946 0.23534 0.0
C740 C 0.52615 0.83838 0.22731 0.0
C741 C 0.52189 0.81836 0.23192 0.0
C742 C 0.52053 0.82549 0.21219 0.0
C743 C 0.52593 0.84597 0.20736 0.0
O744 O 0.52832 0.86232 0.17588 0.0
O745 O 0.51758 0.87351 0.18644 0.0
O746 O 0.51842 0.85439 0.20752 0.0
O747 O 0.52909 0.84312 0.19695 0.0
H748 H 0.54414 0.87051 0.19333 0.0
H749 H 0.56041 0.8837 0.1954 0.0
H750 H 0.54535 0.90629 0.16996 0.0
H751 H 0.52935 0.89297 0.1678 0.0
H752 H 0.48902 0.85594 0.14245 0.0
H753 H 0.50252 0.85414 0.15847 0.0
H754 H 0.46187 0.84288 0.16415 0.0
H755 H 0.47546 0.84082 0.17994 0.0
H756 H 0.5171 0.80809 0.21725 0.0
H757 H 0.52678 0.83129 0.24426 0.0
H758 H 0.52879 0.84679 0.23019 0.0
H759 H 0.5188 0.82378 0.20325 0.0
C760 C 0.17406 1.00356 0.6628 0.0
C761 C 0.1848 0.99827 0.6615 0.0
C762 C 0.177 0.98561 0.64683 0.0
C763 C 0.18626 0.98938 0.65358 0.0
C764 C 0.16624 0.99088 0.64832 0.0
C765 C 0.16481 0.99975 0.6562 0.0
U766 U 0.18166 0.02163 0.68939 0.0
O767 O 0.18094 0.04036 0.69156 0.0
O768 O 0.16999 0.02922 0.70214 0.0
C769 C 0.17268 0.0398 0.69922 0.0
C770 C 0.17227 1.01317 0.67079 0.0
C771 C 0.163 0.04785 0.69766 0.0
C772 C 0.14929 0.0582 0.68568 0.0
C773 C 0.15814 0.0501 0.68686 0.0
C774 C 0.14993 0.06171 0.70608 0.0
C775 C 0.14515 0.06421 0.69527 0.0
C776 C 0.15875 0.05364 0.70725 0.0
C777 C 0.2076 1.01325 0.70832 0.0
C778 C 0.21642 0.02499 0.72306 0.0
C779 C 0.22143 1.0049 0.72157 0.0
C780 C 0.21392 1.0038 0.7123 0.0
C781 C 0.22281 1.01551 0.72708 0.0
C782 C 0.20885 0.02387 0.71378 0.0
C783 C 0.19989 1.01177 0.6984 0.0
O784 O 0.16897 1.01033 0.68121 0.0
O785 O 0.18002 0.02135 0.67061 0.0
O786 O 0.20041 0.01971 0.69034 0.0
O787 O 0.18936 1.00855 0.70078 0.0
H788 H 0.19207 1.00107 0.66652 0.0
H789 H 0.19469 0.98561 0.65261 0.0
H790 H 0.15886 0.98809 0.64347 0.0
H791 H 0.15644 1.00367 0.65712 0.0
H792 H 0.14589 0.05995 0.67721 0.0
H793 H 0.16127 0.0457 0.67934 0.0
H794 H 0.14684 0.06596 0.7137 0.0
H795 H 0.16234 0.05199 0.71567 0.0
H796 H 0.21716 0.03326 0.72716 0.0
H797 H 0.22631 0.99745 0.7243 0.0
H798 H 0.21311 0.99554 0.70818 0.0
H799 H 0.204 0.03127 0.71087 0.0
C800 C 0.82221 0.33567 0.03299 0.0
C801 C 0.82069 0.33093 0.02207 0.0
C802 C 0.80654 0.31741 0.02973 0.0
C803 C 0.81291 0.32191 0.02045 0.0
C804 C 0.80822 0.32214 0.04066 0.0
C805 C 0.81595 0.33116 0.04225 0.0
U806 U 0.84848 0.35477 0.0259 0.0
O807 O 0.85023 0.37353 0.02713 0.0
O808 O 0.86101 0.36231 0.03781 0.0
C809 C 0.85782 0.37289 0.03544 0.0
C810 C 0.83002 0.34543 0.03499 0.0
C811 C 0.85608 0.38052 0.04537 0.0
C812 C 0.84391 0.39194 0.05789 0.0
C813 C 0.84513 0.38421 0.04881 0.0
C814 C 0.86451 0.39221 0.06036 0.0
C815 C 0.8536 0.39608 0.06376 0.0
C816 C 0.86572 0.38455 0.05128 0.0
C817 C 0.86788 0.34781 0.99986 0.0
C818 C 0.8792 0.35989 0.98697 0.0
C819 C 0.88416 0.33986 0.98949 0.0
C820 C 0.87504 0.33852 0.99719 0.0
C821 C 0.88632 0.35054 0.9842 0.0
C822 C 0.8701 0.35856 0.99473 0.0
C823 C 0.8579 0.34585 1.00752 0.0
O824 O 0.84048 0.34279 0.03826 0.0
O825 O 0.8297 0.35385 0.02743 0.0
O826 O 0.84958 0.35347 1.00713 0.0
O827 O 0.86024 0.3423 0.01798 0.0
H828 H 0.82547 0.33425 1.0148 0.0
H829 H 0.81194 0.3184 1.01194 0.0
H830 H 0.80337 0.31904 0.04797 0.0
H831 H 0.81697 0.33471 0.05074 0.0
H832 H 0.83538 0.39463 0.06035 0.0
H833 H 0.83754 0.3812 0.04442 0.0
H834 H 0.87217 0.39532 0.06454 0.0
H835 H 0.87425 0.38187 0.04875 0.0
H836 H 0.8807 0.36827 0.98316 0.0
H837 H 0.88935 0.33244 0.98746 0.0
H838 H 0.87347 0.33013 1.00095 0.0
H839 H 0.86476 0.3659 0.99663 0.0
C840 C 0.82102 0.20499 0.51692 0.0
C841 C 0.8248 0.21608 0.5197 0.0
C842 C 0.80504 0.22307 0.51995 0.0
C843 C 0.81689 0.22503 0.52116 0.0
C844 C 0.80131 0.21192 0.51732 0.0
C845 C 0.80921 0.20301 0.51581 0.0
U846 U 0.84781 0.18639 0.52352 0.0
O847 O 0.84969 0.16758 0.52262 0.0
O848 O 0.86022 0.17871 0.51161 0.0
C849 C 0.85718 0.16814 0.51422 0.0
C850 C 0.82909 0.19544 0.51468 0.0
C851 C 0.85528 0.16023 0.50455 0.0
C852 C 0.84958 0.15629 0.48488 0.0
C853 C 0.85075 0.16398 0.49401 0.0
C854 C 0.85725 0.14101 0.49679 0.0
C855 C 0.85286 0.1447 0.48614 0.0
C856 C 0.85845 0.14868 0.50586 0.0
C857 C 0.86671 0.1934 0.54987 0.0
C858 C 0.88664 0.18831 0.55362 0.0
C859 C 0.87445 0.19446 0.5692 0.0
C860 C 0.8653 0.19576 0.56154 0.0
C861 C 0.88527 0.19078 0.56535 0.0
C862 C 0.87745 0.18957 0.54596 0.0
C863 C 0.85695 0.19538 0.542 0.0
O864 O 0.83949 0.19822 0.51129 0.0
O865 O 0.82896 0.18691 0.52213 0.0
O866 O 0.84872 0.1877 0.54235 0.0
O867 O 0.85943 0.19885 0.53153 0.0
H868 H 0.83386 0.21785 0.52065 0.0
H869 H 0.82006 0.23348 0.52331 0.0
H870 H 0.79229 0.2101 0.51617 0.0
H871 H 0.80608 0.19456 0.51361 0.0
H872 H 0.84605 0.15941 0.47686 0.0
H873 H 0.84819 0.17284 0.4928 0.0
H874 H 0.86002 0.13222 0.49805 0.0
H875 H 0.86201 0.14561 0.5139 0.0
H876 H 0.89481 0.18533 0.55038 0.0
H877 H 0.8731 0.1966 0.57811 0.0
H878 H 0.85712 0.19877 0.56474 0.0
H879 H 0.87875 0.18763 0.53699 0.0
C880 C 0.65604 0.36174 0.54535 0.0
C881 C 0.65125 0.35091 0.54774 0.0
C882 C 0.64011 0.3589 0.56353 0.0
C883 C 0.64334 0.34952 0.55671 0.0
C884 C 0.64507 0.36968 0.56119 0.0
C885 C 0.65291 0.37107 0.5522 0.0
U886 U 0.68211 0.35429 0.52619 0.0
O887 O 0.68392 0.35564 0.50746 0.0
O888 O 0.69496 0.36595 0.51856 0.0
C889 C 0.69172 0.36376 0.50802 0.0
C890 C 0.66389 0.36372 0.53553 0.0
C891 C 0.69009 0.37383 0.50039 0.0
C892 C 0.67795 0.38781 0.49058 0.0
C893 C 0.6792 0.37852 0.49823 0.0
C894 C 0.69845 0.38793 0.48735 0.0
C895 C 0.68756 0.39262 0.48501 0.0
C896 C 0.69968 0.37865 0.49494 0.0
C897 C 0.70044 0.32745 0.53347 0.0
C898 C 0.71525 0.31897 0.52148 0.0
C899 C 0.71242 0.31199 0.54088 0.0
C900 C 0.70359 0.31996 0.54239 0.0
C901 C 0.71833 0.3113 0.53038 0.0
C902 C 0.70637 0.32697 0.52301 0.0
C903 C 0.69082 0.33547 0.53532 0.0
O904 O 0.67443 0.36674 0.5381 0.0
O905 O 0.66338 0.35638 0.52705 0.0
O906 O 0.68264 0.33544 0.52758 0.0
O907 O 0.6936 0.34584 0.53867 0.0
H908 H 0.65353 0.34353 0.54263 0.0
H909 H 0.63979 0.34107 0.55835 0.0
H910 H 0.64269 0.37713 0.56615 0.0
H911 H 0.65642 0.37952 0.55049 0.0
H912 H 0.66946 0.39127 0.48909 0.0
H913 H 0.67167 0.37498 0.50238 0.0
H914 H 0.70602 0.39128 0.48313 0.0
H915 H 0.70815 0.37513 0.49646 0.0
H916 H 0.71953 0.31864 0.51326 0.0
H917 H 0.71467 0.3064 0.548 0.0
H918 H 0.69915 0.32023 0.55055 0.0
H919 H 0.70407 0.33269 0.51602 0.0
C920 C 0.65439 0.18157 1.00533 0.0
C921 C 0.65749 0.18767 0.99537 0.0
C922 C 0.63865 0.18402 0.98698 0.0
C923 C 0.6497 0.18888 0.98628 0.0
C924 C 0.63558 0.17808 0.99708 0.0
C925 C 0.64336 0.17687 1.00613 0.0
U926 U 0.68086 0.18925 0.02379 0.0
O927 O 0.68267 0.18832 0.04259 0.0
O928 O 0.69361 0.1777 0.03165 0.0
C929 C 0.6904 0.18012 0.04216 0.0
C930 C 0.66248 0.17973 1.01492 0.0
C931 C 0.68863 0.17028 0.05005 0.0
C932 C 0.68252 0.15065 0.05403 0.0
C933 C 0.68369 0.15995 0.04639 0.0
C934 C 0.69102 0.16196 0.0691 0.0
C935 C 0.68621 0.15153 0.06549 0.0
C936 C 0.69222 0.17121 0.06147 0.0
C937 C 0.69904 0.21614 0.0164 0.0
C938 C 0.71858 0.2205 0.02233 0.0
C939 C 0.70663 0.23548 1.01421 0.0
C940 C 0.69765 0.22763 1.01302 0.0
C941 C 0.71727 0.23202 0.01878 0.0
C942 C 0.70955 0.21263 0.02116 0.0
C943 C 0.68949 0.20802 1.01452 0.0
O944 O 0.67299 0.17675 1.01216 0.0
O945 O 0.66207 0.18727 0.02321 0.0
O946 O 0.68124 0.20812 0.02219 0.0
O947 O 0.69228 0.19761 1.01124 0.0
H948 H 0.66597 0.19139 0.99458 0.0
H949 H 0.65241 0.19343 0.97861 0.0
H950 H 0.6271 0.17441 0.99805 0.0
H951 H 0.64077 0.17218 1.01376 0.0
H952 H 0.67865 0.14281 0.05099 0.0
H953 H 0.68079 0.15905 0.03763 0.0
H954 H 0.6941 0.16293 0.0778 0.0
H955 H 0.69609 0.17909 0.06446 0.0
H956 H 0.72665 0.21748 0.02581 0.0
H957 H 0.7052 0.2443 1.01159 0.0
H958 H 0.6896 0.23053 1.00938 0.0
H959 H 0.71082 0.2038 0.02385 0.0
H960 H 1.00164 0.28981 0.81975 0.0
H961 H 1.00303 0.27617 0.80403 0.0
H962 H 0.01911 0.30204 0.78285 0.0
H963 H 0.0177 0.3158 0.79854 0.0
H964 H 0.99336 0.27775 0.78253 0.0
H965 H 0.04072 0.2748 0.77903 0.0
H966 H 0.03366 0.28107 0.79124 0.0
H967 H 0.03519 0.28917 0.77815 0.0
C968 C 1.00546 0.29264 0.81174 0.0
C969 C 1.00953 0.30396 0.81043 0.0
C970 C 1.00629 0.28479 0.80277 0.0
C971 C 1.0113 0.288 0.79228 0.0
C972 C 0.01544 0.29926 0.79094 0.0
H973 H 0.01934 0.25355 0.72674 0.0
H974 H 0.01942 0.26711 0.74265 0.0
C975 C 1.01462 0.30714 0.79993 0.0
C976 C 1.01171 0.27969 0.78265 0.0
H977 H 0.0299 0.26569 0.76448 0.0
C978 C 1.00136 0.27508 0.77862 0.0
C979 C 0.02214 0.27621 0.77751 0.0
C980 C 0.03358 0.28048 0.78175 0.0
C981 C 1.00113 0.26723 0.76953 0.0
C982 C 1.01156 0.26372 0.76442 0.0
C983 C 0.02192 0.26836 0.7684 0.0
C984 C 1.01185 0.2553 0.75489 0.0
C985 C 0.9897 0.26296 0.7653 0.0
C986 C 1.00779 0.24405 0.75651 0.0
C987 C 1.0077 0.23628 0.74741 0.0
C988 C 1.01169 0.23957 0.73648 0.0
C989 C 0.01603 0.25077 0.73498 0.0
C990 C 0.01615 0.25852 0.74409 0.0
H991 H 0.98254 0.26858 0.7681 0.0
H992 H 0.98958 0.26246 0.75581 0.0
H993 H 0.98813 0.25422 0.76882 0.0
H994 H 1.00461 0.2413 0.76481 0.0
H995 H 1.00423 0.22778 0.74888 0.0
H996 H 0.74451 0.5023 0.31854 0.0
H997 H 0.7584 0.5031 0.3029 0.0
H998 H 0.7427 0.53418 0.29016 0.0
H999 H 0.72898 0.53368 0.30606 0.0
H1000 H 0.75449 0.50252 0.27968 0.0
H1001 H 0.77646 0.54309 0.29114 0.0
H1002 H 0.76709 0.53557 0.30096 0.0
H1003 H 0.76118 0.54427 0.28962 0.0
C1004 C 0.7441 0.50943 0.31254 0.0
C1005 C 0.73564 0.51799 0.31367 0.0
C1006 C 0.75201 0.50982 0.30353 0.0
C1007 C 0.75173 0.51879 0.29542 0.0
C1008 C 0.74325 0.52729 0.29642 0.0
H1009 H 0.79356 0.53188 0.2342 0.0
H1010 H 0.77936 0.53302 0.24966 0.0
C1011 C 0.73531 0.52692 0.30546 0.0
C1012 C 0.76012 0.51896 0.28577 0.0
H1013 H 0.78186 0.53457 0.27359 0.0
C1014 C 0.76048 0.50953 0.27837 0.0
C1015 C 0.76792 0.52812 0.28401 0.0
C1016 C 0.76826 0.5383 0.2919 0.0
C1017 C 0.76835 0.50901 0.26925 0.0
C1018 C 0.77627 0.51809 0.26759 0.0
C1019 C 0.77581 0.52761 0.27488 0.0
C1020 C 0.78521 0.5177 0.25847 0.0
C1021 C 0.76801 0.49881 0.26138 0.0
C1022 C 0.79343 0.50889 0.25843 0.0
C1023 C 0.80157 0.50824 0.24964 0.0
C1024 C 0.80175 0.51643 0.2407 0.0
C1025 C 0.79373 0.52547 0.24097 0.0
C1026 C 0.78557 0.5261 0.24977 0.0
H1027 H 0.75961 0.49434 0.26181 0.0
H1028 H 0.76966 0.50144 0.25236 0.0
H1029 H 0.77474 0.49259 0.264 0.0
H1030 H 0.79353 0.50247 0.2652 0.0
H1031 H 0.80776 0.5013 0.24988 0.0
H1032 H 0.52317 0.3118 0.747 0.0
H1033 H 0.5247 0.29604 0.76097 0.0
H1034 H 0.49386 0.28097 0.74744 0.0
H1035 H 0.49246 0.29646 0.73326 0.0
H1036 H 0.50914 0.28973 0.77795 0.0
H1037 H 0.51582 0.25379 0.74789 0.0
H1038 H 0.51737 0.26863 0.74358 0.0
H1039 H 0.50337 0.26225 0.74462 0.0
C1040 C 0.51682 0.30503 0.74686 0.0
C1041 C 0.50771 0.30541 0.73896 0.0
C1042 C 0.51767 0.29606 0.75491 0.0
C1043 C 0.50949 0.28722 0.75518 0.0
C1044 C 0.5004 0.28756 0.74729 0.0
H1045 H 0.49303 0.22832 0.79746 0.0
H1046 H 0.49394 0.24391 0.78337 0.0
C1047 C 0.49954 0.29651 0.73926 0.0
C1048 C 0.51017 0.27787 0.76395 0.0
H1049 H 0.5112 0.24869 0.76718 0.0
C1050 C 0.50971 0.28076 0.7756 0.0
C1051 C 0.51091 0.26616 0.7609 0.0
C1052 C 0.51201 0.2625 0.74857 0.0
C1053 C 0.50959 0.27226 0.78425 0.0
C1054 C 0.51012 0.26055 0.78118 0.0
C1055 C 0.51076 0.25767 0.76954 0.0
C1056 C 0.50969 0.25112 0.78988 0.0
C1057 C 0.5085 0.27588 0.79659 0.0
C1058 C 0.5183 0.24989 0.79822 0.0
C1059 C 0.51786 0.2409 0.80628 0.0
C1060 C 0.50882 0.2329 0.80615 0.0
C1061 C 0.50022 0.23418 0.79775 0.0
C1062 C 0.50069 0.24314 0.7897 0.0
H1063 H 0.50554 0.28491 0.79733 0.0
H1064 H 0.50241 0.27023 0.8013 0.0
H1065 H 0.51699 0.27516 0.80081 0.0
H1066 H 0.52546 0.2558 0.7984 0.0
H1067 H 0.52472 0.24011 0.81248 0.0
H1068 H 0.81195 0.0166 0.29721 0.0
H1069 H 0.79797 1.01524 0.28159 0.0
H1070 H 0.7742 0.03592 0.30077 0.0
H1071 H 0.78802 0.03725 0.31641 0.0
H1072 H 0.77544 1.00674 0.28131 0.0
H1073 H 0.77615 0.05309 0.27015 0.0
H1074 H 0.78686 0.04647 0.27919 0.0
H1075 H 0.77308 0.05023 0.28498 0.0
C1076 C 0.80371 0.02079 0.29815 0.0
C1077 C 0.80119 0.02714 0.30806 0.0
C1078 C 0.79575 0.02004 0.28919 0.0
C1079 C 0.78512 0.02567 0.28989 0.0
C1080 C 0.78246 0.03175 0.29988 0.0
H1081 H 0.72512 0.03364 0.24642 0.0
H1082 H 0.73905 0.03341 0.26211 0.0
C1083 C 0.79039 0.03251 0.30883 0.0
C1084 C 0.77675 0.02514 0.28026 0.0
H1085 H 0.76158 0.04192 0.26145 0.0
C1086 C 0.77247 1.01442 0.27691 0.0
C1087 C 0.77286 0.03517 0.27451 0.0
C1088 C 0.77754 0.04689 0.2773 0.0
C1089 C 0.76419 1.01348 0.26818 0.0
C1090 C 0.76022 0.02352 0.26253 0.0
C1091 C 0.76457 0.03423 0.26582 0.0
C1092 C 0.75158 0.02315 0.25314 0.0
C1093 C 0.75956 1.00178 0.26529 0.0
C1094 C 0.75398 0.01748 0.24284 0.0
C1095 C 0.74601 0.01757 0.23385 0.0
C1096 C 0.73546 0.02335 0.23495 0.0
C1097 C 0.73307 0.02896 0.24532 0.0
C1098 C 0.74106 0.0289 0.25428 0.0
H1099 H 0.76128 0.99541 0.27222 0.0
H1100 H 0.75017 1.00215 0.26374 0.0
H1101 H 0.76376 0.9987 0.25736 0.0
H1102 H 0.7621 1.01314 0.24167 0.0
H1103 H 0.74813 1.0131 0.22603 0.0
H1104 H 0.24777 0.72184 0.02837 0.0
H1105 H 0.26194 0.73723 0.02953 0.0
H1106 H 0.23812 0.76067 1.01349 0.0
H1107 H 0.22388 0.74531 1.0123 0.0
H1108 H 0.27181 0.7496 1.01201 0.0
H1109 H 0.24845 0.77895 0.04109 0.0
H1110 H 0.24415 0.76424 0.03902 0.0
H1111 H 0.24056 0.77503 0.02851 0.0
C1112 C 0.24552 0.73027 0.02508 0.0
C1113 C 0.23465 0.73231 0.02025 0.0
C1114 C 0.25364 0.73908 0.0258 0.0
C1115 C 0.25108 0.75017 0.02174 0.0
C1116 C 0.24023 0.75227 0.01693 0.0
H1117 H 0.29228 0.81305 0.01774 0.0
H1118 H 0.27717 0.79858 1.01567 0.0
C1119 C 0.23208 0.74346 0.01625 0.0
C1120 C 0.25995 0.75938 0.02217 0.0
H1121 H 0.26568 0.786 0.03288 0.0
C1122 C 0.27047 0.75754 0.0166 0.0
C1123 C 0.2582 0.76979 0.02809 0.0
C1124 C 0.24728 0.77212 0.03461 0.0
C1125 C 0.27924 0.76582 0.01676 0.0
C1126 C 0.27755 0.77616 0.0228 0.0
C1127 C 0.26698 0.77808 0.02823 0.0
C1128 C 0.28678 0.78492 0.02388 0.0
C1129 C 0.29019 0.76346 1.0103 0.0
C1130 C 0.29718 0.78211 0.02926 0.0
C1131 C 0.30584 0.79032 0.03041 0.0
C1132 C 0.3043 0.80161 0.02627 0.0
C1133 C 0.29384 0.80442 0.0209 0.0
C1134 C 0.28516 0.79618 0.01978 0.0
H1135 H 0.28893 0.75687 1.00359 0.0
H1136 H 0.29356 0.7714 1.00619 0.0
H1137 H 0.29676 0.76018 0.01638 0.0
H1138 H 0.29858 0.77354 0.03267 0.0
H1139 H 0.3138 0.78778 0.03448 0.0
H1140 H 0.29255 0.73383 0.50213 0.0
H1141 H 0.27723 0.74809 0.50347 0.0
H1142 H 0.2915 0.76033 0.53515 0.0
H1143 H 0.30706 0.74628 0.53373 0.0
H1144 H 0.26078 0.75131 0.52065 0.0
H1145 H 0.28856 0.78978 0.51585 0.0
H1146 H 0.29349 0.7755 0.51252 0.0
H1147 H 0.2926 0.78004 0.52717 0.0
C1148 C 0.29251 0.73961 0.50934 0.0
C1149 C 0.30113 0.73894 0.51777 0.0
C1150 C 0.28369 0.74772 0.51013 0.0
C1151 C 0.2833 0.75542 0.51931 0.0
C1152 C 0.29173 0.75463 0.52788 0.0
H1153 H 0.23571 0.81181 0.53413 0.0
H1154 H 0.25122 0.79761 0.53509 0.0
C1155 C 0.30055 0.74649 0.52712 0.0
C1156 C 0.274 0.76418 0.5199 0.0
H1157 H 0.2689 0.79309 0.51946 0.0
C1158 C 0.26256 0.76045 0.5204 0.0
C1159 C 0.27631 0.77611 0.51961 0.0
C1160 C 0.28839 0.78065 0.51866 0.0
C1161 C 0.2534 0.76829 0.52064 0.0
C1162 C 0.25569 0.78022 0.52014 0.0
C1163 C 0.26714 0.78396 0.51984 0.0
C1164 C 0.24633 0.78892 0.51954 0.0
C1165 C 0.24133 0.76373 0.52156 0.0
C1166 C 0.23855 0.78891 0.51037 0.0
C1167 C 0.22973 0.79704 0.50976 0.0
C1168 C 0.22848 0.80543 0.51829 0.0
C1169 C 0.23643 0.80554 0.52737 0.0
C1170 C 0.24527 0.79739 0.52797 0.0
H1171 H 0.24117 0.75486 0.52513 0.0
H1172 H 0.23594 0.7693 0.52706 0.0
H1173 H 0.23743 0.76352 0.51289 0.0
H1174 H 0.23936 0.78267 0.5036 0.0
H1175 H 0.22397 0.79683 0.50249 0.0
H1176 H 1.00955 0.81885 0.2901 0.0
H1177 H 1.01076 0.80276 0.27685 0.0
H1178 H 0.02166 0.78056 0.30451 0.0
H1179 H 0.02009 0.79653 0.31792 0.0
H1180 H 0.02909 0.7888 0.27083 0.0
H1181 H 0.99452 0.76306 0.29127 0.0
H1182 H 0.99686 0.77798 0.29456 0.0
H1183 H 1.00588 0.76708 0.30079 0.0
C1184 C 1.0121 0.81053 0.29342 0.0
C1185 C 1.01459 0.80899 0.30514 0.0
C1186 C 1.01287 0.80134 0.28579 0.0
C1187 C 0.01611 0.79038 0.2897 0.0
C1188 C 0.01892 0.78887 0.30132 0.0
H1189 H 0.0214 0.72392 0.25625 0.0
H1190 H 0.02227 0.73994 0.26962 0.0
C1191 C 0.01815 0.79806 0.30897 0.0
C1192 C 0.01649 0.78057 0.28158 0.0
H1193 H 1.0048 0.75426 0.27623 0.0
C1194 C 0.02377 0.78125 0.272 0.0
C1195 C 1.00954 0.77071 0.2831 0.0
C1196 C 1.00118 0.76966 0.29292 0.0
C1197 C 0.0244 0.7723 0.26399 0.0
C1198 C 0.01741 0.76247 0.26548 0.0
C1199 C 1.01018 0.76177 0.27509 0.0
C1200 C 0.01735 0.75285 0.25713 0.0
C1201 C 0.03272 0.77337 0.25414 0.0
C1202 C 1.01425 0.75472 0.24563 0.0
C1203 C 1.01372 0.74556 0.23794 0.0
C1204 C 0.01616 0.73427 0.24161 0.0
C1205 C 0.01933 0.73245 0.25314 0.0
C1206 C 0.01988 0.74162 0.2608 0.0
H1207 H 0.0396 0.77969 0.25596 0.0
H1208 H 0.03675 0.76498 0.25219 0.0
H1209 H 0.02805 0.77637 0.24639 0.0
H1210 H 1.01199 0.76325 0.24264 0.0
H1211 H 1.01106 0.74727 0.22921 0.0
H1212 H 0.29658 0.50729 0.73741 0.0
H1213 H 0.2825 0.5054 0.75292 0.0
H1214 H 0.27894 0.54219 0.75395 0.0
H1215 H 0.29304 0.54418 0.73857 0.0
H1216 H 0.28244 0.51435 0.77533 0.0
H1217 H 0.2458 0.53131 0.75001 0.0
H1218 H 0.2591 0.5269 0.74346 0.0
H1219 H 0.25806 0.54062 0.7503 0.0
C1220 C 0.29288 0.51499 0.741 0.0
C1221 C 0.29589 0.52588 0.73662 0.0
C1222 C 0.28479 0.51389 0.74984 0.0
C1223 C 0.27949 0.52364 0.75446 0.0
C1224 C 0.28269 0.53453 0.75033 0.0
H1225 H 0.22639 0.53478 0.80595 0.0
H1226 H 0.24175 0.53699 0.79176 0.0
C1227 C 0.29076 0.53564 0.74151 0.0
C1228 C 0.27065 0.52246 0.76362 0.0
H1229 H 0.24259 0.52824 0.76985 0.0
C1230 C 0.27371 0.51735 0.77412 0.0
C1231 C 0.25926 0.52639 0.76206 0.0
C1232 C 0.25529 0.53152 0.75082 0.0
C1233 C 0.26577 0.51624 0.78316 0.0
C1234 C 0.25438 0.52016 0.78159 0.0
C1235 C 0.25132 0.52528 0.77108 0.0
C1236 C 0.24541 0.51883 0.79062 0.0
C1237 C 0.26974 0.51112 0.79439 0.0
C1238 C 0.24231 0.50789 0.79469 0.0
C1239 C 0.23359 0.50661 0.80286 0.0
C1240 C 0.22767 0.51623 0.80709 0.0
C1241 C 0.23084 0.52719 0.80302 0.0
C1242 C 0.23957 0.52846 0.79484 0.0
H1243 H 0.27921 0.51163 0.79532 0.0
H1244 H 0.2657 0.51553 0.80176 0.0
H1245 H 0.26728 0.50193 0.79476 0.0
H1246 H 0.24651 0.5003 0.79143 0.0
H1247 H 0.23148 0.49804 0.80585 0.0
H1248 H 0.53634 0.81409 0.25002 0.0
H1249 H 0.5353 0.7986 0.2642 0.0
H1250 H 0.50527 0.78519 0.24752 0.0
H1251 H 0.50614 0.80078 0.23333 0.0
H1252 H 0.51741 0.79315 0.27944 0.0
H1253 H 0.52634 0.757 0.24999 0.0
H1254 H 0.52902 0.77177 0.24606 0.0
H1255 H 0.51467 0.7662 0.2458 0.0
C1256 C 0.52944 0.80792 0.24938 0.0
C1257 C 0.52131 0.80875 0.24049 0.0
C1258 C 0.5289 0.79901 0.25749 0.0
C1259 C 0.5203 0.79063 0.25687 0.0
C1260 C 0.51213 0.79141 0.24805 0.0
H1261 H 0.50725 0.72975 0.29967 0.0
H1262 H 0.50574 0.74529 0.28546 0.0
C1263 C 0.51265 0.80035 0.23993 0.0
C1264 C 0.5198 0.78126 0.26563 0.0
H1265 H 0.52191 0.75217 0.2692 0.0
C1266 C 0.51839 0.78419 0.27719 0.0
C1267 C 0.52102 0.76955 0.26271 0.0
C1268 C 0.52294 0.76589 0.25048 0.0
C1269 C 0.51815 0.77576 0.2859 0.0
C1270 C 0.51959 0.76407 0.28301 0.0
C1271 C 0.52081 0.76112 0.27142 0.0
C1272 C 0.52024 0.75483 0.2919 0.0
C1273 C 0.51622 0.77946 0.29811 0.0
C1274 C 0.52892 0.75496 0.30023 0.0
C1275 C 0.52977 0.74612 0.30839 0.0
C1276 C 0.522 0.73688 0.30839 0.0
C1277 C 0.51328 0.73679 0.30004 0.0
C1278 C 0.51246 0.74564 0.29185 0.0
H1279 H 0.51199 0.78799 0.29851 0.0
H1280 H 0.51087 0.77313 0.30286 0.0
H1281 H 0.52462 0.78011 0.30252 0.0
H1282 H 0.53516 0.76184 0.30033 0.0
H1283 H 0.53653 0.74655 0.31473 0.0
H1284 H 0.28895 1.0004 0.81346 0.0
H1285 H 0.27511 1.00157 0.7978 0.0
H1286 H 0.28841 0.03475 0.78806 0.0
H1287 H 0.30225 0.03373 0.80382 0.0
H1288 H 0.25798 0.01798 0.79389 0.0
H1289 H 0.28906 0.01712 0.7578 0.0
H1290 H 0.293 1.01322 0.77227 0.0
H1291 H 0.29157 0.02807 0.76825 0.0
C1292 C 0.28891 1.00801 0.80806 0.0
C1293 C 0.29674 0.01698 0.80996 0.0
C1294 C 0.28101 1.00863 0.79905 0.0
C1295 C 0.28078 0.01818 0.79165 0.0
C1296 C 0.28856 0.02718 0.7935 0.0
H1297 H 0.23775 0.03313 0.73166 0.0
H1298 H 0.25142 0.03452 0.74755 0.0
C1299 C 0.29648 0.02658 0.80253 0.0
C1300 C 0.27223 0.01876 0.78218 0.0
H1301 H 0.26954 0.01974 0.753 0.0
C1302 C 0.26051 0.01838 0.78495 0.0
C1303 C 0.27552 0.01932 0.77051 0.0
C1304 C 0.28796 0.01936 0.76697 0.0
C1305 C 0.25202 0.01855 0.7764 0.0
C1306 C 0.25531 0.01889 0.76472 0.0
C1307 C 0.26702 0.01948 0.76195 0.0
C1308 C 0.24675 0.01824 0.75527 0.0
C1309 C 0.23958 0.01849 0.77997 0.0
C1310 C 0.23962 1.0086 0.75427 0.0
C1311 C 0.23177 1.0078 0.74523 0.0
C1312 C 0.23091 0.0166 0.73693 0.0
C1313 C 0.23806 0.02626 0.73797 0.0
C1314 C 0.24594 0.02704 0.74701 0.0
H1315 H 0.23848 0.02157 0.78889 0.0
H1316 H 0.23433 0.02395 0.77416 0.0
H1317 H 0.23625 1.00959 0.7796 0.0
H1318 H 0.24021 1.0016 0.7604 0.0
H1319 H 0.22635 1.00028 0.74478 0.0
H1320 H 0.73314 0.23414 0.03612 0.0
H1321 H 0.74863 0.24824 0.03765 0.0
H1322 H 0.73881 0.26301 1.00513 0.0
H1323 H 0.72344 0.24891 1.00343 0.0
H1324 H 0.76735 0.25283 0.02277 0.0
H1325 H 0.73886 0.29078 0.02655 0.0
H1326 H 0.73373 0.27627 0.02843 0.0
H1327 H 0.73606 0.28203 1.01428 0.0
C1328 C 0.73432 0.24032 0.02924 0.0
C1329 C 0.72692 0.24042 0.01969 0.0
C1330 C 0.74316 0.24842 0.03016 0.0
C1331 C 0.74477 0.25682 0.0216 0.0
C1332 C 0.73757 0.25679 1.01197 0.0
H1333 H 0.79131 0.31463 1.012 0.0
H1334 H 0.77687 0.29957 1.00976 0.0
C1335 C 0.72876 0.24871 1.01103 0.0
C1336 C 0.754 0.26558 0.02269 0.0
H1337 H 0.75871 0.29448 0.02427 0.0
C1338 C 0.76547 0.26193 0.02316 0.0
C1339 C 0.75154 0.27747 0.02316 0.0
C1340 C 0.73938 0.2819 0.02318 0.0
C1341 C 0.77455 0.26985 0.02385 0.0
C1342 C 0.77209 0.28175 0.02432 0.0
C1343 C 0.76061 0.28538 0.02387 0.0
C1344 C 0.78126 0.29057 0.02545 0.0
C1345 C 0.7867 0.26542 0.02381 0.0
C1346 C 0.78854 0.29058 0.03503 0.0
C1347 C 0.79685 0.29914 0.03631 0.0
C1348 C 0.79804 0.30797 0.02807 0.0
C1349 C 0.79077 0.3079 0.01844 0.0
C1350 C 0.78244 0.29933 0.01718 0.0
H1351 H 0.78723 0.25663 0.02023 0.0
H1352 H 0.79241 0.27116 0.01874 0.0
H1353 H 0.78995 0.26507 0.03274 0.0
H1354 H 0.78768 0.28405 0.04163 0.0
H1355 H 0.80234 0.29885 0.04378 0.0
H1356 H 0.71856 0.28895 0.53792 0.0
H1357 H 0.7338 0.27473 0.53587 0.0
H1358 H 0.75405 0.29922 0.51677 0.0
H1359 H 0.73896 0.31366 0.5191 0.0
H1360 H 0.7432 0.26561 0.5161 0.0
H1361 H 0.77657 0.28811 0.54132 0.0
H1362 H 0.76164 0.29219 0.54173 0.0
H1363 H 0.77048 0.2964 0.52979 0.0
C1364 C 0.72631 0.29139 0.53341 0.0
C1365 C 0.72754 0.30253 0.52878 0.0
C1366 C 0.735 0.2832 0.53217 0.0
C1367 C 0.74517 0.28593 0.52633 0.0
C1368 C 0.74638 0.29696 0.52152 0.0
H1369 H 0.80668 0.24531 0.51204 0.0
H1370 H 0.79233 0.2606 0.51336 0.0
C1371 C 0.73768 0.30518 0.52274 0.0
C1372 C 0.75435 0.27712 0.52514 0.0
H1373 H 0.78221 0.27103 0.53205 0.0
C1374 C 0.75173 0.26679 0.5196 0.0
C1375 C 0.7655 0.27867 0.52966 0.0
C1376 C 0.76874 0.28939 0.53605 0.0
C1377 C 0.75993 0.25803 0.5184 0.0
C1378 C 0.77103 0.2595 0.52308 0.0
C1379 C 0.77371 0.26989 0.52849 0.0
C1380 C 0.7799 0.25029 0.52259 0.0
C1381 C 0.75667 0.24735 0.51196 0.0
C1382 C 0.77784 0.23947 0.52757 0.0
C1383 C 0.78603 0.23072 0.52684 0.0
C1384 C 0.79655 0.2326 0.5212 0.0
C1385 C 0.79873 0.24356 0.51651 0.0
C1386 C 0.7905 0.25231 0.51722 0.0
H1387 H 0.74925 0.2489 0.50619 0.0
H1388 H 0.76396 0.24414 0.50677 0.0
H1389 H 0.7542 0.24053 0.51818 0.0
H1390 H 0.76988 0.23778 0.53205 0.0
H1391 H 0.78415 0.22247 0.53076 0.0
H1392 H 0.14374 0.0849 0.70621 0.0
H1393 H 0.12861 0.09933 0.7048 0.0
H1394 H 0.11101 0.07873 0.67987 0.0
H1395 H 0.12593 0.064 0.68153 0.0
H1396 H 0.12138 0.11201 0.68618 0.0
H1397 H 0.08563 0.08522 0.70293 0.0
H1398 H 0.10046 0.08098 0.70427 0.0
H1399 H 0.09309 0.0793 0.69088 0.0
C1400 C 0.13658 0.08332 0.70053 0.0
C1401 C 0.13603 0.07318 0.69408 0.0
C1402 C 0.12797 0.09165 0.69967 0.0
C1403 C 0.11855 0.09006 0.69237 0.0
C1404 C 0.11805 0.08006 0.68574 0.0
H1405 H 0.05876 0.13438 0.67969 0.0
H1406 H 0.07302 0.11894 0.67881 0.0
C1407 C 0.12668 0.0717 0.6866 0.0
C1408 C 0.10942 0.09901 0.69163 0.0
H1409 H 0.0809 0.1039 0.69643 0.0
C1410 C 0.11253 0.11022 0.68841 0.0
C1411 C 0.09784 0.09668 0.6945 0.0
C1412 C 0.09403 0.08493 0.69844 0.0
C1413 C 0.10443 0.11916 0.688 0.0
C1414 C 0.0929 0.11689 0.69108 0.0
C1415 C 0.08973 0.10563 0.69407 0.0
C1416 C 0.08415 0.12619 0.69167 0.0
C1417 C 0.10827 0.13095 0.6842 0.0
C1418 C 0.08554 0.13529 0.69935 0.0
C1419 C 0.07738 0.14408 0.69993 0.0
C1420 C 0.06759 0.14398 0.69287 0.0
C1421 C 0.06613 0.13473 0.68531 0.0
C1422 C 0.07431 0.12591 0.68476 0.0
H1423 H 0.11636 0.1306 0.67918 0.0
H1424 H 0.10159 0.13525 0.67891 0.0
H1425 H 0.10984 0.1363 0.69186 0.0
H1426 H 0.09291 0.13555 0.70498 0.0
H1427 H 0.07869 0.15088 0.70605 0.0
H1428 H 0.9644 0.64357 0.20446 0.0
H1429 H 0.94861 0.62979 0.20586 0.0
H1430 H 0.96079 0.61288 0.17549 0.0
H1431 H 0.97649 0.62665 0.17393 0.0
H1432 H 0.93119 0.62492 0.19003 0.0
H1433 H 0.95783 0.58631 0.19848 0.0
H1434 H 0.96337 0.6007 0.19972 0.0
H1435 H 0.96191 0.59424 0.18586 0.0
C1436 C 0.9637 0.63697 0.19803 0.0
C1437 C 0.97183 0.63621 0.18913 0.0
C1438 C 0.95469 0.62905 0.19888 0.0
C1439 C 0.95362 0.62016 0.1909 0.0
C1440 C 0.96159 0.61947 0.18192 0.0
H1441 H 0.90485 0.56456 0.18013 0.0
H1442 H 0.92067 0.57831 0.17881 0.0
C1443 C 0.97059 0.62738 0.18105 0.0
C1444 C 0.94402 0.61175 0.1918 0.0
H1445 H 0.93809 0.58313 0.19471 0.0
C1446 C 0.9327 0.61579 0.19112 0.0
C1447 C 0.94598 0.59982 0.19318 0.0
C1448 C 0.95792 0.59499 0.19446 0.0
C1449 C 0.9233 0.60823 0.19156 0.0
C1450 C 0.92526 0.5963 0.19293 0.0
C1451 C 0.93659 0.59226 0.19362 0.0
C1452 C 0.91566 0.58789 0.1938 0.0
C1453 C 0.91136 0.61306 0.19028 0.0
C1454 C 0.90768 0.58855 0.20278 0.0
C1455 C 0.89866 0.58066 0.2036 0.0
C1456 C 0.89742 0.57187 0.19549 0.0
C1457 C 0.90555 0.57113 0.18659 0.0
C1458 C 0.91459 0.57903 0.18579 0.0
H1459 H 0.91145 0.62176 0.1863 0.0
H1460 H 0.90592 0.60736 0.185 0.0
H1461 H 0.90736 0.61377 0.19888 0.0
H1462 H 0.90848 0.59512 0.20924 0.0
H1463 H 0.89276 0.58137 0.21072 0.0
H1464 H 0.47435 0.41684 0.6987 0.0
H1465 H 0.45862 0.43068 0.69998 0.0
H1466 H 0.43777 0.40918 0.67851 0.0
H1467 H 0.45344 0.39527 0.67726 0.0
H1468 H 0.44819 0.44299 0.6831 0.0
H1469 H 0.41606 0.41523 0.70476 0.0
H1470 H 0.43099 0.4113 0.70369 0.0
H1471 H 0.42152 0.40929 0.69171 0.0
C1472 C 0.46641 0.41504 0.69426 0.0
C1473 C 0.46516 0.4049 0.68791 0.0
C1474 C 0.45741 0.42296 0.69502 0.0
C1475 C 0.44692 0.42093 0.68949 0.0
C1476 C 0.44565 0.41083 0.68311 0.0
H1477 H 0.38414 0.46115 0.68144 0.0
H1478 H 0.39959 0.44699 0.67973 0.0
C1479 C 0.45464 0.40288 0.68239 0.0
C1480 C 0.4375 0.42957 0.69008 0.0
H1481 H 0.40943 0.43326 0.69775 0.0
C1482 C 0.43973 0.44086 0.68636 0.0
C1483 C 0.42644 0.42682 0.6943 0.0
C1484 C 0.42361 0.41504 0.69895 0.0
C1485 C 0.43121 0.4494 0.68662 0.0
C1486 C 0.42016 0.44664 0.69083 0.0
C1487 C 0.41789 0.43536 0.69449 0.0
C1488 C 0.4109 0.4554 0.69169 0.0
C1489 C 0.43403 0.46127 0.68221 0.0
C1490 C 0.41208 0.46481 0.69903 0.0
C1491 C 0.40328 0.47292 0.70001 0.0
C1492 C 0.39307 0.47181 0.69368 0.0
C1493 C 0.39193 0.46237 0.68632 0.0
C1494 C 0.40073 0.45422 0.68539 0.0
H1495 H 0.44184 0.46129 0.67675 0.0
H1496 H 0.42678 0.46489 0.67717 0.0
H1497 H 0.43561 0.46701 0.68958 0.0
H1498 H 0.41979 0.46582 0.7041 0.0
H1499 H 0.40449 0.48011 0.7057 0.0
H1500 H 0.63651 0.96513 0.21002 0.0
H1501 H 0.62093 0.95128 0.20803 0.0
H1502 H 0.62049 0.95725 0.17152 0.0
H1503 H 0.63636 0.97085 0.17338 0.0
H1504 H 0.599 0.95419 0.19953 0.0
H1505 H 0.62282 0.92238 0.17357 0.0
H1506 H 0.62989 0.93389 0.18102 0.0
H1507 H 0.62275 0.93664 0.16762 0.0
C1508 C 0.63321 0.96341 0.20153 0.0
C1509 C 0.63781 0.96906 0.19184 0.0
C1510 C 0.62423 0.95553 0.20042 0.0
C1511 C 0.61965 0.95305 0.18961 0.0
C1512 C 0.62403 0.95883 0.17994 0.0
H1513 H 0.5654 0.908 0.16574 0.0
H1514 H 0.58098 0.92187 0.16763 0.0
C1515 C 0.63303 0.96673 0.18103 0.0
C1516 C 0.61018 0.94454 0.18853 0.0
H1517 H 0.60292 0.91909 0.17609 0.0
C1518 C 0.59987 0.94649 0.19443 0.0
C1519 C 0.6113 0.93449 0.18188 0.0
C1520 C 0.62231 0.93163 0.17574 0.0
C1521 C 0.59061 0.9388 0.19372 0.0
C1522 C 0.59174 0.92874 0.18709 0.0
C1523 C 0.60204 0.92679 0.18117 0.0
C1524 C 0.58228 0.9202 0.18605 0.0
C1525 C 0.57959 0.94167 0.19986 0.0
C1526 C 0.57791 0.91447 0.19576 0.0
C1527 C 0.56891 0.90658 0.19473 0.0
C1528 C 0.56411 0.90419 0.18394 0.0
C1529 C 0.5687 0.90977 0.17421 0.0
C1530 C 0.57769 0.91765 0.17526 0.0
H1531 H 0.57907 0.95094 0.20196 0.0
H1532 H 0.57202 0.93936 0.1946 0.0
H1533 H 0.57918 0.93672 0.20801 0.0
H1534 H 0.58146 0.9161 0.20416 0.0
H1535 H 0.56559 0.90251 0.20241 0.0
H1536 H 0.07115 0.39442 0.86883 0.0
H1537 H 0.08531 0.4098 0.87079 0.0
H1538 H 0.07227 0.42609 0.84016 0.0
H1539 H 0.05791 0.41095 0.83831 0.0
H1540 H 0.10252 0.41623 0.85533 0.0
H1541 H 0.07274 0.45253 0.86291 0.0
H1542 H 0.06831 0.43773 0.8641 0.0
H1543 H 0.0696 0.44448 0.85025 0.0
C1544 C 0.07116 0.40137 0.86261 0.0
C1545 C 0.06334 0.40144 0.85343 0.0
C1546 C 0.07933 0.41012 0.8637 0.0
C1547 C 0.07978 0.41919 0.85571 0.0
C1548 C 0.07198 0.4193 0.84655 0.0
H1549 H 0.12367 0.47907 0.84598 0.0
H1550 H 0.1095 0.4637 0.84402 0.0
C1551 C 0.06384 0.41055 0.84543 0.0
C1552 C 0.08865 0.42833 0.85673 0.0
H1553 H 0.09225 0.4573 0.85951 0.0
C1554 C 0.10028 0.4252 0.85631 0.0
C1555 C 0.08573 0.44005 0.85796 0.0
C1556 C 0.07343 0.44392 0.85894 0.0
C1557 C 0.10904 0.43347 0.85689 0.0
C1558 C 0.10612 0.44519 0.85812 0.0
C1559 C 0.0945 0.44833 0.85853 0.0
C1560 C 0.11499 0.45433 0.85914 0.0
C1561 C 0.12135 0.4296 0.85591 0.0
C1562 C 0.12277 0.45423 0.86831 0.0
C1563 C 0.13092 0.46298 0.86943 0.0
C1564 C 0.13144 0.47208 0.86142 0.0
C1565 C 0.12364 0.47213 0.85222 0.0
C1566 C 0.11547 0.46339 0.85113 0.0
H1567 H 0.12203 0.42099 0.85196 0.0
H1568 H 0.12646 0.43579 0.85074 0.0
H1569 H 0.12517 0.42907 0.86461 0.0
H1570 H 0.12246 0.44745 0.87472 0.0
H1571 H 0.13683 0.46259 0.87657 0.0
H1572 H 0.57408 0.64842 0.35007 0.0
H1573 H 0.58943 0.63418 0.34822 0.0
H1574 H 0.57299 0.61284 0.37371 0.0
H1575 H 0.55745 0.62678 0.37532 0.0
H1576 H 0.60456 0.62604 0.36476 0.0
H1577 H 0.57837 0.59027 0.34789 0.0
H1578 H 0.57319 0.60486 0.34831 0.0
H1579 H 0.57303 0.59607 0.36105 0.0
C1580 C 0.57363 0.64062 0.35517 0.0
C1581 C 0.56447 0.63877 0.36283 0.0
C1582 C 0.58247 0.63252 0.35415 0.0
C1583 C 0.5823 0.62234 0.3607 0.0
C1584 C 0.57322 0.62051 0.3684 0.0
H1585 H 0.62783 0.56327 0.36804 0.0
H1586 H 0.61253 0.57754 0.36996 0.0
C1587 C 0.56439 0.62859 0.36942 0.0
C1588 C 0.59176 0.61379 0.35971 0.0
H1589 H 0.59743 0.58572 0.35348 0.0
C1590 C 0.60301 0.61724 0.36223 0.0
C1591 C 0.58974 0.60229 0.35645 0.0
C1592 C 0.57795 0.59815 0.35316 0.0
C1593 C 0.61224 0.60948 0.36179 0.0
C1594 C 0.61023 0.59797 0.35853 0.0
C1595 C 0.59898 0.59452 0.35601 0.0
C1596 C 0.61968 0.58942 0.35752 0.0
C1597 C 0.62403 0.61361 0.36508 0.0
C1598 C 0.62877 0.59127 0.34983 0.0
C1599 C 0.63757 0.58317 0.34877 0.0
C1600 C 0.63747 0.57295 0.35531 0.0
C1601 C 0.62831 0.57109 0.36298 0.0
C1602 C 0.6195 0.57921 0.36403 0.0
H1603 H 0.62361 0.62148 0.37038 0.0
H1604 H 0.6288 0.60689 0.36992 0.0
H1605 H 0.62895 0.61572 0.3572 0.0
H1606 H 0.62901 0.59895 0.34455 0.0
H1607 H 0.64452 0.58498 0.34287 0.0
H1608 H 0.45543 0.149 0.85522 0.0
H1609 H 0.43973 0.13519 0.85334 0.0
H1610 H 0.46174 0.10821 0.86603 0.0
H1611 H 0.47747 0.1219 0.86786 0.0
H1612 H 0.43833 0.11509 0.84057 0.0
H1613 H 0.43381 0.10534 0.88697 0.0
H1614 H 0.44187 0.1175 0.88167 0.0
H1615 H 0.44807 0.10337 0.88154 0.0
C1616 C 0.45697 0.14012 0.85754 0.0
C1617 C 0.46772 0.13661 0.86179 0.0
C1618 C 0.44795 0.13224 0.85652 0.0
C1619 C 0.44947 0.12069 0.85976 0.0
C1620 C 0.46025 0.11712 0.86376 0.0
H1621 H 0.40629 0.0596 0.8594 0.0
H1622 H 0.42196 0.07344 0.86135 0.0
C1623 C 0.46925 0.12498 0.8648 0.0
C1624 C 0.43985 0.11235 0.85877 0.0
H1625 H 0.4233 0.09357 0.87423 0.0
C1626 C 0.435 0.11043 0.84794 0.0
C1627 C 0.43551 0.10623 0.86838 0.0
C1628 C 0.44 0.10827 0.88032 0.0
C1629 C 0.42611 0.10243 0.84643 0.0
C1630 C 0.42179 0.09631 0.85604 0.0
C1631 C 0.42663 0.09823 0.86687 0.0
C1632 C 0.41218 0.08795 0.85504 0.0
C1633 C 0.42162 0.1004 0.83449 0.0
C1634 C 0.40138 0.09153 0.85107 0.0
C1635 C 0.39239 0.08366 0.84999 0.0
C1636 C 0.39396 0.072 0.85292 0.0
C1637 C 0.40473 0.0685 0.85714 0.0
C1638 C 0.41372 0.0764 0.85821 0.0
H1639 H 0.42778 0.10336 0.82783 0.0
H1640 H 0.41978 0.09117 0.83313 0.0
H1641 H 0.41352 0.10527 0.8333 0.0
H1642 H 0.39987 0.10045 0.84885 0.0
H1643 H 0.38417 0.08674 0.84696 0.0
H1644 H 0.90839 0.97852 0.3358 0.0
H1645 H 0.92351 0.96406 0.33761 0.0
H1646 H 0.90797 0.95132 0.36874 0.0
H1647 H 0.89262 0.96555 0.36682 0.0
H1648 H 0.93933 0.96024 0.35512 0.0
H1649 H 0.91127 0.92224 0.34964 0.0
H1650 H 0.9066 0.93663 0.34622 0.0
H1651 H 0.90685 0.93172 0.36086 0.0
C1652 C 0.90811 0.97258 0.34299 0.0
C1653 C 0.8992 0.97317 0.35112 0.0
C1654 C 0.91682 0.96436 0.34404 0.0
C1655 C 0.91679 0.95646 0.3532 0.0
C1656 C 0.90807 0.95717 0.36147 0.0
H1657 H 0.96154 0.90032 0.37423 0.0
H1658 H 0.94644 0.91482 0.37245 0.0
C1659 C 0.89936 0.96541 0.36044 0.0
C1660 C 0.92596 0.94757 0.35412 0.0
H1661 H 0.93058 0.91858 0.35489 0.0
C1662 C 0.93742 0.95113 0.35502 0.0
C1663 C 0.92348 0.93568 0.35399 0.0
C1664 C 0.9114 0.9313 0.35252 0.0
C1665 C 0.94643 0.94314 0.35602 0.0
C1666 C 0.94395 0.93125 0.35589 0.0
C1667 C 0.93249 0.92769 0.35499 0.0
C1668 C 0.95311 0.92236 0.35681 0.0
C1669 C 0.95851 0.94751 0.35747 0.0
C1670 C 0.96181 0.92162 0.34851 0.0
C1671 C 0.9705 0.91335 0.34952 0.0
C1672 C 0.97067 0.90561 0.35886 0.0
C1673 C 0.9618 0.90625 0.36703 0.0
C1674 C 0.95311 0.91449 0.36599 0.0
H1675 H 0.95865 0.95659 0.36032 0.0
H1676 H 0.96331 0.9422 0.3638 0.0
H1677 H 0.96306 0.94705 0.34914 0.0
H1678 H 0.96188 0.92744 0.34123 0.0
H1679 H 0.9772 0.91318 0.34311 0.0
H1680 H 0.6764 0.07908 0.14975 0.0
H1681 H 0.67736 0.09509 0.13604 0.0
H1682 H 0.68792 0.07181 0.10953 0.0
H1683 H 0.68701 0.05578 0.12316 0.0
H1684 H 0.69548 0.10349 0.12306 0.0
H1685 H 0.66074 0.08805 0.09466 0.0
H1686 H 0.6632 0.08208 0.10877 0.0
H1687 H 0.67205 0.07782 0.09692 0.0
C1688 C 0.67902 0.07737 0.14103 0.0
C1689 C 0.68155 0.0661 0.13757 0.0
C1690 C 0.67951 0.08653 0.13318 0.0
C1691 C 0.68249 0.08464 0.12168 0.0
C1692 C 0.68529 0.07346 0.11826 0.0
H1693 H 0.69035 0.12871 0.06137 0.0
H1694 H 0.68947 0.11262 0.075 0.0
C1695 C 0.68478 0.06429 0.12609 0.0
C1696 C 0.6828 0.09438 0.11332 0.0
H1697 H 0.67144 0.10409 0.08801 0.0
C1698 C 0.69018 0.10365 0.11543 0.0
C1699 C 0.67591 0.09459 0.10332 0.0
C1700 C 0.66745 0.08516 0.1008 0.0
C1701 C 0.69101 0.11299 0.10775 0.0
C1702 C 0.68411 0.1132 0.09776 0.0
C1703 C 0.67674 0.10393 0.09564 0.0
C1704 C 0.68437 0.12298 0.08944 0.0
C1705 C 0.69948 0.12241 0.11027 0.0
C1706 C 0.68156 0.13414 0.09292 0.0
C1707 C 0.68202 0.14335 0.08514 0.0
C1708 C 0.68523 0.14161 0.07365 0.0
C1709 C 0.68776 0.13037 0.07011 0.0
C1710 C 0.68732 0.12116 0.07792 0.0
H1711 H 0.70621 0.11951 0.11637 0.0
H1712 H 0.70369 0.12553 0.1023 0.0
H1713 H 0.69488 0.12974 0.1142 0.0
H1714 H 0.67895 0.13573 0.10167 0.0
H1715 H 0.67979 0.15184 0.08813 0.0
H1716 H 0.97882 0.19435 0.62492 0.0
H1717 H 0.96293 0.19522 0.61126 0.0
H1718 H 0.94035 0.18039 0.63662 0.0
H1719 H 0.9562 0.17947 0.65033 0.0
H1720 H 0.94995 0.17754 0.60264 0.0
H1721 H 0.92207 0.20816 0.62584 0.0
H1722 H 0.93693 0.20592 0.62956 0.0
H1723 H 0.92618 0.19584 0.63422 0.0
C1724 C 0.97048 0.19126 0.62761 0.0
C1725 C 0.96881 0.18686 0.63876 0.0
C1726 C 0.96138 0.1918 0.61979 0.0
C1727 C 0.95039 0.18802 0.62293 0.0
C1728 C 0.94868 0.18362 0.63406 0.0
H1729 H 0.88506 0.18228 0.58737 0.0
H1730 H 0.90094 0.18138 0.60103 0.0
C1731 C 0.95776 0.1831 0.6419 0.0
C1732 C 0.94084 0.18833 0.61445 0.0
H1733 H 0.91394 0.19904 0.60966 0.0
C1734 C 0.9421 0.18229 0.60415 0.0
C1735 C 0.93057 0.1945 0.61641 0.0
C1736 C 0.92886 0.20157 0.62705 0.0
C1737 C 0.93332 0.18207 0.59589 0.0
C1738 C 0.92305 0.18824 0.59785 0.0
C1739 C 0.92179 0.19429 0.60815 0.0
C1740 C 0.9135 0.18856 0.58936 0.0
C1741 C 0.93503 0.175 0.58525 0.0
C1742 C 0.91522 0.19296 0.57824 0.0
C1743 C 0.90614 0.1935 0.57039 0.0
C1744 C 0.89508 0.18976 0.57353 0.0
C1745 C 0.89341 0.18535 0.58468 0.0
C1746 C 0.9025 0.18479 0.5925 0.0
H1747 H 0.94181 0.1684 0.58647 0.0
H1748 H 0.92696 0.17066 0.58273 0.0
H1749 H 0.93771 0.18072 0.57808 0.0
H1750 H 0.92355 0.19618 0.57568 0.0
H1751 H 0.90771 0.19712 0.56196 0.0
H1752 H 0.8671 0.46332 0.14938 0.0
H1753 H 0.8656 0.44848 0.13474 0.0
H1754 H 0.83833 0.4674 0.11831 0.0
H1755 H 0.83997 0.48244 0.13274 0.0
H1756 H 0.84682 0.43469 0.12837 0.0
H1757 H 0.86133 0.46235 0.09215 0.0
H1758 H 0.86317 0.46637 0.10694 0.0
H1759 H 0.84942 0.46789 0.10016 0.0
C1760 C 0.86083 0.46438 0.14261 0.0
C1761 C 0.85372 0.47415 0.14221 0.0
C1762 C 0.85993 0.45584 0.13428 0.0
C1763 C 0.85198 0.4569 0.12531 0.0
C1764 C 0.84467 0.46649 0.12503 0.0
H1765 H 0.83926 0.41477 0.06486 0.0
H1766 H 0.83804 0.42914 0.08003 0.0
C1767 C 0.84554 0.47503 0.13338 0.0
C1768 C 0.85139 0.44797 0.11627 0.0
H1769 H 0.85525 0.44361 0.08758 0.0
C1770 C 0.84866 0.43664 0.11945 0.0
C1771 C 0.85377 0.45051 0.10462 0.0
C1772 C 0.85718 0.46241 0.10073 0.0
C1773 C 0.84817 0.42782 0.1113 0.0
C1774 C 0.85069 0.43032 0.09967 0.0
C1775 C 0.85329 0.44168 0.09647 0.0
C1776 C 0.85102 0.42126 0.09074 0.0
C1777 C 0.84478 0.41592 0.1152 0.0
C1778 C 0.85874 0.41204 0.09167 0.0
C1779 C 0.85942 0.40379 0.08304 0.0
C1780 C 0.85244 0.40458 0.07322 0.0
C1781 C 0.84465 0.41378 0.07236 0.0
C1782 C 0.844 0.42206 0.08099 0.0
H1783 H 0.83997 0.4161 0.12342 0.0
H1784 H 0.83942 0.41161 0.10867 0.0
H1785 H 0.85262 0.41069 0.11657 0.0
H1786 H 0.86441 0.41133 0.09899 0.0
H1787 H 0.86545 0.39678 0.08406 0.0
H1788 H 0.57577 0.36167 0.65365 0.0
H1789 H 0.58992 0.36292 0.6382 0.0
H1790 H 0.56735 0.34396 0.61609 0.0
H1791 H 0.55313 0.34273 0.63148 0.0
H1792 H 0.60118 0.34584 0.62714 0.0
H1793 H 0.57556 0.37097 0.59574 0.0
H1794 H 0.57134 0.36936 0.61055 0.0
H1795 H 0.56861 0.35805 0.60051 0.0
C1796 C 0.5738 0.35778 0.6455 0.0
C1797 C 0.56327 0.35214 0.64381 0.0
C1798 C 0.58189 0.35853 0.63665 0.0
C1799 C 0.57966 0.35369 0.62589 0.0
C1800 C 0.56917 0.34803 0.62419 0.0
H1801 H 0.61999 0.34668 0.56322 0.0
H1802 H 0.60557 0.345 0.57843 0.0
C1803 C 0.56104 0.34732 0.63302 0.0
C1804 C 0.58848 0.35424 0.61663 0.0
H1805 H 0.59313 0.36319 0.58901 0.0
C1806 C 0.59943 0.34969 0.61882 0.0
C1807 C 0.58621 0.35923 0.60575 0.0
C1808 C 0.57483 0.36478 0.603 0.0
C1809 C 0.60809 0.34985 0.61042 0.0
C1810 C 0.60581 0.35483 0.59956 0.0
C1811 C 0.59486 0.35934 0.59733 0.0
C1812 C 0.61474 0.35562 0.59045 0.0
C1813 C 0.61956 0.34451 0.61318 0.0
C1814 C 0.62467 0.36219 0.59212 0.0
C1815 C 0.63294 0.36315 0.58345 0.0
C1816 C 0.63146 0.35757 0.5729 0.0
C1817 C 0.6215 0.35096 0.57128 0.0
C1818 C 0.6132 0.35005 0.57994 0.0
H1819 H 0.61903 0.3386 0.62069 0.0
H1820 H 0.62293 0.33968 0.60574 0.0
H1821 H 0.62577 0.35139 0.61524 0.0
H1822 H 0.62598 0.36669 0.60009 0.0
H1823 H 0.64053 0.36824 0.58504 0.0
H1824 H 0.69502 0.48092 0.41707 0.0
H1825 H 0.69672 0.46529 0.43115 0.0
H1826 H 0.66625 0.44958 0.41754 0.0
H1827 H 0.66466 0.46497 0.40325 0.0
H1828 H 0.68097 0.45878 0.44807 0.0
H1829 H 0.68894 0.42287 0.4182 0.0
H1830 H 0.69024 0.43773 0.41388 0.0
H1831 H 0.67635 0.43112 0.4149 0.0
C1832 C 0.68878 0.47405 0.41694 0.0
C1833 C 0.67971 0.47422 0.40898 0.0
C1834 C 0.68972 0.46516 0.42506 0.0
C1835 C 0.6817 0.45617 0.42533 0.0
C1836 C 0.67266 0.4563 0.41739 0.0
H1837 H 0.67097 0.39571 0.46857 0.0
H1838 H 0.66933 0.41137 0.45451 0.0
C1839 C 0.6717 0.46519 0.40929 0.0
C1840 C 0.68255 0.44688 0.43415 0.0
H1841 H 0.68517 0.41782 0.4376 0.0
C1842 C 0.68195 0.44983 0.44579 0.0
C1843 C 0.68379 0.43519 0.43118 0.0
C1844 C 0.68498 0.43151 0.41887 0.0
C1845 C 0.68235 0.44141 0.4545 0.0
C1846 C 0.68358 0.42971 0.45152 0.0
C1847 C 0.68419 0.42677 0.43989 0.0
C1848 C 0.68439 0.42042 0.46034 0.0
C1849 C 0.68117 0.44508 0.46681 0.0
C1850 C 0.69343 0.42025 0.46828 0.0
C1851 C 0.69436 0.41134 0.47637 0.0
C1852 C 0.6863 0.40234 0.47667 0.0
C1853 C 0.67723 0.40256 0.46871 0.0
C1854 C 0.67633 0.41147 0.4606 0.0
H1855 H 0.67725 0.45374 0.46748 0.0
H1856 H 0.67587 0.43889 0.47178 0.0
H1857 H 0.6898 0.44542 0.47079 0.0
H1858 H 0.69987 0.42693 0.46814 0.0
H1859 H 0.7014 0.41151 0.48241 0.0
H1860 H 0.57122 0.20901 0.9022 0.0
H1861 H 0.58522 0.20734 0.91769 0.0
H1862 H 0.57424 0.1726 0.92432 0.0
H1863 H 0.56048 0.17404 0.90855 0.0
H1864 H 0.58205 0.20292 0.94072 0.0
H1865 H 0.60881 0.16882 0.92132 0.0
H1866 H 0.59821 0.17675 0.91323 0.0
H1867 H 0.59391 0.16518 0.92259 0.0
C1868 C 0.57186 0.20094 0.90684 0.0
C1869 C 0.56476 0.19162 0.904 0.0
C1870 C 0.57983 0.20004 0.91576 0.0
C1871 C 0.58095 0.18978 0.92207 0.0
C1872 C 0.57373 0.18053 0.91944 0.0
H1873 H 0.62383 0.16763 0.97902 0.0
H1874 H 0.60984 0.16936 0.96353 0.0
C1875 C 0.56574 0.18142 0.91049 0.0
C1876 C 0.58955 0.18888 0.93148 0.0
H1877 H 0.61309 0.1738 0.94051 0.0
C1878 C 0.58887 0.19659 0.94065 0.0
C1879 C 0.59846 0.18062 0.9314 0.0
C1880 C 0.6 0.17243 0.92156 0.0
C1881 C 0.59668 0.19611 0.94983 0.0
C1882 C 0.60558 0.18784 0.94975 0.0
C1883 C 0.60628 0.18014 0.94058 0.0
C1884 C 0.61417 0.18691 0.95918 0.0
C1885 C 0.59515 0.2043 0.95966 0.0
C1886 C 0.62142 0.19614 0.96183 0.0
C1887 C 0.6294 0.19521 0.97077 0.0
C1888 C 0.63035 0.185 0.97724 0.0
C1889 C 0.62321 0.1757 0.9744 0.0
C1890 C 0.61525 0.17665 0.96547 0.0
H1891 H 0.58635 0.20794 0.95989 0.0
H1892 H 0.59691 0.19997 0.96799 0.0
H1893 H 0.60127 0.21153 0.95865 0.0
H1894 H 0.62093 0.20408 0.95695 0.0
H1895 H 0.6347 0.20257 0.97272 0.0
H1896 H 0.84589 0.12221 0.48678 0.0
H1897 H 0.84559 0.10844 0.47108 0.0
H1898 H 0.85715 0.1348 0.44765 0.0
H1899 H 0.8578 0.14856 0.46338 0.0
H1900 H 0.83355 0.10869 0.45033 0.0
H1901 H 0.88057 0.1091 0.44276 0.0
H1902 H 0.87415 0.11508 0.45545 0.0
H1903 H 0.87382 0.12295 0.44215 0.0
C1904 C 0.84845 0.12508 0.47831 0.0
C1905 C 0.85197 0.1365 0.4764 0.0
C1906 C 0.8482 0.1172 0.46932 0.0
C1907 C 0.85153 0.12052 0.45821 0.0
C1908 C 0.85475 0.13197 0.45619 0.0
H1909 H 0.85938 0.0813 0.39499 0.0
H1910 H 0.85792 0.09668 0.4091 0.0
C1911 C 0.85499 0.13987 0.46518 0.0
C1912 C 0.85165 0.11194 0.4488 0.0
H1913 H 0.86936 0.09825 0.42995 0.0
C1914 C 0.84138 0.10641 0.44587 0.0
C1915 C 0.86187 0.10896 0.44296 0.0
C1916 C 0.87326 0.11424 0.44602 0.0
C1917 C 0.84103 0.09806 0.43723 0.0
C1918 C 0.85126 0.09499 0.43149 0.0
C1919 C 0.86151 0.10061 0.43433 0.0
C1920 C 0.85162 0.08572 0.42277 0.0
C1921 C 0.82966 0.09272 0.43423 0.0
C1922 C 0.8486 0.07441 0.42574 0.0
C1923 C 0.84938 0.06561 0.41768 0.0
C1924 C 0.85326 0.06788 0.40645 0.0
C1925 C 0.85621 0.07925 0.40349 0.0
C1926 C 0.85545 0.08805 0.41157 0.0
H1927 H 0.82235 0.0982 0.43694 0.0
H1928 H 0.82898 0.09122 0.42487 0.0
H1929 H 0.82886 0.08433 0.43871 0.0
H1930 H 0.84582 0.07235 0.43437 0.0
H1931 H 0.84695 0.057 0.42026 0.0
H1932 H 0.97747 0.34762 0.92119 0.0
H1933 H 0.96188 0.34646 0.9352 0.0
H1934 H 0.93954 0.3645 0.91176 0.0
H1935 H 0.95506 0.36563 0.89768 0.0
H1936 H 0.95022 0.36359 0.94577 0.0
H1937 H 0.9198 0.33736 0.92062 0.0
H1938 H 0.93462 0.33913 0.91652 0.0
H1939 H 0.92431 0.35019 0.91331 0.0
C1940 C 0.96923 0.35134 0.919 0.0
C1941 C 0.96752 0.35668 0.90827 0.0
C1942 C 0.96031 0.35064 0.92702 0.0
C1943 C 0.94945 0.35523 0.9245 0.0
C1944 C 0.94773 0.36061 0.91382 0.0
H1945 H 0.88604 0.36226 0.96367 0.0
H1946 H 0.90144 0.3638 0.94944 0.0
C1947 C 0.95663 0.36127 0.90577 0.0
C1948 C 0.94009 0.35473 0.93322 0.0
H1949 H 0.91263 0.34547 0.93782 0.0
C1950 C 0.94203 0.35957 0.94404 0.0
C1951 C 0.92937 0.34951 0.93099 0.0
C1952 C 0.92691 0.34365 0.91977 0.0
C1953 C 0.93351 0.35948 0.95259 0.0
C1954 C 0.9228 0.35429 0.95034 0.0
C1955 C 0.92083 0.34949 0.93952 0.0
C1956 C 0.91358 0.3536 0.95916 0.0
C1957 C 0.93599 0.36514 0.9639 0.0
C1958 C 0.91524 0.34731 0.96934 0.0
C1959 C 0.90647 0.34642 0.9775 0.0
C1960 C 0.8958 0.35181 0.97566 0.0
C1961 C 0.89418 0.35814 0.96546 0.0
C1962 C 0.90295 0.35896 0.95727 0.0
H1963 H 0.94337 0.37113 0.96329 0.0
H1964 H 0.92838 0.36993 0.96701 0.0
H1965 H 0.93812 0.35843 0.97037 0.0
H1966 H 0.9233 0.34295 0.97092 0.0
H1967 H 0.90806 0.34155 0.98528 0.0
H1968 H 0.12593 0.70475 0.0662 0.0
H1969 H 0.11118 0.7036 0.08109 0.0
H1970 H 0.12864 0.67473 0.09649 0.0
H1971 H 0.14361 0.67601 0.08182 0.0
H1972 H 0.09638 0.6856 0.08732 0.0
H1973 H 0.12526 0.69696 0.12331 0.0
H1974 H 0.12926 0.69902 0.10849 0.0
H1975 H 0.12992 0.68497 0.11493 0.0
C1976 C 0.12669 0.6982 0.0728 0.0
C1977 C 0.13604 0.69054 0.07284 0.0
C1978 C 0.1182 0.69751 0.08127 0.0
C1979 C 0.11888 0.6892 0.09003 0.0
C1980 C 0.12803 0.68135 0.08994 0.0
H1981 H 0.07662 0.67679 0.15093 0.0
H1982 H 0.09071 0.67526 0.13544 0.0
C1983 C 0.13652 0.68201 0.08146 0.0
C1984 C 0.11004 0.68884 0.09925 0.0
H1985 H 0.10624 0.69186 0.12814 0.0
C1986 C 0.09854 0.68697 0.09624 0.0
C1987 C 0.11285 0.6906 0.11091 0.0
C1988 C 0.12497 0.6931 0.11464 0.0
C1989 C 0.08979 0.68675 0.10456 0.0
C1990 C 0.09258 0.68865 0.1162 0.0
C1991 C 0.1041 0.69038 0.11923 0.0
C1992 C 0.08366 0.68922 0.12534 0.0
C1993 C 0.07767 0.68431 0.10083 0.0
C1994 C 0.075 0.6976 0.12486 0.0
C1995 C 0.0669 0.69846 0.13368 0.0
C1996 C 0.06729 0.69101 0.14323 0.0
C1997 C 0.07594 0.68257 0.14365 0.0
C1998 C 0.08406 0.68173 0.13483 0.0
H1999 H 0.07744 0.67985 0.09245 0.0
H2000 H 0.07309 0.67896 0.10729 0.0
H2001 H 0.07296 0.69254 0.09984 0.0
H2002 H 0.07461 0.70362 0.11775 0.0
H2003 H 0.06033 0.705 0.13301 0.0
H2004 H 0.08101 0.84108 0.3944 0.0
H2005 H 0.09466 0.84298 0.41014 0.0
H2006 H 0.0714 0.86585 0.42739 0.0
H2007 H 0.0575 0.86366 0.41186 0.0
H2008 H 0.10552 0.86217 0.41842 0.0
H2009 H 0.07856 0.84242 0.45244 0.0
H2010 H 0.07515 0.84129 0.43741 0.0
H2011 H 0.07185 0.85421 0.44506 0.0
C2012 C 0.0787 0.84639 0.4016 0.0
C2013 C 0.06806 0.85212 0.40187 0.0
C2014 C 0.08657 0.84754 0.41057 0.0
C2015 C 0.084 0.8544 0.42007 0.0
C2016 C 0.0735 0.86031 0.42028 0.0
H2017 H 0.12038 0.87235 0.4824 0.0
H2018 H 0.10676 0.87041 0.46664 0.0
C2019 C 0.0656 0.85916 0.41131 0.0
C2020 C 0.09242 0.85549 0.42961 0.0
H2021 H 0.0959 0.85113 0.45843 0.0
C2022 C 0.10343 0.85971 0.42716 0.0
C2023 C 0.0897 0.85228 0.44103 0.0
C2024 C 0.07822 0.8472 0.44416 0.0
C2025 C 0.11172 0.86102 0.43581 0.0
C2026 C 0.109 0.85782 0.44723 0.0
C2027 C 0.09799 0.85359 0.44968 0.0
C2028 C 0.1174 0.85893 0.45678 0.0
C2029 C 0.12321 0.86609 0.43268 0.0
C2030 C 0.1279 0.853 0.4566 0.0
C2031 C 0.13578 0.85416 0.46559 0.0
C2032 C 0.13332 0.86124 0.475 0.0
C2033 C 0.12269 0.867 0.47522 0.0
C2034 C 0.11483 0.86583 0.46624 0.0
H2035 H 0.12288 0.87084 0.42439 0.0
H2036 H 0.12626 0.87202 0.43942 0.0
H2037 H 0.12958 0.85907 0.43183 0.0
H2038 H 0.12999 0.84743 0.44952 0.0
H2039 H 0.14387 0.84964 0.46507 0.0
H2040 H 0.19387 0.62823 0.98258 0.0
H2041 H 0.19564 0.61405 0.9673 0.0
H2042 H 0.16669 0.62922 0.9499 0.0
H2043 H 0.16506 0.6436 0.96495 0.0
H2044 H 0.17945 0.59793 0.96032 0.0
H2045 H 0.19051 0.62733 0.92435 0.0
H2046 H 0.1913 0.63163 0.93916 0.0
H2047 H 0.17771 0.63128 0.93191 0.0
C2048 C 0.188 0.62868 0.97541 0.0
C2049 C 0.17934 0.63711 0.97501 0.0
C2050 C 0.18897 0.62051 0.96671 0.0
C2051 C 0.18139 0.62064 0.95736 0.0
C2052 C 0.17277 0.62905 0.95691 0.0
H2053 H 0.17113 0.57777 0.89739 0.0
H2054 H 0.16956 0.59196 0.91268 0.0
C2055 C 0.17177 0.6372 0.96561 0.0
C2056 C 0.18224 0.61175 0.94828 0.0
H2057 H 0.18599 0.60811 0.91947 0.0
C2058 C 0.18095 0.60015 0.9514 0.0
C2059 C 0.18416 0.61464 0.93662 0.0
C2060 C 0.18611 0.62688 0.93279 0.0
C2061 C 0.1813 0.5914 0.94317 0.0
C2062 C 0.18319 0.59429 0.93151 0.0
C2063 C 0.1845 0.60589 0.92839 0.0
C2064 C 0.18396 0.58541 0.92242 0.0
C2065 C 0.17937 0.57915 0.947 0.0
C2066 C 0.1926 0.57702 0.92276 0.0
C2067 C 0.19349 0.56886 0.91406 0.0
C2068 C 0.18578 0.56892 0.90477 0.0
C2069 C 0.17711 0.57734 0.90448 0.0
C2070 C 0.17625 0.58552 0.91317 0.0
H2071 H 0.17508 0.57868 0.95549 0.0
H2072 H 0.17408 0.57444 0.94068 0.0
H2073 H 0.18777 0.57473 0.94775 0.0
H2074 H 0.19876 0.57685 0.92969 0.0
H2075 H 0.20021 0.56247 0.91462 0.0
H2076 H 0.41424 0.69176 0.48771 0.0
H2077 H 0.42818 0.69308 0.47207 0.0
H2078 H 0.40205 0.68324 0.44797 0.0
H2079 H 0.38806 0.68188 0.46356 0.0
H2080 H 0.43553 0.67621 0.45736 0.0
H2081 H 0.41533 0.71175 0.43271 0.0
H2082 H 0.41121 0.70824 0.44723 0.0
H2083 H 0.4059 0.69988 0.43549 0.0
C2084 C 0.41145 0.68987 0.47908 0.0
C2085 C 0.39999 0.68674 0.47692 0.0
C2086 C 0.41943 0.69066 0.47014 0.0
C2087 C 0.41615 0.68842 0.4588 0.0
C2088 C 0.40474 0.68529 0.45659 0.0
H2089 H 0.45197 0.68645 0.39336 0.0
H2090 H 0.43809 0.68514 0.40904 0.0
C2091 C 0.39674 0.68451 0.46553 0.0
C2092 C 0.42478 0.68899 0.44936 0.0
H2093 H 0.43079 0.70208 0.42372 0.0
C2094 C 0.43452 0.68192 0.45003 0.0
C2095 C 0.42347 0.69641 0.43978 0.0
C2096 C 0.41347 0.70458 0.43877 0.0
C2097 C 0.44285 0.68189 0.44131 0.0
C2098 C 0.44154 0.6893 0.43171 0.0
C2099 C 0.4318 0.69638 0.43105 0.0
C2100 C 0.45014 0.68986 0.42226 0.0
C2101 C 0.45285 0.67372 0.44232 0.0
C2102 C 0.46156 0.69301 0.42443 0.0
C2103 C 0.46953 0.69378 0.41546 0.0
C2104 C 0.46625 0.69152 0.40409 0.0
C2105 C 0.45479 0.68837 0.40197 0.0
C2106 C 0.44684 0.68758 0.41094 0.0
H2107 H 0.45102 0.66657 0.4484 0.0
H2108 H 0.45509 0.67004 0.43386 0.0
H2109 H 0.46043 0.67844 0.44556 0.0
H2110 H 0.46427 0.69507 0.43304 0.0
H2111 H 0.47821 0.69643 0.4174 0.0
H2112 H 0.33831 0.96541 0.89775 0.0
H2113 H 0.33649 0.94993 0.91196 0.0
H2114 H 0.36501 0.96377 0.9308 0.0
H2115 H 0.36658 0.97951 0.91695 0.0
H2116 H 0.35193 0.93331 0.91813 0.0
H2117 H 0.34146 0.95979 0.95594 0.0
H2118 H 0.34104 0.96545 0.94151 0.0
H2119 H 0.35448 0.96408 0.94894 0.0
C2120 C 0.34408 0.96528 0.90501 0.0
C2121 C 0.35258 0.97378 0.90618 0.0
C2122 C 0.34308 0.95636 0.9131 0.0
C2123 C 0.35049 0.95576 0.92257 0.0
C2124 C 0.35902 0.96416 0.92371 0.0
H2125 H 0.36138 0.90684 0.9785 0.0
H2126 H 0.36259 0.92274 0.96469 0.0
C2127 C 0.36002 0.97309 0.91567 0.0
C2128 C 0.34953 0.94616 0.93106 0.0
H2129 H 0.34601 0.94018 0.95961 0.0
C2130 C 0.35055 0.93482 0.92718 0.0
C2131 C 0.34776 0.9481 0.94291 0.0
C2132 C 0.34601 0.96001 0.94758 0.0
C2133 C 0.35008 0.92542 0.93482 0.0
C2134 C 0.34839 0.92737 0.94666 0.0
C2135 C 0.34735 0.93869 0.95055 0.0
C2136 C 0.34756 0.91776 0.95512 0.0
C2137 C 0.35164 0.91347 0.93018 0.0
C2138 C 0.33859 0.90977 0.95446 0.0
C2139 C 0.33781 0.90072 0.9624 0.0
C2140 C 0.34598 0.89944 0.97121 0.0
C2141 C 0.35487 0.90757 0.97193 0.0
C2142 C 0.35562 0.91665 0.96399 0.0
H2143 H 0.35561 0.91359 0.92152 0.0
H2144 H 0.35707 0.90819 0.93601 0.0
H2145 H 0.34314 0.90926 0.92951 0.0
H2146 H 0.33212 0.91059 0.94785 0.0
H2147 H 0.33069 0.89481 0.9617 0.0
H2148 H 0.47258 0.86641 0.1354 0.0
H2149 H 0.45878 0.86771 0.11962 0.0
H2150 H 0.44356 0.83573 0.1305 0.0
H2151 H 0.45736 0.83428 0.14618 0.0
H2152 H 0.45466 0.85243 0.10153 0.0
H2153 H 0.41588 0.85734 0.12864 0.0
H2154 H 0.43021 0.85916 0.13416 0.0
H2155 H 0.42448 0.84501 0.13215 0.0
C2156 C 0.46635 0.85961 0.13441 0.0
C2157 C 0.46606 0.85029 0.14217 0.0
C2158 C 0.45843 0.8604 0.1254 0.0
C2159 C 0.44999 0.85193 0.12399 0.0
C2160 C 0.4498 0.84252 0.13158 0.0
H2161 H 0.39476 0.84054 0.075 0.0
H2162 H 0.40862 0.83918 0.09072 0.0
C2163 C 0.45771 0.84171 0.14056 0.0
C2164 C 0.44151 0.85282 0.11447 0.0
H2165 H 0.41279 0.85443 0.10877 0.0
C2166 C 0.44551 0.85293 0.10311 0.0
C2167 C 0.42956 0.85343 0.11653 0.0
C2168 C 0.42475 0.85384 0.12852 0.0
C2169 C 0.43789 0.85343 0.09378 0.0
C2170 C 0.42593 0.85404 0.09583 0.0
C2171 C 0.42194 0.85393 0.10719 0.0
C2172 C 0.41745 0.85494 0.08632 0.0
C2173 C 0.4427 0.85302 0.08178 0.0
C2174 C 0.41764 0.86435 0.07873 0.0
C2175 C 0.40969 0.86519 0.06978 0.0
C2176 C 0.4013 0.85665 0.06821 0.0
C2177 C 0.40102 0.84732 0.07597 0.0
C2178 C 0.40898 0.8465 0.08494 0.0
H2179 H 0.45155 0.84951 0.08167 0.0
H2180 H 0.43722 0.84771 0.07614 0.0
H2181 H 0.44298 0.86185 0.07815 0.0
H2182 H 0.4239 0.87112 0.07979 0.0
H2183 H 0.41004 0.87263 0.06417 0.0
H2184 H 0.16756 0.98421 0.62533 0.0
H2185 H 0.16943 0.9687 0.6115 0.0
H2186 H 0.19206 0.95058 0.63459 0.0
H2187 H 0.18991 0.96587 0.64868 0.0
H2188 H 0.18856 0.96029 0.60056 0.0
H2189 H 0.1685 0.92605 0.62712 0.0
H2190 H 0.16748 0.94105 0.6307 0.0
H2191 H 0.18032 0.9331 0.63392 0.0
C2192 C 0.17282 0.97686 0.62757 0.0
C2193 C 0.17849 0.97628 0.63822 0.0
C2194 C 0.17395 0.96803 0.61959 0.0
C2195 C 0.18073 0.95836 0.62205 0.0
C2196 C 0.18659 0.95783 0.63257 0.0
H2197 H 0.19818 0.8963 0.58501 0.0
H2198 H 0.1964 0.91189 0.59877 0.0
C2199 C 0.18546 0.96667 0.64057 0.0
C2200 C 0.18176 0.94894 0.61354 0.0
H2201 H 0.17719 0.92024 0.60973 0.0
C2202 C 0.18603 0.95154 0.60255 0.0
C2203 C 0.17846 0.93751 0.61612 0.0
C2204 C 0.17333 0.93424 0.62756 0.0
C2205 C 0.18728 0.94302 0.59417 0.0
C2206 C 0.18399 0.93159 0.59676 0.0
C2207 C 0.17972 0.92899 0.60774 0.0
C2208 C 0.18503 0.92217 0.58825 0.0
C2209 C 0.19239 0.94628 0.58272 0.0
C2210 C 0.1791 0.92264 0.57777 0.0
C2211 C 0.18017 0.91376 0.56981 0.0
C2212 C 0.18715 0.90416 0.57217 0.0
C2213 C 0.19291 0.90364 0.58277 0.0
C2214 C 0.19183 0.91252 0.59071 0.0
H2215 H 0.19719 0.9545 0.58314 0.0
H2216 H 0.19827 0.93949 0.57959 0.0
H2217 H 0.18539 0.94737 0.57636 0.0
H2218 H 0.17361 0.92988 0.57576 0.0
H2219 H 0.17565 0.9145 0.56174 0.0
H2220 H 0.33453 0.56375 0.63293 0.0
H2221 H 0.33301 0.57913 0.61856 0.0
H2222 H 0.36509 0.59323 0.63012 0.0
H2223 H 0.36666 0.57794 0.64451 0.0
H2224 H 0.33234 0.60284 0.62097 0.0
H2225 H 0.37056 0.59005 0.5958 0.0
H2226 H 0.36414 0.58078 0.60648 0.0
H2227 H 0.37343 0.59229 0.61072 0.0
C2228 C 0.34122 0.57017 0.63249 0.0
C2229 C 0.35077 0.56952 0.63985 0.0
C2230 C 0.34037 0.57893 0.62422 0.0
C2231 C 0.34905 0.58722 0.62309 0.0
C2232 C 0.35843 0.58677 0.6306 0.0
H2233 H 0.3598 0.64708 0.57904 0.0
H2234 H 0.36131 0.63165 0.59336 0.0
C2235 C 0.35931 0.57801 0.63885 0.0
C2236 C 0.34822 0.5964 0.61415 0.0
H2237 H 0.362 0.6079 0.59086 0.0
C2238 C 0.33879 0.60391 0.61435 0.0
C2239 C 0.35665 0.59783 0.60551 0.0
C2240 C 0.36672 0.58975 0.60451 0.0
C2241 C 0.33768 0.61291 0.6063 0.0
C2242 C 0.34612 0.61434 0.59767 0.0
C2243 C 0.35555 0.60683 0.59747 0.0
C2244 C 0.34531 0.62354 0.58876 0.0
C2245 C 0.32762 0.62098 0.6073 0.0
C2246 C 0.33594 0.62399 0.58121 0.0
C2247 C 0.33507 0.63277 0.57299 0.0
C2248 C 0.3436 0.64129 0.57205 0.0
C2249 C 0.35312 0.64064 0.57943 0.0
C2250 C 0.35397 0.63185 0.58768 0.0
H2251 H 0.32374 0.62066 0.616 0.0
H2252 H 0.3302 0.62996 0.60537 0.0
H2253 H 0.32093 0.61846 0.60105 0.0
H2254 H 0.3293 0.61752 0.58165 0.0
H2255 H 0.32774 0.63284 0.5673 0.0
loop_
_geom_bond_atom_site_label_1
_geom_bond_atom_site_label_2
_geom_bond_distance
_geom_bond_site_symmetry_2
_ccdc_geom_bond_type
C0 C1 1.259 . S
C0 C5 1.483 1_455 S
C0 C10 1.466 1_455 S
C1 C0 1.259 . S
C1 C3 1.339 . S
C1 H28 0.931 . S
C2 C3 1.395 . S
C2 C4 1.320 1_455 S
C3 C1 1.339 . S
C3 C2 1.395 . S
C3 H29 0.929 . S
C4 C2 1.320 1_655 S
C4 C5 1.405 . S
C4 H30 0.930 . S
C5 C0 1.483 1_655 S
C5 C4 1.405 . S
C5 H31 0.931 . S
U6 O7 2.454 . S
U6 O8 2.458 . S
U6 C9 2.984 . S
U6 C10 2.847 . S
U6 C23 2.882 1_655 S
U6 O24 2.441 . S
U6 O25 2.420 1_655 S
U6 O26 2.455 1_655 S
U6 O27 2.449 1_655 S
O7 U6 2.454 . S
O7 C9 1.353 . S
O8 U6 2.458 . S
O8 C9 1.286 . S
C9 U6 2.984 . S
C9 O7 1.353 . S
C9 O8 1.286 . S
C9 C11 1.363 . S
C10 C0 1.466 1_655 S
C10 U6 2.847 . S
C10 O24 1.249 . S
C10 O25 1.202 1_655 S
C11 C9 1.363 . S
C11 C13 1.408 . S
C11 C16 1.342 . S
C12 C13 1.310 . S
C12 C15 1.461 . S
C12 H32 0.932 . S
C13 C11 1.408 . S
C13 C12 1.310 . S
C13 H33 0.930 . S
C14 C15 1.474 . S
C14 C16 1.285 . S
C14 H34 0.929 . S
C15 C12 1.461 . S
C15 C14 1.474 . S
C16 C11 1.342 . S
C16 C14 1.285 . S
C16 H35 0.930 . S
C17 C20 1.424 . S
C17 C22 1.245 . S
C17 C23 1.428 . S
C18 C21 1.260 . S
C18 C22 1.477 . S
C18 H36 0.932 . S
C19 C20 1.384 . S
C19 C21 1.479 . S
C19 H37 0.929 . S
C20 C17 1.424 . S
C20 C19 1.384 . S
C20 H38 0.928 . S
C21 C18 1.260 . S
C21 C19 1.479 . S
C22 C17 1.245 . S
C22 C18 1.477 . S
C22 H39 0.932 . S
C23 U6 2.882 1_455 S
C23 C17 1.428 . S
C23 O26 1.301 . S
C23 O27 1.282 . S
O24 U6 2.441 . S
O24 C10 1.249 . S
O25 U6 2.420 1_455 S
O25 C10 1.202 1_455 S
O26 U6 2.455 1_455 S
O26 C23 1.301 . S
O27 U6 2.449 1_455 S
O27 C23 1.282 . S
H28 C1 0.931 . S
H29 C3 0.929 . S
H30 C4 0.930 . S
H31 C5 0.931 . S
H32 C12 0.932 . S
H33 C13 0.930 . S
H34 C14 0.929 . S
H35 C16 0.930 . S
H36 C18 0.932 . S
H37 C19 0.929 . S
H38 C20 0.928 . S
H39 C22 0.932 . S
C40 C41 1.264 . S
C40 C45 1.479 . S
C40 C50 1.465 . S
C41 C40 1.264 . S
C41 C43 1.339 . S
C41 H68 0.931 . S
C42 C43 1.395 . S
C42 C44 1.320 . S
C43 C41 1.339 . S
C43 C42 1.395 . S
C43 H69 0.929 . S
C44 C42 1.320 . S
C44 C45 1.405 . S
C44 H70 0.930 . S
C45 C40 1.479 . S
C45 C44 1.405 . S
C45 H71 0.931 . S
U46 O47 2.454 . S
U46 O48 2.458 . S
U46 C49 2.984 . S
U46 C50 2.847 . S
U46 C63 2.882 . S
U46 O64 2.441 . S
U46 O65 2.420 . S
U46 O66 2.455 . S
U46 O67 2.449 . S
O47 U46 2.454 . S
O47 C49 1.353 . S
O48 U46 2.458 . S
O48 C49 1.286 . S
C49 U46 2.984 . S
C49 O47 1.353 . S
C49 O48 1.286 . S
C49 C51 1.363 . S
C50 C40 1.465 . S
C50 U46 2.847 . S
C50 O64 1.249 . S
C50 O65 1.202 . S
C51 C49 1.363 . S
C51 C53 1.408 . S
C51 C56 1.342 . S
C52 C53 1.310 . S
C52 C55 1.461 . S
C52 H72 0.932 . S
C53 C51 1.408 . S
C53 C52 1.310 . S
C53 H73 0.930 . S
C54 C55 1.474 . S
C54 C56 1.285 . S
C54 H74 0.929 . S
C55 C52 1.461 . S
C55 C54 1.474 . S
C56 C51 1.342 . S
C56 C54 1.285 . S
C56 H75 0.930 . S
C57 C60 1.424 . S
C57 C62 1.245 . S
C57 C63 1.428 . S
C58 C61 1.260 . S
C58 C62 1.477 . S
C58 H76 0.932 . S
C59 C60 1.384 . S
C59 C61 1.479 . S
C59 H77 0.929 . S
C60 C57 1.424 . S
C60 C59 1.384 . S
C60 H78 0.928 . S
C61 C58 1.260 . S
C61 C59 1.479 . S
C62 C57 1.245 . S
C62 C58 1.477 . S
C62 H79 0.932 . S
C63 U46 2.882 . S
C63 C57 1.428 . S
C63 O66 1.301 . S
C63 O67 1.282 . S
O64 U46 2.441 . S
O64 C50 1.249 . S
O65 U46 2.420 . S
O65 C50 1.202 . S
O66 U46 2.455 . S
O66 C63 1.301 . S
O67 U46 2.449 . S
O67 C63 1.282 . S
H68 C41 0.931 . S
H69 C43 0.929 . S
H70 C44 0.930 . S
H71 C45 0.931 . S
H72 C52 0.932 . S
H73 C53 0.930 . S
H74 C54 0.929 . S
H75 C56 0.930 . S
H76 C58 0.932 . S
H77 C59 0.929 . S
H78 C60 0.928 . S
H79 C62 0.932 . S
C80 C81 1.264 . S
C80 C85 1.479 . S
C80 C90 1.465 . S
C81 C80 1.264 . S
C81 C83 1.339 . S
C81 H108 0.931 . S
C82 C83 1.395 . S
C82 C84 1.320 . S
C83 C81 1.339 . S
C83 C82 1.395 . S
C83 H109 0.929 . S
C84 C82 1.320 . S
C84 C85 1.405 . S
C84 H110 0.930 . S
C85 C80 1.479 . S
C85 C84 1.405 . S
C85 H111 0.931 . S
U86 O87 2.454 . S
U86 O88 2.458 . S
U86 C89 2.984 . S
U86 C90 2.847 . S
U86 C103 2.882 . S
U86 O104 2.441 . S
U86 O105 2.420 . S
U86 O106 2.455 . S
U86 O107 2.449 . S
O87 U86 2.454 . S
O87 C89 1.353 . S
O88 U86 2.458 . S
O88 C89 1.286 . S
C89 U86 2.984 . S
C89 O87 1.353 . S
C89 O88 1.286 . S
C89 C91 1.363 . S
C90 C80 1.465 . S
C90 U86 2.847 . S
C90 O104 1.249 . S
C90 O105 1.202 . S
C91 C89 1.363 . S
C91 C93 1.408 . S
C91 C96 1.342 . S
C92 C93 1.310 . S
C92 C95 1.461 . S
C92 H112 0.932 . S
C93 C91 1.408 . S
C93 C92 1.310 . S
C93 H113 0.930 . S
C94 C95 1.474 . S
C94 C96 1.285 . S
C94 H114 0.929 . S
C95 C92 1.461 . S
C95 C94 1.474 . S
C96 C91 1.342 . S
C96 C94 1.285 . S
C96 H115 0.930 . S
C97 C100 1.424 . S
C97 C102 1.245 . S
C97 C103 1.428 . S
C98 C101 1.260 . S
C98 C102 1.477 . S
C98 H116 0.932 . S
C99 C100 1.384 . S
C99 C101 1.479 . S
C99 H117 0.929 . S
C100 C97 1.424 . S
C100 C99 1.384 . S
C100 H118 0.928 . S
C101 C98 1.260 . S
C101 C99 1.479 . S
C102 C97 1.245 . S
C102 C98 1.477 . S
C102 H119 0.932 . S
C103 U86 2.882 . S
C103 C97 1.428 . S
C103 O106 1.301 . S
C103 O107 1.282 . S
O104 U86 2.441 . S
O104 C90 1.249 . S
O105 U86 2.420 . S
O105 C90 1.202 . S
O106 U86 2.455 . S
O106 C103 1.301 . S
O107 U86 2.449 . S
O107 C103 1.282 . S
H108 C81 0.931 . S
H109 C83 0.929 . S
H110 C84 0.930 . S
H111 C85 0.931 . S
H112 C92 0.932 . S
H113 C93 0.930 . S
H114 C94 0.929 . S
H115 C96 0.930 . S
H116 C98 0.932 . S
H117 C99 0.929 . S
H118 C100 0.928 . S
H119 C102 0.932 . S
C120 C121 1.264 . S
C120 C125 1.479 . S
C120 C130 1.465 . S
C121 C120 1.264 . S
C121 C123 1.339 . S
C121 H148 0.931 . S
C122 C123 1.395 . S
C122 C124 1.320 . S
C123 C121 1.339 . S
C123 C122 1.395 . S
C123 H149 0.929 . S
C124 C122 1.320 . S
C124 C125 1.405 . S
C124 H150 0.930 . S
C125 C120 1.479 . S
C125 C124 1.405 . S
C125 H151 0.931 . S
U126 O127 2.454 1_545 S
U126 O128 2.458 1_545 S
U126 C129 2.984 1_545 S
U126 C130 2.847 . S
U126 C143 2.882 . S
U126 O144 2.441 . S
U126 O145 2.420 . S
U126 O146 2.455 1_545 S
U126 O147 2.449 . S
O127 U126 2.454 1_565 S
O127 C129 1.353 . S
O128 U126 2.458 1_565 S
O128 C129 1.286 . S
C129 U126 2.984 1_565 S
C129 O127 1.353 . S
C129 O128 1.286 . S
C129 C131 1.363 . S
C130 C120 1.465 . S
C130 U126 2.847 . S
C130 O144 1.249 . S
C130 O145 1.202 . S
C131 C129 1.363 . S
C131 C133 1.408 . S
C131 C136 1.342 . S
C132 C133 1.310 . S
C132 C135 1.461 . S
C132 H152 0.932 . S
C133 C131 1.408 . S
C133 C132 1.310 . S
C133 H153 0.930 . S
C134 C135 1.474 . S
C134 C136 1.285 . S
C134 H154 0.929 . S
C135 C132 1.461 . S
C135 C134 1.474 . S
C136 C131 1.342 . S
C136 C134 1.285 . S
C136 H155 0.930 . S
C137 C140 1.424 . S
C137 C142 1.245 1_545 S
C137 C143 1.428 . S
C138 C141 1.260 1_565 S
C138 C142 1.477 . S
C138 H156 0.932 . S
C139 C140 1.384 . S
C139 C141 1.479 . S
C139 H157 0.929 . S
C140 C137 1.424 . S
C140 C139 1.384 . S
C140 H158 0.928 . S
C141 C138 1.260 1_545 S
C141 C139 1.479 . S
C142 C137 1.245 1_565 S
C142 C138 1.477 . S
C142 H159 0.932 . S
C143 U126 2.882 . S
C143 C137 1.428 . S
C143 O146 1.301 1_545 S
C143 O147 1.282 . S
O144 U126 2.441 . S
O144 C130 1.249 . S
O145 U126 2.420 . S
O145 C130 1.202 . S
O146 U126 2.455 1_565 S
O146 C143 1.301 1_565 S
O147 U126 2.449 . S
O147 C143 1.282 . S
H148 C121 0.931 . S
H149 C123 0.929 . S
H150 C124 0.930 . S
H151 C125 0.931 . S
H152 C132 0.932 . S
H153 C133 0.930 . S
H154 C134 0.929 . S
H155 C136 0.930 . S
H156 C138 0.932 . S
H157 C139 0.929 . S
H158 C140 0.928 . S
H159 C142 0.932 . S
C160 C161 1.265 . S
C160 C165 1.478 1_455 S
C160 C170 1.464 1_455 S
C161 C160 1.265 . S
C161 C163 1.339 . S
C161 H188 0.931 . S
C162 C163 1.395 . S
C162 C164 1.320 1_455 S
C163 C161 1.339 . S
C163 C162 1.395 . S
C163 H189 0.929 . S
C164 C162 1.320 1_655 S
C164 C165 1.405 . S
C164 H190 0.930 . S
C165 C160 1.478 1_655 S
C165 C164 1.405 . S
C165 H191 0.931 . S
U166 O167 2.454 . S
U166 O168 2.458 . S
U166 C169 2.984 . S
U166 C170 2.847 . S
U166 C183 2.882 1_655 S
U166 O184 2.441 . S
U166 O185 2.420 1_655 S
U166 O186 2.455 1_655 S
U166 O187 2.449 1_655 S
O167 U166 2.454 . S
O167 C169 1.353 . S
O168 U166 2.458 . S
O168 C169 1.286 . S
C169 U166 2.984 . S
C169 O167 1.353 . S
C169 O168 1.286 . S
C169 C171 1.363 . S
C170 C160 1.464 1_655 S
C170 U166 2.847 . S
C170 O184 1.249 . S
C170 O185 1.202 1_655 S
C171 C169 1.363 . S
C171 C173 1.408 . S
C171 C176 1.342 . S
C172 C173 1.310 . S
C172 C175 1.461 . S
C172 H192 0.932 . S
C173 C171 1.408 . S
C173 C172 1.310 . S
C173 H193 0.930 . S
C174 C175 1.474 . S
C174 C176 1.285 . S
C174 H194 0.929 . S
C175 C172 1.461 . S
C175 C174 1.474 . S
C176 C171 1.342 . S
C176 C174 1.285 . S
C176 H195 0.930 . S
C177 C180 1.424 . S
C177 C182 1.245 . S
C177 C183 1.428 . S
C178 C181 1.260 . S
C178 C182 1.477 . S
C178 H196 0.932 . S
C179 C180 1.384 . S
C179 C181 1.479 . S
C179 H197 0.929 . S
C180 C177 1.424 . S
C180 C179 1.384 . S
C180 H198 0.928 . S
C181 C178 1.260 . S
C181 C179 1.479 . S
C182 C177 1.245 . S
C182 C178 1.477 . S
C182 H199 0.932 . S
C183 U166 2.882 1_455 S
C183 C177 1.428 . S
C183 O186 1.301 . S
C183 O187 1.282 . S
O184 U166 2.441 . S
O184 C170 1.249 . S
O185 U166 2.420 1_455 S
O185 C170 1.202 1_455 S
O186 U166 2.455 1_455 S
O186 C183 1.301 . S
O187 U166 2.449 1_455 S
O187 C183 1.282 . S
H188 C161 0.931 . S
H189 C163 0.929 . S
H190 C164 0.930 . S
H191 C165 0.931 . S
H192 C172 0.932 . S
H193 C173 0.930 . S
H194 C174 0.929 . S
H195 C176 0.930 . S
H196 C178 0.932 . S
H197 C179 0.929 . S
H198 C180 0.928 . S
H199 C182 0.932 . S
C200 C201 1.264 . S
C200 C205 1.479 . S
C200 C210 1.465 . S
C201 C200 1.264 . S
C201 C203 1.339 . S
C201 H228 0.931 . S
C202 C203 1.395 . S
C202 C204 1.320 . S
C203 C201 1.339 . S
C203 C202 1.395 . S
C203 H229 0.929 . S
C204 C202 1.320 . S
C204 C205 1.405 . S
C204 H230 0.930 . S
C205 C200 1.479 . S
C205 C204 1.405 . S
C205 H231 0.931 . S
U206 O207 2.454 . S
U206 O208 2.458 . S
U206 C209 2.984 . S
U206 C210 2.847 . S
U206 C223 2.882 . S
U206 O224 2.441 . S
U206 O225 2.420 . S
U206 O226 2.455 . S
U206 O227 2.449 . S
O207 U206 2.454 . S
O207 C209 1.353 . S
O208 U206 2.458 . S
O208 C209 1.286 . S
C209 U206 2.984 . S
C209 O207 1.353 . S
C209 O208 1.286 . S
C209 C211 1.363 . S
C210 C200 1.465 . S
C210 U206 2.847 . S
C210 O224 1.249 . S
C210 O225 1.202 . S
C211 C209 1.363 . S
C211 C213 1.408 . S
C211 C216 1.342 . S
C212 C213 1.310 . S
C212 C215 1.461 . S
C212 H232 0.932 . S
C213 C211 1.408 . S
C213 C212 1.310 . S
C213 H233 0.930 . S
C214 C215 1.474 . S
C214 C216 1.285 . S
C214 H234 0.929 . S
C215 C212 1.461 . S
C215 C214 1.474 . S
C216 C211 1.342 . S
C216 C214 1.285 . S
C216 H235 0.930 . S
C217 C220 1.424 . S
C217 C222 1.245 . S
C217 C223 1.428 . S
C218 C221 1.260 . S
C218 C222 1.477 . S
C218 H236 0.932 . S
C219 C220 1.384 . S
C219 C221 1.479 . S
C219 H237 0.929 . S
C220 C217 1.424 . S
C220 C219 1.384 . S
C220 H238 0.928 . S
C221 C218 1.260 . S
C221 C219 1.479 . S
C222 C217 1.245 . S
C222 C218 1.477 . S
C222 H239 0.932 . S
C223 U206 2.882 . S
C223 C217 1.428 . S
C223 O226 1.301 . S
C223 O227 1.282 . S
O224 U206 2.441 . S
O224 C210 1.249 . S
O225 U206 2.420 . S
O225 C210 1.202 . S
O226 U206 2.455 . S
O226 C223 1.301 . S
O227 U206 2.449 . S
O227 C223 1.282 . S
H228 C201 0.931 . S
H229 C203 0.929 . S
H230 C204 0.930 . S
H231 C205 0.931 . S
H232 C212 0.932 . S
H233 C213 0.930 . S
H234 C214 0.929 . S
H235 C216 0.930 . S
H236 C218 0.932 . S
H237 C219 0.929 . S
H238 C220 0.928 . S
H239 C222 0.932 . S
C240 C241 1.264 . S
C240 C245 1.479 . S
C240 C250 1.465 . S
C241 C240 1.264 . S
C241 C243 1.339 . S
C241 H268 0.931 . S
C242 C243 1.395 . S
C242 C244 1.320 . S
C243 C241 1.339 . S
C243 C242 1.395 . S
C243 H269 0.929 . S
C244 C242 1.320 . S
C244 C245 1.405 . S
C244 H270 0.930 . S
C245 C240 1.479 . S
C245 C244 1.405 . S
C245 H271 0.931 . S
U246 O247 2.454 . S
U246 O248 2.458 . S
U246 C249 2.984 . S
U246 C250 2.847 . S
U246 C263 2.882 . S
U246 O264 2.441 . S
U246 O265 2.420 . S
U246 O266 2.455 . S
U246 O267 2.449 . S
O247 U246 2.454 . S
O247 C249 1.353 . S
O248 U246 2.458 . S
O248 C249 1.286 . S
C249 U246 2.984 . S
C249 O247 1.353 . S
C249 O248 1.286 . S
C249 C251 1.363 . S
C250 C240 1.465 . S
C250 U246 2.847 . S
C250 O264 1.249 . S
C250 O265 1.202 . S
C251 C249 1.363 . S
C251 C253 1.408 . S
C251 C256 1.342 . S
C252 C253 1.310 . S
C252 C255 1.461 . S
C252 H272 0.932 . S
C253 C251 1.408 . S
C253 C252 1.310 . S
C253 H273 0.930 . S
C254 C255 1.474 . S
C254 C256 1.285 . S
C254 H274 0.929 . S
C255 C252 1.461 . S
C255 C254 1.474 . S
C256 C251 1.342 . S
C256 C254 1.285 . S
C256 H275 0.930 . S
C257 C260 1.424 . S
C257 C262 1.245 . S
C257 C263 1.428 . S
C258 C261 1.260 . S
C258 C262 1.477 . S
C258 H276 0.932 . S
C259 C260 1.384 . S
C259 C261 1.479 . S
C259 H277 0.929 . S
C260 C257 1.424 . S
C260 C259 1.384 . S
C260 H278 0.928 . S
C261 C258 1.260 . S
C261 C259 1.479 . S
C262 C257 1.245 . S
C262 C258 1.477 . S
C262 H279 0.932 . S
C263 U246 2.882 . S
C263 C257 1.428 . S
C263 O266 1.301 . S
C263 O267 1.282 . S
O264 U246 2.441 . S
O264 C250 1.249 . S
O265 U246 2.420 . S
O265 C250 1.202 . S
O266 U246 2.455 . S
O266 C263 1.301 . S
O267 U246 2.449 . S
O267 C263 1.282 . S
H268 C241 0.931 . S
H269 C243 0.929 . S
H270 C244 0.930 . S
H271 C245 0.931 . S
H272 C252 0.932 . S
H273 C253 0.930 . S
H274 C254 0.929 . S
H275 C256 0.930 . S
H276 C258 0.932 . S
H277 C259 0.929 . S
H278 C260 0.928 . S
H279 C262 0.932 . S
C280 C281 1.264 . S
C280 C285 1.479 . S
C280 C290 1.465 . S
C281 C280 1.264 . S
C281 C283 1.339 . S
C281 H308 0.945 . S
C282 C283 1.395 . S
C282 C284 1.320 . S
C283 C281 1.339 . S
C283 C282 1.395 . S
C283 H309 0.929 1_545 S
C284 C282 1.320 . S
C284 C285 1.405 . S
C284 H310 0.930 . S
C285 C280 1.479 . S
C285 C284 1.405 . S
C285 H311 0.931 . S
U286 O287 2.454 . S
U286 O288 2.458 . S
U286 C289 2.984 . S
U286 C290 2.847 . S
U286 C303 2.882 1_545 S
U286 O304 2.441 . S
U286 O305 2.420 . S
U286 O306 2.455 . S
U286 O307 2.395 1_545 S
O287 U286 2.454 . S
O287 C289 1.353 . S
O288 U286 2.458 . S
O288 C289 1.286 . S
C289 U286 2.984 . S
C289 O287 1.353 . S
C289 O288 1.286 . S
C289 C291 1.363 . S
C290 C280 1.465 . S
C290 U286 2.847 . S
C290 O304 1.249 . S
C290 O305 1.202 . S
C291 C289 1.363 . S
C291 C293 1.408 . S
C291 C296 1.342 . S
C292 C293 1.310 . S
C292 C295 1.461 . S
C292 H312 0.932 . S
C293 C291 1.408 . S
C293 C292 1.310 . S
C293 H313 0.930 . S
C294 C295 1.474 . S
C294 C296 1.285 . S
C294 H314 0.929 . S
C295 C292 1.461 . S
C295 C294 1.474 . S
C296 C291 1.342 . S
C296 C294 1.285 . S
C296 H315 0.930 . S
C297 C300 1.424 . S
C297 C302 1.245 . S
C297 C303 1.428 . S
C298 C301 1.260 . S
C298 C302 1.477 . S
C298 H316 0.932 . S
C299 C300 1.384 . S
C299 C301 1.479 . S
C299 H317 0.929 . S
C300 C297 1.424 . S
C300 C299 1.384 . S
C300 H318 0.928 . S
C301 C298 1.260 . S
C301 C299 1.479 . S
C302 C297 1.245 . S
C302 C298 1.477 . S
C302 H319 0.932 . S
C303 U286 2.882 1_565 S
C303 C297 1.428 . S
C303 O306 1.301 1_565 S
C303 O307 1.294 . S
O304 U286 2.441 . S
O304 C290 1.249 . S
O305 U286 2.420 . S
O305 C290 1.202 . S
O306 U286 2.455 . S
O306 C303 1.301 1_545 S
O307 U286 2.395 1_565 S
O307 C303 1.294 . S
H308 C281 0.945 . S
H309 C283 0.929 1_565 S
H310 C284 0.930 . S
H311 C285 0.931 . S
H312 C292 0.932 . S
H313 C293 0.930 . S
H314 C294 0.929 . S
H315 C296 0.930 . S
H316 C298 0.932 . S
H317 C299 0.929 . S
H318 C300 0.928 . S
H319 C302 0.932 . S
C320 C321 1.264 . S
C320 C325 1.479 . S
C320 C330 1.465 . S
C321 C320 1.264 . S
C321 C323 1.339 . S
C321 H348 0.931 . S
C322 C323 1.395 . S
C322 C324 1.320 . S
C323 C321 1.339 . S
C323 C322 1.395 . S
C323 H349 0.929 . S
C324 C322 1.320 . S
C324 C325 1.405 . S
C324 H350 0.930 . S
C325 C320 1.479 . S
C325 C324 1.405 . S
C325 H351 0.931 . S
U326 O327 2.504 . S
U326 O328 2.535 . S
U326 C329 3.054 . S
U326 C330 2.787 1_554 S
U326 C343 2.880 1_554 S
U326 O344 2.405 1_554 S
U326 O345 2.345 1_554 S
U326 O346 2.484 . S
U326 O347 2.412 1_554 S
O327 U326 2.504 . S
O327 C329 1.353 . S
O328 U326 2.535 . S
O328 C329 1.286 . S
C329 U326 3.054 . S
C329 O327 1.353 . S
C329 O328 1.286 . S
C329 C331 1.363 . S
C330 C320 1.465 . S
C330 U326 2.787 1_556 S
C330 O344 1.249 . S
C330 O345 1.202 . S
C331 C329 1.363 . S
C331 C333 1.408 . S
C331 C336 1.342 . S
C332 C333 1.310 . S
C332 C335 1.461 . S
C332 H352 0.932 . S
C333 C331 1.408 . S
C333 C332 1.310 . S
C333 H353 0.930 . S
C334 C335 1.474 . S
C334 C336 1.285 . S
C334 H354 0.929 . S
C335 C332 1.461 . S
C335 C334 1.474 . S
C336 C331 1.342 . S
C336 C334 1.285 . S
C336 H355 0.930 . S
C337 C340 1.403 1_554 S
C337 C342 1.270 . S
C337 C343 1.425 1_554 S
C338 C341 1.260 . S
C338 C342 1.477 . S
C338 H356 0.932 . S
C339 C340 1.384 . S
C339 C341 1.479 1_556 S
C339 H357 0.929 . S
C340 C337 1.403 1_556 S
C340 C339 1.384 . S
C340 H358 0.928 . S
C341 C338 1.260 . S
C341 C339 1.479 1_554 S
C342 C337 1.270 . S
C342 C338 1.477 . S
C342 H359 0.932 . S
C343 U326 2.880 1_556 S
C343 C337 1.425 1_556 S
C343 O346 1.279 1_556 S
C343 O347 1.306 . S
O344 U326 2.405 1_556 S
O344 C330 1.249 . S
O345 U326 2.345 1_556 S
O345 C330 1.202 . S
O346 U326 2.484 . S
O346 C343 1.279 1_554 S
O347 U326 2.412 1_556 S
O347 C343 1.306 . S
H348 C321 0.931 . S
H349 C323 0.929 . S
H350 C324 0.930 . S
H351 C325 0.931 . S
H352 C332 0.932 . S
H353 C333 0.930 . S
H354 C334 0.929 . S
H355 C336 0.930 . S
H356 C338 0.932 . S
H357 C339 0.929 . S
H358 C340 0.928 . S
H359 C342 0.932 . S
C360 C361 1.264 . S
C360 C365 1.479 . S
C360 C370 1.465 . S
C361 C360 1.264 . S
C361 C363 1.339 . S
C361 H388 0.931 . S
C362 C363 1.395 . S
C362 C364 1.320 . S
C363 C361 1.339 . S
C363 C362 1.395 . S
C363 H389 0.929 . S
C364 C362 1.320 . S
C364 C365 1.405 . S
C364 H390 0.930 . S
C365 C360 1.479 . S
C365 C364 1.405 . S
C365 H391 0.931 . S
U366 O367 2.454 . S
U366 O368 2.458 . S
U366 C369 2.984 . S
U366 C370 2.847 . S
U366 C383 2.882 . S
U366 O384 2.441 . S
U366 O385 2.420 . S
U366 O386 2.455 . S
U366 O387 2.449 . S
O367 U366 2.454 . S
O367 C369 1.353 . S
O368 U366 2.458 . S
O368 C369 1.286 . S
C369 U366 2.984 . S
C369 O367 1.353 . S
C369 O368 1.286 . S
C369 C371 1.363 . S
C370 C360 1.465 . S
C370 U366 2.847 . S
C370 O384 1.249 . S
C370 O385 1.202 . S
C371 C369 1.363 . S
C371 C373 1.408 . S
C371 C376 1.342 . S
C372 C373 1.310 . S
C372 C375 1.461 . S
C372 H392 0.932 . S
C373 C371 1.408 . S
C373 C372 1.310 . S
C373 H393 0.930 . S
C374 C375 1.474 . S
C374 C376 1.285 . S
C374 H394 0.929 . S
C375 C372 1.461 . S
C375 C374 1.474 . S
C376 C371 1.342 . S
C376 C374 1.285 . S
C376 H395 0.930 . S
C377 C380 1.424 . S
C377 C382 1.245 . S
C377 C383 1.428 . S
C378 C381 1.260 . S
C378 C382 1.477 . S
C378 H396 0.932 . S
C379 C380 1.384 . S
C379 C381 1.479 . S
C379 H397 0.929 . S
C380 C377 1.424 . S
C380 C379 1.384 . S
C380 H398 0.928 . S
C381 C378 1.260 . S
C381 C379 1.479 . S
C382 C377 1.245 . S
C382 C378 1.477 . S
C382 H399 0.932 . S
C383 U366 2.882 . S
C383 C377 1.428 . S
C383 O386 1.301 . S
C383 O387 1.282 . S
O384 U366 2.441 . S
O384 C370 1.249 . S
O385 U366 2.420 . S
O385 C370 1.202 . S
O386 U366 2.455 . S
O386 C383 1.301 . S
O387 U366 2.449 . S
O387 C383 1.282 . S
H388 C361 0.931 . S
H389 C363 0.929 . S
H390 C364 0.930 . S
H391 C365 0.931 . S
H392 C372 0.932 . S
H393 C373 0.930 . S
H394 C374 0.929 . S
H395 C376 0.930 . S
H396 C378 0.932 . S
H397 C379 0.929 . S
H398 C380 0.928 . S
H399 C382 0.932 . S
C400 C401 1.264 . S
C400 C405 1.479 . S
C400 C410 1.465 . S
C401 C400 1.264 . S
C401 C403 1.339 . S
C401 H428 0.931 . S
C402 C403 1.395 . S
C402 C404 1.320 . S
C403 C401 1.339 . S
C403 C402 1.395 . S
C403 H429 0.929 . S
C404 C402 1.320 . S
C404 C405 1.405 . S
C404 H430 0.930 . S
C405 C400 1.479 . S
C405 C404 1.405 . S
C405 H431 0.931 . S
U406 O407 2.454 . S
U406 O408 2.458 . S
U406 C409 2.984 . S
U406 C410 2.847 . S
U406 C423 2.882 . S
U406 O424 2.441 . S
U406 O425 2.420 . S
U406 O426 2.455 . S
U406 O427 2.449 . S
O407 U406 2.454 . S
O407 C409 1.353 . S
O408 U406 2.458 . S
O408 C409 1.286 . S
C409 U406 2.984 . S
C409 O407 1.353 . S
C409 O408 1.286 . S
C409 C411 1.363 . S
C410 C400 1.465 . S
C410 U406 2.847 . S
C410 O424 1.249 . S
C410 O425 1.202 . S
C411 C409 1.363 . S
C411 C413 1.408 . S
C411 C416 1.342 . S
C412 C413 1.310 . S
C412 C415 1.461 . S
C412 H432 0.932 . S
C413 C411 1.408 . S
C413 C412 1.310 . S
C413 H433 0.930 . S
C414 C415 1.474 . S
C414 C416 1.285 . S
C414 H434 0.929 . S
C415 C412 1.461 . S
C415 C414 1.474 . S
C416 C411 1.342 . S
C416 C414 1.285 . S
C416 H435 0.930 . S
C417 C420 1.424 . S
C417 C422 1.245 . S
C417 C423 1.428 . S
C418 C421 1.260 . S
C418 C422 1.477 . S
C418 H436 0.932 . S
C419 C420 1.384 . S
C419 C421 1.479 . S
C419 H437 0.929 . S
C420 C417 1.424 . S
C420 C419 1.384 . S
C420 H438 0.928 . S
C421 C418 1.260 . S
C421 C419 1.479 . S
C422 C417 1.245 . S
C422 C418 1.477 . S
C422 H439 0.932 . S
C423 U406 2.882 . S
C423 C417 1.428 . S
C423 O426 1.301 . S
C423 O427 1.282 . S
O424 U406 2.441 . S
O424 C410 1.249 . S
O425 U406 2.420 . S
O425 C410 1.202 . S
O426 U406 2.455 . S
O426 C423 1.301 . S
O427 U406 2.449 . S
O427 C423 1.282 . S
H428 C401 0.931 . S
H429 C403 0.929 . S
H430 C404 0.930 . S
H431 C405 0.931 . S
H432 C412 0.932 . S
H433 C413 0.930 . S
H434 C414 0.929 . S
H435 C416 0.930 . S
H436 C418 0.932 . S
H437 C419 0.929 . S
H438 C420 0.928 . S
H439 C422 0.932 . S
C440 C441 1.248 1_554 S
C440 C445 1.479 . S
C440 C450 1.465 . S
C441 C440 1.248 1_556 S
C441 C443 1.342 . S
C441 H468 0.944 . S
C442 C443 1.395 1_554 S
C442 C444 1.320 . S
C443 C441 1.342 . S
C443 C442 1.395 1_556 S
C443 H469 0.929 . S
C444 C442 1.320 . S
C444 C445 1.405 . S
C444 H470 0.930 . S
C445 C440 1.479 . S
C445 C444 1.405 . S
C445 H471 0.931 . S
U446 O447 2.454 . S
U446 O448 2.458 . S
U446 C449 2.984 . S
U446 C450 2.847 . S
U446 C463 2.882 1_554 S
U446 O464 2.441 . S
U446 O465 2.420 . S
U446 O466 2.459 1_554 S
U446 O467 2.449 1_554 S
O447 U446 2.454 . S
O447 C449 1.353 . S
O448 U446 2.458 . S
O448 C449 1.286 . S
C449 U446 2.984 . S
C449 O447 1.353 . S
C449 O448 1.286 . S
C449 C451 1.363 . S
C450 C440 1.465 . S
C450 U446 2.847 . S
C450 O464 1.249 . S
C450 O465 1.202 . S
C451 C449 1.363 . S
C451 C453 1.408 . S
C451 C456 1.342 . S
C452 C453 1.310 . S
C452 C455 1.461 . S
C452 H472 0.932 . S
C453 C451 1.408 . S
C453 C452 1.310 . S
C453 H473 0.930 . S
C454 C455 1.474 . S
C454 C456 1.285 . S
C454 H474 0.929 . S
C455 C452 1.461 . S
C455 C454 1.474 . S
C456 C451 1.342 . S
C456 C454 1.285 . S
C456 H475 0.930 . S
C457 C460 1.424 . S
C457 C462 1.245 . S
C457 C463 1.428 . S
C458 C461 1.260 . S
C458 C462 1.477 . S
C458 H476 0.932 . S
C459 C460 1.384 . S
C459 C461 1.479 . S
C459 H477 0.929 . S
C460 C457 1.424 . S
C460 C459 1.384 . S
C460 H478 0.928 . S
C461 C458 1.260 . S
C461 C459 1.479 . S
C462 C457 1.245 . S
C462 C458 1.477 . S
C462 H479 0.932 . S
C463 U446 2.882 1_556 S
C463 C457 1.428 . S
C463 O466 1.294 . S
C463 O467 1.282 . S
O464 U446 2.441 . S
O464 C450 1.249 . S
O465 U446 2.420 . S
O465 C450 1.202 . S
O466 U446 2.459 1_556 S
O466 C463 1.294 . S
O467 U446 2.449 1_556 S
O467 C463 1.282 . S
H468 C441 0.944 . S
H469 C443 0.929 . S
H470 C444 0.930 . S
H471 C445 0.931 . S
H472 C452 0.932 . S
H473 C453 0.930 . S
H474 C454 0.929 . S
H475 C456 0.930 . S
H476 C458 0.932 . S
H477 C459 0.929 . S
H478 C460 0.928 . S
H479 C462 0.932 . S
C480 C481 1.264 . S
C480 C485 1.479 . S
C480 C490 1.465 . S
C481 C480 1.264 . S
C481 C483 1.339 . S
C481 H508 0.931 . S
C482 C483 1.395 . S
C482 C484 1.320 . S
C483 C481 1.339 . S
C483 C482 1.395 . S
C483 H509 0.929 . S
C484 C482 1.320 . S
C484 C485 1.405 . S
C484 H510 0.930 1_455 S
C485 C480 1.479 . S
C485 C484 1.405 . S
C485 H511 0.931 1_455 S
U486 O487 2.454 1_455 S
U486 O488 2.432 1_455 S
U486 C489 2.984 1_455 S
U486 C490 2.847 . S
U486 C503 2.882 . S
U486 O504 2.441 . S
U486 O505 2.420 . S
U486 O506 2.455 . S
U486 O507 2.449 . S
O487 U486 2.454 1_655 S
O487 C489 1.353 . S
O488 U486 2.432 1_655 S
O488 C489 1.323 . S
C489 U486 2.984 1_655 S
C489 O487 1.353 . S
C489 O488 1.323 . S
C489 C491 1.363 . S
C490 C480 1.465 . S
C490 U486 2.847 . S
C490 O504 1.249 . S
C490 O505 1.202 . S
C491 C489 1.363 . S
C491 C493 1.408 . S
C491 C496 1.342 . S
C492 C493 1.310 . S
C492 C495 1.461 . S
C492 H512 0.932 . S
C493 C491 1.408 . S
C493 C492 1.310 . S
C493 H513 0.930 . S
C494 C495 1.474 . S
C494 C496 1.285 . S
C494 H514 0.929 . S
C495 C492 1.461 . S
C495 C494 1.474 . S
C496 C491 1.342 . S
C496 C494 1.285 . S
C496 H515 0.930 . S
C497 C500 1.424 . S
C497 C502 1.245 . S
C497 C503 1.428 . S
C498 C501 1.260 . S
C498 C502 1.477 . S
C498 H516 0.932 . S
C499 C500 1.384 . S
C499 C501 1.479 . S
C499 H517 0.929 . S
C500 C497 1.424 . S
C500 C499 1.384 . S
C500 H518 0.928 . S
C501 C498 1.260 . S
C501 C499 1.479 . S
C502 C497 1.245 . S
C502 C498 1.477 . S
C502 H519 0.932 . S
C503 U486 2.882 . S
C503 C497 1.428 . S
C503 O506 1.301 . S
C503 O507 1.282 . S
O504 U486 2.441 . S
O504 C490 1.249 . S
O505 U486 2.420 . S
O505 C490 1.202 . S
O506 U486 2.455 . S
O506 C503 1.301 . S
O507 U486 2.449 . S
O507 C503 1.282 . S
H508 C481 0.931 . S
H509 C483 0.929 . S
H510 C484 0.930 1_655 S
H511 C485 0.931 1_655 S
H512 C492 0.932 . S
H513 C493 0.930 . S
H514 C494 0.929 . S
H515 C496 0.930 . S
H516 C498 0.932 . S
H517 C499 0.929 . S
H518 C500 0.928 . S
H519 C502 0.932 . S
C520 C521 1.264 . S
C520 C525 1.479 . S
C520 C530 1.465 . S
C521 C520 1.264 . S
C521 C523 1.339 . S
C521 H548 0.931 . S
C522 C523 1.395 . S
C522 C524 1.320 . S
C523 C521 1.339 . S
C523 C522 1.395 . S
C523 H549 0.929 . S
C524 C522 1.320 . S
C524 C525 1.405 . S
C524 H550 0.930 . S
C525 C520 1.479 . S
C525 C524 1.405 . S
C525 H551 0.931 . S
U526 O527 2.454 . S
U526 O528 2.458 . S
U526 C529 2.984 . S
U526 C530 2.847 . S
U526 C543 2.882 . S
U526 O544 2.441 . S
U526 O545 2.420 . S
U526 O546 2.455 . S
U526 O547 2.449 . S
O527 U526 2.454 . S
O527 C529 1.353 . S
O528 U526 2.458 . S
O528 C529 1.286 . S
C529 U526 2.984 . S
C529 O527 1.353 . S
C529 O528 1.286 . S
C529 C531 1.363 . S
C530 C520 1.465 . S
C530 U526 2.847 . S
C530 O544 1.249 . S
C530 O545 1.202 . S
C531 C529 1.363 . S
C531 C533 1.408 . S
C531 C536 1.342 . S
C532 C533 1.310 . S
C532 C535 1.461 . S
C532 H552 0.932 . S
C533 C531 1.408 . S
C533 C532 1.310 . S
C533 H553 0.930 . S
C534 C535 1.474 . S
C534 C536 1.285 . S
C534 H554 0.929 . S
C535 C532 1.461 . S
C535 C534 1.474 . S
C536 C531 1.342 . S
C536 C534 1.285 . S
C536 H555 0.930 . S
C537 C540 1.424 . S
C537 C542 1.245 . S
C537 C543 1.428 . S
C538 C541 1.260 . S
C538 C542 1.477 . S
C538 H556 0.932 . S
C539 C540 1.384 . S
C539 C541 1.479 . S
C539 H557 0.929 . S
C540 C537 1.424 . S
C540 C539 1.384 . S
C540 H558 0.928 . S
C541 C538 1.260 . S
C541 C539 1.479 . S
C542 C537 1.245 . S
C542 C538 1.477 . S
C542 H559 0.932 . S
C543 U526 2.882 . S
C543 C537 1.428 . S
C543 O546 1.301 . S
C543 O547 1.282 . S
O544 U526 2.441 . S
O544 C530 1.249 . S
O545 U526 2.420 . S
O545 C530 1.202 . S
O546 U526 2.455 . S
O546 C543 1.301 . S
O547 U526 2.449 . S
O547 C543 1.282 . S
H548 C521 0.931 . S
H549 C523 0.929 . S
H550 C524 0.930 . S
H551 C525 0.931 . S
H552 C532 0.932 . S
H553 C533 0.930 . S
H554 C534 0.929 . S
H555 C536 0.930 . S
H556 C538 0.932 . S
H557 C539 0.929 . S
H558 C540 0.928 . S
H559 C542 0.932 . S
C560 C561 1.264 . S
C560 C565 1.479 . S
C560 C570 1.465 . S
C561 C560 1.264 . S
C561 C563 1.339 . S
C561 H588 0.931 . S
C562 C563 1.395 . S
C562 C564 1.320 . S
C563 C561 1.339 . S
C563 C562 1.395 . S
C563 H589 0.929 . S
C564 C562 1.320 . S
C564 C565 1.405 . S
C564 H590 0.930 . S
C565 C560 1.479 . S
C565 C564 1.405 . S
C565 H591 0.931 . S
U566 O567 2.454 . S
U566 O568 2.458 . S
U566 C569 2.984 . S
U566 C570 2.847 . S
U566 C583 2.882 . S
U566 O584 2.441 . S
U566 O585 2.420 . S
U566 O586 2.455 . S
U566 O587 2.449 . S
O567 U566 2.454 . S
O567 C569 1.353 . S
O568 U566 2.458 . S
O568 C569 1.286 . S
C569 U566 2.984 . S
C569 O567 1.353 . S
C569 O568 1.286 . S
C569 C571 1.363 . S
C570 C560 1.465 . S
C570 U566 2.847 . S
C570 O584 1.249 . S
C570 O585 1.202 . S
C571 C569 1.363 . S
C571 C573 1.408 . S
C571 C576 1.342 . S
C572 C573 1.310 . S
C572 C575 1.461 . S
C572 H592 0.932 . S
C573 C571 1.408 . S
C573 C572 1.310 . S
C573 H593 0.930 . S
C574 C575 1.474 . S
C574 C576 1.285 . S
C574 H594 0.929 . S
C575 C572 1.461 . S
C575 C574 1.474 . S
C576 C571 1.342 . S
C576 C574 1.285 . S
C576 H595 0.930 . S
C577 C580 1.424 . S
C577 C582 1.245 . S
C577 C583 1.428 . S
C578 C581 1.260 . S
C578 C582 1.477 . S
C578 H596 0.932 . S
C579 C580 1.384 . S
C579 C581 1.479 . S
C579 H597 0.929 . S
C580 C577 1.424 . S
C580 C579 1.384 . S
C580 H598 0.928 . S
C581 C578 1.260 . S
C581 C579 1.479 . S
C582 C577 1.245 . S
C582 C578 1.477 . S
C582 H599 0.932 . S
C583 U566 2.882 . S
C583 C577 1.428 . S
C583 O586 1.301 . S
C583 O587 1.282 . S
O584 U566 2.441 . S
O584 C570 1.249 . S
O585 U566 2.420 . S
O585 C570 1.202 . S
O586 U566 2.455 . S
O586 C583 1.301 . S
O587 U566 2.449 . S
O587 C583 1.282 . S
H588 C561 0.931 . S
H589 C563 0.929 . S
H590 C564 0.930 . S
H591 C565 0.931 . S
H592 C572 0.932 . S
H593 C573 0.930 . S
H594 C574 0.929 . S
H595 C576 0.930 . S
H596 C578 0.932 . S
H597 C579 0.929 . S
H598 C580 0.928 . S
H599 C582 0.932 . S
C600 C601 1.264 . S
C600 C605 1.479 1_545 S
C600 C610 1.465 . S
C601 C600 1.264 . S
C601 C603 1.339 . S
C601 H628 0.931 . S
C602 C603 1.395 . S
C602 C604 1.320 1_545 S
C603 C601 1.339 . S
C603 C602 1.395 . S
C603 H629 0.929 . S
C604 C602 1.320 1_565 S
C604 C605 1.405 . S
C604 H630 0.930 . S
C605 C600 1.479 1_565 S
C605 C604 1.405 . S
C605 H631 0.931 . S
U606 O607 2.454 1_545 S
U606 O608 2.458 1_545 S
U606 C609 2.984 1_545 S
U606 C610 2.847 . S
U606 C623 2.882 . S
U606 O624 2.441 1_545 S
U606 O625 2.420 . S
U606 O626 2.455 . S
U606 O627 2.449 . S
O607 U606 2.454 1_565 S
O607 C609 1.353 . S
O608 U606 2.458 1_565 S
O608 C609 1.286 . S
C609 U606 2.984 1_565 S
C609 O607 1.353 . S
C609 O608 1.286 . S
C609 C611 1.363 . S
C610 C600 1.465 . S
C610 U606 2.847 . S
C610 O624 1.249 1_545 S
C610 O625 1.202 . S
C611 C609 1.363 . S
C611 C613 1.408 . S
C611 C616 1.342 . S
C612 C613 1.310 . S
C612 C615 1.461 . S
C612 H632 0.932 . S
C613 C611 1.408 . S
C613 C612 1.310 . S
C613 H633 0.930 . S
C614 C615 1.474 . S
C614 C616 1.285 . S
C614 H634 0.929 . S
C615 C612 1.461 . S
C615 C614 1.474 . S
C616 C611 1.342 . S
C616 C614 1.285 . S
C616 H635 0.930 . S
C617 C620 1.424 . S
C617 C622 1.245 . S
C617 C623 1.428 . S
C618 C621 1.260 . S
C618 C622 1.477 . S
C618 H636 0.932 . S
C619 C620 1.384 . S
C619 C621 1.479 . S
C619 H637 0.929 . S
C620 C617 1.424 . S
C620 C619 1.384 . S
C620 H638 0.928 . S
C621 C618 1.260 . S
C621 C619 1.479 . S
C622 C617 1.245 . S
C622 C618 1.477 . S
C622 H639 0.932 . S
C623 U606 2.882 . S
C623 C617 1.428 . S
C623 O626 1.301 . S
C623 O627 1.282 . S
O624 U606 2.441 1_565 S
O624 C610 1.249 1_565 S
O625 U606 2.420 . S
O625 C610 1.202 . S
O626 U606 2.455 . S
O626 C623 1.301 . S
O627 U606 2.449 . S
O627 C623 1.282 . S
H628 C601 0.931 . S
H629 C603 0.929 . S
H630 C604 0.930 . S
H631 C605 0.931 . S
H632 C612 0.932 . S
H633 C613 0.930 . S
H634 C614 0.929 . S
H635 C616 0.930 . S
H636 C618 0.932 . S
H637 C619 0.929 . S
H638 C620 0.928 . S
H639 C622 0.932 . S
C640 C641 1.264 . S
C640 C645 1.479 . S
C640 C650 1.465 . S
C641 C640 1.264 . S
C641 C643 1.339 . S
C641 H668 0.931 . S
C642 C643 1.395 . S
C642 C644 1.320 . S
C643 C641 1.339 . S
C643 C642 1.395 . S
C643 H669 0.929 . S
C644 C642 1.320 . S
C644 C645 1.405 . S
C644 H670 0.930 1_455 S
C645 C640 1.479 . S
C645 C644 1.405 . S
C645 H671 0.931 1_455 S
U646 O647 2.454 1_455 S
U646 O648 2.425 1_455 S
U646 C649 2.984 1_455 S
U646 C650 2.847 . S
U646 C663 2.882 . S
U646 O664 2.441 . S
U646 O665 2.420 . S
U646 O666 2.455 . S
U646 O667 2.449 . S
O647 U646 2.454 1_655 S
O647 C649 1.353 . S
O648 U646 2.425 1_655 S
O648 C649 1.334 . S
C649 U646 2.984 1_655 S
C649 O647 1.353 . S
C649 O648 1.334 . S
C649 C651 1.363 . S
C650 C640 1.465 . S
C650 U646 2.847 . S
C650 O664 1.249 . S
C650 O665 1.202 . S
C651 C649 1.363 . S
C651 C653 1.408 . S
C651 C656 1.342 . S
C652 C653 1.310 . S
C652 C655 1.461 . S
C652 H672 0.932 . S
C653 C651 1.408 . S
C653 C652 1.310 . S
C653 H673 0.930 . S
C654 C655 1.474 . S
C654 C656 1.285 . S
C654 H674 0.929 . S
C655 C652 1.461 . S
C655 C654 1.474 . S
C656 C651 1.342 . S
C656 C654 1.285 . S
C656 H675 0.930 . S
C657 C660 1.424 . S
C657 C662 1.245 . S
C657 C663 1.428 . S
C658 C661 1.260 . S
C658 C662 1.477 . S
C658 H676 0.932 . S
C659 C660 1.384 . S
C659 C661 1.479 . S
C659 H677 0.929 . S
C660 C657 1.424 . S
C660 C659 1.384 . S
C660 H678 0.928 . S
C661 C658 1.260 . S
C661 C659 1.479 . S
C662 C657 1.245 . S
C662 C658 1.477 . S
C662 H679 0.932 . S
C663 U646 2.882 . S
C663 C657 1.428 . S
C663 O666 1.301 . S
C663 O667 1.282 . S
O664 U646 2.441 . S
O664 C650 1.249 . S
O665 U646 2.420 . S
O665 C650 1.202 . S
O666 U646 2.455 . S
O666 C663 1.301 . S
O667 U646 2.449 . S
O667 C663 1.282 . S
H668 C641 0.931 . S
H669 C643 0.929 . S
H670 C644 0.930 1_655 S
H671 C645 0.931 1_655 S
H672 C652 0.932 . S
H673 C653 0.930 . S
H674 C654 0.929 . S
H675 C656 0.930 . S
H676 C658 0.932 . S
H677 C659 0.929 . S
H678 C660 0.928 . S
H679 C662 0.932 . S
C680 C681 1.264 . S
C680 C685 1.479 . S
C680 C690 1.465 . S
C681 C680 1.264 . S
C681 C683 1.339 . S
C681 H708 0.931 . S
C682 C683 1.395 . S
C682 C684 1.320 . S
C683 C681 1.339 . S
C683 C682 1.395 . S
C683 H709 0.929 . S
C684 C682 1.320 . S
C684 C685 1.405 . S
C684 H710 0.930 . S
C685 C680 1.479 . S
C685 C684 1.405 . S
C685 H711 0.931 . S
U686 O687 2.454 . S
U686 O688 2.458 . S
U686 C689 2.984 . S
U686 C690 2.847 . S
U686 C703 2.882 . S
U686 O704 2.441 . S
U686 O705 2.420 . S
U686 O706 2.455 . S
U686 O707 2.449 . S
O687 U686 2.454 . S
O687 C689 1.353 . S
O688 U686 2.458 . S
O688 C689 1.286 . S
C689 U686 2.984 . S
C689 O687 1.353 . S
C689 O688 1.286 . S
C689 C691 1.363 . S
C690 C680 1.465 . S
C690 U686 2.847 . S
C690 O704 1.249 . S
C690 O705 1.202 . S
C691 C689 1.363 . S
C691 C693 1.408 . S
C691 C696 1.342 . S
C692 C693 1.310 . S
C692 C695 1.461 . S
C692 H712 0.932 . S
C693 C691 1.408 . S
C693 C692 1.310 . S
C693 H713 0.930 . S
C694 C695 1.474 . S
C694 C696 1.285 . S
C694 H714 0.929 . S
C695 C692 1.461 . S
C695 C694 1.474 . S
C696 C691 1.342 . S
C696 C694 1.285 . S
C696 H715 0.930 . S
C697 C700 1.424 . S
C697 C702 1.245 . S
C697 C703 1.428 . S
C698 C701 1.260 . S
C698 C702 1.477 . S
C698 H716 0.932 . S
C699 C700 1.384 . S
C699 C701 1.479 . S
C699 H717 0.929 . S
C700 C697 1.424 . S
C700 C699 1.384 . S
C700 H718 0.928 . S
C701 C698 1.260 . S
C701 C699 1.479 . S
C702 C697 1.245 . S
C702 C698 1.477 . S
C702 H719 0.932 . S
C703 U686 2.882 . S
C703 C697 1.428 . S
C703 O706 1.301 . S
C703 O707 1.282 . S
O704 U686 2.441 . S
O704 C690 1.249 . S
O705 U686 2.420 . S
O705 C690 1.202 . S
O706 U686 2.455 . S
O706 C703 1.301 . S
O707 U686 2.449 . S
O707 C703 1.282 . S
H708 C681 0.931 . S
H709 C683 0.929 . S
H710 C684 0.930 . S
H711 C685 0.931 . S
H712 C692 0.932 . S
H713 C693 0.930 . S
H714 C694 0.929 . S
H715 C696 0.930 . S
H716 C698 0.932 . S
H717 C699 0.929 . S
H718 C700 0.928 . S
H719 C702 0.932 . S
C720 C721 1.264 . S
C720 C725 1.479 . S
C720 C730 1.465 . S
C721 C720 1.264 . S
C721 C723 1.339 . S
C721 H748 0.931 . S
C722 C723 1.395 . S
C722 C724 1.320 . S
C723 C721 1.339 . S
C723 C722 1.395 . S
C723 H749 0.929 . S
C724 C722 1.320 . S
C724 C725 1.405 . S
C724 H750 0.930 . S
C725 C720 1.479 . S
C725 C724 1.405 . S
C725 H751 0.931 . S
U726 O727 2.454 . S
U726 O728 2.458 . S
U726 C729 2.984 . S
U726 C730 2.847 . S
U726 C743 2.882 . S
U726 O744 2.441 . S
U726 O745 2.420 . S
U726 O746 2.455 . S
U726 O747 2.449 . S
O727 U726 2.454 . S
O727 C729 1.353 . S
O728 U726 2.458 . S
O728 C729 1.286 . S
C729 U726 2.984 . S
C729 O727 1.353 . S
C729 O728 1.286 . S
C729 C731 1.363 . S
C730 C720 1.465 . S
C730 U726 2.847 . S
C730 O744 1.249 . S
C730 O745 1.202 . S
C731 C729 1.363 . S
C731 C733 1.408 . S
C731 C736 1.342 . S
C732 C733 1.310 . S
C732 C735 1.461 . S
C732 H752 0.932 . S
C733 C731 1.408 . S
C733 C732 1.310 . S
C733 H753 0.930 . S
C734 C735 1.474 . S
C734 C736 1.285 . S
C734 H754 0.929 . S
C735 C732 1.461 . S
C735 C734 1.474 . S
C736 C731 1.342 . S
C736 C734 1.285 . S
C736 H755 0.930 . S
C737 C740 1.424 . S
C737 C742 1.245 . S
C737 C743 1.428 . S
C738 C741 1.260 . S
C738 C742 1.477 . S
C738 H756 0.932 . S
C739 C740 1.384 . S
C739 C741 1.479 . S
C739 H757 0.929 . S
C740 C737 1.424 . S
C740 C739 1.384 . S
C740 H758 0.928 . S
C741 C738 1.260 . S
C741 C739 1.479 . S
C742 C737 1.245 . S
C742 C738 1.477 . S
C742 H759 0.932 . S
C743 U726 2.882 . S
C743 C737 1.428 . S
C743 O746 1.301 . S
C743 O747 1.282 . S
O744 U726 2.441 . S
O744 C730 1.249 . S
O745 U726 2.420 . S
O745 C730 1.202 . S
O746 U726 2.455 . S
O746 C743 1.301 . S
O747 U726 2.449 . S
O747 C743 1.282 . S
H748 C721 0.931 . S
H749 C723 0.929 . S
H750 C724 0.930 . S
H751 C725 0.931 . S
H752 C732 0.932 . S
H753 C733 0.930 . S
H754 C734 0.929 . S
H755 C736 0.930 . S
H756 C738 0.932 . S
H757 C739 0.929 . S
H758 C740 0.928 . S
H759 C742 0.932 . S
C760 C761 1.264 . S
C760 C765 1.479 . S
C760 C770 1.465 . S
C761 C760 1.264 . S
C761 C763 1.339 . S
C761 H788 0.931 . S
C762 C763 1.395 . S
C762 C764 1.320 . S
C763 C761 1.339 . S
C763 C762 1.395 . S
C763 H789 0.929 . S
C764 C762 1.320 . S
C764 C765 1.405 . S
C764 H790 0.930 . S
C765 C760 1.479 . S
C765 C764 1.405 . S
C765 H791 0.931 . S
U766 O767 2.454 . S
U766 O768 2.458 . S
U766 C769 2.984 . S
U766 C770 2.847 1_545 S
U766 C783 2.882 . S
U766 O784 2.441 . S
U766 O785 2.364 1_545 S
U766 O786 2.455 . S
U766 O787 2.449 . S
O767 U766 2.454 . S
O767 C769 1.353 . S
O768 U766 2.458 . S
O768 C769 1.286 . S
C769 U766 2.984 . S
C769 O767 1.353 . S
C769 O768 1.286 . S
C769 C771 1.363 . S
C770 C760 1.465 . S
C770 U766 2.847 1_565 S
C770 O784 1.249 1_565 S
C770 O785 1.216 . S
C771 C769 1.363 . S
C771 C773 1.408 . S
C771 C776 1.342 . S
C772 C773 1.310 . S
C772 C775 1.461 . S
C772 H792 0.932 . S
C773 C771 1.408 . S
C773 C772 1.310 . S
C773 H793 0.930 . S
C774 C775 1.474 . S
C774 C776 1.285 . S
C774 H794 0.929 . S
C775 C772 1.461 . S
C775 C774 1.474 . S
C776 C771 1.342 . S
C776 C774 1.285 . S
C776 H795 0.930 . S
C777 C780 1.424 . S
C777 C782 1.245 . S
C777 C783 1.428 . S
C778 C781 1.260 . S
C778 C782 1.477 . S
C778 H796 0.932 . S
C779 C780 1.384 . S
C779 C781 1.479 . S
C779 H797 0.929 1_545 S
C780 C777 1.424 . S
C780 C779 1.384 . S
C780 H798 0.928 1_545 S
C781 C778 1.260 . S
C781 C779 1.479 . S
C782 C777 1.245 . S
C782 C778 1.477 . S
C782 H799 0.932 . S
C783 U766 2.882 . S
C783 C777 1.428 . S
C783 O786 1.301 . S
C783 O787 1.282 . S
O784 U766 2.441 . S
O784 C770 1.249 1_545 S
O785 U766 2.364 1_565 S
O785 C770 1.216 . S
O786 U766 2.455 . S
O786 C783 1.301 . S
O787 U766 2.449 . S
O787 C783 1.282 . S
H788 C761 0.931 . S
H789 C763 0.929 . S
H790 C764 0.930 . S
H791 C765 0.931 . S
H792 C772 0.932 . S
H793 C773 0.930 . S
H794 C774 0.929 . S
H795 C776 0.930 . S
H796 C778 0.932 . S
H797 C779 0.929 1_565 S
H798 C780 0.928 1_565 S
H799 C782 0.932 . S
C800 C801 1.306 . S
C800 C805 1.438 1_556 S
C800 C810 1.464 . S
C801 C800 1.306 . S
C801 C803 1.339 . S
C801 H828 0.931 . S
C802 C803 1.340 1_554 S
C802 C804 1.376 . S
C803 C801 1.339 . S
C803 C802 1.340 1_556 S
C803 H829 0.929 . S
C804 C802 1.376 . S
C804 C805 1.405 . S
C804 H830 0.930 . S
C805 C800 1.438 1_554 S
C805 C804 1.405 . S
C805 H831 0.931 . S
U806 O807 2.466 . S
U806 O808 2.465 . S
U806 C809 2.995 . S
U806 C810 2.847 1_554 S
U806 C823 2.872 1_554 S
U806 O824 2.446 . S
U806 O825 2.415 1_554 S
U806 O826 2.449 1_554 S
U806 O827 2.437 1_554 S
O807 U806 2.466 . S
O807 C809 1.353 . S
O808 U806 2.465 . S
O808 C809 1.286 . S
C809 U806 2.995 . S
C809 O807 1.353 . S
C809 O808 1.286 . S
C809 C811 1.363 . S
C810 C800 1.464 . S
C810 U806 2.847 1_556 S
C810 O824 1.240 1_556 S
C810 O825 1.212 . S
C811 C809 1.363 . S
C811 C813 1.408 . S
C811 C816 1.342 . S
C812 C813 1.310 . S
C812 C815 1.461 . S
C812 H832 0.932 . S
C813 C811 1.408 . S
C813 C812 1.310 . S
C813 H833 0.930 . S
C814 C815 1.474 . S
C814 C816 1.285 . S
C814 H834 0.929 . S
C815 C812 1.461 . S
C815 C814 1.474 . S
C816 C811 1.342 . S
C816 C814 1.285 . S
C816 H835 0.930 . S
C817 C820 1.424 . S
C817 C822 1.245 . S
C817 C823 1.428 . S
C818 C821 1.260 . S
C818 C822 1.477 . S
C818 H836 0.932 . S
C819 C820 1.384 . S
C819 C821 1.479 . S
C819 H837 0.929 . S
C820 C817 1.424 . S
C820 C819 1.384 . S
C820 H838 0.928 . S
C821 C818 1.260 . S
C821 C819 1.479 . S
C822 C817 1.245 . S
C822 C818 1.477 . S
C822 H839 0.932 . S
C823 U806 2.872 1_556 S
C823 C817 1.428 . S
C823 O826 1.301 . S
C823 O827 1.282 . S
O824 U806 2.446 . S
O824 C810 1.240 1_554 S
O825 U806 2.415 1_556 S
O825 C810 1.212 . S
O826 U806 2.449 1_556 S
O826 C823 1.301 . S
O827 U806 2.437 1_556 S
O827 C823 1.282 . S
H828 C801 0.931 . S
H829 C803 0.929 . S
H830 C804 0.930 . S
H831 C805 0.931 . S
H832 C812 0.932 . S
H833 C813 0.930 . S
H834 C814 0.929 . S
H835 C816 0.930 . S
H836 C818 0.932 . S
H837 C819 0.929 . S
H838 C820 0.928 . S
H839 C822 0.932 . S
C840 C841 1.264 . S
C840 C845 1.479 . S
C840 C850 1.465 . S
C841 C840 1.264 . S
C841 C843 1.339 . S
C841 H868 0.931 . S
C842 C843 1.395 . S
C842 C844 1.320 . S
C843 C841 1.339 . S
C843 C842 1.395 . S
C843 H869 0.929 . S
C844 C842 1.320 . S
C844 C845 1.405 . S
C844 H870 0.930 . S
C845 C840 1.479 . S
C845 C844 1.405 . S
C845 H871 0.931 . S
U846 O847 2.454 . S
U846 O848 2.458 . S
U846 C849 2.984 . S
U846 C850 2.847 . S
U846 C863 2.882 . S
U846 O864 2.441 . S
U846 O865 2.420 . S
U846 O866 2.455 . S
U846 O867 2.449 . S
O847 U846 2.454 . S
O847 C849 1.353 . S
O848 U846 2.458 . S
O848 C849 1.286 . S
C849 U846 2.984 . S
C849 O847 1.353 . S
C849 O848 1.286 . S
C849 C851 1.363 . S
C850 C840 1.465 . S
C850 U846 2.847 . S
C850 O864 1.249 . S
C850 O865 1.202 . S
C851 C849 1.363 . S
C851 C853 1.408 . S
C851 C856 1.342 . S
C852 C853 1.310 . S
C852 C855 1.461 . S
C852 H872 0.932 . S
C853 C851 1.408 . S
C853 C852 1.310 . S
C853 H873 0.930 . S
C854 C855 1.474 . S
C854 C856 1.285 . S
C854 H874 0.929 . S
C855 C852 1.461 . S
C855 C854 1.474 . S
C856 C851 1.342 . S
C856 C854 1.285 . S
C856 H875 0.930 . S
C857 C860 1.424 . S
C857 C862 1.245 . S
C857 C863 1.428 . S
C858 C861 1.260 . S
C858 C862 1.477 . S
C858 H876 0.932 . S
C859 C860 1.384 . S
C859 C861 1.479 . S
C859 H877 0.929 . S
C860 C857 1.424 . S
C860 C859 1.384 . S
C860 H878 0.928 . S
C861 C858 1.260 . S
C861 C859 1.479 . S
C862 C857 1.245 . S
C862 C858 1.477 . S
C862 H879 0.932 . S
C863 U846 2.882 . S
C863 C857 1.428 . S
C863 O866 1.301 . S
C863 O867 1.282 . S
O864 U846 2.441 . S
O864 C850 1.249 . S
O865 U846 2.420 . S
O865 C850 1.202 . S
O866 U846 2.455 . S
O866 C863 1.301 . S
O867 U846 2.449 . S
O867 C863 1.282 . S
H868 C841 0.931 . S
H869 C843 0.929 . S
H870 C844 0.930 . S
H871 C845 0.931 . S
H872 C852 0.932 . S
H873 C853 0.930 . S
H874 C854 0.929 . S
H875 C856 0.930 . S
H876 C858 0.932 . S
H877 C859 0.929 . S
H878 C860 0.928 . S
H879 C862 0.932 . S
C880 C881 1.264 . S
C880 C885 1.479 . S
C880 C890 1.465 . S
C881 C880 1.264 . S
C881 C883 1.339 . S
C881 H908 0.931 . S
C882 C883 1.395 . S
C882 C884 1.320 . S
C883 C881 1.339 . S
C883 C882 1.395 . S
C883 H909 0.929 . S
C884 C882 1.320 . S
C884 C885 1.405 . S
C884 H910 0.930 . S
C885 C880 1.479 . S
C885 C884 1.405 . S
C885 H911 0.931 . S
U886 O887 2.454 . S
U886 O888 2.458 . S
U886 C889 2.984 . S
U886 C890 2.847 . S
U886 C903 2.882 . S
U886 O904 2.441 . S
U886 O905 2.420 . S
U886 O906 2.455 . S
U886 O907 2.449 . S
O887 U886 2.454 . S
O887 C889 1.353 . S
O888 U886 2.458 . S
O888 C889 1.286 . S
C889 U886 2.984 . S
C889 O887 1.353 . S
C889 O888 1.286 . S
C889 C891 1.363 . S
C890 C880 1.465 . S
C890 U886 2.847 . S
C890 O904 1.249 . S
C890 O905 1.202 . S
C891 C889 1.363 . S
C891 C893 1.408 . S
C891 C896 1.342 . S
C892 C893 1.310 . S
C892 C895 1.461 . S
C892 H912 0.932 . S
C893 C891 1.408 . S
C893 C892 1.310 . S
C893 H913 0.930 . S
C894 C895 1.474 . S
C894 C896 1.285 . S
C894 H914 0.929 . S
C895 C892 1.461 . S
C895 C894 1.474 . S
C896 C891 1.342 . S
C896 C894 1.285 . S
C896 H915 0.930 . S
C897 C900 1.424 . S
C897 C902 1.245 . S
C897 C903 1.428 . S
C898 C901 1.260 . S
C898 C902 1.477 . S
C898 H916 0.932 . S
C899 C900 1.384 . S
C899 C901 1.479 . S
C899 H917 0.929 . S
C900 C897 1.424 . S
C900 C899 1.384 . S
C900 H918 0.928 . S
C901 C898 1.260 . S
C901 C899 1.479 . S
C902 C897 1.245 . S
C902 C898 1.477 . S
C902 H919 0.932 . S
C903 U886 2.882 . S
C903 C897 1.428 . S
C903 O906 1.301 . S
C903 O907 1.282 . S
O904 U886 2.441 . S
O904 C890 1.249 . S
O905 U886 2.420 . S
O905 C890 1.202 . S
O906 U886 2.455 . S
O906 C903 1.301 . S
O907 U886 2.449 . S
O907 C903 1.282 . S
H908 C881 0.931 . S
H909 C883 0.929 . S
H910 C884 0.930 . S
H911 C885 0.931 . S
H912 C892 0.932 . S
H913 C893 0.930 . S
H914 C894 0.929 . S
H915 C896 0.930 . S
H916 C898 0.932 . S
H917 C899 0.929 . S
H918 C900 0.928 . S
H919 C902 0.932 . S
C920 C921 1.264 . S
C920 C925 1.479 . S
C920 C930 1.465 . S
C921 C920 1.264 . S
C921 C923 1.339 . S
C921 H948 0.931 . S
C922 C923 1.395 . S
C922 C924 1.320 . S
C923 C921 1.339 . S
C923 C922 1.395 . S
C923 H949 0.929 . S
C924 C922 1.320 . S
C924 C925 1.405 . S
C924 H950 0.930 . S
C925 C920 1.479 . S
C925 C924 1.405 . S
C925 H951 0.931 . S
U926 O927 2.454 . S
U926 O928 2.458 . S
U926 C929 2.984 . S
U926 C930 2.847 1_554 S
U926 C943 2.882 . S
U926 O944 2.441 1_554 S
U926 O945 2.420 1_554 S
U926 O946 2.455 . S
U926 O947 2.449 . S
O927 U926 2.454 . S
O927 C929 1.353 . S
O928 U926 2.458 . S
O928 C929 1.286 . S
C929 U926 2.984 . S
C929 O927 1.353 . S
C929 O928 1.286 . S
C929 C931 1.363 . S
C930 C920 1.465 . S
C930 U926 2.847 1_556 S
C930 O944 1.249 . S
C930 O945 1.202 . S
C931 C929 1.363 . S
C931 C933 1.408 . S
C931 C936 1.342 . S
C932 C933 1.310 . S
C932 C935 1.461 . S
C932 H952 0.932 . S
C933 C931 1.408 . S
C933 C932 1.310 . S
C933 H953 0.930 . S
C934 C935 1.474 . S
C934 C936 1.285 . S
C934 H954 0.929 . S
C935 C932 1.461 . S
C935 C934 1.474 . S
C936 C931 1.342 . S
C936 C934 1.285 . S
C936 H955 0.930 . S
C937 C940 1.424 1_554 S
C937 C942 1.245 . S
C937 C943 1.428 . S
C938 C941 1.260 . S
C938 C942 1.477 . S
C938 H956 0.932 . S
C939 C940 1.384 . S
C939 C941 1.479 1_556 S
C939 H957 0.929 . S
C940 C937 1.424 1_556 S
C940 C939 1.384 . S
C940 H958 0.928 . S
C941 C938 1.260 . S
C941 C939 1.479 1_554 S
C942 C937 1.245 . S
C942 C938 1.477 . S
C942 H959 0.932 . S
C943 U926 2.882 . S
C943 C937 1.428 . S
C943 O946 1.301 . S
C943 O947 1.282 . S
O944 U926 2.441 1_556 S
O944 C930 1.249 . S
O945 U926 2.420 1_556 S
O945 C930 1.202 . S
O946 U926 2.455 . S
O946 C943 1.301 . S
O947 U926 2.449 . S
O947 C943 1.282 . S
H948 C921 0.931 . S
H949 C923 0.929 . S
H950 C924 0.930 . S
H951 C925 0.931 . S
H952 C932 0.932 . S
H953 C933 0.930 . S
H954 C934 0.929 . S
H955 C936 0.930 . S
H956 C938 0.932 . S
H957 C939 0.929 . S
H958 C940 0.928 . S
H959 C942 0.932 . S
H960 C968 0.929 . S
H961 C970 0.930 . S
H962 C972 0.930 . S
H963 C975 0.929 . S
H964 C978 0.930 . S
H965 C980 0.960 . S
H966 C980 0.960 . S
H967 C980 0.960 . S
C968 H960 0.929 . S
C968 C969 1.377 1_655 S
C968 C970 1.384 . S
C969 C968 1.377 1_455 S
C969 C975 1.390 . S
C970 H961 0.930 . S
C970 C968 1.384 . S
C970 C971 1.372 1_655 S
C971 C970 1.372 1_455 S
C971 C972 1.400 . S
C971 C976 1.490 . S
C972 H962 0.930 . S
C972 C971 1.400 . S
C972 C975 1.386 . S
H973 C989 0.930 . S
H974 C990 0.931 . S
C975 H963 0.929 . S
C975 C969 1.390 . S
C975 C972 1.386 . S
C976 C971 1.490 . S
C976 C978 1.395 1_455 S
C976 C979 1.403 . S
H977 C983 0.930 . S
C978 H964 0.930 . S
C978 C976 1.395 1_655 S
C978 C981 1.403 . S
C979 C976 1.403 . S
C979 C980 1.524 . S
C979 C983 1.400 . S
C980 H965 0.960 . S
C980 H966 0.960 . S
C980 H967 0.960 . S
C980 C979 1.524 . S
C981 C978 1.403 . S
C981 C982 1.392 1_655 S
C981 C985 1.495 . S
C982 C981 1.392 1_455 S
C982 C983 1.385 . S
C982 C984 1.478 . S
C983 H977 0.930 . S
C983 C979 1.400 . S
C983 C982 1.385 . S
C984 C982 1.478 . S
C984 C986 1.381 1_455 S
C984 C990 1.383 . S
C985 C981 1.495 . S
C985 H991 0.959 . S
C985 H992 0.961 . S
C985 H993 0.960 . S
C986 C984 1.381 1_655 S
C986 C987 1.394 . S
C986 H994 0.930 . S
C987 C986 1.394 . S
C987 C988 1.383 1_655 S
C987 H995 0.929 . S
C988 C987 1.383 1_455 S
C988 C989 1.377 . S
C989 H973 0.930 . S
C989 C988 1.377 . S
C989 C990 1.379 . S
C990 H974 0.931 . S
C990 C984 1.383 . S
C990 C989 1.379 . S
H991 C985 0.959 . S
H992 C985 0.961 . S
H993 C985 0.960 . S
H994 C986 0.930 . S
H995 C987 0.929 . S
H996 C1004 0.929 . S
H997 C1006 0.930 . S
H998 C1008 0.930 . S
H999 C1011 0.929 . S
H1000 C1014 0.930 . S
H1001 C1016 0.960 . S
H1002 C1016 0.960 . S
H1003 C1016 0.960 . S
C1004 H996 0.929 . S
C1004 C1005 1.377 . S
C1004 C1006 1.384 . S
C1005 C1004 1.377 . S
C1005 C1011 1.390 . S
C1006 H997 0.930 . S
C1006 C1004 1.384 . S
C1006 C1007 1.372 . S
C1007 C1006 1.372 . S
C1007 C1008 1.400 . S
C1007 C1012 1.490 . S
C1008 H998 0.930 . S
C1008 C1007 1.400 . S
C1008 C1011 1.386 . S
H1009 C1025 0.930 . S
H1010 C1026 0.931 . S
C1011 H999 0.929 . S
C1011 C1005 1.390 . S
C1011 C1008 1.386 . S
C1012 C1007 1.490 . S
C1012 C1014 1.395 . S
C1012 C1015 1.403 . S
H1013 C1019 0.930 . S
C1014 H1000 0.930 . S
C1014 C1012 1.395 . S
C1014 C1017 1.403 . S
C1015 C1012 1.403 . S
C1015 C1016 1.524 . S
C1015 C1019 1.400 . S
C1016 H1001 0.960 . S
C1016 H1002 0.960 . S
C1016 H1003 0.960 . S
C1016 C1015 1.524 . S
C1017 C1014 1.403 . S
C1017 C1018 1.392 . S
C1017 C1021 1.495 . S
C1018 C1017 1.392 . S
C1018 C1019 1.385 . S
C1018 C1020 1.478 . S
C1019 H1013 0.930 . S
C1019 C1015 1.400 . S
C1019 C1018 1.385 . S
C1020 C1018 1.478 . S
C1020 C1022 1.381 . S
C1020 C1026 1.383 . S
C1021 C1017 1.495 . S
C1021 H1027 0.959 . S
C1021 H1028 0.961 . S
C1021 H1029 0.960 . S
C1022 C1020 1.381 . S
C1022 C1023 1.394 . S
C1022 H1030 0.930 . S
C1023 C1022 1.394 . S
C1023 C1024 1.383 . S
C1023 H1031 0.929 . S
C1024 C1023 1.383 . S
C1024 C1025 1.377 . S
C1025 H1009 0.930 . S
C1025 C1024 1.377 . S
C1025 C1026 1.379 . S
C1026 H1010 0.931 . S
C1026 C1020 1.383 . S
C1026 C1025 1.379 . S
H1027 C1021 0.959 . S
H1028 C1021 0.961 . S
H1029 C1021 0.960 . S
H1030 C1022 0.930 . S
H1031 C1023 0.929 . S
H1032 C1040 0.929 . S
H1033 C1042 0.930 . S
H1034 C1044 0.930 . S
H1035 C1047 0.929 . S
H1036 C1050 0.930 . S
H1037 C1052 0.960 . S
H1038 C1052 0.960 . S
H1039 C1052 0.960 . S
C1040 H1032 0.929 . S
C1040 C1041 1.377 . S
C1040 C1042 1.384 . S
C1041 C1040 1.377 . S
C1041 C1047 1.390 . S
C1042 H1033 0.930 . S
C1042 C1040 1.384 . S
C1042 C1043 1.372 . S
C1043 C1042 1.372 . S
C1043 C1044 1.400 . S
C1043 C1048 1.490 . S
C1044 H1034 0.930 . S
C1044 C1043 1.400 . S
C1044 C1047 1.386 . S
H1045 C1061 0.930 . S
H1046 C1062 0.931 . S
C1047 H1035 0.929 . S
C1047 C1041 1.390 . S
C1047 C1044 1.386 . S
C1048 C1043 1.490 . S
C1048 C1050 1.395 . S
C1048 C1051 1.403 . S
H1049 C1055 0.930 . S
C1050 H1036 0.930 . S
C1050 C1048 1.395 . S
C1050 C1053 1.403 . S
C1051 C1048 1.403 . S
C1051 C1052 1.524 . S
C1051 C1055 1.400 . S
C1052 H1037 0.960 . S
C1052 H1038 0.960 . S
C1052 H1039 0.960 . S
C1052 C1051 1.524 . S
C1053 C1050 1.403 . S
C1053 C1054 1.392 . S
C1053 C1057 1.495 . S
C1054 C1053 1.392 . S
C1054 C1055 1.385 . S
C1054 C1056 1.478 . S
C1055 H1049 0.930 . S
C1055 C1051 1.400 . S
C1055 C1054 1.385 . S
C1056 C1054 1.478 . S
C1056 C1058 1.381 . S
C1056 C1062 1.383 . S
C1057 C1053 1.495 . S
C1057 H1063 0.959 . S
C1057 H1064 0.961 . S
C1057 H1065 0.960 . S
C1058 C1056 1.381 . S
C1058 C1059 1.394 . S
C1058 H1066 0.930 . S
C1059 C1058 1.394 . S
C1059 C1060 1.383 . S
C1059 H1067 0.929 . S
C1060 C1059 1.383 . S
C1060 C1061 1.377 . S
C1061 H1045 0.930 . S
C1061 C1060 1.377 . S
C1061 C1062 1.379 . S
C1062 H1046 0.931 . S
C1062 C1056 1.383 . S
C1062 C1061 1.379 . S
H1063 C1057 0.959 . S
H1064 C1057 0.961 . S
H1065 C1057 0.960 . S
H1066 C1058 0.930 . S
H1067 C1059 0.929 . S
H1068 C1076 0.936 . S
H1069 C1078 0.930 . S
H1070 C1080 0.930 . S
H1071 C1083 0.929 . S
H1072 C1086 0.930 . S
H1073 C1088 0.960 . S
H1074 C1088 0.960 . S
H1075 C1088 0.960 . S
C1076 H1068 0.936 . S
C1076 C1077 1.370 1_565 S
C1076 C1078 1.385 . S
C1077 C1076 1.370 1_545 S
C1077 C1083 1.390 . S
C1078 H1069 0.930 . S
C1078 C1076 1.385 . S
C1078 C1079 1.372 1_565 S
C1079 C1078 1.372 1_545 S
C1079 C1080 1.400 . S
C1079 C1084 1.490 . S
C1080 H1070 0.930 . S
C1080 C1079 1.400 . S
C1080 C1083 1.386 . S
H1081 C1097 0.930 . S
H1082 C1098 0.931 . S
C1083 H1071 0.929 . S
C1083 C1077 1.390 . S
C1083 C1080 1.386 . S
C1084 C1079 1.490 . S
C1084 C1086 1.395 1_545 S
C1084 C1087 1.403 . S
H1085 C1091 0.930 . S
C1086 H1072 0.930 . S
C1086 C1084 1.395 1_565 S
C1086 C1089 1.403 . S
C1087 C1084 1.403 . S
C1087 C1088 1.524 . S
C1087 C1091 1.400 . S
C1088 H1073 0.960 . S
C1088 H1074 0.960 . S
C1088 H1075 0.960 . S
C1088 C1087 1.524 . S
C1089 C1086 1.403 . S
C1089 C1090 1.392 1_565 S
C1089 C1093 1.495 . S
C1090 C1089 1.392 1_545 S
C1090 C1091 1.385 . S
C1090 C1092 1.484 . S
C1091 H1085 0.930 . S
C1091 C1087 1.400 . S
C1091 C1090 1.385 . S
C1092 C1090 1.484 . S
C1092 C1094 1.342 1_545 S
C1092 C1098 1.425 . S
C1093 C1089 1.495 . S
C1093 H1099 0.959 . S
C1093 H1100 0.961 . S
C1093 H1101 0.960 . S
C1094 C1092 1.342 1_565 S
C1094 C1095 1.394 . S
C1094 H1102 0.930 . S
C1095 C1094 1.394 . S
C1095 C1096 1.383 1_565 S
C1095 H1103 0.929 . S
C1096 C1095 1.383 1_545 S
C1096 C1097 1.377 . S
C1097 H1081 0.930 . S
C1097 C1096 1.377 . S
C1097 C1098 1.379 . S
C1098 H1082 0.931 . S
C1098 C1092 1.425 . S
C1098 C1097 1.379 . S
H1099 C1093 0.959 . S
H1100 C1093 0.961 . S
H1101 C1093 0.960 . S
H1102 C1094 0.930 . S
H1103 C1095 0.929 . S
H1104 C1112 0.929 . S
H1105 C1114 0.930 . S
H1106 C1116 0.937 . S
H1107 C1119 0.946 . S
H1108 C1122 0.930 . S
H1109 C1124 0.960 . S
H1110 C1124 0.960 . S
H1111 C1124 0.960 . S
C1112 H1104 0.929 . S
C1112 C1113 1.377 . S
C1112 C1114 1.384 . S
C1113 C1112 1.377 . S
C1113 C1119 1.377 1_554 S
C1114 H1105 0.930 . S
C1114 C1112 1.384 . S
C1114 C1115 1.372 . S
C1115 C1114 1.372 . S
C1115 C1116 1.393 1_554 S
C1115 C1120 1.490 . S
C1116 H1106 0.937 . S
C1116 C1115 1.393 1_556 S
C1116 C1119 1.385 . S
H1117 C1133 0.930 . S
H1118 C1134 0.931 . S
C1119 H1107 0.946 . S
C1119 C1113 1.377 1_556 S
C1119 C1116 1.385 . S
C1120 C1115 1.490 . S
C1120 C1122 1.395 1_554 S
C1120 C1123 1.403 . S
H1121 C1127 0.930 . S
C1122 H1108 0.930 . S
C1122 C1120 1.395 1_556 S
C1122 C1125 1.403 . S
C1123 C1120 1.403 . S
C1123 C1124 1.524 . S
C1123 C1127 1.400 . S
C1124 H1109 0.960 . S
C1124 H1110 0.960 . S
C1124 H1111 0.960 . S
C1124 C1123 1.524 . S
C1125 C1122 1.403 . S
C1125 C1126 1.392 1_556 S
C1125 C1129 1.495 . S
C1126 C1125 1.392 1_554 S
C1126 C1127 1.385 . S
C1126 C1128 1.478 . S
C1127 H1121 0.930 . S
C1127 C1123 1.400 . S
C1127 C1126 1.385 . S
C1128 C1126 1.478 . S
C1128 C1130 1.381 . S
C1128 C1134 1.383 1_554 S
C1129 C1125 1.495 . S
C1129 H1135 0.959 . S
C1129 H1136 0.961 . S
C1129 H1137 0.960 . S
C1130 C1128 1.381 . S
C1130 C1131 1.394 . S
C1130 H1138 0.930 . S
C1131 C1130 1.394 . S
C1131 C1132 1.383 . S
C1131 H1139 0.929 . S
C1132 C1131 1.383 . S
C1132 C1133 1.377 1_554 S
C1133 H1117 0.930 . S
C1133 C1132 1.377 1_556 S
C1133 C1134 1.379 . S
C1134 H1118 0.931 . S
C1134 C1128 1.383 1_556 S
C1134 C1133 1.379 . S
H1135 C1129 0.959 . S
H1136 C1129 0.961 . S
H1137 C1129 0.960 . S
H1138 C1130 0.930 . S
H1139 C1131 0.929 . S
H1140 C1148 0.929 . S
H1141 C1150 0.930 . S
H1142 C1152 0.930 . S
H1143 C1155 0.929 . S
H1144 C1158 0.930 . S
H1145 C1160 0.960 . S
H1146 C1160 0.960 . S
H1147 C1160 0.960 . S
C1148 H1140 0.929 . S
C1148 C1149 1.377 . S
C1148 C1150 1.384 . S
C1149 C1148 1.377 . S
C1149 C1155 1.390 . S
C1150 H1141 0.930 . S
C1150 C1148 1.384 . S
C1150 C1151 1.372 . S
C1151 C1150 1.372 . S
C1151 C1152 1.400 . S
C1151 C1156 1.490 . S
C1152 H1142 0.930 . S
C1152 C1151 1.400 . S
C1152 C1155 1.386 . S
H1153 C1169 0.930 . S
H1154 C1170 0.931 . S
C1155 H1143 0.929 . S
C1155 C1149 1.390 . S
C1155 C1152 1.386 . S
C1156 C1151 1.490 . S
C1156 C1158 1.395 . S
C1156 C1159 1.403 . S
H1157 C1163 0.930 . S
C1158 H1144 0.930 . S
C1158 C1156 1.395 . S
C1158 C1161 1.403 . S
C1159 C1156 1.403 . S
C1159 C1160 1.524 . S
C1159 C1163 1.400 . S
C1160 H1145 0.960 . S
C1160 H1146 0.960 . S
C1160 H1147 0.960 . S
C1160 C1159 1.524 . S
C1161 C1158 1.403 . S
C1161 C1162 1.392 . S
C1161 C1165 1.495 . S
C1162 C1161 1.392 . S
C1162 C1163 1.385 . S
C1162 C1164 1.478 . S
C1163 H1157 0.930 . S
C1163 C1159 1.400 . S
C1163 C1162 1.385 . S
C1164 C1162 1.478 . S
C1164 C1166 1.381 . S
C1164 C1170 1.383 . S
C1165 C1161 1.495 . S
C1165 H1171 0.959 . S
C1165 H1172 0.961 . S
C1165 H1173 0.960 . S
C1166 C1164 1.381 . S
C1166 C1167 1.394 . S
C1166 H1174 0.930 . S
C1167 C1166 1.394 . S
C1167 C1168 1.383 . S
C1167 H1175 0.929 . S
C1168 C1167 1.383 . S
C1168 C1169 1.377 . S
C1169 H1153 0.930 . S
C1169 C1168 1.377 . S
C1169 C1170 1.379 . S
C1170 H1154 0.931 . S
C1170 C1164 1.383 . S
C1170 C1169 1.379 . S
H1171 C1165 0.959 . S
H1172 C1165 0.961 . S
H1173 C1165 0.960 . S
H1174 C1166 0.930 . S
H1175 C1167 0.929 . S
H1176 C1184 0.929 . S
H1177 C1186 0.930 . S
H1178 C1188 0.930 . S
H1179 C1191 0.929 . S
H1180 C1194 0.930 . S
H1181 C1196 0.960 . S
H1182 C1196 0.960 . S
H1183 C1196 0.960 . S
C1184 H1176 0.929 . S
C1184 C1185 1.377 . S
C1184 C1186 1.384 . S
C1185 C1184 1.377 . S
C1185 C1191 1.390 . S
C1186 H1177 0.930 . S
C1186 C1184 1.384 . S
C1186 C1187 1.372 . S
C1187 C1186 1.372 . S
C1187 C1188 1.400 . S
C1187 C1192 1.490 . S
C1188 H1178 0.930 . S
C1188 C1187 1.400 . S
C1188 C1191 1.386 . S
H1189 C1205 0.930 . S
H1190 C1206 0.931 . S
C1191 H1179 0.929 . S
C1191 C1185 1.390 . S
C1191 C1188 1.386 . S
C1192 C1187 1.490 . S
C1192 C1194 1.395 . S
C1192 C1195 1.403 . S
H1193 C1199 0.895 1_655 S
C1194 H1180 0.930 . S
C1194 C1192 1.395 . S
C1194 C1197 1.403 . S
C1195 C1192 1.403 . S
C1195 C1196 1.524 1_455 S
C1195 C1199 1.400 . S
C1196 H1181 0.960 . S
C1196 H1182 0.960 . S
C1196 H1183 0.960 . S
C1196 C1195 1.524 1_655 S
C1197 C1194 1.403 . S
C1197 C1198 1.392 . S
C1197 C1201 1.495 . S
C1198 C1197 1.392 . S
C1198 C1199 1.385 . S
C1198 C1200 1.478 . S
C1199 H1193 0.895 1_455 S
C1199 C1195 1.400 . S
C1199 C1198 1.385 . S
C1200 C1198 1.478 . S
C1200 C1202 1.381 . S
C1200 C1206 1.383 . S
C1201 C1197 1.495 . S
C1201 H1207 0.959 . S
C1201 H1208 0.961 . S
C1201 H1209 0.960 . S
C1202 C1200 1.381 . S
C1202 C1203 1.394 . S
C1202 H1210 0.930 . S
C1203 C1202 1.394 . S
C1203 C1204 1.383 . S
C1203 H1211 0.929 . S
C1204 C1203 1.383 . S
C1204 C1205 1.377 . S
C1205 H1189 0.930 . S
C1205 C1204 1.377 . S
C1205 C1206 1.379 . S
C1206 H1190 0.931 . S
C1206 C1200 1.383 . S
C1206 C1205 1.379 . S
H1207 C1201 0.959 . S
H1208 C1201 0.961 . S
H1209 C1201 0.960 . S
H1210 C1202 0.930 . S
H1211 C1203 0.929 . S
H1212 C1220 0.929 . S
H1213 C1222 0.930 . S
H1214 C1224 0.930 . S
H1215 C1227 0.929 . S
H1216 C1230 0.930 . S
H1217 C1232 0.960 . S
H1218 C1232 0.960 . S
H1219 C1232 0.960 . S
C1220 H1212 0.929 . S
C1220 C1221 1.377 . S
C1220 C1222 1.384 . S
C1221 C1220 1.377 . S
C1221 C1227 1.390 . S
C1222 H1213 0.930 . S
C1222 C1220 1.384 . S
C1222 C1223 1.372 . S
C1223 C1222 1.372 . S
C1223 C1224 1.400 . S
C1223 C1228 1.490 . S
C1224 H1214 0.930 . S
C1224 C1223 1.400 . S
C1224 C1227 1.386 . S
H1225 C1241 0.930 . S
H1226 C1242 0.931 . S
C1227 H1215 0.929 . S
C1227 C1221 1.390 . S
C1227 C1224 1.386 . S
C1228 C1223 1.490 . S
C1228 C1230 1.395 . S
C1228 C1231 1.403 . S
H1229 C1235 0.930 . S
C1230 H1216 0.930 . S
C1230 C1228 1.395 . S
C1230 C1233 1.403 . S
C1231 C1228 1.403 . S
C1231 C1232 1.524 . S
C1231 C1235 1.400 . S
C1232 H1217 0.960 . S
C1232 H1218 0.960 . S
C1232 H1219 0.960 . S
C1232 C1231 1.524 . S
C1233 C1230 1.403 . S
C1233 C1234 1.392 . S
C1233 C1237 1.495 . S
C1234 C1233 1.392 . S
C1234 C1235 1.385 . S
C1234 C1236 1.478 . S
C1235 H1229 0.930 . S
C1235 C1231 1.400 . S
C1235 C1234 1.385 . S
C1236 C1234 1.478 . S
C1236 C1238 1.381 . S
C1236 C1242 1.383 . S
C1237 C1233 1.495 . S
C1237 H1243 0.959 . S
C1237 H1244 0.961 . S
C1237 H1245 0.960 . S
C1238 C1236 1.381 . S
C1238 C1239 1.394 . S
C1238 H1246 0.930 . S
C1239 C1238 1.394 . S
C1239 C1240 1.383 . S
C1239 H1247 0.929 . S
C1240 C1239 1.383 . S
C1240 C1241 1.377 . S
C1241 H1225 0.930 . S
C1241 C1240 1.377 . S
C1241 C1242 1.379 . S
C1242 H1226 0.931 . S
C1242 C1236 1.383 . S
C1242 C1241 1.379 . S
H1243 C1237 0.959 . S
H1244 C1237 0.961 . S
H1245 C1237 0.960 . S
H1246 C1238 0.930 . S
H1247 C1239 0.929 . S
H1248 C1256 0.929 . S
H1249 C1258 0.930 . S
H1250 C1260 0.930 . S
H1251 C1263 0.929 . S
H1252 C1266 0.930 . S
H1253 C1268 0.960 . S
H1254 C1268 0.960 . S
H1255 C1268 0.960 . S
C1256 H1248 0.929 . S
C1256 C1257 1.377 . S
C1256 C1258 1.384 . S
C1257 C1256 1.377 . S
C1257 C1263 1.390 . S
C1258 H1249 0.930 . S
C1258 C1256 1.384 . S
C1258 C1259 1.372 . S
C1259 C1258 1.372 . S
C1259 C1260 1.400 . S
C1259 C1264 1.490 . S
C1260 H1250 0.930 . S
C1260 C1259 1.400 . S
C1260 C1263 1.386 . S
H1261 C1277 0.930 . S
H1262 C1278 0.931 . S
C1263 H1251 0.929 . S
C1263 C1257 1.390 . S
C1263 C1260 1.386 . S
C1264 C1259 1.490 . S
C1264 C1266 1.395 . S
C1264 C1267 1.403 . S
H1265 C1271 0.930 . S
C1266 H1252 0.930 . S
C1266 C1264 1.395 . S
C1266 C1269 1.403 . S
C1267 C1264 1.403 . S
C1267 C1268 1.524 . S
C1267 C1271 1.400 . S
C1268 H1253 0.960 . S
C1268 H1254 0.960 . S
C1268 H1255 0.960 . S
C1268 C1267 1.524 . S
C1269 C1266 1.403 . S
C1269 C1270 1.392 . S
C1269 C1273 1.495 . S
C1270 C1269 1.392 . S
C1270 C1271 1.385 . S
C1270 C1272 1.478 . S
C1271 H1265 0.930 . S
C1271 C1267 1.400 . S
C1271 C1270 1.385 . S
C1272 C1270 1.478 . S
C1272 C1274 1.381 . S
C1272 C1278 1.383 . S
C1273 C1269 1.495 . S
C1273 H1279 0.959 . S
C1273 H1280 0.961 . S
C1273 H1281 0.960 . S
C1274 C1272 1.381 . S
C1274 C1275 1.394 . S
C1274 H1282 0.930 . S
C1275 C1274 1.394 . S
C1275 C1276 1.383 . S
C1275 H1283 0.929 . S
C1276 C1275 1.383 . S
C1276 C1277 1.377 . S
C1277 H1261 0.930 . S
C1277 C1276 1.377 . S
C1277 C1278 1.379 . S
C1278 H1262 0.931 . S
C1278 C1272 1.383 . S
C1278 C1277 1.379 . S
H1279 C1273 0.959 . S
H1280 C1273 0.961 . S
H1281 C1273 0.960 . S
H1282 C1274 0.930 . S
H1283 C1275 0.929 . S
H1284 C1292 0.929 . S
H1285 C1294 0.930 . S
H1286 C1296 0.930 . S
H1287 C1299 0.929 . S
H1288 C1302 0.930 . S
H1289 C1304 0.960 . S
H1290 C1304 0.960 . S
H1291 C1304 0.960 . S
C1292 H1284 0.929 . S
C1292 C1293 1.377 1_565 S
C1292 C1294 1.384 . S
C1293 C1292 1.377 1_545 S
C1293 C1299 1.390 . S
C1294 H1285 0.930 . S
C1294 C1292 1.384 . S
C1294 C1295 1.372 1_565 S
C1295 C1294 1.372 1_545 S
C1295 C1296 1.400 . S
C1295 C1300 1.490 . S
C1296 H1286 0.930 . S
C1296 C1295 1.400 . S
C1296 C1299 1.386 . S
H1297 C1313 0.930 . S
H1298 C1314 0.931 . S
C1299 H1287 0.929 . S
C1299 C1293 1.390 . S
C1299 C1296 1.386 . S
C1300 C1295 1.490 . S
C1300 C1302 1.395 . S
C1300 C1303 1.403 . S
H1301 C1307 0.930 . S
C1302 H1288 0.930 . S
C1302 C1300 1.395 . S
C1302 C1305 1.403 . S
C1303 C1300 1.403 . S
C1303 C1304 1.524 . S
C1303 C1307 1.400 . S
C1304 H1289 0.960 . S
C1304 H1290 0.960 . S
C1304 H1291 0.960 . S
C1304 C1303 1.524 . S
C1305 C1302 1.403 . S
C1305 C1306 1.392 . S
C1305 C1309 1.495 . S
C1306 C1305 1.392 . S
C1306 C1307 1.385 . S
C1306 C1308 1.478 . S
C1307 H1301 0.930 . S
C1307 C1303 1.400 . S
C1307 C1306 1.385 . S
C1308 C1306 1.478 . S
C1308 C1310 1.381 1_545 S
C1308 C1314 1.383 . S
C1309 C1305 1.495 . S
C1309 H1315 0.973 . S
C1309 H1316 0.961 . S
C1309 H1317 0.960 1_545 S
C1310 C1308 1.381 1_565 S
C1310 C1311 1.403 . S
C1310 H1318 0.930 . S
C1311 C1310 1.403 . S
C1311 C1312 1.293 1_565 S
C1311 H1319 1.017 . S
C1312 C1311 1.293 1_545 S
C1312 C1313 1.377 . S
C1313 H1297 0.930 . S
C1313 C1312 1.377 . S
C1313 C1314 1.379 . S
C1314 H1298 0.931 . S
C1314 C1308 1.383 . S
C1314 C1313 1.379 . S
H1315 C1309 0.973 . S
H1316 C1309 0.961 . S
H1317 C1309 0.960 1_565 S
H1318 C1310 0.930 . S
H1319 C1311 1.017 . S
H1320 C1328 0.929 . S
H1321 C1330 0.930 . S
H1322 C1332 0.930 . S
H1323 C1335 0.929 . S
H1324 C1338 0.930 . S
H1325 C1340 0.960 . S
H1326 C1340 0.959 1_554 S
H1327 C1340 0.961 . S
C1328 H1320 0.929 . S
C1328 C1329 1.377 . S
C1328 C1330 1.384 . S
C1329 C1328 1.377 . S
C1329 C1335 1.390 1_554 S
C1330 H1321 0.930 . S
C1330 C1328 1.384 . S
C1330 C1331 1.372 . S
C1331 C1330 1.372 . S
C1331 C1332 1.400 1_554 S
C1331 C1336 1.490 . S
C1332 H1322 0.930 . S
C1332 C1331 1.400 1_556 S
C1332 C1335 1.386 . S
H1333 C1349 0.930 . S
H1334 C1350 0.931 . S
C1335 H1323 0.929 . S
C1335 C1329 1.390 1_556 S
C1335 C1332 1.386 . S
C1336 C1331 1.490 . S
C1336 C1338 1.395 . S
C1336 C1339 1.418 . S
H1337 C1343 0.922 1_556 S
C1338 H1324 0.930 . S
C1338 C1336 1.395 . S
C1338 C1341 1.403 . S
C1339 C1336 1.418 . S
C1339 C1340 1.519 1_554 S
C1339 C1343 1.400 . S
C1340 H1325 0.960 . S
C1340 H1326 0.959 1_556 S
C1340 H1327 0.961 . S
C1340 C1339 1.519 1_556 S
C1341 C1338 1.403 . S
C1341 C1342 1.392 . S
C1341 C1345 1.495 . S
C1342 C1341 1.392 . S
C1342 C1343 1.394 . S
C1342 C1344 1.478 . S
C1343 H1337 0.922 1_554 S
C1343 C1339 1.400 . S
C1343 C1342 1.394 . S
C1344 C1342 1.478 . S
C1344 C1346 1.381 . S
C1344 C1350 1.383 1_554 S
C1345 C1341 1.495 . S
C1345 H1351 0.959 . S
C1345 H1352 0.961 1_554 S
C1345 H1353 0.960 . S
C1346 C1344 1.381 . S
C1346 C1347 1.394 . S
C1346 H1354 0.930 . S
C1347 C1346 1.394 . S
C1347 C1348 1.456 . S
C1347 H1355 0.929 . S
C1348 C1347 1.456 . S
C1348 C1349 1.308 1_554 S
C1349 H1333 0.930 . S
C1349 C1348 1.308 1_556 S
C1349 C1350 1.379 . S
C1350 H1334 0.931 . S
C1350 C1344 1.383 1_556 S
C1350 C1349 1.379 . S
H1351 C1345 0.959 . S
H1352 C1345 0.961 1_556 S
H1353 C1345 0.960 . S
H1354 C1346 0.930 . S
H1355 C1347 0.929 . S
H1356 C1364 0.929 . S
H1357 C1366 0.930 . S
H1358 C1368 0.930 . S
H1359 C1371 0.929 . S
H1360 C1374 0.930 . S
H1361 C1376 0.960 . S
H1362 C1376 0.960 . S
H1363 C1376 0.960 . S
C1364 H1356 0.929 . S
C1364 C1365 1.377 . S
C1364 C1366 1.384 . S
C1365 C1364 1.377 . S
C1365 C1371 1.390 . S
C1366 H1357 0.930 . S
C1366 C1364 1.384 . S
C1366 C1367 1.372 . S
C1367 C1366 1.372 . S
C1367 C1368 1.400 . S
C1367 C1372 1.490 . S
C1368 H1358 0.930 . S
C1368 C1367 1.400 . S
C1368 C1371 1.386 . S
H1369 C1385 0.930 . S
H1370 C1386 0.931 . S
C1371 H1359 0.929 . S
C1371 C1365 1.390 . S
C1371 C1368 1.386 . S
C1372 C1367 1.490 . S
C1372 C1374 1.395 . S
C1372 C1375 1.403 . S
H1373 C1379 0.930 . S
C1374 H1360 0.930 . S
C1374 C1372 1.395 . S
C1374 C1377 1.403 . S
C1375 C1372 1.403 . S
C1375 C1376 1.524 . S
C1375 C1379 1.400 . S
C1376 H1361 0.960 . S
C1376 H1362 0.960 . S
C1376 H1363 0.960 . S
C1376 C1375 1.524 . S
C1377 C1374 1.403 . S
C1377 C1378 1.392 . S
C1377 C1381 1.495 . S
C1378 C1377 1.392 . S
C1378 C1379 1.385 . S
C1378 C1380 1.478 . S
C1379 H1373 0.930 . S
C1379 C1375 1.400 . S
C1379 C1378 1.385 . S
C1380 C1378 1.478 . S
C1380 C1382 1.381 . S
C1380 C1386 1.383 . S
C1381 C1377 1.495 . S
C1381 H1387 0.959 . S
C1381 H1388 0.961 . S
C1381 H1389 0.960 . S
C1382 C1380 1.381 . S
C1382 C1383 1.394 . S
C1382 H1390 0.930 . S
C1383 C1382 1.394 . S
C1383 C1384 1.383 . S
C1383 H1391 0.929 . S
C1384 C1383 1.383 . S
C1384 C1385 1.377 . S
C1385 H1369 0.930 . S
C1385 C1384 1.377 . S
C1385 C1386 1.379 . S
C1386 H1370 0.931 . S
C1386 C1380 1.383 . S
C1386 C1385 1.379 . S
H1387 C1381 0.959 . S
H1388 C1381 0.961 . S
H1389 C1381 0.960 . S
H1390 C1382 0.930 . S
H1391 C1383 0.929 . S
H1392 C1400 0.929 . S
H1393 C1402 0.930 . S
H1394 C1404 0.930 . S
H1395 C1407 0.929 . S
H1396 C1410 0.930 . S
H1397 C1412 0.960 . S
H1398 C1412 0.960 . S
H1399 C1412 0.960 . S
C1400 H1392 0.929 . S
C1400 C1401 1.377 . S
C1400 C1402 1.384 . S
C1401 C1400 1.377 . S
C1401 C1407 1.390 . S
C1402 H1393 0.930 . S
C1402 C1400 1.384 . S
C1402 C1403 1.372 . S
C1403 C1402 1.372 . S
C1403 C1404 1.400 . S
C1403 C1408 1.490 . S
C1404 H1394 0.930 . S
C1404 C1403 1.400 . S
C1404 C1407 1.386 . S
H1405 C1421 0.930 . S
H1406 C1422 0.931 . S
C1407 H1395 0.929 . S
C1407 C1401 1.390 . S
C1407 C1404 1.386 . S
C1408 C1403 1.490 . S
C1408 C1410 1.395 . S
C1408 C1411 1.403 . S
H1409 C1415 0.930 . S
C1410 H1396 0.930 . S
C1410 C1408 1.395 . S
C1410 C1413 1.403 . S
C1411 C1408 1.403 . S
C1411 C1412 1.524 . S
C1411 C1415 1.400 . S
C1412 H1397 0.960 . S
C1412 H1398 0.960 . S
C1412 H1399 0.960 . S
C1412 C1411 1.524 . S
C1413 C1410 1.403 . S
C1413 C1414 1.392 . S
C1413 C1417 1.495 . S
C1414 C1413 1.392 . S
C1414 C1415 1.385 . S
C1414 C1416 1.478 . S
C1415 H1409 0.930 . S
C1415 C1411 1.400 . S
C1415 C1414 1.385 . S
C1416 C1414 1.478 . S
C1416 C1418 1.381 . S
C1416 C1422 1.383 . S
C1417 C1413 1.495 . S
C1417 H1423 0.959 . S
C1417 H1424 0.961 . S
C1417 H1425 0.960 . S
C1418 C1416 1.381 . S
C1418 C1419 1.394 . S
C1418 H1426 0.930 . S
C1419 C1418 1.394 . S
C1419 C1420 1.383 . S
C1419 H1427 0.929 . S
C1420 C1419 1.383 . S
C1420 C1421 1.377 . S
C1421 H1405 0.930 . S
C1421 C1420 1.377 . S
C1421 C1422 1.379 . S
C1422 H1406 0.931 . S
C1422 C1416 1.383 . S
C1422 C1421 1.379 . S
H1423 C1417 0.959 . S
H1424 C1417 0.961 . S
H1425 C1417 0.960 . S
H1426 C1418 0.930 . S
H1427 C1419 0.929 . S
H1428 C1436 0.929 . S
H1429 C1438 0.930 . S
H1430 C1440 0.930 . S
H1431 C1443 0.929 . S
H1432 C1446 0.930 . S
H1433 C1448 0.960 . S
H1434 C1448 0.960 . S
H1435 C1448 0.960 . S
C1436 H1428 0.929 . S
C1436 C1437 1.377 . S
C1436 C1438 1.384 . S
C1437 C1436 1.377 . S
C1437 C1443 1.390 . S
C1438 H1429 0.930 . S
C1438 C1436 1.384 . S
C1438 C1439 1.372 . S
C1439 C1438 1.372 . S
C1439 C1440 1.400 . S
C1439 C1444 1.490 . S
C1440 H1430 0.930 . S
C1440 C1439 1.400 . S
C1440 C1443 1.386 . S
H1441 C1457 0.930 . S
H1442 C1458 0.931 . S
C1443 H1431 0.929 . S
C1443 C1437 1.390 . S
C1443 C1440 1.386 . S
C1444 C1439 1.490 . S
C1444 C1446 1.395 . S
C1444 C1447 1.403 . S
H1445 C1451 0.930 . S
C1446 H1432 0.930 . S
C1446 C1444 1.395 . S
C1446 C1449 1.403 . S
C1447 C1444 1.403 . S
C1447 C1448 1.524 . S
C1447 C1451 1.400 . S
C1448 H1433 0.960 . S
C1448 H1434 0.960 . S
C1448 H1435 0.960 . S
C1448 C1447 1.524 . S
C1449 C1446 1.403 . S
C1449 C1450 1.392 . S
C1449 C1453 1.495 . S
C1450 C1449 1.392 . S
C1450 C1451 1.385 . S
C1450 C1452 1.478 . S
C1451 H1445 0.930 . S
C1451 C1447 1.400 . S
C1451 C1450 1.385 . S
C1452 C1450 1.478 . S
C1452 C1454 1.381 . S
C1452 C1458 1.383 . S
C1453 C1449 1.495 . S
C1453 H1459 0.959 . S
C1453 H1460 0.961 . S
C1453 H1461 0.960 . S
C1454 C1452 1.381 . S
C1454 C1455 1.394 . S
C1454 H1462 0.930 . S
C1455 C1454 1.394 . S
C1455 C1456 1.383 . S
C1455 H1463 0.929 . S
C1456 C1455 1.383 . S
C1456 C1457 1.377 . S
C1457 H1441 0.930 . S
C1457 C1456 1.377 . S
C1457 C1458 1.379 . S
C1458 H1442 0.931 . S
C1458 C1452 1.383 . S
C1458 C1457 1.379 . S
H1459 C1453 0.959 . S
H1460 C1453 0.961 . S
H1461 C1453 0.960 . S
H1462 C1454 0.930 . S
H1463 C1455 0.929 . S
H1464 C1472 0.929 . S
H1465 C1474 0.930 . S
H1466 C1476 0.930 . S
H1467 C1479 0.929 . S
H1468 C1482 0.930 . S
H1469 C1484 0.960 . S
H1470 C1484 0.960 . S
H1471 C1484 0.960 . S
C1472 H1464 0.929 . S
C1472 C1473 1.377 . S
C1472 C1474 1.384 . S
C1473 C1472 1.377 . S
C1473 C1479 1.390 . S
C1474 H1465 0.930 . S
C1474 C1472 1.384 . S
C1474 C1475 1.372 . S
C1475 C1474 1.372 . S
C1475 C1476 1.400 . S
C1475 C1480 1.490 . S
C1476 H1466 0.930 . S
C1476 C1475 1.400 . S
C1476 C1479 1.386 . S
H1477 C1493 0.930 . S
H1478 C1494 0.931 . S
C1479 H1467 0.929 . S
C1479 C1473 1.390 . S
C1479 C1476 1.386 . S
C1480 C1475 1.490 . S
C1480 C1482 1.395 . S
C1480 C1483 1.403 . S
H1481 C1487 0.930 . S
C1482 H1468 0.930 . S
C1482 C1480 1.395 . S
C1482 C1485 1.403 . S
C1483 C1480 1.403 . S
C1483 C1484 1.524 . S
C1483 C1487 1.400 . S
C1484 H1469 0.960 . S
C1484 H1470 0.960 . S
C1484 H1471 0.960 . S
C1484 C1483 1.524 . S
C1485 C1482 1.403 . S
C1485 C1486 1.392 . S
C1485 C1489 1.495 . S
C1486 C1485 1.392 . S
C1486 C1487 1.385 . S
C1486 C1488 1.478 . S
C1487 H1481 0.930 . S
C1487 C1483 1.400 . S
C1487 C1486 1.385 . S
C1488 C1486 1.478 . S
C1488 C1490 1.381 . S
C1488 C1494 1.383 . S
C1489 C1485 1.495 . S
C1489 H1495 0.959 . S
C1489 H1496 0.961 . S
C1489 H1497 0.960 . S
C1490 C1488 1.381 . S
C1490 C1491 1.394 . S
C1490 H1498 0.930 . S
C1491 C1490 1.394 . S
C1491 C1492 1.383 . S
C1491 H1499 0.929 . S
C1492 C1491 1.383 . S
C1492 C1493 1.377 . S
C1493 H1477 0.930 . S
C1493 C1492 1.377 . S
C1493 C1494 1.379 . S
C1494 H1478 0.931 . S
C1494 C1488 1.383 . S
C1494 C1493 1.379 . S
H1495 C1489 0.959 . S
H1496 C1489 0.961 . S
H1497 C1489 0.960 . S
H1498 C1490 0.930 . S
H1499 C1491 0.929 . S
H1500 C1508 0.929 . S
H1501 C1510 0.930 . S
H1502 C1512 0.930 . S
H1503 C1515 0.929 . S
H1504 C1518 0.930 . S
H1505 C1520 0.960 . S
H1506 C1520 0.960 . S
H1507 C1520 0.960 . S
C1508 H1500 0.929 . S
C1508 C1509 1.377 . S
C1508 C1510 1.384 . S
C1509 C1508 1.377 . S
C1509 C1515 1.390 . S
C1510 H1501 0.930 . S
C1510 C1508 1.384 . S
C1510 C1511 1.372 . S
C1511 C1510 1.372 . S
C1511 C1512 1.400 . S
C1511 C1516 1.490 . S
C1512 H1502 0.930 . S
C1512 C1511 1.400 . S
C1512 C1515 1.386 . S
H1513 C1529 0.930 . S
H1514 C1530 0.931 . S
C1515 H1503 0.929 . S
C1515 C1509 1.390 . S
C1515 C1512 1.386 . S
C1516 C1511 1.490 . S
C1516 C1518 1.395 . S
C1516 C1519 1.403 . S
H1517 C1523 0.930 . S
C1518 H1504 0.930 . S
C1518 C1516 1.395 . S
C1518 C1521 1.403 . S
C1519 C1516 1.403 . S
C1519 C1520 1.524 . S
C1519 C1523 1.400 . S
C1520 H1505 0.960 . S
C1520 H1506 0.960 . S
C1520 H1507 0.960 . S
C1520 C1519 1.524 . S
C1521 C1518 1.403 . S
C1521 C1522 1.392 . S
C1521 C1525 1.495 . S
C1522 C1521 1.392 . S
C1522 C1523 1.385 . S
C1522 C1524 1.478 . S
C1523 H1517 0.930 . S
C1523 C1519 1.400 . S
C1523 C1522 1.385 . S
C1524 C1522 1.478 . S
C1524 C1526 1.381 . S
C1524 C1530 1.383 . S
C1525 C1521 1.495 . S
C1525 H1531 0.959 . S
C1525 H1532 0.961 . S
C1525 H1533 0.960 . S
C1526 C1524 1.381 . S
C1526 C1527 1.394 . S
C1526 H1534 0.930 . S
C1527 C1526 1.394 . S
C1527 C1528 1.383 . S
C1527 H1535 0.929 . S
C1528 C1527 1.383 . S
C1528 C1529 1.377 . S
C1529 H1513 0.930 . S
C1529 C1528 1.377 . S
C1529 C1530 1.379 . S
C1530 H1514 0.931 . S
C1530 C1524 1.383 . S
C1530 C1529 1.379 . S
H1531 C1525 0.959 . S
H1532 C1525 0.961 . S
H1533 C1525 0.960 . S
H1534 C1526 0.930 . S
H1535 C1527 0.929 . S
H1536 C1544 0.929 . S
H1537 C1546 0.930 . S
H1538 C1548 0.930 . S
H1539 C1551 0.929 . S
H1540 C1554 0.930 . S
H1541 C1556 0.960 . S
H1542 C1556 0.960 . S
H1543 C1556 0.960 . S
C1544 H1536 0.929 . S
C1544 C1545 1.377 . S
C1544 C1546 1.384 . S
C1545 C1544 1.377 . S
C1545 C1551 1.390 . S
C1546 H1537 0.930 . S
C1546 C1544 1.384 . S
C1546 C1547 1.372 . S
C1547 C1546 1.372 . S
C1547 C1548 1.400 . S
C1547 C1552 1.490 . S
C1548 H1538 0.930 . S
C1548 C1547 1.400 . S
C1548 C1551 1.386 . S
H1549 C1565 0.930 . S
H1550 C1566 0.931 . S
C1551 H1539 0.929 . S
C1551 C1545 1.390 . S
C1551 C1548 1.386 . S
C1552 C1547 1.490 . S
C1552 C1554 1.395 . S
C1552 C1555 1.403 . S
H1553 C1559 0.930 . S
C1554 H1540 0.930 . S
C1554 C1552 1.395 . S
C1554 C1557 1.403 . S
C1555 C1552 1.403 . S
C1555 C1556 1.524 . S
C1555 C1559 1.400 . S
C1556 H1541 0.960 . S
C1556 H1542 0.960 . S
C1556 H1543 0.960 . S
C1556 C1555 1.524 . S
C1557 C1554 1.403 . S
C1557 C1558 1.392 . S
C1557 C1561 1.495 . S
C1558 C1557 1.392 . S
C1558 C1559 1.385 . S
C1558 C1560 1.478 . S
C1559 H1553 0.930 . S
C1559 C1555 1.400 . S
C1559 C1558 1.385 . S
C1560 C1558 1.478 . S
C1560 C1562 1.381 . S
C1560 C1566 1.383 . S
C1561 C1557 1.495 . S
C1561 H1567 0.959 . S
C1561 H1568 0.961 . S
C1561 H1569 0.960 . S
C1562 C1560 1.381 . S
C1562 C1563 1.394 . S
C1562 H1570 0.930 . S
C1563 C1562 1.394 . S
C1563 C1564 1.383 . S
C1563 H1571 0.929 . S
C1564 C1563 1.383 . S
C1564 C1565 1.377 . S
C1565 H1549 0.930 . S
C1565 C1564 1.377 . S
C1565 C1566 1.379 . S
C1566 H1550 0.931 . S
C1566 C1560 1.383 . S
C1566 C1565 1.379 . S
H1567 C1561 0.959 . S
H1568 C1561 0.961 . S
H1569 C1561 0.960 . S
H1570 C1562 0.930 . S
H1571 C1563 0.929 . S
H1572 C1580 0.929 . S
H1573 C1582 0.930 . S
H1574 C1584 0.930 . S
H1575 C1587 0.929 . S
H1576 C1590 0.930 . S
H1577 C1592 0.960 . S
H1578 C1592 0.960 . S
H1579 C1592 0.960 . S
C1580 H1572 0.929 . S
C1580 C1581 1.377 . S
C1580 C1582 1.384 . S
C1581 C1580 1.377 . S
C1581 C1587 1.390 . S
C1582 H1573 0.930 . S
C1582 C1580 1.384 . S
C1582 C1583 1.372 . S
C1583 C1582 1.372 . S
C1583 C1584 1.400 . S
C1583 C1588 1.490 . S
C1584 H1574 0.930 . S
C1584 C1583 1.400 . S
C1584 C1587 1.386 . S
H1585 C1601 0.930 . S
H1586 C1602 0.931 . S
C1587 H1575 0.929 . S
C1587 C1581 1.390 . S
C1587 C1584 1.386 . S
C1588 C1583 1.490 . S
C1588 C1590 1.395 . S
C1588 C1591 1.403 . S
H1589 C1595 0.930 . S
C1590 H1576 0.930 . S
C1590 C1588 1.395 . S
C1590 C1593 1.403 . S
C1591 C1588 1.403 . S
C1591 C1592 1.524 . S
C1591 C1595 1.400 . S
C1592 H1577 0.960 . S
C1592 H1578 0.960 . S
C1592 H1579 0.960 . S
C1592 C1591 1.524 . S
C1593 C1590 1.403 . S
C1593 C1594 1.392 . S
C1593 C1597 1.495 . S
C1594 C1593 1.392 . S
C1594 C1595 1.385 . S
C1594 C1596 1.478 . S
C1595 H1589 0.930 . S
C1595 C1591 1.400 . S
C1595 C1594 1.385 . S
C1596 C1594 1.478 . S
C1596 C1598 1.381 . S
C1596 C1602 1.383 . S
C1597 C1593 1.495 . S
C1597 H1603 0.959 . S
C1597 H1604 0.961 . S
C1597 H1605 0.960 . S
C1598 C1596 1.381 . S
C1598 C1599 1.394 . S
C1598 H1606 0.930 . S
C1599 C1598 1.394 . S
C1599 C1600 1.383 . S
C1599 H1607 0.929 . S
C1600 C1599 1.383 . S
C1600 C1601 1.377 . S
C1601 H1585 0.930 . S
C1601 C1600 1.377 . S
C1601 C1602 1.379 . S
C1602 H1586 0.931 . S
C1602 C1596 1.383 . S
C1602 C1601 1.379 . S
H1603 C1597 0.959 . S
H1604 C1597 0.961 . S
H1605 C1597 0.960 . S
H1606 C1598 0.930 . S
H1607 C1599 0.929 . S
H1608 C1616 0.929 . S
H1609 C1618 0.930 . S
H1610 C1620 0.930 . S
H1611 C1623 0.929 . S
H1612 C1626 0.930 . S
H1613 C1628 0.960 . S
H1614 C1628 0.960 . S
H1615 C1628 0.960 . S
C1616 H1608 0.929 . S
C1616 C1617 1.377 . S
C1616 C1618 1.384 . S
C1617 C1616 1.377 . S
C1617 C1623 1.390 . S
C1618 H1609 0.930 . S
C1618 C1616 1.384 . S
C1618 C1619 1.372 . S
C1619 C1618 1.372 . S
C1619 C1620 1.400 . S
C1619 C1624 1.490 . S
C1620 H1610 0.930 . S
C1620 C1619 1.400 . S
C1620 C1623 1.386 . S
H1621 C1637 0.930 . S
H1622 C1638 0.931 . S
C1623 H1611 0.929 . S
C1623 C1617 1.390 . S
C1623 C1620 1.386 . S
C1624 C1619 1.490 . S
C1624 C1626 1.395 . S
C1624 C1627 1.403 . S
H1625 C1631 0.930 . S
C1626 H1612 0.930 . S
C1626 C1624 1.395 . S
C1626 C1629 1.403 . S
C1627 C1624 1.403 . S
C1627 C1628 1.524 . S
C1627 C1631 1.400 . S
C1628 H1613 0.960 . S
C1628 H1614 0.960 . S
C1628 H1615 0.960 . S
C1628 C1627 1.524 . S
C1629 C1626 1.403 . S
C1629 C1630 1.392 . S
C1629 C1633 1.495 . S
C1630 C1629 1.392 . S
C1630 C1631 1.385 . S
C1630 C1632 1.478 . S
C1631 H1625 0.930 . S
C1631 C1627 1.400 . S
C1631 C1630 1.385 . S
C1632 C1630 1.478 . S
C1632 C1634 1.381 . S
C1632 C1638 1.383 . S
C1633 C1629 1.495 . S
C1633 H1639 0.959 . S
C1633 H1640 0.961 . S
C1633 H1641 0.960 . S
C1634 C1632 1.381 . S
C1634 C1635 1.394 . S
C1634 H1642 0.930 . S
C1635 C1634 1.394 . S
C1635 C1636 1.383 . S
C1635 H1643 0.929 . S
C1636 C1635 1.383 . S
C1636 C1637 1.377 . S
C1637 H1621 0.930 . S
C1637 C1636 1.377 . S
C1637 C1638 1.379 . S
C1638 H1622 0.931 . S
C1638 C1632 1.383 . S
C1638 C1637 1.379 . S
H1639 C1633 0.959 . S
H1640 C1633 0.961 . S
H1641 C1633 0.960 . S
H1642 C1634 0.930 . S
H1643 C1635 0.929 . S
H1644 C1652 0.929 . S
H1645 C1654 0.930 . S
H1646 C1656 0.930 . S
H1647 C1659 0.929 . S
H1648 C1662 0.930 . S
H1649 C1664 0.960 . S
H1650 C1664 0.960 . S
H1651 C1664 0.960 . S
C1652 H1644 0.929 . S
C1652 C1653 1.377 . S
C1652 C1654 1.384 . S
C1653 C1652 1.377 . S
C1653 C1659 1.390 . S
C1654 H1645 0.930 . S
C1654 C1652 1.384 . S
C1654 C1655 1.372 . S
C1655 C1654 1.372 . S
C1655 C1656 1.400 . S
C1655 C1660 1.490 . S
C1656 H1646 0.930 . S
C1656 C1655 1.400 . S
C1656 C1659 1.386 . S
H1657 C1673 0.930 . S
H1658 C1674 0.931 . S
C1659 H1647 0.929 . S
C1659 C1653 1.390 . S
C1659 C1656 1.386 . S
C1660 C1655 1.490 . S
C1660 C1662 1.395 . S
C1660 C1663 1.403 . S
H1661 C1667 0.930 . S
C1662 H1648 0.930 . S
C1662 C1660 1.395 . S
C1662 C1665 1.403 . S
C1663 C1660 1.403 . S
C1663 C1664 1.524 . S
C1663 C1667 1.400 . S
C1664 H1649 0.960 . S
C1664 H1650 0.960 . S
C1664 H1651 0.960 . S
C1664 C1663 1.524 . S
C1665 C1662 1.403 . S
C1665 C1666 1.392 . S
C1665 C1669 1.495 . S
C1666 C1665 1.392 . S
C1666 C1667 1.385 . S
C1666 C1668 1.478 . S
C1667 H1661 0.930 . S
C1667 C1663 1.400 . S
C1667 C1666 1.385 . S
C1668 C1666 1.478 . S
C1668 C1670 1.381 . S
C1668 C1674 1.383 . S
C1669 C1665 1.495 . S
C1669 H1675 0.959 . S
C1669 H1676 0.961 . S
C1669 H1677 0.960 . S
C1670 C1668 1.381 . S
C1670 C1671 1.394 . S
C1670 H1678 0.930 . S
C1671 C1670 1.394 . S
C1671 C1672 1.383 . S
C1671 H1679 0.929 . S
C1672 C1671 1.383 . S
C1672 C1673 1.377 . S
C1673 H1657 0.930 . S
C1673 C1672 1.377 . S
C1673 C1674 1.379 . S
C1674 H1658 0.931 . S
C1674 C1668 1.383 . S
C1674 C1673 1.379 . S
H1675 C1669 0.959 . S
H1676 C1669 0.961 . S
H1677 C1669 0.960 . S
H1678 C1670 0.930 . S
H1679 C1671 0.929 . S
H1680 C1688 0.929 . S
H1681 C1690 0.930 . S
H1682 C1692 0.930 . S
H1683 C1695 0.929 . S
H1684 C1698 0.930 . S
H1685 C1700 0.960 . S
H1686 C1700 0.960 . S
H1687 C1700 0.960 . S
C1688 H1680 0.929 . S
C1688 C1689 1.377 . S
C1688 C1690 1.384 . S
C1689 C1688 1.377 . S
C1689 C1695 1.390 . S
C1690 H1681 0.930 . S
C1690 C1688 1.384 . S
C1690 C1691 1.372 . S
C1691 C1690 1.372 . S
C1691 C1692 1.400 . S
C1691 C1696 1.490 . S
C1692 H1682 0.930 . S
C1692 C1691 1.400 . S
C1692 C1695 1.386 . S
H1693 C1709 0.930 . S
H1694 C1710 0.931 . S
C1695 H1683 0.929 . S
C1695 C1689 1.390 . S
C1695 C1692 1.386 . S
C1696 C1691 1.490 . S
C1696 C1698 1.395 . S
C1696 C1699 1.403 . S
H1697 C1703 0.930 . S
C1698 H1684 0.930 . S
C1698 C1696 1.395 . S
C1698 C1701 1.403 . S
C1699 C1696 1.403 . S
C1699 C1700 1.524 . S
C1699 C1703 1.400 . S
C1700 H1685 0.960 . S
C1700 H1686 0.960 . S
C1700 H1687 0.960 . S
C1700 C1699 1.524 . S
C1701 C1698 1.403 . S
C1701 C1702 1.392 . S
C1701 C1705 1.495 . S
C1702 C1701 1.392 . S
C1702 C1703 1.385 . S
C1702 C1704 1.478 . S
C1703 H1697 0.930 . S
C1703 C1699 1.400 . S
C1703 C1702 1.385 . S
C1704 C1702 1.478 . S
C1704 C1706 1.381 . S
C1704 C1710 1.383 . S
C1705 C1701 1.495 . S
C1705 H1711 0.959 . S
C1705 H1712 0.961 . S
C1705 H1713 0.960 . S
C1706 C1704 1.381 . S
C1706 C1707 1.394 . S
C1706 H1714 0.930 . S
C1707 C1706 1.394 . S
C1707 C1708 1.383 . S
C1707 H1715 0.929 . S
C1708 C1707 1.383 . S
C1708 C1709 1.377 . S
C1709 H1693 0.930 . S
C1709 C1708 1.377 . S
C1709 C1710 1.379 . S
C1710 H1694 0.931 . S
C1710 C1704 1.383 . S
C1710 C1709 1.379 . S
H1711 C1705 0.959 . S
H1712 C1705 0.961 . S
H1713 C1705 0.960 . S
H1714 C1706 0.930 . S
H1715 C1707 0.929 . S
H1716 C1724 0.929 . S
H1717 C1726 0.930 . S
H1718 C1728 0.930 . S
H1719 C1731 0.929 . S
H1720 C1734 0.930 . S
H1721 C1736 0.960 . S
H1722 C1736 0.960 . S
H1723 C1736 0.960 . S
C1724 H1716 0.929 . S
C1724 C1725 1.377 . S
C1724 C1726 1.384 . S
C1725 C1724 1.377 . S
C1725 C1731 1.390 . S
C1726 H1717 0.930 . S
C1726 C1724 1.384 . S
C1726 C1727 1.372 . S
C1727 C1726 1.372 . S
C1727 C1728 1.400 . S
C1727 C1732 1.490 . S
C1728 H1718 0.930 . S
C1728 C1727 1.400 . S
C1728 C1731 1.386 . S
H1729 C1745 0.930 . S
H1730 C1746 0.931 . S
C1731 H1719 0.929 . S
C1731 C1725 1.390 . S
C1731 C1728 1.386 . S
C1732 C1727 1.490 . S
C1732 C1734 1.395 . S
C1732 C1735 1.403 . S
H1733 C1739 0.930 . S
C1734 H1720 0.930 . S
C1734 C1732 1.395 . S
C1734 C1737 1.403 . S
C1735 C1732 1.403 . S
C1735 C1736 1.524 . S
C1735 C1739 1.400 . S
C1736 H1721 0.960 . S
C1736 H1722 0.960 . S
C1736 H1723 0.960 . S
C1736 C1735 1.524 . S
C1737 C1734 1.403 . S
C1737 C1738 1.392 . S
C1737 C1741 1.495 . S
C1738 C1737 1.392 . S
C1738 C1739 1.385 . S
C1738 C1740 1.478 . S
C1739 H1733 0.930 . S
C1739 C1735 1.400 . S
C1739 C1738 1.385 . S
C1740 C1738 1.478 . S
C1740 C1742 1.381 . S
C1740 C1746 1.383 . S
C1741 C1737 1.495 . S
C1741 H1747 0.959 . S
C1741 H1748 0.961 . S
C1741 H1749 0.960 . S
C1742 C1740 1.381 . S
C1742 C1743 1.394 . S
C1742 H1750 0.930 . S
C1743 C1742 1.394 . S
C1743 C1744 1.383 . S
C1743 H1751 0.929 . S
C1744 C1743 1.383 . S
C1744 C1745 1.377 . S
C1745 H1729 0.930 . S
C1745 C1744 1.377 . S
C1745 C1746 1.379 . S
C1746 H1730 0.931 . S
C1746 C1740 1.383 . S
C1746 C1745 1.379 . S
H1747 C1741 0.959 . S
H1748 C1741 0.961 . S
H1749 C1741 0.960 . S
H1750 C1742 0.930 . S
H1751 C1743 0.929 . S
H1752 C1760 0.929 . S
H1753 C1762 0.930 . S
H1754 C1764 0.930 . S
H1755 C1767 0.929 . S
H1756 C1770 0.930 . S
H1757 C1772 0.960 . S
H1758 C1772 0.960 . S
H1759 C1772 0.960 . S
C1760 H1752 0.929 . S
C1760 C1761 1.377 . S
C1760 C1762 1.384 . S
C1761 C1760 1.377 . S
C1761 C1767 1.390 . S
C1762 H1753 0.930 . S
C1762 C1760 1.384 . S
C1762 C1763 1.372 . S
C1763 C1762 1.372 . S
C1763 C1764 1.400 . S
C1763 C1768 1.490 . S
C1764 H1754 0.930 . S
C1764 C1763 1.400 . S
C1764 C1767 1.386 . S
H1765 C1781 0.930 . S
H1766 C1782 0.931 . S
C1767 H1755 0.929 . S
C1767 C1761 1.390 . S
C1767 C1764 1.386 . S
C1768 C1763 1.490 . S
C1768 C1770 1.395 . S
C1768 C1771 1.403 . S
H1769 C1775 0.930 . S
C1770 H1756 0.930 . S
C1770 C1768 1.395 . S
C1770 C1773 1.403 . S
C1771 C1768 1.403 . S
C1771 C1772 1.524 . S
C1771 C1775 1.400 . S
C1772 H1757 0.960 . S
C1772 H1758 0.960 . S
C1772 H1759 0.960 . S
C1772 C1771 1.524 . S
C1773 C1770 1.403 . S
C1773 C1774 1.392 . S
C1773 C1777 1.495 . S
C1774 C1773 1.392 . S
C1774 C1775 1.385 . S
C1774 C1776 1.478 . S
C1775 H1769 0.930 . S
C1775 C1771 1.400 . S
C1775 C1774 1.385 . S
C1776 C1774 1.478 . S
C1776 C1778 1.381 . S
C1776 C1782 1.383 . S
C1777 C1773 1.495 . S
C1777 H1783 0.959 . S
C1777 H1784 0.961 . S
C1777 H1785 0.960 . S
C1778 C1776 1.381 . S
C1778 C1779 1.394 . S
C1778 H1786 0.930 . S
C1779 C1778 1.394 . S
C1779 C1780 1.383 . S
C1779 H1787 0.929 . S
C1780 C1779 1.383 . S
C1780 C1781 1.377 . S
C1781 H1765 0.930 . S
C1781 C1780 1.377 . S
C1781 C1782 1.379 . S
C1782 H1766 0.931 . S
C1782 C1776 1.383 . S
C1782 C1781 1.379 . S
H1783 C1777 0.959 . S
H1784 C1777 0.961 . S
H1785 C1777 0.960 . S
H1786 C1778 0.930 . S
H1787 C1779 0.929 . S
H1788 C1796 0.929 . S
H1789 C1798 0.930 . S
H1790 C1800 0.930 . S
H1791 C1803 0.929 . S
H1792 C1806 0.930 . S
H1793 C1808 0.960 . S
H1794 C1808 0.960 . S
H1795 C1808 0.960 . S
C1796 H1788 0.929 . S
C1796 C1797 1.377 . S
C1796 C1798 1.384 . S
C1797 C1796 1.377 . S
C1797 C1803 1.390 . S
C1798 H1789 0.930 . S
C1798 C1796 1.384 . S
C1798 C1799 1.372 . S
C1799 C1798 1.372 . S
C1799 C1800 1.400 . S
C1799 C1804 1.490 . S
C1800 H1790 0.930 . S
C1800 C1799 1.400 . S
C1800 C1803 1.386 . S
H1801 C1817 0.930 . S
H1802 C1818 0.931 . S
C1803 H1791 0.929 . S
C1803 C1797 1.390 . S
C1803 C1800 1.386 . S
C1804 C1799 1.490 . S
C1804 C1806 1.395 . S
C1804 C1807 1.403 . S
H1805 C1811 0.930 . S
C1806 H1792 0.930 . S
C1806 C1804 1.395 . S
C1806 C1809 1.403 . S
C1807 C1804 1.403 . S
C1807 C1808 1.524 . S
C1807 C1811 1.400 . S
C1808 H1793 0.960 . S
C1808 H1794 0.960 . S
C1808 H1795 0.960 . S
C1808 C1807 1.524 . S
C1809 C1806 1.403 . S
C1809 C1810 1.392 . S
C1809 C1813 1.495 . S
C1810 C1809 1.392 . S
C1810 C1811 1.385 . S
C1810 C1812 1.478 . S
C1811 H1805 0.930 . S
C1811 C1807 1.400 . S
C1811 C1810 1.385 . S
C1812 C1810 1.478 . S
C1812 C1814 1.381 . S
C1812 C1818 1.383 . S
C1813 C1809 1.495 . S
C1813 H1819 0.959 . S
C1813 H1820 0.961 . S
C1813 H1821 0.960 . S
C1814 C1812 1.381 . S
C1814 C1815 1.394 . S
C1814 H1822 0.930 . S
C1815 C1814 1.394 . S
C1815 C1816 1.383 . S
C1815 H1823 0.929 . S
C1816 C1815 1.383 . S
C1816 C1817 1.377 . S
C1817 H1801 0.930 . S
C1817 C1816 1.377 . S
C1817 C1818 1.379 . S
C1818 H1802 0.931 . S
C1818 C1812 1.383 . S
C1818 C1817 1.379 . S
H1819 C1813 0.959 . S
H1820 C1813 0.961 . S
H1821 C1813 0.960 . S
H1822 C1814 0.930 . S
H1823 C1815 0.929 . S
H1824 C1832 0.929 . S
H1825 C1834 0.930 . S
H1826 C1836 0.930 . S
H1827 C1839 0.929 . S
H1828 C1842 0.930 . S
H1829 C1844 0.960 . S
H1830 C1844 0.960 . S
H1831 C1844 0.960 . S
C1832 H1824 0.929 . S
C1832 C1833 1.377 . S
C1832 C1834 1.384 . S
C1833 C1832 1.377 . S
C1833 C1839 1.390 . S
C1834 H1825 0.930 . S
C1834 C1832 1.384 . S
C1834 C1835 1.372 . S
C1835 C1834 1.372 . S
C1835 C1836 1.400 . S
C1835 C1840 1.490 . S
C1836 H1826 0.930 . S
C1836 C1835 1.400 . S
C1836 C1839 1.386 . S
H1837 C1853 0.930 . S
H1838 C1854 0.931 . S
C1839 H1827 0.929 . S
C1839 C1833 1.390 . S
C1839 C1836 1.386 . S
C1840 C1835 1.490 . S
C1840 C1842 1.395 . S
C1840 C1843 1.403 . S
H1841 C1847 0.930 . S
C1842 H1828 0.930 . S
C1842 C1840 1.395 . S
C1842 C1845 1.403 . S
C1843 C1840 1.403 . S
C1843 C1844 1.524 . S
C1843 C1847 1.400 . S
C1844 H1829 0.960 . S
C1844 H1830 0.960 . S
C1844 H1831 0.960 . S
C1844 C1843 1.524 . S
C1845 C1842 1.403 . S
C1845 C1846 1.392 . S
C1845 C1849 1.495 . S
C1846 C1845 1.392 . S
C1846 C1847 1.385 . S
C1846 C1848 1.478 . S
C1847 H1841 0.930 . S
C1847 C1843 1.400 . S
C1847 C1846 1.385 . S
C1848 C1846 1.478 . S
C1848 C1850 1.381 . S
C1848 C1854 1.383 . S
C1849 C1845 1.495 . S
C1849 H1855 0.959 . S
C1849 H1856 0.961 . S
C1849 H1857 0.960 . S
C1850 C1848 1.381 . S
C1850 C1851 1.394 . S
C1850 H1858 0.930 . S
C1851 C1850 1.394 . S
C1851 C1852 1.383 . S
C1851 H1859 0.929 . S
C1852 C1851 1.383 . S
C1852 C1853 1.377 . S
C1853 H1837 0.930 . S
C1853 C1852 1.377 . S
C1853 C1854 1.379 . S
C1854 H1838 0.931 . S
C1854 C1848 1.383 . S
C1854 C1853 1.379 . S
H1855 C1849 0.959 . S
H1856 C1849 0.961 . S
H1857 C1849 0.960 . S
H1858 C1850 0.930 . S
H1859 C1851 0.929 . S
H1860 C1868 0.929 . S
H1861 C1870 0.930 . S
H1862 C1872 0.930 . S
H1863 C1875 0.929 . S
H1864 C1878 0.930 . S
H1865 C1880 0.960 . S
H1866 C1880 0.960 . S
H1867 C1880 0.960 . S
C1868 H1860 0.929 . S
C1868 C1869 1.377 . S
C1868 C1870 1.384 . S
C1869 C1868 1.377 . S
C1869 C1875 1.390 . S
C1870 H1861 0.930 . S
C1870 C1868 1.384 . S
C1870 C1871 1.372 . S
C1871 C1870 1.372 . S
C1871 C1872 1.400 . S
C1871 C1876 1.490 . S
C1872 H1862 0.930 . S
C1872 C1871 1.400 . S
C1872 C1875 1.386 . S
H1873 C1889 0.930 . S
H1874 C1890 0.931 . S
C1875 H1863 0.929 . S
C1875 C1869 1.390 . S
C1875 C1872 1.386 . S
C1876 C1871 1.490 . S
C1876 C1878 1.395 . S
C1876 C1879 1.403 . S
H1877 C1883 0.930 . S
C1878 H1864 0.930 . S
C1878 C1876 1.395 . S
C1878 C1881 1.403 . S
C1879 C1876 1.403 . S
C1879 C1880 1.524 . S
C1879 C1883 1.400 . S
C1880 H1865 0.960 . S
C1880 H1866 0.960 . S
C1880 H1867 0.960 . S
C1880 C1879 1.524 . S
C1881 C1878 1.403 . S
C1881 C1882 1.392 . S
C1881 C1885 1.495 . S
C1882 C1881 1.392 . S
C1882 C1883 1.385 . S
C1882 C1884 1.478 . S
C1883 H1877 0.930 . S
C1883 C1879 1.400 . S
C1883 C1882 1.385 . S
C1884 C1882 1.478 . S
C1884 C1886 1.381 . S
C1884 C1890 1.383 . S
C1885 C1881 1.495 . S
C1885 H1891 0.959 . S
C1885 H1892 0.961 . S
C1885 H1893 0.960 . S
C1886 C1884 1.381 . S
C1886 C1887 1.394 . S
C1886 H1894 0.930 . S
C1887 C1886 1.394 . S
C1887 C1888 1.383 . S
C1887 H1895 0.929 . S
C1888 C1887 1.383 . S
C1888 C1889 1.377 . S
C1889 H1873 0.930 . S
C1889 C1888 1.377 . S
C1889 C1890 1.379 . S
C1890 H1874 0.931 . S
C1890 C1884 1.383 . S
C1890 C1889 1.379 . S
H1891 C1885 0.959 . S
H1892 C1885 0.961 . S
H1893 C1885 0.960 . S
H1894 C1886 0.930 . S
H1895 C1887 0.929 . S
H1896 C1904 0.929 . S
H1897 C1906 0.930 . S
H1898 C1908 0.930 . S
H1899 C1911 0.929 . S
H1900 C1914 0.930 . S
H1901 C1916 0.960 . S
H1902 C1916 0.960 . S
H1903 C1916 0.960 . S
C1904 H1896 0.929 . S
C1904 C1905 1.377 . S
C1904 C1906 1.384 . S
C1905 C1904 1.377 . S
C1905 C1911 1.390 . S
C1906 H1897 0.930 . S
C1906 C1904 1.384 . S
C1906 C1907 1.372 . S
C1907 C1906 1.372 . S
C1907 C1908 1.400 . S
C1907 C1912 1.490 . S
C1908 H1898 0.930 . S
C1908 C1907 1.400 . S
C1908 C1911 1.386 . S
H1909 C1925 0.930 . S
H1910 C1926 0.931 . S
C1911 H1899 0.929 . S
C1911 C1905 1.390 . S
C1911 C1908 1.386 . S
C1912 C1907 1.490 . S
C1912 C1914 1.395 . S
C1912 C1915 1.403 . S
H1913 C1919 0.930 . S
C1914 H1900 0.930 . S
C1914 C1912 1.395 . S
C1914 C1917 1.403 . S
C1915 C1912 1.403 . S
C1915 C1916 1.524 . S
C1915 C1919 1.400 . S
C1916 H1901 0.960 . S
C1916 H1902 0.960 . S
C1916 H1903 0.960 . S
C1916 C1915 1.524 . S
C1917 C1914 1.403 . S
C1917 C1918 1.392 . S
C1917 C1921 1.495 . S
C1918 C1917 1.392 . S
C1918 C1919 1.385 . S
C1918 C1920 1.478 . S
C1919 H1913 0.930 . S
C1919 C1915 1.400 . S
C1919 C1918 1.385 . S
C1920 C1918 1.478 . S
C1920 C1922 1.381 . S
C1920 C1926 1.383 . S
C1921 C1917 1.495 . S
C1921 H1927 0.959 . S
C1921 H1928 0.961 . S
C1921 H1929 0.960 . S
C1922 C1920 1.381 . S
C1922 C1923 1.394 . S
C1922 H1930 0.930 . S
C1923 C1922 1.394 . S
C1923 C1924 1.383 . S
C1923 H1931 0.929 . S
C1924 C1923 1.383 . S
C1924 C1925 1.377 . S
C1925 H1909 0.930 . S
C1925 C1924 1.377 . S
C1925 C1926 1.379 . S
C1926 H1910 0.931 . S
C1926 C1920 1.383 . S
C1926 C1925 1.379 . S
H1927 C1921 0.959 . S
H1928 C1921 0.961 . S
H1929 C1921 0.960 . S
H1930 C1922 0.930 . S
H1931 C1923 0.929 . S
H1932 C1940 0.929 . S
H1933 C1942 0.930 . S
H1934 C1944 0.930 . S
H1935 C1947 0.929 . S
H1936 C1950 0.930 . S
H1937 C1952 0.960 . S
H1938 C1952 0.960 . S
H1939 C1952 0.960 . S
C1940 H1932 0.929 . S
C1940 C1941 1.377 . S
C1940 C1942 1.384 . S
C1941 C1940 1.377 . S
C1941 C1947 1.390 . S
C1942 H1933 0.930 . S
C1942 C1940 1.384 . S
C1942 C1943 1.372 . S
C1943 C1942 1.372 . S
C1943 C1944 1.400 . S
C1943 C1948 1.490 . S
C1944 H1934 0.930 . S
C1944 C1943 1.400 . S
C1944 C1947 1.386 . S
H1945 C1961 0.930 . S
H1946 C1962 0.931 . S
C1947 H1935 0.929 . S
C1947 C1941 1.390 . S
C1947 C1944 1.386 . S
C1948 C1943 1.490 . S
C1948 C1950 1.395 . S
C1948 C1951 1.403 . S
H1949 C1955 0.930 . S
C1950 H1936 0.930 . S
C1950 C1948 1.395 . S
C1950 C1953 1.403 . S
C1951 C1948 1.403 . S
C1951 C1952 1.524 . S
C1951 C1955 1.400 . S
C1952 H1937 0.960 . S
C1952 H1938 0.960 . S
C1952 H1939 0.960 . S
C1952 C1951 1.524 . S
C1953 C1950 1.403 . S
C1953 C1954 1.392 . S
C1953 C1957 1.495 . S
C1954 C1953 1.392 . S
C1954 C1955 1.385 . S
C1954 C1956 1.478 . S
C1955 H1949 0.930 . S
C1955 C1951 1.400 . S
C1955 C1954 1.385 . S
C1956 C1954 1.478 . S
C1956 C1958 1.381 . S
C1956 C1962 1.383 . S
C1957 C1953 1.495 . S
C1957 H1963 0.959 . S
C1957 H1964 0.961 . S
C1957 H1965 0.960 . S
C1958 C1956 1.381 . S
C1958 C1959 1.394 . S
C1958 H1966 0.930 . S
C1959 C1958 1.394 . S
C1959 C1960 1.383 . S
C1959 H1967 0.929 . S
C1960 C1959 1.383 . S
C1960 C1961 1.377 . S
C1961 H1945 0.930 . S
C1961 C1960 1.377 . S
C1961 C1962 1.379 . S
C1962 H1946 0.931 . S
C1962 C1956 1.383 . S
C1962 C1961 1.379 . S
H1963 C1957 0.959 . S
H1964 C1957 0.961 . S
H1965 C1957 0.960 . S
H1966 C1958 0.930 . S
H1967 C1959 0.929 . S
H1968 C1976 0.929 . S
H1969 C1978 0.930 . S
H1970 C1980 0.930 . S
H1971 C1983 0.929 . S
H1972 C1986 0.930 . S
H1973 C1988 0.960 . S
H1974 C1988 0.960 . S
H1975 C1988 0.960 . S
C1976 H1968 0.929 . S
C1976 C1977 1.377 . S
C1976 C1978 1.384 . S
C1977 C1976 1.377 . S
C1977 C1983 1.390 . S
C1978 H1969 0.930 . S
C1978 C1976 1.384 . S
C1978 C1979 1.372 . S
C1979 C1978 1.372 . S
C1979 C1980 1.400 . S
C1979 C1984 1.490 . S
C1980 H1970 0.930 . S
C1980 C1979 1.400 . S
C1980 C1983 1.386 . S
H1981 C1997 0.930 . S
H1982 C1998 0.931 . S
C1983 H1971 0.929 . S
C1983 C1977 1.390 . S
C1983 C1980 1.386 . S
C1984 C1979 1.490 . S
C1984 C1986 1.395 . S
C1984 C1987 1.403 . S
H1985 C1991 0.930 . S
C1986 H1972 0.930 . S
C1986 C1984 1.395 . S
C1986 C1989 1.403 . S
C1987 C1984 1.403 . S
C1987 C1988 1.524 . S
C1987 C1991 1.400 . S
C1988 H1973 0.960 . S
C1988 H1974 0.960 . S
C1988 H1975 0.960 . S
C1988 C1987 1.524 . S
C1989 C1986 1.403 . S
C1989 C1990 1.392 . S
C1989 C1993 1.495 . S
C1990 C1989 1.392 . S
C1990 C1991 1.385 . S
C1990 C1992 1.478 . S
C1991 H1985 0.930 . S
C1991 C1987 1.400 . S
C1991 C1990 1.385 . S
C1992 C1990 1.478 . S
C1992 C1994 1.381 . S
C1992 C1998 1.383 . S
C1993 C1989 1.495 . S
C1993 H1999 0.959 . S
C1993 H2000 0.961 . S
C1993 H2001 0.960 . S
C1994 C1992 1.381 . S
C1994 C1995 1.394 . S
C1994 H2002 0.930 . S
C1995 C1994 1.394 . S
C1995 C1996 1.383 . S
C1995 H2003 0.929 . S
C1996 C1995 1.383 . S
C1996 C1997 1.377 . S
C1997 H1981 0.930 . S
C1997 C1996 1.377 . S
C1997 C1998 1.379 . S
C1998 H1982 0.931 . S
C1998 C1992 1.383 . S
C1998 C1997 1.379 . S
H1999 C1993 0.959 . S
H2000 C1993 0.961 . S
H2001 C1993 0.960 . S
H2002 C1994 0.930 . S
H2003 C1995 0.929 . S
H2004 C2012 0.929 . S
H2005 C2014 0.930 . S
H2006 C2016 0.930 . S
H2007 C2019 0.929 . S
H2008 C2022 0.930 . S
H2009 C2024 0.960 . S
H2010 C2024 0.960 . S
H2011 C2024 0.960 . S
C2012 H2004 0.929 . S
C2012 C2013 1.377 . S
C2012 C2014 1.384 . S
C2013 C2012 1.377 . S
C2013 C2019 1.390 . S
C2014 H2005 0.930 . S
C2014 C2012 1.384 . S
C2014 C2015 1.372 . S
C2015 C2014 1.372 . S
C2015 C2016 1.400 . S
C2015 C2020 1.490 . S
C2016 H2006 0.930 . S
C2016 C2015 1.400 . S
C2016 C2019 1.386 . S
H2017 C2033 0.930 . S
H2018 C2034 0.931 . S
C2019 H2007 0.929 . S
C2019 C2013 1.390 . S
C2019 C2016 1.386 . S
C2020 C2015 1.490 . S
C2020 C2022 1.395 . S
C2020 C2023 1.403 . S
H2021 C2027 0.930 . S
C2022 H2008 0.930 . S
C2022 C2020 1.395 . S
C2022 C2025 1.403 . S
C2023 C2020 1.403 . S
C2023 C2024 1.524 . S
C2023 C2027 1.400 . S
C2024 H2009 0.960 . S
C2024 H2010 0.960 . S
C2024 H2011 0.960 . S
C2024 C2023 1.524 . S
C2025 C2022 1.403 . S
C2025 C2026 1.392 . S
C2025 C2029 1.495 . S
C2026 C2025 1.392 . S
C2026 C2027 1.385 . S
C2026 C2028 1.478 . S
C2027 H2021 0.930 . S
C2027 C2023 1.400 . S
C2027 C2026 1.385 . S
C2028 C2026 1.478 . S
C2028 C2030 1.381 . S
C2028 C2034 1.383 . S
C2029 C2025 1.495 . S
C2029 H2035 0.959 . S
C2029 H2036 0.961 . S
C2029 H2037 0.960 . S
C2030 C2028 1.381 . S
C2030 C2031 1.394 . S
C2030 H2038 0.930 . S
C2031 C2030 1.394 . S
C2031 C2032 1.383 . S
C2031 H2039 0.929 . S
C2032 C2031 1.383 . S
C2032 C2033 1.377 . S
C2033 H2017 0.930 . S
C2033 C2032 1.377 . S
C2033 C2034 1.379 . S
C2034 H2018 0.931 . S
C2034 C2028 1.383 . S
C2034 C2033 1.379 . S
H2035 C2029 0.959 . S
H2036 C2029 0.961 . S
H2037 C2029 0.960 . S
H2038 C2030 0.930 . S
H2039 C2031 0.929 . S
H2040 C2048 0.929 . S
H2041 C2050 0.930 . S
H2042 C2052 0.930 . S
H2043 C2055 0.929 . S
H2044 C2058 0.930 . S
H2045 C2060 0.960 . S
H2046 C2060 0.960 . S
H2047 C2060 0.960 . S
C2048 H2040 0.929 . S
C2048 C2049 1.377 . S
C2048 C2050 1.384 . S
C2049 C2048 1.377 . S
C2049 C2055 1.390 . S
C2050 H2041 0.930 . S
C2050 C2048 1.384 . S
C2050 C2051 1.372 . S
C2051 C2050 1.372 . S
C2051 C2052 1.400 . S
C2051 C2056 1.490 . S
C2052 H2042 0.930 . S
C2052 C2051 1.400 . S
C2052 C2055 1.386 . S
H2053 C2069 0.930 . S
H2054 C2070 0.931 . S
C2055 H2043 0.929 . S
C2055 C2049 1.390 . S
C2055 C2052 1.386 . S
C2056 C2051 1.490 . S
C2056 C2058 1.395 . S
C2056 C2059 1.403 . S
H2057 C2063 0.930 . S
C2058 H2044 0.930 . S
C2058 C2056 1.395 . S
C2058 C2061 1.403 . S
C2059 C2056 1.403 . S
C2059 C2060 1.524 . S
C2059 C2063 1.400 . S
C2060 H2045 0.960 . S
C2060 H2046 0.960 . S
C2060 H2047 0.960 . S
C2060 C2059 1.524 . S
C2061 C2058 1.403 . S
C2061 C2062 1.392 . S
C2061 C2065 1.495 . S
C2062 C2061 1.392 . S
C2062 C2063 1.385 . S
C2062 C2064 1.478 . S
C2063 H2057 0.930 . S
C2063 C2059 1.400 . S
C2063 C2062 1.385 . S
C2064 C2062 1.478 . S
C2064 C2066 1.381 . S
C2064 C2070 1.383 . S
C2065 C2061 1.495 . S
C2065 H2071 0.959 . S
C2065 H2072 0.961 . S
C2065 H2073 0.960 . S
C2066 C2064 1.381 . S
C2066 C2067 1.394 . S
C2066 H2074 0.930 . S
C2067 C2066 1.394 . S
C2067 C2068 1.383 . S
C2067 H2075 0.929 . S
C2068 C2067 1.383 . S
C2068 C2069 1.377 . S
C2069 H2053 0.930 . S
C2069 C2068 1.377 . S
C2069 C2070 1.379 . S
C2070 H2054 0.931 . S
C2070 C2064 1.383 . S
C2070 C2069 1.379 . S
H2071 C2065 0.959 . S
H2072 C2065 0.961 . S
H2073 C2065 0.960 . S
H2074 C2066 0.930 . S
H2075 C2067 0.929 . S
H2076 C2084 0.929 . S
H2077 C2086 0.930 . S
H2078 C2088 0.930 . S
H2079 C2091 0.929 . S
H2080 C2094 0.930 . S
H2081 C2096 0.960 . S
H2082 C2096 0.960 . S
H2083 C2096 0.960 . S
C2084 H2076 0.929 . S
C2084 C2085 1.377 . S
C2084 C2086 1.384 . S
C2085 C2084 1.377 . S
C2085 C2091 1.390 . S
C2086 H2077 0.930 . S
C2086 C2084 1.384 . S
C2086 C2087 1.372 . S
C2087 C2086 1.372 . S
C2087 C2088 1.400 . S
C2087 C2092 1.490 . S
C2088 H2078 0.930 . S
C2088 C2087 1.400 . S
C2088 C2091 1.386 . S
H2089 C2105 0.930 . S
H2090 C2106 0.931 . S
C2091 H2079 0.929 . S
C2091 C2085 1.390 . S
C2091 C2088 1.386 . S
C2092 C2087 1.490 . S
C2092 C2094 1.395 . S
C2092 C2095 1.403 . S
H2093 C2099 0.930 . S
C2094 H2080 0.930 . S
C2094 C2092 1.395 . S
C2094 C2097 1.403 . S
C2095 C2092 1.403 . S
C2095 C2096 1.524 . S
C2095 C2099 1.400 . S
C2096 H2081 0.960 . S
C2096 H2082 0.960 . S
C2096 H2083 0.960 . S
C2096 C2095 1.524 . S
C2097 C2094 1.403 . S
C2097 C2098 1.392 . S
C2097 C2101 1.495 . S
C2098 C2097 1.392 . S
C2098 C2099 1.385 . S
C2098 C2100 1.478 . S
C2099 H2093 0.930 . S
C2099 C2095 1.400 . S
C2099 C2098 1.385 . S
C2100 C2098 1.478 . S
C2100 C2102 1.381 . S
C2100 C2106 1.383 . S
C2101 C2097 1.495 . S
C2101 H2107 0.959 . S
C2101 H2108 0.961 . S
C2101 H2109 0.960 . S
C2102 C2100 1.381 . S
C2102 C2103 1.394 . S
C2102 H2110 0.930 . S
C2103 C2102 1.394 . S
C2103 C2104 1.383 . S
C2103 H2111 0.929 . S
C2104 C2103 1.383 . S
C2104 C2105 1.377 . S
C2105 H2089 0.930 . S
C2105 C2104 1.377 . S
C2105 C2106 1.379 . S
C2106 H2090 0.931 . S
C2106 C2100 1.383 . S
C2106 C2105 1.379 . S
H2107 C2101 0.959 . S
H2108 C2101 0.961 . S
H2109 C2101 0.960 . S
H2110 C2102 0.930 . S
H2111 C2103 0.929 . S
H2112 C2120 0.929 . S
H2113 C2122 0.930 . S
H2114 C2124 0.930 . S
H2115 C2127 0.929 . S
H2116 C2130 0.930 . S
H2117 C2132 0.960 . S
H2118 C2132 0.960 . S
H2119 C2132 0.960 . S
C2120 H2112 0.929 . S
C2120 C2121 1.377 . S
C2120 C2122 1.384 . S
C2121 C2120 1.377 . S
C2121 C2127 1.390 . S
C2122 H2113 0.930 . S
C2122 C2120 1.384 . S
C2122 C2123 1.372 . S
C2123 C2122 1.372 . S
C2123 C2124 1.400 . S
C2123 C2128 1.490 . S
C2124 H2114 0.930 . S
C2124 C2123 1.400 . S
C2124 C2127 1.386 . S
H2125 C2141 0.930 . S
H2126 C2142 0.931 . S
C2127 H2115 0.929 . S
C2127 C2121 1.390 . S
C2127 C2124 1.386 . S
C2128 C2123 1.490 . S
C2128 C2130 1.395 . S
C2128 C2131 1.403 . S
H2129 C2135 0.930 . S
C2130 H2116 0.930 . S
C2130 C2128 1.395 . S
C2130 C2133 1.403 . S
C2131 C2128 1.403 . S
C2131 C2132 1.524 . S
C2131 C2135 1.400 . S
C2132 H2117 0.960 . S
C2132 H2118 0.960 . S
C2132 H2119 0.960 . S
C2132 C2131 1.524 . S
C2133 C2130 1.403 . S
C2133 C2134 1.392 . S
C2133 C2137 1.495 . S
C2134 C2133 1.392 . S
C2134 C2135 1.385 . S
C2134 C2136 1.478 . S
C2135 H2129 0.930 . S
C2135 C2131 1.400 . S
C2135 C2134 1.385 . S
C2136 C2134 1.478 . S
C2136 C2138 1.381 . S
C2136 C2142 1.383 . S
C2137 C2133 1.495 . S
C2137 H2143 0.959 . S
C2137 H2144 0.961 . S
C2137 H2145 0.960 . S
C2138 C2136 1.381 . S
C2138 C2139 1.394 . S
C2138 H2146 0.930 . S
C2139 C2138 1.394 . S
C2139 C2140 1.383 . S
C2139 H2147 0.929 . S
C2140 C2139 1.383 . S
C2140 C2141 1.377 . S
C2141 H2125 0.930 . S
C2141 C2140 1.377 . S
C2141 C2142 1.379 . S
C2142 H2126 0.931 . S
C2142 C2136 1.383 . S
C2142 C2141 1.379 . S
H2143 C2137 0.959 . S
H2144 C2137 0.961 . S
H2145 C2137 0.960 . S
H2146 C2138 0.930 . S
H2147 C2139 0.929 . S
H2148 C2156 0.929 . S
H2149 C2158 0.930 . S
H2150 C2160 0.930 . S
H2151 C2163 0.929 . S
H2152 C2166 0.930 . S
H2153 C2168 0.960 . S
H2154 C2168 0.960 . S
H2155 C2168 0.960 . S
C2156 H2148 0.929 . S
C2156 C2157 1.377 . S
C2156 C2158 1.384 . S
C2157 C2156 1.377 . S
C2157 C2163 1.390 . S
C2158 H2149 0.930 . S
C2158 C2156 1.384 . S
C2158 C2159 1.372 . S
C2159 C2158 1.372 . S
C2159 C2160 1.400 . S
C2159 C2164 1.490 . S
C2160 H2150 0.930 . S
C2160 C2159 1.400 . S
C2160 C2163 1.386 . S
H2161 C2177 0.930 . S
H2162 C2178 0.931 . S
C2163 H2151 0.929 . S
C2163 C2157 1.390 . S
C2163 C2160 1.386 . S
C2164 C2159 1.490 . S
C2164 C2166 1.395 . S
C2164 C2167 1.403 . S
H2165 C2171 0.930 . S
C2166 H2152 0.930 . S
C2166 C2164 1.395 . S
C2166 C2169 1.403 . S
C2167 C2164 1.403 . S
C2167 C2168 1.524 . S
C2167 C2171 1.400 . S
C2168 H2153 0.960 . S
C2168 H2154 0.960 . S
C2168 H2155 0.960 . S
C2168 C2167 1.524 . S
C2169 C2166 1.403 . S
C2169 C2170 1.392 . S
C2169 C2173 1.495 . S
C2170 C2169 1.392 . S
C2170 C2171 1.385 . S
C2170 C2172 1.478 . S
C2171 H2165 0.930 . S
C2171 C2167 1.400 . S
C2171 C2170 1.385 . S
C2172 C2170 1.478 . S
C2172 C2174 1.381 . S
C2172 C2178 1.383 . S
C2173 C2169 1.495 . S
C2173 H2179 0.959 . S
C2173 H2180 0.961 . S
C2173 H2181 0.960 . S
C2174 C2172 1.381 . S
C2174 C2175 1.394 . S
C2174 H2182 0.930 . S
C2175 C2174 1.394 . S
C2175 C2176 1.383 . S
C2175 H2183 0.929 . S
C2176 C2175 1.383 . S
C2176 C2177 1.377 . S
C2177 H2161 0.930 . S
C2177 C2176 1.377 . S
C2177 C2178 1.379 . S
C2178 H2162 0.931 . S
C2178 C2172 1.383 . S
C2178 C2177 1.379 . S
H2179 C2173 0.959 . S
H2180 C2173 0.961 . S
H2181 C2173 0.960 . S
H2182 C2174 0.930 . S
H2183 C2175 0.929 . S
H2184 C2192 0.929 . S
H2185 C2194 0.930 . S
H2186 C2196 0.930 . S
H2187 C2199 0.929 . S
H2188 C2202 0.930 . S
H2189 C2204 0.960 . S
H2190 C2204 0.960 . S
H2191 C2204 0.960 . S
C2192 H2184 0.929 . S
C2192 C2193 1.377 . S
C2192 C2194 1.384 . S
C2193 C2192 1.377 . S
C2193 C2199 1.390 . S
C2194 H2185 0.930 . S
C2194 C2192 1.384 . S
C2194 C2195 1.372 . S
C2195 C2194 1.372 . S
C2195 C2196 1.400 . S
C2195 C2200 1.490 . S
C2196 H2186 0.930 . S
C2196 C2195 1.400 . S
C2196 C2199 1.386 . S
H2197 C2213 0.930 . S
H2198 C2214 0.931 . S
C2199 H2187 0.929 . S
C2199 C2193 1.390 . S
C2199 C2196 1.386 . S
C2200 C2195 1.490 . S
C2200 C2202 1.395 . S
C2200 C2203 1.403 . S
H2201 C2207 0.930 . S
C2202 H2188 0.930 . S
C2202 C2200 1.395 . S
C2202 C2205 1.403 . S
C2203 C2200 1.403 . S
C2203 C2204 1.524 . S
C2203 C2207 1.400 . S
C2204 H2189 0.960 . S
C2204 H2190 0.960 . S
C2204 H2191 0.960 . S
C2204 C2203 1.524 . S
C2205 C2202 1.403 . S
C2205 C2206 1.392 . S
C2205 C2209 1.495 . S
C2206 C2205 1.392 . S
C2206 C2207 1.385 . S
C2206 C2208 1.478 . S
C2207 H2201 0.930 . S
C2207 C2203 1.400 . S
C2207 C2206 1.385 . S
C2208 C2206 1.478 . S
C2208 C2210 1.381 . S
C2208 C2214 1.383 . S
C2209 C2205 1.495 . S
C2209 H2215 0.959 . S
C2209 H2216 0.961 . S
C2209 H2217 0.960 . S
C2210 C2208 1.381 . S
C2210 C2211 1.394 . S
C2210 H2218 0.930 . S
C2211 C2210 1.394 . S
C2211 C2212 1.383 . S
C2211 H2219 0.929 . S
C2212 C2211 1.383 . S
C2212 C2213 1.377 . S
C2213 H2197 0.930 . S
C2213 C2212 1.377 . S
C2213 C2214 1.379 . S
C2214 H2198 0.931 . S
C2214 C2208 1.383 . S
C2214 C2213 1.379 . S
H2215 C2209 0.959 . S
H2216 C2209 0.961 . S
H2217 C2209 0.960 . S
H2218 C2210 0.930 . S
H2219 C2211 0.929 . S
H2220 C2228 0.929 . S
H2221 C2230 0.930 . S
H2222 C2232 0.930 . S
H2223 C2235 0.929 . S
H2224 C2238 0.930 . S
H2225 C2240 0.960 . S
H2226 C2240 0.960 . S
H2227 C2240 0.960 . S
C2228 H2220 0.929 . S
C2228 C2229 1.377 . S
C2228 C2230 1.384 . S
C2229 C2228 1.377 . S
C2229 C2235 1.390 . S
C2230 H2221 0.930 . S
C2230 C2228 1.384 . S
C2230 C2231 1.372 . S
C2231 C2230 1.372 . S
C2231 C2232 1.400 . S
C2231 C2236 1.490 . S
C2232 H2222 0.930 . S
C2232 C2231 1.400 . S
C2232 C2235 1.386 . S
H2233 C2249 0.930 . S
H2234 C2250 0.931 . S
C2235 H2223 0.929 . S
C2235 C2229 1.390 . S
C2235 C2232 1.386 . S
C2236 C2231 1.490 . S
C2236 C2238 1.395 . S
C2236 C2239 1.403 . S
H2237 C2243 0.930 . S
C2238 H2224 0.930 . S
C2238 C2236 1.395 . S
C2238 C2241 1.403 . S
C2239 C2236 1.403 . S
C2239 C2240 1.524 . S
C2239 C2243 1.400 . S
C2240 H2225 0.960 . S
C2240 H2226 0.960 . S
C2240 H2227 0.960 . S
C2240 C2239 1.524 . S
C2241 C2238 1.403 . S
C2241 C2242 1.392 . S
C2241 C2245 1.495 . S
C2242 C2241 1.392 . S
C2242 C2243 1.385 . S
C2242 C2244 1.478 . S
C2243 H2237 0.930 . S
C2243 C2239 1.400 . S
C2243 C2242 1.385 . S
C2244 C2242 1.478 . S
C2244 C2246 1.381 . S
C2244 C2250 1.383 . S
C2245 C2241 1.495 . S
C2245 H2251 0.959 . S
C2245 H2252 0.961 . S
C2245 H2253 0.960 . S
C2246 C2244 1.381 . S
C2246 C2247 1.394 . S
C2246 H2254 0.930 . S
C2247 C2246 1.394 . S
C2247 C2248 1.383 . S
C2247 H2255 0.929 . S
C2248 C2247 1.383 . S
C2248 C2249 1.377 . S
C2249 H2233 0.930 . S
C2249 C2248 1.377 . S
C2249 C2250 1.379 . S
C2250 H2234 0.931 . S
C2250 C2244 1.383 . S
C2250 C2249 1.379 . S
H2251 C2245 0.959 . S
H2252 C2245 0.961 . S
H2253 C2245 0.960 . S
H2254 C2246 0.930 . S
H2255 C2247 0.929 . S
C969 C162 1.485 . S
C988 C2 1.468 . S
C1005 C221 1.459 . S
C1024 C42 1.460 . S
C1041 C101 1.487 . S
C1060 C261 1.480 . S
C1077 C282 1.465 . S
C1096 C141 1.464 . S
C1113 C341 1.491 . S
C1132 C442 1.490 . S
C1149 C402 1.478 . S
C1168 C381 1.477 . S
C1185 C482 1.503 . S
C1204 C642 1.506 . S
C1221 C682 1.478 . S
C1240 C541 1.485 . S
C1257 C741 1.451 . S
C1276 C581 1.458 . S
C1293 C602 1.473 . S
C1312 C781 1.483 . S
C1329 C941 1.480 . S
C1348 C802 1.498 . S
C1365 C901 1.481 . S
C1384 C842 1.480 . S
C1401 C775 1.504 . S
C1420 C21 1.498 . S
C1437 C655 1.525 . S
C1456 C61 1.519 . S
C1473 C82 1.539 . S
C1492 C701 1.539 . S
C1509 C135 1.499 . S
C1528 C722 1.472 . S
C1545 C181 1.495 . S
C1564 C522 1.505 . S
C1581 C562 1.484 . S
C1600 C215 1.497 . S
C1617 C242 1.542 . S
C1636 C621 1.538 . S
C1653 C301 1.518 . S
C1672 C495 1.528 . S
C1689 C122 1.473 . S
C1708 C935 1.491 . S
C1725 C15 1.546 . S
C1744 C861 1.542 . S
C1761 C55 1.550 . S
C1780 C815 1.543 . S
C1797 C95 1.517 . S
C1816 C882 1.507 . S
C1833 C202 1.475 . S
C1852 C895 1.487 . S
C1869 C255 1.525 . S
C1888 C922 1.489 . S
C1905 C855 1.550 . S
C1924 C295 1.545 . S
C1941 C175 1.549 . S
C1960 C821 1.548 . S
C1977 C335 1.524 . S
C1996 C661 1.524 . S
C2013 C501 1.524 . S
C2032 C362 1.484 . S
C2049 C322 1.506 . S
C2068 C535 1.509 . S
C2085 C415 1.523 . S
C2104 C575 1.518 . S
C2121 C615 1.546 . S
C2140 C461 1.540 . S
C2157 C735 1.522 . S
C2176 C455 1.521 . S
C2193 C762 1.499 . S
C2212 C375 1.496 . S
C2229 C695 1.547 . S
C2248 C421 1.535 . S
