# Generated by pormake.
# Topology lcs-e, (6)-cn, num edge types: 1
# Building blocks:
#     Node 0, Type 0, BuildingBlock: BETDEL_clean_sbu_0, # of connection points: 6
#     Node 1, Type 0, BuildingBlock: BETDEL_clean_sbu_0, # of connection points: 6
#     Node 2, Type 0, BuildingBlock: BETDEL_clean_sbu_0, # of connection points: 6
#     Node 3, Type 0, BuildingBlock: BETDEL_clean_sbu_0, # of connection points: 6
#     Node 4, Type 0, BuildingBlock: BETDEL_clean_sbu_0, # of connection points: 6
#     Node 5, Type 0, BuildingBlock: BETDEL_clean_sbu_0, # of connection points: 6
#     Node 6, Type 0, BuildingBlock: BETDEL_clean_sbu_0, # of connection points: 6
#     Node 7, Type 0, BuildingBlock: BETDEL_clean_sbu_0, # of connection points: 6
#     Node 8, Type 0, BuildingBlock: BETDEL_clean_sbu_0, # of connection points: 6
#     Node 9, Type 0, BuildingBlock: BETDEL_clean_sbu_0, # of connection points: 6
#     Node 10, Type 0, BuildingBlock: BETDEL_clean_sbu_0, # of connection points: 6
#     Node 11, Type 0, BuildingBlock: BETDEL_clean_sbu_0, # of connection points: 6
#     Node 12, Type 0, BuildingBlock: BETDEL_clean_sbu_0, # of connection points: 6
#     Node 13, Type 0, BuildingBlock: BETDEL_clean_sbu_0, # of connection points: 6
#     Node 14, Type 0, BuildingBlock: BETDEL_clean_sbu_0, # of connection points: 6
#     Node 15, Type 0, BuildingBlock: BETDEL_clean_sbu_0, # of connection points: 6
#     Node 16, Type 0, BuildingBlock: BETDEL_clean_sbu_0, # of connection points: 6
#     Node 17, Type 0, BuildingBlock: BETDEL_clean_sbu_0, # of connection points: 6
#     Node 18, Type 0, BuildingBlock: BETDEL_clean_sbu_0, # of connection points: 6
#     Node 19, Type 0, BuildingBlock: BETDEL_clean_sbu_0, # of connection points: 6
#     Node 20, Type 0, BuildingBlock: BETDEL_clean_sbu_0, # of connection points: 6
#     Node 21, Type 0, BuildingBlock: BETDEL_clean_sbu_0, # of connection points: 6
#     Node 22, Type 0, BuildingBlock: BETDEL_clean_sbu_0, # of connection points: 6
#     Node 23, Type 0, BuildingBlock: BETDEL_clean_sbu_0, # of connection points: 6
#     Node 24, Type 0, BuildingBlock: BETDEL_clean_sbu_0, # of connection points: 6
#     Node 25, Type 0, BuildingBlock: BETDEL_clean_sbu_0, # of connection points: 6
#     Node 26, Type 0, BuildingBlock: BETDEL_clean_sbu_0, # of connection points: 6
#     Node 27, Type 0, BuildingBlock: BETDEL_clean_sbu_0, # of connection points: 6
#     Node 28, Type 0, BuildingBlock: BETDEL_clean_sbu_0, # of connection points: 6
#     Node 29, Type 0, BuildingBlock: BETDEL_clean_sbu_0, # of connection points: 6
#     Node 30, Type 0, BuildingBlock: BETDEL_clean_sbu_0, # of connection points: 6
#     Node 31, Type 0, BuildingBlock: BETDEL_clean_sbu_0, # of connection points: 6
#     Node 32, Type 0, BuildingBlock: BETDEL_clean_sbu_0, # of connection points: 6
#     Node 33, Type 0, BuildingBlock: BETDEL_clean_sbu_0, # of connection points: 6
#     Node 34, Type 0, BuildingBlock: BETDEL_clean_sbu_0, # of connection points: 6
#     Node 35, Type 0, BuildingBlock: BETDEL_clean_sbu_0, # of connection points: 6
#     Node 36, Type 0, BuildingBlock: BETDEL_clean_sbu_0, # of connection points: 6
#     Node 37, Type 0, BuildingBlock: BETDEL_clean_sbu_0, # of connection points: 6
#     Node 38, Type 0, BuildingBlock: BETDEL_clean_sbu_0, # of connection points: 6
#     Node 39, Type 0, BuildingBlock: BETDEL_clean_sbu_0, # of connection points: 6
#     Node 40, Type 0, BuildingBlock: BETDEL_clean_sbu_0, # of connection points: 6
#     Node 41, Type 0, BuildingBlock: BETDEL_clean_sbu_0, # of connection points: 6
#     Node 42, Type 0, BuildingBlock: BETDEL_clean_sbu_0, # of connection points: 6
#     Node 43, Type 0, BuildingBlock: BETDEL_clean_sbu_0, # of connection points: 6
#     Node 44, Type 0, BuildingBlock: BETDEL_clean_sbu_0, # of connection points: 6
#     Node 45, Type 0, BuildingBlock: BETDEL_clean_sbu_0, # of connection points: 6
#     Node 46, Type 0, BuildingBlock: BETDEL_clean_sbu_0, # of connection points: 6
#     Node 47, Type 0, BuildingBlock: BETDEL_clean_sbu_0, # of connection points: 6
#     Edge 48, Type (0, 0), BuildingBlock: CIFDUS_clean_linker_0, # of connection points: 2
#     Edge 49, Type (0, 0), BuildingBlock: CIFDUS_clean_linker_0, # of connection points: 2
#     Edge 50, Type (0, 0), BuildingBlock: CIFDUS_clean_linker_0, # of connection points: 2
#     Edge 51, Type (0, 0), BuildingBlock: CIFDUS_clean_linker_0, # of connection points: 2
#     Edge 52, Type (0, 0), BuildingBlock: CIFDUS_clean_linker_0, # of connection points: 2
#     Edge 53, Type (0, 0), BuildingBlock: CIFDUS_clean_linker_0, # of connection points: 2
#     Edge 54, Type (0, 0), BuildingBlock: CIFDUS_clean_linker_0, # of connection points: 2
#     Edge 55, Type (0, 0), BuildingBlock: CIFDUS_clean_linker_0, # of connection points: 2
#     Edge 56, Type (0, 0), BuildingBlock: CIFDUS_clean_linker_0, # of connection points: 2
#     Edge 57, Type (0, 0), BuildingBlock: CIFDUS_clean_linker_0, # of connection points: 2
#     Edge 58, Type (0, 0), BuildingBlock: CIFDUS_clean_linker_0, # of connection points: 2
#     Edge 59, Type (0, 0), BuildingBlock: CIFDUS_clean_linker_0, # of connection points: 2
#     Edge 60, Type (0, 0), BuildingBlock: CIFDUS_clean_linker_0, # of connection points: 2
#     Edge 61, Type (0, 0), BuildingBlock: CIFDUS_clean_linker_0, # of connection points: 2
#     Edge 62, Type (0, 0), BuildingBlock: CIFDUS_clean_linker_0, # of connection points: 2
#     Edge 63, Type (0, 0), BuildingBlock: CIFDUS_clean_linker_0, # of connection points: 2
#     Edge 64, Type (0, 0), BuildingBlock: CIFDUS_clean_linker_0, # of connection points: 2
#     Edge 65, Type (0, 0), BuildingBlock: CIFDUS_clean_linker_0, # of connection points: 2
#     Edge 66, Type (0, 0), BuildingBlock: CIFDUS_clean_linker_0, # of connection points: 2
#     Edge 67, Type (0, 0), BuildingBlock: CIFDUS_clean_linker_0, # of connection points: 2
#     Edge 68, Type (0, 0), BuildingBlock: CIFDUS_clean_linker_0, # of connection points: 2
#     Edge 69, Type (0, 0), BuildingBlock: CIFDUS_clean_linker_0, # of connection points: 2
#     Edge 70, Type (0, 0), BuildingBlock: CIFDUS_clean_linker_0, # of connection points: 2
#     Edge 71, Type (0, 0), BuildingBlock: CIFDUS_clean_linker_0, # of connection points: 2
#     Edge 72, Type (0, 0), BuildingBlock: CIFDUS_clean_linker_0, # of connection points: 2
#     Edge 73, Type (0, 0), BuildingBlock: CIFDUS_clean_linker_0, # of connection points: 2
#     Edge 74, Type (0, 0), BuildingBlock: CIFDUS_clean_linker_0, # of connection points: 2
#     Edge 75, Type (0, 0), BuildingBlock: CIFDUS_clean_linker_0, # of connection points: 2
#     Edge 76, Type (0, 0), BuildingBlock: CIFDUS_clean_linker_0, # of connection points: 2
#     Edge 77, Type (0, 0), BuildingBlock: CIFDUS_clean_linker_0, # of connection points: 2
#     Edge 78, Type (0, 0), BuildingBlock: CIFDUS_clean_linker_0, # of connection points: 2
#     Edge 79, Type (0, 0), BuildingBlock: CIFDUS_clean_linker_0, # of connection points: 2
#     Edge 80, Type (0, 0), BuildingBlock: CIFDUS_clean_linker_0, # of connection points: 2
#     Edge 81, Type (0, 0), BuildingBlock: CIFDUS_clean_linker_0, # of connection points: 2
#     Edge 82, Type (0, 0), BuildingBlock: CIFDUS_clean_linker_0, # of connection points: 2
#     Edge 83, Type (0, 0), BuildingBlock: CIFDUS_clean_linker_0, # of connection points: 2
#     Edge 84, Type (0, 0), BuildingBlock: CIFDUS_clean_linker_0, # of connection points: 2
#     Edge 85, Type (0, 0), BuildingBlock: CIFDUS_clean_linker_0, # of connection points: 2
#     Edge 86, Type (0, 0), BuildingBlock: CIFDUS_clean_linker_0, # of connection points: 2
#     Edge 87, Type (0, 0), BuildingBlock: CIFDUS_clean_linker_0, # of connection points: 2
#     Edge 88, Type (0, 0), BuildingBlock: CIFDUS_clean_linker_0, # of connection points: 2
#     Edge 89, Type (0, 0), BuildingBlock: CIFDUS_clean_linker_0, # of connection points: 2
#     Edge 90, Type (0, 0), BuildingBlock: CIFDUS_clean_linker_0, # of connection points: 2
#     Edge 91, Type (0, 0), BuildingBlock: CIFDUS_clean_linker_0, # of connection points: 2
#     Edge 92, Type (0, 0), BuildingBlock: CIFDUS_clean_linker_0, # of connection points: 2
#     Edge 93, Type (0, 0), BuildingBlock: CIFDUS_clean_linker_0, # of connection points: 2
#     Edge 94, Type (0, 0), BuildingBlock: CIFDUS_clean_linker_0, # of connection points: 2
#     Edge 95, Type (0, 0), BuildingBlock: CIFDUS_clean_linker_0, # of connection points: 2
#     Edge 96, Type (0, 0), BuildingBlock: CIFDUS_clean_linker_0, # of connection points: 2
#     Edge 97, Type (0, 0), BuildingBlock: CIFDUS_clean_linker_0, # of connection points: 2
#     Edge 98, Type (0, 0), BuildingBlock: CIFDUS_clean_linker_0, # of connection points: 2
#     Edge 99, Type (0, 0), BuildingBlock: CIFDUS_clean_linker_0, # of connection points: 2
#     Edge 100, Type (0, 0), BuildingBlock: CIFDUS_clean_linker_0, # of connection points: 2
#     Edge 101, Type (0, 0), BuildingBlock: CIFDUS_clean_linker_0, # of connection points: 2
#     Edge 102, Type (0, 0), BuildingBlock: CIFDUS_clean_linker_0, # of connection points: 2
#     Edge 103, Type (0, 0), BuildingBlock: CIFDUS_clean_linker_0, # of connection points: 2
#     Edge 104, Type (0, 0), BuildingBlock: CIFDUS_clean_linker_0, # of connection points: 2
#     Edge 105, Type (0, 0), BuildingBlock: CIFDUS_clean_linker_0, # of connection points: 2
#     Edge 106, Type (0, 0), BuildingBlock: CIFDUS_clean_linker_0, # of connection points: 2
#     Edge 107, Type (0, 0), BuildingBlock: CIFDUS_clean_linker_0, # of connection points: 2
#     Edge 108, Type (0, 0), BuildingBlock: CIFDUS_clean_linker_0, # of connection points: 2
#     Edge 109, Type (0, 0), BuildingBlock: CIFDUS_clean_linker_0, # of connection points: 2
#     Edge 110, Type (0, 0), BuildingBlock: CIFDUS_clean_linker_0, # of connection points: 2
#     Edge 111, Type (0, 0), BuildingBlock: CIFDUS_clean_linker_0, # of connection points: 2
#     Edge 112, Type (0, 0), BuildingBlock: CIFDUS_clean_linker_0, # of connection points: 2
#     Edge 113, Type (0, 0), BuildingBlock: CIFDUS_clean_linker_0, # of connection points: 2
#     Edge 114, Type (0, 0), BuildingBlock: CIFDUS_clean_linker_0, # of connection points: 2
#     Edge 115, Type (0, 0), BuildingBlock: CIFDUS_clean_linker_0, # of connection points: 2
#     Edge 116, Type (0, 0), BuildingBlock: CIFDUS_clean_linker_0, # of connection points: 2
#     Edge 117, Type (0, 0), BuildingBlock: CIFDUS_clean_linker_0, # of connection points: 2
#     Edge 118, Type (0, 0), BuildingBlock: CIFDUS_clean_linker_0, # of connection points: 2
#     Edge 119, Type (0, 0), BuildingBlock: CIFDUS_clean_linker_0, # of connection points: 2
#     Edge 120, Type (0, 0), BuildingBlock: CIFDUS_clean_linker_0, # of connection points: 2
#     Edge 121, Type (0, 0), BuildingBlock: CIFDUS_clean_linker_0, # of connection points: 2
#     Edge 122, Type (0, 0), BuildingBlock: CIFDUS_clean_linker_0, # of connection points: 2
#     Edge 123, Type (0, 0), BuildingBlock: CIFDUS_clean_linker_0, # of connection points: 2
#     Edge 124, Type (0, 0), BuildingBlock: CIFDUS_clean_linker_0, # of connection points: 2
#     Edge 125, Type (0, 0), BuildingBlock: CIFDUS_clean_linker_0, # of connection points: 2
#     Edge 126, Type (0, 0), BuildingBlock: CIFDUS_clean_linker_0, # of connection points: 2
#     Edge 127, Type (0, 0), BuildingBlock: CIFDUS_clean_linker_0, # of connection points: 2
#     Edge 128, Type (0, 0), BuildingBlock: CIFDUS_clean_linker_0, # of connection points: 2
#     Edge 129, Type (0, 0), BuildingBlock: CIFDUS_clean_linker_0, # of connection points: 2
#     Edge 130, Type (0, 0), BuildingBlock: CIFDUS_clean_linker_0, # of connection points: 2
#     Edge 131, Type (0, 0), BuildingBlock: CIFDUS_clean_linker_0, # of connection points: 2
#     Edge 132, Type (0, 0), BuildingBlock: CIFDUS_clean_linker_0, # of connection points: 2
#     Edge 133, Type (0, 0), BuildingBlock: CIFDUS_clean_linker_0, # of connection points: 2
#     Edge 134, Type (0, 0), BuildingBlock: CIFDUS_clean_linker_0, # of connection points: 2
#     Edge 135, Type (0, 0), BuildingBlock: CIFDUS_clean_linker_0, # of connection points: 2
#     Edge 136, Type (0, 0), BuildingBlock: CIFDUS_clean_linker_0, # of connection points: 2
#     Edge 137, Type (0, 0), BuildingBlock: CIFDUS_clean_linker_0, # of connection points: 2
#     Edge 138, Type (0, 0), BuildingBlock: CIFDUS_clean_linker_0, # of connection points: 2
#     Edge 139, Type (0, 0), BuildingBlock: CIFDUS_clean_linker_0, # of connection points: 2
#     Edge 140, Type (0, 0), BuildingBlock: CIFDUS_clean_linker_0, # of connection points: 2
#     Edge 141, Type (0, 0), BuildingBlock: CIFDUS_clean_linker_0, # of connection points: 2
#     Edge 142, Type (0, 0), BuildingBlock: CIFDUS_clean_linker_0, # of connection points: 2
#     Edge 143, Type (0, 0), BuildingBlock: CIFDUS_clean_linker_0, # of connection points: 2
#     Edge 144, Type (0, 0), BuildingBlock: CIFDUS_clean_linker_0, # of connection points: 2
#     Edge 145, Type (0, 0), BuildingBlock: CIFDUS_clean_linker_0, # of connection points: 2
#     Edge 146, Type (0, 0), BuildingBlock: CIFDUS_clean_linker_0, # of connection points: 2
#     Edge 147, Type (0, 0), BuildingBlock: CIFDUS_clean_linker_0, # of connection points: 2
#     Edge 148, Type (0, 0), BuildingBlock: CIFDUS_clean_linker_0, # of connection points: 2
#     Edge 149, Type (0, 0), BuildingBlock: CIFDUS_clean_linker_0, # of connection points: 2
#     Edge 150, Type (0, 0), BuildingBlock: CIFDUS_clean_linker_0, # of connection points: 2
#     Edge 151, Type (0, 0), BuildingBlock: CIFDUS_clean_linker_0, # of connection points: 2
#     Edge 152, Type (0, 0), BuildingBlock: CIFDUS_clean_linker_0, # of connection points: 2
#     Edge 153, Type (0, 0), BuildingBlock: CIFDUS_clean_linker_0, # of connection points: 2
#     Edge 154, Type (0, 0), BuildingBlock: CIFDUS_clean_linker_0, # of connection points: 2
#     Edge 155, Type (0, 0), BuildingBlock: CIFDUS_clean_linker_0, # of connection points: 2
#     Edge 156, Type (0, 0), BuildingBlock: CIFDUS_clean_linker_0, # of connection points: 2
#     Edge 157, Type (0, 0), BuildingBlock: CIFDUS_clean_linker_0, # of connection points: 2
#     Edge 158, Type (0, 0), BuildingBlock: CIFDUS_clean_linker_0, # of connection points: 2
#     Edge 159, Type (0, 0), BuildingBlock: CIFDUS_clean_linker_0, # of connection points: 2
#     Edge 160, Type (0, 0), BuildingBlock: CIFDUS_clean_linker_0, # of connection points: 2
#     Edge 161, Type (0, 0), BuildingBlock: CIFDUS_clean_linker_0, # of connection points: 2
#     Edge 162, Type (0, 0), BuildingBlock: CIFDUS_clean_linker_0, # of connection points: 2
#     Edge 163, Type (0, 0), BuildingBlock: CIFDUS_clean_linker_0, # of connection points: 2
#     Edge 164, Type (0, 0), BuildingBlock: CIFDUS_clean_linker_0, # of connection points: 2
#     Edge 165, Type (0, 0), BuildingBlock: CIFDUS_clean_linker_0, # of connection points: 2
#     Edge 166, Type (0, 0), BuildingBlock: CIFDUS_clean_linker_0, # of connection points: 2
#     Edge 167, Type (0, 0), BuildingBlock: CIFDUS_clean_linker_0, # of connection points: 2
#     Edge 168, Type (0, 0), BuildingBlock: CIFDUS_clean_linker_0, # of connection points: 2
#     Edge 169, Type (0, 0), BuildingBlock: CIFDUS_clean_linker_0, # of connection points: 2
#     Edge 170, Type (0, 0), BuildingBlock: CIFDUS_clean_linker_0, # of connection points: 2
#     Edge 171, Type (0, 0), BuildingBlock: CIFDUS_clean_linker_0, # of connection points: 2
#     Edge 172, Type (0, 0), BuildingBlock: CIFDUS_clean_linker_0, # of connection points: 2
#     Edge 173, Type (0, 0), BuildingBlock: CIFDUS_clean_linker_0, # of connection points: 2
#     Edge 174, Type (0, 0), BuildingBlock: CIFDUS_clean_linker_0, # of connection points: 2
#     Edge 175, Type (0, 0), BuildingBlock: CIFDUS_clean_linker_0, # of connection points: 2
#     Edge 176, Type (0, 0), BuildingBlock: CIFDUS_clean_linker_0, # of connection points: 2
#     Edge 177, Type (0, 0), BuildingBlock: CIFDUS_clean_linker_0, # of connection points: 2
#     Edge 178, Type (0, 0), BuildingBlock: CIFDUS_clean_linker_0, # of connection points: 2
#     Edge 179, Type (0, 0), BuildingBlock: CIFDUS_clean_linker_0, # of connection points: 2
#     Edge 180, Type (0, 0), BuildingBlock: CIFDUS_clean_linker_0, # of connection points: 2
#     Edge 181, Type (0, 0), BuildingBlock: CIFDUS_clean_linker_0, # of connection points: 2
#     Edge 182, Type (0, 0), BuildingBlock: CIFDUS_clean_linker_0, # of connection points: 2
#     Edge 183, Type (0, 0), BuildingBlock: CIFDUS_clean_linker_0, # of connection points: 2
#     Edge 184, Type (0, 0), BuildingBlock: CIFDUS_clean_linker_0, # of connection points: 2
#     Edge 185, Type (0, 0), BuildingBlock: CIFDUS_clean_linker_0, # of connection points: 2
#     Edge 186, Type (0, 0), BuildingBlock: CIFDUS_clean_linker_0, # of connection points: 2
#     Edge 187, Type (0, 0), BuildingBlock: CIFDUS_clean_linker_0, # of connection points: 2
#     Edge 188, Type (0, 0), BuildingBlock: CIFDUS_clean_linker_0, # of connection points: 2
#     Edge 189, Type (0, 0), BuildingBlock: CIFDUS_clean_linker_0, # of connection points: 2
#     Edge 190, Type (0, 0), BuildingBlock: CIFDUS_clean_linker_0, # of connection points: 2
#     Edge 191, Type (0, 0), BuildingBlock: CIFDUS_clean_linker_0, # of connection points: 2
# Relax obj value: 0.437
# Max RMSD: 0.319
# Mean RMSD: 0.284
data_MOF--net-lcs-e--node1-BETDEL_clean_sbu_0--edge1-CIFDUS_clean_linker_0
_symmetry_space_group_name_H-M    P1
_symmetry_Int_Tables_number       1
_symmetry_cell_setting            triclinic
loop_
_symmetry_equiv_pos_as_xyz
'x, y, z'
_cell_length_a     50.358831
_cell_length_b     51.627432
_cell_length_c     49.902245
_cell_angle_alpha  88.661957
_cell_angle_beta   89.525785
_cell_angle_gamma 88.708185
loop_
_atom_site_label
_atom_site_type_symbol
_atom_site_fract_x
_atom_site_fract_y
_atom_site_fract_z
_atom_type_partial_charge
Dy0 Dy 1.00123 0.38033 0.27134 0.0
C1 C 0.01416 0.47441 0.33092 0.0
C2 C 0.0068 0.32781 0.25928 0.0
Dy3 Dy 0.00618 0.42754 0.30823 0.0
O4 O 0.98946 0.34399 0.24803 0.0
O5 O 0.02055 0.34079 0.27601 0.0
O6 O 0.99297 0.41101 0.23819 0.0
O7 O 0.9802 0.4181 0.27668 0.0
C8 C 0.98226 0.42854 0.2538 0.0
C9 C 0.0268 0.38381 0.32864 0.0
O10 O 0.9666 0.41309 0.32193 0.0
O11 O 0.97234 0.37199 0.30465 0.0
O12 O 0.00867 0.453 0.34362 0.0
O13 O 0.01366 0.47042 0.30533 0.0
O14 O 0.01698 0.4024 0.34287 0.0
O15 O 0.02764 0.39073 0.30416 0.0
O16 O 0.04049 0.39279 0.25661 0.0
O17 O 0.04114 0.43179 0.27916 0.0
C18 C 0.96099 0.38805 0.32186 0.0
C19 C 0.05144 0.41519 0.26155 0.0
Dy20 Dy 0.86942 0.75843 0.55729 0.0
C21 C 0.84387 0.84197 0.48509 0.0
C22 C 0.88851 0.72116 0.59081 0.0
Dy23 Dy 0.86093 0.80221 0.5169 0.0
O24 O 0.88353 0.74492 0.59724 0.0
O25 O 0.88335 0.7175 0.56568 0.0
O26 O 0.83096 0.76711 0.57937 0.0
O27 O 0.85128 0.79632 0.55855 0.0
C28 C 0.83001 0.79086 0.57031 0.0
C29 C 0.90683 0.77566 0.50851 0.0
O30 O 0.88331 0.82302 0.54803 0.0
O31 O 0.90241 0.78566 0.56673 0.0
O32 O 0.84532 0.81797 0.47775 0.0
O33 O 0.85204 0.84417 0.50947 0.0
O34 O 0.90207 0.79933 0.50056 0.0
O35 O 0.88509 0.76563 0.51659 0.0
O36 O 0.83384 0.74278 0.53579 0.0
O37 O 0.82184 0.78169 0.51472 0.0
C38 C 0.90139 0.81124 0.56344 0.0
C39 C 0.8161 0.75787 0.5229 0.0
Dy40 Dy 0.46266 0.6202 0.73631 0.0
C41 C 0.53067 0.62435 0.82765 0.0
C42 C 0.43066 0.60762 0.69502 0.0
Dy43 Dy 0.50366 0.61918 0.78108 0.0
O44 O 0.42588 0.62558 0.71224 0.0
O45 O 0.45439 0.59764 0.69901 0.0
O46 O 0.43244 0.64166 0.76083 0.0
O47 O 0.4734 0.64609 0.7671 0.0
C48 C 0.45049 0.65133 0.77596 0.0
C49 C 0.50848 0.57717 0.74823 0.0
O50 O 0.46908 0.60219 0.80349 0.0
O51 O 0.44257 0.59465 0.76661 0.0
O52 O 0.50505 0.62506 0.82542 0.0
O53 O 0.54172 0.62042 0.80443 0.0
O54 O 0.52818 0.58941 0.75836 0.0
O55 O 0.48754 0.58905 0.7556 0.0
O56 O 0.48818 0.65404 0.72099 0.0
O57 O 0.51469 0.65664 0.75865 0.0
C58 C 0.44713 0.59339 0.79275 0.0
C59 C 0.50597 0.66668 0.73532 0.0
Dy60 Dy 0.61073 0.2245 0.01588 0.0
C61 C 0.59846 0.28274 0.10972 0.0
C62 C 0.62008 0.19599 0.97154 0.0
Dy63 Dy 0.61077 0.25881 0.06373 0.0
O64 O 0.60599 0.18891 0.99204 0.0
O65 O 0.6294 0.21885 0.97523 0.0
O66 O 0.57529 0.20341 0.03329 0.0
O67 O 0.60337 0.21856 0.05826 0.0
C68 C 0.58164 0.20733 0.05798 0.0
C69 C 0.65076 0.27024 0.03001 0.0
O70 O 0.64024 0.22857 0.07816 0.0
O71 O 0.64779 0.20978 0.0368 0.0
O72 O 0.6083 0.2944 0.08867 0.0
O73 O 0.59565 0.25831 0.10574 0.0
O74 O 0.65 0.27593 0.05518 0.0
O75 O 0.62764 0.26287 0.02269 0.0
O76 O 0.57468 0.24903 0.00539 0.0
O77 O 0.56898 0.26496 0.04791 0.0
C78 C 0.65422 0.21309 0.06221 0.0
C79 C 0.55951 0.26 0.02396 0.0
Dy80 Dy 0.97995 0.63399 0.21692 0.0
C81 C 0.07927 0.62463 0.27396 0.0
C82 C 0.93258 0.64677 0.19329 0.0
Dy83 Dy 0.03157 0.63299 0.24938 0.0
O84 O 0.94417 0.62409 0.19329 0.0
O85 O 0.94624 0.66213 0.20789 0.0
O86 O 0.99683 0.61362 0.18178 0.0
O87 O 0.01416 0.60801 0.21982 0.0
C88 C 0.0171 0.60398 0.19491 0.0
C89 C 0.99886 0.6761 0.25902 0.0
O90 O 0.04713 0.65056 0.21152 0.0
O91 O 0.00633 0.65879 0.1906 0.0
O92 O 0.07623 0.62984 0.24855 0.0
O93 O 0.05633 0.62437 0.28603 0.0
O94 O 0.01389 0.6643 0.27675 0.0
O95 O 1.00219 0.66339 0.23796 0.0
O96 O 0.97004 0.60254 0.24823 0.0
O97 O 0.01357 0.59359 0.2597 0.0
C98 C 0.03274 0.65999 0.19122 0.0
C99 C 0.98841 0.58627 0.25855 0.0
Dy100 Dy 0.6211 0.79404 0.52039 0.0
C101 C 0.60784 0.72604 0.43124 0.0
C102 C 0.63587 0.83254 0.55325 0.0
Dy103 Dy 0.61771 0.75181 0.47678 0.0
O104 O 0.63337 0.80838 0.56112 0.0
O105 O 0.63012 0.83515 0.5281 0.0
O106 O 0.58471 0.81431 0.50298 0.0
O107 O 0.61073 0.79298 0.47883 0.0
C108 C 0.58908 0.80531 0.47923 0.0
C109 C 0.65804 0.7424 0.5113 0.0
O110 O 0.64698 0.77847 0.45766 0.0
O111 O 0.65863 0.79953 0.49629 0.0
O112 O 0.60869 0.71517 0.45507 0.0
O113 O 0.61197 0.75063 0.43261 0.0
O114 O 0.6555 0.73125 0.48845 0.0
O115 O 0.63588 0.75385 0.51688 0.0
O116 O 0.58272 0.77474 0.53377 0.0
O117 O 0.57616 0.7517 0.49474 0.0
C118 C 0.66273 0.79388 0.47081 0.0
C119 C 0.56716 0.76148 0.5176 0.0
Dy120 Dy 0.5074 0.37271 0.71979 0.0
C121 C 0.41177 0.37351 0.782 0.0
C122 C 0.55484 0.36271 0.69532 0.0
Dy123 Dy 0.45966 0.3699 0.75616 0.0
O124 O 0.53694 0.3794 0.68705 0.0
O125 O 0.54735 0.35222 0.71808 0.0
O126 O 0.48606 0.39075 0.68531 0.0
O127 O 0.4724 0.39733 0.72512 0.0
C128 C 0.46701 0.39986 0.70039 0.0
C129 C 0.49592 0.32985 0.76512 0.0
O130 O 0.44325 0.34906 0.7214 0.0
O131 O 0.48321 0.34432 0.6979 0.0
O132 O 0.43459 0.37062 0.79377 0.0
O133 O 0.41514 0.37398 0.7562 0.0
O134 O 0.48287 0.34203 0.78375 0.0
O135 O 0.48946 0.34084 0.74331 0.0
O136 O 0.51685 0.40715 0.74576 0.0
O137 O 0.47602 0.40919 0.76706 0.0
C138 C 0.45738 0.34041 0.70084 0.0
C139 C 0.49913 0.41999 0.76069 0.0
Dy140 Dy 0.85633 0.26811 0.9568 0.0
C141 C 0.85719 0.17582 0.02253 0.0
C142 C 0.8705 0.31203 0.92982 0.0
Dy143 Dy 0.85914 0.22304 0.99765 0.0
O144 O 0.85365 0.29536 0.9214 0.0
O145 O 0.87794 0.30559 0.95403 0.0
O146 O 0.83789 0.24369 0.92539 0.0
O147 O 0.8321 0.23531 0.96631 0.0
C148 C 0.82881 0.22698 0.94301 0.0
C149 C 0.89825 0.25858 0.00441 0.0
O150 O 0.87898 0.20469 0.96227 0.0
O151 O 0.88697 0.24249 0.9376 0.0
O152 O 0.86582 0.18009 0.99837 0.0
O153 O 0.84936 0.19747 0.03311 0.0
O154 O 0.8871 0.24546 0.02388 0.0
O155 O 0.88749 0.25152 0.98312 0.0
O156 O 0.82221 0.28059 0.98444 0.0
O157 O 0.81804 0.2408 0.00648 0.0
C158 C 0.88936 0.21702 0.94124 0.0
C159 C 0.80845 0.26449 1.00028 0.0
Dy160 Dy 0.31075 1.00629 0.36637 0.0
C161 C 0.24644 0.09419 0.37579 0.0
C162 C 0.33457 0.95942 0.3573 0.0
Dy163 Dy 0.27897 0.05308 0.36669 0.0
O164 O 0.3323 0.97015 0.38044 0.0
O165 O 0.32197 0.97365 0.33957 0.0
O166 O 0.34829 0.02519 0.37821 0.0
O167 O 0.31145 0.03979 0.39233 0.0
C168 C 0.33622 0.04343 0.39134 0.0
C169 C 0.27126 0.0272 0.32112 0.0
O170 O 0.31471 0.06979 0.34706 0.0
O171 O 0.32968 0.0299 0.33302 0.0
O172 O 0.23862 0.07055 0.37366 0.0
O173 O 0.27201 0.09542 0.37292 0.0
O174 O 0.27122 0.052 0.32335 0.0
O175 O 0.27361 0.0162 0.34438 0.0
O176 O 0.28824 0.99594 0.40455 0.0
O177 O 0.2653 0.03495 0.40604 0.0
C178 C 0.33094 0.05554 0.33229 0.0
C179 C 0.27219 0.01228 0.41733 0.0
Dy180 Dy 0.22909 1.00122 0.63 0.0
C181 C 0.29129 0.09132 0.60557 0.0
C182 C 0.19534 0.96453 0.65026 0.0
Dy183 Dy 0.26554 0.04798 0.62183 0.0
O184 O 0.20318 0.96643 0.62552 0.0
O185 O 0.20762 0.98141 0.66409 0.0
O186 O 0.20584 0.01179 0.59237 0.0
O187 O 0.22464 0.03987 0.61382 0.0
C188 C 0.2128 0.03575 0.5925 0.0
C189 C 0.27529 0.02124 0.66762 0.0
O190 O 0.23394 0.06689 0.64683 0.0
O191 O 0.21347 0.02897 0.66109 0.0
O192 O 0.26603 0.08786 0.60332 0.0
O193 O 0.30284 0.07087 0.61632 0.0
O194 O 0.28174 0.04504 0.66265 0.0
O195 O 0.26841 0.01074 0.64565 0.0
O196 O 0.25564 0.98631 0.59628 0.0
O197 O 0.27225 0.02643 0.58376 0.0
C198 C 0.21723 0.05426 0.66278 0.0
C199 C 0.26725 1.00206 0.57833 0.0
Dy200 Dy 0.24781 0.96622 0.87411 0.0
C201 C 0.16885 0.04751 0.8665 0.0
C202 C 0.28281 0.9277 0.88706 0.0
Dy203 Dy 0.20992 0.01351 0.87545 0.0
O204 O 0.26013 0.92455 0.87557 0.0
O205 O 0.28654 0.9521 0.89162 0.0
O206 O 0.2338 0.9553 0.83318 0.0
O207 O 0.20905 0.97551 0.85886 0.0
C208 C 0.21079 0.96705 0.83559 0.0
C209 C 0.24924 0.01436 0.91282 0.0
O210 O 0.18418 0.98391 0.89628 0.0
O211 O 0.21635 0.95087 0.90183 0.0
O212 O 0.17646 0.03957 0.89023 0.0
O213 O 0.18389 0.03727 0.84824 0.0
O214 O 0.24008 0.03472 0.89968 0.0
O215 O 0.23726 0.99513 0.90431 0.0
O216 O 0.26759 0.99117 0.84256 0.0
O217 O 0.23211 0.01991 0.83638 0.0
C218 C 0.19219 0.9609 0.90615 0.0
C219 C 0.25459 0.00895 0.82788 0.0
Dy220 Dy 0.25926 0.96271 0.11423 0.0
C221 C 0.3522 0.02169 0.1268 0.0
C222 C 0.22798 0.92297 0.10018 0.0
Dy223 Dy 0.30463 1.00128 0.11537 0.0
O224 O 0.25209 0.92097 0.10872 0.0
O225 O 0.21996 0.94727 0.09999 0.0
O226 O 0.27319 0.94571 0.15399 0.0
O227 O 0.3001 0.96119 0.12626 0.0
C228 C 0.29774 0.95158 0.14939 0.0
C229 C 0.27416 0.0095 0.07225 0.0
O230 O 0.32279 0.9705 0.08991 0.0
O231 O 0.2831 0.95284 0.07769 0.0
O232 O 0.33353 0.03407 0.11351 0.0
O233 O 0.3443 0.99909 0.13457 0.0
O234 O 0.29828 0.01744 0.07459 0.0
O235 O 0.2653 1.00144 0.0952 0.0
O236 O 0.2455 0.98497 0.1507 0.0
O237 O 0.28264 0.01112 0.15346 0.0
C238 C 0.30908 0.95481 0.07502 0.0
C239 C 0.26037 1.00161 0.16374 0.0
Dy240 Dy 0.3626 0.26388 0.07262 0.0
C241 C 0.33888 0.34021 0.98674 0.0
C242 C 0.38171 0.22535 0.1052 0.0
Dy243 Dy 0.35498 0.30535 0.02444 0.0
O244 O 0.38031 0.24965 0.11111 0.0
O245 O 0.37266 0.22186 0.08117 0.0
O246 O 0.33468 0.284 0.10243 0.0
O247 O 0.34116 0.29842 0.06417 0.0
C248 C 0.32915 0.30298 0.08563 0.0
C249 C 0.40018 0.27639 0.02101 0.0
O250 O 0.37777 0.3279 0.05393 0.0
O251 O 0.39561 0.29188 0.07722 0.0
O252 O 0.34597 0.31642 0.98168 0.0
O253 O 0.34074 0.34491 0.01209 0.0
O254 O 0.39599 0.29843 0.00864 0.0
O255 O 0.37822 0.26881 0.03133 0.0
O256 O 0.3241 0.24974 0.05534 0.0
O257 O 0.31613 0.28398 0.02455 0.0
C258 C 0.39469 0.31711 0.07139 0.0
C259 C 0.30837 0.26294 0.03817 0.0
Dy260 Dy 0.01103 0.87872 0.22262 0.0
C261 C 0.91269 0.88262 0.27982 0.0
C262 C 0.05821 0.86756 0.19828 0.0
Dy263 Dy 0.96163 0.87714 0.25676 0.0
O264 O 0.04189 0.88631 0.19145 0.0
O265 O 0.04949 0.85587 0.21992 0.0
O266 O 0.99001 0.89957 0.18853 0.0
O267 O 0.97781 0.90467 0.22848 0.0
C268 C 0.97204 0.90951 0.20437 0.0
C269 C 0.99531 0.83496 0.2664 0.0
O270 O 0.94593 0.85938 0.21947 0.0
O271 O 0.9868 0.85274 0.19822 0.0
O272 O 0.91742 0.88362 0.25424 0.0
O273 O 0.9346 0.87812 0.29284 0.0
O274 O 0.98232 0.84773 0.28467 0.0
O275 O 0.99057 0.84667 0.24437 0.0
O276 O 0.02178 0.9102 0.25199 0.0
O277 O 0.97925 0.91595 0.26854 0.0
C278 C 0.96064 0.85076 0.19921 0.0
C279 C 0.00384 0.9247 0.265 0.0
Dy280 Dy 0.11695 0.72221 0.51532 0.0
C281 C 0.10989 0.77945 0.60936 0.0
C282 C 0.12182 0.70415 0.46456 0.0
Dy283 Dy 0.11859 0.75278 0.56416 0.0
O284 O 0.10422 0.69698 0.4821 0.0
O285 O 0.13589 0.72219 0.47461 0.0
O286 O 0.11069 0.68481 0.53754 0.0
O287 O 0.09489 0.71972 0.55329 0.0
C288 C 0.09838 0.69551 0.55759 0.0
C289 C 0.161 0.76304 0.53217 0.0
O290 O 0.14281 0.71833 0.57743 0.0
O291 O 0.15443 0.70719 0.53423 0.0
O292 O 0.11631 0.75496 0.60894 0.0
O293 O 0.10844 0.78931 0.58521 0.0
O294 O 0.16012 0.76607 0.55777 0.0
O295 O 0.13749 0.75842 0.52392 0.0
O296 O 0.07711 0.74217 0.50977 0.0
O297 O 0.0781 0.76591 0.54841 0.0
C298 C 0.15801 0.70542 0.56042 0.0
C299 C 0.06546 0.75803 0.52691 0.0
Dy300 Dy 0.99973 0.59687 0.70846 0.0
C301 C 0.9979 0.69536 0.7604 0.0
C302 C 0.99133 0.55183 0.68233 0.0
Dy303 Dy 0.0046 0.64293 0.74764 0.0
O304 O 0.99853 0.57356 0.67136 0.0
O305 O 0.9901 0.55433 0.70816 0.0
O306 O 0.98953 0.62352 0.67498 0.0
O307 O 0.97866 0.63361 0.71405 0.0
C308 C 0.9794 0.64142 0.68988 0.0
C309 C 0.02417 0.59465 0.7636 0.0
O310 O 0.96585 0.62889 0.76257 0.0
O311 O 0.96337 0.5926 0.73573 0.0
O312 O 0.019 0.68091 0.76622 0.0
O313 O 0.98086 0.68051 0.74935 0.0
O314 O 0.01487 0.61204 0.78024 0.0
O315 O 0.02523 0.60538 0.74079 0.0
O316 O 0.03925 0.61208 0.69527 0.0
O317 O 0.03289 0.65247 0.71414 0.0
C318 C 0.95374 0.60783 0.75496 0.0
C319 C 0.04487 0.63706 0.69669 0.0
Dy320 Dy 0.15206 0.20433 0.48278 0.0
C321 C 0.11498 0.29376 0.42394 0.0
C322 C 0.17337 0.16435 0.51165 0.0
Dy323 Dy 0.1397 0.25328 0.4493 0.0
O324 O 0.17178 0.18815 0.51945 0.0
O325 O 0.16328 0.16223 0.48788 0.0
O326 O 0.11434 0.20624 0.50601 0.0
O327 O 0.1296 0.24071 0.49023 0.0
C328 C 0.10885 0.23036 0.50041 0.0
C329 C 0.17473 0.22089 0.4271 0.0
O330 O 0.17783 0.26585 0.46883 0.0
O331 O 0.19155 0.22422 0.48146 0.0
O332 O 0.12599 0.27412 0.41222 0.0
O333 O 0.11799 0.29177 0.44979 0.0
O334 O 0.17552 0.24577 0.42267 0.0
O335 O 0.15473 0.21524 0.4409 0.0
O336 O 0.12329 0.18733 0.45463 0.0
O337 O 0.10536 0.22725 0.44055 0.0
C338 C 0.19675 0.24897 0.47691 0.0
C339 C 0.10451 0.20153 0.44234 0.0
Dy340 Dy 0.5149 0.38899 0.22432 0.0
C341 C 0.57383 0.40883 0.31886 0.0
C342 C 0.49024 0.37288 0.17972 0.0
Dy343 Dy 0.54745 0.39494 0.27393 0.0
O344 O 0.4781 0.38379 0.19984 0.0
O345 O 0.5156 0.37093 0.18401 0.0
O346 O 0.50749 0.43135 0.21958 0.0
O347 O 0.51146 0.41634 0.25895 0.0
C348 C 0.50961 0.43731 0.24449 0.0
C349 C 0.5703 0.36377 0.23888 0.0
O350 O 0.52519 0.35794 0.28651 0.0
O351 O 0.49825 0.35577 0.24916 0.0
O352 O 0.57278 0.38561 0.30966 0.0
O353 O 0.55787 0.42392 0.30498 0.0
O354 O 0.58408 0.37848 0.25399 0.0
O355 O 0.5459 0.36613 0.24412 0.0
O356 O 0.55196 0.40358 0.20544 0.0
O357 O 0.56754 0.4217 0.24402 0.0
C358 C 0.50751 0.34537 0.27196 0.0
C359 C 0.56893 0.41831 0.21773 0.0
Dy360 Dy 0.38448 0.74692 0.94857 0.0
C361 C 0.37099 0.82305 0.02563 0.0
C362 C 0.39486 0.71438 0.90786 0.0
Dy363 Dy 0.38371 0.78582 0.99008 0.0
O364 O 0.40977 0.7164 0.92873 0.0
O365 O 0.37459 0.73012 0.90914 0.0
O366 O 0.34485 0.73033 0.95726 0.0
O367 O 0.36441 0.74808 0.98843 0.0
C368 C 0.34185 0.74012 0.98065 0.0
C369 C 0.41982 0.79574 0.95106 0.0
O370 O 0.41748 0.76153 0.00711 0.0
O371 O 0.42504 0.74039 0.96748 0.0
O372 O 0.38212 0.82683 1.00252 0.0
O373 O 0.36693 0.79851 0.02986 0.0
O374 O 0.42329 0.80055 0.97617 0.0
O375 O 0.39697 0.78692 0.94807 0.0
O376 O 0.36348 0.77974 0.92673 0.0
O377 O 0.34843 0.79795 0.96565 0.0
C378 C 0.43307 0.7473 0.99146 0.0
C379 C 0.34719 0.79585 0.93942 0.0
Dy380 Dy 0.97702 0.39092 0.75583 0.0
C381 C 0.06076 0.37531 0.83144 0.0
C382 C 0.93458 0.39894 0.72267 0.0
Dy383 Dy 0.01836 0.38746 0.79965 0.0
O384 O 0.95936 0.40009 0.71538 0.0
O385 O 0.93295 0.39293 0.74803 0.0
O386 O 1.00305 0.36416 0.73072 0.0
O387 O 1.00294 0.35894 0.77157 0.0
C388 C 0.01231 0.34966 0.75027 0.0
C389 C 0.97677 0.41649 0.8129 0.0
O390 O 0.0347 0.42137 0.77452 0.0
O391 O 0.99663 0.43016 0.75019 0.0
O392 O 0.04741 0.39704 0.83134 0.0
O393 O 0.0514 0.36028 0.81339 0.0
O394 O 0.99208 0.405 0.83066 0.0
O395 O 0.98678 0.41441 0.78967 0.0
O396 O 0.95337 0.37005 0.78724 0.0
O397 O 0.98735 0.36154 0.81801 0.0
C398 C 0.02026 0.43735 0.75875 0.0
C399 C 0.96227 0.35966 0.81011 0.0
Dy400 Dy 0.39653 0.2549 0.52366 0.0
C401 C 0.3872 0.17826 0.44115 0.0
C402 C 0.4068 0.28593 0.56474 0.0
Dy403 Dy 0.39553 0.21084 0.48255 0.0
O404 O 0.39774 0.26263 0.56731 0.0
O405 O 0.41014 0.29248 0.53958 0.0
O406 O 0.35807 0.27384 0.51155 0.0
O407 O 0.37785 0.25036 0.48404 0.0
C408 C 0.35541 0.26146 0.48952 0.0
C409 C 0.41477 0.19726 0.53079 0.0
O410 O 0.43621 0.22784 0.47185 0.0
O411 O 0.43802 0.25774 0.50607 0.0
O412 O 0.40447 0.17438 0.46006 0.0
O413 O 0.37573 0.2008 0.444 0.0
O414 O 0.40219 0.18118 0.51606 0.0
O415 O 0.41739 0.21843 0.51823 0.0
O416 O 0.36976 0.22644 0.54411 0.0
O417 O 0.3576 0.20562 0.50549 0.0
C418 C 0.44954 0.24495 0.48606 0.0
C419 C 0.35398 0.21093 0.53111 0.0
Dy420 Dy 0.55085 0.64405 0.24211 0.0
C421 C 0.47831 0.65923 0.32913 0.0
C422 C 0.58841 0.63001 0.20554 0.0
Dy423 Dy 0.51081 0.64557 0.28803 0.0
O424 O 0.59264 0.64416 0.22616 0.0
O425 O 0.56353 0.62402 0.20456 0.0
O426 O 0.54267 0.68399 0.22684 0.0
O427 O 0.51195 0.66489 0.24771 0.0
C428 C 0.52008 0.68709 0.23905 0.0
C429 C 0.55037 0.61049 0.29487 0.0
O430 O 0.49669 0.60841 0.26963 0.0
O431 O 0.53189 0.60457 0.2396 0.0
O432 O 0.50395 0.65738 0.33005 0.0
O433 O 0.46988 0.65373 0.30531 0.0
O434 O 0.52754 0.60833 0.30684 0.0
O435 O 0.55126 0.63222 0.28347 0.0
O436 O 0.57388 0.66396 0.27381 0.0
O437 O 0.53635 0.67976 0.29529 0.0
C438 C 0.51103 0.59459 0.25227 0.0
C439 C 0.5622 0.68034 0.29058 0.0
Dy440 Dy 0.1318 0.79628 0.00597 0.0
C441 C 0.1292 0.70766 0.07646 0.0
C442 C 0.12935 0.84454 0.98275 0.0
Dy443 Dy 0.14078 0.7501 0.04601 0.0
O444 O 0.12456 0.83916 0.00772 0.0
O445 O 0.13521 0.8234 0.97013 0.0
O446 O 0.10256 0.77305 0.98196 0.0
O447 O 0.10694 0.76541 0.0221 0.0
C448 C 0.09428 0.75849 1.00183 0.0
C449 C 0.17636 0.78794 0.0501 0.0
O450 O 0.1681 0.73878 0.01208 0.0
O451 O 0.17335 0.78058 0.99557 0.0
O452 O 0.14518 0.72571 0.08334 0.0
O453 O 0.12013 0.71248 0.05248 0.0
O454 O 0.1814 0.76422 0.05858 0.0
O455 O 0.15268 0.78928 0.04278 0.0
O456 O 0.1107 0.81194 0.04222 0.0
O457 O 0.11586 0.77636 0.0718 0.0
C458 C 0.18256 0.75637 0.99914 0.0
C459 C 0.10712 0.80039 0.0661 0.0
Dy460 Dy 0.73335 0.95351 0.64786 0.0
C461 C 0.67181 0.04579 0.65534 0.0
C462 C 0.75421 0.90644 0.63625 0.0
Dy463 Dy 0.70156 1.00311 0.64465 0.0
O464 O 0.73917 0.91092 0.65689 0.0
O465 O 0.75853 0.92765 0.62267 0.0
O466 O 0.75545 0.96084 0.68499 0.0
O467 O 0.74075 0.99295 0.6624 0.0
C468 C 0.7498 0.98543 0.68535 0.0
C469 C 0.68329 0.96495 0.6142 0.0
O470 O 0.72432 0.01005 0.60597 0.0
O471 O 0.74163 0.96823 0.60549 0.0
O472 O 0.66346 0.02231 0.65535 0.0
O473 O 0.69698 0.04656 0.64926 0.0
O474 O 0.68029 0.98931 0.60767 0.0
O475 O 0.69322 0.96298 0.637 0.0
O476 O 0.69766 0.94363 0.67301 0.0
O477 O 0.68861 0.9858 0.68423 0.0
C478 C 0.73671 0.99094 0.5932 0.0
C479 C 0.6853 0.96073 0.68843 0.0
Dy480 Dy 0.74221 0.96176 0.38329 0.0
C481 C 0.81288 0.04779 0.37039 0.0
C482 C 0.71902 0.91638 0.3967 0.0
Dy483 Dy 0.77819 0.00912 0.38034 0.0
O484 O 0.70623 0.9369 0.38761 0.0
O485 O 0.74413 0.9208 0.39864 0.0
O486 O 0.72638 0.9668 0.34248 0.0
O487 O 0.73999 0.99992 0.36164 0.0
C488 C 0.73347 0.99064 0.33894 0.0
C489 C 0.79143 0.9724 0.41654 0.0
O490 O 0.75173 0.02126 0.4152 0.0
O491 O 0.73327 0.98087 0.42259 0.0
O492 O 0.8178 0.02673 0.38405 0.0
O493 O 0.78863 0.04791 0.36136 0.0
O494 O 0.79548 0.99669 0.42045 0.0
O495 O 0.78245 0.96949 0.39356 0.0
O496 O 0.77504 0.94582 0.35772 0.0
O497 O 0.79393 0.98525 0.34589 0.0
C498 C 0.73897 1.0043 0.43094 0.0
C499 C 0.79143 0.95991 0.34276 0.0
Dy500 Dy 0.79792 0.99844 0.12782 0.0
C501 C 0.72715 0.08786 0.12121 0.0
C502 C 0.83959 0.96556 0.13797 0.0
Dy503 Dy 0.7606 0.04736 0.13195 0.0
O504 O 0.83288 0.97379 0.11402 0.0
O505 O 0.82311 0.97463 0.15567 0.0
O506 O 0.76729 0.97712 0.10408 0.0
O507 O 0.76757 0.01681 0.10252 0.0
C508 C 0.75604 0.99772 0.09299 0.0
C509 C 0.80325 0.0466 0.16464 0.0
O510 O 0.74348 0.02377 0.166 0.0
O511 O 0.77826 0.99365 0.16858 0.0
O512 O 0.75246 0.08959 0.12527 0.0
O513 O 0.71979 0.06383 0.12317 0.0
O514 O 0.78185 0.06053 0.16895 0.0
O515 O 0.80074 0.03712 0.14206 0.0
O516 O 0.82116 0.02684 0.10257 0.0
O517 O 0.7863 0.05701 0.09663 0.0
C518 C 0.75715 1.00547 0.17926 0.0
C519 C 0.81044 0.0478 0.09053 0.0
Dy520 Dy 0.70944 0.02524 0.89232 0.0
C521 C 0.8022 0.08743 0.8885 0.0
C522 C 0.66039 1.00441 0.89569 0.0
Dy523 Dy 0.75729 0.0591 0.88381 0.0
O524 O 0.66497 0.02887 0.8925 0.0
O525 O 0.68261 0.99117 0.89676 0.0
O526 O 0.73269 0.9989 0.92069 0.0
O527 O 0.74075 0.03797 0.91924 0.0
C528 C 0.74665 0.01679 0.93131 0.0
C529 C 0.71472 0.07374 0.8551 0.0
O530 O 0.76859 0.02639 0.85593 0.0
O531 O 0.72576 0.01167 0.85218 0.0
O532 O 0.787 0.08733 0.86762 0.0
O533 O 0.79396 0.07017 0.90589 0.0
O534 O 0.73263 0.08994 0.86201 0.0
O535 O 0.72237 0.05095 0.86063 0.0
O536 O 0.69459 0.06209 0.91078 0.0
O537 O 0.73479 0.08296 0.91291 0.0
C538 C 0.75058 0.01314 0.84284 0.0
C539 C 0.70903 0.08197 0.91775 0.0
Dy540 Dy 0.63694 0.70259 0.99337 0.0
C541 C 0.61037 0.78561 0.92056 0.0
C542 C 0.65306 0.65977 0.02145 0.0
Dy543 Dy 0.62934 0.74841 0.95487 0.0
O544 O 0.65505 0.66282 0.99567 0.0
O545 O 0.64229 0.68019 0.03219 0.0
O546 O 0.59602 0.70599 0.01042 0.0
O547 O 0.61386 0.73972 0.99515 0.0
C548 C 0.59194 0.73008 0.00346 0.0
C549 C 0.66756 0.71488 0.94051 0.0
O550 O 0.66531 0.76252 0.97709 0.0
O551 O 0.67555 0.72319 0.9985 0.0
O552 O 0.61286 0.7887 0.94626 0.0
O553 O 0.61849 0.76267 0.91398 0.0
O554 O 0.66848 0.73946 0.93459 0.0
O555 O 0.64568 0.70977 0.95141 0.0
O556 O 0.61238 0.68375 0.96271 0.0
O557 O 0.59568 0.72235 0.94433 0.0
C558 C 0.68223 0.74682 0.99046 0.0
C559 C 0.59516 0.69677 0.94737 0.0
Dy560 Dy 0.04959 0.14548 0.74899 0.0
C561 C 0.95396 0.15909 0.81098 0.0
C562 C 0.09438 0.13171 0.72218 0.0
Dy563 Dy 1.00117 0.14823 0.78618 0.0
O564 O 0.09194 0.1319 0.7481 0.0
O565 O 0.07228 0.13924 0.71065 0.0
O566 O 0.04908 0.18744 0.73801 0.0
O567 O 0.01293 0.17075 0.74959 0.0
C568 C 0.02478 0.19236 0.74518 0.0
C569 C 0.04152 0.11925 0.80502 0.0
O570 O 0.99046 0.11155 0.7641 0.0
O571 O 0.02699 0.11034 0.73538 0.0
O572 O 0.97021 0.14022 0.81749 0.0
O573 O 0.96303 0.17144 0.78998 0.0
O574 O 0.02549 0.13197 0.82082 0.0
O575 O 0.03397 0.12176 0.78115 0.0
O576 O 0.06697 0.16341 0.78518 0.0
O577 O 0.02689 0.17817 0.80336 0.0
C578 C 0.00527 0.0994 0.74572 0.0
C579 C 0.05318 0.1777 0.80233 0.0
Dy580 Dy 0.89707 0.25717 0.45098 0.0
C581 C 0.90446 0.30904 0.54971 0.0
C582 C 0.89326 0.23557 0.4021 0.0
Dy583 Dy 0.90717 0.28909 0.49991 0.0
O584 O 0.89043 0.22322 0.42482 0.0
O585 O 0.89816 0.25975 0.40599 0.0
O586 O 0.86892 0.23137 0.47506 0.0
O587 O 0.87232 0.26932 0.48492 0.0
C588 C 0.86005 0.24903 0.49118 0.0
C589 C 0.93035 0.30746 0.45557 0.0
O590 O 0.93921 0.25883 0.50656 0.0
O591 O 0.93754 0.24101 0.46449 0.0
O592 O 0.91976 0.31714 0.53035 0.0
O593 O 0.89174 0.28886 0.54204 0.0
O594 O 0.9234 0.32204 0.47551 0.0
O595 O 0.92769 0.28374 0.46204 0.0
O596 O 0.87605 0.29461 0.43905 0.0
O597 O 0.87383 0.31199 0.48166 0.0
C598 C 0.94982 0.24419 0.4877 0.0
C599 C 0.86785 0.31279 0.45585 0.0
Dy600 Dy 0.50022 0.87317 0.76257 0.0
C601 C 0.53108 0.94817 0.84159 0.0
C602 C 0.49724 0.82355 0.74149 0.0
Dy603 Dy 0.51921 0.91238 0.80454 0.0
O604 O 0.47767 0.8408 0.74227 0.0
O605 O 0.51832 0.83427 0.75074 0.0
O606 O 0.48633 0.90922 0.73722 0.0
O607 O 0.48575 0.91027 0.77858 0.0
C608 C 0.48215 0.92411 0.75785 0.0
C609 C 0.54969 0.86911 0.80042 0.0
O610 O 0.48748 0.89286 0.82871 0.0
O611 O 0.47448 0.86225 0.79785 0.0
O612 O 0.5309 0.92328 0.84579 0.0
O613 O 0.52378 0.95362 0.81714 0.0
O614 O 0.55866 0.89223 0.80306 0.0
O615 O 0.52473 0.87105 0.79885 0.0
O616 O 0.5384 0.88689 0.74463 0.0
O617 O 0.53973 0.92574 0.76699 0.0
C618 C 0.47344 0.87255 0.82201 0.0
C619 C 0.54864 0.90998 0.74817 0.0
Dy620 Dy 0.96096 0.12959 0.23783 0.0
C621 C 0.01936 0.13063 0.33605 0.0
C622 C 0.93662 0.11688 0.19162 0.0
Dy623 Dy 0.99337 0.12686 0.28866 0.0
O624 O 0.93297 0.13843 0.20418 0.0
O625 O 0.9554 0.10319 0.20331 0.0
O626 O 0.92868 0.15387 0.25669 0.0
O627 O 0.9685 0.15629 0.26924 0.0
C628 C 0.94487 0.16341 0.2739 0.0
C629 C 0.99964 0.08307 0.25818 0.0
O630 O 0.9538 0.11417 0.30552 0.0
O631 O 0.93404 0.10707 0.26442 0.0
O632 O 0.03011 0.12349 0.31363 0.0
O633 O 0.99415 0.1356 0.33276 0.0
O634 O 0.01842 0.09372 0.2714 0.0
O635 O 0.97921 0.09731 0.2615 0.0
O636 O 0.9931 0.15794 0.22499 0.0
O637 O 0.00981 0.16304 0.2674 0.0
C638 C 0.93345 0.10664 0.29094 0.0
C639 C 0.00708 0.17164 0.24208 0.0
Dy640 Dy 0.49468 0.13607 0.71156 0.0
C641 C 0.57507 0.10802 0.78859 0.0
C642 C 0.45455 0.1493 0.67696 0.0
Dy643 Dy 0.53421 0.12544 0.75739 0.0
O644 O 0.46231 0.12585 0.68319 0.0
O645 O 0.46802 0.16552 0.69059 0.0
O646 O 0.52468 0.12206 0.68079 0.0
O647 O 0.52484 0.10752 0.72021 0.0
C648 C 0.53694 0.10705 0.69817 0.0
C649 C 0.50921 0.17244 0.76119 0.0
O650 O 0.55972 0.14598 0.72685 0.0
O651 O 0.52564 0.16534 0.702 0.0
O652 O 0.57674 0.11405 0.76325 0.0
O653 O 0.5507 0.11143 0.79725 0.0
O654 O 0.53137 0.16568 0.77254 0.0
O655 O 0.49849 0.15202 0.75221 0.0
O656 O 0.47809 0.09832 0.729 0.0
O657 O 0.50949 0.08893 0.76201 0.0
C658 C 0.55118 0.16234 0.70777 0.0
C659 C 0.4889 0.08199 0.7473 0.0
Dy660 Dy 0.11112 0.30556 0.02395 0.0
C661 C 0.1009 0.23134 0.94028 0.0
C662 C 0.11477 0.33912 0.06541 0.0
Dy663 Dy 0.11056 0.262 0.9821 0.0
O664 O 0.0945 0.33737 0.04977 0.0
O665 O 0.13251 0.32162 0.05916 0.0
O666 O 0.10481 0.33596 0.99137 0.0
O667 O 0.0899 0.29874 0.98751 0.0
C668 C 0.09285 0.32029 0.97572 0.0
C669 C 0.15063 0.25486 0.01752 0.0
O670 O 0.13753 0.2905 0.96227 0.0
O671 O 0.14903 0.31176 1.0009 0.0
O672 O 0.09691 0.22469 0.96533 0.0
O673 O 0.11029 0.25454 0.93823 0.0
O674 O 0.14884 0.24312 0.995 0.0
O675 O 0.12805 0.2658 0.02252 0.0
O676 O 0.07146 0.28692 0.03489 0.0
O677 O 0.06887 0.25921 0.99887 0.0
C678 C 0.15285 0.30643 0.97526 0.0
C679 C 0.05782 0.27083 0.01984 0.0
Dy680 Dy 0.37203 0.75792 0.46489 0.0
C681 C 0.35142 0.67151 0.53213 0.0
C682 C 0.38746 0.78941 0.42337 0.0
Dy683 Dy 0.36818 0.71495 0.50622 0.0
O684 O 0.38132 0.79774 0.44721 0.0
O685 O 0.38526 0.76456 0.42283 0.0
O686 O 0.3358 0.74316 0.4441 0.0
O687 O 0.36139 0.71741 0.46377 0.0
C688 C 0.33991 0.71916 0.45139 0.0
C689 C 0.40769 0.74666 0.51896 0.0
O690 O 0.39414 0.69722 0.47458 0.0
O691 O 0.41095 0.73629 0.46105 0.0
O692 O 0.33861 0.69359 0.53144 0.0
O693 O 0.37409 0.67351 0.51986 0.0
O694 O 0.40417 0.72388 0.52978 0.0
O695 O 0.38628 0.75379 0.50672 0.0
O696 O 0.33436 0.77242 0.48566 0.0
O697 O 0.32699 0.73363 0.50846 0.0
C698 C 0.41273 0.71078 0.46217 0.0
C699 C 0.31847 0.75679 0.49974 0.0
Dy700 Dy 0.80656 0.50972 0.84876 0.0
C701 C 0.73785 0.59439 0.87224 0.0
C702 C 0.83519 0.47093 0.82663 0.0
Dy703 Dy 0.76955 0.55519 0.85464 0.0
O704 O 0.84217 0.49484 0.82731 0.0
O705 O 0.81302 0.46742 0.83959 0.0
O706 O 0.83054 0.51997 0.88516 0.0
O707 O 0.8112 0.54891 0.86266 0.0
C708 C 0.82367 0.54439 0.88394 0.0
C709 C 0.75784 0.52724 0.81156 0.0
O710 O 0.80097 0.57316 0.8279 0.0
O711 O 0.81563 0.53371 0.812 0.0
O712 O 0.76257 0.59682 0.86517 0.0
O713 O 0.7304 0.57077 0.86915 0.0
O714 O 0.75178 0.55159 0.81415 0.0
O715 O 0.7662 0.51791 0.83407 0.0
O716 O 0.78748 0.49543 0.88727 0.0
O717 O 0.7654 0.5343 0.89521 0.0
C718 C 0.815 0.55927 0.81042 0.0
C719 C 0.7735 0.51076 0.90334 0.0
Dy720 Dy 0.71765 0.48511 0.10828 0.0
C721 C 0.7646 0.58419 0.09897 0.0
C722 C 0.69416 0.44047 0.1245 0.0
Dy723 Dy 0.75196 0.53404 0.10866 0.0
O724 O 0.68845 0.45377 0.10279 0.0
O725 O 0.71464 0.45045 0.13587 0.0
O726 O 0.68595 0.50603 0.08436 0.0
O727 O 0.72637 0.5158 0.08064 0.0
C728 C 0.70305 0.52194 0.07376 0.0
C729 C 0.75806 0.50293 0.15379 0.0
O730 O 0.714 0.5495 0.12654 0.0
O731 O 0.69116 0.51103 0.13266 0.0
O732 O 0.78108 0.5666 0.10865 0.0
O733 O 0.74162 0.57438 0.09489 0.0
O734 O 0.7767 0.51724 0.14334 0.0
O735 O 0.73787 0.50672 0.13925 0.0
O736 O 0.7487 0.47438 0.07608 0.0
O737 O 0.77108 0.51339 0.07335 0.0
C738 C 0.69305 0.53647 0.1351 0.0
C739 C 0.76616 0.49006 0.06383 0.0
Dy740 Dy 0.76406 0.46705 0.37137 0.0
C741 C 0.67242 0.53412 0.35897 0.0
C742 C 0.80794 0.43856 0.38534 0.0
Dy743 Dy 0.71756 0.50679 0.36971 0.0
O744 O 0.79773 0.43963 0.3616 0.0
O745 O 0.79447 0.45353 0.40122 0.0
O746 O 0.74458 0.44085 0.34126 0.0
O747 O 0.72238 0.4662 0.36361 0.0
C748 C 0.72115 0.4515 0.34425 0.0
C749 C 0.7532 0.51665 0.40792 0.0
O750 O 0.70143 0.47732 0.39908 0.0
O751 O 0.74093 0.45477 0.40838 0.0
O752 O 0.67408 0.51425 0.37521 0.0
O753 O 0.69562 0.53961 0.34896 0.0
O754 O 0.7295 0.52691 0.40661 0.0
O755 O 0.7586 0.50694 0.38505 0.0
O756 O 0.77456 0.48985 0.33362 0.0
O757 O 0.73191 0.50575 0.32634 0.0
C758 C 0.71571 0.46067 0.41407 0.0
C759 C 0.75605 0.49964 0.31718 0.0
Dy760 Dy 0.76358 0.45492 0.61201 0.0
C761 C 0.86634 0.50043 0.61301 0.0
C762 C 0.71794 0.43138 0.598 0.0
Dy763 Dy 0.81522 0.48521 0.60861 0.0
O764 O 0.72923 0.42932 0.62132 0.0
O765 O 0.73029 0.44854 0.58337 0.0
O766 O 0.78218 0.4234 0.63838 0.0
O767 O 0.79622 0.46137 0.63879 0.0
C768 C 0.80071 0.43835 0.64666 0.0
C769 C 0.78168 0.49567 0.56661 0.0
O770 O 0.82921 0.44727 0.59241 0.0
O771 O 0.78849 0.42748 0.58849 0.0
O772 O 0.85828 0.47704 0.61707 0.0
O773 O 0.84647 0.51576 0.60648 0.0
O774 O 0.79794 0.51213 0.57642 0.0
O775 O 0.78551 0.47431 0.57907 0.0
O776 O 0.75205 0.48837 0.63905 0.0
O777 O 0.79517 0.50168 0.64584 0.0
C778 C 0.81463 0.42735 0.58597 0.0
C779 C 0.76958 0.50146 0.65304 0.0
Dy780 Dy 0.50453 0.09709 0.20562 0.0
C781 C 0.51246 0.18787 0.26951 0.0
C782 C 0.49314 0.05588 0.17472 0.0
Dy783 Dy 0.51111 0.13749 0.24934 0.0
O784 O 0.49993 0.0786 0.16592 0.0
O785 O 0.49445 0.05531 0.20068 0.0
O786 O 0.4916 0.12777 0.1769 0.0
O787 O 0.48194 0.13206 0.21731 0.0
C788 C 0.48077 0.14286 0.19434 0.0
C789 C 0.53249 0.08826 0.25798 0.0
O790 O 0.47306 0.12075 0.26461 0.0
O791 O 0.47464 0.08506 0.23683 0.0
O792 O 0.53103 0.16984 0.27247 0.0
O793 O 0.49292 0.17758 0.25702 0.0
O794 O 0.52278 0.10264 0.2772 0.0
O795 O 0.53244 0.1021 0.23695 0.0
O796 O 0.5444 0.11038 0.19422 0.0
O797 O 0.53694 0.14989 0.21409 0.0
C798 C 0.46411 0.09804 0.25709 0.0
C799 C 0.54928 0.13527 0.1961 0.0
Dy800 Dy 0.99953 0.90146 0.7173 0.0
C801 C 0.07135 0.90955 0.80436 0.0
C802 C 0.96973 0.89551 0.67248 0.0
Dy803 Dy 0.03902 0.90021 0.76265 0.0
O804 O 0.96026 0.89724 0.69665 0.0
O805 O 0.99532 0.89762 0.67276 0.0
O806 O 0.97331 0.92983 0.74052 0.0
O807 O 0.01352 0.93115 0.74457 0.0
C808 C 0.99221 0.94223 0.75183 0.0
C809 C 0.05412 0.87169 0.7216 0.0
O810 O 0.01192 0.86884 0.77874 0.0
O811 O 0.99191 0.86193 0.73823 0.0
O812 O 0.07419 0.89077 0.78774 0.0
O813 O 0.04905 0.92204 0.79965 0.0
O814 O 0.07101 0.88148 0.73779 0.0
O815 O 0.03069 0.8748 0.73013 0.0
O816 O 0.03423 0.92128 0.69672 0.0
O817 O 0.05652 0.93048 0.73584 0.0
C818 C 0.99828 0.85357 0.76299 0.0
C819 C 0.05393 0.93235 0.70951 0.0
Dy820 Dy 0.47312 0.88768 0.24863 0.0
C821 C 0.53873 0.85464 0.3371 0.0
C822 C 0.43362 0.90641 0.21667 0.0
Dy823 Dy 0.51092 0.87634 0.29609 0.0
O824 O 0.45822 0.90339 0.20879 0.0
O825 O 0.43092 0.89902 0.24148 0.0
O826 O 0.47796 0.84822 0.23204 0.0
O827 O 0.5095 0.86278 0.25428 0.0
C828 C 0.49999 0.84225 0.24423 0.0
C829 C 0.47371 0.91326 0.30411 0.0
O830 O 0.52936 0.91364 0.28089 0.0
O831 O 0.4963 0.92527 0.25021 0.0
O832 O 0.51409 0.86216 0.33799 0.0
O833 O 0.5489 0.85895 0.31329 0.0
O834 O 0.49508 0.9115 0.31844 0.0
O835 O 0.47262 0.89348 0.29048 0.0
O836 O 0.44734 0.86459 0.27718 0.0
O837 O 0.48206 0.84395 0.29977 0.0
C838 C 0.51742 0.93114 0.26465 0.0
C839 C 0.4566 0.84591 0.29355 0.0
Dy840 Dy 0.8828 0.75005 0.03813 0.0
C841 C 0.87181 0.67044 0.9576 0.0
C842 C 0.89183 0.77828 0.08181 0.0
Dy843 Dy 0.87994 0.70443 0.99793 0.0
O844 O 0.88213 0.75521 0.0823 0.0
O845 O 0.89683 0.78613 0.05726 0.0
O846 O 0.845 0.77024 0.0251 0.0
O847 O 0.8632 0.74417 0.99939 0.0
C848 C 0.84134 0.75646 0.00413 0.0
C849 C 0.90024 0.6922 0.04611 0.0
O850 O 0.92044 0.72127 0.98595 0.0
O851 O 0.92372 0.75245 0.019 0.0
O852 O 0.8861 0.6658 0.97873 0.0
O853 O 0.86281 0.69426 0.9578 0.0
O854 O 0.88729 0.67582 0.03209 0.0
O855 O 0.90277 0.71302 0.03282 0.0
O856 O 0.8559 0.72237 0.05926 0.0
O857 O 0.84224 0.7008 0.02168 0.0
C858 C 0.93428 0.73903 0.99886 0.0
C859 C 0.83966 0.70656 0.04735 0.0
Dy860 Dy 0.64921 0.2928 0.51114 0.0
C861 C 0.63604 0.20489 0.58064 0.0
C862 C 0.65219 0.33736 0.48123 0.0
Dy863 Dy 0.65122 0.24761 0.55188 0.0
O864 O 0.64968 0.33622 0.50714 0.0
O865 O 0.65299 0.31418 0.47166 0.0
O866 O 0.62087 0.2702 0.48541 0.0
O867 O 0.62 0.26498 0.52619 0.0
C868 C 0.6091 0.2579 0.50498 0.0
C869 C 0.67911 0.28774 0.56705 0.0
O870 O 0.68512 0.2345 0.52431 0.0
O871 O 0.69004 0.27439 0.50276 0.0
O872 O 0.6544 0.22064 0.58759 0.0
O873 O 0.62759 0.21143 0.55677 0.0
O874 O 0.67051 0.26997 0.58372 0.0
O875 O 0.67588 0.28058 0.54316 0.0
O876 O 0.62866 0.31201 0.54543 0.0
O877 O 0.62196 0.27472 0.5716 0.0
C878 C 0.69939 0.25063 0.50899 0.0
C879 C 0.61911 0.30011 0.56715 0.0
Dy880 Dy 0.22312 0.47203 0.13921 0.0
C881 C 0.15707 0.56373 0.13738 0.0
C882 C 0.24896 0.42538 0.13902 0.0
Dy883 Dy 0.18441 0.51831 0.13115 0.0
O884 O 0.22461 0.42888 0.14716 0.0
O885 O 0.25913 0.44729 0.13159 0.0
O886 O 0.25098 0.4955 0.16413 0.0
O887 O 0.21129 0.50486 0.16336 0.0
C888 C 0.23292 0.51132 0.17351 0.0
C889 C 0.16941 0.4739 0.11006 0.0
O890 O 0.21154 0.52686 0.09569 0.0
O891 O 0.23382 0.48701 0.09696 0.0
O892 O 0.15081 0.54558 0.1211 0.0
O893 O 0.17959 0.55774 0.14879 0.0
O894 O 0.15235 0.49135 0.11834 0.0
O895 O 0.19254 0.48247 0.11103 0.0
O896 O 0.18833 0.45933 0.16533 0.0
O897 O 0.16737 0.49983 0.168 0.0
C898 C 0.22775 0.5095 0.08439 0.0
C899 C 0.16995 0.47521 0.17578 0.0
Dy900 Dy 0.23978 0.4655 0.87883 0.0
C901 C 0.31501 0.54663 0.86245 0.0
C902 C 0.21614 0.41962 0.89002 0.0
Dy903 Dy 0.28294 0.50651 0.87512 0.0
O904 O 0.20372 0.44026 0.88068 0.0
O905 O 0.24112 0.42409 0.89291 0.0
O906 O 0.21458 0.48823 0.84839 0.0
O907 O 0.25529 0.49047 0.84644 0.0
C908 C 0.23428 0.49866 0.83525 0.0
C909 C 0.29318 0.46706 0.9082 0.0
O910 O 0.2568 0.52349 0.9086 0.0
O911 O 0.22863 0.48884 0.91547 0.0
O912 O 0.32058 0.52787 0.87935 0.0
O913 O 0.29111 0.54411 0.85313 0.0
O914 O 0.31198 0.47903 0.89527 0.0
O915 O 0.27103 0.47809 0.90434 0.0
O916 O 0.27231 0.44336 0.85725 0.0
O917 O 0.29803 0.47851 0.84447 0.0
C918 C 0.23797 0.51148 0.92296 0.0
C919 C 0.29252 0.45351 0.84379 0.0
Dy920 Dy 0.29515 0.48932 0.62083 0.0
C921 C 0.22236 0.57208 0.607 0.0
C922 C 0.33461 0.45535 0.63526 0.0
Dy923 Dy 0.25531 0.53198 0.62041 0.0
O924 O 0.33787 0.47705 0.62218 0.0
O925 O 0.3095 0.45156 0.63957 0.0
O926 O 0.28442 0.47328 0.58137 0.0
O927 O 0.25497 0.49334 0.60295 0.0
C928 C 0.2612 0.48458 0.57979 0.0
C929 C 0.29673 0.54124 0.65263 0.0
O930 O 0.24098 0.51318 0.65914 0.0
O931 O 0.27909 0.48806 0.66332 0.0
O932 O 0.24797 0.57224 0.6058 0.0
O933 O 0.21411 0.54961 0.61553 0.0
O934 O 0.27265 0.54956 0.6569 0.0
O935 O 0.29751 0.53004 0.63055 0.0
O936 O 0.31613 0.51781 0.59407 0.0
O937 O 0.27693 0.53784 0.58157 0.0
C938 C 0.25722 0.49838 0.67401 0.0
C939 C 0.30275 0.53416 0.57812 0.0
Dy940 Dy 0.20073 0.53183 0.38379 0.0
C941 C 0.2968 0.58729 0.38831 0.0
C942 C 0.14848 0.51979 0.38255 0.0
Dy943 Dy 0.25058 0.56173 0.3815 0.0
O944 O 0.1675 0.50365 0.3895 0.0
O945 O 0.158 0.54211 0.37604 0.0
O946 O 0.22167 0.49989 0.4075 0.0
O947 O 0.23192 0.53798 0.41391 0.0
C948 C 0.23649 0.51474 0.42147 0.0
C949 C 0.21046 0.58364 0.35378 0.0
O950 O 0.25996 0.53274 0.34859 0.0
O951 O 0.21691 0.51884 0.34386 0.0
O952 O 0.27964 0.59188 0.36949 0.0
O953 O 0.28989 0.5667 0.402 0.0
O954 O 0.228 0.597 0.36592 0.0
O955 O 0.21647 0.55986 0.35546 0.0
O956 O 0.1882 0.56675 0.40663 0.0
O957 O 0.22992 0.58231 0.41453 0.0
C958 C 0.24158 0.5209 0.33446 0.0
C959 C 0.20388 0.58371 0.41746 0.0
H960 H 0.95214 0.46821 0.2762 0.0
H961 H 0.01927 0.45493 0.22378 0.0
H962 H 0.02778 0.50147 0.22218 0.0
H963 H 0.01691 0.5464 0.23619 0.0
H964 H 0.94735 0.56083 0.28484 0.0
H965 H 0.93912 0.514 0.28741 0.0
C966 C 0.96838 0.47553 0.26403 0.0
C967 C 0.98493 0.45765 0.24997 0.0
C968 C 0.97292 0.50277 0.26277 0.0
C969 C 0.00594 0.46784 0.23453 0.0
C970 C 0.01097 0.49462 0.2338 0.0
C971 C 0.99998 0.53934 0.24753 0.0
C972 C 0.98307 0.55745 0.2608 0.0
C973 C 0.99477 0.51231 0.24799 0.0
C974 C 0.96089 0.54767 0.27469 0.0
C975 C 0.95616 0.52074 0.27607 0.0
H976 H 0.77183 0.78493 0.53924 0.0
H977 H 0.7963 0.7128 0.50383 0.0
H978 H 0.74958 0.70105 0.49939 0.0
H979 H 0.70184 0.71248 0.50299 0.0
H980 H 0.67686 0.78245 0.54231 0.0
H981 H 0.72359 0.79364 0.54838 0.0
C982 C 0.76693 0.76658 0.53062 0.0
C983 C 0.78768 0.74994 0.52136 0.0
C984 C 0.7399 0.75958 0.529 0.0
C985 C 0.7809 0.72602 0.51085 0.0
C986 C 0.75413 0.71933 0.50836 0.0
C987 C 0.70651 0.73002 0.51336 0.0
C988 C 0.68555 0.7469 0.52161 0.0
C989 C 0.73347 0.73607 0.51707 0.0
C990 C 0.69226 0.76924 0.53539 0.0
C991 C 0.71911 0.77569 0.53872 0.0
H992 H 0.53293 0.45542 0.73539 0.0
H993 H 0.46834 0.45106 0.79257 0.0
H994 H 0.46443 0.49818 0.79248 0.0
H995 H 0.47784 0.54132 0.77516 0.0
H996 H 0.54381 0.54672 0.72005 0.0
H997 H 0.54838 0.49921 0.72016 0.0
C998 C 0.51837 0.4647 0.74832 0.0
C999 C 0.50107 0.44907 0.76413 0.0
C1000 C 0.51602 0.49235 0.74812 0.0
C1001 C 0.48211 0.46203 0.78028 0.0
C1002 C 0.47967 0.48923 0.7801 0.0
C1003 C 0.49307 0.53215 0.76292 0.0
C1004 C 0.51007 0.5479 0.74706 0.0
C1005 C 0.49615 0.50466 0.76378 0.0
C1006 C 0.53014 0.53535 0.73206 0.0
C1007 C 0.53287 0.50804 0.73228 0.0
H1008 H 0.76561 0.23513 0.98862 0.0
H1009 H 0.78593 0.30747 0.02365 0.0
H1010 H 0.73878 0.31654 0.03346 0.0
H1011 H 0.69188 0.30275 0.03439 0.0
H1012 H 0.67107 0.2321 0.99645 0.0
H1013 H 0.71776 0.22381 0.98494 0.0
C1014 C 0.7597 0.25289 0.99844 0.0
C1015 C 0.77954 0.27037 0.00594 0.0
C1016 C 0.73227 0.25841 0.00316 0.0
C1017 C 0.77133 0.29357 0.01796 0.0
C1018 C 0.74427 0.29876 0.02349 0.0
C1019 C 0.6974 0.28586 0.0229 0.0
C1020 C 0.67743 0.26824 0.01608 0.0
C1021 C 0.72456 0.28126 0.01637 0.0
C1022 C 0.68536 0.24635 1.00152 0.0
C1023 C 0.71237 0.24141 0.99529 0.0
H1024 H 0.29519 0.97864 0.45587 0.0
H1025 H 0.23297 0.03684 0.44526 0.0
H1026 H 0.22537 0.03724 0.49339 0.0
H1027 H 0.23902 0.02475 0.53889 0.0
H1028 H 0.29974 0.96613 0.55179 0.0
H1029 H 0.30536 0.96216 0.50282 0.0
C1030 C 0.27953 0.99093 0.46401 0.0
C1031 C 0.26476 0.0078 0.44646 0.0
C1032 C 0.27521 0.99124 0.49233 0.0
C1033 C 0.24478 0.02373 0.45782 0.0
C1034 C 0.24043 0.02407 0.48554 0.0
C1035 C 0.25298 0.01058 0.53104 0.0
C1036 C 0.26863 0.99556 0.54915 0.0
C1037 C 0.25591 0.00844 0.50301 0.0
C1038 C 0.28711 0.97768 0.53849 0.0
C1039 C 0.29041 0.97558 0.51039 0.0
H1040 H 0.27378 0.05204 0.7102 0.0
H1041 H 0.26699 0.97159 0.69049 0.0
H1042 H 0.26249 0.9604 0.73875 0.0
H1043 H 0.26011 0.97421 0.78695 0.0
H1044 H 0.26413 0.0555 0.80401 0.0
H1045 H 0.27064 0.0656 0.75633 0.0
C1046 C 0.27145 0.03189 0.71617 0.0
C1047 C 0.27104 0.01264 0.69638 0.0
C1048 C 0.26873 0.02581 0.74369 0.0
C1049 C 0.26747 0.98683 0.705 0.0
C1050 C 0.26501 0.98049 0.73269 0.0
C1051 C 0.26303 0.99406 0.78022 0.0
C1052 C 0.2625 0.01409 0.7993 0.0
C1053 C 0.26577 0.99985 0.75231 0.0
C1054 C 0.26514 0.03975 0.79003 0.0
C1055 C 0.26862 0.04552 0.76269 0.0
H1056 H 0.28589 0.0407 0.03029 0.0
H1057 H 0.23669 0.97614 0.05181 0.0
H1058 H 0.22566 0.97116 0.00416 0.0
H1059 H 0.2321 0.9841 0.95579 0.0
H1060 H 0.28084 0.04955 0.93578 0.0
H1061 H 0.2904 0.05488 0.98333 0.0
C1062 C 0.27237 0.02571 0.02472 0.0
C1063 C 0.26203 0.0089 0.04488 0.0
C1064 C 0.26656 0.0228 0.99736 0.0
C1065 C 0.24462 0.98963 0.03703 0.0
C1066 C 0.23863 0.9866 0.00965 0.0
C1067 C 0.24504 0.9994 0.96181 0.0
C1068 C 0.25621 0.01618 0.94193 0.0
C1069 C 0.24991 1.00278 0.98953 0.0
C1070 C 0.27232 0.03621 0.95037 0.0
C1071 C 0.27763 0.03935 0.97764 0.0
H1072 H 0.2646 0.9701 0.20877 0.0
H1073 H 0.24543 0.04845 0.18298 0.0
H1074 H 0.24505 0.06213 0.22959 0.0
H1075 H 0.25415 0.05307 0.27682 0.0
H1076 H 0.27628 0.97581 0.30417 0.0
H1077 H 0.27158 0.96039 0.25801 0.0
C1078 C 0.25963 0.99 0.2135 0.0
C1079 C 0.25433 0.00815 0.19227 0.0
C1080 C 0.26047 0.99796 0.24062 0.0
C1081 C 0.24887 0.03402 0.19876 0.0
C1082 C 0.24894 0.04187 0.22547 0.0
C1083 C 0.25772 0.03269 0.27298 0.0
C1084 C 0.26564 0.01567 0.2943 0.0
C1085 C 0.25532 0.02419 0.24645 0.0
C1086 C 0.27005 0.98939 0.28848 0.0
C1087 C 0.26744 0.98063 0.26195 0.0
H1088 H 0.44077 0.2822 0.98631 0.0
H1089 H 0.42306 0.24891 0.06421 0.0
H1090 H 0.4709 0.24228 0.07245 0.0
H1091 H 0.51826 0.24838 0.05813 0.0
H1092 H 0.5348 0.27871 0.97866 0.0
H1093 H 0.48707 0.28426 0.97046 0.0
C1094 C 0.44728 0.27302 0.00497 0.0
C1095 C 0.42812 0.2662 0.02467 0.0
C1096 C 0.47477 0.2692 0.00941 0.0
C1097 C 0.4371 0.25426 0.04862 0.0
C1098 C 0.46457 0.25073 0.0534 0.0
C1099 C 0.51138 0.25637 0.03907 0.0
C1100 C 0.53027 0.26375 0.0192 0.0
C1101 C 0.48366 0.25864 0.03415 0.0
C1102 C 0.5209 0.27325 0.99437 0.0
C1103 C 0.49355 0.27631 0.98966 0.0
H1104 H 0.93366 0.25969 0.04738 0.0
H1105 H 0.9293 0.27148 0.96159 0.0
H1106 H 0.97735 0.27531 0.95901 0.0
H1107 H 0.02126 0.27338 0.98026 0.0
H1108 H 0.02699 0.26557 0.06611 0.0
H1109 H 0.97832 0.26212 0.0695 0.0
C1110 C 0.94316 0.26349 0.02817 0.0
C1111 C 0.92742 0.26504 0.00465 0.0
C1112 C 0.97133 0.26605 0.02676 0.0
C1113 C 0.94048 0.27004 0.98005 0.0
C1114 C 0.96816 0.27214 0.9785 0.0
C1115 C 0.01193 0.27082 0.99978 0.0
C1116 C 0.02806 0.26918 0.02287 0.0
C1117 C 0.98387 0.26973 1.00158 0.0
C1118 C 0.01531 0.26663 0.04797 0.0
C1119 C 0.98737 0.26469 0.04987 0.0
H1120 H 0.00899 0.71343 0.29765 0.0
H1121 H 0.981 0.70618 0.2168 0.0
H1122 H 0.97893 0.7533 0.21125 0.0
H1123 H 0.98547 0.79748 0.22871 0.0
H1124 H 0.01124 0.80537 0.31014 0.0
H1125 H 0.01395 0.75803 0.31579 0.0
C1126 C 1.00214 0.72208 0.27889 0.0
C1127 C 0.99506 0.70559 0.25772 0.0
C1128 C 1.00091 0.74977 0.2757 0.0
C1129 C 0.98646 0.7178 0.23361 0.0
C1130 C 0.9854 0.74501 0.23031 0.0
C1131 C 0.99196 0.78894 0.24767 0.0
C1132 C 0.99858 0.80553 0.26885 0.0
C1133 C 0.99278 0.76133 0.25107 0.0
C1134 C 0.0063 0.79354 0.29333 0.0
C1135 C 0.00773 0.76625 0.29662 0.0
H1136 H 0.5256 0.7784 0.48597 0.0
H1137 H 0.54234 0.74068 0.56207 0.0
H1138 H 0.49462 0.73464 0.56972 0.0
H1139 H 0.44828 0.73751 0.55354 0.0
H1140 H 0.43047 0.77892 0.47965 0.0
H1141 H 0.47811 0.78651 0.47258 0.0
C1142 C 0.51876 0.76905 0.50436 0.0
C1143 C 0.53779 0.7597 0.52334 0.0
C1144 C 0.49099 0.76637 0.50899 0.0
C1145 C 0.52841 0.74797 0.54714 0.0
C1146 C 0.50102 0.74451 0.55147 0.0
C1147 C 0.45466 0.74867 0.53607 0.0
C1148 C 0.43545 0.75724 0.51695 0.0
C1149 C 0.48214 0.75332 0.53242 0.0
C1150 C 0.44443 0.77186 0.49465 0.0
C1151 C 0.47184 0.77607 0.49055 0.0
H1152 H 0.94826 0.80541 0.5201 0.0
H1153 H 0.92901 0.72568 0.50796 0.0
H1154 H 0.97657 0.71343 0.51098 0.0
H1155 H 0.02418 0.72605 0.51583 0.0
H1156 H 0.04147 0.80547 0.53239 0.0
H1157 H 0.99422 0.81723 0.52882 0.0
C1158 C 0.95433 0.78523 0.51829 0.0
C1159 C 0.93491 0.7665 0.51361 0.0
C1160 C 0.98153 0.77841 0.52055 0.0
C1161 C 0.94334 0.74048 0.51166 0.0
C1162 C 0.97062 0.73356 0.51322 0.0
C1163 C 0.01757 0.74598 0.51837 0.0
C1164 C 0.03658 0.76506 0.52367 0.0
C1165 C 0.98999 0.75244 0.51731 0.0
C1166 C 0.02751 0.79056 0.52786 0.0
C1167 C 1.00043 0.79725 0.52591 0.0
H1168 H 0.03247 0.20678 0.27295 0.0
H1169 H 0.98572 0.20277 0.20129 0.0
H1170 H 0.9808 0.25011 0.19974 0.0
H1171 H 0.98709 0.29352 0.2209 0.0
H1172 H 0.03482 0.29579 0.29223 0.0
H1173 H 0.04151 0.24914 0.2917 0.0
C1174 C 0.0217 0.21614 0.25654 0.0
C1175 C 0.00974 0.20063 0.23716 0.0
C1176 C 0.01853 0.24356 0.25598 0.0
C1177 C 0.99561 0.21372 0.21637 0.0
C1178 C 0.99245 0.24102 0.21566 0.0
C1179 C 0.999 0.28382 0.23625 0.0
C1180 C 0.01021 0.2987 0.25673 0.0
C1181 C 1.00331 0.25629 0.23572 0.0
C1182 C 0.02578 0.28535 0.27621 0.0
C1183 C 0.02974 0.25841 0.27596 0.0
H1184 H 0.5362 0.78529 0.74541 0.0
H1185 H 0.45418 0.79689 0.72342 0.0
H1186 H 0.45043 0.75022 0.71624 0.0
H1187 H 0.46957 0.70506 0.71939 0.0
H1188 H 0.55097 0.69382 0.74373 0.0
H1189 H 0.55585 0.74074 0.74632 0.0
C1190 C 0.51753 0.77773 0.7387 0.0
C1191 C 0.4955 0.79505 0.7349 0.0
C1192 C 0.51542 0.75057 0.73491 0.0
C1193 C 0.47153 0.78443 0.72646 0.0
C1194 C 0.46938 0.75755 0.72237 0.0
C1195 C 0.48866 0.71287 0.72441 0.0
C1196 C 0.51013 0.69546 0.73065 0.0
C1197 C 0.49109 0.74026 0.72681 0.0
C1198 C 0.53427 0.70636 0.73822 0.0
C1199 C 0.53699 0.73337 0.73999 0.0
H1200 H 0.01396 0.4743 0.79705 0.0
H1201 H 0.03833 0.46522 0.71486 0.0
H1202 H 0.04353 0.51231 0.70985 0.0
H1203 H 0.03961 0.5567 0.7283 0.0
H1204 H 0.01112 0.56615 0.8092 0.0
H1205 H 0.00969 0.51889 0.81542 0.0
C1206 C 0.02095 0.48259 0.77818 0.0
C1207 C 0.02653 0.46586 0.75655 0.0
C1208 C 0.02309 0.51003 0.77523 0.0
C1209 C 0.03455 0.47727 0.73202 0.0
C1210 C 0.03738 0.50435 0.72914 0.0
C1211 C 0.0331 0.54848 0.74737 0.0
C1212 C 0.02531 0.56543 0.76821 0.0
C1213 C 0.0315 0.52103 0.75051 0.0
C1214 C 0.01721 0.55401 0.79275 0.0
C1215 C 0.01629 0.5268 0.79627 0.0
H1216 H 0.24069 0.2205 0.46206 0.0
H1217 H 0.21755 0.29473 0.49367 0.0
H1218 H 0.26452 0.30565 0.49796 0.0
H1219 H 0.31216 0.29292 0.49554 0.0
H1220 H 0.3353 0.22004 0.46119 0.0
H1221 H 0.28866 0.21005 0.45455 0.0
C1222 C 0.24589 0.23915 0.46983 0.0
C1223 C 0.22538 0.25662 0.47802 0.0
C1224 C 0.27306 0.24557 0.47156 0.0
C1225 C 0.23268 0.28086 0.48741 0.0
C1226 C 0.25962 0.28708 0.48986 0.0
C1227 C 0.30714 0.27498 0.4861 0.0
C1228 C 0.32779 0.25713 0.47912 0.0
C1229 C 0.28 0.26946 0.48232 0.0
C1230 C 0.32046 0.23422 0.46675 0.0
C1231 C 0.2935 0.2284 0.4632 0.0
H1232 H 0.50561 0.47931 0.2112 0.0
H1233 H 0.51071 0.4599 0.29548 0.0
H1234 H 0.50918 0.50654 0.30561 0.0
H1235 H 0.508 0.55369 0.28986 0.0
H1236 H 0.50524 0.57082 0.20495 0.0
H1237 H 0.50388 0.52459 0.19589 0.0
C1238 C 0.50623 0.48502 0.23195 0.0
C1239 C 0.50817 0.46558 0.25252 0.0
C1240 C 0.50554 0.51184 0.2375 0.0
C1241 C 0.50915 0.47399 0.27913 0.0
C1242 C 0.50825 0.50084 0.28489 0.0
C1243 C 0.50642 0.54729 0.26942 0.0
C1244 C 0.50594 0.56617 0.24807 0.0
C1245 C 0.5065 0.52009 0.26421 0.0
C1246 C 0.50503 0.55715 0.22175 0.0
C1247 C 0.50447 0.53055 0.21655 0.0
H1248 H 0.29853 0.71153 0.97263 0.0
H1249 H 0.32188 0.7813 0.01087 0.0
H1250 H 0.27485 0.79323 0.01827 0.0
H1251 H 0.22643 0.78472 0.01158 0.0
H1252 H 0.20413 0.71314 0.9761 0.0
H1253 H 0.25109 0.70132 0.96947 0.0
C1254 C 0.29345 0.72918 0.98308 0.0
C1255 C 0.31411 0.74538 0.99127 0.0
C1256 C 0.26629 0.73588 0.98715 0.0
C1257 C 0.3068 0.76818 0.00465 0.0
C1258 C 0.27973 0.77517 0.00855 0.0
C1259 C 0.23186 0.76664 1.00216 0.0
C1260 C 0.21147 0.75013 0.99366 0.0
C1261 C 0.25922 0.75942 0.99939 0.0
C1262 C 0.21911 0.72642 0.98235 0.0
C1263 C 0.24606 0.71958 0.97873 0.0
H1264 H 0.75223 0.96928 0.46944 0.0
H1265 H 0.72278 0.04783 0.45992 0.0
H1266 H 0.72015 0.05151 0.50916 0.0
H1267 H 0.72505 0.03113 0.55558 0.0
H1268 H 0.75905 0.9536 0.56223 0.0
H1269 H 0.7615 0.95119 0.51395 0.0
C1270 C 0.74519 0.98731 0.47801 0.0
C1271 C 0.73718 0.00806 0.46076 0.0
C1272 C 0.74474 0.98953 0.50616 0.0
C1273 C 0.72877 0.0314 0.47252 0.0
C1274 C 0.72734 0.03348 0.50077 0.0
C1275 C 0.73338 0.01387 0.54651 0.0
C1276 C 0.74164 0.99251 0.56321 0.0
C1277 C 0.73517 0.01255 0.51795 0.0
C1278 C 0.75236 0.97041 0.55056 0.0
C1279 C 0.7537 0.96887 0.52265 0.0
H1280 H 0.74663 0.96068 0.29763 0.0
H1281 H 0.7338 0.0411 0.31632 0.0
H1282 H 0.73801 0.05276 0.26813 0.0
H1283 H 0.74427 0.03926 0.22002 0.0
H1284 H 0.75841 0.95832 0.20408 0.0
H1285 H 0.75414 0.94767 0.25178 0.0
C1286 C 0.74476 0.98091 0.2914 0.0
C1287 C 0.7397 0.99997 0.31085 0.0
C1288 C 0.74696 0.98725 0.2639 0.0
C1289 C 0.73786 0.026 0.30205 0.0
C1290 C 0.74 0.03258 0.27438 0.0
C1291 C 0.74586 0.01925 0.227 0.0
C1292 C 0.75097 0.99945 0.20817 0.0
C1293 C 0.74415 0.01327 0.25499 0.0
C1294 C 0.754 0.97381 0.21782 0.0
C1295 C 0.75176 0.96774 0.24519 0.0
H1296 H 0.73837 0.97692 0.96853 0.0
H1297 H 0.76522 0.05559 0.96188 0.0
H1298 H 0.76801 0.05742 0.01067 0.0
H1299 H 0.76226 0.03719 0.05551 0.0
H1300 H 0.73742 0.95798 0.06288 0.0
H1301 H 0.73363 0.95618 0.01394 0.0
C1302 C 0.74518 0.99438 0.97768 0.0
C1303 C 0.75175 0.01608 0.96112 0.0
C1304 C 0.74654 0.99541 0.00612 0.0
C1305 C 0.76024 0.03852 0.97375 0.0
C1306 C 0.76163 0.03965 1.00182 0.0
C1307 C 0.75581 0.01951 0.0466 0.0
C1308 C 0.74993 0.99776 0.06335 0.0
C1309 C 0.75459 0.01834 0.01827 0.0
C1310 C 0.74179 0.97512 0.05087 0.0
C1311 C 0.73988 0.97402 0.02273 0.0
H1312 H 0.78315 0.97579 0.72644 0.0
H1313 H 0.71578 0.02434 0.70425 0.0
H1314 H 0.70972 0.03635 0.75137 0.0
H1315 H 0.72165 0.0301 0.79969 0.0
H1316 H 0.79093 0.98377 0.82083 0.0
H1317 H 0.79812 0.97365 0.77342 0.0
C1318 C 0.76746 0.98952 0.73175 0.0
C1319 C 0.74984 0.99901 0.71162 0.0
C1320 C 0.76417 0.99625 0.75888 0.0
C1321 C 0.7297 0.01677 0.71903 0.0
C1322 C 0.72609 0.0234 0.74613 0.0
C1323 C 0.73831 0.01772 0.79388 0.0
C1324 C 0.75541 0.00711 0.81396 0.0
C1325 C 0.74277 0.01269 0.76635 0.0
C1326 C 0.77731 0.99181 0.80598 0.0
C1327 C 0.78143 0.98614 0.77882 0.0
H1328 H 0.47637 0.76608 0.96482 0.0
H1329 H 0.4543 0.71994 0.03416 0.0
H1330 H 0.50141 0.71224 0.04477 0.0
H1331 H 0.54892 0.71685 0.03311 0.0
H1332 H 0.57144 0.7655 0.96583 0.0
H1333 H 0.5244 0.77446 0.95588 0.0
C1334 C 0.48193 0.75435 0.98228 0.0
C1335 C 0.46175 0.74316 0.99846 0.0
C1336 C 0.5092 0.75069 0.9887 0.0
C1337 C 0.4693 0.72852 0.02129 0.0
C1338 C 0.49628 0.72418 0.02735 0.0
C1339 C 0.5436 0.72986 0.01654 0.0
C1340 C 0.56399 0.74051 1.00025 0.0
C1341 C 0.51641 0.73498 0.01111 0.0
C1342 C 0.55649 0.75726 0.9789 0.0
C1343 C 0.52945 0.76214 0.97305 0.0
H1344 H 0.97361 0.74015 0.03597 0.0
H1345 H 0.96197 0.74262 0.95058 0.0
H1346 H 0.01003 0.74794 0.94351 0.0
H1347 H 0.05588 0.7536 0.962 0.0
H1348 H 0.06667 0.74691 0.04762 0.0
H1349 H 0.01912 0.74122 0.05399 0.0
C1350 C 0.98153 0.74189 0.01574 0.0
C1351 C 0.96382 0.74146 0.99384 0.0
C1352 C 0.00939 0.74407 0.01185 0.0
C1353 C 0.97482 0.74308 0.96785 0.0
C1354 C 1.00244 0.74612 0.96382 0.0
C1355 C 0.04792 0.75052 0.98204 0.0
C1356 C 0.06536 0.75093 0.0043 0.0
C1357 C 0.02004 0.74682 0.98569 0.0
C1358 C 0.05422 0.7468 0.03002 0.0
C1359 C 0.02678 0.74366 0.03375 0.0
H1360 H 0.04206 0.23392 0.71652 0.0
H1361 H 0.98755 0.21461 0.78044 0.0
H1362 H 0.97978 0.26105 0.78851 0.0
H1363 H 0.99024 0.3079 0.77848 0.0
H1364 H 0.04358 0.32597 0.713 0.0
H1365 H 0.05029 0.27969 0.70483 0.0
C1366 C 0.02804 0.23974 0.73198 0.0
C1367 C 0.01511 0.22029 0.74754 0.0
C1368 C 0.02391 0.26658 0.7366 0.0
C1369 C 0.9973 0.22867 0.7676 0.0
C1370 C 0.99319 0.25543 0.77247 0.0
C1371 C 0.00351 0.30171 0.76254 0.0
C1372 C 0.01686 0.3208 0.74667 0.0
C1373 C 0.0067 0.27467 0.75736 0.0
C1374 C 0.03335 0.31208 0.72574 0.0
C1375 C 0.03708 0.28548 0.72097 0.0
H1376 H 0.48504 0.24578 0.52666 0.0
H1377 H 0.48191 0.24656 0.44046 0.0
H1378 H 0.53065 0.24985 0.43822 0.0
H1379 H 0.57473 0.25396 0.46131 0.0
H1380 H 0.57643 0.24915 0.54775 0.0
H1381 H 0.5283 0.24574 0.54923 0.0
C1382 C 0.49494 0.24678 0.50729 0.0
C1383 C 0.47946 0.24648 0.48372 0.0
C1384 C 0.52306 0.24781 0.50623 0.0
C1385 C 0.493 0.24702 0.45893 0.0
C1386 C 0.52101 0.24888 0.4577 0.0
C1387 C 0.56463 0.25182 0.48046 0.0
C1388 C 0.57971 0.25207 0.50445 0.0
C1389 C 0.53638 0.24944 0.48125 0.0
C1390 C 0.56584 0.24917 0.52895 0.0
C1391 C 0.53808 0.2473 0.52985 0.0
H1392 H 0.99042 0.2769 0.49569 0.0
H1393 H 0.97422 0.19661 0.48247 0.0
H1394 H 0.02191 0.18592 0.48495 0.0
H1395 H 0.06769 0.19911 0.49191 0.0
H1396 H 0.08546 0.27979 0.50058 0.0
H1397 H 0.03759 0.29081 0.49858 0.0
C1398 C 0.99739 0.25701 0.49362 0.0
C1399 C 0.97869 0.23735 0.4897 0.0
C1400 C 0.02502 0.25123 0.4941 0.0
C1401 C 0.98805 0.2119 0.48602 0.0
C1402 C 0.01533 0.20586 0.48737 0.0
C1403 C 0.06126 0.21922 0.49332 0.0
C1404 C 0.08034 0.23862 0.49673 0.0
C1405 C 0.03392 0.22532 0.49158 0.0
C1406 C 0.0714 0.26451 0.49798 0.0
C1407 C 0.04397 0.27073 0.49696 0.0
H1408 H 0.02567 0.7333 0.78848 0.0
H1409 H 0.96095 0.72435 0.73362 0.0
H1410 H 0.95454 0.77102 0.72999 0.0
H1411 H 0.96803 0.81546 0.74053 0.0
H1412 H 0.02964 0.82538 0.79856 0.0
H1413 H 0.03591 0.77839 0.803 0.0
C1414 C 0.01008 0.74152 0.77586 0.0
C1415 C 0.99419 0.72469 0.76099 0.0
C1416 C 0.00566 0.76907 0.77447 0.0
C1417 C 0.97387 0.73625 0.74511 0.0
C1418 C 0.97004 0.76325 0.74302 0.0
C1419 C 0.98249 0.80744 0.75459 0.0
C1420 C 0.99813 0.82456 0.76925 0.0
C1421 C 0.98588 0.78 0.75739 0.0
C1422 C 0.01688 0.81321 0.78716 0.0
C1423 C 0.02073 0.78606 0.78956 0.0
H1424 H 0.54158 0.30617 0.29165 0.0
H1425 H 0.46274 0.31904 0.26041 0.0
H1426 H 0.4569 0.27231 0.25796 0.0
H1427 H 0.47516 0.22725 0.2611 0.0
H1428 H 0.55431 0.21376 0.29117 0.0
H1429 H 0.5589 0.26045 0.29759 0.0
C1430 C 0.52278 0.2988 0.28512 0.0
C1431 C 0.5024 0.31669 0.27678 0.0
C1432 C 0.51973 0.2714 0.28304 0.0
C1433 C 0.47866 0.30622 0.26744 0.0
C1434 C 0.47537 0.27928 0.26578 0.0
C1435 C 0.49334 0.2344 0.26941 0.0
C1436 C 0.51434 0.21651 0.27568 0.0
C1437 C 0.49592 0.26159 0.27295 0.0
C1438 C 0.53772 0.22665 0.2862 0.0
C1439 C 0.54037 0.25355 0.28985 0.0
H1440 H 0.48263 0.04413 0.78774 0.0
H1441 H 0.48424 0.05448 0.70188 0.0
H1442 H 0.48258 0.00758 0.69647 0.0
H1443 H 0.4831 0.96232 0.71621 0.0
H1444 H 0.47445 0.95301 0.80185 0.0
H1445 H 0.47637 0.99969 0.80704 0.0
C1446 C 0.4821 0.0362 0.76783 0.0
C1447 C 0.48338 0.05331 0.74529 0.0
C1448 C 0.48025 0.00886 0.76472 0.0
C1449 C 0.48282 0.0422 0.71971 0.0
C1450 C 0.4821 0.01514 0.71655 0.0
C1451 C 0.48134 0.97048 0.73598 0.0
C1452 C 0.4797 0.95354 0.75871 0.0
C1453 C 0.48113 0.99805 0.73889 0.0
C1454 C 0.47677 0.96506 0.78397 0.0
C1455 C 0.47767 0.99203 0.78703 0.0
H1456 H 0.19292 0.22169 0.01521 0.0
H1457 H 0.17036 0.29638 0.04547 0.0
H1458 H 0.21689 0.30538 0.05419 0.0
H1459 H 0.26496 0.29327 0.04965 0.0
H1460 H 0.28725 0.2172 0.02243 0.0
H1461 H 0.24021 0.20742 0.01603 0.0
C1462 C 0.19804 0.23977 0.02429 0.0
C1463 C 0.17767 0.25846 0.0295 0.0
C1464 C 0.2251 0.24464 0.02937 0.0
C1465 C 0.18505 0.28161 0.04132 0.0
C1466 C 0.21194 0.28683 0.04607 0.0
C1467 C 0.25946 0.27447 0.04247 0.0
C1468 C 0.27971 0.25607 0.03613 0.0
C1469 C 0.23223 0.26875 0.03954 0.0
C1470 C 0.27221 0.2317 0.02731 0.0
C1471 C 0.24526 0.22615 0.02366 0.0
H1472 H 0.03855 0.04405 0.26667 0.0
H1473 H 0.95573 0.0553 0.24711 0.0
H1474 H 0.94953 0.00859 0.24969 0.0
H1475 H 0.96692 0.96407 0.25796 0.0
H1476 H 0.05017 0.95134 0.27399 0.0
H1477 H 0.05669 0.99845 0.27267 0.0
C1478 C 0.01919 0.03631 0.26268 0.0
C1479 C 0.99763 0.05376 0.2567 0.0
C1480 C 0.01567 0.00887 0.26402 0.0
C1481 C 0.97278 0.04286 0.2517 0.0
C1482 C 0.96914 0.01593 0.25334 0.0
C1483 C 0.9865 0.97147 0.26162 0.0
C1484 C 0.00789 0.95371 0.26686 0.0
C1485 C 0.9903 0.99869 0.25975 0.0
C1486 C 0.03318 0.96416 0.27048 0.0
C1487 C 0.03694 0.99127 0.26951 0.0
H1488 H 0.27448 0.73061 0.48436 0.0
H1489 H 0.29711 0.79879 0.52588 0.0
H1490 H 0.25036 0.80775 0.53758 0.0
H1491 H 0.20315 0.79438 0.539 0.0
H1492 H 0.18016 0.72808 0.49463 0.0
H1493 H 0.22626 0.72055 0.48074 0.0
C1494 C 0.26914 0.74762 0.4957 0.0
C1495 C 0.28957 0.76392 0.50438 0.0
C1496 C 0.24191 0.75306 0.50176 0.0
C1497 C 0.28206 0.78595 0.51887 0.0
C1498 C 0.25522 0.79103 0.52563 0.0
C1499 C 0.20804 0.77866 0.52559 0.0
C1500 C 0.18756 0.76206 0.51765 0.0
C1501 C 0.23495 0.77455 0.51752 0.0
C1502 C 0.19476 0.74166 0.50063 0.0
C1503 C 0.22149 0.73711 0.49297 0.0
H1504 H 0.80903 0.49578 0.94303 0.0
H1505 H 0.72554 0.50917 0.92888 0.0
H1506 H 0.71587 0.50031 0.97637 0.0
H1507 H 0.73115 0.49179 0.02283 0.0
H1508 H 0.81486 0.48421 0.03854 0.0
H1509 H 0.82443 0.48727 0.99014 0.0
C1510 C 0.78868 0.49621 0.95027 0.0
C1511 C 0.76794 0.50257 0.93202 0.0
C1512 C 0.78332 0.49208 0.97815 0.0
C1513 C 0.74182 0.50396 0.94215 0.0
C1514 C 0.73629 0.49895 0.96944 0.0
C1515 C 0.75147 0.49003 0.01562 0.0
C1516 C 0.77221 0.48673 0.03448 0.0
C1517 C 0.75685 0.49327 0.98775 0.0
C1518 C 0.79847 0.48587 0.02465 0.0
C1519 C 0.80393 0.48792 0.99688 0.0
H1520 H 0.79541 0.5079 0.19444 0.0
H1521 H 0.71354 0.48903 0.18156 0.0
H1522 H 0.70553 0.48765 0.2298 0.0
H1523 H 0.72093 0.49303 0.27626 0.0
H1524 H 0.80327 0.50859 0.29026 0.0
H1525 H 0.81173 0.51015 0.24169 0.0
C1526 C 0.7759 0.50314 0.20216 0.0
C1527 C 0.75513 0.49866 0.18385 0.0
C1528 C 0.77133 0.50213 0.23046 0.0
C1529 C 0.73002 0.49257 0.1947 0.0
C1530 C 0.72532 0.49191 0.2225 0.0
C1531 C 0.74074 0.49697 0.26875 0.0
C1532 C 0.76131 0.5012 0.28726 0.0
C1533 C 0.74566 0.497 0.24064 0.0
C1534 C 0.78694 0.50553 0.2768 0.0
C1535 C 0.7918 0.50635 0.24887 0.0
H1536 H 0.81248 0.50002 0.52053 0.0
H1537 H 0.73129 0.49474 0.54769 0.0
H1538 H 0.71593 0.49935 0.50133 0.0
H1539 H 0.72511 0.50689 0.4534 0.0
H1540 H 0.80586 0.50983 0.42447 0.0
H1541 H 0.82188 0.50371 0.47085 0.0
C1542 C 0.79142 0.49982 0.51623 0.0
C1543 C 0.77297 0.49739 0.53782 0.0
C1544 C 0.7827 0.50196 0.48912 0.0
C1545 C 0.74586 0.49674 0.53173 0.0
C1546 C 0.73709 0.49938 0.50512 0.0
C1547 C 0.74632 0.50596 0.45704 0.0
C1548 C 0.76422 0.509 0.43513 0.0
C1549 C 0.75526 0.50227 0.4837 0.0
C1550 C 0.79156 0.50744 0.44061 0.0
C1551 C 0.80068 0.50413 0.46728 0.0
H1552 H 0.73125 0.54263 0.76665 0.0
H1553 H 0.79096 0.48738 0.79402 0.0
H1554 H 0.80033 0.47544 0.74748 0.0
H1555 H 0.79296 0.48244 0.69848 0.0
H1556 H 0.73074 0.53519 0.67151 0.0
H1557 H 0.72092 0.5465 0.71822 0.0
C1558 C 0.74606 0.52764 0.76253 0.0
C1559 C 0.76049 0.51599 0.78409 0.0
C1560 C 0.75107 0.52075 0.73561 0.0
C1561 C 0.77948 0.49658 0.77814 0.0
C1562 C 0.78496 0.48993 0.75138 0.0
C1563 C 0.77726 0.49646 0.70285 0.0
C1564 C 0.76292 0.50839 0.68137 0.0
C1565 C 0.7712 0.50221 0.7299 0.0
C1566 C 0.74224 0.52599 0.68747 0.0
C1567 C 0.73662 0.53238 0.71424 0.0
H1568 H 0.47447 0.29096 0.73494 0.0
H1569 H 0.52701 0.30284 0.80108 0.0
H1570 H 0.53454 0.2559 0.80599 0.0
H1571 H 0.52707 0.21144 0.79127 0.0
H1572 H 0.47235 0.19821 0.72744 0.0
H1573 H 0.46453 0.24531 0.72206 0.0
C1574 C 0.48771 0.28329 0.75035 0.0
C1575 C 0.5006 0.3008 0.76738 0.0
C1576 C 0.49136 0.25588 0.75359 0.0
C1577 C 0.51709 0.29018 0.78755 0.0
C1578 C 0.52132 0.26321 0.79039 0.0
C1579 C 0.51316 0.21868 0.77626 0.0
C1580 C 0.50047 0.20079 0.75961 0.0
C1581 C 0.50863 0.24585 0.77355 0.0
C1582 C 0.48248 0.21104 0.74051 0.0
C1583 C 0.47813 0.23817 0.7374 0.0
H1584 H 0.5339 0.96849 0.227 0.0
H1585 H 0.51253 0.95862 0.31025 0.0
H1586 H 0.51478 1.00531 0.31645 0.0
H1587 H 0.52086 0.05031 0.29771 0.0
H1588 H 0.54843 0.05909 0.21607 0.0
H1589 H 0.54612 0.01254 0.2101 0.0
C1590 C 0.5302 0.97647 0.24661 0.0
C1591 C 0.52309 0.95959 0.26811 0.0
C1592 C 0.53252 1.00368 0.25041 0.0
C1593 C 0.51829 0.97072 0.2933 0.0
C1594 C 0.51945 0.99767 0.29688 0.0
C1595 C 0.52672 0.04206 0.27874 0.0
C1596 C 0.53421 0.05882 0.2572 0.0
C1597 C 0.52629 0.01457 0.27555 0.0
C1598 C 0.54211 0.04718 0.23299 0.0
C1599 C 0.5408 0.02029 0.22946 0.0
H1600 H 0.79843 0.78836 0.01039 0.0
H1601 H 0.82057 0.71475 0.97684 0.0
H1602 H 0.77354 0.70527 0.97069 0.0
H1603 H 0.72561 0.71685 0.97761 0.0
H1604 H 0.70384 0.79219 0.00729 0.0
H1605 H 0.75104 0.80203 0.01226 0.0
C1606 C 0.7931 0.77033 1.00132 0.0
C1607 C 0.81345 0.75208 0.99457 0.0
C1608 C 0.76587 0.76523 0.99752 0.0
C1609 C 0.80579 0.72909 0.98251 0.0
C1610 C 0.77871 0.72362 0.97913 0.0
C1611 C 0.7312 0.73547 0.98517 0.0
C1612 C 0.71101 0.75361 0.99263 0.0
C1613 C 0.75852 0.7413 0.98712 0.0
C1614 C 0.71874 0.77782 1.00169 0.0
C1615 C 0.74581 0.78342 0.00448 0.0
H1616 H 0.97238 0.06375 0.77229 0.0
H1617 H 0.03165 0.06902 0.70951 0.0
H1618 H 0.03353 0.02202 0.70678 0.0
H1619 H 0.02016 0.97869 0.72311 0.0
H1620 H 0.95939 0.97214 0.7839 0.0
H1621 H 0.95639 0.01968 0.78645 0.0
C1622 C 0.9853 0.05474 0.75756 0.0
C1623 C 1.00178 0.07062 0.74105 0.0
C1624 C 0.98639 0.02709 0.756 0.0
C1625 C 0.01856 0.05793 0.72247 0.0
C1626 C 0.01983 0.03078 0.72097 0.0
C1627 C 0.00632 0.98757 0.73708 0.0
C1628 C 0.99037 0.97148 0.75371 0.0
C1629 C 0.00422 0.01507 0.7379 0.0
C1630 C 0.97214 0.98374 0.77108 0.0
C1631 C 0.97038 0.01107 0.77246 0.0
H1632 H 0.74019 0.28352 0.51535 0.0
H1633 H 0.72498 0.20494 0.49401 0.0
H1634 H 0.77298 0.19673 0.4877 0.0
H1635 H 0.8199 0.21259 0.48708 0.0
H1636 H 0.83389 0.29036 0.51268 0.0
H1637 H 0.78635 0.29789 0.51876 0.0
C1638 C 0.74729 0.26459 0.5091 0.0
C1639 C 0.72866 0.24507 0.50451 0.0
C1640 C 0.77504 0.25976 0.5065 0.0
C1641 C 0.73859 0.22047 0.49731 0.0
C1642 C 0.76617 0.21577 0.4938 0.0
C1643 C 0.81262 0.23104 0.49441 0.0
C1644 C 0.83097 0.25093 0.49915 0.0
C1645 C 0.78472 0.23529 0.49827 0.0
C1646 C 0.8207 0.27465 0.50866 0.0
C1647 C 0.79329 0.27908 0.51206 0.0
H1648 H 0.19951 0.53317 0.04283 0.0
H1649 H 0.2727 0.49119 0.05959 0.0
H1650 H 0.2832 0.4905 0.01167 0.0
H1651 H 0.27038 0.49893 0.96444 0.0
H1652 H 0.19552 0.53711 0.94682 0.0
H1653 H 0.18701 0.5424 0.99508 0.0
C1654 C 0.21806 0.52439 0.03606 0.0
C1655 C 0.23551 0.51262 0.05521 0.0
C1656 C 0.2236 0.52325 0.00805 0.0
C1657 C 0.25901 0.50065 0.04566 0.0
C1658 C 0.26499 0.50015 0.01811 0.0
C1659 C 0.25242 0.50889 0.97117 0.0
C1660 C 0.23389 0.51819 0.95187 0.0
C1661 C 0.2473 0.511 0.99905 0.0
C1662 C 0.21036 0.53028 0.96105 0.0
C1663 C 0.20545 0.53313 0.98875 0.0
H1664 H 0.27582 0.49858 0.79981 0.0
H1665 H 0.19064 0.50747 0.80248 0.0
H1666 H 0.18944 0.50874 0.75319 0.0
H1667 H 0.213 0.50534 0.70848 0.0
H1668 H 0.29802 0.49202 0.70845 0.0
H1669 H 0.29866 0.49426 0.75674 0.0
C1670 C 0.2569 0.50083 0.78976 0.0
C1671 C 0.23337 0.50289 0.80522 0.0
C1672 C 0.25627 0.50035 0.76144 0.0
C1673 C 0.20916 0.50596 0.79138 0.0
C1674 C 0.20846 0.50648 0.76305 0.0
C1675 C 0.23159 0.50264 0.71907 0.0
C1676 C 0.25537 0.4981 0.70428 0.0
C1677 C 0.2319 0.50326 0.7477 0.0
C1678 C 0.27922 0.49495 0.71877 0.0
C1679 C 0.27972 0.49639 0.74668 0.0
H1680 H 0.27323 0.46265 0.53234 0.0
H1681 H 0.22584 0.525 0.56505 0.0
H1682 H 0.21553 0.54094 0.51931 0.0
H1683 H 0.22119 0.53769 0.46924 0.0
H1684 H 0.2666 0.47328 0.43789 0.0
H1685 H 0.27671 0.45793 0.48353 0.0
C1686 C 0.26033 0.47959 0.52961 0.0
C1687 C 0.25044 0.49255 0.5525 0.0
C1688 C 0.2545 0.48856 0.50322 0.0
C1689 C 0.23368 0.51442 0.54815 0.0
C1690 C 0.22799 0.52368 0.52184 0.0
C1691 C 0.23354 0.52044 0.47244 0.0
C1692 C 0.24365 0.50696 0.44986 0.0
C1693 C 0.23858 0.51112 0.49911 0.0
C1694 C 0.25892 0.48425 0.45461 0.0
C1695 C 0.26458 0.47538 0.48081 0.0
H1696 H 0.2053 0.52913 0.2954 0.0
H1697 H 0.28722 0.50588 0.30642 0.0
H1698 H 0.29272 0.5024 0.25749 0.0
H1699 H 0.27334 0.50502 0.21119 0.0
H1700 H 0.19247 0.53321 0.20192 0.0
H1701 H 0.18779 0.53644 0.2503 0.0
C1702 C 0.22444 0.52323 0.28727 0.0
C1703 C 0.24566 0.51721 0.30488 0.0
C1704 C 0.22772 0.52255 0.25918 0.0
C1705 C 0.2704 0.5102 0.29357 0.0
C1706 C 0.27355 0.50839 0.2655 0.0
C1707 C 0.25488 0.51241 0.2197 0.0
C1708 C 0.23317 0.51863 0.20254 0.0
C1709 C 0.25231 0.51452 0.248 0.0
C1710 C 0.20948 0.52813 0.21427 0.0
C1711 C 0.20669 0.52982 0.2421 0.0
H1712 H 0.468 0.80034 0.24539 0.0
H1713 H 0.55015 0.82043 0.2534 0.0
H1714 H 0.5628 0.77407 0.25466 0.0
H1715 H 0.55086 0.7281 0.24917 0.0
H1716 H 0.46862 0.7077 0.24344 0.0
H1717 H 0.45557 0.75388 0.24596 0.0
C1718 C 0.48873 0.79465 0.24769 0.0
C1719 C 0.50819 0.81418 0.2489 0.0
C1720 C 0.49575 0.76785 0.24872 0.0
C1721 C 0.53478 0.80616 0.25233 0.0
C1722 C 0.54198 0.77955 0.25293 0.0
C1723 C 0.52996 0.73362 0.24897 0.0
C1724 C 0.51072 0.71413 0.246 0.0
C1725 C 0.52271 0.76026 0.25054 0.0
C1726 C 0.48384 0.72192 0.24589 0.0
C1727 C 0.47645 0.74846 0.24709 0.0
H1728 H 0.02863 0.37254 0.38092 0.0
H1729 H 0.06279 0.35035 0.305 0.0
H1730 H 0.0935 0.32013 0.32833 0.0
H1731 H 0.11165 0.30184 0.37059 0.0
H1732 H 0.07942 0.32729 0.4462 0.0
H1733 H 0.04728 0.3555 0.42259 0.0
C1734 C 0.04274 0.36103 0.3694 0.0
C1735 C 0.04343 0.36344 0.34132 0.0
C1736 C 0.06096 0.34491 0.38292 0.0
C1737 C 0.06167 0.34843 0.32662 0.0
C1738 C 0.0794 0.33147 0.33997 0.0
C1739 C 0.09771 0.31377 0.38182 0.0
C1740 C 0.09782 0.31277 0.40998 0.0
C1741 C 0.07945 0.32991 0.36813 0.0
C1742 C 0.07977 0.32812 0.42449 0.0
C1743 C 0.06131 0.34399 0.41102 0.0
H1744 H 0.98674 0.86044 0.63699 0.0
H1745 H 0.91894 0.90821 0.65836 0.0
H1746 H 0.89251 0.88822 0.62364 0.0
H1747 H 0.88782 0.85451 0.58997 0.0
H1748 H 0.95367 0.80218 0.5741 0.0
H1749 H 0.98195 0.82652 0.60371 0.0
C1750 C 0.96631 0.86675 0.63362 0.0
C1751 C 0.95476 0.88595 0.64973 0.0
C1752 C 0.95095 0.85415 0.61478 0.0
C1753 C 0.92815 0.89358 0.64589 0.0
C1754 C 0.91308 0.8821 0.62618 0.0
C1755 C 0.90849 0.84876 0.59274 0.0
C1756 C 0.91889 0.82692 0.57967 0.0
C1757 C 0.92413 0.862 0.61089 0.0
C1758 C 0.94543 0.81911 0.58384 0.0
C1759 C 0.96153 0.83297 0.6008 0.0
H1760 H 0.40272 0.65683 0.79937 0.0
H1761 H 0.48576 0.67235 0.80984 0.0
H1762 H 0.47608 0.6906 0.85379 0.0
H1763 H 0.44356 0.70358 0.88825 0.0
H1764 H 0.36019 0.692 0.87521 0.0
H1765 H 0.37037 0.6702 0.83323 0.0
C1766 C 0.41866 0.66428 0.81127 0.0
C1767 C 0.44485 0.66323 0.8017 0.0
C1768 C 0.41288 0.67513 0.83603 0.0
C1769 C 0.46543 0.67286 0.81712 0.0
C1770 C 0.45993 0.68324 0.84216 0.0
C1771 C 0.42777 0.69588 0.87631 0.0
C1772 C 0.40128 0.69898 0.88454 0.0
C1773 C 0.4337 0.68453 0.85174 0.0
C1774 C 0.38074 0.68958 0.86898 0.0
C1775 C 0.38653 0.67729 0.84505 0.0
H1776 H 0.599 0.20934 0.10886 0.0
H1777 H 0.54415 0.16975 0.05902 0.0
H1778 H 0.53195 0.14162 0.09721 0.0
H1779 H 0.53649 0.12903 0.14478 0.0
H1780 H 0.58711 0.17231 0.19569 0.0
H1781 H 0.60188 0.19836 0.15676 0.0
C1782 C 0.58398 0.19495 0.10641 0.0
C1783 C 0.57224 0.19183 0.08123 0.0
C1784 C 0.57682 0.17929 0.12847 0.0
C1785 C 0.55327 0.17264 0.07827 0.0
C1786 C 0.54646 0.15649 0.10003 0.0
C1787 C 0.55112 0.14388 0.14722 0.0
C1788 C 0.56134 0.14844 0.17279 0.0
C1789 C 0.5582 0.15962 0.12516 0.0
C1790 C 0.57953 0.16824 0.17602 0.0
C1791 C 0.5877 0.1832 0.15387 0.0
H1792 H 0.08589 0.65824 0.18234 0.0
H1793 H 0.01145 0.68071 0.14501 0.0
H1794 H 0.03509 0.69288 0.10388 0.0
H1795 H 0.07698 0.69989 0.07978 0.0
H1796 H 0.15135 0.68123 0.11857 0.0
H1797 H 0.12752 0.66362 0.15771 0.0
C1798 C 0.07476 0.66598 0.16533 0.0
C1799 C 0.04696 0.66901 0.16694 0.0
C1800 C 0.08842 0.67298 0.14186 0.0
C1801 C 0.0329 0.67857 0.14447 0.0
C1802 C 0.04636 0.68532 0.12087 0.0
C1803 C 0.08789 0.69124 0.09652 0.0
C1804 C 0.11574 0.69137 0.0964 0.0
C1805 C 0.07411 0.6828 0.11944 0.0
C1806 C 0.12985 0.6809 0.11833 0.0
C1807 C 0.11625 0.67121 0.14074 0.0
H1808 H 0.60733 0.80222 0.42859 0.0
H1809 H 0.54009 0.82815 0.47575 0.0
H1810 H 0.51836 0.84513 0.43507 0.0
H1811 H 0.51953 0.85382 0.38697 0.0
H1812 H 0.58769 0.83025 0.33974 0.0
H1813 H 0.60861 0.81109 0.38012 0.0
C1814 C 0.58787 0.81145 0.42993 0.0
C1815 C 0.5752 0.81402 0.45494 0.0
C1816 C 0.57601 0.82169 0.4067 0.0
C1817 C 0.55009 0.82609 0.45658 0.0
C1818 C 0.53778 0.83579 0.43343 0.0
C1819 C 0.53897 0.84445 0.38545 0.0
C1820 C 0.5522 0.84335 0.36061 0.0
C1821 C 0.55074 0.83393 0.40852 0.0
C1822 C 0.57734 0.83133 0.35882 0.0
C1823 C 0.58916 0.82038 0.38179 0.0
H1824 H 0.46344 0.3525 0.64921 0.0
H1825 H 0.42064 0.30237 0.70372 0.0
H1826 H 0.39959 0.28172 0.66566 0.0
H1827 H 0.39564 0.27681 0.61691 0.0
H1828 H 0.43725 0.32859 0.5629 0.0
H1829 H 0.4564 0.35029 0.60097 0.0
C1830 C 0.44951 0.337 0.65265 0.0
C1831 C 0.44382 0.32839 0.67884 0.0
C1832 C 0.43729 0.32583 0.63093 0.0
C1833 C 0.4253 0.30894 0.68348 0.0
C1834 C 0.41336 0.29724 0.66183 0.0
C1835 C 0.40866 0.29305 0.61357 0.0
C1836 C 0.41531 0.30109 0.58735 0.0
C1837 C 0.41948 0.30537 0.63548 0.0
C1838 C 0.43195 0.3222 0.58303 0.0
C1839 C 0.44298 0.33446 0.60472 0.0
H1840 H 0.94032 0.13919 0.85943 0.0
H1841 H 0.92544 0.20427 0.80539 0.0
H1842 H 0.90356 0.228 0.84152 0.0
H1843 H 0.89349 0.23196 0.88926 0.0
H1844 H 0.90893 0.16725 0.94369 0.0
H1845 H 0.92628 0.14165 0.90651 0.0
C1846 C 0.93171 0.15833 0.85543 0.0
C1847 C 0.93462 0.17013 0.82995 0.0
C1848 C 0.92005 0.17213 0.87646 0.0
C1849 C 0.92336 0.19484 0.8249 0.0
C1850 C 0.91118 0.20851 0.8456 0.0
C1851 C 0.90089 0.21234 0.89307 0.0
C1852 C 0.90074 0.20173 0.91927 0.0
C1853 C 0.9104 0.19771 0.87165 0.0
C1854 C 0.90941 0.17598 0.92374 0.0
C1855 C 0.91912 0.1613 0.9025 0.0
H1856 H 0.36972 0.03202 0.30291 0.0
H1857 H 0.34308 0.10698 0.3304 0.0
H1858 H 0.38245 0.12676 0.31057 0.0
H1859 H 0.42497 0.12265 0.28579 0.0
H1860 H 0.45103 0.04736 0.2587 0.0
H1861 H 0.41159 0.0279 0.27829 0.0
C1862 C 0.37234 0.05273 0.30439 0.0
C1863 C 0.35334 0.06797 0.31799 0.0
C1864 C 0.39514 0.06394 0.29325 0.0
C1865 C 0.35724 0.09477 0.31982 0.0
C1866 C 0.37987 0.10611 0.30865 0.0
C1867 C 0.42208 0.10197 0.28441 0.0
C1868 C 0.44091 0.08652 0.27081 0.0
C1869 C 0.39908 0.09085 0.29548 0.0
C1870 C 0.43678 0.05976 0.26893 0.0
C1871 C 0.4142 0.04857 0.2801 0.0
H1872 H 0.21587 0.08667 0.59975 0.0
H1873 H 0.18842 0.0308 0.54409 0.0
H1874 H 0.17474 0.06605 0.51295 0.0
H1875 H 0.17052 0.11297 0.50219 0.0
H1876 H 0.1988 0.16789 0.55871 0.0
H1877 H 0.21327 0.13255 0.58874 0.0
C1878 C 0.20745 0.08214 0.58058 0.0
C1879 C 0.20375 0.05633 0.57382 0.0
C1880 C 0.19996 0.10229 0.56301 0.0
C1881 C 0.19163 0.05069 0.54949 0.0
C1882 C 0.18392 0.07076 0.53173 0.0
C1883 C 0.18005 0.11708 0.521 0.0
C1884 C 0.18359 0.14282 0.5284 0.0
C1885 C 0.18804 0.09666 0.53831 0.0
C1886 C 0.19582 0.14812 0.55275 0.0
C1887 C 0.20402 0.12799 0.56993 0.0
H1888 H 0.16006 0.98157 0.84588 0.0
H1889 H 0.20825 0.93026 0.7975 0.0
H1890 H 0.16892 0.90606 0.78628 0.0
H1891 H 0.12203 0.89783 0.79272 0.0
H1892 H 0.07276 0.94968 0.83932 0.0
H1893 H 0.11203 0.97464 0.85033 0.0
C1894 C 0.16184 0.96535 0.8325 0.0
C1895 C 0.18697 0.95742 0.82276 0.0
C1896 C 0.13934 0.95109 0.82687 0.0
C1897 C 0.18909 0.93664 0.80523 0.0
C1898 C 0.16671 0.92259 0.79918 0.0
C1899 C 0.11983 0.91435 0.80566 0.0
C1900 C 0.09468 0.92171 0.81567 0.0
C1901 C 0.14199 0.92919 0.81057 0.0
C1902 C 0.09208 0.94345 0.83188 0.0
C1903 C 0.11439 0.95789 0.83776 0.0
H1904 H 0.38548 0.87254 0.02285 0.0
H1905 H 0.32975 0.82099 0.06109 0.0
H1906 H 0.30443 0.8582 0.07825 0.0
H1907 H 0.29718 0.90501 0.08008 0.0
H1908 H 0.35395 0.95684 0.04409 0.0
H1909 H 0.37991 0.91959 0.02748 0.0
C1910 C 0.36805 0.86953 0.03536 0.0
C1911 C 0.35932 0.84431 0.04082 0.0
C1912 C 0.3536 0.89088 0.04477 0.0
C1913 C 0.33686 0.84035 0.05702 0.0
C1914 C 0.32226 0.86156 0.06646 0.0
C1915 C 0.31499 0.90814 0.06817 0.0
C1916 C 0.32337 0.93342 0.06239 0.0
C1917 C 0.33015 0.88683 0.05988 0.0
C1918 C 0.347 0.93741 0.04806 0.0
C1919 C 0.36186 0.9162 0.03889 0.0
H1920 H 0.38284 0.91142 0.23263 0.0
H1921 H 0.43478 0.92399 0.16457 0.0
H1922 H 0.39683 0.93965 0.13777 0.0
H1923 H 0.34895 0.94801 0.13361 0.0
H1924 H 0.29711 0.93524 0.20167 0.0
H1925 H 0.3352 0.92083 0.22877 0.0
C1926 C 0.38586 0.9176 0.21191 0.0
C1927 C 0.4114 0.91644 0.20039 0.0
C1928 C 0.36408 0.92632 0.19678 0.0
C1929 C 0.41518 0.92461 0.17368 0.0
C1930 C 0.39355 0.93351 0.15844 0.0
C1931 C 0.34604 0.94249 0.1545 0.0
C1932 C 0.32043 0.94311 0.16589 0.0
C1933 C 0.36793 0.93424 0.16977 0.0
C1934 C 0.31674 0.93514 0.19267 0.0
C1935 C 0.33846 0.92691 0.20809 0.0
H1936 H 0.4103 0.13182 0.43 0.0
H1937 H 0.33771 0.17685 0.42012 0.0
H1938 H 0.31489 0.13853 0.40525 0.0
H1939 H 0.31481 0.09142 0.39865 0.0
H1940 H 0.38816 0.04721 0.4041 0.0
H1941 H 0.41142 0.08578 0.41787 0.0
C1942 C 0.38966 0.13331 0.42398 0.0
C1943 C 0.37569 0.15703 0.42617 0.0
C1944 C 0.37668 0.11122 0.41539 0.0
C1945 C 0.34895 0.15882 0.41836 0.0
C1946 C 0.33579 0.13685 0.41019 0.0
C1947 C 0.33585 0.09033 0.40273 0.0
C1948 C 0.34968 0.06656 0.40073 0.0
C1949 C 0.34929 0.11282 0.40932 0.0
C1950 C 0.37707 0.06533 0.40582 0.0
C1951 C 0.39039 0.08738 0.41351 0.0
H1952 H 0.18695 0.09457 0.64602 0.0
H1953 H 0.20483 0.04604 0.71524 0.0
H1954 H 0.16938 0.06788 0.74081 0.0
H1955 H 0.13139 0.09849 0.74207 0.0
H1956 H 0.11001 0.14299 0.67099 0.0
H1957 H 0.14883 0.12509 0.64725 0.0
C1958 C 0.18332 0.08922 0.66688 0.0
C1959 C 0.19845 0.06918 0.67908 0.0
C1960 C 0.16219 0.10092 0.68083 0.0
C1961 C 0.19336 0.06167 0.70575 0.0
C1962 C 0.17312 0.07404 0.72023 0.0
C1963 C 0.13546 0.10442 0.72146 0.0
C1964 C 0.11816 0.12203 0.70818 0.0
C1965 C 0.15711 0.09334 0.70779 0.0
C1966 C 0.12319 0.12938 0.68144 0.0
C1967 C 0.14532 0.1192 0.66795 0.0
H1968 H 0.13204 0.8598 0.93076 0.0
H1969 H 0.13644 0.8879 0.01123 0.0
H1970 H 0.15307 0.92927 0.99419 0.0
H1971 H 0.17312 0.95448 0.95674 0.0
H1972 H 0.16869 0.9259 0.87655 0.0
H1973 H 0.14474 0.88802 0.89285 0.0
C1974 C 0.13606 0.87525 0.94442 0.0
C1975 C 0.13352 0.87085 0.97208 0.0
C1976 C 0.14567 0.89887 0.9345 0.0
C1977 C 0.13844 0.89095 0.98976 0.0
C1978 C 0.14806 0.91454 0.98007 0.0
C1979 C 0.16603 0.94031 0.94292 0.0
C1980 C 0.17234 0.9427 0.91565 0.0
C1981 C 0.15273 0.91833 0.95255 0.0
C1982 C 0.16362 0.9243 0.89766 0.0
C1983 C 0.15019 0.90258 0.90698 0.0
H1984 H 0.28499 0.41598 0.10109 0.0
H1985 H 0.24008 0.37856 0.16419 0.0
H1986 H 0.26114 0.33658 0.15331 0.0
H1987 H 0.29287 0.31093 0.12545 0.0
H1988 H 0.33386 0.34939 0.06031 0.0
H1989 H 0.31361 0.39059 0.07201 0.0
C1990 C 0.27997 0.39865 0.11261 0.0
C1991 C 0.26155 0.40018 0.13367 0.0
C1992 C 0.29127 0.37483 0.10562 0.0
C1993 C 0.25455 0.37764 0.14803 0.0
C1994 C 0.26649 0.35375 0.14176 0.0
C1995 C 0.29714 0.32838 0.11382 0.0
C1996 C 0.31488 0.3272 0.09198 0.0
C1997 C 0.28492 0.35213 0.12053 0.0
C1998 C 0.32016 0.34975 0.07691 0.0
C1999 C 0.30871 0.3734 0.08377 0.0
H2000 H 0.80234 0.10855 0.9373 0.0
H2001 H 0.83012 0.12037 0.85611 0.0
H2002 H 0.84162 0.16503 0.86608 0.0
H2003 H 0.839 0.20195 0.89658 0.0
H2004 H 0.80816 0.19062 0.97673 0.0
H2005 H 0.80172 0.14465 0.96825 0.0
C2006 C 0.81167 0.12066 0.92202 0.0
C2007 C 0.81579 0.11114 0.89611 0.0
C2008 C 0.81672 0.14664 0.92748 0.0
C2009 C 0.82717 0.12724 0.87629 0.0
C2010 C 0.83336 0.15284 0.8819 0.0
C2011 C 0.83079 0.1894 0.91214 0.0
C2012 C 0.82378 0.19961 0.93718 0.0
C2013 C 0.8273 0.16301 0.90714 0.0
C2014 C 0.81353 0.18313 0.95729 0.0
C2015 C 0.81005 0.15688 0.95251 0.0
H2016 H 0.06699 0.59679 0.21551 0.0
H2017 H 0.0226 0.59597 0.14211 0.0
H2018 H 0.06326 0.58865 0.11657 0.0
H2019 H 0.11098 0.57967 0.11537 0.0
H2020 H 0.15639 0.58252 0.18802 0.0
H2021 H 0.11625 0.59428 0.21325 0.0
C2022 C 0.06642 0.59549 0.19396 0.0
C2023 C 0.04195 0.59705 0.18078 0.0
C2024 C 0.0901 0.59239 0.17915 0.0
C2025 C 0.04124 0.59467 0.15279 0.0
C2026 C 0.06449 0.59079 0.13808 0.0
C2027 C 0.11218 0.58369 0.13657 0.0
C2028 C 0.13639 0.58002 0.14988 0.0
C2029 C 0.08899 0.58949 0.15105 0.0
C2030 C 0.13788 0.58534 0.17731 0.0
C2031 C 0.11485 0.59151 0.19187 0.0
H2032 H 0.65029 0.82006 0.42588 0.0
H2033 H 0.71333 0.8069 0.48277 0.0
H2034 H 0.73815 0.84271 0.46218 0.0
H2035 H 0.73895 0.88074 0.43158 0.0
H2036 H 0.67225 0.89755 0.37987 0.0
H2037 H 0.65138 0.8573 0.39493 0.0
C2038 C 0.66979 0.82461 0.43324 0.0
C2039 C 0.68033 0.81082 0.45539 0.0
C2040 C 0.68283 0.84617 0.42261 0.0
C2041 C 0.70519 0.81722 0.46544 0.0
C2042 C 0.71915 0.83776 0.45386 0.0
C2043 C 0.71996 0.87538 0.42348 0.0
C2044 C 0.70697 0.89186 0.40478 0.0
C2045 C 0.70772 0.85287 0.43303 0.0
C2046 C 0.68236 0.88508 0.39447 0.0
C2047 C 0.67055 0.86211 0.40298 0.0
H2048 H 0.95267 0.91267 0.15374 0.0
H2049 H 0.93465 0.93243 0.23558 0.0
H2050 H 0.89133 0.94995 0.22208 0.0
H2051 H 0.85888 0.95969 0.18743 0.0
H2052 H 0.87652 0.94231 0.10498 0.0
H2053 H 0.91972 0.92322 0.11834 0.0
C2054 C 0.93925 0.92094 0.16851 0.0
C2055 C 0.94669 0.92128 0.19559 0.0
C2056 C 0.91433 0.93101 0.16058 0.0
C2057 C 0.92924 0.93194 0.21463 0.0
C2058 C 0.90448 0.94186 0.20696 0.0
C2059 C 0.87205 0.95151 0.17235 0.0
C2060 C 0.8646 0.95214 0.14532 0.0
C2061 C 0.89682 0.94138 0.18007 0.0
C2062 C 0.88192 0.94183 0.12595 0.0
C2063 C 0.90658 0.93108 0.13358 0.0
H2064 H 0.23745 0.61252 0.57719 0.0
H2065 H 0.17139 0.58307 0.62327 0.0
H2066 H 0.14674 0.62418 0.61571 0.0
H2067 H 0.14437 0.66806 0.59547 0.0
H2068 H 0.20879 0.69516 0.54561 0.0
H2069 H 0.23462 0.65547 0.55606 0.0
C2070 C 0.21761 0.61511 0.58553 0.0
C2071 C 0.20608 0.59512 0.60076 0.0
C2072 C 0.20377 0.63842 0.58093 0.0
C2073 C 0.18038 0.59834 0.6113 0.0
C2074 C 0.1665 0.62182 0.60721 0.0
C2075 C 0.16425 0.66535 0.58737 0.0
C2076 C 0.17512 0.68435 0.57032 0.0
C2077 C 0.17812 0.64199 0.59217 0.0
C2078 C 0.2005 0.68071 0.55919 0.0
C2079 C 0.21502 0.65803 0.56491 0.0
H2080 H 0.0367 0.4708 0.37925 0.0
H2081 H 0.0312 0.52006 0.30841 0.0
H2082 H 0.07165 0.54205 0.32139 0.0
H2083 H 0.11289 0.54069 0.34784 0.0
H2084 H 0.12169 0.48486 0.41296 0.0
H2085 H 0.07583 0.47149 0.40716 0.0
C2086 C 0.04387 0.48689 0.36704 0.0
C2087 C 0.03125 0.4937 0.3428 0.0
C2088 C 0.06824 0.49757 0.37325 0.0
C2089 C 0.04068 0.51455 0.32718 0.0
C2090 C 0.06399 0.5268 0.33439 0.0
C2091 C 0.1045 0.52589 0.36096 0.0
C2092 C 0.12039 0.5135 0.38063 0.0
C2093 C 0.07868 0.51741 0.35653 0.0
C2094 C 0.10969 0.4943 0.3975 0.0
C2095 C 0.08353 0.4868 0.39426 0.0
H2096 H 0.39491 0.59891 0.78307 0.0
H2097 H 0.45065 0.57026 0.84251 0.0
H2098 H 0.41375 0.55651 0.87149 0.0
H2099 H 0.36595 0.54977 0.87799 0.0
H2100 H 0.31048 0.5784 0.81826 0.0
H2101 H 0.34712 0.59592 0.7915 0.0
C2102 C 0.39899 0.58946 0.8023 0.0
C2103 C 0.42538 0.58484 0.81042 0.0
C2104 C 0.37779 0.58208 0.81886 0.0
C2105 C 0.43044 0.57354 0.83574 0.0
C2106 C 0.40939 0.56583 0.85229 0.0
C2107 C 0.36185 0.56034 0.85939 0.0
C2108 C 0.33565 0.56268 0.84993 0.0
C2109 C 0.38302 0.56969 0.84385 0.0
C2110 C 0.33051 0.57645 0.82591 0.0
C2111 C 0.35146 0.58619 0.81049 0.0
H2112 H 0.9118 0.73113 0.63727 0.0
H2113 H 0.89208 0.66902 0.58505 0.0
H2114 H 0.91577 0.6379 0.61446 0.0
H2115 H 0.94532 0.62955 0.65207 0.0
H2116 H 0.9701 0.69227 0.70078 0.0
H2117 H 0.94031 0.72238 0.67613 0.0
C2118 C 0.91245 0.71071 0.63256 0.0
C2119 C 0.90054 0.70212 0.60916 0.0
C2120 C 0.92678 0.69332 0.64894 0.0
C2121 C 0.90142 0.67582 0.60298 0.0
C2122 C 0.91486 0.65815 0.61973 0.0
C2123 C 0.94396 0.64981 0.65742 0.0
C2124 C 0.95946 0.65897 0.67823 0.0
C2125 C 0.92812 0.66687 0.6423 0.0
C2126 C 0.95765 0.68498 0.68529 0.0
C2127 C 0.941 0.70211 0.67092 0.0
H2128 H 0.1077 0.15497 0.41869 0.0
H2129 H 0.05419 0.21964 0.43307 0.0
H2130 H 0.02076 0.20071 0.40467 0.0
H2131 H 0.00901 0.16848 0.37141 0.0
H2132 H 0.06499 0.10703 0.35275 0.0
H2133 H 0.09506 0.12164 0.38727 0.0
C2134 C 0.08851 0.16462 0.41599 0.0
C2135 C 0.08332 0.18857 0.42795 0.0
C2136 C 0.06992 0.15423 0.39867 0.0
C2137 C 0.05859 0.20116 0.42399 0.0
C2138 C 0.03951 0.19038 0.40773 0.0
C2139 C 0.0275 0.15798 0.37545 0.0
C2140 C 0.03483 0.13668 0.35985 0.0
C2141 C 0.04524 0.1673 0.39435 0.0
C2142 C 0.05903 0.12346 0.3647 0.0
C2143 C 0.07624 0.13187 0.38431 0.0
H2144 H 0.54672 0.32523 0.21441 0.0
H2145 H 0.61728 0.37103 0.21281 0.0
H2146 H 0.63179 0.35086 0.17106 0.0
H2147 H 0.62345 0.32077 0.13455 0.0
H2148 H 0.55514 0.27196 0.13926 0.0
H2149 H 0.54035 0.29284 0.18042 0.0
C2150 C 0.56537 0.33056 0.20496 0.0
C2151 C 0.5808 0.34968 0.21606 0.0
C2152 C 0.57376 0.31851 0.1816 0.0
C2153 C 0.60513 0.35633 0.20423 0.0
C2154 C 0.61334 0.34493 0.18042 0.0
C2155 C 0.60535 0.31488 0.14471 0.0
C2156 C 0.59011 0.29531 0.13417 0.0
C2157 C 0.59763 0.3262 0.1688 0.0
C2158 C 0.56697 0.28717 0.14735 0.0
C2159 C 0.55858 0.29901 0.17076 0.0
H2160 H 0.40657 0.79956 0.89845 0.0
H2161 H 0.46457 0.82395 0.95524 0.0
H2162 H 0.48509 0.85139 0.92062 0.0
H2163 H 0.48611 0.86889 0.87447 0.0
H2164 H 0.42924 0.84334 0.81716 0.0
H2165 H 0.40827 0.81628 0.85192 0.0
C2166 C 0.4238 0.81075 0.9032 0.0
C2167 C 0.43396 0.80987 0.9294 0.0
C2168 C 0.43535 0.82661 0.88326 0.0
C2169 C 0.45636 0.82438 0.93523 0.0
C2170 C 0.46799 0.84017 0.91549 0.0
C2171 C 0.46883 0.85775 0.86971 0.0
C2172 C 0.45888 0.85847 0.84343 0.0
C2173 C 0.45745 0.84168 0.88955 0.0
C2174 C 0.43702 0.84331 0.83733 0.0
C2175 C 0.42517 0.82773 0.85714 0.0
H2176 H 0.86476 0.31767 0.87622 0.0
H2177 H 0.91349 0.34047 0.94196 0.0
H2178 H 0.94712 0.35622 0.91033 0.0
H2179 H 0.96424 0.35994 0.86422 0.0
H2180 H 0.91525 0.33771 0.79846 0.0
H2181 H 0.88039 0.32449 0.82998 0.0
C2182 C 0.88245 0.32666 0.88361 0.0
C2183 C 0.88671 0.32787 0.91134 0.0
C2184 C 0.902 0.33491 0.86537 0.0
C2185 C 0.90972 0.33947 0.92067 0.0
C2186 C 0.92912 0.34813 0.90261 0.0
C2187 C 0.94608 0.35186 0.85683 0.0
C2188 C 0.94251 0.34921 0.82914 0.0
C2189 C 0.92584 0.34512 0.87498 0.0
C2190 C 0.91856 0.33953 0.81975 0.0
C2191 C 0.89855 0.33222 0.83772 0.0
H2192 H 0.45465 0.19513 0.64996 0.0
H2193 H 0.42317 0.11823 0.64816 0.0
H2194 H 0.40724 0.12653 0.60249 0.0
H2195 H 0.40574 0.15444 0.56179 0.0
H2196 H 0.44029 0.2301 0.5629 0.0
H2197 H 0.45168 0.22354 0.61005 0.0
C2198 C 0.44372 0.18044 0.63979 0.0
C2199 C 0.43994 0.15617 0.65232 0.0
C2200 C 0.43562 0.18499 0.61325 0.0
C2201 C 0.42614 0.13712 0.63886 0.0
C2202 C 0.41729 0.14177 0.61269 0.0
C2203 C 0.41577 0.16943 0.57242 0.0
C2204 C 0.42203 0.19276 0.55905 0.0
C2205 C 0.42257 0.16537 0.59944 0.0
C2206 C 0.43502 0.21208 0.57293 0.0
C2207 C 0.44155 0.20835 0.59986 0.0
H2208 H 0.60051 0.74892 0.38283 0.0
H2209 H 0.6046 0.6741 0.42312 0.0
H2210 H 0.59542 0.65296 0.38081 0.0
H2211 H 0.58239 0.65627 0.33348 0.0
H2212 H 0.57381 0.73129 0.29459 0.0
H2213 H 0.58937 0.7521 0.33511 0.0
C2214 C 0.59959 0.72796 0.38229 0.0
C2215 C 0.60305 0.71299 0.40594 0.0
C2216 C 0.59386 0.71612 0.35812 0.0
C2217 C 0.60178 0.68592 0.4051 0.0
C2218 C 0.59665 0.67389 0.38096 0.0
C2219 C 0.58485 0.67711 0.33374 0.0
C2220 C 0.57782 0.69236 0.31116 0.0
C2221 C 0.59229 0.68883 0.35747 0.0
C2222 C 0.5799 0.71933 0.31168 0.0
C2223 C 0.58841 0.73115 0.33489 0.0
H2224 H 0.10876 0.78843 0.11941 0.0
H2225 H 0.08469 0.84891 0.06275 0.0
H2226 H 0.07236 0.87704 0.09956 0.0
H2227 H 0.06617 0.88359 0.14738 0.0
H2228 H 0.08745 0.82255 0.20424 0.0
H2229 H 0.10448 0.79587 0.16767 0.0
C2230 C 0.10058 0.80767 0.11505 0.0
C2231 C 0.09726 0.81639 0.08832 0.0
C2232 C 0.09373 0.82384 0.13631 0.0
C2233 C 0.08713 0.84157 0.08311 0.0
C2234 C 0.08031 0.85777 0.10414 0.0
C2235 C 0.07511 0.86468 0.15187 0.0
C2236 C 0.07552 0.85495 0.17839 0.0
C2237 C 0.08343 0.84905 0.13076 0.0
C2238 C 0.08709 0.83046 0.18394 0.0
C2239 C 0.09642 0.81508 0.16302 0.0
H2240 H 0.65514 0.91879 0.68169 0.0
H2241 H 0.66313 0.98583 0.73078 0.0
H2242 H 0.62072 0.97664 0.75291 0.0
H2243 H 0.58083 0.95047 0.75704 0.0
H2244 H 0.57232 0.88416 0.70683 0.0
H2245 H 0.61534 0.89255 0.68595 0.0
C2246 C 0.64788 0.93106 0.69764 0.0
C2247 C 0.66235 0.95275 0.70488 0.0
C2248 C 0.62315 0.92616 0.70959 0.0
C2249 C 0.6524 0.96887 0.72509 0.0
C2250 C 0.62808 0.96376 0.73755 0.0
C2251 C 0.5882 0.93796 0.74135 0.0
C2252 C 0.57324 0.91678 0.73345 0.0
C2253 C 0.61309 0.9427 0.72963 0.0
C2254 C 0.58331 0.90068 0.71324 0.0
C2255 C 0.60802 0.90534 0.7014 0.0
H2256 H 0.83745 0.89126 0.50034 0.0
H2257 H 0.82642 0.84073 0.43381 0.0
H2258 H 0.80841 0.87713 0.40691 0.0
H2259 H 0.79697 0.92298 0.40231 0.0
H2260 H 0.80779 0.97395 0.46842 0.0
H2261 H 0.82498 0.93739 0.49591 0.0
C2262 C 0.83113 0.88829 0.47993 0.0
C2263 C 0.83331 0.8636 0.46884 0.0
C2264 C 0.82085 0.90918 0.46475 0.0
C2265 C 0.82497 0.85973 0.44255 0.0
C2266 C 0.81468 0.88044 0.42726 0.0
C2267 C 0.80277 0.92604 0.42284 0.0
C2268 C 0.80102 0.95087 0.43356 0.0
C2269 C 0.81264 0.90518 0.43818 0.0
C2270 C 0.80907 0.95483 0.45993 0.0
C2271 C 0.81884 0.93402 0.47554 0.0
H2272 H 0.82287 0.0931 0.15314 0.0
H2273 H 0.84255 0.01897 0.18998 0.0
H2274 H 0.88829 0.0328 0.19716 0.0
H2275 H 0.92152 0.06711 0.1951 0.0
H2276 H 0.90112 0.14148 0.15884 0.0
H2277 H 0.85698 0.12608 0.14795 0.0
C2278 C 0.83715 0.08024 0.1632 0.0
C2279 C 0.8294 0.05558 0.17218 0.0
C2280 C 0.86332 0.08809 0.16648 0.0
C2281 C 0.8481 0.03842 0.18393 0.0
C2282 C 0.87422 0.0462 0.18763 0.0
C2283 C 0.90771 0.07963 0.184 0.0
C2284 C 0.91451 0.10531 0.17749 0.0
C2285 C 0.882 0.07106 0.17909 0.0
C2286 C 0.89631 0.12154 0.16367 0.0
C2287 C 0.87099 0.1129 0.15789 0.0
H2288 H 0.67137 0.19054 0.95935 0.0
H2289 H 0.59465 0.15802 0.94633 0.0
H2290 H 0.61578 0.119 0.92793 0.0
H2291 H 0.6561 0.09267 0.9203 0.0
H2292 H 0.73273 0.12413 0.93779 0.0
H2293 H 0.71156 0.16482 0.95063 0.0
C2294 C 0.65937 0.17524 0.95159 0.0
C2295 C 0.63169 0.17703 0.95355 0.0
C2296 C 0.67162 0.15236 0.94292 0.0
C2297 C 0.6161 0.15694 0.94441 0.0
C2298 C 0.62815 0.13457 0.93436 0.0
C2299 C 0.66815 0.10834 0.92713 0.0
C2300 C 0.69588 0.1053 0.9283 0.0
C2301 C 0.6559 0.13172 0.93449 0.0
C2302 C 0.71127 0.12589 0.93689 0.0
C2303 C 0.69925 0.14927 0.94401 0.0
H2304 H 0.62586 0.10409 0.77176 0.0
H2305 H 0.57605 0.09378 0.84177 0.0
H2306 H 0.61525 0.08195 0.86865 0.0
H2307 H 0.66376 0.07593 0.87218 0.0
H2308 H 0.7134 0.08674 0.80234 0.0
H2309 H 0.67408 0.09743 0.77519 0.0
C2310 C 0.62356 0.09919 0.7929 0.0
C2311 C 0.59819 0.09985 0.80487 0.0
C2312 C 0.64611 0.09273 0.80813 0.0
C2313 C 0.59544 0.09343 0.83221 0.0
C2314 C 0.61781 0.08673 0.84754 0.0
C2315 C 0.66587 0.08037 0.851 0.0
C2316 C 0.6912 0.08048 0.83908 0.0
C2317 C 0.64323 0.0865 0.83572 0.0
C2318 C 0.69394 0.08672 0.81176 0.0
C2319 C 0.67152 0.09272 0.79632 0.0
H2320 H 0.68165 0.91479 0.63133 0.0
H2321 H 0.66284 0.96552 0.56386 0.0
H2322 H 0.64616 0.92874 0.53941 0.0
H2323 H 0.6371 0.88251 0.5373 0.0
H2324 H 0.65518 0.83147 0.60466 0.0
H2325 H 0.67189 0.86826 0.62941 0.0
C2326 C 0.67386 0.9178 0.61128 0.0
C2327 C 0.67335 0.94283 0.59936 0.0
C2328 C 0.66414 0.89661 0.59751 0.0
C2329 C 0.66328 0.94645 0.57342 0.0
C2330 C 0.65378 0.92546 0.55948 0.0
C2331 C 0.64461 0.8794 0.55745 0.0
C2332 C 0.64491 0.85434 0.56922 0.0
C2333 C 0.65409 0.90051 0.57137 0.0
C2334 C 0.65467 0.85061 0.5953 0.0
C2335 C 0.66427 0.8716 0.60935 0.0
H2336 H 0.81766 0.91541 0.35453 0.0
H2337 H 0.80828 0.97446 0.29264 0.0
H2338 H 0.84297 0.95309 0.26561 0.0
H2339 H 0.87847 0.91967 0.26168 0.0
H2340 H 0.89173 0.86465 0.32671 0.0
H2341 H 0.85275 0.88206 0.35052 0.0
C2342 C 0.82297 0.92333 0.33492 0.0
C2343 C 0.81048 0.94626 0.32535 0.0
C2344 C 0.84363 0.91166 0.32025 0.0
C2345 C 0.81777 0.95677 0.30026 0.0
C2346 C 0.83753 0.94458 0.28489 0.0
C2347 C 0.87243 0.91126 0.28083 0.0
C2348 C 0.88754 0.89079 0.29243 0.0
C2349 C 0.85095 0.9223 0.29494 0.0
C2350 C 0.88014 0.88033 0.31748 0.0
C2351 C 0.85798 0.89033 0.33107 0.0
H2352 H 0.88345 0.135 0.04647 0.0
H2353 H 0.80741 0.16156 0.01628 0.0
H2354 H 0.788 0.12005 0.0283 0.0
H2355 H 0.79123 0.07893 0.05188 0.0
H2356 H 0.86448 0.05417 0.08964 0.0
H2357 H 0.88701 0.09155 0.06926 0.0
C2358 C 0.8627 0.13142 0.04263 0.0
C2359 C 0.84662 0.15093 0.03076 0.0
C2360 C 0.85143 0.10782 0.05064 0.0
C2361 C 0.81987 0.14656 0.02554 0.0
C2362 C 0.80886 0.1229 0.03229 0.0
C2363 C 0.81228 0.08143 0.05524 0.0
C2364 C 0.82616 0.06421 0.07241 0.0
C2365 C 0.82429 0.10371 0.04537 0.0
C2366 C 0.85348 0.06726 0.07633 0.0
C2367 C 0.86619 0.08883 0.06509 0.0
H2368 H 0.65609 0.66514 0.93319 0.0
H2369 H 0.71768 0.72092 0.92072 0.0
H2370 H 0.74535 0.68822 0.89809 0.0
H2371 H 0.75118 0.64395 0.8811 0.0
H2372 H 0.68803 0.58943 0.892 0.0
H2373 H 0.66136 0.62176 0.91567 0.0
C2374 C 0.67561 0.6701 0.92562 0.0
C2375 C 0.68498 0.69521 0.92849 0.0
C2376 C 0.69085 0.65159 0.91211 0.0
C2377 C 0.71019 0.70158 0.91856 0.0
C2378 C 0.7259 0.68297 0.90562 0.0
C2379 C 0.73152 0.63929 0.88855 0.0
C2380 C 0.72145 0.61452 0.88486 0.0
C2381 C 0.71628 0.65799 0.90205 0.0
C2382 C 0.69605 0.6085 0.89458 0.0
C2383 C 0.68088 0.62688 0.9082 0.0
H2384 H 0.24738 0.87427 0.09731 0.0
H2385 H 0.17781 0.92151 0.07891 0.0
H2386 H 0.15641 0.8837 0.06019 0.0
H2387 H 0.1576 0.83739 0.04993 0.0
H2388 H 0.22698 0.79021 0.06907 0.0
H2389 H 0.24885 0.82831 0.08633 0.0
C2390 C 0.22745 0.87634 0.08931 0.0
C2391 C 0.21401 0.90058 0.08968 0.0
C2392 C 0.21553 0.85471 0.07853 0.0
C2393 C 0.18838 0.903 0.07902 0.0
C2394 C 0.17628 0.88145 0.06824 0.0
C2395 C 0.17761 0.83545 0.05762 0.0
C2396 C 0.19074 0.81103 0.05824 0.0
C2397 C 0.1897 0.85725 0.06793 0.0
C2398 C 0.21655 0.8088 0.06845 0.0
C2399 C 0.22894 0.83052 0.07837 0.0
H2400 H 0.86172 0.43644 0.85667 0.0
H2401 H 0.8505 0.46406 0.77546 0.0
H2402 H 0.89478 0.44771 0.76301 0.0
H2403 H 0.93942 0.43402 0.7779 0.0
H2404 H 0.95151 0.41063 0.86055 0.0
H2405 H 0.90449 0.41757 0.87018 0.0
C2406 C 0.86858 0.43755 0.83599 0.0
C2407 C 0.85325 0.45102 0.81688 0.0
C2408 C 0.89466 0.43009 0.82966 0.0
C2409 C 0.86218 0.45326 0.79026 0.0
C2410 C 0.88763 0.44448 0.78333 0.0
C2411 C 0.93159 0.43021 0.79788 0.0
C2412 C 0.94871 0.42203 0.81849 0.0
C2413 C 0.90457 0.43438 0.8033 0.0
C2414 C 0.93861 0.41727 0.84442 0.0
C2415 C 0.91172 0.42095 0.8499 0.0
H2416 H 0.36312 0.18639 0.5782 0.0
H2417 H 0.30411 0.19817 0.51686 0.0
H2418 H 0.27772 0.16322 0.5367 0.0
H2419 H 0.27452 0.126 0.56806 0.0
H2420 H 0.33743 0.10989 0.62454 0.0
H2421 H 0.35959 0.14964 0.60998 0.0
C2422 C 0.34427 0.18153 0.56953 0.0
C2423 C 0.33541 0.19466 0.54626 0.0
C2424 C 0.33037 0.16026 0.57981 0.0
C2425 C 0.3111 0.18825 0.53492 0.0
C2426 C 0.29621 0.16817 0.54608 0.0
C2427 C 0.29305 0.13132 0.57719 0.0
C2428 C 0.30454 0.11518 0.59714 0.0
C2429 C 0.30617 0.15346 0.56792 0.0
C2430 C 0.32852 0.12201 0.60889 0.0
C2431 C 0.34109 0.1447 0.60064 0.0
H2432 H 0.06379 0.11584 0.85463 0.0
H2433 H 0.07276 0.08962 0.77346 0.0
H2434 H 0.11378 0.06653 0.7853 0.0
H2435 H 0.14662 0.05334 0.8184 0.0
H2436 H 0.13747 0.0763 0.90053 0.0
H2437 H 0.09685 0.10122 0.88874 0.0
C2438 C 0.07477 0.10498 0.83966 0.0
C2439 C 0.06558 0.10467 0.81315 0.0
C2440 C 0.09818 0.09126 0.84676 0.0
C2441 C 0.07974 0.09046 0.79389 0.0
C2442 C 0.10313 0.07718 0.80064 0.0
C2443 C 0.13584 0.06391 0.83374 0.0
C2444 C 0.14496 0.06325 0.86021 0.0
C2445 C 0.1125 0.07749 0.82695 0.0
C2446 C 0.13071 0.0767 0.87997 0.0
C2447 C 0.10754 0.09085 0.87324 0.0
H2448 H 0.81069 0.4199 0.4355 0.0
H2449 H 0.8423 0.40887 0.35592 0.0
H2450 H 0.86346 0.36773 0.37065 0.0
H2451 H 0.87005 0.33376 0.40565 0.0
H2452 H 0.83537 0.34446 0.48419 0.0
H2453 H 0.8173 0.38664 0.47003 0.0
C2454 C 0.82264 0.40873 0.42151 0.0
C2455 C 0.82521 0.41723 0.39482 0.0
C2456 C 0.83332 0.38473 0.42968 0.0
C2457 C 0.84034 0.40255 0.37668 0.0
C2458 C 0.85208 0.37898 0.38499 0.0
C2459 C 0.85814 0.34518 0.41944 0.0
C2460 C 0.8538 0.33606 0.44578 0.0
C2461 C 0.84802 0.36955 0.41126 0.0
C2462 C 0.83883 0.35114 0.46374 0.0
C2463 C 0.82869 0.37531 0.45577 0.0
H2464 H 0.97084 0.55911 0.63339 0.0
H2465 H 0.97509 0.50386 0.69947 0.0
H2466 H 0.93838 0.47993 0.68043 0.0
H2467 H 0.90039 0.47968 0.64943 0.0
H2468 H 0.89212 0.54016 0.58882 0.0
H2469 H 0.93504 0.55741 0.60126 0.0
C2470 C 0.96427 0.5414 0.64327 0.0
C2471 C 0.97552 0.53319 0.66778 0.0
C2472 C 0.94199 0.52918 0.63344 0.0
C2473 C 0.96668 0.51041 0.68051 0.0
C2474 C 0.94554 0.49698 0.66979 0.0
C2475 C 0.90833 0.49635 0.6387 0.0
C2476 C 0.89334 0.50882 0.61834 0.0
C2477 C 0.93226 0.50693 0.64698 0.0
C2478 C 0.90342 0.5305 0.60467 0.0
C2479 C 0.92789 0.54028 0.61175 0.0
H2480 H 0.68326 0.44699 0.17663 0.0
H2481 H 0.65607 0.40891 0.1063 0.0
H2482 H 0.61379 0.39963 0.12888 0.0
H2483 H 0.58355 0.4058 0.16702 0.0
H2484 H 0.61017 0.44617 0.23643 0.0
H2485 H 0.65344 0.45226 0.21515 0.0
C2486 C 0.6684 0.43593 0.16655 0.0
C2487 C 0.67285 0.42812 0.14007 0.0
C2488 C 0.6437 0.43216 0.17901 0.0
C2489 C 0.65316 0.41458 0.1269 0.0
C2490 C 0.62888 0.40974 0.13962 0.0
C2491 C 0.59865 0.41624 0.17743 0.0
C2492 C 0.59347 0.42569 0.20325 0.0
C2493 C 0.62365 0.41922 0.16532 0.0
C2494 C 0.61347 0.43888 0.21647 0.0
C2495 C 0.63835 0.4421 0.20446 0.0
H2496 H 0.60745 0.78049 0.86719 0.0
H2497 H 0.58593 0.83182 0.93128 0.0
H2498 H 0.56397 0.86157 0.89911 0.0
H2499 H 0.5513 0.87274 0.8531 0.0
H2500 H 0.57339 0.82242 0.78855 0.0
H2501 H 0.59465 0.79181 0.82082 0.0
C2502 C 0.59803 0.79825 0.87407 0.0
C2503 C 0.5983 0.80419 0.90143 0.0
C2504 C 0.58554 0.81509 0.85552 0.0
C2505 C 0.58605 0.82711 0.91024 0.0
C2506 C 0.57344 0.84396 0.89193 0.0
C2507 C 0.5608 0.85501 0.84619 0.0
C2508 C 0.56113 0.8496 0.81876 0.0
C2509 C 0.57311 0.83809 0.86462 0.0
C2510 C 0.57311 0.8267 0.8097 0.0
C2511 C 0.58525 0.80941 0.82807 0.0
H2512 H 0.44505 0.30703 0.08696 0.0
H2513 H 0.38121 0.36375 0.09225 0.0
H2514 H 0.40556 0.38687 0.12625 0.0
H2515 H 0.44332 0.38834 0.15752 0.0
H2516 H 0.50823 0.33302 0.14995 0.0
H2517 H 0.48524 0.31186 0.1138 0.0
C2518 C 0.43677 0.32474 0.09525 0.0
C2519 C 0.41145 0.3337 0.08737 0.0
C2520 C 0.45091 0.3379 0.11459 0.0
C2521 C 0.40084 0.3567 0.09795 0.0
C2522 C 0.41462 0.36974 0.11755 0.0
C2523 C 0.45241 0.37179 0.14773 0.0
C2524 C 0.47713 0.36193 0.1565 0.0
C2525 C 0.43936 0.36011 0.12654 0.0
C2526 C 0.4891 0.3408 0.14351 0.0
C2527 C 0.47598 0.32869 0.12289 0.0
H2528 H 0.93062 0.24457 0.36482 0.0
H2529 H 0.86334 0.19708 0.38329 0.0
H2530 H 0.87192 0.1719 0.34291 0.0
H2531 H 0.9008 0.16146 0.30445 0.0
H2532 H 0.97196 0.20473 0.2904 0.0
H2533 H 0.95987 0.23368 0.32693 0.0
C2534 C 0.91761 0.22902 0.35959 0.0
C2535 C 0.89619 0.22276 0.37642 0.0
C2536 C 0.92362 0.21381 0.33739 0.0
C2537 C 0.87978 0.2022 0.37021 0.0
C2538 C 0.88476 0.18781 0.3473 0.0
C2539 C 0.9134 0.17744 0.30933 0.0
C2540 C 0.93703 0.18129 0.29493 0.0
C2541 C 0.90693 0.19313 0.33106 0.0
C2542 C 0.95366 0.20159 0.30145 0.0
C2543 C 0.94674 0.21809 0.32223 0.0
H2544 H 0.0871 0.71392 0.60725 0.0
H2545 H 0.09144 0.64366 0.56239 0.0
H2546 H 0.07814 0.61846 0.60216 0.0
H2547 H 0.0627 0.61678 0.64923 0.0
H2548 H 0.06146 0.687 0.69467 0.0
H2549 H 0.07691 0.71147 0.65558 0.0
C2550 C 0.08518 0.69311 0.60625 0.0
C2551 C 0.08981 0.68076 0.58184 0.0
C2552 C 0.07837 0.6786 0.62945 0.0
C2553 C 0.08764 0.65369 0.5809 0.0
C2554 C 0.08017 0.63922 0.60368 0.0
C2555 C 0.06642 0.63729 0.65081 0.0
C2556 C 0.06057 0.64992 0.67494 0.0
C2557 C 0.07526 0.65149 0.62807 0.0
C2558 C 0.06554 0.67662 0.67641 0.0
C2559 C 0.07422 0.69079 0.65395 0.0
H2560 H 0.54365 0.1674 0.65466 0.0
H2561 H 0.60277 0.17599 0.71562 0.0
H2562 H 0.63583 0.18696 0.68096 0.0
H2563 H 0.64706 0.19555 0.63325 0.0
H2564 H 0.58812 0.18339 0.57278 0.0
H2565 H 0.55603 0.17111 0.60742 0.0
C2566 C 0.56366 0.17206 0.66045 0.0
C2567 C 0.57061 0.17173 0.6877 0.0
C2568 C 0.58271 0.17692 0.64048 0.0
C2569 C 0.59688 0.17674 0.69479 0.0
C2570 C 0.61579 0.18269 0.67498 0.0
C2571 C 0.62739 0.18957 0.62766 0.0
C2572 C 0.6199 0.19052 0.60052 0.0
C2573 C 0.60889 0.18284 0.64774 0.0
C2574 C 0.5944 0.18272 0.59351 0.0
C2575 C 0.57592 0.17606 0.61332 0.0
H2576 H 0.06077 0.32759 0.85423 0.0
H2577 H 0.09262 0.40379 0.86205 0.0
H2578 H 0.10675 0.39282 0.90781 0.0
H2579 H 0.10503 0.36344 0.94708 0.0
H2580 H 0.06925 0.28877 0.94054 0.0
H2581 H 0.06139 0.2972 0.89281 0.0
C2582 C 0.07162 0.34142 0.86568 0.0
C2583 C 0.07596 0.36633 0.85491 0.0
C2584 C 0.07826 0.33546 0.89239 0.0
C2585 C 0.08939 0.38441 0.87003 0.0
C2586 C 0.09707 0.37828 0.89625 0.0
C2587 C 0.09552 0.34905 0.93516 0.0
C2588 C 0.08774 0.32553 0.94713 0.0
C2589 C 0.0907 0.35423 0.90793 0.0
C2590 C 0.07555 0.30695 0.93158 0.0
C2591 C 0.07109 0.31175 0.90433 0.0
H2592 H 0.91954 0.81768 0.1963 0.0
H2593 H 0.9735 0.86349 0.14847 0.0
H2594 H 0.95463 0.84741 0.10746 0.0
H2595 H 0.92523 0.81792 0.08522 0.0
H2596 H 0.87412 0.76865 0.13249 0.0
H2597 H 0.88913 0.78844 0.17364 0.0
C2598 C 0.92688 0.82416 0.17683 0.0
C2599 C 0.94787 0.84145 0.17519 0.0
C2600 C 0.91651 0.81417 0.15328 0.0
C2601 C 0.95751 0.84983 0.15003 0.0
C2602 C 0.9467 0.84075 0.12661 0.0
C2603 C 0.91714 0.81185 0.10452 0.0
C2604 C 0.89866 0.79207 0.10602 0.0
C2605 C 0.92656 0.82257 0.12799 0.0
C2606 C 0.88844 0.78398 0.13104 0.0
C2607 C 0.89705 0.7952 0.15452 0.0
H2608 H 0.49538 0.68141 0.37349 0.0
H2609 H 0.42501 0.65236 0.33699 0.0
H2610 H 0.39905 0.66267 0.37741 0.0
H2611 H 0.39642 0.68161 0.42226 0.0
H2612 H 0.46598 0.71472 0.45624 0.0
H2613 H 0.49274 0.70055 0.41776 0.0
C2614 C 0.47435 0.67729 0.37441 0.0
C2615 C 0.46198 0.66616 0.35248 0.0
C2616 C 0.45971 0.68363 0.39733 0.0
C2617 C 0.43477 0.66108 0.35368 0.0
C2618 C 0.42006 0.66682 0.37678 0.0
C2619 C 0.41761 0.68504 0.42143 0.0
C2620 C 0.42964 0.6984 0.44212 0.0
C2621 C 0.43235 0.67814 0.39867 0.0
C2622 C 0.45672 0.70386 0.44065 0.0
C2623 C 0.47183 0.69604 0.41861 0.0
H2624 H 0.84767 0.59798 0.82285 0.0
H2625 H 0.82971 0.545 0.76042 0.0
H2626 H 0.87131 0.55532 0.73727 0.0
H2627 H 0.91483 0.57636 0.73708 0.0
H2628 H 0.93325 0.62795 0.80087 0.0
H2629 H 0.88985 0.62097 0.82122 0.0
C2630 C 0.85246 0.58945 0.80368 0.0
C2631 C 0.83551 0.57111 0.7931 0.0
C2632 C 0.87695 0.59462 0.7911 0.0
C2633 C 0.84233 0.55949 0.76871 0.0
C2634 C 0.86628 0.56512 0.75567 0.0
C2635 C 0.90938 0.58601 0.75546 0.0
C2636 C 0.92749 0.60247 0.76747 0.0
C2637 C 0.88416 0.58203 0.76712 0.0
C2638 C 0.91985 0.61508 0.79114 0.0
C2639 C 0.89492 0.61121 0.80281 0.0
H2640 H 0.66403 0.55543 0.08761 0.0
H2641 H 0.72761 0.5432 0.03065 0.0
H2642 H 0.71764 0.5854 0.00915 0.0
H2643 H 0.69089 0.62562 0.007 0.0
H2644 H 0.63116 0.64036 0.06745 0.0
H2645 H 0.64013 0.5975 0.0881 0.0
C2646 C 0.67556 0.56209 0.07045 0.0
C2647 C 0.69611 0.54641 0.06023 0.0
C2648 C 0.67071 0.58683 0.05931 0.0
C2649 C 0.71143 0.55509 0.0384 0.0
C2650 C 0.70585 0.57915 0.02629 0.0
C2651 C 0.68001 0.61942 0.02479 0.0
C2652 C 0.66031 0.63568 0.0357 0.0
C2653 C 0.68562 0.59518 0.03667 0.0
C2654 C 0.64647 0.62793 0.05891 0.0
C2655 C 0.65143 0.60346 0.07052 0.0
H2656 H 0.67258 0.47326 0.34865 0.0
H2657 H 0.71321 0.40315 0.32471 0.0
H2658 H 0.67042 0.38226 0.31908 0.0
H2659 H 0.62172 0.38447 0.32026 0.0
H2660 H 0.5811 0.45559 0.34171 0.0
H2661 H 0.62386 0.47538 0.35054 0.0
C2662 C 0.67201 0.45344 0.34217 0.0
C2663 C 0.69589 0.43976 0.33704 0.0
C2664 C 0.64746 0.44164 0.33933 0.0
C2665 C 0.69504 0.41414 0.32842 0.0
C2666 C 0.67062 0.40214 0.32557 0.0
C2667 C 0.62215 0.40409 0.32755 0.0
C2668 C 0.59828 0.41849 0.33076 0.0
C2669 C 0.64674 0.41569 0.33112 0.0
C2670 C 0.59921 0.44406 0.33957 0.0
C2671 C 0.62362 0.45545 0.3442 0.0
H2672 H 0.85299 0.31401 0.5618 0.0
H2673 H 0.92929 0.34716 0.57585 0.0
H2674 H 0.9075 0.38789 0.58895 0.0
H2675 H 0.86741 0.41566 0.58896 0.0
H2676 H 0.79165 0.38307 0.57001 0.0
H2677 H 0.81289 0.34073 0.56463 0.0
C2678 C 0.86481 0.32981 0.56874 0.0
C2679 C 0.89261 0.32776 0.56803 0.0
C2680 C 0.85236 0.35362 0.57384 0.0
C2681 C 0.90779 0.3484 0.57661 0.0
C2682 C 0.89538 0.3718 0.58346 0.0
C2683 C 0.85552 0.39935 0.58358 0.0
C2684 C 0.82803 0.40262 0.57964 0.0
C2685 C 0.86779 0.37499 0.5807 0.0
C2686 C 0.81292 0.38119 0.57287 0.0
C2687 C 0.82496 0.35688 0.57011 0.0
H2688 H 0.88243 0.40423 0.73683 0.0
H2689 H 0.93607 0.40827 0.66904 0.0
H2690 H 0.89915 0.42035 0.63955 0.0
H2691 H 0.85195 0.42997 0.63319 0.0
H2692 H 0.79786 0.42773 0.70026 0.0
H2693 H 0.83458 0.41455 0.73017 0.0
C2694 C 0.88594 0.40767 0.71558 0.0
C2695 C 0.91187 0.40528 0.70504 0.0
C2696 C 0.86462 0.41495 0.69878 0.0
C2697 C 0.91626 0.40992 0.67755 0.0
C2698 C 0.89519 0.41686 0.6607 0.0
C2699 C 0.84824 0.4269 0.65431 0.0
C2700 C 0.82246 0.43007 0.66462 0.0
C2701 C 0.86936 0.41954 0.67112 0.0
C2702 C 0.81771 0.42537 0.69201 0.0
C2703 C 0.83866 0.4179 0.70903 0.0
H2704 H 0.81758 0.59637 0.87653 0.0
H2705 H 0.85578 0.5384 0.92753 0.0
H2706 H 0.87559 0.57248 0.95369 0.0
H2707 H 0.88122 0.61873 0.96255 0.0
H2708 H 0.84177 0.67666 0.91249 0.0
H2709 H 0.82347 0.64261 0.88517 0.0
C2710 C 0.8302 0.59119 0.8934 0.0
C2711 C 0.83521 0.5649 0.90014 0.0
C2712 C 0.84143 0.61088 0.90832 0.0
C2713 C 0.85165 0.55849 0.92198 0.0
C2714 C 0.863 0.57797 0.93689 0.0
C2715 C 0.86888 0.6239 0.94546 0.0
C2716 C 0.863 0.65017 0.93939 0.0
C2717 C 0.85801 0.60422 0.93025 0.0
C2718 C 0.84673 0.65659 0.91741 0.0
C2719 C 0.83616 0.63712 0.90189 0.0
H2720 H 0.58648 0.58428 0.18112 0.0
H2721 H 0.63789 0.648 0.19568 0.0
H2722 H 0.67497 0.62483 0.17408 0.0
H2723 H 0.69311 0.58545 0.15359 0.0
H2724 H 0.64233 0.5203 0.14258 0.0
H2725 H 0.60462 0.54492 0.16065 0.0
C2726 C 0.60571 0.59322 0.1791 0.0
C2727 C 0.60958 0.61781 0.18958 0.0
C2728 C 0.62706 0.57936 0.1678 0.0
C2729 C 0.6346 0.62909 0.1875 0.0
C2730 C 0.65575 0.61582 0.17533 0.0
C2731 C 0.6738 0.57664 0.15514 0.0
C2732 C 0.67055 0.55106 0.14693 0.0
C2733 C 0.65231 0.59075 0.16588 0.0
C2734 C 0.64542 0.53987 0.14908 0.0
C2735 C 0.6238 0.55398 0.15923 0.0
H2736 H 0.68628 0.42252 0.39721 0.0
H2737 H 0.71417 0.45775 0.46877 0.0
H2738 H 0.69276 0.42411 0.49651 0.0
H2739 H 0.66921 0.38274 0.49967 0.0
H2740 H 0.64759 0.34453 0.42743 0.0
H2741 H 0.66259 0.38163 0.40038 0.0
C2742 C 0.68727 0.4229 0.41892 0.0
C2743 C 0.70135 0.44241 0.43121 0.0
C2744 C 0.67601 0.40302 0.4344 0.0
C2745 C 0.70314 0.44284 0.45917 0.0
C2746 C 0.691 0.42364 0.4749 0.0
C2747 C 0.66776 0.38267 0.47804 0.0
C2748 C 0.65766 0.361 0.46544 0.0
C2749 C 0.67784 0.40335 0.46267 0.0
C2750 C 0.65547 0.36106 0.43744 0.0
C2751 C 0.66412 0.38216 0.42202 0.0
H2752 H 0.80329 0.79572 0.61723 0.0
H2753 H 0.8124 0.82952 0.53804 0.0
H2754 H 0.78731 0.86809 0.55125 0.0
H2755 H 0.76842 0.89419 0.58672 0.0
H2756 H 0.75948 0.86188 0.66662 0.0
H2757 H 0.77881 0.82041 0.65192 0.0
C2758 C 0.7991 0.81133 0.60285 0.0
C2759 C 0.80997 0.81042 0.57697 0.0
C2760 C 0.78523 0.8337 0.61088 0.0
C2761 C 0.80465 0.83045 0.55827 0.0
C2762 C 0.79033 0.85239 0.56579 0.0
C2763 C 0.77059 0.87799 0.60086 0.0
C2764 C 0.76336 0.88094 0.62772 0.0
C2765 C 0.78159 0.85462 0.59231 0.0
C2766 C 0.76543 0.85985 0.64585 0.0
C2767 C 0.7764 0.83626 0.63746 0.0
H2768 H 0.29335 0.63772 0.374 0.0
H2769 H 0.33257 0.58449 0.42948 0.0
H2770 H 0.34922 0.62114 0.45441 0.0
H2771 H 0.34974 0.6682 0.46197 0.0
H2772 H 0.30711 0.72065 0.40823 0.0
H2773 H 0.29373 0.68417 0.38149 0.0
C2774 C 0.30602 0.63406 0.39122 0.0
C2775 C 0.31202 0.60843 0.39974 0.0
C2776 C 0.31416 0.65504 0.40615 0.0
C2777 C 0.32804 0.60406 0.42235 0.0
C2778 C 0.33722 0.62498 0.43676 0.0
C2779 C 0.33744 0.67159 0.44444 0.0
C2780 C 0.32938 0.69705 0.43702 0.0
C2781 C 0.32983 0.65052 0.4292 0.0
C2782 C 0.31337 0.70122 0.4144 0.0
C2783 C 0.30595 0.68041 0.39899 0.0
H2784 H 0.5728 0.11764 0.65858 0.0
H2785 H 0.56105 0.07225 0.73126 0.0
H2786 H 0.60597 0.05414 0.72768 0.0
H2787 H 0.64597 0.04725 0.70118 0.0
H2788 H 0.65771 0.08994 0.62709 0.0
H2789 H 0.616 0.11454 0.63461 0.0
C2790 C 0.58026 0.10397 0.67366 0.0
C2791 C 0.5638 0.09609 0.69504 0.0
C2792 C 0.60617 0.09369 0.67149 0.0
C2793 C 0.57347 0.0784 0.71456 0.0
C2794 C 0.59914 0.0682 0.71264 0.0
C2795 C 0.63979 0.06266 0.68724 0.0
C2796 C 0.65453 0.06707 0.66378 0.0
C2797 C 0.61538 0.07531 0.69094 0.0
C2798 C 0.64662 0.08672 0.64552 0.0
C2799 C 0.62258 0.10028 0.64955 0.0
H2800 H 0.1459 0.32553 0.92508 0.0
H2801 H 0.20044 0.32439 0.99127 0.0
H2802 H 0.22693 0.35763 0.96847 0.0
H2803 H 0.23146 0.39026 0.93227 0.0
H2804 H 0.17257 0.39646 0.87012 0.0
H2805 H 0.15071 0.35788 0.88861 0.0
C2806 C 0.16377 0.33235 0.93431 0.0
C2807 C 0.17129 0.32269 0.95975 0.0
C2808 C 0.17775 0.3526 0.92197 0.0
C2809 C 0.19438 0.33166 0.97166 0.0
C2810 C 0.20937 0.35071 0.95873 0.0
C2811 C 0.21394 0.38297 0.9227 0.0
C2812 C 0.20353 0.3959 0.89992 0.0
C2813 C 0.20075 0.36186 0.9343 0.0
C2814 C 0.18071 0.38671 0.88777 0.0
C2815 C 0.16826 0.36477 0.89836 0.0
H2816 H 0.38652 0.46511 0.63075 0.0
H2817 H 0.33114 0.41383 0.66992 0.0
H2818 H 0.36738 0.39355 0.69598 0.0
H2819 H 0.41491 0.39062 0.70723 0.0
H2820 H 0.47 0.44111 0.66686 0.0
H2821 H 0.43356 0.46217 0.64189 0.0
C2822 C 0.38243 0.44931 0.6448 0.0
C2823 C 0.35638 0.44078 0.64838 0.0
C2824 C 0.40315 0.43811 0.65981 0.0
C2825 C 0.3512 0.42046 0.66671 0.0
C2826 C 0.37182 0.40907 0.68175 0.0
C2827 C 0.41871 0.40665 0.69351 0.0
C2828 C 0.44473 0.4149 0.68924 0.0
C2829 C 0.39783 0.41792 0.67862 0.0
C2830 C 0.44985 0.43495 0.67064 0.0
C2831 C 0.42915 0.44674 0.65625 0.0
H2832 H 0.74248 0.13229 0.09749 0.0
H2833 H 0.67358 0.09267 0.12776 0.0
H2834 H 0.64513 0.12988 0.11447 0.0
H2835 H 0.63991 0.17268 0.09236 0.0
H2836 H 0.70799 0.21012 0.05758 0.0
H2837 H 0.73716 0.17476 0.07467 0.0
C2838 C 0.72125 0.13195 0.10131 0.0
C2839 C 0.70997 0.11005 0.11365 0.0
C2840 C 0.70511 0.15295 0.09287 0.0
C2841 C 0.68249 0.10944 0.11821 0.0
C2842 C 0.66633 0.13066 0.11069 0.0
C2843 C 0.66122 0.17315 0.08901 0.0
C2844 C 0.67219 0.19387 0.07442 0.0
C2845 C 0.67743 0.15238 0.09783 0.0
C2846 C 0.69952 0.19434 0.06925 0.0
C2847 C 0.71603 0.17415 0.07885 0.0
H2848 H 0.56287 0.93401 0.88246 0.0
H2849 H 0.53568 1.00063 0.83576 0.0
H2850 H 0.5721 0.02601 0.85298 0.0
H2851 H 0.61608 0.02624 0.87416 0.0
H2852 H 0.64612 0.95716 0.91484 0.0
H2853 H 0.60422 0.93558 0.9072 0.0
C2854 C 0.56444 0.95432 0.87668 0.0
C2855 C 0.54689 0.96546 0.85774 0.0
C2856 C 0.58633 0.96808 0.88514 0.0
C2857 C 0.54909 0.99172 0.85032 0.0
C2858 C 0.57004 1.0061 0.85993 0.0
C2859 C 0.61313 0.00666 0.88182 0.0
C2860 C 0.63401 0.99308 0.89479 0.0
C2861 C 0.58952 0.99404 0.87621 0.0
C2862 C 0.63026 0.96775 0.90455 0.0
C2863 C 0.60636 0.95547 0.90021 0.0
H2864 H 0.81793 0.07368 0.3232 0.0
H2865 H 0.85588 0.0594 0.3993 0.0
H2866 H 0.89681 0.07854 0.38219 0.0
H2867 H 0.9235 0.094 0.34362 0.0
H2868 H 0.88565 0.10471 0.26664 0.0
H2869 H 0.84339 0.09228 0.28588 0.0
C2870 C 0.83492 0.07558 0.33619 0.0
C2871 C 0.83407 0.06536 0.36234 0.0
C2872 C 0.85874 0.08532 0.32582 0.0
C2873 C 0.85626 0.06734 0.37901 0.0
C2874 C 0.87971 0.07801 0.36918 0.0
C2875 C 0.90597 0.0937 0.33117 0.0
C2876 C 0.90798 0.09965 0.30368 0.0
C2877 C 0.88153 0.08611 0.34227 0.0
C2878 C 0.88496 0.09954 0.2878 0.0
C2879 C 0.8606 0.09265 0.29878 0.0
H2880 H 0.40539 0.2325 0.15264 0.0
H2881 H 0.387 0.17383 0.09585 0.0
H2882 H 0.41354 0.14189 0.12154 0.0
H2883 H 0.4457 0.1323 0.15672 0.0
H2884 H 0.46689 0.19121 0.21201 0.0
H2885 H 0.43485 0.22161 0.19065 0.0
C2886 C 0.40692 0.21262 0.14614 0.0
C2887 C 0.39461 0.20543 0.12231 0.0
C2888 C 0.42265 0.19463 0.16065 0.0
C2889 C 0.39652 0.1797 0.11406 0.0
C2890 C 0.41168 0.16152 0.12869 0.0
C2891 C 0.44305 0.15174 0.1643 0.0
C2892 C 0.45867 0.15981 0.18561 0.0
C2893 C 0.4254 0.16903 0.15149 0.0
C2894 C 0.45492 0.18473 0.19565 0.0
C2895 C 0.43683 0.20207 0.18329 0.0
H2896 H 0.60927 0.65595 0.91769 0.0
H2897 H 0.54299 0.70659 0.93694 0.0
H2898 H 0.51578 0.68577 0.9034 0.0
H2899 H 0.51243 0.65589 0.86604 0.0
H2900 H 0.58086 0.60998 0.84245 0.0
H2901 H 0.60585 0.62595 0.88044 0.0
C2902 C 0.5887 0.66201 0.91483 0.0
C2903 C 0.57787 0.68243 0.92979 0.0
C2904 C 0.5738 0.65092 0.89465 0.0
C2905 C 0.5515 0.69074 0.92561 0.0
C2906 C 0.53606 0.67892 0.90645 0.0
C2907 C 0.53268 0.64913 0.86953 0.0
C2908 C 0.54487 0.63172 0.85179 0.0
C2909 C 0.5472 0.65938 0.89049 0.0
C2910 C 0.57121 0.62337 0.85603 0.0
C2911 C 0.58544 0.63251 0.87765 0.0
H2912 H 0.08002 0.8226 0.61091 0.0
H2913 H 0.12272 0.76725 0.66125 0.0
H2914 H 0.10928 0.79135 0.70119 0.0
H2915 H 0.0852 0.82859 0.72133 0.0
H2916 H 0.04078 0.88156 0.67009 0.0
H2917 H 0.05467 0.8579 0.6308 0.0
C2918 C 0.08649 0.81592 0.63063 0.0
C2919 C 0.10252 0.79358 0.63338 0.0
C2920 C 0.07811 0.82929 0.65322 0.0
C2921 C 0.11044 0.78464 0.65891 0.0
C2922 C 0.10275 0.79834 0.68163 0.0
C2923 C 0.07855 0.83469 0.7015 0.0
C2924 C 0.06166 0.85647 0.69841 0.0
C2925 C 0.08656 0.82072 0.67898 0.0
C2926 C 0.05305 0.86444 0.6729 0.0
C2927 C 0.06131 0.85109 0.65039 0.0
H2928 H 0.92108 0.35666 0.43755 0.0
H2929 H 0.949 0.28159 0.41182 0.0
H2930 H 0.95679 0.2994 0.36655 0.0
H2931 H 0.95908 0.33688 0.33573 0.0
H2932 H 0.933 0.41251 0.36195 0.0
H2933 H 0.92011 0.39364 0.40545 0.0
C2934 C 0.92892 0.3442 0.42203 0.0
C2935 C 0.93484 0.3179 0.42807 0.0
C2936 C 0.93334 0.35461 0.39614 0.0
C2937 C 0.94448 0.3019 0.40768 0.0
C2938 C 0.94887 0.31209 0.38182 0.0
C2939 C 0.95007 0.34929 0.35066 0.0
C2940 C 0.94718 0.37623 0.34546 0.0
C2941 C 0.94374 0.3385 0.37596 0.0
C2942 C 0.93552 0.3918 0.36529 0.0
C2943 C 0.9284 0.38104 0.39029 0.0
H2944 H 0.42671 0.8667 0.33233 0.0
H2945 H 0.44855 0.79426 0.2962 0.0
H2946 H 0.427 0.77044 0.3331 0.0
H2947 H 0.40631 0.77038 0.37742 0.0
H2948 H 0.38837 0.84245 0.41644 0.0
H2949 H 0.40431 0.86656 0.37664 0.0
C2950 C 0.42591 0.84573 0.33227 0.0
C2951 C 0.4384 0.83208 0.31144 0.0
C2952 C 0.41485 0.83229 0.35428 0.0
C2953 C 0.43837 0.80496 0.31178 0.0
C2954 C 0.42639 0.79144 0.333 0.0
C2955 C 0.40569 0.7914 0.3772 0.0
C2956 C 0.39631 0.80471 0.3998 0.0
C2957 C 0.41528 0.80491 0.35466 0.0
C2958 C 0.3957 0.83187 0.3993 0.0
C2959 C 0.4047 0.84559 0.37655 0.0
H2960 H 0.93584 0.69248 0.16659 0.0
H2961 H 0.8951 0.61994 0.16766 0.0
H2962 H 0.88016 0.62839 0.12165 0.0
H2963 H 0.88442 0.65329 0.07932 0.0
H2964 H 0.92808 0.72422 0.07737 0.0
H2965 H 0.93676 0.71931 0.1254 0.0
C2966 C 0.92287 0.67901 0.15707 0.0
C2967 C 0.91634 0.65572 0.17043 0.0
C2968 C 0.91581 0.68326 0.13017 0.0
C2969 C 0.90006 0.63811 0.15775 0.0
C2970 C 0.89193 0.64274 0.13134 0.0
C2971 C 0.89581 0.66765 0.08947 0.0
C2972 C 0.90572 0.68901 0.07495 0.0
C2973 C 0.90075 0.66464 0.117 0.0
C2974 C 0.92027 0.70761 0.08825 0.0
C2975 C 0.92513 0.70487 0.11568 0.0
H2976 H 0.11403 0.24004 0.88829 0.0
H2977 H 0.06949 0.18937 0.94095 0.0
H2978 H 0.05126 0.16789 0.90228 0.0
H2979 H 0.04556 0.16583 0.85386 0.0
H2980 H 0.09151 0.21435 0.80056 0.0
H2981 H 0.1118 0.23473 0.83928 0.0
C2982 C 0.10057 0.22408 0.89122 0.0
C2983 C 0.09284 0.21634 0.91726 0.0
C2984 C 0.09033 0.21179 0.86892 0.0
C2985 C 0.07563 0.19558 0.921 0.0
C2986 C 0.06513 0.18342 0.89896 0.0
C2987 C 0.06017 0.18076 0.85079 0.0
C2988 C 0.06692 0.18902 0.82473 0.0
C2989 C 0.07193 0.19175 0.87291 0.0
C2990 C 0.08608 0.20798 0.82067 0.0
C2991 C 0.09756 0.21954 0.84272 0.0
H2992 H 0.5676 0.38045 0.64594 0.0
H2993 H 0.58467 0.31835 0.70296 0.0
H2994 H 0.60657 0.2933 0.66771 0.0
H2995 H 0.61611 0.28728 0.61991 0.0
H2996 H 0.59803 0.34914 0.5628 0.0
H2997 H 0.5807 0.37601 0.59893 0.0
C2998 C 0.57667 0.36168 0.65078 0.0
C2999 C 0.5744 0.35111 0.67688 0.0
C3000 C 0.58825 0.3471 0.63029 0.0
C3001 C 0.58628 0.32687 0.68299 0.0
C3002 C 0.59846 0.31243 0.66278 0.0
C3003 C 0.60813 0.30655 0.61533 0.0
C3004 C 0.60762 0.31598 0.58866 0.0
C3005 C 0.59858 0.32196 0.6362 0.0
C3006 C 0.59815 0.3413 0.58313 0.0
C3007 C 0.58843 0.35672 0.60377 0.0
H3008 H 0.07832 0.46065 0.26075 0.0
H3009 H 0.0801 0.38383 0.22821 0.0
H3010 H 0.1186 0.39459 0.20078 0.0
H3011 H 0.15004 0.42684 0.18325 0.0
H3012 H 0.14758 0.50381 0.21511 0.0
H3013 H 0.11166 0.49184 0.24564 0.0
C3014 C 0.08728 0.44617 0.24789 0.0
C3015 C 0.07607 0.42157 0.24649 0.0
C3016 C 0.10946 0.45249 0.23191 0.0
C3017 C 0.08805 0.40306 0.22963 0.0
C3018 C 0.11019 0.40914 0.21388 0.0
C3019 C 0.14197 0.44076 0.19728 0.0
C3020 C 0.15134 0.46614 0.19683 0.0
C3021 C 0.12084 0.43392 0.2145 0.0
C3022 C 0.14052 0.48414 0.21491 0.0
C3023 C 0.11992 0.47736 0.23237 0.0
H3024 H 0.33116 0.4304 0.90152 0.0
H3025 H 0.26303 0.45077 0.95015 0.0
H3026 H 0.27036 0.41188 0.97832 0.0
H3027 H 0.29806 0.37374 0.99053 0.0
H3028 H 0.36304 0.35058 0.93909 0.0
H3029 H 0.35473 0.38871 0.9098 0.0
C3030 C 0.31784 0.42607 0.91814 0.0
C3031 C 0.29693 0.44332 0.92423 0.0
C3032 C 0.32153 0.40327 0.93343 0.0
C3033 C 0.27946 0.43769 0.94548 0.0
C3034 C 0.28358 0.41552 0.96147 0.0
C3035 C 0.31003 0.37694 0.97262 0.0
C3036 C 0.33119 0.35992 0.96682 0.0
C3037 C 0.30479 0.39841 0.95583 0.0
C3038 C 0.34658 0.36368 0.94361 0.0
C3039 C 0.34197 0.38547 0.92709 0.0
H3040 H 0.37887 0.61317 0.7059 0.0
H3041 H 0.43386 0.57164 0.65501 0.0
H3042 H 0.39702 0.54664 0.63744 0.0
H3043 H 0.34902 0.53611 0.63785 0.0
H3044 H 0.29601 0.57591 0.69241 0.0
H3045 H 0.33252 0.60166 0.70788 0.0
C3046 C 0.38286 0.59892 0.69066 0.0
C3047 C 0.40896 0.59456 0.68135 0.0
C3048 C 0.362 0.58397 0.6818 0.0
C3049 C 0.41383 0.57558 0.66213 0.0
C3050 C 0.39283 0.56117 0.65232 0.0
C3051 C 0.34559 0.55028 0.65328 0.0
C3052 C 0.3198 0.55425 0.66386 0.0
C3053 C 0.36684 0.565 0.66228 0.0
C3054 C 0.31562 0.57256 0.68391 0.0
C3055 C 0.33645 0.5874 0.69265 0.0
H3056 H 0.17335 0.69486 0.45598 0.0
H3057 H 0.09534 0.67048 0.43391 0.0
H3058 H 0.1144 0.62974 0.41729 0.0
H3059 H 0.15231 0.59935 0.41481 0.0
H3060 H 0.22936 0.62252 0.44197 0.0
H3061 H 0.21119 0.66524 0.4524 0.0
C3062 C 0.16062 0.681 0.44671 0.0
C3063 C 0.13309 0.68551 0.44589 0.0
C3064 C 0.17133 0.657 0.43952 0.0
C3065 C 0.11668 0.66734 0.43432 0.0
C3066 C 0.12749 0.64392 0.42541 0.0
C3067 C 0.16507 0.61358 0.42339 0.0
C3068 C 0.19205 0.60767 0.42796 0.0
C3069 C 0.15458 0.63812 0.42914 0.0
C3070 C 0.20842 0.62649 0.4386 0.0
C3071 C 0.19817 0.65103 0.44421 0.0
H3072 H 0.10677 0.64427 0.31505 0.0
H3073 H 0.10624 0.58147 0.25978 0.0
H3074 H 0.14632 0.56234 0.28034 0.0
H3075 H 0.18143 0.56356 0.31425 0.0
H3076 H 0.18471 0.62846 0.36669 0.0
H3077 H 0.14358 0.64667 0.34748 0.0
C3078 C 0.11565 0.6265 0.30754 0.0
C3079 C 0.10398 0.61431 0.28589 0.0
C3080 C 0.13903 0.616 0.31907 0.0
C3081 C 0.11537 0.59131 0.27616 0.0
C3082 C 0.1381 0.58031 0.28802 0.0
C3083 C 0.17315 0.58171 0.32131 0.0
C3084 C 0.18593 0.59465 0.34178 0.0
C3085 C 0.15012 0.59249 0.30947 0.0
C3086 C 0.17516 0.61823 0.35083 0.0
C3087 C 0.15167 0.62863 0.33987 0.0
H3088 H 0.16297 0.3574 0.07673 0.0
H3089 H 0.07919 0.3739 0.08625 0.0
H3090 H 0.08877 0.41704 0.10273 0.0
H3091 H 0.12098 0.45152 0.11013 0.0
H3092 H 0.20435 0.43582 0.09596 0.0
H3093 H 0.19504 0.39103 0.08553 0.0
C3094 C 0.14685 0.37022 0.08304 0.0
C3095 C 0.12043 0.36251 0.08053 0.0
C3096 C 0.15247 0.39534 0.09115 0.0
C3097 C 0.09969 0.37944 0.08824 0.0
C3098 C 0.10516 0.40415 0.09741 0.0
C3099 C 0.13704 0.43822 0.1048 0.0
C3100 C 0.16329 0.44691 0.10379 0.0
C3101 C 0.13145 0.41259 0.09817 0.0
C3102 C 0.18398 0.42955 0.09692 0.0
C3103 C 0.17868 0.40392 0.09096 0.0
H3104 H 0.32069 0.41089 0.85983 0.0
H3105 H 0.3026 0.4594 0.79079 0.0
H3106 H 0.3355 0.4356 0.76405 0.0
H3107 H 0.37288 0.40448 0.76194 0.0
H3108 H 0.396 0.36072 0.83289 0.0
H3109 H 0.35776 0.37886 0.85743 0.0
C3110 C 0.32385 0.41594 0.83886 0.0
C3111 C 0.30948 0.4368 0.82714 0.0
C3112 C 0.34384 0.40309 0.82414 0.0
C3113 C 0.31363 0.44343 0.80006 0.0
C3114 C 0.33243 0.42985 0.78486 0.0
C3115 C 0.36919 0.39855 0.78262 0.0
C3116 C 0.38695 0.38123 0.79565 0.0
C3117 C 0.34816 0.41015 0.7969 0.0
C3118 C 0.38241 0.37401 0.82255 0.0
C3119 C 0.36066 0.38444 0.83656 0.0
H3120 H 0.37615 0.62536 0.54352 0.0
H3121 H 0.29902 0.66252 0.53426 0.0
H3122 H 0.27759 0.62108 0.54126 0.0
H3123 H 0.28047 0.57559 0.55277 0.0
H3124 H 0.35655 0.53873 0.56969 0.0
H3125 H 0.37893 0.57846 0.55542 0.0
C3126 C 0.35467 0.62425 0.54327 0.0
C3127 C 0.33908 0.64681 0.53884 0.0
C3128 C 0.34242 0.60042 0.54803 0.0
C3129 C 0.31131 0.64538 0.53823 0.0
C3130 C 0.29909 0.6217 0.54189 0.0
C3131 C 0.30201 0.57594 0.55305 0.0
C3132 C 0.31682 0.55431 0.5626 0.0
C3133 C 0.31444 0.59922 0.54708 0.0
C3134 C 0.34469 0.55515 0.56242 0.0
C3135 C 0.35745 0.57796 0.55466 0.0
H3136 H 0.25993 0.14437 0.37873 0.0
H3137 H 0.1944 0.09242 0.38897 0.0
H3138 H 0.16615 0.12792 0.40486 0.0
H3139 H 0.16092 0.17259 0.41788 0.0
H3140 H 0.2254 0.22557 0.40767 0.0
H3141 H 0.25358 0.19059 0.38935 0.0
C3142 C 0.23939 0.14099 0.38423 0.0
C3143 C 0.22912 0.116 0.38292 0.0
C3144 C 0.22332 0.16145 0.39334 0.0
C3145 C 0.20257 0.11161 0.3899 0.0
C3146 C 0.18649 0.13181 0.39903 0.0
C3147 C 0.18114 0.17651 0.41159 0.0
C3148 C 0.19139 0.20129 0.41426 0.0
C3149 C 0.19681 0.15662 0.40117 0.0
C3150 C 0.21733 0.20644 0.40567 0.0
C3151 C 0.23334 0.18652 0.39535 0.0
H3152 H 0.69419 0.33013 0.53673 0.0
H3153 H 0.67319 0.30535 0.6172 0.0
H3154 H 0.67842 0.34903 0.63298 0.0
H3155 H 0.69249 0.39349 0.62504 0.0
H3156 H 0.7147 0.41899 0.5453 0.0
H3157 H 0.70553 0.37616 0.52825 0.0
C3158 C 0.69067 0.33443 0.55764 0.0
C3159 C 0.68351 0.31448 0.57574 0.0
C3160 C 0.69368 0.35984 0.56674 0.0
C3161 C 0.67904 0.32026 0.60284 0.0
C3162 C 0.6818 0.34532 0.61192 0.0
C3163 C 0.69433 0.38994 0.60375 0.0
C3164 C 0.70412 0.40937 0.58649 0.0
C3165 C 0.68941 0.3652 0.59416 0.0
C3166 C 0.70675 0.40447 0.55897 0.0
C3167 C 0.70172 0.37987 0.54921 0.0
H3168 H 0.4494 0.91201 0.35211 0.0
H3169 H 0.44306 0.94243 0.27126 0.0
H3170 H 0.39665 0.95518 0.27926 0.0
H3171 H 0.35825 0.95728 0.30911 0.0
H3172 H 0.36452 0.92858 0.39075 0.0
H3173 H 0.41049 0.91435 0.38236 0.0
C3174 C 0.43797 0.92224 0.33667 0.0
C3175 C 0.44941 0.92706 0.31143 0.0
C3176 C 0.41119 0.9287 0.34121 0.0
C3177 C 0.43447 0.93923 0.29101 0.0
C3178 C 0.40795 0.94606 0.29544 0.0
C3179 C 0.36942 0.94726 0.32487 0.0
C3180 C 0.35811 0.94374 0.35043 0.0
C3181 C 0.39603 0.94048 0.32032 0.0
C3182 C 0.37286 0.93111 0.3708 0.0
C3183 C 0.39921 0.92342 0.36615 0.0
H3184 H 0.79948 0.61672 0.1209 0.0
H3185 H 0.74529 0.60931 0.05525 0.0
H3186 H 0.7612 0.64943 0.03456 0.0
H3187 H 0.7948 0.68314 0.03238 0.0
H3188 H 0.84605 0.6932 0.1 0.0
H3189 H 0.8266 0.65595 0.12309 0.0
C3190 C 0.79099 0.6242 0.10228 0.0
C3191 C 0.77182 0.61003 0.08918 0.0
C3192 C 0.79969 0.64765 0.09091 0.0
C3193 C 0.76034 0.61996 0.06544 0.0
C3194 C 0.76941 0.64283 0.05361 0.0
C3195 C 0.80118 0.67755 0.05246 0.0
C3196 C 0.82239 0.69018 0.06411 0.0
C3197 C 0.78966 0.65639 0.06576 0.0
C3198 C 0.83007 0.68335 0.0904 0.0
C3199 C 0.81908 0.66195 0.10357 0.0
H3200 H 0.55637 0.57435 0.3346 0.0
H3201 H 0.59789 0.61321 0.26989 0.0
H3202 H 0.63982 0.59329 0.28443 0.0
H3203 H 0.66492 0.56678 0.31695 0.0
H3204 H 0.62382 0.52736 0.38157 0.0
H3205 H 0.58138 0.54583 0.36596 0.0
C3206 C 0.57458 0.5781 0.32355 0.0
C3207 C 0.57431 0.5953 0.30145 0.0
C3208 C 0.59864 0.56691 0.33229 0.0
C3209 C 0.59785 0.60012 0.28714 0.0
C3210 C 0.6218 0.58886 0.29549 0.0
C3211 C 0.64666 0.56242 0.32767 0.0
C3212 C 0.6473 0.5462 0.35049 0.0
C3213 C 0.62248 0.5727 0.31837 0.0
C3214 C 0.62362 0.54016 0.36405 0.0
C3215 C 0.59942 0.55055 0.35508 0.0
H3216 H 0.35379 0.84564 0.94841 0.0
H3217 H 0.31319 0.79379 0.89706 0.0
H3218 H 0.29062 0.83101 0.87461 0.0
H3219 H 0.2807 0.878 0.87216 0.0
H3220 H 0.32292 0.92939 0.9229 0.0
H3221 H 0.34719 0.89241 0.94307 0.0
C3222 C 0.33993 0.84256 0.9323 0.0
C3223 C 0.33441 0.81731 0.92463 0.0
C3224 C 0.32762 0.86382 0.91948 0.0
C3225 C 0.31724 0.81325 0.90331 0.0
C3226 C 0.30446 0.83443 0.89058 0.0
C3227 C 0.29546 0.88104 0.88742 0.0
C3228 C 0.29997 0.90616 0.89635 0.0
C3229 C 0.30924 0.85976 0.89884 0.0
C3230 C 0.31923 0.91013 0.91584 0.0
C3231 C 0.33295 0.88904 0.92743 0.0
H3232 H 0.39061 0.99648 0.15458 0.0
H3233 H 0.37505 0.06493 0.1054 0.0
H3234 H 0.42114 0.07799 0.11056 0.0
H3235 H 0.46375 0.0722 0.13289 0.0
H3236 H 0.47741 0.0068 0.18682 0.0
H3237 H 0.43448 0.98919 0.17461 0.0
C3238 C 0.39736 0.01423 0.14494 0.0
C3239 C 0.37956 0.03004 0.13 0.0
C3240 C 0.42361 0.02169 0.14832 0.0
C3241 C 0.38844 0.05279 0.11736 0.0
C3242 C 0.41477 0.06008 0.1201 0.0
C3243 C 0.45775 0.05364 0.14131 0.0
C3244 C 0.47357 0.04072 0.1607 0.0
C3245 C 0.43233 0.0449 0.13593 0.0
C3246 C 0.46551 0.01688 0.17168 0.0
C3247 C 0.44084 0.00712 0.16509 0.0
H3248 H 0.16092 0.98568 0.68501 0.0
H3249 H 0.17089 0.9216 0.6318 0.0
H3250 H 0.1255 0.90772 0.64238 0.0
H3251 H 0.08363 0.91323 0.66857 0.0
H3252 H 0.07434 0.97856 0.72032 0.0
H3253 H 0.11846 0.99335 0.70759 0.0
C3254 C 0.15329 0.96846 0.67598 0.0
C3255 C 0.16937 0.95416 0.65831 0.0
C3256 C 0.12704 0.96139 0.68127 0.0
C3257 C 0.15896 0.93249 0.64597 0.0
C3258 C 0.13297 0.92478 0.65178 0.0
C3259 C 0.09096 0.9312 0.67619 0.0
C3260 C 0.07573 0.94506 0.69503 0.0
C3261 C 0.11679 0.93913 0.6694 0.0
C3262 C 0.08565 0.96789 0.70547 0.0
C3263 C 0.111 0.97609 0.69853 0.0
loop_
_geom_bond_atom_site_label_1
_geom_bond_atom_site_label_2
_geom_bond_distance
_geom_bond_site_symmetry_2
_ccdc_geom_bond_type
Dy0 O4 2.398 1_455 S
Dy0 O5 2.491 1_455 S
Dy0 O6 2.403 1_455 S
Dy0 O7 2.664 . S
Dy0 O11 2.326 1_455 S
Dy0 O15 2.310 . S
Dy0 O16 2.351 . S
C1 O12 1.185 . S
C1 O13 1.355 . S
C2 O4 1.185 . S
C2 O5 1.355 . S
Dy3 O7 2.310 . S
Dy3 O10 2.351 . S
Dy3 O12 2.398 . S
Dy3 O13 2.491 . S
Dy3 O14 2.403 . S
Dy3 O15 2.664 . S
Dy3 O17 2.326 . S
O4 Dy0 2.398 1_655 S
O4 C2 1.185 . S
O5 Dy0 2.491 1_655 S
O5 C2 1.355 . S
O6 Dy0 2.403 1_655 S
O6 C8 1.243 1_655 S
O7 Dy0 2.664 . S
O7 Dy3 2.310 . S
O7 C8 1.285 . S
C8 O6 1.243 1_455 S
C8 O7 1.285 . S
C9 O14 1.254 . S
C9 O15 1.268 . S
O10 Dy3 2.351 . S
O10 C18 1.249 1_455 S
O11 Dy0 2.326 1_655 S
O11 C18 1.267 . S
O12 C1 1.185 . S
O12 Dy3 2.398 . S
O13 C1 1.355 . S
O13 Dy3 2.491 . S
O14 Dy3 2.403 . S
O14 C9 1.254 . S
O15 Dy0 2.310 . S
O15 Dy3 2.664 . S
O15 C9 1.268 . S
O16 Dy0 2.351 . S
O16 C19 1.249 . S
O17 Dy3 2.326 . S
O17 C19 1.267 . S
C18 O10 1.249 1_655 S
C18 O11 1.267 . S
C19 O16 1.249 . S
C19 O17 1.267 . S
Dy20 O24 2.398 . S
Dy20 O25 2.491 . S
Dy20 O26 2.403 . S
Dy20 O27 2.664 . S
Dy20 O31 2.326 . S
Dy20 O35 2.310 . S
Dy20 O36 2.351 . S
C21 O32 1.185 . S
C21 O33 1.355 . S
C22 O24 1.185 . S
C22 O25 1.355 . S
Dy23 O27 2.310 . S
Dy23 O30 2.351 . S
Dy23 O32 2.398 . S
Dy23 O33 2.491 . S
Dy23 O34 2.403 . S
Dy23 O35 2.664 . S
Dy23 O37 2.326 . S
O24 Dy20 2.398 . S
O24 C22 1.185 . S
O25 Dy20 2.491 . S
O25 C22 1.355 . S
O26 Dy20 2.403 . S
O26 C28 1.254 . S
O27 Dy20 2.664 . S
O27 Dy23 2.310 . S
O27 C28 1.268 . S
C28 O26 1.254 . S
C28 O27 1.268 . S
C29 O34 1.254 . S
C29 O35 1.268 . S
O30 Dy23 2.351 . S
O30 C38 1.249 . S
O31 Dy20 2.326 . S
O31 C38 1.267 . S
O32 C21 1.185 . S
O32 Dy23 2.398 . S
O33 C21 1.355 . S
O33 Dy23 2.491 . S
O34 Dy23 2.403 . S
O34 C29 1.254 . S
O35 Dy20 2.310 . S
O35 Dy23 2.664 . S
O35 C29 1.268 . S
O36 Dy20 2.351 . S
O36 C39 1.249 . S
O37 Dy23 2.326 . S
O37 C39 1.267 . S
C38 O30 1.249 . S
C38 O31 1.267 . S
C39 O36 1.249 . S
C39 O37 1.267 . S
Dy40 O44 2.398 . S
Dy40 O45 2.491 . S
Dy40 O46 2.403 . S
Dy40 O47 2.664 . S
Dy40 O51 2.326 . S
Dy40 O55 2.310 . S
Dy40 O56 2.351 . S
C41 O52 1.185 . S
C41 O53 1.355 . S
C42 O44 1.185 . S
C42 O45 1.355 . S
Dy43 O47 2.310 . S
Dy43 O50 2.351 . S
Dy43 O52 2.398 . S
Dy43 O53 2.491 . S
Dy43 O54 2.403 . S
Dy43 O55 2.664 . S
Dy43 O57 2.326 . S
O44 Dy40 2.398 . S
O44 C42 1.185 . S
O45 Dy40 2.491 . S
O45 C42 1.355 . S
O46 Dy40 2.403 . S
O46 C48 1.254 . S
O47 Dy40 2.664 . S
O47 Dy43 2.310 . S
O47 C48 1.268 . S
C48 O46 1.254 . S
C48 O47 1.268 . S
C49 O54 1.254 . S
C49 O55 1.268 . S
O50 Dy43 2.351 . S
O50 C58 1.249 . S
O51 Dy40 2.326 . S
O51 C58 1.267 . S
O52 C41 1.185 . S
O52 Dy43 2.398 . S
O53 C41 1.355 . S
O53 Dy43 2.491 . S
O54 Dy43 2.403 . S
O54 C49 1.254 . S
O55 Dy40 2.310 . S
O55 Dy43 2.664 . S
O55 C49 1.268 . S
O56 Dy40 2.351 . S
O56 C59 1.249 . S
O57 Dy43 2.326 . S
O57 C59 1.267 . S
C58 O50 1.249 . S
C58 O51 1.267 . S
C59 O56 1.249 . S
C59 O57 1.267 . S
Dy60 O64 2.398 . S
Dy60 O65 2.491 . S
Dy60 O66 2.403 . S
Dy60 O67 2.664 . S
Dy60 O71 2.326 . S
Dy60 O75 2.310 . S
Dy60 O76 2.351 . S
C61 O72 1.185 . S
C61 O73 1.355 . S
C62 O64 1.185 . S
C62 O65 1.355 . S
Dy63 O67 2.310 . S
Dy63 O70 2.351 . S
Dy63 O72 2.398 . S
Dy63 O73 2.491 . S
Dy63 O74 2.403 . S
Dy63 O75 2.664 . S
Dy63 O77 2.326 . S
O64 Dy60 2.398 . S
O64 C62 1.185 . S
O65 Dy60 2.491 . S
O65 C62 1.355 . S
O66 Dy60 2.403 . S
O66 C68 1.254 . S
O67 Dy60 2.664 . S
O67 Dy63 2.310 . S
O67 C68 1.268 . S
C68 O66 1.254 . S
C68 O67 1.268 . S
C69 O74 1.254 . S
C69 O75 1.268 . S
O70 Dy63 2.351 . S
O70 C78 1.249 . S
O71 Dy60 2.326 . S
O71 C78 1.267 . S
O72 C61 1.185 . S
O72 Dy63 2.398 . S
O73 C61 1.355 . S
O73 Dy63 2.491 . S
O74 Dy63 2.403 . S
O74 C69 1.254 . S
O75 Dy60 2.310 . S
O75 Dy63 2.664 . S
O75 C69 1.268 . S
O76 Dy60 2.351 . S
O76 C79 1.249 . S
O77 Dy63 2.326 . S
O77 C79 1.267 . S
C78 O70 1.249 . S
C78 O71 1.267 . S
C79 O76 1.249 . S
C79 O77 1.267 . S
Dy80 O84 2.398 . S
Dy80 O85 2.491 . S
Dy80 O86 2.403 1_655 S
Dy80 O87 2.664 1_655 S
Dy80 O91 2.326 1_655 S
Dy80 O95 2.310 1_655 S
Dy80 O96 2.351 . S
C81 O92 1.185 . S
C81 O93 1.355 . S
C82 O84 1.185 . S
C82 O85 1.355 . S
Dy83 O87 2.310 . S
Dy83 O90 2.351 . S
Dy83 O92 2.398 . S
Dy83 O93 2.491 . S
Dy83 O94 2.403 . S
Dy83 O95 2.664 . S
Dy83 O97 2.326 . S
O84 Dy80 2.398 . S
O84 C82 1.185 . S
O85 Dy80 2.491 . S
O85 C82 1.355 . S
O86 Dy80 2.403 1_455 S
O86 C88 1.254 . S
O87 Dy80 2.664 1_455 S
O87 Dy83 2.310 . S
O87 C88 1.268 . S
C88 O86 1.254 . S
C88 O87 1.268 . S
C89 O94 1.254 . S
C89 O95 1.268 . S
O90 Dy83 2.351 . S
O90 C98 1.249 . S
O91 Dy80 2.326 1_455 S
O91 C98 1.267 . S
O92 C81 1.185 . S
O92 Dy83 2.398 . S
O93 C81 1.355 . S
O93 Dy83 2.491 . S
O94 Dy83 2.403 . S
O94 C89 1.254 . S
O95 Dy80 2.310 1_455 S
O95 Dy83 2.664 . S
O95 C89 1.268 . S
O96 Dy80 2.351 . S
O96 C99 1.249 1_655 S
O97 Dy83 2.326 . S
O97 C99 1.267 . S
C98 O90 1.249 . S
C98 O91 1.267 . S
C99 O96 1.249 1_455 S
C99 O97 1.267 . S
Dy100 O104 2.398 . S
Dy100 O105 2.491 . S
Dy100 O106 2.403 . S
Dy100 O107 2.664 . S
Dy100 O111 2.326 . S
Dy100 O115 2.310 . S
Dy100 O116 2.351 . S
C101 O112 1.185 . S
C101 O113 1.355 . S
C102 O104 1.185 . S
C102 O105 1.355 . S
Dy103 O107 2.310 . S
Dy103 O110 2.351 . S
Dy103 O112 2.398 . S
Dy103 O113 2.491 . S
Dy103 O114 2.403 . S
Dy103 O115 2.664 . S
Dy103 O117 2.326 . S
O104 Dy100 2.398 . S
O104 C102 1.185 . S
O105 Dy100 2.491 . S
O105 C102 1.355 . S
O106 Dy100 2.403 . S
O106 C108 1.254 . S
O107 Dy100 2.664 . S
O107 Dy103 2.310 . S
O107 C108 1.268 . S
C108 O106 1.254 . S
C108 O107 1.268 . S
C109 O114 1.254 . S
C109 O115 1.268 . S
O110 Dy103 2.351 . S
O110 C118 1.249 . S
O111 Dy100 2.326 . S
O111 C118 1.267 . S
O112 C101 1.185 . S
O112 Dy103 2.398 . S
O113 C101 1.355 . S
O113 Dy103 2.491 . S
O114 Dy103 2.403 . S
O114 C109 1.254 . S
O115 Dy100 2.310 . S
O115 Dy103 2.664 . S
O115 C109 1.268 . S
O116 Dy100 2.351 . S
O116 C119 1.249 . S
O117 Dy103 2.326 . S
O117 C119 1.267 . S
C118 O110 1.249 . S
C118 O111 1.267 . S
C119 O116 1.249 . S
C119 O117 1.267 . S
Dy120 O124 2.398 . S
Dy120 O125 2.491 . S
Dy120 O126 2.403 . S
Dy120 O127 2.664 . S
Dy120 O131 2.326 . S
Dy120 O135 2.310 . S
Dy120 O136 2.351 . S
C121 O132 1.185 . S
C121 O133 1.355 . S
C122 O124 1.185 . S
C122 O125 1.355 . S
Dy123 O127 2.310 . S
Dy123 O130 2.351 . S
Dy123 O132 2.398 . S
Dy123 O133 2.491 . S
Dy123 O134 2.403 . S
Dy123 O135 2.664 . S
Dy123 O137 2.326 . S
O124 Dy120 2.398 . S
O124 C122 1.185 . S
O125 Dy120 2.491 . S
O125 C122 1.355 . S
O126 Dy120 2.403 . S
O126 C128 1.254 . S
O127 Dy120 2.664 . S
O127 Dy123 2.310 . S
O127 C128 1.268 . S
C128 O126 1.254 . S
C128 O127 1.268 . S
C129 O134 1.254 . S
C129 O135 1.268 . S
O130 Dy123 2.351 . S
O130 C138 1.249 . S
O131 Dy120 2.326 . S
O131 C138 1.267 . S
O132 C121 1.185 . S
O132 Dy123 2.398 . S
O133 C121 1.355 . S
O133 Dy123 2.491 . S
O134 Dy123 2.403 . S
O134 C129 1.254 . S
O135 Dy120 2.310 . S
O135 Dy123 2.664 . S
O135 C129 1.268 . S
O136 Dy120 2.351 . S
O136 C139 1.249 . S
O137 Dy123 2.326 . S
O137 C139 1.267 . S
C138 O130 1.249 . S
C138 O131 1.267 . S
C139 O136 1.249 . S
C139 O137 1.267 . S
Dy140 O144 2.398 . S
Dy140 O145 2.491 . S
Dy140 O146 2.403 . S
Dy140 O147 2.664 . S
Dy140 O151 2.326 . S
Dy140 O155 2.310 . S
Dy140 O156 2.351 . S
C141 O152 1.185 . S
C141 O153 1.355 . S
C142 O144 1.185 . S
C142 O145 1.355 . S
Dy143 O147 2.310 1_554 S
Dy143 O150 2.351 1_554 S
Dy143 O152 2.398 . S
Dy143 O153 2.491 . S
Dy143 O154 2.403 . S
Dy143 O155 2.664 1_554 S
Dy143 O157 2.326 . S
O144 Dy140 2.398 . S
O144 C142 1.185 . S
O145 Dy140 2.491 . S
O145 C142 1.355 . S
O146 Dy140 2.403 . S
O146 C148 1.254 . S
O147 Dy140 2.664 . S
O147 Dy143 2.310 1_556 S
O147 C148 1.268 . S
C148 O146 1.254 . S
C148 O147 1.268 . S
C149 O154 1.254 . S
C149 O155 1.268 1_554 S
O150 Dy143 2.351 1_556 S
O150 C158 1.249 . S
O151 Dy140 2.326 . S
O151 C158 1.267 . S
O152 C141 1.185 . S
O152 Dy143 2.398 . S
O153 C141 1.355 . S
O153 Dy143 2.491 . S
O154 Dy143 2.403 . S
O154 C149 1.254 . S
O155 Dy140 2.310 . S
O155 Dy143 2.664 1_556 S
O155 C149 1.268 1_556 S
O156 Dy140 2.351 . S
O156 C159 1.249 1_556 S
O157 Dy143 2.326 . S
O157 C159 1.267 . S
C158 O150 1.249 . S
C158 O151 1.267 . S
C159 O156 1.249 1_554 S
C159 O157 1.267 . S
Dy160 O164 2.398 1_545 S
Dy160 O165 2.491 1_545 S
Dy160 O166 2.403 . S
Dy160 O167 2.664 . S
Dy160 O171 2.326 . S
Dy160 O175 2.310 . S
Dy160 O176 2.351 . S
C161 O172 1.185 . S
C161 O173 1.355 . S
C162 O164 1.185 . S
C162 O165 1.355 . S
Dy163 O167 2.310 . S
Dy163 O170 2.351 . S
Dy163 O172 2.398 . S
Dy163 O173 2.491 . S
Dy163 O174 2.403 . S
Dy163 O175 2.664 . S
Dy163 O177 2.326 . S
O164 Dy160 2.398 1_565 S
O164 C162 1.185 . S
O165 Dy160 2.491 1_565 S
O165 C162 1.355 . S
O166 Dy160 2.403 . S
O166 C168 1.254 . S
O167 Dy160 2.664 . S
O167 Dy163 2.310 . S
O167 C168 1.268 . S
C168 O166 1.254 . S
C168 O167 1.268 . S
C169 O174 1.254 . S
C169 O175 1.268 . S
O170 Dy163 2.351 . S
O170 C178 1.249 . S
O171 Dy160 2.326 . S
O171 C178 1.267 . S
O172 C161 1.185 . S
O172 Dy163 2.398 . S
O173 C161 1.355 . S
O173 Dy163 2.491 . S
O174 Dy163 2.403 . S
O174 C169 1.254 . S
O175 Dy160 2.310 . S
O175 Dy163 2.664 . S
O175 C169 1.268 . S
O176 Dy160 2.351 . S
O176 C179 1.249 . S
O177 Dy163 2.326 . S
O177 C179 1.267 . S
C178 O170 1.249 . S
C178 O171 1.267 . S
C179 O176 1.249 . S
C179 O177 1.267 . S
Dy180 O184 2.398 . S
Dy180 O185 2.491 . S
Dy180 O186 2.403 . S
Dy180 O187 2.664 . S
Dy180 O191 2.326 . S
Dy180 O195 2.310 . S
Dy180 O196 2.351 . S
C181 O192 1.185 . S
C181 O193 1.355 . S
C182 O184 1.196 . S
C182 O185 1.359 . S
Dy183 O187 2.310 . S
Dy183 O190 2.351 . S
Dy183 O192 2.398 . S
Dy183 O193 2.491 . S
Dy183 O194 2.403 . S
Dy183 O195 2.664 . S
Dy183 O197 2.326 . S
O184 Dy180 2.398 . S
O184 C182 1.196 . S
O185 Dy180 2.491 . S
O185 C182 1.359 . S
O186 Dy180 2.403 . S
O186 C188 1.254 . S
O187 Dy180 2.664 . S
O187 Dy183 2.310 . S
O187 C188 1.268 . S
C188 O186 1.254 . S
C188 O187 1.268 . S
C189 O194 1.254 . S
C189 O195 1.268 . S
O190 Dy183 2.351 . S
O190 C198 1.249 . S
O191 Dy180 2.326 . S
O191 C198 1.267 . S
O192 C181 1.185 . S
O192 Dy183 2.398 . S
O193 C181 1.355 . S
O193 Dy183 2.491 . S
O194 Dy183 2.403 . S
O194 C189 1.254 . S
O195 Dy180 2.310 . S
O195 Dy183 2.664 . S
O195 C189 1.268 . S
O196 Dy180 2.351 . S
O196 C199 1.249 . S
O197 Dy183 2.326 . S
O197 C199 1.267 . S
C198 O190 1.249 . S
C198 O191 1.267 . S
C199 O196 1.249 . S
C199 O197 1.267 . S
Dy200 O204 2.398 . S
Dy200 O205 2.491 . S
Dy200 O206 2.403 . S
Dy200 O207 2.664 . S
Dy200 O211 2.326 . S
Dy200 O215 2.310 . S
Dy200 O216 2.355 1_565 S
C201 O212 1.185 . S
C201 O213 1.355 . S
C202 O204 1.185 . S
C202 O205 1.355 . S
Dy203 O207 2.310 1_545 S
Dy203 O210 2.351 1_545 S
Dy203 O212 2.398 . S
Dy203 O213 2.491 . S
Dy203 O214 2.403 . S
Dy203 O215 2.664 1_545 S
Dy203 O217 2.326 . S
O204 Dy200 2.398 . S
O204 C202 1.185 . S
O205 Dy200 2.491 . S
O205 C202 1.355 . S
O206 Dy200 2.403 . S
O206 C208 1.254 . S
O207 Dy200 2.664 . S
O207 Dy203 2.310 1_565 S
O207 C208 1.268 . S
C208 O206 1.254 . S
C208 O207 1.268 . S
C209 O214 1.254 . S
C209 O215 1.268 1_545 S
O210 Dy203 2.351 1_565 S
O210 C218 1.249 . S
O211 Dy200 2.326 . S
O211 C218 1.267 . S
O212 C201 1.185 . S
O212 Dy203 2.398 . S
O213 C201 1.355 . S
O213 Dy203 2.491 . S
O214 Dy203 2.403 . S
O214 C209 1.254 . S
O215 Dy200 2.310 . S
O215 Dy203 2.664 1_565 S
O215 C209 1.268 1_565 S
O216 Dy200 2.355 1_545 S
O216 C219 1.246 . S
O217 Dy203 2.326 . S
O217 C219 1.267 . S
C218 O210 1.249 . S
C218 O211 1.267 . S
C219 O216 1.246 . S
C219 O217 1.267 . S
Dy220 O224 2.398 . S
Dy220 O225 2.491 . S
Dy220 O226 2.403 . S
Dy220 O227 2.664 . S
Dy220 O231 2.326 . S
Dy220 O235 2.310 . S
Dy220 O236 2.351 . S
C221 O232 1.185 . S
C221 O233 1.355 . S
C222 O224 1.185 . S
C222 O225 1.355 . S
Dy223 O227 2.310 . S
Dy223 O230 2.351 . S
Dy223 O232 2.398 1_565 S
Dy223 O233 2.491 1_565 S
Dy223 O234 2.403 1_565 S
Dy223 O235 2.664 . S
Dy223 O237 2.326 1_565 S
O224 Dy220 2.398 . S
O224 C222 1.185 . S
O225 Dy220 2.491 . S
O225 C222 1.355 . S
O226 Dy220 2.403 . S
O226 C228 1.254 . S
O227 Dy220 2.664 . S
O227 Dy223 2.310 . S
O227 C228 1.268 . S
C228 O226 1.254 . S
C228 O227 1.268 . S
C229 O234 1.254 1_565 S
C229 O235 1.268 . S
O230 Dy223 2.351 . S
O230 C238 1.249 . S
O231 Dy220 2.326 . S
O231 C238 1.267 . S
O232 C221 1.185 . S
O232 Dy223 2.398 1_545 S
O233 C221 1.355 . S
O233 Dy223 2.491 1_545 S
O234 Dy223 2.403 1_545 S
O234 C229 1.254 1_545 S
O235 Dy220 2.310 . S
O235 Dy223 2.664 . S
O235 C229 1.268 . S
O236 Dy220 2.351 . S
O236 C239 1.246 . S
O237 Dy223 2.326 1_545 S
O237 C239 1.268 1_545 S
C238 O230 1.249 . S
C238 O231 1.267 . S
C239 O236 1.246 . S
C239 O237 1.268 1_565 S
Dy240 O244 2.398 . S
Dy240 O245 2.491 . S
Dy240 O246 2.403 . S
Dy240 O247 2.664 . S
Dy240 O251 2.326 . S
Dy240 O255 2.310 . S
Dy240 O256 2.351 . S
C241 O252 1.185 . S
C241 O253 1.355 1_556 S
C242 O244 1.185 . S
C242 O245 1.355 . S
Dy243 O247 2.310 . S
Dy243 O250 2.351 . S
Dy243 O252 2.398 1_554 S
Dy243 O253 2.491 . S
Dy243 O254 2.403 . S
Dy243 O255 2.664 . S
Dy243 O257 2.326 . S
O244 Dy240 2.398 . S
O244 C242 1.185 . S
O245 Dy240 2.491 . S
O245 C242 1.355 . S
O246 Dy240 2.403 . S
O246 C248 1.254 . S
O247 Dy240 2.664 . S
O247 Dy243 2.310 . S
O247 C248 1.268 . S
C248 O246 1.254 . S
C248 O247 1.268 . S
C249 O254 1.254 . S
C249 O255 1.268 . S
O250 Dy243 2.351 . S
O250 C258 1.249 . S
O251 Dy240 2.326 . S
O251 C258 1.267 . S
O252 C241 1.185 . S
O252 Dy243 2.398 1_556 S
O253 C241 1.355 1_554 S
O253 Dy243 2.491 . S
O254 Dy243 2.403 . S
O254 C249 1.254 . S
O255 Dy240 2.310 . S
O255 Dy243 2.664 . S
O255 C249 1.268 . S
O256 Dy240 2.351 . S
O256 C259 1.249 . S
O257 Dy243 2.326 . S
O257 C259 1.267 . S
C258 O250 1.249 . S
C258 O251 1.267 . S
C259 O256 1.249 . S
C259 O257 1.267 . S
Dy260 O264 2.398 . S
Dy260 O265 2.491 . S
Dy260 O266 2.403 1_455 S
Dy260 O267 2.664 1_455 S
Dy260 O271 2.326 1_455 S
Dy260 O275 2.310 1_455 S
Dy260 O276 2.351 . S
C261 O272 1.185 . S
C261 O273 1.355 . S
C262 O264 1.185 . S
C262 O265 1.355 . S
Dy263 O267 2.310 . S
Dy263 O270 2.351 . S
Dy263 O272 2.398 . S
Dy263 O273 2.491 . S
Dy263 O274 2.403 . S
Dy263 O275 2.664 . S
Dy263 O277 2.326 . S
O264 Dy260 2.398 . S
O264 C262 1.185 . S
O265 Dy260 2.491 . S
O265 C262 1.355 . S
O266 Dy260 2.403 1_655 S
O266 C268 1.254 . S
O267 Dy260 2.664 1_655 S
O267 Dy263 2.310 . S
O267 C268 1.268 . S
C268 O266 1.254 . S
C268 O267 1.268 . S
C269 O274 1.254 . S
C269 O275 1.268 . S
O270 Dy263 2.351 . S
O270 C278 1.249 . S
O271 Dy260 2.326 1_655 S
O271 C278 1.267 . S
O272 C261 1.185 . S
O272 Dy263 2.398 . S
O273 C261 1.355 . S
O273 Dy263 2.491 . S
O274 Dy263 2.403 . S
O274 C269 1.254 . S
O275 Dy260 2.310 1_655 S
O275 Dy263 2.664 . S
O275 C269 1.268 . S
O276 Dy260 2.351 . S
O276 C279 1.249 1_455 S
O277 Dy263 2.326 . S
O277 C279 1.267 . S
C278 O270 1.249 . S
C278 O271 1.267 . S
C279 O276 1.249 1_655 S
C279 O277 1.267 . S
Dy280 O284 2.398 . S
Dy280 O285 2.491 . S
Dy280 O286 2.403 . S
Dy280 O287 2.664 . S
Dy280 O291 2.326 . S
Dy280 O295 2.310 . S
Dy280 O296 2.351 . S
C281 O292 1.185 . S
C281 O293 1.355 . S
C282 O284 1.185 . S
C282 O285 1.355 . S
Dy283 O287 2.310 . S
Dy283 O290 2.351 . S
Dy283 O292 2.398 . S
Dy283 O293 2.491 . S
Dy283 O294 2.403 . S
Dy283 O295 2.664 . S
Dy283 O297 2.326 . S
O284 Dy280 2.398 . S
O284 C282 1.185 . S
O285 Dy280 2.491 . S
O285 C282 1.355 . S
O286 Dy280 2.403 . S
O286 C288 1.254 . S
O287 Dy280 2.664 . S
O287 Dy283 2.310 . S
O287 C288 1.268 . S
C288 O286 1.254 . S
C288 O287 1.268 . S
C289 O294 1.254 . S
C289 O295 1.268 . S
O290 Dy283 2.351 . S
O290 C298 1.249 . S
O291 Dy280 2.326 . S
O291 C298 1.267 . S
O292 C281 1.185 . S
O292 Dy283 2.398 . S
O293 C281 1.355 . S
O293 Dy283 2.491 . S
O294 Dy283 2.403 . S
O294 C289 1.254 . S
O295 Dy280 2.310 . S
O295 Dy283 2.664 . S
O295 C289 1.268 . S
O296 Dy280 2.351 . S
O296 C299 1.249 . S
O297 Dy283 2.326 . S
O297 C299 1.267 . S
C298 O290 1.249 . S
C298 O291 1.267 . S
C299 O296 1.249 . S
C299 O297 1.267 . S
Dy300 O304 2.398 . S
Dy300 O305 2.491 . S
Dy300 O306 2.403 . S
Dy300 O307 2.664 . S
Dy300 O311 2.326 . S
Dy300 O315 2.310 . S
Dy300 O316 2.351 . S
C301 O312 1.185 . S
C301 O313 1.355 . S
C302 O304 1.185 . S
C302 O305 1.355 . S
Dy303 O307 2.310 . S
Dy303 O310 2.351 . S
Dy303 O312 2.398 1_655 S
Dy303 O313 2.491 1_655 S
Dy303 O314 2.403 1_655 S
Dy303 O315 2.664 . S
Dy303 O317 2.326 1_655 S
O304 Dy300 2.398 . S
O304 C302 1.185 . S
O305 Dy300 2.491 . S
O305 C302 1.355 . S
O306 Dy300 2.403 . S
O306 C308 1.254 . S
O307 Dy300 2.664 . S
O307 Dy303 2.310 . S
O307 C308 1.268 . S
C308 O306 1.254 . S
C308 O307 1.268 . S
C309 O314 1.243 1_655 S
C309 O315 1.285 . S
O310 Dy303 2.351 . S
O310 C318 1.249 . S
O311 Dy300 2.326 . S
O311 C318 1.267 . S
O312 C301 1.185 . S
O312 Dy303 2.398 1_455 S
O313 C301 1.355 . S
O313 Dy303 2.491 1_455 S
O314 Dy303 2.403 1_455 S
O314 C309 1.243 1_455 S
O315 Dy300 2.310 . S
O315 Dy303 2.664 . S
O315 C309 1.285 . S
O316 Dy300 2.351 . S
O316 C319 1.249 1_655 S
O317 Dy303 2.326 1_455 S
O317 C319 1.267 . S
C318 O310 1.249 . S
C318 O311 1.267 . S
C319 O316 1.249 1_455 S
C319 O317 1.267 . S
Dy320 O324 2.398 . S
Dy320 O325 2.491 . S
Dy320 O326 2.403 . S
Dy320 O327 2.664 . S
Dy320 O331 2.326 . S
Dy320 O335 2.310 . S
Dy320 O336 2.351 . S
C321 O332 1.185 . S
C321 O333 1.355 . S
C322 O324 1.185 . S
C322 O325 1.355 . S
Dy323 O327 2.310 . S
Dy323 O330 2.351 . S
Dy323 O332 2.398 . S
Dy323 O333 2.491 . S
Dy323 O334 2.403 . S
Dy323 O335 2.664 . S
Dy323 O337 2.326 . S
O324 Dy320 2.398 . S
O324 C322 1.185 . S
O325 Dy320 2.491 . S
O325 C322 1.355 . S
O326 Dy320 2.403 . S
O326 C328 1.254 . S
O327 Dy320 2.664 . S
O327 Dy323 2.310 . S
O327 C328 1.268 . S
C328 O326 1.254 . S
C328 O327 1.268 . S
C329 O334 1.254 . S
C329 O335 1.268 . S
O330 Dy323 2.351 . S
O330 C338 1.249 . S
O331 Dy320 2.326 . S
O331 C338 1.267 . S
O332 C321 1.185 . S
O332 Dy323 2.398 . S
O333 C321 1.355 . S
O333 Dy323 2.491 . S
O334 Dy323 2.403 . S
O334 C329 1.254 . S
O335 Dy320 2.310 . S
O335 Dy323 2.664 . S
O335 C329 1.268 . S
O336 Dy320 2.351 . S
O336 C339 1.249 . S
O337 Dy323 2.326 . S
O337 C339 1.267 . S
C338 O330 1.249 . S
C338 O331 1.267 . S
C339 O336 1.249 . S
C339 O337 1.267 . S
Dy340 O344 2.398 . S
Dy340 O345 2.491 . S
Dy340 O346 2.403 . S
Dy340 O347 2.664 . S
Dy340 O351 2.326 . S
Dy340 O355 2.310 . S
Dy340 O356 2.351 . S
C341 O352 1.185 . S
C341 O353 1.355 . S
C342 O344 1.185 . S
C342 O345 1.355 . S
Dy343 O347 2.310 . S
Dy343 O350 2.351 . S
Dy343 O352 2.398 . S
Dy343 O353 2.491 . S
Dy343 O354 2.403 . S
Dy343 O355 2.664 . S
Dy343 O357 2.326 . S
O344 Dy340 2.398 . S
O344 C342 1.185 . S
O345 Dy340 2.491 . S
O345 C342 1.355 . S
O346 Dy340 2.403 . S
O346 C348 1.254 . S
O347 Dy340 2.664 . S
O347 Dy343 2.310 . S
O347 C348 1.268 . S
C348 O346 1.254 . S
C348 O347 1.268 . S
C349 O354 1.254 . S
C349 O355 1.268 . S
O350 Dy343 2.351 . S
O350 C358 1.249 . S
O351 Dy340 2.326 . S
O351 C358 1.267 . S
O352 C341 1.185 . S
O352 Dy343 2.398 . S
O353 C341 1.355 . S
O353 Dy343 2.491 . S
O354 Dy343 2.403 . S
O354 C349 1.254 . S
O355 Dy340 2.310 . S
O355 Dy343 2.664 . S
O355 C349 1.268 . S
O356 Dy340 2.351 . S
O356 C359 1.249 . S
O357 Dy343 2.326 . S
O357 C359 1.267 . S
C358 O350 1.249 . S
C358 O351 1.267 . S
C359 O356 1.249 . S
C359 O357 1.267 . S
Dy360 O364 2.398 . S
Dy360 O365 2.491 . S
Dy360 O366 2.403 . S
Dy360 O367 2.664 . S
Dy360 O371 2.326 . S
Dy360 O375 2.310 . S
Dy360 O376 2.351 . S
C361 O372 1.185 . S
C361 O373 1.355 . S
C362 O364 1.185 . S
C362 O365 1.355 . S
Dy363 O367 2.310 . S
Dy363 O370 2.351 . S
Dy363 O372 2.398 . S
Dy363 O373 2.491 . S
Dy363 O374 2.403 . S
Dy363 O375 2.664 . S
Dy363 O377 2.326 . S
O364 Dy360 2.398 . S
O364 C362 1.185 . S
O365 Dy360 2.491 . S
O365 C362 1.355 . S
O366 Dy360 2.403 . S
O366 C368 1.254 . S
O367 Dy360 2.664 . S
O367 Dy363 2.310 . S
O367 C368 1.268 . S
C368 O366 1.254 . S
C368 O367 1.268 . S
C369 O374 1.254 . S
C369 O375 1.268 . S
O370 Dy363 2.351 . S
O370 C378 1.249 . S
O371 Dy360 2.326 . S
O371 C378 1.267 . S
O372 C361 1.185 . S
O372 Dy363 2.398 . S
O373 C361 1.355 . S
O373 Dy363 2.491 . S
O374 Dy363 2.403 . S
O374 C369 1.254 . S
O375 Dy360 2.310 . S
O375 Dy363 2.664 . S
O375 C369 1.268 . S
O376 Dy360 2.351 . S
O376 C379 1.249 . S
O377 Dy363 2.326 . S
O377 C379 1.267 . S
C378 O370 1.249 . S
C378 O371 1.267 . S
C379 O376 1.249 . S
C379 O377 1.267 . S
Dy380 O384 2.398 . S
Dy380 O385 2.491 . S
Dy380 O386 2.403 . S
Dy380 O387 2.664 . S
Dy380 O391 2.326 . S
Dy380 O395 2.310 . S
Dy380 O396 2.351 . S
C381 O392 1.185 . S
C381 O393 1.355 . S
C382 O384 1.185 . S
C382 O385 1.355 . S
Dy383 O387 2.310 1_455 S
Dy383 O390 2.351 . S
Dy383 O392 2.398 . S
Dy383 O393 2.491 . S
Dy383 O394 2.403 1_455 S
Dy383 O395 2.664 1_455 S
Dy383 O397 2.326 1_455 S
O384 Dy380 2.398 . S
O384 C382 1.185 . S
O385 Dy380 2.491 . S
O385 C382 1.355 . S
O386 Dy380 2.403 . S
O386 C388 1.254 . S
O387 Dy380 2.664 . S
O387 Dy383 2.310 1_655 S
O387 C388 1.268 . S
C388 O386 1.254 . S
C388 O387 1.268 . S
C389 O394 1.254 . S
C389 O395 1.268 . S
O390 Dy383 2.351 . S
O390 C398 1.249 1_455 S
O391 Dy380 2.326 . S
O391 C398 1.267 . S
O392 C381 1.185 . S
O392 Dy383 2.398 . S
O393 C381 1.355 . S
O393 Dy383 2.491 . S
O394 Dy383 2.403 1_655 S
O394 C389 1.254 . S
O395 Dy380 2.310 . S
O395 Dy383 2.664 1_655 S
O395 C389 1.268 . S
O396 Dy380 2.351 . S
O396 C399 1.249 . S
O397 Dy383 2.326 1_655 S
O397 C399 1.267 . S
C398 O390 1.249 1_655 S
C398 O391 1.267 . S
C399 O396 1.249 . S
C399 O397 1.267 . S
Dy400 O404 2.398 . S
Dy400 O405 2.491 . S
Dy400 O406 2.403 . S
Dy400 O407 2.664 . S
Dy400 O411 2.326 . S
Dy400 O415 2.310 . S
Dy400 O416 2.351 . S
C401 O412 1.185 . S
C401 O413 1.355 . S
C402 O404 1.185 . S
C402 O405 1.355 . S
Dy403 O407 2.310 . S
Dy403 O410 2.351 . S
Dy403 O412 2.398 . S
Dy403 O413 2.491 . S
Dy403 O414 2.403 . S
Dy403 O415 2.664 . S
Dy403 O417 2.326 . S
O404 Dy400 2.398 . S
O404 C402 1.185 . S
O405 Dy400 2.491 . S
O405 C402 1.355 . S
O406 Dy400 2.403 . S
O406 C408 1.254 . S
O407 Dy400 2.664 . S
O407 Dy403 2.310 . S
O407 C408 1.268 . S
C408 O406 1.254 . S
C408 O407 1.268 . S
C409 O414 1.254 . S
C409 O415 1.268 . S
O410 Dy403 2.351 . S
O410 C418 1.249 . S
O411 Dy400 2.326 . S
O411 C418 1.267 . S
O412 C401 1.185 . S
O412 Dy403 2.398 . S
O413 C401 1.355 . S
O413 Dy403 2.491 . S
O414 Dy403 2.403 . S
O414 C409 1.254 . S
O415 Dy400 2.310 . S
O415 Dy403 2.664 . S
O415 C409 1.268 . S
O416 Dy400 2.351 . S
O416 C419 1.249 . S
O417 Dy403 2.326 . S
O417 C419 1.267 . S
C418 O410 1.249 . S
C418 O411 1.267 . S
C419 O416 1.249 . S
C419 O417 1.267 . S
Dy420 O424 2.398 . S
Dy420 O425 2.491 . S
Dy420 O426 2.403 . S
Dy420 O427 2.664 . S
Dy420 O431 2.326 . S
Dy420 O435 2.310 . S
Dy420 O436 2.351 . S
C421 O432 1.185 . S
C421 O433 1.355 . S
C422 O424 1.185 . S
C422 O425 1.355 . S
Dy423 O427 2.310 . S
Dy423 O430 2.351 . S
Dy423 O432 2.398 . S
Dy423 O433 2.491 . S
Dy423 O434 2.403 . S
Dy423 O435 2.664 . S
Dy423 O437 2.326 . S
O424 Dy420 2.398 . S
O424 C422 1.185 . S
O425 Dy420 2.491 . S
O425 C422 1.355 . S
O426 Dy420 2.403 . S
O426 C428 1.254 . S
O427 Dy420 2.664 . S
O427 Dy423 2.310 . S
O427 C428 1.268 . S
C428 O426 1.254 . S
C428 O427 1.268 . S
C429 O434 1.254 . S
C429 O435 1.268 . S
O430 Dy423 2.351 . S
O430 C438 1.249 . S
O431 Dy420 2.326 . S
O431 C438 1.267 . S
O432 C421 1.185 . S
O432 Dy423 2.398 . S
O433 C421 1.355 . S
O433 Dy423 2.491 . S
O434 Dy423 2.403 . S
O434 C429 1.254 . S
O435 Dy420 2.310 . S
O435 Dy423 2.664 . S
O435 C429 1.268 . S
O436 Dy420 2.351 . S
O436 C439 1.249 . S
O437 Dy423 2.326 . S
O437 C439 1.267 . S
C438 O430 1.249 . S
C438 O431 1.267 . S
C439 O436 1.249 . S
C439 O437 1.267 . S
Dy440 O444 2.398 . S
Dy440 O445 2.491 . S
Dy440 O446 2.403 . S
Dy440 O447 2.664 1_556 S
Dy440 O451 2.326 . S
Dy440 O455 2.310 1_556 S
Dy440 O456 2.351 1_556 S
C441 O452 1.185 . S
C441 O453 1.355 . S
C442 O444 1.185 . S
C442 O445 1.355 . S
Dy443 O447 2.310 . S
Dy443 O450 2.351 . S
Dy443 O452 2.398 . S
Dy443 O453 2.491 . S
Dy443 O454 2.403 . S
Dy443 O455 2.664 . S
Dy443 O457 2.326 . S
O444 Dy440 2.398 . S
O444 C442 1.185 . S
O445 Dy440 2.491 . S
O445 C442 1.355 . S
O446 Dy440 2.403 . S
O446 C448 1.254 . S
O447 Dy440 2.664 1_554 S
O447 Dy443 2.310 . S
O447 C448 1.268 1_554 S
C448 O446 1.254 . S
C448 O447 1.268 1_556 S
C449 O454 1.254 . S
C449 O455 1.268 . S
O450 Dy443 2.351 . S
O450 C458 1.249 1_554 S
O451 Dy440 2.326 . S
O451 C458 1.267 . S
O452 C441 1.185 . S
O452 Dy443 2.398 . S
O453 C441 1.355 . S
O453 Dy443 2.491 . S
O454 Dy443 2.403 . S
O454 C449 1.254 . S
O455 Dy440 2.310 1_554 S
O455 Dy443 2.664 . S
O455 C449 1.268 . S
O456 Dy440 2.351 1_554 S
O456 C459 1.249 . S
O457 Dy443 2.326 . S
O457 C459 1.267 . S
C458 O450 1.249 1_556 S
C458 O451 1.267 . S
C459 O456 1.249 . S
C459 O457 1.267 . S
Dy460 O464 2.398 . S
Dy460 O465 2.491 . S
Dy460 O466 2.403 . S
Dy460 O467 2.664 . S
Dy460 O471 2.326 . S
Dy460 O475 2.310 . S
Dy460 O476 2.351 . S
C461 O472 1.185 . S
C461 O473 1.355 . S
C462 O464 1.185 . S
C462 O465 1.355 . S
Dy463 O467 2.310 . S
Dy463 O470 2.351 . S
Dy463 O472 2.398 1_565 S
Dy463 O473 2.491 1_565 S
Dy463 O474 2.403 . S
Dy463 O475 2.664 . S
Dy463 O477 2.326 . S
O464 Dy460 2.398 . S
O464 C462 1.185 . S
O465 Dy460 2.491 . S
O465 C462 1.355 . S
O466 Dy460 2.403 . S
O466 C468 1.254 . S
O467 Dy460 2.664 . S
O467 Dy463 2.310 . S
O467 C468 1.268 . S
C468 O466 1.254 . S
C468 O467 1.268 . S
C469 O474 1.254 . S
C469 O475 1.268 . S
O470 Dy463 2.351 . S
O470 C478 1.249 . S
O471 Dy460 2.326 . S
O471 C478 1.267 . S
O472 C461 1.185 . S
O472 Dy463 2.398 1_545 S
O473 C461 1.355 . S
O473 Dy463 2.491 1_545 S
O474 Dy463 2.403 . S
O474 C469 1.254 . S
O475 Dy460 2.310 . S
O475 Dy463 2.664 . S
O475 C469 1.268 . S
O476 Dy460 2.351 . S
O476 C479 1.249 . S
O477 Dy463 2.326 . S
O477 C479 1.267 . S
C478 O470 1.249 . S
C478 O471 1.267 . S
C479 O476 1.249 . S
C479 O477 1.267 . S
Dy480 O484 2.398 . S
Dy480 O485 2.491 . S
Dy480 O486 2.403 . S
Dy480 O487 2.664 . S
Dy480 O491 2.326 . S
Dy480 O495 2.310 . S
Dy480 O496 2.351 . S
C481 O492 1.196 . S
C481 O493 1.359 . S
C482 O484 1.185 . S
C482 O485 1.355 . S
Dy483 O487 2.310 . S
Dy483 O490 2.351 . S
Dy483 O492 2.398 . S
Dy483 O493 2.491 . S
Dy483 O494 2.403 . S
Dy483 O495 2.664 . S
Dy483 O497 2.326 . S
O484 Dy480 2.398 . S
O484 C482 1.185 . S
O485 Dy480 2.491 . S
O485 C482 1.355 . S
O486 Dy480 2.403 . S
O486 C488 1.254 . S
O487 Dy480 2.664 . S
O487 Dy483 2.310 . S
O487 C488 1.268 . S
C488 O486 1.254 . S
C488 O487 1.268 . S
C489 O494 1.254 . S
C489 O495 1.268 . S
O490 Dy483 2.351 . S
O490 C498 1.249 . S
O491 Dy480 2.326 . S
O491 C498 1.267 . S
O492 C481 1.196 . S
O492 Dy483 2.398 . S
O493 C481 1.359 . S
O493 Dy483 2.491 . S
O494 Dy483 2.403 . S
O494 C489 1.254 . S
O495 Dy480 2.310 . S
O495 Dy483 2.664 . S
O495 C489 1.268 . S
O496 Dy480 2.351 . S
O496 C499 1.249 . S
O497 Dy483 2.326 . S
O497 C499 1.267 . S
C498 O490 1.249 . S
C498 O491 1.267 . S
C499 O496 1.249 . S
C499 O497 1.267 . S
Dy500 O504 2.398 . S
Dy500 O505 2.491 . S
Dy500 O506 2.403 . S
Dy500 O507 2.664 1_565 S
Dy500 O511 2.326 . S
Dy500 O515 2.310 1_565 S
Dy500 O516 2.351 1_565 S
C501 O512 1.185 . S
C501 O513 1.355 . S
C502 O504 1.185 . S
C502 O505 1.355 . S
Dy503 O507 2.310 . S
Dy503 O510 2.355 1_545 S
Dy503 O512 2.398 . S
Dy503 O513 2.491 . S
Dy503 O514 2.403 . S
Dy503 O515 2.664 . S
Dy503 O517 2.326 . S
O504 Dy500 2.398 . S
O504 C502 1.185 . S
O505 Dy500 2.491 . S
O505 C502 1.355 . S
O506 Dy500 2.403 . S
O506 C508 1.254 . S
O507 Dy500 2.664 1_545 S
O507 Dy503 2.310 . S
O507 C508 1.268 1_545 S
C508 O506 1.254 . S
C508 O507 1.268 1_565 S
C509 O514 1.254 . S
C509 O515 1.268 . S
O510 Dy503 2.355 1_565 S
O510 C518 1.246 . S
O511 Dy500 2.326 . S
O511 C518 1.267 . S
O512 C501 1.185 . S
O512 Dy503 2.398 . S
O513 C501 1.355 . S
O513 Dy503 2.491 . S
O514 Dy503 2.403 . S
O514 C509 1.254 . S
O515 Dy500 2.310 1_545 S
O515 Dy503 2.664 . S
O515 C509 1.268 . S
O516 Dy500 2.351 1_545 S
O516 C519 1.249 . S
O517 Dy503 2.326 . S
O517 C519 1.267 . S
C518 O510 1.246 . S
C518 O511 1.267 . S
C519 O516 1.249 . S
C519 O517 1.267 . S
Dy520 O524 2.398 1_545 S
Dy520 O525 2.491 1_545 S
Dy520 O526 2.403 1_545 S
Dy520 O527 2.664 . S
Dy520 O531 2.326 1_545 S
Dy520 O535 2.310 . S
Dy520 O536 2.351 . S
C521 O532 1.185 . S
C521 O533 1.355 . S
C522 O524 1.185 . S
C522 O525 1.355 . S
Dy523 O527 2.310 . S
Dy523 O530 2.351 . S
Dy523 O532 2.398 . S
Dy523 O533 2.491 . S
Dy523 O534 2.403 . S
Dy523 O535 2.664 . S
Dy523 O537 2.326 . S
O524 Dy520 2.398 1_565 S
O524 C522 1.185 . S
O525 Dy520 2.491 1_565 S
O525 C522 1.355 . S
O526 Dy520 2.403 1_565 S
O526 C528 1.254 1_565 S
O527 Dy520 2.664 . S
O527 Dy523 2.310 . S
O527 C528 1.268 . S
C528 O526 1.254 1_545 S
C528 O527 1.268 . S
C529 O534 1.254 . S
C529 O535 1.268 . S
O530 Dy523 2.351 . S
O530 C538 1.246 . S
O531 Dy520 2.326 1_565 S
O531 C538 1.268 1_565 S
O532 C521 1.185 . S
O532 Dy523 2.398 . S
O533 C521 1.355 . S
O533 Dy523 2.491 . S
O534 Dy523 2.403 . S
O534 C529 1.254 . S
O535 Dy520 2.310 . S
O535 Dy523 2.664 . S
O535 C529 1.268 . S
O536 Dy520 2.351 . S
O536 C539 1.249 . S
O537 Dy523 2.326 . S
O537 C539 1.267 . S
C538 O530 1.246 . S
C538 O531 1.268 1_545 S
C539 O536 1.249 . S
C539 O537 1.267 . S
Dy540 O544 2.398 1_556 S
Dy540 O545 2.491 . S
Dy540 O546 2.403 . S
Dy540 O547 2.664 . S
Dy540 O551 2.326 . S
Dy540 O555 2.310 . S
Dy540 O556 2.351 . S
C541 O552 1.185 . S
C541 O553 1.355 . S
C542 O544 1.185 . S
C542 O545 1.355 1_554 S
Dy543 O547 2.310 . S
Dy543 O550 2.351 . S
Dy543 O552 2.398 . S
Dy543 O553 2.491 . S
Dy543 O554 2.403 . S
Dy543 O555 2.664 . S
Dy543 O557 2.326 . S
O544 Dy540 2.398 1_554 S
O544 C542 1.185 . S
O545 Dy540 2.491 . S
O545 C542 1.355 1_556 S
O546 Dy540 2.403 . S
O546 C548 1.254 . S
O547 Dy540 2.664 . S
O547 Dy543 2.310 . S
O547 C548 1.268 . S
C548 O546 1.254 . S
C548 O547 1.268 . S
C549 O554 1.254 . S
C549 O555 1.268 . S
O550 Dy543 2.351 . S
O550 C558 1.249 . S
O551 Dy540 2.326 . S
O551 C558 1.267 . S
O552 C541 1.185 . S
O552 Dy543 2.398 . S
O553 C541 1.355 . S
O553 Dy543 2.491 . S
O554 Dy543 2.403 . S
O554 C549 1.254 . S
O555 Dy540 2.310 . S
O555 Dy543 2.664 . S
O555 C549 1.268 . S
O556 Dy540 2.351 . S
O556 C559 1.249 . S
O557 Dy543 2.326 . S
O557 C559 1.267 . S
C558 O550 1.249 . S
C558 O551 1.267 . S
C559 O556 1.249 . S
C559 O557 1.267 . S
Dy560 O564 2.398 . S
Dy560 O565 2.491 . S
Dy560 O566 2.403 . S
Dy560 O567 2.664 . S
Dy560 O571 2.326 . S
Dy560 O575 2.310 . S
Dy560 O576 2.351 . S
C561 O572 1.185 . S
C561 O573 1.355 . S
C562 O564 1.185 . S
C562 O565 1.355 . S
Dy563 O567 2.310 1_655 S
Dy563 O570 2.351 . S
Dy563 O572 2.398 . S
Dy563 O573 2.491 . S
Dy563 O574 2.403 1_655 S
Dy563 O575 2.664 1_655 S
Dy563 O577 2.326 1_655 S
O564 Dy560 2.398 . S
O564 C562 1.185 . S
O565 Dy560 2.491 . S
O565 C562 1.355 . S
O566 Dy560 2.403 . S
O566 C568 1.254 . S
O567 Dy560 2.664 . S
O567 Dy563 2.310 1_455 S
O567 C568 1.268 . S
C568 O566 1.254 . S
C568 O567 1.268 . S
C569 O574 1.254 . S
C569 O575 1.268 . S
O570 Dy563 2.351 . S
O570 C578 1.249 1_655 S
O571 Dy560 2.326 . S
O571 C578 1.267 . S
O572 C561 1.185 . S
O572 Dy563 2.398 . S
O573 C561 1.355 . S
O573 Dy563 2.491 . S
O574 Dy563 2.403 1_455 S
O574 C569 1.254 . S
O575 Dy560 2.310 . S
O575 Dy563 2.664 1_455 S
O575 C569 1.268 . S
O576 Dy560 2.351 . S
O576 C579 1.249 . S
O577 Dy563 2.326 1_455 S
O577 C579 1.267 . S
C578 O570 1.249 1_455 S
C578 O571 1.267 . S
C579 O576 1.249 . S
C579 O577 1.267 . S
Dy580 O584 2.398 . S
Dy580 O585 2.491 . S
Dy580 O586 2.403 . S
Dy580 O587 2.664 . S
Dy580 O591 2.326 . S
Dy580 O595 2.310 . S
Dy580 O596 2.351 . S
C581 O592 1.185 . S
C581 O593 1.355 . S
C582 O584 1.185 . S
C582 O585 1.355 . S
Dy583 O587 2.310 . S
Dy583 O590 2.351 . S
Dy583 O592 2.398 . S
Dy583 O593 2.491 . S
Dy583 O594 2.403 . S
Dy583 O595 2.664 . S
Dy583 O597 2.326 . S
O584 Dy580 2.398 . S
O584 C582 1.185 . S
O585 Dy580 2.491 . S
O585 C582 1.355 . S
O586 Dy580 2.403 . S
O586 C588 1.254 . S
O587 Dy580 2.664 . S
O587 Dy583 2.310 . S
O587 C588 1.268 . S
C588 O586 1.254 . S
C588 O587 1.268 . S
C589 O594 1.254 . S
C589 O595 1.268 . S
O590 Dy583 2.351 . S
O590 C598 1.249 . S
O591 Dy580 2.326 . S
O591 C598 1.267 . S
O592 C581 1.185 . S
O592 Dy583 2.398 . S
O593 C581 1.355 . S
O593 Dy583 2.491 . S
O594 Dy583 2.403 . S
O594 C589 1.254 . S
O595 Dy580 2.310 . S
O595 Dy583 2.664 . S
O595 C589 1.268 . S
O596 Dy580 2.351 . S
O596 C599 1.249 . S
O597 Dy583 2.326 . S
O597 C599 1.267 . S
C598 O590 1.249 . S
C598 O591 1.267 . S
C599 O596 1.249 . S
C599 O597 1.267 . S
Dy600 O604 2.398 . S
Dy600 O605 2.491 . S
Dy600 O606 2.403 . S
Dy600 O607 2.664 . S
Dy600 O611 2.326 . S
Dy600 O615 2.310 . S
Dy600 O616 2.351 . S
C601 O612 1.185 . S
C601 O613 1.355 . S
C602 O604 1.185 . S
C602 O605 1.355 . S
Dy603 O607 2.310 . S
Dy603 O610 2.351 . S
Dy603 O612 2.398 . S
Dy603 O613 2.491 . S
Dy603 O614 2.403 . S
Dy603 O615 2.664 . S
Dy603 O617 2.326 . S
O604 Dy600 2.398 . S
O604 C602 1.185 . S
O605 Dy600 2.491 . S
O605 C602 1.355 . S
O606 Dy600 2.403 . S
O606 C608 1.254 . S
O607 Dy600 2.664 . S
O607 Dy603 2.310 . S
O607 C608 1.268 . S
C608 O606 1.254 . S
C608 O607 1.268 . S
C609 O614 1.254 . S
C609 O615 1.268 . S
O610 Dy603 2.351 . S
O610 C618 1.249 . S
O611 Dy600 2.326 . S
O611 C618 1.267 . S
O612 C601 1.185 . S
O612 Dy603 2.398 . S
O613 C601 1.355 . S
O613 Dy603 2.491 . S
O614 Dy603 2.403 . S
O614 C609 1.254 . S
O615 Dy600 2.310 . S
O615 Dy603 2.664 . S
O615 C609 1.268 . S
O616 Dy600 2.351 . S
O616 C619 1.249 . S
O617 Dy603 2.326 . S
O617 C619 1.267 . S
C618 O610 1.249 . S
C618 O611 1.267 . S
C619 O616 1.249 . S
C619 O617 1.267 . S
Dy620 O624 2.398 . S
Dy620 O625 2.491 . S
Dy620 O626 2.403 . S
Dy620 O627 2.664 . S
Dy620 O631 2.326 . S
Dy620 O635 2.310 . S
Dy620 O636 2.351 . S
C621 O632 1.185 . S
C621 O633 1.355 . S
C622 O624 1.185 . S
C622 O625 1.355 . S
Dy623 O627 2.310 . S
Dy623 O630 2.351 . S
Dy623 O632 2.398 1_655 S
Dy623 O633 2.491 1_655 S
Dy623 O634 2.403 1_655 S
Dy623 O635 2.664 . S
Dy623 O637 2.326 1_655 S
O624 Dy620 2.398 . S
O624 C622 1.185 . S
O625 Dy620 2.491 . S
O625 C622 1.355 . S
O626 Dy620 2.403 . S
O626 C628 1.254 . S
O627 Dy620 2.664 . S
O627 Dy623 2.310 . S
O627 C628 1.268 . S
C628 O626 1.254 . S
C628 O627 1.268 . S
C629 O634 1.254 1_655 S
C629 O635 1.268 . S
O630 Dy623 2.351 . S
O630 C638 1.249 . S
O631 Dy620 2.326 . S
O631 C638 1.267 . S
O632 C621 1.185 . S
O632 Dy623 2.398 1_455 S
O633 C621 1.355 . S
O633 Dy623 2.491 1_455 S
O634 Dy623 2.403 1_455 S
O634 C629 1.254 1_455 S
O635 Dy620 2.310 . S
O635 Dy623 2.664 . S
O635 C629 1.268 . S
O636 Dy620 2.351 . S
O636 C639 1.249 . S
O637 Dy623 2.326 1_455 S
O637 C639 1.267 1_455 S
C638 O630 1.249 . S
C638 O631 1.267 . S
C639 O636 1.249 . S
C639 O637 1.267 1_655 S
Dy640 O644 2.398 . S
Dy640 O645 2.491 . S
Dy640 O646 2.403 . S
Dy640 O647 2.664 . S
Dy640 O651 2.326 . S
Dy640 O655 2.310 . S
Dy640 O656 2.351 . S
C641 O652 1.185 . S
C641 O653 1.355 . S
C642 O644 1.185 . S
C642 O645 1.355 . S
Dy643 O647 2.310 . S
Dy643 O650 2.351 . S
Dy643 O652 2.398 . S
Dy643 O653 2.491 . S
Dy643 O654 2.403 . S
Dy643 O655 2.664 . S
Dy643 O657 2.326 . S
O644 Dy640 2.398 . S
O644 C642 1.185 . S
O645 Dy640 2.491 . S
O645 C642 1.355 . S
O646 Dy640 2.403 . S
O646 C648 1.254 . S
O647 Dy640 2.664 . S
O647 Dy643 2.310 . S
O647 C648 1.268 . S
C648 O646 1.254 . S
C648 O647 1.268 . S
C649 O654 1.254 . S
C649 O655 1.268 . S
O650 Dy643 2.351 . S
O650 C658 1.249 . S
O651 Dy640 2.326 . S
O651 C658 1.267 . S
O652 C641 1.185 . S
O652 Dy643 2.398 . S
O653 C641 1.355 . S
O653 Dy643 2.491 . S
O654 Dy643 2.403 . S
O654 C649 1.254 . S
O655 Dy640 2.310 . S
O655 Dy643 2.664 . S
O655 C649 1.268 . S
O656 Dy640 2.351 . S
O656 C659 1.249 . S
O657 Dy643 2.326 . S
O657 C659 1.267 . S
C658 O650 1.249 . S
C658 O651 1.267 . S
C659 O656 1.249 . S
C659 O657 1.267 . S
Dy660 O664 2.398 . S
Dy660 O665 2.491 . S
Dy660 O666 2.403 1_554 S
Dy660 O667 2.664 1_554 S
Dy660 O671 2.326 1_554 S
Dy660 O675 2.310 . S
Dy660 O676 2.351 . S
C661 O672 1.185 . S
C661 O673 1.355 . S
C662 O664 1.185 . S
C662 O665 1.355 . S
Dy663 O667 2.310 . S
Dy663 O670 2.351 . S
Dy663 O672 2.398 . S
Dy663 O673 2.491 . S
Dy663 O674 2.403 . S
Dy663 O675 2.664 1_556 S
Dy663 O677 2.326 . S
O664 Dy660 2.398 . S
O664 C662 1.185 . S
O665 Dy660 2.491 . S
O665 C662 1.355 . S
O666 Dy660 2.403 1_556 S
O666 C668 1.254 . S
O667 Dy660 2.664 1_556 S
O667 Dy663 2.310 . S
O667 C668 1.268 . S
C668 O666 1.254 . S
C668 O667 1.268 . S
C669 O674 1.254 1_554 S
C669 O675 1.268 . S
O670 Dy663 2.351 . S
O670 C678 1.249 . S
O671 Dy660 2.326 1_556 S
O671 C678 1.267 . S
O672 C661 1.185 . S
O672 Dy663 2.398 . S
O673 C661 1.355 . S
O673 Dy663 2.491 . S
O674 Dy663 2.403 . S
O674 C669 1.254 1_556 S
O675 Dy660 2.310 . S
O675 Dy663 2.664 1_554 S
O675 C669 1.268 . S
O676 Dy660 2.351 . S
O676 C679 1.249 . S
O677 Dy663 2.326 . S
O677 C679 1.267 1_556 S
C678 O670 1.249 . S
C678 O671 1.267 . S
C679 O676 1.249 . S
C679 O677 1.267 1_554 S
Dy680 O684 2.398 . S
Dy680 O685 2.491 . S
Dy680 O686 2.403 . S
Dy680 O687 2.664 . S
Dy680 O691 2.326 . S
Dy680 O695 2.310 . S
Dy680 O696 2.351 . S
C681 O692 1.185 . S
C681 O693 1.355 . S
C682 O684 1.185 . S
C682 O685 1.355 . S
Dy683 O687 2.310 . S
Dy683 O690 2.351 . S
Dy683 O692 2.398 . S
Dy683 O693 2.491 . S
Dy683 O694 2.403 . S
Dy683 O695 2.664 . S
Dy683 O697 2.326 . S
O684 Dy680 2.398 . S
O684 C682 1.185 . S
O685 Dy680 2.491 . S
O685 C682 1.355 . S
O686 Dy680 2.403 . S
O686 C688 1.254 . S
O687 Dy680 2.664 . S
O687 Dy683 2.310 . S
O687 C688 1.268 . S
C688 O686 1.254 . S
C688 O687 1.268 . S
C689 O694 1.254 . S
C689 O695 1.268 . S
O690 Dy683 2.351 . S
O690 C698 1.249 . S
O691 Dy680 2.326 . S
O691 C698 1.267 . S
O692 C681 1.185 . S
O692 Dy683 2.398 . S
O693 C681 1.355 . S
O693 Dy683 2.491 . S
O694 Dy683 2.403 . S
O694 C689 1.254 . S
O695 Dy680 2.310 . S
O695 Dy683 2.664 . S
O695 C689 1.268 . S
O696 Dy680 2.351 . S
O696 C699 1.249 . S
O697 Dy683 2.326 . S
O697 C699 1.267 . S
C698 O690 1.249 . S
C698 O691 1.267 . S
C699 O696 1.249 . S
C699 O697 1.267 . S
Dy700 O704 2.398 . S
Dy700 O705 2.491 . S
Dy700 O706 2.403 . S
Dy700 O707 2.664 . S
Dy700 O711 2.326 . S
Dy700 O715 2.310 . S
Dy700 O716 2.351 . S
C701 O712 1.185 . S
C701 O713 1.355 . S
C702 O704 1.185 . S
C702 O705 1.355 . S
Dy703 O707 2.310 . S
Dy703 O710 2.351 . S
Dy703 O712 2.398 . S
Dy703 O713 2.491 . S
Dy703 O714 2.403 . S
Dy703 O715 2.664 . S
Dy703 O717 2.326 . S
O704 Dy700 2.398 . S
O704 C702 1.185 . S
O705 Dy700 2.491 . S
O705 C702 1.355 . S
O706 Dy700 2.403 . S
O706 C708 1.254 . S
O707 Dy700 2.664 . S
O707 Dy703 2.310 . S
O707 C708 1.268 . S
C708 O706 1.254 . S
C708 O707 1.268 . S
C709 O714 1.254 . S
C709 O715 1.268 . S
O710 Dy703 2.351 . S
O710 C718 1.249 . S
O711 Dy700 2.326 . S
O711 C718 1.267 . S
O712 C701 1.185 . S
O712 Dy703 2.398 . S
O713 C701 1.355 . S
O713 Dy703 2.491 . S
O714 Dy703 2.403 . S
O714 C709 1.254 . S
O715 Dy700 2.310 . S
O715 Dy703 2.664 . S
O715 C709 1.268 . S
O716 Dy700 2.351 . S
O716 C719 1.249 . S
O717 Dy703 2.326 . S
O717 C719 1.267 . S
C718 O710 1.249 . S
C718 O711 1.267 . S
C719 O716 1.249 . S
C719 O717 1.267 . S
Dy720 O724 2.398 . S
Dy720 O725 2.491 . S
Dy720 O726 2.403 . S
Dy720 O727 2.664 . S
Dy720 O731 2.326 . S
Dy720 O735 2.310 . S
Dy720 O736 2.351 . S
C721 O732 1.185 . S
C721 O733 1.355 . S
C722 O724 1.185 . S
C722 O725 1.355 . S
Dy723 O727 2.310 . S
Dy723 O730 2.351 . S
Dy723 O732 2.398 . S
Dy723 O733 2.491 . S
Dy723 O734 2.403 . S
Dy723 O735 2.664 . S
Dy723 O737 2.326 . S
O724 Dy720 2.398 . S
O724 C722 1.185 . S
O725 Dy720 2.491 . S
O725 C722 1.355 . S
O726 Dy720 2.403 . S
O726 C728 1.254 . S
O727 Dy720 2.664 . S
O727 Dy723 2.310 . S
O727 C728 1.268 . S
C728 O726 1.254 . S
C728 O727 1.268 . S
C729 O734 1.254 . S
C729 O735 1.268 . S
O730 Dy723 2.351 . S
O730 C738 1.249 . S
O731 Dy720 2.326 . S
O731 C738 1.267 . S
O732 C721 1.185 . S
O732 Dy723 2.398 . S
O733 C721 1.355 . S
O733 Dy723 2.491 . S
O734 Dy723 2.403 . S
O734 C729 1.254 . S
O735 Dy720 2.310 . S
O735 Dy723 2.664 . S
O735 C729 1.268 . S
O736 Dy720 2.351 . S
O736 C739 1.249 . S
O737 Dy723 2.326 . S
O737 C739 1.267 . S
C738 O730 1.249 . S
C738 O731 1.267 . S
C739 O736 1.249 . S
C739 O737 1.267 . S
Dy740 O744 2.398 . S
Dy740 O745 2.491 . S
Dy740 O746 2.403 . S
Dy740 O747 2.664 . S
Dy740 O751 2.326 . S
Dy740 O755 2.310 . S
Dy740 O756 2.351 . S
C741 O752 1.185 . S
C741 O753 1.355 . S
C742 O744 1.185 . S
C742 O745 1.355 . S
Dy743 O747 2.310 . S
Dy743 O750 2.351 . S
Dy743 O752 2.398 . S
Dy743 O753 2.491 . S
Dy743 O754 2.403 . S
Dy743 O755 2.664 . S
Dy743 O757 2.326 . S
O744 Dy740 2.398 . S
O744 C742 1.185 . S
O745 Dy740 2.491 . S
O745 C742 1.355 . S
O746 Dy740 2.403 . S
O746 C748 1.254 . S
O747 Dy740 2.664 . S
O747 Dy743 2.310 . S
O747 C748 1.268 . S
C748 O746 1.254 . S
C748 O747 1.268 . S
C749 O754 1.254 . S
C749 O755 1.268 . S
O750 Dy743 2.351 . S
O750 C758 1.249 . S
O751 Dy740 2.326 . S
O751 C758 1.267 . S
O752 C741 1.185 . S
O752 Dy743 2.398 . S
O753 C741 1.355 . S
O753 Dy743 2.491 . S
O754 Dy743 2.403 . S
O754 C749 1.254 . S
O755 Dy740 2.310 . S
O755 Dy743 2.664 . S
O755 C749 1.268 . S
O756 Dy740 2.351 . S
O756 C759 1.249 . S
O757 Dy743 2.326 . S
O757 C759 1.267 . S
C758 O750 1.249 . S
C758 O751 1.267 . S
C759 O756 1.249 . S
C759 O757 1.267 . S
Dy760 O764 2.398 . S
Dy760 O765 2.491 . S
Dy760 O766 2.403 . S
Dy760 O767 2.664 . S
Dy760 O771 2.326 . S
Dy760 O775 2.310 . S
Dy760 O776 2.351 . S
C761 O772 1.185 . S
C761 O773 1.355 . S
C762 O764 1.185 . S
C762 O765 1.355 . S
Dy763 O767 2.310 . S
Dy763 O770 2.351 . S
Dy763 O772 2.398 . S
Dy763 O773 2.491 . S
Dy763 O774 2.403 . S
Dy763 O775 2.664 . S
Dy763 O777 2.326 . S
O764 Dy760 2.398 . S
O764 C762 1.185 . S
O765 Dy760 2.491 . S
O765 C762 1.355 . S
O766 Dy760 2.403 . S
O766 C768 1.254 . S
O767 Dy760 2.664 . S
O767 Dy763 2.310 . S
O767 C768 1.268 . S
C768 O766 1.254 . S
C768 O767 1.268 . S
C769 O774 1.254 . S
C769 O775 1.268 . S
O770 Dy763 2.351 . S
O770 C778 1.249 . S
O771 Dy760 2.326 . S
O771 C778 1.267 . S
O772 C761 1.185 . S
O772 Dy763 2.398 . S
O773 C761 1.355 . S
O773 Dy763 2.491 . S
O774 Dy763 2.403 . S
O774 C769 1.254 . S
O775 Dy760 2.310 . S
O775 Dy763 2.664 . S
O775 C769 1.268 . S
O776 Dy760 2.351 . S
O776 C779 1.249 . S
O777 Dy763 2.326 . S
O777 C779 1.267 . S
C778 O770 1.249 . S
C778 O771 1.267 . S
C779 O776 1.249 . S
C779 O777 1.267 . S
Dy780 O784 2.398 . S
Dy780 O785 2.491 . S
Dy780 O786 2.403 . S
Dy780 O787 2.664 . S
Dy780 O791 2.326 . S
Dy780 O795 2.310 . S
Dy780 O796 2.351 . S
C781 O792 1.185 . S
C781 O793 1.355 . S
C782 O784 1.185 . S
C782 O785 1.355 . S
Dy783 O787 2.310 . S
Dy783 O790 2.351 . S
Dy783 O792 2.398 . S
Dy783 O793 2.491 . S
Dy783 O794 2.403 . S
Dy783 O795 2.664 . S
Dy783 O797 2.326 . S
O784 Dy780 2.398 . S
O784 C782 1.185 . S
O785 Dy780 2.491 . S
O785 C782 1.355 . S
O786 Dy780 2.403 . S
O786 C788 1.254 . S
O787 Dy780 2.664 . S
O787 Dy783 2.310 . S
O787 C788 1.268 . S
C788 O786 1.254 . S
C788 O787 1.268 . S
C789 O794 1.254 . S
C789 O795 1.268 . S
O790 Dy783 2.351 . S
O790 C798 1.249 . S
O791 Dy780 2.326 . S
O791 C798 1.267 . S
O792 C781 1.185 . S
O792 Dy783 2.398 . S
O793 C781 1.355 . S
O793 Dy783 2.491 . S
O794 Dy783 2.403 . S
O794 C789 1.254 . S
O795 Dy780 2.310 . S
O795 Dy783 2.664 . S
O795 C789 1.268 . S
O796 Dy780 2.351 . S
O796 C799 1.249 . S
O797 Dy783 2.326 . S
O797 C799 1.267 . S
C798 O790 1.249 . S
C798 O791 1.267 . S
C799 O796 1.249 . S
C799 O797 1.267 . S
Dy800 O804 2.398 1_455 S
Dy800 O805 2.491 1_455 S
Dy800 O806 2.403 1_455 S
Dy800 O807 2.664 . S
Dy800 O811 2.326 1_455 S
Dy800 O815 2.310 . S
Dy800 O816 2.351 . S
C801 O812 1.185 . S
C801 O813 1.355 . S
C802 O804 1.185 . S
C802 O805 1.355 . S
Dy803 O807 2.310 . S
Dy803 O810 2.351 . S
Dy803 O812 2.398 . S
Dy803 O813 2.491 . S
Dy803 O814 2.403 . S
Dy803 O815 2.664 . S
Dy803 O817 2.326 . S
O804 Dy800 2.398 1_655 S
O804 C802 1.185 . S
O805 Dy800 2.491 1_655 S
O805 C802 1.355 . S
O806 Dy800 2.403 1_655 S
O806 C808 1.254 1_655 S
O807 Dy800 2.664 . S
O807 Dy803 2.310 . S
O807 C808 1.268 . S
C808 O806 1.254 1_455 S
C808 O807 1.268 . S
C809 O814 1.254 . S
C809 O815 1.268 . S
O810 Dy803 2.351 . S
O810 C818 1.249 . S
O811 Dy800 2.326 1_655 S
O811 C818 1.267 1_655 S
O812 C801 1.185 . S
O812 Dy803 2.398 . S
O813 C801 1.355 . S
O813 Dy803 2.491 . S
O814 Dy803 2.403 . S
O814 C809 1.254 . S
O815 Dy800 2.310 . S
O815 Dy803 2.664 . S
O815 C809 1.268 . S
O816 Dy800 2.351 . S
O816 C819 1.249 . S
O817 Dy803 2.326 . S
O817 C819 1.267 . S
C818 O810 1.249 . S
C818 O811 1.267 1_455 S
C819 O816 1.249 . S
C819 O817 1.267 . S
Dy820 O824 2.398 . S
Dy820 O825 2.491 . S
Dy820 O826 2.403 . S
Dy820 O827 2.664 . S
Dy820 O831 2.326 . S
Dy820 O835 2.310 . S
Dy820 O836 2.351 . S
C821 O832 1.185 . S
C821 O833 1.355 . S
C822 O824 1.185 . S
C822 O825 1.355 . S
Dy823 O827 2.310 . S
Dy823 O830 2.351 . S
Dy823 O832 2.398 . S
Dy823 O833 2.491 . S
Dy823 O834 2.403 . S
Dy823 O835 2.664 . S
Dy823 O837 2.326 . S
O824 Dy820 2.398 . S
O824 C822 1.185 . S
O825 Dy820 2.491 . S
O825 C822 1.355 . S
O826 Dy820 2.403 . S
O826 C828 1.254 . S
O827 Dy820 2.664 . S
O827 Dy823 2.310 . S
O827 C828 1.268 . S
C828 O826 1.254 . S
C828 O827 1.268 . S
C829 O834 1.254 . S
C829 O835 1.268 . S
O830 Dy823 2.351 . S
O830 C838 1.249 . S
O831 Dy820 2.326 . S
O831 C838 1.267 . S
O832 C821 1.185 . S
O832 Dy823 2.398 . S
O833 C821 1.355 . S
O833 Dy823 2.491 . S
O834 Dy823 2.403 . S
O834 C829 1.254 . S
O835 Dy820 2.310 . S
O835 Dy823 2.664 . S
O835 C829 1.268 . S
O836 Dy820 2.351 . S
O836 C839 1.249 . S
O837 Dy823 2.326 . S
O837 C839 1.267 . S
C838 O830 1.249 . S
C838 O831 1.267 . S
C839 O836 1.249 . S
C839 O837 1.267 . S
Dy840 O844 2.398 . S
Dy840 O845 2.491 . S
Dy840 O846 2.403 . S
Dy840 O847 2.664 1_554 S
Dy840 O851 2.326 . S
Dy840 O855 2.310 . S
Dy840 O856 2.351 . S
C841 O852 1.185 . S
C841 O853 1.355 . S
C842 O844 1.185 . S
C842 O845 1.355 . S
Dy843 O847 2.310 . S
Dy843 O850 2.351 . S
Dy843 O852 2.398 . S
Dy843 O853 2.491 . S
Dy843 O854 2.403 1_556 S
Dy843 O855 2.664 1_556 S
Dy843 O857 2.326 1_556 S
O844 Dy840 2.398 . S
O844 C842 1.185 . S
O845 Dy840 2.491 . S
O845 C842 1.355 . S
O846 Dy840 2.403 . S
O846 C848 1.254 1_554 S
O847 Dy840 2.664 1_556 S
O847 Dy843 2.310 . S
O847 C848 1.268 . S
C848 O846 1.254 1_556 S
C848 O847 1.268 . S
C849 O854 1.254 . S
C849 O855 1.268 . S
O850 Dy843 2.351 . S
O850 C858 1.249 . S
O851 Dy840 2.326 . S
O851 C858 1.267 1_554 S
O852 C841 1.185 . S
O852 Dy843 2.398 . S
O853 C841 1.355 . S
O853 Dy843 2.491 . S
O854 Dy843 2.403 1_554 S
O854 C849 1.254 . S
O855 Dy840 2.310 . S
O855 Dy843 2.664 1_554 S
O855 C849 1.268 . S
O856 Dy840 2.351 . S
O856 C859 1.249 . S
O857 Dy843 2.326 1_554 S
O857 C859 1.267 . S
C858 O850 1.249 . S
C858 O851 1.267 1_556 S
C859 O856 1.249 . S
C859 O857 1.267 . S
Dy860 O864 2.398 . S
Dy860 O865 2.491 . S
Dy860 O866 2.403 . S
Dy860 O867 2.664 . S
Dy860 O871 2.326 . S
Dy860 O875 2.310 . S
Dy860 O876 2.351 . S
C861 O872 1.185 . S
C861 O873 1.355 . S
C862 O864 1.185 . S
C862 O865 1.355 . S
Dy863 O867 2.310 . S
Dy863 O870 2.351 . S
Dy863 O872 2.398 . S
Dy863 O873 2.491 . S
Dy863 O874 2.403 . S
Dy863 O875 2.664 . S
Dy863 O877 2.326 . S
O864 Dy860 2.398 . S
O864 C862 1.185 . S
O865 Dy860 2.491 . S
O865 C862 1.355 . S
O866 Dy860 2.403 . S
O866 C868 1.254 . S
O867 Dy860 2.664 . S
O867 Dy863 2.310 . S
O867 C868 1.268 . S
C868 O866 1.254 . S
C868 O867 1.268 . S
C869 O874 1.254 . S
C869 O875 1.268 . S
O870 Dy863 2.351 . S
O870 C878 1.249 . S
O871 Dy860 2.326 . S
O871 C878 1.267 . S
O872 C861 1.185 . S
O872 Dy863 2.398 . S
O873 C861 1.355 . S
O873 Dy863 2.491 . S
O874 Dy863 2.403 . S
O874 C869 1.254 . S
O875 Dy860 2.310 . S
O875 Dy863 2.664 . S
O875 C869 1.268 . S
O876 Dy860 2.351 . S
O876 C879 1.249 . S
O877 Dy863 2.326 . S
O877 C879 1.267 . S
C878 O870 1.249 . S
C878 O871 1.267 . S
C879 O876 1.249 . S
C879 O877 1.267 . S
Dy880 O884 2.398 . S
Dy880 O885 2.491 . S
Dy880 O886 2.403 . S
Dy880 O887 2.664 . S
Dy880 O891 2.326 . S
Dy880 O895 2.310 . S
Dy880 O896 2.351 . S
C881 O892 1.185 . S
C881 O893 1.355 . S
C882 O884 1.185 . S
C882 O885 1.355 . S
Dy883 O887 2.310 . S
Dy883 O890 2.351 . S
Dy883 O892 2.398 . S
Dy883 O893 2.491 . S
Dy883 O894 2.403 . S
Dy883 O895 2.664 . S
Dy883 O897 2.326 . S
O884 Dy880 2.398 . S
O884 C882 1.185 . S
O885 Dy880 2.491 . S
O885 C882 1.355 . S
O886 Dy880 2.403 . S
O886 C888 1.254 . S
O887 Dy880 2.664 . S
O887 Dy883 2.310 . S
O887 C888 1.268 . S
C888 O886 1.254 . S
C888 O887 1.268 . S
C889 O894 1.254 . S
C889 O895 1.268 . S
O890 Dy883 2.351 . S
O890 C898 1.249 . S
O891 Dy880 2.326 . S
O891 C898 1.267 . S
O892 C881 1.185 . S
O892 Dy883 2.398 . S
O893 C881 1.355 . S
O893 Dy883 2.491 . S
O894 Dy883 2.403 . S
O894 C889 1.254 . S
O895 Dy880 2.310 . S
O895 Dy883 2.664 . S
O895 C889 1.268 . S
O896 Dy880 2.351 . S
O896 C899 1.249 . S
O897 Dy883 2.326 . S
O897 C899 1.267 . S
C898 O890 1.249 . S
C898 O891 1.267 . S
C899 O896 1.249 . S
C899 O897 1.267 . S
Dy900 O904 2.398 . S
Dy900 O905 2.491 . S
Dy900 O906 2.403 . S
Dy900 O907 2.664 . S
Dy900 O911 2.326 . S
Dy900 O915 2.310 . S
Dy900 O916 2.351 . S
C901 O912 1.185 . S
C901 O913 1.355 . S
C902 O904 1.185 . S
C902 O905 1.355 . S
Dy903 O907 2.310 . S
Dy903 O910 2.351 . S
Dy903 O912 2.398 . S
Dy903 O913 2.491 . S
Dy903 O914 2.403 . S
Dy903 O915 2.664 . S
Dy903 O917 2.326 . S
O904 Dy900 2.398 . S
O904 C902 1.185 . S
O905 Dy900 2.491 . S
O905 C902 1.355 . S
O906 Dy900 2.403 . S
O906 C908 1.254 . S
O907 Dy900 2.664 . S
O907 Dy903 2.310 . S
O907 C908 1.268 . S
C908 O906 1.254 . S
C908 O907 1.268 . S
C909 O914 1.254 . S
C909 O915 1.268 . S
O910 Dy903 2.351 . S
O910 C918 1.249 . S
O911 Dy900 2.326 . S
O911 C918 1.267 . S
O912 C901 1.185 . S
O912 Dy903 2.398 . S
O913 C901 1.355 . S
O913 Dy903 2.491 . S
O914 Dy903 2.403 . S
O914 C909 1.254 . S
O915 Dy900 2.310 . S
O915 Dy903 2.664 . S
O915 C909 1.268 . S
O916 Dy900 2.351 . S
O916 C919 1.249 . S
O917 Dy903 2.326 . S
O917 C919 1.267 . S
C918 O910 1.249 . S
C918 O911 1.267 . S
C919 O916 1.249 . S
C919 O917 1.267 . S
Dy920 O924 2.398 . S
Dy920 O925 2.491 . S
Dy920 O926 2.403 . S
Dy920 O927 2.664 . S
Dy920 O931 2.326 . S
Dy920 O935 2.310 . S
Dy920 O936 2.351 . S
C921 O932 1.185 . S
C921 O933 1.355 . S
C922 O924 1.185 . S
C922 O925 1.355 . S
Dy923 O927 2.310 . S
Dy923 O930 2.351 . S
Dy923 O932 2.398 . S
Dy923 O933 2.491 . S
Dy923 O934 2.403 . S
Dy923 O935 2.664 . S
Dy923 O937 2.326 . S
O924 Dy920 2.398 . S
O924 C922 1.185 . S
O925 Dy920 2.491 . S
O925 C922 1.355 . S
O926 Dy920 2.403 . S
O926 C928 1.254 . S
O927 Dy920 2.664 . S
O927 Dy923 2.310 . S
O927 C928 1.268 . S
C928 O926 1.254 . S
C928 O927 1.268 . S
C929 O934 1.254 . S
C929 O935 1.268 . S
O930 Dy923 2.351 . S
O930 C938 1.249 . S
O931 Dy920 2.326 . S
O931 C938 1.267 . S
O932 C921 1.185 . S
O932 Dy923 2.398 . S
O933 C921 1.355 . S
O933 Dy923 2.491 . S
O934 Dy923 2.403 . S
O934 C929 1.254 . S
O935 Dy920 2.310 . S
O935 Dy923 2.664 . S
O935 C929 1.268 . S
O936 Dy920 2.351 . S
O936 C939 1.249 . S
O937 Dy923 2.326 . S
O937 C939 1.267 . S
C938 O930 1.249 . S
C938 O931 1.267 . S
C939 O936 1.249 . S
C939 O937 1.267 . S
Dy940 O944 2.398 . S
Dy940 O945 2.491 . S
Dy940 O946 2.403 . S
Dy940 O947 2.664 . S
Dy940 O951 2.326 . S
Dy940 O955 2.310 . S
Dy940 O956 2.351 . S
C941 O952 1.185 . S
C941 O953 1.355 . S
C942 O944 1.185 . S
C942 O945 1.355 . S
Dy943 O947 2.310 . S
Dy943 O950 2.351 . S
Dy943 O952 2.398 . S
Dy943 O953 2.491 . S
Dy943 O954 2.403 . S
Dy943 O955 2.664 . S
Dy943 O957 2.326 . S
O944 Dy940 2.398 . S
O944 C942 1.185 . S
O945 Dy940 2.491 . S
O945 C942 1.355 . S
O946 Dy940 2.403 . S
O946 C948 1.254 . S
O947 Dy940 2.664 . S
O947 Dy943 2.310 . S
O947 C948 1.268 . S
C948 O946 1.254 . S
C948 O947 1.268 . S
C949 O954 1.254 . S
C949 O955 1.268 . S
O950 Dy943 2.351 . S
O950 C958 1.249 . S
O951 Dy940 2.326 . S
O951 C958 1.267 . S
O952 C941 1.185 . S
O952 Dy943 2.398 . S
O953 C941 1.355 . S
O953 Dy943 2.491 . S
O954 Dy943 2.403 . S
O954 C949 1.254 . S
O955 Dy940 2.310 . S
O955 Dy943 2.664 . S
O955 C949 1.268 . S
O956 Dy940 2.351 . S
O956 C959 1.249 . S
O957 Dy943 2.326 . S
O957 C959 1.267 . S
C958 O950 1.249 . S
C958 O951 1.267 . S
C959 O956 1.249 . S
C959 O957 1.267 . S
H960 C966 0.930 . S
H961 C969 0.930 . S
H962 C970 0.930 . S
H963 C971 0.930 . S
H964 C974 0.930 . S
H965 C975 0.930 . S
C966 H960 0.930 . S
C966 C967 1.355 . S
C966 C968 1.415 . S
C967 C966 1.355 . S
C967 C969 1.419 1_655 S
C968 C966 1.415 . S
C968 C973 1.425 1_655 S
C968 C975 1.409 . S
C969 H961 0.930 . S
C969 C967 1.419 1_455 S
C969 C970 1.362 . S
C970 H962 0.930 . S
C970 C969 1.362 . S
C970 C973 1.409 . S
C971 H963 0.930 . S
C971 C972 1.338 1_455 S
C971 C973 1.415 . S
C972 C971 1.338 1_655 S
C972 C974 1.443 . S
C973 C968 1.425 1_455 S
C973 C970 1.409 . S
C973 C971 1.415 . S
C974 H964 0.930 . S
C974 C972 1.443 . S
C974 C975 1.362 . S
C975 H965 0.930 . S
C975 C968 1.409 . S
C975 C974 1.362 . S
H976 C982 0.930 . S
H977 C985 0.930 . S
H978 C986 0.930 . S
H979 C987 0.930 . S
H980 C990 0.930 . S
H981 C991 0.930 . S
C982 H976 0.930 . S
C982 C983 1.355 . S
C982 C984 1.415 . S
C983 C982 1.355 . S
C983 C985 1.419 . S
C984 C982 1.415 . S
C984 C989 1.425 . S
C984 C991 1.409 . S
C985 H977 0.930 . S
C985 C983 1.419 . S
C985 C986 1.362 . S
C986 H978 0.930 . S
C986 C985 1.362 . S
C986 C989 1.409 . S
C987 H979 0.930 . S
C987 C988 1.355 . S
C987 C989 1.415 . S
C988 C987 1.355 . S
C988 C990 1.419 . S
C989 C984 1.425 . S
C989 C986 1.409 . S
C989 C987 1.415 . S
C990 H980 0.930 . S
C990 C988 1.419 . S
C990 C991 1.362 . S
C991 H981 0.930 . S
C991 C984 1.409 . S
C991 C990 1.362 . S
H992 C998 0.930 . S
H993 C1001 0.930 . S
H994 C1002 0.930 . S
H995 C1003 0.930 . S
H996 C1006 0.930 . S
H997 C1007 0.930 . S
C998 H992 0.930 . S
C998 C999 1.355 . S
C998 C1000 1.415 . S
C999 C998 1.355 . S
C999 C1001 1.419 . S
C1000 C998 1.415 . S
C1000 C1005 1.425 . S
C1000 C1007 1.409 . S
C1001 H993 0.930 . S
C1001 C999 1.419 . S
C1001 C1002 1.362 . S
C1002 H994 0.930 . S
C1002 C1001 1.362 . S
C1002 C1005 1.409 . S
C1003 H995 0.930 . S
C1003 C1004 1.355 . S
C1003 C1005 1.415 . S
C1004 C1003 1.355 . S
C1004 C1006 1.419 . S
C1005 C1000 1.425 . S
C1005 C1002 1.409 . S
C1005 C1003 1.415 . S
C1006 H996 0.930 . S
C1006 C1004 1.419 . S
C1006 C1007 1.362 . S
C1007 H997 0.930 . S
C1007 C1000 1.409 . S
C1007 C1006 1.362 . S
H1008 C1014 0.930 . S
H1009 C1017 0.930 . S
H1010 C1018 0.930 . S
H1011 C1019 0.930 . S
H1012 C1022 0.930 . S
H1013 C1023 0.930 . S
C1014 H1008 0.930 . S
C1014 C1015 1.355 . S
C1014 C1016 1.415 . S
C1015 C1014 1.355 . S
C1015 C1017 1.419 . S
C1016 C1014 1.415 . S
C1016 C1021 1.425 . S
C1016 C1023 1.409 . S
C1017 H1009 0.930 . S
C1017 C1015 1.419 . S
C1017 C1018 1.362 . S
C1018 H1010 0.930 . S
C1018 C1017 1.362 . S
C1018 C1021 1.409 . S
C1019 H1011 0.930 . S
C1019 C1020 1.355 . S
C1019 C1021 1.415 . S
C1020 C1019 1.355 . S
C1020 C1022 1.419 . S
C1021 C1016 1.425 . S
C1021 C1018 1.409 . S
C1021 C1019 1.415 . S
C1022 H1012 0.930 . S
C1022 C1020 1.419 . S
C1022 C1023 1.362 . S
C1023 H1013 0.930 . S
C1023 C1016 1.409 . S
C1023 C1022 1.362 . S
H1024 C1030 0.930 . S
H1025 C1033 0.930 . S
H1026 C1034 0.930 . S
H1027 C1035 0.930 . S
H1028 C1038 0.930 . S
H1029 C1039 0.930 . S
C1030 H1024 0.930 . S
C1030 C1031 1.355 . S
C1030 C1032 1.415 . S
C1031 C1030 1.355 . S
C1031 C1033 1.419 . S
C1032 C1030 1.415 . S
C1032 C1037 1.425 . S
C1032 C1039 1.409 . S
C1033 H1025 0.930 . S
C1033 C1031 1.419 . S
C1033 C1034 1.362 . S
C1034 H1026 0.930 . S
C1034 C1033 1.362 . S
C1034 C1037 1.409 . S
C1035 H1027 0.930 . S
C1035 C1036 1.355 . S
C1035 C1037 1.415 . S
C1036 C1035 1.355 . S
C1036 C1038 1.419 . S
C1037 C1032 1.425 . S
C1037 C1034 1.409 . S
C1037 C1035 1.415 . S
C1038 H1028 0.930 . S
C1038 C1036 1.419 . S
C1038 C1039 1.362 . S
C1039 H1029 0.930 . S
C1039 C1032 1.409 . S
C1039 C1038 1.362 . S
H1040 C1046 0.930 . S
H1041 C1049 0.930 . S
H1042 C1050 0.930 . S
H1043 C1051 0.930 1_565 S
H1044 C1054 0.930 . S
H1045 C1055 0.930 . S
C1046 H1040 0.930 . S
C1046 C1047 1.355 . S
C1046 C1048 1.415 . S
C1047 C1046 1.355 . S
C1047 C1049 1.419 1_545 S
C1048 C1046 1.415 . S
C1048 C1053 1.425 . S
C1048 C1055 1.409 . S
C1049 H1041 0.930 . S
C1049 C1047 1.419 1_565 S
C1049 C1050 1.362 . S
C1050 H1042 0.930 . S
C1050 C1049 1.362 . S
C1050 C1053 1.409 1_565 S
C1051 H1043 0.930 1_545 S
C1051 C1052 1.355 . S
C1051 C1053 1.415 . S
C1052 C1051 1.355 . S
C1052 C1054 1.419 . S
C1053 C1048 1.425 . S
C1053 C1050 1.409 1_545 S
C1053 C1051 1.415 . S
C1054 H1044 0.930 . S
C1054 C1052 1.419 . S
C1054 C1055 1.362 . S
C1055 H1045 0.930 . S
C1055 C1048 1.409 . S
C1055 C1054 1.362 . S
H1056 C1062 0.930 . S
H1057 C1065 0.930 . S
H1058 C1066 0.930 . S
H1059 C1067 0.930 . S
H1060 C1070 0.930 . S
H1061 C1071 0.930 . S
C1062 H1056 0.930 . S
C1062 C1063 1.355 1_545 S
C1062 C1064 1.415 1_554 S
C1063 C1062 1.355 1_565 S
C1063 C1065 1.419 . S
C1064 C1062 1.415 1_556 S
C1064 C1069 1.425 1_545 S
C1064 C1071 1.409 . S
C1065 H1057 0.930 . S
C1065 C1063 1.419 . S
C1065 C1066 1.362 1_554 S
C1066 H1058 0.930 . S
C1066 C1065 1.362 1_556 S
C1066 C1069 1.409 . S
C1067 H1059 0.930 . S
C1067 C1068 1.355 1_565 S
C1067 C1069 1.415 . S
C1068 C1067 1.355 1_545 S
C1068 C1070 1.419 . S
C1069 C1064 1.425 1_565 S
C1069 C1066 1.409 . S
C1069 C1067 1.415 . S
C1070 H1060 0.930 . S
C1070 C1068 1.419 . S
C1070 C1071 1.362 . S
C1071 H1061 0.930 . S
C1071 C1064 1.409 . S
C1071 C1070 1.362 . S
H1072 C1078 0.930 . S
H1073 C1081 0.930 . S
H1074 C1082 0.930 . S
H1075 C1083 0.930 . S
H1076 C1086 0.930 . S
H1077 C1087 0.930 . S
C1078 H1072 0.930 . S
C1078 C1079 1.355 1_565 S
C1078 C1080 1.415 1_565 S
C1079 C1078 1.355 1_545 S
C1079 C1081 1.419 . S
C1080 C1078 1.415 1_545 S
C1080 C1085 1.425 . S
C1080 C1087 1.409 1_545 S
C1081 H1073 0.930 . S
C1081 C1079 1.419 . S
C1081 C1082 1.362 . S
C1082 H1074 0.930 . S
C1082 C1081 1.362 . S
C1082 C1085 1.409 . S
C1083 H1075 0.930 . S
C1083 C1084 1.355 . S
C1083 C1085 1.415 . S
C1084 C1083 1.355 . S
C1084 C1086 1.419 1_545 S
C1085 C1080 1.425 . S
C1085 C1082 1.409 . S
C1085 C1083 1.415 . S
C1086 H1076 0.930 . S
C1086 C1084 1.419 1_565 S
C1086 C1087 1.362 . S
C1087 H1077 0.930 . S
C1087 C1080 1.409 1_565 S
C1087 C1086 1.362 . S
H1088 C1094 0.930 1_556 S
H1089 C1097 0.930 . S
H1090 C1098 0.930 . S
H1091 C1099 0.930 . S
H1092 C1102 0.930 1_556 S
H1093 C1103 0.930 . S
C1094 H1088 0.930 1_554 S
C1094 C1095 1.355 . S
C1094 C1096 1.415 . S
C1095 C1094 1.355 . S
C1095 C1097 1.419 . S
C1096 C1094 1.415 . S
C1096 C1101 1.425 . S
C1096 C1103 1.409 1_554 S
C1097 H1089 0.930 . S
C1097 C1095 1.419 . S
C1097 C1098 1.362 . S
C1098 H1090 0.930 . S
C1098 C1097 1.362 . S
C1098 C1101 1.409 . S
C1099 H1091 0.930 . S
C1099 C1100 1.355 . S
C1099 C1101 1.415 . S
C1100 C1099 1.355 . S
C1100 C1102 1.419 . S
C1101 C1096 1.425 . S
C1101 C1098 1.409 . S
C1101 C1099 1.415 . S
C1102 H1092 0.930 1_554 S
C1102 C1100 1.419 . S
C1102 C1103 1.362 1_554 S
C1103 H1093 0.930 . S
C1103 C1096 1.409 1_556 S
C1103 C1102 1.362 1_556 S
H1104 C1110 0.930 . S
H1105 C1113 0.930 . S
H1106 C1114 0.930 . S
H1107 C1115 0.930 . S
H1108 C1118 0.930 . S
H1109 C1119 0.930 . S
C1110 H1104 0.930 . S
C1110 C1111 1.355 . S
C1110 C1112 1.415 . S
C1111 C1110 1.355 . S
C1111 C1113 1.419 . S
C1112 C1110 1.415 . S
C1112 C1117 1.425 . S
C1112 C1119 1.409 . S
C1113 H1105 0.930 . S
C1113 C1111 1.419 . S
C1113 C1114 1.362 . S
C1114 H1106 0.930 . S
C1114 C1113 1.362 . S
C1114 C1117 1.409 . S
C1115 H1107 0.930 . S
C1115 C1116 1.355 . S
C1115 C1117 1.415 1_455 S
C1116 C1115 1.355 . S
C1116 C1118 1.419 . S
C1117 C1112 1.425 . S
C1117 C1114 1.409 . S
C1117 C1115 1.415 1_655 S
C1118 H1108 0.930 . S
C1118 C1116 1.419 . S
C1118 C1119 1.362 1_455 S
C1119 H1109 0.930 . S
C1119 C1112 1.409 . S
C1119 C1118 1.362 1_655 S
H1120 C1126 0.930 . S
H1121 C1129 0.930 . S
H1122 C1130 0.930 . S
H1123 C1131 0.930 . S
H1124 C1134 0.930 . S
H1125 C1135 0.930 . S
C1126 H1120 0.930 . S
C1126 C1127 1.355 1_455 S
C1126 C1128 1.415 . S
C1127 C1126 1.355 1_655 S
C1127 C1129 1.419 . S
C1128 C1126 1.415 . S
C1128 C1133 1.425 1_455 S
C1128 C1135 1.409 . S
C1129 H1121 0.930 . S
C1129 C1127 1.419 . S
C1129 C1130 1.362 . S
C1130 H1122 0.930 . S
C1130 C1129 1.362 . S
C1130 C1133 1.409 . S
C1131 H1123 0.930 . S
C1131 C1132 1.355 1_655 S
C1131 C1133 1.415 . S
C1132 C1131 1.355 1_455 S
C1132 C1134 1.419 . S
C1133 C1128 1.425 1_655 S
C1133 C1130 1.409 . S
C1133 C1131 1.415 . S
C1134 H1124 0.930 . S
C1134 C1132 1.419 . S
C1134 C1135 1.362 . S
C1135 H1125 0.930 . S
C1135 C1128 1.409 . S
C1135 C1134 1.362 . S
H1136 C1142 0.930 . S
H1137 C1145 0.930 . S
H1138 C1146 0.930 . S
H1139 C1147 0.930 . S
H1140 C1150 0.930 . S
H1141 C1151 0.930 . S
C1142 H1136 0.930 . S
C1142 C1143 1.355 . S
C1142 C1144 1.415 . S
C1143 C1142 1.355 . S
C1143 C1145 1.419 . S
C1144 C1142 1.415 . S
C1144 C1149 1.425 . S
C1144 C1151 1.409 . S
C1145 H1137 0.930 . S
C1145 C1143 1.419 . S
C1145 C1146 1.362 . S
C1146 H1138 0.930 . S
C1146 C1145 1.362 . S
C1146 C1149 1.409 . S
C1147 H1139 0.930 . S
C1147 C1148 1.355 . S
C1147 C1149 1.415 . S
C1148 C1147 1.355 . S
C1148 C1150 1.419 . S
C1149 C1144 1.425 . S
C1149 C1146 1.409 . S
C1149 C1147 1.415 . S
C1150 H1140 0.930 . S
C1150 C1148 1.419 . S
C1150 C1151 1.362 . S
C1151 H1141 0.930 . S
C1151 C1144 1.409 . S
C1151 C1150 1.362 . S
H1152 C1158 0.930 . S
H1153 C1161 0.930 . S
H1154 C1162 0.930 . S
H1155 C1163 0.930 . S
H1156 C1166 0.930 . S
H1157 C1167 0.930 1_655 S
C1158 H1152 0.930 . S
C1158 C1159 1.355 . S
C1158 C1160 1.415 . S
C1159 C1158 1.355 . S
C1159 C1161 1.419 . S
C1160 C1158 1.415 . S
C1160 C1165 1.425 1_655 S
C1160 C1167 1.409 1_655 S
C1161 H1153 0.930 . S
C1161 C1159 1.419 . S
C1161 C1162 1.362 . S
C1162 H1154 0.930 . S
C1162 C1161 1.362 . S
C1162 C1165 1.409 1_655 S
C1163 H1155 0.930 . S
C1163 C1164 1.355 . S
C1163 C1165 1.415 . S
C1164 C1163 1.355 . S
C1164 C1166 1.419 . S
C1165 C1160 1.425 1_455 S
C1165 C1162 1.409 1_455 S
C1165 C1163 1.415 . S
C1166 H1156 0.930 . S
C1166 C1164 1.419 . S
C1166 C1167 1.362 . S
C1167 H1157 0.930 1_455 S
C1167 C1160 1.409 1_455 S
C1167 C1166 1.362 . S
H1168 C1174 0.930 . S
H1169 C1177 0.930 . S
H1170 C1178 0.930 1_455 S
H1171 C1179 0.930 . S
H1172 C1182 0.930 . S
H1173 C1183 0.930 . S
C1174 H1168 0.930 . S
C1174 C1175 1.355 . S
C1174 C1176 1.415 . S
C1175 C1174 1.355 . S
C1175 C1177 1.419 1_655 S
C1176 C1174 1.415 . S
C1176 C1181 1.425 . S
C1176 C1183 1.409 . S
C1177 H1169 0.930 . S
C1177 C1175 1.419 1_455 S
C1177 C1178 1.362 1_455 S
C1178 H1170 0.930 1_655 S
C1178 C1177 1.362 1_655 S
C1178 C1181 1.409 . S
C1179 H1171 0.930 . S
C1179 C1180 1.355 . S
C1179 C1181 1.415 . S
C1180 C1179 1.355 . S
C1180 C1182 1.419 . S
C1181 C1176 1.425 . S
C1181 C1178 1.409 . S
C1181 C1179 1.415 . S
C1182 H1172 0.930 . S
C1182 C1180 1.419 . S
C1182 C1183 1.362 . S
C1183 H1173 0.930 . S
C1183 C1176 1.409 . S
C1183 C1182 1.362 . S
H1184 C1190 0.930 . S
H1185 C1193 0.930 . S
H1186 C1194 0.930 . S
H1187 C1195 0.930 . S
H1188 C1198 0.930 . S
H1189 C1199 0.930 . S
C1190 H1184 0.930 . S
C1190 C1191 1.355 . S
C1190 C1192 1.415 . S
C1191 C1190 1.355 . S
C1191 C1193 1.419 . S
C1192 C1190 1.415 . S
C1192 C1197 1.425 . S
C1192 C1199 1.409 . S
C1193 H1185 0.930 . S
C1193 C1191 1.419 . S
C1193 C1194 1.362 . S
C1194 H1186 0.930 . S
C1194 C1193 1.362 . S
C1194 C1197 1.409 . S
C1195 H1187 0.930 . S
C1195 C1196 1.355 . S
C1195 C1197 1.415 . S
C1196 C1195 1.355 . S
C1196 C1198 1.419 . S
C1197 C1192 1.425 . S
C1197 C1194 1.409 . S
C1197 C1195 1.415 . S
C1198 H1188 0.930 . S
C1198 C1196 1.419 . S
C1198 C1199 1.362 . S
C1199 H1189 0.930 . S
C1199 C1192 1.409 . S
C1199 C1198 1.362 . S
H1200 C1206 0.930 . S
H1201 C1209 0.930 . S
H1202 C1210 0.930 . S
H1203 C1211 0.930 . S
H1204 C1214 0.930 . S
H1205 C1215 0.930 . S
C1206 H1200 0.930 . S
C1206 C1207 1.355 1_455 S
C1206 C1208 1.415 . S
C1207 C1206 1.355 1_655 S
C1207 C1209 1.419 . S
C1208 C1206 1.415 . S
C1208 C1213 1.425 1_455 S
C1208 C1215 1.409 . S
C1209 H1201 0.930 . S
C1209 C1207 1.419 . S
C1209 C1210 1.362 . S
C1210 H1202 0.930 . S
C1210 C1209 1.362 . S
C1210 C1213 1.409 . S
C1211 H1203 0.930 . S
C1211 C1212 1.355 1_655 S
C1211 C1213 1.415 . S
C1212 C1211 1.355 1_455 S
C1212 C1214 1.419 . S
C1213 C1208 1.425 1_655 S
C1213 C1210 1.409 . S
C1213 C1211 1.415 . S
C1214 H1204 0.930 . S
C1214 C1212 1.419 . S
C1214 C1215 1.362 . S
C1215 H1205 0.930 . S
C1215 C1208 1.409 . S
C1215 C1214 1.362 . S
H1216 C1222 0.930 . S
H1217 C1225 0.930 . S
H1218 C1226 0.930 . S
H1219 C1227 0.930 . S
H1220 C1230 0.930 . S
H1221 C1231 0.930 . S
C1222 H1216 0.930 . S
C1222 C1223 1.355 . S
C1222 C1224 1.415 . S
C1223 C1222 1.355 . S
C1223 C1225 1.419 . S
C1224 C1222 1.415 . S
C1224 C1229 1.425 . S
C1224 C1231 1.409 . S
C1225 H1217 0.930 . S
C1225 C1223 1.419 . S
C1225 C1226 1.362 . S
C1226 H1218 0.930 . S
C1226 C1225 1.362 . S
C1226 C1229 1.409 . S
C1227 H1219 0.930 . S
C1227 C1228 1.355 . S
C1227 C1229 1.415 . S
C1228 C1227 1.355 . S
C1228 C1230 1.419 . S
C1229 C1224 1.425 . S
C1229 C1226 1.409 . S
C1229 C1227 1.415 . S
C1230 H1220 0.930 . S
C1230 C1228 1.419 . S
C1230 C1231 1.362 . S
C1231 H1221 0.930 . S
C1231 C1224 1.409 . S
C1231 C1230 1.362 . S
H1232 C1238 0.930 . S
H1233 C1241 0.930 . S
H1234 C1242 0.930 . S
H1235 C1243 0.930 . S
H1236 C1246 0.930 . S
H1237 C1247 0.930 . S
C1238 H1232 0.930 . S
C1238 C1239 1.355 . S
C1238 C1240 1.415 . S
C1239 C1238 1.355 . S
C1239 C1241 1.419 . S
C1240 C1238 1.415 . S
C1240 C1245 1.425 . S
C1240 C1247 1.409 . S
C1241 H1233 0.930 . S
C1241 C1239 1.419 . S
C1241 C1242 1.362 . S
C1242 H1234 0.930 . S
C1242 C1241 1.362 . S
C1242 C1245 1.409 . S
C1243 H1235 0.930 . S
C1243 C1244 1.355 . S
C1243 C1245 1.415 . S
C1244 C1243 1.355 . S
C1244 C1246 1.419 . S
C1245 C1240 1.425 . S
C1245 C1242 1.409 . S
C1245 C1243 1.415 . S
C1246 H1236 0.930 . S
C1246 C1244 1.419 . S
C1246 C1247 1.362 . S
C1247 H1237 0.930 . S
C1247 C1240 1.409 . S
C1247 C1246 1.362 . S
H1248 C1254 0.930 . S
H1249 C1257 0.930 . S
H1250 C1258 0.930 . S
H1251 C1259 0.930 . S
H1252 C1262 0.930 . S
H1253 C1263 0.930 . S
C1254 H1248 0.930 . S
C1254 C1255 1.355 . S
C1254 C1256 1.415 . S
C1255 C1254 1.355 . S
C1255 C1257 1.419 . S
C1256 C1254 1.415 . S
C1256 C1261 1.425 . S
C1256 C1263 1.409 . S
C1257 H1249 0.930 . S
C1257 C1255 1.419 . S
C1257 C1258 1.362 . S
C1258 H1250 0.930 . S
C1258 C1257 1.362 . S
C1258 C1261 1.409 . S
C1259 H1251 0.930 . S
C1259 C1260 1.355 . S
C1259 C1261 1.415 . S
C1260 C1259 1.355 . S
C1260 C1262 1.419 . S
C1261 C1256 1.425 . S
C1261 C1258 1.409 . S
C1261 C1259 1.415 . S
C1262 H1252 0.930 . S
C1262 C1260 1.419 . S
C1262 C1263 1.362 . S
C1263 H1253 0.930 . S
C1263 C1256 1.409 . S
C1263 C1262 1.362 . S
H1264 C1270 0.930 . S
H1265 C1273 0.930 . S
H1266 C1274 0.930 . S
H1267 C1275 0.930 . S
H1268 C1278 0.930 1_545 S
H1269 C1279 0.930 1_545 S
C1270 H1264 0.930 . S
C1270 C1271 1.355 . S
C1270 C1272 1.415 . S
C1271 C1270 1.355 . S
C1271 C1273 1.419 . S
C1272 C1270 1.415 . S
C1272 C1277 1.425 . S
C1272 C1279 1.409 . S
C1273 H1265 0.930 . S
C1273 C1271 1.419 . S
C1273 C1274 1.362 . S
C1274 H1266 0.930 . S
C1274 C1273 1.362 . S
C1274 C1277 1.409 . S
C1275 H1267 0.930 . S
C1275 C1276 1.355 . S
C1275 C1277 1.415 . S
C1276 C1275 1.355 . S
C1276 C1278 1.419 . S
C1277 C1272 1.425 . S
C1277 C1274 1.409 . S
C1277 C1275 1.415 . S
C1278 H1268 0.930 1_565 S
C1278 C1276 1.419 . S
C1278 C1279 1.362 . S
C1279 H1269 0.930 1_565 S
C1279 C1272 1.409 . S
C1279 C1278 1.362 . S
H1280 C1286 0.930 . S
H1281 C1289 0.930 . S
H1282 C1290 0.930 . S
H1283 C1291 0.930 . S
H1284 C1294 0.930 . S
H1285 C1295 0.930 . S
C1286 H1280 0.930 . S
C1286 C1287 1.355 . S
C1286 C1288 1.415 . S
C1287 C1286 1.355 . S
C1287 C1289 1.419 . S
C1288 C1286 1.415 . S
C1288 C1293 1.425 . S
C1288 C1295 1.409 . S
C1289 H1281 0.930 . S
C1289 C1287 1.419 . S
C1289 C1290 1.362 . S
C1290 H1282 0.930 . S
C1290 C1289 1.362 . S
C1290 C1293 1.409 . S
C1291 H1283 0.930 . S
C1291 C1292 1.355 . S
C1291 C1293 1.415 . S
C1292 C1291 1.355 . S
C1292 C1294 1.419 . S
C1293 C1288 1.425 . S
C1293 C1290 1.409 . S
C1293 C1291 1.415 . S
C1294 H1284 0.930 . S
C1294 C1292 1.419 . S
C1294 C1295 1.362 . S
C1295 H1285 0.930 . S
C1295 C1288 1.409 . S
C1295 C1294 1.362 . S
H1296 C1302 0.930 . S
H1297 C1305 0.930 . S
H1298 C1306 0.930 . S
H1299 C1307 0.930 1_545 S
H1300 C1310 0.930 . S
H1301 C1311 0.930 . S
C1302 H1296 0.930 . S
C1302 C1303 1.351 1_565 S
C1302 C1304 1.415 1_556 S
C1303 C1302 1.351 1_545 S
C1303 C1305 1.422 . S
C1304 C1302 1.415 1_554 S
C1304 C1309 1.425 . S
C1304 C1311 1.409 . S
C1305 H1297 0.930 . S
C1305 C1303 1.422 . S
C1305 C1306 1.362 . S
C1306 H1298 0.930 . S
C1306 C1305 1.362 . S
C1306 C1309 1.409 1_546 S
C1307 H1299 0.930 1_565 S
C1307 C1308 1.355 . S
C1307 C1309 1.415 . S
C1308 C1307 1.355 . S
C1308 C1310 1.419 . S
C1309 C1304 1.425 . S
C1309 C1306 1.409 1_564 S
C1309 C1307 1.415 . S
C1310 H1300 0.930 . S
C1310 C1308 1.419 . S
C1310 C1311 1.362 . S
C1311 H1301 0.930 . S
C1311 C1304 1.409 . S
C1311 C1310 1.362 . S
H1312 C1318 0.930 . S
H1313 C1321 0.930 . S
H1314 C1322 0.930 . S
H1315 C1323 0.930 . S
H1316 C1326 0.930 . S
H1317 C1327 0.930 . S
C1318 H1312 0.930 . S
C1318 C1319 1.355 . S
C1318 C1320 1.415 . S
C1319 C1318 1.355 . S
C1319 C1321 1.419 1_565 S
C1320 C1318 1.415 . S
C1320 C1325 1.425 . S
C1320 C1327 1.409 . S
C1321 H1313 0.930 . S
C1321 C1319 1.419 1_545 S
C1321 C1322 1.362 . S
C1322 H1314 0.930 . S
C1322 C1321 1.362 . S
C1322 C1325 1.409 1_545 S
C1323 H1315 0.930 . S
C1323 C1324 1.355 1_545 S
C1323 C1325 1.415 1_545 S
C1324 C1323 1.355 1_565 S
C1324 C1326 1.419 . S
C1325 C1320 1.425 . S
C1325 C1322 1.409 1_565 S
C1325 C1323 1.415 1_565 S
C1326 H1316 0.930 . S
C1326 C1324 1.419 . S
C1326 C1327 1.362 . S
C1327 H1317 0.930 . S
C1327 C1320 1.409 . S
C1327 C1326 1.362 . S
H1328 C1334 0.930 . S
H1329 C1337 0.930 . S
H1330 C1338 0.946 . S
H1331 C1339 0.930 . S
H1332 C1342 0.930 . S
H1333 C1343 0.930 . S
C1334 H1328 0.930 . S
C1334 C1335 1.355 . S
C1334 C1336 1.415 . S
C1335 C1334 1.355 . S
C1335 C1337 1.419 . S
C1336 C1334 1.415 . S
C1336 C1341 1.425 . S
C1336 C1343 1.409 . S
C1337 H1329 0.930 . S
C1337 C1335 1.419 . S
C1337 C1338 1.362 . S
C1338 H1330 0.946 . S
C1338 C1337 1.362 . S
C1338 C1341 1.409 . S
C1339 H1331 0.930 . S
C1339 C1340 1.355 . S
C1339 C1341 1.415 . S
C1340 C1339 1.355 . S
C1340 C1342 1.419 . S
C1341 C1336 1.425 . S
C1341 C1338 1.409 . S
C1341 C1339 1.415 . S
C1342 H1332 0.930 . S
C1342 C1340 1.419 . S
C1342 C1343 1.362 . S
C1343 H1333 0.930 . S
C1343 C1336 1.409 . S
C1343 C1342 1.362 . S
H1344 C1350 0.930 . S
H1345 C1353 0.930 . S
H1346 C1354 0.930 . S
H1347 C1355 0.930 . S
H1348 C1358 0.930 . S
H1349 C1359 0.930 . S
C1350 H1344 0.930 . S
C1350 C1351 1.355 . S
C1350 C1352 1.415 1_655 S
C1351 C1350 1.355 . S
C1351 C1353 1.419 . S
C1352 C1350 1.415 1_455 S
C1352 C1357 1.425 . S
C1352 C1359 1.409 . S
C1353 H1345 0.930 . S
C1353 C1351 1.419 . S
C1353 C1354 1.362 1_655 S
C1354 H1346 0.930 . S
C1354 C1353 1.362 1_455 S
C1354 C1357 1.409 . S
C1355 H1347 0.930 . S
C1355 C1356 1.355 . S
C1355 C1357 1.415 . S
C1356 C1355 1.355 . S
C1356 C1358 1.419 . S
C1357 C1352 1.425 . S
C1357 C1354 1.409 . S
C1357 C1355 1.415 . S
C1358 H1348 0.930 . S
C1358 C1356 1.419 . S
C1358 C1359 1.362 . S
C1359 H1349 0.930 . S
C1359 C1352 1.409 . S
C1359 C1358 1.362 . S
H1360 C1366 0.930 . S
H1361 C1369 0.930 . S
H1362 C1370 0.930 . S
H1363 C1371 0.930 . S
H1364 C1374 0.930 . S
H1365 C1375 0.930 . S
C1366 H1360 0.930 . S
C1366 C1367 1.355 1_455 S
C1366 C1368 1.415 . S
C1367 C1366 1.355 1_655 S
C1367 C1369 1.419 . S
C1368 C1366 1.415 . S
C1368 C1373 1.425 1_455 S
C1368 C1375 1.409 . S
C1369 H1361 0.930 . S
C1369 C1367 1.419 . S
C1369 C1370 1.362 . S
C1370 H1362 0.930 . S
C1370 C1369 1.362 . S
C1370 C1373 1.409 . S
C1371 H1363 0.930 . S
C1371 C1372 1.355 1_655 S
C1371 C1373 1.415 . S
C1372 C1371 1.355 1_455 S
C1372 C1374 1.419 . S
C1373 C1368 1.425 1_655 S
C1373 C1370 1.409 . S
C1373 C1371 1.415 . S
C1374 H1364 0.930 . S
C1374 C1372 1.419 . S
C1374 C1375 1.362 . S
C1375 H1365 0.930 . S
C1375 C1368 1.409 . S
C1375 C1374 1.362 . S
H1376 C1382 0.930 . S
H1377 C1385 0.930 . S
H1378 C1386 0.930 . S
H1379 C1387 0.930 . S
H1380 C1390 0.930 . S
H1381 C1391 0.930 . S
C1382 H1376 0.930 . S
C1382 C1383 1.355 . S
C1382 C1384 1.415 . S
C1383 C1382 1.355 . S
C1383 C1385 1.419 . S
C1384 C1382 1.415 . S
C1384 C1389 1.425 . S
C1384 C1391 1.409 . S
C1385 H1377 0.930 . S
C1385 C1383 1.419 . S
C1385 C1386 1.362 . S
C1386 H1378 0.930 . S
C1386 C1385 1.362 . S
C1386 C1389 1.409 . S
C1387 H1379 0.930 . S
C1387 C1388 1.355 . S
C1387 C1389 1.415 . S
C1388 C1387 1.355 . S
C1388 C1390 1.419 . S
C1389 C1384 1.425 . S
C1389 C1386 1.409 . S
C1389 C1387 1.415 . S
C1390 H1380 0.930 . S
C1390 C1388 1.419 . S
C1390 C1391 1.362 . S
C1391 H1381 0.930 . S
C1391 C1384 1.409 . S
C1391 C1390 1.362 . S
H1392 C1398 0.930 . S
H1393 C1401 0.930 . S
H1394 C1402 0.930 1_455 S
H1395 C1403 0.930 . S
H1396 C1406 0.930 . S
H1397 C1407 0.930 . S
C1398 H1392 0.930 . S
C1398 C1399 1.355 . S
C1398 C1400 1.415 . S
C1399 C1398 1.355 . S
C1399 C1401 1.419 . S
C1400 C1398 1.415 . S
C1400 C1405 1.425 1_655 S
C1400 C1407 1.409 1_655 S
C1401 H1393 0.930 . S
C1401 C1399 1.419 . S
C1401 C1402 1.362 . S
C1402 H1394 0.930 1_655 S
C1402 C1401 1.362 . S
C1402 C1405 1.409 1_655 S
C1403 H1395 0.930 . S
C1403 C1404 1.355 . S
C1403 C1405 1.415 . S
C1404 C1403 1.355 . S
C1404 C1406 1.419 . S
C1405 C1400 1.425 1_455 S
C1405 C1402 1.409 1_455 S
C1405 C1403 1.415 . S
C1406 H1396 0.930 . S
C1406 C1404 1.419 . S
C1406 C1407 1.362 . S
C1407 H1397 0.930 . S
C1407 C1400 1.409 1_455 S
C1407 C1406 1.362 . S
H1408 C1414 0.930 . S
H1409 C1417 0.923 1_655 S
H1410 C1418 0.930 . S
H1411 C1419 0.930 . S
H1412 C1422 0.930 . S
H1413 C1423 0.930 . S
C1414 H1408 0.930 . S
C1414 C1415 1.355 . S
C1414 C1416 1.415 . S
C1415 C1414 1.355 . S
C1415 C1417 1.430 . S
C1416 C1414 1.415 . S
C1416 C1421 1.425 . S
C1416 C1423 1.409 . S
C1417 H1409 0.923 1_455 S
C1417 C1415 1.430 . S
C1417 C1418 1.358 1_455 S
C1418 H1410 0.930 . S
C1418 C1417 1.358 1_655 S
C1418 C1421 1.409 1_655 S
C1419 H1411 0.930 . S
C1419 C1420 1.355 1_655 S
C1419 C1421 1.415 1_655 S
C1420 C1419 1.355 1_455 S
C1420 C1422 1.419 . S
C1421 C1416 1.425 . S
C1421 C1418 1.409 1_455 S
C1421 C1419 1.415 1_455 S
C1422 H1412 0.930 . S
C1422 C1420 1.419 . S
C1422 C1423 1.362 . S
C1423 H1413 0.930 . S
C1423 C1416 1.409 . S
C1423 C1422 1.362 . S
H1424 C1430 0.930 . S
H1425 C1433 0.930 . S
H1426 C1434 0.930 . S
H1427 C1435 0.930 . S
H1428 C1438 0.930 . S
H1429 C1439 0.930 . S
C1430 H1424 0.930 . S
C1430 C1431 1.355 . S
C1430 C1432 1.415 . S
C1431 C1430 1.355 . S
C1431 C1433 1.419 . S
C1432 C1430 1.415 . S
C1432 C1437 1.425 . S
C1432 C1439 1.409 . S
C1433 H1425 0.930 . S
C1433 C1431 1.419 . S
C1433 C1434 1.362 . S
C1434 H1426 0.930 . S
C1434 C1433 1.362 . S
C1434 C1437 1.409 . S
C1435 H1427 0.930 . S
C1435 C1436 1.355 . S
C1435 C1437 1.415 . S
C1436 C1435 1.355 . S
C1436 C1438 1.419 . S
C1437 C1432 1.425 . S
C1437 C1434 1.409 . S
C1437 C1435 1.415 . S
C1438 H1428 0.930 . S
C1438 C1436 1.419 . S
C1438 C1439 1.362 . S
C1439 H1429 0.930 . S
C1439 C1432 1.409 . S
C1439 C1438 1.362 . S
H1440 C1446 0.930 . S
H1441 C1449 0.930 . S
H1442 C1450 0.930 . S
H1443 C1451 0.930 . S
H1444 C1454 0.930 . S
H1445 C1455 0.930 . S
C1446 H1440 0.930 . S
C1446 C1447 1.355 . S
C1446 C1448 1.415 1_545 S
C1447 C1446 1.355 . S
C1447 C1449 1.419 . S
C1448 C1446 1.415 1_565 S
C1448 C1453 1.425 . S
C1448 C1455 1.409 . S
C1449 H1441 0.930 . S
C1449 C1447 1.419 . S
C1449 C1450 1.362 . S
C1450 H1442 0.930 . S
C1450 C1449 1.362 . S
C1450 C1453 1.409 1_545 S
C1451 H1443 0.930 . S
C1451 C1452 1.355 . S
C1451 C1453 1.415 . S
C1452 C1451 1.355 . S
C1452 C1454 1.419 . S
C1453 C1448 1.425 . S
C1453 C1450 1.409 1_565 S
C1453 C1451 1.415 . S
C1454 H1444 0.930 . S
C1454 C1452 1.419 . S
C1454 C1455 1.362 . S
C1455 H1445 0.930 . S
C1455 C1448 1.409 . S
C1455 C1454 1.362 . S
H1456 C1462 0.930 . S
H1457 C1465 0.930 . S
H1458 C1466 0.930 1_556 S
H1459 C1467 0.930 1_556 S
H1460 C1470 0.930 . S
H1461 C1471 0.930 . S
C1462 H1456 0.930 . S
C1462 C1463 1.355 . S
C1462 C1464 1.415 . S
C1463 C1462 1.355 . S
C1463 C1465 1.419 . S
C1464 C1462 1.415 . S
C1464 C1469 1.425 . S
C1464 C1471 1.409 . S
C1465 H1457 0.930 . S
C1465 C1463 1.419 . S
C1465 C1466 1.362 . S
C1466 H1458 0.930 1_554 S
C1466 C1465 1.362 . S
C1466 C1469 1.409 . S
C1467 H1459 0.930 1_554 S
C1467 C1468 1.355 . S
C1467 C1469 1.415 . S
C1468 C1467 1.355 . S
C1468 C1470 1.419 . S
C1469 C1464 1.425 . S
C1469 C1466 1.409 . S
C1469 C1467 1.415 . S
C1470 H1460 0.930 . S
C1470 C1468 1.419 . S
C1470 C1471 1.362 . S
C1471 H1461 0.930 . S
C1471 C1464 1.409 . S
C1471 C1470 1.362 . S
H1472 C1478 0.930 1_455 S
H1473 C1481 0.930 . S
H1474 C1482 0.930 . S
H1475 C1483 0.930 . S
H1476 C1486 0.930 . S
H1477 C1487 0.930 . S
C1478 H1472 0.930 1_655 S
C1478 C1479 1.355 . S
C1478 C1480 1.415 1_545 S
C1479 C1478 1.355 . S
C1479 C1481 1.419 . S
C1480 C1478 1.415 1_565 S
C1480 C1485 1.425 . S
C1480 C1487 1.409 1_655 S
C1481 H1473 0.930 . S
C1481 C1479 1.419 . S
C1481 C1482 1.362 1_545 S
C1482 H1474 0.930 . S
C1482 C1481 1.362 1_565 S
C1482 C1485 1.409 . S
C1483 H1475 0.930 . S
C1483 C1484 1.355 . S
C1483 C1485 1.415 . S
C1484 C1483 1.355 . S
C1484 C1486 1.419 1_655 S
C1485 C1480 1.425 . S
C1485 C1482 1.409 . S
C1485 C1483 1.415 . S
C1486 H1476 0.930 . S
C1486 C1484 1.419 1_455 S
C1486 C1487 1.362 . S
C1487 H1477 0.930 . S
C1487 C1480 1.409 1_455 S
C1487 C1486 1.362 . S
H1488 C1494 0.930 . S
H1489 C1497 0.930 . S
H1490 C1498 0.930 . S
H1491 C1499 0.930 . S
H1492 C1502 0.930 . S
H1493 C1503 0.930 . S
C1494 H1488 0.930 . S
C1494 C1495 1.355 . S
C1494 C1496 1.415 . S
C1495 C1494 1.355 . S
C1495 C1497 1.419 . S
C1496 C1494 1.415 . S
C1496 C1501 1.425 . S
C1496 C1503 1.409 . S
C1497 H1489 0.930 . S
C1497 C1495 1.419 . S
C1497 C1498 1.362 . S
C1498 H1490 0.930 . S
C1498 C1497 1.362 . S
C1498 C1501 1.409 . S
C1499 H1491 0.930 . S
C1499 C1500 1.355 . S
C1499 C1501 1.415 . S
C1500 C1499 1.355 . S
C1500 C1502 1.419 . S
C1501 C1496 1.425 . S
C1501 C1498 1.409 . S
C1501 C1499 1.415 . S
C1502 H1492 0.930 . S
C1502 C1500 1.419 . S
C1502 C1503 1.362 . S
C1503 H1493 0.930 . S
C1503 C1496 1.409 . S
C1503 C1502 1.362 . S
H1504 C1510 0.930 . S
H1505 C1513 0.930 . S
H1506 C1514 0.930 . S
H1507 C1515 0.930 . S
H1508 C1518 0.930 . S
H1509 C1519 0.935 . S
C1510 H1504 0.930 . S
C1510 C1511 1.355 . S
C1510 C1512 1.415 . S
C1511 C1510 1.355 . S
C1511 C1513 1.419 . S
C1512 C1510 1.415 . S
C1512 C1517 1.425 . S
C1512 C1519 1.419 . S
C1513 H1505 0.930 . S
C1513 C1511 1.419 . S
C1513 C1514 1.362 . S
C1514 H1506 0.930 . S
C1514 C1513 1.362 . S
C1514 C1517 1.409 . S
C1515 H1507 0.930 . S
C1515 C1516 1.355 . S
C1515 C1517 1.415 1_554 S
C1516 C1515 1.355 . S
C1516 C1518 1.419 . S
C1517 C1512 1.425 . S
C1517 C1514 1.409 . S
C1517 C1515 1.415 1_556 S
C1518 H1508 0.930 . S
C1518 C1516 1.419 . S
C1518 C1519 1.347 1_554 S
C1519 H1509 0.935 . S
C1519 C1512 1.419 . S
C1519 C1518 1.347 1_556 S
H1520 C1526 0.930 . S
H1521 C1529 0.930 . S
H1522 C1530 0.930 . S
H1523 C1531 0.930 . S
H1524 C1534 0.930 . S
H1525 C1535 0.930 . S
C1526 H1520 0.930 . S
C1526 C1527 1.355 . S
C1526 C1528 1.415 . S
C1527 C1526 1.355 . S
C1527 C1529 1.419 . S
C1528 C1526 1.415 . S
C1528 C1533 1.425 . S
C1528 C1535 1.409 . S
C1529 H1521 0.930 . S
C1529 C1527 1.419 . S
C1529 C1530 1.362 . S
C1530 H1522 0.930 . S
C1530 C1529 1.362 . S
C1530 C1533 1.409 . S
C1531 H1523 0.930 . S
C1531 C1532 1.355 . S
C1531 C1533 1.415 . S
C1532 C1531 1.355 . S
C1532 C1534 1.419 . S
C1533 C1528 1.425 . S
C1533 C1530 1.409 . S
C1533 C1531 1.415 . S
C1534 H1524 0.930 . S
C1534 C1532 1.419 . S
C1534 C1535 1.362 . S
C1535 H1525 0.930 . S
C1535 C1528 1.409 . S
C1535 C1534 1.362 . S
H1536 C1542 0.930 . S
H1537 C1545 0.930 . S
H1538 C1546 0.930 . S
H1539 C1547 0.930 . S
H1540 C1550 0.930 . S
H1541 C1551 0.930 . S
C1542 H1536 0.930 . S
C1542 C1543 1.355 . S
C1542 C1544 1.415 . S
C1543 C1542 1.355 . S
C1543 C1545 1.419 . S
C1544 C1542 1.415 . S
C1544 C1549 1.425 . S
C1544 C1551 1.409 . S
C1545 H1537 0.930 . S
C1545 C1543 1.419 . S
C1545 C1546 1.362 . S
C1546 H1538 0.930 . S
C1546 C1545 1.362 . S
C1546 C1549 1.409 . S
C1547 H1539 0.930 . S
C1547 C1548 1.355 . S
C1547 C1549 1.415 . S
C1548 C1547 1.355 . S
C1548 C1550 1.419 . S
C1549 C1544 1.425 . S
C1549 C1546 1.409 . S
C1549 C1547 1.415 . S
C1550 H1540 0.930 . S
C1550 C1548 1.419 . S
C1550 C1551 1.362 . S
C1551 H1541 0.930 . S
C1551 C1544 1.409 . S
C1551 C1550 1.362 . S
H1552 C1558 0.930 . S
H1553 C1561 0.930 . S
H1554 C1562 0.930 . S
H1555 C1563 0.930 . S
H1556 C1566 0.930 . S
H1557 C1567 0.930 . S
C1558 H1552 0.930 . S
C1558 C1559 1.355 . S
C1558 C1560 1.415 . S
C1559 C1558 1.355 . S
C1559 C1561 1.419 . S
C1560 C1558 1.415 . S
C1560 C1565 1.425 . S
C1560 C1567 1.409 . S
C1561 H1553 0.930 . S
C1561 C1559 1.419 . S
C1561 C1562 1.362 . S
C1562 H1554 0.930 . S
C1562 C1561 1.362 . S
C1562 C1565 1.409 . S
C1563 H1555 0.930 . S
C1563 C1564 1.355 . S
C1563 C1565 1.415 . S
C1564 C1563 1.355 . S
C1564 C1566 1.419 . S
C1565 C1560 1.425 . S
C1565 C1562 1.409 . S
C1565 C1563 1.415 . S
C1566 H1556 0.930 . S
C1566 C1564 1.419 . S
C1566 C1567 1.362 . S
C1567 H1557 0.930 . S
C1567 C1560 1.409 . S
C1567 C1566 1.362 . S
H1568 C1574 0.930 . S
H1569 C1577 0.930 . S
H1570 C1578 0.930 . S
H1571 C1579 0.930 . S
H1572 C1582 0.930 . S
H1573 C1583 0.930 . S
C1574 H1568 0.930 . S
C1574 C1575 1.355 . S
C1574 C1576 1.415 . S
C1575 C1574 1.355 . S
C1575 C1577 1.419 . S
C1576 C1574 1.415 . S
C1576 C1581 1.425 . S
C1576 C1583 1.409 . S
C1577 H1569 0.930 . S
C1577 C1575 1.419 . S
C1577 C1578 1.362 . S
C1578 H1570 0.930 . S
C1578 C1577 1.362 . S
C1578 C1581 1.409 . S
C1579 H1571 0.930 . S
C1579 C1580 1.355 . S
C1579 C1581 1.415 . S
C1580 C1579 1.355 . S
C1580 C1582 1.419 . S
C1581 C1576 1.425 . S
C1581 C1578 1.409 . S
C1581 C1579 1.415 . S
C1582 H1572 0.930 . S
C1582 C1580 1.419 . S
C1582 C1583 1.362 . S
C1583 H1573 0.930 . S
C1583 C1576 1.409 . S
C1583 C1582 1.362 . S
H1584 C1590 0.930 . S
H1585 C1593 0.930 . S
H1586 C1594 0.930 . S
H1587 C1595 0.930 . S
H1588 C1598 0.930 . S
H1589 C1599 0.930 . S
C1590 H1584 0.930 . S
C1590 C1591 1.355 . S
C1590 C1592 1.415 1_565 S
C1591 C1590 1.355 . S
C1591 C1593 1.419 . S
C1592 C1590 1.415 1_545 S
C1592 C1597 1.425 . S
C1592 C1599 1.409 . S
C1593 H1585 0.930 . S
C1593 C1591 1.419 . S
C1593 C1594 1.362 . S
C1594 H1586 0.930 . S
C1594 C1593 1.362 . S
C1594 C1597 1.409 1_565 S
C1595 H1587 0.930 . S
C1595 C1596 1.355 . S
C1595 C1597 1.415 . S
C1596 C1595 1.355 . S
C1596 C1598 1.419 . S
C1597 C1592 1.425 . S
C1597 C1594 1.409 1_545 S
C1597 C1595 1.415 . S
C1598 H1588 0.930 . S
C1598 C1596 1.419 . S
C1598 C1599 1.362 . S
C1599 H1589 0.930 . S
C1599 C1592 1.409 . S
C1599 C1598 1.362 . S
H1600 C1606 0.930 1_554 S
H1601 C1609 0.930 . S
H1602 C1610 0.930 . S
H1603 C1611 0.930 . S
H1604 C1614 0.930 . S
H1605 C1615 0.930 . S
C1606 H1600 0.930 1_556 S
C1606 C1607 1.355 . S
C1606 C1608 1.415 . S
C1607 C1606 1.355 . S
C1607 C1609 1.419 . S
C1608 C1606 1.415 . S
C1608 C1613 1.425 . S
C1608 C1615 1.409 1_556 S
C1609 H1601 0.930 . S
C1609 C1607 1.419 . S
C1609 C1610 1.362 . S
C1610 H1602 0.930 . S
C1610 C1609 1.362 . S
C1610 C1613 1.409 . S
C1611 H1603 0.930 . S
C1611 C1612 1.355 . S
C1611 C1613 1.415 . S
C1612 C1611 1.355 . S
C1612 C1614 1.419 1_556 S
C1613 C1608 1.425 . S
C1613 C1610 1.409 . S
C1613 C1611 1.415 . S
C1614 H1604 0.930 . S
C1614 C1612 1.419 1_554 S
C1614 C1615 1.362 . S
C1615 H1605 0.930 . S
C1615 C1608 1.409 1_554 S
C1615 C1614 1.362 . S
H1616 C1622 0.930 . S
H1617 C1625 0.930 . S
H1618 C1626 0.930 . S
H1619 C1627 0.930 . S
H1620 C1630 0.930 . S
H1621 C1631 0.930 . S
C1622 H1616 0.930 . S
C1622 C1623 1.355 1_655 S
C1622 C1624 1.415 . S
C1623 C1622 1.355 1_455 S
C1623 C1625 1.419 . S
C1624 C1622 1.415 . S
C1624 C1629 1.425 1_655 S
C1624 C1631 1.409 . S
C1625 H1617 0.930 . S
C1625 C1623 1.419 . S
C1625 C1626 1.362 . S
C1626 H1618 0.930 . S
C1626 C1625 1.362 . S
C1626 C1629 1.409 . S
C1627 H1619 0.930 . S
C1627 C1628 1.355 . S
C1627 C1629 1.415 1_565 S
C1628 C1627 1.355 . S
C1628 C1630 1.419 1_455 S
C1629 C1624 1.425 1_455 S
C1629 C1626 1.409 . S
C1629 C1627 1.415 1_545 S
C1630 H1620 0.930 . S
C1630 C1628 1.419 1_655 S
C1630 C1631 1.362 1_565 S
C1631 H1621 0.930 . S
C1631 C1624 1.409 . S
C1631 C1630 1.362 1_545 S
H1632 C1638 0.930 . S
H1633 C1641 0.930 . S
H1634 C1642 0.930 . S
H1635 C1643 0.930 . S
H1636 C1646 0.930 . S
H1637 C1647 0.930 . S
C1638 H1632 0.930 . S
C1638 C1639 1.355 . S
C1638 C1640 1.415 . S
C1639 C1638 1.355 . S
C1639 C1641 1.419 . S
C1640 C1638 1.415 . S
C1640 C1645 1.425 . S
C1640 C1647 1.409 . S
C1641 H1633 0.930 . S
C1641 C1639 1.419 . S
C1641 C1642 1.362 . S
C1642 H1634 0.930 . S
C1642 C1641 1.362 . S
C1642 C1645 1.409 . S
C1643 H1635 0.930 . S
C1643 C1644 1.355 . S
C1643 C1645 1.415 . S
C1644 C1643 1.355 . S
C1644 C1646 1.419 . S
C1645 C1640 1.425 . S
C1645 C1642 1.409 . S
C1645 C1643 1.415 . S
C1646 H1636 0.930 . S
C1646 C1644 1.419 . S
C1646 C1647 1.362 . S
C1647 H1637 0.930 . S
C1647 C1640 1.409 . S
C1647 C1646 1.362 . S
H1648 C1654 0.930 . S
H1649 C1657 0.930 . S
H1650 C1658 0.930 . S
H1651 C1659 0.930 . S
H1652 C1662 0.930 . S
H1653 C1663 0.933 . S
C1654 H1648 0.930 . S
C1654 C1655 1.355 . S
C1654 C1656 1.415 . S
C1655 C1654 1.355 . S
C1655 C1657 1.419 . S
C1656 C1654 1.415 . S
C1656 C1661 1.425 . S
C1656 C1663 1.415 . S
C1657 H1649 0.930 . S
C1657 C1655 1.419 . S
C1657 C1658 1.362 . S
C1658 H1650 0.930 . S
C1658 C1657 1.362 . S
C1658 C1661 1.409 . S
C1659 H1651 0.930 . S
C1659 C1660 1.355 . S
C1659 C1661 1.415 1_556 S
C1660 C1659 1.355 . S
C1660 C1662 1.419 . S
C1661 C1656 1.425 . S
C1661 C1658 1.409 . S
C1661 C1659 1.415 1_554 S
C1662 H1652 0.930 . S
C1662 C1660 1.419 . S
C1662 C1663 1.353 1_556 S
C1663 H1653 0.933 . S
C1663 C1656 1.415 . S
C1663 C1662 1.353 1_554 S
H1664 C1670 0.930 . S
H1665 C1673 0.930 . S
H1666 C1674 0.930 . S
H1667 C1675 0.930 . S
H1668 C1678 0.930 . S
H1669 C1679 0.930 . S
C1670 H1664 0.930 . S
C1670 C1671 1.355 . S
C1670 C1672 1.415 . S
C1671 C1670 1.355 . S
C1671 C1673 1.419 . S
C1672 C1670 1.415 . S
C1672 C1677 1.425 . S
C1672 C1679 1.409 . S
C1673 H1665 0.930 . S
C1673 C1671 1.419 . S
C1673 C1674 1.362 . S
C1674 H1666 0.930 . S
C1674 C1673 1.362 . S
C1674 C1677 1.409 . S
C1675 H1667 0.930 . S
C1675 C1676 1.355 . S
C1675 C1677 1.415 . S
C1676 C1675 1.355 . S
C1676 C1678 1.419 . S
C1677 C1672 1.425 . S
C1677 C1674 1.409 . S
C1677 C1675 1.415 . S
C1678 H1668 0.930 . S
C1678 C1676 1.419 . S
C1678 C1679 1.362 . S
C1679 H1669 0.930 . S
C1679 C1672 1.409 . S
C1679 C1678 1.362 . S
H1680 C1686 0.930 . S
H1681 C1689 0.930 . S
H1682 C1690 0.930 . S
H1683 C1691 0.930 . S
H1684 C1694 0.930 . S
H1685 C1695 0.930 . S
C1686 H1680 0.930 . S
C1686 C1687 1.355 . S
C1686 C1688 1.415 . S
C1687 C1686 1.355 . S
C1687 C1689 1.419 . S
C1688 C1686 1.415 . S
C1688 C1693 1.425 . S
C1688 C1695 1.409 . S
C1689 H1681 0.930 . S
C1689 C1687 1.419 . S
C1689 C1690 1.362 . S
C1690 H1682 0.930 . S
C1690 C1689 1.362 . S
C1690 C1693 1.409 . S
C1691 H1683 0.930 . S
C1691 C1692 1.355 . S
C1691 C1693 1.415 . S
C1692 C1691 1.355 . S
C1692 C1694 1.419 . S
C1693 C1688 1.425 . S
C1693 C1690 1.409 . S
C1693 C1691 1.415 . S
C1694 H1684 0.930 . S
C1694 C1692 1.419 . S
C1694 C1695 1.362 . S
C1695 H1685 0.930 . S
C1695 C1688 1.409 . S
C1695 C1694 1.362 . S
H1696 C1702 0.930 . S
H1697 C1705 0.930 . S
H1698 C1706 0.930 . S
H1699 C1707 0.930 . S
H1700 C1710 0.930 . S
H1701 C1711 0.930 . S
C1702 H1696 0.930 . S
C1702 C1703 1.355 . S
C1702 C1704 1.415 . S
C1703 C1702 1.355 . S
C1703 C1705 1.419 . S
C1704 C1702 1.415 . S
C1704 C1709 1.425 . S
C1704 C1711 1.409 . S
C1705 H1697 0.930 . S
C1705 C1703 1.419 . S
C1705 C1706 1.362 . S
C1706 H1698 0.930 . S
C1706 C1705 1.362 . S
C1706 C1709 1.409 . S
C1707 H1699 0.930 . S
C1707 C1708 1.355 . S
C1707 C1709 1.415 . S
C1708 C1707 1.355 . S
C1708 C1710 1.419 . S
C1709 C1704 1.425 . S
C1709 C1706 1.409 . S
C1709 C1707 1.415 . S
C1710 H1700 0.930 . S
C1710 C1708 1.419 . S
C1710 C1711 1.362 . S
C1711 H1701 0.930 . S
C1711 C1704 1.409 . S
C1711 C1710 1.362 . S
H1712 C1718 0.930 . S
H1713 C1721 0.930 . S
H1714 C1722 0.930 . S
H1715 C1723 0.930 . S
H1716 C1726 0.930 . S
H1717 C1727 0.930 . S
C1718 H1712 0.930 . S
C1718 C1719 1.355 . S
C1718 C1720 1.415 . S
C1719 C1718 1.355 . S
C1719 C1721 1.419 . S
C1720 C1718 1.415 . S
C1720 C1725 1.425 . S
C1720 C1727 1.409 . S
C1721 H1713 0.930 . S
C1721 C1719 1.419 . S
C1721 C1722 1.362 . S
C1722 H1714 0.930 . S
C1722 C1721 1.362 . S
C1722 C1725 1.409 . S
C1723 H1715 0.930 . S
C1723 C1724 1.355 . S
C1723 C1725 1.415 . S
C1724 C1723 1.355 . S
C1724 C1726 1.419 . S
C1725 C1720 1.425 . S
C1725 C1722 1.409 . S
C1725 C1723 1.415 . S
C1726 H1716 0.930 . S
C1726 C1724 1.419 . S
C1726 C1727 1.362 . S
C1727 H1717 0.930 . S
C1727 C1720 1.409 . S
C1727 C1726 1.362 . S
H1728 C1734 0.930 . S
H1729 C1737 0.930 . S
H1730 C1738 0.930 . S
H1731 C1739 0.930 . S
H1732 C1742 0.930 . S
H1733 C1743 0.930 . S
C1734 H1728 0.930 . S
C1734 C1735 1.355 . S
C1734 C1736 1.415 . S
C1735 C1734 1.355 . S
C1735 C1737 1.419 . S
C1736 C1734 1.415 . S
C1736 C1741 1.425 . S
C1736 C1743 1.409 . S
C1737 H1729 0.930 . S
C1737 C1735 1.419 . S
C1737 C1738 1.362 . S
C1738 H1730 0.930 . S
C1738 C1737 1.362 . S
C1738 C1741 1.409 . S
C1739 H1731 0.930 . S
C1739 C1740 1.355 . S
C1739 C1741 1.415 . S
C1740 C1739 1.355 . S
C1740 C1742 1.419 . S
C1741 C1736 1.425 . S
C1741 C1738 1.409 . S
C1741 C1739 1.415 . S
C1742 H1732 0.930 . S
C1742 C1740 1.419 . S
C1742 C1743 1.362 . S
C1743 H1733 0.930 . S
C1743 C1736 1.409 . S
C1743 C1742 1.362 . S
H1744 C1750 0.930 . S
H1745 C1753 0.930 . S
H1746 C1754 0.930 . S
H1747 C1755 0.930 . S
H1748 C1758 0.930 . S
H1749 C1759 0.930 . S
C1750 H1744 0.930 . S
C1750 C1751 1.355 . S
C1750 C1752 1.415 . S
C1751 C1750 1.355 . S
C1751 C1753 1.419 . S
C1752 C1750 1.415 . S
C1752 C1757 1.425 . S
C1752 C1759 1.409 . S
C1753 H1745 0.930 . S
C1753 C1751 1.419 . S
C1753 C1754 1.362 . S
C1754 H1746 0.930 . S
C1754 C1753 1.362 . S
C1754 C1757 1.409 . S
C1755 H1747 0.930 . S
C1755 C1756 1.355 . S
C1755 C1757 1.415 . S
C1756 C1755 1.355 . S
C1756 C1758 1.419 . S
C1757 C1752 1.425 . S
C1757 C1754 1.409 . S
C1757 C1755 1.415 . S
C1758 H1748 0.930 . S
C1758 C1756 1.419 . S
C1758 C1759 1.362 . S
C1759 H1749 0.930 . S
C1759 C1752 1.409 . S
C1759 C1758 1.362 . S
H1760 C1766 0.930 . S
H1761 C1769 0.930 . S
H1762 C1770 0.930 . S
H1763 C1771 0.930 . S
H1764 C1774 0.930 . S
H1765 C1775 0.930 . S
C1766 H1760 0.930 . S
C1766 C1767 1.355 . S
C1766 C1768 1.415 . S
C1767 C1766 1.355 . S
C1767 C1769 1.419 . S
C1768 C1766 1.415 . S
C1768 C1773 1.425 . S
C1768 C1775 1.409 . S
C1769 H1761 0.930 . S
C1769 C1767 1.419 . S
C1769 C1770 1.362 . S
C1770 H1762 0.930 . S
C1770 C1769 1.362 . S
C1770 C1773 1.409 . S
C1771 H1763 0.930 . S
C1771 C1772 1.355 . S
C1771 C1773 1.415 . S
C1772 C1771 1.355 . S
C1772 C1774 1.419 . S
C1773 C1768 1.425 . S
C1773 C1770 1.409 . S
C1773 C1771 1.415 . S
C1774 H1764 0.930 . S
C1774 C1772 1.419 . S
C1774 C1775 1.362 . S
C1775 H1765 0.930 . S
C1775 C1768 1.409 . S
C1775 C1774 1.362 . S
H1776 C1782 0.930 . S
H1777 C1785 0.930 . S
H1778 C1786 0.930 . S
H1779 C1787 0.930 . S
H1780 C1790 0.930 . S
H1781 C1791 0.930 . S
C1782 H1776 0.930 . S
C1782 C1783 1.355 . S
C1782 C1784 1.415 . S
C1783 C1782 1.355 . S
C1783 C1785 1.419 . S
C1784 C1782 1.415 . S
C1784 C1789 1.425 . S
C1784 C1791 1.409 . S
C1785 H1777 0.930 . S
C1785 C1783 1.419 . S
C1785 C1786 1.362 . S
C1786 H1778 0.930 . S
C1786 C1785 1.362 . S
C1786 C1789 1.409 . S
C1787 H1779 0.930 . S
C1787 C1788 1.355 . S
C1787 C1789 1.415 . S
C1788 C1787 1.355 . S
C1788 C1790 1.419 . S
C1789 C1784 1.425 . S
C1789 C1786 1.409 . S
C1789 C1787 1.415 . S
C1790 H1780 0.930 . S
C1790 C1788 1.419 . S
C1790 C1791 1.362 . S
C1791 H1781 0.930 . S
C1791 C1784 1.409 . S
C1791 C1790 1.362 . S
H1792 C1798 0.930 . S
H1793 C1801 0.930 . S
H1794 C1802 0.930 . S
H1795 C1803 0.930 . S
H1796 C1806 0.930 . S
H1797 C1807 0.930 . S
C1798 H1792 0.930 . S
C1798 C1799 1.355 . S
C1798 C1800 1.415 . S
C1799 C1798 1.355 . S
C1799 C1801 1.419 . S
C1800 C1798 1.415 . S
C1800 C1805 1.425 . S
C1800 C1807 1.409 . S
C1801 H1793 0.930 . S
C1801 C1799 1.419 . S
C1801 C1802 1.362 . S
C1802 H1794 0.930 . S
C1802 C1801 1.362 . S
C1802 C1805 1.409 . S
C1803 H1795 0.930 . S
C1803 C1804 1.355 . S
C1803 C1805 1.415 . S
C1804 C1803 1.355 . S
C1804 C1806 1.419 . S
C1805 C1800 1.425 . S
C1805 C1802 1.409 . S
C1805 C1803 1.415 . S
C1806 H1796 0.930 . S
C1806 C1804 1.419 . S
C1806 C1807 1.362 . S
C1807 H1797 0.930 . S
C1807 C1800 1.409 . S
C1807 C1806 1.362 . S
H1808 C1814 0.930 . S
H1809 C1817 0.930 . S
H1810 C1818 0.930 . S
H1811 C1819 0.930 . S
H1812 C1822 0.930 . S
H1813 C1823 0.930 . S
C1814 H1808 0.930 . S
C1814 C1815 1.355 . S
C1814 C1816 1.415 . S
C1815 C1814 1.355 . S
C1815 C1817 1.419 . S
C1816 C1814 1.415 . S
C1816 C1821 1.425 . S
C1816 C1823 1.409 . S
C1817 H1809 0.930 . S
C1817 C1815 1.419 . S
C1817 C1818 1.362 . S
C1818 H1810 0.930 . S
C1818 C1817 1.362 . S
C1818 C1821 1.409 . S
C1819 H1811 0.930 . S
C1819 C1820 1.355 . S
C1819 C1821 1.415 . S
C1820 C1819 1.355 . S
C1820 C1822 1.419 . S
C1821 C1816 1.425 . S
C1821 C1818 1.409 . S
C1821 C1819 1.415 . S
C1822 H1812 0.930 . S
C1822 C1820 1.419 . S
C1822 C1823 1.362 . S
C1823 H1813 0.930 . S
C1823 C1816 1.409 . S
C1823 C1822 1.362 . S
H1824 C1830 0.930 . S
H1825 C1833 0.930 . S
H1826 C1834 0.930 . S
H1827 C1835 0.930 . S
H1828 C1838 0.930 . S
H1829 C1839 0.930 . S
C1830 H1824 0.930 . S
C1830 C1831 1.355 . S
C1830 C1832 1.415 . S
C1831 C1830 1.355 . S
C1831 C1833 1.419 . S
C1832 C1830 1.415 . S
C1832 C1837 1.425 . S
C1832 C1839 1.409 . S
C1833 H1825 0.930 . S
C1833 C1831 1.419 . S
C1833 C1834 1.362 . S
C1834 H1826 0.930 . S
C1834 C1833 1.362 . S
C1834 C1837 1.409 . S
C1835 H1827 0.930 . S
C1835 C1836 1.355 . S
C1835 C1837 1.415 . S
C1836 C1835 1.355 . S
C1836 C1838 1.419 . S
C1837 C1832 1.425 . S
C1837 C1834 1.409 . S
C1837 C1835 1.415 . S
C1838 H1828 0.930 . S
C1838 C1836 1.419 . S
C1838 C1839 1.362 . S
C1839 H1829 0.930 . S
C1839 C1832 1.409 . S
C1839 C1838 1.362 . S
H1840 C1846 0.930 . S
H1841 C1849 0.930 . S
H1842 C1850 0.930 . S
H1843 C1851 0.930 . S
H1844 C1854 0.930 . S
H1845 C1855 0.930 . S
C1846 H1840 0.930 . S
C1846 C1847 1.355 . S
C1846 C1848 1.415 . S
C1847 C1846 1.355 . S
C1847 C1849 1.419 . S
C1848 C1846 1.415 . S
C1848 C1853 1.425 . S
C1848 C1855 1.409 . S
C1849 H1841 0.930 . S
C1849 C1847 1.419 . S
C1849 C1850 1.362 . S
C1850 H1842 0.930 . S
C1850 C1849 1.362 . S
C1850 C1853 1.409 . S
C1851 H1843 0.930 . S
C1851 C1852 1.355 . S
C1851 C1853 1.415 . S
C1852 C1851 1.355 . S
C1852 C1854 1.419 . S
C1853 C1848 1.425 . S
C1853 C1850 1.409 . S
C1853 C1851 1.415 . S
C1854 H1844 0.930 . S
C1854 C1852 1.419 . S
C1854 C1855 1.362 . S
C1855 H1845 0.930 . S
C1855 C1848 1.409 . S
C1855 C1854 1.362 . S
H1856 C1862 0.930 . S
H1857 C1865 0.930 . S
H1858 C1866 0.930 . S
H1859 C1867 0.930 . S
H1860 C1870 0.930 . S
H1861 C1871 0.930 . S
C1862 H1856 0.930 . S
C1862 C1863 1.355 . S
C1862 C1864 1.415 . S
C1863 C1862 1.355 . S
C1863 C1865 1.419 . S
C1864 C1862 1.415 . S
C1864 C1869 1.425 . S
C1864 C1871 1.409 . S
C1865 H1857 0.930 . S
C1865 C1863 1.419 . S
C1865 C1866 1.362 . S
C1866 H1858 0.930 . S
C1866 C1865 1.362 . S
C1866 C1869 1.409 . S
C1867 H1859 0.930 . S
C1867 C1868 1.355 . S
C1867 C1869 1.415 . S
C1868 C1867 1.355 . S
C1868 C1870 1.419 . S
C1869 C1864 1.425 . S
C1869 C1866 1.409 . S
C1869 C1867 1.415 . S
C1870 H1860 0.930 . S
C1870 C1868 1.419 . S
C1870 C1871 1.362 . S
C1871 H1861 0.930 . S
C1871 C1864 1.409 . S
C1871 C1870 1.362 . S
H1872 C1878 0.930 . S
H1873 C1881 0.930 . S
H1874 C1882 0.930 . S
H1875 C1883 0.930 . S
H1876 C1886 0.930 . S
H1877 C1887 0.930 . S
C1878 H1872 0.930 . S
C1878 C1879 1.355 . S
C1878 C1880 1.415 . S
C1879 C1878 1.355 . S
C1879 C1881 1.419 . S
C1880 C1878 1.415 . S
C1880 C1885 1.425 . S
C1880 C1887 1.409 . S
C1881 H1873 0.930 . S
C1881 C1879 1.419 . S
C1881 C1882 1.362 . S
C1882 H1874 0.930 . S
C1882 C1881 1.362 . S
C1882 C1885 1.409 . S
C1883 H1875 0.930 . S
C1883 C1884 1.355 . S
C1883 C1885 1.415 . S
C1884 C1883 1.355 . S
C1884 C1886 1.419 . S
C1885 C1880 1.425 . S
C1885 C1882 1.409 . S
C1885 C1883 1.415 . S
C1886 H1876 0.930 . S
C1886 C1884 1.419 . S
C1886 C1887 1.362 . S
C1887 H1877 0.930 . S
C1887 C1880 1.409 . S
C1887 C1886 1.362 . S
H1888 C1894 0.930 . S
H1889 C1897 0.930 . S
H1890 C1898 0.930 . S
H1891 C1899 0.930 . S
H1892 C1902 0.930 . S
H1893 C1903 0.930 . S
C1894 H1888 0.930 . S
C1894 C1895 1.355 . S
C1894 C1896 1.415 . S
C1895 C1894 1.355 . S
C1895 C1897 1.419 . S
C1896 C1894 1.415 . S
C1896 C1901 1.425 . S
C1896 C1903 1.409 . S
C1897 H1889 0.930 . S
C1897 C1895 1.419 . S
C1897 C1898 1.362 . S
C1898 H1890 0.930 . S
C1898 C1897 1.362 . S
C1898 C1901 1.409 . S
C1899 H1891 0.930 . S
C1899 C1900 1.355 . S
C1899 C1901 1.415 . S
C1900 C1899 1.355 . S
C1900 C1902 1.419 . S
C1901 C1896 1.425 . S
C1901 C1898 1.409 . S
C1901 C1899 1.415 . S
C1902 H1892 0.930 . S
C1902 C1900 1.419 . S
C1902 C1903 1.362 . S
C1903 H1893 0.930 . S
C1903 C1896 1.409 . S
C1903 C1902 1.362 . S
H1904 C1910 0.930 1_556 S
H1905 C1913 0.930 . S
H1906 C1914 0.930 . S
H1907 C1915 0.930 . S
H1908 C1918 0.930 . S
H1909 C1919 0.930 1_556 S
C1910 H1904 0.930 1_554 S
C1910 C1911 1.355 . S
C1910 C1912 1.415 . S
C1911 C1910 1.355 . S
C1911 C1913 1.419 . S
C1912 C1910 1.415 . S
C1912 C1917 1.425 . S
C1912 C1919 1.409 . S
C1913 H1905 0.930 . S
C1913 C1911 1.419 . S
C1913 C1914 1.362 . S
C1914 H1906 0.930 . S
C1914 C1913 1.362 . S
C1914 C1917 1.409 . S
C1915 H1907 0.930 . S
C1915 C1916 1.355 . S
C1915 C1917 1.415 . S
C1916 C1915 1.355 . S
C1916 C1918 1.419 . S
C1917 C1912 1.425 . S
C1917 C1914 1.409 . S
C1917 C1915 1.415 . S
C1918 H1908 0.930 . S
C1918 C1916 1.419 . S
C1918 C1919 1.362 . S
C1919 H1909 0.930 1_554 S
C1919 C1912 1.409 . S
C1919 C1918 1.362 . S
H1920 C1926 0.930 . S
H1921 C1929 0.930 . S
H1922 C1930 0.930 . S
H1923 C1931 0.930 . S
H1924 C1934 0.930 . S
H1925 C1935 0.930 . S
C1926 H1920 0.930 . S
C1926 C1927 1.355 . S
C1926 C1928 1.415 . S
C1927 C1926 1.355 . S
C1927 C1929 1.419 . S
C1928 C1926 1.415 . S
C1928 C1933 1.425 . S
C1928 C1935 1.409 . S
C1929 H1921 0.930 . S
C1929 C1927 1.419 . S
C1929 C1930 1.362 . S
C1930 H1922 0.930 . S
C1930 C1929 1.362 . S
C1930 C1933 1.409 . S
C1931 H1923 0.930 . S
C1931 C1932 1.355 . S
C1931 C1933 1.415 . S
C1932 C1931 1.355 . S
C1932 C1934 1.419 . S
C1933 C1928 1.425 . S
C1933 C1930 1.409 . S
C1933 C1931 1.415 . S
C1934 H1924 0.930 . S
C1934 C1932 1.419 . S
C1934 C1935 1.362 . S
C1935 H1925 0.930 . S
C1935 C1928 1.409 . S
C1935 C1934 1.362 . S
H1936 C1942 0.930 . S
H1937 C1945 0.930 . S
H1938 C1946 0.930 . S
H1939 C1947 0.930 . S
H1940 C1950 0.930 . S
H1941 C1951 0.930 . S
C1942 H1936 0.930 . S
C1942 C1943 1.355 . S
C1942 C1944 1.415 . S
C1943 C1942 1.355 . S
C1943 C1945 1.419 . S
C1944 C1942 1.415 . S
C1944 C1949 1.425 . S
C1944 C1951 1.409 . S
C1945 H1937 0.930 . S
C1945 C1943 1.419 . S
C1945 C1946 1.362 . S
C1946 H1938 0.930 . S
C1946 C1945 1.362 . S
C1946 C1949 1.409 . S
C1947 H1939 0.930 . S
C1947 C1948 1.355 . S
C1947 C1949 1.415 . S
C1948 C1947 1.355 . S
C1948 C1950 1.419 . S
C1949 C1944 1.425 . S
C1949 C1946 1.409 . S
C1949 C1947 1.415 . S
C1950 H1940 0.930 . S
C1950 C1948 1.419 . S
C1950 C1951 1.362 . S
C1951 H1941 0.930 . S
C1951 C1944 1.409 . S
C1951 C1950 1.362 . S
H1952 C1958 0.930 . S
H1953 C1961 0.930 . S
H1954 C1962 0.930 . S
H1955 C1963 0.930 . S
H1956 C1966 0.930 . S
H1957 C1967 0.930 . S
C1958 H1952 0.930 . S
C1958 C1959 1.355 . S
C1958 C1960 1.415 . S
C1959 C1958 1.355 . S
C1959 C1961 1.419 . S
C1960 C1958 1.415 . S
C1960 C1965 1.425 . S
C1960 C1967 1.409 . S
C1961 H1953 0.930 . S
C1961 C1959 1.419 . S
C1961 C1962 1.362 . S
C1962 H1954 0.930 . S
C1962 C1961 1.362 . S
C1962 C1965 1.409 . S
C1963 H1955 0.930 . S
C1963 C1964 1.355 . S
C1963 C1965 1.415 . S
C1964 C1963 1.355 . S
C1964 C1966 1.419 . S
C1965 C1960 1.425 . S
C1965 C1962 1.409 . S
C1965 C1963 1.415 . S
C1966 H1956 0.930 . S
C1966 C1964 1.419 . S
C1966 C1967 1.362 . S
C1967 H1957 0.930 . S
C1967 C1960 1.409 . S
C1967 C1966 1.362 . S
H1968 C1974 0.930 . S
H1969 C1977 0.930 . S
H1970 C1978 0.930 . S
H1971 C1979 0.930 . S
H1972 C1982 0.930 . S
H1973 C1983 0.930 . S
C1974 H1968 0.930 . S
C1974 C1975 1.355 . S
C1974 C1976 1.415 . S
C1975 C1974 1.355 . S
C1975 C1977 1.419 . S
C1976 C1974 1.415 . S
C1976 C1981 1.425 . S
C1976 C1983 1.409 . S
C1977 H1969 0.930 . S
C1977 C1975 1.419 . S
C1977 C1978 1.362 . S
C1978 H1970 0.930 . S
C1978 C1977 1.362 . S
C1978 C1981 1.409 . S
C1979 H1971 0.930 . S
C1979 C1980 1.355 . S
C1979 C1981 1.415 . S
C1980 C1979 1.355 . S
C1980 C1982 1.419 . S
C1981 C1976 1.425 . S
C1981 C1978 1.409 . S
C1981 C1979 1.415 . S
C1982 H1972 0.930 . S
C1982 C1980 1.419 . S
C1982 C1983 1.362 . S
C1983 H1973 0.930 . S
C1983 C1976 1.409 . S
C1983 C1982 1.362 . S
H1984 C1990 0.930 . S
H1985 C1993 0.930 . S
H1986 C1994 0.930 . S
H1987 C1995 0.930 . S
H1988 C1998 0.930 . S
H1989 C1999 0.930 . S
C1990 H1984 0.930 . S
C1990 C1991 1.355 . S
C1990 C1992 1.415 . S
C1991 C1990 1.355 . S
C1991 C1993 1.419 . S
C1992 C1990 1.415 . S
C1992 C1997 1.425 . S
C1992 C1999 1.409 . S
C1993 H1985 0.930 . S
C1993 C1991 1.419 . S
C1993 C1994 1.362 . S
C1994 H1986 0.930 . S
C1994 C1993 1.362 . S
C1994 C1997 1.409 . S
C1995 H1987 0.930 . S
C1995 C1996 1.355 . S
C1995 C1997 1.415 . S
C1996 C1995 1.355 . S
C1996 C1998 1.419 . S
C1997 C1992 1.425 . S
C1997 C1994 1.409 . S
C1997 C1995 1.415 . S
C1998 H1988 0.930 . S
C1998 C1996 1.419 . S
C1998 C1999 1.362 . S
C1999 H1989 0.930 . S
C1999 C1992 1.409 . S
C1999 C1998 1.362 . S
H2000 C2006 0.930 . S
H2001 C2009 0.930 . S
H2002 C2010 0.930 . S
H2003 C2011 0.930 . S
H2004 C2014 0.930 . S
H2005 C2015 0.930 . S
C2006 H2000 0.930 . S
C2006 C2007 1.355 . S
C2006 C2008 1.415 . S
C2007 C2006 1.355 . S
C2007 C2009 1.419 . S
C2008 C2006 1.415 . S
C2008 C2013 1.425 . S
C2008 C2015 1.409 . S
C2009 H2001 0.930 . S
C2009 C2007 1.419 . S
C2009 C2010 1.362 . S
C2010 H2002 0.930 . S
C2010 C2009 1.362 . S
C2010 C2013 1.409 . S
C2011 H2003 0.930 . S
C2011 C2012 1.355 . S
C2011 C2013 1.415 . S
C2012 C2011 1.355 . S
C2012 C2014 1.419 . S
C2013 C2008 1.425 . S
C2013 C2010 1.409 . S
C2013 C2011 1.415 . S
C2014 H2004 0.930 . S
C2014 C2012 1.419 . S
C2014 C2015 1.362 . S
C2015 H2005 0.930 . S
C2015 C2008 1.409 . S
C2015 C2014 1.362 . S
H2016 C2022 0.930 . S
H2017 C2025 0.930 . S
H2018 C2026 0.930 . S
H2019 C2027 0.930 . S
H2020 C2030 0.930 . S
H2021 C2031 0.930 . S
C2022 H2016 0.930 . S
C2022 C2023 1.355 . S
C2022 C2024 1.415 . S
C2023 C2022 1.355 . S
C2023 C2025 1.419 . S
C2024 C2022 1.415 . S
C2024 C2029 1.425 . S
C2024 C2031 1.409 . S
C2025 H2017 0.930 . S
C2025 C2023 1.419 . S
C2025 C2026 1.362 . S
C2026 H2018 0.930 . S
C2026 C2025 1.362 . S
C2026 C2029 1.409 . S
C2027 H2019 0.930 . S
C2027 C2028 1.355 . S
C2027 C2029 1.415 . S
C2028 C2027 1.355 . S
C2028 C2030 1.419 . S
C2029 C2024 1.425 . S
C2029 C2026 1.409 . S
C2029 C2027 1.415 . S
C2030 H2020 0.930 . S
C2030 C2028 1.419 . S
C2030 C2031 1.362 . S
C2031 H2021 0.930 . S
C2031 C2024 1.409 . S
C2031 C2030 1.362 . S
H2032 C2038 0.930 . S
H2033 C2041 0.930 . S
H2034 C2042 0.930 . S
H2035 C2043 0.930 . S
H2036 C2046 0.930 . S
H2037 C2047 0.930 . S
C2038 H2032 0.930 . S
C2038 C2039 1.355 . S
C2038 C2040 1.415 . S
C2039 C2038 1.355 . S
C2039 C2041 1.419 . S
C2040 C2038 1.415 . S
C2040 C2045 1.425 . S
C2040 C2047 1.409 . S
C2041 H2033 0.930 . S
C2041 C2039 1.419 . S
C2041 C2042 1.362 . S
C2042 H2034 0.930 . S
C2042 C2041 1.362 . S
C2042 C2045 1.409 . S
C2043 H2035 0.930 . S
C2043 C2044 1.355 . S
C2043 C2045 1.415 . S
C2044 C2043 1.355 . S
C2044 C2046 1.419 . S
C2045 C2040 1.425 . S
C2045 C2042 1.409 . S
C2045 C2043 1.415 . S
C2046 H2036 0.930 . S
C2046 C2044 1.419 . S
C2046 C2047 1.362 . S
C2047 H2037 0.930 . S
C2047 C2040 1.409 . S
C2047 C2046 1.362 . S
H2048 C2054 0.930 . S
H2049 C2057 0.930 . S
H2050 C2058 0.930 . S
H2051 C2059 0.930 . S
H2052 C2062 0.930 . S
H2053 C2063 0.930 . S
C2054 H2048 0.930 . S
C2054 C2055 1.355 . S
C2054 C2056 1.415 . S
C2055 C2054 1.355 . S
C2055 C2057 1.419 . S
C2056 C2054 1.415 . S
C2056 C2061 1.425 . S
C2056 C2063 1.409 . S
C2057 H2049 0.930 . S
C2057 C2055 1.419 . S
C2057 C2058 1.362 . S
C2058 H2050 0.930 . S
C2058 C2057 1.362 . S
C2058 C2061 1.409 . S
C2059 H2051 0.930 . S
C2059 C2060 1.355 . S
C2059 C2061 1.415 . S
C2060 C2059 1.355 . S
C2060 C2062 1.419 . S
C2061 C2056 1.425 . S
C2061 C2058 1.409 . S
C2061 C2059 1.415 . S
C2062 H2052 0.930 . S
C2062 C2060 1.419 . S
C2062 C2063 1.362 . S
C2063 H2053 0.930 . S
C2063 C2056 1.409 . S
C2063 C2062 1.362 . S
H2064 C2070 0.930 . S
H2065 C2073 0.930 . S
H2066 C2074 0.930 . S
H2067 C2075 0.930 . S
H2068 C2078 0.930 . S
H2069 C2079 0.930 . S
C2070 H2064 0.930 . S
C2070 C2071 1.355 . S
C2070 C2072 1.415 . S
C2071 C2070 1.355 . S
C2071 C2073 1.419 . S
C2072 C2070 1.415 . S
C2072 C2077 1.425 . S
C2072 C2079 1.409 . S
C2073 H2065 0.930 . S
C2073 C2071 1.419 . S
C2073 C2074 1.362 . S
C2074 H2066 0.930 . S
C2074 C2073 1.362 . S
C2074 C2077 1.409 . S
C2075 H2067 0.930 . S
C2075 C2076 1.355 . S
C2075 C2077 1.415 . S
C2076 C2075 1.355 . S
C2076 C2078 1.419 . S
C2077 C2072 1.425 . S
C2077 C2074 1.409 . S
C2077 C2075 1.415 . S
C2078 H2068 0.930 . S
C2078 C2076 1.419 . S
C2078 C2079 1.362 . S
C2079 H2069 0.930 . S
C2079 C2072 1.409 . S
C2079 C2078 1.362 . S
H2080 C2086 0.930 . S
H2081 C2089 0.930 . S
H2082 C2090 0.930 . S
H2083 C2091 0.930 . S
H2084 C2094 0.930 . S
H2085 C2095 0.930 . S
C2086 H2080 0.930 . S
C2086 C2087 1.355 . S
C2086 C2088 1.415 . S
C2087 C2086 1.355 . S
C2087 C2089 1.419 . S
C2088 C2086 1.415 . S
C2088 C2093 1.425 . S
C2088 C2095 1.409 . S
C2089 H2081 0.930 . S
C2089 C2087 1.419 . S
C2089 C2090 1.362 . S
C2090 H2082 0.930 . S
C2090 C2089 1.362 . S
C2090 C2093 1.409 . S
C2091 H2083 0.930 . S
C2091 C2092 1.355 . S
C2091 C2093 1.415 . S
C2092 C2091 1.355 . S
C2092 C2094 1.419 . S
C2093 C2088 1.425 . S
C2093 C2090 1.409 . S
C2093 C2091 1.415 . S
C2094 H2084 0.930 . S
C2094 C2092 1.419 . S
C2094 C2095 1.362 . S
C2095 H2085 0.930 . S
C2095 C2088 1.409 . S
C2095 C2094 1.362 . S
H2096 C2102 0.930 . S
H2097 C2105 0.930 . S
H2098 C2106 0.930 . S
H2099 C2107 0.930 . S
H2100 C2110 0.930 . S
H2101 C2111 0.930 . S
C2102 H2096 0.930 . S
C2102 C2103 1.355 . S
C2102 C2104 1.415 . S
C2103 C2102 1.355 . S
C2103 C2105 1.419 . S
C2104 C2102 1.415 . S
C2104 C2109 1.425 . S
C2104 C2111 1.409 . S
C2105 H2097 0.930 . S
C2105 C2103 1.419 . S
C2105 C2106 1.362 . S
C2106 H2098 0.930 . S
C2106 C2105 1.362 . S
C2106 C2109 1.409 . S
C2107 H2099 0.930 . S
C2107 C2108 1.355 . S
C2107 C2109 1.415 . S
C2108 C2107 1.355 . S
C2108 C2110 1.419 . S
C2109 C2104 1.425 . S
C2109 C2106 1.409 . S
C2109 C2107 1.415 . S
C2110 H2100 0.930 . S
C2110 C2108 1.419 . S
C2110 C2111 1.362 . S
C2111 H2101 0.930 . S
C2111 C2104 1.409 . S
C2111 C2110 1.362 . S
H2112 C2118 0.930 . S
H2113 C2121 0.930 . S
H2114 C2122 0.930 . S
H2115 C2123 0.930 . S
H2116 C2126 0.930 . S
H2117 C2127 0.930 . S
C2118 H2112 0.930 . S
C2118 C2119 1.355 . S
C2118 C2120 1.415 . S
C2119 C2118 1.355 . S
C2119 C2121 1.419 . S
C2120 C2118 1.415 . S
C2120 C2125 1.425 . S
C2120 C2127 1.409 . S
C2121 H2113 0.930 . S
C2121 C2119 1.419 . S
C2121 C2122 1.362 . S
C2122 H2114 0.930 . S
C2122 C2121 1.362 . S
C2122 C2125 1.409 . S
C2123 H2115 0.930 . S
C2123 C2124 1.355 . S
C2123 C2125 1.415 . S
C2124 C2123 1.355 . S
C2124 C2126 1.419 . S
C2125 C2120 1.425 . S
C2125 C2122 1.409 . S
C2125 C2123 1.415 . S
C2126 H2116 0.930 . S
C2126 C2124 1.419 . S
C2126 C2127 1.362 . S
C2127 H2117 0.930 . S
C2127 C2120 1.409 . S
C2127 C2126 1.362 . S
H2128 C2134 0.930 . S
H2129 C2137 0.930 . S
H2130 C2138 0.930 . S
H2131 C2139 0.930 . S
H2132 C2142 0.930 . S
H2133 C2143 0.930 . S
C2134 H2128 0.930 . S
C2134 C2135 1.355 . S
C2134 C2136 1.415 . S
C2135 C2134 1.355 . S
C2135 C2137 1.419 . S
C2136 C2134 1.415 . S
C2136 C2141 1.425 . S
C2136 C2143 1.409 . S
C2137 H2129 0.930 . S
C2137 C2135 1.419 . S
C2137 C2138 1.362 . S
C2138 H2130 0.930 . S
C2138 C2137 1.362 . S
C2138 C2141 1.409 . S
C2139 H2131 0.930 . S
C2139 C2140 1.355 . S
C2139 C2141 1.415 . S
C2140 C2139 1.355 . S
C2140 C2142 1.419 . S
C2141 C2136 1.425 . S
C2141 C2138 1.409 . S
C2141 C2139 1.415 . S
C2142 H2132 0.930 . S
C2142 C2140 1.419 . S
C2142 C2143 1.362 . S
C2143 H2133 0.930 . S
C2143 C2136 1.409 . S
C2143 C2142 1.362 . S
H2144 C2150 0.930 . S
H2145 C2153 0.930 . S
H2146 C2154 0.930 . S
H2147 C2155 0.930 . S
H2148 C2158 0.930 . S
H2149 C2159 0.930 . S
C2150 H2144 0.930 . S
C2150 C2151 1.355 . S
C2150 C2152 1.415 . S
C2151 C2150 1.355 . S
C2151 C2153 1.419 . S
C2152 C2150 1.415 . S
C2152 C2157 1.425 . S
C2152 C2159 1.409 . S
C2153 H2145 0.930 . S
C2153 C2151 1.419 . S
C2153 C2154 1.362 . S
C2154 H2146 0.930 . S
C2154 C2153 1.362 . S
C2154 C2157 1.409 . S
C2155 H2147 0.930 . S
C2155 C2156 1.355 . S
C2155 C2157 1.415 . S
C2156 C2155 1.355 . S
C2156 C2158 1.419 . S
C2157 C2152 1.425 . S
C2157 C2154 1.409 . S
C2157 C2155 1.415 . S
C2158 H2148 0.930 . S
C2158 C2156 1.419 . S
C2158 C2159 1.362 . S
C2159 H2149 0.930 . S
C2159 C2152 1.409 . S
C2159 C2158 1.362 . S
H2160 C2166 0.930 . S
H2161 C2169 0.930 . S
H2162 C2170 0.930 . S
H2163 C2171 0.930 . S
H2164 C2174 0.930 . S
H2165 C2175 0.930 . S
C2166 H2160 0.930 . S
C2166 C2167 1.355 . S
C2166 C2168 1.415 . S
C2167 C2166 1.355 . S
C2167 C2169 1.419 . S
C2168 C2166 1.415 . S
C2168 C2173 1.425 . S
C2168 C2175 1.409 . S
C2169 H2161 0.930 . S
C2169 C2167 1.419 . S
C2169 C2170 1.362 . S
C2170 H2162 0.930 . S
C2170 C2169 1.362 . S
C2170 C2173 1.409 . S
C2171 H2163 0.930 . S
C2171 C2172 1.355 . S
C2171 C2173 1.415 . S
C2172 C2171 1.355 . S
C2172 C2174 1.419 . S
C2173 C2168 1.425 . S
C2173 C2170 1.409 . S
C2173 C2171 1.415 . S
C2174 H2164 0.930 . S
C2174 C2172 1.419 . S
C2174 C2175 1.362 . S
C2175 H2165 0.930 . S
C2175 C2168 1.409 . S
C2175 C2174 1.362 . S
H2176 C2182 0.930 . S
H2177 C2185 0.930 . S
H2178 C2186 0.930 . S
H2179 C2187 0.930 . S
H2180 C2190 0.930 . S
H2181 C2191 0.930 . S
C2182 H2176 0.930 . S
C2182 C2183 1.355 . S
C2182 C2184 1.415 . S
C2183 C2182 1.355 . S
C2183 C2185 1.419 . S
C2184 C2182 1.415 . S
C2184 C2189 1.425 . S
C2184 C2191 1.409 . S
C2185 H2177 0.930 . S
C2185 C2183 1.419 . S
C2185 C2186 1.362 . S
C2186 H2178 0.930 . S
C2186 C2185 1.362 . S
C2186 C2189 1.409 . S
C2187 H2179 0.930 . S
C2187 C2188 1.355 . S
C2187 C2189 1.415 . S
C2188 C2187 1.355 . S
C2188 C2190 1.419 . S
C2189 C2184 1.425 . S
C2189 C2186 1.409 . S
C2189 C2187 1.415 . S
C2190 H2180 0.930 . S
C2190 C2188 1.419 . S
C2190 C2191 1.362 . S
C2191 H2181 0.930 . S
C2191 C2184 1.409 . S
C2191 C2190 1.362 . S
H2192 C2198 0.930 . S
H2193 C2201 0.930 . S
H2194 C2202 0.930 . S
H2195 C2203 0.930 . S
H2196 C2206 0.930 . S
H2197 C2207 0.930 . S
C2198 H2192 0.930 . S
C2198 C2199 1.355 . S
C2198 C2200 1.415 . S
C2199 C2198 1.355 . S
C2199 C2201 1.419 . S
C2200 C2198 1.415 . S
C2200 C2205 1.425 . S
C2200 C2207 1.409 . S
C2201 H2193 0.930 . S
C2201 C2199 1.419 . S
C2201 C2202 1.362 . S
C2202 H2194 0.930 . S
C2202 C2201 1.362 . S
C2202 C2205 1.409 . S
C2203 H2195 0.930 . S
C2203 C2204 1.355 . S
C2203 C2205 1.415 . S
C2204 C2203 1.355 . S
C2204 C2206 1.419 . S
C2205 C2200 1.425 . S
C2205 C2202 1.409 . S
C2205 C2203 1.415 . S
C2206 H2196 0.930 . S
C2206 C2204 1.419 . S
C2206 C2207 1.362 . S
C2207 H2197 0.930 . S
C2207 C2200 1.409 . S
C2207 C2206 1.362 . S
H2208 C2214 0.930 . S
H2209 C2217 0.930 . S
H2210 C2218 0.930 . S
H2211 C2219 0.930 . S
H2212 C2222 0.930 . S
H2213 C2223 0.930 . S
C2214 H2208 0.930 . S
C2214 C2215 1.355 . S
C2214 C2216 1.415 . S
C2215 C2214 1.355 . S
C2215 C2217 1.419 . S
C2216 C2214 1.415 . S
C2216 C2221 1.425 . S
C2216 C2223 1.409 . S
C2217 H2209 0.930 . S
C2217 C2215 1.419 . S
C2217 C2218 1.362 . S
C2218 H2210 0.930 . S
C2218 C2217 1.362 . S
C2218 C2221 1.409 . S
C2219 H2211 0.930 . S
C2219 C2220 1.355 . S
C2219 C2221 1.415 . S
C2220 C2219 1.355 . S
C2220 C2222 1.419 . S
C2221 C2216 1.425 . S
C2221 C2218 1.409 . S
C2221 C2219 1.415 . S
C2222 H2212 0.930 . S
C2222 C2220 1.419 . S
C2222 C2223 1.362 . S
C2223 H2213 0.930 . S
C2223 C2216 1.409 . S
C2223 C2222 1.362 . S
H2224 C2230 0.930 . S
H2225 C2233 0.930 . S
H2226 C2234 0.930 . S
H2227 C2235 0.930 . S
H2228 C2238 0.930 . S
H2229 C2239 0.930 . S
C2230 H2224 0.930 . S
C2230 C2231 1.355 . S
C2230 C2232 1.415 . S
C2231 C2230 1.355 . S
C2231 C2233 1.419 . S
C2232 C2230 1.415 . S
C2232 C2237 1.425 . S
C2232 C2239 1.409 . S
C2233 H2225 0.930 . S
C2233 C2231 1.419 . S
C2233 C2234 1.362 . S
C2234 H2226 0.930 . S
C2234 C2233 1.362 . S
C2234 C2237 1.409 . S
C2235 H2227 0.930 . S
C2235 C2236 1.355 . S
C2235 C2237 1.415 . S
C2236 C2235 1.355 . S
C2236 C2238 1.419 . S
C2237 C2232 1.425 . S
C2237 C2234 1.409 . S
C2237 C2235 1.415 . S
C2238 H2228 0.930 . S
C2238 C2236 1.419 . S
C2238 C2239 1.362 . S
C2239 H2229 0.930 . S
C2239 C2232 1.409 . S
C2239 C2238 1.362 . S
H2240 C2246 0.930 . S
H2241 C2249 0.930 . S
H2242 C2250 0.930 . S
H2243 C2251 0.930 . S
H2244 C2254 0.930 . S
H2245 C2255 0.930 . S
C2246 H2240 0.930 . S
C2246 C2247 1.355 . S
C2246 C2248 1.415 . S
C2247 C2246 1.355 . S
C2247 C2249 1.419 . S
C2248 C2246 1.415 . S
C2248 C2253 1.425 . S
C2248 C2255 1.409 . S
C2249 H2241 0.930 . S
C2249 C2247 1.419 . S
C2249 C2250 1.362 . S
C2250 H2242 0.930 . S
C2250 C2249 1.362 . S
C2250 C2253 1.409 . S
C2251 H2243 0.930 . S
C2251 C2252 1.355 . S
C2251 C2253 1.415 . S
C2252 C2251 1.355 . S
C2252 C2254 1.419 . S
C2253 C2248 1.425 . S
C2253 C2250 1.409 . S
C2253 C2251 1.415 . S
C2254 H2244 0.930 . S
C2254 C2252 1.419 . S
C2254 C2255 1.362 . S
C2255 H2245 0.930 . S
C2255 C2248 1.409 . S
C2255 C2254 1.362 . S
H2256 C2262 0.930 . S
H2257 C2265 0.930 . S
H2258 C2266 0.930 . S
H2259 C2267 0.930 . S
H2260 C2270 0.930 . S
H2261 C2271 0.930 . S
C2262 H2256 0.930 . S
C2262 C2263 1.355 . S
C2262 C2264 1.415 . S
C2263 C2262 1.355 . S
C2263 C2265 1.419 . S
C2264 C2262 1.415 . S
C2264 C2269 1.425 . S
C2264 C2271 1.409 . S
C2265 H2257 0.930 . S
C2265 C2263 1.419 . S
C2265 C2266 1.362 . S
C2266 H2258 0.930 . S
C2266 C2265 1.362 . S
C2266 C2269 1.409 . S
C2267 H2259 0.930 . S
C2267 C2268 1.355 . S
C2267 C2269 1.415 . S
C2268 C2267 1.355 . S
C2268 C2270 1.419 . S
C2269 C2264 1.425 . S
C2269 C2266 1.409 . S
C2269 C2267 1.415 . S
C2270 H2260 0.930 . S
C2270 C2268 1.419 . S
C2270 C2271 1.362 . S
C2271 H2261 0.930 . S
C2271 C2264 1.409 . S
C2271 C2270 1.362 . S
H2272 C2278 0.930 . S
H2273 C2281 0.930 . S
H2274 C2282 0.930 . S
H2275 C2283 0.930 . S
H2276 C2286 0.930 . S
H2277 C2287 0.930 . S
C2278 H2272 0.930 . S
C2278 C2279 1.355 . S
C2278 C2280 1.415 . S
C2279 C2278 1.355 . S
C2279 C2281 1.419 . S
C2280 C2278 1.415 . S
C2280 C2285 1.425 . S
C2280 C2287 1.409 . S
C2281 H2273 0.930 . S
C2281 C2279 1.419 . S
C2281 C2282 1.362 . S
C2282 H2274 0.930 . S
C2282 C2281 1.362 . S
C2282 C2285 1.409 . S
C2283 H2275 0.930 . S
C2283 C2284 1.355 . S
C2283 C2285 1.415 . S
C2284 C2283 1.355 . S
C2284 C2286 1.419 . S
C2285 C2280 1.425 . S
C2285 C2282 1.409 . S
C2285 C2283 1.415 . S
C2286 H2276 0.930 . S
C2286 C2284 1.419 . S
C2286 C2287 1.362 . S
C2287 H2277 0.930 . S
C2287 C2280 1.409 . S
C2287 C2286 1.362 . S
H2288 C2294 0.930 . S
H2289 C2297 0.930 . S
H2290 C2298 0.930 . S
H2291 C2299 0.930 . S
H2292 C2302 0.930 . S
H2293 C2303 0.930 . S
C2294 H2288 0.930 . S
C2294 C2295 1.355 . S
C2294 C2296 1.415 . S
C2295 C2294 1.355 . S
C2295 C2297 1.419 . S
C2296 C2294 1.415 . S
C2296 C2301 1.425 . S
C2296 C2303 1.409 . S
C2297 H2289 0.930 . S
C2297 C2295 1.419 . S
C2297 C2298 1.362 . S
C2298 H2290 0.930 . S
C2298 C2297 1.362 . S
C2298 C2301 1.409 . S
C2299 H2291 0.930 . S
C2299 C2300 1.355 . S
C2299 C2301 1.415 . S
C2300 C2299 1.355 . S
C2300 C2302 1.419 . S
C2301 C2296 1.425 . S
C2301 C2298 1.409 . S
C2301 C2299 1.415 . S
C2302 H2292 0.930 . S
C2302 C2300 1.419 . S
C2302 C2303 1.362 . S
C2303 H2293 0.930 . S
C2303 C2296 1.409 . S
C2303 C2302 1.362 . S
H2304 C2310 0.930 . S
H2305 C2313 0.930 . S
H2306 C2314 0.930 . S
H2307 C2315 0.930 . S
H2308 C2318 0.930 . S
H2309 C2319 0.930 . S
C2310 H2304 0.930 . S
C2310 C2311 1.355 . S
C2310 C2312 1.415 . S
C2311 C2310 1.355 . S
C2311 C2313 1.419 . S
C2312 C2310 1.415 . S
C2312 C2317 1.425 . S
C2312 C2319 1.409 . S
C2313 H2305 0.930 . S
C2313 C2311 1.419 . S
C2313 C2314 1.362 . S
C2314 H2306 0.930 . S
C2314 C2313 1.362 . S
C2314 C2317 1.409 . S
C2315 H2307 0.930 . S
C2315 C2316 1.355 . S
C2315 C2317 1.415 . S
C2316 C2315 1.355 . S
C2316 C2318 1.419 . S
C2317 C2312 1.425 . S
C2317 C2314 1.409 . S
C2317 C2315 1.415 . S
C2318 H2308 0.930 . S
C2318 C2316 1.419 . S
C2318 C2319 1.362 . S
C2319 H2309 0.930 . S
C2319 C2312 1.409 . S
C2319 C2318 1.362 . S
H2320 C2326 0.930 . S
H2321 C2329 0.930 . S
H2322 C2330 0.930 . S
H2323 C2331 0.930 . S
H2324 C2334 0.930 . S
H2325 C2335 0.930 . S
C2326 H2320 0.930 . S
C2326 C2327 1.355 . S
C2326 C2328 1.415 . S
C2327 C2326 1.355 . S
C2327 C2329 1.419 . S
C2328 C2326 1.415 . S
C2328 C2333 1.425 . S
C2328 C2335 1.409 . S
C2329 H2321 0.930 . S
C2329 C2327 1.419 . S
C2329 C2330 1.362 . S
C2330 H2322 0.930 . S
C2330 C2329 1.362 . S
C2330 C2333 1.409 . S
C2331 H2323 0.930 . S
C2331 C2332 1.355 . S
C2331 C2333 1.415 . S
C2332 C2331 1.355 . S
C2332 C2334 1.419 . S
C2333 C2328 1.425 . S
C2333 C2330 1.409 . S
C2333 C2331 1.415 . S
C2334 H2324 0.930 . S
C2334 C2332 1.419 . S
C2334 C2335 1.362 . S
C2335 H2325 0.930 . S
C2335 C2328 1.409 . S
C2335 C2334 1.362 . S
H2336 C2342 0.930 . S
H2337 C2345 0.930 . S
H2338 C2346 0.930 . S
H2339 C2347 0.930 . S
H2340 C2350 0.930 . S
H2341 C2351 0.930 . S
C2342 H2336 0.930 . S
C2342 C2343 1.355 . S
C2342 C2344 1.415 . S
C2343 C2342 1.355 . S
C2343 C2345 1.419 . S
C2344 C2342 1.415 . S
C2344 C2349 1.425 . S
C2344 C2351 1.409 . S
C2345 H2337 0.930 . S
C2345 C2343 1.419 . S
C2345 C2346 1.362 . S
C2346 H2338 0.930 . S
C2346 C2345 1.362 . S
C2346 C2349 1.409 . S
C2347 H2339 0.930 . S
C2347 C2348 1.355 . S
C2347 C2349 1.415 . S
C2348 C2347 1.355 . S
C2348 C2350 1.419 . S
C2349 C2344 1.425 . S
C2349 C2346 1.409 . S
C2349 C2347 1.415 . S
C2350 H2340 0.930 . S
C2350 C2348 1.419 . S
C2350 C2351 1.362 . S
C2351 H2341 0.930 . S
C2351 C2344 1.409 . S
C2351 C2350 1.362 . S
H2352 C2358 0.930 . S
H2353 C2361 0.930 . S
H2354 C2362 0.930 . S
H2355 C2363 0.930 . S
H2356 C2366 0.930 . S
H2357 C2367 0.930 . S
C2358 H2352 0.930 . S
C2358 C2359 1.355 . S
C2358 C2360 1.415 . S
C2359 C2358 1.355 . S
C2359 C2361 1.419 . S
C2360 C2358 1.415 . S
C2360 C2365 1.425 . S
C2360 C2367 1.409 . S
C2361 H2353 0.930 . S
C2361 C2359 1.419 . S
C2361 C2362 1.362 . S
C2362 H2354 0.930 . S
C2362 C2361 1.362 . S
C2362 C2365 1.409 . S
C2363 H2355 0.930 . S
C2363 C2364 1.355 . S
C2363 C2365 1.415 . S
C2364 C2363 1.355 . S
C2364 C2366 1.419 . S
C2365 C2360 1.425 . S
C2365 C2362 1.409 . S
C2365 C2363 1.415 . S
C2366 H2356 0.930 . S
C2366 C2364 1.419 . S
C2366 C2367 1.362 . S
C2367 H2357 0.930 . S
C2367 C2360 1.409 . S
C2367 C2366 1.362 . S
H2368 C2374 0.930 . S
H2369 C2377 0.930 . S
H2370 C2378 0.930 . S
H2371 C2379 0.930 . S
H2372 C2382 0.930 . S
H2373 C2383 0.930 . S
C2374 H2368 0.930 . S
C2374 C2375 1.355 . S
C2374 C2376 1.415 . S
C2375 C2374 1.355 . S
C2375 C2377 1.419 . S
C2376 C2374 1.415 . S
C2376 C2381 1.425 . S
C2376 C2383 1.409 . S
C2377 H2369 0.930 . S
C2377 C2375 1.419 . S
C2377 C2378 1.362 . S
C2378 H2370 0.930 . S
C2378 C2377 1.362 . S
C2378 C2381 1.409 . S
C2379 H2371 0.930 . S
C2379 C2380 1.355 . S
C2379 C2381 1.415 . S
C2380 C2379 1.355 . S
C2380 C2382 1.419 . S
C2381 C2376 1.425 . S
C2381 C2378 1.409 . S
C2381 C2379 1.415 . S
C2382 H2372 0.930 . S
C2382 C2380 1.419 . S
C2382 C2383 1.362 . S
C2383 H2373 0.930 . S
C2383 C2376 1.409 . S
C2383 C2382 1.362 . S
H2384 C2390 0.930 . S
H2385 C2393 0.930 . S
H2386 C2394 0.930 . S
H2387 C2395 0.930 . S
H2388 C2398 0.930 . S
H2389 C2399 0.930 . S
C2390 H2384 0.930 . S
C2390 C2391 1.355 . S
C2390 C2392 1.415 . S
C2391 C2390 1.355 . S
C2391 C2393 1.419 . S
C2392 C2390 1.415 . S
C2392 C2397 1.425 . S
C2392 C2399 1.409 . S
C2393 H2385 0.930 . S
C2393 C2391 1.419 . S
C2393 C2394 1.362 . S
C2394 H2386 0.930 . S
C2394 C2393 1.362 . S
C2394 C2397 1.409 . S
C2395 H2387 0.930 . S
C2395 C2396 1.355 . S
C2395 C2397 1.415 . S
C2396 C2395 1.355 . S
C2396 C2398 1.419 . S
C2397 C2392 1.425 . S
C2397 C2394 1.409 . S
C2397 C2395 1.415 . S
C2398 H2388 0.930 . S
C2398 C2396 1.419 . S
C2398 C2399 1.362 . S
C2399 H2389 0.930 . S
C2399 C2392 1.409 . S
C2399 C2398 1.362 . S
H2400 C2406 0.930 . S
H2401 C2409 0.930 . S
H2402 C2410 0.930 . S
H2403 C2411 0.930 . S
H2404 C2414 0.930 . S
H2405 C2415 0.930 . S
C2406 H2400 0.930 . S
C2406 C2407 1.355 . S
C2406 C2408 1.415 . S
C2407 C2406 1.355 . S
C2407 C2409 1.419 . S
C2408 C2406 1.415 . S
C2408 C2413 1.425 . S
C2408 C2415 1.409 . S
C2409 H2401 0.930 . S
C2409 C2407 1.419 . S
C2409 C2410 1.362 . S
C2410 H2402 0.930 . S
C2410 C2409 1.362 . S
C2410 C2413 1.409 . S
C2411 H2403 0.930 . S
C2411 C2412 1.355 . S
C2411 C2413 1.415 . S
C2412 C2411 1.355 . S
C2412 C2414 1.419 . S
C2413 C2408 1.425 . S
C2413 C2410 1.409 . S
C2413 C2411 1.415 . S
C2414 H2404 0.930 . S
C2414 C2412 1.419 . S
C2414 C2415 1.362 . S
C2415 H2405 0.930 . S
C2415 C2408 1.409 . S
C2415 C2414 1.362 . S
H2416 C2422 0.930 . S
H2417 C2425 0.930 . S
H2418 C2426 0.930 . S
H2419 C2427 0.930 . S
H2420 C2430 0.930 . S
H2421 C2431 0.930 . S
C2422 H2416 0.930 . S
C2422 C2423 1.355 . S
C2422 C2424 1.415 . S
C2423 C2422 1.355 . S
C2423 C2425 1.419 . S
C2424 C2422 1.415 . S
C2424 C2429 1.425 . S
C2424 C2431 1.409 . S
C2425 H2417 0.930 . S
C2425 C2423 1.419 . S
C2425 C2426 1.362 . S
C2426 H2418 0.930 . S
C2426 C2425 1.362 . S
C2426 C2429 1.409 . S
C2427 H2419 0.930 . S
C2427 C2428 1.355 . S
C2427 C2429 1.415 . S
C2428 C2427 1.355 . S
C2428 C2430 1.419 . S
C2429 C2424 1.425 . S
C2429 C2426 1.409 . S
C2429 C2427 1.415 . S
C2430 H2420 0.930 . S
C2430 C2428 1.419 . S
C2430 C2431 1.362 . S
C2431 H2421 0.930 . S
C2431 C2424 1.409 . S
C2431 C2430 1.362 . S
H2432 C2438 0.930 . S
H2433 C2441 0.930 . S
H2434 C2442 0.930 . S
H2435 C2443 0.930 . S
H2436 C2446 0.930 . S
H2437 C2447 0.930 . S
C2438 H2432 0.930 . S
C2438 C2439 1.355 . S
C2438 C2440 1.415 . S
C2439 C2438 1.355 . S
C2439 C2441 1.419 . S
C2440 C2438 1.415 . S
C2440 C2445 1.425 . S
C2440 C2447 1.409 . S
C2441 H2433 0.930 . S
C2441 C2439 1.419 . S
C2441 C2442 1.362 . S
C2442 H2434 0.930 . S
C2442 C2441 1.362 . S
C2442 C2445 1.409 . S
C2443 H2435 0.930 . S
C2443 C2444 1.355 . S
C2443 C2445 1.415 . S
C2444 C2443 1.355 . S
C2444 C2446 1.419 . S
C2445 C2440 1.425 . S
C2445 C2442 1.409 . S
C2445 C2443 1.415 . S
C2446 H2436 0.930 . S
C2446 C2444 1.419 . S
C2446 C2447 1.362 . S
C2447 H2437 0.930 . S
C2447 C2440 1.409 . S
C2447 C2446 1.362 . S
H2448 C2454 0.930 . S
H2449 C2457 0.930 . S
H2450 C2458 0.930 . S
H2451 C2459 0.930 . S
H2452 C2462 0.930 . S
H2453 C2463 0.930 . S
C2454 H2448 0.930 . S
C2454 C2455 1.355 . S
C2454 C2456 1.415 . S
C2455 C2454 1.355 . S
C2455 C2457 1.419 . S
C2456 C2454 1.415 . S
C2456 C2461 1.425 . S
C2456 C2463 1.409 . S
C2457 H2449 0.930 . S
C2457 C2455 1.419 . S
C2457 C2458 1.362 . S
C2458 H2450 0.930 . S
C2458 C2457 1.362 . S
C2458 C2461 1.409 . S
C2459 H2451 0.930 . S
C2459 C2460 1.355 . S
C2459 C2461 1.415 . S
C2460 C2459 1.355 . S
C2460 C2462 1.419 . S
C2461 C2456 1.425 . S
C2461 C2458 1.409 . S
C2461 C2459 1.415 . S
C2462 H2452 0.930 . S
C2462 C2460 1.419 . S
C2462 C2463 1.362 . S
C2463 H2453 0.930 . S
C2463 C2456 1.409 . S
C2463 C2462 1.362 . S
H2464 C2470 0.930 . S
H2465 C2473 0.930 . S
H2466 C2474 0.930 . S
H2467 C2475 0.930 . S
H2468 C2478 0.930 . S
H2469 C2479 0.930 . S
C2470 H2464 0.930 . S
C2470 C2471 1.355 . S
C2470 C2472 1.415 . S
C2471 C2470 1.355 . S
C2471 C2473 1.419 . S
C2472 C2470 1.415 . S
C2472 C2477 1.425 . S
C2472 C2479 1.409 . S
C2473 H2465 0.930 . S
C2473 C2471 1.419 . S
C2473 C2474 1.362 . S
C2474 H2466 0.930 . S
C2474 C2473 1.362 . S
C2474 C2477 1.409 . S
C2475 H2467 0.930 . S
C2475 C2476 1.355 . S
C2475 C2477 1.415 . S
C2476 C2475 1.355 . S
C2476 C2478 1.419 . S
C2477 C2472 1.425 . S
C2477 C2474 1.409 . S
C2477 C2475 1.415 . S
C2478 H2468 0.930 . S
C2478 C2476 1.419 . S
C2478 C2479 1.362 . S
C2479 H2469 0.930 . S
C2479 C2472 1.409 . S
C2479 C2478 1.362 . S
H2480 C2486 0.930 . S
H2481 C2489 0.930 . S
H2482 C2490 0.930 . S
H2483 C2491 0.930 . S
H2484 C2494 0.930 . S
H2485 C2495 0.930 . S
C2486 H2480 0.930 . S
C2486 C2487 1.355 . S
C2486 C2488 1.415 . S
C2487 C2486 1.355 . S
C2487 C2489 1.419 . S
C2488 C2486 1.415 . S
C2488 C2493 1.425 . S
C2488 C2495 1.409 . S
C2489 H2481 0.930 . S
C2489 C2487 1.419 . S
C2489 C2490 1.362 . S
C2490 H2482 0.930 . S
C2490 C2489 1.362 . S
C2490 C2493 1.409 . S
C2491 H2483 0.930 . S
C2491 C2492 1.355 . S
C2491 C2493 1.415 . S
C2492 C2491 1.355 . S
C2492 C2494 1.419 . S
C2493 C2488 1.425 . S
C2493 C2490 1.409 . S
C2493 C2491 1.415 . S
C2494 H2484 0.930 . S
C2494 C2492 1.419 . S
C2494 C2495 1.362 . S
C2495 H2485 0.930 . S
C2495 C2488 1.409 . S
C2495 C2494 1.362 . S
H2496 C2502 0.930 . S
H2497 C2505 0.930 . S
H2498 C2506 0.930 . S
H2499 C2507 0.930 . S
H2500 C2510 0.930 . S
H2501 C2511 0.930 . S
C2502 H2496 0.930 . S
C2502 C2503 1.355 . S
C2502 C2504 1.415 . S
C2503 C2502 1.355 . S
C2503 C2505 1.419 . S
C2504 C2502 1.415 . S
C2504 C2509 1.425 . S
C2504 C2511 1.409 . S
C2505 H2497 0.930 . S
C2505 C2503 1.419 . S
C2505 C2506 1.362 . S
C2506 H2498 0.930 . S
C2506 C2505 1.362 . S
C2506 C2509 1.409 . S
C2507 H2499 0.930 . S
C2507 C2508 1.355 . S
C2507 C2509 1.415 . S
C2508 C2507 1.355 . S
C2508 C2510 1.419 . S
C2509 C2504 1.425 . S
C2509 C2506 1.409 . S
C2509 C2507 1.415 . S
C2510 H2500 0.930 . S
C2510 C2508 1.419 . S
C2510 C2511 1.362 . S
C2511 H2501 0.930 . S
C2511 C2504 1.409 . S
C2511 C2510 1.362 . S
H2512 C2518 0.930 . S
H2513 C2521 0.930 . S
H2514 C2522 0.930 . S
H2515 C2523 0.930 . S
H2516 C2526 0.930 . S
H2517 C2527 0.930 . S
C2518 H2512 0.930 . S
C2518 C2519 1.355 . S
C2518 C2520 1.415 . S
C2519 C2518 1.355 . S
C2519 C2521 1.419 . S
C2520 C2518 1.415 . S
C2520 C2525 1.425 . S
C2520 C2527 1.409 . S
C2521 H2513 0.930 . S
C2521 C2519 1.419 . S
C2521 C2522 1.362 . S
C2522 H2514 0.930 . S
C2522 C2521 1.362 . S
C2522 C2525 1.409 . S
C2523 H2515 0.930 . S
C2523 C2524 1.355 . S
C2523 C2525 1.415 . S
C2524 C2523 1.355 . S
C2524 C2526 1.419 . S
C2525 C2520 1.425 . S
C2525 C2522 1.409 . S
C2525 C2523 1.415 . S
C2526 H2516 0.930 . S
C2526 C2524 1.419 . S
C2526 C2527 1.362 . S
C2527 H2517 0.930 . S
C2527 C2520 1.409 . S
C2527 C2526 1.362 . S
H2528 C2534 0.930 . S
H2529 C2537 0.930 . S
H2530 C2538 0.930 . S
H2531 C2539 0.930 . S
H2532 C2542 0.930 . S
H2533 C2543 0.930 . S
C2534 H2528 0.930 . S
C2534 C2535 1.355 . S
C2534 C2536 1.415 . S
C2535 C2534 1.355 . S
C2535 C2537 1.419 . S
C2536 C2534 1.415 . S
C2536 C2541 1.425 . S
C2536 C2543 1.409 . S
C2537 H2529 0.930 . S
C2537 C2535 1.419 . S
C2537 C2538 1.362 . S
C2538 H2530 0.930 . S
C2538 C2537 1.362 . S
C2538 C2541 1.409 . S
C2539 H2531 0.930 . S
C2539 C2540 1.355 . S
C2539 C2541 1.415 . S
C2540 C2539 1.355 . S
C2540 C2542 1.419 . S
C2541 C2536 1.425 . S
C2541 C2538 1.409 . S
C2541 C2539 1.415 . S
C2542 H2532 0.930 . S
C2542 C2540 1.419 . S
C2542 C2543 1.362 . S
C2543 H2533 0.930 . S
C2543 C2536 1.409 . S
C2543 C2542 1.362 . S
H2544 C2550 0.930 . S
H2545 C2553 0.930 . S
H2546 C2554 0.930 . S
H2547 C2555 0.930 . S
H2548 C2558 0.930 . S
H2549 C2559 0.930 . S
C2550 H2544 0.930 . S
C2550 C2551 1.355 . S
C2550 C2552 1.415 . S
C2551 C2550 1.355 . S
C2551 C2553 1.419 . S
C2552 C2550 1.415 . S
C2552 C2557 1.425 . S
C2552 C2559 1.409 . S
C2553 H2545 0.930 . S
C2553 C2551 1.419 . S
C2553 C2554 1.362 . S
C2554 H2546 0.930 . S
C2554 C2553 1.362 . S
C2554 C2557 1.409 . S
C2555 H2547 0.930 . S
C2555 C2556 1.355 . S
C2555 C2557 1.415 . S
C2556 C2555 1.355 . S
C2556 C2558 1.419 . S
C2557 C2552 1.425 . S
C2557 C2554 1.409 . S
C2557 C2555 1.415 . S
C2558 H2548 0.930 . S
C2558 C2556 1.419 . S
C2558 C2559 1.362 . S
C2559 H2549 0.930 . S
C2559 C2552 1.409 . S
C2559 C2558 1.362 . S
H2560 C2566 0.930 . S
H2561 C2569 0.930 . S
H2562 C2570 0.930 . S
H2563 C2571 0.930 . S
H2564 C2574 0.930 . S
H2565 C2575 0.930 . S
C2566 H2560 0.930 . S
C2566 C2567 1.355 . S
C2566 C2568 1.415 . S
C2567 C2566 1.355 . S
C2567 C2569 1.419 . S
C2568 C2566 1.415 . S
C2568 C2573 1.425 . S
C2568 C2575 1.409 . S
C2569 H2561 0.930 . S
C2569 C2567 1.419 . S
C2569 C2570 1.362 . S
C2570 H2562 0.930 . S
C2570 C2569 1.362 . S
C2570 C2573 1.409 . S
C2571 H2563 0.930 . S
C2571 C2572 1.355 . S
C2571 C2573 1.415 . S
C2572 C2571 1.355 . S
C2572 C2574 1.419 . S
C2573 C2568 1.425 . S
C2573 C2570 1.409 . S
C2573 C2571 1.415 . S
C2574 H2564 0.930 . S
C2574 C2572 1.419 . S
C2574 C2575 1.362 . S
C2575 H2565 0.930 . S
C2575 C2568 1.409 . S
C2575 C2574 1.362 . S
H2576 C2582 0.930 . S
H2577 C2585 0.930 . S
H2578 C2586 0.930 . S
H2579 C2587 0.930 . S
H2580 C2590 0.930 . S
H2581 C2591 0.930 . S
C2582 H2576 0.930 . S
C2582 C2583 1.355 . S
C2582 C2584 1.415 . S
C2583 C2582 1.355 . S
C2583 C2585 1.419 . S
C2584 C2582 1.415 . S
C2584 C2589 1.425 . S
C2584 C2591 1.409 . S
C2585 H2577 0.930 . S
C2585 C2583 1.419 . S
C2585 C2586 1.362 . S
C2586 H2578 0.930 . S
C2586 C2585 1.362 . S
C2586 C2589 1.409 . S
C2587 H2579 0.930 . S
C2587 C2588 1.355 . S
C2587 C2589 1.415 . S
C2588 C2587 1.355 . S
C2588 C2590 1.419 . S
C2589 C2584 1.425 . S
C2589 C2586 1.409 . S
C2589 C2587 1.415 . S
C2590 H2580 0.930 . S
C2590 C2588 1.419 . S
C2590 C2591 1.362 . S
C2591 H2581 0.930 . S
C2591 C2584 1.409 . S
C2591 C2590 1.362 . S
H2592 C2598 0.930 . S
H2593 C2601 0.930 . S
H2594 C2602 0.930 . S
H2595 C2603 0.930 . S
H2596 C2606 0.930 . S
H2597 C2607 0.930 . S
C2598 H2592 0.930 . S
C2598 C2599 1.355 . S
C2598 C2600 1.415 . S
C2599 C2598 1.355 . S
C2599 C2601 1.419 . S
C2600 C2598 1.415 . S
C2600 C2605 1.425 . S
C2600 C2607 1.409 . S
C2601 H2593 0.930 . S
C2601 C2599 1.419 . S
C2601 C2602 1.362 . S
C2602 H2594 0.930 . S
C2602 C2601 1.362 . S
C2602 C2605 1.409 . S
C2603 H2595 0.930 . S
C2603 C2604 1.355 . S
C2603 C2605 1.415 . S
C2604 C2603 1.355 . S
C2604 C2606 1.419 . S
C2605 C2600 1.425 . S
C2605 C2602 1.409 . S
C2605 C2603 1.415 . S
C2606 H2596 0.930 . S
C2606 C2604 1.419 . S
C2606 C2607 1.362 . S
C2607 H2597 0.930 . S
C2607 C2600 1.409 . S
C2607 C2606 1.362 . S
H2608 C2614 0.930 . S
H2609 C2617 0.930 . S
H2610 C2618 0.930 . S
H2611 C2619 0.930 . S
H2612 C2622 0.930 . S
H2613 C2623 0.930 . S
C2614 H2608 0.930 . S
C2614 C2615 1.355 . S
C2614 C2616 1.415 . S
C2615 C2614 1.355 . S
C2615 C2617 1.419 . S
C2616 C2614 1.415 . S
C2616 C2621 1.425 . S
C2616 C2623 1.409 . S
C2617 H2609 0.930 . S
C2617 C2615 1.419 . S
C2617 C2618 1.362 . S
C2618 H2610 0.930 . S
C2618 C2617 1.362 . S
C2618 C2621 1.409 . S
C2619 H2611 0.930 . S
C2619 C2620 1.355 . S
C2619 C2621 1.415 . S
C2620 C2619 1.355 . S
C2620 C2622 1.419 . S
C2621 C2616 1.425 . S
C2621 C2618 1.409 . S
C2621 C2619 1.415 . S
C2622 H2612 0.930 . S
C2622 C2620 1.419 . S
C2622 C2623 1.362 . S
C2623 H2613 0.930 . S
C2623 C2616 1.409 . S
C2623 C2622 1.362 . S
H2624 C2630 0.930 . S
H2625 C2633 0.930 . S
H2626 C2634 0.930 . S
H2627 C2635 0.930 . S
H2628 C2638 0.930 . S
H2629 C2639 0.930 . S
C2630 H2624 0.930 . S
C2630 C2631 1.355 . S
C2630 C2632 1.415 . S
C2631 C2630 1.355 . S
C2631 C2633 1.419 . S
C2632 C2630 1.415 . S
C2632 C2637 1.425 . S
C2632 C2639 1.409 . S
C2633 H2625 0.930 . S
C2633 C2631 1.419 . S
C2633 C2634 1.362 . S
C2634 H2626 0.930 . S
C2634 C2633 1.362 . S
C2634 C2637 1.409 . S
C2635 H2627 0.930 . S
C2635 C2636 1.355 . S
C2635 C2637 1.415 . S
C2636 C2635 1.355 . S
C2636 C2638 1.419 . S
C2637 C2632 1.425 . S
C2637 C2634 1.409 . S
C2637 C2635 1.415 . S
C2638 H2628 0.930 . S
C2638 C2636 1.419 . S
C2638 C2639 1.362 . S
C2639 H2629 0.930 . S
C2639 C2632 1.409 . S
C2639 C2638 1.362 . S
H2640 C2646 0.930 . S
H2641 C2649 0.930 . S
H2642 C2650 0.930 . S
H2643 C2651 0.930 . S
H2644 C2654 0.930 . S
H2645 C2655 0.930 . S
C2646 H2640 0.930 . S
C2646 C2647 1.355 . S
C2646 C2648 1.415 . S
C2647 C2646 1.355 . S
C2647 C2649 1.419 . S
C2648 C2646 1.415 . S
C2648 C2653 1.425 . S
C2648 C2655 1.409 . S
C2649 H2641 0.930 . S
C2649 C2647 1.419 . S
C2649 C2650 1.362 . S
C2650 H2642 0.930 . S
C2650 C2649 1.362 . S
C2650 C2653 1.409 . S
C2651 H2643 0.930 . S
C2651 C2652 1.355 . S
C2651 C2653 1.415 . S
C2652 C2651 1.355 . S
C2652 C2654 1.419 . S
C2653 C2648 1.425 . S
C2653 C2650 1.409 . S
C2653 C2651 1.415 . S
C2654 H2644 0.930 . S
C2654 C2652 1.419 . S
C2654 C2655 1.362 . S
C2655 H2645 0.930 . S
C2655 C2648 1.409 . S
C2655 C2654 1.362 . S
H2656 C2662 0.930 . S
H2657 C2665 0.930 . S
H2658 C2666 0.930 . S
H2659 C2667 0.930 . S
H2660 C2670 0.930 . S
H2661 C2671 0.930 . S
C2662 H2656 0.930 . S
C2662 C2663 1.355 . S
C2662 C2664 1.415 . S
C2663 C2662 1.355 . S
C2663 C2665 1.419 . S
C2664 C2662 1.415 . S
C2664 C2669 1.425 . S
C2664 C2671 1.409 . S
C2665 H2657 0.930 . S
C2665 C2663 1.419 . S
C2665 C2666 1.362 . S
C2666 H2658 0.930 . S
C2666 C2665 1.362 . S
C2666 C2669 1.409 . S
C2667 H2659 0.930 . S
C2667 C2668 1.355 . S
C2667 C2669 1.415 . S
C2668 C2667 1.355 . S
C2668 C2670 1.419 . S
C2669 C2664 1.425 . S
C2669 C2666 1.409 . S
C2669 C2667 1.415 . S
C2670 H2660 0.930 . S
C2670 C2668 1.419 . S
C2670 C2671 1.362 . S
C2671 H2661 0.930 . S
C2671 C2664 1.409 . S
C2671 C2670 1.362 . S
H2672 C2678 0.930 . S
H2673 C2681 0.930 . S
H2674 C2682 0.930 . S
H2675 C2683 0.930 . S
H2676 C2686 0.930 . S
H2677 C2687 0.930 . S
C2678 H2672 0.930 . S
C2678 C2679 1.355 . S
C2678 C2680 1.415 . S
C2679 C2678 1.355 . S
C2679 C2681 1.419 . S
C2680 C2678 1.415 . S
C2680 C2685 1.425 . S
C2680 C2687 1.409 . S
C2681 H2673 0.930 . S
C2681 C2679 1.419 . S
C2681 C2682 1.362 . S
C2682 H2674 0.930 . S
C2682 C2681 1.362 . S
C2682 C2685 1.409 . S
C2683 H2675 0.930 . S
C2683 C2684 1.355 . S
C2683 C2685 1.415 . S
C2684 C2683 1.355 . S
C2684 C2686 1.419 . S
C2685 C2680 1.425 . S
C2685 C2682 1.409 . S
C2685 C2683 1.415 . S
C2686 H2676 0.930 . S
C2686 C2684 1.419 . S
C2686 C2687 1.362 . S
C2687 H2677 0.930 . S
C2687 C2680 1.409 . S
C2687 C2686 1.362 . S
H2688 C2694 0.930 . S
H2689 C2697 0.930 . S
H2690 C2698 0.930 . S
H2691 C2699 0.930 . S
H2692 C2702 0.930 . S
H2693 C2703 0.930 . S
C2694 H2688 0.930 . S
C2694 C2695 1.355 . S
C2694 C2696 1.415 . S
C2695 C2694 1.355 . S
C2695 C2697 1.419 . S
C2696 C2694 1.415 . S
C2696 C2701 1.425 . S
C2696 C2703 1.409 . S
C2697 H2689 0.930 . S
C2697 C2695 1.419 . S
C2697 C2698 1.362 . S
C2698 H2690 0.930 . S
C2698 C2697 1.362 . S
C2698 C2701 1.409 . S
C2699 H2691 0.930 . S
C2699 C2700 1.355 . S
C2699 C2701 1.415 . S
C2700 C2699 1.355 . S
C2700 C2702 1.419 . S
C2701 C2696 1.425 . S
C2701 C2698 1.409 . S
C2701 C2699 1.415 . S
C2702 H2692 0.930 . S
C2702 C2700 1.419 . S
C2702 C2703 1.362 . S
C2703 H2693 0.930 . S
C2703 C2696 1.409 . S
C2703 C2702 1.362 . S
H2704 C2710 0.930 . S
H2705 C2713 0.930 . S
H2706 C2714 0.930 . S
H2707 C2715 0.930 . S
H2708 C2718 0.930 . S
H2709 C2719 0.930 . S
C2710 H2704 0.930 . S
C2710 C2711 1.355 . S
C2710 C2712 1.415 . S
C2711 C2710 1.355 . S
C2711 C2713 1.419 . S
C2712 C2710 1.415 . S
C2712 C2717 1.425 . S
C2712 C2719 1.409 . S
C2713 H2705 0.930 . S
C2713 C2711 1.419 . S
C2713 C2714 1.362 . S
C2714 H2706 0.930 . S
C2714 C2713 1.362 . S
C2714 C2717 1.409 . S
C2715 H2707 0.930 . S
C2715 C2716 1.355 . S
C2715 C2717 1.415 . S
C2716 C2715 1.355 . S
C2716 C2718 1.419 . S
C2717 C2712 1.425 . S
C2717 C2714 1.409 . S
C2717 C2715 1.415 . S
C2718 H2708 0.930 . S
C2718 C2716 1.419 . S
C2718 C2719 1.362 . S
C2719 H2709 0.930 . S
C2719 C2712 1.409 . S
C2719 C2718 1.362 . S
H2720 C2726 0.930 . S
H2721 C2729 0.930 . S
H2722 C2730 0.930 . S
H2723 C2731 0.930 . S
H2724 C2734 0.930 . S
H2725 C2735 0.930 . S
C2726 H2720 0.930 . S
C2726 C2727 1.355 . S
C2726 C2728 1.415 . S
C2727 C2726 1.355 . S
C2727 C2729 1.419 . S
C2728 C2726 1.415 . S
C2728 C2733 1.425 . S
C2728 C2735 1.409 . S
C2729 H2721 0.930 . S
C2729 C2727 1.419 . S
C2729 C2730 1.362 . S
C2730 H2722 0.930 . S
C2730 C2729 1.362 . S
C2730 C2733 1.409 . S
C2731 H2723 0.930 . S
C2731 C2732 1.355 . S
C2731 C2733 1.415 . S
C2732 C2731 1.355 . S
C2732 C2734 1.419 . S
C2733 C2728 1.425 . S
C2733 C2730 1.409 . S
C2733 C2731 1.415 . S
C2734 H2724 0.930 . S
C2734 C2732 1.419 . S
C2734 C2735 1.362 . S
C2735 H2725 0.930 . S
C2735 C2728 1.409 . S
C2735 C2734 1.362 . S
H2736 C2742 0.930 . S
H2737 C2745 0.930 . S
H2738 C2746 0.930 . S
H2739 C2747 0.930 . S
H2740 C2750 0.930 . S
H2741 C2751 0.930 . S
C2742 H2736 0.930 . S
C2742 C2743 1.355 . S
C2742 C2744 1.415 . S
C2743 C2742 1.355 . S
C2743 C2745 1.419 . S
C2744 C2742 1.415 . S
C2744 C2749 1.425 . S
C2744 C2751 1.409 . S
C2745 H2737 0.930 . S
C2745 C2743 1.419 . S
C2745 C2746 1.362 . S
C2746 H2738 0.930 . S
C2746 C2745 1.362 . S
C2746 C2749 1.409 . S
C2747 H2739 0.930 . S
C2747 C2748 1.355 . S
C2747 C2749 1.415 . S
C2748 C2747 1.355 . S
C2748 C2750 1.419 . S
C2749 C2744 1.425 . S
C2749 C2746 1.409 . S
C2749 C2747 1.415 . S
C2750 H2740 0.930 . S
C2750 C2748 1.419 . S
C2750 C2751 1.362 . S
C2751 H2741 0.930 . S
C2751 C2744 1.409 . S
C2751 C2750 1.362 . S
H2752 C2758 0.930 . S
H2753 C2761 0.930 . S
H2754 C2762 0.930 . S
H2755 C2763 0.930 . S
H2756 C2766 0.930 . S
H2757 C2767 0.930 . S
C2758 H2752 0.930 . S
C2758 C2759 1.355 . S
C2758 C2760 1.415 . S
C2759 C2758 1.355 . S
C2759 C2761 1.419 . S
C2760 C2758 1.415 . S
C2760 C2765 1.425 . S
C2760 C2767 1.409 . S
C2761 H2753 0.930 . S
C2761 C2759 1.419 . S
C2761 C2762 1.362 . S
C2762 H2754 0.930 . S
C2762 C2761 1.362 . S
C2762 C2765 1.409 . S
C2763 H2755 0.930 . S
C2763 C2764 1.355 . S
C2763 C2765 1.415 . S
C2764 C2763 1.355 . S
C2764 C2766 1.419 . S
C2765 C2760 1.425 . S
C2765 C2762 1.409 . S
C2765 C2763 1.415 . S
C2766 H2756 0.930 . S
C2766 C2764 1.419 . S
C2766 C2767 1.362 . S
C2767 H2757 0.930 . S
C2767 C2760 1.409 . S
C2767 C2766 1.362 . S
H2768 C2774 0.930 . S
H2769 C2777 0.930 . S
H2770 C2778 0.930 . S
H2771 C2779 0.930 . S
H2772 C2782 0.930 . S
H2773 C2783 0.930 . S
C2774 H2768 0.930 . S
C2774 C2775 1.355 . S
C2774 C2776 1.415 . S
C2775 C2774 1.355 . S
C2775 C2777 1.419 . S
C2776 C2774 1.415 . S
C2776 C2781 1.425 . S
C2776 C2783 1.409 . S
C2777 H2769 0.930 . S
C2777 C2775 1.419 . S
C2777 C2778 1.362 . S
C2778 H2770 0.930 . S
C2778 C2777 1.362 . S
C2778 C2781 1.409 . S
C2779 H2771 0.930 . S
C2779 C2780 1.355 . S
C2779 C2781 1.415 . S
C2780 C2779 1.355 . S
C2780 C2782 1.419 . S
C2781 C2776 1.425 . S
C2781 C2778 1.409 . S
C2781 C2779 1.415 . S
C2782 H2772 0.930 . S
C2782 C2780 1.419 . S
C2782 C2783 1.362 . S
C2783 H2773 0.930 . S
C2783 C2776 1.409 . S
C2783 C2782 1.362 . S
H2784 C2790 0.930 . S
H2785 C2793 0.930 . S
H2786 C2794 0.930 . S
H2787 C2795 0.930 . S
H2788 C2798 0.930 . S
H2789 C2799 0.930 . S
C2790 H2784 0.930 . S
C2790 C2791 1.355 . S
C2790 C2792 1.415 . S
C2791 C2790 1.355 . S
C2791 C2793 1.419 . S
C2792 C2790 1.415 . S
C2792 C2797 1.425 . S
C2792 C2799 1.409 . S
C2793 H2785 0.930 . S
C2793 C2791 1.419 . S
C2793 C2794 1.362 . S
C2794 H2786 0.930 . S
C2794 C2793 1.362 . S
C2794 C2797 1.409 . S
C2795 H2787 0.930 . S
C2795 C2796 1.355 . S
C2795 C2797 1.415 . S
C2796 C2795 1.355 . S
C2796 C2798 1.419 . S
C2797 C2792 1.425 . S
C2797 C2794 1.409 . S
C2797 C2795 1.415 . S
C2798 H2788 0.930 . S
C2798 C2796 1.419 . S
C2798 C2799 1.362 . S
C2799 H2789 0.930 . S
C2799 C2792 1.409 . S
C2799 C2798 1.362 . S
H2800 C2806 0.930 . S
H2801 C2809 0.930 . S
H2802 C2810 0.930 . S
H2803 C2811 0.930 . S
H2804 C2814 0.930 . S
H2805 C2815 0.930 . S
C2806 H2800 0.930 . S
C2806 C2807 1.355 . S
C2806 C2808 1.415 . S
C2807 C2806 1.355 . S
C2807 C2809 1.419 . S
C2808 C2806 1.415 . S
C2808 C2813 1.425 . S
C2808 C2815 1.409 . S
C2809 H2801 0.930 . S
C2809 C2807 1.419 . S
C2809 C2810 1.362 . S
C2810 H2802 0.930 . S
C2810 C2809 1.362 . S
C2810 C2813 1.409 . S
C2811 H2803 0.930 . S
C2811 C2812 1.355 . S
C2811 C2813 1.415 . S
C2812 C2811 1.355 . S
C2812 C2814 1.419 . S
C2813 C2808 1.425 . S
C2813 C2810 1.409 . S
C2813 C2811 1.415 . S
C2814 H2804 0.930 . S
C2814 C2812 1.419 . S
C2814 C2815 1.362 . S
C2815 H2805 0.930 . S
C2815 C2808 1.409 . S
C2815 C2814 1.362 . S
H2816 C2822 0.930 . S
H2817 C2825 0.930 . S
H2818 C2826 0.930 . S
H2819 C2827 0.930 . S
H2820 C2830 0.930 . S
H2821 C2831 0.930 . S
C2822 H2816 0.930 . S
C2822 C2823 1.355 . S
C2822 C2824 1.415 . S
C2823 C2822 1.355 . S
C2823 C2825 1.419 . S
C2824 C2822 1.415 . S
C2824 C2829 1.425 . S
C2824 C2831 1.409 . S
C2825 H2817 0.930 . S
C2825 C2823 1.419 . S
C2825 C2826 1.362 . S
C2826 H2818 0.930 . S
C2826 C2825 1.362 . S
C2826 C2829 1.409 . S
C2827 H2819 0.930 . S
C2827 C2828 1.355 . S
C2827 C2829 1.415 . S
C2828 C2827 1.355 . S
C2828 C2830 1.419 . S
C2829 C2824 1.425 . S
C2829 C2826 1.409 . S
C2829 C2827 1.415 . S
C2830 H2820 0.930 . S
C2830 C2828 1.419 . S
C2830 C2831 1.362 . S
C2831 H2821 0.930 . S
C2831 C2824 1.409 . S
C2831 C2830 1.362 . S
H2832 C2838 0.930 . S
H2833 C2841 0.930 . S
H2834 C2842 0.930 . S
H2835 C2843 0.930 . S
H2836 C2846 0.930 . S
H2837 C2847 0.930 . S
C2838 H2832 0.930 . S
C2838 C2839 1.355 . S
C2838 C2840 1.415 . S
C2839 C2838 1.355 . S
C2839 C2841 1.419 . S
C2840 C2838 1.415 . S
C2840 C2845 1.425 . S
C2840 C2847 1.409 . S
C2841 H2833 0.930 . S
C2841 C2839 1.419 . S
C2841 C2842 1.362 . S
C2842 H2834 0.930 . S
C2842 C2841 1.362 . S
C2842 C2845 1.409 . S
C2843 H2835 0.930 . S
C2843 C2844 1.355 . S
C2843 C2845 1.415 . S
C2844 C2843 1.355 . S
C2844 C2846 1.419 . S
C2845 C2840 1.425 . S
C2845 C2842 1.409 . S
C2845 C2843 1.415 . S
C2846 H2836 0.930 . S
C2846 C2844 1.419 . S
C2846 C2847 1.362 . S
C2847 H2837 0.930 . S
C2847 C2840 1.409 . S
C2847 C2846 1.362 . S
H2848 C2854 0.930 . S
H2849 C2857 0.930 . S
H2850 C2858 0.930 . S
H2851 C2859 0.930 . S
H2852 C2862 0.930 . S
H2853 C2863 0.930 . S
C2854 H2848 0.930 . S
C2854 C2855 1.355 . S
C2854 C2856 1.415 . S
C2855 C2854 1.355 . S
C2855 C2857 1.419 . S
C2856 C2854 1.415 . S
C2856 C2861 1.425 . S
C2856 C2863 1.409 . S
C2857 H2849 0.930 . S
C2857 C2855 1.419 . S
C2857 C2858 1.362 . S
C2858 H2850 0.930 . S
C2858 C2857 1.362 . S
C2858 C2861 1.409 . S
C2859 H2851 0.930 . S
C2859 C2860 1.355 . S
C2859 C2861 1.415 . S
C2860 C2859 1.355 . S
C2860 C2862 1.419 . S
C2861 C2856 1.425 . S
C2861 C2858 1.409 . S
C2861 C2859 1.415 . S
C2862 H2852 0.930 . S
C2862 C2860 1.419 . S
C2862 C2863 1.362 . S
C2863 H2853 0.930 . S
C2863 C2856 1.409 . S
C2863 C2862 1.362 . S
H2864 C2870 0.930 . S
H2865 C2873 0.930 . S
H2866 C2874 0.930 . S
H2867 C2875 0.930 . S
H2868 C2878 0.930 . S
H2869 C2879 0.930 . S
C2870 H2864 0.930 . S
C2870 C2871 1.355 . S
C2870 C2872 1.415 . S
C2871 C2870 1.355 . S
C2871 C2873 1.419 1_545 S
C2872 C2870 1.415 . S
C2872 C2877 1.425 . S
C2872 C2879 1.409 . S
C2873 H2865 0.930 . S
C2873 C2871 1.419 1_565 S
C2873 C2874 1.362 . S
C2874 H2866 0.930 . S
C2874 C2873 1.362 . S
C2874 C2877 1.409 1_565 S
C2875 H2867 0.930 . S
C2875 C2876 1.355 . S
C2875 C2877 1.415 . S
C2876 C2875 1.355 . S
C2876 C2878 1.419 . S
C2877 C2872 1.425 . S
C2877 C2874 1.409 1_545 S
C2877 C2875 1.415 . S
C2878 H2868 0.930 . S
C2878 C2876 1.419 . S
C2878 C2879 1.362 . S
C2879 H2869 0.930 . S
C2879 C2872 1.409 . S
C2879 C2878 1.362 . S
H2880 C2886 0.930 . S
H2881 C2889 0.930 . S
H2882 C2890 0.930 . S
H2883 C2891 0.930 . S
H2884 C2894 0.930 . S
H2885 C2895 0.930 . S
C2886 H2880 0.930 . S
C2886 C2887 1.355 . S
C2886 C2888 1.415 . S
C2887 C2886 1.355 . S
C2887 C2889 1.419 . S
C2888 C2886 1.415 . S
C2888 C2893 1.425 . S
C2888 C2895 1.409 . S
C2889 H2881 0.930 . S
C2889 C2887 1.419 . S
C2889 C2890 1.362 . S
C2890 H2882 0.930 . S
C2890 C2889 1.362 . S
C2890 C2893 1.409 . S
C2891 H2883 0.930 . S
C2891 C2892 1.355 . S
C2891 C2893 1.415 . S
C2892 C2891 1.355 . S
C2892 C2894 1.419 . S
C2893 C2888 1.425 . S
C2893 C2890 1.409 . S
C2893 C2891 1.415 . S
C2894 H2884 0.930 . S
C2894 C2892 1.419 . S
C2894 C2895 1.362 . S
C2895 H2885 0.930 . S
C2895 C2888 1.409 . S
C2895 C2894 1.362 . S
H2896 C2902 0.930 . S
H2897 C2905 0.930 . S
H2898 C2906 0.930 . S
H2899 C2907 0.930 . S
H2900 C2910 0.930 . S
H2901 C2911 0.930 . S
C2902 H2896 0.930 . S
C2902 C2903 1.355 . S
C2902 C2904 1.415 . S
C2903 C2902 1.355 . S
C2903 C2905 1.419 . S
C2904 C2902 1.415 . S
C2904 C2909 1.425 . S
C2904 C2911 1.409 . S
C2905 H2897 0.930 . S
C2905 C2903 1.419 . S
C2905 C2906 1.362 . S
C2906 H2898 0.930 . S
C2906 C2905 1.362 . S
C2906 C2909 1.409 . S
C2907 H2899 0.930 . S
C2907 C2908 1.355 . S
C2907 C2909 1.415 . S
C2908 C2907 1.355 . S
C2908 C2910 1.419 . S
C2909 C2904 1.425 . S
C2909 C2906 1.409 . S
C2909 C2907 1.415 . S
C2910 H2900 0.930 . S
C2910 C2908 1.419 . S
C2910 C2911 1.362 . S
C2911 H2901 0.930 . S
C2911 C2904 1.409 . S
C2911 C2910 1.362 . S
H2912 C2918 0.930 . S
H2913 C2921 0.930 . S
H2914 C2922 0.930 . S
H2915 C2923 0.930 . S
H2916 C2926 0.930 . S
H2917 C2927 0.930 . S
C2918 H2912 0.930 . S
C2918 C2919 1.355 . S
C2918 C2920 1.415 . S
C2919 C2918 1.355 . S
C2919 C2921 1.419 . S
C2920 C2918 1.415 . S
C2920 C2925 1.425 . S
C2920 C2927 1.409 . S
C2921 H2913 0.930 . S
C2921 C2919 1.419 . S
C2921 C2922 1.362 . S
C2922 H2914 0.930 . S
C2922 C2921 1.362 . S
C2922 C2925 1.409 . S
C2923 H2915 0.930 . S
C2923 C2924 1.355 . S
C2923 C2925 1.415 . S
C2924 C2923 1.355 . S
C2924 C2926 1.419 . S
C2925 C2920 1.425 . S
C2925 C2922 1.409 . S
C2925 C2923 1.415 . S
C2926 H2916 0.930 . S
C2926 C2924 1.419 . S
C2926 C2927 1.362 . S
C2927 H2917 0.930 . S
C2927 C2920 1.409 . S
C2927 C2926 1.362 . S
H2928 C2934 0.930 . S
H2929 C2937 0.930 . S
H2930 C2938 0.930 . S
H2931 C2939 0.930 . S
H2932 C2942 0.930 . S
H2933 C2943 0.930 . S
C2934 H2928 0.930 . S
C2934 C2935 1.355 . S
C2934 C2936 1.415 . S
C2935 C2934 1.355 . S
C2935 C2937 1.419 . S
C2936 C2934 1.415 . S
C2936 C2941 1.425 . S
C2936 C2943 1.409 . S
C2937 H2929 0.930 . S
C2937 C2935 1.419 . S
C2937 C2938 1.362 . S
C2938 H2930 0.930 . S
C2938 C2937 1.362 . S
C2938 C2941 1.409 . S
C2939 H2931 0.930 . S
C2939 C2940 1.355 . S
C2939 C2941 1.415 . S
C2940 C2939 1.355 . S
C2940 C2942 1.419 . S
C2941 C2936 1.425 . S
C2941 C2938 1.409 . S
C2941 C2939 1.415 . S
C2942 H2932 0.930 . S
C2942 C2940 1.419 . S
C2942 C2943 1.362 . S
C2943 H2933 0.930 . S
C2943 C2936 1.409 . S
C2943 C2942 1.362 . S
H2944 C2950 0.930 . S
H2945 C2953 0.930 . S
H2946 C2954 0.930 . S
H2947 C2955 0.930 . S
H2948 C2958 0.930 . S
H2949 C2959 0.930 . S
C2950 H2944 0.930 . S
C2950 C2951 1.355 . S
C2950 C2952 1.415 . S
C2951 C2950 1.355 . S
C2951 C2953 1.419 . S
C2952 C2950 1.415 . S
C2952 C2957 1.425 . S
C2952 C2959 1.409 . S
C2953 H2945 0.930 . S
C2953 C2951 1.419 . S
C2953 C2954 1.362 . S
C2954 H2946 0.930 . S
C2954 C2953 1.362 . S
C2954 C2957 1.409 . S
C2955 H2947 0.930 . S
C2955 C2956 1.355 . S
C2955 C2957 1.415 . S
C2956 C2955 1.355 . S
C2956 C2958 1.419 . S
C2957 C2952 1.425 . S
C2957 C2954 1.409 . S
C2957 C2955 1.415 . S
C2958 H2948 0.930 . S
C2958 C2956 1.419 . S
C2958 C2959 1.362 . S
C2959 H2949 0.930 . S
C2959 C2952 1.409 . S
C2959 C2958 1.362 . S
H2960 C2966 0.930 . S
H2961 C2969 0.930 . S
H2962 C2970 0.930 . S
H2963 C2971 0.930 . S
H2964 C2974 0.930 . S
H2965 C2975 0.930 . S
C2966 H2960 0.930 . S
C2966 C2967 1.355 . S
C2966 C2968 1.415 . S
C2967 C2966 1.355 . S
C2967 C2969 1.419 . S
C2968 C2966 1.415 . S
C2968 C2973 1.425 . S
C2968 C2975 1.409 . S
C2969 H2961 0.930 . S
C2969 C2967 1.419 . S
C2969 C2970 1.362 . S
C2970 H2962 0.930 . S
C2970 C2969 1.362 . S
C2970 C2973 1.409 . S
C2971 H2963 0.930 . S
C2971 C2972 1.355 . S
C2971 C2973 1.415 . S
C2972 C2971 1.355 . S
C2972 C2974 1.419 . S
C2973 C2968 1.425 . S
C2973 C2970 1.409 . S
C2973 C2971 1.415 . S
C2974 H2964 0.930 . S
C2974 C2972 1.419 . S
C2974 C2975 1.362 . S
C2975 H2965 0.930 . S
C2975 C2968 1.409 . S
C2975 C2974 1.362 . S
H2976 C2982 0.930 . S
H2977 C2985 0.930 . S
H2978 C2986 0.930 . S
H2979 C2987 0.930 . S
H2980 C2990 0.930 . S
H2981 C2991 0.930 . S
C2982 H2976 0.930 . S
C2982 C2983 1.355 . S
C2982 C2984 1.415 . S
C2983 C2982 1.355 . S
C2983 C2985 1.419 . S
C2984 C2982 1.415 . S
C2984 C2989 1.425 . S
C2984 C2991 1.409 . S
C2985 H2977 0.930 . S
C2985 C2983 1.419 . S
C2985 C2986 1.362 . S
C2986 H2978 0.930 . S
C2986 C2985 1.362 . S
C2986 C2989 1.409 . S
C2987 H2979 0.930 . S
C2987 C2988 1.355 . S
C2987 C2989 1.415 . S
C2988 C2987 1.355 . S
C2988 C2990 1.419 . S
C2989 C2984 1.425 . S
C2989 C2986 1.409 . S
C2989 C2987 1.415 . S
C2990 H2980 0.930 . S
C2990 C2988 1.419 . S
C2990 C2991 1.362 . S
C2991 H2981 0.930 . S
C2991 C2984 1.409 . S
C2991 C2990 1.362 . S
H2992 C2998 0.930 . S
H2993 C3001 0.930 . S
H2994 C3002 0.930 . S
H2995 C3003 0.930 . S
H2996 C3006 0.930 . S
H2997 C3007 0.930 . S
C2998 H2992 0.930 . S
C2998 C2999 1.355 . S
C2998 C3000 1.415 . S
C2999 C2998 1.355 . S
C2999 C3001 1.419 . S
C3000 C2998 1.415 . S
C3000 C3005 1.425 . S
C3000 C3007 1.409 . S
C3001 H2993 0.930 . S
C3001 C2999 1.419 . S
C3001 C3002 1.362 . S
C3002 H2994 0.930 . S
C3002 C3001 1.362 . S
C3002 C3005 1.409 . S
C3003 H2995 0.930 . S
C3003 C3004 1.355 . S
C3003 C3005 1.415 . S
C3004 C3003 1.355 . S
C3004 C3006 1.419 . S
C3005 C3000 1.425 . S
C3005 C3002 1.409 . S
C3005 C3003 1.415 . S
C3006 H2996 0.930 . S
C3006 C3004 1.419 . S
C3006 C3007 1.362 . S
C3007 H2997 0.930 . S
C3007 C3000 1.409 . S
C3007 C3006 1.362 . S
H3008 C3014 0.930 . S
H3009 C3017 0.930 . S
H3010 C3018 0.930 . S
H3011 C3019 0.930 . S
H3012 C3022 0.930 . S
H3013 C3023 0.930 . S
C3014 H3008 0.930 . S
C3014 C3015 1.355 . S
C3014 C3016 1.415 . S
C3015 C3014 1.355 . S
C3015 C3017 1.419 . S
C3016 C3014 1.415 . S
C3016 C3021 1.425 . S
C3016 C3023 1.409 . S
C3017 H3009 0.930 . S
C3017 C3015 1.419 . S
C3017 C3018 1.362 . S
C3018 H3010 0.930 . S
C3018 C3017 1.362 . S
C3018 C3021 1.409 . S
C3019 H3011 0.930 . S
C3019 C3020 1.355 . S
C3019 C3021 1.415 . S
C3020 C3019 1.355 . S
C3020 C3022 1.419 . S
C3021 C3016 1.425 . S
C3021 C3018 1.409 . S
C3021 C3019 1.415 . S
C3022 H3012 0.930 . S
C3022 C3020 1.419 . S
C3022 C3023 1.362 . S
C3023 H3013 0.930 . S
C3023 C3016 1.409 . S
C3023 C3022 1.362 . S
H3024 C3030 0.930 . S
H3025 C3033 0.930 . S
H3026 C3034 0.930 . S
H3027 C3035 0.930 . S
H3028 C3038 0.930 . S
H3029 C3039 0.930 . S
C3030 H3024 0.930 . S
C3030 C3031 1.355 . S
C3030 C3032 1.415 . S
C3031 C3030 1.355 . S
C3031 C3033 1.419 . S
C3032 C3030 1.415 . S
C3032 C3037 1.425 . S
C3032 C3039 1.409 . S
C3033 H3025 0.930 . S
C3033 C3031 1.419 . S
C3033 C3034 1.362 . S
C3034 H3026 0.930 . S
C3034 C3033 1.362 . S
C3034 C3037 1.409 . S
C3035 H3027 0.930 . S
C3035 C3036 1.355 . S
C3035 C3037 1.415 . S
C3036 C3035 1.355 . S
C3036 C3038 1.419 . S
C3037 C3032 1.425 . S
C3037 C3034 1.409 . S
C3037 C3035 1.415 . S
C3038 H3028 0.930 . S
C3038 C3036 1.419 . S
C3038 C3039 1.362 . S
C3039 H3029 0.930 . S
C3039 C3032 1.409 . S
C3039 C3038 1.362 . S
H3040 C3046 0.930 . S
H3041 C3049 0.930 . S
H3042 C3050 0.930 . S
H3043 C3051 0.930 . S
H3044 C3054 0.930 . S
H3045 C3055 0.930 . S
C3046 H3040 0.930 . S
C3046 C3047 1.355 . S
C3046 C3048 1.415 . S
C3047 C3046 1.355 . S
C3047 C3049 1.419 . S
C3048 C3046 1.415 . S
C3048 C3053 1.425 . S
C3048 C3055 1.409 . S
C3049 H3041 0.930 . S
C3049 C3047 1.419 . S
C3049 C3050 1.362 . S
C3050 H3042 0.930 . S
C3050 C3049 1.362 . S
C3050 C3053 1.409 . S
C3051 H3043 0.930 . S
C3051 C3052 1.355 . S
C3051 C3053 1.415 . S
C3052 C3051 1.355 . S
C3052 C3054 1.419 . S
C3053 C3048 1.425 . S
C3053 C3050 1.409 . S
C3053 C3051 1.415 . S
C3054 H3044 0.930 . S
C3054 C3052 1.419 . S
C3054 C3055 1.362 . S
C3055 H3045 0.930 . S
C3055 C3048 1.409 . S
C3055 C3054 1.362 . S
H3056 C3062 0.930 . S
H3057 C3065 0.930 . S
H3058 C3066 0.930 . S
H3059 C3067 0.930 . S
H3060 C3070 0.930 . S
H3061 C3071 0.930 . S
C3062 H3056 0.930 . S
C3062 C3063 1.355 . S
C3062 C3064 1.415 . S
C3063 C3062 1.355 . S
C3063 C3065 1.419 . S
C3064 C3062 1.415 . S
C3064 C3069 1.425 . S
C3064 C3071 1.409 . S
C3065 H3057 0.930 . S
C3065 C3063 1.419 . S
C3065 C3066 1.362 . S
C3066 H3058 0.930 . S
C3066 C3065 1.362 . S
C3066 C3069 1.409 . S
C3067 H3059 0.930 . S
C3067 C3068 1.355 . S
C3067 C3069 1.415 . S
C3068 C3067 1.355 . S
C3068 C3070 1.419 . S
C3069 C3064 1.425 . S
C3069 C3066 1.409 . S
C3069 C3067 1.415 . S
C3070 H3060 0.930 . S
C3070 C3068 1.419 . S
C3070 C3071 1.362 . S
C3071 H3061 0.930 . S
C3071 C3064 1.409 . S
C3071 C3070 1.362 . S
H3072 C3078 0.930 . S
H3073 C3081 0.930 . S
H3074 C3082 0.930 . S
H3075 C3083 0.930 . S
H3076 C3086 0.930 . S
H3077 C3087 0.930 . S
C3078 H3072 0.930 . S
C3078 C3079 1.355 . S
C3078 C3080 1.415 . S
C3079 C3078 1.355 . S
C3079 C3081 1.419 . S
C3080 C3078 1.415 . S
C3080 C3085 1.425 . S
C3080 C3087 1.409 . S
C3081 H3073 0.930 . S
C3081 C3079 1.419 . S
C3081 C3082 1.362 . S
C3082 H3074 0.930 . S
C3082 C3081 1.362 . S
C3082 C3085 1.409 . S
C3083 H3075 0.930 . S
C3083 C3084 1.355 . S
C3083 C3085 1.415 . S
C3084 C3083 1.355 . S
C3084 C3086 1.419 . S
C3085 C3080 1.425 . S
C3085 C3082 1.409 . S
C3085 C3083 1.415 . S
C3086 H3076 0.930 . S
C3086 C3084 1.419 . S
C3086 C3087 1.362 . S
C3087 H3077 0.930 . S
C3087 C3080 1.409 . S
C3087 C3086 1.362 . S
H3088 C3094 0.930 . S
H3089 C3097 0.930 . S
H3090 C3098 0.930 . S
H3091 C3099 0.930 . S
H3092 C3102 0.930 . S
H3093 C3103 0.930 . S
C3094 H3088 0.930 . S
C3094 C3095 1.355 . S
C3094 C3096 1.415 . S
C3095 C3094 1.355 . S
C3095 C3097 1.419 . S
C3096 C3094 1.415 . S
C3096 C3101 1.425 . S
C3096 C3103 1.409 . S
C3097 H3089 0.930 . S
C3097 C3095 1.419 . S
C3097 C3098 1.362 . S
C3098 H3090 0.930 . S
C3098 C3097 1.362 . S
C3098 C3101 1.409 . S
C3099 H3091 0.930 . S
C3099 C3100 1.355 . S
C3099 C3101 1.415 . S
C3100 C3099 1.355 . S
C3100 C3102 1.419 . S
C3101 C3096 1.425 . S
C3101 C3098 1.409 . S
C3101 C3099 1.415 . S
C3102 H3092 0.930 . S
C3102 C3100 1.419 . S
C3102 C3103 1.362 . S
C3103 H3093 0.930 . S
C3103 C3096 1.409 . S
C3103 C3102 1.362 . S
H3104 C3110 0.930 . S
H3105 C3113 0.930 . S
H3106 C3114 0.930 . S
H3107 C3115 0.930 . S
H3108 C3118 0.930 . S
H3109 C3119 0.930 . S
C3110 H3104 0.930 . S
C3110 C3111 1.355 . S
C3110 C3112 1.415 . S
C3111 C3110 1.355 . S
C3111 C3113 1.419 . S
C3112 C3110 1.415 . S
C3112 C3117 1.425 . S
C3112 C3119 1.409 . S
C3113 H3105 0.930 . S
C3113 C3111 1.419 . S
C3113 C3114 1.362 . S
C3114 H3106 0.930 . S
C3114 C3113 1.362 . S
C3114 C3117 1.409 . S
C3115 H3107 0.930 . S
C3115 C3116 1.355 . S
C3115 C3117 1.415 . S
C3116 C3115 1.355 . S
C3116 C3118 1.419 . S
C3117 C3112 1.425 . S
C3117 C3114 1.409 . S
C3117 C3115 1.415 . S
C3118 H3108 0.930 . S
C3118 C3116 1.419 . S
C3118 C3119 1.362 . S
C3119 H3109 0.930 . S
C3119 C3112 1.409 . S
C3119 C3118 1.362 . S
H3120 C3126 0.930 . S
H3121 C3129 0.930 . S
H3122 C3130 0.930 . S
H3123 C3131 0.930 . S
H3124 C3134 0.930 . S
H3125 C3135 0.930 . S
C3126 H3120 0.930 . S
C3126 C3127 1.355 . S
C3126 C3128 1.415 . S
C3127 C3126 1.355 . S
C3127 C3129 1.419 . S
C3128 C3126 1.415 . S
C3128 C3133 1.425 . S
C3128 C3135 1.409 . S
C3129 H3121 0.930 . S
C3129 C3127 1.419 . S
C3129 C3130 1.362 . S
C3130 H3122 0.930 . S
C3130 C3129 1.362 . S
C3130 C3133 1.409 . S
C3131 H3123 0.930 . S
C3131 C3132 1.355 . S
C3131 C3133 1.415 . S
C3132 C3131 1.355 . S
C3132 C3134 1.419 . S
C3133 C3128 1.425 . S
C3133 C3130 1.409 . S
C3133 C3131 1.415 . S
C3134 H3124 0.930 . S
C3134 C3132 1.419 . S
C3134 C3135 1.362 . S
C3135 H3125 0.930 . S
C3135 C3128 1.409 . S
C3135 C3134 1.362 . S
H3136 C3142 0.930 . S
H3137 C3145 0.930 . S
H3138 C3146 0.930 . S
H3139 C3147 0.930 . S
H3140 C3150 0.930 . S
H3141 C3151 0.930 . S
C3142 H3136 0.930 . S
C3142 C3143 1.355 . S
C3142 C3144 1.415 . S
C3143 C3142 1.355 . S
C3143 C3145 1.419 . S
C3144 C3142 1.415 . S
C3144 C3149 1.425 . S
C3144 C3151 1.409 . S
C3145 H3137 0.930 . S
C3145 C3143 1.419 . S
C3145 C3146 1.362 . S
C3146 H3138 0.930 . S
C3146 C3145 1.362 . S
C3146 C3149 1.409 . S
C3147 H3139 0.930 . S
C3147 C3148 1.355 . S
C3147 C3149 1.415 . S
C3148 C3147 1.355 . S
C3148 C3150 1.419 . S
C3149 C3144 1.425 . S
C3149 C3146 1.409 . S
C3149 C3147 1.415 . S
C3150 H3140 0.930 . S
C3150 C3148 1.419 . S
C3150 C3151 1.362 . S
C3151 H3141 0.930 . S
C3151 C3144 1.409 . S
C3151 C3150 1.362 . S
H3152 C3158 0.930 . S
H3153 C3161 0.930 . S
H3154 C3162 0.930 . S
H3155 C3163 0.930 . S
H3156 C3166 0.930 . S
H3157 C3167 0.930 . S
C3158 H3152 0.930 . S
C3158 C3159 1.355 . S
C3158 C3160 1.415 . S
C3159 C3158 1.355 . S
C3159 C3161 1.419 . S
C3160 C3158 1.415 . S
C3160 C3165 1.425 . S
C3160 C3167 1.409 . S
C3161 H3153 0.930 . S
C3161 C3159 1.419 . S
C3161 C3162 1.362 . S
C3162 H3154 0.930 . S
C3162 C3161 1.362 . S
C3162 C3165 1.409 . S
C3163 H3155 0.930 . S
C3163 C3164 1.355 . S
C3163 C3165 1.415 . S
C3164 C3163 1.355 . S
C3164 C3166 1.419 . S
C3165 C3160 1.425 . S
C3165 C3162 1.409 . S
C3165 C3163 1.415 . S
C3166 H3156 0.930 . S
C3166 C3164 1.419 . S
C3166 C3167 1.362 . S
C3167 H3157 0.930 . S
C3167 C3160 1.409 . S
C3167 C3166 1.362 . S
H3168 C3174 0.930 . S
H3169 C3177 0.930 . S
H3170 C3178 0.930 . S
H3171 C3179 0.930 1_545 S
H3172 C3182 0.930 . S
H3173 C3183 0.930 . S
C3174 H3168 0.930 . S
C3174 C3175 1.355 . S
C3174 C3176 1.415 . S
C3175 C3174 1.355 . S
C3175 C3177 1.419 . S
C3176 C3174 1.415 . S
C3176 C3181 1.425 . S
C3176 C3183 1.409 . S
C3177 H3169 0.930 . S
C3177 C3175 1.419 . S
C3177 C3178 1.362 . S
C3178 H3170 0.930 . S
C3178 C3177 1.362 . S
C3178 C3181 1.409 . S
C3179 H3171 0.930 1_565 S
C3179 C3180 1.355 . S
C3179 C3181 1.415 . S
C3180 C3179 1.355 . S
C3180 C3182 1.419 . S
C3181 C3176 1.425 . S
C3181 C3178 1.409 . S
C3181 C3179 1.415 . S
C3182 H3172 0.930 . S
C3182 C3180 1.419 . S
C3182 C3183 1.362 . S
C3183 H3173 0.930 . S
C3183 C3176 1.409 . S
C3183 C3182 1.362 . S
H3184 C3190 0.930 . S
H3185 C3193 0.930 . S
H3186 C3194 0.930 . S
H3187 C3195 0.930 . S
H3188 C3198 0.930 . S
H3189 C3199 0.930 . S
C3190 H3184 0.930 . S
C3190 C3191 1.355 . S
C3190 C3192 1.415 . S
C3191 C3190 1.355 . S
C3191 C3193 1.419 . S
C3192 C3190 1.415 . S
C3192 C3197 1.425 . S
C3192 C3199 1.409 . S
C3193 H3185 0.930 . S
C3193 C3191 1.419 . S
C3193 C3194 1.362 . S
C3194 H3186 0.930 . S
C3194 C3193 1.362 . S
C3194 C3197 1.409 . S
C3195 H3187 0.930 . S
C3195 C3196 1.355 . S
C3195 C3197 1.415 . S
C3196 C3195 1.355 . S
C3196 C3198 1.419 . S
C3197 C3192 1.425 . S
C3197 C3194 1.409 . S
C3197 C3195 1.415 . S
C3198 H3188 0.930 . S
C3198 C3196 1.419 . S
C3198 C3199 1.362 . S
C3199 H3189 0.930 . S
C3199 C3192 1.409 . S
C3199 C3198 1.362 . S
H3200 C3206 0.930 . S
H3201 C3209 0.930 . S
H3202 C3210 0.930 . S
H3203 C3211 0.930 . S
H3204 C3214 0.930 . S
H3205 C3215 0.930 . S
C3206 H3200 0.930 . S
C3206 C3207 1.355 . S
C3206 C3208 1.415 . S
C3207 C3206 1.355 . S
C3207 C3209 1.419 . S
C3208 C3206 1.415 . S
C3208 C3213 1.425 . S
C3208 C3215 1.409 . S
C3209 H3201 0.930 . S
C3209 C3207 1.419 . S
C3209 C3210 1.362 . S
C3210 H3202 0.930 . S
C3210 C3209 1.362 . S
C3210 C3213 1.409 . S
C3211 H3203 0.930 . S
C3211 C3212 1.355 . S
C3211 C3213 1.415 . S
C3212 C3211 1.355 . S
C3212 C3214 1.419 . S
C3213 C3208 1.425 . S
C3213 C3210 1.409 . S
C3213 C3211 1.415 . S
C3214 H3204 0.930 . S
C3214 C3212 1.419 . S
C3214 C3215 1.362 . S
C3215 H3205 0.930 . S
C3215 C3208 1.409 . S
C3215 C3214 1.362 . S
H3216 C3222 0.930 . S
H3217 C3225 0.930 . S
H3218 C3226 0.930 . S
H3219 C3227 0.930 . S
H3220 C3230 0.930 . S
H3221 C3231 0.930 . S
C3222 H3216 0.930 . S
C3222 C3223 1.355 . S
C3222 C3224 1.415 . S
C3223 C3222 1.355 . S
C3223 C3225 1.419 . S
C3224 C3222 1.415 . S
C3224 C3229 1.425 . S
C3224 C3231 1.409 . S
C3225 H3217 0.930 . S
C3225 C3223 1.419 . S
C3225 C3226 1.362 . S
C3226 H3218 0.930 . S
C3226 C3225 1.362 . S
C3226 C3229 1.409 . S
C3227 H3219 0.930 . S
C3227 C3228 1.355 . S
C3227 C3229 1.415 . S
C3228 C3227 1.355 . S
C3228 C3230 1.419 . S
C3229 C3224 1.425 . S
C3229 C3226 1.409 . S
C3229 C3227 1.415 . S
C3230 H3220 0.930 . S
C3230 C3228 1.419 . S
C3230 C3231 1.362 . S
C3231 H3221 0.930 . S
C3231 C3224 1.409 . S
C3231 C3230 1.362 . S
H3232 C3238 0.930 . S
H3233 C3241 0.930 . S
H3234 C3242 0.930 . S
H3235 C3243 0.930 . S
H3236 C3246 0.930 . S
H3237 C3247 0.930 . S
C3238 H3232 0.930 . S
C3238 C3239 1.355 . S
C3238 C3240 1.415 . S
C3239 C3238 1.355 . S
C3239 C3241 1.419 . S
C3240 C3238 1.415 . S
C3240 C3245 1.425 . S
C3240 C3247 1.409 . S
C3241 H3233 0.930 . S
C3241 C3239 1.419 . S
C3241 C3242 1.362 . S
C3242 H3234 0.930 . S
C3242 C3241 1.362 . S
C3242 C3245 1.409 . S
C3243 H3235 0.930 . S
C3243 C3244 1.355 . S
C3243 C3245 1.415 . S
C3244 C3243 1.355 . S
C3244 C3246 1.419 . S
C3245 C3240 1.425 . S
C3245 C3242 1.409 . S
C3245 C3243 1.415 . S
C3246 H3236 0.930 . S
C3246 C3244 1.419 . S
C3246 C3247 1.362 . S
C3247 H3237 0.930 . S
C3247 C3240 1.409 . S
C3247 C3246 1.362 . S
H3248 C3254 0.930 . S
H3249 C3257 0.930 1_545 S
H3250 C3258 0.930 . S
H3251 C3259 0.930 . S
H3252 C3262 0.930 . S
H3253 C3263 0.930 . S
C3254 H3248 0.930 . S
C3254 C3255 1.355 . S
C3254 C3256 1.415 . S
C3255 C3254 1.355 . S
C3255 C3257 1.419 . S
C3256 C3254 1.415 . S
C3256 C3261 1.425 . S
C3256 C3263 1.409 . S
C3257 H3249 0.930 1_565 S
C3257 C3255 1.419 . S
C3257 C3258 1.362 . S
C3258 H3250 0.930 . S
C3258 C3257 1.362 . S
C3258 C3261 1.409 . S
C3259 H3251 0.930 . S
C3259 C3260 1.355 . S
C3259 C3261 1.415 . S
C3260 C3259 1.355 . S
C3260 C3262 1.419 . S
C3261 C3256 1.425 . S
C3261 C3258 1.409 . S
C3261 C3259 1.415 . S
C3262 H3252 0.930 . S
C3262 C3260 1.419 . S
C3262 C3263 1.362 . S
C3263 H3253 0.930 . S
C3263 C3256 1.409 . S
C3263 C3262 1.362 . S
C967 C8 2.445 1_655 S
C972 C99 2.376 1_655 S
C983 C39 2.621 . S
C988 C109 2.385 . S
C999 C139 2.098 . S
C1004 C49 1.955 . S
C1015 C159 1.754 . S
C1020 C69 1.579 . S
C1031 C179 2.099 . S
C1036 C199 2.086 . S
C1047 C189 2.004 . S
C1052 C219 2.129 . S
C1063 C229 1.903 . S
C1068 C209 1.905 . S
C1079 C239 2.064 1_545 S
C1084 C169 1.922 . S
C1095 C249 2.240 . S
C1100 C79 2.432 . S
C1111 C149 1.542 . S
C1116 C679 1.747 . S
C1127 C89 1.947 1_655 S
C1132 C269 1.935 1_455 S
C1143 C119 1.807 . S
C1148 C689 1.654 . S
C1159 C29 2.285 . S
C1164 C299 2.449 . S
C1175 C639 2.095 . S
C1180 C2 2.003 . S
C1191 C602 1.977 . S
C1196 C59 2.060 . S
C1207 C398 2.353 . S
C1212 C309 2.462 1_455 S
C1223 C338 2.610 . S
C1228 C408 2.368 . S
C1239 C348 1.947 . S
C1244 C438 2.112 . S
C1255 C368 1.603 . S
C1260 C458 1.771 . S
C1271 C498 2.123 . S
C1276 C478 2.143 . S
C1287 C488 2.000 . S
C1292 C518 2.125 . S
C1303 C528 1.823 . S
C1308 C508 1.809 . S
C1319 C468 1.925 . S
C1324 C538 2.065 1_565 S
C1335 C378 2.411 . S
C1340 C548 2.212 . S
C1351 C858 1.746 . S
C1356 C448 1.542 . S
C1367 C568 1.897 1_655 S
C1372 C388 1.940 1_455 S
C1383 C418 1.754 . S
C1388 C868 1.548 . S
C1399 C598 2.442 . S
C1404 C328 2.278 . S
C1415 C301 1.959 . S
C1420 C818 2.053 . S
C1431 C358 2.084 . S
C1436 C781 2.009 . S
C1447 C659 2.329 . S
C1452 C608 2.433 . S
C1463 C669 2.347 . S
C1468 C259 2.616 . S
C1479 C629 1.928 . S
C1484 C279 2.094 . S
C1495 C699 1.795 . S
C1500 C289 1.646 . S
C1511 C719 2.137 . S
C1516 C739 2.137 . S
C1527 C729 1.922 . S
C1532 C759 2.082 . S
C1543 C769 1.840 . S
C1548 C749 1.817 . S
C1559 C709 1.932 . S
C1564 C779 2.067 . S
C1575 C129 1.846 . S
C1580 C649 1.870 . S
C1591 C838 2.345 . S
C1596 C789 2.430 . S
C1607 C848 2.391 . S
C1612 C558 2.637 . S
C1623 C578 2.099 . S
C1628 C808 1.957 . S
C1639 C878 1.740 . S
C1644 C588 1.571 . S
C1655 C898 2.119 . S
C1660 C918 2.119 . S
C1671 C908 1.960 . S
C1676 C938 2.095 . S
C1687 C928 1.845 . S
C1692 C948 1.873 . S
C1703 C958 2.041 . S
C1708 C888 1.885 . S
C1719 C828 1.960 . S
C1724 C428 1.924 . S
C1735 C9 0.554 . S
C1740 C321 0.516 . S
C1751 C802 0.980 . S
C1756 C38 0.999 . S
C1767 C48 0.536 . S
C1772 C362 0.484 . S
C1783 C68 1.139 . S
C1788 C799 1.168 . S
C1799 C98 1.276 . S
C1804 C441 1.336 . S
C1815 C108 1.078 . S
C1820 C821 1.107 . S
C1831 C138 1.238 . S
C1836 C402 1.232 . S
C1847 C561 1.000 . S
C1852 C158 0.991 . S
C1863 C178 0.952 . S
C1868 C798 1.003 . S
C1879 C188 0.481 . S
C1884 C322 0.589 . S
C1895 C208 0.712 . S
C1900 C801 0.716 . S
C1911 C361 1.089 1_554 S
C1916 C238 1.112 . S
C1927 C822 1.312 . S
C1932 C228 1.384 . S
C1943 C401 0.630 . S
C1948 C168 0.607 . S
C1959 C198 1.056 . S
C1964 C562 1.056 . S
C1975 C442 1.325 . S
C1980 C218 1.341 . S
C1991 C882 0.613 . S
C1996 C248 0.634 . S
C2007 C521 0.901 . S
C2012 C148 0.898 . S
C2023 C88 0.587 . S
C2028 C881 0.643 . S
C2039 C118 0.797 . S
C2044 C482 0.850 . S
C2055 C268 1.285 . S
C2060 C502 1.158 . S
C2071 C921 0.941 . S
C2076 C298 0.969 . S
C2087 C1 0.812 . S
C2092 C942 0.808 . S
C2103 C58 0.682 . S
C2108 C901 0.755 . S
C2119 C22 0.435 . S
C2124 C308 0.647 . S
C2135 C339 0.919 . S
C2140 C621 0.971 . S
C2151 C349 0.490 . S
C2156 C61 0.593 . S
C2167 C369 1.118 . S
C2172 C618 1.154 . S
C2183 C142 1.318 . S
C2188 C399 1.242 . S
C2199 C642 1.077 . S
C2204 C409 1.102 . S
C2215 C101 1.304 . S
C2220 C439 1.337 . S
C2231 C459 0.927 . S
C2236 C262 0.999 . S
C2247 C479 0.986 . S
C2252 C619 1.003 . S
C2263 C21 0.635 . S
C2268 C489 0.478 . S
C2279 C509 0.702 . S
C2284 C622 0.742 . S
C2295 C62 1.107 1_556 S
C2300 C539 1.110 . S
C2311 C641 1.307 . S
C2316 C529 1.377 . S
C2327 C469 0.701 . S
C2332 C102 0.656 . S
C2343 C499 1.020 . S
C2348 C261 1.047 . S
C2359 C141 1.328 . S
C2364 C519 1.334 . S
C2375 C549 0.656 . S
C2380 C701 0.746 . S
C2391 C222 0.916 . S
C2396 C449 0.883 . S
C2407 C702 0.616 . S
C2412 C389 0.587 . S
C2423 C419 0.850 . S
C2428 C181 0.807 . S
C2439 C569 1.283 . S
C2444 C201 1.155 . S
C2455 C742 0.942 . S
C2460 C599 0.971 . S
C2471 C302 0.738 . S
C2476 C761 0.801 . S
C2487 C722 0.743 . S
C2492 C359 0.760 . S
C2503 C541 0.434 . S
C2508 C609 0.655 . S
C2519 C258 0.875 . S
C2524 C342 0.923 . S
C2535 C582 0.567 . S
C2540 C628 0.533 . S
C2551 C288 1.122 . S
C2556 C319 1.161 . S
C2567 C658 1.240 . S
C2572 C861 1.330 . S
C2583 C381 1.074 . S
C2588 C668 1.099 . S
C2599 C278 1.277 . S
C2604 C842 1.232 . S
C2615 C421 1.004 . S
C2620 C698 0.912 . S
C2631 C718 1.028 . S
C2636 C318 1.017 . S
C2647 C728 0.469 . S
C2652 C542 0.521 . S
C2663 C748 0.688 . S
C2668 C341 0.740 . S
C2679 C581 1.104 . S
C2684 C778 1.115 . S
C2695 C382 1.292 . S
C2700 C768 1.386 . S
C2711 C708 0.621 . S
C2716 C841 0.658 . S
C2727 C422 0.955 . S
C2732 C738 0.983 . S
C2743 C758 1.340 . S
C2748 C862 1.356 . S
C2759 C28 0.678 . S
C2764 C462 0.612 . S
C2775 C941 0.929 . S
C2780 C688 0.924 . S
C2791 C648 0.630 . S
C2796 C461 0.581 . S
C2807 C678 0.845 . S
C2812 C902 0.804 . S
C2823 C922 1.241 . S
C2828 C128 1.290 . S
C2839 C501 0.930 . S
C2844 C78 0.862 . S
C2855 C601 0.713 . S
C2860 C522 0.785 . S
C2871 C481 0.743 1_545 S
C2876 C638 0.666 . S
C2887 C242 0.566 . S
C2892 C788 0.455 . S
C2903 C559 0.880 . S
C2908 C41 0.910 . S
C2919 C281 0.461 . S
C2924 C809 0.529 . S
C2935 C589 1.164 . S
C2940 C18 1.160 . S
C2951 C839 1.289 . S
C2956 C682 1.337 . S
C2967 C82 1.070 . S
C2972 C849 1.092 . S
C2983 C661 1.263 . S
C2988 C579 1.249 . S
C2999 C122 0.999 . S
C3004 C879 0.945 . S
C3015 C19 1.011 . S
C3020 C899 1.016 . S
C3031 C909 0.459 . S
C3036 C241 0.486 . S
C3047 C42 0.743 . S
C3052 C929 0.690 . S
C3063 C282 1.106 . S
C3068 C959 1.112 . S
C3079 C81 1.194 . S
C3084 C949 1.341 . S
C3095 C662 0.649 . S
C3100 C889 0.695 . S
C3111 C919 1.037 . S
C3116 C121 1.008 . S
C3127 C681 1.326 . S
C3132 C939 1.348 . S
C3143 C161 0.743 . S
C3148 C329 0.685 . S
C3159 C869 0.923 . S
C3164 C762 0.929 . S
C3175 C829 0.620 . S
C3180 C162 0.582 . S
C3191 C721 0.776 . S
C3196 C859 0.751 . S
C3207 C429 1.269 . S
C3212 C741 1.143 . S
C3223 C379 0.948 . S
C3228 C202 0.953 . S
C3239 C221 0.732 . S
C3244 C782 0.797 . S
C3255 C182 0.733 1_565 S
C3260 C819 0.758 . S
