# Generated by pormake.
# Topology rkf, (6)-cn, num edge types: 1
# Building blocks:
#     Node 0, Type 0, BuildingBlock: BETDAH_clean_sbu_0, # of connection points: 6
#     Node 1, Type 0, BuildingBlock: BETDAH_clean_sbu_0, # of connection points: 6
#     Node 2, Type 0, BuildingBlock: BETDAH_clean_sbu_0, # of connection points: 6
#     Node 3, Type 0, BuildingBlock: BETDAH_clean_sbu_0, # of connection points: 6
#     Node 4, Type 0, BuildingBlock: BETDAH_clean_sbu_0, # of connection points: 6
#     Node 5, Type 0, BuildingBlock: BETDAH_clean_sbu_0, # of connection points: 6
#     Edge 6, Type (0, 0), BuildingBlock: AJUNOK_clean_linker_0, # of connection points: 2
#     Edge 7, Type (0, 0), BuildingBlock: AJUNOK_clean_linker_0, # of connection points: 2
#     Edge 8, Type (0, 0), BuildingBlock: AJUNOK_clean_linker_0, # of connection points: 2
#     Edge 9, Type (0, 0), BuildingBlock: AJUNOK_clean_linker_0, # of connection points: 2
#     Edge 10, Type (0, 0), BuildingBlock: AJUNOK_clean_linker_0, # of connection points: 2
#     Edge 11, Type (0, 0), BuildingBlock: AJUNOK_clean_linker_0, # of connection points: 2
#     Edge 12, Type (0, 0), BuildingBlock: AJUNOK_clean_linker_0, # of connection points: 2
#     Edge 13, Type (0, 0), BuildingBlock: AJUNOK_clean_linker_0, # of connection points: 2
#     Edge 14, Type (0, 0), BuildingBlock: AJUNOK_clean_linker_0, # of connection points: 2
#     Edge 15, Type (0, 0), BuildingBlock: AJUNOK_clean_linker_0, # of connection points: 2
#     Edge 16, Type (0, 0), BuildingBlock: AJUNOK_clean_linker_0, # of connection points: 2
#     Edge 17, Type (0, 0), BuildingBlock: AJUNOK_clean_linker_0, # of connection points: 2
#     Edge 18, Type (0, 0), BuildingBlock: AJUNOK_clean_linker_0, # of connection points: 2
#     Edge 19, Type (0, 0), BuildingBlock: AJUNOK_clean_linker_0, # of connection points: 2
#     Edge 20, Type (0, 0), BuildingBlock: AJUNOK_clean_linker_0, # of connection points: 2
#     Edge 21, Type (0, 0), BuildingBlock: AJUNOK_clean_linker_0, # of connection points: 2
#     Edge 22, Type (0, 0), BuildingBlock: AJUNOK_clean_linker_0, # of connection points: 2
#     Edge 23, Type (0, 0), BuildingBlock: AJUNOK_clean_linker_0, # of connection points: 2
# Relax obj value: 1.026
# Max RMSD: 0.248
# Mean RMSD: 0.248
data_MOF--net-rkf--node1-BETDAH_clean_sbu_0--edge1-AJUNOK_clean_linker_0
_symmetry_space_group_name_H-M    P1
_symmetry_Int_Tables_number       1
_symmetry_cell_setting            triclinic
loop_
_symmetry_equiv_pos_as_xyz
'x, y, z'
_cell_length_a     19.140837
_cell_length_b     19.544861
_cell_length_c     31.92937
_cell_angle_alpha  90.13856
_cell_angle_beta   89.657136
_cell_angle_gamma 120.32039
loop_
_atom_site_label
_atom_site_type_symbol
_atom_site_fract_x
_atom_site_fract_y
_atom_site_fract_z
_atom_type_partial_charge
Ho0 Ho 0.30794 -0.00108 0.24938 0.0
Ho1 Ho 0.38685 0.1631 1.21441 0.0
C2 C 0.36508 0.13729 0.31707 0.0
C3 C 0.27598 0.85421 0.2573 0.0
C4 C 0.25453 0.78795 0.28565 0.0
C5 C 0.21052 0.71051 0.26984 0.0
C6 C 0.1774 0.64579 0.2971 0.0
C7 C 0.18813 0.65832 0.3404 0.0
C8 C 0.23913 0.73568 0.3556 0.0
C9 C 0.27171 0.80026 0.32839 0.0
C10 C 0.21587 0.06599 0.25624 0.0
C11 C 0.28051 0.02538 1.14985 0.0
C12 C 0.45115 0.31242 1.19758 0.0
C13 C 0.43485 0.37797 1.19924 0.0
C14 C 0.38294 0.3823 1.22913 0.0
C15 C 0.36468 0.44335 1.22679 0.0
C16 C 0.39944 0.50095 1.19502 0.0
C17 C 0.45357 0.49726 1.16641 0.0
C18 C 0.4703 0.43609 1.16829 0.0
C19 C 0.47639 0.09104 1.20778 0.0
O20 O 0.35009 0.06331 0.312 0.0
O21 O 0.37184 0.18151 0.28395 0.0
O22 O 0.22061 0.8736 0.25139 0.0
O23 O 0.34901 0.91579 0.2601 0.0
O24 O 0.21218 0.01378 0.28292 0.0
O25 O 0.26104 0.07279 1.22569 0.0
O26 O 0.3074 0.10084 1.15871 0.0
O27 O 0.28471 -0.02137 1.17861 0.0
O28 O 0.40859 0.25621 1.1708 0.0
O29 O 0.46152 0.28566 1.233 0.0
O30 O 0.4741 0.13722 1.17984 0.0
O31 O 0.43515 0.08968 1.23889 0.0
H32 H 0.19755 0.70037 1.23667 0.0
H33 H 0.13787 0.58691 0.28478 0.0
H34 H 0.24722 0.74711 0.38896 0.0
H35 H 0.30592 0.85974 0.34099 0.0
H36 H 0.35432 0.33712 0.25306 0.0
H37 H 0.32155 0.44399 0.24866 0.0
H38 H 0.47922 0.53899 1.14069 0.0
H39 H 0.50895 0.43268 1.14445 0.0
Ho40 Ho 0.41747 0.30328 0.58766 0.0
Ho41 Ho 0.26362 0.30083 0.55788 0.0
C42 C 0.30379 0.31077 0.65835 0.0
C43 C 0.56709 0.3478 0.6011 0.0
C44 C 0.61907 0.38732 0.63762 0.0
C45 C 0.62962 0.45947 0.65295 0.0
C46 C 0.65131 0.48095 0.69474 0.0
C47 C 0.66066 0.42952 0.72188 0.0
C48 C 0.66373 0.36482 0.70421 0.0
C49 C 0.64355 0.34428 0.66239 0.0
C50 C 0.27991 0.16269 0.59113 0.0
C51 C 0.3584 0.26272 0.4866 0.0
C52 C 0.11537 0.26956 0.55662 0.0
C53 C 0.05434 0.28624 0.53983 0.0
C54 C -0.02055 0.2224 0.5276 0.0
C55 C 0.91791 0.2354 0.51422 0.0
C56 C 0.93 0.31255 0.51331 0.0
C57 C 0.00443 0.37627 0.52667 0.0
C58 C 0.0662 0.36329 0.53979 0.0
C59 C 0.39979 0.44297 0.55497 0.0
O60 O 0.38086 0.33597 0.64924 0.0
O61 O 0.24869 0.28026 0.62839 0.0
O62 O 0.50742 0.27559 0.60839 0.0
O63 O 0.54444 0.38966 0.57895 0.0
O64 O 0.33516 0.18464 0.61993 0.0
O65 O 0.30289 0.21476 0.56348 0.0
O66 O 0.29236 0.2662 0.49554 0.0
O67 O 0.41405 0.27709 0.51608 0.0
O68 O 0.17174 0.32415 0.58002 0.0
O69 O 0.1416 0.23226 0.53301 0.0
O70 O 0.34194 0.42097 0.52777 0.0
O71 O 0.37952 0.3914 0.58303 0.0
H72 H 0.61362 0.49534 0.63406 0.0
H73 H 0.65104 0.53259 0.70692 0.0
H74 H 0.67065 0.32326 0.72351 0.0
H75 H 0.63755 0.28927 0.651 0.0
H76 H -0.03125 0.16237 0.52812 0.0
H77 H 0.86227 0.18546 0.50279 0.0
H78 H 0.01561 0.43642 0.52571 0.0
H79 H 0.12314 0.41349 0.54969 0.0
Ho80 Ho 0.20581 0.42182 0.91698 0.0
Ho81 Ho 0.03897 0.27861 0.89574 0.0
C82 C 0.05938 0.33646 0.99058 0.0
C83 C 0.31011 0.56224 0.94237 0.0
C84 C 0.32574 0.60037 0.98399 0.0
C85 C 0.26626 0.60959 1.00515 0.0
C86 C 0.27414 0.62818 1.04785 0.0
C87 C 0.34133 0.63709 1.07009 0.0
C88 C 0.40482 0.63682 1.0476 0.0
C89 C 0.39712 0.61886 1.00501 0.0
C90 C 0.19028 0.27986 0.92933 0.0
C91 C 0.19116 0.34228 0.8278 0.0
C92 C 0.91765 0.14457 0.87343 0.0
C93 C 0.82942 0.09978 0.878 0.0
C94 C 0.78829 0.02059 0.86544 0.0
C95 C 0.70564 -0.01749 0.85744 0.0
C96 C 0.66274 0.02337 0.86167 0.0
C97 C 0.70219 0.09911 0.88017 0.0
C98 C 0.78553 0.13759 0.88785 0.0
C99 C 0.05217 0.42109 0.8887 0.0
O100 O 0.13461 0.39304 0.97992 0.0
O101 O 0.01041 0.28314 0.96327 0.0
O102 O 0.32643 0.50488 0.93875 0.0
O103 O 0.24168 0.54511 0.92454 0.0
O104 O 0.25817 0.34009 0.91627 0.0
O105 O 0.13866 0.29972 0.9362 0.0
O106 O 0.12256 0.28235 0.84305 0.0
O107 O 0.2325 0.40933 0.84914 0.0
O108 O -0.03937 0.15272 0.90678 0.0
O109 O 0.94679 0.2092 0.85086 0.0
O110 O -0.01338 0.35874 0.90157 0.0
O111 O 0.10451 0.40361 0.87779 0.0
H112 H 0.21141 0.59762 0.98945 0.0
H113 H 0.22514 0.62995 1.06398 0.0
H114 H 0.45751 0.64309 1.06358 0.0
H115 H 0.44444 0.61344 0.98929 0.0
H116 H 0.82127 -0.0096 0.85806 0.0
H117 H 0.67795 0.9242 0.84332 0.0
H118 H 0.67049 0.13132 0.88504 0.0
H119 H 0.81658 0.19871 0.89826 0.0
Ho120 Ho 0.86847 0.18487 0.25416 0.0
Ho121 Ho 0.8963 0.05619 1.21654 0.0
C122 C 0.85512 0.05156 0.31801 0.0
C123 C 0.80487 0.27188 0.26877 0.0
C124 C 0.75646 0.27446 0.30371 0.0
C125 C 0.76155 0.34635 0.31443 0.0
C126 C 0.74441 0.35848 0.35547 0.0
C127 C 0.72665 0.3001 0.38608 0.0
C128 C 0.70461 0.22312 0.3728 0.0
C129 C 0.72063 0.21063 0.33178 0.0
C130 C 0.01861 0.20791 0.2621 0.0
C131 C 0.93657 0.2016 1.15635 0.0
C132 C 0.94595 0.95781 1.20162 0.0
C133 C 0.92194 0.87443 1.20871 0.0
C134 C -0.01856 0.85515 1.21813 0.0
C135 C -0.0356 0.77685 1.2144 0.0
C136 C 0.88805 0.71719 1.20029 0.0
C137 C 0.82614 0.73574 1.19601 0.0
C138 C 0.84287 0.81354 1.2004 0.0
C139 C 0.74311 0.03013 1.21233 0.0
O140 O 0.83544 0.10726 0.31241 0.0
O141 O 0.88283 0.02751 0.28631 0.0
O142 O 0.87963 0.29316 0.27846 0.0
O143 O 0.7701 0.20769 0.24585 0.0
O144 O -0.0157 0.22764 0.29131 0.0
O145 O -0.02692 0.18135 1.23099 0.0
O146 O -0.04442 0.14709 1.16557 0.0
O147 O 0.89568 0.21984 1.1839 0.0
O148 O -0.03134 0.00429 1.23434 0.0
O149 O 0.90152 -0.02871 1.1756 0.0
O150 O 0.77583 0.00944 1.18291 0.0
O151 O 0.7915 0.05871 0.24215 0.0
H152 H 0.78782 0.39585 0.29278 0.0
H153 H 0.75968 0.41778 0.36476 0.0
H154 H 0.68932 0.17616 0.39529 0.0
H155 H 0.71492 0.15414 0.32375 0.0
H156 H 0.04268 0.9014 1.22524 0.0
H157 H 0.01312 0.76453 1.21858 0.0
H158 H 0.76681 0.69244 1.18462 0.0
H159 H 0.79554 0.82683 1.1937 0.0
Ho160 Ho 0.77448 0.89035 0.58777 0.0
Ho161 Ho 0.87889 0.82491 0.55612 0.0
C162 C 0.86536 0.84784 0.65655 0.0
C163 C 0.65076 0.90698 0.60248 0.0
C164 C 0.60065 0.89619 0.63954 0.0
C165 C 0.54856 0.92707 0.64039 0.0
C166 C 0.5127 0.93023 0.67816 0.0
C167 C 0.52997 0.9039 0.71557 0.0
C168 C 0.57612 0.86611 0.71344 0.0
C169 C 0.61114 0.86238 0.67579 0.0
C170 C 0.93469 -0.00712 0.58884 0.0
C171 C 0.82778 0.90861 0.48629 0.0
C172 C -0.0157 0.78009 0.55033 0.0
C173 C -0.0019 0.72172 0.52913 0.0
C174 C 0.07768 0.74247 0.51971 0.0
C175 C 0.0931 0.69168 0.49615 0.0
C176 C 0.02894 0.61912 0.4816 0.0
C177 C 0.94945 0.5952 0.49439 0.0
C178 C 0.93396 0.64672 0.51776 0.0
C179 C 0.71861 0.72269 0.55239 0.0
O180 O 0.79758 0.84925 0.65015 0.0
O181 O 0.91174 0.85276 0.62453 0.0
O182 O 0.72581 0.96501 0.60513 0.0
O183 O 0.64499 0.84233 0.58689 0.0
O184 O 0.88613 -0.00652 0.61743 0.0
O185 O 0.89474 0.9424 0.56147 0.0
O186 O 0.87609 0.88016 0.49493 0.0
O187 O 0.78084 0.91316 0.51616 0.0
O188 O 0.92563 0.75201 0.57786 0.0
O189 O -0.01299 0.83657 0.52714 0.0
O190 O 0.77012 0.72603 0.52479 0.0
O191 O 0.75548 0.76998 0.582 0.0
H192 H 0.53925 0.95268 0.61242 0.0
H193 H 0.4762 0.95821 0.6786 0.0
H194 H 0.59151 0.84573 0.74154 0.0
H195 H 0.65078 0.83781 0.6756 0.0
H196 H 0.12778 0.79971 0.52888 0.0
H197 H 0.15498 0.71245 0.48646 0.0
H198 H 0.8991 0.5392 0.48402 0.0
H199 H 0.87198 0.62933 0.52551 0.0
Ho200 Ho -0.0108 0.78857 0.92121 0.0
Ho201 Ho 0.15497 0.89657 0.88218 0.0
C202 C 0.1342 0.88995 0.98439 0.0
C203 C 0.85541 0.66187 0.94194 0.0
C204 C 0.82747 0.6093 0.9791 0.0
C205 C 0.85844 0.55927 0.98813 0.0
C206 C 0.85164 0.52918 1.02863 0.0
C207 C 0.81193 0.54716 1.06007 0.0
C208 C 0.76892 0.58512 1.04886 0.0
C209 C 0.77705 0.6164 1.00871 0.0
C210 C 0.03733 0.94325 0.92269 0.0
C211 C 0.00156 0.83952 0.82123 0.0
C212 C 0.30089 0.00757 0.86457 0.0
C213 C 0.35023 0.0948 0.86214 0.0
C214 C 0.41421 0.13647 0.89036 0.0
C215 C 0.47098 0.21658 0.88364 0.0
C216 C 0.4655 0.25582 0.84808 0.0
C217 C 0.39728 0.21543 0.82203 0.0
C218 C 0.34033 0.13602 0.82902 0.0
C219 C 0.10825 0.74092 0.8833 0.0
O220 O 0.06514 0.82125 0.98057 0.0
O221 O 0.17214 0.93264 0.95076 0.0
O222 O 0.86888 0.73387 0.94802 0.0
O223 O 0.91177 0.66111 0.91877 0.0
O224 O -0.01037 0.89349 0.95103 0.0
O225 O 0.04898 0.90676 0.8937 0.0
O226 O 0.07865 0.89391 0.82758 0.0
O227 O -0.04222 0.78899 0.85164 0.0
O228 O 0.24458 -0.02889 0.83643 0.0
O229 O 0.27819 -0.02356 0.90178 0.0
O230 O 0.15047 0.78912 0.85364 0.0
O231 O 0.09778 0.77876 0.9121 0.0
H232 H 0.8935 0.54884 0.965 0.0
H233 H 0.88413 0.49893 1.03648 0.0
H234 H 0.73772 0.59984 1.07246 0.0
H235 H 0.75 0.65233 1.00214 0.0
H236 H 0.42271 0.10611 0.91645 0.0
H237 H 0.5212 0.2464 0.90505 0.0
H238 H 0.39075 0.24312 0.79414 0.0
H239 H 0.29132 0.10598 0.80689 0.0
C240 C 0.08237 0.14203 0.29984 0.0
C241 C 0.08498 0.19177 0.26742 0.0
C242 C 0.12695 0.10294 0.29674 0.0
C243 C 0.17563 0.1132 0.26134 0.0
H244 H 0.04103 0.12835 0.32597 0.0
H245 H 0.12059 0.06205 0.32133 0.0
S246 S 0.21199 0.24795 1.17164 0.0
N247 N 0.14647 0.25663 1.20173 0.0
N248 N 0.2309 0.18472 1.19597 0.0
C249 C 0.18354 0.16814 1.23063 0.0
C250 C 0.13812 0.20725 1.23375 0.0
C251 C 0.06462 0.05626 0.62948 0.0
C252 C 0.02327 0.03074 0.59118 0.0
C253 C 0.14942 0.09146 0.63093 0.0
C254 C 0.19417 0.10199 0.59403 0.0
H255 H 0.03153 0.05003 0.6582 0.0
H256 H 0.18028 0.11514 0.66033 0.0
S257 S 0.11393 0.03928 0.48679 0.0
N258 N 0.03353 0.01485 0.51617 0.0
N259 N 0.19117 0.07799 0.51928 0.0
C260 C 0.15274 0.07172 0.55632 0.0
C261 C 0.06762 0.03732 0.55471 0.0
C262 C 0.13928 0.07663 0.89561 0.0
C263 C 0.0845 0.02975 0.9274 0.0
C264 C 0.18134 0.15953 0.8981 0.0
C265 C 0.16933 0.19722 0.93241 0.0
H266 H 0.14757 0.04932 0.86793 0.0
H267 H 0.21861 0.19395 0.87186 0.0
S268 S 0.04361 0.10203 1.0267 0.0
N269 N 0.02873 0.02737 0.99636 0.0
N270 N 0.10732 0.18307 1.00079 0.0
C271 C 0.11952 0.15114 0.96561 0.0
C272 C 0.07693 0.06718 0.96316 0.0
C273 C 0.42714 0.63372 1.17285 0.0
C274 C 0.36981 0.55583 1.18495 0.0
C275 C 0.41196 0.66942 1.13884 0.0
C276 C 0.33911 0.62795 1.11641 0.0
H277 H 0.48833 0.66131 1.18479 0.0
H278 H 0.46178 0.72372 1.12619 0.0
S279 S 0.157 0.44112 1.15016 0.0
N280 N 0.22851 0.45247 1.18287 0.0
N281 N 0.19942 0.51893 1.11882 0.0
C282 C 0.27516 0.55949 1.13509 0.0
C283 C 0.29075 0.52344 1.16978 0.0
C284 C 0.9021 0.38163 0.45722 0.0
C285 C 0.8721 0.32765 0.49054 0.0
C286 C 0.85078 0.38077 0.42632 0.0
C287 C 0.76729 0.32515 0.42721 0.0
H288 H -0.03338 0.41815 0.45208 0.0
H289 H 0.8789 0.41619 0.39867 0.0
S290 S 0.65615 0.18487 0.51354 0.0
N291 N 0.75223 0.22789 0.52744 0.0
N292 N 0.65485 0.22551 0.46842 0.0
C293 C 0.73507 0.27801 0.46322 0.0
C294 C 0.78775 0.27907 0.49502 0.0
C295 C 0.5356 0.91337 0.83134 0.0
C296 C 0.58839 -0.00445 0.83604 0.0
C297 C 0.50162 0.88157 0.79224 0.0
C298 C 0.51874 0.93136 0.75723 0.0
H299 H 0.53144 0.87303 0.85575 0.0
H300 H 0.47237 0.81797 0.78805 0.0
S301 S 0.61776 0.15065 0.75948 0.0
N302 N 0.62952 0.12585 0.80715 0.0
N303 N 0.56546 0.06629 0.73398 0.0
C304 C 0.55358 0.01317 0.76458 0.0
C305 C 0.58839 0.04547 0.80429 0.0
C306 C 0.93936 0.65725 1.14889 0.0
C307 C 0.87922 0.64589 1.17832 0.0
C308 C 0.91908 0.61163 1.11239 0.0
C309 C 0.83811 0.55435 1.10411 0.0
H310 H -0.00046 0.70876 1.15048 0.0
H311 H -0.03548 0.63036 1.08787 0.0
S312 S 0.6689 0.47671 1.1803 0.0
N313 N 0.74397 0.55336 1.20426 0.0
N314 N 0.70453 0.47044 1.13405 0.0
C315 C 0.78199 0.53129 1.13709 0.0
C316 C 0.80316 0.57646 1.17481 0.0
C317 C 0.11672 0.57737 0.44543 0.0
C318 C 0.04534 0.58147 0.44564 0.0
C319 C 0.15912 0.58695 0.40798 0.0
C320 C 0.12989 0.59905 0.37011 0.0
H321 H 0.14598 0.57911 0.47468 0.0
H322 H 0.2202 0.59718 0.40961 0.0
S323 S 0.93081 0.58221 0.35248 0.0
N324 N 0.93677 0.57598 0.40372 0.0
N325 N 0.01424 0.58883 0.33334 0.0
C326 C 0.05007 0.58418 0.36904 0.0
C327 C 0.00807 0.57697 0.40711 0.0
C328 C 0.51941 0.38456 0.81053 0.0
C329 C 0.53519 0.3319 0.83287 0.0
C330 C 0.57057 0.43055 0.77791 0.0
C331 C 0.63981 0.42613 0.76722 0.0
H332 H 0.46174 0.38183 0.81421 0.0
H333 H 0.54864 0.45969 0.75749 0.0
S334 S 0.72907 0.33136 0.83071 0.0
N335 N 0.63914 0.30053 0.85198 0.0
N336 N 0.73791 0.39206 0.79249 0.0
C337 C 0.6662 0.39021 0.7963 0.0
C338 C 0.61296 0.3413 0.82877 0.0
C339 C 0.56321 0.04921 0.24561 0.0
C340 C 0.53742 0.06553 1.20773 0.0
C341 C 0.6278 0.03445 0.24645 0.0
C342 C 0.66813 0.03426 1.20944 0.0
H343 H 0.53564 0.0511 0.275 0.0
H344 H 0.6479 0.02537 0.2765 0.0
S345 S 0.61956 0.06707 1.10186 0.0
N346 N 0.5541 0.07593 1.132 0.0
N347 N 0.67465 0.04713 1.13372 0.0
C348 C 0.64028 0.04638 1.1712 0.0
C349 C 0.57522 0.06245 1.17034 0.0
C350 C 0.51832 0.55025 0.51687 0.0
C351 C 0.47691 0.51891 0.55473 0.0
C352 C 0.59595 0.61767 0.51648 0.0
C353 C 0.63371 0.65715 0.55383 0.0
H354 H 0.49207 0.52058 0.48754 0.0
H355 H 0.62722 0.63831 0.48674 0.0
S356 S 0.54608 0.6032 0.66082 0.0
N357 N 0.47649 0.53453 0.63028 0.0
N358 N 0.62107 0.66318 0.62942 0.0
C359 C 0.59094 0.62874 0.59171 0.0
C360 C 0.51282 0.55892 0.5922 0.0
C361 C 0.0865 0.54486 0.85082 0.0
C362 C 0.06478 0.50159 0.88828 0.0
C363 C 0.09903 0.62188 0.84962 0.0
C364 C 0.09166 0.65861 0.88602 0.0
H365 H 0.09302 0.51867 0.82218 0.0
H366 H 0.11493 0.65299 0.81993 0.0
S367 S 0.04817 0.57342 0.99318 0.0
N368 N 0.04231 0.50177 0.96314 0.0
N369 N 0.06884 0.64803 0.9614 0.0
C370 C 0.07217 0.61645 0.92401 0.0
C371 C 0.05801 0.53741 0.925 0.0
C372 C 0.39603 0.15164 0.3961 0.0
C373 C 0.3654 0.17021 0.36037 0.0
C374 C 0.39702 0.18404 0.4363 0.0
C375 C 0.36534 0.23487 0.44306 0.0
H376 H 0.42018 0.11231 0.39296 0.0
H377 H 0.42073 0.16723 0.46255 0.0
S378 S 0.27654 0.30127 0.36047 0.0
N379 N 0.30306 0.24405 0.33521 0.0
N380 N 0.30214 0.30137 0.40977 0.0
C381 C 0.33418 0.25324 0.40761 0.0
C382 C 0.33498 0.22205 0.36675 0.0
C383 C 0.33059 0.36621 0.73335 0.0
C384 C 0.27607 0.31595 0.7024 0.0
C385 C 0.30346 0.37513 0.77351 0.0
C386 C 0.22065 0.3329 0.78512 0.0
H387 H 0.3947 0.40038 0.72625 0.0
H388 H 0.34792 0.41521 0.79572 0.0
S389 S 0.05244 0.193 0.71643 0.0
N390 N 0.1342 0.22375 0.68715 0.0
N391 N 0.08482 0.2385 0.76177 0.0
C392 C 0.16599 0.2816 0.75474 0.0
C393 C 0.19314 0.27371 0.71383 0.0
C394 C 0.07909 0.30039 1.06299 0.0
C395 C 0.03432 0.31965 1.03563 0.0
C396 C 0.04705 0.2635 1.10189 0.0
C397 C -0.0295 0.24773 1.11643 0.0
H398 H 0.13728 0.30907 1.05315 0.0
H399 H 0.08239 0.24605 1.12054 0.0
S400 S 0.83162 0.29315 1.05824 0.0
N401 N 0.90998 0.32244 1.02631 0.0
N402 N 0.85282 0.25916 1.10078 0.0
C403 C 0.92717 0.27129 1.09048 0.0
C404 C -0.04167 0.30575 1.04989 0.0
C405 C 0.80476 0.02484 0.39422 0.0
C406 C 0.84692 0.014 0.36074 0.0
C407 C 0.79726 -0.0103 0.43415 0.0
C408 C 0.83213 0.94239 0.44289 0.0
H409 H 0.77705 0.06076 0.38962 0.0
H410 H 0.76471 0.0008 0.45857 0.0
S411 S 0.95074 0.89639 0.36666 0.0
N412 N 0.92502 0.95234 0.33997 0.0
N413 N 0.91132 0.88768 0.41378 0.0
C414 C 0.87462 0.93141 0.40965 0.0
C415 C 0.88187 -0.03335 0.36912 0.0
C416 C -0.02009 0.8769 0.70548 0.0
C417 C 0.89619 0.84678 0.69981 0.0
C418 C 0.01246 0.8743 0.74449 0.0
C419 C -0.03686 0.84001 0.78011 0.0
H420 H 0.02149 0.90326 0.67938 0.0
H421 H 0.07726 0.89874 0.74651 0.0
S422 S 0.73979 0.75362 0.78311 0.0
N423 N 0.7646 0.78294 0.73402 0.0
N424 N 0.82515 0.77643 0.8071 0.0
C425 C 0.87912 0.80977 0.77514 0.0
C426 C 0.84597 0.81372 0.73527 0.0
C427 C 0.15653 0.87601 1.06224 0.0
C428 C 0.16916 0.92437 1.02694 0.0
C429 C 0.19288 0.90869 1.10148 0.0
C430 C 0.2423 -0.0085 1.10769 0.0
H431 H 0.11954 0.81221 1.0594 0.0
H432 H 0.18157 0.86845 1.12727 0.0
S433 S 0.29053 0.14491 1.0262 0.0
N434 N 0.23322 0.06031 1.00172 0.0
N435 N 0.29874 0.12075 1.07467 0.0
C436 C 0.25352 0.04038 1.07286 0.0
C437 C 0.21787 0.0072 1.03289 0.0
loop_
_geom_bond_atom_site_label_1
_geom_bond_atom_site_label_2
_geom_bond_distance
_geom_bond_site_symmetry_2
_ccdc_geom_bond_type
Ho0 C3 2.811 . S
Ho0 O20 2.322 . S
Ho0 O22 2.378 . S
Ho0 O23 2.524 . S
Ho0 O24 2.381 . S
Ho0 O25 2.669 . S
Ho0 O27 2.346 1_554 S
Ho0 O31 2.305 . S
Ho1 C12 2.811 . S
Ho1 O21 2.346 1_556 S
Ho1 O25 2.305 1_556 S
Ho1 O26 2.322 . S
Ho1 O28 2.378 . S
Ho1 O29 2.524 . S
Ho1 O30 2.381 . S
Ho1 O31 2.669 1_556 S
C2 O20 1.259 . S
C2 O21 1.268 . S
C3 Ho0 2.811 . S
C3 C4 1.488 . S
C3 O22 1.215 . S
C3 O23 1.289 . S
C4 C3 1.488 . S
C4 C5 1.348 . S
C4 C9 1.413 1_545 S
C5 C4 1.348 . S
C5 C6 1.442 . S
C5 H32 0.930 . S
C6 C5 1.442 . S
C6 C7 1.381 1_545 S
C6 H33 0.931 . S
C7 C6 1.381 1_565 S
C7 C8 1.321 . S
C8 C7 1.321 . S
C8 C9 1.405 . S
C8 H34 0.934 . S
C9 C4 1.413 1_565 S
C9 C8 1.405 . S
C9 H35 0.928 . S
C10 O24 1.275 . S
C10 O25 1.256 . S
C11 O26 1.259 . S
C11 O27 1.268 . S
C12 Ho1 2.811 . S
C12 C13 1.488 . S
C12 O28 1.215 . S
C12 O29 1.289 . S
C13 C12 1.488 . S
C13 C14 1.348 . S
C13 C18 1.413 . S
C14 C13 1.348 . S
C14 C15 1.442 . S
C14 H36 0.930 . S
C15 C14 1.442 . S
C15 C16 1.381 . S
C15 H37 0.931 . S
C16 C15 1.381 . S
C16 C17 1.321 . S
C17 C16 1.321 . S
C17 C18 1.403 . S
C17 H38 0.934 . S
C18 C13 1.413 . S
C18 C17 1.403 . S
C18 H39 0.930 . S
C19 O30 1.275 1_554 S
C19 O31 1.256 . S
O20 Ho0 2.322 . S
O20 C2 1.259 . S
O21 Ho1 2.346 1_554 S
O21 C2 1.268 . S
O22 Ho0 2.378 . S
O22 C3 1.215 . S
O23 Ho0 2.524 . S
O23 C3 1.289 . S
O24 Ho0 2.381 . S
O24 C10 1.275 . S
O25 Ho0 2.669 . S
O25 Ho1 2.305 1_554 S
O25 C10 1.256 . S
O26 Ho1 2.322 . S
O26 C11 1.259 . S
O27 Ho0 2.346 1_556 S
O27 C11 1.268 . S
O28 Ho1 2.378 . S
O28 C12 1.215 . S
O29 Ho1 2.524 . S
O29 C12 1.289 . S
O30 Ho1 2.381 . S
O30 C19 1.275 1_556 S
O31 Ho0 2.305 . S
O31 Ho1 2.669 1_554 S
O31 C19 1.256 . S
H32 C5 0.930 . S
H33 C6 0.931 . S
H34 C8 0.934 . S
H35 C9 0.928 . S
H36 C14 0.930 . S
H37 C15 0.931 . S
H38 C17 0.934 . S
H39 C18 0.930 . S
Ho40 C43 2.811 . S
Ho40 O60 2.322 . S
Ho40 O62 2.378 . S
Ho40 O63 2.524 . S
Ho40 O64 2.381 . S
Ho40 O65 2.669 . S
Ho40 O67 2.346 . S
Ho40 O71 2.305 . S
Ho41 C52 2.811 . S
Ho41 O61 2.346 . S
Ho41 O65 2.305 . S
Ho41 O66 2.322 . S
Ho41 O68 2.378 . S
Ho41 O69 2.524 . S
Ho41 O70 2.381 . S
Ho41 O71 2.669 . S
C42 O60 1.259 . S
C42 O61 1.268 . S
C43 Ho40 2.811 . S
C43 C44 1.488 . S
C43 O62 1.215 . S
C43 O63 1.289 . S
C44 C43 1.488 . S
C44 C45 1.348 . S
C44 C49 1.413 . S
C45 C44 1.348 . S
C45 C46 1.442 . S
C45 H72 0.930 . S
C46 C45 1.442 . S
C46 C47 1.381 . S
C46 H73 0.931 . S
C47 C46 1.381 . S
C47 C48 1.321 . S
C48 C47 1.321 . S
C48 C49 1.403 . S
C48 H74 0.934 . S
C49 C44 1.413 . S
C49 C48 1.403 . S
C49 H75 0.930 . S
C50 O64 1.275 . S
C50 O65 1.256 . S
C51 O66 1.259 . S
C51 O67 1.268 . S
C52 Ho41 2.811 . S
C52 C53 1.488 . S
C52 O68 1.215 . S
C52 O69 1.289 . S
C53 C52 1.488 . S
C53 C54 1.348 . S
C53 C58 1.413 . S
C54 C53 1.348 . S
C54 C55 1.442 . S
C54 H76 0.930 . S
C55 C54 1.442 . S
C55 C56 1.381 . S
C55 H77 0.931 . S
C56 C55 1.381 . S
C56 C57 1.321 . S
C57 C56 1.321 . S
C57 C58 1.403 . S
C57 H78 0.934 . S
C58 C53 1.413 . S
C58 C57 1.403 . S
C58 H79 0.930 . S
C59 O70 1.275 . S
C59 O71 1.256 . S
O60 Ho40 2.322 . S
O60 C42 1.259 . S
O61 Ho41 2.346 . S
O61 C42 1.268 . S
O62 Ho40 2.378 . S
O62 C43 1.215 . S
O63 Ho40 2.524 . S
O63 C43 1.289 . S
O64 Ho40 2.381 . S
O64 C50 1.275 . S
O65 Ho40 2.669 . S
O65 Ho41 2.305 . S
O65 C50 1.256 . S
O66 Ho41 2.322 . S
O66 C51 1.259 . S
O67 Ho40 2.346 . S
O67 C51 1.268 . S
O68 Ho41 2.378 . S
O68 C52 1.215 . S
O69 Ho41 2.524 . S
O69 C52 1.289 . S
O70 Ho41 2.381 . S
O70 C59 1.275 . S
O71 Ho40 2.305 . S
O71 Ho41 2.669 . S
O71 C59 1.256 . S
H72 C45 0.930 . S
H73 C46 0.931 . S
H74 C48 0.934 . S
H75 C49 0.930 . S
H76 C54 0.930 . S
H77 C55 0.931 . S
H78 C57 0.934 . S
H79 C58 0.930 . S
Ho80 C83 2.811 . S
Ho80 O100 2.322 . S
Ho80 O102 2.378 . S
Ho80 O103 2.524 . S
Ho80 O104 2.381 . S
Ho80 O105 2.674 . S
Ho80 O107 2.346 . S
Ho80 O111 2.305 . S
Ho81 C92 2.811 . S
Ho81 O101 2.346 . S
Ho81 O105 2.291 1_655 S
Ho81 O106 2.322 1_655 S
Ho81 O108 2.378 . S
Ho81 O109 2.524 . S
Ho81 O110 2.381 . S
Ho81 O111 2.669 1_655 S
C82 O100 1.259 1_655 S
C82 O101 1.268 . S
C83 Ho80 2.811 . S
C83 C84 1.488 . S
C83 O102 1.215 . S
C83 O103 1.289 . S
C84 C83 1.488 . S
C84 C85 1.348 . S
C84 C89 1.413 . S
C85 C84 1.348 . S
C85 C86 1.442 . S
C85 H112 0.930 . S
C86 C85 1.442 . S
C86 C87 1.381 . S
C86 H113 0.931 . S
C87 C86 1.381 . S
C87 C88 1.321 . S
C88 C87 1.321 . S
C88 C89 1.403 . S
C88 H114 0.934 . S
C89 C84 1.413 . S
C89 C88 1.403 . S
C89 H115 0.930 . S
C90 O104 1.275 . S
C90 O105 1.268 . S
C91 O106 1.259 . S
C91 O107 1.268 . S
C92 Ho81 2.811 . S
C92 C93 1.488 . S
C92 O108 1.215 . S
C92 O109 1.289 . S
C93 C92 1.488 . S
C93 C94 1.348 . S
C93 C98 1.413 . S
C94 C93 1.348 . S
C94 C95 1.442 . S
C94 H116 0.930 . S
C95 C94 1.442 . S
C95 C96 1.381 . S
C95 H117 0.931 . S
C96 C95 1.381 . S
C96 C97 1.321 . S
C97 C96 1.321 . S
C97 C98 1.403 . S
C97 H118 0.934 . S
C98 C93 1.413 . S
C98 C97 1.403 . S
C98 H119 0.930 . S
C99 O110 1.275 . S
C99 O111 1.256 1_655 S
O100 Ho80 2.322 . S
O100 C82 1.259 1_455 S
O101 Ho81 2.346 . S
O101 C82 1.268 . S
O102 Ho80 2.378 . S
O102 C83 1.215 . S
O103 Ho80 2.524 . S
O103 C83 1.289 . S
O104 Ho80 2.381 . S
O104 C90 1.275 . S
O105 Ho80 2.674 . S
O105 Ho81 2.291 1_455 S
O105 C90 1.268 . S
O106 Ho81 2.322 1_455 S
O106 C91 1.259 . S
O107 Ho80 2.346 . S
O107 C91 1.268 . S
O108 Ho81 2.378 . S
O108 C92 1.215 . S
O109 Ho81 2.524 . S
O109 C92 1.289 . S
O110 Ho81 2.381 . S
O110 C99 1.275 . S
O111 Ho80 2.305 . S
O111 Ho81 2.669 1_455 S
O111 C99 1.256 1_455 S
H112 C85 0.930 . S
H113 C86 0.931 . S
H114 C88 0.934 . S
H115 C89 0.930 . S
H116 C94 0.930 . S
H117 C95 0.931 . S
H118 C97 0.934 . S
H119 C98 0.930 . S
Ho120 C123 2.811 . S
Ho120 O140 2.322 1_545 S
Ho120 O142 2.378 . S
Ho120 O143 2.524 . S
Ho120 O144 2.381 . S
Ho120 O145 2.669 1_545 S
Ho120 O147 2.346 1_554 S
Ho120 O151 2.305 . S
Ho121 C132 2.811 . S
Ho121 O141 2.346 1_556 S
Ho121 O145 2.305 1_556 S
Ho121 O146 2.322 1_565 S
Ho121 O148 2.378 . S
Ho121 O149 2.524 . S
Ho121 O150 2.381 . S
Ho121 O151 2.669 1_566 S
C122 O140 1.259 . S
C122 O141 1.268 . S
C123 Ho120 2.811 . S
C123 C124 1.488 . S
C123 O142 1.215 . S
C123 O143 1.289 . S
C124 C123 1.488 . S
C124 C125 1.348 . S
C124 C129 1.413 . S
C125 C124 1.348 . S
C125 C126 1.442 . S
C125 H152 0.930 . S
C126 C125 1.442 . S
C126 C127 1.381 . S
C126 H153 0.931 . S
C127 C126 1.381 . S
C127 C128 1.321 . S
C128 C127 1.321 . S
C128 C129 1.403 . S
C128 H154 0.934 1_655 S
C129 C124 1.413 . S
C129 C128 1.403 . S
C129 H155 0.930 . S
C130 O144 1.275 . S
C130 O145 1.256 1_545 S
C131 O146 1.259 . S
C131 O147 1.268 . S
C132 Ho121 2.811 . S
C132 C133 1.488 . S
C132 O148 1.215 . S
C132 O149 1.289 . S
C133 C132 1.488 . S
C133 C134 1.348 . S
C133 C138 1.413 . S
C134 C133 1.348 . S
C134 C135 1.442 . S
C134 H156 0.930 . S
C135 C134 1.442 . S
C135 C136 1.381 . S
C135 H157 0.931 . S
C136 C135 1.381 . S
C136 C137 1.321 . S
C137 C136 1.321 . S
C137 C138 1.403 . S
C137 H158 0.934 . S
C138 C133 1.413 . S
C138 C137 1.403 . S
C138 H159 0.930 . S
C139 O150 1.275 1_554 S
C139 O151 1.256 1_565 S
O140 Ho120 2.322 1_565 S
O140 C122 1.259 . S
O141 Ho121 2.346 1_554 S
O141 C122 1.268 . S
O142 Ho120 2.378 . S
O142 C123 1.215 . S
O143 Ho120 2.524 . S
O143 C123 1.289 . S
O144 Ho120 2.381 . S
O144 C130 1.275 . S
O145 Ho120 2.669 1_565 S
O145 Ho121 2.305 1_554 S
O145 C130 1.256 1_565 S
O146 Ho121 2.322 1_545 S
O146 C131 1.259 . S
O147 Ho120 2.346 1_556 S
O147 C131 1.268 . S
O148 Ho121 2.378 . S
O148 C132 1.215 . S
O149 Ho121 2.524 . S
O149 C132 1.289 . S
O150 Ho121 2.381 . S
O150 C139 1.275 1_556 S
O151 Ho120 2.305 . S
O151 Ho121 2.669 1_544 S
O151 C139 1.256 1_545 S
H152 C125 0.930 . S
H153 C126 0.931 . S
H154 C128 0.934 1_455 S
H155 C129 0.930 . S
H156 C134 0.930 . S
H157 C135 0.931 . S
H158 C137 0.934 . S
H159 C138 0.930 . S
Ho160 C163 2.811 . S
Ho160 O180 2.322 . S
Ho160 O182 2.378 . S
Ho160 O183 2.524 . S
Ho160 O184 2.381 1_655 S
Ho160 O185 2.669 1_655 S
Ho160 O187 2.346 . S
Ho160 O191 2.305 . S
Ho161 C172 2.811 1_655 S
Ho161 O181 2.346 . S
Ho161 O185 2.305 1_655 S
Ho161 O186 2.322 . S
Ho161 O188 2.378 . S
Ho161 O189 2.524 1_655 S
Ho161 O190 2.381 . S
Ho161 O191 2.669 . S
C162 O180 1.259 . S
C162 O181 1.268 . S
C163 Ho160 2.811 . S
C163 C164 1.488 . S
C163 O182 1.215 . S
C163 O183 1.289 . S
C164 C163 1.488 . S
C164 C165 1.348 . S
C164 C169 1.413 . S
C165 C164 1.348 . S
C165 C166 1.442 . S
C165 H192 0.930 . S
C166 C165 1.442 . S
C166 C167 1.381 . S
C166 H193 0.931 . S
C167 C166 1.381 . S
C167 C168 1.321 . S
C168 C167 1.321 . S
C168 C169 1.403 . S
C168 H194 0.934 1_565 S
C169 C164 1.413 . S
C169 C168 1.403 . S
C169 H195 0.930 . S
C170 O184 1.275 . S
C170 O185 1.256 . S
C171 O186 1.259 . S
C171 O187 1.268 . S
C172 Ho161 2.811 1_455 S
C172 C173 1.488 . S
C172 O188 1.215 1_455 S
C172 O189 1.289 . S
C173 C172 1.488 . S
C173 C174 1.348 . S
C173 C178 1.413 . S
C174 C173 1.348 . S
C174 C175 1.442 . S
C174 H196 0.930 . S
C175 C174 1.442 . S
C175 C176 1.381 . S
C175 H197 0.931 . S
C176 C175 1.381 . S
C176 C177 1.321 . S
C177 C176 1.321 . S
C177 C178 1.403 . S
C177 H198 0.934 . S
C178 C173 1.413 . S
C178 C177 1.403 . S
C178 H199 0.930 1_455 S
C179 O190 1.275 . S
C179 O191 1.256 . S
O180 Ho160 2.322 . S
O180 C162 1.259 . S
O181 Ho161 2.346 . S
O181 C162 1.268 . S
O182 Ho160 2.378 . S
O182 C163 1.215 . S
O183 Ho160 2.524 . S
O183 C163 1.289 . S
O184 Ho160 2.381 1_455 S
O184 C170 1.275 . S
O185 Ho160 2.669 1_455 S
O185 Ho161 2.305 1_455 S
O185 C170 1.256 . S
O186 Ho161 2.322 . S
O186 C171 1.259 . S
O187 Ho160 2.346 . S
O187 C171 1.268 . S
O188 Ho161 2.378 . S
O188 C172 1.215 1_655 S
O189 Ho161 2.524 1_455 S
O189 C172 1.289 . S
O190 Ho161 2.381 . S
O190 C179 1.275 . S
O191 Ho160 2.305 . S
O191 Ho161 2.669 . S
O191 C179 1.256 . S
H192 C165 0.930 . S
H193 C166 0.931 . S
H194 C168 0.934 1_545 S
H195 C169 0.930 . S
H196 C174 0.930 . S
H197 C175 0.931 . S
H198 C177 0.934 . S
H199 C178 0.930 1_655 S
Ho200 C203 2.811 . S
Ho200 O220 2.322 . S
Ho200 O222 2.378 . S
Ho200 O223 2.524 . S
Ho200 O224 2.384 . S
Ho200 O225 2.669 1_565 S
Ho200 O227 2.346 . S
Ho200 O231 2.305 . S
Ho201 C212 2.811 1_565 S
Ho201 O221 2.346 . S
Ho201 O225 2.305 1_565 S
Ho201 O226 2.322 . S
Ho201 O228 2.378 . S
Ho201 O229 2.524 1_565 S
Ho201 O230 2.381 . S
Ho201 O231 2.669 . S
C202 O220 1.259 . S
C202 O221 1.268 . S
C203 Ho200 2.811 . S
C203 C204 1.488 . S
C203 O222 1.215 . S
C203 O223 1.289 . S
C204 C203 1.488 . S
C204 C205 1.348 . S
C204 C209 1.413 . S
C205 C204 1.348 . S
C205 C206 1.442 . S
C205 H232 0.930 . S
C206 C205 1.442 . S
C206 C207 1.381 1_455 S
C206 H233 0.931 . S
C207 C206 1.381 1_655 S
C207 C208 1.321 . S
C208 C207 1.321 . S
C208 C209 1.403 1_655 S
C208 H234 0.934 . S
C209 C204 1.413 . S
C209 C208 1.403 1_455 S
C209 H235 0.930 1_455 S
C210 O224 1.274 1_545 S
C210 O225 1.256 . S
C211 O226 1.259 . S
C211 O227 1.268 . S
C212 Ho201 2.811 1_545 S
C212 C213 1.488 . S
C212 O228 1.215 1_545 S
C212 O229 1.289 . S
C213 C212 1.488 . S
C213 C214 1.348 . S
C213 C218 1.413 . S
C214 C213 1.348 . S
C214 C215 1.442 . S
C214 H236 0.930 . S
C215 C214 1.442 . S
C215 C216 1.381 . S
C215 H237 0.931 . S
C216 C215 1.381 . S
C216 C217 1.321 . S
C217 C216 1.321 . S
C217 C218 1.403 . S
C217 H238 0.934 . S
C218 C213 1.413 . S
C218 C217 1.403 . S
C218 H239 0.930 1_545 S
C219 O230 1.275 . S
C219 O231 1.256 . S
O220 Ho200 2.322 . S
O220 C202 1.259 . S
O221 Ho201 2.346 . S
O221 C202 1.268 . S
O222 Ho200 2.378 . S
O222 C203 1.215 . S
O223 Ho200 2.524 . S
O223 C203 1.289 . S
O224 Ho200 2.384 . S
O224 C210 1.274 1_565 S
O225 Ho200 2.669 1_545 S
O225 Ho201 2.305 1_545 S
O225 C210 1.256 . S
O226 Ho201 2.322 . S
O226 C211 1.259 . S
O227 Ho200 2.346 . S
O227 C211 1.268 . S
O228 Ho201 2.378 . S
O228 C212 1.215 1_565 S
O229 Ho201 2.524 1_545 S
O229 C212 1.289 . S
O230 Ho201 2.381 . S
O230 C219 1.275 . S
O231 Ho200 2.305 . S
O231 Ho201 2.669 . S
O231 C219 1.256 . S
H232 C205 0.930 . S
H233 C206 0.931 . S
H234 C208 0.934 . S
H235 C209 0.930 1_655 S
H236 C214 0.930 . S
H237 C215 0.931 . S
H238 C217 0.934 . S
H239 C218 0.930 1_565 S
C240 C241 1.369 . S
C240 C242 1.419 . S
C240 H244 0.930 . S
C241 C240 1.369 . S
C241 C250 1.429 1_554 S
C242 C240 1.419 . S
C242 C243 1.363 . S
C242 H245 0.929 . S
C243 C242 1.363 . S
C243 C249 1.428 1_554 S
H244 C240 0.930 . S
H245 C242 0.929 . S
S246 N247 1.613 . S
S246 N248 1.610 . S
N247 S246 1.613 . S
N247 C250 1.350 . S
N248 S246 1.610 . S
N248 C249 1.351 . S
C249 C243 1.428 1_556 S
C249 N248 1.351 . S
C249 C250 1.434 . S
C250 C241 1.429 1_556 S
C250 N247 1.350 . S
C250 C249 1.434 . S
C251 C252 1.369 . S
C251 C253 1.419 . S
C251 H255 0.930 . S
C252 C251 1.369 . S
C252 C261 1.429 . S
C253 C251 1.419 . S
C253 C254 1.363 . S
C253 H256 0.929 . S
C254 C253 1.363 . S
C254 C260 1.428 . S
H255 C251 0.930 . S
H256 C253 0.929 . S
S257 N258 1.613 . S
S257 N259 1.610 1_655 S
N258 S257 1.613 . S
N258 C261 1.350 1_655 S
N259 S257 1.610 1_455 S
N259 C260 1.351 . S
C260 C254 1.428 . S
C260 N259 1.351 . S
C260 C261 1.434 . S
C261 C252 1.429 . S
C261 N258 1.350 1_455 S
C261 C260 1.434 . S
C262 C263 1.369 . S
C262 C264 1.419 . S
C262 H266 0.930 . S
C263 C262 1.369 . S
C263 C272 1.429 . S
C264 C262 1.419 . S
C264 C265 1.363 . S
C264 H267 0.929 . S
C265 C264 1.363 . S
C265 C271 1.428 . S
H266 C262 0.930 . S
H267 C264 0.929 . S
S268 N269 1.613 . S
S268 N270 1.610 . S
N269 S268 1.613 . S
N269 C272 1.350 . S
N270 S268 1.610 . S
N270 C271 1.351 . S
C271 C265 1.428 . S
C271 N270 1.351 . S
C271 C272 1.434 . S
C272 C263 1.429 . S
C272 N269 1.350 . S
C272 C271 1.434 . S
C273 C274 1.369 . S
C273 C275 1.419 . S
C273 H277 0.930 . S
C274 C273 1.369 . S
C274 C283 1.429 . S
C275 C273 1.419 . S
C275 C276 1.363 . S
C275 H278 0.929 . S
C276 C275 1.363 . S
C276 C282 1.428 . S
H277 C273 0.930 . S
H278 C275 0.929 . S
S279 N280 1.613 . S
S279 N281 1.610 . S
N280 S279 1.613 . S
N280 C283 1.350 . S
N281 S279 1.610 . S
N281 C282 1.351 . S
C282 C276 1.428 . S
C282 N281 1.351 . S
C282 C283 1.434 . S
C283 C274 1.429 . S
C283 N280 1.350 . S
C283 C282 1.434 . S
C284 C285 1.369 . S
C284 C286 1.419 1_455 S
C284 H288 0.930 . S
C285 C284 1.369 . S
C285 C294 1.429 . S
C286 C284 1.419 1_655 S
C286 C287 1.363 . S
C286 H289 0.929 . S
C287 C286 1.363 . S
C287 C293 1.428 . S
H288 C284 0.930 . S
H289 C286 0.929 . S
S290 N291 1.613 . S
S290 N292 1.610 1_455 S
N291 S290 1.613 . S
N291 C294 1.350 . S
N292 S290 1.610 1_655 S
N292 C293 1.351 . S
C293 C287 1.428 . S
C293 N292 1.351 . S
C293 C294 1.434 1_655 S
C294 C285 1.429 . S
C294 N291 1.350 . S
C294 C293 1.434 1_455 S
C295 C296 1.369 . S
C295 C297 1.419 1_545 S
C295 H299 0.930 . S
C296 C295 1.369 . S
C296 C305 1.429 . S
C297 C295 1.419 1_565 S
C297 C298 1.363 . S
C297 H300 0.929 . S
C298 C297 1.363 . S
C298 C304 1.428 . S
H299 C295 0.930 . S
H300 C297 0.929 . S
S301 N302 1.613 1_565 S
S301 N303 1.610 . S
N302 S301 1.613 1_545 S
N302 C305 1.350 . S
N303 S301 1.610 . S
N303 C304 1.351 . S
C304 C298 1.428 . S
C304 N303 1.351 . S
C304 C305 1.434 1_565 S
C305 C296 1.429 . S
C305 N302 1.350 . S
C305 C304 1.434 1_545 S
C306 C307 1.369 . S
C306 C308 1.419 . S
C306 H310 0.930 . S
C307 C306 1.369 . S
C307 C316 1.429 . S
C308 C306 1.419 . S
C308 C309 1.363 . S
C308 H311 0.929 . S
C309 C308 1.363 . S
C309 C315 1.428 . S
H310 C306 0.930 . S
H311 C308 0.929 . S
S312 N313 1.613 . S
S312 N314 1.610 . S
N313 S312 1.613 . S
N313 C316 1.350 . S
N314 S312 1.610 . S
N314 C315 1.351 . S
C315 C309 1.428 . S
C315 N314 1.351 . S
C315 C316 1.434 . S
C316 C307 1.429 . S
C316 N313 1.350 . S
C316 C315 1.434 . S
C317 C318 1.369 . S
C317 C319 1.419 . S
C317 H321 0.930 . S
C318 C317 1.369 . S
C318 C327 1.429 . S
C319 C317 1.419 . S
C319 C320 1.363 . S
C319 H322 0.929 . S
C320 C319 1.363 . S
C320 C326 1.428 . S
H321 C317 0.930 . S
H322 C319 0.929 . S
S323 N324 1.613 . S
S323 N325 1.610 . S
N324 S323 1.613 . S
N324 C327 1.350 . S
N325 S323 1.610 . S
N325 C326 1.351 . S
C326 C320 1.428 . S
C326 N325 1.351 . S
C326 C327 1.434 . S
C327 C318 1.429 . S
C327 N324 1.350 . S
C327 C326 1.434 . S
C328 C329 1.369 . S
C328 C330 1.419 . S
C328 H332 0.930 . S
C329 C328 1.369 . S
C329 C338 1.429 . S
C330 C328 1.419 . S
C330 C331 1.363 . S
C330 H333 0.929 . S
C331 C330 1.363 . S
C331 C337 1.428 . S
H332 C328 0.930 . S
H333 C330 0.929 . S
S334 N335 1.613 . S
S334 N336 1.610 . S
N335 S334 1.613 . S
N335 C338 1.350 . S
N336 S334 1.610 . S
N336 C337 1.351 . S
C337 C331 1.428 . S
C337 N336 1.351 . S
C337 C338 1.434 . S
C338 C329 1.429 . S
C338 N335 1.350 . S
C338 C337 1.434 . S
C339 C340 1.369 . S
C339 C341 1.419 . S
C339 H343 0.930 . S
C340 C339 1.369 . S
C340 C349 1.429 . S
C341 C339 1.419 . S
C341 C342 1.363 . S
C341 H344 0.929 1_545 S
C342 C341 1.363 . S
C342 C348 1.428 . S
H343 C339 0.930 . S
H344 C341 0.929 1_565 S
S345 N346 1.613 . S
S345 N347 1.610 . S
N346 S345 1.613 . S
N346 C349 1.350 . S
N347 S345 1.610 . S
N347 C348 1.351 . S
C348 C342 1.428 . S
C348 N347 1.351 . S
C348 C349 1.434 . S
C349 C340 1.429 . S
C349 N346 1.350 . S
C349 C348 1.434 . S
C350 C351 1.369 . S
C350 C352 1.419 . S
C350 H354 0.930 . S
C351 C350 1.369 . S
C351 C360 1.429 . S
C352 C350 1.419 . S
C352 C353 1.363 . S
C352 H355 0.929 . S
C353 C352 1.363 . S
C353 C359 1.428 . S
H354 C350 0.930 . S
H355 C352 0.929 . S
S356 N357 1.613 . S
S356 N358 1.610 . S
N357 S356 1.613 . S
N357 C360 1.350 . S
N358 S356 1.610 . S
N358 C359 1.351 . S
C359 C353 1.428 . S
C359 N358 1.351 . S
C359 C360 1.434 . S
C360 C351 1.429 . S
C360 N357 1.350 . S
C360 C359 1.434 . S
C361 C362 1.369 . S
C361 C363 1.419 . S
C361 H365 0.930 . S
C362 C361 1.369 . S
C362 C371 1.429 . S
C363 C361 1.419 . S
C363 C364 1.363 . S
C363 H366 0.929 . S
C364 C363 1.363 . S
C364 C370 1.428 . S
H365 C361 0.930 . S
H366 C363 0.929 . S
S367 N368 1.613 . S
S367 N369 1.610 . S
N368 S367 1.613 . S
N368 C371 1.350 . S
N369 S367 1.610 . S
N369 C370 1.351 . S
C370 C364 1.428 . S
C370 N369 1.351 . S
C370 C371 1.434 . S
C371 C362 1.429 . S
C371 N368 1.350 . S
C371 C370 1.434 . S
C372 C373 1.369 . S
C372 C374 1.419 . S
C372 H376 0.930 . S
C373 C372 1.369 . S
C373 C382 1.429 . S
C374 C372 1.419 . S
C374 C375 1.363 . S
C374 H377 0.929 . S
C375 C374 1.363 . S
C375 C381 1.428 . S
H376 C372 0.930 . S
H377 C374 0.929 . S
S378 N379 1.613 . S
S378 N380 1.610 . S
N379 S378 1.613 . S
N379 C382 1.350 . S
N380 S378 1.610 . S
N380 C381 1.351 . S
C381 C375 1.428 . S
C381 N380 1.351 . S
C381 C382 1.434 . S
C382 C373 1.429 . S
C382 N379 1.350 . S
C382 C381 1.434 . S
C383 C384 1.369 . S
C383 C385 1.419 . S
C383 H387 0.930 . S
C384 C383 1.369 . S
C384 C393 1.429 . S
C385 C383 1.419 . S
C385 C386 1.363 . S
C385 H388 0.929 . S
C386 C385 1.363 . S
C386 C392 1.428 . S
H387 C383 0.930 . S
H388 C385 0.929 . S
S389 N390 1.613 . S
S389 N391 1.610 . S
N390 S389 1.613 . S
N390 C393 1.350 . S
N391 S389 1.610 . S
N391 C392 1.351 . S
C392 C386 1.428 . S
C392 N391 1.351 . S
C392 C393 1.434 . S
C393 C384 1.429 . S
C393 N390 1.350 . S
C393 C392 1.434 . S
C394 C395 1.369 . S
C394 C396 1.419 . S
C394 H398 0.930 . S
C395 C394 1.369 . S
C395 C404 1.429 . S
C396 C394 1.419 . S
C396 C397 1.363 . S
C396 H399 0.929 . S
C397 C396 1.363 . S
C397 C403 1.428 . S
H398 C394 0.930 . S
H399 C396 0.929 . S
S400 N401 1.613 . S
S400 N402 1.610 . S
N401 S400 1.613 . S
N401 C404 1.350 . S
N402 S400 1.610 . S
N402 C403 1.351 . S
C403 C397 1.428 . S
C403 N402 1.351 . S
C403 C404 1.434 . S
C404 C395 1.429 . S
C404 N401 1.350 . S
C404 C403 1.434 . S
C405 C406 1.369 . S
C405 C407 1.419 . S
C405 H409 0.930 1_565 S
C406 C405 1.369 . S
C406 C415 1.429 . S
C407 C405 1.419 . S
C407 C408 1.363 . S
C407 H410 0.929 . S
C408 C407 1.363 . S
C408 C414 1.428 . S
H409 C405 0.930 1_545 S
H410 C407 0.929 . S
S411 N412 1.613 . S
S411 N413 1.610 . S
N412 S411 1.613 . S
N412 C415 1.350 . S
N413 S411 1.610 . S
N413 C414 1.351 . S
C414 C408 1.428 . S
C414 N413 1.351 . S
C414 C415 1.434 . S
C415 C406 1.429 . S
C415 N412 1.350 . S
C415 C414 1.434 . S
C416 C417 1.369 . S
C416 C418 1.419 . S
C416 H420 0.930 . S
C417 C416 1.369 . S
C417 C426 1.429 . S
C418 C416 1.419 . S
C418 C419 1.363 . S
C418 H421 0.929 . S
C419 C418 1.363 . S
C419 C425 1.428 . S
H420 C416 0.930 . S
H421 C418 0.929 . S
S422 N423 1.613 1_545 S
S422 N424 1.610 1_545 S
N423 S422 1.613 1_565 S
N423 C426 1.350 . S
N424 S422 1.610 1_565 S
N424 C425 1.351 . S
C425 C419 1.428 . S
C425 N424 1.351 . S
C425 C426 1.434 . S
C426 C417 1.429 . S
C426 N423 1.350 . S
C426 C425 1.434 . S
C427 C428 1.369 . S
C427 C429 1.419 . S
C427 H431 0.930 . S
C428 C427 1.369 . S
C428 C437 1.429 . S
C429 C427 1.419 . S
C429 C430 1.363 . S
C429 H432 0.929 . S
C430 C429 1.363 . S
C430 C436 1.428 . S
H431 C427 0.930 . S
H432 C429 0.929 . S
S433 N434 1.613 . S
S433 N435 1.610 . S
N434 S433 1.613 . S
N434 C437 1.350 . S
N435 S433 1.610 . S
N435 C436 1.351 . S
C436 C430 1.428 . S
C436 N435 1.351 . S
C436 C437 1.434 . S
C437 C428 1.429 . S
C437 N434 1.350 . S
C437 C436 1.434 . S
C241 C130 1.252 1_455 S
C243 C10 1.256 . S
C252 C170 1.250 1_545 S
C254 C50 1.258 . S
C263 C210 1.247 . S
C265 C90 1.250 . S
C274 C16 1.152 . S
C276 C87 1.245 . S
C285 C56 1.139 . S
C287 C127 1.256 . S
C296 C96 1.162 . S
C298 C167 1.245 . S
C307 C136 1.151 . S
C309 C207 1.254 . S
C318 C176 1.162 . S
C320 C7 1.246 . S
C329 C216 1.150 . S
C331 C47 1.256 . S
C340 C19 1.630 . S
C342 C139 1.621 1_545 S
C351 C59 1.627 . S
C353 C179 1.629 . S
C362 C99 1.626 1_455 S
C364 C219 1.628 . S
C373 C2 4.237 . S
C375 C51 4.298 . S
C384 C42 4.237 . S
C386 C91 4.298 . S
C395 C82 4.237 . S
C397 C131 4.298 . S
C406 C122 4.237 . S
C408 C171 4.297 . S
C417 C162 4.234 1_455 S
C419 C211 4.298 . S
C428 C202 4.237 1_545 S
C430 C11 4.298 . S
