# Generated by pormake.
# Topology uof, (4)-cn, num edge types: 1
# Building blocks:
#     Node 0, Type 0, BuildingBlock: QUQFOY_clean_sbu_1, # of connection points: 4
#     Node 1, Type 0, BuildingBlock: QUQFOY_clean_sbu_1, # of connection points: 4
#     Node 2, Type 0, BuildingBlock: QUQFOY_clean_sbu_1, # of connection points: 4
#     Node 3, Type 0, BuildingBlock: QUQFOY_clean_sbu_1, # of connection points: 4
#     Node 4, Type 0, BuildingBlock: QUQFOY_clean_sbu_1, # of connection points: 4
#     Node 5, Type 0, BuildingBlock: QUQFOY_clean_sbu_1, # of connection points: 4
#     Node 6, Type 0, BuildingBlock: QUQFOY_clean_sbu_1, # of connection points: 4
#     Node 7, Type 0, BuildingBlock: QUQFOY_clean_sbu_1, # of connection points: 4
#     Node 8, Type 0, BuildingBlock: QUQFOY_clean_sbu_1, # of connection points: 4
#     Node 9, Type 0, BuildingBlock: QUQFOY_clean_sbu_1, # of connection points: 4
#     Node 10, Type 0, BuildingBlock: QUQFOY_clean_sbu_1, # of connection points: 4
#     Node 11, Type 0, BuildingBlock: QUQFOY_clean_sbu_1, # of connection points: 4
#     Edge 12, Type (0, 0), BuildingBlock: TEMPAE_clean_linker_10, # of connection points: 2
#     Edge 13, Type (0, 0), BuildingBlock: TEMPAE_clean_linker_10, # of connection points: 2
#     Edge 14, Type (0, 0), BuildingBlock: TEMPAE_clean_linker_10, # of connection points: 2
#     Edge 15, Type (0, 0), BuildingBlock: TEMPAE_clean_linker_10, # of connection points: 2
#     Edge 16, Type (0, 0), BuildingBlock: TEMPAE_clean_linker_10, # of connection points: 2
#     Edge 17, Type (0, 0), BuildingBlock: TEMPAE_clean_linker_10, # of connection points: 2
#     Edge 18, Type (0, 0), BuildingBlock: TEMPAE_clean_linker_10, # of connection points: 2
#     Edge 19, Type (0, 0), BuildingBlock: TEMPAE_clean_linker_10, # of connection points: 2
#     Edge 20, Type (0, 0), BuildingBlock: TEMPAE_clean_linker_10, # of connection points: 2
#     Edge 21, Type (0, 0), BuildingBlock: TEMPAE_clean_linker_10, # of connection points: 2
#     Edge 22, Type (0, 0), BuildingBlock: TEMPAE_clean_linker_10, # of connection points: 2
#     Edge 23, Type (0, 0), BuildingBlock: TEMPAE_clean_linker_10, # of connection points: 2
#     Edge 24, Type (0, 0), BuildingBlock: TEMPAE_clean_linker_10, # of connection points: 2
#     Edge 25, Type (0, 0), BuildingBlock: TEMPAE_clean_linker_10, # of connection points: 2
#     Edge 26, Type (0, 0), BuildingBlock: TEMPAE_clean_linker_10, # of connection points: 2
#     Edge 27, Type (0, 0), BuildingBlock: TEMPAE_clean_linker_10, # of connection points: 2
#     Edge 28, Type (0, 0), BuildingBlock: TEMPAE_clean_linker_10, # of connection points: 2
#     Edge 29, Type (0, 0), BuildingBlock: TEMPAE_clean_linker_10, # of connection points: 2
#     Edge 30, Type (0, 0), BuildingBlock: TEMPAE_clean_linker_10, # of connection points: 2
#     Edge 31, Type (0, 0), BuildingBlock: TEMPAE_clean_linker_10, # of connection points: 2
#     Edge 32, Type (0, 0), BuildingBlock: TEMPAE_clean_linker_10, # of connection points: 2
#     Edge 33, Type (0, 0), BuildingBlock: TEMPAE_clean_linker_10, # of connection points: 2
#     Edge 34, Type (0, 0), BuildingBlock: TEMPAE_clean_linker_10, # of connection points: 2
#     Edge 35, Type (0, 0), BuildingBlock: TEMPAE_clean_linker_10, # of connection points: 2
# Relax obj value: 0.156
# Max RMSD: 0.159
# Mean RMSD: 0.159
data_MOF--net-uof--node1-QUQFOY_clean_sbu_1--edge1-TEMPAE_clean_linker_10
_symmetry_space_group_name_H-M    P1
_symmetry_Int_Tables_number       1
_symmetry_cell_setting            triclinic
loop_
_symmetry_equiv_pos_as_xyz
'x, y, z'
_cell_length_a     32.524903
_cell_length_b     32.548028
_cell_length_c     74.001545
_cell_angle_alpha  90.019571
_cell_angle_beta   89.997746
_cell_angle_gamma 120.00359
loop_
_atom_site_label
_atom_site_type_symbol
_atom_site_fract_x
_atom_site_fract_y
_atom_site_fract_z
_atom_type_partial_charge
O0 O 0.31271 0.35427 0.22659 0.0
Cd1 Cd 0.24579 0.29724 0.23154 0.0
Cd2 Cd 0.23744 0.34215 0.19959 0.0
O3 O 0.30259 0.39928 0.2069 0.0
O4 O 0.26561 0.26792 0.25086 0.0
O5 O 0.2141 0.29173 0.25587 0.0
C6 C 0.23883 0.27383 0.26203 0.0
C7 C 0.16627 0.33924 0.19231 0.0
C8 C 0.32945 0.39237 0.21746 0.0
C9 C 0.22462 0.24637 0.19627 0.0
O10 O 0.24083 0.28625 0.18848 0.0
O11 O 0.21667 0.24236 0.21316 0.0
O12 O 0.20256 0.35958 0.18167 0.0
O13 O 0.17202 0.3249 0.20792 0.0
O14 O 0.96007 0.3093 0.56319 0.0
Cd15 Cd 0.95187 0.24288 0.56778 0.0
Cd16 Cd 0.89223 0.23175 0.53779 0.0
O17 O 0.90091 0.29689 0.54518 0.0
O18 O 0.00173 0.2624 0.58684 0.0
O19 O 0.92654 0.21054 0.59204 0.0
C20 C 0.96934 0.23537 0.59808 0.0
C21 C 0.82269 0.16093 0.53154 0.0
C22 C 0.93635 0.32478 0.55487 0.0
C23 C 0.97552 0.22032 0.53153 0.0
O24 O 0.94917 0.23476 0.52476 0.0
O25 O 0.97604 0.21419 0.54847 0.0
O26 O 0.83751 0.19701 0.52088 0.0
O27 O 0.84482 0.16675 0.54669 0.0
O28 O 0.65643 0.96483 0.89545 0.0
Cd29 Cd 0.70906 0.94792 0.90004 0.0
Cd30 Cd 0.66058 0.89348 0.87057 0.0
O31 O 0.60578 0.90394 0.87896 0.0
O32 O 0.74587 0.99311 0.91991 0.0
O33 O 0.70583 0.91552 0.92382 0.0
C34 C 0.73194 0.95737 0.93053 0.0
C35 C 0.66262 0.82439 0.86448 0.0
C36 C 0.61598 0.94127 0.88793 0.0
C37 C 0.75614 0.97185 0.8644 0.0
O38 O 0.71471 0.95042 0.85771 0.0
O39 O 0.76235 0.96764 0.88109 0.0
O40 O 0.64033 0.83829 0.8539 0.0
O41 O 0.67912 0.84695 0.87955 0.0
O42 O 0.69601 0.65321 0.23678 0.0
Cd43 Cd 0.75751 0.71476 0.243 0.0
Cd44 Cd 0.78326 0.67534 0.21116 0.0
O45 O 0.71419 0.61895 0.21482 0.0
O46 O 0.73224 0.73652 0.26317 0.0
O47 O 0.79197 0.72349 0.26687 0.0
C48 C 0.76303 0.7355 0.27374 0.0
C49 C 0.85091 0.67106 0.20372 0.0
C50 C 0.68391 0.61924 0.22569 0.0
C51 C 0.7892 0.77113 0.20842 0.0
O52 O 0.78989 0.73667 0.20068 0.0
O53 O 0.77921 0.76983 0.22507 0.0
O54 O 0.81582 0.65664 0.19261 0.0
O55 O 0.84551 0.68317 0.21981 0.0
O56 O 0.0499 0.69603 0.56717 0.0
Cd57 Cd 0.05518 0.76037 0.57378 0.0
Cd58 Cd 0.10669 0.77385 0.53895 0.0
O59 O 0.0973 0.70722 0.54399 0.0
O60 O 0.0091 0.736 0.59425 0.0
O61 O 0.08326 0.79277 0.59785 0.0
C62 C 0.04212 0.76512 0.60482 0.0
C63 C 0.17391 0.83872 0.52646 0.0
C64 C 0.06822 0.68012 0.55595 0.0
C65 C 0.01955 0.78404 0.54038 0.0
O66 O 0.04645 0.77425 0.5312 0.0
O67 O 0.02211 0.78636 0.55749 0.0
O68 O 0.14672 0.80174 0.51694 0.0
O69 O 0.1657 0.83718 0.54361 0.0
O70 O 0.35593 0.05096 0.90065 0.0
Cd71 Cd 0.2958 0.05527 0.90616 0.0
Cd72 Cd 0.33792 0.11149 0.8736 0.0
O73 O 0.3966 0.10563 0.88011 0.0
O74 O 0.26922 0.00455 0.92498 0.0
O75 O 0.28835 0.07826 0.9309 0.0
C76 C 0.27287 0.03553 0.93658 0.0
C77 C 0.33467 0.17918 0.86564 0.0
C78 C 0.39287 0.07355 0.89094 0.0
C79 C 0.24333 0.02549 0.87093 0.0
O80 O 0.28224 0.05156 0.86279 0.0
O81 O 0.24027 0.02757 0.88798 0.0
O82 O 0.35424 0.16225 0.8551 0.0
O83 O 0.32105 0.1603 0.88147 0.0
O84 O 0.64872 0.69511 0.44139 0.0
Cd85 Cd 0.70603 0.76249 0.4374 0.0
Cd86 Cd 0.6573 0.76983 0.46774 0.0
O87 O 0.60107 0.70513 0.45975 0.0
O88 O 0.73775 0.74504 0.41823 0.0
O89 O 0.71262 0.79558 0.41335 0.0
C90 C 0.73169 0.77192 0.40716 0.0
C91 C 0.6597 0.84107 0.47394 0.0
C92 C 0.60928 0.6784 0.44964 0.0
C93 C 0.7524 0.7831 0.47359 0.0
O94 O 0.71136 0.76637 0.48046 0.0
O95 O 0.75878 0.79129 0.45674 0.0
O96 O 0.63787 0.80504 0.48461 0.0
O97 O 0.6758 0.83492 0.45879 0.0
O98 O 0.95734 0.65149 0.77293 0.0
Cd99 Cd 0.94935 0.70969 0.76807 0.0
Cd100 Cd 0.89326 0.66383 0.79958 0.0
O101 O 0.90121 0.60669 0.79235 0.0
O102 O 0.99989 0.73917 0.74926 0.0
O103 O 0.92513 0.71657 0.74353 0.0
C104 C 0.96813 0.73411 0.73778 0.0
C105 C 0.82443 0.66599 0.80656 0.0
C106 C 0.93505 0.61321 0.7819 0.0
C107 C 0.97679 0.75927 0.80371 0.0
O108 O 0.9519 0.71925 0.81126 0.0
O109 O 0.97462 0.7639 0.78676 0.0
O110 O 0.84033 0.64574 0.81725 0.0
O111 O 0.84502 0.68078 0.79105 0.0
O112 O 0.31292 0.94483 0.10507 0.0
Cd113 Cd 0.24817 0.93999 0.09973 0.0
Cd114 Cd 0.23659 0.88909 0.1337 0.0
O115 O 0.30126 0.89492 0.1273 0.0
O116 O 0.27134 0.98792 0.07988 0.0
O117 O 0.21495 0.91395 0.07561 0.0
C118 C 0.24217 0.95572 0.06906 0.0
C119 C 0.16596 0.82194 0.14239 0.0
C120 C 0.32843 0.92465 0.11553 0.0
C121 C 0.22769 0.97514 0.1343 0.0
O122 O 0.24041 0.95001 0.14319 0.0
O123 O 0.22238 0.97092 0.11727 0.0
O124 O 0.2026 0.84015 0.15288 0.0
O125 O 0.17091 0.83918 0.12626 0.0
O126 O 0.35267 0.30805 0.43312 0.0
Cd127 Cd 0.29326 0.244 0.42637 0.0
Cd128 Cd 0.33263 0.22829 0.4602 0.0
O129 O 0.39004 0.29494 0.45538 0.0
O130 O 0.27116 0.26864 0.4061 0.0
O131 O 0.2887 0.2121 0.40217 0.0
C132 C 0.2751 0.23983 0.39537 0.0
C133 C 0.33478 0.16271 0.47203 0.0
C134 C 0.38754 0.323 0.44401 0.0
C135 C 0.23574 0.21939 0.46016 0.0
O136 O 0.27293 0.22843 0.46885 0.0
O137 O 0.23475 0.21764 0.44303 0.0
O138 O 0.34532 0.19949 0.4818 0.0
O139 O 0.32745 0.1648 0.45498 0.0
O140 O 0.04506 0.35286 0.76818 0.0
Cd141 Cd 0.05178 0.29423 0.7624 0.0
Cd142 Cd 0.10591 0.33496 0.79536 0.0
O143 O 0.09808 0.39277 0.78935 0.0
O144 O 0.00471 0.26896 0.74221 0.0
O145 O 0.07963 0.28919 0.73839 0.0
C146 C 0.03795 0.27372 0.73155 0.0
C147 C 0.17458 0.334 0.80383 0.0
C148 C 0.06625 0.38903 0.77837 0.0
C149 C 0.02028 0.23924 0.79705 0.0
O150 O 0.04647 0.27749 0.80556 0.0
O151 O 0.0223 0.23742 0.77995 0.0
O152 O 0.15576 0.35177 0.81433 0.0
O153 O 0.157 0.32097 0.78778 0.0
O154 O 0.69776 0.031 0.10058 0.0
Cd155 Cd 0.76417 0.04274 0.09388 0.0
Cd156 Cd 0.78239 0.10343 0.12506 0.0
O157 O 0.71278 0.08793 0.12029 0.0
O158 O 0.74956 0.99784 0.07324 0.0
O159 O 0.79297 0.07549 0.07006 0.0
C160 C 0.77343 0.03378 0.0629 0.0
C161 C 0.84947 0.17592 0.1322 0.0
C162 C 0.68341 0.05298 0.11063 0.0
C163 C 0.79737 0.02018 0.12824 0.0
O164 O 0.78949 0.04991 0.13634 0.0
O165 O 0.79389 0.0156 0.11119 0.0
O166 O 0.81394 0.15597 0.14317 0.0
O167 O 0.84454 0.15748 0.1163 0.0
C168 C 0.90045 0.24125 0.15384 0.0
C169 C 0.89668 0.2129 0.13894 0.0
C170 C 0.94428 0.26941 0.1626 0.0
C171 C 0.98491 0.2677 0.15678 0.0
C172 C 0.98163 0.24068 0.14125 0.0
C173 C 0.93779 0.21432 0.13235 0.0
C174 C 0.94653 0.29921 0.17861 0.0
C175 C 0.02357 0.23676 0.13477 0.0
C176 C 0.1123 0.35219 0.17176 0.0
C177 C 0.11823 0.32597 0.18553 0.0
C178 C 0.06814 0.33527 0.16309 0.0
C179 C 0.02956 0.29013 0.16778 0.0
C180 C 0.03503 0.26436 0.18212 0.0
C181 C 0.07898 0.28299 0.19101 0.0
C182 C 0.06337 0.36485 0.14844 0.0
C183 C 0.99541 0.2156 0.18731 0.0
H184 H 0.8688 0.24033 0.15901 0.0
H185 H 0.93507 0.19202 0.121 0.0
H186 H 0.94908 0.28233 0.19125 0.0
H187 H 0.97858 0.33498 0.17782 0.0
H188 H 0.9146 0.30318 0.17949 0.0
H189 H 0.01581 0.216 0.12206 0.0
H190 H 0.05467 0.2725 0.13247 0.0
H191 H 0.03373 0.21923 0.14531 0.0
H192 H 0.14251 0.38548 0.16747 0.0
H193 H 0.08347 0.26223 0.20147 0.0
H194 H 0.02988 0.36567 0.15013 0.0
H195 H 0.06191 0.34885 0.13506 0.0
H196 H 0.09366 0.40185 0.14844 0.0
H197 H 0.96278 0.2168 0.19061 0.0
H198 H 0.00481 0.20079 0.19909 0.0
H199 H 0.98689 0.19101 0.17571 0.0
C200 C 0.7556 0.10754 0.51098 0.0
C201 C 0.78656 0.11296 0.52517 0.0
C202 C 0.7275 0.06323 0.50258 0.0
C203 C 0.73166 0.02378 0.50809 0.0
C204 C 0.76133 0.02866 0.52294 0.0
C205 C 0.78785 0.07298 0.53145 0.0
C206 C 0.69506 0.05923 0.48727 0.0
C207 C 0.76762 0.98789 0.52908 0.0
C208 C 0.64747 0.89536 0.49453 0.0
C209 C 0.67253 0.88929 0.48032 0.0
C210 C 0.66461 0.93979 0.50295 0.0
C211 C 0.70867 0.97866 0.49744 0.0
C212 C 0.733 0.97316 0.48257 0.0
C213 C 0.71428 0.92877 0.47404 0.0
C214 C 0.63665 0.9445 0.51828 0.0
C215 C 0.7805 0.01328 0.47643 0.0
H216 H 0.75434 0.13828 0.50608 0.0
H217 H 0.81204 0.07695 0.54227 0.0
H218 H 0.71023 0.05607 0.47427 0.0
H219 H 0.65976 0.02686 0.48883 0.0
H220 H 0.69019 0.09062 0.4865 0.0
H221 H 0.79027 0.99679 0.54133 0.0
H222 H 0.73267 0.95629 0.53205 0.0
H223 H 0.78424 0.97797 0.51809 0.0
H224 H 0.61511 0.86501 0.49943 0.0
H225 H 0.73414 0.92429 0.46321 0.0
H226 H 0.63457 0.97733 0.51673 0.0
H227 H 0.65484 0.94722 0.53127 0.0
H228 H 0.60005 0.91361 0.51904 0.0
H229 H 0.77797 0.04534 0.47347 0.0
H230 H 0.79384 0.00395 0.46417 0.0
H231 H 0.80696 0.02267 0.48741 0.0
C232 C 0.71766 0.79174 0.86418 0.0
C233 C 0.67558 0.78908 0.85806 0.0
C234 C 0.73637 0.76607 0.85563 0.0
C235 C 0.71172 0.73578 0.84091 0.0
C236 C 0.66743 0.73031 0.83553 0.0
C237 C 0.65029 0.75763 0.84396 0.0
C238 C 0.78414 0.77384 0.86161 0.0
C239 C 0.63912 0.69718 0.82036 0.0
C240 C 0.78983 0.71937 0.80671 0.0
C241 C 0.78879 0.67833 0.81314 0.0
C242 C 0.76366 0.73754 0.81525 0.0
C243 C 0.73451 0.71333 0.83029 0.0
C244 C 0.73065 0.66997 0.83599 0.0
C245 C 0.75847 0.65344 0.82756 0.0
C246 C 0.76971 0.78435 0.80891 0.0
C247 C 0.69873 0.6421 0.8515 0.0
H248 H 0.73773 0.81636 0.87491 0.0
H249 H 0.61771 0.75533 0.83916 0.0
H250 H 0.78185 0.73944 0.86473 0.0
H251 H 0.81021 0.79051 0.85048 0.0
H252 H 0.79785 0.79701 0.87373 0.0
H253 H 0.60248 0.6914 0.81968 0.0
H254 H 0.65698 0.71226 0.80729 0.0
H255 H 0.63714 0.66235 0.82203 0.0
H256 H 0.81357 0.73911 0.79571 0.0
H257 H 0.75741 0.62163 0.83258 0.0
H258 H 0.78658 0.81125 0.81977 0.0
H259 H 0.73465 0.78085 0.80602 0.0
H260 H 0.79203 0.79769 0.79657 0.0
H261 H 0.71418 0.661 0.86438 0.0
H262 H 0.69409 0.60596 0.85247 0.0
H263 H 0.6633 0.63892 0.84999 0.0
C264 C 0.93899 0.72205 0.2032 0.0
C265 C 0.89815 0.6814 0.19705 0.0
C266 C 0.98271 0.73932 0.19425 0.0
C267 C 0.98616 0.71436 0.17916 0.0
C268 C 0.94583 0.67116 0.17381 0.0
C269 C 0.90205 0.65575 0.18256 0.0
C270 C 0.02426 0.78618 0.20015 0.0
C271 C 0.94835 0.64232 0.15833 0.0
C272 C 0.07861 0.79018 0.14396 0.0
C273 C 0.11841 0.78773 0.14969 0.0
C274 C 0.03504 0.76545 0.15313 0.0
C275 C 0.03054 0.73607 0.16803 0.0
C276 C 0.06972 0.73081 0.17303 0.0
C277 C 0.11349 0.75751 0.16407 0.0
C278 C 0.99476 0.77326 0.14759 0.0
C279 C 0.06597 0.69838 0.1883 0.0
H280 H 0.93605 0.74242 0.21421 0.0
H281 H 0.87055 0.6243 0.17774 0.0
H282 H 0.05583 0.78246 0.20271 0.0
H283 H 0.03372 0.81268 0.18919 0.0
H284 H 0.01641 0.80017 0.21258 0.0
H285 H 0.91676 0.60612 0.15788 0.0
H286 H 0.95038 0.66033 0.14536 0.0
H287 H 0.98076 0.63927 0.1594 0.0
H288 H 0.08236 0.81399 0.13303 0.0
H289 H 0.14416 0.75548 0.16855 0.0
H290 H 0.98604 0.79006 0.15888 0.0
H291 H 0.96244 0.73886 0.14466 0.0
H292 H 0.00356 0.7963 0.13547 0.0
H293 H 0.06451 0.7142 0.20139 0.0
H294 H 0.09672 0.69236 0.18861 0.0
H295 H 0.03282 0.66359 0.18706 0.0
C296 C 0.29479 0.10384 0.49644 0.0
C297 C 0.32274 0.11717 0.48078 0.0
C298 C 0.27606 0.05817 0.50375 0.0
C299 C 0.28743 0.02556 0.49573 0.0
C300 C 0.31835 0.03999 0.48059 0.0
C301 C 0.33453 0.08522 0.47294 0.0
C302 C 0.24163 0.04395 0.51936 0.0
C303 C 0.33332 0.00729 0.47218 0.0
C304 C 0.25038 0.91696 0.52552 0.0
C305 C 0.20744 0.88388 0.51744 0.0
C306 C 0.27901 0.9621 0.51775 0.0
C307 C 0.26287 0.97526 0.50216 0.0
C308 C 0.21993 0.94141 0.4938 0.0
C309 C 0.19342 0.89589 0.5013 0.0
C310 C 0.32569 0.99618 0.52655 0.0
C311 C 0.2001 0.95421 0.47767 0.0
H312 H 0.28506 0.12827 0.50236 0.0
H313 H 0.35623 0.09554 0.46085 0.0
H314 H 0.20664 0.01384 0.51525 0.0
H315 H 0.2544 0.03177 0.53093 0.0
H316 H 0.23647 0.07352 0.52401 0.0
H317 H 0.3643 0.02667 0.46304 0.0
H318 H 0.34253 0.98916 0.4828 0.0
H319 H 0.30356 0.9795 0.46419 0.0
H320 H 0.26136 0.90769 0.53797 0.0
H321 H 0.15988 0.87061 0.49516 0.0
H322 H 0.32206 0.02358 0.53413 0.0
H323 H 0.35367 0.01469 0.51617 0.0
H324 H 0.33747 0.97785 0.53613 0.0
H325 H 0.19298 0.98311 0.48141 0.0
H326 H 0.16659 0.92359 0.47262 0.0
H327 H 0.22624 0.96756 0.46649 0.0
C328 C 0.27939 0.21136 0.86433 0.0
C329 C 0.32166 0.21386 0.8586 0.0
C330 C 0.26083 0.23649 0.85528 0.0
C331 C 0.28596 0.26622 0.8405 0.0
C332 C 0.33047 0.27157 0.83552 0.0
C333 C 0.34732 0.24459 0.84439 0.0
C334 C 0.21273 0.2287 0.8608 0.0
C335 C 0.35937 0.30429 0.82036 0.0
C336 C 0.20958 0.28115 0.80506 0.0
C337 C 0.20995 0.32218 0.81107 0.0
C338 C 0.2353 0.26336 0.81419 0.0
C339 C 0.26347 0.28808 0.82937 0.0
C340 C 0.2667 0.33145 0.83468 0.0
C341 C 0.23915 0.34747 0.8257 0.0
C342 C 0.22977 0.21642 0.8083 0.0
C343 C 0.29773 0.35994 0.85029 0.0
H344 H 0.25908 0.1872 0.87515 0.0
H345 H 0.38006 0.2467 0.83991 0.0
H346 H 0.21476 0.2631 0.86365 0.0
H347 H 0.18719 0.2117 0.84953 0.0
H348 H 0.19853 0.20581 0.87296 0.0
H349 H 0.39609 0.31021 0.82005 0.0
H350 H 0.34216 0.28876 0.80723 0.0
H351 H 0.36112 0.33909 0.8217 0.0
H352 H 0.18661 0.26109 0.79392 0.0
H353 H 0.23961 0.37925 0.8304 0.0
H354 H 0.21272 0.18995 0.81928 0.0
H355 H 0.26501 0.22005 0.80572 0.0
H356 H 0.20785 0.20243 0.79589 0.0
H357 H 0.2816 0.34151 0.86318 0.0
H358 H 0.30222 0.39607 0.85089 0.0
H359 H 0.33328 0.36317 0.84925 0.0
C360 C 0.60043 0.58471 0.23675 0.0
C361 C 0.63264 0.58264 0.22462 0.0
C362 C 0.55132 0.5543 0.23508 0.0
C363 C 0.5335 0.52037 0.221 0.0
C364 C 0.56565 0.51719 0.20891 0.0
C365 C 0.61486 0.54845 0.21083 0.0
C366 C 0.51844 0.55886 0.24831 0.0
C367 C 0.54798 0.48103 0.19387 0.0
C368 C 0.41043 0.41473 0.22881 0.0
C369 C 0.38144 0.4264 0.21845 0.0
C370 C 0.45986 0.44439 0.22937 0.0
C371 C 0.48126 0.48729 0.21948 0.0
C372 C 0.45241 0.49956 0.20903 0.0
C373 C 0.40284 0.46889 0.20858 0.0
C374 C 0.48916 0.42986 0.24068 0.0
C375 C 0.47392 0.5453 0.19846 0.0
H376 H 0.6135 0.61086 0.24749 0.0
H377 H 0.63927 0.54665 0.20133 0.0
H378 H 0.49304 0.56613 0.24095 0.0
H379 H 0.49729 0.52503 0.25574 0.0
H380 H 0.53793 0.58769 0.25831 0.0
H381 H 0.57745 0.48284 0.18567 0.0
H382 H 0.52697 0.44477 0.19957 0.0
H383 H 0.52404 0.4867 0.18484 0.0
H384 H 0.39457 0.38193 0.23644 0.0
H385 H 0.38091 0.47816 0.20048 0.0
H386 H 0.5075 0.45623 0.25158 0.0
H387 H 0.51698 0.42915 0.23224 0.0
H388 H 0.4673 0.39438 0.24696 0.0
H389 H 0.49209 0.57591 0.20781 0.0
H390 H 0.44691 0.54917 0.19063 0.0
H391 H 0.50115 0.547 0.18898 0.0
C392 C 0.01638 0.59885 0.56861 0.0
C393 C 0.05145 0.62838 0.55616 0.0
C394 C 0.99661 0.54945 0.56825 0.0
C395 C 0.01245 0.52868 0.55522 0.0
C396 C 0.04837 0.55813 0.54279 0.0
C397 C 0.06736 0.60764 0.54336 0.0
C398 C 0.95844 0.51942 0.58176 0.0
C399 C 0.06655 0.53728 0.52883 0.0
C400 C 0.99339 0.40636 0.5661 0.0
C401 C 0.95346 0.37655 0.55555 0.0
C402 C 0.01309 0.45576 0.56595 0.0
C403 C 0.9923 0.47623 0.55508 0.0
C404 C 0.95157 0.44649 0.54459 0.0
C405 C 0.93265 0.39698 0.54493 0.0
C406 C 0.05641 0.4861 0.57737 0.0
C407 C 0.92815 0.46703 0.53296 0.0
H408 H 0.00357 0.61425 0.57855 0.0
H409 H 0.09424 0.63 0.53364 0.0
H410 H 0.92572 0.49339 0.57457 0.0
H411 H 0.97016 0.49896 0.59017 0.0
H412 H 0.94951 0.54102 0.59084 0.0
H413 H 0.0946 0.56491 0.52014 0.0
H414 H 0.08123 0.51698 0.53561 0.0
H415 H 0.03688 0.51203 0.5201 0.0
H416 H 0.00992 0.39116 0.57438 0.0
H417 H 0.90199 0.37439 0.53667 0.0
H418 H 0.04845 0.50676 0.58728 0.0
H419 H 0.08585 0.51196 0.56871 0.0
H420 H 0.06877 0.4647 0.58487 0.0
H421 H 0.91665 0.48755 0.54146 0.0
H422 H 0.89678 0.43919 0.52559 0.0
H423 H 0.95397 0.492 0.52296 0.0
C424 C 0.46562 0.07482 0.87845 0.0
C425 C 0.4291 0.0584 0.89132 0.0
C426 C 0.49658 0.05634 0.87769 0.0
C427 C 0.49089 0.02065 0.89009 0.0
C428 C 0.45484 0.00482 0.90336 0.0
C429 C 0.42457 0.02388 0.90384 0.0
C430 C 0.53486 0.07439 0.86343 0.0
C431 C 0.44769 0.96707 0.91691 0.0
C432 C 0.5404 0.93938 0.87878 0.0
C433 C 0.58254 0.95988 0.88889 0.0
C434 C 0.51041 0.959 0.8789 0.0
C435 C 0.5228 1.00004 0.8894 0.0
C436 C 0.56504 0.02061 0.89973 0.0
C437 C 0.59427 1.00033 0.89936 0.0
C438 C 0.46551 0.93592 0.86777 0.0
C439 C 0.57943 0.06415 0.91119 0.0
H440 H 0.46933 0.10125 0.86868 0.0
H441 H 0.39661 0.01091 0.91389 0.0
H442 H 0.57017 0.08837 0.86988 0.0
H443 H 0.52943 0.04477 0.85446 0.0
H444 H 0.53527 0.10286 0.85503 0.0
H445 H 0.41832 0.95899 0.9265 0.0
H446 H 0.43964 0.93391 0.90974 0.0
H447 H 0.48074 0.97861 0.92476 0.0
H448 H 0.5311 0.90832 0.87058 0.0
H449 H 0.6267 0.01657 0.90725 0.0
H450 H 0.46572 0.96188 0.858 0.0
H451 H 0.43421 0.92452 0.87667 0.0
H452 H 0.46118 0.90454 0.86017 0.0
H453 H 0.58261 0.0936 0.90264 0.0
H454 H 0.61374 0.07623 0.91825 0.0
H455 H 0.55169 0.05661 0.92147 0.0
C456 C 0.58611 0.59811 0.43733 0.0
C457 C 0.57509 0.62659 0.44829 0.0
C458 C 0.55672 0.54868 0.43675 0.0
C459 C 0.51488 0.52682 0.44729 0.0
C460 C 0.503 0.55523 0.45819 0.0
C461 C 0.53329 0.60479 0.45859 0.0
C462 C 0.57067 0.51981 0.4249 0.0
C463 C 0.4584 0.53319 0.46949 0.0
C464 C 0.41744 0.40513 0.43218 0.0
C465 C 0.42263 0.37472 0.44428 0.0
C466 C 0.44693 0.45452 0.43313 0.0
C467 C 0.48297 0.47435 0.44641 0.0
C468 C 0.48918 0.44399 0.45845 0.0
C469 C 0.45887 0.39453 0.45727 0.0
C470 C 0.43914 0.48553 0.42 0.0
C471 C 0.5276 0.46384 0.47266 0.0
H472 H 0.61828 0.61438 0.42929 0.0
H473 H 0.52451 0.62635 0.46715 0.0
H474 H 0.57415 0.49332 0.4332 0.0
H475 H 0.54259 0.4999 0.41471 0.0
H476 H 0.60474 0.54218 0.41772 0.0
H477 H 0.45419 0.56008 0.47725 0.0
H478 H 0.42687 0.51332 0.46069 0.0
H479 H 0.45897 0.50736 0.47912 0.0
H480 H 0.38961 0.39044 0.42207 0.0
H481 H 0.46312 0.37148 0.46672 0.0
H482 H 0.47178 0.5071 0.41193 0.0
H483 H 0.43164 0.51057 0.4275 0.0
H484 H 0.40924 0.46456 0.41057 0.0
H485 H 0.56284 0.48516 0.46617 0.0
H486 H 0.52802 0.43556 0.48093 0.0
H487 H 0.5224 0.48793 0.48178 0.0
C488 C 0.93227 0.53758 0.79174 0.0
C489 C 0.95209 0.57847 0.78094 0.0
C490 C 0.9511 0.50687 0.79165 0.0
C491 C 0.99077 0.51742 0.78056 0.0
C492 C 0.01057 0.55836 0.76953 0.0
C493 C 0.99096 0.58815 0.7698 0.0
C494 C 0.92873 0.46325 0.80346 0.0
C495 C 0.05278 0.57094 0.7575 0.0
C496 C 0.067 0.46146 0.79094 0.0
C497 C 0.04977 0.42426 0.77835 0.0
C498 C 0.04805 0.49199 0.79189 0.0
C499 C 0.01091 0.48508 0.78001 0.0
C500 C 0.99386 0.44804 0.76713 0.0
C501 C 0.01353 0.41831 0.76642 0.0
C502 C 0.06751 0.53144 0.80568 0.0
C503 C 0.95448 0.4395 0.75416 0.0
H504 H 0.90243 0.52983 0.80043 0.0
H505 H 0.00675 0.61961 0.76139 0.0
H506 H 0.9164 0.43099 0.79503 0.0
H507 H 0.95545 0.46431 0.81306 0.0
H508 H 0.89809 0.45999 0.81129 0.0
H509 H 0.06443 0.60445 0.74992 0.0
H510 H 0.08303 0.57479 0.76573 0.0
H511 H 0.04389 0.542 0.74764 0.0
H512 H 0.09477 0.46629 0.80027 0.0
H513 H 0.99979 0.38973 0.75661 0.0
H514 H 0.03868 0.52723 0.81487 0.0
H515 H 0.08144 0.56619 0.79881 0.0
H516 H 0.09642 0.53218 0.81392 0.0
H517 H 0.92242 0.43299 0.7618 0.0
H518 H 0.94479 0.40875 0.7451 0.0
H519 H 0.96541 0.47146 0.7457 0.0
C520 C 0.40118 0.92531 0.12779 0.0
C521 C 0.37988 0.94 0.11476 0.0
C522 C 0.45066 0.94357 0.12789 0.0
C523 C 0.47948 0.97736 0.1147 0.0
C524 C 0.45808 0.99179 0.10141 0.0
C525 C 0.40875 0.9729 0.10156 0.0
C526 C 0.47216 0.92698 0.14219 0.0
C527 C 0.48737 0.02752 0.08703 0.0
C528 C 0.6127 0.05741 0.12229 0.0
C529 C 0.6314 0.0349 0.11167 0.0
C530 C 0.56327 0.03878 0.12363 0.0
C531 C 0.53185 0.9965 0.11425 0.0
C532 C 0.55053 0.97355 0.10364 0.0
C533 C 0.59985 0.99304 0.10242 0.0
C534 C 0.54465 0.0645 0.13496 0.0
C535 C 0.5184 0.92842 0.09344 0.0
H536 H 0.37936 0.90017 0.13809 0.0
H537 H 0.39288 0.98463 0.0914 0.0
H538 H 0.49144 0.91079 0.13571 0.0
H539 H 0.49844 0.9577 0.15024 0.0
H540 H 0.44499 0.90058 0.15149 0.0
H541 H 0.46538 0.03567 0.07785 0.0
H542 H 0.51456 0.06101 0.09345 0.0
H543 H 0.50649 0.01386 0.07882 0.0
H544 H 0.63663 0.08957 0.12954 0.0
H545 H 0.61363 0.975 0.09425 0.0
H546 H 0.51987 0.04027 0.14538 0.0
H547 H 0.52432 0.07595 0.12633 0.0
H548 H 0.57358 0.09621 0.14179 0.0
H549 H 0.49286 0.90102 0.10286 0.0
H550 H 0.53849 0.91391 0.08634 0.0
H551 H 0.49737 0.93521 0.0833 0.0
C552 C 0.24613 0.03201 0.1596 0.0
C553 C 0.22101 0.01121 0.14368 0.0
C554 C 0.24315 0.06908 0.1679 0.0
C555 C 0.21339 0.0847 0.16031 0.0
C556 C 0.18642 0.0625 0.14465 0.0
C557 C 0.19106 0.02633 0.13636 0.0
C558 C 0.27314 0.09261 0.18441 0.0
C559 C 0.15339 0.07749 0.13651 0.0
C560 C 0.18537 0.15899 0.19178 0.0
C561 C 0.21807 0.20493 0.18595 0.0
C562 C 0.18172 0.11922 0.18295 0.0
C563 C 0.21247 0.12586 0.16834 0.0
C564 C 0.24469 0.17218 0.16212 0.0
C565 C 0.24665 0.21123 0.17088 0.0
C566 C 0.14602 0.07024 0.18959 0.0
C567 C 0.27868 0.18059 0.14678 0.0
H568 H 0.2695 0.02049 0.1652 0.0
H569 H 0.17126 0.00988 0.12412 0.0
H570 H 0.29814 0.13063 0.18154 0.0
H571 H 0.25031 0.09106 0.19582 0.0
H572 H 0.29397 0.07574 0.18873 0.0
H573 H 0.13208 0.05402 0.1252 0.0
H574 H 0.12883 0.07723 0.14698 0.0
H575 H 0.1742 0.11433 0.13135 0.0
H576 H 0.16292 0.15417 0.20334 0.0
H577 H 0.27213 0.2468 0.16644 0.0
H578 H 0.16482 0.05319 0.19576 0.0
H579 H 0.12481 0.04759 0.17812 0.0
H580 H 0.12144 0.07113 0.19981 0.0
H581 H 0.30304 0.16744 0.15063 0.0
H582 H 0.30029 0.21874 0.14317 0.0
H583 H 0.25892 0.16054 0.13461 0.0
C584 C 0.0261 0.24079 0.50413 0.0
C585 C 0.0078 0.21319 0.51973 0.0
C586 C 0.06041 0.23792 0.49365 0.0
C587 C 0.07561 0.20568 0.49868 0.0
C588 C 0.05521 0.17578 0.51385 0.0
C589 C 0.022 0.18045 0.5244 0.0
C590 C 0.08229 0.27127 0.47784 0.0
C591 C 0.06964 0.14005 0.51927 0.0
C592 C 0.14816 0.18431 0.46373 0.0
C593 C 0.19428 0.21383 0.47021 0.0
C594 C 0.10877 0.17983 0.47322 0.0
C595 C 0.11615 0.2068 0.48914 0.0
C596 C 0.16273 0.23664 0.49569 0.0
C597 C 0.2012 0.23921 0.48627 0.0
C598 C 0.05943 0.14658 0.46621 0.0
C599 C 0.17208 0.26691 0.51236 0.0
H600 H 0.01522 0.26627 0.50057 0.0
H601 H 0.00735 0.15871 0.53637 0.0
H602 H 0.12045 0.2961 0.4806 0.0
H603 H 0.08022 0.25118 0.46544 0.0
H604 H 0.06467 0.29239 0.47516 0.0
H605 H 0.04612 0.11546 0.52992 0.0
H606 H 0.06891 0.11891 0.50738 0.0
H607 H 0.10656 0.15881 0.52449 0.0
H608 H 0.14291 0.16439 0.45136 0.0
H609 H 0.23696 0.26236 0.49119 0.0
H610 H 0.04206 0.16707 0.46217 0.0
H611 H 0.03739 0.12169 0.47703 0.0
H612 H 0.05971 0.12569 0.45438 0.0
H613 H 0.15764 0.29111 0.51044 0.0
H614 H 0.21054 0.28859 0.51551 0.0
H615 H 0.15374 0.24417 0.52419 0.0
C616 C 0.96946 0.15149 0.80003 0.0
C617 C 0.98553 0.197 0.80707 0.0
C618 C 0.9346 0.11122 0.80907 0.0
C619 C 0.91462 0.11699 0.82518 0.0
C620 C 0.93132 0.16285 0.83248 0.0
C621 C 0.96708 0.20232 0.82343 0.0
C622 C 0.91849 0.06269 0.80121 0.0
C623 C 0.91013 0.17043 0.84946 0.0
C624 C 0.78901 0.02622 0.83811 0.0
C625 C 0.79664 0.00488 0.85318 0.0
C626 C 0.82727 0.06192 0.82851 0.0
C627 C 0.87416 0.07561 0.83389 0.0
C628 C 0.88206 0.05226 0.84846 0.0
C629 C 0.84309 0.0175 0.85812 0.0
C630 C 0.81751 0.08669 0.81325 0.0
C631 C 0.93162 0.06513 0.85422 0.0
H632 H 0.98414 0.14737 0.78746 0.0
H633 H 0.97934 0.23755 0.82883 0.0
H634 H 0.91959 0.03889 0.8117 0.0
H635 H 0.88116 0.04661 0.79658 0.0
H636 H 0.94076 0.06405 0.78959 0.0
H637 H 0.92784 0.20835 0.85352 0.0
H638 H 0.87182 0.15759 0.8473 0.0
H639 H 0.91292 0.14965 0.86078 0.0
H640 H 0.7531 0.01663 0.83432 0.0
H641 H 0.84897 1.00062 0.86968 0.0
H642 H 0.83605 0.08592 0.80079 0.0
H643 H 0.83147 0.1245 0.81683 0.0
H644 H 0.779 0.0703 0.81026 0.0
H645 H 0.95282 0.06593 0.84234 0.0
H646 H 0.93149 0.03983 0.86432 0.0
H647 H 0.94975 0.10117 0.86025 0.0
C648 C 0.78405 0.93957 0.1341 0.0
C649 C 0.80617 0.98748 0.13896 0.0
C650 C 0.7861 0.90638 0.14551 0.0
C651 C 0.81237 0.92202 0.16178 0.0
C652 C 0.83745 0.97091 0.16612 0.0
C653 C 0.83321 0.00309 0.1548 0.0
C654 C 0.75778 0.85436 0.14068 0.0
C655 C 0.86731 0.98897 0.18301 0.0
C656 C 0.76968 0.833 0.19994 0.0
C657 C 0.79819 0.8125 0.19761 0.0
C658 C 0.77452 0.86939 0.18851 0.0
C659 C 0.80993 0.88663 0.17492 0.0
C660 C 0.84055 0.86771 0.17318 0.0
C661 C 0.83363 0.83001 0.18434 0.0
C662 C 0.74029 0.88776 0.19042 0.0
C663 C 0.87983 0.88653 0.1593 0.0
H664 H 0.76281 0.92764 0.12188 0.0
H665 H 0.8506 0.04036 0.15841 0.0
H666 H 0.78094 0.8384 0.14067 0.0
H667 H 0.72978 0.83527 0.15099 0.0
H668 H 0.74055 0.84835 0.12722 0.0
H669 H 0.88978 0.02826 0.18306 0.0
H670 H 0.84394 0.97815 0.19506 0.0
H671 H 0.89059 0.97325 0.18435 0.0
H672 H 0.7421 0.81901 0.21017 0.0
H673 H 0.85592 0.81422 0.18273 0.0
H674 H 0.71961 0.88103 0.17774 0.0
H675 H 0.76 0.92666 0.19264 0.0
H676 H 0.71506 0.87076 0.20179 0.0
H677 H 0.86439 0.87722 0.14553 0.0
H678 H 0.9039 0.87184 0.16115 0.0
H679 H 0.9011 0.92581 0.16007 0.0
C680 C 0.78446 0.76158 0.50015 0.0
C681 C 0.79249 0.79047 0.48502 0.0
C682 C 0.82253 0.76449 0.51003 0.0
C683 C 0.86952 0.798 0.5049 0.0
C684 C 0.8777 0.82923 0.49029 0.0
C685 C 0.83899 0.82458 0.48032 0.0
C686 C 0.81249 0.72984 0.52526 0.0
C687 C 0.92735 0.86628 0.48479 0.0
C688 C 0.96602 0.81828 0.53843 0.0
C689 C 0.98298 0.78998 0.53101 0.0
C690 C 0.93008 0.82269 0.52974 0.0
C691 C 0.90992 0.79697 0.51363 0.0
C692 C 0.92713 0.7685 0.50608 0.0
C693 C 0.96396 0.7659 0.51474 0.0
C694 C 0.91344 0.85444 0.53784 0.0
C695 C 0.90575 0.73968 0.48912 0.0
H696 H 0.74845 0.73507 0.50373 0.0
H697 H 0.84511 0.84732 0.46873 0.0
H698 H 0.82619 0.70578 0.52165 0.0
H699 H 0.83109 0.74895 0.53774 0.0
H700 H 0.77394 0.70795 0.52822 0.0
H701 H 0.92732 0.89167 0.47476 0.0
H702 H 0.94816 0.88641 0.49678 0.0
H703 H 0.94583 0.84874 0.47874 0.0
H704 H 0.98108 0.83721 0.55095 0.0
H705 H 0.97683 0.7437 0.50908 0.0
H706 H 0.87588 0.83287 0.54216 0.0
H707 H 0.91502 0.87999 0.52755 0.0
H708 H 0.9351 0.87458 0.5497 0.0
H709 H 0.86734 0.71459 0.49124 0.0
H710 H 0.9231 0.71909 0.48511 0.0
H711 H 0.90893 0.76333 0.47777 0.0
C712 C 0.20824 0.971 0.84477 0.0
C713 C 0.20181 0.99061 0.86062 0.0
C714 C 0.16933 0.93483 0.8356 0.0
C715 C 0.12294 0.91897 0.84221 0.0
C716 C 0.11611 0.94015 0.85776 0.0
C717 C 0.1558 0.97535 0.86697 0.0
C718 C 0.17798 0.91233 0.81926 0.0
C719 C 0.06702 0.92498 0.86485 0.0
C720 C 0.02503 0.84648 0.80878 0.0
C721 C 0.01079 0.80022 0.81449 0.0
C722 C 0.05999 0.88576 0.81824 0.0
C723 C 0.08197 0.87831 0.83339 0.0
C724 C 0.06693 0.83165 0.83945 0.0
C725 C 0.03098 0.7931 0.83004 0.0
C726 C 0.07427 0.9351 0.81175 0.0
C727 C 0.09029 0.82237 0.85535 0.0
H728 H 0.24387 0.98264 0.83993 0.0
H729 H 0.15087 0.99093 0.87914 0.0
H730 H 0.16455 0.87414 0.82191 0.0
H731 H 0.15829 0.9146 0.80743 0.0
H732 H 0.21623 0.92944 0.81569 0.0
H733 H 0.0677 0.94803 0.87606 0.0
H734 H 0.04427 0.92575 0.85383 0.0
H735 H 0.05017 0.88794 0.86984 0.0
H736 H 0.009 0.85194 0.79685 0.0
H737 H 0.02013 0.7573 0.83439 0.0
H738 H 0.11096 0.95245 0.80632 0.0
H739 H 0.07414 0.95714 0.82317 0.0
H740 H 0.0503 0.9348 0.80099 0.0
H741 H 0.12835 0.8359 0.85231 0.0
H742 H 0.07336 0.78401 0.85865 0.0
H743 H 0.08868 0.84157 0.86746 0.0
C744 C 0.27323 0.28278 0.36791 0.0
C745 C 0.26594 0.24054 0.37584 0.0
C746 C 0.266 0.28532 0.34937 0.0
C747 C 0.24961 0.24419 0.33856 0.0
C748 C 0.24085 0.20099 0.34658 0.0
C749 C 0.24993 0.19987 0.36513 0.0
C750 C 0.27729 0.33246 0.34129 0.0
C751 C 0.22211 0.15611 0.33558 0.0
C752 C 0.20086 0.25237 0.29273 0.0
C753 C 0.23951 0.26319 0.28142 0.0
C754 C 0.20264 0.24366 0.31126 0.0
C755 C 0.24465 0.24755 0.31868 0.0
C756 C 0.28359 0.25821 0.30723 0.0
C757 C 0.28024 0.26516 0.28873 0.0
C758 C 0.15991 0.23102 0.32296 0.0
C759 C 0.32959 0.26423 0.31464 0.0
H760 H 0.28592 0.31439 0.37615 0.0
H761 H 0.24385 0.16708 0.37129 0.0
H762 H 0.30526 0.3431 0.33083 0.0
H763 H 0.24543 0.32937 0.33454 0.0
H764 H 0.28975 0.36107 0.35159 0.0
H765 H 0.21347 0.12471 0.3441 0.0
H766 H 0.1897 0.14939 0.32813 0.0
H767 H 0.24884 0.16013 0.32537 0.0
H768 H 0.1692 0.25047 0.28708 0.0
H769 H 0.31038 0.27389 0.28005 0.0
H770 H 0.16826 0.26025 0.33261 0.0
H771 H 0.15066 0.19882 0.33104 0.0
H772 H 0.12847 0.22455 0.31486 0.0
H773 H 0.34501 0.29399 0.32446 0.0
H774 H 0.35618 0.27164 0.30385 0.0
H775 H 0.323 0.23182 0.32199 0.0
C776 C 0.01922 0.27722 0.62479 0.0
C777 C 0.98097 0.23614 0.61745 0.0
C778 C 0.02934 0.28082 0.64333 0.0
C779 C 1.00147 0.24176 0.65478 0.0
C780 C 0.964 0.19937 0.64732 0.0
C781 C 0.95361 0.19735 0.62876 0.0
C782 C 0.06855 0.32722 0.65076 0.0
C783 C 0.93441 0.1565 0.65899 0.0
C784 C 0.05401 0.24868 0.70149 0.0
C785 C 0.02831 0.26383 0.71204 0.0
C786 C 0.0443 0.2393 0.68293 0.0
C787 C 0.00933 0.24697 0.67469 0.0
C788 C 0.98353 0.26248 0.68534 0.0
C789 C 0.99281 0.26995 0.70391 0.0
C790 C 0.07153 0.22144 0.67212 0.0
C791 C 0.9471 0.27266 0.67705 0.0
H792 H 0.04023 0.30747 0.61612 0.0
H793 H 0.92423 0.16543 0.62309 0.0
H794 H 0.05344 0.3422 0.66045 0.0
H795 H 0.09466 0.32137 0.65828 0.0
H796 H 0.08758 0.35383 0.63998 0.0
H797 H 0.91026 0.12477 0.65086 0.0
H798 H 0.95774 0.14812 0.66726 0.0
H799 H 0.91266 0.16415 0.66847 0.0
H800 H 0.08118 0.24353 0.7078 0.0
H801 H 0.97311 0.28201 0.71202 0.0
H802 H 0.0942 0.2484 0.66198 0.0
H803 H 0.04654 0.18886 0.66461 0.0
H804 H 0.09452 0.21343 0.6808 0.0
H805 H 0.96416 0.30061 0.66657 0.0
H806 H 0.93021 0.28463 0.68722 0.0
H807 H 0.91891 0.24046 0.67027 0.0
C808 C 0.7639 0.05127 0.03092 0.0
C809 C 0.77583 0.02659 0.04337 0.0
C810 C 0.75891 0.03947 0.01247 0.0
C811 C 0.76795 0.00345 0.00632 0.0
C812 C 0.78254 0.98028 0.0188 0.0
C813 C 0.7852 0.99137 0.03726 0.0
C814 C 0.74183 0.06397 0.99971 0.0
C815 C 0.79443 0.94315 0.01272 0.0
C816 C 0.70822 0.93859 0.96283 0.0
C817 C 0.74311 0.96513 0.94998 0.0
C818 C 0.71593 0.95052 0.98126 0.0
C819 C 0.76026 0.98876 0.98697 0.0
C820 C 0.79648 0.01397 0.97408 0.0
C821 C 0.78709 0.00249 0.95568 0.0
C822 C 0.6759 0.92363 0.99448 0.0
C823 C 0.8448 0.05367 0.97967 0.0
H824 H 0.75596 0.07799 0.03576 0.0
H825 H 0.79443 0.97234 0.04696 0.0
H826 H 0.76773 0.0813 0.9886 0.0
H827 H 0.70774 0.03737 0.99347 0.0
H828 H 0.73643 0.0912 0.00663 0.0
H829 H 0.80995 0.93217 0.02379 0.0
H830 H 0.7619 0.91131 0.00779 0.0
H831 H 0.81996 0.95684 0.0013 0.0
H832 H 0.67397 0.91014 0.95836 0.0
H833 H 0.8141 0.02297 0.9457 0.0
H834 H 0.6664 0.94841 0.00107 0.0
H835 H 0.68725 0.90789 0.0053 0.0
H836 H 0.64368 0.8948 0.98788 0.0
H837 H 0.84177 0.08401 0.98487 0.0
H838 H 0.87046 0.06638 0.96827 0.0
H839 H 0.85928 0.04171 0.99078 0.0
C840 C 0.80461 0.76378 0.30357 0.0
C841 C 0.76312 0.74581 0.2932 0.0
C842 C 0.80413 0.77329 0.3221 0.0
C843 C 0.7608 0.76298 0.33049 0.0
C844 C 0.71889 0.74481 0.32001 0.0
C845 C 0.72075 0.73718 0.30146 0.0
C846 C 0.84978 0.79396 0.33274 0.0
C847 C 0.67166 0.73188 0.32848 0.0
C848 C 0.74283 0.73242 0.38037 0.0
C849 C 0.74298 0.77216 0.38778 0.0
C850 C 0.74958 0.72948 0.36181 0.0
C851 C 0.75817 0.76788 0.35041 0.0
C852 C 0.76046 0.80905 0.35794 0.0
C853 C 0.75199 0.81038 0.37653 0.0
C854 C 0.74534 0.68434 0.35431 0.0
C855 C 0.77091 0.85124 0.3463 0.0
H856 H 0.8375 0.7709 0.29716 0.0
H857 H 0.68851 0.72298 0.29349 0.0
H858 H 0.85534 0.8258 0.3403 0.0
H859 H 0.84766 0.76777 0.34282 0.0
H860 H 0.88107 0.80404 0.32393 0.0
H861 H 0.64245 0.71841 0.3184 0.0
H862 H 0.6625 0.70417 0.33892 0.0
H863 H 0.67381 0.76321 0.33532 0.0
H864 H 0.73549 0.70259 0.38899 0.0
H865 H 0.75245 0.84127 0.38225 0.0
H866 H 0.77781 0.69229 0.34666 0.0
H867 H 0.71507 0.6677 0.34473 0.0
H868 H 0.7397 0.65822 0.36506 0.0
H869 H 0.80285 0.8615 0.33788 0.0
H870 H 0.77678 0.88236 0.35447 0.0
H871 H 0.7408 0.8418 0.33696 0.0
C872 C 0.99827 0.72279 0.6325 0.0
C873 C 0.03262 0.76498 0.62435 0.0
C874 C 0.98835 0.72093 0.651 0.0
C875 C 0.01233 0.76269 0.66154 0.0
C876 C 0.04633 0.80577 0.65329 0.0
C877 C 0.05671 0.80622 0.6348 0.0
C878 C 0.95301 0.67394 0.65934 0.0
C879 C 0.07165 0.85125 0.664 0.0
C880 C 0.9531 0.75508 0.70675 0.0
C881 C 0.98076 0.74509 0.71849 0.0
C882 C 0.96447 0.7635 0.68827 0.0
C883 C 0.00338 0.76022 0.68135 0.0
C884 C 0.03165 0.75064 0.69324 0.0
C885 C 0.02039 0.7439 0.71167 0.0
C886 C 0.93431 0.77493 0.6761 0.0
C887 C 0.07251 0.74534 0.68637 0.0
H888 H 0.97982 0.69075 0.62445 0.0
H889 H 0.08294 0.83896 0.62845 0.0
H890 H 0.97047 0.66452 0.67015 0.0
H891 H 0.92354 0.67659 0.66568 0.0
H892 H 0.93775 0.6447 0.64927 0.0
H893 H 0.09459 0.88229 0.65534 0.0
H894 H 0.04538 0.85798 0.67098 0.0
H895 H 0.09404 0.84807 0.67458 0.0
H896 H 0.92266 0.75638 0.71202 0.0
H897 H 0.04171 0.73583 0.72067 0.0
H898 H 0.91395 0.74505 0.66663 0.0
H899 H 0.95717 0.80677 0.66782 0.0
H900 H 0.90884 0.7814 0.68384 0.0
H901 H 0.05897 0.71492 0.67687 0.0
H902 H 0.09189 0.73932 0.69747 0.0
H903 H 0.09798 0.77748 0.67879 0.0
C904 C 0.28415 0.00194 0.04172 0.0
C905 C 0.24213 0.96666 0.04968 0.0
C906 C 0.28605 0.01278 0.02331 0.0
C907 C 0.24446 0.98878 0.01266 0.0
C908 C 0.20149 0.95394 0.02073 0.0
C909 C 0.20102 0.94267 0.03913 0.0
C910 C 0.33296 0.04902 0.01516 0.0
C911 C 0.15617 0.92855 0.00992 0.0
C912 C 0.25147 0.04911 0.96777 0.0
C913 C 0.26224 0.02236 0.95585 0.0
C914 C 0.24309 0.03712 0.9862 0.0
C915 C 0.24711 0.99845 0.9929 0.0
C916 C 0.25748 0.97111 0.98083 0.0
C917 C 0.26426 0.98301 0.96245 0.0
C918 C 0.23086 0.06632 0.99857 0.0
C919 C 0.26349 0.93051 0.98745 0.0
H920 H 0.31611 0.02032 0.04983 0.0
H921 H 0.1684 0.91567 0.04532 0.0
H922 H 0.34307 0.03232 0.00426 0.0
H923 H 0.32976 0.07829 0.00894 0.0
H924 H 0.36201 0.06439 0.02531 0.0
H925 H 0.12508 0.90514 0.01849 0.0
H926 H 0.14915 0.95473 0.00305 0.0
H927 H 0.1598 0.90663 0.99926 0.0
H928 H 0.24951 0.07932 0.96268 0.0
H929 H 0.27288 0.96236 0.95331 0.0
H930 H 0.26049 0.08659 0.00815 0.0
H931 H 0.19897 0.04281 0.00672 0.0
H932 H 0.22405 0.09178 0.991 0.0
H933 H 0.29376 0.94408 0.99703 0.0
H934 H 0.27019 0.91191 0.97623 0.0
H935 H 0.23136 0.90436 0.99487 0.0
loop_
_geom_bond_atom_site_label_1
_geom_bond_atom_site_label_2
_geom_bond_distance
_geom_bond_site_symmetry_2
_ccdc_geom_bond_type
O0 Cd1 2.223 . S
O0 C8 1.315 . S
Cd1 O0 2.223 . S
Cd1 O4 2.297 . S
Cd1 O5 2.439 . S
Cd1 O11 2.240 . S
Cd2 O3 2.240 . S
Cd2 O10 2.223 . S
Cd2 O12 2.297 . S
Cd2 O13 2.439 . S
O3 Cd2 2.240 . S
O3 C8 1.279 . S
O4 Cd1 2.297 . S
O4 C6 1.247 . S
O5 Cd1 2.439 . S
O5 C6 1.208 . S
C6 O4 1.247 . S
C6 O5 1.208 . S
C7 O12 1.247 . S
C7 O13 1.208 . S
C8 O0 1.315 . S
C8 O3 1.279 . S
C9 O10 1.315 . S
C9 O11 1.279 . S
O10 Cd2 2.223 . S
O10 C9 1.315 . S
O11 Cd1 2.240 . S
O11 C9 1.279 . S
O12 Cd2 2.297 . S
O12 C7 1.247 . S
O13 Cd2 2.439 . S
O13 C7 1.208 . S
O14 Cd15 2.223 . S
O14 C22 1.315 1_455 S
Cd15 O14 2.223 . S
Cd15 O18 2.297 . S
Cd15 O19 2.439 1_455 S
Cd15 O25 2.240 . S
Cd16 O17 2.240 . S
Cd16 O24 2.223 . S
Cd16 O26 2.297 . S
Cd16 O27 2.439 . S
O17 Cd16 2.240 . S
O17 C22 1.279 . S
O18 Cd15 2.297 . S
O18 C20 1.247 1_455 S
O19 Cd15 2.439 1_655 S
O19 C20 1.208 . S
C20 O18 1.247 1_655 S
C20 O19 1.208 . S
C21 O26 1.247 . S
C21 O27 1.208 . S
C22 O14 1.315 1_655 S
C22 O17 1.279 . S
C23 O24 1.315 1_455 S
C23 O25 1.279 . S
O24 Cd16 2.223 . S
O24 C23 1.315 1_655 S
O25 Cd15 2.240 . S
O25 C23 1.279 . S
O26 Cd16 2.297 . S
O26 C21 1.247 . S
O27 Cd16 2.439 . S
O27 C21 1.208 . S
O28 Cd29 2.223 . S
O28 C36 1.315 1_545 S
Cd29 O28 2.223 . S
Cd29 O32 2.297 . S
Cd29 O33 2.439 1_545 S
Cd29 O39 2.240 . S
Cd30 O31 2.240 . S
Cd30 O38 2.223 . S
Cd30 O40 2.297 . S
Cd30 O41 2.439 . S
O31 Cd30 2.240 . S
O31 C36 1.279 . S
O32 Cd29 2.297 . S
O32 C34 1.247 1_545 S
O33 Cd29 2.439 1_565 S
O33 C34 1.208 . S
C34 O32 1.247 1_565 S
C34 O33 1.208 . S
C35 O40 1.247 . S
C35 O41 1.208 . S
C36 O28 1.315 1_565 S
C36 O31 1.279 . S
C37 O38 1.315 1_545 S
C37 O39 1.279 . S
O38 Cd30 2.223 . S
O38 C37 1.315 1_565 S
O39 Cd29 2.240 . S
O39 C37 1.279 . S
O40 Cd30 2.297 . S
O40 C35 1.247 . S
O41 Cd30 2.439 . S
O41 C35 1.208 . S
O42 Cd43 2.223 . S
O42 C50 1.315 . S
Cd43 O42 2.223 . S
Cd43 O46 2.297 . S
Cd43 O47 2.439 . S
Cd43 O53 2.240 . S
Cd44 O45 2.240 . S
Cd44 O52 2.223 . S
Cd44 O54 2.297 . S
Cd44 O55 2.439 . S
O45 Cd44 2.240 . S
O45 C50 1.279 . S
O46 Cd43 2.297 . S
O46 C48 1.247 . S
O47 Cd43 2.439 . S
O47 C48 1.208 . S
C48 O46 1.247 . S
C48 O47 1.208 . S
C49 O54 1.247 . S
C49 O55 1.208 . S
C50 O42 1.315 . S
C50 O45 1.279 . S
C51 O52 1.315 . S
C51 O53 1.279 . S
O52 Cd44 2.223 . S
O52 C51 1.315 . S
O53 Cd43 2.240 . S
O53 C51 1.279 . S
O54 Cd44 2.297 . S
O54 C49 1.247 . S
O55 Cd44 2.439 . S
O55 C49 1.208 . S
O56 Cd57 2.223 . S
O56 C64 1.315 1_655 S
Cd57 O56 2.223 . S
Cd57 O60 2.297 . S
Cd57 O61 2.439 1_655 S
Cd57 O67 2.240 . S
Cd58 O59 2.240 . S
Cd58 O66 2.223 . S
Cd58 O68 2.297 . S
Cd58 O69 2.439 . S
O59 Cd58 2.240 . S
O59 C64 1.279 . S
O60 Cd57 2.297 . S
O60 C62 1.247 1_655 S
O61 Cd57 2.439 1_455 S
O61 C62 1.208 . S
C62 O60 1.247 1_455 S
C62 O61 1.208 . S
C63 O68 1.247 . S
C63 O69 1.208 . S
C64 O56 1.315 1_455 S
C64 O59 1.279 . S
C65 O66 1.315 1_655 S
C65 O67 1.279 . S
O66 Cd58 2.223 . S
O66 C65 1.315 1_455 S
O67 Cd57 2.240 . S
O67 C65 1.279 . S
O68 Cd58 2.297 . S
O68 C63 1.247 . S
O69 Cd58 2.439 . S
O69 C63 1.208 . S
O70 Cd71 2.223 . S
O70 C78 1.315 1_565 S
Cd71 O70 2.223 . S
Cd71 O74 2.297 . S
Cd71 O75 2.439 1_565 S
Cd71 O81 2.240 . S
Cd72 O73 2.240 . S
Cd72 O80 2.223 . S
Cd72 O82 2.297 . S
Cd72 O83 2.439 . S
O73 Cd72 2.240 . S
O73 C78 1.279 . S
O74 Cd71 2.297 . S
O74 C76 1.247 1_565 S
O75 Cd71 2.439 1_545 S
O75 C76 1.208 . S
C76 O74 1.247 1_545 S
C76 O75 1.208 . S
C77 O82 1.247 . S
C77 O83 1.208 . S
C78 O70 1.315 1_545 S
C78 O73 1.279 . S
C79 O80 1.315 1_565 S
C79 O81 1.279 . S
O80 Cd72 2.223 . S
O80 C79 1.315 1_545 S
O81 Cd71 2.240 . S
O81 C79 1.279 . S
O82 Cd72 2.297 . S
O82 C77 1.247 . S
O83 Cd72 2.439 . S
O83 C77 1.208 . S
O84 Cd85 2.223 . S
O84 C92 1.315 . S
Cd85 O84 2.223 . S
Cd85 O88 2.297 . S
Cd85 O89 2.439 . S
Cd85 O95 2.240 . S
Cd86 O87 2.240 . S
Cd86 O94 2.223 . S
Cd86 O96 2.297 . S
Cd86 O97 2.439 . S
O87 Cd86 2.240 . S
O87 C92 1.279 . S
O88 Cd85 2.297 . S
O88 C90 1.247 . S
O89 Cd85 2.439 . S
O89 C90 1.208 . S
C90 O88 1.247 . S
C90 O89 1.208 . S
C91 O96 1.247 . S
C91 O97 1.208 . S
C92 O84 1.315 . S
C92 O87 1.279 . S
C93 O94 1.315 . S
C93 O95 1.279 . S
O94 Cd86 2.223 . S
O94 C93 1.315 . S
O95 Cd85 2.240 . S
O95 C93 1.279 . S
O96 Cd86 2.297 . S
O96 C91 1.247 . S
O97 Cd86 2.439 . S
O97 C91 1.208 . S
O98 Cd99 2.223 . S
O98 C106 1.315 1_455 S
Cd99 O98 2.223 . S
Cd99 O102 2.297 . S
Cd99 O103 2.439 1_455 S
Cd99 O109 2.240 . S
Cd100 O101 2.240 . S
Cd100 O108 2.223 . S
Cd100 O110 2.297 . S
Cd100 O111 2.439 . S
O101 Cd100 2.240 . S
O101 C106 1.279 . S
O102 Cd99 2.297 . S
O102 C104 1.247 1_455 S
O103 Cd99 2.439 1_655 S
O103 C104 1.208 . S
C104 O102 1.247 1_655 S
C104 O103 1.208 . S
C105 O110 1.247 . S
C105 O111 1.208 . S
C106 O98 1.315 1_655 S
C106 O101 1.279 . S
C107 O108 1.315 1_455 S
C107 O109 1.279 . S
O108 Cd100 2.223 . S
O108 C107 1.315 1_655 S
O109 Cd99 2.240 . S
O109 C107 1.279 . S
O110 Cd100 2.297 . S
O110 C105 1.247 . S
O111 Cd100 2.439 . S
O111 C105 1.208 . S
O112 Cd113 2.223 . S
O112 C120 1.315 1_545 S
Cd113 O112 2.223 . S
Cd113 O116 2.297 . S
Cd113 O117 2.439 1_545 S
Cd113 O123 2.240 . S
Cd114 O115 2.240 . S
Cd114 O122 2.223 . S
Cd114 O124 2.297 . S
Cd114 O125 2.439 . S
O115 Cd114 2.240 . S
O115 C120 1.279 . S
O116 Cd113 2.297 . S
O116 C118 1.247 1_545 S
O117 Cd113 2.439 1_565 S
O117 C118 1.208 . S
C118 O116 1.247 1_565 S
C118 O117 1.208 . S
C119 O124 1.247 . S
C119 O125 1.208 . S
C120 O112 1.315 1_565 S
C120 O115 1.279 . S
C121 O122 1.315 1_545 S
C121 O123 1.279 . S
O122 Cd114 2.223 . S
O122 C121 1.315 1_565 S
O123 Cd113 2.240 . S
O123 C121 1.279 . S
O124 Cd114 2.297 . S
O124 C119 1.247 . S
O125 Cd114 2.439 . S
O125 C119 1.208 . S
O126 Cd127 2.223 . S
O126 C134 1.315 . S
Cd127 O126 2.223 . S
Cd127 O130 2.297 . S
Cd127 O131 2.439 . S
Cd127 O137 2.240 . S
Cd128 O129 2.240 . S
Cd128 O136 2.223 . S
Cd128 O138 2.297 . S
Cd128 O139 2.439 . S
O129 Cd128 2.240 . S
O129 C134 1.279 . S
O130 Cd127 2.297 . S
O130 C132 1.247 . S
O131 Cd127 2.439 . S
O131 C132 1.208 . S
C132 O130 1.247 . S
C132 O131 1.208 . S
C133 O138 1.247 . S
C133 O139 1.208 . S
C134 O126 1.315 . S
C134 O129 1.279 . S
C135 O136 1.315 . S
C135 O137 1.279 . S
O136 Cd128 2.223 . S
O136 C135 1.315 . S
O137 Cd127 2.240 . S
O137 C135 1.279 . S
O138 Cd128 2.297 . S
O138 C133 1.247 . S
O139 Cd128 2.439 . S
O139 C133 1.208 . S
O140 Cd141 2.223 . S
O140 C148 1.315 1_655 S
Cd141 O140 2.223 . S
Cd141 O144 2.297 . S
Cd141 O145 2.439 1_655 S
Cd141 O151 2.240 . S
Cd142 O143 2.240 . S
Cd142 O150 2.223 . S
Cd142 O152 2.297 . S
Cd142 O153 2.439 . S
O143 Cd142 2.240 . S
O143 C148 1.279 . S
O144 Cd141 2.297 . S
O144 C146 1.247 1_655 S
O145 Cd141 2.439 1_455 S
O145 C146 1.208 . S
C146 O144 1.247 1_455 S
C146 O145 1.208 . S
C147 O152 1.247 . S
C147 O153 1.208 . S
C148 O140 1.315 1_455 S
C148 O143 1.279 . S
C149 O150 1.315 1_655 S
C149 O151 1.279 . S
O150 Cd142 2.223 . S
O150 C149 1.315 1_455 S
O151 Cd141 2.240 . S
O151 C149 1.279 . S
O152 Cd142 2.297 . S
O152 C147 1.247 . S
O153 Cd142 2.439 . S
O153 C147 1.208 . S
O154 Cd155 2.223 . S
O154 C162 1.315 1_565 S
Cd155 O154 2.223 . S
Cd155 O158 2.297 . S
Cd155 O159 2.439 1_565 S
Cd155 O165 2.240 . S
Cd156 O157 2.240 . S
Cd156 O164 2.223 . S
Cd156 O166 2.297 . S
Cd156 O167 2.439 . S
O157 Cd156 2.240 . S
O157 C162 1.279 . S
O158 Cd155 2.297 . S
O158 C160 1.247 1_565 S
O159 Cd155 2.439 1_545 S
O159 C160 1.208 . S
C160 O158 1.247 1_545 S
C160 O159 1.208 . S
C161 O166 1.247 . S
C161 O167 1.208 . S
C162 O154 1.315 1_545 S
C162 O157 1.279 . S
C163 O164 1.315 1_565 S
C163 O165 1.279 . S
O164 Cd156 2.223 . S
O164 C163 1.315 1_545 S
O165 Cd155 2.240 . S
O165 C163 1.279 . S
O166 Cd156 2.297 . S
O166 C161 1.247 . S
O167 Cd156 2.439 . S
O167 C161 1.208 . S
C168 C169 1.391 . S
C168 C170 1.394 . S
C168 H184 0.931 . S
C169 C168 1.391 . S
C169 C173 1.376 . S
C170 C168 1.394 . S
C170 C171 1.369 . S
C170 C174 1.531 . S
C171 C170 1.369 . S
C171 C172 1.410 . S
C171 C179 1.503 1_655 S
C172 C171 1.410 . S
C172 C173 1.392 . S
C172 C175 1.511 1_655 S
C173 C169 1.376 . S
C173 C172 1.392 . S
C173 H185 0.929 . S
C174 C170 1.531 . S
C174 H186 0.960 . S
C174 H187 0.962 . S
C174 H188 0.960 . S
C175 C172 1.511 1_455 S
C175 H189 0.961 . S
C175 H190 0.961 . S
C175 H191 0.961 . S
C176 C177 1.370 . S
C176 C178 1.363 . S
C176 H192 0.931 . S
C177 C176 1.370 . S
C177 C181 1.408 . S
C178 C176 1.363 . S
C178 C179 1.370 . S
C178 C182 1.524 . S
C179 C171 1.503 1_455 S
C179 C178 1.370 . S
C179 C180 1.403 . S
C180 C179 1.403 . S
C180 C181 1.404 . S
C180 C183 1.539 . S
C181 C177 1.408 . S
C181 C180 1.404 . S
C181 H193 0.930 . S
C182 C178 1.524 . S
C182 H194 0.956 1_455 S
C182 H195 0.961 . S
C182 H196 0.961 . S
C183 C180 1.539 . S
C183 H197 0.958 . S
C183 H198 0.961 . S
C183 H199 0.960 . S
H184 C168 0.931 . S
H185 C173 0.929 . S
H186 C174 0.960 . S
H187 C174 0.962 . S
H188 C174 0.960 . S
H189 C175 0.961 . S
H190 C175 0.961 . S
H191 C175 0.961 . S
H192 C176 0.931 . S
H193 C181 0.930 . S
H194 C182 0.956 1_655 S
H195 C182 0.961 . S
H196 C182 0.961 . S
H197 C183 0.958 . S
H198 C183 0.961 . S
H199 C183 0.960 . S
C200 C201 1.391 . S
C200 C202 1.394 . S
C200 H216 0.931 . S
C201 C200 1.391 . S
C201 C205 1.376 . S
C202 C200 1.394 . S
C202 C203 1.369 . S
C202 C206 1.531 . S
C203 C202 1.369 . S
C203 C204 1.410 . S
C203 C211 1.503 1_545 S
C204 C203 1.410 . S
C204 C205 1.392 . S
C204 C207 1.511 . S
C205 C201 1.376 . S
C205 C204 1.392 . S
C205 H217 0.929 . S
C206 C202 1.531 . S
C206 H218 0.960 . S
C206 H219 0.962 . S
C206 H220 0.960 . S
C207 C204 1.511 . S
C207 H221 0.961 . S
C207 H222 0.961 1_545 S
C207 H223 0.961 . S
C208 C209 1.370 . S
C208 C210 1.363 . S
C208 H224 0.931 . S
C209 C208 1.370 . S
C209 C213 1.408 . S
C210 C208 1.363 . S
C210 C211 1.370 . S
C210 C214 1.524 . S
C211 C203 1.503 1_565 S
C211 C210 1.370 . S
C211 C212 1.403 . S
C212 C211 1.403 . S
C212 C213 1.404 . S
C212 C215 1.539 1_565 S
C213 C209 1.408 . S
C213 C212 1.404 . S
C213 H225 0.930 . S
C214 C210 1.524 . S
C214 H226 0.956 . S
C214 H227 0.961 . S
C214 H228 0.961 . S
C215 C212 1.539 1_545 S
C215 H229 0.958 . S
C215 H230 0.961 . S
C215 H231 0.960 . S
H216 C200 0.931 . S
H217 C205 0.929 . S
H218 C206 0.960 . S
H219 C206 0.962 . S
H220 C206 0.960 . S
H221 C207 0.961 . S
H222 C207 0.961 1_565 S
H223 C207 0.961 . S
H224 C208 0.931 . S
H225 C213 0.930 . S
H226 C214 0.956 . S
H227 C214 0.961 . S
H228 C214 0.961 . S
H229 C215 0.958 . S
H230 C215 0.961 . S
H231 C215 0.960 . S
C232 C233 1.391 . S
C232 C234 1.394 . S
C232 H248 0.931 . S
C233 C232 1.391 . S
C233 C237 1.376 . S
C234 C232 1.394 . S
C234 C235 1.369 . S
C234 C238 1.531 . S
C235 C234 1.369 . S
C235 C236 1.410 . S
C235 C243 1.503 . S
C236 C235 1.410 . S
C236 C237 1.392 . S
C236 C239 1.511 . S
C237 C233 1.376 . S
C237 C236 1.392 . S
C237 H249 0.929 . S
C238 C234 1.531 . S
C238 H250 0.960 . S
C238 H251 0.962 . S
C238 H252 0.960 . S
C239 C236 1.511 . S
C239 H253 0.961 . S
C239 H254 0.961 . S
C239 H255 0.961 . S
C240 C241 1.370 . S
C240 C242 1.363 . S
C240 H256 0.931 . S
C241 C240 1.370 . S
C241 C245 1.408 . S
C242 C240 1.363 . S
C242 C243 1.370 . S
C242 C246 1.524 . S
C243 C235 1.503 . S
C243 C242 1.370 . S
C243 C244 1.403 . S
C244 C243 1.403 . S
C244 C245 1.404 . S
C244 C247 1.539 . S
C245 C241 1.408 . S
C245 C244 1.404 . S
C245 H257 0.930 . S
C246 C242 1.524 . S
C246 H258 0.956 . S
C246 H259 0.961 . S
C246 H260 0.961 . S
C247 C244 1.539 . S
C247 H261 0.958 . S
C247 H262 0.961 . S
C247 H263 0.960 . S
H248 C232 0.931 . S
H249 C237 0.929 . S
H250 C238 0.960 . S
H251 C238 0.962 . S
H252 C238 0.960 . S
H253 C239 0.961 . S
H254 C239 0.961 . S
H255 C239 0.961 . S
H256 C240 0.931 . S
H257 C245 0.930 . S
H258 C246 0.956 . S
H259 C246 0.961 . S
H260 C246 0.961 . S
H261 C247 0.958 . S
H262 C247 0.961 . S
H263 C247 0.960 . S
C264 C265 1.391 . S
C264 C266 1.394 . S
C264 H280 0.931 . S
C265 C264 1.391 . S
C265 C269 1.376 . S
C266 C264 1.394 . S
C266 C267 1.369 . S
C266 C270 1.531 . S
C267 C266 1.369 . S
C267 C268 1.410 . S
C267 C275 1.503 1_655 S
C268 C267 1.410 . S
C268 C269 1.392 . S
C268 C271 1.511 . S
C269 C265 1.376 . S
C269 C268 1.392 . S
C269 H281 0.929 . S
C270 C266 1.531 . S
C270 H282 0.960 1_655 S
C270 H283 0.962 . S
C270 H284 0.960 . S
C271 C268 1.511 . S
C271 H285 0.961 . S
C271 H286 0.961 . S
C271 H287 0.961 . S
C272 C273 1.370 . S
C272 C274 1.363 . S
C272 H288 0.931 . S
C273 C272 1.370 . S
C273 C277 1.408 . S
C274 C272 1.363 . S
C274 C275 1.370 . S
C274 C278 1.524 1_455 S
C275 C267 1.503 1_455 S
C275 C274 1.370 . S
C275 C276 1.403 . S
C276 C275 1.403 . S
C276 C277 1.404 . S
C276 C279 1.539 . S
C277 C273 1.408 . S
C277 C276 1.404 . S
C277 H289 0.930 . S
C278 C274 1.524 1_655 S
C278 H290 0.956 . S
C278 H291 0.961 . S
C278 H292 0.961 . S
C279 C276 1.539 . S
C279 H293 0.958 . S
C279 H294 0.961 . S
C279 H295 0.960 . S
H280 C264 0.931 . S
H281 C269 0.929 . S
H282 C270 0.960 1_455 S
H283 C270 0.962 . S
H284 C270 0.960 . S
H285 C271 0.961 . S
H286 C271 0.961 . S
H287 C271 0.961 . S
H288 C272 0.931 . S
H289 C277 0.930 . S
H290 C278 0.956 . S
H291 C278 0.961 . S
H292 C278 0.961 . S
H293 C279 0.958 . S
H294 C279 0.961 . S
H295 C279 0.960 . S
C296 C297 1.391 . S
C296 C298 1.394 . S
C296 H312 0.931 . S
C297 C296 1.391 . S
C297 C301 1.376 . S
C298 C296 1.394 . S
C298 C299 1.369 . S
C298 C302 1.531 . S
C299 C298 1.369 . S
C299 C300 1.410 . S
C299 C307 1.503 1_545 S
C300 C299 1.410 . S
C300 C301 1.392 . S
C300 C303 1.511 1_545 S
C301 C297 1.376 . S
C301 C300 1.392 . S
C301 H313 0.929 . S
C302 C298 1.531 . S
C302 H314 0.960 . S
C302 H315 0.962 . S
C302 H316 0.960 . S
C303 C300 1.511 1_565 S
C303 H317 0.961 1_565 S
C303 H318 0.961 . S
C303 H319 0.961 . S
C304 C305 1.370 . S
C304 C306 1.363 . S
C304 H320 0.931 . S
C305 C304 1.370 . S
C305 C309 1.408 . S
C306 C304 1.363 . S
C306 C307 1.370 . S
C306 C310 1.524 1_565 S
C307 C299 1.503 1_565 S
C307 C306 1.370 . S
C307 C308 1.403 . S
C308 C307 1.403 . S
C308 C309 1.404 . S
C308 C311 1.539 . S
C309 C305 1.408 . S
C309 C308 1.404 . S
C309 H321 0.930 . S
C310 C306 1.524 1_545 S
C310 H322 0.956 . S
C310 H323 0.961 . S
C310 H324 0.961 . S
C311 C308 1.539 . S
C311 H325 0.958 . S
C311 H326 0.961 . S
C311 H327 0.960 . S
H312 C296 0.931 . S
H313 C301 0.929 . S
H314 C302 0.960 . S
H315 C302 0.962 . S
H316 C302 0.960 . S
H317 C303 0.961 1_545 S
H318 C303 0.961 . S
H319 C303 0.961 . S
H320 C304 0.931 . S
H321 C309 0.930 . S
H322 C310 0.956 . S
H323 C310 0.961 . S
H324 C310 0.961 . S
H325 C311 0.958 . S
H326 C311 0.961 . S
H327 C311 0.960 . S
C328 C329 1.391 . S
C328 C330 1.394 . S
C328 H344 0.931 . S
C329 C328 1.391 . S
C329 C333 1.376 . S
C330 C328 1.394 . S
C330 C331 1.369 . S
C330 C334 1.531 . S
C331 C330 1.369 . S
C331 C332 1.410 . S
C331 C339 1.503 . S
C332 C331 1.410 . S
C332 C333 1.392 . S
C332 C335 1.511 . S
C333 C329 1.376 . S
C333 C332 1.392 . S
C333 H345 0.929 . S
C334 C330 1.531 . S
C334 H346 0.960 . S
C334 H347 0.962 . S
C334 H348 0.960 . S
C335 C332 1.511 . S
C335 H349 0.961 . S
C335 H350 0.961 . S
C335 H351 0.961 . S
C336 C337 1.370 . S
C336 C338 1.363 . S
C336 H352 0.931 . S
C337 C336 1.370 . S
C337 C341 1.408 . S
C338 C336 1.363 . S
C338 C339 1.370 . S
C338 C342 1.524 . S
C339 C331 1.503 . S
C339 C338 1.370 . S
C339 C340 1.403 . S
C340 C339 1.403 . S
C340 C341 1.404 . S
C340 C343 1.539 . S
C341 C337 1.408 . S
C341 C340 1.404 . S
C341 H353 0.930 . S
C342 C338 1.524 . S
C342 H354 0.956 . S
C342 H355 0.961 . S
C342 H356 0.961 . S
C343 C340 1.539 . S
C343 H357 0.958 . S
C343 H358 0.961 . S
C343 H359 0.960 . S
H344 C328 0.931 . S
H345 C333 0.929 . S
H346 C334 0.960 . S
H347 C334 0.962 . S
H348 C334 0.960 . S
H349 C335 0.961 . S
H350 C335 0.961 . S
H351 C335 0.961 . S
H352 C336 0.931 . S
H353 C341 0.930 . S
H354 C342 0.956 . S
H355 C342 0.961 . S
H356 C342 0.961 . S
H357 C343 0.958 . S
H358 C343 0.961 . S
H359 C343 0.960 . S
C360 C361 1.391 . S
C360 C362 1.394 . S
C360 H376 0.931 . S
C361 C360 1.391 . S
C361 C365 1.376 . S
C362 C360 1.394 . S
C362 C363 1.369 . S
C362 C366 1.531 . S
C363 C362 1.369 . S
C363 C364 1.410 . S
C363 C371 1.503 . S
C364 C363 1.410 . S
C364 C365 1.392 . S
C364 C367 1.511 . S
C365 C361 1.376 . S
C365 C364 1.392 . S
C365 H377 0.929 . S
C366 C362 1.531 . S
C366 H378 0.960 . S
C366 H379 0.962 . S
C366 H380 0.960 . S
C367 C364 1.511 . S
C367 H381 0.961 . S
C367 H382 0.961 . S
C367 H383 0.961 . S
C368 C369 1.370 . S
C368 C370 1.363 . S
C368 H384 0.931 . S
C369 C368 1.370 . S
C369 C373 1.408 . S
C370 C368 1.363 . S
C370 C371 1.370 . S
C370 C374 1.524 . S
C371 C363 1.503 . S
C371 C370 1.370 . S
C371 C372 1.403 . S
C372 C371 1.403 . S
C372 C373 1.404 . S
C372 C375 1.539 . S
C373 C369 1.408 . S
C373 C372 1.404 . S
C373 H385 0.930 . S
C374 C370 1.524 . S
C374 H386 0.956 . S
C374 H387 0.961 . S
C374 H388 0.961 . S
C375 C372 1.539 . S
C375 H389 0.958 . S
C375 H390 0.961 . S
C375 H391 0.960 . S
H376 C360 0.931 . S
H377 C365 0.929 . S
H378 C366 0.960 . S
H379 C366 0.962 . S
H380 C366 0.960 . S
H381 C367 0.961 . S
H382 C367 0.961 . S
H383 C367 0.961 . S
H384 C368 0.931 . S
H385 C373 0.930 . S
H386 C374 0.956 . S
H387 C374 0.961 . S
H388 C374 0.961 . S
H389 C375 0.958 . S
H390 C375 0.961 . S
H391 C375 0.960 . S
C392 C393 1.391 1_655 S
C392 C394 1.394 . S
C392 H408 0.931 . S
C393 C392 1.391 1_455 S
C393 C397 1.376 . S
C394 C392 1.394 . S
C394 C395 1.369 1_655 S
C394 C398 1.531 . S
C395 C394 1.369 1_455 S
C395 C396 1.410 . S
C395 C403 1.505 1_455 S
C396 C395 1.410 . S
C396 C397 1.392 . S
C396 C399 1.511 . S
C397 C393 1.376 . S
C397 C396 1.392 . S
C397 H409 0.929 . S
C398 C394 1.531 . S
C398 H410 0.960 . S
C398 H411 0.962 . S
C398 H412 0.960 . S
C399 C396 1.511 . S
C399 H413 0.961 . S
C399 H414 0.961 . S
C399 H415 0.961 . S
C400 C401 1.370 . S
C400 C402 1.363 . S
C400 H416 0.931 . S
C401 C400 1.370 . S
C401 C405 1.408 1_655 S
C402 C400 1.363 . S
C402 C403 1.371 . S
C402 C406 1.524 . S
C403 C395 1.505 1_655 S
C403 C402 1.371 . S
C403 C404 1.400 1_655 S
C404 C403 1.400 1_455 S
C404 C405 1.404 . S
C404 C407 1.539 . S
C405 C401 1.408 1_455 S
C405 C404 1.404 . S
C405 H417 0.930 . S
C406 C402 1.524 . S
C406 H418 0.956 . S
C406 H419 0.961 . S
C406 H420 0.961 . S
C407 C404 1.539 . S
C407 H421 0.958 . S
C407 H422 0.961 . S
C407 H423 0.960 . S
H408 C392 0.931 . S
H409 C397 0.929 . S
H410 C398 0.960 . S
H411 C398 0.962 . S
H412 C398 0.960 . S
H413 C399 0.961 . S
H414 C399 0.961 . S
H415 C399 0.961 . S
H416 C400 0.931 . S
H417 C405 0.930 . S
H418 C406 0.956 . S
H419 C406 0.961 . S
H420 C406 0.961 . S
H421 C407 0.958 . S
H422 C407 0.961 . S
H423 C407 0.960 . S
C424 C425 1.391 . S
C424 C426 1.394 . S
C424 H440 0.931 . S
C425 C424 1.391 . S
C425 C429 1.376 1_545 S
C426 C424 1.394 . S
C426 C427 1.378 . S
C426 C430 1.531 . S
C427 C426 1.378 . S
C427 C428 1.406 1_545 S
C427 C435 1.498 1_545 S
C428 C427 1.406 1_565 S
C428 C429 1.392 . S
C428 C431 1.511 . S
C429 C425 1.376 1_565 S
C429 C428 1.392 . S
C429 H441 0.929 . S
C430 C426 1.531 . S
C430 H442 0.960 . S
C430 H443 0.962 . S
C430 H444 0.960 . S
C431 C428 1.511 . S
C431 H445 0.961 . S
C431 H446 0.961 . S
C431 H447 0.961 . S
C432 C433 1.356 1_545 S
C432 C434 1.377 . S
C432 H448 0.931 . S
C433 C432 1.356 1_565 S
C433 C437 1.408 . S
C434 C432 1.377 . S
C434 C435 1.370 1_545 S
C434 C438 1.524 . S
C435 C427 1.498 1_565 S
C435 C434 1.370 1_565 S
C435 C436 1.403 . S
C436 C435 1.403 . S
C436 C437 1.404 . S
C436 C439 1.539 . S
C437 C433 1.408 . S
C437 C436 1.404 . S
C437 H449 0.930 . S
C438 C434 1.524 . S
C438 H450 0.956 . S
C438 H451 0.961 . S
C438 H452 0.961 . S
C439 C436 1.539 . S
C439 H453 0.958 . S
C439 H454 0.961 . S
C439 H455 0.960 . S
H440 C424 0.931 . S
H441 C429 0.929 . S
H442 C430 0.960 . S
H443 C430 0.962 . S
H444 C430 0.960 . S
H445 C431 0.961 . S
H446 C431 0.961 . S
H447 C431 0.961 . S
H448 C432 0.931 . S
H449 C437 0.930 . S
H450 C438 0.956 . S
H451 C438 0.961 . S
H452 C438 0.961 . S
H453 C439 0.958 . S
H454 C439 0.961 . S
H455 C439 0.960 . S
C456 C457 1.391 . S
C456 C458 1.394 . S
C456 H472 0.931 . S
C457 C456 1.391 . S
C457 C461 1.376 . S
C458 C456 1.394 . S
C458 C459 1.369 . S
C458 C462 1.531 . S
C459 C458 1.369 . S
C459 C460 1.410 . S
C459 C467 1.503 . S
C460 C459 1.410 . S
C460 C461 1.392 . S
C460 C463 1.511 . S
C461 C457 1.376 . S
C461 C460 1.392 . S
C461 H473 0.929 . S
C462 C458 1.531 . S
C462 H474 0.960 . S
C462 H475 0.962 . S
C462 H476 0.960 . S
C463 C460 1.511 . S
C463 H477 0.961 . S
C463 H478 0.961 . S
C463 H479 0.961 . S
C464 C465 1.370 . S
C464 C466 1.363 . S
C464 H480 0.931 . S
C465 C464 1.370 . S
C465 C469 1.408 . S
C466 C464 1.363 . S
C466 C467 1.370 . S
C466 C470 1.524 . S
C467 C459 1.503 . S
C467 C466 1.370 . S
C467 C468 1.403 . S
C468 C467 1.403 . S
C468 C469 1.404 . S
C468 C471 1.539 . S
C469 C465 1.408 . S
C469 C468 1.404 . S
C469 H481 0.930 . S
C470 C466 1.524 . S
C470 H482 0.956 . S
C470 H483 0.961 . S
C470 H484 0.961 . S
C471 C468 1.539 . S
C471 H485 0.958 . S
C471 H486 0.961 . S
C471 H487 0.960 . S
H472 C456 0.931 . S
H473 C461 0.929 . S
H474 C462 0.960 . S
H475 C462 0.962 . S
H476 C462 0.960 . S
H477 C463 0.961 . S
H478 C463 0.961 . S
H479 C463 0.961 . S
H480 C464 0.931 . S
H481 C469 0.930 . S
H482 C470 0.956 . S
H483 C470 0.961 . S
H484 C470 0.961 . S
H485 C471 0.958 . S
H486 C471 0.961 . S
H487 C471 0.960 . S
C488 C489 1.391 . S
C488 C490 1.394 . S
C488 H504 0.931 . S
C489 C488 1.391 . S
C489 C493 1.376 1_655 S
C490 C488 1.394 . S
C490 C491 1.369 . S
C490 C494 1.531 . S
C491 C490 1.369 . S
C491 C492 1.410 1_655 S
C491 C499 1.503 1_655 S
C492 C491 1.410 1_455 S
C492 C493 1.392 . S
C492 C495 1.511 . S
C493 C489 1.376 1_455 S
C493 C492 1.392 . S
C493 H505 0.929 . S
C494 C490 1.531 . S
C494 H506 0.960 . S
C494 H507 0.962 . S
C494 H508 0.960 . S
C495 C492 1.511 . S
C495 H509 0.961 . S
C495 H510 0.961 . S
C495 H511 0.961 . S
C496 C497 1.370 . S
C496 C498 1.363 . S
C496 H512 0.931 . S
C497 C496 1.370 . S
C497 C501 1.408 . S
C498 C496 1.363 . S
C498 C499 1.370 . S
C498 C502 1.524 1_455 S
C499 C491 1.503 1_455 S
C499 C498 1.370 . S
C499 C500 1.403 . S
C500 C499 1.403 . S
C500 C501 1.404 . S
C500 C503 1.539 . S
C501 C497 1.408 . S
C501 C500 1.404 . S
C501 H513 0.930 . S
C502 C498 1.524 1_655 S
C502 H514 0.956 . S
C502 H515 0.961 1_655 S
C502 H516 0.961 1_655 S
C503 C500 1.539 . S
C503 H517 0.958 1_455 S
C503 H518 0.961 . S
C503 H519 0.960 . S
H504 C488 0.931 . S
H505 C493 0.929 . S
H506 C494 0.960 . S
H507 C494 0.962 . S
H508 C494 0.960 . S
H509 C495 0.961 . S
H510 C495 0.961 . S
H511 C495 0.961 . S
H512 C496 0.931 . S
H513 C501 0.930 . S
H514 C502 0.956 . S
H515 C502 0.961 1_455 S
H516 C502 0.961 1_455 S
H517 C503 0.958 1_655 S
H518 C503 0.961 . S
H519 C503 0.960 . S
C520 C521 1.391 1_545 S
C520 C522 1.394 . S
C520 H536 0.931 . S
C521 C520 1.391 1_565 S
C521 C525 1.376 . S
C522 C520 1.394 . S
C522 C523 1.369 1_545 S
C522 C526 1.531 . S
C523 C522 1.369 1_565 S
C523 C524 1.410 . S
C523 C531 1.503 . S
C524 C523 1.410 . S
C524 C525 1.392 . S
C524 C527 1.511 . S
C525 C521 1.376 . S
C525 C524 1.392 . S
C525 H537 0.929 . S
C526 C522 1.531 . S
C526 H538 0.960 . S
C526 H539 0.962 . S
C526 H540 0.960 . S
C527 C524 1.511 . S
C527 H541 0.961 . S
C527 H542 0.961 . S
C527 H543 0.961 . S
C528 C529 1.370 . S
C528 C530 1.363 . S
C528 H544 0.931 . S
C529 C528 1.370 . S
C529 C533 1.408 1_545 S
C530 C528 1.363 . S
C530 C531 1.370 1_545 S
C530 C534 1.524 . S
C531 C523 1.503 . S
C531 C530 1.370 1_565 S
C531 C532 1.403 . S
C532 C531 1.403 . S
C532 C533 1.404 . S
C532 C535 1.539 . S
C533 C529 1.408 1_565 S
C533 C532 1.404 . S
C533 H545 0.930 . S
C534 C530 1.524 . S
C534 H546 0.956 . S
C534 H547 0.961 . S
C534 H548 0.961 . S
C535 C532 1.539 . S
C535 H549 0.958 . S
C535 H550 0.961 . S
C535 H551 0.960 . S
H536 C520 0.931 . S
H537 C525 0.929 . S
H538 C526 0.960 . S
H539 C526 0.962 . S
H540 C526 0.960 . S
H541 C527 0.961 . S
H542 C527 0.961 . S
H543 C527 0.961 . S
H544 C528 0.931 . S
H545 C533 0.930 . S
H546 C534 0.956 . S
H547 C534 0.961 . S
H548 C534 0.961 . S
H549 C535 0.958 . S
H550 C535 0.961 . S
H551 C535 0.960 . S
C552 C553 1.391 . S
C552 C554 1.394 . S
C552 H568 0.931 . S
C553 C552 1.391 . S
C553 C557 1.376 . S
C554 C552 1.394 . S
C554 C555 1.369 . S
C554 C558 1.531 . S
C555 C554 1.369 . S
C555 C556 1.410 . S
C555 C563 1.503 . S
C556 C555 1.410 . S
C556 C557 1.392 . S
C556 C559 1.511 . S
C557 C553 1.376 . S
C557 C556 1.392 . S
C557 H569 0.929 . S
C558 C554 1.531 . S
C558 H570 0.960 . S
C558 H571 0.962 . S
C558 H572 0.960 . S
C559 C556 1.511 . S
C559 H573 0.961 . S
C559 H574 0.961 . S
C559 H575 0.961 . S
C560 C561 1.370 . S
C560 C562 1.363 . S
C560 H576 0.931 . S
C561 C560 1.370 . S
C561 C565 1.408 . S
C562 C560 1.363 . S
C562 C563 1.370 . S
C562 C566 1.524 . S
C563 C555 1.503 . S
C563 C562 1.370 . S
C563 C564 1.403 . S
C564 C563 1.403 . S
C564 C565 1.404 . S
C564 C567 1.539 . S
C565 C561 1.408 . S
C565 C564 1.404 . S
C565 H577 0.930 . S
C566 C562 1.524 . S
C566 H578 0.956 . S
C566 H579 0.961 . S
C566 H580 0.961 . S
C567 C564 1.539 . S
C567 H581 0.958 . S
C567 H582 0.961 . S
C567 H583 0.960 . S
H568 C552 0.931 . S
H569 C557 0.929 . S
H570 C558 0.960 . S
H571 C558 0.962 . S
H572 C558 0.960 . S
H573 C559 0.961 . S
H574 C559 0.961 . S
H575 C559 0.961 . S
H576 C560 0.931 . S
H577 C565 0.930 . S
H578 C566 0.956 . S
H579 C566 0.961 . S
H580 C566 0.961 . S
H581 C567 0.958 . S
H582 C567 0.961 . S
H583 C567 0.960 . S
C584 C585 1.391 . S
C584 C586 1.394 . S
C584 H600 0.931 . S
C585 C584 1.391 . S
C585 C589 1.376 . S
C586 C584 1.394 . S
C586 C587 1.369 . S
C586 C590 1.531 . S
C587 C586 1.369 . S
C587 C588 1.410 . S
C587 C595 1.503 . S
C588 C587 1.410 . S
C588 C589 1.392 . S
C588 C591 1.511 . S
C589 C585 1.376 . S
C589 C588 1.392 . S
C589 H601 0.929 . S
C590 C586 1.531 . S
C590 H602 0.960 . S
C590 H603 0.962 . S
C590 H604 0.960 . S
C591 C588 1.511 . S
C591 H605 0.961 . S
C591 H606 0.961 . S
C591 H607 0.961 . S
C592 C593 1.370 . S
C592 C594 1.363 . S
C592 H608 0.931 . S
C593 C592 1.370 . S
C593 C597 1.408 . S
C594 C592 1.363 . S
C594 C595 1.370 . S
C594 C598 1.524 . S
C595 C587 1.503 . S
C595 C594 1.370 . S
C595 C596 1.403 . S
C596 C595 1.403 . S
C596 C597 1.404 . S
C596 C599 1.539 . S
C597 C593 1.408 . S
C597 C596 1.404 . S
C597 H609 0.930 . S
C598 C594 1.524 . S
C598 H610 0.956 . S
C598 H611 0.961 . S
C598 H612 0.961 . S
C599 C596 1.539 . S
C599 H613 0.958 . S
C599 H614 0.961 . S
C599 H615 0.960 . S
H600 C584 0.931 . S
H601 C589 0.929 . S
H602 C590 0.960 . S
H603 C590 0.962 . S
H604 C590 0.960 . S
H605 C591 0.961 . S
H606 C591 0.961 . S
H607 C591 0.961 . S
H608 C592 0.931 . S
H609 C597 0.930 . S
H610 C598 0.956 . S
H611 C598 0.961 . S
H612 C598 0.961 . S
H613 C599 0.958 . S
H614 C599 0.961 . S
H615 C599 0.960 . S
C616 C617 1.391 . S
C616 C618 1.394 . S
C616 H632 0.931 . S
C617 C616 1.391 . S
C617 C621 1.376 . S
C618 C616 1.394 . S
C618 C619 1.369 . S
C618 C622 1.531 . S
C619 C618 1.369 . S
C619 C620 1.410 . S
C619 C627 1.503 . S
C620 C619 1.410 . S
C620 C621 1.392 . S
C620 C623 1.511 . S
C621 C617 1.376 . S
C621 C620 1.392 . S
C621 H633 0.929 . S
C622 C618 1.531 . S
C622 H634 0.960 . S
C622 H635 0.962 . S
C622 H636 0.960 . S
C623 C620 1.511 . S
C623 H637 0.961 . S
C623 H638 0.961 . S
C623 H639 0.961 . S
C624 C625 1.370 . S
C624 C626 1.363 . S
C624 H640 0.931 . S
C625 C624 1.370 . S
C625 C629 1.408 . S
C626 C624 1.363 . S
C626 C627 1.370 . S
C626 C630 1.524 . S
C627 C619 1.503 . S
C627 C626 1.370 . S
C627 C628 1.403 . S
C628 C627 1.403 . S
C628 C629 1.404 . S
C628 C631 1.539 . S
C629 C625 1.408 . S
C629 C628 1.404 . S
C629 H641 0.930 . S
C630 C626 1.524 . S
C630 H642 0.956 . S
C630 H643 0.961 . S
C630 H644 0.961 . S
C631 C628 1.539 . S
C631 H645 0.958 . S
C631 H646 0.961 . S
C631 H647 0.960 . S
H632 C616 0.931 . S
H633 C621 0.929 . S
H634 C622 0.960 . S
H635 C622 0.962 . S
H636 C622 0.960 . S
H637 C623 0.961 . S
H638 C623 0.961 . S
H639 C623 0.961 . S
H640 C624 0.931 . S
H641 C629 0.930 . S
H642 C630 0.956 . S
H643 C630 0.961 . S
H644 C630 0.961 . S
H645 C631 0.958 . S
H646 C631 0.961 . S
H647 C631 0.960 . S
C648 C649 1.391 . S
C648 C650 1.394 . S
C648 H664 0.931 . S
C649 C648 1.391 . S
C649 C653 1.376 . S
C650 C648 1.394 . S
C650 C651 1.369 . S
C650 C654 1.531 . S
C651 C650 1.369 . S
C651 C652 1.410 . S
C651 C659 1.503 . S
C652 C651 1.410 . S
C652 C653 1.392 . S
C652 C655 1.511 . S
C653 C649 1.376 . S
C653 C652 1.392 . S
C653 H665 0.929 . S
C654 C650 1.531 . S
C654 H666 0.960 . S
C654 H667 0.962 . S
C654 H668 0.960 . S
C655 C652 1.511 . S
C655 H669 0.961 . S
C655 H670 0.961 . S
C655 H671 0.961 . S
C656 C657 1.370 . S
C656 C658 1.363 . S
C656 H672 0.931 . S
C657 C656 1.370 . S
C657 C661 1.408 . S
C658 C656 1.363 . S
C658 C659 1.370 . S
C658 C662 1.524 . S
C659 C651 1.503 . S
C659 C658 1.370 . S
C659 C660 1.403 . S
C660 C659 1.403 . S
C660 C661 1.404 . S
C660 C663 1.539 . S
C661 C657 1.408 . S
C661 C660 1.404 . S
C661 H673 0.930 . S
C662 C658 1.524 . S
C662 H674 0.956 . S
C662 H675 0.961 . S
C662 H676 0.961 . S
C663 C660 1.539 . S
C663 H677 0.958 . S
C663 H678 0.961 . S
C663 H679 0.960 . S
H664 C648 0.931 . S
H665 C653 0.929 . S
H666 C654 0.960 . S
H667 C654 0.962 . S
H668 C654 0.960 . S
H669 C655 0.961 . S
H670 C655 0.961 . S
H671 C655 0.961 . S
H672 C656 0.931 . S
H673 C661 0.930 . S
H674 C662 0.956 . S
H675 C662 0.961 . S
H676 C662 0.961 . S
H677 C663 0.958 . S
H678 C663 0.961 . S
H679 C663 0.960 . S
C680 C681 1.391 . S
C680 C682 1.394 . S
C680 H696 0.931 . S
C681 C680 1.391 . S
C681 C685 1.376 . S
C682 C680 1.394 . S
C682 C683 1.369 . S
C682 C686 1.531 . S
C683 C682 1.369 . S
C683 C684 1.410 . S
C683 C691 1.503 . S
C684 C683 1.410 . S
C684 C685 1.392 . S
C684 C687 1.511 . S
C685 C681 1.376 . S
C685 C684 1.392 . S
C685 H697 0.929 . S
C686 C682 1.531 . S
C686 H698 0.960 . S
C686 H699 0.962 . S
C686 H700 0.960 . S
C687 C684 1.511 . S
C687 H701 0.961 . S
C687 H702 0.961 . S
C687 H703 0.961 . S
C688 C689 1.370 . S
C688 C690 1.363 . S
C688 H704 0.931 . S
C689 C688 1.370 . S
C689 C693 1.408 . S
C690 C688 1.363 . S
C690 C691 1.370 . S
C690 C694 1.524 . S
C691 C683 1.503 . S
C691 C690 1.370 . S
C691 C692 1.403 . S
C692 C691 1.403 . S
C692 C693 1.404 . S
C692 C695 1.539 . S
C693 C689 1.408 . S
C693 C692 1.404 . S
C693 H705 0.930 . S
C694 C690 1.524 . S
C694 H706 0.956 . S
C694 H707 0.961 . S
C694 H708 0.961 . S
C695 C692 1.539 . S
C695 H709 0.958 . S
C695 H710 0.961 . S
C695 H711 0.960 . S
H696 C680 0.931 . S
H697 C685 0.929 . S
H698 C686 0.960 . S
H699 C686 0.962 . S
H700 C686 0.960 . S
H701 C687 0.961 . S
H702 C687 0.961 . S
H703 C687 0.961 . S
H704 C688 0.931 . S
H705 C693 0.930 . S
H706 C694 0.956 . S
H707 C694 0.961 . S
H708 C694 0.961 . S
H709 C695 0.958 . S
H710 C695 0.961 . S
H711 C695 0.960 . S
C712 C713 1.391 . S
C712 C714 1.394 . S
C712 H728 0.931 . S
C713 C712 1.391 . S
C713 C717 1.376 . S
C714 C712 1.394 . S
C714 C715 1.369 . S
C714 C718 1.531 . S
C715 C714 1.369 . S
C715 C716 1.410 . S
C715 C723 1.503 . S
C716 C715 1.410 . S
C716 C717 1.392 . S
C716 C719 1.511 . S
C717 C713 1.376 . S
C717 C716 1.392 . S
C717 H729 0.929 . S
C718 C714 1.531 . S
C718 H730 0.960 . S
C718 H731 0.962 . S
C718 H732 0.960 . S
C719 C716 1.511 . S
C719 H733 0.961 . S
C719 H734 0.961 . S
C719 H735 0.961 . S
C720 C721 1.370 . S
C720 C722 1.363 . S
C720 H736 0.931 . S
C721 C720 1.370 . S
C721 C725 1.408 . S
C722 C720 1.363 . S
C722 C723 1.370 . S
C722 C726 1.524 . S
C723 C715 1.503 . S
C723 C722 1.370 . S
C723 C724 1.403 . S
C724 C723 1.403 . S
C724 C725 1.404 . S
C724 C727 1.539 . S
C725 C721 1.408 . S
C725 C724 1.404 . S
C725 H737 0.930 . S
C726 C722 1.524 . S
C726 H738 0.956 . S
C726 H739 0.961 . S
C726 H740 0.961 . S
C727 C724 1.539 . S
C727 H741 0.958 . S
C727 H742 0.961 . S
C727 H743 0.960 . S
H728 C712 0.931 . S
H729 C717 0.929 . S
H730 C718 0.960 . S
H731 C718 0.962 . S
H732 C718 0.960 . S
H733 C719 0.961 . S
H734 C719 0.961 . S
H735 C719 0.961 . S
H736 C720 0.931 . S
H737 C725 0.930 . S
H738 C726 0.956 . S
H739 C726 0.961 . S
H740 C726 0.961 . S
H741 C727 0.958 . S
H742 C727 0.961 . S
H743 C727 0.960 . S
C744 C745 1.391 . S
C744 C746 1.394 . S
C744 H760 0.931 . S
C745 C744 1.391 . S
C745 C749 1.376 . S
C746 C744 1.394 . S
C746 C747 1.369 . S
C746 C750 1.531 . S
C747 C746 1.369 . S
C747 C748 1.410 . S
C747 C755 1.503 . S
C748 C747 1.410 . S
C748 C749 1.392 . S
C748 C751 1.511 . S
C749 C745 1.376 . S
C749 C748 1.392 . S
C749 H761 0.929 . S
C750 C746 1.531 . S
C750 H762 0.960 . S
C750 H763 0.962 . S
C750 H764 0.960 . S
C751 C748 1.511 . S
C751 H765 0.961 . S
C751 H766 0.961 . S
C751 H767 0.961 . S
C752 C753 1.370 . S
C752 C754 1.363 . S
C752 H768 0.931 . S
C753 C752 1.370 . S
C753 C757 1.408 . S
C754 C752 1.363 . S
C754 C755 1.370 . S
C754 C758 1.524 . S
C755 C747 1.503 . S
C755 C754 1.370 . S
C755 C756 1.403 . S
C756 C755 1.403 . S
C756 C757 1.404 . S
C756 C759 1.539 . S
C757 C753 1.408 . S
C757 C756 1.404 . S
C757 H769 0.930 . S
C758 C754 1.524 . S
C758 H770 0.956 . S
C758 H771 0.961 . S
C758 H772 0.961 . S
C759 C756 1.539 . S
C759 H773 0.958 . S
C759 H774 0.961 . S
C759 H775 0.960 . S
H760 C744 0.931 . S
H761 C749 0.929 . S
H762 C750 0.960 . S
H763 C750 0.962 . S
H764 C750 0.960 . S
H765 C751 0.961 . S
H766 C751 0.961 . S
H767 C751 0.961 . S
H768 C752 0.931 . S
H769 C757 0.930 . S
H770 C758 0.956 . S
H771 C758 0.961 . S
H772 C758 0.961 . S
H773 C759 0.958 . S
H774 C759 0.961 . S
H775 C759 0.960 . S
C776 C777 1.391 1_455 S
C776 C778 1.394 . S
C776 H792 0.931 . S
C777 C776 1.391 1_655 S
C777 C781 1.376 . S
C778 C776 1.394 . S
C778 C779 1.369 1_455 S
C778 C782 1.531 . S
C779 C778 1.369 1_655 S
C779 C780 1.410 . S
C779 C787 1.503 1_655 S
C780 C779 1.410 . S
C780 C781 1.392 . S
C780 C783 1.511 . S
C781 C777 1.376 . S
C781 C780 1.392 . S
C781 H793 0.929 . S
C782 C778 1.531 . S
C782 H794 0.960 . S
C782 H795 0.962 . S
C782 H796 0.960 . S
C783 C780 1.511 . S
C783 H797 0.961 . S
C783 H798 0.961 . S
C783 H799 0.961 . S
C784 C785 1.370 . S
C784 C786 1.363 . S
C784 H800 0.931 . S
C785 C784 1.370 . S
C785 C789 1.408 . S
C786 C784 1.363 . S
C786 C787 1.370 . S
C786 C790 1.524 . S
C787 C779 1.503 1_455 S
C787 C786 1.370 . S
C787 C788 1.417 . S
C788 C787 1.417 . S
C788 C789 1.412 . S
C788 C791 1.516 1_455 S
C789 C785 1.408 . S
C789 C788 1.412 . S
C789 H801 0.930 . S
C790 C786 1.524 . S
C790 H802 0.956 . S
C790 H803 0.961 1_455 S
C790 H804 0.961 . S
C791 C788 1.516 1_655 S
C791 H805 0.958 1_655 S
C791 H806 0.961 . S
C791 H807 0.960 . S
H792 C776 0.931 . S
H793 C781 0.929 . S
H794 C782 0.960 . S
H795 C782 0.962 . S
H796 C782 0.960 . S
H797 C783 0.961 . S
H798 C783 0.961 . S
H799 C783 0.961 . S
H800 C784 0.931 . S
H801 C789 0.930 . S
H802 C790 0.956 . S
H803 C790 0.961 1_655 S
H804 C790 0.961 . S
H805 C791 0.958 1_455 S
H806 C791 0.961 . S
H807 C791 0.960 . S
C808 C809 1.391 . S
C808 C810 1.394 . S
C808 H824 0.931 . S
C809 C808 1.391 . S
C809 C813 1.376 . S
C810 C808 1.394 . S
C810 C811 1.369 . S
C810 C814 1.531 . S
C811 C810 1.369 . S
C811 C812 1.409 . S
C811 C819 1.500 1_544 S
C812 C811 1.409 . S
C812 C813 1.392 . S
C812 C815 1.512 1_545 S
C813 C809 1.376 . S
C813 C812 1.392 . S
C813 H825 0.929 1_545 S
C814 C810 1.531 . S
C814 H826 0.960 1_554 S
C814 H827 0.962 . S
C814 H828 0.960 . S
C815 C812 1.512 1_565 S
C815 H829 0.961 . S
C815 H830 0.961 . S
C815 H831 0.961 . S
C816 C817 1.370 . S
C816 C818 1.363 . S
C816 H832 0.931 . S
C817 C816 1.370 . S
C817 C821 1.408 1_565 S
C818 C816 1.363 . S
C818 C819 1.377 . S
C818 C822 1.527 1_556 S
C819 C811 1.500 1_566 S
C819 C818 1.377 . S
C819 C820 1.399 1_565 S
C820 C819 1.399 1_545 S
C820 C821 1.404 . S
C820 C823 1.539 . S
C821 C817 1.408 1_545 S
C821 C820 1.404 . S
C821 H833 0.930 . S
C822 C818 1.527 1_554 S
C822 H834 0.955 . S
C822 H835 0.958 . S
C822 H836 0.962 1_554 S
C823 C820 1.539 . S
C823 H837 0.958 . S
C823 H838 0.961 . S
C823 H839 0.960 . S
H824 C808 0.931 . S
H825 C813 0.929 1_565 S
H826 C814 0.960 1_556 S
H827 C814 0.962 . S
H828 C814 0.960 . S
H829 C815 0.961 . S
H830 C815 0.961 . S
H831 C815 0.961 . S
H832 C816 0.931 . S
H833 C821 0.930 . S
H834 C822 0.955 . S
H835 C822 0.958 . S
H836 C822 0.962 1_556 S
H837 C823 0.958 . S
H838 C823 0.961 . S
H839 C823 0.960 . S
C840 C841 1.391 . S
C840 C842 1.394 . S
C840 H856 0.931 . S
C841 C840 1.391 . S
C841 C845 1.376 . S
C842 C840 1.394 . S
C842 C843 1.369 . S
C842 C846 1.531 . S
C843 C842 1.369 . S
C843 C844 1.410 . S
C843 C851 1.503 . S
C844 C843 1.410 . S
C844 C845 1.392 . S
C844 C847 1.511 . S
C845 C841 1.376 . S
C845 C844 1.392 . S
C845 H857 0.929 . S
C846 C842 1.531 . S
C846 H858 0.960 . S
C846 H859 0.962 . S
C846 H860 0.960 . S
C847 C844 1.511 . S
C847 H861 0.961 . S
C847 H862 0.961 . S
C847 H863 0.961 . S
C848 C849 1.370 . S
C848 C850 1.363 . S
C848 H864 0.931 . S
C849 C848 1.370 . S
C849 C853 1.408 . S
C850 C848 1.363 . S
C850 C851 1.370 . S
C850 C854 1.524 . S
C851 C843 1.503 . S
C851 C850 1.370 . S
C851 C852 1.403 . S
C852 C851 1.403 . S
C852 C853 1.404 . S
C852 C855 1.539 . S
C853 C849 1.408 . S
C853 C852 1.404 . S
C853 H865 0.930 . S
C854 C850 1.524 . S
C854 H866 0.956 . S
C854 H867 0.961 . S
C854 H868 0.961 . S
C855 C852 1.539 . S
C855 H869 0.958 . S
C855 H870 0.961 . S
C855 H871 0.960 . S
H856 C840 0.931 . S
H857 C845 0.929 . S
H858 C846 0.960 . S
H859 C846 0.962 . S
H860 C846 0.960 . S
H861 C847 0.961 . S
H862 C847 0.961 . S
H863 C847 0.961 . S
H864 C848 0.931 . S
H865 C853 0.930 . S
H866 C854 0.956 . S
H867 C854 0.961 . S
H868 C854 0.961 . S
H869 C855 0.958 . S
H870 C855 0.961 . S
H871 C855 0.960 . S
C872 C873 1.391 . S
C872 C874 1.394 . S
C872 H888 0.931 . S
C873 C872 1.391 . S
C873 C877 1.376 . S
C874 C872 1.394 . S
C874 C875 1.369 . S
C874 C878 1.531 1_455 S
C875 C874 1.369 . S
C875 C876 1.410 . S
C875 C883 1.499 1_455 S
C876 C875 1.410 . S
C876 C877 1.392 . S
C876 C879 1.511 . S
C877 C873 1.376 . S
C877 C876 1.392 . S
C877 H889 0.929 . S
C878 C874 1.531 1_655 S
C878 H890 0.960 . S
C878 H891 0.962 . S
C878 H892 0.960 . S
C879 C876 1.511 . S
C879 H893 0.961 . S
C879 H894 0.961 . S
C879 H895 0.961 . S
C880 C881 1.370 . S
C880 C882 1.363 . S
C880 H896 0.931 . S
C881 C880 1.370 . S
C881 C885 1.408 1_655 S
C882 C880 1.363 . S
C882 C883 1.384 . S
C882 C886 1.524 . S
C883 C875 1.499 1_655 S
C883 C882 1.384 . S
C883 C884 1.393 1_655 S
C884 C883 1.393 1_455 S
C884 C885 1.404 . S
C884 C887 1.539 . S
C885 C881 1.408 1_455 S
C885 C884 1.404 . S
C885 H897 0.930 . S
C886 C882 1.524 . S
C886 H898 0.956 . S
C886 H899 0.961 . S
C886 H900 0.961 . S
C887 C884 1.539 . S
C887 H901 0.958 . S
C887 H902 0.961 . S
C887 H903 0.960 . S
H888 C872 0.931 . S
H889 C877 0.929 . S
H890 C878 0.960 . S
H891 C878 0.962 . S
H892 C878 0.960 . S
H893 C879 0.961 . S
H894 C879 0.961 . S
H895 C879 0.961 . S
H896 C880 0.931 . S
H897 C885 0.930 . S
H898 C886 0.956 . S
H899 C886 0.961 . S
H900 C886 0.961 . S
H901 C887 0.958 . S
H902 C887 0.961 . S
H903 C887 0.960 . S
C904 C905 1.391 . S
C904 C906 1.394 . S
C904 H920 0.931 . S
C905 C904 1.391 . S
C905 C909 1.376 . S
C906 C904 1.394 . S
C906 C907 1.369 . S
C906 C910 1.531 . S
C907 C906 1.369 . S
C907 C908 1.410 . S
C907 C915 1.503 1_554 S
C908 C907 1.410 . S
C908 C909 1.392 . S
C908 C911 1.511 1_565 S
C909 C905 1.376 . S
C909 C908 1.392 . S
C909 H921 0.929 . S
C910 C906 1.531 . S
C910 H922 0.960 1_554 S
C910 H923 0.962 . S
C910 H924 0.960 . S
C911 C908 1.511 1_545 S
C911 H925 0.961 . S
C911 H926 0.961 . S
C911 H927 0.961 1_545 S
C912 C913 1.370 . S
C912 C914 1.363 . S
C912 H928 0.931 . S
C913 C912 1.370 . S
C913 C917 1.408 1_545 S
C914 C912 1.363 . S
C914 C915 1.370 1_545 S
C914 C918 1.486 1_556 S
C915 C907 1.503 1_556 S
C915 C914 1.370 1_565 S
C915 C916 1.403 . S
C916 C915 1.403 . S
C916 C917 1.404 . S
C916 C919 1.539 . S
C917 C913 1.408 1_565 S
C917 C916 1.404 . S
C917 H929 0.930 . S
C918 C914 1.486 1_554 S
C918 H930 0.979 . S
C918 H931 0.997 . S
C918 H932 0.942 1_554 S
C919 C916 1.539 . S
C919 H933 0.958 . S
C919 H934 0.961 . S
C919 H935 0.960 . S
H920 C904 0.931 . S
H921 C909 0.929 . S
H922 C910 0.960 1_556 S
H923 C910 0.962 . S
H924 C910 0.960 . S
H925 C911 0.961 . S
H926 C911 0.961 . S
H927 C911 0.961 1_565 S
H928 C912 0.931 . S
H929 C917 0.930 . S
H930 C918 0.979 . S
H931 C918 0.997 . S
H932 C918 0.942 1_556 S
H933 C919 0.958 . S
H934 C919 0.961 . S
H935 C919 0.960 . S
C169 C161 1.540 . S
C177 C7 1.545 . S
C201 C21 1.514 . S
C209 C91 1.557 . S
C233 C35 1.553 . S
C241 C105 1.542 . S
C265 C49 1.568 . S
C273 C119 1.535 . S
C297 C133 1.564 . S
C305 C63 1.536 . S
C329 C77 1.552 . S
C337 C147 1.542 . S
C361 C50 1.144 . S
C369 C8 1.155 . S
C393 C64 1.173 . S
C401 C22 1.146 . S
C425 C78 1.104 . S
C433 C36 1.134 . S
C457 C92 1.135 . S
C465 C134 1.154 . S
C489 C106 1.107 . S
C497 C148 1.131 . S
C521 C120 1.170 . S
C529 C162 1.139 . S
C553 C121 0.994 . S
C561 C9 0.977 . S
C585 C23 0.995 . S
C593 C135 0.977 . S
C617 C149 0.952 . S
C625 C37 0.963 . S
C649 C163 0.933 . S
C657 C51 0.950 . S
C681 C93 0.994 . S
C689 C65 0.976 . S
C713 C79 0.974 . S
C721 C107 0.965 . S
C745 C132 1.624 . S
C753 C6 1.632 . S
C777 C20 1.639 . S
C785 C146 1.625 . S
C809 C160 1.658 . S
C817 C34 1.622 . S
C841 C48 1.594 . S
C849 C90 1.647 . S
C873 C62 1.659 . S
C881 C104 1.618 . S
C905 C118 1.661 . S
C913 C76 1.620 . S
