# Generated by pormake.
# Topology unv, (4)-cn, num edge types: 1
# Building blocks:
#     Node 0, Type 0, BuildingBlock: AZAVOO_clean_sbu_0, # of connection points: 4
#     Node 1, Type 0, BuildingBlock: AZAVOO_clean_sbu_0, # of connection points: 4
#     Node 2, Type 0, BuildingBlock: AZAVOO_clean_sbu_0, # of connection points: 4
#     Node 3, Type 0, BuildingBlock: AZAVOO_clean_sbu_0, # of connection points: 4
#     Node 4, Type 0, BuildingBlock: AZAVOO_clean_sbu_0, # of connection points: 4
#     Node 5, Type 0, BuildingBlock: AZAVOO_clean_sbu_0, # of connection points: 4
#     Node 6, Type 0, BuildingBlock: AZAVOO_clean_sbu_0, # of connection points: 4
#     Node 7, Type 0, BuildingBlock: AZAVOO_clean_sbu_0, # of connection points: 4
#     Node 8, Type 0, BuildingBlock: AZAVOO_clean_sbu_0, # of connection points: 4
#     Node 9, Type 0, BuildingBlock: AZAVOO_clean_sbu_0, # of connection points: 4
#     Node 10, Type 0, BuildingBlock: AZAVOO_clean_sbu_0, # of connection points: 4
#     Node 11, Type 0, BuildingBlock: AZAVOO_clean_sbu_0, # of connection points: 4
#     Node 12, Type 0, BuildingBlock: AZAVOO_clean_sbu_0, # of connection points: 4
#     Node 13, Type 0, BuildingBlock: AZAVOO_clean_sbu_0, # of connection points: 4
#     Node 14, Type 0, BuildingBlock: AZAVOO_clean_sbu_0, # of connection points: 4
#     Node 15, Type 0, BuildingBlock: AZAVOO_clean_sbu_0, # of connection points: 4
#     Node 16, Type 0, BuildingBlock: AZAVOO_clean_sbu_0, # of connection points: 4
#     Node 17, Type 0, BuildingBlock: AZAVOO_clean_sbu_0, # of connection points: 4
#     Node 18, Type 0, BuildingBlock: AZAVOO_clean_sbu_0, # of connection points: 4
#     Node 19, Type 0, BuildingBlock: AZAVOO_clean_sbu_0, # of connection points: 4
#     Node 20, Type 0, BuildingBlock: AZAVOO_clean_sbu_0, # of connection points: 4
#     Node 21, Type 0, BuildingBlock: AZAVOO_clean_sbu_0, # of connection points: 4
#     Node 22, Type 0, BuildingBlock: AZAVOO_clean_sbu_0, # of connection points: 4
#     Node 23, Type 0, BuildingBlock: AZAVOO_clean_sbu_0, # of connection points: 4
#     Edge 24, Type (0, 0), BuildingBlock: UVAHIK_clean_linker_0, # of connection points: 2
#     Edge 25, Type (0, 0), BuildingBlock: UVAHIK_clean_linker_0, # of connection points: 2
#     Edge 26, Type (0, 0), BuildingBlock: UVAHIK_clean_linker_0, # of connection points: 2
#     Edge 27, Type (0, 0), BuildingBlock: UVAHIK_clean_linker_0, # of connection points: 2
#     Edge 28, Type (0, 0), BuildingBlock: UVAHIK_clean_linker_0, # of connection points: 2
#     Edge 29, Type (0, 0), BuildingBlock: UVAHIK_clean_linker_0, # of connection points: 2
#     Edge 30, Type (0, 0), BuildingBlock: UVAHIK_clean_linker_0, # of connection points: 2
#     Edge 31, Type (0, 0), BuildingBlock: UVAHIK_clean_linker_0, # of connection points: 2
#     Edge 32, Type (0, 0), BuildingBlock: UVAHIK_clean_linker_0, # of connection points: 2
#     Edge 33, Type (0, 0), BuildingBlock: UVAHIK_clean_linker_0, # of connection points: 2
#     Edge 34, Type (0, 0), BuildingBlock: UVAHIK_clean_linker_0, # of connection points: 2
#     Edge 35, Type (0, 0), BuildingBlock: UVAHIK_clean_linker_0, # of connection points: 2
#     Edge 36, Type (0, 0), BuildingBlock: UVAHIK_clean_linker_0, # of connection points: 2
#     Edge 37, Type (0, 0), BuildingBlock: UVAHIK_clean_linker_0, # of connection points: 2
#     Edge 38, Type (0, 0), BuildingBlock: UVAHIK_clean_linker_0, # of connection points: 2
#     Edge 39, Type (0, 0), BuildingBlock: UVAHIK_clean_linker_0, # of connection points: 2
#     Edge 40, Type (0, 0), BuildingBlock: UVAHIK_clean_linker_0, # of connection points: 2
#     Edge 41, Type (0, 0), BuildingBlock: UVAHIK_clean_linker_0, # of connection points: 2
#     Edge 42, Type (0, 0), BuildingBlock: UVAHIK_clean_linker_0, # of connection points: 2
#     Edge 43, Type (0, 0), BuildingBlock: UVAHIK_clean_linker_0, # of connection points: 2
#     Edge 44, Type (0, 0), BuildingBlock: UVAHIK_clean_linker_0, # of connection points: 2
#     Edge 45, Type (0, 0), BuildingBlock: UVAHIK_clean_linker_0, # of connection points: 2
#     Edge 46, Type (0, 0), BuildingBlock: UVAHIK_clean_linker_0, # of connection points: 2
#     Edge 47, Type (0, 0), BuildingBlock: UVAHIK_clean_linker_0, # of connection points: 2
#     Edge 48, Type (0, 0), BuildingBlock: UVAHIK_clean_linker_0, # of connection points: 2
#     Edge 49, Type (0, 0), BuildingBlock: UVAHIK_clean_linker_0, # of connection points: 2
#     Edge 50, Type (0, 0), BuildingBlock: UVAHIK_clean_linker_0, # of connection points: 2
#     Edge 51, Type (0, 0), BuildingBlock: UVAHIK_clean_linker_0, # of connection points: 2
#     Edge 52, Type (0, 0), BuildingBlock: UVAHIK_clean_linker_0, # of connection points: 2
#     Edge 53, Type (0, 0), BuildingBlock: UVAHIK_clean_linker_0, # of connection points: 2
#     Edge 54, Type (0, 0), BuildingBlock: UVAHIK_clean_linker_0, # of connection points: 2
#     Edge 55, Type (0, 0), BuildingBlock: UVAHIK_clean_linker_0, # of connection points: 2
#     Edge 56, Type (0, 0), BuildingBlock: UVAHIK_clean_linker_0, # of connection points: 2
#     Edge 57, Type (0, 0), BuildingBlock: UVAHIK_clean_linker_0, # of connection points: 2
#     Edge 58, Type (0, 0), BuildingBlock: UVAHIK_clean_linker_0, # of connection points: 2
#     Edge 59, Type (0, 0), BuildingBlock: UVAHIK_clean_linker_0, # of connection points: 2
#     Edge 60, Type (0, 0), BuildingBlock: UVAHIK_clean_linker_0, # of connection points: 2
#     Edge 61, Type (0, 0), BuildingBlock: UVAHIK_clean_linker_0, # of connection points: 2
#     Edge 62, Type (0, 0), BuildingBlock: UVAHIK_clean_linker_0, # of connection points: 2
#     Edge 63, Type (0, 0), BuildingBlock: UVAHIK_clean_linker_0, # of connection points: 2
#     Edge 64, Type (0, 0), BuildingBlock: UVAHIK_clean_linker_0, # of connection points: 2
#     Edge 65, Type (0, 0), BuildingBlock: UVAHIK_clean_linker_0, # of connection points: 2
#     Edge 66, Type (0, 0), BuildingBlock: UVAHIK_clean_linker_0, # of connection points: 2
#     Edge 67, Type (0, 0), BuildingBlock: UVAHIK_clean_linker_0, # of connection points: 2
#     Edge 68, Type (0, 0), BuildingBlock: UVAHIK_clean_linker_0, # of connection points: 2
#     Edge 69, Type (0, 0), BuildingBlock: UVAHIK_clean_linker_0, # of connection points: 2
#     Edge 70, Type (0, 0), BuildingBlock: UVAHIK_clean_linker_0, # of connection points: 2
#     Edge 71, Type (0, 0), BuildingBlock: UVAHIK_clean_linker_0, # of connection points: 2
# Relax obj value: 0.371
# Max RMSD: 0.348
# Mean RMSD: 0.317
data_MOF--net-unv--node1-AZAVOO_clean_sbu_0--edge1-UVAHIK_clean_linker_0
_symmetry_space_group_name_H-M    P1
_symmetry_Int_Tables_number       1
_symmetry_cell_setting            triclinic
loop_
_symmetry_equiv_pos_as_xyz
'x, y, z'
_cell_length_a     62.407391
_cell_length_b     60.637532
_cell_length_c     61.594278
_cell_angle_alpha  90.063445
_cell_angle_beta   89.889898
_cell_angle_gamma 90.049131
loop_
_atom_site_label
_atom_site_type_symbol
_atom_site_fract_x
_atom_site_fract_y
_atom_site_fract_z
_atom_type_partial_charge
Mg0 Mg 0.03674 0.07643 0.34349 0.0
O1 O 0.01058 0.06412 0.36679 0.0
O2 O 0.00776 0.08732 0.39476 0.0
Mg3 Mg 0.03138 0.11542 0.38865 0.0
C4 C 0.00219 0.06972 0.38488 0.0
C5 C 0.02483 0.03107 0.32444 0.0
O6 O 0.03196 0.02562 0.34376 0.0
O7 O 0.01511 0.10325 0.32968 0.0
O8 O 0.01312 0.12611 0.35816 0.0
O9 O 0.0607 0.05846 0.36351 0.0
O10 O 0.05159 0.09328 0.3689 0.0
C11 C 0.00839 0.12094 0.33863 0.0
C12 C 0.06195 0.07613 0.37527 0.0
O13 O 0.02492 0.05126 0.31889 0.0
Mg14 Mg 0.94844 0.37484 0.35874 0.0
O15 O 0.97861 0.39026 0.37345 0.0
O16 O 0.98894 0.37061 0.40215 0.0
Mg17 Mg 0.96572 0.34154 0.40493 0.0
C18 C 0.99118 0.38707 0.38946 0.0
C19 C 0.94104 0.41292 0.32611 0.0
O20 O 0.92462 0.41578 0.33919 0.0
O21 O 0.96714 0.34702 0.34313 0.0
O22 O 0.97648 0.32698 0.37202 0.0
O23 O 0.92944 0.39526 0.38136 0.0
O24 O 0.94051 0.36151 0.38911 0.0
C25 C 0.97615 0.33021 0.35151 0.0
C26 C 0.93154 0.37958 0.39543 0.0
O27 O 0.9535 0.3967 0.32925 0.0
Mg28 Mg 0.97939 0.87694 0.10373 0.0
O29 O 0.95141 0.89626 0.08955 0.0
O30 O 0.94477 0.8839 0.05611 0.0
Mg31 Mg 0.96926 0.8567 0.04885 0.0
C32 C 0.94077 0.89693 0.0719 0.0
C33 C 0.97717 0.88112 0.15439 0.0
O34 O 0.98661 0.86179 0.15321 0.0
O35 O 0.95878 0.84673 0.10905 0.0
O36 O 0.95589 0.83351 0.07535 0.0
O37 O 0.00146 0.9018 0.09021 0.0
O38 O 0.99158 0.87167 0.0725 0.0
C39 C 0.95271 0.83181 0.09581 0.0
C40 C 0.00166 0.89027 0.0725 0.0
O41 O 0.97151 0.89069 0.137 0.0
Mg42 Mg 0.0146 0.61314 0.14131 0.0
O43 O 0.03089 0.58825 0.11807 0.0
O44 O 0.04064 0.60561 0.08742 0.0
Mg45 Mg 0.03546 0.64253 0.09237 0.0
C46 C 0.03876 0.58809 0.09884 0.0
C47 C 0.99764 0.58905 0.18091 0.0
O48 O 0.98399 0.60532 0.17834 0.0
O49 O 0.04706 0.62619 0.15219 0.0
O50 O 0.05787 0.6387 0.12157 0.0
O51 O 0.98416 0.60772 0.12393 0.0
O52 O 0.00762 0.63293 0.11353 0.0
C53 C 0.0498 0.64284 0.14007 0.0
C54 C 0.99011 0.62229 0.1098 0.0
O55 O 0.01364 0.58776 0.16821 0.0
Mg56 Mg 0.38001 0.97614 0.10785 0.0
O57 O 0.39435 0.94561 0.0917 0.0
O58 O 0.42054 0.93251 0.11271 0.0
Mg59 Mg 0.421 0.95355 0.14367 0.0
C60 C 0.40936 0.93187 0.0954 0.0
C61 C 0.35073 0.99319 0.07194 0.0
O62 O 0.36331 0.01012 0.07581 0.0
O63 O 0.36091 0.95531 0.13131 0.0
O64 O 0.38649 0.94353 0.15376 0.0
O65 O 0.40505 0.9966 0.09242 0.0
O66 O 0.40856 0.98184 0.12502 0.0
C67 C 0.36676 0.94488 0.14824 0.0
C68 C 0.41683 0.99307 0.10933 0.0
O69 O 0.35308 0.97576 0.08311 0.0
Mg70 Mg 0.66114 0.52215 0.10363 0.0
O71 O 0.62553 0.5316 0.0989 0.0
O72 O 0.60756 0.50058 0.09137 0.0
Mg73 Mg 0.63019 0.47158 0.09542 0.0
C74 C 0.6083 0.52151 0.09355 0.0
C75 C 0.68261 0.56961 0.10822 0.0
O76 O 0.68398 0.58987 0.11567 0.0
O77 O 0.65419 0.51026 0.13822 0.0
O78 O 0.63434 0.48045 0.1313 0.0
O79 O 0.66367 0.52493 0.06779 0.0
O80 O 0.65604 0.49384 0.08498 0.0
C81 C 0.64293 0.49392 0.14463 0.0
C82 C 0.65639 0.50495 0.06713 0.0
O83 O 0.6683 0.55686 0.11596 0.0
Mg84 Mg 0.35856 0.96357 0.38274 0.0
O85 O 0.36413 0.0 0.39022 0.0
O86 O 0.38588 0.01465 0.36531 0.0
Mg87 Mg 0.39116 0.98816 0.33946 0.0
C88 C 0.37501 0.01613 0.3828 0.0
C89 C 0.31821 0.97656 0.41125 0.0
O90 O 0.31516 0.99083 0.39553 0.0
O91 O 0.33384 0.9713 0.35662 0.0
O92 O 0.35531 0.98586 0.33132 0.0
O93 O 0.38922 0.95628 0.39967 0.0
O94 O 0.38683 0.96257 0.36439 0.0
C95 C 0.33677 0.97986 0.33792 0.0
C96 C 0.39865 0.95918 0.38115 0.0
O97 O 0.33373 0.96306 0.40997 0.0
Mg98 Mg 0.62472 0.42923 0.38176 0.0
O99 O 0.60317 0.41125 0.40633 0.0
O100 O 0.57042 0.40454 0.39275 0.0
Mg101 Mg 0.57317 0.4117 0.35625 0.0
C102 C 0.58391 0.40426 0.40838 0.0
C103 C 0.66456 0.44416 0.40699 0.0
O104 O 0.66111 0.46102 0.39407 0.0
O105 O 0.63343 0.39652 0.36603 0.0
O106 O 0.6013 0.38777 0.35716 0.0
O107 O 0.60885 0.46045 0.39078 0.0
O108 O 0.59612 0.43875 0.36496 0.0
C109 C 0.61963 0.39449 0.35108 0.0
C110 C 0.59368 0.45585 0.37721 0.0
O111 O 0.65262 0.42727 0.40532 0.0
Mg112 Mg 0.12352 0.35813 0.95801 0.0
O113 O 0.10614 0.38134 0.98201 0.0
O114 O 0.07116 0.37945 0.9742 0.0
Mg115 Mg 0.0657 0.35384 0.94774 0.0
C116 C 0.08674 0.38743 0.98511 0.0
C117 C 0.17072 0.36709 0.96339 0.0
O118 O 0.16666 0.36934 0.94259 0.0
O119 O 0.11345 0.3283 0.9787 0.0
O120 O 0.07849 0.32746 0.97052 0.0
O121 O 0.12349 0.38639 0.93462 0.0
O122 O 0.098 0.36118 0.93629 0.0
C123 C 0.09477 0.31982 0.98042 0.0
C124 C 0.10448 0.37997 0.92916 0.0
O125 O 0.15535 0.36204 0.97604 0.0
Mg126 Mg 0.08519 0.6005 0.54709 0.0
O127 O 0.07446 0.57493 0.52159 0.0
O128 O 0.03859 0.57367 0.5227 0.0
Mg129 Mg 0.02639 0.59706 0.54889 0.0
C130 C 0.05652 0.56745 0.51483 0.0
C131 C 0.13214 0.58556 0.53351 0.0
O132 O 0.12606 0.56713 0.54287 0.0
O133 O 0.07396 0.62905 0.5252 0.0
O134 O 0.03829 0.62535 0.52773 0.0
O135 O 0.08485 0.57356 0.5726 0.0
O136 O 0.05755 0.59536 0.56509 0.0
C137 C 0.05492 0.63504 0.52032 0.0
C138 C 0.06509 0.5791 0.57592 0.0
O139 O 0.11898 0.60152 0.53238 0.0
Mg140 Mg 0.91131 0.85529 0.54628 0.0
O141 O 0.92381 0.88353 0.52433 0.0
O142 O 0.95813 0.88892 0.53326 0.0
Mg143 Mg 0.96841 0.8631 0.55782 0.0
C144 C 0.9415 0.89403 0.52233 0.0
C145 C 0.86347 0.8527 0.54016 0.0
O146 O 0.86658 0.85272 0.56125 0.0
O147 O 0.92766 0.82948 0.52446 0.0
O148 O 0.96205 0.83646 0.53235 0.0
O149 O 0.90538 0.8806 0.57226 0.0
O150 O 0.93521 0.86121 0.56888 0.0
C151 C 0.9477 0.82592 0.52184 0.0
C152 C 0.92483 0.87672 0.57842 0.0
O153 O 0.87973 0.8537 0.5277 0.0
Mg154 Mg 0.39491 0.61697 0.44144 0.0
O155 O 0.40931 0.59488 0.46796 0.0
O156 O 0.44477 0.59309 0.46269 0.0
Mg157 Mg 0.45329 0.61419 0.43332 0.0
C158 C 0.42789 0.58792 0.47325 0.0
C159 C 0.34656 0.61092 0.44821 0.0
O160 O 0.34962 0.60567 0.42774 0.0
O161 O 0.40747 0.64793 0.45935 0.0
O162 O 0.44269 0.644 0.4531 0.0
O163 O 0.39327 0.58704 0.41984 0.0
O164 O 0.42069 0.61005 0.42097 0.0
C165 C 0.42691 0.65435 0.46144 0.0
C166 C 0.41256 0.59198 0.41384 0.0
O167 O 0.36261 0.61711 0.4594 0.0
Mg168 Mg 0.48112 0.63078 0.89694 0.0
O169 O 0.44864 0.61429 0.89892 0.0
O170 O 0.42949 0.62781 0.92639 0.0
Mg171 Mg 0.45084 0.65443 0.94197 0.0
C172 C 0.43163 0.61466 0.91034 0.0
C173 C 0.50325 0.60641 0.85896 0.0
O174 O 0.51938 0.60888 0.87243 0.0
O175 O 0.46634 0.66142 0.88262 0.0
O176 O 0.44994 0.67649 0.91128 0.0
O177 O 0.49378 0.60574 0.91934 0.0
O178 O 0.48041 0.63772 0.93036 0.0
C179 C 0.45565 0.67702 0.89131 0.0
C180 C 0.48829 0.61866 0.93515 0.0
O181 O 0.48526 0.61487 0.86383 0.0
Mg182 Mg 0.51531 0.90541 0.85691 0.0
O183 O 0.53367 0.92632 0.8823 0.0
O184 O 0.54245 0.90545 0.91105 0.0
Mg185 Mg 0.53641 0.86981 0.90116 0.0
C186 C 0.54147 0.92411 0.90143 0.0
C187 C 0.50031 0.93489 0.81942 0.0
O188 O 0.48559 0.91938 0.81952 0.0
O189 O 0.54622 0.892 0.84243 0.0
O190 O 0.55773 0.87896 0.87252 0.0
O191 O 0.48616 0.91061 0.87628 0.0
O192 O 0.50813 0.88269 0.88256 0.0
C193 C 0.5505 0.87511 0.85368 0.0
C194 C 0.49175 0.89426 0.88852 0.0
O195 O 0.51548 0.93389 0.83309 0.0
Mg196 Mg 0.50233 0.39838 0.66554 0.0
O197 O 0.47941 0.41888 0.64376 0.0
O198 O 0.46792 0.3988 0.61538 0.0
Mg199 Mg 0.4751 0.36348 0.6249 0.0
C200 C 0.46959 0.4171 0.62557 0.0
C201 C 0.5056 0.42497 0.70941 0.0
O202 O 0.50587 0.40502 0.71771 0.0
O203 O 0.47585 0.38214 0.68573 0.0
O204 O 0.45947 0.37479 0.65608 0.0
O205 O 0.52719 0.40534 0.64133 0.0
O206 O 0.50614 0.37597 0.63883 0.0
C207 C 0.46694 0.36777 0.67384 0.0
C208 C 0.52052 0.38858 0.63018 0.0
O209 O 0.50434 0.42728 0.68896 0.0
Mg210 Mg 0.48376 0.11394 0.60481 0.0
O211 O 0.51159 0.09594 0.58856 0.0
O212 O 0.5191 0.11224 0.55703 0.0
Mg213 Mg 0.49591 0.14142 0.55358 0.0
C214 C 0.52247 0.09715 0.57106 0.0
C215 C 0.48168 0.09957 0.6536 0.0
O216 O 0.46738 0.11544 0.65422 0.0
O217 O 0.505 0.14245 0.61462 0.0
O218 O 0.50992 0.16006 0.58319 0.0
O219 O 0.46131 0.09211 0.58728 0.0
O220 O 0.47236 0.12432 0.57457 0.0
C221 C 0.51236 0.15869 0.60377 0.0
C222 C 0.46173 0.10632 0.5716 0.0
O223 O 0.49127 0.09545 0.63586 0.0
Mg224 Mg 0.82918 0.46945 0.63206 0.0
O225 O 0.84891 0.4447 0.6121 0.0
O226 O 0.88018 0.43609 0.62789 0.0
Mg227 Mg 0.87574 0.44777 0.663 0.0
C228 C 0.86722 0.43523 0.61184 0.0
C229 C 0.80186 0.4801 0.59102 0.0
O230 O 0.81572 0.49639 0.5902 0.0
O231 O 0.81369 0.44211 0.65201 0.0
O232 O 0.84442 0.42903 0.66064 0.0
O233 O 0.85057 0.4956 0.6197 0.0
O234 O 0.85824 0.47702 0.64955 0.0
C235 C 0.82696 0.43766 0.6669 0.0
C236 C 0.86416 0.49094 0.63484 0.0
O237 O 0.8026 0.4667 0.60685 0.0
Mg238 Mg 0.14747 0.01473 0.62703 0.0
O239 O 0.13497 0.03692 0.60018 0.0
O240 O 0.10384 0.05189 0.61018 0.0
Mg241 Mg 0.09689 0.03994 0.64465 0.0
C242 C 0.11881 0.04912 0.59632 0.0
C243 C 0.18403 0.9937 0.60081 0.0
O244 O 0.17224 0.97657 0.60613 0.0
O245 O 0.1584 0.04452 0.64662 0.0
O246 O 0.12681 0.05735 0.6581 0.0
O247 O 0.12816 0.98718 0.61356 0.0
O248 O 0.11611 0.01004 0.63869 0.0
C249 C 0.14729 0.05812 0.65779 0.0
C250 C 0.11246 0.99393 0.62557 0.0
O251 O 0.17895 0.01255 0.60828 0.0
Mg252 Mg 0.87406 0.51851 0.91017 0.0
O253 O 0.88799 0.55192 0.92015 0.0
O254 O 0.91616 0.55952 0.89905 0.0
Mg255 Mg 0.91926 0.53177 0.87417 0.0
C256 C 0.90361 0.56434 0.91471 0.0
C257 C 0.83842 0.511 0.94507 0.0
O258 O 0.84829 0.49189 0.94574 0.0
O259 O 0.858 0.53308 0.8802 0.0
O260 O 0.88649 0.53887 0.85892 0.0
O261 O 0.89778 0.50159 0.93178 0.0
O262 O 0.90372 0.50901 0.89723 0.0
C263 C 0.86625 0.53896 0.8621 0.0
C264 C 0.91075 0.5014 0.91534 0.0
O265 O 0.84489 0.52551 0.93167 0.0
Mg266 Mg 0.1574 0.00805 0.87203 0.0
O267 O 0.1319 0.98849 0.89115 0.0
O268 O 0.10116 0.98776 0.87221 0.0
Mg269 Mg 0.1074 0.00318 0.83899 0.0
C270 C 0.11212 0.98317 0.88915 0.0
C271 C 0.19889 0.01132 0.89763 0.0
O272 O 0.199 0.02939 0.88587 0.0
O273 O 0.1633 0.97798 0.85091 0.0
O274 O 0.13282 0.97643 0.83501 0.0
O275 O 0.14478 0.03886 0.88627 0.0
O276 O 0.13133 0.0244 0.8563 0.0
C277 C 0.15238 0.98216 0.83412 0.0
C278 C 0.1299 0.03886 0.87166 0.0
O279 O 0.1835 -0.00221 0.89539 0.0
Mg280 Mg 0.60236 0.85779 0.44666 0.0
O281 O 0.59183 0.88616 0.4695 0.0
O282 O 0.55877 0.89595 0.45935 0.0
Mg283 Mg 0.54784 0.87411 0.43149 0.0
C284 C 0.57515 0.89826 0.47151 0.0
C285 C 0.64834 0.84686 0.45579 0.0
O286 O 0.64597 0.84549 0.43463 0.0
O287 O 0.58101 0.83296 0.46523 0.0
O288 O 0.54867 0.84493 0.4548 0.0
O289 O 0.61385 0.88357 0.42327 0.0
O290 O 0.58145 0.86873 0.4229 0.0
C291 C 0.56052 0.83185 0.46566 0.0
C292 C 0.59462 0.8832 0.41551 0.0
O293 O 0.63196 0.85125 0.46734 0.0
Mg294 Mg 0.60238 0.15351 0.05892 0.0
O295 O 0.59072 0.12242 0.04091 0.0
O296 O 0.55702 0.11537 0.05127 0.0
Mg297 Mg 0.5459 0.14371 0.07266 0.0
C298 C 0.57381 0.11049 0.04041 0.0
C299 C 0.65033 0.15124 0.05021 0.0
O300 O 0.64853 0.14971 0.07141 0.0
O301 O 0.58434 0.17458 0.03383 0.0
O302 O 0.55067 0.16564 0.04295 0.0
O303 O 0.60995 0.13172 0.08728 0.0
O304 O 0.57906 0.14882 0.08277 0.0
C305 C 0.5641 0.17552 0.0307 0.0
C306 C 0.59026 0.13457 0.09319 0.0
O307 O 0.6334 0.15349 0.03897 0.0
Mg308 Mg 0.44036 0.38235 0.98227 0.0
O309 O 0.4248 0.40247 0.95547 0.0
O310 O 0.44822 0.40807 0.92875 0.0
Mg311 Mg 0.47995 0.39249 0.93933 0.0
C312 C 0.42961 0.4105 0.93701 0.0
C313 C 0.39473 0.39147 0.00049 0.0
O314 O 0.403 0.4114 0.00065 0.0
O315 O 0.44032 0.35075 0.96212 0.0
O316 O 0.46687 0.35722 0.93861 0.0
O317 O 0.45176 0.41354 -0.00163 0.0
O318 O 0.47046 0.39512 0.97396 0.0
C319 C 0.45295 0.34434 0.94703 0.0
C320 C 0.46886 0.41199 0.98653 0.0
O321 O 0.40653 0.37534 0.99486 0.0
Mg322 Mg 0.91773 0.15867 0.987 0.0
O323 O 0.91656 0.12442 0.00423 0.0
O324 O 0.94986 0.11149 0.00968 0.0
Mg325 Mg 0.97024 0.14231 0.00756 0.0
C326 C 0.92951 0.10903 0.00979 0.0
C327 C 0.86962 0.14489 0.98198 0.0
O328 O 0.8789 0.12749 0.97342 0.0
O329 O 0.92191 0.18016 0.01789 0.0
O330 O 0.94258 0.15382 0.02807 0.0
O331 O 0.92616 0.14061 0.95634 0.0
O332 O 0.95047 0.15324 0.97925 0.0
C333 C 0.93771 0.17397 0.02933 0.0
C334 C 0.94612 0.14242 0.96182 0.0
O335 O 0.88123 0.16067 0.98882 0.0
C336 C 0.09642 0.06587 0.56699 0.0
C337 C 0.11647 0.05845 0.57429 0.0
C338 C 0.09345 0.07146 0.54523 0.0
C339 C 0.09221 0.08911 0.49933 0.0
H340 H 0.11866 0.04882 0.45834 0.0
C341 C 0.0764 0.0959 0.40762 0.0
C342 C 0.07246 0.07597 0.39668 0.0
C343 C 0.08468 0.09585 0.42864 0.0
C344 C 0.1111 0.06016 0.46957 0.0
H345 H 0.14953 0.05269 0.56485 0.0
H346 H 0.14445 0.06301 0.52703 0.0
H347 H 0.12726 0.04603 0.49671 0.0
H348 H 0.07461 0.04037 0.39888 0.0
H349 H 0.08863 0.0402 0.43577 0.0
H350 H 0.07513 0.10241 0.47233 0.0
C351 C 0.13087 0.06387 0.53796 0.0
C352 C 0.11627 0.0588 0.49156 0.0
C353 C 0.1338 0.05808 0.55968 0.0
C354 C 0.07757 0.05599 0.40689 0.0
C355 C 0.0857 0.05592 0.428 0.0
C356 C 0.08693 0.09038 0.47735 0.0
C357 C 0.11051 0.06997 0.53034 0.0
C358 C 0.10664 0.07303 0.50675 0.0
C359 C 0.08906 0.07585 0.43924 0.0
C360 C 0.09606 0.07569 0.46226 0.0
H361 H 0.08273 0.0663 0.57782 0.0
H362 H 0.0775 0.07588 0.5399 0.0
H363 H 0.0847 0.1005 0.51056 0.0
H364 H 0.07287 0.11158 0.40003 0.0
H365 H 0.08747 0.11149 0.43666 0.0
C366 C 0.92589 0.36568 0.43336 0.0
C367 C 0.92544 0.38311 0.41835 0.0
C368 C 0.91985 0.36921 0.45498 0.0
C369 C 0.8884 0.40762 0.48887 0.0
H370 H 0.91948 0.38148 0.53683 0.0
C371 C 0.85853 0.41854 0.57587 0.0
C372 C 0.87395 0.42426 0.59149 0.0
C373 C 0.86477 0.4106 0.55558 0.0
C374 C 0.9107 0.38895 0.5236 0.0
H375 H 0.91877 0.41797 0.41429 0.0
H376 H 0.90858 0.42417 0.45189 0.0
H377 H 0.93098 0.37416 0.49954 0.0
H378 H 0.90799 0.42519 0.59844 0.0
H379 H 0.91895 0.41176 0.56272 0.0
H380 H 0.86861 0.42305 0.51269 0.0
C381 C 0.91316 0.40768 0.44695 0.0
C382 C 0.91715 0.38458 0.50225 0.0
C383 C 0.9191 0.40415 0.4254 0.0
C384 C 0.89573 0.42089 0.58674 0.0
C385 C 0.902 0.41312 0.5663 0.0
C386 C 0.88202 0.41202 0.51012 0.0
C387 C 0.91327 0.39023 0.46196 0.0
C388 C 0.90616 0.39405 0.48466 0.0
C389 C 0.88658 0.40842 0.55031 0.0
C390 C 0.89311 0.40281 0.52776 0.0
H391 H 0.93062 0.34926 0.42838 0.0
H392 H 0.91993 0.35539 0.4661 0.0
H393 H 0.87939 0.41491 0.4757 0.0
H394 H 0.84159 0.42064 0.57914 0.0
H395 H 0.85246 0.4066 0.54384 0.0
C396 C 0.02047 0.92031 0.05246 0.0
C397 C 0.01248 0.89866 0.05286 0.0
C398 C 0.03142 0.92817 0.0343 0.0
C399 C 0.04041 0.91787 0.97589 0.0
H400 H 0.08966 0.95572 0.98535 0.0
C401 C 0.07896 0.96882 0.90724 0.0
C402 C 0.10134 0.97156 0.90726 0.0
C403 C 0.06865 0.95845 0.92457 0.0
C404 C 0.07612 0.94495 0.98239 0.0
H405 H 0.00954 0.86828 0.03449 0.0
H406 H 0.02902 0.88192 0.0028 0.0
H407 H 0.07082 0.94016 0.01633 0.0
H408 H 0.13047 0.96503 0.92532 0.0
H409 H 0.1125 0.94656 0.95538 0.0
H410 H 0.04603 0.92232 0.9419 0.0
C411 C 0.02653 0.89292 0.01644 0.0
C412 C 0.06512 0.93628 0.00017 0.0
C413 C 0.01544 0.88508 0.03461 0.0
C414 C 0.1132 0.96335 0.92486 0.0
C415 C 0.10288 0.95285 0.94214 0.0
C416 C 0.0515 0.92647 0.95808 0.0
C417 C 0.03479 0.91452 0.01616 0.0
C418 C 0.04698 0.92286 0.99715 0.0
C419 C 0.08047 0.95044 0.94228 0.0
C420 C 0.06935 0.9403 0.96113 0.0
H421 H 0.0183 0.93124 0.06621 0.0
H422 H 0.03716 0.94503 0.03445 0.0
H423 H 0.02643 0.9077 0.973 0.0
H424 H 0.0693 0.97503 0.89401 0.0
H425 H 0.05134 0.9572 0.92431 0.0
C426 C 0.96281 0.60897 0.0835 0.0
C427 C 0.97828 0.62472 0.0892 0.0
C428 C 0.95214 0.61033 0.06372 0.0
C429 C 0.95735 0.63373 0.00871 0.0
H430 H 0.90113 0.6071 0.00373 0.0
C431 C 0.93103 0.58814 0.93241 0.0
C432 C 0.90938 0.58273 0.92931 0.0
C433 C 0.93723 0.60134 0.94989 0.0
C434 C 0.91658 0.61517 0.00457 0.0
H435 H 0.99425 0.65473 0.07899 0.0
H436 H 0.97513 0.65745 0.04441 0.0
H437 H 0.91526 0.61556 0.03917 0.0
H438 H 0.87701 0.589 0.94039 0.0
H439 H 0.88762 0.61329 0.97004 0.0
H440 H 0.95842 0.63389 0.97403 0.0
C441 C 0.97159 0.64376 0.05509 0.0
C442 C 0.9249 0.61963 0.0251 0.0
C443 C 0.98251 0.64224 0.0749 0.0
C444 C 0.89386 0.59265 0.94263 0.0
C445 C 0.90001 0.60638 0.95977 0.0
C446 C 0.9488 0.62975 0.98809 0.0
C447 C 0.95637 0.62768 0.04918 0.0
C448 C 0.94586 0.6278 0.02748 0.0
C449 C 0.92187 0.60988 0.96442 0.0
C450 C 0.92875 0.6193 0.98574 0.0
H451 H 0.95928 0.59517 0.09408 0.0
H452 H 0.94102 0.59726 0.0596 0.0
H453 H 0.97348 0.64021 0.00984 0.0
H454 H 0.94339 0.58068 0.92245 0.0
H455 H 0.95421 0.60333 0.95281 0.0
C456 C 0.44684 0.01474 0.09327 0.0
C457 C 0.43856 0.00265 0.11082 0.0
C458 C 0.46584 0.0266 0.09545 0.0
C459 C 0.51498 0.0348 0.12668 0.0
H460 H 0.50793 0.09532 0.10768 0.0
C461 C 0.56074 0.12482 0.11832 0.0
C462 C 0.57898 0.11825 0.10667 0.0
C463 C 0.54581 0.1092 0.1252 0.0
C464 C 0.51014 0.0786 0.11344 0.0
H465 H 0.44446 0.99234 0.144 0.0
H466 H 0.47794 0.01319 0.14774 0.0
H467 H 0.47789 0.07005 0.10559 0.0
H468 H 0.59707 0.09021 0.09488 0.0
H469 H 0.5707 0.06284 0.10653 0.0
H470 H 0.54757 0.04349 0.13406 0.0
C471 C 0.46958 0.01343 0.13235 0.0
C472 C 0.49298 0.06404 0.11193 0.0
C473 C 0.45041 0.00157 0.1302 0.0
C474 C 0.5832 0.09566 0.10401 0.0
C475 C 0.56806 0.07999 0.11066 0.0
C476 C 0.53236 0.04943 0.12801 0.0
C477 C 0.47704 0.02662 0.1152 0.0
C478 C 0.49528 0.04193 0.11818 0.0
C479 C 0.54865 0.08677 0.12019 0.0
C480 C 0.53011 0.07147 0.12124 0.0
H481 H 0.43824 0.01574 0.07804 0.0
H482 H 0.47146 0.03635 0.08184 0.0
H483 H 0.5171 0.01781 0.13163 0.0
H484 H 0.55722 0.14216 0.12063 0.0
H485 H 0.53122 0.11487 0.13297 0.0
C486 C 0.63074 0.51363 0.03733 0.0
C487 C 0.64242 0.49787 0.04913 0.0
C488 C 0.61306 0.50723 0.02491 0.0
C489 C 0.5675 0.49062 0.01787 0.0
H490 H 0.56401 0.43488 0.98728 0.0
C491 C 0.48875 0.44156 0.00666 0.0
C492 C 0.4867 0.42799 0.98827 0.0
C493 C 0.50754 0.45372 0.01006 0.0
C494 C 0.56467 0.4507 0.99542 0.0
H495 H 0.64601 0.46301 0.05568 0.0
H496 H 0.6154 0.45177 0.03391 0.0
H497 H 0.59873 0.44878 -0.00136 0.0
H498 H 0.50202 0.41812 0.95816 0.0
H499 H 0.53424 0.4397 0.9637 0.0
H500 H 0.53335 0.49239 0.01484 0.0
C501 C 0.61973 0.46906 0.03423 0.0
C502 C 0.5846 0.45854 0.00215 0.0
C503 C 0.63729 0.47548 0.04674 0.0
C504 C 0.50312 0.42811 0.97264 0.0
C505 C 0.52172 0.44042 0.97589 0.0
C506 C 0.54751 0.48278 0.01111 0.0
C507 C 0.60692 0.48494 0.02386 0.0
C508 C 0.58622 0.47832 0.0139 0.0
C509 C 0.52454 0.45269 0.99502 0.0
C510 C 0.54581 0.46249 0.00018 0.0
H511 H 0.6342 0.53106 0.03901 0.0
H512 H 0.60367 0.51981 0.01687 0.0
H513 H 0.56817 0.50585 0.02703 0.0
H514 H 0.47639 0.4418 0.01902 0.0
H515 H 0.50919 0.46291 0.02505 0.0
C516 C 0.57896 0.92035 0.41435 0.0
C517 C 0.58596 0.90165 0.40306 0.0
C518 C 0.56315 0.93386 0.40548 0.0
C519 C 0.51826 0.92562 0.36739 0.0
H520 H 0.50057 0.98189 0.39135 0.0
C521 C 0.43202 0.95702 0.35886 0.0
C522 C 0.42221 0.9596 0.37927 0.0
C523 C 0.45428 0.95567 0.35712 0.0
C524 C 0.50544 0.96628 0.38434 0.0
H525 H 0.58431 0.88369 0.37281 0.0
H526 H 0.55822 0.90842 0.35627 0.0
H527 H 0.53803 0.97054 0.39415 0.0
H528 H 0.42799 0.9641 0.41369 0.0
H529 H 0.46704 0.96198 0.41058 0.0
H530 H 0.48564 0.92142 0.35772 0.0
C531 C 0.56384 0.9121 0.37249 0.0
C532 C 0.52685 0.95966 0.38604 0.0
C533 C 0.5791 0.89815 0.38173 0.0
C534 C 0.43512 0.96192 0.39778 0.0
C535 C 0.45743 0.96095 0.39598 0.0
C536 C 0.49707 0.93248 0.36526 0.0
C537 C 0.55441 0.92908 0.38491 0.0
C538 C 0.53336 0.93876 0.37845 0.0
C539 C 0.46715 0.95731 0.37571 0.0
C540 C 0.49031 0.95244 0.37445 0.0
H541 H 0.584 0.92318 0.43095 0.0
H542 H 0.55647 0.94662 0.41572 0.0
H543 H 0.52224 0.90926 0.36165 0.0
H544 H 0.42246 0.95522 0.3443 0.0
H545 H 0.46145 0.9528 0.34133 0.0
C546 C 0.42542 0.55349 0.40691 0.0
C547 C 0.4265 0.57616 0.40242 0.0
C548 C 0.44172 0.53935 0.3997 0.0
C549 C 0.4768 0.51126 0.37847 0.0
H550 H 0.53283 0.53809 0.38519 0.0
C551 C 0.5572 0.46478 0.36223 0.0
C552 C 0.57355 0.46872 0.37743 0.0
C553 C 0.53826 0.47719 0.36276 0.0
C554 C 0.51733 0.53028 0.3833 0.0
H555 H 0.44414 0.60156 0.38536 0.0
H556 H 0.47189 0.57689 0.37191 0.0
H557 H 0.50102 0.56041 0.38979 0.0
H558 H 0.58269 0.4885 0.4053 0.0
H559 H 0.54984 0.5098 0.40637 0.0
H560 H 0.49347 0.4808 0.37299 0.0
C561 C 0.45908 0.57003 0.38168 0.0
C562 C 0.49901 0.54319 0.3856 0.0
C563 C 0.44308 0.58415 0.3892 0.0
C564 C 0.57052 0.48515 0.39322 0.0
C565 C 0.55169 0.49746 0.39377 0.0
C566 C 0.49525 0.49826 0.37623 0.0
C567 C 0.45917 0.54766 0.38767 0.0
C568 C 0.47847 0.53386 0.38343 0.0
C569 C 0.53539 0.4938 0.37846 0.0
C570 C 0.51571 0.5076 0.379 0.0
H571 H 0.41285 0.54698 0.41724 0.0
H572 H 0.44129 0.52225 0.40472 0.0
H573 H 0.46126 0.50357 0.37652 0.0
H574 H 0.55909 0.45227 0.34981 0.0
H575 H 0.52605 0.47407 0.35067 0.0
C576 C 0.061 0.41329 0.00309 0.0
C577 C 0.08212 0.40557 0.00059 0.0
C578 C 0.0567 0.43188 0.01571 0.0
C579 C 0.05565 0.48008 0.02797 0.0
H580 H 0.08084 0.49189 0.08432 0.0
C581 C 0.05163 0.56581 0.06714 0.0
C582 C 0.04535 0.56678 0.08906 0.0
C583 C 0.05687 0.5457 0.0575 0.0
C584 C 0.07363 0.48873 0.06863 0.0
H585 H 0.11516 0.41083 0.0103 0.0
H586 H 0.10753 0.44341 0.03243 0.0
H587 H 0.08812 0.45675 0.06601 0.0
H588 H 0.04024 0.5473 0.11817 0.0
H589 H 0.04946 0.51209 0.10122 0.0
H590 H 0.04114 0.5119 0.03047 0.0
C591 C 0.09436 0.43496 0.02458 0.0
C592 C 0.07792 0.46873 0.05811 0.0
C593 C 0.09871 0.41635 0.01184 0.0
C594 C 0.04494 0.54716 0.10125 0.0
C595 C 0.05034 0.52701 0.09159 0.0
C596 C 0.05151 0.50006 0.03836 0.0
C597 C 0.07337 0.44319 0.02621 0.0
C598 C 0.0689 0.4642 0.03769 0.0
C599 C 0.05607 0.52606 0.06953 0.0
C600 C 0.06048 0.50464 0.05878 0.0
H601 H 0.04777 0.40538 0.99482 0.0
H602 H 0.04031 0.43762 0.01697 0.0
H603 H 0.04867 0.47718 0.01212 0.0
H604 H 0.05221 0.58056 0.05725 0.0
H605 H 0.06151 0.54551 0.04054 0.0
C606 C 0.00505 0.4256 0.38544 0.0
C607 C 0.00641 0.40484 0.39553 0.0
C608 C 0.01551 0.44385 0.39432 0.0
C609 C 0.05563 0.4641 0.43302 0.0
H610 H 0.01197 0.5069 0.44813 0.0
C611 C 0.0685 0.53176 0.4985 0.0
C612 C 0.05615 0.55103 0.49726 0.0
C613 C 0.06568 0.51486 0.48324 0.0
C614 C 0.02463 0.49558 0.44365 0.0
H615 H 0.0217 0.38659 0.42154 0.0
H616 H 0.04019 0.41855 0.43685 0.0
H617 H 0.00277 0.47579 0.42539 0.0
H618 H 0.03255 0.56872 0.47844 0.0
H619 H 0.02869 0.54016 0.45099 0.0
H620 H 0.07761 0.48406 0.4511 0.0
C621 C 0.03083 0.42063 0.4222 0.0
C622 C 0.01924 0.4776 0.43066 0.0
C623 C 0.02015 0.40236 0.41346 0.0
C624 C 0.04202 0.55381 0.47985 0.0
C625 C 0.03968 0.53729 0.46426 0.0
C626 C 0.06119 0.48244 0.44571 0.0
C627 C 0.02779 0.44168 0.41327 0.0
C628 C 0.03458 0.46158 0.42539 0.0
C629 C 0.05082 0.51719 0.46617 0.0
C630 C 0.04567 0.49834 0.45141 0.0
H631 H 0.99476 0.42815 0.37152 0.0
H632 H 0.0131 0.45991 0.38704 0.0
H633 H 0.06772 0.4519 0.42918 0.0
H634 H 0.07944 0.52929 0.51192 0.0
H635 H 0.07445 0.49964 0.48547 0.0
C636 C 0.92594 0.91885 0.49349 0.0
C637 C 0.94298 0.91309 0.5073 0.0
C638 C 0.92768 0.9371 0.47961 0.0
C639 C 0.94272 0.96841 0.44301 0.0
H640 H 0.9714 0.02046 0.4653 0.0
C641 C 0.98576 0.03215 0.38877 0.0
C642 C 0.98755 0.05409 0.396 0.0
C643 C 0.97511 0.01639 0.40136 0.0
C644 C 0.96299 0.00629 0.45881 0.0
H645 H 0.97524 0.92208 0.51721 0.0
H646 H 0.97821 0.95349 0.49316 0.0
H647 H 0.96277 0.99036 0.48974 0.0
H648 H 0.97783 0.07704 0.42121 0.0
H649 H 0.95886 0.04969 0.44287 0.0
H650 H 0.94318 0.98436 0.41196 0.0
C651 C 0.96341 0.94415 0.49317 0.0
C652 C 0.9583 0.98888 0.47282 0.0
C653 C 0.96174 0.92596 0.50687 0.0
C654 C 0.97704 0.06023 0.41529 0.0
C655 C 0.96625 0.04451 0.42779 0.0
C656 C 0.94743 0.9859 0.42893 0.0
C657 C 0.9464 0.95004 0.47946 0.0
C658 C 0.94866 0.9695 0.46499 0.0
C659 C 0.96586 0.02223 0.4214 0.0
C660 C 0.95807 0.00486 0.43658 0.0
H661 H 0.91127 0.90929 0.49339 0.0
H662 H 0.91429 0.94128 0.46925 0.0
H663 H 0.9353 0.95368 0.4365 0.0
H664 H 0.99361 0.02682 0.37397 0.0
H665 H 0.97528 -0.00061 0.39597 0.0
C666 C 0.41377 0.55813 0.49746 0.0
C667 C 0.43005 0.57317 0.49214 0.0
C668 C 0.41658 0.54316 0.51447 0.0
C669 C 0.46001 0.51821 0.54788 0.0
H670 H 0.41213 0.49457 0.58069 0.0
C671 C 0.47138 0.45771 0.61882 0.0
C672 C 0.46153 0.43724 0.6149 0.0
C673 C 0.4659 0.47614 0.60642 0.0
C674 C 0.42561 0.50117 0.57167 0.0
H675 H 0.46147 0.58529 0.50109 0.0
H676 H 0.46595 0.56016 0.53146 0.0
H677 H 0.40596 0.52398 0.55432 0.0
H678 H 0.43729 0.42033 0.59595 0.0
H679 H 0.42732 0.45279 0.5747 0.0
H680 H 0.47963 0.49564 0.56566 0.0
C681 C 0.4514 0.55905 0.52198 0.0
C682 C 0.42211 0.51786 0.55642 0.0
C683 C 0.4488 0.57361 0.50466 0.0
C684 C 0.44521 0.43587 0.59925 0.0
C685 C 0.43942 0.45442 0.58718 0.0
C686 C 0.46353 0.50191 0.56342 0.0
C687 C 0.43555 0.54326 0.52685 0.0
C688 C 0.43924 0.52642 0.54409 0.0
C689 C 0.45015 0.47452 0.59026 0.0
C690 C 0.44635 0.49308 0.57525 0.0
H691 H 0.39919 0.5574 0.48796 0.0
H692 H 0.40413 0.53109 0.51741 0.0
H693 H 0.47358 0.52385 0.53842 0.0
H694 H 0.48408 0.45924 0.6307 0.0
H695 H 0.47434 0.49153 0.60906 0.0
C696 C 0.57245 0.52397 0.07573 0.0
C697 C 0.5894 0.5345 0.08662 0.0
C698 C 0.55644 0.53625 0.06566 0.0
C699 C 0.52098 0.5645 0.04814 0.0
H700 H 0.5433 0.61422 0.01566 0.0
C701 C 0.49582 0.62775 0.97403 0.0
C702 C 0.49195 0.61192 0.95783 0.0
C703 C 0.50295 0.62123 0.99458 0.0
C704 C 0.53665 0.60069 0.02497 0.0
H705 H 0.60184 0.56625 0.09688 0.0
H706 H 0.57346 0.58774 0.07979 0.0
H707 H 0.56517 0.5974 0.04373 0.0
H708 H 0.4909 0.57691 0.95078 0.0
H709 H 0.50278 0.56552 0.98675 0.0
H710 H 0.49313 0.56686 0.02793 0.0
C711 C 0.57291 0.56994 0.07853 0.0
C712 C 0.54916 0.59104 0.04115 0.0
C713 C 0.58912 0.55761 0.08847 0.0
C714 C 0.49386 0.58946 0.96295 0.0
C715 C 0.50053 0.58294 0.98357 0.0
C716 C 0.50862 0.57395 0.0317 0.0
C717 C 0.55676 0.55944 0.06636 0.0
C718 C 0.54181 0.5723 0.05243 0.0
C719 C 0.50579 0.59876 -0.00065 0.0
C720 C 0.51664 0.59169 0.01953 0.0
H721 H 0.57213 0.50621 0.07385 0.0
H722 H 0.54455 0.52748 0.05622 0.0
H723 H 0.51454 0.55047 0.05685 0.0
H724 H 0.49452 0.64519 0.97046 0.0
H725 H 0.5069 0.63372 0.00651 0.0
C726 C 0.40054 0.90901 0.06284 0.0
C727 C 0.41581 0.91692 0.07762 0.0
C728 C 0.40702 0.89858 0.04368 0.0
C729 C 0.42347 0.89637 0.99802 0.0
H730 H 0.47998 0.87154 0.9889 0.0
C731 C 0.46677 0.90705 0.91743 0.0
C732 C 0.48117 0.89104 0.90979 0.0
C733 C 0.4573 0.90503 0.9378 0.0
C734 C 0.46397 0.87805 0.99109 0.0
H735 H 0.44973 0.91914 0.0846 0.0
H736 H 0.46114 0.90224 0.05079 0.0
H737 H 0.46582 0.87471 0.02561 0.0
H738 H 0.4966 0.86001 0.91742 0.0
H739 H 0.47956 0.85613 0.9531 0.0
H740 H 0.42134 0.89914 0.96358 0.0
C741 C 0.44413 0.9032 0.05408 0.0
C742 C 0.45595 0.88021 0.01224 0.0
C743 C 0.43761 0.91304 0.07354 0.0
C744 C 0.48562 0.87267 0.92292 0.0
C745 C 0.47592 0.8705 0.94338 0.0
C746 C 0.4313 0.8938 0.97696 0.0
C747 C 0.42894 0.89654 0.03848 0.0
C748 C 0.43592 0.89023 0.01607 0.0
C749 C 0.46168 0.88675 0.9511 0.0
C750 C 0.45202 0.88554 0.97323 0.0
H751 H 0.3836 0.91158 0.06575 0.0
H752 H 0.39477 0.89299 0.03253 0.0
H753 H 0.40808 0.90432 2e-05 0.0
H754 H 0.4631 0.92154 0.90785 0.0
H755 H 0.44693 0.91821 0.94332 0.0
C756 C 0.54031 0.40212 0.59769 0.0
C757 C 0.52751 0.38581 0.60739 0.0
C758 C 0.54661 0.40026 0.57607 0.0
C759 C 0.53297 0.37326 0.52428 0.0
H760 H 0.58917 0.39525 0.50837 0.0
C761 C 0.55546 0.39792 0.43648 0.0
C762 C 0.57698 0.39637 0.42997 0.0
C763 C 0.54946 0.3926 0.45774 0.0
C764 C 0.57356 0.38862 0.51242 0.0
H765 H 0.51138 0.3546 0.60204 0.0
H766 H 0.52275 0.35113 0.56409 0.0
H767 H 0.57933 0.39285 0.5463 0.0
H768 H 0.60883 0.38655 0.44005 0.0
H769 H 0.59831 0.37641 0.47673 0.0
H770 H 0.52739 0.36868 0.49027 0.0
C771 C 0.52764 0.36553 0.57324 0.0
C772 C 0.56778 0.38759 0.53426 0.0
C773 C 0.52122 0.36746 0.59498 0.0
C774 C 0.59217 0.38826 0.44472 0.0
C775 C 0.58613 0.38256 0.4658 0.0
C776 C 0.53884 0.37409 0.50234 0.0
C777 C 0.54045 0.38193 0.56356 0.0
C778 C 0.54724 0.38045 0.54045 0.0
C779 C 0.56482 0.38528 0.47282 0.0
C780 C 0.55908 0.38221 0.49611 0.0
H781 H 0.5453 0.41659 0.6067 0.0
H782 H 0.55603 0.41347 0.56906 0.0
H783 H 0.51699 0.36773 0.52849 0.0
H784 H 0.54341 0.40418 0.42545 0.0
H785 H 0.53296 0.39515 0.46256 0.0
C786 C 0.44355 0.08023 0.54631 0.0
C787 C 0.45095 0.10161 0.55079 0.0
C788 C 0.43271 0.07573 0.52703 0.0
C789 C 0.42286 0.09701 0.4716 0.0
H790 H 0.37845 0.05235 0.47337 0.0
C791 C 0.398 0.04646 0.39707 0.0
C792 C 0.37823 0.03539 0.39713 0.0
C793 C 0.40361 0.06028 0.41431 0.0
C794 C 0.39041 0.06526 0.47246 0.0
H795 H 0.4529 0.13507 0.53857 0.0
H796 H 0.43345 0.12733 0.50501 0.0
H797 H 0.39448 0.0649 0.50683 0.0
H798 H 0.34778 0.03217 0.41377 0.0
H799 H 0.35701 0.0573 0.4432 0.0
H800 H 0.41842 0.09764 0.43716 0.0
C801 C 0.43635 0.11394 0.51624 0.0
C802 C 0.39996 0.07214 0.49175 0.0
C803 C 0.44745 0.1184 0.53549 0.0
C804 C 0.36326 0.04027 0.41348 0.0
C805 C 0.36868 0.0545 0.43047 0.0
C806 C 0.41306 0.09033 0.45225 0.0
C807 C 0.42871 0.09256 0.51186 0.0
C808 C 0.41682 0.08751 0.49152 0.0
C809 C 0.38939 0.06365 0.43177 0.0
C810 C 0.39716 0.07384 0.45236 0.0
H811 H 0.44619 0.06689 0.55767 0.0
H812 H 0.42763 0.05894 0.52397 0.0
H813 H 0.43578 0.10891 0.47079 0.0
H814 H 0.40992 0.04296 0.38473 0.0
H815 H 0.41973 0.06686 0.41466 0.0
C816 C 0.04578 0.54449 0.58623 0.0
C817 C 0.05055 0.56673 0.59022 0.0
C818 C 0.02779 0.53472 0.59601 0.0
C819 C 0.97526 0.55292 0.61622 0.0
H820 H 0.96692 0.4914 0.63107 0.0
C821 C 0.90235 0.4928 0.64819 0.0
C822 C 0.88644 0.49933 0.63337 0.0
C823 C 0.92352 0.50023 0.64581 0.0
C824 C 0.96909 0.50868 0.62722 0.0
H825 H 0.04167 0.59574 0.60858 0.0
H826 H 0.0111 0.57854 0.62645 0.0
H827 H 0.00312 0.50511 0.62321 0.0
H828 H 0.88034 0.51892 0.60456 0.0
H829 H 0.91691 0.53183 0.60055 0.0
H830 H 0.94143 0.55657 0.61997 0.0
C831 C 0.02062 0.56873 0.61535 0.0
C832 C 0.98976 0.51648 0.62253 0.0
C833 C 0.03825 0.57852 0.60533 0.0
C834 C 0.89211 0.5136 0.61634 0.0
C835 C 0.91311 0.52109 0.61407 0.0
C836 C 0.95474 0.54515 0.62082 0.0
C837 C 0.01449 0.54708 0.60999 0.0
C838 C 0.99305 0.53868 0.61676 0.0
C839 C 0.92908 0.51453 0.62874 0.0
C840 C 0.95132 0.52289 0.62599 0.0
H841 H 0.05489 0.53524 0.57433 0.0
H842 H 0.02349 0.51805 0.59143 0.0
H843 H 0.97703 0.57002 0.61148 0.0
H844 H 0.89851 0.48194 0.66157 0.0
H845 H 0.93547 0.49504 0.65746 0.0
C846 C 0.93783 0.91441 0.58732 0.0
C847 C 0.93671 0.89192 0.59247 0.0
C848 C 0.95424 0.92747 0.59598 0.0
C849 C 0.00938 0.91845 0.61385 0.0
H850 H 0.00977 0.98163 0.62352 0.0
C851 C 0.07424 0.99027 0.63774 0.0
C852 C 0.09087 0.98415 0.62352 0.0
C853 C 0.05408 0.9803 0.63621 0.0
C854 C 0.00986 0.96394 0.62107 0.0
H855 H 0.95011 0.8658 0.61207 0.0
H856 H 0.97797 0.88876 0.62813 0.0
H857 H 0.97554 0.96221 0.61964 0.0
H858 H 0.09926 0.96322 0.59622 0.0
H859 H 0.06415 0.94601 0.59346 0.0
H860 H 0.04351 0.92003 0.6152 0.0
C861 C 0.96681 0.89625 0.6169 0.0
C862 C 0.99029 0.95286 0.61871 0.0
C863 C 0.95074 0.88316 0.60794 0.0
C864 C 0.08684 0.96818 0.60753 0.0
C865 C 0.06675 0.95824 0.60601 0.0
C866 C 0.02881 0.92947 0.61619 0.0
C867 C 0.96955 0.91818 0.61003 0.0
C868 C 0.98987 0.93 0.61485 0.0
C869 C 0.05022 0.96397 0.6205 0.0
C870 C 0.02932 0.95237 0.61944 0.0
H871 H 0.92734 0.92136 0.57512 0.0
H872 H 0.95594 0.94427 0.59026 0.0
H873 H 0.00976 0.90093 0.61047 0.0
H874 H 0.07688 0.00245 0.65032 0.0
H875 H 0.0417 0.98493 0.64768 0.0
C876 C 0.09029 0.41833 0.92523 0.0
C877 C 0.08849 0.39567 0.92072 0.0
C878 C 0.07254 0.43222 0.92278 0.0
C879 C 0.01461 0.42813 0.92702 0.0
H880 H 0.01288 0.48709 0.9028 0.0
C881 C 0.94646 0.49289 0.89883 0.0
C882 C 0.93291 0.49292 0.91711 0.0
C883 C 0.96684 0.48351 0.89987 0.0
C884 C 0.01319 0.47066 0.90967 0.0
H885 H 0.06759 0.37023 0.90799 0.0
H886 H 0.03673 0.39443 0.90363 0.0
H887 H 0.0462 0.4657 0.90101 0.0
H888 H 0.93037 0.4835 0.95097 0.0
H889 H 0.966 0.46679 0.95268 0.0
H890 H 0.98171 0.43287 0.93558 0.0
C891 C 0.05164 0.40138 0.9095 0.0
C892 C 0.03223 0.45849 0.90869 0.0
C893 C 0.06933 0.38757 0.91186 0.0
C894 C 0.9404 0.48374 0.9366 0.0
C895 C 0.96076 0.47413 0.93757 0.0
C896 C 0.99572 0.44034 0.92822 0.0
C897 C 0.0528 0.4236 0.91582 0.0
C898 C 0.03298 0.43697 0.91707 0.0
C899 C 0.97407 0.4737 0.91912 0.0
C900 C 0.99472 0.46163 0.91936 0.0
H901 H 0.10484 0.42501 0.93221 0.0
H902 H 0.07386 0.44931 0.92773 0.0
H903 H 0.01486 0.41172 0.93395 0.0
H904 H 0.94117 0.49954 0.88347 0.0
H905 H 0.97661 0.48315 0.88531 0.0
C906 C 0.09201 0.04953 0.86229 0.0
C907 C 0.11062 0.05275 0.87475 0.0
C908 C 0.0731 0.06087 0.86738 0.0
C909 C 0.05214 0.1089 0.89778 0.0
H910 H 0.00135 0.07306 0.90658 0.0
C911 C 0.98498 0.13597 0.95485 0.0
C912 C 0.96354 0.13227 0.94892 0.0
C913 C 0.00168 0.12723 0.94252 0.0
C914 C 0.01525 0.08339 0.90383 0.0
H915 H 0.12428 0.07139 0.90146 0.0
H916 H 0.09156 0.09119 0.9101 0.0
H917 H 0.03316 0.05678 0.8898 0.0
H918 H 0.94283 0.11632 0.92543 0.0
H919 H 0.97224 0.10092 0.90377 0.0
H920 H 0.03454 0.13534 0.91225 0.0
C921 C 0.09147 0.07986 0.89649 0.0
C922 C 0.03347 0.07407 0.8942 0.0
C923 C 0.11022 0.06839 0.89159 0.0
C924 C 0.95919 0.11942 0.93043 0.0
C925 C 0.976 0.11058 0.91806 0.0
C926 C 0.03397 0.1182 0.90732 0.0
C927 C 0.07258 0.07591 0.88474 0.0
C928 C 0.05229 0.08658 0.89167 0.0
C929 C 0.99744 0.11457 0.9239 0.0
C930 C 0.01555 0.10538 0.91107 0.0
H931 H 0.0918 0.03787 0.84903 0.0
H932 H 0.05882 0.05768 0.8579 0.0
H933 H 0.06629 0.11904 0.89567 0.0
H934 H 0.98895 0.1458 0.96897 0.0
H935 H 0.01799 0.13024 0.94774 0.0
C936 C 0.54151 0.06223 0.58109 0.0
C937 C 0.53727 0.07877 0.56569 0.0
C938 C 0.55181 0.04273 0.57496 0.0
C939 C 0.55378 -0.00182 0.55313 0.0
H940 H 0.59595 0.99243 0.50716 0.0
C941 C 0.55523 0.92529 0.49443 0.0
C942 C 0.57491 0.91646 0.48754 0.0
C943 C 0.55459 0.94386 0.50776 0.0
C944 C 0.58443 0.99372 0.52028 0.0
H945 H 0.54215 0.08847 0.53214 0.0
H946 H 0.55978 0.05438 0.52141 0.0
H947 H 0.58952 0.02853 0.52372 0.0
H948 H 0.60943 0.91993 0.48968 0.0
H949 H 0.60828 0.9528 0.51294 0.0
H950 H 0.54822 0.96358 0.54928 0.0
C951 C 0.55531 0.05651 0.53828 0.0
C952 C 0.5806 0.01442 0.52961 0.0
C953 C 0.54508 0.07607 0.54443 0.0
C954 C 0.59402 0.9263 0.49482 0.0
C955 C 0.59337 0.94517 0.50799 0.0
C956 C 0.55755 0.97758 0.54377 0.0
C957 C 0.55804 0.03927 0.55328 0.0
C958 C 0.56479 0.01699 0.54574 0.0
C959 C 0.57362 0.95425 0.5144 0.0
C960 C 0.57243 0.97523 0.52679 0.0
H961 H 0.53599 0.06386 0.5977 0.0
H962 H 0.55408 0.02997 0.58703 0.0
H963 H 0.54134 -0.00047 0.56534 0.0
H964 H 0.54022 0.91808 0.48917 0.0
H965 H 0.53912 0.9506 0.51219 0.0
C966 C 0.59093 0.08501 0.01321 0.0
C967 C 0.57312 0.09095 0.02596 0.0
C968 C 0.58961 0.06736 -0.00139 0.0
C969 C 0.5846 0.0213 0.9783 0.0
H970 H 0.53285 0.01682 0.94377 0.0
C971 C 0.55852 0.94197 0.93379 0.0
C972 C 0.54872 0.94399 0.91333 0.0
C973 C 0.56391 0.96068 0.94582 0.0
C974 C 0.54751 0.01797 0.95308 0.0
H975 H 0.54015 0.08253 0.03377 0.0
H976 H 0.53794 0.05189 0.00845 0.0
H977 H 0.5375 0.04792 0.96838 0.0
H978 H 0.53766 0.96739 0.88916 0.0
H979 H 0.54711 5e-05 0.91024 0.0
H980 H 0.5945 0.99119 0.96306 0.0
C981 C 0.55282 0.06105 0.00951 0.0
C982 C 0.55006 0.03564 0.96736 0.0
C983 C 0.55415 0.07855 0.02414 0.0
C984 C 0.54509 0.9652 0.9049 0.0
C985 C 0.55041 0.98393 0.917 0.0
C986 C 0.58199 0.00352 0.96407 0.0
C987 C 0.57042 0.05544 0.9964 0.0
C988 C 0.56848 0.03733 0.98034 0.0
C989 C 0.55958 0.98185 0.93772 0.0
C990 C 0.5633 0.00155 0.9515 0.0
H991 H 0.60581 0.09418 0.01423 0.0
H992 H 0.60341 0.06341 0.98866 0.0
H993 H 0.59893 0.02216 0.98816 0.0
H994 H 0.56163 0.92591 0.94077 0.0
H995 H 0.57076 0.95853 0.96183 0.0
C996 C 0.39912 0.59292 0.92162 0.0
C997 C 0.41548 0.59716 0.90647 0.0
C998 C 0.38743 0.57321 0.92061 0.0
C999 C 0.38246 0.52016 0.8888 0.0
H1000 H 0.38675 0.4946 0.94623 0.0
C1001 C 0.42022 0.43753 0.90779 0.0
C1002 C 0.41446 0.42621 0.92683 0.0
C1003 C 0.40905 0.45641 0.9015 0.0
C1004 C 0.38481 0.5014 0.93009 0.0
H1005 H 0.43044 0.58538 0.87678 0.0
H1006 H 0.41091 0.55111 0.87548 0.0
H1007 H 0.38694 0.53416 0.94228 0.0
H1008 H 0.39061 0.42414 0.95251 0.0
H1009 H 0.3713 0.45718 0.94156 0.0
H1010 H 0.38247 0.48698 0.87668 0.0
C1011 C 0.40675 0.5628 0.8881 0.0
C1012 C 0.38487 0.52427 0.92779 0.0
C1013 C 0.41824 0.58249 0.889 0.0
C1014 C 0.39575 0.43267 0.93795 0.0
C1015 C 0.38465 0.45162 0.93171 0.0
C1016 C 0.3827 0.49721 0.8911 0.0
C1017 C 0.39202 0.55733 0.90455 0.0
C1018 C 0.38498 0.53396 0.90705 0.0
C1019 C 0.39193 0.46436 0.91415 0.0
C1020 C 0.38503 0.48765 0.91172 0.0
H1021 H 0.39631 0.60404 0.93509 0.0
H1022 H 0.37577 0.56984 0.93322 0.0
H1023 H 0.38185 0.52704 0.8726 0.0
H1024 H 0.43436 0.43286 0.89866 0.0
H1025 H 0.41511 0.46587 0.8879 0.0
C1026 C 0.93124 0.07627 0.03394 0.0
C1027 C 0.92078 0.08776 0.01728 0.0
C1028 C 0.9238 0.05569 0.04062 0.0
C1029 C 0.90411 0.00627 0.0207 0.0
H1030 H 0.89108 0.99158 0.08055 0.0
C1031 C 0.91409 0.91747 0.04906 0.0
C1032 C 0.92595 0.91568 0.06837 0.0
C1033 C 0.90415 0.93737 0.04355 0.0
C1034 C 0.89469 0.99533 0.06375 0.0
H1035 H 0.89421 0.08699 0.99468 0.0
H1036 H 0.88178 0.0501 0.00574 0.0
H1037 H 0.89199 0.03017 0.06925 0.0
H1038 H 0.93487 0.93279 0.09798 0.0
H1039 H 0.9185 0.96735 0.08814 0.0
H1040 H 0.90913 0.97192 0.01545 0.0
C1041 C 0.89539 0.05747 0.0139 0.0
C1042 C 0.89496 0.01741 0.05729 0.0
C1043 C 0.90249 0.07844 0.0076 0.0
C1044 C 0.92601 0.93356 0.0829 0.0
C1045 C 0.91638 0.95349 0.07727 0.0
C1046 C 0.90432 0.98421 0.02724 0.0
C1047 C 0.90606 0.04598 0.03043 0.0
C1048 C 0.90042 0.02304 0.03591 0.0
C1049 C 0.90612 0.956 0.05708 0.0
C1050 C 0.90056 0.97851 0.0491 0.0
H1051 H 0.94527 0.08317 0.04175 0.0
H1052 H 0.9324 0.04696 0.05323 0.0
H1053 H 0.90855 0.01032 0.00416 0.0
H1054 H 0.91343 0.90389 0.03764 0.0
H1055 H 0.89586 0.93845 0.02817 0.0
C1056 C 0.00712 0.14414 0.30538 0.0
C1057 C 0.99806 0.13808 0.3254 0.0
C1058 C 0.00264 0.16483 0.29641 0.0
C1059 C 0.96961 0.2154 0.30226 0.0
H1060 H 0.02424 0.24586 0.30501 0.0
C1061 C 0.99833 0.29665 0.34482 0.0
C1062 C 0.98351 0.31219 0.33717 0.0
C1063 C 0.00173 0.27701 0.33351 0.0
C1064 C 0.00889 0.23761 0.30367 0.0
H1065 H 0.9754 0.14741 0.3504 0.0
H1066 H 0.967 0.18308 0.33445 0.0
H1067 H 0.02344 0.20576 0.30157 0.0
H1068 H 0.96179 0.32012 0.31085 0.0
H1069 H 0.96733 0.28539 0.29138 0.0
H1070 H 0.95509 0.24714 0.30599 0.0
C1071 C 0.97771 0.17214 0.32573 0.0
C1072 C 0.0084 0.21468 0.30154 0.0
C1073 C 0.98254 0.15174 0.33492 0.0
C1074 C 0.97336 0.30846 0.31712 0.0
C1075 C 0.97644 0.28858 0.30601 0.0
C1076 C 0.9701 0.23837 0.3041 0.0
C1077 C 0.98867 0.17942 0.30711 0.0
C1078 C 0.98877 0.20329 0.30203 0.0
C1079 C 0.99011 0.27238 0.31451 0.0
C1080 C 0.98976 0.24953 0.30601 0.0
H1081 H 0.01929 0.13395 0.29783 0.0
H1082 H 0.01125 0.17005 0.28201 0.0
H1083 H 0.95428 0.207 0.30263 0.0
H1084 H 0.00644 0.29913 0.36017 0.0
H1085 H 0.01222 0.26473 0.34055 0.0
C1086 C 0.03308 0.67717 0.1253 0.0
C1087 C 0.03316 0.66031 0.14095 0.0
C1088 C 0.01674 0.69281 0.12502 0.0
C1089 C 0.96697 0.70775 0.12512 0.0
H1090 H 0.9778 0.76245 0.15579 0.0
C1091 C 0.94483 0.80694 0.1273 0.0
C1092 C 0.94632 0.81008 0.10472 0.0
C1093 C 0.94616 0.78574 0.1361 0.0
C1094 C 0.9739 0.74715 0.14762 0.0
H1095 H 0.0169 0.64781 0.1697 0.0
H1096 H 0.98851 0.67577 0.16935 0.0
H1097 H 0.99959 0.7302 0.16353 0.0
H1098 H 0.94697 0.79321 0.07363 0.0
H1099 H 0.94997 0.75667 0.0888 0.0
H1100 H 0.94186 0.72476 0.1085 0.0
C1101 C 0.00083 0.67614 0.15694 0.0
C1102 C 0.98656 0.72873 0.15202 0.0
C1103 C 0.01711 0.66028 0.15712 0.0
C1104 C 0.94615 0.79146 0.09111 0.0
C1105 C 0.94774 0.77033 0.0999 0.0
C1106 C 0.95409 0.7261 0.12088 0.0
C1107 C 1.00045 0.69226 0.14068 0.0
C1108 C 0.98373 0.70927 0.14016 0.0
C1109 C 0.94924 0.76735 0.12251 0.0
C1110 C 0.95814 0.74638 0.13127 0.0
H1111 H 0.0455 0.67811 0.11303 0.0
H1112 H 0.01685 0.70547 0.11261 0.0
H1113 H 0.96465 0.69278 0.11579 0.0
H1114 H 0.94445 0.82091 0.13827 0.0
H1115 H 0.94649 0.78397 0.15359 0.0
C1116 C 0.32858 0.94399 0.16112 0.0
C1117 C 0.35011 0.93769 0.16395 0.0
C1118 C 0.31408 0.9428 0.17844 0.0
C1119 C 0.29851 0.9608 0.22151 0.0
H1120 H 0.30703 0.9228 0.27122 0.0
C1121 C 0.32082 0.99223 0.30312 0.0
C1122 C 0.31969 0.97851 0.32141 0.0
C1123 C 0.31095 0.98601 0.28377 0.0
C1124 C 0.30373 0.93342 0.25751 0.0
H1125 H 0.37247 0.92252 0.18632 0.0
H1126 H 0.34752 0.92073 0.21637 0.0
H1127 H 0.31582 0.90938 0.23518 0.0
H1128 H 0.30458 0.94937 0.33489 0.0
H1129 H 0.28717 0.93851 0.30105 0.0
H1130 H 0.28737 0.9852 0.24397 0.0
C1131 C 0.34165 0.92661 0.20089 0.0
C1132 C 0.30908 0.92576 0.2368 0.0
C1133 C 0.35612 0.92781 0.18363 0.0
C1134 C 0.30588 0.96019 0.32097 0.0
C1135 C 0.29606 0.95385 0.30151 0.0
C1136 C 0.29297 0.96839 0.24221 0.0
C1137 C 0.3208 0.93521 0.19888 0.0
C1138 C 0.30806 0.93995 0.21881 0.0
C1139 C 0.29983 0.96585 0.28232 0.0
C1140 C 0.29711 0.95539 0.26061 0.0
H1141 H 0.32327 0.95139 0.14607 0.0
H1142 H 0.29802 0.94915 0.17621 0.0
H1143 H 0.29731 0.9722 0.20805 0.0
H1144 H 0.33115 0.00661 0.30309 0.0
H1145 H 0.31423 0.99578 0.26945 0.0
C1146 C 0.65349 0.49879 0.18382 0.0
C1147 C 0.63952 0.49003 0.16812 0.0
C1148 C 0.65082 0.49348 0.20581 0.0
C1149 C 0.61164 0.47108 0.24535 0.0
H1150 H 0.66141 0.447 0.27442 0.0
C1151 C 0.60491 0.41034 0.31667 0.0
C1152 C 0.62056 0.41066 0.33303 0.0
C1153 C 0.60666 0.42422 0.29866 0.0
C1154 C 0.6474 0.45409 0.26679 0.0
H1155 H 0.61124 0.46975 0.16332 0.0
H1156 H 0.60658 0.4607 0.20141 0.0
H1157 H 0.66557 0.46464 0.23915 0.0
H1158 H 0.65017 0.42629 0.34342 0.0
H1159 H 0.65296 0.45072 0.31224 0.0
H1160 H 0.59337 0.46013 0.27274 0.0
C1161 C 0.61959 0.4716 0.19684 0.0
C1162 C 0.64981 0.4642 0.24655 0.0
C1163 C 0.6224 0.47663 0.17495 0.0
C1164 C 0.63778 0.42557 0.33116 0.0
C1165 C 0.63946 0.43952 0.3132 0.0
C1166 C 0.60923 0.46109 0.26565 0.0
C1167 C 0.63392 0.47966 0.21249 0.0
C1168 C 0.63187 0.47225 0.23535 0.0
C1169 C 0.62412 0.43876 0.29654 0.0
C1170 C 0.627 0.45192 0.27635 0.0
H1171 H 0.66682 0.50917 0.17905 0.0
H1172 H 0.66206 0.49999 0.21756 0.0
H1173 H 0.59756 0.47744 0.23723 0.0
H1174 H 0.59162 0.39886 0.31745 0.0
H1175 H 0.59472 0.4229 0.28598 0.0
C1176 C 0.36159 0.36792 -0.00034 0.0
C1177 C 0.37137 0.3884 0.00379 0.0
C1178 C 0.33924 0.36586 -6e-05 0.0
C1179 C 0.29146 0.39997 0.99116 0.0
H1180 H 0.26069 0.34726 0.00861 0.0
C1181 C 0.2086 0.37878 0.95737 0.0
C1182 C 0.19286 0.37036 0.97145 0.0
C1183 C 0.22964 0.38167 0.96439 0.0
C1184 C 0.26902 0.3622 0.00392 0.0
H1185 H 0.36535 0.42243 0.0128 0.0
H1186 H 0.32649 0.41877 0.01357 0.0
H1187 H 0.29896 0.35071 0.01667 0.0
H1188 H 0.18695 0.35832 0.00406 0.0
H1189 H 0.22403 0.36328 0.01636 0.0
H1190 H 0.2617 0.41137 0.9782 0.0
C1191 C 0.33605 0.4044 0.00967 0.0
C1192 C 0.29097 0.36409 0.00834 0.0
C1193 C 0.35836 0.40646 0.00934 0.0
C1194 C 0.1987 0.36489 0.99283 0.0
C1195 C 0.21992 0.36762 -0.00016 0.0
C1196 C 0.26962 0.39805 0.98669 0.0
C1197 C 0.32619 0.38423 0.00439 0.0
C1198 C 0.30251 0.38287 0.0017 0.0
C1199 C 0.23559 0.37612 0.98567 0.0
C1200 C 0.25823 0.37898 0.99262 0.0
H1201 H 0.37113 0.35366 0.99533 0.0
H1202 H 0.3322 0.35013 0.99563 0.0
H1203 H 0.29983 0.41456 0.98559 0.0
H1204 H 0.20471 0.38316 0.94079 0.0
H1205 H 0.24138 0.38792 0.95296 0.0
C1206 C 0.16153 0.60842 0.51694 0.0
C1207 C 0.15434 0.58806 0.52511 0.0
C1208 C 0.18261 0.61092 0.50952 0.0
C1209 C 0.2288 0.57916 0.48894 0.0
H1210 H 0.26091 0.63226 0.50232 0.0
C1211 C 0.30783 0.60058 0.44538 0.0
C1212 C 0.32484 0.60891 0.45791 0.0
C1213 C 0.2874 0.59807 0.45433 0.0
C1214 C 0.25222 0.61726 0.49859 0.0
H1215 H 0.16376 0.55432 0.53181 0.0
H1216 H 0.20048 0.55867 0.51884 0.0
H1217 H 0.22463 0.62764 0.51669 0.0
H1218 H 0.33356 0.62136 0.48971 0.0
H1219 H 0.2977 0.61699 0.50538 0.0
H1220 H 0.25635 0.56871 0.47093 0.0
C1221 C 0.18977 0.57269 0.51805 0.0
C1222 C 0.23135 0.61472 0.50662 0.0
C1223 C 0.16872 0.57022 0.52557 0.0
C1224 C 0.32082 0.6149 0.47961 0.0
C1225 C 0.30026 0.61249 0.48855 0.0
C1226 C 0.24959 0.58176 0.48082 0.0
C1227 C 0.19699 0.59308 0.50998 0.0
C1228 C 0.21935 0.59567 0.50182 0.0
C1229 C 0.28335 0.60389 0.47604 0.0
C1230 C 0.26152 0.60089 0.48542 0.0
H1231 H 0.15091 0.62252 0.51634 0.0
H1232 H 0.18756 0.62677 0.50315 0.0
H1233 H 0.21997 0.56437 0.48478 0.0
H1234 H 0.31028 0.59585 0.4286 0.0
H1235 H 0.27468 0.59174 0.44412 0.0
C1236 C 0.68787 0.84162 0.45191 0.0
C1237 C 0.66999 0.84498 0.46544 0.0
C1238 C 0.70854 0.84125 0.4605 0.0
C1239 C 0.73967 0.86009 0.50794 0.0
H1240 H 0.78302 0.82083 0.48456 0.0
C1241 C 0.8238 0.85213 0.54572 0.0
C1242 C 0.84139 0.85144 0.53144 0.0
C1243 C 0.80288 0.85085 0.53783 0.0
C1244 C 0.77113 0.83203 0.4911 0.0
H1245 H 0.6598 0.85001 0.49874 0.0
H1246 H 0.69598 0.84898 0.51386 0.0
H1247 H 0.7463 0.8185 0.47122 0.0
H1248 H 0.85079 0.84881 0.49763 0.0
H1249 H 0.81411 0.84657 0.4838 0.0
H1250 H 0.76451 0.87353 0.52789 0.0
C1251 C 0.69399 0.84702 0.49651 0.0
C1252 C 0.75008 0.83071 0.48348 0.0
C1253 C 0.67324 0.84746 0.48788 0.0
C1254 C 0.83758 0.84939 0.50905 0.0
C1255 C 0.81659 0.84798 0.50115 0.0
C1256 C 0.76069 0.86134 0.51563 0.0
C1257 C 0.71191 0.84413 0.48287 0.0
C1258 C 0.7341 0.8448 0.49171 0.0
C1259 C 0.79901 0.84875 0.51548 0.0
C1260 C 0.77668 0.84739 0.50724 0.0
H1261 H 0.68598 0.8397 0.43453 0.0
H1262 H 0.72193 0.8393 0.44946 0.0
H1263 H 0.72789 0.87147 0.51438 0.0
H1264 H 0.82613 0.85366 0.56307 0.0
H1265 H 0.78971 0.85122 0.54931 0.0
C1266 C 0.51761 0.85637 0.83848 0.0
C1267 C 0.53614 0.85581 0.85153 0.0
C1268 C 0.50417 0.83793 0.83713 0.0
C1269 C 0.4739 0.79985 0.8532 0.0
H1270 H 0.50073 0.74336 0.84173 0.0
C1271 C 0.44785 0.71749 0.88987 0.0
C1272 C 0.45326 0.69785 0.879 0.0
C1273 C 0.45178 0.73792 0.88017 0.0
C1274 C 0.49275 0.75898 0.84445 0.0
H1275 H 0.55543 0.83536 0.87266 0.0
H1276 H 0.53227 0.80307 0.86984 0.0
H1277 H 0.5213 0.77709 0.83715 0.0
H1278 H 0.46393 0.68423 0.84822 0.0
H1279 H 0.47057 0.71986 0.83129 0.0
H1280 H 0.44565 0.78156 0.86171 0.0
C1281 C 0.52803 0.81785 0.86096 0.0
C1282 C 0.50465 0.77827 0.84204 0.0
C1283 C 0.54119 0.83633 0.86266 0.0
C1284 C 0.46003 0.69904 0.85724 0.0
C1285 C 0.46388 0.71946 0.84752 0.0
C1286 C 0.46199 0.78045 0.85586 0.0
C1287 C 0.50939 0.8185 0.84826 0.0
C1288 C 0.49556 0.79878 0.84707 0.0
C1289 C 0.46107 0.73905 0.85939 0.0
C1290 C 0.47153 0.75977 0.85215 0.0
H1291 H 0.51331 0.8711 0.82958 0.0
H1292 H 0.48987 0.83873 0.82722 0.0
H1293 H 0.46659 0.81554 0.8572 0.0
H1294 H 0.44236 0.7172 0.90656 0.0
H1295 H 0.4494 0.7527 0.88976 0.0
C1296 C 0.49765 0.34156 0.67997 0.0
C1297 C 0.47644 0.3455 0.67326 0.0
C1298 C 0.50684 0.32067 0.67722 0.0
C1299 C 0.49357 0.26228 0.67018 0.0
H1300 H 0.54447 0.2581 0.63415 0.0
C1301 C 0.52486 0.19799 0.60472 0.0
C1302 C 0.52025 0.17827 0.61582 0.0
C1303 C 0.52635 0.21793 0.61602 0.0
C1304 C 0.53043 0.25901 0.64447 0.0
H1305 H 0.4481 0.33074 0.65917 0.0
H1306 H 0.46391 0.29417 0.65497 0.0
H1307 H 0.53209 0.2943 0.64672 0.0
H1308 H 0.51643 0.16371 0.6478 0.0
H1309 H 0.51909 0.19849 0.66742 0.0
H1310 H 0.49113 0.2273 0.66717 0.0
C1311 C 0.47345 0.30719 0.66219 0.0
C1312 C 0.52343 0.27967 0.65175 0.0
C1313 C 0.46443 0.32809 0.66451 0.0
C1314 C 0.51963 0.17861 0.63866 0.0
C1315 C 0.52108 0.19855 0.64994 0.0
C1316 C 0.50066 0.24167 0.66314 0.0
C1317 C 0.49481 0.30335 0.66824 0.0
C1318 C 0.50451 0.2815 0.66402 0.0
C1319 C 0.52329 0.21854 0.63863 0.0
C1320 C 0.51876 0.23985 0.6496 0.0
H1321 H 0.50736 0.35475 0.6866 0.0
H1322 H 0.52335 0.31808 0.68198 0.0
H1323 H 0.479 0.26327 0.67973 0.0
H1324 H 0.52567 0.19834 0.58716 0.0
H1325 H 0.52807 0.23304 0.60682 0.0
C1326 C 0.83258 0.52977 0.84214 0.0
C1327 C 0.8524 0.5408 0.8427 0.0
C1328 C 0.82336 0.52403 0.82225 0.0
C1329 C 0.82888 0.52813 0.76206 0.0
H1330 H 0.82332 0.46445 0.76474 0.0
C1331 C 0.8412 0.44804 0.70335 0.0
C1332 C 0.82761 0.45273 0.68582 0.0
C1333 C 0.84083 0.46119 0.72197 0.0
C1334 C 0.82474 0.48223 0.76375 0.0
H1335 H 0.87621 0.55758 0.82304 0.0
H1336 H 0.86014 0.54765 0.78849 0.0
H1337 H 0.82564 0.48564 0.79821 0.0
H1338 H 0.80327 0.47531 0.67392 0.0
H1339 H 0.80301 0.49847 0.70637 0.0
H1340 H 0.82873 0.52439 0.72739 0.0
C1341 C 0.85183 0.54313 0.80328 0.0
C1342 C 0.82574 0.49443 0.78291 0.0
C1343 C 0.8611 0.54877 0.82314 0.0
C1344 C 0.81398 0.4712 0.68713 0.0
C1345 C 0.81384 0.48453 0.70566 0.0
C1346 C 0.82763 0.51588 0.74281 0.0
C1347 C 0.83369 0.52942 0.80265 0.0
C1348 C 0.82837 0.51746 0.78232 0.0
C1349 C 0.82701 0.47944 0.72338 0.0
C1350 C 0.82617 0.49276 0.74353 0.0
H1351 H 0.82532 0.52355 0.85691 0.0
H1352 H 0.80909 0.51384 0.82222 0.0
H1353 H 0.8309 0.54584 0.76111 0.0
H1354 H 0.85178 0.4339 0.70286 0.0
H1355 H 0.85135 0.45707 0.73533 0.0
C1356 C 0.18018 0.0694 0.67839 0.0
C1357 C 0.15807 0.07156 0.67467 0.0
C1358 C 0.18871 0.07439 0.69882 0.0
C1359 C 0.16913 0.08538 0.75637 0.0
H1360 H 0.20059 0.03122 0.76596 0.0
C1361 C 0.14357 0.01208 0.8074 0.0
C1362 C 0.15799 0.00264 0.8222 0.0
C1363 C 0.14963 0.03021 0.79489 0.0
C1364 C 0.19223 0.04671 0.76373 0.0
H1365 H 0.12861 0.08521 0.68773 0.0
H1366 H 0.14277 0.09251 0.72309 0.0
H1367 H 0.20289 0.04913 0.73116 0.0
H1368 H 0.19028 0.00487 0.83524 0.0
H1369 H 0.20115 0.03582 0.81226 0.0
H1370 H 0.15627 0.08068 0.7884 0.0
C1371 C 0.15391 0.08694 0.71081 0.0
C1372 C 0.19359 0.05723 0.74366 0.0
C1373 C 0.14557 0.0825 0.6903 0.0
C1374 C 0.17863 0.01191 0.82423 0.0
C1375 C 0.18487 0.02969 0.81124 0.0
C1376 C 0.16724 0.07439 0.77623 0.0
C1377 C 0.17511 0.0809 0.71599 0.0
C1378 C 0.1807 0.07577 0.73907 0.0
C1379 C 0.17046 0.03881 0.79634 0.0
C1380 C 0.17783 0.0543 0.77949 0.0
H1381 H 0.1905 0.06181 0.66637 0.0
H1382 H 0.20546 0.07089 0.70169 0.0
H1383 H 0.15985 0.10024 0.75399 0.0
H1384 H 0.12783 0.00504 0.80487 0.0
H1385 H 0.13846 0.03663 0.78302 0.0
C1386 C 0.83587 0.16473 0.99249 0.0
C1387 C 0.84603 0.1456 0.98468 0.0
C1388 C 0.81375 0.16497 0.99614 0.0
C1389 C 0.76952 0.1277 0.00929 0.0
H1390 H 0.73369 0.17831 0.99654 0.0
C1391 C 0.68945 0.14318 0.05245 0.0
C1392 C 0.67179 0.14989 0.03998 0.0
C1393 C 0.70983 0.14185 0.04324 0.0
C1394 C 0.74345 0.16397 -2e-05 0.0
H1395 H 0.84078 0.1119 0.97403 0.0
H1396 H 0.8022 0.11233 0.98052 0.0
H1397 H 0.77102 0.17778 0.9842 0.0
H1398 H 0.6617 0.16055 0.008 0.0
H1399 H 0.69766 0.1585 0.99189 0.0
H1400 H 0.74215 0.11406 0.02542 0.0
C1401 C 0.81139 0.12709 0.98391 0.0
C1402 C 0.76484 0.16375 0.9931 0.0
C1403 C 0.83349 0.12689 0.98012 0.0
C1404 C 0.675 0.1553 0.01802 0.0
C1405 C 0.69555 0.15421 0.00883 0.0
C1406 C 0.74824 0.12801 0.01632 0.0
C1407 C 0.80131 0.14605 0.99219 0.0
C1408 C 0.77818 0.14572 0.99792 0.0
C1409 C 0.71314 0.14737 0.02136 0.0
C1410 C 0.73507 0.14628 0.01204 0.0
H1411 H 0.84506 0.17944 0.99611 0.0
H1412 H 0.8065 0.17976 0.00273 0.0
H1413 H 0.7794 0.11365 0.01342 0.0
H1414 H 0.68757 0.13887 0.06941 0.0
H1415 H 0.72312 0.13682 0.05339 0.0
C1416 C 0.9686 0.91506 0.17575 0.0
C1417 C 0.97606 0.8932 0.17524 0.0
C1418 C 0.97039 0.92769 0.1946 0.0
C1419 C 0.00366 0.9313 0.24358 0.0
H1420 H 0.96421 0.97836 0.25847 0.0
C1421 C 0.01916 0.99145 0.3146 0.0
C1422 C 0.01679 0.0139 0.30947 0.0
C1423 C 0.01192 0.97518 0.30032 0.0
C1424 C 0.97536 0.96529 0.25447 0.0
H1425 H 0.98989 0.86697 0.19459 0.0
H1426 H 0.99262 0.88894 0.2277 0.0
H1427 H 0.95445 0.95173 0.23041 0.0
H1428 H 0.00457 0.03689 0.28555 0.0
H1429 H 0.99191 0.00844 0.26062 0.0
H1430 H 0.02464 0.94503 0.26748 0.0
C1431 C 0.98587 0.89646 0.21332 0.0
C1432 C 0.96981 0.95005 0.23841 0.0
C1433 C 0.98418 0.88383 0.19439 0.0
C1434 C 0.00669 0.01974 0.28994 0.0
C1435 C 0.99929 0.00346 0.27575 0.0
C1436 C 0.00913 0.94643 0.25976 0.0
C1437 C 0.97954 0.91873 0.21346 0.0
C1438 C 0.98409 0.93316 0.23243 0.0
C1439 C 0.00198 0.98102 0.28072 0.0
C1440 C 0.99523 0.96384 0.26504 0.0
H1441 H 0.9622 0.92279 0.1613 0.0
H1442 H 0.96556 0.94482 0.19399 0.0
H1443 H 0.01521 0.91874 0.23919 0.0
H1444 H 0.02681 0.9864 0.32956 0.0
H1445 H 0.01406 0.958 0.30462 0.0
C1446 C 0.9647 0.42758 0.29653 0.0
C1447 C 0.94615 0.42958 0.30936 0.0
C1448 C 0.97041 0.44423 0.28196 0.0
C1449 C 0.98575 0.48828 0.26425 0.0
H1450 H 0.94283 0.51825 0.22974 0.0
C1451 C 0.00661 0.55283 0.19824 0.0
C1452 C 0.99324 0.57142 0.19686 0.0
C1453 C 0.00138 0.53538 0.21209 0.0
C1454 C 0.95497 0.5102 0.23946 0.0
H1455 H 0.91877 0.4504 0.31658 0.0
H1456 H 0.9288 0.47946 0.29129 0.0
H1457 H 0.9323 0.48742 0.25276 0.0
H1458 H 0.9643 0.58661 0.20949 0.0
H1459 H 0.95535 0.55631 0.23378 0.0
H1460 H 0.0084 0.51113 0.25094 0.0
C1461 C 0.93884 0.46494 0.29234 0.0
C1462 C 0.94894 0.49252 0.25261 0.0
C1463 C 0.93315 0.44831 0.30691 0.0
C1464 C 0.97488 0.57247 0.21007 0.0
C1465 C 0.96966 0.55505 0.22388 0.0
C1466 C 0.99179 0.50597 0.25106 0.0
C1467 C 0.95767 0.46321 0.27989 0.0
C1468 C 0.96423 0.48144 0.26525 0.0
C1469 C 0.98268 0.53618 0.22481 0.0
C1470 C 0.97643 0.51721 0.23864 0.0
H1471 H 0.97505 0.41332 0.29799 0.0
H1472 H 0.98484 0.44227 0.27236 0.0
H1473 H 0.99786 0.48029 0.27404 0.0
H1474 H 0.02086 0.5515 0.18826 0.0
H1475 H 0.01166 0.521 0.21235 0.0
C1476 C 0.21505 0.9888 0.92753 0.0
C1477 C 0.21544 0.00774 0.91438 0.0
C1478 C 0.22986 0.98627 0.94434 0.0
C1479 C 0.26408 0.01911 0.98036 0.0
H1480 H 0.29297 0.96373 0.99176 0.0
C1481 C 0.33356 0.013 0.04101 0.0
C1482 C 0.33466 0.99428 0.05438 0.0
C1483 C 0.31877 0.01403 0.02411 0.0
C1484 C 0.28481 0.97922 0.98896 0.0
H1485 H 0.23209 0.03853 0.90813 0.0
H1486 H 0.25792 0.03405 0.93738 0.0
H1487 H 0.26792 0.96638 0.96143 0.0
H1488 H 0.321 0.96198 0.06057 0.0
H1489 H 0.29485 0.96395 0.0312 0.0
H1490 H 0.28074 0.03197 0.00787 0.0
C1491 C 0.246 0.02131 0.93486 0.0
C1492 C 0.27052 0.98074 0.97157 0.0
C1493 C 0.23127 0.0238 0.91803 0.0
C1494 C 0.32057 0.97662 0.05052 0.0
C1495 C 0.30568 0.97769 0.03362 0.0
C1496 C 0.27826 0.01757 0.99776 0.0
C1497 C 0.24527 0.00267 0.94838 0.0
C1498 C 0.26016 0.00076 0.967 0.0
C1499 C 0.30463 0.99641 0.02021 0.0
C1500 C 0.28894 0.99768 0.00216 0.0
H1501 H 0.20306 0.97612 0.92512 0.0
H1502 H 0.22885 0.97179 0.95457 0.0
H1503 H 0.256 0.03463 0.97749 0.0
H1504 H 0.34428 0.02684 0.04345 0.0
H1505 H 0.31864 0.02854 0.01387 0.0
C1506 C 0.70419 0.57749 0.07497 0.0
C1507 C 0.69714 0.56232 0.09064 0.0
C1508 C 0.71833 0.57097 0.05854 0.0
C1509 C 0.75903 0.52895 0.04541 0.0
H1510 H 0.7518 0.55037 0.98658 0.0
C1511 C 0.81364 0.49977 0.97522 0.0
C1512 C 0.82074 0.5159 0.96048 0.0
C1513 C 0.79764 0.5046 0.99042 0.0
C1514 C 0.75417 0.5444 0.00296 0.0
H1515 H 0.70006 0.52867 0.10199 0.0
H1516 H 0.72443 0.51708 0.07303 0.0
H1517 H 0.7256 0.56018 0.01439 0.0
H1518 H 0.81632 0.54973 0.95 0.0
H1519 H 0.78859 0.55824 0.97666 0.0
H1520 H 0.78772 0.51338 0.03408 0.0
C1521 C 0.71895 0.53402 0.07336 0.0
C1522 C 0.73913 0.55001 0.01891 0.0
C1523 C 0.70476 0.54056 0.08977 0.0
C1524 C 0.8112 0.53689 0.96108 0.0
C1525 C 0.79521 0.54174 0.97631 0.0
C1526 C 0.77408 0.52336 0.02947 0.0
C1527 C 0.72592 0.54916 0.05754 0.0
C1528 C 0.74145 0.54247 0.04036 0.0
C1529 C 0.78834 0.5257 0.99129 0.0
C1530 C 0.77192 0.53112 0.00807 0.0
H1531 H 0.69873 0.59444 0.07537 0.0
H1532 H 0.72363 0.58315 0.04686 0.0
H1533 H 0.76149 0.52312 0.06183 0.0
H1534 H 0.82055 0.48339 0.97515 0.0
H1535 H 0.79252 0.49175 0.00148 0.0
C1536 C 0.2855 0.98915 0.43139 0.0
C1537 C 0.30486 0.97737 0.43111 0.0
C1538 C 0.27341 0.99069 0.45048 0.0
C1539 C 0.25695 0.00244 0.49525 0.0
H1540 H 0.25454 0.95319 0.53525 0.0
C1541 C 0.21333 0.00969 0.57764 0.0
C1542 C 0.20091 0.99147 0.58403 0.0
C1543 C 0.22763 0.00797 0.56019 0.0
C1544 C 0.2549 0.96707 0.52421 0.0
H1545 H 0.32681 0.95808 0.45064 0.0
H1546 H 0.30617 0.96133 0.48399 0.0
H1547 H 0.27487 0.94974 0.50176 0.0
H1548 H 0.19425 0.95697 0.57749 0.0
H1549 H 0.21863 0.95411 0.54692 0.0
H1550 H 0.2361 0.01937 0.51721 0.0
C1551 C 0.29992 0.96889 0.4694 0.0
C1552 C 0.26683 0.9652 0.50509 0.0
C1553 C 0.31184 0.9671 0.45026 0.0
C1554 C 0.20361 0.97133 0.57306 0.0
C1555 C 0.21773 0.96965 0.55554 0.0
C1556 C 0.24483 0.00422 0.51428 0.0
C1557 C 0.28056 0.98075 0.4698 0.0
C1558 C 0.26796 0.98282 0.49029 0.0
C1559 C 0.22971 0.98802 0.54865 0.0
C1560 C 0.24355 0.98653 0.52897 0.0
H1561 H 0.27964 0.99715 0.41686 0.0
H1562 H 0.25838 -0.00041 0.45001 0.0
H1563 H 0.25772 0.01651 0.48448 0.0
H1564 H 0.2117 0.02542 0.58583 0.0
H1565 H 0.23689 0.02234 0.55563 0.0
C1566 C 0.78601 0.4913 0.55542 0.0
C1567 C 0.78689 0.47632 0.57278 0.0
C1568 C 0.77299 0.48706 0.53747 0.0
C1569 C 0.72677 0.45377 0.51903 0.0
H1570 H 0.74939 0.46695 0.46179 0.0
C1571 C 0.68196 0.42937 0.44063 0.0
C1572 C 0.68053 0.44584 0.42465 0.0
C1573 C 0.69571 0.43197 0.45835 0.0
C1574 C 0.74279 0.46332 0.47767 0.0
H1575 H 0.77452 0.44528 0.58506 0.0
H1576 H 0.75196 0.4378 0.55362 0.0
H1577 H 0.77129 0.47405 0.49377 0.0
H1578 H 0.69291 0.47762 0.41439 0.0
H1579 H 0.71684 0.48213 0.44526 0.0
H1580 H 0.69825 0.44307 0.50288 0.0
C1581 C 0.76116 0.45295 0.55399 0.0
C1582 C 0.75531 0.46744 0.49601 0.0
C1583 C 0.77414 0.45721 0.57199 0.0
C1584 C 0.69362 0.46462 0.42641 0.0
C1585 C 0.70742 0.46717 0.44407 0.0
C1586 C 0.71426 0.4496 0.50067 0.0
C1587 C 0.7606 0.46772 0.53642 0.0
C1588 C 0.74739 0.46288 0.51692 0.0
C1589 C 0.7084 0.45102 0.46039 0.0
C1590 C 0.72208 0.45447 0.4798 0.0
H1591 H 0.79554 0.50623 0.55555 0.0
H1592 H 0.77264 0.49899 0.5244 0.0
H1593 H 0.72008 0.45032 0.5349 0.0
H1594 H 0.67211 0.41468 0.43974 0.0
H1595 H 0.69632 0.41911 0.47053 0.0
C1596 C 0.0843 0.30518 0.01626 0.0
C1597 C 0.09075 0.30107 0.99482 0.0
C1598 C 0.07209 0.28956 0.02753 0.0
C1599 C 0.04915 0.23278 0.02464 0.0
H1600 H 0.99705 0.26165 0.04406 0.0
C1601 C 0.95441 0.21168 0.02652 0.0
C1602 C 0.95511 0.18987 0.03418 0.0
C1603 C 0.9725 0.22525 0.02802 0.0
C1604 C 0.01152 0.25334 0.03882 0.0
H1605 H 0.09099 0.27718 0.96877 0.0
H1606 H 0.0701 0.24971 0.98842 0.0
H1607 H 0.02865 0.2837 0.03567 0.0
H1608 H 0.97471 0.16588 0.05111 0.0
H1609 H 0.00611 0.18959 0.05383 0.0
H1610 H 0.03161 0.20254 0.02653 0.0
C1611 C 0.07454 0.26475 0.99677 0.0
C1612 C 0.02975 0.26593 0.0343 0.0
C1613 C 0.08661 0.28042 0.98551 0.0
C1614 C 0.97375 0.1825 0.04474 0.0
C1615 C 0.99179 0.19604 0.04624 0.0
C1616 C 0.03093 0.22018 0.02923 0.0
C1617 C 0.06613 0.26966 0.01744 0.0
C1618 C 0.04857 0.25586 0.02649 0.0
C1619 C 0.99161 0.21732 0.03729 0.0
C1620 C 0.01172 0.23039 0.03573 0.0
H1621 H 0.08693 0.32124 0.02353 0.0
H1622 H 0.06606 0.29369 0.04353 0.0
H1623 H 0.06343 0.22453 0.01878 0.0
H1624 H 0.9403 0.21793 0.01838 0.0
H1625 H 0.97186 0.24153 0.02085 0.0
C1626 C 0.05825 0.67547 0.51514 0.0
C1627 C 0.05117 0.65501 0.50741 0.0
C1628 C 0.04892 0.69493 0.50747 0.0
C1629 C 0.99691 0.71195 0.48402 0.0
H1630 H 0.02175 0.76988 0.49204 0.0
C1631 C 0.97343 0.81062 0.49502 0.0
C1632 C 0.95519 0.80765 0.50806 0.0
C1633 C 0.98437 0.79246 0.48657 0.0
C1634 C 0.01447 0.75394 0.48915 0.0
H1635 H 0.03066 0.63861 0.48418 0.0
H1636 H 0.01547 0.67252 0.4696 0.0
H1637 H 0.04489 0.73791 0.49096 0.0
H1638 H 0.93321 0.78365 0.52141 0.0
H1639 H 0.95267 0.75182 0.5076 0.0
H1640 H 0.96653 0.72802 0.48181 0.0
C1641 C 0.02741 0.67374 0.48228 0.0
C1642 C 0.02783 0.73546 0.48893 0.0
C1643 C 0.03633 0.6543 0.49035 0.0
C1644 C 0.9471 0.78633 0.51117 0.0
C1645 C 0.95835 0.76808 0.50318 0.0
C1646 C 0.9836 0.73047 0.48382 0.0
C1647 C 0.03261 0.69424 0.49164 0.0
C1648 C 0.01916 0.71412 0.4873 0.0
C1649 C 0.97768 0.77088 0.49157 0.0
C1650 C 0.99206 0.75166 0.48731 0.0
H1651 H 0.06943 0.67635 0.52855 0.0
H1652 H 0.05333 0.71026 0.51529 0.0
H1653 H 0.98944 0.69589 0.48286 0.0
H1654 H 0.97988 0.82699 0.49234 0.0
H1655 H 0.99873 0.79536 0.47711 0.0
C1656 C 0.55482 0.79196 0.47388 0.0
C1657 C 0.54944 0.8141 0.47754 0.0
C1658 C 0.54056 0.77516 0.47987 0.0
C1659 C 0.48215 0.7684 0.48842 0.0
H1660 H 0.49831 0.70759 0.4981 0.0
C1661 C 0.44544 0.67343 0.49147 0.0
C1662 C 0.43222 0.67473 0.47312 0.0
C1663 C 0.45699 0.69185 0.49847 0.0
C1664 C 0.49333 0.72453 0.49587 0.0
H1665 H 0.52619 0.83607 0.49211 0.0
H1666 H 0.50193 0.80686 0.50371 0.0
H1667 H 0.52542 0.73626 0.50003 0.0
H1668 H 0.41976 0.69631 0.4483 0.0
H1669 H 0.4401 0.72848 0.46013 0.0
H1670 H 0.45005 0.7567 0.48438 0.0
C1671 C 0.5166 0.80233 0.49542 0.0
C1672 C 0.50904 0.74099 0.49664 0.0
C1673 C 0.53062 0.81907 0.48905 0.0
C1674 C 0.42946 0.6951 0.46281 0.0
C1675 C 0.44125 0.7135 0.46961 0.0
C1676 C 0.46641 0.75198 0.48788 0.0
C1677 C 0.52081 0.78024 0.48991 0.0
C1678 C 0.50378 0.76308 0.49232 0.0
C1679 C 0.45594 0.71183 0.48691 0.0
C1680 C 0.47187 0.72974 0.49097 0.0
H1681 H 0.56911 0.78776 0.46476 0.0
H1682 H 0.54437 0.75841 0.4752 0.0
H1683 H 0.47739 0.78514 0.48474 0.0
H1684 H 0.44801 0.65774 0.49945 0.0
H1685 H 0.46768 0.69006 0.51218 0.0
C1686 C 0.52491 0.58153 0.83501 0.0
C1687 C 0.50515 0.59135 0.84014 0.0
C1688 C 0.52619 0.56522 0.81902 0.0
C1689 C 0.49654 0.5394 0.77331 0.0
H1690 H 0.53058 0.48815 0.78822 0.0
C1691 C 0.50733 0.46591 0.71456 0.0
C1692 C 0.50656 0.44465 0.72362 0.0
C1693 C 0.50807 0.48453 0.72791 0.0
C1694 C 0.5209 0.50227 0.78387 0.0
H1695 H 0.47139 0.59242 0.83182 0.0
H1696 H 0.47358 0.5638 0.80418 0.0
H1697 H 0.5302 0.51991 0.81239 0.0
H1698 H 0.50589 0.42628 0.75381 0.0
H1699 H 0.50685 0.45878 0.7771 0.0
H1700 H 0.48663 0.5214 0.74516 0.0
C1701 C 0.48815 0.56884 0.81233 0.0
C1702 C 0.52092 0.52063 0.79757 0.0
C1703 C 0.48688 0.58521 0.82826 0.0
C1704 C 0.50657 0.44242 0.74631 0.0
C1705 C 0.50725 0.46106 0.75966 0.0
C1706 C 0.49648 0.521 0.75962 0.0
C1707 C 0.50774 0.55831 0.80785 0.0
C1708 C 0.50863 0.53937 0.79254 0.0
C1709 C 0.508 0.48234 0.75062 0.0
C1710 C 0.50854 0.50216 0.76482 0.0
H1711 H 0.53932 0.58601 0.84375 0.0
H1712 H 0.54161 0.55776 0.81566 0.0
H1713 H 0.48704 0.55363 0.76885 0.0
H1714 H 0.50742 0.46822 0.69713 0.0
H1715 H 0.50893 0.50066 0.72041 0.0
C1716 C 0.51423 0.9705 0.80427 0.0
C1717 C 0.49906 0.95335 0.8038 0.0
C1718 C 0.51293 0.98797 0.78955 0.0
C1719 C 0.47524 0.01615 0.75253 0.0
H1720 H 0.52705 0.0373 0.72458 0.0
C1721 C 0.4738 0.08869 0.69207 0.0
C1722 C 0.48552 0.08551 0.67282 0.0
C1723 C 0.4764 0.07434 0.70962 0.0
C1724 C 0.51243 0.03154 0.73222 0.0
H1725 H 0.47067 0.94107 0.78748 0.0
H1726 H 0.46859 0.97135 0.76165 0.0
H1727 H 0.52935 0.00829 0.75186 0.0
H1728 H 0.50965 0.06519 0.65715 0.0
H1729 H 0.51398 0.04012 0.6876 0.0
H1730 H 0.45824 0.03883 0.73236 0.0
C1731 C 0.48129 0.9715 0.77361 0.0
C1732 C 0.51377 0.01508 0.74802 0.0
C1733 C 0.48258 0.95405 0.78832 0.0
C1734 C 0.50035 0.0681 0.67173 0.0
C1735 C 0.50294 0.05379 0.68926 0.0
C1736 C 0.4739 0.0326 0.73675 0.0
C1737 C 0.49644 0.98867 0.77405 0.0
C1738 C 0.49516 0.007 0.75815 0.0
C1739 C 0.49079 0.05656 0.7083 0.0
C1740 C 0.49245 0.0403 0.72622 0.0
H1741 H 0.52709 0.9705 0.81606 0.0
H1742 H 0.52471 0.00106 0.79046 0.0
H1743 H 0.46063 0.01049 0.76025 0.0
H1744 H 0.46233 0.10201 0.69346 0.0
H1745 H 0.46701 0.07709 0.72419 0.0
C1746 C 0.44886 0.30529 0.95909 0.0
C1747 C 0.45571 0.32037 0.94322 0.0
C1748 C 0.45834 0.28448 0.96052 0.0
C1749 C 0.51137 0.26163 0.94873 0.0
H1750 H 0.48814 0.21175 0.98015 0.0
C1751 C 0.5382 0.17868 0.00046 0.0
C1752 C 0.55525 0.18789 0.01223 0.0
C1753 C 0.52688 0.19131 0.98547 0.0
C1754 C 0.495 0.22525 0.97097 0.0
H1755 H 0.4751 0.32407 0.91417 0.0
H1756 H 0.49108 0.28751 0.91625 0.0
H1757 H 0.46394 0.2382 0.96381 0.0
H1758 H 0.57469 0.21704 0.01686 0.0
H1759 H 0.55437 0.23962 0.99127 0.0
H1760 H 0.54244 0.24871 0.95598 0.0
C1761 C 0.47914 0.29211 0.92821 0.0
C1762 C 0.48103 0.2406 0.9618 0.0
C1763 C 0.4698 0.313 0.92689 0.0
C1764 C 0.56165 0.20959 0.00786 0.0
C1765 C 0.55001 0.22245 0.99313 0.0
C1766 C 0.52535 0.24614 0.95772 0.0
C1767 C 0.47463 0.27824 0.94591 0.0
C1768 C 0.48903 0.25944 0.95128 0.0
C1769 C 0.53201 0.21364 0.98228 0.0
C1770 C 0.51737 0.22817 0.96964 0.0
H1771 H 0.43792 0.3103 0.97185 0.0
H1772 H 0.45432 0.27427 0.97434 0.0
H1773 H 0.51821 0.276 0.94093 0.0
H1774 H 0.53317 0.16183 0.00338 0.0
H1775 H 0.51358 0.18375 0.97698 0.0
loop_
_geom_bond_atom_site_label_1
_geom_bond_atom_site_label_2
_geom_bond_distance
_geom_bond_site_symmetry_2
_ccdc_geom_bond_type
Mg0 O1 2.028 1_455 S
Mg0 O7 1.986 1_455 S
Mg0 O9 2.114 . S
Mg0 O10 2.251 . S
Mg0 O13 2.010 . S
O1 Mg0 2.028 1_655 S
O1 C4 1.250 . S
O2 Mg3 2.028 . S
O2 C4 1.248 . S
Mg3 O2 2.028 . S
Mg3 O8 2.032 . S
Mg3 O10 2.079 1_655 S
C4 O1 1.250 . S
C4 O2 1.248 . S
C5 O6 1.264 . S
C5 O13 1.249 . S
O6 C5 1.264 . S
O7 Mg0 1.986 1_655 S
O7 C11 1.246 . S
O8 Mg3 2.032 . S
O8 C11 1.259 . S
O9 Mg0 2.114 . S
O9 C12 1.252 . S
O10 Mg0 2.251 . S
O10 Mg3 2.079 1_455 S
O10 C12 1.273 . S
C11 O7 1.246 . S
C11 O8 1.259 . S
C12 O9 1.252 . S
C12 O10 1.273 . S
O13 Mg0 2.010 . S
O13 C5 1.249 . S
Mg14 O15 2.028 1_655 S
Mg14 O21 1.986 1_655 S
Mg14 O23 2.114 . S
Mg14 O24 2.251 . S
Mg14 O27 2.010 . S
O15 Mg14 2.028 1_455 S
O15 C18 1.250 . S
O16 Mg17 2.028 . S
O16 C18 1.248 . S
Mg17 O16 2.028 . S
Mg17 O22 2.032 . S
Mg17 O24 2.079 1_455 S
C18 O15 1.250 . S
C18 O16 1.248 . S
C19 O20 1.264 . S
C19 O27 1.249 . S
O20 C19 1.264 . S
O21 Mg14 1.986 1_455 S
O21 C25 1.246 . S
O22 Mg17 2.032 . S
O22 C25 1.259 . S
O23 Mg14 2.114 . S
O23 C26 1.252 . S
O24 Mg14 2.251 . S
O24 Mg17 2.079 1_655 S
O24 C26 1.273 . S
C25 O21 1.246 . S
C25 O22 1.259 . S
C26 O23 1.252 . S
C26 O24 1.273 . S
O27 Mg14 2.010 . S
O27 C19 1.249 . S
Mg28 O29 2.028 1_455 S
Mg28 O35 1.986 1_455 S
Mg28 O37 2.114 . S
Mg28 O38 2.251 . S
Mg28 O41 2.010 . S
O29 Mg28 2.028 1_655 S
O29 C32 1.250 . S
O30 Mg31 2.028 . S
O30 C32 1.248 . S
Mg31 O30 2.028 . S
Mg31 O36 2.032 . S
Mg31 O38 2.079 1_655 S
C32 O29 1.250 . S
C32 O30 1.248 . S
C33 O34 1.264 . S
C33 O41 1.249 . S
O34 C33 1.264 . S
O35 Mg28 1.986 1_655 S
O35 C39 1.246 . S
O36 Mg31 2.032 . S
O36 C39 1.259 . S
O37 Mg28 2.114 . S
O37 C40 1.252 . S
O38 Mg28 2.251 . S
O38 Mg31 2.079 1_455 S
O38 C40 1.273 . S
C39 O35 1.246 . S
C39 O36 1.259 . S
C40 O37 1.252 . S
C40 O38 1.273 . S
O41 Mg28 2.010 . S
O41 C33 1.249 . S
Mg42 O43 2.028 1_655 S
Mg42 O49 1.986 1_655 S
Mg42 O51 2.114 . S
Mg42 O52 2.251 . S
Mg42 O55 2.010 . S
O43 Mg42 2.028 1_455 S
O43 C46 1.250 . S
O44 Mg45 2.028 . S
O44 C46 1.248 . S
Mg45 O44 2.028 . S
Mg45 O50 2.032 . S
Mg45 O52 2.079 1_455 S
C46 O43 1.250 . S
C46 O44 1.248 . S
C47 O48 1.264 . S
C47 O55 1.249 . S
O48 C47 1.264 . S
O49 Mg42 1.986 1_455 S
O49 C53 1.246 . S
O50 Mg45 2.032 . S
O50 C53 1.259 . S
O51 Mg42 2.114 . S
O51 C54 1.252 . S
O52 Mg42 2.251 . S
O52 Mg45 2.079 1_655 S
O52 C54 1.273 . S
C53 O49 1.246 . S
C53 O50 1.259 . S
C54 O51 1.252 . S
C54 O52 1.273 . S
O55 Mg42 2.010 . S
O55 C47 1.249 . S
Mg56 O57 2.028 1_545 S
Mg56 O63 1.986 1_545 S
Mg56 O65 2.114 . S
Mg56 O66 2.251 . S
Mg56 O69 2.010 . S
O57 Mg56 2.028 1_565 S
O57 C60 1.250 . S
O58 Mg59 2.028 . S
O58 C60 1.248 . S
Mg59 O58 2.028 . S
Mg59 O64 2.032 . S
Mg59 O66 2.079 1_565 S
C60 O57 1.250 . S
C60 O58 1.248 . S
C61 O62 1.264 . S
C61 O69 1.249 . S
O62 C61 1.264 . S
O63 Mg56 1.986 1_565 S
O63 C67 1.246 . S
O64 Mg59 2.032 . S
O64 C67 1.259 . S
O65 Mg56 2.114 . S
O65 C68 1.252 . S
O66 Mg56 2.251 . S
O66 Mg59 2.079 1_545 S
O66 C68 1.273 . S
C67 O63 1.246 . S
C67 O64 1.259 . S
C68 O65 1.252 . S
C68 O66 1.273 . S
O69 Mg56 2.010 . S
O69 C61 1.249 . S
Mg70 O71 2.028 . S
Mg70 O77 1.986 . S
Mg70 O79 2.114 . S
Mg70 O80 2.251 . S
Mg70 O83 2.010 . S
O71 Mg70 2.028 . S
O71 C74 1.250 . S
O72 Mg73 2.028 . S
O72 C74 1.248 . S
Mg73 O72 2.028 . S
Mg73 O78 2.032 . S
Mg73 O80 2.079 . S
C74 O71 1.250 . S
C74 O72 1.248 . S
C75 O76 1.264 . S
C75 O83 1.249 . S
O76 C75 1.264 . S
O77 Mg70 1.986 . S
O77 C81 1.246 . S
O78 Mg73 2.032 . S
O78 C81 1.259 . S
O79 Mg70 2.114 . S
O79 C82 1.252 . S
O80 Mg70 2.251 . S
O80 Mg73 2.079 . S
O80 C82 1.273 . S
C81 O77 1.246 . S
C81 O78 1.259 . S
C82 O79 1.252 . S
C82 O80 1.273 . S
O83 Mg70 2.010 . S
O83 C75 1.249 . S
Mg84 O85 2.028 1_565 S
Mg84 O91 1.986 1_565 S
Mg84 O93 2.114 . S
Mg84 O94 2.251 . S
Mg84 O97 2.010 . S
O85 Mg84 2.028 1_545 S
O85 C88 1.250 . S
O86 Mg87 2.028 . S
O86 C88 1.248 . S
Mg87 O86 2.028 . S
Mg87 O92 2.032 . S
Mg87 O94 2.079 1_545 S
C88 O85 1.250 . S
C88 O86 1.248 . S
C89 O90 1.264 . S
C89 O97 1.249 . S
O90 C89 1.264 . S
O91 Mg84 1.986 1_545 S
O91 C95 1.246 . S
O92 Mg87 2.032 . S
O92 C95 1.259 . S
O93 Mg84 2.114 . S
O93 C96 1.252 . S
O94 Mg84 2.251 . S
O94 Mg87 2.079 1_565 S
O94 C96 1.273 . S
C95 O91 1.246 . S
C95 O92 1.259 . S
C96 O93 1.252 . S
C96 O94 1.273 . S
O97 Mg84 2.010 . S
O97 C89 1.249 . S
Mg98 O99 2.028 . S
Mg98 O105 1.986 . S
Mg98 O107 2.114 . S
Mg98 O108 2.251 . S
Mg98 O111 2.010 . S
O99 Mg98 2.028 . S
O99 C102 1.250 . S
O100 Mg101 2.028 . S
O100 C102 1.248 . S
Mg101 O100 2.028 . S
Mg101 O106 2.032 . S
Mg101 O108 2.079 . S
C102 O99 1.250 . S
C102 O100 1.248 . S
C103 O104 1.264 . S
C103 O111 1.249 . S
O104 C103 1.264 . S
O105 Mg98 1.986 . S
O105 C109 1.246 . S
O106 Mg101 2.032 . S
O106 C109 1.259 . S
O107 Mg98 2.114 . S
O107 C110 1.252 . S
O108 Mg98 2.251 . S
O108 Mg101 2.079 . S
O108 C110 1.273 . S
C109 O105 1.246 . S
C109 O106 1.259 . S
C110 O107 1.252 . S
C110 O108 1.273 . S
O111 Mg98 2.010 . S
O111 C103 1.249 . S
Mg112 O113 2.028 1_556 S
Mg112 O119 1.986 1_556 S
Mg112 O121 2.114 . S
Mg112 O122 2.251 . S
Mg112 O125 2.010 . S
O113 Mg112 2.028 1_554 S
O113 C116 1.250 . S
O114 Mg115 2.028 . S
O114 C116 1.248 . S
Mg115 O114 2.028 . S
Mg115 O120 2.032 . S
Mg115 O122 2.079 1_554 S
C116 O113 1.250 . S
C116 O114 1.248 . S
C117 O118 1.264 . S
C117 O125 1.249 . S
O118 C117 1.264 . S
O119 Mg112 1.986 1_554 S
O119 C123 1.246 . S
O120 Mg115 2.032 . S
O120 C123 1.259 . S
O121 Mg112 2.114 . S
O121 C124 1.252 . S
O122 Mg112 2.251 . S
O122 Mg115 2.079 1_556 S
O122 C124 1.273 . S
C123 O119 1.246 . S
C123 O120 1.259 . S
C124 O121 1.252 . S
C124 O122 1.273 . S
O125 Mg112 2.010 . S
O125 C117 1.249 . S
Mg126 O127 2.028 . S
Mg126 O133 1.986 . S
Mg126 O135 2.114 . S
Mg126 O136 2.251 . S
Mg126 O139 2.010 . S
O127 Mg126 2.028 . S
O127 C130 1.250 . S
O128 Mg129 2.028 . S
O128 C130 1.248 . S
Mg129 O128 2.028 . S
Mg129 O134 2.032 . S
Mg129 O136 2.079 . S
C130 O127 1.250 . S
C130 O128 1.248 . S
C131 O132 1.264 . S
C131 O139 1.249 . S
O132 C131 1.264 . S
O133 Mg126 1.986 . S
O133 C137 1.246 . S
O134 Mg129 2.032 . S
O134 C137 1.259 . S
O135 Mg126 2.114 . S
O135 C138 1.252 . S
O136 Mg126 2.251 . S
O136 Mg129 2.079 . S
O136 C138 1.273 . S
C137 O133 1.246 . S
C137 O134 1.259 . S
C138 O135 1.252 . S
C138 O136 1.273 . S
O139 Mg126 2.010 . S
O139 C131 1.249 . S
Mg140 O141 2.028 . S
Mg140 O147 1.986 . S
Mg140 O149 2.114 . S
Mg140 O150 2.251 . S
Mg140 O153 2.010 . S
O141 Mg140 2.028 . S
O141 C144 1.250 . S
O142 Mg143 2.028 . S
O142 C144 1.248 . S
Mg143 O142 2.028 . S
Mg143 O148 2.032 . S
Mg143 O150 2.079 . S
C144 O141 1.250 . S
C144 O142 1.248 . S
C145 O146 1.264 . S
C145 O153 1.249 . S
O146 C145 1.264 . S
O147 Mg140 1.986 . S
O147 C151 1.246 . S
O148 Mg143 2.032 . S
O148 C151 1.259 . S
O149 Mg140 2.114 . S
O149 C152 1.252 . S
O150 Mg140 2.251 . S
O150 Mg143 2.079 . S
O150 C152 1.273 . S
C151 O147 1.246 . S
C151 O148 1.259 . S
C152 O149 1.252 . S
C152 O150 1.273 . S
O153 Mg140 2.010 . S
O153 C145 1.249 . S
Mg154 O155 2.028 . S
Mg154 O161 1.986 . S
Mg154 O163 2.114 . S
Mg154 O164 2.251 . S
Mg154 O167 2.010 . S
O155 Mg154 2.028 . S
O155 C158 1.250 . S
O156 Mg157 2.028 . S
O156 C158 1.248 . S
Mg157 O156 2.028 . S
Mg157 O162 2.032 . S
Mg157 O164 2.079 . S
C158 O155 1.250 . S
C158 O156 1.248 . S
C159 O160 1.264 . S
C159 O167 1.249 . S
O160 C159 1.264 . S
O161 Mg154 1.986 . S
O161 C165 1.246 . S
O162 Mg157 2.032 . S
O162 C165 1.259 . S
O163 Mg154 2.114 . S
O163 C166 1.252 . S
O164 Mg154 2.251 . S
O164 Mg157 2.079 . S
O164 C166 1.273 . S
C165 O161 1.246 . S
C165 O162 1.259 . S
C166 O163 1.252 . S
C166 O164 1.273 . S
O167 Mg154 2.010 . S
O167 C159 1.249 . S
Mg168 O169 2.028 . S
Mg168 O175 1.986 . S
Mg168 O177 2.114 . S
Mg168 O178 2.251 . S
Mg168 O181 2.010 . S
O169 Mg168 2.028 . S
O169 C172 1.250 . S
O170 Mg171 2.028 . S
O170 C172 1.248 . S
Mg171 O170 2.028 . S
Mg171 O176 2.032 . S
Mg171 O178 2.079 . S
C172 O169 1.250 . S
C172 O170 1.248 . S
C173 O174 1.264 . S
C173 O181 1.249 . S
O174 C173 1.264 . S
O175 Mg168 1.986 . S
O175 C179 1.246 . S
O176 Mg171 2.032 . S
O176 C179 1.259 . S
O177 Mg168 2.114 . S
O177 C180 1.252 . S
O178 Mg168 2.251 . S
O178 Mg171 2.079 . S
O178 C180 1.273 . S
C179 O175 1.246 . S
C179 O176 1.259 . S
C180 O177 1.252 . S
C180 O178 1.273 . S
O181 Mg168 2.010 . S
O181 C173 1.249 . S
Mg182 O183 2.028 . S
Mg182 O189 1.986 . S
Mg182 O191 2.114 . S
Mg182 O192 2.251 . S
Mg182 O195 2.010 . S
O183 Mg182 2.028 . S
O183 C186 1.250 . S
O184 Mg185 2.028 . S
O184 C186 1.248 . S
Mg185 O184 2.028 . S
Mg185 O190 2.032 . S
Mg185 O192 2.079 . S
C186 O183 1.250 . S
C186 O184 1.248 . S
C187 O188 1.264 . S
C187 O195 1.249 . S
O188 C187 1.264 . S
O189 Mg182 1.986 . S
O189 C193 1.246 . S
O190 Mg185 2.032 . S
O190 C193 1.259 . S
O191 Mg182 2.114 . S
O191 C194 1.252 . S
O192 Mg182 2.251 . S
O192 Mg185 2.079 . S
O192 C194 1.273 . S
C193 O189 1.246 . S
C193 O190 1.259 . S
C194 O191 1.252 . S
C194 O192 1.273 . S
O195 Mg182 2.010 . S
O195 C187 1.249 . S
Mg196 O197 2.028 . S
Mg196 O203 1.986 . S
Mg196 O205 2.114 . S
Mg196 O206 2.251 . S
Mg196 O209 2.010 . S
O197 Mg196 2.028 . S
O197 C200 1.250 . S
O198 Mg199 2.028 . S
O198 C200 1.248 . S
Mg199 O198 2.028 . S
Mg199 O204 2.032 . S
Mg199 O206 2.079 . S
C200 O197 1.250 . S
C200 O198 1.248 . S
C201 O202 1.264 . S
C201 O209 1.249 . S
O202 C201 1.264 . S
O203 Mg196 1.986 . S
O203 C207 1.246 . S
O204 Mg199 2.032 . S
O204 C207 1.259 . S
O205 Mg196 2.114 . S
O205 C208 1.252 . S
O206 Mg196 2.251 . S
O206 Mg199 2.079 . S
O206 C208 1.273 . S
C207 O203 1.246 . S
C207 O204 1.259 . S
C208 O205 1.252 . S
C208 O206 1.273 . S
O209 Mg196 2.010 . S
O209 C201 1.249 . S
Mg210 O211 2.028 . S
Mg210 O217 1.986 . S
Mg210 O219 2.114 . S
Mg210 O220 2.251 . S
Mg210 O223 2.010 . S
O211 Mg210 2.028 . S
O211 C214 1.250 . S
O212 Mg213 2.028 . S
O212 C214 1.248 . S
Mg213 O212 2.028 . S
Mg213 O218 2.032 . S
Mg213 O220 2.079 . S
C214 O211 1.250 . S
C214 O212 1.248 . S
C215 O216 1.264 . S
C215 O223 1.249 . S
O216 C215 1.264 . S
O217 Mg210 1.986 . S
O217 C221 1.246 . S
O218 Mg213 2.032 . S
O218 C221 1.259 . S
O219 Mg210 2.114 . S
O219 C222 1.252 . S
O220 Mg210 2.251 . S
O220 Mg213 2.079 . S
O220 C222 1.273 . S
C221 O217 1.246 . S
C221 O218 1.259 . S
C222 O219 1.252 . S
C222 O220 1.273 . S
O223 Mg210 2.010 . S
O223 C215 1.249 . S
Mg224 O225 2.028 . S
Mg224 O231 1.986 . S
Mg224 O233 2.114 . S
Mg224 O234 2.251 . S
Mg224 O237 2.010 . S
O225 Mg224 2.028 . S
O225 C228 1.250 . S
O226 Mg227 2.028 . S
O226 C228 1.248 . S
Mg227 O226 2.028 . S
Mg227 O232 2.032 . S
Mg227 O234 2.079 . S
C228 O225 1.250 . S
C228 O226 1.248 . S
C229 O230 1.264 . S
C229 O237 1.249 . S
O230 C229 1.264 . S
O231 Mg224 1.986 . S
O231 C235 1.246 . S
O232 Mg227 2.032 . S
O232 C235 1.259 . S
O233 Mg224 2.114 . S
O233 C236 1.252 . S
O234 Mg224 2.251 . S
O234 Mg227 2.079 . S
O234 C236 1.273 . S
C235 O231 1.246 . S
C235 O232 1.259 . S
C236 O233 1.252 . S
C236 O234 1.273 . S
O237 Mg224 2.010 . S
O237 C229 1.249 . S
Mg238 O239 2.028 1_565 S
Mg238 O245 1.986 1_565 S
Mg238 O247 2.114 . S
Mg238 O248 2.251 . S
Mg238 O251 2.010 . S
O239 Mg238 2.028 1_545 S
O239 C242 1.250 . S
O240 Mg241 2.028 . S
O240 C242 1.248 . S
Mg241 O240 2.028 . S
Mg241 O246 2.032 . S
Mg241 O248 2.079 1_545 S
C242 O239 1.250 . S
C242 O240 1.248 . S
C243 O244 1.264 . S
C243 O251 1.249 . S
O244 C243 1.264 . S
O245 Mg238 1.986 1_545 S
O245 C249 1.246 . S
O246 Mg241 2.032 . S
O246 C249 1.259 . S
O247 Mg238 2.114 . S
O247 C250 1.252 . S
O248 Mg238 2.251 . S
O248 Mg241 2.079 1_565 S
O248 C250 1.273 . S
C249 O245 1.246 . S
C249 O246 1.259 . S
C250 O247 1.252 . S
C250 O248 1.273 . S
O251 Mg238 2.010 . S
O251 C243 1.249 . S
Mg252 O253 2.028 . S
Mg252 O259 1.986 . S
Mg252 O261 2.114 . S
Mg252 O262 2.251 . S
Mg252 O265 2.010 . S
O253 Mg252 2.028 . S
O253 C256 1.250 . S
O254 Mg255 2.028 . S
O254 C256 1.248 . S
Mg255 O254 2.028 . S
Mg255 O260 2.032 . S
Mg255 O262 2.079 . S
C256 O253 1.250 . S
C256 O254 1.248 . S
C257 O258 1.264 . S
C257 O265 1.249 . S
O258 C257 1.264 . S
O259 Mg252 1.986 . S
O259 C263 1.246 . S
O260 Mg255 2.032 . S
O260 C263 1.259 . S
O261 Mg252 2.114 . S
O261 C264 1.252 . S
O262 Mg252 2.251 . S
O262 Mg255 2.079 . S
O262 C264 1.273 . S
C263 O259 1.246 . S
C263 O260 1.259 . S
C264 O261 1.252 . S
C264 O262 1.273 . S
O265 Mg252 2.010 . S
O265 C257 1.249 . S
Mg266 O267 2.028 1_545 S
Mg266 O273 1.986 1_545 S
Mg266 O275 2.114 . S
Mg266 O276 2.251 . S
Mg266 O279 2.010 . S
O267 Mg266 2.028 1_565 S
O267 C270 1.250 . S
O268 Mg269 2.028 . S
O268 C270 1.248 . S
Mg269 O268 2.028 . S
Mg269 O274 2.032 . S
Mg269 O276 2.079 1_565 S
C270 O267 1.250 . S
C270 O268 1.248 . S
C271 O272 1.264 . S
C271 O279 1.249 . S
O272 C271 1.264 . S
O273 Mg266 1.986 1_565 S
O273 C277 1.246 . S
O274 Mg269 2.032 . S
O274 C277 1.259 . S
O275 Mg266 2.114 . S
O275 C278 1.252 . S
O276 Mg266 2.251 . S
O276 Mg269 2.079 1_545 S
O276 C278 1.273 . S
C277 O273 1.246 . S
C277 O274 1.259 . S
C278 O275 1.252 . S
C278 O276 1.273 . S
O279 Mg266 2.010 . S
O279 C271 1.249 . S
Mg280 O281 2.028 . S
Mg280 O287 1.986 . S
Mg280 O289 2.114 . S
Mg280 O290 2.251 . S
Mg280 O293 2.010 . S
O281 Mg280 2.028 . S
O281 C284 1.250 . S
O282 Mg283 2.028 . S
O282 C284 1.248 . S
Mg283 O282 2.028 . S
Mg283 O288 2.032 . S
Mg283 O290 2.079 . S
C284 O281 1.250 . S
C284 O282 1.248 . S
C285 O286 1.264 . S
C285 O293 1.249 . S
O286 C285 1.264 . S
O287 Mg280 1.986 . S
O287 C291 1.246 . S
O288 Mg283 2.032 . S
O288 C291 1.259 . S
O289 Mg280 2.114 . S
O289 C292 1.252 . S
O290 Mg280 2.251 . S
O290 Mg283 2.079 . S
O290 C292 1.273 . S
C291 O287 1.246 . S
C291 O288 1.259 . S
C292 O289 1.252 . S
C292 O290 1.273 . S
O293 Mg280 2.010 . S
O293 C285 1.249 . S
Mg294 O295 2.028 1_554 S
Mg294 O301 1.986 1_554 S
Mg294 O303 2.114 . S
Mg294 O304 2.251 . S
Mg294 O307 2.010 . S
O295 Mg294 2.028 1_556 S
O295 C298 1.250 . S
O296 Mg297 2.028 . S
O296 C298 1.248 . S
Mg297 O296 2.028 . S
Mg297 O302 2.032 . S
Mg297 O304 2.079 1_556 S
C298 O295 1.250 . S
C298 O296 1.248 . S
C299 O300 1.264 . S
C299 O307 1.249 . S
O300 C299 1.264 . S
O301 Mg294 1.986 1_556 S
O301 C305 1.246 . S
O302 Mg297 2.032 . S
O302 C305 1.259 . S
O303 Mg294 2.114 . S
O303 C306 1.252 . S
O304 Mg294 2.251 . S
O304 Mg297 2.079 1_554 S
O304 C306 1.273 . S
C305 O301 1.246 . S
C305 O302 1.259 . S
C306 O303 1.252 . S
C306 O304 1.273 . S
O307 Mg294 2.010 . S
O307 C299 1.249 . S
Mg308 O309 2.028 1_554 S
Mg308 O315 1.986 1_554 S
Mg308 O317 2.114 . S
Mg308 O318 2.251 . S
Mg308 O321 2.010 . S
O309 Mg308 2.028 1_556 S
O309 C312 1.250 . S
O310 Mg311 2.028 . S
O310 C312 1.248 . S
Mg311 O310 2.028 . S
Mg311 O316 2.032 . S
Mg311 O318 2.079 1_556 S
C312 O309 1.250 . S
C312 O310 1.248 . S
C313 O314 1.264 . S
C313 O321 1.249 . S
O314 C313 1.264 . S
O315 Mg308 1.986 1_556 S
O315 C319 1.246 . S
O316 Mg311 2.032 . S
O316 C319 1.259 . S
O317 Mg308 2.114 . S
O317 C320 1.252 . S
O318 Mg308 2.251 . S
O318 Mg311 2.079 1_554 S
O318 C320 1.273 . S
C319 O315 1.246 . S
C319 O316 1.259 . S
C320 O317 1.252 . S
C320 O318 1.273 . S
O321 Mg308 2.010 . S
O321 C313 1.249 . S
Mg322 O323 2.028 1_556 S
Mg322 O329 1.986 1_556 S
Mg322 O331 2.114 . S
Mg322 O332 2.251 . S
Mg322 O335 2.010 . S
O323 Mg322 2.028 1_554 S
O323 C326 1.250 . S
O324 Mg325 2.028 . S
O324 C326 1.248 . S
Mg325 O324 2.028 . S
Mg325 O330 2.032 . S
Mg325 O332 2.079 1_554 S
C326 O323 1.250 . S
C326 O324 1.248 . S
C327 O328 1.264 . S
C327 O335 1.249 . S
O328 C327 1.264 . S
O329 Mg322 1.986 1_554 S
O329 C333 1.246 . S
O330 Mg325 2.032 . S
O330 C333 1.259 . S
O331 Mg322 2.114 . S
O331 C334 1.252 . S
O332 Mg322 2.251 . S
O332 Mg325 2.079 1_556 S
O332 C334 1.273 . S
C333 O329 1.246 . S
C333 O330 1.259 . S
C334 O331 1.252 . S
C334 O332 1.273 . S
O335 Mg322 2.010 . S
O335 C327 1.249 . S
C336 C337 1.349 . S
C336 C338 1.327 . S
C336 H361 0.950 . S
C337 C336 1.349 . S
C337 C353 1.349 . S
C338 C336 1.327 . S
C338 C357 1.429 . S
C338 H362 0.950 . S
C339 C356 1.574 . S
C339 C358 1.368 . S
C339 H363 0.949 . S
H340 C344 0.949 . S
C341 C342 1.349 . S
C341 C343 1.327 . S
C341 H364 0.950 . S
C342 C341 1.349 . S
C342 C354 1.349 . S
C343 C341 1.327 . S
C343 C359 1.429 . S
C343 H365 0.950 . S
C344 H340 0.949 . S
C344 C352 1.574 . S
C344 C360 1.368 . S
H345 C353 0.950 . S
H346 C351 0.950 . S
H347 C352 0.949 . S
H348 C354 0.950 . S
H349 C355 0.950 . S
H350 C356 0.949 . S
C351 H346 0.950 . S
C351 C353 1.327 . S
C351 C357 1.429 . S
C352 C344 1.574 . S
C352 H347 0.949 . S
C352 C358 1.368 . S
C353 C337 1.349 . S
C353 H345 0.950 . S
C353 C351 1.327 . S
C354 C342 1.349 . S
C354 H348 0.950 . S
C354 C355 1.327 . S
C355 H349 0.950 . S
C355 C354 1.327 . S
C355 C359 1.429 . S
C356 C339 1.574 . S
C356 H350 0.949 . S
C356 C360 1.368 . S
C357 C338 1.429 . S
C357 C351 1.429 . S
C357 C358 1.523 . S
C358 C339 1.368 . S
C358 C352 1.368 . S
C358 C357 1.523 . S
C359 C343 1.429 . S
C359 C355 1.429 . S
C359 C360 1.523 . S
C360 C344 1.368 . S
C360 C356 1.368 . S
C360 C359 1.523 . S
H361 C336 0.950 . S
H362 C338 0.950 . S
H363 C339 0.949 . S
H364 C341 0.950 . S
H365 C343 0.950 . S
C366 C367 1.349 . S
C366 C368 1.327 . S
C366 H391 0.950 . S
C367 C366 1.349 . S
C367 C383 1.349 . S
C368 C366 1.327 . S
C368 C387 1.429 . S
C368 H392 0.950 . S
C369 C386 1.574 . S
C369 C388 1.368 . S
C369 H393 0.949 . S
H370 C374 0.949 . S
C371 C372 1.349 . S
C371 C373 1.327 . S
C371 H394 0.950 . S
C372 C371 1.349 . S
C372 C384 1.349 . S
C373 C371 1.327 . S
C373 C389 1.429 . S
C373 H395 0.950 . S
C374 H370 0.949 . S
C374 C382 1.574 . S
C374 C390 1.368 . S
H375 C383 0.950 . S
H376 C381 0.950 . S
H377 C382 0.949 . S
H378 C384 0.950 . S
H379 C385 0.950 . S
H380 C386 0.949 . S
C381 H376 0.950 . S
C381 C383 1.327 . S
C381 C387 1.429 . S
C382 C374 1.574 . S
C382 H377 0.949 . S
C382 C388 1.368 . S
C383 C367 1.349 . S
C383 H375 0.950 . S
C383 C381 1.327 . S
C384 C372 1.349 . S
C384 H378 0.950 . S
C384 C385 1.327 . S
C385 H379 0.950 . S
C385 C384 1.327 . S
C385 C389 1.429 . S
C386 C369 1.574 . S
C386 H380 0.949 . S
C386 C390 1.368 . S
C387 C368 1.429 . S
C387 C381 1.429 . S
C387 C388 1.523 . S
C388 C369 1.368 . S
C388 C382 1.368 . S
C388 C387 1.523 . S
C389 C373 1.429 . S
C389 C385 1.429 . S
C389 C390 1.523 . S
C390 C374 1.368 . S
C390 C386 1.368 . S
C390 C389 1.523 . S
H391 C366 0.950 . S
H392 C368 0.950 . S
H393 C369 0.949 . S
H394 C371 0.950 . S
H395 C373 0.950 . S
C396 C397 1.349 . S
C396 C398 1.327 . S
C396 H421 0.950 . S
C397 C396 1.349 . S
C397 C413 1.349 . S
C398 C396 1.327 . S
C398 C417 1.429 . S
C398 H422 0.950 . S
C399 C416 1.574 1_554 S
C399 C418 1.368 . S
C399 H423 0.949 . S
H400 C404 0.949 . S
C401 C402 1.349 . S
C401 C403 1.327 . S
C401 H424 0.950 . S
C402 C401 1.349 . S
C402 C414 1.349 . S
C403 C401 1.327 . S
C403 C419 1.429 . S
C403 H425 0.950 . S
C404 H400 0.949 . S
C404 C412 1.574 . S
C404 C420 1.368 1_554 S
H405 C413 0.950 . S
H406 C411 0.950 . S
H407 C412 0.949 . S
H408 C414 0.950 . S
H409 C415 0.950 . S
H410 C416 0.949 . S
C411 H406 0.950 . S
C411 C413 1.327 . S
C411 C417 1.429 . S
C412 C404 1.574 . S
C412 H407 0.949 . S
C412 C418 1.368 . S
C413 C397 1.349 . S
C413 H405 0.950 . S
C413 C411 1.327 . S
C414 C402 1.349 . S
C414 H408 0.950 . S
C414 C415 1.327 . S
C415 H409 0.950 . S
C415 C414 1.327 . S
C415 C419 1.429 . S
C416 C399 1.574 1_556 S
C416 H410 0.949 . S
C416 C420 1.368 . S
C417 C398 1.429 . S
C417 C411 1.429 . S
C417 C418 1.523 . S
C418 C399 1.368 . S
C418 C412 1.368 . S
C418 C417 1.523 . S
C419 C403 1.429 . S
C419 C415 1.429 . S
C419 C420 1.523 . S
C420 C404 1.368 1_556 S
C420 C416 1.368 . S
C420 C419 1.523 . S
H421 C396 0.950 . S
H422 C398 0.950 . S
H423 C399 0.949 . S
H424 C401 0.950 . S
H425 C403 0.950 . S
C426 C427 1.349 . S
C426 C428 1.327 . S
C426 H451 0.950 . S
C427 C426 1.349 . S
C427 C443 1.349 . S
C428 C426 1.327 . S
C428 C447 1.429 . S
C428 H452 0.950 . S
C429 C446 1.574 1_554 S
C429 C448 1.368 . S
C429 H453 0.949 . S
H430 C434 0.949 1_556 S
C431 C432 1.349 . S
C431 C433 1.327 . S
C431 H454 0.950 . S
C432 C431 1.349 . S
C432 C444 1.349 . S
C433 C431 1.327 . S
C433 C449 1.429 . S
C433 H455 0.950 . S
C434 H430 0.949 1_554 S
C434 C442 1.574 . S
C434 C450 1.368 1_554 S
H435 C443 0.950 . S
H436 C441 0.950 . S
H437 C442 0.949 . S
H438 C444 0.950 . S
H439 C445 0.950 . S
H440 C446 0.949 . S
C441 H436 0.950 . S
C441 C443 1.327 . S
C441 C447 1.429 . S
C442 C434 1.574 . S
C442 H437 0.949 . S
C442 C448 1.368 . S
C443 C427 1.349 . S
C443 H435 0.950 . S
C443 C441 1.327 . S
C444 C432 1.349 . S
C444 H438 0.950 . S
C444 C445 1.327 . S
C445 H439 0.950 . S
C445 C444 1.327 . S
C445 C449 1.429 . S
C446 C429 1.574 1_556 S
C446 H440 0.949 . S
C446 C450 1.368 . S
C447 C428 1.429 . S
C447 C441 1.429 . S
C447 C448 1.523 . S
C448 C429 1.368 . S
C448 C442 1.368 . S
C448 C447 1.523 . S
C449 C433 1.429 . S
C449 C445 1.429 . S
C449 C450 1.523 . S
C450 C434 1.368 1_556 S
C450 C446 1.368 . S
C450 C449 1.523 . S
H451 C426 0.950 . S
H452 C428 0.950 . S
H453 C429 0.949 . S
H454 C431 0.950 . S
H455 C433 0.950 . S
C456 C457 1.349 . S
C456 C458 1.327 . S
C456 H481 0.950 . S
C457 C456 1.349 . S
C457 C473 1.349 . S
C458 C456 1.327 . S
C458 C477 1.429 . S
C458 H482 0.950 . S
C459 C476 1.574 . S
C459 C478 1.368 . S
C459 H483 0.949 . S
H460 C464 0.949 . S
C461 C462 1.349 . S
C461 C463 1.327 . S
C461 H484 0.950 . S
C462 C461 1.349 . S
C462 C474 1.349 . S
C463 C461 1.327 . S
C463 C479 1.429 . S
C463 H485 0.950 . S
C464 H460 0.949 . S
C464 C472 1.574 . S
C464 C480 1.368 . S
H465 C473 0.950 . S
H466 C471 0.950 . S
H467 C472 0.949 . S
H468 C474 0.950 . S
H469 C475 0.950 . S
H470 C476 0.949 . S
C471 H466 0.950 . S
C471 C473 1.327 . S
C471 C477 1.429 . S
C472 C464 1.574 . S
C472 H467 0.949 . S
C472 C478 1.368 . S
C473 C457 1.349 . S
C473 H465 0.950 . S
C473 C471 1.327 . S
C474 C462 1.349 . S
C474 H468 0.950 . S
C474 C475 1.327 . S
C475 H469 0.950 . S
C475 C474 1.327 . S
C475 C479 1.429 . S
C476 C459 1.574 . S
C476 H470 0.949 . S
C476 C480 1.368 . S
C477 C458 1.429 . S
C477 C471 1.429 . S
C477 C478 1.523 . S
C478 C459 1.368 . S
C478 C472 1.368 . S
C478 C477 1.523 . S
C479 C463 1.429 . S
C479 C475 1.429 . S
C479 C480 1.523 . S
C480 C464 1.368 . S
C480 C476 1.368 . S
C480 C479 1.523 . S
H481 C456 0.950 . S
H482 C458 0.950 . S
H483 C459 0.949 . S
H484 C461 0.950 . S
H485 C463 0.950 . S
C486 C487 1.349 . S
C486 C488 1.327 . S
C486 H511 0.950 . S
C487 C486 1.349 . S
C487 C503 1.349 . S
C488 C486 1.327 . S
C488 C507 1.429 . S
C488 H512 0.950 . S
C489 C506 1.574 . S
C489 C508 1.368 . S
C489 H513 0.949 . S
H490 C494 0.949 . S
C491 C492 1.349 . S
C491 C493 1.327 . S
C491 H514 0.950 . S
C492 C491 1.349 . S
C492 C504 1.349 . S
C493 C491 1.327 . S
C493 C509 1.429 . S
C493 H515 0.950 . S
C494 H490 0.949 . S
C494 C502 1.574 . S
C494 C510 1.368 . S
H495 C503 0.950 . S
H496 C501 0.950 . S
H497 C502 0.949 . S
H498 C504 0.950 . S
H499 C505 0.950 . S
H500 C506 0.949 . S
C501 H496 0.950 . S
C501 C503 1.327 . S
C501 C507 1.429 . S
C502 C494 1.574 . S
C502 H497 0.949 . S
C502 C508 1.368 . S
C503 C487 1.349 . S
C503 H495 0.950 . S
C503 C501 1.327 . S
C504 C492 1.349 . S
C504 H498 0.950 . S
C504 C505 1.327 . S
C505 H499 0.950 . S
C505 C504 1.327 . S
C505 C509 1.429 . S
C506 C489 1.574 . S
C506 H500 0.949 . S
C506 C510 1.368 . S
C507 C488 1.429 . S
C507 C501 1.429 . S
C507 C508 1.523 . S
C508 C489 1.368 . S
C508 C502 1.368 . S
C508 C507 1.523 . S
C509 C493 1.429 . S
C509 C505 1.429 . S
C509 C510 1.523 . S
C510 C494 1.368 . S
C510 C506 1.368 . S
C510 C509 1.523 . S
H511 C486 0.950 . S
H512 C488 0.950 . S
H513 C489 0.949 . S
H514 C491 0.950 . S
H515 C493 0.950 . S
C516 C517 1.349 . S
C516 C518 1.327 . S
C516 H541 0.950 . S
C517 C516 1.349 . S
C517 C533 1.349 . S
C518 C516 1.327 . S
C518 C537 1.429 . S
C518 H542 0.950 . S
C519 C536 1.574 . S
C519 C538 1.368 . S
C519 H543 0.949 . S
H520 C524 0.949 . S
C521 C522 1.349 . S
C521 C523 1.327 . S
C521 H544 0.950 . S
C522 C521 1.349 . S
C522 C534 1.349 . S
C523 C521 1.327 . S
C523 C539 1.429 . S
C523 H545 0.950 . S
C524 H520 0.949 . S
C524 C532 1.574 . S
C524 C540 1.368 . S
H525 C533 0.950 . S
H526 C531 0.950 . S
H527 C532 0.949 . S
H528 C534 0.950 . S
H529 C535 0.950 . S
H530 C536 0.949 . S
C531 H526 0.950 . S
C531 C533 1.327 . S
C531 C537 1.429 . S
C532 C524 1.574 . S
C532 H527 0.949 . S
C532 C538 1.368 . S
C533 C517 1.349 . S
C533 H525 0.950 . S
C533 C531 1.327 . S
C534 C522 1.349 . S
C534 H528 0.950 . S
C534 C535 1.327 . S
C535 H529 0.950 . S
C535 C534 1.327 . S
C535 C539 1.429 . S
C536 C519 1.574 . S
C536 H530 0.949 . S
C536 C540 1.368 . S
C537 C518 1.429 . S
C537 C531 1.429 . S
C537 C538 1.523 . S
C538 C519 1.368 . S
C538 C532 1.368 . S
C538 C537 1.523 . S
C539 C523 1.429 . S
C539 C535 1.429 . S
C539 C540 1.523 . S
C540 C524 1.368 . S
C540 C536 1.368 . S
C540 C539 1.523 . S
H541 C516 0.950 . S
H542 C518 0.950 . S
H543 C519 0.949 . S
H544 C521 0.950 . S
H545 C523 0.950 . S
C546 C547 1.349 . S
C546 C548 1.327 . S
C546 H571 0.950 . S
C547 C546 1.349 . S
C547 C563 1.349 . S
C548 C546 1.327 . S
C548 C567 1.429 . S
C548 H572 0.950 . S
C549 C566 1.574 . S
C549 C568 1.368 . S
C549 H573 0.949 . S
H550 C554 0.949 . S
C551 C552 1.349 . S
C551 C553 1.327 . S
C551 H574 0.950 . S
C552 C551 1.349 . S
C552 C564 1.349 . S
C553 C551 1.327 . S
C553 C569 1.429 . S
C553 H575 0.950 . S
C554 H550 0.949 . S
C554 C562 1.574 . S
C554 C570 1.368 . S
H555 C563 0.950 . S
H556 C561 0.950 . S
H557 C562 0.949 . S
H558 C564 0.950 . S
H559 C565 0.950 . S
H560 C566 0.949 . S
C561 H556 0.950 . S
C561 C563 1.327 . S
C561 C567 1.429 . S
C562 C554 1.574 . S
C562 H557 0.949 . S
C562 C568 1.368 . S
C563 C547 1.349 . S
C563 H555 0.950 . S
C563 C561 1.327 . S
C564 C552 1.349 . S
C564 H558 0.950 . S
C564 C565 1.327 . S
C565 H559 0.950 . S
C565 C564 1.327 . S
C565 C569 1.429 . S
C566 C549 1.574 . S
C566 H560 0.949 . S
C566 C570 1.368 . S
C567 C548 1.429 . S
C567 C561 1.429 . S
C567 C568 1.523 . S
C568 C549 1.368 . S
C568 C562 1.368 . S
C568 C567 1.523 . S
C569 C553 1.429 . S
C569 C565 1.429 . S
C569 C570 1.523 . S
C570 C554 1.368 . S
C570 C566 1.368 . S
C570 C569 1.523 . S
H571 C546 0.950 . S
H572 C548 0.950 . S
H573 C549 0.949 . S
H574 C551 0.950 . S
H575 C553 0.950 . S
C576 C577 1.349 . S
C576 C578 1.327 . S
C576 H601 0.950 . S
C577 C576 1.349 . S
C577 C593 1.349 . S
C578 C576 1.327 . S
C578 C597 1.429 . S
C578 H602 0.950 . S
C579 C596 1.574 . S
C579 C598 1.368 . S
C579 H603 0.949 . S
H580 C584 0.949 . S
C581 C582 1.349 . S
C581 C583 1.327 . S
C581 H604 0.950 . S
C582 C581 1.349 . S
C582 C594 1.349 . S
C583 C581 1.327 . S
C583 C599 1.429 . S
C583 H605 0.950 . S
C584 H580 0.949 . S
C584 C592 1.574 . S
C584 C600 1.368 . S
H585 C593 0.950 . S
H586 C591 0.950 . S
H587 C592 0.949 . S
H588 C594 0.950 . S
H589 C595 0.950 . S
H590 C596 0.949 . S
C591 H586 0.950 . S
C591 C593 1.327 . S
C591 C597 1.429 . S
C592 C584 1.574 . S
C592 H587 0.949 . S
C592 C598 1.368 . S
C593 C577 1.349 . S
C593 H585 0.950 . S
C593 C591 1.327 . S
C594 C582 1.349 . S
C594 H588 0.950 . S
C594 C595 1.327 . S
C595 H589 0.950 . S
C595 C594 1.327 . S
C595 C599 1.429 . S
C596 C579 1.574 . S
C596 H590 0.949 . S
C596 C600 1.368 . S
C597 C578 1.429 . S
C597 C591 1.429 . S
C597 C598 1.523 . S
C598 C579 1.368 . S
C598 C592 1.368 . S
C598 C597 1.523 . S
C599 C583 1.429 . S
C599 C595 1.429 . S
C599 C600 1.523 . S
C600 C584 1.368 . S
C600 C596 1.368 . S
C600 C599 1.523 . S
H601 C576 0.950 . S
H602 C578 0.950 . S
H603 C579 0.949 . S
H604 C581 0.950 . S
H605 C583 0.950 . S
C606 C607 1.349 . S
C606 C608 1.327 . S
C606 H631 0.950 . S
C607 C606 1.349 . S
C607 C623 1.349 . S
C608 C606 1.327 . S
C608 C627 1.429 . S
C608 H632 0.950 . S
C609 C626 1.574 . S
C609 C628 1.368 . S
C609 H633 0.949 . S
H610 C614 0.949 . S
C611 C612 1.349 . S
C611 C613 1.327 . S
C611 H634 0.950 . S
C612 C611 1.349 . S
C612 C624 1.349 . S
C613 C611 1.327 . S
C613 C629 1.429 . S
C613 H635 0.950 . S
C614 H610 0.949 . S
C614 C622 1.574 . S
C614 C630 1.368 . S
H615 C623 0.950 . S
H616 C621 0.950 . S
H617 C622 0.949 . S
H618 C624 0.950 . S
H619 C625 0.950 . S
H620 C626 0.949 . S
C621 H616 0.950 . S
C621 C623 1.327 . S
C621 C627 1.429 . S
C622 C614 1.574 . S
C622 H617 0.949 . S
C622 C628 1.368 . S
C623 C607 1.349 . S
C623 H615 0.950 . S
C623 C621 1.327 . S
C624 C612 1.349 . S
C624 H618 0.950 . S
C624 C625 1.327 . S
C625 H619 0.950 . S
C625 C624 1.327 . S
C625 C629 1.429 . S
C626 C609 1.574 . S
C626 H620 0.949 . S
C626 C630 1.368 . S
C627 C608 1.429 . S
C627 C621 1.429 . S
C627 C628 1.523 . S
C628 C609 1.368 . S
C628 C622 1.368 . S
C628 C627 1.523 . S
C629 C613 1.429 . S
C629 C625 1.429 . S
C629 C630 1.523 . S
C630 C614 1.368 . S
C630 C626 1.368 . S
C630 C629 1.523 . S
H631 C606 0.950 . S
H632 C608 0.950 . S
H633 C609 0.949 . S
H634 C611 0.950 . S
H635 C613 0.950 . S
C636 C637 1.349 . S
C636 C638 1.327 . S
C636 H661 0.950 . S
C637 C636 1.349 . S
C637 C653 1.349 . S
C638 C636 1.327 . S
C638 C657 1.429 . S
C638 H662 0.950 . S
C639 C656 1.574 . S
C639 C658 1.368 . S
C639 H663 0.949 . S
H640 C644 0.949 1_545 S
C641 C642 1.349 . S
C641 C643 1.327 . S
C641 H664 0.950 . S
C642 C641 1.349 . S
C642 C654 1.349 . S
C643 C641 1.327 . S
C643 C659 1.429 . S
C643 H665 0.950 . S
C644 H640 0.949 1_565 S
C644 C652 1.574 . S
C644 C660 1.371 . S
H645 C653 0.950 . S
H646 C651 0.950 . S
H647 C652 0.949 . S
H648 C654 0.950 . S
H649 C655 0.950 . S
H650 C656 0.949 . S
C651 H646 0.950 . S
C651 C653 1.327 . S
C651 C657 1.429 . S
C652 C644 1.574 . S
C652 H647 0.949 . S
C652 C658 1.368 . S
C653 C637 1.349 . S
C653 H645 0.950 . S
C653 C651 1.327 . S
C654 C642 1.349 . S
C654 H648 0.950 . S
C654 C655 1.327 . S
C655 H649 0.950 . S
C655 C654 1.327 . S
C655 C659 1.429 . S
C656 C639 1.574 . S
C656 H650 0.949 . S
C656 C660 1.386 . S
C657 C638 1.429 . S
C657 C651 1.429 . S
C657 C658 1.523 . S
C658 C639 1.368 . S
C658 C652 1.368 . S
C658 C657 1.523 . S
C659 C643 1.429 . S
C659 C655 1.429 . S
C659 C660 1.497 1_545 S
C660 C644 1.371 . S
C660 C656 1.386 . S
C660 C659 1.497 1_565 S
H661 C636 0.950 . S
H662 C638 0.950 . S
H663 C639 0.949 . S
H664 C641 0.950 . S
H665 C643 0.950 . S
C666 C667 1.349 . S
C666 C668 1.327 . S
C666 H691 0.950 . S
C667 C666 1.349 . S
C667 C683 1.349 . S
C668 C666 1.327 . S
C668 C687 1.429 . S
C668 H692 0.950 . S
C669 C686 1.574 . S
C669 C688 1.368 . S
C669 H693 0.949 . S
H670 C674 0.949 . S
C671 C672 1.349 . S
C671 C673 1.327 . S
C671 H694 0.950 . S
C672 C671 1.349 . S
C672 C684 1.349 . S
C673 C671 1.327 . S
C673 C689 1.429 . S
C673 H695 0.950 . S
C674 H670 0.949 . S
C674 C682 1.574 . S
C674 C690 1.368 . S
H675 C683 0.950 . S
H676 C681 0.950 . S
H677 C682 0.949 . S
H678 C684 0.950 . S
H679 C685 0.950 . S
H680 C686 0.949 . S
C681 H676 0.950 . S
C681 C683 1.327 . S
C681 C687 1.429 . S
C682 C674 1.574 . S
C682 H677 0.949 . S
C682 C688 1.368 . S
C683 C667 1.349 . S
C683 H675 0.950 . S
C683 C681 1.327 . S
C684 C672 1.349 . S
C684 H678 0.950 . S
C684 C685 1.327 . S
C685 H679 0.950 . S
C685 C684 1.327 . S
C685 C689 1.429 . S
C686 C669 1.574 . S
C686 H680 0.949 . S
C686 C690 1.368 . S
C687 C668 1.429 . S
C687 C681 1.429 . S
C687 C688 1.523 . S
C688 C669 1.368 . S
C688 C682 1.368 . S
C688 C687 1.523 . S
C689 C673 1.429 . S
C689 C685 1.429 . S
C689 C690 1.523 . S
C690 C674 1.368 . S
C690 C686 1.368 . S
C690 C689 1.523 . S
H691 C666 0.950 . S
H692 C668 0.950 . S
H693 C669 0.949 . S
H694 C671 0.950 . S
H695 C673 0.950 . S
C696 C697 1.349 . S
C696 C698 1.327 . S
C696 H721 0.950 . S
C697 C696 1.349 . S
C697 C713 1.349 . S
C698 C696 1.327 . S
C698 C717 1.429 . S
C698 H722 0.950 . S
C699 C716 1.553 1_554 S
C699 C718 1.379 . S
C699 H723 0.958 . S
H700 C704 0.949 . S
C701 C702 1.349 . S
C701 C703 1.327 . S
C701 H724 0.950 . S
C702 C701 1.349 . S
C702 C714 1.349 . S
C703 C701 1.327 . S
C703 C719 1.429 . S
C703 H725 0.950 . S
C704 H700 0.949 . S
C704 C712 1.574 1_556 S
C704 C720 1.368 . S
H705 C713 0.950 . S
H706 C711 0.950 . S
H707 C712 0.949 . S
H708 C714 0.950 . S
H709 C715 0.950 . S
H710 C716 0.949 . S
C711 H706 0.950 . S
C711 C713 1.327 . S
C711 C717 1.429 . S
C712 C704 1.574 1_554 S
C712 H707 0.949 . S
C712 C718 1.368 . S
C713 C697 1.349 . S
C713 H705 0.950 . S
C713 C711 1.327 . S
C714 C702 1.349 . S
C714 H708 0.950 . S
C714 C715 1.327 . S
C715 H709 0.950 . S
C715 C714 1.327 . S
C715 C719 1.429 . S
C716 C699 1.553 1_556 S
C716 H710 0.949 . S
C716 C720 1.368 . S
C717 C698 1.429 . S
C717 C711 1.429 . S
C717 C718 1.523 . S
C718 C699 1.379 . S
C718 C712 1.368 . S
C718 C717 1.523 . S
C719 C703 1.429 . S
C719 C715 1.429 . S
C719 C720 1.523 . S
C720 C704 1.368 . S
C720 C716 1.368 . S
C720 C719 1.523 . S
H721 C696 0.950 . S
H722 C698 0.950 . S
H723 C699 0.958 . S
H724 C701 0.950 . S
H725 C703 0.950 . S
C726 C727 1.349 . S
C726 C728 1.327 . S
C726 H751 0.950 . S
C727 C726 1.349 . S
C727 C743 1.349 . S
C728 C726 1.327 . S
C728 C747 1.429 . S
C728 H752 0.950 . S
C729 C746 1.574 1_554 S
C729 C748 1.368 . S
C729 H753 0.949 . S
H730 C734 0.949 . S
C731 C732 1.349 . S
C731 C733 1.327 . S
C731 H754 0.950 . S
C732 C731 1.349 . S
C732 C744 1.349 . S
C733 C731 1.327 . S
C733 C749 1.429 . S
C733 H755 0.950 . S
C734 H730 0.949 . S
C734 C742 1.574 1_556 S
C734 C750 1.368 . S
H735 C743 0.950 . S
H736 C741 0.950 . S
H737 C742 0.949 . S
H738 C744 0.950 . S
H739 C745 0.950 . S
H740 C746 0.949 . S
C741 H736 0.950 . S
C741 C743 1.327 . S
C741 C747 1.429 . S
C742 C734 1.574 1_554 S
C742 H737 0.949 . S
C742 C748 1.368 . S
C743 C727 1.349 . S
C743 H735 0.950 . S
C743 C741 1.327 . S
C744 C732 1.349 . S
C744 H738 0.950 . S
C744 C745 1.327 . S
C745 H739 0.950 . S
C745 C744 1.327 . S
C745 C749 1.429 . S
C746 C729 1.574 1_556 S
C746 H740 0.949 . S
C746 C750 1.368 . S
C747 C728 1.429 . S
C747 C741 1.429 . S
C747 C748 1.523 . S
C748 C729 1.368 . S
C748 C742 1.368 . S
C748 C747 1.523 . S
C749 C733 1.429 . S
C749 C745 1.429 . S
C749 C750 1.523 . S
C750 C734 1.368 . S
C750 C746 1.368 . S
C750 C749 1.523 . S
H751 C726 0.950 . S
H752 C728 0.950 . S
H753 C729 0.949 . S
H754 C731 0.950 . S
H755 C733 0.950 . S
C756 C757 1.349 . S
C756 C758 1.327 . S
C756 H781 0.950 . S
C757 C756 1.349 . S
C757 C773 1.349 . S
C758 C756 1.327 . S
C758 C777 1.429 . S
C758 H782 0.950 . S
C759 C776 1.574 . S
C759 C778 1.368 . S
C759 H783 0.949 . S
H760 C764 0.949 . S
C761 C762 1.349 . S
C761 C763 1.327 . S
C761 H784 0.950 . S
C762 C761 1.349 . S
C762 C774 1.349 . S
C763 C761 1.327 . S
C763 C779 1.429 . S
C763 H785 0.950 . S
C764 H760 0.949 . S
C764 C772 1.574 . S
C764 C780 1.368 . S
H765 C773 0.950 . S
H766 C771 0.950 . S
H767 C772 0.949 . S
H768 C774 0.950 . S
H769 C775 0.950 . S
H770 C776 0.949 . S
C771 H766 0.950 . S
C771 C773 1.327 . S
C771 C777 1.429 . S
C772 C764 1.574 . S
C772 H767 0.949 . S
C772 C778 1.368 . S
C773 C757 1.349 . S
C773 H765 0.950 . S
C773 C771 1.327 . S
C774 C762 1.349 . S
C774 H768 0.950 . S
C774 C775 1.327 . S
C775 H769 0.950 . S
C775 C774 1.327 . S
C775 C779 1.429 . S
C776 C759 1.574 . S
C776 H770 0.949 . S
C776 C780 1.368 . S
C777 C758 1.429 . S
C777 C771 1.429 . S
C777 C778 1.523 . S
C778 C759 1.368 . S
C778 C772 1.368 . S
C778 C777 1.523 . S
C779 C763 1.429 . S
C779 C775 1.429 . S
C779 C780 1.523 . S
C780 C764 1.368 . S
C780 C776 1.368 . S
C780 C779 1.523 . S
H781 C756 0.950 . S
H782 C758 0.950 . S
H783 C759 0.949 . S
H784 C761 0.950 . S
H785 C763 0.950 . S
C786 C787 1.349 . S
C786 C788 1.327 . S
C786 H811 0.950 . S
C787 C786 1.349 . S
C787 C803 1.349 . S
C788 C786 1.327 . S
C788 C807 1.429 . S
C788 H812 0.950 . S
C789 C806 1.574 . S
C789 C808 1.368 . S
C789 H813 0.949 . S
H790 C794 0.949 . S
C791 C792 1.349 . S
C791 C793 1.327 . S
C791 H814 0.950 . S
C792 C791 1.349 . S
C792 C804 1.349 . S
C793 C791 1.327 . S
C793 C809 1.429 . S
C793 H815 0.950 . S
C794 H790 0.949 . S
C794 C802 1.574 . S
C794 C810 1.368 . S
H795 C803 0.950 . S
H796 C801 0.950 . S
H797 C802 0.949 . S
H798 C804 0.950 . S
H799 C805 0.950 . S
H800 C806 0.949 . S
C801 H796 0.950 . S
C801 C803 1.327 . S
C801 C807 1.429 . S
C802 C794 1.574 . S
C802 H797 0.949 . S
C802 C808 1.368 . S
C803 C787 1.349 . S
C803 H795 0.950 . S
C803 C801 1.327 . S
C804 C792 1.349 . S
C804 H798 0.950 . S
C804 C805 1.327 . S
C805 H799 0.950 . S
C805 C804 1.327 . S
C805 C809 1.429 . S
C806 C789 1.574 . S
C806 H800 0.949 . S
C806 C810 1.368 . S
C807 C788 1.429 . S
C807 C801 1.429 . S
C807 C808 1.523 . S
C808 C789 1.368 . S
C808 C802 1.368 . S
C808 C807 1.523 . S
C809 C793 1.429 . S
C809 C805 1.429 . S
C809 C810 1.523 . S
C810 C794 1.368 . S
C810 C806 1.368 . S
C810 C809 1.523 . S
H811 C786 0.950 . S
H812 C788 0.950 . S
H813 C789 0.949 . S
H814 C791 0.950 . S
H815 C793 0.950 . S
C816 C817 1.349 . S
C816 C818 1.327 . S
C816 H841 0.950 . S
C817 C816 1.349 . S
C817 C833 1.349 . S
C818 C816 1.327 . S
C818 C837 1.429 . S
C818 H842 0.950 . S
C819 C836 1.574 . S
C819 C838 1.368 1_655 S
C819 H843 0.949 . S
H820 C824 0.949 . S
C821 C822 1.349 . S
C821 C823 1.327 . S
C821 H844 0.950 . S
C822 C821 1.349 . S
C822 C834 1.349 . S
C823 C821 1.327 . S
C823 C839 1.429 . S
C823 H845 0.950 . S
C824 H820 0.949 . S
C824 C832 1.617 . S
C824 C840 1.368 . S
H825 C833 0.950 . S
H826 C831 0.950 . S
H827 C832 0.918 1_455 S
H828 C834 0.950 . S
H829 C835 0.950 . S
H830 C836 0.949 . S
C831 H826 0.950 . S
C831 C833 1.327 . S
C831 C837 1.429 . S
C832 C824 1.617 . S
C832 H827 0.918 1_655 S
C832 C838 1.361 1_655 S
C833 C817 1.349 . S
C833 H825 0.950 . S
C833 C831 1.327 . S
C834 C822 1.349 . S
C834 H828 0.950 . S
C834 C835 1.327 . S
C835 H829 0.950 . S
C835 C834 1.327 . S
C835 C839 1.429 . S
C836 C819 1.574 . S
C836 H830 0.949 . S
C836 C840 1.368 . S
C837 C818 1.429 . S
C837 C831 1.429 . S
C837 C838 1.523 . S
C838 C819 1.368 1_455 S
C838 C832 1.361 1_455 S
C838 C837 1.523 . S
C839 C823 1.429 . S
C839 C835 1.429 . S
C839 C840 1.523 . S
C840 C824 1.368 . S
C840 C836 1.368 . S
C840 C839 1.523 . S
H841 C816 0.950 . S
H842 C818 0.950 . S
H843 C819 0.949 . S
H844 C821 0.950 . S
H845 C823 0.950 . S
C846 C847 1.349 . S
C846 C848 1.327 . S
C846 H871 0.950 . S
C847 C846 1.349 . S
C847 C863 1.349 . S
C848 C846 1.327 . S
C848 C867 1.429 . S
C848 H872 0.950 . S
C849 C866 1.574 . S
C849 C868 1.368 1_455 S
C849 H873 0.949 1_455 S
H850 C854 0.949 . S
C851 C852 1.349 . S
C851 C853 1.327 . S
C851 H874 0.950 . S
C852 C851 1.349 . S
C852 C864 1.349 . S
C853 C851 1.327 . S
C853 C869 1.429 . S
C853 H875 0.950 . S
C854 H850 0.949 . S
C854 C862 1.574 1_455 S
C854 C870 1.368 . S
H855 C863 0.950 . S
H856 C861 0.950 . S
H857 C862 0.949 . S
H858 C864 0.950 . S
H859 C865 0.950 . S
H860 C866 0.949 . S
C861 H856 0.950 . S
C861 C863 1.327 . S
C861 C867 1.429 . S
C862 C854 1.574 1_655 S
C862 H857 0.949 . S
C862 C868 1.368 . S
C863 C847 1.349 . S
C863 H855 0.950 . S
C863 C861 1.327 . S
C864 C852 1.349 . S
C864 H858 0.950 . S
C864 C865 1.327 . S
C865 H859 0.950 . S
C865 C864 1.327 . S
C865 C869 1.429 . S
C866 C849 1.574 . S
C866 H860 0.949 . S
C866 C870 1.368 . S
C867 C848 1.429 . S
C867 C861 1.429 . S
C867 C868 1.523 . S
C868 C849 1.368 1_655 S
C868 C862 1.368 . S
C868 C867 1.523 . S
C869 C853 1.429 . S
C869 C865 1.429 . S
C869 C870 1.523 . S
C870 C854 1.368 . S
C870 C866 1.368 . S
C870 C869 1.523 . S
H871 C846 0.950 . S
H872 C848 0.950 . S
H873 C849 0.949 1_655 S
H874 C851 0.950 . S
H875 C853 0.950 . S
C876 C877 1.349 . S
C876 C878 1.327 . S
C876 H901 0.950 . S
C877 C876 1.349 . S
C877 C893 1.349 . S
C878 C876 1.327 . S
C878 C897 1.429 . S
C878 H902 0.950 . S
C879 C896 1.574 . S
C879 C898 1.368 1_655 S
C879 H903 0.949 . S
H880 C884 0.949 . S
C881 C882 1.349 . S
C881 C883 1.327 . S
C881 H904 0.950 . S
C882 C881 1.349 . S
C882 C894 1.349 . S
C883 C881 1.327 . S
C883 C899 1.429 . S
C883 H905 0.950 . S
C884 H880 0.949 . S
C884 C892 1.574 . S
C884 C900 1.368 . S
H885 C893 0.950 . S
H886 C891 0.950 . S
H887 C892 0.949 1_455 S
H888 C894 0.950 . S
H889 C895 0.950 . S
H890 C896 0.949 . S
C891 H886 0.950 . S
C891 C893 1.327 . S
C891 C897 1.429 . S
C892 C884 1.574 . S
C892 H887 0.949 1_655 S
C892 C898 1.368 1_655 S
C893 C877 1.349 . S
C893 H885 0.950 . S
C893 C891 1.327 . S
C894 C882 1.349 . S
C894 H888 0.950 . S
C894 C895 1.327 . S
C895 H889 0.950 . S
C895 C894 1.327 . S
C895 C899 1.429 . S
C896 C879 1.574 . S
C896 H890 0.949 . S
C896 C900 1.368 . S
C897 C878 1.429 . S
C897 C891 1.429 . S
C897 C898 1.523 . S
C898 C879 1.368 1_455 S
C898 C892 1.368 1_455 S
C898 C897 1.523 . S
C899 C883 1.429 . S
C899 C895 1.429 . S
C899 C900 1.523 . S
C900 C884 1.368 . S
C900 C896 1.368 . S
C900 C899 1.523 . S
H901 C876 0.950 . S
H902 C878 0.950 . S
H903 C879 0.949 . S
H904 C881 0.950 . S
H905 C883 0.950 . S
C906 C907 1.349 . S
C906 C908 1.327 . S
C906 H931 0.950 . S
C907 C906 1.349 . S
C907 C923 1.349 . S
C908 C906 1.327 . S
C908 C927 1.429 . S
C908 H932 0.950 . S
C909 C926 1.574 . S
C909 C928 1.368 . S
C909 H933 0.949 . S
H910 C914 0.949 . S
C911 C912 1.349 . S
C911 C913 1.327 . S
C911 H934 0.950 . S
C912 C911 1.349 . S
C912 C924 1.349 . S
C913 C911 1.327 . S
C913 C929 1.429 . S
C913 H935 0.950 . S
C914 H910 0.949 . S
C914 C922 1.574 1_655 S
C914 C930 1.368 . S
H915 C923 0.950 . S
H916 C921 0.950 . S
H917 C922 0.949 . S
H918 C924 0.950 . S
H919 C925 0.950 . S
H920 C926 0.949 . S
C921 H916 0.950 . S
C921 C923 1.327 . S
C921 C927 1.429 . S
C922 C914 1.574 1_455 S
C922 H917 0.949 . S
C922 C928 1.368 . S
C923 C907 1.349 . S
C923 H915 0.950 . S
C923 C921 1.327 . S
C924 C912 1.349 . S
C924 H918 0.950 . S
C924 C925 1.327 . S
C925 H919 0.950 . S
C925 C924 1.327 . S
C925 C929 1.429 . S
C926 C909 1.574 . S
C926 H920 0.949 . S
C926 C930 1.368 1_455 S
C927 C908 1.429 . S
C927 C921 1.429 . S
C927 C928 1.523 . S
C928 C909 1.368 . S
C928 C922 1.368 . S
C928 C927 1.523 . S
C929 C913 1.429 . S
C929 C925 1.429 . S
C929 C930 1.523 . S
C930 C914 1.368 . S
C930 C926 1.368 1_655 S
C930 C929 1.523 . S
H931 C906 0.950 . S
H932 C908 0.950 . S
H933 C909 0.949 . S
H934 C911 0.950 . S
H935 C913 0.950 . S
C936 C937 1.349 . S
C936 C938 1.327 . S
C936 H961 0.950 . S
C937 C936 1.349 . S
C937 C953 1.349 . S
C938 C936 1.327 . S
C938 C957 1.429 . S
C938 H962 0.950 . S
C939 C956 1.574 . S
C939 C958 1.366 1_565 S
C939 H963 0.949 1_565 S
H940 C944 0.949 . S
C941 C942 1.349 . S
C941 C943 1.327 . S
C941 H964 0.950 . S
C942 C941 1.349 . S
C942 C954 1.349 . S
C943 C941 1.327 . S
C943 C959 1.429 . S
C943 H965 0.950 . S
C944 H940 0.949 . S
C944 C952 1.574 . S
C944 C960 1.368 . S
H945 C953 0.950 . S
H946 C951 0.950 . S
H947 C952 0.949 . S
H948 C954 0.950 . S
H949 C955 0.950 . S
H950 C956 0.949 . S
C951 H946 0.950 . S
C951 C953 1.327 . S
C951 C957 1.429 . S
C952 C944 1.574 . S
C952 H947 0.949 . S
C952 C958 1.352 1_565 S
C953 C937 1.349 . S
C953 H945 0.950 . S
C953 C951 1.327 . S
C954 C942 1.349 . S
C954 H948 0.950 . S
C954 C955 1.327 . S
C955 H949 0.950 . S
C955 C954 1.327 . S
C955 C959 1.429 . S
C956 C939 1.574 . S
C956 H950 0.949 . S
C956 C960 1.368 . S
C957 C938 1.429 . S
C957 C951 1.429 . S
C957 C958 1.548 . S
C958 C939 1.366 1_545 S
C958 C952 1.352 1_545 S
C958 C957 1.548 . S
C959 C943 1.429 . S
C959 C955 1.429 . S
C959 C960 1.523 . S
C960 C944 1.368 . S
C960 C956 1.368 . S
C960 C959 1.523 . S
H961 C936 0.950 . S
H962 C938 0.950 . S
H963 C939 0.949 1_545 S
H964 C941 0.950 . S
H965 C943 0.950 . S
C966 C967 1.349 . S
C966 C968 1.327 . S
C966 H991 0.950 . S
C967 C966 1.349 . S
C967 C983 1.349 . S
C968 C966 1.327 . S
C968 C987 1.429 . S
C968 H992 0.950 . S
C969 C986 1.574 . S
C969 C988 1.368 . S
C969 H993 0.949 . S
H970 C974 0.949 1_565 S
C971 C972 1.349 . S
C971 C973 1.327 . S
C971 H994 0.950 . S
C972 C971 1.349 . S
C972 C984 1.349 . S
C973 C971 1.327 . S
C973 C989 1.429 . S
C973 H995 0.950 . S
C974 H970 0.949 1_545 S
C974 C982 1.574 . S
C974 C990 1.368 1_545 S
H975 C983 0.950 . S
H976 C981 0.950 . S
H977 C982 0.949 . S
H978 C984 0.950 . S
H979 C985 0.950 . S
H980 C986 0.949 1_565 S
C981 H976 0.950 . S
C981 C983 1.327 . S
C981 C987 1.429 . S
C982 C974 1.574 . S
C982 H977 0.949 . S
C982 C988 1.368 . S
C983 C967 1.349 . S
C983 H975 0.950 . S
C983 C981 1.327 . S
C984 C972 1.349 . S
C984 H978 0.950 . S
C984 C985 1.327 . S
C985 H979 0.950 . S
C985 C984 1.327 . S
C985 C989 1.429 . S
C986 C969 1.574 . S
C986 H980 0.949 1_545 S
C986 C990 1.368 1_545 S
C987 C968 1.429 . S
C987 C981 1.429 . S
C987 C988 1.523 . S
C988 C969 1.368 . S
C988 C982 1.368 . S
C988 C987 1.523 . S
C989 C973 1.429 . S
C989 C985 1.429 . S
C989 C990 1.523 . S
C990 C974 1.368 1_565 S
C990 C986 1.368 1_565 S
C990 C989 1.523 . S
H991 C966 0.950 . S
H992 C968 0.950 . S
H993 C969 0.949 . S
H994 C971 0.950 . S
H995 C973 0.950 . S
C996 C997 1.349 . S
C996 C998 1.327 . S
C996 H1021 0.950 . S
C997 C996 1.349 . S
C997 C1013 1.349 . S
C998 C996 1.327 . S
C998 C1017 1.429 . S
C998 H1022 0.950 . S
C999 C1016 1.574 . S
C999 C1018 1.368 . S
C999 H1023 0.949 . S
H1000 C1004 0.949 . S
C1001 C1002 1.349 . S
C1001 C1003 1.327 . S
C1001 H1024 0.950 . S
C1002 C1001 1.349 . S
C1002 C1014 1.349 . S
C1003 C1001 1.327 . S
C1003 C1019 1.429 . S
C1003 H1025 0.950 . S
C1004 H1000 0.949 . S
C1004 C1012 1.574 . S
C1004 C1020 1.368 . S
H1005 C1013 0.950 . S
H1006 C1011 0.950 . S
H1007 C1012 0.949 . S
H1008 C1014 0.950 . S
H1009 C1015 0.950 . S
H1010 C1016 0.949 . S
C1011 H1006 0.950 . S
C1011 C1013 1.327 . S
C1011 C1017 1.429 . S
C1012 C1004 1.574 . S
C1012 H1007 0.949 . S
C1012 C1018 1.368 . S
C1013 C997 1.349 . S
C1013 H1005 0.950 . S
C1013 C1011 1.327 . S
C1014 C1002 1.349 . S
C1014 H1008 0.950 . S
C1014 C1015 1.327 . S
C1015 H1009 0.950 . S
C1015 C1014 1.327 . S
C1015 C1019 1.429 . S
C1016 C999 1.574 . S
C1016 H1010 0.949 . S
C1016 C1020 1.368 . S
C1017 C998 1.429 . S
C1017 C1011 1.429 . S
C1017 C1018 1.523 . S
C1018 C999 1.368 . S
C1018 C1012 1.368 . S
C1018 C1017 1.523 . S
C1019 C1003 1.429 . S
C1019 C1015 1.429 . S
C1019 C1020 1.523 . S
C1020 C1004 1.368 . S
C1020 C1016 1.368 . S
C1020 C1019 1.523 . S
H1021 C996 0.950 . S
H1022 C998 0.950 . S
H1023 C999 0.949 . S
H1024 C1001 0.950 . S
H1025 C1003 0.950 . S
C1026 C1027 1.349 . S
C1026 C1028 1.327 . S
C1026 H1051 0.950 . S
C1027 C1026 1.349 . S
C1027 C1043 1.349 . S
C1028 C1026 1.327 . S
C1028 C1047 1.429 . S
C1028 H1052 0.950 . S
C1029 C1046 1.574 . S
C1029 C1048 1.368 . S
C1029 H1053 0.949 . S
H1030 C1034 0.949 1_565 S
C1031 C1032 1.349 . S
C1031 C1033 1.327 . S
C1031 H1054 0.950 . S
C1032 C1031 1.349 . S
C1032 C1044 1.349 . S
C1033 C1031 1.327 . S
C1033 C1049 1.429 . S
C1033 H1055 0.950 . S
C1034 H1030 0.949 1_545 S
C1034 C1042 1.574 . S
C1034 C1050 1.368 1_545 S
H1035 C1043 0.950 . S
H1036 C1041 0.950 . S
H1037 C1042 0.949 . S
H1038 C1044 0.950 . S
H1039 C1045 0.950 . S
H1040 C1046 0.949 1_565 S
C1041 H1036 0.950 . S
C1041 C1043 1.327 . S
C1041 C1047 1.429 . S
C1042 C1034 1.574 . S
C1042 H1037 0.949 . S
C1042 C1048 1.368 . S
C1043 C1027 1.349 . S
C1043 H1035 0.950 . S
C1043 C1041 1.327 . S
C1044 C1032 1.349 . S
C1044 H1038 0.950 . S
C1044 C1045 1.327 . S
C1045 H1039 0.950 . S
C1045 C1044 1.327 . S
C1045 C1049 1.429 . S
C1046 C1029 1.574 . S
C1046 H1040 0.949 1_545 S
C1046 C1050 1.368 1_545 S
C1047 C1028 1.429 . S
C1047 C1041 1.429 . S
C1047 C1048 1.523 . S
C1048 C1029 1.368 . S
C1048 C1042 1.368 . S
C1048 C1047 1.523 . S
C1049 C1033 1.429 . S
C1049 C1045 1.429 . S
C1049 C1050 1.523 . S
C1050 C1034 1.368 1_565 S
C1050 C1046 1.368 1_565 S
C1050 C1049 1.523 . S
H1051 C1026 0.950 . S
H1052 C1028 0.950 . S
H1053 C1029 0.949 . S
H1054 C1031 0.950 . S
H1055 C1033 0.950 . S
C1056 C1057 1.349 . S
C1056 C1058 1.327 . S
C1056 H1081 0.950 . S
C1057 C1056 1.349 . S
C1057 C1073 1.329 1_655 S
C1058 C1056 1.327 . S
C1058 C1077 1.429 . S
C1058 H1082 0.950 . S
C1059 C1076 1.574 . S
C1059 C1078 1.368 1_455 S
C1059 H1083 0.949 . S
H1060 C1064 0.949 . S
C1061 C1062 1.349 . S
C1061 C1063 1.327 . S
C1061 H1084 0.950 . S
C1062 C1061 1.349 . S
C1062 C1074 1.379 . S
C1063 C1061 1.327 . S
C1063 C1079 1.429 . S
C1063 H1085 0.950 . S
C1064 H1060 0.949 . S
C1064 C1072 1.574 . S
C1064 C1080 1.368 1_655 S
H1065 C1073 0.965 . S
H1066 C1071 0.950 . S
H1067 C1072 0.949 . S
H1068 C1074 0.929 1_655 S
H1069 C1075 0.950 . S
H1070 C1076 0.949 . S
C1071 H1066 0.950 . S
C1071 C1073 1.333 . S
C1071 C1077 1.429 1_455 S
C1072 C1064 1.574 . S
C1072 H1067 0.949 . S
C1072 C1078 1.368 . S
C1073 C1057 1.329 1_455 S
C1073 H1065 0.965 . S
C1073 C1071 1.333 . S
C1074 C1062 1.379 . S
C1074 H1068 0.929 1_455 S
C1074 C1075 1.320 1_455 S
C1075 H1069 0.950 . S
C1075 C1074 1.320 1_655 S
C1075 C1079 1.429 1_655 S
C1076 C1059 1.574 . S
C1076 H1070 0.949 . S
C1076 C1080 1.368 . S
C1077 C1058 1.429 . S
C1077 C1071 1.429 1_655 S
C1077 C1078 1.523 . S
C1078 C1059 1.368 1_655 S
C1078 C1072 1.368 . S
C1078 C1077 1.523 . S
C1079 C1063 1.429 . S
C1079 C1075 1.429 1_455 S
C1079 C1080 1.523 . S
C1080 C1064 1.368 1_455 S
C1080 C1076 1.368 . S
C1080 C1079 1.523 . S
H1081 C1056 0.950 . S
H1082 C1058 0.950 . S
H1083 C1059 0.949 . S
H1084 C1061 0.950 . S
H1085 C1063 0.950 . S
C1086 C1087 1.349 . S
C1086 C1088 1.327 1_455 S
C1086 H1111 0.950 1_455 S
C1087 C1086 1.349 . S
C1087 C1103 1.349 . S
C1088 C1086 1.327 1_655 S
C1088 C1107 1.429 1_655 S
C1088 H1112 0.950 . S
C1089 C1106 1.574 . S
C1089 C1108 1.368 . S
C1089 H1113 0.949 . S
H1090 C1094 0.949 . S
C1091 C1092 1.346 1_455 S
C1091 C1093 1.328 . S
C1091 H1114 0.952 . S
C1092 C1091 1.346 1_655 S
C1092 C1104 1.349 . S
C1093 C1091 1.328 . S
C1093 C1109 1.429 1_455 S
C1093 H1115 0.950 . S
C1094 H1090 0.949 . S
C1094 C1102 1.574 . S
C1094 C1110 1.368 . S
H1095 C1103 0.950 . S
H1096 C1101 0.950 . S
H1097 C1102 0.949 . S
H1098 C1104 0.950 . S
H1099 C1105 0.950 . S
H1100 C1106 0.949 . S
C1101 H1096 0.950 . S
C1101 C1103 1.327 . S
C1101 C1107 1.429 . S
C1102 C1094 1.574 . S
C1102 H1097 0.949 . S
C1102 C1108 1.368 1_655 S
C1103 C1087 1.349 . S
C1103 H1095 0.950 . S
C1103 C1101 1.327 . S
C1104 C1092 1.349 . S
C1104 H1098 0.950 . S
C1104 C1105 1.327 . S
C1105 H1099 0.950 . S
C1105 C1104 1.327 . S
C1105 C1109 1.429 . S
C1106 C1089 1.574 . S
C1106 H1100 0.949 . S
C1106 C1110 1.368 1_455 S
C1107 C1088 1.429 1_455 S
C1107 C1101 1.429 . S
C1107 C1108 1.523 . S
C1108 C1089 1.368 . S
C1108 C1102 1.368 1_455 S
C1108 C1107 1.523 . S
C1109 C1093 1.429 1_655 S
C1109 C1105 1.429 . S
C1109 C1110 1.523 . S
C1110 C1094 1.368 . S
C1110 C1106 1.368 1_655 S
C1110 C1109 1.523 . S
H1111 C1086 0.950 1_655 S
H1112 C1088 0.950 . S
H1113 C1089 0.949 . S
H1114 C1091 0.952 . S
H1115 C1093 0.950 . S
C1116 C1117 1.349 . S
C1116 C1118 1.327 1_565 S
C1116 H1141 0.950 1_565 S
C1117 C1116 1.349 . S
C1117 C1133 1.349 . S
C1118 C1116 1.327 1_545 S
C1118 C1137 1.429 1_545 S
C1118 H1142 0.950 . S
C1119 C1136 1.574 . S
C1119 C1138 1.368 . S
C1119 H1143 0.949 . S
H1120 C1124 0.949 . S
C1121 C1122 1.349 . S
C1121 C1123 1.323 1_545 S
C1121 H1144 0.950 1_545 S
C1122 C1121 1.349 . S
C1122 C1134 1.349 . S
C1123 C1121 1.323 1_565 S
C1123 C1139 1.419 1_565 S
C1123 H1145 0.965 . S
C1124 H1120 0.949 . S
C1124 C1132 1.574 . S
C1124 C1140 1.368 . S
H1125 C1133 0.950 . S
H1126 C1131 0.950 . S
H1127 C1132 0.949 . S
H1128 C1134 0.950 . S
H1129 C1135 0.950 . S
H1130 C1136 0.949 . S
C1131 H1126 0.950 . S
C1131 C1133 1.327 . S
C1131 C1137 1.429 . S
C1132 C1124 1.574 . S
C1132 H1127 0.949 . S
C1132 C1138 1.368 1_545 S
C1133 C1117 1.349 . S
C1133 H1125 0.950 . S
C1133 C1131 1.327 . S
C1134 C1122 1.349 . S
C1134 H1128 0.950 . S
C1134 C1135 1.327 . S
C1135 H1129 0.950 . S
C1135 C1134 1.327 . S
C1135 C1139 1.429 . S
C1136 C1119 1.574 . S
C1136 H1130 0.949 . S
C1136 C1140 1.368 1_565 S
C1137 C1118 1.429 1_565 S
C1137 C1131 1.429 . S
C1137 C1138 1.523 . S
C1138 C1119 1.368 . S
C1138 C1132 1.368 1_565 S
C1138 C1137 1.523 . S
C1139 C1123 1.419 1_545 S
C1139 C1135 1.429 . S
C1139 C1140 1.523 . S
C1140 C1124 1.368 . S
C1140 C1136 1.368 1_545 S
C1140 C1139 1.523 . S
H1141 C1116 0.950 1_545 S
H1142 C1118 0.950 . S
H1143 C1119 0.949 . S
H1144 C1121 0.950 1_565 S
H1145 C1123 0.965 . S
C1146 C1147 1.349 . S
C1146 C1148 1.327 . S
C1146 H1171 0.950 . S
C1147 C1146 1.349 . S
C1147 C1163 1.349 . S
C1148 C1146 1.327 . S
C1148 C1167 1.429 . S
C1148 H1172 0.950 . S
C1149 C1166 1.574 . S
C1149 C1168 1.368 . S
C1149 H1173 0.949 . S
H1150 C1154 0.949 . S
C1151 C1152 1.349 . S
C1151 C1153 1.327 . S
C1151 H1174 0.950 . S
C1152 C1151 1.349 . S
C1152 C1164 1.349 . S
C1153 C1151 1.327 . S
C1153 C1169 1.429 . S
C1153 H1175 0.950 . S
C1154 H1150 0.949 . S
C1154 C1162 1.574 . S
C1154 C1170 1.368 . S
H1155 C1163 0.950 . S
H1156 C1161 0.950 . S
H1157 C1162 0.949 . S
H1158 C1164 0.950 . S
H1159 C1165 0.950 . S
H1160 C1166 0.949 . S
C1161 H1156 0.950 . S
C1161 C1163 1.327 . S
C1161 C1167 1.429 . S
C1162 C1154 1.574 . S
C1162 H1157 0.949 . S
C1162 C1168 1.368 . S
C1163 C1147 1.349 . S
C1163 H1155 0.950 . S
C1163 C1161 1.327 . S
C1164 C1152 1.349 . S
C1164 H1158 0.950 . S
C1164 C1165 1.327 . S
C1165 H1159 0.950 . S
C1165 C1164 1.327 . S
C1165 C1169 1.429 . S
C1166 C1149 1.574 . S
C1166 H1160 0.949 . S
C1166 C1170 1.368 . S
C1167 C1148 1.429 . S
C1167 C1161 1.429 . S
C1167 C1168 1.523 . S
C1168 C1149 1.368 . S
C1168 C1162 1.368 . S
C1168 C1167 1.523 . S
C1169 C1153 1.429 . S
C1169 C1165 1.429 . S
C1169 C1170 1.523 . S
C1170 C1154 1.368 . S
C1170 C1166 1.368 . S
C1170 C1169 1.523 . S
H1171 C1146 0.950 . S
H1172 C1148 0.950 . S
H1173 C1149 0.949 . S
H1174 C1151 0.950 . S
H1175 C1153 0.950 . S
C1176 C1177 1.349 . S
C1176 C1178 1.327 . S
C1176 H1201 0.950 . S
C1177 C1176 1.349 . S
C1177 C1193 1.349 1_554 S
C1178 C1176 1.327 . S
C1178 C1197 1.429 . S
C1178 H1202 0.950 . S
C1179 C1196 1.574 . S
C1179 C1198 1.368 1_556 S
C1179 H1203 0.949 . S
H1180 C1184 0.949 . S
C1181 C1182 1.349 . S
C1181 C1183 1.327 . S
C1181 H1204 0.950 . S
C1182 C1181 1.349 . S
C1182 C1194 1.349 1_556 S
C1183 C1181 1.327 . S
C1183 C1199 1.429 . S
C1183 H1205 0.950 . S
C1184 H1180 0.949 . S
C1184 C1192 1.574 . S
C1184 C1200 1.368 1_554 S
H1185 C1193 0.950 . S
H1186 C1191 0.950 . S
H1187 C1192 0.949 . S
H1188 C1194 0.950 . S
H1189 C1195 0.950 . S
H1190 C1196 0.949 . S
C1191 H1186 0.950 . S
C1191 C1193 1.327 . S
C1191 C1197 1.429 1_556 S
C1192 C1184 1.574 . S
C1192 H1187 0.949 . S
C1192 C1198 1.368 . S
C1193 C1177 1.349 1_556 S
C1193 H1185 0.950 . S
C1193 C1191 1.327 . S
C1194 C1182 1.349 1_554 S
C1194 H1188 0.950 . S
C1194 C1195 1.327 . S
C1195 H1189 0.950 . S
C1195 C1194 1.327 . S
C1195 C1199 1.429 1_554 S
C1196 C1179 1.574 . S
C1196 H1190 0.949 . S
C1196 C1200 1.368 . S
C1197 C1178 1.429 . S
C1197 C1191 1.429 1_554 S
C1197 C1198 1.523 . S
C1198 C1179 1.368 1_554 S
C1198 C1192 1.368 . S
C1198 C1197 1.523 . S
C1199 C1183 1.429 . S
C1199 C1195 1.429 1_556 S
C1199 C1200 1.523 . S
C1200 C1184 1.368 1_556 S
C1200 C1196 1.368 . S
C1200 C1199 1.523 . S
H1201 C1176 0.950 . S
H1202 C1178 0.950 . S
H1203 C1179 0.949 . S
H1204 C1181 0.950 . S
H1205 C1183 0.950 . S
C1206 C1207 1.349 . S
C1206 C1208 1.327 . S
C1206 H1231 0.950 . S
C1207 C1206 1.349 . S
C1207 C1223 1.349 . S
C1208 C1206 1.327 . S
C1208 C1227 1.429 . S
C1208 H1232 0.950 . S
C1209 C1226 1.574 . S
C1209 C1228 1.368 . S
C1209 H1233 0.949 . S
H1210 C1214 0.949 . S
C1211 C1212 1.349 . S
C1211 C1213 1.327 . S
C1211 H1234 0.950 . S
C1212 C1211 1.349 . S
C1212 C1224 1.349 . S
C1213 C1211 1.327 . S
C1213 C1229 1.429 . S
C1213 H1235 0.950 . S
C1214 H1210 0.949 . S
C1214 C1222 1.574 . S
C1214 C1230 1.368 . S
H1215 C1223 0.950 . S
H1216 C1221 0.950 . S
H1217 C1222 0.949 . S
H1218 C1224 0.950 . S
H1219 C1225 0.950 . S
H1220 C1226 0.949 . S
C1221 H1216 0.950 . S
C1221 C1223 1.327 . S
C1221 C1227 1.429 . S
C1222 C1214 1.574 . S
C1222 H1217 0.949 . S
C1222 C1228 1.368 . S
C1223 C1207 1.349 . S
C1223 H1215 0.950 . S
C1223 C1221 1.327 . S
C1224 C1212 1.349 . S
C1224 H1218 0.950 . S
C1224 C1225 1.327 . S
C1225 H1219 0.950 . S
C1225 C1224 1.327 . S
C1225 C1229 1.429 . S
C1226 C1209 1.574 . S
C1226 H1220 0.949 . S
C1226 C1230 1.368 . S
C1227 C1208 1.429 . S
C1227 C1221 1.429 . S
C1227 C1228 1.523 . S
C1228 C1209 1.368 . S
C1228 C1222 1.368 . S
C1228 C1227 1.523 . S
C1229 C1213 1.429 . S
C1229 C1225 1.429 . S
C1229 C1230 1.523 . S
C1230 C1214 1.368 . S
C1230 C1226 1.368 . S
C1230 C1229 1.523 . S
H1231 C1206 0.950 . S
H1232 C1208 0.950 . S
H1233 C1209 0.949 . S
H1234 C1211 0.950 . S
H1235 C1213 0.950 . S
C1236 C1237 1.349 . S
C1236 C1238 1.327 . S
C1236 H1261 0.950 . S
C1237 C1236 1.349 . S
C1237 C1253 1.349 . S
C1238 C1236 1.327 . S
C1238 C1257 1.429 . S
C1238 H1262 0.950 . S
C1239 C1256 1.574 . S
C1239 C1258 1.368 . S
C1239 H1263 0.949 . S
H1240 C1244 0.949 . S
C1241 C1242 1.349 . S
C1241 C1243 1.327 . S
C1241 H1264 0.950 . S
C1242 C1241 1.349 . S
C1242 C1254 1.349 . S
C1243 C1241 1.327 . S
C1243 C1259 1.429 . S
C1243 H1265 0.950 . S
C1244 H1240 0.949 . S
C1244 C1252 1.574 . S
C1244 C1260 1.368 . S
H1245 C1253 0.950 . S
H1246 C1251 0.950 . S
H1247 C1252 0.949 . S
H1248 C1254 0.950 . S
H1249 C1255 0.950 . S
H1250 C1256 0.949 . S
C1251 H1246 0.950 . S
C1251 C1253 1.327 . S
C1251 C1257 1.429 . S
C1252 C1244 1.574 . S
C1252 H1247 0.949 . S
C1252 C1258 1.368 . S
C1253 C1237 1.349 . S
C1253 H1245 0.950 . S
C1253 C1251 1.327 . S
C1254 C1242 1.349 . S
C1254 H1248 0.950 . S
C1254 C1255 1.327 . S
C1255 H1249 0.950 . S
C1255 C1254 1.327 . S
C1255 C1259 1.429 . S
C1256 C1239 1.574 . S
C1256 H1250 0.949 . S
C1256 C1260 1.368 . S
C1257 C1238 1.429 . S
C1257 C1251 1.429 . S
C1257 C1258 1.523 . S
C1258 C1239 1.368 . S
C1258 C1252 1.368 . S
C1258 C1257 1.523 . S
C1259 C1243 1.429 . S
C1259 C1255 1.429 . S
C1259 C1260 1.523 . S
C1260 C1244 1.368 . S
C1260 C1256 1.368 . S
C1260 C1259 1.523 . S
H1261 C1236 0.950 . S
H1262 C1238 0.950 . S
H1263 C1239 0.949 . S
H1264 C1241 0.950 . S
H1265 C1243 0.950 . S
C1266 C1267 1.349 . S
C1266 C1268 1.327 . S
C1266 H1291 0.950 . S
C1267 C1266 1.349 . S
C1267 C1283 1.349 . S
C1268 C1266 1.327 . S
C1268 C1287 1.429 . S
C1268 H1292 0.950 . S
C1269 C1286 1.574 . S
C1269 C1288 1.368 . S
C1269 H1293 0.949 . S
H1270 C1274 0.949 . S
C1271 C1272 1.349 . S
C1271 C1273 1.327 . S
C1271 H1294 0.950 . S
C1272 C1271 1.349 . S
C1272 C1284 1.349 . S
C1273 C1271 1.327 . S
C1273 C1289 1.429 . S
C1273 H1295 0.950 . S
C1274 H1270 0.949 . S
C1274 C1282 1.574 . S
C1274 C1290 1.368 . S
H1275 C1283 0.950 . S
H1276 C1281 0.950 . S
H1277 C1282 0.949 . S
H1278 C1284 0.950 . S
H1279 C1285 0.950 . S
H1280 C1286 0.949 . S
C1281 H1276 0.950 . S
C1281 C1283 1.327 . S
C1281 C1287 1.429 . S
C1282 C1274 1.574 . S
C1282 H1277 0.949 . S
C1282 C1288 1.368 . S
C1283 C1267 1.349 . S
C1283 H1275 0.950 . S
C1283 C1281 1.327 . S
C1284 C1272 1.349 . S
C1284 H1278 0.950 . S
C1284 C1285 1.327 . S
C1285 H1279 0.950 . S
C1285 C1284 1.327 . S
C1285 C1289 1.429 . S
C1286 C1269 1.574 . S
C1286 H1280 0.949 . S
C1286 C1290 1.368 . S
C1287 C1268 1.429 . S
C1287 C1281 1.429 . S
C1287 C1288 1.523 . S
C1288 C1269 1.368 . S
C1288 C1282 1.368 . S
C1288 C1287 1.523 . S
C1289 C1273 1.429 . S
C1289 C1285 1.429 . S
C1289 C1290 1.523 . S
C1290 C1274 1.368 . S
C1290 C1286 1.368 . S
C1290 C1289 1.523 . S
H1291 C1266 0.950 . S
H1292 C1268 0.950 . S
H1293 C1269 0.949 . S
H1294 C1271 0.950 . S
H1295 C1273 0.950 . S
C1296 C1297 1.349 . S
C1296 C1298 1.327 . S
C1296 H1321 0.950 . S
C1297 C1296 1.349 . S
C1297 C1313 1.349 . S
C1298 C1296 1.327 . S
C1298 C1317 1.429 . S
C1298 H1322 0.950 . S
C1299 C1316 1.574 . S
C1299 C1318 1.368 . S
C1299 H1323 0.949 . S
H1300 C1304 0.949 . S
C1301 C1302 1.349 . S
C1301 C1303 1.327 . S
C1301 H1324 0.950 . S
C1302 C1301 1.349 . S
C1302 C1314 1.349 . S
C1303 C1301 1.327 . S
C1303 C1319 1.429 . S
C1303 H1325 0.950 . S
C1304 H1300 0.949 . S
C1304 C1312 1.574 . S
C1304 C1320 1.368 . S
H1305 C1313 0.950 . S
H1306 C1311 0.950 . S
H1307 C1312 0.949 . S
H1308 C1314 0.950 . S
H1309 C1315 0.950 . S
H1310 C1316 0.949 . S
C1311 H1306 0.950 . S
C1311 C1313 1.327 . S
C1311 C1317 1.429 . S
C1312 C1304 1.574 . S
C1312 H1307 0.949 . S
C1312 C1318 1.368 . S
C1313 C1297 1.349 . S
C1313 H1305 0.950 . S
C1313 C1311 1.327 . S
C1314 C1302 1.349 . S
C1314 H1308 0.950 . S
C1314 C1315 1.327 . S
C1315 H1309 0.950 . S
C1315 C1314 1.327 . S
C1315 C1319 1.429 . S
C1316 C1299 1.574 . S
C1316 H1310 0.949 . S
C1316 C1320 1.368 . S
C1317 C1298 1.429 . S
C1317 C1311 1.429 . S
C1317 C1318 1.523 . S
C1318 C1299 1.368 . S
C1318 C1312 1.368 . S
C1318 C1317 1.523 . S
C1319 C1303 1.429 . S
C1319 C1315 1.429 . S
C1319 C1320 1.523 . S
C1320 C1304 1.368 . S
C1320 C1316 1.368 . S
C1320 C1319 1.523 . S
H1321 C1296 0.950 . S
H1322 C1298 0.950 . S
H1323 C1299 0.949 . S
H1324 C1301 0.950 . S
H1325 C1303 0.950 . S
C1326 C1327 1.349 . S
C1326 C1328 1.327 . S
C1326 H1351 0.950 . S
C1327 C1326 1.349 . S
C1327 C1343 1.349 . S
C1328 C1326 1.327 . S
C1328 C1347 1.429 . S
C1328 H1352 0.950 . S
C1329 C1346 1.574 . S
C1329 C1348 1.368 . S
C1329 H1353 0.949 . S
H1330 C1334 0.949 . S
C1331 C1332 1.349 . S
C1331 C1333 1.327 . S
C1331 H1354 0.950 . S
C1332 C1331 1.349 . S
C1332 C1344 1.349 . S
C1333 C1331 1.327 . S
C1333 C1349 1.429 . S
C1333 H1355 0.950 . S
C1334 H1330 0.949 . S
C1334 C1342 1.574 . S
C1334 C1350 1.368 . S
H1335 C1343 0.950 . S
H1336 C1341 0.950 . S
H1337 C1342 0.949 . S
H1338 C1344 0.950 . S
H1339 C1345 0.950 . S
H1340 C1346 0.949 . S
C1341 H1336 0.950 . S
C1341 C1343 1.327 . S
C1341 C1347 1.429 . S
C1342 C1334 1.574 . S
C1342 H1337 0.949 . S
C1342 C1348 1.368 . S
C1343 C1327 1.349 . S
C1343 H1335 0.950 . S
C1343 C1341 1.327 . S
C1344 C1332 1.349 . S
C1344 H1338 0.950 . S
C1344 C1345 1.327 . S
C1345 H1339 0.950 . S
C1345 C1344 1.327 . S
C1345 C1349 1.429 . S
C1346 C1329 1.574 . S
C1346 H1340 0.949 . S
C1346 C1350 1.368 . S
C1347 C1328 1.429 . S
C1347 C1341 1.429 . S
C1347 C1348 1.523 . S
C1348 C1329 1.368 . S
C1348 C1342 1.368 . S
C1348 C1347 1.523 . S
C1349 C1333 1.429 . S
C1349 C1345 1.429 . S
C1349 C1350 1.523 . S
C1350 C1334 1.368 . S
C1350 C1346 1.368 . S
C1350 C1349 1.523 . S
H1351 C1326 0.950 . S
H1352 C1328 0.950 . S
H1353 C1329 0.949 . S
H1354 C1331 0.950 . S
H1355 C1333 0.950 . S
C1356 C1357 1.349 1_565 S
C1356 C1358 1.327 . S
C1356 H1381 0.950 . S
C1357 C1356 1.349 1_545 S
C1357 C1373 1.349 . S
C1358 C1356 1.327 . S
C1358 C1377 1.429 1_565 S
C1358 H1382 0.950 . S
C1359 C1376 1.574 . S
C1359 C1378 1.368 . S
C1359 H1383 0.949 . S
H1360 C1364 0.949 . S
C1361 C1362 1.349 1_545 S
C1361 C1363 1.327 . S
C1361 H1384 0.950 . S
C1362 C1361 1.349 1_565 S
C1362 C1374 1.349 . S
C1363 C1361 1.327 . S
C1363 C1379 1.429 1_545 S
C1363 H1385 0.950 . S
C1364 H1360 0.949 . S
C1364 C1372 1.574 . S
C1364 C1380 1.368 . S
H1365 C1373 0.950 . S
H1366 C1371 0.950 . S
H1367 C1372 0.949 . S
H1368 C1374 0.950 . S
H1369 C1375 0.950 . S
H1370 C1376 0.949 . S
C1371 H1366 0.950 . S
C1371 C1373 1.327 . S
C1371 C1377 1.429 . S
C1372 C1364 1.574 . S
C1372 H1367 0.949 . S
C1372 C1378 1.368 1_565 S
C1373 C1357 1.349 . S
C1373 H1365 0.950 . S
C1373 C1371 1.327 . S
C1374 C1362 1.349 . S
C1374 H1368 0.950 . S
C1374 C1375 1.327 . S
C1375 H1369 0.950 . S
C1375 C1374 1.327 . S
C1375 C1379 1.429 . S
C1376 C1359 1.574 . S
C1376 H1370 0.949 . S
C1376 C1380 1.368 1_545 S
C1377 C1358 1.429 1_545 S
C1377 C1371 1.429 . S
C1377 C1378 1.523 . S
C1378 C1359 1.368 . S
C1378 C1372 1.368 1_545 S
C1378 C1377 1.523 . S
C1379 C1363 1.429 1_565 S
C1379 C1375 1.429 . S
C1379 C1380 1.523 . S
C1380 C1364 1.368 . S
C1380 C1376 1.368 1_565 S
C1380 C1379 1.523 . S
H1381 C1356 0.950 . S
H1382 C1358 0.950 . S
H1383 C1359 0.949 . S
H1384 C1361 0.950 . S
H1385 C1363 0.950 . S
C1386 C1387 1.349 . S
C1386 C1388 1.327 . S
C1386 H1411 0.950 . S
C1387 C1386 1.349 . S
C1387 C1403 1.349 1_556 S
C1388 C1386 1.327 . S
C1388 C1407 1.429 . S
C1388 H1412 0.950 . S
C1389 C1406 1.574 . S
C1389 C1408 1.368 1_554 S
C1389 H1413 0.949 . S
H1390 C1394 0.949 . S
C1391 C1392 1.349 . S
C1391 C1393 1.327 . S
C1391 H1414 0.950 . S
C1392 C1391 1.349 . S
C1392 C1404 1.349 1_554 S
C1393 C1391 1.327 . S
C1393 C1409 1.429 . S
C1393 H1415 0.950 . S
C1394 H1390 0.949 . S
C1394 C1402 1.574 . S
C1394 C1410 1.368 1_556 S
H1395 C1403 0.950 . S
H1396 C1401 0.950 . S
H1397 C1402 0.949 . S
H1398 C1404 0.950 . S
H1399 C1405 0.950 . S
H1400 C1406 0.949 . S
C1401 H1396 0.950 . S
C1401 C1403 1.327 . S
C1401 C1407 1.429 1_554 S
C1402 C1394 1.574 . S
C1402 H1397 0.949 . S
C1402 C1408 1.368 . S
C1403 C1387 1.349 1_554 S
C1403 H1395 0.950 . S
C1403 C1401 1.327 . S
C1404 C1392 1.349 1_556 S
C1404 H1398 0.950 . S
C1404 C1405 1.327 . S
C1405 H1399 0.950 . S
C1405 C1404 1.327 . S
C1405 C1409 1.429 1_556 S
C1406 C1389 1.574 . S
C1406 H1400 0.949 . S
C1406 C1410 1.368 . S
C1407 C1388 1.429 . S
C1407 C1401 1.429 1_556 S
C1407 C1408 1.523 . S
C1408 C1389 1.368 1_556 S
C1408 C1402 1.368 . S
C1408 C1407 1.523 . S
C1409 C1393 1.429 . S
C1409 C1405 1.429 1_554 S
C1409 C1410 1.523 . S
C1410 C1394 1.368 1_554 S
C1410 C1406 1.368 . S
C1410 C1409 1.523 . S
H1411 C1386 0.950 . S
H1412 C1388 0.950 . S
H1413 C1389 0.949 . S
H1414 C1391 0.950 . S
H1415 C1393 0.950 . S
C1416 C1417 1.349 1_655 S
C1416 C1418 1.327 . S
C1416 H1441 0.950 . S
C1417 C1416 1.349 1_455 S
C1417 C1433 1.349 . S
C1418 C1416 1.327 . S
C1418 C1437 1.429 1_655 S
C1418 H1442 0.950 . S
C1419 C1436 1.574 . S
C1419 C1438 1.368 . S
C1419 H1443 0.949 . S
H1420 C1424 0.949 . S
C1421 C1422 1.349 . S
C1421 C1423 1.327 . S
C1421 H1444 0.950 . S
C1422 C1421 1.349 . S
C1422 C1434 1.349 1_455 S
C1423 C1421 1.327 . S
C1423 C1439 1.429 . S
C1423 H1445 0.950 . S
C1424 H1420 0.949 . S
C1424 C1432 1.574 . S
C1424 C1440 1.368 1_655 S
H1425 C1433 0.950 . S
H1426 C1431 0.950 . S
H1427 C1432 0.949 . S
H1428 C1434 0.950 . S
H1429 C1435 0.950 . S
H1430 C1436 0.949 . S
C1431 H1426 0.950 . S
C1431 C1433 1.327 . S
C1431 C1437 1.429 . S
C1432 C1424 1.574 . S
C1432 H1427 0.949 . S
C1432 C1438 1.368 1_645 S
C1433 C1417 1.349 . S
C1433 H1425 0.950 . S
C1433 C1431 1.327 . S
C1434 C1422 1.349 1_655 S
C1434 H1428 0.950 . S
C1434 C1435 1.327 . S
C1435 H1429 0.950 . S
C1435 C1434 1.327 . S
C1435 C1439 1.429 1_655 S
C1436 C1419 1.574 . S
C1436 H1430 0.949 . S
C1436 C1440 1.368 1_565 S
C1437 C1418 1.429 1_455 S
C1437 C1431 1.429 . S
C1437 C1438 1.523 . S
C1438 C1419 1.368 . S
C1438 C1432 1.368 1_465 S
C1438 C1437 1.523 . S
C1439 C1423 1.429 . S
C1439 C1435 1.429 1_455 S
C1439 C1440 1.523 . S
C1440 C1424 1.368 1_455 S
C1440 C1436 1.368 1_545 S
C1440 C1439 1.523 . S
H1441 C1416 0.950 . S
H1442 C1418 0.950 . S
H1443 C1419 0.949 . S
H1444 C1421 0.950 . S
H1445 C1423 0.950 . S
C1446 C1447 1.349 . S
C1446 C1448 1.327 . S
C1446 H1471 0.950 . S
C1447 C1446 1.349 . S
C1447 C1463 1.333 1_655 S
C1448 C1446 1.327 . S
C1448 C1467 1.429 . S
C1448 H1472 0.950 . S
C1449 C1466 1.575 . S
C1449 C1468 1.368 1_455 S
C1449 H1473 0.949 . S
H1450 C1454 0.949 . S
C1451 C1452 1.351 . S
C1451 C1453 1.327 1_655 S
C1451 H1474 0.948 1_655 S
C1452 C1451 1.351 . S
C1452 C1464 1.349 . S
C1453 C1451 1.327 1_455 S
C1453 C1469 1.427 1_455 S
C1453 H1475 0.951 . S
C1454 H1450 0.949 . S
C1454 C1462 1.574 . S
C1454 C1470 1.368 . S
H1455 C1463 0.967 . S
H1456 C1461 0.970 . S
H1457 C1462 0.949 . S
H1458 C1464 0.950 . S
H1459 C1465 0.950 . S
H1460 C1466 0.968 . S
C1461 H1456 0.970 . S
C1461 C1463 1.327 . S
C1461 C1467 1.411 1_455 S
C1462 C1454 1.574 . S
C1462 H1457 0.949 . S
C1462 C1468 1.368 . S
C1463 C1447 1.333 1_455 S
C1463 H1455 0.967 . S
C1463 C1461 1.327 . S
C1464 C1452 1.349 . S
C1464 H1458 0.950 . S
C1464 C1465 1.327 . S
C1465 H1459 0.950 . S
C1465 C1464 1.327 . S
C1465 C1469 1.429 . S
C1466 C1449 1.575 . S
C1466 H1460 0.968 . S
C1466 C1470 1.349 1_455 S
C1467 C1448 1.429 . S
C1467 C1461 1.411 1_655 S
C1467 C1468 1.523 . S
C1468 C1449 1.368 1_655 S
C1468 C1462 1.368 . S
C1468 C1467 1.523 . S
C1469 C1453 1.427 1_655 S
C1469 C1465 1.429 . S
C1469 C1470 1.523 . S
C1470 C1454 1.368 . S
C1470 C1466 1.349 1_655 S
C1470 C1469 1.523 . S
H1471 C1446 0.950 . S
H1472 C1448 0.950 . S
H1473 C1449 0.949 . S
H1474 C1451 0.948 1_455 S
H1475 C1453 0.951 . S
C1476 C1477 1.349 1_565 S
C1476 C1478 1.327 . S
C1476 H1501 0.950 . S
C1477 C1476 1.349 1_545 S
C1477 C1493 1.349 . S
C1478 C1476 1.327 . S
C1478 C1497 1.429 1_565 S
C1478 H1502 0.950 . S
C1479 C1496 1.552 1_556 S
C1479 C1498 1.391 . S
C1479 H1503 0.949 . S
H1480 C1484 0.949 . S
C1481 C1482 1.349 . S
C1481 C1483 1.327 . S
C1481 H1504 0.950 . S
C1482 C1481 1.349 . S
C1482 C1494 1.349 1_545 S
C1483 C1481 1.327 . S
C1483 C1499 1.429 . S
C1483 H1505 0.950 . S
C1484 H1480 0.949 . S
C1484 C1492 1.574 . S
C1484 C1500 1.368 1_566 S
H1485 C1493 0.950 . S
H1486 C1491 0.950 . S
H1487 C1492 0.949 . S
H1488 C1494 0.950 . S
H1489 C1495 0.950 . S
H1490 C1496 0.949 . S
C1491 H1486 0.950 . S
C1491 C1493 1.327 . S
C1491 C1497 1.429 . S
C1492 C1484 1.574 . S
C1492 H1487 0.949 . S
C1492 C1498 1.368 1_565 S
C1493 C1477 1.349 . S
C1493 H1485 0.950 . S
C1493 C1491 1.327 . S
C1494 C1482 1.349 1_565 S
C1494 H1488 0.950 . S
C1494 C1495 1.327 . S
C1495 H1489 0.950 . S
C1495 C1494 1.327 . S
C1495 C1499 1.429 1_565 S
C1496 C1479 1.552 1_554 S
C1496 H1490 0.949 . S
C1496 C1500 1.368 . S
C1497 C1478 1.429 1_545 S
C1497 C1491 1.429 . S
C1497 C1498 1.523 . S
C1498 C1479 1.391 . S
C1498 C1492 1.368 1_545 S
C1498 C1497 1.523 . S
C1499 C1483 1.429 . S
C1499 C1495 1.429 1_545 S
C1499 C1500 1.523 . S
C1500 C1484 1.368 1_544 S
C1500 C1496 1.368 . S
C1500 C1499 1.523 . S
H1501 C1476 0.950 . S
H1502 C1478 0.950 . S
H1503 C1479 0.949 . S
H1504 C1481 0.950 . S
H1505 C1483 0.950 . S
C1506 C1507 1.349 . S
C1506 C1508 1.327 . S
C1506 H1531 0.950 . S
C1507 C1506 1.349 . S
C1507 C1523 1.349 . S
C1508 C1506 1.327 . S
C1508 C1527 1.429 . S
C1508 H1532 0.950 . S
C1509 C1526 1.574 . S
C1509 C1528 1.368 1_556 S
C1509 H1533 0.949 . S
H1510 C1514 0.949 . S
C1511 C1512 1.349 . S
C1511 C1513 1.327 . S
C1511 H1534 0.950 . S
C1512 C1511 1.349 . S
C1512 C1524 1.349 . S
C1513 C1511 1.327 . S
C1513 C1529 1.429 . S
C1513 H1535 0.950 . S
C1514 H1510 0.949 . S
C1514 C1522 1.574 1_556 S
C1514 C1530 1.368 . S
H1515 C1523 0.950 . S
H1516 C1521 0.950 . S
H1517 C1522 0.949 . S
H1518 C1524 0.950 . S
H1519 C1525 0.950 . S
H1520 C1526 0.949 . S
C1521 H1516 0.950 . S
C1521 C1523 1.327 . S
C1521 C1527 1.429 . S
C1522 C1514 1.574 1_554 S
C1522 H1517 0.949 . S
C1522 C1528 1.368 . S
C1523 C1507 1.349 . S
C1523 H1515 0.950 . S
C1523 C1521 1.327 . S
C1524 C1512 1.349 . S
C1524 H1518 0.950 . S
C1524 C1525 1.327 . S
C1525 H1519 0.950 . S
C1525 C1524 1.327 . S
C1525 C1529 1.429 . S
C1526 C1509 1.574 . S
C1526 H1520 0.949 . S
C1526 C1530 1.368 . S
C1527 C1508 1.429 . S
C1527 C1521 1.429 . S
C1527 C1528 1.523 . S
C1528 C1509 1.368 1_554 S
C1528 C1522 1.368 . S
C1528 C1527 1.523 . S
C1529 C1513 1.429 . S
C1529 C1525 1.429 . S
C1529 C1530 1.523 . S
C1530 C1514 1.368 . S
C1530 C1526 1.368 . S
C1530 C1529 1.523 . S
H1531 C1506 0.950 . S
H1532 C1508 0.950 . S
H1533 C1509 0.949 . S
H1534 C1511 0.950 . S
H1535 C1513 0.950 . S
C1536 C1537 1.349 . S
C1536 C1538 1.327 . S
C1536 H1561 0.950 . S
C1537 C1536 1.349 . S
C1537 C1553 1.349 1_565 S
C1538 C1536 1.327 . S
C1538 C1557 1.429 . S
C1538 H1562 0.950 . S
C1539 C1556 1.574 . S
C1539 C1558 1.368 1_545 S
C1539 H1563 0.949 . S
H1540 C1544 0.949 . S
C1541 C1542 1.349 1_545 S
C1541 C1543 1.327 . S
C1541 H1564 0.950 . S
C1542 C1541 1.349 1_565 S
C1542 C1554 1.349 . S
C1543 C1541 1.327 . S
C1543 C1559 1.429 1_545 S
C1543 H1565 0.950 . S
C1544 H1540 0.949 . S
C1544 C1552 1.574 . S
C1544 C1560 1.368 . S
H1545 C1553 0.950 . S
H1546 C1551 0.950 . S
H1547 C1552 0.949 . S
H1548 C1554 0.950 . S
H1549 C1555 0.950 . S
H1550 C1556 0.949 . S
C1551 H1546 0.950 . S
C1551 C1553 1.327 . S
C1551 C1557 1.429 1_545 S
C1552 C1544 1.574 . S
C1552 H1547 0.949 . S
C1552 C1558 1.368 . S
C1553 C1537 1.349 1_545 S
C1553 H1545 0.950 . S
C1553 C1551 1.327 . S
C1554 C1542 1.349 . S
C1554 H1548 0.950 . S
C1554 C1555 1.327 . S
C1555 H1549 0.950 . S
C1555 C1554 1.327 . S
C1555 C1559 1.429 . S
C1556 C1539 1.574 . S
C1556 H1550 0.949 . S
C1556 C1560 1.368 1_545 S
C1557 C1538 1.429 . S
C1557 C1551 1.429 1_565 S
C1557 C1558 1.523 . S
C1558 C1539 1.368 1_565 S
C1558 C1552 1.368 . S
C1558 C1557 1.523 . S
C1559 C1543 1.429 1_565 S
C1559 C1555 1.429 . S
C1559 C1560 1.523 . S
C1560 C1544 1.368 . S
C1560 C1556 1.368 1_565 S
C1560 C1559 1.523 . S
H1561 C1536 0.950 . S
H1562 C1538 0.950 . S
H1563 C1539 0.949 . S
H1564 C1541 0.950 . S
H1565 C1543 0.950 . S
C1566 C1567 1.349 . S
C1566 C1568 1.327 . S
C1566 H1591 0.950 . S
C1567 C1566 1.349 . S
C1567 C1583 1.349 . S
C1568 C1566 1.327 . S
C1568 C1587 1.429 . S
C1568 H1592 0.950 . S
C1569 C1586 1.574 . S
C1569 C1588 1.368 . S
C1569 H1593 0.949 . S
H1570 C1574 0.949 . S
C1571 C1572 1.349 . S
C1571 C1573 1.327 . S
C1571 H1594 0.950 . S
C1572 C1571 1.349 . S
C1572 C1584 1.349 . S
C1573 C1571 1.327 . S
C1573 C1589 1.429 . S
C1573 H1595 0.950 . S
C1574 H1570 0.949 . S
C1574 C1582 1.574 . S
C1574 C1590 1.368 . S
H1575 C1583 0.950 . S
H1576 C1581 0.950 . S
H1577 C1582 0.949 . S
H1578 C1584 0.950 . S
H1579 C1585 0.950 . S
H1580 C1586 0.949 . S
C1581 H1576 0.950 . S
C1581 C1583 1.327 . S
C1581 C1587 1.429 . S
C1582 C1574 1.574 . S
C1582 H1577 0.949 . S
C1582 C1588 1.368 . S
C1583 C1567 1.349 . S
C1583 H1575 0.950 . S
C1583 C1581 1.327 . S
C1584 C1572 1.349 . S
C1584 H1578 0.950 . S
C1584 C1585 1.327 . S
C1585 H1579 0.950 . S
C1585 C1584 1.327 . S
C1585 C1589 1.429 . S
C1586 C1569 1.574 . S
C1586 H1580 0.949 . S
C1586 C1590 1.368 . S
C1587 C1568 1.429 . S
C1587 C1581 1.429 . S
C1587 C1588 1.523 . S
C1588 C1569 1.368 . S
C1588 C1582 1.368 . S
C1588 C1587 1.523 . S
C1589 C1573 1.429 . S
C1589 C1585 1.429 . S
C1589 C1590 1.523 . S
C1590 C1574 1.368 . S
C1590 C1586 1.368 . S
C1590 C1589 1.523 . S
H1591 C1566 0.950 . S
H1592 C1568 0.950 . S
H1593 C1569 0.949 . S
H1594 C1571 0.950 . S
H1595 C1573 0.950 . S
C1596 C1597 1.349 . S
C1596 C1598 1.327 . S
C1596 H1621 0.950 . S
C1597 C1596 1.349 . S
C1597 C1613 1.349 1_554 S
C1598 C1596 1.327 . S
C1598 C1617 1.429 . S
C1598 H1622 0.950 . S
C1599 C1616 1.574 1_455 S
C1599 C1618 1.368 1_556 S
C1599 H1623 0.949 . S
H1600 C1604 0.949 . S
C1601 C1602 1.349 1_556 S
C1601 C1603 1.327 . S
C1601 H1624 0.950 . S
C1602 C1601 1.349 1_554 S
C1602 C1614 1.349 . S
C1603 C1601 1.327 . S
C1603 C1619 1.429 1_556 S
C1603 H1625 0.950 . S
C1604 H1600 0.949 . S
C1604 C1612 1.574 . S
C1604 C1620 1.368 . S
H1605 C1613 0.950 . S
H1606 C1611 0.950 . S
H1607 C1612 0.949 . S
H1608 C1614 0.950 . S
H1609 C1615 0.950 . S
H1610 C1616 0.952 . S
C1611 H1606 0.950 . S
C1611 C1613 1.327 . S
C1611 C1617 1.429 1_556 S
C1612 C1604 1.574 . S
C1612 H1607 0.949 . S
C1612 C1618 1.368 1_655 S
C1613 C1597 1.349 1_556 S
C1613 H1605 0.950 . S
C1613 C1611 1.327 . S
C1614 C1602 1.349 . S
C1614 H1608 0.950 . S
C1614 C1615 1.327 . S
C1615 H1609 0.950 . S
C1615 C1614 1.327 . S
C1615 C1619 1.429 . S
C1616 C1599 1.574 1_655 S
C1616 H1610 0.952 . S
C1616 C1620 1.368 1_556 S
C1617 C1598 1.429 . S
C1617 C1611 1.429 1_554 S
C1617 C1618 1.523 . S
C1618 C1599 1.368 1_554 S
C1618 C1612 1.368 1_455 S
C1618 C1617 1.523 . S
C1619 C1603 1.429 1_554 S
C1619 C1615 1.429 . S
C1619 C1620 1.523 . S
C1620 C1604 1.368 . S
C1620 C1616 1.368 1_554 S
C1620 C1619 1.523 . S
H1621 C1596 0.950 . S
H1622 C1598 0.950 . S
H1623 C1599 0.949 . S
H1624 C1601 0.950 . S
H1625 C1603 0.950 . S
C1626 C1627 1.349 . S
C1626 C1628 1.327 . S
C1626 H1651 0.950 . S
C1627 C1626 1.349 . S
C1627 C1643 1.349 . S
C1628 C1626 1.327 . S
C1628 C1647 1.429 . S
C1628 H1652 0.950 . S
C1629 C1646 1.574 . S
C1629 C1648 1.368 1_655 S
C1629 H1653 0.949 . S
H1630 C1634 0.949 . S
C1631 C1632 1.349 . S
C1631 C1633 1.327 . S
C1631 H1654 0.950 . S
C1632 C1631 1.349 . S
C1632 C1644 1.349 . S
C1633 C1631 1.327 . S
C1633 C1649 1.429 . S
C1633 H1655 0.950 . S
C1634 H1630 0.949 . S
C1634 C1642 1.574 1_655 S
C1634 C1650 1.368 . S
H1635 C1643 0.950 . S
H1636 C1641 0.950 . S
H1637 C1642 0.949 . S
H1638 C1644 0.950 . S
H1639 C1645 0.950 . S
H1640 C1646 0.949 . S
C1641 H1636 0.950 . S
C1641 C1643 1.327 . S
C1641 C1647 1.429 . S
C1642 C1634 1.574 1_455 S
C1642 H1637 0.949 . S
C1642 C1648 1.368 . S
C1643 C1627 1.349 . S
C1643 H1635 0.950 . S
C1643 C1641 1.327 . S
C1644 C1632 1.349 . S
C1644 H1638 0.950 . S
C1644 C1645 1.327 . S
C1645 H1639 0.950 . S
C1645 C1644 1.327 . S
C1645 C1649 1.429 . S
C1646 C1629 1.574 . S
C1646 H1640 0.949 . S
C1646 C1650 1.368 . S
C1647 C1628 1.429 . S
C1647 C1641 1.429 . S
C1647 C1648 1.523 . S
C1648 C1629 1.368 1_455 S
C1648 C1642 1.368 . S
C1648 C1647 1.523 . S
C1649 C1633 1.429 . S
C1649 C1645 1.429 . S
C1649 C1650 1.523 . S
C1650 C1634 1.368 . S
C1650 C1646 1.368 . S
C1650 C1649 1.523 . S
H1651 C1626 0.950 . S
H1652 C1628 0.950 . S
H1653 C1629 0.949 . S
H1654 C1631 0.950 . S
H1655 C1633 0.950 . S
C1656 C1657 1.349 . S
C1656 C1658 1.327 . S
C1656 H1681 0.950 . S
C1657 C1656 1.349 . S
C1657 C1673 1.349 . S
C1658 C1656 1.327 . S
C1658 C1677 1.429 . S
C1658 H1682 0.950 . S
C1659 C1676 1.574 . S
C1659 C1678 1.368 . S
C1659 H1683 0.949 . S
H1660 C1664 0.949 . S
C1661 C1662 1.349 . S
C1661 C1663 1.327 . S
C1661 H1684 0.950 . S
C1662 C1661 1.349 . S
C1662 C1674 1.349 . S
C1663 C1661 1.327 . S
C1663 C1679 1.429 . S
C1663 H1685 0.950 . S
C1664 H1660 0.949 . S
C1664 C1672 1.574 . S
C1664 C1680 1.368 . S
H1665 C1673 0.950 . S
H1666 C1671 0.950 . S
H1667 C1672 0.949 . S
H1668 C1674 0.950 . S
H1669 C1675 0.950 . S
H1670 C1676 0.949 . S
C1671 H1666 0.950 . S
C1671 C1673 1.327 . S
C1671 C1677 1.429 . S
C1672 C1664 1.574 . S
C1672 H1667 0.949 . S
C1672 C1678 1.368 . S
C1673 C1657 1.349 . S
C1673 H1665 0.950 . S
C1673 C1671 1.327 . S
C1674 C1662 1.349 . S
C1674 H1668 0.950 . S
C1674 C1675 1.327 . S
C1675 H1669 0.950 . S
C1675 C1674 1.327 . S
C1675 C1679 1.429 . S
C1676 C1659 1.574 . S
C1676 H1670 0.949 . S
C1676 C1680 1.368 . S
C1677 C1658 1.429 . S
C1677 C1671 1.429 . S
C1677 C1678 1.523 . S
C1678 C1659 1.368 . S
C1678 C1672 1.368 . S
C1678 C1677 1.523 . S
C1679 C1663 1.429 . S
C1679 C1675 1.429 . S
C1679 C1680 1.523 . S
C1680 C1664 1.368 . S
C1680 C1676 1.368 . S
C1680 C1679 1.523 . S
H1681 C1656 0.950 . S
H1682 C1658 0.950 . S
H1683 C1659 0.949 . S
H1684 C1661 0.950 . S
H1685 C1663 0.950 . S
C1686 C1687 1.349 . S
C1686 C1688 1.327 . S
C1686 H1711 0.950 . S
C1687 C1686 1.349 . S
C1687 C1703 1.349 . S
C1688 C1686 1.327 . S
C1688 C1707 1.429 . S
C1688 H1712 0.950 . S
C1689 C1706 1.574 . S
C1689 C1708 1.368 . S
C1689 H1713 0.949 . S
H1690 C1694 0.949 . S
C1691 C1692 1.349 . S
C1691 C1693 1.327 . S
C1691 H1714 0.950 . S
C1692 C1691 1.349 . S
C1692 C1704 1.349 . S
C1693 C1691 1.327 . S
C1693 C1709 1.429 . S
C1693 H1715 0.950 . S
C1694 H1690 0.949 . S
C1694 C1702 1.574 . S
C1694 C1710 1.368 . S
H1695 C1703 0.950 . S
H1696 C1701 0.950 . S
H1697 C1702 0.949 . S
H1698 C1704 0.950 . S
H1699 C1705 0.950 . S
H1700 C1706 0.949 . S
C1701 H1696 0.950 . S
C1701 C1703 1.327 . S
C1701 C1707 1.429 . S
C1702 C1694 1.574 . S
C1702 H1697 0.949 . S
C1702 C1708 1.368 . S
C1703 C1687 1.349 . S
C1703 H1695 0.950 . S
C1703 C1701 1.327 . S
C1704 C1692 1.349 . S
C1704 H1698 0.950 . S
C1704 C1705 1.327 . S
C1705 H1699 0.950 . S
C1705 C1704 1.327 . S
C1705 C1709 1.429 . S
C1706 C1689 1.574 . S
C1706 H1700 0.949 . S
C1706 C1710 1.368 . S
C1707 C1688 1.429 . S
C1707 C1701 1.429 . S
C1707 C1708 1.523 . S
C1708 C1689 1.368 . S
C1708 C1702 1.368 . S
C1708 C1707 1.523 . S
C1709 C1693 1.429 . S
C1709 C1705 1.429 . S
C1709 C1710 1.523 . S
C1710 C1694 1.368 . S
C1710 C1706 1.368 . S
C1710 C1709 1.523 . S
H1711 C1686 0.950 . S
H1712 C1688 0.950 . S
H1713 C1689 0.949 . S
H1714 C1691 0.950 . S
H1715 C1693 0.950 . S
C1716 C1717 1.349 . S
C1716 C1718 1.327 . S
C1716 H1741 0.950 . S
C1717 C1716 1.349 . S
C1717 C1733 1.349 . S
C1718 C1716 1.327 . S
C1718 C1737 1.429 . S
C1718 H1742 0.950 . S
C1719 C1736 1.574 . S
C1719 C1738 1.368 1_545 S
C1719 H1743 0.949 . S
H1720 C1724 0.949 . S
C1721 C1722 1.349 . S
C1721 C1723 1.327 . S
C1721 H1744 0.950 . S
C1722 C1721 1.349 . S
C1722 C1734 1.349 . S
C1723 C1721 1.327 . S
C1723 C1739 1.429 . S
C1723 H1745 0.950 . S
C1724 H1720 0.949 . S
C1724 C1732 1.574 . S
C1724 C1740 1.368 1_565 S
H1725 C1733 0.950 . S
H1726 C1731 0.950 . S
H1727 C1732 0.949 . S
H1728 C1734 0.950 . S
H1729 C1735 0.950 . S
H1730 C1736 0.949 . S
C1731 H1726 0.950 . S
C1731 C1733 1.327 . S
C1731 C1737 1.429 . S
C1732 C1724 1.574 . S
C1732 H1727 0.949 . S
C1732 C1738 1.368 . S
C1733 C1717 1.349 . S
C1733 H1725 0.950 . S
C1733 C1731 1.327 . S
C1734 C1722 1.349 . S
C1734 H1728 0.950 . S
C1734 C1735 1.327 . S
C1735 H1729 0.950 . S
C1735 C1734 1.327 . S
C1735 C1739 1.429 . S
C1736 C1719 1.574 . S
C1736 H1730 0.949 . S
C1736 C1740 1.368 . S
C1737 C1718 1.429 . S
C1737 C1731 1.429 . S
C1737 C1738 1.523 . S
C1738 C1719 1.368 1_565 S
C1738 C1732 1.368 . S
C1738 C1737 1.523 . S
C1739 C1723 1.429 . S
C1739 C1735 1.429 . S
C1739 C1740 1.523 . S
C1740 C1724 1.368 1_545 S
C1740 C1736 1.368 . S
C1740 C1739 1.523 . S
H1741 C1716 0.950 . S
H1742 C1718 0.950 . S
H1743 C1719 0.949 . S
H1744 C1721 0.950 . S
H1745 C1723 0.950 . S
C1746 C1747 1.349 1_554 S
C1746 C1748 1.327 . S
C1746 H1771 0.950 . S
C1747 C1746 1.349 1_556 S
C1747 C1763 1.349 . S
C1748 C1746 1.327 . S
C1748 C1767 1.429 1_554 S
C1748 H1772 0.950 . S
C1749 C1766 1.574 . S
C1749 C1768 1.368 . S
C1749 H1773 0.949 . S
H1750 C1754 0.949 . S
C1751 C1752 1.349 . S
C1751 C1753 1.327 . S
C1751 H1774 0.950 . S
C1752 C1751 1.349 . S
C1752 C1764 1.335 1_556 S
C1753 C1751 1.327 . S
C1753 C1769 1.429 . S
C1753 H1775 0.950 . S
C1754 H1750 0.949 . S
C1754 C1762 1.574 . S
C1754 C1770 1.368 1_554 S
H1755 C1763 0.950 . S
H1756 C1761 0.950 . S
H1757 C1762 0.949 . S
H1758 C1764 0.964 . S
H1759 C1765 0.985 . S
H1760 C1766 0.949 . S
C1761 H1756 0.950 . S
C1761 C1763 1.327 . S
C1761 C1767 1.429 . S
C1762 C1754 1.574 . S
C1762 H1757 0.949 . S
C1762 C1768 1.368 1_554 S
C1763 C1747 1.349 . S
C1763 H1755 0.950 . S
C1763 C1761 1.327 . S
C1764 C1752 1.335 1_554 S
C1764 H1758 0.964 . S
C1764 C1765 1.327 . S
C1765 H1759 0.985 . S
C1765 C1764 1.327 . S
C1765 C1769 1.397 1_554 S
C1766 C1749 1.574 . S
C1766 H1760 0.949 . S
C1766 C1770 1.368 . S
C1767 C1748 1.429 1_556 S
C1767 C1761 1.429 . S
C1767 C1768 1.523 . S
C1768 C1749 1.368 . S
C1768 C1762 1.368 1_556 S
C1768 C1767 1.523 . S
C1769 C1753 1.429 . S
C1769 C1765 1.397 1_556 S
C1769 C1770 1.523 . S
C1770 C1754 1.368 1_556 S
C1770 C1766 1.368 . S
C1770 C1769 1.523 . S
H1771 C1746 0.950 . S
H1772 C1748 0.950 . S
H1773 C1749 0.949 . S
H1774 C1751 0.950 . S
H1775 C1753 0.950 . S
C337 C242 0.470 . S
C342 C12 0.322 . S
C367 C26 0.343 . S
C372 C228 0.566 . S
C397 C40 0.373 . S
C402 C270 0.489 . S
C427 C54 0.394 . S
C432 C256 0.563 . S
C457 C68 0.359 . S
C462 C306 0.432 . S
C487 C82 0.352 . S
C492 C320 0.437 . S
C517 C292 0.514 . S
C522 C96 0.355 . S
C547 C166 0.509 . S
C552 C110 0.375 . S
C577 C116 0.528 . S
C582 C46 0.453 . S
C607 C18 0.490 . S
C612 C130 0.510 . S
C637 C144 0.602 . S
C642 C4 0.598 . S
C667 C158 0.499 . S
C672 C200 0.526 . S
C697 C74 0.582 . S
C702 C180 0.443 . S
C727 C60 0.515 . S
C732 C194 0.416 . S
C757 C208 0.359 . S
C762 C102 0.565 . S
C787 C222 0.328 . S
C792 C88 0.486 . S
C817 C138 0.539 . S
C822 C236 0.445 . S
C847 C152 0.512 . S
C852 C250 0.381 . S
C877 C124 0.476 . S
C882 C264 0.421 . S
C907 C278 0.377 . S
C912 C334 0.440 . S
C937 C214 0.608 . S
C942 C284 0.594 . S
C967 C298 0.546 . S
C972 C186 0.546 . S
C997 C172 0.497 . S
C1002 C312 0.502 . S
C1027 C326 0.560 . S
C1032 C32 0.525 . S
C1057 C11 1.496 . S
C1062 C25 1.485 . S
C1087 C53 1.419 . S
C1092 C39 1.431 . S
C1117 C67 1.414 . S
C1122 C95 1.405 . S
C1147 C81 1.633 . S
C1152 C109 1.620 . S
C1177 C313 1.407 . S
C1182 C117 1.389 . S
C1207 C131 1.570 . S
C1212 C159 1.582 . S
C1237 C285 1.500 . S
C1242 C145 1.487 . S
C1267 C193 1.530 . S
C1272 C179 1.516 . S
C1297 C207 1.579 . S
C1302 C221 1.593 . S
C1327 C263 1.591 . S
C1332 C235 1.578 . S
C1357 C249 1.355 . S
C1362 C277 1.365 . S
C1387 C327 1.320 . S
C1392 C299 1.327 . S
C1417 C33 1.131 . S
C1422 C5 1.123 . S
C1447 C19 1.238 . S
C1452 C47 1.248 . S
C1477 C271 1.115 . S
C1482 C61 1.108 . S
C1507 C75 1.183 . S
C1512 C257 1.191 . S
C1537 C89 1.210 . S
C1542 C243 1.217 . S
C1567 C229 1.302 . S
C1572 C103 1.294 . S
C1597 C123 1.270 . S
C1602 C333 1.266 . S
C1627 C137 1.338 . S
C1632 C151 1.334 . S
C1657 C291 1.414 . S
C1662 C165 1.419 . S
C1687 C173 1.293 . S
C1692 C201 1.282 . S
C1717 C187 1.171 . S
C1722 C215 1.160 . S
C1747 C319 1.346 . S
C1752 C305 1.341 . S
