# Generated by pormake.
# Topology uon, (4)-cn, num edge types: 1
# Building blocks:
#     Node 0, Type 0, BuildingBlock: ESEHIV_clean_sbu_0, # of connection points: 4
#     Node 1, Type 0, BuildingBlock: ESEHIV_clean_sbu_0, # of connection points: 4
#     Node 2, Type 0, BuildingBlock: ESEHIV_clean_sbu_0, # of connection points: 4
#     Node 3, Type 0, BuildingBlock: ESEHIV_clean_sbu_0, # of connection points: 4
#     Node 4, Type 0, BuildingBlock: ESEHIV_clean_sbu_0, # of connection points: 4
#     Node 5, Type 0, BuildingBlock: ESEHIV_clean_sbu_0, # of connection points: 4
#     Edge 6, Type (0, 0), BuildingBlock: FUNLAD_clean_linker_1, # of connection points: 2
#     Edge 7, Type (0, 0), BuildingBlock: FUNLAD_clean_linker_1, # of connection points: 2
#     Edge 8, Type (0, 0), BuildingBlock: FUNLAD_clean_linker_1, # of connection points: 2
#     Edge 9, Type (0, 0), BuildingBlock: FUNLAD_clean_linker_1, # of connection points: 2
#     Edge 10, Type (0, 0), BuildingBlock: FUNLAD_clean_linker_1, # of connection points: 2
#     Edge 11, Type (0, 0), BuildingBlock: FUNLAD_clean_linker_1, # of connection points: 2
#     Edge 12, Type (0, 0), BuildingBlock: FUNLAD_clean_linker_1, # of connection points: 2
#     Edge 13, Type (0, 0), BuildingBlock: FUNLAD_clean_linker_1, # of connection points: 2
#     Edge 14, Type (0, 0), BuildingBlock: FUNLAD_clean_linker_1, # of connection points: 2
#     Edge 15, Type (0, 0), BuildingBlock: FUNLAD_clean_linker_1, # of connection points: 2
#     Edge 16, Type (0, 0), BuildingBlock: FUNLAD_clean_linker_1, # of connection points: 2
#     Edge 17, Type (0, 0), BuildingBlock: FUNLAD_clean_linker_1, # of connection points: 2
# Relax obj value: 0.074
# Max RMSD: 0.073
# Mean RMSD: 0.073
data_MOF--net-uon--node1-ESEHIV_clean_sbu_0--edge1-FUNLAD_clean_linker_1
_symmetry_space_group_name_H-M    P1
_symmetry_Int_Tables_number       1
_symmetry_cell_setting            triclinic
loop_
_symmetry_equiv_pos_as_xyz
'x, y, z'
_cell_length_a     36.190122
_cell_length_b     36.077309
_cell_length_c     28.774808
_cell_angle_alpha  89.717961
_cell_angle_beta   90.713839
_cell_angle_gamma 119.42559
loop_
_atom_site_label
_atom_site_type_symbol
_atom_site_fract_x
_atom_site_fract_y
_atom_site_fract_z
_atom_type_partial_charge
Cu0 Cu 0.22352 0.42015 0.99258 0.0
N1 N 0.22749 0.45142 0.93917 0.0
N2 N 0.25795 0.49551 0.87946 0.0
C3 C 0.26083 0.46867 0.9103 0.0
C4 C 0.22131 0.49488 0.8892 0.0
C5 C 0.20242 0.46746 0.92593 0.0
O6 O 0.25639 0.39169 0.98009 0.0
C7 C 0.26907 0.49886 0.04239 0.0
O8 O 0.28691 0.51475 1.00232 0.0
H9 H 0.28827 0.46442 0.91463 0.0
H10 H 0.17387 0.46168 0.94361 0.0
N11 N 0.16664 0.37994 1.00343 0.0
N12 N 0.10445 0.34333 0.03957 0.0
C13 C 0.145 0.37518 0.04288 0.0
C14 C 0.1388 0.35006 0.9741 0.0
C15 C 0.10035 0.32738 0.99625 0.0
C16 C 0.24977 0.3569 0.99867 0.0
O17 O 0.22173 0.33996 0.03182 0.0
H18 H 0.15871 0.39476 0.07349 0.0
H19 H 0.14599 0.34517 0.93904 0.0
O20 O 0.24376 0.45899 0.04594 0.0
H21 H 0.21024 0.51471 0.87266 0.0
H22 H 0.07184 0.30136 0.98142 0.0
Cu23 Cu 0.80121 0.21504 0.34691 0.0
N24 N 0.81689 0.27289 0.34678 0.0
N25 N 0.82134 0.33262 0.31791 0.0
C26 C 0.8131 0.2927 0.30874 0.0
C27 C 0.83113 0.33857 0.36371 0.0
C28 C 0.82832 0.30152 0.38148 0.0
O29 O 0.82223 0.20553 0.28849 0.0
C30 C 0.72966 0.18944 0.39662 0.0
O31 O 0.75988 0.21479 0.42554 0.0
H32 H 0.80292 0.27746 0.27509 0.0
H33 H 0.83297 0.2955 0.41734 0.0
N34 N 0.82352 0.198 0.39659 0.0
N35 N 0.82188 0.15633 0.45542 0.0
C36 C 0.80314 0.15879 0.41553 0.0
C37 C 0.85664 0.22117 0.42516 0.0
C38 C 0.85564 0.19549 0.46153 0.0
C39 C 0.86224 0.22827 0.28336 0.0
O40 O 0.88506 0.25303 0.31784 0.0
H41 H 0.77339 0.13363 0.40191 0.0
H42 H 0.87849 0.25482 0.42127 0.0
O43 O 0.73987 0.18428 0.35584 0.0
H44 H 0.83907 0.36717 0.38315 0.0
H45 H 0.87682 0.20539 0.49142 0.0
Cu46 Cu 0.58523 0.8191 0.71266 0.0
N47 N 0.54734 0.84033 0.71503 0.0
N48 N 0.49306 0.84945 0.69191 0.0
C49 C 0.51798 0.83251 0.68166 0.0
C50 C 0.50752 0.8689 0.73334 0.0
C51 C 0.54095 0.86311 0.74767 0.0
O52 O 0.62206 0.84783 0.65985 0.0
C53 C 0.52303 0.74174 0.73983 0.0
O54 O 0.52445 0.7671 0.7733 0.0
H55 H 0.51506 0.81436 0.6507 0.0
H56 H 0.55872 0.87412 0.77987 0.0
N57 N 0.61741 0.82784 0.76759 0.0
N58 N 0.65143 0.81496 0.82573 0.0
C59 C 0.62834 0.80001 0.78606 0.0
C60 C 0.63418 0.86148 0.79662 0.0
C61 C 0.65529 0.85367 0.83229 0.0
C62 C 0.64593 0.88805 0.66313 0.0
O63 O 0.64636 0.90697 0.70217 0.0
H64 H 0.61973 0.76963 0.77031 0.0
H65 H 0.63149 0.88982 0.79222 0.0
O66 O 0.54903 0.75774 0.70644 0.0
H67 H 0.49448 0.88569 0.75213 0.0
H68 H 0.67221 0.87482 0.86096 0.0
Cu69 Cu 0.81164 0.60513 0.02445 0.0
N70 N 0.80817 0.57474 0.97046 0.0
N71 N 0.78036 0.53105 0.90948 0.0
C72 C 0.77284 0.55074 0.94495 0.0
C73 C 0.82187 0.54287 0.91295 0.0
C74 C 0.83909 0.57019 0.95033 0.0
O75 O 0.78283 0.63769 1.01006 0.0
C76 C 0.79946 0.53795 0.08198 0.0
O77 O 0.82384 0.53496 0.05048 0.0
H78 H 0.74195 0.54643 0.95342 0.0
H79 H 0.87155 0.58474 0.96281 0.0
N80 N 0.86842 0.64269 0.04086 0.0
N81 N 0.92996 0.67136 0.08051 0.0
C82 C 0.89179 0.63647 0.07372 0.0
C83 C 0.89294 0.68293 0.02614 0.0
C84 C 0.93099 0.70072 0.05048 0.0
C85 C 0.74258 0.62092 1.00855 0.0
O86 O 0.71903 0.5813 0.0219 0.0
H87 H 0.88067 0.60746 0.09355 0.0
H88 H 0.8834 0.69852 1.00027 0.0
O89 O 0.78751 0.56558 0.07648 0.0
H90 H 0.83832 0.53185 0.89056 0.0
H91 H 0.95714 0.73273 0.04638 0.0
Cu92 Cu 0.26705 0.80733 0.32989 0.0
N93 N 0.29653 0.79906 0.28191 0.0
N94 N 0.31376 0.76585 0.22802 0.0
C95 C 0.28825 0.7612 0.2641 0.0
C96 C 0.33881 0.8082 0.22292 0.0
C97 C 0.32823 0.82864 0.25628 0.0
O98 O 0.20738 0.7758 0.31099 0.0
C99 C 0.27434 0.79498 0.42761 0.0
O100 O 0.25181 0.81403 0.43394 0.0
H101 H 0.26318 0.73106 0.27662 0.0
H102 H 0.34205 0.86264 0.26097 0.0
N103 N 0.2847 0.86563 0.33632 0.0
N104 N 0.30977 0.93038 0.36787 0.0
C105 C 0.307 0.89178 0.37178 0.0
C106 C 0.27396 0.88897 0.30843 0.0
C107 C 0.28926 0.92888 0.32779 0.0
C108 C 0.17947 0.78598 0.32152 0.0
O109 O 0.18899 0.81683 0.35141 0.0
H110 H 0.31979 0.88238 0.40085 0.0
H111 H 0.25499 0.87724 0.27702 0.0
O112 O 0.28101 0.78685 0.38658 0.0
H113 H 0.36265 0.82326 0.19643 0.0
H114 H 0.2847 0.95425 0.31382 0.0
Cu115 Cu 0.46343 0.22335 0.6821 0.0
N116 N 0.48966 0.18974 0.68299 0.0
N117 N 0.52427 0.15885 0.65233 0.0
C118 C 0.50423 0.18134 0.64392 0.0
C119 C 0.52277 0.15321 0.69877 0.0
C120 C 0.50087 0.17193 0.71767 0.0
O121 O 0.43166 0.20746 0.62342 0.0
C122 C 0.53064 0.29138 0.72397 0.0
O123 O 0.52242 0.2606 0.75372 0.0
H124 H 0.50187 0.19344 0.61017 0.0
H125 H 0.49484 0.17359 0.75411 0.0
N126 N 0.42725 0.2142 0.73218 0.0
N127 N 0.39304 0.2302 0.7859 0.0
C128 C 0.4162 0.2428 0.74682 0.0
C129 C 0.41033 0.1821 0.76306 0.0
C130 C 0.38908 0.19185 0.79629 0.0
C131 C 0.40657 0.16759 0.61864 0.0
O132 O 0.39982 0.14276 0.65483 0.0
H133 H 0.42596 0.27297 0.72971 0.0
H134 H 0.41389 0.15406 0.76204 0.0
O135 O 0.50814 0.28266 0.68698 0.0
H136 H 0.53733 0.13762 0.71769 0.0
H137 H 0.37251 0.17235 0.82584 0.0
H138 H 0.26462 0.30429 0.99819 0.0
C139 C 0.27017 0.33311 0.98022 0.0
H140 H 0.29817 0.37282 0.92217 0.0
H141 H 0.42877 0.31023 0.87624 0.0
H142 H 0.47585 0.38126 0.90553 0.0
H143 H 0.44734 0.42364 0.94164 0.0
H144 H 0.37146 0.39529 0.94871 0.0
C145 C 0.29202 0.34385 0.94022 0.0
C146 C 0.30893 0.31733 0.91921 0.0
C147 C 0.35339 0.33441 0.91479 0.0
C148 C 0.36987 0.31007 0.89338 0.0
C149 C 0.41444 0.32762 0.89094 0.0
C150 C 0.44189 0.36826 0.90798 0.0
C151 C 0.42583 0.39213 0.92832 0.0
C152 C 0.38217 0.37552 0.932 0.0
H153 H 0.38196 0.28399 0.7946 0.0
C154 C 0.37756 0.25466 0.81039 0.0
H155 H 0.35296 0.21375 0.86833 0.0
H156 H 0.22186 0.27626 0.91693 0.0
H157 H 0.17491 0.2055 0.88738 0.0
H158 H 0.2035 0.16263 0.85259 0.0
H159 H 0.27936 0.19054 0.84672 0.0
C160 C 0.3586 0.24323 0.85206 0.0
C161 C 0.34185 0.26879 0.87564 0.0
C162 C 0.29741 0.25159 0.88031 0.0
C163 C 0.2809 0.27602 0.90143 0.0
C164 C 0.23631 0.25874 0.90297 0.0
C165 C 0.20889 0.21819 0.88571 0.0
C166 C 0.22498 0.19408 0.86605 0.0
C167 C 0.26864 0.21048 0.86305 0.0
H168 H 0.86338 0.21091 0.20942 0.0
C169 C 0.88276 0.23006 0.23841 0.0
H170 H 0.94361 0.27696 0.26128 0.0
H171 H 1.0167 0.22225 0.08383 0.0
H172 H 0.98928 0.1533 0.12082 0.0
H173 H 0.94248 0.13452 0.18869 0.0
H174 H 0.92258 0.18449 0.21988 0.0
C175 C 0.92465 0.25673 0.23267 0.0
C176 C 0.94663 0.26438 0.18716 0.0
C177 C 0.95759 0.23464 0.16898 0.0
C178 C 0.98488 0.24564 0.12989 0.0
C179 C 0.99596 0.21558 0.11316 0.0
C180 C 0.98053 0.1759 0.13415 0.0
C181 C 0.95417 0.16532 0.17237 0.0
C182 C 0.9429 0.19428 0.18987 0.0
H183 H 0.08286 0.34756 0.1088 0.0
C184 C 0.07323 0.33061 0.07584 0.0
H185 H 1.02245 0.2807 0.03869 0.0
H186 H 0.92883 0.32722 0.21056 0.0
H187 H 0.95387 0.39512 0.17175 0.0
H188 H 0.9996 0.41345 0.10299 0.0
H189 H 1.02091 0.36424 0.07288 0.0
C190 C 0.03278 0.29904 0.0706 0.0
C191 C 1.00153 0.28651 0.10926 0.0
C192 C 0.98847 0.31525 0.12577 0.0
C193 C 0.96143 0.30434 0.16497 0.0
C194 C 0.94949 0.33396 0.18111 0.0
C195 C 0.96344 0.37295 0.15902 0.0
C196 C 0.98922 0.38329 0.12033 0.0
C197 C 1.00152 0.35485 0.10363 0.0
H198 H 0.82038 0.12887 0.52368 0.0
C199 C 0.80595 0.12227 0.48917 0.0
H200 H 0.75846 0.07522 0.44587 0.0
H201 H 0.73884 0.92548 0.58139 0.0
H202 H 0.7824 0.91961 0.52185 0.0
H203 H 0.81245 0.9729 0.45926 0.0
H204 H 0.79959 0.03288 0.45629 0.0
C205 C 0.77259 0.08341 0.48035 0.0
C206 C 0.75321 0.05041 0.51747 0.0
C207 C 0.75956 1.01462 0.51791 0.0
C208 C 0.74114 0.98312 0.55339 0.0
C209 C 0.75049 0.94936 0.55442 0.0
C210 C 0.7758 0.94579 0.52061 0.0
C211 C 0.79278 0.97584 0.4854 0.0
C212 C 0.78506 1.01003 0.48403 0.0
H213 H 0.66013 0.90012 0.58785 0.0
C214 C 0.66879 0.91427 0.62227 0.0
H215 H 0.70544 0.96963 0.66189 0.0
H216 H 0.7326 0.11371 0.52544 0.0
H217 H 0.68851 0.11952 0.5843 0.0
H218 H 0.65431 0.06387 0.64385 0.0
H219 H 0.6648 1.00258 0.64559 0.0
C220 C 0.69755 0.95595 0.62718 0.0
C221 C 0.71499 0.98666 0.58752 0.0
C222 C 0.7079 0.02211 0.58631 0.0
C223 C 0.72717 0.05403 0.55154 0.0
C224 C 0.71941 0.08891 0.55141 0.0
C225 C 0.69396 0.09257 0.5849 0.0
C226 C 0.67472 0.06125 0.61843 0.0
C227 C 0.68124 0.02629 0.61913 0.0
H228 H 0.68731 0.62701 0.98557 0.0
C229 C 0.72178 0.64354 0.98701 0.0
H230 H 0.77799 0.69748 0.96532 0.0
H231 H 0.70245 0.74128 0.78947 0.0
H232 H 0.74764 0.71722 0.75475 0.0
H233 H 0.78099 0.68462 0.80272 0.0
H234 H 0.76965 0.67618 0.88576 0.0
C235 C 0.74355 0.68165 0.96599 0.0
C236 C 0.72182 0.70025 0.93726 0.0
C237 C 0.72834 0.70464 0.88852 0.0
C238 C 0.70839 0.72271 0.86063 0.0
C239 C 0.71619 0.72721 0.81223 0.0
C240 C 0.74217 0.71362 0.79181 0.0
C241 C 0.761 0.69534 0.81883 0.0
C242 C 0.7543 0.69081 0.86656 0.0
H243 H 0.69178 0.81502 0.8828 0.0
C244 C 0.66981 0.79567 0.85547 0.0
H245 H 0.63916 0.7349 0.82394 0.0
H246 H 0.70526 0.70036 0.02981 0.0
H247 H 0.65706 0.72085 0.064 0.0
H248 H 0.61804 0.74666 1.01495 0.0
H249 H 0.62767 0.75303 0.93154 0.0
C250 C 0.66053 0.75477 0.85127 0.0
C251 C 0.68149 0.73613 0.88124 0.0
C252 C 0.67418 0.73088 0.92986 0.0
C253 C 0.6951 0.7139 0.95797 0.0
C254 C 0.68896 0.71137 1.00662 0.0
C255 C 0.66155 0.72327 0.02676 0.0
C256 C 0.63971 0.73796 0.99916 0.0
C257 C 0.64578 0.74175 0.9513 0.0
H258 H 0.95976 0.64619 0.12806 0.0
C259 C 0.96183 0.67512 0.11382 0.0
H260 H 0.99535 0.7422 0.11525 0.0
H261 H 0.06406 0.69439 0.31068 0.0
H262 H 0.99072 0.65827 0.33541 0.0
H263 H 0.93344 0.65061 0.28217 0.0
H264 H 0.94892 0.67821 0.20374 0.0
C265 C 0.99292 0.71308 0.12912 0.0
C266 C 0.02697 0.71731 0.16235 0.0
C267 C 1.01749 0.70261 0.20895 0.0
C268 C 0.05081 0.70883 0.2405 0.0
C269 C 0.04021 0.69193 0.28594 0.0
C270 C 0.99822 0.67094 0.3005 0.0
C271 C 0.96596 0.66651 0.27048 0.0
C272 C 0.97529 0.68225 0.22531 0.0
H273 H 0.11777 0.78085 0.30251 0.0
C274 C 0.13883 0.76818 0.29515 0.0
H275 H 0.15114 0.72926 0.25079 0.0
H276 H 0.05624 0.74703 0.07514 0.0
H277 H 0.12959 0.78392 0.05094 0.0
H278 H 0.1874 0.7978 0.10652 0.0
H279 H 0.17226 0.77467 0.18649 0.0
C280 C 0.1294 0.74076 0.25951 0.0
C281 C 0.09373 0.73137 0.22618 0.0
C282 C 0.10311 0.74554 0.17948 0.0
C283 C 0.06978 0.73831 0.1476 0.0
C284 C 0.08024 0.75233 0.10108 0.0
C285 C 0.12225 0.77344 0.08662 0.0
C286 C 0.15478 0.78119 0.11788 0.0
C287 C 0.14556 0.76757 0.16376 0.0
H288 H 0.39644 0.16893 0.54225 0.0
C289 C 0.39123 0.14834 0.57199 0.0
H290 H 0.36888 0.08547 0.59568 0.0
H291 H 0.24956 0.97554 0.43686 0.0
H292 H 0.19763 0.97298 0.49113 0.0
H293 H 0.21968 0.02141 0.55862 0.0
H294 H 0.2939 0.07279 0.57223 0.0
C295 C 0.37429 0.10597 0.56579 0.0
C296 C 0.361 0.08397 0.51979 0.0
C297 C 0.31746 0.05468 0.51159 0.0
C298 C 0.3047 0.02701 0.47237 0.0
C299 C 0.26103 0.99755 0.4658 0.0
C300 C 0.23086 0.99569 0.49674 0.0
C301 C 0.24328 0.02291 0.53477 0.0
C302 C 0.286 0.05212 0.54228 0.0
H303 H 0.34496 0.96001 0.43178 0.0
C304 C 0.32786 0.96379 0.40244 0.0
H305 H 0.30296 1.00132 0.37413 0.0
H306 H 0.447 0.13719 0.52362 0.0
H307 H 0.49859 0.14095 0.46814 0.0
H308 H 0.47623 0.09399 0.39952 0.0
H309 H 0.40194 0.0427 0.38593 0.0
C310 C 0.32179 0.99779 0.40159 0.0
C311 C 0.33548 0.02845 0.4413 0.0
C312 C 0.37884 0.05898 0.44826 0.0
C313 C 0.39168 0.08664 0.48761 0.0
C314 C 0.43537 0.11578 0.49427 0.0
C315 C 0.46537 0.11825 0.46268 0.0
C316 C 0.45276 0.09178 0.42401 0.0
C317 C 0.41006 0.06243 0.41669 0.0
H318 H 0.33162 0.74386 0.16617 0.0
C319 C 0.31336 0.73369 0.19799 0.0
H320 H 0.27445 0.68064 0.24003 0.0
H321 H 0.24523 0.59057 0.03237 0.0
H322 H 0.20601 0.62734 1.01417 0.0
H323 H 0.20422 0.67839 0.06953 0.0
H324 H 0.24183 0.69317 0.14331 0.0
C325 C 0.29129 0.69178 0.20756 0.0
C326 C 0.2907 0.65941 0.17486 0.0
C327 C 0.26824 0.65082 0.13195 0.0
C328 C 0.26893 0.621 0.10021 0.0
C329 C 0.24613 0.6131 0.05765 0.0
C330 C 0.2233 0.63386 0.04681 0.0
C331 C 0.22231 0.66262 0.07796 0.0
C332 C 0.2443 0.67101 0.12012 0.0
H333 H 0.25678 0.51351 0.1134 0.0
C334 C 0.27349 0.52757 0.08135 0.0
H335 H 0.30914 0.58432 0.04364 0.0
H336 H 0.33498 0.66654 0.25505 0.0
H337 H 0.37345 0.62901 0.27389 0.0
H338 H 0.37554 0.57814 0.21849 0.0
H339 H 0.33898 0.56421 0.14401 0.0
C340 C 0.29411 0.57022 0.07643 0.0
C341 C 0.29159 0.59926 0.11156 0.0
C342 C 0.31319 0.60708 0.15497 0.0
C343 C 0.31244 0.63691 0.18675 0.0
C344 C 0.33449 0.64425 0.22969 0.0
C345 C 0.35676 0.62299 0.24091 0.0
C346 C 0.3579 0.59431 0.20972 0.0
C347 C 0.33659 0.58645 0.16714 0.0
H348 H 0.57554 0.14704 0.63197 0.0
C349 C 0.54812 0.14912 0.61955 0.0
H350 H 0.51128 0.14726 0.5616 0.0
H351 H 0.66642 0.2308 0.42585 0.0
H352 H 0.64407 0.28391 0.42886 0.0
H353 H 0.58716 0.27536 0.4815 0.0
H354 H 0.55252 0.21389 0.53159 0.0
C355 C 0.53898 0.14577 0.57371 0.0
C356 C 0.56948 0.14767 0.53814 0.0
C357 C 0.5886 0.1834 0.50803 0.0
C358 C 0.62139 0.18833 0.47755 0.0
C359 C 0.64122 0.22523 0.44944 0.0
C360 C 0.62869 0.25604 0.45081 0.0
C361 C 0.59664 0.25122 0.48042 0.0
C362 C 0.57692 0.21558 0.50895 0.0
H363 H 0.65948 0.15737 0.38643 0.0
C364 C 0.68509 0.16926 0.41201 0.0
H365 H 0.70263 0.17913 0.48305 0.0
H366 H 0.53371 0.07157 0.58423 0.0
H367 H 0.55426 0.01693 0.57844 0.0
H368 H 0.61064 0.0254 0.52498 0.0
H369 H 0.64784 0.08928 0.47786 0.0
C370 C 0.67693 0.16874 0.45767 0.0
C371 C 0.63476 0.15741 0.47699 0.0
C372 C 0.61299 0.11993 0.50387 0.0
C373 C 0.5803 0.11499 0.53453 0.0
C374 C 0.55924 0.07722 0.561 0.0
C375 C 0.57042 0.04547 0.55765 0.0
C376 C 0.60221 0.05025 0.52756 0.0
C377 C 0.62347 0.08707 0.50098 0.0
H378 H 0.49162 0.67432 0.71566 0.0
C379 C 0.49146 0.69583 0.74186 0.0
H380 H 0.46347 0.70251 0.80289 0.0
H381 H 0.29458 0.52598 0.75427 0.0
H382 H 0.28837 0.56014 0.68386 0.0
H383 H 0.34732 0.6293 0.65877 0.0
H384 H 0.41295 0.66455 0.70353 0.0
C385 C 0.46281 0.68094 0.77625 0.0
C386 C 0.43143 0.63526 0.78347 0.0
C387 C 0.39316 0.61544 0.75718 0.0
C388 C 0.35863 0.57619 0.77249 0.0
C389 C 0.32114 0.55651 0.74504 0.0
C390 C 0.3173 0.57563 0.70444 0.0
C391 C 0.35051 0.61456 0.69028 0.0
C392 C 0.38803 0.63446 0.71628 0.0
H393 H 0.28971 0.55459 0.84014 0.0
C394 C 0.29078 0.52595 0.84984 0.0
H395 H 0.32515 0.49292 0.84557 0.0
H396 H 0.50295 0.66095 0.8364 0.0
H397 H 0.51016 0.626 0.90556 0.0
H398 H 0.44966 0.55949 0.93407 0.0
H399 H 0.38186 0.52744 0.89374 0.0
C400 C 0.32389 0.52148 0.83636 0.0
C401 C 0.36202 0.55763 0.81483 0.0
C402 C 0.40164 0.57554 0.83872 0.0
C403 C 0.43636 0.61427 0.82282 0.0
C404 C 0.47543 0.63191 0.84756 0.0
C405 C 0.48003 0.61211 0.88714 0.0
C406 C 0.44599 0.57464 0.90313 0.0
C407 C 0.40717 0.55651 0.87949 0.0
H408 H 0.77092 0.51614 0.15174 0.0
C409 C 0.79132 0.51372 0.12596 0.0
H410 H 0.83325 0.49058 0.11061 0.0
H411 H 0.88713 0.4671 0.30874 0.0
H412 H 0.94502 0.53792 0.29231 0.0
H413 H 0.94111 0.57883 0.2253 0.0
H414 H 0.87921 0.54918 0.17426 0.0
C415 C 0.81126 0.49129 0.13549 0.0
C416 C 0.80892 0.47066 0.1812 0.0
C417 C 0.84484 0.48865 0.21134 0.0
C418 C 0.8469 0.46518 0.25029 0.0
C419 C 0.88372 0.48361 0.27894 0.0
C420 C 0.9172 0.52424 0.26989 0.0
C421 C 0.91502 0.54728 0.23214 0.0
C422 C 0.8794 0.52982 0.20303 0.0
H423 H 0.81365 0.35115 0.24789 0.0
C424 C 0.81787 0.36061 0.28427 0.0
H425 H 0.82221 0.40732 0.33161 0.0
H426 H 0.73403 0.42835 0.13279 0.0
H427 H 0.6738 0.36002 0.15259 0.0
H428 H 0.67577 0.32105 0.22243 0.0
H429 H 0.73826 0.34981 0.27246 0.0
C430 C 0.81768 0.39666 0.29577 0.0
C431 C 0.81295 0.42367 0.25908 0.0
C432 C 0.77543 0.40736 0.23133 0.0
C433 C 0.77369 0.43055 0.19193 0.0
C434 C 0.73673 0.41245 0.16354 0.0
C435 C 0.70193 0.37326 0.17452 0.0
C436 C 0.70308 0.35127 0.21378 0.0
C437 C 0.73927 0.36797 0.24201 0.0
H438 H 0.31643 0.77354 0.45934 0.0
C439 C 0.29887 0.79015 0.46637 0.0
H440 H 0.28986 0.82952 0.51358 0.0
H441 H 0.38777 0.74829 0.64323 0.0
H442 H 0.32189 0.68132 0.63708 0.0
H443 H 0.26311 0.67475 0.5871 0.0
H444 H 0.26977 0.73523 0.54298 0.0
C445 C 0.30512 0.81057 0.50718 0.0
C446 C 0.3391 0.8148 0.5403 0.0
C447 C 0.33472 0.77926 0.566 0.0
C448 C 0.36864 0.78314 0.59501 0.0
C449 C 0.36323 0.74709 0.62037 0.0
C450 C 0.32553 0.70847 0.61728 0.0
C451 C 0.29242 0.70478 0.58914 0.0
C452 C 0.29673 0.73967 0.56382 0.0
H453 H 0.4428 0.86512 0.678 0.0
C454 C 0.45802 0.84764 0.66536 0.0
H455 H 0.45685 0.80587 0.61332 0.0
H456 H 0.3571 0.88984 0.49777 0.0
H457 H 0.4226 0.95689 0.50414 0.0
H458 H 0.48202 0.9632 0.55263 0.0
H459 H 0.4763 0.90269 0.59546 0.0
C460 C 0.44353 0.82509 0.62565 0.0
C461 C 0.40689 0.82262 0.59855 0.0
C462 C 0.41091 0.85846 0.57359 0.0
C463 C 0.3768 0.85463 0.54491 0.0
C464 C 0.38184 0.89085 0.52013 0.0
C465 C 0.41935 0.92958 0.52334 0.0
C466 C 0.4528 0.93314 0.55071 0.0
C467 C 0.44893 0.89811 0.57539 0.0
H468 H 0.56557 0.36178 0.7151 0.0
C469 C 0.56343 0.33552 0.73576 0.0
H470 H 0.58583 0.31665 0.79421 0.0
H471 H 0.74657 0.5117 0.78502 0.0
H472 H 0.76011 0.49501 0.70762 0.0
H473 H 0.70932 0.42788 0.66891 0.0
H474 H 0.64425 0.37749 0.70686 0.0
C475 C 0.58893 0.34316 0.77325 0.0
C476 C 0.6176 0.3864 0.79266 0.0
C477 C 0.65599 0.41496 0.7704 0.0
C478 C 0.68628 0.45283 0.79365 0.0
C479 C 0.72344 0.48168 0.76982 0.0
C480 C 0.73143 0.47264 0.72525 0.0
C481 C 0.70276 0.4349 0.70339 0.0
C482 C 0.66545 0.40626 0.72555 0.0
H483 H 0.75775 0.47685 0.86238 0.0
C484 C 0.7501 0.49969 0.87777 0.0
H485 H 0.70502 0.5204 0.8821 0.0
H486 H 0.54483 0.34166 0.84235 0.0
H487 H 0.5314 0.35799 0.91984 0.0
H488 H 0.58516 0.42157 0.96172 0.0
H489 H 0.65263 0.46906 0.92656 0.0
C490 C 0.71266 0.49741 0.86728 0.0
C491 C 0.67899 0.4611 0.8399 0.0
C492 C 0.63955 0.43368 0.86105 0.0
C493 C 0.60881 0.39656 0.83727 0.0
C494 C 0.56967 0.3698 0.85921 0.0
C495 C 0.56141 0.37893 0.90358 0.0
C496 C 0.59166 0.41472 0.92713 0.0
C497 C 0.63032 0.44182 0.90639 0.0
loop_
_geom_bond_atom_site_label_1
_geom_bond_atom_site_label_2
_geom_bond_distance
_geom_bond_site_symmetry_2
_ccdc_geom_bond_type
Cu0 N1 1.999 . S
Cu0 O6 1.974 . S
Cu0 N11 1.985 1_556 S
Cu0 O20 1.959 1_556 S
N1 Cu0 1.999 . S
N1 C3 1.263 . S
N1 C5 1.389 . S
N2 C3 1.358 . S
N2 C4 1.400 . S
C3 N1 1.263 . S
C3 N2 1.358 . S
C3 H9 0.930 . S
C4 N2 1.400 . S
C4 C5 1.351 . S
C4 H21 0.930 . S
C5 N1 1.389 . S
C5 C4 1.351 . S
C5 H10 0.930 . S
O6 Cu0 1.974 . S
O6 C16 1.282 . S
C7 O8 1.261 . S
C7 O20 1.251 . S
O8 C7 1.261 . S
H9 C3 0.930 . S
H10 C5 0.930 . S
N11 Cu0 1.985 1_554 S
N11 C13 1.335 . S
N11 C14 1.390 . S
N12 C13 1.345 . S
N12 C15 1.336 . S
C13 N11 1.335 . S
C13 N12 1.345 . S
C13 H18 0.930 . S
C14 N11 1.390 . S
C14 C15 1.346 . S
C14 H19 0.930 . S
C15 N12 1.336 . S
C15 C14 1.346 . S
C15 H22 0.929 . S
C16 O6 1.282 . S
C16 O17 1.216 . S
O17 C16 1.216 . S
H18 C13 0.930 . S
H19 C14 0.930 . S
O20 Cu0 1.959 1_554 S
O20 C7 1.251 . S
H21 C4 0.930 . S
H22 C15 0.929 . S
Cu23 N24 1.999 . S
Cu23 O29 1.974 . S
Cu23 N34 1.985 . S
Cu23 O43 1.959 . S
N24 Cu23 1.999 . S
N24 C26 1.263 . S
N24 C28 1.389 . S
N25 C26 1.358 . S
N25 C27 1.400 . S
C26 N24 1.263 . S
C26 N25 1.358 . S
C26 H32 0.930 . S
C27 N25 1.400 . S
C27 C28 1.351 . S
C27 H44 0.930 . S
C28 N24 1.389 . S
C28 C27 1.351 . S
C28 H33 0.930 . S
O29 Cu23 1.974 . S
O29 C39 1.282 . S
C30 O31 1.261 . S
C30 O43 1.251 . S
O31 C30 1.261 . S
H32 C26 0.930 . S
H33 C28 0.930 . S
N34 Cu23 1.985 . S
N34 C36 1.335 . S
N34 C37 1.390 . S
N35 C36 1.345 . S
N35 C38 1.336 . S
C36 N34 1.335 . S
C36 N35 1.345 . S
C36 H41 0.930 . S
C37 N34 1.390 . S
C37 C38 1.346 . S
C37 H42 0.930 . S
C38 N35 1.336 . S
C38 C37 1.346 . S
C38 H45 0.929 . S
C39 O29 1.282 . S
C39 O40 1.216 . S
O40 C39 1.216 . S
H41 C36 0.930 . S
H42 C37 0.930 . S
O43 Cu23 1.959 . S
O43 C30 1.251 . S
H44 C27 0.930 . S
H45 C38 0.929 . S
Cu46 N47 1.999 . S
Cu46 O52 1.974 . S
Cu46 N57 1.985 . S
Cu46 O66 1.959 . S
N47 Cu46 1.999 . S
N47 C49 1.263 . S
N47 C51 1.389 . S
N48 C49 1.358 . S
N48 C50 1.400 . S
C49 N47 1.263 . S
C49 N48 1.358 . S
C49 H55 0.930 . S
C50 N48 1.400 . S
C50 C51 1.351 . S
C50 H67 0.930 . S
C51 N47 1.389 . S
C51 C50 1.351 . S
C51 H56 0.930 . S
O52 Cu46 1.974 . S
O52 C62 1.282 . S
C53 O54 1.261 . S
C53 O66 1.251 . S
O54 C53 1.261 . S
H55 C49 0.930 . S
H56 C51 0.930 . S
N57 Cu46 1.985 . S
N57 C59 1.335 . S
N57 C60 1.390 . S
N58 C59 1.345 . S
N58 C61 1.336 . S
C59 N57 1.335 . S
C59 N58 1.345 . S
C59 H64 0.930 . S
C60 N57 1.390 . S
C60 C61 1.346 . S
C60 H65 0.930 . S
C61 N58 1.336 . S
C61 C60 1.346 . S
C61 H68 0.929 . S
C62 O52 1.282 . S
C62 O63 1.216 . S
O63 C62 1.216 . S
H64 C59 0.930 . S
H65 C60 0.930 . S
O66 Cu46 1.959 . S
O66 C53 1.251 . S
H67 C50 0.930 . S
H68 C61 0.929 . S
Cu69 N70 1.999 . S
Cu69 O75 1.974 . S
Cu69 N80 1.985 1_556 S
Cu69 O89 1.959 1_556 S
N70 Cu69 1.999 . S
N70 C72 1.263 . S
N70 C74 1.389 . S
N71 C72 1.358 . S
N71 C73 1.400 . S
C72 N70 1.263 . S
C72 N71 1.358 . S
C72 H78 0.930 . S
C73 N71 1.400 . S
C73 C74 1.351 . S
C73 H90 0.930 . S
C74 N70 1.389 . S
C74 C73 1.351 . S
C74 H79 0.930 . S
O75 Cu69 1.974 . S
O75 C85 1.282 . S
C76 O77 1.261 . S
C76 O89 1.251 . S
O77 C76 1.261 . S
H78 C72 0.930 . S
H79 C74 0.930 . S
N80 Cu69 1.985 1_554 S
N80 C82 1.335 . S
N80 C83 1.390 . S
N81 C82 1.345 . S
N81 C84 1.336 . S
C82 N80 1.335 . S
C82 N81 1.345 . S
C82 H87 0.930 . S
C83 N80 1.390 . S
C83 C84 1.346 . S
C83 H88 0.930 . S
C84 N81 1.336 . S
C84 C83 1.346 . S
C84 H91 0.929 . S
C85 O75 1.282 . S
C85 O86 1.216 . S
O86 C85 1.216 . S
H87 C82 0.930 . S
H88 C83 0.930 . S
O89 Cu69 1.959 1_554 S
O89 C76 1.251 . S
H90 C73 0.930 . S
H91 C84 0.929 . S
Cu92 N93 1.999 . S
Cu92 O98 1.974 . S
Cu92 N103 1.985 . S
Cu92 O112 1.959 . S
N93 Cu92 1.999 . S
N93 C95 1.263 . S
N93 C97 1.389 . S
N94 C95 1.358 . S
N94 C96 1.400 . S
C95 N93 1.263 . S
C95 N94 1.358 . S
C95 H101 0.930 . S
C96 N94 1.400 . S
C96 C97 1.351 . S
C96 H113 0.930 . S
C97 N93 1.389 . S
C97 C96 1.351 . S
C97 H102 0.930 . S
O98 Cu92 1.974 . S
O98 C108 1.282 . S
C99 O100 1.261 . S
C99 O112 1.251 . S
O100 C99 1.261 . S
H101 C95 0.930 . S
H102 C97 0.930 . S
N103 Cu92 1.985 . S
N103 C105 1.335 . S
N103 C106 1.390 . S
N104 C105 1.345 . S
N104 C107 1.336 . S
C105 N103 1.335 . S
C105 N104 1.345 . S
C105 H110 0.930 . S
C106 N103 1.390 . S
C106 C107 1.346 . S
C106 H111 0.930 . S
C107 N104 1.336 . S
C107 C106 1.346 . S
C107 H114 0.929 . S
C108 O98 1.282 . S
C108 O109 1.216 . S
O109 C108 1.216 . S
H110 C105 0.930 . S
H111 C106 0.930 . S
O112 Cu92 1.959 . S
O112 C99 1.251 . S
H113 C96 0.930 . S
H114 C107 0.929 . S
Cu115 N116 1.999 . S
Cu115 O121 1.974 . S
Cu115 N126 1.985 . S
Cu115 O135 1.959 . S
N116 Cu115 1.999 . S
N116 C118 1.263 . S
N116 C120 1.389 . S
N117 C118 1.358 . S
N117 C119 1.400 . S
C118 N116 1.263 . S
C118 N117 1.358 . S
C118 H124 0.930 . S
C119 N117 1.400 . S
C119 C120 1.351 . S
C119 H136 0.930 . S
C120 N116 1.389 . S
C120 C119 1.351 . S
C120 H125 0.930 . S
O121 Cu115 1.974 . S
O121 C131 1.282 . S
C122 O123 1.261 . S
C122 O135 1.251 . S
O123 C122 1.261 . S
H124 C118 0.930 . S
H125 C120 0.930 . S
N126 Cu115 1.985 . S
N126 C128 1.335 . S
N126 C129 1.390 . S
N127 C128 1.345 . S
N127 C130 1.336 . S
C128 N126 1.335 . S
C128 N127 1.345 . S
C128 H133 0.930 . S
C129 N126 1.390 . S
C129 C130 1.346 . S
C129 H134 0.930 . S
C130 N127 1.336 . S
C130 C129 1.346 . S
C130 H137 0.929 . S
C131 O121 1.282 . S
C131 O132 1.216 . S
O132 C131 1.216 . S
H133 C128 0.930 . S
H134 C129 0.930 . S
O135 Cu115 1.959 . S
O135 C122 1.251 . S
H136 C119 0.930 . S
H137 C130 0.929 . S
H138 C139 0.951 . S
C139 H138 0.951 . S
C139 C145 1.265 . S
H140 C145 0.950 . S
H141 C149 0.949 . S
H142 C150 0.950 . S
H143 C151 0.951 . S
H144 C152 0.951 . S
C145 C139 1.265 . S
C145 H140 0.950 . S
C145 C146 1.478 . S
C146 C145 1.478 . S
C146 C147 1.397 . S
C146 C163 1.394 . S
C147 C146 1.397 . S
C147 C148 1.438 . S
C147 C152 1.429 . S
C148 C147 1.438 . S
C148 C149 1.428 . S
C148 C161 1.394 . S
C149 H141 0.949 . S
C149 C148 1.428 . S
C149 C150 1.345 . S
C150 H142 0.950 . S
C150 C149 1.345 . S
C150 C151 1.424 . S
C151 H143 0.951 . S
C151 C150 1.424 . S
C151 C152 1.347 . S
C152 H144 0.951 . S
C152 C147 1.429 . S
C152 C151 1.347 . S
H153 C154 0.951 . S
C154 H153 0.951 . S
C154 C160 1.265 . S
H155 C160 0.950 . S
H156 C164 0.949 . S
H157 C165 0.950 . S
H158 C166 0.951 . S
H159 C167 0.951 . S
C160 C154 1.265 . S
C160 H155 0.950 . S
C160 C161 1.478 . S
C161 C148 1.394 . S
C161 C160 1.478 . S
C161 C162 1.397 . S
C162 C161 1.397 . S
C162 C163 1.438 . S
C162 C167 1.429 . S
C163 C146 1.394 . S
C163 C162 1.438 . S
C163 C164 1.428 . S
C164 H156 0.949 . S
C164 C163 1.428 . S
C164 C165 1.345 . S
C165 H157 0.950 . S
C165 C164 1.345 . S
C165 C166 1.424 . S
C166 H158 0.951 . S
C166 C165 1.424 . S
C166 C167 1.347 . S
C167 H159 0.951 . S
C167 C162 1.429 . S
C167 C166 1.347 . S
H168 C169 0.951 . S
C169 H168 0.951 . S
C169 C175 1.265 . S
H170 C175 0.950 . S
H171 C179 0.949 1_455 S
H172 C180 0.950 . S
H173 C181 0.951 . S
H174 C182 0.951 . S
C175 C169 1.265 . S
C175 H170 0.950 . S
C175 C176 1.478 . S
C176 C175 1.478 . S
C176 C177 1.397 . S
C176 C193 1.394 . S
C177 C176 1.397 . S
C177 C178 1.438 . S
C177 C182 1.429 . S
C178 C177 1.438 . S
C178 C179 1.428 . S
C178 C191 1.394 1_655 S
C179 H171 0.949 1_655 S
C179 C178 1.428 . S
C179 C180 1.345 . S
C180 H172 0.950 . S
C180 C179 1.345 . S
C180 C181 1.424 . S
C181 H173 0.951 . S
C181 C180 1.424 . S
C181 C182 1.347 . S
C182 H174 0.951 . S
C182 C177 1.429 . S
C182 C181 1.347 . S
H183 C184 0.951 . S
C184 H183 0.951 . S
C184 C190 1.265 . S
H185 C190 0.950 . S
H186 C194 0.949 . S
H187 C195 0.950 . S
H188 C196 0.951 . S
H189 C197 0.951 . S
C190 C184 1.265 . S
C190 H185 0.950 . S
C190 C191 1.478 . S
C191 C178 1.394 1_455 S
C191 C190 1.478 . S
C191 C192 1.397 . S
C192 C191 1.397 . S
C192 C193 1.438 1_455 S
C192 C197 1.429 . S
C193 C176 1.394 . S
C193 C192 1.438 1_655 S
C193 C194 1.428 . S
C194 H186 0.949 . S
C194 C193 1.428 . S
C194 C195 1.345 1_655 S
C195 H187 0.950 . S
C195 C194 1.345 1_455 S
C195 C196 1.424 . S
C196 H188 0.951 . S
C196 C195 1.424 . S
C196 C197 1.347 . S
C197 H189 0.951 . S
C197 C192 1.429 . S
C197 C196 1.347 . S
H198 C199 0.951 . S
C199 H198 0.951 . S
C199 C205 1.265 . S
H200 C205 0.950 . S
H201 C209 0.949 . S
H202 C210 0.950 . S
H203 C211 0.951 . S
H204 C212 0.951 . S
C205 C199 1.265 . S
C205 H200 0.950 . S
C205 C206 1.478 . S
C206 C205 1.478 . S
C206 C207 1.397 1_545 S
C206 C223 1.394 . S
C207 C206 1.397 1_565 S
C207 C208 1.438 . S
C207 C212 1.429 . S
C208 C207 1.438 . S
C208 C209 1.428 . S
C208 C221 1.394 . S
C209 H201 0.949 . S
C209 C208 1.428 . S
C209 C210 1.345 . S
C210 H202 0.950 . S
C210 C209 1.345 . S
C210 C211 1.424 . S
C211 H203 0.951 . S
C211 C210 1.424 . S
C211 C212 1.347 . S
C212 H204 0.951 . S
C212 C207 1.429 . S
C212 C211 1.347 . S
H213 C214 0.951 . S
C214 H213 0.951 . S
C214 C220 1.265 . S
H215 C220 0.950 . S
H216 C224 0.949 . S
H217 C225 0.950 . S
H218 C226 0.951 . S
H219 C227 0.951 . S
C220 C214 1.265 . S
C220 H215 0.950 . S
C220 C221 1.478 . S
C221 C208 1.394 . S
C221 C220 1.478 . S
C221 C222 1.397 . S
C222 C221 1.397 . S
C222 C223 1.438 1_565 S
C222 C227 1.429 . S
C223 C206 1.394 . S
C223 C222 1.438 1_545 S
C223 C224 1.428 . S
C224 H216 0.949 . S
C224 C223 1.428 . S
C224 C225 1.345 . S
C225 H217 0.950 . S
C225 C224 1.345 . S
C225 C226 1.424 . S
C226 H218 0.951 . S
C226 C225 1.424 . S
C226 C227 1.347 1_545 S
C227 H219 0.951 . S
C227 C222 1.429 . S
C227 C226 1.347 1_565 S
H228 C229 0.951 . S
C229 H228 0.951 . S
C229 C235 1.265 . S
H230 C235 0.950 . S
H231 C239 0.949 . S
H232 C240 0.950 . S
H233 C241 0.951 . S
H234 C242 0.951 . S
C235 C229 1.265 . S
C235 H230 0.950 . S
C235 C236 1.478 . S
C236 C235 1.478 . S
C236 C237 1.397 . S
C236 C253 1.394 . S
C237 C236 1.397 . S
C237 C238 1.438 . S
C237 C242 1.429 . S
C238 C237 1.438 . S
C238 C239 1.428 . S
C238 C251 1.394 . S
C239 H231 0.949 . S
C239 C238 1.428 . S
C239 C240 1.345 . S
C240 H232 0.950 . S
C240 C239 1.345 . S
C240 C241 1.424 . S
C241 H233 0.951 . S
C241 C240 1.424 . S
C241 C242 1.347 . S
C242 H234 0.951 . S
C242 C237 1.429 . S
C242 C241 1.347 . S
H243 C244 0.951 . S
C244 H243 0.951 . S
C244 C250 1.265 . S
H245 C250 0.950 . S
H246 C254 0.949 . S
H247 C255 0.950 . S
H248 C256 0.951 . S
H249 C257 0.951 . S
C250 C244 1.265 . S
C250 H245 0.950 . S
C250 C251 1.478 . S
C251 C238 1.394 . S
C251 C250 1.478 . S
C251 C252 1.397 . S
C252 C251 1.397 . S
C252 C253 1.438 . S
C252 C257 1.429 . S
C253 C236 1.394 . S
C253 C252 1.438 . S
C253 C254 1.428 . S
C254 H246 0.949 . S
C254 C253 1.428 . S
C254 C255 1.345 . S
C255 H247 0.950 . S
C255 C254 1.345 . S
C255 C256 1.424 . S
C256 H248 0.951 . S
C256 C255 1.424 . S
C256 C257 1.347 . S
C257 H249 0.951 . S
C257 C252 1.429 . S
C257 C256 1.347 . S
H258 C259 0.951 . S
C259 H258 0.951 . S
C259 C265 1.265 . S
H260 C265 0.950 . S
H261 C269 0.949 . S
H262 C270 0.950 . S
H263 C271 0.951 . S
H264 C272 0.951 . S
C265 C259 1.265 . S
C265 H260 0.950 . S
C265 C266 1.478 . S
C266 C265 1.478 . S
C266 C267 1.397 . S
C266 C283 1.394 1_655 S
C267 C266 1.397 . S
C267 C268 1.438 1_655 S
C267 C272 1.429 . S
C268 C267 1.438 1_455 S
C268 C269 1.428 . S
C268 C281 1.394 . S
C269 H261 0.949 . S
C269 C268 1.428 . S
C269 C270 1.345 1_455 S
C270 H262 0.950 . S
C270 C269 1.345 1_655 S
C270 C271 1.424 . S
C271 H263 0.951 . S
C271 C270 1.424 . S
C271 C272 1.347 . S
C272 H264 0.951 . S
C272 C267 1.429 . S
C272 C271 1.347 . S
H273 C274 0.951 . S
C274 H273 0.951 . S
C274 C280 1.265 . S
H275 C280 0.950 . S
H276 C284 0.949 1_655 S
H277 C285 0.950 . S
H278 C286 0.951 . S
H279 C287 0.951 . S
C280 C274 1.265 . S
C280 H275 0.950 . S
C280 C281 1.478 . S
C281 C268 1.394 . S
C281 C280 1.478 . S
C281 C282 1.397 . S
C282 C281 1.397 . S
C282 C283 1.438 . S
C282 C287 1.429 . S
C283 C266 1.394 1_455 S
C283 C282 1.438 . S
C283 C284 1.428 . S
C284 H276 0.949 1_455 S
C284 C283 1.428 . S
C284 C285 1.345 . S
C285 H277 0.950 . S
C285 C284 1.345 . S
C285 C286 1.424 . S
C286 H278 0.951 . S
C286 C285 1.424 . S
C286 C287 1.347 . S
C287 H279 0.951 . S
C287 C282 1.429 . S
C287 C286 1.347 . S
H288 C289 0.951 . S
C289 H288 0.951 . S
C289 C295 1.265 . S
H290 C295 0.950 . S
H291 C299 0.949 . S
H292 C300 0.950 . S
H293 C301 0.951 . S
H294 C302 0.947 1_545 S
C295 C289 1.265 . S
C295 H290 0.950 . S
C295 C296 1.478 . S
C296 C295 1.478 . S
C296 C297 1.397 . S
C296 C313 1.394 . S
C297 C296 1.397 . S
C297 C298 1.438 1_545 S
C297 C302 1.426 1_545 S
C298 C297 1.438 1_565 S
C298 C299 1.428 . S
C298 C311 1.394 . S
C299 H291 0.949 . S
C299 C298 1.428 . S
C299 C300 1.345 . S
C300 H292 0.950 . S
C300 C299 1.345 . S
C300 C301 1.424 . S
C301 H293 0.951 . S
C301 C300 1.424 . S
C301 C302 1.354 . S
C302 H294 0.947 1_565 S
C302 C297 1.426 1_565 S
C302 C301 1.354 . S
H303 C304 0.951 . S
C304 H303 0.951 . S
C304 C310 1.265 . S
H305 C310 0.950 . S
H306 C314 0.949 . S
H307 C315 0.950 . S
H308 C316 0.951 . S
H309 C317 0.951 . S
C310 C304 1.265 . S
C310 H305 0.950 . S
C310 C311 1.478 . S
C311 C298 1.394 . S
C311 C310 1.478 . S
C311 C312 1.397 1_565 S
C312 C311 1.397 1_545 S
C312 C313 1.438 . S
C312 C317 1.429 . S
C313 C296 1.394 . S
C313 C312 1.438 . S
C313 C314 1.428 . S
C314 H306 0.949 . S
C314 C313 1.428 . S
C314 C315 1.345 . S
C315 H307 0.950 . S
C315 C314 1.345 . S
C315 C316 1.424 . S
C316 H308 0.951 . S
C316 C315 1.424 . S
C316 C317 1.347 . S
C317 H309 0.951 . S
C317 C312 1.429 . S
C317 C316 1.347 . S
H318 C319 0.951 . S
C319 H318 0.951 . S
C319 C325 1.265 . S
H320 C325 0.950 . S
H321 C329 0.949 . S
H322 C330 0.950 . S
H323 C331 0.951 . S
H324 C332 0.951 . S
C325 C319 1.265 . S
C325 H320 0.950 . S
C325 C326 1.478 . S
C326 C325 1.478 . S
C326 C327 1.397 . S
C326 C343 1.394 . S
C327 C326 1.397 . S
C327 C328 1.438 . S
C327 C332 1.429 . S
C328 C327 1.438 . S
C328 C329 1.428 . S
C328 C341 1.394 . S
C329 H321 0.949 . S
C329 C328 1.428 . S
C329 C330 1.345 . S
C330 H322 0.950 . S
C330 C329 1.345 . S
C330 C331 1.424 . S
C331 H323 0.951 . S
C331 C330 1.424 . S
C331 C332 1.347 . S
C332 H324 0.951 . S
C332 C327 1.429 . S
C332 C331 1.347 . S
H333 C334 0.951 . S
C334 H333 0.951 . S
C334 C340 1.265 . S
H335 C340 0.950 . S
H336 C344 0.949 . S
H337 C345 0.950 . S
H338 C346 0.951 . S
H339 C347 0.951 . S
C340 C334 1.265 . S
C340 H335 0.950 . S
C340 C341 1.478 . S
C341 C328 1.394 . S
C341 C340 1.478 . S
C341 C342 1.397 . S
C342 C341 1.397 . S
C342 C343 1.438 . S
C342 C347 1.429 . S
C343 C326 1.394 . S
C343 C342 1.438 . S
C343 C344 1.428 . S
C344 H336 0.949 . S
C344 C343 1.428 . S
C344 C345 1.345 . S
C345 H337 0.950 . S
C345 C344 1.345 . S
C345 C346 1.424 . S
C346 H338 0.951 . S
C346 C345 1.424 . S
C346 C347 1.347 . S
C347 H339 0.951 . S
C347 C342 1.429 . S
C347 C346 1.347 . S
H348 C349 0.951 . S
C349 H348 0.951 . S
C349 C355 1.265 . S
H350 C355 0.950 . S
H351 C359 0.949 . S
H352 C360 0.950 . S
H353 C361 0.951 . S
H354 C362 0.951 . S
C355 C349 1.265 . S
C355 H350 0.950 . S
C355 C356 1.478 . S
C356 C355 1.478 . S
C356 C357 1.397 . S
C356 C373 1.394 . S
C357 C356 1.397 . S
C357 C358 1.438 . S
C357 C362 1.429 . S
C358 C357 1.438 . S
C358 C359 1.428 . S
C358 C371 1.394 . S
C359 H351 0.949 . S
C359 C358 1.428 . S
C359 C360 1.345 . S
C360 H352 0.950 . S
C360 C359 1.345 . S
C360 C361 1.424 . S
C361 H353 0.951 . S
C361 C360 1.424 . S
C361 C362 1.347 . S
C362 H354 0.951 . S
C362 C357 1.429 . S
C362 C361 1.347 . S
H363 C364 0.951 . S
C364 H363 0.951 . S
C364 C370 1.265 . S
H365 C370 0.950 . S
H366 C374 0.949 . S
H367 C375 0.950 . S
H368 C376 0.951 . S
H369 C377 0.951 . S
C370 C364 1.265 . S
C370 H365 0.950 . S
C370 C371 1.478 . S
C371 C358 1.394 . S
C371 C370 1.478 . S
C371 C372 1.397 . S
C372 C371 1.397 . S
C372 C373 1.438 . S
C372 C377 1.429 . S
C373 C356 1.394 . S
C373 C372 1.438 . S
C373 C374 1.428 . S
C374 H366 0.949 . S
C374 C373 1.428 . S
C374 C375 1.345 . S
C375 H367 0.950 . S
C375 C374 1.345 . S
C375 C376 1.424 . S
C376 H368 0.951 . S
C376 C375 1.424 . S
C376 C377 1.347 . S
C377 H369 0.951 . S
C377 C372 1.429 . S
C377 C376 1.347 . S
H378 C379 0.951 . S
C379 H378 0.951 . S
C379 C385 1.265 . S
H380 C385 0.950 . S
H381 C389 0.949 . S
H382 C390 0.950 . S
H383 C391 0.951 . S
H384 C392 0.951 . S
C385 C379 1.265 . S
C385 H380 0.950 . S
C385 C386 1.478 . S
C386 C385 1.478 . S
C386 C387 1.397 . S
C386 C403 1.394 . S
C387 C386 1.397 . S
C387 C388 1.438 . S
C387 C392 1.429 . S
C388 C387 1.438 . S
C388 C389 1.428 . S
C388 C401 1.394 . S
C389 H381 0.949 . S
C389 C388 1.428 . S
C389 C390 1.345 . S
C390 H382 0.950 . S
C390 C389 1.345 . S
C390 C391 1.424 . S
C391 H383 0.951 . S
C391 C390 1.424 . S
C391 C392 1.347 . S
C392 H384 0.951 . S
C392 C387 1.429 . S
C392 C391 1.347 . S
H393 C394 0.951 . S
C394 H393 0.951 . S
C394 C400 1.265 . S
H395 C400 0.950 . S
H396 C404 0.949 . S
H397 C405 0.950 . S
H398 C406 0.951 . S
H399 C407 0.951 . S
C400 C394 1.265 . S
C400 H395 0.950 . S
C400 C401 1.478 . S
C401 C388 1.394 . S
C401 C400 1.478 . S
C401 C402 1.397 . S
C402 C401 1.397 . S
C402 C403 1.438 . S
C402 C407 1.429 . S
C403 C386 1.394 . S
C403 C402 1.438 . S
C403 C404 1.428 . S
C404 H396 0.949 . S
C404 C403 1.428 . S
C404 C405 1.345 . S
C405 H397 0.950 . S
C405 C404 1.345 . S
C405 C406 1.424 . S
C406 H398 0.951 . S
C406 C405 1.424 . S
C406 C407 1.347 . S
C407 H399 0.951 . S
C407 C402 1.429 . S
C407 C406 1.347 . S
H408 C409 0.951 . S
C409 H408 0.951 . S
C409 C415 1.265 . S
H410 C415 0.950 . S
H411 C419 0.949 . S
H412 C420 0.950 . S
H413 C421 0.951 . S
H414 C422 0.951 . S
C415 C409 1.265 . S
C415 H410 0.950 . S
C415 C416 1.478 . S
C416 C415 1.478 . S
C416 C417 1.397 . S
C416 C433 1.394 . S
C417 C416 1.397 . S
C417 C418 1.438 . S
C417 C422 1.429 . S
C418 C417 1.438 . S
C418 C419 1.428 . S
C418 C431 1.394 . S
C419 H411 0.949 . S
C419 C418 1.428 . S
C419 C420 1.345 . S
C420 H412 0.950 . S
C420 C419 1.345 . S
C420 C421 1.424 . S
C421 H413 0.951 . S
C421 C420 1.424 . S
C421 C422 1.347 . S
C422 H414 0.951 . S
C422 C417 1.429 . S
C422 C421 1.347 . S
H423 C424 0.951 . S
C424 H423 0.951 . S
C424 C430 1.265 . S
H425 C430 0.950 . S
H426 C434 0.949 . S
H427 C435 0.950 . S
H428 C436 0.951 . S
H429 C437 0.951 . S
C430 C424 1.265 . S
C430 H425 0.950 . S
C430 C431 1.478 . S
C431 C418 1.394 . S
C431 C430 1.478 . S
C431 C432 1.397 . S
C432 C431 1.397 . S
C432 C433 1.438 . S
C432 C437 1.429 . S
C433 C416 1.394 . S
C433 C432 1.438 . S
C433 C434 1.428 . S
C434 H426 0.949 . S
C434 C433 1.428 . S
C434 C435 1.345 . S
C435 H427 0.950 . S
C435 C434 1.345 . S
C435 C436 1.424 . S
C436 H428 0.951 . S
C436 C435 1.424 . S
C436 C437 1.347 . S
C437 H429 0.951 . S
C437 C432 1.429 . S
C437 C436 1.347 . S
H438 C439 0.951 . S
C439 H438 0.951 . S
C439 C445 1.265 . S
H440 C445 0.950 . S
H441 C449 0.949 . S
H442 C450 0.950 . S
H443 C451 0.951 . S
H444 C452 0.951 . S
C445 C439 1.265 . S
C445 H440 0.950 . S
C445 C446 1.478 . S
C446 C445 1.478 . S
C446 C447 1.397 . S
C446 C463 1.394 . S
C447 C446 1.397 . S
C447 C448 1.438 . S
C447 C452 1.429 . S
C448 C447 1.438 . S
C448 C449 1.428 . S
C448 C461 1.394 . S
C449 H441 0.949 . S
C449 C448 1.428 . S
C449 C450 1.345 . S
C450 H442 0.950 . S
C450 C449 1.345 . S
C450 C451 1.424 . S
C451 H443 0.951 . S
C451 C450 1.424 . S
C451 C452 1.347 . S
C452 H444 0.951 . S
C452 C447 1.429 . S
C452 C451 1.347 . S
H453 C454 0.951 . S
C454 H453 0.951 . S
C454 C460 1.265 . S
H455 C460 0.950 . S
H456 C464 0.949 . S
H457 C465 0.950 . S
H458 C466 0.951 . S
H459 C467 0.951 . S
C460 C454 1.265 . S
C460 H455 0.950 . S
C460 C461 1.478 . S
C461 C448 1.394 . S
C461 C460 1.478 . S
C461 C462 1.397 . S
C462 C461 1.397 . S
C462 C463 1.438 . S
C462 C467 1.429 . S
C463 C446 1.394 . S
C463 C462 1.438 . S
C463 C464 1.428 . S
C464 H456 0.949 . S
C464 C463 1.428 . S
C464 C465 1.345 . S
C465 H457 0.950 . S
C465 C464 1.345 . S
C465 C466 1.424 . S
C466 H458 0.951 . S
C466 C465 1.424 . S
C466 C467 1.347 . S
C467 H459 0.951 . S
C467 C462 1.429 . S
C467 C466 1.347 . S
H468 C469 0.951 . S
C469 H468 0.951 . S
C469 C475 1.265 . S
H470 C475 0.950 . S
H471 C479 0.949 . S
H472 C480 0.950 . S
H473 C481 0.951 . S
H474 C482 0.951 . S
C475 C469 1.265 . S
C475 H470 0.950 . S
C475 C476 1.478 . S
C476 C475 1.478 . S
C476 C477 1.397 . S
C476 C493 1.394 . S
C477 C476 1.397 . S
C477 C478 1.438 . S
C477 C482 1.429 . S
C478 C477 1.438 . S
C478 C479 1.428 . S
C478 C491 1.394 . S
C479 H471 0.949 . S
C479 C478 1.428 . S
C479 C480 1.345 . S
C480 H472 0.950 . S
C480 C479 1.345 . S
C480 C481 1.424 . S
C481 H473 0.951 . S
C481 C480 1.424 . S
C481 C482 1.347 . S
C482 H474 0.951 . S
C482 C477 1.429 . S
C482 C481 1.347 . S
H483 C484 0.951 . S
C484 H483 0.951 . S
C484 C490 1.265 . S
H485 C490 0.950 . S
H486 C494 0.949 . S
H487 C495 0.950 . S
H488 C496 0.951 . S
H489 C497 0.951 . S
C490 C484 1.265 . S
C490 H485 0.950 . S
C490 C491 1.478 . S
C491 C478 1.394 . S
C491 C490 1.478 . S
C491 C492 1.397 . S
C492 C491 1.397 . S
C492 C493 1.438 . S
C492 C497 1.429 . S
C493 C476 1.394 . S
C493 C492 1.438 . S
C493 C494 1.428 . S
C494 H486 0.949 . S
C494 C493 1.428 . S
C494 C495 1.345 . S
C495 H487 0.950 . S
C495 C494 1.345 . S
C495 C496 1.424 . S
C496 H488 0.951 . S
C496 C495 1.424 . S
C496 C497 1.347 . S
C497 H489 0.951 . S
C497 C492 1.429 . S
C497 C496 1.347 . S
C139 C16 1.375 . S
C154 N127 1.398 . S
C169 C39 1.374 . S
C184 N12 1.383 . S
C199 N35 1.383 . S
C214 C62 1.366 . S
C229 C85 1.365 . S
C244 N58 1.384 . S
C259 N81 1.401 . S
C274 C108 1.381 . S
C289 C131 1.403 . S
C304 N104 1.407 . S
C319 N94 1.341 . S
C334 C7 1.470 . S
C349 N117 1.400 . S
C364 C30 1.443 . S
C379 C53 1.473 . S
C394 N2 1.340 . S
C409 C76 1.444 . S
C424 N25 1.448 . S
C439 C99 1.446 . S
C454 N48 1.391 . S
C469 C122 1.477 . S
C484 N71 1.348 . S
