# Generated by pormake.
# Topology ukg, (4)-cn, num edge types: 1
# Building blocks:
#     Node 0, Type 0, BuildingBlock: KUFVIS_clean_sbu_0, # of connection points: 4
#     Node 1, Type 0, BuildingBlock: KUFVIS_clean_sbu_0, # of connection points: 4
#     Node 2, Type 0, BuildingBlock: KUFVIS_clean_sbu_0, # of connection points: 4
#     Node 3, Type 0, BuildingBlock: KUFVIS_clean_sbu_0, # of connection points: 4
#     Node 4, Type 0, BuildingBlock: KUFVIS_clean_sbu_0, # of connection points: 4
#     Node 5, Type 0, BuildingBlock: KUFVIS_clean_sbu_0, # of connection points: 4
#     Node 6, Type 0, BuildingBlock: KUFVIS_clean_sbu_0, # of connection points: 4
#     Node 7, Type 0, BuildingBlock: KUFVIS_clean_sbu_0, # of connection points: 4
#     Edge 8, Type (0, 0), BuildingBlock: TEMPAE_clean_linker_10, # of connection points: 2
#     Edge 9, Type (0, 0), BuildingBlock: TEMPAE_clean_linker_10, # of connection points: 2
#     Edge 10, Type (0, 0), BuildingBlock: TEMPAE_clean_linker_10, # of connection points: 2
#     Edge 11, Type (0, 0), BuildingBlock: TEMPAE_clean_linker_10, # of connection points: 2
#     Edge 12, Type (0, 0), BuildingBlock: TEMPAE_clean_linker_10, # of connection points: 2
#     Edge 13, Type (0, 0), BuildingBlock: TEMPAE_clean_linker_10, # of connection points: 2
#     Edge 14, Type (0, 0), BuildingBlock: TEMPAE_clean_linker_10, # of connection points: 2
#     Edge 15, Type (0, 0), BuildingBlock: TEMPAE_clean_linker_10, # of connection points: 2
#     Edge 16, Type (0, 0), BuildingBlock: TEMPAE_clean_linker_10, # of connection points: 2
#     Edge 17, Type (0, 0), BuildingBlock: TEMPAE_clean_linker_10, # of connection points: 2
#     Edge 18, Type (0, 0), BuildingBlock: TEMPAE_clean_linker_10, # of connection points: 2
#     Edge 19, Type (0, 0), BuildingBlock: TEMPAE_clean_linker_10, # of connection points: 2
#     Edge 20, Type (0, 0), BuildingBlock: TEMPAE_clean_linker_10, # of connection points: 2
#     Edge 21, Type (0, 0), BuildingBlock: TEMPAE_clean_linker_10, # of connection points: 2
#     Edge 22, Type (0, 0), BuildingBlock: TEMPAE_clean_linker_10, # of connection points: 2
#     Edge 23, Type (0, 0), BuildingBlock: TEMPAE_clean_linker_10, # of connection points: 2
# Relax obj value: 0.155
# Max RMSD: 0.245
# Mean RMSD: 0.245
data_MOF--net-ukg--node1-KUFVIS_clean_sbu_0--edge1-TEMPAE_clean_linker_10
_symmetry_space_group_name_H-M    P1
_symmetry_Int_Tables_number       1
_symmetry_cell_setting            triclinic
loop_
_symmetry_equiv_pos_as_xyz
'x, y, z'
_cell_length_a     30.79915
_cell_length_b     30.757318
_cell_length_c     36.21391
_cell_angle_alpha  89.992898
_cell_angle_beta   90.012703
_cell_angle_gamma 89.907592
loop_
_atom_site_label
_atom_site_type_symbol
_atom_site_fract_x
_atom_site_fract_y
_atom_site_fract_z
_atom_type_partial_charge
Mn0 Mn 0.00952 0.67087 0.15571 0.0
Mn1 Mn 0.0162 0.72546 0.07518 0.0
C2 C 0.99669 0.74424 0.15529 0.0
C3 C 0.96753 0.62789 0.19432 0.0
C4 C 0.09431 0.7004 0.12149 0.0
O5 O 0.01341 0.62316 0.11728 0.0
O6 O 0.00841 0.66206 0.06481 0.0
C7 C 0.92596 0.71107 0.04993 0.0
N8 N 0.95859 0.73888 0.05911 0.0
C9 C 0.91228 0.80101 0.04973 0.0
C10 C 0.87833 0.77304 0.03977 0.0
C11 C 0.88521 0.72788 0.0399 0.0
C12 C 0.95228 0.78239 0.0592 0.0
H13 H 0.9309 0.67632 0.05053 0.0
C14 C 0.01035 0.62587 0.08231 0.0
O15 O 0.00967 0.62715 0.19659 0.0
O16 O 0.9504 0.65262 0.16928 0.0
N17 N 0.02339 0.78698 0.08054 0.0
C18 C 0.05958 0.80954 0.09061 0.0
C19 C 0.058 0.85514 0.09223 0.0
C20 C 0.01946 0.87708 0.08304 0.0
C21 C 0.98308 0.85325 0.07161 0.0
C22 C 0.98673 0.80788 0.07015 0.0
H23 H 0.08927 0.79292 0.09783 0.0
O24 O 0.00338 0.72392 0.18611 0.0
O25 O 0.99427 0.72028 0.12565 0.0
O26 O 0.07379 0.68428 0.14887 0.0
O27 O 0.07643 0.71406 0.09172 0.0
C28 C 0.94319 0.87269 0.06203 0.0
C29 C 0.9078 0.8466 0.05115 0.0
H30 H 0.84677 0.78587 0.03226 0.0
H31 H 0.85908 0.70607 0.03251 0.0
H32 H 0.08631 0.8733 0.10084 0.0
H33 H 0.01819 0.91222 0.08478 0.0
H34 H 0.9393 0.90768 0.06317 0.0
H35 H 0.87721 0.86191 0.0441 0.0
Mn36 Mn 0.31594 0.51302 0.65298 0.0
Mn37 Mn 0.25111 0.50254 0.57856 0.0
C38 C 0.24355 0.4983 0.66107 0.0
C39 C 0.36396 0.47937 0.69348 0.0
C40 C 0.27939 0.58982 0.60974 0.0
O41 O 0.3585 0.50865 0.61065 0.0
O42 O 0.31321 0.49544 0.56305 0.0
C43 C 0.26743 0.40932 0.56362 0.0
N44 N 0.23911 0.4422 0.57111 0.0
C45 C 0.17876 0.39259 0.5723 0.0
C46 C 0.20723 0.3583 0.56414 0.0
C47 C 0.25176 0.36671 0.55983 0.0
C48 C 0.19619 0.43447 0.57535 0.0
H49 H 0.30176 0.41553 0.56083 0.0
C50 C 0.35133 0.50022 0.57678 0.0
O51 O 0.36415 0.52143 0.6896 0.0
O52 O 0.33682 0.45756 0.67352 0.0
N53 N 0.19046 0.5081 0.58935 0.0
C54 C 0.16766 0.54435 0.59909 0.0
C55 C 0.12283 0.54121 0.60564 0.0
C56 C 0.10187 0.50093 0.60194 0.0
C57 C 0.12586 0.46422 0.59134 0.0
C58 C 0.17037 0.46942 0.58475 0.0
H59 H 0.18363 0.5753 0.60242 0.0
O60 O 0.26669 0.51315 0.68813 0.0
O61 O 0.26411 0.49046 0.63033 0.0
O62 O 0.30099 0.57513 0.63723 0.0
O63 O 0.26091 0.56552 0.58571 0.0
C64 C 0.10754 0.42248 0.58791 0.0
C65 C 0.13396 0.3867 0.57838 0.0
H66 H 0.19534 0.32531 0.56156 0.0
H67 H 0.27399 0.34035 0.55386 0.0
H68 H 0.10456 0.56968 0.61387 0.0
H69 H 0.06741 0.4985 0.60755 0.0
H70 H 0.07327 0.41742 0.59305 0.0
H71 H 0.11961 0.35466 0.57633 0.0
Mn72 Mn 0.48752 0.82762 0.15502 0.0
Mn73 Mn 0.47685 0.77271 0.07479 0.0
C74 C 0.49513 0.75357 0.15471 0.0
C75 C 0.53106 0.86718 0.19502 0.0
C76 C 0.40063 0.80147 0.12109 0.0
O77 O 0.48943 0.87544 0.11663 0.0
O78 O 0.48362 0.83621 0.06442 0.0
C79 C 0.56617 0.78772 0.04755 0.0
N80 N 0.53405 0.75969 0.0575 0.0
C81 C 0.58044 0.69786 0.04711 0.0
C82 C 0.61391 0.72605 0.03646 0.0
C83 C 0.60673 0.77117 0.03668 0.0
C84 C 0.54063 0.71622 0.05743 0.0
H85 H 0.56097 0.82244 0.04811 0.0
C86 C 0.4876 0.87242 0.08162 0.0
O87 O 0.48904 0.87107 0.19597 0.0
O88 O 0.54738 0.84125 0.17046 0.0
N89 N 0.47011 0.71115 0.08 0.0
C90 C 0.43431 0.6884 0.09073 0.0
C91 C 0.43619 0.6428 0.09226 0.0
C92 C 0.4746 0.62109 0.0823 0.0
C93 C 0.51054 0.64515 0.07024 0.0
C94 C 0.50662 0.6905 0.06896 0.0
H95 H 0.40478 0.70491 0.09862 0.0
O96 O 0.48835 0.77429 0.18531 0.0
O97 O 0.50011 0.77722 0.12506 0.0
O98 O 0.42226 0.8195 0.14698 0.0
O99 O 0.4174 0.78384 0.09249 0.0
C100 C 0.55027 0.62596 0.05987 0.0
C101 C 0.58521 0.65229 0.04835 0.0
H102 H 0.64532 0.71343 0.02827 0.0
H103 H 0.63248 0.79315 0.0287 0.0
H104 H 0.40821 0.62447 0.10139 0.0
H105 H 0.4761 0.58596 0.08395 0.0
H106 H 0.55438 0.59099 0.06085 0.0
H107 H 0.61568 0.63718 0.04066 0.0
Mn108 Mn 0.18451 0.98894 0.65191 0.0
Mn109 Mn 0.24838 -0.00051 0.57688 0.0
C110 C 0.25699 0.00362 0.65937 0.0
C111 C 0.13669 0.02225 0.69277 0.0
C112 C 0.22105 0.91218 0.60851 0.0
O113 O 0.14138 0.99321 0.60999 0.0
O114 O 0.18601 0.00597 0.56191 0.0
C115 C 0.2309 0.09253 0.56206 0.0
N116 N 0.25966 0.05996 0.56932 0.0
C117 C 0.31945 0.11024 0.57018 0.0
C118 C 0.29052 0.14424 0.56227 0.0
C119 C 0.24605 0.13534 0.55823 0.0
C120 C 0.30252 0.06817 0.57331 0.0
H121 H 0.19661 0.08595 0.55947 0.0
C122 C 0.14806 0.0013 0.576 0.0
O123 O 0.1367 0.98021 0.6888 0.0
O124 O 0.16361 0.04426 0.67274 0.0
N125 N 0.30926 0.99454 0.58698 0.0
C126 C 0.33265 0.95843 0.59608 0.0
C127 C 0.37755 0.962 0.60207 0.0
C128 C 0.39799 0.00256 0.59844 0.0
C129 C 0.37341 0.0391 0.58841 0.0
C130 C 0.32884 0.03347 0.58235 0.0
H131 H 0.31709 0.92726 0.59935 0.0
O132 O 0.23416 0.98888 0.68666 0.0
O133 O 0.23607 0.01154 0.62881 0.0
O134 O 0.19949 0.92691 0.63599 0.0
O135 O 0.23928 0.93643 0.58429 0.0
C136 C 0.39122 0.08107 0.58497 0.0
C137 C 0.36426 0.11661 0.57587 0.0
H138 H 0.30202 0.17736 0.55964 0.0
H139 H 0.22347 0.16146 0.55244 0.0
H140 H 0.39629 0.93364 0.60982 0.0
H141 H 0.43252 0.00531 0.60362 0.0
H142 H 0.42551 0.08646 0.58974 0.0
H143 H 0.37824 0.14881 0.57376 0.0
Mn144 Mn 0.98976 0.3147 0.85574 0.0
Mn145 Mn 0.99706 0.24967 0.93042 0.0
C146 C 0.00127 0.24166 0.84813 0.0
C147 C 0.02382 0.36096 0.81421 0.0
C148 C 0.91134 0.27912 0.8983 0.0
O149 O 0.99813 0.35759 0.89729 0.0
O150 O 0.00125 0.3121 0.946 0.0
C151 C 0.08893 0.26878 0.94805 0.0
N152 N 0.05738 0.23948 0.9395 0.0
C153 C 0.10906 0.18069 0.93904 0.0
C154 C 0.14202 0.2102 0.94816 0.0
C155 C 0.13189 0.25443 0.95268 0.0
C156 C 0.06677 0.19683 0.93513 0.0
H157 H 0.08141 0.30289 0.95112 0.0
C158 C 0.00163 0.35028 0.93172 0.0
O159 O 0.98202 0.36289 0.81906 0.0
O160 O 0.04525 0.33284 0.83362 0.0
N161 N 0.99382 0.18874 0.91993 0.0
C162 C 0.95855 0.16471 0.90999 0.0
C163 C 0.96337 0.11993 0.90357 0.0
C164 C 0.00428 0.10027 0.9077 0.0
C165 C 0.0399 0.12549 0.91869 0.0
C166 C 0.03304 0.16989 0.92507 0.0
H167 H 0.92713 0.17972 0.90636 0.0
O168 O 0.98633 0.26509 0.82122 0.0
O169 O 0.01066 0.26214 0.87865 0.0
O170 O 0.9272 0.30293 0.87265 0.0
O171 O 0.93455 0.25782 0.92137 0.0
C172 C 0.08212 0.10849 0.9228 0.0
C173 C 0.11668 0.13606 0.93297 0.0
H174 H 0.17527 0.19932 0.95144 0.0
H175 H 0.15721 0.27744 0.95948 0.0
H176 H 0.93572 0.10069 0.89511 0.0
H177 H 0.008 0.06585 0.90221 0.0
H178 H 0.08848 0.07434 0.9178 0.0
H179 H 0.14908 0.1227 0.93566 0.0
Mn180 Mn 0.65513 0.48301 0.33757 0.0
Mn181 Mn 0.71647 0.49045 0.41449 0.0
C182 C 0.72706 0.50047 0.33261 0.0
C183 C 0.60806 0.51795 0.2968 0.0
C184 C 0.69721 0.40491 0.37651 0.0
O185 O 0.6102 0.48412 0.37815 0.0
O186 O 0.65347 0.48832 0.42805 0.0
C187 C 0.68813 0.57906 0.43558 0.0
N188 N 0.72059 0.55076 0.42679 0.0
C189 C 0.77434 0.60719 0.43168 0.0
C190 C 0.74152 0.63683 0.44109 0.0
C191 C 0.69823 0.62269 0.44301 0.0
C192 C 0.76234 0.56405 0.42478 0.0
H193 H 0.65475 0.56848 0.43674 0.0
C194 C 0.61593 0.48617 0.41287 0.0
O195 O 0.60891 0.47569 0.29872 0.0
O196 O 0.63355 0.53895 0.3188 0.0
N197 N 0.77789 0.4932 0.40648 0.0
C198 C 0.80569 0.46069 0.39658 0.0
C199 C 0.85018 0.46964 0.39292 0.0
C200 C 0.86573 0.51173 0.39991 0.0
C201 C 0.8367 0.54438 0.41097 0.0
C202 C 0.79274 0.53346 0.41445 0.0
H203 H 0.79392 0.42841 0.39075 0.0
O204 O 0.70563 0.48656 0.3042 0.0
O205 O 0.70507 0.5061 0.36303 0.0
O206 O 0.67244 0.42007 0.35105 0.0
O207 O 0.71452 0.42839 0.4017 0.0
C208 C 0.84955 0.58752 0.41806 0.0
C209 C 0.81838 0.61891 0.42837 0.0
H210 H 0.74914 0.67058 0.44663 0.0
H211 H 0.67268 0.64544 0.45004 0.0
H212 H 0.87238 0.44424 0.38441 0.0
H213 H 0.89999 0.51863 0.39664 0.0
H214 H 0.88325 0.59699 0.41532 0.0
H215 H 0.8286 0.65206 0.43343 0.0
Mn216 Mn 0.5128 0.1837 0.85247 0.0
Mn217 Mn 0.50212 0.24684 0.92798 0.0
C218 C 0.49674 0.25607 0.84552 0.0
C219 C 0.47968 0.13565 0.81178 0.0
C220 C 0.58936 0.22142 0.89517 0.0
O221 O 0.51007 0.14012 0.89415 0.0
O222 O 0.49735 0.18413 0.94267 0.0
C223 C 0.40989 0.22731 0.9437 0.0
N224 N 0.44161 0.25683 0.93625 0.0
C225 C 0.38996 0.31563 0.93614 0.0
C226 C 0.35683 0.28591 0.94424 0.0
C227 C 0.36684 0.24156 0.948 0.0
C228 C 0.43232 0.29958 0.93252 0.0
H229 H 0.41732 0.19311 0.94607 0.0
C230 C 0.50254 0.14633 0.92829 0.0
O231 O 0.52173 0.13624 0.81518 0.0
O232 O 0.45761 0.16212 0.83226 0.0
N233 N 0.5055 0.30797 0.91826 0.0
C234 C 0.5409 0.33222 0.90908 0.0
C235 C 0.53619 0.37715 0.9034 0.0
C236 C 0.49524 0.39673 0.90744 0.0
C237 C 0.45946 0.37128 0.9176 0.0
C238 C 0.46622 0.32672 0.92332 0.0
H239 H 0.57237 0.31733 0.90552 0.0
O240 O 0.51138 0.23357 0.81796 0.0
O241 O 0.48963 0.23482 0.87608 0.0
O242 O 0.57471 0.19965 0.86777 0.0
O243 O 0.56513 0.23903 0.91976 0.0
C244 C 0.41718 0.3882 0.9215 0.0
C245 C 0.38246 0.3604 0.93076 0.0
H246 H 0.32352 0.29672 0.94726 0.0
H247 H 0.34139 0.21837 0.95395 0.0
H248 H 0.56397 0.39657 0.89556 0.0
H249 H 0.4916 0.43128 0.9025 0.0
H250 H 0.41091 0.42246 0.917 0.0
H251 H 0.35001 0.37371 0.93325 0.0
Mn252 Mn 0.8414 0.0149 0.3392 0.0
Mn253 Mn 0.78083 0.00775 0.41652 0.0
C254 C 0.76967 0.99653 0.33482 0.0
C255 C 0.88821 0.98018 0.29819 0.0
C256 C 0.79876 0.09299 0.37763 0.0
O257 O 0.88674 0.01454 0.37946 0.0
O258 O 0.84395 0.01092 0.4297 0.0
C259 C 0.81053 0.9199 0.4386 0.0
N260 N 0.77763 0.94759 0.42958 0.0
C261 C 0.72468 0.89056 0.43557 0.0
C262 C 0.75795 0.86154 0.44523 0.0
C263 C 0.80106 0.87629 0.44672 0.0
C264 C 0.73604 0.93372 0.42801 0.0
H265 H 0.84377 0.93094 0.43945 0.0
C266 C 0.88134 0.01305 0.41424 0.0
O267 O 0.88701 0.02244 0.29992 0.0
O268 O 0.86334 0.95905 0.32061 0.0
N269 N 0.7194 0.00401 0.40882 0.0
C270 C 0.69112 0.03588 0.39842 0.0
C271 C 0.64676 0.02622 0.39497 0.0
C272 C 0.63182 0.98408 0.40268 0.0
C273 C 0.66134 0.95209 0.4142 0.0
C274 C 0.70515 0.9637 0.4174 0.0
H275 H 0.70243 0.06818 0.392 0.0
O276 O 0.79067 0.01055 0.30623 0.0
O277 O 0.79197 0.99143 0.36517 0.0
O278 O 0.82364 0.07778 0.3523 0.0
O279 O 0.78178 0.06964 0.40307 0.0
C280 C 0.64913 0.90893 0.42198 0.0
C281 C 0.68078 0.87818 0.43263 0.0
H282 H 0.75082 0.82781 0.45129 0.0
H283 H 0.82696 0.85403 0.45394 0.0
H284 H 0.62419 0.05111 0.38607 0.0
H285 H 0.59766 0.97662 0.39955 0.0
H286 H 0.61555 0.89893 0.41949 0.0
H287 H 0.67104 0.845 0.43822 0.0
C288 C 0.03443 0.42184 0.94727 0.0
C289 C 0.00555 0.38833 0.95623 0.0
C290 C 0.03663 0.45973 0.96879 0.0
C291 C 0.00802 0.4649 0.9991 0.0
C292 C 0.9788 0.431 0.00826 0.0
C293 C 0.97848 0.3927 0.98705 0.0
C294 C 0.06933 0.49435 0.95888 0.0
C295 C 0.94689 0.43577 0.03964 0.0
C296 C 0.03349 0.54878 0.07314 0.0
C297 C 0.00952 0.58485 0.06097 0.0
C298 C 0.03368 0.5097 0.05309 0.0
C299 C 0.00816 0.50615 0.02071 0.0
C300 C 0.98328 0.54228 0.00865 0.0
C301 C 0.98486 0.58146 0.02858 0.0
C302 C 0.06177 0.47249 0.06621 0.0
C303 C 0.95473 0.53945 0.97484 0.0
H304 H 0.05544 0.41826 0.92343 0.0
H305 H 0.95577 0.36692 0.9936 0.0
H306 H 0.05226 0.5244 0.95012 0.0
H307 H 0.08927 0.50271 0.9834 0.0
H308 H 0.09132 0.48392 0.93623 0.0
H309 H 0.92625 0.40647 0.04312 0.0
H310 H 0.9644 0.44189 0.06588 0.0
H311 H 0.92554 0.46426 0.03455 0.0
H312 H 0.05293 0.55144 0.098 0.0
H313 H 0.96608 0.60919 0.01924 0.0
H314 H 0.08493 0.46304 0.04414 0.0
H315 H 0.04139 0.44365 0.0722 0.0
H316 H 0.08047 0.48084 0.09146 0.0
H317 H 0.97489 0.53323 0.95002 0.0
H318 H 0.9357 0.56968 0.97024 0.0
H319 H 0.93187 0.51178 0.97761 0.0
C320 C 0.39155 0.46533 0.52443 0.0
C321 C 0.38935 0.49714 0.55205 0.0
C322 C 0.42849 0.46158 0.50181 0.0
C323 C 0.46318 0.49142 0.50607 0.0
C324 C 0.46054 0.52419 0.53344 0.0
C325 C 0.42401 0.52614 0.55651 0.0
C326 C 0.43065 0.4254 0.47371 0.0
C327 C 0.49607 0.55754 0.53808 0.0
C328 C 0.57695 0.46602 0.47102 0.0
C329 C 0.57696 0.48702 0.43668 0.0
C330 C 0.53966 0.46603 0.4934 0.0
C331 C 0.50209 0.48887 0.4817 0.0
C332 C 0.50221 0.51056 0.4472 0.0
C333 C 0.53941 0.50876 0.42486 0.0
C334 C 0.5404 0.44148 0.52951 0.0
C335 C 0.4634 0.53646 0.43423 0.0
H336 H 0.36487 0.44272 0.52115 0.0
H337 H 0.42213 0.55103 0.57766 0.0
H338 H 0.43308 0.43919 0.44549 0.0
H339 H 0.46022 0.40547 0.47839 0.0
H340 H 0.40179 0.40383 0.47491 0.0
H341 H 0.48826 0.58189 0.55975 0.0
H342 H 0.52699 0.54124 0.54553 0.0
H343 H 0.50152 0.57487 0.5116 0.0
H344 H 0.60584 0.44885 0.48003 0.0
H345 H 0.53949 0.52531 0.39841 0.0
H346 H 0.51284 0.41832 0.53062 0.0
H347 H 0.53641 0.46444 0.55287 0.0
H348 H 0.57114 0.42313 0.53351 0.0
H349 H 0.43448 0.51516 0.43226 0.0
H350 H 0.46893 0.55187 0.40689 0.0
H351 H 0.45575 0.56232 0.45461 0.0
C352 C 0.51511 0.94802 0.07206 0.0
C353 C 0.48978 0.91304 0.05979 0.0
C354 C 0.51754 0.98679 0.05164 0.0
C355 C 0.49296 0.99117 0.01878 0.0
C356 C 0.46665 0.9562 0.00669 0.0
C357 C 0.46593 0.91729 0.02703 0.0
C358 C 0.54703 0.02274 0.06487 0.0
C359 C 0.43911 0.95994 0.97233 0.0
C360 C 0.47168 0.1055 0.9822 0.0
C361 C 0.50061 0.10752 0.95239 0.0
C362 C 0.46851 0.06768 0.00391 0.0
C363 C 0.49594 0.0317 0.99632 0.0
C364 C 0.52605 0.03419 0.96687 0.0
C365 C 0.52753 0.07176 0.94494 0.0
C366 C 0.4352 0.06587 0.03444 0.0
C367 C 0.55679 0.99715 0.95852 0.0
H368 H 0.53379 0.94472 0.09729 0.0
H369 H 0.44592 0.89047 0.01771 0.0
H370 H 0.57155 0.03017 0.04333 0.0
H371 H 0.52803 0.05286 0.06965 0.0
H372 H 0.56423 0.01408 0.09083 0.0
H373 H 0.4185 0.93079 0.96788 0.0
H374 H 0.41779 0.98899 0.97423 0.0
H375 H 0.46018 0.96436 0.94779 0.0
H376 H 0.45068 0.133 0.98788 0.0
H377 H 0.55028 0.0734 0.92214 0.0
H378 H 0.4514 0.05993 0.06133 0.0
H379 H 0.41265 0.03834 0.02957 0.0
H380 H 0.41595 0.09635 0.03648 0.0
H381 H 0.57572 0.98866 0.98359 0.0
H382 H 0.5798 0.00516 0.93591 0.0
H383 H 0.53813 0.96785 0.95044 0.0
C384 C 0.95755 0.98964 0.42636 0.0
C385 C 0.92056 0.01262 0.43776 0.0
C386 C 0.995 0.98819 0.44842 0.0
C387 C 0.99601 0.01151 0.48213 0.0
C388 C 0.95902 0.0356 0.49336 0.0
C389 C 0.92141 0.03521 0.47133 0.0
C390 C 0.03313 0.96091 0.43604 0.0
C391 C 0.95924 0.0619 0.52855 0.0
C392 C 0.07445 0.97611 0.55737 0.0
C393 C 0.10967 0.00412 0.5516 0.0
C394 C 0.03759 0.97782 0.53466 0.0
C395 C 0.0352 0.00934 0.50623 0.0
C396 C 0.07045 0.03819 0.50062 0.0
C397 C 0.10767 0.0347 0.52297 0.0
C398 C 0.00144 0.94549 0.5408 0.0
C399 C 0.06862 0.07306 0.47131 0.0
H400 H 0.95679 0.97186 0.40051 0.0
H401 H 0.89294 0.05331 0.47998 0.0
H402 H 0.06243 0.98151 0.43305 0.0
H403 H 0.04056 0.93592 0.45724 0.0
H404 H 0.02693 0.9443 0.40932 0.0
H405 H 0.92892 0.08104 0.53216 0.0
H406 H 0.9631 0.04003 0.55268 0.0
H407 H 0.98726 0.08454 0.5286 0.0
H408 H 0.07614 0.95214 0.5793 0.0
H409 H 0.13476 0.05657 0.51864 0.0
H410 H 0.99527 0.927 0.51501 0.0
H411 H 0.97096 0.96279 0.54793 0.0
H412 H 0.00903 0.92206 0.56325 0.0
H413 H 0.06558 0.05799 0.44362 0.0
H414 H 0.09792 0.09408 0.47153 0.0
H415 H 0.03951 0.09377 0.47555 0.0
C416 C 0.15053 0.74309 0.15304 0.0
C417 C 0.13994 0.71143 0.12683 0.0
C418 C 0.19262 0.75999 0.15501 0.0
C419 C 0.2249 0.74363 0.13095 0.0
C420 C 0.21465 0.71012 0.10553 0.0
C421 C 0.1718 0.69505 0.10319 0.0
C422 C 0.20198 0.79668 0.18154 0.0
C423 C 0.24866 0.69096 0.08026 0.0
C424 C 0.32319 0.81011 0.10383 0.0
C425 C 0.35469 0.7929 0.12742 0.0
C426 C 0.28003 0.79594 0.10607 0.0
C427 C 0.26907 0.76253 0.13136 0.0
C428 C 0.30088 0.7457 0.15567 0.0
C429 C 0.34335 0.76163 0.15373 0.0
C430 C 0.24656 0.81557 0.08053 0.0
C431 C 0.29074 0.70918 0.18217 0.0
H432 H 0.12525 0.75624 0.17067 0.0
H433 H 0.16305 0.67083 0.08274 0.0
H434 H 0.22945 0.78797 0.19991 0.0
H435 H 0.21175 0.82608 0.16585 0.0
H436 H 0.17339 0.80498 0.1989 0.0
H437 H 0.23628 0.66245 0.06467 0.0
H438 H 0.25956 0.71588 0.06019 0.0
H439 H 0.27753 0.68075 0.09646 0.0
H440 H 0.33255 0.83391 0.08323 0.0
H441 H 0.36837 0.74778 0.17127 0.0
H442 H 0.21728 0.82541 0.09634 0.0
H443 H 0.23622 0.79103 0.05991 0.0
H444 H 0.25928 0.84439 0.06556 0.0
H445 H 0.26261 0.71787 0.1998 0.0
H446 H 0.31876 0.70111 0.20027 0.0
H447 H 0.28165 0.67965 0.16636 0.0
C448 C 0.29577 0.66612 0.62962 0.0
C449 C 0.27304 0.63744 0.60654 0.0
C450 C 0.28769 0.711 0.62852 0.0
C451 C 0.25584 0.72749 0.60404 0.0
C452 C 0.23336 0.69891 0.58021 0.0
C453 C 0.24242 0.65429 0.58157 0.0
C454 C 0.31271 0.74069 0.654 0.0
C455 C 0.19897 0.71534 0.5539 0.0
C456 C 0.2051 0.83601 0.62893 0.0
C457 C 0.22767 0.86457 0.60563 0.0
C458 C 0.21344 0.79118 0.62823 0.0
C459 C 0.2454 0.77459 0.60392 0.0
C460 C 0.26777 0.80303 0.57989 0.0
C461 C 0.25843 0.84762 0.58085 0.0
C462 C 0.18851 0.76164 0.65389 0.0
C463 C 0.30226 0.78649 0.55376 0.0
H464 H 0.31964 0.65351 0.64885 0.0
H465 H 0.22462 0.63251 0.56359 0.0
H466 H 0.32895 0.76663 0.63782 0.0
H467 H 0.29006 0.75688 0.67346 0.0
H468 H 0.33768 0.72295 0.67025 0.0
H469 H 0.18511 0.68893 0.53663 0.0
H470 H 0.17224 0.73083 0.56969 0.0
H471 H 0.21279 0.74053 0.53542 0.0
H472 H 0.18112 0.84869 0.64802 0.0
H473 H 0.2761 0.8693 0.5627 0.0
H474 H 0.21122 0.74558 0.6734 0.0
H475 H 0.17224 0.73559 0.63786 0.0
H476 H 0.16356 0.77946 0.6701 0.0
H477 H 0.32895 0.77109 0.56969 0.0
H478 H 0.31617 0.81281 0.53642 0.0
H479 H 0.28853 0.76119 0.53535 0.0
C480 C 0.6534 0.25923 0.92295 0.0
C481 C 0.63678 0.22892 0.89763 0.0
C482 C 0.69781 0.26894 0.92403 0.0
C483 C 0.7264 0.24745 0.89953 0.0
C484 C 0.71011 0.21625 0.87439 0.0
C485 C 0.66545 0.20748 0.87362 0.0
C486 C 0.71405 0.30257 0.95109 0.0
C487 C 0.73984 0.19231 0.84816 0.0
C488 C 0.83585 0.29753 0.87732 0.0
C489 C 0.86363 0.2734 0.90023 0.0
C490 C 0.79093 0.28996 0.87727 0.0
C491 C 0.77352 0.25727 0.90043 0.0
C492 C 0.80118 0.23337 0.92408 0.0
C493 C 0.84582 0.24188 0.92385 0.0
C494 C 0.76218 0.31644 0.85202 0.0
C495 C 0.78377 0.1981 0.94904 0.0
H496 H 0.63162 0.27609 0.94161 0.0
H497 H 0.65302 0.18392 0.85405 0.0
H498 H 0.73854 0.28785 0.96979 0.0
H499 H 0.73032 0.32939 0.93601 0.0
H500 H 0.68748 0.31654 0.96813 0.0
H501 H 0.72211 0.16854 0.8307 0.0
H502 H 0.75661 0.21583 0.82986 0.0
H503 H 0.76528 0.17471 0.86393 0.0
H504 H 0.84921 0.32205 0.85909 0.0
H505 H 0.86686 0.22297 0.9417 0.0
H506 H 0.73606 0.33242 0.8682 0.0
H507 H 0.74625 0.29477 0.83164 0.0
H508 H 0.78056 0.34182 0.83682 0.0
H509 H 0.75844 0.21157 0.96757 0.0
H510 H 0.80958 0.18301 0.96625 0.0
H511 H 0.76826 0.17229 0.9322 0.0
C512 C 0.74351 0.34372 0.39894 0.0
C513 C 0.71016 0.35843 0.37553 0.0
C514 C 0.75921 0.30113 0.39689 0.0
C515 C 0.74037 0.27183 0.37152 0.0
C516 C 0.70628 0.28596 0.34812 0.0
C517 C 0.6918 0.32929 0.35015 0.0
C518 C 0.79591 0.28745 0.4221 0.0
C519 C 0.68481 0.25517 0.32131 0.0
C520 C 0.80375 0.1684 0.35083 0.0
C521 C 0.78535 0.13932 0.37623 0.0
C522 C 0.78903 0.21162 0.34848 0.0
C523 C 0.75466 0.22571 0.37158 0.0
C524 C 0.7357 0.19643 0.39691 0.0
C525 C 0.75163 0.15395 0.39928 0.0
C526 C 0.81062 0.24239 0.32172 0.0
C527 C 0.69871 0.21006 0.42181 0.0
H528 H 0.75807 0.36567 0.41876 0.0
H529 H 0.66609 0.34026 0.33194 0.0
H530 H 0.78437 0.26218 0.44161 0.0
H531 H 0.82273 0.27297 0.40574 0.0
H532 H 0.80906 0.31508 0.43838 0.0
H533 H 0.65935 0.27143 0.3045 0.0
H534 H 0.70942 0.24098 0.30246 0.0
H535 H 0.66976 0.22783 0.33664 0.0
H536 H 0.82974 0.15749 0.33289 0.0
H537 H 0.73701 0.13201 0.41909 0.0
H538 H 0.82564 0.26971 0.33709 0.0
H539 H 0.7861 0.2566 0.30278 0.0
H540 H 0.83613 0.2261 0.30499 0.0
H541 H 0.71001 0.23531 0.44143 0.0
H542 H 0.68539 0.18241 0.43795 0.0
H543 H 0.67206 0.22455 0.40523 0.0
C544 C 0.78284 0.55828 0.33135 0.0
C545 C 0.77189 0.51454 0.32691 0.0
C546 C 0.82173 0.57451 0.31674 0.0
C547 C 0.84921 0.54643 0.29629 0.0
C548 C 0.83973 0.5015 0.29434 0.0
C549 C 0.80076 0.48619 0.30931 0.0
C550 C 0.83108 0.62248 0.31998 0.0
C551 C 0.86813 0.47039 0.27297 0.0
C552 C 0.89592 0.59663 0.20992 0.0
C553 C 0.93929 0.60353 0.21981 0.0
C554 C 0.86671 0.57751 0.23451 0.0
C555 C 0.88113 0.56524 0.27015 0.0
C556 C 0.92515 0.57117 0.28018 0.0
C557 C 0.95396 0.59014 0.25469 0.0
C558 C 0.82013 0.57119 0.22243 0.0
C559 C 0.94138 0.55856 0.31803 0.0
H560 H 0.75979 0.5803 0.34414 0.0
H561 H 0.79168 0.45242 0.3055 0.0
H562 H 0.8659 0.62806 0.32612 0.0
H563 H 0.82365 0.63866 0.29332 0.0
H564 H 0.81118 0.63805 0.34191 0.0
H565 H 0.8614 0.43601 0.28043 0.0
H566 H 0.86186 0.4745 0.24299 0.0
H567 H 0.90301 0.47718 0.27788 0.0
H568 H 0.88455 0.60667 0.18288 0.0
H569 H 0.98747 0.59577 0.26246 0.0
H570 H 0.79811 0.59009 0.24062 0.0
H571 H 0.81096 0.53644 0.2249 0.0
H572 H 0.81456 0.58165 0.19345 0.0
H573 H 0.92495 0.57867 0.3393 0.0
H574 H 0.97703 0.56294 0.3208 0.0
H575 H 0.93326 0.52414 0.324 0.0
C576 C 0.40212 0.41267 0.71308 0.0
C577 C 0.39158 0.45612 0.72023 0.0
C578 C 0.42256 0.38694 0.73969 0.0
C579 C 0.43243 0.40498 0.77468 0.0
C580 C 0.4235 0.44942 0.78171 0.0
C581 C 0.40325 0.47471 0.75416 0.0
C582 C 0.43214 0.33988 0.73067 0.0
C583 C 0.43349 0.46962 0.81871 0.0
C584 C 0.4384 0.31122 0.84087 0.0
C585 C 0.48246 0.30074 0.8384 0.0
C586 C 0.42217 0.34905 0.82417 0.0
C587 C 0.45063 0.37594 0.8036 0.0
C588 C 0.49579 0.36742 0.80402 0.0
C589 C 0.51109 0.32946 0.82101 0.0
C590 C 0.37393 0.35748 0.8251 0.0
C591 C 0.52735 0.39548 0.78294 0.0
H592 H 0.39339 0.39837 0.68673 0.0
H593 H 0.39469 0.50826 0.75982 0.0
H594 H 0.46704 0.33271 0.73524 0.0
H595 H 0.4132 0.31833 0.74921 0.0
H596 H 0.42395 0.33154 0.70165 0.0
H597 H 0.43109 0.50565 0.81786 0.0
H598 H 0.41012 0.45735 0.83955 0.0
H599 H 0.46648 0.46034 0.82819 0.0
H600 H 0.41618 0.28832 0.85352 0.0
H601 H 0.54516 0.32083 0.81878 0.0
H602 H 0.35945 0.34796 0.79823 0.0
H603 H 0.36721 0.39255 0.82937 0.0
H604 H 0.35768 0.33863 0.84732 0.0
H605 H 0.52584 0.38695 0.75318 0.0
H606 H 0.56124 0.39052 0.79261 0.0
H607 H 0.51892 0.4304 0.78563 0.0
C608 C 0.54461 0.90401 0.25574 0.0
C609 C 0.55976 0.88989 0.22122 0.0
C610 C 0.57324 0.9225 0.28161 0.0
C611 C 0.61757 0.92751 0.27224 0.0
C612 C 0.63263 0.91408 0.23709 0.0
C613 C 0.6036 0.89517 0.21219 0.0
C614 C 0.5564 0.93593 0.31906 0.0
C615 C 0.67955 0.91951 0.2257 0.0
C616 C 0.69602 0.00892 0.31077 0.0
C617 C 0.72508 0.98157 0.32929 0.0
C618 C 0.65771 0.99251 0.29546 0.0
C619 C 0.64888 0.94751 0.29829 0.0
C620 C 0.67634 0.92052 0.3198 0.0
C621 C 0.71474 0.93779 0.33452 0.0
C622 C 0.62947 0.02245 0.27274 0.0
C623 C 0.66747 0.87258 0.3242 0.0
H624 H 0.51073 0.89951 0.26287 0.0
H625 H 0.61534 0.88447 0.18546 0.0
H626 H 0.57292 0.91673 0.34088 0.0
H627 H 0.56394 0.97063 0.32436 0.0
H628 H 0.5208 0.93111 0.32165 0.0
H629 H 0.68567 0.90811 0.19706 0.0
H630 H 0.68902 0.95423 0.22757 0.0
H631 H 0.70095 0.90096 0.24467 0.0
H632 H 0.70464 0.04271 0.30635 0.0
H633 H 0.73795 0.9165 0.34799 0.0
H634 H 0.59456 0.01575 0.27754 0.0
H635 H 0.63612 0.01689 0.24299 0.0
H636 H 0.63593 0.0572 0.27903 0.0
H637 H 0.63258 0.86683 0.32994 0.0
H638 H 0.68708 0.85808 0.34684 0.0
H639 H 0.67564 0.85549 0.29812 0.0
C640 C 0.98718 0.16943 0.82091 0.0
C641 C 0.01549 0.19725 0.83969 0.0
C642 C 0.00277 0.13213 0.80306 0.0
C643 C 0.04789 0.12333 0.80333 0.0
C644 C 0.07592 0.14922 0.82519 0.0
C645 C 0.05944 0.18643 0.84266 0.0
C646 C 0.97166 0.10517 0.7805 0.0
C647 C 0.12409 0.14049 0.82683 0.0
C648 C 0.09609 0.02571 0.75289 0.0
C649 C 0.10894 0.04519 0.71963 0.0
C650 C 0.07516 0.05034 0.78048 0.0
C651 C 0.06675 0.09503 0.77419 0.0
C652 C 0.07789 0.11404 0.73986 0.0
C653 C 0.09898 0.08894 0.71318 0.0
C654 C 0.06382 0.02914 0.81679 0.0
C655 C 0.06893 0.16143 0.73165 0.0
H656 H 0.95322 0.17832 0.81832 0.0
H657 H 0.08146 0.20867 0.85637 0.0
H658 H 0.97416 0.11482 0.75105 0.0
H659 H 0.97975 0.07009 0.78241 0.0
H660 H 0.93752 0.11003 0.78953 0.0
H661 H 0.13988 0.15851 0.84977 0.0
H662 H 0.13052 0.10525 0.83041 0.0
H663 H 0.13931 0.15077 0.80047 0.0
H664 H 0.10411 0.99191 0.75799 0.0
H665 H 0.10858 0.10395 0.68734 0.0
H666 H 0.03033 0.03785 0.82532 0.0
H667 H 0.08607 0.04119 0.83859 0.0
H668 H 0.06666 0.99316 0.81544 0.0
H669 H 0.03395 0.16873 0.7356 0.0
H670 H 0.07806 0.17057 0.703 0.0
H671 H 0.08745 0.18227 0.75105 0.0
C672 C 0.02787 0.40142 0.75411 0.0
C673 C 0.04707 0.38844 0.78746 0.0
C674 C 0.05265 0.42246 0.72674 0.0
C675 C 0.09714 0.43098 0.73343 0.0
C676 C 0.11585 0.41969 0.76786 0.0
C677 C 0.09065 0.3983 0.79425 0.0
C678 C 0.03181 0.43372 0.69025 0.0
C679 C 0.16298 0.42892 0.77653 0.0
C680 C 0.18934 0.43935 0.6661 0.0
C681 C 0.19939 0.48349 0.66913 0.0
C682 C 0.15212 0.42244 0.68308 0.0
C683 C 0.12554 0.45022 0.70464 0.0
C684 C 0.13367 0.49548 0.70503 0.0
C685 C 0.17093 0.51152 0.68758 0.0
C686 C 0.14398 0.37414 0.68121 0.0
C687 C 0.10598 0.5263 0.72734 0.0
H688 H 0.99419 0.39341 0.74877 0.0
H689 H 0.10538 0.38858 0.82019 0.0
H690 H 0.04115 0.46689 0.68126 0.0
H691 H 0.04345 0.41074 0.66879 0.0
H692 H 0.99584 0.43168 0.69157 0.0
H693 H 0.17178 0.41988 0.80528 0.0
H694 H 0.1842 0.41041 0.75738 0.0
H695 H 0.17005 0.46396 0.77258 0.0
H696 H 0.21212 0.41757 0.65269 0.0
H697 H 0.17925 0.54564 0.69024 0.0
H698 H 0.10896 0.3675 0.67687 0.0
H699 H 0.1536 0.35891 0.70777 0.0
H700 H 0.16281 0.35849 0.65866 0.0
H701 H 0.07108 0.51797 0.72486 0.0
H702 H 0.11067 0.56058 0.71856 0.0
H703 H 0.11502 0.52361 0.75692 0.0
C704 C 0.56717 0.52418 0.23666 0.0
C705 C 0.58151 0.54253 0.26996 0.0
C706 C 0.54769 0.55034 0.20924 0.0
C707 C 0.54295 0.59561 0.21548 0.0
C708 C 0.55562 0.61359 0.24984 0.0
C709 C 0.57448 0.58684 0.27653 0.0
C710 C 0.53409 0.52981 0.17324 0.0
C711 C 0.55072 0.66157 0.25816 0.0
C712 C 0.5442 0.69001 0.15053 0.0
C713 C 0.5026 0.70658 0.15685 0.0
C714 C 0.55628 0.64933 0.16481 0.0
C715 C 0.52623 0.62565 0.18657 0.0
C716 C 0.48259 0.63982 0.18865 0.0
C717 C 0.47152 0.68073 0.17447 0.0
C718 C 0.60277 0.63468 0.16082 0.0
C719 C 0.44901 0.61469 0.21011 0.0
H720 H 0.5727 0.48992 0.23142 0.0
H721 H 0.58497 0.60109 0.30242 0.0
H722 H 0.5044 0.54538 0.16194 0.0
H723 H 0.56045 0.53401 0.15268 0.0
H724 H 0.52811 0.49441 0.17653 0.0
H725 H 0.56215 0.67012 0.28633 0.0
H726 H 0.56957 0.68097 0.23792 0.0
H727 H 0.51618 0.6714 0.25572 0.0
H728 H 0.56836 0.7104 0.13734 0.0
H729 H 0.43932 0.69383 0.17943 0.0
H730 H 0.60455 0.59903 0.15658 0.0
H731 H 0.62076 0.64251 0.18654 0.0
H732 H 0.61913 0.65119 0.13735 0.0
H733 H 0.45349 0.57916 0.20639 0.0
H734 H 0.41554 0.62371 0.20154 0.0
H735 H 0.45256 0.62206 0.23996 0.0
C736 C 0.41343 0.09694 0.79231 0.0
C737 C 0.45668 0.10786 0.78505 0.0
C738 C 0.38785 0.07638 0.76573 0.0
C739 C 0.40585 0.06669 0.7307 0.0
C740 C 0.45015 0.07582 0.72362 0.0
C741 C 0.47528 0.09628 0.7511 0.0
C742 C 0.34093 0.06661 0.77481 0.0
C743 C 0.47036 0.06592 0.6866 0.0
C744 C 0.33015 0.98864 0.68416 0.0
C745 C 0.30157 0.0176 0.66688 0.0
C746 C 0.36817 0.00363 0.70112 0.0
C747 C 0.3768 0.04879 0.70172 0.0
C748 C 0.35 0.07758 0.68131 0.0
C749 C 0.31217 0.06167 0.66458 0.0
C750 C 0.39624 0.97171 0.72193 0.0
C751 C 0.35856 0.12585 0.68058 0.0
H752 H 0.39914 0.10554 0.8187 0.0
H753 H 0.50868 0.10505 0.74538 0.0
H754 H 0.31925 0.08557 0.75635 0.0
H755 H 0.33398 0.03165 0.77019 0.0
H756 H 0.33261 0.0747 0.80386 0.0
H757 H 0.50637 0.06752 0.68767 0.0
H758 H 0.46055 0.03325 0.67668 0.0
H759 H 0.45874 0.08996 0.66599 0.0
H760 H 0.32144 0.95457 0.68623 0.0
H761 H 0.28938 0.08414 0.652 0.0
H762 H 0.38787 0.97299 0.75171 0.0
H763 H 0.43111 0.98004 0.71916 0.0
H764 H 0.3912 0.93789 0.71205 0.0
H765 H 0.34941 0.14019 0.70761 0.0
H766 H 0.33955 0.14244 0.65861 0.0
H767 H 0.39355 0.13238 0.67607 0.0
C768 C 0.02081 0.8174 0.17329 0.0
C769 C 0.98915 0.7912 0.15684 0.0
C770 C 0.01018 0.8585 0.18727 0.0
C771 C 0.96642 0.87243 0.18635 0.0
C772 C 0.93561 0.84836 0.16568 0.0
C773 C 0.94727 0.80752 0.15148 0.0
C774 C 0.04452 0.88406 0.20745 0.0
C775 C 0.88893 0.86278 0.1629 0.0
C776 C 0.92186 0.91155 0.27752 0.0
C777 C 0.91419 0.95573 0.2709 0.0
C778 C 0.93975 0.88474 0.25041 0.0
C779 C 0.95077 0.90256 0.21558 0.0
C780 C 0.94548 0.94775 0.20926 0.0
C781 C 0.92699 0.97396 0.23711 0.0
C782 C 0.9453 0.83684 0.25882 0.0
C783 C 0.95738 0.96812 0.17276 0.0
H784 H 0.05321 0.80446 0.17754 0.0
H785 H 0.9227 0.78685 0.13919 0.0
H786 H 0.03965 0.91952 0.2036 0.0
H787 H 0.04236 0.87698 0.23745 0.0
H788 H 0.07764 0.87514 0.19789 0.0
H789 H 0.87174 0.84598 0.14001 0.0
H790 H 0.87199 0.8551 0.18916 0.0
H791 H 0.88682 0.89838 0.15847 0.0
H792 H 0.91254 0.89742 0.30379 0.0
H793 H 0.92091 0.00812 0.23184 0.0
H794 H 0.97978 0.82722 0.25543 0.0
H795 H 0.92577 0.81718 0.23925 0.0
H796 H 0.93508 0.82841 0.28736 0.0
H797 H 0.98653 0.95252 0.16052 0.0
H798 H 0.9635 0.00354 0.17574 0.0
H799 H 0.93008 0.96384 0.15312 0.0
loop_
_geom_bond_atom_site_label_1
_geom_bond_atom_site_label_2
_geom_bond_distance
_geom_bond_site_symmetry_2
_ccdc_geom_bond_type
Mn0 O5 2.095 . S
Mn0 O15 2.162 . S
Mn0 O16 2.297 1_455 S
Mn0 O24 2.385 . S
Mn0 O25 2.209 1_455 S
Mn0 O26 2.094 . S
Mn1 O6 2.121 . S
Mn1 N8 2.259 . S
Mn1 N17 2.282 . S
Mn1 O25 2.215 1_455 S
Mn1 O27 2.117 . S
C2 O24 1.234 1_655 S
C2 O25 1.283 . S
C3 O15 1.281 1_655 S
C3 O16 1.236 . S
C4 O26 1.240 . S
C4 O27 1.264 . S
O5 Mn0 2.095 . S
O5 C14 1.250 . S
O6 Mn1 2.121 . S
O6 C14 1.258 . S
C7 N8 1.324 1_655 S
C7 C11 1.460 . S
C7 H13 0.929 . S
N8 Mn1 2.259 . S
N8 C7 1.324 1_455 S
N8 C12 1.363 . S
C9 C10 1.258 . S
C9 C12 1.431 1_655 S
C9 C29 1.449 . S
C10 C9 1.258 . S
C10 C11 1.477 . S
C10 H30 0.931 . S
C11 C7 1.460 . S
C11 C10 1.477 . S
C11 H31 0.930 . S
C12 N8 1.363 . S
C12 C9 1.431 1_455 S
C12 C22 1.476 . S
H13 C7 0.929 . S
C14 O5 1.250 . S
C14 O6 1.258 . S
O15 Mn0 2.162 . S
O15 C3 1.281 1_455 S
O16 Mn0 2.297 1_655 S
O16 C3 1.236 . S
N17 Mn1 2.282 . S
N17 C18 1.328 . S
N17 C22 1.318 . S
C18 N17 1.328 . S
C18 C19 1.457 . S
C18 H23 0.929 . S
C19 C18 1.457 . S
C19 C20 1.291 . S
C19 H32 0.931 . S
C20 C19 1.291 . S
C20 C21 1.373 . S
C20 H33 0.929 . S
C21 C20 1.373 . S
C21 C22 1.396 . S
C21 C28 1.403 . S
C22 C12 1.476 . S
C22 N17 1.318 . S
C22 C21 1.396 . S
H23 C18 0.929 . S
O24 Mn0 2.385 . S
O24 C2 1.234 1_455 S
O25 Mn0 2.209 1_655 S
O25 Mn1 2.215 1_655 S
O25 C2 1.283 . S
O26 Mn0 2.094 . S
O26 C4 1.240 . S
O27 Mn1 2.117 . S
O27 C4 1.264 . S
C28 C21 1.403 . S
C28 C29 1.399 1_455 S
C28 H34 0.929 . S
C29 C9 1.449 . S
C29 C28 1.399 1_655 S
C29 H35 0.930 . S
H30 C10 0.931 . S
H31 C11 0.930 . S
H32 C19 0.931 . S
H33 C20 0.929 . S
H34 C28 0.929 . S
H35 C29 0.930 . S
Mn36 O41 2.095 . S
Mn36 O51 2.162 . S
Mn36 O52 2.297 . S
Mn36 O60 2.385 . S
Mn36 O61 2.209 . S
Mn36 O62 2.094 . S
Mn37 O42 2.121 . S
Mn37 N44 2.257 . S
Mn37 N53 2.282 . S
Mn37 O61 2.215 . S
Mn37 O63 2.117 . S
C38 O60 1.234 . S
C38 O61 1.283 . S
C39 O51 1.281 . S
C39 O52 1.236 . S
C40 O62 1.240 . S
C40 O63 1.264 . S
O41 Mn36 2.095 . S
O41 C50 1.250 . S
O42 Mn37 2.121 . S
O42 C50 1.258 . S
C43 N44 1.326 . S
C43 C47 1.460 . S
C43 H49 0.929 . S
N44 Mn37 2.257 . S
N44 C43 1.326 . S
N44 C48 1.362 . S
C45 C46 1.258 . S
C45 C48 1.431 . S
C45 C65 1.449 . S
C46 C45 1.258 . S
C46 C47 1.477 . S
C46 H66 0.931 . S
C47 C43 1.460 . S
C47 C46 1.477 . S
C47 H67 0.930 . S
C48 N44 1.362 . S
C48 C45 1.431 . S
C48 C58 1.476 . S
H49 C43 0.929 . S
C50 O41 1.250 . S
C50 O42 1.258 . S
O51 Mn36 2.162 . S
O51 C39 1.281 . S
O52 Mn36 2.297 . S
O52 C39 1.236 . S
N53 Mn37 2.282 . S
N53 C54 1.328 . S
N53 C58 1.318 . S
C54 N53 1.328 . S
C54 C55 1.457 . S
C54 H59 0.929 . S
C55 C54 1.457 . S
C55 C56 1.291 . S
C55 H68 0.931 . S
C56 C55 1.291 . S
C56 C57 1.373 . S
C56 H69 0.929 . S
C57 C56 1.373 . S
C57 C58 1.396 . S
C57 C64 1.403 . S
C58 C48 1.476 . S
C58 N53 1.318 . S
C58 C57 1.396 . S
H59 C54 0.929 . S
O60 Mn36 2.385 . S
O60 C38 1.234 . S
O61 Mn36 2.209 . S
O61 Mn37 2.215 . S
O61 C38 1.283 . S
O62 Mn36 2.094 . S
O62 C40 1.240 . S
O63 Mn37 2.117 . S
O63 C40 1.264 . S
C64 C57 1.403 . S
C64 C65 1.399 . S
C64 H70 0.929 . S
C65 C45 1.449 . S
C65 C64 1.399 . S
C65 H71 0.930 . S
H66 C46 0.931 . S
H67 C47 0.930 . S
H68 C55 0.931 . S
H69 C56 0.929 . S
H70 C64 0.929 . S
H71 C65 0.930 . S
Mn72 O77 2.095 . S
Mn72 O87 2.162 . S
Mn72 O88 2.297 . S
Mn72 O96 2.385 . S
Mn72 O97 2.209 . S
Mn72 O98 2.094 . S
Mn73 O78 2.121 . S
Mn73 N80 2.257 . S
Mn73 N89 2.282 . S
Mn73 O97 2.215 . S
Mn73 O99 2.117 . S
C74 O96 1.234 . S
C74 O97 1.283 . S
C75 O87 1.281 . S
C75 O88 1.236 . S
C76 O98 1.240 . S
C76 O99 1.264 . S
O77 Mn72 2.095 . S
O77 C86 1.250 . S
O78 Mn73 2.121 . S
O78 C86 1.258 . S
C79 N80 1.326 . S
C79 C83 1.460 . S
C79 H85 0.929 . S
N80 Mn73 2.257 . S
N80 C79 1.326 . S
N80 C84 1.362 . S
C81 C82 1.258 . S
C81 C84 1.431 . S
C81 C101 1.449 . S
C82 C81 1.258 . S
C82 C83 1.477 . S
C82 H102 0.931 . S
C83 C79 1.460 . S
C83 C82 1.477 . S
C83 H103 0.930 . S
C84 N80 1.362 . S
C84 C81 1.431 . S
C84 C94 1.476 . S
H85 C79 0.929 . S
C86 O77 1.250 . S
C86 O78 1.258 . S
O87 Mn72 2.162 . S
O87 C75 1.281 . S
O88 Mn72 2.297 . S
O88 C75 1.236 . S
N89 Mn73 2.282 . S
N89 C90 1.328 . S
N89 C94 1.318 . S
C90 N89 1.328 . S
C90 C91 1.457 . S
C90 H95 0.929 . S
C91 C90 1.457 . S
C91 C92 1.291 . S
C91 H104 0.931 . S
C92 C91 1.291 . S
C92 C93 1.373 . S
C92 H105 0.929 . S
C93 C92 1.373 . S
C93 C94 1.396 . S
C93 C100 1.403 . S
C94 C84 1.476 . S
C94 N89 1.318 . S
C94 C93 1.396 . S
H95 C90 0.929 . S
O96 Mn72 2.385 . S
O96 C74 1.234 . S
O97 Mn72 2.209 . S
O97 Mn73 2.215 . S
O97 C74 1.283 . S
O98 Mn72 2.094 . S
O98 C76 1.240 . S
O99 Mn73 2.117 . S
O99 C76 1.264 . S
C100 C93 1.403 . S
C100 C101 1.399 . S
C100 H106 0.929 . S
C101 C81 1.449 . S
C101 C100 1.399 . S
C101 H107 0.930 . S
H102 C82 0.931 . S
H103 C83 0.930 . S
H104 C91 0.931 . S
H105 C92 0.929 . S
H106 C100 0.929 . S
H107 C101 0.930 . S
Mn108 O113 2.095 . S
Mn108 O123 2.162 . S
Mn108 O124 2.297 1_565 S
Mn108 O132 2.385 . S
Mn108 O133 2.209 1_565 S
Mn108 O134 2.094 . S
Mn109 O114 2.121 . S
Mn109 N116 2.259 . S
Mn109 N125 2.282 . S
Mn109 O133 2.215 1_565 S
Mn109 O135 2.117 . S
C110 O132 1.234 1_545 S
C110 O133 1.283 . S
C111 O123 1.281 1_545 S
C111 O124 1.236 . S
C112 O134 1.240 . S
C112 O135 1.264 . S
O113 Mn108 2.095 . S
O113 C122 1.250 . S
O114 Mn109 2.121 . S
O114 C122 1.258 . S
C115 N116 1.324 1_545 S
C115 C119 1.460 . S
C115 H121 0.929 . S
N116 Mn109 2.259 . S
N116 C115 1.324 1_565 S
N116 C120 1.363 . S
C117 C118 1.258 . S
C117 C120 1.431 1_545 S
C117 C137 1.449 . S
C118 C117 1.258 . S
C118 C119 1.477 . S
C118 H138 0.931 . S
C119 C115 1.460 . S
C119 C118 1.477 . S
C119 H139 0.930 . S
C120 N116 1.363 . S
C120 C117 1.431 1_565 S
C120 C130 1.476 . S
H121 C115 0.929 . S
C122 O113 1.250 . S
C122 O114 1.258 . S
O123 Mn108 2.162 . S
O123 C111 1.281 1_565 S
O124 Mn108 2.297 1_545 S
O124 C111 1.236 . S
N125 Mn109 2.282 . S
N125 C126 1.328 . S
N125 C130 1.318 . S
C126 N125 1.328 . S
C126 C127 1.457 . S
C126 H131 0.929 . S
C127 C126 1.457 . S
C127 C128 1.291 . S
C127 H140 0.931 . S
C128 C127 1.291 . S
C128 C129 1.373 . S
C128 H141 0.929 . S
C129 C128 1.373 . S
C129 C130 1.396 . S
C129 C136 1.403 . S
C130 C120 1.476 . S
C130 N125 1.318 . S
C130 C129 1.396 . S
H131 C126 0.929 . S
O132 Mn108 2.385 . S
O132 C110 1.234 1_565 S
O133 Mn108 2.209 1_545 S
O133 Mn109 2.215 1_545 S
O133 C110 1.283 . S
O134 Mn108 2.094 . S
O134 C112 1.240 . S
O135 Mn109 2.117 . S
O135 C112 1.264 . S
C136 C129 1.403 . S
C136 C137 1.399 1_565 S
C136 H142 0.929 . S
C137 C117 1.449 . S
C137 C136 1.399 1_545 S
C137 H143 0.930 . S
H138 C118 0.931 . S
H139 C119 0.930 . S
H140 C127 0.931 . S
H141 C128 0.929 . S
H142 C136 0.929 . S
H143 C137 0.930 . S
Mn144 O149 2.095 . S
Mn144 O159 2.162 . S
Mn144 O160 2.297 1_655 S
Mn144 O168 2.385 . S
Mn144 O169 2.209 1_655 S
Mn144 O170 2.094 . S
Mn145 O150 2.121 . S
Mn145 N152 2.259 . S
Mn145 N161 2.282 . S
Mn145 O169 2.215 1_655 S
Mn145 O171 2.117 . S
C146 O168 1.234 1_455 S
C146 O169 1.283 . S
C147 O159 1.281 1_455 S
C147 O160 1.236 . S
C148 O170 1.240 . S
C148 O171 1.264 . S
O149 Mn144 2.095 . S
O149 C158 1.250 . S
O150 Mn145 2.121 . S
O150 C158 1.258 . S
C151 N152 1.324 1_455 S
C151 C155 1.460 . S
C151 H157 0.929 . S
N152 Mn145 2.259 . S
N152 C151 1.324 1_655 S
N152 C156 1.363 . S
C153 C154 1.258 . S
C153 C156 1.431 1_455 S
C153 C173 1.449 . S
C154 C153 1.258 . S
C154 C155 1.477 . S
C154 H174 0.931 . S
C155 C151 1.460 . S
C155 C154 1.477 . S
C155 H175 0.930 . S
C156 N152 1.363 . S
C156 C153 1.431 1_655 S
C156 C166 1.476 . S
H157 C151 0.929 . S
C158 O149 1.250 . S
C158 O150 1.258 . S
O159 Mn144 2.162 . S
O159 C147 1.281 1_655 S
O160 Mn144 2.297 1_455 S
O160 C147 1.236 . S
N161 Mn145 2.282 . S
N161 C162 1.328 . S
N161 C166 1.318 . S
C162 N161 1.328 . S
C162 C163 1.457 . S
C162 H167 0.929 . S
C163 C162 1.457 . S
C163 C164 1.291 . S
C163 H176 0.931 . S
C164 C163 1.291 . S
C164 C165 1.373 . S
C164 H177 0.929 . S
C165 C164 1.373 . S
C165 C166 1.396 . S
C165 C172 1.403 . S
C166 C156 1.476 . S
C166 N161 1.318 . S
C166 C165 1.396 . S
H167 C162 0.929 . S
O168 Mn144 2.385 . S
O168 C146 1.234 1_655 S
O169 Mn144 2.209 1_455 S
O169 Mn145 2.215 1_455 S
O169 C146 1.283 . S
O170 Mn144 2.094 . S
O170 C148 1.240 . S
O171 Mn145 2.117 . S
O171 C148 1.264 . S
C172 C165 1.403 . S
C172 C173 1.399 1_655 S
C172 H178 0.929 . S
C173 C153 1.449 . S
C173 C172 1.399 1_455 S
C173 H179 0.930 . S
H174 C154 0.931 . S
H175 C155 0.930 . S
H176 C163 0.931 . S
H177 C164 0.929 . S
H178 C172 0.929 . S
H179 C173 0.930 . S
Mn180 O185 2.095 . S
Mn180 O195 2.162 . S
Mn180 O196 2.297 . S
Mn180 O204 2.385 . S
Mn180 O205 2.209 . S
Mn180 O206 2.094 . S
Mn181 O186 2.121 . S
Mn181 N188 2.257 . S
Mn181 N197 2.282 . S
Mn181 O205 2.215 . S
Mn181 O207 2.117 . S
C182 O204 1.234 . S
C182 O205 1.283 . S
C183 O195 1.281 . S
C183 O196 1.236 . S
C184 O206 1.240 . S
C184 O207 1.264 . S
O185 Mn180 2.095 . S
O185 C194 1.250 . S
O186 Mn181 2.121 . S
O186 C194 1.258 . S
C187 N188 1.326 . S
C187 C191 1.460 . S
C187 H193 0.929 . S
N188 Mn181 2.257 . S
N188 C187 1.326 . S
N188 C192 1.362 . S
C189 C190 1.258 . S
C189 C192 1.431 . S
C189 C209 1.449 . S
C190 C189 1.258 . S
C190 C191 1.477 . S
C190 H210 0.931 . S
C191 C187 1.460 . S
C191 C190 1.477 . S
C191 H211 0.930 . S
C192 N188 1.362 . S
C192 C189 1.431 . S
C192 C202 1.476 . S
H193 C187 0.929 . S
C194 O185 1.250 . S
C194 O186 1.258 . S
O195 Mn180 2.162 . S
O195 C183 1.281 . S
O196 Mn180 2.297 . S
O196 C183 1.236 . S
N197 Mn181 2.282 . S
N197 C198 1.328 . S
N197 C202 1.318 . S
C198 N197 1.328 . S
C198 C199 1.457 . S
C198 H203 0.929 . S
C199 C198 1.457 . S
C199 C200 1.291 . S
C199 H212 0.931 . S
C200 C199 1.291 . S
C200 C201 1.373 . S
C200 H213 0.929 . S
C201 C200 1.373 . S
C201 C202 1.396 . S
C201 C208 1.403 . S
C202 C192 1.476 . S
C202 N197 1.318 . S
C202 C201 1.396 . S
H203 C198 0.929 . S
O204 Mn180 2.385 . S
O204 C182 1.234 . S
O205 Mn180 2.209 . S
O205 Mn181 2.215 . S
O205 C182 1.283 . S
O206 Mn180 2.094 . S
O206 C184 1.240 . S
O207 Mn181 2.117 . S
O207 C184 1.264 . S
C208 C201 1.403 . S
C208 C209 1.399 . S
C208 H214 0.929 . S
C209 C189 1.449 . S
C209 C208 1.399 . S
C209 H215 0.930 . S
H210 C190 0.931 . S
H211 C191 0.930 . S
H212 C199 0.931 . S
H213 C200 0.929 . S
H214 C208 0.929 . S
H215 C209 0.930 . S
Mn216 O221 2.095 . S
Mn216 O231 2.162 . S
Mn216 O232 2.297 . S
Mn216 O240 2.385 . S
Mn216 O241 2.209 . S
Mn216 O242 2.094 . S
Mn217 O222 2.121 . S
Mn217 N224 2.257 . S
Mn217 N233 2.282 . S
Mn217 O241 2.215 . S
Mn217 O243 2.117 . S
C218 O240 1.234 . S
C218 O241 1.283 . S
C219 O231 1.281 . S
C219 O232 1.236 . S
C220 O242 1.240 . S
C220 O243 1.264 . S
O221 Mn216 2.095 . S
O221 C230 1.250 . S
O222 Mn217 2.121 . S
O222 C230 1.258 . S
C223 N224 1.326 . S
C223 C227 1.460 . S
C223 H229 0.929 . S
N224 Mn217 2.257 . S
N224 C223 1.326 . S
N224 C228 1.362 . S
C225 C226 1.258 . S
C225 C228 1.431 . S
C225 C245 1.449 . S
C226 C225 1.258 . S
C226 C227 1.477 . S
C226 H246 0.931 . S
C227 C223 1.460 . S
C227 C226 1.477 . S
C227 H247 0.930 . S
C228 N224 1.362 . S
C228 C225 1.431 . S
C228 C238 1.476 . S
H229 C223 0.929 . S
C230 O221 1.250 . S
C230 O222 1.258 . S
O231 Mn216 2.162 . S
O231 C219 1.281 . S
O232 Mn216 2.297 . S
O232 C219 1.236 . S
N233 Mn217 2.282 . S
N233 C234 1.328 . S
N233 C238 1.318 . S
C234 N233 1.328 . S
C234 C235 1.457 . S
C234 H239 0.929 . S
C235 C234 1.457 . S
C235 C236 1.291 . S
C235 H248 0.931 . S
C236 C235 1.291 . S
C236 C237 1.373 . S
C236 H249 0.929 . S
C237 C236 1.373 . S
C237 C238 1.396 . S
C237 C244 1.403 . S
C238 C228 1.476 . S
C238 N233 1.318 . S
C238 C237 1.396 . S
H239 C234 0.929 . S
O240 Mn216 2.385 . S
O240 C218 1.234 . S
O241 Mn216 2.209 . S
O241 Mn217 2.215 . S
O241 C218 1.283 . S
O242 Mn216 2.094 . S
O242 C220 1.240 . S
O243 Mn217 2.117 . S
O243 C220 1.264 . S
C244 C237 1.403 . S
C244 C245 1.399 . S
C244 H250 0.929 . S
C245 C225 1.449 . S
C245 C244 1.399 . S
C245 H251 0.930 . S
H246 C226 0.931 . S
H247 C227 0.930 . S
H248 C235 0.931 . S
H249 C236 0.929 . S
H250 C244 0.929 . S
H251 C245 0.930 . S
Mn252 O257 2.095 . S
Mn252 O267 2.162 . S
Mn252 O268 2.297 1_545 S
Mn252 O276 2.385 . S
Mn252 O277 2.209 1_545 S
Mn252 O278 2.094 . S
Mn253 O258 2.121 . S
Mn253 N260 2.259 . S
Mn253 N269 2.282 . S
Mn253 O277 2.215 1_545 S
Mn253 O279 2.117 . S
C254 O276 1.234 1_565 S
C254 O277 1.283 . S
C255 O267 1.281 1_565 S
C255 O268 1.236 . S
C256 O278 1.240 . S
C256 O279 1.264 . S
O257 Mn252 2.095 . S
O257 C266 1.250 . S
O258 Mn253 2.121 . S
O258 C266 1.258 . S
C259 N260 1.324 1_565 S
C259 C263 1.460 . S
C259 H265 0.929 . S
N260 Mn253 2.259 . S
N260 C259 1.324 1_545 S
N260 C264 1.363 . S
C261 C262 1.258 . S
C261 C264 1.431 1_565 S
C261 C281 1.449 . S
C262 C261 1.258 . S
C262 C263 1.477 . S
C262 H282 0.931 . S
C263 C259 1.460 . S
C263 C262 1.477 . S
C263 H283 0.930 . S
C264 N260 1.363 . S
C264 C261 1.431 1_545 S
C264 C274 1.476 . S
H265 C259 0.929 . S
C266 O257 1.250 . S
C266 O258 1.258 . S
O267 Mn252 2.162 . S
O267 C255 1.281 1_545 S
O268 Mn252 2.297 1_565 S
O268 C255 1.236 . S
N269 Mn253 2.282 . S
N269 C270 1.328 . S
N269 C274 1.318 . S
C270 N269 1.328 . S
C270 C271 1.457 . S
C270 H275 0.929 . S
C271 C270 1.457 . S
C271 C272 1.291 . S
C271 H284 0.931 . S
C272 C271 1.291 . S
C272 C273 1.373 . S
C272 H285 0.929 . S
C273 C272 1.373 . S
C273 C274 1.396 . S
C273 C280 1.403 . S
C274 C264 1.476 . S
C274 N269 1.318 . S
C274 C273 1.396 . S
H275 C270 0.929 . S
O276 Mn252 2.385 . S
O276 C254 1.234 1_545 S
O277 Mn252 2.209 1_565 S
O277 Mn253 2.215 1_565 S
O277 C254 1.283 . S
O278 Mn252 2.094 . S
O278 C256 1.240 . S
O279 Mn253 2.117 . S
O279 C256 1.264 . S
C280 C273 1.403 . S
C280 C281 1.399 1_545 S
C280 H286 0.929 . S
C281 C261 1.449 . S
C281 C280 1.399 1_565 S
C281 H287 0.930 . S
H282 C262 0.931 . S
H283 C263 0.930 . S
H284 C271 0.931 . S
H285 C272 0.929 . S
H286 C280 0.929 . S
H287 C281 0.930 . S
C288 C289 1.391 1_455 S
C288 C290 1.394 . S
C288 H304 0.931 . S
C289 C288 1.391 1_655 S
C289 C293 1.376 . S
C290 C288 1.394 . S
C290 C291 1.369 1_455 S
C290 C294 1.531 . S
C291 C290 1.369 1_655 S
C291 C292 1.410 . S
C291 C299 1.503 1_556 S
C292 C291 1.410 . S
C292 C293 1.392 . S
C292 C295 1.511 1_556 S
C293 C289 1.376 . S
C293 C292 1.392 . S
C293 H305 0.929 . S
C294 C290 1.531 . S
C294 H306 0.960 . S
C294 H307 0.962 . S
C294 H308 0.960 . S
C295 C292 1.511 1_554 S
C295 H309 0.961 . S
C295 H310 0.961 . S
C295 H311 0.961 1_554 S
C296 C297 1.370 . S
C296 C298 1.363 . S
C296 H312 0.931 . S
C297 C296 1.370 . S
C297 C301 1.408 1_455 S
C298 C296 1.363 . S
C298 C299 1.370 1_455 S
C298 C302 1.524 . S
C299 C291 1.503 1_554 S
C299 C298 1.370 1_655 S
C299 C300 1.403 . S
C300 C299 1.403 . S
C300 C301 1.404 . S
C300 C303 1.539 1_554 S
C301 C297 1.408 1_655 S
C301 C300 1.404 . S
C301 H313 0.930 . S
C302 C298 1.524 . S
C302 H314 0.956 . S
C302 H315 0.961 . S
C302 H316 0.961 . S
C303 C300 1.539 1_556 S
C303 H317 0.958 . S
C303 H318 0.961 . S
C303 H319 0.960 . S
H304 C288 0.931 . S
H305 C293 0.929 . S
H306 C294 0.960 . S
H307 C294 0.962 . S
H308 C294 0.960 . S
H309 C295 0.961 . S
H310 C295 0.961 . S
H311 C295 0.961 1_556 S
H312 C296 0.931 . S
H313 C301 0.930 . S
H314 C302 0.956 . S
H315 C302 0.961 . S
H316 C302 0.961 . S
H317 C303 0.958 . S
H318 C303 0.961 . S
H319 C303 0.960 . S
C320 C321 1.391 . S
C320 C322 1.394 . S
C320 H336 0.931 . S
C321 C320 1.391 . S
C321 C325 1.376 . S
C322 C320 1.394 . S
C322 C323 1.369 . S
C322 C326 1.531 . S
C323 C322 1.369 . S
C323 C324 1.410 . S
C323 C331 1.503 . S
C324 C323 1.410 . S
C324 C325 1.392 . S
C324 C327 1.511 . S
C325 C321 1.376 . S
C325 C324 1.392 . S
C325 H337 0.929 . S
C326 C322 1.531 . S
C326 H338 0.960 . S
C326 H339 0.962 . S
C326 H340 0.960 . S
C327 C324 1.511 . S
C327 H341 0.961 . S
C327 H342 0.961 . S
C327 H343 0.961 . S
C328 C329 1.370 . S
C328 C330 1.363 . S
C328 H344 0.931 . S
C329 C328 1.370 . S
C329 C333 1.408 . S
C330 C328 1.363 . S
C330 C331 1.370 . S
C330 C334 1.524 . S
C331 C323 1.503 . S
C331 C330 1.370 . S
C331 C332 1.403 . S
C332 C331 1.403 . S
C332 C333 1.404 . S
C332 C335 1.539 . S
C333 C329 1.408 . S
C333 C332 1.404 . S
C333 H345 0.930 . S
C334 C330 1.524 . S
C334 H346 0.956 . S
C334 H347 0.961 . S
C334 H348 0.961 . S
C335 C332 1.539 . S
C335 H349 0.958 . S
C335 H350 0.961 . S
C335 H351 0.960 . S
H336 C320 0.931 . S
H337 C325 0.929 . S
H338 C326 0.960 . S
H339 C326 0.962 . S
H340 C326 0.960 . S
H341 C327 0.961 . S
H342 C327 0.961 . S
H343 C327 0.961 . S
H344 C328 0.931 . S
H345 C333 0.930 . S
H346 C334 0.956 . S
H347 C334 0.961 . S
H348 C334 0.961 . S
H349 C335 0.958 . S
H350 C335 0.961 . S
H351 C335 0.960 . S
C352 C353 1.391 . S
C352 C354 1.394 . S
C352 H368 0.931 . S
C353 C352 1.391 . S
C353 C357 1.376 . S
C354 C352 1.394 . S
C354 C355 1.369 . S
C354 C358 1.531 1_565 S
C355 C354 1.369 . S
C355 C356 1.410 . S
C355 C363 1.503 1_564 S
C356 C355 1.410 . S
C356 C357 1.392 . S
C356 C359 1.511 1_554 S
C357 C353 1.376 . S
C357 C356 1.392 . S
C357 H369 0.929 . S
C358 C354 1.531 1_545 S
C358 H370 0.960 . S
C358 H371 0.962 . S
C358 H372 0.960 1_545 S
C359 C356 1.511 1_556 S
C359 H373 0.961 . S
C359 H374 0.961 . S
C359 H375 0.961 . S
C360 C361 1.370 . S
C360 C362 1.363 . S
C360 H376 0.931 . S
C361 C360 1.370 . S
C361 C365 1.408 . S
C362 C360 1.363 . S
C362 C363 1.370 . S
C362 C366 1.524 1_556 S
C363 C355 1.503 1_546 S
C363 C362 1.370 . S
C363 C364 1.403 . S
C364 C363 1.403 . S
C364 C365 1.404 . S
C364 C367 1.539 1_545 S
C365 C361 1.408 . S
C365 C364 1.404 . S
C365 H377 0.930 . S
C366 C362 1.524 1_554 S
C366 H378 0.956 . S
C366 H379 0.961 . S
C366 H380 0.961 . S
C367 C364 1.539 1_565 S
C367 H381 0.958 . S
C367 H382 0.961 . S
C367 H383 0.960 . S
H368 C352 0.931 . S
H369 C357 0.929 . S
H370 C358 0.960 . S
H371 C358 0.962 . S
H372 C358 0.960 1_565 S
H373 C359 0.961 . S
H374 C359 0.961 . S
H375 C359 0.961 . S
H376 C360 0.931 . S
H377 C365 0.930 . S
H378 C366 0.956 . S
H379 C366 0.961 . S
H380 C366 0.961 . S
H381 C367 0.958 . S
H382 C367 0.961 . S
H383 C367 0.960 . S
C384 C385 1.391 1_565 S
C384 C386 1.394 . S
C384 H400 0.931 . S
C385 C384 1.391 1_545 S
C385 C389 1.376 . S
C386 C384 1.394 . S
C386 C387 1.369 1_565 S
C386 C390 1.531 1_655 S
C387 C386 1.369 1_545 S
C387 C388 1.410 . S
C387 C395 1.503 1_655 S
C388 C387 1.410 . S
C388 C389 1.392 . S
C388 C391 1.511 . S
C389 C385 1.376 . S
C389 C388 1.392 . S
C389 H401 0.929 . S
C390 C386 1.531 1_455 S
C390 H402 0.960 . S
C390 H403 0.962 . S
C390 H404 0.960 . S
C391 C388 1.511 . S
C391 H405 0.961 . S
C391 H406 0.961 . S
C391 H407 0.961 . S
C392 C393 1.370 . S
C392 C394 1.363 . S
C392 H408 0.931 . S
C393 C392 1.370 . S
C393 C397 1.408 1_565 S
C394 C392 1.363 . S
C394 C395 1.370 1_565 S
C394 C398 1.524 1_455 S
C395 C387 1.503 1_455 S
C395 C394 1.370 1_545 S
C395 C396 1.403 . S
C396 C395 1.403 . S
C396 C397 1.404 . S
C396 C399 1.539 . S
C397 C393 1.408 1_545 S
C397 C396 1.404 . S
C397 H409 0.930 . S
C398 C394 1.524 1_655 S
C398 H410 0.956 . S
C398 H411 0.961 . S
C398 H412 0.961 . S
C399 C396 1.539 . S
C399 H413 0.958 . S
C399 H414 0.961 . S
C399 H415 0.960 . S
H400 C384 0.931 . S
H401 C389 0.929 . S
H402 C390 0.960 . S
H403 C390 0.962 . S
H404 C390 0.960 . S
H405 C391 0.961 . S
H406 C391 0.961 . S
H407 C391 0.961 . S
H408 C392 0.931 . S
H409 C397 0.930 . S
H410 C398 0.956 . S
H411 C398 0.961 . S
H412 C398 0.961 . S
H413 C399 0.958 . S
H414 C399 0.961 . S
H415 C399 0.960 . S
C416 C417 1.391 . S
C416 C418 1.394 . S
C416 H432 0.931 . S
C417 C416 1.391 . S
C417 C421 1.376 . S
C418 C416 1.394 . S
C418 C419 1.369 . S
C418 C422 1.531 . S
C419 C418 1.369 . S
C419 C420 1.410 . S
C419 C427 1.503 . S
C420 C419 1.410 . S
C420 C421 1.392 . S
C420 C423 1.511 . S
C421 C417 1.376 . S
C421 C420 1.392 . S
C421 H433 0.929 . S
C422 C418 1.531 . S
C422 H434 0.960 . S
C422 H435 0.962 . S
C422 H436 0.960 . S
C423 C420 1.511 . S
C423 H437 0.961 . S
C423 H438 0.961 . S
C423 H439 0.961 . S
C424 C425 1.370 . S
C424 C426 1.363 . S
C424 H440 0.931 . S
C425 C424 1.370 . S
C425 C429 1.408 . S
C426 C424 1.363 . S
C426 C427 1.370 . S
C426 C430 1.524 . S
C427 C419 1.503 . S
C427 C426 1.370 . S
C427 C428 1.403 . S
C428 C427 1.403 . S
C428 C429 1.404 . S
C428 C431 1.539 . S
C429 C425 1.408 . S
C429 C428 1.404 . S
C429 H441 0.930 . S
C430 C426 1.524 . S
C430 H442 0.956 . S
C430 H443 0.961 . S
C430 H444 0.961 . S
C431 C428 1.539 . S
C431 H445 0.958 . S
C431 H446 0.961 . S
C431 H447 0.960 . S
H432 C416 0.931 . S
H433 C421 0.929 . S
H434 C422 0.960 . S
H435 C422 0.962 . S
H436 C422 0.960 . S
H437 C423 0.961 . S
H438 C423 0.961 . S
H439 C423 0.961 . S
H440 C424 0.931 . S
H441 C429 0.930 . S
H442 C430 0.956 . S
H443 C430 0.961 . S
H444 C430 0.961 . S
H445 C431 0.958 . S
H446 C431 0.961 . S
H447 C431 0.960 . S
C448 C449 1.391 . S
C448 C450 1.394 . S
C448 H464 0.931 . S
C449 C448 1.391 . S
C449 C453 1.376 . S
C450 C448 1.394 . S
C450 C451 1.369 . S
C450 C454 1.531 . S
C451 C450 1.369 . S
C451 C452 1.410 . S
C451 C459 1.503 . S
C452 C451 1.410 . S
C452 C453 1.392 . S
C452 C455 1.511 . S
C453 C449 1.376 . S
C453 C452 1.392 . S
C453 H465 0.929 . S
C454 C450 1.531 . S
C454 H466 0.960 . S
C454 H467 0.962 . S
C454 H468 0.960 . S
C455 C452 1.511 . S
C455 H469 0.961 . S
C455 H470 0.961 . S
C455 H471 0.961 . S
C456 C457 1.370 . S
C456 C458 1.363 . S
C456 H472 0.931 . S
C457 C456 1.370 . S
C457 C461 1.408 . S
C458 C456 1.363 . S
C458 C459 1.370 . S
C458 C462 1.524 . S
C459 C451 1.503 . S
C459 C458 1.370 . S
C459 C460 1.403 . S
C460 C459 1.403 . S
C460 C461 1.404 . S
C460 C463 1.539 . S
C461 C457 1.408 . S
C461 C460 1.404 . S
C461 H473 0.930 . S
C462 C458 1.524 . S
C462 H474 0.956 . S
C462 H475 0.961 . S
C462 H476 0.961 . S
C463 C460 1.539 . S
C463 H477 0.958 . S
C463 H478 0.961 . S
C463 H479 0.960 . S
H464 C448 0.931 . S
H465 C453 0.929 . S
H466 C454 0.960 . S
H467 C454 0.962 . S
H468 C454 0.960 . S
H469 C455 0.961 . S
H470 C455 0.961 . S
H471 C455 0.961 . S
H472 C456 0.931 . S
H473 C461 0.930 . S
H474 C462 0.956 . S
H475 C462 0.961 . S
H476 C462 0.961 . S
H477 C463 0.958 . S
H478 C463 0.961 . S
H479 C463 0.960 . S
C480 C481 1.391 . S
C480 C482 1.394 . S
C480 H496 0.931 . S
C481 C480 1.391 . S
C481 C485 1.376 . S
C482 C480 1.394 . S
C482 C483 1.369 . S
C482 C486 1.531 . S
C483 C482 1.369 . S
C483 C484 1.410 . S
C483 C491 1.503 . S
C484 C483 1.410 . S
C484 C485 1.392 . S
C484 C487 1.511 . S
C485 C481 1.376 . S
C485 C484 1.392 . S
C485 H497 0.929 . S
C486 C482 1.531 . S
C486 H498 0.960 . S
C486 H499 0.962 . S
C486 H500 0.960 . S
C487 C484 1.511 . S
C487 H501 0.961 . S
C487 H502 0.961 . S
C487 H503 0.961 . S
C488 C489 1.370 . S
C488 C490 1.363 . S
C488 H504 0.931 . S
C489 C488 1.370 . S
C489 C493 1.408 . S
C490 C488 1.363 . S
C490 C491 1.370 . S
C490 C494 1.524 . S
C491 C483 1.503 . S
C491 C490 1.370 . S
C491 C492 1.403 . S
C492 C491 1.403 . S
C492 C493 1.404 . S
C492 C495 1.539 . S
C493 C489 1.408 . S
C493 C492 1.404 . S
C493 H505 0.930 . S
C494 C490 1.524 . S
C494 H506 0.956 . S
C494 H507 0.961 . S
C494 H508 0.961 . S
C495 C492 1.539 . S
C495 H509 0.958 . S
C495 H510 0.961 . S
C495 H511 0.960 . S
H496 C480 0.931 . S
H497 C485 0.929 . S
H498 C486 0.960 . S
H499 C486 0.962 . S
H500 C486 0.960 . S
H501 C487 0.961 . S
H502 C487 0.961 . S
H503 C487 0.961 . S
H504 C488 0.931 . S
H505 C493 0.930 . S
H506 C494 0.956 . S
H507 C494 0.961 . S
H508 C494 0.961 . S
H509 C495 0.958 . S
H510 C495 0.961 . S
H511 C495 0.960 . S
C512 C513 1.391 . S
C512 C514 1.394 . S
C512 H528 0.931 . S
C513 C512 1.391 . S
C513 C517 1.376 . S
C514 C512 1.394 . S
C514 C515 1.369 . S
C514 C518 1.531 . S
C515 C514 1.369 . S
C515 C516 1.410 . S
C515 C523 1.503 . S
C516 C515 1.410 . S
C516 C517 1.392 . S
C516 C519 1.511 . S
C517 C513 1.376 . S
C517 C516 1.392 . S
C517 H529 0.929 . S
C518 C514 1.531 . S
C518 H530 0.960 . S
C518 H531 0.962 . S
C518 H532 0.960 . S
C519 C516 1.511 . S
C519 H533 0.961 . S
C519 H534 0.961 . S
C519 H535 0.961 . S
C520 C521 1.370 . S
C520 C522 1.363 . S
C520 H536 0.931 . S
C521 C520 1.370 . S
C521 C525 1.408 . S
C522 C520 1.363 . S
C522 C523 1.370 . S
C522 C526 1.524 . S
C523 C515 1.503 . S
C523 C522 1.370 . S
C523 C524 1.403 . S
C524 C523 1.403 . S
C524 C525 1.404 . S
C524 C527 1.539 . S
C525 C521 1.408 . S
C525 C524 1.404 . S
C525 H537 0.930 . S
C526 C522 1.524 . S
C526 H538 0.956 . S
C526 H539 0.961 . S
C526 H540 0.961 . S
C527 C524 1.539 . S
C527 H541 0.958 . S
C527 H542 0.961 . S
C527 H543 0.960 . S
H528 C512 0.931 . S
H529 C517 0.929 . S
H530 C518 0.960 . S
H531 C518 0.962 . S
H532 C518 0.960 . S
H533 C519 0.961 . S
H534 C519 0.961 . S
H535 C519 0.961 . S
H536 C520 0.931 . S
H537 C525 0.930 . S
H538 C526 0.956 . S
H539 C526 0.961 . S
H540 C526 0.961 . S
H541 C527 0.958 . S
H542 C527 0.961 . S
H543 C527 0.960 . S
C544 C545 1.391 . S
C544 C546 1.394 . S
C544 H560 0.931 . S
C545 C544 1.391 . S
C545 C549 1.376 . S
C546 C544 1.394 . S
C546 C547 1.369 . S
C546 C550 1.531 . S
C547 C546 1.369 . S
C547 C548 1.410 . S
C547 C555 1.503 . S
C548 C547 1.410 . S
C548 C549 1.392 . S
C548 C551 1.511 . S
C549 C545 1.376 . S
C549 C548 1.392 . S
C549 H561 0.929 . S
C550 C546 1.531 . S
C550 H562 0.960 . S
C550 H563 0.962 . S
C550 H564 0.960 . S
C551 C548 1.511 . S
C551 H565 0.961 . S
C551 H566 0.961 . S
C551 H567 0.961 . S
C552 C553 1.370 . S
C552 C554 1.363 . S
C552 H568 0.931 . S
C553 C552 1.370 . S
C553 C557 1.408 . S
C554 C552 1.363 . S
C554 C555 1.370 . S
C554 C558 1.524 . S
C555 C547 1.503 . S
C555 C554 1.370 . S
C555 C556 1.403 . S
C556 C555 1.403 . S
C556 C557 1.404 . S
C556 C559 1.539 . S
C557 C553 1.408 . S
C557 C556 1.404 . S
C557 H569 0.930 . S
C558 C554 1.524 . S
C558 H570 0.956 . S
C558 H571 0.961 . S
C558 H572 0.961 . S
C559 C556 1.539 . S
C559 H573 0.958 . S
C559 H574 0.961 . S
C559 H575 0.960 . S
H560 C544 0.931 . S
H561 C549 0.929 . S
H562 C550 0.960 . S
H563 C550 0.962 . S
H564 C550 0.960 . S
H565 C551 0.961 . S
H566 C551 0.961 . S
H567 C551 0.961 . S
H568 C552 0.931 . S
H569 C557 0.930 . S
H570 C558 0.956 . S
H571 C558 0.961 . S
H572 C558 0.961 . S
H573 C559 0.958 . S
H574 C559 0.961 . S
H575 C559 0.960 . S
C576 C577 1.391 . S
C576 C578 1.394 . S
C576 H592 0.931 . S
C577 C576 1.391 . S
C577 C581 1.376 . S
C578 C576 1.394 . S
C578 C579 1.369 . S
C578 C582 1.531 . S
C579 C578 1.369 . S
C579 C580 1.410 . S
C579 C587 1.503 . S
C580 C579 1.410 . S
C580 C581 1.392 . S
C580 C583 1.511 . S
C581 C577 1.376 . S
C581 C580 1.392 . S
C581 H593 0.929 . S
C582 C578 1.531 . S
C582 H594 0.960 . S
C582 H595 0.962 . S
C582 H596 0.960 . S
C583 C580 1.511 . S
C583 H597 0.961 . S
C583 H598 0.961 . S
C583 H599 0.961 . S
C584 C585 1.370 . S
C584 C586 1.363 . S
C584 H600 0.931 . S
C585 C584 1.370 . S
C585 C589 1.408 . S
C586 C584 1.363 . S
C586 C587 1.370 . S
C586 C590 1.524 . S
C587 C579 1.503 . S
C587 C586 1.370 . S
C587 C588 1.403 . S
C588 C587 1.403 . S
C588 C589 1.404 . S
C588 C591 1.539 . S
C589 C585 1.408 . S
C589 C588 1.404 . S
C589 H601 0.930 . S
C590 C586 1.524 . S
C590 H602 0.956 . S
C590 H603 0.961 . S
C590 H604 0.961 . S
C591 C588 1.539 . S
C591 H605 0.958 . S
C591 H606 0.961 . S
C591 H607 0.960 . S
H592 C576 0.931 . S
H593 C581 0.929 . S
H594 C582 0.960 . S
H595 C582 0.962 . S
H596 C582 0.960 . S
H597 C583 0.961 . S
H598 C583 0.961 . S
H599 C583 0.961 . S
H600 C584 0.931 . S
H601 C589 0.930 . S
H602 C590 0.956 . S
H603 C590 0.961 . S
H604 C590 0.961 . S
H605 C591 0.958 . S
H606 C591 0.961 . S
H607 C591 0.960 . S
C608 C609 1.391 . S
C608 C610 1.394 . S
C608 H624 0.931 . S
C609 C608 1.391 . S
C609 C613 1.376 . S
C610 C608 1.394 . S
C610 C611 1.369 . S
C610 C614 1.531 . S
C611 C610 1.369 . S
C611 C612 1.410 . S
C611 C619 1.503 . S
C612 C611 1.410 . S
C612 C613 1.392 . S
C612 C615 1.511 . S
C613 C609 1.376 . S
C613 C612 1.392 . S
C613 H625 0.929 . S
C614 C610 1.531 . S
C614 H626 0.960 . S
C614 H627 0.962 . S
C614 H628 0.960 . S
C615 C612 1.511 . S
C615 H629 0.961 . S
C615 H630 0.961 . S
C615 H631 0.961 . S
C616 C617 1.370 1_545 S
C616 C618 1.363 1_545 S
C616 H632 0.931 . S
C617 C616 1.370 1_565 S
C617 C621 1.408 . S
C618 C616 1.363 1_565 S
C618 C619 1.370 . S
C618 C622 1.524 1_565 S
C619 C611 1.503 . S
C619 C618 1.370 . S
C619 C620 1.403 . S
C620 C619 1.403 . S
C620 C621 1.404 . S
C620 C623 1.539 . S
C621 C617 1.408 . S
C621 C620 1.404 . S
C621 H633 0.930 . S
C622 C618 1.524 1_545 S
C622 H634 0.956 . S
C622 H635 0.961 . S
C622 H636 0.961 . S
C623 C620 1.539 . S
C623 H637 0.958 . S
C623 H638 0.961 . S
C623 H639 0.960 . S
H624 C608 0.931 . S
H625 C613 0.929 . S
H626 C614 0.960 . S
H627 C614 0.962 . S
H628 C614 0.960 . S
H629 C615 0.961 . S
H630 C615 0.961 . S
H631 C615 0.961 . S
H632 C616 0.931 . S
H633 C621 0.930 . S
H634 C622 0.956 . S
H635 C622 0.961 . S
H636 C622 0.961 . S
H637 C623 0.958 . S
H638 C623 0.961 . S
H639 C623 0.960 . S
C640 C641 1.391 1_655 S
C640 C642 1.394 1_655 S
C640 H656 0.931 . S
C641 C640 1.391 1_455 S
C641 C645 1.376 . S
C642 C640 1.394 1_455 S
C642 C643 1.369 . S
C642 C646 1.531 1_455 S
C643 C642 1.369 . S
C643 C644 1.410 . S
C643 C651 1.503 . S
C644 C643 1.410 . S
C644 C645 1.392 . S
C644 C647 1.511 . S
C645 C641 1.376 . S
C645 C644 1.392 . S
C645 H657 0.929 . S
C646 C642 1.531 1_655 S
C646 H658 0.960 . S
C646 H659 0.962 . S
C646 H660 0.960 . S
C647 C644 1.511 . S
C647 H661 0.961 . S
C647 H662 0.961 . S
C647 H663 0.961 . S
C648 C649 1.370 . S
C648 C650 1.363 . S
C648 H664 0.931 . S
C649 C648 1.370 . S
C649 C653 1.408 . S
C650 C648 1.363 . S
C650 C651 1.370 . S
C650 C654 1.524 . S
C651 C643 1.503 . S
C651 C650 1.370 . S
C651 C652 1.403 . S
C652 C651 1.403 . S
C652 C653 1.404 . S
C652 C655 1.539 . S
C653 C649 1.408 . S
C653 C652 1.404 . S
C653 H665 0.930 . S
C654 C650 1.524 . S
C654 H666 0.956 . S
C654 H667 0.961 . S
C654 H668 0.961 . S
C655 C652 1.539 . S
C655 H669 0.958 . S
C655 H670 0.961 . S
C655 H671 0.960 . S
H656 C640 0.931 . S
H657 C645 0.929 . S
H658 C646 0.960 . S
H659 C646 0.962 . S
H660 C646 0.960 . S
H661 C647 0.961 . S
H662 C647 0.961 . S
H663 C647 0.961 . S
H664 C648 0.931 . S
H665 C653 0.930 . S
H666 C654 0.956 . S
H667 C654 0.961 . S
H668 C654 0.961 . S
H669 C655 0.958 . S
H670 C655 0.961 . S
H671 C655 0.960 . S
C672 C673 1.391 . S
C672 C674 1.394 . S
C672 H688 0.931 . S
C673 C672 1.391 . S
C673 C677 1.376 . S
C674 C672 1.394 . S
C674 C675 1.369 . S
C674 C678 1.531 . S
C675 C674 1.369 . S
C675 C676 1.410 . S
C675 C683 1.503 . S
C676 C675 1.410 . S
C676 C677 1.392 . S
C676 C679 1.511 . S
C677 C673 1.376 . S
C677 C676 1.392 . S
C677 H689 0.929 . S
C678 C674 1.531 . S
C678 H690 0.960 . S
C678 H691 0.962 . S
C678 H692 0.960 . S
C679 C676 1.511 . S
C679 H693 0.961 . S
C679 H694 0.961 . S
C679 H695 0.961 . S
C680 C681 1.370 . S
C680 C682 1.363 . S
C680 H696 0.931 . S
C681 C680 1.370 . S
C681 C685 1.408 . S
C682 C680 1.363 . S
C682 C683 1.370 . S
C682 C686 1.524 . S
C683 C675 1.503 . S
C683 C682 1.370 . S
C683 C684 1.403 . S
C684 C683 1.403 . S
C684 C685 1.404 . S
C684 C687 1.539 . S
C685 C681 1.408 . S
C685 C684 1.404 . S
C685 H697 0.930 . S
C686 C682 1.524 . S
C686 H698 0.956 . S
C686 H699 0.961 . S
C686 H700 0.961 . S
C687 C684 1.539 . S
C687 H701 0.958 . S
C687 H702 0.961 . S
C687 H703 0.960 . S
H688 C672 0.931 . S
H689 C677 0.929 . S
H690 C678 0.960 . S
H691 C678 0.962 . S
H692 C678 0.960 . S
H693 C679 0.961 . S
H694 C679 0.961 . S
H695 C679 0.961 . S
H696 C680 0.931 . S
H697 C685 0.930 . S
H698 C686 0.956 . S
H699 C686 0.961 . S
H700 C686 0.961 . S
H701 C687 0.958 . S
H702 C687 0.961 . S
H703 C687 0.960 . S
C704 C705 1.391 . S
C704 C706 1.394 . S
C704 H720 0.931 . S
C705 C704 1.391 . S
C705 C709 1.376 . S
C706 C704 1.394 . S
C706 C707 1.369 . S
C706 C710 1.531 . S
C707 C706 1.369 . S
C707 C708 1.410 . S
C707 C715 1.503 . S
C708 C707 1.410 . S
C708 C709 1.392 . S
C708 C711 1.511 . S
C709 C705 1.376 . S
C709 C708 1.392 . S
C709 H721 0.929 . S
C710 C706 1.531 . S
C710 H722 0.960 . S
C710 H723 0.962 . S
C710 H724 0.960 . S
C711 C708 1.511 . S
C711 H725 0.961 . S
C711 H726 0.961 . S
C711 H727 0.961 . S
C712 C713 1.370 . S
C712 C714 1.363 . S
C712 H728 0.931 . S
C713 C712 1.370 . S
C713 C717 1.408 . S
C714 C712 1.363 . S
C714 C715 1.370 . S
C714 C718 1.524 . S
C715 C707 1.503 . S
C715 C714 1.370 . S
C715 C716 1.403 . S
C716 C715 1.403 . S
C716 C717 1.404 . S
C716 C719 1.539 . S
C717 C713 1.408 . S
C717 C716 1.404 . S
C717 H729 0.930 . S
C718 C714 1.524 . S
C718 H730 0.956 . S
C718 H731 0.961 . S
C718 H732 0.961 . S
C719 C716 1.539 . S
C719 H733 0.958 . S
C719 H734 0.961 . S
C719 H735 0.960 . S
H720 C704 0.931 . S
H721 C709 0.929 . S
H722 C710 0.960 . S
H723 C710 0.962 . S
H724 C710 0.960 . S
H725 C711 0.961 . S
H726 C711 0.961 . S
H727 C711 0.961 . S
H728 C712 0.931 . S
H729 C717 0.930 . S
H730 C718 0.956 . S
H731 C718 0.961 . S
H732 C718 0.961 . S
H733 C719 0.958 . S
H734 C719 0.961 . S
H735 C719 0.960 . S
C736 C737 1.391 . S
C736 C738 1.394 . S
C736 H752 0.931 . S
C737 C736 1.391 . S
C737 C741 1.376 . S
C738 C736 1.394 . S
C738 C739 1.369 . S
C738 C742 1.531 . S
C739 C738 1.369 . S
C739 C740 1.410 . S
C739 C747 1.503 . S
C740 C739 1.410 . S
C740 C741 1.392 . S
C740 C743 1.511 . S
C741 C737 1.376 . S
C741 C740 1.392 . S
C741 H753 0.929 . S
C742 C738 1.531 . S
C742 H754 0.960 . S
C742 H755 0.962 . S
C742 H756 0.960 . S
C743 C740 1.511 . S
C743 H757 0.961 . S
C743 H758 0.961 . S
C743 H759 0.961 . S
C744 C745 1.370 . S
C744 C746 1.363 . S
C744 H760 0.931 1_545 S
C745 C744 1.370 . S
C745 C749 1.408 . S
C746 C744 1.363 . S
C746 C747 1.370 . S
C746 C750 1.524 1_545 S
C747 C739 1.503 . S
C747 C746 1.370 . S
C747 C748 1.403 . S
C748 C747 1.403 . S
C748 C749 1.404 . S
C748 C751 1.539 . S
C749 C745 1.408 . S
C749 C748 1.404 . S
C749 H761 0.930 . S
C750 C746 1.524 1_565 S
C750 H762 0.956 1_565 S
C750 H763 0.961 . S
C750 H764 0.961 . S
C751 C748 1.539 . S
C751 H765 0.958 . S
C751 H766 0.961 . S
C751 H767 0.960 . S
H752 C736 0.931 . S
H753 C741 0.929 . S
H754 C742 0.960 . S
H755 C742 0.962 . S
H756 C742 0.960 . S
H757 C743 0.961 . S
H758 C743 0.961 . S
H759 C743 0.961 . S
H760 C744 0.931 1_565 S
H761 C749 0.930 . S
H762 C750 0.956 1_545 S
H763 C750 0.961 . S
H764 C750 0.961 . S
H765 C751 0.958 . S
H766 C751 0.961 . S
H767 C751 0.960 . S
C768 C769 1.391 . S
C768 C770 1.394 . S
C768 H784 0.931 . S
C769 C768 1.391 . S
C769 C773 1.376 . S
C770 C768 1.394 . S
C770 C771 1.369 . S
C770 C774 1.531 . S
C771 C770 1.369 . S
C771 C772 1.410 . S
C771 C779 1.503 . S
C772 C771 1.410 . S
C772 C773 1.392 . S
C772 C775 1.511 . S
C773 C769 1.376 . S
C773 C772 1.392 . S
C773 H785 0.929 . S
C774 C770 1.531 . S
C774 H786 0.960 . S
C774 H787 0.962 . S
C774 H788 0.954 1_655 S
C775 C772 1.511 . S
C775 H789 0.961 . S
C775 H790 0.961 . S
C775 H791 0.961 . S
C776 C777 1.370 . S
C776 C778 1.363 . S
C776 H792 0.931 . S
C777 C776 1.370 . S
C777 C781 1.408 . S
C778 C776 1.363 . S
C778 C779 1.370 . S
C778 C782 1.524 . S
C779 C771 1.503 . S
C779 C778 1.370 . S
C779 C780 1.403 . S
C780 C779 1.403 . S
C780 C781 1.404 . S
C780 C783 1.539 1_655 S
C781 C777 1.408 . S
C781 C780 1.404 . S
C781 H793 0.930 . S
C782 C778 1.524 . S
C782 H794 0.956 . S
C782 H795 0.961 . S
C782 H796 0.961 . S
C783 C780 1.539 1_455 S
C783 H797 0.958 . S
C783 H798 0.961 . S
C783 H799 0.960 . S
H784 C768 0.931 . S
H785 C773 0.929 . S
H786 C774 0.960 . S
H787 C774 0.962 . S
H788 C774 0.954 1_455 S
H789 C775 0.961 . S
H790 C775 0.961 . S
H791 C775 0.961 . S
H792 C776 0.931 . S
H793 C781 0.930 . S
H794 C782 0.956 . S
H795 C782 0.961 . S
H796 C782 0.961 . S
H797 C783 0.958 . S
H798 C783 0.961 . S
H799 C783 0.960 . S
C289 C158 1.606 . S
C297 C14 1.614 . S
C321 C50 1.604 . S
C329 C194 1.615 . S
C353 C86 1.614 . S
C361 C230 1.611 . S
C385 C266 1.603 . S
C393 C122 1.616 . S
C417 C4 1.412 . S
C425 C76 1.400 . S
C449 C40 1.402 . S
C457 C112 1.390 . S
C481 C220 1.411 . S
C489 C148 1.385 . S
C513 C184 1.413 . S
C521 C256 1.385 . S
C545 C182 0.950 . S
C553 C3 0.974 . S
C577 C39 0.955 . S
C585 C218 0.924 . S
C609 C75 0.941 . S
C617 C254 0.956 . S
C641 C146 0.906 . S
C649 C111 0.951 . S
C673 C147 0.987 . S
C681 C38 0.936 . S
C705 C183 0.985 . S
C713 C74 0.933 . S
C737 C219 0.950 . S
C745 C110 0.964 . S
C769 C2 0.931 . S
C777 C255 0.974 . S
