# Generated by pormake.
# Topology gis, (4)-cn, num edge types: 1
# Building blocks:
#     Node 0, Type 0, BuildingBlock: TATPOV_clean_sbu_0, # of connection points: 4
#     Node 1, Type 0, BuildingBlock: TATPOV_clean_sbu_0, # of connection points: 4
#     Node 2, Type 0, BuildingBlock: TATPOV_clean_sbu_0, # of connection points: 4
#     Node 3, Type 0, BuildingBlock: TATPOV_clean_sbu_0, # of connection points: 4
#     Node 4, Type 0, BuildingBlock: TATPOV_clean_sbu_0, # of connection points: 4
#     Node 5, Type 0, BuildingBlock: TATPOV_clean_sbu_0, # of connection points: 4
#     Node 6, Type 0, BuildingBlock: TATPOV_clean_sbu_0, # of connection points: 4
#     Node 7, Type 0, BuildingBlock: TATPOV_clean_sbu_0, # of connection points: 4
#     Node 8, Type 0, BuildingBlock: TATPOV_clean_sbu_0, # of connection points: 4
#     Node 9, Type 0, BuildingBlock: TATPOV_clean_sbu_0, # of connection points: 4
#     Node 10, Type 0, BuildingBlock: TATPOV_clean_sbu_0, # of connection points: 4
#     Node 11, Type 0, BuildingBlock: TATPOV_clean_sbu_0, # of connection points: 4
#     Node 12, Type 0, BuildingBlock: TATPOV_clean_sbu_0, # of connection points: 4
#     Node 13, Type 0, BuildingBlock: TATPOV_clean_sbu_0, # of connection points: 4
#     Node 14, Type 0, BuildingBlock: TATPOV_clean_sbu_0, # of connection points: 4
#     Node 15, Type 0, BuildingBlock: TATPOV_clean_sbu_0, # of connection points: 4
#     Edge 16, Type (0, 0), BuildingBlock: MIFKUJ_clean_linker_0, # of connection points: 2
#     Edge 17, Type (0, 0), BuildingBlock: MIFKUJ_clean_linker_0, # of connection points: 2
#     Edge 18, Type (0, 0), BuildingBlock: MIFKUJ_clean_linker_0, # of connection points: 2
#     Edge 19, Type (0, 0), BuildingBlock: MIFKUJ_clean_linker_0, # of connection points: 2
#     Edge 20, Type (0, 0), BuildingBlock: MIFKUJ_clean_linker_0, # of connection points: 2
#     Edge 21, Type (0, 0), BuildingBlock: MIFKUJ_clean_linker_0, # of connection points: 2
#     Edge 22, Type (0, 0), BuildingBlock: MIFKUJ_clean_linker_0, # of connection points: 2
#     Edge 23, Type (0, 0), BuildingBlock: MIFKUJ_clean_linker_0, # of connection points: 2
#     Edge 24, Type (0, 0), BuildingBlock: MIFKUJ_clean_linker_0, # of connection points: 2
#     Edge 25, Type (0, 0), BuildingBlock: MIFKUJ_clean_linker_0, # of connection points: 2
#     Edge 26, Type (0, 0), BuildingBlock: MIFKUJ_clean_linker_0, # of connection points: 2
#     Edge 27, Type (0, 0), BuildingBlock: MIFKUJ_clean_linker_0, # of connection points: 2
#     Edge 28, Type (0, 0), BuildingBlock: MIFKUJ_clean_linker_0, # of connection points: 2
#     Edge 29, Type (0, 0), BuildingBlock: MIFKUJ_clean_linker_0, # of connection points: 2
#     Edge 30, Type (0, 0), BuildingBlock: MIFKUJ_clean_linker_0, # of connection points: 2
#     Edge 31, Type (0, 0), BuildingBlock: MIFKUJ_clean_linker_0, # of connection points: 2
#     Edge 32, Type (0, 0), BuildingBlock: MIFKUJ_clean_linker_0, # of connection points: 2
#     Edge 33, Type (0, 0), BuildingBlock: MIFKUJ_clean_linker_0, # of connection points: 2
#     Edge 34, Type (0, 0), BuildingBlock: MIFKUJ_clean_linker_0, # of connection points: 2
#     Edge 35, Type (0, 0), BuildingBlock: MIFKUJ_clean_linker_0, # of connection points: 2
#     Edge 36, Type (0, 0), BuildingBlock: MIFKUJ_clean_linker_0, # of connection points: 2
#     Edge 37, Type (0, 0), BuildingBlock: MIFKUJ_clean_linker_0, # of connection points: 2
#     Edge 38, Type (0, 0), BuildingBlock: MIFKUJ_clean_linker_0, # of connection points: 2
#     Edge 39, Type (0, 0), BuildingBlock: MIFKUJ_clean_linker_0, # of connection points: 2
#     Edge 40, Type (0, 0), BuildingBlock: MIFKUJ_clean_linker_0, # of connection points: 2
#     Edge 41, Type (0, 0), BuildingBlock: MIFKUJ_clean_linker_0, # of connection points: 2
#     Edge 42, Type (0, 0), BuildingBlock: MIFKUJ_clean_linker_0, # of connection points: 2
#     Edge 43, Type (0, 0), BuildingBlock: MIFKUJ_clean_linker_0, # of connection points: 2
#     Edge 44, Type (0, 0), BuildingBlock: MIFKUJ_clean_linker_0, # of connection points: 2
#     Edge 45, Type (0, 0), BuildingBlock: MIFKUJ_clean_linker_0, # of connection points: 2
#     Edge 46, Type (0, 0), BuildingBlock: MIFKUJ_clean_linker_0, # of connection points: 2
#     Edge 47, Type (0, 0), BuildingBlock: MIFKUJ_clean_linker_0, # of connection points: 2
# Relax obj value: 0.142
# Max RMSD: 0.160
# Mean RMSD: 0.140
data_MOF--net-gis--node1-TATPOV_clean_sbu_0--edge1-MIFKUJ_clean_linker_0
_symmetry_space_group_name_H-M    P1
_symmetry_Int_Tables_number       1
_symmetry_cell_setting            triclinic
loop_
_symmetry_equiv_pos_as_xyz
'x, y, z'
_cell_length_a     62.46627
_cell_length_b     62.49758
_cell_length_c     61.876169
_cell_angle_alpha  91.733237
_cell_angle_beta   91.21518
_cell_angle_gamma 90.592799
loop_
_atom_site_label
_atom_site_type_symbol
_atom_site_fract_x
_atom_site_fract_y
_atom_site_fract_z
_atom_type_partial_charge
Zn0 Zn 0.11978 0.60912 0.0644 0.0
Zn1 Zn 0.14179 0.59663 0.09924 0.0
O2 O 0.15268 0.57686 0.07428 0.0
O3 O 0.13308 0.58602 0.04613 0.0
O4 O 0.15984 0.58793 0.12519 0.0
O5 O 0.13325 0.6384 0.06674 0.0
O6 O 0.14872 0.62913 0.09731 0.0
C7 C 0.14737 0.57435 0.05432 0.0
C8 C 0.09272 0.59493 0.09843 0.0
O9 O 0.11052 0.59063 0.10767 0.0
O10 O 0.09241 0.60342 0.0801 0.0
C11 C 0.1528 0.57839 0.14153 0.0
O12 O 0.13237 0.57334 0.14221 0.0
C13 C 0.14464 0.64325 0.08336 0.0
Zn14 Zn 0.64269 0.86882 0.42385 0.0
Zn15 Zn 0.65866 0.88004 0.38622 0.0
O16 O 0.67127 0.90234 0.40903 0.0
O17 O 0.66022 0.89099 0.44026 0.0
O18 O 0.67261 0.88701 0.35764 0.0
O19 O 0.65294 0.83872 0.42064 0.0
O20 O 0.6655 0.84758 0.38915 0.0
C21 C 0.67063 0.9044 0.42961 0.0
C22 C 0.61066 0.88353 0.3932 0.0
O23 O 0.62656 0.88533 0.38076 0.0
O24 O 0.61345 0.87689 0.4122 0.0
C25 C 0.68693 0.90138 0.35539 0.0
O26 O 0.69329 0.91316 0.3723 0.0
C27 C 0.66231 0.83356 0.40337 0.0
Zn28 Zn 0.33568 0.37844 0.56841 0.0
Zn29 Zn 0.31804 0.39496 0.60339 0.0
O30 O 0.3075 0.41509 0.57887 0.0
O31 O 0.32001 0.39881 0.54979 0.0
O32 O 0.30104 0.40328 0.62991 0.0
O33 O 0.32392 0.34888 0.57205 0.0
O34 O 0.30943 0.36271 0.60127 0.0
C35 C 0.30951 0.41392 0.55834 0.0
C36 C 0.36653 0.39647 0.6 0.0
O37 O 0.35008 0.4002 0.61137 0.0
O38 O 0.36441 0.38754 0.5814 0.0
C39 C 0.30526 0.41684 0.64518 0.0
O40 O 0.32265 0.42878 0.64444 0.0
C41 C 0.31264 0.34667 0.58857 0.0
Zn42 Zn 0.85323 0.07769 0.81845 0.0
Zn43 Zn 0.8344 0.06452 0.85411 0.0
O44 O 0.81629 0.05051 0.829 0.0
O45 O 0.83176 0.06146 0.79962 0.0
O46 O 0.82083 0.05236 0.88061 0.0
O47 O 0.88071 0.06379 0.82679 0.0
O48 O 0.86619 0.05521 0.85751 0.0
C49 C 0.81711 0.05089 0.80842 0.0
C50 C 0.83627 0.11226 0.84498 0.0
O51 O 0.82971 0.09712 0.8566 0.0
O52 O 0.84719 0.10817 0.82837 0.0
C53 C 0.82157 0.06154 0.89925 0.0
O54 O 0.83123 0.08025 0.90176 0.0
C55 C 0.88229 0.05554 0.84516 0.0
Zn56 Zn 0.13475 0.36961 0.90393 0.0
Zn57 Zn 0.15419 0.3797 0.86833 0.0
O58 O 0.16748 0.40058 0.89222 0.0
O59 O 0.1542 0.38837 0.9222 0.0
O60 O 0.1703 0.3862 0.8409 0.0
O61 O 0.14156 0.33864 0.90035 0.0
O62 O 0.16005 0.34713 0.87193 0.0
C63 C 0.16641 0.40121 0.91282 0.0
C64 C 0.10598 0.3869 0.87228 0.0
O65 O 0.12249 0.38633 0.86049 0.0
O66 O 0.10729 0.38137 0.89177 0.0
C67 C 0.18042 0.4036 0.83779 0.0
O68 O 0.18055 0.41883 0.8529 0.0
C69 C 0.15364 0.33315 0.88506 0.0
Zn70 Zn 0.81994 0.88555 0.07344 0.0
Zn71 Zn 0.80489 0.9015 0.10988 0.0
O72 O 0.79256 0.92132 0.0861 0.0
O73 O 0.80127 0.90444 0.05585 0.0
O74 O 0.78942 0.90975 0.13733 0.0
O75 O 0.81089 0.85539 0.07905 0.0
O76 O 0.7972 0.86913 0.10868 0.0
C77 C 0.79207 0.91983 0.06545 0.0
C78 C 0.85248 0.90514 0.10236 0.0
O79 O 0.83716 0.90735 0.11553 0.0
O80 O 0.84901 0.89695 0.0836 0.0
C81 C 0.79656 0.91998 0.15409 0.0
O82 O 0.81606 0.92809 0.15422 0.0
C83 C 0.80067 0.85297 0.09625 0.0
Zn84 Zn 0.35166 0.59351 0.32025 0.0
Zn85 Zn 0.33285 0.57816 0.35349 0.0
O86 O 0.31195 0.57011 0.32741 0.0
O87 O 0.32798 0.58451 0.3 0.0
O88 O 0.31999 0.56284 0.37868 0.0
O89 O 0.37733 0.57523 0.32297 0.0
O90 O 0.36369 0.5653 0.35361 0.0
C91 C 0.31234 0.5742 0.3073 0.0
C92 C 0.34167 0.62605 0.35232 0.0
O93 O 0.33264 0.61056 0.36169 0.0
O94 O 0.35142 0.62263 0.33484 0.0
C95 C 0.31764 0.57066 0.39771 0.0
O96 O 0.32276 0.59082 0.40192 0.0
C97 C 0.37895 0.565 0.34021 0.0
Zn98 Zn 0.62411 0.11086 0.65333 0.0
Zn99 Zn 0.63596 0.0901 0.61806 0.0
O100 O 0.65224 0.07583 0.64334 0.0
O101 O 0.63835 0.09 0.67277 0.0
O102 O 0.64577 0.07207 0.59248 0.0
O103 O 0.59326 0.10677 0.64468 0.0
O104 O 0.60292 0.08601 0.61727 0.0
C105 C 0.6508 0.07675 0.66388 0.0
C106 C 0.64694 0.13769 0.62467 0.0
O107 O 0.64572 0.12115 0.61209 0.0
O108 O 0.64005 0.13691 0.64374 0.0
C109 C 0.64944 0.07853 0.5736 0.0
O110 O 0.64656 0.09878 0.56933 0.0
C111 C 0.5883 0.09453 0.62866 0.0
Zn112 Zn 0.8603 0.36712 0.91098 0.0
Zn113 Zn 0.84049 0.38066 0.87569 0.0
O114 O 0.82973 0.401 0.90039 0.0
O115 O 0.84527 0.38867 0.92968 0.0
O116 O 0.82487 0.39064 0.84874 0.0
O117 O 0.84788 0.33776 0.90635 0.0
O118 O 0.83115 0.34858 0.87706 0.0
C119 C 0.83285 0.40185 0.92087 0.0
C120 C 0.88971 0.38112 0.87913 0.0
O121 O 0.87252 0.38484 0.86843 0.0
O122 O 0.88872 0.37377 0.89793 0.0
C123 C 0.80548 0.39663 0.84926 0.0
O124 O 0.79547 0.39644 0.86772 0.0
C125 C 0.83567 0.33377 0.89013 0.0
Zn126 Zn 0.32395 0.09598 0.56205 0.0
Zn127 Zn 0.3153 0.08102 0.60065 0.0
O128 O 0.3028 0.05806 0.57866 0.0
O129 O 0.30754 0.07213 0.54689 0.0
O130 O 0.30646 0.07039 0.6299 0.0
O131 O 0.30965 0.12369 0.56841 0.0
O132 O 0.30311 0.11208 0.60085 0.0
C133 C 0.30059 0.05708 0.55811 0.0
C134 C 0.36177 0.08544 0.58735 0.0
O135 O 0.34822 0.08023 0.60144 0.0
O136 O 0.35544 0.09263 0.56941 0.0
C137 C 0.28769 0.06274 0.63205 0.0
O138 O 0.27463 0.06163 0.61512 0.0
C139 C 0.30205 0.1268 0.587 0.0
Zn140 Zn 0.63519 0.57361 0.32617 0.0
Zn141 Zn 0.64844 0.56117 0.36491 0.0
O142 O 0.6707 0.54825 0.34337 0.0
O143 O 0.6571 0.55579 0.31134 0.0
O144 O 0.65573 0.54911 0.39441 0.0
O145 O 0.60571 0.56164 0.32945 0.0
O146 O 0.61637 0.55175 0.36172 0.0
C147 C 0.67136 0.54706 0.32275 0.0
C148 C 0.64966 0.6087 0.35509 0.0
O149 O 0.65241 0.59394 0.36866 0.0
O150 O 0.6427 0.60406 0.3361 0.0
C151 C 0.6675 0.5329 0.39738 0.0
O152 O 0.67702 0.52387 0.38078 0.0
C153 C 0.60175 0.55288 0.34709 0.0
Zn154 Zn 0.11286 0.89406 0.16958 0.0
Zn155 Zn 0.12412 0.91131 0.13254 0.0
O156 O 0.14389 0.92633 0.15602 0.0
O157 O 0.13169 0.91466 0.1867 0.0
O158 O 0.13144 0.92562 0.10437 0.0
O159 O 0.08203 0.90093 0.16459 0.0
O160 O 0.09129 0.91646 0.13469 0.0
C161 C 0.14444 0.92643 0.17666 0.0
C162 C 0.13163 0.86362 0.13966 0.0
O163 O 0.13188 0.87953 0.12721 0.0
O164 O 0.12474 0.86587 0.1587 0.0
C165 C 0.14874 0.93599 0.10139 0.0
O166 O 0.16322 0.9375 0.11707 0.0
C167 C 0.07692 0.91121 0.148 0.0
Zn168 Zn 0.84553 0.60578 0.08422 0.0
Zn169 Zn 0.82912 0.58849 0.11858 0.0
O170 O 0.81741 0.56921 0.09273 0.0
O171 O 0.82895 0.58573 0.0642 0.0
O172 O 0.81572 0.57661 0.14542 0.0
O173 O 0.83428 0.63453 0.09188 0.0
O174 O 0.81915 0.6204 0.12 0.0
C175 C 0.8184 0.57064 0.07223 0.0
C176 C 0.87775 0.59003 0.11319 0.0
O177 O 0.86168 0.58496 0.12441 0.0
O178 O 0.87498 0.5987 0.09513 0.0
C179 C 0.80658 0.5584 0.14652 0.0
O180 O 0.80555 0.54564 0.12926 0.0
C181 C 0.82304 0.6366 0.10854 0.0
Zn182 Zn 0.13589 0.07703 0.82514 0.0
Zn183 Zn 0.15019 0.0611 0.86075 0.0
O184 O 0.16942 0.04771 0.83667 0.0
O185 O 0.15191 0.05601 0.80689 0.0
O186 O 0.15741 0.04509 0.888 0.0
O187 O 0.10496 0.07222 0.83142 0.0
O188 O 0.11739 0.05507 0.85939 0.0
C189 C 0.16719 0.04648 0.81609 0.0
C190 C 0.15791 0.10813 0.85329 0.0
O191 O 0.15786 0.0931 0.86682 0.0
O192 O 0.15051 0.10483 0.83426 0.0
C193 C 0.16957 0.05063 0.904 0.0
O194 O 0.18054 0.06865 0.9035 0.0
C195 C 0.10161 0.06106 0.84773 0.0
Zn196 Zn 0.62479 0.38186 0.66873 0.0
Zn197 Zn 0.63545 0.4016 0.63347 0.0
O198 O 0.6577 0.41284 0.65715 0.0
O199 O 0.64556 0.39919 0.68699 0.0
O200 O 0.6416 0.41923 0.60715 0.0
O201 O 0.59419 0.39062 0.66705 0.0
O202 O 0.60293 0.40762 0.63784 0.0
C203 C 0.65898 0.4108 0.67763 0.0
C204 C 0.6407 0.35338 0.63488 0.0
O205 O 0.64136 0.37029 0.62387 0.0
O206 O 0.63461 0.35433 0.65429 0.0
C207 C 0.65673 0.41558 0.59413 0.0
O208 O 0.66975 0.39964 0.59776 0.0
C209 C 0.58892 0.40224 0.65148 0.0
Zn210 Zn 0.35608 0.87777 0.31293 0.0
Zn211 Zn 0.34347 0.89405 0.35144 0.0
O212 O 0.3239 0.9085 0.3288 0.0
O213 O 0.33405 0.89515 0.29737 0.0
O214 O 0.33452 0.90677 0.38034 0.0
O215 O 0.38563 0.89003 0.31838 0.0
O216 O 0.37583 0.90142 0.35069 0.0
C217 C 0.32203 0.90738 0.30822 0.0
C218 C 0.34113 0.84576 0.34233 0.0
O219 O 0.33771 0.86196 0.35471 0.0
O220 O 0.34891 0.84827 0.32381 0.0
C221 C 0.31611 0.91463 0.38351 0.0
O222 O 0.30201 0.91473 0.36747 0.0
C223 C 0.3902 0.8991 0.33648 0.0
H224 H 0.1397 0.84975 0.09806 0.0
H225 H 0.14866 0.81331 0.08573 0.0
H226 H 0.14871 0.79282 0.15166 0.0
H227 H 0.13985 0.82897 0.16409 0.0
H228 H 0.18173 0.77478 0.12829 0.0
H229 H 0.10506 0.78524 0.12082 0.0
H230 H 0.07281 0.80347 0.10735 0.0
H231 H 0.09146 0.79066 0.04187 0.0
H232 H 0.124 0.7726 0.05498 0.0
H233 H 0.15619 0.66348 0.12183 0.0
H234 H 0.16077 0.70203 0.12864 0.0
H235 H 0.15276 0.71265 0.06036 0.0
H236 H 0.14753 0.67428 0.05357 0.0
H237 H 0.12713 0.73711 0.0814 0.0
H238 H 0.20147 0.72224 0.08852 0.0
H239 H 0.23375 0.70396 0.10177 0.0
H240 H 0.22048 0.72474 0.16684 0.0
H241 H 0.18794 0.74292 0.15403 0.0
C242 C 0.14187 0.83754 0.10994 0.0
C243 C 0.13882 0.84222 0.13203 0.0
C244 C 0.14697 0.81674 0.10288 0.0
C245 C 0.14918 0.80034 0.11779 0.0
C246 C 0.14711 0.80522 0.13989 0.0
C247 C 0.14188 0.8259 0.14694 0.0
C248 C 0.152 0.77775 0.11046 0.0
C249 C 0.16981 0.76646 0.11808 0.0
C250 C 0.13668 0.76708 0.09675 0.0
C251 C 0.11707 0.77782 0.08887 0.0
C252 C 0.10237 0.78647 0.10355 0.0
C253 C 0.08403 0.79674 0.09599 0.0
C254 C 0.08013 0.79829 0.07377 0.0
C255 C 0.09453 0.78949 0.05907 0.0
C256 C 0.11292 0.77923 0.06656 0.0
C257 C 0.15589 0.674 0.10823 0.0
C258 C 0.15132 0.66586 0.0872 0.0
C259 C 0.15858 0.69606 0.11212 0.0
C260 C 0.15715 0.71032 0.095 0.0
C261 C 0.15381 0.70203 0.07385 0.0
C262 C 0.15087 0.68006 0.06999 0.0
C263 C 0.15687 0.73386 0.09932 0.0
C264 C 0.13938 0.74537 0.09124 0.0
C265 C 0.17257 0.74469 0.11252 0.0
C266 C 0.19216 0.73381 0.12032 0.0
C267 C 0.20534 0.72278 0.10568 0.0
C268 C 0.2237 0.71246 0.11311 0.0
C269 C 0.22914 0.71315 0.13514 0.0
C270 C 0.21624 0.72421 0.14978 0.0
C271 C 0.19785 0.73455 0.14244 0.0
H272 H 0.24336 0.70515 0.14086 0.0
H273 H 0.06592 0.80624 0.06795 0.0
H274 H 0.42176 0.90683 0.30795 0.0
H275 H 0.46009 0.91061 0.31583 0.0
H276 H 0.44824 0.90747 0.38411 0.0
H277 H 0.40971 0.90439 0.37635 0.0
H278 H 0.48086 0.93425 0.37736 0.0
H279 H 0.461 0.86242 0.35368 0.0
H280 H 0.44485 0.83493 0.32877 0.0
H281 H 0.48722 0.85369 0.2788 0.0
H282 H 0.50344 0.8815 0.30336 0.0
H283 H 0.57494 0.8867 0.41757 0.0
H284 H 0.53874 0.89547 0.40577 0.0
H285 H 0.56032 0.90241 0.34058 0.0
H286 H 0.59687 0.89355 0.35228 0.0
H287 H 0.52418 0.87709 0.34281 0.0
H288 H 0.54727 0.94614 0.36962 0.0
H289 H 0.56346 0.97223 0.39598 0.0
H290 H 0.51522 0.95727 0.44174 0.0
H291 H 0.49891 0.93084 0.41577 0.0
C292 C 0.42728 0.90734 0.32468 0.0
C293 C 0.41277 0.90502 0.34153 0.0
C294 C 0.4492 0.90944 0.32915 0.0
C295 C 0.45708 0.90876 0.35052 0.0
C296 C 0.44252 0.90791 0.36748 0.0
C297 C 0.42051 0.90614 0.36303 0.0
C298 C 0.48044 0.90712 0.35505 0.0
C299 C 0.49032 0.92169 0.36991 0.0
C300 C 0.49289 0.89098 0.345 0.0
C301 C 0.48326 0.87419 0.33026 0.0
C302 C 0.46676 0.86078 0.33733 0.0
C303 C 0.45761 0.84513 0.32329 0.0
C304 C 0.46496 0.84261 0.3022 0.0
C305 C 0.48152 0.85569 0.29513 0.0
C306 C 0.4907 0.87139 0.3091 0.0
C307 C 0.5721 0.89017 0.40072 0.0
C308 C 0.58882 0.88936 0.38585 0.0
C309 C 0.55138 0.89534 0.39404 0.0
C310 C 0.5469 0.89985 0.37237 0.0
C311 C 0.56351 0.8991 0.35742 0.0
C312 C 0.58435 0.89404 0.36413 0.0
C313 C 0.52457 0.90407 0.36528 0.0
C314 C 0.51484 0.88989 0.34999 0.0
C315 C 0.51226 0.92041 0.37513 0.0
C316 C 0.52195 0.93639 0.39077 0.0
C317 C 0.5402 0.94829 0.38536 0.0
C318 C 0.54939 0.96316 0.40023 0.0
C319 C 0.5404 0.96638 0.42054 0.0
C320 C 0.52217 0.95476 0.426 0.0
C321 C 0.51293 0.93985 0.4112 0.0
H322 H 0.54754 0.9779 0.43203 0.0
H323 H 0.45785 0.83048 0.29135 0.0
H324 H 0.30503 0.31339 0.56007 0.0
H325 H 0.2938 0.277 0.56796 0.0
H326 H 0.2901 0.29459 0.63569 0.0
H327 H 0.30104 0.33142 0.62782 0.0
H328 H 0.31534 0.25744 0.62591 0.0
H329 H 0.24526 0.28292 0.61225 0.0
H330 H 0.21695 0.30236 0.59292 0.0
H331 H 0.22468 0.2614 0.53673 0.0
H332 H 0.25327 0.2419 0.55558 0.0
H333 H 0.29546 0.14492 0.62747 0.0
H334 H 0.28779 0.1827 0.63598 0.0
H335 H 0.28308 0.19493 0.56778 0.0
H336 H 0.2902 0.15755 0.55928 0.0
H337 H 0.25491 0.21838 0.58867 0.0
H338 H 0.33088 0.20156 0.59785 0.0
H339 H 0.36124 0.18289 0.61477 0.0
H340 H 0.34386 0.20822 0.67719 0.0
H341 H 0.31324 0.22685 0.66062 0.0
C342 C 0.30157 0.30963 0.57662 0.0
C343 C 0.30397 0.32524 0.59333 0.0
C344 C 0.29504 0.28885 0.58109 0.0
C345 C 0.29099 0.28315 0.60239 0.0
C346 C 0.29303 0.29874 0.61914 0.0
C347 C 0.29922 0.31974 0.61461 0.0
C348 C 0.28631 0.26045 0.6069 0.0
C349 C 0.30176 0.24894 0.61836 0.0
C350 C 0.26878 0.24939 0.59678 0.0
C351 C 0.25148 0.26098 0.58535 0.0
C352 C 0.24103 0.27813 0.59572 0.0
C353 C 0.22491 0.28916 0.58485 0.0
C354 C 0.21903 0.28313 0.5636 0.0
C355 C 0.22924 0.26604 0.55319 0.0
C356 C 0.24538 0.25497 0.56399 0.0
C357 C 0.29225 0.15559 0.61435 0.0
C358 C 0.29374 0.14831 0.5927 0.0
C359 C 0.28799 0.17719 0.61922 0.0
C360 C 0.28521 0.19175 0.60251 0.0
C361 C 0.28519 0.18408 0.58098 0.0
C362 C 0.28942 0.16265 0.57613 0.0
C363 C 0.28446 0.21526 0.60682 0.0
C364 C 0.26803 0.22693 0.59696 0.0
C365 C 0.30127 0.22648 0.61814 0.0
C366 C 0.31964 0.21532 0.62807 0.0
C367 C 0.33346 0.20301 0.6152 0.0
C368 C 0.35072 0.19246 0.62472 0.0
C369 C 0.35443 0.1943 0.64705 0.0
C370 C 0.34093 0.20676 0.6599 0.0
C371 C 0.32362 0.2173 0.65047 0.0
H372 H 0.3678 0.18613 0.65439 0.0
H373 H 0.20656 0.29169 0.55521 0.0
H374 H 0.06521 0.07954 0.83278 0.0
H375 H 0.02843 0.07198 0.84267 0.0
H376 H 0.05031 0.02337 0.88563 0.0
H377 H 0.08757 0.03109 0.87602 0.0
H378 H 0.01454 0.01101 0.85669 0.0
H379 H 0.03359 0.06426 0.90985 0.0
H380 H 0.04981 0.09808 0.92412 0.0
H381 H 0.00688 0.13378 0.88424 0.0
H382 H -0.00939 0.10018 0.86947 0.0
H383 H 0.89832 0.0526 0.88664 0.0
H384 H 0.93561 0.04525 0.89736 0.0
H385 H 0.95096 0.03374 0.83038 0.0
H386 H 0.91412 0.04106 0.81969 0.0
H387 H 0.96907 0.06962 0.88521 0.0
H388 H -0.00927 -0.00046 0.82498 0.0
H389 H 0.97456 0.9656 0.81103 0.0
H390 H 0.93592 0.96228 0.86742 0.0
H391 H 0.95208 -0.00396 0.88189 0.0
C392 C 0.0623 0.06721 0.84433 0.0
C393 C 0.07933 0.0559 0.85361 0.0
C394 C 0.04125 0.063 0.85004 0.0
C395 C 0.03671 0.04727 0.86501 0.0
C396 C 0.05356 0.03565 0.87412 0.0
C397 C 0.07478 0.04009 0.86863 0.0
C398 C 0.01413 0.04302 0.87046 0.0
C399 C 0.00456 0.02363 0.86324 0.0
C400 C 0.00132 0.05933 0.87957 0.0
C401 C 0.01091 0.07966 0.8885 0.0
C402 C 0.02769 0.07932 0.90402 0.0
C403 C 0.03688 0.09845 0.91221 0.0
C404 C 0.02939 0.11807 0.90508 0.0
C405 C 0.01266 0.11858 0.88977 0.0
C406 C 0.00342 0.09949 0.8815 0.0
C407 C 0.90957 0.04794 0.87432 0.0
C408 C 0.90339 0.04756 0.85233 0.0
C409 C 0.93084 0.04381 0.88044 0.0
C410 C 0.94604 0.0388 0.86469 0.0
C411 C 0.93949 0.03722 0.84287 0.0
C412 C 0.91843 0.04159 0.83675 0.0
C413 C 0.96924 0.03805 0.87023 0.0
C414 C 0.97899 0.05662 0.87938 0.0
C415 C 0.98219 0.02091 0.86302 0.0
C416 C 0.97261 0.0004 0.85451 0.0
C417 C 0.97892 -0.00849 0.83451 0.0
C418 C 0.96971 0.97231 0.82648 0.0
C419 C 0.95421 0.9618 0.83832 0.0
C420 C 0.9479 0.97046 0.85824 0.0
C421 C 0.95705 -0.01036 0.86635 0.0
H422 H 0.94709 0.94695 0.83207 0.0
H423 H 0.03653 0.13286 0.91144 0.0
H424 H 0.14548 0.30109 0.91266 0.0
H425 H 0.15323 0.26321 0.90803 0.0
H426 H 0.18337 0.27523 0.84744 0.0
H427 H 0.17541 0.31348 0.85184 0.0
H428 H 0.15471 0.24253 0.8439 0.0
H429 H 0.21337 0.26163 0.89168 0.0
H430 H 0.23086 0.27822 0.92422 0.0
H431 H 0.1939 0.23786 0.96458 0.0
H432 H 0.17595 0.22122 0.9323 0.0
H433 H 0.17993 0.13515 0.82845 0.0
H434 H 0.18656 0.17335 0.83528 0.0
H435 H 0.1584 0.16894 0.89811 0.0
H436 H 0.1526 0.1303 0.89163 0.0
H437 H 0.18996 0.19833 0.89937 0.0
H438 H 0.12833 0.18284 0.85325 0.0
H439 H 0.10905 0.16655 0.82156 0.0
H440 H 0.14973 0.20076 0.7791 0.0
H441 H 0.16943 0.21704 0.81056 0.0
C442 C 0.15393 0.2958 0.89839 0.0
C443 C 0.15976 0.31036 0.88256 0.0
C444 C 0.1585 0.2741 0.89587 0.0
C445 C 0.16913 0.2664 0.87754 0.0
C446 C 0.17526 0.28087 0.86179 0.0
C447 C 0.17072 0.30271 0.86433 0.0
C448 C 0.17228 0.24302 0.87422 0.0
C449 C 0.16287 0.23293 0.85579 0.0
C450 C 0.18231 0.23042 0.89009 0.0
C451 C 0.19321 0.24027 0.90955 0.0
C452 C 0.20886 0.25638 0.9075 0.0
C453 C 0.21888 0.26578 0.9259 0.0
C454 C 0.21347 0.25913 0.94645 0.0
C455 C 0.19807 0.24301 0.94865 0.0
C456 C 0.188 0.23356 0.9303 0.0
C457 C 0.17562 0.14225 0.84393 0.0
C458 C 0.16553 0.12991 0.85944 0.0
C459 C 0.17932 0.16409 0.84778 0.0
C460 C 0.17238 0.17414 0.86693 0.0
C461 C 0.16374 0.16154 0.88313 0.0
C462 C 0.16044 0.1395 0.87946 0.0
C463 C 0.17232 0.1979 0.8691 0.0
C464 C 0.18214 0.208 0.88734 0.0
C465 C 0.16245 0.21058 0.85317 0.0
C466 C 0.15049 0.20097 0.83424 0.0
C467 C 0.13324 0.18678 0.83715 0.0
C468 C 0.12223 0.17756 0.81924 0.0
C469 C 0.1282 0.18257 0.79833 0.0
C470 C 0.14515 0.19687 0.7953 0.0
C471 C 0.15623 0.2061 0.81317 0.0
H472 H 0.11966 0.17541 0.78448 0.0
H473 H 0.22124 0.26643 0.96068 0.0
H474 H 0.87244 0.90374 0.14216 0.0
H475 H 0.91055 0.91027 0.15046 0.0
H476 H 0.92002 0.92887 0.08467 0.0
H477 H 0.88236 0.92127 0.07615 0.0
H478 H 0.94871 0.90248 0.09417 0.0
H479 H 0.92256 0.96526 0.13093 0.0
H480 H 0.90022 0.98582 0.15635 0.0
H481 H 0.92691 0.95158 0.20949 0.0
H482 H 0.94921 0.9306 0.18435 0.0
H483 H 0.05844 0.92956 0.11239 0.0
H484 H 0.02013 0.9346 0.10496 0.0
H485 H 0.00549 0.90864 0.16681 0.0
H486 H 0.04348 0.9039 0.17449 0.0
H487 H 0.97997 0.94198 0.15822 0.0
H488 H 0.00316 0.87726 0.12067 0.0
H489 H 0.02551 0.8567 0.09522 0.0
H490 H 0.00399 0.89563 0.04321 0.0
H491 H 0.9817 0.91658 0.06843 0.0
C492 C 0.88266 0.90953 0.12963 0.0
C493 C 0.87456 0.91184 0.1085 0.0
C494 C 0.90442 0.91338 0.13437 0.0
C495 C 0.91826 0.9202 0.11821 0.0
C496 C 0.9098 0.92348 0.09738 0.0
C497 C 0.88826 0.91917 0.09254 0.0
C498 C 0.94179 0.92223 0.12233 0.0
C499 C 0.95548 0.91153 0.10796 0.0
C500 C 0.95077 0.93359 0.14056 0.0
C501 C 0.93744 0.94624 0.15572 0.0
C502 C 0.92356 0.96201 0.14802 0.0
C503 C 0.91092 0.97376 0.16238 0.0
C504 C 0.91211 0.96998 0.18451 0.0
C505 C 0.92599 0.95448 0.19234 0.0
C506 C 0.93865 0.94268 0.17804 0.0
C507 C 0.04708 0.92517 0.12448 0.0
C508 C 0.05404 0.91612 0.14391 0.0
C509 C 0.02519 0.928 0.12022 0.0
C510 C 0.00993 0.92174 0.13524 0.0
C511 C 0.01694 0.91358 0.15499 0.0
C512 C 0.03872 0.91078 0.15926 0.0
C513 C -0.01337 0.9223 0.13004 0.0
C514 C 0.97306 0.9333 0.14425 0.0
C515 C 0.97769 0.91131 0.11163 0.0
C516 C -0.00904 0.89862 0.09646 0.0
C517 C 0.00331 0.88151 0.10383 0.0
C518 C 0.01595 0.86978 0.08945 0.0
C519 C 0.01622 0.8749 0.06763 0.0
C520 C 0.0038 0.89171 0.06013 0.0
C521 C -0.00885 0.90351 0.07445 0.0
H522 H 0.02601 0.8658 0.05652 0.0
H523 H 0.90231 0.97909 0.1956 0.0
H524 H 0.3137 0.64317 0.38199 0.0
H525 H 0.30999 0.68128 0.39239 0.0
H526 H 0.3632 0.69688 0.35216 0.0
H527 H 0.3671 0.65937 0.34206 0.0
H528 H 0.36504 0.72041 0.38879 0.0
H529 H 0.31047 0.69884 0.33362 0.0
H530 H 0.27875 0.67788 0.32075 0.0
H531 H 0.24268 0.70316 0.37386 0.0
H532 H 0.2743 0.72409 0.38715 0.0
H533 H 0.3557 0.80852 0.32451 0.0
H534 H 0.3517 0.7725 0.33796 0.0
H535 H 0.31397 0.7968 0.39061 0.0
H536 H 0.31824 0.83336 0.37746 0.0
H537 H 0.29905 0.75523 0.36182 0.0
H538 H 0.3537 0.78489 0.40973 0.0
H539 H 0.38618 0.80638 0.41875 0.0
H540 H 0.42289 0.76591 0.37659 0.0
H541 H 0.39057 0.74438 0.36705 0.0
C542 C 0.3248 0.65475 0.37572 0.0
C543 C 0.34053 0.64831 0.361 0.0
C544 C 0.32263 0.67648 0.3816 0.0
C545 C 0.33622 0.69194 0.37291 0.0
C546 C 0.35256 0.68528 0.35914 0.0
C547 C 0.35466 0.66378 0.35323 0.0
C548 C 0.33288 0.71526 0.37631 0.0
C549 C 0.35048 0.72803 0.38324 0.0
C550 C 0.31372 0.72526 0.36955 0.0
C551 C 0.29477 0.71277 0.36152 0.0
C552 C 0.2958 0.6998 0.34261 0.0
C553 C 0.27785 0.68795 0.33524 0.0
C554 C 0.25873 0.68913 0.34653 0.0
C555 C 0.25751 0.70222 0.36517 0.0
C556 C 0.27543 0.71407 0.37263 0.0
C557 C 0.3464 0.8063 0.33887 0.0
C558 C 0.33732 0.82384 0.34993 0.0
C559 C 0.34418 0.7857 0.34655 0.0
C560 C 0.33264 0.78211 0.36529 0.0
C561 C 0.32296 0.79936 0.37612 0.0
C562 C 0.32546 0.82017 0.36861 0.0
C563 C 0.33152 0.76014 0.37338 0.0
C564 C 0.31319 0.74766 0.36844 0.0
C565 C 0.35008 0.75036 0.38174 0.0
C566 C 0.36967 0.76308 0.38762 0.0
C567 C 0.36867 0.78066 0.40227 0.0
C568 C 0.38706 0.79284 0.40749 0.0
C569 C 0.40658 0.78753 0.39823 0.0
C570 C 0.40776 0.77 0.38376 0.0
C571 C 0.38941 0.75778 0.37847 0.0
H572 H 0.4208 0.79698 0.40229 0.0
H573 H 0.24485 0.67994 0.34079 0.0
H574 H 0.56955 0.06017 0.60649 0.0
H575 H 0.53109 0.05378 0.59968 0.0
H576 H 0.51734 0.11446 0.63134 0.0
H577 H 0.55529 0.12034 0.63897 0.0
H578 H 0.49061 0.08721 0.64421 0.0
H579 H 0.51687 0.10537 0.574 0.0
H580 H 0.53962 0.10103 0.54208 0.0
H581 H 0.51422 0.03757 0.5301 0.0
H582 H 0.4915 0.04146 0.56211 0.0
H583 H 0.3943 0.10443 0.56624 0.0
H584 H 0.43263 0.10147 0.57328 0.0
H585 H 0.42043 0.05768 0.62434 0.0
H586 H 0.38181 0.0613 0.61791 0.0
H587 H 0.46013 0.07136 0.57076 0.0
H588 H 0.45921 0.06313 0.66328 0.0
H589 H 0.4367 0.07292 0.69429 0.0
H590 H 0.41168 0.12616 0.65988 0.0
H591 H 0.43422 0.11683 0.62879 0.0
C592 C 0.55825 0.0721 0.61191 0.0
C593 C 0.56539 0.09071 0.62331 0.0
C594 C 0.5363 0.06848 0.60799 0.0
C595 C 0.52125 0.08368 0.61492 0.0
C596 C 0.52853 0.10236 0.62602 0.0
C597 C 0.55029 0.10576 0.6303 0.0
C598 C 0.49788 0.08053 0.61078 0.0
C599 C 0.48399 0.0836 0.62814 0.0
C600 C 0.48912 0.07593 0.58984 0.0
C601 C 0.50269 0.07361 0.57057 0.0
C602 C 0.51625 0.09044 0.56463 0.0
C603 C 0.52912 0.08807 0.54652 0.0
C604 C 0.52842 0.06901 0.53411 0.0
C605 C 0.51479 0.0523 0.53975 0.0
C606 C 0.50191 0.05458 0.55787 0.0
C607 C 0.39974 0.09417 0.579 0.0
C608 C 0.38502 0.08324 0.59166 0.0
C609 C 0.4217 0.09239 0.58292 0.0
C610 C 0.42949 0.07947 0.59944 0.0
C611 C 0.41483 0.06805 0.61175 0.0
C612 C 0.39277 0.07012 0.60807 0.0
C613 C 0.45292 0.07876 0.60406 0.0
C614 C 0.46679 0.07471 0.58686 0.0
C615 C 0.4617 0.08326 0.625 0.0
C616 C 0.44818 0.0891 0.64364 0.0
C617 C 0.44892 0.07694 0.66237 0.0
C618 C 0.43616 0.08241 0.67995 0.0
C619 C 0.4227 0.1001 0.67902 0.0
C620 C 0.42204 0.11241 0.66054 0.0
C621 C 0.43479 0.10703 0.64294 0.0
H622 H 0.41283 0.1043 0.69264 0.0
H623 H 0.5384 0.0672 0.5201 0.0
H624 H 0.80222 0.12745 0.86794 0.0
H625 H 0.79237 0.165 0.87425 0.0
H626 H 0.849 0.18512 0.84119 0.0
H627 H 0.85818 0.14789 0.83397 0.0
H628 H 0.80806 0.19658 0.89532 0.0
H629 H 0.84407 0.22969 0.81578 0.0
H630 H 0.8469 0.2181 0.77752 0.0
H631 H 0.79327 0.17537 0.78374 0.0
H632 H 0.78989 0.18693 0.82194 0.0
H633 H 0.84868 0.29842 0.91097 0.0
H634 H 0.83912 0.2614 0.90292 0.0
H635 H 0.79549 0.28081 0.85233 0.0
H636 H 0.80585 0.31839 0.85978 0.0
H637 H 0.81638 0.24942 0.83775 0.0
H638 H 0.77723 0.25803 0.90072 0.0
H639 H 0.76861 0.26945 0.93798 0.0
H640 H 0.8176 0.22868 0.96288 0.0
H641 H 0.82676 0.21723 0.92577 0.0
C642 C 0.81249 0.13995 0.86202 0.0
C643 C 0.83087 0.13476 0.85031 0.0
C644 C 0.80685 0.16139 0.86559 0.0
C645 C 0.81961 0.17798 0.85771 0.0
C646 C 0.8384 0.1727 0.84674 0.0
C647 C 0.84378 0.15137 0.8428 0.0
C648 C 0.81405 0.20088 0.86156 0.0
C649 C 0.80966 0.20811 0.88269 0.0
C650 C 0.81502 0.21593 0.84491 0.0
C651 C 0.8168 0.20913 0.8218 0.0
C652 C 0.83278 0.21794 0.80896 0.0
C653 C 0.8345 0.21134 0.78728 0.0
C654 C 0.82029 0.19598 0.77821 0.0
C655 C 0.8043 0.18722 0.79079 0.0
C656 C 0.80249 0.19378 0.81247 0.0
C657 C 0.83683 0.29498 0.89828 0.0
C658 C 0.82802 0.31145 0.88602 0.0
C659 C 0.83119 0.27368 0.89381 0.0
C660 C 0.81619 0.26819 0.87732 0.0
C661 C 0.80701 0.28461 0.86524 0.0
C662 C 0.81291 0.30608 0.86952 0.0
C663 C 0.81185 0.24518 0.87178 0.0
C664 C 0.81429 0.23789 0.85031 0.0
C665 C 0.80813 0.23006 0.88795 0.0
C666 C 0.80272 0.2368 0.9104 0.0
C667 C 0.78626 0.25158 0.91413 0.0
C668 C 0.78127 0.25805 0.93523 0.0
C669 C 0.79256 0.2498 0.95278 0.0
C670 C 0.80885 0.23504 0.94926 0.0
C671 C 0.81392 0.22851 0.92819 0.0
H672 H 0.78867 0.25484 0.96911 0.0
H673 H 0.82167 0.19088 0.76143 0.0
H674 H 0.65761 0.62665 0.39562 0.0
H675 H 0.66431 0.66457 0.4051 0.0
H676 H 0.65971 0.67984 0.33768 0.0
H677 H 0.65299 0.64219 0.32808 0.0
H678 H 0.69352 0.70124 0.35922 0.0
H679 H 0.61799 0.68815 0.3681 0.0
H680 H 0.58659 0.66968 0.38264 0.0
H681 H 0.60749 0.6874 0.44735 0.0
H682 H 0.6392 0.70573 0.43318 0.0
H683 H 0.6699 0.81305 0.36445 0.0
H684 H 0.67253 0.7744 0.3575 0.0
H685 H 0.66916 0.76389 0.42596 0.0
H686 H 0.66596 0.80231 0.43292 0.0
H687 H 0.64137 0.73933 0.40544 0.0
H688 H 0.7157 0.75495 0.3966 0.0
H689 H 0.74712 0.77338 0.38205 0.0
H690 H 0.72912 0.75115 0.31781 0.0
H691 H 0.69742 0.73281 0.33194 0.0
C692 C 0.65815 0.63807 0.38282 0.0
C693 C 0.65459 0.6314 0.36112 0.0
C694 C 0.66196 0.65972 0.38826 0.0
C695 C 0.6624 0.67503 0.37208 0.0
C696 C 0.65948 0.66831 0.3504 0.0
C697 C 0.65549 0.64677 0.34498 0.0
C698 C 0.66488 0.69819 0.37769 0.0
C699 C 0.68208 0.70965 0.36922 0.0
C700 C 0.65017 0.70903 0.39105 0.0
C701 C 0.63109 0.69808 0.39959 0.0
C702 C 0.61599 0.68794 0.38544 0.0
C703 C 0.59812 0.67753 0.39361 0.0
C704 C 0.59508 0.67731 0.41591 0.0
C705 C 0.60989 0.68755 0.43008 0.0
C706 C 0.6278 0.69796 0.42199 0.0
C707 C 0.67017 0.80253 0.37804 0.0
C708 C 0.66758 0.81075 0.39921 0.0
C709 C 0.67171 0.78041 0.37406 0.0
C710 C 0.67106 0.76616 0.39122 0.0
C711 C 0.66956 0.77449 0.41244 0.0
C712 C 0.66779 0.79651 0.41639 0.0
C713 C 0.67011 0.74258 0.38704 0.0
C714 C 0.65306 0.73099 0.39568 0.0
C715 C 0.68501 0.73167 0.37387 0.0
C716 C 0.70407 0.74267 0.36532 0.0
C717 C 0.71834 0.75413 0.37935 0.0
C718 C 0.73622 0.76454 0.37118 0.0
C719 C 0.74008 0.76348 0.34901 0.0
C720 C 0.7261 0.75197 0.33498 0.0
C721 C 0.70818 0.74155 0.34306 0.0
H722 H 0.75394 0.77155 0.34272 0.0
H723 H 0.58123 0.66925 0.42221 0.0
H724 H 0.78793 0.64829 0.13248 0.0
H725 H 0.77568 0.68509 0.14039 0.0
H726 H 0.83001 0.71012 0.10705 0.0
H727 H 0.84197 0.67399 0.0989 0.0
H728 H 0.82222 0.73208 0.14653 0.0
H729 H 0.78441 0.7044 0.08038 0.0
H730 H 0.75943 0.67928 0.06104 0.0
H731 H 0.70953 0.69695 0.1046 0.0
H732 H 0.73435 0.72201 0.12434 0.0
H733 H 0.80421 0.81577 0.0725 0.0
H734 H 0.79831 0.77941 0.08436 0.0
H735 H 0.77674 0.80393 0.14592 0.0
H736 H 0.78292 0.84065 0.13431 0.0
H737 H 0.75947 0.75747 0.10441 0.0
H738 H 0.80067 0.7845 0.17289 0.0
H739 H 0.82727 0.81031 0.18875 0.0
H740 H 0.87095 0.79406 0.13828 0.0
H741 H 0.84445 0.76834 0.12206 0.0
C742 C 0.79727 0.66171 0.12706 0.0
C743 C 0.81577 0.65828 0.1149 0.0
C744 C 0.7903 0.68265 0.13158 0.0
C745 C 0.80202 0.70029 0.12435 0.0
C746 C 0.82082 0.69676 0.1129 0.0
C747 C 0.82752 0.67606 0.1081 0.0
C748 C 0.7945 0.72258 0.12707 0.0
C749 C 0.80808 0.73756 0.13793 0.0
C750 C 0.7761 0.72981 0.11586 0.0
C751 C 0.76127 0.71481 0.10398 0.0
C752 C 0.76816 0.70278 0.08592 0.0
C753 C 0.75403 0.68859 0.07487 0.0
C754 C 0.73293 0.68646 0.08163 0.0
C755 C 0.7259 0.69857 0.09942 0.0
C756 C 0.73998 0.71276 0.11054 0.0
C757 C 0.79794 0.81354 0.08848 0.0
C758 C 0.79429 0.83115 0.10255 0.0
C759 C 0.79445 0.79272 0.09517 0.0
C760 C 0.78724 0.78902 0.11604 0.0
C761 C 0.78247 0.80649 0.1298 0.0
C762 C 0.78598 0.82744 0.12311 0.0
C763 C 0.78729 0.76683 0.1237 0.0
C764 C 0.77267 0.75189 0.11434 0.0
C765 C 0.80461 0.75958 0.13643 0.0
C766 C 0.82063 0.77467 0.14628 0.0
C767 C 0.81595 0.78651 0.1652 0.0
C768 C 0.83098 0.80111 0.17423 0.0
C769 C 0.85079 0.80384 0.16452 0.0
C770 C 0.85561 0.79194 0.14578 0.0
C771 C 0.8406 0.77737 0.13667 0.0
H772 H 0.8624 0.81514 0.17152 0.0
H773 H 0.72201 0.67547 0.07305 0.0
H774 H 0.65493 0.31939 0.65688 0.0
H775 H 0.6638 0.28397 0.64269 0.0
H776 H 0.65007 0.30392 0.57778 0.0
H777 H 0.64134 0.33999 0.59202 0.0
H778 H 0.62909 0.26502 0.5895 0.0
H779 H 0.69949 0.29271 0.58759 0.0
H780 H 0.73139 0.31333 0.60038 0.0
H781 H 0.73808 0.27276 0.65483 0.0
H782 H 0.70603 0.25209 0.64259 0.0
H783 H 0.64727 0.15212 0.58311 0.0
H784 H 0.65416 0.18911 0.57236 0.0
H785 H 0.67073 0.20692 0.63858 0.0
H786 H 0.664 0.17039 0.64926 0.0
H787 H 0.69586 0.22798 0.61065 0.0
H788 H 0.61921 0.21094 0.61886 0.0
H789 H 0.58606 0.19104 0.60845 0.0
H790 H 0.59098 0.21223 0.54333 0.0
H791 H 0.62431 0.23206 0.55337 0.0
C792 C 0.65395 0.31639 0.63955 0.0
C793 C 0.64732 0.33246 0.62557 0.0
C794 C 0.6592 0.29615 0.63145 0.0
C795 C 0.65781 0.29138 0.60917 0.0
C796 C 0.6514 0.30738 0.59502 0.0
C797 C 0.64645 0.32792 0.60315 0.0
C798 C 0.66153 0.26905 0.60151 0.0
C799 C 0.64394 0.25698 0.59335 0.0
C800 C 0.68086 0.25858 0.60669 0.0
C801 C 0.7003 0.27083 0.61413 0.0
C802 C 0.70768 0.28824 0.60236 0.0
C803 C 0.72581 0.29994 0.60951 0.0
C804 C 0.73675 0.29435 0.6284 0.0
C805 C 0.7296 0.27704 0.64017 0.0
C806 C 0.71148 0.2653 0.6331 0.0
C807 C 0.65293 0.16385 0.5952 0.0
C808 C 0.65486 0.15847 0.61707 0.0
C809 C 0.65678 0.18496 0.58907 0.0
C810 C 0.66274 0.20083 0.60472 0.0
C811 C 0.66618 0.19499 0.62621 0.0
C812 C 0.66219 0.17409 0.63234 0.0
C813 C 0.66306 0.22394 0.59984 0.0
C814 C 0.68137 0.23612 0.60574 0.0
C815 C 0.64437 0.23452 0.59273 0.0
C816 C 0.62434 0.22271 0.58677 0.0
C817 C 0.61327 0.21122 0.6023 0.0
C818 C 0.59446 0.19998 0.59647 0.0
C819 C 0.58646 0.20031 0.57522 0.0
C820 C 0.59723 0.21194 0.55977 0.0
C821 C 0.61608 0.22318 0.56551 0.0
H822 H 0.57189 0.1916 0.57074 0.0
H823 H 0.75078 0.30343 0.63392 0.0
H824 H 0.09027 0.38219 0.83053 0.0
H825 H 0.053 0.38734 0.81818 0.0
H826 H 0.03701 0.41053 0.88215 0.0
H827 H 0.07377 0.40528 0.89446 0.0
H828 H 0.01936 0.36568 0.8343 0.0
H829 H -0.00229 0.44549 0.88081 0.0
H830 H 0.01364 0.48137 0.88754 0.0
H831 H 0.05159 0.47364 0.83085 0.0
H832 H 0.03567 0.43783 0.82356 0.0
H833 H 0.92738 0.36445 0.89272 0.0
H834 H 0.9628 0.36986 0.87823 0.0
H835 H 0.93644 0.41086 0.82982 0.0
H836 H 0.90038 0.40529 0.84424 0.0
H837 H 0.97368 0.42785 0.85267 0.0
H838 H 0.95354 0.36625 0.81115 0.0
H839 H 0.93743 0.33055 0.80368 0.0
H840 H 0.98296 0.30276 0.84725 0.0
H841 H -0.00085 0.33833 0.85526 0.0
C842 C 0.07886 0.38889 0.84174 0.0
C843 C 0.08484 0.39318 0.86349 0.0
C844 C 0.05761 0.39178 0.8347 0.0
C845 C 0.04225 0.3995 0.84919 0.0
C846 C 0.0486 0.40491 0.87055 0.0
C847 C 0.06962 0.40172 0.87764 0.0
C848 C 0.01905 0.39921 0.84339 0.0
C849 C 0.00937 0.37938 0.83785 0.0
C850 C 0.00601 0.41723 0.84744 0.0
C851 C 0.01549 0.4389 0.85166 0.0
C852 C 0.00932 0.45148 0.86966 0.0
C853 C 0.01839 0.47181 0.87361 0.0
C854 C 0.03363 0.47977 0.85964 0.0
C855 C 0.03982 0.46743 0.84168 0.0
C856 C 0.0308 0.4471 0.83766 0.0
C857 C 0.92897 0.3746 0.87895 0.0
C858 C 0.91103 0.38449 0.86967 0.0
C859 C 0.94926 0.37755 0.87059 0.0
C860 C 0.95221 0.39056 0.85281 0.0
C861 C 0.93443 0.40063 0.84347 0.0
C862 C 0.9139 0.39742 0.8517 0.0
C863 C 0.97425 0.39405 0.84511 0.0
C864 C 0.98368 0.41439 0.84826 0.0
C865 C -0.01292 0.37656 0.83866 0.0
C866 C 0.97756 0.35502 0.83381 0.0
C867 C 0.96006 0.35255 0.81923 0.0
C868 C 0.95091 0.33233 0.81489 0.0
C869 C 0.95917 0.3144 0.82498 0.0
C870 C 0.9766 0.31666 0.83941 0.0
C871 C -0.0142 0.33685 0.84382 0.0
H872 H 0.95206 0.29875 0.8216 0.0
H873 H 0.04064 0.49551 0.86273 0.0
H874 H 0.57283 0.53769 0.31706 0.0
H875 H 0.53444 0.53263 0.32152 0.0
H876 H 0.54177 0.54748 0.38981 0.0
H877 H 0.58062 0.55196 0.38552 0.0
H878 H 0.50781 0.51721 0.37975 0.0
H879 H 0.53065 0.58696 0.35968 0.0
H880 H 0.55077 0.61307 0.33871 0.0
H881 H 0.51773 0.5911 0.28052 0.0
H882 H 0.49766 0.5646 0.3011 0.0
H883 H 0.39852 0.56002 0.37989 0.0
H884 H 0.43634 0.55116 0.38636 0.0
H885 H 0.44349 0.53817 0.31803 0.0
H886 H 0.40616 0.54738 0.3115 0.0
H887 H 0.47047 0.5692 0.33348 0.0
H888 H 0.44742 0.49872 0.35517 0.0
H889 H 0.42677 0.47434 0.37764 0.0
H890 H 0.45905 0.50002 0.43479 0.0
H891 H 0.4797 0.52477 0.41268 0.0
C892 C 0.56637 0.53934 0.33314 0.0
C893 C 0.57962 0.54554 0.35089 0.0
C894 C 0.54444 0.5364 0.33567 0.0
C895 C 0.53521 0.54012 0.35591 0.0
C896 C 0.54859 0.54458 0.37405 0.0
C897 C 0.57074 0.54718 0.37157 0.0
C898 C 0.51163 0.54242 0.35709 0.0
C899 C 0.4996 0.52871 0.36985 0.0
C900 C 0.50094 0.55757 0.34433 0.0
C901 C 0.51277 0.57369 0.33192 0.0
C902 C 0.52778 0.5876 0.34239 0.0
C903 C 0.53917 0.60248 0.33058 0.0
C904 C 0.53556 0.60371 0.30829 0.0
C905 C 0.52052 0.59011 0.29778 0.0
C906 C 0.50912 0.57517 0.30952 0.0
C907 C 0.40804 0.55461 0.36639 0.0
C908 C 0.39954 0.55463 0.34516 0.0
C909 C 0.42963 0.54958 0.3701 0.0
C910 C 0.44278 0.54422 0.35263 0.0
C911 C 0.4337 0.54246 0.33171 0.0
C912 C 0.41235 0.54769 0.328 0.0
C913 C 0.46642 0.5433 0.35528 0.0
C914 C 0.47857 0.55762 0.34341 0.0
C915 C 0.47701 0.52895 0.36908 0.0
C916 C 0.46495 0.51374 0.38229 0.0
C917 C 0.45002 0.49926 0.37254 0.0
C918 C 0.43833 0.48536 0.38521 0.0
C919 C 0.44154 0.48568 0.40763 0.0
C920 C 0.45655 0.49981 0.41742 0.0
C921 C 0.46827 0.51376 0.40483 0.0
H922 H 0.43243 0.47494 0.41742 0.0
H923 H 0.54439 0.61524 0.29917 0.0
H924 H 0.56804 0.41487 0.61462 0.0
H925 H 0.52948 0.41979 0.60939 0.0
H926 H 0.51993 0.40839 0.67698 0.0
H927 H 0.55825 0.40275 0.68208 0.0
H928 H 0.49337 0.38504 0.65461 0.0
H929 H 0.51248 0.4589 0.65413 0.0
H930 H 0.5323 0.49108 0.64346 0.0
H931 H 0.50938 0.48149 0.57794 0.0
H932 H 0.48965 0.44906 0.58815 0.0
H933 H 0.3808 0.40362 0.64204 0.0
H934 H 0.41795 0.41058 0.65453 0.0
H935 H 0.43834 0.41006 0.58837 0.0
H936 H 0.40164 0.40295 0.57586 0.0
H937 H 0.45805 0.44281 0.61432 0.0
H938 H 0.44324 0.36626 0.61514 0.0
H939 H 0.4233 0.33435 0.62637 0.0
H940 H 0.43821 0.35045 0.69299 0.0
H941 H 0.45801 0.38265 0.68214 0.0
C942 C 0.55775 0.41379 0.62842 0.0
C943 C 0.56617 0.40828 0.64872 0.0
C944 C 0.53569 0.41669 0.62545 0.0
C945 C 0.52171 0.41457 0.64283 0.0
C946 C 0.5303 0.41 0.66329 0.0
C947 C 0.55225 0.40682 0.66619 0.0
C948 C 0.49806 0.41528 0.63934 0.0
C949 C 0.48566 0.39797 0.64623 0.0
C950 C 0.48789 0.43192 0.62812 0.0
C951 C 0.49971 0.45144 0.62189 0.0
C952 C 0.51179 0.46355 0.63741 0.0
C953 C 0.52299 0.48186 0.63145 0.0
C954 C 0.52214 0.4883 0.61003 0.0
C955 C 0.51004 0.47647 0.59453 0.0
C956 C 0.49882 0.45814 0.6004 0.0
C957 C 0.39319 0.40524 0.6302 0.0
C958 C 0.38834 0.40249 0.60799 0.0
C959 C 0.41437 0.4092 0.63734 0.0
C960 C 0.43088 0.41075 0.62234 0.0
C961 C 0.42586 0.40898 0.60019 0.0
C962 C 0.40487 0.40474 0.59309 0.0
C963 C 0.45367 0.41257 0.62945 0.0
C964 C 0.46586 0.43022 0.62312 0.0
C965 C 0.46367 0.39636 0.64134 0.0
C966 C 0.45186 0.37698 0.64785 0.0
C967 C 0.4421 0.36309 0.63219 0.0
C968 C 0.43086 0.34494 0.63848 0.0
C969 C 0.42942 0.34041 0.66039 0.0
C970 C 0.43929 0.354 0.67604 0.0
C971 C 0.45053 0.3722 0.66982 0.0
H972 H 0.42072 0.32635 0.66523 0.0
H973 H 0.53082 0.50248 0.60544 0.0
H974 H 0.0552 0.61512 0.09158 0.0
H975 H 0.02083 0.60824 0.10796 0.0
H976 H 0.04884 0.55824 0.14546 0.0
H977 H 0.08389 0.56543 0.12932 0.0
H978 H 0.00757 0.54833 0.11935 0.0
H979 H 0.03525 0.5941 0.17529 0.0
H980 H 0.05522 0.62491 0.19172 0.0
H981 H 0.01196 0.66812 0.16108 0.0
H982 H -0.00807 0.6376 0.14416 0.0
H983 H 0.89316 0.55965 0.14083 0.0
H984 H 0.93094 0.55425 0.15171 0.0
H985 H 0.94944 0.60866 0.11483 0.0
H986 H 0.91237 0.61381 0.10371 0.0
H987 H 0.96932 0.60732 0.15698 0.0
H988 H 0.95259 0.56131 0.09188 0.0
H989 H 0.93316 0.53113 0.07348 0.0
H990 H 0.95622 0.48861 0.12178 0.0
H991 H 0.97558 0.51864 0.14058 0.0
C992 C 0.05417 0.6027 0.10337 0.0
C993 C 0.07222 0.59076 0.10911 0.0
C994 C 0.03453 0.59887 0.1128 0.0
C995 C 0.03238 0.58284 0.12798 0.0
C996 C 0.05029 0.57075 0.13383 0.0
C997 C 0.07022 0.5749 0.12465 0.0
C998 C 0.01089 0.57867 0.1366 0.0
C999 C -0.0007 0.56078 0.12836 0.0
C1000 C 0.00017 0.59496 0.14829 0.0
C1001 C 0.01207 0.6135 0.15844 0.0
C1002 C 0.03006 0.61017 0.17194 0.0
C1003 C 0.04139 0.62759 0.18136 0.0
C1004 C 0.03486 0.64846 0.17745 0.0
C1005 C 0.01698 0.65195 0.16412 0.0
C1006 C 0.0056 0.63458 0.15465 0.0
C1007 C 0.90535 0.57051 0.13527 0.0
C1008 C 0.8999 0.58703 0.12129 0.0
C1009 C 0.92683 0.56742 0.14149 0.0
C1010 C 0.9429 0.58114 0.13413 0.0
C1011 C 0.93727 0.59801 0.12081 0.0
C1012 C 0.91607 0.60082 0.11433 0.0
C1013 C 0.96594 0.57763 0.13863 0.0
C1014 C 0.97776 0.59422 0.14916 0.0
C1015 C 0.97685 0.56017 0.12907 0.0
C1016 C 0.96525 0.54221 0.11777 0.0
C1017 C 0.95335 0.54555 0.09866 0.0
C1018 C 0.94239 0.52848 0.08814 0.0
C1019 C 0.94339 0.50798 0.0965 0.0
C1020 C 0.9554 0.5045 0.11536 0.0
C1021 C 0.96637 0.52154 0.12595 0.0
H1022 H 0.9349 0.49478 0.08833 0.0
H1023 H 0.04365 0.66193 0.18476 0.0
H1024 H 0.13473 0.56129 0.01363 0.0
H1025 H 0.14857 0.53174 -0.0083 0.0
H1026 H 0.1958 0.5192 0.04134 0.0
H1027 H 0.18175 0.54874 0.06388 0.0
H1028 H 0.20417 0.52047 0.98553 0.0
H1029 H 0.17197 0.48523 0.04776 0.0
H1030 H 0.14333 0.48209 0.07437 0.0
H1031 H 0.09634 0.47576 0.02284 0.0
H1032 H 0.12473 0.4792 -0.00406 0.0
H1033 H 0.18255 0.39785 0.95348 0.0
H1034 H 0.19104 0.42722 0.9792 0.0
H1035 H 0.18141 0.47254 0.92874 0.0
H1036 H 0.17355 0.44299 0.90273 0.0
H1037 H 0.16107 0.45367 0.98978 0.0
H1038 H 0.20387 0.52101 0.94369 0.0
H1039 H 0.23198 0.52467 0.91662 0.0
H1040 H 0.25955 0.46539 0.93595 0.0
H1041 H 0.23181 0.46152 0.96335 0.0
C1042 C 0.14822 0.55246 0.01991 0.0
C1043 C 0.15704 0.55731 0.04062 0.0
C1044 C 0.15615 0.53563 0.00726 0.0
C1045 C 0.1732 0.52343 0.01491 0.0
C1046 C 0.18267 0.52859 0.03519 0.0
C1047 C 0.17455 0.54536 0.04805 0.0
C1048 C 0.17936 0.5041 0.00232 0.0
C1049 C 0.19507 0.50567 0.98656 0.0
C1050 C 0.16745 0.48494 0.00381 0.0
C1051 C 0.15041 0.48269 0.0199 0.0
C1052 C 0.15551 0.48337 0.04214 0.0
C1053 C 0.13933 0.4815 0.05726 0.0
C1054 C 0.11802 0.47879 0.0503 0.0
C1055 C 0.11285 0.47789 0.0282 0.0
C1056 C 0.12897 0.47979 0.01302 0.0
C1057 C 0.18301 0.41404 0.94771 0.0
C1058 C 0.17722 0.4182 0.92619 0.0
C1059 C 0.18781 0.43082 0.96243 0.0
C1060 C 0.18668 0.45212 0.95601 0.0
C1061 C 0.18265 0.45624 0.93407 0.0
C1062 C 0.17813 0.43935 0.91919 0.0
C1063 C 0.18612 0.46968 0.97273 0.0
C1064 C 0.17093 0.46802 0.98904 0.0
C1065 C 0.19872 0.48859 0.97176 0.0
C1066 C 0.21564 0.49091 0.95549 0.0
C1067 C 0.21599 0.50881 0.94225 0.0
C1068 C 0.23185 0.51091 0.92683 0.0
C1069 C 0.24751 0.49525 0.92453 0.0
C1070 C 0.24737 0.47748 0.93769 0.0
C1071 C 0.23156 0.4753 0.95315 0.0
H1072 H 0.25976 0.4969 0.91257 0.0
H1073 H 0.10552 0.47733 0.06203 0.0
H1074 H 0.71782 0.93056 0.34528 0.0
H1075 H 0.735 0.93491 0.31059 0.0
H1076 H 0.69586 0.88366 0.28239 0.0
H1077 H 0.67876 0.87897 0.3172 0.0
H1078 H 0.73633 0.87911 0.27079 0.0
H1079 H 0.68612 0.9361 0.27104 0.0
H1080 H 0.6676 0.96801 0.28528 0.0
H1081 H 0.72681 0.0036 0.28675 0.0
H1082 H 0.74576 0.97178 0.27279 0.0
H1083 H 0.75941 0.89816 0.16146 0.0
H1084 H 0.73995 0.8965 0.19518 0.0
H1085 H 0.78499 0.94116 0.2258 0.0
H1086 H 0.80477 0.94283 0.19204 0.0
H1087 H 0.7412 0.94929 0.23565 0.0
H1088 H 0.79108 0.89106 0.2354 0.0
H1089 H 0.80838 0.85913 0.21957 0.0
H1090 H 0.74793 0.82571 0.21678 0.0
H1091 H 0.7302 0.85758 0.2323 0.0
C1092 C 0.71277 0.92024 0.3317 0.0
C1093 C 0.69686 0.90442 0.33406 0.0
C1094 C 0.72256 0.92283 0.31181 0.0
C1095 C 0.71659 0.90977 0.29376 0.0
C1096 C 0.70073 0.89395 0.29606 0.0
C1097 C 0.69092 0.89134 0.31597 0.0
C1098 C 0.7273 0.91229 0.27268 0.0
C1099 C 0.7371 0.8944 0.26299 0.0
C1100 C 0.72871 0.93233 0.26261 0.0
C1101 C 0.7174 0.95148 0.27109 0.0
C1102 C 0.69523 0.95067 0.27458 0.0
C1103 C 0.68465 0.96876 0.28257 0.0
C1104 C 0.69603 -0.01219 0.28697 0.0
C1105 C 0.71802 -0.01118 0.28336 0.0
C1106 C 0.72869 0.97077 0.2754 0.0
C1107 C 0.76512 0.90782 0.17527 0.0
C1108 C 0.78375 0.92056 0.17405 0.0
C1109 C 0.75399 0.90678 0.19457 0.0
C1110 C 0.76114 0.91854 0.21305 0.0
C1111 C 0.77923 0.93192 0.21172 0.0
C1112 C 0.79054 0.93282 0.19243 0.0
C1113 C 0.75017 0.91615 0.23392 0.0
C1114 C 0.74037 0.93404 0.24353 0.0
C1115 C 0.74859 0.89609 0.24383 0.0
C1116 C 0.75927 0.87679 0.23482 0.0
C1117 C 0.78144 0.87696 0.23127 0.0
C1118 C 0.79133 0.85886 0.22237 0.0
C1119 C 0.77925 0.84042 0.21711 0.0
C1120 C 0.75727 0.84002 0.22083 0.0
C1121 C 0.74729 0.85809 0.2297 0.0
H1122 H 0.78694 0.82644 0.2102 0.0
H1123 H 0.6878 0.00179 0.29314 0.0
H1124 H 0.30069 0.45602 0.56924 0.0
H1125 H 0.29663 0.48542 0.54394 0.0
H1126 H 0.29821 0.44001 0.49015 0.0
H1127 H 0.30211 0.41083 0.51504 0.0
H1128 H 0.32992 0.47157 0.48928 0.0
H1129 H 0.25377 0.46537 0.49973 0.0
H1130 H 0.22089 0.46528 0.52107 0.0
H1131 H 0.23409 0.52994 0.54323 0.0
H1132 H 0.26725 0.53031 0.52224 0.0
H1133 H 0.31091 0.52737 0.39536 0.0
H1134 H 0.30479 0.50348 0.42512 0.0
H1135 H 0.30435 0.55756 0.47002 0.0
H1136 H 0.31055 0.58175 0.44024 0.0
H1137 H 0.2729 0.52516 0.47864 0.0
H1138 H 0.34802 0.53216 0.46762 0.0
H1139 H 0.38111 0.53274 0.44662 0.0
H1140 H 0.3706 0.46699 0.42675 0.0
H1141 H 0.33722 0.46612 0.44736 0.0
C1142 C 0.2995 0.45229 0.55205 0.0
C1143 C 0.302 0.43113 0.54414 0.0
C1144 C 0.29726 0.4691 0.53762 0.0
C1145 C 0.2974 0.46489 0.51516 0.0
C1146 C 0.29829 0.44363 0.5074 0.0
C1147 C 0.30048 0.42696 0.52169 0.0
C1148 C 0.29903 0.48241 0.49957 0.0
C1149 C 0.31734 0.48316 0.48685 0.0
C1150 C 0.283 0.498 0.49696 0.0
C1151 C 0.26314 0.49777 0.50965 0.0
C1152 C 0.2498 0.47949 0.50934 0.0
C1153 C 0.23107 0.47941 0.52133 0.0
C1154 C 0.22545 0.49757 0.53356 0.0
C1155 C 0.2385 0.51587 0.53378 0.0
C1156 C 0.25725 0.51603 0.52184 0.0
C1157 C 0.30925 0.53429 0.41149 0.0
C1158 C 0.31146 0.55649 0.41542 0.0
C1159 C 0.30576 0.52058 0.4285 0.0
C1160 C 0.30435 0.52873 0.4498 0.0
C1161 C 0.30541 0.55095 0.4537 0.0
C1162 C 0.30904 0.56473 0.43666 0.0
C1163 C 0.30347 0.51379 0.46797 0.0
C1164 C 0.28548 0.51363 0.48123 0.0
C1165 C 0.31988 0.49873 0.47126 0.0
C1166 C 0.33999 0.49914 0.45888 0.0
C1167 C 0.35265 0.51788 0.45862 0.0
C1168 C 0.37148 0.51825 0.44681 0.0
C1169 C 0.37793 0.49993 0.43532 0.0
C1170 C 0.36557 0.48118 0.43565 0.0
C1171 C 0.3467 0.48073 0.4474 0.0
H1172 H 0.39253 0.50024 0.4262 0.0
H1173 H 0.21094 0.49748 0.54282 0.0
H1174 H 0.69031 0.06081 0.6548 0.0
H1175 H 0.71567 0.04524 0.68038 0.0
H1176 H 0.66769 0.04713 0.72959 0.0
H1177 H 0.64269 0.06357 0.70437 0.0
H1178 H 0.70129 0.066 0.74435 0.0
H1179 H 0.6892 -0.00135 0.70787 0.0
H1180 H 0.68564 0.97315 0.67678 0.0
H1181 H 0.75116 0.9849 0.66071 0.0
H1182 H 0.75505 0.0107 0.69152 0.0
H1183 H 0.77793 0.03594 0.82086 0.0
H1184 H 0.7467 0.02837 0.79719 0.0
H1185 H 0.78539 0.03743 0.74122 0.0
H1186 H 0.81663 0.0447 0.76462 0.0
H1187 H 0.75311 0.00732 0.73301 0.0
H1188 H 0.76175 0.07963 0.76396 0.0
H1189 H 0.76582 0.10593 0.79436 0.0
H1190 H 0.70614 0.08466 0.81994 0.0
H1191 H 0.70189 0.05802 0.78982 0.0
C1192 C 0.68505 0.05742 0.67092 0.0
C1193 C 0.66465 0.06362 0.6777 0.0
C1194 C 0.69951 0.04838 0.68553 0.0
C1195 C 0.69361 0.04492 0.70697 0.0
C1196 C 0.67268 0.04974 0.71321 0.0
C1197 C 0.6584 0.05913 0.69878 0.0
C1198 C 0.70996 0.03923 0.72358 0.0
C1199 C 0.71218 0.05274 0.74207 0.0
C1200 C 0.7246 0.0223 0.72049 0.0
C1201 C 0.72237 0.00673 0.70196 0.0
C1202 C 0.70281 -0.00409 0.69762 0.0
C1203 C 0.70074 0.98138 0.68006 0.0
C1204 C 0.71815 0.97743 0.66676 0.0
C1205 C 0.73768 -0.01202 0.67102 0.0
C1206 C 0.73984 0.00253 0.68856 0.0
C1207 C 0.77994 0.03566 0.80351 0.0
C1208 C 0.79964 0.04139 0.79462 0.0
C1209 C 0.76207 0.03134 0.79001 0.0
C1210 C 0.76367 0.03275 0.76748 0.0
C1211 C 0.78378 0.03632 0.75855 0.0
C1212 C 0.8016 0.04065 0.772 0.0
C1213 C 0.74425 0.03411 0.75345 0.0
C1214 C 0.74166 0.02006 0.73543 0.0
C1215 C 0.7292 0.05056 0.75686 0.0
C1216 C 0.73164 0.06669 0.77482 0.0
C1217 C 0.74958 0.08048 0.77616 0.0
C1218 C 0.75191 0.09545 0.79332 0.0
C1219 C 0.73628 0.09692 0.80911 0.0
C1220 C 0.71826 0.08347 0.80773 0.0
C1221 C 0.71588 0.06844 0.79062 0.0
H1222 H 0.73811 0.10852 0.82239 0.0
H1223 H 0.71651 0.96618 0.65317 0.0
H1224 H 0.82841 0.40197 0.96449 0.0
H1225 H 0.81616 0.43107 0.98802 0.0
H1226 H 0.80264 0.46899 0.93236 0.0
H1227 H 0.81495 0.43971 0.9085 0.0
H1228 H 0.82848 0.48979 0.9625 0.0
H1229 H 0.7619 0.45222 0.96263 0.0
H1230 H 0.73776 0.42105 0.96565 0.0
H1231 H 0.7586 0.41389 0.03158 0.0
H1232 H 0.78311 0.44483 0.02888 0.0
H1233 H 0.80323 0.57534 0.03124 0.0
H1234 H 0.79581 0.54699 0.00402 0.0
H1235 H 0.80706 0.49942 0.05194 0.0
H1236 H 0.81368 0.52788 0.07952 0.0
H1237 H 0.77732 0.48524 0.02252 0.0
H1238 H 0.84779 0.51744 0.02061 0.0
H1239 H 0.87362 0.54736 0.01834 0.0
H1240 H 0.84713 0.56292 0.95623 0.0
H1241 H 0.82093 0.53325 0.95829 0.0
C1242 C 0.82253 0.41636 0.95717 0.0
C1243 C 0.82283 0.41861 0.93462 0.0
C1244 C 0.81535 0.43293 0.97067 0.0
C1245 C 0.80833 0.45216 0.96196 0.0
C1246 C 0.80789 0.45423 0.9394 0.0
C1247 C 0.8149 0.4375 0.9258 0.0
C1248 C 0.80389 0.47071 0.97667 0.0
C1249 C 0.81687 0.48902 0.97526 0.0
C1250 C 0.78923 0.46941 -0.00625 0.0
C1251 C 0.77446 0.4508 -0.00451 0.0
C1252 C 0.76146 0.44391 0.97773 0.0
C1253 C 0.74769 0.42629 0.97939 0.0
C1254 C 0.74667 0.41548 -0.00122 0.0
C1255 C 0.7594 0.42229 0.01657 0.0
C1256 C 0.77322 0.43989 0.01499 0.0
C1257 C 0.80354 0.55884 0.0361 0.0
C1258 C 0.80931 0.55377 0.05741 0.0
C1259 C 0.79938 0.54265 0.02051 0.0
C1260 C 0.80149 0.52108 0.02578 0.0
C1261 C 0.80547 0.51596 0.04747 0.0
C1262 C 0.80925 0.53222 0.06322 0.0
C1263 C 0.80207 0.50416 0.0084 0.0
C1264 C 0.78854 0.48616 0.00943 0.0
C1265 C 0.81643 0.50555 -0.00896 0.0
C1266 C 0.83226 0.5233 0.98972 0.0
C1267 C 0.84738 0.52734 0.00654 0.0
C1268 C 0.8621 0.54423 0.00529 0.0
C1269 C 0.86198 0.55707 0.98718 0.0
C1270 C 0.84718 0.55299 0.97027 0.0
C1271 C 0.8324 0.53614 0.97146 0.0
H1272 H 0.87338 0.57015 0.98624 0.0
H1273 H 0.73599 0.40185 4e-05 0.0
H1274 H 0.21041 0.04588 0.82422 0.0
H1275 H 0.23809 0.04129 0.79693 0.0
H1276 H 0.18948 0.02314 0.74912 0.0
H1277 H 0.16192 0.02779 0.77617 0.0
H1278 H 0.2278 0.00185 0.74228 0.0
H1279 H 0.20236 0.07434 0.75649 0.0
H1280 H 0.19599 0.10593 0.78026 0.0
H1281 H 0.26325 0.11078 0.79566 0.0
H1282 H 0.26996 0.07898 0.77222 0.0
H1283 H 0.25013 0.04247 0.6408 0.0
H1284 H 0.23659 0.03306 0.67595 0.0
H1285 H 0.29439 0.05816 0.70703 0.0
H1286 H 0.3081 0.06781 0.67172 0.0
H1287 H 0.25915 0.07292 0.72683 0.0
H1288 H 0.28495 0.00465 0.70537 0.0
H1289 H 0.29057 0.97325 0.68117 0.0
H1290 H 0.22292 0.96024 0.67893 0.0
H1291 H 0.21684 -0.00824 0.70286 0.0
C1292 C 0.20576 0.04006 0.80812 0.0
C1293 C 0.18402 0.03736 0.80224 0.0
C1294 C 0.22156 0.0376 0.7925 0.0
C1295 C 0.21579 0.03224 0.77091 0.0
C1296 C 0.19431 0.02734 0.76565 0.0
C1297 C 0.17855 0.03003 0.78112 0.0
C1298 C 0.23116 0.03475 0.75315 0.0
C1299 C 0.23476 0.01733 0.7389 0.0
C1300 C 0.2406 0.05488 0.74901 0.0
C1301 C 0.23662 0.07415 0.76285 0.0
C1302 C 0.21577 0.08206 0.76507 0.0
C1303 C 0.21209 0.10001 0.77847 0.0
C1304 C 0.22919 0.11032 0.78952 0.0
C1305 C 0.25001 0.10275 0.78713 0.0
C1306 C 0.25376 0.08476 0.7738 0.0
C1307 C 0.2601 0.04585 0.65505 0.0
C1308 C 0.2802 0.05594 0.65341 0.0
C1309 C 0.25238 0.04031 0.67517 0.0
C1310 C 0.26457 0.04465 0.69415 0.0
C1311 C 0.28475 0.05455 0.6926 0.0
C1312 C 0.29257 0.06002 0.6724 0.0
C1313 C 0.25542 0.0401 0.71556 0.0
C1314 C 0.25284 0.05722 0.73045 0.0
C1315 C 0.2469 0.0197 0.72022 0.0
C1316 C 0.25043 0.00067 0.70584 0.0
C1317 C 0.27125 -0.00481 0.6996 0.0
C1318 C 0.27452 0.97735 0.68594 0.0
C1319 C 0.25712 0.96477 0.67849 0.0
C1320 C 0.2364 0.97 0.68472 0.0
C1321 C 0.23303 -0.01217 0.69836 0.0
H1322 H 0.25968 0.95097 0.66792 0.0
H1323 H 0.22632 0.1242 0.79989 0.0
H1324 H 0.69445 0.50136 0.41051 0.0
H1325 H 0.69448 0.48292 0.44476 0.0
H1326 H 0.64288 0.52277 0.46689 0.0
H1327 H 0.6432 0.54173 0.43289 0.0
H1328 H 0.67001 0.51687 0.49913 0.0
H1329 H 0.63432 0.47058 0.44618 0.0
H1330 H 0.63042 0.44984 0.41175 0.0
H1331 H 0.68504 0.41225 0.42879 0.0
H1332 H 0.68944 0.43295 0.46322 0.0
H1333 H 0.63265 0.44975 0.58182 0.0
H1334 H 0.63625 0.47078 0.54939 0.0
H1335 H 0.69006 0.43254 0.5301 0.0
H1336 H 0.68643 0.41126 0.56238 0.0
H1337 H 0.6626 0.43772 0.49672 0.0
H1338 H 0.69711 0.48375 0.55071 0.0
H1339 H 0.7 0.50442 0.58525 0.0
H1340 H 0.64623 0.54238 0.5664 0.0
H1341 H 0.64284 0.52175 0.53185 0.0
C1342 C 0.68322 0.50634 0.42272 0.0
C1343 C 0.66872 0.52294 0.41887 0.0
C1344 C 0.68317 0.49568 0.44229 0.0
C1345 C 0.66837 0.5011 0.4583 0.0
C1346 C 0.6544 0.5182 0.45479 0.0
C1347 C 0.65459 0.52902 0.43531 0.0
C1348 C 0.66706 0.48863 0.47841 0.0
C1349 C 0.66814 0.49959 0.49857 0.0
C1350 C 0.66501 0.466 0.47781 0.0
C1351 C 0.66233 0.45346 0.45717 0.0
C1352 C 0.64559 0.45799 0.44251 0.0
C1353 C 0.64328 0.44622 0.42301 0.0
C1354 C 0.65751 0.42978 0.41806 0.0
C1355 C 0.67405 0.42501 0.43263 0.0
C1356 C 0.67645 0.43674 0.45215 0.0
C1357 C 0.64532 0.44585 0.57075 0.0
C1358 C 0.65927 0.4288 0.57476 0.0
C1359 C 0.64742 0.45797 0.55223 0.0
C1360 C 0.66357 0.45341 0.53737 0.0
C1361 C 0.6775 0.43639 0.54133 0.0
C1362 C 0.67542 0.42427 0.55985 0.0
C1363 C 0.66557 0.46596 0.51741 0.0
C1364 C 0.66456 0.455 0.49727 0.0
C1365 C 0.66754 0.48857 0.51805 0.0
C1366 C 0.6696 0.50107 0.53878 0.0
C1367 C 0.6858 0.4964 0.554 0.0
C1368 C 0.68755 0.50813 0.57357 0.0
C1369 C 0.67327 0.52467 0.57804 0.0
C1370 C 0.65726 0.52955 0.56292 0.0
C1371 C 0.65543 0.51786 0.54334 0.0
H1372 H 0.67465 0.53373 0.5932 0.0
H1373 H 0.65569 0.42069 0.40295 0.0
H1374 H 0.31924 0.91539 0.26523 0.0
H1375 H 0.28901 0.93027 0.24542 0.0
H1376 H 0.25592 0.94083 0.30522 0.0
H1377 H 0.28627 0.92592 0.32528 0.0
H1378 H 0.23283 0.91664 0.27543 0.0
H1379 H 0.2705 0.98316 0.27661 0.0
H1380 H 0.30133 0.0075 0.27239 0.0
H1381 H 0.30268 -0.00908 0.20458 0.0
H1382 H 0.27204 0.96623 0.20844 0.0
H1383 H 0.14234 0.94353 0.2174 0.0
H1384 H 0.17267 0.95232 0.24172 0.0
H1385 H 0.21605 0.94185 0.1892 0.0
H1386 H 0.1856 0.93379 0.16457 0.0
H1387 H 0.23247 0.97145 0.21902 0.0
H1388 H 0.20114 0.90049 0.21896 0.0
H1389 H 0.17161 0.87432 0.22192 0.0
H1390 H 0.16029 0.89734 0.28673 0.0
H1391 H 0.18957 0.9239 0.28401 0.0
C1392 C 0.30571 0.92123 0.27425 0.0
C1393 C 0.30505 0.91926 0.29681 0.0
C1394 C 0.28851 0.92992 0.2629 0.0
C1395 C 0.27027 0.93677 0.27385 0.0
C1396 C 0.26992 0.93573 0.29648 0.0
C1397 C 0.28726 0.92721 0.30791 0.0
C1398 C 0.25066 0.94216 0.26132 0.0
C1399 C 0.23256 0.92906 0.26354 0.0
C1400 C 0.2506 0.95786 0.24528 0.0
C1401 C 0.26902 0.97273 0.24285 0.0
C1402 C 0.27746 0.98457 0.26082 0.0
C1403 C 0.29489 -0.00154 0.25849 0.0
C1404 C 0.30398 0.00073 0.23824 0.0
C1405 C 0.29562 -0.01085 0.22026 0.0
C1406 C 0.2782 0.97522 0.22251 0.0
C1407 C 0.1583 0.94388 0.21087 0.0
C1408 C 0.1617 0.93766 0.18921 0.0
C1409 C 0.17561 0.94886 0.22479 0.0
C1410 C 0.19663 0.94711 0.21741 0.0
C1411 C 0.19995 0.94316 0.19526 0.0
C1412 C 0.18255 0.93856 0.18119 0.0
C1413 C 0.2148 0.94584 0.23315 0.0
C1414 C 0.23262 0.95948 0.23135 0.0
C1415 C 0.21484 0.9304 0.24945 0.0
C1416 C 0.19735 0.91434 0.25119 0.0
C1417 C 0.19225 0.90007 0.23378 0.0
C1418 C 0.17557 0.88516 0.23542 0.0
C1419 C 0.16403 0.88421 0.25448 0.0
C1420 C 0.1692 0.89813 0.27196 0.0
C1421 C 0.18583 0.91312 0.27038 0.0
H1422 H 0.15113 0.87266 0.25572 0.0
H1423 H 0.31747 0.01149 0.23646 0.0
H1424 H 0.65799 0.08629 0.53117 0.0
H1425 H 0.66939 0.06051 0.50322 0.0
H1426 H 0.66891 0.01042 0.54967 0.0
H1427 H 0.6578 0.03601 0.57766 0.0
H1428 H 0.70378 0.00771 0.52449 0.0
H1429 H 0.62708 0.01695 0.51397 0.0
H1430 H 0.59454 0.03793 0.50705 0.0
H1431 H 0.62006 0.05842 0.44709 0.0
H1432 H 0.65288 0.03775 0.45381 0.0
H1433 H 0.67969 0.90944 0.47261 0.0
H1434 H 0.68476 0.94297 0.49307 0.0
H1435 H 0.68519 0.97743 0.4337 0.0
H1436 H 0.67973 0.94364 0.41297 0.0
H1437 H 0.6563 -0.00663 0.46032 0.0
H1438 H 0.7299 0.9774 0.46776 0.0
H1439 H 0.76174 0.95547 0.47468 0.0
H1440 H 0.7424 0.94705 0.54008 0.0
H1441 H 0.71027 0.96867 0.53348 0.0
C1442 C 0.66039 0.06981 0.53546 0.0
C1443 C 0.65684 0.0632 0.55664 0.0
C1444 C 0.6669 0.05509 0.51945 0.0
C1445 C 0.66988 0.03349 0.52431 0.0
C1446 C 0.66679 0.027 0.54554 0.0
C1447 C 0.6603 0.04166 0.56152 0.0
C1448 C 0.67533 0.0173 0.50728 0.0
C1449 C 0.69341 0.00452 0.51045 0.0
C1450 C 0.66224 0.01365 0.48855 0.0
C1451 C 0.64252 0.02605 0.48452 0.0
C1452 C 0.62582 0.02607 0.4994 0.0
C1453 C 0.60731 0.03788 0.4955 0.0
C1454 C 0.60527 0.04956 0.47668 0.0
C1455 C 0.62169 0.04941 0.46168 0.0
C1456 C 0.64024 0.03765 0.46553 0.0
C1457 C 0.68145 0.92406 0.46382 0.0
C1458 C 0.67913 0.92388 0.44117 0.0
C1459 C 0.68448 0.94328 0.47557 0.0
C1460 C 0.68542 0.96279 0.46496 0.0
C1461 C 0.68453 0.96256 0.44223 0.0
C1462 C 0.68156 0.94323 0.4304 0.0
C1463 C 0.68441 0.98322 0.47786 0.0
C1464 C 0.66709 -0.00316 0.47398 0.0
C1465 C 0.69821 -0.01241 0.49595 0.0
C1466 C 0.71759 0.97463 0.50008 0.0
C1467 C 0.73235 0.97077 0.48358 0.0
C1468 C 0.75047 0.9584 0.48745 0.0
C1469 C 0.75408 0.94986 0.5078 0.0
C1470 C 0.73959 0.9537 0.52433 0.0
C1471 C 0.72144 0.96605 0.52054 0.0
H1472 H 0.76812 0.94028 0.51076 0.0
H1473 H 0.59093 0.05868 0.47368 0.0
H1474 H 0.272 0.3901 0.65434 0.0
H1475 H 0.25027 0.39036 0.68655 0.0
H1476 H 0.28474 0.44619 0.71174 0.0
H1477 H 0.30711 0.44564 0.67967 0.0
H1478 H 0.28034 0.41903 0.74252 0.0
H1479 H 0.23193 0.44859 0.69119 0.0
H1480 H 0.21166 0.45089 0.65673 0.0
H1481 H 0.17942 0.39158 0.66887 0.0
H1482 H 0.19972 0.38877 0.70329 0.0
H1483 H 0.20696 0.43689 0.8279 0.0
H1484 H 0.22731 0.44125 0.79496 0.0
H1485 H 0.20145 0.38141 0.7689 0.0
H1486 H 0.18099 0.37692 0.80179 0.0
H1487 H 0.20107 0.41323 0.73882 0.0
H1488 H 0.25146 0.38363 0.78974 0.0
H1489 H 0.27155 0.38248 0.82442 0.0
H1490 H 0.29968 0.44398 0.81302 0.0
H1491 H 0.27953 0.44562 0.77838 0.0
C1492 C 0.2749 0.40258 0.66661 0.0
C1493 C 0.2913 0.41791 0.66434 0.0
C1494 C 0.26234 0.40276 0.68504 0.0
C1495 C 0.26557 0.41849 0.70152 0.0
C1496 C 0.28186 0.43391 0.69926 0.0
C1497 C 0.29461 0.43362 0.68087 0.0
C1498 C 0.25245 0.41827 0.72139 0.0
C1499 C 0.26299 0.41817 0.74167 0.0
C1500 C 0.22978 0.41674 0.72041 0.0
C1501 C 0.21749 0.41839 0.69974 0.0
C1502 C 0.22063 0.43596 0.68644 0.0
C1503 C 0.20912 0.43736 0.66693 0.0
C1504 C 0.1943 0.42136 0.66059 0.0
C1505 C 0.19092 0.40395 0.67379 0.0
C1506 C 0.20241 0.40246 0.69332 0.0
C1507 C 0.20553 0.42465 0.81516 0.0
C1508 C 0.19238 0.40649 0.81756 0.0
C1509 C 0.21725 0.42715 0.79635 0.0
C1510 C 0.21607 0.41157 0.77952 0.0
C1511 C 0.20263 0.39364 0.78168 0.0
C1512 C 0.191 0.39106 0.80054 0.0
C1513 C 0.22901 0.41381 0.75978 0.0
C1514 C 0.21842 0.41427 0.73957 0.0
C1515 C 0.2516 0.41587 0.76083 0.0
C1516 C 0.26382 0.41484 0.78158 0.0
C1517 C 0.2618 0.39698 0.79471 0.0
C1518 C 0.27322 0.39623 0.81434 0.0
C1519 C 0.28684 0.41317 0.82095 0.0
C1520 C 0.28911 0.43088 0.8079 0.0
C1521 C 0.2777 0.43172 0.78826 0.0
H1522 H 0.29567 0.41256 0.83615 0.0
H1523 H 0.1854 0.42248 0.64547 0.0
H1524 H 0.80307 0.02171 0.90006 0.0
H1525 H 0.79062 0.00287 0.93145 0.0
H1526 H 0.80713 0.05778 0.9726 0.0
H1527 H 0.82005 0.07663 0.94125 0.0
H1528 H 0.82204 0.0227 0.98957 0.0
H1529 H 0.75407 0.04328 0.96152 0.0
H1530 H 0.72565 0.04778 0.93382 0.0
H1531 H 0.72127 0.97962 0.92347 0.0
H1532 H 0.74989 0.9747 0.95088 0.0
H1533 H 0.78834 0.96234 0.07709 0.0
H1534 H 0.78499 -0.00801 0.05218 0.0
H1535 H 0.77549 0.94672 -0.00125 0.0
H1536 H 0.77856 0.91722 0.02343 0.0
H1537 H 0.75299 0.98298 -0.00787 0.0
H1538 H 0.82548 0.96362 0.01394 0.0
H1539 H 0.8545 0.95828 0.04084 0.0
H1540 H 0.85046 0.02413 0.06214 0.0
H1541 H 0.82118 0.02975 0.03554 0.0
C1542 C 0.80387 0.0299 0.91574 0.0
C1543 C 0.81262 0.05068 0.91812 0.0
C1544 C 0.79659 0.01914 0.93369 0.0
C1545 C 0.79764 0.02899 0.95441 0.0
C1546 C 0.80606 0.04987 0.95679 0.0
C1547 C 0.81344 0.06064 0.93883 0.0
C1548 C 0.79143 0.01682 0.97366 0.0
C1549 C 0.8067 0.01448 0.99037 0.0
C1550 C 0.77155 0.00578 0.97463 0.0
C1551 C 0.75423 0.00864 0.9582 0.0
C1552 C 0.74715 0.02925 0.95324 0.0
C1553 C 0.73098 0.03188 0.9376 0.0
C1554 C 0.72168 0.014 0.92687 0.0
C1555 C 0.72849 -0.00655 0.93179 0.0
C1556 C 0.74466 -0.00926 0.94741 0.0
C1557 C 0.78473 0.95876 0.06016 0.0
C1558 C 0.78401 0.93746 0.05216 0.0
C1559 C 0.78298 0.97571 0.04592 0.0
C1560 C 0.78046 0.97155 0.02353 0.0
C1561 C 0.77754 0.95034 0.01591 0.0
C1562 C 0.77937 0.93347 0.03006 0.0
C1563 C 0.78377 -0.01139 0.00768 0.0
C1564 C 0.76804 -0.00825 -0.00843 0.0
C1565 C 0.80326 0.00035 0.00716 0.0
C1566 C 0.82099 -0.00297 0.02297 0.0
C1567 C 0.83069 0.97691 0.02447 0.0
C1568 C 0.84719 0.97384 0.03964 0.0
C1569 C 0.85427 -0.00916 0.05324 0.0
C1570 C 0.84492 0.01096 0.05163 0.0
C1571 C 0.82837 0.0141 0.03652 0.0
H1572 H 0.86705 -0.01157 0.06498 0.0
H1573 H 0.70917 0.01607 0.91476 0.0
H1574 H 0.19623 0.58426 0.14429 0.0
H1575 H 0.22022 0.57673 0.1747 0.0
H1576 H 0.16675 0.5537 0.21069 0.0
H1577 H 0.14252 0.56129 0.1803 0.0
H1578 H 0.19268 0.58102 0.23511 0.0
H1579 H 0.20153 0.51824 0.19073 0.0
H1580 H 0.20774 0.49748 0.15697 0.0
H1581 H 0.26988 0.52678 0.1523 0.0
H1582 H 0.26393 0.54795 0.18587 0.0
H1583 H 0.27236 0.55787 0.31657 0.0
H1584 H 0.24218 0.55132 0.29094 0.0
H1585 H 0.28177 0.57082 0.23857 0.0
H1586 H 0.31171 0.57681 0.26361 0.0
H1587 H 0.25816 0.53777 0.22575 0.0
H1588 H 0.24616 0.60544 0.26502 0.0
H1589 H 0.24021 0.62763 0.29797 0.0
H1590 H 0.18445 0.58999 0.31154 0.0
H1591 H 0.19024 0.56743 0.27878 0.0
C1592 C 0.18954 0.57751 0.15861 0.0
C1593 C 0.16744 0.57336 0.15982 0.0
C1594 C 0.2033 0.5731 0.17596 0.0
C1595 C 0.19531 0.56441 0.19488 0.0
C1596 C 0.17326 0.56032 0.19622 0.0
C1597 C 0.15946 0.56464 0.1788 0.0
C1598 C 0.21006 0.56032 0.21341 0.0
C1599 C 0.20677 0.57117 0.23324 0.0
C1600 C 0.2285 0.5476 0.21093 0.0
C1601 C 0.23222 0.53477 0.19078 0.0
C1602 C 0.21647 0.52036 0.18244 0.0
C1603 C 0.21995 0.5085 0.16334 0.0
C1604 C 0.23918 0.51083 0.15248 0.0
C1605 C 0.25499 0.52499 0.16073 0.0
C1606 C 0.25159 0.5369 0.17981 0.0
C1607 C 0.27465 0.56044 0.29954 0.0
C1608 C 0.2944 0.56805 0.2922 0.0
C1609 C 0.25738 0.55681 0.28494 0.0
C1610 C 0.25963 0.56082 0.26283 0.0
C1611 C 0.27959 0.56757 0.25549 0.0
C1612 C 0.29672 0.57112 0.26993 0.0
C1613 C 0.24128 0.55922 0.24713 0.0
C1614 C 0.24383 0.54722 0.22781 0.0
C1615 C 0.22226 0.57102 0.25003 0.0
C1616 C 0.21878 0.5846 0.26964 0.0
C1617 C 0.23272 0.60181 0.27513 0.0
C1618 C 0.22937 0.61447 0.29374 0.0
C1619 C 0.21201 0.61017 0.30688 0.0
C1620 C 0.19792 0.59326 0.30138 0.0
C1621 C 0.20123 0.58054 0.2828 0.0
H1622 H 0.20943 0.61999 0.32128 0.0
H1623 H 0.24184 0.50164 0.13769 0.0
H1624 H 0.30791 0.01586 0.56915 0.0
H1625 H 0.30484 0.9843 0.54464 0.0
H1626 H 0.27366 0.02241 0.49657 0.0
H1627 H 0.27717 0.05401 0.52071 0.0
H1628 H 0.25911 0.97667 0.49823 0.0
H1629 H 0.32329 0.02279 0.49424 0.0
H1630 H 0.35491 0.04094 0.51123 0.0
H1631 H 0.37857 0.98054 0.53217 0.0
H1632 H 0.34686 0.96209 0.51558 0.0
H1633 H 0.28433 0.94285 0.39271 0.0
H1634 H 0.27705 0.96054 0.42738 0.0
H1635 H 0.32812 0.92529 0.4575 0.0
H1636 H 0.33613 0.90832 0.4225 0.0
H1637 H 0.33188 0.96366 0.47031 0.0
H1638 H 0.27244 0.91607 0.46754 0.0
H1639 H 0.24069 0.89688 0.45219 0.0
H1640 H 0.20773 0.95643 0.4462 0.0
H1641 H 0.2394 0.97603 0.46123 0.0
C1642 C 0.29962 0.01727 0.55371 0.0
C1643 C 0.29291 0.03734 0.54669 0.0
C1644 C 0.29794 -0.00073 0.53972 0.0
C1645 C 0.28918 0.00113 0.51877 0.0
C1646 C 0.28039 0.02066 0.5127 0.0
C1647 C 0.28247 0.0387 0.52646 0.0
C1648 C 0.29263 0.98432 0.5019 0.0
C1649 C 0.27496 0.97367 0.49207 0.0
C1650 C 0.31341 0.98009 0.49435 0.0
C1651 C 0.33263 -0.00888 0.50392 0.0
C1652 C 0.33517 0.01342 0.50261 0.0
C1653 C 0.3531 0.02375 0.51215 0.0
C1654 C 0.36871 0.01191 0.52284 0.0
C1655 C 0.36644 -0.01031 0.52393 0.0
C1656 C 0.3485 0.97929 0.51447 0.0
C1657 C 0.29388 0.93871 0.40676 0.0
C1658 C 0.31085 0.92425 0.40486 0.0
C1659 C 0.28958 0.94871 0.42667 0.0
C1660 C 0.30176 0.94402 0.44527 0.0
C1661 C 0.31844 0.92919 0.44346 0.0
C1662 C 0.32302 0.91949 0.42344 0.0
C1663 C 0.29824 0.95596 0.46608 0.0
C1664 C 0.31597 0.96595 0.47664 0.0
C1665 C 0.27751 0.95923 0.47445 0.0
C1666 C 0.25838 0.94754 0.4654 0.0
C1667 C 0.25848 0.9251 0.46281 0.0
C1668 C 0.24049 0.91414 0.45418 0.0
C1669 C 0.22222 0.92543 0.44819 0.0
C1670 C 0.2219 0.94771 0.45085 0.0
C1671 C 0.23986 0.95875 0.45945 0.0
H1672 H 0.2083 0.91692 0.44151 0.0
H1673 H 0.38258 0.01993 0.53022 0.0
H1674 H 0.80997 0.5783 0.18652 0.0
H1675 H 0.79091 0.5693 0.21923 0.0
H1676 H 0.76045 0.51565 0.1851 0.0
H1677 H 0.77953 0.52444 0.15234 0.0
H1678 H 0.73195 0.5426 0.20581 0.0
H1679 H 0.79709 0.50635 0.2232 0.0
H1680 H 0.83613 0.50312 0.2286 0.0
H1681 H 0.83543 0.5522 0.27864 0.0
H1682 H 0.79641 0.55596 0.27334 0.0
H1683 H 0.67157 0.51467 0.29266 0.0
H1684 H 0.69912 0.50874 0.26565 0.0
H1685 H 0.73945 0.5565 0.29842 0.0
H1686 H 0.7124 0.56137 0.32619 0.0
H1687 H 0.76396 0.52898 0.27812 0.0
H1688 H 0.70189 0.56948 0.25832 0.0
H1689 H 0.66326 0.57587 0.25298 0.0
H1690 H 0.65882 0.52288 0.20723 0.0
H1691 H 0.69739 0.51599 0.21254 0.0
C1692 C 0.79939 0.56445 0.18602 0.0
C1693 C 0.7962 0.55215 0.16677 0.0
C1694 C 0.78861 0.55925 0.20478 0.0
C1695 C 0.77437 0.54172 0.20464 0.0
C1696 C 0.77144 0.5292 0.18557 0.0
C1697 C 0.78237 0.53425 0.16687 0.0
C1698 C 0.76121 0.53757 0.22382 0.0
C1699 C 0.73893 0.53916 0.22152 0.0
C1700 C 0.77038 0.53383 0.24446 0.0
C1701 C 0.79384 0.53155 0.24775 0.0
C1702 C 0.80528 0.51658 0.23524 0.0
C1703 C 0.8274 0.51463 0.2383 0.0
C1704 C 0.83826 0.52748 0.25392 0.0
C1705 C 0.827 0.54227 0.26654 0.0
C1706 C 0.80487 0.5443 0.26353 0.0
C1707 C 0.68677 0.52309 0.29463 0.0
C1708 C 0.69 0.53837 0.31148 0.0
C1709 C 0.7024 0.51992 0.27906 0.0
C1710 C 0.72106 0.53273 0.27954 0.0
C1711 C 0.72515 0.54652 0.29757 0.0
C1712 C 0.70974 0.54924 0.31351 0.0
C1713 C 0.73464 0.53394 0.26009 0.0
C1714 C 0.75697 0.53204 0.26234 0.0
C1715 C 0.72559 0.53785 0.23937 0.0
C1716 C 0.70245 0.54208 0.236 0.0
C1717 C 0.69264 0.55912 0.24721 0.0
C1718 C 0.67076 0.56284 0.24419 0.0
C1719 C 0.65858 0.54975 0.22982 0.0
C1720 C 0.66827 0.53297 0.21839 0.0
C1721 C 0.69013 0.52915 0.2214 0.0
H1722 H 0.64165 0.55265 0.2275 0.0
H1723 H 0.85539 0.52594 0.25627 0.0
H1724 H 0.18153 0.96319 0.09166 0.0
H1725 H 0.18692 0.98176 0.05796 0.0
H1726 H 0.12961 0.95196 0.03047 0.0
H1727 H 0.12406 0.93328 0.06416 0.0
H1728 H 0.16348 0.95133 0.00202 0.0
H1729 H 0.12825 0.00272 0.04848 0.0
H1730 H 0.12385 0.02452 0.08195 0.0
H1731 H 0.18475 0.05503 0.07272 0.0
H1732 H 0.18964 0.03319 0.03933 0.0
H1733 H 0.14371 0.01655 0.9127 0.0
H1734 H 0.14244 -0.00351 0.94579 0.0
H1735 H 0.1948 0.03469 0.97311 0.0
H1736 H 0.19571 0.05538 0.94013 0.0
H1737 H 0.16557 0.03071 0.00203 0.0
H1738 H 0.20087 0.98107 0.95527 0.0
H1739 H 0.20648 0.95912 0.92213 0.0
H1740 H 0.14764 0.92504 0.93206 0.0
H1741 H 0.14152 0.94699 0.96512 0.0
C1742 C 0.17008 0.96051 0.07845 0.0
C1743 C 0.1523 0.94679 0.08068 0.0
C1744 C 0.17316 0.97121 0.0592 0.0
C1745 C 0.15857 0.9684 0.04174 0.0
C1746 C 0.14106 0.95438 0.04373 0.0
C1747 C 0.13788 0.94377 0.06304 0.0
C1748 C 0.16141 0.9803 0.02152 0.0
C1749 C 0.1637 0.96869 0.00195 0.0
C1750 C 0.16238 0.00295 0.02153 0.0
C1751 C 0.15941 0.01617 0.04154 0.0
C1752 C 0.14078 0.01396 0.05369 0.0
C1753 C 0.13818 0.02634 0.07262 0.0
C1754 C 0.15404 0.04111 0.07949 0.0
C1755 C 0.17249 0.04356 0.0674 0.0
C1756 C 0.17518 0.0312 0.04846 0.0
C1757 C 0.15511 0.02061 0.92564 0.0
C1758 C 0.16987 0.03758 0.92369 0.0
C1759 C 0.15443 0.00901 0.94458 0.0
C1760 C 0.16873 0.01379 0.96193 0.0
C1761 C 0.18361 0.03063 0.95997 0.0
C1762 C 0.18417 0.04241 0.94107 0.0
C1763 C 0.16752 0.00177 0.98235 0.0
C1764 C 0.16551 0.01335 0.00201 0.0
C1765 C 0.16701 0.97908 0.98244 0.0
C1766 C 0.17065 0.96581 0.96258 0.0
C1767 C 0.18905 0.969 0.9503 0.0
C1768 C 0.19233 0.95654 0.93155 0.0
C1769 C 0.1774 0.94073 0.92497 0.0
C1770 C 0.15918 0.93731 0.93717 0.0
C1771 C 0.15581 0.94974 0.95593 0.0
H1772 H 0.17998 0.9311 0.91044 0.0
H1773 H 0.152 0.05068 0.09416 0.0
H1774 H 0.6583 0.42586 0.71905 0.0
H1775 H 0.68891 0.43127 0.74374 0.0
H1776 H 0.73186 0.41936 0.69114 0.0
H1777 H 0.70098 0.41408 0.66615 0.0
H1778 H 0.73872 0.39269 0.72481 0.0
H1779 H 0.73358 0.46747 0.71683 0.0
H1780 H 0.71603 0.50249 0.71446 0.0
H1781 H 0.69513 0.4979 0.77983 0.0
H1782 H 0.71226 0.4627 0.78251 0.0
H1783 H 0.82026 0.39624 0.80776 0.0
H1784 H 0.80051 0.40543 0.77475 0.0
H1785 H 0.74513 0.42069 0.81248 0.0
H1786 H 0.76475 0.41177 0.84547 0.0
H1787 H 0.751 0.44971 0.78136 0.0
H1788 H 0.74938 0.37245 0.7861 0.0
H1789 H 0.76545 0.3367 0.7886 0.0
H1790 H 0.79795 0.34586 0.72906 0.0
H1791 H 0.78227 0.3818 0.72638 0.0
C1792 C 0.67427 0.42512 0.71259 0.0
C1793 C 0.67728 0.41957 0.6907 0.0
C1794 C 0.69179 0.42826 0.72672 0.0
C1795 C 0.71272 0.42575 0.71932 0.0
C1796 C 0.71584 0.42146 0.69717 0.0
C1797 C 0.69822 0.41862 0.68289 0.0
C1798 C 0.73073 0.42474 0.73535 0.0
C1799 C 0.74187 0.40542 0.73681 0.0
C1800 C 0.73449 0.44114 0.7513 0.0
C1801 C 0.72415 0.46235 0.74983 0.0
C1802 C 0.72511 0.47384 0.73066 0.0
C1803 C 0.71525 0.49375 0.72927 0.0
C1804 C 0.70445 0.5024 0.74698 0.0
C1805 C 0.70351 0.49118 0.76613 0.0
C1806 C 0.71333 0.47126 0.76761 0.0
C1807 C 0.80392 0.40169 0.80905 0.0
C1808 C 0.79404 0.40311 0.82927 0.0
C1809 C 0.79265 0.40691 0.79015 0.0
C1810 C 0.77127 0.41359 0.7911 0.0
C1811 C 0.76162 0.41562 0.81133 0.0
C1812 C 0.77284 0.41038 0.83019 0.0
C1813 C 0.75847 0.41748 0.77109 0.0
C1814 C 0.74827 0.43726 0.76899 0.0
C1815 C 0.75546 0.40148 0.75458 0.0
C1816 C 0.7649 0.37991 0.75619 0.0
C1817 C 0.76011 0.36691 0.77365 0.0
C1818 C 0.76911 0.3466 0.77508 0.0
C1819 C 0.78278 0.33904 0.75904 0.0
C1820 C 0.78741 0.35176 0.74151 0.0
C1821 C 0.77847 0.37209 0.74002 0.0
H1822 H 0.78973 0.32331 0.76017 0.0
H1823 H 0.69683 0.51782 0.74587 0.0
loop_
_geom_bond_atom_site_label_1
_geom_bond_atom_site_label_2
_geom_bond_distance
_geom_bond_site_symmetry_2
_ccdc_geom_bond_type
Zn0 O3 2.031 . S
Zn0 O5 2.049 . S
Zn0 O10 2.067 . S
Zn1 O2 1.962 . S
Zn1 O4 1.986 . S
Zn1 O6 1.996 . S
Zn1 O9 1.943 . S
O2 Zn1 1.962 . S
O2 C7 1.254 . S
O3 Zn0 2.031 . S
O3 C7 1.269 . S
O4 Zn1 1.986 . S
O4 C11 1.262 . S
O5 Zn0 2.049 . S
O5 C13 1.260 . S
O6 Zn1 1.996 . S
O6 C13 1.257 . S
C7 O2 1.254 . S
C7 O3 1.269 . S
C8 O9 1.249 . S
C8 O10 1.270 . S
O9 Zn1 1.943 . S
O9 C8 1.249 . S
O10 Zn0 2.067 . S
O10 C8 1.270 . S
C11 O4 1.262 . S
C11 O12 1.232 . S
O12 C11 1.232 . S
C13 O5 1.260 . S
C13 O6 1.257 . S
Zn14 O17 2.031 . S
Zn14 O19 2.049 . S
Zn14 O24 2.067 . S
Zn15 O16 1.962 . S
Zn15 O18 1.986 . S
Zn15 O20 1.996 . S
Zn15 O23 1.943 . S
O16 Zn15 1.962 . S
O16 C21 1.254 . S
O17 Zn14 2.031 . S
O17 C21 1.269 . S
O18 Zn15 1.986 . S
O18 C25 1.262 . S
O19 Zn14 2.049 . S
O19 C27 1.260 . S
O20 Zn15 1.996 . S
O20 C27 1.257 . S
C21 O16 1.254 . S
C21 O17 1.269 . S
C22 O23 1.249 . S
C22 O24 1.270 . S
O23 Zn15 1.943 . S
O23 C22 1.249 . S
O24 Zn14 2.067 . S
O24 C22 1.270 . S
C25 O18 1.262 . S
C25 O26 1.232 . S
O26 C25 1.232 . S
C27 O19 1.260 . S
C27 O20 1.257 . S
Zn28 O31 2.031 . S
Zn28 O33 2.049 . S
Zn28 O38 2.067 . S
Zn29 O30 1.962 . S
Zn29 O32 1.986 . S
Zn29 O34 1.996 . S
Zn29 O37 1.943 . S
O30 Zn29 1.962 . S
O30 C35 1.254 . S
O31 Zn28 2.031 . S
O31 C35 1.269 . S
O32 Zn29 1.986 . S
O32 C39 1.262 . S
O33 Zn28 2.049 . S
O33 C41 1.260 . S
O34 Zn29 1.996 . S
O34 C41 1.257 . S
C35 O30 1.254 . S
C35 O31 1.269 . S
C36 O37 1.249 . S
C36 O38 1.270 . S
O37 Zn29 1.943 . S
O37 C36 1.249 . S
O38 Zn28 2.067 . S
O38 C36 1.270 . S
C39 O32 1.262 . S
C39 O40 1.232 . S
O40 C39 1.232 . S
C41 O33 1.260 . S
C41 O34 1.257 . S
Zn42 O45 2.031 . S
Zn42 O47 2.049 . S
Zn42 O52 2.067 . S
Zn43 O44 1.962 . S
Zn43 O46 1.986 . S
Zn43 O48 1.996 . S
Zn43 O51 1.943 . S
O44 Zn43 1.962 . S
O44 C49 1.254 . S
O45 Zn42 2.031 . S
O45 C49 1.269 . S
O46 Zn43 1.986 . S
O46 C53 1.262 . S
O47 Zn42 2.049 . S
O47 C55 1.260 . S
O48 Zn43 1.996 . S
O48 C55 1.257 . S
C49 O44 1.254 . S
C49 O45 1.269 . S
C50 O51 1.249 . S
C50 O52 1.270 . S
O51 Zn43 1.943 . S
O51 C50 1.249 . S
O52 Zn42 2.067 . S
O52 C50 1.270 . S
C53 O46 1.262 . S
C53 O54 1.232 . S
O54 C53 1.232 . S
C55 O47 1.260 . S
C55 O48 1.257 . S
Zn56 O59 2.031 . S
Zn56 O61 2.049 . S
Zn56 O66 2.067 . S
Zn57 O58 1.962 . S
Zn57 O60 1.986 . S
Zn57 O62 1.996 . S
Zn57 O65 1.943 . S
O58 Zn57 1.962 . S
O58 C63 1.254 . S
O59 Zn56 2.031 . S
O59 C63 1.269 . S
O60 Zn57 1.986 . S
O60 C67 1.262 . S
O61 Zn56 2.049 . S
O61 C69 1.260 . S
O62 Zn57 1.996 . S
O62 C69 1.257 . S
C63 O58 1.254 . S
C63 O59 1.269 . S
C64 O65 1.249 . S
C64 O66 1.270 . S
O65 Zn57 1.943 . S
O65 C64 1.249 . S
O66 Zn56 2.067 . S
O66 C64 1.270 . S
C67 O60 1.262 . S
C67 O68 1.232 . S
O68 C67 1.232 . S
C69 O61 1.260 . S
C69 O62 1.257 . S
Zn70 O73 2.031 . S
Zn70 O75 2.049 . S
Zn70 O80 2.067 . S
Zn71 O72 1.962 . S
Zn71 O74 1.986 . S
Zn71 O76 1.996 . S
Zn71 O79 1.943 . S
O72 Zn71 1.962 . S
O72 C77 1.254 . S
O73 Zn70 2.031 . S
O73 C77 1.269 . S
O74 Zn71 1.986 . S
O74 C81 1.262 . S
O75 Zn70 2.049 . S
O75 C83 1.260 . S
O76 Zn71 1.996 . S
O76 C83 1.257 . S
C77 O72 1.254 . S
C77 O73 1.269 . S
C78 O79 1.249 . S
C78 O80 1.270 . S
O79 Zn71 1.943 . S
O79 C78 1.249 . S
O80 Zn70 2.067 . S
O80 C78 1.270 . S
C81 O74 1.262 . S
C81 O82 1.232 . S
O82 C81 1.232 . S
C83 O75 1.260 . S
C83 O76 1.257 . S
Zn84 O87 2.031 . S
Zn84 O89 2.049 . S
Zn84 O94 2.067 . S
Zn85 O86 1.962 . S
Zn85 O88 1.986 . S
Zn85 O90 1.996 . S
Zn85 O93 1.943 . S
O86 Zn85 1.962 . S
O86 C91 1.254 . S
O87 Zn84 2.031 . S
O87 C91 1.269 . S
O88 Zn85 1.986 . S
O88 C95 1.262 . S
O89 Zn84 2.049 . S
O89 C97 1.260 . S
O90 Zn85 1.996 . S
O90 C97 1.257 . S
C91 O86 1.254 . S
C91 O87 1.269 . S
C92 O93 1.249 . S
C92 O94 1.270 . S
O93 Zn85 1.943 . S
O93 C92 1.249 . S
O94 Zn84 2.067 . S
O94 C92 1.270 . S
C95 O88 1.262 . S
C95 O96 1.232 . S
O96 C95 1.232 . S
C97 O89 1.260 . S
C97 O90 1.257 . S
Zn98 O101 2.031 . S
Zn98 O103 2.049 . S
Zn98 O108 2.067 . S
Zn99 O100 1.962 . S
Zn99 O102 1.986 . S
Zn99 O104 1.996 . S
Zn99 O107 1.943 . S
O100 Zn99 1.962 . S
O100 C105 1.254 . S
O101 Zn98 2.031 . S
O101 C105 1.269 . S
O102 Zn99 1.986 . S
O102 C109 1.262 . S
O103 Zn98 2.049 . S
O103 C111 1.260 . S
O104 Zn99 1.996 . S
O104 C111 1.257 . S
C105 O100 1.254 . S
C105 O101 1.269 . S
C106 O107 1.249 . S
C106 O108 1.270 . S
O107 Zn99 1.943 . S
O107 C106 1.249 . S
O108 Zn98 2.067 . S
O108 C106 1.270 . S
C109 O102 1.262 . S
C109 O110 1.232 . S
O110 C109 1.232 . S
C111 O103 1.260 . S
C111 O104 1.257 . S
Zn112 O115 2.031 . S
Zn112 O117 2.049 . S
Zn112 O122 2.067 . S
Zn113 O114 1.962 . S
Zn113 O116 1.986 . S
Zn113 O118 1.996 . S
Zn113 O121 1.943 . S
O114 Zn113 1.962 . S
O114 C119 1.254 . S
O115 Zn112 2.031 . S
O115 C119 1.269 . S
O116 Zn113 1.986 . S
O116 C123 1.262 . S
O117 Zn112 2.049 . S
O117 C125 1.260 . S
O118 Zn113 1.996 . S
O118 C125 1.257 . S
C119 O114 1.254 . S
C119 O115 1.269 . S
C120 O121 1.249 . S
C120 O122 1.270 . S
O121 Zn113 1.943 . S
O121 C120 1.249 . S
O122 Zn112 2.067 . S
O122 C120 1.270 . S
C123 O116 1.262 . S
C123 O124 1.232 . S
O124 C123 1.232 . S
C125 O117 1.260 . S
C125 O118 1.257 . S
Zn126 O129 2.031 . S
Zn126 O131 2.049 . S
Zn126 O136 2.067 . S
Zn127 O128 1.962 . S
Zn127 O130 1.986 . S
Zn127 O132 1.996 . S
Zn127 O135 1.943 . S
O128 Zn127 1.962 . S
O128 C133 1.254 . S
O129 Zn126 2.031 . S
O129 C133 1.269 . S
O130 Zn127 1.986 . S
O130 C137 1.262 . S
O131 Zn126 2.049 . S
O131 C139 1.260 . S
O132 Zn127 1.996 . S
O132 C139 1.257 . S
C133 O128 1.254 . S
C133 O129 1.269 . S
C134 O135 1.249 . S
C134 O136 1.270 . S
O135 Zn127 1.943 . S
O135 C134 1.249 . S
O136 Zn126 2.067 . S
O136 C134 1.270 . S
C137 O130 1.262 . S
C137 O138 1.232 . S
O138 C137 1.232 . S
C139 O131 1.260 . S
C139 O132 1.257 . S
Zn140 O143 2.031 . S
Zn140 O145 2.049 . S
Zn140 O150 2.067 . S
Zn141 O142 1.962 . S
Zn141 O144 1.986 . S
Zn141 O146 1.996 . S
Zn141 O149 1.943 . S
O142 Zn141 1.962 . S
O142 C147 1.254 . S
O143 Zn140 2.031 . S
O143 C147 1.269 . S
O144 Zn141 1.986 . S
O144 C151 1.262 . S
O145 Zn140 2.049 . S
O145 C153 1.260 . S
O146 Zn141 1.996 . S
O146 C153 1.257 . S
C147 O142 1.254 . S
C147 O143 1.269 . S
C148 O149 1.249 . S
C148 O150 1.270 . S
O149 Zn141 1.943 . S
O149 C148 1.249 . S
O150 Zn140 2.067 . S
O150 C148 1.270 . S
C151 O144 1.262 . S
C151 O152 1.232 . S
O152 C151 1.232 . S
C153 O145 1.260 . S
C153 O146 1.257 . S
Zn154 O157 2.031 . S
Zn154 O159 2.049 . S
Zn154 O164 2.067 . S
Zn155 O156 1.962 . S
Zn155 O158 1.986 . S
Zn155 O160 1.996 . S
Zn155 O163 1.943 . S
O156 Zn155 1.962 . S
O156 C161 1.254 . S
O157 Zn154 2.031 . S
O157 C161 1.269 . S
O158 Zn155 1.986 . S
O158 C165 1.262 . S
O159 Zn154 2.049 . S
O159 C167 1.260 . S
O160 Zn155 1.996 . S
O160 C167 1.257 . S
C161 O156 1.254 . S
C161 O157 1.269 . S
C162 O163 1.249 . S
C162 O164 1.270 . S
O163 Zn155 1.943 . S
O163 C162 1.249 . S
O164 Zn154 2.067 . S
O164 C162 1.270 . S
C165 O158 1.262 . S
C165 O166 1.232 . S
O166 C165 1.232 . S
C167 O159 1.260 . S
C167 O160 1.257 . S
Zn168 O171 2.031 . S
Zn168 O173 2.049 . S
Zn168 O178 2.067 . S
Zn169 O170 1.962 . S
Zn169 O172 1.986 . S
Zn169 O174 1.996 . S
Zn169 O177 1.943 . S
O170 Zn169 1.962 . S
O170 C175 1.254 . S
O171 Zn168 2.031 . S
O171 C175 1.269 . S
O172 Zn169 1.986 . S
O172 C179 1.262 . S
O173 Zn168 2.049 . S
O173 C181 1.260 . S
O174 Zn169 1.996 . S
O174 C181 1.257 . S
C175 O170 1.254 . S
C175 O171 1.269 . S
C176 O177 1.249 . S
C176 O178 1.270 . S
O177 Zn169 1.943 . S
O177 C176 1.249 . S
O178 Zn168 2.067 . S
O178 C176 1.270 . S
C179 O172 1.262 . S
C179 O180 1.232 . S
O180 C179 1.232 . S
C181 O173 1.260 . S
C181 O174 1.257 . S
Zn182 O185 2.031 . S
Zn182 O187 2.049 . S
Zn182 O192 2.067 . S
Zn183 O184 1.962 . S
Zn183 O186 1.986 . S
Zn183 O188 1.996 . S
Zn183 O191 1.943 . S
O184 Zn183 1.962 . S
O184 C189 1.254 . S
O185 Zn182 2.031 . S
O185 C189 1.269 . S
O186 Zn183 1.986 . S
O186 C193 1.262 . S
O187 Zn182 2.049 . S
O187 C195 1.260 . S
O188 Zn183 1.996 . S
O188 C195 1.257 . S
C189 O184 1.254 . S
C189 O185 1.269 . S
C190 O191 1.249 . S
C190 O192 1.270 . S
O191 Zn183 1.943 . S
O191 C190 1.249 . S
O192 Zn182 2.067 . S
O192 C190 1.270 . S
C193 O186 1.262 . S
C193 O194 1.232 . S
O194 C193 1.232 . S
C195 O187 1.260 . S
C195 O188 1.257 . S
Zn196 O199 2.031 . S
Zn196 O201 2.049 . S
Zn196 O206 2.067 . S
Zn197 O198 1.962 . S
Zn197 O200 1.986 . S
Zn197 O202 1.996 . S
Zn197 O205 1.943 . S
O198 Zn197 1.962 . S
O198 C203 1.254 . S
O199 Zn196 2.031 . S
O199 C203 1.269 . S
O200 Zn197 1.986 . S
O200 C207 1.262 . S
O201 Zn196 2.049 . S
O201 C209 1.260 . S
O202 Zn197 1.996 . S
O202 C209 1.257 . S
C203 O198 1.254 . S
C203 O199 1.269 . S
C204 O205 1.249 . S
C204 O206 1.270 . S
O205 Zn197 1.943 . S
O205 C204 1.249 . S
O206 Zn196 2.067 . S
O206 C204 1.270 . S
C207 O200 1.262 . S
C207 O208 1.232 . S
O208 C207 1.232 . S
C209 O201 1.260 . S
C209 O202 1.257 . S
Zn210 O213 2.031 . S
Zn210 O215 2.049 . S
Zn210 O220 2.067 . S
Zn211 O212 1.962 . S
Zn211 O214 1.986 . S
Zn211 O216 1.996 . S
Zn211 O219 1.943 . S
O212 Zn211 1.962 . S
O212 C217 1.254 . S
O213 Zn210 2.031 . S
O213 C217 1.269 . S
O214 Zn211 1.986 . S
O214 C221 1.262 . S
O215 Zn210 2.049 . S
O215 C223 1.260 . S
O216 Zn211 1.996 . S
O216 C223 1.257 . S
C217 O212 1.254 . S
C217 O213 1.269 . S
C218 O219 1.249 . S
C218 O220 1.270 . S
O219 Zn211 1.943 . S
O219 C218 1.249 . S
O220 Zn210 2.067 . S
O220 C218 1.270 . S
C221 O214 1.262 . S
C221 O222 1.232 . S
O222 C221 1.232 . S
C223 O215 1.260 . S
C223 O216 1.257 . S
H224 C242 0.951 . S
H225 C244 0.951 . S
H226 C246 0.950 . S
H227 C247 0.950 . S
H228 C249 0.950 . S
H229 C252 0.950 . S
H230 C253 0.950 . S
H231 C255 0.950 . S
H232 C256 0.950 . S
H233 C257 0.951 . S
H234 C259 0.951 . S
H235 C261 0.950 . S
H236 C262 0.950 . S
H237 C264 0.950 . S
H238 C267 0.950 . S
H239 C268 0.950 . S
H240 C270 0.950 . S
H241 C271 0.950 . S
C242 H224 0.951 . S
C242 C243 1.366 . S
C242 C244 1.388 . S
C243 C242 1.366 . S
C243 C247 1.385 . S
C244 H225 0.951 . S
C244 C242 1.388 . S
C244 C245 1.366 . S
C245 C244 1.366 . S
C245 C246 1.414 . S
C245 C248 1.499 . S
C246 H226 0.950 . S
C246 C245 1.414 . S
C246 C247 1.374 . S
C247 H227 0.950 . S
C247 C243 1.385 . S
C247 C246 1.374 . S
C248 C245 1.499 . S
C248 C249 1.373 . S
C248 C250 1.389 . S
C249 H228 0.950 . S
C249 C248 1.373 . S
C249 C265 1.377 . S
C250 C248 1.389 . S
C250 C251 1.524 . S
C250 C264 1.377 . S
C251 C250 1.524 . S
C251 C252 1.397 . S
C251 C256 1.363 . S
C252 H229 0.950 . S
C252 C251 1.397 . S
C252 C253 1.334 . S
C253 H230 0.950 . S
C253 C252 1.334 . S
C253 C254 1.287 . S
C254 C253 1.287 . S
C254 C255 1.524 . S
C254 H273 0.913 . S
C255 H231 0.950 . S
C255 C254 1.524 . S
C255 C256 1.415 . S
C256 H232 0.950 . S
C256 C251 1.363 . S
C256 C255 1.415 . S
C257 H233 0.951 . S
C257 C258 1.366 . S
C257 C259 1.388 . S
C258 C257 1.366 . S
C258 C262 1.385 . S
C259 H234 0.951 . S
C259 C257 1.388 . S
C259 C260 1.366 . S
C260 C259 1.366 . S
C260 C261 1.414 . S
C260 C263 1.499 . S
C261 H235 0.950 . S
C261 C260 1.414 . S
C261 C262 1.374 . S
C262 H236 0.950 . S
C262 C258 1.385 . S
C262 C261 1.374 . S
C263 C260 1.499 . S
C263 C264 1.373 . S
C263 C265 1.389 . S
C264 H237 0.950 . S
C264 C250 1.377 . S
C264 C263 1.373 . S
C265 C249 1.377 . S
C265 C263 1.389 . S
C265 C266 1.524 . S
C266 C265 1.524 . S
C266 C267 1.397 . S
C266 C271 1.363 . S
C267 H238 0.950 . S
C267 C266 1.397 . S
C267 C268 1.334 . S
C268 H239 0.950 . S
C268 C267 1.334 . S
C268 C269 1.287 . S
C269 C268 1.287 . S
C269 C270 1.524 . S
C269 H272 0.999 . S
C270 H240 0.950 . S
C270 C269 1.524 . S
C270 C271 1.415 . S
C271 H241 0.950 . S
C271 C266 1.363 . S
C271 C270 1.415 . S
H272 C269 0.999 . S
H273 C254 0.913 . S
H274 C292 0.951 . S
H275 C294 0.951 . S
H276 C296 0.950 . S
H277 C297 0.950 . S
H278 C299 0.950 . S
H279 C302 0.950 . S
H280 C303 0.950 . S
H281 C305 0.950 . S
H282 C306 0.950 . S
H283 C307 0.951 . S
H284 C309 0.951 . S
H285 C311 0.950 . S
H286 C312 0.950 . S
H287 C314 0.950 . S
H288 C317 0.950 . S
H289 C318 0.950 . S
H290 C320 0.950 . S
H291 C321 0.950 . S
C292 H274 0.951 . S
C292 C293 1.366 . S
C292 C294 1.388 . S
C293 C292 1.366 . S
C293 C297 1.385 . S
C294 H275 0.951 . S
C294 C292 1.388 . S
C294 C295 1.366 . S
C295 C294 1.366 . S
C295 C296 1.414 . S
C295 C298 1.499 . S
C296 H276 0.950 . S
C296 C295 1.414 . S
C296 C297 1.374 . S
C297 H277 0.950 . S
C297 C293 1.385 . S
C297 C296 1.374 . S
C298 C295 1.499 . S
C298 C299 1.373 . S
C298 C300 1.389 . S
C299 H278 0.950 . S
C299 C298 1.373 . S
C299 C315 1.377 . S
C300 C298 1.389 . S
C300 C301 1.524 . S
C300 C314 1.377 . S
C301 C300 1.524 . S
C301 C302 1.397 . S
C301 C306 1.363 . S
C302 H279 0.950 . S
C302 C301 1.397 . S
C302 C303 1.334 . S
C303 H280 0.950 . S
C303 C302 1.334 . S
C303 C304 1.287 . S
C304 C303 1.287 . S
C304 C305 1.524 . S
C304 H323 0.913 . S
C305 H281 0.950 . S
C305 C304 1.524 . S
C305 C306 1.415 . S
C306 H282 0.950 . S
C306 C301 1.363 . S
C306 C305 1.415 . S
C307 H283 0.951 . S
C307 C308 1.366 . S
C307 C309 1.388 . S
C308 C307 1.366 . S
C308 C312 1.385 . S
C309 H284 0.951 . S
C309 C307 1.388 . S
C309 C310 1.366 . S
C310 C309 1.366 . S
C310 C311 1.414 . S
C310 C313 1.499 . S
C311 H285 0.950 . S
C311 C310 1.414 . S
C311 C312 1.374 . S
C312 H286 0.950 . S
C312 C308 1.385 . S
C312 C311 1.374 . S
C313 C310 1.499 . S
C313 C314 1.373 . S
C313 C315 1.389 . S
C314 H287 0.950 . S
C314 C300 1.377 . S
C314 C313 1.373 . S
C315 C299 1.377 . S
C315 C313 1.389 . S
C315 C316 1.524 . S
C316 C315 1.524 . S
C316 C317 1.397 . S
C316 C321 1.363 . S
C317 H288 0.950 . S
C317 C316 1.397 . S
C317 C318 1.334 . S
C318 H289 0.950 . S
C318 C317 1.334 . S
C318 C319 1.287 . S
C319 C318 1.287 . S
C319 C320 1.524 . S
C319 H322 0.999 . S
C320 H290 0.950 . S
C320 C319 1.524 . S
C320 C321 1.415 . S
C321 H291 0.950 . S
C321 C316 1.363 . S
C321 C320 1.415 . S
H322 C319 0.999 . S
H323 C304 0.913 . S
H324 C342 0.951 . S
H325 C344 0.951 . S
H326 C346 0.950 . S
H327 C347 0.950 . S
H328 C349 0.950 . S
H329 C352 0.950 . S
H330 C353 0.950 . S
H331 C355 0.950 . S
H332 C356 0.950 . S
H333 C357 0.951 . S
H334 C359 0.951 . S
H335 C361 0.950 . S
H336 C362 0.950 . S
H337 C364 0.950 . S
H338 C367 0.950 . S
H339 C368 0.950 . S
H340 C370 0.950 . S
H341 C371 0.950 . S
C342 H324 0.951 . S
C342 C343 1.366 . S
C342 C344 1.388 . S
C343 C342 1.366 . S
C343 C347 1.385 . S
C344 H325 0.951 . S
C344 C342 1.388 . S
C344 C345 1.366 . S
C345 C344 1.366 . S
C345 C346 1.414 . S
C345 C348 1.499 . S
C346 H326 0.950 . S
C346 C345 1.414 . S
C346 C347 1.374 . S
C347 H327 0.950 . S
C347 C343 1.385 . S
C347 C346 1.374 . S
C348 C345 1.499 . S
C348 C349 1.373 . S
C348 C350 1.389 . S
C349 H328 0.950 . S
C349 C348 1.373 . S
C349 C365 1.377 . S
C350 C348 1.389 . S
C350 C351 1.524 . S
C350 C364 1.377 . S
C351 C350 1.524 . S
C351 C352 1.397 . S
C351 C356 1.363 . S
C352 H329 0.950 . S
C352 C351 1.397 . S
C352 C353 1.334 . S
C353 H330 0.950 . S
C353 C352 1.334 . S
C353 C354 1.287 . S
C354 C353 1.287 . S
C354 C355 1.524 . S
C354 H373 0.913 . S
C355 H331 0.950 . S
C355 C354 1.524 . S
C355 C356 1.415 . S
C356 H332 0.950 . S
C356 C351 1.363 . S
C356 C355 1.415 . S
C357 H333 0.951 . S
C357 C358 1.366 . S
C357 C359 1.388 . S
C358 C357 1.366 . S
C358 C362 1.385 . S
C359 H334 0.951 . S
C359 C357 1.388 . S
C359 C360 1.366 . S
C360 C359 1.366 . S
C360 C361 1.414 . S
C360 C363 1.499 . S
C361 H335 0.950 . S
C361 C360 1.414 . S
C361 C362 1.374 . S
C362 H336 0.950 . S
C362 C358 1.385 . S
C362 C361 1.374 . S
C363 C360 1.499 . S
C363 C364 1.373 . S
C363 C365 1.389 . S
C364 H337 0.950 . S
C364 C350 1.377 . S
C364 C363 1.373 . S
C365 C349 1.377 . S
C365 C363 1.389 . S
C365 C366 1.524 . S
C366 C365 1.524 . S
C366 C367 1.397 . S
C366 C371 1.363 . S
C367 H338 0.950 . S
C367 C366 1.397 . S
C367 C368 1.334 . S
C368 H339 0.950 . S
C368 C367 1.334 . S
C368 C369 1.287 . S
C369 C368 1.287 . S
C369 C370 1.524 . S
C369 H372 0.999 . S
C370 H340 0.950 . S
C370 C369 1.524 . S
C370 C371 1.415 . S
C371 H341 0.950 . S
C371 C366 1.363 . S
C371 C370 1.415 . S
H372 C369 0.999 . S
H373 C354 0.913 . S
H374 C392 0.951 . S
H375 C394 0.951 . S
H376 C396 0.950 . S
H377 C397 0.950 . S
H378 C399 0.950 . S
H379 C402 0.950 . S
H380 C403 0.950 . S
H381 C405 0.950 . S
H382 C406 0.950 . S
H383 C407 0.951 . S
H384 C409 0.951 . S
H385 C411 0.950 . S
H386 C412 0.950 . S
H387 C414 0.950 . S
H388 C417 0.950 . S
H389 C418 0.950 . S
H390 C420 0.950 1_565 S
H391 C421 0.950 . S
C392 H374 0.951 . S
C392 C393 1.366 . S
C392 C394 1.388 . S
C393 C392 1.366 . S
C393 C397 1.385 . S
C394 H375 0.951 . S
C394 C392 1.388 . S
C394 C395 1.366 . S
C395 C394 1.366 . S
C395 C396 1.414 . S
C395 C398 1.499 . S
C396 H376 0.950 . S
C396 C395 1.414 . S
C396 C397 1.374 . S
C397 H377 0.950 . S
C397 C393 1.385 . S
C397 C396 1.374 . S
C398 C395 1.499 . S
C398 C399 1.373 . S
C398 C400 1.389 . S
C399 H378 0.950 . S
C399 C398 1.373 . S
C399 C415 1.377 1_455 S
C400 C398 1.389 . S
C400 C401 1.524 . S
C400 C414 1.377 1_455 S
C401 C400 1.524 . S
C401 C402 1.397 . S
C401 C406 1.363 . S
C402 H379 0.950 . S
C402 C401 1.397 . S
C402 C403 1.334 . S
C403 H380 0.950 . S
C403 C402 1.334 . S
C403 C404 1.287 . S
C404 C403 1.287 . S
C404 C405 1.524 . S
C404 H423 0.913 . S
C405 H381 0.950 . S
C405 C404 1.524 . S
C405 C406 1.415 . S
C406 H382 0.950 . S
C406 C401 1.363 . S
C406 C405 1.415 . S
C407 H383 0.951 . S
C407 C408 1.366 . S
C407 C409 1.388 . S
C408 C407 1.366 . S
C408 C412 1.385 . S
C409 H384 0.951 . S
C409 C407 1.388 . S
C409 C410 1.366 . S
C410 C409 1.366 . S
C410 C411 1.414 . S
C410 C413 1.499 . S
C411 H385 0.950 . S
C411 C410 1.414 . S
C411 C412 1.374 . S
C412 H386 0.950 . S
C412 C408 1.385 . S
C412 C411 1.374 . S
C413 C410 1.499 . S
C413 C414 1.373 . S
C413 C415 1.389 . S
C414 H387 0.950 . S
C414 C400 1.377 1_655 S
C414 C413 1.373 . S
C415 C399 1.377 1_655 S
C415 C413 1.389 . S
C415 C416 1.524 . S
C416 C415 1.524 . S
C416 C417 1.397 . S
C416 C421 1.363 . S
C417 H388 0.950 . S
C417 C416 1.397 . S
C417 C418 1.334 . S
C418 H389 0.950 . S
C418 C417 1.334 . S
C418 C419 1.287 . S
C419 C418 1.287 . S
C419 C420 1.524 . S
C419 H422 0.999 . S
C420 H390 0.950 1_545 S
C420 C419 1.524 . S
C420 C421 1.415 . S
C421 H391 0.950 . S
C421 C416 1.363 . S
C421 C420 1.415 . S
H422 C419 0.999 . S
H423 C404 0.913 . S
H424 C442 0.951 . S
H425 C444 0.951 . S
H426 C446 0.950 . S
H427 C447 0.950 . S
H428 C449 0.950 . S
H429 C452 0.950 . S
H430 C453 0.950 . S
H431 C455 0.950 . S
H432 C456 0.950 . S
H433 C457 0.951 . S
H434 C459 0.951 . S
H435 C461 0.950 . S
H436 C462 0.950 . S
H437 C464 0.950 . S
H438 C467 0.950 . S
H439 C468 0.950 . S
H440 C470 0.950 . S
H441 C471 0.950 . S
C442 H424 0.951 . S
C442 C443 1.366 . S
C442 C444 1.388 . S
C443 C442 1.366 . S
C443 C447 1.385 . S
C444 H425 0.951 . S
C444 C442 1.388 . S
C444 C445 1.366 . S
C445 C444 1.366 . S
C445 C446 1.414 . S
C445 C448 1.499 . S
C446 H426 0.950 . S
C446 C445 1.414 . S
C446 C447 1.374 . S
C447 H427 0.950 . S
C447 C443 1.385 . S
C447 C446 1.374 . S
C448 C445 1.499 . S
C448 C449 1.373 . S
C448 C450 1.389 . S
C449 H428 0.950 . S
C449 C448 1.373 . S
C449 C465 1.377 . S
C450 C448 1.389 . S
C450 C451 1.524 . S
C450 C464 1.377 . S
C451 C450 1.524 . S
C451 C452 1.397 . S
C451 C456 1.363 . S
C452 H429 0.950 . S
C452 C451 1.397 . S
C452 C453 1.334 . S
C453 H430 0.950 . S
C453 C452 1.334 . S
C453 C454 1.287 . S
C454 C453 1.287 . S
C454 C455 1.524 . S
C454 H473 0.913 . S
C455 H431 0.950 . S
C455 C454 1.524 . S
C455 C456 1.415 . S
C456 H432 0.950 . S
C456 C451 1.363 . S
C456 C455 1.415 . S
C457 H433 0.951 . S
C457 C458 1.366 . S
C457 C459 1.388 . S
C458 C457 1.366 . S
C458 C462 1.385 . S
C459 H434 0.951 . S
C459 C457 1.388 . S
C459 C460 1.366 . S
C460 C459 1.366 . S
C460 C461 1.414 . S
C460 C463 1.499 . S
C461 H435 0.950 . S
C461 C460 1.414 . S
C461 C462 1.374 . S
C462 H436 0.950 . S
C462 C458 1.385 . S
C462 C461 1.374 . S
C463 C460 1.499 . S
C463 C464 1.373 . S
C463 C465 1.389 . S
C464 H437 0.950 . S
C464 C450 1.377 . S
C464 C463 1.373 . S
C465 C449 1.377 . S
C465 C463 1.389 . S
C465 C466 1.524 . S
C466 C465 1.524 . S
C466 C467 1.397 . S
C466 C471 1.363 . S
C467 H438 0.950 . S
C467 C466 1.397 . S
C467 C468 1.334 . S
C468 H439 0.950 . S
C468 C467 1.334 . S
C468 C469 1.287 . S
C469 C468 1.287 . S
C469 C470 1.524 . S
C469 H472 0.999 . S
C470 H440 0.950 . S
C470 C469 1.524 . S
C470 C471 1.415 . S
C471 H441 0.950 . S
C471 C466 1.363 . S
C471 C470 1.415 . S
H472 C469 0.999 . S
H473 C454 0.913 . S
H474 C492 0.951 . S
H475 C494 0.951 . S
H476 C496 0.950 . S
H477 C497 0.950 . S
H478 C499 0.950 . S
H479 C502 0.950 . S
H480 C503 0.950 . S
H481 C505 0.950 . S
H482 C506 0.950 . S
H483 C507 0.951 . S
H484 C509 0.951 . S
H485 C511 0.950 . S
H486 C512 0.950 . S
H487 C514 0.950 . S
H488 C517 0.950 . S
H489 C518 0.950 . S
H490 C520 0.950 . S
H491 C521 0.956 . S
C492 H474 0.951 . S
C492 C493 1.366 . S
C492 C494 1.388 . S
C493 C492 1.366 . S
C493 C497 1.385 . S
C494 H475 0.951 . S
C494 C492 1.388 . S
C494 C495 1.366 . S
C495 C494 1.366 . S
C495 C496 1.414 . S
C495 C498 1.499 . S
C496 H476 0.950 . S
C496 C495 1.414 . S
C496 C497 1.374 . S
C497 H477 0.950 . S
C497 C493 1.385 . S
C497 C496 1.374 . S
C498 C495 1.499 . S
C498 C499 1.373 . S
C498 C500 1.389 . S
C499 H478 0.950 . S
C499 C498 1.373 . S
C499 C515 1.377 1_655 S
C500 C498 1.389 . S
C500 C501 1.524 . S
C500 C514 1.377 1_655 S
C501 C500 1.524 . S
C501 C502 1.397 . S
C501 C506 1.363 . S
C502 H479 0.950 . S
C502 C501 1.397 . S
C502 C503 1.334 . S
C503 H480 0.950 . S
C503 C502 1.334 . S
C503 C504 1.287 . S
C504 C503 1.287 . S
C504 C505 1.524 . S
C504 H523 0.913 . S
C505 H481 0.950 . S
C505 C504 1.524 . S
C505 C506 1.415 . S
C506 H482 0.950 . S
C506 C501 1.363 . S
C506 C505 1.415 . S
C507 H483 0.951 . S
C507 C508 1.366 . S
C507 C509 1.388 . S
C508 C507 1.366 . S
C508 C512 1.385 . S
C509 H484 0.951 . S
C509 C507 1.388 . S
C509 C510 1.366 . S
C510 C509 1.366 . S
C510 C511 1.414 . S
C510 C513 1.499 . S
C511 H485 0.950 . S
C511 C510 1.414 . S
C511 C512 1.374 . S
C512 H486 0.950 . S
C512 C508 1.385 . S
C512 C511 1.374 . S
C513 C510 1.499 . S
C513 C514 1.373 . S
C513 C515 1.389 . S
C514 H487 0.950 . S
C514 C500 1.377 1_455 S
C514 C513 1.373 . S
C515 C499 1.377 1_455 S
C515 C513 1.389 . S
C515 C516 1.524 . S
C516 C515 1.524 . S
C516 C517 1.397 . S
C516 C521 1.363 . S
C517 H488 0.950 . S
C517 C516 1.397 . S
C517 C518 1.334 . S
C518 H489 0.950 . S
C518 C517 1.334 . S
C518 C519 1.287 . S
C519 C518 1.287 . S
C519 C520 1.524 . S
C519 H522 0.999 . S
C520 H490 0.950 . S
C520 C519 1.524 . S
C520 C521 1.415 . S
C521 H491 0.956 . S
C521 C516 1.363 . S
C521 C520 1.415 . S
H522 C519 0.999 . S
H523 C504 0.913 . S
H524 C542 0.951 . S
H525 C544 0.951 . S
H526 C546 0.950 . S
H527 C547 0.950 . S
H528 C549 0.950 . S
H529 C552 0.950 . S
H530 C553 0.950 . S
H531 C555 0.950 . S
H532 C556 0.950 . S
H533 C557 0.951 . S
H534 C559 0.951 . S
H535 C561 0.950 . S
H536 C562 0.950 . S
H537 C564 0.950 . S
H538 C567 0.950 . S
H539 C568 0.950 . S
H540 C570 0.950 . S
H541 C571 0.950 . S
C542 H524 0.951 . S
C542 C543 1.366 . S
C542 C544 1.388 . S
C543 C542 1.366 . S
C543 C547 1.385 . S
C544 H525 0.951 . S
C544 C542 1.388 . S
C544 C545 1.366 . S
C545 C544 1.366 . S
C545 C546 1.414 . S
C545 C548 1.499 . S
C546 H526 0.950 . S
C546 C545 1.414 . S
C546 C547 1.374 . S
C547 H527 0.950 . S
C547 C543 1.385 . S
C547 C546 1.374 . S
C548 C545 1.499 . S
C548 C549 1.373 . S
C548 C550 1.389 . S
C549 H528 0.950 . S
C549 C548 1.373 . S
C549 C565 1.377 . S
C550 C548 1.389 . S
C550 C551 1.524 . S
C550 C564 1.377 . S
C551 C550 1.524 . S
C551 C552 1.397 . S
C551 C556 1.363 . S
C552 H529 0.950 . S
C552 C551 1.397 . S
C552 C553 1.334 . S
C553 H530 0.950 . S
C553 C552 1.334 . S
C553 C554 1.287 . S
C554 C553 1.287 . S
C554 C555 1.524 . S
C554 H573 0.913 . S
C555 H531 0.950 . S
C555 C554 1.524 . S
C555 C556 1.415 . S
C556 H532 0.950 . S
C556 C551 1.363 . S
C556 C555 1.415 . S
C557 H533 0.951 . S
C557 C558 1.366 . S
C557 C559 1.388 . S
C558 C557 1.366 . S
C558 C562 1.385 . S
C559 H534 0.951 . S
C559 C557 1.388 . S
C559 C560 1.366 . S
C560 C559 1.366 . S
C560 C561 1.414 . S
C560 C563 1.499 . S
C561 H535 0.950 . S
C561 C560 1.414 . S
C561 C562 1.374 . S
C562 H536 0.950 . S
C562 C558 1.385 . S
C562 C561 1.374 . S
C563 C560 1.499 . S
C563 C564 1.373 . S
C563 C565 1.389 . S
C564 H537 0.950 . S
C564 C550 1.377 . S
C564 C563 1.373 . S
C565 C549 1.377 . S
C565 C563 1.389 . S
C565 C566 1.524 . S
C566 C565 1.524 . S
C566 C567 1.397 . S
C566 C571 1.363 . S
C567 H538 0.950 . S
C567 C566 1.397 . S
C567 C568 1.334 . S
C568 H539 0.950 . S
C568 C567 1.334 . S
C568 C569 1.287 . S
C569 C568 1.287 . S
C569 C570 1.524 . S
C569 H572 0.999 . S
C570 H540 0.950 . S
C570 C569 1.524 . S
C570 C571 1.415 . S
C571 H541 0.950 . S
C571 C566 1.363 . S
C571 C570 1.415 . S
H572 C569 0.999 . S
H573 C554 0.913 . S
H574 C592 0.951 . S
H575 C594 0.951 . S
H576 C596 0.950 . S
H577 C597 0.950 . S
H578 C599 0.950 . S
H579 C602 0.950 . S
H580 C603 0.950 . S
H581 C605 0.950 . S
H582 C606 0.950 . S
H583 C607 0.951 . S
H584 C609 0.951 . S
H585 C611 0.950 . S
H586 C612 0.950 . S
H587 C614 0.950 . S
H588 C617 0.950 . S
H589 C618 0.950 . S
H590 C620 0.950 . S
H591 C621 0.950 . S
C592 H574 0.951 . S
C592 C593 1.366 . S
C592 C594 1.388 . S
C593 C592 1.366 . S
C593 C597 1.385 . S
C594 H575 0.951 . S
C594 C592 1.388 . S
C594 C595 1.366 . S
C595 C594 1.366 . S
C595 C596 1.414 . S
C595 C598 1.499 . S
C596 H576 0.950 . S
C596 C595 1.414 . S
C596 C597 1.374 . S
C597 H577 0.950 . S
C597 C593 1.385 . S
C597 C596 1.374 . S
C598 C595 1.499 . S
C598 C599 1.373 . S
C598 C600 1.389 . S
C599 H578 0.950 . S
C599 C598 1.373 . S
C599 C615 1.377 . S
C600 C598 1.389 . S
C600 C601 1.524 . S
C600 C614 1.377 . S
C601 C600 1.524 . S
C601 C602 1.397 . S
C601 C606 1.363 . S
C602 H579 0.950 . S
C602 C601 1.397 . S
C602 C603 1.334 . S
C603 H580 0.950 . S
C603 C602 1.334 . S
C603 C604 1.287 . S
C604 C603 1.287 . S
C604 C605 1.524 . S
C604 H623 0.913 . S
C605 H581 0.950 . S
C605 C604 1.524 . S
C605 C606 1.415 . S
C606 H582 0.950 . S
C606 C601 1.363 . S
C606 C605 1.415 . S
C607 H583 0.951 . S
C607 C608 1.366 . S
C607 C609 1.388 . S
C608 C607 1.366 . S
C608 C612 1.385 . S
C609 H584 0.951 . S
C609 C607 1.388 . S
C609 C610 1.366 . S
C610 C609 1.366 . S
C610 C611 1.414 . S
C610 C613 1.499 . S
C611 H585 0.950 . S
C611 C610 1.414 . S
C611 C612 1.374 . S
C612 H586 0.950 . S
C612 C608 1.385 . S
C612 C611 1.374 . S
C613 C610 1.499 . S
C613 C614 1.373 . S
C613 C615 1.389 . S
C614 H587 0.950 . S
C614 C600 1.377 . S
C614 C613 1.373 . S
C615 C599 1.377 . S
C615 C613 1.389 . S
C615 C616 1.524 . S
C616 C615 1.524 . S
C616 C617 1.397 . S
C616 C621 1.363 . S
C617 H588 0.950 . S
C617 C616 1.397 . S
C617 C618 1.334 . S
C618 H589 0.950 . S
C618 C617 1.334 . S
C618 C619 1.287 . S
C619 C618 1.287 . S
C619 C620 1.524 . S
C619 H622 0.999 . S
C620 H590 0.950 . S
C620 C619 1.524 . S
C620 C621 1.415 . S
C621 H591 0.950 . S
C621 C616 1.363 . S
C621 C620 1.415 . S
H622 C619 0.999 . S
H623 C604 0.913 . S
H624 C642 0.951 . S
H625 C644 0.951 . S
H626 C646 0.950 . S
H627 C647 0.950 . S
H628 C649 0.950 . S
H629 C652 0.950 . S
H630 C653 0.950 . S
H631 C655 0.950 . S
H632 C656 0.950 . S
H633 C657 0.951 . S
H634 C659 0.951 . S
H635 C661 0.950 . S
H636 C662 0.950 . S
H637 C664 0.950 . S
H638 C667 0.950 . S
H639 C668 0.950 . S
H640 C670 0.950 . S
H641 C671 0.950 . S
C642 H624 0.951 . S
C642 C643 1.366 . S
C642 C644 1.388 . S
C643 C642 1.366 . S
C643 C647 1.385 . S
C644 H625 0.951 . S
C644 C642 1.388 . S
C644 C645 1.366 . S
C645 C644 1.366 . S
C645 C646 1.414 . S
C645 C648 1.499 . S
C646 H626 0.950 . S
C646 C645 1.414 . S
C646 C647 1.374 . S
C647 H627 0.950 . S
C647 C643 1.385 . S
C647 C646 1.374 . S
C648 C645 1.499 . S
C648 C649 1.373 . S
C648 C650 1.389 . S
C649 H628 0.950 . S
C649 C648 1.373 . S
C649 C665 1.377 . S
C650 C648 1.389 . S
C650 C651 1.524 . S
C650 C664 1.377 . S
C651 C650 1.524 . S
C651 C652 1.397 . S
C651 C656 1.363 . S
C652 H629 0.950 . S
C652 C651 1.397 . S
C652 C653 1.334 . S
C653 H630 0.950 . S
C653 C652 1.334 . S
C653 C654 1.287 . S
C654 C653 1.287 . S
C654 C655 1.524 . S
C654 H673 0.913 . S
C655 H631 0.950 . S
C655 C654 1.524 . S
C655 C656 1.415 . S
C656 H632 0.950 . S
C656 C651 1.363 . S
C656 C655 1.415 . S
C657 H633 0.951 . S
C657 C658 1.366 . S
C657 C659 1.388 . S
C658 C657 1.366 . S
C658 C662 1.385 . S
C659 H634 0.951 . S
C659 C657 1.388 . S
C659 C660 1.366 . S
C660 C659 1.366 . S
C660 C661 1.414 . S
C660 C663 1.499 . S
C661 H635 0.950 . S
C661 C660 1.414 . S
C661 C662 1.374 . S
C662 H636 0.950 . S
C662 C658 1.385 . S
C662 C661 1.374 . S
C663 C660 1.499 . S
C663 C664 1.373 . S
C663 C665 1.389 . S
C664 H637 0.950 . S
C664 C650 1.377 . S
C664 C663 1.373 . S
C665 C649 1.377 . S
C665 C663 1.389 . S
C665 C666 1.524 . S
C666 C665 1.524 . S
C666 C667 1.397 . S
C666 C671 1.363 . S
C667 H638 0.950 . S
C667 C666 1.397 . S
C667 C668 1.334 . S
C668 H639 0.950 . S
C668 C667 1.334 . S
C668 C669 1.287 . S
C669 C668 1.287 . S
C669 C670 1.524 . S
C669 H672 0.999 . S
C670 H640 0.950 . S
C670 C669 1.524 . S
C670 C671 1.415 . S
C671 H641 0.950 . S
C671 C666 1.363 . S
C671 C670 1.415 . S
H672 C669 0.999 . S
H673 C654 0.913 . S
H674 C692 0.951 . S
H675 C694 0.951 . S
H676 C696 0.950 . S
H677 C697 0.950 . S
H678 C699 0.950 . S
H679 C702 0.950 . S
H680 C703 0.950 . S
H681 C705 0.950 . S
H682 C706 0.950 . S
H683 C707 0.951 . S
H684 C709 0.951 . S
H685 C711 0.950 . S
H686 C712 0.950 . S
H687 C714 0.950 . S
H688 C717 0.950 . S
H689 C718 0.950 . S
H690 C720 0.950 . S
H691 C721 0.950 . S
C692 H674 0.951 . S
C692 C693 1.366 . S
C692 C694 1.388 . S
C693 C692 1.366 . S
C693 C697 1.385 . S
C694 H675 0.951 . S
C694 C692 1.388 . S
C694 C695 1.366 . S
C695 C694 1.366 . S
C695 C696 1.414 . S
C695 C698 1.499 . S
C696 H676 0.950 . S
C696 C695 1.414 . S
C696 C697 1.374 . S
C697 H677 0.950 . S
C697 C693 1.385 . S
C697 C696 1.374 . S
C698 C695 1.499 . S
C698 C699 1.373 . S
C698 C700 1.389 . S
C699 H678 0.950 . S
C699 C698 1.373 . S
C699 C715 1.377 . S
C700 C698 1.389 . S
C700 C701 1.524 . S
C700 C714 1.377 . S
C701 C700 1.524 . S
C701 C702 1.397 . S
C701 C706 1.363 . S
C702 H679 0.950 . S
C702 C701 1.397 . S
C702 C703 1.334 . S
C703 H680 0.950 . S
C703 C702 1.334 . S
C703 C704 1.287 . S
C704 C703 1.287 . S
C704 C705 1.524 . S
C704 H723 0.913 . S
C705 H681 0.950 . S
C705 C704 1.524 . S
C705 C706 1.415 . S
C706 H682 0.950 . S
C706 C701 1.363 . S
C706 C705 1.415 . S
C707 H683 0.951 . S
C707 C708 1.366 . S
C707 C709 1.388 . S
C708 C707 1.366 . S
C708 C712 1.385 . S
C709 H684 0.951 . S
C709 C707 1.388 . S
C709 C710 1.366 . S
C710 C709 1.366 . S
C710 C711 1.414 . S
C710 C713 1.499 . S
C711 H685 0.950 . S
C711 C710 1.414 . S
C711 C712 1.374 . S
C712 H686 0.950 . S
C712 C708 1.385 . S
C712 C711 1.374 . S
C713 C710 1.499 . S
C713 C714 1.373 . S
C713 C715 1.389 . S
C714 H687 0.950 . S
C714 C700 1.377 . S
C714 C713 1.373 . S
C715 C699 1.377 . S
C715 C713 1.389 . S
C715 C716 1.524 . S
C716 C715 1.524 . S
C716 C717 1.397 . S
C716 C721 1.363 . S
C717 H688 0.950 . S
C717 C716 1.397 . S
C717 C718 1.334 . S
C718 H689 0.950 . S
C718 C717 1.334 . S
C718 C719 1.287 . S
C719 C718 1.287 . S
C719 C720 1.524 . S
C719 H722 0.999 . S
C720 H690 0.950 . S
C720 C719 1.524 . S
C720 C721 1.415 . S
C721 H691 0.950 . S
C721 C716 1.363 . S
C721 C720 1.415 . S
H722 C719 0.999 . S
H723 C704 0.913 . S
H724 C742 0.951 . S
H725 C744 0.951 . S
H726 C746 0.950 . S
H727 C747 0.950 . S
H728 C749 0.950 . S
H729 C752 0.950 . S
H730 C753 0.950 . S
H731 C755 0.950 . S
H732 C756 0.950 . S
H733 C757 0.951 . S
H734 C759 0.951 . S
H735 C761 0.950 . S
H736 C762 0.950 . S
H737 C764 0.950 . S
H738 C767 0.950 . S
H739 C768 0.950 . S
H740 C770 0.950 . S
H741 C771 0.950 . S
C742 H724 0.951 . S
C742 C743 1.366 . S
C742 C744 1.388 . S
C743 C742 1.366 . S
C743 C747 1.385 . S
C744 H725 0.951 . S
C744 C742 1.388 . S
C744 C745 1.366 . S
C745 C744 1.366 . S
C745 C746 1.414 . S
C745 C748 1.499 . S
C746 H726 0.950 . S
C746 C745 1.414 . S
C746 C747 1.374 . S
C747 H727 0.950 . S
C747 C743 1.385 . S
C747 C746 1.374 . S
C748 C745 1.499 . S
C748 C749 1.373 . S
C748 C750 1.389 . S
C749 H728 0.950 . S
C749 C748 1.373 . S
C749 C765 1.377 . S
C750 C748 1.389 . S
C750 C751 1.524 . S
C750 C764 1.377 . S
C751 C750 1.524 . S
C751 C752 1.397 . S
C751 C756 1.363 . S
C752 H729 0.950 . S
C752 C751 1.397 . S
C752 C753 1.334 . S
C753 H730 0.950 . S
C753 C752 1.334 . S
C753 C754 1.287 . S
C754 C753 1.287 . S
C754 C755 1.524 . S
C754 H773 0.913 . S
C755 H731 0.950 . S
C755 C754 1.524 . S
C755 C756 1.415 . S
C756 H732 0.950 . S
C756 C751 1.363 . S
C756 C755 1.415 . S
C757 H733 0.951 . S
C757 C758 1.366 . S
C757 C759 1.388 . S
C758 C757 1.366 . S
C758 C762 1.385 . S
C759 H734 0.951 . S
C759 C757 1.388 . S
C759 C760 1.366 . S
C760 C759 1.366 . S
C760 C761 1.414 . S
C760 C763 1.499 . S
C761 H735 0.950 . S
C761 C760 1.414 . S
C761 C762 1.374 . S
C762 H736 0.950 . S
C762 C758 1.385 . S
C762 C761 1.374 . S
C763 C760 1.499 . S
C763 C764 1.373 . S
C763 C765 1.389 . S
C764 H737 0.950 . S
C764 C750 1.377 . S
C764 C763 1.373 . S
C765 C749 1.377 . S
C765 C763 1.389 . S
C765 C766 1.524 . S
C766 C765 1.524 . S
C766 C767 1.397 . S
C766 C771 1.363 . S
C767 H738 0.950 . S
C767 C766 1.397 . S
C767 C768 1.334 . S
C768 H739 0.950 . S
C768 C767 1.334 . S
C768 C769 1.287 . S
C769 C768 1.287 . S
C769 C770 1.524 . S
C769 H772 0.999 . S
C770 H740 0.950 . S
C770 C769 1.524 . S
C770 C771 1.415 . S
C771 H741 0.950 . S
C771 C766 1.363 . S
C771 C770 1.415 . S
H772 C769 0.999 . S
H773 C754 0.913 . S
H774 C792 0.951 . S
H775 C794 0.951 . S
H776 C796 0.950 . S
H777 C797 0.950 . S
H778 C799 0.950 . S
H779 C802 0.950 . S
H780 C803 0.950 . S
H781 C805 0.950 . S
H782 C806 0.950 . S
H783 C807 0.951 . S
H784 C809 0.951 . S
H785 C811 0.950 . S
H786 C812 0.950 . S
H787 C814 0.950 . S
H788 C817 0.950 . S
H789 C818 0.950 . S
H790 C820 0.950 . S
H791 C821 0.950 . S
C792 H774 0.951 . S
C792 C793 1.366 . S
C792 C794 1.388 . S
C793 C792 1.366 . S
C793 C797 1.385 . S
C794 H775 0.951 . S
C794 C792 1.388 . S
C794 C795 1.366 . S
C795 C794 1.366 . S
C795 C796 1.414 . S
C795 C798 1.499 . S
C796 H776 0.950 . S
C796 C795 1.414 . S
C796 C797 1.374 . S
C797 H777 0.950 . S
C797 C793 1.385 . S
C797 C796 1.374 . S
C798 C795 1.499 . S
C798 C799 1.373 . S
C798 C800 1.389 . S
C799 H778 0.950 . S
C799 C798 1.373 . S
C799 C815 1.377 . S
C800 C798 1.389 . S
C800 C801 1.524 . S
C800 C814 1.377 . S
C801 C800 1.524 . S
C801 C802 1.397 . S
C801 C806 1.363 . S
C802 H779 0.950 . S
C802 C801 1.397 . S
C802 C803 1.334 . S
C803 H780 0.950 . S
C803 C802 1.334 . S
C803 C804 1.287 . S
C804 C803 1.287 . S
C804 C805 1.524 . S
C804 H823 0.913 . S
C805 H781 0.950 . S
C805 C804 1.524 . S
C805 C806 1.415 . S
C806 H782 0.950 . S
C806 C801 1.363 . S
C806 C805 1.415 . S
C807 H783 0.951 . S
C807 C808 1.366 . S
C807 C809 1.388 . S
C808 C807 1.366 . S
C808 C812 1.385 . S
C809 H784 0.951 . S
C809 C807 1.388 . S
C809 C810 1.366 . S
C810 C809 1.366 . S
C810 C811 1.414 . S
C810 C813 1.499 . S
C811 H785 0.950 . S
C811 C810 1.414 . S
C811 C812 1.374 . S
C812 H786 0.950 . S
C812 C808 1.385 . S
C812 C811 1.374 . S
C813 C810 1.499 . S
C813 C814 1.373 . S
C813 C815 1.389 . S
C814 H787 0.950 . S
C814 C800 1.377 . S
C814 C813 1.373 . S
C815 C799 1.377 . S
C815 C813 1.389 . S
C815 C816 1.524 . S
C816 C815 1.524 . S
C816 C817 1.397 . S
C816 C821 1.363 . S
C817 H788 0.950 . S
C817 C816 1.397 . S
C817 C818 1.334 . S
C818 H789 0.950 . S
C818 C817 1.334 . S
C818 C819 1.287 . S
C819 C818 1.287 . S
C819 C820 1.524 . S
C819 H822 0.999 . S
C820 H790 0.950 . S
C820 C819 1.524 . S
C820 C821 1.415 . S
C821 H791 0.950 . S
C821 C816 1.363 . S
C821 C820 1.415 . S
H822 C819 0.999 . S
H823 C804 0.913 . S
H824 C842 0.951 . S
H825 C844 0.951 . S
H826 C846 0.950 . S
H827 C847 0.950 . S
H828 C849 0.950 . S
H829 C852 0.950 . S
H830 C853 0.950 . S
H831 C855 0.950 . S
H832 C856 0.950 . S
H833 C857 0.951 . S
H834 C859 0.951 . S
H835 C861 0.950 . S
H836 C862 0.950 . S
H837 C864 0.950 . S
H838 C867 0.950 . S
H839 C868 0.950 . S
H840 C870 0.950 . S
H841 C871 0.950 . S
C842 H824 0.951 . S
C842 C843 1.366 . S
C842 C844 1.388 . S
C843 C842 1.366 . S
C843 C847 1.385 . S
C844 H825 0.951 . S
C844 C842 1.388 . S
C844 C845 1.366 . S
C845 C844 1.366 . S
C845 C846 1.414 . S
C845 C848 1.499 . S
C846 H826 0.950 . S
C846 C845 1.414 . S
C846 C847 1.374 . S
C847 H827 0.950 . S
C847 C843 1.385 . S
C847 C846 1.374 . S
C848 C845 1.499 . S
C848 C849 1.373 . S
C848 C850 1.389 . S
C849 H828 0.950 . S
C849 C848 1.373 . S
C849 C865 1.377 1_455 S
C850 C848 1.389 . S
C850 C851 1.524 . S
C850 C864 1.377 1_455 S
C851 C850 1.524 . S
C851 C852 1.397 . S
C851 C856 1.363 . S
C852 H829 0.950 . S
C852 C851 1.397 . S
C852 C853 1.334 . S
C853 H830 0.950 . S
C853 C852 1.334 . S
C853 C854 1.287 . S
C854 C853 1.287 . S
C854 C855 1.524 . S
C854 H873 0.913 . S
C855 H831 0.950 . S
C855 C854 1.524 . S
C855 C856 1.415 . S
C856 H832 0.950 . S
C856 C851 1.363 . S
C856 C855 1.415 . S
C857 H833 0.951 . S
C857 C858 1.366 . S
C857 C859 1.388 . S
C858 C857 1.366 . S
C858 C862 1.385 . S
C859 H834 0.951 . S
C859 C857 1.388 . S
C859 C860 1.366 . S
C860 C859 1.366 . S
C860 C861 1.414 . S
C860 C863 1.499 . S
C861 H835 0.950 . S
C861 C860 1.414 . S
C861 C862 1.374 . S
C862 H836 0.950 . S
C862 C858 1.385 . S
C862 C861 1.374 . S
C863 C860 1.499 . S
C863 C864 1.373 . S
C863 C865 1.389 . S
C864 H837 0.950 . S
C864 C850 1.377 1_655 S
C864 C863 1.373 . S
C865 C849 1.377 1_655 S
C865 C863 1.389 . S
C865 C866 1.524 . S
C866 C865 1.524 . S
C866 C867 1.397 . S
C866 C871 1.363 . S
C867 H838 0.950 . S
C867 C866 1.397 . S
C867 C868 1.334 . S
C868 H839 0.950 . S
C868 C867 1.334 . S
C868 C869 1.287 . S
C869 C868 1.287 . S
C869 C870 1.524 . S
C869 H872 0.999 . S
C870 H840 0.950 . S
C870 C869 1.524 . S
C870 C871 1.415 . S
C871 H841 0.950 . S
C871 C866 1.363 . S
C871 C870 1.415 . S
H872 C869 0.999 . S
H873 C854 0.913 . S
H874 C892 0.951 . S
H875 C894 0.951 . S
H876 C896 0.950 . S
H877 C897 0.950 . S
H878 C899 0.950 . S
H879 C902 0.950 . S
H880 C903 0.950 . S
H881 C905 0.950 . S
H882 C906 0.950 . S
H883 C907 0.951 . S
H884 C909 0.951 . S
H885 C911 0.950 . S
H886 C912 0.950 . S
H887 C914 0.950 . S
H888 C917 0.950 . S
H889 C918 0.950 . S
H890 C920 0.950 . S
H891 C921 0.950 . S
C892 H874 0.951 . S
C892 C893 1.366 . S
C892 C894 1.388 . S
C893 C892 1.366 . S
C893 C897 1.385 . S
C894 H875 0.951 . S
C894 C892 1.388 . S
C894 C895 1.366 . S
C895 C894 1.366 . S
C895 C896 1.414 . S
C895 C898 1.499 . S
C896 H876 0.950 . S
C896 C895 1.414 . S
C896 C897 1.374 . S
C897 H877 0.950 . S
C897 C893 1.385 . S
C897 C896 1.374 . S
C898 C895 1.499 . S
C898 C899 1.373 . S
C898 C900 1.389 . S
C899 H878 0.950 . S
C899 C898 1.373 . S
C899 C915 1.377 . S
C900 C898 1.389 . S
C900 C901 1.524 . S
C900 C914 1.377 . S
C901 C900 1.524 . S
C901 C902 1.397 . S
C901 C906 1.363 . S
C902 H879 0.950 . S
C902 C901 1.397 . S
C902 C903 1.334 . S
C903 H880 0.950 . S
C903 C902 1.334 . S
C903 C904 1.287 . S
C904 C903 1.287 . S
C904 C905 1.524 . S
C904 H923 0.913 . S
C905 H881 0.950 . S
C905 C904 1.524 . S
C905 C906 1.415 . S
C906 H882 0.950 . S
C906 C901 1.363 . S
C906 C905 1.415 . S
C907 H883 0.951 . S
C907 C908 1.366 . S
C907 C909 1.388 . S
C908 C907 1.366 . S
C908 C912 1.385 . S
C909 H884 0.951 . S
C909 C907 1.388 . S
C909 C910 1.366 . S
C910 C909 1.366 . S
C910 C911 1.414 . S
C910 C913 1.499 . S
C911 H885 0.950 . S
C911 C910 1.414 . S
C911 C912 1.374 . S
C912 H886 0.950 . S
C912 C908 1.385 . S
C912 C911 1.374 . S
C913 C910 1.499 . S
C913 C914 1.373 . S
C913 C915 1.389 . S
C914 H887 0.950 . S
C914 C900 1.377 . S
C914 C913 1.373 . S
C915 C899 1.377 . S
C915 C913 1.389 . S
C915 C916 1.524 . S
C916 C915 1.524 . S
C916 C917 1.397 . S
C916 C921 1.363 . S
C917 H888 0.950 . S
C917 C916 1.397 . S
C917 C918 1.334 . S
C918 H889 0.950 . S
C918 C917 1.334 . S
C918 C919 1.287 . S
C919 C918 1.287 . S
C919 C920 1.524 . S
C919 H922 0.999 . S
C920 H890 0.950 . S
C920 C919 1.524 . S
C920 C921 1.415 . S
C921 H891 0.950 . S
C921 C916 1.363 . S
C921 C920 1.415 . S
H922 C919 0.999 . S
H923 C904 0.913 . S
H924 C942 0.951 . S
H925 C944 0.951 . S
H926 C946 0.950 . S
H927 C947 0.950 . S
H928 C949 0.950 . S
H929 C952 0.950 . S
H930 C953 0.950 . S
H931 C955 0.950 . S
H932 C956 0.950 . S
H933 C957 0.951 . S
H934 C959 0.951 . S
H935 C961 0.950 . S
H936 C962 0.950 . S
H937 C964 0.950 . S
H938 C967 0.950 . S
H939 C968 0.950 . S
H940 C970 0.950 . S
H941 C971 0.950 . S
C942 H924 0.951 . S
C942 C943 1.366 . S
C942 C944 1.388 . S
C943 C942 1.366 . S
C943 C947 1.385 . S
C944 H925 0.951 . S
C944 C942 1.388 . S
C944 C945 1.366 . S
C945 C944 1.366 . S
C945 C946 1.414 . S
C945 C948 1.499 . S
C946 H926 0.950 . S
C946 C945 1.414 . S
C946 C947 1.374 . S
C947 H927 0.950 . S
C947 C943 1.385 . S
C947 C946 1.374 . S
C948 C945 1.499 . S
C948 C949 1.373 . S
C948 C950 1.389 . S
C949 H928 0.950 . S
C949 C948 1.373 . S
C949 C965 1.377 . S
C950 C948 1.389 . S
C950 C951 1.524 . S
C950 C964 1.377 . S
C951 C950 1.524 . S
C951 C952 1.397 . S
C951 C956 1.363 . S
C952 H929 0.950 . S
C952 C951 1.397 . S
C952 C953 1.334 . S
C953 H930 0.950 . S
C953 C952 1.334 . S
C953 C954 1.287 . S
C954 C953 1.287 . S
C954 C955 1.524 . S
C954 H973 0.913 . S
C955 H931 0.950 . S
C955 C954 1.524 . S
C955 C956 1.415 . S
C956 H932 0.950 . S
C956 C951 1.363 . S
C956 C955 1.415 . S
C957 H933 0.951 . S
C957 C958 1.366 . S
C957 C959 1.388 . S
C958 C957 1.366 . S
C958 C962 1.385 . S
C959 H934 0.951 . S
C959 C957 1.388 . S
C959 C960 1.366 . S
C960 C959 1.366 . S
C960 C961 1.414 . S
C960 C963 1.499 . S
C961 H935 0.950 . S
C961 C960 1.414 . S
C961 C962 1.374 . S
C962 H936 0.950 . S
C962 C958 1.385 . S
C962 C961 1.374 . S
C963 C960 1.499 . S
C963 C964 1.373 . S
C963 C965 1.389 . S
C964 H937 0.950 . S
C964 C950 1.377 . S
C964 C963 1.373 . S
C965 C949 1.377 . S
C965 C963 1.389 . S
C965 C966 1.524 . S
C966 C965 1.524 . S
C966 C967 1.397 . S
C966 C971 1.363 . S
C967 H938 0.950 . S
C967 C966 1.397 . S
C967 C968 1.334 . S
C968 H939 0.950 . S
C968 C967 1.334 . S
C968 C969 1.287 . S
C969 C968 1.287 . S
C969 C970 1.524 . S
C969 H972 0.999 . S
C970 H940 0.950 . S
C970 C969 1.524 . S
C970 C971 1.415 . S
C971 H941 0.950 . S
C971 C966 1.363 . S
C971 C970 1.415 . S
H972 C969 0.999 . S
H973 C954 0.913 . S
H974 C992 0.951 . S
H975 C994 0.951 . S
H976 C996 0.950 . S
H977 C997 0.950 . S
H978 C999 0.950 . S
H979 C1002 0.950 . S
H980 C1003 0.950 . S
H981 C1005 0.950 . S
H982 C1006 0.950 . S
H983 C1007 0.951 . S
H984 C1009 0.951 . S
H985 C1011 0.950 . S
H986 C1012 0.950 . S
H987 C1014 0.950 . S
H988 C1017 0.950 . S
H989 C1018 0.950 . S
H990 C1020 0.950 . S
H991 C1021 0.950 . S
C992 H974 0.951 . S
C992 C993 1.366 . S
C992 C994 1.388 . S
C993 C992 1.366 . S
C993 C997 1.385 . S
C994 H975 0.951 . S
C994 C992 1.388 . S
C994 C995 1.366 . S
C995 C994 1.366 . S
C995 C996 1.414 . S
C995 C998 1.499 . S
C996 H976 0.950 . S
C996 C995 1.414 . S
C996 C997 1.374 . S
C997 H977 0.950 . S
C997 C993 1.385 . S
C997 C996 1.374 . S
C998 C995 1.499 . S
C998 C999 1.373 . S
C998 C1000 1.389 . S
C999 H978 0.950 . S
C999 C998 1.373 . S
C999 C1015 1.377 1_455 S
C1000 C998 1.389 . S
C1000 C1001 1.524 . S
C1000 C1014 1.377 1_455 S
C1001 C1000 1.524 . S
C1001 C1002 1.397 . S
C1001 C1006 1.363 . S
C1002 H979 0.950 . S
C1002 C1001 1.397 . S
C1002 C1003 1.334 . S
C1003 H980 0.950 . S
C1003 C1002 1.334 . S
C1003 C1004 1.287 . S
C1004 C1003 1.287 . S
C1004 C1005 1.524 . S
C1004 H1023 0.913 . S
C1005 H981 0.950 . S
C1005 C1004 1.524 . S
C1005 C1006 1.415 . S
C1006 H982 0.950 . S
C1006 C1001 1.363 . S
C1006 C1005 1.415 . S
C1007 H983 0.951 . S
C1007 C1008 1.366 . S
C1007 C1009 1.388 . S
C1008 C1007 1.366 . S
C1008 C1012 1.385 . S
C1009 H984 0.951 . S
C1009 C1007 1.388 . S
C1009 C1010 1.366 . S
C1010 C1009 1.366 . S
C1010 C1011 1.414 . S
C1010 C1013 1.499 . S
C1011 H985 0.950 . S
C1011 C1010 1.414 . S
C1011 C1012 1.374 . S
C1012 H986 0.950 . S
C1012 C1008 1.385 . S
C1012 C1011 1.374 . S
C1013 C1010 1.499 . S
C1013 C1014 1.373 . S
C1013 C1015 1.389 . S
C1014 H987 0.950 . S
C1014 C1000 1.377 1_655 S
C1014 C1013 1.373 . S
C1015 C999 1.377 1_655 S
C1015 C1013 1.389 . S
C1015 C1016 1.524 . S
C1016 C1015 1.524 . S
C1016 C1017 1.397 . S
C1016 C1021 1.363 . S
C1017 H988 0.950 . S
C1017 C1016 1.397 . S
C1017 C1018 1.334 . S
C1018 H989 0.950 . S
C1018 C1017 1.334 . S
C1018 C1019 1.287 . S
C1019 C1018 1.287 . S
C1019 C1020 1.524 . S
C1019 H1022 0.999 . S
C1020 H990 0.950 . S
C1020 C1019 1.524 . S
C1020 C1021 1.415 . S
C1021 H991 0.950 . S
C1021 C1016 1.363 . S
C1021 C1020 1.415 . S
H1022 C1019 0.999 . S
H1023 C1004 0.913 . S
H1024 C1042 0.951 . S
H1025 C1044 0.951 . S
H1026 C1046 0.950 . S
H1027 C1047 0.950 . S
H1028 C1049 0.950 . S
H1029 C1052 0.950 . S
H1030 C1053 0.950 . S
H1031 C1055 0.950 . S
H1032 C1056 0.950 . S
H1033 C1057 0.951 . S
H1034 C1059 0.951 . S
H1035 C1061 0.950 . S
H1036 C1062 0.950 . S
H1037 C1064 0.950 . S
H1038 C1067 0.950 . S
H1039 C1068 0.950 . S
H1040 C1070 0.950 . S
H1041 C1071 0.950 . S
C1042 H1024 0.951 . S
C1042 C1043 1.366 . S
C1042 C1044 1.388 . S
C1043 C1042 1.366 . S
C1043 C1047 1.385 . S
C1044 H1025 0.951 . S
C1044 C1042 1.388 . S
C1044 C1045 1.366 . S
C1045 C1044 1.366 . S
C1045 C1046 1.414 . S
C1045 C1048 1.499 . S
C1046 H1026 0.950 . S
C1046 C1045 1.414 . S
C1046 C1047 1.374 . S
C1047 H1027 0.950 . S
C1047 C1043 1.385 . S
C1047 C1046 1.374 . S
C1048 C1045 1.499 . S
C1048 C1049 1.373 . S
C1048 C1050 1.389 . S
C1049 H1028 0.950 . S
C1049 C1048 1.373 . S
C1049 C1065 1.377 1_554 S
C1050 C1048 1.389 . S
C1050 C1051 1.524 . S
C1050 C1064 1.377 1_554 S
C1051 C1050 1.524 . S
C1051 C1052 1.397 . S
C1051 C1056 1.363 . S
C1052 H1029 0.950 . S
C1052 C1051 1.397 . S
C1052 C1053 1.334 . S
C1053 H1030 0.950 . S
C1053 C1052 1.334 . S
C1053 C1054 1.287 . S
C1054 C1053 1.287 . S
C1054 C1055 1.524 . S
C1054 H1073 0.913 . S
C1055 H1031 0.950 . S
C1055 C1054 1.524 . S
C1055 C1056 1.415 . S
C1056 H1032 0.950 . S
C1056 C1051 1.363 . S
C1056 C1055 1.415 . S
C1057 H1033 0.951 . S
C1057 C1058 1.366 . S
C1057 C1059 1.388 . S
C1058 C1057 1.366 . S
C1058 C1062 1.385 . S
C1059 H1034 0.951 . S
C1059 C1057 1.388 . S
C1059 C1060 1.366 . S
C1060 C1059 1.366 . S
C1060 C1061 1.414 . S
C1060 C1063 1.499 . S
C1061 H1035 0.950 . S
C1061 C1060 1.414 . S
C1061 C1062 1.374 . S
C1062 H1036 0.950 . S
C1062 C1058 1.385 . S
C1062 C1061 1.374 . S
C1063 C1060 1.499 . S
C1063 C1064 1.373 . S
C1063 C1065 1.389 . S
C1064 H1037 0.950 . S
C1064 C1050 1.377 1_556 S
C1064 C1063 1.373 . S
C1065 C1049 1.377 1_556 S
C1065 C1063 1.389 . S
C1065 C1066 1.524 . S
C1066 C1065 1.524 . S
C1066 C1067 1.397 . S
C1066 C1071 1.363 . S
C1067 H1038 0.950 . S
C1067 C1066 1.397 . S
C1067 C1068 1.334 . S
C1068 H1039 0.950 . S
C1068 C1067 1.334 . S
C1068 C1069 1.287 . S
C1069 C1068 1.287 . S
C1069 C1070 1.524 . S
C1069 H1072 0.999 . S
C1070 H1040 0.950 . S
C1070 C1069 1.524 . S
C1070 C1071 1.415 . S
C1071 H1041 0.950 . S
C1071 C1066 1.363 . S
C1071 C1070 1.415 . S
H1072 C1069 0.999 . S
H1073 C1054 0.913 . S
H1074 C1092 0.951 . S
H1075 C1094 0.951 . S
H1076 C1096 0.950 . S
H1077 C1097 0.950 . S
H1078 C1099 0.950 . S
H1079 C1102 0.950 . S
H1080 C1103 0.950 . S
H1081 C1105 0.950 1_545 S
H1082 C1106 0.950 . S
H1083 C1107 0.951 . S
H1084 C1109 0.951 . S
H1085 C1111 0.950 . S
H1086 C1112 0.950 . S
H1087 C1114 0.950 . S
H1088 C1117 0.950 . S
H1089 C1118 0.950 . S
H1090 C1120 0.950 . S
H1091 C1121 0.950 . S
C1092 H1074 0.951 . S
C1092 C1093 1.366 . S
C1092 C1094 1.388 . S
C1093 C1092 1.366 . S
C1093 C1097 1.385 . S
C1094 H1075 0.951 . S
C1094 C1092 1.388 . S
C1094 C1095 1.366 . S
C1095 C1094 1.366 . S
C1095 C1096 1.414 . S
C1095 C1098 1.499 . S
C1096 H1076 0.950 . S
C1096 C1095 1.414 . S
C1096 C1097 1.374 . S
C1097 H1077 0.950 . S
C1097 C1093 1.385 . S
C1097 C1096 1.374 . S
C1098 C1095 1.499 . S
C1098 C1099 1.373 . S
C1098 C1100 1.389 . S
C1099 H1078 0.950 . S
C1099 C1098 1.373 . S
C1099 C1115 1.377 . S
C1100 C1098 1.389 . S
C1100 C1101 1.524 . S
C1100 C1114 1.377 . S
C1101 C1100 1.524 . S
C1101 C1102 1.397 . S
C1101 C1106 1.363 . S
C1102 H1079 0.950 . S
C1102 C1101 1.397 . S
C1102 C1103 1.334 . S
C1103 H1080 0.950 . S
C1103 C1102 1.334 . S
C1103 C1104 1.287 . S
C1104 C1103 1.287 . S
C1104 C1105 1.524 . S
C1104 H1123 0.913 1_565 S
C1105 H1081 0.950 1_565 S
C1105 C1104 1.524 . S
C1105 C1106 1.415 . S
C1106 H1082 0.950 . S
C1106 C1101 1.363 . S
C1106 C1105 1.415 . S
C1107 H1083 0.951 . S
C1107 C1108 1.366 . S
C1107 C1109 1.388 . S
C1108 C1107 1.366 . S
C1108 C1112 1.385 . S
C1109 H1084 0.951 . S
C1109 C1107 1.388 . S
C1109 C1110 1.366 . S
C1110 C1109 1.366 . S
C1110 C1111 1.414 . S
C1110 C1113 1.499 . S
C1111 H1085 0.950 . S
C1111 C1110 1.414 . S
C1111 C1112 1.374 . S
C1112 H1086 0.950 . S
C1112 C1108 1.385 . S
C1112 C1111 1.374 . S
C1113 C1110 1.499 . S
C1113 C1114 1.373 . S
C1113 C1115 1.389 . S
C1114 H1087 0.950 . S
C1114 C1100 1.377 . S
C1114 C1113 1.373 . S
C1115 C1099 1.377 . S
C1115 C1113 1.389 . S
C1115 C1116 1.524 . S
C1116 C1115 1.524 . S
C1116 C1117 1.397 . S
C1116 C1121 1.363 . S
C1117 H1088 0.950 . S
C1117 C1116 1.397 . S
C1117 C1118 1.334 . S
C1118 H1089 0.950 . S
C1118 C1117 1.334 . S
C1118 C1119 1.287 . S
C1119 C1118 1.287 . S
C1119 C1120 1.524 . S
C1119 H1122 0.999 . S
C1120 H1090 0.950 . S
C1120 C1119 1.524 . S
C1120 C1121 1.415 . S
C1121 H1091 0.950 . S
C1121 C1116 1.363 . S
C1121 C1120 1.415 . S
H1122 C1119 0.999 . S
H1123 C1104 0.913 1_545 S
H1124 C1142 0.951 . S
H1125 C1144 0.951 . S
H1126 C1146 0.950 . S
H1127 C1147 0.950 . S
H1128 C1149 0.950 . S
H1129 C1152 0.950 . S
H1130 C1153 0.950 . S
H1131 C1155 0.950 . S
H1132 C1156 0.950 . S
H1133 C1157 0.951 . S
H1134 C1159 0.951 . S
H1135 C1161 0.950 . S
H1136 C1162 0.950 . S
H1137 C1164 0.950 . S
H1138 C1167 0.950 . S
H1139 C1168 0.950 . S
H1140 C1170 0.950 . S
H1141 C1171 0.950 . S
C1142 H1124 0.951 . S
C1142 C1143 1.366 . S
C1142 C1144 1.388 . S
C1143 C1142 1.366 . S
C1143 C1147 1.385 . S
C1144 H1125 0.951 . S
C1144 C1142 1.388 . S
C1144 C1145 1.366 . S
C1145 C1144 1.366 . S
C1145 C1146 1.414 . S
C1145 C1148 1.499 . S
C1146 H1126 0.950 . S
C1146 C1145 1.414 . S
C1146 C1147 1.374 . S
C1147 H1127 0.950 . S
C1147 C1143 1.385 . S
C1147 C1146 1.374 . S
C1148 C1145 1.499 . S
C1148 C1149 1.373 . S
C1148 C1150 1.389 . S
C1149 H1128 0.950 . S
C1149 C1148 1.373 . S
C1149 C1165 1.377 . S
C1150 C1148 1.389 . S
C1150 C1151 1.524 . S
C1150 C1164 1.377 . S
C1151 C1150 1.524 . S
C1151 C1152 1.397 . S
C1151 C1156 1.363 . S
C1152 H1129 0.950 . S
C1152 C1151 1.397 . S
C1152 C1153 1.334 . S
C1153 H1130 0.950 . S
C1153 C1152 1.334 . S
C1153 C1154 1.287 . S
C1154 C1153 1.287 . S
C1154 C1155 1.524 . S
C1154 H1173 0.913 . S
C1155 H1131 0.950 . S
C1155 C1154 1.524 . S
C1155 C1156 1.415 . S
C1156 H1132 0.950 . S
C1156 C1151 1.363 . S
C1156 C1155 1.415 . S
C1157 H1133 0.951 . S
C1157 C1158 1.366 . S
C1157 C1159 1.388 . S
C1158 C1157 1.366 . S
C1158 C1162 1.385 . S
C1159 H1134 0.951 . S
C1159 C1157 1.388 . S
C1159 C1160 1.366 . S
C1160 C1159 1.366 . S
C1160 C1161 1.414 . S
C1160 C1163 1.499 . S
C1161 H1135 0.950 . S
C1161 C1160 1.414 . S
C1161 C1162 1.374 . S
C1162 H1136 0.950 . S
C1162 C1158 1.385 . S
C1162 C1161 1.374 . S
C1163 C1160 1.499 . S
C1163 C1164 1.373 . S
C1163 C1165 1.389 . S
C1164 H1137 0.950 . S
C1164 C1150 1.377 . S
C1164 C1163 1.373 . S
C1165 C1149 1.377 . S
C1165 C1163 1.389 . S
C1165 C1166 1.524 . S
C1166 C1165 1.524 . S
C1166 C1167 1.397 . S
C1166 C1171 1.363 . S
C1167 H1138 0.950 . S
C1167 C1166 1.397 . S
C1167 C1168 1.334 . S
C1168 H1139 0.950 . S
C1168 C1167 1.334 . S
C1168 C1169 1.287 . S
C1169 C1168 1.287 . S
C1169 C1170 1.524 . S
C1169 H1172 0.999 . S
C1170 H1140 0.950 . S
C1170 C1169 1.524 . S
C1170 C1171 1.415 . S
C1171 H1141 0.950 . S
C1171 C1166 1.363 . S
C1171 C1170 1.415 . S
H1172 C1169 0.999 . S
H1173 C1154 0.913 . S
H1174 C1192 0.951 . S
H1175 C1194 0.951 . S
H1176 C1196 0.950 . S
H1177 C1197 0.950 . S
H1178 C1199 0.950 . S
H1179 C1202 0.950 . S
H1180 C1203 0.950 . S
H1181 C1205 0.950 . S
H1182 C1206 0.950 . S
H1183 C1207 0.951 . S
H1184 C1209 0.951 . S
H1185 C1211 0.950 . S
H1186 C1212 0.950 . S
H1187 C1214 0.950 . S
H1188 C1217 0.950 . S
H1189 C1218 0.950 . S
H1190 C1220 0.950 . S
H1191 C1221 0.950 . S
C1192 H1174 0.951 . S
C1192 C1193 1.366 . S
C1192 C1194 1.388 . S
C1193 C1192 1.366 . S
C1193 C1197 1.385 . S
C1194 H1175 0.951 . S
C1194 C1192 1.388 . S
C1194 C1195 1.366 . S
C1195 C1194 1.366 . S
C1195 C1196 1.414 . S
C1195 C1198 1.499 . S
C1196 H1176 0.950 . S
C1196 C1195 1.414 . S
C1196 C1197 1.374 . S
C1197 H1177 0.950 . S
C1197 C1193 1.385 . S
C1197 C1196 1.374 . S
C1198 C1195 1.499 . S
C1198 C1199 1.373 . S
C1198 C1200 1.389 . S
C1199 H1178 0.950 . S
C1199 C1198 1.373 . S
C1199 C1215 1.377 . S
C1200 C1198 1.389 . S
C1200 C1201 1.524 . S
C1200 C1214 1.377 . S
C1201 C1200 1.524 . S
C1201 C1202 1.397 . S
C1201 C1206 1.363 . S
C1202 H1179 0.950 . S
C1202 C1201 1.397 . S
C1202 C1203 1.334 . S
C1203 H1180 0.950 . S
C1203 C1202 1.334 . S
C1203 C1204 1.287 . S
C1204 C1203 1.287 . S
C1204 C1205 1.524 . S
C1204 H1223 0.913 . S
C1205 H1181 0.950 . S
C1205 C1204 1.524 . S
C1205 C1206 1.415 . S
C1206 H1182 0.950 . S
C1206 C1201 1.363 . S
C1206 C1205 1.415 . S
C1207 H1183 0.951 . S
C1207 C1208 1.366 . S
C1207 C1209 1.388 . S
C1208 C1207 1.366 . S
C1208 C1212 1.385 . S
C1209 H1184 0.951 . S
C1209 C1207 1.388 . S
C1209 C1210 1.366 . S
C1210 C1209 1.366 . S
C1210 C1211 1.414 . S
C1210 C1213 1.499 . S
C1211 H1185 0.950 . S
C1211 C1210 1.414 . S
C1211 C1212 1.374 . S
C1212 H1186 0.950 . S
C1212 C1208 1.385 . S
C1212 C1211 1.374 . S
C1213 C1210 1.499 . S
C1213 C1214 1.373 . S
C1213 C1215 1.389 . S
C1214 H1187 0.950 . S
C1214 C1200 1.377 . S
C1214 C1213 1.373 . S
C1215 C1199 1.377 . S
C1215 C1213 1.389 . S
C1215 C1216 1.524 . S
C1216 C1215 1.524 . S
C1216 C1217 1.397 . S
C1216 C1221 1.363 . S
C1217 H1188 0.950 . S
C1217 C1216 1.397 . S
C1217 C1218 1.334 . S
C1218 H1189 0.950 . S
C1218 C1217 1.334 . S
C1218 C1219 1.287 . S
C1219 C1218 1.287 . S
C1219 C1220 1.524 . S
C1219 H1222 0.999 . S
C1220 H1190 0.950 . S
C1220 C1219 1.524 . S
C1220 C1221 1.415 . S
C1221 H1191 0.950 . S
C1221 C1216 1.363 . S
C1221 C1220 1.415 . S
H1222 C1219 0.999 . S
H1223 C1204 0.913 . S
H1224 C1242 0.951 . S
H1225 C1244 0.951 . S
H1226 C1246 0.950 . S
H1227 C1247 0.950 . S
H1228 C1249 0.950 . S
H1229 C1252 0.950 . S
H1230 C1253 0.950 . S
H1231 C1255 0.950 . S
H1232 C1256 0.950 . S
H1233 C1257 0.951 . S
H1234 C1259 0.951 . S
H1235 C1261 0.950 . S
H1236 C1262 0.950 . S
H1237 C1264 0.950 . S
H1238 C1267 0.950 . S
H1239 C1268 0.950 . S
H1240 C1270 0.950 . S
H1241 C1271 0.950 . S
C1242 H1224 0.951 . S
C1242 C1243 1.366 . S
C1242 C1244 1.388 . S
C1243 C1242 1.366 . S
C1243 C1247 1.385 . S
C1244 H1225 0.951 . S
C1244 C1242 1.388 . S
C1244 C1245 1.366 . S
C1245 C1244 1.366 . S
C1245 C1246 1.414 . S
C1245 C1248 1.499 . S
C1246 H1226 0.950 . S
C1246 C1245 1.414 . S
C1246 C1247 1.374 . S
C1247 H1227 0.950 . S
C1247 C1243 1.385 . S
C1247 C1246 1.374 . S
C1248 C1245 1.499 . S
C1248 C1249 1.373 . S
C1248 C1250 1.389 1_556 S
C1249 H1228 0.950 . S
C1249 C1248 1.373 . S
C1249 C1265 1.377 . S
C1250 C1248 1.389 1_554 S
C1250 C1251 1.524 . S
C1250 C1264 1.377 . S
C1251 C1250 1.524 . S
C1251 C1252 1.397 1_554 S
C1251 C1256 1.363 . S
C1252 H1229 0.950 . S
C1252 C1251 1.397 1_556 S
C1252 C1253 1.334 . S
C1253 H1230 0.950 . S
C1253 C1252 1.334 . S
C1253 C1254 1.287 1_556 S
C1254 C1253 1.287 1_554 S
C1254 C1255 1.524 . S
C1254 H1273 0.913 . S
C1255 H1231 0.950 . S
C1255 C1254 1.524 . S
C1255 C1256 1.415 . S
C1256 H1232 0.950 . S
C1256 C1251 1.363 . S
C1256 C1255 1.415 . S
C1257 H1233 0.951 . S
C1257 C1258 1.366 . S
C1257 C1259 1.388 . S
C1258 C1257 1.366 . S
C1258 C1262 1.385 . S
C1259 H1234 0.951 . S
C1259 C1257 1.388 . S
C1259 C1260 1.366 . S
C1260 C1259 1.366 . S
C1260 C1261 1.414 . S
C1260 C1263 1.499 . S
C1261 H1235 0.950 . S
C1261 C1260 1.414 . S
C1261 C1262 1.374 . S
C1262 H1236 0.950 . S
C1262 C1258 1.385 . S
C1262 C1261 1.374 . S
C1263 C1260 1.499 . S
C1263 C1264 1.373 . S
C1263 C1265 1.389 1_554 S
C1264 H1237 0.950 . S
C1264 C1250 1.377 . S
C1264 C1263 1.373 . S
C1265 C1249 1.377 . S
C1265 C1263 1.389 1_556 S
C1265 C1266 1.524 . S
C1266 C1265 1.524 . S
C1266 C1267 1.397 1_556 S
C1266 C1271 1.363 . S
C1267 H1238 0.950 . S
C1267 C1266 1.397 1_554 S
C1267 C1268 1.334 . S
C1268 H1239 0.950 . S
C1268 C1267 1.334 . S
C1268 C1269 1.287 1_554 S
C1269 C1268 1.287 1_556 S
C1269 C1270 1.524 . S
C1269 H1272 0.999 . S
C1270 H1240 0.950 . S
C1270 C1269 1.524 . S
C1270 C1271 1.415 . S
C1271 H1241 0.950 . S
C1271 C1266 1.363 . S
C1271 C1270 1.415 . S
H1272 C1269 0.999 . S
H1273 C1254 0.913 . S
H1274 C1292 0.951 . S
H1275 C1294 0.951 . S
H1276 C1296 0.950 . S
H1277 C1297 0.950 . S
H1278 C1299 0.950 . S
H1279 C1302 0.950 . S
H1280 C1303 0.950 . S
H1281 C1305 0.950 . S
H1282 C1306 0.950 . S
H1283 C1307 0.951 . S
H1284 C1309 0.951 . S
H1285 C1311 0.950 . S
H1286 C1312 0.950 . S
H1287 C1314 0.950 . S
H1288 C1317 0.950 . S
H1289 C1318 0.950 . S
H1290 C1320 0.950 1_565 S
H1291 C1321 0.950 . S
C1292 H1274 0.951 . S
C1292 C1293 1.366 . S
C1292 C1294 1.388 . S
C1293 C1292 1.366 . S
C1293 C1297 1.385 . S
C1294 H1275 0.951 . S
C1294 C1292 1.388 . S
C1294 C1295 1.366 . S
C1295 C1294 1.366 . S
C1295 C1296 1.414 . S
C1295 C1298 1.499 . S
C1296 H1276 0.950 . S
C1296 C1295 1.414 . S
C1296 C1297 1.374 . S
C1297 H1277 0.950 . S
C1297 C1293 1.385 . S
C1297 C1296 1.374 . S
C1298 C1295 1.499 . S
C1298 C1299 1.373 . S
C1298 C1300 1.389 . S
C1299 H1278 0.950 . S
C1299 C1298 1.373 . S
C1299 C1315 1.377 . S
C1300 C1298 1.389 . S
C1300 C1301 1.524 . S
C1300 C1314 1.377 . S
C1301 C1300 1.524 . S
C1301 C1302 1.397 . S
C1301 C1306 1.363 . S
C1302 H1279 0.950 . S
C1302 C1301 1.397 . S
C1302 C1303 1.334 . S
C1303 H1280 0.950 . S
C1303 C1302 1.334 . S
C1303 C1304 1.287 . S
C1304 C1303 1.287 . S
C1304 C1305 1.524 . S
C1304 H1323 0.913 . S
C1305 H1281 0.950 . S
C1305 C1304 1.524 . S
C1305 C1306 1.415 . S
C1306 H1282 0.950 . S
C1306 C1301 1.363 . S
C1306 C1305 1.415 . S
C1307 H1283 0.951 . S
C1307 C1308 1.366 . S
C1307 C1309 1.388 . S
C1308 C1307 1.366 . S
C1308 C1312 1.385 . S
C1309 H1284 0.951 . S
C1309 C1307 1.388 . S
C1309 C1310 1.366 . S
C1310 C1309 1.366 . S
C1310 C1311 1.414 . S
C1310 C1313 1.499 . S
C1311 H1285 0.950 . S
C1311 C1310 1.414 . S
C1311 C1312 1.374 . S
C1312 H1286 0.950 . S
C1312 C1308 1.385 . S
C1312 C1311 1.374 . S
C1313 C1310 1.499 . S
C1313 C1314 1.373 . S
C1313 C1315 1.389 . S
C1314 H1287 0.950 . S
C1314 C1300 1.377 . S
C1314 C1313 1.373 . S
C1315 C1299 1.377 . S
C1315 C1313 1.389 . S
C1315 C1316 1.524 . S
C1316 C1315 1.524 . S
C1316 C1317 1.397 . S
C1316 C1321 1.363 . S
C1317 H1288 0.950 . S
C1317 C1316 1.397 . S
C1317 C1318 1.334 . S
C1318 H1289 0.950 . S
C1318 C1317 1.334 . S
C1318 C1319 1.287 . S
C1319 C1318 1.287 . S
C1319 C1320 1.524 . S
C1319 H1322 0.999 1_545 S
C1320 H1290 0.950 1_545 S
C1320 C1319 1.524 . S
C1320 C1321 1.415 . S
C1321 H1291 0.950 . S
C1321 C1316 1.363 . S
C1321 C1320 1.415 . S
H1322 C1319 0.999 1_565 S
H1323 C1304 0.913 . S
H1324 C1342 0.951 . S
H1325 C1344 0.951 . S
H1326 C1346 0.950 . S
H1327 C1347 0.950 . S
H1328 C1349 0.950 . S
H1329 C1352 0.950 . S
H1330 C1353 0.950 . S
H1331 C1355 0.950 . S
H1332 C1356 0.950 . S
H1333 C1357 0.951 . S
H1334 C1359 0.951 . S
H1335 C1361 0.950 . S
H1336 C1362 0.950 . S
H1337 C1364 0.950 . S
H1338 C1367 0.950 . S
H1339 C1368 0.950 . S
H1340 C1370 0.950 . S
H1341 C1371 0.950 . S
C1342 H1324 0.951 . S
C1342 C1343 1.366 . S
C1342 C1344 1.388 . S
C1343 C1342 1.366 . S
C1343 C1347 1.385 . S
C1344 H1325 0.951 . S
C1344 C1342 1.388 . S
C1344 C1345 1.366 . S
C1345 C1344 1.366 . S
C1345 C1346 1.414 . S
C1345 C1348 1.499 . S
C1346 H1326 0.950 . S
C1346 C1345 1.414 . S
C1346 C1347 1.374 . S
C1347 H1327 0.950 . S
C1347 C1343 1.385 . S
C1347 C1346 1.374 . S
C1348 C1345 1.499 . S
C1348 C1349 1.373 . S
C1348 C1350 1.389 . S
C1349 H1328 0.950 . S
C1349 C1348 1.373 . S
C1349 C1365 1.377 . S
C1350 C1348 1.389 . S
C1350 C1351 1.524 . S
C1350 C1364 1.377 . S
C1351 C1350 1.524 . S
C1351 C1352 1.397 . S
C1351 C1356 1.363 . S
C1352 H1329 0.950 . S
C1352 C1351 1.397 . S
C1352 C1353 1.334 . S
C1353 H1330 0.950 . S
C1353 C1352 1.334 . S
C1353 C1354 1.287 . S
C1354 C1353 1.287 . S
C1354 C1355 1.524 . S
C1354 H1373 0.913 . S
C1355 H1331 0.950 . S
C1355 C1354 1.524 . S
C1355 C1356 1.415 . S
C1356 H1332 0.950 . S
C1356 C1351 1.363 . S
C1356 C1355 1.415 . S
C1357 H1333 0.951 . S
C1357 C1358 1.366 . S
C1357 C1359 1.388 . S
C1358 C1357 1.366 . S
C1358 C1362 1.385 . S
C1359 H1334 0.951 . S
C1359 C1357 1.388 . S
C1359 C1360 1.366 . S
C1360 C1359 1.366 . S
C1360 C1361 1.414 . S
C1360 C1363 1.499 . S
C1361 H1335 0.950 . S
C1361 C1360 1.414 . S
C1361 C1362 1.374 . S
C1362 H1336 0.950 . S
C1362 C1358 1.385 . S
C1362 C1361 1.374 . S
C1363 C1360 1.499 . S
C1363 C1364 1.373 . S
C1363 C1365 1.389 . S
C1364 H1337 0.950 . S
C1364 C1350 1.377 . S
C1364 C1363 1.373 . S
C1365 C1349 1.377 . S
C1365 C1363 1.389 . S
C1365 C1366 1.524 . S
C1366 C1365 1.524 . S
C1366 C1367 1.397 . S
C1366 C1371 1.363 . S
C1367 H1338 0.950 . S
C1367 C1366 1.397 . S
C1367 C1368 1.334 . S
C1368 H1339 0.950 . S
C1368 C1367 1.334 . S
C1368 C1369 1.287 . S
C1369 C1368 1.287 . S
C1369 C1370 1.524 . S
C1369 H1372 0.999 . S
C1370 H1340 0.950 . S
C1370 C1369 1.524 . S
C1370 C1371 1.415 . S
C1371 H1341 0.950 . S
C1371 C1366 1.363 . S
C1371 C1370 1.415 . S
H1372 C1369 0.999 . S
H1373 C1354 0.913 . S
H1374 C1392 0.951 . S
H1375 C1394 0.951 . S
H1376 C1396 0.950 . S
H1377 C1397 0.950 . S
H1378 C1399 0.950 . S
H1379 C1402 0.950 . S
H1380 C1403 0.950 . S
H1381 C1405 0.950 . S
H1382 C1406 0.950 . S
H1383 C1407 0.951 . S
H1384 C1409 0.951 . S
H1385 C1411 0.950 . S
H1386 C1412 0.950 . S
H1387 C1414 0.950 . S
H1388 C1417 0.950 . S
H1389 C1418 0.950 . S
H1390 C1420 0.950 . S
H1391 C1421 0.950 . S
C1392 H1374 0.951 . S
C1392 C1393 1.366 . S
C1392 C1394 1.388 . S
C1393 C1392 1.366 . S
C1393 C1397 1.385 . S
C1394 H1375 0.951 . S
C1394 C1392 1.388 . S
C1394 C1395 1.366 . S
C1395 C1394 1.366 . S
C1395 C1396 1.414 . S
C1395 C1398 1.499 . S
C1396 H1376 0.950 . S
C1396 C1395 1.414 . S
C1396 C1397 1.374 . S
C1397 H1377 0.950 . S
C1397 C1393 1.385 . S
C1397 C1396 1.374 . S
C1398 C1395 1.499 . S
C1398 C1399 1.373 . S
C1398 C1400 1.389 . S
C1399 H1378 0.950 . S
C1399 C1398 1.373 . S
C1399 C1415 1.377 . S
C1400 C1398 1.389 . S
C1400 C1401 1.524 . S
C1400 C1414 1.377 . S
C1401 C1400 1.524 . S
C1401 C1402 1.397 . S
C1401 C1406 1.363 . S
C1402 H1379 0.950 . S
C1402 C1401 1.397 . S
C1402 C1403 1.334 . S
C1403 H1380 0.950 . S
C1403 C1402 1.334 . S
C1403 C1404 1.287 . S
C1404 C1403 1.287 . S
C1404 C1405 1.524 . S
C1404 H1423 0.913 1_565 S
C1405 H1381 0.950 . S
C1405 C1404 1.524 . S
C1405 C1406 1.415 . S
C1406 H1382 0.950 . S
C1406 C1401 1.363 . S
C1406 C1405 1.415 . S
C1407 H1383 0.951 . S
C1407 C1408 1.366 . S
C1407 C1409 1.388 . S
C1408 C1407 1.366 . S
C1408 C1412 1.385 . S
C1409 H1384 0.951 . S
C1409 C1407 1.388 . S
C1409 C1410 1.366 . S
C1410 C1409 1.366 . S
C1410 C1411 1.414 . S
C1410 C1413 1.499 . S
C1411 H1385 0.950 . S
C1411 C1410 1.414 . S
C1411 C1412 1.374 . S
C1412 H1386 0.950 . S
C1412 C1408 1.385 . S
C1412 C1411 1.374 . S
C1413 C1410 1.499 . S
C1413 C1414 1.373 . S
C1413 C1415 1.389 . S
C1414 H1387 0.950 . S
C1414 C1400 1.377 . S
C1414 C1413 1.373 . S
C1415 C1399 1.377 . S
C1415 C1413 1.389 . S
C1415 C1416 1.524 . S
C1416 C1415 1.524 . S
C1416 C1417 1.397 . S
C1416 C1421 1.363 . S
C1417 H1388 0.950 . S
C1417 C1416 1.397 . S
C1417 C1418 1.334 . S
C1418 H1389 0.950 . S
C1418 C1417 1.334 . S
C1418 C1419 1.287 . S
C1419 C1418 1.287 . S
C1419 C1420 1.524 . S
C1419 H1422 0.999 . S
C1420 H1390 0.950 . S
C1420 C1419 1.524 . S
C1420 C1421 1.415 . S
C1421 H1391 0.950 . S
C1421 C1416 1.363 . S
C1421 C1420 1.415 . S
H1422 C1419 0.999 . S
H1423 C1404 0.913 1_545 S
H1424 C1442 0.951 . S
H1425 C1444 0.951 . S
H1426 C1446 0.950 . S
H1427 C1447 0.950 . S
H1428 C1449 0.950 . S
H1429 C1452 0.950 . S
H1430 C1453 0.950 . S
H1431 C1455 0.950 . S
H1432 C1456 0.950 . S
H1433 C1457 0.951 . S
H1434 C1459 0.951 . S
H1435 C1461 0.950 . S
H1436 C1462 0.950 . S
H1437 C1464 0.950 . S
H1438 C1467 0.950 . S
H1439 C1468 0.950 . S
H1440 C1470 0.950 . S
H1441 C1471 0.950 . S
C1442 H1424 0.951 . S
C1442 C1443 1.366 . S
C1442 C1444 1.388 . S
C1443 C1442 1.366 . S
C1443 C1447 1.385 . S
C1444 H1425 0.951 . S
C1444 C1442 1.388 . S
C1444 C1445 1.366 . S
C1445 C1444 1.366 . S
C1445 C1446 1.414 . S
C1445 C1448 1.499 . S
C1446 H1426 0.950 . S
C1446 C1445 1.414 . S
C1446 C1447 1.374 . S
C1447 H1427 0.950 . S
C1447 C1443 1.385 . S
C1447 C1446 1.374 . S
C1448 C1445 1.499 . S
C1448 C1449 1.373 1_545 S
C1448 C1450 1.389 . S
C1449 H1428 0.950 . S
C1449 C1448 1.373 1_565 S
C1449 C1465 1.377 . S
C1450 C1448 1.389 . S
C1450 C1451 1.524 . S
C1450 C1464 1.377 . S
C1451 C1450 1.524 . S
C1451 C1452 1.397 . S
C1451 C1456 1.363 . S
C1452 H1429 0.950 . S
C1452 C1451 1.397 . S
C1452 C1453 1.334 . S
C1453 H1430 0.950 . S
C1453 C1452 1.334 . S
C1453 C1454 1.287 . S
C1454 C1453 1.287 . S
C1454 C1455 1.524 . S
C1454 H1473 0.913 . S
C1455 H1431 0.950 . S
C1455 C1454 1.524 . S
C1455 C1456 1.415 . S
C1456 H1432 0.950 . S
C1456 C1451 1.363 . S
C1456 C1455 1.415 . S
C1457 H1433 0.951 . S
C1457 C1458 1.366 . S
C1457 C1459 1.388 . S
C1458 C1457 1.366 . S
C1458 C1462 1.385 . S
C1459 H1434 0.951 . S
C1459 C1457 1.388 . S
C1459 C1460 1.366 . S
C1460 C1459 1.366 . S
C1460 C1461 1.414 . S
C1460 C1463 1.499 . S
C1461 H1435 0.950 . S
C1461 C1460 1.414 . S
C1461 C1462 1.374 . S
C1462 H1436 0.950 . S
C1462 C1458 1.385 . S
C1462 C1461 1.374 . S
C1463 C1460 1.499 . S
C1463 C1464 1.373 1_565 S
C1463 C1465 1.389 . S
C1464 H1437 0.950 . S
C1464 C1450 1.377 . S
C1464 C1463 1.373 1_545 S
C1465 C1449 1.377 . S
C1465 C1463 1.389 . S
C1465 C1466 1.524 . S
C1466 C1465 1.524 . S
C1466 C1467 1.397 . S
C1466 C1471 1.363 . S
C1467 H1438 0.950 . S
C1467 C1466 1.397 . S
C1467 C1468 1.334 . S
C1468 H1439 0.950 . S
C1468 C1467 1.334 . S
C1468 C1469 1.287 . S
C1469 C1468 1.287 . S
C1469 C1470 1.524 . S
C1469 H1472 0.999 . S
C1470 H1440 0.950 . S
C1470 C1469 1.524 . S
C1470 C1471 1.415 . S
C1471 H1441 0.950 . S
C1471 C1466 1.363 . S
C1471 C1470 1.415 . S
H1472 C1469 0.999 . S
H1473 C1454 0.913 . S
H1474 C1492 0.951 . S
H1475 C1494 0.951 . S
H1476 C1496 0.950 . S
H1477 C1497 0.950 . S
H1478 C1499 0.950 . S
H1479 C1502 0.950 . S
H1480 C1503 0.950 . S
H1481 C1505 0.950 . S
H1482 C1506 0.950 . S
H1483 C1507 0.951 . S
H1484 C1509 0.951 . S
H1485 C1511 0.950 . S
H1486 C1512 0.950 . S
H1487 C1514 0.950 . S
H1488 C1517 0.950 . S
H1489 C1518 0.950 . S
H1490 C1520 0.950 . S
H1491 C1521 0.950 . S
C1492 H1474 0.951 . S
C1492 C1493 1.366 . S
C1492 C1494 1.388 . S
C1493 C1492 1.366 . S
C1493 C1497 1.385 . S
C1494 H1475 0.951 . S
C1494 C1492 1.388 . S
C1494 C1495 1.366 . S
C1495 C1494 1.366 . S
C1495 C1496 1.414 . S
C1495 C1498 1.499 . S
C1496 H1476 0.950 . S
C1496 C1495 1.414 . S
C1496 C1497 1.374 . S
C1497 H1477 0.950 . S
C1497 C1493 1.385 . S
C1497 C1496 1.374 . S
C1498 C1495 1.499 . S
C1498 C1499 1.373 . S
C1498 C1500 1.389 . S
C1499 H1478 0.950 . S
C1499 C1498 1.373 . S
C1499 C1515 1.377 . S
C1500 C1498 1.389 . S
C1500 C1501 1.524 . S
C1500 C1514 1.377 . S
C1501 C1500 1.524 . S
C1501 C1502 1.397 . S
C1501 C1506 1.363 . S
C1502 H1479 0.950 . S
C1502 C1501 1.397 . S
C1502 C1503 1.334 . S
C1503 H1480 0.950 . S
C1503 C1502 1.334 . S
C1503 C1504 1.287 . S
C1504 C1503 1.287 . S
C1504 C1505 1.524 . S
C1504 H1523 0.913 . S
C1505 H1481 0.950 . S
C1505 C1504 1.524 . S
C1505 C1506 1.415 . S
C1506 H1482 0.950 . S
C1506 C1501 1.363 . S
C1506 C1505 1.415 . S
C1507 H1483 0.951 . S
C1507 C1508 1.366 . S
C1507 C1509 1.388 . S
C1508 C1507 1.366 . S
C1508 C1512 1.385 . S
C1509 H1484 0.951 . S
C1509 C1507 1.388 . S
C1509 C1510 1.366 . S
C1510 C1509 1.366 . S
C1510 C1511 1.414 . S
C1510 C1513 1.499 . S
C1511 H1485 0.950 . S
C1511 C1510 1.414 . S
C1511 C1512 1.374 . S
C1512 H1486 0.950 . S
C1512 C1508 1.385 . S
C1512 C1511 1.374 . S
C1513 C1510 1.499 . S
C1513 C1514 1.373 . S
C1513 C1515 1.389 . S
C1514 H1487 0.950 . S
C1514 C1500 1.377 . S
C1514 C1513 1.373 . S
C1515 C1499 1.377 . S
C1515 C1513 1.389 . S
C1515 C1516 1.524 . S
C1516 C1515 1.524 . S
C1516 C1517 1.397 . S
C1516 C1521 1.363 . S
C1517 H1488 0.950 . S
C1517 C1516 1.397 . S
C1517 C1518 1.334 . S
C1518 H1489 0.950 . S
C1518 C1517 1.334 . S
C1518 C1519 1.287 . S
C1519 C1518 1.287 . S
C1519 C1520 1.524 . S
C1519 H1522 0.999 . S
C1520 H1490 0.950 . S
C1520 C1519 1.524 . S
C1520 C1521 1.415 . S
C1521 H1491 0.950 . S
C1521 C1516 1.363 . S
C1521 C1520 1.415 . S
H1522 C1519 0.999 . S
H1523 C1504 0.913 . S
H1524 C1542 0.951 . S
H1525 C1544 0.951 . S
H1526 C1546 0.950 . S
H1527 C1547 0.950 . S
H1528 C1549 0.947 1_556 S
H1529 C1552 0.950 . S
H1530 C1553 0.950 . S
H1531 C1555 0.950 . S
H1532 C1556 0.950 . S
H1533 C1557 0.951 . S
H1534 C1559 0.951 . S
H1535 C1561 0.950 . S
H1536 C1562 0.950 . S
H1537 C1564 0.950 . S
H1538 C1567 0.950 . S
H1539 C1568 0.950 . S
H1540 C1570 0.950 . S
H1541 C1571 0.950 . S
C1542 H1524 0.951 . S
C1542 C1543 1.366 . S
C1542 C1544 1.388 . S
C1543 C1542 1.366 . S
C1543 C1547 1.385 . S
C1544 H1525 0.951 . S
C1544 C1542 1.388 . S
C1544 C1545 1.366 . S
C1545 C1544 1.366 . S
C1545 C1546 1.414 . S
C1545 C1548 1.499 . S
C1546 H1526 0.950 . S
C1546 C1545 1.414 . S
C1546 C1547 1.374 . S
C1547 H1527 0.950 . S
C1547 C1543 1.385 . S
C1547 C1546 1.374 . S
C1548 C1545 1.499 . S
C1548 C1549 1.374 1_556 S
C1548 C1550 1.389 1_545 S
C1549 H1528 0.947 1_554 S
C1549 C1548 1.374 1_554 S
C1549 C1565 1.376 . S
C1550 C1548 1.389 1_565 S
C1550 C1551 1.524 . S
C1550 C1564 1.377 1_556 S
C1551 C1550 1.524 . S
C1551 C1552 1.397 1_565 S
C1551 C1556 1.363 . S
C1552 H1529 0.950 . S
C1552 C1551 1.397 1_545 S
C1552 C1553 1.334 . S
C1553 H1530 0.950 . S
C1553 C1552 1.334 . S
C1553 C1554 1.287 1_545 S
C1554 C1553 1.287 1_565 S
C1554 C1555 1.524 . S
C1554 H1573 0.913 . S
C1555 H1531 0.950 . S
C1555 C1554 1.524 . S
C1555 C1556 1.415 . S
C1556 H1532 0.950 . S
C1556 C1551 1.363 . S
C1556 C1555 1.415 . S
C1557 H1533 0.951 . S
C1557 C1558 1.366 . S
C1557 C1559 1.388 . S
C1558 C1557 1.366 . S
C1558 C1562 1.385 . S
C1559 H1534 0.951 . S
C1559 C1557 1.388 . S
C1559 C1560 1.366 . S
C1560 C1559 1.366 . S
C1560 C1561 1.414 . S
C1560 C1563 1.499 . S
C1561 H1535 0.950 . S
C1561 C1560 1.414 . S
C1561 C1562 1.374 . S
C1562 H1536 0.950 . S
C1562 C1558 1.385 . S
C1562 C1561 1.374 . S
C1563 C1560 1.499 . S
C1563 C1564 1.373 . S
C1563 C1565 1.389 1_565 S
C1564 H1537 0.950 . S
C1564 C1550 1.377 1_554 S
C1564 C1563 1.373 . S
C1565 C1549 1.376 . S
C1565 C1563 1.389 1_545 S
C1565 C1566 1.524 . S
C1566 C1565 1.524 . S
C1566 C1567 1.397 1_545 S
C1566 C1571 1.363 . S
C1567 H1538 0.950 . S
C1567 C1566 1.397 1_565 S
C1567 C1568 1.334 . S
C1568 H1539 0.950 . S
C1568 C1567 1.334 . S
C1568 C1569 1.287 1_565 S
C1569 C1568 1.287 1_545 S
C1569 C1570 1.524 . S
C1569 H1572 0.999 . S
C1570 H1540 0.950 . S
C1570 C1569 1.524 . S
C1570 C1571 1.415 . S
C1571 H1541 0.950 . S
C1571 C1566 1.363 . S
C1571 C1570 1.415 . S
H1572 C1569 0.999 . S
H1573 C1554 0.913 . S
H1574 C1592 0.951 . S
H1575 C1594 0.951 . S
H1576 C1596 0.950 . S
H1577 C1597 0.950 . S
H1578 C1599 0.950 . S
H1579 C1602 0.950 . S
H1580 C1603 0.950 . S
H1581 C1605 0.950 . S
H1582 C1606 0.950 . S
H1583 C1607 0.951 . S
H1584 C1609 0.951 . S
H1585 C1611 0.950 . S
H1586 C1612 0.950 . S
H1587 C1614 0.950 . S
H1588 C1617 0.950 . S
H1589 C1618 0.950 . S
H1590 C1620 0.950 . S
H1591 C1621 0.950 . S
C1592 H1574 0.951 . S
C1592 C1593 1.366 . S
C1592 C1594 1.388 . S
C1593 C1592 1.366 . S
C1593 C1597 1.385 . S
C1594 H1575 0.951 . S
C1594 C1592 1.388 . S
C1594 C1595 1.366 . S
C1595 C1594 1.366 . S
C1595 C1596 1.414 . S
C1595 C1598 1.499 . S
C1596 H1576 0.950 . S
C1596 C1595 1.414 . S
C1596 C1597 1.374 . S
C1597 H1577 0.950 . S
C1597 C1593 1.385 . S
C1597 C1596 1.374 . S
C1598 C1595 1.499 . S
C1598 C1599 1.373 . S
C1598 C1600 1.389 . S
C1599 H1578 0.950 . S
C1599 C1598 1.373 . S
C1599 C1615 1.377 . S
C1600 C1598 1.389 . S
C1600 C1601 1.524 . S
C1600 C1614 1.377 . S
C1601 C1600 1.524 . S
C1601 C1602 1.397 . S
C1601 C1606 1.363 . S
C1602 H1579 0.950 . S
C1602 C1601 1.397 . S
C1602 C1603 1.334 . S
C1603 H1580 0.950 . S
C1603 C1602 1.334 . S
C1603 C1604 1.287 . S
C1604 C1603 1.287 . S
C1604 C1605 1.524 . S
C1604 H1623 0.913 . S
C1605 H1581 0.950 . S
C1605 C1604 1.524 . S
C1605 C1606 1.415 . S
C1606 H1582 0.950 . S
C1606 C1601 1.363 . S
C1606 C1605 1.415 . S
C1607 H1583 0.951 . S
C1607 C1608 1.366 . S
C1607 C1609 1.388 . S
C1608 C1607 1.366 . S
C1608 C1612 1.385 . S
C1609 H1584 0.951 . S
C1609 C1607 1.388 . S
C1609 C1610 1.366 . S
C1610 C1609 1.366 . S
C1610 C1611 1.414 . S
C1610 C1613 1.499 . S
C1611 H1585 0.950 . S
C1611 C1610 1.414 . S
C1611 C1612 1.374 . S
C1612 H1586 0.950 . S
C1612 C1608 1.385 . S
C1612 C1611 1.374 . S
C1613 C1610 1.499 . S
C1613 C1614 1.373 . S
C1613 C1615 1.389 . S
C1614 H1587 0.950 . S
C1614 C1600 1.377 . S
C1614 C1613 1.373 . S
C1615 C1599 1.377 . S
C1615 C1613 1.389 . S
C1615 C1616 1.524 . S
C1616 C1615 1.524 . S
C1616 C1617 1.397 . S
C1616 C1621 1.363 . S
C1617 H1588 0.950 . S
C1617 C1616 1.397 . S
C1617 C1618 1.334 . S
C1618 H1589 0.950 . S
C1618 C1617 1.334 . S
C1618 C1619 1.287 . S
C1619 C1618 1.287 . S
C1619 C1620 1.524 . S
C1619 H1622 0.999 . S
C1620 H1590 0.950 . S
C1620 C1619 1.524 . S
C1620 C1621 1.415 . S
C1621 H1591 0.950 . S
C1621 C1616 1.363 . S
C1621 C1620 1.415 . S
H1622 C1619 0.999 . S
H1623 C1604 0.913 . S
H1624 C1642 0.951 . S
H1625 C1644 0.951 . S
H1626 C1646 0.950 . S
H1627 C1647 0.950 . S
H1628 C1649 0.950 . S
H1629 C1652 0.950 . S
H1630 C1653 0.950 . S
H1631 C1655 0.950 . S
H1632 C1656 0.950 . S
H1633 C1657 0.951 . S
H1634 C1659 0.951 . S
H1635 C1661 0.950 . S
H1636 C1662 0.950 . S
H1637 C1664 0.950 . S
H1638 C1667 0.950 . S
H1639 C1668 0.950 . S
H1640 C1670 0.950 . S
H1641 C1671 0.950 1_545 S
C1642 H1624 0.951 . S
C1642 C1643 1.366 . S
C1642 C1644 1.388 . S
C1643 C1642 1.366 . S
C1643 C1647 1.385 . S
C1644 H1625 0.951 . S
C1644 C1642 1.388 . S
C1644 C1645 1.366 . S
C1645 C1644 1.366 . S
C1645 C1646 1.414 . S
C1645 C1648 1.499 . S
C1646 H1626 0.950 . S
C1646 C1645 1.414 . S
C1646 C1647 1.374 . S
C1647 H1627 0.950 . S
C1647 C1643 1.385 . S
C1647 C1646 1.374 . S
C1648 C1645 1.499 . S
C1648 C1649 1.373 . S
C1648 C1650 1.389 . S
C1649 H1628 0.950 . S
C1649 C1648 1.373 . S
C1649 C1665 1.377 1_545 S
C1650 C1648 1.389 . S
C1650 C1651 1.524 . S
C1650 C1664 1.377 1_545 S
C1651 C1650 1.524 . S
C1651 C1652 1.397 . S
C1651 C1656 1.363 . S
C1652 H1629 0.950 . S
C1652 C1651 1.397 . S
C1652 C1653 1.334 . S
C1653 H1630 0.950 . S
C1653 C1652 1.334 . S
C1653 C1654 1.287 . S
C1654 C1653 1.287 . S
C1654 C1655 1.524 . S
C1654 H1673 0.913 . S
C1655 H1631 0.950 . S
C1655 C1654 1.524 . S
C1655 C1656 1.415 . S
C1656 H1632 0.950 . S
C1656 C1651 1.363 . S
C1656 C1655 1.415 . S
C1657 H1633 0.951 . S
C1657 C1658 1.366 . S
C1657 C1659 1.388 . S
C1658 C1657 1.366 . S
C1658 C1662 1.385 . S
C1659 H1634 0.951 . S
C1659 C1657 1.388 . S
C1659 C1660 1.366 . S
C1660 C1659 1.366 . S
C1660 C1661 1.414 . S
C1660 C1663 1.499 . S
C1661 H1635 0.950 . S
C1661 C1660 1.414 . S
C1661 C1662 1.374 . S
C1662 H1636 0.950 . S
C1662 C1658 1.385 . S
C1662 C1661 1.374 . S
C1663 C1660 1.499 . S
C1663 C1664 1.373 . S
C1663 C1665 1.389 . S
C1664 H1637 0.950 . S
C1664 C1650 1.377 1_565 S
C1664 C1663 1.373 . S
C1665 C1649 1.377 1_565 S
C1665 C1663 1.389 . S
C1665 C1666 1.524 . S
C1666 C1665 1.524 . S
C1666 C1667 1.397 . S
C1666 C1671 1.363 . S
C1667 H1638 0.950 . S
C1667 C1666 1.397 . S
C1667 C1668 1.334 . S
C1668 H1639 0.950 . S
C1668 C1667 1.334 . S
C1668 C1669 1.287 . S
C1669 C1668 1.287 . S
C1669 C1670 1.524 . S
C1669 H1672 0.999 . S
C1670 H1640 0.950 . S
C1670 C1669 1.524 . S
C1670 C1671 1.415 . S
C1671 H1641 0.950 1_565 S
C1671 C1666 1.363 . S
C1671 C1670 1.415 . S
H1672 C1669 0.999 . S
H1673 C1654 0.913 . S
H1674 C1692 0.951 . S
H1675 C1694 0.951 . S
H1676 C1696 0.950 . S
H1677 C1697 0.950 . S
H1678 C1699 0.950 . S
H1679 C1702 0.950 . S
H1680 C1703 0.950 . S
H1681 C1705 0.950 . S
H1682 C1706 0.950 . S
H1683 C1707 0.951 . S
H1684 C1709 0.951 . S
H1685 C1711 0.950 . S
H1686 C1712 0.950 . S
H1687 C1714 0.950 . S
H1688 C1717 0.950 . S
H1689 C1718 0.950 . S
H1690 C1720 0.950 . S
H1691 C1721 0.950 . S
C1692 H1674 0.951 . S
C1692 C1693 1.366 . S
C1692 C1694 1.388 . S
C1693 C1692 1.366 . S
C1693 C1697 1.385 . S
C1694 H1675 0.951 . S
C1694 C1692 1.388 . S
C1694 C1695 1.366 . S
C1695 C1694 1.366 . S
C1695 C1696 1.414 . S
C1695 C1698 1.499 . S
C1696 H1676 0.950 . S
C1696 C1695 1.414 . S
C1696 C1697 1.374 . S
C1697 H1677 0.950 . S
C1697 C1693 1.385 . S
C1697 C1696 1.374 . S
C1698 C1695 1.499 . S
C1698 C1699 1.373 . S
C1698 C1700 1.389 . S
C1699 H1678 0.950 . S
C1699 C1698 1.373 . S
C1699 C1715 1.377 . S
C1700 C1698 1.389 . S
C1700 C1701 1.524 . S
C1700 C1714 1.377 . S
C1701 C1700 1.524 . S
C1701 C1702 1.397 . S
C1701 C1706 1.363 . S
C1702 H1679 0.950 . S
C1702 C1701 1.397 . S
C1702 C1703 1.334 . S
C1703 H1680 0.950 . S
C1703 C1702 1.334 . S
C1703 C1704 1.287 . S
C1704 C1703 1.287 . S
C1704 C1705 1.524 . S
C1704 H1723 0.913 . S
C1705 H1681 0.950 . S
C1705 C1704 1.524 . S
C1705 C1706 1.415 . S
C1706 H1682 0.950 . S
C1706 C1701 1.363 . S
C1706 C1705 1.415 . S
C1707 H1683 0.951 . S
C1707 C1708 1.366 . S
C1707 C1709 1.388 . S
C1708 C1707 1.366 . S
C1708 C1712 1.385 . S
C1709 H1684 0.951 . S
C1709 C1707 1.388 . S
C1709 C1710 1.366 . S
C1710 C1709 1.366 . S
C1710 C1711 1.414 . S
C1710 C1713 1.499 . S
C1711 H1685 0.950 . S
C1711 C1710 1.414 . S
C1711 C1712 1.374 . S
C1712 H1686 0.950 . S
C1712 C1708 1.385 . S
C1712 C1711 1.374 . S
C1713 C1710 1.499 . S
C1713 C1714 1.373 . S
C1713 C1715 1.389 . S
C1714 H1687 0.950 . S
C1714 C1700 1.377 . S
C1714 C1713 1.373 . S
C1715 C1699 1.377 . S
C1715 C1713 1.389 . S
C1715 C1716 1.524 . S
C1716 C1715 1.524 . S
C1716 C1717 1.397 . S
C1716 C1721 1.363 . S
C1717 H1688 0.950 . S
C1717 C1716 1.397 . S
C1717 C1718 1.334 . S
C1718 H1689 0.950 . S
C1718 C1717 1.334 . S
C1718 C1719 1.287 . S
C1719 C1718 1.287 . S
C1719 C1720 1.524 . S
C1719 H1722 0.999 . S
C1720 H1690 0.950 . S
C1720 C1719 1.524 . S
C1720 C1721 1.415 . S
C1721 H1691 0.950 . S
C1721 C1716 1.363 . S
C1721 C1720 1.415 . S
H1722 C1719 0.999 . S
H1723 C1704 0.913 . S
H1724 C1742 0.951 . S
H1725 C1744 0.951 . S
H1726 C1746 0.950 . S
H1727 C1747 0.950 . S
H1728 C1749 0.950 . S
H1729 C1752 0.950 . S
H1730 C1753 0.950 . S
H1731 C1755 0.950 . S
H1732 C1756 0.950 . S
H1733 C1757 0.951 . S
H1734 C1759 0.951 . S
H1735 C1761 0.950 . S
H1736 C1762 0.950 . S
H1737 C1764 0.950 . S
H1738 C1767 0.950 . S
H1739 C1768 0.950 . S
H1740 C1770 0.950 . S
H1741 C1771 0.950 . S
C1742 H1724 0.951 . S
C1742 C1743 1.366 . S
C1742 C1744 1.388 . S
C1743 C1742 1.366 . S
C1743 C1747 1.385 . S
C1744 H1725 0.951 . S
C1744 C1742 1.388 . S
C1744 C1745 1.366 . S
C1745 C1744 1.366 . S
C1745 C1746 1.414 . S
C1745 C1748 1.499 . S
C1746 H1726 0.950 . S
C1746 C1745 1.414 . S
C1746 C1747 1.374 . S
C1747 H1727 0.950 . S
C1747 C1743 1.385 . S
C1747 C1746 1.374 . S
C1748 C1745 1.499 . S
C1748 C1749 1.373 1_554 S
C1748 C1750 1.389 1_565 S
C1749 H1728 0.950 . S
C1749 C1748 1.373 1_556 S
C1749 C1765 1.377 . S
C1750 C1748 1.389 1_545 S
C1750 C1751 1.524 . S
C1750 C1764 1.377 . S
C1751 C1750 1.524 . S
C1751 C1752 1.397 . S
C1751 C1756 1.363 . S
C1752 H1729 0.950 . S
C1752 C1751 1.397 . S
C1752 C1753 1.334 . S
C1753 H1730 0.950 . S
C1753 C1752 1.334 . S
C1753 C1754 1.287 . S
C1754 C1753 1.287 . S
C1754 C1755 1.524 . S
C1754 H1773 0.913 . S
C1755 H1731 0.950 . S
C1755 C1754 1.524 . S
C1755 C1756 1.415 . S
C1756 H1732 0.950 . S
C1756 C1751 1.363 . S
C1756 C1755 1.415 . S
C1757 H1733 0.951 . S
C1757 C1758 1.366 . S
C1757 C1759 1.388 . S
C1758 C1757 1.366 . S
C1758 C1762 1.385 . S
C1759 H1734 0.951 . S
C1759 C1757 1.388 . S
C1759 C1760 1.366 . S
C1760 C1759 1.366 . S
C1760 C1761 1.414 . S
C1760 C1763 1.499 . S
C1761 H1735 0.950 . S
C1761 C1760 1.414 . S
C1761 C1762 1.374 . S
C1762 H1736 0.950 . S
C1762 C1758 1.385 . S
C1762 C1761 1.374 . S
C1763 C1760 1.499 . S
C1763 C1764 1.373 1_556 S
C1763 C1765 1.389 1_545 S
C1764 H1737 0.950 . S
C1764 C1750 1.377 . S
C1764 C1763 1.373 1_554 S
C1765 C1749 1.377 . S
C1765 C1763 1.389 1_565 S
C1765 C1766 1.524 . S
C1766 C1765 1.524 . S
C1766 C1767 1.397 . S
C1766 C1771 1.363 . S
C1767 H1738 0.950 . S
C1767 C1766 1.397 . S
C1767 C1768 1.334 . S
C1768 H1739 0.950 . S
C1768 C1767 1.334 . S
C1768 C1769 1.287 . S
C1769 C1768 1.287 . S
C1769 C1770 1.524 . S
C1769 H1772 0.999 . S
C1770 H1740 0.950 . S
C1770 C1769 1.524 . S
C1770 C1771 1.415 . S
C1771 H1741 0.950 . S
C1771 C1766 1.363 . S
C1771 C1770 1.415 . S
H1772 C1769 0.999 . S
H1773 C1754 0.913 . S
H1774 C1792 0.951 . S
H1775 C1794 0.951 . S
H1776 C1796 0.950 . S
H1777 C1797 0.950 . S
H1778 C1799 0.950 . S
H1779 C1802 0.950 . S
H1780 C1803 0.950 . S
H1781 C1805 0.950 . S
H1782 C1806 0.950 . S
H1783 C1807 0.951 . S
H1784 C1809 0.951 . S
H1785 C1811 0.950 . S
H1786 C1812 0.950 . S
H1787 C1814 0.950 . S
H1788 C1817 0.950 . S
H1789 C1818 0.950 . S
H1790 C1820 0.950 . S
H1791 C1821 0.950 . S
C1792 H1774 0.951 . S
C1792 C1793 1.366 . S
C1792 C1794 1.388 . S
C1793 C1792 1.366 . S
C1793 C1797 1.385 . S
C1794 H1775 0.951 . S
C1794 C1792 1.388 . S
C1794 C1795 1.366 . S
C1795 C1794 1.366 . S
C1795 C1796 1.414 . S
C1795 C1798 1.499 . S
C1796 H1776 0.950 . S
C1796 C1795 1.414 . S
C1796 C1797 1.374 . S
C1797 H1777 0.950 . S
C1797 C1793 1.385 . S
C1797 C1796 1.374 . S
C1798 C1795 1.499 . S
C1798 C1799 1.373 . S
C1798 C1800 1.389 . S
C1799 H1778 0.950 . S
C1799 C1798 1.373 . S
C1799 C1815 1.377 . S
C1800 C1798 1.389 . S
C1800 C1801 1.524 . S
C1800 C1814 1.377 . S
C1801 C1800 1.524 . S
C1801 C1802 1.397 . S
C1801 C1806 1.363 . S
C1802 H1779 0.950 . S
C1802 C1801 1.397 . S
C1802 C1803 1.334 . S
C1803 H1780 0.950 . S
C1803 C1802 1.334 . S
C1803 C1804 1.287 . S
C1804 C1803 1.287 . S
C1804 C1805 1.524 . S
C1804 H1823 0.913 . S
C1805 H1781 0.950 . S
C1805 C1804 1.524 . S
C1805 C1806 1.415 . S
C1806 H1782 0.950 . S
C1806 C1801 1.363 . S
C1806 C1805 1.415 . S
C1807 H1783 0.951 . S
C1807 C1808 1.366 . S
C1807 C1809 1.388 . S
C1808 C1807 1.366 . S
C1808 C1812 1.385 . S
C1809 H1784 0.951 . S
C1809 C1807 1.388 . S
C1809 C1810 1.366 . S
C1810 C1809 1.366 . S
C1810 C1811 1.414 . S
C1810 C1813 1.499 . S
C1811 H1785 0.950 . S
C1811 C1810 1.414 . S
C1811 C1812 1.374 . S
C1812 H1786 0.950 . S
C1812 C1808 1.385 . S
C1812 C1811 1.374 . S
C1813 C1810 1.499 . S
C1813 C1814 1.373 . S
C1813 C1815 1.389 . S
C1814 H1787 0.950 . S
C1814 C1800 1.377 . S
C1814 C1813 1.373 . S
C1815 C1799 1.377 . S
C1815 C1813 1.389 . S
C1815 C1816 1.524 . S
C1816 C1815 1.524 . S
C1816 C1817 1.397 . S
C1816 C1821 1.363 . S
C1817 H1788 0.950 . S
C1817 C1816 1.397 . S
C1817 C1818 1.334 . S
C1818 H1789 0.950 . S
C1818 C1817 1.334 . S
C1818 C1819 1.287 . S
C1819 C1818 1.287 . S
C1819 C1820 1.524 . S
C1819 H1822 0.999 . S
C1820 H1790 0.950 . S
C1820 C1819 1.524 . S
C1820 C1821 1.415 . S
C1821 H1791 0.950 . S
C1821 C1816 1.363 . S
C1821 C1820 1.415 . S
H1822 C1819 0.999 . S
H1823 C1804 0.913 . S
C243 C162 1.243 . S
C258 C13 1.243 . S
C293 C223 1.325 . S
C308 C22 1.331 . S
C343 C41 1.172 . S
C358 C139 1.167 . S
C393 C195 1.155 . S
C408 C55 1.151 . S
C443 C69 1.404 . S
C458 C190 1.401 . S
C493 C78 1.366 . S
C508 C167 1.365 . S
C543 C92 1.446 . S
C558 C218 1.447 . S
C593 C111 1.307 . S
C608 C134 1.315 . S
C643 C50 1.226 . S
C658 C125 1.226 . S
C693 C148 1.383 . S
C708 C27 1.381 . S
C743 C181 1.188 . S
C758 C83 1.193 . S
C793 C204 1.464 . S
C808 C106 1.466 . S
C843 C64 1.377 . S
C858 C120 1.386 . S
C893 C153 1.214 . S
C908 C97 1.205 . S
C943 C209 1.422 . S
C958 C36 1.420 . S
C993 C8 1.366 . S
C1008 C176 1.360 . S
C1043 C7 1.090 . S
C1058 C63 1.088 . S
C1093 C25 0.915 . S
C1108 C81 0.914 . S
C1143 C35 1.123 . S
C1158 C95 1.136 . S
C1193 C105 1.190 . S
C1208 C49 1.185 . S
C1243 C119 1.081 . S
C1258 C175 1.081 . S
C1293 C189 1.063 . S
C1308 C137 1.074 . S
C1343 C151 0.977 . S
C1358 C207 0.979 . S
C1393 C217 1.198 . S
C1408 C161 1.193 . S
C1443 C109 1.105 . S
C1458 C21 1.093 . S
C1493 C39 1.020 . S
C1508 C67 1.022 . S
C1543 C53 1.111 . S
C1558 C77 1.101 . S
C1593 C11 0.995 . S
C1608 C91 0.988 . S
C1643 C133 1.087 . S
C1658 C221 1.097 . S
C1693 C179 1.178 . S
C1708 C147 1.166 . S
C1743 C165 0.954 . S
C1758 C193 0.952 . S
C1793 C203 0.995 . S
C1808 C123 1.004 . S
