# Generated by pormake.
# Topology unr, (4)-cn, num edge types: 1
# Building blocks:
#     Node 0, Type 0, BuildingBlock: CEKHIL_clean_sbu_0, # of connection points: 4
#     Node 1, Type 0, BuildingBlock: CEKHIL_clean_sbu_0, # of connection points: 4
#     Node 2, Type 0, BuildingBlock: CEKHIL_clean_sbu_0, # of connection points: 4
#     Node 3, Type 0, BuildingBlock: CEKHIL_clean_sbu_0, # of connection points: 4
#     Node 4, Type 0, BuildingBlock: CEKHIL_clean_sbu_0, # of connection points: 4
#     Node 5, Type 0, BuildingBlock: CEKHIL_clean_sbu_0, # of connection points: 4
#     Node 6, Type 0, BuildingBlock: CEKHIL_clean_sbu_0, # of connection points: 4
#     Node 7, Type 0, BuildingBlock: CEKHIL_clean_sbu_0, # of connection points: 4
#     Node 8, Type 0, BuildingBlock: CEKHIL_clean_sbu_0, # of connection points: 4
#     Node 9, Type 0, BuildingBlock: CEKHIL_clean_sbu_0, # of connection points: 4
#     Node 10, Type 0, BuildingBlock: CEKHIL_clean_sbu_0, # of connection points: 4
#     Node 11, Type 0, BuildingBlock: CEKHIL_clean_sbu_0, # of connection points: 4
#     Node 12, Type 0, BuildingBlock: CEKHIL_clean_sbu_0, # of connection points: 4
#     Node 13, Type 0, BuildingBlock: CEKHIL_clean_sbu_0, # of connection points: 4
#     Node 14, Type 0, BuildingBlock: CEKHIL_clean_sbu_0, # of connection points: 4
#     Node 15, Type 0, BuildingBlock: CEKHIL_clean_sbu_0, # of connection points: 4
#     Node 16, Type 0, BuildingBlock: CEKHIL_clean_sbu_0, # of connection points: 4
#     Node 17, Type 0, BuildingBlock: CEKHIL_clean_sbu_0, # of connection points: 4
#     Node 18, Type 0, BuildingBlock: CEKHIL_clean_sbu_0, # of connection points: 4
#     Node 19, Type 0, BuildingBlock: CEKHIL_clean_sbu_0, # of connection points: 4
#     Node 20, Type 0, BuildingBlock: CEKHIL_clean_sbu_0, # of connection points: 4
#     Node 21, Type 0, BuildingBlock: CEKHIL_clean_sbu_0, # of connection points: 4
#     Node 22, Type 0, BuildingBlock: CEKHIL_clean_sbu_0, # of connection points: 4
#     Node 23, Type 0, BuildingBlock: CEKHIL_clean_sbu_0, # of connection points: 4
#     Node 24, Type 0, BuildingBlock: CEKHIL_clean_sbu_0, # of connection points: 4
#     Node 25, Type 0, BuildingBlock: CEKHIL_clean_sbu_0, # of connection points: 4
#     Node 26, Type 0, BuildingBlock: CEKHIL_clean_sbu_0, # of connection points: 4
#     Node 27, Type 0, BuildingBlock: CEKHIL_clean_sbu_0, # of connection points: 4
#     Node 28, Type 0, BuildingBlock: CEKHIL_clean_sbu_0, # of connection points: 4
#     Node 29, Type 0, BuildingBlock: CEKHIL_clean_sbu_0, # of connection points: 4
#     Node 30, Type 0, BuildingBlock: CEKHIL_clean_sbu_0, # of connection points: 4
#     Node 31, Type 0, BuildingBlock: CEKHIL_clean_sbu_0, # of connection points: 4
#     Node 32, Type 0, BuildingBlock: CEKHIL_clean_sbu_0, # of connection points: 4
#     Node 33, Type 0, BuildingBlock: CEKHIL_clean_sbu_0, # of connection points: 4
#     Node 34, Type 0, BuildingBlock: CEKHIL_clean_sbu_0, # of connection points: 4
#     Node 35, Type 0, BuildingBlock: CEKHIL_clean_sbu_0, # of connection points: 4
#     Edge 36, Type (0, 0), BuildingBlock: UVAHIK_clean_linker_0, # of connection points: 2
#     Edge 37, Type (0, 0), BuildingBlock: UVAHIK_clean_linker_0, # of connection points: 2
#     Edge 38, Type (0, 0), BuildingBlock: UVAHIK_clean_linker_0, # of connection points: 2
#     Edge 39, Type (0, 0), BuildingBlock: UVAHIK_clean_linker_0, # of connection points: 2
#     Edge 40, Type (0, 0), BuildingBlock: UVAHIK_clean_linker_0, # of connection points: 2
#     Edge 41, Type (0, 0), BuildingBlock: UVAHIK_clean_linker_0, # of connection points: 2
#     Edge 42, Type (0, 0), BuildingBlock: UVAHIK_clean_linker_0, # of connection points: 2
#     Edge 43, Type (0, 0), BuildingBlock: UVAHIK_clean_linker_0, # of connection points: 2
#     Edge 44, Type (0, 0), BuildingBlock: UVAHIK_clean_linker_0, # of connection points: 2
#     Edge 45, Type (0, 0), BuildingBlock: UVAHIK_clean_linker_0, # of connection points: 2
#     Edge 46, Type (0, 0), BuildingBlock: UVAHIK_clean_linker_0, # of connection points: 2
#     Edge 47, Type (0, 0), BuildingBlock: UVAHIK_clean_linker_0, # of connection points: 2
#     Edge 48, Type (0, 0), BuildingBlock: UVAHIK_clean_linker_0, # of connection points: 2
#     Edge 49, Type (0, 0), BuildingBlock: UVAHIK_clean_linker_0, # of connection points: 2
#     Edge 50, Type (0, 0), BuildingBlock: UVAHIK_clean_linker_0, # of connection points: 2
#     Edge 51, Type (0, 0), BuildingBlock: UVAHIK_clean_linker_0, # of connection points: 2
#     Edge 52, Type (0, 0), BuildingBlock: UVAHIK_clean_linker_0, # of connection points: 2
#     Edge 53, Type (0, 0), BuildingBlock: UVAHIK_clean_linker_0, # of connection points: 2
#     Edge 54, Type (0, 0), BuildingBlock: UVAHIK_clean_linker_0, # of connection points: 2
#     Edge 55, Type (0, 0), BuildingBlock: UVAHIK_clean_linker_0, # of connection points: 2
#     Edge 56, Type (0, 0), BuildingBlock: UVAHIK_clean_linker_0, # of connection points: 2
#     Edge 57, Type (0, 0), BuildingBlock: UVAHIK_clean_linker_0, # of connection points: 2
#     Edge 58, Type (0, 0), BuildingBlock: UVAHIK_clean_linker_0, # of connection points: 2
#     Edge 59, Type (0, 0), BuildingBlock: UVAHIK_clean_linker_0, # of connection points: 2
#     Edge 60, Type (0, 0), BuildingBlock: UVAHIK_clean_linker_0, # of connection points: 2
#     Edge 61, Type (0, 0), BuildingBlock: UVAHIK_clean_linker_0, # of connection points: 2
#     Edge 62, Type (0, 0), BuildingBlock: UVAHIK_clean_linker_0, # of connection points: 2
#     Edge 63, Type (0, 0), BuildingBlock: UVAHIK_clean_linker_0, # of connection points: 2
#     Edge 64, Type (0, 0), BuildingBlock: UVAHIK_clean_linker_0, # of connection points: 2
#     Edge 65, Type (0, 0), BuildingBlock: UVAHIK_clean_linker_0, # of connection points: 2
#     Edge 66, Type (0, 0), BuildingBlock: UVAHIK_clean_linker_0, # of connection points: 2
#     Edge 67, Type (0, 0), BuildingBlock: UVAHIK_clean_linker_0, # of connection points: 2
#     Edge 68, Type (0, 0), BuildingBlock: UVAHIK_clean_linker_0, # of connection points: 2
#     Edge 69, Type (0, 0), BuildingBlock: UVAHIK_clean_linker_0, # of connection points: 2
#     Edge 70, Type (0, 0), BuildingBlock: UVAHIK_clean_linker_0, # of connection points: 2
#     Edge 71, Type (0, 0), BuildingBlock: UVAHIK_clean_linker_0, # of connection points: 2
#     Edge 72, Type (0, 0), BuildingBlock: UVAHIK_clean_linker_0, # of connection points: 2
#     Edge 73, Type (0, 0), BuildingBlock: UVAHIK_clean_linker_0, # of connection points: 2
#     Edge 74, Type (0, 0), BuildingBlock: UVAHIK_clean_linker_0, # of connection points: 2
#     Edge 75, Type (0, 0), BuildingBlock: UVAHIK_clean_linker_0, # of connection points: 2
#     Edge 76, Type (0, 0), BuildingBlock: UVAHIK_clean_linker_0, # of connection points: 2
#     Edge 77, Type (0, 0), BuildingBlock: UVAHIK_clean_linker_0, # of connection points: 2
#     Edge 78, Type (0, 0), BuildingBlock: UVAHIK_clean_linker_0, # of connection points: 2
#     Edge 79, Type (0, 0), BuildingBlock: UVAHIK_clean_linker_0, # of connection points: 2
#     Edge 80, Type (0, 0), BuildingBlock: UVAHIK_clean_linker_0, # of connection points: 2
#     Edge 81, Type (0, 0), BuildingBlock: UVAHIK_clean_linker_0, # of connection points: 2
#     Edge 82, Type (0, 0), BuildingBlock: UVAHIK_clean_linker_0, # of connection points: 2
#     Edge 83, Type (0, 0), BuildingBlock: UVAHIK_clean_linker_0, # of connection points: 2
#     Edge 84, Type (0, 0), BuildingBlock: UVAHIK_clean_linker_0, # of connection points: 2
#     Edge 85, Type (0, 0), BuildingBlock: UVAHIK_clean_linker_0, # of connection points: 2
#     Edge 86, Type (0, 0), BuildingBlock: UVAHIK_clean_linker_0, # of connection points: 2
#     Edge 87, Type (0, 0), BuildingBlock: UVAHIK_clean_linker_0, # of connection points: 2
#     Edge 88, Type (0, 0), BuildingBlock: UVAHIK_clean_linker_0, # of connection points: 2
#     Edge 89, Type (0, 0), BuildingBlock: UVAHIK_clean_linker_0, # of connection points: 2
#     Edge 90, Type (0, 0), BuildingBlock: UVAHIK_clean_linker_0, # of connection points: 2
#     Edge 91, Type (0, 0), BuildingBlock: UVAHIK_clean_linker_0, # of connection points: 2
#     Edge 92, Type (0, 0), BuildingBlock: UVAHIK_clean_linker_0, # of connection points: 2
#     Edge 93, Type (0, 0), BuildingBlock: UVAHIK_clean_linker_0, # of connection points: 2
#     Edge 94, Type (0, 0), BuildingBlock: UVAHIK_clean_linker_0, # of connection points: 2
#     Edge 95, Type (0, 0), BuildingBlock: UVAHIK_clean_linker_0, # of connection points: 2
#     Edge 96, Type (0, 0), BuildingBlock: UVAHIK_clean_linker_0, # of connection points: 2
#     Edge 97, Type (0, 0), BuildingBlock: UVAHIK_clean_linker_0, # of connection points: 2
#     Edge 98, Type (0, 0), BuildingBlock: UVAHIK_clean_linker_0, # of connection points: 2
#     Edge 99, Type (0, 0), BuildingBlock: UVAHIK_clean_linker_0, # of connection points: 2
#     Edge 100, Type (0, 0), BuildingBlock: UVAHIK_clean_linker_0, # of connection points: 2
#     Edge 101, Type (0, 0), BuildingBlock: UVAHIK_clean_linker_0, # of connection points: 2
#     Edge 102, Type (0, 0), BuildingBlock: UVAHIK_clean_linker_0, # of connection points: 2
#     Edge 103, Type (0, 0), BuildingBlock: UVAHIK_clean_linker_0, # of connection points: 2
#     Edge 104, Type (0, 0), BuildingBlock: UVAHIK_clean_linker_0, # of connection points: 2
#     Edge 105, Type (0, 0), BuildingBlock: UVAHIK_clean_linker_0, # of connection points: 2
#     Edge 106, Type (0, 0), BuildingBlock: UVAHIK_clean_linker_0, # of connection points: 2
#     Edge 107, Type (0, 0), BuildingBlock: UVAHIK_clean_linker_0, # of connection points: 2
# Relax obj value: 0.393
# Max RMSD: 0.180
# Mean RMSD: 0.174
data_MOF--net-unr--node1-CEKHIL_clean_sbu_0--edge1-UVAHIK_clean_linker_0
_symmetry_space_group_name_H-M    P1
_symmetry_Int_Tables_number       1
_symmetry_cell_setting            triclinic
loop_
_symmetry_equiv_pos_as_xyz
'x, y, z'
_cell_length_a     62.338812
_cell_length_b     62.32485
_cell_length_c     128.15876
_cell_angle_alpha  89.994424
_cell_angle_beta   90.014965
_cell_angle_gamma 119.99649
loop_
_atom_site_label
_atom_site_type_symbol
_atom_site_fract_x
_atom_site_fract_y
_atom_site_fract_z
_atom_type_partial_charge
Co0 Co 0.1814 0.14462 0.18061 0.0
O1 O 0.20472 0.13438 0.18406 0.0
O2 O 0.20211 0.14924 0.16863 0.0
C3 C 0.18637 0.16605 0.1954 0.0
O4 O 0.15926 0.15676 0.1744 0.0
Co5 Co 0.13458 0.12677 0.19444 0.0
O6 O 0.13237 0.15337 0.18687 0.0
C7 C 0.13942 0.09158 0.18057 0.0
C8 C 0.21232 0.13976 0.1745 0.0
C9 C 0.14251 0.16108 0.17798 0.0
O10 O 0.15775 0.10985 0.17596 0.0
O11 O 0.12883 0.09427 0.18863 0.0
O12 O 0.20167 0.17649 0.18768 0.0
O13 O 0.17026 0.14294 0.19418 0.0
Co14 Co 0.85531 0.03844 0.17854 0.0
O15 O 0.86578 0.07188 0.18235 0.0
O16 O 0.84949 0.05488 0.16701 0.0
C17 C 0.83526 0.02162 0.19358 0.0
O18 O 0.84257 0.0044 0.17197 0.0
Co19 Co 0.8737 0.00841 0.19131 0.0
O20 O 0.84614 0.98002 0.18394 0.0
C21 C 0.90802 0.04873 0.17727 0.0
C22 C 0.85929 0.07434 0.17302 0.0
C23 C 0.83807 0.98303 0.17525 0.0
O24 O 0.88965 0.04968 0.17324 0.0
O25 O 0.90574 0.03483 0.18506 0.0
O26 O 0.82413 0.02662 0.18619 0.0
O27 O 0.85819 0.0285 0.19189 0.0
Co28 Co 0.9558 0.81739 0.17657 0.0
O29 O 0.92172 0.79349 0.17877 0.0
O30 O 0.94321 0.79599 0.16452 0.0
C31 C 0.96875 0.81349 0.19249 0.0
O32 O 0.99136 0.83992 0.17172 0.0
Co33 Co 0.98109 0.86485 0.19026 0.0
O34 O 0.01157 0.86625 0.18485 0.0
C35 C 0.94522 0.85951 0.17391 0.0
C36 C 0.92221 0.78541 0.1695 0.0
C37 C 0.01144 0.8563 0.17615 0.0
O38 O 0.94523 0.84026 0.17033 0.0
O39 O 0.95703 0.87096 0.18216 0.0
O40 O 0.96619 0.79805 0.18511 0.0
O41 O 0.9617 0.82916 0.19021 0.0
Co42 Co 0.14582 0.18242 0.31756 0.0
O43 O 0.13899 0.20817 0.31405 0.0
O44 O 0.15387 0.20469 0.32929 0.0
C45 C 0.16434 0.18428 0.30222 0.0
O46 O 0.15523 0.15817 0.3238 0.0
Co47 Co 0.12289 0.13402 0.3047 0.0
O48 O 0.14949 0.13031 0.31144 0.0
C49 C 0.09191 0.14247 0.31977 0.0
C50 C 0.14599 0.21642 0.32345 0.0
C51 C 0.15799 0.14039 0.32026 0.0
O52 O 0.1112 0.16208 0.32304 0.0
O53 O 0.09238 0.12938 0.31215 0.0
O54 O 0.17699 0.19928 0.30976 0.0
O55 O 0.14109 0.16979 0.30406 0.0
Co56 Co 0.81643 0.96481 0.31721 0.0
O57 O 0.79022 0.93218 0.31409 0.0
O58 O 0.79349 0.9525 0.32876 0.0
C59 C 0.81601 0.9802 0.30136 0.0
O60 O 0.84089 -0.00112 0.32303 0.0
Co61 Co 0.86559 0.98794 0.30496 0.0
O62 O 0.86948 0.01923 0.31069 0.0
C63 C 0.85522 0.94981 0.32096 0.0
C64 C 0.78157 0.9323 0.32327 0.0
C65 C 0.85894 0.01887 0.31924 0.0
O66 O 0.83559 0.95018 0.32364 0.0
O67 O 0.8692 0.96263 0.31339 0.0
O68 O 0.80079 0.97904 0.30858 0.0
O69 O 0.82987 0.97104 0.30381 0.0
Co70 Co 0.03145 0.85432 0.31638 0.0
O71 O 0.06417 0.86104 0.31318 0.0
O72 O 0.04398 0.84374 0.32785 0.0
C73 C 0.01583 0.83859 0.30055 0.0
O74 O -0.00258 0.84434 0.32231 0.0
Co75 Co 0.00755 0.87999 0.30441 0.0
O76 O 0.97648 0.85232 0.31017 0.0
C77 C 0.04571 0.90788 0.32039 0.0
C78 C 0.06416 0.85222 0.32234 0.0
C79 C 0.97722 0.84217 0.31867 0.0
O80 O 0.04586 0.88802 0.32289 0.0
O81 O 0.03255 0.90893 0.31293 0.0
O82 O 0.01734 0.82455 0.30769 0.0
O83 O 0.02486 0.86159 0.30305 0.0
Co84 Co 0.81045 0.85732 0.82047 0.0
O85 O 0.77924 0.85135 0.81534 0.0
O86 O 0.78497 0.82438 0.82455 0.0
C87 C 0.82269 0.8953 0.82688 0.0
O88 O 0.84032 0.85776 0.82721 0.0
Co89 Co 0.85888 0.90047 0.81127 0.0
O90 O 0.87276 0.89591 0.82447 0.0
C91 C 0.83054 0.85418 0.79925 0.0
C92 C 0.76997 0.82961 0.81956 0.0
C93 C 0.86251 0.87517 0.8292 0.0
O94 O 0.81576 0.84411 0.80699 0.0
O95 O 0.84821 0.87674 0.79921 0.0
O96 O 0.80849 0.87578 0.8324 0.0
O97 O 0.82713 0.8912 0.81747 0.0
Co98 Co 0.13675 0.95351 0.82208 0.0
O99 O 0.14063 0.92708 0.81666 0.0
O100 O 0.16779 0.95724 0.82692 0.0
C101 C 0.09722 0.92981 0.82733 0.0
O102 O 0.13842 0.98355 0.82928 0.0
Co103 Co 0.09814 0.96519 0.81226 0.0
O104 O 0.10279 0.98287 0.82565 0.0
C105 C 0.14525 0.98012 0.8013 0.0
C106 C 0.16162 0.93724 0.82157 0.0
C107 C 0.12269 0.99086 0.8309 0.0
O108 O 0.15325 0.97337 0.80917 0.0
O109 O 0.12348 0.97733 0.80081 0.0
O110 O 0.11523 0.93218 0.83323 0.0
O111 O 0.10362 0.93982 0.8182 0.0
Co112 Co 0.05235 0.17984 0.82381 0.0
O113 O 0.07695 0.21268 0.81993 0.0
O114 O 0.03979 0.2022 0.82629 0.0
C115 C 0.07846 0.17162 0.83271 0.0
O116 O 0.02245 0.14783 0.82887 0.0
Co117 Co 0.05603 0.13434 0.81658 0.0
O118 O 0.03207 0.1176 0.82808 0.0
C119 C 0.04007 0.16007 0.8017 0.0
C120 C 0.06113 0.21927 0.82275 0.0
C121 C 0.0183 0.126 0.8312 0.0
O122 O 0.0394 0.1737 0.80908 0.0
O123 O 0.04741 0.14437 0.80302 0.0
O124 O 0.06857 0.18318 0.83728 0.0
O125 O 0.07353 0.16678 0.82294 0.0
Co126 Co 0.85906 0.81932 0.67399 0.0
O127 O 0.85667 0.78793 0.67633 0.0
O128 O 0.82603 0.79328 0.67049 0.0
C129 C 0.89556 0.83693 0.66555 0.0
O130 O 0.85535 0.84914 0.67041 0.0
Co131 Co 0.90241 0.86608 0.68451 0.0
O132 O 0.88872 0.88371 0.67653 0.0
C133 C 0.86217 0.82787 0.69718 0.0
C134 C 0.83388 0.77833 0.67329 0.0
C135 C 0.86836 0.87279 0.67151 0.0
O136 O 0.8488 0.81919 0.68894 0.0
O137 O 0.885 0.84481 0.6969 0.0
O138 O 0.87528 0.82258 0.66049 0.0
O139 O 0.89326 0.83794 0.67551 0.0
Co140 Co 0.17821 0.04064 0.67682 0.0
O141 O 0.20863 0.06937 0.68067 0.0
O142 O 0.20549 0.03589 0.67298 0.0
C143 C 0.16052 0.06067 0.66936 0.0
O144 O 0.1498 0.00799 0.67144 0.0
Co145 Co 0.12927 0.03228 0.68704 0.0
O146 O 0.11377 0.00398 0.67725 0.0
C147 C 0.16727 0.02963 0.69957 0.0
C148 C 0.2194 0.05781 0.67695 0.0
C149 C 0.126 0.99665 0.67181 0.0
O150 O 0.17678 0.02664 0.69118 0.0
O151 O 0.14982 0.0348 0.69949 0.0
O152 O 0.17611 0.05688 0.66407 0.0
O153 O 0.15836 0.05465 0.67909 0.0
Co154 Co 0.95737 0.14409 0.67498 0.0
O155 O 0.93351 0.15155 0.68056 0.0
O156 O 0.96529 0.17702 0.67058 0.0
C157 C 0.92938 0.10595 0.66935 0.0
O158 O 0.98531 0.14192 0.66769 0.0
Co159 Co 0.96144 0.09997 0.68402 0.0
O160 O 0.97866 0.10345 0.67059 0.0
C161 C 0.9808 0.14664 0.69594 0.0
C162 C 0.94574 0.17275 0.67589 0.0
C163 C 0.98921 0.12393 0.66566 0.0
O164 O 0.97755 0.15756 0.6881 0.0
O165 O 0.97418 0.12361 0.69611 0.0
O166 O 0.93498 0.12514 0.66355 0.0
O167 O 0.93947 0.11058 0.67847 0.0
Co168 Co 0.84731 0.47577 0.51228 0.0
O169 O 0.87335 0.46949 0.51596 0.0
O170 O 0.87037 0.4851 0.50081 0.0
C171 C 0.84722 0.49333 0.52759 0.0
O172 O 0.82299 0.485 0.50594 0.0
Co173 Co 0.79793 0.45039 0.52459 0.0
O174 O 0.79444 0.4775 0.51825 0.0
C175 C 0.80846 0.42152 0.50926 0.0
C176 C 0.88211 0.47726 0.50668 0.0
C177 C 0.80503 0.48725 0.50964 0.0
O178 O 0.82806 0.44136 0.50638 0.0
O179 O 0.79449 0.42089 0.51672 0.0
O180 O 0.863 0.50654 0.52038 0.0
O181 O 0.8336 0.47002 0.52559 0.0
Co182 Co 0.51643 0.36776 0.51369 0.0
O183 O 0.52529 0.40117 0.51689 0.0
O184 O 0.51044 0.38255 0.50164 0.0
C185 C 0.49567 0.35113 0.52861 0.0
O186 O 0.50555 0.33367 0.5076 0.0
Co187 Co 0.53562 0.33989 0.52749 0.0
O188 O 0.5101 0.31044 0.51984 0.0
C189 C 0.56987 0.38013 0.5134 0.0
C190 C 0.51916 0.40245 0.50733 0.0
C191 C 0.50223 0.3128 0.51099 0.0
O192 O 0.55136 0.38004 0.50894 0.0
O193 O 0.56759 0.36689 0.52142 0.0
O194 O 0.48457 0.35515 0.52089 0.0
O195 O 0.51892 0.35892 0.52731 0.0
Co196 Co 0.6254 0.15324 0.51104 0.0
O197 O 0.59159 0.12935 0.51375 0.0
O198 O 0.61269 0.1296 0.49972 0.0
C199 C 0.63855 0.15223 0.52731 0.0
O200 O 0.6606 0.17526 0.50571 0.0
Co201 Co 0.65068 0.20304 0.52289 0.0
O202 O 0.68136 0.20429 0.51786 0.0
C203 C 0.61426 0.19429 0.5063 0.0
C204 C 0.59186 0.11969 0.50484 0.0
C205 C 0.68085 0.19274 0.5096 0.0
O206 O 0.61394 0.17421 0.50377 0.0
O207 O 0.62669 0.20786 0.51403 0.0
O208 O 0.63657 0.13604 0.5204 0.0
O209 O 0.63134 0.1674 0.52431 0.0
Co210 Co 0.80559 0.51256 0.65174 0.0
O211 O 0.7953 0.53615 0.64896 0.0
O212 O 0.81552 0.53582 0.66319 0.0
C213 C 0.82071 0.51431 0.6356 0.0
O214 O 0.81894 0.49073 0.65715 0.0
Co215 Co 0.78246 0.46321 0.63947 0.0
O216 O 0.81174 0.46221 0.64488 0.0
C217 C 0.75328 0.4711 0.65568 0.0
C218 C 0.80463 0.54562 0.65798 0.0
C219 C 0.82218 0.47352 0.65328 0.0
O220 O 0.77281 0.4909 0.65865 0.0
O221 O 0.75292 0.45824 0.64781 0.0
O222 O 0.83442 0.53045 0.64262 0.0
O223 O 0.7983 0.49884 0.63841 0.0
Co224 Co 0.48189 0.29506 0.65173 0.0
O225 O 0.45768 0.26111 0.64948 0.0
O226 O 0.46013 0.28277 0.66367 0.0
C227 C 0.47833 0.3076 0.63566 0.0
O228 O 0.5046 0.33039 0.65673 0.0
Co229 Co 0.52972 0.3202 0.63856 0.0
O230 O 0.53213 0.35106 0.64406 0.0
C231 C 0.5239 0.28458 0.6551 0.0
C232 C 0.44948 0.26174 0.6587 0.0
C233 C 0.52175 0.3506 0.65268 0.0
O234 O 0.50405 0.284 0.6582 0.0
O235 O 0.53619 0.29681 0.64707 0.0
O236 O 0.46324 0.30586 0.64304 0.0
O237 O 0.49397 0.30057 0.63809 0.0
Co238 Co 0.70398 0.18957 0.6504 0.0
O239 O 0.73586 0.19534 0.6462 0.0
O240 O 0.71859 0.18061 0.66163 0.0
C241 C 0.68482 0.17142 0.63538 0.0
O242 O 0.67123 0.18103 0.65734 0.0
Co243 Co 0.67869 0.21435 0.6386 0.0
O244 O 0.64868 0.18786 0.64555 0.0
C245 C 0.71958 0.24389 0.65328 0.0
C246 C 0.73761 0.18799 0.65547 0.0
C247 C 0.65063 0.1788 0.65416 0.0
O248 O 0.71986 0.22423 0.65603 0.0
O249 O 0.70536 0.24416 0.64612 0.0
O250 O 0.68793 0.15843 0.64255 0.0
O251 O 0.69478 0.19482 0.63724 0.0
Co252 Co 0.47384 0.18889 0.15418 0.0
O253 O 0.4403 0.17926 0.15101 0.0
O254 O 0.45227 0.15579 0.15943 0.0
C255 C 0.484 0.22669 0.16016 0.0
O256 O 0.50682 0.19296 0.15902 0.0
Co257 Co 0.51744 0.23361 0.14314 0.0
O258 O 0.53692 0.23145 0.15491 0.0
C259 C 0.48924 0.18568 0.13207 0.0
C260 C 0.43445 0.1585 0.15558 0.0
C261 C 0.52913 0.21113 0.15981 0.0
O262 O 0.47658 0.17534 0.14033 0.0
O263 O 0.50555 0.20871 0.13149 0.0
O264 O 0.47354 0.20765 0.16634 0.0
O265 O 0.48658 0.22218 0.15055 0.0
Co266 Co 0.806 0.29114 0.15496 0.0
O267 O 0.81144 0.26386 0.15296 0.0
O268 O 0.83876 0.30018 0.15988 0.0
C269 C 0.7678 0.26872 0.16179 0.0
O270 O 0.8064 0.32309 0.15862 0.0
Co271 Co 0.76352 0.29279 0.14301 0.0
O272 O 0.7738 0.32341 0.15117 0.0
C273 C 0.80701 0.29799 0.1318 0.0
C274 C 0.83317 0.27801 0.15695 0.0
C275 C 0.79293 0.33303 0.157 0.0
O276 O 0.8191 0.30307 0.14044 0.0
O277 O 0.78386 0.29075 0.13137 0.0
O278 O 0.78714 0.27623 0.16775 0.0
O279 O 0.77223 0.27332 0.15198 0.0
Co280 Co 0.70565 0.51112 0.1575 0.0
O281 O 0.7339 0.54189 0.1536 0.0
O282 O 0.69917 0.53781 0.16036 0.0
C283 C 0.72672 0.4958 0.16597 0.0
O284 O 0.67297 0.48211 0.16259 0.0
Co285 Co 0.7003 0.46193 0.14882 0.0
O286 O 0.67419 0.44708 0.15966 0.0
C287 C 0.69486 0.49658 0.13489 0.0
C288 C 0.72126 0.55212 0.15663 0.0
C289 C 0.66436 0.4587 0.16378 0.0
O290 O 0.69255 0.50782 0.14285 0.0
O291 O 0.70026 0.47933 0.13565 0.0
O292 O 0.7215 0.51101 0.17075 0.0
O293 O 0.72116 0.4924 0.15619 0.0
Co294 Co 0.5296 0.14912 0.00882 0.0
O295 O 0.52361 0.11712 0.01271 0.0
O296 O 0.49599 0.12456 0.00503 0.0
C297 C 0.56678 0.16171 0.00146 0.0
O298 O 0.53016 0.18025 0.00356 0.0
Co299 Co 0.57448 0.19518 0.01876 0.0
O300 O 0.56781 0.21252 0.00733 0.0
C301 C 0.53057 0.16261 0.03144 0.0
C302 C 0.5014 0.10873 0.00912 0.0
C303 C 0.54703 0.20316 0.00262 0.0
O304 O 0.51821 0.1526 0.02308 0.0
O305 O 0.55381 0.17841 0.03142 0.0
O306 O 0.5467 0.1487 0.99605 0.0
O307 O 0.56357 0.1647 0.01117 0.0
Co308 Co 0.85178 0.37972 0.00948 0.0
O309 O 0.88342 0.4056 0.01392 0.0
O310 O 0.87707 0.37247 0.00488 0.0
C311 C 0.8382 0.4046 0.00336 0.0
O312 O 0.82144 0.34955 0.00343 0.0
Co313 Co 0.8041 0.3739 0.01969 0.0
O314 O 0.78859 0.35412 0.00693 0.0
C315 C 0.83479 0.35789 0.03114 0.0
C316 C 0.89244 0.39306 0.00956 0.0
C317 C 0.79878 0.34387 0.00198 0.0
O318 O 0.84851 0.3622 0.02306 0.0
O319 O 0.81681 0.36229 0.03157 0.0
O320 O 0.8519 0.39921 0.99753 0.0
O321 O 0.83496 0.39659 0.01285 0.0
Co322 Co 0.61548 0.46837 0.01081 0.0
O323 O 0.59046 0.47517 0.01559 0.0
O324 O 0.62335 0.50106 0.00621 0.0
C325 C 0.58899 0.43002 0.00487 0.0
O326 O 0.64488 0.46728 0.0044 0.0
Co327 Co 0.62028 0.42513 0.0203 0.0
O328 O 0.63974 0.42946 0.00745 0.0
C329 C 0.6387 0.47211 0.03202 0.0
C330 C 0.60309 0.49644 0.01101 0.0
C331 C 0.65035 0.45021 0.00273 0.0
O332 O 0.63404 0.48215 0.02424 0.0
O333 O 0.6336 0.44948 0.03215 0.0
O334 O 0.5947 0.4492 0.99905 0.0
O335 O 0.598 0.43475 0.0142 0.0
Co336 Co 0.51159 0.80828 0.84584 0.0
O337 O 0.53757 0.80178 0.84935 0.0
O338 O 0.53387 0.81666 0.83413 0.0
C339 C 0.51274 0.82682 0.86105 0.0
O340 O 0.48719 0.81753 0.83962 0.0
Co341 Co 0.46299 0.78439 0.8587 0.0
O342 O 0.45948 0.81129 0.85214 0.0
C343 C 0.4721 0.75405 0.84357 0.0
C344 C 0.54579 0.80895 0.83996 0.0
C345 C 0.46958 0.82028 0.84336 0.0
O346 O 0.49156 0.77356 0.84033 0.0
O347 O 0.45885 0.7542 0.85119 0.0
O348 O 0.52814 0.83951 0.85363 0.0
O349 O 0.49872 0.80346 0.85928 0.0
Co350 Co 0.18114 0.69883 0.84736 0.0
O351 O 0.19179 0.73316 0.8491 0.0
O352 O 0.17436 0.71132 0.83473 0.0
C353 C 0.16241 0.68735 0.86305 0.0
O354 O 0.16808 0.66312 0.8428 0.0
Co355 Co 0.20001 0.67281 0.86233 0.0
O356 O 0.17273 0.64222 0.85605 0.0
C357 C 0.23375 0.70917 0.84676 0.0
C358 C 0.18456 0.73251 0.83957 0.0
C359 C 0.16415 0.64283 0.8471 0.0
O360 O 0.21514 0.7085 0.84213 0.0
O361 O 0.23176 0.69773 0.85533 0.0
O362 O 0.15055 0.68943 0.85512 0.0
O363 O 0.18512 0.69343 0.86132 0.0
Co364 Co 0.29097 0.48234 0.84574 0.0
O365 O 0.25704 0.4583 0.84826 0.0
O366 O 0.27754 0.46109 0.83366 0.0
C367 C 0.30449 0.47793 0.86148 0.0
O368 O 0.3261 0.50502 0.84046 0.0
Co369 Co 0.31755 0.52947 0.8595 0.0
O370 O 0.34775 0.53189 0.85323 0.0
C371 C 0.27977 0.52402 0.84404 0.0
C372 C 0.25686 0.4504 0.83889 0.0
C373 C 0.34662 0.52185 0.84444 0.0
O374 O 0.27988 0.5052 0.84002 0.0
O375 O 0.29219 0.53515 0.85223 0.0
O376 O 0.30196 0.46294 0.85391 0.0
O377 O 0.29759 0.49381 0.85942 0.0
Co378 Co 0.47631 0.84742 0.98517 0.0
O379 O 0.46801 0.87218 0.98171 0.0
O380 O 0.48645 0.8713 0.99638 0.0
C381 C 0.49171 0.84752 0.96925 0.0
O382 O 0.48792 0.82468 0.99123 0.0
Co383 Co 0.45177 0.7973 0.97359 0.0
O384 O 0.48102 0.79625 0.979 0.0
C385 C 0.42362 0.80671 0.98972 0.0
C386 C 0.47705 0.88193 0.99072 0.0
C387 C 0.49112 0.80736 0.98747 0.0
O388 O 0.44306 0.82736 0.99195 0.0
O389 O 0.42286 0.79241 0.98237 0.0
O390 O 0.50564 0.86367 0.97623 0.0
O391 O 0.46899 0.83292 0.97196 0.0
Co392 Co 0.1471 0.63149 0.98235 0.0
O393 O 0.12038 0.59944 0.97871 0.0
O394 O 0.12771 0.61568 0.99462 0.0
C395 C 0.14266 0.6513 0.96858 0.0
O396 O 0.17279 0.66403 0.98892 0.0
Co397 Co 0.19263 0.6585 0.96773 0.0
O398 O 0.1997 0.6876 0.97648 0.0
C399 C 0.18572 0.61576 0.9803 0.0
C400 C 0.1145 0.5969 0.98852 0.0
C401 C 0.19075 0.68476 0.98564 0.0
O402 O 0.16828 0.61636 0.98538 0.0
O403 O 0.19656 0.62979 0.97245 0.0
O404 O 0.12886 0.64708 0.9768 0.0
O405 O 0.15694 0.64188 0.9687 0.0
Co406 Co 0.36824 0.52051 0.98352 0.0
O407 O 0.40208 0.52967 0.98137 0.0
O408 O 0.38101 0.51355 0.99603 0.0
C409 C 0.35429 0.50099 0.96813 0.0
O410 O 0.33299 0.50903 0.9884 0.0
Co411 Co 0.34364 0.54147 0.96871 0.0
O412 O 0.3129 0.51437 0.97497 0.0
C413 C 0.38092 0.57411 0.98417 0.0
C414 C 0.40183 0.52283 0.99094 0.0
C415 C 0.31301 0.50555 0.98393 0.0
O416 O 0.37971 0.55508 0.98864 0.0
O417 O 0.36934 0.57273 0.97571 0.0
O418 O 0.35694 0.48925 0.97597 0.0
O419 O 0.36197 0.52415 0.96965 0.0
Co420 Co 0.14887 0.52239 0.48858 0.0
O421 O 0.11844 0.51926 0.48386 0.0
O422 O 0.12196 0.48965 0.492 0.0
C423 C 0.1639 0.55988 0.49606 0.0
O424 O 0.1777 0.51987 0.49471 0.0
Co425 Co 0.19783 0.56506 0.47911 0.0
O426 O 0.21302 0.55447 0.49007 0.0
C427 C 0.16345 0.52284 0.4662 0.0
C428 C 0.10792 0.49687 0.48749 0.0
C429 C 0.20131 0.53431 0.49518 0.0
O430 O 0.15298 0.51044 0.47451 0.0
O431 O 0.17995 0.54584 0.46633 0.0
O432 O 0.14832 0.54012 0.50115 0.0
O433 O 0.16755 0.55639 0.48646 0.0
Co434 Co 0.47325 0.62512 0.4877 0.0
O435 O 0.47554 0.59657 0.48405 0.0
O436 O 0.50568 0.63075 0.4914 0.0
C437 C 0.4359 0.60475 0.49544 0.0
O438 O 0.47704 0.65776 0.49286 0.0
Co439 Co 0.4315 0.63206 0.47771 0.0
O440 O 0.44435 0.66084 0.48724 0.0
C441 C 0.47191 0.63493 0.46491 0.0
C442 C 0.49795 0.60867 0.48767 0.0
C443 C 0.46423 0.66874 0.4925 0.0
O444 O 0.48496 0.63854 0.47319 0.0
O445 O 0.44917 0.62933 0.46519 0.0
O446 O 0.45562 0.60917 0.50062 0.0
O447 O 0.43923 0.61042 0.48567 0.0
Co448 Co 0.37093 0.84507 0.49066 0.0
O449 O 0.39959 0.87552 0.4868 0.0
O450 O 0.36579 0.87229 0.49419 0.0
C451 C 0.39116 0.82801 0.49845 0.0
O452 O 0.33822 0.81652 0.49594 0.0
Co453 Co 0.36353 0.79607 0.48078 0.0
O454 O 0.33555 0.78063 0.49074 0.0
C455 C 0.36046 0.83345 0.46791 0.0
C456 C 0.38779 0.88623 0.49031 0.0
C457 C 0.32756 0.79273 0.49586 0.0
O458 O 0.35726 0.84313 0.4762 0.0
O459 O 0.3658 0.81612 0.46816 0.0
O460 O 0.38703 0.84358 0.50357 0.0
O461 O 0.38529 0.82544 0.4887 0.0
Co462 Co 0.20156 0.47747 0.34179 0.0
O463 O 0.19186 0.44378 0.3445 0.0
O464 O 0.16668 0.45668 0.33856 0.0
C465 C 0.23665 0.48668 0.33331 0.0
O466 O 0.20569 0.51101 0.33798 0.0
Co467 Co 0.25034 0.51919 0.3514 0.0
O468 O 0.24546 0.5399 0.34092 0.0
C469 C 0.20664 0.49008 0.36479 0.0
C470 C 0.16983 0.43855 0.34166 0.0
C471 C 0.22418 0.53312 0.33704 0.0
O472 O 0.19318 0.48079 0.35662 0.0
O473 O 0.2302 0.50425 0.36441 0.0
O474 O 0.21575 0.47656 0.32828 0.0
O475 O 0.23536 0.48905 0.34325 0.0
Co476 Co 0.51105 0.71079 0.34175 0.0
O477 O 0.54007 0.7381 0.34752 0.0
O478 O 0.53975 0.70847 0.33775 0.0
C479 C 0.49429 0.73303 0.33571 0.0
O480 O 0.48407 0.68 0.33438 0.0
Co481 Co 0.45958 0.69738 0.35079 0.0
O482 O 0.44817 0.6793 0.33738 0.0
C483 C 0.49233 0.68469 0.36261 0.0
C484 C 0.55228 0.72869 0.34317 0.0
C485 C 0.46098 0.67186 0.33245 0.0
O486 O 0.50738 0.69151 0.35486 0.0
O487 O 0.47285 0.68668 0.36276 0.0
O488 O 0.51097 0.73139 0.33025 0.0
O489 O 0.4902 0.72329 0.34491 0.0
Co490 Co 0.28535 0.80679 0.34506 0.0
O491 O 0.25895 0.81034 0.35065 0.0
O492 O 0.2892 0.83821 0.34065 0.0
C493 C 0.26144 0.76769 0.33941 0.0
O494 O 0.3153 0.80878 0.3377 0.0
Co495 Co 0.29653 0.76739 0.35428 0.0
O496 O 0.31396 0.77259 0.34078 0.0
C497 C 0.31188 0.81396 0.36577 0.0
C498 C 0.26912 0.83167 0.34601 0.0
C499 C 0.32198 0.79274 0.33572 0.0
O500 O 0.30508 0.82241 0.35808 0.0
O501 O 0.30903 0.79213 0.36597 0.0
O502 O 0.26436 0.78613 0.33366 0.0
O503 O 0.27124 0.77334 0.34859 0.0
C504 C 0.12202 0.18562 0.17445 0.0
C505 C 0.12949 0.16914 0.17084 0.0
C506 C 0.10048 0.18431 0.17054 0.0
C507 C 0.04356 0.14245 0.15458 0.0
H508 H 0.01234 0.13621 0.18143 0.0
C509 C 0.95398 0.06756 0.17831 0.0
C510 C 0.93321 0.06588 0.17324 0.0
C511 C 0.97778 0.08582 0.17549 0.0
C512 C 0.02075 0.13812 0.17384 0.0
H513 H 0.12295 0.1413 0.15925 0.0
H514 H 0.08481 0.13786 0.15286 0.0
H515 H 0.05642 0.16324 0.17973 0.0
H516 H 0.92134 0.08129 0.16079 0.0
H517 H 0.96336 0.11313 0.15578 0.0
H518 H 0.00736 0.11538 0.14907 0.0
C519 C 0.09547 0.15224 0.1585 0.0
C520 C 0.04612 0.15396 0.17277 0.0
C521 C 0.11749 0.15419 0.16216 0.0
C522 C 0.93693 0.08212 0.16489 0.0
C523 C 0.96091 0.10033 0.162 0.0
C524 C 0.01797 0.1265 0.15567 0.0
C525 C 0.08552 0.16562 0.16336 0.0
C526 C 0.05817 0.15538 0.16328 0.0
C527 C 0.98142 0.10271 0.1675 0.0
C528 C 0.00672 0.12333 0.16547 0.0
H529 H 0.13119 0.1975 0.18108 0.0
H530 H 0.09397 0.19576 0.17411 0.0
H531 H 0.0521 0.1434 0.14711 0.0
H532 H 0.95192 0.05533 0.18471 0.0
H533 H 0.99342 0.0871 0.17973 0.0
C534 C 0.81298 0.93825 0.17121 0.0
C535 C 0.82959 0.96239 0.16784 0.0
C536 C 0.81372 0.91814 0.16679 0.0
C537 C 0.85479 0.90393 0.14975 0.0
H538 H 0.85964 0.87459 0.17568 0.0
C539 C 0.93048 0.88989 0.17185 0.0
C540 C 0.9292 0.86765 0.16877 0.0
C541 C 0.91286 0.89576 0.16837 0.0
C542 C 0.85796 0.88218 0.16832 0.0
H543 H 0.85716 0.98431 0.15626 0.0
H544 H 0.85972 0.94983 0.14903 0.0
H545 H 0.83309 0.89236 0.1748 0.0
H546 H 0.90932 0.83492 0.15903 0.0
H547 H 0.87837 0.84545 0.15296 0.0
H548 H 0.88194 0.89541 0.14376 0.0
C549 C 0.8456 0.94583 0.15483 0.0
C550 C 0.84247 0.89223 0.16772 0.0
C551 C 0.84417 0.9658 0.15899 0.0
C552 C 0.91084 0.85221 0.16155 0.0
C553 C 0.89315 0.85817 0.15806 0.0
C554 C 0.87049 0.8939 0.15039 0.0
C555 C 0.83204 0.92212 0.15937 0.0
C556 C 0.84168 0.90453 0.15862 0.0
C557 C 0.8937 0.87961 0.16171 0.0
C558 C 0.87297 0.88408 0.15986 0.0
H559 H 0.80137 0.9352 0.17797 0.0
H560 H 0.80204 0.89993 0.17011 0.0
H561 H 0.85428 0.91272 0.14254 0.0
H562 H 0.94446 0.90232 0.17731 0.0
H563 H 0.91355 0.91244 0.17125 0.0
C564 C 0.11292 0.04559 0.18215 0.0
C565 C 0.13144 0.06621 0.17679 0.0
C566 C 0.10727 0.02171 0.17939 0.0
C567 C 0.10875 0.98256 0.15874 0.0
H568 H 0.10001 0.9401 0.18234 0.0
C569 C 0.03422 0.88292 0.16132 0.0
C570 C 0.03434 0.86943 0.17005 0.0
C571 C 0.05548 0.90517 0.15872 0.0
C572 C 0.103 0.95153 0.17553 0.0
H573 H 0.15779 0.07771 0.16399 0.0
H574 H 0.1475 0.03565 0.15912 0.0
H575 H 0.11772 0.98399 0.18502 0.0
H576 H 0.05749 0.86539 0.18152 0.0
H577 H 0.0952 0.903 0.17641 0.0
H578 H 0.09322 0.94982 0.14928 0.0
C579 C 0.13761 0.03821 0.1655 0.0
C580 C 0.11282 0.9768 0.17715 0.0
C581 C 0.14343 0.06224 0.16831 0.0
C582 C 0.05697 0.87571 0.17481 0.0
C583 C 0.07845 0.8975 0.17198 0.0
C584 C 0.09892 0.9571 0.15709 0.0
C585 C 0.11989 0.0178 0.1712 0.0
C586 C 0.11454 0.99232 0.16889 0.0
C587 C 0.07719 0.91384 0.16473 0.0
C588 C 0.09467 0.94105 0.16557 0.0
H589 H 0.10318 0.04786 0.18867 0.0
H590 H 0.09311 0.00621 0.18377 0.0
H591 H 0.11022 0.99425 0.15221 0.0
H592 H 0.01691 0.8784 0.15752 0.0
H593 H 0.05368 0.9169 0.15297 0.0
C594 C 0.1798 0.11725 0.32437 0.0
C595 C 0.16403 0.12599 0.32753 0.0
C596 C 0.17753 0.09572 0.32881 0.0
C597 C 0.13294 0.04122 0.34571 0.0
H598 H 0.13629 0.00528 0.32167 0.0
C599 C 0.05747 0.95023 0.32684 0.0
C600 C 0.0628 0.93093 0.32596 0.0
C601 C 0.07495 0.97302 0.33107 0.0
C602 C 0.13562 0.01507 0.32854 0.0
H603 H 0.13581 0.12122 0.33859 0.0
H604 H 0.13038 0.08311 0.34575 0.0
H605 H 0.1618 0.04971 0.32215 0.0
H606 H 0.09018 0.91996 0.32914 0.0
H607 H 0.12125 0.96041 0.33606 0.0
H608 H 0.10411 0.00595 0.3513 0.0
C609 C 0.14517 0.09273 0.34017 0.0
C610 C 0.15049 0.04076 0.32892 0.0
C611 C 0.14825 0.11482 0.33605 0.0
C612 C 0.08554 0.9345 0.32978 0.0
C613 C 0.10326 0.95751 0.33377 0.0
C614 C 0.11745 0.01549 0.34514 0.0
C615 C 0.15838 0.08177 0.336 0.0
C616 C 0.14848 0.05448 0.33725 0.0
C617 C 0.09818 0.97699 0.33429 0.0
C618 C 0.11812 0.00248 0.33636 0.0
H619 H 0.19231 0.12578 0.31785 0.0
H620 H 0.18921 0.08887 0.32583 0.0
H621 H 0.13145 0.05075 0.35248 0.0
H622 H 0.04006 0.94793 0.32402 0.0
H623 H 0.07089 0.98801 0.33127 0.0
C624 C 0.88077 0.06425 0.32217 0.0
C625 C 0.87275 0.04042 0.32605 0.0
C626 C 0.90203 0.08453 0.32625 0.0
C627 C 0.9572 0.09932 0.34353 0.0
H628 H 0.99178 0.12913 0.31773 0.0
C629 C 0.04719 0.11196 0.32296 0.0
C630 C 0.06782 0.13555 0.32467 0.0
C631 C 0.02384 0.10641 0.32652 0.0
C632 C 0.98238 0.1214 0.32506 0.0
H633 H 0.87833 0.01926 0.33803 0.0
H634 H 0.91609 0.05387 0.34465 0.0
H635 H 0.9474 0.11087 0.31842 0.0
H636 H 0.0803 0.17141 0.33193 0.0
H637 H 0.03905 0.16158 0.33797 0.0
H638 H 0.99282 0.10802 0.34964 0.0
C639 C 0.90601 0.05763 0.33874 0.0
C640 C 0.95679 0.11105 0.32555 0.0
C641 C 0.8842 0.03757 0.33493 0.0
C642 C 0.06477 0.15304 0.3305 0.0
C643 C 0.04129 0.14748 0.33399 0.0
C644 C 0.98294 0.10948 0.34297 0.0
C645 C 0.91635 0.08095 0.33383 0.0
C646 C 0.94358 0.09862 0.33461 0.0
C647 C 0.02067 0.12431 0.33183 0.0
C648 C 0.99539 0.11958 0.33357 0.0
H649 H 0.87202 0.06685 0.31536 0.0
H650 H 0.90865 0.10246 0.32264 0.0
H651 H 0.94787 0.09056 0.35074 0.0
H652 H 0.04893 0.09802 0.3186 0.0
H653 H 0.008 0.08845 0.32474 0.0
C654 C 0.84157 0.90992 0.33038 0.0
C655 C 0.8609 0.93238 0.32641 0.0
C656 C 0.84645 0.89173 0.33414 0.0
C657 C 0.87163 0.85944 0.32766 0.0
H658 H 0.90939 0.86002 0.35177 0.0
C659 C 0.93193 0.81864 0.32204 0.0
C660 C 0.956 0.83441 0.32568 0.0
C661 C 0.91186 0.81917 0.32663 0.0
C662 C 0.89894 0.85953 0.34494 0.0
H663 H 0.90056 0.95419 0.324 0.0
H664 H 0.9091 0.92254 0.33084 0.0
H665 H 0.8917 0.88723 0.35129 0.0
H666 H 0.97792 0.86073 0.33765 0.0
H667 H 0.94385 0.86333 0.34509 0.0
H668 H 0.88101 0.83462 0.32056 0.0
C669 C 0.89024 0.91907 0.33094 0.0
C670 C 0.88854 0.87491 0.34478 0.0
C671 C 0.88534 0.93701 0.32695 0.0
C672 C 0.95942 0.84836 0.33472 0.0
C673 C 0.93959 0.84977 0.33901 0.0
C674 C 0.88261 0.84472 0.32765 0.0
C675 C 0.87077 0.89609 0.33427 0.0
C676 C 0.87573 0.87563 0.33594 0.0
C677 C 0.91582 0.8367 0.33446 0.0
C678 C 0.89772 0.84559 0.33604 0.0
H679 H 0.82252 0.90581 0.33 0.0
H680 H 0.83119 0.87392 0.33652 0.0
H681 H 0.86184 0.85988 0.32074 0.0
H682 H 0.92889 0.80749 0.31511 0.0
H683 H 0.89367 0.80757 0.3233 0.0
C684 C 0.88491 0.85272 0.83329 0.0
C685 C 0.87847 0.87049 0.83611 0.0
C686 C 0.90649 0.85421 0.83729 0.0
C687 C 0.95577 0.86273 0.84572 0.0
H688 H 0.00455 0.93216 0.84197 0.0
C689 C 0.06444 0.90751 0.84095 0.0
C690 C 0.07162 0.91932 0.83118 0.0
C691 C 0.04032 0.89877 0.84467 0.0
C692 C 0.99118 0.91277 0.84324 0.0
H693 H 0.88712 0.90153 0.84624 0.0
H694 H 0.92398 0.90331 0.85371 0.0
H695 H 0.96143 0.92008 0.84426 0.0
H696 H 0.05908 0.93065 0.81756 0.0
H697 H 0.01749 0.91605 0.82415 0.0
H698 H 0.98604 0.85574 0.84389 0.0
C699 C 0.9131 0.88882 0.84813 0.0
C700 C 0.96641 0.90576 0.84466 0.0
C701 C 0.8919 0.8877 0.84395 0.0
C702 C 0.05422 0.92181 0.82514 0.0
C703 C 0.03042 0.91349 0.8289 0.0
C704 C 0.98077 0.86985 0.84434 0.0
C705 C 0.92169 0.87336 0.84424 0.0
C706 C 0.9482 0.88057 0.84548 0.0
C707 C 0.02335 0.90216 0.83873 0.0
C708 C -0.0016 0.89484 0.84265 0.0
H709 H 0.87486 0.83944 0.82717 0.0
H710 H 0.91249 0.842 0.83408 0.0
H711 H 0.94226 0.84322 0.84643 0.0
H712 H 0.07749 0.90525 0.84575 0.0
H713 H 0.03514 0.89002 0.85227 0.0
C714 C 0.11713 0.17043 0.83523 0.0
C715 C 0.09275 0.16247 0.83831 0.0
C716 C 0.12932 0.15821 0.83883 0.0
C717 C 0.12134 0.10517 0.85573 0.0
H718 H 0.15386 0.09419 0.83226 0.0
C719 C 0.10987 0.01265 0.84344 0.0
C720 C 0.12893 0.01179 0.83798 0.0
C721 C 0.11365 0.03491 0.84764 0.0
C722 C 0.14551 0.09745 0.83904 0.0
H723 H 0.06209 0.1365 0.84782 0.0
H724 H 0.08258 0.11403 0.85366 0.0
H725 H 0.14486 0.12754 0.83155 0.0
H726 H 0.16755 0.03273 0.83349 0.0
H727 H 0.17408 0.07199 0.84068 0.0
H728 H 0.12003 0.07321 0.8627 0.0
C729 C 0.09296 0.13029 0.84885 0.0
C730 C 0.14029 0.11673 0.83865 0.0
C731 C 0.08106 0.14304 0.84547 0.0
C732 C 0.15259 0.03294 0.8377 0.0
C733 C 0.15628 0.05539 0.84177 0.0
C734 C 0.12624 0.08557 0.85604 0.0
C735 C 0.11692 0.13711 0.84524 0.0
C736 C 0.12721 0.12026 0.8468 0.0
C737 C 0.13646 0.0568 0.8463 0.0
C738 C 0.13749 0.08096 0.8475 0.0
H739 H 0.12641 0.18548 0.8297 0.0
H740 H 0.14799 0.16453 0.83613 0.0
H741 H 0.11184 0.10768 0.86228 0.0
H742 H 0.09148 0.9965 0.84378 0.0
H743 H 0.09796 0.03539 0.85102 0.0
C744 C 0.84368 0.92393 0.84185 0.0
C745 C 0.83592 0.92033 0.83139 0.0
C746 C 0.85933 0.94789 0.84563 0.0
C747 C 0.88334 0.01403 0.84121 0.0
H748 H 0.94817 0.02254 0.84689 0.0
C749 C 0.97241 0.10428 0.83215 0.0
C750 C 0.99493 0.10843 0.83632 0.0
C751 C 0.9502 0.08344 0.83515 0.0
C752 C 0.93018 0.02078 0.8457 0.0
H753 H 0.83699 0.93857 0.81686 0.0
H754 H 0.86362 0.98045 0.82357 0.0
H755 H 0.9127 0.98122 0.84572 0.0
H756 H 0.01206 0.09605 0.84767 0.0
H757 H 0.97322 0.0608 0.85358 0.0
H758 H 0.90063 0.05351 0.84112 0.0
C759 C 0.85781 0.96485 0.82881 0.0
C760 C 0.90981 0.99692 0.84497 0.0
C761 C 0.84276 0.94095 0.82496 0.0
C762 C 0.99481 0.09296 0.84428 0.0
C763 C 0.97255 0.0726 0.84755 0.0
C764 C 0.90363 0.03798 0.8422 0.0
C765 C 0.86676 0.96848 0.83908 0.0
C766 C 0.88647 0.99336 0.8423 0.0
C767 C 0.95007 0.06668 0.84258 0.0
C768 C 0.92759 0.04173 0.84396 0.0
H769 H 0.8388 0.90824 0.84692 0.0
H770 H 0.86625 0.95031 0.85355 0.0
H771 H 0.86539 0.01163 0.8392 0.0
H772 H 0.97214 0.11592 0.82592 0.0
H773 H 0.93353 0.07966 0.83102 0.0
C774 C 0.90103 0.06158 0.67323 0.0
C775 C 0.91335 0.0803 0.66579 0.0
C776 C 0.88699 0.03694 0.67016 0.0
C777 C 0.88688 0.99501 0.65129 0.0
H778 H 0.82604 0.94895 0.66548 0.0
C779 C 0.86184 0.89427 0.65652 0.0
C780 C 0.85932 0.88855 0.66719 0.0
C781 C 0.85942 0.91417 0.65291 0.0
C782 C 0.84283 0.96152 0.66132 0.0
H783 H 0.92043 0.0882 0.64928 0.0
H784 H 0.89636 0.04451 0.64388 0.0
H785 H 0.8397 0.99313 0.66546 0.0
H786 H 0.85087 0.89754 0.68236 0.0
H787 H 0.84635 0.93193 0.67616 0.0
H788 H 0.89126 0.96383 0.64795 0.0
C789 C 0.89726 0.04915 0.65207 0.0
C790 C 0.8506 0.98676 0.6613 0.0
C791 C 0.91097 0.07403 0.65515 0.0
C792 C 0.85256 0.90156 0.67408 0.0
C793 C 0.84988 0.92118 0.67048 0.0
C794 C 0.87919 0.96976 0.65137 0.0
C795 C 0.88528 0.03039 0.65958 0.0
C796 C 0.87339 0.00384 0.65679 0.0
C797 C 0.85432 0.92841 0.65994 0.0
C798 C 0.85784 0.95297 0.65692 0.0
H799 H 0.90253 0.06595 0.68147 0.0
H800 H 0.87837 0.02285 0.67613 0.0
H801 H 0.90456 0.00781 0.64779 0.0
H802 H 0.86739 0.88455 0.65113 0.0
H803 H 0.86287 0.91927 0.64475 0.0
C804 C 0.10799 0.97693 0.65482 0.0
C805 C 0.11151 0.97446 0.66547 0.0
C806 C 0.08805 0.95767 0.64951 0.0
C807 C 0.03219 0.92956 0.64712 0.0
H808 H -0.00023 0.85963 0.65394 0.0
C809 C 0.93697 0.87457 0.66453 0.0
C810 C 0.91973 0.85143 0.66042 0.0
C811 C 0.96082 0.88759 0.66046 0.0
C812 C 0.00869 0.87895 0.65167 0.0
H813 H 0.09883 0.94973 0.67872 0.0
H814 H 0.06436 0.91595 0.66948 0.0
H815 H 0.04496 0.88486 0.655 0.0
H816 H 0.91349 0.82377 0.64874 0.0
H817 H 0.95614 0.84631 0.64187 0.0
H818 H 0.99578 0.92414 0.64483 0.0
C819 C 0.07687 0.93245 0.66514 0.0
C820 C 0.03449 0.89339 0.65233 0.0
C821 C 0.09654 0.95179 0.67047 0.0
C822 C 0.92652 0.84171 0.65197 0.0
C823 C 0.95077 0.8545 0.64807 0.0
C824 C 0.00645 0.91519 0.64658 0.0
C825 C 0.07154 0.93574 0.65479 0.0
C826 C 0.04633 0.91911 0.65063 0.0
C827 C 0.96809 0.87746 0.65236 0.0
C828 C 0.99447 0.89011 0.6494 0.0
H829 H 0.1192 0.99448 0.6509 0.0
H830 H 0.08439 0.96067 0.64153 0.0
H831 H 0.04068 0.94933 0.64584 0.0
H832 H 0.93218 0.88246 0.67103 0.0
H833 H 0.97399 0.90512 0.66399 0.0
C834 C 0.00395 0.11028 0.65053 0.0
C835 C 0.00907 0.12763 0.65847 0.0
C836 C 0.02306 0.10782 0.6461 0.0
C837 C 0.05688 0.08755 0.64913 0.0
H838 H 0.12743 0.13421 0.65035 0.0
C839 C 0.12412 0.0668 0.66987 0.0
C840 C 0.1451 0.06977 0.66455 0.0
C841 C 0.1092 0.07512 0.66547 0.0
C842 C 0.1078 0.12101 0.64975 0.0
H843 H 0.03799 0.15765 0.66735 0.0
H844 H 0.07132 0.15273 0.66003 0.0
H845 H 0.09839 0.14948 0.64766 0.0
H846 H 0.16723 0.08416 0.65052 0.0
H847 H 0.14115 0.09954 0.6429 0.0
H848 H 0.06616 0.05932 0.65185 0.0
C849 C 0.05283 0.14143 0.65691 0.0
C850 C 0.09117 0.12971 0.64829 0.0
C851 C 0.03373 0.14429 0.66115 0.0
C852 C 0.15105 0.08154 0.65475 0.0
C853 C 0.13627 0.09037 0.65041 0.0
C854 C 0.07341 0.07897 0.65062 0.0
C855 C 0.04745 0.12202 0.64987 0.0
C856 C 0.06543 0.11313 0.64845 0.0
C857 C 0.1151 0.08695 0.65572 0.0
C858 C 0.09886 0.09567 0.65141 0.0
H859 H 0.98498 0.0973 0.64835 0.0
H860 H 0.01837 0.0932 0.64046 0.0
H861 H 0.03728 0.07414 0.64944 0.0
H862 H 0.11906 0.05787 0.67742 0.0
H863 H 0.0931 0.07254 0.66976 0.0
C864 C 0.61589 0.40033 0.51492 0.0
C865 C 0.59509 0.39743 0.50944 0.0
C866 C 0.63965 0.41826 0.51189 0.0
C867 C 0.67849 0.45523 0.4906 0.0
H868 H 0.72088 0.49319 0.51359 0.0
C869 C 0.77785 0.47987 0.49459 0.0
C870 C 0.79155 0.49541 0.50286 0.0
C871 C 0.75564 0.47841 0.49153 0.0
C872 C 0.70947 0.48353 0.50692 0.0
H873 H 0.58311 0.41052 0.49616 0.0
H874 H 0.62503 0.44174 0.49078 0.0
H875 H 0.6769 0.46787 0.51636 0.0
H876 H 0.79579 0.52491 0.51304 0.0
H877 H 0.75821 0.52401 0.50709 0.0
H878 H 0.71135 0.47021 0.48124 0.0
C879 C 0.62267 0.43017 0.49748 0.0
C880 C 0.68416 0.46864 0.5086 0.0
C881 C 0.59873 0.4123 0.50059 0.0
C882 C 0.78535 0.51267 0.50668 0.0
C883 C 0.76358 0.51182 0.50337 0.0
C884 C 0.70401 0.47027 0.48888 0.0
C885 C 0.64326 0.43364 0.50327 0.0
C886 C 0.66867 0.45336 0.50064 0.0
C887 C 0.74716 0.49282 0.49662 0.0
C888 C 0.72001 0.48358 0.49719 0.0
H889 H 0.61388 0.38919 0.52173 0.0
H890 H 0.6553 0.42024 0.51636 0.0
H891 H 0.66681 0.44378 0.4843 0.0
H892 H 0.78228 0.46631 0.49156 0.0
H893 H 0.7438 0.46371 0.48621 0.0
C894 C 0.48043 0.26793 0.50661 0.0
C895 C 0.49571 0.29258 0.50352 0.0
C896 C 0.48221 0.24893 0.50162 0.0
C897 C 0.52506 0.24025 0.48308 0.0
H898 H 0.52478 0.20022 0.50627 0.0
C899 C 0.60246 0.22518 0.50028 0.0
C900 C 0.59757 0.20062 0.50062 0.0
C901 C 0.58475 0.2305 0.49633 0.0
C902 C 0.52457 0.21088 0.49963 0.0
H903 H 0.5224 0.31659 0.49207 0.0
H904 H 0.5271 0.28438 0.48395 0.0
H905 H 0.49878 0.21853 0.50698 0.0
H906 H 0.57084 0.16252 0.49664 0.0
H907 H 0.53943 0.17189 0.49021 0.0
H908 H 0.55362 0.23463 0.4765 0.0
C909 C 0.51304 0.27888 0.4899 0.0
C910 C 0.50941 0.22136 0.49994 0.0
C911 C 0.5104 0.29764 0.49458 0.0
C912 C 0.57519 0.18166 0.49642 0.0
C913 C 0.55725 0.18694 0.49271 0.0
C914 C 0.54087 0.23035 0.48295 0.0
C915 C 0.50046 0.25454 0.49392 0.0
C916 C 0.51036 0.23738 0.49193 0.0
C917 C 0.56176 0.21132 0.49285 0.0
C918 C 0.54132 0.21642 0.49143 0.0
H919 H 0.46869 0.2636 0.51342 0.0
H920 H 0.47095 0.23026 0.50453 0.0
H921 H 0.52569 0.25149 0.47653 0.0
H922 H 0.61956 0.24013 0.50342 0.0
H923 H 0.58835 0.24939 0.49665 0.0
C924 C 0.70158 0.21634 0.4938 0.0
C925 C 0.70303 0.20505 0.50301 0.0
C926 C 0.72254 0.23735 0.49 0.0
C927 C 0.77762 0.28732 0.50312 0.0
H928 H 0.77496 0.32322 0.47891 0.0
C929 C 0.82162 0.39484 0.4998 0.0
C930 C 0.80259 0.39804 0.50408 0.0
C931 C 0.81656 0.37158 0.49619 0.0
C932 C 0.77636 0.31336 0.4856 0.0
H933 H 0.72786 0.2035 0.51436 0.0
H934 H 0.76503 0.23841 0.50708 0.0
H935 H 0.75629 0.27818 0.47805 0.0
H936 H 0.76318 0.37999 0.50721 0.0
H937 H 0.75435 0.33949 0.50071 0.0
H938 H 0.79732 0.32262 0.51064 0.0
C939 C 0.74752 0.23256 0.50321 0.0
C940 C 0.76541 0.28752 0.4852 0.0
C941 C 0.72633 0.21219 0.5073 0.0
C942 C 0.77821 0.37802 0.50404 0.0
C943 C 0.77312 0.35497 0.50025 0.0
C944 C 0.78903 0.31305 0.5034 0.0
C945 C 0.74544 0.24702 0.49523 0.0
C946 C 0.76431 0.27396 0.49421 0.0
C947 C 0.79234 0.35148 0.49656 0.0
C948 C 0.78726 0.32604 0.49487 0.0
H949 H 0.68372 0.21115 0.49038 0.0
H950 H 0.71979 0.24742 0.48376 0.0
H951 H 0.77735 0.2781 0.5103 0.0
H952 H 0.84062 0.40994 0.49978 0.0
H953 H 0.83163 0.36905 0.49351 0.0
C954 C 0.81862 0.4496 0.66905 0.0
C955 C 0.83179 0.46111 0.65995 0.0
C956 C 0.81821 0.42836 0.6728 0.0
C957 C 0.82326 0.37852 0.65955 0.0
H958 H 0.78401 0.34204 0.68351 0.0
C959 C 0.75988 0.27091 0.66238 0.0
C960 C 0.73741 0.26753 0.65829 0.0
C961 C 0.77804 0.29419 0.66598 0.0
C962 C 0.79545 0.35206 0.67689 0.0
H963 H 0.85856 0.46279 0.64879 0.0
H964 H 0.86016 0.42744 0.656 0.0
H965 H 0.81044 0.38704 0.6846 0.0
H966 H 0.71568 0.28534 0.65545 0.0
H967 H 0.74734 0.32589 0.66192 0.0
H968 H 0.80777 0.34342 0.65186 0.0
C969 C 0.84847 0.43333 0.6598 0.0
C970 C 0.81038 0.37788 0.67742 0.0
C971 C 0.84803 0.45395 0.65577 0.0
C972 C 0.73286 0.28744 0.65847 0.0
C973 C 0.75081 0.31052 0.66225 0.0
C974 C 0.80888 0.3528 0.65913 0.0
C975 C 0.83151 0.41869 0.66762 0.0
C976 C 0.82316 0.39166 0.66851 0.0
C977 C 0.77369 0.31415 0.66579 0.0
C978 C 0.79391 0.33961 0.66758 0.0
H979 H 0.80589 0.4548 0.67239 0.0
H980 H 0.80509 0.41815 0.67892 0.0
H981 H 0.83243 0.38794 0.65243 0.0
H982 H 0.76393 0.25591 0.6623 0.0
H983 H 0.79577 0.29684 0.66853 0.0
C984 C 0.5452 0.37007 0.66872 0.0
C985 C 0.53514 0.3726 0.65932 0.0
C986 C 0.56681 0.39005 0.67271 0.0
C987 C 0.61994 0.44187 0.65977 0.0
H988 H 0.65263 0.43903 0.68505 0.0
C989 C 0.72669 0.4821 0.66653 0.0
C990 C 0.72962 0.46421 0.66097 0.0
C991 C 0.70319 0.47696 0.66983 0.0
C992 C 0.64369 0.44043 0.67804 0.0
H993 H 0.53648 0.39867 0.64786 0.0
H994 H 0.57269 0.43424 0.6554 0.0
H995 H 0.6078 0.42281 0.68514 0.0
H996 H 0.71061 0.42632 0.65533 0.0
H997 H 0.66968 0.41743 0.66115 0.0
H998 H 0.65573 0.45872 0.65266 0.0
C999 C 0.56522 0.41652 0.65929 0.0
C1000 C 0.61801 0.43097 0.67802 0.0
C1001 C 0.54419 0.39627 0.65505 0.0
C1002 C 0.70895 0.44053 0.65951 0.0
C1003 C 0.68559 0.43538 0.66288 0.0
C1004 C 0.64545 0.45156 0.65986 0.0
C1005 C 0.57831 0.41303 0.66748 0.0
C1006 C 0.60556 0.43017 0.66869 0.0
C1007 C 0.68247 0.45379 0.66775 0.0
C1008 C 0.65726 0.44978 0.66881 0.0
H1009 H 0.53851 0.35193 0.67216 0.0
H1010 H 0.57587 0.38638 0.67909 0.0
H1011 H 0.61149 0.44158 0.65236 0.0
H1012 H 0.74225 0.50057 0.66775 0.0
H1013 H 0.701 0.49145 0.67346 0.0
C1014 C 0.60601 0.15578 0.6587 0.0
C1015 C 0.6305 0.17227 0.66164 0.0
C1016 C 0.58654 0.15749 0.66325 0.0
C1017 C 0.57526 0.20109 0.68011 0.0
H1018 H 0.53699 0.19819 0.65576 0.0
C1019 C 0.55632 0.27381 0.65982 0.0
C1020 C 0.53179 0.26886 0.66062 0.0
C1021 C 0.56294 0.25714 0.66388 0.0
C1022 C 0.54714 0.19869 0.66272 0.0
H1023 H 0.65388 0.20124 0.67245 0.0
H1024 H 0.62068 0.20559 0.67985 0.0
H1025 H 0.55661 0.17327 0.65626 0.0
H1026 H 0.49521 0.24311 0.66668 0.0
H1027 H 0.50683 0.21353 0.67344 0.0
H1028 H 0.56765 0.22905 0.68584 0.0
C1029 C 0.61576 0.19069 0.67435 0.0
C1030 C 0.55833 0.18417 0.6631 0.0
C1031 C 0.63504 0.18823 0.67009 0.0
C1032 C 0.5143 0.2475 0.666 0.0
C1033 C 0.52087 0.23061 0.6699 0.0
C1034 C 0.56447 0.2161 0.67959 0.0
C1035 C 0.5915 0.17673 0.67035 0.0
C1036 C 0.57368 0.18606 0.67157 0.0
C1037 C 0.54512 0.23518 0.66869 0.0
C1038 C 0.55117 0.21559 0.67069 0.0
H1039 H 0.60212 0.14318 0.65222 0.0
H1040 H 0.56797 0.14538 0.66039 0.0
H1041 H 0.58616 0.20255 0.68693 0.0
H1042 H 0.57019 0.29014 0.65577 0.0
H1043 H 0.58169 0.26074 0.66277 0.0
C1044 C 0.72283 0.24043 0.15908 0.0
C1045 C 0.74225 0.25596 0.16579 0.0
C1046 C 0.69832 0.22958 0.1624 0.0
C1047 C 0.66008 0.24407 0.17773 0.0
H1048 H 0.60908 0.17658 0.17166 0.0
C1049 C 0.56018 0.22213 0.17393 0.0
C1050 C 0.54765 0.20745 0.16529 0.0
C1051 C 0.58134 0.22247 0.17778 0.0
C1052 C 0.62302 0.19552 0.17338 0.0
H1053 H 0.75153 0.27187 0.18129 0.0
H1054 H 0.70818 0.25357 0.18699 0.0
H1055 H 0.6526 0.18776 0.17119 0.0
H1056 H 0.54633 0.18093 0.15408 0.0
H1057 H 0.5839 0.18245 0.1603 0.0
H1058 H 0.63123 0.25274 0.17891 0.0
C1059 C 0.71213 0.24947 0.17925 0.0
C1060 C 0.64792 0.2018 0.17321 0.0
C1061 C 0.73681 0.25991 0.176 0.0
C1062 C 0.55565 0.19213 0.16086 0.0
C1063 C 0.57717 0.19296 0.1645 0.0
C1064 C 0.63527 0.23795 0.17768 0.0
C1065 C 0.6927 0.23444 0.17241 0.0
C1066 C 0.66666 0.22633 0.17503 0.0
C1067 C 0.59087 0.20886 0.17278 0.0
C1068 C 0.61642 0.2138 0.1751 0.0
H1069 H 0.72656 0.23699 0.15119 0.0
H1070 H 0.68368 0.21838 0.15693 0.0
H1071 H 0.67422 0.26318 0.17904 0.0
H1072 H 0.55418 0.23407 0.17744 0.0
H1073 H 0.59087 0.23437 0.18436 0.0
C1074 C 0.79982 0.37575 0.15653 0.0
C1075 C 0.79925 0.35637 0.16228 0.0
C1076 C 0.80165 0.39636 0.16162 0.0
C1077 C 0.81043 0.44098 0.1745 0.0
H1078 H 0.74802 0.41526 0.18922 0.0
C1079 C 0.75629 0.49414 0.17877 0.0
C1080 C 0.73757 0.48248 0.17123 0.0
C1081 C 0.76895 0.48233 0.18249 0.0
C1082 C 0.766 0.42297 0.18551 0.0
H1083 H 0.80121 0.34346 0.17774 0.0
H1084 H 0.80317 0.37926 0.18677 0.0
H1085 H 0.76573 0.38857 0.18633 0.0
H1086 H 0.71649 0.44906 0.1621 0.0
H1087 H 0.73747 0.42816 0.16894 0.0
H1088 H 0.80937 0.47465 0.17283 0.0
C1089 C 0.80295 0.37877 0.17832 0.0
C1090 C 0.77615 0.40773 0.18385 0.0
C1091 C 0.80181 0.35839 0.17318 0.0
C1092 C 0.73068 0.45843 0.16795 0.0
C1093 C 0.74263 0.44641 0.1719 0.0
C1094 C 0.80047 0.45636 0.17631 0.0
C1095 C 0.80228 0.39763 0.17257 0.0
C1096 C 0.79752 0.41609 0.1777 0.0
C1097 C 0.76225 0.45845 0.17897 0.0
C1098 C 0.77735 0.44687 0.18121 0.0
H1099 H 0.79784 0.3745 0.14811 0.0
H1100 H 0.80067 0.41042 0.157 0.0
H1101 H 0.82695 0.44782 0.16975 0.0
H1102 H 0.76204 0.51282 0.18133 0.0
H1103 H 0.78431 0.49203 0.18784 0.0
C1104 C 0.50829 0.26071 0.17282 0.0
C1105 C 0.49362 0.25216 0.16383 0.0
C1106 C 0.52022 0.28588 0.1754 0.0
C1107 C 0.5413 0.34624 0.16221 0.0
H1108 H 0.5678 0.37164 0.1897 0.0
C1109 C 0.6196 0.44468 0.16597 0.0
C1110 C 0.64055 0.44348 0.16908 0.0
C1111 C 0.5959 0.42506 0.16826 0.0
C1112 C 0.56012 0.36486 0.18202 0.0
H1113 H 0.47808 0.26224 0.15093 0.0
H1114 H 0.49722 0.30571 0.15579 0.0
H1115 H 0.5353 0.32839 0.18771 0.0
H1116 H 0.65359 0.42283 0.17805 0.0
H1117 H 0.61234 0.38897 0.18228 0.0
H1118 H 0.56641 0.38249 0.15652 0.0
C1119 C 0.50081 0.29357 0.1606 0.0
C1120 C 0.54175 0.34 0.18084 0.0
C1121 C 0.48963 0.26863 0.15784 0.0
C1122 C 0.63762 0.42406 0.17557 0.0
C1123 C 0.614 0.40475 0.17803 0.0
C1124 C 0.55919 0.37109 0.16344 0.0
C1125 C 0.51712 0.30281 0.16917 0.0
C1126 C 0.53287 0.33008 0.17084 0.0
C1127 C 0.59298 0.40434 0.17385 0.0
C1128 C 0.56952 0.3804 0.17327 0.0
H1129 H 0.5117 0.24822 0.17749 0.0
H1130 H 0.53285 0.29214 0.18195 0.0
H1131 H 0.53547 0.3395 0.15435 0.0
H1132 H 0.62148 0.45944 0.1609 0.0
H1133 H 0.57993 0.42515 0.16497 0.0
C1134 C 0.56676 0.38468 0.00811 0.0
C1135 C 0.57456 0.40434 0.00103 0.0
C1136 C 0.5544 0.36027 0.00461 0.0
C1137 C 0.55131 0.32374 0.98214 0.0
H1138 H 0.50548 0.27109 0.00039 0.0
C1139 C 0.56177 0.24223 0.99263 0.0
C1140 C 0.54189 0.22024 0.99655 0.0
C1141 C 0.55797 0.26098 0.98882 0.0
C1142 C 0.51768 0.28529 0.99497 0.0
H1143 H 0.57489 0.41397 0.98475 0.0
H1144 H 0.55338 0.37092 0.97856 0.0
H1145 H 0.51186 0.31259 0.00248 0.0
H1146 H 0.50205 0.19951 0.99858 0.0
H1147 H 0.49532 0.23253 0.99192 0.0
H1148 H 0.55789 0.29662 0.97491 0.0
C1149 C 0.55682 0.37453 0.98684 0.0
C1150 C 0.52157 0.3092 0.99626 0.0
C1151 C 0.5691 0.39911 0.99037 0.0
C1152 C 0.51775 0.21639 0.99568 0.0
C1153 C 0.51392 0.23532 0.9919 0.0
C1154 C 0.54726 0.29974 0.98078 0.0
C1155 C 0.54958 0.35487 0.99393 0.0
C1156 C 0.53967 0.32896 0.99035 0.0
C1157 C 0.53417 0.25825 0.98886 0.0
C1158 C 0.53171 0.28065 0.98767 0.0
H1159 H 0.57064 0.38812 0.01637 0.0
H1160 H 0.54962 0.34566 0.01028 0.0
H1161 H 0.56523 0.33851 0.97739 0.0
H1162 H 0.58055 0.24555 0.99305 0.0
H1163 H 0.57408 0.27837 0.98664 0.0
C1164 C 0.77628 0.29864 0.99896 0.0
C1165 C 0.78248 0.32237 0.99554 0.0
C1166 C 0.75544 0.27785 0.99491 0.0
C1167 C 0.70947 0.2347 0.9861 0.0
H1168 H 0.6564 0.2496 0.98298 0.0
C1169 C 0.59551 0.18206 0.9864 0.0
C1170 C 0.59168 0.17404 0.99683 0.0
C1171 C 0.61964 0.19653 0.98255 0.0
C1172 C 0.67106 0.2451 0.98357 0.0
H1173 H 0.77382 0.34329 0.98457 0.0
H1174 H 0.73858 0.30697 0.97686 0.0
H1175 H 0.69897 0.28299 0.98253 0.0
H1176 H 0.60964 0.17343 0.01121 0.0
H1177 H 0.65163 0.19797 0.0044 0.0
H1178 H 0.68084 0.19691 0.98831 0.0
C1179 C 0.74884 0.3042 0.98302 0.0
C1180 C 0.69563 0.26427 0.98327 0.0
C1181 C 0.76922 0.32502 0.9873 0.0
C1182 C 0.61215 0.17945 0.00315 0.0
C1183 C 0.63613 0.19328 0.99924 0.0
C1184 C 0.68481 0.2156 0.98666 0.0
C1185 C 0.74069 0.28045 0.98722 0.0
C1186 C 0.71523 0.25952 0.98498 0.0
C1187 C 0.64009 0.20243 0.989 0.0
C1188 C 0.66547 0.22084 0.98577 0.0
H1189 H 0.78615 0.2963 0.00542 0.0
H1190 H 0.74989 0.26011 0.99849 0.0
H1191 H 0.72394 0.2301 0.98711 0.0
H1192 H 0.57996 0.17822 0.98142 0.0
H1193 H 0.62236 0.20367 0.97466 0.0
C1194 C 0.81876 0.4306 0.00595 0.0
C1195 C 0.82495 0.41677 0.99923 0.0
C1196 C 0.80433 0.44043 0.00239 0.0
C1197 C 0.75268 0.42395 0.98648 0.0
H1198 H 0.76607 0.49115 0.99067 0.0
C1199 C 0.67126 0.44041 0.98857 0.0
C1200 C 0.67262 0.45597 0.99674 0.0
C1201 C 0.69275 0.44132 0.98483 0.0
C1202 C 0.7619 0.47225 0.9895 0.0
H1203 H 0.82143 0.40261 0.98351 0.0
H1204 H 0.795 0.41894 0.97738 0.0
H1205 H 0.79965 0.48189 0.99227 0.0
H1206 H 0.69718 0.48559 0.00704 0.0
H1207 H 0.73444 0.48628 0.00109 0.0
H1208 H 0.71477 0.41341 0.98482 0.0
C1209 C 0.80197 0.4227 0.9853 0.0
C1210 C 0.78124 0.46708 0.9903 0.0
C1211 C 0.81701 0.4134 0.9888 0.0
C1212 C 0.69582 0.47365 0.00062 0.0
C1213 C 0.71724 0.47403 0.99714 0.0
C1214 C 0.73324 0.42894 0.98595 0.0
C1215 C 0.79535 0.43608 0.99211 0.0
C1216 C 0.77658 0.44275 0.9891 0.0
C1217 C 0.71588 0.45702 0.98954 0.0
C1218 C 0.73736 0.45302 0.98783 0.0
H1219 H 0.82471 0.43343 0.01403 0.0
H1220 H 0.79912 0.45037 0.00782 0.0
H1221 H 0.74863 0.40499 0.98564 0.0
H1222 H 0.65344 0.42663 0.98548 0.0
H1223 H 0.69094 0.4286 0.97869 0.0
C1224 C 0.26234 0.74026 0.83355 0.0
C1225 C 0.25883 0.72552 0.84244 0.0
C1226 C 0.28623 0.75799 0.83035 0.0
C1227 C 0.34715 0.79699 0.84159 0.0
H1228 H 0.37558 0.79997 0.81436 0.0
C1229 C 0.4485 0.84436 0.84022 0.0
C1230 C 0.45566 0.82774 0.83648 0.0
C1231 C 0.42647 0.84267 0.83674 0.0
C1232 C 0.36787 0.79963 0.82197 0.0
H1233 H 0.27783 0.71706 0.85456 0.0
H1234 H 0.31919 0.74788 0.849 0.0
H1235 H 0.3311 0.77231 0.8172 0.0
H1236 H 0.44787 0.79908 0.82514 0.0
H1237 H 0.40891 0.795 0.81953 0.0
H1238 H 0.38344 0.82243 0.84676 0.0
C1239 C 0.30345 0.74592 0.8446 0.0
C1240 C 0.34241 0.78388 0.82356 0.0
C1241 C 0.27973 0.72815 0.84775 0.0
C1242 C 0.44267 0.81212 0.82812 0.0
C1243 C 0.42018 0.8098 0.8249 0.0
C1244 C 0.3724 0.81261 0.84003 0.0
C1245 C 0.30691 0.76141 0.83605 0.0
C1246 C 0.33219 0.78155 0.83354 0.0
C1247 C 0.41075 0.82347 0.82992 0.0
C1248 C 0.38341 0.81322 0.83035 0.0
H1249 H 0.24664 0.7387 0.82926 0.0
H1250 H 0.2885 0.76966 0.82369 0.0
H1251 H 0.33956 0.79586 0.84931 0.0
H1252 H 0.45841 0.8567 0.84663 0.0
H1253 H 0.42034 0.85434 0.84041 0.0
C1254 C 0.16844 0.62277 0.83128 0.0
C1255 C 0.15573 0.62059 0.84061 0.0
C1256 C 0.17036 0.60271 0.82758 0.0
C1257 C 0.17413 0.55414 0.84173 0.0
H1258 H 0.20755 0.55286 0.81642 0.0
C1259 C 0.24425 0.51672 0.83238 0.0
C1260 C 0.26275 0.53179 0.83962 0.0
C1261 C 0.22556 0.52195 0.82965 0.0
C1262 C 0.19786 0.55265 0.82347 0.0
H1263 H 0.13094 0.59493 0.85217 0.0
H1264 H 0.13241 0.5593 0.84521 0.0
H1265 H 0.17807 0.5681 0.8158 0.0
H1266 H 0.2772 0.56523 0.84898 0.0
H1267 H 0.2446 0.57406 0.84429 0.0
H1268 H 0.19475 0.53988 0.84945 0.0
C1269 C 0.14234 0.57679 0.84112 0.0
C1270 C 0.1811 0.56147 0.82316 0.0
C1271 C 0.14117 0.59709 0.84504 0.0
C1272 C 0.26313 0.55305 0.84349 0.0
C1273 C 0.24449 0.55815 0.84081 0.0
C1274 C 0.19071 0.54538 0.84201 0.0
C1275 C 0.15912 0.58009 0.83307 0.0
C1276 C 0.17005 0.56359 0.83242 0.0
C1277 C 0.22515 0.54221 0.83417 0.0
C1278 C 0.20361 0.54576 0.83302 0.0
H1279 H 0.17979 0.64075 0.82769 0.0
H1280 H 0.18321 0.60609 0.82127 0.0
H1281 H 0.16641 0.55556 0.84909 0.0
H1282 H 0.24342 0.5002 0.82923 0.0
H1283 H 0.21077 0.50946 0.8245 0.0
C1284 C 0.36608 0.54668 0.8287 0.0
C1285 C 0.36843 0.53522 0.8377 0.0
C1286 C 0.38645 0.56829 0.82493 0.0
C1287 C 0.44032 0.61886 0.83812 0.0
H1288 H 0.43799 0.65478 0.81385 0.0
C1289 C 0.48351 0.72689 0.83333 0.0
C1290 C 0.4655 0.73007 0.83865 0.0
C1291 C 0.47808 0.70338 0.82989 0.0
C1292 C 0.43928 0.64492 0.82057 0.0
H1293 H 0.39434 0.53419 0.84861 0.0
H1294 H 0.43046 0.5704 0.84139 0.0
H1295 H 0.41988 0.60974 0.81292 0.0
H1296 H 0.42728 0.71148 0.84386 0.0
H1297 H 0.41788 0.67054 0.83777 0.0
H1298 H 0.45898 0.65404 0.8458 0.0
C1299 C 0.41268 0.56401 0.83767 0.0
C1300 C 0.42871 0.61912 0.82011 0.0
C1301 C 0.3921 0.54296 0.84172 0.0
C1302 C 0.44159 0.70961 0.83988 0.0
C1303 C 0.43615 0.68627 0.83635 0.0
C1304 C 0.45115 0.64453 0.8385 0.0
C1305 C 0.40962 0.5784 0.82996 0.0
C1306 C 0.42771 0.60555 0.8291 0.0
C1307 C 0.45449 0.68292 0.83157 0.0
C1308 C 0.44959 0.65752 0.82992 0.0
H1309 H 0.34795 0.54105 0.82548 0.0
H1310 H 0.38307 0.57841 0.81891 0.0
H1311 H 0.43995 0.60954 0.8453 0.0
H1312 H 0.50215 0.7423 0.83229 0.0
H1313 H 0.49252 0.701 0.82634 0.0
C1314 C 0.41326 0.60191 0.99717 0.0
C1315 C 0.3979 0.59895 0.98857 0.0
C1316 C 0.43145 0.62561 0.00041 0.0
C1317 C 0.47039 0.68649 0.98932 0.0
H1318 H 0.47486 0.71526 0.0166 0.0
C1319 C 0.51655 0.78757 0.99024 0.0
C1320 C 0.49998 0.79447 0.99426 0.0
C1321 C 0.5157 0.76593 0.99374 0.0
C1322 C 0.47412 0.70747 0.00897 0.0
H1323 H 0.38877 0.6187 0.97705 0.0
H1324 H 0.4204 0.65968 0.98266 0.0
H1325 H 0.44687 0.67078 0.0139 0.0
H1326 H 0.47243 0.78675 0.00614 0.0
H1327 H 0.46968 0.74843 0.01178 0.0
H1328 H 0.49562 0.72266 0.98399 0.0
C1329 C 0.41857 0.64368 0.9868 0.0
C1330 C 0.45819 0.68199 0.00746 0.0
C1331 C 0.40036 0.62018 0.98362 0.0
C1332 C 0.48541 0.78175 0.00292 0.0
C1333 C 0.48385 0.7596 0.00615 0.0
C1334 C 0.48616 0.71175 0.9908 0.0
C1335 C 0.43467 0.6466 0.99503 0.0
C1336 C 0.45528 0.67168 0.99747 0.0
C1337 C 0.49727 0.75025 0.00087 0.0
C1338 C 0.48725 0.72292 0.00049 0.0
H1339 H 0.41183 0.58595 0.00119 0.0
H1340 H 0.44361 0.62748 0.00682 0.0
H1341 H 0.46878 0.6788 0.98159 0.0
H1342 H 0.52812 0.79728 0.9836 0.0
H1343 H 0.52726 0.75995 0.98987 0.0
C1344 C 0.21658 0.69787 0.00147 0.0
C1345 C 0.20584 0.70404 0.99326 0.0
C1346 C 0.23818 0.71615 0.00622 0.0
C1347 C 0.29053 0.77651 0.99751 0.0
H1348 H 0.3231 0.76081 0.01953 0.0
C1349 C 0.39605 0.81891 0.99893 0.0
C1350 C 0.40058 0.80015 0.99541 0.0
C1351 C 0.3728 0.81291 0.00285 0.0
C1352 C 0.31417 0.76575 0.0135 0.0
H1353 H 0.20643 0.73417 0.98468 0.0
H1354 H 0.24249 0.76653 0.99374 0.0
H1355 H 0.27812 0.74216 0.01976 0.0
H1356 H 0.38517 0.76047 0.99402 0.0
H1357 H 0.34467 0.74999 0.00116 0.0
H1358 H 0.32678 0.80015 0.99135 0.0
C1359 C 0.23567 0.74749 0.99602 0.0
C1360 C 0.28835 0.75484 0.0135 0.0
C1361 C 0.21467 0.72904 0.99094 0.0
C1362 C 0.3821 0.77526 0.99661 0.0
C1363 C 0.35908 0.76927 0.00079 0.0
C1364 C 0.31628 0.788 0.99773 0.0
C1365 C 0.24909 0.74111 0.00301 0.0
C1366 C 0.276 0.75867 0.00509 0.0
C1367 C 0.35403 0.78807 0.00361 0.0
C1368 C 0.32814 0.78163 0.00537 0.0
H1369 H 0.2101 0.67863 0.00336 0.0
H1370 H 0.24745 0.71003 0.01156 0.0
H1371 H 0.2823 0.78017 0.99082 0.0
H1372 H 0.40996 0.83827 0.99805 0.0
H1373 H 0.3691 0.82765 0.00486 0.0
C1374 C 0.18189 0.58197 0.99224 0.0
C1375 C 0.19283 0.59729 0.98348 0.0
C1376 C 0.18759 0.56357 0.99484 0.0
C1377 C 0.21134 0.52595 0.98292 0.0
H1378 H 0.23304 0.52083 0.01069 0.0
C1379 C 0.26743 0.48058 0.98554 0.0
C1380 C 0.29034 0.49702 0.99009 0.0
C1381 C 0.24627 0.48152 0.98834 0.0
C1382 C 0.22678 0.52179 0.00291 0.0
H1383 H 0.21878 0.60556 0.97074 0.0
H1384 H 0.22872 0.57369 0.9753 0.0
H1385 H 0.21552 0.54773 0.00765 0.0
H1386 H 0.30861 0.52446 0.00217 0.0
H1387 H 0.27236 0.52723 0.00667 0.0
H1388 H 0.22414 0.50195 0.97785 0.0
C1389 C 0.21545 0.57566 0.98006 0.0
C1390 C 0.21662 0.53711 0.0012 0.0
C1391 C 0.20991 0.59409 0.9775 0.0
C1392 C 0.29108 0.51157 0.99857 0.0
C1393 C 0.27013 0.51315 0.00113 0.0
C1394 C 0.22152 0.51083 0.9846 0.0
C1395 C 0.20413 0.56 0.98867 0.0
C1396 C 0.21 0.54024 0.99107 0.0
C1397 C 0.24809 0.49978 0.99535 0.0
C1398 C 0.23057 0.50947 0.99451 0.0
H1399 H 0.16867 0.58394 0.99703 0.0
H1400 H 0.17867 0.55181 0.00152 0.0
H1401 H 0.20579 0.52755 0.97508 0.0
H1402 H 0.26644 0.46902 0.97903 0.0
H1403 H 0.22928 0.47006 0.98409 0.0
C1404 C 0.22456 0.53887 0.51141 0.0
C1405 C 0.21639 0.52758 0.50165 0.0
C1406 C 0.24569 0.54045 0.51596 0.0
C1407 C 0.30118 0.56584 0.51523 0.0
H1408 H 0.32987 0.52438 0.50949 0.0
C1409 C 0.39402 0.60014 0.49592 0.0
C1410 C 0.4114 0.59479 0.50034 0.0
C1411 C 0.37032 0.58995 0.5001 0.0
C1412 C 0.32206 0.53599 0.5114 0.0
H1413 H 0.22216 0.50737 0.48932 0.0
H1414 H 0.25913 0.51024 0.49713 0.0
H1415 H 0.28474 0.50569 0.51044 0.0
H1416 H 0.41782 0.57473 0.51261 0.0
H1417 H 0.3755 0.55588 0.51974 0.0
H1418 H 0.33836 0.59634 0.51536 0.0
C1419 C 0.24918 0.51743 0.50147 0.0
C1420 C 0.29628 0.52537 0.51187 0.0
C1421 C 0.228 0.51577 0.49696 0.0
C1422 C 0.40472 0.5792 0.50911 0.0
C1423 C 0.38063 0.56842 0.51316 0.0
C1424 C 0.32682 0.57641 0.51467 0.0
C1425 C 0.25914 0.53116 0.51069 0.0
C1426 C 0.28556 0.54039 0.51329 0.0
C1427 C 0.36332 0.5738 0.50866 0.0
C1428 C 0.33739 0.56176 0.51226 0.0
H1429 H 0.21596 0.54837 0.51506 0.0
H1430 H 0.25271 0.55084 0.52314 0.0
H1431 H 0.29369 0.57808 0.51622 0.0
H1432 H 0.39865 0.61213 0.48919 0.0
H1433 H 0.35716 0.59411 0.49643 0.0
C1434 C 0.47945 0.71361 0.49343 0.0
C1435 C 0.47194 0.69122 0.49864 0.0
C1436 C 0.47902 0.73314 0.49855 0.0
C1437 C 0.47551 0.77265 0.51094 0.0
H1438 H 0.40626 0.74193 0.51876 0.0
C1439 C 0.41903 0.82416 0.51146 0.0
C1440 C 0.40166 0.81394 0.50332 0.0
C1441 C 0.43089 0.81162 0.5152 0.0
C1442 C 0.42582 0.75087 0.51691 0.0
H1443 H 0.45986 0.67191 0.51338 0.0
H1444 H 0.45875 0.70606 0.52238 0.0
H1445 H 0.42615 0.71688 0.51789 0.0
H1446 H 0.38206 0.78228 0.4931 0.0
H1447 H 0.40198 0.76009 0.49985 0.0
H1448 H 0.47432 0.80626 0.50913 0.0
C1449 C 0.46531 0.70869 0.5144 0.0
C1450 C 0.4373 0.7366 0.51645 0.0
C1451 C 0.46606 0.68925 0.50929 0.0
C1452 C 0.39541 0.79059 0.49935 0.0
C1453 C 0.40669 0.77782 0.50326 0.0
C1454 C 0.46405 0.78702 0.51152 0.0
C1455 C 0.47052 0.73032 0.5089 0.0
C1456 C 0.46182 0.74701 0.51285 0.0
C1457 C 0.42484 0.7884 0.51106 0.0
C1458 C 0.43875 0.77585 0.51392 0.0
H1459 H 0.48371 0.71528 0.48517 0.0
H1460 H 0.48287 0.74939 0.49405 0.0
H1461 H 0.49446 0.78116 0.50821 0.0
H1462 H 0.4242 0.84226 0.51459 0.0
H1463 H 0.44501 0.82015 0.52116 0.0
C1464 C 0.28223 0.76572 0.49668 0.0
C1465 C 0.30496 0.77803 0.50192 0.0
C1466 C 0.26214 0.74509 0.50121 0.0
C1467 C 0.22158 0.69948 0.51192 0.0
H1468 H 0.24975 0.65741 0.51732 0.0
C1469 C 0.16815 0.59064 0.50972 0.0
C1470 C 0.17759 0.58452 0.50095 0.0
C1471 C 0.18081 0.6147 0.51385 0.0
C1472 C 0.24151 0.66896 0.51613 0.0
H1473 H 0.32434 0.7802 0.51622 0.0
H1474 H 0.2891 0.74414 0.52424 0.0
H1475 H 0.27618 0.70216 0.51802 0.0
H1476 H 0.20787 0.59834 0.48986 0.0
H1477 H 0.23021 0.63976 0.49726 0.0
H1478 H 0.18726 0.66584 0.50918 0.0
C1479 C 0.28669 0.75036 0.51667 0.0
C1480 C 0.25659 0.69463 0.51658 0.0
C1481 C 0.30677 0.77107 0.51214 0.0
C1482 C 0.20012 0.60249 0.49659 0.0
C1483 C 0.21298 0.62615 0.50085 0.0
C1484 C 0.20641 0.6737 0.51157 0.0
C1485 C 0.26467 0.73629 0.51098 0.0
C1486 C 0.24711 0.71018 0.51389 0.0
C1487 C 0.20335 0.63254 0.50943 0.0
C1488 C 0.21665 0.65838 0.51313 0.0
H1489 H 0.28069 0.77064 0.48872 0.0
H1490 H 0.24559 0.73459 0.49656 0.0
H1491 H 0.21374 0.71101 0.50989 0.0
H1492 H 0.15072 0.57709 0.51318 0.0
H1493 H 0.17305 0.61939 0.52043 0.0
C1494 C 0.23789 0.72227 0.3423 0.0
C1495 C 0.25032 0.74226 0.33541 0.0
C1496 C 0.22942 0.6981 0.33888 0.0
C1497 C 0.2488 0.66499 0.32352 0.0
H1498 H 0.18282 0.60857 0.32705 0.0
C1499 C 0.23668 0.56818 0.32471 0.0
C1500 C 0.22028 0.55234 0.33232 0.0
C1501 C 0.23571 0.58912 0.32153 0.0
C1502 C 0.20141 0.62404 0.32609 0.0
H1503 H 0.2634 0.75294 0.31956 0.0
H1504 H 0.24955 0.71041 0.31369 0.0
H1505 H 0.1894 0.65052 0.32849 0.0
H1506 H 0.18939 0.54499 0.34229 0.0
H1507 H 0.18866 0.58227 0.33739 0.0
H1508 H 0.26162 0.63929 0.32223 0.0
C1509 C 0.24575 0.71353 0.32162 0.0
C1510 C 0.20504 0.64803 0.32678 0.0
C1511 C 0.25362 0.73772 0.32497 0.0
C1512 C 0.20209 0.55695 0.33634 0.0
C1513 C 0.20164 0.57833 0.33344 0.0
C1514 C 0.24534 0.6411 0.32311 0.0
C1515 C 0.23382 0.69361 0.3286 0.0
C1516 C 0.22887 0.66863 0.32576 0.0
C1517 C 0.21901 0.59521 0.32624 0.0
C1518 C 0.22171 0.62023 0.32472 0.0
H1519 H 0.23518 0.72539 0.35039 0.0
H1520 H 0.22058 0.68302 0.34443 0.0
H1521 H 0.2674 0.68068 0.32284 0.0
H1522 H 0.25072 0.56473 0.32145 0.0
H1523 H 0.24881 0.60104 0.3157 0.0
C1524 C 0.26772 0.51519 0.32044 0.0
C1525 C 0.26072 0.49689 0.32811 0.0
C1526 C 0.29236 0.52847 0.31709 0.0
C1527 C 0.35429 0.54573 0.32751 0.0
H1528 H 0.37592 0.58476 0.30215 0.0
C1529 C 0.44986 0.62947 0.32652 0.0
C1530 C 0.44715 0.65042 0.32552 0.0
C1531 C 0.43118 0.60643 0.32292 0.0
C1532 C 0.37022 0.57366 0.30919 0.0
H1533 H 0.27283 0.47643 0.3377 0.0
H1534 H 0.31535 0.49816 0.33135 0.0
H1535 H 0.33345 0.55017 0.30345 0.0
H1536 H 0.42487 0.66464 0.3188 0.0
H1537 H 0.3926 0.6247 0.31237 0.0
H1538 H 0.39066 0.5696 0.33338 0.0
C1539 C 0.30242 0.50331 0.32823 0.0
C1540 C 0.34582 0.55401 0.31 0.0
C1541 C 0.27802 0.49065 0.33181 0.0
C1542 C 0.42726 0.64866 0.3197 0.0
C1543 C 0.40883 0.62578 0.31597 0.0
C1544 C 0.37867 0.56503 0.32664 0.0
C1545 C 0.31026 0.52325 0.32121 0.0
C1546 C 0.33722 0.54049 0.31936 0.0
C1547 C 0.40981 0.60419 0.31815 0.0
C1548 C 0.38661 0.57989 0.31766 0.0
H1549 H 0.2546 0.52042 0.3176 0.0
H1550 H 0.29758 0.54382 0.3118 0.0
H1551 H 0.34853 0.53623 0.33493 0.0
H1552 H 0.465 0.63037 0.33102 0.0
H1553 H 0.43246 0.59008 0.32462 0.0
C1554 C 0.33738 0.78291 0.31971 0.0
C1555 C 0.34198 0.79856 0.32829 0.0
C1556 C 0.35689 0.78184 0.31488 0.0
C1557 C 0.39132 0.762 0.31676 0.0
H1558 H 0.46152 0.80925 0.31923 0.0
C1559 C 0.45785 0.73907 0.33667 0.0
C1560 C 0.47932 0.74324 0.33141 0.0
C1561 C 0.44306 0.74792 0.33259 0.0
C1562 C 0.44201 0.79593 0.31827 0.0
H1563 H 0.37029 0.82707 0.33795 0.0
H1564 H 0.4043 0.82459 0.32988 0.0
H1565 H 0.4321 0.82421 0.3171 0.0
H1566 H 0.50259 0.76048 0.31788 0.0
H1567 H 0.47675 0.77674 0.31086 0.0
H1568 H 0.40107 0.73385 0.31858 0.0
C1569 C 0.38595 0.81361 0.32658 0.0
C1570 C 0.42516 0.80444 0.31712 0.0
C1571 C 0.36646 0.81506 0.33126 0.0
C1572 C 0.48602 0.75692 0.32206 0.0
C1573 C 0.47136 0.76622 0.31805 0.0
C1574 C 0.40808 0.75359 0.31793 0.0
C1575 C 0.38113 0.79571 0.31884 0.0
C1576 C 0.39949 0.78754 0.31687 0.0
C1577 C 0.44961 0.76146 0.32325 0.0
C1578 C 0.43337 0.77046 0.31921 0.0
H1579 H 0.31853 0.76999 0.31734 0.0
H1580 H 0.35262 0.76838 0.30873 0.0
H1581 H 0.37179 0.74832 0.31672 0.0
H1582 H 0.45224 0.72873 0.3439 0.0
H1583 H 0.42651 0.74433 0.3368 0.0
C1584 C 0.15859 0.17031 0.28379 0.0
C1585 C 0.1741 0.18667 0.29153 0.0
C1586 C 0.1652 0.17485 0.27332 0.0
C1587 C 0.21243 0.20145 0.25417 0.0
H1588 H 0.16197 0.20534 0.23789 0.0
C1589 C 0.21106 0.19788 0.20899 0.0
C1590 C 0.18824 0.17858 0.20537 0.0
C1591 C 0.21331 0.20646 0.21927 0.0
C1592 C 0.17636 0.20456 0.24232 0.0
H1593 H 0.2096 0.21959 0.29445 0.0
H1594 H 0.22148 0.22719 0.27591 0.0
H1595 H 0.15958 0.20442 0.25689 0.0
H1596 H 0.14964 0.15432 0.2093 0.0
H1597 H 0.15339 0.16936 0.22703 0.0
H1598 H 0.22824 0.19978 0.23954 0.0
C1599 C 0.20404 0.21111 0.27807 0.0
C1600 C 0.175 0.20407 0.25317 0.0
C1601 C 0.19728 0.2067 0.28863 0.0
C1602 C 0.16746 0.16916 0.2119 0.0
C1603 C 0.1696 0.17792 0.22205 0.0
C1604 C 0.21371 0.20175 0.24325 0.0
C1605 C 0.18758 0.19566 0.27035 0.0
C1606 C 0.19244 0.2015 0.25915 0.0
C1607 C 0.19265 0.19617 0.22595 0.0
C1608 C 0.19504 0.20221 0.23724 0.0
H1609 H 0.14073 0.15457 0.28577 0.0
H1610 H 0.15243 0.16246 0.26748 0.0
H1611 H 0.22604 0.19943 0.25867 0.0
H1612 H 0.22738 0.20535 0.20409 0.0
H1613 H 0.23127 0.2206 0.22208 0.0
C1614 C 0.80411 0.0136 0.20762 0.0
C1615 C 0.82371 0.01095 0.20371 0.0
C1616 C 0.79629 0.00715 0.21798 0.0
C1617 C 0.80104 0.9729 0.24074 0.0
H1618 H 0.80262 0.02562 0.25743 0.0
C1619 C 0.83068 0.98613 0.28302 0.0
C1620 C 0.81458 0.98698 0.29045 0.0
C1621 C 0.82709 0.98819 0.27243 0.0
C1622 C 0.80168 0.01058 0.25284 0.0
H1623 H 0.8494 0.99808 0.20725 0.0
H1624 H 0.83574 0.98665 0.22512 0.0
H1625 H 0.80249 0.02813 0.23834 0.0
H1626 H 0.78309 0.99235 0.29268 0.0
H1627 H 0.77714 0.99651 0.27397 0.0
H1628 H 0.80169 0.95609 0.25519 0.0
C1629 C 0.82633 0.99368 0.2203 0.0
C1630 C 0.80149 0.01192 0.24193 0.0
C1631 C 0.8343 0.00039 0.21006 0.0
C1632 C 0.79575 0.99158 0.28711 0.0
C1633 C 0.79229 0.99388 0.27644 0.0
C1634 C 0.8014 0.97167 0.25158 0.0
C1635 C 0.80769 0.99755 0.22447 0.0
C1636 C 0.80216 0.99355 0.23579 0.0
C1637 C 0.80747 0.99136 0.26903 0.0
C1638 C 0.80268 0.99094 0.25771 0.0
H1639 H 0.79573 0.02182 0.20287 0.0
H1640 H 0.7818 0.0102 0.22099 0.0
H1641 H 0.80108 0.95824 0.23621 0.0
H1642 H 0.84553 0.98288 0.28533 0.0
H1643 H 0.83938 0.98673 0.26686 0.0
C1644 C 0.00781 0.84696 0.28246 0.0
C1645 C 0.00835 0.83033 0.2897 0.0
C1646 C 0.0049 0.84134 0.27187 0.0
C1647 C 0.98281 0.79315 0.25225 0.0
H1648 H 0.031 0.84682 0.23498 0.0
C1649 C 0.97809 0.79192 0.20684 0.0
C1650 C 0.97843 0.81317 0.20294 0.0
C1651 C 0.98471 0.79116 0.21724 0.0
C1652 C 0.01751 0.8316 0.23969 0.0
H1653 H 0.00464 0.79405 0.29161 0.0
H1654 H -0.00089 0.78401 0.2729 0.0
H1655 H 0.03491 0.84998 0.25391 0.0
H1656 H 0.98694 0.85056 0.20666 0.0
H1657 H -0.00128 0.84939 0.22458 0.0
H1658 H 0.96475 0.77533 0.23795 0.0
C1659 C 0.00124 0.8015 0.27552 0.0
C1660 C 0.01972 0.83342 0.25051 0.0
C1661 C 0.00434 0.80722 0.28619 0.0
C1662 C 0.98646 0.83391 0.20943 0.0
C1663 C 0.99337 0.8333 0.2197 0.0
C1664 C 0.98053 0.79135 0.24136 0.0
C1665 C 0.00233 0.81892 0.26826 0.0
C1666 C 0.00189 0.81467 0.25689 0.0
C1667 C 0.99221 0.81183 0.22378 0.0
C1668 C 0.99736 0.81102 0.23501 0.0
H1669 H 0.01057 0.86479 0.28492 0.0
H1670 H 0.00522 0.85484 0.26644 0.0
H1671 H 0.96889 0.77844 0.25702 0.0
H1672 H 0.97186 0.77563 0.20199 0.0
H1673 H 0.98371 0.77441 0.2202 0.0
C1674 C 0.82525 0.80605 0.7091 0.0
C1675 C 0.85103 0.8182 0.70753 0.0
C1676 C 0.81536 0.79869 0.71915 0.0
C1677 C 0.83219 0.79008 0.74611 0.0
H1678 H 0.7924 0.81868 0.75493 0.0
C1679 C 0.84689 0.8433 0.78365 0.0
C1680 C 0.82658 0.83927 0.78978 0.0
C1681 C 0.84321 0.83073 0.77424 0.0
C1682 C 0.80292 0.80996 0.75257 0.0
H1683 H 0.88646 0.83078 0.71514 0.0
H1684 H 0.86942 0.8182 0.73246 0.0
H1685 H 0.79761 0.81398 0.73634 0.0
H1686 H 0.78653 0.81861 0.79106 0.0
H1687 H 0.78008 0.79728 0.77424 0.0
H1688 H 0.83935 0.78827 0.76234 0.0
C1689 C 0.85672 0.81419 0.72602 0.0
C1690 C 0.80588 0.80722 0.74192 0.0
C1691 C 0.86654 0.82175 0.71608 0.0
C1692 C 0.8025 0.82193 0.78647 0.0
C1693 C 0.79878 0.80978 0.77689 0.0
C1694 C 0.82944 0.79307 0.75672 0.0
C1695 C 0.83108 0.80297 0.72772 0.0
C1696 C 0.82173 0.7986 0.7386 0.0
C1697 C 0.81915 0.81426 0.77068 0.0
C1698 C 0.81586 0.80423 0.75999 0.0
H1699 H 0.81282 0.80297 0.70264 0.0
H1700 H 0.79552 0.79009 0.72024 0.0
H1701 H 0.84405 0.78285 0.74377 0.0
H1702 H 0.86562 0.85648 0.78605 0.0
H1703 H 0.8592 0.83474 0.76951 0.0
C1704 C 0.1768 0.98138 0.78886 0.0
C1705 C 0.16144 0.99064 0.79213 0.0
C1706 C 0.18918 0.98877 0.77928 0.0
C1707 C 0.20819 0.03549 0.75837 0.0
H1708 H 0.18243 0.98018 0.73907 0.0
C1709 C 0.17413 0.04007 0.71842 0.0
C1710 C 0.17714 0.02788 0.70982 0.0
C1711 C 0.18258 0.03829 0.72824 0.0
C1712 C 0.19052 0.99585 0.74435 0.0
H1713 H 0.1483 0.016 0.78842 0.0
H1714 H 0.17036 0.02938 0.77189 0.0
H1715 H 0.1794 0.97241 0.75784 0.0
H1716 H 0.19204 0.00479 0.7047 0.0
H1717 H 0.20626 0.00099 0.72216 0.0
H1718 H 0.21772 0.05883 0.74493 0.0
C1719 C 0.17273 0.01632 0.77663 0.0
C1720 C 0.18877 0.9914 0.7551 0.0
C1721 C 0.15994 0.00853 0.78604 0.0
C1722 C 0.18939 0.01429 0.71121 0.0
C1723 C 0.19755 0.01215 0.72116 0.0
C1724 C 0.21006 0.03994 0.74765 0.0
C1725 C 0.1869 0.00602 0.77301 0.0
C1726 C 0.19622 0.01111 0.76217 0.0
C1727 C 0.19409 0.0241 0.72977 0.0
C1728 C 0.19978 0.02006 0.74057 0.0
H1729 H 0.17813 0.96745 0.79342 0.0
H1730 H 0.19991 0.9805 0.77661 0.0
H1731 H 0.21436 0.05099 0.76369 0.0
H1732 H 0.16505 0.05093 0.7176 0.0
H1733 H 0.17919 0.04732 0.73474 0.0
C1734 C 0.01615 0.16945 0.70804 0.0
C1735 C 0.99126 0.16064 0.70556 0.0
C1736 C 0.0247 0.1775 0.71816 0.0
C1737 C 0.00603 0.18829 0.74464 0.0
H1738 H 0.04422 0.15812 0.75368 0.0
C1739 C 0.03417 0.18543 0.78795 0.0
C1740 C 0.03304 0.16321 0.79103 0.0
C1741 C 0.03023 0.18919 0.77751 0.0
C1742 C 0.03347 0.16658 0.7513 0.0
H1743 H 0.95599 0.15445 0.71127 0.0
H1744 H 0.97054 0.16773 0.72905 0.0
H1745 H 0.03696 0.16005 0.73527 0.0
H1746 H 0.02515 0.1269 0.78576 0.0
H1747 H 0.01772 0.13318 0.76773 0.0
H1748 H 0.00148 0.19342 0.76088 0.0
C1749 C 0.98378 0.16916 0.72323 0.0
C1750 C 0.02968 0.16814 0.74069 0.0
C1751 C 0.97536 0.16143 0.71307 0.0
C1752 C 0.02663 0.1444 0.78361 0.0
C1753 C 0.02251 0.14807 0.77325 0.0
C1754 C 0.00975 0.18661 0.75532 0.0
C1755 C 0.00828 0.17625 0.72601 0.0
C1756 C 0.01545 0.17849 0.73721 0.0
C1757 C 0.02499 0.17074 0.77001 0.0
C1758 C 0.02292 0.17507 0.75875 0.0
H1759 H 0.02862 0.16886 0.7023 0.0
H1760 H 0.04383 0.1834 0.71997 0.0
H1761 H 0.99523 0.19666 0.74222 0.0
H1762 H 0.03907 0.20027 0.7935 0.0
H1763 H 0.03222 0.20684 0.77525 0.0
C1764 C 0.86611 0.52527 0.54173 0.0
C1765 C 0.84596 0.50341 0.53782 0.0
C1766 C 0.86594 0.53256 0.55206 0.0
C1767 C 0.82432 0.52152 0.57452 0.0
H1768 H 0.87989 0.53148 0.59168 0.0
C1769 C 0.81209 0.49776 0.61753 0.0
C1770 C 0.82845 0.51561 0.62463 0.0
C1771 C 0.8171 0.50057 0.60689 0.0
C1772 C 0.86445 0.52916 0.58696 0.0
H1773 H 0.80934 0.47284 0.54137 0.0
H1774 H 0.80888 0.48558 0.55921 0.0
H1775 H 0.88282 0.53049 0.57262 0.0
H1776 H 0.86366 0.54964 0.62623 0.0
H1777 H 0.87264 0.55435 0.60743 0.0
H1778 H 0.80552 0.51904 0.58881 0.0
C1779 C 0.82485 0.49714 0.55439 0.0
C1780 C 0.86614 0.52869 0.57607 0.0
C1781 C 0.82516 0.48973 0.54418 0.0
C1782 C 0.8507 0.53563 0.62092 0.0
C1783 C 0.85582 0.53836 0.61019 0.0
C1784 C 0.82262 0.52189 0.58535 0.0
C1785 C 0.84541 0.51831 0.55853 0.0
C1786 C 0.84573 0.52396 0.56978 0.0
C1787 C 0.83864 0.52121 0.60308 0.0
C1788 C 0.8423 0.52481 0.59167 0.0
H1789 H 0.88241 0.5361 0.53698 0.0
H1790 H 0.88197 0.54902 0.55505 0.0
H1791 H 0.80848 0.51831 0.56987 0.0
H1792 H 0.79492 0.48198 0.62015 0.0
H1793 H 0.80384 0.48676 0.60159 0.0
C1794 C 0.46386 0.3426 0.54241 0.0
C1795 C 0.48346 0.33986 0.53856 0.0
C1796 C 0.45544 0.33549 0.55267 0.0
C1797 C 0.45818 0.29919 0.57505 0.0
H1798 H 0.46224 0.35217 0.59236 0.0
C1799 C 0.49033 0.31131 0.61698 0.0
C1800 C 0.4754 0.31314 0.62472 0.0
C1801 C 0.48572 0.31299 0.60647 0.0
C1802 C 0.46055 0.33704 0.5876 0.0
H1803 H 0.50849 0.32618 0.54207 0.0
H1804 H 0.49371 0.31351 0.55973 0.0
H1805 H 0.46196 0.35559 0.5733 0.0
H1806 H 0.44477 0.31958 0.62756 0.0
H1807 H 0.43708 0.32316 0.60899 0.0
H1808 H 0.45836 0.28138 0.58928 0.0
C1809 C 0.4848 0.32114 0.55495 0.0
C1810 C 0.46028 0.33891 0.57671 0.0
C1811 C 0.49341 0.32856 0.54484 0.0
C1812 C 0.45653 0.31804 0.62175 0.0
C1813 C 0.45209 0.32003 0.61116 0.0
C1814 C 0.45861 0.29741 0.58587 0.0
C1815 C 0.46619 0.3251 0.55909 0.0
C1816 C 0.46018 0.32046 0.57034 0.0
C1817 C 0.46624 0.3168 0.60345 0.0
C1818 C 0.46083 0.31676 0.59222 0.0
H1819 H 0.45599 0.3514 0.53771 0.0
H1820 H 0.44103 0.33869 0.55566 0.0
H1821 H 0.45766 0.2845 0.57033 0.0
H1822 H 0.50513 0.30773 0.619 0.0
H1823 H 0.49722 0.31096 0.60067 0.0
C1824 C 0.64767 0.13151 0.54208 0.0
C1825 C 0.64448 0.15096 0.53836 0.0
C1826 C 0.64974 0.12864 0.55281 0.0
C1827 C 0.63127 0.14349 0.57768 0.0
H1828 H 0.68348 0.1358 0.59038 0.0
C1829 C 0.66502 0.17441 0.61909 0.0
C1830 C 0.67292 0.16109 0.62527 0.0
C1831 C 0.6572 0.16713 0.60888 0.0
C1832 C 0.66843 0.13734 0.58694 0.0
H1833 H 0.64241 0.18344 0.54286 0.0
H1834 H 0.64605 0.17846 0.56147 0.0
H1835 H 0.67997 0.13556 0.57134 0.0
H1836 H 0.67784 0.12906 0.62581 0.0
H1837 H 0.66428 0.11635 0.60774 0.0
H1838 H 0.62011 0.14603 0.59319 0.0
C1839 C 0.64649 0.16517 0.55615 0.0
C1840 C 0.66651 0.13731 0.57605 0.0
C1841 C 0.6446 0.16811 0.54548 0.0
C1842 C 0.67175 0.13959 0.6212 0.0
C1843 C 0.66418 0.13244 0.61087 0.0
C1844 C 0.63311 0.14342 0.58852 0.0
C1845 C 0.64844 0.14507 0.55995 0.0
C1846 C 0.64847 0.14132 0.57135 0.0
C1847 C 0.65729 0.14646 0.60455 0.0
C1848 C 0.65226 0.14127 0.59326 0.0
H1849 H 0.64768 0.11803 0.53675 0.0
H1850 H 0.65137 0.11308 0.55555 0.0
H1851 H 0.61681 0.14603 0.57424 0.0
H1852 H 0.66567 0.19101 0.62204 0.0
H1853 H 0.65229 0.17851 0.60419 0.0
C1854 C 0.53177 0.15927 0.05077 0.0
C1855 C 0.51777 0.15476 0.04162 0.0
C1856 C 0.52014 0.15139 0.0604 0.0
C1857 C 0.46686 0.14153 0.07478 0.0
H1858 H 0.49597 0.11814 0.09541 0.0
C1859 C 0.46067 0.15344 0.11941 0.0
C1860 C 0.48486 0.17042 0.12272 0.0
C1861 C 0.45677 0.14125 0.10982 0.0
C1862 C 0.48714 0.12405 0.08971 0.0
H1863 H 0.48044 0.13833 0.0354 0.0
H1864 H 0.46002 0.1252 0.05248 0.0
H1865 H 0.5034 0.11537 0.07689 0.0
H1866 H 0.52385 0.18693 0.11906 0.0
H1867 H 0.51715 0.16508 0.10255 0.0
H1868 H 0.45219 0.15194 0.08771 0.0
C1869 C 0.48004 0.13454 0.05206 0.0
C1870 C 0.49147 0.12258 0.07914 0.0
C1871 C 0.49174 0.14212 0.04233 0.0
C1872 C 0.50505 0.174 0.11664 0.0
C1873 C 0.50121 0.16136 0.10725 0.0
C1874 C 0.46242 0.14288 0.08539 0.0
C1875 C 0.49421 0.139 0.06116 0.0
C1876 C 0.48275 0.13284 0.07164 0.0
C1877 C 0.47707 0.14532 0.10365 0.0
C1878 C 0.47388 0.1356 0.09292 0.0
H1879 H 0.55182 0.16877 0.05052 0.0
H1880 H 0.53157 0.15558 0.06731 0.0
H1881 H 0.4599 0.14953 0.06914 0.0
H1882 H 0.44483 0.15053 0.124 0.0
H1883 H 0.43803 0.12911 0.10712 0.0
C1884 C 0.82131 0.33149 0.04707 0.0
C1885 C 0.84051 0.34809 0.04054 0.0
C1886 C 0.8267 0.32351 0.05635 0.0
C1887 C 0.86719 0.34523 0.07746 0.0
H1888 H 0.83444 0.27619 0.08575 0.0
C1889 C 0.84539 0.31707 0.12061 0.0
C1890 C 0.8199 0.30047 0.12183 0.0
C1891 C 0.85642 0.32086 0.11073 0.0
C1892 C 0.84401 0.29557 0.08356 0.0
H1893 H 0.88036 0.36917 0.03845 0.0
H1894 H 0.88979 0.35599 0.05509 0.0
H1895 H 0.83761 0.28691 0.06727 0.0
H1896 H 0.78643 0.27347 0.11389 0.0
H1897 H 0.80533 0.28006 0.09689 0.0
H1898 H 0.87123 0.35394 0.09374 0.0
C1899 C 0.87065 0.34876 0.05282 0.0
C1900 C 0.84591 0.30164 0.07299 0.0
C1901 C 0.86524 0.35623 0.04335 0.0
C1902 C 0.80605 0.28666 0.11319 0.0
C1903 C 0.81702 0.29019 0.10343 0.0
C1904 C 0.86494 0.33915 0.08806 0.0
C1905 C 0.85137 0.33244 0.05939 0.0
C1906 C 0.85635 0.32645 0.06992 0.0
C1907 C 0.84218 0.30773 0.10201 0.0
C1908 C 0.85195 0.3142 0.09121 0.0
H1909 H 0.80213 0.3249 0.04504 0.0
H1910 H 0.81156 0.31115 0.06139 0.0
H1911 H 0.87525 0.36451 0.07523 0.0
H1912 H 0.85653 0.32786 0.12717 0.0
H1913 H 0.87586 0.33448 0.10987 0.0
C1914 C 0.68041 0.5184 0.12261 0.0
C1915 C 0.6921 0.50435 0.1243 0.0
C1916 C 0.67794 0.52536 0.11247 0.0
C1917 C 0.70313 0.53206 0.08578 0.0
H1918 H 0.63591 0.50791 0.07619 0.0
C1919 C 0.6662 0.48282 0.04749 0.0
C1920 C 0.64996 0.48708 0.04144 0.0
C1921 C 0.67501 0.49497 0.05698 0.0
C1922 C 0.65489 0.51545 0.07877 0.0
H1923 H 0.71103 0.48733 0.11671 0.0
H1924 H 0.70679 0.49942 0.09922 0.0
H1925 H 0.64456 0.51099 0.09491 0.0
H1926 H 0.63068 0.50789 0.04036 0.0
H1927 H 0.6455 0.52859 0.05732 0.0
H1928 H 0.71311 0.53457 0.06966 0.0
C1929 C 0.6996 0.50517 0.10568 0.0
C1930 C 0.65984 0.51721 0.08948 0.0
C1931 C 0.70173 0.49795 0.11571 0.0
C1932 C 0.6433 0.50439 0.04489 0.0
C1933 C 0.65169 0.51617 0.05455 0.0
C1934 C 0.69818 0.53021 0.07511 0.0
C1935 C 0.68761 0.51883 0.10392 0.0
C1936 C 0.68375 0.52415 0.09305 0.0
C1937 C 0.6674 0.51129 0.06072 0.0
C1938 C 0.6738 0.52058 0.07153 0.0
H1939 H 0.67287 0.52368 0.12909 0.0
H1940 H 0.66849 0.53577 0.11131 0.0
H1941 H 0.72183 0.53793 0.08835 0.0
H1942 H 0.67169 0.46966 0.04497 0.0
H1943 H 0.68683 0.4906 0.06165 0.0
C1944 C 0.52178 0.86843 0.95456 0.0
C1945 C 0.49945 0.84855 0.9583 0.0
C1946 C 0.52669 0.87129 0.94382 0.0
C1947 C 0.49276 0.85642 0.91928 0.0
H1948 H 0.55144 0.86327 0.90572 0.0
C1949 C 0.49174 0.82444 0.87779 0.0
C1950 C 0.51238 0.83742 0.87128 0.0
C1951 C 0.49227 0.832 0.88805 0.0
C1952 C 0.53521 0.86199 0.90941 0.0
H1953 H 0.46566 0.81516 0.95385 0.0
H1954 H 0.47421 0.82018 0.93524 0.0
H1955 H 0.54954 0.86376 0.92483 0.0
H1956 H 0.54945 0.8691 0.8702 0.0
H1957 H 0.5505 0.88231 0.88835 0.0
H1958 H 0.47803 0.85391 0.90399 0.0
C1959 C 0.48769 0.83378 0.94055 0.0
C1960 C 0.5341 0.86215 0.92032 0.0
C1961 C 0.48289 0.83084 0.95121 0.0
C1962 C 0.53325 0.85883 0.87507 0.0
C1963 C 0.53392 0.86627 0.88545 0.0
C1964 C 0.4939 0.8564 0.90843 0.0
C1965 C 0.50922 0.85439 0.93672 0.0
C1966 C 0.51245 0.85838 0.92532 0.0
C1967 C 0.51355 0.85262 0.89208 0.0
C1968 C 0.51472 0.85818 0.90338 0.0
H1969 H 0.53489 0.88234 0.95986 0.0
H1970 H 0.54351 0.88724 0.94103 0.0
H1971 H 0.47606 0.85402 0.92297 0.0
H1972 H 0.47538 0.8079 0.87506 0.0
H1973 H 0.47638 0.82088 0.89297 0.0
C1974 C 0.16095 0.67521 0.95241 0.0
C1975 C 0.14055 0.66349 0.95912 0.0
C1976 C 0.15827 0.68264 0.94249 0.0
C1977 C 0.11294 0.66255 0.92194 0.0
H1978 H 0.16646 0.71901 0.90785 0.0
C1979 C 0.12996 0.68116 0.87631 0.0
C1980 C 0.15253 0.68241 0.87379 0.0
C1981 C 0.12303 0.6804 0.88678 0.0
C1982 C 0.15112 0.70339 0.9117 0.0
H1983 H 0.10161 0.6514 0.96104 0.0
H1984 H 0.09673 0.66407 0.94343 0.0
H1985 H 0.16471 0.71816 0.92688 0.0
H1986 H 0.18472 0.68229 0.88021 0.0
H1987 H 0.17277 0.68128 0.89832 0.0
H1988 H 0.10028 0.64727 0.90664 0.0
C1989 C 0.11482 0.66765 0.94593 0.0
C1990 C 0.15014 0.70287 0.92257 0.0
C1991 C 0.11765 0.66058 0.95599 0.0
C1992 C 0.16733 0.68158 0.88187 0.0
C1993 C 0.16059 0.6811 0.89224 0.0
C1994 C 0.11385 0.66316 0.91101 0.0
C1995 C 0.13502 0.6782 0.939 0.0
C1996 C 0.1318 0.68188 0.9278 0.0
C1997 C 0.13877 0.68116 0.89479 0.0
C1998 C 0.13364 0.68308 0.90587 0.0
H1999 H 0.1788 0.67768 0.95465 0.0
H2000 H 0.17412 0.69042 0.93731 0.0
H2001 H 0.09868 0.64606 0.92576 0.0
H2002 H 0.11819 0.68176 0.87023 0.0
H2003 H 0.10601 0.68027 0.88863 0.0
C2004 C 0.31282 0.49205 0.87988 0.0
C2005 C 0.31147 0.47532 0.87222 0.0
C2006 C 0.31553 0.48802 0.89035 0.0
C2007 C 0.33766 0.46158 0.90918 0.0
H2008 H 0.28785 0.46339 0.92673 0.0
C2009 C 0.34483 0.46845 0.95452 0.0
C2010 C 0.34374 0.48927 0.95801 0.0
C2011 C 0.33755 0.45963 0.94431 0.0
C2012 C 0.30173 0.46254 0.92194 0.0
H2013 H 0.31352 0.44207 0.86943 0.0
H2014 H 0.31888 0.43531 0.88797 0.0
H2015 H 0.28334 0.46219 0.9078 0.0
H2016 H 0.33312 0.51638 0.95382 0.0
H2017 H 0.32006 0.50085 0.93627 0.0
H2018 H 0.35688 0.46359 0.92337 0.0
C2019 C 0.31744 0.45131 0.88575 0.0
C2020 C 0.29915 0.46185 0.91113 0.0
C2021 C 0.31444 0.45522 0.87519 0.0
C2022 C 0.33421 0.50033 0.95135 0.0
C2023 C 0.32657 0.49132 0.9413 0.0
C2024 C 0.34033 0.46238 0.92005 0.0
C2025 C 0.3172 0.4673 0.89341 0.0
C2026 C 0.31759 0.46244 0.90466 0.0
C2027 C 0.32855 0.47119 0.9376 0.0
C2028 C 0.3229 0.46398 0.92649 0.0
H2029 H 0.31086 0.50786 0.87786 0.0
H2030 H 0.31579 0.50087 0.89611 0.0
H2031 H 0.3521 0.46206 0.90431 0.0
H2032 H 0.35226 0.45969 0.9595 0.0
H2033 H 0.33926 0.44408 0.94163 0.0
C2034 C 0.15952 0.52413 0.44694 0.0
C2035 C 0.15653 0.51023 0.456 0.0
C2036 C 0.15502 0.51306 0.43715 0.0
C2037 C 0.16163 0.46615 0.42395 0.0
H2038 H 0.13738 0.48728 0.40049 0.0
C2039 C 0.20846 0.48986 0.38428 0.0
C2040 C 0.19431 0.48408 0.37511 0.0
C2041 C 0.19703 0.48472 0.39403 0.0
C2042 C 0.14374 0.48069 0.40694 0.0
H2043 H 0.14523 0.47354 0.46197 0.0
H2044 H 0.13808 0.45419 0.44467 0.0
H2045 H 0.12681 0.49285 0.41824 0.0
H2046 H 0.15688 0.46777 0.36899 0.0
H2047 H 0.13696 0.45929 0.38611 0.0
H2048 H 0.17978 0.45534 0.41268 0.0
C2049 C 0.14371 0.47365 0.44523 0.0
C2050 C 0.1378 0.484 0.4171 0.0
C2051 C 0.14782 0.4847 0.45509 0.0
C2052 C 0.16835 0.47257 0.37591 0.0
C2053 C 0.15691 0.46767 0.38569 0.0
C2054 C 0.16768 0.46296 0.4138 0.0
C2055 C 0.14771 0.48788 0.43617 0.0
C2056 C 0.14773 0.4779 0.42569 0.0
C2057 C 0.17118 0.47385 0.39484 0.0
C2058 C 0.15981 0.47134 0.40524 0.0
H2059 H 0.16587 0.54377 0.44741 0.0
H2060 H 0.1586 0.5246 0.43031 0.0
H2061 H 0.16957 0.46131 0.43043 0.0
H2062 H 0.22846 0.49857 0.38396 0.0
H2063 H 0.20855 0.4901 0.40095 0.0
C2064 C 0.52308 0.68428 0.37504 0.0
C2065 C 0.49831 0.67505 0.372 0.0
C2066 C 0.52858 0.67724 0.38459 0.0
C2067 C 0.50273 0.63067 0.40542 0.0
H2068 H 0.53288 0.68547 0.42495 0.0
C2069 C 0.46736 0.62361 0.44617 0.0
C2070 C 0.48298 0.63659 0.45455 0.0
C2071 C 0.47689 0.6257 0.43618 0.0
C2072 C 0.52517 0.66995 0.4196 0.0
H2073 H 0.45998 0.65026 0.37618 0.0
H2074 H 0.46957 0.63747 0.3927 0.0
H2075 H 0.53589 0.69377 0.40623 0.0
H2076 H 0.52109 0.66127 0.45914 0.0
H2077 H 0.53788 0.66552 0.4414 0.0
H2078 H 0.49072 0.60688 0.41876 0.0
C2079 C 0.48472 0.65026 0.38776 0.0
C2080 C 0.52684 0.67472 0.40887 0.0
C2081 C 0.47921 0.65771 0.37837 0.0
C2082 C 0.50862 0.65115 0.45279 0.0
C2083 C 0.5182 0.65356 0.44268 0.0
C2084 C 0.50126 0.6259 0.41611 0.0
C2085 C 0.5094 0.66036 0.39107 0.0
C2086 C 0.51436 0.65515 0.40177 0.0
C2087 C 0.50232 0.64098 0.43427 0.0
C2088 C 0.51107 0.64555 0.42331 0.0
H2089 H 0.53815 0.69779 0.37027 0.0
H2090 H 0.54773 0.68536 0.38703 0.0
H2091 H 0.49324 0.61529 0.40006 0.0
H2092 H 0.44756 0.61199 0.44727 0.0
H2093 H 0.46406 0.61614 0.42987 0.0
C2094 C 0.37057 0.83938 0.449 0.0
C2095 C 0.35882 0.84309 0.45759 0.0
C2096 C 0.36916 0.84796 0.43916 0.0
C2097 C 0.32819 0.85802 0.42296 0.0
H2098 H 0.38341 0.88045 0.40375 0.0
C2099 C 0.31394 0.84549 0.37843 0.0
C2100 C 0.32258 0.82969 0.37505 0.0
C2101 C 0.32155 0.85759 0.38807 0.0
C2102 C 0.36791 0.87468 0.40903 0.0
H2103 H 0.33681 0.85929 0.46263 0.0
H2104 H 0.33365 0.87373 0.44514 0.0
H2105 H 0.39094 0.88314 0.42253 0.0
H2106 H 0.34711 0.81547 0.37864 0.0
H2107 H 0.36082 0.83697 0.39528 0.0
H2108 H 0.30499 0.84795 0.40942 0.0
C2109 C 0.34419 0.86437 0.44617 0.0
C2110 C 0.37218 0.87616 0.41976 0.0
C2111 C 0.34596 0.85607 0.45614 0.0
C2112 C 0.34009 0.82744 0.3811 0.0
C2113 C 0.34809 0.83992 0.39057 0.0
C2114 C 0.32392 0.85665 0.4122 0.0
C2115 C 0.35578 0.86031 0.43759 0.0
C2116 C 0.3522 0.86638 0.42679 0.0
C2117 C 0.3384 0.85456 0.39429 0.0
C2118 C 0.34361 0.86357 0.40518 0.0
H2119 H 0.38087 0.82972 0.44985 0.0
H2120 H 0.37787 0.84411 0.43267 0.0
H2121 H 0.31245 0.85033 0.4282 0.0
H2122 H 0.30032 0.84744 0.37391 0.0
H2123 H 0.31376 0.86869 0.3908 0.0
C2124 C 0.2488 0.14862 0.16344 0.0
C2125 C 0.23023 0.13317 0.17043 0.0
C2126 C 0.26699 0.14298 0.16045 0.0
C2127 C 0.29531 0.10627 0.16969 0.0
H2128 H 0.33269 0.13179 0.14415 0.0
C2129 C 0.39751 0.13656 0.16671 0.0
C2130 C 0.40837 0.13999 0.15686 0.0
C2131 C 0.37191 0.1263 0.16759 0.0
C2132 C 0.32219 0.12383 0.15122 0.0
H2133 H 0.21454 0.09885 0.17915 0.0
H2134 H 0.24527 0.08819 0.17351 0.0
H2135 H 0.29438 0.13213 0.14636 0.0
H2136 H 0.40158 0.13326 0.14032 0.0
H2137 H 0.35664 0.11354 0.14184 0.0
H2138 H 0.32279 0.09739 0.17444 0.0
C2139 C 0.2468 0.10529 0.17071 0.0
C2140 C 0.30037 0.12456 0.15258 0.0
C2141 C 0.22911 0.11131 0.17391 0.0
C2142 C 0.39335 0.13063 0.148 0.0
C2143 C 0.3677 0.11972 0.14888 0.0
C2144 C 0.31683 0.10501 0.16823 0.0
C2145 C 0.26644 0.12141 0.1642 0.0
C2146 C 0.28722 0.11678 0.16201 0.0
C2147 C 0.35682 0.11898 0.1586 0.0
C2148 C 0.33116 0.11479 0.15917 0.0
H2149 H 0.24991 0.16558 0.16067 0.0
H2150 H 0.28198 0.15608 0.15555 0.0
H2151 H 0.28584 0.10016 0.1771 0.0
H2152 H 0.40895 0.14409 0.17361 0.0
H2153 H 0.36443 0.1263 0.1752 0.0
C2154 C 0.88522 0.12003 0.17316 0.0
C2155 C 0.86428 0.09873 0.16939 0.0
C2156 C 0.88955 0.14348 0.1704 0.0
C2157 C 0.86742 0.17649 0.15295 0.0
H2158 H 0.89133 0.22424 0.17555 0.0
C2159 C 0.86003 0.26345 0.14941 0.0
C2160 C 0.85007 0.26842 0.15825 0.0
C2161 C 0.87029 0.2481 0.15016 0.0
C2162 C 0.8846 0.21115 0.16915 0.0
H2163 H 0.83181 0.08486 0.15958 0.0
H2164 H 0.83838 0.12584 0.15522 0.0
H2165 H 0.89084 0.1854 0.17764 0.0
H2166 H 0.84376 0.26262 0.17484 0.0
H2167 H 0.86069 0.23503 0.17621 0.0
H2168 H 0.85898 0.2012 0.14485 0.0
C2169 C 0.85204 0.12464 0.16001 0.0
C2170 C 0.88466 0.18892 0.17028 0.0
C2171 C 0.84808 0.10112 0.16256 0.0
C2172 C 0.85182 0.25927 0.16798 0.0
C2173 C 0.86159 0.24349 0.16872 0.0
C2174 C 0.86689 0.1985 0.15191 0.0
C2175 C 0.87264 0.14613 0.16405 0.0
C2176 C 0.87547 0.171 0.16229 0.0
C2177 C 0.86997 0.23685 0.15973 0.0
C2178 C 0.87483 0.21581 0.16012 0.0
H2179 H 0.89824 0.11856 0.17829 0.0
H2180 H 0.90597 0.1595 0.17342 0.0
H2181 H 0.86077 0.16344 0.14653 0.0
H2182 H 0.85859 0.2703 0.14181 0.0
H2183 H 0.87715 0.24393 0.14314 0.0
C2184 C 0.87732 0.76643 0.16621 0.0
C2185 C 0.89932 0.76585 0.16483 0.0
C2186 C 0.8548 0.74669 0.16288 0.0
C2187 C 0.82662 0.6864 0.14841 0.0
H2188 H 0.77261 0.66933 0.16774 0.0
C2189 C 0.74091 0.59065 0.14628 0.0
C2190 C 0.73226 0.57896 0.15594 0.0
C2191 C 0.75648 0.61626 0.14578 0.0
C2192 C 0.78749 0.67371 0.16228 0.0
H2193 H 0.91561 0.74502 0.15862 0.0
H2194 H 0.87613 0.70961 0.15336 0.0
H2195 H 0.81063 0.70847 0.16961 0.0
H2196 H 0.7318 0.58429 0.17257 0.0
H2197 H 0.76009 0.62881 0.17187 0.0
H2198 H 0.80447 0.65063 0.14175 0.0
C2199 C 0.8761 0.7256 0.15664 0.0
C2200 C 0.80928 0.69648 0.16323 0.0
C2201 C 0.89876 0.74576 0.15971 0.0
C2202 C 0.7381 0.59316 0.16504 0.0
C2203 C 0.75428 0.61871 0.16459 0.0
C2204 C 0.80507 0.66339 0.14762 0.0
C2205 C 0.85373 0.72557 0.1584 0.0
C2206 C 0.82941 0.70288 0.15647 0.0
C2207 C 0.76445 0.63046 0.15498 0.0
C2208 C 0.78545 0.65644 0.15473 0.0
H2209 H 0.87751 0.78206 0.17001 0.0
H2210 H 0.83818 0.74777 0.16407 0.0
H2211 H 0.84141 0.69087 0.14289 0.0
H2212 H 0.73646 0.57983 0.13917 0.0
H2213 H 0.76324 0.62468 0.13821 0.0
C2214 C 0.14551 0.40029 0.35168 0.0
C2215 C 0.1498 0.41284 0.34216 0.0
C2216 C 0.13418 0.37455 0.35186 0.0
C2217 C 0.10771 0.31793 0.33523 0.0
H2218 H 0.15687 0.30784 0.34952 0.0
C2219 C 0.13678 0.25027 0.32032 0.0
C2220 C 0.14278 0.23684 0.32737 0.0
C2221 C 0.13142 0.26815 0.32388 0.0
C2222 C 0.14256 0.30997 0.34569 0.0
H2223 H 0.1437 0.40884 0.3255 0.0
H2224 H 0.12429 0.36375 0.32571 0.0
H2225 H 0.15473 0.34493 0.35295 0.0
H2226 H 0.14799 0.23159 0.3437 0.0
H2227 H 0.13864 0.26313 0.34999 0.0
H2228 H 0.0964 0.28334 0.32761 0.0
C2229 C 0.12913 0.37356 0.33308 0.0
C2230 C 0.14125 0.33127 0.34767 0.0
C2231 C 0.14021 0.39937 0.33293 0.0
C2232 C 0.14365 0.24186 0.33809 0.0
C2233 C 0.13818 0.2598 0.34168 0.0
C2234 C 0.10895 0.29653 0.33328 0.0
C2235 C 0.12756 0.36111 0.34248 0.0
C2236 C 0.12446 0.33594 0.34217 0.0
C2237 C 0.13181 0.27298 0.3346 0.0
C2238 C 0.12711 0.29287 0.33817 0.0
H2239 H 0.15291 0.41051 0.35888 0.0
H2240 H 0.13274 0.3654 0.35923 0.0
H2241 H 0.09442 0.32091 0.33097 0.0
H2242 H 0.13606 0.2469 0.312 0.0
H2243 H 0.12732 0.27846 0.31819 0.0
C2244 C 0.5904 0.75562 0.35313 0.0
C2245 C 0.57932 0.74152 0.34415 0.0
C2246 C 0.61573 0.77237 0.35335 0.0
C2247 C 0.67457 0.79676 0.33843 0.0
H2248 H 0.683 0.86017 0.34714 0.0
C2249 C 0.74817 0.88862 0.321 0.0
C2250 C 0.76029 0.90963 0.32742 0.0
C2251 C 0.72893 0.86652 0.32491 0.0
C2252 C 0.68121 0.8426 0.34489 0.0
H2253 H 0.58595 0.73199 0.32872 0.0
H2254 H 0.63031 0.76202 0.32889 0.0
H2255 H 0.64458 0.82248 0.35099 0.0
H2256 H 0.7619 0.92402 0.34298 0.0
H2257 H 0.7279 0.88517 0.34984 0.0
H2258 H 0.71097 0.81727 0.33191 0.0
C2259 C 0.61958 0.75987 0.33586 0.0
C2260 C 0.65917 0.82092 0.34711 0.0
C2261 C 0.59419 0.74274 0.33572 0.0
C2262 C 0.75273 0.90815 0.33784 0.0
C2263 C 0.73337 0.88594 0.34176 0.0
C2264 C 0.69667 0.81851 0.33621 0.0
C2265 C 0.63033 0.77567 0.3445 0.0
C2266 C 0.65533 0.79782 0.34366 0.0
C2267 C 0.72135 0.8649 0.33532 0.0
C2268 C 0.69987 0.84169 0.33914 0.0
H2269 H 0.57926 0.7546 0.35981 0.0
H2270 H 0.62361 0.78381 0.36021 0.0
H2271 H 0.67225 0.77921 0.33579 0.0
H2272 H 0.75356 0.88917 0.31293 0.0
H2273 H 0.71965 0.85083 0.31968 0.0
C2274 C 0.10783 0.86241 0.32007 0.0
C2275 C 0.08693 0.85389 0.32652 0.0
C2276 C 0.13009 0.8658 0.32405 0.0
C2277 C 0.15497 0.84486 0.34492 0.0
H2278 H 0.21783 0.89928 0.33536 0.0
C2279 C 0.24275 0.84476 0.3552 0.0
C2280 C 0.25688 0.84651 0.34639 0.0
C2281 C 0.22583 0.85312 0.35478 0.0
C2282 C 0.20043 0.88408 0.33814 0.0
H2283 H 0.07285 0.84226 0.3422 0.0
H2284 H 0.11193 0.84816 0.34921 0.0
H2285 H 0.17928 0.89824 0.33072 0.0
H2286 H 0.26643 0.8604 0.33061 0.0
H2287 H 0.23617 0.87439 0.3297 0.0
H2288 H 0.17576 0.8301 0.35197 0.0
C2289 C 0.11098 0.85208 0.34104 0.0
C2290 C 0.17839 0.88343 0.33546 0.0
C2291 C 0.08863 0.84863 0.33703 0.0
C2292 C 0.25568 0.85892 0.33749 0.0
C2293 C 0.2384 0.86696 0.337 0.0
C2294 C 0.17693 0.84552 0.3476 0.0
C2295 C 0.13196 0.86081 0.33459 0.0
C2296 C 0.15542 0.86344 0.3386 0.0
C2297 C 0.22241 0.8629 0.34547 0.0
C2298 C 0.19986 0.86481 0.34402 0.0
H2299 H 0.10709 0.8666 0.31192 0.0
H2300 H 0.14573 0.87198 0.31883 0.0
H2301 H 0.13758 0.82907 0.34734 0.0
H2302 H 0.24372 0.83557 0.36222 0.0
H2303 H 0.21423 0.85037 0.36152 0.0
C2304 C 0.72966 0.80145 0.82806 0.0
C2305 C 0.74322 0.81265 0.81899 0.0
C2306 C 0.70408 0.79217 0.82819 0.0
C2307 C 0.66296 0.80953 0.81548 0.0
H2308 H 0.61385 0.76079 0.83412 0.0
C2309 C 0.57238 0.80896 0.82531 0.0
C2310 C 0.56646 0.80626 0.83598 0.0
C2311 C 0.59081 0.80442 0.82158 0.0
C2312 C 0.62739 0.77446 0.82886 0.0
H2313 H 0.74096 0.82009 0.80266 0.0
H2314 H 0.69623 0.80293 0.80274 0.0
H2315 H 0.65137 0.75917 0.83016 0.0
H2316 H 0.57529 0.79704 0.85112 0.0
H2317 H 0.60772 0.7898 0.84467 0.0
H2318 H 0.63976 0.82559 0.81457 0.0
C2319 C 0.70521 0.80208 0.80983 0.0
C2320 C 0.64879 0.77346 0.82658 0.0
C2321 C 0.73074 0.81175 0.80976 0.0
C2322 C 0.5794 0.79922 0.84284 0.0
C2323 C 0.59778 0.79475 0.83913 0.0
C2324 C 0.64165 0.81053 0.81777 0.0
C2325 C 0.6919 0.79378 0.81921 0.0
C2326 C 0.66713 0.79144 0.8201 0.0
C2327 C 0.6036 0.79714 0.82846 0.0
C2328 C 0.62403 0.79351 0.82474 0.0
H2329 H 0.73906 0.80211 0.83526 0.0
H2330 H 0.69437 0.78593 0.83555 0.0
H2331 H 0.6769 0.82399 0.81062 0.0
H2332 H 0.56252 0.81415 0.81984 0.0
H2333 H 0.5949 0.80638 0.81331 0.0
C2334 C 0.21211 0.77699 0.83591 0.0
C2335 C 0.18919 0.75542 0.83446 0.0
C2336 C 0.21608 0.79964 0.83212 0.0
C2337 C 0.18692 0.82873 0.8162 0.0
H2338 H 0.22406 0.88361 0.83513 0.0
C2339 C 0.17987 0.91574 0.81203 0.0
C2340 C 0.17672 0.92532 0.82142 0.0
C2341 C 0.18936 0.89969 0.81206 0.0
C2342 C 0.21351 0.86849 0.82978 0.0
H2343 H 0.15269 0.73996 0.82768 0.0
H2344 H 0.15881 0.77972 0.82161 0.0
H2345 H 0.22351 0.84498 0.83788 0.0
H2346 H 0.18211 0.92711 0.83812 0.0
H2347 H 0.1972 0.8979 0.83836 0.0
H2348 H 0.17481 0.8513 0.80875 0.0
C2349 C 0.17422 0.77929 0.82529 0.0
C2350 C 0.21354 0.84633 0.83124 0.0
C2351 C 0.17054 0.75648 0.82882 0.0
C2352 C 0.18463 0.92001 0.83079 0.0
C2353 C 0.19339 0.90331 0.83087 0.0
C2354 C 0.18637 0.85066 0.8149 0.0
C2355 C 0.19689 0.80128 0.8271 0.0
C2356 C 0.19969 0.8259 0.82463 0.0
C2357 C 0.19493 0.89215 0.82154 0.0
C2358 C 0.19909 0.87062 0.82186 0.0
H2359 H 0.22688 0.77638 0.84012 0.0
H2360 H 0.23403 0.81592 0.83338 0.0
H2361 H 0.17658 0.8137 0.81078 0.0
H2362 H 0.17404 0.9199 0.8047 0.0
H2363 H 0.19111 0.89225 0.80468 0.0
C2364 C 0.21165 0.43141 0.83643 0.0
C2365 C 0.23357 0.43112 0.83434 0.0
C2366 C 0.18893 0.41216 0.83298 0.0
C2367 C 0.16002 0.35445 0.81672 0.0
H2368 H 0.10648 0.33433 0.8366 0.0
C2369 C 0.07594 0.25849 0.81314 0.0
C2370 C 0.06852 0.2455 0.82258 0.0
C2371 C 0.09024 0.28429 0.81314 0.0
C2372 C 0.1212 0.33958 0.83096 0.0
H2373 H 0.24945 0.41124 0.82682 0.0
H2374 H 0.20964 0.37661 0.82135 0.0
H2375 H 0.14465 0.37301 0.83915 0.0
H2376 H 0.06861 0.24869 0.83936 0.0
H2377 H 0.09454 0.2935 0.83951 0.0
H2378 H 0.13763 0.31989 0.80914 0.0
C2379 C 0.20982 0.39206 0.82528 0.0
C2380 C 0.1431 0.36211 0.83232 0.0
C2381 C 0.23267 0.41177 0.82847 0.0
C2382 C 0.07387 0.25853 0.83199 0.0
C2383 C 0.08876 0.28429 0.83203 0.0
C2384 C 0.13837 0.33166 0.8155 0.0
C2385 C 0.18757 0.39178 0.82766 0.0
C2386 C 0.1631 0.36953 0.82538 0.0
C2387 C 0.09818 0.29741 0.82261 0.0
C2388 C 0.11893 0.32355 0.82279 0.0
H2389 H 0.21206 0.44649 0.84081 0.0
H2390 H 0.1724 0.41308 0.8347 0.0
H2391 H 0.17467 0.35978 0.81104 0.0
H2392 H 0.07199 0.24859 0.8058 0.0
H2393 H 0.09638 0.29375 0.80572 0.0
C2394 C 0.77918 0.56552 0.66012 0.0
C2395 C 0.8013 0.5656 0.6622 0.0
C2396 C 0.77626 0.58531 0.66323 0.0
C2397 C 0.80573 0.64386 0.67877 0.0
H2398 H 0.77286 0.66343 0.65833 0.0
C2399 C 0.81243 0.73805 0.68233 0.0
C2400 C 0.81812 0.75146 0.673 0.0
C2401 C 0.80294 0.7125 0.68213 0.0
C2402 C 0.78216 0.6583 0.66412 0.0
H2403 H 0.83742 0.58566 0.66942 0.0
H2404 H 0.83309 0.62118 0.67435 0.0
H2405 H 0.77253 0.6247 0.65614 0.0
H2406 H 0.8177 0.74929 0.65618 0.0
H2407 H 0.80216 0.70485 0.65571 0.0
H2408 H 0.81728 0.6785 0.68621 0.0
C2409 C 0.81756 0.60551 0.67064 0.0
C2410 C 0.78165 0.6358 0.66296 0.0
C2411 C 0.8202 0.58531 0.66776 0.0
C2412 C 0.81296 0.73903 0.66344 0.0
C2413 C 0.80401 0.71355 0.66322 0.0
C2414 C 0.80665 0.66658 0.67981 0.0
C2415 C 0.7957 0.60596 0.66822 0.0
C2416 C 0.7939 0.62853 0.67015 0.0
C2417 C 0.79981 0.70013 0.67258 0.0
C2418 C 0.79537 0.67437 0.67236 0.0
H2419 H 0.76416 0.55018 0.656 0.0
H2420 H 0.7589 0.58458 0.66151 0.0
H2421 H 0.8149 0.63866 0.68458 0.0
H2422 H 0.81647 0.74753 0.68978 0.0
H2423 H 0.7993 0.7027 0.68948 0.0
C2424 C 0.43085 0.21695 0.66211 0.0
C2425 C 0.4301 0.23888 0.66345 0.0
C2426 C 0.41162 0.19452 0.66579 0.0
C2427 C 0.35319 0.16684 0.6815 0.0
H2428 H 0.33509 0.11094 0.66312 0.0
C2429 C 0.2592 0.08006 0.68635 0.0
C2430 C 0.24638 0.06987 0.67704 0.0
C2431 C 0.28472 0.09619 0.68621 0.0
C2432 C 0.33975 0.12636 0.66832 0.0
H2433 H 0.40946 0.25515 0.66987 0.0
H2434 H 0.37483 0.21575 0.67572 0.0
H2435 H 0.37326 0.14932 0.66011 0.0
H2436 H 0.24964 0.06717 0.66037 0.0
H2437 H 0.29391 0.09653 0.65992 0.0
H2438 H 0.31853 0.1448 0.68903 0.0
C2439 C 0.39062 0.21575 0.67222 0.0
C2440 C 0.36199 0.14837 0.66671 0.0
C2441 C 0.4103 0.23834 0.6688 0.0
C2442 C 0.2594 0.07474 0.66765 0.0
C2443 C 0.28483 0.09152 0.66744 0.0
C2444 C 0.33065 0.14506 0.68293 0.0
C2445 C 0.39083 0.19346 0.67059 0.0
C2446 C 0.36873 0.16913 0.67313 0.0
C2447 C 0.29765 0.10321 0.67668 0.0
C2448 C 0.32332 0.12471 0.67619 0.0
H2449 H 0.44629 0.21713 0.65814 0.0
H2450 H 0.41291 0.17799 0.66468 0.0
H2451 H 0.35799 0.18215 0.68678 0.0
H2452 H 0.24931 0.07629 0.69369 0.0
H2453 H 0.29402 0.10409 0.69353 0.0
C2454 C 0.76532 0.18791 0.66959 0.0
C2455 C 0.76115 0.1903 0.659 0.0
C2456 C 0.78856 0.19244 0.67293 0.0
C2457 C 0.85444 0.22248 0.66467 0.0
H2458 H 0.85687 0.17549 0.68371 0.0
C2459 C 0.9327 0.19935 0.66663 0.0
C2460 C 0.93577 0.18961 0.676 0.0
C2461 C 0.91557 0.2076 0.66608 0.0
C2462 C 0.85668 0.18923 0.6786 0.0
H2463 H 0.77776 0.19879 0.64358 0.0
H2464 H 0.81793 0.20597 0.64935 0.0
H2465 H 0.81736 0.17226 0.67976 0.0
H2466 H 0.92638 0.18385 0.69241 0.0
H2467 H 0.89735 0.19921 0.69158 0.0
H2468 H 0.89379 0.23872 0.66318 0.0
C2469 C 0.80356 0.20129 0.65513 0.0
C2470 C 0.83394 0.18729 0.67631 0.0
C2471 C 0.78044 0.19686 0.6518 0.0
C2472 C 0.92406 0.19112 0.68508 0.0
C2473 C 0.90733 0.19972 0.68458 0.0
C2474 C 0.87725 0.2244 0.66695 0.0
C2475 C 0.80797 0.19936 0.66573 0.0
C2476 C 0.83247 0.20348 0.66913 0.0
C2477 C 0.90163 0.20638 0.67494 0.0
C2478 C 0.87853 0.20743 0.67377 0.0
H2479 H 0.75083 0.18311 0.67531 0.0
H2480 H 0.79144 0.19089 0.68117 0.0
H2481 H 0.85391 0.23553 0.65924 0.0
H2482 H 0.94146 0.19816 0.65953 0.0
H2483 H 0.9116 0.21262 0.65853 0.0
C2484 C 0.0692 0.48208 0.47755 0.0
C2485 C 0.08101 0.48122 0.48672 0.0
C2486 C 0.04381 0.47323 0.4775 0.0
C2487 C 0.98643 0.44335 0.49367 0.0
H2488 H 0.97847 0.4968 0.48244 0.0
C2489 C 0.91567 0.46752 0.50975 0.0
C2490 C 0.90318 0.47506 0.50285 0.0
C2491 C 0.93442 0.4635 0.50616 0.0
C2492 C 0.9801 0.48141 0.48542 0.0
H2493 H 0.07574 0.46859 0.50272 0.0
H2494 H 0.03131 0.45388 0.50282 0.0
H2495 H 0.01586 0.4955 0.47869 0.0
H2496 H 0.90048 0.4843 0.48678 0.0
H2497 H 0.93356 0.47735 0.48046 0.0
H2498 H 0.95094 0.43001 0.5008 0.0
C2499 C 0.04143 0.46084 0.49559 0.0
C2500 C 0.00155 0.48058 0.48325 0.0
C2501 C 0.06686 0.46928 0.49556 0.0
C2502 C 0.90997 0.47872 0.49228 0.0
C2503 C 0.9288 0.47465 0.48867 0.0
C2504 C 0.96492 0.44419 0.49585 0.0
C2505 C 0.02996 0.46401 0.48671 0.0
C2506 C 0.00528 0.46193 0.48757 0.0
C2507 C 0.94111 0.46687 0.49558 0.0
C2508 C 0.9619 0.46367 0.492 0.0
H2509 H 0.07987 0.49102 0.47061 0.0
H2510 H 0.03537 0.47527 0.47046 0.0
H2511 H 0.98865 0.4286 0.49701 0.0
H2512 H 0.91089 0.46459 0.51796 0.0
H2513 H 0.94397 0.45812 0.51172 0.0
C2514 C 0.50614 0.42747 0.49673 0.0
C2515 C 0.52375 0.42613 0.50303 0.0
C2516 C 0.51004 0.45049 0.49339 0.0
C2517 C 0.54796 0.5175 0.5001 0.0
H2518 H 0.5131 0.52289 0.47616 0.0
C2519 C 0.51991 0.59154 0.49762 0.0
C2520 C 0.51305 0.59682 0.48799 0.0
C2521 C 0.52857 0.57481 0.49818 0.0
C2522 C 0.52361 0.52217 0.48274 0.0
H2523 H 0.55991 0.44701 0.51019 0.0
H2524 H 0.56763 0.48699 0.5038 0.0
H2525 H 0.51455 0.48534 0.4788 0.0
H2526 H 0.51184 0.59112 0.47132 0.0
H2527 H 0.52896 0.56351 0.47211 0.0
H2528 H 0.55808 0.55478 0.50375 0.0
C2529 C 0.55017 0.4707 0.50187 0.0
C2530 C 0.52392 0.50021 0.48439 0.0
C2531 C 0.54587 0.4478 0.50549 0.0
C2532 C 0.517 0.58707 0.47883 0.0
C2533 C 0.52646 0.571 0.47933 0.0
C2534 C 0.54831 0.53974 0.49827 0.0
C2535 C 0.53202 0.47249 0.49603 0.0
C2536 C 0.53517 0.49717 0.49333 0.0
C2537 C 0.53108 0.56356 0.48906 0.0
C2538 C 0.5352 0.54203 0.48982 0.0
H2539 H 0.48893 0.41086 0.49478 0.0
H2540 H 0.49534 0.45095 0.48909 0.0
H2541 H 0.55679 0.51605 0.50712 0.0
H2542 H 0.51665 0.59873 0.50478 0.0
H2543 H 0.53154 0.56947 0.50584 0.0
C2544 C 0.56836 0.07929 0.49553 0.0
C2545 C 0.56883 0.09942 0.50057 0.0
C2546 C 0.54572 0.0589 0.4926 0.0
C2547 C 0.47879 0.02946 0.49911 0.0
H2548 H 0.47392 0.98469 0.47712 0.0
C2549 C 0.40542 0.92658 0.49938 0.0
C2550 C 0.39968 0.91319 0.49005 0.0
C2551 C 0.42227 0.952 0.49936 0.0
C2552 C 0.47456 0.99716 0.48314 0.0
H2553 H 0.54679 0.11534 0.50582 0.0
H2554 H 0.50751 0.08064 0.50015 0.0
H2555 H 0.51121 0.02453 0.47872 0.0
H2556 H 0.40475 0.91545 0.47332 0.0
H2557 H 0.43272 0.96016 0.47311 0.0
H2558 H 0.4418 0.00249 0.5033 0.0
C2559 C 0.52421 0.07971 0.49891 0.0
C2560 C 0.4963 0.01992 0.4842 0.0
C2561 C 0.5467 0.09969 0.50209 0.0
C2562 C 0.40914 0.92564 0.4806 0.0
C2563 C 0.42538 0.95114 0.48052 0.0
C2564 C 0.45682 0.00697 0.49791 0.0
C2565 C 0.52328 0.05867 0.49443 0.0
C2566 C 0.49903 0.03602 0.49241 0.0
C2567 C 0.43321 0.96444 0.48995 0.0
C2568 C 0.45471 0.99013 0.49013 0.0
H2569 H 0.58531 0.0788 0.49432 0.0
H2570 H 0.54583 0.04295 0.48932 0.0
H2571 H 0.48013 0.04116 0.50561 0.0
H2572 H 0.39848 0.9171 0.50676 0.0
H2573 H 0.42795 0.96139 0.5068 0.0
C2574 C 0.48261 0.06983 0.01908 0.0
C2575 C 0.48384 0.08214 0.00976 0.0
C2576 C 0.47287 0.04429 0.01914 0.0
C2577 C 0.44394 0.98724 0.00289 0.0
H2578 H 0.49632 0.97856 0.01485 0.0
C2579 C 0.46714 0.91529 0.98751 0.0
C2580 C 0.47485 0.90307 0.99447 0.0
C2581 C 0.46325 0.93421 0.99099 0.0
C2582 C 0.48118 0.98035 0.01167 0.0
H2583 H 0.47388 0.0777 0.99342 0.0
H2584 H 0.45731 0.03287 0.99339 0.0
H2585 H 0.4952 0.01616 0.01839 0.0
H2586 H 0.48448 0.90094 0.01053 0.0
H2587 H 0.47758 0.9342 0.01668 0.0
H2588 H 0.43052 0.95164 0.99585 0.0
C2589 C 0.46342 0.04278 0.00071 0.0
C2590 C 0.48048 0.00193 0.01372 0.0
C2591 C 0.47287 0.06841 0.00071 0.0
C2592 C 0.47877 0.91024 0.00499 0.0
C2593 C 0.47474 0.92919 0.0085 0.0
C2594 C 0.44457 0.96553 0.00088 0.0
C2595 C 0.46473 0.03078 0.00981 0.0
C2596 C 0.46228 0.00593 0.00911 0.0
C2597 C 0.46683 0.94129 0.00153 0.0
C2598 C 0.46369 0.96224 0.00498 0.0
H2599 H 0.4909 0.08021 0.02617 0.0
H2600 H 0.47357 0.03543 0.02631 0.0
H2601 H 0.42958 0.98974 0.99932 0.0
H2602 H 0.46405 0.91023 0.97933 0.0
H2603 H 0.45781 0.94357 0.98536 0.0
C2604 C 0.93216 0.41384 0.01902 0.0
C2605 C 0.91919 0.40281 0.00981 0.0
C2606 C 0.95775 0.42932 0.0188 0.0
C2607 C 0.01336 0.45718 0.00149 0.0
H2608 H 0.02454 0.5179 0.01476 0.0
C2609 C 0.0814 0.55327 0.9856 0.0
C2610 C 0.09494 0.5729 0.99256 0.0
C2611 C 0.06371 0.53007 0.9893 0.0
C2612 C 0.02207 0.50105 0.0112 0.0
H2613 H 0.92248 0.39711 0.99338 0.0
H2614 H 0.96725 0.42508 0.99283 0.0
H2615 H 0.98725 0.47932 0.01868 0.0
H2616 H 0.10087 0.58363 0.00886 0.0
H2617 H 0.06966 0.54291 0.01536 0.0
H2618 H 0.04781 0.47951 0.99359 0.0
C2619 C 0.9579 0.42141 0.00029 0.0
C2620 C 0.00066 0.47881 0.01347 0.0
C2621 C 0.93227 0.40543 0.00057 0.0
C2622 C 0.09051 0.56888 0.00332 0.0
C2623 C 0.07275 0.54559 0.00703 0.0
C2624 C 0.03484 0.47952 0.99921 0.0
C2625 C 0.97065 0.4346 0.0093 0.0
C2626 C 0.99566 0.45675 0.0084 0.0
C2627 C 0.05917 0.52596 5e-05 0.0
C2628 C 0.03895 0.50178 0.00378 0.0
H2629 H 0.92231 0.41173 0.02626 0.0
H2630 H 0.96715 0.43865 0.02592 0.0
H2631 H 0.01018 0.44045 0.99757 0.0
H2632 H 0.08442 0.55578 0.97726 0.0
H2633 H 0.05317 0.51551 0.98371 0.0
C2634 C 0.44666 0.54986 0.99398 0.0
C2635 C 0.4249 0.52735 0.99586 0.0
C2636 C 0.46931 0.55384 0.99776 0.0
C2637 C 0.49818 0.52603 0.01463 0.0
H2638 H 0.55286 0.56064 0.99535 0.0
C2639 C 0.58429 0.51816 0.01992 0.0
C2640 C 0.59323 0.51334 0.01072 0.0
C2641 C 0.5689 0.5284 0.01949 0.0
C2642 C 0.53781 0.55082 0.00081 0.0
H2643 H 0.40918 0.49161 0.00338 0.0
H2644 H 0.44895 0.49767 0.00945 0.0
H2645 H 0.51431 0.55998 0.99218 0.0
H2646 H 0.59469 0.51659 0.99392 0.0
H2647 H 0.5667 0.53308 0.993 0.0
H2648 H 0.52072 0.51471 0.02266 0.0
C2649 C 0.44866 0.51278 0.00541 0.0
C2650 C 0.51569 0.55079 0.9991 0.0
C2651 C 0.42584 0.50912 0.00188 0.0
C2652 C 0.58816 0.5205 0.00111 0.0
C2653 C 0.57211 0.53002 0.00063 0.0
C2654 C 0.52007 0.52554 0.01619 0.0
C2655 C 0.47078 0.53504 0.00321 0.0
C2656 C 0.49532 0.53783 0.00583 0.0
C2657 C 0.56135 0.53302 0.0098 0.0
C2658 C 0.53997 0.53736 0.00914 0.0
H2659 H 0.44617 0.56434 0.98949 0.0
H2660 H 0.48571 0.5715 0.99619 0.0
H2661 H 0.48321 0.51641 0.02015 0.0
H2662 H 0.58818 0.5128 0.02742 0.0
H2663 H 0.56176 0.53128 0.02673 0.0
loop_
_geom_bond_atom_site_label_1
_geom_bond_atom_site_label_2
_geom_bond_distance
_geom_bond_site_symmetry_2
_ccdc_geom_bond_type
Co0 O1 2.216 . S
Co0 O2 2.091 . S
Co0 O4 2.004 . S
Co0 O10 2.021 . S
Co0 O12 2.137 . S
Co0 O13 2.244 . S
O1 Co0 2.216 . S
O1 C8 1.247 . S
O2 Co0 2.091 . S
O2 C8 1.261 . S
C3 O12 1.247 . S
C3 O13 1.272 . S
O4 Co0 2.004 . S
O4 C9 1.259 . S
Co5 O6 2.061 . S
Co5 O11 2.052 . S
Co5 O13 2.135 . S
O6 Co5 2.061 . S
O6 C9 1.235 . S
C7 O10 1.238 . S
C7 O11 1.241 . S
C8 O1 1.247 . S
C8 O2 1.261 . S
C9 O4 1.259 . S
C9 O6 1.235 . S
O10 Co0 2.021 . S
O10 C7 1.238 . S
O11 Co5 2.052 . S
O11 C7 1.241 . S
O12 Co0 2.137 . S
O12 C3 1.247 . S
O13 Co0 2.244 . S
O13 C3 1.272 . S
O13 Co5 2.135 . S
Co14 O15 2.216 . S
Co14 O16 2.091 . S
Co14 O18 2.004 1_545 S
Co14 O24 2.021 . S
Co14 O26 2.137 . S
Co14 O27 2.244 . S
O15 Co14 2.216 . S
O15 C22 1.247 . S
O16 Co14 2.091 . S
O16 C22 1.261 . S
C17 O26 1.247 . S
C17 O27 1.272 . S
O18 Co14 2.004 1_565 S
O18 C23 1.259 . S
Co19 O20 2.061 1_545 S
Co19 O25 2.052 . S
Co19 O27 2.135 . S
O20 Co19 2.061 1_565 S
O20 C23 1.235 . S
C21 O24 1.238 . S
C21 O25 1.241 . S
C22 O15 1.247 . S
C22 O16 1.261 . S
C23 O18 1.259 . S
C23 O20 1.235 . S
O24 Co14 2.021 . S
O24 C21 1.238 . S
O25 Co19 2.052 . S
O25 C21 1.241 . S
O26 Co14 2.137 . S
O26 C17 1.247 . S
O27 Co14 2.244 . S
O27 C17 1.272 . S
O27 Co19 2.135 . S
Co28 O29 2.216 . S
Co28 O30 2.091 . S
Co28 O32 2.004 1_655 S
Co28 O38 2.021 . S
Co28 O40 2.137 . S
Co28 O41 2.244 . S
O29 Co28 2.216 . S
O29 C36 1.247 . S
O30 Co28 2.091 . S
O30 C36 1.261 . S
C31 O40 1.247 . S
C31 O41 1.272 . S
O32 Co28 2.004 1_455 S
O32 C37 1.259 . S
Co33 O34 2.061 1_655 S
Co33 O39 2.052 . S
Co33 O41 2.135 . S
O34 Co33 2.061 1_455 S
O34 C37 1.235 . S
C35 O38 1.238 . S
C35 O39 1.241 . S
C36 O29 1.247 . S
C36 O30 1.261 . S
C37 O32 1.259 . S
C37 O34 1.235 . S
O38 Co28 2.021 . S
O38 C35 1.238 . S
O39 Co33 2.052 . S
O39 C35 1.241 . S
O40 Co28 2.137 . S
O40 C31 1.247 . S
O41 Co28 2.244 . S
O41 C31 1.272 . S
O41 Co33 2.135 . S
Co42 O43 2.216 . S
Co42 O44 2.091 . S
Co42 O46 2.004 . S
Co42 O52 2.021 . S
Co42 O54 2.137 . S
Co42 O55 2.244 . S
O43 Co42 2.216 . S
O43 C50 1.247 . S
O44 Co42 2.091 . S
O44 C50 1.261 . S
C45 O54 1.247 . S
C45 O55 1.272 . S
O46 Co42 2.004 . S
O46 C51 1.259 . S
Co47 O48 2.061 . S
Co47 O53 2.052 . S
Co47 O55 2.135 . S
O48 Co47 2.061 . S
O48 C51 1.235 . S
C49 O52 1.238 . S
C49 O53 1.241 . S
C50 O43 1.247 . S
C50 O44 1.261 . S
C51 O46 1.259 . S
C51 O48 1.235 . S
O52 Co42 2.021 . S
O52 C49 1.238 . S
O53 Co47 2.052 . S
O53 C49 1.241 . S
O54 Co42 2.137 . S
O54 C45 1.247 . S
O55 Co42 2.244 . S
O55 C45 1.272 . S
O55 Co47 2.135 . S
Co56 O57 2.216 . S
Co56 O58 2.091 . S
Co56 O60 2.004 1_565 S
Co56 O66 2.021 . S
Co56 O68 2.137 . S
Co56 O69 2.244 . S
O57 Co56 2.216 . S
O57 C64 1.247 . S
O58 Co56 2.091 . S
O58 C64 1.261 . S
C59 O68 1.247 . S
C59 O69 1.272 . S
O60 Co56 2.004 1_545 S
O60 C65 1.259 . S
Co61 O62 2.061 1_565 S
Co61 O67 2.052 . S
Co61 O69 2.135 . S
O62 Co61 2.061 1_545 S
O62 C65 1.235 . S
C63 O66 1.238 . S
C63 O67 1.241 . S
C64 O57 1.247 . S
C64 O58 1.261 . S
C65 O60 1.259 . S
C65 O62 1.235 . S
O66 Co56 2.021 . S
O66 C63 1.238 . S
O67 Co61 2.052 . S
O67 C63 1.241 . S
O68 Co56 2.137 . S
O68 C59 1.247 . S
O69 Co56 2.244 . S
O69 C59 1.272 . S
O69 Co61 2.135 . S
Co70 O71 2.216 . S
Co70 O72 2.091 . S
Co70 O74 2.004 1_455 S
Co70 O80 2.021 . S
Co70 O82 2.137 . S
Co70 O83 2.244 . S
O71 Co70 2.216 . S
O71 C78 1.247 . S
O72 Co70 2.091 . S
O72 C78 1.261 . S
C73 O82 1.247 . S
C73 O83 1.272 . S
O74 Co70 2.004 1_655 S
O74 C79 1.259 . S
Co75 O76 2.061 1_455 S
Co75 O81 2.052 . S
Co75 O83 2.135 . S
O76 Co75 2.061 1_655 S
O76 C79 1.235 . S
C77 O80 1.238 . S
C77 O81 1.241 . S
C78 O71 1.247 . S
C78 O72 1.261 . S
C79 O74 1.259 . S
C79 O76 1.235 . S
O80 Co70 2.021 . S
O80 C77 1.238 . S
O81 Co75 2.052 . S
O81 C77 1.241 . S
O82 Co70 2.137 . S
O82 C73 1.247 . S
O83 Co70 2.244 . S
O83 C73 1.272 . S
O83 Co75 2.135 . S
Co84 O85 2.216 . S
Co84 O86 2.091 . S
Co84 O88 2.004 . S
Co84 O94 2.021 . S
Co84 O96 2.137 . S
Co84 O97 2.244 . S
O85 Co84 2.216 . S
O85 C92 1.247 . S
O86 Co84 2.091 . S
O86 C92 1.261 . S
C87 O96 1.247 . S
C87 O97 1.272 . S
O88 Co84 2.004 . S
O88 C93 1.259 . S
Co89 O90 2.061 . S
Co89 O95 2.052 . S
Co89 O97 2.135 . S
O90 Co89 2.061 . S
O90 C93 1.235 . S
C91 O94 1.238 . S
C91 O95 1.241 . S
C92 O85 1.247 . S
C92 O86 1.261 . S
C93 O88 1.259 . S
C93 O90 1.235 . S
O94 Co84 2.021 . S
O94 C91 1.238 . S
O95 Co89 2.052 . S
O95 C91 1.241 . S
O96 Co84 2.137 . S
O96 C87 1.247 . S
O97 Co84 2.244 . S
O97 C87 1.272 . S
O97 Co89 2.135 . S
Co98 O99 2.216 . S
Co98 O100 2.091 . S
Co98 O102 2.004 1_565 S
Co98 O108 2.021 . S
Co98 O110 2.137 . S
Co98 O111 2.244 . S
O99 Co98 2.216 . S
O99 C106 1.247 . S
O100 Co98 2.091 . S
O100 C106 1.261 . S
C101 O110 1.247 . S
C101 O111 1.272 . S
O102 Co98 2.004 1_545 S
O102 C107 1.259 . S
Co103 O104 2.061 1_565 S
Co103 O109 2.052 . S
Co103 O111 2.135 . S
O104 Co103 2.061 1_545 S
O104 C107 1.235 . S
C105 O108 1.238 . S
C105 O109 1.241 . S
C106 O99 1.247 . S
C106 O100 1.261 . S
C107 O102 1.259 . S
C107 O104 1.235 . S
O108 Co98 2.021 . S
O108 C105 1.238 . S
O109 Co103 2.052 . S
O109 C105 1.241 . S
O110 Co98 2.137 . S
O110 C101 1.247 . S
O111 Co98 2.244 . S
O111 C101 1.272 . S
O111 Co103 2.135 . S
Co112 O113 2.216 . S
Co112 O114 2.091 . S
Co112 O116 2.004 1_455 S
Co112 O122 2.021 . S
Co112 O124 2.137 . S
Co112 O125 2.244 . S
O113 Co112 2.216 . S
O113 C120 1.247 . S
O114 Co112 2.091 . S
O114 C120 1.261 . S
C115 O124 1.247 . S
C115 O125 1.272 . S
O116 Co112 2.004 1_655 S
O116 C121 1.259 . S
Co117 O118 2.061 1_455 S
Co117 O123 2.052 . S
Co117 O125 2.135 . S
O118 Co117 2.061 1_655 S
O118 C121 1.235 . S
C119 O122 1.238 . S
C119 O123 1.241 . S
C120 O113 1.247 . S
C120 O114 1.261 . S
C121 O116 1.259 . S
C121 O118 1.235 . S
O122 Co112 2.021 . S
O122 C119 1.238 . S
O123 Co117 2.052 . S
O123 C119 1.241 . S
O124 Co112 2.137 . S
O124 C115 1.247 . S
O125 Co112 2.244 . S
O125 C115 1.272 . S
O125 Co117 2.135 . S
Co126 O127 2.216 . S
Co126 O128 2.091 . S
Co126 O130 2.004 . S
Co126 O136 2.021 . S
Co126 O138 2.137 . S
Co126 O139 2.244 . S
O127 Co126 2.216 . S
O127 C134 1.247 . S
O128 Co126 2.091 . S
O128 C134 1.261 . S
C129 O138 1.247 . S
C129 O139 1.272 . S
O130 Co126 2.004 . S
O130 C135 1.259 . S
Co131 O132 2.061 . S
Co131 O137 2.052 . S
Co131 O139 2.135 . S
O132 Co131 2.061 . S
O132 C135 1.235 . S
C133 O136 1.238 . S
C133 O137 1.241 . S
C134 O127 1.247 . S
C134 O128 1.261 . S
C135 O130 1.259 . S
C135 O132 1.235 . S
O136 Co126 2.021 . S
O136 C133 1.238 . S
O137 Co131 2.052 . S
O137 C133 1.241 . S
O138 Co126 2.137 . S
O138 C129 1.247 . S
O139 Co126 2.244 . S
O139 C129 1.272 . S
O139 Co131 2.135 . S
Co140 O141 2.216 . S
Co140 O142 2.091 . S
Co140 O144 2.004 1_545 S
Co140 O150 2.021 . S
Co140 O152 2.137 . S
Co140 O153 2.244 . S
O141 Co140 2.216 . S
O141 C148 1.247 . S
O142 Co140 2.091 . S
O142 C148 1.261 . S
C143 O152 1.247 . S
C143 O153 1.272 . S
O144 Co140 2.004 1_565 S
O144 C149 1.259 . S
Co145 O146 2.061 1_545 S
Co145 O151 2.052 . S
Co145 O153 2.135 . S
O146 Co145 2.061 1_565 S
O146 C149 1.235 . S
C147 O150 1.238 . S
C147 O151 1.241 . S
C148 O141 1.247 . S
C148 O142 1.261 . S
C149 O144 1.259 . S
C149 O146 1.235 . S
O150 Co140 2.021 . S
O150 C147 1.238 . S
O151 Co145 2.052 . S
O151 C147 1.241 . S
O152 Co140 2.137 . S
O152 C143 1.247 . S
O153 Co140 2.244 . S
O153 C143 1.272 . S
O153 Co145 2.135 . S
Co154 O155 2.216 . S
Co154 O156 2.091 . S
Co154 O158 2.004 1_655 S
Co154 O164 2.021 . S
Co154 O166 2.137 . S
Co154 O167 2.244 . S
O155 Co154 2.216 . S
O155 C162 1.247 . S
O156 Co154 2.091 . S
O156 C162 1.261 . S
C157 O166 1.247 . S
C157 O167 1.272 . S
O158 Co154 2.004 1_455 S
O158 C163 1.259 . S
Co159 O160 2.061 1_655 S
Co159 O165 2.052 . S
Co159 O167 2.135 . S
O160 Co159 2.061 1_455 S
O160 C163 1.235 . S
C161 O164 1.238 . S
C161 O165 1.241 . S
C162 O155 1.247 . S
C162 O156 1.261 . S
C163 O158 1.259 . S
C163 O160 1.235 . S
O164 Co154 2.021 . S
O164 C161 1.238 . S
O165 Co159 2.052 . S
O165 C161 1.241 . S
O166 Co154 2.137 . S
O166 C157 1.247 . S
O167 Co154 2.244 . S
O167 C157 1.272 . S
O167 Co159 2.135 . S
Co168 O169 2.216 . S
Co168 O170 2.091 . S
Co168 O172 2.004 . S
Co168 O178 2.021 . S
Co168 O180 2.137 . S
Co168 O181 2.244 . S
O169 Co168 2.216 . S
O169 C176 1.247 . S
O170 Co168 2.091 . S
O170 C176 1.261 . S
C171 O180 1.247 . S
C171 O181 1.272 . S
O172 Co168 2.004 . S
O172 C177 1.259 . S
Co173 O174 2.061 . S
Co173 O179 2.052 . S
Co173 O181 2.135 . S
O174 Co173 2.061 . S
O174 C177 1.235 . S
C175 O178 1.238 . S
C175 O179 1.241 . S
C176 O169 1.247 . S
C176 O170 1.261 . S
C177 O172 1.259 . S
C177 O174 1.235 . S
O178 Co168 2.021 . S
O178 C175 1.238 . S
O179 Co173 2.052 . S
O179 C175 1.241 . S
O180 Co168 2.137 . S
O180 C171 1.247 . S
O181 Co168 2.244 . S
O181 C171 1.272 . S
O181 Co173 2.135 . S
Co182 O183 2.216 . S
Co182 O184 2.091 . S
Co182 O186 2.004 . S
Co182 O192 2.021 . S
Co182 O194 2.137 . S
Co182 O195 2.244 . S
O183 Co182 2.216 . S
O183 C190 1.247 . S
O184 Co182 2.091 . S
O184 C190 1.261 . S
C185 O194 1.247 . S
C185 O195 1.272 . S
O186 Co182 2.004 . S
O186 C191 1.259 . S
Co187 O188 2.061 . S
Co187 O193 2.052 . S
Co187 O195 2.135 . S
O188 Co187 2.061 . S
O188 C191 1.235 . S
C189 O192 1.238 . S
C189 O193 1.241 . S
C190 O183 1.247 . S
C190 O184 1.261 . S
C191 O186 1.259 . S
C191 O188 1.235 . S
O192 Co182 2.021 . S
O192 C189 1.238 . S
O193 Co187 2.052 . S
O193 C189 1.241 . S
O194 Co182 2.137 . S
O194 C185 1.247 . S
O195 Co182 2.244 . S
O195 C185 1.272 . S
O195 Co187 2.135 . S
Co196 O197 2.216 . S
Co196 O198 2.091 . S
Co196 O200 2.004 . S
Co196 O206 2.021 . S
Co196 O208 2.137 . S
Co196 O209 2.244 . S
O197 Co196 2.216 . S
O197 C204 1.247 . S
O198 Co196 2.091 . S
O198 C204 1.261 . S
C199 O208 1.247 . S
C199 O209 1.272 . S
O200 Co196 2.004 . S
O200 C205 1.259 . S
Co201 O202 2.061 . S
Co201 O207 2.052 . S
Co201 O209 2.135 . S
O202 Co201 2.061 . S
O202 C205 1.235 . S
C203 O206 1.238 . S
C203 O207 1.241 . S
C204 O197 1.247 . S
C204 O198 1.261 . S
C205 O200 1.259 . S
C205 O202 1.235 . S
O206 Co196 2.021 . S
O206 C203 1.238 . S
O207 Co201 2.052 . S
O207 C203 1.241 . S
O208 Co196 2.137 . S
O208 C199 1.247 . S
O209 Co196 2.244 . S
O209 C199 1.272 . S
O209 Co201 2.135 . S
Co210 O211 2.216 . S
Co210 O212 2.091 . S
Co210 O214 2.004 . S
Co210 O220 2.021 . S
Co210 O222 2.137 . S
Co210 O223 2.244 . S
O211 Co210 2.216 . S
O211 C218 1.247 . S
O212 Co210 2.091 . S
O212 C218 1.261 . S
C213 O222 1.247 . S
C213 O223 1.272 . S
O214 Co210 2.004 . S
O214 C219 1.259 . S
Co215 O216 2.061 . S
Co215 O221 2.052 . S
Co215 O223 2.135 . S
O216 Co215 2.061 . S
O216 C219 1.235 . S
C217 O220 1.238 . S
C217 O221 1.241 . S
C218 O211 1.247 . S
C218 O212 1.261 . S
C219 O214 1.259 . S
C219 O216 1.235 . S
O220 Co210 2.021 . S
O220 C217 1.238 . S
O221 Co215 2.052 . S
O221 C217 1.241 . S
O222 Co210 2.137 . S
O222 C213 1.247 . S
O223 Co210 2.244 . S
O223 C213 1.272 . S
O223 Co215 2.135 . S
Co224 O225 2.216 . S
Co224 O226 2.091 . S
Co224 O228 2.004 . S
Co224 O234 2.021 . S
Co224 O236 2.137 . S
Co224 O237 2.244 . S
O225 Co224 2.216 . S
O225 C232 1.247 . S
O226 Co224 2.091 . S
O226 C232 1.261 . S
C227 O236 1.247 . S
C227 O237 1.272 . S
O228 Co224 2.004 . S
O228 C233 1.259 . S
Co229 O230 2.061 . S
Co229 O235 2.052 . S
Co229 O237 2.135 . S
O230 Co229 2.061 . S
O230 C233 1.235 . S
C231 O234 1.238 . S
C231 O235 1.241 . S
C232 O225 1.247 . S
C232 O226 1.261 . S
C233 O228 1.259 . S
C233 O230 1.235 . S
O234 Co224 2.021 . S
O234 C231 1.238 . S
O235 Co229 2.052 . S
O235 C231 1.241 . S
O236 Co224 2.137 . S
O236 C227 1.247 . S
O237 Co224 2.244 . S
O237 C227 1.272 . S
O237 Co229 2.135 . S
Co238 O239 2.216 . S
Co238 O240 2.091 . S
Co238 O242 2.004 . S
Co238 O248 2.021 . S
Co238 O250 2.137 . S
Co238 O251 2.244 . S
O239 Co238 2.216 . S
O239 C246 1.247 . S
O240 Co238 2.091 . S
O240 C246 1.261 . S
C241 O250 1.247 . S
C241 O251 1.272 . S
O242 Co238 2.004 . S
O242 C247 1.259 . S
Co243 O244 2.061 . S
Co243 O249 2.052 . S
Co243 O251 2.135 . S
O244 Co243 2.061 . S
O244 C247 1.235 . S
C245 O248 1.238 . S
C245 O249 1.241 . S
C246 O239 1.247 . S
C246 O240 1.261 . S
C247 O242 1.259 . S
C247 O244 1.235 . S
O248 Co238 2.021 . S
O248 C245 1.238 . S
O249 Co243 2.052 . S
O249 C245 1.241 . S
O250 Co238 2.137 . S
O250 C241 1.247 . S
O251 Co238 2.244 . S
O251 C241 1.272 . S
O251 Co243 2.135 . S
Co252 O253 2.216 . S
Co252 O254 2.091 . S
Co252 O256 2.004 . S
Co252 O262 2.021 . S
Co252 O264 2.137 . S
Co252 O265 2.244 . S
O253 Co252 2.216 . S
O253 C260 1.247 . S
O254 Co252 2.091 . S
O254 C260 1.261 . S
C255 O264 1.247 . S
C255 O265 1.272 . S
O256 Co252 2.004 . S
O256 C261 1.259 . S
Co257 O258 2.061 . S
Co257 O263 2.052 . S
Co257 O265 2.135 . S
O258 Co257 2.061 . S
O258 C261 1.235 . S
C259 O262 1.238 . S
C259 O263 1.241 . S
C260 O253 1.247 . S
C260 O254 1.261 . S
C261 O256 1.259 . S
C261 O258 1.235 . S
O262 Co252 2.021 . S
O262 C259 1.238 . S
O263 Co257 2.052 . S
O263 C259 1.241 . S
O264 Co252 2.137 . S
O264 C255 1.247 . S
O265 Co252 2.244 . S
O265 C255 1.272 . S
O265 Co257 2.135 . S
Co266 O267 2.216 . S
Co266 O268 2.091 . S
Co266 O270 2.004 . S
Co266 O276 2.021 . S
Co266 O278 2.137 . S
Co266 O279 2.244 . S
O267 Co266 2.216 . S
O267 C274 1.247 . S
O268 Co266 2.091 . S
O268 C274 1.261 . S
C269 O278 1.247 . S
C269 O279 1.272 . S
O270 Co266 2.004 . S
O270 C275 1.259 . S
Co271 O272 2.061 . S
Co271 O277 2.052 . S
Co271 O279 2.135 . S
O272 Co271 2.061 . S
O272 C275 1.235 . S
C273 O276 1.238 . S
C273 O277 1.241 . S
C274 O267 1.247 . S
C274 O268 1.261 . S
C275 O270 1.259 . S
C275 O272 1.235 . S
O276 Co266 2.021 . S
O276 C273 1.238 . S
O277 Co271 2.052 . S
O277 C273 1.241 . S
O278 Co266 2.137 . S
O278 C269 1.247 . S
O279 Co266 2.244 . S
O279 C269 1.272 . S
O279 Co271 2.135 . S
Co280 O281 2.216 . S
Co280 O282 2.091 . S
Co280 O284 2.004 . S
Co280 O290 2.021 . S
Co280 O292 2.137 . S
Co280 O293 2.244 . S
O281 Co280 2.216 . S
O281 C288 1.247 . S
O282 Co280 2.091 . S
O282 C288 1.261 . S
C283 O292 1.247 . S
C283 O293 1.272 . S
O284 Co280 2.004 . S
O284 C289 1.259 . S
Co285 O286 2.061 . S
Co285 O291 2.052 . S
Co285 O293 2.135 . S
O286 Co285 2.061 . S
O286 C289 1.235 . S
C287 O290 1.238 . S
C287 O291 1.241 . S
C288 O281 1.247 . S
C288 O282 1.261 . S
C289 O284 1.259 . S
C289 O286 1.235 . S
O290 Co280 2.021 . S
O290 C287 1.238 . S
O291 Co285 2.052 . S
O291 C287 1.241 . S
O292 Co280 2.137 . S
O292 C283 1.247 . S
O293 Co280 2.244 . S
O293 C283 1.272 . S
O293 Co285 2.135 . S
Co294 O295 2.216 . S
Co294 O296 2.091 1_554 S
Co294 O298 2.004 1_554 S
Co294 O304 2.021 . S
Co294 O306 2.137 1_554 S
Co294 O307 2.244 . S
O295 Co294 2.216 . S
O295 C302 1.298 . S
O296 Co294 2.091 1_556 S
O296 C302 1.230 1_556 S
C297 O306 1.247 1_554 S
C297 O307 1.272 . S
O298 Co294 2.004 1_556 S
O298 C303 1.259 1_556 S
Co299 O300 2.061 . S
Co299 O305 2.052 . S
Co299 O307 2.135 . S
O300 Co299 2.061 . S
O300 C303 1.235 . S
C301 O304 1.238 . S
C301 O305 1.241 . S
C302 O295 1.298 . S
C302 O296 1.230 1_554 S
C303 O298 1.259 1_554 S
C303 O300 1.235 . S
O304 Co294 2.021 . S
O304 C301 1.238 . S
O305 Co299 2.052 . S
O305 C301 1.241 . S
O306 Co294 2.137 1_556 S
O306 C297 1.247 1_556 S
O307 Co294 2.244 . S
O307 C297 1.272 . S
O307 Co299 2.135 . S
Co308 O309 2.216 . S
Co308 O310 2.091 1_554 S
Co308 O312 2.004 1_554 S
Co308 O318 2.021 . S
Co308 O320 2.137 1_554 S
Co308 O321 2.244 . S
O309 Co308 2.216 . S
O309 C316 1.297 . S
O310 Co308 2.091 1_556 S
O310 C316 1.230 1_556 S
C311 O320 1.247 1_554 S
C311 O321 1.272 . S
O312 Co308 2.004 1_556 S
O312 C317 1.259 1_556 S
Co313 O314 2.061 . S
Co313 O319 2.052 . S
Co313 O321 2.135 . S
O314 Co313 2.061 . S
O314 C317 1.235 . S
C315 O318 1.238 . S
C315 O319 1.241 . S
C316 O309 1.297 . S
C316 O310 1.230 1_554 S
C317 O312 1.259 1_554 S
C317 O314 1.235 . S
O318 Co308 2.021 . S
O318 C315 1.238 . S
O319 Co313 2.052 . S
O319 C315 1.241 . S
O320 Co308 2.137 1_556 S
O320 C311 1.247 1_556 S
O321 Co308 2.244 . S
O321 C311 1.272 . S
O321 Co313 2.135 . S
Co322 O323 2.216 . S
Co322 O324 2.091 1_554 S
Co322 O326 2.004 1_554 S
Co322 O332 2.021 . S
Co322 O334 2.137 1_554 S
Co322 O335 2.244 . S
O323 Co322 2.216 . S
O323 C330 1.298 . S
O324 Co322 2.091 1_556 S
O324 C330 1.230 1_556 S
C325 O334 1.247 1_554 S
C325 O335 1.272 . S
O326 Co322 2.004 1_556 S
O326 C331 1.259 1_556 S
Co327 O328 2.061 . S
Co327 O333 2.052 . S
Co327 O335 2.135 . S
O328 Co327 2.061 . S
O328 C331 1.235 . S
C329 O332 1.238 . S
C329 O333 1.241 . S
C330 O323 1.298 . S
C330 O324 1.230 1_554 S
C331 O326 1.259 1_554 S
C331 O328 1.235 . S
O332 Co322 2.021 . S
O332 C329 1.238 . S
O333 Co327 2.052 . S
O333 C329 1.241 . S
O334 Co322 2.137 1_556 S
O334 C325 1.247 1_556 S
O335 Co322 2.244 . S
O335 C325 1.272 . S
O335 Co327 2.135 . S
Co336 O337 2.216 . S
Co336 O338 2.091 . S
Co336 O340 2.004 . S
Co336 O346 2.021 . S
Co336 O348 2.137 . S
Co336 O349 2.244 . S
O337 Co336 2.216 . S
O337 C344 1.247 . S
O338 Co336 2.091 . S
O338 C344 1.261 . S
C339 O348 1.247 . S
C339 O349 1.272 . S
O340 Co336 2.004 . S
O340 C345 1.259 . S
Co341 O342 2.061 . S
Co341 O347 2.052 . S
Co341 O349 2.135 . S
O342 Co341 2.061 . S
O342 C345 1.235 . S
C343 O346 1.238 . S
C343 O347 1.241 . S
C344 O337 1.247 . S
C344 O338 1.261 . S
C345 O340 1.259 . S
C345 O342 1.235 . S
O346 Co336 2.021 . S
O346 C343 1.238 . S
O347 Co341 2.052 . S
O347 C343 1.241 . S
O348 Co336 2.137 . S
O348 C339 1.247 . S
O349 Co336 2.244 . S
O349 C339 1.272 . S
O349 Co341 2.135 . S
Co350 O351 2.216 . S
Co350 O352 2.091 . S
Co350 O354 2.004 . S
Co350 O360 2.021 . S
Co350 O362 2.137 . S
Co350 O363 2.244 . S
O351 Co350 2.216 . S
O351 C358 1.247 . S
O352 Co350 2.091 . S
O352 C358 1.261 . S
C353 O362 1.247 . S
C353 O363 1.272 . S
O354 Co350 2.004 . S
O354 C359 1.259 . S
Co355 O356 2.061 . S
Co355 O361 2.052 . S
Co355 O363 2.135 . S
O356 Co355 2.061 . S
O356 C359 1.235 . S
C357 O360 1.238 . S
C357 O361 1.241 . S
C358 O351 1.247 . S
C358 O352 1.261 . S
C359 O354 1.259 . S
C359 O356 1.235 . S
O360 Co350 2.021 . S
O360 C357 1.238 . S
O361 Co355 2.052 . S
O361 C357 1.241 . S
O362 Co350 2.137 . S
O362 C353 1.247 . S
O363 Co350 2.244 . S
O363 C353 1.272 . S
O363 Co355 2.135 . S
Co364 O365 2.216 . S
Co364 O366 2.091 . S
Co364 O368 2.004 . S
Co364 O374 2.021 . S
Co364 O376 2.137 . S
Co364 O377 2.244 . S
O365 Co364 2.216 . S
O365 C372 1.247 . S
O366 Co364 2.091 . S
O366 C372 1.261 . S
C367 O376 1.247 . S
C367 O377 1.272 . S
O368 Co364 2.004 . S
O368 C373 1.259 . S
Co369 O370 2.061 . S
Co369 O375 2.052 . S
Co369 O377 2.135 . S
O370 Co369 2.061 . S
O370 C373 1.235 . S
C371 O374 1.238 . S
C371 O375 1.241 . S
C372 O365 1.247 . S
C372 O366 1.261 . S
C373 O368 1.259 . S
C373 O370 1.235 . S
O374 Co364 2.021 . S
O374 C371 1.238 . S
O375 Co369 2.052 . S
O375 C371 1.241 . S
O376 Co364 2.137 . S
O376 C367 1.247 . S
O377 Co364 2.244 . S
O377 C367 1.272 . S
O377 Co369 2.135 . S
Co378 O379 2.216 . S
Co378 O380 2.091 1_556 S
Co378 O382 2.004 . S
Co378 O388 2.021 . S
Co378 O390 2.137 . S
Co378 O391 2.244 . S
O379 Co378 2.216 . S
O379 C386 1.247 . S
O380 Co378 2.091 1_554 S
O380 C386 1.261 1_554 S
C381 O390 1.247 . S
C381 O391 1.272 . S
O382 Co378 2.004 . S
O382 C387 1.259 . S
Co383 O384 2.061 . S
Co383 O389 2.052 . S
Co383 O391 2.135 . S
O384 Co383 2.061 . S
O384 C387 1.235 . S
C385 O388 1.238 . S
C385 O389 1.241 . S
C386 O379 1.247 . S
C386 O380 1.261 1_556 S
C387 O382 1.259 . S
C387 O384 1.235 . S
O388 Co378 2.021 . S
O388 C385 1.238 . S
O389 Co383 2.052 . S
O389 C385 1.241 . S
O390 Co378 2.137 . S
O390 C381 1.247 . S
O391 Co378 2.244 . S
O391 C381 1.272 . S
O391 Co383 2.135 . S
Co392 O393 2.216 . S
Co392 O394 2.091 1_556 S
Co392 O396 2.004 . S
Co392 O402 2.021 . S
Co392 O404 2.137 . S
Co392 O405 2.244 . S
O393 Co392 2.216 . S
O393 C400 1.247 . S
O394 Co392 2.091 1_554 S
O394 C400 1.261 1_554 S
C395 O404 1.247 . S
C395 O405 1.272 . S
O396 Co392 2.004 . S
O396 C401 1.259 . S
Co397 O398 2.061 . S
Co397 O403 2.052 . S
Co397 O405 2.135 . S
O398 Co397 2.061 . S
O398 C401 1.235 . S
C399 O402 1.238 . S
C399 O403 1.241 . S
C400 O393 1.247 . S
C400 O394 1.261 1_556 S
C401 O396 1.259 . S
C401 O398 1.235 . S
O402 Co392 2.021 . S
O402 C399 1.238 . S
O403 Co397 2.052 . S
O403 C399 1.241 . S
O404 Co392 2.137 . S
O404 C395 1.247 . S
O405 Co392 2.244 . S
O405 C395 1.272 . S
O405 Co397 2.135 . S
Co406 O407 2.216 . S
Co406 O408 2.091 1_556 S
Co406 O410 2.004 . S
Co406 O416 2.021 . S
Co406 O418 2.137 . S
Co406 O419 2.244 . S
O407 Co406 2.216 . S
O407 C414 1.247 . S
O408 Co406 2.091 1_554 S
O408 C414 1.261 1_554 S
C409 O418 1.247 . S
C409 O419 1.272 . S
O410 Co406 2.004 . S
O410 C415 1.259 . S
Co411 O412 2.061 . S
Co411 O417 2.052 . S
Co411 O419 2.135 . S
O412 Co411 2.061 . S
O412 C415 1.235 . S
C413 O416 1.238 . S
C413 O417 1.241 . S
C414 O407 1.247 . S
C414 O408 1.261 1_556 S
C415 O410 1.259 . S
C415 O412 1.235 . S
O416 Co406 2.021 . S
O416 C413 1.238 . S
O417 Co411 2.052 . S
O417 C413 1.241 . S
O418 Co406 2.137 . S
O418 C409 1.247 . S
O419 Co406 2.244 . S
O419 C409 1.272 . S
O419 Co411 2.135 . S
Co420 O421 2.216 . S
Co420 O422 2.091 . S
Co420 O424 2.004 . S
Co420 O430 2.021 . S
Co420 O432 2.137 . S
Co420 O433 2.244 . S
O421 Co420 2.216 . S
O421 C428 1.247 . S
O422 Co420 2.091 . S
O422 C428 1.261 . S
C423 O432 1.247 . S
C423 O433 1.272 . S
O424 Co420 2.004 . S
O424 C429 1.259 . S
Co425 O426 2.061 . S
Co425 O431 2.052 . S
Co425 O433 2.135 . S
O426 Co425 2.061 . S
O426 C429 1.235 . S
C427 O430 1.238 . S
C427 O431 1.241 . S
C428 O421 1.247 . S
C428 O422 1.261 . S
C429 O424 1.259 . S
C429 O426 1.235 . S
O430 Co420 2.021 . S
O430 C427 1.238 . S
O431 Co425 2.052 . S
O431 C427 1.241 . S
O432 Co420 2.137 . S
O432 C423 1.247 . S
O433 Co420 2.244 . S
O433 C423 1.272 . S
O433 Co425 2.135 . S
Co434 O435 2.216 . S
Co434 O436 2.091 . S
Co434 O438 2.004 . S
Co434 O444 2.021 . S
Co434 O446 2.137 . S
Co434 O447 2.244 . S
O435 Co434 2.216 . S
O435 C442 1.247 . S
O436 Co434 2.091 . S
O436 C442 1.261 . S
C437 O446 1.247 . S
C437 O447 1.272 . S
O438 Co434 2.004 . S
O438 C443 1.259 . S
Co439 O440 2.061 . S
Co439 O445 2.052 . S
Co439 O447 2.135 . S
O440 Co439 2.061 . S
O440 C443 1.235 . S
C441 O444 1.238 . S
C441 O445 1.241 . S
C442 O435 1.247 . S
C442 O436 1.261 . S
C443 O438 1.259 . S
C443 O440 1.235 . S
O444 Co434 2.021 . S
O444 C441 1.238 . S
O445 Co439 2.052 . S
O445 C441 1.241 . S
O446 Co434 2.137 . S
O446 C437 1.247 . S
O447 Co434 2.244 . S
O447 C437 1.272 . S
O447 Co439 2.135 . S
Co448 O449 2.216 . S
Co448 O450 2.091 . S
Co448 O452 2.004 . S
Co448 O458 2.021 . S
Co448 O460 2.137 . S
Co448 O461 2.244 . S
O449 Co448 2.216 . S
O449 C456 1.247 . S
O450 Co448 2.091 . S
O450 C456 1.261 . S
C451 O460 1.247 . S
C451 O461 1.272 . S
O452 Co448 2.004 . S
O452 C457 1.259 . S
Co453 O454 2.061 . S
Co453 O459 2.052 . S
Co453 O461 2.135 . S
O454 Co453 2.061 . S
O454 C457 1.235 . S
C455 O458 1.238 . S
C455 O459 1.241 . S
C456 O449 1.247 . S
C456 O450 1.261 . S
C457 O452 1.259 . S
C457 O454 1.235 . S
O458 Co448 2.021 . S
O458 C455 1.238 . S
O459 Co453 2.052 . S
O459 C455 1.241 . S
O460 Co448 2.137 . S
O460 C451 1.247 . S
O461 Co448 2.244 . S
O461 C451 1.272 . S
O461 Co453 2.135 . S
Co462 O463 2.216 . S
Co462 O464 2.091 . S
Co462 O466 2.004 . S
Co462 O472 2.021 . S
Co462 O474 2.137 . S
Co462 O475 2.244 . S
O463 Co462 2.216 . S
O463 C470 1.247 . S
O464 Co462 2.091 . S
O464 C470 1.261 . S
C465 O474 1.247 . S
C465 O475 1.272 . S
O466 Co462 2.004 . S
O466 C471 1.259 . S
Co467 O468 2.061 . S
Co467 O473 2.052 . S
Co467 O475 2.135 . S
O468 Co467 2.061 . S
O468 C471 1.235 . S
C469 O472 1.238 . S
C469 O473 1.241 . S
C470 O463 1.247 . S
C470 O464 1.261 . S
C471 O466 1.259 . S
C471 O468 1.235 . S
O472 Co462 2.021 . S
O472 C469 1.238 . S
O473 Co467 2.052 . S
O473 C469 1.241 . S
O474 Co462 2.137 . S
O474 C465 1.247 . S
O475 Co462 2.244 . S
O475 C465 1.272 . S
O475 Co467 2.135 . S
Co476 O477 2.216 . S
Co476 O478 2.091 . S
Co476 O480 2.004 . S
Co476 O486 2.021 . S
Co476 O488 2.137 . S
Co476 O489 2.244 . S
O477 Co476 2.216 . S
O477 C484 1.247 . S
O478 Co476 2.091 . S
O478 C484 1.261 . S
C479 O488 1.247 . S
C479 O489 1.272 . S
O480 Co476 2.004 . S
O480 C485 1.259 . S
Co481 O482 2.061 . S
Co481 O487 2.052 . S
Co481 O489 2.135 . S
O482 Co481 2.061 . S
O482 C485 1.235 . S
C483 O486 1.238 . S
C483 O487 1.241 . S
C484 O477 1.247 . S
C484 O478 1.261 . S
C485 O480 1.259 . S
C485 O482 1.235 . S
O486 Co476 2.021 . S
O486 C483 1.238 . S
O487 Co481 2.052 . S
O487 C483 1.241 . S
O488 Co476 2.137 . S
O488 C479 1.247 . S
O489 Co476 2.244 . S
O489 C479 1.272 . S
O489 Co481 2.135 . S
Co490 O491 2.216 . S
Co490 O492 2.091 . S
Co490 O494 2.004 . S
Co490 O500 2.021 . S
Co490 O502 2.137 . S
Co490 O503 2.244 . S
O491 Co490 2.216 . S
O491 C498 1.247 . S
O492 Co490 2.091 . S
O492 C498 1.261 . S
C493 O502 1.247 . S
C493 O503 1.272 . S
O494 Co490 2.004 . S
O494 C499 1.259 . S
Co495 O496 2.061 . S
Co495 O501 2.052 . S
Co495 O503 2.135 . S
O496 Co495 2.061 . S
O496 C499 1.235 . S
C497 O500 1.238 . S
C497 O501 1.241 . S
C498 O491 1.247 . S
C498 O492 1.261 . S
C499 O494 1.259 . S
C499 O496 1.235 . S
O500 Co490 2.021 . S
O500 C497 1.238 . S
O501 Co495 2.052 . S
O501 C497 1.241 . S
O502 Co490 2.137 . S
O502 C493 1.247 . S
O503 Co490 2.244 . S
O503 C493 1.272 . S
O503 Co495 2.135 . S
C504 C505 1.349 . S
C504 C506 1.327 . S
C504 H529 0.950 . S
C505 C504 1.349 . S
C505 C521 1.349 . S
C506 C504 1.327 . S
C506 C525 1.429 . S
C506 H530 0.950 . S
C507 C524 1.577 . S
C507 C526 1.368 . S
C507 H531 0.949 . S
H508 C512 0.924 1_655 S
C509 C510 1.349 . S
C509 C511 1.327 . S
C509 H532 0.950 . S
C510 C509 1.349 . S
C510 C522 1.349 . S
C511 C509 1.327 . S
C511 C527 1.429 . S
C511 H533 0.950 . S
C512 H508 0.924 1_455 S
C512 C520 1.605 . S
C512 C528 1.366 1_455 S
H513 C521 0.950 . S
H514 C519 0.950 . S
H515 C520 0.949 . S
H516 C522 0.950 . S
H517 C523 0.950 . S
H518 C524 0.948 1_655 S
C519 H514 0.950 . S
C519 C521 1.327 . S
C519 C525 1.429 . S
C520 C512 1.605 . S
C520 H515 0.949 . S
C520 C526 1.368 . S
C521 C505 1.349 . S
C521 H513 0.950 . S
C521 C519 1.327 . S
C522 C510 1.349 . S
C522 H516 0.950 . S
C522 C523 1.327 . S
C523 H517 0.950 . S
C523 C522 1.327 . S
C523 C527 1.429 . S
C524 C507 1.577 . S
C524 H518 0.948 1_455 S
C524 C528 1.366 1_455 S
C525 C506 1.429 . S
C525 C519 1.429 . S
C525 C526 1.523 . S
C526 C507 1.368 . S
C526 C520 1.368 . S
C526 C525 1.523 . S
C527 C511 1.429 . S
C527 C523 1.429 . S
C527 C528 1.523 . S
C528 C512 1.366 1_655 S
C528 C524 1.366 1_655 S
C528 C527 1.523 . S
H529 C504 0.950 . S
H530 C506 0.950 . S
H531 C507 0.949 . S
H532 C509 0.950 . S
H533 C511 0.950 . S
C534 C535 1.349 . S
C534 C536 1.327 . S
C534 H559 0.950 . S
C535 C534 1.349 . S
C535 C551 1.349 . S
C536 C534 1.327 . S
C536 C555 1.429 . S
C536 H560 0.950 . S
C537 C554 1.574 . S
C537 C556 1.368 . S
C537 H561 0.949 . S
H538 C542 0.949 . S
C539 C540 1.349 . S
C539 C541 1.327 . S
C539 H562 0.950 . S
C540 C539 1.349 . S
C540 C552 1.349 . S
C541 C539 1.327 . S
C541 C557 1.429 . S
C541 H563 0.950 . S
C542 H538 0.949 . S
C542 C550 1.574 . S
C542 C558 1.368 . S
H543 C551 0.950 . S
H544 C549 0.950 . S
H545 C550 0.949 . S
H546 C552 0.950 . S
H547 C553 0.950 . S
H548 C554 0.949 . S
C549 H544 0.950 . S
C549 C551 1.327 . S
C549 C555 1.429 . S
C550 C542 1.574 . S
C550 H545 0.949 . S
C550 C556 1.368 . S
C551 C535 1.349 . S
C551 H543 0.950 . S
C551 C549 1.327 . S
C552 C540 1.349 . S
C552 H546 0.950 . S
C552 C553 1.327 . S
C553 H547 0.950 . S
C553 C552 1.327 . S
C553 C557 1.429 . S
C554 C537 1.574 . S
C554 H548 0.949 . S
C554 C558 1.368 . S
C555 C536 1.429 . S
C555 C549 1.429 . S
C555 C556 1.523 . S
C556 C537 1.368 . S
C556 C550 1.368 . S
C556 C555 1.523 . S
C557 C541 1.429 . S
C557 C553 1.429 . S
C557 C558 1.523 . S
C558 C542 1.368 . S
C558 C554 1.368 . S
C558 C557 1.523 . S
H559 C534 0.950 . S
H560 C536 0.950 . S
H561 C537 0.949 . S
H562 C539 0.950 . S
H563 C541 0.950 . S
C564 C565 1.349 . S
C564 C566 1.327 . S
C564 H589 0.950 . S
C565 C564 1.349 . S
C565 C581 1.349 . S
C566 C564 1.327 . S
C566 C585 1.429 . S
C566 H590 0.950 . S
C567 C584 1.572 1_545 S
C567 C586 1.369 . S
C567 H591 0.949 . S
H568 C572 0.949 . S
C569 C570 1.349 . S
C569 C571 1.327 . S
C569 H592 0.950 . S
C570 C569 1.349 . S
C570 C582 1.349 . S
C571 C569 1.327 . S
C571 C587 1.429 . S
C571 H593 0.950 . S
C572 H568 0.949 . S
C572 C580 1.576 1_565 S
C572 C588 1.368 . S
H573 C581 0.950 . S
H574 C579 0.950 . S
H575 C580 0.947 . S
H576 C582 0.950 . S
H577 C583 0.950 . S
H578 C584 0.949 . S
C579 H574 0.950 . S
C579 C581 1.327 . S
C579 C585 1.429 . S
C580 C572 1.576 1_545 S
C580 H575 0.947 . S
C580 C586 1.368 . S
C581 C565 1.349 . S
C581 H573 0.950 . S
C581 C579 1.327 . S
C582 C570 1.349 . S
C582 H576 0.950 . S
C582 C583 1.327 . S
C583 H577 0.950 . S
C583 C582 1.327 . S
C583 C587 1.429 . S
C584 C567 1.572 1_565 S
C584 H578 0.949 . S
C584 C588 1.368 . S
C585 C566 1.429 . S
C585 C579 1.429 . S
C585 C586 1.523 . S
C586 C567 1.369 . S
C586 C580 1.368 . S
C586 C585 1.523 . S
C587 C571 1.429 . S
C587 C583 1.429 . S
C587 C588 1.523 . S
C588 C572 1.368 . S
C588 C584 1.368 . S
C588 C587 1.523 . S
H589 C564 0.950 . S
H590 C566 0.950 . S
H591 C567 0.949 . S
H592 C569 0.950 . S
H593 C571 0.950 . S
C594 C595 1.349 . S
C594 C596 1.327 . S
C594 H619 0.950 . S
C595 C594 1.349 . S
C595 C611 1.349 . S
C596 C594 1.327 . S
C596 C615 1.429 . S
C596 H620 0.950 . S
C597 C614 1.574 . S
C597 C616 1.368 . S
C597 H621 0.949 . S
H598 C602 0.926 1_565 S
C599 C600 1.349 . S
C599 C601 1.327 . S
C599 H622 0.950 . S
C600 C599 1.349 . S
C600 C612 1.349 . S
C601 C599 1.327 . S
C601 C617 1.429 . S
C601 H623 0.950 . S
C602 H598 0.926 1_545 S
C602 C610 1.602 . S
C602 C618 1.366 1_545 S
H603 C611 0.950 . S
H604 C609 0.950 . S
H605 C610 0.949 . S
H606 C612 0.950 . S
H607 C613 0.950 . S
H608 C614 0.949 1_565 S
C609 H604 0.950 . S
C609 C611 1.327 . S
C609 C615 1.429 . S
C610 C602 1.602 . S
C610 H605 0.949 . S
C610 C616 1.368 . S
C611 C595 1.349 . S
C611 H603 0.950 . S
C611 C609 1.327 . S
C612 C600 1.349 . S
C612 H606 0.950 . S
C612 C613 1.327 . S
C613 H607 0.950 . S
C613 C612 1.327 . S
C613 C617 1.429 . S
C614 C597 1.574 . S
C614 H608 0.949 1_545 S
C614 C618 1.368 1_545 S
C615 C596 1.429 . S
C615 C609 1.429 . S
C615 C616 1.523 . S
C616 C597 1.368 . S
C616 C610 1.368 . S
C616 C615 1.523 . S
C617 C601 1.429 . S
C617 C613 1.429 . S
C617 C618 1.523 . S
C618 C602 1.366 1_565 S
C618 C614 1.368 1_565 S
C618 C617 1.523 . S
H619 C594 0.950 . S
H620 C596 0.950 . S
H621 C597 0.949 . S
H622 C599 0.950 . S
H623 C601 0.950 . S
C624 C625 1.349 . S
C624 C626 1.327 . S
C624 H649 0.950 . S
C625 C624 1.349 . S
C625 C641 1.349 . S
C626 C624 1.327 . S
C626 C645 1.429 . S
C626 H650 0.950 . S
C627 C644 1.558 1_655 S
C627 C646 1.368 . S
C627 H651 0.949 . S
H628 C632 0.949 1_455 S
C629 C630 1.349 . S
C629 C631 1.327 . S
C629 H652 0.950 . S
C630 C629 1.349 . S
C630 C642 1.349 . S
C631 C629 1.327 . S
C631 C647 1.429 . S
C631 H653 0.950 . S
C632 H628 0.949 1_655 S
C632 C640 1.576 . S
C632 C648 1.367 1_655 S
H633 C641 0.950 . S
H634 C639 0.950 . S
H635 C640 0.949 . S
H636 C642 0.950 . S
H637 C643 0.950 . S
H638 C644 0.962 . S
C639 H634 0.950 . S
C639 C641 1.327 . S
C639 C645 1.429 . S
C640 C632 1.576 . S
C640 H635 0.949 . S
C640 C646 1.368 . S
C641 C625 1.349 . S
C641 H633 0.950 . S
C641 C639 1.327 . S
C642 C630 1.349 . S
C642 H636 0.950 . S
C642 C643 1.327 . S
C643 H637 0.950 . S
C643 C642 1.327 . S
C643 C647 1.429 . S
C644 C627 1.558 1_455 S
C644 H638 0.962 . S
C644 C648 1.369 . S
C645 C626 1.429 . S
C645 C639 1.429 . S
C645 C646 1.523 . S
C646 C627 1.368 . S
C646 C640 1.368 . S
C646 C645 1.523 . S
C647 C631 1.429 . S
C647 C643 1.429 . S
C647 C648 1.523 . S
C648 C632 1.367 1_455 S
C648 C644 1.369 . S
C648 C647 1.523 . S
H649 C624 0.950 . S
H650 C626 0.950 . S
H651 C627 0.949 . S
H652 C629 0.950 . S
H653 C631 0.950 . S
C654 C655 1.349 . S
C654 C656 1.327 . S
C654 H679 0.950 . S
C655 C654 1.349 . S
C655 C671 1.349 . S
C656 C654 1.327 . S
C656 C675 1.429 . S
C656 H680 0.950 . S
C657 C674 1.574 . S
C657 C676 1.368 . S
C657 H681 0.949 . S
H658 C662 0.949 . S
C659 C660 1.349 . S
C659 C661 1.327 . S
C659 H682 0.950 . S
C660 C659 1.349 . S
C660 C672 1.349 . S
C661 C659 1.327 . S
C661 C677 1.429 . S
C661 H683 0.950 . S
C662 H658 0.949 . S
C662 C670 1.574 . S
C662 C678 1.368 . S
H663 C671 0.950 . S
H664 C669 0.950 . S
H665 C670 0.949 . S
H666 C672 0.950 . S
H667 C673 0.950 . S
H668 C674 0.949 . S
C669 H664 0.950 . S
C669 C671 1.327 . S
C669 C675 1.429 . S
C670 C662 1.574 . S
C670 H665 0.949 . S
C670 C676 1.368 . S
C671 C655 1.349 . S
C671 H663 0.950 . S
C671 C669 1.327 . S
C672 C660 1.349 . S
C672 H666 0.950 . S
C672 C673 1.327 . S
C673 H667 0.950 . S
C673 C672 1.327 . S
C673 C677 1.429 . S
C674 C657 1.574 . S
C674 H668 0.949 . S
C674 C678 1.368 . S
C675 C656 1.429 . S
C675 C669 1.429 . S
C675 C676 1.523 . S
C676 C657 1.368 . S
C676 C670 1.368 . S
C676 C675 1.523 . S
C677 C661 1.429 . S
C677 C673 1.429 . S
C677 C678 1.523 . S
C678 C662 1.368 . S
C678 C674 1.368 . S
C678 C677 1.523 . S
H679 C654 0.950 . S
H680 C656 0.950 . S
H681 C657 0.949 . S
H682 C659 0.950 . S
H683 C661 0.950 . S
C684 C685 1.349 . S
C684 C686 1.327 . S
C684 H709 0.950 . S
C685 C684 1.349 . S
C685 C701 1.349 . S
C686 C684 1.327 . S
C686 C705 1.429 . S
C686 H710 0.950 . S
C687 C704 1.574 1_655 S
C687 C706 1.368 . S
C687 H711 0.949 . S
H688 C692 0.956 . S
C689 C690 1.349 . S
C689 C691 1.327 . S
C689 H712 0.950 . S
C690 C689 1.349 . S
C690 C702 1.349 . S
C691 C689 1.327 . S
C691 C707 1.429 . S
C691 H713 0.950 . S
C692 H688 0.956 . S
C692 C700 1.551 1_455 S
C692 C708 1.384 . S
H693 C701 0.950 . S
H694 C699 0.950 . S
H695 C700 0.949 . S
H696 C702 0.950 . S
H697 C703 0.950 . S
H698 C704 0.949 . S
C699 H694 0.950 . S
C699 C701 1.327 . S
C699 C705 1.429 . S
C700 C692 1.551 1_655 S
C700 H695 0.949 . S
C700 C706 1.368 . S
C701 C685 1.349 . S
C701 H693 0.950 . S
C701 C699 1.327 . S
C702 C690 1.349 . S
C702 H696 0.950 . S
C702 C703 1.327 . S
C703 H697 0.950 . S
C703 C702 1.327 . S
C703 C707 1.429 . S
C704 C687 1.574 1_455 S
C704 H698 0.949 . S
C704 C708 1.368 . S
C705 C686 1.429 . S
C705 C699 1.429 . S
C705 C706 1.523 . S
C706 C687 1.368 . S
C706 C700 1.368 . S
C706 C705 1.523 . S
C707 C691 1.429 . S
C707 C703 1.429 . S
C707 C708 1.523 . S
C708 C692 1.384 . S
C708 C704 1.368 . S
C708 C707 1.523 . S
H709 C684 0.950 . S
H710 C686 0.950 . S
H711 C687 0.949 . S
H712 C689 0.950 . S
H713 C691 0.950 . S
C714 C715 1.349 . S
C714 C716 1.327 . S
C714 H739 0.950 . S
C715 C714 1.349 . S
C715 C731 1.349 . S
C716 C714 1.327 . S
C716 C735 1.429 . S
C716 H740 0.950 . S
C717 C734 1.574 . S
C717 C736 1.368 . S
C717 H741 0.949 . S
H718 C722 0.949 . S
C719 C720 1.349 . S
C719 C721 1.327 . S
C719 H742 0.950 . S
C720 C719 1.349 . S
C720 C732 1.349 . S
C721 C719 1.327 . S
C721 C737 1.429 . S
C721 H743 0.950 . S
C722 H718 0.949 . S
C722 C730 1.574 . S
C722 C738 1.368 . S
H723 C731 0.950 . S
H724 C729 0.950 . S
H725 C730 0.949 . S
H726 C732 0.950 . S
H727 C733 0.950 . S
H728 C734 0.949 . S
C729 H724 0.950 . S
C729 C731 1.327 . S
C729 C735 1.429 . S
C730 C722 1.574 . S
C730 H725 0.949 . S
C730 C736 1.368 . S
C731 C715 1.349 . S
C731 H723 0.950 . S
C731 C729 1.327 . S
C732 C720 1.349 . S
C732 H726 0.950 . S
C732 C733 1.327 . S
C733 H727 0.950 . S
C733 C732 1.327 . S
C733 C737 1.429 . S
C734 C717 1.574 . S
C734 H728 0.949 . S
C734 C738 1.368 . S
C735 C716 1.429 . S
C735 C729 1.429 . S
C735 C736 1.523 . S
C736 C717 1.368 . S
C736 C730 1.368 . S
C736 C735 1.523 . S
C737 C721 1.429 . S
C737 C733 1.429 . S
C737 C738 1.523 . S
C738 C722 1.368 . S
C738 C734 1.368 . S
C738 C737 1.523 . S
H739 C714 0.950 . S
H740 C716 0.950 . S
H741 C717 0.949 . S
H742 C719 0.950 . S
H743 C721 0.950 . S
C744 C745 1.349 . S
C744 C746 1.327 . S
C744 H769 0.950 . S
C745 C744 1.349 . S
C745 C761 1.349 . S
C746 C744 1.327 . S
C746 C765 1.429 . S
C746 H770 0.950 . S
C747 C764 1.564 1_565 S
C747 C766 1.375 . S
C747 H771 0.952 . S
H748 C752 0.949 . S
C749 C750 1.349 . S
C749 C751 1.327 . S
C749 H772 0.950 . S
C750 C749 1.349 . S
C750 C762 1.349 . S
C751 C749 1.327 . S
C751 C767 1.429 . S
C751 H773 0.950 . S
C752 H748 0.949 . S
C752 C760 1.543 1_545 S
C752 C768 1.368 . S
H753 C761 0.950 . S
H754 C759 0.950 . S
H755 C760 0.975 . S
H756 C762 0.950 . S
H757 C763 0.950 . S
H758 C764 0.949 . S
C759 H754 0.950 . S
C759 C761 1.327 . S
C759 C765 1.429 . S
C760 C752 1.543 1_565 S
C760 H755 0.975 . S
C760 C766 1.371 . S
C761 C745 1.349 . S
C761 H753 0.950 . S
C761 C759 1.327 . S
C762 C750 1.349 . S
C762 H756 0.950 . S
C762 C763 1.327 . S
C763 H757 0.950 . S
C763 C762 1.327 . S
C763 C767 1.429 . S
C764 C747 1.564 1_545 S
C764 H758 0.949 . S
C764 C768 1.368 . S
C765 C746 1.429 . S
C765 C759 1.429 . S
C765 C766 1.523 . S
C766 C747 1.375 . S
C766 C760 1.371 . S
C766 C765 1.523 . S
C767 C751 1.429 . S
C767 C763 1.429 . S
C767 C768 1.523 . S
C768 C752 1.368 . S
C768 C764 1.368 . S
C768 C767 1.523 . S
H769 C744 0.950 . S
H770 C746 0.950 . S
H771 C747 0.952 . S
H772 C749 0.950 . S
H773 C751 0.950 . S
C774 C775 1.349 . S
C774 C776 1.327 . S
C774 H799 0.950 . S
C775 C774 1.349 . S
C775 C791 1.349 . S
C776 C774 1.327 . S
C776 C795 1.429 . S
C776 H800 0.950 . S
C777 C794 1.532 1_545 S
C777 C796 1.398 . S
C777 H801 0.962 . S
H778 C782 0.949 . S
C779 C780 1.349 . S
C779 C781 1.327 . S
C779 H802 0.950 . S
C780 C779 1.349 . S
C780 C792 1.349 . S
C781 C779 1.327 . S
C781 C797 1.429 . S
C781 H803 0.950 . S
C782 H778 0.949 . S
C782 C790 1.551 1_565 S
C782 C798 1.368 . S
H783 C791 0.950 . S
H784 C789 0.950 . S
H785 C790 0.968 . S
H786 C792 0.950 . S
H787 C793 0.950 . S
H788 C794 0.949 . S
C789 H784 0.950 . S
C789 C791 1.327 . S
C789 C795 1.429 . S
C790 C782 1.551 1_545 S
C790 H785 0.968 . S
C790 C796 1.370 . S
C791 C775 1.349 . S
C791 H783 0.950 . S
C791 C789 1.327 . S
C792 C780 1.349 . S
C792 H786 0.950 . S
C792 C793 1.327 . S
C793 H787 0.950 . S
C793 C792 1.327 . S
C793 C797 1.429 . S
C794 C777 1.532 1_565 S
C794 H788 0.949 . S
C794 C798 1.368 . S
C795 C776 1.429 . S
C795 C789 1.429 . S
C795 C796 1.523 . S
C796 C777 1.398 . S
C796 C790 1.370 . S
C796 C795 1.523 . S
C797 C781 1.429 . S
C797 C793 1.429 . S
C797 C798 1.523 . S
C798 C782 1.368 . S
C798 C794 1.368 . S
C798 C797 1.523 . S
H799 C774 0.950 . S
H800 C776 0.950 . S
H801 C777 0.962 . S
H802 C779 0.950 . S
H803 C781 0.950 . S
C804 C805 1.349 . S
C804 C806 1.327 . S
C804 H829 0.950 . S
C805 C804 1.349 . S
C805 C821 1.349 . S
C806 C804 1.327 . S
C806 C825 1.429 . S
C806 H830 0.950 . S
C807 C824 1.574 1_455 S
C807 C826 1.368 . S
C807 H831 0.949 . S
H808 C812 0.958 . S
C809 C810 1.349 . S
C809 C811 1.327 . S
C809 H832 0.950 . S
C810 C809 1.349 . S
C810 C822 1.349 . S
C811 C809 1.327 . S
C811 C827 1.429 . S
C811 H833 0.950 . S
C812 H808 0.958 . S
C812 C820 1.545 1_655 S
C812 C828 1.388 . S
H813 C821 0.950 . S
H814 C819 0.950 . S
H815 C820 0.949 . S
H816 C822 0.950 . S
H817 C823 0.950 . S
H818 C824 0.949 . S
C819 H814 0.950 . S
C819 C821 1.327 . S
C819 C825 1.429 . S
C820 C812 1.545 1_455 S
C820 H815 0.949 . S
C820 C826 1.368 . S
C821 C805 1.349 . S
C821 H813 0.950 . S
C821 C819 1.327 . S
C822 C810 1.349 . S
C822 H816 0.950 . S
C822 C823 1.327 . S
C823 H817 0.950 . S
C823 C822 1.327 . S
C823 C827 1.429 . S
C824 C807 1.574 1_655 S
C824 H818 0.949 . S
C824 C828 1.368 . S
C825 C806 1.429 . S
C825 C819 1.429 . S
C825 C826 1.523 . S
C826 C807 1.368 . S
C826 C820 1.368 . S
C826 C825 1.523 . S
C827 C811 1.429 . S
C827 C823 1.429 . S
C827 C828 1.523 . S
C828 C812 1.388 . S
C828 C824 1.368 . S
C828 C827 1.523 . S
H829 C804 0.950 . S
H830 C806 0.950 . S
H831 C807 0.949 . S
H832 C809 0.950 . S
H833 C811 0.950 . S
C834 C835 1.349 . S
C834 C836 1.327 . S
C834 H859 0.950 . S
C835 C834 1.349 . S
C835 C851 1.349 . S
C836 C834 1.327 . S
C836 C855 1.429 . S
C836 H860 0.950 . S
C837 C854 1.574 . S
C837 C856 1.368 . S
C837 H861 0.949 . S
H838 C842 0.949 . S
C839 C840 1.349 . S
C839 C841 1.327 . S
C839 H862 0.950 . S
C840 C839 1.349 . S
C840 C852 1.349 . S
C841 C839 1.327 . S
C841 C857 1.429 . S
C841 H863 0.950 . S
C842 H838 0.949 . S
C842 C850 1.574 . S
C842 C858 1.368 . S
H843 C851 0.950 . S
H844 C849 0.950 . S
H845 C850 0.949 . S
H846 C852 0.950 . S
H847 C853 0.950 . S
H848 C854 0.949 . S
C849 H844 0.950 . S
C849 C851 1.327 . S
C849 C855 1.429 . S
C850 C842 1.574 . S
C850 H845 0.949 . S
C850 C856 1.368 . S
C851 C835 1.349 . S
C851 H843 0.950 . S
C851 C849 1.327 . S
C852 C840 1.349 . S
C852 H846 0.950 . S
C852 C853 1.327 . S
C853 H847 0.950 . S
C853 C852 1.327 . S
C853 C857 1.429 . S
C854 C837 1.574 . S
C854 H848 0.949 . S
C854 C858 1.368 . S
C855 C836 1.429 . S
C855 C849 1.429 . S
C855 C856 1.523 . S
C856 C837 1.368 . S
C856 C850 1.368 . S
C856 C855 1.523 . S
C857 C841 1.429 . S
C857 C853 1.429 . S
C857 C858 1.523 . S
C858 C842 1.368 . S
C858 C854 1.368 . S
C858 C857 1.523 . S
H859 C834 0.950 . S
H860 C836 0.950 . S
H861 C837 0.949 . S
H862 C839 0.950 . S
H863 C841 0.950 . S
C864 C865 1.349 . S
C864 C866 1.327 . S
C864 H889 0.950 . S
C865 C864 1.349 . S
C865 C881 1.349 . S
C866 C864 1.327 . S
C866 C885 1.429 . S
C866 H890 0.950 . S
C867 C884 1.574 . S
C867 C886 1.368 . S
C867 H891 0.949 . S
H868 C872 0.949 . S
C869 C870 1.349 . S
C869 C871 1.327 . S
C869 H892 0.950 . S
C870 C869 1.349 . S
C870 C882 1.349 . S
C871 C869 1.327 . S
C871 C887 1.429 . S
C871 H893 0.950 . S
C872 H868 0.949 . S
C872 C880 1.574 . S
C872 C888 1.368 . S
H873 C881 0.950 . S
H874 C879 0.950 . S
H875 C880 0.949 . S
H876 C882 0.950 . S
H877 C883 0.950 . S
H878 C884 0.949 . S
C879 H874 0.950 . S
C879 C881 1.327 . S
C879 C885 1.429 . S
C880 C872 1.574 . S
C880 H875 0.949 . S
C880 C886 1.368 . S
C881 C865 1.349 . S
C881 H873 0.950 . S
C881 C879 1.327 . S
C882 C870 1.349 . S
C882 H876 0.950 . S
C882 C883 1.327 . S
C883 H877 0.950 . S
C883 C882 1.327 . S
C883 C887 1.429 . S
C884 C867 1.574 . S
C884 H878 0.949 . S
C884 C888 1.368 . S
C885 C866 1.429 . S
C885 C879 1.429 . S
C885 C886 1.523 . S
C886 C867 1.368 . S
C886 C880 1.368 . S
C886 C885 1.523 . S
C887 C871 1.429 . S
C887 C883 1.429 . S
C887 C888 1.523 . S
C888 C872 1.368 . S
C888 C884 1.368 . S
C888 C887 1.523 . S
H889 C864 0.950 . S
H890 C866 0.950 . S
H891 C867 0.949 . S
H892 C869 0.950 . S
H893 C871 0.950 . S
C894 C895 1.349 . S
C894 C896 1.327 . S
C894 H919 0.950 . S
C895 C894 1.349 . S
C895 C911 1.349 . S
C896 C894 1.327 . S
C896 C915 1.429 . S
C896 H920 0.950 . S
C897 C914 1.574 . S
C897 C916 1.368 . S
C897 H921 0.949 . S
H898 C902 0.949 . S
C899 C900 1.349 . S
C899 C901 1.327 . S
C899 H922 0.950 . S
C900 C899 1.349 . S
C900 C912 1.349 . S
C901 C899 1.327 . S
C901 C917 1.429 . S
C901 H923 0.950 . S
C902 H898 0.949 . S
C902 C910 1.574 . S
C902 C918 1.368 . S
H903 C911 0.950 . S
H904 C909 0.950 . S
H905 C910 0.949 . S
H906 C912 0.950 . S
H907 C913 0.950 . S
H908 C914 0.949 . S
C909 H904 0.950 . S
C909 C911 1.327 . S
C909 C915 1.429 . S
C910 C902 1.574 . S
C910 H905 0.949 . S
C910 C916 1.368 . S
C911 C895 1.349 . S
C911 H903 0.950 . S
C911 C909 1.327 . S
C912 C900 1.349 . S
C912 H906 0.950 . S
C912 C913 1.327 . S
C913 H907 0.950 . S
C913 C912 1.327 . S
C913 C917 1.429 . S
C914 C897 1.574 . S
C914 H908 0.949 . S
C914 C918 1.368 . S
C915 C896 1.429 . S
C915 C909 1.429 . S
C915 C916 1.523 . S
C916 C897 1.368 . S
C916 C910 1.368 . S
C916 C915 1.523 . S
C917 C901 1.429 . S
C917 C913 1.429 . S
C917 C918 1.523 . S
C918 C902 1.368 . S
C918 C914 1.368 . S
C918 C917 1.523 . S
H919 C894 0.950 . S
H920 C896 0.950 . S
H921 C897 0.949 . S
H922 C899 0.950 . S
H923 C901 0.950 . S
C924 C925 1.349 . S
C924 C926 1.327 . S
C924 H949 0.950 . S
C925 C924 1.349 . S
C925 C941 1.349 . S
C926 C924 1.327 . S
C926 C945 1.429 . S
C926 H950 0.950 . S
C927 C944 1.574 . S
C927 C946 1.368 . S
C927 H951 0.949 . S
H928 C932 0.949 . S
C929 C930 1.349 . S
C929 C931 1.327 . S
C929 H952 0.950 . S
C930 C929 1.349 . S
C930 C942 1.349 . S
C931 C929 1.327 . S
C931 C947 1.429 . S
C931 H953 0.950 . S
C932 H928 0.949 . S
C932 C940 1.574 . S
C932 C948 1.368 . S
H933 C941 0.950 . S
H934 C939 0.950 . S
H935 C940 0.949 . S
H936 C942 0.950 . S
H937 C943 0.950 . S
H938 C944 0.949 . S
C939 H934 0.950 . S
C939 C941 1.327 . S
C939 C945 1.429 . S
C940 C932 1.574 . S
C940 H935 0.949 . S
C940 C946 1.368 . S
C941 C925 1.349 . S
C941 H933 0.950 . S
C941 C939 1.327 . S
C942 C930 1.349 . S
C942 H936 0.950 . S
C942 C943 1.327 . S
C943 H937 0.950 . S
C943 C942 1.327 . S
C943 C947 1.429 . S
C944 C927 1.574 . S
C944 H938 0.949 . S
C944 C948 1.368 . S
C945 C926 1.429 . S
C945 C939 1.429 . S
C945 C946 1.523 . S
C946 C927 1.368 . S
C946 C940 1.368 . S
C946 C945 1.523 . S
C947 C931 1.429 . S
C947 C943 1.429 . S
C947 C948 1.523 . S
C948 C932 1.368 . S
C948 C944 1.368 . S
C948 C947 1.523 . S
H949 C924 0.950 . S
H950 C926 0.950 . S
H951 C927 0.949 . S
H952 C929 0.950 . S
H953 C931 0.950 . S
C954 C955 1.349 . S
C954 C956 1.327 . S
C954 H979 0.950 . S
C955 C954 1.349 . S
C955 C971 1.349 . S
C956 C954 1.327 . S
C956 C975 1.429 . S
C956 H980 0.950 . S
C957 C974 1.574 . S
C957 C976 1.368 . S
C957 H981 0.949 . S
H958 C962 0.949 . S
C959 C960 1.349 . S
C959 C961 1.327 . S
C959 H982 0.950 . S
C960 C959 1.349 . S
C960 C972 1.349 . S
C961 C959 1.327 . S
C961 C977 1.429 . S
C961 H983 0.950 . S
C962 H958 0.949 . S
C962 C970 1.574 . S
C962 C978 1.368 . S
H963 C971 0.950 . S
H964 C969 0.950 . S
H965 C970 0.949 . S
H966 C972 0.950 . S
H967 C973 0.950 . S
H968 C974 0.949 . S
C969 H964 0.950 . S
C969 C971 1.327 . S
C969 C975 1.429 . S
C970 C962 1.574 . S
C970 H965 0.949 . S
C970 C976 1.368 . S
C971 C955 1.349 . S
C971 H963 0.950 . S
C971 C969 1.327 . S
C972 C960 1.349 . S
C972 H966 0.950 . S
C972 C973 1.327 . S
C973 H967 0.950 . S
C973 C972 1.327 . S
C973 C977 1.429 . S
C974 C957 1.574 . S
C974 H968 0.949 . S
C974 C978 1.368 . S
C975 C956 1.429 . S
C975 C969 1.429 . S
C975 C976 1.523 . S
C976 C957 1.368 . S
C976 C970 1.368 . S
C976 C975 1.523 . S
C977 C961 1.429 . S
C977 C973 1.429 . S
C977 C978 1.523 . S
C978 C962 1.368 . S
C978 C974 1.368 . S
C978 C977 1.523 . S
H979 C954 0.950 . S
H980 C956 0.950 . S
H981 C957 0.949 . S
H982 C959 0.950 . S
H983 C961 0.950 . S
C984 C985 1.349 . S
C984 C986 1.327 . S
C984 H1009 0.950 . S
C985 C984 1.349 . S
C985 C1001 1.349 . S
C986 C984 1.327 . S
C986 C1005 1.429 . S
C986 H1010 0.950 . S
C987 C1004 1.574 . S
C987 C1006 1.368 . S
C987 H1011 0.949 . S
H988 C992 0.949 . S
C989 C990 1.349 . S
C989 C991 1.327 . S
C989 H1012 0.950 . S
C990 C989 1.349 . S
C990 C1002 1.349 . S
C991 C989 1.327 . S
C991 C1007 1.429 . S
C991 H1013 0.950 . S
C992 H988 0.949 . S
C992 C1000 1.574 . S
C992 C1008 1.368 . S
H993 C1001 0.950 . S
H994 C999 0.950 . S
H995 C1000 0.949 . S
H996 C1002 0.950 . S
H997 C1003 0.950 . S
H998 C1004 0.949 . S
C999 H994 0.950 . S
C999 C1001 1.327 . S
C999 C1005 1.429 . S
C1000 C992 1.574 . S
C1000 H995 0.949 . S
C1000 C1006 1.368 . S
C1001 C985 1.349 . S
C1001 H993 0.950 . S
C1001 C999 1.327 . S
C1002 C990 1.349 . S
C1002 H996 0.950 . S
C1002 C1003 1.327 . S
C1003 H997 0.950 . S
C1003 C1002 1.327 . S
C1003 C1007 1.429 . S
C1004 C987 1.574 . S
C1004 H998 0.949 . S
C1004 C1008 1.368 . S
C1005 C986 1.429 . S
C1005 C999 1.429 . S
C1005 C1006 1.523 . S
C1006 C987 1.368 . S
C1006 C1000 1.368 . S
C1006 C1005 1.523 . S
C1007 C991 1.429 . S
C1007 C1003 1.429 . S
C1007 C1008 1.523 . S
C1008 C992 1.368 . S
C1008 C1004 1.368 . S
C1008 C1007 1.523 . S
H1009 C984 0.950 . S
H1010 C986 0.950 . S
H1011 C987 0.949 . S
H1012 C989 0.950 . S
H1013 C991 0.950 . S
C1014 C1015 1.349 . S
C1014 C1016 1.327 . S
C1014 H1039 0.950 . S
C1015 C1014 1.349 . S
C1015 C1031 1.349 . S
C1016 C1014 1.327 . S
C1016 C1035 1.429 . S
C1016 H1040 0.950 . S
C1017 C1034 1.574 . S
C1017 C1036 1.368 . S
C1017 H1041 0.949 . S
H1018 C1022 0.949 . S
C1019 C1020 1.349 . S
C1019 C1021 1.327 . S
C1019 H1042 0.950 . S
C1020 C1019 1.349 . S
C1020 C1032 1.349 . S
C1021 C1019 1.327 . S
C1021 C1037 1.429 . S
C1021 H1043 0.950 . S
C1022 H1018 0.949 . S
C1022 C1030 1.574 . S
C1022 C1038 1.368 . S
H1023 C1031 0.950 . S
H1024 C1029 0.950 . S
H1025 C1030 0.949 . S
H1026 C1032 0.950 . S
H1027 C1033 0.950 . S
H1028 C1034 0.949 . S
C1029 H1024 0.950 . S
C1029 C1031 1.327 . S
C1029 C1035 1.429 . S
C1030 C1022 1.574 . S
C1030 H1025 0.949 . S
C1030 C1036 1.368 . S
C1031 C1015 1.349 . S
C1031 H1023 0.950 . S
C1031 C1029 1.327 . S
C1032 C1020 1.349 . S
C1032 H1026 0.950 . S
C1032 C1033 1.327 . S
C1033 H1027 0.950 . S
C1033 C1032 1.327 . S
C1033 C1037 1.429 . S
C1034 C1017 1.574 . S
C1034 H1028 0.949 . S
C1034 C1038 1.368 . S
C1035 C1016 1.429 . S
C1035 C1029 1.429 . S
C1035 C1036 1.523 . S
C1036 C1017 1.368 . S
C1036 C1030 1.368 . S
C1036 C1035 1.523 . S
C1037 C1021 1.429 . S
C1037 C1033 1.429 . S
C1037 C1038 1.523 . S
C1038 C1022 1.368 . S
C1038 C1034 1.368 . S
C1038 C1037 1.523 . S
H1039 C1014 0.950 . S
H1040 C1016 0.950 . S
H1041 C1017 0.949 . S
H1042 C1019 0.950 . S
H1043 C1021 0.950 . S
C1044 C1045 1.349 . S
C1044 C1046 1.327 . S
C1044 H1069 0.950 . S
C1045 C1044 1.349 . S
C1045 C1061 1.349 . S
C1046 C1044 1.327 . S
C1046 C1065 1.429 . S
C1046 H1070 0.950 . S
C1047 C1064 1.574 . S
C1047 C1066 1.368 . S
C1047 H1071 0.949 . S
H1048 C1052 0.949 . S
C1049 C1050 1.349 . S
C1049 C1051 1.327 . S
C1049 H1072 0.950 . S
C1050 C1049 1.349 . S
C1050 C1062 1.349 . S
C1051 C1049 1.327 . S
C1051 C1067 1.429 . S
C1051 H1073 0.950 . S
C1052 H1048 0.949 . S
C1052 C1060 1.574 . S
C1052 C1068 1.368 . S
H1053 C1061 0.950 . S
H1054 C1059 0.950 . S
H1055 C1060 0.949 . S
H1056 C1062 0.950 . S
H1057 C1063 0.950 . S
H1058 C1064 0.949 . S
C1059 H1054 0.950 . S
C1059 C1061 1.327 . S
C1059 C1065 1.429 . S
C1060 C1052 1.574 . S
C1060 H1055 0.949 . S
C1060 C1066 1.368 . S
C1061 C1045 1.349 . S
C1061 H1053 0.950 . S
C1061 C1059 1.327 . S
C1062 C1050 1.349 . S
C1062 H1056 0.950 . S
C1062 C1063 1.327 . S
C1063 H1057 0.950 . S
C1063 C1062 1.327 . S
C1063 C1067 1.429 . S
C1064 C1047 1.574 . S
C1064 H1058 0.949 . S
C1064 C1068 1.368 . S
C1065 C1046 1.429 . S
C1065 C1059 1.429 . S
C1065 C1066 1.523 . S
C1066 C1047 1.368 . S
C1066 C1060 1.368 . S
C1066 C1065 1.523 . S
C1067 C1051 1.429 . S
C1067 C1063 1.429 . S
C1067 C1068 1.523 . S
C1068 C1052 1.368 . S
C1068 C1064 1.368 . S
C1068 C1067 1.523 . S
H1069 C1044 0.950 . S
H1070 C1046 0.950 . S
H1071 C1047 0.949 . S
H1072 C1049 0.950 . S
H1073 C1051 0.950 . S
C1074 C1075 1.349 . S
C1074 C1076 1.327 . S
C1074 H1099 0.950 . S
C1075 C1074 1.349 . S
C1075 C1091 1.349 . S
C1076 C1074 1.327 . S
C1076 C1095 1.429 . S
C1076 H1100 0.950 . S
C1077 C1094 1.574 . S
C1077 C1096 1.368 . S
C1077 H1101 0.949 . S
H1078 C1082 0.949 . S
C1079 C1080 1.349 . S
C1079 C1081 1.327 . S
C1079 H1102 0.950 . S
C1080 C1079 1.349 . S
C1080 C1092 1.349 . S
C1081 C1079 1.327 . S
C1081 C1097 1.429 . S
C1081 H1103 0.950 . S
C1082 H1078 0.949 . S
C1082 C1090 1.574 . S
C1082 C1098 1.368 . S
H1083 C1091 0.950 . S
H1084 C1089 0.950 . S
H1085 C1090 0.949 . S
H1086 C1092 0.950 . S
H1087 C1093 0.950 . S
H1088 C1094 0.949 . S
C1089 H1084 0.950 . S
C1089 C1091 1.327 . S
C1089 C1095 1.429 . S
C1090 C1082 1.574 . S
C1090 H1085 0.949 . S
C1090 C1096 1.368 . S
C1091 C1075 1.349 . S
C1091 H1083 0.950 . S
C1091 C1089 1.327 . S
C1092 C1080 1.349 . S
C1092 H1086 0.950 . S
C1092 C1093 1.327 . S
C1093 H1087 0.950 . S
C1093 C1092 1.327 . S
C1093 C1097 1.429 . S
C1094 C1077 1.574 . S
C1094 H1088 0.949 . S
C1094 C1098 1.368 . S
C1095 C1076 1.429 . S
C1095 C1089 1.429 . S
C1095 C1096 1.523 . S
C1096 C1077 1.368 . S
C1096 C1090 1.368 . S
C1096 C1095 1.523 . S
C1097 C1081 1.429 . S
C1097 C1093 1.429 . S
C1097 C1098 1.523 . S
C1098 C1082 1.368 . S
C1098 C1094 1.368 . S
C1098 C1097 1.523 . S
H1099 C1074 0.950 . S
H1100 C1076 0.950 . S
H1101 C1077 0.949 . S
H1102 C1079 0.950 . S
H1103 C1081 0.950 . S
C1104 C1105 1.349 . S
C1104 C1106 1.327 . S
C1104 H1129 0.950 . S
C1105 C1104 1.349 . S
C1105 C1121 1.349 . S
C1106 C1104 1.327 . S
C1106 C1125 1.429 . S
C1106 H1130 0.950 . S
C1107 C1124 1.574 . S
C1107 C1126 1.368 . S
C1107 H1131 0.949 . S
H1108 C1112 0.949 . S
C1109 C1110 1.349 . S
C1109 C1111 1.327 . S
C1109 H1132 0.950 . S
C1110 C1109 1.349 . S
C1110 C1122 1.349 . S
C1111 C1109 1.327 . S
C1111 C1127 1.429 . S
C1111 H1133 0.950 . S
C1112 H1108 0.949 . S
C1112 C1120 1.574 . S
C1112 C1128 1.368 . S
H1113 C1121 0.950 . S
H1114 C1119 0.950 . S
H1115 C1120 0.949 . S
H1116 C1122 0.950 . S
H1117 C1123 0.950 . S
H1118 C1124 0.949 . S
C1119 H1114 0.950 . S
C1119 C1121 1.327 . S
C1119 C1125 1.429 . S
C1120 C1112 1.574 . S
C1120 H1115 0.949 . S
C1120 C1126 1.368 . S
C1121 C1105 1.349 . S
C1121 H1113 0.950 . S
C1121 C1119 1.327 . S
C1122 C1110 1.349 . S
C1122 H1116 0.950 . S
C1122 C1123 1.327 . S
C1123 H1117 0.950 . S
C1123 C1122 1.327 . S
C1123 C1127 1.429 . S
C1124 C1107 1.574 . S
C1124 H1118 0.949 . S
C1124 C1128 1.368 . S
C1125 C1106 1.429 . S
C1125 C1119 1.429 . S
C1125 C1126 1.523 . S
C1126 C1107 1.368 . S
C1126 C1120 1.368 . S
C1126 C1125 1.523 . S
C1127 C1111 1.429 . S
C1127 C1123 1.429 . S
C1127 C1128 1.523 . S
C1128 C1112 1.368 . S
C1128 C1124 1.368 . S
C1128 C1127 1.523 . S
H1129 C1104 0.950 . S
H1130 C1106 0.950 . S
H1131 C1107 0.949 . S
H1132 C1109 0.950 . S
H1133 C1111 0.950 . S
C1134 C1135 1.349 . S
C1134 C1136 1.327 . S
C1134 H1159 0.950 . S
C1135 C1134 1.349 . S
C1135 C1151 1.349 1_554 S
C1136 C1134 1.327 . S
C1136 C1155 1.429 . S
C1136 H1160 0.950 . S
C1137 C1154 1.574 . S
C1137 C1156 1.368 1_556 S
C1137 H1161 0.949 . S
H1138 C1142 0.949 . S
C1139 C1140 1.306 1_556 S
C1139 C1141 1.327 . S
C1139 H1162 0.950 . S
C1140 C1139 1.306 1_554 S
C1140 C1152 1.394 . S
C1141 C1139 1.327 . S
C1141 C1157 1.364 1_556 S
C1141 H1163 0.950 . S
C1142 H1138 0.949 . S
C1142 C1150 1.574 . S
C1142 C1158 1.456 . S
H1143 C1151 0.950 . S
H1144 C1149 0.950 . S
H1145 C1150 0.949 . S
H1146 C1152 0.950 . S
H1147 C1153 0.950 . S
H1148 C1154 0.949 . S
C1149 H1144 0.950 . S
C1149 C1151 1.327 . S
C1149 C1155 1.429 1_556 S
C1150 C1142 1.574 . S
C1150 H1145 0.949 . S
C1150 C1156 1.368 . S
C1151 C1135 1.349 1_556 S
C1151 H1143 0.950 . S
C1151 C1149 1.327 . S
C1152 C1140 1.394 . S
C1152 H1146 0.950 . S
C1152 C1153 1.327 . S
C1153 H1147 0.950 . S
C1153 C1152 1.327 . S
C1153 C1157 1.495 . S
C1154 C1137 1.574 . S
C1154 H1148 0.949 . S
C1154 C1158 1.286 1_556 S
C1155 C1136 1.429 . S
C1155 C1149 1.429 1_554 S
C1155 C1156 1.523 . S
C1156 C1137 1.368 1_554 S
C1156 C1150 1.368 . S
C1156 C1155 1.523 . S
C1157 C1141 1.364 1_554 S
C1157 C1153 1.495 . S
C1157 C1158 1.523 . S
C1158 C1142 1.456 . S
C1158 C1154 1.286 1_554 S
C1158 C1157 1.523 . S
H1159 C1134 0.950 . S
H1160 C1136 0.950 . S
H1161 C1137 0.949 . S
H1162 C1139 0.950 . S
H1163 C1141 0.950 . S
C1164 C1165 1.394 . S
C1164 C1166 1.327 . S
C1164 H1189 0.950 . S
C1165 C1164 1.394 . S
C1165 C1181 1.306 1_554 S
C1166 C1164 1.327 . S
C1166 C1185 1.495 . S
C1166 H1190 0.950 . S
C1167 C1184 1.574 . S
C1167 C1186 1.285 1_556 S
C1167 H1191 0.949 . S
H1168 C1172 0.949 . S
C1169 C1170 1.349 1_556 S
C1169 C1171 1.327 . S
C1169 H1192 0.950 . S
C1170 C1169 1.349 1_554 S
C1170 C1182 1.349 . S
C1171 C1169 1.327 . S
C1171 C1187 1.429 1_556 S
C1171 H1193 0.950 . S
C1172 H1168 0.949 . S
C1172 C1180 1.574 . S
C1172 C1188 1.368 . S
H1173 C1181 0.950 . S
H1174 C1179 0.950 . S
H1175 C1180 0.949 . S
H1176 C1182 0.950 . S
H1177 C1183 0.950 . S
H1178 C1184 0.949 . S
C1179 H1174 0.950 . S
C1179 C1181 1.327 . S
C1179 C1185 1.364 1_556 S
C1180 C1172 1.574 . S
C1180 H1175 0.949 . S
C1180 C1186 1.457 . S
C1181 C1165 1.306 1_556 S
C1181 H1173 0.950 . S
C1181 C1179 1.327 . S
C1182 C1170 1.349 . S
C1182 H1176 0.950 . S
C1182 C1183 1.327 . S
C1183 H1177 0.950 . S
C1183 C1182 1.327 . S
C1183 C1187 1.429 . S
C1184 C1167 1.574 . S
C1184 H1178 0.949 . S
C1184 C1188 1.368 1_556 S
C1185 C1166 1.495 . S
C1185 C1179 1.364 1_554 S
C1185 C1186 1.523 . S
C1186 C1167 1.285 1_554 S
C1186 C1180 1.457 . S
C1186 C1185 1.523 . S
C1187 C1171 1.429 1_554 S
C1187 C1183 1.429 . S
C1187 C1188 1.523 . S
C1188 C1172 1.368 . S
C1188 C1184 1.368 1_554 S
C1188 C1187 1.523 . S
H1189 C1164 0.950 . S
H1190 C1166 0.950 . S
H1191 C1167 0.949 . S
H1192 C1169 0.950 . S
H1193 C1171 0.950 . S
C1194 C1195 1.349 . S
C1194 C1196 1.327 . S
C1194 H1219 0.950 . S
C1195 C1194 1.349 . S
C1195 C1211 1.349 1_554 S
C1196 C1194 1.327 . S
C1196 C1215 1.429 . S
C1196 H1220 0.950 . S
C1197 C1214 1.574 . S
C1197 C1216 1.368 1_556 S
C1197 H1221 0.949 . S
H1198 C1202 0.949 . S
C1199 C1200 1.308 1_556 S
C1199 C1201 1.327 . S
C1199 H1222 0.950 . S
C1200 C1199 1.308 1_554 S
C1200 C1212 1.392 . S
C1201 C1199 1.327 . S
C1201 C1217 1.366 1_556 S
C1201 H1223 0.950 . S
C1202 H1198 0.949 . S
C1202 C1210 1.574 . S
C1202 C1218 1.454 . S
H1203 C1211 0.950 . S
H1204 C1209 0.950 . S
H1205 C1210 0.949 . S
H1206 C1212 0.950 . S
H1207 C1213 0.950 . S
H1208 C1214 0.949 . S
C1209 H1204 0.950 . S
C1209 C1211 1.327 . S
C1209 C1215 1.429 1_556 S
C1210 C1202 1.574 . S
C1210 H1205 0.949 . S
C1210 C1216 1.368 . S
C1211 C1195 1.349 1_556 S
C1211 H1203 0.950 . S
C1211 C1209 1.327 . S
C1212 C1200 1.392 . S
C1212 H1206 0.950 . S
C1212 C1213 1.327 . S
C1213 H1207 0.950 . S
C1213 C1212 1.327 . S
C1213 C1217 1.493 . S
C1214 C1197 1.574 . S
C1214 H1208 0.949 . S
C1214 C1218 1.288 1_556 S
C1215 C1196 1.429 . S
C1215 C1209 1.429 1_554 S
C1215 C1216 1.523 . S
C1216 C1197 1.368 1_554 S
C1216 C1210 1.368 . S
C1216 C1215 1.523 . S
C1217 C1201 1.366 1_554 S
C1217 C1213 1.493 . S
C1217 C1218 1.523 . S
C1218 C1202 1.454 . S
C1218 C1214 1.288 1_554 S
C1218 C1217 1.523 . S
H1219 C1194 0.950 . S
H1220 C1196 0.950 . S
H1221 C1197 0.949 . S
H1222 C1199 0.950 . S
H1223 C1201 0.950 . S
C1224 C1225 1.349 . S
C1224 C1226 1.327 . S
C1224 H1249 0.950 . S
C1225 C1224 1.349 . S
C1225 C1241 1.349 . S
C1226 C1224 1.327 . S
C1226 C1245 1.429 . S
C1226 H1250 0.950 . S
C1227 C1244 1.574 . S
C1227 C1246 1.368 . S
C1227 H1251 0.949 . S
H1228 C1232 0.949 . S
C1229 C1230 1.349 . S
C1229 C1231 1.327 . S
C1229 H1252 0.950 . S
C1230 C1229 1.349 . S
C1230 C1242 1.349 . S
C1231 C1229 1.327 . S
C1231 C1247 1.429 . S
C1231 H1253 0.950 . S
C1232 H1228 0.949 . S
C1232 C1240 1.574 . S
C1232 C1248 1.368 . S
H1233 C1241 0.950 . S
H1234 C1239 0.950 . S
H1235 C1240 0.949 . S
H1236 C1242 0.950 . S
H1237 C1243 0.950 . S
H1238 C1244 0.949 . S
C1239 H1234 0.950 . S
C1239 C1241 1.327 . S
C1239 C1245 1.429 . S
C1240 C1232 1.574 . S
C1240 H1235 0.949 . S
C1240 C1246 1.368 . S
C1241 C1225 1.349 . S
C1241 H1233 0.950 . S
C1241 C1239 1.327 . S
C1242 C1230 1.349 . S
C1242 H1236 0.950 . S
C1242 C1243 1.327 . S
C1243 H1237 0.950 . S
C1243 C1242 1.327 . S
C1243 C1247 1.429 . S
C1244 C1227 1.574 . S
C1244 H1238 0.949 . S
C1244 C1248 1.368 . S
C1245 C1226 1.429 . S
C1245 C1239 1.429 . S
C1245 C1246 1.523 . S
C1246 C1227 1.368 . S
C1246 C1240 1.368 . S
C1246 C1245 1.523 . S
C1247 C1231 1.429 . S
C1247 C1243 1.429 . S
C1247 C1248 1.523 . S
C1248 C1232 1.368 . S
C1248 C1244 1.368 . S
C1248 C1247 1.523 . S
H1249 C1224 0.950 . S
H1250 C1226 0.950 . S
H1251 C1227 0.949 . S
H1252 C1229 0.950 . S
H1253 C1231 0.950 . S
C1254 C1255 1.349 . S
C1254 C1256 1.327 . S
C1254 H1279 0.950 . S
C1255 C1254 1.349 . S
C1255 C1271 1.349 . S
C1256 C1254 1.327 . S
C1256 C1275 1.429 . S
C1256 H1280 0.950 . S
C1257 C1274 1.574 . S
C1257 C1276 1.368 . S
C1257 H1281 0.949 . S
H1258 C1262 0.949 . S
C1259 C1260 1.349 . S
C1259 C1261 1.327 . S
C1259 H1282 0.950 . S
C1260 C1259 1.349 . S
C1260 C1272 1.349 . S
C1261 C1259 1.327 . S
C1261 C1277 1.429 . S
C1261 H1283 0.950 . S
C1262 H1258 0.949 . S
C1262 C1270 1.574 . S
C1262 C1278 1.368 . S
H1263 C1271 0.950 . S
H1264 C1269 0.950 . S
H1265 C1270 0.949 . S
H1266 C1272 0.950 . S
H1267 C1273 0.950 . S
H1268 C1274 0.949 . S
C1269 H1264 0.950 . S
C1269 C1271 1.327 . S
C1269 C1275 1.429 . S
C1270 C1262 1.574 . S
C1270 H1265 0.949 . S
C1270 C1276 1.368 . S
C1271 C1255 1.349 . S
C1271 H1263 0.950 . S
C1271 C1269 1.327 . S
C1272 C1260 1.349 . S
C1272 H1266 0.950 . S
C1272 C1273 1.327 . S
C1273 H1267 0.950 . S
C1273 C1272 1.327 . S
C1273 C1277 1.429 . S
C1274 C1257 1.574 . S
C1274 H1268 0.949 . S
C1274 C1278 1.368 . S
C1275 C1256 1.429 . S
C1275 C1269 1.429 . S
C1275 C1276 1.523 . S
C1276 C1257 1.368 . S
C1276 C1270 1.368 . S
C1276 C1275 1.523 . S
C1277 C1261 1.429 . S
C1277 C1273 1.429 . S
C1277 C1278 1.523 . S
C1278 C1262 1.368 . S
C1278 C1274 1.368 . S
C1278 C1277 1.523 . S
H1279 C1254 0.950 . S
H1280 C1256 0.950 . S
H1281 C1257 0.949 . S
H1282 C1259 0.950 . S
H1283 C1261 0.950 . S
C1284 C1285 1.349 . S
C1284 C1286 1.327 . S
C1284 H1309 0.950 . S
C1285 C1284 1.349 . S
C1285 C1301 1.349 . S
C1286 C1284 1.327 . S
C1286 C1305 1.429 . S
C1286 H1310 0.950 . S
C1287 C1304 1.574 . S
C1287 C1306 1.368 . S
C1287 H1311 0.949 . S
H1288 C1292 0.949 . S
C1289 C1290 1.349 . S
C1289 C1291 1.327 . S
C1289 H1312 0.950 . S
C1290 C1289 1.349 . S
C1290 C1302 1.349 . S
C1291 C1289 1.327 . S
C1291 C1307 1.429 . S
C1291 H1313 0.950 . S
C1292 H1288 0.949 . S
C1292 C1300 1.574 . S
C1292 C1308 1.368 . S
H1293 C1301 0.950 . S
H1294 C1299 0.950 . S
H1295 C1300 0.949 . S
H1296 C1302 0.950 . S
H1297 C1303 0.950 . S
H1298 C1304 0.949 . S
C1299 H1294 0.950 . S
C1299 C1301 1.327 . S
C1299 C1305 1.429 . S
C1300 C1292 1.574 . S
C1300 H1295 0.949 . S
C1300 C1306 1.368 . S
C1301 C1285 1.349 . S
C1301 H1293 0.950 . S
C1301 C1299 1.327 . S
C1302 C1290 1.349 . S
C1302 H1296 0.950 . S
C1302 C1303 1.327 . S
C1303 H1297 0.950 . S
C1303 C1302 1.327 . S
C1303 C1307 1.429 . S
C1304 C1287 1.574 . S
C1304 H1298 0.949 . S
C1304 C1308 1.368 . S
C1305 C1286 1.429 . S
C1305 C1299 1.429 . S
C1305 C1306 1.523 . S
C1306 C1287 1.368 . S
C1306 C1300 1.368 . S
C1306 C1305 1.523 . S
C1307 C1291 1.429 . S
C1307 C1303 1.429 . S
C1307 C1308 1.523 . S
C1308 C1292 1.368 . S
C1308 C1304 1.368 . S
C1308 C1307 1.523 . S
H1309 C1284 0.950 . S
H1310 C1286 0.950 . S
H1311 C1287 0.949 . S
H1312 C1289 0.950 . S
H1313 C1291 0.950 . S
C1314 C1315 1.349 1_554 S
C1314 C1316 1.327 . S
C1314 H1339 0.950 . S
C1315 C1314 1.349 1_556 S
C1315 C1331 1.349 . S
C1316 C1314 1.327 . S
C1316 C1335 1.429 1_554 S
C1316 H1340 0.950 . S
C1317 C1334 1.574 . S
C1317 C1336 1.368 . S
C1317 H1341 0.949 . S
H1318 C1322 0.949 . S
C1319 C1320 1.349 . S
C1319 C1321 1.327 . S
C1319 H1342 0.950 . S
C1320 C1319 1.349 . S
C1320 C1332 1.349 1_556 S
C1321 C1319 1.327 . S
C1321 C1337 1.429 . S
C1321 H1343 0.950 . S
C1322 H1318 0.949 . S
C1322 C1330 1.574 . S
C1322 C1338 1.368 1_554 S
H1323 C1331 0.950 . S
H1324 C1329 0.950 . S
H1325 C1330 0.949 . S
H1326 C1332 0.950 . S
H1327 C1333 0.950 . S
H1328 C1334 0.949 . S
C1329 H1324 0.950 . S
C1329 C1331 1.327 . S
C1329 C1335 1.429 . S
C1330 C1322 1.574 . S
C1330 H1325 0.949 . S
C1330 C1336 1.368 1_554 S
C1331 C1315 1.349 . S
C1331 H1323 0.950 . S
C1331 C1329 1.327 . S
C1332 C1320 1.349 1_554 S
C1332 H1326 0.950 . S
C1332 C1333 1.327 . S
C1333 H1327 0.950 . S
C1333 C1332 1.327 . S
C1333 C1337 1.429 1_554 S
C1334 C1317 1.574 . S
C1334 H1328 0.949 . S
C1334 C1338 1.368 . S
C1335 C1316 1.429 1_556 S
C1335 C1329 1.429 . S
C1335 C1336 1.523 . S
C1336 C1317 1.368 . S
C1336 C1330 1.368 1_556 S
C1336 C1335 1.523 . S
C1337 C1321 1.429 . S
C1337 C1333 1.429 1_556 S
C1337 C1338 1.523 . S
C1338 C1322 1.368 1_556 S
C1338 C1334 1.368 . S
C1338 C1337 1.523 . S
H1339 C1314 0.950 . S
H1340 C1316 0.950 . S
H1341 C1317 0.949 . S
H1342 C1319 0.950 . S
H1343 C1321 0.950 . S
C1344 C1345 1.349 1_554 S
C1344 C1346 1.327 . S
C1344 H1369 0.950 . S
C1345 C1344 1.349 1_556 S
C1345 C1361 1.349 . S
C1346 C1344 1.327 . S
C1346 C1365 1.429 1_554 S
C1346 H1370 0.950 . S
C1347 C1364 1.574 . S
C1347 C1366 1.368 . S
C1347 H1371 0.949 . S
H1348 C1352 0.949 . S
C1349 C1350 1.349 . S
C1349 C1351 1.327 . S
C1349 H1372 0.950 . S
C1350 C1349 1.349 . S
C1350 C1362 1.349 1_556 S
C1351 C1349 1.327 . S
C1351 C1367 1.429 . S
C1351 H1373 0.950 . S
C1352 H1348 0.949 . S
C1352 C1360 1.574 . S
C1352 C1368 1.368 1_554 S
H1353 C1361 0.950 . S
H1354 C1359 0.950 . S
H1355 C1360 0.949 . S
H1356 C1362 0.950 . S
H1357 C1363 0.950 . S
H1358 C1364 0.949 . S
C1359 H1354 0.950 . S
C1359 C1361 1.327 . S
C1359 C1365 1.429 . S
C1360 C1352 1.574 . S
C1360 H1355 0.949 . S
C1360 C1366 1.368 1_554 S
C1361 C1345 1.349 . S
C1361 H1353 0.950 . S
C1361 C1359 1.327 . S
C1362 C1350 1.349 1_554 S
C1362 H1356 0.950 . S
C1362 C1363 1.327 . S
C1363 H1357 0.950 . S
C1363 C1362 1.327 . S
C1363 C1367 1.429 1_554 S
C1364 C1347 1.574 . S
C1364 H1358 0.949 . S
C1364 C1368 1.368 . S
C1365 C1346 1.429 1_556 S
C1365 C1359 1.429 . S
C1365 C1366 1.523 . S
C1366 C1347 1.368 . S
C1366 C1360 1.368 1_556 S
C1366 C1365 1.523 . S
C1367 C1351 1.429 . S
C1367 C1363 1.429 1_556 S
C1367 C1368 1.523 . S
C1368 C1352 1.368 1_556 S
C1368 C1364 1.368 . S
C1368 C1367 1.523 . S
H1369 C1344 0.950 . S
H1370 C1346 0.950 . S
H1371 C1347 0.949 . S
H1372 C1349 0.950 . S
H1373 C1351 0.950 . S
C1374 C1375 1.349 1_554 S
C1374 C1376 1.327 . S
C1374 H1399 0.950 . S
C1375 C1374 1.349 1_556 S
C1375 C1391 1.349 . S
C1376 C1374 1.327 . S
C1376 C1395 1.429 1_554 S
C1376 H1400 0.950 . S
C1377 C1394 1.574 . S
C1377 C1396 1.368 . S
C1377 H1401 0.949 . S
H1378 C1382 0.949 . S
C1379 C1380 1.349 . S
C1379 C1381 1.327 . S
C1379 H1402 0.950 . S
C1380 C1379 1.349 . S
C1380 C1392 1.349 1_556 S
C1381 C1379 1.327 . S
C1381 C1397 1.429 . S
C1381 H1403 0.950 . S
C1382 H1378 0.949 . S
C1382 C1390 1.574 . S
C1382 C1398 1.368 1_554 S
H1383 C1391 0.950 . S
H1384 C1389 0.950 . S
H1385 C1390 0.949 . S
H1386 C1392 0.950 . S
H1387 C1393 0.950 . S
H1388 C1394 0.949 . S
C1389 H1384 0.950 . S
C1389 C1391 1.327 . S
C1389 C1395 1.429 . S
C1390 C1382 1.574 . S
C1390 H1385 0.949 . S
C1390 C1396 1.368 1_554 S
C1391 C1375 1.349 . S
C1391 H1383 0.950 . S
C1391 C1389 1.327 . S
C1392 C1380 1.349 1_554 S
C1392 H1386 0.950 . S
C1392 C1393 1.327 . S
C1393 H1387 0.950 . S
C1393 C1392 1.327 . S
C1393 C1397 1.429 1_554 S
C1394 C1377 1.574 . S
C1394 H1388 0.949 . S
C1394 C1398 1.368 . S
C1395 C1376 1.429 1_556 S
C1395 C1389 1.429 . S
C1395 C1396 1.523 . S
C1396 C1377 1.368 . S
C1396 C1390 1.368 1_556 S
C1396 C1395 1.523 . S
C1397 C1381 1.429 . S
C1397 C1393 1.429 1_556 S
C1397 C1398 1.523 . S
C1398 C1382 1.368 1_556 S
C1398 C1394 1.368 . S
C1398 C1397 1.523 . S
H1399 C1374 0.950 . S
H1400 C1376 0.950 . S
H1401 C1377 0.949 . S
H1402 C1379 0.950 . S
H1403 C1381 0.950 . S
C1404 C1405 1.349 . S
C1404 C1406 1.327 . S
C1404 H1429 0.950 . S
C1405 C1404 1.349 . S
C1405 C1421 1.349 . S
C1406 C1404 1.327 . S
C1406 C1425 1.429 . S
C1406 H1430 0.950 . S
C1407 C1424 1.574 . S
C1407 C1426 1.368 . S
C1407 H1431 0.949 . S
H1408 C1412 0.949 . S
C1409 C1410 1.349 . S
C1409 C1411 1.327 . S
C1409 H1432 0.950 . S
C1410 C1409 1.349 . S
C1410 C1422 1.349 . S
C1411 C1409 1.327 . S
C1411 C1427 1.429 . S
C1411 H1433 0.950 . S
C1412 H1408 0.949 . S
C1412 C1420 1.574 . S
C1412 C1428 1.368 . S
H1413 C1421 0.950 . S
H1414 C1419 0.950 . S
H1415 C1420 0.949 . S
H1416 C1422 0.950 . S
H1417 C1423 0.950 . S
H1418 C1424 0.949 . S
C1419 H1414 0.950 . S
C1419 C1421 1.327 . S
C1419 C1425 1.429 . S
C1420 C1412 1.574 . S
C1420 H1415 0.949 . S
C1420 C1426 1.368 . S
C1421 C1405 1.349 . S
C1421 H1413 0.950 . S
C1421 C1419 1.327 . S
C1422 C1410 1.349 . S
C1422 H1416 0.950 . S
C1422 C1423 1.327 . S
C1423 H1417 0.950 . S
C1423 C1422 1.327 . S
C1423 C1427 1.429 . S
C1424 C1407 1.574 . S
C1424 H1418 0.949 . S
C1424 C1428 1.368 . S
C1425 C1406 1.429 . S
C1425 C1419 1.429 . S
C1425 C1426 1.523 . S
C1426 C1407 1.368 . S
C1426 C1420 1.368 . S
C1426 C1425 1.523 . S
C1427 C1411 1.429 . S
C1427 C1423 1.429 . S
C1427 C1428 1.523 . S
C1428 C1412 1.368 . S
C1428 C1424 1.368 . S
C1428 C1427 1.523 . S
H1429 C1404 0.950 . S
H1430 C1406 0.950 . S
H1431 C1407 0.949 . S
H1432 C1409 0.950 . S
H1433 C1411 0.950 . S
C1434 C1435 1.349 . S
C1434 C1436 1.327 . S
C1434 H1459 0.950 . S
C1435 C1434 1.349 . S
C1435 C1451 1.349 . S
C1436 C1434 1.327 . S
C1436 C1455 1.429 . S
C1436 H1460 0.950 . S
C1437 C1454 1.574 . S
C1437 C1456 1.368 . S
C1437 H1461 0.949 . S
H1438 C1442 0.949 . S
C1439 C1440 1.349 . S
C1439 C1441 1.327 . S
C1439 H1462 0.950 . S
C1440 C1439 1.349 . S
C1440 C1452 1.349 . S
C1441 C1439 1.327 . S
C1441 C1457 1.429 . S
C1441 H1463 0.950 . S
C1442 H1438 0.949 . S
C1442 C1450 1.574 . S
C1442 C1458 1.368 . S
H1443 C1451 0.950 . S
H1444 C1449 0.950 . S
H1445 C1450 0.949 . S
H1446 C1452 0.950 . S
H1447 C1453 0.950 . S
H1448 C1454 0.949 . S
C1449 H1444 0.950 . S
C1449 C1451 1.327 . S
C1449 C1455 1.429 . S
C1450 C1442 1.574 . S
C1450 H1445 0.949 . S
C1450 C1456 1.368 . S
C1451 C1435 1.349 . S
C1451 H1443 0.950 . S
C1451 C1449 1.327 . S
C1452 C1440 1.349 . S
C1452 H1446 0.950 . S
C1452 C1453 1.327 . S
C1453 H1447 0.950 . S
C1453 C1452 1.327 . S
C1453 C1457 1.429 . S
C1454 C1437 1.574 . S
C1454 H1448 0.949 . S
C1454 C1458 1.368 . S
C1455 C1436 1.429 . S
C1455 C1449 1.429 . S
C1455 C1456 1.523 . S
C1456 C1437 1.368 . S
C1456 C1450 1.368 . S
C1456 C1455 1.523 . S
C1457 C1441 1.429 . S
C1457 C1453 1.429 . S
C1457 C1458 1.523 . S
C1458 C1442 1.368 . S
C1458 C1454 1.368 . S
C1458 C1457 1.523 . S
H1459 C1434 0.950 . S
H1460 C1436 0.950 . S
H1461 C1437 0.949 . S
H1462 C1439 0.950 . S
H1463 C1441 0.950 . S
C1464 C1465 1.349 . S
C1464 C1466 1.327 . S
C1464 H1489 0.950 . S
C1465 C1464 1.349 . S
C1465 C1481 1.349 . S
C1466 C1464 1.327 . S
C1466 C1485 1.429 . S
C1466 H1490 0.950 . S
C1467 C1484 1.574 . S
C1467 C1486 1.368 . S
C1467 H1491 0.949 . S
H1468 C1472 0.949 . S
C1469 C1470 1.349 . S
C1469 C1471 1.327 . S
C1469 H1492 0.950 . S
C1470 C1469 1.349 . S
C1470 C1482 1.349 . S
C1471 C1469 1.327 . S
C1471 C1487 1.429 . S
C1471 H1493 0.950 . S
C1472 H1468 0.949 . S
C1472 C1480 1.574 . S
C1472 C1488 1.368 . S
H1473 C1481 0.950 . S
H1474 C1479 0.950 . S
H1475 C1480 0.949 . S
H1476 C1482 0.950 . S
H1477 C1483 0.950 . S
H1478 C1484 0.949 . S
C1479 H1474 0.950 . S
C1479 C1481 1.327 . S
C1479 C1485 1.429 . S
C1480 C1472 1.574 . S
C1480 H1475 0.949 . S
C1480 C1486 1.368 . S
C1481 C1465 1.349 . S
C1481 H1473 0.950 . S
C1481 C1479 1.327 . S
C1482 C1470 1.349 . S
C1482 H1476 0.950 . S
C1482 C1483 1.327 . S
C1483 H1477 0.950 . S
C1483 C1482 1.327 . S
C1483 C1487 1.429 . S
C1484 C1467 1.574 . S
C1484 H1478 0.949 . S
C1484 C1488 1.368 . S
C1485 C1466 1.429 . S
C1485 C1479 1.429 . S
C1485 C1486 1.523 . S
C1486 C1467 1.368 . S
C1486 C1480 1.368 . S
C1486 C1485 1.523 . S
C1487 C1471 1.429 . S
C1487 C1483 1.429 . S
C1487 C1488 1.523 . S
C1488 C1472 1.368 . S
C1488 C1484 1.368 . S
C1488 C1487 1.523 . S
H1489 C1464 0.950 . S
H1490 C1466 0.950 . S
H1491 C1467 0.949 . S
H1492 C1469 0.950 . S
H1493 C1471 0.950 . S
C1494 C1495 1.349 . S
C1494 C1496 1.327 . S
C1494 H1519 0.950 . S
C1495 C1494 1.349 . S
C1495 C1511 1.349 . S
C1496 C1494 1.327 . S
C1496 C1515 1.429 . S
C1496 H1520 0.950 . S
C1497 C1514 1.574 . S
C1497 C1516 1.368 . S
C1497 H1521 0.949 . S
H1498 C1502 0.949 . S
C1499 C1500 1.349 . S
C1499 C1501 1.327 . S
C1499 H1522 0.950 . S
C1500 C1499 1.349 . S
C1500 C1512 1.349 . S
C1501 C1499 1.327 . S
C1501 C1517 1.429 . S
C1501 H1523 0.950 . S
C1502 H1498 0.949 . S
C1502 C1510 1.574 . S
C1502 C1518 1.368 . S
H1503 C1511 0.950 . S
H1504 C1509 0.950 . S
H1505 C1510 0.949 . S
H1506 C1512 0.950 . S
H1507 C1513 0.950 . S
H1508 C1514 0.949 . S
C1509 H1504 0.950 . S
C1509 C1511 1.327 . S
C1509 C1515 1.429 . S
C1510 C1502 1.574 . S
C1510 H1505 0.949 . S
C1510 C1516 1.368 . S
C1511 C1495 1.349 . S
C1511 H1503 0.950 . S
C1511 C1509 1.327 . S
C1512 C1500 1.349 . S
C1512 H1506 0.950 . S
C1512 C1513 1.327 . S
C1513 H1507 0.950 . S
C1513 C1512 1.327 . S
C1513 C1517 1.429 . S
C1514 C1497 1.574 . S
C1514 H1508 0.949 . S
C1514 C1518 1.368 . S
C1515 C1496 1.429 . S
C1515 C1509 1.429 . S
C1515 C1516 1.523 . S
C1516 C1497 1.368 . S
C1516 C1510 1.368 . S
C1516 C1515 1.523 . S
C1517 C1501 1.429 . S
C1517 C1513 1.429 . S
C1517 C1518 1.523 . S
C1518 C1502 1.368 . S
C1518 C1514 1.368 . S
C1518 C1517 1.523 . S
H1519 C1494 0.950 . S
H1520 C1496 0.950 . S
H1521 C1497 0.949 . S
H1522 C1499 0.950 . S
H1523 C1501 0.950 . S
C1524 C1525 1.349 . S
C1524 C1526 1.327 . S
C1524 H1549 0.950 . S
C1525 C1524 1.349 . S
C1525 C1541 1.349 . S
C1526 C1524 1.327 . S
C1526 C1545 1.429 . S
C1526 H1550 0.950 . S
C1527 C1544 1.574 . S
C1527 C1546 1.368 . S
C1527 H1551 0.949 . S
H1528 C1532 0.949 . S
C1529 C1530 1.349 . S
C1529 C1531 1.327 . S
C1529 H1552 0.950 . S
C1530 C1529 1.349 . S
C1530 C1542 1.349 . S
C1531 C1529 1.327 . S
C1531 C1547 1.429 . S
C1531 H1553 0.950 . S
C1532 H1528 0.949 . S
C1532 C1540 1.574 . S
C1532 C1548 1.368 . S
H1533 C1541 0.950 . S
H1534 C1539 0.950 . S
H1535 C1540 0.949 . S
H1536 C1542 0.950 . S
H1537 C1543 0.950 . S
H1538 C1544 0.949 . S
C1539 H1534 0.950 . S
C1539 C1541 1.327 . S
C1539 C1545 1.429 . S
C1540 C1532 1.574 . S
C1540 H1535 0.949 . S
C1540 C1546 1.368 . S
C1541 C1525 1.349 . S
C1541 H1533 0.950 . S
C1541 C1539 1.327 . S
C1542 C1530 1.349 . S
C1542 H1536 0.950 . S
C1542 C1543 1.327 . S
C1543 H1537 0.950 . S
C1543 C1542 1.327 . S
C1543 C1547 1.429 . S
C1544 C1527 1.574 . S
C1544 H1538 0.949 . S
C1544 C1548 1.368 . S
C1545 C1526 1.429 . S
C1545 C1539 1.429 . S
C1545 C1546 1.523 . S
C1546 C1527 1.368 . S
C1546 C1540 1.368 . S
C1546 C1545 1.523 . S
C1547 C1531 1.429 . S
C1547 C1543 1.429 . S
C1547 C1548 1.523 . S
C1548 C1532 1.368 . S
C1548 C1544 1.368 . S
C1548 C1547 1.523 . S
H1549 C1524 0.950 . S
H1550 C1526 0.950 . S
H1551 C1527 0.949 . S
H1552 C1529 0.950 . S
H1553 C1531 0.950 . S
C1554 C1555 1.349 . S
C1554 C1556 1.327 . S
C1554 H1579 0.950 . S
C1555 C1554 1.349 . S
C1555 C1571 1.349 . S
C1556 C1554 1.327 . S
C1556 C1575 1.429 . S
C1556 H1580 0.950 . S
C1557 C1574 1.574 . S
C1557 C1576 1.368 . S
C1557 H1581 0.949 . S
H1558 C1562 0.949 . S
C1559 C1560 1.349 . S
C1559 C1561 1.327 . S
C1559 H1582 0.950 . S
C1560 C1559 1.349 . S
C1560 C1572 1.349 . S
C1561 C1559 1.327 . S
C1561 C1577 1.429 . S
C1561 H1583 0.950 . S
C1562 H1558 0.949 . S
C1562 C1570 1.574 . S
C1562 C1578 1.368 . S
H1563 C1571 0.950 . S
H1564 C1569 0.950 . S
H1565 C1570 0.949 . S
H1566 C1572 0.950 . S
H1567 C1573 0.950 . S
H1568 C1574 0.949 . S
C1569 H1564 0.950 . S
C1569 C1571 1.327 . S
C1569 C1575 1.429 . S
C1570 C1562 1.574 . S
C1570 H1565 0.949 . S
C1570 C1576 1.368 . S
C1571 C1555 1.349 . S
C1571 H1563 0.950 . S
C1571 C1569 1.327 . S
C1572 C1560 1.349 . S
C1572 H1566 0.950 . S
C1572 C1573 1.327 . S
C1573 H1567 0.950 . S
C1573 C1572 1.327 . S
C1573 C1577 1.429 . S
C1574 C1557 1.574 . S
C1574 H1568 0.949 . S
C1574 C1578 1.368 . S
C1575 C1556 1.429 . S
C1575 C1569 1.429 . S
C1575 C1576 1.523 . S
C1576 C1557 1.368 . S
C1576 C1570 1.368 . S
C1576 C1575 1.523 . S
C1577 C1561 1.429 . S
C1577 C1573 1.429 . S
C1577 C1578 1.523 . S
C1578 C1562 1.368 . S
C1578 C1574 1.368 . S
C1578 C1577 1.523 . S
H1579 C1554 0.950 . S
H1580 C1556 0.950 . S
H1581 C1557 0.949 . S
H1582 C1559 0.950 . S
H1583 C1561 0.950 . S
C1584 C1585 1.349 . S
C1584 C1586 1.327 . S
C1584 H1609 0.950 . S
C1585 C1584 1.349 . S
C1585 C1601 1.349 . S
C1586 C1584 1.327 . S
C1586 C1605 1.429 . S
C1586 H1610 0.950 . S
C1587 C1604 1.574 . S
C1587 C1606 1.368 . S
C1587 H1611 0.949 . S
H1588 C1592 0.949 . S
C1589 C1590 1.349 . S
C1589 C1591 1.327 . S
C1589 H1612 0.950 . S
C1590 C1589 1.349 . S
C1590 C1602 1.349 . S
C1591 C1589 1.327 . S
C1591 C1607 1.429 . S
C1591 H1613 0.950 . S
C1592 H1588 0.949 . S
C1592 C1600 1.574 . S
C1592 C1608 1.368 . S
H1593 C1601 0.950 . S
H1594 C1599 0.950 . S
H1595 C1600 0.949 . S
H1596 C1602 0.950 . S
H1597 C1603 0.950 . S
H1598 C1604 0.949 . S
C1599 H1594 0.950 . S
C1599 C1601 1.327 . S
C1599 C1605 1.429 . S
C1600 C1592 1.574 . S
C1600 H1595 0.949 . S
C1600 C1606 1.368 . S
C1601 C1585 1.349 . S
C1601 H1593 0.950 . S
C1601 C1599 1.327 . S
C1602 C1590 1.349 . S
C1602 H1596 0.950 . S
C1602 C1603 1.327 . S
C1603 H1597 0.950 . S
C1603 C1602 1.327 . S
C1603 C1607 1.429 . S
C1604 C1587 1.574 . S
C1604 H1598 0.949 . S
C1604 C1608 1.368 . S
C1605 C1586 1.429 . S
C1605 C1599 1.429 . S
C1605 C1606 1.523 . S
C1606 C1587 1.368 . S
C1606 C1600 1.368 . S
C1606 C1605 1.523 . S
C1607 C1591 1.429 . S
C1607 C1603 1.429 . S
C1607 C1608 1.523 . S
C1608 C1592 1.368 . S
C1608 C1604 1.368 . S
C1608 C1607 1.523 . S
H1609 C1584 0.950 . S
H1610 C1586 0.950 . S
H1611 C1587 0.949 . S
H1612 C1589 0.950 . S
H1613 C1591 0.950 . S
C1614 C1615 1.349 . S
C1614 C1616 1.327 . S
C1614 H1639 0.950 . S
C1615 C1614 1.349 . S
C1615 C1631 1.349 1_545 S
C1616 C1614 1.327 . S
C1616 C1635 1.429 . S
C1616 H1640 0.950 . S
C1617 C1634 1.574 . S
C1617 C1636 1.368 1_565 S
C1617 H1641 0.949 . S
H1618 C1622 0.949 . S
C1619 C1620 1.349 . S
C1619 C1621 1.327 . S
C1619 H1642 0.950 . S
C1620 C1619 1.349 . S
C1620 C1632 1.349 1_565 S
C1621 C1619 1.327 . S
C1621 C1637 1.429 . S
C1621 H1643 0.950 . S
C1622 H1618 0.949 . S
C1622 C1630 1.574 . S
C1622 C1638 1.325 1_545 S
H1623 C1631 0.950 . S
H1624 C1629 0.950 . S
H1625 C1630 0.949 . S
H1626 C1632 0.950 . S
H1627 C1633 0.950 . S
H1628 C1634 0.949 . S
C1629 H1624 0.950 . S
C1629 C1631 1.327 . S
C1629 C1635 1.429 1_565 S
C1630 C1622 1.574 . S
C1630 H1625 0.949 . S
C1630 C1636 1.368 . S
C1631 C1615 1.349 1_565 S
C1631 H1623 0.950 . S
C1631 C1629 1.327 . S
C1632 C1620 1.349 1_545 S
C1632 H1626 0.950 . S
C1632 C1633 1.327 . S
C1633 H1627 0.950 . S
C1633 C1632 1.327 . S
C1633 C1637 1.429 1_545 S
C1634 C1617 1.574 . S
C1634 H1628 0.949 . S
C1634 C1638 1.411 . S
C1635 C1616 1.429 . S
C1635 C1629 1.429 1_545 S
C1635 C1636 1.523 . S
C1636 C1617 1.368 1_545 S
C1636 C1630 1.368 . S
C1636 C1635 1.523 . S
C1637 C1621 1.429 . S
C1637 C1633 1.429 1_565 S
C1637 C1638 1.525 . S
C1638 C1622 1.325 1_565 S
C1638 C1634 1.411 . S
C1638 C1637 1.525 . S
H1639 C1614 0.950 . S
H1640 C1616 0.950 . S
H1641 C1617 0.949 . S
H1642 C1619 0.950 . S
H1643 C1621 0.950 . S
C1644 C1645 1.349 . S
C1644 C1646 1.327 . S
C1644 H1669 0.950 . S
C1645 C1644 1.349 . S
C1645 C1661 1.349 1_455 S
C1646 C1644 1.327 . S
C1646 C1665 1.429 . S
C1646 H1670 0.950 . S
C1647 C1664 1.574 . S
C1647 C1666 1.368 1_655 S
C1647 H1671 0.949 . S
H1648 C1652 0.949 . S
C1649 C1650 1.349 . S
C1649 C1651 1.327 . S
C1649 H1672 0.950 . S
C1650 C1649 1.349 . S
C1650 C1662 1.349 1_655 S
C1651 C1649 1.327 . S
C1651 C1667 1.429 . S
C1651 H1673 0.950 . S
C1652 H1648 0.949 . S
C1652 C1660 1.574 . S
C1652 C1668 1.346 1_455 S
H1653 C1661 0.950 . S
H1654 C1659 0.950 . S
H1655 C1660 0.949 . S
H1656 C1662 0.950 . S
H1657 C1663 0.950 . S
H1658 C1664 0.949 . S
C1659 H1654 0.950 . S
C1659 C1661 1.327 . S
C1659 C1665 1.429 1_655 S
C1660 C1652 1.574 . S
C1660 H1655 0.949 . S
C1660 C1666 1.368 . S
C1661 C1645 1.349 1_655 S
C1661 H1653 0.950 . S
C1661 C1659 1.327 . S
C1662 C1650 1.349 1_455 S
C1662 H1656 0.950 . S
C1662 C1663 1.327 . S
C1663 H1657 0.950 . S
C1663 C1662 1.327 . S
C1663 C1667 1.429 1_455 S
C1664 C1647 1.574 . S
C1664 H1658 0.949 . S
C1664 C1668 1.390 . S
C1665 C1646 1.429 . S
C1665 C1659 1.429 1_455 S
C1665 C1666 1.523 . S
C1666 C1647 1.368 1_455 S
C1666 C1660 1.368 . S
C1666 C1665 1.523 . S
C1667 C1651 1.429 . S
C1667 C1663 1.429 1_655 S
C1667 C1668 1.525 . S
C1668 C1652 1.346 1_655 S
C1668 C1664 1.390 . S
C1668 C1667 1.525 . S
H1669 C1644 0.950 . S
H1670 C1646 0.950 . S
H1671 C1647 0.949 . S
H1672 C1649 0.950 . S
H1673 C1651 0.950 . S
C1674 C1675 1.349 . S
C1674 C1676 1.327 . S
C1674 H1699 0.950 . S
C1675 C1674 1.349 . S
C1675 C1691 1.349 . S
C1676 C1674 1.327 . S
C1676 C1695 1.429 . S
C1676 H1700 0.950 . S
C1677 C1694 1.574 . S
C1677 C1696 1.368 . S
C1677 H1701 0.949 . S
H1678 C1682 0.949 . S
C1679 C1680 1.349 . S
C1679 C1681 1.327 . S
C1679 H1702 0.950 . S
C1680 C1679 1.349 . S
C1680 C1692 1.349 . S
C1681 C1679 1.327 . S
C1681 C1697 1.429 . S
C1681 H1703 0.950 . S
C1682 H1678 0.949 . S
C1682 C1690 1.574 . S
C1682 C1698 1.368 . S
H1683 C1691 0.950 . S
H1684 C1689 0.950 . S
H1685 C1690 0.949 . S
H1686 C1692 0.950 . S
H1687 C1693 0.950 . S
H1688 C1694 0.949 . S
C1689 H1684 0.950 . S
C1689 C1691 1.327 . S
C1689 C1695 1.429 . S
C1690 C1682 1.574 . S
C1690 H1685 0.949 . S
C1690 C1696 1.368 . S
C1691 C1675 1.349 . S
C1691 H1683 0.950 . S
C1691 C1689 1.327 . S
C1692 C1680 1.349 . S
C1692 H1686 0.950 . S
C1692 C1693 1.327 . S
C1693 H1687 0.950 . S
C1693 C1692 1.327 . S
C1693 C1697 1.429 . S
C1694 C1677 1.574 . S
C1694 H1688 0.949 . S
C1694 C1698 1.368 . S
C1695 C1676 1.429 . S
C1695 C1689 1.429 . S
C1695 C1696 1.523 . S
C1696 C1677 1.368 . S
C1696 C1690 1.368 . S
C1696 C1695 1.523 . S
C1697 C1681 1.429 . S
C1697 C1693 1.429 . S
C1697 C1698 1.523 . S
C1698 C1682 1.368 . S
C1698 C1694 1.368 . S
C1698 C1697 1.523 . S
H1699 C1674 0.950 . S
H1700 C1676 0.950 . S
H1701 C1677 0.949 . S
H1702 C1679 0.950 . S
H1703 C1681 0.950 . S
C1704 C1705 1.349 . S
C1704 C1706 1.327 . S
C1704 H1729 0.950 . S
C1705 C1704 1.349 . S
C1705 C1721 1.349 1_565 S
C1706 C1704 1.327 . S
C1706 C1725 1.429 . S
C1706 H1730 0.950 . S
C1707 C1724 1.574 . S
C1707 C1726 1.349 1_545 S
C1707 H1731 0.949 . S
H1708 C1712 0.949 . S
C1709 C1710 1.349 . S
C1709 C1711 1.327 . S
C1709 H1732 0.950 . S
C1710 C1709 1.349 . S
C1710 C1722 1.349 1_545 S
C1711 C1709 1.327 . S
C1711 C1727 1.429 . S
C1711 H1733 0.950 . S
C1712 H1708 0.949 . S
C1712 C1720 1.574 . S
C1712 C1728 1.368 1_565 S
H1713 C1721 0.950 . S
H1714 C1719 0.950 . S
H1715 C1720 0.949 . S
H1716 C1722 0.950 . S
H1717 C1723 0.950 . S
H1718 C1724 0.949 . S
C1719 H1714 0.950 . S
C1719 C1721 1.327 . S
C1719 C1725 1.429 1_545 S
C1720 C1712 1.574 . S
C1720 H1715 0.949 . S
C1720 C1726 1.388 . S
C1721 C1705 1.349 1_545 S
C1721 H1713 0.950 . S
C1721 C1719 1.327 . S
C1722 C1710 1.349 1_565 S
C1722 H1716 0.950 . S
C1722 C1723 1.327 . S
C1723 H1717 0.950 . S
C1723 C1722 1.327 . S
C1723 C1727 1.429 1_565 S
C1724 C1707 1.574 . S
C1724 H1718 0.949 . S
C1724 C1728 1.368 . S
C1725 C1706 1.429 . S
C1725 C1719 1.429 1_565 S
C1725 C1726 1.526 . S
C1726 C1707 1.349 1_565 S
C1726 C1720 1.388 . S
C1726 C1725 1.526 . S
C1727 C1711 1.429 . S
C1727 C1723 1.429 1_545 S
C1727 C1728 1.523 . S
C1728 C1712 1.368 1_545 S
C1728 C1724 1.368 . S
C1728 C1727 1.523 . S
H1729 C1704 0.950 . S
H1730 C1706 0.950 . S
H1731 C1707 0.949 . S
H1732 C1709 0.950 . S
H1733 C1711 0.950 . S
C1734 C1735 1.349 . S
C1734 C1736 1.330 . S
C1734 H1759 0.950 . S
C1735 C1734 1.349 . S
C1735 C1751 1.349 . S
C1736 C1734 1.330 . S
C1736 C1755 1.451 . S
C1736 H1760 0.907 1_655 S
C1737 C1754 1.574 . S
C1737 C1756 1.392 . S
C1737 H1761 0.949 . S
H1738 C1742 0.949 . S
C1739 C1740 1.349 . S
C1739 C1741 1.327 . S
C1739 H1762 0.950 . S
C1740 C1739 1.349 . S
C1740 C1752 1.349 . S
C1741 C1739 1.327 . S
C1741 C1757 1.429 . S
C1741 H1763 0.941 1_455 S
C1742 H1738 0.949 . S
C1742 C1750 1.574 . S
C1742 C1758 1.368 . S
H1743 C1751 0.950 . S
H1744 C1749 0.950 . S
H1745 C1750 0.949 . S
H1746 C1752 0.950 . S
H1747 C1753 0.950 . S
H1748 C1754 0.949 . S
C1749 H1744 0.950 . S
C1749 C1751 1.327 . S
C1749 C1755 1.429 . S
C1750 C1742 1.574 . S
C1750 H1745 0.949 . S
C1750 C1756 1.344 1_455 S
C1751 C1735 1.349 . S
C1751 H1743 0.950 . S
C1751 C1749 1.327 . S
C1752 C1740 1.349 . S
C1752 H1746 0.950 . S
C1752 C1753 1.327 . S
C1753 H1747 0.950 . S
C1753 C1752 1.327 . S
C1753 C1757 1.429 . S
C1754 C1737 1.574 . S
C1754 H1748 0.949 . S
C1754 C1758 1.368 1_655 S
C1755 C1736 1.451 . S
C1755 C1749 1.429 . S
C1755 C1756 1.525 . S
C1756 C1737 1.392 . S
C1756 C1750 1.344 1_655 S
C1756 C1755 1.525 . S
C1757 C1741 1.429 . S
C1757 C1753 1.429 . S
C1757 C1758 1.523 . S
C1758 C1742 1.368 . S
C1758 C1754 1.368 1_455 S
C1758 C1757 1.523 . S
H1759 C1734 0.950 . S
H1760 C1736 0.907 1_455 S
H1761 C1737 0.949 . S
H1762 C1739 0.950 . S
H1763 C1741 0.941 1_655 S
C1764 C1765 1.349 . S
C1764 C1766 1.327 . S
C1764 H1789 0.950 . S
C1765 C1764 1.349 . S
C1765 C1781 1.349 . S
C1766 C1764 1.327 . S
C1766 C1785 1.429 . S
C1766 H1790 0.950 . S
C1767 C1784 1.574 . S
C1767 C1786 1.368 . S
C1767 H1791 0.949 . S
H1768 C1772 0.949 . S
C1769 C1770 1.349 . S
C1769 C1771 1.327 . S
C1769 H1792 0.950 . S
C1770 C1769 1.349 . S
C1770 C1782 1.349 . S
C1771 C1769 1.327 . S
C1771 C1787 1.429 . S
C1771 H1793 0.950 . S
C1772 H1768 0.949 . S
C1772 C1780 1.574 . S
C1772 C1788 1.368 . S
H1773 C1781 0.950 . S
H1774 C1779 0.950 . S
H1775 C1780 0.949 . S
H1776 C1782 0.950 . S
H1777 C1783 0.950 . S
H1778 C1784 0.949 . S
C1779 H1774 0.950 . S
C1779 C1781 1.327 . S
C1779 C1785 1.429 . S
C1780 C1772 1.574 . S
C1780 H1775 0.949 . S
C1780 C1786 1.368 . S
C1781 C1765 1.349 . S
C1781 H1773 0.950 . S
C1781 C1779 1.327 . S
C1782 C1770 1.349 . S
C1782 H1776 0.950 . S
C1782 C1783 1.327 . S
C1783 H1777 0.950 . S
C1783 C1782 1.327 . S
C1783 C1787 1.429 . S
C1784 C1767 1.574 . S
C1784 H1778 0.949 . S
C1784 C1788 1.368 . S
C1785 C1766 1.429 . S
C1785 C1779 1.429 . S
C1785 C1786 1.523 . S
C1786 C1767 1.368 . S
C1786 C1780 1.368 . S
C1786 C1785 1.523 . S
C1787 C1771 1.429 . S
C1787 C1783 1.429 . S
C1787 C1788 1.523 . S
C1788 C1772 1.368 . S
C1788 C1784 1.368 . S
C1788 C1787 1.523 . S
H1789 C1764 0.950 . S
H1790 C1766 0.950 . S
H1791 C1767 0.949 . S
H1792 C1769 0.950 . S
H1793 C1771 0.950 . S
C1794 C1795 1.349 . S
C1794 C1796 1.327 . S
C1794 H1819 0.950 . S
C1795 C1794 1.349 . S
C1795 C1811 1.349 . S
C1796 C1794 1.327 . S
C1796 C1815 1.429 . S
C1796 H1820 0.950 . S
C1797 C1814 1.574 . S
C1797 C1816 1.368 . S
C1797 H1821 0.949 . S
H1798 C1802 0.949 . S
C1799 C1800 1.349 . S
C1799 C1801 1.327 . S
C1799 H1822 0.950 . S
C1800 C1799 1.349 . S
C1800 C1812 1.349 . S
C1801 C1799 1.327 . S
C1801 C1817 1.429 . S
C1801 H1823 0.950 . S
C1802 H1798 0.949 . S
C1802 C1810 1.574 . S
C1802 C1818 1.368 . S
H1803 C1811 0.950 . S
H1804 C1809 0.950 . S
H1805 C1810 0.949 . S
H1806 C1812 0.950 . S
H1807 C1813 0.950 . S
H1808 C1814 0.949 . S
C1809 H1804 0.950 . S
C1809 C1811 1.327 . S
C1809 C1815 1.429 . S
C1810 C1802 1.574 . S
C1810 H1805 0.949 . S
C1810 C1816 1.368 . S
C1811 C1795 1.349 . S
C1811 H1803 0.950 . S
C1811 C1809 1.327 . S
C1812 C1800 1.349 . S
C1812 H1806 0.950 . S
C1812 C1813 1.327 . S
C1813 H1807 0.950 . S
C1813 C1812 1.327 . S
C1813 C1817 1.429 . S
C1814 C1797 1.574 . S
C1814 H1808 0.949 . S
C1814 C1818 1.368 . S
C1815 C1796 1.429 . S
C1815 C1809 1.429 . S
C1815 C1816 1.523 . S
C1816 C1797 1.368 . S
C1816 C1810 1.368 . S
C1816 C1815 1.523 . S
C1817 C1801 1.429 . S
C1817 C1813 1.429 . S
C1817 C1818 1.523 . S
C1818 C1802 1.368 . S
C1818 C1814 1.368 . S
C1818 C1817 1.523 . S
H1819 C1794 0.950 . S
H1820 C1796 0.950 . S
H1821 C1797 0.949 . S
H1822 C1799 0.950 . S
H1823 C1801 0.950 . S
C1824 C1825 1.349 . S
C1824 C1826 1.327 . S
C1824 H1849 0.950 . S
C1825 C1824 1.349 . S
C1825 C1841 1.349 . S
C1826 C1824 1.327 . S
C1826 C1845 1.429 . S
C1826 H1850 0.950 . S
C1827 C1844 1.574 . S
C1827 C1846 1.368 . S
C1827 H1851 0.949 . S
H1828 C1832 0.949 . S
C1829 C1830 1.349 . S
C1829 C1831 1.327 . S
C1829 H1852 0.950 . S
C1830 C1829 1.349 . S
C1830 C1842 1.349 . S
C1831 C1829 1.327 . S
C1831 C1847 1.429 . S
C1831 H1853 0.950 . S
C1832 H1828 0.949 . S
C1832 C1840 1.574 . S
C1832 C1848 1.368 . S
H1833 C1841 0.950 . S
H1834 C1839 0.950 . S
H1835 C1840 0.949 . S
H1836 C1842 0.950 . S
H1837 C1843 0.950 . S
H1838 C1844 0.949 . S
C1839 H1834 0.950 . S
C1839 C1841 1.327 . S
C1839 C1845 1.429 . S
C1840 C1832 1.574 . S
C1840 H1835 0.949 . S
C1840 C1846 1.368 . S
C1841 C1825 1.349 . S
C1841 H1833 0.950 . S
C1841 C1839 1.327 . S
C1842 C1830 1.349 . S
C1842 H1836 0.950 . S
C1842 C1843 1.327 . S
C1843 H1837 0.950 . S
C1843 C1842 1.327 . S
C1843 C1847 1.429 . S
C1844 C1827 1.574 . S
C1844 H1838 0.949 . S
C1844 C1848 1.368 . S
C1845 C1826 1.429 . S
C1845 C1839 1.429 . S
C1845 C1846 1.523 . S
C1846 C1827 1.368 . S
C1846 C1840 1.368 . S
C1846 C1845 1.523 . S
C1847 C1831 1.429 . S
C1847 C1843 1.429 . S
C1847 C1848 1.523 . S
C1848 C1832 1.368 . S
C1848 C1844 1.368 . S
C1848 C1847 1.523 . S
H1849 C1824 0.950 . S
H1850 C1826 0.950 . S
H1851 C1827 0.949 . S
H1852 C1829 0.950 . S
H1853 C1831 0.950 . S
C1854 C1855 1.349 . S
C1854 C1856 1.327 . S
C1854 H1879 0.950 . S
C1855 C1854 1.349 . S
C1855 C1871 1.349 . S
C1856 C1854 1.327 . S
C1856 C1875 1.429 . S
C1856 H1880 0.950 . S
C1857 C1874 1.574 . S
C1857 C1876 1.368 . S
C1857 H1881 0.949 . S
H1858 C1862 0.949 . S
C1859 C1860 1.349 . S
C1859 C1861 1.327 . S
C1859 H1882 0.950 . S
C1860 C1859 1.349 . S
C1860 C1872 1.349 . S
C1861 C1859 1.327 . S
C1861 C1877 1.429 . S
C1861 H1883 0.950 . S
C1862 H1858 0.949 . S
C1862 C1870 1.574 . S
C1862 C1878 1.368 . S
H1863 C1871 0.950 . S
H1864 C1869 0.950 . S
H1865 C1870 0.949 . S
H1866 C1872 0.950 . S
H1867 C1873 0.950 . S
H1868 C1874 0.949 . S
C1869 H1864 0.950 . S
C1869 C1871 1.327 . S
C1869 C1875 1.429 . S
C1870 C1862 1.574 . S
C1870 H1865 0.949 . S
C1870 C1876 1.368 . S
C1871 C1855 1.349 . S
C1871 H1863 0.950 . S
C1871 C1869 1.327 . S
C1872 C1860 1.349 . S
C1872 H1866 0.950 . S
C1872 C1873 1.327 . S
C1873 H1867 0.950 . S
C1873 C1872 1.327 . S
C1873 C1877 1.429 . S
C1874 C1857 1.574 . S
C1874 H1868 0.949 . S
C1874 C1878 1.368 . S
C1875 C1856 1.429 . S
C1875 C1869 1.429 . S
C1875 C1876 1.523 . S
C1876 C1857 1.368 . S
C1876 C1870 1.368 . S
C1876 C1875 1.523 . S
C1877 C1861 1.429 . S
C1877 C1873 1.429 . S
C1877 C1878 1.523 . S
C1878 C1862 1.368 . S
C1878 C1874 1.368 . S
C1878 C1877 1.523 . S
H1879 C1854 0.950 . S
H1880 C1856 0.950 . S
H1881 C1857 0.949 . S
H1882 C1859 0.950 . S
H1883 C1861 0.950 . S
C1884 C1885 1.349 . S
C1884 C1886 1.327 . S
C1884 H1909 0.950 . S
C1885 C1884 1.349 . S
C1885 C1901 1.349 . S
C1886 C1884 1.327 . S
C1886 C1905 1.429 . S
C1886 H1910 0.950 . S
C1887 C1904 1.574 . S
C1887 C1906 1.368 . S
C1887 H1911 0.949 . S
H1888 C1892 0.949 . S
C1889 C1890 1.349 . S
C1889 C1891 1.327 . S
C1889 H1912 0.950 . S
C1890 C1889 1.349 . S
C1890 C1902 1.349 . S
C1891 C1889 1.327 . S
C1891 C1907 1.429 . S
C1891 H1913 0.950 . S
C1892 H1888 0.949 . S
C1892 C1900 1.574 . S
C1892 C1908 1.368 . S
H1893 C1901 0.950 . S
H1894 C1899 0.950 . S
H1895 C1900 0.949 . S
H1896 C1902 0.950 . S
H1897 C1903 0.950 . S
H1898 C1904 0.949 . S
C1899 H1894 0.950 . S
C1899 C1901 1.327 . S
C1899 C1905 1.429 . S
C1900 C1892 1.574 . S
C1900 H1895 0.949 . S
C1900 C1906 1.368 . S
C1901 C1885 1.349 . S
C1901 H1893 0.950 . S
C1901 C1899 1.327 . S
C1902 C1890 1.349 . S
C1902 H1896 0.950 . S
C1902 C1903 1.327 . S
C1903 H1897 0.950 . S
C1903 C1902 1.327 . S
C1903 C1907 1.429 . S
C1904 C1887 1.574 . S
C1904 H1898 0.949 . S
C1904 C1908 1.368 . S
C1905 C1886 1.429 . S
C1905 C1899 1.429 . S
C1905 C1906 1.523 . S
C1906 C1887 1.368 . S
C1906 C1900 1.368 . S
C1906 C1905 1.523 . S
C1907 C1891 1.429 . S
C1907 C1903 1.429 . S
C1907 C1908 1.523 . S
C1908 C1892 1.368 . S
C1908 C1904 1.368 . S
C1908 C1907 1.523 . S
H1909 C1884 0.950 . S
H1910 C1886 0.950 . S
H1911 C1887 0.949 . S
H1912 C1889 0.950 . S
H1913 C1891 0.950 . S
C1914 C1915 1.349 . S
C1914 C1916 1.327 . S
C1914 H1939 0.950 . S
C1915 C1914 1.349 . S
C1915 C1931 1.349 . S
C1916 C1914 1.327 . S
C1916 C1935 1.429 . S
C1916 H1940 0.950 . S
C1917 C1934 1.574 . S
C1917 C1936 1.368 . S
C1917 H1941 0.949 . S
H1918 C1922 0.949 . S
C1919 C1920 1.349 . S
C1919 C1921 1.327 . S
C1919 H1942 0.950 . S
C1920 C1919 1.349 . S
C1920 C1932 1.349 . S
C1921 C1919 1.327 . S
C1921 C1937 1.429 . S
C1921 H1943 0.950 . S
C1922 H1918 0.949 . S
C1922 C1930 1.574 . S
C1922 C1938 1.368 . S
H1923 C1931 0.950 . S
H1924 C1929 0.950 . S
H1925 C1930 0.949 . S
H1926 C1932 0.950 . S
H1927 C1933 0.950 . S
H1928 C1934 0.949 . S
C1929 H1924 0.950 . S
C1929 C1931 1.327 . S
C1929 C1935 1.429 . S
C1930 C1922 1.574 . S
C1930 H1925 0.949 . S
C1930 C1936 1.368 . S
C1931 C1915 1.349 . S
C1931 H1923 0.950 . S
C1931 C1929 1.327 . S
C1932 C1920 1.349 . S
C1932 H1926 0.950 . S
C1932 C1933 1.327 . S
C1933 H1927 0.950 . S
C1933 C1932 1.327 . S
C1933 C1937 1.429 . S
C1934 C1917 1.574 . S
C1934 H1928 0.949 . S
C1934 C1938 1.368 . S
C1935 C1916 1.429 . S
C1935 C1929 1.429 . S
C1935 C1936 1.523 . S
C1936 C1917 1.368 . S
C1936 C1930 1.368 . S
C1936 C1935 1.523 . S
C1937 C1921 1.429 . S
C1937 C1933 1.429 . S
C1937 C1938 1.523 . S
C1938 C1922 1.368 . S
C1938 C1934 1.368 . S
C1938 C1937 1.523 . S
H1939 C1914 0.950 . S
H1940 C1916 0.950 . S
H1941 C1917 0.949 . S
H1942 C1919 0.950 . S
H1943 C1921 0.950 . S
C1944 C1945 1.349 . S
C1944 C1946 1.327 . S
C1944 H1969 0.950 . S
C1945 C1944 1.349 . S
C1945 C1961 1.349 . S
C1946 C1944 1.327 . S
C1946 C1965 1.429 . S
C1946 H1970 0.950 . S
C1947 C1964 1.574 . S
C1947 C1966 1.368 . S
C1947 H1971 0.949 . S
H1948 C1952 0.949 . S
C1949 C1950 1.349 . S
C1949 C1951 1.327 . S
C1949 H1972 0.950 . S
C1950 C1949 1.349 . S
C1950 C1962 1.349 . S
C1951 C1949 1.327 . S
C1951 C1967 1.429 . S
C1951 H1973 0.950 . S
C1952 H1948 0.949 . S
C1952 C1960 1.574 . S
C1952 C1968 1.368 . S
H1953 C1961 0.950 . S
H1954 C1959 0.950 . S
H1955 C1960 0.949 . S
H1956 C1962 0.950 . S
H1957 C1963 0.950 . S
H1958 C1964 0.949 . S
C1959 H1954 0.950 . S
C1959 C1961 1.327 . S
C1959 C1965 1.429 . S
C1960 C1952 1.574 . S
C1960 H1955 0.949 . S
C1960 C1966 1.368 . S
C1961 C1945 1.349 . S
C1961 H1953 0.950 . S
C1961 C1959 1.327 . S
C1962 C1950 1.349 . S
C1962 H1956 0.950 . S
C1962 C1963 1.327 . S
C1963 H1957 0.950 . S
C1963 C1962 1.327 . S
C1963 C1967 1.429 . S
C1964 C1947 1.574 . S
C1964 H1958 0.949 . S
C1964 C1968 1.368 . S
C1965 C1946 1.429 . S
C1965 C1959 1.429 . S
C1965 C1966 1.523 . S
C1966 C1947 1.368 . S
C1966 C1960 1.368 . S
C1966 C1965 1.523 . S
C1967 C1951 1.429 . S
C1967 C1963 1.429 . S
C1967 C1968 1.523 . S
C1968 C1952 1.368 . S
C1968 C1964 1.368 . S
C1968 C1967 1.523 . S
H1969 C1944 0.950 . S
H1970 C1946 0.950 . S
H1971 C1947 0.949 . S
H1972 C1949 0.950 . S
H1973 C1951 0.950 . S
C1974 C1975 1.349 . S
C1974 C1976 1.327 . S
C1974 H1999 0.950 . S
C1975 C1974 1.349 . S
C1975 C1991 1.349 . S
C1976 C1974 1.327 . S
C1976 C1995 1.429 . S
C1976 H2000 0.950 . S
C1977 C1994 1.574 . S
C1977 C1996 1.368 . S
C1977 H2001 0.949 . S
H1978 C1982 0.949 . S
C1979 C1980 1.349 . S
C1979 C1981 1.327 . S
C1979 H2002 0.950 . S
C1980 C1979 1.349 . S
C1980 C1992 1.349 . S
C1981 C1979 1.327 . S
C1981 C1997 1.429 . S
C1981 H2003 0.950 . S
C1982 H1978 0.949 . S
C1982 C1990 1.574 . S
C1982 C1998 1.368 . S
H1983 C1991 0.950 . S
H1984 C1989 0.950 . S
H1985 C1990 0.949 . S
H1986 C1992 0.950 . S
H1987 C1993 0.950 . S
H1988 C1994 0.949 . S
C1989 H1984 0.950 . S
C1989 C1991 1.327 . S
C1989 C1995 1.429 . S
C1990 C1982 1.574 . S
C1990 H1985 0.949 . S
C1990 C1996 1.368 . S
C1991 C1975 1.349 . S
C1991 H1983 0.950 . S
C1991 C1989 1.327 . S
C1992 C1980 1.349 . S
C1992 H1986 0.950 . S
C1992 C1993 1.327 . S
C1993 H1987 0.950 . S
C1993 C1992 1.327 . S
C1993 C1997 1.429 . S
C1994 C1977 1.574 . S
C1994 H1988 0.949 . S
C1994 C1998 1.368 . S
C1995 C1976 1.429 . S
C1995 C1989 1.429 . S
C1995 C1996 1.523 . S
C1996 C1977 1.368 . S
C1996 C1990 1.368 . S
C1996 C1995 1.523 . S
C1997 C1981 1.429 . S
C1997 C1993 1.429 . S
C1997 C1998 1.523 . S
C1998 C1982 1.368 . S
C1998 C1994 1.368 . S
C1998 C1997 1.523 . S
H1999 C1974 0.950 . S
H2000 C1976 0.950 . S
H2001 C1977 0.949 . S
H2002 C1979 0.950 . S
H2003 C1981 0.950 . S
C2004 C2005 1.349 . S
C2004 C2006 1.327 . S
C2004 H2029 0.950 . S
C2005 C2004 1.349 . S
C2005 C2021 1.349 . S
C2006 C2004 1.327 . S
C2006 C2025 1.429 . S
C2006 H2030 0.950 . S
C2007 C2024 1.574 . S
C2007 C2026 1.368 . S
C2007 H2031 0.949 . S
H2008 C2012 0.949 . S
C2009 C2010 1.349 . S
C2009 C2011 1.327 . S
C2009 H2032 0.950 . S
C2010 C2009 1.349 . S
C2010 C2022 1.349 . S
C2011 C2009 1.327 . S
C2011 C2027 1.429 . S
C2011 H2033 0.950 . S
C2012 H2008 0.949 . S
C2012 C2020 1.574 . S
C2012 C2028 1.368 . S
H2013 C2021 0.950 . S
H2014 C2019 0.950 . S
H2015 C2020 0.949 . S
H2016 C2022 0.950 . S
H2017 C2023 0.950 . S
H2018 C2024 0.949 . S
C2019 H2014 0.950 . S
C2019 C2021 1.327 . S
C2019 C2025 1.429 . S
C2020 C2012 1.574 . S
C2020 H2015 0.949 . S
C2020 C2026 1.368 . S
C2021 C2005 1.349 . S
C2021 H2013 0.950 . S
C2021 C2019 1.327 . S
C2022 C2010 1.349 . S
C2022 H2016 0.950 . S
C2022 C2023 1.327 . S
C2023 H2017 0.950 . S
C2023 C2022 1.327 . S
C2023 C2027 1.429 . S
C2024 C2007 1.574 . S
C2024 H2018 0.949 . S
C2024 C2028 1.368 . S
C2025 C2006 1.429 . S
C2025 C2019 1.429 . S
C2025 C2026 1.523 . S
C2026 C2007 1.368 . S
C2026 C2020 1.368 . S
C2026 C2025 1.523 . S
C2027 C2011 1.429 . S
C2027 C2023 1.429 . S
C2027 C2028 1.523 . S
C2028 C2012 1.368 . S
C2028 C2024 1.368 . S
C2028 C2027 1.523 . S
H2029 C2004 0.950 . S
H2030 C2006 0.950 . S
H2031 C2007 0.949 . S
H2032 C2009 0.950 . S
H2033 C2011 0.950 . S
C2034 C2035 1.349 . S
C2034 C2036 1.327 . S
C2034 H2059 0.950 . S
C2035 C2034 1.349 . S
C2035 C2051 1.349 . S
C2036 C2034 1.327 . S
C2036 C2055 1.429 . S
C2036 H2060 0.950 . S
C2037 C2054 1.574 . S
C2037 C2056 1.368 . S
C2037 H2061 0.949 . S
H2038 C2042 0.949 . S
C2039 C2040 1.349 . S
C2039 C2041 1.327 . S
C2039 H2062 0.950 . S
C2040 C2039 1.349 . S
C2040 C2052 1.349 . S
C2041 C2039 1.327 . S
C2041 C2057 1.429 . S
C2041 H2063 0.950 . S
C2042 H2038 0.949 . S
C2042 C2050 1.574 . S
C2042 C2058 1.368 . S
H2043 C2051 0.950 . S
H2044 C2049 0.950 . S
H2045 C2050 0.949 . S
H2046 C2052 0.950 . S
H2047 C2053 0.950 . S
H2048 C2054 0.949 . S
C2049 H2044 0.950 . S
C2049 C2051 1.327 . S
C2049 C2055 1.429 . S
C2050 C2042 1.574 . S
C2050 H2045 0.949 . S
C2050 C2056 1.368 . S
C2051 C2035 1.349 . S
C2051 H2043 0.950 . S
C2051 C2049 1.327 . S
C2052 C2040 1.349 . S
C2052 H2046 0.950 . S
C2052 C2053 1.327 . S
C2053 H2047 0.950 . S
C2053 C2052 1.327 . S
C2053 C2057 1.429 . S
C2054 C2037 1.574 . S
C2054 H2048 0.949 . S
C2054 C2058 1.368 . S
C2055 C2036 1.429 . S
C2055 C2049 1.429 . S
C2055 C2056 1.523 . S
C2056 C2037 1.368 . S
C2056 C2050 1.368 . S
C2056 C2055 1.523 . S
C2057 C2041 1.429 . S
C2057 C2053 1.429 . S
C2057 C2058 1.523 . S
C2058 C2042 1.368 . S
C2058 C2054 1.368 . S
C2058 C2057 1.523 . S
H2059 C2034 0.950 . S
H2060 C2036 0.950 . S
H2061 C2037 0.949 . S
H2062 C2039 0.950 . S
H2063 C2041 0.950 . S
C2064 C2065 1.349 . S
C2064 C2066 1.327 . S
C2064 H2089 0.950 . S
C2065 C2064 1.349 . S
C2065 C2081 1.349 . S
C2066 C2064 1.327 . S
C2066 C2085 1.429 . S
C2066 H2090 0.950 . S
C2067 C2084 1.574 . S
C2067 C2086 1.368 . S
C2067 H2091 0.949 . S
H2068 C2072 0.949 . S
C2069 C2070 1.349 . S
C2069 C2071 1.327 . S
C2069 H2092 0.950 . S
C2070 C2069 1.349 . S
C2070 C2082 1.349 . S
C2071 C2069 1.327 . S
C2071 C2087 1.429 . S
C2071 H2093 0.950 . S
C2072 H2068 0.949 . S
C2072 C2080 1.574 . S
C2072 C2088 1.368 . S
H2073 C2081 0.950 . S
H2074 C2079 0.950 . S
H2075 C2080 0.949 . S
H2076 C2082 0.950 . S
H2077 C2083 0.950 . S
H2078 C2084 0.949 . S
C2079 H2074 0.950 . S
C2079 C2081 1.327 . S
C2079 C2085 1.429 . S
C2080 C2072 1.574 . S
C2080 H2075 0.949 . S
C2080 C2086 1.368 . S
C2081 C2065 1.349 . S
C2081 H2073 0.950 . S
C2081 C2079 1.327 . S
C2082 C2070 1.349 . S
C2082 H2076 0.950 . S
C2082 C2083 1.327 . S
C2083 H2077 0.950 . S
C2083 C2082 1.327 . S
C2083 C2087 1.429 . S
C2084 C2067 1.574 . S
C2084 H2078 0.949 . S
C2084 C2088 1.368 . S
C2085 C2066 1.429 . S
C2085 C2079 1.429 . S
C2085 C2086 1.523 . S
C2086 C2067 1.368 . S
C2086 C2080 1.368 . S
C2086 C2085 1.523 . S
C2087 C2071 1.429 . S
C2087 C2083 1.429 . S
C2087 C2088 1.523 . S
C2088 C2072 1.368 . S
C2088 C2084 1.368 . S
C2088 C2087 1.523 . S
H2089 C2064 0.950 . S
H2090 C2066 0.950 . S
H2091 C2067 0.949 . S
H2092 C2069 0.950 . S
H2093 C2071 0.950 . S
C2094 C2095 1.349 . S
C2094 C2096 1.327 . S
C2094 H2119 0.950 . S
C2095 C2094 1.349 . S
C2095 C2111 1.349 . S
C2096 C2094 1.327 . S
C2096 C2115 1.429 . S
C2096 H2120 0.950 . S
C2097 C2114 1.574 . S
C2097 C2116 1.368 . S
C2097 H2121 0.949 . S
H2098 C2102 0.949 . S
C2099 C2100 1.349 . S
C2099 C2101 1.327 . S
C2099 H2122 0.950 . S
C2100 C2099 1.349 . S
C2100 C2112 1.349 . S
C2101 C2099 1.327 . S
C2101 C2117 1.429 . S
C2101 H2123 0.950 . S
C2102 H2098 0.949 . S
C2102 C2110 1.574 . S
C2102 C2118 1.368 . S
H2103 C2111 0.950 . S
H2104 C2109 0.950 . S
H2105 C2110 0.949 . S
H2106 C2112 0.950 . S
H2107 C2113 0.950 . S
H2108 C2114 0.949 . S
C2109 H2104 0.950 . S
C2109 C2111 1.327 . S
C2109 C2115 1.429 . S
C2110 C2102 1.574 . S
C2110 H2105 0.949 . S
C2110 C2116 1.368 . S
C2111 C2095 1.349 . S
C2111 H2103 0.950 . S
C2111 C2109 1.327 . S
C2112 C2100 1.349 . S
C2112 H2106 0.950 . S
C2112 C2113 1.327 . S
C2113 H2107 0.950 . S
C2113 C2112 1.327 . S
C2113 C2117 1.429 . S
C2114 C2097 1.574 . S
C2114 H2108 0.949 . S
C2114 C2118 1.368 . S
C2115 C2096 1.429 . S
C2115 C2109 1.429 . S
C2115 C2116 1.523 . S
C2116 C2097 1.368 . S
C2116 C2110 1.368 . S
C2116 C2115 1.523 . S
C2117 C2101 1.429 . S
C2117 C2113 1.429 . S
C2117 C2118 1.523 . S
C2118 C2102 1.368 . S
C2118 C2114 1.368 . S
C2118 C2117 1.523 . S
H2119 C2094 0.950 . S
H2120 C2096 0.950 . S
H2121 C2097 0.949 . S
H2122 C2099 0.950 . S
H2123 C2101 0.950 . S
C2124 C2125 1.349 . S
C2124 C2126 1.327 . S
C2124 H2149 0.950 . S
C2125 C2124 1.349 . S
C2125 C2141 1.349 . S
C2126 C2124 1.327 . S
C2126 C2145 1.429 . S
C2126 H2150 0.950 . S
C2127 C2144 1.574 . S
C2127 C2146 1.368 . S
C2127 H2151 0.949 . S
H2128 C2132 0.949 . S
C2129 C2130 1.349 . S
C2129 C2131 1.327 . S
C2129 H2152 0.950 . S
C2130 C2129 1.349 . S
C2130 C2142 1.349 . S
C2131 C2129 1.327 . S
C2131 C2147 1.429 . S
C2131 H2153 0.950 . S
C2132 H2128 0.949 . S
C2132 C2140 1.574 . S
C2132 C2148 1.368 . S
H2133 C2141 0.950 . S
H2134 C2139 0.950 . S
H2135 C2140 0.949 . S
H2136 C2142 0.950 . S
H2137 C2143 0.950 . S
H2138 C2144 0.949 . S
C2139 H2134 0.950 . S
C2139 C2141 1.327 . S
C2139 C2145 1.429 . S
C2140 C2132 1.574 . S
C2140 H2135 0.949 . S
C2140 C2146 1.368 . S
C2141 C2125 1.349 . S
C2141 H2133 0.950 . S
C2141 C2139 1.327 . S
C2142 C2130 1.349 . S
C2142 H2136 0.950 . S
C2142 C2143 1.327 . S
C2143 H2137 0.950 . S
C2143 C2142 1.327 . S
C2143 C2147 1.429 . S
C2144 C2127 1.574 . S
C2144 H2138 0.949 . S
C2144 C2148 1.368 . S
C2145 C2126 1.429 . S
C2145 C2139 1.429 . S
C2145 C2146 1.523 . S
C2146 C2127 1.368 . S
C2146 C2140 1.368 . S
C2146 C2145 1.523 . S
C2147 C2131 1.429 . S
C2147 C2143 1.429 . S
C2147 C2148 1.523 . S
C2148 C2132 1.368 . S
C2148 C2144 1.368 . S
C2148 C2147 1.523 . S
H2149 C2124 0.950 . S
H2150 C2126 0.950 . S
H2151 C2127 0.949 . S
H2152 C2129 0.950 . S
H2153 C2131 0.950 . S
C2154 C2155 1.349 . S
C2154 C2156 1.327 . S
C2154 H2179 0.950 . S
C2155 C2154 1.349 . S
C2155 C2171 1.349 . S
C2156 C2154 1.327 . S
C2156 C2175 1.429 . S
C2156 H2180 0.950 . S
C2157 C2174 1.574 . S
C2157 C2176 1.368 . S
C2157 H2181 0.949 . S
H2158 C2162 0.949 . S
C2159 C2160 1.349 . S
C2159 C2161 1.327 . S
C2159 H2182 0.950 . S
C2160 C2159 1.349 . S
C2160 C2172 1.349 . S
C2161 C2159 1.327 . S
C2161 C2177 1.429 . S
C2161 H2183 0.950 . S
C2162 H2158 0.949 . S
C2162 C2170 1.574 . S
C2162 C2178 1.368 . S
H2163 C2171 0.950 . S
H2164 C2169 0.950 . S
H2165 C2170 0.949 . S
H2166 C2172 0.950 . S
H2167 C2173 0.950 . S
H2168 C2174 0.949 . S
C2169 H2164 0.950 . S
C2169 C2171 1.327 . S
C2169 C2175 1.429 . S
C2170 C2162 1.574 . S
C2170 H2165 0.949 . S
C2170 C2176 1.368 . S
C2171 C2155 1.349 . S
C2171 H2163 0.950 . S
C2171 C2169 1.327 . S
C2172 C2160 1.349 . S
C2172 H2166 0.950 . S
C2172 C2173 1.327 . S
C2173 H2167 0.950 . S
C2173 C2172 1.327 . S
C2173 C2177 1.429 . S
C2174 C2157 1.574 . S
C2174 H2168 0.949 . S
C2174 C2178 1.368 . S
C2175 C2156 1.429 . S
C2175 C2169 1.429 . S
C2175 C2176 1.523 . S
C2176 C2157 1.368 . S
C2176 C2170 1.368 . S
C2176 C2175 1.523 . S
C2177 C2161 1.429 . S
C2177 C2173 1.429 . S
C2177 C2178 1.523 . S
C2178 C2162 1.368 . S
C2178 C2174 1.368 . S
C2178 C2177 1.523 . S
H2179 C2154 0.950 . S
H2180 C2156 0.950 . S
H2181 C2157 0.949 . S
H2182 C2159 0.950 . S
H2183 C2161 0.950 . S
C2184 C2185 1.349 . S
C2184 C2186 1.327 . S
C2184 H2209 0.950 . S
C2185 C2184 1.349 . S
C2185 C2201 1.349 . S
C2186 C2184 1.327 . S
C2186 C2205 1.429 . S
C2186 H2210 0.950 . S
C2187 C2204 1.574 . S
C2187 C2206 1.368 . S
C2187 H2211 0.949 . S
H2188 C2192 0.949 . S
C2189 C2190 1.349 . S
C2189 C2191 1.327 . S
C2189 H2212 0.950 . S
C2190 C2189 1.349 . S
C2190 C2202 1.349 . S
C2191 C2189 1.327 . S
C2191 C2207 1.429 . S
C2191 H2213 0.950 . S
C2192 H2188 0.949 . S
C2192 C2200 1.574 . S
C2192 C2208 1.368 . S
H2193 C2201 0.950 . S
H2194 C2199 0.950 . S
H2195 C2200 0.949 . S
H2196 C2202 0.950 . S
H2197 C2203 0.950 . S
H2198 C2204 0.949 . S
C2199 H2194 0.950 . S
C2199 C2201 1.327 . S
C2199 C2205 1.429 . S
C2200 C2192 1.574 . S
C2200 H2195 0.949 . S
C2200 C2206 1.368 . S
C2201 C2185 1.349 . S
C2201 H2193 0.950 . S
C2201 C2199 1.327 . S
C2202 C2190 1.349 . S
C2202 H2196 0.950 . S
C2202 C2203 1.327 . S
C2203 H2197 0.950 . S
C2203 C2202 1.327 . S
C2203 C2207 1.429 . S
C2204 C2187 1.574 . S
C2204 H2198 0.949 . S
C2204 C2208 1.368 . S
C2205 C2186 1.429 . S
C2205 C2199 1.429 . S
C2205 C2206 1.523 . S
C2206 C2187 1.368 . S
C2206 C2200 1.368 . S
C2206 C2205 1.523 . S
C2207 C2191 1.429 . S
C2207 C2203 1.429 . S
C2207 C2208 1.523 . S
C2208 C2192 1.368 . S
C2208 C2204 1.368 . S
C2208 C2207 1.523 . S
H2209 C2184 0.950 . S
H2210 C2186 0.950 . S
H2211 C2187 0.949 . S
H2212 C2189 0.950 . S
H2213 C2191 0.950 . S
C2214 C2215 1.349 . S
C2214 C2216 1.327 . S
C2214 H2239 0.950 . S
C2215 C2214 1.349 . S
C2215 C2231 1.349 . S
C2216 C2214 1.327 . S
C2216 C2235 1.429 . S
C2216 H2240 0.950 . S
C2217 C2234 1.574 . S
C2217 C2236 1.368 . S
C2217 H2241 0.949 . S
H2218 C2222 0.949 . S
C2219 C2220 1.349 . S
C2219 C2221 1.327 . S
C2219 H2242 0.950 . S
C2220 C2219 1.349 . S
C2220 C2232 1.349 . S
C2221 C2219 1.327 . S
C2221 C2237 1.429 . S
C2221 H2243 0.950 . S
C2222 H2218 0.949 . S
C2222 C2230 1.574 . S
C2222 C2238 1.368 . S
H2223 C2231 0.950 . S
H2224 C2229 0.950 . S
H2225 C2230 0.949 . S
H2226 C2232 0.950 . S
H2227 C2233 0.950 . S
H2228 C2234 0.949 . S
C2229 H2224 0.950 . S
C2229 C2231 1.327 . S
C2229 C2235 1.429 . S
C2230 C2222 1.574 . S
C2230 H2225 0.949 . S
C2230 C2236 1.368 . S
C2231 C2215 1.349 . S
C2231 H2223 0.950 . S
C2231 C2229 1.327 . S
C2232 C2220 1.349 . S
C2232 H2226 0.950 . S
C2232 C2233 1.327 . S
C2233 H2227 0.950 . S
C2233 C2232 1.327 . S
C2233 C2237 1.429 . S
C2234 C2217 1.574 . S
C2234 H2228 0.949 . S
C2234 C2238 1.368 . S
C2235 C2216 1.429 . S
C2235 C2229 1.429 . S
C2235 C2236 1.523 . S
C2236 C2217 1.368 . S
C2236 C2230 1.368 . S
C2236 C2235 1.523 . S
C2237 C2221 1.429 . S
C2237 C2233 1.429 . S
C2237 C2238 1.523 . S
C2238 C2222 1.368 . S
C2238 C2234 1.368 . S
C2238 C2237 1.523 . S
H2239 C2214 0.950 . S
H2240 C2216 0.950 . S
H2241 C2217 0.949 . S
H2242 C2219 0.950 . S
H2243 C2221 0.950 . S
C2244 C2245 1.349 . S
C2244 C2246 1.327 . S
C2244 H2269 0.950 . S
C2245 C2244 1.349 . S
C2245 C2261 1.349 . S
C2246 C2244 1.327 . S
C2246 C2265 1.429 . S
C2246 H2270 0.950 . S
C2247 C2264 1.574 . S
C2247 C2266 1.368 . S
C2247 H2271 0.949 . S
H2248 C2252 0.949 . S
C2249 C2250 1.349 . S
C2249 C2251 1.327 . S
C2249 H2272 0.950 . S
C2250 C2249 1.349 . S
C2250 C2262 1.349 . S
C2251 C2249 1.327 . S
C2251 C2267 1.429 . S
C2251 H2273 0.950 . S
C2252 H2248 0.949 . S
C2252 C2260 1.574 . S
C2252 C2268 1.368 . S
H2253 C2261 0.950 . S
H2254 C2259 0.950 . S
H2255 C2260 0.949 . S
H2256 C2262 0.950 . S
H2257 C2263 0.950 . S
H2258 C2264 0.949 . S
C2259 H2254 0.950 . S
C2259 C2261 1.327 . S
C2259 C2265 1.429 . S
C2260 C2252 1.574 . S
C2260 H2255 0.949 . S
C2260 C2266 1.368 . S
C2261 C2245 1.349 . S
C2261 H2253 0.950 . S
C2261 C2259 1.327 . S
C2262 C2250 1.349 . S
C2262 H2256 0.950 . S
C2262 C2263 1.327 . S
C2263 H2257 0.950 . S
C2263 C2262 1.327 . S
C2263 C2267 1.429 . S
C2264 C2247 1.574 . S
C2264 H2258 0.949 . S
C2264 C2268 1.368 . S
C2265 C2246 1.429 . S
C2265 C2259 1.429 . S
C2265 C2266 1.523 . S
C2266 C2247 1.368 . S
C2266 C2260 1.368 . S
C2266 C2265 1.523 . S
C2267 C2251 1.429 . S
C2267 C2263 1.429 . S
C2267 C2268 1.523 . S
C2268 C2252 1.368 . S
C2268 C2264 1.368 . S
C2268 C2267 1.523 . S
H2269 C2244 0.950 . S
H2270 C2246 0.950 . S
H2271 C2247 0.949 . S
H2272 C2249 0.950 . S
H2273 C2251 0.950 . S
C2274 C2275 1.349 . S
C2274 C2276 1.327 . S
C2274 H2299 0.950 . S
C2275 C2274 1.349 . S
C2275 C2291 1.349 . S
C2276 C2274 1.327 . S
C2276 C2295 1.429 . S
C2276 H2300 0.950 . S
C2277 C2294 1.574 . S
C2277 C2296 1.368 . S
C2277 H2301 0.949 . S
H2278 C2282 0.949 . S
C2279 C2280 1.349 . S
C2279 C2281 1.327 . S
C2279 H2302 0.950 . S
C2280 C2279 1.349 . S
C2280 C2292 1.349 . S
C2281 C2279 1.327 . S
C2281 C2297 1.429 . S
C2281 H2303 0.950 . S
C2282 H2278 0.949 . S
C2282 C2290 1.574 . S
C2282 C2298 1.368 . S
H2283 C2291 0.950 . S
H2284 C2289 0.950 . S
H2285 C2290 0.949 . S
H2286 C2292 0.950 . S
H2287 C2293 0.950 . S
H2288 C2294 0.949 . S
C2289 H2284 0.950 . S
C2289 C2291 1.327 . S
C2289 C2295 1.429 . S
C2290 C2282 1.574 . S
C2290 H2285 0.949 . S
C2290 C2296 1.368 . S
C2291 C2275 1.349 . S
C2291 H2283 0.950 . S
C2291 C2289 1.327 . S
C2292 C2280 1.349 . S
C2292 H2286 0.950 . S
C2292 C2293 1.327 . S
C2293 H2287 0.950 . S
C2293 C2292 1.327 . S
C2293 C2297 1.429 . S
C2294 C2277 1.574 . S
C2294 H2288 0.949 . S
C2294 C2298 1.368 . S
C2295 C2276 1.429 . S
C2295 C2289 1.429 . S
C2295 C2296 1.523 . S
C2296 C2277 1.368 . S
C2296 C2290 1.368 . S
C2296 C2295 1.523 . S
C2297 C2281 1.429 . S
C2297 C2293 1.429 . S
C2297 C2298 1.523 . S
C2298 C2282 1.368 . S
C2298 C2294 1.368 . S
C2298 C2297 1.523 . S
H2299 C2274 0.950 . S
H2300 C2276 0.950 . S
H2301 C2277 0.949 . S
H2302 C2279 0.950 . S
H2303 C2281 0.950 . S
C2304 C2305 1.349 . S
C2304 C2306 1.327 . S
C2304 H2329 0.950 . S
C2305 C2304 1.349 . S
C2305 C2321 1.349 . S
C2306 C2304 1.327 . S
C2306 C2325 1.429 . S
C2306 H2330 0.950 . S
C2307 C2324 1.574 . S
C2307 C2326 1.368 . S
C2307 H2331 0.949 . S
H2308 C2312 0.949 . S
C2309 C2310 1.349 . S
C2309 C2311 1.327 . S
C2309 H2332 0.950 . S
C2310 C2309 1.349 . S
C2310 C2322 1.349 . S
C2311 C2309 1.327 . S
C2311 C2327 1.429 . S
C2311 H2333 0.950 . S
C2312 H2308 0.949 . S
C2312 C2320 1.574 . S
C2312 C2328 1.368 . S
H2313 C2321 0.950 . S
H2314 C2319 0.950 . S
H2315 C2320 0.949 . S
H2316 C2322 0.950 . S
H2317 C2323 0.950 . S
H2318 C2324 0.949 . S
C2319 H2314 0.950 . S
C2319 C2321 1.327 . S
C2319 C2325 1.429 . S
C2320 C2312 1.574 . S
C2320 H2315 0.949 . S
C2320 C2326 1.368 . S
C2321 C2305 1.349 . S
C2321 H2313 0.950 . S
C2321 C2319 1.327 . S
C2322 C2310 1.349 . S
C2322 H2316 0.950 . S
C2322 C2323 1.327 . S
C2323 H2317 0.950 . S
C2323 C2322 1.327 . S
C2323 C2327 1.429 . S
C2324 C2307 1.574 . S
C2324 H2318 0.949 . S
C2324 C2328 1.368 . S
C2325 C2306 1.429 . S
C2325 C2319 1.429 . S
C2325 C2326 1.523 . S
C2326 C2307 1.368 . S
C2326 C2320 1.368 . S
C2326 C2325 1.523 . S
C2327 C2311 1.429 . S
C2327 C2323 1.429 . S
C2327 C2328 1.523 . S
C2328 C2312 1.368 . S
C2328 C2324 1.368 . S
C2328 C2327 1.523 . S
H2329 C2304 0.950 . S
H2330 C2306 0.950 . S
H2331 C2307 0.949 . S
H2332 C2309 0.950 . S
H2333 C2311 0.950 . S
C2334 C2335 1.349 . S
C2334 C2336 1.327 . S
C2334 H2359 0.950 . S
C2335 C2334 1.349 . S
C2335 C2351 1.349 . S
C2336 C2334 1.327 . S
C2336 C2355 1.429 . S
C2336 H2360 0.950 . S
C2337 C2354 1.574 . S
C2337 C2356 1.368 . S
C2337 H2361 0.949 . S
H2338 C2342 0.949 . S
C2339 C2340 1.349 . S
C2339 C2341 1.327 . S
C2339 H2362 0.950 . S
C2340 C2339 1.349 . S
C2340 C2352 1.349 . S
C2341 C2339 1.327 . S
C2341 C2357 1.429 . S
C2341 H2363 0.950 . S
C2342 H2338 0.949 . S
C2342 C2350 1.574 . S
C2342 C2358 1.368 . S
H2343 C2351 0.950 . S
H2344 C2349 0.950 . S
H2345 C2350 0.949 . S
H2346 C2352 0.950 . S
H2347 C2353 0.950 . S
H2348 C2354 0.949 . S
C2349 H2344 0.950 . S
C2349 C2351 1.327 . S
C2349 C2355 1.429 . S
C2350 C2342 1.574 . S
C2350 H2345 0.949 . S
C2350 C2356 1.368 . S
C2351 C2335 1.349 . S
C2351 H2343 0.950 . S
C2351 C2349 1.327 . S
C2352 C2340 1.349 . S
C2352 H2346 0.950 . S
C2352 C2353 1.327 . S
C2353 H2347 0.950 . S
C2353 C2352 1.327 . S
C2353 C2357 1.429 . S
C2354 C2337 1.574 . S
C2354 H2348 0.949 . S
C2354 C2358 1.368 . S
C2355 C2336 1.429 . S
C2355 C2349 1.429 . S
C2355 C2356 1.523 . S
C2356 C2337 1.368 . S
C2356 C2350 1.368 . S
C2356 C2355 1.523 . S
C2357 C2341 1.429 . S
C2357 C2353 1.429 . S
C2357 C2358 1.523 . S
C2358 C2342 1.368 . S
C2358 C2354 1.368 . S
C2358 C2357 1.523 . S
H2359 C2334 0.950 . S
H2360 C2336 0.950 . S
H2361 C2337 0.949 . S
H2362 C2339 0.950 . S
H2363 C2341 0.950 . S
C2364 C2365 1.349 . S
C2364 C2366 1.327 . S
C2364 H2389 0.950 . S
C2365 C2364 1.349 . S
C2365 C2381 1.349 . S
C2366 C2364 1.327 . S
C2366 C2385 1.429 . S
C2366 H2390 0.950 . S
C2367 C2384 1.574 . S
C2367 C2386 1.368 . S
C2367 H2391 0.949 . S
H2368 C2372 0.949 . S
C2369 C2370 1.349 . S
C2369 C2371 1.327 . S
C2369 H2392 0.950 . S
C2370 C2369 1.349 . S
C2370 C2382 1.349 . S
C2371 C2369 1.327 . S
C2371 C2387 1.429 . S
C2371 H2393 0.950 . S
C2372 H2368 0.949 . S
C2372 C2380 1.574 . S
C2372 C2388 1.368 . S
H2373 C2381 0.950 . S
H2374 C2379 0.950 . S
H2375 C2380 0.949 . S
H2376 C2382 0.950 . S
H2377 C2383 0.950 . S
H2378 C2384 0.949 . S
C2379 H2374 0.950 . S
C2379 C2381 1.327 . S
C2379 C2385 1.429 . S
C2380 C2372 1.574 . S
C2380 H2375 0.949 . S
C2380 C2386 1.368 . S
C2381 C2365 1.349 . S
C2381 H2373 0.950 . S
C2381 C2379 1.327 . S
C2382 C2370 1.349 . S
C2382 H2376 0.950 . S
C2382 C2383 1.327 . S
C2383 H2377 0.950 . S
C2383 C2382 1.327 . S
C2383 C2387 1.429 . S
C2384 C2367 1.574 . S
C2384 H2378 0.949 . S
C2384 C2388 1.368 . S
C2385 C2366 1.429 . S
C2385 C2379 1.429 . S
C2385 C2386 1.523 . S
C2386 C2367 1.368 . S
C2386 C2380 1.368 . S
C2386 C2385 1.523 . S
C2387 C2371 1.429 . S
C2387 C2383 1.429 . S
C2387 C2388 1.523 . S
C2388 C2372 1.368 . S
C2388 C2384 1.368 . S
C2388 C2387 1.523 . S
H2389 C2364 0.950 . S
H2390 C2366 0.950 . S
H2391 C2367 0.949 . S
H2392 C2369 0.950 . S
H2393 C2371 0.950 . S
C2394 C2395 1.349 . S
C2394 C2396 1.327 . S
C2394 H2419 0.950 . S
C2395 C2394 1.349 . S
C2395 C2411 1.349 . S
C2396 C2394 1.327 . S
C2396 C2415 1.429 . S
C2396 H2420 0.950 . S
C2397 C2414 1.574 . S
C2397 C2416 1.368 . S
C2397 H2421 0.949 . S
H2398 C2402 0.949 . S
C2399 C2400 1.349 . S
C2399 C2401 1.327 . S
C2399 H2422 0.950 . S
C2400 C2399 1.349 . S
C2400 C2412 1.349 . S
C2401 C2399 1.327 . S
C2401 C2417 1.429 . S
C2401 H2423 0.950 . S
C2402 H2398 0.949 . S
C2402 C2410 1.574 . S
C2402 C2418 1.368 . S
H2403 C2411 0.950 . S
H2404 C2409 0.950 . S
H2405 C2410 0.949 . S
H2406 C2412 0.950 . S
H2407 C2413 0.950 . S
H2408 C2414 0.949 . S
C2409 H2404 0.950 . S
C2409 C2411 1.327 . S
C2409 C2415 1.429 . S
C2410 C2402 1.574 . S
C2410 H2405 0.949 . S
C2410 C2416 1.368 . S
C2411 C2395 1.349 . S
C2411 H2403 0.950 . S
C2411 C2409 1.327 . S
C2412 C2400 1.349 . S
C2412 H2406 0.950 . S
C2412 C2413 1.327 . S
C2413 H2407 0.950 . S
C2413 C2412 1.327 . S
C2413 C2417 1.429 . S
C2414 C2397 1.574 . S
C2414 H2408 0.949 . S
C2414 C2418 1.368 . S
C2415 C2396 1.429 . S
C2415 C2409 1.429 . S
C2415 C2416 1.523 . S
C2416 C2397 1.368 . S
C2416 C2410 1.368 . S
C2416 C2415 1.523 . S
C2417 C2401 1.429 . S
C2417 C2413 1.429 . S
C2417 C2418 1.523 . S
C2418 C2402 1.368 . S
C2418 C2414 1.368 . S
C2418 C2417 1.523 . S
H2419 C2394 0.950 . S
H2420 C2396 0.950 . S
H2421 C2397 0.949 . S
H2422 C2399 0.950 . S
H2423 C2401 0.950 . S
C2424 C2425 1.349 . S
C2424 C2426 1.327 . S
C2424 H2449 0.950 . S
C2425 C2424 1.349 . S
C2425 C2441 1.349 . S
C2426 C2424 1.327 . S
C2426 C2445 1.429 . S
C2426 H2450 0.950 . S
C2427 C2444 1.574 . S
C2427 C2446 1.368 . S
C2427 H2451 0.949 . S
H2428 C2432 0.949 . S
C2429 C2430 1.349 . S
C2429 C2431 1.327 . S
C2429 H2452 0.950 . S
C2430 C2429 1.349 . S
C2430 C2442 1.349 . S
C2431 C2429 1.327 . S
C2431 C2447 1.429 . S
C2431 H2453 0.950 . S
C2432 H2428 0.949 . S
C2432 C2440 1.574 . S
C2432 C2448 1.368 . S
H2433 C2441 0.950 . S
H2434 C2439 0.950 . S
H2435 C2440 0.949 . S
H2436 C2442 0.950 . S
H2437 C2443 0.950 . S
H2438 C2444 0.949 . S
C2439 H2434 0.950 . S
C2439 C2441 1.327 . S
C2439 C2445 1.429 . S
C2440 C2432 1.574 . S
C2440 H2435 0.949 . S
C2440 C2446 1.368 . S
C2441 C2425 1.349 . S
C2441 H2433 0.950 . S
C2441 C2439 1.327 . S
C2442 C2430 1.349 . S
C2442 H2436 0.950 . S
C2442 C2443 1.327 . S
C2443 H2437 0.950 . S
C2443 C2442 1.327 . S
C2443 C2447 1.429 . S
C2444 C2427 1.574 . S
C2444 H2438 0.949 . S
C2444 C2448 1.368 . S
C2445 C2426 1.429 . S
C2445 C2439 1.429 . S
C2445 C2446 1.523 . S
C2446 C2427 1.368 . S
C2446 C2440 1.368 . S
C2446 C2445 1.523 . S
C2447 C2431 1.429 . S
C2447 C2443 1.429 . S
C2447 C2448 1.523 . S
C2448 C2432 1.368 . S
C2448 C2444 1.368 . S
C2448 C2447 1.523 . S
H2449 C2424 0.950 . S
H2450 C2426 0.950 . S
H2451 C2427 0.949 . S
H2452 C2429 0.950 . S
H2453 C2431 0.950 . S
C2454 C2455 1.349 . S
C2454 C2456 1.327 . S
C2454 H2479 0.950 . S
C2455 C2454 1.349 . S
C2455 C2471 1.349 . S
C2456 C2454 1.327 . S
C2456 C2475 1.429 . S
C2456 H2480 0.950 . S
C2457 C2474 1.574 . S
C2457 C2476 1.368 . S
C2457 H2481 0.949 . S
H2458 C2462 0.949 . S
C2459 C2460 1.349 . S
C2459 C2461 1.327 . S
C2459 H2482 0.950 . S
C2460 C2459 1.349 . S
C2460 C2472 1.349 . S
C2461 C2459 1.327 . S
C2461 C2477 1.429 . S
C2461 H2483 0.950 . S
C2462 H2458 0.949 . S
C2462 C2470 1.574 . S
C2462 C2478 1.368 . S
H2463 C2471 0.950 . S
H2464 C2469 0.950 . S
H2465 C2470 0.949 . S
H2466 C2472 0.950 . S
H2467 C2473 0.950 . S
H2468 C2474 0.949 . S
C2469 H2464 0.950 . S
C2469 C2471 1.327 . S
C2469 C2475 1.429 . S
C2470 C2462 1.574 . S
C2470 H2465 0.949 . S
C2470 C2476 1.368 . S
C2471 C2455 1.349 . S
C2471 H2463 0.950 . S
C2471 C2469 1.327 . S
C2472 C2460 1.349 . S
C2472 H2466 0.950 . S
C2472 C2473 1.327 . S
C2473 H2467 0.950 . S
C2473 C2472 1.327 . S
C2473 C2477 1.429 . S
C2474 C2457 1.574 . S
C2474 H2468 0.949 . S
C2474 C2478 1.368 . S
C2475 C2456 1.429 . S
C2475 C2469 1.429 . S
C2475 C2476 1.523 . S
C2476 C2457 1.368 . S
C2476 C2470 1.368 . S
C2476 C2475 1.523 . S
C2477 C2461 1.429 . S
C2477 C2473 1.429 . S
C2477 C2478 1.523 . S
C2478 C2462 1.368 . S
C2478 C2474 1.368 . S
C2478 C2477 1.523 . S
H2479 C2454 0.950 . S
H2480 C2456 0.950 . S
H2481 C2457 0.949 . S
H2482 C2459 0.950 . S
H2483 C2461 0.950 . S
C2484 C2485 1.349 . S
C2484 C2486 1.327 . S
C2484 H2509 0.950 . S
C2485 C2484 1.349 . S
C2485 C2501 1.349 . S
C2486 C2484 1.327 . S
C2486 C2505 1.429 . S
C2486 H2510 0.950 . S
C2487 C2504 1.574 1_455 S
C2487 C2506 1.368 . S
C2487 H2511 0.949 . S
H2488 C2492 0.949 . S
C2489 C2490 1.349 . S
C2489 C2491 1.327 . S
C2489 H2512 0.950 . S
C2490 C2489 1.349 . S
C2490 C2502 1.349 . S
C2491 C2489 1.327 . S
C2491 C2507 1.429 . S
C2491 H2513 0.950 . S
C2492 H2488 0.949 . S
C2492 C2500 1.574 1_655 S
C2492 C2508 1.368 . S
H2493 C2501 0.950 . S
H2494 C2499 0.950 . S
H2495 C2500 0.949 . S
H2496 C2502 0.950 . S
H2497 C2503 0.950 . S
H2498 C2504 0.949 . S
C2499 H2494 0.950 . S
C2499 C2501 1.327 . S
C2499 C2505 1.429 . S
C2500 C2492 1.574 1_455 S
C2500 H2495 0.949 . S
C2500 C2506 1.368 . S
C2501 C2485 1.349 . S
C2501 H2493 0.950 . S
C2501 C2499 1.327 . S
C2502 C2490 1.349 . S
C2502 H2496 0.950 . S
C2502 C2503 1.327 . S
C2503 H2497 0.950 . S
C2503 C2502 1.327 . S
C2503 C2507 1.429 . S
C2504 C2487 1.574 1_655 S
C2504 H2498 0.949 . S
C2504 C2508 1.368 . S
C2505 C2486 1.429 . S
C2505 C2499 1.429 . S
C2505 C2506 1.523 . S
C2506 C2487 1.368 . S
C2506 C2500 1.368 . S
C2506 C2505 1.523 . S
C2507 C2491 1.429 . S
C2507 C2503 1.429 . S
C2507 C2508 1.523 . S
C2508 C2492 1.368 . S
C2508 C2504 1.368 . S
C2508 C2507 1.523 . S
H2509 C2484 0.950 . S
H2510 C2486 0.950 . S
H2511 C2487 0.949 . S
H2512 C2489 0.950 . S
H2513 C2491 0.950 . S
C2514 C2515 1.349 . S
C2514 C2516 1.327 . S
C2514 H2539 0.950 . S
C2515 C2514 1.349 . S
C2515 C2531 1.349 . S
C2516 C2514 1.327 . S
C2516 C2535 1.429 . S
C2516 H2540 0.950 . S
C2517 C2534 1.574 . S
C2517 C2536 1.368 . S
C2517 H2541 0.949 . S
H2518 C2522 0.949 . S
C2519 C2520 1.349 . S
C2519 C2521 1.327 . S
C2519 H2542 0.950 . S
C2520 C2519 1.349 . S
C2520 C2532 1.349 . S
C2521 C2519 1.327 . S
C2521 C2537 1.429 . S
C2521 H2543 0.950 . S
C2522 H2518 0.949 . S
C2522 C2530 1.574 . S
C2522 C2538 1.368 . S
H2523 C2531 0.950 . S
H2524 C2529 0.950 . S
H2525 C2530 0.949 . S
H2526 C2532 0.950 . S
H2527 C2533 0.950 . S
H2528 C2534 0.949 . S
C2529 H2524 0.950 . S
C2529 C2531 1.327 . S
C2529 C2535 1.429 . S
C2530 C2522 1.574 . S
C2530 H2525 0.949 . S
C2530 C2536 1.368 . S
C2531 C2515 1.349 . S
C2531 H2523 0.950 . S
C2531 C2529 1.327 . S
C2532 C2520 1.349 . S
C2532 H2526 0.950 . S
C2532 C2533 1.327 . S
C2533 H2527 0.950 . S
C2533 C2532 1.327 . S
C2533 C2537 1.429 . S
C2534 C2517 1.574 . S
C2534 H2528 0.949 . S
C2534 C2538 1.368 . S
C2535 C2516 1.429 . S
C2535 C2529 1.429 . S
C2535 C2536 1.523 . S
C2536 C2517 1.368 . S
C2536 C2530 1.368 . S
C2536 C2535 1.523 . S
C2537 C2521 1.429 . S
C2537 C2533 1.429 . S
C2537 C2538 1.523 . S
C2538 C2522 1.368 . S
C2538 C2534 1.368 . S
C2538 C2537 1.523 . S
H2539 C2514 0.950 . S
H2540 C2516 0.950 . S
H2541 C2517 0.949 . S
H2542 C2519 0.950 . S
H2543 C2521 0.950 . S
C2544 C2545 1.349 . S
C2544 C2546 1.327 . S
C2544 H2569 0.950 . S
C2545 C2544 1.349 . S
C2545 C2561 1.349 . S
C2546 C2544 1.327 . S
C2546 C2565 1.429 . S
C2546 H2570 0.950 . S
C2547 C2564 1.574 1_545 S
C2547 C2566 1.368 . S
C2547 H2571 0.949 . S
H2548 C2552 0.949 . S
C2549 C2550 1.349 . S
C2549 C2551 1.327 . S
C2549 H2572 0.950 . S
C2550 C2549 1.349 . S
C2550 C2562 1.349 . S
C2551 C2549 1.327 . S
C2551 C2567 1.429 . S
C2551 H2573 0.950 . S
C2552 H2548 0.949 . S
C2552 C2560 1.574 1_565 S
C2552 C2568 1.368 . S
H2553 C2561 0.950 . S
H2554 C2559 0.950 . S
H2555 C2560 0.949 . S
H2556 C2562 0.950 . S
H2557 C2563 0.950 . S
H2558 C2564 0.949 . S
C2559 H2554 0.950 . S
C2559 C2561 1.327 . S
C2559 C2565 1.429 . S
C2560 C2552 1.574 1_545 S
C2560 H2555 0.949 . S
C2560 C2566 1.368 . S
C2561 C2545 1.349 . S
C2561 H2553 0.950 . S
C2561 C2559 1.327 . S
C2562 C2550 1.349 . S
C2562 H2556 0.950 . S
C2562 C2563 1.327 . S
C2563 H2557 0.950 . S
C2563 C2562 1.327 . S
C2563 C2567 1.429 . S
C2564 C2547 1.574 1_565 S
C2564 H2558 0.949 . S
C2564 C2568 1.368 . S
C2565 C2546 1.429 . S
C2565 C2559 1.429 . S
C2565 C2566 1.523 . S
C2566 C2547 1.368 . S
C2566 C2560 1.368 . S
C2566 C2565 1.523 . S
C2567 C2551 1.429 . S
C2567 C2563 1.429 . S
C2567 C2568 1.523 . S
C2568 C2552 1.368 . S
C2568 C2564 1.368 . S
C2568 C2567 1.523 . S
H2569 C2544 0.950 . S
H2570 C2546 0.950 . S
H2571 C2547 0.949 . S
H2572 C2549 0.950 . S
H2573 C2551 0.950 . S
C2574 C2575 1.294 1_554 S
C2574 C2576 1.327 . S
C2574 H2599 0.950 . S
C2575 C2574 1.294 1_556 S
C2575 C2591 1.405 . S
C2576 C2574 1.327 . S
C2576 C2595 1.386 1_554 S
C2576 H2600 0.950 . S
C2577 C2594 1.574 1_545 S
C2577 C2596 1.409 . S
C2577 H2601 0.949 . S
H2578 C2582 0.949 . S
C2579 C2580 1.359 . S
C2579 C2581 1.327 . S
C2579 H2602 0.950 . S
C2580 C2579 1.359 . S
C2580 C2592 1.339 1_556 S
C2581 C2579 1.327 . S
C2581 C2597 1.449 . S
C2581 H2603 0.950 . S
C2582 H2578 0.949 . S
C2582 C2590 1.574 1_565 S
C2582 C2598 1.339 1_554 S
H2583 C2591 0.950 . S
H2584 C2589 0.950 . S
H2585 C2590 0.949 . S
H2586 C2592 0.950 . S
H2587 C2593 0.950 . S
H2588 C2594 0.949 . S
C2589 H2584 0.950 . S
C2589 C2591 1.327 . S
C2589 C2595 1.472 . S
C2590 C2582 1.574 1_545 S
C2590 H2585 0.949 . S
C2590 C2596 1.328 1_554 S
C2591 C2575 1.405 . S
C2591 H2583 0.950 . S
C2591 C2589 1.327 . S
C2592 C2580 1.339 1_554 S
C2592 H2586 0.950 . S
C2592 C2593 1.327 . S
C2593 H2587 0.950 . S
C2593 C2592 1.327 . S
C2593 C2597 1.408 1_554 S
C2594 C2577 1.574 1_565 S
C2594 H2588 0.949 . S
C2594 C2598 1.398 . S
C2595 C2576 1.386 1_556 S
C2595 C2589 1.472 . S
C2595 C2596 1.523 . S
C2596 C2577 1.409 . S
C2596 C2590 1.328 1_556 S
C2596 C2595 1.523 . S
C2597 C2581 1.449 . S
C2597 C2593 1.408 1_556 S
C2597 C2598 1.523 . S
C2598 C2582 1.339 1_556 S
C2598 C2594 1.398 . S
C2598 C2597 1.523 . S
H2599 C2574 0.950 . S
H2600 C2576 0.950 . S
H2601 C2577 0.949 . S
H2602 C2579 0.950 . S
H2603 C2581 0.950 . S
C2604 C2605 1.294 1_554 S
C2604 C2606 1.327 . S
C2604 H2629 0.950 . S
C2605 C2604 1.294 1_556 S
C2605 C2621 1.405 . S
C2606 C2604 1.327 . S
C2606 C2625 1.387 1_554 S
C2606 H2630 0.950 . S
C2607 C2624 1.574 1_655 S
C2607 C2626 1.409 . S
C2607 H2631 0.949 . S
H2608 C2612 0.949 . S
C2609 C2610 1.358 . S
C2609 C2611 1.327 . S
C2609 H2632 0.950 . S
C2610 C2609 1.358 . S
C2610 C2622 1.340 1_556 S
C2611 C2609 1.327 . S
C2611 C2627 1.449 . S
C2611 H2633 0.950 . S
C2612 H2608 0.949 . S
C2612 C2620 1.574 1_455 S
C2612 C2628 1.340 1_554 S
H2613 C2621 0.950 . S
H2614 C2619 0.950 . S
H2615 C2620 0.949 . S
H2616 C2622 0.950 . S
H2617 C2623 0.950 . S
H2618 C2624 0.949 . S
C2619 H2614 0.950 . S
C2619 C2621 1.327 . S
C2619 C2625 1.472 . S
C2620 C2612 1.574 1_655 S
C2620 H2615 0.949 . S
C2620 C2626 1.328 1_554 S
C2621 C2605 1.405 . S
C2621 H2613 0.950 . S
C2621 C2619 1.327 . S
C2622 C2610 1.340 1_554 S
C2622 H2616 0.950 . S
C2622 C2623 1.327 . S
C2623 H2617 0.950 . S
C2623 C2622 1.327 . S
C2623 C2627 1.409 1_554 S
C2624 C2607 1.574 1_455 S
C2624 H2618 0.949 . S
C2624 C2628 1.397 . S
C2625 C2606 1.387 1_556 S
C2625 C2619 1.472 . S
C2625 C2626 1.523 . S
C2626 C2607 1.409 . S
C2626 C2620 1.328 1_556 S
C2626 C2625 1.523 . S
C2627 C2611 1.449 . S
C2627 C2623 1.409 1_556 S
C2627 C2628 1.523 . S
C2628 C2612 1.340 1_556 S
C2628 C2624 1.397 . S
C2628 C2627 1.523 . S
H2629 C2604 0.950 . S
H2630 C2606 0.950 . S
H2631 C2607 0.949 . S
H2632 C2609 0.950 . S
H2633 C2611 0.950 . S
C2634 C2635 1.358 . S
C2634 C2636 1.327 . S
C2634 H2659 0.950 . S
C2635 C2634 1.358 . S
C2635 C2651 1.340 1_556 S
C2636 C2634 1.327 . S
C2636 C2655 1.449 . S
C2636 H2660 0.950 . S
C2637 C2654 1.574 . S
C2637 C2656 1.339 1_554 S
C2637 H2661 0.949 . S
H2638 C2642 0.949 . S
C2639 C2640 1.293 1_554 S
C2639 C2641 1.327 . S
C2639 H2662 0.950 . S
C2640 C2639 1.293 1_556 S
C2640 C2652 1.406 . S
C2641 C2639 1.327 . S
C2641 C2657 1.386 1_554 S
C2641 H2663 0.950 . S
C2642 H2638 0.949 . S
C2642 C2650 1.574 . S
C2642 C2658 1.410 . S
H2643 C2651 0.950 . S
H2644 C2649 0.950 . S
H2645 C2650 0.949 . S
H2646 C2652 0.950 . S
H2647 C2653 0.950 . S
H2648 C2654 0.949 . S
C2649 H2644 0.950 . S
C2649 C2651 1.327 . S
C2649 C2655 1.408 1_554 S
C2650 C2642 1.574 . S
C2650 H2645 0.949 . S
C2650 C2656 1.398 . S
C2651 C2635 1.340 1_554 S
C2651 H2643 0.950 . S
C2651 C2649 1.327 . S
C2652 C2640 1.406 . S
C2652 H2646 0.950 . S
C2652 C2653 1.327 . S
C2653 H2647 0.950 . S
C2653 C2652 1.327 . S
C2653 C2657 1.473 . S
C2654 C2637 1.574 . S
C2654 H2648 0.949 . S
C2654 C2658 1.328 1_554 S
C2655 C2636 1.449 . S
C2655 C2649 1.408 1_556 S
C2655 C2656 1.523 . S
C2656 C2637 1.339 1_556 S
C2656 C2650 1.398 . S
C2656 C2655 1.523 . S
C2657 C2641 1.386 1_556 S
C2657 C2653 1.473 . S
C2657 C2658 1.523 . S
C2658 C2642 1.410 . S
C2658 C2654 1.328 1_556 S
C2658 C2657 1.523 . S
H2659 C2634 0.950 . S
H2660 C2636 0.950 . S
H2661 C2637 0.949 . S
H2662 C2639 0.950 . S
H2663 C2641 0.950 . S
C505 C9 0.969 . S
C510 C21 1.024 . S
C535 C23 0.969 . S
C540 C35 1.024 . S
C565 C7 1.024 . S
C570 C37 0.969 . S
C595 C51 0.969 . S
C600 C77 1.023 . S
C625 C65 0.969 . S
C630 C49 1.024 . S
C655 C63 1.024 . S
C660 C79 0.969 . S
C685 C93 0.987 . S
C690 C101 1.101 . S
C715 C115 1.101 . S
C720 C107 0.987 . S
C745 C87 1.101 . S
C750 C121 0.987 . S
C775 C157 1.100 . S
C780 C135 0.987 . S
C805 C149 0.987 . S
C810 C129 1.101 . S
C835 C163 0.987 . S
C840 C143 1.101 . S
C865 C189 1.024 . S
C870 C177 0.969 . S
C895 C191 0.969 . S
C900 C203 1.024 . S
C925 C205 0.969 . S
C930 C175 1.024 . S
C955 C219 0.969 . S
C960 C245 1.024 . S
C985 C233 0.969 . S
C990 C217 1.024 . S
C1015 C247 0.969 . S
C1020 C231 1.024 . S
C1045 C269 1.100 . S
C1050 C261 0.987 . S
C1075 C275 0.987 . S
C1080 C283 1.100 . S
C1105 C255 1.101 . S
C1110 C289 0.987 . S
C1135 C325 1.100 . S
C1140 C303 1.009 . S
C1165 C317 1.009 . S
C1170 C297 1.101 . S
C1195 C311 1.101 . S
C1200 C331 1.009 . S
C1225 C357 1.024 . S
C1230 C345 0.969 . S
C1255 C359 0.969 . S
C1260 C371 1.024 . S
C1285 C373 0.969 . S
C1290 C343 1.024 . S
C1315 C413 1.024 . S
C1320 C387 0.969 . S
C1345 C401 0.969 . S
C1350 C385 1.024 . S
C1375 C399 1.024 . S
C1380 C415 0.969 . S
C1405 C429 0.987 . S
C1410 C437 1.100 . S
C1435 C443 0.987 . S
C1440 C451 1.101 . S
C1465 C457 0.987 . S
C1470 C423 1.101 . S
C1495 C493 1.100 . S
C1500 C471 0.987 . S
C1525 C465 1.101 . S
C1530 C485 0.987 . S
C1555 C499 0.987 . S
C1560 C479 1.101 . S
C1585 C45 1.706 . S
C1590 C3 1.706 . S
C1615 C17 1.706 . S
C1620 C59 1.706 . S
C1645 C73 1.706 . S
C1650 C31 1.706 . S
C1675 C133 1.612 . S
C1680 C91 1.612 . S
C1705 C105 1.612 . S
C1710 C147 1.613 . S
C1735 C161 1.613 . S
C1740 C119 1.613 . S
C1765 C171 1.706 . S
C1770 C213 1.706 . S
C1795 C185 1.706 . S
C1800 C227 1.706 . S
C1825 C199 1.706 . S
C1830 C241 1.706 . S
C1855 C301 1.612 . S
C1860 C259 1.612 . S
C1885 C315 1.612 . S
C1890 C273 1.612 . S
C1915 C287 1.613 . S
C1920 C329 1.613 . S
C1945 C381 1.706 . S
C1950 C339 1.706 . S
C1975 C395 1.706 . S
C1980 C353 1.706 . S
C2005 C367 1.706 . S
C2010 C409 1.706 . S
C2035 C427 1.612 . S
C2040 C469 1.612 . S
C2065 C483 1.613 . S
C2070 C441 1.613 . S
C2095 C455 1.613 . S
C2100 C497 1.613 . S
C2125 C8 1.544 . S
C2130 C260 1.534 . S
C2155 C22 1.545 . S
C2160 C274 1.535 . S
C2185 C36 1.545 . S
C2190 C288 1.535 . S
C2215 C470 1.534 . S
C2220 C50 1.544 . S
C2245 C484 1.535 . S
C2250 C64 1.545 . S
C2275 C78 1.545 . S
C2280 C498 1.535 . S
C2305 C92 1.534 . S
C2310 C344 1.544 . S
C2335 C358 1.544 . S
C2340 C106 1.534 . S
C2365 C372 1.545 . S
C2370 C120 1.535 . S
C2395 C218 1.544 . S
C2400 C134 1.534 . S
C2425 C232 1.545 . S
C2430 C148 1.535 . S
C2455 C246 1.545 . S
C2460 C162 1.535 . S
C2485 C428 1.534 . S
C2490 C176 1.544 . S
C2515 C190 1.545 . S
C2520 C442 1.535 . S
C2545 C204 1.545 . S
C2550 C456 1.535 . S
C2575 C302 1.524 1_556 S
C2580 C386 1.547 . S
C2605 C316 1.524 1_556 S
C2610 C400 1.547 . S
C2635 C414 1.547 . S
C2640 C330 1.525 1_556 S
