# Generated by pormake.
# Topology ume, (4)-cn, num edge types: 1
# Building blocks:
#     Node 0, Type 0, BuildingBlock: NAWXER_clean_sbu_0, # of connection points: 4
#     Node 1, Type 0, BuildingBlock: NAWXER_clean_sbu_0, # of connection points: 4
#     Node 2, Type 0, BuildingBlock: NAWXER_clean_sbu_0, # of connection points: 4
#     Node 3, Type 0, BuildingBlock: NAWXER_clean_sbu_0, # of connection points: 4
#     Node 4, Type 0, BuildingBlock: NAWXER_clean_sbu_0, # of connection points: 4
#     Node 5, Type 0, BuildingBlock: NAWXER_clean_sbu_0, # of connection points: 4
#     Node 6, Type 0, BuildingBlock: NAWXER_clean_sbu_0, # of connection points: 4
#     Node 7, Type 0, BuildingBlock: NAWXER_clean_sbu_0, # of connection points: 4
#     Node 8, Type 0, BuildingBlock: NAWXER_clean_sbu_0, # of connection points: 4
#     Node 9, Type 0, BuildingBlock: NAWXER_clean_sbu_0, # of connection points: 4
#     Node 10, Type 0, BuildingBlock: NAWXER_clean_sbu_0, # of connection points: 4
#     Node 11, Type 0, BuildingBlock: NAWXER_clean_sbu_0, # of connection points: 4
#     Node 12, Type 0, BuildingBlock: NAWXER_clean_sbu_0, # of connection points: 4
#     Node 13, Type 0, BuildingBlock: NAWXER_clean_sbu_0, # of connection points: 4
#     Node 14, Type 0, BuildingBlock: NAWXER_clean_sbu_0, # of connection points: 4
#     Node 15, Type 0, BuildingBlock: NAWXER_clean_sbu_0, # of connection points: 4
#     Edge 16, Type (0, 0), BuildingBlock: EZIPEK_clean_linker_0, # of connection points: 2
#     Edge 17, Type (0, 0), BuildingBlock: EZIPEK_clean_linker_0, # of connection points: 2
#     Edge 18, Type (0, 0), BuildingBlock: EZIPEK_clean_linker_0, # of connection points: 2
#     Edge 19, Type (0, 0), BuildingBlock: EZIPEK_clean_linker_0, # of connection points: 2
#     Edge 20, Type (0, 0), BuildingBlock: EZIPEK_clean_linker_0, # of connection points: 2
#     Edge 21, Type (0, 0), BuildingBlock: EZIPEK_clean_linker_0, # of connection points: 2
#     Edge 22, Type (0, 0), BuildingBlock: EZIPEK_clean_linker_0, # of connection points: 2
#     Edge 23, Type (0, 0), BuildingBlock: EZIPEK_clean_linker_0, # of connection points: 2
#     Edge 24, Type (0, 0), BuildingBlock: EZIPEK_clean_linker_0, # of connection points: 2
#     Edge 25, Type (0, 0), BuildingBlock: EZIPEK_clean_linker_0, # of connection points: 2
#     Edge 26, Type (0, 0), BuildingBlock: EZIPEK_clean_linker_0, # of connection points: 2
#     Edge 27, Type (0, 0), BuildingBlock: EZIPEK_clean_linker_0, # of connection points: 2
#     Edge 28, Type (0, 0), BuildingBlock: EZIPEK_clean_linker_0, # of connection points: 2
#     Edge 29, Type (0, 0), BuildingBlock: EZIPEK_clean_linker_0, # of connection points: 2
#     Edge 30, Type (0, 0), BuildingBlock: EZIPEK_clean_linker_0, # of connection points: 2
#     Edge 31, Type (0, 0), BuildingBlock: EZIPEK_clean_linker_0, # of connection points: 2
#     Edge 32, Type (0, 0), BuildingBlock: EZIPEK_clean_linker_0, # of connection points: 2
#     Edge 33, Type (0, 0), BuildingBlock: EZIPEK_clean_linker_0, # of connection points: 2
#     Edge 34, Type (0, 0), BuildingBlock: EZIPEK_clean_linker_0, # of connection points: 2
#     Edge 35, Type (0, 0), BuildingBlock: EZIPEK_clean_linker_0, # of connection points: 2
#     Edge 36, Type (0, 0), BuildingBlock: EZIPEK_clean_linker_0, # of connection points: 2
#     Edge 37, Type (0, 0), BuildingBlock: EZIPEK_clean_linker_0, # of connection points: 2
#     Edge 38, Type (0, 0), BuildingBlock: EZIPEK_clean_linker_0, # of connection points: 2
#     Edge 39, Type (0, 0), BuildingBlock: EZIPEK_clean_linker_0, # of connection points: 2
#     Edge 40, Type (0, 0), BuildingBlock: EZIPEK_clean_linker_0, # of connection points: 2
#     Edge 41, Type (0, 0), BuildingBlock: EZIPEK_clean_linker_0, # of connection points: 2
#     Edge 42, Type (0, 0), BuildingBlock: EZIPEK_clean_linker_0, # of connection points: 2
#     Edge 43, Type (0, 0), BuildingBlock: EZIPEK_clean_linker_0, # of connection points: 2
#     Edge 44, Type (0, 0), BuildingBlock: EZIPEK_clean_linker_0, # of connection points: 2
#     Edge 45, Type (0, 0), BuildingBlock: EZIPEK_clean_linker_0, # of connection points: 2
#     Edge 46, Type (0, 0), BuildingBlock: EZIPEK_clean_linker_0, # of connection points: 2
#     Edge 47, Type (0, 0), BuildingBlock: EZIPEK_clean_linker_0, # of connection points: 2
# Relax obj value: 0.054
# Max RMSD: 0.243
# Mean RMSD: 0.243
data_MOF--net-ume--node1-NAWXER_clean_sbu_0--edge1-EZIPEK_clean_linker_0
_symmetry_space_group_name_H-M    P1
_symmetry_Int_Tables_number       1
_symmetry_cell_setting            triclinic
loop_
_symmetry_equiv_pos_as_xyz
'x, y, z'
_cell_length_a     20.913108
_cell_length_b     20.90373
_cell_length_c     82.322058
_cell_angle_alpha  89.869118
_cell_angle_beta   89.959054
_cell_angle_gamma 90.009974
loop_
_atom_site_label
_atom_site_type_symbol
_atom_site_fract_x
_atom_site_fract_y
_atom_site_fract_z
_atom_type_partial_charge
C0 C 0.2464 0.11607 0.35469 0.0
C1 C 0.26139 0.14162 0.29561 0.0
O2 O 0.2484 0.16758 0.34649 0.0
Zn3 Zn 0.24924 0.12938 0.32506 0.0
O4 O 0.24407 0.06218 0.34733 0.0
Zn5 Zn 0.24252 0.02981 0.32257 0.0
O6 O 0.31581 0.97506 0.32199 0.0
O7 O 0.33917 0.07757 0.32515 0.0
O8 O 0.25382 0.08328 0.30007 0.0
O9 O 0.26147 0.18483 0.30646 0.0
O10 O 0.15276 0.09361 0.32171 0.0
O11 O 0.16132 0.9887 0.32083 0.0
C12 C 0.35701 0.01907 0.32378 0.0
C13 C 0.12641 0.03827 0.32074 0.0
C14 C 0.96852 0.87143 0.57073 0.0
C15 C 0.9751 0.64168 0.56521 0.0
O16 O 0.01545 0.83517 0.56744 0.0
Zn17 Zn 0.96894 0.75701 0.56726 0.0
O18 O 0.91288 0.84712 0.57295 0.0
Zn19 Zn 0.87247 0.7515 0.57346 0.0
O20 O 0.84486 0.747 0.59575 0.0
O21 O 0.94966 0.7458 0.59298 0.0
O22 O 0.91899 0.65972 0.56961 0.0
O23 O 0.01772 0.68288 0.56204 0.0
O24 O 0.90375 0.77118 0.54702 0.0
O25 O 0.80693 0.75697 0.5571 0.0
C26 C 0.90008 0.74485 0.60215 0.0
C27 C 0.84286 0.76972 0.54511 0.0
C28 C 0.13879 0.48114 0.82139 0.0
C29 C 0.36929 0.4634 0.81911 0.0
O30 O 0.17955 0.52449 0.81826 0.0
Zn31 Zn 0.25237 0.47054 0.82023 0.0
O32 O 0.15696 0.42356 0.82435 0.0
Zn33 Zn 0.24838 0.37304 0.82569 0.0
O34 O 0.24871 0.34322 0.84785 0.0
O35 O 0.24878 0.44848 0.84589 0.0
O36 O 0.34419 0.40851 0.82195 0.0
O37 O 0.33328 0.51151 0.81717 0.0
O38 O 0.23823 0.40808 0.79949 0.0
O39 O 0.23877 0.30936 0.8091 0.0
C40 C 0.2476 0.39765 0.85464 0.0
C41 C 0.23316 0.34754 0.79718 0.0
C42 C 0.52727 0.63246 0.07217 0.0
C43 C 0.53176 0.86284 0.06789 0.0
O44 O 0.4815 0.67093 0.06949 0.0
Zn45 Zn 0.53198 0.74705 0.06928 0.0
O46 O 0.5843 0.65404 0.07388 0.0
Zn47 Zn 0.62996 0.7472 0.07436 0.0
O48 O 0.66093 0.74776 0.09635 0.0
O49 O 0.55603 0.75482 0.09469 0.0
O50 O 0.58773 0.8414 0.07134 0.0
O51 O 0.48654 0.82413 0.06505 0.0
O52 O 0.59343 0.73178 0.04841 0.0
O53 O 0.69276 0.73995 0.05723 0.0
C54 C 0.6069 0.75211 0.10332 0.0
C55 C 0.65388 0.73023 0.04567 0.0
C56 C 0.23495 0.39834 0.92503 0.0
C57 C 0.25842 0.34861 0.98273 0.0
O58 O 0.23976 0.34369 0.93173 0.0
Zn59 Zn 0.24013 0.37307 0.95397 0.0
O60 O 0.23189 0.4484 0.93393 0.0
Zn61 Zn 0.24028 0.47085 0.95939 0.0
O62 O 0.31631 0.52093 0.95886 0.0
O63 O 0.3333 0.41809 0.95459 0.0
O64 O 0.25692 0.40912 0.98009 0.0
O65 O 0.24693 0.31024 0.97116 0.0
O66 O 0.14614 0.41532 0.9568 0.0
O67 O 0.16295 0.51578 0.96396 0.0
C68 C 0.35482 0.47517 0.95617 0.0
C69 C 0.12459 0.47071 0.9607 0.0
C70 C 0.61329 0.74065 0.17367 0.0
C71 C 0.65387 0.76154 0.23139 0.0
O72 O 0.66671 0.74133 0.18097 0.0
Zn73 Zn 0.63322 0.74273 0.2028 0.0
O74 O 0.56134 0.73847 0.18192 0.0
Zn75 Zn 0.5351 0.73656 0.20723 0.0
O76 O 0.47884 0.80791 0.20769 0.0
O77 O 0.58021 0.83301 0.20312 0.0
O78 O 0.59383 0.75488 0.22853 0.0
O79 O 0.69391 0.75528 0.21991 0.0
O80 O 0.59957 0.64631 0.20668 0.0
O81 O 0.49573 0.65465 0.21028 0.0
C82 C 0.52158 0.84989 0.20506 0.0
C83 C 0.54497 0.61982 0.20896 0.0
C84 C 0.24524 0.14941 0.48375 0.0
C85 C 0.25859 0.11878 0.42508 0.0
O86 O 0.24532 0.1911 0.47252 0.0
Zn87 Zn 0.25691 0.13403 0.45427 0.0
O88 O 0.25454 0.09075 0.48 0.0
Zn89 Zn 0.26428 0.03537 0.45814 0.0
O90 O 0.3445 0.99361 0.46033 0.0
O91 O 0.35413 0.09766 0.45604 0.0
O92 O 0.26267 0.0655 0.43282 0.0
O93 O 0.25496 0.17104 0.43287 0.0
O94 O 0.16729 0.08204 0.45442 0.0
O95 O 0.19085 0.98118 0.45972 0.0
C96 C 0.37954 0.04241 0.45834 0.0
C97 C 0.1494 0.02417 0.45696 0.0
C98 C 0.96167 0.87064 0.70801 0.0
C99 C 0.98143 0.64055 0.70624 0.0
O100 O 0.01029 0.8352 0.70977 0.0
Zn101 Zn 0.97012 0.7541 0.70685 0.0
O102 O 0.90699 0.84485 0.7054 0.0
Zn103 Zn 0.8726 0.74868 0.70152 0.0
O104 O 0.80883 0.73846 0.7181 0.0
O105 O 0.90754 0.73972 0.72765 0.0
O106 O 0.92369 0.65798 0.70328 0.0
O107 O 0.02466 0.68185 0.70888 0.0
O108 O 0.94857 0.75121 0.68127 0.0
O109 O 0.84345 0.74849 0.67928 0.0
C110 C 0.84711 0.73361 0.73 0.0
C111 C 0.89797 0.74922 0.67251 0.0
C112 C 0.8688 0.5335 0.821 0.0
C113 C 0.63881 0.52556 0.81733 0.0
O114 O 0.83294 0.48572 0.81834 0.0
Zn115 Zn 0.75496 0.53222 0.81861 0.0
O116 O 0.84476 0.58949 0.82299 0.0
Zn117 Zn 0.74856 0.63017 0.8231 0.0
O118 O 0.7446 0.66463 0.84464 0.0
O119 O 0.74905 0.5589 0.84413 0.0
O120 O 0.65713 0.5826 0.82069 0.0
O121 O 0.67994 0.48244 0.81464 0.0
O122 O 0.76723 0.59198 0.79736 0.0
O123 O 0.75139 0.69108 0.80546 0.0
C124 C 0.746 0.6115 0.85212 0.0
C125 C 0.765 0.65206 0.79419 0.0
C126 C 0.39042 0.24507 0.10408 0.0
C127 C 0.34713 0.26315 0.04616 0.0
O128 O 0.33686 0.24541 0.09685 0.0
Zn129 Zn 0.36995 0.24681 0.07504 0.0
O130 O 0.4425 0.24526 0.09581 0.0
Zn131 Zn 0.46777 0.24824 0.07015 0.0
O132 O 0.51799 0.32378 0.06935 0.0
O133 O 0.41518 0.34091 0.07429 0.0
O134 O 0.40745 0.26229 0.04901 0.0
O135 O 0.30825 0.25237 0.05768 0.0
O136 O 0.41265 0.15302 0.07249 0.0
O137 O 0.51387 0.17082 0.0664 0.0
C138 C 0.4721 0.36211 0.07193 0.0
C139 C 0.46868 0.13194 0.06907 0.0
C140 C 0.62723 0.96499 0.32249 0.0
C141 C 0.85686 0.97653 0.31802 0.0
O142 O 0.66275 0.0129 0.31959 0.0
Zn143 Zn 0.7408 0.96738 0.31965 0.0
O144 O 0.65188 0.9091 0.32441 0.0
Zn145 Zn 0.74925 0.8698 0.32422 0.0
O146 O 0.75585 0.83498 0.34574 0.0
O147 O 0.74704 0.94039 0.34514 0.0
O148 O 0.83977 0.91909 0.32146 0.0
O149 O 0.81472 0.01879 0.31548 0.0
O150 O 0.72843 0.90754 0.29849 0.0
O151 O 0.74669 0.80884 0.30668 0.0
C152 C 0.75201 0.88792 0.3532 0.0
C153 C 0.7318 0.84749 0.29541 0.0
C154 C 0.11121 0.25492 0.60447 0.0
C155 C 0.15023 0.23885 0.54599 0.0
O156 O 0.1646 0.25496 0.5971 0.0
Zn157 Zn 0.13142 0.25262 0.57516 0.0
O158 O 0.05914 0.25567 0.59627 0.0
Zn159 Zn 0.03264 0.25698 0.57097 0.0
O160 O 0.98075 0.18188 0.56933 0.0
O161 O 0.08211 0.16168 0.57497 0.0
O162 O 0.09106 0.24749 0.54939 0.0
O163 O 0.19084 0.23946 0.55747 0.0
O164 O 0.09416 0.34819 0.57103 0.0
O165 O 0.98985 0.33699 0.56845 0.0
C166 C 0.02503 0.14196 0.57228 0.0
C167 C 0.0385 0.37306 0.5691 0.0
C168 C 0.75557 0.85409 0.48223 0.0
C169 C 0.75513 0.89411 0.42359 0.0
O170 O 0.75136 0.81446 0.47062 0.0
Zn171 Zn 0.75564 0.87462 0.45289 0.0
O172 O 0.76244 0.91356 0.47865 0.0
Zn173 Zn 0.76398 0.97285 0.45693 0.0
O174 O 0.69156 0.02754 0.45968 0.0
O175 O 0.66584 0.9267 0.45489 0.0
O176 O 0.75813 0.94636 0.43168 0.0
O177 O 0.75293 0.84101 0.43109 0.0
O178 O 0.85299 0.9093 0.45491 0.0
O179 O 0.84514 0.01374 0.45783 0.0
C180 C 0.64924 0.98494 0.45756 0.0
C181 C 0.8797 0.9642 0.45643 0.0
C182 C 0.02412 0.13974 0.71063 0.0
C183 C 0.03508 0.37036 0.70658 0.0
O184 O 0.98117 0.18113 0.71329 0.0
Zn185 Zn 0.03155 0.25549 0.709 0.0
O186 O 0.08116 0.15764 0.70703 0.0
Zn187 Zn 0.12953 0.24892 0.70424 0.0
O188 O 0.19122 0.25064 0.72171 0.0
O189 O 0.09243 0.2671 0.73008 0.0
O190 O 0.09073 0.34521 0.7051 0.0
O191 O 0.98659 0.33482 0.7088 0.0
O192 O 0.05612 0.24662 0.68359 0.0
O193 O 0.16131 0.24707 0.68221 0.0
C194 C 0.1526 0.26445 0.73309 0.0
C195 C 0.10746 0.24622 0.67507 0.0
C196 C 0.62491 0.53187 0.95374 0.0
C197 C 0.85521 0.52887 0.95725 0.0
O198 O 0.66182 0.48515 0.95675 0.0
Zn199 Zn 0.74038 0.53155 0.95556 0.0
O200 O 0.64837 0.58758 0.9512 0.0
Zn201 Zn 0.74167 0.63083 0.95168 0.0
O202 O 0.74642 0.6666 0.93011 0.0
O203 O 0.74482 0.56083 0.93033 0.0
O204 O 0.83474 0.58611 0.95484 0.0
O205 O 0.81607 0.48279 0.95844 0.0
O206 O 0.73515 0.58763 0.97736 0.0
O207 O 0.73162 0.68858 0.9699 0.0
C208 C 0.74651 0.61389 0.92246 0.0
C209 C 0.72904 0.64675 0.9811 0.0
C210 C 0.46792 0.12015 0.20463 0.0
C211 C 0.48428 0.35014 0.20972 0.0
O212 O 0.51696 0.15381 0.20771 0.0
Zn213 Zn 0.47463 0.23485 0.20753 0.0
O214 O 0.41347 0.14721 0.20261 0.0
Zn215 Zn 0.37594 0.24363 0.20374 0.0
O216 O 0.34042 0.25232 0.1822 0.0
O217 O 0.44567 0.24253 0.18226 0.0
O218 O 0.42606 0.33346 0.20712 0.0
O219 O 0.52754 0.30798 0.21089 0.0
O220 O 0.41793 0.22739 0.22936 0.0
O221 O 0.31746 0.23639 0.22194 0.0
C222 C 0.39286 0.24848 0.17447 0.0
C223 C 0.35842 0.22627 0.23304 0.0
C224 C 0.96798 0.96966 0.30648 0.0
C225 C 0.9253 0.99518 0.31818 0.0
C226 C 0.0125 0.05875 0.3301 0.0
C227 C 0.05591 0.03071 0.31885 0.0
N228 N 0.07189 0.9758 0.29346 0.0
N229 N 0.90683 0.05771 0.34232 0.0
C230 C 0.03274 0.99048 0.30626 0.0
C231 C 0.94733 0.03881 0.33016 0.0
N232 N 0.94692 0.92437 0.29578 0.0
N233 N 0.03279 0.10545 0.3405 0.0
H234 H 0.85878 0.04466 0.34286 0.0
H235 H 0.92141 0.08199 0.3527 0.0
H236 H 0.07982 0.12088 0.34136 0.0
H237 H 0.0022 0.13337 0.34749 0.0
H238 H 0.97705 0.89781 0.28832 0.0
H239 H 0.89936 0.90989 0.29508 0.0
H240 H 0.0567 0.95209 0.28306 0.0
H241 H 0.11838 0.99345 0.29239 0.0
C242 C 0.97468 0.53164 0.55309 0.0
C243 C 0.99307 0.57333 0.5658 0.0
C244 C 0.05105 0.48626 0.57941 0.0
C245 C 0.02978 0.44334 0.56716 0.0
N246 N 0.98547 0.42724 0.54046 0.0
N247 N 0.04038 0.5903 0.59212 0.0
C248 C 0.99514 0.46662 0.55349 0.0
C249 C 0.02954 0.55079 0.57916 0.0
N250 N 0.93642 0.55411 0.54087 0.0
N251 N 0.09302 0.46614 0.59108 0.0
H252 H 0.02599 0.63803 0.5924 0.0
H253 H 0.05884 0.5749 0.60319 0.0
H254 H 0.10976 0.41954 0.59205 0.0
H255 H 0.1162 0.49681 0.59909 0.0
H256 H 0.91499 0.52527 0.53216 0.0
H257 H 0.92284 0.60199 0.53994 0.0
H258 H 0.96543 0.44188 0.52951 0.0
H259 H 0.00299 0.38056 0.53998 0.0
C260 C 0.52884 0.52986 0.80519 0.0
C261 C 0.57012 0.50844 0.81772 0.0
C262 C 0.48063 0.4525 0.83091 0.0
C263 C 0.43984 0.47181 0.81796 0.0
N264 N 0.42924 0.51362 0.79078 0.0
N265 N 0.5884 0.4437 0.84158 0.0
C266 C 0.46519 0.50623 0.80452 0.0
C267 C 0.54695 0.46771 0.83024 0.0
N268 N 0.55016 0.57336 0.79402 0.0
N269 N 0.4558 0.42252 0.84428 0.0
H270 H 0.63603 0.45801 0.84247 0.0
H271 H 0.5767 0.407 0.84962 0.0
H272 H 0.40888 0.40651 0.84504 0.0
H273 H 0.4808 0.41618 0.85509 0.0
H274 H 0.52032 0.59616 0.7857 0.0
H275 H 0.59684 0.59075 0.7939 0.0
H276 H 0.44705 0.53267 0.77999 0.0
H277 H 0.38351 0.49425 0.78956 0.0
C278 C 0.46521 0.02472 0.05557 0.0
C279 C 0.48222 0.06252 0.06915 0.0
C280 C 0.52885 0.96844 0.08246 0.0
C281 C 0.5182 0.9324 0.06809 0.0
N282 N 0.48699 0.92927 0.03989 0.0
N283 N 0.53591 0.07313 0.09494 0.0
C284 C 0.48922 0.96138 0.05434 0.0
C285 C 0.51609 0.03524 0.08239 0.0
N286 N 0.42526 0.04898 0.04398 0.0
N287 N 0.54745 0.93839 0.09646 0.0
H288 H 0.52398 0.12144 0.09588 0.0
H289 H 0.56744 0.05767 0.10392 0.0
H290 H 0.55557 0.88932 0.09724 0.0
H291 H 0.54915 0.96094 0.10772 0.0
H292 H 0.40611 0.02168 0.03459 0.0
H293 H 0.40623 0.09491 0.04468 0.0
H294 H 0.47228 0.95029 0.02904 0.0
H295 H 0.50589 0.88348 0.03838 0.0
C296 C 0.01455 0.46677 0.9727 0.0
C297 C 0.05543 0.48428 0.95971 0.0
C298 C 0.96416 0.52758 0.94459 0.0
C299 C 0.9245 0.51574 0.95826 0.0
N300 N 0.91326 0.4841 0.98631 0.0
N301 N 0.0718 0.53736 0.93395 0.0
C302 C 0.95001 0.48792 0.9726 0.0
C303 C 0.03103 0.51675 0.94587 0.0
N304 N 0.03718 0.42913 0.985 0.0
N305 N 0.93752 0.54581 0.93013 0.0
H306 H 0.12064 0.52729 0.93395 0.0
H307 H 0.05802 0.56794 0.92459 0.0
H308 H 0.88855 0.55285 0.92858 0.0
H309 H 0.96295 0.54849 0.91927 0.0
H310 H 0.00816 0.40918 0.99396 0.0
H311 H 0.08436 0.41326 0.98545 0.0
H312 H 0.93109 0.47042 0.99761 0.0
H313 H 0.8661 0.50027 0.98679 0.0
C314 C 0.48594 0.45718 0.2235 0.0
C315 C 0.50233 0.41857 0.20999 0.0
C316 C 0.55786 0.50897 0.19713 0.0
C317 C 0.53799 0.54904 0.21014 0.0
N318 N 0.49716 0.55918 0.23738 0.0
N319 N 0.54449 0.40845 0.18287 0.0
C320 C 0.50558 0.52252 0.22379 0.0
C321 C 0.53638 0.44446 0.19659 0.0
N322 N 0.45037 0.43151 0.23586 0.0
N323 N 0.59838 0.53172 0.18542 0.0
H324 H 0.52927 0.36109 0.18191 0.0
H325 H 0.56106 0.42676 0.17188 0.0
H326 H 0.61519 0.57843 0.18501 0.0
H327 H 0.62051 0.50282 0.17681 0.0
H328 H 0.43048 0.45799 0.24527 0.0
H329 H 0.43762 0.38329 0.23634 0.0
H330 H 0.47865 0.5423 0.2483 0.0
H331 H 0.51403 0.60602 0.23827 0.0
C332 C 0.48706 0.04706 0.47159 0.0
C333 C 0.44959 0.03405 0.45765 0.0
C334 C 0.54476 0.99687 0.44304 0.0
C335 C 0.58081 0.00301 0.45756 0.0
N336 N 0.58597 0.02744 0.48615 0.0
N337 N 0.44014 0.99318 0.43038 0.0
C338 C 0.55205 0.02693 0.47195 0.0
C339 C 0.47774 0.008 0.44344 0.0
N340 N 0.46046 0.07877 0.48444 0.0
N341 N 0.57512 0.9831 0.42874 0.0
H342 H 0.39156 0.00431 0.42981 0.0
H343 H 0.4561 0.96673 0.42048 0.0
H344 H 0.62434 0.9758 0.42792 0.0
H345 H 0.5528 0.98433 0.41745 0.0
H346 H 0.48671 0.09574 0.49426 0.0
H347 H 0.41255 0.09267 0.48471 0.0
H348 H 0.56586 0.03752 0.49743 0.0
H349 H 0.63354 0.01285 0.48691 0.0
C350 C 0.96929 0.0482 0.69695 0.0
C351 C 0.00637 0.07122 0.71015 0.0
C352 C 0.00312 0.96561 0.72308 0.0
C353 C 0.96937 0.94119 0.70946 0.0
N354 N 0.90913 0.96133 0.68487 0.0
N355 N 0.06705 0.0511 0.73447 0.0
C356 C 0.94889 0.98311 0.69683 0.0
C357 C 0.02555 0.02974 0.72287 0.0
N358 N 0.95734 0.08776 0.68402 0.0
N359 N 0.01027 0.92832 0.73664 0.0
H360 H 0.08426 0.09782 0.73469 0.0
H361 H 0.08878 0.02148 0.74302 0.0
H362 H 0.99145 0.88223 0.73756 0.0
H363 H 0.02852 0.94505 0.7476 0.0
H364 H 0.93752 0.07284 0.67308 0.0
H365 H 0.97175 0.1355 0.68362 0.0
H366 H 0.88644 0.99071 0.67645 0.0
H367 H 0.8943 0.91413 0.68384 0.0
C368 C 0.52149 0.96114 0.33701 0.0
C369 C 0.55723 0.9738 0.32269 0.0
C370 C 0.46293 0.02041 0.30974 0.0
C371 C 0.42584 0.00343 0.32352 0.0
N372 N 0.4169 0.95095 0.34956 0.0
N373 N 0.55918 0.00106 0.29421 0.0
C374 C 0.45418 0.97122 0.3369 0.0
C375 C 0.52714 0.99935 0.3087 0.0
N376 N 0.55228 0.94292 0.35092 0.0
N377 N 0.43729 0.05762 0.29773 0.0
H378 H 0.60585 0.98425 0.29283 0.0
H379 H 0.53747 0.01291 0.28322 0.0
H380 H 0.39003 0.07313 0.29784 0.0
H381 H 0.46432 0.07769 0.28839 0.0
H382 H 0.52996 0.93949 0.3622 0.0
H383 H 0.6016 0.93608 0.35152 0.0
H384 H 0.4334 0.92096 0.35876 0.0
H385 H 0.36813 0.96088 0.35037 0.0
C386 C 0.95541 0.97987 0.58406 0.0
C387 C 0.97799 0.94173 0.57095 0.0
C388 C 0.038 0.03287 0.56025 0.0
C389 C 0.01096 0.07265 0.57237 0.0
N390 N 0.93906 0.08622 0.59505 0.0
N391 N 0.02334 0.93824 0.54397 0.0
C392 C 0.96773 0.04688 0.58397 0.0
C393 C 0.01432 0.97004 0.5583 0.0
N394 N 0.92508 0.95211 0.597 0.0
N395 N 0.0869 0.05428 0.55067 0.0
H396 H 0.00294 0.8937 0.54158 0.0
H397 H 0.04422 0.9594 0.53379 0.0
H398 H 0.10636 0.09989 0.55159 0.0
H399 H 0.11239 0.02442 0.54287 0.0
H400 H 0.91536 0.97605 0.6078 0.0
H401 H 0.91327 0.90387 0.59754 0.0
H402 H 0.90095 0.07201 0.60237 0.0
H403 H 0.95109 0.13433 0.59639 0.0
C404 C 0.03974 0.51496 0.80677 0.0
C405 C 0.0701 0.49687 0.82148 0.0
C406 C 0.96798 0.50308 0.836 0.0
C407 C 0.93852 0.52448 0.82147 0.0
N408 N 0.94671 0.56165 0.79379 0.0
N409 N 0.0669 0.48369 0.85059 0.0
C410 C 0.97461 0.53396 0.80708 0.0
C411 C 0.03526 0.49358 0.83626 0.0
N412 N 0.07228 0.51088 0.79238 0.0
N413 N 0.93142 0.49105 0.84945 0.0
H414 H 0.11625 0.47705 0.85125 0.0
H415 H 0.04539 0.48708 0.86196 0.0
H416 H 0.88244 0.50041 0.84991 0.0
H417 H 0.94862 0.4684 0.85984 0.0
H418 H 0.05076 0.51644 0.78106 0.0
H419 H 0.11995 0.49652 0.79161 0.0
H420 H 0.97215 0.57624 0.78355 0.0
H421 H 0.89865 0.57487 0.79346 0.0
C422 C 0.48619 0.53472 0.05818 0.0
C423 C 0.51524 0.56261 0.07208 0.0
C424 C 0.51484 0.45848 0.08597 0.0
C425 C 0.48469 0.43136 0.07221 0.0
N426 N 0.43309 0.44305 0.04621 0.0
N427 N 0.56777 0.54972 0.09808 0.0
C428 C 0.46782 0.46933 0.0586 0.0
C429 C 0.53263 0.52414 0.08567 0.0
N430 N 0.48068 0.56954 0.04414 0.0
N431 N 0.52333 0.42197 0.09964 0.0
H432 H 0.58086 0.5976 0.09865 0.0
H433 H 0.58831 0.52289 0.10736 0.0
H434 H 0.51111 0.37363 0.10024 0.0
H435 H 0.5377 0.44006 0.11081 0.0
H436 H 0.46673 0.55025 0.03305 0.0
H437 H 0.49618 0.61676 0.04303 0.0
H438 H 0.41212 0.46965 0.03693 0.0
H439 H 0.42111 0.39468 0.04574 0.0
C440 C 0.45232 0.52846 0.96716 0.0
C441 C 0.42448 0.48782 0.95536 0.0
C442 C 0.52929 0.47584 0.94223 0.0
C443 C 0.55501 0.52153 0.95316 0.0
N444 N 0.53525 0.6048 0.97302 0.0
N445 N 0.43485 0.42992 0.93 0.0
C446 C 0.51477 0.55237 0.96461 0.0
C447 C 0.46249 0.46307 0.94245 0.0
N448 N 0.42076 0.54125 0.98134 0.0
N449 N 0.56856 0.44504 0.9315 0.0
H450 H 0.38672 0.41773 0.92963 0.0
H451 H 0.4587 0.41841 0.91929 0.0
H452 H 0.6163 0.45763 0.92971 0.0
H453 H 0.55459 0.40504 0.92487 0.0
H454 H 0.44192 0.56539 0.99102 0.0
H455 H 0.37665 0.52102 0.98429 0.0
H456 H 0.50494 0.63204 0.9803 0.0
H457 H 0.58012 0.62538 0.97151 0.0
C458 C 0.46617 0.94592 0.21665 0.0
C459 C 0.50379 0.9183 0.20416 0.0
C460 C 0.51482 0.02332 0.19118 0.0
C461 C 0.47419 0.0499 0.20323 0.0
N462 N 0.3941 0.0311 0.22394 0.0
N463 N 0.54801 0.92718 0.17715 0.0
C464 C 0.44409 0.00952 0.2148 0.0
C465 C 0.52376 0.95598 0.19071 0.0
N466 N 0.45456 0.91313 0.23074 0.0
N467 N 0.54431 0.06216 0.1801 0.0
H468 H 0.55152 0.87766 0.176 0.0
H469 H 0.55796 0.95167 0.16641 0.0
H470 H 0.53501 0.11106 0.17918 0.0
H471 H 0.58031 0.04632 0.17233 0.0
H472 H 0.43296 0.93407 0.24083 0.0
H473 H 0.47267 0.86756 0.23306 0.0
H474 H 0.36712 0.00118 0.23142 0.0
H475 H 0.37509 0.07686 0.22281 0.0
C476 C 0.99151 0.94494 0.44536 0.0
C477 C 0.95035 0.97084 0.45746 0.0
C478 C 0.03841 0.03505 0.46825 0.0
C479 C 0.08057 0.00735 0.45671 0.0
N480 N 0.09954 0.93159 0.43513 0.0
N481 N 0.94033 0.02266 0.48346 0.0
C482 C 0.05785 0.96056 0.44561 0.0
C483 C 0.97557 0.01065 0.46979 0.0
N484 N 0.96719 0.90785 0.43319 0.0
N485 N 0.05752 0.08541 0.47762 0.0
H486 H 0.89534 0.00249 0.48545 0.0
H487 H 0.95869 0.04601 0.49361 0.0
H488 H 0.10322 0.1049 0.47722 0.0
H489 H 0.02609 0.11173 0.48481 0.0
H490 H 0.99237 0.89611 0.4227 0.0
H491 H 0.92068 0.89048 0.43309 0.0
H492 H 0.08829 0.89102 0.4284 0.0
H493 H 0.14676 0.94636 0.43358 0.0
C494 C 0.99837 0.46915 0.72077 0.0
C495 C 0.02735 0.44076 0.70693 0.0
C496 C 0.02952 0.54476 0.69303 0.0
C497 C 0.99775 0.57212 0.70655 0.0
N498 N 0.94596 0.56154 0.73259 0.0
N499 N 0.0835 0.45312 0.6814 0.0
C500 C 0.98062 0.53468 0.72025 0.0
C501 C 0.04694 0.47902 0.6935 0.0
N502 N 0.99196 0.43435 0.73479 0.0
N503 N 0.03966 0.58099 0.67939 0.0
H504 H 0.0968 0.40526 0.68102 0.0
H505 H 0.1053 0.47978 0.67226 0.0
H506 H 0.02803 0.62944 0.67866 0.0
H507 H 0.05516 0.56261 0.66834 0.0
H508 H 0.97739 0.45362 0.74583 0.0
H509 H 0.00735 0.38708 0.7359 0.0
H510 H 0.92473 0.5354 0.74192 0.0
H511 H 0.93474 0.61011 0.73303 0.0
C512 C 0.30463 0.14151 0.38057 0.0
C513 C 0.24916 0.1175 0.37272 0.0
C514 C 0.2016 0.0909 0.39922 0.0
C515 C 0.25526 0.11886 0.40707 0.0
N516 N 0.35541 0.17583 0.40558 0.0
N517 N 0.14247 0.0742 0.37424 0.0
C518 C 0.30588 0.146 0.39784 0.0
C519 C 0.19717 0.09307 0.38196 0.0
N520 N 0.35762 0.15639 0.37155 0.0
N521 N 0.15478 0.06217 0.40828 0.0
H522 H 0.13817 0.07295 0.36165 0.0
H523 H 0.09983 0.06345 0.38016 0.0
H524 H 0.15294 0.06456 0.42091 0.0
H525 H 0.11908 0.0333 0.40343 0.0
H526 H 0.40198 0.16721 0.37656 0.0
H527 H 0.3591 0.15267 0.35893 0.0
H528 H 0.38948 0.20362 0.39963 0.0
H529 H 0.36072 0.17597 0.41818 0.0
C530 C 0.94157 0.78962 0.62864 0.0
C531 C 0.90676 0.74157 0.62016 0.0
C532 C 0.87709 0.69209 0.64625 0.0
C533 C 0.90338 0.74538 0.65455 0.0
N534 N 0.9565 0.84779 0.65374 0.0
N535 N 0.84281 0.6454 0.62076 0.0
C536 C 0.93513 0.79455 0.64579 0.0
C537 C 0.8748 0.69239 0.62895 0.0
N538 N 0.9814 0.83045 0.62048 0.0
N539 N 0.85745 0.63966 0.6549 0.0
H540 H 0.84622 0.63922 0.60823 0.0
H541 H 0.81113 0.61372 0.62631 0.0
H542 H 0.86022 0.63692 0.66753 0.0
H543 H 0.84402 0.59656 0.6496 0.0
H544 H 0.01374 0.86064 0.62627 0.0
H545 H 0.98689 0.83105 0.60794 0.0
H546 H 0.97147 0.88929 0.64784 0.0
H547 H 0.95489 0.85272 0.66631 0.0
C548 C 0.28659 0.43812 0.88168 0.0
C549 C 0.24136 0.40251 0.87258 0.0
C550 C 0.18856 0.36837 0.89785 0.0
C551 C 0.23375 0.40424 0.90697 0.0
N552 N 0.31535 0.48706 0.90715 0.0
N553 N 0.13956 0.34852 0.87162 0.0
C554 C 0.27928 0.4436 0.89878 0.0
C555 C 0.18964 0.37156 0.88056 0.0
N556 N 0.3386 0.46442 0.87412 0.0
N557 N 0.14377 0.33195 0.90569 0.0
H558 H 0.13738 0.35213 0.859 0.0
H559 H 0.09721 0.33158 0.8767 0.0
H560 H 0.13582 0.33429 0.91818 0.0
H561 H 0.11581 0.29771 0.89988 0.0
H562 H 0.37817 0.48214 0.88033 0.0
H563 H 0.34476 0.46456 0.86159 0.0
H564 H 0.34248 0.52246 0.90148 0.0
H565 H 0.3149 0.49222 0.91968 0.0
C566 C 0.64024 0.79861 0.13018 0.0
C567 C 0.60302 0.75352 0.12138 0.0
C568 C 0.57455 0.69917 0.14684 0.0
C569 C 0.61022 0.74509 0.15569 0.0
N570 N 0.66496 0.84679 0.1562 0.0
N571 N 0.52086 0.67132 0.12195 0.0
C572 C 0.64005 0.79703 0.14748 0.0
C573 C 0.56567 0.70727 0.12987 0.0
N574 N 0.67501 0.84384 0.12201 0.0
N575 N 0.55154 0.64577 0.1545 0.0
H576 H 0.5126 0.67314 0.10953 0.0
H577 H 0.48716 0.64325 0.12798 0.0
H578 H 0.55587 0.63795 0.16693 0.0
H579 H 0.53315 0.60638 0.14834 0.0
H580 H 0.71022 0.87173 0.12745 0.0
H581 H 0.67024 0.8523 0.10958 0.0
H582 H 0.68064 0.88942 0.15099 0.0
H583 H 0.66476 0.8484 0.16885 0.0
C584 C 0.69018 0.59299 0.87869 0.0
C585 C 0.74637 0.61041 0.8701 0.0
C586 C 0.80153 0.63351 0.89576 0.0
C587 C 0.74634 0.61329 0.90443 0.0
N588 N 0.63985 0.56859 0.90456 0.0
N589 N 0.85853 0.63665 0.87005 0.0
C590 C 0.69125 0.59116 0.896 0.0
C591 C 0.80287 0.62794 0.87853 0.0
N592 N 0.63516 0.58061 0.87027 0.0
N593 N 0.85255 0.65838 0.90399 0.0
H594 H 0.86129 0.63305 0.85743 0.0
H595 H 0.90306 0.64228 0.8755 0.0
H596 H 0.85493 0.66018 0.91663 0.0
H597 H 0.89105 0.68089 0.89836 0.0
H598 H 0.59062 0.57437 0.87568 0.0
H599 H 0.63298 0.58047 0.85761 0.0
H600 H 0.60167 0.5443 0.89932 0.0
H601 H 0.63641 0.57139 0.91716 0.0
C602 C 0.3815 0.30533 0.14768 0.0
C603 C 0.39309 0.24786 0.15642 0.0
C604 C 0.40202 0.18823 0.13078 0.0
C605 C 0.39279 0.24611 0.12207 0.0
N606 N 0.38323 0.36092 0.12171 0.0
N607 N 0.42062 0.13576 0.1567 0.0
C608 C 0.38503 0.30504 0.13038 0.0
C609 C 0.40545 0.18966 0.14807 0.0
N610 N 0.36664 0.36005 0.15594 0.0
N611 N 0.40532 0.13165 0.12248 0.0
H612 H 0.41916 0.13362 0.16934 0.0
H613 H 0.43786 0.09389 0.15147 0.0
H614 H 0.40437 0.12906 0.10983 0.0
H615 H 0.40513 0.08684 0.128 0.0
H616 H 0.35044 0.40177 0.15039 0.0
H617 H 0.36707 0.36295 0.16859 0.0
H618 H 0.3848 0.40614 0.12695 0.0
H619 H 0.38482 0.36239 0.10905 0.0
C620 C 0.80415 0.92059 0.37932 0.0
C621 C 0.753 0.88945 0.37121 0.0
C622 C 0.70002 0.86855 0.39734 0.0
C623 C 0.75316 0.89571 0.40554 0.0
N624 N 0.85661 0.94693 0.40471 0.0
N625 N 0.65443 0.82941 0.37217 0.0
C626 C 0.80513 0.92228 0.39662 0.0
C627 C 0.70168 0.86196 0.38014 0.0
N628 N 0.8521 0.94817 0.3704 0.0
N629 N 0.64635 0.85249 0.40597 0.0
H630 H 0.65104 0.82733 0.35955 0.0
H631 H 0.62032 0.80129 0.378 0.0
H632 H 0.64274 0.8579 0.41852 0.0
H633 H 0.60321 0.83929 0.40066 0.0
H634 H 0.8863 0.97902 0.37515 0.0
H635 H 0.85688 0.94182 0.35791 0.0
H636 H 0.89972 0.95927 0.39923 0.0
H637 H 0.85759 0.95321 0.41722 0.0
C638 C 0.13737 0.19766 0.64808 0.0
C639 C 0.1041 0.24564 0.65695 0.0
C640 C 0.07656 0.3001 0.63136 0.0
C641 C 0.10848 0.25147 0.62251 0.0
N642 N 0.15659 0.14673 0.62204 0.0
N643 N 0.03 0.33503 0.65667 0.0
C644 C 0.13574 0.19836 0.63076 0.0
C645 C 0.06982 0.29436 0.64849 0.0
N646 N 0.1697 0.15057 0.6562 0.0
N647 N 0.05501 0.35356 0.62347 0.0
H648 H 0.02487 0.3358 0.66921 0.0
H649 H 0.99761 0.36529 0.6509 0.0
H650 H 0.05679 0.35894 0.61092 0.0
H651 H 0.03987 0.39481 0.62941 0.0
H652 H 0.20234 0.12 0.65065 0.0
H653 H 0.16569 0.14316 0.66868 0.0
H654 H 0.17048 0.10355 0.62727 0.0
H655 H 0.15465 0.14462 0.6094 0.0
C656 C 0.25766 0.21921 0.27189 0.0
C657 C 0.2768 0.15881 0.27827 0.0
C658 C 0.35649 0.14864 0.25665 0.0
C659 C 0.33654 0.20774 0.24973 0.0
N660 N 0.27509 0.30455 0.2521 0.0
N661 N 0.32113 0.05529 0.27108 0.0
C662 C 0.28838 0.24429 0.25766 0.0
C663 C 0.31919 0.12018 0.26906 0.0
N664 N 0.20695 0.25007 0.27885 0.0
N665 N 0.41188 0.11946 0.25191 0.0
H666 H 0.28883 0.02983 0.27817 0.0
H667 H 0.34818 0.02544 0.26362 0.0
H668 H 0.44275 0.13705 0.2431 0.0
H669 H 0.43075 0.08005 0.25805 0.0
H670 H 0.18722 0.29246 0.27456 0.0
H671 H 0.18014 0.22968 0.28822 0.0
H672 H 0.24395 0.3363 0.25771 0.0
H673 H 0.29954 0.32528 0.24237 0.0
C674 C 0.77256 0.87658 0.5122 0.0
C675 C 0.76093 0.83165 0.49963 0.0
C676 C 0.79219 0.74444 0.51816 0.0
C677 C 0.81398 0.79043 0.52951 0.0
N678 N 0.82833 0.90097 0.53714 0.0
N679 N 0.72703 0.72329 0.49443 0.0
C680 C 0.80491 0.85669 0.5265 0.0
C681 C 0.76144 0.76533 0.50361 0.0
N682 N 0.74682 0.93653 0.51123 0.0
N683 N 0.80271 0.68089 0.52104 0.0
H684 H 0.69551 0.73843 0.4854 0.0
H685 H 0.72174 0.67504 0.49727 0.0
H686 H 0.82341 0.66401 0.53175 0.0
H687 H 0.79521 0.64534 0.51241 0.0
H688 H 0.74957 0.96996 0.52057 0.0
H689 H 0.71391 0.94915 0.50228 0.0
H690 H 0.83055 0.94971 0.53451 0.0
H691 H 0.85 0.88871 0.54809 0.0
C692 C 0.14662 0.25675 0.76361 0.0
C693 C 0.17662 0.28221 0.74953 0.0
C694 C 0.25095 0.34175 0.76699 0.0
C695 C 0.21543 0.32293 0.78087 0.0
N696 N 0.11964 0.27412 0.79179 0.0
N697 N 0.24801 0.36181 0.73809 0.0
C698 C 0.16066 0.28338 0.77906 0.0
C699 C 0.22656 0.32803 0.75125 0.0
N700 N 0.10576 0.20603 0.76236 0.0
N701 N 0.30864 0.37161 0.76878 0.0
H702 H 0.22901 0.35683 0.72647 0.0
H703 H 0.2797 0.40008 0.73906 0.0
H704 H 0.32874 0.38124 0.78011 0.0
H705 H 0.33934 0.38074 0.75907 0.0
H706 H 0.08783 0.18154 0.77242 0.0
H707 H 0.09508 0.18427 0.75134 0.0
H708 H 0.07562 0.25127 0.79056 0.0
H709 H 0.12591 0.29512 0.80315 0.0
C710 C 0.74188 0.72196 1.00496 0.0
C711 C 0.71434 0.66557 0.99824 0.0
C712 C 0.65976 0.64618 0.02421 0.0
C713 C 0.67767 0.70779 0.02966 0.0
N714 N 0.73116 0.80792 0.02454 0.0
N715 N 0.63639 0.57948 1.00129 0.0
C716 C 0.71765 0.74674 0.01987 0.0
C717 C 0.67059 0.62892 1.00781 0.0
N718 N 0.79323 0.75015 0.99758 0.0
N719 N 0.63454 0.60273 0.03486 0.0
H720 H 0.64037 0.56389 0.98939 0.0
H721 H 0.59849 0.55761 1.00738 0.0
H722 H 0.62857 0.61236 0.04717 0.0
H723 H 0.62677 0.55489 0.0319 0.0
H724 H 0.81859 0.78791 1.00272 0.0
H725 H 0.81521 0.73111 0.9873 0.0
H726 H 0.7544 0.84072 0.01704 0.0
H727 H 0.71441 0.82748 0.03539 0.0
C728 C 0.34705 0.25404 0.01554 0.0
C729 C 0.32305 0.28312 0.02987 0.0
C730 C 0.25019 0.34813 1.01328 0.0
C731 C 0.27899 0.32412 0.99892 0.0
N732 N 0.36661 0.26576 0.98674 0.0
N733 N 0.26398 0.37074 0.04183 0.0
C734 C 0.33055 0.28001 1.00012 0.0
C735 C 0.27781 0.33365 0.02862 0.0
N736 N 0.38452 0.2007 0.01656 0.0
N737 N 0.19549 0.38361 1.01237 0.0
H738 H 0.28586 0.36477 0.0531 0.0
H739 H 0.23636 0.41213 0.0411 0.0
H740 H 0.17319 0.3944 1.0014 0.0
H741 H 0.16894 0.39668 0.02255 0.0
H742 H 0.39741 0.17355 1.00647 0.0
H743 H 0.39771 0.18016 0.02757 0.0
H744 H 0.40873 0.23924 0.98734 0.0
H745 H 0.3588 0.28604 0.97534 0.0
C746 C 0.6687 0.77306 0.27738 0.0
C747 C 0.71416 0.82333 0.27901 0.0
C748 C 0.7148 0.83699 0.24943 0.0
C749 C 0.67591 0.78163 0.24775 0.0
N750 N 0.62682 0.68918 0.26016 0.0
N751 N 0.79055 0.89395 0.26618 0.0
C752 C 0.65615 0.74726 0.26174 0.0
C753 C 0.74025 0.85258 0.26491 0.0
N754 N 0.63447 0.75239 0.29053 0.0
N755 N 0.72467 0.87693 0.23649 0.0
H756 H 0.81161 0.90568 0.27724 0.0
H757 H 0.81548 0.91139 0.25614 0.0
H758 H 0.70443 0.86947 0.22508 0.0
H759 H 0.74714 0.92122 0.23755 0.0
H760 H 0.59642 0.72042 0.28961 0.0
H761 H 0.63896 0.77227 0.30207 0.0
H762 H 0.61712 0.65932 0.27001 0.0
H763 H 0.61818 0.66793 0.24892 0.0
C764 C 0.25431 0.22433 0.50776 0.0
C765 C 0.22744 0.16833 0.50071 0.0
C766 C 0.14081 0.17112 0.52068 0.0
C767 C 0.17112 0.22215 0.52909 0.0
N768 N 0.25651 0.29948 0.5303 0.0
N769 N 0.15827 0.07613 0.50504 0.0
C770 C 0.22811 0.24922 0.52253 0.0
C771 C 0.17514 0.13775 0.50857 0.0
N772 N 0.3054 0.25317 0.50041 0.0
N773 N 0.07853 0.15483 0.52361 0.0
H774 H 0.18214 0.04694 0.49687 0.0
H775 H 0.12421 0.05106 0.51178 0.0
H776 H 0.04852 0.17828 0.53167 0.0
H777 H 0.0539 0.12191 0.51645 0.0
H778 H 0.32262 0.29818 0.50354 0.0
H779 H 0.33037 0.2321 0.49084 0.0
H780 H 0.30202 0.31648 0.52756 0.0
H781 H 0.23447 0.32406 0.53979 0.0
C782 C 0.84212 0.75044 0.76022 0.0
C783 C 0.82293 0.71533 0.74634 0.0
C784 C 0.75729 0.64593 0.76369 0.0
C785 C 0.78303 0.67567 0.77773 0.0
N786 N 0.86335 0.74622 0.78903 0.0
N787 N 0.77468 0.61922 0.73551 0.0
C788 C 0.82899 0.72544 0.77595 0.0
C789 C 0.78373 0.66025 0.74821 0.0
N790 N 0.87169 0.80833 0.75844 0.0
N791 N 0.70649 0.60516 0.76501 0.0
H792 H 0.79583 0.62555 0.72415 0.0
H793 H 0.752 0.57509 0.73679 0.0
H794 H 0.6846 0.59453 0.77606 0.0
H795 H 0.68202 0.58731 0.75497 0.0
H796 H 0.88117 0.8386 0.76819 0.0
H797 H 0.88064 0.82903 0.74713 0.0
H798 H 0.90167 0.77784 0.78799 0.0
H799 H 0.85883 0.72659 0.80062 0.0
loop_
_geom_bond_atom_site_label_1
_geom_bond_atom_site_label_2
_geom_bond_distance
_geom_bond_site_symmetry_2
_ccdc_geom_bond_type
C0 O2 1.247 . S
C0 O4 1.258 . S
C1 O8 1.247 . S
C1 O9 1.258 . S
O2 C0 1.247 . S
O2 Zn3 2.028 . S
Zn3 O2 2.028 . S
Zn3 O7 2.035 . S
Zn3 O9 2.035 . S
Zn3 O10 2.028 . S
O4 C0 1.258 . S
O4 Zn5 2.035 . S
Zn5 O4 2.035 . S
Zn5 O6 2.028 . S
Zn5 O8 2.028 . S
Zn5 O11 2.035 . S
O6 Zn5 2.028 . S
O6 C12 1.247 . S
O7 Zn3 2.035 . S
O7 C12 1.258 . S
O8 C1 1.247 . S
O8 Zn5 2.028 . S
O9 C1 1.258 . S
O9 Zn3 2.035 . S
O10 Zn3 2.028 . S
O10 C13 1.247 . S
O11 Zn5 2.035 . S
O11 C13 1.258 . S
C12 O6 1.247 . S
C12 O7 1.258 . S
C13 O10 1.247 . S
C13 O11 1.258 . S
C14 O16 1.247 . S
C14 O18 1.258 . S
C15 O22 1.247 . S
C15 O23 1.258 . S
O16 C14 1.247 . S
O16 Zn17 2.028 . S
Zn17 O16 2.028 . S
Zn17 O21 2.035 . S
Zn17 O23 2.035 . S
Zn17 O24 2.028 . S
O18 C14 1.258 . S
O18 Zn19 2.035 . S
Zn19 O18 2.035 . S
Zn19 O20 2.028 . S
Zn19 O22 2.028 . S
Zn19 O25 2.035 . S
O20 Zn19 2.028 . S
O20 C26 1.247 . S
O21 Zn17 2.035 . S
O21 C26 1.258 . S
O22 C15 1.247 . S
O22 Zn19 2.028 . S
O23 C15 1.258 . S
O23 Zn17 2.035 . S
O24 Zn17 2.028 . S
O24 C27 1.247 . S
O25 Zn19 2.035 . S
O25 C27 1.258 . S
C26 O20 1.247 . S
C26 O21 1.258 . S
C27 O24 1.247 . S
C27 O25 1.258 . S
C28 O30 1.247 . S
C28 O32 1.258 . S
C29 O36 1.247 . S
C29 O37 1.258 . S
O30 C28 1.247 . S
O30 Zn31 2.028 . S
Zn31 O30 2.028 . S
Zn31 O35 2.035 . S
Zn31 O37 2.035 . S
Zn31 O38 2.028 . S
O32 C28 1.258 . S
O32 Zn33 2.035 . S
Zn33 O32 2.035 . S
Zn33 O34 2.028 . S
Zn33 O36 2.028 . S
Zn33 O39 2.035 . S
O34 Zn33 2.028 . S
O34 C40 1.247 . S
O35 Zn31 2.035 . S
O35 C40 1.258 . S
O36 C29 1.247 . S
O36 Zn33 2.028 . S
O37 C29 1.258 . S
O37 Zn31 2.035 . S
O38 Zn31 2.028 . S
O38 C41 1.247 . S
O39 Zn33 2.035 . S
O39 C41 1.258 . S
C40 O34 1.247 . S
C40 O35 1.258 . S
C41 O38 1.247 . S
C41 O39 1.258 . S
C42 O44 1.247 . S
C42 O46 1.258 . S
C43 O50 1.247 . S
C43 O51 1.258 . S
O44 C42 1.247 . S
O44 Zn45 2.028 . S
Zn45 O44 2.028 . S
Zn45 O49 2.035 . S
Zn45 O51 2.035 . S
Zn45 O52 2.028 . S
O46 C42 1.258 . S
O46 Zn47 2.035 . S
Zn47 O46 2.035 . S
Zn47 O48 2.028 . S
Zn47 O50 2.028 . S
Zn47 O53 2.035 . S
O48 Zn47 2.028 . S
O48 C54 1.247 . S
O49 Zn45 2.035 . S
O49 C54 1.258 . S
O50 C43 1.247 . S
O50 Zn47 2.028 . S
O51 C43 1.258 . S
O51 Zn45 2.035 . S
O52 Zn45 2.028 . S
O52 C55 1.247 . S
O53 Zn47 2.035 . S
O53 C55 1.258 . S
C54 O48 1.247 . S
C54 O49 1.258 . S
C55 O52 1.247 . S
C55 O53 1.258 . S
C56 O58 1.247 . S
C56 O60 1.258 . S
C57 O64 1.247 . S
C57 O65 1.258 . S
O58 C56 1.247 . S
O58 Zn59 2.028 . S
Zn59 O58 2.028 . S
Zn59 O63 2.035 . S
Zn59 O65 2.035 . S
Zn59 O66 2.028 . S
O60 C56 1.258 . S
O60 Zn61 2.035 . S
Zn61 O60 2.035 . S
Zn61 O62 2.028 . S
Zn61 O64 2.028 . S
Zn61 O67 2.035 . S
O62 Zn61 2.028 . S
O62 C68 1.247 . S
O63 Zn59 2.035 . S
O63 C68 1.258 . S
O64 C57 1.247 . S
O64 Zn61 2.028 . S
O65 C57 1.258 . S
O65 Zn59 2.035 . S
O66 Zn59 2.028 . S
O66 C69 1.247 . S
O67 Zn61 2.035 . S
O67 C69 1.258 . S
C68 O62 1.247 . S
C68 O63 1.258 . S
C69 O66 1.247 . S
C69 O67 1.258 . S
C70 O72 1.247 . S
C70 O74 1.258 . S
C71 O78 1.247 . S
C71 O79 1.258 . S
O72 C70 1.247 . S
O72 Zn73 2.028 . S
Zn73 O72 2.028 . S
Zn73 O77 2.035 . S
Zn73 O79 2.035 . S
Zn73 O80 2.028 . S
O74 C70 1.258 . S
O74 Zn75 2.035 . S
Zn75 O74 2.035 . S
Zn75 O76 2.028 . S
Zn75 O78 2.028 . S
Zn75 O81 2.035 . S
O76 Zn75 2.028 . S
O76 C82 1.247 . S
O77 Zn73 2.035 . S
O77 C82 1.258 . S
O78 C71 1.247 . S
O78 Zn75 2.028 . S
O79 C71 1.258 . S
O79 Zn73 2.035 . S
O80 Zn73 2.028 . S
O80 C83 1.247 . S
O81 Zn75 2.035 . S
O81 C83 1.258 . S
C82 O76 1.247 . S
C82 O77 1.258 . S
C83 O80 1.247 . S
C83 O81 1.258 . S
C84 O86 1.247 . S
C84 O88 1.258 . S
C85 O92 1.247 . S
C85 O93 1.258 . S
O86 C84 1.247 . S
O86 Zn87 2.028 . S
Zn87 O86 2.028 . S
Zn87 O91 2.035 . S
Zn87 O93 2.035 . S
Zn87 O94 2.028 . S
O88 C84 1.258 . S
O88 Zn89 2.035 . S
Zn89 O88 2.035 . S
Zn89 O90 2.028 . S
Zn89 O92 2.028 . S
Zn89 O95 2.035 . S
O90 Zn89 2.028 . S
O90 C96 1.247 . S
O91 Zn87 2.035 . S
O91 C96 1.258 . S
O92 C85 1.247 . S
O92 Zn89 2.028 . S
O93 C85 1.258 . S
O93 Zn87 2.035 . S
O94 Zn87 2.028 . S
O94 C97 1.247 . S
O95 Zn89 2.035 . S
O95 C97 1.258 . S
C96 O90 1.247 . S
C96 O91 1.258 . S
C97 O94 1.247 . S
C97 O95 1.258 . S
C98 O100 1.247 . S
C98 O102 1.258 . S
C99 O106 1.247 . S
C99 O107 1.258 . S
O100 C98 1.247 . S
O100 Zn101 2.028 . S
Zn101 O100 2.028 . S
Zn101 O105 2.035 . S
Zn101 O107 2.035 . S
Zn101 O108 2.028 . S
O102 C98 1.258 . S
O102 Zn103 2.035 . S
Zn103 O102 2.035 . S
Zn103 O104 2.028 . S
Zn103 O106 2.028 . S
Zn103 O109 2.035 . S
O104 Zn103 2.028 . S
O104 C110 1.247 . S
O105 Zn101 2.035 . S
O105 C110 1.258 . S
O106 C99 1.247 . S
O106 Zn103 2.028 . S
O107 C99 1.258 . S
O107 Zn101 2.035 . S
O108 Zn101 2.028 . S
O108 C111 1.247 . S
O109 Zn103 2.035 . S
O109 C111 1.258 . S
C110 O104 1.247 . S
C110 O105 1.258 . S
C111 O108 1.247 . S
C111 O109 1.258 . S
C112 O114 1.247 . S
C112 O116 1.258 . S
C113 O120 1.247 . S
C113 O121 1.258 . S
O114 C112 1.247 . S
O114 Zn115 2.028 . S
Zn115 O114 2.028 . S
Zn115 O119 2.035 . S
Zn115 O121 2.035 . S
Zn115 O122 2.028 . S
O116 C112 1.258 . S
O116 Zn117 2.035 . S
Zn117 O116 2.035 . S
Zn117 O118 2.028 . S
Zn117 O120 2.028 . S
Zn117 O123 2.035 . S
O118 Zn117 2.028 . S
O118 C124 1.247 . S
O119 Zn115 2.035 . S
O119 C124 1.258 . S
O120 C113 1.247 . S
O120 Zn117 2.028 . S
O121 C113 1.258 . S
O121 Zn115 2.035 . S
O122 Zn115 2.028 . S
O122 C125 1.247 . S
O123 Zn117 2.035 . S
O123 C125 1.258 . S
C124 O118 1.247 . S
C124 O119 1.258 . S
C125 O122 1.247 . S
C125 O123 1.258 . S
C126 O128 1.247 . S
C126 O130 1.258 . S
C127 O134 1.247 . S
C127 O135 1.258 . S
O128 C126 1.247 . S
O128 Zn129 2.028 . S
Zn129 O128 2.028 . S
Zn129 O133 2.035 . S
Zn129 O135 2.035 . S
Zn129 O136 2.028 . S
O130 C126 1.258 . S
O130 Zn131 2.035 . S
Zn131 O130 2.035 . S
Zn131 O132 2.028 . S
Zn131 O134 2.028 . S
Zn131 O137 2.035 . S
O132 Zn131 2.028 . S
O132 C138 1.247 . S
O133 Zn129 2.035 . S
O133 C138 1.258 . S
O134 C127 1.247 . S
O134 Zn131 2.028 . S
O135 C127 1.258 . S
O135 Zn129 2.035 . S
O136 Zn129 2.028 . S
O136 C139 1.247 . S
O137 Zn131 2.035 . S
O137 C139 1.258 . S
C138 O132 1.247 . S
C138 O133 1.258 . S
C139 O136 1.247 . S
C139 O137 1.258 . S
C140 O142 1.247 . S
C140 O144 1.258 . S
C141 O148 1.247 . S
C141 O149 1.258 . S
O142 C140 1.247 . S
O142 Zn143 2.028 . S
Zn143 O142 2.028 . S
Zn143 O147 2.035 . S
Zn143 O149 2.035 . S
Zn143 O150 2.028 . S
O144 C140 1.258 . S
O144 Zn145 2.035 . S
Zn145 O144 2.035 . S
Zn145 O146 2.028 . S
Zn145 O148 2.028 . S
Zn145 O151 2.035 . S
O146 Zn145 2.028 . S
O146 C152 1.247 . S
O147 Zn143 2.035 . S
O147 C152 1.258 . S
O148 C141 1.247 . S
O148 Zn145 2.028 . S
O149 C141 1.258 . S
O149 Zn143 2.035 . S
O150 Zn143 2.028 . S
O150 C153 1.247 . S
O151 Zn145 2.035 . S
O151 C153 1.258 . S
C152 O146 1.247 . S
C152 O147 1.258 . S
C153 O150 1.247 . S
C153 O151 1.258 . S
C154 O156 1.247 . S
C154 O158 1.258 . S
C155 O162 1.247 . S
C155 O163 1.258 . S
O156 C154 1.247 . S
O156 Zn157 2.028 . S
Zn157 O156 2.028 . S
Zn157 O161 2.035 . S
Zn157 O163 2.035 . S
Zn157 O164 2.028 . S
O158 C154 1.258 . S
O158 Zn159 2.035 . S
Zn159 O158 2.035 . S
Zn159 O160 2.028 . S
Zn159 O162 2.028 . S
Zn159 O165 2.035 . S
O160 Zn159 2.028 . S
O160 C166 1.247 . S
O161 Zn157 2.035 . S
O161 C166 1.258 . S
O162 C155 1.247 . S
O162 Zn159 2.028 . S
O163 C155 1.258 . S
O163 Zn157 2.035 . S
O164 Zn157 2.028 . S
O164 C167 1.247 . S
O165 Zn159 2.035 . S
O165 C167 1.258 . S
C166 O160 1.247 . S
C166 O161 1.258 . S
C167 O164 1.247 . S
C167 O165 1.258 . S
C168 O170 1.247 . S
C168 O172 1.258 . S
C169 O176 1.247 . S
C169 O177 1.258 . S
O170 C168 1.247 . S
O170 Zn171 2.028 . S
Zn171 O170 2.028 . S
Zn171 O175 2.035 . S
Zn171 O177 2.035 . S
Zn171 O178 2.028 . S
O172 C168 1.258 . S
O172 Zn173 2.035 . S
Zn173 O172 2.035 . S
Zn173 O174 2.028 . S
Zn173 O176 2.028 . S
Zn173 O179 2.035 . S
O174 Zn173 2.028 . S
O174 C180 1.247 . S
O175 Zn171 2.035 . S
O175 C180 1.258 . S
O176 C169 1.247 . S
O176 Zn173 2.028 . S
O177 C169 1.258 . S
O177 Zn171 2.035 . S
O178 Zn171 2.028 . S
O178 C181 1.247 . S
O179 Zn173 2.035 . S
O179 C181 1.258 . S
C180 O174 1.247 . S
C180 O175 1.258 . S
C181 O178 1.247 . S
C181 O179 1.258 . S
C182 O184 1.247 . S
C182 O186 1.258 . S
C183 O190 1.247 . S
C183 O191 1.258 . S
O184 C182 1.247 . S
O184 Zn185 2.028 . S
Zn185 O184 2.028 . S
Zn185 O189 2.035 . S
Zn185 O191 2.035 . S
Zn185 O192 2.028 . S
O186 C182 1.258 . S
O186 Zn187 2.035 . S
Zn187 O186 2.035 . S
Zn187 O188 2.028 . S
Zn187 O190 2.028 . S
Zn187 O193 2.035 . S
O188 Zn187 2.028 . S
O188 C194 1.247 . S
O189 Zn185 2.035 . S
O189 C194 1.258 . S
O190 C183 1.247 . S
O190 Zn187 2.028 . S
O191 C183 1.258 . S
O191 Zn185 2.035 . S
O192 Zn185 2.028 . S
O192 C195 1.247 . S
O193 Zn187 2.035 . S
O193 C195 1.258 . S
C194 O188 1.247 . S
C194 O189 1.258 . S
C195 O192 1.247 . S
C195 O193 1.258 . S
C196 O198 1.247 . S
C196 O200 1.258 . S
C197 O204 1.247 . S
C197 O205 1.258 . S
O198 C196 1.247 . S
O198 Zn199 2.028 . S
Zn199 O198 2.028 . S
Zn199 O203 2.035 . S
Zn199 O205 2.035 . S
Zn199 O206 2.028 . S
O200 C196 1.258 . S
O200 Zn201 2.035 . S
Zn201 O200 2.035 . S
Zn201 O202 2.028 . S
Zn201 O204 2.028 . S
Zn201 O207 2.035 . S
O202 Zn201 2.028 . S
O202 C208 1.247 . S
O203 Zn199 2.035 . S
O203 C208 1.258 . S
O204 C197 1.247 . S
O204 Zn201 2.028 . S
O205 C197 1.258 . S
O205 Zn199 2.035 . S
O206 Zn199 2.028 . S
O206 C209 1.247 . S
O207 Zn201 2.035 . S
O207 C209 1.258 . S
C208 O202 1.247 . S
C208 O203 1.258 . S
C209 O206 1.247 . S
C209 O207 1.258 . S
C210 O212 1.247 . S
C210 O214 1.258 . S
C211 O218 1.247 . S
C211 O219 1.258 . S
O212 C210 1.247 . S
O212 Zn213 2.028 . S
Zn213 O212 2.028 . S
Zn213 O217 2.035 . S
Zn213 O219 2.035 . S
Zn213 O220 2.028 . S
O214 C210 1.258 . S
O214 Zn215 2.035 . S
Zn215 O214 2.035 . S
Zn215 O216 2.028 . S
Zn215 O218 2.028 . S
Zn215 O221 2.035 . S
O216 Zn215 2.028 . S
O216 C222 1.247 . S
O217 Zn213 2.035 . S
O217 C222 1.258 . S
O218 C211 1.247 . S
O218 Zn215 2.028 . S
O219 C211 1.258 . S
O219 Zn213 2.035 . S
O220 Zn213 2.028 . S
O220 C223 1.247 . S
O221 Zn215 2.035 . S
O221 C223 1.258 . S
C222 O216 1.247 . S
C222 O217 1.258 . S
C223 O220 1.247 . S
C223 O221 1.258 . S
C224 C225 1.363 . S
C224 C230 1.379 1_655 S
C224 N232 1.356 . S
C225 C224 1.363 . S
C225 C231 1.363 1_565 S
C226 C227 1.363 . S
C226 C231 1.379 1_455 S
C226 N233 1.356 . S
C227 C226 1.363 . S
C227 C230 1.363 1_545 S
N228 C230 1.356 1_545 S
N228 H240 0.984 1_545 S
N228 H241 0.985 . S
N229 C231 1.356 1_565 S
N229 H234 0.984 . S
N229 H235 0.985 1_565 S
C230 C224 1.379 1_455 S
C230 C227 1.363 1_565 S
C230 N228 1.356 1_565 S
C231 C225 1.363 1_545 S
C231 C226 1.379 1_655 S
C231 N229 1.356 1_545 S
N232 C224 1.356 . S
N232 H238 0.987 . S
N232 H239 0.984 . S
N233 C226 1.356 . S
N233 H236 0.984 . S
N233 H237 0.987 . S
H234 N229 0.984 . S
H235 N229 0.985 1_545 S
H236 N233 0.984 . S
H237 N233 0.987 . S
H238 N232 0.987 . S
H239 N232 0.984 . S
H240 N228 0.984 1_565 S
H241 N228 0.985 . S
C242 C243 1.363 . S
C242 C248 1.379 . S
C242 N250 1.356 . S
C243 C242 1.363 . S
C243 C249 1.363 1_655 S
C244 C245 1.363 . S
C244 C249 1.379 . S
C244 N251 1.356 . S
C245 C244 1.363 . S
C245 C248 1.363 1_455 S
N246 C248 1.356 1_455 S
N246 H258 0.984 1_455 S
N246 H259 0.985 . S
N247 C249 1.356 1_655 S
N247 H252 0.984 . S
N247 H253 0.985 1_655 S
C248 C242 1.379 . S
C248 C245 1.363 1_655 S
C248 N246 1.356 1_655 S
C249 C243 1.363 1_455 S
C249 C244 1.379 . S
C249 N247 1.356 1_455 S
N250 C242 1.356 . S
N250 H256 0.984 . S
N250 H257 0.984 . S
N251 C244 1.356 . S
N251 H254 0.984 . S
N251 H255 0.985 . S
H252 N247 0.984 . S
H253 N247 0.985 1_455 S
H254 N251 0.984 . S
H255 N251 0.985 . S
H256 N250 0.984 . S
H257 N250 0.984 . S
H258 N246 0.984 1_655 S
H259 N246 0.985 . S
C260 C261 1.363 . S
C260 C266 1.379 . S
C260 N268 1.356 . S
C261 C260 1.363 . S
C261 C267 1.363 . S
C262 C263 1.363 . S
C262 C267 1.379 . S
C262 N269 1.356 . S
C263 C262 1.363 . S
C263 C266 1.363 . S
N264 C266 1.356 . S
N264 H276 0.984 . S
N264 H277 0.985 . S
N265 C267 1.356 . S
N265 H270 0.984 . S
N265 H271 0.985 . S
C266 C260 1.379 . S
C266 C263 1.363 . S
C266 N264 1.356 . S
C267 C261 1.363 . S
C267 C262 1.379 . S
C267 N265 1.356 . S
N268 C260 1.356 . S
N268 H274 0.984 . S
N268 H275 0.984 . S
N269 C262 1.356 . S
N269 H272 0.984 . S
N269 H273 0.985 . S
H270 N265 0.984 . S
H271 N265 0.985 . S
H272 N269 0.984 . S
H273 N269 0.985 . S
H274 N268 0.984 . S
H275 N268 0.984 . S
H276 N264 0.984 . S
H277 N264 0.985 . S
C278 C279 1.363 . S
C278 C284 1.379 1_545 S
C278 N286 1.356 . S
C279 C278 1.363 . S
C279 C285 1.363 . S
C280 C281 1.363 . S
C280 C285 1.379 1_565 S
C280 N287 1.356 . S
C281 C280 1.363 . S
C281 C284 1.363 . S
N282 C284 1.356 . S
N282 H294 0.984 . S
N282 H295 0.985 . S
N283 C285 1.356 . S
N283 H288 0.984 . S
N283 H289 0.985 . S
C284 C278 1.379 1_565 S
C284 C281 1.363 . S
C284 N282 1.356 . S
C285 C279 1.363 . S
C285 C280 1.379 1_545 S
C285 N283 1.356 . S
N286 C278 1.356 . S
N286 H292 0.987 . S
N286 H293 0.984 . S
N287 C280 1.356 . S
N287 H290 0.984 . S
N287 H291 0.987 . S
H288 N283 0.984 . S
H289 N283 0.985 . S
H290 N287 0.984 . S
H291 N287 0.987 . S
H292 N286 0.987 . S
H293 N286 0.984 . S
H294 N282 0.984 . S
H295 N282 0.985 . S
C296 C297 1.363 . S
C296 C302 1.379 1_455 S
C296 N304 1.356 . S
C297 C296 1.363 . S
C297 C303 1.363 . S
C298 C299 1.363 . S
C298 C303 1.379 1_655 S
C298 N305 1.356 . S
C299 C298 1.363 . S
C299 C302 1.363 . S
N300 C302 1.356 . S
N300 H312 0.984 . S
N300 H313 0.985 . S
N301 C303 1.356 . S
N301 H306 0.984 . S
N301 H307 0.985 . S
C302 C296 1.379 1_655 S
C302 C299 1.363 . S
C302 N300 1.356 . S
C303 C297 1.363 . S
C303 C298 1.379 1_455 S
C303 N301 1.356 . S
N304 C296 1.356 . S
N304 H310 0.987 . S
N304 H311 0.984 . S
N305 C298 1.356 . S
N305 H308 0.984 . S
N305 H309 0.987 . S
H306 N301 0.984 . S
H307 N301 0.985 . S
H308 N305 0.984 . S
H309 N305 0.987 . S
H310 N304 0.987 . S
H311 N304 0.984 . S
H312 N300 0.984 . S
H313 N300 0.985 . S
C314 C315 1.363 . S
C314 C320 1.379 . S
C314 N322 1.356 . S
C315 C314 1.363 . S
C315 C321 1.363 . S
C316 C317 1.363 . S
C316 C321 1.379 . S
C316 N323 1.356 . S
C317 C316 1.363 . S
C317 C320 1.363 . S
N318 C320 1.356 . S
N318 H330 0.984 . S
N318 H331 0.985 . S
N319 C321 1.356 . S
N319 H324 0.984 . S
N319 H325 0.985 . S
C320 C314 1.379 . S
C320 C317 1.363 . S
C320 N318 1.356 . S
C321 C315 1.363 . S
C321 C316 1.379 . S
C321 N319 1.356 . S
N322 C314 1.356 . S
N322 H328 0.984 . S
N322 H329 0.984 . S
N323 C316 1.356 . S
N323 H326 0.984 . S
N323 H327 0.985 . S
H324 N319 0.984 . S
H325 N319 0.985 . S
H326 N323 0.984 . S
H327 N323 0.985 . S
H328 N322 0.984 . S
H329 N322 0.984 . S
H330 N318 0.984 . S
H331 N318 0.985 . S
C332 C333 1.363 . S
C332 C338 1.379 . S
C332 N340 1.356 . S
C333 C332 1.363 . S
C333 C339 1.363 1_545 S
C334 C335 1.363 . S
C334 C339 1.379 . S
C334 N341 1.356 . S
C335 C334 1.363 . S
C335 C338 1.363 1_565 S
N336 C338 1.356 1_565 S
N336 H348 0.984 1_565 S
N336 H349 0.985 . S
N337 C339 1.356 1_545 S
N337 H342 0.984 . S
N337 H343 0.985 1_545 S
C338 C332 1.379 . S
C338 C335 1.363 1_545 S
C338 N336 1.356 1_545 S
C339 C333 1.363 1_565 S
C339 C334 1.379 . S
C339 N337 1.356 1_565 S
N340 C332 1.356 . S
N340 H346 0.984 . S
N340 H347 0.984 . S
N341 C334 1.356 . S
N341 H344 0.984 . S
N341 H345 0.985 . S
H342 N337 0.984 . S
H343 N337 0.985 1_565 S
H344 N341 0.984 . S
H345 N341 0.985 . S
H346 N340 0.984 . S
H347 N340 0.984 . S
H348 N336 0.984 1_545 S
H349 N336 0.985 . S
C350 C351 1.363 1_655 S
C350 C356 1.379 1_545 S
C350 N358 1.356 1_655 S
C351 C350 1.363 1_455 S
C351 C357 1.363 . S
C352 C353 1.363 1_455 S
C352 C357 1.379 1_565 S
C352 N359 1.356 1_455 S
C353 C352 1.363 1_655 S
C353 C356 1.363 . S
N354 C356 1.356 . S
N354 H366 0.987 . S
N354 H367 0.985 . S
N355 C357 1.356 . S
N355 H360 0.984 . S
N355 H361 0.987 . S
C356 C350 1.379 1_565 S
C356 C353 1.363 . S
C356 N354 1.356 . S
C357 C351 1.363 . S
C357 C352 1.379 1_545 S
C357 N355 1.356 . S
N358 C350 1.356 1_455 S
N358 H364 0.984 1_455 S
N358 H365 0.984 . S
N359 C352 1.356 1_655 S
N359 H362 0.984 . S
N359 H363 0.985 1_655 S
H360 N355 0.984 . S
H361 N355 0.987 . S
H362 N359 0.984 . S
H363 N359 0.985 1_455 S
H364 N358 0.984 1_655 S
H365 N358 0.984 . S
H366 N354 0.987 . S
H367 N354 0.985 . S
C368 C369 1.363 . S
C368 C374 1.378 1_565 S
C368 N376 1.356 . S
C369 C368 1.363 . S
C369 C375 1.364 . S
C370 C371 1.363 . S
C370 C375 1.378 1_545 S
C370 N377 1.356 . S
C371 C370 1.363 . S
C371 C374 1.363 . S
N372 C374 1.356 . S
N372 H384 0.984 1_545 S
N372 H385 0.985 . S
N373 C375 1.356 . S
N373 H378 0.984 . S
N373 H379 0.985 1_565 S
C374 C368 1.378 1_545 S
C374 C371 1.363 . S
C374 N372 1.356 . S
C375 C369 1.364 . S
C375 C370 1.378 1_565 S
C375 N373 1.356 . S
N376 C368 1.356 . S
N376 H382 0.984 . S
N376 H383 0.984 . S
N377 C370 1.356 . S
N377 H380 0.984 . S
N377 H381 0.985 . S
H378 N373 0.984 . S
H379 N373 0.985 1_545 S
H380 N377 0.984 . S
H381 N377 0.985 . S
H382 N376 0.984 . S
H383 N376 0.984 . S
H384 N372 0.984 1_565 S
H385 N372 0.985 . S
C386 C387 1.363 . S
C386 C392 1.378 1_665 S
C386 N394 1.356 . S
C387 C386 1.363 . S
C387 C393 1.363 . S
C388 C389 1.363 . S
C388 C393 1.378 1_445 S
C388 N395 1.356 . S
C389 C388 1.363 . S
C389 C392 1.363 . S
N390 C392 1.356 . S
N390 H402 0.984 1_455 S
N390 H403 0.985 . S
N391 C393 1.356 . S
N391 H396 0.984 . S
N391 H397 0.985 1_655 S
C392 C386 1.378 1_445 S
C392 C389 1.363 . S
C392 N390 1.356 . S
C393 C387 1.363 . S
C393 C388 1.378 1_665 S
C393 N391 1.356 . S
N394 C386 1.356 . S
N394 H400 0.984 1_565 S
N394 H401 0.984 . S
N395 C388 1.356 . S
N395 H398 0.984 . S
N395 H399 0.985 1_545 S
H396 N391 0.984 . S
H397 N391 0.985 1_455 S
H398 N395 0.984 . S
H399 N395 0.985 1_565 S
H400 N394 0.984 1_545 S
H401 N394 0.984 . S
H402 N390 0.984 1_655 S
H403 N390 0.985 . S
C404 C405 1.363 . S
C404 C410 1.379 1_455 S
C404 N412 1.356 . S
C405 C404 1.363 . S
C405 C411 1.363 . S
C406 C407 1.363 . S
C406 C411 1.379 1_655 S
C406 N413 1.356 . S
C407 C406 1.363 . S
C407 C410 1.363 . S
N408 C410 1.356 . S
N408 H420 0.984 1_655 S
N408 H421 0.985 . S
N409 C411 1.356 . S
N409 H414 0.984 . S
N409 H415 0.985 1_455 S
C410 C404 1.379 1_655 S
C410 C407 1.363 . S
C410 N408 1.356 . S
C411 C405 1.363 . S
C411 C406 1.379 1_455 S
C411 N409 1.356 . S
N412 C404 1.356 . S
N412 H418 0.984 . S
N412 H419 0.984 . S
N413 C406 1.356 . S
N413 H416 0.984 . S
N413 H417 0.985 . S
H414 N409 0.984 . S
H415 N409 0.985 1_655 S
H416 N413 0.984 . S
H417 N413 0.985 . S
H418 N412 0.984 . S
H419 N412 0.984 . S
H420 N408 0.984 1_455 S
H421 N408 0.985 . S
C422 C423 1.363 . S
C422 C428 1.379 . S
C422 N430 1.356 . S
C423 C422 1.363 . S
C423 C429 1.363 . S
C424 C425 1.363 . S
C424 C429 1.379 . S
C424 N431 1.356 . S
C425 C424 1.363 . S
C425 C428 1.363 . S
N426 C428 1.356 . S
N426 H438 0.984 . S
N426 H439 0.985 . S
N427 C429 1.356 . S
N427 H432 0.984 . S
N427 H433 0.985 . S
C428 C422 1.379 . S
C428 C425 1.363 . S
C428 N426 1.356 . S
C429 C423 1.363 . S
C429 C424 1.379 . S
C429 N427 1.356 . S
N430 C422 1.356 . S
N430 H436 0.984 . S
N430 H437 0.984 . S
N431 C424 1.356 . S
N431 H434 0.984 . S
N431 H435 0.985 . S
H432 N427 0.984 . S
H433 N427 0.985 . S
H434 N431 0.984 . S
H435 N431 0.985 . S
H436 N430 0.984 . S
H437 N430 0.984 . S
H438 N426 0.984 . S
H439 N426 0.985 . S
C440 C441 1.363 . S
C440 C446 1.379 . S
C440 N448 1.356 . S
C441 C440 1.363 . S
C441 C447 1.363 . S
C442 C443 1.363 . S
C442 C447 1.379 . S
C442 N449 1.356 . S
C443 C442 1.363 . S
C443 C446 1.363 . S
N444 C446 1.356 . S
N444 H456 0.984 . S
N444 H457 0.985 . S
N445 C447 1.356 . S
N445 H450 0.984 . S
N445 H451 0.985 . S
C446 C440 1.379 . S
C446 C443 1.363 . S
C446 N444 1.356 . S
C447 C441 1.363 . S
C447 C442 1.379 . S
C447 N445 1.356 . S
N448 C440 1.356 . S
N448 H454 0.984 . S
N448 H455 0.984 . S
N449 C442 1.356 . S
N449 H452 0.984 . S
N449 H453 0.985 . S
H450 N445 0.984 . S
H451 N445 0.985 . S
H452 N449 0.984 . S
H453 N449 0.985 . S
H454 N448 0.984 . S
H455 N448 0.984 . S
H456 N444 0.984 . S
H457 N444 0.985 . S
C458 C459 1.363 . S
C458 C464 1.379 1_565 S
C458 N466 1.356 . S
C459 C458 1.363 . S
C459 C465 1.363 . S
C460 C461 1.363 . S
C460 C465 1.379 1_545 S
C460 N467 1.356 . S
C461 C460 1.363 . S
C461 C464 1.363 . S
N462 C464 1.356 . S
N462 H474 0.984 1_545 S
N462 H475 0.985 . S
N463 C465 1.356 . S
N463 H468 0.984 . S
N463 H469 0.985 1_565 S
C464 C458 1.379 1_545 S
C464 C461 1.363 . S
C464 N462 1.356 . S
C465 C459 1.363 . S
C465 C460 1.379 1_565 S
C465 N463 1.356 . S
N466 C458 1.356 . S
N466 H472 0.984 . S
N466 H473 0.984 . S
N467 C460 1.356 . S
N467 H470 0.984 . S
N467 H471 0.985 . S
H468 N463 0.984 . S
H469 N463 0.985 1_545 S
H470 N467 0.984 . S
H471 N467 0.985 . S
H472 N466 0.984 . S
H473 N466 0.984 . S
H474 N462 0.984 1_565 S
H475 N462 0.985 . S
C476 C477 1.363 . S
C476 C482 1.378 1_665 S
C476 N484 1.356 . S
C477 C476 1.363 . S
C477 C483 1.363 . S
C478 C479 1.363 . S
C478 C483 1.378 1_445 S
C478 N485 1.356 . S
C479 C478 1.363 . S
C479 C482 1.363 . S
N480 C482 1.356 . S
N480 H492 0.984 1_545 S
N480 H493 0.985 . S
N481 C483 1.356 . S
N481 H486 0.984 . S
N481 H487 0.985 1_565 S
C482 C476 1.378 1_445 S
C482 C479 1.363 . S
C482 N480 1.356 . S
C483 C477 1.363 . S
C483 C478 1.378 1_665 S
C483 N481 1.356 . S
N484 C476 1.356 . S
N484 H490 0.984 1_655 S
N484 H491 0.984 . S
N485 C478 1.356 . S
N485 H488 0.984 . S
N485 H489 0.985 1_455 S
H486 N481 0.984 . S
H487 N481 0.985 1_545 S
H488 N485 0.984 . S
H489 N485 0.985 1_655 S
H490 N484 0.984 1_455 S
H491 N484 0.984 . S
H492 N480 0.984 1_565 S
H493 N480 0.985 . S
C494 C495 1.364 . S
C494 C500 1.378 1_455 S
C494 N502 1.356 . S
C495 C494 1.364 . S
C495 C501 1.363 . S
C496 C497 1.363 . S
C496 C501 1.378 1_655 S
C496 N503 1.356 . S
C497 C496 1.363 . S
C497 C500 1.363 . S
N498 C500 1.356 . S
N498 H510 0.984 . S
N498 H511 0.985 . S
N499 C501 1.356 . S
N499 H504 0.984 . S
N499 H505 0.985 . S
C500 C494 1.378 1_655 S
C500 C497 1.363 . S
C500 N498 1.356 . S
C501 C495 1.363 . S
C501 C496 1.378 1_455 S
C501 N499 1.356 . S
N502 C494 1.356 . S
N502 H508 0.984 1_455 S
N502 H509 0.984 . S
N503 C496 1.356 . S
N503 H506 0.984 . S
N503 H507 0.985 1_655 S
H504 N499 0.984 . S
H505 N499 0.985 . S
H506 N503 0.984 . S
H507 N503 0.985 1_455 S
H508 N502 0.984 1_655 S
H509 N502 0.984 . S
H510 N498 0.984 . S
H511 N498 0.985 . S
C512 C513 1.363 . S
C512 C518 1.379 . S
C512 N520 1.356 . S
C513 C512 1.363 . S
C513 C519 1.363 . S
C514 C515 1.363 . S
C514 C519 1.379 . S
C514 N521 1.356 1_545 S
C515 C514 1.363 . S
C515 C518 1.363 . S
N516 C518 1.356 . S
N516 H528 0.984 . S
N516 H529 0.985 . S
N517 C519 1.356 1_565 S
N517 H522 0.984 . S
N517 H523 0.985 . S
C518 C512 1.379 . S
C518 C515 1.363 . S
C518 N516 1.356 . S
C519 C513 1.363 . S
C519 C514 1.379 . S
C519 N517 1.356 1_545 S
N520 C512 1.356 . S
N520 H526 0.984 . S
N520 H527 0.984 . S
N521 C514 1.356 1_565 S
N521 H524 0.984 . S
N521 H525 0.985 . S
H522 N517 0.984 . S
H523 N517 0.985 . S
H524 N521 0.984 . S
H525 N521 0.985 . S
H526 N520 0.984 . S
H527 N520 0.984 . S
H528 N516 0.984 . S
H529 N516 0.985 . S
C530 C531 1.363 . S
C530 C536 1.379 . S
C530 N538 1.356 . S
C531 C530 1.363 . S
C531 C537 1.363 . S
C532 C533 1.363 . S
C532 C537 1.379 . S
C532 N539 1.356 . S
C533 C532 1.363 . S
C533 C536 1.363 . S
N534 C536 1.356 . S
N534 H546 0.984 1_655 S
N534 H547 0.985 . S
N535 C537 1.356 . S
N535 H540 0.984 . S
N535 H541 0.985 . S
C536 C530 1.379 . S
C536 C533 1.363 . S
C536 N534 1.356 . S
C537 C531 1.363 . S
C537 C532 1.379 . S
C537 N535 1.356 . S
N538 C530 1.356 . S
N538 H544 0.984 1_655 S
N538 H545 0.984 . S
N539 C532 1.356 . S
N539 H542 0.984 . S
N539 H543 0.985 . S
H540 N535 0.984 . S
H541 N535 0.985 . S
H542 N539 0.984 . S
H543 N539 0.985 . S
H544 N538 0.984 1_455 S
H545 N538 0.984 . S
H546 N534 0.984 1_455 S
H547 N534 0.985 . S
C548 C549 1.363 . S
C548 C554 1.379 . S
C548 N556 1.356 . S
C549 C548 1.363 . S
C549 C555 1.363 . S
C550 C551 1.363 . S
C550 C555 1.379 . S
C550 N557 1.356 . S
C551 C550 1.363 . S
C551 C554 1.363 . S
N552 C554 1.356 . S
N552 H564 0.984 . S
N552 H565 0.985 . S
N553 C555 1.356 . S
N553 H558 0.984 . S
N553 H559 0.985 . S
C554 C548 1.379 . S
C554 C551 1.363 . S
C554 N552 1.356 . S
C555 C549 1.363 . S
C555 C550 1.379 . S
C555 N553 1.356 . S
N556 C548 1.356 . S
N556 H562 0.984 . S
N556 H563 0.984 . S
N557 C550 1.356 . S
N557 H560 0.984 . S
N557 H561 0.985 . S
H558 N553 0.984 . S
H559 N553 0.985 . S
H560 N557 0.984 . S
H561 N557 0.985 . S
H562 N556 0.984 . S
H563 N556 0.984 . S
H564 N552 0.984 . S
H565 N552 0.985 . S
C566 C567 1.363 . S
C566 C572 1.379 . S
C566 N574 1.356 . S
C567 C566 1.363 . S
C567 C573 1.363 . S
C568 C569 1.363 . S
C568 C573 1.379 . S
C568 N575 1.356 . S
C569 C568 1.363 . S
C569 C572 1.363 . S
N570 C572 1.356 . S
N570 H582 0.984 . S
N570 H583 0.985 . S
N571 C573 1.356 . S
N571 H576 0.984 . S
N571 H577 0.985 . S
C572 C566 1.379 . S
C572 C569 1.363 . S
C572 N570 1.356 . S
C573 C567 1.363 . S
C573 C568 1.379 . S
C573 N571 1.356 . S
N574 C566 1.356 . S
N574 H580 0.984 . S
N574 H581 0.984 . S
N575 C568 1.356 . S
N575 H578 0.984 . S
N575 H579 0.985 . S
H576 N571 0.984 . S
H577 N571 0.985 . S
H578 N575 0.984 . S
H579 N575 0.985 . S
H580 N574 0.984 . S
H581 N574 0.984 . S
H582 N570 0.984 . S
H583 N570 0.985 . S
C584 C585 1.363 . S
C584 C590 1.379 . S
C584 N592 1.356 . S
C585 C584 1.363 . S
C585 C591 1.363 . S
C586 C587 1.363 . S
C586 C591 1.379 . S
C586 N593 1.356 . S
C587 C586 1.363 . S
C587 C590 1.363 . S
N588 C590 1.356 . S
N588 H600 0.984 . S
N588 H601 0.985 . S
N589 C591 1.356 . S
N589 H594 0.984 . S
N589 H595 0.985 . S
C590 C584 1.379 . S
C590 C587 1.363 . S
C590 N588 1.356 . S
C591 C585 1.363 . S
C591 C586 1.379 . S
C591 N589 1.356 . S
N592 C584 1.356 . S
N592 H598 0.984 . S
N592 H599 0.984 . S
N593 C586 1.356 . S
N593 H596 0.984 . S
N593 H597 0.985 . S
H594 N589 0.984 . S
H595 N589 0.985 . S
H596 N593 0.984 . S
H597 N593 0.985 . S
H598 N592 0.984 . S
H599 N592 0.984 . S
H600 N588 0.984 . S
H601 N588 0.985 . S
C602 C603 1.363 . S
C602 C608 1.379 . S
C602 N610 1.356 . S
C603 C602 1.363 . S
C603 C609 1.363 . S
C604 C605 1.363 . S
C604 C609 1.379 . S
C604 N611 1.356 . S
C605 C604 1.363 . S
C605 C608 1.363 . S
N606 C608 1.356 . S
N606 H618 0.984 . S
N606 H619 0.985 . S
N607 C609 1.356 . S
N607 H612 0.984 . S
N607 H613 0.985 . S
C608 C602 1.379 . S
C608 C605 1.363 . S
C608 N606 1.356 . S
C609 C603 1.363 . S
C609 C604 1.379 . S
C609 N607 1.356 . S
N610 C602 1.356 . S
N610 H616 0.984 . S
N610 H617 0.984 . S
N611 C604 1.356 . S
N611 H614 0.984 . S
N611 H615 0.985 . S
H612 N607 0.984 . S
H613 N607 0.985 . S
H614 N611 0.984 . S
H615 N611 0.985 . S
H616 N610 0.984 . S
H617 N610 0.984 . S
H618 N606 0.984 . S
H619 N606 0.985 . S
C620 C621 1.363 . S
C620 C626 1.379 . S
C620 N628 1.356 1_565 S
C621 C620 1.363 . S
C621 C627 1.363 . S
C622 C623 1.363 . S
C622 C627 1.379 . S
C622 N629 1.356 . S
C623 C622 1.363 . S
C623 C626 1.363 . S
N624 C626 1.356 1_545 S
N624 H636 0.984 . S
N624 H637 0.985 . S
N625 C627 1.356 . S
N625 H630 0.984 . S
N625 H631 0.985 . S
C626 C620 1.379 . S
C626 C623 1.363 . S
C626 N624 1.356 1_565 S
C627 C621 1.363 . S
C627 C622 1.379 . S
C627 N625 1.356 . S
N628 C620 1.356 1_545 S
N628 H634 0.984 . S
N628 H635 0.984 . S
N629 C622 1.356 . S
N629 H632 0.984 . S
N629 H633 0.985 . S
H630 N625 0.984 . S
H631 N625 0.985 . S
H632 N629 0.984 . S
H633 N629 0.985 . S
H634 N628 0.984 . S
H635 N628 0.984 . S
H636 N624 0.984 . S
H637 N624 0.985 . S
C638 C639 1.363 . S
C638 C644 1.379 . S
C638 N646 1.356 . S
C639 C638 1.363 . S
C639 C645 1.363 . S
C640 C641 1.363 . S
C640 C645 1.379 . S
C640 N647 1.356 1_455 S
C641 C640 1.363 . S
C641 C644 1.363 . S
N642 C644 1.356 . S
N642 H654 0.984 . S
N642 H655 0.985 . S
N643 C645 1.356 1_655 S
N643 H648 0.984 . S
N643 H649 0.985 . S
C644 C638 1.379 . S
C644 C641 1.363 . S
C644 N642 1.356 . S
C645 C639 1.363 . S
C645 C640 1.379 . S
C645 N643 1.356 1_455 S
N646 C638 1.356 . S
N646 H652 0.984 . S
N646 H653 0.984 . S
N647 C640 1.356 1_655 S
N647 H650 0.984 . S
N647 H651 0.985 . S
H648 N643 0.984 . S
H649 N643 0.985 . S
H650 N647 0.984 . S
H651 N647 0.985 . S
H652 N646 0.984 . S
H653 N646 0.984 . S
H654 N642 0.984 . S
H655 N642 0.985 . S
C656 C657 1.363 . S
C656 C662 1.379 . S
C656 N664 1.356 . S
C657 C656 1.363 . S
C657 C663 1.363 . S
C658 C659 1.363 . S
C658 C663 1.379 . S
C658 N665 1.356 . S
C659 C658 1.363 . S
C659 C662 1.363 . S
N660 C662 1.356 . S
N660 H672 0.984 . S
N660 H673 0.985 . S
N661 C663 1.356 . S
N661 H666 0.984 . S
N661 H667 0.985 . S
C662 C656 1.379 . S
C662 C659 1.363 . S
C662 N660 1.356 . S
C663 C657 1.363 . S
C663 C658 1.379 . S
C663 N661 1.356 . S
N664 C656 1.356 . S
N664 H670 0.984 . S
N664 H671 0.984 . S
N665 C658 1.356 . S
N665 H668 0.984 . S
N665 H669 0.985 . S
H666 N661 0.984 . S
H667 N661 0.985 . S
H668 N665 0.984 . S
H669 N665 0.985 . S
H670 N664 0.984 . S
H671 N664 0.984 . S
H672 N660 0.984 . S
H673 N660 0.985 . S
C674 C675 1.363 . S
C674 C680 1.379 . S
C674 N682 1.356 . S
C675 C674 1.363 . S
C675 C681 1.363 . S
C676 C677 1.363 . S
C676 C681 1.379 . S
C676 N683 1.356 . S
C677 C676 1.363 . S
C677 C680 1.363 . S
N678 C680 1.356 . S
N678 H690 0.984 . S
N678 H691 0.985 . S
N679 C681 1.356 . S
N679 H684 0.984 . S
N679 H685 0.985 . S
C680 C674 1.379 . S
C680 C677 1.363 . S
C680 N678 1.356 . S
C681 C675 1.363 . S
C681 C676 1.379 . S
C681 N679 1.356 . S
N682 C674 1.356 . S
N682 H688 0.986 . S
N682 H689 0.984 . S
N683 C676 1.356 . S
N683 H686 0.984 . S
N683 H687 0.985 . S
H684 N679 0.984 . S
H685 N679 0.985 . S
H686 N683 0.984 . S
H687 N683 0.985 . S
H688 N682 0.986 . S
H689 N682 0.984 . S
H690 N678 0.984 . S
H691 N678 0.985 . S
C692 C693 1.363 . S
C692 C698 1.379 . S
C692 N700 1.356 . S
C693 C692 1.363 . S
C693 C699 1.363 . S
C694 C695 1.363 . S
C694 C699 1.379 . S
C694 N701 1.356 . S
C695 C694 1.363 . S
C695 C698 1.363 . S
N696 C698 1.356 . S
N696 H708 0.984 . S
N696 H709 0.985 . S
N697 C699 1.356 . S
N697 H702 0.984 . S
N697 H703 0.985 . S
C698 C692 1.379 . S
C698 C695 1.363 . S
C698 N696 1.356 . S
C699 C693 1.363 . S
C699 C694 1.379 . S
C699 N697 1.356 . S
N700 C692 1.356 . S
N700 H706 0.984 . S
N700 H707 0.984 . S
N701 C694 1.356 . S
N701 H704 0.984 . S
N701 H705 0.985 . S
H702 N697 0.984 . S
H703 N697 0.985 . S
H704 N701 0.984 . S
H705 N701 0.985 . S
H706 N700 0.984 . S
H707 N700 0.984 . S
H708 N696 0.984 . S
H709 N696 0.985 . S
C710 C711 1.363 . S
C710 C716 1.379 1_556 S
C710 N718 1.356 . S
C711 C710 1.363 . S
C711 C717 1.363 . S
C712 C713 1.363 . S
C712 C717 1.379 1_554 S
C712 N719 1.356 . S
C713 C712 1.363 . S
C713 C716 1.363 . S
N714 C716 1.356 . S
N714 H726 0.984 . S
N714 H727 0.985 . S
N715 C717 1.356 . S
N715 H720 0.984 . S
N715 H721 0.985 . S
C716 C710 1.379 1_554 S
C716 C713 1.363 . S
C716 N714 1.356 . S
C717 C711 1.363 . S
C717 C712 1.379 1_556 S
C717 N715 1.356 . S
N718 C710 1.356 . S
N718 H724 0.984 . S
N718 H725 0.984 . S
N719 C712 1.356 . S
N719 H722 0.984 . S
N719 H723 0.985 . S
H720 N715 0.984 . S
H721 N715 0.985 . S
H722 N719 0.984 . S
H723 N719 0.985 . S
H724 N718 0.984 . S
H725 N718 0.984 . S
H726 N714 0.984 . S
H727 N714 0.985 . S
C728 C729 1.363 1_556 S
C728 C734 1.379 . S
C728 N736 1.356 . S
C729 C728 1.363 1_554 S
C729 C735 1.363 . S
C730 C731 1.363 1_554 S
C730 C735 1.379 . S
C730 N737 1.356 . S
C731 C730 1.363 1_556 S
C731 C734 1.363 . S
N732 C734 1.356 . S
N732 H744 0.984 . S
N732 H745 0.985 . S
N733 C735 1.356 . S
N733 H738 0.984 . S
N733 H739 0.985 . S
C734 C728 1.379 . S
C734 C731 1.363 . S
C734 N732 1.356 . S
C735 C729 1.363 . S
C735 C730 1.379 . S
C735 N733 1.356 . S
N736 C728 1.356 . S
N736 H742 0.984 . S
N736 H743 0.984 1_556 S
N737 C730 1.356 . S
N737 H740 0.984 1_554 S
N737 H741 0.985 . S
H738 N733 0.984 . S
H739 N733 0.985 . S
H740 N737 0.984 1_556 S
H741 N737 0.985 . S
H742 N736 0.984 . S
H743 N736 0.984 1_554 S
H744 N732 0.984 . S
H745 N732 0.985 . S
C746 C747 1.363 . S
C746 C752 1.379 . S
C746 N754 1.356 . S
C747 C746 1.363 . S
C747 C753 1.363 . S
C748 C749 1.363 . S
C748 C753 1.379 . S
C748 N755 1.356 . S
C749 C748 1.363 . S
C749 C752 1.363 . S
N750 C752 1.356 . S
N750 H762 0.984 . S
N750 H763 0.985 . S
N751 C753 1.356 . S
N751 H756 0.984 . S
N751 H757 0.985 . S
C752 C746 1.379 . S
C752 C749 1.363 . S
C752 N750 1.356 . S
C753 C747 1.363 . S
C753 C748 1.379 . S
C753 N751 1.356 . S
N754 C746 1.356 . S
N754 H760 0.984 . S
N754 H761 0.984 . S
N755 C748 1.356 . S
N755 H758 0.984 . S
N755 H759 0.985 . S
H756 N751 0.984 . S
H757 N751 0.985 . S
H758 N755 0.984 . S
H759 N755 0.985 . S
H760 N754 0.984 . S
H761 N754 0.984 . S
H762 N750 0.984 . S
H763 N750 0.985 . S
C764 C765 1.363 . S
C764 C770 1.379 . S
C764 N772 1.356 . S
C765 C764 1.363 . S
C765 C771 1.363 . S
C766 C767 1.363 . S
C766 C771 1.379 . S
C766 N773 1.356 . S
C767 C766 1.363 . S
C767 C770 1.363 . S
N768 C770 1.356 . S
N768 H780 0.984 . S
N768 H781 0.985 . S
N769 C771 1.356 . S
N769 H774 0.984 . S
N769 H775 0.985 . S
C770 C764 1.379 . S
C770 C767 1.363 . S
C770 N768 1.356 . S
C771 C765 1.363 . S
C771 C766 1.379 . S
C771 N769 1.356 . S
N772 C764 1.356 . S
N772 H778 0.984 . S
N772 H779 0.984 . S
N773 C766 1.356 . S
N773 H776 0.984 . S
N773 H777 0.985 . S
H774 N769 0.984 . S
H775 N769 0.985 . S
H776 N773 0.984 . S
H777 N773 0.985 . S
H778 N772 0.984 . S
H779 N772 0.984 . S
H780 N768 0.984 . S
H781 N768 0.985 . S
C782 C783 1.363 . S
C782 C788 1.379 . S
C782 N790 1.356 . S
C783 C782 1.363 . S
C783 C789 1.363 . S
C784 C785 1.363 . S
C784 C789 1.379 . S
C784 N791 1.356 . S
C785 C784 1.363 . S
C785 C788 1.363 . S
N786 C788 1.356 . S
N786 H798 0.984 . S
N786 H799 0.985 . S
N787 C789 1.356 . S
N787 H792 0.984 . S
N787 H793 0.985 . S
C788 C782 1.379 . S
C788 C785 1.363 . S
C788 N786 1.356 . S
C789 C783 1.363 . S
C789 C784 1.379 . S
C789 N787 1.356 . S
N790 C782 1.356 . S
N790 H796 0.984 . S
N790 H797 0.984 . S
N791 C784 1.356 . S
N791 H794 0.984 . S
N791 H795 0.985 . S
H792 N787 0.984 . S
H793 N787 0.985 . S
H794 N791 0.984 . S
H795 N791 0.985 . S
H796 N790 0.984 . S
H797 N790 0.984 . S
H798 N786 0.984 . S
H799 N786 0.985 . S
C225 C141 2.028 . S
C227 C13 2.028 . S
C243 C15 2.028 . S
C245 C167 2.028 . S
C261 C113 2.028 . S
C263 C29 2.028 . S
C279 C139 2.029 . S
C281 C43 2.029 . S
C297 C69 2.029 . S
C299 C197 2.029 . S
C315 C211 2.028 . S
C317 C83 2.028 . S
C333 C96 2.024 . S
C335 C180 2.024 . S
C351 C182 2.024 . S
C353 C98 2.024 . S
C369 C140 1.576 . S
C371 C12 1.576 . S
C387 C14 1.576 . S
C389 C166 1.576 . S
C405 C28 1.576 . S
C407 C112 1.576 . S
C423 C42 1.577 . S
C425 C138 1.577 . S
C441 C68 1.577 . S
C443 C196 1.577 . S
C459 C82 1.576 . S
C461 C210 1.576 . S
C477 C181 1.580 . S
C479 C97 1.580 . S
C495 C183 1.580 . S
C497 C99 1.580 . S
C513 C0 1.621 . S
C515 C85 1.622 . S
C531 C26 1.622 . S
C533 C111 1.622 . S
C549 C40 1.621 . S
C551 C56 1.622 . S
C567 C54 1.622 . S
C569 C70 1.621 . S
C585 C124 1.621 . S
C587 C208 1.622 . S
C603 C222 1.622 . S
C605 C126 1.622 . S
C621 C152 1.622 . S
C623 C169 1.622 . S
C639 C195 1.622 . S
C641 C154 1.622 . S
C657 C1 1.724 . S
C659 C223 1.724 . S
C675 C168 1.722 . S
C677 C27 1.724 . S
C693 C194 1.721 . S
C695 C41 1.724 . S
C711 C209 1.723 . S
C713 C55 1.723 . S
C729 C127 1.723 . S
C731 C57 1.723 . S
C747 C153 1.724 . S
C749 C71 1.724 . S
C765 C84 1.721 . S
C767 C155 1.724 . S
C783 C110 1.722 . S
C785 C125 1.724 . S
