# Generated by pormake.
# Topology unp, (4)-cn, num edge types: 1
# Building blocks:
#     Node 0, Type 0, BuildingBlock: ICAMEG_clean_sbu_1, # of connection points: 4
#     Node 1, Type 0, BuildingBlock: ICAMEG_clean_sbu_1, # of connection points: 4
#     Node 2, Type 0, BuildingBlock: ICAMEG_clean_sbu_1, # of connection points: 4
#     Node 3, Type 0, BuildingBlock: ICAMEG_clean_sbu_1, # of connection points: 4
#     Node 4, Type 0, BuildingBlock: ICAMEG_clean_sbu_1, # of connection points: 4
#     Node 5, Type 0, BuildingBlock: ICAMEG_clean_sbu_1, # of connection points: 4
#     Node 6, Type 0, BuildingBlock: ICAMEG_clean_sbu_1, # of connection points: 4
#     Node 7, Type 0, BuildingBlock: ICAMEG_clean_sbu_1, # of connection points: 4
#     Node 8, Type 0, BuildingBlock: ICAMEG_clean_sbu_1, # of connection points: 4
#     Node 9, Type 0, BuildingBlock: ICAMEG_clean_sbu_1, # of connection points: 4
#     Node 10, Type 0, BuildingBlock: ICAMEG_clean_sbu_1, # of connection points: 4
#     Node 11, Type 0, BuildingBlock: ICAMEG_clean_sbu_1, # of connection points: 4
#     Node 12, Type 0, BuildingBlock: ICAMEG_clean_sbu_1, # of connection points: 4
#     Node 13, Type 0, BuildingBlock: ICAMEG_clean_sbu_1, # of connection points: 4
#     Node 14, Type 0, BuildingBlock: ICAMEG_clean_sbu_1, # of connection points: 4
#     Node 15, Type 0, BuildingBlock: ICAMEG_clean_sbu_1, # of connection points: 4
#     Node 16, Type 0, BuildingBlock: ICAMEG_clean_sbu_1, # of connection points: 4
#     Node 17, Type 0, BuildingBlock: ICAMEG_clean_sbu_1, # of connection points: 4
#     Edge 18, Type (0, 0), BuildingBlock: KIFKEQ_clean_linker_1, # of connection points: 2
#     Edge 19, Type (0, 0), BuildingBlock: KIFKEQ_clean_linker_1, # of connection points: 2
#     Edge 20, Type (0, 0), BuildingBlock: KIFKEQ_clean_linker_1, # of connection points: 2
#     Edge 21, Type (0, 0), BuildingBlock: KIFKEQ_clean_linker_1, # of connection points: 2
#     Edge 22, Type (0, 0), BuildingBlock: KIFKEQ_clean_linker_1, # of connection points: 2
#     Edge 23, Type (0, 0), BuildingBlock: KIFKEQ_clean_linker_1, # of connection points: 2
#     Edge 24, Type (0, 0), BuildingBlock: KIFKEQ_clean_linker_1, # of connection points: 2
#     Edge 25, Type (0, 0), BuildingBlock: KIFKEQ_clean_linker_1, # of connection points: 2
#     Edge 26, Type (0, 0), BuildingBlock: KIFKEQ_clean_linker_1, # of connection points: 2
#     Edge 27, Type (0, 0), BuildingBlock: KIFKEQ_clean_linker_1, # of connection points: 2
#     Edge 28, Type (0, 0), BuildingBlock: KIFKEQ_clean_linker_1, # of connection points: 2
#     Edge 29, Type (0, 0), BuildingBlock: KIFKEQ_clean_linker_1, # of connection points: 2
#     Edge 30, Type (0, 0), BuildingBlock: KIFKEQ_clean_linker_1, # of connection points: 2
#     Edge 31, Type (0, 0), BuildingBlock: KIFKEQ_clean_linker_1, # of connection points: 2
#     Edge 32, Type (0, 0), BuildingBlock: KIFKEQ_clean_linker_1, # of connection points: 2
#     Edge 33, Type (0, 0), BuildingBlock: KIFKEQ_clean_linker_1, # of connection points: 2
#     Edge 34, Type (0, 0), BuildingBlock: KIFKEQ_clean_linker_1, # of connection points: 2
#     Edge 35, Type (0, 0), BuildingBlock: KIFKEQ_clean_linker_1, # of connection points: 2
#     Edge 36, Type (0, 0), BuildingBlock: KIFKEQ_clean_linker_1, # of connection points: 2
#     Edge 37, Type (0, 0), BuildingBlock: KIFKEQ_clean_linker_1, # of connection points: 2
#     Edge 38, Type (0, 0), BuildingBlock: KIFKEQ_clean_linker_1, # of connection points: 2
#     Edge 39, Type (0, 0), BuildingBlock: KIFKEQ_clean_linker_1, # of connection points: 2
#     Edge 40, Type (0, 0), BuildingBlock: KIFKEQ_clean_linker_1, # of connection points: 2
#     Edge 41, Type (0, 0), BuildingBlock: KIFKEQ_clean_linker_1, # of connection points: 2
#     Edge 42, Type (0, 0), BuildingBlock: KIFKEQ_clean_linker_1, # of connection points: 2
#     Edge 43, Type (0, 0), BuildingBlock: KIFKEQ_clean_linker_1, # of connection points: 2
#     Edge 44, Type (0, 0), BuildingBlock: KIFKEQ_clean_linker_1, # of connection points: 2
#     Edge 45, Type (0, 0), BuildingBlock: KIFKEQ_clean_linker_1, # of connection points: 2
#     Edge 46, Type (0, 0), BuildingBlock: KIFKEQ_clean_linker_1, # of connection points: 2
#     Edge 47, Type (0, 0), BuildingBlock: KIFKEQ_clean_linker_1, # of connection points: 2
#     Edge 48, Type (0, 0), BuildingBlock: KIFKEQ_clean_linker_1, # of connection points: 2
#     Edge 49, Type (0, 0), BuildingBlock: KIFKEQ_clean_linker_1, # of connection points: 2
#     Edge 50, Type (0, 0), BuildingBlock: KIFKEQ_clean_linker_1, # of connection points: 2
#     Edge 51, Type (0, 0), BuildingBlock: KIFKEQ_clean_linker_1, # of connection points: 2
#     Edge 52, Type (0, 0), BuildingBlock: KIFKEQ_clean_linker_1, # of connection points: 2
#     Edge 53, Type (0, 0), BuildingBlock: KIFKEQ_clean_linker_1, # of connection points: 2
# Relax obj value: 0.384
# Max RMSD: 0.173
# Mean RMSD: 0.173
data_MOF--net-unp--node1-ICAMEG_clean_sbu_1--edge1-KIFKEQ_clean_linker_1
_symmetry_space_group_name_H-M    P1
_symmetry_Int_Tables_number       1
_symmetry_cell_setting            triclinic
loop_
_symmetry_equiv_pos_as_xyz
'x, y, z'
_cell_length_a     52.304777
_cell_length_b     52.297385
_cell_length_c     64.844809
_cell_angle_alpha  90.040852
_cell_angle_beta   89.954141
_cell_angle_gamma 120.00348
loop_
_atom_site_label
_atom_site_type_symbol
_atom_site_fract_x
_atom_site_fract_y
_atom_site_fract_z
_atom_type_partial_charge
Co0 Co 0.15488 0.14522 0.09238 0.0
Co1 Co 0.17494 0.18235 0.13853 0.0
O2 O 0.18451 0.1758 0.11036 0.0
C3 C 0.19276 0.19611 0.06303 0.0
O4 O 0.20911 0.21414 0.07773 0.0
C5 C 0.22709 0.17585 0.14511 0.0
O6 O 0.21414 0.15185 0.13378 0.0
O7 O 0.15899 0.14 0.14579 0.0
O8 O 0.13598 0.11858 0.11626 0.0
H9 H 0.11082 0.15969 0.20137 0.0
H10 H 0.2191 0.17016 0.08383 0.0
O11 O 0.17195 0.17015 0.06717 0.0
H12 H 0.17847 0.06296 0.0914 0.0
H13 H 0.11814 0.08316 0.02801 0.0
H14 H 0.09019 0.10456 0.09576 0.0
H15 H 0.14613 0.08445 0.09459 0.0
H16 H 0.15581 0.12086 0.05083 0.0
O17 O 0.21476 0.19125 0.14806 0.0
H18 H 0.12271 0.15178 0.16597 0.0
H19 H 0.20835 0.22711 0.17107 0.0
H20 H 0.0519 0.06654 0.0735 0.0
H21 H 0.2521 0.14956 0.08022 0.0
H22 H 0.06576 0.05562 0.03932 0.0
H23 H 0.23186 0.09557 0.08407 0.0
O24 O 0.12844 0.16195 0.09619 0.0
H25 H 0.25034 0.28118 0.11025 0.0
H26 H 0.15247 0.22447 0.143 0.0
H27 H 0.17157 0.27674 0.13401 0.0
H28 H 0.22089 0.30549 0.11757 0.0
H29 H 0.23024 0.22875 0.1193 0.0
H30 H 0.19747 0.23566 0.2066 0.0
H31 H 0.14835 0.20188 0.22194 0.0
O32 O 0.13458 0.17312 0.12987 0.0
C33 C 0.14097 0.11762 0.13531 0.0
C34 C 0.13227 0.17461 0.19483 0.0
C35 C 0.18091 0.21723 0.19778 0.0
N36 N 0.16611 0.1891 0.16639 0.0
C37 C 0.13911 0.1703 0.17477 0.0
C38 C 0.18697 0.21224 0.17767 0.0
C39 C 0.15335 0.19827 0.20638 0.0
C40 C 0.20994 0.14663 0.08511 0.0
N41 N 0.18055 0.12856 0.08899 0.0
C42 C 0.22882 0.13508 0.08323 0.0
C43 C 0.21747 0.1048 0.08544 0.0
C44 C 0.18753 0.08651 0.08955 0.0
C45 C 0.16932 0.09883 0.09134 0.0
C46 C 0.11182 0.08772 0.04286 0.0
C47 C 0.09647 0.09992 0.08095 0.0
C48 C 0.13304 0.10914 0.05583 0.0
N49 N 0.12525 0.11499 0.07463 0.0
C50 C 0.07465 0.07836 0.06839 0.0
C51 C 0.08244 0.07227 0.04922 0.0
C52 C 0.11997 0.16775 0.11314 0.0
C53 C 0.22883 0.2689 0.11742 0.0
C54 C 0.17384 0.23675 0.13568 0.0
C55 C 0.18459 0.26638 0.13071 0.0
C56 C 0.21228 0.28251 0.12151 0.0
N57 N 0.19021 0.22356 0.13163 0.0
C58 C 0.21737 0.23923 0.12263 0.0
Co59 Co 0.85641 0.01599 0.10429 0.0
Co60 Co 0.8461 0.03038 0.15369 0.0
O61 O 0.83729 0.02942 0.12414 0.0
C62 C 0.79767 0.0008 0.08469 0.0
O63 O 0.79028 0.01256 0.09978 0.0
C64 C 0.85035 0.08844 0.14708 0.0
O65 O 0.8671 0.09249 0.13093 0.0
O66 O 0.88849 0.05796 0.14758 0.0
O67 O 0.89276 0.0321 0.12177 0.0
H68 H 0.90411 0.02768 0.21453 0.0
H69 H 0.83591 0.05851 0.09241 0.0
O70 O 0.82125 -0.00062 0.08549 0.0
H71 H 0.9392 0.10483 0.06927 0.0
H72 H 0.88183 0.99467 0.03367 0.0
H73 H 0.89219 0.9866 0.10859 0.0
H74 H 0.91578 0.05659 0.08663 0.0
H75 H 0.85971 0.01405 0.05825 0.0
O76 O 0.83995 0.06474 0.15752 0.0
H77 H 0.8916 0.02533 0.17764 0.0
H78 H 0.82083 0.04008 0.19223 0.0
H79 H 0.91486 0.9672 0.08454 0.0
H80 H 0.85814 0.10623 0.07467 0.0
H81 H 0.90974 0.97112 0.04677 0.0
H82 H 0.91028 0.12995 0.06298 0.0
O83 O 0.8391 0.97776 0.11908 0.0
H84 H 0.73768 0.99447 0.1472 0.0
H85 H 0.81224 0.97495 0.17829 0.0
H86 H 0.75942 0.94048 0.18478 0.0
H87 H 0.72171 0.95017 0.16921 0.0
H88 H 0.79077 0.02827 0.14099 0.0
H89 H 0.83274 0.04286 0.22925 0.0
H90 H 0.87456 0.0365 0.24062 0.0
O91 O 0.85214 0.99548 0.15106 0.0
C92 C 0.90408 0.05327 0.1347 0.0
C93 C 0.88578 0.03041 0.20977 0.0
C94 C 0.84575 0.03896 0.21803 0.0
N95 N 0.85538 0.03233 0.18281 0.0
C96 C 0.87855 0.02903 0.18891 0.0
C97 C 0.83916 0.03744 0.19705 0.0
C98 C 0.86921 0.03538 0.2244 0.0
C99 C 0.85818 0.06793 0.08691 0.0
N100 N 0.874 0.05394 0.09005 0.0
C101 C 0.87087 0.09533 0.07705 0.0
C102 C 0.90014 0.10867 0.07056 0.0
C103 C 0.91635 0.09459 0.07408 0.0
C104 C 0.9029 0.06719 0.08393 0.0
C105 C 0.88422 0.99282 0.05009 0.0
C106 C 0.88995 0.98855 0.09219 0.0
C107 C 0.87163 0.00365 0.06411 0.0
N108 N 0.87467 0.00153 0.08489 0.0
C109 C 0.9028 0.97745 0.07863 0.0
C110 C 0.8999 0.97964 0.05745 0.0
C111 C 0.84428 0.97476 0.13786 0.0
C112 C 0.75389 0.99 0.15407 0.0
C113 C 0.79598 0.97923 0.17134 0.0
C114 C 0.7661 0.95968 0.17514 0.0
C115 C 0.74495 0.96515 0.16641 0.0
N116 N 0.80457 0.00357 0.15921 0.0
C117 C 0.78397 0.00908 0.15062 0.0
Co118 Co 0.9625 0.85619 0.10642 0.0
Co119 Co 0.98224 0.84182 0.15428 0.0
O120 O 0.97323 0.83341 0.12476 0.0
C121 C 0.00618 0.84603 0.08197 0.0
O122 O 0.00925 0.83058 0.09668 0.0
C123 C 0.93094 0.7819 0.153 0.0
O124 O 0.91893 0.7923 0.14021 0.0
O125 O 0.94797 0.84818 0.15903 0.0
O126 O 0.93579 0.85685 0.12765 0.0
H127 H -0.00017 0.89883 0.22022 0.0
H128 H 0.95465 0.79763 0.09336 0.0
O129 O 0.98917 0.85673 0.08403 0.0
H130 H 0.85672 0.78843 0.08595 0.0
H131 H 0.93584 0.88393 0.03861 0.0
H132 H 0.95414 0.90767 0.11265 0.0
H133 H 0.89908 0.83497 0.09808 0.0
H134 H 0.94874 0.8544 0.06149 0.0
O135 O 0.95645 0.79892 0.16049 0.0
H136 H 0.98817 0.88846 0.18325 0.0
H137 H 0.99556 0.8114 0.18788 0.0
H138 H 0.94105 0.93756 0.09038 0.0
H139 H 0.91308 0.75095 0.08094 0.0
H140 H 0.93175 0.92576 0.05307 0.0
H141 H 0.86356 0.74599 0.07718 0.0
O142 O 0.99568 0.89392 0.11718 0.0
H143 H 0.03243 0.78679 0.12956 0.0
H144 H 0.04617 0.87619 0.16508 0.0
H145 H 0.08898 0.86924 0.15981 0.0
H146 H 0.08224 0.82421 0.14199 0.0
H147 H 0.9903 0.79485 0.13487 0.0
H148 H 0.00706 0.8208 0.22495 0.0
H149 H 0.00937 0.86486 0.24133 0.0
O150 O 0.00783 0.8847 0.14847 0.0
C151 C 0.93209 0.85373 0.14702 0.0
C152 C -0.00104 0.8796 0.21325 0.0
C153 C 0.00297 0.83579 0.21591 0.0
N154 N 0.99137 0.84946 0.1834 0.0
C155 C 0.99244 0.87366 0.19231 0.0
C156 C 0.99638 0.83054 0.19493 0.0
C157 C 0.00428 0.86052 0.22509 0.0
C158 C 0.93352 0.79609 0.09137 0.0
N159 N 0.92972 0.81949 0.09596 0.0
C160 C 0.90988 0.76939 0.08449 0.0
C161 C 0.88209 0.76658 0.08244 0.0
C162 C 0.87824 0.79038 0.08735 0.0
C163 C 0.90238 0.81673 0.09419 0.0
C164 C 0.93977 0.88926 0.05485 0.0
C165 C 0.94996 0.90226 0.09645 0.0
C166 C 0.94717 0.87267 0.06787 0.0
N167 N 0.95198 0.87917 0.08842 0.0
C168 C 0.94263 0.91933 0.0839 0.0
C169 C 0.93747 0.91271 0.06297 0.0
C170 C 0.01085 0.90216 0.13377 0.0
C171 C 0.03564 0.80648 0.13736 0.0
C172 C 0.04309 0.85669 0.15712 0.0
C173 C 0.0674 0.8528 0.15428 0.0
C174 C 0.06359 0.82751 0.14431 0.0
N175 N 0.01575 0.83599 0.15024 0.0
C176 C 0.01184 0.81111 0.14049 0.0
Co177 Co 0.14214 0.14613 0.89728 0.0
Co178 Co 0.14516 0.17319 0.84919 0.0
O179 O 0.15733 0.17982 0.87829 0.0
C180 C 0.20288 0.19059 0.91385 0.0
O181 O 0.20787 0.20976 0.89914 0.0
C182 C 0.14077 0.22594 0.86046 0.0
O183 O 0.12919 0.21406 0.87835 0.0
O184 O 0.10342 0.15586 0.85808 0.0
O185 O 0.10345 0.12538 0.8822 0.0
H186 H 0.0817 0.11386 0.78966 0.0
H187 H 0.1625 0.20761 0.9128 0.0
O188 O 0.17968 0.16518 0.91372 0.0
H189 H 0.0626 0.14603 0.94116 0.0
H190 H 0.12789 0.09554 0.96601 0.0
H191 H 0.10885 0.08129 0.89125 0.0
H192 H 0.08472 0.12407 0.91899 0.0
H193 H 0.14484 0.13844 0.94288 0.0
O194 O 0.14856 0.2127 0.8477 0.0
H195 H 0.09841 0.12268 0.82586 0.0
H196 H 0.16445 0.21042 0.81118 0.0
H197 H 0.09185 0.03792 0.91372 0.0
H198 H 0.1416 0.23023 0.93529 0.0
H199 H 0.1011 0.04478 0.95146 0.0
H200 H 0.09118 0.19947 0.94965 0.0
O201 O 0.15879 0.12741 0.87918 0.0
H202 H 0.25276 0.25005 0.85087 0.0
H203 H 0.17815 0.1557 0.82003 0.0
H204 H 0.23039 0.17717 0.81004 0.0
H205 H 0.26812 0.22472 0.82547 0.0
H206 H 0.20026 0.22765 0.86053 0.0
H207 H 0.14829 0.20264 0.77487 0.0
H208 H 0.10673 0.15402 0.76389 0.0
O209 O 0.14153 0.13326 0.84918 0.0
C210 C 0.08992 0.1345 0.87066 0.0
C211 C 0.0999 0.13511 0.79425 0.0
C212 C 0.13725 0.18494 0.78595 0.0
N213 N 0.13254 0.16693 0.8206 0.0
C214 C 0.1095 0.14021 0.81471 0.0
C215 C 0.14627 0.18924 0.80654 0.0
C216 C 0.11393 0.15766 0.7798 0.0
C217 C 0.141 0.19376 0.91933 0.0
N218 N 0.12539 0.16426 0.91494 0.0
C219 C 0.12905 0.20684 0.93192 0.0
C220 C 0.10073 0.18961 0.93991 0.0
C221 C 0.0847 0.15965 0.93515 0.0
C222 C 0.0974 0.14734 0.92255 0.0
C223 C 0.12361 0.09222 0.94961 0.0
C224 C 0.113 0.08456 0.90763 0.0
C225 C 0.13322 0.11644 0.93642 0.0
N226 N 0.12776 0.11241 0.9157 0.0
C227 C 0.10327 0.05986 0.92031 0.0
C228 C 0.10857 0.06375 0.94145 0.0
C229 C 0.15182 0.12049 0.86036 0.0
C230 C 0.23653 0.22932 0.84404 0.0
C231 C 0.19444 0.17628 0.82693 0.0
C232 C 0.22399 0.1884 0.82115 0.0
C233 C 0.24514 0.21509 0.8298 0.0
N234 N 0.18617 0.19037 0.84093 0.0
C235 C 0.20678 0.21655 0.84944 0.0
Co236 Co 0.82209 0.96519 0.90834 0.0
Co237 Co 0.81757 0.97953 0.85669 0.0
O238 O 0.80164 0.96975 0.88474 0.0
C239 C 0.82213 0.00786 0.93834 0.0
O240 O 0.85106 0.02241 0.93696 0.0
C241 C 0.76435 0.92156 0.85268 0.0
O242 O 0.7746 0.9135 0.86832 0.0
O243 O 0.83241 0.95098 0.85764 0.0
O244 O 0.83656 0.94348 0.89131 0.0
H245 H 0.89456 0.00772 0.80144 0.0
H246 H 0.75845 0.94627 0.91085 0.0
O247 O 0.80704 0.98623 0.92622 0.0
H248 H 0.76416 0.85676 0.9255 0.0
H249 H 0.83242 0.94333 0.98268 0.0
H250 H 0.88142 0.97246 0.91485 0.0
H251 H 0.8094 0.9044 0.91912 0.0
H252 H 0.8063 0.94811 0.95261 0.0
O253 O 0.77893 0.94777 0.84565 0.0
H254 H 0.87469 0.99506 0.83679 0.0
H255 H 0.79283 0.98478 0.81659 0.0
H256 H 0.90828 0.96769 0.94448 0.0
H257 H 0.71267 0.89917 0.91736 0.0
H258 H 0.88379 0.95311 0.97871 0.0
H259 H 0.71534 0.85394 0.92465 0.0
O260 O 0.85878 0.00306 0.90136 0.0
H261 H 0.74279 0.01234 0.86533 0.0
H262 H 0.84473 0.04271 0.84438 0.0
H263 H 0.82763 0.07891 0.84311 0.0
H264 H 0.77628 0.06375 0.85357 0.0
H265 H 0.7609 0.97693 0.86655 0.0
H266 H 0.81174 0.99709 0.78098 0.0
H267 H 0.86299 0.00879 0.77324 0.0
O268 O 0.85623 0.01079 0.86745 0.0
C269 C 0.83932 0.93933 0.87229 0.0
C270 C 0.87221 0.00272 0.80463 0.0
C271 C 0.82571 0.99671 0.79313 0.0
N272 N 0.83269 0.98933 0.82876 0.0
C273 C 0.86085 0.99559 0.82462 0.0
C274 C 0.8151 0.98967 0.81331 0.0
C275 C 0.85448 0.00329 0.78881 0.0
C276 C 0.75983 0.92675 0.9142 0.0
N277 N 0.7866 0.9281 0.91459 0.0
C278 C 0.73381 0.90012 0.91781 0.0
C279 C 0.73532 0.87474 0.92186 0.0
C280 C 0.7627 0.8763 0.92231 0.0
C281 C 0.78824 0.90331 0.9186 0.0
C282 C 0.84334 0.94972 0.96785 0.0
C283 C 0.87058 0.96603 0.92968 0.0
C284 C 0.82869 0.95254 0.95077 0.0
N285 N 0.84235 0.96068 0.93198 0.0
C286 C 0.88591 0.96339 0.94641 0.0
C287 C 0.87216 0.95521 0.96561 0.0
C288 C 0.86973 0.01759 0.8847 0.0
C289 C 0.76519 0.01918 0.86069 0.0
C290 C 0.82241 0.03599 0.84906 0.0
C291 C 0.81282 0.05656 0.84825 0.0
C292 C 0.784 0.04804 0.85411 0.0
N293 N 0.80378 0.0077 0.85545 0.0
C294 C 0.77554 -0.00079 0.86129 0.0
Co295 Co 0.04318 0.89837 0.89457 0.0
Co296 Co 0.02424 0.85173 0.85342 0.0
O297 O 0.04013 0.86333 0.88143 0.0
C298 C 0.02836 0.85394 0.92925 0.0
O299 O 0.02779 0.83368 0.91701 0.0
C300 C 0.07965 0.84984 0.85092 0.0
O301 O 0.09415 0.87768 0.85656 0.0
O302 O 0.05469 0.89088 0.84279 0.0
O303 O 0.05247 0.91962 0.8676 0.0
H304 H 0.99017 0.86585 0.78411 0.0
H305 H 0.08064 0.87326 0.90844 0.0
O306 O 0.03395 0.87901 0.92233 0.0
H307 H 0.15013 0.97782 0.89282 0.0
H308 H 0.06937 0.97336 0.95131 0.0
H309 H 0.02136 0.93915 0.88357 0.0
H310 H 0.09662 0.95741 0.88871 0.0
H311 H 0.06876 0.93109 0.93393 0.0
O312 O 0.05169 0.83622 0.84895 0.0
H313 H 0.00876 0.87981 0.81967 0.0
H314 H 0.00867 0.7991 0.82719 0.0
H315 H 0.02167 0.98163 0.90036 0.0
H316 H 0.1339 0.89284 0.91303 0.0
H317 H 0.04549 -0.00124 0.93459 0.0
H318 H 0.16915 0.9455 0.90516 0.0
O319 O 0.00051 0.88228 0.89005 0.0
H320 H 0.98831 0.75816 0.89415 0.0
H321 H 0.95885 0.81454 0.84871 0.0
H322 H 0.92083 0.76628 0.86223 0.0
H323 H 0.93547 0.73769 0.88509 0.0
H324 H 0.02559 0.80666 0.88044 0.0
H325 H 0.99032 0.78437 0.79165 0.0
H326 H 0.98082 0.81781 0.76989 0.0
O327 O 0.99604 0.86692 0.85733 0.0
C328 C 0.06073 0.91592 0.84992 0.0
C329 C 0.99411 0.85104 0.79347 0.0
C330 C 0.99423 0.80532 0.79769 0.0
N331 N 0.0095 0.84016 0.82555 0.0
C332 C 0.00455 0.85879 0.81363 0.0
C333 C 0.00467 0.81381 0.81779 0.0
C334 C 0.9889 0.8241 0.78549 0.0
C335 C 0.09562 0.89627 0.90537 0.0
N336 N 0.08527 0.91422 0.89878 0.0
C337 C 0.12587 0.90722 0.90783 0.0
C338 C 0.14565 0.93675 0.90337 0.0
C339 C 0.135 0.95489 0.89648 0.0
C340 C 0.10461 0.94318 0.89421 0.0
C341 C 0.05883 0.96602 0.93643 0.0
C342 C 0.0321 0.9467 0.89835 0.0
C343 C 0.05839 0.94208 0.92652 0.0
N344 N 0.04514 0.93271 0.9077 0.0
C345 C 0.0321 0.97069 0.90781 0.0
C346 C 0.04546 0.98029 0.92702 0.0
C347 C 0.98659 0.87448 0.87302 0.0
C348 C 0.98164 0.77041 0.88422 0.0
C349 C 0.9654 0.8024 0.85881 0.0
C350 C 0.94377 0.775 0.86634 0.0
C351 C 0.952 0.75895 0.87914 0.0
N352 N 0.99443 0.81352 0.86389 0.0
C353 C 0.00266 0.79788 0.87639 0.0
Co354 Co 0.80405 0.44958 0.44702 0.0
Co355 Co 0.8421 0.4858 0.48978 0.0
O356 O 0.84029 0.48025 0.45987 0.0
C357 C 0.83261 0.4993 0.41579 0.0
O358 O 0.85455 0.51583 0.4282 0.0
C359 C 0.89808 0.48587 0.48219 0.0
O360 O 0.883 0.45921 0.47439 0.0
O361 O 0.83306 0.44437 0.49333 0.0
O362 O 0.79452 0.42338 0.47181 0.0
H363 H 0.80741 0.45655 0.56275 0.0
H364 H 0.86318 0.47194 0.42716 0.0
O365 O 0.81181 0.47407 0.42149 0.0
H366 H 0.81856 0.3638 0.42975 0.0
H367 H 0.74009 0.3874 0.38824 0.0
H368 H 0.74279 0.41091 0.46214 0.0
H369 H 0.79159 0.38761 0.4432 0.0
H370 H 0.78664 0.42433 0.40459 0.0
O371 O 0.88515 0.49941 0.4888 0.0
H372 H 0.80472 0.45076 0.52492 0.0
H373 H 0.88559 0.5315 0.51841 0.0
H374 H 0.69585 0.37369 0.44641 0.0
H375 H 0.89072 0.44902 0.41336 0.0
H376 H 0.69431 0.36188 0.40918 0.0
H377 H 0.86849 0.39453 0.41461 0.0
O378 O 0.78254 0.46818 0.45911 0.0
H379 H 0.89593 0.58713 0.45833 0.0
H380 H 0.81857 0.52265 0.50763 0.0
H381 H 0.8291 0.5737 0.50245 0.0
H382 H 0.86806 0.60636 0.47767 0.0
H383 H 0.88452 0.53583 0.46386 0.0
H384 H 0.8893 0.53804 0.55618 0.0
H385 H 0.84994 0.50046 0.57861 0.0
O386 O 0.79882 0.47261 0.4915 0.0
C387 C 0.81076 0.42179 0.48579 0.0
C388 C 0.82464 0.47314 0.55314 0.0
C389 C 0.87062 0.51886 0.54945 0.0
N390 N 0.84479 0.49093 0.51947 0.0
C391 C 0.82318 0.47002 0.53171 0.0
C392 C 0.86842 0.51501 0.52808 0.0
C393 C 0.84852 0.49776 0.56203 0.0
C394 C 0.85299 0.44825 0.42743 0.0
N395 N 0.82539 0.43122 0.43553 0.0
C396 C 0.86885 0.43536 0.41972 0.0
C397 C 0.8564 0.4048 0.42046 0.0
C398 C 0.82838 0.38755 0.42891 0.0
C399 C 0.81318 0.40121 0.43646 0.0
C400 C 0.74051 0.39241 0.40448 0.0
C401 C 0.74237 0.40575 0.44596 0.0
C402 C 0.76678 0.41338 0.41382 0.0
N403 N 0.76751 0.41976 0.43434 0.0
C404 C 0.71569 0.38468 0.43714 0.0
C405 C 0.71483 0.37804 0.41625 0.0
C406 C 0.77979 0.47086 0.47839 0.0
C407 C 0.87887 0.57311 0.46915 0.0
C408 C 0.83538 0.53661 0.49668 0.0
C409 C 0.84133 0.56556 0.49388 0.0
C410 C 0.86322 0.58388 0.47999 0.0
N411 N 0.85078 0.52618 0.48594 0.0
C412 C 0.87232 0.54404 0.47235 0.0
Co413 Co 0.54872 0.33966 0.44779 0.0
Co414 Co 0.50646 0.33411 0.48925 0.0
O415 O 0.5165 0.34361 0.45995 0.0
C416 C 0.50453 0.32561 0.41305 0.0
O417 O 0.48601 0.32877 0.42497 0.0
C418 C 0.50875 0.39127 0.48468 0.0
O419 O 0.53332 0.40068 0.47421 0.0
O420 O 0.54729 0.36462 0.49674 0.0
O421 O 0.57091 0.35078 0.47459 0.0
H422 H 0.52457 0.31329 0.56178 0.0
H423 H 0.53081 0.38067 0.42905 0.0
O424 O 0.52852 0.3285 0.42022 0.0
H425 H 0.63745 0.44165 0.44251 0.0
H426 H 0.61955 0.34801 0.39189 0.0
H427 H 0.58408 0.31304 0.46241 0.0
H428 H 0.61097 0.38871 0.45103 0.0
H429 H 0.5807 0.35542 0.40743 0.0
O430 O 0.49447 0.36474 0.49107 0.0
H431 H 0.53584 0.32382 0.52477 0.0
H432 H 0.45705 0.32709 0.51614 0.0
H433 H 0.62303 0.30532 0.44747 0.0
H434 H 0.55652 0.43332 0.41991 0.0
H435 H 0.64087 0.32272 0.41193 0.0
H436 H 0.61026 0.46433 0.42672 0.0
O437 O 0.52782 0.29751 0.45588 0.0
H438 H 0.41084 0.29678 0.45104 0.0
H439 H 0.46595 0.27091 0.50044 0.0
H440 H 0.41557 0.23312 0.49022 0.0
H441 H 0.38763 0.24598 0.46538 0.0
H442 H 0.46139 0.33383 0.46158 0.0
H443 H 0.44505 0.31688 0.55309 0.0
H444 H 0.47888 0.30976 0.57616 0.0
O445 O 0.51845 0.30305 0.48869 0.0
C446 C 0.57059 0.36552 0.49013 0.0
C447 C 0.50959 0.31621 0.55186 0.0
C448 C 0.46498 0.31826 0.54699 0.0
N449 N 0.49695 0.32569 0.51826 0.0
C450 C 0.5158 0.32207 0.53088 0.0
C451 C 0.4719 0.32407 0.52609 0.0
C452 C 0.48396 0.31427 0.55993 0.0
C453 C 0.55423 0.39366 0.43163 0.0
N454 N 0.56933 0.38125 0.44019 0.0
C455 C 0.56868 0.42364 0.4266 0.0
C456 C 0.59881 0.44105 0.43047 0.0
C457 C 0.61407 0.42834 0.43932 0.0
C458 C 0.5989 0.39829 0.44411 0.0
C459 C 0.61188 0.34028 0.40738 0.0
C460 C 0.5918 0.32083 0.44697 0.0
C461 C 0.58981 0.34432 0.41625 0.0
N462 N 0.58006 0.33468 0.43584 0.0
C463 C 0.61387 0.31636 0.43859 0.0
C464 C 0.6239 0.32614 0.41865 0.0
C465 C 0.52247 0.28852 0.47447 0.0
C466 C 0.42278 0.2909 0.46188 0.0
C467 C 0.45403 0.27663 0.4895 0.0
C468 C 0.42546 0.25516 0.48384 0.0
C469 C 0.40979 0.2624 0.46991 0.0
N470 N 0.46662 0.30453 0.48153 0.0
C471 C 0.45139 0.31179 0.46791 0.0
Co472 Co 0.65688 0.19448 0.43392 0.0
Co473 Co 0.66113 0.15274 0.47217 0.0
O474 O 0.65132 0.1566 0.4437 0.0
C475 C 0.67682 0.17083 0.39909 0.0
O476 O 0.68823 0.16019 0.41218 0.0
C477 C 0.6015 0.09985 0.4689 0.0
O478 O 0.59078 0.11688 0.46367 0.0
O479 O 0.63259 0.16472 0.48188 0.0
O480 O 0.64809 0.20461 0.46193 0.0
H481 H 0.68559 0.18457 0.54607 0.0
H482 H 0.61457 0.13863 0.41308 0.0
O483 O 0.66498 0.18552 0.40547 0.0
H484 H 0.55608 0.18481 0.43344 0.0
H485 H 0.64963 0.26262 0.38235 0.0
H486 H 0.68708 0.25562 0.45063 0.0
H487 H 0.6094 0.20952 0.44081 0.0
H488 H 0.64027 0.21454 0.39568 0.0
O489 O 0.629 0.11062 0.47215 0.0
H490 H 0.67471 0.18956 0.50977 0.0
H491 H 0.66528 0.10594 0.49571 0.0
H492 H 0.69678 0.30408 0.43793 0.0
H493 H 0.56132 0.11327 0.40524 0.0
H494 H 0.67827 0.30782 0.40345 0.0
H495 H 0.53168 0.13634 0.41552 0.0
O496 O 0.69935 0.21347 0.44115 0.0
H497 H 0.69244 0.09359 0.42871 0.0
H498 H 0.72385 0.1711 0.48182 0.0
H499 H 0.7592 0.15649 0.46923 0.0
H500 H 0.74354 0.1174 0.44253 0.0
H501 H 0.65792 0.10918 0.44152 0.0
H502 H 0.67579 0.09991 0.5319 0.0
H503 H 0.68618 0.13948 0.55734 0.0
O504 O 0.69391 0.19501 0.47298 0.0
C505 C 0.63291 0.1884 0.47693 0.0
C506 C 0.68123 0.16724 0.53511 0.0
C507 C 0.6757 0.11971 0.52716 0.0
N508 N 0.66976 0.14826 0.50059 0.0
C509 C 0.67517 0.16999 0.51452 0.0
C510 C 0.66973 0.12323 0.5067 0.0
C511 C 0.68153 0.14192 0.54143 0.0
C512 C 0.60188 0.14893 0.41744 0.0
N513 N 0.61514 0.17557 0.42731 0.0
C514 C 0.57171 0.13442 0.41302 0.0
C515 C 0.55509 0.14736 0.41881 0.0
C516 C 0.56876 0.17455 0.42886 0.0
C517 C 0.59897 0.18842 0.433 0.0
C518 C 0.65793 0.26127 0.39736 0.0
C519 C 0.67876 0.25699 0.43567 0.0
C520 C 0.6528 0.23411 0.40496 0.0
N521 N 0.66321 0.23222 0.42389 0.0
C522 C 0.68435 0.28453 0.42856 0.0
C523 C 0.67392 0.28662 0.40924 0.0
C524 C 0.70878 0.21472 0.45948 0.0
C525 C 0.69952 0.11062 0.44037 0.0
C526 C 0.71693 0.15426 0.47006 0.0
C527 C 0.73702 0.14598 0.46306 0.0
C528 C 0.7282 0.12402 0.4481 0.0
N529 N 0.68885 0.14104 0.46238 0.0
C530 C 0.68003 0.11945 0.44774 0.0
Co531 Co 0.77866 0.48364 0.22835 0.0
Co532 Co 0.82844 0.50835 0.18867 0.0
O533 O 0.8152 0.51377 0.21573 0.0
C534 C 0.8218 0.49955 0.26277 0.0
O535 O 0.83946 0.49524 0.25069 0.0
C536 C 0.8299 0.56485 0.18538 0.0
O537 O 0.80259 0.55073 0.19214 0.0
O538 O 0.79005 0.49895 0.1759 0.0
O539 O 0.75881 0.47156 0.20106 0.0
H540 H 0.81959 0.4569 0.12134 0.0
H541 H 0.80661 0.54554 0.24311 0.0
O542 O 0.79716 0.49541 0.25612 0.0
H543 H 0.70644 0.52014 0.22098 0.0
H544 H 0.69925 0.4421 0.28284 0.0
H545 H 0.73467 0.42167 0.21783 0.0
H546 H 0.72269 0.48337 0.21885 0.0
H547 H 0.74509 0.48051 0.26652 0.0
O548 O 0.84411 0.55116 0.18291 0.0
H549 H 0.80291 0.46318 0.15559 0.0
H550 H 0.88286 0.54432 0.16386 0.0
H551 H 0.68864 0.38276 0.23352 0.0
H552 H 0.79114 0.58292 0.24572 0.0
H553 H 0.67059 0.39285 0.26625 0.0
H554 H 0.74077 0.57035 0.23452 0.0
O555 O 0.79193 0.45433 0.22544 0.0
H556 H 0.91786 0.56681 0.23315 0.0
H557 H 0.86588 0.48018 0.18759 0.0
H558 H 0.91275 0.49071 0.2039 0.0
H559 H 0.93909 0.53434 0.22684 0.0
H560 H 0.87081 0.55533 0.21665 0.0
H561 H 0.90032 0.53907 0.12961 0.0
H562 H 0.86863 0.49503 0.10815 0.0
O563 O 0.81255 0.46523 0.19396 0.0
C564 C 0.76428 0.48124 0.18266 0.0
C565 C 0.83364 0.47614 0.13058 0.0
C566 C 0.87894 0.52228 0.13521 0.0
N567 N 0.84202 0.50394 0.16178 0.0
C568 C 0.82435 0.47976 0.15001 0.0
C569 C 0.86892 0.52516 0.15457 0.0
C570 C 0.86115 0.49755 0.12318 0.0
C571 C 0.78456 0.53982 0.2384 0.0
N572 N 0.76558 0.51231 0.23085 0.0
C573 C 0.77596 0.56111 0.23984 0.0
C574 C 0.74771 0.55405 0.23353 0.0
C575 C 0.72844 0.5259 0.22592 0.0
C576 C 0.7378 0.50519 0.2247 0.0
C577 C 0.70687 0.43744 0.26856 0.0
C578 C 0.72696 0.42631 0.23204 0.0
C579 C 0.73288 0.45907 0.25929 0.0
N580 N 0.74254 0.45341 0.24119 0.0
C581 C 0.70088 0.40415 0.24087 0.0
C582 C 0.69079 0.40982 0.25925 0.0
C583 C 0.8011 0.44762 0.2092 0.0
C584 C 0.90663 0.54778 0.22315 0.0
C585 C 0.87717 0.49915 0.19761 0.0
C586 C 0.90373 0.50504 0.20676 0.0
C587 C 0.91851 0.52953 0.21962 0.0
N588 N 0.8657 0.51721 0.2011 0.0
C589 C 0.88004 0.54123 0.2137 0.0
Co590 Co 0.53381 0.31232 0.22285 0.0
Co591 Co 0.49533 0.31945 0.18338 0.0
O592 O 0.49835 0.31185 0.21261 0.0
C593 C 0.51189 0.33478 0.25793 0.0
O594 O 0.49222 0.33593 0.24605 0.0
C595 C 0.43698 0.26635 0.1909 0.0
O596 O 0.45037 0.25264 0.19805 0.0
O597 O 0.4999 0.28511 0.1761 0.0
O598 O 0.53941 0.297 0.19581 0.0
H599 H 0.52467 0.33022 0.10871 0.0
H600 H 0.47612 0.27841 0.24477 0.0
O601 O 0.52976 0.32715 0.25064 0.0
H602 H 0.5088 0.20652 0.23086 0.0
H603 H 0.59699 0.29854 0.27536 0.0
H604 H 0.59297 0.33169 0.2049 0.0
H605 H 0.5394 0.25839 0.22019 0.0
H606 H 0.55158 0.29638 0.26251 0.0
O607 O 0.45176 0.29302 0.18485 0.0
H608 H 0.52886 0.32225 0.14575 0.0
H609 H 0.45326 0.32977 0.15863 0.0
H610 H 0.63872 0.33407 0.21712 0.0
H611 H 0.44508 0.22687 0.25597 0.0
H612 H 0.64093 0.31737 0.25257 0.0
H613 H 0.46128 0.19043 0.24899 0.0
O614 O 0.55789 0.35351 0.21286 0.0
H615 H 0.4511 0.37056 0.22298 0.0
H616 H 0.5233 0.38229 0.16953 0.0
H617 H 0.51798 0.42498 0.1792 0.0
H618 H 0.48163 0.41926 0.20608 0.0
H619 H 0.45735 0.3285 0.21297 0.0
H620 H 0.4481 0.33757 0.1217 0.0
H621 H 0.48405 0.33796 0.09648 0.0
O622 O 0.53917 0.34661 0.181 0.0
C623 C 0.52137 0.28177 0.18158 0.0
C624 C 0.50894 0.33021 0.11956 0.0
C625 C 0.46594 0.3343 0.12685 0.0
N626 N 0.49153 0.32586 0.15436 0.0
C627 C 0.51126 0.3258 0.14056 0.0
C628 C 0.46895 0.32983 0.14773 0.0
C629 C 0.48612 0.33452 0.11271 0.0
C630 C 0.48368 0.26295 0.242 0.0
N631 N 0.5099 0.27171 0.23219 0.0
C632 C 0.46585 0.23366 0.24825 0.0
C633 C 0.47493 0.21321 0.24429 0.0
C634 C 0.50158 0.22222 0.23415 0.0
C635 C 0.51884 0.25168 0.22816 0.0
C636 C 0.59629 0.30587 0.25988 0.0
C637 C 0.59368 0.32432 0.22034 0.0
C638 C 0.57066 0.30479 0.25253 0.0
N639 N 0.56953 0.31379 0.23292 0.0
C640 C 0.61969 0.32576 0.22718 0.0
C641 C 0.62093 0.31642 0.24708 0.0
C642 C 0.55967 0.36124 0.19403 0.0
C643 C 0.46706 0.37335 0.21127 0.0
C644 C 0.50765 0.37967 0.1814 0.0
C645 C 0.50463 0.4039 0.18673 0.0
C646 C 0.4842 0.40067 0.20179 0.0
N647 N 0.49083 0.35296 0.19082 0.0
C648 C 0.47068 0.34961 0.20553 0.0
Co649 Co 0.65834 0.19162 0.22106 0.0
Co650 Co 0.67104 0.17077 0.17447 0.0
O651 O 0.67274 0.16976 0.20472 0.0
C652 C 0.64891 0.14009 0.24811 0.0
O653 O 0.66033 0.13007 0.2345 0.0
C654 C 0.73156 0.18138 0.18157 0.0
O655 O 0.73543 0.20102 0.19567 0.0
O656 O 0.69674 0.21448 0.1755 0.0
O657 O 0.67029 0.2223 0.19901 0.0
H658 H 0.6598 0.21054 0.10669 0.0
H659 H 0.70502 0.17936 0.2373 0.0
O660 O 0.64576 0.16222 0.24413 0.0
H661 H 0.74607 0.28648 0.24525 0.0
H662 H 0.63926 0.2325 0.28607 0.0
H663 H 0.62491 0.22221 0.21078 0.0
H664 H 0.69654 0.25554 0.23058 0.0
H665 H 0.65895 0.20634 0.26575 0.0
O666 O 0.70693 0.16685 0.17233 0.0
H667 H 0.66083 0.20759 0.14462 0.0
H668 H 0.68011 0.13794 0.14022 0.0
H669 H 0.60515 0.24876 0.23049 0.0
H670 H 0.75418 0.20929 0.25252 0.0
H671 H 0.61227 0.25407 0.26844 0.0
H672 H 0.77524 0.26338 0.25653 0.0
O673 O 0.61904 0.168 0.20799 0.0
H674 H 0.64308 0.0673 0.19454 0.0
H675 H 0.61444 0.1284 0.15357 0.0
H676 H 0.58251 0.07425 0.15345 0.0
H677 H 0.5968 0.0433 0.17401 0.0
H678 H 0.67428 0.12158 0.19432 0.0
H679 H 0.67956 0.14031 0.10225 0.0
H680 H 0.66921 0.17672 0.08524 0.0
O681 O 0.63461 0.17444 0.17536 0.0
C682 C 0.6909 0.23175 0.18567 0.0
C683 C 0.66424 0.19452 0.11392 0.0
C684 C 0.67537 0.15513 0.11142 0.0
N685 N 0.67027 0.17246 0.14462 0.0
C686 C 0.66478 0.1927 0.13538 0.0
C687 C 0.67571 0.15393 0.13293 0.0
C688 C 0.66955 0.17556 0.10189 0.0
C689 C 0.71338 0.20258 0.23946 0.0
N690 N 0.69725 0.21531 0.23351 0.0
C691 C 0.74155 0.21958 0.24791 0.0
C692 C 0.75339 0.24993 0.2501 0.0
C693 C 0.73704 0.26289 0.24379 0.0
C694 C 0.70893 0.24517 0.23549 0.0
C695 C 0.63597 0.23029 0.26955 0.0
C696 C 0.62814 0.22436 0.22726 0.0
C697 C 0.64693 0.21533 0.25795 0.0
N698 N 0.64304 0.21258 0.23704 0.0
C699 C 0.61687 0.23945 0.23836 0.0
C700 C 0.62086 0.24241 0.25964 0.0
C701 C 0.61454 0.16881 0.18875 0.0
C702 C 0.63662 0.08054 0.18551 0.0
C703 C 0.62073 0.11511 0.16266 0.0
C704 C 0.60261 0.08444 0.16247 0.0
C705 C 0.61065 0.06709 0.174 0.0
N706 N 0.64619 0.12813 0.17398 0.0
C707 C 0.65421 0.11127 0.18531 0.0
Co708 Co 0.45992 0.79283 0.78214 0.0
Co709 Co 0.49753 0.8196 0.82681 0.0
O710 O 0.49675 0.81961 0.79655 0.0
C711 C 0.49255 0.84639 0.75435 0.0
O712 O 0.51415 0.86023 0.7676 0.0
C713 C 0.55219 0.81946 0.81532 0.0
O714 O 0.53734 0.79962 0.80112 0.0
O715 O 0.48601 0.77723 0.82606 0.0
O716 O 0.44775 0.76256 0.80464 0.0
H717 H 0.45801 0.77768 0.89696 0.0
H718 H 0.51842 0.81424 0.76133 0.0
O719 O 0.47022 0.82142 0.75873 0.0
H720 H 0.46745 0.70576 0.75687 0.0
H721 H 0.39595 0.74283 0.72023 0.0
H722 H 0.3976 0.75529 0.79567 0.0
H723 H 0.44342 0.73045 0.77366 0.0
H724 H 0.44277 0.77487 0.73827 0.0
O725 O 0.53974 0.83019 0.82636 0.0
H726 H 0.4572 0.7794 0.85896 0.0
H727 H 0.54076 0.85803 0.8588 0.0
H728 H 0.35033 0.72291 0.77823 0.0
H729 H 0.54286 0.79051 0.74395 0.0
H730 H 0.34934 0.71653 0.74021 0.0
H731 H 0.51748 0.73581 0.74171 0.0
O732 O 0.44041 0.81178 0.79669 0.0
H733 H 0.55814 0.92532 0.80432 0.0
H734 H 0.47692 0.85593 0.84935 0.0
H735 H 0.49114 0.90855 0.8492 0.0
H736 H 0.53206 0.94366 0.82659 0.0
H737 H 0.54305 0.87244 0.80486 0.0
H738 H 0.54261 0.85702 0.89678 0.0
H739 H 0.50095 0.8167 0.91612 0.0
O740 O 0.45498 0.80903 0.82855 0.0
C741 C 0.46301 0.75706 0.81727 0.0
C742 C 0.47624 0.79543 0.88871 0.0
C743 C 0.52374 0.83994 0.88861 0.0
N744 N 0.49874 0.81895 0.85669 0.0
C745 C 0.47586 0.79657 0.8672 0.0
C746 C 0.52258 0.84037 0.86711 0.0
C747 C 0.50036 0.81731 0.89945 0.0
C748 C 0.50678 0.79056 0.76 0.0
N749 N 0.47916 0.77395 0.76817 0.0
C750 C 0.52093 0.77717 0.75031 0.0
C751 C 0.50673 0.74649 0.7491 0.0
C752 C 0.47867 0.72962 0.75759 0.0
C753 C 0.46518 0.74379 0.7671 0.0
C754 C 0.39612 0.74545 0.73679 0.0
C755 C 0.3974 0.7526 0.77915 0.0
C756 C 0.42256 0.76366 0.7471 0.0
N757 N 0.423 0.76698 0.76805 0.0
C758 C 0.37053 0.73423 0.76935 0.0
C759 C 0.36996 0.73067 0.74803 0.0
C760 C 0.43714 0.81115 0.81619 0.0
C761 C 0.54027 0.91023 0.81423 0.0
C762 C 0.4946 0.87101 0.83935 0.0
C763 C 0.50263 0.90081 0.8394 0.0
C764 C 0.52561 0.92051 0.82672 0.0
N765 N 0.50907 0.86111 0.82703 0.0
C766 C 0.53165 0.88029 0.81461 0.0
Co767 Co 0.21392 0.67534 0.78157 0.0
Co768 Co 0.16621 0.66966 0.81914 0.0
O769 O 0.18066 0.67962 0.79077 0.0
C770 C 0.1735 0.66054 0.7446 0.0
O771 O 0.15247 0.66028 0.75576 0.0
C772 C 0.17191 0.72815 0.81344 0.0
O773 O 0.19946 0.73815 0.80796 0.0
O774 O 0.20599 0.69909 0.8294 0.0
O775 O 0.23218 0.68533 0.80976 0.0
H776 H 0.17156 0.64592 0.89353 0.0
H777 H 0.1992 0.71669 0.76013 0.0
O778 O 0.19766 0.66542 0.75282 0.0
H779 H 0.30351 0.77718 0.78058 0.0
H780 H 0.29271 0.68533 0.73202 0.0
H781 H 0.24604 0.64724 0.79967 0.0
H782 H 0.27572 0.72406 0.78861 0.0
H783 H 0.2516 0.69203 0.74374 0.0
O784 O 0.15528 0.70112 0.81822 0.0
H785 H 0.18872 0.65698 0.85748 0.0
H786 H 0.11394 0.66435 0.8415 0.0
H787 H 0.28728 0.64034 0.78862 0.0
H788 H 0.22627 0.76966 0.75165 0.0
H789 H 0.31109 0.65969 0.75465 0.0
H790 H 0.27883 0.80036 0.76196 0.0
O791 O 0.1913 0.63305 0.78907 0.0
H792 H 0.07636 0.63547 0.77453 0.0
H793 H 0.12318 0.60648 0.82857 0.0
H794 H 0.07405 0.56984 0.81544 0.0
H795 H 0.05027 0.58427 0.78825 0.0
H796 H 0.12563 0.67132 0.78794 0.0
H797 H 0.09608 0.65361 0.87742 0.0
H798 H 0.12491 0.64417 0.90369 0.0
O799 O 0.17706 0.63778 0.82072 0.0
C800 C 0.22995 0.6998 0.82479 0.0
C801 C 0.15873 0.64986 0.8822 0.0
C802 C 0.11639 0.65422 0.87316 0.0
N803 N 0.15217 0.66095 0.84736 0.0
C804 C 0.16829 0.65603 0.86175 0.0
C805 C 0.12663 0.66032 0.85286 0.0
C806 C 0.13257 0.64892 0.8879 0.0
C807 C 0.22214 0.7297 0.76439 0.0
N808 N 0.23589 0.71706 0.77457 0.0
C809 C 0.23733 0.75978 0.75967 0.0
C810 C 0.2668 0.77701 0.76549 0.0
C811 C 0.28066 0.76403 0.77595 0.0
C812 C 0.26477 0.7339 0.78043 0.0
C813 C 0.28259 0.67691 0.7469 0.0
C814 C 0.25622 0.6557 0.78485 0.0
C815 C 0.25921 0.68053 0.75359 0.0
N816 N 0.24643 0.67014 0.77243 0.0
C817 C 0.27957 0.65169 0.77867 0.0
C818 C 0.29286 0.66247 0.75958 0.0
C819 C 0.18272 0.62342 0.80728 0.0
C820 C 0.08651 0.6289 0.78636 0.0
C821 C 0.11315 0.61286 0.81657 0.0
C822 C 0.08524 0.59205 0.80928 0.0
C823 C 0.07189 0.60017 0.79405 0.0
N824 N 0.12739 0.64097 0.8089 0.0
C825 C 0.11439 0.64912 0.79403 0.0
Co826 Co 0.30555 0.51727 0.76926 0.0
Co827 Co 0.31615 0.48394 0.81111 0.0
O828 O 0.30397 0.48263 0.78228 0.0
C829 C 0.3214 0.48746 0.73523 0.0
O830 O 0.32288 0.46887 0.74807 0.0
C831 C 0.2576 0.43065 0.81055 0.0
O832 O 0.2483 0.44611 0.80034 0.0
O833 O 0.28733 0.49581 0.82011 0.0
O834 O 0.29549 0.52956 0.7959 0.0
H835 H 0.34573 0.52825 0.8819 0.0
H836 H 0.26636 0.45714 0.75197 0.0
O837 O 0.31551 0.50696 0.74169 0.0
H838 H 0.20081 0.49707 0.76752 0.0
H839 H 0.28806 0.57269 0.7126 0.0
H840 H 0.33074 0.58005 0.78161 0.0
H841 H 0.25423 0.52685 0.77402 0.0
H842 H 0.28508 0.52885 0.72915 0.0
O843 O 0.28485 0.44186 0.81495 0.0
H844 H 0.33129 0.52653 0.8455 0.0
H845 H 0.32483 0.4428 0.83814 0.0
H846 H 0.33394 0.62435 0.76571 0.0
H847 H 0.21317 0.42686 0.74483 0.0
H848 H 0.31254 0.62084 0.73092 0.0
H849 H 0.17991 0.4467 0.75272 0.0
O850 O 0.34819 0.54104 0.77588 0.0
H851 H 0.34687 0.42006 0.77293 0.0
H852 H 0.38026 0.50641 0.8186 0.0
H853 H 0.41594 0.49163 0.80705 0.0
H854 H 0.39929 0.44812 0.78408 0.0
H855 H 0.31199 0.43583 0.78468 0.0
H856 H 0.33892 0.44346 0.87452 0.0
H857 H 0.34961 0.48649 0.89664 0.0
O858 O 0.34755 0.5265 0.80844 0.0
C859 C 0.28448 0.51684 0.81298 0.0
C860 C 0.34125 0.50944 0.8724 0.0
C861 C 0.3374 0.46184 0.86826 0.0
N862 N 0.32759 0.48477 0.83965 0.0
C863 C 0.33318 0.50839 0.85176 0.0
C864 C 0.3294 0.46157 0.84769 0.0
C865 C 0.3434 0.48599 0.88066 0.0
C866 C 0.25225 0.46624 0.75505 0.0
N867 N 0.26362 0.49396 0.76311 0.0
C868 C 0.22204 0.44886 0.75114 0.0
C869 C 0.20338 0.45997 0.75561 0.0
C870 C 0.21508 0.48821 0.76391 0.0
C871 C 0.24539 0.50497 0.76757 0.0
C872 C 0.29748 0.5745 0.72776 0.0
C873 C 0.32127 0.57828 0.76651 0.0
C874 C 0.29596 0.54976 0.73718 0.0
N875 N 0.30768 0.55182 0.75637 0.0
C876 C 0.32319 0.60348 0.75757 0.0
C877 C 0.31119 0.6015 0.73806 0.0
C878 C 0.35961 0.54508 0.7938 0.0
C879 C 0.3544 0.43906 0.78293 0.0
C880 C 0.3729 0.48762 0.80845 0.0
C881 C 0.39318 0.47927 0.80204 0.0
C882 C 0.38381 0.45483 0.78918 0.0
N883 N 0.3441 0.47206 0.80223 0.0
C884 C 0.33474 0.44804 0.78967 0.0
Co885 Co 0.45795 0.80474 0.56673 0.0
Co886 Co 0.50236 0.84219 0.5264 0.0
O887 O 0.49062 0.84102 0.5552 0.0
C888 C 0.50178 0.83399 0.6016 0.0
O889 O 0.52229 0.8526 0.58902 0.0
C890 C 0.49836 0.89673 0.52823 0.0
O891 O 0.47083 0.88097 0.53435 0.0
O892 O 0.46177 0.8312 0.51761 0.0
O893 O 0.43707 0.79362 0.53947 0.0
H894 H 0.48932 0.80443 0.45369 0.0
H895 H 0.47556 0.86354 0.58506 0.0
O896 O 0.4768 0.81417 0.59474 0.0
H897 H 0.36953 0.81884 0.56938 0.0
H898 H 0.38425 0.74257 0.62129 0.0
H899 H 0.42335 0.74267 0.55207 0.0
H900 H 0.39585 0.79181 0.56203 0.0
H901 H 0.42396 0.78871 0.60624 0.0
O902 O 0.51402 0.88474 0.52503 0.0
H903 H 0.47577 0.8028 0.4903 0.0
H904 H 0.55275 0.88582 0.50077 0.0
H905 H 0.3834 0.69611 0.56646 0.0
H906 H 0.45001 0.89117 0.59289 0.0
H907 H 0.36375 0.69586 0.6014 0.0
H908 H 0.3966 0.86888 0.58499 0.0
O909 O 0.47912 0.78338 0.55945 0.0
H910 H 0.59632 0.90182 0.5663 0.0
H911 H 0.54395 0.82025 0.5168 0.0
H912 H 0.59408 0.83361 0.52815 0.0
H913 H 0.62066 0.87472 0.55304 0.0
H914 H 0.546 0.8875 0.55472 0.0
H915 H 0.567 0.88848 0.46423 0.0
H916 H 0.53524 0.84751 0.44043 0.0
O917 O 0.49106 0.79939 0.52698 0.0
C918 C 0.43816 0.80869 0.52374 0.0
C919 C 0.50341 0.82236 0.46392 0.0
C920 C 0.54699 0.86955 0.46983 0.0
N921 N 0.51362 0.84401 0.49771 0.0
C922 C 0.4959 0.82151 0.48468 0.0
C923 C 0.53878 0.86793 0.4905 0.0
C924 C 0.52916 0.84655 0.45649 0.0
C925 C 0.45226 0.85344 0.58187 0.0
N926 N 0.4372 0.82586 0.5734 0.0
C927 C 0.43792 0.8693 0.58622 0.0
C928 C 0.40797 0.8568 0.58176 0.0
C929 C 0.39276 0.82873 0.57302 0.0
C930 C 0.40782 0.81352 0.56891 0.0
C931 C 0.3927 0.74241 0.60608 0.0
C932 C 0.41481 0.74281 0.56721 0.0
C933 C 0.41528 0.76845 0.5975 0.0
N934 N 0.42604 0.76845 0.57827 0.0
C935 C 0.3922 0.71634 0.57529 0.0
C936 C 0.38115 0.7162 0.59488 0.0
C937 C 0.48617 0.78049 0.54112 0.0
C938 C 0.58496 0.88385 0.55547 0.0
C939 C 0.55521 0.83795 0.52781 0.0
C940 C 0.58367 0.84552 0.53409 0.0
C941 C 0.59859 0.86862 0.54804 0.0
N942 N 0.54194 0.85294 0.53523 0.0
C943 C 0.55648 0.87567 0.54883 0.0
Co944 Co 0.20629 0.64544 0.55385 0.0
Co945 Co 0.16695 0.65503 0.51642 0.0
O946 O 0.16948 0.64222 0.54424 0.0
C947 C 0.18689 0.66711 0.59001 0.0
O948 O 0.18342 0.68552 0.57819 0.0
C949 C 0.11319 0.59611 0.51807 0.0
O950 O 0.12985 0.58457 0.52225 0.0
O951 O 0.17813 0.62663 0.50494 0.0
O952 O 0.21697 0.63891 0.52541 0.0
H953 H 0.20096 0.68614 0.44354 0.0
H954 H 0.14925 0.60289 0.57299 0.0
O955 O 0.19647 0.651 0.58257 0.0
H956 H 0.19296 0.54315 0.55029 0.0
H957 H 0.27137 0.63055 0.60398 0.0
H958 H 0.26782 0.67567 0.53812 0.0
H959 H 0.21943 0.59703 0.5447 0.0
H960 H 0.22426 0.6244 0.59105 0.0
O961 O 0.12446 0.62382 0.51555 0.0
H962 H 0.20459 0.67134 0.47905 0.0
H963 H 0.12166 0.66294 0.49397 0.0
H964 H 0.31528 0.68235 0.55049 0.0
H965 H 0.12212 0.54911 0.57885 0.0
H966 H 0.31728 0.65979 0.58363 0.0
H967 H 0.14398 0.51886 0.56741 0.0
O968 O 0.22664 0.68854 0.54864 0.0
H969 H 0.11051 0.68519 0.56369 0.0
H970 H 0.18682 0.71875 0.50953 0.0
H971 H 0.17388 0.7541 0.52465 0.0
H972 H 0.13541 0.73734 0.55189 0.0
H973 H 0.12434 0.65064 0.54828 0.0
H974 H 0.11698 0.67737 0.45857 0.0
H975 H 0.1569 0.68923 0.43311 0.0
O976 O 0.20968 0.68694 0.51672 0.0
C977 C 0.20133 0.62584 0.50966 0.0
C978 C 0.18348 0.68115 0.45452 0.0
C979 C 0.13633 0.67619 0.46295 0.0
N980 N 0.16355 0.66665 0.48862 0.0
C981 C 0.18548 0.67288 0.47467 0.0
C982 C 0.13908 0.66799 0.48296 0.0
C983 C 0.15874 0.68285 0.44867 0.0
C984 C 0.15898 0.58991 0.56804 0.0
N985 N 0.18592 0.60313 0.55856 0.0
C986 C 0.14348 0.55945 0.57137 0.0
C987 C 0.15575 0.54249 0.56493 0.0
C988 C 0.18324 0.55612 0.5553 0.0
C989 C 0.1981 0.58663 0.55219 0.0
C990 C 0.27075 0.64053 0.58951 0.0
C991 C 0.26841 0.66566 0.55254 0.0
C992 C 0.24415 0.63718 0.58213 0.0
N993 N 0.24321 0.64959 0.56381 0.0
C994 C 0.2954 0.66955 0.55947 0.0
C995 C 0.29651 0.65689 0.57809 0.0
C996 C 0.22889 0.69995 0.53088 0.0
C997 C 0.12725 0.69273 0.55179 0.0
C998 C 0.17015 0.71132 0.52144 0.0
C999 C 0.16286 0.73142 0.52991 0.0
C1000 C 0.14126 0.722 0.54518 0.0
N1001 N 0.15626 0.68263 0.52797 0.0
C1002 C 0.1351 0.67325 0.54296 0.0
Co1003 Co 0.34705 0.53669 0.55317 0.0
Co1004 Co 0.35328 0.5076 0.50782 0.0
O1005 O 0.35355 0.50783 0.53815 0.0
C1006 C 0.32232 0.48269 0.5812 0.0
O1007 O 0.32958 0.46773 0.56858 0.0
C1008 C 0.40652 0.50399 0.51768 0.0
O1009 O 0.41361 0.52472 0.53157 0.0
O1010 O 0.3862 0.54911 0.50792 0.0
O1011 O 0.36709 0.56691 0.5309 0.0
H1012 H 0.35624 0.55005 0.43779 0.0
H1013 H 0.38058 0.51005 0.57249 0.0
O1014 O 0.32689 0.50828 0.57643 0.0
H1015 H 0.44551 0.61764 0.57853 0.0
H1016 H 0.33986 0.58919 0.61619 0.0
H1017 H 0.32718 0.5787 0.54074 0.0
H1018 H 0.39676 0.59707 0.56213 0.0
H1019 H 0.35047 0.55466 0.59729 0.0
O1020 O 0.38267 0.49398 0.50748 0.0
H1021 H 0.35529 0.54902 0.47581 0.0
H1022 H 0.35333 0.46685 0.47559 0.0
H1023 H 0.31655 0.61368 0.55905 0.0
H1024 H 0.42878 0.52963 0.58935 0.0
H1025 H 0.32282 0.619 0.5971 0.0
H1026 H 0.4618 0.58386 0.59243 0.0
O1027 O 0.30851 0.52124 0.53901 0.0
H1028 H 0.30219 0.4019 0.53111 0.0
H1029 H 0.29498 0.47431 0.48644 0.0
H1030 H 0.25387 0.42286 0.48733 0.0
H1031 H 0.25735 0.38623 0.50976 0.0
H1032 H 0.34271 0.45367 0.52984 0.0
H1033 H 0.35454 0.46712 0.43756 0.0
H1034 H 0.35586 0.50888 0.4184 0.0
O1035 O 0.32365 0.52131 0.50678 0.0
C1036 C 0.38592 0.57044 0.5171 0.0
C1037 C 0.35554 0.53168 0.44595 0.0
C1038 C 0.35463 0.48515 0.44583 0.0
N1039 N 0.35392 0.50775 0.4779 0.0
C1040 C 0.35491 0.53093 0.46749 0.0
C1041 C 0.35399 0.48514 0.46736 0.0
C1042 C 0.35536 0.50858 0.43509 0.0
C1043 C 0.39423 0.53355 0.57419 0.0
N1044 N 0.38521 0.55221 0.56677 0.0
C1045 C 0.42179 0.54459 0.58359 0.0
C1046 C 0.44035 0.575 0.58526 0.0
C1047 C 0.43121 0.59395 0.57748 0.0
C1048 C 0.4035 0.58211 0.56821 0.0
C1049 C 0.33705 0.58705 0.59962 0.0
C1050 C 0.33013 0.58101 0.55726 0.0
C1051 C 0.34293 0.56745 0.58883 0.0
N1052 N 0.33955 0.56469 0.56788 0.0
C1053 C 0.32401 0.60083 0.56755 0.0
C1054 C 0.32752 0.60381 0.58888 0.0
C1055 C 0.30521 0.52153 0.51956 0.0
C1056 C 0.30041 0.41765 0.52127 0.0
C1057 C 0.29659 0.45856 0.49634 0.0
C1058 C 0.27328 0.42943 0.49672 0.0
C1059 C 0.27525 0.40888 0.5093 0.0
N1060 N 0.3212 0.46698 0.50813 0.0
C1061 C 0.3233 0.44697 0.52047 0.0
H1062 H 0.39827 0.20653 0.19126 0.0
H1063 H 0.40285 0.29086 0.18374 0.0
H1064 H 0.34553 0.18135 0.18271 0.0
H1065 H 0.35093 0.26598 0.17498 0.0
H1066 H 0.25344 0.21667 0.17542 0.0
H1067 H 0.30235 0.23523 0.18992 0.0
H1068 H 0.31559 0.17571 0.15105 0.0
H1069 H 0.26599 0.15645 0.13674 0.0
C1070 C 0.38797 0.21963 0.18805 0.0
C1071 C 0.40468 0.25063 0.18808 0.0
C1072 C 0.35791 0.20526 0.18301 0.0
C1073 C 0.34413 0.2217 0.17818 0.0
C1074 C 0.36076 0.25266 0.1789 0.0
C1075 C 0.39062 0.26693 0.18379 0.0
C1076 C 0.26665 0.20736 0.17001 0.0
C1077 C 0.25606 0.18542 0.15469 0.0
C1078 C 0.29468 0.21801 0.17835 0.0
C1079 C 0.31292 0.20718 0.17145 0.0
C1080 C 0.30192 0.18432 0.15676 0.0
C1081 C 0.27365 0.17347 0.14847 0.0
H1082 H 0.84956 0.13066 0.12255 0.0
H1083 H 0.8307 0.095 0.18434 0.0
H1084 H 0.82736 0.16103 0.13089 0.0
H1085 H 0.80863 0.12512 0.19258 0.0
H1086 H 0.77956 0.19147 0.20478 0.0
H1087 H 0.81597 0.17648 0.19641 0.0
H1088 H 0.77363 0.14336 0.13752 0.0
H1089 H 0.73757 0.15814 0.14578 0.0
C1090 C 0.84128 0.1298 0.138 0.0
C1091 C 0.84143 0.11018 0.1527 0.0
C1092 C 0.82854 0.14709 0.14276 0.0
C1093 C 0.81616 0.14529 0.16235 0.0
C1094 C 0.81822 0.12718 0.17743 0.0
C1095 C 0.83059 0.1097 0.17262 0.0
C1096 C 0.77842 0.18143 0.18994 0.0
C1097 C 0.75554 0.17557 0.17606 0.0
C1098 C 0.79918 0.17285 0.18516 0.0
C1099 C 0.79761 0.1588 0.16631 0.0
C1100 C 0.77564 0.15447 0.15204 0.0
C1101 C 0.75476 0.16262 0.15691 0.0
H1102 H 0.80546 0.60037 0.18685 0.0
H1103 H 0.88691 0.60126 0.17339 0.0
H1104 H 0.82953 0.65308 0.17924 0.0
H1105 H 0.91074 0.6538 0.16566 0.0
H1106 H 0.87584 0.73929 0.14079 0.0
H1107 H 0.85098 0.68663 0.14876 0.0
H1108 H 0.92615 0.70035 0.1849 0.0
H1109 H 0.95113 0.75283 0.17688 0.0
C1110 C 0.82844 0.61177 0.18223 0.0
C1111 C 0.84429 0.59667 0.18072 0.0
C1112 C 0.84215 0.64189 0.17779 0.0
C1113 C 0.87198 0.65748 0.1719 0.0
C1114 C 0.88781 0.64238 0.1704 0.0
C1115 C 0.87409 0.61226 0.17472 0.0
C1116 C 0.88701 0.73108 0.1505 0.0
C1117 C 0.91544 0.75021 0.15821 0.0
C1118 C 0.87272 0.70098 0.15511 0.0
C1119 C 0.88669 0.68945 0.1674 0.0
C1120 C 0.91502 0.70861 0.17519 0.0
C1121 C 0.92923 0.73868 0.17068 0.0
H1122 H 0.19929 0.39586 0.8004 0.0
H1123 H 0.26752 0.39973 0.8401 0.0
H1124 H 0.16415 0.3475 0.81484 0.0
H1125 H 0.23254 0.3518 0.85443 0.0
H1126 H 0.16104 0.27344 0.8863 0.0
H1127 H 0.18509 0.32538 0.87562 0.0
H1128 H 0.16217 0.29807 0.81223 0.0
H1129 H 0.13849 0.24658 0.82284 0.0
C1130 C 0.20673 0.38647 0.81223 0.0
C1131 C 0.23622 0.40141 0.81894 0.0
C1132 C 0.18662 0.35894 0.82054 0.0
C1133 C 0.19559 0.34614 0.8359 0.0
C1134 C 0.22489 0.3614 0.8429 0.0
C1135 C 0.24503 0.38866 0.83444 0.0
C1136 C 0.16033 0.27867 0.87022 0.0
C1137 C 0.14824 0.25623 0.85534 0.0
C1138 C 0.17423 0.30827 0.86409 0.0
C1139 C 0.17569 0.31564 0.84308 0.0
C1140 C 0.16122 0.29305 0.82851 0.0
C1141 C 0.14779 0.26361 0.83458 0.0
H1142 H 0.73928 0.9274 0.81736 0.0
H1143 H 0.72218 0.86997 0.8698 0.0
H1144 H 0.6879 0.89707 0.80648 0.0
H1145 H 0.67089 0.83989 0.85888 0.0
H1146 H 0.58045 0.83797 0.85176 0.0
H1147 H 0.6326 0.8575 0.8588 0.0
H1148 H 0.64691 0.84296 0.79531 0.0
H1149 H 0.594 0.82271 0.78822 0.0
C1150 C 0.7247 0.90805 0.82635 0.0
C1151 C 0.73461 0.90125 0.84457 0.0
C1152 C 0.69542 0.89059 0.82001 0.0
C1153 C 0.67557 0.86629 0.83191 0.0
C1154 C 0.68585 0.85862 0.84952 0.0
C1155 C 0.71517 0.87584 0.85573 0.0
C1156 C 0.59462 0.83864 0.83932 0.0
C1157 C 0.58334 0.82904 0.81942 0.0
C1158 C 0.62439 0.84957 0.84341 0.0
C1159 C 0.64362 0.85157 0.82761 0.0
C1160 C 0.63237 0.84153 0.80772 0.0
C1161 C 0.60226 0.82995 0.8037 0.0
H1162 H 0.11575 0.7159 0.80759 0.0
H1163 H 0.20226 0.78585 0.82532 0.0
H1164 H 0.09506 0.74727 0.81554 0.0
H1165 H 0.18137 0.8169 0.83464 0.0
H1166 H 0.13561 0.8725 0.83575 0.0
H1167 H 0.15929 0.84468 0.82447 0.0
H1168 H 0.08298 0.76382 0.84516 0.0
H1169 H 0.05899 0.79136 0.85514 0.0
C1170 C 0.1303 0.73809 0.8132 0.0
C1171 C 0.16048 0.74849 0.81599 0.0
C1172 C 0.11846 0.756 0.81798 0.0
C1173 C 0.13639 0.78441 0.82624 0.0
C1174 C 0.16691 0.79523 0.82822 0.0
C1175 C 0.1789 0.77747 0.82294 0.0
C1176 C 0.12412 0.84878 0.83792 0.0
C1177 C 0.09545 0.83397 0.8461 0.0
C1178 C 0.13764 0.83284 0.83151 0.0
C1179 C 0.12286 0.80189 0.83354 0.0
C1180 C 0.09466 0.78745 0.84264 0.0
C1181 C 0.08099 0.80325 0.8486 0.0
H1182 H 0.93047 0.45962 0.49157 0.0
H1183 H 0.93763 0.54406 0.47931 0.0
H1184 H 0.9826 0.48451 0.50137 0.0
H1185 H 0.98981 0.56888 0.48773 0.0
H1186 H 0.07043 0.60927 0.52622 0.0
H1187 H 0.01851 0.58071 0.51724 0.0
H1188 H 0.03266 0.51239 0.49151 0.0
H1189 H 0.08453 0.5405 0.50181 0.0
C1190 C 0.94346 0.48346 0.49049 0.0
C1191 C 0.93017 0.50003 0.48491 0.0
C1192 C 0.97329 0.49775 0.49609 0.0
C1193 C 0.99035 0.5288 0.49579 0.0
C1194 C 0.9772 0.54505 0.48891 0.0
C1195 C 0.94737 0.53085 0.48382 0.0
C1196 C 0.06229 0.58795 0.51889 0.0
C1197 C 0.08136 0.57708 0.51459 0.0
C1198 C 0.0326 0.57169 0.51349 0.0
C1199 C 0.02144 0.54452 0.50313 0.0
C1200 C 0.04041 0.53315 0.49952 0.0
C1201 C 0.0701 0.54921 0.50538 0.0
H1202 H 0.41237 0.48232 0.48118 0.0
H1203 H 0.44526 0.4995 0.54371 0.0
H1204 H 0.44215 0.45951 0.47366 0.0
H1205 H 0.47475 0.47589 0.5362 0.0
H1206 H 0.47437 0.38694 0.51734 0.0
H1207 H 0.45478 0.41924 0.52602 0.0
H1208 H 0.49889 0.4736 0.47309 0.0
H1209 H 0.51919 0.44152 0.46453 0.0
C1210 C 0.42615 0.48137 0.49327 0.0
C1211 C 0.42639 0.4924 0.51308 0.0
C1212 C 0.44335 0.46857 0.4889 0.0
C1213 C 0.46068 0.46606 0.50435 0.0
C1214 C 0.46151 0.47767 0.52406 0.0
C1215 C 0.44474 0.49114 0.52833 0.0
C1216 C 0.48009 0.40591 0.50762 0.0
C1217 C 0.49806 0.41163 0.49014 0.0
C1218 C 0.46913 0.42451 0.51274 0.0
C1219 C 0.47549 0.44887 0.50026 0.0
C1220 C 0.49381 0.45493 0.48294 0.0
C1221 C 0.50534 0.43663 0.47806 0.0
H1222 H 0.613 0.05522 0.46477 0.0
H1223 H 0.54619 0.07472 0.48564 0.0
H1224 H 0.5853 0.00601 0.47946 0.0
H1225 H 0.51883 0.02562 0.5013 0.0
H1226 H 0.46886 0.92357 0.5131 0.0
H1227 H 0.49102 0.97235 0.49688 0.0
H1228 H 0.57772 0.98832 0.5139 0.0
H1229 H 0.55571 0.93946 0.52917 0.0
C1230 C 0.59214 0.04876 0.47234 0.0
C1231 C 0.58177 0.0687 0.47423 0.0
C1232 C 0.57644 0.02072 0.48098 0.0
C1233 C 0.55031 0.01222 0.49212 0.0
C1234 C 0.53892 0.03153 0.49288 0.0
C1235 C 0.5545 0.05958 0.48388 0.0
C1236 C 0.4926 0.93783 0.51363 0.0
C1237 C 0.51066 0.92777 0.52216 0.0
C1238 C 0.50529 0.96568 0.50431 0.0
C1239 C 0.53617 0.98389 0.50361 0.0
C1240 C 0.55392 0.97444 0.5135 0.0
C1241 C 0.54133 0.9466 0.52248 0.0
H1242 H 0.07745 0.14717 0.08304 0.0
H1243 H 0.09249 0.17456 0.14696 0.0
H1244 H 0.02444 0.12341 0.08875 0.0
H1245 H 0.03945 0.15037 0.15259 0.0
H1246 H 0.93681 0.10936 0.15053 0.0
H1247 H 0.98927 0.14433 0.14402 0.0
H1248 H 0.99592 0.07719 0.10955 0.0
H1249 H 0.94426 0.04258 0.11604 0.0
C1250 C 0.06958 0.14886 0.09815 0.0
C1251 C 0.08926 0.16195 0.11469 0.0
C1252 C 0.03918 0.13506 0.10144 0.0
C1253 C 0.02792 0.13431 0.12127 0.0
C1254 C 0.04754 0.1504 0.1372 0.0
C1255 C 0.07797 0.16418 0.13393 0.0
C1256 C 0.94967 0.10203 0.14185 0.0
C1257 C 0.93635 0.07327 0.13371 0.0
C1258 C 0.97955 0.12209 0.13798 0.0
C1259 C 0.99638 0.11368 0.1258 0.0
C1260 C 0.98326 0.0846 0.11842 0.0
C1261 C 0.9537 0.06465 0.12237 0.0
H1262 H 0.83923 0.93014 0.113 0.0
H1263 H 0.85401 0.95986 0.17638 0.0
H1264 H 0.85225 0.89302 0.12151 0.0
H1265 H 0.86624 0.92192 0.18506 0.0
H1266 H 0.93971 0.89508 0.17528 0.0
H1267 H 0.90922 0.91813 0.17756 0.0
H1268 H 0.84337 0.84928 0.13893 0.0
H1269 H 0.87468 0.82715 0.13605 0.0
C1270 C 0.84444 0.92824 0.12889 0.0
C1271 C 0.84613 0.94841 0.14388 0.0
C1272 C 0.8517 0.90669 0.13386 0.0
C1273 C 0.86055 0.90457 0.154 0.0
C1274 C 0.85998 0.92325 0.16935 0.0
C1275 C 0.85287 0.94495 0.16435 0.0
C1276 C 0.91807 0.88417 0.16816 0.0
C1277 C 0.90949 0.85956 0.15542 0.0
C1278 C 0.90056 0.8974 0.16936 0.0
C1279 C 0.87416 0.88597 0.15795 0.0
C1280 C 0.86394 0.85908 0.14743 0.0
C1281 C 0.88163 0.84617 0.146 0.0
H1282 H 0.08284 0.08957 0.1425 0.0
H1283 H 0.15993 0.08016 0.14728 0.0
H1284 H 0.05108 0.03614 0.1454 0.0
H1285 H 0.12813 0.02639 0.15013 0.0
H1286 H 0.05315 0.92871 0.16381 0.0
H1287 H 0.08517 0.98167 0.16988 0.0
H1288 H 0.04737 0.00055 0.11696 0.0
H1289 H 0.01562 0.94801 0.11072 0.0
C1290 C 0.09287 0.07605 0.1452 0.0
C1291 C 0.12364 0.08872 0.14502 0.0
C1292 C 0.07478 0.04554 0.14655 0.0
C1293 C 0.08723 0.02721 0.14761 0.0
C1294 C 0.11803 0.04009 0.1494 0.0
C1295 C 0.1362 0.07078 0.14799 0.0
C1296 C 0.05179 0.94416 0.15339 0.0
C1297 C 0.03178 0.93407 0.13675 0.0
C1298 C 0.0701 0.97442 0.15692 0.0
C1299 C 0.06835 0.99509 0.1441 0.0
C1300 C 0.04872 0.98503 0.12733 0.0
C1301 C 0.03074 0.9549 0.12364 0.0
H1302 H 0.11989 0.94223 0.84736 0.0
H1303 H 0.04531 0.95115 0.82976 0.0
H1304 H 0.15247 0.99559 0.84358 0.0
H1305 H 0.07767 0.00415 0.82539 0.0
H1306 H 0.13735 0.09866 0.82119 0.0
H1307 H 0.12291 0.04885 0.80992 0.0
H1308 H 0.14819 0.03096 0.86916 0.0
H1309 H 0.16263 0.08074 0.8806 0.0
C1310 C 0.11086 0.95542 0.8414 0.0
C1311 C 0.08031 0.94287 0.83865 0.0
C1312 C 0.1294 0.98591 0.83946 0.0
C1313 C 0.11754 0.00397 0.83438 0.0
C1314 C 0.08749 0.99075 0.82912 0.0
C1315 C 0.06893 0.9604 0.83149 0.0
C1316 C 0.14061 0.08443 0.83168 0.0
C1317 C 0.1504 0.09343 0.85204 0.0
C1318 C 0.13241 0.05594 0.82513 0.0
C1319 C 0.13416 0.03602 0.83871 0.0
C1320 C 0.14684 0.04597 0.85829 0.0
C1321 C 0.1549 0.07445 0.86491 0.0
H1322 H 0.05248 0.15205 0.85476 0.0
H1323 H 0.05359 0.08291 0.89058 0.0
H1324 H -0.00087 0.12859 0.85991 0.0
H1325 H 0.00063 0.05942 0.89537 0.0
H1326 H 0.91027 0.0344 0.91606 0.0
H1327 H 0.96362 0.0659 0.9132 0.0
H1328 H 0.95399 0.08464 0.84971 0.0
H1329 H 0.90079 0.05399 0.85265 0.0
C1330 C 0.04135 0.13175 0.86355 0.0
C1331 C 0.05734 0.11941 0.87226 0.0
C1332 C 0.0108 0.11835 0.86655 0.0
C1333 C 0.99566 0.09234 0.87829 0.0
C1334 C 0.01166 0.07984 0.8867 0.0
C1335 C 0.04206 0.09319 0.88374 0.0
C1336 C 0.91943 0.04578 0.90163 0.0
C1337 C 0.90117 0.04125 0.88451 0.0
C1338 C 0.95007 0.06361 0.89993 0.0
C1339 C 0.96311 0.07729 0.88109 0.0
C1340 C 0.94472 0.07449 0.86445 0.0
C1341 C 0.91412 0.05674 0.86615 0.0
H1342 H 0.95609 0.8833 0.90359 0.0
H1343 H 0.95648 0.87146 0.83759 0.0
H1344 H 0.9152 0.89239 0.90002 0.0
H1345 H 0.91505 0.88043 0.83408 0.0
H1346 H 0.87761 0.94708 0.84101 0.0
H1347 H 0.90909 0.92487 0.83883 0.0
H1348 H 0.86285 0.86859 0.8906 0.0
H1349 H 0.832 0.89111 0.89297 0.0
C1350 C 0.94719 0.8822 0.88833 0.0
C1351 C 0.95969 0.87681 0.87088 0.0
C1352 C 0.92355 0.8872 0.88629 0.0
C1353 C 0.91183 0.887 0.86676 0.0
C1354 C 0.92373 0.88082 0.84931 0.0
C1355 C 0.94735 0.87557 0.85136 0.0
C1356 C 0.87367 0.92936 0.8515 0.0
C1357 C 0.85288 0.92124 0.86746 0.0
C1358 C 0.89164 0.91662 0.85025 0.0
C1359 C 0.88882 0.89547 0.86486 0.0
C1360 C 0.866 0.88537 0.87947 0.0
C1361 C 0.84832 0.89824 0.88082 0.0
H1362 H 0.73706 0.47483 0.45679 0.0
H1363 H 0.75715 0.45472 0.51725 0.0
H1364 H 0.68591 0.4558 0.46734 0.0
H1365 H 0.70581 0.43521 0.52754 0.0
H1366 H 0.61018 0.3523 0.50606 0.0
H1367 H 0.66309 0.38664 0.50942 0.0
H1368 H 0.64926 0.45933 0.49475 0.0
H1369 H 0.59598 0.42486 0.49215 0.0
C1370 C 0.73078 0.46713 0.47248 0.0
C1371 C 0.75104 0.46588 0.48606 0.0
C1372 C 0.70156 0.45646 0.47857 0.0
C1373 C 0.69205 0.44402 0.49823 0.0
C1374 C 0.71273 0.44477 0.51232 0.0
C1375 C 0.74208 0.45592 0.50637 0.0
C1376 C 0.61834 0.37579 0.50471 0.0
C1377 C 0.59926 0.38615 0.49914 0.0
C1378 C 0.64855 0.39543 0.50657 0.0
C1379 C 0.66012 0.42556 0.5023 0.0
C1380 C 0.64074 0.43621 0.49826 0.0
C1381 C 0.61035 0.4166 0.49695 0.0
H1382 H 0.51982 0.2445 0.45021 0.0
H1383 H 0.53918 0.27928 0.51228 0.0
H1384 H 0.54094 0.21321 0.45813 0.0
H1385 H 0.56101 0.2486 0.51985 0.0
H1386 H 0.64603 0.24164 0.49227 0.0
H1387 H 0.61091 0.25894 0.49756 0.0
H1388 H 0.53863 0.171 0.486 0.0
H1389 H 0.57383 0.15338 0.48161 0.0
C1390 C 0.52773 0.24479 0.46569 0.0
C1391 C 0.52806 0.26453 0.48054 0.0
C1392 C 0.53967 0.22681 0.47025 0.0
C1393 C 0.55255 0.22865 0.48958 0.0
C1394 C 0.55101 0.24675 0.50489 0.0
C1395 C 0.53848 0.26426 0.5005 0.0
C1396 C 0.62259 0.22576 0.49198 0.0
C1397 C 0.61251 0.1962 0.48679 0.0
C1398 C 0.60253 0.23562 0.49493 0.0
C1399 C 0.57218 0.21622 0.49216 0.0
C1400 C 0.56195 0.18621 0.48838 0.0
C1401 C 0.58203 0.17614 0.48605 0.0
H1402 H 0.84605 0.39855 0.47953 0.0
H1403 H 0.76028 0.37803 0.50208 0.0
H1404 H 0.82883 0.34567 0.47609 0.0
H1405 H 0.7435 0.3253 0.49962 0.0
H1406 H 0.72565 0.23201 0.4993 0.0
H1407 H 0.75783 0.28226 0.51141 0.0
H1408 H 0.78152 0.31183 0.44862 0.0
H1409 H 0.74863 0.26168 0.43622 0.0
C1410 C 0.82412 0.3827 0.48491 0.0
C1411 C 0.8045 0.3921 0.49133 0.0
C1412 C 0.81424 0.35257 0.48276 0.0
C1413 C 0.78496 0.33164 0.48766 0.0
C1414 C 0.76631 0.3411 0.49601 0.0
C1415 C 0.77588 0.37116 0.49754 0.0
C1416 C 0.73829 0.24895 0.48802 0.0
C1417 C 0.73409 0.24289 0.46672 0.0
C1418 C 0.75676 0.27769 0.49504 0.0
C1419 C 0.77197 0.30069 0.48093 0.0
C1420 C 0.77015 0.29427 0.45977 0.0
C1421 C 0.75123 0.2656 0.45269 0.0
H1422 H 0.74933 0.2641 0.17477 0.0
H1423 H 0.67417 0.27218 0.19295 0.0
H1424 H 0.78179 0.31742 0.18036 0.0
H1425 H 0.70637 0.32474 0.19872 0.0
H1426 H 0.771 0.40151 0.23582 0.0
H1427 H 0.74723 0.34924 0.22744 0.0
H1428 H 0.78883 0.37014 0.16758 0.0
H1429 H 0.8128 0.42277 0.17578 0.0
C1430 C 0.73968 0.27736 0.17933 0.0
C1431 C 0.70931 0.26403 0.18359 0.0
C1432 C 0.75824 0.3077 0.18272 0.0
C1433 C 0.74655 0.32481 0.19049 0.0
C1434 C 0.71596 0.31181 0.19321 0.0
C1435 C 0.69753 0.2818 0.18971 0.0
C1436 C 0.77574 0.39512 0.22105 0.0
C1437 C 0.79327 0.41644 0.2063 0.0
C1438 C 0.76199 0.36517 0.21623 0.0
C1439 C 0.76574 0.35589 0.19671 0.0
C1440 C 0.78549 0.37687 0.18268 0.0
C1441 C 0.79914 0.40696 0.18743 0.0
H1442 H 0.73349 0.43037 0.16156 0.0
H1443 H 0.73524 0.51108 0.17797 0.0
H1444 H 0.67987 0.40552 0.15795 0.0
H1445 H 0.68146 0.48601 0.17518 0.0
H1446 H 0.58062 0.36953 0.15461 0.0
H1447 H 0.6305 0.40476 0.14277 0.0
H1448 H 0.6528 0.44243 0.20383 0.0
H1449 H 0.60326 0.40681 0.2159 0.0
C1450 C 0.72255 0.44325 0.16301 0.0
C1451 C 0.73826 0.47256 0.16988 0.0
C1452 C 0.69186 0.429 0.16117 0.0
C1453 C 0.67668 0.44384 0.16661 0.0
C1454 C 0.69277 0.47418 0.17093 0.0
C1455 C 0.72351 0.48858 0.17228 0.0
C1456 C 0.59595 0.38575 0.16541 0.0
C1457 C 0.58813 0.38531 0.18625 0.0
C1458 C 0.62441 0.40587 0.15858 0.0
C1459 C 0.64522 0.42638 0.17233 0.0
C1460 C 0.6369 0.4271 0.19285 0.0
C1461 C 0.60868 0.40659 0.1998 0.0
H1462 H 0.56929 0.28764 0.16173 0.0
H1463 H 0.48273 0.22312 0.18346 0.0
H1464 H 0.58203 0.249 0.15757 0.0
H1465 H 0.49579 0.1843 0.18003 0.0
H1466 H 0.60124 0.17843 0.14977 0.0
H1467 H 0.56923 0.19816 0.14104 0.0
H1468 H 0.53703 0.18421 0.20364 0.0
H1469 H 0.56921 0.16471 0.21262 0.0
C1470 C 0.55258 0.2649 0.16468 0.0
C1471 C 0.525 0.25811 0.17263 0.0
C1472 C 0.55981 0.24278 0.16235 0.0
C1473 C 0.53984 0.21369 0.1685 0.0
C1474 C 0.51142 0.20652 0.17505 0.0
C1475 C 0.5039 0.22862 0.17684 0.0
C1476 C 0.58668 0.17862 0.16158 0.0
C1477 C 0.58857 0.17095 0.18211 0.0
C1478 C 0.56828 0.18985 0.15649 0.0
C1479 C 0.55108 0.19309 0.17173 0.0
C1480 C 0.55004 0.18184 0.19157 0.0
C1481 C 0.56863 0.17081 0.19674 0.0
H1482 H 0.25207 0.75854 0.82985 0.0
H1483 H 0.27058 0.68806 0.8408 0.0
H1484 H 0.30455 0.79484 0.8342 0.0
H1485 H 0.32263 0.72413 0.84585 0.0
H1486 H 0.4147 0.79228 0.85484 0.0
H1487 H 0.36329 0.77117 0.86525 0.0
H1488 H 0.34334 0.79697 0.80697 0.0
H1489 H 0.39457 0.81758 0.79623 0.0
C1490 C 0.2671 0.75096 0.83438 0.0
C1491 C 0.25751 0.72065 0.8351 0.0
C1492 C 0.29708 0.77167 0.83669 0.0
C1493 C 0.31753 0.76222 0.84031 0.0
C1494 C 0.30727 0.73202 0.84332 0.0
C1495 C 0.27752 0.71136 0.84048 0.0
C1496 C 0.39962 0.79429 0.84443 0.0
C1497 C 0.40858 0.80599 0.82447 0.0
C1498 C 0.3702 0.78223 0.85048 0.0
C1499 C 0.34941 0.78226 0.83685 0.0
C1500 C 0.359 0.79682 0.81781 0.0
C1501 C 0.38831 0.80845 0.81161 0.0
H1502 H 0.22549 0.48318 0.817 0.0
H1503 H 0.29921 0.5699 0.82936 0.0
H1504 H 0.19146 0.50224 0.82133 0.0
H1505 H 0.26527 0.58872 0.83453 0.0
H1506 H 0.17802 0.57767 0.78421 0.0
H1507 H 0.19629 0.54443 0.7936 0.0
H1508 H 0.21571 0.58118 0.85499 0.0
H1509 H 0.1967 0.61389 0.84587 0.0
C1510 C 0.23418 0.50587 0.82187 0.0
C1511 C 0.26476 0.52513 0.82314 0.0
C1512 C 0.21479 0.51676 0.82419 0.0
C1513 C 0.22584 0.54683 0.82833 0.0
C1514 C 0.25624 0.56534 0.83167 0.0
C1515 C 0.27563 0.55464 0.82878 0.0
C1516 C 0.1851 0.57783 0.79993 0.0
C1517 C 0.18614 0.59847 0.81425 0.0
C1518 C 0.19539 0.55873 0.80534 0.0
C1519 C 0.20735 0.56039 0.825 0.0
C1520 C 0.20638 0.57945 0.83979 0.0
C1521 C 0.19546 0.59809 0.83454 0.0
H1522 H 0.49699 0.73169 0.81305 0.0
H1523 H 0.40839 0.71265 0.82658 0.0
H1524 H 0.47884 0.67853 0.80888 0.0
H1525 H 0.39057 0.65973 0.82321 0.0
H1526 H 0.38197 0.56661 0.83208 0.0
H1527 H 0.41308 0.61835 0.84156 0.0
H1528 H 0.42485 0.64285 0.77736 0.0
H1529 H 0.39298 0.59115 0.76759 0.0
C1530 C 0.47395 0.71603 0.81606 0.0
C1531 C 0.45404 0.72595 0.82042 0.0
C1532 C 0.46361 0.68583 0.8135 0.0
C1533 C 0.43347 0.6654 0.81586 0.0
C1534 C 0.41397 0.67525 0.82155 0.0
C1535 C 0.42412 0.70535 0.82356 0.0
C1536 C 0.39176 0.58279 0.81987 0.0
C1537 C 0.3845 0.57472 0.79904 0.0
C1538 C 0.40964 0.61237 0.82538 0.0
C1539 C 0.4212 0.63423 0.81015 0.0
C1540 C 0.41628 0.62611 0.78929 0.0
C1541 C 0.39799 0.59656 0.78375 0.0
H1542 H 0.47874 0.73488 0.56604 0.0
H1543 H 0.48511 0.76055 0.50199 0.0
H1544 H 0.46235 0.6842 0.55532 0.0
H1545 H 0.46804 0.70979 0.49153 0.0
H1546 H 0.37881 0.6127 0.49871 0.0
H1547 H 0.41264 0.66595 0.50138 0.0
H1548 H 0.47682 0.64986 0.53152 0.0
H1549 H 0.44328 0.59644 0.52801 0.0
C1550 C 0.47742 0.72995 0.54972 0.0
C1551 C 0.48281 0.75171 0.53491 0.0
C1552 C 0.46817 0.70098 0.5436 0.0
C1553 C 0.46386 0.69325 0.52262 0.0
C1554 C 0.47122 0.71532 0.50778 0.0
C1555 C 0.48096 0.74436 0.51385 0.0
C1556 C 0.40075 0.62066 0.50492 0.0
C1557 C 0.40884 0.60082 0.51283 0.0
C1558 C 0.42002 0.651 0.50654 0.0
C1559 C 0.44724 0.66183 0.51666 0.0
C1560 C 0.45601 0.64194 0.52354 0.0
C1561 C 0.43702 0.61153 0.52138 0.0
H1562 H 0.2524 0.71542 0.49229 0.0
H1563 H 0.27091 0.74128 0.55632 0.0
H1564 H 0.30409 0.749 0.4837 0.0
H1565 H 0.32246 0.77552 0.54744 0.0
H1566 H 0.41228 0.84219 0.52265 0.0
H1567 H 0.35892 0.82274 0.52005 0.0
H1568 H 0.34663 0.73774 0.5024 0.0
H1569 H 0.39967 0.75679 0.50599 0.0
C1570 C 0.26717 0.72909 0.5044 0.0
C1571 C 0.25766 0.72549 0.52506 0.0
C1572 C 0.29672 0.74827 0.49942 0.0
C1573 C 0.31699 0.76476 0.5149 0.0
C1574 C 0.30702 0.76323 0.53522 0.0
C1575 C 0.27761 0.74355 0.5403 0.0
C1576 C 0.39829 0.81982 0.51718 0.0
C1577 C 0.40985 0.80096 0.51426 0.0
C1578 C 0.36785 0.80869 0.51588 0.0
C1579 C 0.34893 0.77888 0.51097 0.0
C1580 C 0.36093 0.76093 0.50592 0.0
C1581 C 0.39119 0.77179 0.50786 0.0
H1582 H 0.30192 0.54107 0.48111 0.0
H1583 H 0.25698 0.51631 0.53993 0.0
H1584 H 0.27046 0.56072 0.47031 0.0
H1585 H 0.22523 0.53542 0.52881 0.0
H1586 H 0.16735 0.5668 0.50456 0.0
H1587 H 0.18691 0.53314 0.50104 0.0
H1588 H 0.27333 0.60733 0.48825 0.0
H1589 H 0.25398 0.64085 0.4925 0.0
C1590 C 0.28479 0.53899 0.49152 0.0
C1591 C 0.28226 0.52755 0.51155 0.0
C1592 C 0.26677 0.55021 0.48526 0.0
C1593 C 0.24548 0.54959 0.49873 0.0
C1594 C 0.24127 0.53589 0.51805 0.0
C1595 C 0.25962 0.52516 0.52448 0.0
C1596 C 0.19011 0.57565 0.49983 0.0
C1597 C 0.20922 0.60629 0.49866 0.0
C1598 C 0.20135 0.55645 0.49806 0.0
C1599 C 0.23162 0.56771 0.49452 0.0
C1600 C 0.24986 0.59806 0.4908 0.0
C1601 C 0.2388 0.61725 0.49311 0.0
H1602 H 0.15752 0.16852 0.03033 0.0
H1603 H 0.24472 0.23991 0.04567 0.0
H1604 H 0.17095 0.17394 0.99416 0.0
H1605 H 0.25797 0.24559 0.00873 0.0
H1606 H 0.22268 0.24419 0.93248 0.0
H1607 H 0.22756 0.25236 0.96988 0.0
H1608 H 0.2188 0.1666 0.97842 0.0
H1609 H 0.21381 0.1583 0.94128 0.0
C1610 C 0.17951 0.18564 0.02599 0.0
C1611 C 0.2002 0.20351 0.04097 0.0
C1612 C 0.18715 0.18868 0.00524 0.0
C1613 C 0.21559 0.20979 0.99883 0.0
C1614 C 0.23595 0.22902 0.01345 0.0
C1615 C 0.22831 0.22584 0.03448 0.0
C1616 C 0.22348 0.22781 0.94225 0.0
C1617 C 0.21768 0.2005 0.93402 0.0
C1618 C 0.22615 0.23247 0.96364 0.0
C1619 C 0.22329 0.20998 0.97689 0.0
C1620 C 0.2211 0.18424 0.96844 0.0
C1621 C 0.21834 0.17955 0.9472 0.0
H1622 H 0.76744 0.96847 0.95353 0.0
H1623 H 0.84535 0.05214 0.96702 0.0
H1624 H 0.75055 0.96572 0.98896 0.0
H1625 H 0.82799 0.04951 0.00233 0.0
H1626 H 0.78843 0.04099 0.06461 0.0
H1627 H 0.78571 0.04466 0.02707 0.0
H1628 H 0.77852 0.95919 0.02029 0.0
H1629 H 0.78209 0.95599 0.05763 0.0
C1630 C 0.78048 0.98681 0.96379 0.0
C1631 C 0.80805 0.01035 0.95752 0.0
C1632 C 0.77076 0.98513 0.9841 0.0
C1633 C 0.78804 0.00727 0.99839 0.0
C1634 C 0.81411 0.03221 0.99159 0.0
C1635 C 0.82411 0.03366 0.97137 0.0
C1636 C 0.7848 0.02241 0.05513 0.0
C1637 C 0.78514 0.99804 0.06395 0.0
C1638 C 0.78359 0.02466 0.03367 0.0
C1639 C 0.78199 0.00226 0.02081 0.0
C1640 C 0.77939 0.97663 0.02983 0.0
C1641 C 0.78131 0.97471 0.05119 0.0
H1642 H 0.03935 0.81706 0.9532 0.0
H1643 H 0.01027 0.88109 0.95615 0.0
H1644 H 0.03938 0.81509 0.99102 0.0
H1645 H 0.00921 0.87839 0.99341 0.0
H1646 H 0.00194 0.80019 0.05924 0.0
H1647 H 0.00872 0.80029 0.02183 0.0
H1648 H 0.04337 0.89466 0.02085 0.0
H1649 H 0.03498 0.89402 0.05781 0.0
C1650 C 0.03252 0.8303 0.96192 0.0
C1651 C 0.02508 0.84943 0.95178 0.0
C1652 C 0.0326 0.82924 0.98354 0.0
C1653 C 0.02502 0.84714 0.9953 0.0
C1654 C 0.01625 0.86512 0.98495 0.0
C1655 C 0.01651 0.86642 0.96353 0.0
C1656 C 0.01183 0.82099 0.051 0.0
C1657 C 0.01793 0.8471 0.06123 0.0
C1658 C 0.01561 0.82107 0.02959 0.0
C1659 C 0.02584 0.84735 0.01824 0.0
C1660 C 0.03449 0.87385 0.02898 0.0
C1661 C 0.03014 0.87363 0.05018 0.0
H1662 H 0.79517 0.51977 0.28874 0.0
H1663 H 0.8645 0.49768 0.28651 0.0
H1664 H 0.80124 0.52641 0.32582 0.0
H1665 H 0.8704 0.50424 0.32402 0.0
H1666 H 0.88143 0.53431 0.39225 0.0
H1667 H 0.88298 0.54047 0.35464 0.0
H1668 H 0.78791 0.48715 0.35245 0.0
H1669 H 0.78637 0.48095 0.38965 0.0
C1670 C 0.81195 0.5166 0.29614 0.0
C1671 C 0.82897 0.50759 0.28473 0.0
C1672 C 0.81541 0.52046 0.3174 0.0
C1673 C 0.83597 0.51544 0.32782 0.0
C1674 C 0.85443 0.50836 0.31633 0.0
C1675 C 0.85096 0.50446 0.29491 0.0
C1676 C 0.86088 0.5245 0.38372 0.0
C1677 C 0.83376 0.5072 0.39384 0.0
C1678 C 0.86181 0.52778 0.36223 0.0
C1679 C 0.83559 0.51429 0.35066 0.0
C1680 C 0.80847 0.4981 0.36097 0.0
C1681 C 0.80758 0.49447 0.38228 0.0
H1682 H 0.55506 0.34614 0.28585 0.0
H1683 H 0.46514 0.32799 0.28127 0.0
H1684 H 0.55103 0.34356 0.32319 0.0
H1685 H 0.46059 0.32417 0.31881 0.0
H1686 H 0.47367 0.34429 0.38918 0.0
H1687 H 0.475 0.34857 0.35157 0.0
H1688 H 0.52808 0.30651 0.34836 0.0
H1689 H 0.5277 0.30343 0.38572 0.0
C1690 C 0.53444 0.34173 0.29286 0.0
C1691 C 0.51039 0.33714 0.2806 0.0
C1692 C 0.53197 0.3399 0.3143 0.0
C1693 C 0.50524 0.33296 0.32409 0.0
C1694 C 0.48154 0.32962 0.31185 0.0
C1695 C 0.48414 0.33183 0.29032 0.0
C1696 C 0.4852 0.33557 0.38035 0.0
C1697 C 0.50074 0.3237 0.39039 0.0
C1698 C 0.48603 0.33806 0.35879 0.0
C1699 C 0.50218 0.32847 0.34688 0.0
C1700 C 0.51623 0.31505 0.357 0.0
C1701 C 0.51572 0.31293 0.37844 0.0
H1702 H 0.66315 0.19665 0.36808 0.0
H1703 H 0.68455 0.12814 0.37975 0.0
H1704 H 0.65345 0.18188 0.33228 0.0
H1705 H 0.67446 0.11303 0.34339 0.0
H1706 H 0.68636 0.1278 0.2697 0.0
H1707 H 0.69297 0.13148 0.30721 0.0
H1708 H 0.61504 0.13947 0.31344 0.0
H1709 H 0.60903 0.13666 0.27613 0.0
C1710 C 0.66581 0.17838 0.363 0.0
C1711 C 0.67436 0.1634 0.37686 0.0
C1712 C 0.65998 0.16973 0.34245 0.0
C1713 C 0.66241 0.14576 0.3351 0.0
C1714 C 0.67218 0.13144 0.34867 0.0
C1715 C 0.67805 0.14016 0.36943 0.0
C1716 C 0.67003 0.12914 0.27919 0.0
C1717 C 0.64727 0.13211 0.27007 0.0
C1718 C 0.67391 0.13143 0.30066 0.0
C1719 C 0.65498 0.13657 0.31321 0.0
C1720 C 0.63045 0.13632 0.30413 0.0
C1721 C 0.62678 0.13435 0.28279 0.0
H1722 H 0.46786 0.79528 0.63131 0.0
H1723 H 0.54275 0.88291 0.62304 0.0
H1724 H 0.46796 0.80432 0.66798 0.0
H1725 H 0.54265 0.89208 0.66016 0.0
H1726 H 0.54456 0.87498 0.73283 0.0
H1727 H 0.54975 0.87514 0.69526 0.0
H1728 H 0.4553 0.83578 0.68878 0.0
H1729 H 0.45011 0.83508 0.72609 0.0
C1730 C 0.48448 0.81647 0.63733 0.0
C1731 C 0.5051 0.83849 0.62419 0.0
C1732 C 0.48437 0.82175 0.65837 0.0
C1733 C 0.50482 0.8492 0.66688 0.0
C1734 C 0.5265 0.87078 0.65399 0.0
C1735 C 0.52661 0.86548 0.63278 0.0
C1736 C 0.52506 0.86732 0.72331 0.0
C1737 C 0.49689 0.85475 0.73235 0.0
C1738 C 0.52803 0.86726 0.70182 0.0
C1739 C 0.50286 0.85473 0.68913 0.0
C1740 C 0.47504 0.84483 0.69819 0.0
C1741 C 0.47207 0.84471 0.71954 0.0
H1742 H 0.17581 0.70349 0.61476 0.0
H1743 H 0.1816 0.62386 0.61571 0.0
H1744 H 0.1687 0.69992 0.65235 0.0
H1745 H 0.17427 0.62029 0.65269 0.0
H1746 H 0.20756 0.65017 0.71818 0.0
H1747 H 0.20727 0.65101 0.68079 0.0
H1748 H 0.13438 0.66777 0.6817 0.0
H1749 H 0.13476 0.66718 0.71957 0.0
C1750 C 0.17524 0.68513 0.6229 0.0
C1751 C 0.17987 0.66433 0.6123 0.0
C1752 C 0.17102 0.683 0.64436 0.0
C1753 C 0.17136 0.66005 0.65545 0.0
C1754 C 0.17451 0.63855 0.64463 0.0
C1755 C 0.17873 0.64066 0.62339 0.0
C1756 C 0.19128 0.65383 0.71049 0.0
C1757 C 0.17112 0.65853 0.72186 0.0
C1758 C 0.19105 0.6542 0.68903 0.0
C1759 C 0.17074 0.65937 0.67832 0.0
C1760 C 0.15037 0.66388 0.68959 0.0
C1761 C 0.15042 0.66326 0.71122 0.0
H1762 H 0.28854 0.49453 0.60665 0.0
H1763 H 0.34172 0.45267 0.60524 0.0
H1764 H 0.28703 0.49192 0.6441 0.0
H1765 H 0.34098 0.4508 0.64303 0.0
H1766 H 0.32888 0.52729 0.70565 0.0
H1767 H 0.32571 0.52064 0.6686 0.0
H1768 H 0.31291 0.43291 0.67603 0.0
H1769 H 0.31662 0.43982 0.71359 0.0
C1770 C 0.29937 0.48415 0.61438 0.0
C1771 C 0.31536 0.47394 0.60305 0.0
C1772 C 0.29881 0.48296 0.63585 0.0
C1773 C 0.3146 0.47192 0.64659 0.0
C1774 C 0.32866 0.4595 0.63523 0.0
C1775 C 0.32897 0.46044 0.61359 0.0
C1776 C 0.32552 0.50658 0.69948 0.0
C1777 C 0.32272 0.48398 0.71263 0.0
C1778 C 0.32344 0.50265 0.67818 0.0
C1779 C 0.3183 0.47594 0.66934 0.0
C1780 C 0.31673 0.45369 0.68238 0.0
C1781 C 0.31892 0.45768 0.70386 0.0
loop_
_geom_bond_atom_site_label_1
_geom_bond_atom_site_label_2
_geom_bond_distance
_geom_bond_site_symmetry_2
_ccdc_geom_bond_type
Co0 O2 2.143 . S
Co0 O8 2.074 . S
Co0 O11 2.093 . S
Co0 O24 2.097 . S
Co0 N41 2.151 . S
Co0 N49 2.214 . S
Co1 O2 2.160 . S
Co1 O7 2.058 . S
Co1 O17 2.057 . S
Co1 O32 2.037 . S
Co1 N36 2.145 . S
Co1 N57 2.257 . S
O2 Co0 2.143 . S
O2 Co1 2.160 . S
C3 O4 1.278 . S
C3 O11 1.224 . S
O4 C3 1.278 . S
C5 O6 1.245 . S
C5 O17 1.232 . S
O6 C5 1.245 . S
O7 Co1 2.058 . S
O7 C33 1.269 . S
O8 Co0 2.074 . S
O8 C33 1.257 . S
H9 C34 0.930 . S
H10 C40 0.930 . S
O11 Co0 2.093 . S
O11 C3 1.224 . S
H12 C44 0.929 . S
H13 C46 0.930 . S
H14 C47 0.930 . S
H15 C45 0.929 . S
H16 C48 0.928 . S
O17 Co1 2.057 . S
O17 C5 1.232 . S
H18 C37 0.929 . S
H19 C38 0.929 . S
H20 C50 0.931 . S
H21 C42 0.929 . S
H22 C51 0.930 . S
H23 C43 0.931 . S
O24 Co0 2.097 . S
O24 C52 1.214 . S
H25 C53 0.929 . S
H26 C54 0.929 . S
H27 C55 0.930 . S
H28 C56 0.929 . S
H29 C58 0.930 . S
H30 C35 0.930 . S
H31 C39 0.930 . S
O32 Co1 2.037 . S
O32 C52 1.234 . S
C33 O7 1.269 . S
C33 O8 1.257 . S
C34 H9 0.930 . S
C34 C37 1.388 . S
C34 C39 1.418 . S
C35 H30 0.930 . S
C35 C38 1.404 . S
C35 C39 1.353 . S
N36 Co1 2.145 . S
N36 C37 1.397 . S
N36 C38 1.334 . S
C37 H18 0.929 . S
C37 C34 1.388 . S
C37 N36 1.397 . S
C38 H19 0.929 . S
C38 C35 1.404 . S
C38 N36 1.334 . S
C39 H31 0.930 . S
C39 C34 1.418 . S
C39 C35 1.353 . S
C40 H10 0.930 . S
C40 N41 1.330 . S
C40 C42 1.446 . S
N41 Co0 2.151 . S
N41 C40 1.330 . S
N41 C45 1.418 . S
C42 H21 0.929 . S
C42 C40 1.446 . S
C42 C43 1.332 . S
C43 H23 0.931 . S
C43 C42 1.332 . S
C43 C44 1.267 . S
C44 H12 0.929 . S
C44 C43 1.267 . S
C44 C45 1.251 . S
C45 H15 0.929 . S
C45 N41 1.418 . S
C45 C44 1.251 . S
C46 H13 0.930 . S
C46 C48 1.406 . S
C46 C51 1.261 . S
C47 H14 0.930 . S
C47 N49 1.325 . S
C47 C50 1.357 . S
C48 H16 0.928 . S
C48 C46 1.406 . S
C48 N49 1.261 . S
N49 Co0 2.214 . S
N49 C47 1.325 . S
N49 C48 1.261 . S
C50 H20 0.931 . S
C50 C47 1.357 . S
C50 C51 1.312 . S
C51 H22 0.930 . S
C51 C46 1.261 . S
C51 C50 1.312 . S
C52 O24 1.214 . S
C52 O32 1.234 . S
C53 H25 0.929 . S
C53 C56 1.391 . S
C53 C58 1.391 . S
C54 H26 0.929 . S
C54 C55 1.390 . S
C54 N57 1.391 . S
C55 H27 0.930 . S
C55 C54 1.390 . S
C55 C56 1.392 . S
C56 H28 0.929 . S
C56 C53 1.391 . S
C56 C55 1.392 . S
N57 Co1 2.257 . S
N57 C54 1.391 . S
N57 C58 1.388 . S
C58 H29 0.930 . S
C58 C53 1.391 . S
C58 N57 1.388 . S
Co59 O61 2.143 . S
Co59 O67 2.074 . S
Co59 O70 2.093 1_545 S
Co59 O83 2.097 1_545 S
Co59 N100 2.151 . S
Co59 N108 2.214 . S
Co60 O61 2.160 1_565 S
Co60 O66 2.058 1_565 S
Co60 O76 2.057 1_565 S
Co60 O91 2.037 . S
Co60 N95 2.145 . S
Co60 N116 2.257 . S
O61 Co59 2.143 . S
O61 Co60 2.160 1_545 S
C62 O63 1.278 . S
C62 O70 1.224 . S
O63 C62 1.278 . S
C64 O65 1.245 . S
C64 O76 1.232 . S
O65 C64 1.245 . S
O66 Co60 2.058 1_545 S
O66 C92 1.269 . S
O67 Co59 2.074 . S
O67 C92 1.257 . S
H68 C93 0.930 . S
H69 C99 0.930 . S
O70 Co59 2.093 1_565 S
O70 C62 1.224 . S
H71 C103 0.929 . S
H72 C105 0.930 . S
H73 C106 0.930 1_565 S
H74 C104 0.929 . S
H75 C107 0.928 . S
O76 Co60 2.057 1_545 S
O76 C64 1.232 . S
H77 C96 0.929 . S
H78 C97 0.929 . S
H79 C109 0.931 1_565 S
H80 C101 0.929 . S
H81 C110 0.930 . S
H82 C102 0.931 . S
O83 Co59 2.097 1_565 S
O83 C111 1.214 . S
H84 C112 0.929 . S
H85 C113 0.929 . S
H86 C114 0.930 . S
H87 C115 0.929 . S
H88 C117 0.930 . S
H89 C94 0.930 . S
H90 C98 0.930 . S
O91 Co60 2.037 . S
O91 C111 1.234 . S
C92 O66 1.269 . S
C92 O67 1.257 . S
C93 H68 0.930 . S
C93 C96 1.388 . S
C93 C98 1.418 . S
C94 H89 0.930 . S
C94 C97 1.404 . S
C94 C98 1.353 . S
N95 Co60 2.145 . S
N95 C96 1.397 . S
N95 C97 1.334 . S
C96 H77 0.929 . S
C96 C93 1.388 . S
C96 N95 1.397 . S
C97 H78 0.929 . S
C97 C94 1.404 . S
C97 N95 1.334 . S
C98 H90 0.930 . S
C98 C93 1.418 . S
C98 C94 1.353 . S
C99 H69 0.930 . S
C99 N100 1.330 . S
C99 C101 1.446 . S
N100 Co59 2.151 . S
N100 C99 1.330 . S
N100 C104 1.418 . S
C101 H80 0.929 . S
C101 C99 1.446 . S
C101 C102 1.332 . S
C102 H82 0.931 . S
C102 C101 1.332 . S
C102 C103 1.267 . S
C103 H71 0.929 . S
C103 C102 1.267 . S
C103 C104 1.251 . S
C104 H74 0.929 . S
C104 N100 1.418 . S
C104 C103 1.251 . S
C105 H72 0.930 . S
C105 C107 1.406 . S
C105 C110 1.261 . S
C106 H73 0.930 1_545 S
C106 N108 1.325 . S
C106 C109 1.357 . S
C107 H75 0.928 . S
C107 C105 1.406 . S
C107 N108 1.261 . S
N108 Co59 2.214 . S
N108 C106 1.325 . S
N108 C107 1.261 . S
C109 H79 0.931 1_545 S
C109 C106 1.357 . S
C109 C110 1.312 . S
C110 H81 0.930 . S
C110 C105 1.261 . S
C110 C109 1.312 . S
C111 O83 1.214 . S
C111 O91 1.234 . S
C112 H84 0.929 . S
C112 C115 1.391 . S
C112 C117 1.391 . S
C113 H85 0.929 . S
C113 C114 1.390 . S
C113 N116 1.391 . S
C114 H86 0.930 . S
C114 C113 1.390 . S
C114 C115 1.392 . S
C115 H87 0.929 . S
C115 C112 1.391 . S
C115 C114 1.392 . S
N116 Co60 2.257 . S
N116 C113 1.391 . S
N116 C117 1.388 . S
C117 H88 0.930 . S
C117 C112 1.391 . S
C117 N116 1.388 . S
Co118 O120 2.143 . S
Co118 O126 2.074 . S
Co118 O129 2.093 1_655 S
Co118 O142 2.097 1_655 S
Co118 N159 2.151 . S
Co118 N167 2.214 . S
Co119 O120 2.160 1_455 S
Co119 O125 2.058 1_455 S
Co119 O135 2.057 1_455 S
Co119 O150 2.037 . S
Co119 N154 2.145 . S
Co119 N175 2.257 . S
O120 Co118 2.143 . S
O120 Co119 2.160 1_655 S
C121 O122 1.278 . S
C121 O129 1.224 . S
O122 C121 1.278 . S
C123 O124 1.245 . S
C123 O135 1.232 . S
O124 C123 1.245 . S
O125 Co119 2.058 1_655 S
O125 C151 1.269 . S
O126 Co118 2.074 . S
O126 C151 1.257 . S
H127 C152 0.930 . S
H128 C158 0.930 . S
O129 Co118 2.093 1_455 S
O129 C121 1.224 . S
H130 C162 0.929 . S
H131 C164 0.930 . S
H132 C165 0.918 1_455 S
H133 C163 0.929 . S
H134 C166 0.928 . S
O135 Co119 2.057 1_655 S
O135 C123 1.232 . S
H136 C155 0.929 . S
H137 C156 0.929 . S
H138 C168 0.931 1_455 S
H139 C160 0.929 . S
H140 C169 0.930 . S
H141 C161 0.931 . S
O142 Co118 2.097 1_455 S
O142 C170 1.214 . S
H143 C171 0.929 . S
H144 C172 0.929 . S
H145 C173 0.930 . S
H146 C174 0.929 . S
H147 C176 0.930 . S
H148 C153 0.930 . S
H149 C157 0.930 . S
O150 Co119 2.037 . S
O150 C170 1.234 . S
C151 O125 1.269 . S
C151 O126 1.257 . S
C152 H127 0.930 . S
C152 C155 1.388 . S
C152 C157 1.418 . S
C153 H148 0.930 . S
C153 C156 1.404 . S
C153 C157 1.353 . S
N154 Co119 2.145 . S
N154 C155 1.397 . S
N154 C156 1.334 . S
C155 H136 0.929 . S
C155 C152 1.388 . S
C155 N154 1.397 . S
C156 H137 0.929 . S
C156 C153 1.404 . S
C156 N154 1.334 . S
C157 H149 0.930 . S
C157 C152 1.418 . S
C157 C153 1.353 . S
C158 H128 0.930 . S
C158 N159 1.330 . S
C158 C160 1.446 . S
N159 Co118 2.151 . S
N159 C158 1.330 . S
N159 C163 1.418 . S
C160 H139 0.929 . S
C160 C158 1.446 . S
C160 C161 1.332 . S
C161 H141 0.931 . S
C161 C160 1.332 . S
C161 C162 1.267 . S
C162 H130 0.929 . S
C162 C161 1.267 . S
C162 C163 1.251 . S
C163 H133 0.929 . S
C163 N159 1.418 . S
C163 C162 1.251 . S
C164 H131 0.930 . S
C164 C166 1.406 . S
C164 C169 1.261 . S
C165 H132 0.918 1_655 S
C165 N167 1.319 . S
C165 C168 1.375 . S
C166 H134 0.928 . S
C166 C164 1.406 . S
C166 N167 1.261 . S
N167 Co118 2.214 . S
N167 C165 1.319 . S
N167 C166 1.261 . S
C168 H138 0.931 1_655 S
C168 C165 1.375 . S
C168 C169 1.312 . S
C169 H140 0.930 . S
C169 C164 1.261 . S
C169 C168 1.312 . S
C170 O142 1.214 . S
C170 O150 1.234 . S
C171 H143 0.929 . S
C171 C174 1.391 . S
C171 C176 1.391 . S
C172 H144 0.929 . S
C172 C173 1.390 . S
C172 N175 1.391 . S
C173 H145 0.930 . S
C173 C172 1.390 . S
C173 C174 1.392 . S
C174 H146 0.929 . S
C174 C171 1.391 . S
C174 C173 1.392 . S
N175 Co119 2.257 . S
N175 C172 1.391 . S
N175 C176 1.388 . S
C176 H147 0.930 . S
C176 C171 1.391 . S
C176 N175 1.388 . S
Co177 O179 2.143 . S
Co177 O185 2.074 . S
Co177 O188 2.093 . S
Co177 O201 2.097 . S
Co177 N218 2.151 . S
Co177 N226 2.214 . S
Co178 O179 2.160 . S
Co178 O184 2.058 . S
Co178 O194 2.057 . S
Co178 O209 2.037 . S
Co178 N213 2.145 . S
Co178 N234 2.257 . S
O179 Co177 2.143 . S
O179 Co178 2.160 . S
C180 O181 1.278 . S
C180 O188 1.224 . S
O181 C180 1.278 . S
C182 O183 1.245 . S
C182 O194 1.232 . S
O183 C182 1.245 . S
O184 Co178 2.058 . S
O184 C210 1.269 . S
O185 Co177 2.074 . S
O185 C210 1.257 . S
H186 C211 0.930 . S
H187 C217 0.930 . S
O188 Co177 2.093 . S
O188 C180 1.224 . S
H189 C221 0.929 . S
H190 C223 0.930 . S
H191 C224 0.930 . S
H192 C222 0.929 . S
H193 C225 0.928 . S
O194 Co178 2.057 . S
O194 C182 1.232 . S
H195 C214 0.929 . S
H196 C215 0.929 . S
H197 C227 0.931 . S
H198 C219 0.929 . S
H199 C228 0.930 . S
H200 C220 0.931 . S
O201 Co177 2.097 . S
O201 C229 1.214 . S
H202 C230 0.929 . S
H203 C231 0.929 . S
H204 C232 0.930 . S
H205 C233 0.929 . S
H206 C235 0.930 . S
H207 C212 0.930 . S
H208 C216 0.930 . S
O209 Co178 2.037 . S
O209 C229 1.234 . S
C210 O184 1.269 . S
C210 O185 1.257 . S
C211 H186 0.930 . S
C211 C214 1.388 . S
C211 C216 1.418 . S
C212 H207 0.930 . S
C212 C215 1.404 . S
C212 C216 1.353 . S
N213 Co178 2.145 . S
N213 C214 1.397 . S
N213 C215 1.334 . S
C214 H195 0.929 . S
C214 C211 1.388 . S
C214 N213 1.397 . S
C215 H196 0.929 . S
C215 C212 1.404 . S
C215 N213 1.334 . S
C216 H208 0.930 . S
C216 C211 1.418 . S
C216 C212 1.353 . S
C217 H187 0.930 . S
C217 N218 1.330 . S
C217 C219 1.446 . S
N218 Co177 2.151 . S
N218 C217 1.330 . S
N218 C222 1.418 . S
C219 H198 0.929 . S
C219 C217 1.446 . S
C219 C220 1.332 . S
C220 H200 0.931 . S
C220 C219 1.332 . S
C220 C221 1.267 . S
C221 H189 0.929 . S
C221 C220 1.267 . S
C221 C222 1.251 . S
C222 H192 0.929 . S
C222 N218 1.418 . S
C222 C221 1.251 . S
C223 H190 0.930 . S
C223 C225 1.406 . S
C223 C228 1.261 . S
C224 H191 0.930 . S
C224 N226 1.325 . S
C224 C227 1.357 . S
C225 H193 0.928 . S
C225 C223 1.406 . S
C225 N226 1.261 . S
N226 Co177 2.214 . S
N226 C224 1.325 . S
N226 C225 1.261 . S
C227 H197 0.931 . S
C227 C224 1.357 . S
C227 C228 1.312 . S
C228 H199 0.930 . S
C228 C223 1.261 . S
C228 C227 1.312 . S
C229 O201 1.214 . S
C229 O209 1.234 . S
C230 H202 0.929 . S
C230 C233 1.391 . S
C230 C235 1.391 . S
C231 H203 0.929 . S
C231 C232 1.390 . S
C231 N234 1.391 . S
C232 H204 0.930 . S
C232 C231 1.390 . S
C232 C233 1.392 . S
C233 H205 0.929 . S
C233 C230 1.391 . S
C233 C232 1.392 . S
N234 Co178 2.257 . S
N234 C231 1.391 . S
N234 C235 1.388 . S
C235 H206 0.930 . S
C235 C230 1.391 . S
C235 N234 1.388 . S
Co236 O238 2.143 . S
Co236 O244 2.074 . S
Co236 O247 2.093 1_565 S
Co236 O260 2.097 1_565 S
Co236 N277 2.151 . S
Co236 N285 2.214 . S
Co237 O238 2.160 1_545 S
Co237 O243 2.058 1_545 S
Co237 O253 2.057 1_545 S
Co237 O268 2.037 . S
Co237 N272 2.145 . S
Co237 N293 2.257 . S
O238 Co236 2.143 . S
O238 Co237 2.160 1_565 S
C239 O240 1.278 . S
C239 O247 1.224 . S
O240 C239 1.278 . S
C241 O242 1.245 . S
C241 O253 1.232 . S
O242 C241 1.245 . S
O243 Co237 2.058 1_565 S
O243 C269 1.269 . S
O244 Co236 2.074 . S
O244 C269 1.257 . S
H245 C270 0.930 . S
H246 C276 0.930 . S
O247 Co236 2.093 1_545 S
O247 C239 1.224 . S
H248 C280 0.929 . S
H249 C282 0.930 . S
H250 C283 0.919 1_545 S
H251 C281 0.929 . S
H252 C284 0.928 . S
O253 Co237 2.057 1_565 S
O253 C241 1.232 . S
H254 C273 0.929 . S
H255 C274 0.929 . S
H256 C286 0.931 1_545 S
H257 C278 0.929 . S
H258 C287 0.930 . S
H259 C279 0.931 . S
O260 Co236 2.097 1_545 S
O260 C288 1.214 . S
H261 C289 0.929 . S
H262 C290 0.929 . S
H263 C291 0.930 . S
H264 C292 0.929 . S
H265 C294 0.930 . S
H266 C271 0.930 . S
H267 C275 0.930 . S
O268 Co237 2.037 . S
O268 C288 1.234 . S
C269 O243 1.269 . S
C269 O244 1.257 . S
C270 H245 0.930 . S
C270 C273 1.388 . S
C270 C275 1.418 . S
C271 H266 0.930 . S
C271 C274 1.404 . S
C271 C275 1.353 . S
N272 Co237 2.145 . S
N272 C273 1.397 . S
N272 C274 1.334 . S
C273 H254 0.929 . S
C273 C270 1.388 . S
C273 N272 1.397 . S
C274 H255 0.929 . S
C274 C271 1.404 . S
C274 N272 1.334 . S
C275 H267 0.930 . S
C275 C270 1.418 . S
C275 C271 1.353 . S
C276 H246 0.930 . S
C276 N277 1.330 . S
C276 C278 1.446 . S
N277 Co236 2.151 . S
N277 C276 1.330 . S
N277 C281 1.418 . S
C278 H257 0.929 . S
C278 C276 1.446 . S
C278 C279 1.332 . S
C279 H259 0.931 . S
C279 C278 1.332 . S
C279 C280 1.267 . S
C280 H248 0.929 . S
C280 C279 1.267 . S
C280 C281 1.251 . S
C281 H251 0.929 . S
C281 N277 1.418 . S
C281 C280 1.251 . S
C282 H249 0.930 . S
C282 C284 1.406 . S
C282 C287 1.261 . S
C283 H250 0.919 1_565 S
C283 N285 1.320 . S
C283 C286 1.374 . S
C284 H252 0.928 . S
C284 C282 1.406 . S
C284 N285 1.261 . S
N285 Co236 2.214 . S
N285 C283 1.320 . S
N285 C284 1.261 . S
C286 H256 0.931 1_565 S
C286 C283 1.374 . S
C286 C287 1.312 . S
C287 H258 0.930 . S
C287 C282 1.261 . S
C287 C286 1.312 . S
C288 O260 1.214 . S
C288 O268 1.234 . S
C289 H261 0.929 . S
C289 C292 1.391 . S
C289 C294 1.391 . S
C290 H262 0.929 . S
C290 C291 1.390 . S
C290 N293 1.391 . S
C291 H263 0.930 . S
C291 C290 1.390 . S
C291 C292 1.392 . S
C292 H264 0.929 . S
C292 C289 1.391 . S
C292 C291 1.392 . S
N293 Co237 2.257 . S
N293 C290 1.391 . S
N293 C294 1.388 . S
C294 H265 0.930 . S
C294 C289 1.391 . S
C294 N293 1.388 . S
Co295 O297 2.143 . S
Co295 O303 2.074 . S
Co295 O306 2.093 1_455 S
Co295 O319 2.097 1_455 S
Co295 N336 2.151 . S
Co295 N344 2.214 . S
Co296 O297 2.160 1_655 S
Co296 O302 2.058 1_655 S
Co296 O312 2.057 1_655 S
Co296 O327 2.037 . S
Co296 N331 2.145 . S
Co296 N352 2.257 . S
O297 Co295 2.143 . S
O297 Co296 2.160 1_455 S
C298 O299 1.278 . S
C298 O306 1.224 . S
O299 C298 1.278 . S
C300 O301 1.245 . S
C300 O312 1.232 . S
O301 C300 1.245 . S
O302 Co296 2.058 1_455 S
O302 C328 1.269 . S
O303 Co295 2.074 . S
O303 C328 1.257 . S
H304 C329 0.930 . S
H305 C335 0.930 . S
O306 Co295 2.093 1_655 S
O306 C298 1.224 . S
H307 C339 0.929 . S
H308 C341 0.930 . S
H309 C342 0.930 1_655 S
H310 C340 0.929 . S
H311 C343 0.928 . S
O312 Co296 2.057 1_455 S
O312 C300 1.232 . S
H313 C332 0.929 . S
H314 C333 0.929 . S
H315 C345 0.931 1_655 S
H316 C337 0.929 . S
H317 C346 0.930 . S
H318 C338 0.931 . S
O319 Co295 2.097 1_655 S
O319 C347 1.214 . S
H320 C348 0.929 . S
H321 C349 0.929 . S
H322 C350 0.930 . S
H323 C351 0.929 . S
H324 C353 0.930 . S
H325 C330 0.930 . S
H326 C334 0.930 . S
O327 Co296 2.037 . S
O327 C347 1.234 . S
C328 O302 1.269 . S
C328 O303 1.257 . S
C329 H304 0.930 . S
C329 C332 1.388 . S
C329 C334 1.418 . S
C330 H325 0.930 . S
C330 C333 1.404 . S
C330 C334 1.353 . S
N331 Co296 2.145 . S
N331 C332 1.397 . S
N331 C333 1.334 . S
C332 H313 0.929 . S
C332 C329 1.388 . S
C332 N331 1.397 . S
C333 H314 0.929 . S
C333 C330 1.404 . S
C333 N331 1.334 . S
C334 H326 0.930 . S
C334 C329 1.418 . S
C334 C330 1.353 . S
C335 H305 0.930 . S
C335 N336 1.330 . S
C335 C337 1.446 . S
N336 Co295 2.151 . S
N336 C335 1.330 . S
N336 C340 1.418 . S
C337 H316 0.929 . S
C337 C335 1.446 . S
C337 C338 1.332 . S
C338 H318 0.931 . S
C338 C337 1.332 . S
C338 C339 1.267 . S
C339 H307 0.929 . S
C339 C338 1.267 . S
C339 C340 1.251 . S
C340 H310 0.929 . S
C340 N336 1.418 . S
C340 C339 1.251 . S
C341 H308 0.930 . S
C341 C343 1.406 . S
C341 C346 1.261 . S
C342 H309 0.930 1_455 S
C342 N344 1.325 . S
C342 C345 1.357 . S
C343 H311 0.928 . S
C343 C341 1.406 . S
C343 N344 1.261 . S
N344 Co295 2.214 . S
N344 C342 1.325 . S
N344 C343 1.261 . S
C345 H315 0.931 1_455 S
C345 C342 1.357 . S
C345 C346 1.312 . S
C346 H317 0.930 . S
C346 C341 1.261 . S
C346 C345 1.312 . S
C347 O319 1.214 . S
C347 O327 1.234 . S
C348 H320 0.929 . S
C348 C351 1.391 . S
C348 C353 1.391 . S
C349 H321 0.929 . S
C349 C350 1.390 . S
C349 N352 1.391 . S
C350 H322 0.930 . S
C350 C349 1.390 . S
C350 C351 1.392 . S
C351 H323 0.929 . S
C351 C348 1.391 . S
C351 C350 1.392 . S
N352 Co296 2.257 . S
N352 C349 1.391 . S
N352 C353 1.388 . S
C353 H324 0.930 . S
C353 C348 1.391 . S
C353 N352 1.388 . S
Co354 O356 2.143 . S
Co354 O362 2.074 . S
Co354 O365 2.093 . S
Co354 O378 2.097 . S
Co354 N395 2.151 . S
Co354 N403 2.214 . S
Co355 O356 2.160 . S
Co355 O361 2.058 . S
Co355 O371 2.057 . S
Co355 O386 2.037 . S
Co355 N390 2.145 . S
Co355 N411 2.257 . S
O356 Co354 2.143 . S
O356 Co355 2.160 . S
C357 O358 1.278 . S
C357 O365 1.224 . S
O358 C357 1.278 . S
C359 O360 1.245 . S
C359 O371 1.232 . S
O360 C359 1.245 . S
O361 Co355 2.058 . S
O361 C387 1.269 . S
O362 Co354 2.074 . S
O362 C387 1.257 . S
H363 C388 0.930 . S
H364 C394 0.930 . S
O365 Co354 2.093 . S
O365 C357 1.224 . S
H366 C398 0.929 . S
H367 C400 0.930 . S
H368 C401 0.930 . S
H369 C399 0.929 . S
H370 C402 0.928 . S
O371 Co355 2.057 . S
O371 C359 1.232 . S
H372 C391 0.929 . S
H373 C392 0.929 . S
H374 C404 0.931 . S
H375 C396 0.929 . S
H376 C405 0.930 . S
H377 C397 0.931 . S
O378 Co354 2.097 . S
O378 C406 1.214 . S
H379 C407 0.929 . S
H380 C408 0.929 . S
H381 C409 0.930 . S
H382 C410 0.929 . S
H383 C412 0.930 . S
H384 C389 0.930 . S
H385 C393 0.930 . S
O386 Co355 2.037 . S
O386 C406 1.234 . S
C387 O361 1.269 . S
C387 O362 1.257 . S
C388 H363 0.930 . S
C388 C391 1.388 . S
C388 C393 1.418 . S
C389 H384 0.930 . S
C389 C392 1.404 . S
C389 C393 1.353 . S
N390 Co355 2.145 . S
N390 C391 1.397 . S
N390 C392 1.334 . S
C391 H372 0.929 . S
C391 C388 1.388 . S
C391 N390 1.397 . S
C392 H373 0.929 . S
C392 C389 1.404 . S
C392 N390 1.334 . S
C393 H385 0.930 . S
C393 C388 1.418 . S
C393 C389 1.353 . S
C394 H364 0.930 . S
C394 N395 1.330 . S
C394 C396 1.446 . S
N395 Co354 2.151 . S
N395 C394 1.330 . S
N395 C399 1.418 . S
C396 H375 0.929 . S
C396 C394 1.446 . S
C396 C397 1.332 . S
C397 H377 0.931 . S
C397 C396 1.332 . S
C397 C398 1.267 . S
C398 H366 0.929 . S
C398 C397 1.267 . S
C398 C399 1.251 . S
C399 H369 0.929 . S
C399 N395 1.418 . S
C399 C398 1.251 . S
C400 H367 0.930 . S
C400 C402 1.406 . S
C400 C405 1.261 . S
C401 H368 0.930 . S
C401 N403 1.325 . S
C401 C404 1.357 . S
C402 H370 0.928 . S
C402 C400 1.406 . S
C402 N403 1.261 . S
N403 Co354 2.214 . S
N403 C401 1.325 . S
N403 C402 1.261 . S
C404 H374 0.931 . S
C404 C401 1.357 . S
C404 C405 1.312 . S
C405 H376 0.930 . S
C405 C400 1.261 . S
C405 C404 1.312 . S
C406 O378 1.214 . S
C406 O386 1.234 . S
C407 H379 0.929 . S
C407 C410 1.391 . S
C407 C412 1.391 . S
C408 H380 0.929 . S
C408 C409 1.390 . S
C408 N411 1.391 . S
C409 H381 0.930 . S
C409 C408 1.390 . S
C409 C410 1.392 . S
C410 H382 0.929 . S
C410 C407 1.391 . S
C410 C409 1.392 . S
N411 Co355 2.257 . S
N411 C408 1.391 . S
N411 C412 1.388 . S
C412 H383 0.930 . S
C412 C407 1.391 . S
C412 N411 1.388 . S
Co413 O415 2.143 . S
Co413 O421 2.074 . S
Co413 O424 2.093 . S
Co413 O437 2.097 . S
Co413 N454 2.151 . S
Co413 N462 2.214 . S
Co414 O415 2.160 . S
Co414 O420 2.058 . S
Co414 O430 2.057 . S
Co414 O445 2.037 . S
Co414 N449 2.145 . S
Co414 N470 2.257 . S
O415 Co413 2.143 . S
O415 Co414 2.160 . S
C416 O417 1.278 . S
C416 O424 1.224 . S
O417 C416 1.278 . S
C418 O419 1.245 . S
C418 O430 1.232 . S
O419 C418 1.245 . S
O420 Co414 2.058 . S
O420 C446 1.269 . S
O421 Co413 2.074 . S
O421 C446 1.257 . S
H422 C447 0.930 . S
H423 C453 0.930 . S
O424 Co413 2.093 . S
O424 C416 1.224 . S
H425 C457 0.929 . S
H426 C459 0.930 . S
H427 C460 0.930 . S
H428 C458 0.929 . S
H429 C461 0.928 . S
O430 Co414 2.057 . S
O430 C418 1.232 . S
H431 C450 0.929 . S
H432 C451 0.929 . S
H433 C463 0.931 . S
H434 C455 0.929 . S
H435 C464 0.930 . S
H436 C456 0.931 . S
O437 Co413 2.097 . S
O437 C465 1.214 . S
H438 C466 0.929 . S
H439 C467 0.929 . S
H440 C468 0.930 . S
H441 C469 0.929 . S
H442 C471 0.930 . S
H443 C448 0.930 . S
H444 C452 0.930 . S
O445 Co414 2.037 . S
O445 C465 1.234 . S
C446 O420 1.269 . S
C446 O421 1.257 . S
C447 H422 0.930 . S
C447 C450 1.388 . S
C447 C452 1.418 . S
C448 H443 0.930 . S
C448 C451 1.404 . S
C448 C452 1.353 . S
N449 Co414 2.145 . S
N449 C450 1.397 . S
N449 C451 1.334 . S
C450 H431 0.929 . S
C450 C447 1.388 . S
C450 N449 1.397 . S
C451 H432 0.929 . S
C451 C448 1.404 . S
C451 N449 1.334 . S
C452 H444 0.930 . S
C452 C447 1.418 . S
C452 C448 1.353 . S
C453 H423 0.930 . S
C453 N454 1.330 . S
C453 C455 1.446 . S
N454 Co413 2.151 . S
N454 C453 1.330 . S
N454 C458 1.418 . S
C455 H434 0.929 . S
C455 C453 1.446 . S
C455 C456 1.332 . S
C456 H436 0.931 . S
C456 C455 1.332 . S
C456 C457 1.267 . S
C457 H425 0.929 . S
C457 C456 1.267 . S
C457 C458 1.251 . S
C458 H428 0.929 . S
C458 N454 1.418 . S
C458 C457 1.251 . S
C459 H426 0.930 . S
C459 C461 1.406 . S
C459 C464 1.261 . S
C460 H427 0.930 . S
C460 N462 1.325 . S
C460 C463 1.357 . S
C461 H429 0.928 . S
C461 C459 1.406 . S
C461 N462 1.261 . S
N462 Co413 2.214 . S
N462 C460 1.325 . S
N462 C461 1.261 . S
C463 H433 0.931 . S
C463 C460 1.357 . S
C463 C464 1.312 . S
C464 H435 0.930 . S
C464 C459 1.261 . S
C464 C463 1.312 . S
C465 O437 1.214 . S
C465 O445 1.234 . S
C466 H438 0.929 . S
C466 C469 1.391 . S
C466 C471 1.391 . S
C467 H439 0.929 . S
C467 C468 1.390 . S
C467 N470 1.391 . S
C468 H440 0.930 . S
C468 C467 1.390 . S
C468 C469 1.392 . S
C469 H441 0.929 . S
C469 C466 1.391 . S
C469 C468 1.392 . S
N470 Co414 2.257 . S
N470 C467 1.391 . S
N470 C471 1.388 . S
C471 H442 0.930 . S
C471 C466 1.391 . S
C471 N470 1.388 . S
Co472 O474 2.143 . S
Co472 O480 2.074 . S
Co472 O483 2.093 . S
Co472 O496 2.097 . S
Co472 N513 2.151 . S
Co472 N521 2.214 . S
Co473 O474 2.160 . S
Co473 O479 2.058 . S
Co473 O489 2.057 . S
Co473 O504 2.037 . S
Co473 N508 2.145 . S
Co473 N529 2.257 . S
O474 Co472 2.143 . S
O474 Co473 2.160 . S
C475 O476 1.278 . S
C475 O483 1.224 . S
O476 C475 1.278 . S
C477 O478 1.245 . S
C477 O489 1.232 . S
O478 C477 1.245 . S
O479 Co473 2.058 . S
O479 C505 1.269 . S
O480 Co472 2.074 . S
O480 C505 1.257 . S
H481 C506 0.930 . S
H482 C512 0.930 . S
O483 Co472 2.093 . S
O483 C475 1.224 . S
H484 C516 0.929 . S
H485 C518 0.930 . S
H486 C519 0.930 . S
H487 C517 0.929 . S
H488 C520 0.928 . S
O489 Co473 2.057 . S
O489 C477 1.232 . S
H490 C509 0.929 . S
H491 C510 0.929 . S
H492 C522 0.931 . S
H493 C514 0.929 . S
H494 C523 0.930 . S
H495 C515 0.931 . S
O496 Co472 2.097 . S
O496 C524 1.214 . S
H497 C525 0.929 . S
H498 C526 0.929 . S
H499 C527 0.930 . S
H500 C528 0.929 . S
H501 C530 0.930 . S
H502 C507 0.930 . S
H503 C511 0.930 . S
O504 Co473 2.037 . S
O504 C524 1.234 . S
C505 O479 1.269 . S
C505 O480 1.257 . S
C506 H481 0.930 . S
C506 C509 1.388 . S
C506 C511 1.418 . S
C507 H502 0.930 . S
C507 C510 1.404 . S
C507 C511 1.353 . S
N508 Co473 2.145 . S
N508 C509 1.397 . S
N508 C510 1.334 . S
C509 H490 0.929 . S
C509 C506 1.388 . S
C509 N508 1.397 . S
C510 H491 0.929 . S
C510 C507 1.404 . S
C510 N508 1.334 . S
C511 H503 0.930 . S
C511 C506 1.418 . S
C511 C507 1.353 . S
C512 H482 0.930 . S
C512 N513 1.330 . S
C512 C514 1.446 . S
N513 Co472 2.151 . S
N513 C512 1.330 . S
N513 C517 1.418 . S
C514 H493 0.929 . S
C514 C512 1.446 . S
C514 C515 1.332 . S
C515 H495 0.931 . S
C515 C514 1.332 . S
C515 C516 1.267 . S
C516 H484 0.929 . S
C516 C515 1.267 . S
C516 C517 1.251 . S
C517 H487 0.929 . S
C517 N513 1.418 . S
C517 C516 1.251 . S
C518 H485 0.930 . S
C518 C520 1.406 . S
C518 C523 1.261 . S
C519 H486 0.930 . S
C519 N521 1.325 . S
C519 C522 1.357 . S
C520 H488 0.928 . S
C520 C518 1.406 . S
C520 N521 1.261 . S
N521 Co472 2.214 . S
N521 C519 1.325 . S
N521 C520 1.261 . S
C522 H492 0.931 . S
C522 C519 1.357 . S
C522 C523 1.312 . S
C523 H494 0.930 . S
C523 C518 1.261 . S
C523 C522 1.312 . S
C524 O496 1.214 . S
C524 O504 1.234 . S
C525 H497 0.929 . S
C525 C528 1.391 . S
C525 C530 1.391 . S
C526 H498 0.929 . S
C526 C527 1.390 . S
C526 N529 1.391 . S
C527 H499 0.930 . S
C527 C526 1.390 . S
C527 C528 1.392 . S
C528 H500 0.929 . S
C528 C525 1.391 . S
C528 C527 1.392 . S
N529 Co473 2.257 . S
N529 C526 1.391 . S
N529 C530 1.388 . S
C530 H501 0.930 . S
C530 C525 1.391 . S
C530 N529 1.388 . S
Co531 O533 2.143 . S
Co531 O539 2.074 . S
Co531 O542 2.093 . S
Co531 O555 2.097 . S
Co531 N572 2.151 . S
Co531 N580 2.214 . S
Co532 O533 2.160 . S
Co532 O538 2.058 . S
Co532 O548 2.057 . S
Co532 O563 2.037 . S
Co532 N567 2.145 . S
Co532 N588 2.257 . S
O533 Co531 2.143 . S
O533 Co532 2.160 . S
C534 O535 1.278 . S
C534 O542 1.224 . S
O535 C534 1.278 . S
C536 O537 1.245 . S
C536 O548 1.232 . S
O537 C536 1.245 . S
O538 Co532 2.058 . S
O538 C564 1.269 . S
O539 Co531 2.074 . S
O539 C564 1.257 . S
H540 C565 0.930 . S
H541 C571 0.930 . S
O542 Co531 2.093 . S
O542 C534 1.224 . S
H543 C575 0.929 . S
H544 C577 0.930 . S
H545 C578 0.930 . S
H546 C576 0.929 . S
H547 C579 0.928 . S
O548 Co532 2.057 . S
O548 C536 1.232 . S
H549 C568 0.929 . S
H550 C569 0.929 . S
H551 C581 0.931 . S
H552 C573 0.929 . S
H553 C582 0.930 . S
H554 C574 0.931 . S
O555 Co531 2.097 . S
O555 C583 1.214 . S
H556 C584 0.929 . S
H557 C585 0.929 . S
H558 C586 0.930 . S
H559 C587 0.929 . S
H560 C589 0.930 . S
H561 C566 0.930 . S
H562 C570 0.930 . S
O563 Co532 2.037 . S
O563 C583 1.234 . S
C564 O538 1.269 . S
C564 O539 1.257 . S
C565 H540 0.930 . S
C565 C568 1.388 . S
C565 C570 1.418 . S
C566 H561 0.930 . S
C566 C569 1.404 . S
C566 C570 1.353 . S
N567 Co532 2.145 . S
N567 C568 1.397 . S
N567 C569 1.334 . S
C568 H549 0.929 . S
C568 C565 1.388 . S
C568 N567 1.397 . S
C569 H550 0.929 . S
C569 C566 1.404 . S
C569 N567 1.334 . S
C570 H562 0.930 . S
C570 C565 1.418 . S
C570 C566 1.353 . S
C571 H541 0.930 . S
C571 N572 1.330 . S
C571 C573 1.446 . S
N572 Co531 2.151 . S
N572 C571 1.330 . S
N572 C576 1.418 . S
C573 H552 0.929 . S
C573 C571 1.446 . S
C573 C574 1.332 . S
C574 H554 0.931 . S
C574 C573 1.332 . S
C574 C575 1.267 . S
C575 H543 0.929 . S
C575 C574 1.267 . S
C575 C576 1.251 . S
C576 H546 0.929 . S
C576 N572 1.418 . S
C576 C575 1.251 . S
C577 H544 0.930 . S
C577 C579 1.406 . S
C577 C582 1.261 . S
C578 H545 0.930 . S
C578 N580 1.325 . S
C578 C581 1.357 . S
C579 H547 0.928 . S
C579 C577 1.406 . S
C579 N580 1.261 . S
N580 Co531 2.214 . S
N580 C578 1.325 . S
N580 C579 1.261 . S
C581 H551 0.931 . S
C581 C578 1.357 . S
C581 C582 1.312 . S
C582 H553 0.930 . S
C582 C577 1.261 . S
C582 C581 1.312 . S
C583 O555 1.214 . S
C583 O563 1.234 . S
C584 H556 0.929 . S
C584 C587 1.391 . S
C584 C589 1.391 . S
C585 H557 0.929 . S
C585 C586 1.390 . S
C585 N588 1.391 . S
C586 H558 0.930 . S
C586 C585 1.390 . S
C586 C587 1.392 . S
C587 H559 0.929 . S
C587 C584 1.391 . S
C587 C586 1.392 . S
N588 Co532 2.257 . S
N588 C585 1.391 . S
N588 C589 1.388 . S
C589 H560 0.930 . S
C589 C584 1.391 . S
C589 N588 1.388 . S
Co590 O592 2.143 . S
Co590 O598 2.074 . S
Co590 O601 2.093 . S
Co590 O614 2.097 . S
Co590 N631 2.151 . S
Co590 N639 2.214 . S
Co591 O592 2.160 . S
Co591 O597 2.058 . S
Co591 O607 2.057 . S
Co591 O622 2.037 . S
Co591 N626 2.145 . S
Co591 N647 2.257 . S
O592 Co590 2.143 . S
O592 Co591 2.160 . S
C593 O594 1.278 . S
C593 O601 1.224 . S
O594 C593 1.278 . S
C595 O596 1.245 . S
C595 O607 1.232 . S
O596 C595 1.245 . S
O597 Co591 2.058 . S
O597 C623 1.269 . S
O598 Co590 2.074 . S
O598 C623 1.257 . S
H599 C624 0.930 . S
H600 C630 0.930 . S
O601 Co590 2.093 . S
O601 C593 1.224 . S
H602 C634 0.929 . S
H603 C636 0.930 . S
H604 C637 0.930 . S
H605 C635 0.929 . S
H606 C638 0.928 . S
O607 Co591 2.057 . S
O607 C595 1.232 . S
H608 C627 0.929 . S
H609 C628 0.929 . S
H610 C640 0.931 . S
H611 C632 0.929 . S
H612 C641 0.930 . S
H613 C633 0.931 . S
O614 Co590 2.097 . S
O614 C642 1.214 . S
H615 C643 0.929 . S
H616 C644 0.929 . S
H617 C645 0.930 . S
H618 C646 0.929 . S
H619 C648 0.930 . S
H620 C625 0.930 . S
H621 C629 0.930 . S
O622 Co591 2.037 . S
O622 C642 1.234 . S
C623 O597 1.269 . S
C623 O598 1.257 . S
C624 H599 0.930 . S
C624 C627 1.388 . S
C624 C629 1.418 . S
C625 H620 0.930 . S
C625 C628 1.404 . S
C625 C629 1.353 . S
N626 Co591 2.145 . S
N626 C627 1.397 . S
N626 C628 1.334 . S
C627 H608 0.929 . S
C627 C624 1.388 . S
C627 N626 1.397 . S
C628 H609 0.929 . S
C628 C625 1.404 . S
C628 N626 1.334 . S
C629 H621 0.930 . S
C629 C624 1.418 . S
C629 C625 1.353 . S
C630 H600 0.930 . S
C630 N631 1.330 . S
C630 C632 1.446 . S
N631 Co590 2.151 . S
N631 C630 1.330 . S
N631 C635 1.418 . S
C632 H611 0.929 . S
C632 C630 1.446 . S
C632 C633 1.332 . S
C633 H613 0.931 . S
C633 C632 1.332 . S
C633 C634 1.267 . S
C634 H602 0.929 . S
C634 C633 1.267 . S
C634 C635 1.251 . S
C635 H605 0.929 . S
C635 N631 1.418 . S
C635 C634 1.251 . S
C636 H603 0.930 . S
C636 C638 1.406 . S
C636 C641 1.261 . S
C637 H604 0.930 . S
C637 N639 1.325 . S
C637 C640 1.357 . S
C638 H606 0.928 . S
C638 C636 1.406 . S
C638 N639 1.261 . S
N639 Co590 2.214 . S
N639 C637 1.325 . S
N639 C638 1.261 . S
C640 H610 0.931 . S
C640 C637 1.357 . S
C640 C641 1.312 . S
C641 H612 0.930 . S
C641 C636 1.261 . S
C641 C640 1.312 . S
C642 O614 1.214 . S
C642 O622 1.234 . S
C643 H615 0.929 . S
C643 C646 1.391 . S
C643 C648 1.391 . S
C644 H616 0.929 . S
C644 C645 1.390 . S
C644 N647 1.391 . S
C645 H617 0.930 . S
C645 C644 1.390 . S
C645 C646 1.392 . S
C646 H618 0.929 . S
C646 C643 1.391 . S
C646 C645 1.392 . S
N647 Co591 2.257 . S
N647 C644 1.391 . S
N647 C648 1.388 . S
C648 H619 0.930 . S
C648 C643 1.391 . S
C648 N647 1.388 . S
Co649 O651 2.143 . S
Co649 O657 2.074 . S
Co649 O660 2.093 . S
Co649 O673 2.097 . S
Co649 N690 2.151 . S
Co649 N698 2.214 . S
Co650 O651 2.160 . S
Co650 O656 2.058 . S
Co650 O666 2.057 . S
Co650 O681 2.037 . S
Co650 N685 2.145 . S
Co650 N706 2.257 . S
O651 Co649 2.143 . S
O651 Co650 2.160 . S
C652 O653 1.278 . S
C652 O660 1.224 . S
O653 C652 1.278 . S
C654 O655 1.245 . S
C654 O666 1.232 . S
O655 C654 1.245 . S
O656 Co650 2.058 . S
O656 C682 1.269 . S
O657 Co649 2.074 . S
O657 C682 1.257 . S
H658 C683 0.930 . S
H659 C689 0.930 . S
O660 Co649 2.093 . S
O660 C652 1.224 . S
H661 C693 0.929 . S
H662 C695 0.930 . S
H663 C696 0.930 . S
H664 C694 0.929 . S
H665 C697 0.928 . S
O666 Co650 2.057 . S
O666 C654 1.232 . S
H667 C686 0.929 . S
H668 C687 0.929 . S
H669 C699 0.931 . S
H670 C691 0.929 . S
H671 C700 0.930 . S
H672 C692 0.931 . S
O673 Co649 2.097 . S
O673 C701 1.214 . S
H674 C702 0.929 . S
H675 C703 0.929 . S
H676 C704 0.930 . S
H677 C705 0.929 . S
H678 C707 0.930 . S
H679 C684 0.930 . S
H680 C688 0.930 . S
O681 Co650 2.037 . S
O681 C701 1.234 . S
C682 O656 1.269 . S
C682 O657 1.257 . S
C683 H658 0.930 . S
C683 C686 1.388 . S
C683 C688 1.418 . S
C684 H679 0.930 . S
C684 C687 1.404 . S
C684 C688 1.353 . S
N685 Co650 2.145 . S
N685 C686 1.397 . S
N685 C687 1.334 . S
C686 H667 0.929 . S
C686 C683 1.388 . S
C686 N685 1.397 . S
C687 H668 0.929 . S
C687 C684 1.404 . S
C687 N685 1.334 . S
C688 H680 0.930 . S
C688 C683 1.418 . S
C688 C684 1.353 . S
C689 H659 0.930 . S
C689 N690 1.330 . S
C689 C691 1.446 . S
N690 Co649 2.151 . S
N690 C689 1.330 . S
N690 C694 1.418 . S
C691 H670 0.929 . S
C691 C689 1.446 . S
C691 C692 1.332 . S
C692 H672 0.931 . S
C692 C691 1.332 . S
C692 C693 1.267 . S
C693 H661 0.929 . S
C693 C692 1.267 . S
C693 C694 1.251 . S
C694 H664 0.929 . S
C694 N690 1.418 . S
C694 C693 1.251 . S
C695 H662 0.930 . S
C695 C697 1.406 . S
C695 C700 1.261 . S
C696 H663 0.930 . S
C696 N698 1.325 . S
C696 C699 1.357 . S
C697 H665 0.928 . S
C697 C695 1.406 . S
C697 N698 1.261 . S
N698 Co649 2.214 . S
N698 C696 1.325 . S
N698 C697 1.261 . S
C699 H669 0.931 . S
C699 C696 1.357 . S
C699 C700 1.312 . S
C700 H671 0.930 . S
C700 C695 1.261 . S
C700 C699 1.312 . S
C701 O673 1.214 . S
C701 O681 1.234 . S
C702 H674 0.929 . S
C702 C705 1.391 . S
C702 C707 1.391 . S
C703 H675 0.929 . S
C703 C704 1.390 . S
C703 N706 1.391 . S
C704 H676 0.930 . S
C704 C703 1.390 . S
C704 C705 1.392 . S
C705 H677 0.929 . S
C705 C702 1.391 . S
C705 C704 1.392 . S
N706 Co650 2.257 . S
N706 C703 1.391 . S
N706 C707 1.388 . S
C707 H678 0.930 . S
C707 C702 1.391 . S
C707 N706 1.388 . S
Co708 O710 2.143 . S
Co708 O716 2.074 . S
Co708 O719 2.093 . S
Co708 O732 2.097 . S
Co708 N749 2.151 . S
Co708 N757 2.214 . S
Co709 O710 2.160 . S
Co709 O715 2.058 . S
Co709 O725 2.057 . S
Co709 O740 2.037 . S
Co709 N744 2.145 . S
Co709 N765 2.257 . S
O710 Co708 2.143 . S
O710 Co709 2.160 . S
C711 O712 1.278 . S
C711 O719 1.224 . S
O712 C711 1.278 . S
C713 O714 1.245 . S
C713 O725 1.232 . S
O714 C713 1.245 . S
O715 Co709 2.058 . S
O715 C741 1.269 . S
O716 Co708 2.074 . S
O716 C741 1.257 . S
H717 C742 0.930 . S
H718 C748 0.930 . S
O719 Co708 2.093 . S
O719 C711 1.224 . S
H720 C752 0.929 . S
H721 C754 0.930 . S
H722 C755 0.930 . S
H723 C753 0.929 . S
H724 C756 0.928 . S
O725 Co709 2.057 . S
O725 C713 1.232 . S
H726 C745 0.929 . S
H727 C746 0.929 . S
H728 C758 0.931 . S
H729 C750 0.929 . S
H730 C759 0.930 . S
H731 C751 0.931 . S
O732 Co708 2.097 . S
O732 C760 1.214 . S
H733 C761 0.929 . S
H734 C762 0.929 . S
H735 C763 0.930 . S
H736 C764 0.929 . S
H737 C766 0.930 . S
H738 C743 0.930 . S
H739 C747 0.930 . S
O740 Co709 2.037 . S
O740 C760 1.234 . S
C741 O715 1.269 . S
C741 O716 1.257 . S
C742 H717 0.930 . S
C742 C745 1.388 . S
C742 C747 1.418 . S
C743 H738 0.930 . S
C743 C746 1.404 . S
C743 C747 1.353 . S
N744 Co709 2.145 . S
N744 C745 1.397 . S
N744 C746 1.334 . S
C745 H726 0.929 . S
C745 C742 1.388 . S
C745 N744 1.397 . S
C746 H727 0.929 . S
C746 C743 1.404 . S
C746 N744 1.334 . S
C747 H739 0.930 . S
C747 C742 1.418 . S
C747 C743 1.353 . S
C748 H718 0.930 . S
C748 N749 1.330 . S
C748 C750 1.446 . S
N749 Co708 2.151 . S
N749 C748 1.330 . S
N749 C753 1.418 . S
C750 H729 0.929 . S
C750 C748 1.446 . S
C750 C751 1.332 . S
C751 H731 0.931 . S
C751 C750 1.332 . S
C751 C752 1.267 . S
C752 H720 0.929 . S
C752 C751 1.267 . S
C752 C753 1.251 . S
C753 H723 0.929 . S
C753 N749 1.418 . S
C753 C752 1.251 . S
C754 H721 0.930 . S
C754 C756 1.406 . S
C754 C759 1.261 . S
C755 H722 0.930 . S
C755 N757 1.325 . S
C755 C758 1.357 . S
C756 H724 0.928 . S
C756 C754 1.406 . S
C756 N757 1.261 . S
N757 Co708 2.214 . S
N757 C755 1.325 . S
N757 C756 1.261 . S
C758 H728 0.931 . S
C758 C755 1.357 . S
C758 C759 1.312 . S
C759 H730 0.930 . S
C759 C754 1.261 . S
C759 C758 1.312 . S
C760 O732 1.214 . S
C760 O740 1.234 . S
C761 H733 0.929 . S
C761 C764 1.391 . S
C761 C766 1.391 . S
C762 H734 0.929 . S
C762 C763 1.390 . S
C762 N765 1.391 . S
C763 H735 0.930 . S
C763 C762 1.390 . S
C763 C764 1.392 . S
C764 H736 0.929 . S
C764 C761 1.391 . S
C764 C763 1.392 . S
N765 Co709 2.257 . S
N765 C762 1.391 . S
N765 C766 1.388 . S
C766 H737 0.930 . S
C766 C761 1.391 . S
C766 N765 1.388 . S
Co767 O769 2.143 . S
Co767 O775 2.074 . S
Co767 O778 2.093 . S
Co767 O791 2.097 . S
Co767 N808 2.151 . S
Co767 N816 2.214 . S
Co768 O769 2.160 . S
Co768 O774 2.058 . S
Co768 O784 2.057 . S
Co768 O799 2.037 . S
Co768 N803 2.145 . S
Co768 N824 2.257 . S
O769 Co767 2.143 . S
O769 Co768 2.160 . S
C770 O771 1.278 . S
C770 O778 1.224 . S
O771 C770 1.278 . S
C772 O773 1.245 . S
C772 O784 1.232 . S
O773 C772 1.245 . S
O774 Co768 2.058 . S
O774 C800 1.269 . S
O775 Co767 2.074 . S
O775 C800 1.257 . S
H776 C801 0.930 . S
H777 C807 0.930 . S
O778 Co767 2.093 . S
O778 C770 1.224 . S
H779 C811 0.929 . S
H780 C813 0.930 . S
H781 C814 0.930 . S
H782 C812 0.929 . S
H783 C815 0.928 . S
O784 Co768 2.057 . S
O784 C772 1.232 . S
H785 C804 0.929 . S
H786 C805 0.929 . S
H787 C817 0.931 . S
H788 C809 0.929 . S
H789 C818 0.930 . S
H790 C810 0.931 . S
O791 Co767 2.097 . S
O791 C819 1.214 . S
H792 C820 0.929 . S
H793 C821 0.929 . S
H794 C822 0.930 . S
H795 C823 0.929 . S
H796 C825 0.930 . S
H797 C802 0.930 . S
H798 C806 0.930 . S
O799 Co768 2.037 . S
O799 C819 1.234 . S
C800 O774 1.269 . S
C800 O775 1.257 . S
C801 H776 0.930 . S
C801 C804 1.388 . S
C801 C806 1.418 . S
C802 H797 0.930 . S
C802 C805 1.404 . S
C802 C806 1.353 . S
N803 Co768 2.145 . S
N803 C804 1.397 . S
N803 C805 1.334 . S
C804 H785 0.929 . S
C804 C801 1.388 . S
C804 N803 1.397 . S
C805 H786 0.929 . S
C805 C802 1.404 . S
C805 N803 1.334 . S
C806 H798 0.930 . S
C806 C801 1.418 . S
C806 C802 1.353 . S
C807 H777 0.930 . S
C807 N808 1.330 . S
C807 C809 1.446 . S
N808 Co767 2.151 . S
N808 C807 1.330 . S
N808 C812 1.418 . S
C809 H788 0.929 . S
C809 C807 1.446 . S
C809 C810 1.332 . S
C810 H790 0.931 . S
C810 C809 1.332 . S
C810 C811 1.267 . S
C811 H779 0.929 . S
C811 C810 1.267 . S
C811 C812 1.251 . S
C812 H782 0.929 . S
C812 N808 1.418 . S
C812 C811 1.251 . S
C813 H780 0.930 . S
C813 C815 1.406 . S
C813 C818 1.261 . S
C814 H781 0.930 . S
C814 N816 1.325 . S
C814 C817 1.357 . S
C815 H783 0.928 . S
C815 C813 1.406 . S
C815 N816 1.261 . S
N816 Co767 2.214 . S
N816 C814 1.325 . S
N816 C815 1.261 . S
C817 H787 0.931 . S
C817 C814 1.357 . S
C817 C818 1.312 . S
C818 H789 0.930 . S
C818 C813 1.261 . S
C818 C817 1.312 . S
C819 O791 1.214 . S
C819 O799 1.234 . S
C820 H792 0.929 . S
C820 C823 1.391 . S
C820 C825 1.391 . S
C821 H793 0.929 . S
C821 C822 1.390 . S
C821 N824 1.391 . S
C822 H794 0.930 . S
C822 C821 1.390 . S
C822 C823 1.392 . S
C823 H795 0.929 . S
C823 C820 1.391 . S
C823 C822 1.392 . S
N824 Co768 2.257 . S
N824 C821 1.391 . S
N824 C825 1.388 . S
C825 H796 0.930 . S
C825 C820 1.391 . S
C825 N824 1.388 . S
Co826 O828 2.143 . S
Co826 O834 2.074 . S
Co826 O837 2.093 . S
Co826 O850 2.097 . S
Co826 N867 2.151 . S
Co826 N875 2.214 . S
Co827 O828 2.160 . S
Co827 O833 2.058 . S
Co827 O843 2.057 . S
Co827 O858 2.037 . S
Co827 N862 2.145 . S
Co827 N883 2.257 . S
O828 Co826 2.143 . S
O828 Co827 2.160 . S
C829 O830 1.278 . S
C829 O837 1.224 . S
O830 C829 1.278 . S
C831 O832 1.245 . S
C831 O843 1.232 . S
O832 C831 1.245 . S
O833 Co827 2.058 . S
O833 C859 1.269 . S
O834 Co826 2.074 . S
O834 C859 1.257 . S
H835 C860 0.930 . S
H836 C866 0.930 . S
O837 Co826 2.093 . S
O837 C829 1.224 . S
H838 C870 0.929 . S
H839 C872 0.930 . S
H840 C873 0.930 . S
H841 C871 0.929 . S
H842 C874 0.928 . S
O843 Co827 2.057 . S
O843 C831 1.232 . S
H844 C863 0.929 . S
H845 C864 0.929 . S
H846 C876 0.931 . S
H847 C868 0.929 . S
H848 C877 0.930 . S
H849 C869 0.931 . S
O850 Co826 2.097 . S
O850 C878 1.214 . S
H851 C879 0.929 . S
H852 C880 0.929 . S
H853 C881 0.930 . S
H854 C882 0.929 . S
H855 C884 0.930 . S
H856 C861 0.930 . S
H857 C865 0.930 . S
O858 Co827 2.037 . S
O858 C878 1.234 . S
C859 O833 1.269 . S
C859 O834 1.257 . S
C860 H835 0.930 . S
C860 C863 1.388 . S
C860 C865 1.418 . S
C861 H856 0.930 . S
C861 C864 1.404 . S
C861 C865 1.353 . S
N862 Co827 2.145 . S
N862 C863 1.397 . S
N862 C864 1.334 . S
C863 H844 0.929 . S
C863 C860 1.388 . S
C863 N862 1.397 . S
C864 H845 0.929 . S
C864 C861 1.404 . S
C864 N862 1.334 . S
C865 H857 0.930 . S
C865 C860 1.418 . S
C865 C861 1.353 . S
C866 H836 0.930 . S
C866 N867 1.330 . S
C866 C868 1.446 . S
N867 Co826 2.151 . S
N867 C866 1.330 . S
N867 C871 1.418 . S
C868 H847 0.929 . S
C868 C866 1.446 . S
C868 C869 1.332 . S
C869 H849 0.931 . S
C869 C868 1.332 . S
C869 C870 1.267 . S
C870 H838 0.929 . S
C870 C869 1.267 . S
C870 C871 1.251 . S
C871 H841 0.929 . S
C871 N867 1.418 . S
C871 C870 1.251 . S
C872 H839 0.930 . S
C872 C874 1.406 . S
C872 C877 1.261 . S
C873 H840 0.930 . S
C873 N875 1.325 . S
C873 C876 1.357 . S
C874 H842 0.928 . S
C874 C872 1.406 . S
C874 N875 1.261 . S
N875 Co826 2.214 . S
N875 C873 1.325 . S
N875 C874 1.261 . S
C876 H846 0.931 . S
C876 C873 1.357 . S
C876 C877 1.312 . S
C877 H848 0.930 . S
C877 C872 1.261 . S
C877 C876 1.312 . S
C878 O850 1.214 . S
C878 O858 1.234 . S
C879 H851 0.929 . S
C879 C882 1.391 . S
C879 C884 1.391 . S
C880 H852 0.929 . S
C880 C881 1.390 . S
C880 N883 1.391 . S
C881 H853 0.930 . S
C881 C880 1.390 . S
C881 C882 1.392 . S
C882 H854 0.929 . S
C882 C879 1.391 . S
C882 C881 1.392 . S
N883 Co827 2.257 . S
N883 C880 1.391 . S
N883 C884 1.388 . S
C884 H855 0.930 . S
C884 C879 1.391 . S
C884 N883 1.388 . S
Co885 O887 2.143 . S
Co885 O893 2.074 . S
Co885 O896 2.093 . S
Co885 O909 2.097 . S
Co885 N926 2.151 . S
Co885 N934 2.214 . S
Co886 O887 2.160 . S
Co886 O892 2.058 . S
Co886 O902 2.057 . S
Co886 O917 2.037 . S
Co886 N921 2.145 . S
Co886 N942 2.257 . S
O887 Co885 2.143 . S
O887 Co886 2.160 . S
C888 O889 1.278 . S
C888 O896 1.224 . S
O889 C888 1.278 . S
C890 O891 1.245 . S
C890 O902 1.232 . S
O891 C890 1.245 . S
O892 Co886 2.058 . S
O892 C918 1.269 . S
O893 Co885 2.074 . S
O893 C918 1.257 . S
H894 C919 0.930 . S
H895 C925 0.930 . S
O896 Co885 2.093 . S
O896 C888 1.224 . S
H897 C929 0.929 . S
H898 C931 0.930 . S
H899 C932 0.930 . S
H900 C930 0.929 . S
H901 C933 0.928 . S
O902 Co886 2.057 . S
O902 C890 1.232 . S
H903 C922 0.929 . S
H904 C923 0.929 . S
H905 C935 0.931 . S
H906 C927 0.929 . S
H907 C936 0.930 . S
H908 C928 0.931 . S
O909 Co885 2.097 . S
O909 C937 1.214 . S
H910 C938 0.929 . S
H911 C939 0.929 . S
H912 C940 0.930 . S
H913 C941 0.929 . S
H914 C943 0.930 . S
H915 C920 0.930 . S
H916 C924 0.930 . S
O917 Co886 2.037 . S
O917 C937 1.234 . S
C918 O892 1.269 . S
C918 O893 1.257 . S
C919 H894 0.930 . S
C919 C922 1.388 . S
C919 C924 1.418 . S
C920 H915 0.930 . S
C920 C923 1.404 . S
C920 C924 1.353 . S
N921 Co886 2.145 . S
N921 C922 1.397 . S
N921 C923 1.334 . S
C922 H903 0.929 . S
C922 C919 1.388 . S
C922 N921 1.397 . S
C923 H904 0.929 . S
C923 C920 1.404 . S
C923 N921 1.334 . S
C924 H916 0.930 . S
C924 C919 1.418 . S
C924 C920 1.353 . S
C925 H895 0.930 . S
C925 N926 1.330 . S
C925 C927 1.446 . S
N926 Co885 2.151 . S
N926 C925 1.330 . S
N926 C930 1.418 . S
C927 H906 0.929 . S
C927 C925 1.446 . S
C927 C928 1.332 . S
C928 H908 0.931 . S
C928 C927 1.332 . S
C928 C929 1.267 . S
C929 H897 0.929 . S
C929 C928 1.267 . S
C929 C930 1.251 . S
C930 H900 0.929 . S
C930 N926 1.418 . S
C930 C929 1.251 . S
C931 H898 0.930 . S
C931 C933 1.406 . S
C931 C936 1.261 . S
C932 H899 0.930 . S
C932 N934 1.325 . S
C932 C935 1.357 . S
C933 H901 0.928 . S
C933 C931 1.406 . S
C933 N934 1.261 . S
N934 Co885 2.214 . S
N934 C932 1.325 . S
N934 C933 1.261 . S
C935 H905 0.931 . S
C935 C932 1.357 . S
C935 C936 1.312 . S
C936 H907 0.930 . S
C936 C931 1.261 . S
C936 C935 1.312 . S
C937 O909 1.214 . S
C937 O917 1.234 . S
C938 H910 0.929 . S
C938 C941 1.391 . S
C938 C943 1.391 . S
C939 H911 0.929 . S
C939 C940 1.390 . S
C939 N942 1.391 . S
C940 H912 0.930 . S
C940 C939 1.390 . S
C940 C941 1.392 . S
C941 H913 0.929 . S
C941 C938 1.391 . S
C941 C940 1.392 . S
N942 Co886 2.257 . S
N942 C939 1.391 . S
N942 C943 1.388 . S
C943 H914 0.930 . S
C943 C938 1.391 . S
C943 N942 1.388 . S
Co944 O946 2.143 . S
Co944 O952 2.074 . S
Co944 O955 2.093 . S
Co944 O968 2.097 . S
Co944 N985 2.151 . S
Co944 N993 2.214 . S
Co945 O946 2.160 . S
Co945 O951 2.058 . S
Co945 O961 2.057 . S
Co945 O976 2.037 . S
Co945 N980 2.145 . S
Co945 N1001 2.257 . S
O946 Co944 2.143 . S
O946 Co945 2.160 . S
C947 O948 1.278 . S
C947 O955 1.224 . S
O948 C947 1.278 . S
C949 O950 1.245 . S
C949 O961 1.232 . S
O950 C949 1.245 . S
O951 Co945 2.058 . S
O951 C977 1.269 . S
O952 Co944 2.074 . S
O952 C977 1.257 . S
H953 C978 0.930 . S
H954 C984 0.930 . S
O955 Co944 2.093 . S
O955 C947 1.224 . S
H956 C988 0.929 . S
H957 C990 0.930 . S
H958 C991 0.930 . S
H959 C989 0.929 . S
H960 C992 0.928 . S
O961 Co945 2.057 . S
O961 C949 1.232 . S
H962 C981 0.929 . S
H963 C982 0.929 . S
H964 C994 0.931 . S
H965 C986 0.929 . S
H966 C995 0.930 . S
H967 C987 0.931 . S
O968 Co944 2.097 . S
O968 C996 1.214 . S
H969 C997 0.929 . S
H970 C998 0.929 . S
H971 C999 0.930 . S
H972 C1000 0.929 . S
H973 C1002 0.930 . S
H974 C979 0.930 . S
H975 C983 0.930 . S
O976 Co945 2.037 . S
O976 C996 1.234 . S
C977 O951 1.269 . S
C977 O952 1.257 . S
C978 H953 0.930 . S
C978 C981 1.388 . S
C978 C983 1.418 . S
C979 H974 0.930 . S
C979 C982 1.404 . S
C979 C983 1.353 . S
N980 Co945 2.145 . S
N980 C981 1.397 . S
N980 C982 1.334 . S
C981 H962 0.929 . S
C981 C978 1.388 . S
C981 N980 1.397 . S
C982 H963 0.929 . S
C982 C979 1.404 . S
C982 N980 1.334 . S
C983 H975 0.930 . S
C983 C978 1.418 . S
C983 C979 1.353 . S
C984 H954 0.930 . S
C984 N985 1.330 . S
C984 C986 1.446 . S
N985 Co944 2.151 . S
N985 C984 1.330 . S
N985 C989 1.418 . S
C986 H965 0.929 . S
C986 C984 1.446 . S
C986 C987 1.332 . S
C987 H967 0.931 . S
C987 C986 1.332 . S
C987 C988 1.267 . S
C988 H956 0.929 . S
C988 C987 1.267 . S
C988 C989 1.251 . S
C989 H959 0.929 . S
C989 N985 1.418 . S
C989 C988 1.251 . S
C990 H957 0.930 . S
C990 C992 1.406 . S
C990 C995 1.261 . S
C991 H958 0.930 . S
C991 N993 1.325 . S
C991 C994 1.357 . S
C992 H960 0.928 . S
C992 C990 1.406 . S
C992 N993 1.261 . S
N993 Co944 2.214 . S
N993 C991 1.325 . S
N993 C992 1.261 . S
C994 H964 0.931 . S
C994 C991 1.357 . S
C994 C995 1.312 . S
C995 H966 0.930 . S
C995 C990 1.261 . S
C995 C994 1.312 . S
C996 O968 1.214 . S
C996 O976 1.234 . S
C997 H969 0.929 . S
C997 C1000 1.391 . S
C997 C1002 1.391 . S
C998 H970 0.929 . S
C998 C999 1.390 . S
C998 N1001 1.391 . S
C999 H971 0.930 . S
C999 C998 1.390 . S
C999 C1000 1.392 . S
C1000 H972 0.929 . S
C1000 C997 1.391 . S
C1000 C999 1.392 . S
N1001 Co945 2.257 . S
N1001 C998 1.391 . S
N1001 C1002 1.388 . S
C1002 H973 0.930 . S
C1002 C997 1.391 . S
C1002 N1001 1.388 . S
Co1003 O1005 2.143 . S
Co1003 O1011 2.074 . S
Co1003 O1014 2.093 . S
Co1003 O1027 2.097 . S
Co1003 N1044 2.151 . S
Co1003 N1052 2.214 . S
Co1004 O1005 2.160 . S
Co1004 O1010 2.058 . S
Co1004 O1020 2.057 . S
Co1004 O1035 2.037 . S
Co1004 N1039 2.145 . S
Co1004 N1060 2.257 . S
O1005 Co1003 2.143 . S
O1005 Co1004 2.160 . S
C1006 O1007 1.278 . S
C1006 O1014 1.224 . S
O1007 C1006 1.278 . S
C1008 O1009 1.245 . S
C1008 O1020 1.232 . S
O1009 C1008 1.245 . S
O1010 Co1004 2.058 . S
O1010 C1036 1.269 . S
O1011 Co1003 2.074 . S
O1011 C1036 1.257 . S
H1012 C1037 0.930 . S
H1013 C1043 0.930 . S
O1014 Co1003 2.093 . S
O1014 C1006 1.224 . S
H1015 C1047 0.929 . S
H1016 C1049 0.930 . S
H1017 C1050 0.930 . S
H1018 C1048 0.929 . S
H1019 C1051 0.928 . S
O1020 Co1004 2.057 . S
O1020 C1008 1.232 . S
H1021 C1040 0.929 . S
H1022 C1041 0.929 . S
H1023 C1053 0.931 . S
H1024 C1045 0.929 . S
H1025 C1054 0.930 . S
H1026 C1046 0.931 . S
O1027 Co1003 2.097 . S
O1027 C1055 1.214 . S
H1028 C1056 0.929 . S
H1029 C1057 0.929 . S
H1030 C1058 0.930 . S
H1031 C1059 0.929 . S
H1032 C1061 0.930 . S
H1033 C1038 0.930 . S
H1034 C1042 0.930 . S
O1035 Co1004 2.037 . S
O1035 C1055 1.234 . S
C1036 O1010 1.269 . S
C1036 O1011 1.257 . S
C1037 H1012 0.930 . S
C1037 C1040 1.388 . S
C1037 C1042 1.418 . S
C1038 H1033 0.930 . S
C1038 C1041 1.404 . S
C1038 C1042 1.353 . S
N1039 Co1004 2.145 . S
N1039 C1040 1.397 . S
N1039 C1041 1.334 . S
C1040 H1021 0.929 . S
C1040 C1037 1.388 . S
C1040 N1039 1.397 . S
C1041 H1022 0.929 . S
C1041 C1038 1.404 . S
C1041 N1039 1.334 . S
C1042 H1034 0.930 . S
C1042 C1037 1.418 . S
C1042 C1038 1.353 . S
C1043 H1013 0.930 . S
C1043 N1044 1.330 . S
C1043 C1045 1.446 . S
N1044 Co1003 2.151 . S
N1044 C1043 1.330 . S
N1044 C1048 1.418 . S
C1045 H1024 0.929 . S
C1045 C1043 1.446 . S
C1045 C1046 1.332 . S
C1046 H1026 0.931 . S
C1046 C1045 1.332 . S
C1046 C1047 1.267 . S
C1047 H1015 0.929 . S
C1047 C1046 1.267 . S
C1047 C1048 1.251 . S
C1048 H1018 0.929 . S
C1048 N1044 1.418 . S
C1048 C1047 1.251 . S
C1049 H1016 0.930 . S
C1049 C1051 1.406 . S
C1049 C1054 1.261 . S
C1050 H1017 0.930 . S
C1050 N1052 1.325 . S
C1050 C1053 1.357 . S
C1051 H1019 0.928 . S
C1051 C1049 1.406 . S
C1051 N1052 1.261 . S
N1052 Co1003 2.214 . S
N1052 C1050 1.325 . S
N1052 C1051 1.261 . S
C1053 H1023 0.931 . S
C1053 C1050 1.357 . S
C1053 C1054 1.312 . S
C1054 H1025 0.930 . S
C1054 C1049 1.261 . S
C1054 C1053 1.312 . S
C1055 O1027 1.214 . S
C1055 O1035 1.234 . S
C1056 H1028 0.929 . S
C1056 C1059 1.391 . S
C1056 C1061 1.391 . S
C1057 H1029 0.929 . S
C1057 C1058 1.390 . S
C1057 N1060 1.391 . S
C1058 H1030 0.930 . S
C1058 C1057 1.390 . S
C1058 C1059 1.392 . S
C1059 H1031 0.929 . S
C1059 C1056 1.391 . S
C1059 C1058 1.392 . S
N1060 Co1004 2.257 . S
N1060 C1057 1.391 . S
N1060 C1061 1.388 . S
C1061 H1032 0.930 . S
C1061 C1056 1.391 . S
C1061 N1060 1.388 . S
H1062 C1070 0.950 . S
H1063 C1075 0.950 . S
H1064 C1072 0.950 . S
H1065 C1074 0.950 . S
H1066 C1076 0.950 . S
H1067 C1078 0.950 . S
H1068 C1080 0.950 . S
H1069 C1081 0.950 . S
C1070 H1062 0.950 . S
C1070 C1071 1.386 . S
C1070 C1072 1.391 . S
C1071 C1070 1.386 . S
C1071 C1075 1.393 . S
C1072 H1064 0.950 . S
C1072 C1070 1.391 . S
C1072 C1073 1.400 . S
C1073 C1072 1.400 . S
C1073 C1074 1.398 . S
C1073 C1079 1.491 . S
C1074 H1065 0.950 . S
C1074 C1073 1.398 . S
C1074 C1075 1.391 . S
C1075 H1063 0.950 . S
C1075 C1071 1.393 . S
C1075 C1074 1.391 . S
C1076 H1066 0.950 . S
C1076 C1077 1.386 . S
C1076 C1078 1.391 . S
C1077 C1076 1.386 . S
C1077 C1081 1.393 . S
C1078 H1067 0.950 . S
C1078 C1076 1.391 . S
C1078 C1079 1.400 . S
C1079 C1073 1.491 . S
C1079 C1078 1.400 . S
C1079 C1080 1.398 . S
C1080 H1068 0.950 . S
C1080 C1079 1.398 . S
C1080 C1081 1.391 . S
C1081 H1069 0.950 . S
C1081 C1077 1.393 . S
C1081 C1080 1.391 . S
H1082 C1090 0.950 . S
H1083 C1095 0.950 . S
H1084 C1092 0.950 . S
H1085 C1094 0.950 . S
H1086 C1096 0.950 . S
H1087 C1098 0.950 . S
H1088 C1100 0.950 . S
H1089 C1101 0.950 . S
C1090 H1082 0.950 . S
C1090 C1091 1.386 . S
C1090 C1092 1.391 . S
C1091 C1090 1.386 . S
C1091 C1095 1.393 . S
C1092 H1084 0.950 . S
C1092 C1090 1.391 . S
C1092 C1093 1.400 . S
C1093 C1092 1.400 . S
C1093 C1094 1.398 . S
C1093 C1099 1.491 . S
C1094 H1085 0.950 . S
C1094 C1093 1.398 . S
C1094 C1095 1.391 . S
C1095 H1083 0.950 . S
C1095 C1091 1.393 . S
C1095 C1094 1.391 . S
C1096 H1086 0.950 . S
C1096 C1097 1.386 . S
C1096 C1098 1.391 . S
C1097 C1096 1.386 . S
C1097 C1101 1.393 . S
C1098 H1087 0.950 . S
C1098 C1096 1.391 . S
C1098 C1099 1.400 . S
C1099 C1093 1.491 . S
C1099 C1098 1.400 . S
C1099 C1100 1.398 . S
C1100 H1088 0.950 . S
C1100 C1099 1.398 . S
C1100 C1101 1.391 . S
C1101 H1089 0.950 . S
C1101 C1097 1.393 . S
C1101 C1100 1.391 . S
H1102 C1110 0.950 . S
H1103 C1115 0.950 . S
H1104 C1112 0.950 . S
H1105 C1114 0.950 . S
H1106 C1116 0.950 . S
H1107 C1118 0.950 . S
H1108 C1120 0.950 . S
H1109 C1121 0.950 . S
C1110 H1102 0.950 . S
C1110 C1111 1.386 . S
C1110 C1112 1.391 . S
C1111 C1110 1.386 . S
C1111 C1115 1.393 . S
C1112 H1104 0.950 . S
C1112 C1110 1.391 . S
C1112 C1113 1.400 . S
C1113 C1112 1.400 . S
C1113 C1114 1.398 . S
C1113 C1119 1.491 . S
C1114 H1105 0.950 . S
C1114 C1113 1.398 . S
C1114 C1115 1.391 . S
C1115 H1103 0.950 . S
C1115 C1111 1.393 . S
C1115 C1114 1.391 . S
C1116 H1106 0.950 . S
C1116 C1117 1.386 . S
C1116 C1118 1.391 . S
C1117 C1116 1.386 . S
C1117 C1121 1.393 . S
C1118 H1107 0.950 . S
C1118 C1116 1.391 . S
C1118 C1119 1.400 . S
C1119 C1113 1.491 . S
C1119 C1118 1.400 . S
C1119 C1120 1.398 . S
C1120 H1108 0.950 . S
C1120 C1119 1.398 . S
C1120 C1121 1.391 . S
C1121 H1109 0.950 . S
C1121 C1117 1.393 . S
C1121 C1120 1.391 . S
H1122 C1130 0.950 . S
H1123 C1135 0.950 . S
H1124 C1132 0.950 . S
H1125 C1134 0.950 . S
H1126 C1136 0.950 . S
H1127 C1138 0.950 . S
H1128 C1140 0.950 . S
H1129 C1141 0.950 . S
C1130 H1122 0.950 . S
C1130 C1131 1.386 . S
C1130 C1132 1.391 . S
C1131 C1130 1.386 . S
C1131 C1135 1.393 . S
C1132 H1124 0.950 . S
C1132 C1130 1.391 . S
C1132 C1133 1.400 . S
C1133 C1132 1.400 . S
C1133 C1134 1.398 . S
C1133 C1139 1.491 . S
C1134 H1125 0.950 . S
C1134 C1133 1.398 . S
C1134 C1135 1.391 . S
C1135 H1123 0.950 . S
C1135 C1131 1.393 . S
C1135 C1134 1.391 . S
C1136 H1126 0.950 . S
C1136 C1137 1.386 . S
C1136 C1138 1.391 . S
C1137 C1136 1.386 . S
C1137 C1141 1.393 . S
C1138 H1127 0.950 . S
C1138 C1136 1.391 . S
C1138 C1139 1.400 . S
C1139 C1133 1.491 . S
C1139 C1138 1.400 . S
C1139 C1140 1.398 . S
C1140 H1128 0.950 . S
C1140 C1139 1.398 . S
C1140 C1141 1.391 . S
C1141 H1129 0.950 . S
C1141 C1137 1.393 . S
C1141 C1140 1.391 . S
H1142 C1150 0.950 . S
H1143 C1155 0.950 . S
H1144 C1152 0.950 . S
H1145 C1154 0.950 . S
H1146 C1156 0.950 . S
H1147 C1158 0.950 . S
H1148 C1160 0.950 . S
H1149 C1161 0.950 . S
C1150 H1142 0.950 . S
C1150 C1151 1.386 . S
C1150 C1152 1.391 . S
C1151 C1150 1.386 . S
C1151 C1155 1.393 . S
C1152 H1144 0.950 . S
C1152 C1150 1.391 . S
C1152 C1153 1.400 . S
C1153 C1152 1.400 . S
C1153 C1154 1.398 . S
C1153 C1159 1.491 . S
C1154 H1145 0.950 . S
C1154 C1153 1.398 . S
C1154 C1155 1.391 . S
C1155 H1143 0.950 . S
C1155 C1151 1.393 . S
C1155 C1154 1.391 . S
C1156 H1146 0.950 . S
C1156 C1157 1.386 . S
C1156 C1158 1.391 . S
C1157 C1156 1.386 . S
C1157 C1161 1.393 . S
C1158 H1147 0.950 . S
C1158 C1156 1.391 . S
C1158 C1159 1.400 . S
C1159 C1153 1.491 . S
C1159 C1158 1.400 . S
C1159 C1160 1.398 . S
C1160 H1148 0.950 . S
C1160 C1159 1.398 . S
C1160 C1161 1.391 . S
C1161 H1149 0.950 . S
C1161 C1157 1.393 . S
C1161 C1160 1.391 . S
H1162 C1170 0.950 . S
H1163 C1175 0.950 . S
H1164 C1172 0.950 . S
H1165 C1174 0.950 . S
H1166 C1176 0.950 . S
H1167 C1178 0.950 . S
H1168 C1180 0.950 . S
H1169 C1181 0.950 . S
C1170 H1162 0.950 . S
C1170 C1171 1.386 . S
C1170 C1172 1.391 . S
C1171 C1170 1.386 . S
C1171 C1175 1.393 . S
C1172 H1164 0.950 . S
C1172 C1170 1.391 . S
C1172 C1173 1.400 . S
C1173 C1172 1.400 . S
C1173 C1174 1.398 . S
C1173 C1179 1.491 . S
C1174 H1165 0.950 . S
C1174 C1173 1.398 . S
C1174 C1175 1.391 . S
C1175 H1163 0.950 . S
C1175 C1171 1.393 . S
C1175 C1174 1.391 . S
C1176 H1166 0.950 . S
C1176 C1177 1.386 . S
C1176 C1178 1.391 . S
C1177 C1176 1.386 . S
C1177 C1181 1.393 . S
C1178 H1167 0.950 . S
C1178 C1176 1.391 . S
C1178 C1179 1.400 . S
C1179 C1173 1.491 . S
C1179 C1178 1.400 . S
C1179 C1180 1.398 . S
C1180 H1168 0.950 . S
C1180 C1179 1.398 . S
C1180 C1181 1.391 . S
C1181 H1169 0.950 . S
C1181 C1177 1.393 . S
C1181 C1180 1.391 . S
H1182 C1190 0.950 . S
H1183 C1195 0.950 . S
H1184 C1192 0.950 . S
H1185 C1194 0.950 . S
H1186 C1196 0.950 . S
H1187 C1198 0.950 . S
H1188 C1200 0.950 . S
H1189 C1201 0.950 . S
C1190 H1182 0.950 . S
C1190 C1191 1.386 . S
C1190 C1192 1.391 . S
C1191 C1190 1.386 . S
C1191 C1195 1.393 . S
C1192 H1184 0.950 . S
C1192 C1190 1.391 . S
C1192 C1193 1.400 . S
C1193 C1192 1.400 . S
C1193 C1194 1.398 . S
C1193 C1199 1.491 1_655 S
C1194 H1185 0.950 . S
C1194 C1193 1.398 . S
C1194 C1195 1.391 . S
C1195 H1183 0.950 . S
C1195 C1191 1.393 . S
C1195 C1194 1.391 . S
C1196 H1186 0.950 . S
C1196 C1197 1.386 . S
C1196 C1198 1.391 . S
C1197 C1196 1.386 . S
C1197 C1201 1.393 . S
C1198 H1187 0.950 . S
C1198 C1196 1.391 . S
C1198 C1199 1.400 . S
C1199 C1193 1.491 1_455 S
C1199 C1198 1.400 . S
C1199 C1200 1.398 . S
C1200 H1188 0.950 . S
C1200 C1199 1.398 . S
C1200 C1201 1.391 . S
C1201 H1189 0.950 . S
C1201 C1197 1.393 . S
C1201 C1200 1.391 . S
H1202 C1210 0.950 . S
H1203 C1215 0.950 . S
H1204 C1212 0.950 . S
H1205 C1214 0.950 . S
H1206 C1216 0.950 . S
H1207 C1218 0.950 . S
H1208 C1220 0.950 . S
H1209 C1221 0.950 . S
C1210 H1202 0.950 . S
C1210 C1211 1.386 . S
C1210 C1212 1.391 . S
C1211 C1210 1.386 . S
C1211 C1215 1.393 . S
C1212 H1204 0.950 . S
C1212 C1210 1.391 . S
C1212 C1213 1.400 . S
C1213 C1212 1.400 . S
C1213 C1214 1.398 . S
C1213 C1219 1.491 . S
C1214 H1205 0.950 . S
C1214 C1213 1.398 . S
C1214 C1215 1.391 . S
C1215 H1203 0.950 . S
C1215 C1211 1.393 . S
C1215 C1214 1.391 . S
C1216 H1206 0.950 . S
C1216 C1217 1.386 . S
C1216 C1218 1.391 . S
C1217 C1216 1.386 . S
C1217 C1221 1.393 . S
C1218 H1207 0.950 . S
C1218 C1216 1.391 . S
C1218 C1219 1.400 . S
C1219 C1213 1.491 . S
C1219 C1218 1.400 . S
C1219 C1220 1.398 . S
C1220 H1208 0.950 . S
C1220 C1219 1.398 . S
C1220 C1221 1.391 . S
C1221 H1209 0.950 . S
C1221 C1217 1.393 . S
C1221 C1220 1.391 . S
H1222 C1230 0.950 . S
H1223 C1235 0.950 . S
H1224 C1232 0.950 . S
H1225 C1234 0.950 . S
H1226 C1236 0.950 . S
H1227 C1238 0.950 . S
H1228 C1240 0.950 . S
H1229 C1241 0.950 . S
C1230 H1222 0.950 . S
C1230 C1231 1.386 . S
C1230 C1232 1.391 . S
C1231 C1230 1.386 . S
C1231 C1235 1.393 . S
C1232 H1224 0.950 . S
C1232 C1230 1.391 . S
C1232 C1233 1.400 . S
C1233 C1232 1.400 . S
C1233 C1234 1.398 . S
C1233 C1239 1.491 1_545 S
C1234 H1225 0.950 . S
C1234 C1233 1.398 . S
C1234 C1235 1.391 . S
C1235 H1223 0.950 . S
C1235 C1231 1.393 . S
C1235 C1234 1.391 . S
C1236 H1226 0.950 . S
C1236 C1237 1.386 . S
C1236 C1238 1.391 . S
C1237 C1236 1.386 . S
C1237 C1241 1.393 . S
C1238 H1227 0.950 . S
C1238 C1236 1.391 . S
C1238 C1239 1.400 . S
C1239 C1233 1.491 1_565 S
C1239 C1238 1.400 . S
C1239 C1240 1.398 . S
C1240 H1228 0.950 . S
C1240 C1239 1.398 . S
C1240 C1241 1.391 . S
C1241 H1229 0.950 . S
C1241 C1237 1.393 . S
C1241 C1240 1.391 . S
H1242 C1250 0.950 . S
H1243 C1255 0.950 . S
H1244 C1252 0.950 . S
H1245 C1254 0.950 . S
H1246 C1256 0.950 . S
H1247 C1258 0.950 . S
H1248 C1260 0.950 . S
H1249 C1261 0.950 . S
C1250 H1242 0.950 . S
C1250 C1251 1.386 . S
C1250 C1252 1.391 . S
C1251 C1250 1.386 . S
C1251 C1255 1.393 . S
C1252 H1244 0.950 . S
C1252 C1250 1.391 . S
C1252 C1253 1.400 . S
C1253 C1252 1.400 . S
C1253 C1254 1.398 . S
C1253 C1259 1.491 1_455 S
C1254 H1245 0.950 . S
C1254 C1253 1.398 . S
C1254 C1255 1.391 . S
C1255 H1243 0.950 . S
C1255 C1251 1.393 . S
C1255 C1254 1.391 . S
C1256 H1246 0.950 . S
C1256 C1257 1.386 . S
C1256 C1258 1.391 . S
C1257 C1256 1.386 . S
C1257 C1261 1.393 . S
C1258 H1247 0.950 . S
C1258 C1256 1.391 . S
C1258 C1259 1.400 . S
C1259 C1253 1.491 1_655 S
C1259 C1258 1.400 . S
C1259 C1260 1.398 . S
C1260 H1248 0.950 . S
C1260 C1259 1.398 . S
C1260 C1261 1.391 . S
C1261 H1249 0.950 . S
C1261 C1257 1.393 . S
C1261 C1260 1.391 . S
H1262 C1270 0.950 . S
H1263 C1275 0.950 . S
H1264 C1272 0.950 . S
H1265 C1274 0.950 . S
H1266 C1276 0.950 . S
H1267 C1278 0.950 . S
H1268 C1280 0.950 . S
H1269 C1281 0.950 . S
C1270 H1262 0.950 . S
C1270 C1271 1.386 . S
C1270 C1272 1.391 . S
C1271 C1270 1.386 . S
C1271 C1275 1.393 . S
C1272 H1264 0.950 . S
C1272 C1270 1.391 . S
C1272 C1273 1.400 . S
C1273 C1272 1.400 . S
C1273 C1274 1.398 . S
C1273 C1279 1.491 . S
C1274 H1265 0.950 . S
C1274 C1273 1.398 . S
C1274 C1275 1.391 . S
C1275 H1263 0.950 . S
C1275 C1271 1.393 . S
C1275 C1274 1.391 . S
C1276 H1266 0.950 . S
C1276 C1277 1.386 . S
C1276 C1278 1.391 . S
C1277 C1276 1.386 . S
C1277 C1281 1.393 . S
C1278 H1267 0.950 . S
C1278 C1276 1.391 . S
C1278 C1279 1.400 . S
C1279 C1273 1.491 . S
C1279 C1278 1.400 . S
C1279 C1280 1.398 . S
C1280 H1268 0.950 . S
C1280 C1279 1.398 . S
C1280 C1281 1.391 . S
C1281 H1269 0.950 . S
C1281 C1277 1.393 . S
C1281 C1280 1.391 . S
H1282 C1290 0.950 . S
H1283 C1295 0.950 . S
H1284 C1292 0.950 . S
H1285 C1294 0.950 . S
H1286 C1296 0.950 . S
H1287 C1298 0.950 . S
H1288 C1300 0.950 . S
H1289 C1301 0.950 . S
C1290 H1282 0.950 . S
C1290 C1291 1.386 . S
C1290 C1292 1.391 . S
C1291 C1290 1.386 . S
C1291 C1295 1.393 . S
C1292 H1284 0.950 . S
C1292 C1290 1.391 . S
C1292 C1293 1.400 . S
C1293 C1292 1.400 . S
C1293 C1294 1.398 . S
C1293 C1299 1.491 1_545 S
C1294 H1285 0.950 . S
C1294 C1293 1.398 . S
C1294 C1295 1.391 . S
C1295 H1283 0.950 . S
C1295 C1291 1.393 . S
C1295 C1294 1.391 . S
C1296 H1286 0.950 . S
C1296 C1297 1.386 . S
C1296 C1298 1.391 . S
C1297 C1296 1.386 . S
C1297 C1301 1.393 . S
C1298 H1287 0.950 . S
C1298 C1296 1.391 . S
C1298 C1299 1.400 . S
C1299 C1293 1.491 1_565 S
C1299 C1298 1.400 . S
C1299 C1300 1.398 . S
C1300 H1288 0.950 . S
C1300 C1299 1.398 . S
C1300 C1301 1.391 . S
C1301 H1289 0.950 . S
C1301 C1297 1.393 . S
C1301 C1300 1.391 . S
H1302 C1310 0.950 . S
H1303 C1315 0.950 . S
H1304 C1312 0.950 . S
H1305 C1314 0.950 . S
H1306 C1316 0.950 . S
H1307 C1318 0.950 . S
H1308 C1320 0.950 . S
H1309 C1321 0.950 . S
C1310 H1302 0.950 . S
C1310 C1311 1.386 . S
C1310 C1312 1.391 . S
C1311 C1310 1.386 . S
C1311 C1315 1.393 . S
C1312 H1304 0.950 . S
C1312 C1310 1.391 . S
C1312 C1313 1.400 . S
C1313 C1312 1.400 . S
C1313 C1314 1.398 . S
C1313 C1319 1.491 1_565 S
C1314 H1305 0.950 . S
C1314 C1313 1.398 . S
C1314 C1315 1.391 . S
C1315 H1303 0.950 . S
C1315 C1311 1.393 . S
C1315 C1314 1.391 . S
C1316 H1306 0.950 . S
C1316 C1317 1.386 . S
C1316 C1318 1.391 . S
C1317 C1316 1.386 . S
C1317 C1321 1.393 . S
C1318 H1307 0.950 . S
C1318 C1316 1.391 . S
C1318 C1319 1.400 . S
C1319 C1313 1.491 1_545 S
C1319 C1318 1.400 . S
C1319 C1320 1.398 . S
C1320 H1308 0.950 . S
C1320 C1319 1.398 . S
C1320 C1321 1.391 . S
C1321 H1309 0.950 . S
C1321 C1317 1.393 . S
C1321 C1320 1.391 . S
H1322 C1330 0.950 . S
H1323 C1335 0.950 . S
H1324 C1332 0.950 . S
H1325 C1334 0.950 . S
H1326 C1336 0.950 . S
H1327 C1338 0.950 . S
H1328 C1340 0.950 . S
H1329 C1341 0.950 . S
C1330 H1322 0.950 . S
C1330 C1331 1.386 . S
C1330 C1332 1.391 . S
C1331 C1330 1.386 . S
C1331 C1335 1.393 . S
C1332 H1324 0.950 . S
C1332 C1330 1.391 . S
C1332 C1333 1.400 . S
C1333 C1332 1.400 . S
C1333 C1334 1.398 . S
C1333 C1339 1.491 1_455 S
C1334 H1325 0.950 . S
C1334 C1333 1.398 . S
C1334 C1335 1.391 . S
C1335 H1323 0.950 . S
C1335 C1331 1.393 . S
C1335 C1334 1.391 . S
C1336 H1326 0.950 . S
C1336 C1337 1.386 . S
C1336 C1338 1.391 . S
C1337 C1336 1.386 . S
C1337 C1341 1.393 . S
C1338 H1327 0.950 . S
C1338 C1336 1.391 . S
C1338 C1339 1.400 . S
C1339 C1333 1.491 1_655 S
C1339 C1338 1.400 . S
C1339 C1340 1.398 . S
C1340 H1328 0.950 . S
C1340 C1339 1.398 . S
C1340 C1341 1.391 . S
C1341 H1329 0.950 . S
C1341 C1337 1.393 . S
C1341 C1340 1.391 . S
H1342 C1350 0.950 . S
H1343 C1355 0.950 . S
H1344 C1352 0.950 . S
H1345 C1354 0.950 . S
H1346 C1356 0.950 . S
H1347 C1358 0.950 . S
H1348 C1360 0.950 . S
H1349 C1361 0.950 . S
C1350 H1342 0.950 . S
C1350 C1351 1.386 . S
C1350 C1352 1.391 . S
C1351 C1350 1.386 . S
C1351 C1355 1.393 . S
C1352 H1344 0.950 . S
C1352 C1350 1.391 . S
C1352 C1353 1.400 . S
C1353 C1352 1.400 . S
C1353 C1354 1.398 . S
C1353 C1359 1.491 . S
C1354 H1345 0.950 . S
C1354 C1353 1.398 . S
C1354 C1355 1.391 . S
C1355 H1343 0.950 . S
C1355 C1351 1.393 . S
C1355 C1354 1.391 . S
C1356 H1346 0.950 . S
C1356 C1357 1.386 . S
C1356 C1358 1.391 . S
C1357 C1356 1.386 . S
C1357 C1361 1.393 . S
C1358 H1347 0.950 . S
C1358 C1356 1.391 . S
C1358 C1359 1.400 . S
C1359 C1353 1.491 . S
C1359 C1358 1.400 . S
C1359 C1360 1.398 . S
C1360 H1348 0.950 . S
C1360 C1359 1.398 . S
C1360 C1361 1.391 . S
C1361 H1349 0.950 . S
C1361 C1357 1.393 . S
C1361 C1360 1.391 . S
H1362 C1370 0.950 . S
H1363 C1375 0.950 . S
H1364 C1372 0.950 . S
H1365 C1374 0.950 . S
H1366 C1376 0.950 . S
H1367 C1378 0.950 . S
H1368 C1380 0.950 . S
H1369 C1381 0.950 . S
C1370 H1362 0.950 . S
C1370 C1371 1.386 . S
C1370 C1372 1.391 . S
C1371 C1370 1.386 . S
C1371 C1375 1.393 . S
C1372 H1364 0.950 . S
C1372 C1370 1.391 . S
C1372 C1373 1.400 . S
C1373 C1372 1.400 . S
C1373 C1374 1.398 . S
C1373 C1379 1.491 . S
C1374 H1365 0.950 . S
C1374 C1373 1.398 . S
C1374 C1375 1.391 . S
C1375 H1363 0.950 . S
C1375 C1371 1.393 . S
C1375 C1374 1.391 . S
C1376 H1366 0.950 . S
C1376 C1377 1.386 . S
C1376 C1378 1.391 . S
C1377 C1376 1.386 . S
C1377 C1381 1.393 . S
C1378 H1367 0.950 . S
C1378 C1376 1.391 . S
C1378 C1379 1.400 . S
C1379 C1373 1.491 . S
C1379 C1378 1.400 . S
C1379 C1380 1.398 . S
C1380 H1368 0.950 . S
C1380 C1379 1.398 . S
C1380 C1381 1.391 . S
C1381 H1369 0.950 . S
C1381 C1377 1.393 . S
C1381 C1380 1.391 . S
H1382 C1390 0.950 . S
H1383 C1395 0.950 . S
H1384 C1392 0.950 . S
H1385 C1394 0.950 . S
H1386 C1396 0.950 . S
H1387 C1398 0.950 . S
H1388 C1400 0.950 . S
H1389 C1401 0.950 . S
C1390 H1382 0.950 . S
C1390 C1391 1.386 . S
C1390 C1392 1.391 . S
C1391 C1390 1.386 . S
C1391 C1395 1.393 . S
C1392 H1384 0.950 . S
C1392 C1390 1.391 . S
C1392 C1393 1.400 . S
C1393 C1392 1.400 . S
C1393 C1394 1.398 . S
C1393 C1399 1.491 . S
C1394 H1385 0.950 . S
C1394 C1393 1.398 . S
C1394 C1395 1.391 . S
C1395 H1383 0.950 . S
C1395 C1391 1.393 . S
C1395 C1394 1.391 . S
C1396 H1386 0.950 . S
C1396 C1397 1.386 . S
C1396 C1398 1.391 . S
C1397 C1396 1.386 . S
C1397 C1401 1.393 . S
C1398 H1387 0.950 . S
C1398 C1396 1.391 . S
C1398 C1399 1.400 . S
C1399 C1393 1.491 . S
C1399 C1398 1.400 . S
C1399 C1400 1.398 . S
C1400 H1388 0.950 . S
C1400 C1399 1.398 . S
C1400 C1401 1.391 . S
C1401 H1389 0.950 . S
C1401 C1397 1.393 . S
C1401 C1400 1.391 . S
H1402 C1410 0.950 . S
H1403 C1415 0.950 . S
H1404 C1412 0.950 . S
H1405 C1414 0.950 . S
H1406 C1416 0.950 . S
H1407 C1418 0.950 . S
H1408 C1420 0.950 . S
H1409 C1421 0.950 . S
C1410 H1402 0.950 . S
C1410 C1411 1.386 . S
C1410 C1412 1.391 . S
C1411 C1410 1.386 . S
C1411 C1415 1.393 . S
C1412 H1404 0.950 . S
C1412 C1410 1.391 . S
C1412 C1413 1.400 . S
C1413 C1412 1.400 . S
C1413 C1414 1.398 . S
C1413 C1419 1.491 . S
C1414 H1405 0.950 . S
C1414 C1413 1.398 . S
C1414 C1415 1.391 . S
C1415 H1403 0.950 . S
C1415 C1411 1.393 . S
C1415 C1414 1.391 . S
C1416 H1406 0.950 . S
C1416 C1417 1.386 . S
C1416 C1418 1.391 . S
C1417 C1416 1.386 . S
C1417 C1421 1.393 . S
C1418 H1407 0.950 . S
C1418 C1416 1.391 . S
C1418 C1419 1.400 . S
C1419 C1413 1.491 . S
C1419 C1418 1.400 . S
C1419 C1420 1.398 . S
C1420 H1408 0.950 . S
C1420 C1419 1.398 . S
C1420 C1421 1.391 . S
C1421 H1409 0.950 . S
C1421 C1417 1.393 . S
C1421 C1420 1.391 . S
H1422 C1430 0.950 . S
H1423 C1435 0.950 . S
H1424 C1432 0.950 . S
H1425 C1434 0.950 . S
H1426 C1436 0.950 . S
H1427 C1438 0.950 . S
H1428 C1440 0.950 . S
H1429 C1441 0.950 . S
C1430 H1422 0.950 . S
C1430 C1431 1.386 . S
C1430 C1432 1.391 . S
C1431 C1430 1.386 . S
C1431 C1435 1.393 . S
C1432 H1424 0.950 . S
C1432 C1430 1.391 . S
C1432 C1433 1.400 . S
C1433 C1432 1.400 . S
C1433 C1434 1.398 . S
C1433 C1439 1.491 . S
C1434 H1425 0.950 . S
C1434 C1433 1.398 . S
C1434 C1435 1.391 . S
C1435 H1423 0.950 . S
C1435 C1431 1.393 . S
C1435 C1434 1.391 . S
C1436 H1426 0.950 . S
C1436 C1437 1.386 . S
C1436 C1438 1.391 . S
C1437 C1436 1.386 . S
C1437 C1441 1.393 . S
C1438 H1427 0.950 . S
C1438 C1436 1.391 . S
C1438 C1439 1.400 . S
C1439 C1433 1.491 . S
C1439 C1438 1.400 . S
C1439 C1440 1.398 . S
C1440 H1428 0.950 . S
C1440 C1439 1.398 . S
C1440 C1441 1.391 . S
C1441 H1429 0.950 . S
C1441 C1437 1.393 . S
C1441 C1440 1.391 . S
H1442 C1450 0.950 . S
H1443 C1455 0.950 . S
H1444 C1452 0.950 . S
H1445 C1454 0.950 . S
H1446 C1456 0.950 . S
H1447 C1458 0.950 . S
H1448 C1460 0.950 . S
H1449 C1461 0.950 . S
C1450 H1442 0.950 . S
C1450 C1451 1.386 . S
C1450 C1452 1.391 . S
C1451 C1450 1.386 . S
C1451 C1455 1.393 . S
C1452 H1444 0.950 . S
C1452 C1450 1.391 . S
C1452 C1453 1.400 . S
C1453 C1452 1.400 . S
C1453 C1454 1.398 . S
C1453 C1459 1.491 . S
C1454 H1445 0.950 . S
C1454 C1453 1.398 . S
C1454 C1455 1.391 . S
C1455 H1443 0.950 . S
C1455 C1451 1.393 . S
C1455 C1454 1.391 . S
C1456 H1446 0.950 . S
C1456 C1457 1.386 . S
C1456 C1458 1.391 . S
C1457 C1456 1.386 . S
C1457 C1461 1.393 . S
C1458 H1447 0.950 . S
C1458 C1456 1.391 . S
C1458 C1459 1.400 . S
C1459 C1453 1.491 . S
C1459 C1458 1.400 . S
C1459 C1460 1.398 . S
C1460 H1448 0.950 . S
C1460 C1459 1.398 . S
C1460 C1461 1.391 . S
C1461 H1449 0.950 . S
C1461 C1457 1.393 . S
C1461 C1460 1.391 . S
H1462 C1470 0.950 . S
H1463 C1475 0.950 . S
H1464 C1472 0.950 . S
H1465 C1474 0.950 . S
H1466 C1476 0.950 . S
H1467 C1478 0.950 . S
H1468 C1480 0.950 . S
H1469 C1481 0.950 . S
C1470 H1462 0.950 . S
C1470 C1471 1.386 . S
C1470 C1472 1.391 . S
C1471 C1470 1.386 . S
C1471 C1475 1.393 . S
C1472 H1464 0.950 . S
C1472 C1470 1.391 . S
C1472 C1473 1.400 . S
C1473 C1472 1.400 . S
C1473 C1474 1.398 . S
C1473 C1479 1.491 . S
C1474 H1465 0.950 . S
C1474 C1473 1.398 . S
C1474 C1475 1.391 . S
C1475 H1463 0.950 . S
C1475 C1471 1.393 . S
C1475 C1474 1.391 . S
C1476 H1466 0.950 . S
C1476 C1477 1.386 . S
C1476 C1478 1.391 . S
C1477 C1476 1.386 . S
C1477 C1481 1.393 . S
C1478 H1467 0.950 . S
C1478 C1476 1.391 . S
C1478 C1479 1.400 . S
C1479 C1473 1.491 . S
C1479 C1478 1.400 . S
C1479 C1480 1.398 . S
C1480 H1468 0.950 . S
C1480 C1479 1.398 . S
C1480 C1481 1.391 . S
C1481 H1469 0.950 . S
C1481 C1477 1.393 . S
C1481 C1480 1.391 . S
H1482 C1490 0.950 . S
H1483 C1495 0.950 . S
H1484 C1492 0.950 . S
H1485 C1494 0.950 . S
H1486 C1496 0.950 . S
H1487 C1498 0.950 . S
H1488 C1500 0.950 . S
H1489 C1501 0.950 . S
C1490 H1482 0.950 . S
C1490 C1491 1.386 . S
C1490 C1492 1.391 . S
C1491 C1490 1.386 . S
C1491 C1495 1.393 . S
C1492 H1484 0.950 . S
C1492 C1490 1.391 . S
C1492 C1493 1.400 . S
C1493 C1492 1.400 . S
C1493 C1494 1.398 . S
C1493 C1499 1.491 . S
C1494 H1485 0.950 . S
C1494 C1493 1.398 . S
C1494 C1495 1.391 . S
C1495 H1483 0.950 . S
C1495 C1491 1.393 . S
C1495 C1494 1.391 . S
C1496 H1486 0.950 . S
C1496 C1497 1.386 . S
C1496 C1498 1.391 . S
C1497 C1496 1.386 . S
C1497 C1501 1.393 . S
C1498 H1487 0.950 . S
C1498 C1496 1.391 . S
C1498 C1499 1.400 . S
C1499 C1493 1.491 . S
C1499 C1498 1.400 . S
C1499 C1500 1.398 . S
C1500 H1488 0.950 . S
C1500 C1499 1.398 . S
C1500 C1501 1.391 . S
C1501 H1489 0.950 . S
C1501 C1497 1.393 . S
C1501 C1500 1.391 . S
H1502 C1510 0.950 . S
H1503 C1515 0.950 . S
H1504 C1512 0.950 . S
H1505 C1514 0.950 . S
H1506 C1516 0.950 . S
H1507 C1518 0.950 . S
H1508 C1520 0.950 . S
H1509 C1521 0.950 . S
C1510 H1502 0.950 . S
C1510 C1511 1.386 . S
C1510 C1512 1.391 . S
C1511 C1510 1.386 . S
C1511 C1515 1.393 . S
C1512 H1504 0.950 . S
C1512 C1510 1.391 . S
C1512 C1513 1.400 . S
C1513 C1512 1.400 . S
C1513 C1514 1.398 . S
C1513 C1519 1.491 . S
C1514 H1505 0.950 . S
C1514 C1513 1.398 . S
C1514 C1515 1.391 . S
C1515 H1503 0.950 . S
C1515 C1511 1.393 . S
C1515 C1514 1.391 . S
C1516 H1506 0.950 . S
C1516 C1517 1.386 . S
C1516 C1518 1.391 . S
C1517 C1516 1.386 . S
C1517 C1521 1.393 . S
C1518 H1507 0.950 . S
C1518 C1516 1.391 . S
C1518 C1519 1.400 . S
C1519 C1513 1.491 . S
C1519 C1518 1.400 . S
C1519 C1520 1.398 . S
C1520 H1508 0.950 . S
C1520 C1519 1.398 . S
C1520 C1521 1.391 . S
C1521 H1509 0.950 . S
C1521 C1517 1.393 . S
C1521 C1520 1.391 . S
H1522 C1530 0.950 . S
H1523 C1535 0.950 . S
H1524 C1532 0.950 . S
H1525 C1534 0.950 . S
H1526 C1536 0.950 . S
H1527 C1538 0.950 . S
H1528 C1540 0.950 . S
H1529 C1541 0.950 . S
C1530 H1522 0.950 . S
C1530 C1531 1.386 . S
C1530 C1532 1.391 . S
C1531 C1530 1.386 . S
C1531 C1535 1.393 . S
C1532 H1524 0.950 . S
C1532 C1530 1.391 . S
C1532 C1533 1.400 . S
C1533 C1532 1.400 . S
C1533 C1534 1.398 . S
C1533 C1539 1.491 . S
C1534 H1525 0.950 . S
C1534 C1533 1.398 . S
C1534 C1535 1.391 . S
C1535 H1523 0.950 . S
C1535 C1531 1.393 . S
C1535 C1534 1.391 . S
C1536 H1526 0.950 . S
C1536 C1537 1.386 . S
C1536 C1538 1.391 . S
C1537 C1536 1.386 . S
C1537 C1541 1.393 . S
C1538 H1527 0.950 . S
C1538 C1536 1.391 . S
C1538 C1539 1.400 . S
C1539 C1533 1.491 . S
C1539 C1538 1.400 . S
C1539 C1540 1.398 . S
C1540 H1528 0.950 . S
C1540 C1539 1.398 . S
C1540 C1541 1.391 . S
C1541 H1529 0.950 . S
C1541 C1537 1.393 . S
C1541 C1540 1.391 . S
H1542 C1550 0.950 . S
H1543 C1555 0.950 . S
H1544 C1552 0.950 . S
H1545 C1554 0.950 . S
H1546 C1556 0.950 . S
H1547 C1558 0.950 . S
H1548 C1560 0.950 . S
H1549 C1561 0.950 . S
C1550 H1542 0.950 . S
C1550 C1551 1.386 . S
C1550 C1552 1.391 . S
C1551 C1550 1.386 . S
C1551 C1555 1.393 . S
C1552 H1544 0.950 . S
C1552 C1550 1.391 . S
C1552 C1553 1.400 . S
C1553 C1552 1.400 . S
C1553 C1554 1.398 . S
C1553 C1559 1.491 . S
C1554 H1545 0.950 . S
C1554 C1553 1.398 . S
C1554 C1555 1.391 . S
C1555 H1543 0.950 . S
C1555 C1551 1.393 . S
C1555 C1554 1.391 . S
C1556 H1546 0.950 . S
C1556 C1557 1.386 . S
C1556 C1558 1.391 . S
C1557 C1556 1.386 . S
C1557 C1561 1.393 . S
C1558 H1547 0.950 . S
C1558 C1556 1.391 . S
C1558 C1559 1.400 . S
C1559 C1553 1.491 . S
C1559 C1558 1.400 . S
C1559 C1560 1.398 . S
C1560 H1548 0.950 . S
C1560 C1559 1.398 . S
C1560 C1561 1.391 . S
C1561 H1549 0.950 . S
C1561 C1557 1.393 . S
C1561 C1560 1.391 . S
H1562 C1570 0.950 . S
H1563 C1575 0.950 . S
H1564 C1572 0.950 . S
H1565 C1574 0.950 . S
H1566 C1576 0.950 . S
H1567 C1578 0.950 . S
H1568 C1580 0.950 . S
H1569 C1581 0.950 . S
C1570 H1562 0.950 . S
C1570 C1571 1.386 . S
C1570 C1572 1.391 . S
C1571 C1570 1.386 . S
C1571 C1575 1.393 . S
C1572 H1564 0.950 . S
C1572 C1570 1.391 . S
C1572 C1573 1.400 . S
C1573 C1572 1.400 . S
C1573 C1574 1.398 . S
C1573 C1579 1.491 . S
C1574 H1565 0.950 . S
C1574 C1573 1.398 . S
C1574 C1575 1.391 . S
C1575 H1563 0.950 . S
C1575 C1571 1.393 . S
C1575 C1574 1.391 . S
C1576 H1566 0.950 . S
C1576 C1577 1.386 . S
C1576 C1578 1.391 . S
C1577 C1576 1.386 . S
C1577 C1581 1.393 . S
C1578 H1567 0.950 . S
C1578 C1576 1.391 . S
C1578 C1579 1.400 . S
C1579 C1573 1.491 . S
C1579 C1578 1.400 . S
C1579 C1580 1.398 . S
C1580 H1568 0.950 . S
C1580 C1579 1.398 . S
C1580 C1581 1.391 . S
C1581 H1569 0.950 . S
C1581 C1577 1.393 . S
C1581 C1580 1.391 . S
H1582 C1590 0.950 . S
H1583 C1595 0.950 . S
H1584 C1592 0.950 . S
H1585 C1594 0.950 . S
H1586 C1596 0.950 . S
H1587 C1598 0.950 . S
H1588 C1600 0.950 . S
H1589 C1601 0.950 . S
C1590 H1582 0.950 . S
C1590 C1591 1.386 . S
C1590 C1592 1.391 . S
C1591 C1590 1.386 . S
C1591 C1595 1.393 . S
C1592 H1584 0.950 . S
C1592 C1590 1.391 . S
C1592 C1593 1.400 . S
C1593 C1592 1.400 . S
C1593 C1594 1.398 . S
C1593 C1599 1.491 . S
C1594 H1585 0.950 . S
C1594 C1593 1.398 . S
C1594 C1595 1.391 . S
C1595 H1583 0.950 . S
C1595 C1591 1.393 . S
C1595 C1594 1.391 . S
C1596 H1586 0.950 . S
C1596 C1597 1.386 . S
C1596 C1598 1.391 . S
C1597 C1596 1.386 . S
C1597 C1601 1.393 . S
C1598 H1587 0.950 . S
C1598 C1596 1.391 . S
C1598 C1599 1.400 . S
C1599 C1593 1.491 . S
C1599 C1598 1.400 . S
C1599 C1600 1.398 . S
C1600 H1588 0.950 . S
C1600 C1599 1.398 . S
C1600 C1601 1.391 . S
C1601 H1589 0.950 . S
C1601 C1597 1.393 . S
C1601 C1600 1.391 . S
H1602 C1610 0.950 . S
H1603 C1615 0.950 . S
H1604 C1612 0.950 . S
H1605 C1614 0.950 . S
H1606 C1616 0.950 . S
H1607 C1618 0.950 . S
H1608 C1620 0.950 . S
H1609 C1621 0.950 . S
C1610 H1602 0.950 . S
C1610 C1611 1.386 . S
C1610 C1612 1.391 . S
C1611 C1610 1.386 . S
C1611 C1615 1.393 . S
C1612 H1604 0.950 . S
C1612 C1610 1.391 . S
C1612 C1613 1.400 . S
C1613 C1612 1.400 . S
C1613 C1614 1.398 . S
C1613 C1619 1.491 1_554 S
C1614 H1605 0.950 . S
C1614 C1613 1.398 . S
C1614 C1615 1.391 . S
C1615 H1603 0.950 . S
C1615 C1611 1.393 . S
C1615 C1614 1.391 . S
C1616 H1606 0.950 . S
C1616 C1617 1.386 . S
C1616 C1618 1.391 . S
C1617 C1616 1.386 . S
C1617 C1621 1.393 . S
C1618 H1607 0.950 . S
C1618 C1616 1.391 . S
C1618 C1619 1.400 . S
C1619 C1613 1.491 1_556 S
C1619 C1618 1.400 . S
C1619 C1620 1.398 . S
C1620 H1608 0.950 . S
C1620 C1619 1.398 . S
C1620 C1621 1.391 . S
C1621 H1609 0.950 . S
C1621 C1617 1.393 . S
C1621 C1620 1.391 . S
H1622 C1630 0.950 . S
H1623 C1635 0.950 . S
H1624 C1632 0.950 . S
H1625 C1634 0.950 . S
H1626 C1636 0.950 . S
H1627 C1638 0.950 . S
H1628 C1640 0.950 . S
H1629 C1641 0.950 . S
C1630 H1622 0.950 . S
C1630 C1631 1.386 1_565 S
C1630 C1632 1.391 . S
C1631 C1630 1.386 1_545 S
C1631 C1635 1.393 . S
C1632 H1624 0.950 . S
C1632 C1630 1.391 . S
C1632 C1633 1.400 1_565 S
C1633 C1632 1.400 1_545 S
C1633 C1634 1.398 . S
C1633 C1639 1.491 1_546 S
C1634 H1625 0.950 . S
C1634 C1633 1.398 . S
C1634 C1635 1.391 . S
C1635 H1623 0.950 . S
C1635 C1631 1.393 . S
C1635 C1634 1.391 . S
C1636 H1626 0.950 . S
C1636 C1637 1.386 1_545 S
C1636 C1638 1.391 . S
C1637 C1636 1.386 1_565 S
C1637 C1641 1.393 . S
C1638 H1627 0.950 . S
C1638 C1636 1.391 . S
C1638 C1639 1.400 1_545 S
C1639 C1633 1.491 1_564 S
C1639 C1638 1.400 1_565 S
C1639 C1640 1.398 . S
C1640 H1628 0.950 . S
C1640 C1639 1.398 . S
C1640 C1641 1.391 . S
C1641 H1629 0.950 . S
C1641 C1637 1.393 . S
C1641 C1640 1.391 . S
H1642 C1650 0.950 . S
H1643 C1655 0.950 . S
H1644 C1652 0.950 . S
H1645 C1654 0.950 . S
H1646 C1656 0.950 . S
H1647 C1658 0.950 . S
H1648 C1660 0.950 . S
H1649 C1661 0.950 . S
C1650 H1642 0.950 . S
C1650 C1651 1.386 1_455 S
C1650 C1652 1.391 . S
C1651 C1650 1.386 1_655 S
C1651 C1655 1.393 . S
C1652 H1644 0.950 . S
C1652 C1650 1.391 . S
C1652 C1653 1.400 1_455 S
C1653 C1652 1.400 1_655 S
C1653 C1654 1.398 . S
C1653 C1659 1.491 1_656 S
C1654 H1645 0.950 . S
C1654 C1653 1.398 . S
C1654 C1655 1.391 . S
C1655 H1643 0.950 . S
C1655 C1651 1.393 . S
C1655 C1654 1.391 . S
C1656 H1646 0.950 . S
C1656 C1657 1.386 1_655 S
C1656 C1658 1.391 . S
C1657 C1656 1.386 1_455 S
C1657 C1661 1.393 . S
C1658 H1647 0.950 . S
C1658 C1656 1.391 . S
C1658 C1659 1.400 1_655 S
C1659 C1653 1.491 1_454 S
C1659 C1658 1.400 1_455 S
C1659 C1660 1.398 . S
C1660 H1648 0.950 . S
C1660 C1659 1.398 . S
C1660 C1661 1.391 . S
C1661 H1649 0.950 . S
C1661 C1657 1.393 . S
C1661 C1660 1.391 . S
H1662 C1670 0.950 . S
H1663 C1675 0.950 . S
H1664 C1672 0.950 . S
H1665 C1674 0.950 . S
H1666 C1676 0.950 . S
H1667 C1678 0.950 . S
H1668 C1680 0.950 . S
H1669 C1681 0.950 . S
C1670 H1662 0.950 . S
C1670 C1671 1.386 . S
C1670 C1672 1.391 . S
C1671 C1670 1.386 . S
C1671 C1675 1.393 . S
C1672 H1664 0.950 . S
C1672 C1670 1.391 . S
C1672 C1673 1.400 . S
C1673 C1672 1.400 . S
C1673 C1674 1.398 . S
C1673 C1679 1.491 . S
C1674 H1665 0.950 . S
C1674 C1673 1.398 . S
C1674 C1675 1.391 . S
C1675 H1663 0.950 . S
C1675 C1671 1.393 . S
C1675 C1674 1.391 . S
C1676 H1666 0.950 . S
C1676 C1677 1.386 . S
C1676 C1678 1.391 . S
C1677 C1676 1.386 . S
C1677 C1681 1.393 . S
C1678 H1667 0.950 . S
C1678 C1676 1.391 . S
C1678 C1679 1.400 . S
C1679 C1673 1.491 . S
C1679 C1678 1.400 . S
C1679 C1680 1.398 . S
C1680 H1668 0.950 . S
C1680 C1679 1.398 . S
C1680 C1681 1.391 . S
C1681 H1669 0.950 . S
C1681 C1677 1.393 . S
C1681 C1680 1.391 . S
H1682 C1690 0.950 . S
H1683 C1695 0.950 . S
H1684 C1692 0.950 . S
H1685 C1694 0.950 . S
H1686 C1696 0.950 . S
H1687 C1698 0.950 . S
H1688 C1700 0.950 . S
H1689 C1701 0.950 . S
C1690 H1682 0.950 . S
C1690 C1691 1.386 . S
C1690 C1692 1.391 . S
C1691 C1690 1.386 . S
C1691 C1695 1.393 . S
C1692 H1684 0.950 . S
C1692 C1690 1.391 . S
C1692 C1693 1.400 . S
C1693 C1692 1.400 . S
C1693 C1694 1.398 . S
C1693 C1699 1.491 . S
C1694 H1685 0.950 . S
C1694 C1693 1.398 . S
C1694 C1695 1.391 . S
C1695 H1683 0.950 . S
C1695 C1691 1.393 . S
C1695 C1694 1.391 . S
C1696 H1686 0.950 . S
C1696 C1697 1.386 . S
C1696 C1698 1.391 . S
C1697 C1696 1.386 . S
C1697 C1701 1.393 . S
C1698 H1687 0.950 . S
C1698 C1696 1.391 . S
C1698 C1699 1.400 . S
C1699 C1693 1.491 . S
C1699 C1698 1.400 . S
C1699 C1700 1.398 . S
C1700 H1688 0.950 . S
C1700 C1699 1.398 . S
C1700 C1701 1.391 . S
C1701 H1689 0.950 . S
C1701 C1697 1.393 . S
C1701 C1700 1.391 . S
H1702 C1710 0.950 . S
H1703 C1715 0.950 . S
H1704 C1712 0.950 . S
H1705 C1714 0.950 . S
H1706 C1716 0.950 . S
H1707 C1718 0.950 . S
H1708 C1720 0.950 . S
H1709 C1721 0.950 . S
C1710 H1702 0.950 . S
C1710 C1711 1.386 . S
C1710 C1712 1.391 . S
C1711 C1710 1.386 . S
C1711 C1715 1.393 . S
C1712 H1704 0.950 . S
C1712 C1710 1.391 . S
C1712 C1713 1.400 . S
C1713 C1712 1.400 . S
C1713 C1714 1.398 . S
C1713 C1719 1.491 . S
C1714 H1705 0.950 . S
C1714 C1713 1.398 . S
C1714 C1715 1.391 . S
C1715 H1703 0.950 . S
C1715 C1711 1.393 . S
C1715 C1714 1.391 . S
C1716 H1706 0.950 . S
C1716 C1717 1.386 . S
C1716 C1718 1.391 . S
C1717 C1716 1.386 . S
C1717 C1721 1.393 . S
C1718 H1707 0.950 . S
C1718 C1716 1.391 . S
C1718 C1719 1.400 . S
C1719 C1713 1.491 . S
C1719 C1718 1.400 . S
C1719 C1720 1.398 . S
C1720 H1708 0.950 . S
C1720 C1719 1.398 . S
C1720 C1721 1.391 . S
C1721 H1709 0.950 . S
C1721 C1717 1.393 . S
C1721 C1720 1.391 . S
H1722 C1730 0.950 . S
H1723 C1735 0.950 . S
H1724 C1732 0.950 . S
H1725 C1734 0.950 . S
H1726 C1736 0.950 . S
H1727 C1738 0.950 . S
H1728 C1740 0.950 . S
H1729 C1741 0.950 . S
C1730 H1722 0.950 . S
C1730 C1731 1.386 . S
C1730 C1732 1.391 . S
C1731 C1730 1.386 . S
C1731 C1735 1.393 . S
C1732 H1724 0.950 . S
C1732 C1730 1.391 . S
C1732 C1733 1.400 . S
C1733 C1732 1.400 . S
C1733 C1734 1.398 . S
C1733 C1739 1.491 . S
C1734 H1725 0.950 . S
C1734 C1733 1.398 . S
C1734 C1735 1.391 . S
C1735 H1723 0.950 . S
C1735 C1731 1.393 . S
C1735 C1734 1.391 . S
C1736 H1726 0.950 . S
C1736 C1737 1.386 . S
C1736 C1738 1.391 . S
C1737 C1736 1.386 . S
C1737 C1741 1.393 . S
C1738 H1727 0.950 . S
C1738 C1736 1.391 . S
C1738 C1739 1.400 . S
C1739 C1733 1.491 . S
C1739 C1738 1.400 . S
C1739 C1740 1.398 . S
C1740 H1728 0.950 . S
C1740 C1739 1.398 . S
C1740 C1741 1.391 . S
C1741 H1729 0.950 . S
C1741 C1737 1.393 . S
C1741 C1740 1.391 . S
H1742 C1750 0.950 . S
H1743 C1755 0.950 . S
H1744 C1752 0.950 . S
H1745 C1754 0.950 . S
H1746 C1756 0.950 . S
H1747 C1758 0.950 . S
H1748 C1760 0.950 . S
H1749 C1761 0.950 . S
C1750 H1742 0.950 . S
C1750 C1751 1.386 . S
C1750 C1752 1.391 . S
C1751 C1750 1.386 . S
C1751 C1755 1.393 . S
C1752 H1744 0.950 . S
C1752 C1750 1.391 . S
C1752 C1753 1.400 . S
C1753 C1752 1.400 . S
C1753 C1754 1.398 . S
C1753 C1759 1.491 . S
C1754 H1745 0.950 . S
C1754 C1753 1.398 . S
C1754 C1755 1.391 . S
C1755 H1743 0.950 . S
C1755 C1751 1.393 . S
C1755 C1754 1.391 . S
C1756 H1746 0.950 . S
C1756 C1757 1.386 . S
C1756 C1758 1.391 . S
C1757 C1756 1.386 . S
C1757 C1761 1.393 . S
C1758 H1747 0.950 . S
C1758 C1756 1.391 . S
C1758 C1759 1.400 . S
C1759 C1753 1.491 . S
C1759 C1758 1.400 . S
C1759 C1760 1.398 . S
C1760 H1748 0.950 . S
C1760 C1759 1.398 . S
C1760 C1761 1.391 . S
C1761 H1749 0.950 . S
C1761 C1757 1.393 . S
C1761 C1760 1.391 . S
H1762 C1770 0.950 . S
H1763 C1775 0.950 . S
H1764 C1772 0.950 . S
H1765 C1774 0.950 . S
H1766 C1776 0.950 . S
H1767 C1778 0.950 . S
H1768 C1780 0.950 . S
H1769 C1781 0.950 . S
C1770 H1762 0.950 . S
C1770 C1771 1.386 . S
C1770 C1772 1.391 . S
C1771 C1770 1.386 . S
C1771 C1775 1.393 . S
C1772 H1764 0.950 . S
C1772 C1770 1.391 . S
C1772 C1773 1.400 . S
C1773 C1772 1.400 . S
C1773 C1774 1.398 . S
C1773 C1779 1.491 . S
C1774 H1765 0.950 . S
C1774 C1773 1.398 . S
C1774 C1775 1.391 . S
C1775 H1763 0.950 . S
C1775 C1771 1.393 . S
C1775 C1774 1.391 . S
C1776 H1766 0.950 . S
C1776 C1777 1.386 . S
C1776 C1778 1.391 . S
C1777 C1776 1.386 . S
C1777 C1781 1.393 . S
C1778 H1767 0.950 . S
C1778 C1776 1.391 . S
C1778 C1779 1.400 . S
C1779 C1773 1.491 . S
C1779 C1778 1.400 . S
C1779 C1780 1.398 . S
C1780 H1768 0.950 . S
C1780 C1779 1.398 . S
C1780 C1781 1.391 . S
C1781 H1769 0.950 . S
C1781 C1777 1.393 . S
C1781 C1780 1.391 . S
C1071 C595 1.152 . S
C1077 C5 1.154 . S
C1091 C64 1.162 . S
C1097 C654 1.154 . S
C1111 C536 1.170 . S
C1117 C123 1.163 . S
C1131 C831 1.159 . S
C1137 C182 1.152 . S
C1151 C241 1.162 . S
C1157 C713 1.169 . S
C1171 C772 1.168 . S
C1177 C300 1.170 . S
C1191 C359 1.152 . S
C1197 C949 1.155 . S
C1211 C1008 1.154 . S
C1217 C418 1.162 . S
C1231 C477 1.170 . S
C1237 C890 1.166 . S
C1251 C52 1.245 . S
C1257 C92 1.202 . S
C1271 C111 1.241 . S
C1277 C151 1.230 . S
C1291 C33 1.202 . S
C1297 C170 1.244 . S
C1311 C328 1.230 . S
C1317 C229 1.246 . S
C1331 C210 1.212 . S
C1337 C288 1.257 . S
C1351 C347 1.241 . S
C1357 C269 1.230 . S
C1371 C406 1.239 . S
C1377 C446 1.228 . S
C1391 C465 1.242 . S
C1397 C505 1.230 . S
C1411 C387 1.231 . S
C1417 C524 1.242 . S
C1431 C682 1.218 . S
C1437 C583 1.255 . S
C1451 C564 1.213 . S
C1457 C642 1.239 . S
C1471 C623 1.212 . S
C1477 C701 1.239 . S
C1491 C800 1.230 . S
C1497 C760 1.246 . S
C1511 C859 1.219 . S
C1517 C819 1.255 . S
C1531 C741 1.226 . S
C1537 C878 1.250 . S
C1551 C937 1.239 . S
C1557 C1036 1.215 . S
C1571 C996 1.248 . S
C1577 C918 1.199 . S
C1591 C1055 1.257 . S
C1597 C977 1.204 . S
C1611 C3 1.818 . S
C1617 C180 1.812 . S
C1631 C239 1.809 . S
C1637 C62 1.819 . S
C1651 C298 1.801 . S
C1657 C121 1.820 . S
C1671 C534 1.806 . S
C1677 C357 1.821 . S
C1691 C593 1.820 . S
C1697 C416 1.808 . S
C1711 C475 1.818 . S
C1717 C652 1.811 . S
C1731 C888 1.813 . S
C1737 C711 1.816 . S
C1751 C947 1.817 . S
C1757 C770 1.800 . S
C1771 C1006 1.819 . S
C1777 C829 1.800 . S
