# Generated by pormake.
# Topology nov, (5)-cn, num edge types: 1
# Building blocks:
#     Node 0, Type 0, BuildingBlock: BEQFEK_clean_sbu_0, # of connection points: 5
#     Node 1, Type 0, BuildingBlock: BEQFEK_clean_sbu_0, # of connection points: 5
#     Node 2, Type 0, BuildingBlock: BEQFEK_clean_sbu_0, # of connection points: 5
#     Node 3, Type 0, BuildingBlock: BEQFEK_clean_sbu_0, # of connection points: 5
#     Node 4, Type 0, BuildingBlock: BEQFEK_clean_sbu_0, # of connection points: 5
#     Node 5, Type 0, BuildingBlock: BEQFEK_clean_sbu_0, # of connection points: 5
#     Node 6, Type 0, BuildingBlock: BEQFEK_clean_sbu_0, # of connection points: 5
#     Node 7, Type 0, BuildingBlock: BEQFEK_clean_sbu_0, # of connection points: 5
#     Edge 8, Type (0, 0), BuildingBlock: XUDNAN_clean_linker_2, # of connection points: 2
#     Edge 9, Type (0, 0), BuildingBlock: XUDNAN_clean_linker_2, # of connection points: 2
#     Edge 10, Type (0, 0), BuildingBlock: XUDNAN_clean_linker_2, # of connection points: 2
#     Edge 11, Type (0, 0), BuildingBlock: XUDNAN_clean_linker_2, # of connection points: 2
#     Edge 12, Type (0, 0), BuildingBlock: XUDNAN_clean_linker_2, # of connection points: 2
#     Edge 13, Type (0, 0), BuildingBlock: XUDNAN_clean_linker_2, # of connection points: 2
#     Edge 14, Type (0, 0), BuildingBlock: XUDNAN_clean_linker_2, # of connection points: 2
#     Edge 15, Type (0, 0), BuildingBlock: XUDNAN_clean_linker_2, # of connection points: 2
#     Edge 16, Type (0, 0), BuildingBlock: XUDNAN_clean_linker_2, # of connection points: 2
#     Edge 17, Type (0, 0), BuildingBlock: XUDNAN_clean_linker_2, # of connection points: 2
#     Edge 18, Type (0, 0), BuildingBlock: XUDNAN_clean_linker_2, # of connection points: 2
#     Edge 19, Type (0, 0), BuildingBlock: XUDNAN_clean_linker_2, # of connection points: 2
#     Edge 20, Type (0, 0), BuildingBlock: XUDNAN_clean_linker_2, # of connection points: 2
#     Edge 21, Type (0, 0), BuildingBlock: XUDNAN_clean_linker_2, # of connection points: 2
#     Edge 22, Type (0, 0), BuildingBlock: XUDNAN_clean_linker_2, # of connection points: 2
#     Edge 23, Type (0, 0), BuildingBlock: XUDNAN_clean_linker_2, # of connection points: 2
#     Edge 24, Type (0, 0), BuildingBlock: XUDNAN_clean_linker_2, # of connection points: 2
#     Edge 25, Type (0, 0), BuildingBlock: XUDNAN_clean_linker_2, # of connection points: 2
#     Edge 26, Type (0, 0), BuildingBlock: XUDNAN_clean_linker_2, # of connection points: 2
#     Edge 27, Type (0, 0), BuildingBlock: XUDNAN_clean_linker_2, # of connection points: 2
# Relax obj value: 0.074
# Max RMSD: 0.099
# Mean RMSD: 0.099
data_MOF--net-nov--node1-BEQFEK_clean_sbu_0--edge1-XUDNAN_clean_linker_2
_symmetry_space_group_name_H-M    P1
_symmetry_Int_Tables_number       1
_symmetry_cell_setting            triclinic
loop_
_symmetry_equiv_pos_as_xyz
'x, y, z'
_cell_length_a     38.356605
_cell_length_b     40.895309
_cell_length_c     25.807054
_cell_angle_alpha  90.108749
_cell_angle_beta   89.842436
_cell_angle_gamma 89.988231
loop_
_atom_site_label
_atom_site_type_symbol
_atom_site_fract_x
_atom_site_fract_y
_atom_site_fract_z
_atom_type_partial_charge
Co0 Co 0.96436 0.13977 0.17748 0.0
Co1 Co 0.0451 0.12926 0.16244 0.0
C2 C 0.99535 0.07778 0.1322 0.0
O3 O 0.96978 0.09615 0.14445 0.0
O4 O 0.02671 0.08641 0.14084 0.0
C5 C 0.89463 0.12123 0.2076 0.0
O6 O 0.90651 0.09131 0.2018 0.0
C7 C 0.1188 0.11129 0.18339 0.0
C8 C 0.14563 0.14753 0.13401 0.0
C9 C 0.1517 0.1229 0.16969 0.0
N10 N 0.09473 0.12885 0.15766 0.0
N11 N 0.11105 0.14998 0.12752 0.0
C12 C 0.10996 0.08578 0.22274 0.0
H13 H 0.08197 0.08725 0.23361 0.0
H14 H 0.12651 0.08865 0.25765 0.0
H15 H 0.11505 0.06125 0.20591 0.0
C16 C 0.98812 0.15593 0.28374 0.0
N17 N 0.99469 0.14544 0.23516 0.0
N18 N 0.02864 0.14326 0.22835 0.0
C19 C 0.04476 0.15377 0.27171 0.0
C20 C 0.01965 0.16163 0.3086 0.0
C21 C 0.9522 0.16027 0.30554 0.0
H22 H 0.93987 0.18201 0.28758 0.0
H23 H 0.93614 0.13858 0.29593 0.0
H24 H 0.9526 0.16329 0.34825 0.0
O25 O 0.97416 0.17256 0.12189 0.0
O26 O 0.02977 0.15972 0.10899 0.0
H27 H 0.09341 0.16787 0.2365 0.0
H28 H 0.08774 0.18207 0.30191 0.0
C29 C 0.0829 0.16134 0.27508 0.0
H30 H 0.09696 0.1397 0.29012 0.0
H31 H 0.09854 0.16691 0.10374 0.0
O32 O 0.91493 0.14528 0.19939 0.0
C33 C 1.00255 0.17552 0.09663 0.0
Co34 Co 0.58733 0.85798 0.68359 0.0
Co35 Co 0.50544 0.84632 0.68634 0.0
C36 C 0.53766 0.90447 0.63354 0.0
O37 O 0.56886 0.89592 0.64365 0.0
O38 O 0.51171 0.88797 0.64976 0.0
C39 C 0.6547 0.89004 0.68726 0.0
O40 O 0.63642 0.91551 0.67243 0.0
C41 C 0.43273 0.8585 0.72081 0.0
C42 C 0.40572 0.81593 0.68684 0.0
C43 C 0.3999 0.84409 0.7157 0.0
N44 N 0.45633 0.8397 0.69599 0.0
N45 N 0.43993 0.81436 0.67574 0.0
C46 C 0.44232 0.88861 0.75046 0.0
H47 H 0.47064 0.88868 0.75924 0.0
H48 H 0.42709 0.89011 0.78703 0.0
H49 H 0.43646 0.91045 0.72659 0.0
C50 C 0.57753 0.84777 0.79548 0.0
N51 N 0.56387 0.85292 0.7483 0.0
N52 N 0.53072 0.84468 0.74902 0.0
C53 C 0.52273 0.83211 0.7958 0.0
C54 C 0.55223 0.83359 0.82719 0.0
C55 C 0.61471 0.85512 0.80872 0.0
H56 H 0.63188 0.83611 0.79156 0.0
H57 H 0.62224 0.87903 0.79185 0.0
H58 H 0.61864 0.85598 0.85129 0.0
O59 O 0.58029 0.81761 0.64042 0.0
O60 O 0.52248 0.81207 0.63972 0.0
H61 H 0.47918 0.80331 0.7698 0.0
H62 H 0.49425 0.79293 0.8334 0.0
C63 C 0.4898 0.81348 0.80627 0.0
H64 H 0.47019 0.83027 0.82348 0.0
H65 H 0.4521 0.79597 0.65418 0.0
O66 O 0.63909 0.86298 0.69461 0.0
C67 C 0.55271 0.80296 0.6254 0.0
Co68 Co 0.96504 0.8498 0.81203 0.0
Co69 Co 0.046 0.86342 0.82512 0.0
C70 C 0.99861 0.91327 0.85716 0.0
O71 O 0.97405 0.89338 0.84599 0.0
O72 O 0.0303 0.90664 0.84662 0.0
C73 C 0.90696 0.87604 0.76172 0.0
O74 O 0.93152 0.89735 0.75075 0.0
C75 C 0.12342 0.8761 0.81698 0.0
C76 C 0.14209 0.82686 0.83834 0.0
C77 C 0.1537 0.85723 0.82196 0.0
N78 N 0.09566 0.8572 0.82887 0.0
N79 N 0.10727 0.82805 0.84234 0.0
C80 C 0.12036 0.91053 0.79812 0.0
H81 H 0.09283 0.91649 0.78892 0.0
H82 H 0.13696 0.91417 0.76332 0.0
H83 H 0.12936 0.92746 0.82894 0.0
C84 C 0.99202 0.82465 0.71118 0.0
N85 N 0.99597 0.84166 0.75562 0.0
N86 N 0.02867 0.85096 0.75956 0.0
C87 C 0.04613 0.84168 0.71679 0.0
C88 C 0.02393 0.82373 0.68518 0.0
C89 C 0.95965 0.80608 0.69784 0.0
H90 H 0.94318 0.80254 0.73278 0.0
H91 H 0.94456 0.82017 0.66884 0.0
H92 H 0.96627 0.78192 0.68076 0.0
O93 O 0.97272 0.81717 0.86756 0.0
O94 O 0.02744 0.83357 0.87873 0.0
H95 H 0.10071 0.83364 0.72857 0.0
H96 H 0.08976 0.84805 0.66447 0.0
C97 C 0.08344 0.85018 0.70633 0.0
H98 H 0.08841 0.87564 0.71878 0.0
H99 H 0.09122 0.80851 0.85272 0.0
O100 O 0.91515 0.85094 0.78813 0.0
C101 C 1.00123 0.81662 0.89275 0.0
Co102 Co 0.57571 0.13647 0.33302 0.0
Co103 Co 0.49395 0.13768 0.33225 0.0
C104 C 0.5329 0.08175 0.37785 0.0
O105 O 0.56279 0.09374 0.36698 0.0
O106 O 0.50493 0.09663 0.3661 0.0
C107 C 0.64661 0.11553 0.30544 0.0
O108 O 0.63391 0.08589 0.3001 0.0
C109 C 0.42019 0.12075 0.31048 0.0
C110 C 0.39517 0.16839 0.32659 0.0
C111 C 0.38816 0.1368 0.31007 0.0
N112 N 0.44474 0.14218 0.32584 0.0
N113 N 0.42947 0.1704 0.33611 0.0
C114 C 0.42815 0.08668 0.29287 0.0
H115 H 0.45645 0.08389 0.28488 0.0
H116 H 0.41294 0.08062 0.25761 0.0
H117 H 0.42076 0.06927 0.32394 0.0
C118 C 0.56196 0.1598 0.22595 0.0
N119 N 0.55139 0.14446 0.26955 0.0
N120 N 0.51726 0.14138 0.26836 0.0
C121 C 0.50527 0.15302 0.22317 0.0
C122 C 0.5329 0.16621 0.19533 0.0
C123 C 0.5978 0.17366 0.21915 0.0
H124 H 0.60538 0.18722 0.25467 0.0
H125 H 0.61659 0.15328 0.21387 0.0
H126 H 0.59951 0.19019 0.18524 0.0
O127 O 0.56579 0.17261 0.38193 0.0
O128 O 0.50807 0.17472 0.37639 0.0
H129 H 0.45475 0.17442 0.23383 0.0
H130 H 0.4638 0.16163 0.16811 0.0
C131 C 0.4674 0.15539 0.2096 0.0
H132 H 0.45454 0.13166 0.21721 0.0
H133 H 0.44261 0.19133 0.34843 0.0
O134 O 0.62655 0.1387 0.31932 0.0
C135 C 0.53676 0.18572 0.39364 0.0
Co136 Co 0.48598 0.64677 0.18585 0.0
Co137 Co 0.56625 0.6285 0.1827 0.0
C138 C 0.51382 0.58523 0.13444 0.0
O139 O 0.48968 0.60534 0.14617 0.0
O140 O 0.54517 0.58996 0.14874 0.0
C141 C 0.41431 0.63085 0.20709 0.0
O142 O 0.42688 0.60096 0.20745 0.0
C143 C 0.6356 0.60048 0.21057 0.0
C144 C 0.67022 0.63695 0.17391 0.0
C145 C 0.67054 0.60877 0.20353 0.0
N146 N 0.61581 0.62306 0.1866 0.0
N147 N 0.6368 0.64453 0.16444 0.0
C148 C 0.62112 0.57098 0.23721 0.0
H149 H 0.59499 0.56493 0.22149 0.0
H150 H 0.6182 0.57602 0.27919 0.0
H151 H 0.63902 0.54984 0.23243 0.0
C152 C 0.50314 0.65432 0.29752 0.0
N153 N 0.5119 0.64483 0.24917 0.0
N154 N 0.5457 0.6392 0.24743 0.0
C155 C 0.55979 0.64674 0.29376 0.0
C156 C 0.53323 0.65607 0.32748 0.0
C157 C 0.46668 0.66246 0.31384 0.0
H158 H 0.44874 0.64309 0.30013 0.0
H159 H 0.46427 0.66438 0.35658 0.0
H160 H 0.45869 0.68587 0.29572 0.0
O161 O 0.50445 0.68253 0.13968 0.0
O162 O 0.55927 0.6654 0.13644 0.0
H163 H 0.60315 0.67058 0.33209 0.0
H164 H 0.60997 0.6284 0.31531 0.0
C165 C 0.59811 0.65164 0.30223 0.0
H166 H 0.61092 0.65959 0.26595 0.0
H167 H 0.62834 0.66486 0.14372 0.0
O168 O 0.43508 0.65468 0.19945 0.0
C169 C 0.53554 0.6851 0.12235 0.0
Co170 Co 0.08262 0.35044 0.6807 0.0
Co171 Co 1.00167 0.35909 0.66109 0.0
C172 C 0.05392 0.40786 0.62293 0.0
O173 O 0.07922 0.39127 0.6408 0.0
O174 O 0.02244 0.39896 0.62995 0.0
C175 C 0.15295 0.3684 0.71168 0.0
O176 O 0.14132 0.39849 0.70745 0.0
C177 C 0.92916 0.38089 0.68532 0.0
C178 C 0.89967 0.35337 0.62616 0.0
C179 C 0.8958 0.37522 0.66671 0.0
N180 N 0.95182 0.36296 0.65713 0.0
N181 N 0.9339 0.3467 0.62176 0.0
C182 C 0.93939 0.4046 0.72672 0.0
H183 H 0.96781 0.40327 0.73441 0.0
H184 H 0.92452 0.39953 0.76275 0.0
H185 H 0.93252 0.42972 0.71416 0.0
C186 C 0.05737 0.33684 0.78505 0.0
N187 N 0.05141 0.34957 0.73794 0.0
N188 N 0.01756 0.35034 0.72957 0.0
C189 C 1.00109 0.33658 0.77038 0.0
C190 C 0.02579 0.32769 0.80708 0.0
C191 C 0.09284 0.32745 0.80398 0.0
H192 H 0.10338 0.30747 0.77936 0.0
H193 H 0.1106 0.34875 0.80082 0.0
H194 H 0.092 0.31919 0.84492 0.0
O195 O 0.07125 0.31356 0.63311 0.0
O196 O 0.01504 0.32187 0.61647 0.0
H197 H 0.95696 0.31766 0.72857 0.0
H198 H 0.96009 0.30324 0.79443 0.0
C199 C 0.96415 0.3246 0.76866 0.0
H200 H 0.94654 0.34435 0.78206 0.0
H201 H 0.94507 0.33097 0.59448 0.0
O202 O 0.13228 0.34468 0.70287 0.0
C203 C 0.04319 0.30588 0.60964 0.0
Co204 Co 0.47535 0.35531 0.82243 0.0
Co205 Co 0.55785 0.35951 0.83344 0.0
C206 C 0.50989 0.41377 0.8687 0.0
O207 O 0.48285 0.39896 0.85233 0.0
O208 O 0.54029 0.40143 0.86365 0.0
C209 C 0.4033 0.3725 0.79719 0.0
O210 O 0.41416 0.40291 0.80006 0.0
C211 C 0.63018 0.38271 0.8119 0.0
C212 C 0.66037 0.3386 0.83225 0.0
C213 C 0.66385 0.36988 0.81243 0.0
N214 N 0.60795 0.3597 0.82947 0.0
N215 N 0.62635 0.33361 0.84225 0.0
C216 C 0.61927 0.41645 0.79636 0.0
H217 H 0.5962 0.42428 0.81915 0.0
H218 H 0.61192 0.41657 0.75485 0.0
H219 H 0.6409 0.4341 0.80221 0.0
C220 C 0.49516 0.33857 0.71557 0.0
N221 N 0.50377 0.34839 0.76361 0.0
N222 N 0.53795 0.35033 0.76735 0.0
C223 C 0.55219 0.34175 0.72142 0.0
C224 C 0.52554 0.33418 0.68706 0.0
C225 C 0.45878 0.32972 0.6999 0.0
H226 H 0.44698 0.31375 0.72987 0.0
H227 H 0.44285 0.35232 0.69744 0.0
H228 H 0.45795 0.31672 0.66222 0.0
O229 O 0.48691 0.3239 0.87759 0.0
O230 O 0.54483 0.32456 0.88317 0.0
H231 H 0.60265 0.32196 0.73758 0.0
H232 H 0.59647 0.33324 0.67039 0.0
C233 C 0.59057 0.34 0.71108 0.0
H234 H 0.60238 0.36416 0.71868 0.0
H235 H 0.61554 0.31202 0.85652 0.0
O236 O 0.42485 0.34937 0.80517 0.0
C237 C 0.51523 0.31378 0.89762 0.0
Co238 Co 0.08962 0.63693 0.30546 0.0
Co239 Co 0.00859 0.6332 0.32859 0.0
C240 C 0.05867 0.57951 0.35869 0.0
O241 O 0.08492 0.59395 0.33898 0.0
O242 O 0.02823 0.5919 0.35633 0.0
C243 C 0.16195 0.6212 0.27879 0.0
O244 O 0.15332 0.59104 0.29064 0.0
C245 C 0.93589 0.61092 0.31198 0.0
C246 C 0.90794 0.64108 0.36984 0.0
C247 C 0.90317 0.61682 0.3331 0.0
N248 N 0.95898 0.63087 0.33526 0.0
N249 N 0.94201 0.64883 0.36971 0.0
C250 C 0.94551 0.58502 0.27355 0.0
H251 H 0.97425 0.58359 0.26881 0.0
H252 H 0.93343 0.59059 0.23559 0.0
H253 H 0.93513 0.56106 0.28659 0.0
C254 C 0.06286 0.65589 0.20359 0.0
N255 N 0.05729 0.64251 0.2504 0.0
N256 N 0.02356 0.64243 0.2601 0.0
C257 C 1.00676 0.65681 0.22035 0.0
C258 C 0.03114 0.66588 0.18309 0.0
C259 C 0.09832 0.66403 0.18296 0.0
H260 H 0.10998 0.68372 0.20696 0.0
H261 H 0.11537 0.64219 0.18559 0.0
H262 H 0.09706 0.67223 0.14202 0.0
O263 O 0.08119 0.67038 0.36002 0.0
O264 O 0.02399 0.669 0.37413 0.0
H265 H 0.96413 0.67804 0.26275 0.0
H266 H 0.96399 0.68744 0.19427 0.0
C267 C 0.96971 0.6683 0.22345 0.0
H268 H 0.95211 0.64731 0.21632 0.0
H269 H 0.95379 0.66608 0.39382 0.0
O270 O 0.13893 0.64357 0.28156 0.0
C271 C 0.05402 0.68079 0.38334 0.0
H272 H 0.04516 0.9522 0.90897 0.0
H273 H 0.93427 0.93628 0.88615 0.0
H274 H 0.9214 0.97462 0.95763 0.0
H275 H 0.04298 0.95401 0.04456 0.0
H276 H 0.07531 0.98567 0.05164 0.0
H277 H 0.0762 0.95928 0.99572 0.0
H278 H 0.0734 0.0094 0.93451 0.0
H279 H 0.07358 0.03598 0.99022 0.0
H280 H 0.03917 0.03917 0.94307 0.0
H281 H 0.92077 0.01179 0.03545 0.0
H282 H 0.93219 0.05098 0.10622 0.0
H283 H 0.04353 0.0413 0.07883 0.0
C284 C 0.01812 0.95735 0.91799 0.0
C285 C 0.99073 0.94121 0.8918 0.0
C286 C 0.95572 0.94839 0.9055 0.0
C287 C 0.94813 0.96996 0.9463 0.0
C288 C 0.97582 0.98417 0.97291 0.0
C289 C 0.01007 0.97863 0.95873 0.0
C290 C 0.03506 -0.0035 0.99416 0.0
C291 C 0.05878 0.97241 0.02323 0.0
C292 C 0.05656 0.02177 0.96367 0.0
C293 C 0.00949 0.01286 0.03064 0.0
C294 C 0.97546 0.00533 0.01792 0.0
C295 C 0.94731 0.01798 0.04566 0.0
C296 C 0.95409 0.04003 0.08607 0.0
C297 C 0.98876 0.04924 0.09827 0.0
C298 C 0.01674 0.03459 0.07102 0.0
H299 H 0.58318 0.05007 0.43626 0.0
H300 H 0.47441 0.04523 0.38989 0.0
H301 H 0.46458 0.00042 0.45115 0.0
H302 H 0.59387 0.96056 0.45423 0.0
H303 H 0.62203 0.96549 0.5095 0.0
H304 H 0.62148 -0.00391 0.45935 0.0
H305 H 0.60751 0.04033 0.52828 0.0
H306 H 0.60734 0.00979 0.57849 0.0
H307 H 0.56973 0.03555 0.5693 0.0
H308 H 0.46416 0.96085 0.5221 0.0
H309 H 0.47522 0.92126 0.59132 0.0
H310 H 0.58488 0.94835 0.59134 0.0
C311 C 0.55754 0.03905 0.43821 0.0
C312 C 0.52952 0.05139 0.40848 0.0
C313 C 0.49625 0.03647 0.41249 0.0
C314 C 0.49032 0.01099 0.44727 0.0
C315 C 0.51797 0.00034 0.47748 0.0
C316 C 0.55111 0.01325 0.47275 0.0
C317 C 0.57592 -0.00292 0.51066 0.0
C318 C 0.60505 0.97871 0.4817 0.0
C319 C 0.59101 0.0222 0.54894 0.0
C320 C 0.55127 0.97356 0.53771 0.0
C321 C 0.51796 0.97622 0.51804 0.0
C322 C 0.49022 0.95812 0.53746 0.0
C323 C 0.4968 0.93582 0.57714 0.0
C324 C 0.53099 0.93147 0.59675 0.0
C325 C 0.5585 0.951 0.57712 0.0
H326 H 0.55967 0.54144 0.09029 0.0
H327 H 0.45023 0.56898 0.09401 0.0
H328 H 0.4383 0.53018 0.02317 0.0
H329 H 0.56738 0.53379 0.95412 0.0
H330 H 0.59569 0.49862 0.95569 0.0
H331 H 0.5959 0.52741 0.00859 0.0
H332 H 0.58231 0.48094 0.07373 0.0
H333 H 0.58284 0.4519 0.02119 0.0
H334 H 0.54515 0.45485 0.06281 0.0
H335 H 0.43857 0.4909 0.94917 0.0
H336 H 0.4495 0.44809 0.88394 0.0
H337 H 0.55869 0.44562 0.92829 0.0
C338 C 0.53307 0.53896 0.07685 0.0
C339 C 0.50592 0.55839 0.09774 0.0
C340 C 0.47152 0.55443 0.07873 0.0
C341 C 0.46447 0.53258 0.03826 0.0
C342 C 0.49204 0.51473 0.01735 0.0
C343 C 0.52553 0.51722 0.03649 0.0
C344 C 0.55037 0.49505 0.00715 0.0
C345 C 0.57902 0.51492 0.97977 0.0
C346 C 0.56608 0.46914 0.04338 0.0
C347 C 0.52558 0.47984 0.96841 0.0
C348 C 0.49213 0.49174 0.97478 0.0
C349 C 0.46461 0.48124 0.94393 0.0
C350 C 0.47116 0.45701 0.90677 0.0
C351 C 0.50496 0.4434 0.90092 0.0
C352 C 0.53264 0.45565 0.93141 0.0
H353 H 1.0072 0.44778 0.57272 0.0
H354 H 0.11808 0.42935 0.5912 0.0
H355 H 0.13086 0.46906 0.52216 0.0
H356 H 1.00749 0.45533 0.43609 0.0
H357 H 0.97608 0.48809 0.43413 0.0
H358 H 0.97517 0.45914 0.48662 0.0
H359 H 0.98028 0.50625 0.5535 0.0
H360 H 0.98044 0.53538 0.50126 0.0
H361 H 0.01546 0.53525 0.54769 0.0
H362 H 0.13168 0.50818 0.44798 0.0
H363 H 0.12095 0.55017 0.3816 0.0
H364 H 0.00965 0.54385 0.41209 0.0
C365 C 0.03421 0.45242 0.56286 0.0
C366 C 0.0616 0.4353 0.58738 0.0
C367 C 0.09659 0.44212 0.57312 0.0
C368 C 0.10416 0.4645 0.53367 0.0
C369 C 0.07651 0.48005 0.50911 0.0
C370 C 0.04228 0.47481 0.52372 0.0
C371 C 0.01748 0.49503 0.49136 0.0
C372 C 0.99259 0.47307 0.46021 0.0
C373 C 0.99723 0.51943 0.52549 0.0
C374 C 0.04315 0.51233 0.45617 0.0
C375 C 0.07702 0.50309 0.46675 0.0
C376 C 0.10528 0.51578 0.43948 0.0
C377 C 0.09887 0.53949 0.40158 0.0
C378 C 0.06446 0.55043 0.3916 0.0
C379 C 0.03625 0.536 0.41856 0.0
H380 H 0.33992 0.17445 0.26307 0.0
H381 H 0.35798 0.07496 0.31453 0.0
H382 H 0.2994 0.05926 0.28283 0.0
H383 H 0.25099 0.17856 0.30113 0.0
H384 H 0.2385 0.20336 0.24659 0.0
H385 H 0.28219 0.20576 0.27156 0.0
H386 H 0.30699 0.19193 0.18048 0.0
H387 H 0.26338 0.18956 0.15518 0.0
H388 H 0.29263 0.15536 0.14779 0.0
H389 H 0.23688 0.05556 0.24577 0.0
H390 H 0.17854 0.06423 0.20702 0.0
H391 H 0.20338 0.1667 0.18424 0.0
C392 C 0.33173 0.14927 0.26772 0.0
C393 C 0.35381 0.12584 0.29056 0.0
C394 C 0.34197 0.09319 0.29584 0.0
C395 C 0.30856 0.08413 0.27839 0.0
C396 C 0.28746 0.10805 0.25602 0.0
C397 C 0.29879 0.13995 0.25075 0.0
C398 C 0.27148 0.16145 0.22634 0.0
C399 C 0.26012 0.18889 0.26364 0.0
C400 C 0.2844 0.17538 0.17436 0.0
C401 C 0.24278 0.13677 0.21854 0.0
C402 C 0.25218 0.10606 0.23581 0.0
C403 C 0.22929 0.07959 0.2324 0.0
C404 C 0.19606 0.08479 0.21079 0.0
C405 C 0.18618 0.11624 0.19314 0.0
C406 C 0.21009 0.1423 0.1971 0.0
H407 H 0.34466 0.80465 0.73624 0.0
H408 H 0.37497 0.90688 0.73723 0.0
H409 H 0.31589 0.92204 0.76674 0.0
H410 H 0.26002 0.81775 0.6845 0.0
H411 H 0.24021 0.7855 0.72188 0.0
H412 H 0.28555 0.78292 0.70418 0.0
H413 H 0.30233 0.77632 0.80089 0.0
H414 H 0.25701 0.77874 0.81887 0.0
H415 H 0.28806 0.80652 0.84731 0.0
H416 H 0.25141 0.92555 0.79576 0.0
H417 H 0.1897 0.91685 0.8198 0.0
H418 H 0.20247 0.81268 0.7931 0.0
C419 C 0.33913 0.83028 0.74295 0.0
C420 C 0.36507 0.85439 0.73563 0.0
C421 C 0.3563 0.88765 0.7444 0.0
C422 C 0.3225 0.8966 0.7606 0.0
C423 C 0.29763 0.87206 0.76735 0.0
C424 C 0.30568 0.83958 0.75859 0.0
C425 C 0.27438 0.81775 0.76677 0.0
C426 C 0.26446 0.79995 0.71633 0.0
C427 C 0.28084 0.79341 0.8111 0.0
C428 C 0.2473 0.84294 0.78161 0.0
C429 C 0.26097 0.87416 0.78194 0.0
C430 C 0.24044 0.90117 0.79508 0.0
C431 C 0.20514 0.89602 0.80815 0.0
C432 C 0.19066 0.86412 0.80752 0.0
C433 C 0.2124 0.83745 0.79409 0.0
H434 H 0.84844 0.83637 0.77204 0.0
H435 H 0.88249 0.93115 0.71544 0.0
H436 H 0.82229 0.94434 0.69082 0.0
H437 H 0.78404 0.82227 0.67097 0.0
H438 H 0.75315 0.80285 0.71372 0.0
H439 H 0.79915 0.80032 0.72711 0.0
H440 H 0.78851 0.8246 0.81854 0.0
H441 H 0.74249 0.82729 0.80537 0.0
H442 H 0.76626 0.86325 0.82494 0.0
H443 H 0.75883 0.94849 0.6741 0.0
H444 H 0.69546 0.94246 0.66309 0.0
H445 H 0.70081 0.84472 0.72827 0.0
C446 C 0.84321 0.85983 0.75432 0.0
C447 C 0.87039 0.8827 0.74577 0.0
C448 C 0.86234 0.91313 0.7224 0.0
C449 C 0.82812 0.92094 0.70828 0.0
C450 C 0.802 0.89806 0.71741 0.0
C451 C 0.80899 0.86804 0.73958 0.0
C452 C 0.77578 0.84797 0.74464 0.0
C453 C 0.77818 0.81649 0.71217 0.0
C454 C 0.7678 0.84034 0.80178 0.0
C455 C 0.74916 0.87155 0.7222 0.0
C456 C 0.765 0.90029 0.70691 0.0
C457 C 0.7461 0.92605 0.6857 0.0
C458 C 0.71002 0.92237 0.6797 0.0
C459 C 0.69301 0.89309 0.69461 0.0
C460 C 0.713 0.86735 0.7162 0.0
H461 H 0.69869 0.0719 0.27988 0.0
H462 H 0.67831 0.17536 0.30345 0.0
H463 H 0.73948 0.18785 0.28199 0.0
H464 H 0.78566 0.07201 0.33426 0.0
H465 H 0.80253 0.04298 0.28791 0.0
H466 H 0.75711 0.04197 0.30577 0.0
H467 H 0.73982 0.04729 0.20914 0.0
H468 H 0.78517 0.04835 0.19101 0.0
H469 H 0.7565 0.08101 0.17162 0.0
H470 H 0.80246 0.18946 0.25657 0.0
H471 H 0.8634 0.17987 0.22963 0.0
H472 H 0.84322 0.07543 0.22296 0.0
C473 C 0.7071 0.09716 0.28067 0.0
C474 C 0.68364 0.12262 0.29347 0.0
C475 C 0.69576 0.15538 0.294 0.0
C476 C 0.73048 0.16277 0.2818 0.0
C477 C 0.75288 0.13715 0.26928 0.0
C478 C 0.74177 0.10501 0.26874 0.0
C479 C 0.77121 0.08213 0.25368 0.0
C480 C 0.77962 0.05837 0.29806 0.0
C481 C 0.76265 0.06361 0.20337 0.0
C482 C 0.80047 0.10649 0.24549 0.0
C483 C 0.78933 0.13808 0.25475 0.0
C484 C 0.81154 0.16482 0.24929 0.0
C485 C 0.8461 0.15911 0.2339 0.0
C486 C 0.85813 0.12691 0.22413 0.0
C487 C 0.8349 0.10033 0.2302 0.0
H488 H 0.87358 0.61234 0.23741 0.0
H489 H 0.85545 0.59151 0.39962 0.0
H490 H 0.79459 0.57599 0.37999 0.0
H491 H 0.79785 0.65245 0.21874 0.0
H492 H 0.78979 0.6386 0.15351 0.0
H493 H 0.83361 0.64006 0.17766 0.0
H494 H 0.84174 0.57863 0.15595 0.0
H495 H 0.79779 0.577 0.13143 0.0
H496 H 0.81136 0.54908 0.18143 0.0
H497 H 0.73402 0.57195 0.34577 0.0
H498 H 0.67853 0.58285 0.30121 0.0
H499 H 0.73529 0.6071 0.16097 0.0
C500 C 0.85722 0.60293 0.2682 0.0
C501 C 0.86927 0.60213 0.31972 0.0
C502 C 0.84668 0.59162 0.35975 0.0
C503 C 0.81218 0.58265 0.3489 0.0
C504 C 0.80063 0.58455 0.29782 0.0
C505 C 0.82252 0.5944 0.25804 0.0
C506 C 0.80245 0.59933 0.2082 0.0
C507 C 0.80614 0.6347 0.18843 0.0
C508 C 0.81403 0.57452 0.1668 0.0
C509 C 0.7657 0.59229 0.22675 0.0
C510 C 0.76527 0.58294 0.27816 0.0
C511 C 0.73406 0.57832 0.30509 0.0
C512 C 0.70252 0.58429 0.27925 0.0
C513 C 0.70248 0.59506 0.22717 0.0
C514 C 0.73452 0.59822 0.20047 0.0
H515 H 0.86769 0.36441 0.76221 0.0
H516 H 0.84706 0.40968 0.61398 0.0
H517 H 0.78643 0.42129 0.64153 0.0
H518 H 0.79071 0.32237 0.76811 0.0
H519 H 0.78413 0.32585 0.83709 0.0
H520 H 0.8275 0.32753 0.81071 0.0
H521 H 0.83757 0.38359 0.85507 0.0
H522 H 0.79416 0.382 0.88197 0.0
H523 H 0.80745 0.41662 0.84356 0.0
H524 H 0.72656 0.42102 0.67997 0.0
H525 H 0.67167 0.40677 0.72414 0.0
H526 H 0.73017 0.36002 0.84701 0.0
C527 C 0.85072 0.37803 0.73664 0.0
C528 C 0.86206 0.38713 0.68667 0.0
C529 C 0.83885 0.40328 0.65286 0.0
C530 C 0.80446 0.40997 0.66823 0.0
C531 C 0.79364 0.4 0.71737 0.0
C532 C 0.81609 0.38434 0.75112 0.0
C533 C 0.7968 0.37216 0.79867 0.0
C534 C 0.79997 0.33477 0.8039 0.0
C535 C 0.80977 0.38965 0.84772 0.0
C536 C 0.75986 0.38234 0.78554 0.0
C537 C 0.75871 0.39901 0.73906 0.0
C538 C 0.72721 0.40875 0.71707 0.0
C539 C 0.69606 0.40081 0.74279 0.0
C540 C 0.69656 0.38312 0.78991 0.0
C541 C 0.729 0.37418 0.81163 0.0
H542 H 0.34962 0.41607 0.78187 0.0
H543 H 0.3732 0.31223 0.78411 0.0
H544 H 0.31174 0.29986 0.76369 0.0
H545 H 0.26443 0.41007 0.84058 0.0
H546 H 0.24577 0.44188 0.80114 0.0
H547 H 0.2916 0.44258 0.81617 0.0
H548 H 0.30647 0.44463 0.71823 0.0
H549 H 0.2607 0.44398 0.7029 0.0
H550 H 0.28941 0.41354 0.67565 0.0
H551 H 0.24749 0.29877 0.74281 0.0
H552 H 0.18568 0.30909 0.72182 0.0
H553 H 0.20407 0.41363 0.7329 0.0
C554 C 0.34192 0.39071 0.77809 0.0
C555 C 0.36633 0.36512 0.78472 0.0
C556 C 0.35504 0.33228 0.77938 0.0
C557 C 0.32015 0.32499 0.76777 0.0
C558 C 0.29677 0.35078 0.76162 0.0
C559 C 0.30718 0.38298 0.76655 0.0
C560 C 0.27691 0.40616 0.75779 0.0
C561 C 0.26923 0.42636 0.80685 0.0
C562 C 0.28379 0.42838 0.71084 0.0
C563 C 0.24789 0.38197 0.74689 0.0
C564 C 0.25985 0.35015 0.74944 0.0
C565 C 0.23785 0.3236 0.7407 0.0
C566 C 0.20274 0.32972 0.72881 0.0
C567 C 0.18992 0.36217 0.72561 0.0
C568 C 0.21295 0.38854 0.73501 0.0
H569 H 0.21779 0.57932 0.27068 0.0
H570 H 0.18905 0.6815 0.25498 0.0
H571 H 0.25029 0.69525 0.23461 0.0
H572 H 0.30012 0.59264 0.33144 0.0
H573 H 0.32159 0.55942 0.29825 0.0
H574 H 0.27539 0.55756 0.31048 0.0
H575 H 0.26396 0.54885 0.21251 0.0
H576 H 0.31014 0.55056 0.19999 0.0
H577 H 0.28105 0.57785 0.16645 0.0
H578 H 0.31547 0.69799 0.21811 0.0
H579 H 0.37862 0.68914 0.2043 0.0
H580 H 0.36423 0.58513 0.23001 0.0
C581 C 0.22426 0.60459 0.26273 0.0
C582 C 0.1985 0.62932 0.26453 0.0
C583 C 0.20824 0.66208 0.25389 0.0
C584 C 0.24301 0.67016 0.2423 0.0
C585 C 0.26778 0.64521 0.24132 0.0
C586 C 0.25879 0.61306 0.25101 0.0
C587 C 0.29035 0.59084 0.24776 0.0
C588 C 0.29726 0.57414 0.3001 0.0
C589 C 0.28611 0.56554 0.20407 0.0
C590 C 0.31855 0.6155 0.23495 0.0
C591 C 0.30506 0.64674 0.23145 0.0
C592 C 0.32627 0.67359 0.22057 0.0
C593 C 0.36213 0.66833 0.21285 0.0
C594 C 0.37647 0.63645 0.21592 0.0
C595 C 0.35419 0.60981 0.2272 0.0
H596 H 0.99398 0.32833 0.90295 0.0
H597 H 0.04812 0.26599 0.79299 0.0
H598 H 0.04361 0.21965 0.8535 0.0
H599 H 0.03389 0.29646 0.01623 0.0
H600 H 0.99538 0.2983 0.05633 0.0
H601 H 1.00052 0.32637 0.0032 0.0
H602 H 0.94138 0.30742 0.96535 0.0
H603 H 0.93607 0.27923 0.01841 0.0
H604 H 0.93427 0.26459 0.95254 0.0
H605 H 0.03793 0.18202 0.92582 0.0
H606 H 0.03049 0.15308 0.00844 0.0
H607 H 0.97796 0.23769 0.07391 0.0
C608 C 1.00457 0.30478 0.89188 0.0
C609 C 0.02179 0.30051 0.84395 0.0
C610 C 0.03532 0.26957 0.83005 0.0
C611 C 0.03267 0.24315 0.86392 0.0
C612 C 0.01607 0.24807 0.91127 0.0
C613 C 1.00208 0.27793 0.92547 0.0
C614 C 0.98687 0.27644 0.97985 0.0
C615 C 1.00527 0.30084 0.01603 0.0
C616 C 0.94729 0.28226 0.97896 0.0
C617 C 0.99536 0.24133 0.99418 0.0
C618 C 0.01203 0.22559 0.95362 0.0
C619 C 0.02451 0.19383 0.95771 0.0
C620 C 0.02029 0.17769 0.0048 0.0
C621 C 1.00354 0.19319 0.04715 0.0
C622 C 0.99033 0.22523 0.04168 0.0
H623 H 0.51332 0.79613 0.53967 0.0
H624 H 0.59748 0.75056 0.62481 0.0
H625 H 0.59863 0.70501 0.56085 0.0
H626 H 0.46861 0.72346 0.49797 0.0
H627 H 0.45893 0.73941 0.43456 0.0
H628 H 0.46324 0.76686 0.48885 0.0
H629 H 0.51089 0.79955 0.43974 0.0
H630 H 0.50633 0.77251 0.3851 0.0
H631 H 0.54848 0.77833 0.41444 0.0
H632 H 0.58855 0.66376 0.48811 0.0
H633 H 0.57493 0.63473 0.40631 0.0
H634 H 0.50266 0.7119 0.36505 0.0
C635 C 0.53182 0.77639 0.54497 0.0
C636 C 0.55502 0.77635 0.58722 0.0
C637 C 0.57948 0.75073 0.59255 0.0
C638 C 0.5801 0.72479 0.55671 0.0
C639 C 0.55656 0.72542 0.51552 0.0
C640 C 0.5334 0.75096 0.509 0.0
C641 C 0.51278 0.74746 0.45948 0.0
C642 C 0.47357 0.74409 0.47093 0.0
C643 C 0.52008 0.77616 0.42251 0.0
C644 C 0.52782 0.71584 0.43897 0.0
C645 C 0.55249 0.70308 0.47227 0.0
C646 C 0.5695 0.67371 0.4616 0.0
C647 C 0.56164 0.65745 0.41513 0.0
C648 C 0.53768 0.67101 0.37943 0.0
C649 C 0.52043 0.70044 0.39196 0.0
H650 H 0.97523 0.75565 0.91992 0.0
H651 H 0.03437 0.83861 0.9773 0.0
H652 H 0.04459 0.80997 0.05937 0.0
H653 H 0.93635 0.73177 0.04661 0.0
H654 H 0.94062 0.68861 0.03381 0.0
H655 H 0.93424 0.71674 0.98097 0.0
H656 H 0.9903 0.69489 0.93668 0.0
H657 H 0.99695 0.66685 0.98945 0.0
H658 H 0.03084 0.69531 0.97188 0.0
H659 H 0.05217 0.77262 0.13177 0.0
H660 H 0.05723 0.72667 0.1929 0.0
H661 H 0.99504 0.66588 0.09093 0.0
C662 C 0.98967 0.76786 0.95032 0.0
C663 C 1.00397 0.79931 0.94251 0.0
C664 C 0.02335 0.81444 0.98255 0.0
C665 C 0.02917 0.79847 0.02939 0.0
C666 C 0.01555 0.76728 0.03566 0.0
C667 C 0.99619 0.75196 0.99755 0.0
C668 C 0.98684 0.71734 0.01372 0.0
C669 C 0.94715 0.71339 0.0191 0.0
C670 C 1.00216 0.69211 0.97566 0.0
C671 C 1.00465 0.71562 0.06614 0.0
C672 C 0.02066 0.74495 0.07796 0.0
C673 C 0.03967 0.74952 0.1232 0.0
C674 C 0.04261 0.72331 0.15742 0.0
C675 C 0.02693 0.69289 0.14596 0.0
C676 C 1.00732 0.68901 0.10014 0.0
H677 H 0.56405 0.28122 0.65743 0.0
H678 H 0.49256 0.35459 0.59969 0.0
H679 H 0.49178 0.32692 0.51429 0.0
H680 H 0.61385 0.27122 0.53337 0.0
H681 H 0.61947 0.22797 0.5439 0.0
H682 H 0.61695 0.25551 0.59842 0.0
H683 H 0.56601 0.22143 0.63635 0.0
H684 H 0.56809 0.19403 0.58185 0.0
H685 H 0.52772 0.21438 0.59752 0.0
H686 H 0.49202 0.28707 0.44106 0.0
H687 H 0.49728 0.24006 0.38114 0.0
H688 H 0.57291 0.19524 0.48332 0.0
C689 C 0.5492 0.29202 0.62621 0.0
C690 C 0.52851 0.32005 0.63462 0.0
C691 C 0.50854 0.33307 0.5936 0.0
C692 C 0.50807 0.31762 0.54511 0.0
C693 C 0.52828 0.28962 0.53826 0.0
C694 C 0.54898 0.27726 0.57736 0.0
C695 C 0.56688 0.24593 0.56078 0.0
C696 C 0.60665 0.25044 0.559 0.0
C697 C 0.55653 0.21726 0.59623 0.0
C698 C 0.55196 0.24192 0.50695 0.0
C699 C 0.52974 0.26741 0.49474 0.0
C700 C 0.51004 0.26743 0.4495 0.0
C701 C 0.51303 0.24064 0.41593 0.0
C702 C 0.53589 0.21455 0.42753 0.0
C703 C 0.55599 0.21542 0.47313 0.0
H704 H 0.50835 0.82707 0.91172 0.0
H705 H 0.60821 0.79522 0.85002 0.0
H706 H 0.61704 0.76068 0.92589 0.0
H707 H 0.52857 0.8204 0.05243 0.0
H708 H 0.48674 0.80276 0.06778 0.0
H709 H 0.49085 0.83094 0.01444 0.0
H710 H 0.46402 0.78783 0.95266 0.0
H711 H 0.45994 0.75951 0.00566 0.0
H712 H 0.48362 0.74785 0.94807 0.0
H713 H 0.61384 0.72621 0.00165 0.0
H714 H 0.5972 0.68918 0.07121 0.0
H715 H 0.49573 0.73631 0.08232 0.0
C716 C 0.53236 0.81329 0.91485 0.0
C717 C 0.55825 0.81503 0.87572 0.0
C718 C 0.58886 0.79595 0.88052 0.0
C719 C 0.59397 0.77581 0.92337 0.0
C720 C 0.56782 0.77424 0.96063 0.0
C721 C 0.53736 0.79201 0.95675 0.0
C722 C 0.51157 0.78203 0.99871 0.0
C723 C 0.504 0.81075 0.03553 0.0
C724 C 0.4778 0.7685 0.97484 0.0
C725 C 0.53218 0.75535 0.02579 0.0
C726 C 0.56481 0.75206 0.00356 0.0
C727 C 0.58852 0.72868 0.01983 0.0
C728 C 0.57866 0.7077 0.05964 0.0
C729 C 0.5451 0.70977 0.08277 0.0
C730 C 0.5216 0.7342 0.06577 0.0
H731 H 0.99961 0.2977 0.52741 0.0
H732 H 0.08778 0.25344 0.60557 0.0
H733 H 0.08873 0.20916 0.53998 0.0
H734 H 0.95679 0.22281 0.48577 0.0
H735 H 0.94432 0.2396 0.42401 0.0
H736 H 0.94874 0.26606 0.47953 0.0
H737 H 0.99277 0.30209 0.42897 0.0
H738 H 0.98838 0.27586 0.37331 0.0
H739 H 0.03087 0.28341 0.4005 0.0
H740 H 0.08053 0.1704 0.46446 0.0
H741 H 0.06668 0.14256 0.38179 0.0
H742 H 0.98699 0.21504 0.35063 0.0
C743 C 0.0188 0.27842 0.53123 0.0
C744 C 0.0434 0.27874 0.57183 0.0
C745 C 0.06863 0.25354 0.57479 0.0
C746 C 0.06926 0.22826 0.53789 0.0
C747 C 0.04472 0.22882 0.49812 0.0
C748 C 0.02016 0.25342 0.49436 0.0
C749 C 0.99834 0.24983 0.44594 0.0
C750 C 0.95976 0.24424 0.45966 0.0
C751 C 1.00288 0.27956 0.41007 0.0
C752 C 0.01456 0.21943 0.42276 0.0
C753 C 0.04093 0.20738 0.45375 0.0
C754 C 0.05994 0.17964 0.43993 0.0
C755 C 0.052 0.16409 0.39292 0.0
C756 C 0.02568 0.17658 0.36009 0.0
C757 C 1.00669 0.20451 0.37548 0.0
H758 H 0.55532 0.26032 0.92416 0.0
H759 H 0.47068 0.32259 0.97695 0.0
H760 H 0.46926 0.29332 0.06023 0.0
H761 H 0.51961 0.18607 0.98204 0.0
H762 H 0.56166 0.16946 0.99858 0.0
H763 H 0.55738 0.19616 0.94352 0.0
H764 H 0.60478 0.23419 0.9819 0.0
H765 H 0.60889 0.20781 0.03742 0.0
H766 H 0.59913 0.25058 0.04629 0.0
H767 H 0.47975 0.26146 0.13889 0.0
H768 H 0.49303 0.22032 0.20518 0.0
H769 H 0.56539 0.17257 0.09991 0.0
C770 C 0.53645 0.2675 0.95334 0.0
C771 C 0.51312 0.29365 0.94455 0.0
C772 C 0.48853 0.30242 0.98305 0.0
C773 C 0.48774 0.28618 0.03055 0.0
C774 C 0.51123 0.26078 0.03842 0.0
C775 C 0.53452 0.25077 0.00065 0.0
C776 C 0.55514 0.22117 0.0186 0.0
C777 C 0.54801 0.19145 0.98361 0.0
C778 C 0.59431 0.22892 0.0212 0.0
C779 C 0.53984 0.21642 0.07238 0.0
C780 C 0.51517 0.24015 0.08307 0.0
C781 C 0.49833 0.24222 0.13065 0.0
C782 C 0.50592 0.21864 0.16788 0.0
C783 C 0.5292 0.19267 0.15679 0.0
C784 C 0.54707 0.19193 0.10888 0.0
H785 H 1.00564 0.72526 0.41805 0.0
H786 H 0.1104 0.68911 0.4455 0.0
H787 H 0.11414 0.723 0.5244 0.0
H788 H 0.02365 0.8098 0.46396 0.0
H789 H 0.98084 0.81428 0.49206 0.0
H790 H 0.98705 0.78856 0.436 0.0
H791 H 0.95916 0.74009 0.48554 0.0
H792 H 0.95334 0.76548 0.54199 0.0
H793 H 0.97725 0.72767 0.54684 0.0
H794 H 0.10305 0.75302 0.60593 0.0
H795 H 0.0826 0.78631 0.67897 0.0
H796 H 0.98825 0.81019 0.59452 0.0
C797 C 0.02957 0.72499 0.44026 0.0
C798 C 0.05775 0.70457 0.42589 0.0
C799 C 0.08866 0.70478 0.45568 0.0
C800 C 0.09094 0.72378 0.50066 0.0
C801 C 0.0624 0.74297 0.51452 0.0
C802 C 0.03264 0.74449 0.48464 0.0
C803 C 1.00586 0.76734 0.50857 0.0
C804 C 0.99895 0.79675 0.47303 0.0
C805 C 0.9719 0.74904 0.5215 0.0
C806 C 0.0249 0.7776 0.55735 0.0
C807 C 0.05727 0.76285 0.56006 0.0
C808 C 0.07843 0.76584 0.60336 0.0
C809 C 0.06667 0.78515 0.6445 0.0
C810 C 0.03459 0.80224 0.64154 0.0
C811 C 0.01321 0.79801 0.59753 0.0
loop_
_geom_bond_atom_site_label_1
_geom_bond_atom_site_label_2
_geom_bond_distance
_geom_bond_site_symmetry_2
_ccdc_geom_bond_type
Co0 O3 1.970 . S
Co0 N17 1.989 . S
Co0 O25 1.967 . S
Co0 O32 1.920 . S
Co1 O4 1.966 . S
Co1 N10 2.022 . S
Co1 N18 1.993 . S
Co1 O26 1.941 . S
C2 O3 1.258 1_455 S
C2 O4 1.263 . S
O3 Co0 1.970 . S
O3 C2 1.258 1_655 S
O4 Co1 1.966 . S
O4 C2 1.263 . S
C5 O6 1.235 . S
C5 O32 1.289 . S
O6 C5 1.235 . S
C7 C9 1.400 . S
C7 N10 1.351 . S
C7 C12 1.501 . S
C8 C9 1.387 . S
C8 N11 1.341 . S
C9 C7 1.400 . S
C9 C8 1.387 . S
N10 Co1 2.022 . S
N10 C7 1.351 . S
N10 N11 1.365 . S
N11 C8 1.341 . S
N11 N10 1.365 . S
N11 H31 0.862 . S
C12 C7 1.501 . S
C12 H13 0.961 . S
C12 H14 0.961 . S
C12 H15 0.960 . S
H13 C12 0.961 . S
H14 C12 0.961 . S
H15 C12 0.960 . S
C16 N17 1.342 . S
C16 C20 1.401 1_655 S
C16 C21 1.499 . S
N17 Co0 1.989 . S
N17 C16 1.342 . S
N17 N18 1.388 1_655 S
N18 Co1 1.993 . S
N18 N17 1.388 1_455 S
N18 C19 1.346 . S
C19 N18 1.346 . S
C19 C20 1.396 . S
C19 C29 1.510 . S
C20 C16 1.401 1_455 S
C20 C19 1.396 . S
C21 C16 1.499 . S
C21 H22 0.959 . S
C21 H23 0.960 . S
C21 H24 0.961 . S
H22 C21 0.959 . S
H23 C21 0.960 . S
H24 C21 0.961 . S
O25 Co0 1.967 . S
O25 C33 1.258 1_655 S
O26 Co1 1.941 . S
O26 C33 1.266 . S
H27 C29 0.959 . S
H28 C29 0.961 . S
C29 C19 1.510 . S
C29 H27 0.959 . S
C29 H28 0.961 . S
C29 H30 0.960 . S
H30 C29 0.960 . S
H31 N11 0.862 . S
O32 Co0 1.920 . S
O32 C5 1.289 . S
C33 O25 1.258 1_455 S
C33 O26 1.266 . S
Co34 O37 1.970 . S
Co34 N51 1.989 . S
Co34 O59 1.967 . S
Co34 O66 1.920 . S
Co35 O38 1.966 . S
Co35 N44 2.022 . S
Co35 N52 1.993 . S
Co35 O60 1.941 . S
C36 O37 1.258 . S
C36 O38 1.263 . S
O37 Co34 1.970 . S
O37 C36 1.258 . S
O38 Co35 1.966 . S
O38 C36 1.263 . S
C39 O40 1.235 . S
C39 O66 1.289 . S
O40 C39 1.235 . S
C41 C43 1.400 . S
C41 N44 1.351 . S
C41 C46 1.501 . S
C42 C43 1.387 . S
C42 N45 1.341 . S
C43 C41 1.400 . S
C43 C42 1.387 . S
N44 Co35 2.022 . S
N44 C41 1.351 . S
N44 N45 1.365 . S
N45 C42 1.341 . S
N45 N44 1.365 . S
N45 H65 0.862 . S
C46 C41 1.501 . S
C46 H47 0.961 . S
C46 H48 0.961 . S
C46 H49 0.960 . S
H47 C46 0.961 . S
H48 C46 0.961 . S
H49 C46 0.960 . S
C50 N51 1.342 . S
C50 C54 1.401 . S
C50 C55 1.499 . S
N51 Co34 1.989 . S
N51 C50 1.342 . S
N51 N52 1.388 . S
N52 Co35 1.993 . S
N52 N51 1.388 . S
N52 C53 1.346 . S
C53 N52 1.346 . S
C53 C54 1.396 . S
C53 C63 1.510 . S
C54 C50 1.401 . S
C54 C53 1.396 . S
C55 C50 1.499 . S
C55 H56 0.959 . S
C55 H57 0.960 . S
C55 H58 0.961 . S
H56 C55 0.959 . S
H57 C55 0.960 . S
H58 C55 0.961 . S
O59 Co34 1.967 . S
O59 C67 1.258 . S
O60 Co35 1.941 . S
O60 C67 1.266 . S
H61 C63 0.959 . S
H62 C63 0.961 . S
C63 C53 1.510 . S
C63 H61 0.959 . S
C63 H62 0.961 . S
C63 H64 0.960 . S
H64 C63 0.960 . S
H65 N45 0.862 . S
O66 Co34 1.920 . S
O66 C39 1.289 . S
C67 O59 1.258 . S
C67 O60 1.266 . S
Co68 O71 1.970 . S
Co68 N85 1.989 . S
Co68 O93 1.967 . S
Co68 O100 1.920 . S
Co69 O72 1.966 . S
Co69 N78 2.022 . S
Co69 N86 1.993 . S
Co69 O94 1.941 . S
C70 O71 1.258 1_455 S
C70 O72 1.263 . S
O71 Co68 1.970 . S
O71 C70 1.258 1_655 S
O72 Co69 1.966 . S
O72 C70 1.263 . S
C73 O74 1.235 . S
C73 O100 1.289 . S
O74 C73 1.235 . S
C75 C77 1.400 . S
C75 N78 1.351 . S
C75 C80 1.501 . S
C76 C77 1.387 . S
C76 N79 1.341 . S
C77 C75 1.400 . S
C77 C76 1.387 . S
N78 Co69 2.022 . S
N78 C75 1.351 . S
N78 N79 1.365 . S
N79 C76 1.341 . S
N79 N78 1.365 . S
N79 H99 0.862 . S
C80 C75 1.501 . S
C80 H81 0.961 . S
C80 H82 0.961 . S
C80 H83 0.960 . S
H81 C80 0.961 . S
H82 C80 0.961 . S
H83 C80 0.960 . S
C84 N85 1.342 . S
C84 C88 1.401 1_655 S
C84 C89 1.499 . S
N85 Co68 1.989 . S
N85 C84 1.342 . S
N85 N86 1.388 1_655 S
N86 Co69 1.993 . S
N86 N85 1.388 1_455 S
N86 C87 1.346 . S
C87 N86 1.346 . S
C87 C88 1.396 . S
C87 C97 1.510 . S
C88 C84 1.401 1_455 S
C88 C87 1.396 . S
C89 C84 1.499 . S
C89 H90 0.959 . S
C89 H91 0.960 . S
C89 H92 0.961 . S
H90 C89 0.959 . S
H91 C89 0.960 . S
H92 C89 0.961 . S
O93 Co68 1.967 . S
O93 C101 1.258 1_655 S
O94 Co69 1.941 . S
O94 C101 1.266 . S
H95 C97 0.959 . S
H96 C97 0.961 . S
C97 C87 1.510 . S
C97 H95 0.959 . S
C97 H96 0.961 . S
C97 H98 0.960 . S
H98 C97 0.960 . S
H99 N79 0.862 . S
O100 Co68 1.920 . S
O100 C73 1.289 . S
C101 O93 1.258 1_455 S
C101 O94 1.266 . S
Co102 O105 1.970 . S
Co102 N119 1.989 . S
Co102 O127 1.967 . S
Co102 O134 1.920 . S
Co103 O106 1.966 . S
Co103 N112 2.022 . S
Co103 N120 1.993 . S
Co103 O128 1.941 . S
C104 O105 1.258 . S
C104 O106 1.263 . S
O105 Co102 1.970 . S
O105 C104 1.258 . S
O106 Co103 1.966 . S
O106 C104 1.263 . S
C107 O108 1.235 . S
C107 O134 1.289 . S
O108 C107 1.235 . S
C109 C111 1.400 . S
C109 N112 1.351 . S
C109 C114 1.501 . S
C110 C111 1.387 . S
C110 N113 1.341 . S
C111 C109 1.400 . S
C111 C110 1.387 . S
N112 Co103 2.022 . S
N112 C109 1.351 . S
N112 N113 1.365 . S
N113 C110 1.341 . S
N113 N112 1.365 . S
N113 H133 0.862 . S
C114 C109 1.501 . S
C114 H115 0.961 . S
C114 H116 0.961 . S
C114 H117 0.960 . S
H115 C114 0.961 . S
H116 C114 0.961 . S
H117 C114 0.960 . S
C118 N119 1.342 . S
C118 C122 1.401 . S
C118 C123 1.499 . S
N119 Co102 1.989 . S
N119 C118 1.342 . S
N119 N120 1.388 . S
N120 Co103 1.993 . S
N120 N119 1.388 . S
N120 C121 1.346 . S
C121 N120 1.346 . S
C121 C122 1.396 . S
C121 C131 1.510 . S
C122 C118 1.401 . S
C122 C121 1.396 . S
C123 C118 1.499 . S
C123 H124 0.959 . S
C123 H125 0.960 . S
C123 H126 0.961 . S
H124 C123 0.959 . S
H125 C123 0.960 . S
H126 C123 0.961 . S
O127 Co102 1.967 . S
O127 C135 1.258 . S
O128 Co103 1.941 . S
O128 C135 1.266 . S
H129 C131 0.959 . S
H130 C131 0.961 . S
C131 C121 1.510 . S
C131 H129 0.959 . S
C131 H130 0.961 . S
C131 H132 0.960 . S
H132 C131 0.960 . S
H133 N113 0.862 . S
O134 Co102 1.920 . S
O134 C107 1.289 . S
C135 O127 1.258 . S
C135 O128 1.266 . S
Co136 O139 1.970 . S
Co136 N153 1.989 . S
Co136 O161 1.967 . S
Co136 O168 1.920 . S
Co137 O140 1.966 . S
Co137 N146 2.022 . S
Co137 N154 1.993 . S
Co137 O162 1.941 . S
C138 O139 1.258 . S
C138 O140 1.263 . S
O139 Co136 1.970 . S
O139 C138 1.258 . S
O140 Co137 1.966 . S
O140 C138 1.263 . S
C141 O142 1.235 . S
C141 O168 1.289 . S
O142 C141 1.235 . S
C143 C145 1.400 . S
C143 N146 1.351 . S
C143 C148 1.501 . S
C144 C145 1.387 . S
C144 N147 1.341 . S
C145 C143 1.400 . S
C145 C144 1.387 . S
N146 Co137 2.022 . S
N146 C143 1.351 . S
N146 N147 1.365 . S
N147 C144 1.341 . S
N147 N146 1.365 . S
N147 H167 0.862 . S
C148 C143 1.501 . S
C148 H149 0.961 . S
C148 H150 0.961 . S
C148 H151 0.960 . S
H149 C148 0.961 . S
H150 C148 0.961 . S
H151 C148 0.960 . S
C152 N153 1.342 . S
C152 C156 1.401 . S
C152 C157 1.499 . S
N153 Co136 1.989 . S
N153 C152 1.342 . S
N153 N154 1.388 . S
N154 Co137 1.993 . S
N154 N153 1.388 . S
N154 C155 1.346 . S
C155 N154 1.346 . S
C155 C156 1.396 . S
C155 C165 1.510 . S
C156 C152 1.401 . S
C156 C155 1.396 . S
C157 C152 1.499 . S
C157 H158 0.959 . S
C157 H159 0.960 . S
C157 H160 0.961 . S
H158 C157 0.959 . S
H159 C157 0.960 . S
H160 C157 0.961 . S
O161 Co136 1.967 . S
O161 C169 1.258 . S
O162 Co137 1.941 . S
O162 C169 1.266 . S
H163 C165 0.959 . S
H164 C165 0.961 . S
C165 C155 1.510 . S
C165 H163 0.959 . S
C165 H164 0.961 . S
C165 H166 0.960 . S
H166 C165 0.960 . S
H167 N147 0.862 . S
O168 Co136 1.920 . S
O168 C141 1.289 . S
C169 O161 1.258 . S
C169 O162 1.266 . S
Co170 O173 1.970 . S
Co170 N187 1.989 . S
Co170 O195 1.967 . S
Co170 O202 1.920 . S
Co171 O174 1.973 . S
Co171 N180 2.022 . S
Co171 N188 1.993 1_655 S
Co171 O196 1.941 . S
C172 O173 1.258 . S
C172 O174 1.242 1_455 S
O173 Co170 1.970 . S
O173 C172 1.258 . S
O174 Co171 1.973 . S
O174 C172 1.242 1_655 S
C175 O176 1.235 . S
C175 O202 1.289 . S
O176 C175 1.235 . S
C177 C179 1.400 . S
C177 N180 1.351 . S
C177 C182 1.501 . S
C178 C179 1.387 . S
C178 N181 1.341 . S
C179 C177 1.400 . S
C179 C178 1.387 . S
N180 Co171 2.022 . S
N180 C177 1.351 . S
N180 N181 1.365 . S
N181 C178 1.341 . S
N181 N180 1.365 . S
N181 H201 0.862 . S
C182 C177 1.501 . S
C182 H183 0.961 . S
C182 H184 0.961 . S
C182 H185 0.960 . S
H183 C182 0.961 . S
H184 C182 0.961 . S
H185 C182 0.960 . S
C186 N187 1.342 . S
C186 C190 1.401 . S
C186 C191 1.499 . S
N187 Co170 1.989 . S
N187 C186 1.342 . S
N187 N188 1.388 . S
N188 Co171 1.993 1_455 S
N188 N187 1.388 . S
N188 C189 1.346 1_455 S
C189 N188 1.346 1_655 S
C189 C190 1.396 1_655 S
C189 C199 1.510 . S
C190 C186 1.401 . S
C190 C189 1.396 1_455 S
C191 C186 1.499 . S
C191 H192 0.959 . S
C191 H193 0.960 . S
C191 H194 0.961 . S
H192 C191 0.959 . S
H193 C191 0.960 . S
H194 C191 0.961 . S
O195 Co170 1.967 . S
O195 C203 1.258 . S
O196 Co171 1.941 . S
O196 C203 1.266 1_655 S
H197 C199 0.959 . S
H198 C199 0.961 . S
C199 C189 1.510 . S
C199 H197 0.959 . S
C199 H198 0.961 . S
C199 H200 0.960 . S
H200 C199 0.960 . S
H201 N181 0.862 . S
O202 Co170 1.920 . S
O202 C175 1.289 . S
C203 O195 1.258 . S
C203 O196 1.266 1_455 S
Co204 O207 1.970 . S
Co204 N221 1.989 . S
Co204 O229 1.967 . S
Co204 O236 1.920 . S
Co205 O208 1.966 . S
Co205 N214 2.022 . S
Co205 N222 1.993 . S
Co205 O230 1.941 . S
C206 O207 1.258 . S
C206 O208 1.263 . S
O207 Co204 1.970 . S
O207 C206 1.258 . S
O208 Co205 1.966 . S
O208 C206 1.263 . S
C209 O210 1.235 . S
C209 O236 1.289 . S
O210 C209 1.235 . S
C211 C213 1.400 . S
C211 N214 1.351 . S
C211 C216 1.501 . S
C212 C213 1.387 . S
C212 N215 1.341 . S
C213 C211 1.400 . S
C213 C212 1.387 . S
N214 Co205 2.022 . S
N214 C211 1.351 . S
N214 N215 1.365 . S
N215 C212 1.341 . S
N215 N214 1.365 . S
N215 H235 0.862 . S
C216 C211 1.501 . S
C216 H217 0.961 . S
C216 H218 0.961 . S
C216 H219 0.960 . S
H217 C216 0.961 . S
H218 C216 0.961 . S
H219 C216 0.960 . S
C220 N221 1.342 . S
C220 C224 1.401 . S
C220 C225 1.499 . S
N221 Co204 1.989 . S
N221 C220 1.342 . S
N221 N222 1.388 . S
N222 Co205 1.993 . S
N222 N221 1.388 . S
N222 C223 1.346 . S
C223 N222 1.346 . S
C223 C224 1.396 . S
C223 C233 1.510 . S
C224 C220 1.401 . S
C224 C223 1.396 . S
C225 C220 1.499 . S
C225 H226 0.959 . S
C225 H227 0.960 . S
C225 H228 0.961 . S
H226 C225 0.959 . S
H227 C225 0.960 . S
H228 C225 0.961 . S
O229 Co204 1.967 . S
O229 C237 1.258 . S
O230 Co205 1.941 . S
O230 C237 1.266 . S
H231 C233 0.959 . S
H232 C233 0.961 . S
C233 C223 1.510 . S
C233 H231 0.959 . S
C233 H232 0.961 . S
C233 H234 0.960 . S
H234 C233 0.960 . S
H235 N215 0.862 . S
O236 Co204 1.920 . S
O236 C209 1.289 . S
C237 O229 1.258 . S
C237 O230 1.266 . S
Co238 O241 1.970 . S
Co238 N255 1.989 . S
Co238 O263 1.967 . S
Co238 O270 1.920 . S
Co239 O242 1.973 . S
Co239 N248 2.022 . S
Co239 N256 1.993 1_655 S
Co239 O264 1.941 . S
C240 O241 1.258 . S
C240 O242 1.242 1_455 S
O241 Co238 1.970 . S
O241 C240 1.258 . S
O242 Co239 1.973 . S
O242 C240 1.242 1_655 S
C243 O244 1.235 . S
C243 O270 1.289 . S
O244 C243 1.235 . S
C245 C247 1.400 . S
C245 N248 1.351 . S
C245 C250 1.501 . S
C246 C247 1.387 . S
C246 N249 1.341 . S
C247 C245 1.400 . S
C247 C246 1.387 . S
N248 Co239 2.022 . S
N248 C245 1.351 . S
N248 N249 1.365 . S
N249 C246 1.341 . S
N249 N248 1.365 . S
N249 H269 0.862 . S
C250 C245 1.501 . S
C250 H251 0.961 . S
C250 H252 0.961 . S
C250 H253 0.960 . S
H251 C250 0.961 . S
H252 C250 0.961 . S
H253 C250 0.960 . S
C254 N255 1.342 . S
C254 C258 1.401 . S
C254 C259 1.499 . S
N255 Co238 1.989 . S
N255 C254 1.342 . S
N255 N256 1.388 . S
N256 Co239 1.993 1_455 S
N256 N255 1.388 . S
N256 C257 1.346 1_455 S
C257 N256 1.346 1_655 S
C257 C258 1.396 1_655 S
C257 C267 1.510 . S
C258 C254 1.401 . S
C258 C257 1.396 1_455 S
C259 C254 1.499 . S
C259 H260 0.959 . S
C259 H261 0.960 . S
C259 H262 0.961 . S
H260 C259 0.959 . S
H261 C259 0.960 . S
H262 C259 0.961 . S
O263 Co238 1.967 . S
O263 C271 1.258 . S
O264 Co239 1.941 . S
O264 C271 1.266 1_655 S
H265 C267 0.959 . S
H266 C267 0.961 . S
C267 C257 1.510 . S
C267 H265 0.959 . S
C267 H266 0.961 . S
C267 H268 0.960 . S
H268 C267 0.960 . S
H269 N249 0.862 . S
O270 Co238 1.920 . S
O270 C243 1.289 . S
C271 O263 1.258 . S
C271 O264 1.266 1_455 S
H272 C284 0.930 . S
H273 C286 0.930 . S
H274 C287 0.930 . S
H275 C291 0.959 . S
H276 C291 0.959 . S
H277 C291 0.961 . S
H278 C292 0.960 . S
H279 C292 0.961 . S
H280 C292 0.959 1_545 S
H281 C295 0.929 1_556 S
H282 C296 0.931 . S
H283 C298 0.930 . S
C284 H272 0.930 . S
C284 C285 1.399 . S
C284 C289 1.399 . S
C285 C284 1.399 . S
C285 C286 1.376 1_455 S
C286 H273 0.930 . S
C286 C285 1.376 1_655 S
C286 C287 1.388 1_565 S
C287 H274 0.930 . S
C287 C286 1.388 1_545 S
C287 C288 1.391 1_655 S
C288 C287 1.391 1_455 S
C288 C289 1.376 1_545 S
C288 C294 1.479 1_556 S
C289 C284 1.399 . S
C289 C288 1.376 1_565 S
C289 C290 1.516 1_556 S
C290 C289 1.516 1_554 S
C290 C291 1.502 . S
C290 C292 1.561 . S
C290 C293 1.526 1_565 S
C291 H275 0.959 . S
C291 H276 0.959 . S
C291 H277 0.961 . S
C291 C290 1.502 . S
C292 H278 0.960 . S
C292 H279 0.961 . S
C292 H280 0.959 1_565 S
C292 C290 1.561 . S
C293 C290 1.526 1_545 S
C293 C294 1.396 . S
C293 C298 1.390 . S
C294 C288 1.479 1_554 S
C294 C293 1.396 . S
C294 C295 1.399 1_455 S
C295 H281 0.929 1_554 S
C295 C294 1.399 1_655 S
C295 C296 1.385 . S
C296 H282 0.931 . S
C296 C295 1.385 . S
C296 C297 1.389 1_655 S
C297 C296 1.389 1_455 S
C297 C298 1.387 . S
C298 H283 0.930 . S
C298 C293 1.390 . S
C298 C297 1.387 . S
H299 C311 0.930 . S
H300 C313 0.930 . S
H301 C314 0.930 1_565 S
H302 C318 0.959 1_565 S
H303 C318 0.959 . S
H304 C318 0.961 . S
H305 C319 0.960 . S
H306 C319 0.961 . S
H307 C319 0.959 . S
H308 C322 0.929 . S
H309 C323 0.931 . S
H310 C325 0.930 . S
C311 H299 0.930 . S
C311 C312 1.399 . S
C311 C316 1.399 . S
C312 C311 1.399 . S
C312 C313 1.376 . S
C313 H300 0.930 . S
C313 C312 1.376 . S
C313 C314 1.388 . S
C314 H301 0.930 1_545 S
C314 C313 1.388 . S
C314 C315 1.390 . S
C315 C314 1.390 . S
C315 C316 1.394 . S
C315 C321 1.465 1_545 S
C316 C311 1.399 . S
C316 C315 1.394 . S
C316 C317 1.516 . S
C317 C316 1.516 . S
C317 C318 1.502 . S
C317 C319 1.561 . S
C317 C320 1.526 1_545 S
C318 H302 0.959 1_545 S
C318 H303 0.959 . S
C318 H304 0.961 . S
C318 C317 1.502 . S
C319 H305 0.960 . S
C319 H306 0.961 . S
C319 H307 0.959 . S
C319 C317 1.561 . S
C320 C317 1.526 1_565 S
C320 C321 1.396 . S
C320 C325 1.390 . S
C321 C315 1.465 1_565 S
C321 C320 1.396 . S
C321 C322 1.399 . S
C322 H308 0.929 . S
C322 C321 1.399 . S
C322 C323 1.385 . S
C323 H309 0.931 . S
C323 C322 1.385 . S
C323 C324 1.389 . S
C324 C323 1.389 . S
C324 C325 1.387 . S
C325 H310 0.930 . S
C325 C320 1.390 . S
C325 C324 1.387 . S
H326 C338 0.930 . S
H327 C340 0.930 . S
H328 C341 0.930 1_556 S
H329 C345 0.959 . S
H330 C345 0.959 . S
H331 C345 0.961 . S
H332 C346 0.960 . S
H333 C346 0.961 . S
H334 C346 0.959 . S
H335 C349 0.929 . S
H336 C350 0.931 . S
H337 C352 0.930 . S
C338 H326 0.930 . S
C338 C339 1.399 . S
C338 C343 1.399 . S
C339 C338 1.399 . S
C339 C340 1.376 . S
C340 H327 0.930 . S
C340 C339 1.376 . S
C340 C341 1.388 . S
C341 H328 0.930 1_554 S
C341 C340 1.388 . S
C341 C342 1.390 . S
C342 C341 1.390 . S
C342 C343 1.394 . S
C342 C348 1.465 1_554 S
C343 C338 1.399 . S
C343 C342 1.394 . S
C343 C344 1.516 . S
C344 C343 1.516 . S
C344 C345 1.502 . S
C344 C346 1.561 . S
C344 C347 1.526 1_554 S
C345 H329 0.959 . S
C345 H330 0.959 . S
C345 H331 0.961 . S
C345 C344 1.502 . S
C346 H332 0.960 . S
C346 H333 0.961 . S
C346 H334 0.959 . S
C346 C344 1.561 . S
C347 C344 1.526 1_556 S
C347 C348 1.396 . S
C347 C352 1.390 . S
C348 C342 1.465 1_556 S
C348 C347 1.396 . S
C348 C349 1.399 . S
C349 H335 0.929 . S
C349 C348 1.399 . S
C349 C350 1.385 . S
C350 H336 0.931 . S
C350 C349 1.385 . S
C350 C351 1.389 . S
C351 C350 1.389 . S
C351 C352 1.387 . S
C352 H337 0.930 . S
C352 C347 1.390 . S
C352 C351 1.387 . S
H353 C365 0.930 . S
H354 C367 0.930 . S
H355 C368 0.930 . S
H356 C372 0.959 . S
H357 C372 0.959 . S
H358 C372 0.961 . S
H359 C373 0.960 . S
H360 C373 0.961 . S
H361 C373 0.959 . S
H362 C376 0.929 . S
H363 C377 0.931 . S
H364 C379 0.930 . S
C365 H353 0.930 . S
C365 C366 1.399 . S
C365 C370 1.399 . S
C366 C365 1.399 . S
C366 C367 1.376 . S
C367 H354 0.930 . S
C367 C366 1.376 . S
C367 C368 1.388 . S
C368 H355 0.930 . S
C368 C367 1.388 . S
C368 C369 1.390 . S
C369 C368 1.390 . S
C369 C370 1.394 . S
C369 C375 1.465 . S
C370 C365 1.399 . S
C370 C369 1.394 . S
C370 C371 1.516 . S
C371 C370 1.516 . S
C371 C372 1.502 1_455 S
C371 C373 1.561 . S
C371 C374 1.526 . S
C372 H356 0.959 . S
C372 H357 0.959 . S
C372 H358 0.961 . S
C372 C371 1.502 1_655 S
C373 H359 0.960 . S
C373 H360 0.961 . S
C373 H361 0.959 . S
C373 C371 1.561 . S
C374 C371 1.526 . S
C374 C375 1.396 . S
C374 C379 1.390 . S
C375 C369 1.465 . S
C375 C374 1.396 . S
C375 C376 1.399 . S
C376 H362 0.929 . S
C376 C375 1.399 . S
C376 C377 1.385 . S
C377 H363 0.931 . S
C377 C376 1.385 . S
C377 C378 1.389 . S
C378 C377 1.389 . S
C378 C379 1.387 . S
C379 H364 0.930 . S
C379 C374 1.390 . S
C379 C378 1.387 . S
H380 C392 0.930 . S
H381 C394 0.930 . S
H382 C395 0.930 . S
H383 C399 0.959 . S
H384 C399 0.959 . S
H385 C399 0.961 . S
H386 C400 0.960 . S
H387 C400 0.961 . S
H388 C400 0.959 . S
H389 C403 0.929 . S
H390 C404 0.931 . S
H391 C406 0.930 . S
C392 H380 0.930 . S
C392 C393 1.399 . S
C392 C397 1.399 . S
C393 C392 1.399 . S
C393 C394 1.376 . S
C394 H381 0.930 . S
C394 C393 1.376 . S
C394 C395 1.388 . S
C395 H382 0.930 . S
C395 C394 1.388 . S
C395 C396 1.390 . S
C396 C395 1.390 . S
C396 C397 1.394 . S
C396 C402 1.465 . S
C397 C392 1.399 . S
C397 C396 1.394 . S
C397 C398 1.516 . S
C398 C397 1.516 . S
C398 C399 1.502 . S
C398 C400 1.561 . S
C398 C401 1.526 . S
C399 H383 0.959 . S
C399 H384 0.959 . S
C399 H385 0.961 . S
C399 C398 1.502 . S
C400 H386 0.960 . S
C400 H387 0.961 . S
C400 H388 0.959 . S
C400 C398 1.561 . S
C401 C398 1.526 . S
C401 C402 1.396 . S
C401 C406 1.390 . S
C402 C396 1.465 . S
C402 C401 1.396 . S
C402 C403 1.399 . S
C403 H389 0.929 . S
C403 C402 1.399 . S
C403 C404 1.385 . S
C404 H390 0.931 . S
C404 C403 1.385 . S
C404 C405 1.389 . S
C405 C404 1.389 . S
C405 C406 1.387 . S
C406 H391 0.930 . S
C406 C401 1.390 . S
C406 C405 1.387 . S
H407 C419 0.930 . S
H408 C421 0.930 . S
H409 C422 0.930 . S
H410 C426 0.959 . S
H411 C426 0.959 . S
H412 C426 0.961 . S
H413 C427 0.960 . S
H414 C427 0.961 . S
H415 C427 0.959 . S
H416 C430 0.929 . S
H417 C431 0.931 . S
H418 C433 0.930 . S
C419 H407 0.930 . S
C419 C420 1.399 . S
C419 C424 1.399 . S
C420 C419 1.399 . S
C420 C421 1.376 . S
C421 H408 0.930 . S
C421 C420 1.376 . S
C421 C422 1.388 . S
C422 H409 0.930 . S
C422 C421 1.388 . S
C422 C423 1.390 . S
C423 C422 1.390 . S
C423 C424 1.394 . S
C423 C429 1.465 . S
C424 C419 1.399 . S
C424 C423 1.394 . S
C424 C425 1.516 . S
C425 C424 1.516 . S
C425 C426 1.502 . S
C425 C427 1.561 . S
C425 C428 1.526 . S
C426 H410 0.959 . S
C426 H411 0.959 . S
C426 H412 0.961 . S
C426 C425 1.502 . S
C427 H413 0.960 . S
C427 H414 0.961 . S
C427 H415 0.959 . S
C427 C425 1.561 . S
C428 C425 1.526 . S
C428 C429 1.396 . S
C428 C433 1.390 . S
C429 C423 1.465 . S
C429 C428 1.396 . S
C429 C430 1.399 . S
C430 H416 0.929 . S
C430 C429 1.399 . S
C430 C431 1.385 . S
C431 H417 0.931 . S
C431 C430 1.385 . S
C431 C432 1.389 . S
C432 C431 1.389 . S
C432 C433 1.387 . S
C433 H418 0.930 . S
C433 C428 1.390 . S
C433 C432 1.387 . S
H434 C446 0.930 . S
H435 C448 0.930 . S
H436 C449 0.930 . S
H437 C453 0.959 . S
H438 C453 0.959 . S
H439 C453 0.961 . S
H440 C454 0.960 . S
H441 C454 0.961 . S
H442 C454 0.959 . S
H443 C457 0.929 . S
H444 C458 0.931 . S
H445 C460 0.930 . S
C446 H434 0.930 . S
C446 C447 1.399 . S
C446 C451 1.399 . S
C447 C446 1.399 . S
C447 C448 1.376 . S
C448 H435 0.930 . S
C448 C447 1.376 . S
C448 C449 1.388 . S
C449 H436 0.930 . S
C449 C448 1.388 . S
C449 C450 1.390 . S
C450 C449 1.390 . S
C450 C451 1.394 . S
C450 C456 1.465 . S
C451 C446 1.399 . S
C451 C450 1.394 . S
C451 C452 1.516 . S
C452 C451 1.516 . S
C452 C453 1.502 . S
C452 C454 1.561 . S
C452 C455 1.526 . S
C453 H437 0.959 . S
C453 H438 0.959 . S
C453 H439 0.961 . S
C453 C452 1.502 . S
C454 H440 0.960 . S
C454 H441 0.961 . S
C454 H442 0.959 . S
C454 C452 1.561 . S
C455 C452 1.526 . S
C455 C456 1.396 . S
C455 C460 1.390 . S
C456 C450 1.465 . S
C456 C455 1.396 . S
C456 C457 1.399 . S
C457 H443 0.929 . S
C457 C456 1.399 . S
C457 C458 1.385 . S
C458 H444 0.931 . S
C458 C457 1.385 . S
C458 C459 1.389 . S
C459 C458 1.389 . S
C459 C460 1.387 . S
C460 H445 0.930 . S
C460 C455 1.390 . S
C460 C459 1.387 . S
H461 C473 0.930 . S
H462 C475 0.930 . S
H463 C476 0.930 . S
H464 C480 0.959 . S
H465 C480 0.959 . S
H466 C480 0.961 . S
H467 C481 0.960 . S
H468 C481 0.961 . S
H469 C481 0.959 . S
H470 C484 0.929 . S
H471 C485 0.931 . S
H472 C487 0.930 . S
C473 H461 0.930 . S
C473 C474 1.399 . S
C473 C478 1.399 . S
C474 C473 1.399 . S
C474 C475 1.376 . S
C475 H462 0.930 . S
C475 C474 1.376 . S
C475 C476 1.388 . S
C476 H463 0.930 . S
C476 C475 1.388 . S
C476 C477 1.390 . S
C477 C476 1.390 . S
C477 C478 1.394 . S
C477 C483 1.465 . S
C478 C473 1.399 . S
C478 C477 1.394 . S
C478 C479 1.516 . S
C479 C478 1.516 . S
C479 C480 1.502 . S
C479 C481 1.561 . S
C479 C482 1.526 . S
C480 H464 0.959 . S
C480 H465 0.959 . S
C480 H466 0.961 . S
C480 C479 1.502 . S
C481 H467 0.960 . S
C481 H468 0.961 . S
C481 H469 0.959 . S
C481 C479 1.561 . S
C482 C479 1.526 . S
C482 C483 1.396 . S
C482 C487 1.390 . S
C483 C477 1.465 . S
C483 C482 1.396 . S
C483 C484 1.399 . S
C484 H470 0.929 . S
C484 C483 1.399 . S
C484 C485 1.385 . S
C485 H471 0.931 . S
C485 C484 1.385 . S
C485 C486 1.389 . S
C486 C485 1.389 . S
C486 C487 1.387 . S
C487 H472 0.930 . S
C487 C482 1.390 . S
C487 C486 1.387 . S
H488 C500 0.930 . S
H489 C502 0.930 . S
H490 C503 0.930 . S
H491 C507 0.959 . S
H492 C507 0.959 . S
H493 C507 0.961 . S
H494 C508 0.960 . S
H495 C508 0.961 . S
H496 C508 0.959 . S
H497 C511 0.929 . S
H498 C512 0.931 . S
H499 C514 0.930 . S
C500 H488 0.930 . S
C500 C501 1.399 . S
C500 C505 1.399 . S
C501 C500 1.399 . S
C501 C502 1.376 . S
C502 H489 0.930 . S
C502 C501 1.376 . S
C502 C503 1.388 . S
C503 H490 0.930 . S
C503 C502 1.388 . S
C503 C504 1.390 . S
C504 C503 1.390 . S
C504 C505 1.394 . S
C504 C510 1.465 . S
C505 C500 1.399 . S
C505 C504 1.394 . S
C505 C506 1.516 . S
C506 C505 1.516 . S
C506 C507 1.502 . S
C506 C508 1.561 . S
C506 C509 1.526 . S
C507 H491 0.959 . S
C507 H492 0.959 . S
C507 H493 0.961 . S
C507 C506 1.502 . S
C508 H494 0.960 . S
C508 H495 0.961 . S
C508 H496 0.959 . S
C508 C506 1.561 . S
C509 C506 1.526 . S
C509 C510 1.396 . S
C509 C514 1.390 . S
C510 C504 1.465 . S
C510 C509 1.396 . S
C510 C511 1.399 . S
C511 H497 0.929 . S
C511 C510 1.399 . S
C511 C512 1.385 . S
C512 H498 0.931 . S
C512 C511 1.385 . S
C512 C513 1.389 . S
C513 C512 1.389 . S
C513 C514 1.387 . S
C514 H499 0.930 . S
C514 C509 1.390 . S
C514 C513 1.387 . S
H515 C527 0.930 . S
H516 C529 0.930 . S
H517 C530 0.930 . S
H518 C534 0.959 . S
H519 C534 0.959 . S
H520 C534 0.961 . S
H521 C535 0.960 . S
H522 C535 0.961 . S
H523 C535 0.959 . S
H524 C538 0.929 . S
H525 C539 0.931 . S
H526 C541 0.930 . S
C527 H515 0.930 . S
C527 C528 1.399 . S
C527 C532 1.399 . S
C528 C527 1.399 . S
C528 C529 1.376 . S
C529 H516 0.930 . S
C529 C528 1.376 . S
C529 C530 1.388 . S
C530 H517 0.930 . S
C530 C529 1.388 . S
C530 C531 1.390 . S
C531 C530 1.390 . S
C531 C532 1.394 . S
C531 C537 1.465 . S
C532 C527 1.399 . S
C532 C531 1.394 . S
C532 C533 1.516 . S
C533 C532 1.516 . S
C533 C534 1.502 . S
C533 C535 1.561 . S
C533 C536 1.526 . S
C534 H518 0.959 . S
C534 H519 0.959 . S
C534 H520 0.961 . S
C534 C533 1.502 . S
C535 H521 0.960 . S
C535 H522 0.961 . S
C535 H523 0.959 . S
C535 C533 1.561 . S
C536 C533 1.526 . S
C536 C537 1.396 . S
C536 C541 1.390 . S
C537 C531 1.465 . S
C537 C536 1.396 . S
C537 C538 1.399 . S
C538 H524 0.929 . S
C538 C537 1.399 . S
C538 C539 1.385 . S
C539 H525 0.931 . S
C539 C538 1.385 . S
C539 C540 1.389 . S
C540 C539 1.389 . S
C540 C541 1.387 . S
C541 H526 0.930 . S
C541 C536 1.390 . S
C541 C540 1.387 . S
H542 C554 0.930 . S
H543 C556 0.930 . S
H544 C557 0.930 . S
H545 C561 0.959 . S
H546 C561 0.959 . S
H547 C561 0.961 . S
H548 C562 0.960 . S
H549 C562 0.961 . S
H550 C562 0.959 . S
H551 C565 0.929 . S
H552 C566 0.931 . S
H553 C568 0.930 . S
C554 H542 0.930 . S
C554 C555 1.399 . S
C554 C559 1.399 . S
C555 C554 1.399 . S
C555 C556 1.376 . S
C556 H543 0.930 . S
C556 C555 1.376 . S
C556 C557 1.388 . S
C557 H544 0.930 . S
C557 C556 1.388 . S
C557 C558 1.390 . S
C558 C557 1.390 . S
C558 C559 1.394 . S
C558 C564 1.465 . S
C559 C554 1.399 . S
C559 C558 1.394 . S
C559 C560 1.516 . S
C560 C559 1.516 . S
C560 C561 1.502 . S
C560 C562 1.561 . S
C560 C563 1.526 . S
C561 H545 0.959 . S
C561 H546 0.959 . S
C561 H547 0.961 . S
C561 C560 1.502 . S
C562 H548 0.960 . S
C562 H549 0.961 . S
C562 H550 0.959 . S
C562 C560 1.561 . S
C563 C560 1.526 . S
C563 C564 1.396 . S
C563 C568 1.390 . S
C564 C558 1.465 . S
C564 C563 1.396 . S
C564 C565 1.399 . S
C565 H551 0.929 . S
C565 C564 1.399 . S
C565 C566 1.385 . S
C566 H552 0.931 . S
C566 C565 1.385 . S
C566 C567 1.389 . S
C567 C566 1.389 . S
C567 C568 1.387 . S
C568 H553 0.930 . S
C568 C563 1.390 . S
C568 C567 1.387 . S
H569 C581 0.930 . S
H570 C583 0.930 . S
H571 C584 0.930 . S
H572 C588 0.959 . S
H573 C588 0.959 . S
H574 C588 0.961 . S
H575 C589 0.960 . S
H576 C589 0.961 . S
H577 C589 0.959 . S
H578 C592 0.929 . S
H579 C593 0.931 . S
H580 C595 0.930 . S
C581 H569 0.930 . S
C581 C582 1.399 . S
C581 C586 1.399 . S
C582 C581 1.399 . S
C582 C583 1.376 . S
C583 H570 0.930 . S
C583 C582 1.376 . S
C583 C584 1.388 . S
C584 H571 0.930 . S
C584 C583 1.388 . S
C584 C585 1.390 . S
C585 C584 1.390 . S
C585 C586 1.394 . S
C585 C591 1.465 . S
C586 C581 1.399 . S
C586 C585 1.394 . S
C586 C587 1.516 . S
C587 C586 1.516 . S
C587 C588 1.502 . S
C587 C589 1.561 . S
C587 C590 1.526 . S
C588 H572 0.959 . S
C588 H573 0.959 . S
C588 H574 0.961 . S
C588 C587 1.502 . S
C589 H575 0.960 . S
C589 H576 0.961 . S
C589 H577 0.959 . S
C589 C587 1.561 . S
C590 C587 1.526 . S
C590 C591 1.396 . S
C590 C595 1.390 . S
C591 C585 1.465 . S
C591 C590 1.396 . S
C591 C592 1.399 . S
C592 H578 0.929 . S
C592 C591 1.399 . S
C592 C593 1.385 . S
C593 H579 0.931 . S
C593 C592 1.385 . S
C593 C594 1.389 . S
C594 C593 1.389 . S
C594 C595 1.387 . S
C595 H580 0.930 . S
C595 C590 1.390 . S
C595 C594 1.387 . S
H596 C608 0.930 . S
H597 C610 0.930 . S
H598 C611 0.930 . S
H599 C615 0.959 . S
H600 C615 0.959 . S
H601 C615 0.961 . S
H602 C616 0.960 1_556 S
H603 C616 0.961 . S
H604 C616 0.959 1_556 S
H605 C619 0.929 . S
H606 C620 0.931 . S
H607 C622 0.929 . S
C608 H596 0.930 . S
C608 C609 1.399 . S
C608 C613 1.399 . S
C609 C608 1.399 . S
C609 C610 1.376 . S
C610 H597 0.930 . S
C610 C609 1.376 . S
C610 C611 1.388 . S
C611 H598 0.930 . S
C611 C610 1.388 . S
C611 C612 1.390 . S
C612 C611 1.390 . S
C612 C613 1.394 . S
C612 C618 1.465 . S
C613 C608 1.399 . S
C613 C612 1.394 . S
C613 C614 1.514 . S
C614 C613 1.514 . S
C614 C615 1.503 1_556 S
C614 C616 1.561 1_456 S
C614 C617 1.526 1_556 S
C615 H599 0.959 . S
C615 H600 0.959 . S
C615 H601 0.961 . S
C615 C614 1.503 1_554 S
C616 H602 0.960 1_554 S
C616 H603 0.961 . S
C616 H604 0.959 1_554 S
C616 C614 1.561 1_654 S
C617 C614 1.526 1_554 S
C617 C618 1.396 1_554 S
C617 C622 1.390 . S
C618 C612 1.465 . S
C618 C617 1.396 1_556 S
C618 C619 1.399 . S
C619 H605 0.929 . S
C619 C618 1.399 . S
C619 C620 1.385 1_556 S
C620 H606 0.931 . S
C620 C619 1.385 1_554 S
C620 C621 1.389 . S
C621 C620 1.389 . S
C621 C622 1.387 . S
C622 H607 0.929 . S
C622 C617 1.390 . S
C622 C621 1.387 . S
H623 C635 0.930 . S
H624 C637 0.930 . S
H625 C638 0.930 . S
H626 C642 0.959 . S
H627 C642 0.959 . S
H628 C642 0.961 . S
H629 C643 0.960 . S
H630 C643 0.961 . S
H631 C643 0.959 . S
H632 C646 0.929 . S
H633 C647 0.931 . S
H634 C649 0.930 . S
C635 H623 0.930 . S
C635 C636 1.399 . S
C635 C640 1.399 . S
C636 C635 1.399 . S
C636 C637 1.376 . S
C637 H624 0.930 . S
C637 C636 1.376 . S
C637 C638 1.388 . S
C638 H625 0.930 . S
C638 C637 1.388 . S
C638 C639 1.390 . S
C639 C638 1.390 . S
C639 C640 1.394 . S
C639 C645 1.465 . S
C640 C635 1.399 . S
C640 C639 1.394 . S
C640 C641 1.516 . S
C641 C640 1.516 . S
C641 C642 1.502 . S
C641 C643 1.561 . S
C641 C644 1.526 . S
C642 H626 0.959 . S
C642 H627 0.959 . S
C642 H628 0.961 . S
C642 C641 1.502 . S
C643 H629 0.960 . S
C643 H630 0.961 . S
C643 H631 0.959 . S
C643 C641 1.561 . S
C644 C641 1.526 . S
C644 C645 1.396 . S
C644 C649 1.390 . S
C645 C639 1.465 . S
C645 C644 1.396 . S
C645 C646 1.399 . S
C646 H632 0.929 . S
C646 C645 1.399 . S
C646 C647 1.385 . S
C647 H633 0.931 . S
C647 C646 1.385 . S
C647 C648 1.389 . S
C648 C647 1.389 . S
C648 C649 1.387 . S
C649 H634 0.930 . S
C649 C644 1.390 . S
C649 C648 1.387 . S
H650 C662 0.932 . S
H651 C664 0.930 . S
H652 C665 0.930 . S
H653 C669 0.959 1_554 S
H654 C669 0.959 . S
H655 C669 0.961 . S
H656 C670 0.960 . S
H657 C670 0.961 . S
H658 C670 0.959 . S
H659 C673 0.929 . S
H660 C674 0.931 . S
H661 C676 0.930 . S
C662 H650 0.932 . S
C662 C663 1.399 . S
C662 C667 1.399 . S
C663 C662 1.399 . S
C663 C664 1.376 . S
C664 H651 0.930 . S
C664 C663 1.376 . S
C664 C665 1.388 1_556 S
C665 H652 0.930 . S
C665 C664 1.388 1_554 S
C665 C666 1.390 . S
C666 C665 1.390 . S
C666 C667 1.394 1_554 S
C666 C672 1.465 . S
C667 C662 1.399 . S
C667 C666 1.394 1_556 S
C667 C668 1.516 . S
C668 C667 1.516 . S
C668 C669 1.502 1_455 S
C668 C670 1.561 . S
C668 C671 1.526 1_556 S
C669 H653 0.959 1_556 S
C669 H654 0.959 . S
C669 H655 0.961 . S
C669 C668 1.502 1_655 S
C670 H656 0.960 . S
C670 H657 0.961 . S
C670 H658 0.959 . S
C670 C668 1.561 . S
C671 C668 1.526 1_554 S
C671 C672 1.396 . S
C671 C676 1.390 . S
C672 C666 1.465 . S
C672 C671 1.396 . S
C672 C673 1.399 . S
C673 H659 0.929 . S
C673 C672 1.399 . S
C673 C674 1.385 . S
C674 H660 0.931 . S
C674 C673 1.385 . S
C674 C675 1.389 . S
C675 C674 1.389 . S
C675 C676 1.387 . S
C676 H661 0.930 . S
C676 C671 1.390 . S
C676 C675 1.387 . S
H677 C689 0.930 . S
H678 C691 0.930 . S
H679 C692 0.930 . S
H680 C696 0.959 . S
H681 C696 0.959 . S
H682 C696 0.961 . S
H683 C697 0.960 . S
H684 C697 0.961 . S
H685 C697 0.959 . S
H686 C700 0.929 . S
H687 C701 0.931 . S
H688 C703 0.930 . S
C689 H677 0.930 . S
C689 C690 1.399 . S
C689 C694 1.399 . S
C690 C689 1.399 . S
C690 C691 1.376 . S
C691 H678 0.930 . S
C691 C690 1.376 . S
C691 C692 1.388 . S
C692 H679 0.930 . S
C692 C691 1.388 . S
C692 C693 1.390 . S
C693 C692 1.390 . S
C693 C694 1.394 . S
C693 C699 1.465 . S
C694 C689 1.399 . S
C694 C693 1.394 . S
C694 C695 1.516 . S
C695 C694 1.516 . S
C695 C696 1.502 . S
C695 C697 1.561 . S
C695 C698 1.526 . S
C696 H680 0.959 . S
C696 H681 0.959 . S
C696 H682 0.961 . S
C696 C695 1.502 . S
C697 H683 0.960 . S
C697 H684 0.961 . S
C697 H685 0.959 . S
C697 C695 1.561 . S
C698 C695 1.526 . S
C698 C699 1.396 . S
C698 C703 1.390 . S
C699 C693 1.465 . S
C699 C698 1.396 . S
C699 C700 1.399 . S
C700 H686 0.929 . S
C700 C699 1.399 . S
C700 C701 1.385 . S
C701 H687 0.931 . S
C701 C700 1.385 . S
C701 C702 1.389 . S
C702 C701 1.389 . S
C702 C703 1.387 . S
C703 H688 0.930 . S
C703 C698 1.390 . S
C703 C702 1.387 . S
H704 C716 0.930 . S
H705 C718 0.930 . S
H706 C719 0.930 . S
H707 C723 0.959 . S
H708 C723 0.959 . S
H709 C723 0.961 . S
H710 C724 0.962 . S
H711 C724 0.961 . S
H712 C724 0.959 1_556 S
H713 C727 0.929 . S
H714 C728 0.931 . S
H715 C730 0.930 . S
C716 H704 0.930 . S
C716 C717 1.399 . S
C716 C721 1.399 . S
C717 C716 1.399 . S
C717 C718 1.376 . S
C718 H705 0.930 . S
C718 C717 1.376 . S
C718 C719 1.388 . S
C719 H706 0.930 . S
C719 C718 1.388 . S
C719 C720 1.390 . S
C720 C719 1.390 . S
C720 C721 1.394 . S
C720 C726 1.465 . S
C721 C716 1.399 . S
C721 C720 1.394 . S
C721 C722 1.516 1_556 S
C722 C721 1.516 1_554 S
C722 C723 1.502 . S
C722 C724 1.561 . S
C722 C725 1.526 . S
C723 H707 0.959 . S
C723 H708 0.959 . S
C723 H709 0.961 . S
C723 C722 1.502 . S
C724 H710 0.962 . S
C724 H711 0.961 . S
C724 H712 0.959 1_554 S
C724 C722 1.561 . S
C725 C722 1.526 . S
C725 C726 1.396 1_554 S
C725 C730 1.390 . S
C726 C720 1.465 . S
C726 C725 1.396 1_556 S
C726 C727 1.399 . S
C727 H713 0.929 . S
C727 C726 1.399 . S
C727 C728 1.385 1_556 S
C728 H714 0.931 . S
C728 C727 1.385 1_554 S
C728 C729 1.389 . S
C729 C728 1.389 . S
C729 C730 1.387 . S
C730 H715 0.930 . S
C730 C725 1.390 . S
C730 C729 1.387 . S
H731 C743 0.930 . S
H732 C745 0.930 . S
H733 C746 0.930 . S
H734 C750 0.959 1_655 S
H735 C750 0.959 . S
H736 C750 0.961 . S
H737 C751 0.960 . S
H738 C751 0.961 . S
H739 C751 0.959 . S
H740 C754 0.929 . S
H741 C755 0.931 . S
H742 C757 0.930 . S
C743 H731 0.930 . S
C743 C744 1.399 . S
C743 C748 1.399 . S
C744 C743 1.399 . S
C744 C745 1.376 . S
C745 H732 0.930 . S
C745 C744 1.376 . S
C745 C746 1.388 . S
C746 H733 0.930 . S
C746 C745 1.388 . S
C746 C747 1.390 . S
C747 C746 1.390 . S
C747 C748 1.394 . S
C747 C753 1.465 . S
C748 C743 1.399 . S
C748 C747 1.394 . S
C748 C749 1.516 . S
C749 C748 1.516 . S
C749 C750 1.502 . S
C749 C751 1.561 . S
C749 C752 1.526 . S
C750 H734 0.959 1_455 S
C750 H735 0.959 . S
C750 H736 0.961 . S
C750 C749 1.502 . S
C751 H737 0.960 . S
C751 H738 0.961 . S
C751 H739 0.959 . S
C751 C749 1.561 . S
C752 C749 1.526 . S
C752 C753 1.396 . S
C752 C757 1.390 . S
C753 C747 1.465 . S
C753 C752 1.396 . S
C753 C754 1.399 . S
C754 H740 0.929 . S
C754 C753 1.399 . S
C754 C755 1.385 . S
C755 H741 0.931 . S
C755 C754 1.385 . S
C755 C756 1.389 . S
C756 C755 1.389 . S
C756 C757 1.387 . S
C757 H742 0.930 . S
C757 C752 1.390 . S
C757 C756 1.387 . S
H758 C770 0.930 . S
H759 C772 0.930 . S
H760 C773 0.930 . S
H761 C777 0.959 . S
H762 C777 0.959 . S
H763 C777 0.961 . S
H764 C778 0.960 1_556 S
H765 C778 0.961 . S
H766 C778 0.959 . S
H767 C781 0.929 . S
H768 C782 0.931 . S
H769 C784 0.930 . S
C770 H758 0.930 . S
C770 C771 1.399 . S
C770 C775 1.399 . S
C771 C770 1.399 . S
C771 C772 1.376 . S
C772 H759 0.930 . S
C772 C771 1.376 . S
C772 C773 1.388 1_556 S
C773 H760 0.930 . S
C773 C772 1.388 1_554 S
C773 C774 1.390 . S
C774 C773 1.390 . S
C774 C775 1.394 1_554 S
C774 C780 1.465 . S
C775 C770 1.399 . S
C775 C774 1.394 1_556 S
C775 C776 1.516 1_556 S
C776 C775 1.516 1_554 S
C776 C777 1.502 1_554 S
C776 C778 1.561 . S
C776 C779 1.526 . S
C777 H761 0.959 . S
C777 H762 0.959 . S
C777 H763 0.961 . S
C777 C776 1.502 1_556 S
C778 H764 0.960 1_554 S
C778 H765 0.961 . S
C778 H766 0.959 . S
C778 C776 1.561 . S
C779 C776 1.526 . S
C779 C780 1.396 . S
C779 C784 1.390 . S
C780 C774 1.465 . S
C780 C779 1.396 . S
C780 C781 1.399 . S
C781 H767 0.929 . S
C781 C780 1.399 . S
C781 C782 1.385 . S
C782 H768 0.931 . S
C782 C781 1.385 . S
C782 C783 1.389 . S
C783 C782 1.389 . S
C783 C784 1.387 . S
C784 H769 0.930 . S
C784 C779 1.390 . S
C784 C783 1.387 . S
H785 C797 0.930 1_655 S
H786 C799 0.930 . S
H787 C800 0.930 . S
H788 C804 0.959 1_455 S
H789 C804 0.959 . S
H790 C804 0.961 . S
H791 C805 0.960 . S
H792 C805 0.961 . S
H793 C805 0.959 . S
H794 C808 0.929 . S
H795 C809 0.931 . S
H796 C811 0.930 . S
C797 H785 0.930 1_455 S
C797 C798 1.399 . S
C797 C802 1.399 . S
C798 C797 1.399 . S
C798 C799 1.376 . S
C799 H786 0.930 . S
C799 C798 1.376 . S
C799 C800 1.388 . S
C800 H787 0.930 . S
C800 C799 1.388 . S
C800 C801 1.390 . S
C801 C800 1.390 . S
C801 C802 1.394 . S
C801 C807 1.465 . S
C802 C797 1.399 . S
C802 C801 1.394 . S
C802 C803 1.516 1_455 S
C803 C802 1.516 1_655 S
C803 C804 1.502 . S
C803 C805 1.561 . S
C803 C806 1.526 1_655 S
C804 H788 0.959 1_655 S
C804 H789 0.959 . S
C804 H790 0.961 . S
C804 C803 1.502 . S
C805 H791 0.960 . S
C805 H792 0.961 . S
C805 H793 0.959 . S
C805 C803 1.561 . S
C806 C803 1.526 1_455 S
C806 C807 1.396 . S
C806 C811 1.390 1_455 S
C807 C801 1.465 . S
C807 C806 1.396 . S
C807 C808 1.399 . S
C808 H794 0.929 . S
C808 C807 1.399 . S
C808 C809 1.385 . S
C809 H795 0.931 . S
C809 C808 1.385 . S
C809 C810 1.389 . S
C810 C809 1.389 . S
C810 C811 1.387 1_455 S
C811 H796 0.930 . S
C811 C806 1.390 1_655 S
C811 C810 1.387 1_655 S
C285 C70 1.690 . S
C297 C2 1.642 . S
C312 C104 1.672 . S
C324 C36 1.659 . S
C339 C138 1.647 . S
C351 C206 1.684 . S
C366 C172 1.643 . S
C378 C240 1.688 . S
C393 C111 1.199 . S
C405 C9 1.189 . S
C420 C43 1.198 . S
C432 C77 1.186 . S
C447 C73 1.878 . S
C459 C39 1.857 . S
C474 C107 1.866 . S
C486 C5 1.888 . S
C501 C247 1.094 . S
C513 C145 1.112 . S
C528 C179 1.088 . S
C540 C213 1.102 . S
C555 C209 1.859 . S
C567 C175 1.892 . S
C582 C243 1.869 . S
C594 C141 1.886 . S
C609 C190 1.265 . S
C621 C33 1.280 . S
C636 C67 1.293 . S
C648 C156 1.289 . S
C663 C101 1.270 . S
C675 C258 1.268 . S
C690 C224 1.281 . S
C702 C135 1.262 . S
C717 C54 1.265 . S
C729 C169 1.283 . S
C744 C203 1.283 . S
C756 C20 1.296 . S
C771 C237 1.289 . S
C783 C122 1.268 . S
C798 C271 1.289 . S
C810 C88 1.268 . S
