# Generated by pormake.
# Topology sxc, (6)-cn, num edge types: 1
# Building blocks:
#     Node 0, Type 0, BuildingBlock: GEDQOX_clean_sbu_0, # of connection points: 6
#     Node 1, Type 0, BuildingBlock: GEDQOX_clean_sbu_0, # of connection points: 6
#     Node 2, Type 0, BuildingBlock: GEDQOX_clean_sbu_0, # of connection points: 6
#     Edge 3, Type (0, 0), BuildingBlock: CIFDUS_clean_linker_0, # of connection points: 2
#     Edge 4, Type (0, 0), BuildingBlock: CIFDUS_clean_linker_0, # of connection points: 2
#     Edge 5, Type (0, 0), BuildingBlock: CIFDUS_clean_linker_0, # of connection points: 2
#     Edge 6, Type (0, 0), BuildingBlock: CIFDUS_clean_linker_0, # of connection points: 2
#     Edge 7, Type (0, 0), BuildingBlock: CIFDUS_clean_linker_0, # of connection points: 2
#     Edge 8, Type (0, 0), BuildingBlock: CIFDUS_clean_linker_0, # of connection points: 2
#     Edge 9, Type (0, 0), BuildingBlock: CIFDUS_clean_linker_0, # of connection points: 2
#     Edge 10, Type (0, 0), BuildingBlock: CIFDUS_clean_linker_0, # of connection points: 2
#     Edge 11, Type (0, 0), BuildingBlock: CIFDUS_clean_linker_0, # of connection points: 2
# Relax obj value: 0.377
# Max RMSD: 0.179
# Mean RMSD: 0.100
data_MOF--net-sxc--node1-GEDQOX_clean_sbu_0--edge1-CIFDUS_clean_linker_0
_symmetry_space_group_name_H-M    P1
_symmetry_Int_Tables_number       1
_symmetry_cell_setting            triclinic
loop_
_symmetry_equiv_pos_as_xyz
'x, y, z'
_cell_length_a     21.103509
_cell_length_b     15.957675
_cell_length_c     40.073869
_cell_angle_alpha  93.777206
_cell_angle_beta   88.833063
_cell_angle_gamma 137.30541
loop_
_atom_site_label
_atom_site_type_symbol
_atom_site_fract_x
_atom_site_fract_y
_atom_site_fract_z
_atom_type_partial_charge
Nd0 Nd 0.1747 0.22456 0.00265 0.0
Nd1 Nd 0.162 1.05777 -0.0052 0.0
C2 C 0.15471 0.36279 -0.01122 0.0
C3 C 0.16403 0.40293 0.9554 0.0
C4 C 0.22699 0.4256 0.93311 0.0
C5 C 0.22715 0.44696 0.89981 0.0
C6 C 0.16336 0.44406 0.88808 0.0
C7 C 1.09983 0.42004 0.91055 0.0
C8 C 1.10007 0.39935 0.94379 0.0
C9 C 0.19223 0.18981 0.06803 0.0
C10 C 0.37766 0.33904 0.00304 0.0
C11 C 0.171 0.90499 0.9791 0.0
C12 C 0.15564 0.85475 0.9444 0.0
C13 C 1.09165 0.727 0.93735 0.0
C14 C 1.06856 0.67729 0.90425 0.0
C15 C 1.10887 0.75435 0.87737 0.0
C16 C 0.17152 0.88219 0.88446 0.0
C17 C 0.19421 0.93185 0.91765 0.0
C18 C 0.14601 1.10814 0.93137 0.0
C19 C 0.95795 0.93512 0.0021 0.0
O20 O 1.0839 0.24361 -0.00929 0.0
O21 O 0.23074 0.40911 0.00343 0.0
O22 O 0.23869 0.29511 0.05627 0.0
O23 O 0.13594 1.10199 0.04549 0.0
O24 O 0.33378 0.36259 -0.00763 0.0
O25 O 0.32287 0.22473 0.01198 0.0
O26 O 1.09757 0.868 -0.00769 0.0
O27 O 0.24587 1.02364 0.98523 0.0
O28 O 1.08391 1.00199 0.94373 0.0
O29 O 0.20839 0.18645 0.95385 0.0
O30 O 1.00467 0.91226 0.00875 0.0
O31 O 1.0095 1.04991 -0.00528 0.0
H32 H 0.27551 0.42555 0.94135 0.0
H33 H 0.2778 0.46726 0.88335 0.0
H34 H 1.05172 0.42142 0.90284 0.0
H35 H 1.04967 0.37935 0.96037 0.0
H36 H 1.05946 0.66561 0.95746 0.0
H37 H 1.02237 0.57867 0.8998 0.0
H38 H 0.20488 0.94381 0.86437 0.0
H39 H 0.24196 1.03077 0.92233 0.0
Nd40 Nd 1.10337 1.1182 0.33325 0.0
Nd41 Nd 0.27367 0.28915 0.34041 0.0
C42 C 0.92635 0.96843 0.31426 0.0
C43 C 0.86615 0.98468 0.31618 0.0
C44 C 0.84231 1.0015 0.28685 0.0
C45 C 0.80306 1.04337 0.28877 0.0
C46 C 0.78604 1.06753 0.32004 0.0
C47 C 0.80328 1.04171 0.34921 0.0
C48 C 0.84316 1.00079 0.34733 0.0
C49 C 0.1473 0.16601 0.40199 0.0
C50 C 0.19366 0.41846 0.33823 0.0
C51 C 0.4501 0.43826 0.36008 0.0
C52 C 0.50943 0.4205 0.35953 0.0
C53 C 0.52921 0.40036 0.38934 0.0
C54 C 0.56879 0.35889 0.38839 0.0
C55 C 0.59005 0.33821 0.35763 0.0
C56 C 0.57638 0.36679 0.32809 0.0
C57 C 0.53651 0.40768 0.32901 0.0
C58 C 0.23324 0.25727 0.27215 0.0
C59 C 0.18317 0.98871 0.33554 0.0
O60 O 0.99532 1.03902 0.29412 0.0
O61 O 0.95204 0.96228 0.34246 0.0
O62 O 1.09452 1.05821 0.386 0.0
O63 O 0.18002 0.24607 0.38142 0.0
O64 O 1.11718 0.29298 0.33187 0.0
O65 O 0.269 0.44266 0.3446 0.0
O66 O 0.38091 0.37096 0.38029 0.0
O67 O 0.4251 0.44184 0.33119 0.0
O68 O 0.28541 0.36051 0.2905 0.0
O69 O 0.19787 0.16984 0.29051 0.0
O70 O 0.25964 1.11417 0.34165 0.0
O71 O 1.10784 0.96454 0.3294 0.0
H72 H 0.85881 0.98884 0.26254 0.0
H73 H 0.78888 1.06082 0.2659 0.0
H74 H 0.791 1.05996 0.37364 0.0
H75 H 0.86041 0.98832 0.37042 0.0
H76 H 0.50972 0.41067 0.41322 0.0
H77 H 0.5802 0.33948 0.41157 0.0
H78 H 0.59175 0.35115 0.30401 0.0
H79 H 0.52269 0.42299 0.30558 0.0
Nd80 Nd 0.138 0.20492 0.67456 0.0
Nd81 Nd 0.14363 1.03933 0.6595 0.0
C82 C 1.11567 0.33718 0.70168 0.0
C83 C 1.03681 0.3144 0.71025 0.0
C84 C 0.95191 0.19673 0.71881 0.0
C85 C 0.87196 0.16847 0.72043 0.0
C86 C 0.87617 0.25726 0.71319 0.0
C87 C 0.96279 0.37799 0.7074 0.0
C88 C 1.04289 0.40642 0.70595 0.0
C89 C 0.14677 0.17604 0.60555 0.0
C90 C 0.93061 0.9038 0.66391 0.0
C91 C 0.17082 0.91185 0.63344 0.0
C92 C 0.25458 0.94285 0.62794 0.0
C93 C 0.33748 1.06149 0.6189 0.0
C94 C 0.42182 1.10047 0.62105 0.0
C95 C 0.42418 1.02152 0.63243 0.0
C96 C 0.34018 0.89957 0.63891 0.0
C97 C 0.25569 0.86045 0.63668 0.0
C98 C 1.12259 1.05351 0.72765 0.0
C99 C 0.35105 0.34115 0.66971 0.0
O100 O 1.12746 0.28295 0.71911 0.0
O101 O 1.12543 0.32978 0.66971 0.0
O102 O 0.19805 0.28246 0.62233 0.0
O103 O 1.09454 1.09022 0.62527 0.0
O104 O 0.97472 1.01579 0.67669 0.0
O105 O 0.98213 0.89107 0.65185 0.0
O106 O 0.16041 0.96669 0.61545 0.0
O107 O 0.15282 0.9113 0.66482 0.0
O108 O 1.07393 0.95163 0.70889 0.0
O109 O 0.18051 0.14627 0.71011 0.0
O110 O 0.30699 0.22835 0.65804 0.0
O111 O 0.29964 0.35501 0.68065 0.0
H112 H 0.94606 1.1245 0.72223 0.0
H113 H 0.80567 1.07441 0.72459 0.0
H114 H 0.96725 0.44774 0.70188 0.0
H115 H 1.10822 0.49775 0.69944 0.0
H116 H 0.33818 1.12678 0.61216 0.0
H117 H 0.4858 0.19522 0.61618 0.0
H118 H 0.34058 0.83687 0.6474 0.0
H119 H 0.19222 0.76869 0.64375 0.0
H120 H 1.02542 0.34834 0.84243 0.0
H121 H 0.32462 0.64276 0.85855 0.0
H122 H 0.33349 0.78536 0.83372 0.0
H123 H 0.25128 0.83909 0.83955 0.0
H124 H 0.95132 0.55125 0.83846 0.0
H125 H 0.94569 0.39586 0.82271 0.0
C126 C 1.09286 0.44213 0.83866 0.0
C127 C 0.17307 0.48855 0.85497 0.0
C128 C 1.09603 0.52685 0.82786 0.0
C129 C 0.26084 0.60652 0.84796 0.0
C130 C 0.26587 0.68917 0.83412 0.0
C131 C 0.18463 0.74314 0.83368 0.0
C132 C 1.10222 0.70343 0.84368 0.0
C133 C 0.18316 0.65397 0.82887 0.0
C134 C 1.01623 0.58212 0.83317 0.0
C135 C 1.01313 0.49266 0.8249 0.0
H136 H 0.72803 0.40189 0.32104 0.0
H137 H 0.51602 1.13788 0.38957 0.0
H138 H 0.55687 1.02895 0.38356 0.0
H139 H 0.65042 1.00622 0.35776 0.0
H140 H 0.86092 0.26879 0.28869 0.0
H141 H 0.82126 0.37909 0.29522 0.0
C142 C 0.69083 0.32044 0.33461 0.0
C143 C 0.61968 0.27832 0.35583 0.0
C144 C 0.71345 0.2572 0.33058 0.0
C145 C 0.57237 0.17338 0.37356 0.0
C146 C 0.59497 1.11036 0.36988 0.0
C147 C 0.68745 1.08762 0.34419 0.0
C148 C 0.75774 1.12893 0.3226 0.0
C149 C 0.665 0.1511 0.34832 0.0
C150 C 0.80518 0.23403 0.30496 0.0
C151 C 0.78324 0.29775 0.30893 0.0
H152 H 0.78776 0.87691 0.68576 0.0
H153 H 0.82606 0.66523 0.63975 0.0
H154 H 0.65754 0.47807 0.63743 0.0
H155 H 0.49394 0.36767 0.64808 0.0
H156 H 0.45572 0.57965 0.6939 0.0
H157 H 0.62423 0.76657 0.69637 0.0
C158 C 0.75977 0.79024 0.67514 0.0
C159 C 0.82306 0.78902 0.66292 0.0
C160 C 0.66006 0.67953 0.67373 0.0
C161 C 0.78206 0.67285 0.64942 0.0
C162 C 0.68425 0.56396 0.64804 0.0
C163 C 0.52194 0.45436 0.65868 0.0
C164 C 0.45864 0.45573 0.67079 0.0
C165 C 0.62167 0.56506 0.66008 0.0
C166 C 0.49969 0.57193 0.68427 0.0
C167 C 0.59751 0.68069 0.68574 0.0
H168 H 0.83465 0.29326 0.65699 0.0
H169 H 0.72202 1.12529 0.75092 0.0
H170 H 0.56978 1.03377 0.73337 0.0
H171 H 0.46928 0.99812 0.69068 0.0
H172 H 0.5815 0.16245 0.59625 0.0
H173 H 0.73494 0.25996 0.61467 0.0
C174 C 0.77724 0.23891 0.67389 0.0
C175 C 0.78902 0.21697 0.70531 0.0
C176 C 0.6903 0.18485 0.66333 0.0
C177 C 0.71394 0.14368 0.72671 0.0
C178 C 0.62722 1.09104 0.71661 0.0
C179 C 0.52705 1.05365 0.67396 0.0
C180 C 0.51447 1.07205 0.64204 0.0
C181 C 0.61445 1.10958 0.68478 0.0
C182 C 0.59006 0.14689 0.62087 0.0
C183 C 0.67747 0.20273 0.63142 0.0
H184 H 0.82123 0.68229 0.01697 0.0
H185 H 0.84542 0.95773 0.98543 0.0
H186 H 0.67527 0.80538 0.98283 0.0
H187 H 0.51488 0.5907 -0.01098 0.0
H188 H 0.48918 0.31473 0.02121 0.0
H189 H 0.65982 0.467 0.0239 0.0
C190 C 0.7898 0.70978 0.00956 0.0
C191 C 0.84969 0.83488 0.00143 0.0
C192 C 0.68914 0.61962 0.00814 0.0
C193 C 0.80425 0.86471 -0.00805 0.0
C194 C 0.70553 0.77642 -0.0096 0.0
C195 C 0.54602 0.56304 -0.0033 0.0
C196 C 0.48581 0.43806 0.00489 0.0
C197 C 0.64648 0.65305 -0.00163 0.0
C198 C 0.53081 0.40793 0.01473 0.0
C199 C 0.62972 0.49613 0.01627 0.0
H200 H 1.05653 0.43957 0.32672 0.0
H201 H 0.34849 0.68425 0.35042 0.0
H202 H 0.37428 0.8612 0.35195 0.0
H203 H 0.32039 0.96768 0.34706 0.0
H204 H 1.02838 0.72292 0.32342 0.0
H205 H 1.00265 0.54603 0.32188 0.0
C206 C 1.12736 0.5303 0.33237 0.0
C207 C 0.19977 0.5338 0.33846 0.0
C208 C 0.14381 0.6421 0.33337 0.0
C209 C 0.28765 0.6633 0.34539 0.0
C210 C 0.30341 0.77042 0.34633 0.0
C211 C 0.24955 0.87695 0.34141 0.0
C212 C 0.17712 0.87342 0.33533 0.0
C213 C 0.23312 0.76516 0.34043 0.0
C214 C 1.08924 0.74391 0.32842 0.0
C215 C 1.07351 0.63682 0.32749 0.0
H216 H 1.13026 1.0569 0.22215 0.0
H217 H 0.3358 0.45557 0.23575 0.0
H218 H 0.34215 0.46909 0.1758 0.0
H219 H 0.29072 0.37252 0.11872 0.0
H220 H 1.08377 0.97567 0.10192 0.0
H221 H 1.07714 0.95745 0.16276 0.0
C222 C 0.17655 0.14658 0.21198 0.0
C223 C 0.2327 0.25513 0.23424 0.0
C224 C 0.17984 0.15466 0.17643 0.0
C225 C 0.29161 0.36997 0.21997 0.0
C226 C 0.29553 0.3783 0.18532 0.0
C227 C 0.24398 0.28157 0.12818 0.0
C228 C 0.18783 0.17574 0.10528 0.0
C229 C 0.24009 0.27183 0.16324 0.0
C230 C 1.128 1.05918 0.11859 0.0
C231 C 1.12417 1.04877 0.15359 0.0
H232 H 1.06383 0.99649 0.4497 0.0
H233 H 0.25548 0.38709 0.4398 0.0
H234 H 0.27369 0.42568 0.50089 0.0
H235 H 0.23456 0.34863 0.55798 0.0
H236 H 1.0408 0.95724 0.56748 0.0
H237 H 1.02452 0.91962 0.50651 0.0
C238 C 1.10966 1.09022 0.46084 0.0
C239 C 0.15809 0.18866 0.43971 0.0
C240 C 1.11955 1.11187 0.49633 0.0
C241 C 0.21704 0.30922 0.45504 0.0
C242 C 0.22756 0.33142 0.49017 0.0
C243 C 0.1888 0.25504 0.54675 0.0
C244 C 0.13894 0.15594 0.56779 0.0
C245 C 0.17912 0.2336 0.51121 0.0
C246 C 1.08005 1.03554 0.55234 0.0
C247 C 1.07065 1.01384 0.51727 0.0
H248 H 0.24588 0.24626 0.7782 0.0
H249 H 0.9827 0.85878 0.76257 0.0
H250 H 0.96571 0.84234 0.82264 0.0
H251 H 1.02492 0.9335 0.88035 0.0
H252 H 0.29004 0.31713 0.89814 0.0
H253 H 0.30607 0.33937 0.83756 0.0
C254 C 0.18459 0.1586 0.78795 0.0
C255 C 1.11568 1.05379 0.76529 0.0
C256 C 0.17521 0.14869 0.82334 0.0
C257 C 1.03725 0.94113 0.77889 0.0
C258 C 1.0272 0.93132 0.81351 0.0
C259 C 1.08613 1.02246 0.87109 0.0
C260 C 0.15544 1.12393 0.89422 0.0
C261 C 1.09571 1.03386 0.83606 0.0
C262 C 0.23463 0.23765 0.88128 0.0
C263 C 0.24408 0.25021 0.84643 0.0
loop_
_geom_bond_atom_site_label_1
_geom_bond_atom_site_label_2
_geom_bond_distance
_geom_bond_site_symmetry_2
_ccdc_geom_bond_type
Nd0 C2 2.836 1_655 S
Nd0 O20 2.500 1_654 S
Nd0 O21 2.492 . S
Nd0 O22 2.487 . S
Nd0 O23 2.690 1_545 S
Nd0 O24 2.410 1_655 S
Nd0 O29 2.400 1_654 S
Nd0 O31 2.424 1_545 S
Nd1 C11 2.836 1_455 S
Nd1 O23 2.407 1_456 S
Nd1 O25 2.424 1_565 S
Nd1 O26 2.500 1_456 S
Nd1 O27 2.492 . S
Nd1 O28 2.487 . S
Nd1 O29 2.698 1_565 S
Nd1 O30 2.410 1_455 S
C2 Nd0 2.836 1_455 S
C2 C3 1.498 . S
C2 O20 1.258 1_554 S
C2 O21 1.239 1_455 S
C3 C2 1.498 . S
C3 C4 1.366 1_554 S
C3 C8 1.407 . S
C4 C3 1.366 1_556 S
C4 C5 1.392 . S
C4 H32 0.930 . S
C5 C4 1.392 . S
C5 C6 1.398 1_556 S
C5 H33 0.929 . S
C6 C5 1.398 1_554 S
C6 C7 1.352 . S
C7 C6 1.352 . S
C7 C8 1.384 . S
C7 H34 0.930 . S
C8 C3 1.407 . S
C8 C7 1.384 . S
C8 H35 0.929 . S
C9 O22 1.241 . S
C9 O23 1.278 1_545 S
C10 O24 1.251 . S
C10 O25 1.268 1_554 S
C11 Nd1 2.836 1_655 S
C11 C12 1.498 . S
C11 O26 1.258 1_556 S
C11 O27 1.239 1_655 S
C12 C11 1.498 . S
C12 C13 1.366 1_556 S
C12 C17 1.407 . S
C13 C12 1.366 1_554 S
C13 C14 1.392 . S
C13 H36 0.930 . S
C14 C13 1.392 . S
C14 C15 1.398 1_554 S
C14 H37 0.929 . S
C15 C14 1.398 1_556 S
C15 C16 1.352 . S
C16 C15 1.352 . S
C16 C17 1.384 . S
C16 H38 0.930 . S
C17 C12 1.407 . S
C17 C16 1.384 . S
C17 H39 0.929 . S
C18 O28 1.241 . S
C18 O29 1.282 1_565 S
C19 O30 1.251 . S
C19 O31 1.268 1_556 S
O20 Nd0 2.500 1_456 S
O20 C2 1.258 1_556 S
O21 Nd0 2.492 . S
O21 C2 1.239 1_655 S
O22 Nd0 2.487 . S
O22 C9 1.241 . S
O23 Nd0 2.690 1_565 S
O23 Nd1 2.407 1_654 S
O23 C9 1.278 1_565 S
O24 Nd0 2.410 1_455 S
O24 C10 1.251 . S
O25 Nd1 2.424 1_545 S
O25 C10 1.268 1_556 S
O26 Nd1 2.500 1_654 S
O26 C11 1.258 1_554 S
O27 Nd1 2.492 . S
O27 C11 1.239 1_455 S
O28 Nd1 2.487 . S
O28 C18 1.241 . S
O29 Nd0 2.400 1_456 S
O29 Nd1 2.698 1_545 S
O29 C18 1.282 1_545 S
O30 Nd1 2.410 1_655 S
O30 C19 1.251 . S
O31 Nd0 2.424 1_565 S
O31 C19 1.268 1_554 S
H32 C4 0.930 . S
H33 C5 0.929 . S
H34 C7 0.930 . S
H35 C8 0.929 . S
H36 C13 0.930 . S
H37 C14 0.929 . S
H38 C16 0.930 . S
H39 C17 0.929 . S
Nd40 C42 2.836 . S
Nd40 O60 2.500 . S
Nd40 O61 2.492 . S
Nd40 O62 2.487 . S
Nd40 O63 2.682 1_665 S
Nd40 O64 2.410 1_665 S
Nd40 O69 2.414 1_665 S
Nd40 O71 2.424 . S
Nd41 C51 2.836 . S
Nd41 O63 2.414 . S
Nd41 O65 2.424 . S
Nd41 O66 2.500 . S
Nd41 O67 2.492 . S
Nd41 O68 2.487 . S
Nd41 O69 2.682 . S
Nd41 O70 2.410 1_545 S
C42 Nd40 2.836 . S
C42 C43 1.498 . S
C42 O60 1.258 . S
C42 O61 1.239 . S
C43 C42 1.498 . S
C43 C44 1.366 . S
C43 C48 1.407 . S
C44 C43 1.366 . S
C44 C45 1.392 . S
C44 H72 0.932 1_565 S
C45 C44 1.392 . S
C45 C46 1.398 . S
C45 H73 0.929 1_565 S
C46 C45 1.398 . S
C46 C47 1.352 . S
C47 C46 1.352 . S
C47 C48 1.384 . S
C47 H74 0.930 . S
C48 C43 1.407 . S
C48 C47 1.384 . S
C48 H75 0.929 . S
C49 O62 1.241 1_445 S
C49 O63 1.273 . S
C50 O64 1.251 . S
C50 O65 1.268 . S
C51 Nd41 2.836 . S
C51 C52 1.498 . S
C51 O66 1.258 . S
C51 O67 1.239 . S
C52 C51 1.498 . S
C52 C53 1.366 . S
C52 C57 1.407 . S
C53 C52 1.366 . S
C53 C54 1.392 . S
C53 H76 0.930 . S
C54 C53 1.392 . S
C54 C55 1.398 . S
C54 H77 0.929 . S
C55 C54 1.398 . S
C55 C56 1.352 . S
C56 C55 1.352 . S
C56 C57 1.384 . S
C56 H78 0.930 . S
C57 C52 1.407 . S
C57 C56 1.384 . S
C57 H79 0.929 . S
C58 O68 1.241 . S
C58 O69 1.273 . S
C59 O70 1.251 . S
C59 O71 1.268 1_455 S
O60 Nd40 2.500 . S
O60 C42 1.258 . S
O61 Nd40 2.492 . S
O61 C42 1.239 . S
O62 Nd40 2.487 . S
O62 C49 1.241 1_665 S
O63 Nd40 2.682 1_445 S
O63 Nd41 2.414 . S
O63 C49 1.273 . S
O64 Nd40 2.410 1_445 S
O64 C50 1.251 . S
O65 Nd41 2.424 . S
O65 C50 1.268 . S
O66 Nd41 2.500 . S
O66 C51 1.258 . S
O67 Nd41 2.492 . S
O67 C51 1.239 . S
O68 Nd41 2.487 . S
O68 C58 1.241 . S
O69 Nd40 2.414 1_445 S
O69 Nd41 2.682 . S
O69 C58 1.273 . S
O70 Nd41 2.410 1_565 S
O70 C59 1.251 . S
O71 Nd40 2.424 . S
O71 C59 1.268 1_655 S
H72 C44 0.932 1_545 S
H73 C45 0.929 1_545 S
H74 C47 0.930 . S
H75 C48 0.929 . S
H76 C53 0.930 . S
H77 C54 0.929 . S
H78 C56 0.930 . S
H79 C57 0.929 . S
Nd80 C82 2.836 1_455 S
Nd80 O100 2.500 1_455 S
Nd80 O101 2.492 1_455 S
Nd80 O102 2.487 . S
Nd80 O103 2.682 . S
Nd80 O104 2.410 1_445 S
Nd80 O109 2.414 . S
Nd80 O111 2.424 . S
Nd81 C91 2.836 . S
Nd81 O103 2.414 1_565 S
Nd81 O105 2.424 1_455 S
Nd81 O106 2.500 . S
Nd81 O107 2.492 . S
Nd81 O108 2.487 . S
Nd81 O109 2.682 1_565 S
Nd81 O110 2.410 1_565 S
C82 Nd80 2.836 1_655 S
C82 C83 1.498 . S
C82 O100 1.258 . S
C82 O101 1.239 . S
C83 C82 1.498 . S
C83 C84 1.366 1_545 S
C83 C88 1.407 . S
C84 C83 1.366 1_565 S
C84 C85 1.392 . S
C84 H112 0.930 . S
C85 C84 1.392 . S
C85 C86 1.398 . S
C85 H113 0.929 . S
C86 C85 1.398 . S
C86 C87 1.352 1_565 S
C87 C86 1.352 1_545 S
C87 C88 1.384 . S
C87 H114 0.930 . S
C88 C83 1.407 . S
C88 C87 1.384 . S
C88 H115 0.929 . S
C89 O102 1.241 . S
C89 O103 1.273 . S
C90 O104 1.251 . S
C90 O105 1.268 . S
C91 Nd81 2.836 . S
C91 C92 1.494 . S
C91 O106 1.258 . S
C91 O107 1.239 . S
C92 C91 1.494 . S
C92 C93 1.366 1_565 S
C92 C97 1.411 . S
C93 C92 1.366 1_545 S
C93 C94 1.392 . S
C93 H116 0.930 . S
C94 C93 1.392 . S
C94 C95 1.398 . S
C94 H117 0.929 . S
C95 C94 1.398 . S
C95 C96 1.351 1_545 S
C96 C95 1.351 1_565 S
C96 C97 1.374 . S
C96 H118 0.941 . S
C97 C92 1.411 . S
C97 C96 1.374 . S
C97 H119 0.929 . S
C98 O108 1.241 1_545 S
C98 O109 1.273 . S
C99 O110 1.251 . S
C99 O111 1.268 . S
O100 Nd80 2.500 1_655 S
O100 C82 1.258 . S
O101 Nd80 2.492 1_655 S
O101 C82 1.239 . S
O102 Nd80 2.487 . S
O102 C89 1.241 . S
O103 Nd80 2.682 . S
O103 Nd81 2.414 1_545 S
O103 C89 1.273 . S
O104 Nd80 2.410 1_665 S
O104 C90 1.251 . S
O105 Nd81 2.424 1_655 S
O105 C90 1.268 . S
O106 Nd81 2.500 . S
O106 C91 1.258 . S
O107 Nd81 2.492 . S
O107 C91 1.239 . S
O108 Nd81 2.487 . S
O108 C98 1.241 1_565 S
O109 Nd80 2.414 . S
O109 Nd81 2.682 1_545 S
O109 C98 1.273 . S
O110 Nd81 2.410 1_545 S
O110 C99 1.251 . S
O111 Nd80 2.424 . S
O111 C99 1.268 . S
H112 C84 0.930 . S
H113 C85 0.929 . S
H114 C87 0.930 . S
H115 C88 0.929 . S
H116 C93 0.930 . S
H117 C94 0.929 . S
H118 C96 0.941 . S
H119 C97 0.929 . S
H120 C126 0.930 . S
H121 C129 0.930 . S
H122 C130 0.930 . S
H123 C131 0.930 . S
H124 C134 0.930 . S
H125 C135 0.930 . S
C126 H120 0.930 . S
C126 C127 1.355 1_554 S
C126 C128 1.415 . S
C127 C126 1.355 1_556 S
C127 C129 1.419 . S
C128 C126 1.415 . S
C128 C133 1.425 1_454 S
C128 C135 1.409 1_455 S
C129 H121 0.930 . S
C129 C127 1.419 . S
C129 C130 1.362 . S
C130 H122 0.930 . S
C130 C129 1.362 . S
C130 C133 1.409 1_455 S
C131 H123 0.930 . S
C131 C132 1.355 1_556 S
C131 C133 1.415 . S
C132 C131 1.355 1_554 S
C132 C134 1.419 . S
C133 C128 1.425 1_656 S
C133 C130 1.409 1_655 S
C133 C131 1.415 . S
C134 H124 0.930 . S
C134 C132 1.419 . S
C134 C135 1.362 . S
C135 H125 0.930 . S
C135 C128 1.409 1_655 S
C135 C134 1.362 . S
H136 C142 0.930 . S
H137 C145 0.930 . S
H138 C146 0.930 . S
H139 C147 0.930 . S
H140 C150 0.930 . S
H141 C151 0.930 . S
C142 H136 0.930 . S
C142 C143 1.355 . S
C142 C144 1.415 . S
C143 C142 1.355 . S
C143 C145 1.419 1_545 S
C144 C142 1.415 . S
C144 C149 1.425 1_545 S
C144 C151 1.409 . S
C145 H137 0.930 . S
C145 C143 1.419 1_565 S
C145 C146 1.362 . S
C146 H138 0.930 . S
C146 C145 1.362 . S
C146 C149 1.409 . S
C147 H139 0.930 . S
C147 C148 1.355 . S
C147 C149 1.415 . S
C148 C147 1.355 . S
C148 C150 1.419 1_565 S
C149 C144 1.425 1_565 S
C149 C146 1.409 . S
C149 C147 1.415 . S
C150 H140 0.930 . S
C150 C148 1.419 1_545 S
C150 C151 1.362 . S
C151 H141 0.930 . S
C151 C144 1.409 . S
C151 C150 1.362 . S
H152 C158 0.930 . S
H153 C161 0.930 . S
H154 C162 0.930 . S
H155 C163 0.930 . S
H156 C166 0.930 . S
H157 C167 0.930 . S
C158 H152 0.930 . S
C158 C159 1.355 . S
C158 C160 1.415 . S
C159 C158 1.355 . S
C159 C161 1.419 . S
C160 C158 1.415 . S
C160 C165 1.425 . S
C160 C167 1.409 . S
C161 H153 0.930 . S
C161 C159 1.419 . S
C161 C162 1.362 . S
C162 H154 0.930 . S
C162 C161 1.362 . S
C162 C165 1.409 . S
C163 H155 0.930 . S
C163 C164 1.355 . S
C163 C165 1.415 . S
C164 C163 1.355 . S
C164 C166 1.419 . S
C165 C160 1.425 . S
C165 C162 1.409 . S
C165 C163 1.415 . S
C166 H156 0.930 . S
C166 C164 1.419 . S
C166 C167 1.362 . S
C167 H157 0.930 . S
C167 C160 1.409 . S
C167 C166 1.362 . S
H168 C174 0.930 . S
H169 C177 0.930 . S
H170 C178 0.930 . S
H171 C179 0.930 . S
H172 C182 0.930 . S
H173 C183 0.930 . S
C174 H168 0.930 . S
C174 C175 1.355 . S
C174 C176 1.415 . S
C175 C174 1.355 . S
C175 C177 1.419 1_565 S
C176 C174 1.415 . S
C176 C181 1.425 1_565 S
C176 C183 1.409 . S
C177 H169 0.930 . S
C177 C175 1.419 1_545 S
C177 C178 1.362 . S
C178 H170 0.930 . S
C178 C177 1.362 . S
C178 C181 1.409 . S
C179 H171 0.930 . S
C179 C180 1.355 . S
C179 C181 1.415 . S
C180 C179 1.355 . S
C180 C182 1.419 1_545 S
C181 C176 1.425 1_545 S
C181 C178 1.409 . S
C181 C179 1.415 . S
C182 H172 0.930 . S
C182 C180 1.419 1_565 S
C182 C183 1.362 . S
C183 H173 0.930 . S
C183 C176 1.409 . S
C183 C182 1.362 . S
H184 C190 0.930 . S
H185 C193 0.930 . S
H186 C194 0.930 . S
H187 C195 0.930 . S
H188 C198 0.930 . S
H189 C199 0.930 . S
C190 H184 0.930 . S
C190 C191 1.355 1_556 S
C190 C192 1.415 . S
C191 C190 1.355 1_554 S
C191 C193 1.419 . S
C192 C190 1.415 . S
C192 C197 1.425 1_556 S
C192 C199 1.409 . S
C193 H185 0.930 . S
C193 C191 1.419 . S
C193 C194 1.362 . S
C194 H186 0.930 . S
C194 C193 1.362 . S
C194 C197 1.409 . S
C195 H187 0.930 . S
C195 C196 1.355 1_554 S
C195 C197 1.415 . S
C196 C195 1.355 1_556 S
C196 C198 1.419 . S
C197 C192 1.425 1_554 S
C197 C194 1.409 . S
C197 C195 1.415 . S
C198 H188 0.930 . S
C198 C196 1.419 . S
C198 C199 1.362 . S
C199 H189 0.930 . S
C199 C192 1.409 . S
C199 C198 1.362 . S
H200 C206 0.930 . S
H201 C209 0.930 . S
H202 C210 0.930 . S
H203 C211 0.930 . S
H204 C214 0.930 . S
H205 C215 0.930 . S
C206 H200 0.930 . S
C206 C207 1.355 1_655 S
C206 C208 1.415 1_655 S
C207 C206 1.355 1_455 S
C207 C209 1.419 . S
C208 C206 1.415 1_455 S
C208 C213 1.425 . S
C208 C215 1.409 1_455 S
C209 H201 0.930 . S
C209 C207 1.419 . S
C209 C210 1.362 . S
C210 H202 0.930 . S
C210 C209 1.362 . S
C210 C213 1.409 . S
C211 H203 0.930 . S
C211 C212 1.355 . S
C211 C213 1.415 . S
C212 C211 1.355 . S
C212 C214 1.419 1_455 S
C213 C208 1.425 . S
C213 C210 1.409 . S
C213 C211 1.415 . S
C214 H204 0.930 . S
C214 C212 1.419 1_655 S
C214 C215 1.362 . S
C215 H205 0.930 . S
C215 C208 1.409 1_655 S
C215 C214 1.362 . S
H216 C222 0.930 . S
H217 C225 0.930 . S
H218 C226 0.930 1_655 S
H219 C227 0.930 . S
H220 C230 0.930 . S
H221 C231 0.930 . S
C222 H216 0.930 . S
C222 C223 1.355 1_565 S
C222 C224 1.415 . S
C223 C222 1.355 1_545 S
C223 C225 1.419 . S
C224 C222 1.415 . S
C224 C229 1.425 1_565 S
C224 C231 1.409 . S
C225 H217 0.930 . S
C225 C223 1.419 . S
C225 C226 1.362 . S
C226 H218 0.930 1_455 S
C226 C225 1.362 . S
C226 C229 1.409 . S
C227 H219 0.930 . S
C227 C228 1.355 1_645 S
C227 C229 1.415 1_655 S
C228 C227 1.355 1_465 S
C228 C230 1.419 . S
C229 C224 1.425 1_545 S
C229 C226 1.409 . S
C229 C227 1.415 1_455 S
C230 H220 0.930 . S
C230 C228 1.419 . S
C230 C231 1.362 . S
C231 H221 0.930 . S
C231 C224 1.409 . S
C231 C230 1.362 . S
H232 C238 0.930 1_665 S
H233 C241 0.930 . S
H234 C242 0.930 . S
H235 C243 0.930 . S
H236 C246 0.930 . S
H237 C247 0.930 . S
C238 H232 0.930 1_445 S
C238 C239 1.355 . S
C238 C240 1.415 . S
C239 C238 1.355 . S
C239 C241 1.419 . S
C240 C238 1.415 . S
C240 C245 1.425 . S
C240 C247 1.409 1_445 S
C241 H233 0.930 . S
C241 C239 1.419 . S
C241 C242 1.362 . S
C242 H234 0.930 . S
C242 C241 1.362 . S
C242 C245 1.409 . S
C243 H235 0.930 . S
C243 C244 1.355 . S
C243 C245 1.415 . S
C244 C243 1.355 . S
C244 C246 1.419 1_445 S
C245 C240 1.425 . S
C245 C242 1.409 . S
C245 C243 1.415 . S
C246 H236 0.930 . S
C246 C244 1.419 1_665 S
C246 C247 1.362 . S
C247 H237 0.930 . S
C247 C240 1.409 1_665 S
C247 C246 1.362 . S
H248 C254 0.930 1_655 S
H249 C257 0.930 . S
H250 C258 0.930 . S
H251 C259 0.930 . S
H252 C262 0.930 . S
H253 C263 0.930 . S
C254 H248 0.930 1_455 S
C254 C255 1.355 . S
C254 C256 1.415 . S
C255 C254 1.355 . S
C255 C257 1.419 1_545 S
C256 C254 1.415 . S
C256 C261 1.425 1_545 S
C256 C263 1.409 1_455 S
C257 H249 0.930 . S
C257 C255 1.419 1_565 S
C257 C258 1.362 . S
C258 H250 0.930 . S
C258 C257 1.362 . S
C258 C261 1.409 . S
C259 H251 0.930 . S
C259 C260 1.347 1_465 S
C259 C261 1.415 . S
C260 C259 1.347 1_645 S
C260 C262 1.428 . S
C261 C256 1.425 1_565 S
C261 C258 1.409 . S
C261 C259 1.415 . S
C262 H252 0.930 . S
C262 C260 1.428 . S
C262 C263 1.362 . S
C263 H253 0.930 . S
C263 C256 1.409 1_655 S
C263 C262 1.362 . S
C127 C6 0.750 1_556 S
C132 C15 0.750 1_554 S
C143 C55 0.702 . S
C148 C46 0.702 . S
C159 C90 2.990 . S
C164 C99 2.990 . S
C175 C86 0.645 . S
C180 C95 0.645 . S
C191 C19 3.070 1_554 S
C196 C10 3.070 1_556 S
C207 C50 4.882 . S
C212 C59 4.882 . S
C223 C58 1.466 . S
C228 C9 1.499 1_465 S
C239 C49 1.478 . S
C244 C89 1.426 . S
C255 C98 1.425 . S
C260 C18 1.477 1_645 S
