# Generated by pormake.
# Topology wfz, (7)-cn, num edge types: 1
# Building blocks:
#     Node 0, Type 0, BuildingBlock: HICVOG_clean_sbu_0, # of connection points: 7
#     Node 1, Type 0, BuildingBlock: HICVOG_clean_sbu_0, # of connection points: 7
#     Node 2, Type 0, BuildingBlock: HICVOG_clean_sbu_0, # of connection points: 7
#     Node 3, Type 0, BuildingBlock: HICVOG_clean_sbu_0, # of connection points: 7
#     Node 4, Type 0, BuildingBlock: HICVOG_clean_sbu_0, # of connection points: 7
#     Node 5, Type 0, BuildingBlock: HICVOG_clean_sbu_0, # of connection points: 7
#     Node 6, Type 0, BuildingBlock: HICVOG_clean_sbu_0, # of connection points: 7
#     Node 7, Type 0, BuildingBlock: HICVOG_clean_sbu_0, # of connection points: 7
#     Edge 8, Type (0, 0), BuildingBlock: MIFKUJ_clean_linker_0, # of connection points: 2
#     Edge 9, Type (0, 0), BuildingBlock: MIFKUJ_clean_linker_0, # of connection points: 2
#     Edge 10, Type (0, 0), BuildingBlock: MIFKUJ_clean_linker_0, # of connection points: 2
#     Edge 11, Type (0, 0), BuildingBlock: MIFKUJ_clean_linker_0, # of connection points: 2
#     Edge 12, Type (0, 0), BuildingBlock: MIFKUJ_clean_linker_0, # of connection points: 2
#     Edge 13, Type (0, 0), BuildingBlock: MIFKUJ_clean_linker_0, # of connection points: 2
#     Edge 14, Type (0, 0), BuildingBlock: MIFKUJ_clean_linker_0, # of connection points: 2
#     Edge 15, Type (0, 0), BuildingBlock: MIFKUJ_clean_linker_0, # of connection points: 2
#     Edge 16, Type (0, 0), BuildingBlock: MIFKUJ_clean_linker_0, # of connection points: 2
#     Edge 17, Type (0, 0), BuildingBlock: MIFKUJ_clean_linker_0, # of connection points: 2
#     Edge 18, Type (0, 0), BuildingBlock: MIFKUJ_clean_linker_0, # of connection points: 2
#     Edge 19, Type (0, 0), BuildingBlock: MIFKUJ_clean_linker_0, # of connection points: 2
#     Edge 20, Type (0, 0), BuildingBlock: MIFKUJ_clean_linker_0, # of connection points: 2
#     Edge 21, Type (0, 0), BuildingBlock: MIFKUJ_clean_linker_0, # of connection points: 2
#     Edge 22, Type (0, 0), BuildingBlock: MIFKUJ_clean_linker_0, # of connection points: 2
#     Edge 23, Type (0, 0), BuildingBlock: MIFKUJ_clean_linker_0, # of connection points: 2
#     Edge 24, Type (0, 0), BuildingBlock: MIFKUJ_clean_linker_0, # of connection points: 2
#     Edge 25, Type (0, 0), BuildingBlock: MIFKUJ_clean_linker_0, # of connection points: 2
#     Edge 26, Type (0, 0), BuildingBlock: MIFKUJ_clean_linker_0, # of connection points: 2
#     Edge 27, Type (0, 0), BuildingBlock: MIFKUJ_clean_linker_0, # of connection points: 2
#     Edge 28, Type (0, 0), BuildingBlock: MIFKUJ_clean_linker_0, # of connection points: 2
#     Edge 29, Type (0, 0), BuildingBlock: MIFKUJ_clean_linker_0, # of connection points: 2
#     Edge 30, Type (0, 0), BuildingBlock: MIFKUJ_clean_linker_0, # of connection points: 2
#     Edge 31, Type (0, 0), BuildingBlock: MIFKUJ_clean_linker_0, # of connection points: 2
#     Edge 32, Type (0, 0), BuildingBlock: MIFKUJ_clean_linker_0, # of connection points: 2
#     Edge 33, Type (0, 0), BuildingBlock: MIFKUJ_clean_linker_0, # of connection points: 2
#     Edge 34, Type (0, 0), BuildingBlock: MIFKUJ_clean_linker_0, # of connection points: 2
#     Edge 35, Type (0, 0), BuildingBlock: MIFKUJ_clean_linker_0, # of connection points: 2
# Relax obj value: 0.176
# Max RMSD: 0.257
# Mean RMSD: 0.257
data_MOF--net-wfz--node1-HICVOG_clean_sbu_0--edge1-MIFKUJ_clean_linker_0
_symmetry_space_group_name_H-M    P1
_symmetry_Int_Tables_number       1
_symmetry_cell_setting            triclinic
loop_
_symmetry_equiv_pos_as_xyz
'x, y, z'
_cell_length_a     30.310528
_cell_length_b     30.230417
_cell_length_c     79.903343
_cell_angle_alpha  89.871471
_cell_angle_beta   90.065132
_cell_angle_gamma 90.108637
loop_
_atom_site_label
_atom_site_type_symbol
_atom_site_fract_x
_atom_site_fract_y
_atom_site_fract_z
_atom_type_partial_charge
Zn0 Zn 0.22731 0.48856 0.40058 0.0
C1 C 0.32291 0.48269 0.43487 0.0
N2 N 0.32721 0.44145 0.42895 0.0
C3 C 0.30161 0.44187 0.41523 0.0
N4 N 0.28245 0.48168 0.41286 0.0
N5 N 0.29655 0.50789 0.42509 0.0
C6 C 0.2677 0.58256 0.45813 0.0
O7 O 0.2414 0.55113 0.45277 0.0
O8 O 0.22382 0.45414 0.37872 0.0
Zn9 Zn 0.29767 0.57279 0.42436 0.0
N10 N 0.18128 0.46352 0.4146 0.0
C11 C 0.15062 0.45445 0.44179 0.0
C12 C 0.1841 0.46995 0.43137 0.0
C13 C 0.14663 0.44107 0.40779 0.0
N14 N 0.11578 0.4326 0.43502 0.0
C15 C 0.11286 0.42505 0.41827 0.0
O16 O 0.24628 0.60076 0.41152 0.0
C17 C 0.21583 0.59141 0.40105 0.0
O18 O 0.20887 0.55184 0.39624 0.0
H19 H 0.21205 0.48713 0.43657 0.0
H20 H 0.14501 0.43658 0.39437 0.0
C21 C 0.37094 0.6306 0.41268 0.0
C22 C 0.4073 0.63957 0.40213 0.0
C23 C 0.40446 0.56581 0.39212 0.0
C24 C 0.36832 0.55723 0.4023 0.0
N25 N 0.35189 0.58952 0.41237 0.0
N26 N 0.42277 0.60667 0.39216 0.0
H27 H 0.3571 0.65621 0.42051 0.0
C28 C 0.243 0.46211 0.36489 0.0
O29 O 0.27175 0.49459 0.36396 0.0
O30 O 0.29653 0.59819 0.44814 0.0
H31 H 0.35302 0.52508 0.40184 0.0
H32 H 0.15229 0.45974 0.45517 0.0
H33 H 0.41749 0.54035 0.38402 0.0
Zn34 Zn 1.00062 0.79749 0.67437 0.0
C35 C 0.13291 0.79991 0.66851 0.0
N36 N 0.13141 0.82171 0.68312 0.0
C37 C 0.08883 0.81846 0.68744 0.0
N38 N 0.06489 0.79624 0.67594 0.0
N39 N 0.09298 0.78351 0.66415 0.0
C40 C 0.11298 0.74778 0.61622 0.0
O41 O 0.08494 0.78084 0.61614 0.0
O42 O 0.97686 0.79585 0.69821 0.0
Zn43 Zn 0.08788 0.72765 0.65206 0.0
N44 N 0.98508 0.85206 0.66225 0.0
C45 C 0.01091 0.90089 0.64097 0.0
C46 C 0.01581 0.86287 0.65054 0.0
C47 C 0.94829 0.8777 0.66442 0.0
N48 N 0.97493 0.92657 0.64322 0.0
C49 C 0.94299 0.91643 0.65457 0.0
O50 O 0.02543 0.70578 0.64867 0.0
C51 C 0.98525 0.71283 0.65244 0.0
O52 O 0.97394 0.74524 0.66168 0.0
H53 H 0.04411 0.84198 0.64856 0.0
H54 H 0.92403 0.86841 0.67371 0.0
C55 C 0.14165 0.65048 0.65876 0.0
C56 C 0.16423 0.62028 0.66913 0.0
C57 C 0.13612 0.6575 0.69301 0.0
C58 C 0.1138 0.68718 0.68269 0.0
N59 N 0.11728 0.68344 0.6658 0.0
N60 N 0.16084 0.62503 0.68603 0.0
H61 H 0.14415 0.64854 0.64527 0.0
C62 C 0.94069 0.77648 0.70169 0.0
O63 O 0.9164 0.76098 0.68939 0.0
O64 O 0.11874 0.72531 0.62951 0.0
H65 H 0.09416 0.71329 0.6881 0.0
H66 H 0.03542 0.90986 0.63173 0.0
H67 H 0.13395 0.66031 0.70647 0.0
Zn68 Zn 0.76914 0.50232 0.92362 0.0
C69 C 0.75712 0.63314 0.9159 0.0
N70 N 0.7287 0.62982 0.92868 0.0
C71 C 0.73472 0.58822 0.934 0.0
N72 N 0.76505 0.56652 0.92477 0.0
N73 N 0.77949 0.59521 0.91339 0.0
C74 C 0.82112 0.61421 0.86559 0.0
O75 O 0.79917 0.57671 0.8653 0.0
O76 O 0.77136 0.47725 0.94739 0.0
Zn77 Zn 0.83578 0.59357 0.90157 0.0
N78 N 0.7179 0.48339 0.91039 0.0
C79 C 0.67909 0.50272 0.88553 0.0
C80 C 0.71371 0.50945 0.8966 0.0
C81 C 0.68894 0.44941 0.91334 0.0
N82 N 0.65012 0.46952 0.88847 0.0
C83 C 0.65369 0.44218 0.90197 0.0
O84 O 0.85983 0.53223 0.89743 0.0
C85 C 0.85462 0.49185 0.90157 0.0
O86 O 0.82329 0.47949 0.91117 0.0
H87 H 0.73735 0.53546 0.89419 0.0
H88 H 0.69299 0.42891 0.92435 0.0
C89 C 0.91405 0.64418 0.90903 0.0
C90 C 0.94391 0.66672 0.91954 0.0
C91 C 0.90101 0.64524 0.94309 0.0
C92 C 0.87169 0.62293 0.93264 0.0
N93 N 0.87853 0.62308 0.91583 0.0
N94 N 0.93615 0.66666 0.93633 0.0
H95 H 0.91826 0.64414 0.89559 0.0
C96 C 0.80739 0.48578 0.95498 0.0
O97 O 0.83748 0.50913 0.94706 0.0
O98 O 0.83656 0.62797 0.87946 0.0
H99 H 0.8435 0.60591 0.93788 0.0
H100 H 0.67534 0.52356 0.8746 0.0
H101 H 0.89582 0.64569 0.95648 0.0
Zn102 Zn 0.0754 0.2689 0.17371 0.0
C103 C 0.94466 0.25689 0.16515 0.0
N104 N 0.9471 0.22799 0.17786 0.0
C105 C 0.9884 0.2337 0.18349 0.0
N106 N 0.01077 0.26445 0.17453 0.0
N107 N 0.98275 0.27943 0.16302 0.0
C108 C 0.96893 0.36152 0.11695 0.0
O109 O 1.00382 0.38576 0.12028 0.0
O110 O 0.10157 0.26866 0.1973 0.0
Zn111 Zn 0.9856 0.3359 0.15109 0.0
N112 N 0.09472 0.2198 0.15957 0.0
C113 C 0.07927 0.18792 0.13301 0.0
C114 C 0.07151 0.22002 0.14501 0.0
C115 C 0.12656 0.18863 0.16252 0.0
N116 N 0.11049 0.1569 0.13589 0.0
C117 C 0.13485 0.15588 0.15023 0.0
O118 O 0.04737 0.3607 0.14835 0.0
C119 C 0.08732 0.35618 0.15295 0.0
O120 O 0.09932 0.32438 0.1624 0.0
H121 H 0.04703 0.24529 0.14274 0.0
H122 H 0.14456 0.18917 0.17421 0.0
C123 C 0.93181 0.41282 0.15813 0.0
C124 C 0.91369 0.44529 0.16867 0.0
C125 C 0.94275 0.40729 0.19225 0.0
C126 C 0.96076 0.37534 0.18176 0.0
N127 N 0.95532 0.37884 0.16493 0.0
N128 N 0.91998 0.44158 0.18549 0.0
H129 H 0.92846 0.41523 0.14467 0.0
C130 C 0.08761 0.2998 0.2066 0.0
O131 O 0.058 0.32721 0.20056 0.0
O132 O 0.95442 0.33528 0.1282 0.0
H133 H 0.97955 0.34827 0.18697 0.0
H134 H 0.06077 0.18771 0.12142 0.0
H135 H 0.94716 0.40511 0.20567 0.0
Zn136 Zn 0.79623 1.00043 0.34194 0.0
C137 C 0.80891 0.131 0.35019 0.0
N138 N 0.83685 0.12896 0.33723 0.0
C139 C 0.83055 0.08777 0.33146 0.0
N140 N 0.80048 0.06509 0.34062 0.0
N141 N 0.78645 0.09286 0.35232 0.0
C142 C 0.74937 0.10607 0.40032 0.0
O143 O 0.769 0.06738 0.39985 0.0
O144 O 0.79783 0.97356 0.31854 0.0
Zn145 Zn 0.73136 0.08957 0.3647 0.0
N146 N 0.84546 0.9819 0.35618 0.0
C147 C 0.87983 0.99923 0.38214 0.0
C148 C 0.84697 1.00657 0.37037 0.0
C149 C 0.87546 0.94891 0.35344 0.0
N150 N 0.90977 0.96689 0.37944 0.0
C151 C 0.9089 0.94103 0.36551 0.0
O152 O 0.70736 0.02804 0.36866 0.0
C153 C 0.71072 0.98824 0.36364 0.0
O154 O 0.74081 0.97653 0.35342 0.0
H155 H 0.82255 0.03188 0.37253 0.0
H156 H 0.87353 0.92966 0.34207 0.0
C157 C 0.65378 0.14299 0.35799 0.0
C158 C 0.61992 0.15957 0.34766 0.0
C159 C 0.65467 0.12707 0.3241 0.0
C160 C 0.68794 0.11049 0.33437 0.0
N161 N 0.68674 0.1184 0.35109 0.0
N162 N 0.62138 0.15083 0.33097 0.0
H163 H 0.65317 0.14824 0.37138 0.0
C164 C 0.76635 0.98542 0.30897 0.0
O165 O 0.737 0.01343 0.31473 0.0
O166 O 0.7334 0.12209 0.38689 0.0
H167 H 0.71418 0.09081 0.32912 0.0
H168 H 0.88144 0.01892 0.39342 0.0
H169 H 0.65502 0.12069 0.31078 0.0
Zn170 Zn 0.57305 0.29945 0.59064 0.0
C171 C 0.44134 0.30104 0.59847 0.0
N172 N 0.4409 0.32409 0.5841 0.0
C173 C 0.48267 0.32079 0.57874 0.0
N174 N 0.50815 0.2971 0.58939 0.0
N175 N 0.48157 0.28383 0.60166 0.0
C176 C 0.46959 0.20158 0.64801 0.0
O177 O 0.49943 0.17297 0.6431 0.0
O178 O 0.60026 0.29748 0.56718 0.0
Zn179 Zn 0.48876 0.2305 0.61513 0.0
N180 N 0.5877 0.35441 0.60257 0.0
C181 C 0.56136 0.40531 0.62295 0.0
C182 C 0.55594 0.36712 0.61357 0.0
C183 C 0.62578 0.37845 0.60091 0.0
N184 N 0.59867 0.42946 0.62116 0.0
C185 C 0.63148 0.4174 0.6105 0.0
O186 O 0.55206 0.21131 0.61844 0.0
C187 C 0.59174 0.2178 0.61387 0.0
O188 O 0.60178 0.2486 0.60361 0.0
H189 H 0.52649 0.34759 0.6152 0.0
H190 H 0.65085 0.36767 0.5922 0.0
C191 C 0.43609 0.15099 0.60966 0.0
C192 C 0.42214 0.11458 0.60008 0.0
C193 C 0.45875 0.14477 0.57643 0.0
C194 C 0.47312 0.18038 0.58604 0.0
N195 N 0.46197 0.18267 0.60248 0.0
N196 N 0.43412 0.11251 0.58369 0.0
H197 H 0.42788 0.15311 0.62279 0.0
C198 C 0.58517 0.26877 0.55701 0.0
O199 O 0.55162 0.24425 0.56173 0.0
O200 O 0.45862 0.23258 0.638 0.0
H201 H 0.49376 0.20566 0.58058 0.0
H202 H 0.53622 0.4156 0.63171 0.0
H203 H 0.46775 0.14237 0.56336 0.0
Zn204 Zn 0.26355 0.07551 0.84199 0.0
C205 C 0.26038 0.94371 0.85019 0.0
N206 N 0.23384 0.94447 0.83674 0.0
C207 C 0.2372 0.98644 0.83146 0.0
N208 N 0.26417 0.01079 0.8413 0.0
N209 N 0.27924 0.98351 0.85303 0.0
C210 C 0.36055 0.97211 0.89922 0.0
O211 O 0.38325 1.0082 0.89611 0.0
O212 O 0.26797 0.09865 0.81804 0.0
Zn213 Zn 0.33375 0.99044 0.86556 0.0
N214 N 0.20818 0.09146 0.85314 0.0
C215 C 0.15564 0.06583 0.87308 0.0
C216 C 0.19445 0.06003 0.86419 0.0
C217 C 0.1847 0.12968 0.85098 0.0
N218 N 0.13218 0.10339 0.87088 0.0
C219 C 0.14528 0.13598 0.86018 0.0
O220 O 0.3526 0.05409 0.86915 0.0
C221 C 0.34538 0.09412 0.86501 0.0
O222 O 0.31403 0.10441 0.85508 0.0
H223 H 0.21362 0.03049 0.86622 0.0
H224 H 0.19635 0.15435 0.8422 0.0
C225 C 0.41361 0.94204 0.85901 0.0
C226 C 0.44766 0.92576 0.84883 0.0
C227 C 0.41125 0.95495 0.82494 0.0
C228 C 0.37749 0.97085 0.83508 0.0
N229 N 0.37955 0.96457 0.85191 0.0
N230 N 0.44558 0.93303 0.83202 0.0
H231 H 0.41467 0.93776 0.87244 0.0
C232 C 0.30504 0.09019 0.81129 0.0
O233 O 0.33465 0.06882 0.82016 0.0
O234 O 0.3345 0.95737 0.888 0.0
H235 H 0.34998 0.98833 0.82962 0.0
H236 H 0.14434 0.04083 0.88179 0.0
H237 H 0.41026 0.96007 0.81154 0.0
Zn238 Zn 0.58349 0.83981 0.11572 0.0
C239 C 0.59304 0.74788 0.08045 0.0
N240 N 0.63432 0.74411 0.08635 0.0
C241 C 0.63335 0.7682 0.10044 0.0
N242 N 0.59299 0.78575 0.10311 0.0
N243 N 0.56727 0.77231 0.09065 0.0
C244 C 0.4772 0.81077 0.06189 0.0
O245 O 0.48795 0.84386 0.07171 0.0
O246 O 0.61918 0.84511 0.13726 0.0
Zn247 Zn 0.50299 0.76683 0.09157 0.0
N248 N 0.60351 0.88795 0.1015 0.0
C249 C 0.60149 0.92358 0.07493 0.0
C250 C 0.58941 0.8886 0.08536 0.0
C251 C 0.62997 0.92064 0.1076 0.0
N252 N 0.62752 0.95642 0.08103 0.0
C253 C 0.64253 0.95597 0.0971 0.0
O254 O 0.47191 0.81406 0.10575 0.0
C255 C 0.48027 0.84417 0.1165 0.0
O256 O 0.51968 0.85341 0.12085 0.0
H257 H 0.56873 0.86226 0.0807 0.0
H258 H 0.64026 0.91956 0.12056 0.0
C259 C 0.4503 0.68715 0.10088 0.0
C260 C 0.44559 0.64526 0.10871 0.0
C261 C 0.52079 0.64873 0.11712 0.0
C262 C 0.5251 0.68985 0.10957 0.0
N263 N 0.49023 0.70839 0.10144 0.0
N264 N 0.48146 0.62763 0.11652 0.0
H265 H 0.42303 0.70252 0.09436 0.0
C266 C 0.6169 0.82245 0.15066 0.0
O267 O 0.58984 0.78856 0.15152 0.0
O268 O 0.47956 0.77162 0.06771 0.0
H269 H 0.55628 0.7068 0.11033 0.0
H270 H 0.59021 0.9247 0.06209 0.0
H271 H 0.54846 0.63373 0.12352 0.0
H272 H 0.29233 0.35323 0.41829 0.0
H273 H 0.33685 0.29958 0.40294 0.0
H274 H 0.37771 0.40221 0.36871 0.0
H275 H 0.33266 0.45559 0.38393 0.0
H276 H 0.38263 0.3218 0.3536 0.0
H277 H 0.43408 0.39057 0.40291 0.0
H278 H 0.4296 0.41593 0.43214 0.0
H279 H 0.42477 0.2812 0.44916 0.0
H280 H 0.42834 0.25497 0.41992 0.0
H281 H 0.62156 0.22767 0.37035 0.0
H282 H 0.55945 0.27395 0.37911 0.0
H283 H 0.47105 0.19396 0.3494 0.0
H284 H 0.53339 0.14965 0.33989 0.0
H285 H 0.49036 0.26675 0.39562 0.0
H286 H 0.38781 0.24617 0.33456 0.0
H287 H 0.40195 0.23559 0.30438 0.0
H288 H 0.52728 0.30058 0.30926 0.0
H289 H 0.51412 0.31116 0.33945 0.0
C290 C 0.30858 0.36364 0.40686 0.0
C291 C 0.30865 0.40839 0.40217 0.0
C292 C 0.33448 0.3331 0.3982 0.0
C293 C 0.36161 0.34715 0.38496 0.0
C294 C 0.35719 0.39059 0.37891 0.0
C295 C 0.33089 0.42107 0.3875 0.0
C296 C 0.39988 0.31964 0.37973 0.0
C297 C 0.40594 0.30936 0.36278 0.0
C298 C 0.43183 0.3055 0.39156 0.0
C299 C 0.43089 0.32081 0.40921 0.0
C300 C 0.43177 0.36633 0.41287 0.0
C301 C 0.42938 0.38087 0.42943 0.0
C302 C 0.42664 0.3502 0.44248 0.0
C303 C 0.42669 0.3049 0.43901 0.0
C304 C 0.42889 0.29016 0.42244 0.0
C305 C 0.58879 0.21996 0.36578 0.0
C306 C 0.58228 0.18524 0.35438 0.0
C307 C 0.55323 0.24643 0.37077 0.0
C308 C 0.51038 0.23827 0.36466 0.0
C309 C 0.50378 0.20215 0.35388 0.0
C310 C 0.5394 0.17651 0.34856 0.0
C311 C 0.47268 0.26745 0.36947 0.0
C312 C 0.46687 0.2785 0.38639 0.0
C313 C 0.44253 0.2845 0.35746 0.0
C314 C 0.45002 0.27925 0.33925 0.0
C315 C 0.41821 0.25845 0.32915 0.0
C316 C 0.4261 0.25236 0.31207 0.0
C317 C 0.46536 0.26755 0.30491 0.0
C318 C 0.4969 0.28879 0.31482 0.0
C319 C 0.48932 0.29468 0.33192 0.0
H320 H 0.47137 0.2628 0.29169 0.0
H321 H 0.42446 0.36162 0.45527 0.0
H322 H 0.35032 0.11848 0.62094 0.0
H323 H 0.30648 0.05625 0.63152 0.0
H324 H 0.39449 0.96496 0.60694 0.0
H325 H 0.4365 0.0271 0.59558 0.0
H326 H 0.31849 0.93774 0.60184 0.0
H327 H 0.39167 0.98823 0.65145 0.0
H328 H 0.4141 0.04171 0.67313 0.0
H329 H 0.27864 0.0599 0.68713 0.0
H330 H 0.25526 1.00733 0.66526 0.0
H331 H 0.2197 0.79287 0.67566 0.0
H332 H 0.27793 0.83632 0.66222 0.0
H333 H 0.18708 0.87413 0.62316 0.0
H334 H 0.12888 0.83126 0.63677 0.0
H335 H 0.27018 0.92332 0.66082 0.0
H336 H 0.2459 0.90842 0.58851 0.0
H337 H 0.23558 0.85119 0.56689 0.0
H338 H 0.28822 0.7529 0.6002 0.0
H339 H 0.29939 0.8095 0.62191 0.0
C340 C 0.36036 0.08506 0.61793 0.0
C341 C 0.39683 0.0775 0.60749 0.0
C342 C 0.33543 0.04945 0.62404 0.0
C343 C 0.34738 1.0056 0.62026 0.0
C344 C 0.3843 0.99829 0.61002 0.0
C345 C 0.40843 0.03382 0.60357 0.0
C346 C 0.32075 0.96725 0.62637 0.0
C347 C 0.30805 0.93467 0.61477 0.0
C348 C 0.30762 0.96254 0.64332 0.0
C349 C 0.32167 0.99413 0.65655 0.0
C350 C 0.36661 1.00391 0.65904 0.0
C351 C 0.3795 0.03407 0.67137 0.0
C352 C 0.34781 0.0543 0.68146 0.0
C353 C 0.30315 0.04432 0.67927 0.0
C354 C 0.29006 0.01436 0.66689 0.0
C355 C 0.21293 0.8085 0.66371 0.0
C356 C 0.17005 0.80788 0.65703 0.0
C357 C 0.24602 0.83383 0.65616 0.0
C358 C 0.23682 0.85893 0.64178 0.0
C359 C 0.1952 0.85472 0.63415 0.0
C360 C 0.16202 0.82944 0.64176 0.0
C361 C 0.26802 0.8941 0.63625 0.0
C362 C 0.28104 0.92634 0.64794 0.0
C363 C 0.28243 0.89796 0.61951 0.0
C364 C 0.27321 0.86323 0.60688 0.0
C365 C 0.25516 0.87457 0.59123 0.0
C366 C 0.24926 0.84225 0.57894 0.0
C367 C 0.2615 0.79852 0.58213 0.0
C368 C 0.27881 0.78679 0.59773 0.0
C369 C 0.2848 0.81897 0.61005 0.0
H370 H 0.25769 0.7738 0.57247 0.0
H371 H 0.35788 0.07759 0.69101 0.0
H372 H 0.44735 0.86246 0.87346 0.0
H373 H 0.51003 0.81902 0.88348 0.0
H374 H 0.59654 0.89127 0.85029 0.0
H375 H 0.53352 0.93324 0.8397 0.0
H376 H 0.61429 0.8095 0.84803 0.0
H377 H 0.59079 0.90618 0.89516 0.0
H378 H 0.54685 0.94052 0.9176 0.0
H379 H 0.52285 0.81276 0.93938 0.0
H380 H 0.56589 0.77755 0.91689 0.0
H381 H 0.77332 0.72041 0.91996 0.0
H382 H 0.73141 0.77879 0.90588 0.0
H383 H 0.67581 0.68138 0.87244 0.0
H384 H 0.72063 0.6243 0.88556 0.0
H385 H 0.64861 0.78344 0.90788 0.0
H386 H 0.62174 0.73105 0.83874 0.0
H387 H 0.66167 0.69182 0.81647 0.0
H388 H 0.78512 0.72614 0.83941 0.0
H389 H 0.74638 0.76885 0.86093 0.0
C390 C 0.47986 0.86943 0.86848 0.0
C391 C 0.48569 0.90143 0.85588 0.0
C392 C 0.51575 0.84469 0.87425 0.0
C393 C 0.55833 0.85231 0.86787 0.0
C394 C 0.56412 0.88474 0.85544 0.0
C395 C 0.52813 0.90876 0.84941 0.0
C396 C 0.59646 0.82498 0.87342 0.0
C397 C 0.62208 0.80406 0.86113 0.0
C398 C 0.60662 0.81784 0.89052 0.0
C399 C 0.58134 0.83918 0.90423 0.0
C400 C 0.57594 0.88537 0.90467 0.0
C401 C 0.55115 0.90499 0.9174 0.0
C402 C 0.53194 0.87883 0.92987 0.0
C403 C 0.53764 0.83299 0.92969 0.0
C404 C 0.56226 0.81319 0.91695 0.0
C405 C 0.75456 0.71231 0.90882 0.0
C406 C 0.75098 0.66828 0.90352 0.0
C407 C 0.72976 0.74541 0.90102 0.0
C408 C 0.70003 0.73473 0.88811 0.0
C409 C 0.69905 0.69106 0.88206 0.0
C410 C 0.72509 0.65834 0.88947 0.0
C411 C 0.6666 0.76771 0.88246 0.0
C412 C 0.64154 0.78945 0.89476 0.0
C413 C 0.65674 0.77532 0.86535 0.0
C414 C 0.68098 0.75292 0.85162 0.0
C415 C 0.65748 0.73115 0.83884 0.0
C416 C 0.67995 0.70849 0.82625 0.0
C417 C 0.72595 0.70683 0.8264 0.0
C418 C 0.74956 0.72804 0.83909 0.0
C419 C 0.72736 0.75187 0.85142 0.0
H420 H 0.74317 0.68913 0.81667 0.0
H421 H 0.5127 0.89408 0.9397 0.0
H422 H 0.85757 0.26899 0.1708 0.0
H423 H 0.79931 0.22897 0.15597 0.0
H424 H 0.8937 0.18872 0.11861 0.0
H425 H 0.95114 0.23103 0.13293 0.0
H426 H 0.81792 0.18748 0.1048 0.0
H427 H 0.8744 0.12821 0.1564 0.0
H428 H 0.89143 0.12332 0.18655 0.0
H429 H 0.75398 0.13773 0.19827 0.0
H430 H 0.73623 0.14328 0.1682 0.0
H431 H 0.71289 0.95186 0.11881 0.0
H432 H 0.76117 0.01234 0.12751 0.0
H433 H 0.68483 0.1038 0.09774 0.0
H434 H 0.63748 0.04301 0.08852 0.0
H435 H 0.75067 0.08081 0.14461 0.0
H436 H 0.74699 0.19106 0.08488 0.0
H437 H 0.74018 0.18258 0.05428 0.0
H438 H 0.78936 0.04977 0.05782 0.0
H439 H 0.79701 0.05765 0.0884 0.0
C440 C 0.86509 0.25388 0.15886 0.0
C441 C 0.90864 0.25324 0.15293 0.0
C442 C 0.83203 0.23019 0.15056 0.0
C443 C 0.84246 0.20413 0.13656 0.0
C444 C 0.88478 0.20805 0.12948 0.0
C445 C 0.9176 0.23273 0.13757 0.0
C446 C 0.8117 0.16875 0.13071 0.0
C447 C 0.80292 0.1644 0.11352 0.0
C448 C 0.79309 0.1375 0.14197 0.0
C449 C 0.80405 0.13658 0.16007 0.0
C450 C 0.84789 0.13086 0.16542 0.0
C451 C 0.85764 0.12783 0.18249 0.0
C452 C 0.82375 0.13008 0.19431 0.0
C453 C 0.78016 0.13599 0.1891 0.0
C454 C 0.77025 0.13911 0.17206 0.0
C455 C 0.7062 0.98488 0.1142 0.0
C456 C 0.67116 0.99267 0.10304 0.0
C457 C 0.73396 0.01951 0.11914 0.0
C458 C 0.72714 0.06279 0.11316 0.0
C459 C 0.69163 0.07069 0.10224 0.0
C460 C 0.66434 0.03592 0.09706 0.0
C461 C 0.7566 0.09959 0.1187 0.0
C462 C 0.76517 0.10418 0.13586 0.0
C463 C 0.77637 0.12982 0.10734 0.0
C464 C 0.77204 0.1248 0.08895 0.0
C465 C 0.75643 0.16009 0.07912 0.0
C466 C 0.75243 0.15538 0.06178 0.0
C467 C 0.76417 0.1156 0.05412 0.0
C468 C 0.78009 0.08049 0.06378 0.0
C469 C 0.78421 0.08505 0.08111 0.0
H470 H 0.76103 0.11202 0.04069 0.0
H471 H 0.83114 0.12704 0.20751 0.0
H472 H 0.11177 0.36064 0.39417 0.0
H473 H 0.04851 0.31688 0.38484 0.0
H474 H 0.9636 0.39053 0.41795 0.0
H475 H 0.02733 0.43269 0.42793 0.0
H476 H 0.94128 0.31035 0.41998 0.0
H477 H 0.96709 0.40608 0.37316 0.0
H478 H 0.01188 0.44186 0.35119 0.0
H479 H 0.04015 0.31504 0.32967 0.0
H480 H 0.99593 0.27843 0.35163 0.0
H481 H 0.79269 0.21793 0.34518 0.0
H482 H 0.82968 0.27789 0.36018 0.0
H483 H 0.87889 0.18352 0.39627 0.0
H484 H 0.83981 0.12436 0.38175 0.0
H485 H 0.91175 0.28317 0.35987 0.0
H486 H 0.92452 0.22988 0.42968 0.0
H487 H 0.87742 0.20244 0.45261 0.0
H488 H 0.76309 0.25663 0.42839 0.0
H489 H 0.80947 0.28442 0.4053 0.0
C490 C 0.0795 0.36781 0.3993 0.0
C491 C 0.07435 0.40041 0.41164 0.0
C492 C 0.04325 0.34283 0.39394 0.0
C493 C 1.00086 0.35083 0.40043 0.0
C494 C 0.9958 0.38361 0.41271 0.0
C495 C 0.0322 0.40784 0.41836 0.0
C496 C 0.96206 0.32437 0.39474 0.0
C497 C 0.93463 0.30462 0.40682 0.0
C498 C 0.95263 0.31751 0.37758 0.0
C499 C 0.9784 0.3395 0.36411 0.0
C500 C 0.98297 0.38581 0.36377 0.0
C501 C 1.00826 0.40623 0.35132 0.0
C502 C 0.02891 0.38073 0.33906 0.0
C503 C 0.02414 0.33475 0.33918 0.0
C504 C 0.9989 0.31415 0.35161 0.0
C505 C 0.8091 0.21064 0.35692 0.0
C506 C 0.81286 0.16681 0.3625 0.0
C507 C 0.83088 0.24477 0.36536 0.0
C508 C 0.85774 0.23546 0.37929 0.0
C509 C 0.85798 0.19209 0.38576 0.0
C510 C 0.83532 0.15813 0.3775 0.0
C511 C 0.89084 0.26871 0.38513 0.0
C512 C 0.91766 0.28944 0.37304 0.0
C513 C 0.89899 0.27727 0.40227 0.0
C514 C 0.87049 0.25907 0.41572 0.0
C515 C 0.88931 0.23587 0.42923 0.0
C516 C 0.86274 0.2202 0.44224 0.0
C517 C 0.81733 0.22778 0.44196 0.0
C518 C 0.79826 0.25059 0.42856 0.0
C519 C 0.82466 0.26618 0.41546 0.0
H520 H 0.79707 0.2162 0.45219 0.0
H521 H 0.04855 0.39659 0.32945 0.0
H522 H 0.15039 0.56965 0.64087 0.0
H523 H 0.19465 0.50686 0.63119 0.0
H524 H 0.28441 0.5254 0.67247 0.0
H525 H 0.24033 0.58787 0.6823 0.0
H526 H 0.3259 0.51191 0.64027 0.0
H527 H 0.21422 0.44713 0.67612 0.0
H528 H 0.13759 0.4334 0.6851 0.0
H529 H 0.10771 0.3765 0.63721 0.0
H530 H 0.18405 0.3905 0.62785 0.0
H531 H 0.45174 0.32375 0.63116 0.0
H532 H 0.39906 0.36892 0.64675 0.0
H533 H 0.30063 0.34561 0.60876 0.0
H534 H 0.35316 0.30036 0.59321 0.0
H535 H 0.2626 0.36027 0.64001 0.0
H536 H 0.36684 0.42687 0.60287 0.0
H537 H 0.4409 0.44139 0.59135 0.0
H538 H 0.48161 0.49739 0.63825 0.0
H539 H 0.40798 0.4822 0.65018 0.0
C540 C 0.17986 0.56077 0.64777 0.0
C541 C 0.19193 0.58393 0.66234 0.0
C542 C 0.2049 0.52465 0.64229 0.0
C543 C 0.24265 0.51132 0.65118 0.0
C544 C 0.25537 0.53508 0.66545 0.0
C545 C 0.23005 0.57068 0.67107 0.0
C546 C 0.26868 0.47224 0.6458 0.0
C547 C 0.31231 0.47869 0.64048 0.0
C548 C 0.25047 0.42907 0.64557 0.0
C549 C 0.20472 0.42026 0.65123 0.0
C550 C 0.19121 0.43202 0.66745 0.0
C551 C 0.14785 0.42413 0.67262 0.0
C552 C 0.11777 0.4042 0.66172 0.0
C553 C 0.13103 0.39199 0.64563 0.0
C554 C 0.17435 0.39986 0.6404 0.0
C555 C 0.41807 0.32594 0.62667 0.0
C556 C 0.40647 0.30854 0.61099 0.0
C557 C 0.38813 0.35235 0.63547 0.0
C558 C 0.34628 0.36156 0.62869 0.0
C559 C 0.33276 0.33919 0.61419 0.0
C560 C 0.36275 0.31307 0.60536 0.0
C561 C 0.32012 0.39984 0.6348 0.0
C562 C 0.2764 0.3934 0.64005 0.0
C563 C 0.33789 0.44326 0.63464 0.0
C564 C 0.38206 0.45294 0.62749 0.0
C565 C 0.39169 0.44193 0.61078 0.0
C566 C 0.43357 0.45031 0.60417 0.0
C567 C 0.46591 0.47034 0.61406 0.0
C568 C 0.45648 0.48191 0.6306 0.0
C569 C 0.4147 0.47336 0.63731 0.0
H570 H 0.49828 0.47692 0.60891 0.0
H571 H 0.0842 0.39813 0.66574 0.0
H572 H 0.24006 0.94841 0.88325 0.0
H573 H 0.19911 0.89067 0.89811 0.0
H574 H 0.22751 0.79887 0.85832 0.0
H575 H 0.26773 0.85675 0.84339 0.0
H576 H 0.14234 0.81186 0.86078 0.0
H577 H 0.25641 0.77507 0.89906 0.0
H578 H 0.3146 0.78456 0.92031 0.0
H579 H 0.22094 0.84284 0.95392 0.0
H580 H 0.16212 0.83393 0.93281 0.0
H581 H 0.99637 0.64636 0.89238 0.0
H582 H 0.06169 0.68619 0.88255 0.0
H583 H 0.04537 0.78192 0.92202 0.0
H584 H 0.98077 0.74167 0.93214 0.0
H585 H 0.12859 0.76163 0.91962 0.0
H586 H 0.01478 0.79984 0.87925 0.0
H587 H 0.95823 0.78432 0.85778 0.0
H588 H 0.05543 0.72056 0.82719 0.0
H589 H 0.11234 0.73496 0.84857 0.0
C590 C 0.23997 0.91514 0.87822 0.0
C591 C 0.25716 0.9069 0.86222 0.0
C592 C 0.2161 0.88216 0.88665 0.0
C593 C 0.20955 0.84052 0.87921 0.0
C594 C 0.23174 0.8308 0.86425 0.0
C595 C 0.25525 0.86374 0.85581 0.0
C596 C 0.17337 0.8109 0.88507 0.0
C597 C 0.13987 0.80012 0.87359 0.0
C598 C 0.16931 0.79665 0.90186 0.0
C599 C 0.2049 0.80407 0.9143 0.0
C600 C 0.2483 0.79042 0.9109 0.0
C601 C 0.28136 0.7955 0.92295 0.0
C602 C 0.27143 0.81416 0.93847 0.0
C603 C 0.22852 0.82824 0.94191 0.0
C604 C 0.19529 0.8231 0.92992 0.0
C605 C 1.00631 0.67619 0.89884 0.0
C606 C 0.98289 0.69114 0.91294 0.0
C607 C 0.04382 0.69895 0.89322 0.0
C608 C 0.05827 0.73757 0.90137 0.0
C609 C 0.03504 0.75228 0.9155 0.0
C610 C 0.99797 0.72926 0.92124 0.0
C611 C 0.09757 0.76273 0.89533 0.0
C612 C 0.13137 0.77305 0.90678 0.0
C613 C 0.10212 0.77644 0.87845 0.0
C614 C 0.06769 0.76793 0.86563 0.0
C615 C 0.024 0.78217 0.86801 0.0
C616 C 0.9919 0.77363 0.85585 0.0
C617 C 1.00325 0.75127 0.84118 0.0
C618 C 0.0467 0.7377 0.83859 0.0
C619 C 0.07885 0.74601 0.85072 0.0
H620 H 0.97848 0.74439 0.83181 0.0
H621 H 0.29695 0.8175 0.94787 0.0
H622 H 0.92001 0.53084 0.17863 0.0
H623 H 0.87678 0.59409 0.16898 0.0
H624 H 0.80546 0.5089 0.13505 0.0
H625 H 0.85065 0.44615 0.144 0.0
H626 H 0.81626 0.58006 0.12016 0.0
H627 H 0.76362 0.54747 0.17487 0.0
H628 H 0.76749 0.53366 0.20527 0.0
H629 H 0.81856 0.66461 0.21305 0.0
H630 H 0.81557 0.67899 0.18266 0.0
H631 H 0.61838 0.72967 0.13034 0.0
H632 H 0.67156 0.68334 0.14507 0.0
H633 H 0.77543 0.73315 0.1133 0.0
H634 H 0.72185 0.77946 0.0985 0.0
H635 H 0.74731 0.68059 0.16156 0.0
H636 H 0.83267 0.64373 0.09773 0.0
H637 H 0.8154 0.64731 0.06756 0.0
H638 H 0.677 0.63861 0.07848 0.0
H639 H 0.69343 0.63418 0.10865 0.0
C640 C 0.89529 0.52576 0.16902 0.0
C641 C 0.8887 0.48363 0.16206 0.0
C642 C 0.87028 0.56188 0.1636 0.0
C643 C 0.83693 0.55637 0.15153 0.0
C644 C 0.83089 0.51427 0.14436 0.0
C645 C 0.85674 0.47834 0.14947 0.0
C646 C 0.8084 0.59431 0.1464 0.0
C647 C 0.8014 0.60201 0.12926 0.0
C648 C 0.78786 0.62267 0.1582 0.0
C649 C 0.78983 0.61412 0.17647 0.0
C650 C 0.77601 0.57319 0.18305 0.0
C651 C 0.77799 0.56528 0.20028 0.0
C652 C 0.79338 0.59819 0.21108 0.0
C653 C 0.80672 0.63912 0.20467 0.0
C654 C 0.80487 0.64718 0.18745 0.0
C655 C 0.65301 0.73315 0.1273 0.0
C656 C 0.66617 0.75894 0.11354 0.0
C657 C 0.6834 0.70595 0.13554 0.0
C658 C 0.72732 0.70386 0.13001 0.0
C659 C 0.74154 0.73364 0.1176 0.0
C660 C 0.71108 0.76065 0.10931 0.0
C661 C 0.75599 0.66648 0.1354 0.0
C662 C 0.76277 0.65883 0.15252 0.0
C663 C 0.77455 0.63679 0.12363 0.0
C664 C 0.76432 0.63941 0.10548 0.0
C665 C 0.79856 0.64256 0.09368 0.0
C666 C 0.78891 0.64468 0.07658 0.0
C667 C 0.74511 0.64346 0.07111 0.0
C668 C 0.71088 0.63984 0.08273 0.0
C669 C 0.72036 0.63755 0.09984 0.0
H670 H 0.73769 0.64515 0.05787 0.0
H671 H 0.79488 0.592 0.22441 0.0
H672 H 0.13117 0.66351 0.60694 0.0
H673 H 0.16178 0.63782 0.58058 0.0
H674 H 0.17504 0.77312 0.56378 0.0
H675 H 0.14097 0.7986 0.58982 0.0
H676 H 0.15401 0.73227 0.53911 0.0
H677 H 0.26735 0.69606 0.57879 0.0
H678 H 0.29922 0.66385 0.60448 0.0
H679 H 0.26003 0.5341 0.58847 0.0
H680 H 0.22735 0.56573 0.56282 0.0
H681 H 0.28965 0.66482 0.47027 0.0
H682 H 0.27024 0.69565 0.49776 0.0
H683 H 0.2129 0.57059 0.51212 0.0
H684 H 0.23159 0.53995 0.48476 0.0
H685 H 0.26164 0.60927 0.5377 0.0
H686 H 0.1474 0.64909 0.49851 0.0
H687 H 0.11832 0.68266 0.4726 0.0
H688 H 0.16787 0.80958 0.48778 0.0
H689 H 0.19784 0.77658 0.51368 0.0
C690 C 0.14101 0.6878 0.59766 0.0
C691 C 0.13412 0.7331 0.60049 0.0
C692 C 0.15907 0.67309 0.58259 0.0
C693 C 0.17277 0.70338 0.57023 0.0
C694 C 0.16543 0.7488 0.57306 0.0
C695 C 0.14605 0.76348 0.58798 0.0
C696 C 0.19297 0.68757 0.55419 0.0
C697 C 0.17857 0.70624 0.53897 0.0
C698 C 0.22441 0.65272 0.55363 0.0
C699 C 0.24445 0.63345 0.56898 0.0
C700 C 0.26525 0.66076 0.58082 0.0
C701 C 0.28349 0.64257 0.59537 0.0
C702 C 0.28151 0.59696 0.59814 0.0
C703 C 0.26147 0.56944 0.58633 0.0
C704 C 0.24311 0.5875 0.57178 0.0
C705 C 0.27343 0.64381 0.47939 0.0
C706 C 0.26167 0.60014 0.47529 0.0
C707 C 0.26215 0.6615 0.49504 0.0
C708 C 0.2395 0.6356 0.50691 0.0
C709 C 0.23007 0.59129 0.50314 0.0
C710 C 0.24067 0.57387 0.48747 0.0
C711 C 0.22371 0.65484 0.52296 0.0
C712 C 0.2384 0.63635 0.53807 0.0
C713 C 0.19351 0.6904 0.52344 0.0
C714 C 0.17532 0.71028 0.50792 0.0
C715 C 0.15244 0.68408 0.49625 0.0
C716 C 0.13573 0.70301 0.48158 0.0
C717 C 0.14137 0.7482 0.47852 0.0
C718 C 0.16361 0.77456 0.49015 0.0
C719 C 0.18045 0.75577 0.50482 0.0
H720 H 0.1284 0.7628 0.46716 0.0
H721 H 0.29558 0.58292 0.60942 0.0
H722 H 0.88213 0.68028 0.86041 0.0
H723 H 0.90498 0.71272 0.8338 0.0
H724 H 0.80743 0.63392 0.80807 0.0
H725 H 0.78575 0.60023 0.83455 0.0
H726 H 0.87489 0.62863 0.79128 0.0
H727 H 0.8036 0.76393 0.81277 0.0
H728 H 0.79146 0.82204 0.83402 0.0
H729 H 0.9298 0.85308 0.83357 0.0
H730 H 0.94238 0.79522 0.81237 0.0
H731 H 0.86725 0.73337 0.71299 0.0
H732 H 0.85014 0.71089 0.74158 0.0
H733 H 0.96933 0.77373 0.75911 0.0
H734 H 0.98663 0.79688 0.73041 0.0
H735 H 0.89999 0.78822 0.78036 0.0
H736 H 0.96695 0.66349 0.7542 0.0
H737 H 0.97742 0.60806 0.73197 0.0
H738 H 0.84614 0.55899 0.74007 0.0
H739 H 0.83462 0.61458 0.7622 0.0
C740 C 0.86514 0.67026 0.8491 0.0
C741 C 0.83203 0.63754 0.84966 0.0
C742 C 0.87811 0.68918 0.8338 0.0
C743 C 0.85775 0.67653 0.8187 0.0
C744 C 0.82407 0.64441 0.81939 0.0
C745 C 0.81145 0.62517 0.83462 0.0
C746 C 0.873 0.69402 0.80205 0.0
C747 C 0.87952 0.66368 0.78894 0.0
C748 C 0.88148 0.73954 0.79887 0.0
C749 C 0.87406 0.77422 0.81156 0.0
C750 C 0.83139 0.78267 0.8175 0.0
C751 C 0.82441 0.81575 0.82941 0.0
C752 C 0.85992 0.84086 0.83531 0.0
C753 C 0.90236 0.83335 0.82913 0.0
C754 C 0.9094 0.80043 0.81717 0.0
C755 C 0.88975 0.74281 0.7229 0.0
C756 C 0.9285 0.7667 0.71934 0.0
C757 C 0.87999 0.72969 0.73927 0.0
C758 C 0.90884 0.73985 0.75248 0.0
C759 C 0.9467 0.76525 0.74911 0.0
C760 C 0.95654 0.77844 0.73269 0.0
C761 C 0.89963 0.723 0.76968 0.0
C762 C 0.89499 0.75326 0.78283 0.0
C763 C 0.89275 0.67745 0.77289 0.0
C764 C 0.89982 0.64345 0.75978 0.0
C765 C 0.94021 0.64106 0.75118 0.0
C766 C 0.94635 0.60959 0.7386 0.0
C767 C 0.91244 0.58008 0.73459 0.0
C768 C 0.87237 0.58189 0.74319 0.0
C769 C 0.86604 0.61334 0.75576 0.0
H770 H 0.91724 0.55577 0.72483 0.0
H771 H 0.85447 0.8664 0.84455 0.0
H772 H 0.88521 0.49031 0.97185 0.0
H773 H 0.90253 0.46257 0.99969 0.0
H774 H 0.76864 0.41677 1.00548 0.0
H775 H 0.75077 0.44467 0.97727 0.0
H776 H 0.80448 0.46077 0.03462 0.0
H777 H 0.84191 0.34211 0.99785 0.0
H778 H 0.87566 0.30812 0.97294 0.0
H779 H 1.00404 0.34912 0.98964 0.0
H780 H 0.971 0.38396 0.01453 0.0
H781 H 0.88291 0.3413 0.1084 0.0
H782 H 0.84581 0.35682 0.08156 0.0
H783 H 0.96723 0.41013 0.06188 0.0
H784 H 1.00396 0.39543 0.08845 0.0
H785 H 0.92645 0.3524 0.04 0.0
H786 H 0.89001 0.47792 0.07446 0.0
H787 H 0.85787 0.51754 0.09847 0.0
H788 H 0.72952 0.46714 0.08597 0.0
H789 H 0.76101 0.42661 0.06203 0.0
C790 C 0.85922 0.47445 0.97897 0.0
C791 C 0.81662 0.46943 0.97222 0.0
C792 C 0.86928 0.4585 0.99494 0.0
C793 C 0.83707 0.43713 1.00464 0.0
C794 C 0.79407 0.43301 0.99819 0.0
C795 C 0.78397 0.44877 0.98205 0.0
C796 C 0.84942 0.41858 0.02129 0.0
C797 C 0.83038 0.43625 0.03584 0.0
C798 C 0.88381 0.3872 0.02288 0.0
C799 C 0.90391 0.36588 0.00801 0.0
C800 C 0.87731 0.34414 0.99616 0.0
C801 C 0.89632 0.32468 0.98205 0.0
C802 C 0.94196 0.32652 0.9797 0.0
C803 C 0.96869 0.34773 0.99148 0.0
C804 C 0.94984 0.36728 1.0056 0.0
C805 C 0.90166 0.35601 0.09828 0.0
C806 C 0.94639 0.36714 0.10056 0.0
C807 C 0.88038 0.36513 0.083 0.0
C808 C 0.90369 0.38489 0.06972 0.0
C809 C 0.94853 0.39492 0.07191 0.0
C810 C 0.96949 0.3865 0.08716 0.0
C811 C 0.88222 0.39523 0.05339 0.0
C812 C 0.89975 0.37608 0.03886 0.0
C813 C 0.84668 0.42542 0.05187 0.0
C814 C 0.828 0.44862 0.0666 0.0
C815 C 0.85505 0.47472 0.07697 0.0
C816 C 0.83692 0.4975 0.09053 0.0
C817 C 0.79171 0.49475 0.09377 0.0
C818 C 0.76456 0.46914 0.08348 0.0
C819 C 0.78253 0.44624 0.06991 0.0
H820 H 0.77767 0.51261 0.10421 0.0
H821 H 0.95661 0.31145 0.96877 0.0
H822 H 0.04009 0.32666 0.2334 0.0
H823 H 0.06705 0.34577 0.26125 0.0
H824 H 0.19918 0.30987 0.24651 0.0
H825 H 0.1714 0.2878 0.21884 0.0
H826 H 0.19057 0.29005 0.27757 0.0
H827 H 0.15859 0.42162 0.24651 0.0
H828 H 0.11362 0.47264 0.22948 0.0
H829 H 0.01962 0.48326 0.26944 0.0
H830 H 0.06376 0.43182 0.28663 0.0
H831 H 0.28982 0.45046 0.33591 0.0
H832 H 0.26454 0.41479 0.30998 0.0
H833 H 0.13936 0.38569 0.33307 0.0
H834 H 0.16477 0.41982 0.35915 0.0
H835 H 0.14653 0.43819 0.29825 0.0
H836 H 0.18367 0.30499 0.32919 0.0
H837 H 0.23406 0.25777 0.34556 0.0
H838 H 0.32513 0.25543 0.30447 0.0
H839 H 0.27585 0.30362 0.28803 0.0
C840 C 0.07479 0.3222 0.23619 0.0
C841 C 0.10375 0.30612 0.22393 0.0
C842 C 0.09031 0.33353 0.25209 0.0
C843 C 0.13553 0.33087 0.25591 0.0
C844 C 0.16422 0.3127 0.2439 0.0
C845 C 0.14838 0.30007 0.22808 0.0
C846 C 0.15281 0.34876 0.2721 0.0
C847 C 0.1812 0.32264 0.28194 0.0
C848 C 0.1407 0.39131 0.27804 0.0
C849 C 0.11428 0.42257 0.26779 0.0
C850 C 0.1282 0.43465 0.25163 0.0
C851 C 0.10287 0.46365 0.24195 0.0
C852 C 0.06373 0.4811 0.24836 0.0
C853 C 0.04992 0.46968 0.26448 0.0
C854 C 0.07509 0.44064 0.2742 0.0
C855 C 0.25712 0.43598 0.33551 0.0
C856 C 0.22933 0.43795 0.34958 0.0
C857 C 0.24277 0.41559 0.32072 0.0
C858 C 0.20013 0.3976 0.31965 0.0
C859 C 0.17244 0.39924 0.33368 0.0
C860 C 0.1871 0.41864 0.34858 0.0
C861 C 0.18356 0.37929 0.3036 0.0
C862 C 0.1556 0.40557 0.29379 0.0
C863 C 0.19671 0.33741 0.29759 0.0
C864 C 0.22636 0.30844 0.30747 0.0
C865 C 0.21475 0.29496 0.32374 0.0
C866 C 0.2431 0.26793 0.33302 0.0
C867 C 0.28294 0.2538 0.3261 0.0
C868 C 0.29445 0.26659 0.30987 0.0
C869 C 0.26632 0.29377 0.30056 0.0
H870 H 0.30475 0.23273 0.33328 0.0
H871 H 0.04416 0.50353 0.24084 0.0
H872 H 0.63361 0.90703 0.16021 0.0
H873 H 0.66782 0.93237 0.18609 0.0
H874 H 0.69171 0.79677 0.20063 0.0
H875 H 0.65392 0.77145 0.17524 0.0
H876 H 0.66659 0.83468 0.22603 0.0
H877 H 0.77628 0.87847 0.18633 0.0
H878 H 0.80592 0.91405 0.1609 0.0
H879 H 0.7638 0.04094 0.17872 0.0
H880 H 0.73343 1.00617 0.20418 0.0
H881 H 0.7969 0.90715 0.29598 0.0
H882 H 0.78195 0.87701 0.26795 0.0
H883 H 0.71169 0.99604 0.25485 0.0
H884 H 0.72562 0.02579 0.2828 0.0
H885 H 0.76928 0.96238 0.22883 0.0
H886 H 0.65329 0.91455 0.26682 0.0
H887 H 0.6255 0.87805 0.29236 0.0
H888 H 0.68517 0.75587 0.27716 0.0
H889 H 0.71388 0.79189 0.25162 0.0
C890 C 0.64652 0.88266 0.16888 0.0
C891 C 0.6412 0.83727 0.16572 0.0
C892 C 0.66657 0.89718 0.18366 0.0
C893 C 0.68363 0.8667 0.19533 0.0
C894 C 0.67902 0.82119 0.19194 0.0
C895 C 0.65753 0.80664 0.1774 0.0
C896 C 0.70357 0.88221 0.21147 0.0
C897 C 0.68988 0.86192 0.22647 0.0
C898 C 0.73351 0.91842 0.21236 0.0
C899 C 0.75227 0.93959 0.19714 0.0
C900 C 0.77314 0.91394 0.1848 0.0
C901 C 0.7901 0.93399 0.17038 0.0
C902 C 0.78669 0.97974 0.16819 0.0
C903 C 0.76644 1.00554 0.18045 0.0
C904 C 0.7494 0.98568 0.19489 0.0
C905 C 0.77877 0.92704 0.28703 0.0
C906 C 0.76205 0.96862 0.29163 0.0
C907 C 0.7702 0.90979 0.27105 0.0
C908 C 0.74552 0.93423 0.25934 0.0
C909 C 0.7308 0.97664 0.26366 0.0
C910 C 0.73859 0.99347 0.27968 0.0
C911 C 0.73211 0.91473 0.24302 0.0
C912 C 0.74678 0.93449 0.22812 0.0
C913 C 0.70365 0.87772 0.24215 0.0
C914 C 0.68619 0.85603 0.25743 0.0
C915 C 0.66082 0.88001 0.269 0.0
C916 C 0.64484 0.8594 0.28346 0.0
C917 C 0.65369 0.8147 0.28641 0.0
C918 C 0.67843 0.79051 0.27487 0.0
C919 C 0.69455 0.811 0.26041 0.0
H920 H 0.64128 0.79879 0.2976 0.0
H921 H 0.7998 0.99521 0.15702 0.0
H922 H 0.66875 0.29184 0.54663 0.0
H923 H 0.70614 0.26808 0.52107 0.0
H924 H 0.58758 0.20162 0.50492 0.0
H925 H 0.55082 0.2236 0.53065 0.0
H926 H 0.6564 0.14993 0.50155 0.0
H927 H 0.63487 0.30466 0.46798 0.0
H928 H 0.63765 0.38611 0.46997 0.0
H929 H 0.75256 0.37732 0.50128 0.0
H930 H 0.75045 0.29585 0.49929 0.0
H931 H 0.69718 0.17809 0.40638 0.0
H932 H 0.67699 0.20918 0.43349 0.0
H933 H 0.76324 0.11636 0.45823 0.0
H934 H 0.78269 0.08423 0.43115 0.0
H935 H 0.71842 0.24931 0.45806 0.0
H936 H 0.71865 0.08592 0.49561 0.0
H937 H 0.70867 1.00586 0.49087 0.0
H938 H 0.62846 0.03307 0.44774 0.0
H939 H 0.63748 0.11322 0.45235 0.0
C940 C 0.6504 0.27302 0.53743 0.0
C941 C 0.60669 0.25984 0.54066 0.0
C942 C 0.67172 0.25989 0.52264 0.0
C943 C 0.64939 0.2344 0.51058 0.0
C944 C 0.60558 0.22172 0.51383 0.0
C945 C 0.58448 0.23439 0.52859 0.0
C946 C 0.6717 0.21757 0.49517 0.0
C947 C 0.6706 0.17174 0.49218 0.0
C948 C 0.68987 0.24566 0.48271 0.0
C949 C 0.69089 0.2943 0.48433 0.0
C950 C 0.66016 0.32018 0.47555 0.0
C951 C 0.66184 0.36633 0.47655 0.0
C952 C 0.69481 0.38689 0.48599 0.0
C953 C 0.72655 0.36135 0.49423 0.0
C954 C 0.72498 0.3152 0.49323 0.0
C955 C 0.71214 0.16443 0.41757 0.0
C956 C 0.7412 0.12828 0.41659 0.0
C957 C 0.70054 0.18229 0.43309 0.0
C958 C 0.7179 0.16465 0.44798 0.0
C959 C 0.74858 0.12993 0.44697 0.0
C960 C 0.7599 0.11176 0.43146 0.0
C961 C 0.70287 0.18183 0.4645 0.0
C962 C 0.70511 0.22748 0.46761 0.0
C963 C 0.6853 0.15363 0.477 0.0
C964 C 0.67923 0.10552 0.47422 0.0
C965 C 0.6988 0.07478 0.48514 0.0
C966 C 0.69331 0.0294 0.48248 0.0
C967 C 0.66809 0.01439 0.46898 0.0
C968 C 0.64814 0.04473 0.45815 0.0
C969 C 0.65347 0.09013 0.46078 0.0
H970 H 0.66393 0.97925 0.46693 0.0
H971 H 0.69609 0.42261 0.48676 0.0
H972 H 0.25929 0.14701 0.79049 0.0
H973 H 0.28135 0.17263 0.76252 0.0
H974 H 0.39707 0.08996 0.76496 0.0
H975 H 0.37596 0.06532 0.79282 0.0
H976 H 0.4197 0.168 0.75414 0.0
H977 H 0.30465 0.06304 0.73959 0.0
H978 H 0.22914 0.03318 0.74187 0.0
H979 H 0.17629 0.15702 0.72475 0.0
H980 H 0.25164 0.18756 0.72234 0.0
H981 H 0.48987 0.14029 0.67172 0.0
H982 H 0.45522 0.12846 0.6988 0.0
H983 H 0.36542 0.23599 0.68917 0.0
H984 H 0.40015 0.2482 0.66168 0.0
H985 H 0.32508 0.15692 0.70359 0.0
H986 H 0.44483 0.25705 0.71463 0.0
H987 H 0.52173 0.28318 0.71241 0.0
H988 H 0.56729 0.16423 0.73621 0.0
H989 H 0.49067 0.13716 0.73841 0.0
C990 C 0.28929 0.13419 0.785 0.0
C991 C 0.31596 0.10432 0.79395 0.0
C992 C 0.30182 0.14873 0.76898 0.0
C993 C 0.34092 0.13319 0.76154 0.0
C994 C 0.36699 0.10279 0.77041 0.0
C995 C 0.35474 0.0886 0.78638 0.0
C996 C 0.35578 0.1489 0.74473 0.0
C997 C 0.39897 0.16534 0.74311 0.0
C998 C 0.32862 0.14661 0.73031 0.0
C999 C 0.2836 0.12772 0.731 0.0
C1000 C 0.27688 0.08388 0.73633 0.0
C1001 C 0.23413 0.06685 0.73765 0.0
C1002 C 0.19792 0.09339 0.73364 0.0
C1003 C 0.20439 0.13663 0.72794 0.0
C1004 C 0.2471 0.15377 0.72654 0.0
C1005 C 0.46279 0.16162 0.67527 0.0
C1006 C 0.44806 0.1955 0.66454 0.0
C1007 C 0.44299 0.15473 0.6908 0.0
C1008 C 0.40802 0.18157 0.69608 0.0
C1009 C 0.39245 0.21495 0.68533 0.0
C1010 C 0.41248 0.22205 0.6697 0.0
C1011 C 0.38916 0.17494 0.71307 0.0
C1012 C 0.34541 0.16023 0.7147 0.0
C1013 C 0.41595 0.17835 0.72752 0.0
C1014 C 0.46201 0.195 0.7266 0.0
C1015 C 0.47126 0.23639 0.71933 0.0
C1016 C 0.5148 0.25138 0.71808 0.0
C1017 C 0.54938 0.22536 0.72415 0.0
C1018 C 0.54047 0.18437 0.73153 0.0
C1019 C 0.49698 0.16923 0.73281 0.0
H1020 H 0.58307 0.23697 0.72314 0.0
H1021 H 0.16481 0.08059 0.735 0.0
H1022 H 0.45426 0.75124 0.03713 0.0
H1023 H 0.43096 0.76833 0.00834 0.0
H1024 H 0.44812 0.90757 0.01819 0.0
H1025 H 0.47038 0.89101 0.04673 0.0
H1026 H 0.37158 0.89357 1.00366 0.0
H1027 H 0.5221 0.84506 0.99481 0.0
H1028 H 0.58358 0.79176 0.99579 0.0
H1029 H 0.50964 0.70127 0.96532 0.0
H1030 H 0.44742 0.75379 0.96435 0.0
H1031 H 0.39203 1.00688 0.92808 0.0
H1032 H 0.40785 0.96896 0.95435 0.0
H1033 H 0.3645 0.8456 0.93295 0.0
H1034 H 0.34703 0.88388 0.90649 0.0
H1035 H 0.44451 0.83914 0.95214 0.0
H1036 H 0.29759 0.89335 0.95857 0.0
H1037 H 0.23788 0.94839 0.95734 0.0
H1038 H 0.30738 0.03019 0.9925 0.0
H1039 H 0.36782 0.97576 0.99376 0.0
C1040 C 0.45295 0.78547 0.03313 0.0
C1041 C 0.46378 0.81977 0.04432 0.0
C1042 C 0.43991 0.79518 0.01664 0.0
C1043 C 0.43778 0.83931 0.01105 0.0
C1044 C 0.44918 0.8733 0.02219 0.0
C1045 C 0.462 0.86371 0.03856 0.0
C1046 C 0.42238 0.85115 0.99389 0.0
C1047 C 0.38775 0.88174 0.99243 0.0
C1048 C 0.44236 0.83462 0.97913 0.0
C1049 C 0.47982 0.8031 0.97971 0.0
C1050 C 0.51876 0.81362 0.98845 0.0
C1051 C 0.55379 0.78359 0.98898 0.0
C1052 C 0.55044 0.74308 0.98069 0.0
C1053 C 0.51212 0.7326 0.97179 0.0
C1054 C 0.47698 0.76249 0.97124 0.0
C1055 C 0.3854 0.97173 0.92895 0.0
C1056 C 0.36776 0.9485 0.91527 0.0
C1057 C 0.39455 0.95007 0.94399 0.0
C1058 C 0.3867 0.90454 0.9457 0.0
C1059 C 0.37007 0.88086 0.93196 0.0
C1060 C 0.35997 0.90278 0.91691 0.0
C1061 C 0.39502 0.88274 0.96211 0.0
C1062 C 0.42802 0.85031 0.9634 0.0
C1063 C 0.37383 0.89771 0.97681 0.0
C1064 C 0.33735 0.93046 0.97619 0.0
C1065 C 0.30027 0.92313 0.96597 0.0
C1066 C 0.26626 0.95424 0.96528 0.0
C1067 C 0.26885 0.99281 0.97483 0.0
C1068 C 0.30542 1.00028 0.98511 0.0
C1069 C 0.33953 0.96926 0.98584 0.0
H1070 H 0.2425 0.01689 0.97427 0.0
H1071 H 0.57757 0.71989 0.9811 0.0
H1072 H 0.63789 1.00243 0.38326 0.0
H1073 H 0.58315 0.94847 0.39269 0.0
H1074 H 0.65316 0.84501 0.36694 0.0
H1075 H 0.70833 0.89872 0.35748 0.0
H1076 H 0.52678 0.89639 0.3753 0.0
H1077 H 0.64269 0.74909 0.38911 0.0
H1078 H 0.71952 0.736 0.39804 0.0
H1079 H 0.72147 0.86134 0.42321 0.0
H1080 H 0.6445 0.87492 0.41462 0.0
H1081 H 0.42601 0.68439 0.37377 0.0
H1082 H 0.47246 0.75 0.37056 0.0
H1083 H 0.48707 0.75803 0.42416 0.0
H1084 H 0.43958 0.69224 0.42744 0.0
H1085 H 0.5683 0.76007 0.4062 0.0
H1086 H 0.43004 0.83511 0.4062 0.0
H1087 H 0.35293 0.84832 0.39773 0.0
H1088 H 0.39434 0.86985 0.347 0.0
H1089 H 0.47167 0.85608 0.3551 0.0
C1090 C 0.64189 0.96818 0.37963 0.0
C1091 C 0.6778 0.95504 0.36961 0.0
C1092 C 0.61035 0.93736 0.385 0.0
C1093 C 0.61408 0.89256 0.38066 0.0
C1094 C 0.6498 0.87927 0.37065 0.0
C1095 C 0.6813 0.91012 0.3652 0.0
C1096 C 0.58034 0.85986 0.38641 0.0
C1097 C 0.53588 0.86669 0.38211 0.0
C1098 C 0.59192 0.82139 0.39556 0.0
C1099 C 0.63793 0.81314 0.4011 0.0
C1100 C 0.65944 0.77374 0.39663 0.0
C1101 C 0.70303 0.76626 0.40161 0.0
C1102 C 0.72541 0.79787 0.41114 0.0
C1103 C 0.70416 0.83695 0.41577 0.0
C1104 C 0.66056 0.84457 0.41084 0.0
C1105 C 0.43829 0.70074 0.3849 0.0
C1106 C 0.42888 0.6835 0.40086 0.0
C1107 C 0.46488 0.73821 0.38305 0.0
C1108 C 0.48327 0.759 0.3971 0.0
C1109 C 0.47313 0.74254 0.41314 0.0
C1110 C 0.44571 0.70529 0.41502 0.0
C1111 C 0.51504 0.79615 0.39473 0.0
C1112 C 0.55917 0.79004 0.39957 0.0
C1113 C 0.50311 0.83539 0.38616 0.0
C1114 C 0.45668 0.84427 0.38125 0.0
C1115 C 0.4227 0.84236 0.39321 0.0
C1116 C 0.37894 0.84999 0.38848 0.0
C1117 C 0.36873 0.85985 0.37183 0.0
C1118 C 0.4023 0.8622 0.35989 0.0
C1119 C 0.44611 0.85455 0.36455 0.0
H1120 H 0.33484 0.86575 0.3682 0.0
H1121 H 0.75918 0.79205 0.41496 0.0
H1122 H 0.58081 0.14002 0.63112 0.0
H1123 H 0.63726 0.08815 0.64042 0.0
H1124 H 0.73844 0.17371 0.62044 0.0
H1125 H 0.68186 0.22537 0.61066 0.0
H1126 H 0.75565 0.09262 0.61212 0.0
H1127 H 0.71606 0.16223 0.66394 0.0
H1128 H 0.66497 0.18727 0.68596 0.0
H1129 H 0.62563 0.05293 0.69524 0.0
H1130 H 0.67609 0.02712 0.67311 0.0
H1131 H 0.94308 1.005 0.64956 0.0
H1132 H 0.88018 0.05372 0.64543 0.0
H1133 H 0.79147 0.94642 0.65703 0.0
H1134 H 0.8549 0.8967 0.66109 0.0
H1135 H 0.76484 0.03372 0.67006 0.0
H1136 H 0.80658 0.96488 0.61837 0.0
H1137 H 0.85881 0.94112 0.59655 0.0
H1138 H 0.89486 0.07642 0.58733 0.0
H1139 H 0.84333 0.10095 0.6093 0.0
C1140 C 0.61507 0.14815 0.6288 0.0
C1141 C 0.62664 0.18718 0.62016 0.0
C1142 C 0.64746 0.11837 0.63422 0.0
C1143 C 0.6924 0.12707 0.6314 0.0
C1144 C 0.70407 0.1661 0.62283 0.0
C1145 C 0.67163 0.19576 0.61726 0.0
C1146 C 0.72711 0.09483 0.63678 0.0
C1147 C 0.75783 0.08031 0.62486 0.0
C1148 C 0.72948 0.07741 0.65329 0.0
C1149 C 0.69955 0.09279 0.66675 0.0
C1150 C 0.69631 0.13805 0.6706 0.0
C1151 C 0.66749 0.15238 0.68311 0.0
C1152 C 0.64197 0.12172 0.69196 0.0
C1153 C 0.64537 0.07664 0.68836 0.0
C1154 C 0.67411 0.06214 0.67585 0.0
C1155 C 0.91027 0.99168 0.65151 0.0
C1156 C 0.90421 0.94669 0.65554 0.0
C1157 C 0.87427 0.01972 0.64914 0.0
C1158 C 0.83105 1.00366 0.65065 0.0
C1159 C 0.82458 0.95953 0.65577 0.0
C1160 C 0.8609 0.93117 0.65816 0.0
C1161 C 0.79344 0.03238 0.64544 0.0
C1162 C 0.7623 0.04607 0.65734 0.0
C1163 C 0.79065 0.04932 0.62892 0.0
C1164 C 0.82136 0.03472 0.61558 0.0
C1165 C 0.82589 0.98955 0.61178 0.0
C1166 C 0.85534 0.97594 0.59937 0.0
C1167 C 0.88021 1.00723 0.59058 0.0
C1168 C 0.8756 0.05221 0.59416 0.0
C1169 C 0.84625 0.06599 0.60658 0.0
H1170 H 0.90299 0.99663 0.58098 0.0
H1171 H 0.61964 0.13289 0.70163 0.0
H1172 H 0.66347 0.35749 0.91517 0.0
H1173 H 0.61041 0.29619 0.91313 0.0
H1174 H 0.51662 0.38326 0.88938 0.0
H1175 H 0.56841 0.44435 0.89184 0.0
H1176 H 0.47383 0.32931 0.90901 0.0
H1177 H 0.58706 0.31315 0.86683 0.0
H1178 H 0.66347 0.30469 0.85675 0.0
H1179 H 0.67677 0.18462 0.88512 0.0
H1180 H 0.60057 0.19271 0.89553 0.0
H1181 H 0.34 0.18434 0.86051 0.0
H1182 H 0.39152 0.24107 0.87035 0.0
H1183 H 0.47104 0.14048 0.89391 0.0
H1184 H 0.42034 0.08364 0.8839 0.0
H1185 H 0.52224 0.19705 0.8774 0.0
H1186 H 0.40483 0.21014 0.91714 0.0
H1187 H 0.32763 0.21893 0.92623 0.0
H1188 H 0.32124 0.3452 0.90165 0.0
H1189 H 0.39828 0.33693 0.89222 0.0
C1190 C 0.63113 0.36383 0.90993 0.0
C1191 C 0.62041 0.40596 0.9036 0.0
C1192 C 0.60094 0.32858 0.90858 0.0
C1193 C 0.55961 0.33474 0.9008 0.0
C1194 C 0.54816 0.37735 0.89538 0.0
C1195 C 0.57807 0.41234 0.89673 0.0
C1196 C 0.52898 0.29697 0.89729 0.0
C1197 C 0.48445 0.3005 0.90204 0.0
C1198 C 0.54266 0.25881 0.88842 0.0
C1199 C 0.58835 0.25382 0.88211 0.0
C1200 C 0.6064 0.28512 0.87101 0.0
C1201 C 0.64964 0.28037 0.86522 0.0
C1202 C 0.67501 0.24422 0.87033 0.0
C1203 C 0.65712 0.21266 0.8812 0.0
C1204 C 0.61391 0.2173 0.88704 0.0
C1205 C 0.3683 0.17423 0.86786 0.0
C1206 C 0.37565 0.12923 0.87146 0.0
C1207 C 0.39771 0.20681 0.87356 0.0
C1208 C 0.43507 0.19525 0.88308 0.0
C1209 C 0.4425 0.15039 0.88665 0.0
C1210 C 0.41318 0.11785 0.88097 0.0
C1211 C 0.467 0.22971 0.88892 0.0
C1212 C 0.51172 0.22557 0.88457 0.0
C1213 C 0.45342 0.26741 0.89806 0.0
C1214 C 0.40724 0.27274 0.90386 0.0
C1215 C 0.38689 0.23966 0.91358 0.0
C1216 C 0.34317 0.24458 0.91881 0.0
C1217 C 0.31952 0.28256 0.91449 0.0
C1218 C 0.3396 0.31579 0.90497 0.0
C1219 C 0.38331 0.31103 0.89971 0.0
H1220 H 0.28568 0.28628 0.91854 0.0
H1221 H 0.70848 0.2406 0.86584 0.0
H1222 H 0.21353 0.15551 0.16846 0.0
H1223 H 0.27207 0.09968 0.1673 0.0
H1224 H 0.19324 0.0217 0.13338 0.0
H1225 H 0.13442 0.07572 0.13504 0.0
H1226 H 0.23384 0.96818 0.15298 0.0
H1227 H 0.27815 0.09543 0.12023 0.0
H1228 H 0.29622 0.17412 0.11563 0.0
H1229 H 0.3994 0.16602 0.15239 0.0
H1230 H 0.38155 0.08737 0.15734 0.0
H1231 H 0.39288 0.84496 0.10705 0.0
H1232 H 0.33486 0.89492 0.11666 0.0
H1233 H 0.42641 0.95608 0.15092 0.0
H1234 H 0.48475 0.90693 0.14117 0.0
H1235 H 0.38222 0.01764 0.13468 0.0
H1236 H 0.34155 0.88512 0.16429 0.0
H1237 H 0.32295 0.80596 0.16706 0.0
H1238 H 0.21188 0.82339 0.13433 0.0
H1239 H 0.23014 0.90252 0.13117 0.0
C1240 C 0.20816 0.12599 0.16109 0.0
C1241 C 0.16906 0.12049 0.15178 0.0
C1242 C 0.242 0.09424 0.16026 0.0
C1243 C 0.23763 0.05663 0.14998 0.0
C1244 C 0.19779 0.05027 0.14136 0.0
C1245 C 0.16411 0.08159 0.14226 0.0
C1246 C 0.27468 0.02468 0.14734 0.0
C1247 C 0.26622 0.97908 0.14891 0.0
C1248 C 0.31736 0.03853 0.1423 0.0
C1249 C 0.32817 0.08572 0.1393 0.0
C1250 C 0.30448 0.11054 0.12742 0.0
C1251 C 0.31471 0.1551 0.12473 0.0
C1252 C 0.34884 0.1751 0.13375 0.0
C1253 C 0.3729 0.15052 0.14544 0.0
C1254 C 0.36276 0.10595 0.14819 0.0
C1255 C 0.40061 0.86865 0.11677 0.0
C1256 C 0.44366 0.87172 0.12331 0.0
C1257 C 0.36727 0.89722 0.12231 0.0
C1258 C 0.37597 0.9292 0.13467 0.0
C1259 C 0.41872 0.93182 0.14138 0.0
C1260 C 0.45209 0.90347 0.13581 0.0
C1261 C 0.34114 0.96114 0.14006 0.0
C1262 C 0.35005 1.00672 0.13899 0.0
C1263 C 0.29872 0.94722 0.14536 0.0
C1264 C 0.28742 0.89972 0.14741 0.0
C1265 C 0.31331 0.87202 0.1576 0.0
C1266 C 0.30281 0.82716 0.15925 0.0
C1267 C 0.26631 0.80966 0.15084 0.0
C1268 C 0.24016 0.837 0.14082 0.0
C1269 C 0.25053 0.88186 0.13912 0.0
H1270 H 0.25823 0.77494 0.15211 0.0
H1271 H 0.35671 0.2096 0.13166 0.0
H1272 H 0.9038 0.85918 0.34966 0.0
H1273 H 0.95756 0.79876 0.35145 0.0
H1274 H 0.04361 0.88148 0.38096 0.0
H1275 H 0.99131 0.94196 0.37873 0.0
H1276 H 0.09191 0.83389 0.36118 0.0
H1277 H 0.97044 0.80422 0.39868 0.0
H1278 H 0.89237 0.79164 0.406 0.0
H1279 H 0.88797 0.67927 0.37326 0.0
H1280 H 0.96592 0.69156 0.36558 0.0
H1281 H 0.21736 0.68005 0.40883 0.0
H1282 H 0.16682 0.73773 0.39921 0.0
H1283 H 0.09682 0.64201 0.36927 0.0
H1284 H 0.14675 0.58402 0.37898 0.0
H1285 H 0.04004 0.69266 0.38607 0.0
H1286 H 0.16625 0.71932 0.35126 0.0
H1287 H 0.24511 0.7324 0.34547 0.0
H1288 H 0.24153 0.85135 0.3747 0.0
H1289 H 0.16272 0.8387 0.38083 0.0
C1290 C 0.93463 0.8649 0.35615 0.0
C1291 C 0.94296 0.90559 0.36411 0.0
C1292 C 0.9652 0.83007 0.35735 0.0
C1293 C 1.00448 0.83513 0.36662 0.0
C1294 C 0.01367 0.87644 0.37379 0.0
C1295 C 0.98342 0.91106 0.37257 0.0
C1296 C 0.03518 0.79732 0.36979 0.0
C1297 C 0.08051 0.8031 0.36669 0.0
C1298 C 0.02055 0.75668 0.37675 0.0
C1299 C 0.9738 0.74913 0.3814 0.0
C1300 C 0.95272 0.77703 0.39295 0.0
C1301 C 0.90852 0.76993 0.39718 0.0
C1302 C 0.88518 0.73477 0.39006 0.0
C1303 C 0.90606 0.70655 0.37874 0.0
C1304 C 0.95024 0.71356 0.37445 0.0
C1305 C 0.19141 0.67122 0.40012 0.0
C1306 C 0.18636 0.62722 0.39469 0.0
C1307 C 0.16256 0.70436 0.39456 0.0
C1308 C 0.12815 0.69444 0.38334 0.0
C1309 C 0.12306 0.6506 0.37789 0.0
C1310 C 0.15185 0.61745 0.38344 0.0
C1311 C 0.09677 0.72949 0.37767 0.0
C1312 C 0.05136 0.7232 0.38034 0.0
C1313 C 0.1114 0.76981 0.37048 0.0
C1314 C 0.15863 0.77787 0.3666 0.0
C1315 C 0.18233 0.74814 0.35653 0.0
C1316 C 0.22701 0.7555 0.35318 0.0
C1317 C 0.24834 0.79263 0.35974 0.0
C1318 C 0.22497 0.82259 0.36963 0.0
C1319 C 0.18027 0.81538 0.37302 0.0
H1320 H 0.28294 0.79823 0.35715 0.0
H1321 H 0.85096 0.72933 0.39334 0.0
H1322 H 0.63473 0.50634 0.61393 0.0
H1323 H 0.69919 0.55321 0.61775 0.0
H1324 H 0.7842 0.4408 0.61015 0.0
H1325 H 0.71906 0.39303 0.6066 0.0
H1326 H 0.80852 0.48671 0.63762 0.0
H1327 H 0.77884 0.52407 0.58096 0.0
H1328 H 0.73406 0.54586 0.55653 0.0
H1329 H 0.70179 0.66876 0.58036 0.0
H1330 H 0.74586 0.64745 0.60505 0.0
H1331 H 0.99741 0.63019 0.63925 0.0
H1332 H 0.9412 0.57806 0.62952 0.0
H1333 H 0.83935 0.67204 0.64153 0.0
H1334 H 0.89535 0.72434 0.65153 0.0
H1335 H 0.82954 0.63164 0.60942 0.0
H1336 H 0.85345 0.59017 0.66698 0.0
H1337 H 0.89847 0.56841 0.69135 0.0
H1338 H 0.94268 0.45282 0.66517 0.0
H1339 H 0.89832 0.47424 0.64053 0.0
C1340 C 0.66711 0.49153 0.6128 0.0
C1341 C 0.67161 0.44587 0.60988 0.0
C1342 C 0.70408 0.51854 0.61491 0.0
C1343 C 0.74676 0.50079 0.61411 0.0
C1344 C 0.75161 0.45535 0.61076 0.0
C1345 C 0.71436 0.42813 0.60855 0.0
C1346 C 0.78558 0.52962 0.61788 0.0
C1347 C 0.81368 0.51791 0.63117 0.0
C1348 C 0.79194 0.57091 0.60977 0.0
C1349 C 0.76546 0.58399 0.59492 0.0
C1350 C 0.76194 0.5556 0.58105 0.0
C1351 C 0.73672 0.5679 0.56715 0.0
C1352 C 0.71504 0.60863 0.56691 0.0
C1353 C 0.7186 0.63721 0.58057 0.0
C1354 C 0.74375 0.62506 0.59451 0.0
C1355 C 0.96307 0.63994 0.6398 0.0
C1356 C 0.95096 0.68157 0.64621 0.0
C1357 C 0.93097 0.60997 0.63426 0.0
C1358 C 0.88605 0.62105 0.63484 0.0
C1359 C 0.87383 0.6628 0.64095 0.0
C1360 C 0.90589 0.6926 0.64673 0.0
C1361 C 0.8518 0.58891 0.62925 0.0
C1362 C 0.82464 0.60011 0.61566 0.0
C1363 C 0.84642 0.54712 0.63703 0.0
C1364 C 0.87297 0.53408 0.65184 0.0
C1365 C 0.87308 0.56032 0.66636 0.0
C1366 C 0.89841 0.548 0.68024 0.0
C1367 C 0.92353 0.50932 0.67979 0.0
C1368 C 0.92326 0.48281 0.66548 0.0
C1369 C 0.898 0.495 0.65156 0.0
H1370 H 0.94311 0.49984 0.69055 0.0
H1371 H 0.69553 0.61809 0.55613 0.0
H1372 H 0.16977 0.22295 0.85318 0.0
H1373 H 0.12347 0.28903 0.85595 0.0
H1374 H 0.01225 0.20665 0.86898 0.0
H1375 H 0.05727 0.14111 0.86554 0.0
H1376 H 0.98387 0.27077 0.85087 0.0
H1377 H 0.08151 0.25993 0.89887 0.0
H1378 H 0.15407 0.25679 0.91285 0.0
H1379 H 0.18821 0.38338 0.89205 0.0
H1380 H 0.116 0.38701 0.87778 0.0
H1381 H 0.84802 0.40134 0.903 0.0
H1382 H 0.90032 0.34669 0.89237 0.0
H1383 H 0.98568 0.45147 0.87512 0.0
H1384 H 0.93351 0.50647 0.88566 0.0
H1385 H 0.0313 0.38423 0.89191 0.0
H1386 H 0.92697 0.39762 0.84712 0.0
H1387 H 0.85269 0.39944 0.83453 0.0
H1388 H 0.82945 0.2659 0.85073 0.0
H1389 H 0.90341 0.26348 0.86362 0.0
C1390 C 0.13519 0.21885 0.85618 0.0
C1391 C 0.11742 0.17651 0.85921 0.0
C1392 C 0.10882 0.25677 0.85799 0.0
C1393 C 0.0644 0.25305 0.86301 0.0
C1394 C 0.04631 0.2107 0.86516 0.0
C1395 C 0.07235 0.17308 0.86327 0.0
C1396 C 0.03675 0.29256 0.86693 0.0
C1397 C 0.99431 0.29543 0.85989 0.0
C1398 C 0.0504 0.32552 0.87845 0.0
C1399 C 0.09363 0.32349 0.8871 0.0
C1400 C 0.10463 0.28695 0.89719 0.0
C1401 C 0.14566 0.2851 0.90517 0.0
C1402 C 0.17579 0.31979 0.90329 0.0
C1403 C 0.16488 0.35649 0.89346 0.0
C1404 C 0.12391 0.35847 0.88543 0.0
C1405 C 0.87787 0.41286 0.89694 0.0
C1406 C 0.88636 0.45841 0.89514 0.0
C1407 C 0.90771 0.38153 0.89082 0.0
C1408 C 0.94679 0.39496 0.88282 0.0
C1409 C 0.95572 0.44033 0.88121 0.0
C1410 C 0.92571 0.47173 0.88719 0.0
C1411 C 0.97821 0.36148 0.87619 0.0
C1412 C 0.02123 0.35987 0.88271 0.0
C1413 C 0.96495 0.32934 0.86435 0.0
C1414 C 0.92063 0.33049 0.85644 0.0
C1415 C 0.90592 0.36874 0.84809 0.0
C1416 C 0.86389 0.36986 0.84088 0.0
C1417 C 0.83634 0.33283 0.84185 0.0
C1418 C 0.85082 0.29456 0.84999 0.0
C1419 C 0.89282 0.29327 0.85723 0.0
H1420 H 0.80379 0.33378 0.83628 0.0
H1421 H 0.20754 0.31831 0.90947 0.0
H1422 H 0.35824 0.67425 0.10648 0.0
H1423 H 0.29146 0.62972 0.11068 0.0
H1424 H 0.37152 0.5132 0.11749 0.0
H1425 H 0.43751 0.55647 0.11251 0.0
H1426 H 0.30331 0.49018 0.1012 0.0
H1427 H 0.32695 0.57715 0.15117 0.0
H1428 H 0.33597 0.64621 0.16722 0.0
H1429 H 0.20798 0.68974 0.15111 0.0
H1430 H 0.19839 0.62102 0.13483 0.0
H1431 H 0.17751 0.34888 0.15358 0.0
H1432 H 0.23211 0.40225 0.14339 0.0
H1433 H 0.1278 0.49135 0.12903 0.0
H1434 H 0.07284 0.43799 0.13904 0.0
H1435 H 0.19975 0.53313 0.14633 0.0
H1436 H 0.1749 0.43736 0.09933 0.0
H1437 H 0.16842 0.3652 0.08521 0.0
H1438 H 0.30292 0.33536 0.09775 0.0
H1439 H 0.31001 0.40711 0.11216 0.0
C1440 C 0.36163 0.63901 0.10845 0.0
C1441 C 0.40363 0.6192 0.1092 0.0
C1442 C 0.3233 0.61358 0.1111 0.0
C1443 C 0.32625 0.56802 0.11473 0.0
C1444 C 0.36801 0.54815 0.11477 0.0
C1445 C 0.40598 0.57323 0.11201 0.0
C1446 C 0.2867 0.54067 0.11913 0.0
C1447 C 0.28087 0.49966 0.11113 0.0
C1448 C 0.25657 0.55302 0.13186 0.0
C1449 C 0.26217 0.59423 0.14164 0.0
C1450 C 0.30086 0.60159 0.15097 0.0
C1451 C 0.30605 0.64062 0.16012 0.0
C1452 C 0.27261 0.67237 0.16015 0.0
C1453 C 0.23387 0.66512 0.15105 0.0
C1454 C 0.22852 0.62613 0.14187 0.0
C1455 C 0.16609 0.37984 0.1483 0.0
C1456 C 0.12069 0.38895 0.14708 0.0
C1457 C 0.19738 0.4103 0.14243 0.0
C1458 C 0.18405 0.45072 0.13535 0.0
C1459 C 0.13885 0.46038 0.13442 0.0
C1460 C 0.10748 0.42969 0.14009 0.0
C1461 C 0.21747 0.48243 0.12872 0.0
C1462 C 0.22194 0.52412 0.13626 0.0
C1463 C 0.24688 0.47044 0.11577 0.0
C1464 C 0.24287 0.42749 0.10693 0.0
C1465 C 0.203 0.41529 0.09918 0.0
C1466 C 0.19923 0.37447 0.0911 0.0
C1467 C 0.23521 0.34567 0.09061 0.0
C1468 C 0.27507 0.35769 0.09815 0.0
C1469 C 0.279 0.39846 0.10625 0.0
H1470 H 0.23222 0.31408 0.08436 0.0
H1471 H 0.27668 0.70251 0.16728 0.0
H1472 H 0.46668 0.28842 0.5483 0.0
H1473 H 0.45665 0.33234 0.5231 0.0
H1474 H 0.51328 0.44567 0.54802 0.0
H1475 H 0.52091 0.40153 0.57375 0.0
H1476 H 0.4419 0.47042 0.53486 0.0
H1477 H 0.56134 0.38873 0.51217 0.0
H1478 H 0.60531 0.3233 0.50489 0.0
H1479 H 0.49962 0.27461 0.47413 0.0
H1480 H 0.45398 0.3385 0.48204 0.0
H1481 H 0.40928 0.50457 0.43643 0.0
H1482 H 0.45591 0.49576 0.4613 0.0
H1483 H 0.33959 0.4763 0.49153 0.0
H1484 H 0.29338 0.48504 0.46669 0.0
H1485 H 0.46 0.41998 0.47631 0.0
H1486 H 0.36358 0.49332 0.53362 0.0
H1487 H 0.32237 0.56061 0.54072 0.0
H1488 H 0.38636 0.63097 0.50077 0.0
H1489 H 0.42962 0.56458 0.4939 0.0
C1490 C 0.47912 0.32206 0.54812 0.0
C1491 C 0.49579 0.34123 0.56279 0.0
C1492 C 0.47318 0.34743 0.53366 0.0
C1493 C 0.48456 0.39257 0.5334 0.0
C1494 C 0.50427 0.41099 0.54778 0.0
C1495 C 0.50955 0.38558 0.5624 0.0
C1496 C 0.47085 0.42099 0.5189 0.0
C1497 C 0.44626 0.45957 0.52204 0.0
C1498 C 0.47714 0.40771 0.50206 0.0
C1499 C 0.50435 0.36873 0.49758 0.0
C1500 C 0.54729 0.36391 0.50397 0.0
C1501 C 0.57245 0.32693 0.49979 0.0
C1502 C 0.55544 0.29502 0.48889 0.0
C1503 C 0.51287 0.2995 0.48247 0.0
C1504 C 0.48727 0.33602 0.48685 0.0
C1505 C 0.39374 0.501 0.44857 0.0
C1506 C 0.34773 0.49682 0.44976 0.0
C1507 C 0.42038 0.49534 0.46275 0.0
C1508 C 0.40144 0.48525 0.47836 0.0
C1509 C 0.35518 0.4848 0.47976 0.0
C1510 C 0.32861 0.49029 0.46556 0.0
C1511 C 0.42926 0.46793 0.49235 0.0
C1512 C 0.45637 0.43136 0.4891 0.0
C1513 C 0.42541 0.48325 0.50902 0.0
C1514 C 0.39969 0.52363 0.51315 0.0
C1515 C 0.3692 0.52318 0.52641 0.0
C1516 C 0.34543 0.56127 0.5304 0.0
C1517 C 0.35153 0.60006 0.52113 0.0
C1518 C 0.38159 0.60087 0.50791 0.0
C1519 C 0.40584 0.563 0.50399 0.0
H1520 H 0.3332 0.62959 0.52424 0.0
H1521 H 0.57525 0.26687 0.48534 0.0
H1522 H 0.15024 1.00609 0.82962 0.0
H1523 H 0.10495 0.99363 0.80465 0.0
H1524 H 0.22324 0.9794 0.77514 0.0
H1525 H 0.26808 0.99364 0.79996 0.0
H1526 H 0.16239 1.00555 0.75547 0.0
H1527 H 0.17242 0.89243 0.79761 0.0
H1528 H 0.16308 0.85778 0.82536 0.0
H1529 H 0.02263 0.87338 0.82163 0.0
H1530 H 0.03123 0.90918 0.79401 0.0
H1531 H 0.10106 0.78472 0.71806 0.0
H1532 H 0.10704 0.82815 0.74362 0.0
H1533 H 0.05106 0.94071 0.71799 0.0
H1534 H 0.04676 0.89717 0.6921 0.0
H1535 H 0.06757 0.87429 0.76557 0.0
H1536 H 0.10252 0.02898 0.7268 0.0
H1537 H 0.12831 0.0506 0.69861 0.0
H1538 H 0.20228 0.92997 0.69499 0.0
H1539 H 0.17738 0.90809 0.72325 0.0
C1540 C 0.16635 1.00305 0.81758 0.0
C1541 C 0.21258 1.00133 0.81663 0.0
C1542 C 0.14049 0.99503 0.80335 0.0
C1543 C 0.16056 0.98385 0.78807 0.0
C1544 C 0.20674 0.98747 0.78675 0.0
C1545 C 0.23251 0.99615 0.80093 0.0
C1546 C 0.13481 0.96255 0.77426 0.0
C1547 C 0.1412 0.97727 0.75775 0.0
C1548 C 0.10767 0.92482 0.77706 0.0
C1549 C 0.10253 0.90422 0.79385 0.0
C1550 C 0.13958 0.889 0.80279 0.0
C1551 C 0.13442 0.8691 0.81849 0.0
C1552 C 0.0923 0.86354 0.82528 0.0
C1553 C 0.05526 0.87792 0.81639 0.0
C1554 C 0.06026 0.89813 0.80073 0.0
C1555 C 0.08803 0.81809 0.71813 0.0
C1556 C 0.07307 0.83754 0.70323 0.0
C1557 C 0.09175 0.84312 0.73274 0.0
C1558 C 0.08073 0.88824 0.7327 0.0
C1559 C 0.06083 0.90628 0.71827 0.0
C1560 C 0.05755 0.88122 0.70355 0.0
C1561 C 0.09595 0.91687 0.74682 0.0
C1562 C 0.08767 0.90346 0.76337 0.0
C1563 C 0.12338 0.95421 0.74405 0.0
C1564 C 0.13811 0.96703 0.72706 0.0
C1565 C 0.12443 1.00724 0.71998 0.0
C1566 C 0.13886 0.01951 0.70401 0.0
C1567 C 0.16693 0.99168 0.69501 0.0
C1568 C 0.18059 0.95152 0.70197 0.0
C1569 C 0.16637 0.93921 0.71796 0.0
H1570 H 0.17807 1.00124 0.68266 0.0
H1571 H 0.08834 0.84796 0.8374 0.0
H1572 H 0.56562 0.78042 0.05041 0.0
H1573 H 0.5693 0.74063 0.02371 0.0
H1574 H 0.59997 0.62011 0.05033 0.0
H1575 H 0.59445 0.65951 0.07684 0.0
H1576 H 0.64272 0.70964 0.01269 0.0
H1577 H 0.58273 0.52933 0.0273 0.0
H1578 H 0.52133 0.49297 0.0422 0.0
H1579 H 0.44184 0.60933 0.03613 0.0
H1580 H 0.50244 0.64616 0.02096 0.0
H1581 H 0.76719 0.57264 0.96492 0.0
H1582 H 0.72467 0.58551 0.99044 0.0
H1583 H 0.60441 0.58645 0.96161 0.0
H1584 H 0.64703 0.57357 0.93608 0.0
H1585 H 0.59412 0.55822 0.99717 0.0
H1586 H 0.64515 0.67848 0.96263 0.0
H1587 H 0.70138 0.71664 0.94555 0.0
H1588 H 0.78609 0.72669 0.9885 0.0
H1589 H 0.73047 0.68808 1.00578 0.0
C1590 C 0.57046 0.74493 0.05053 0.0
C1591 C 0.57885 0.72274 0.06564 0.0
C1592 C 0.57335 0.7223 0.03527 0.0
C1593 C 0.5851 0.67725 0.03491 0.0
C1594 C 0.59011 0.65452 0.05015 0.0
C1595 C 0.58692 0.67706 0.06535 0.0
C1596 C 0.59895 0.65571 0.01897 0.0
C1597 C 0.63158 0.67672 0.00931 0.0
C1598 C 0.58428 0.6129 0.01423 0.0
C1599 C 0.54733 0.59061 0.02308 0.0
C1600 C 0.55206 0.54707 0.02904 0.0
C1601 C 0.5174 0.5264 0.03756 0.0
C1602 C 0.47775 0.54886 0.04014 0.0
C1603 C 0.47262 0.59201 0.03416 0.0
C1604 C 0.50714 0.61282 0.02562 0.0
C1605 C 0.73149 0.57235 0.9642 0.0
C1606 C 0.7103 0.57151 0.94859 0.0
C1607 C 0.70718 0.58036 0.97877 0.0
C1608 C 0.66142 0.58764 0.97787 0.0
C1609 C 0.6396 0.58079 0.96261 0.0
C1610 C 0.66397 0.57306 0.94803 0.0
C1611 C 0.63874 0.61164 0.99161 0.0
C1612 C 0.60469 0.59122 1.00068 0.0
C1613 C 0.65099 0.65556 0.99559 0.0
C1614 C 0.68387 0.68013 0.98544 0.0
C1615 C 0.67586 0.68869 0.9684 0.0
C1616 C 0.70759 0.71039 0.95869 0.0
C1617 C 0.74735 0.72395 0.96593 0.0
C1618 C 0.75531 0.7161 0.98291 0.0
C1619 C 0.72366 0.69439 0.99268 0.0
H1620 H 0.77194 0.74061 0.95838 0.0
H1621 H 0.45099 0.53282 0.04677 0.0
H1622 H 0.99958 0.14551 0.18676 0.0
H1623 H 0.98693 0.10489 0.21283 0.0
H1624 H 0.99282 0.22732 0.24032 0.0
H1625 H 1.0027 0.26786 0.21419 0.0
H1626 H 0.01338 0.09036 0.24578 0.0
H1627 H 0.8959 0.23523 0.26232 0.0
H1628 H 0.85982 0.29798 0.24804 0.0
H1629 H 0.86439 0.22779 0.2014 0.0
H1630 H 0.89998 0.16458 0.21546 0.0
H1631 H 0.91828 0.07777 0.32744 0.0
H1632 H 0.95738 0.08662 0.30094 0.0
H1633 H 0.83359 0.0789 0.27437 0.0
H1634 H 0.79455 0.07265 0.301 0.0
H1635 H 0.87167 0.151 0.26654 0.0
H1636 H 0.92075 1.00242 0.26845 0.0
H1637 H 0.95315 0.93502 0.28072 0.0
H1638 H 0.07683 1.00231 0.28727 0.0
H1639 H 0.04499 0.07039 0.27527 0.0
C1640 C 1.00091 0.16336 0.19849 0.0
C1641 C 1.00356 0.20979 0.19849 0.0
C1642 C 0.99343 0.1401 0.21341 0.0
C1643 C 0.98815 0.16309 0.22852 0.0
C1644 C 0.99661 0.20886 0.22881 0.0
C1645 C 1.00338 0.2321 0.21386 0.0
C1646 C 0.96475 0.14154 0.24279 0.0
C1647 C 0.98257 0.10368 0.25044 0.0
C1648 C 0.92347 0.15773 0.24838 0.0
C1649 C 0.90084 0.19524 0.23993 0.0
C1650 C 0.88893 0.23308 0.24905 0.0
C1651 C 0.86863 0.26878 0.24098 0.0
C1652 C 0.85991 0.26693 0.22382 0.0
C1653 C 0.87122 0.22927 0.21469 0.0
C1654 C 0.89141 0.1935 0.22271 0.0
C1655 C 0.89975 0.07551 0.31587 0.0
C1656 C 0.85349 0.07286 0.31625 0.0
C1657 C 0.92212 0.08083 0.30067 0.0
C1658 C 0.89861 0.0835 0.28553 0.0
C1659 C 0.85262 0.07691 0.28583 0.0
C1660 C 0.83026 0.07213 0.30106 0.0
C1661 C 0.92074 0.10023 0.27004 0.0
C1662 C 0.90252 0.1374 0.26203 0.0
C1663 C 0.96093 0.08259 0.26392 0.0
C1664 C 0.98035 0.04166 0.27106 0.0
C1665 C 0.95477 1.00298 0.27262 0.0
C1666 C 0.97305 0.96462 0.27951 0.0
C1667 C 0.017 0.96441 0.2848 0.0
C1668 C 0.04278 1.00253 0.28317 0.0
C1669 C 0.02465 0.04101 0.2763 0.0
H1670 H 0.03109 0.93468 0.29014 0.0
H1671 H 0.84433 0.29465 0.21759 0.0
loop_
_geom_bond_atom_site_label_1
_geom_bond_atom_site_label_2
_geom_bond_distance
_geom_bond_site_symmetry_2
_ccdc_geom_bond_type
Zn0 N4 2.020 . S
Zn0 O8 2.019 . S
Zn0 N10 2.119 . S
Zn0 O18 1.975 . S
C1 N2 1.334 . S
C1 N5 1.336 . S
N2 C1 1.334 . S
N2 C3 1.334 . S
C3 N2 1.334 . S
C3 N4 1.336 . S
N4 Zn0 2.020 . S
N4 C3 1.336 . S
N4 N5 1.354 . S
N5 C1 1.336 . S
N5 N4 1.354 . S
N5 Zn9 2.020 . S
C6 O7 1.244 . S
C6 O30 1.257 . S
O7 C6 1.244 . S
O8 Zn0 2.019 . S
O8 C28 1.257 . S
Zn9 N5 2.020 . S
Zn9 O16 1.975 . S
Zn9 N25 2.119 . S
Zn9 O30 2.019 . S
N10 Zn0 2.119 . S
N10 C12 1.334 . S
N10 C13 1.328 . S
C11 C12 1.391 . S
C11 N14 1.329 . S
C11 H32 0.930 . S
C12 N10 1.334 . S
C12 C11 1.391 . S
C12 H19 0.930 . S
C13 N10 1.328 . S
C13 C15 1.392 . S
C13 H20 0.930 . S
N14 C11 1.329 . S
N14 C15 1.331 . S
C15 C13 1.392 . S
C15 N14 1.331 . S
O16 Zn9 1.975 . S
O16 C17 1.252 . S
C17 O16 1.252 . S
C17 O18 1.252 . S
O18 Zn0 1.975 . S
O18 C17 1.252 . S
H19 C12 0.930 . S
H20 C13 0.930 . S
C21 C22 1.392 . S
C21 N25 1.328 . S
C21 H27 0.930 . S
C22 C21 1.392 . S
C22 N26 1.331 . S
C23 C24 1.391 . S
C23 N26 1.329 . S
C23 H33 0.930 . S
C24 C23 1.391 . S
C24 N25 1.334 . S
C24 H31 0.930 . S
N25 Zn9 2.119 . S
N25 C21 1.328 . S
N25 C24 1.334 . S
N26 C22 1.331 . S
N26 C23 1.329 . S
H27 C21 0.930 . S
C28 O8 1.257 . S
C28 O29 1.244 . S
O29 C28 1.244 . S
O30 C6 1.257 . S
O30 Zn9 2.019 . S
H31 C24 0.930 . S
H32 C11 0.930 . S
H33 C23 0.930 . S
Zn34 N38 2.020 1_655 S
Zn34 O42 2.019 . S
Zn34 N44 2.119 . S
Zn34 O52 1.975 . S
C35 N36 1.334 . S
C35 N39 1.336 . S
N36 C35 1.334 . S
N36 C37 1.334 . S
C37 N36 1.334 . S
C37 N38 1.336 . S
N38 Zn34 2.020 1_455 S
N38 C37 1.336 . S
N38 N39 1.354 . S
N39 C35 1.336 . S
N39 N38 1.354 . S
N39 Zn43 2.020 . S
C40 O41 1.244 . S
C40 O64 1.257 . S
O41 C40 1.244 . S
O42 Zn34 2.019 . S
O42 C62 1.257 . S
Zn43 N39 2.020 . S
Zn43 O50 1.975 . S
Zn43 N59 2.119 . S
Zn43 O64 2.019 . S
N44 Zn34 2.119 . S
N44 C46 1.334 . S
N44 C47 1.328 . S
C45 C46 1.391 . S
C45 N48 1.329 . S
C45 H66 0.930 . S
C46 N44 1.334 . S
C46 C45 1.391 . S
C46 H53 0.930 . S
C47 N44 1.328 . S
C47 C49 1.392 . S
C47 H54 0.930 . S
N48 C45 1.329 . S
N48 C49 1.331 . S
C49 C47 1.392 . S
C49 N48 1.331 . S
O50 Zn43 1.975 . S
O50 C51 1.252 1_455 S
C51 O50 1.252 1_655 S
C51 O52 1.252 . S
O52 Zn34 1.975 . S
O52 C51 1.252 . S
H53 C46 0.930 . S
H54 C47 0.930 . S
C55 C56 1.392 . S
C55 N59 1.328 . S
C55 H61 0.930 . S
C56 C55 1.392 . S
C56 N60 1.331 . S
C57 C58 1.391 . S
C57 N60 1.329 . S
C57 H67 0.930 . S
C58 C57 1.391 . S
C58 N59 1.334 . S
C58 H65 0.930 . S
N59 Zn43 2.119 . S
N59 C55 1.328 . S
N59 C58 1.334 . S
N60 C56 1.331 . S
N60 C57 1.329 . S
H61 C55 0.930 . S
C62 O42 1.257 . S
C62 O63 1.244 1_655 S
O63 C62 1.244 1_455 S
O64 C40 1.257 . S
O64 Zn43 2.019 . S
H65 C58 0.930 . S
H66 C45 0.930 . S
H67 C57 0.930 . S
Zn68 N72 2.020 . S
Zn68 O76 2.019 . S
Zn68 N78 2.119 . S
Zn68 O86 1.975 . S
C69 N70 1.334 . S
C69 N73 1.336 . S
N70 C69 1.334 . S
N70 C71 1.334 . S
C71 N70 1.334 . S
C71 N72 1.336 . S
N72 Zn68 2.020 . S
N72 C71 1.336 . S
N72 N73 1.354 . S
N73 C69 1.336 . S
N73 N72 1.354 . S
N73 Zn77 2.020 . S
C74 O75 1.244 . S
C74 O98 1.257 . S
O75 C74 1.244 . S
O76 Zn68 2.019 . S
O76 C96 1.257 . S
Zn77 N73 2.020 . S
Zn77 O84 1.975 . S
Zn77 N93 2.119 . S
Zn77 O98 2.019 . S
N78 Zn68 2.119 . S
N78 C80 1.334 . S
N78 C81 1.328 . S
C79 C80 1.391 . S
C79 N82 1.329 . S
C79 H100 0.930 . S
C80 N78 1.334 . S
C80 C79 1.391 . S
C80 H87 0.930 . S
C81 N78 1.328 . S
C81 C83 1.392 . S
C81 H88 0.930 . S
N82 C79 1.329 . S
N82 C83 1.331 . S
C83 C81 1.392 . S
C83 N82 1.331 . S
O84 Zn77 1.975 . S
O84 C85 1.252 . S
C85 O84 1.252 . S
C85 O86 1.252 . S
O86 Zn68 1.975 . S
O86 C85 1.252 . S
H87 C80 0.930 . S
H88 C81 0.930 . S
C89 C90 1.392 . S
C89 N93 1.328 . S
C89 H95 0.930 . S
C90 C89 1.392 . S
C90 N94 1.331 . S
C91 C92 1.391 . S
C91 N94 1.329 . S
C91 H101 0.930 . S
C92 C91 1.391 . S
C92 N93 1.334 . S
C92 H99 0.930 . S
N93 Zn77 2.119 . S
N93 C89 1.328 . S
N93 C92 1.334 . S
N94 C90 1.331 . S
N94 C91 1.329 . S
H95 C89 0.930 . S
C96 O76 1.257 . S
C96 O97 1.244 . S
O97 C96 1.244 . S
O98 C74 1.257 . S
O98 Zn77 2.019 . S
H99 C92 0.930 . S
H100 C79 0.930 . S
H101 C91 0.930 . S
Zn102 N106 2.020 . S
Zn102 O110 2.019 . S
Zn102 N112 2.119 . S
Zn102 O120 1.975 . S
C103 N104 1.334 . S
C103 N107 1.336 . S
N104 C103 1.334 . S
N104 C105 1.334 . S
C105 N104 1.334 . S
C105 N106 1.336 1_655 S
N106 Zn102 2.020 . S
N106 C105 1.336 1_455 S
N106 N107 1.354 1_455 S
N107 C103 1.336 . S
N107 N106 1.354 1_655 S
N107 Zn111 2.020 . S
C108 O109 1.241 1_655 S
C108 O132 1.257 . S
O109 C108 1.241 1_455 S
O110 Zn102 2.019 . S
O110 C130 1.257 . S
Zn111 N107 2.020 . S
Zn111 O118 1.975 1_655 S
Zn111 N127 2.119 . S
Zn111 O132 2.019 . S
N112 Zn102 2.119 . S
N112 C114 1.334 . S
N112 C115 1.328 . S
C113 C114 1.391 . S
C113 N116 1.329 . S
C113 H134 0.930 . S
C114 N112 1.334 . S
C114 C113 1.391 . S
C114 H121 0.930 . S
C115 N112 1.328 . S
C115 C117 1.392 . S
C115 H122 0.930 . S
N116 C113 1.329 . S
N116 C117 1.331 . S
C117 C115 1.392 . S
C117 N116 1.331 . S
O118 Zn111 1.975 1_455 S
O118 C119 1.252 . S
C119 O118 1.252 . S
C119 O120 1.252 . S
O120 Zn102 1.975 . S
O120 C119 1.252 . S
H121 C114 0.930 . S
H122 C115 0.930 . S
C123 C124 1.392 . S
C123 N127 1.328 . S
C123 H129 0.930 . S
C124 C123 1.392 . S
C124 N128 1.331 . S
C125 C126 1.391 . S
C125 N128 1.329 . S
C125 H135 0.930 . S
C126 C125 1.391 . S
C126 N127 1.334 . S
C126 H133 0.930 . S
N127 Zn111 2.119 . S
N127 C123 1.328 . S
N127 C126 1.334 . S
N128 C124 1.331 . S
N128 C125 1.329 . S
H129 C123 0.930 . S
C130 O110 1.257 . S
C130 O131 1.244 . S
O131 C130 1.244 . S
O132 C108 1.257 . S
O132 Zn111 2.019 . S
H133 C126 0.930 . S
H134 C113 0.930 . S
H135 C125 0.930 . S
Zn136 N140 2.020 1_565 S
Zn136 O144 2.019 . S
Zn136 N146 2.119 . S
Zn136 O154 1.975 . S
C137 N138 1.334 . S
C137 N141 1.336 . S
N138 C137 1.334 . S
N138 C139 1.334 . S
C139 N138 1.334 . S
C139 N140 1.336 . S
N140 Zn136 2.020 1_545 S
N140 C139 1.336 . S
N140 N141 1.354 . S
N141 C137 1.336 . S
N141 N140 1.354 . S
N141 Zn145 2.020 . S
C142 O143 1.244 . S
C142 O166 1.257 . S
O143 C142 1.244 . S
O144 Zn136 2.019 . S
O144 C164 1.257 . S
Zn145 N141 2.020 . S
Zn145 O152 1.975 . S
Zn145 N161 2.119 . S
Zn145 O166 2.019 . S
N146 Zn136 2.119 . S
N146 C148 1.334 . S
N146 C149 1.328 . S
C147 C148 1.391 . S
C147 N150 1.329 . S
C147 H168 0.930 . S
C148 N146 1.334 . S
C148 C147 1.391 . S
C148 H155 0.930 . S
C149 N146 1.328 . S
C149 C151 1.392 . S
C149 H156 0.930 . S
N150 C147 1.329 . S
N150 C151 1.331 . S
C151 C149 1.392 . S
C151 N150 1.331 . S
O152 Zn145 1.975 . S
O152 C153 1.252 1_545 S
C153 O152 1.252 1_565 S
C153 O154 1.252 . S
O154 Zn136 1.975 . S
O154 C153 1.252 . S
H155 C148 0.930 . S
H156 C149 0.930 . S
C157 C158 1.392 . S
C157 N161 1.328 . S
C157 H163 0.930 . S
C158 C157 1.392 . S
C158 N162 1.331 . S
C159 C160 1.391 . S
C159 N162 1.329 . S
C159 H169 0.930 . S
C160 C159 1.391 . S
C160 N161 1.334 . S
C160 H167 0.930 . S
N161 Zn145 2.119 . S
N161 C157 1.328 . S
N161 C160 1.334 . S
N162 C158 1.331 . S
N162 C159 1.329 . S
H163 C157 0.930 . S
C164 O144 1.257 . S
C164 O165 1.244 1_565 S
O165 C164 1.244 1_545 S
O166 C142 1.257 . S
O166 Zn145 2.019 . S
H167 C160 0.930 . S
H168 C147 0.930 . S
H169 C159 0.930 . S
Zn170 N174 2.020 . S
Zn170 O178 2.019 . S
Zn170 N180 2.119 . S
Zn170 O188 1.975 . S
C171 N172 1.334 . S
C171 N175 1.336 . S
N172 C171 1.334 . S
N172 C173 1.334 . S
C173 N172 1.334 . S
C173 N174 1.336 . S
N174 Zn170 2.020 . S
N174 C173 1.336 . S
N174 N175 1.354 . S
N175 C171 1.336 . S
N175 N174 1.354 . S
N175 Zn179 2.020 . S
C176 O177 1.244 . S
C176 O200 1.257 . S
O177 C176 1.244 . S
O178 Zn170 2.019 . S
O178 C198 1.257 . S
Zn179 N175 2.020 . S
Zn179 O186 1.975 . S
Zn179 N195 2.119 . S
Zn179 O200 2.019 . S
N180 Zn170 2.119 . S
N180 C182 1.334 . S
N180 C183 1.328 . S
C181 C182 1.391 . S
C181 N184 1.329 . S
C181 H202 0.930 . S
C182 N180 1.334 . S
C182 C181 1.391 . S
C182 H189 0.930 . S
C183 N180 1.328 . S
C183 C185 1.392 . S
C183 H190 0.930 . S
N184 C181 1.329 . S
N184 C185 1.331 . S
C185 C183 1.392 . S
C185 N184 1.331 . S
O186 Zn179 1.975 . S
O186 C187 1.252 . S
C187 O186 1.252 . S
C187 O188 1.252 . S
O188 Zn170 1.975 . S
O188 C187 1.252 . S
H189 C182 0.930 . S
H190 C183 0.930 . S
C191 C192 1.392 . S
C191 N195 1.328 . S
C191 H197 0.930 . S
C192 C191 1.392 . S
C192 N196 1.331 . S
C193 C194 1.391 . S
C193 N196 1.329 . S
C193 H203 0.930 . S
C194 C193 1.391 . S
C194 N195 1.334 . S
C194 H201 0.930 . S
N195 Zn179 2.119 . S
N195 C191 1.328 . S
N195 C194 1.334 . S
N196 C192 1.331 . S
N196 C193 1.329 . S
H197 C191 0.930 . S
C198 O178 1.257 . S
C198 O199 1.244 . S
O199 C198 1.244 . S
O200 C176 1.257 . S
O200 Zn179 2.019 . S
H201 C194 0.930 . S
H202 C181 0.930 . S
H203 C193 0.930 . S
Zn204 N208 2.020 . S
Zn204 O212 2.019 . S
Zn204 N214 2.119 . S
Zn204 O222 1.975 . S
C205 N206 1.334 . S
C205 N209 1.336 . S
N206 C205 1.334 . S
N206 C207 1.334 . S
C207 N206 1.334 . S
C207 N208 1.336 1_565 S
N208 Zn204 2.020 . S
N208 C207 1.336 1_545 S
N208 N209 1.354 1_545 S
N209 C205 1.336 . S
N209 N208 1.354 1_565 S
N209 Zn213 2.020 . S
C210 O211 1.241 1_565 S
C210 O234 1.257 . S
O211 C210 1.241 1_545 S
O212 Zn204 2.019 . S
O212 C232 1.257 . S
Zn213 N209 2.020 . S
Zn213 O220 1.975 1_565 S
Zn213 N229 2.119 . S
Zn213 O234 2.019 . S
N214 Zn204 2.119 . S
N214 C216 1.334 . S
N214 C217 1.328 . S
C215 C216 1.391 . S
C215 N218 1.329 . S
C215 H236 0.930 . S
C216 N214 1.334 . S
C216 C215 1.391 . S
C216 H223 0.930 . S
C217 N214 1.328 . S
C217 C219 1.392 . S
C217 H224 0.930 . S
N218 C215 1.329 . S
N218 C219 1.331 . S
C219 C217 1.392 . S
C219 N218 1.331 . S
O220 Zn213 1.975 1_545 S
O220 C221 1.252 . S
C221 O220 1.252 . S
C221 O222 1.252 . S
O222 Zn204 1.975 . S
O222 C221 1.252 . S
H223 C216 0.930 . S
H224 C217 0.930 . S
C225 C226 1.392 . S
C225 N229 1.328 . S
C225 H231 0.930 . S
C226 C225 1.392 . S
C226 N230 1.331 . S
C227 C228 1.391 . S
C227 N230 1.329 . S
C227 H237 0.930 . S
C228 C227 1.391 . S
C228 N229 1.334 . S
C228 H235 0.930 . S
N229 Zn213 2.119 . S
N229 C225 1.328 . S
N229 C228 1.334 . S
N230 C226 1.331 . S
N230 C227 1.329 . S
H231 C225 0.930 . S
C232 O212 1.257 . S
C232 O233 1.244 . S
O233 C232 1.244 . S
O234 C210 1.257 . S
O234 Zn213 2.019 . S
H235 C228 0.930 . S
H236 C215 0.930 . S
H237 C227 0.930 . S
Zn238 N242 2.020 . S
Zn238 O246 2.019 . S
Zn238 N248 2.119 . S
Zn238 O256 1.975 . S
C239 N240 1.334 . S
C239 N243 1.336 . S
N240 C239 1.334 . S
N240 C241 1.334 . S
C241 N240 1.334 . S
C241 N242 1.336 . S
N242 Zn238 2.020 . S
N242 C241 1.336 . S
N242 N243 1.354 . S
N243 C239 1.336 . S
N243 N242 1.354 . S
N243 Zn247 2.020 . S
C244 O245 1.244 . S
C244 O268 1.257 . S
O245 C244 1.244 . S
O246 Zn238 2.019 . S
O246 C266 1.257 . S
Zn247 N243 2.020 . S
Zn247 O254 1.975 . S
Zn247 N263 2.119 . S
Zn247 O268 2.019 . S
N248 Zn238 2.119 . S
N248 C250 1.334 . S
N248 C251 1.328 . S
C249 C250 1.391 . S
C249 N252 1.329 . S
C249 H270 0.930 . S
C250 N248 1.334 . S
C250 C249 1.391 . S
C250 H257 0.930 . S
C251 N248 1.328 . S
C251 C253 1.392 . S
C251 H258 0.930 . S
N252 C249 1.329 . S
N252 C253 1.331 . S
C253 C251 1.392 . S
C253 N252 1.331 . S
O254 Zn247 1.975 . S
O254 C255 1.252 . S
C255 O254 1.252 . S
C255 O256 1.252 . S
O256 Zn238 1.975 . S
O256 C255 1.252 . S
H257 C250 0.930 . S
H258 C251 0.930 . S
C259 C260 1.392 . S
C259 N263 1.328 . S
C259 H265 0.930 . S
C260 C259 1.392 . S
C260 N264 1.331 . S
C261 C262 1.391 . S
C261 N264 1.329 . S
C261 H271 0.930 . S
C262 C261 1.391 . S
C262 N263 1.334 . S
C262 H269 0.930 . S
N263 Zn247 2.119 . S
N263 C259 1.328 . S
N263 C262 1.334 . S
N264 C260 1.331 . S
N264 C261 1.329 . S
H265 C259 0.930 . S
C266 O246 1.257 . S
C266 O267 1.244 . S
O267 C266 1.244 . S
O268 C244 1.257 . S
O268 Zn247 2.019 . S
H269 C262 0.930 . S
H270 C249 0.930 . S
H271 C261 0.930 . S
H272 C290 0.951 . S
H273 C292 0.951 . S
H274 C294 0.950 . S
H275 C295 0.950 . S
H276 C297 0.950 . S
H277 C300 0.950 . S
H278 C301 0.950 . S
H279 C303 0.950 . S
H280 C304 0.950 . S
H281 C305 0.951 . S
H282 C307 0.951 . S
H283 C309 0.950 . S
H284 C310 0.950 . S
H285 C312 0.950 . S
H286 C315 0.950 . S
H287 C316 0.950 . S
H288 C318 0.950 . S
H289 C319 0.950 . S
C290 H272 0.951 . S
C290 C291 1.366 . S
C290 C292 1.388 . S
C291 C290 1.366 . S
C291 C295 1.385 . S
C292 H273 0.951 . S
C292 C290 1.388 . S
C292 C293 1.366 . S
C293 C292 1.366 . S
C293 C294 1.414 . S
C293 C296 1.499 . S
C294 H274 0.950 . S
C294 C293 1.414 . S
C294 C295 1.374 . S
C295 H275 0.950 . S
C295 C291 1.385 . S
C295 C294 1.374 . S
C296 C293 1.499 . S
C296 C297 1.373 . S
C296 C298 1.389 . S
C297 H276 0.950 . S
C297 C296 1.373 . S
C297 C313 1.377 . S
C298 C296 1.389 . S
C298 C299 1.524 . S
C298 C312 1.377 . S
C299 C298 1.524 . S
C299 C300 1.397 . S
C299 C304 1.363 . S
C300 H277 0.950 . S
C300 C299 1.397 . S
C300 C301 1.334 . S
C301 H278 0.950 . S
C301 C300 1.334 . S
C301 C302 1.287 . S
C302 C301 1.287 . S
C302 C303 1.524 . S
C302 H321 0.913 . S
C303 H279 0.950 . S
C303 C302 1.524 . S
C303 C304 1.415 . S
C304 H280 0.950 . S
C304 C299 1.363 . S
C304 C303 1.415 . S
C305 H281 0.951 . S
C305 C306 1.366 . S
C305 C307 1.388 . S
C306 C305 1.366 . S
C306 C310 1.385 . S
C307 H282 0.951 . S
C307 C305 1.388 . S
C307 C308 1.366 . S
C308 C307 1.366 . S
C308 C309 1.414 . S
C308 C311 1.499 . S
C309 H283 0.950 . S
C309 C308 1.414 . S
C309 C310 1.374 . S
C310 H284 0.950 . S
C310 C306 1.385 . S
C310 C309 1.374 . S
C311 C308 1.499 . S
C311 C312 1.373 . S
C311 C313 1.389 . S
C312 H285 0.950 . S
C312 C298 1.377 . S
C312 C311 1.373 . S
C313 C297 1.377 . S
C313 C311 1.389 . S
C313 C314 1.524 . S
C314 C313 1.524 . S
C314 C315 1.397 . S
C314 C319 1.363 . S
C315 H286 0.950 . S
C315 C314 1.397 . S
C315 C316 1.334 . S
C316 H287 0.950 . S
C316 C315 1.334 . S
C316 C317 1.287 . S
C317 C316 1.287 . S
C317 C318 1.524 . S
C317 H320 0.999 . S
C318 H288 0.950 . S
C318 C317 1.524 . S
C318 C319 1.415 . S
C319 H289 0.950 . S
C319 C314 1.363 . S
C319 C318 1.415 . S
H320 C317 0.999 . S
H321 C302 0.913 . S
H322 C340 0.951 . S
H323 C342 0.951 . S
H324 C344 0.950 1_565 S
H325 C345 0.950 . S
H326 C347 0.950 . S
H327 C350 0.950 . S
H328 C351 0.950 . S
H329 C353 0.950 . S
H330 C354 0.950 . S
H331 C355 0.951 . S
H332 C357 0.951 . S
H333 C359 0.950 . S
H334 C360 0.950 . S
H335 C362 0.950 . S
H336 C365 0.950 . S
H337 C366 0.950 . S
H338 C368 0.950 . S
H339 C369 0.950 . S
C340 H322 0.951 . S
C340 C341 1.366 . S
C340 C342 1.388 . S
C341 C340 1.366 . S
C341 C345 1.385 . S
C342 H323 0.951 . S
C342 C340 1.388 . S
C342 C343 1.366 . S
C343 C342 1.366 . S
C343 C344 1.414 . S
C343 C346 1.499 1_545 S
C344 H324 0.950 1_545 S
C344 C343 1.414 . S
C344 C345 1.374 . S
C345 H325 0.950 . S
C345 C341 1.385 . S
C345 C344 1.374 . S
C346 C343 1.499 1_565 S
C346 C347 1.373 . S
C346 C348 1.389 . S
C347 H326 0.950 . S
C347 C346 1.373 . S
C347 C363 1.377 . S
C348 C346 1.389 . S
C348 C349 1.524 . S
C348 C362 1.377 . S
C349 C348 1.524 . S
C349 C350 1.397 . S
C349 C354 1.363 . S
C350 H327 0.950 . S
C350 C349 1.397 . S
C350 C351 1.334 . S
C351 H328 0.950 . S
C351 C350 1.334 . S
C351 C352 1.287 1_565 S
C352 C351 1.287 1_545 S
C352 C353 1.524 . S
C352 H371 0.913 . S
C353 H329 0.950 . S
C353 C352 1.524 . S
C353 C354 1.415 1_545 S
C354 H330 0.950 . S
C354 C349 1.363 . S
C354 C353 1.415 1_565 S
C355 H331 0.951 . S
C355 C356 1.366 . S
C355 C357 1.388 . S
C356 C355 1.366 . S
C356 C360 1.385 . S
C357 H332 0.951 . S
C357 C355 1.388 . S
C357 C358 1.366 . S
C358 C357 1.366 . S
C358 C359 1.414 . S
C358 C361 1.499 . S
C359 H333 0.950 . S
C359 C358 1.414 . S
C359 C360 1.374 . S
C360 H334 0.950 . S
C360 C356 1.385 . S
C360 C359 1.374 . S
C361 C358 1.499 . S
C361 C362 1.373 . S
C361 C363 1.389 . S
C362 H335 0.950 . S
C362 C348 1.377 . S
C362 C361 1.373 . S
C363 C347 1.377 . S
C363 C361 1.389 . S
C363 C364 1.524 . S
C364 C363 1.524 . S
C364 C365 1.397 . S
C364 C369 1.363 . S
C365 H336 0.950 . S
C365 C364 1.397 . S
C365 C366 1.334 . S
C366 H337 0.950 . S
C366 C365 1.334 . S
C366 C367 1.287 . S
C367 C366 1.287 . S
C367 C368 1.524 . S
C367 H370 0.999 . S
C368 H338 0.950 . S
C368 C367 1.524 . S
C368 C369 1.415 . S
C369 H339 0.950 . S
C369 C364 1.363 . S
C369 C368 1.415 . S
H370 C367 0.999 . S
H371 C352 0.913 . S
H372 C390 0.951 . S
H373 C392 0.951 . S
H374 C394 0.950 . S
H375 C395 0.950 . S
H376 C397 0.950 . S
H377 C400 0.950 . S
H378 C401 0.950 . S
H379 C403 0.950 . S
H380 C404 0.950 . S
H381 C405 0.951 . S
H382 C407 0.951 . S
H383 C409 0.950 . S
H384 C410 0.950 . S
H385 C412 0.950 . S
H386 C415 0.950 . S
H387 C416 0.950 . S
H388 C418 0.950 . S
H389 C419 0.950 . S
C390 H372 0.951 . S
C390 C391 1.366 . S
C390 C392 1.388 . S
C391 C390 1.366 . S
C391 C395 1.385 . S
C392 H373 0.951 . S
C392 C390 1.388 . S
C392 C393 1.366 . S
C393 C392 1.366 . S
C393 C394 1.414 . S
C393 C396 1.499 . S
C394 H374 0.950 . S
C394 C393 1.414 . S
C394 C395 1.374 . S
C395 H375 0.950 . S
C395 C391 1.385 . S
C395 C394 1.374 . S
C396 C393 1.499 . S
C396 C397 1.373 . S
C396 C398 1.389 . S
C397 H376 0.950 . S
C397 C396 1.373 . S
C397 C413 1.377 . S
C398 C396 1.389 . S
C398 C399 1.524 . S
C398 C412 1.377 . S
C399 C398 1.524 . S
C399 C400 1.397 . S
C399 C404 1.363 . S
C400 H377 0.950 . S
C400 C399 1.397 . S
C400 C401 1.334 . S
C401 H378 0.950 . S
C401 C400 1.334 . S
C401 C402 1.287 . S
C402 C401 1.287 . S
C402 C403 1.524 . S
C402 H421 0.913 . S
C403 H379 0.950 . S
C403 C402 1.524 . S
C403 C404 1.415 . S
C404 H380 0.950 . S
C404 C399 1.363 . S
C404 C403 1.415 . S
C405 H381 0.951 . S
C405 C406 1.366 . S
C405 C407 1.388 . S
C406 C405 1.366 . S
C406 C410 1.385 . S
C407 H382 0.951 . S
C407 C405 1.388 . S
C407 C408 1.366 . S
C408 C407 1.366 . S
C408 C409 1.414 . S
C408 C411 1.499 . S
C409 H383 0.950 . S
C409 C408 1.414 . S
C409 C410 1.374 . S
C410 H384 0.950 . S
C410 C406 1.385 . S
C410 C409 1.374 . S
C411 C408 1.499 . S
C411 C412 1.373 . S
C411 C413 1.389 . S
C412 H385 0.950 . S
C412 C398 1.377 . S
C412 C411 1.373 . S
C413 C397 1.377 . S
C413 C411 1.389 . S
C413 C414 1.524 . S
C414 C413 1.524 . S
C414 C415 1.397 . S
C414 C419 1.363 . S
C415 H386 0.950 . S
C415 C414 1.397 . S
C415 C416 1.334 . S
C416 H387 0.950 . S
C416 C415 1.334 . S
C416 C417 1.287 . S
C417 C416 1.287 . S
C417 C418 1.524 . S
C417 H420 0.999 . S
C418 H388 0.950 . S
C418 C417 1.524 . S
C418 C419 1.415 . S
C419 H389 0.950 . S
C419 C414 1.363 . S
C419 C418 1.415 . S
H420 C417 0.999 . S
H421 C402 0.913 . S
H422 C440 0.951 . S
H423 C442 0.951 . S
H424 C444 0.950 . S
H425 C445 0.950 . S
H426 C447 0.950 . S
H427 C450 0.950 . S
H428 C451 0.950 . S
H429 C453 0.950 . S
H430 C454 0.950 . S
H431 C455 0.951 . S
H432 C457 0.951 . S
H433 C459 0.950 . S
H434 C460 0.950 . S
H435 C462 0.950 . S
H436 C465 0.950 . S
H437 C466 0.950 . S
H438 C468 0.950 . S
H439 C469 0.950 . S
C440 H422 0.951 . S
C440 C441 1.366 . S
C440 C442 1.388 . S
C441 C440 1.366 . S
C441 C445 1.385 . S
C442 H423 0.951 . S
C442 C440 1.388 . S
C442 C443 1.366 . S
C443 C442 1.366 . S
C443 C444 1.414 . S
C443 C446 1.499 . S
C444 H424 0.950 . S
C444 C443 1.414 . S
C444 C445 1.374 . S
C445 H425 0.950 . S
C445 C441 1.385 . S
C445 C444 1.374 . S
C446 C443 1.499 . S
C446 C447 1.373 . S
C446 C448 1.389 . S
C447 H426 0.950 . S
C447 C446 1.373 . S
C447 C463 1.377 . S
C448 C446 1.389 . S
C448 C449 1.524 . S
C448 C462 1.377 . S
C449 C448 1.524 . S
C449 C450 1.397 . S
C449 C454 1.363 . S
C450 H427 0.950 . S
C450 C449 1.397 . S
C450 C451 1.334 . S
C451 H428 0.950 . S
C451 C450 1.334 . S
C451 C452 1.287 . S
C452 C451 1.287 . S
C452 C453 1.524 . S
C452 H471 0.913 . S
C453 H429 0.950 . S
C453 C452 1.524 . S
C453 C454 1.415 . S
C454 H430 0.950 . S
C454 C449 1.363 . S
C454 C453 1.415 . S
C455 H431 0.951 . S
C455 C456 1.366 . S
C455 C457 1.388 . S
C456 C455 1.366 . S
C456 C460 1.385 1_565 S
C457 H432 0.951 . S
C457 C455 1.388 . S
C457 C458 1.366 1_565 S
C458 C457 1.366 1_545 S
C458 C459 1.414 . S
C458 C461 1.499 . S
C459 H433 0.950 . S
C459 C458 1.414 . S
C459 C460 1.374 . S
C460 H434 0.950 . S
C460 C456 1.385 1_545 S
C460 C459 1.374 . S
C461 C458 1.499 . S
C461 C462 1.373 . S
C461 C463 1.389 . S
C462 H435 0.950 . S
C462 C448 1.377 . S
C462 C461 1.373 . S
C463 C447 1.377 . S
C463 C461 1.389 . S
C463 C464 1.524 . S
C464 C463 1.524 . S
C464 C465 1.397 . S
C464 C469 1.363 . S
C465 H436 0.950 . S
C465 C464 1.397 . S
C465 C466 1.334 1_545 S
C466 H437 0.950 . S
C466 C465 1.334 1_565 S
C466 C467 1.287 . S
C467 C466 1.287 . S
C467 C468 1.524 . S
C467 H470 0.999 . S
C468 H438 0.950 . S
C468 C467 1.524 . S
C468 C469 1.415 1_565 S
C469 H439 0.950 . S
C469 C464 1.363 . S
C469 C468 1.415 1_545 S
H470 C467 0.999 . S
H471 C452 0.913 . S
H472 C490 0.951 . S
H473 C492 0.951 . S
H474 C494 0.950 1_655 S
H475 C495 0.950 . S
H476 C497 0.950 . S
H477 C500 0.950 . S
H478 C501 0.950 . S
H479 C503 0.950 . S
H480 C504 0.950 . S
H481 C505 0.951 . S
H482 C507 0.951 . S
H483 C509 0.950 . S
H484 C510 0.950 . S
H485 C512 0.950 . S
H486 C515 0.950 . S
H487 C516 0.950 . S
H488 C518 0.950 . S
H489 C519 0.950 . S
C490 H472 0.951 . S
C490 C491 1.366 . S
C490 C492 1.388 . S
C491 C490 1.366 . S
C491 C495 1.385 . S
C492 H473 0.951 . S
C492 C490 1.388 . S
C492 C493 1.366 . S
C493 C492 1.366 . S
C493 C494 1.414 . S
C493 C496 1.499 1_455 S
C494 H474 0.950 1_455 S
C494 C493 1.414 . S
C494 C495 1.374 . S
C495 H475 0.950 . S
C495 C491 1.385 . S
C495 C494 1.374 . S
C496 C493 1.499 1_655 S
C496 C497 1.373 . S
C496 C498 1.389 . S
C497 H476 0.950 . S
C497 C496 1.373 . S
C497 C513 1.377 . S
C498 C496 1.389 . S
C498 C499 1.524 . S
C498 C512 1.377 . S
C499 C498 1.524 . S
C499 C500 1.397 . S
C499 C504 1.363 1_655 S
C500 H477 0.950 . S
C500 C499 1.397 . S
C500 C501 1.334 1_655 S
C501 H478 0.950 . S
C501 C500 1.334 1_455 S
C501 C502 1.287 . S
C502 C501 1.287 . S
C502 C503 1.524 . S
C502 H521 0.913 . S
C503 H479 0.950 . S
C503 C502 1.524 . S
C503 C504 1.415 . S
C504 H480 0.950 . S
C504 C499 1.363 1_455 S
C504 C503 1.415 . S
C505 H481 0.951 . S
C505 C506 1.366 . S
C505 C507 1.388 . S
C506 C505 1.366 . S
C506 C510 1.385 . S
C507 H482 0.951 . S
C507 C505 1.388 . S
C507 C508 1.366 . S
C508 C507 1.366 . S
C508 C509 1.414 . S
C508 C511 1.499 . S
C509 H483 0.950 . S
C509 C508 1.414 . S
C509 C510 1.374 . S
C510 H484 0.950 . S
C510 C506 1.385 . S
C510 C509 1.374 . S
C511 C508 1.499 . S
C511 C512 1.373 . S
C511 C513 1.389 . S
C512 H485 0.950 . S
C512 C498 1.377 . S
C512 C511 1.373 . S
C513 C497 1.377 . S
C513 C511 1.389 . S
C513 C514 1.524 . S
C514 C513 1.524 . S
C514 C515 1.397 . S
C514 C519 1.363 . S
C515 H486 0.950 . S
C515 C514 1.397 . S
C515 C516 1.334 . S
C516 H487 0.950 . S
C516 C515 1.334 . S
C516 C517 1.287 . S
C517 C516 1.287 . S
C517 C518 1.524 . S
C517 H520 0.999 . S
C518 H488 0.950 . S
C518 C517 1.524 . S
C518 C519 1.415 . S
C519 H489 0.950 . S
C519 C514 1.363 . S
C519 C518 1.415 . S
H520 C517 0.999 . S
H521 C502 0.913 . S
H522 C540 0.951 . S
H523 C542 0.951 . S
H524 C544 0.950 . S
H525 C545 0.950 . S
H526 C547 0.950 . S
H527 C550 0.950 . S
H528 C551 0.950 . S
H529 C553 0.950 . S
H530 C554 0.950 . S
H531 C555 0.951 . S
H532 C557 0.951 . S
H533 C559 0.950 . S
H534 C560 0.950 . S
H535 C562 0.950 . S
H536 C565 0.950 . S
H537 C566 0.950 . S
H538 C568 0.950 . S
H539 C569 0.950 . S
C540 H522 0.951 . S
C540 C541 1.366 . S
C540 C542 1.388 . S
C541 C540 1.366 . S
C541 C545 1.385 . S
C542 H523 0.951 . S
C542 C540 1.388 . S
C542 C543 1.366 . S
C543 C542 1.366 . S
C543 C544 1.414 . S
C543 C546 1.499 . S
C544 H524 0.950 . S
C544 C543 1.414 . S
C544 C545 1.374 . S
C545 H525 0.950 . S
C545 C541 1.385 . S
C545 C544 1.374 . S
C546 C543 1.499 . S
C546 C547 1.373 . S
C546 C548 1.389 . S
C547 H526 0.950 . S
C547 C546 1.373 . S
C547 C563 1.377 . S
C548 C546 1.389 . S
C548 C549 1.524 . S
C548 C562 1.377 . S
C549 C548 1.524 . S
C549 C550 1.397 . S
C549 C554 1.363 . S
C550 H527 0.950 . S
C550 C549 1.397 . S
C550 C551 1.334 . S
C551 H528 0.950 . S
C551 C550 1.334 . S
C551 C552 1.287 . S
C552 C551 1.287 . S
C552 C553 1.524 . S
C552 H571 0.913 . S
C553 H529 0.950 . S
C553 C552 1.524 . S
C553 C554 1.415 . S
C554 H530 0.950 . S
C554 C549 1.363 . S
C554 C553 1.415 . S
C555 H531 0.951 . S
C555 C556 1.366 . S
C555 C557 1.388 . S
C556 C555 1.366 . S
C556 C560 1.385 . S
C557 H532 0.951 . S
C557 C555 1.388 . S
C557 C558 1.366 . S
C558 C557 1.366 . S
C558 C559 1.414 . S
C558 C561 1.499 . S
C559 H533 0.950 . S
C559 C558 1.414 . S
C559 C560 1.374 . S
C560 H534 0.950 . S
C560 C556 1.385 . S
C560 C559 1.374 . S
C561 C558 1.499 . S
C561 C562 1.373 . S
C561 C563 1.389 . S
C562 H535 0.950 . S
C562 C548 1.377 . S
C562 C561 1.373 . S
C563 C547 1.377 . S
C563 C561 1.389 . S
C563 C564 1.524 . S
C564 C563 1.524 . S
C564 C565 1.397 . S
C564 C569 1.363 . S
C565 H536 0.950 . S
C565 C564 1.397 . S
C565 C566 1.334 . S
C566 H537 0.950 . S
C566 C565 1.334 . S
C566 C567 1.287 . S
C567 C566 1.287 . S
C567 C568 1.524 . S
C567 H570 0.999 . S
C568 H538 0.950 . S
C568 C567 1.524 . S
C568 C569 1.415 . S
C569 H539 0.950 . S
C569 C564 1.363 . S
C569 C568 1.415 . S
H570 C567 0.999 . S
H571 C552 0.913 . S
H572 C590 0.951 . S
H573 C592 0.951 . S
H574 C594 0.950 . S
H575 C595 0.950 . S
H576 C597 0.950 . S
H577 C600 0.950 . S
H578 C601 0.950 . S
H579 C603 0.950 . S
H580 C604 0.950 . S
H581 C605 0.951 . S
H582 C607 0.951 . S
H583 C609 0.950 1_655 S
H584 C610 0.950 . S
H585 C612 0.950 . S
H586 C615 0.950 . S
H587 C616 0.950 1_655 S
H588 C618 0.950 . S
H589 C619 0.950 . S
C590 H572 0.951 . S
C590 C591 1.366 . S
C590 C592 1.388 . S
C591 C590 1.366 . S
C591 C595 1.385 . S
C592 H573 0.951 . S
C592 C590 1.388 . S
C592 C593 1.366 . S
C593 C592 1.366 . S
C593 C594 1.414 . S
C593 C596 1.499 . S
C594 H574 0.950 . S
C594 C593 1.414 . S
C594 C595 1.374 . S
C595 H575 0.950 . S
C595 C591 1.385 . S
C595 C594 1.374 . S
C596 C593 1.499 . S
C596 C597 1.373 . S
C596 C598 1.389 . S
C597 H576 0.950 . S
C597 C596 1.373 . S
C597 C613 1.377 . S
C598 C596 1.389 . S
C598 C599 1.524 . S
C598 C612 1.377 . S
C599 C598 1.524 . S
C599 C600 1.397 . S
C599 C604 1.363 . S
C600 H577 0.950 . S
C600 C599 1.397 . S
C600 C601 1.334 . S
C601 H578 0.950 . S
C601 C600 1.334 . S
C601 C602 1.287 . S
C602 C601 1.287 . S
C602 C603 1.524 . S
C602 H621 0.913 . S
C603 H579 0.950 . S
C603 C602 1.524 . S
C603 C604 1.415 . S
C604 H580 0.950 . S
C604 C599 1.363 . S
C604 C603 1.415 . S
C605 H581 0.951 . S
C605 C606 1.366 1_455 S
C605 C607 1.388 . S
C606 C605 1.366 1_655 S
C606 C610 1.385 . S
C607 H582 0.951 . S
C607 C605 1.388 . S
C607 C608 1.366 . S
C608 C607 1.366 . S
C608 C609 1.414 . S
C608 C611 1.499 . S
C609 H583 0.950 1_455 S
C609 C608 1.414 . S
C609 C610 1.373 1_455 S
C610 H584 0.950 . S
C610 C606 1.385 . S
C610 C609 1.373 1_655 S
C611 C608 1.499 . S
C611 C612 1.373 . S
C611 C613 1.389 . S
C612 H585 0.950 . S
C612 C598 1.377 . S
C612 C611 1.373 . S
C613 C597 1.377 . S
C613 C611 1.389 . S
C613 C614 1.524 . S
C614 C613 1.524 . S
C614 C615 1.397 . S
C614 C619 1.363 . S
C615 H586 0.950 . S
C615 C614 1.397 . S
C615 C616 1.334 . S
C616 H587 0.950 1_455 S
C616 C615 1.334 . S
C616 C617 1.287 . S
C617 C616 1.287 . S
C617 C618 1.524 . S
C617 H620 0.999 . S
C618 H588 0.950 . S
C618 C617 1.524 . S
C618 C619 1.415 . S
C619 H589 0.950 . S
C619 C614 1.363 . S
C619 C618 1.415 . S
H620 C617 0.999 . S
H621 C602 0.913 . S
H622 C640 0.951 . S
H623 C642 0.951 . S
H624 C644 0.950 . S
H625 C645 0.950 . S
H626 C647 0.950 . S
H627 C650 0.950 . S
H628 C651 0.950 . S
H629 C653 0.950 . S
H630 C654 0.950 . S
H631 C655 0.951 . S
H632 C657 0.951 . S
H633 C659 0.950 . S
H634 C660 0.950 . S
H635 C662 0.950 . S
H636 C665 0.950 . S
H637 C666 0.950 . S
H638 C668 0.950 . S
H639 C669 0.950 . S
C640 H622 0.951 . S
C640 C641 1.366 . S
C640 C642 1.388 . S
C641 C640 1.366 . S
C641 C645 1.385 . S
C642 H623 0.951 . S
C642 C640 1.388 . S
C642 C643 1.366 . S
C643 C642 1.366 . S
C643 C644 1.414 . S
C643 C646 1.499 . S
C644 H624 0.950 . S
C644 C643 1.414 . S
C644 C645 1.374 . S
C645 H625 0.950 . S
C645 C641 1.385 . S
C645 C644 1.374 . S
C646 C643 1.499 . S
C646 C647 1.373 . S
C646 C648 1.389 . S
C647 H626 0.950 . S
C647 C646 1.373 . S
C647 C663 1.377 . S
C648 C646 1.389 . S
C648 C649 1.524 . S
C648 C662 1.377 . S
C649 C648 1.524 . S
C649 C650 1.397 . S
C649 C654 1.363 . S
C650 H627 0.950 . S
C650 C649 1.397 . S
C650 C651 1.334 . S
C651 H628 0.950 . S
C651 C650 1.334 . S
C651 C652 1.287 . S
C652 C651 1.287 . S
C652 C653 1.524 . S
C652 H671 0.913 . S
C653 H629 0.950 . S
C653 C652 1.524 . S
C653 C654 1.415 . S
C654 H630 0.950 . S
C654 C649 1.363 . S
C654 C653 1.415 . S
C655 H631 0.951 . S
C655 C656 1.366 . S
C655 C657 1.388 . S
C656 C655 1.366 . S
C656 C660 1.385 . S
C657 H632 0.951 . S
C657 C655 1.388 . S
C657 C658 1.366 . S
C658 C657 1.366 . S
C658 C659 1.414 . S
C658 C661 1.499 . S
C659 H633 0.950 . S
C659 C658 1.414 . S
C659 C660 1.374 . S
C660 H634 0.950 . S
C660 C656 1.385 . S
C660 C659 1.374 . S
C661 C658 1.499 . S
C661 C662 1.373 . S
C661 C663 1.389 . S
C662 H635 0.950 . S
C662 C648 1.377 . S
C662 C661 1.373 . S
C663 C647 1.377 . S
C663 C661 1.389 . S
C663 C664 1.524 . S
C664 C663 1.524 . S
C664 C665 1.397 . S
C664 C669 1.363 . S
C665 H636 0.950 . S
C665 C664 1.397 . S
C665 C666 1.334 . S
C666 H637 0.950 . S
C666 C665 1.334 . S
C666 C667 1.287 . S
C667 C666 1.287 . S
C667 C668 1.524 . S
C667 H670 0.999 . S
C668 H638 0.950 . S
C668 C667 1.524 . S
C668 C669 1.415 . S
C669 H639 0.950 . S
C669 C664 1.363 . S
C669 C668 1.415 . S
H670 C667 0.999 . S
H671 C652 0.913 . S
H672 C690 0.951 . S
H673 C692 0.951 . S
H674 C694 0.950 . S
H675 C695 0.950 . S
H676 C697 0.950 . S
H677 C700 0.950 . S
H678 C701 0.950 . S
H679 C703 0.950 . S
H680 C704 0.950 . S
H681 C705 0.951 . S
H682 C707 0.951 . S
H683 C709 0.950 . S
H684 C710 0.950 . S
H685 C712 0.950 . S
H686 C715 0.950 . S
H687 C716 0.950 . S
H688 C718 0.950 . S
H689 C719 0.950 . S
C690 H672 0.951 . S
C690 C691 1.366 . S
C690 C692 1.388 . S
C691 C690 1.366 . S
C691 C695 1.385 . S
C692 H673 0.951 . S
C692 C690 1.388 . S
C692 C693 1.366 . S
C693 C692 1.366 . S
C693 C694 1.414 . S
C693 C696 1.499 . S
C694 H674 0.950 . S
C694 C693 1.414 . S
C694 C695 1.374 . S
C695 H675 0.950 . S
C695 C691 1.385 . S
C695 C694 1.374 . S
C696 C693 1.499 . S
C696 C697 1.373 . S
C696 C698 1.389 . S
C697 H676 0.950 . S
C697 C696 1.373 . S
C697 C713 1.377 . S
C698 C696 1.389 . S
C698 C699 1.524 . S
C698 C712 1.377 . S
C699 C698 1.524 . S
C699 C700 1.397 . S
C699 C704 1.363 . S
C700 H677 0.950 . S
C700 C699 1.397 . S
C700 C701 1.334 . S
C701 H678 0.950 . S
C701 C700 1.334 . S
C701 C702 1.287 . S
C702 C701 1.287 . S
C702 C703 1.524 . S
C702 H721 0.913 . S
C703 H679 0.950 . S
C703 C702 1.524 . S
C703 C704 1.415 . S
C704 H680 0.950 . S
C704 C699 1.363 . S
C704 C703 1.415 . S
C705 H681 0.951 . S
C705 C706 1.366 . S
C705 C707 1.388 . S
C706 C705 1.366 . S
C706 C710 1.385 . S
C707 H682 0.951 . S
C707 C705 1.388 . S
C707 C708 1.366 . S
C708 C707 1.366 . S
C708 C709 1.414 . S
C708 C711 1.499 . S
C709 H683 0.950 . S
C709 C708 1.414 . S
C709 C710 1.374 . S
C710 H684 0.950 . S
C710 C706 1.385 . S
C710 C709 1.374 . S
C711 C708 1.499 . S
C711 C712 1.373 . S
C711 C713 1.389 . S
C712 H685 0.950 . S
C712 C698 1.377 . S
C712 C711 1.373 . S
C713 C697 1.377 . S
C713 C711 1.389 . S
C713 C714 1.524 . S
C714 C713 1.524 . S
C714 C715 1.397 . S
C714 C719 1.363 . S
C715 H686 0.950 . S
C715 C714 1.397 . S
C715 C716 1.334 . S
C716 H687 0.950 . S
C716 C715 1.334 . S
C716 C717 1.287 . S
C717 C716 1.287 . S
C717 C718 1.524 . S
C717 H720 0.999 . S
C718 H688 0.950 . S
C718 C717 1.524 . S
C718 C719 1.415 . S
C719 H689 0.950 . S
C719 C714 1.363 . S
C719 C718 1.415 . S
H720 C717 0.999 . S
H721 C702 0.913 . S
H722 C740 0.951 . S
H723 C742 0.951 . S
H724 C744 0.950 . S
H725 C745 0.950 . S
H726 C747 0.950 . S
H727 C750 0.950 . S
H728 C751 0.950 . S
H729 C753 0.950 . S
H730 C754 0.950 . S
H731 C755 0.951 . S
H732 C757 0.951 . S
H733 C759 0.950 . S
H734 C760 0.950 . S
H735 C762 0.950 . S
H736 C765 0.950 . S
H737 C766 0.950 1_455 S
H738 C768 0.950 . S
H739 C769 0.950 . S
C740 H722 0.951 . S
C740 C741 1.366 . S
C740 C742 1.388 . S
C741 C740 1.366 . S
C741 C745 1.385 . S
C742 H723 0.951 . S
C742 C740 1.388 . S
C742 C743 1.366 . S
C743 C742 1.366 . S
C743 C744 1.414 . S
C743 C746 1.499 . S
C744 H724 0.950 . S
C744 C743 1.414 . S
C744 C745 1.374 . S
C745 H725 0.950 . S
C745 C741 1.385 . S
C745 C744 1.374 . S
C746 C743 1.499 . S
C746 C747 1.373 . S
C746 C748 1.389 . S
C747 H726 0.950 . S
C747 C746 1.373 . S
C747 C763 1.377 . S
C748 C746 1.389 . S
C748 C749 1.524 . S
C748 C762 1.377 . S
C749 C748 1.524 . S
C749 C750 1.397 . S
C749 C754 1.363 . S
C750 H727 0.950 . S
C750 C749 1.397 . S
C750 C751 1.334 . S
C751 H728 0.950 . S
C751 C750 1.334 . S
C751 C752 1.287 . S
C752 C751 1.287 . S
C752 C753 1.524 . S
C752 H771 0.913 . S
C753 H729 0.950 . S
C753 C752 1.524 . S
C753 C754 1.415 . S
C754 H730 0.950 . S
C754 C749 1.363 . S
C754 C753 1.415 . S
C755 H731 0.951 . S
C755 C756 1.366 . S
C755 C757 1.388 . S
C756 C755 1.366 . S
C756 C760 1.385 . S
C757 H732 0.951 . S
C757 C755 1.388 . S
C757 C758 1.366 . S
C758 C757 1.366 . S
C758 C759 1.414 . S
C758 C761 1.499 . S
C759 H733 0.950 . S
C759 C758 1.414 . S
C759 C760 1.374 . S
C760 H734 0.950 . S
C760 C756 1.385 . S
C760 C759 1.374 . S
C761 C758 1.499 . S
C761 C762 1.373 . S
C761 C763 1.389 . S
C762 H735 0.950 . S
C762 C748 1.377 . S
C762 C761 1.373 . S
C763 C747 1.377 . S
C763 C761 1.389 . S
C763 C764 1.524 . S
C764 C763 1.524 . S
C764 C765 1.397 . S
C764 C769 1.363 . S
C765 H736 0.950 . S
C765 C764 1.397 . S
C765 C766 1.334 . S
C766 H737 0.950 1_655 S
C766 C765 1.334 . S
C766 C767 1.287 . S
C767 C766 1.287 . S
C767 C768 1.524 . S
C767 H770 0.999 . S
C768 H738 0.950 . S
C768 C767 1.524 . S
C768 C769 1.415 . S
C769 H739 0.950 . S
C769 C764 1.363 . S
C769 C768 1.415 . S
H770 C767 0.999 . S
H771 C752 0.913 . S
H772 C790 0.951 . S
H773 C792 0.951 . S
H774 C794 0.950 . S
H775 C795 0.950 . S
H776 C797 0.950 . S
H777 C800 0.950 . S
H778 C801 0.950 . S
H779 C803 0.950 1_455 S
H780 C804 0.950 . S
H781 C805 0.951 . S
H782 C807 0.951 . S
H783 C809 0.950 1_455 S
H784 C810 0.950 1_455 S
H785 C812 0.950 . S
H786 C815 0.950 . S
H787 C816 0.950 . S
H788 C818 0.950 . S
H789 C819 0.950 . S
C790 H772 0.951 . S
C790 C791 1.366 . S
C790 C792 1.388 . S
C791 C790 1.366 . S
C791 C795 1.385 . S
C792 H773 0.951 . S
C792 C790 1.388 . S
C792 C793 1.366 . S
C793 C792 1.366 . S
C793 C794 1.414 . S
C793 C796 1.499 1_556 S
C794 H774 0.950 . S
C794 C793 1.414 . S
C794 C795 1.374 . S
C795 H775 0.950 . S
C795 C791 1.385 . S
C795 C794 1.374 . S
C796 C793 1.499 1_554 S
C796 C797 1.373 . S
C796 C798 1.389 . S
C797 H776 0.950 . S
C797 C796 1.373 . S
C797 C813 1.377 . S
C798 C796 1.389 . S
C798 C799 1.524 1_554 S
C798 C812 1.377 . S
C799 C798 1.524 1_556 S
C799 C800 1.397 . S
C799 C804 1.363 . S
C800 H777 0.950 . S
C800 C799 1.397 . S
C800 C801 1.334 . S
C801 H778 0.950 . S
C801 C800 1.334 . S
C801 C802 1.287 . S
C802 C801 1.287 . S
C802 C803 1.524 . S
C802 H821 0.913 . S
C803 H779 0.950 1_655 S
C803 C802 1.524 . S
C803 C804 1.415 . S
C804 H780 0.950 . S
C804 C799 1.363 . S
C804 C803 1.415 . S
C805 H781 0.951 . S
C805 C806 1.366 . S
C805 C807 1.388 . S
C806 C805 1.366 . S
C806 C810 1.385 . S
C807 H782 0.951 . S
C807 C805 1.388 . S
C807 C808 1.366 . S
C808 C807 1.366 . S
C808 C809 1.414 . S
C808 C811 1.499 . S
C809 H783 0.950 1_655 S
C809 C808 1.414 . S
C809 C810 1.374 . S
C810 H784 0.950 1_655 S
C810 C806 1.385 . S
C810 C809 1.374 . S
C811 C808 1.499 . S
C811 C812 1.373 . S
C811 C813 1.389 . S
C812 H785 0.950 . S
C812 C798 1.377 . S
C812 C811 1.373 . S
C813 C797 1.377 . S
C813 C811 1.389 . S
C813 C814 1.524 . S
C814 C813 1.524 . S
C814 C815 1.397 . S
C814 C819 1.363 . S
C815 H786 0.950 . S
C815 C814 1.397 . S
C815 C816 1.334 . S
C816 H787 0.950 . S
C816 C815 1.334 . S
C816 C817 1.287 . S
C817 C816 1.287 . S
C817 C818 1.524 . S
C817 H820 0.999 . S
C818 H788 0.950 . S
C818 C817 1.524 . S
C818 C819 1.415 . S
C819 H789 0.950 . S
C819 C814 1.363 . S
C819 C818 1.415 . S
H820 C817 0.999 . S
H821 C802 0.913 . S
H822 C840 0.951 . S
H823 C842 0.951 . S
H824 C844 0.950 . S
H825 C845 0.950 . S
H826 C847 0.950 . S
H827 C850 0.950 . S
H828 C851 0.950 . S
H829 C853 0.950 . S
H830 C854 0.950 . S
H831 C855 0.951 . S
H832 C857 0.951 . S
H833 C859 0.950 . S
H834 C860 0.950 . S
H835 C862 0.950 . S
H836 C865 0.950 . S
H837 C866 0.950 . S
H838 C868 0.950 . S
H839 C869 0.950 . S
C840 H822 0.951 . S
C840 C841 1.366 . S
C840 C842 1.388 . S
C841 C840 1.366 . S
C841 C845 1.385 . S
C842 H823 0.951 . S
C842 C840 1.388 . S
C842 C843 1.366 . S
C843 C842 1.366 . S
C843 C844 1.414 . S
C843 C846 1.499 . S
C844 H824 0.950 . S
C844 C843 1.414 . S
C844 C845 1.374 . S
C845 H825 0.950 . S
C845 C841 1.385 . S
C845 C844 1.374 . S
C846 C843 1.499 . S
C846 C847 1.373 . S
C846 C848 1.389 . S
C847 H826 0.950 . S
C847 C846 1.373 . S
C847 C863 1.377 . S
C848 C846 1.389 . S
C848 C849 1.524 . S
C848 C862 1.377 . S
C849 C848 1.524 . S
C849 C850 1.397 . S
C849 C854 1.363 . S
C850 H827 0.950 . S
C850 C849 1.397 . S
C850 C851 1.334 . S
C851 H828 0.950 . S
C851 C850 1.334 . S
C851 C852 1.287 . S
C852 C851 1.287 . S
C852 C853 1.524 . S
C852 H871 0.913 . S
C853 H829 0.950 . S
C853 C852 1.524 . S
C853 C854 1.415 . S
C854 H830 0.950 . S
C854 C849 1.363 . S
C854 C853 1.415 . S
C855 H831 0.951 . S
C855 C856 1.366 . S
C855 C857 1.388 . S
C856 C855 1.366 . S
C856 C860 1.385 . S
C857 H832 0.951 . S
C857 C855 1.388 . S
C857 C858 1.366 . S
C858 C857 1.366 . S
C858 C859 1.414 . S
C858 C861 1.499 . S
C859 H833 0.950 . S
C859 C858 1.414 . S
C859 C860 1.374 . S
C860 H834 0.950 . S
C860 C856 1.385 . S
C860 C859 1.374 . S
C861 C858 1.499 . S
C861 C862 1.373 . S
C861 C863 1.389 . S
C862 H835 0.950 . S
C862 C848 1.377 . S
C862 C861 1.373 . S
C863 C847 1.377 . S
C863 C861 1.389 . S
C863 C864 1.524 . S
C864 C863 1.524 . S
C864 C865 1.397 . S
C864 C869 1.363 . S
C865 H836 0.950 . S
C865 C864 1.397 . S
C865 C866 1.334 . S
C866 H837 0.950 . S
C866 C865 1.334 . S
C866 C867 1.287 . S
C867 C866 1.287 . S
C867 C868 1.524 . S
C867 H870 0.999 . S
C868 H838 0.950 . S
C868 C867 1.524 . S
C868 C869 1.415 . S
C869 H839 0.950 . S
C869 C864 1.363 . S
C869 C868 1.415 . S
H870 C867 0.999 . S
H871 C852 0.913 . S
H872 C890 0.951 . S
H873 C892 0.951 . S
H874 C894 0.950 . S
H875 C895 0.950 . S
H876 C897 0.950 . S
H877 C900 0.950 . S
H878 C901 0.950 . S
H879 C903 0.950 . S
H880 C904 0.950 . S
H881 C905 0.951 . S
H882 C907 0.951 . S
H883 C909 0.950 . S
H884 C910 0.950 1_545 S
H885 C912 0.950 . S
H886 C915 0.950 . S
H887 C916 0.950 . S
H888 C918 0.950 . S
H889 C919 0.950 . S
C890 H872 0.951 . S
C890 C891 1.366 . S
C890 C892 1.388 . S
C891 C890 1.366 . S
C891 C895 1.385 . S
C892 H873 0.951 . S
C892 C890 1.388 . S
C892 C893 1.366 . S
C893 C892 1.366 . S
C893 C894 1.414 . S
C893 C896 1.499 . S
C894 H874 0.950 . S
C894 C893 1.414 . S
C894 C895 1.374 . S
C895 H875 0.950 . S
C895 C891 1.385 . S
C895 C894 1.374 . S
C896 C893 1.499 . S
C896 C897 1.373 . S
C896 C898 1.389 . S
C897 H876 0.950 . S
C897 C896 1.373 . S
C897 C913 1.377 . S
C898 C896 1.389 . S
C898 C899 1.524 . S
C898 C912 1.377 . S
C899 C898 1.524 . S
C899 C900 1.397 . S
C899 C904 1.363 . S
C900 H877 0.950 . S
C900 C899 1.397 . S
C900 C901 1.334 . S
C901 H878 0.950 . S
C901 C900 1.334 . S
C901 C902 1.287 . S
C902 C901 1.287 . S
C902 C903 1.524 . S
C902 H921 0.913 . S
C903 H879 0.950 . S
C903 C902 1.524 . S
C903 C904 1.415 . S
C904 H880 0.950 . S
C904 C899 1.363 . S
C904 C903 1.415 . S
C905 H881 0.951 . S
C905 C906 1.366 . S
C905 C907 1.388 . S
C906 C905 1.366 . S
C906 C910 1.385 . S
C907 H882 0.951 . S
C907 C905 1.388 . S
C907 C908 1.366 . S
C908 C907 1.366 . S
C908 C909 1.414 . S
C908 C911 1.499 . S
C909 H883 0.950 . S
C909 C908 1.414 . S
C909 C910 1.374 . S
C910 H884 0.950 1_565 S
C910 C906 1.385 . S
C910 C909 1.374 . S
C911 C908 1.499 . S
C911 C912 1.373 . S
C911 C913 1.389 . S
C912 H885 0.950 . S
C912 C898 1.377 . S
C912 C911 1.373 . S
C913 C897 1.377 . S
C913 C911 1.389 . S
C913 C914 1.524 . S
C914 C913 1.524 . S
C914 C915 1.397 . S
C914 C919 1.363 . S
C915 H886 0.950 . S
C915 C914 1.397 . S
C915 C916 1.334 . S
C916 H887 0.950 . S
C916 C915 1.334 . S
C916 C917 1.287 . S
C917 C916 1.287 . S
C917 C918 1.524 . S
C917 H920 0.999 . S
C918 H888 0.950 . S
C918 C917 1.524 . S
C918 C919 1.415 . S
C919 H889 0.950 . S
C919 C914 1.363 . S
C919 C918 1.415 . S
H920 C917 0.999 . S
H921 C902 0.913 . S
H922 C940 0.951 . S
H923 C942 0.951 . S
H924 C944 0.950 . S
H925 C945 0.950 . S
H926 C947 0.950 . S
H927 C950 0.950 . S
H928 C951 0.950 . S
H929 C953 0.950 . S
H930 C954 0.950 . S
H931 C955 0.951 . S
H932 C957 0.951 . S
H933 C959 0.950 . S
H934 C960 0.950 . S
H935 C962 0.950 . S
H936 C965 0.950 . S
H937 C966 0.950 . S
H938 C968 0.950 . S
H939 C969 0.950 . S
C940 H922 0.951 . S
C940 C941 1.366 . S
C940 C942 1.388 . S
C941 C940 1.366 . S
C941 C945 1.385 . S
C942 H923 0.951 . S
C942 C940 1.388 . S
C942 C943 1.366 . S
C943 C942 1.366 . S
C943 C944 1.414 . S
C943 C946 1.499 . S
C944 H924 0.950 . S
C944 C943 1.414 . S
C944 C945 1.374 . S
C945 H925 0.950 . S
C945 C941 1.385 . S
C945 C944 1.374 . S
C946 C943 1.499 . S
C946 C947 1.373 . S
C946 C948 1.389 . S
C947 H926 0.950 . S
C947 C946 1.373 . S
C947 C963 1.377 . S
C948 C946 1.389 . S
C948 C949 1.524 . S
C948 C962 1.377 . S
C949 C948 1.524 . S
C949 C950 1.397 . S
C949 C954 1.363 . S
C950 H927 0.950 . S
C950 C949 1.397 . S
C950 C951 1.334 . S
C951 H928 0.950 . S
C951 C950 1.334 . S
C951 C952 1.287 . S
C952 C951 1.287 . S
C952 C953 1.524 . S
C952 H971 0.913 . S
C953 H929 0.950 . S
C953 C952 1.524 . S
C953 C954 1.415 . S
C954 H930 0.950 . S
C954 C949 1.363 . S
C954 C953 1.415 . S
C955 H931 0.951 . S
C955 C956 1.366 . S
C955 C957 1.388 . S
C956 C955 1.366 . S
C956 C960 1.385 . S
C957 H932 0.951 . S
C957 C955 1.388 . S
C957 C958 1.366 . S
C958 C957 1.366 . S
C958 C959 1.414 . S
C958 C961 1.499 . S
C959 H933 0.950 . S
C959 C958 1.414 . S
C959 C960 1.374 . S
C960 H934 0.950 . S
C960 C956 1.385 . S
C960 C959 1.374 . S
C961 C958 1.499 . S
C961 C962 1.373 . S
C961 C963 1.389 . S
C962 H935 0.950 . S
C962 C948 1.377 . S
C962 C961 1.373 . S
C963 C947 1.377 . S
C963 C961 1.389 . S
C963 C964 1.524 . S
C964 C963 1.524 . S
C964 C965 1.397 . S
C964 C969 1.363 . S
C965 H936 0.950 . S
C965 C964 1.397 . S
C965 C966 1.334 1_545 S
C966 H937 0.950 . S
C966 C965 1.334 1_565 S
C966 C967 1.287 . S
C967 C966 1.287 . S
C967 C968 1.524 . S
C967 H970 0.999 . S
C968 H938 0.950 . S
C968 C967 1.524 . S
C968 C969 1.415 1_565 S
C969 H939 0.950 . S
C969 C964 1.363 . S
C969 C968 1.415 1_545 S
H970 C967 0.999 . S
H971 C952 0.913 . S
H972 C990 0.951 . S
H973 C992 0.951 . S
H974 C994 0.950 . S
H975 C995 0.950 . S
H976 C997 0.950 . S
H977 C1000 0.950 . S
H978 C1001 0.950 . S
H979 C1003 0.950 . S
H980 C1004 0.950 . S
H981 C1005 0.951 . S
H982 C1007 0.951 . S
H983 C1009 0.950 . S
H984 C1010 0.950 . S
H985 C1012 0.950 . S
H986 C1015 0.950 . S
H987 C1016 0.950 . S
H988 C1018 0.950 . S
H989 C1019 0.950 . S
C990 H972 0.951 . S
C990 C991 1.366 . S
C990 C992 1.388 . S
C991 C990 1.366 . S
C991 C995 1.385 . S
C992 H973 0.951 . S
C992 C990 1.388 . S
C992 C993 1.366 . S
C993 C992 1.366 . S
C993 C994 1.414 . S
C993 C996 1.499 . S
C994 H974 0.950 . S
C994 C993 1.414 . S
C994 C995 1.374 . S
C995 H975 0.950 . S
C995 C991 1.385 . S
C995 C994 1.374 . S
C996 C993 1.499 . S
C996 C997 1.373 . S
C996 C998 1.389 . S
C997 H976 0.950 . S
C997 C996 1.373 . S
C997 C1013 1.377 . S
C998 C996 1.389 . S
C998 C999 1.524 . S
C998 C1012 1.377 . S
C999 C998 1.524 . S
C999 C1000 1.397 . S
C999 C1004 1.363 . S
C1000 H977 0.950 . S
C1000 C999 1.397 . S
C1000 C1001 1.334 . S
C1001 H978 0.950 . S
C1001 C1000 1.334 . S
C1001 C1002 1.287 . S
C1002 C1001 1.287 . S
C1002 C1003 1.524 . S
C1002 H1021 0.913 . S
C1003 H979 0.950 . S
C1003 C1002 1.524 . S
C1003 C1004 1.415 . S
C1004 H980 0.950 . S
C1004 C999 1.363 . S
C1004 C1003 1.415 . S
C1005 H981 0.951 . S
C1005 C1006 1.366 . S
C1005 C1007 1.388 . S
C1006 C1005 1.366 . S
C1006 C1010 1.385 . S
C1007 H982 0.951 . S
C1007 C1005 1.388 . S
C1007 C1008 1.366 . S
C1008 C1007 1.366 . S
C1008 C1009 1.414 . S
C1008 C1011 1.499 . S
C1009 H983 0.950 . S
C1009 C1008 1.414 . S
C1009 C1010 1.374 . S
C1010 H984 0.950 . S
C1010 C1006 1.385 . S
C1010 C1009 1.374 . S
C1011 C1008 1.499 . S
C1011 C1012 1.373 . S
C1011 C1013 1.389 . S
C1012 H985 0.950 . S
C1012 C998 1.377 . S
C1012 C1011 1.373 . S
C1013 C997 1.377 . S
C1013 C1011 1.389 . S
C1013 C1014 1.524 . S
C1014 C1013 1.524 . S
C1014 C1015 1.397 . S
C1014 C1019 1.363 . S
C1015 H986 0.950 . S
C1015 C1014 1.397 . S
C1015 C1016 1.334 . S
C1016 H987 0.950 . S
C1016 C1015 1.334 . S
C1016 C1017 1.287 . S
C1017 C1016 1.287 . S
C1017 C1018 1.524 . S
C1017 H1020 0.999 . S
C1018 H988 0.950 . S
C1018 C1017 1.524 . S
C1018 C1019 1.415 . S
C1019 H989 0.950 . S
C1019 C1014 1.363 . S
C1019 C1018 1.415 . S
H1020 C1017 0.999 . S
H1021 C1002 0.913 . S
H1022 C1040 0.951 . S
H1023 C1042 0.951 . S
H1024 C1044 0.950 . S
H1025 C1045 0.950 . S
H1026 C1047 0.950 1_554 S
H1027 C1050 0.950 . S
H1028 C1051 0.950 . S
H1029 C1053 0.950 . S
H1030 C1054 0.950 . S
H1031 C1055 0.951 1_545 S
H1032 C1057 0.957 . S
H1033 C1059 0.950 . S
H1034 C1060 0.950 . S
H1035 C1062 0.950 . S
H1036 C1065 0.950 . S
H1037 C1066 0.950 . S
H1038 C1068 0.950 . S
H1039 C1069 0.950 . S
C1040 H1022 0.951 . S
C1040 C1041 1.366 . S
C1040 C1042 1.388 . S
C1041 C1040 1.366 . S
C1041 C1045 1.385 . S
C1042 H1023 0.951 . S
C1042 C1040 1.388 . S
C1042 C1043 1.366 . S
C1043 C1042 1.366 . S
C1043 C1044 1.414 . S
C1043 C1046 1.499 1_554 S
C1044 H1024 0.950 . S
C1044 C1043 1.414 . S
C1044 C1045 1.374 . S
C1045 H1025 0.950 . S
C1045 C1041 1.385 . S
C1045 C1044 1.374 . S
C1046 C1043 1.499 1_556 S
C1046 C1047 1.373 . S
C1046 C1048 1.389 . S
C1047 H1026 0.950 1_556 S
C1047 C1046 1.373 . S
C1047 C1063 1.377 . S
C1048 C1046 1.389 . S
C1048 C1049 1.524 . S
C1048 C1062 1.377 . S
C1049 C1048 1.524 . S
C1049 C1050 1.397 . S
C1049 C1054 1.363 . S
C1050 H1027 0.950 . S
C1050 C1049 1.397 . S
C1050 C1051 1.334 . S
C1051 H1028 0.950 . S
C1051 C1050 1.334 . S
C1051 C1052 1.287 . S
C1052 C1051 1.287 . S
C1052 C1053 1.524 . S
C1052 H1071 0.913 . S
C1053 H1029 0.950 . S
C1053 C1052 1.524 . S
C1053 C1054 1.415 . S
C1054 H1030 0.950 . S
C1054 C1049 1.363 . S
C1054 C1053 1.415 . S
C1055 H1031 0.951 1_565 S
C1055 C1056 1.366 . S
C1055 C1057 1.388 . S
C1056 C1055 1.366 . S
C1056 C1060 1.385 . S
C1057 H1032 0.957 . S
C1057 C1055 1.388 . S
C1057 C1058 1.366 . S
C1058 C1057 1.366 . S
C1058 C1059 1.414 . S
C1058 C1061 1.499 . S
C1059 H1033 0.950 . S
C1059 C1058 1.414 . S
C1059 C1060 1.374 . S
C1060 H1034 0.950 . S
C1060 C1056 1.385 . S
C1060 C1059 1.374 . S
C1061 C1058 1.499 . S
C1061 C1062 1.373 . S
C1061 C1063 1.389 . S
C1062 H1035 0.950 . S
C1062 C1048 1.377 . S
C1062 C1061 1.373 . S
C1063 C1047 1.377 . S
C1063 C1061 1.389 . S
C1063 C1064 1.524 . S
C1064 C1063 1.524 . S
C1064 C1065 1.397 . S
C1064 C1069 1.363 1_565 S
C1065 H1036 0.950 . S
C1065 C1064 1.397 . S
C1065 C1066 1.334 . S
C1066 H1037 0.950 . S
C1066 C1065 1.334 . S
C1066 C1067 1.287 1_565 S
C1067 C1066 1.287 1_545 S
C1067 C1068 1.524 . S
C1067 H1070 0.999 . S
C1068 H1038 0.950 . S
C1068 C1067 1.524 . S
C1068 C1069 1.415 . S
C1069 H1039 0.950 . S
C1069 C1064 1.363 1_545 S
C1069 C1068 1.415 . S
H1070 C1067 0.999 . S
H1071 C1052 0.913 . S
H1072 C1090 0.951 . S
H1073 C1092 0.951 . S
H1074 C1094 0.950 . S
H1075 C1095 0.950 . S
H1076 C1097 0.950 . S
H1077 C1100 0.950 . S
H1078 C1101 0.950 . S
H1079 C1103 0.950 . S
H1080 C1104 0.950 . S
H1081 C1105 0.951 . S
H1082 C1107 0.951 . S
H1083 C1109 0.950 . S
H1084 C1110 0.950 . S
H1085 C1112 0.950 . S
H1086 C1115 0.950 . S
H1087 C1116 0.950 . S
H1088 C1118 0.950 . S
H1089 C1119 0.950 . S
C1090 H1072 0.951 . S
C1090 C1091 1.366 . S
C1090 C1092 1.388 . S
C1091 C1090 1.366 . S
C1091 C1095 1.385 . S
C1092 H1073 0.951 . S
C1092 C1090 1.388 . S
C1092 C1093 1.366 . S
C1093 C1092 1.366 . S
C1093 C1094 1.414 . S
C1093 C1096 1.499 . S
C1094 H1074 0.950 . S
C1094 C1093 1.414 . S
C1094 C1095 1.374 . S
C1095 H1075 0.950 . S
C1095 C1091 1.385 . S
C1095 C1094 1.374 . S
C1096 C1093 1.499 . S
C1096 C1097 1.373 . S
C1096 C1098 1.389 . S
C1097 H1076 0.950 . S
C1097 C1096 1.373 . S
C1097 C1113 1.377 . S
C1098 C1096 1.389 . S
C1098 C1099 1.524 . S
C1098 C1112 1.377 . S
C1099 C1098 1.524 . S
C1099 C1100 1.397 . S
C1099 C1104 1.363 . S
C1100 H1077 0.950 . S
C1100 C1099 1.397 . S
C1100 C1101 1.334 . S
C1101 H1078 0.950 . S
C1101 C1100 1.334 . S
C1101 C1102 1.287 . S
C1102 C1101 1.287 . S
C1102 C1103 1.524 . S
C1102 H1121 0.913 . S
C1103 H1079 0.950 . S
C1103 C1102 1.524 . S
C1103 C1104 1.415 . S
C1104 H1080 0.950 . S
C1104 C1099 1.363 . S
C1104 C1103 1.415 . S
C1105 H1081 0.951 . S
C1105 C1106 1.366 . S
C1105 C1107 1.388 . S
C1106 C1105 1.366 . S
C1106 C1110 1.385 . S
C1107 H1082 0.951 . S
C1107 C1105 1.388 . S
C1107 C1108 1.366 . S
C1108 C1107 1.366 . S
C1108 C1109 1.414 . S
C1108 C1111 1.499 . S
C1109 H1083 0.950 . S
C1109 C1108 1.414 . S
C1109 C1110 1.374 . S
C1110 H1084 0.950 . S
C1110 C1106 1.385 . S
C1110 C1109 1.374 . S
C1111 C1108 1.499 . S
C1111 C1112 1.373 . S
C1111 C1113 1.389 . S
C1112 H1085 0.950 . S
C1112 C1098 1.377 . S
C1112 C1111 1.373 . S
C1113 C1097 1.377 . S
C1113 C1111 1.389 . S
C1113 C1114 1.524 . S
C1114 C1113 1.524 . S
C1114 C1115 1.397 . S
C1114 C1119 1.363 . S
C1115 H1086 0.950 . S
C1115 C1114 1.397 . S
C1115 C1116 1.334 . S
C1116 H1087 0.950 . S
C1116 C1115 1.334 . S
C1116 C1117 1.287 . S
C1117 C1116 1.287 . S
C1117 C1118 1.524 . S
C1117 H1120 0.999 . S
C1118 H1088 0.950 . S
C1118 C1117 1.524 . S
C1118 C1119 1.415 . S
C1119 H1089 0.950 . S
C1119 C1114 1.363 . S
C1119 C1118 1.415 . S
H1120 C1117 0.999 . S
H1121 C1102 0.913 . S
H1122 C1140 0.951 . S
H1123 C1142 0.951 . S
H1124 C1144 0.950 . S
H1125 C1145 0.950 . S
H1126 C1147 0.950 . S
H1127 C1150 0.950 . S
H1128 C1151 0.950 . S
H1129 C1153 0.950 . S
H1130 C1154 0.950 1_565 S
H1131 C1155 0.951 . S
H1132 C1157 0.951 . S
H1133 C1159 0.950 . S
H1134 C1160 0.950 . S
H1135 C1162 0.950 . S
H1136 C1165 0.950 . S
H1137 C1166 0.950 . S
H1138 C1168 0.950 1_545 S
H1139 C1169 0.950 . S
C1140 H1122 0.951 . S
C1140 C1141 1.366 . S
C1140 C1142 1.388 . S
C1141 C1140 1.366 . S
C1141 C1145 1.385 . S
C1142 H1123 0.951 . S
C1142 C1140 1.388 . S
C1142 C1143 1.366 . S
C1143 C1142 1.366 . S
C1143 C1144 1.414 . S
C1143 C1146 1.499 . S
C1144 H1124 0.950 . S
C1144 C1143 1.414 . S
C1144 C1145 1.374 . S
C1145 H1125 0.950 . S
C1145 C1141 1.385 . S
C1145 C1144 1.374 . S
C1146 C1143 1.499 . S
C1146 C1147 1.373 . S
C1146 C1148 1.389 . S
C1147 H1126 0.950 . S
C1147 C1146 1.373 . S
C1147 C1163 1.377 1_545 S
C1148 C1146 1.389 . S
C1148 C1149 1.524 . S
C1148 C1162 1.377 1_545 S
C1149 C1148 1.524 . S
C1149 C1150 1.397 . S
C1149 C1154 1.363 . S
C1150 H1127 0.950 . S
C1150 C1149 1.397 . S
C1150 C1151 1.334 . S
C1151 H1128 0.950 . S
C1151 C1150 1.334 . S
C1151 C1152 1.287 . S
C1152 C1151 1.287 . S
C1152 C1153 1.524 . S
C1152 H1171 0.913 . S
C1153 H1129 0.950 . S
C1153 C1152 1.524 . S
C1153 C1154 1.415 . S
C1154 H1130 0.950 1_545 S
C1154 C1149 1.363 . S
C1154 C1153 1.415 . S
C1155 H1131 0.951 . S
C1155 C1156 1.366 . S
C1155 C1157 1.388 . S
C1156 C1155 1.366 . S
C1156 C1160 1.385 . S
C1157 H1132 0.951 . S
C1157 C1155 1.388 . S
C1157 C1158 1.366 . S
C1158 C1157 1.366 . S
C1158 C1159 1.414 . S
C1158 C1161 1.499 . S
C1159 H1133 0.950 . S
C1159 C1158 1.414 . S
C1159 C1160 1.374 . S
C1160 H1134 0.950 . S
C1160 C1156 1.385 . S
C1160 C1159 1.374 . S
C1161 C1158 1.499 . S
C1161 C1162 1.373 . S
C1161 C1163 1.389 . S
C1162 H1135 0.950 . S
C1162 C1148 1.377 1_565 S
C1162 C1161 1.373 . S
C1163 C1147 1.377 1_565 S
C1163 C1161 1.389 . S
C1163 C1164 1.524 . S
C1164 C1163 1.524 . S
C1164 C1165 1.397 . S
C1164 C1169 1.363 1_565 S
C1165 H1136 0.950 . S
C1165 C1164 1.397 . S
C1165 C1166 1.334 . S
C1166 H1137 0.950 . S
C1166 C1165 1.334 . S
C1166 C1167 1.287 . S
C1167 C1166 1.287 . S
C1167 C1168 1.524 . S
C1167 H1170 0.999 . S
C1168 H1138 0.950 1_565 S
C1168 C1167 1.524 . S
C1168 C1169 1.415 1_565 S
C1169 H1139 0.950 . S
C1169 C1164 1.363 1_545 S
C1169 C1168 1.415 1_545 S
H1170 C1167 0.999 . S
H1171 C1152 0.913 . S
H1172 C1190 0.951 . S
H1173 C1192 0.951 . S
H1174 C1194 0.950 . S
H1175 C1195 0.950 . S
H1176 C1197 0.950 . S
H1177 C1200 0.950 . S
H1178 C1201 0.950 . S
H1179 C1203 0.950 . S
H1180 C1204 0.950 . S
H1181 C1205 0.951 . S
H1182 C1207 0.951 . S
H1183 C1209 0.950 . S
H1184 C1210 0.950 . S
H1185 C1212 0.950 . S
H1186 C1215 0.950 . S
H1187 C1216 0.950 . S
H1188 C1218 0.950 . S
H1189 C1219 0.950 . S
C1190 H1172 0.951 . S
C1190 C1191 1.366 . S
C1190 C1192 1.388 . S
C1191 C1190 1.366 . S
C1191 C1195 1.385 . S
C1192 H1173 0.951 . S
C1192 C1190 1.388 . S
C1192 C1193 1.366 . S
C1193 C1192 1.366 . S
C1193 C1194 1.414 . S
C1193 C1196 1.499 . S
C1194 H1174 0.950 . S
C1194 C1193 1.414 . S
C1194 C1195 1.374 . S
C1195 H1175 0.950 . S
C1195 C1191 1.385 . S
C1195 C1194 1.374 . S
C1196 C1193 1.499 . S
C1196 C1197 1.373 . S
C1196 C1198 1.389 . S
C1197 H1176 0.950 . S
C1197 C1196 1.373 . S
C1197 C1213 1.377 . S
C1198 C1196 1.389 . S
C1198 C1199 1.524 . S
C1198 C1212 1.377 . S
C1199 C1198 1.524 . S
C1199 C1200 1.397 . S
C1199 C1204 1.363 . S
C1200 H1177 0.950 . S
C1200 C1199 1.397 . S
C1200 C1201 1.334 . S
C1201 H1178 0.950 . S
C1201 C1200 1.334 . S
C1201 C1202 1.287 . S
C1202 C1201 1.287 . S
C1202 C1203 1.524 . S
C1202 H1221 0.913 . S
C1203 H1179 0.950 . S
C1203 C1202 1.524 . S
C1203 C1204 1.415 . S
C1204 H1180 0.950 . S
C1204 C1199 1.363 . S
C1204 C1203 1.415 . S
C1205 H1181 0.951 . S
C1205 C1206 1.366 . S
C1205 C1207 1.388 . S
C1206 C1205 1.366 . S
C1206 C1210 1.385 . S
C1207 H1182 0.951 . S
C1207 C1205 1.388 . S
C1207 C1208 1.366 . S
C1208 C1207 1.366 . S
C1208 C1209 1.414 . S
C1208 C1211 1.499 . S
C1209 H1183 0.950 . S
C1209 C1208 1.414 . S
C1209 C1210 1.374 . S
C1210 H1184 0.950 . S
C1210 C1206 1.385 . S
C1210 C1209 1.374 . S
C1211 C1208 1.499 . S
C1211 C1212 1.373 . S
C1211 C1213 1.389 . S
C1212 H1185 0.950 . S
C1212 C1198 1.377 . S
C1212 C1211 1.373 . S
C1213 C1197 1.377 . S
C1213 C1211 1.389 . S
C1213 C1214 1.524 . S
C1214 C1213 1.524 . S
C1214 C1215 1.397 . S
C1214 C1219 1.363 . S
C1215 H1186 0.950 . S
C1215 C1214 1.397 . S
C1215 C1216 1.334 . S
C1216 H1187 0.950 . S
C1216 C1215 1.334 . S
C1216 C1217 1.287 . S
C1217 C1216 1.287 . S
C1217 C1218 1.524 . S
C1217 H1220 0.999 . S
C1218 H1188 0.950 . S
C1218 C1217 1.524 . S
C1218 C1219 1.415 . S
C1219 H1189 0.950 . S
C1219 C1214 1.363 . S
C1219 C1218 1.415 . S
H1220 C1217 0.999 . S
H1221 C1202 0.913 . S
H1222 C1240 0.951 . S
H1223 C1242 0.951 . S
H1224 C1244 0.950 . S
H1225 C1245 0.950 . S
H1226 C1247 0.950 . S
H1227 C1250 0.950 . S
H1228 C1251 0.950 . S
H1229 C1253 0.950 . S
H1230 C1254 0.950 . S
H1231 C1255 0.951 . S
H1232 C1257 0.951 . S
H1233 C1259 0.950 . S
H1234 C1260 0.950 . S
H1235 C1262 0.950 . S
H1236 C1265 0.950 . S
H1237 C1266 0.950 . S
H1238 C1268 0.950 . S
H1239 C1269 0.950 . S
C1240 H1222 0.951 . S
C1240 C1241 1.366 . S
C1240 C1242 1.388 . S
C1241 C1240 1.366 . S
C1241 C1245 1.385 . S
C1242 H1223 0.951 . S
C1242 C1240 1.388 . S
C1242 C1243 1.366 . S
C1243 C1242 1.366 . S
C1243 C1244 1.414 . S
C1243 C1246 1.499 . S
C1244 H1224 0.950 . S
C1244 C1243 1.414 . S
C1244 C1245 1.374 . S
C1245 H1225 0.950 . S
C1245 C1241 1.385 . S
C1245 C1244 1.374 . S
C1246 C1243 1.499 . S
C1246 C1247 1.373 . S
C1246 C1248 1.389 . S
C1247 H1226 0.950 . S
C1247 C1246 1.373 . S
C1247 C1263 1.377 . S
C1248 C1246 1.389 . S
C1248 C1249 1.524 . S
C1248 C1262 1.377 . S
C1249 C1248 1.524 . S
C1249 C1250 1.397 . S
C1249 C1254 1.363 . S
C1250 H1227 0.950 . S
C1250 C1249 1.397 . S
C1250 C1251 1.334 . S
C1251 H1228 0.950 . S
C1251 C1250 1.334 . S
C1251 C1252 1.287 . S
C1252 C1251 1.287 . S
C1252 C1253 1.524 . S
C1252 H1271 0.913 . S
C1253 H1229 0.950 . S
C1253 C1252 1.524 . S
C1253 C1254 1.415 . S
C1254 H1230 0.950 . S
C1254 C1249 1.363 . S
C1254 C1253 1.415 . S
C1255 H1231 0.951 . S
C1255 C1256 1.366 . S
C1255 C1257 1.388 . S
C1256 C1255 1.366 . S
C1256 C1260 1.385 . S
C1257 H1232 0.951 . S
C1257 C1255 1.388 . S
C1257 C1258 1.366 . S
C1258 C1257 1.366 . S
C1258 C1259 1.414 . S
C1258 C1261 1.499 1_565 S
C1259 H1233 0.950 . S
C1259 C1258 1.414 . S
C1259 C1260 1.374 . S
C1260 H1234 0.950 . S
C1260 C1256 1.385 . S
C1260 C1259 1.374 . S
C1261 C1258 1.499 1_545 S
C1261 C1262 1.373 . S
C1261 C1263 1.389 . S
C1262 H1235 0.950 . S
C1262 C1248 1.377 . S
C1262 C1261 1.373 . S
C1263 C1247 1.377 . S
C1263 C1261 1.389 . S
C1263 C1264 1.524 1_545 S
C1264 C1263 1.524 1_565 S
C1264 C1265 1.397 . S
C1264 C1269 1.363 1_565 S
C1265 H1236 0.950 . S
C1265 C1264 1.397 . S
C1265 C1266 1.334 . S
C1266 H1237 0.950 . S
C1266 C1265 1.334 . S
C1266 C1267 1.287 . S
C1267 C1266 1.287 . S
C1267 C1268 1.524 . S
C1267 H1270 0.999 . S
C1268 H1238 0.950 . S
C1268 C1267 1.524 . S
C1268 C1269 1.415 1_565 S
C1269 H1239 0.950 . S
C1269 C1264 1.363 1_545 S
C1269 C1268 1.415 1_545 S
H1270 C1267 0.999 . S
H1271 C1252 0.913 . S
H1272 C1290 0.951 . S
H1273 C1292 0.951 . S
H1274 C1294 0.950 . S
H1275 C1295 0.950 . S
H1276 C1297 0.950 . S
H1277 C1300 0.950 . S
H1278 C1301 0.950 . S
H1279 C1303 0.950 . S
H1280 C1304 0.950 . S
H1281 C1305 0.951 . S
H1282 C1307 0.951 . S
H1283 C1309 0.950 . S
H1284 C1310 0.950 . S
H1285 C1312 0.950 1_655 S
H1286 C1315 0.950 . S
H1287 C1316 0.950 . S
H1288 C1318 0.950 . S
H1289 C1319 0.950 . S
C1290 H1272 0.951 . S
C1290 C1291 1.366 . S
C1290 C1292 1.388 . S
C1291 C1290 1.366 . S
C1291 C1295 1.385 . S
C1292 H1273 0.951 . S
C1292 C1290 1.388 . S
C1292 C1293 1.366 . S
C1293 C1292 1.366 . S
C1293 C1294 1.414 . S
C1293 C1296 1.499 . S
C1294 H1274 0.950 . S
C1294 C1293 1.414 . S
C1294 C1295 1.374 . S
C1295 H1275 0.950 . S
C1295 C1291 1.385 . S
C1295 C1294 1.374 . S
C1296 C1293 1.499 . S
C1296 C1297 1.373 1_655 S
C1296 C1298 1.389 . S
C1297 H1276 0.950 . S
C1297 C1296 1.373 1_455 S
C1297 C1313 1.377 . S
C1298 C1296 1.389 . S
C1298 C1299 1.524 . S
C1298 C1312 1.377 1_655 S
C1299 C1298 1.524 . S
C1299 C1300 1.397 . S
C1299 C1304 1.363 . S
C1300 H1277 0.950 . S
C1300 C1299 1.397 . S
C1300 C1301 1.334 . S
C1301 H1278 0.950 . S
C1301 C1300 1.334 . S
C1301 C1302 1.287 . S
C1302 C1301 1.287 . S
C1302 C1303 1.524 . S
C1302 H1321 0.913 . S
C1303 H1279 0.950 . S
C1303 C1302 1.524 . S
C1303 C1304 1.415 . S
C1304 H1280 0.950 . S
C1304 C1299 1.363 . S
C1304 C1303 1.415 . S
C1305 H1281 0.951 . S
C1305 C1306 1.366 . S
C1305 C1307 1.388 . S
C1306 C1305 1.366 . S
C1306 C1310 1.385 . S
C1307 H1282 0.951 . S
C1307 C1305 1.388 . S
C1307 C1308 1.366 . S
C1308 C1307 1.366 . S
C1308 C1309 1.414 . S
C1308 C1311 1.499 . S
C1309 H1283 0.950 . S
C1309 C1308 1.414 . S
C1309 C1310 1.374 . S
C1310 H1284 0.950 . S
C1310 C1306 1.385 . S
C1310 C1309 1.374 . S
C1311 C1308 1.499 . S
C1311 C1312 1.373 . S
C1311 C1313 1.389 . S
C1312 H1285 0.950 1_455 S
C1312 C1298 1.377 1_455 S
C1312 C1311 1.373 . S
C1313 C1297 1.377 . S
C1313 C1311 1.389 . S
C1313 C1314 1.524 . S
C1314 C1313 1.524 . S
C1314 C1315 1.397 . S
C1314 C1319 1.363 . S
C1315 H1286 0.950 . S
C1315 C1314 1.397 . S
C1315 C1316 1.334 . S
C1316 H1287 0.950 . S
C1316 C1315 1.334 . S
C1316 C1317 1.287 . S
C1317 C1316 1.287 . S
C1317 C1318 1.524 . S
C1317 H1320 0.999 . S
C1318 H1288 0.950 . S
C1318 C1317 1.524 . S
C1318 C1319 1.415 . S
C1319 H1289 0.950 . S
C1319 C1314 1.363 . S
C1319 C1318 1.415 . S
H1320 C1317 0.999 . S
H1321 C1302 0.913 . S
H1322 C1340 0.951 . S
H1323 C1342 0.951 . S
H1324 C1344 0.950 . S
H1325 C1345 0.950 . S
H1326 C1347 0.950 . S
H1327 C1350 0.950 . S
H1328 C1351 0.950 . S
H1329 C1353 0.950 . S
H1330 C1354 0.950 . S
H1331 C1355 0.951 . S
H1332 C1357 0.951 . S
H1333 C1359 0.950 . S
H1334 C1360 0.950 . S
H1335 C1362 0.950 . S
H1336 C1365 0.950 . S
H1337 C1366 0.950 . S
H1338 C1368 0.950 . S
H1339 C1369 0.950 . S
C1340 H1322 0.951 . S
C1340 C1341 1.366 . S
C1340 C1342 1.388 . S
C1341 C1340 1.366 . S
C1341 C1345 1.385 . S
C1342 H1323 0.951 . S
C1342 C1340 1.388 . S
C1342 C1343 1.366 . S
C1343 C1342 1.366 . S
C1343 C1344 1.414 . S
C1343 C1346 1.499 . S
C1344 H1324 0.950 . S
C1344 C1343 1.414 . S
C1344 C1345 1.374 . S
C1345 H1325 0.950 . S
C1345 C1341 1.385 . S
C1345 C1344 1.374 . S
C1346 C1343 1.499 . S
C1346 C1347 1.373 . S
C1346 C1348 1.389 . S
C1347 H1326 0.950 . S
C1347 C1346 1.373 . S
C1347 C1363 1.377 . S
C1348 C1346 1.389 . S
C1348 C1349 1.524 . S
C1348 C1362 1.377 . S
C1349 C1348 1.524 . S
C1349 C1350 1.397 . S
C1349 C1354 1.363 . S
C1350 H1327 0.950 . S
C1350 C1349 1.397 . S
C1350 C1351 1.334 . S
C1351 H1328 0.950 . S
C1351 C1350 1.334 . S
C1351 C1352 1.287 . S
C1352 C1351 1.287 . S
C1352 C1353 1.524 . S
C1352 H1371 0.913 . S
C1353 H1329 0.950 . S
C1353 C1352 1.524 . S
C1353 C1354 1.415 . S
C1354 H1330 0.950 . S
C1354 C1349 1.363 . S
C1354 C1353 1.415 . S
C1355 H1331 0.951 . S
C1355 C1356 1.366 . S
C1355 C1357 1.388 . S
C1356 C1355 1.366 . S
C1356 C1360 1.385 . S
C1357 H1332 0.951 . S
C1357 C1355 1.388 . S
C1357 C1358 1.366 . S
C1358 C1357 1.366 . S
C1358 C1359 1.414 . S
C1358 C1361 1.499 . S
C1359 H1333 0.950 . S
C1359 C1358 1.414 . S
C1359 C1360 1.374 . S
C1360 H1334 0.950 . S
C1360 C1356 1.385 . S
C1360 C1359 1.374 . S
C1361 C1358 1.499 . S
C1361 C1362 1.373 . S
C1361 C1363 1.389 . S
C1362 H1335 0.950 . S
C1362 C1348 1.377 . S
C1362 C1361 1.373 . S
C1363 C1347 1.377 . S
C1363 C1361 1.389 . S
C1363 C1364 1.524 . S
C1364 C1363 1.524 . S
C1364 C1365 1.397 . S
C1364 C1369 1.363 . S
C1365 H1336 0.950 . S
C1365 C1364 1.397 . S
C1365 C1366 1.334 . S
C1366 H1337 0.950 . S
C1366 C1365 1.334 . S
C1366 C1367 1.287 . S
C1367 C1366 1.287 . S
C1367 C1368 1.524 . S
C1367 H1370 0.999 . S
C1368 H1338 0.950 . S
C1368 C1367 1.524 . S
C1368 C1369 1.415 . S
C1369 H1339 0.950 . S
C1369 C1364 1.363 . S
C1369 C1368 1.415 . S
H1370 C1367 0.999 . S
H1371 C1352 0.913 . S
H1372 C1390 0.951 . S
H1373 C1392 0.951 . S
H1374 C1394 0.950 . S
H1375 C1395 0.950 . S
H1376 C1397 0.950 . S
H1377 C1400 0.950 . S
H1378 C1401 0.950 . S
H1379 C1403 0.950 . S
H1380 C1404 0.950 . S
H1381 C1405 0.951 . S
H1382 C1407 0.951 . S
H1383 C1409 0.950 1_455 S
H1384 C1410 0.950 . S
H1385 C1412 0.950 . S
H1386 C1415 0.950 . S
H1387 C1416 0.950 . S
H1388 C1418 0.950 . S
H1389 C1419 0.950 . S
C1390 H1372 0.951 . S
C1390 C1391 1.366 . S
C1390 C1392 1.388 . S
C1391 C1390 1.366 . S
C1391 C1395 1.385 . S
C1392 H1373 0.951 . S
C1392 C1390 1.388 . S
C1392 C1393 1.366 . S
C1393 C1392 1.366 . S
C1393 C1394 1.414 . S
C1393 C1396 1.499 . S
C1394 H1374 0.950 . S
C1394 C1393 1.414 . S
C1394 C1395 1.374 . S
C1395 H1375 0.950 . S
C1395 C1391 1.385 . S
C1395 C1394 1.374 . S
C1396 C1393 1.499 . S
C1396 C1397 1.373 . S
C1396 C1398 1.389 . S
C1397 H1376 0.950 . S
C1397 C1396 1.373 . S
C1397 C1413 1.377 . S
C1398 C1396 1.389 . S
C1398 C1399 1.524 . S
C1398 C1412 1.377 . S
C1399 C1398 1.524 . S
C1399 C1400 1.397 . S
C1399 C1404 1.363 . S
C1400 H1377 0.950 . S
C1400 C1399 1.397 . S
C1400 C1401 1.334 . S
C1401 H1378 0.950 . S
C1401 C1400 1.334 . S
C1401 C1402 1.287 . S
C1402 C1401 1.287 . S
C1402 C1403 1.524 . S
C1402 H1421 0.913 . S
C1403 H1379 0.950 . S
C1403 C1402 1.524 . S
C1403 C1404 1.415 . S
C1404 H1380 0.950 . S
C1404 C1399 1.363 . S
C1404 C1403 1.415 . S
C1405 H1381 0.951 . S
C1405 C1406 1.366 . S
C1405 C1407 1.388 . S
C1406 C1405 1.366 . S
C1406 C1410 1.385 . S
C1407 H1382 0.951 . S
C1407 C1405 1.388 . S
C1407 C1408 1.366 . S
C1408 C1407 1.366 . S
C1408 C1409 1.414 . S
C1408 C1411 1.499 1_655 S
C1409 H1383 0.950 1_655 S
C1409 C1408 1.414 . S
C1409 C1410 1.374 . S
C1410 H1384 0.950 . S
C1410 C1406 1.385 . S
C1410 C1409 1.374 . S
C1411 C1408 1.499 1_455 S
C1411 C1412 1.373 . S
C1411 C1413 1.389 . S
C1412 H1385 0.950 . S
C1412 C1398 1.377 . S
C1412 C1411 1.373 . S
C1413 C1397 1.377 . S
C1413 C1411 1.389 . S
C1413 C1414 1.524 1_455 S
C1414 C1413 1.524 1_655 S
C1414 C1415 1.397 . S
C1414 C1419 1.363 . S
C1415 H1386 0.950 . S
C1415 C1414 1.397 . S
C1415 C1416 1.334 . S
C1416 H1387 0.950 . S
C1416 C1415 1.334 . S
C1416 C1417 1.287 . S
C1417 C1416 1.287 . S
C1417 C1418 1.524 . S
C1417 H1420 0.999 . S
C1418 H1388 0.950 . S
C1418 C1417 1.524 . S
C1418 C1419 1.415 . S
C1419 H1389 0.950 . S
C1419 C1414 1.363 . S
C1419 C1418 1.415 . S
H1420 C1417 0.999 . S
H1421 C1402 0.913 . S
H1422 C1440 0.951 . S
H1423 C1442 0.951 . S
H1424 C1444 0.950 . S
H1425 C1445 0.950 . S
H1426 C1447 0.950 . S
H1427 C1450 0.950 . S
H1428 C1451 0.950 . S
H1429 C1453 0.950 . S
H1430 C1454 0.950 . S
H1431 C1455 0.951 . S
H1432 C1457 0.951 . S
H1433 C1459 0.950 . S
H1434 C1460 0.950 . S
H1435 C1462 0.950 . S
H1436 C1465 0.950 . S
H1437 C1466 0.950 . S
H1438 C1468 0.950 . S
H1439 C1469 0.950 . S
C1440 H1422 0.951 . S
C1440 C1441 1.366 . S
C1440 C1442 1.388 . S
C1441 C1440 1.366 . S
C1441 C1445 1.385 . S
C1442 H1423 0.951 . S
C1442 C1440 1.388 . S
C1442 C1443 1.366 . S
C1443 C1442 1.366 . S
C1443 C1444 1.414 . S
C1443 C1446 1.499 . S
C1444 H1424 0.950 . S
C1444 C1443 1.414 . S
C1444 C1445 1.374 . S
C1445 H1425 0.950 . S
C1445 C1441 1.385 . S
C1445 C1444 1.374 . S
C1446 C1443 1.499 . S
C1446 C1447 1.373 . S
C1446 C1448 1.389 . S
C1447 H1426 0.950 . S
C1447 C1446 1.373 . S
C1447 C1463 1.377 . S
C1448 C1446 1.389 . S
C1448 C1449 1.524 . S
C1448 C1462 1.377 . S
C1449 C1448 1.524 . S
C1449 C1450 1.397 . S
C1449 C1454 1.363 . S
C1450 H1427 0.950 . S
C1450 C1449 1.397 . S
C1450 C1451 1.334 . S
C1451 H1428 0.950 . S
C1451 C1450 1.334 . S
C1451 C1452 1.287 . S
C1452 C1451 1.287 . S
C1452 C1453 1.524 . S
C1452 H1471 0.913 . S
C1453 H1429 0.950 . S
C1453 C1452 1.524 . S
C1453 C1454 1.415 . S
C1454 H1430 0.950 . S
C1454 C1449 1.363 . S
C1454 C1453 1.415 . S
C1455 H1431 0.951 . S
C1455 C1456 1.366 . S
C1455 C1457 1.388 . S
C1456 C1455 1.366 . S
C1456 C1460 1.385 . S
C1457 H1432 0.951 . S
C1457 C1455 1.388 . S
C1457 C1458 1.366 . S
C1458 C1457 1.366 . S
C1458 C1459 1.414 . S
C1458 C1461 1.499 . S
C1459 H1433 0.950 . S
C1459 C1458 1.414 . S
C1459 C1460 1.374 . S
C1460 H1434 0.950 . S
C1460 C1456 1.385 . S
C1460 C1459 1.374 . S
C1461 C1458 1.499 . S
C1461 C1462 1.373 . S
C1461 C1463 1.389 . S
C1462 H1435 0.950 . S
C1462 C1448 1.377 . S
C1462 C1461 1.373 . S
C1463 C1447 1.377 . S
C1463 C1461 1.389 . S
C1463 C1464 1.524 . S
C1464 C1463 1.524 . S
C1464 C1465 1.397 . S
C1464 C1469 1.363 . S
C1465 H1436 0.950 . S
C1465 C1464 1.397 . S
C1465 C1466 1.334 . S
C1466 H1437 0.950 . S
C1466 C1465 1.334 . S
C1466 C1467 1.287 . S
C1467 C1466 1.287 . S
C1467 C1468 1.524 . S
C1467 H1470 0.999 . S
C1468 H1438 0.950 . S
C1468 C1467 1.524 . S
C1468 C1469 1.415 . S
C1469 H1439 0.950 . S
C1469 C1464 1.363 . S
C1469 C1468 1.415 . S
H1470 C1467 0.999 . S
H1471 C1452 0.913 . S
H1472 C1490 0.951 . S
H1473 C1492 0.951 . S
H1474 C1494 0.950 . S
H1475 C1495 0.950 . S
H1476 C1497 0.950 . S
H1477 C1500 0.950 . S
H1478 C1501 0.950 . S
H1479 C1503 0.950 . S
H1480 C1504 0.950 . S
H1481 C1505 0.951 . S
H1482 C1507 0.951 . S
H1483 C1509 0.950 . S
H1484 C1510 0.950 . S
H1485 C1512 0.950 . S
H1486 C1515 0.950 . S
H1487 C1516 0.950 . S
H1488 C1518 0.950 . S
H1489 C1519 0.950 . S
C1490 H1472 0.951 . S
C1490 C1491 1.366 . S
C1490 C1492 1.388 . S
C1491 C1490 1.366 . S
C1491 C1495 1.385 . S
C1492 H1473 0.951 . S
C1492 C1490 1.388 . S
C1492 C1493 1.366 . S
C1493 C1492 1.366 . S
C1493 C1494 1.414 . S
C1493 C1496 1.499 . S
C1494 H1474 0.950 . S
C1494 C1493 1.414 . S
C1494 C1495 1.374 . S
C1495 H1475 0.950 . S
C1495 C1491 1.385 . S
C1495 C1494 1.374 . S
C1496 C1493 1.499 . S
C1496 C1497 1.373 . S
C1496 C1498 1.389 . S
C1497 H1476 0.950 . S
C1497 C1496 1.373 . S
C1497 C1513 1.377 . S
C1498 C1496 1.389 . S
C1498 C1499 1.524 . S
C1498 C1512 1.377 . S
C1499 C1498 1.524 . S
C1499 C1500 1.397 . S
C1499 C1504 1.363 . S
C1500 H1477 0.950 . S
C1500 C1499 1.397 . S
C1500 C1501 1.334 . S
C1501 H1478 0.950 . S
C1501 C1500 1.334 . S
C1501 C1502 1.287 . S
C1502 C1501 1.287 . S
C1502 C1503 1.524 . S
C1502 H1521 0.913 . S
C1503 H1479 0.950 . S
C1503 C1502 1.524 . S
C1503 C1504 1.415 . S
C1504 H1480 0.950 . S
C1504 C1499 1.363 . S
C1504 C1503 1.415 . S
C1505 H1481 0.951 . S
C1505 C1506 1.366 . S
C1505 C1507 1.388 . S
C1506 C1505 1.366 . S
C1506 C1510 1.385 . S
C1507 H1482 0.951 . S
C1507 C1505 1.388 . S
C1507 C1508 1.366 . S
C1508 C1507 1.366 . S
C1508 C1509 1.414 . S
C1508 C1511 1.499 . S
C1509 H1483 0.950 . S
C1509 C1508 1.414 . S
C1509 C1510 1.374 . S
C1510 H1484 0.950 . S
C1510 C1506 1.385 . S
C1510 C1509 1.374 . S
C1511 C1508 1.499 . S
C1511 C1512 1.373 . S
C1511 C1513 1.389 . S
C1512 H1485 0.950 . S
C1512 C1498 1.377 . S
C1512 C1511 1.373 . S
C1513 C1497 1.377 . S
C1513 C1511 1.389 . S
C1513 C1514 1.524 . S
C1514 C1513 1.524 . S
C1514 C1515 1.397 . S
C1514 C1519 1.363 . S
C1515 H1486 0.950 . S
C1515 C1514 1.397 . S
C1515 C1516 1.334 . S
C1516 H1487 0.950 . S
C1516 C1515 1.334 . S
C1516 C1517 1.287 . S
C1517 C1516 1.287 . S
C1517 C1518 1.524 . S
C1517 H1520 0.999 . S
C1518 H1488 0.950 . S
C1518 C1517 1.524 . S
C1518 C1519 1.415 . S
C1519 H1489 0.950 . S
C1519 C1514 1.363 . S
C1519 C1518 1.415 . S
H1520 C1517 0.999 . S
H1521 C1502 0.913 . S
H1522 C1540 0.951 . S
H1523 C1542 0.951 1_545 S
H1524 C1544 0.950 . S
H1525 C1545 0.950 . S
H1526 C1547 0.950 . S
H1527 C1550 0.950 . S
H1528 C1551 0.950 . S
H1529 C1553 0.950 . S
H1530 C1554 0.950 . S
H1531 C1555 0.951 . S
H1532 C1557 0.951 . S
H1533 C1559 0.950 . S
H1534 C1560 0.950 . S
H1535 C1562 0.950 . S
H1536 C1565 0.950 . S
H1537 C1566 0.950 . S
H1538 C1568 0.950 . S
H1539 C1569 0.950 . S
C1540 H1522 0.951 . S
C1540 C1541 1.366 1_545 S
C1540 C1542 1.388 1_545 S
C1541 C1540 1.366 1_565 S
C1541 C1545 1.385 . S
C1542 H1523 0.951 1_565 S
C1542 C1540 1.388 1_565 S
C1542 C1543 1.366 . S
C1543 C1542 1.366 . S
C1543 C1544 1.414 . S
C1543 C1546 1.499 . S
C1544 H1524 0.950 . S
C1544 C1543 1.414 . S
C1544 C1545 1.374 . S
C1545 H1525 0.950 . S
C1545 C1541 1.385 . S
C1545 C1544 1.374 . S
C1546 C1543 1.499 . S
C1546 C1547 1.373 . S
C1546 C1548 1.389 . S
C1547 H1526 0.950 . S
C1547 C1546 1.373 . S
C1547 C1563 1.377 . S
C1548 C1546 1.389 . S
C1548 C1549 1.524 . S
C1548 C1562 1.377 . S
C1549 C1548 1.524 . S
C1549 C1550 1.397 . S
C1549 C1554 1.363 1_565 S
C1550 H1527 0.950 . S
C1550 C1549 1.397 . S
C1550 C1551 1.334 . S
C1551 H1528 0.950 . S
C1551 C1550 1.334 . S
C1551 C1552 1.287 1_565 S
C1552 C1551 1.287 1_545 S
C1552 C1553 1.524 . S
C1552 H1571 0.913 . S
C1553 H1529 0.950 . S
C1553 C1552 1.524 . S
C1553 C1554 1.415 . S
C1554 H1530 0.950 . S
C1554 C1549 1.363 1_545 S
C1554 C1553 1.415 . S
C1555 H1531 0.951 . S
C1555 C1556 1.366 . S
C1555 C1557 1.388 . S
C1556 C1555 1.366 . S
C1556 C1560 1.385 . S
C1557 H1532 0.951 . S
C1557 C1555 1.388 . S
C1557 C1558 1.366 . S
C1558 C1557 1.366 . S
C1558 C1559 1.414 . S
C1558 C1561 1.499 . S
C1559 H1533 0.950 . S
C1559 C1558 1.414 . S
C1559 C1560 1.374 . S
C1560 H1534 0.950 . S
C1560 C1556 1.385 . S
C1560 C1559 1.374 . S
C1561 C1558 1.499 . S
C1561 C1562 1.373 . S
C1561 C1563 1.389 . S
C1562 H1535 0.950 . S
C1562 C1548 1.377 . S
C1562 C1561 1.373 . S
C1563 C1547 1.377 . S
C1563 C1561 1.389 . S
C1563 C1564 1.524 . S
C1564 C1563 1.524 . S
C1564 C1565 1.397 . S
C1564 C1569 1.363 . S
C1565 H1536 0.950 . S
C1565 C1564 1.397 . S
C1565 C1566 1.334 . S
C1566 H1537 0.950 . S
C1566 C1565 1.334 . S
C1566 C1567 1.287 . S
C1567 C1566 1.287 . S
C1567 C1568 1.524 . S
C1567 H1570 0.999 . S
C1568 H1538 0.950 . S
C1568 C1567 1.524 . S
C1568 C1569 1.415 . S
C1569 H1539 0.950 . S
C1569 C1564 1.363 . S
C1569 C1568 1.415 . S
H1570 C1567 0.999 . S
H1571 C1552 0.913 . S
H1572 C1590 0.951 . S
H1573 C1592 0.951 . S
H1574 C1594 0.950 . S
H1575 C1595 0.950 . S
H1576 C1597 0.950 . S
H1577 C1600 0.950 . S
H1578 C1601 0.950 . S
H1579 C1603 0.950 . S
H1580 C1604 0.950 1_556 S
H1581 C1605 0.951 . S
H1582 C1607 0.951 . S
H1583 C1609 0.950 . S
H1584 C1610 0.950 . S
H1585 C1612 0.950 . S
H1586 C1615 0.950 . S
H1587 C1616 0.950 . S
H1588 C1618 0.950 . S
H1589 C1619 0.950 1_554 S
C1590 H1572 0.951 . S
C1590 C1591 1.366 . S
C1590 C1592 1.388 . S
C1591 C1590 1.366 . S
C1591 C1595 1.385 . S
C1592 H1573 0.951 . S
C1592 C1590 1.388 . S
C1592 C1593 1.366 . S
C1593 C1592 1.366 . S
C1593 C1594 1.414 . S
C1593 C1596 1.499 . S
C1594 H1574 0.950 . S
C1594 C1593 1.414 . S
C1594 C1595 1.374 . S
C1595 H1575 0.950 . S
C1595 C1591 1.385 . S
C1595 C1594 1.374 . S
C1596 C1593 1.499 . S
C1596 C1597 1.373 . S
C1596 C1598 1.389 . S
C1597 H1576 0.950 . S
C1597 C1596 1.373 . S
C1597 C1613 1.377 1_554 S
C1598 C1596 1.389 . S
C1598 C1599 1.524 . S
C1598 C1612 1.377 1_554 S
C1599 C1598 1.524 . S
C1599 C1600 1.397 . S
C1599 C1604 1.363 . S
C1600 H1577 0.950 . S
C1600 C1599 1.397 . S
C1600 C1601 1.334 . S
C1601 H1578 0.950 . S
C1601 C1600 1.334 . S
C1601 C1602 1.287 . S
C1602 C1601 1.287 . S
C1602 C1603 1.524 . S
C1602 H1621 0.913 . S
C1603 H1579 0.950 . S
C1603 C1602 1.524 . S
C1603 C1604 1.415 . S
C1604 H1580 0.950 1_554 S
C1604 C1599 1.363 . S
C1604 C1603 1.415 . S
C1605 H1581 0.951 . S
C1605 C1606 1.366 . S
C1605 C1607 1.388 . S
C1606 C1605 1.366 . S
C1606 C1610 1.385 . S
C1607 H1582 0.951 . S
C1607 C1605 1.388 . S
C1607 C1608 1.366 . S
C1608 C1607 1.366 . S
C1608 C1609 1.414 . S
C1608 C1611 1.499 . S
C1609 H1583 0.950 . S
C1609 C1608 1.414 . S
C1609 C1610 1.374 . S
C1610 H1584 0.950 . S
C1610 C1606 1.385 . S
C1610 C1609 1.374 . S
C1611 C1608 1.499 . S
C1611 C1612 1.373 . S
C1611 C1613 1.389 . S
C1612 H1585 0.950 . S
C1612 C1598 1.377 1_556 S
C1612 C1611 1.373 . S
C1613 C1597 1.377 1_556 S
C1613 C1611 1.389 . S
C1613 C1614 1.524 . S
C1614 C1613 1.524 . S
C1614 C1615 1.397 . S
C1614 C1619 1.363 . S
C1615 H1586 0.950 . S
C1615 C1614 1.397 . S
C1615 C1616 1.334 . S
C1616 H1587 0.950 . S
C1616 C1615 1.334 . S
C1616 C1617 1.287 . S
C1617 C1616 1.287 . S
C1617 C1618 1.524 . S
C1617 H1620 0.999 . S
C1618 H1588 0.950 . S
C1618 C1617 1.524 . S
C1618 C1619 1.415 . S
C1619 H1589 0.950 1_556 S
C1619 C1614 1.363 . S
C1619 C1618 1.415 . S
H1620 C1617 0.999 . S
H1621 C1602 0.913 . S
H1622 C1640 0.951 . S
H1623 C1642 0.951 . S
H1624 C1644 0.950 . S
H1625 C1645 0.950 1_455 S
H1626 C1647 0.950 . S
H1627 C1650 0.950 . S
H1628 C1651 0.950 . S
H1629 C1653 0.950 . S
H1630 C1654 0.950 . S
H1631 C1655 0.951 . S
H1632 C1657 0.951 . S
H1633 C1659 0.950 . S
H1634 C1660 0.950 . S
H1635 C1662 0.950 . S
H1636 C1665 0.950 . S
H1637 C1666 0.951 . S
H1638 C1668 0.950 . S
H1639 C1669 0.950 . S
C1640 H1622 0.951 . S
C1640 C1641 1.366 . S
C1640 C1642 1.388 . S
C1641 C1640 1.366 . S
C1641 C1645 1.385 . S
C1642 H1623 0.951 . S
C1642 C1640 1.388 . S
C1642 C1643 1.366 . S
C1643 C1642 1.366 . S
C1643 C1644 1.414 . S
C1643 C1646 1.499 . S
C1644 H1624 0.950 . S
C1644 C1643 1.414 . S
C1644 C1645 1.374 . S
C1645 H1625 0.950 1_655 S
C1645 C1641 1.385 . S
C1645 C1644 1.374 . S
C1646 C1643 1.499 . S
C1646 C1647 1.373 . S
C1646 C1648 1.389 . S
C1647 H1626 0.950 . S
C1647 C1646 1.373 . S
C1647 C1663 1.377 . S
C1648 C1646 1.389 . S
C1648 C1649 1.524 . S
C1648 C1662 1.377 . S
C1649 C1648 1.524 . S
C1649 C1650 1.397 . S
C1649 C1654 1.363 . S
C1650 H1627 0.950 . S
C1650 C1649 1.397 . S
C1650 C1651 1.334 . S
C1651 H1628 0.950 . S
C1651 C1650 1.334 . S
C1651 C1652 1.287 . S
C1652 C1651 1.287 . S
C1652 C1653 1.524 . S
C1652 H1671 0.913 . S
C1653 H1629 0.950 . S
C1653 C1652 1.524 . S
C1653 C1654 1.415 . S
C1654 H1630 0.950 . S
C1654 C1649 1.363 . S
C1654 C1653 1.415 . S
C1655 H1631 0.951 . S
C1655 C1656 1.366 . S
C1655 C1657 1.388 . S
C1656 C1655 1.366 . S
C1656 C1660 1.385 . S
C1657 H1632 0.951 . S
C1657 C1655 1.388 . S
C1657 C1658 1.366 . S
C1658 C1657 1.366 . S
C1658 C1659 1.414 . S
C1658 C1661 1.499 . S
C1659 H1633 0.950 . S
C1659 C1658 1.414 . S
C1659 C1660 1.374 . S
C1660 H1634 0.950 . S
C1660 C1656 1.385 . S
C1660 C1659 1.374 . S
C1661 C1658 1.499 . S
C1661 C1662 1.373 . S
C1661 C1663 1.389 . S
C1662 H1635 0.950 . S
C1662 C1648 1.377 . S
C1662 C1661 1.373 . S
C1663 C1647 1.377 . S
C1663 C1661 1.389 . S
C1663 C1664 1.524 . S
C1664 C1663 1.524 . S
C1664 C1665 1.397 . S
C1664 C1669 1.363 . S
C1665 H1636 0.950 . S
C1665 C1664 1.397 . S
C1665 C1666 1.351 . S
C1666 H1637 0.951 . S
C1666 C1665 1.351 . S
C1666 C1667 1.270 1_655 S
C1667 C1666 1.270 1_455 S
C1667 C1668 1.524 . S
C1667 H1670 0.999 . S
C1668 H1638 0.950 . S
C1668 C1667 1.524 . S
C1668 C1669 1.415 1_455 S
C1669 H1639 0.950 . S
C1669 C1664 1.363 . S
C1669 C1668 1.415 1_655 S
H1670 C1667 0.999 . S
H1671 C1652 0.913 . S
C291 C3 1.272 . S
C306 C158 1.400 . S
C341 C192 1.399 . S
C356 C35 1.272 . S
C391 C226 1.399 . S
C406 C69 1.271 . S
C441 C103 1.272 . S
C456 C253 1.400 . S
C491 C15 1.399 . S
C506 C137 1.271 . S
C541 C56 1.400 . S
C556 C171 1.273 . S
C591 C205 1.271 . S
C606 C90 1.399 . S
C641 C124 1.400 . S
C656 C241 1.272 . S
C691 C40 1.380 . S
C706 C6 1.401 . S
C741 C74 1.379 . S
C756 C62 1.401 . S
C791 C96 1.401 . S
C806 C108 1.380 . S
C841 C130 1.401 . S
C856 C28 1.379 . S
C891 C266 1.380 . S
C906 C164 1.401 . S
C941 C198 1.401 . S
C956 C142 1.379 . S
C991 C232 1.401 . S
C1006 C176 1.379 . S
C1041 C244 1.400 . S
C1056 C210 1.379 . S
C1091 C153 1.870 . S
C1106 C22 1.684 . S
C1141 C187 1.870 . S
C1156 C49 1.685 . S
C1191 C83 1.685 . S
C1206 C221 1.870 . S
C1241 C117 1.684 . S
C1256 C255 1.871 . S
C1291 C151 1.685 . S
C1306 C17 1.870 . S
C1341 C185 1.684 . S
C1356 C51 1.870 . S
C1391 C219 1.686 . S
C1406 C85 1.871 . S
C1441 C260 1.685 . S
C1456 C119 1.870 . S
C1491 C173 2.021 . S
C1506 C1 2.021 . S
C1541 C207 2.021 . S
C1556 C37 2.022 . S
C1591 C239 2.021 . S
C1606 C71 2.022 . S
C1641 C105 2.022 . S
C1656 C139 2.021 . S
