# Generated by pormake.
# Topology ana, (4)-cn, num edge types: 1
# Building blocks:
#     Node 0, Type 0, BuildingBlock: QUQFOY_clean_sbu_3, # of connection points: 4
#     Node 1, Type 0, BuildingBlock: QUQFOY_clean_sbu_3, # of connection points: 4
#     Node 2, Type 0, BuildingBlock: QUQFOY_clean_sbu_3, # of connection points: 4
#     Node 3, Type 0, BuildingBlock: QUQFOY_clean_sbu_3, # of connection points: 4
#     Node 4, Type 0, BuildingBlock: QUQFOY_clean_sbu_3, # of connection points: 4
#     Node 5, Type 0, BuildingBlock: QUQFOY_clean_sbu_3, # of connection points: 4
#     Node 6, Type 0, BuildingBlock: QUQFOY_clean_sbu_3, # of connection points: 4
#     Node 7, Type 0, BuildingBlock: QUQFOY_clean_sbu_3, # of connection points: 4
#     Node 8, Type 0, BuildingBlock: QUQFOY_clean_sbu_3, # of connection points: 4
#     Node 9, Type 0, BuildingBlock: QUQFOY_clean_sbu_3, # of connection points: 4
#     Node 10, Type 0, BuildingBlock: QUQFOY_clean_sbu_3, # of connection points: 4
#     Node 11, Type 0, BuildingBlock: QUQFOY_clean_sbu_3, # of connection points: 4
#     Node 12, Type 0, BuildingBlock: QUQFOY_clean_sbu_3, # of connection points: 4
#     Node 13, Type 0, BuildingBlock: QUQFOY_clean_sbu_3, # of connection points: 4
#     Node 14, Type 0, BuildingBlock: QUQFOY_clean_sbu_3, # of connection points: 4
#     Node 15, Type 0, BuildingBlock: QUQFOY_clean_sbu_3, # of connection points: 4
#     Node 16, Type 0, BuildingBlock: QUQFOY_clean_sbu_3, # of connection points: 4
#     Node 17, Type 0, BuildingBlock: QUQFOY_clean_sbu_3, # of connection points: 4
#     Node 18, Type 0, BuildingBlock: QUQFOY_clean_sbu_3, # of connection points: 4
#     Node 19, Type 0, BuildingBlock: QUQFOY_clean_sbu_3, # of connection points: 4
#     Node 20, Type 0, BuildingBlock: QUQFOY_clean_sbu_3, # of connection points: 4
#     Node 21, Type 0, BuildingBlock: QUQFOY_clean_sbu_3, # of connection points: 4
#     Node 22, Type 0, BuildingBlock: QUQFOY_clean_sbu_3, # of connection points: 4
#     Node 23, Type 0, BuildingBlock: QUQFOY_clean_sbu_3, # of connection points: 4
#     Node 24, Type 0, BuildingBlock: QUQFOY_clean_sbu_3, # of connection points: 4
#     Node 25, Type 0, BuildingBlock: QUQFOY_clean_sbu_3, # of connection points: 4
#     Node 26, Type 0, BuildingBlock: QUQFOY_clean_sbu_3, # of connection points: 4
#     Node 27, Type 0, BuildingBlock: QUQFOY_clean_sbu_3, # of connection points: 4
#     Node 28, Type 0, BuildingBlock: QUQFOY_clean_sbu_3, # of connection points: 4
#     Node 29, Type 0, BuildingBlock: QUQFOY_clean_sbu_3, # of connection points: 4
#     Node 30, Type 0, BuildingBlock: QUQFOY_clean_sbu_3, # of connection points: 4
#     Node 31, Type 0, BuildingBlock: QUQFOY_clean_sbu_3, # of connection points: 4
#     Node 32, Type 0, BuildingBlock: QUQFOY_clean_sbu_3, # of connection points: 4
#     Node 33, Type 0, BuildingBlock: QUQFOY_clean_sbu_3, # of connection points: 4
#     Node 34, Type 0, BuildingBlock: QUQFOY_clean_sbu_3, # of connection points: 4
#     Node 35, Type 0, BuildingBlock: QUQFOY_clean_sbu_3, # of connection points: 4
#     Node 36, Type 0, BuildingBlock: QUQFOY_clean_sbu_3, # of connection points: 4
#     Node 37, Type 0, BuildingBlock: QUQFOY_clean_sbu_3, # of connection points: 4
#     Node 38, Type 0, BuildingBlock: QUQFOY_clean_sbu_3, # of connection points: 4
#     Node 39, Type 0, BuildingBlock: QUQFOY_clean_sbu_3, # of connection points: 4
#     Node 40, Type 0, BuildingBlock: QUQFOY_clean_sbu_3, # of connection points: 4
#     Node 41, Type 0, BuildingBlock: QUQFOY_clean_sbu_3, # of connection points: 4
#     Node 42, Type 0, BuildingBlock: QUQFOY_clean_sbu_3, # of connection points: 4
#     Node 43, Type 0, BuildingBlock: QUQFOY_clean_sbu_3, # of connection points: 4
#     Node 44, Type 0, BuildingBlock: QUQFOY_clean_sbu_3, # of connection points: 4
#     Node 45, Type 0, BuildingBlock: QUQFOY_clean_sbu_3, # of connection points: 4
#     Node 46, Type 0, BuildingBlock: QUQFOY_clean_sbu_3, # of connection points: 4
#     Node 47, Type 0, BuildingBlock: QUQFOY_clean_sbu_3, # of connection points: 4
#     Edge 48, Type (0, 0), BuildingBlock: ZUJKAS_clean_linker_0, # of connection points: 2
#     Edge 49, Type (0, 0), BuildingBlock: ZUJKAS_clean_linker_0, # of connection points: 2
#     Edge 50, Type (0, 0), BuildingBlock: ZUJKAS_clean_linker_0, # of connection points: 2
#     Edge 51, Type (0, 0), BuildingBlock: ZUJKAS_clean_linker_0, # of connection points: 2
#     Edge 52, Type (0, 0), BuildingBlock: ZUJKAS_clean_linker_0, # of connection points: 2
#     Edge 53, Type (0, 0), BuildingBlock: ZUJKAS_clean_linker_0, # of connection points: 2
#     Edge 54, Type (0, 0), BuildingBlock: ZUJKAS_clean_linker_0, # of connection points: 2
#     Edge 55, Type (0, 0), BuildingBlock: ZUJKAS_clean_linker_0, # of connection points: 2
#     Edge 56, Type (0, 0), BuildingBlock: ZUJKAS_clean_linker_0, # of connection points: 2
#     Edge 57, Type (0, 0), BuildingBlock: ZUJKAS_clean_linker_0, # of connection points: 2
#     Edge 58, Type (0, 0), BuildingBlock: ZUJKAS_clean_linker_0, # of connection points: 2
#     Edge 59, Type (0, 0), BuildingBlock: ZUJKAS_clean_linker_0, # of connection points: 2
#     Edge 60, Type (0, 0), BuildingBlock: ZUJKAS_clean_linker_0, # of connection points: 2
#     Edge 61, Type (0, 0), BuildingBlock: ZUJKAS_clean_linker_0, # of connection points: 2
#     Edge 62, Type (0, 0), BuildingBlock: ZUJKAS_clean_linker_0, # of connection points: 2
#     Edge 63, Type (0, 0), BuildingBlock: ZUJKAS_clean_linker_0, # of connection points: 2
#     Edge 64, Type (0, 0), BuildingBlock: ZUJKAS_clean_linker_0, # of connection points: 2
#     Edge 65, Type (0, 0), BuildingBlock: ZUJKAS_clean_linker_0, # of connection points: 2
#     Edge 66, Type (0, 0), BuildingBlock: ZUJKAS_clean_linker_0, # of connection points: 2
#     Edge 67, Type (0, 0), BuildingBlock: ZUJKAS_clean_linker_0, # of connection points: 2
#     Edge 68, Type (0, 0), BuildingBlock: ZUJKAS_clean_linker_0, # of connection points: 2
#     Edge 69, Type (0, 0), BuildingBlock: ZUJKAS_clean_linker_0, # of connection points: 2
#     Edge 70, Type (0, 0), BuildingBlock: ZUJKAS_clean_linker_0, # of connection points: 2
#     Edge 71, Type (0, 0), BuildingBlock: ZUJKAS_clean_linker_0, # of connection points: 2
#     Edge 72, Type (0, 0), BuildingBlock: ZUJKAS_clean_linker_0, # of connection points: 2
#     Edge 73, Type (0, 0), BuildingBlock: ZUJKAS_clean_linker_0, # of connection points: 2
#     Edge 74, Type (0, 0), BuildingBlock: ZUJKAS_clean_linker_0, # of connection points: 2
#     Edge 75, Type (0, 0), BuildingBlock: ZUJKAS_clean_linker_0, # of connection points: 2
#     Edge 76, Type (0, 0), BuildingBlock: ZUJKAS_clean_linker_0, # of connection points: 2
#     Edge 77, Type (0, 0), BuildingBlock: ZUJKAS_clean_linker_0, # of connection points: 2
#     Edge 78, Type (0, 0), BuildingBlock: ZUJKAS_clean_linker_0, # of connection points: 2
#     Edge 79, Type (0, 0), BuildingBlock: ZUJKAS_clean_linker_0, # of connection points: 2
#     Edge 80, Type (0, 0), BuildingBlock: ZUJKAS_clean_linker_0, # of connection points: 2
#     Edge 81, Type (0, 0), BuildingBlock: ZUJKAS_clean_linker_0, # of connection points: 2
#     Edge 82, Type (0, 0), BuildingBlock: ZUJKAS_clean_linker_0, # of connection points: 2
#     Edge 83, Type (0, 0), BuildingBlock: ZUJKAS_clean_linker_0, # of connection points: 2
#     Edge 84, Type (0, 0), BuildingBlock: ZUJKAS_clean_linker_0, # of connection points: 2
#     Edge 85, Type (0, 0), BuildingBlock: ZUJKAS_clean_linker_0, # of connection points: 2
#     Edge 86, Type (0, 0), BuildingBlock: ZUJKAS_clean_linker_0, # of connection points: 2
#     Edge 87, Type (0, 0), BuildingBlock: ZUJKAS_clean_linker_0, # of connection points: 2
#     Edge 88, Type (0, 0), BuildingBlock: ZUJKAS_clean_linker_0, # of connection points: 2
#     Edge 89, Type (0, 0), BuildingBlock: ZUJKAS_clean_linker_0, # of connection points: 2
#     Edge 90, Type (0, 0), BuildingBlock: ZUJKAS_clean_linker_0, # of connection points: 2
#     Edge 91, Type (0, 0), BuildingBlock: ZUJKAS_clean_linker_0, # of connection points: 2
#     Edge 92, Type (0, 0), BuildingBlock: ZUJKAS_clean_linker_0, # of connection points: 2
#     Edge 93, Type (0, 0), BuildingBlock: ZUJKAS_clean_linker_0, # of connection points: 2
#     Edge 94, Type (0, 0), BuildingBlock: ZUJKAS_clean_linker_0, # of connection points: 2
#     Edge 95, Type (0, 0), BuildingBlock: ZUJKAS_clean_linker_0, # of connection points: 2
#     Edge 96, Type (0, 0), BuildingBlock: ZUJKAS_clean_linker_0, # of connection points: 2
#     Edge 97, Type (0, 0), BuildingBlock: ZUJKAS_clean_linker_0, # of connection points: 2
#     Edge 98, Type (0, 0), BuildingBlock: ZUJKAS_clean_linker_0, # of connection points: 2
#     Edge 99, Type (0, 0), BuildingBlock: ZUJKAS_clean_linker_0, # of connection points: 2
#     Edge 100, Type (0, 0), BuildingBlock: ZUJKAS_clean_linker_0, # of connection points: 2
#     Edge 101, Type (0, 0), BuildingBlock: ZUJKAS_clean_linker_0, # of connection points: 2
#     Edge 102, Type (0, 0), BuildingBlock: ZUJKAS_clean_linker_0, # of connection points: 2
#     Edge 103, Type (0, 0), BuildingBlock: ZUJKAS_clean_linker_0, # of connection points: 2
#     Edge 104, Type (0, 0), BuildingBlock: ZUJKAS_clean_linker_0, # of connection points: 2
#     Edge 105, Type (0, 0), BuildingBlock: ZUJKAS_clean_linker_0, # of connection points: 2
#     Edge 106, Type (0, 0), BuildingBlock: ZUJKAS_clean_linker_0, # of connection points: 2
#     Edge 107, Type (0, 0), BuildingBlock: ZUJKAS_clean_linker_0, # of connection points: 2
#     Edge 108, Type (0, 0), BuildingBlock: ZUJKAS_clean_linker_0, # of connection points: 2
#     Edge 109, Type (0, 0), BuildingBlock: ZUJKAS_clean_linker_0, # of connection points: 2
#     Edge 110, Type (0, 0), BuildingBlock: ZUJKAS_clean_linker_0, # of connection points: 2
#     Edge 111, Type (0, 0), BuildingBlock: ZUJKAS_clean_linker_0, # of connection points: 2
#     Edge 112, Type (0, 0), BuildingBlock: ZUJKAS_clean_linker_0, # of connection points: 2
#     Edge 113, Type (0, 0), BuildingBlock: ZUJKAS_clean_linker_0, # of connection points: 2
#     Edge 114, Type (0, 0), BuildingBlock: ZUJKAS_clean_linker_0, # of connection points: 2
#     Edge 115, Type (0, 0), BuildingBlock: ZUJKAS_clean_linker_0, # of connection points: 2
#     Edge 116, Type (0, 0), BuildingBlock: ZUJKAS_clean_linker_0, # of connection points: 2
#     Edge 117, Type (0, 0), BuildingBlock: ZUJKAS_clean_linker_0, # of connection points: 2
#     Edge 118, Type (0, 0), BuildingBlock: ZUJKAS_clean_linker_0, # of connection points: 2
#     Edge 119, Type (0, 0), BuildingBlock: ZUJKAS_clean_linker_0, # of connection points: 2
#     Edge 120, Type (0, 0), BuildingBlock: ZUJKAS_clean_linker_0, # of connection points: 2
#     Edge 121, Type (0, 0), BuildingBlock: ZUJKAS_clean_linker_0, # of connection points: 2
#     Edge 122, Type (0, 0), BuildingBlock: ZUJKAS_clean_linker_0, # of connection points: 2
#     Edge 123, Type (0, 0), BuildingBlock: ZUJKAS_clean_linker_0, # of connection points: 2
#     Edge 124, Type (0, 0), BuildingBlock: ZUJKAS_clean_linker_0, # of connection points: 2
#     Edge 125, Type (0, 0), BuildingBlock: ZUJKAS_clean_linker_0, # of connection points: 2
#     Edge 126, Type (0, 0), BuildingBlock: ZUJKAS_clean_linker_0, # of connection points: 2
#     Edge 127, Type (0, 0), BuildingBlock: ZUJKAS_clean_linker_0, # of connection points: 2
#     Edge 128, Type (0, 0), BuildingBlock: ZUJKAS_clean_linker_0, # of connection points: 2
#     Edge 129, Type (0, 0), BuildingBlock: ZUJKAS_clean_linker_0, # of connection points: 2
#     Edge 130, Type (0, 0), BuildingBlock: ZUJKAS_clean_linker_0, # of connection points: 2
#     Edge 131, Type (0, 0), BuildingBlock: ZUJKAS_clean_linker_0, # of connection points: 2
#     Edge 132, Type (0, 0), BuildingBlock: ZUJKAS_clean_linker_0, # of connection points: 2
#     Edge 133, Type (0, 0), BuildingBlock: ZUJKAS_clean_linker_0, # of connection points: 2
#     Edge 134, Type (0, 0), BuildingBlock: ZUJKAS_clean_linker_0, # of connection points: 2
#     Edge 135, Type (0, 0), BuildingBlock: ZUJKAS_clean_linker_0, # of connection points: 2
#     Edge 136, Type (0, 0), BuildingBlock: ZUJKAS_clean_linker_0, # of connection points: 2
#     Edge 137, Type (0, 0), BuildingBlock: ZUJKAS_clean_linker_0, # of connection points: 2
#     Edge 138, Type (0, 0), BuildingBlock: ZUJKAS_clean_linker_0, # of connection points: 2
#     Edge 139, Type (0, 0), BuildingBlock: ZUJKAS_clean_linker_0, # of connection points: 2
#     Edge 140, Type (0, 0), BuildingBlock: ZUJKAS_clean_linker_0, # of connection points: 2
#     Edge 141, Type (0, 0), BuildingBlock: ZUJKAS_clean_linker_0, # of connection points: 2
#     Edge 142, Type (0, 0), BuildingBlock: ZUJKAS_clean_linker_0, # of connection points: 2
#     Edge 143, Type (0, 0), BuildingBlock: ZUJKAS_clean_linker_0, # of connection points: 2
# Relax obj value: 0.102
# Max RMSD: 0.126
# Mean RMSD: 0.114
data_MOF--net-ana--node1-QUQFOY_clean_sbu_3--edge1-ZUJKAS_clean_linker_0
_symmetry_space_group_name_H-M    P1
_symmetry_Int_Tables_number       1
_symmetry_cell_setting            triclinic
loop_
_symmetry_equiv_pos_as_xyz
'x, y, z'
_cell_length_a     85.039618
_cell_length_b     86.350596
_cell_length_c     86.168806
_cell_angle_alpha  90.213105
_cell_angle_beta   90.320664
_cell_angle_gamma 90.885866
loop_
_atom_site_label
_atom_site_type_symbol
_atom_site_fract_x
_atom_site_fract_y
_atom_site_fract_z
_atom_type_partial_charge
C0 C 0.13479 0.12122 0.37236 0.0
O1 O 0.12377 0.11113 0.3729 0.0
Cd2 Cd 0.09743 0.11711 0.38131 0.0
O3 O 0.13244 0.13508 0.37672 0.0
Cd4 Cd 0.11133 0.15066 0.38754 0.0
C5 C 0.10448 0.12762 0.41874 0.0
O6 O 0.08997 0.14165 0.37045 0.0
O7 O 0.08369 0.15636 0.3897 0.0
O8 O 0.1208 0.17403 0.37448 0.0
C9 C 0.07945 0.14914 0.37753 0.0
O10 O 0.09756 0.11799 0.4097 0.0
C11 C 0.12305 0.18169 0.38694 0.0
O12 O 0.11141 0.13959 0.41337 0.0
O13 O 0.12011 0.17477 0.39958 0.0
C14 C 0.07788 0.87655 0.68019 0.0
O15 O 0.06464 0.88224 0.67673 0.0
Cd16 Cd 0.05327 0.88122 0.65136 0.0
O17 O 0.08595 0.86957 0.66997 0.0
Cd18 Cd 0.08367 0.8623 0.64219 0.0
C19 C 0.08254 0.89962 0.63086 0.0
O20 O 0.05626 0.85492 0.64331 0.0
O21 O 0.06563 0.85647 0.62021 0.0
O22 O 0.09495 0.83735 0.6479 0.0
C23 C 0.05421 0.85278 0.62892 0.0
O24 O 0.06849 0.89969 0.63588 0.0
C25 C 0.10592 0.83834 0.63802 0.0
O26 O 0.09104 0.88773 0.63246 0.0
O27 O 0.10688 0.85077 0.63024 0.0
C28 C 0.33845 0.85817 0.87627 0.0
O29 O 0.34962 0.86812 0.87677 0.0
Cd30 Cd 0.37666 0.86197 0.88297 0.0
O31 O 0.34092 0.84403 0.87943 0.0
Cd32 Cd 0.36211 0.82699 0.88764 0.0
C33 C 0.37207 0.84837 0.91984 0.0
O34 O 0.3823 0.83772 0.87064 0.0
O35 O 0.38941 0.81959 0.88627 0.0
O36 O 0.35058 0.80478 0.87379 0.0
C37 C 0.39318 0.82923 0.87583 0.0
O38 O 0.37786 0.85883 0.91108 0.0
C39 C 0.34863 0.7967 0.88596 0.0
O40 O 0.36508 0.8365 0.91412 0.0
O41 O 0.35282 0.80283 0.89877 0.0
C42 C 0.39408 0.10521 0.17709 0.0
O43 O 0.40805 0.1007 0.17497 0.0
Cd44 Cd 0.42244 0.10434 0.15155 0.0
O45 O 0.38652 0.11187 0.16625 0.0
Cd46 Cd 0.39106 0.11962 0.13887 0.0
C47 C 0.39866 0.08335 0.12675 0.0
O48 O 0.41704 0.1303 0.14423 0.0
O49 O 0.41088 0.12891 0.12006 0.0
O50 O 0.37387 0.14086 0.14531 0.0
C51 C 0.42066 0.13333 0.13036 0.0
O52 O 0.41204 0.08522 0.13324 0.0
C53 C 0.36683 0.14112 0.13229 0.0
O54 O 0.38812 0.09358 0.12799 0.0
O55 O 0.37059 0.13086 0.12245 0.0
C56 C 0.09799 0.86477 0.11922 0.0
O57 O 0.10789 0.86197 0.12989 0.0
Cd58 Cd 0.13278 0.85007 0.12456 0.0
O59 O 0.10089 0.86119 0.10521 0.0
Cd60 Cd 0.12168 0.84901 0.09011 0.0
C61 C 0.12013 0.81538 0.11013 0.0
O62 O 0.14443 0.86223 0.10204 0.0
O63 O 0.14914 0.84322 0.08646 0.0
O64 O 0.11552 0.8654 0.06789 0.0
C65 C 0.15442 0.85437 0.09464 0.0
O66 O 0.12744 0.82229 0.12114 0.0
C67 C 0.11335 0.85413 0.05855 0.0
O68 O 0.11578 0.82279 0.09818 0.0
O69 O 0.11485 0.84062 0.06402 0.0
C70 C 0.42746 0.85605 0.33586 0.0
O71 O 0.42573 0.8486 0.32322 0.0
Cd72 Cd 0.40149 0.84722 0.30941 0.0
O73 O 0.41598 0.8633 0.34178 0.0
Cd74 Cd 0.38793 0.86847 0.33587 0.0
C75 C 0.37898 0.83064 0.33817 0.0
O76 O 0.39302 0.87343 0.3089 0.0
O77 O 0.36851 0.87024 0.31439 0.0
O78 O 0.39499 0.8931 0.34756 0.0
C79 C 0.37884 0.87418 0.30456 0.0
O80 O 0.38511 0.82966 0.32476 0.0
C81 C 0.38178 0.89545 0.35383 0.0
O82 O 0.37922 0.84339 0.34562 0.0
O83 O 0.37131 0.8849 0.35219 0.0
C84 C 0.38622 0.1126 0.615 0.0
O85 O 0.37634 0.11528 0.62563 0.0
Cd86 Cd 0.35229 0.129 0.62114 0.0
O87 O 0.38384 0.11732 0.60123 0.0
Cd88 Cd 0.36403 0.1321 0.58701 0.0
C89 C 0.36752 0.1638 0.60999 0.0
O90 O 0.34009 0.11995 0.59738 0.0
O91 O 0.3373 0.14079 0.5839 0.0
O92 O 0.36796 0.11733 0.56316 0.0
C93 C 0.33094 0.12941 0.59081 0.0
O94 O 0.35948 0.15652 0.62011 0.0
C95 C 0.37143 0.12911 0.55499 0.0
O96 O 0.37172 0.15711 0.59755 0.0
O97 O 0.37188 0.14211 0.56189 0.0
C98 C 0.05461 0.13212 0.83257 0.0
O99 O 0.05726 0.13931 0.82 0.0
Cd100 Cd 0.08153 0.139 0.80633 0.0
O101 O 0.06529 0.12411 0.839 0.0
Cd102 Cd 0.09309 0.11699 0.83452 0.0
C103 C 0.10489 0.15456 0.83534 0.0
O104 O 0.08831 0.11247 0.80741 0.0
O105 O 0.11263 0.11113 0.81401 0.0
O106 O 0.08483 0.09307 0.84691 0.0
C107 C 0.10226 0.10972 0.80346 0.0
O108 O 0.09898 0.1556 0.82177 0.0
C109 C 0.09762 0.09101 0.85421 0.0
O110 O 0.10357 0.14209 0.84311 0.0
O111 O 0.10828 0.10136 0.85276 0.0
C112 C 0.18538 0.40636 0.11367 0.0
O113 O 0.18336 0.41902 0.10651 0.0
Cd114 Cd 0.15928 0.43268 0.10498 0.0
O115 O 0.17406 0.39976 0.12087 0.0
Cd116 Cd 0.14577 0.4041 0.1264 0.0
C117 C 0.13656 0.40363 0.08812 0.0
O118 O 0.14983 0.43125 0.13074 0.0
O119 O 0.12552 0.42424 0.13033 0.0
O120 O 0.15126 0.39275 0.15152 0.0
C121 C 0.13563 0.43506 0.13205 0.0
O122 O 0.14296 0.41705 0.0874 0.0
C123 C 0.13906 0.38411 0.15181 0.0
O124 O 0.13677 0.39588 0.10067 0.0
O125 O 0.12999 0.38454 0.14005 0.0
C126 C 0.67897 0.07841 0.87212 0.0
O127 O 0.67629 0.06542 0.87851 0.0
Cd128 Cd 0.65059 0.05453 0.88049 0.0
O129 O 0.66779 0.08614 0.86619 0.0
Cd130 Cd 0.63889 0.08438 0.86167 0.0
C131 C 0.63291 0.08453 0.90022 0.0
O132 O 0.64022 0.05742 0.85486 0.0
O133 O 0.61671 0.06595 0.85696 0.0
O134 O 0.64714 0.0976 0.83835 0.0
C135 C 0.62562 0.05488 0.85341 0.0
O136 O 0.63853 0.07095 0.90001 0.0
C137 C 0.63478 0.10544 0.83667 0.0
O138 O 0.63191 0.09249 0.88786 0.0
O139 O 0.62426 0.1039 0.84699 0.0
C140 C 0.80499 0.90606 0.37092 0.0
O141 O 0.80878 0.91948 0.37584 0.0
Cd142 Cd 0.83531 0.92834 0.37702 0.0
O143 O 0.81542 0.89697 0.36571 0.0
Cd144 Cd 0.84417 0.89705 0.36057 0.0
C145 C 0.85029 0.89848 0.3989 0.0
O146 O 0.84519 0.92327 0.35169 0.0
O147 O 0.86773 0.91423 0.35813 0.0
O148 O 0.83656 0.88404 0.33678 0.0
C149 C 0.85996 0.92496 0.35182 0.0
O150 O 0.84686 0.91274 0.39778 0.0
C151 C 0.84812 0.87494 0.33642 0.0
O152 O 0.8495 0.88956 0.38712 0.0
O153 O 0.8577 0.87564 0.34777 0.0
C154 C 0.82963 0.04269 0.1282 0.0
O155 O 0.81698 0.04472 0.13565 0.0
Cd156 Cd 0.8021 0.06783 0.13567 0.0
O157 O 0.83566 0.05359 0.12012 0.0
Cd158 Cd 0.82947 0.08094 0.11368 0.0
C159 C 0.82968 0.09304 0.15104 0.0
O160 O 0.80188 0.07521 0.10911 0.0
O161 O 0.80804 0.0994 0.10883 0.0
O162 O 0.84175 0.07541 0.08884 0.0
C163 C 0.79756 0.08896 0.10697 0.0
O164 O 0.8164 0.08614 0.15221 0.0
C165 C 0.84889 0.08838 0.08779 0.0
O166 O 0.83763 0.09212 0.1386 0.0
O167 O 0.8474 0.09774 0.09906 0.0
C168 C 0.32856 0.54184 0.62161 0.0
O169 O 0.31553 0.54419 0.62829 0.0
Cd170 Cd 0.30271 0.56843 0.63026 0.0
O171 O 0.33622 0.55299 0.61536 0.0
Cd172 Cd 0.33278 0.58131 0.61134 0.0
C173 C 0.3309 0.58991 0.64968 0.0
O174 O 0.30536 0.57829 0.60466 0.0
O175 O 0.31326 0.60194 0.60654 0.0
O176 O 0.34618 0.57818 0.58665 0.0
C177 C 0.30218 0.59245 0.60337 0.0
O178 O 0.31712 0.58391 0.64955 0.0
C179 C 0.35525 0.58989 0.58837 0.0
O180 O 0.33947 0.58955 0.63763 0.0
O181 O 0.35414 0.59739 0.601 0.0
C182 C 0.14717 0.55494 0.35796 0.0
O183 O 0.16111 0.55735 0.35326 0.0
Cd184 Cd 0.17424 0.58181 0.35388 0.0
O185 O 0.13924 0.56591 0.36382 0.0
Cd186 Cd 0.14348 0.59386 0.37006 0.0
C187 C 0.14755 0.60238 0.33235 0.0
O188 O 0.17001 0.59116 0.37952 0.0
O189 O 0.16352 0.61454 0.37425 0.0
O190 O 0.12916 0.5888 0.3938 0.0
C191 C 0.17341 0.60544 0.38019 0.0
O192 O 0.16134 0.59697 0.33371 0.0
C193 C 0.12137 0.6012 0.39356 0.0
O194 O 0.13795 0.60178 0.34362 0.0
O195 O 0.12327 0.60995 0.38188 0.0
C196 C 0.30845 0.40727 0.87414 0.0
O197 O 0.31273 0.42025 0.87984 0.0
Cd198 Cd 0.33928 0.42933 0.87893 0.0
O199 O 0.3183 0.39873 0.86717 0.0
Cd200 Cd 0.34635 0.39915 0.85938 0.0
C201 C 0.35686 0.39843 0.89694 0.0
O202 O 0.34643 0.42608 0.85239 0.0
O203 O 0.36943 0.4162 0.8541 0.0
O204 O 0.33566 0.38704 0.83616 0.0
C205 C 0.36107 0.42763 0.85033 0.0
O206 O 0.35319 0.41268 0.89714 0.0
C207 C 0.34721 0.37824 0.83378 0.0
O208 O 0.35478 0.39024 0.88477 0.0
O209 O 0.3583 0.37867 0.84372 0.0
C210 C 0.83847 0.85471 0.60624 0.0
O211 O 0.84961 0.86465 0.60573 0.0
Cd212 Cd 0.87426 0.85933 0.59332 0.0
O213 O 0.84011 0.84127 0.60042 0.0
Cd214 Cd 0.85959 0.82518 0.58729 0.0
C215 C 0.86094 0.84943 0.55667 0.0
O216 O 0.8829 0.83433 0.60141 0.0
O217 O 0.88678 0.81968 0.58145 0.0
O218 O 0.85044 0.80454 0.604 0.0
C219 C 0.89253 0.82726 0.5928 0.0
O220 O 0.86836 0.85882 0.5656 0.0
C221 C 0.84794 0.79471 0.59325 0.0
O222 O 0.85553 0.83657 0.56174 0.0
O223 O 0.85068 0.79913 0.57945 0.0
C224 C 0.86175 0.13974 0.36316 0.0
O225 O 0.8651 0.12976 0.37341 0.0
Cd226 Cd 0.8807 0.10724 0.36838 0.0
O227 O 0.86644 0.13813 0.34925 0.0
Cd228 Cd 0.8814 0.1201 0.33313 0.0
C229 C 0.91451 0.12453 0.35493 0.0
O230 O 0.87139 0.09614 0.34448 0.0
O231 O 0.89017 0.094 0.32786 0.0
O232 O 0.86395 0.12457 0.31113 0.0
C233 C 0.88048 0.08744 0.33689 0.0
O234 O 0.90783 0.11653 0.36547 0.0
C235 C 0.87487 0.12873 0.30195 0.0
O236 O 0.90712 0.12818 0.34262 0.0
O237 O 0.88875 0.12919 0.30744 0.0
C238 C 0.63565 0.13018 0.09916 0.0
O239 O 0.62395 0.12085 0.09926 0.0
Cd240 Cd 0.59794 0.12888 0.09134 0.0
O241 O 0.63396 0.14416 0.09496 0.0
Cd242 Cd 0.61426 0.16223 0.08585 0.0
C243 C 0.60659 0.14003 0.05418 0.0
O244 O 0.59284 0.15377 0.10249 0.0
O245 O 0.58691 0.16973 0.08417 0.0
O246 O 0.6265 0.18196 0.10216 0.0
C247 C 0.58252 0.16196 0.09587 0.0
O248 O 0.59894 0.13095 0.0631 0.0
C249 C 0.62908 0.19151 0.09127 0.0
O250 O 0.61431 0.15163 0.05958 0.0
O251 O 0.62486 0.18737 0.07768 0.0
C252 C 0.6109 0.84307 0.86594 0.0
O253 O 0.6081 0.85392 0.87549 0.0
Cd254 Cd 0.59328 0.87648 0.86859 0.0
O255 O 0.60584 0.84373 0.85203 0.0
Cd256 Cd 0.59075 0.86103 0.8352 0.0
C257 C 0.55826 0.85974 0.85758 0.0
O258 O 0.60259 0.88545 0.84393 0.0
O259 O 0.58216 0.88708 0.82907 0.0
O260 O 0.6073 0.85461 0.81319 0.0
C261 C 0.59328 0.89391 0.8363 0.0
O262 O 0.56547 0.86881 0.867 0.0
C263 C 0.59603 0.85019 0.80444 0.0
O264 O 0.56523 0.85422 0.84581 0.0
O265 O 0.58231 0.85047 0.81016 0.0
C266 C 0.89345 0.14073 0.87561 0.0
O267 O 0.88383 0.14098 0.86428 0.0
Cd268 Cd 0.8564 0.14676 0.86707 0.0
O269 O 0.88878 0.14319 0.88939 0.0
Cd270 Cd 0.86461 0.14839 0.9039 0.0
C271 C 0.85911 0.18236 0.8853 0.0
O272 O 0.84708 0.13184 0.88846 0.0
O273 O 0.83618 0.1463 0.90573 0.0
O274 O 0.87353 0.1303 0.92343 0.0
C275 C 0.83465 0.13608 0.89521 0.0
O276 O 0.85535 0.17428 0.87341 0.0
C277 C 0.87271 0.13971 0.93474 0.0
O278 O 0.86383 0.17595 0.89774 0.0
O279 O 0.86832 0.15336 0.93166 0.0
C280 C 0.60752 0.09797 0.63638 0.0
O281 O 0.6185 0.10765 0.63345 0.0
Cd282 Cd 0.61596 0.13483 0.64009 0.0
O283 O 0.59438 0.10248 0.64153 0.0
Cd284 Cd 0.57949 0.12557 0.64787 0.0
C285 C 0.60402 0.13245 0.67831 0.0
O286 O 0.59153 0.14335 0.62936 0.0
O287 O 0.57537 0.15307 0.64592 0.0
O288 O 0.55784 0.11405 0.63331 0.0
C289 C 0.58472 0.15521 0.6347 0.0
O290 O 0.61466 0.13601 0.66852 0.0
C291 C 0.5481 0.11439 0.64441 0.0
O292 O 0.59048 0.1277 0.67384 0.0
O293 O 0.55297 0.12006 0.65723 0.0
C294 C 0.58785 0.85259 0.37928 0.0
O295 O 0.597 0.85316 0.36769 0.0
Cd296 Cd 0.6239 0.84516 0.36908 0.0
O297 O 0.59287 0.84812 0.39243 0.0
Cd298 Cd 0.61734 0.83972 0.4049 0.0
C299 C 0.61917 0.80785 0.38231 0.0
O300 O 0.63565 0.85708 0.39155 0.0
O301 O 0.64582 0.83869 0.40506 0.0
O302 O 0.61105 0.85597 0.42691 0.0
C303 C 0.64787 0.85074 0.39693 0.0
O304 O 0.62321 0.81697 0.3714 0.0
C305 C 0.61177 0.8453 0.43696 0.0
O306 O 0.61541 0.81312 0.39558 0.0
O307 O 0.61487 0.8318 0.43206 0.0
C308 C 0.87452 0.88445 0.13419 0.0
O309 O 0.8635 0.87437 0.13347 0.0
Cd310 Cd 0.86717 0.84768 0.14089 0.0
O311 O 0.88819 0.88068 0.1387 0.0
Cd312 Cd 0.90271 0.85801 0.14732 0.0
C313 C 0.87939 0.85199 0.17855 0.0
O314 O 0.89123 0.83855 0.12969 0.0
O315 O 0.90642 0.83043 0.14804 0.0
O316 O 0.92539 0.86737 0.13291 0.0
C317 C 0.89805 0.82729 0.1362 0.0
O318 O 0.86868 0.8472 0.16924 0.0
C319 C 0.93458 0.86796 0.14458 0.0
O320 O 0.89238 0.85739 0.17349 0.0
O321 O 0.92887 0.86394 0.15757 0.0
C322 C 0.85545 0.59905 0.84172 0.0
O323 O 0.86744 0.60089 0.85044 0.0
Cd324 Cd 0.86719 0.59733 0.87807 0.0
O325 O 0.84213 0.59535 0.84743 0.0
Cd326 Cd 0.8299 0.59013 0.87274 0.0
C327 C 0.85386 0.55959 0.87915 0.0
O328 O 0.84429 0.61059 0.88651 0.0
O329 O 0.82907 0.59621 0.90042 0.0
O330 O 0.80676 0.60136 0.86056 0.0
C331 C 0.83874 0.60749 0.89976 0.0
O332 O 0.86504 0.56929 0.88163 0.0
C333 C 0.79714 0.59151 0.86617 0.0
O334 O 0.84029 0.56414 0.87504 0.0
O335 O 0.80278 0.58099 0.87471 0.0
C336 C 0.37071 0.86568 0.0837 0.0
O337 O 0.36828 0.85483 0.09335 0.0
Cd338 Cd 0.35701 0.85943 0.11866 0.0
O339 O 0.36716 0.87954 0.08704 0.0
Cd340 Cd 0.35573 0.89474 0.10795 0.0
C341 C 0.32159 0.87394 0.10754 0.0
O342 O 0.36872 0.88238 0.13008 0.0
O343 O 0.35092 0.89934 0.13503 0.0
O344 O 0.37347 0.91606 0.10134 0.0
C345 C 0.36119 0.89014 0.14007 0.0
O346 O 0.329 0.86302 0.11407 0.0
C347 C 0.36266 0.9259 0.09955 0.0
O348 O 0.32875 0.88623 0.10324 0.0
O349 O 0.34861 0.92111 0.10139 0.0
C350 C 0.11358 0.11029 0.58264 0.0
O351 O 0.11414 0.12185 0.59176 0.0
Cd352 Cd 0.12759 0.12024 0.61647 0.0
O353 O 0.11958 0.09752 0.58668 0.0
Cd354 Cd 0.13325 0.08584 0.6086 0.0
C355 C 0.16412 0.11007 0.60422 0.0
O356 O 0.11978 0.09742 0.63081 0.0
O357 O 0.14191 0.08616 0.63526 0.0
O358 O 0.11732 0.06255 0.60506 0.0
C359 C 0.12977 0.09256 0.64061 0.0
O360 O 0.15573 0.12032 0.61067 0.0
C361 C 0.12884 0.05352 0.60344 0.0
O362 O 0.1584 0.09673 0.60105 0.0
O363 O 0.14253 0.05958 0.60411 0.0
C364 C 0.1251 0.87509 0.89582 0.0
O365 O 0.12643 0.86362 0.88669 0.0
Cd366 Cd 0.13678 0.8669 0.8609 0.0
O367 O 0.12907 0.88863 0.89143 0.0
Cd368 Cd 0.1393 0.90232 0.86868 0.0
C369 C 0.17325 0.88263 0.8684 0.0
O370 O 0.12397 0.88848 0.84875 0.0
O371 O 0.14264 0.9037 0.8408 0.0
O372 O 0.12167 0.92338 0.87475 0.0
C373 C 0.13103 0.89491 0.83749 0.0
O374 O 0.16521 0.8711 0.86333 0.0
C375 C 0.13235 0.93378 0.87551 0.0
O376 O 0.16657 0.89514 0.87225 0.0
O377 O 0.14636 0.92952 0.87312 0.0
C378 C 0.62534 0.37283 0.39315 0.0
O379 O 0.62636 0.36282 0.38237 0.0
Cd380 Cd 0.63541 0.3692 0.35658 0.0
O381 O 0.6292 0.3869 0.39072 0.0
Cd382 Cd 0.63901 0.40373 0.36996 0.0
C383 C 0.67233 0.38359 0.3647 0.0
O384 O 0.62294 0.39264 0.34901 0.0
O385 O 0.64071 0.40947 0.34243 0.0
O386 O 0.62206 0.42387 0.37986 0.0
C387 C 0.62938 0.40061 0.3384 0.0
O388 O 0.66385 0.37341 0.35775 0.0
C389 C 0.63283 0.43417 0.38102 0.0
O390 O 0.66617 0.39512 0.37146 0.0
O391 O 0.64664 0.43018 0.37737 0.0
C392 C 0.86839 0.37422 0.63924 0.0
O393 O 0.88149 0.37513 0.63231 0.0
Cd394 Cd 0.88354 0.38548 0.60637 0.0
O395 O 0.85589 0.37844 0.63243 0.0
Cd396 Cd 0.84796 0.38902 0.6074 0.0
C397 C 0.86942 0.4217 0.61171 0.0
O398 O 0.86407 0.37465 0.5887 0.0
O399 O 0.8526 0.39541 0.58078 0.0
O400 O 0.82418 0.37297 0.60624 0.0
C401 C 0.86033 0.38342 0.57749 0.0
O402 O 0.88133 0.41362 0.60833 0.0
C403 C 0.81483 0.38429 0.60676 0.0
O404 O 0.85595 0.41535 0.61336 0.0
O405 O 0.82095 0.39776 0.60762 0.0
C406 C 0.61458 0.61114 0.08422 0.0
O407 O 0.61597 0.62246 0.09359 0.0
Cd408 Cd 0.63014 0.62004 0.11782 0.0
O409 O 0.62041 0.59811 0.08758 0.0
Cd410 Cd 0.63507 0.58557 0.10838 0.0
C411 C 0.66607 0.60989 0.1041 0.0
O412 O 0.62232 0.59664 0.13121 0.0
O413 O 0.64397 0.58436 0.13501 0.0
O414 O 0.61943 0.56219 0.10401 0.0
C415 C 0.63225 0.59118 0.14072 0.0
O416 O 0.6581 0.62006 0.11118 0.0
C417 C 0.63109 0.55355 0.10144 0.0
O418 O 0.66 0.59676 0.10067 0.0
O419 O 0.64467 0.55986 0.10212 0.0
C420 C 0.63519 0.62691 0.8768 0.0
O421 O 0.62342 0.61786 0.87488 0.0
Cd422 Cd 0.59735 0.6247 0.88336 0.0
O423 O 0.63349 0.64038 0.88251 0.0
Cd424 Cd 0.61287 0.6576 0.89172 0.0
C425 C 0.60376 0.63375 0.92162 0.0
O426 O 0.59195 0.65015 0.87352 0.0
O427 O 0.58548 0.66479 0.89275 0.0
O428 O 0.62497 0.68016 0.87938 0.0
C429 C 0.58142 0.65787 0.88034 0.0
O430 O 0.59726 0.62445 0.91193 0.0
C431 C 0.62682 0.68774 0.89194 0.0
O432 O 0.6109 0.64593 0.91702 0.0
O433 O 0.62239 0.68116 0.90435 0.0
C434 C 0.58578 0.38147 0.17835 0.0
O435 O 0.57279 0.38747 0.17451 0.0
Cd436 Cd 0.5596 0.38377 0.15027 0.0
O437 O 0.59327 0.37301 0.16884 0.0
Cd438 Cd 0.58973 0.36427 0.14149 0.0
C439 C 0.58736 0.40062 0.12716 0.0
O440 O 0.56243 0.35682 0.14479 0.0
O441 O 0.57052 0.35644 0.12119 0.0
O442 O 0.60344 0.34046 0.14771 0.0
C443 C 0.55964 0.35343 0.13075 0.0
O444 O 0.57336 0.40089 0.1323 0.0
C445 C 0.61263 0.34114 0.13615 0.0
O446 O 0.59615 0.38915 0.12985 0.0
O447 O 0.61148 0.35286 0.1274 0.0
C448 C 0.83827 0.35759 0.37383 0.0
O449 O 0.84917 0.36746 0.37125 0.0
Cd450 Cd 0.87639 0.36209 0.37757 0.0
O451 O 0.84147 0.34411 0.37869 0.0
Cd452 Cd 0.86367 0.32774 0.38527 0.0
C453 C 0.87285 0.3513 0.41563 0.0
O454 O 0.8831 0.33734 0.36668 0.0
O455 O 0.89134 0.3221 0.38473 0.0
O456 O 0.85189 0.30493 0.37271 0.0
C457 C 0.89443 0.33005 0.37276 0.0
O458 O 0.87801 0.36138 0.40607 0.0
C459 C 0.85106 0.2971 0.38516 0.0
O460 O 0.8665 0.33873 0.41085 0.0
O461 O 0.85607 0.3036 0.3975 0.0
C462 C 0.89539 0.60564 0.68201 0.0
O463 O 0.90921 0.60059 0.68024 0.0
Cd464 Cd 0.92407 0.60278 0.657 0.0
O465 O 0.88827 0.61235 0.6709 0.0
Cd466 Cd 0.89357 0.61941 0.64348 0.0
C467 C 0.89894 0.5822 0.63316 0.0
O468 O 0.91993 0.62874 0.64906 0.0
O469 O 0.91428 0.62708 0.62479 0.0
O470 O 0.87731 0.64152 0.64928 0.0
C471 C 0.92406 0.63118 0.63523 0.0
O472 O 0.91242 0.58353 0.63955 0.0
C473 C 0.87051 0.64187 0.63614 0.0
O474 O 0.88913 0.59316 0.6338 0.0
O475 O 0.87402 0.63134 0.62649 0.0
C476 C 0.59266 0.3637 0.61402 0.0
O477 O 0.60285 0.36223 0.62473 0.0
Cd478 Cd 0.62871 0.35204 0.62036 0.0
O479 O 0.59563 0.35942 0.60021 0.0
Cd480 Cd 0.61712 0.34733 0.58593 0.0
C481 C 0.61847 0.31562 0.60884 0.0
O482 O 0.63878 0.36294 0.59669 0.0
O483 O 0.64512 0.34298 0.58308 0.0
O484 O 0.61038 0.36112 0.56211 0.0
C485 C 0.64948 0.35511 0.59031 0.0
O486 O 0.62594 0.32379 0.61884 0.0
C487 C 0.60867 0.34891 0.55395 0.0
O488 O 0.61286 0.32174 0.59665 0.0
O489 O 0.61064 0.33609 0.56078 0.0
C490 C 0.9288 0.35922 0.83475 0.0
O491 O 0.92644 0.35073 0.82287 0.0
Cd492 Cd 0.90224 0.34833 0.80909 0.0
O493 O 0.91777 0.36735 0.84037 0.0
Cd494 Cd 0.8896 0.37297 0.83496 0.0
C495 C 0.87936 0.33532 0.83953 0.0
O496 O 0.89428 0.37442 0.80773 0.0
O497 O 0.86983 0.37525 0.81352 0.0
O498 O 0.89719 0.3984 0.84463 0.0
C499 C 0.88028 0.37577 0.8031 0.0
O500 O 0.88549 0.33307 0.82627 0.0
C501 C 0.88452 0.40085 0.85188 0.0
O502 O 0.88006 0.34859 0.84603 0.0
O503 O 0.87413 0.39012 0.85152 0.0
C504 C 0.88637 0.61594 0.11481 0.0
O505 O 0.87548 0.61807 0.12458 0.0
Cd506 Cd 0.85136 0.63106 0.11856 0.0
O507 O 0.88495 0.6207 0.10092 0.0
Cd508 Cd 0.86564 0.63449 0.08504 0.0
C509 C 0.86576 0.6664 0.10808 0.0
O510 O 0.84182 0.62122 0.09399 0.0
O511 O 0.83859 0.6414 0.0797 0.0
O512 O 0.87212 0.62061 0.06117 0.0
C513 C 0.8325 0.62992 0.08666 0.0
O514 O 0.85753 0.6589 0.1179 0.0
C515 C 0.87587 0.6328 0.05374 0.0
O516 O 0.87089 0.65977 0.09598 0.0
O517 O 0.87529 0.64553 0.06108 0.0
C518 C 0.55102 0.62463 0.32806 0.0
O519 O 0.55369 0.6318 0.31548 0.0
Cd520 Cd 0.57885 0.63373 0.30357 0.0
O521 O 0.56211 0.61798 0.33537 0.0
Cd522 Cd 0.59081 0.61345 0.33309 0.0
C523 C 0.59885 0.65195 0.3336 0.0
O524 O 0.58803 0.60799 0.30593 0.0
O525 O 0.61198 0.60855 0.31391 0.0
O526 O 0.58341 0.58967 0.34625 0.0
C527 C 0.60237 0.60625 0.30281 0.0
O528 O 0.59345 0.65224 0.31979 0.0
C529 C 0.596 0.58862 0.35411 0.0
O530 O 0.59852 0.63951 0.34149 0.0
O531 O 0.60619 0.59939 0.35251 0.0
C532 C 0.68262 0.90662 0.61984 0.0
O533 O 0.68116 0.91926 0.61253 0.0
Cd534 Cd 0.65656 0.93121 0.60797 0.0
O535 O 0.67062 0.89969 0.6255 0.0
Cd536 Cd 0.64187 0.90396 0.62779 0.0
C537 C 0.63686 0.90141 0.58919 0.0
O538 O 0.64437 0.93131 0.63289 0.0
O539 O 0.62094 0.92375 0.62674 0.0
O540 O 0.64442 0.89365 0.65379 0.0
C541 C 0.63 0.93455 0.6315 0.0
O542 O 0.64277 0.91504 0.58863 0.0
C543 C 0.63257 0.88458 0.65296 0.0
O544 O 0.63607 0.89414 0.60198 0.0
O545 O 0.6249 0.88443 0.64027 0.0
C546 C 0.34245 0.35362 0.09982 0.0
O547 O 0.35356 0.3636 0.1004 0.0
Cd548 Cd 0.37928 0.35806 0.09033 0.0
O549 O 0.34481 0.34014 0.0944 0.0
Cd550 Cd 0.36552 0.32375 0.0839 0.0
C551 C 0.36963 0.34715 0.05286 0.0
O552 O 0.38723 0.33336 0.10008 0.0
O553 O 0.39317 0.31814 0.0811 0.0
O554 O 0.35416 0.30377 0.10015 0.0
C555 C 0.39771 0.32606 0.09275 0.0
O556 O 0.37609 0.35688 0.06215 0.0
C557 C 0.3529 0.2936 0.08953 0.0
O558 O 0.3639 0.33438 0.05781 0.0
O559 O 0.35747 0.29747 0.07605 0.0
C560 C 0.36381 0.64011 0.86267 0.0
O561 O 0.36715 0.6304 0.87316 0.0
Cd562 Cd 0.3847 0.6093 0.86846 0.0
O563 O 0.36925 0.63855 0.84904 0.0
Cd564 Cd 0.3856 0.62063 0.83417 0.0
C565 C 0.41763 0.62874 0.8559 0.0
O566 O 0.37706 0.59575 0.84511 0.0
O567 O 0.39814 0.59584 0.83119 0.0
O568 O 0.36763 0.62207 0.81222 0.0
C569 C 0.38777 0.58812 0.83846 0.0
O570 O 0.41126 0.62037 0.86634 0.0
C571 C 0.37798 0.62642 0.80254 0.0
O572 O 0.41031 0.63166 0.84336 0.0
O573 O 0.39187 0.62846 0.8077 0.0
C574 C 0.13993 0.63333 0.59063 0.0
O575 O 0.12905 0.6232 0.59206 0.0
Cd576 Cd 0.10182 0.62917 0.58704 0.0
O577 O 0.1367 0.64713 0.58682 0.0
Cd578 Cd 0.11454 0.66385 0.58082 0.0
C579 C 0.1044 0.64214 0.54943 0.0
O580 O 0.09607 0.65321 0.59986 0.0
O581 O 0.08715 0.66998 0.58362 0.0
O582 O 0.13019 0.68307 0.595 0.0
C583 C 0.0846 0.66119 0.59509 0.0
O584 O 0.09958 0.63184 0.5589 0.0
C585 C 0.12808 0.69386 0.58529 0.0
O586 O 0.11114 0.65453 0.55429 0.0
O587 O 0.11981 0.69064 0.57335 0.0
C588 C 0.10936 0.34105 0.3673 0.0
O589 O 0.1059 0.35064 0.37791 0.0
Cd590 Cd 0.09282 0.37458 0.37268 0.0
O591 O 0.10594 0.34386 0.35319 0.0
Cd592 Cd 0.09345 0.36421 0.33772 0.0
C593 C 0.05848 0.36165 0.35625 0.0
O594 O 0.10572 0.38642 0.3508 0.0
O595 O 0.0872 0.39146 0.33442 0.0
O596 O 0.11139 0.36008 0.31607 0.0
C597 C 0.09796 0.39646 0.34343 0.0
O598 O 0.06497 0.36848 0.3678 0.0
C599 C 0.1006 0.35661 0.30635 0.0
O600 O 0.06651 0.35799 0.34443 0.0
O601 O 0.08658 0.35655 0.31131 0.0
C602 C 0.39211 0.63015 0.37927 0.0
O603 O 0.38094 0.63001 0.36941 0.0
Cd604 Cd 0.35483 0.6387 0.37545 0.0
O605 O 0.38982 0.63468 0.39313 0.0
Cd606 Cd 0.36924 0.6441 0.41039 0.0
C607 C 0.36317 0.67585 0.38813 0.0
O608 O 0.34785 0.62816 0.40011 0.0
O609 O 0.34162 0.64516 0.41737 0.0
O610 O 0.37952 0.6278 0.43078 0.0
C611 C 0.33724 0.63448 0.40812 0.0
O612 O 0.35705 0.66676 0.37801 0.0
C613 C 0.38201 0.63872 0.44042 0.0
O614 O 0.36921 0.6706 0.40057 0.0
O615 O 0.37877 0.65233 0.43598 0.0
C616 C 0.10596 0.59731 0.13035 0.0
O617 O 0.11737 0.60691 0.12934 0.0
Cd618 Cd 0.11491 0.63379 0.13686 0.0
O619 O 0.09265 0.60167 0.13522 0.0
Cd620 Cd 0.07917 0.62461 0.14453 0.0
C621 C 0.10458 0.62904 0.17484 0.0
O622 O 0.09052 0.64352 0.12663 0.0
O623 O 0.07614 0.65234 0.14519 0.0
O624 O 0.05542 0.61552 0.1313 0.0
C625 C 0.08427 0.65507 0.1332 0.0
O626 O 0.11498 0.63367 0.16526 0.0
C627 C 0.04714 0.61484 0.14352 0.0
O628 O 0.0911 0.62441 0.17014 0.0
O629 O 0.05377 0.6189 0.15617 0.0
C630 C 0.09031 0.3549 0.87728 0.0
O631 O 0.09978 0.35529 0.86595 0.0
Cd632 Cd 0.1267 0.34746 0.86844 0.0
O633 O 0.09496 0.35064 0.89063 0.0
Cd634 Cd 0.1191 0.3424 0.90381 0.0
C635 C 0.12181 0.31029 0.88176 0.0
O636 O 0.13796 0.35978 0.89103 0.0
O637 O 0.14751 0.34135 0.90492 0.0
O638 O 0.11139 0.35836 0.92561 0.0
C639 C 0.14994 0.35341 0.8969 0.0
O640 O 0.12622 0.31926 0.87087 0.0
C641 C 0.11243 0.34774 0.93569 0.0
O642 O 0.11751 0.31575 0.89478 0.0
O643 O 0.11638 0.33444 0.93088 0.0
C644 C 0.36928 0.38288 0.62754 0.0
O645 O 0.35842 0.37263 0.6271 0.0
Cd646 Cd 0.36238 0.3465 0.63618 0.0
O647 O 0.38282 0.37964 0.63281 0.0
Cd648 Cd 0.39715 0.35785 0.64374 0.0
C649 C 0.37232 0.35363 0.67406 0.0
O650 O 0.3871 0.33699 0.62684 0.0
O651 O 0.40106 0.33048 0.64676 0.0
O652 O 0.42001 0.3666 0.62935 0.0
C653 C 0.39372 0.32638 0.63456 0.0
O654 O 0.3624 0.3478 0.66448 0.0
C655 C 0.42902 0.3679 0.64109 0.0
O656 O 0.38543 0.35915 0.66941 0.0
O657 O 0.42313 0.36463 0.65421 0.0
C658 C 0.35661 0.09749 0.33757 0.0
O659 O 0.36856 0.09872 0.34642 0.0
Cd660 Cd 0.36797 0.09326 0.37385 0.0
O661 O 0.34325 0.09363 0.34305 0.0
Cd662 Cd 0.33097 0.08723 0.368 0.0
C663 C 0.35389 0.05581 0.37309 0.0
O664 O 0.34546 0.10583 0.38434 0.0
O665 O 0.33051 0.08917 0.39601 0.0
O666 O 0.30781 0.10166 0.3605 0.0
C667 C 0.3398 0.10075 0.39697 0.0
O668 O 0.36528 0.06512 0.37606 0.0
C669 C 0.29825 0.09032 0.36194 0.0
O670 O 0.3405 0.06085 0.36902 0.0
O671 O 0.30397 0.07747 0.36609 0.0
H672 H 0.11636 0.32993 0.39625 0.0
H673 H 0.12545 0.30399 0.40277 0.0
H674 H 0.12726 0.29237 0.3541 0.0
H675 H 0.11846 0.31822 0.34745 0.0
H676 H 0.1084 0.27808 0.39535 0.0
H677 H 0.16774 0.27377 0.37001 0.0
H678 H 0.1584 0.29212 0.37337 0.0
H679 H 0.15371 0.28088 0.35627 0.0
C680 C 0.11901 0.32196 0.38692 0.0
C681 C 0.11657 0.32611 0.37133 0.0
C682 C 0.12423 0.30717 0.39068 0.0
C683 C 0.12724 0.29634 0.37891 0.0
C684 C 0.1254 0.30066 0.36335 0.0
H685 H 0.12654 0.20041 0.36168 0.0
H686 H 0.13032 0.22854 0.36169 0.0
C687 C 0.12019 0.31541 0.35958 0.0
C688 C 0.13015 0.27996 0.38279 0.0
H689 H 0.15373 0.24951 0.37416 0.0
C690 C 0.11849 0.27188 0.39104 0.0
C691 C 0.1433 0.27193 0.37708 0.0
C692 C 0.15657 0.28017 0.36882 0.0
C693 C 0.1191 0.2558 0.39291 0.0
C694 C 0.1319 0.24766 0.3866 0.0
C695 C 0.14393 0.25582 0.37895 0.0
C696 C 0.13214 0.23056 0.38668 0.0
C697 C 0.10557 0.24755 0.40082 0.0
C698 C 0.13249 0.22238 0.4007 0.0
C699 C 0.1302 0.20634 0.40074 0.0
C700 C 0.12767 0.19823 0.38674 0.0
C701 C 0.12837 0.20635 0.37266 0.0
C702 C 0.13058 0.2224 0.37263 0.0
H703 H 0.09529 0.25518 0.40237 0.0
H704 H 0.10174 0.23718 0.39405 0.0
H705 H 0.10942 0.24363 0.41247 0.0
H706 H 0.13394 0.22849 0.41163 0.0
H707 H 0.12989 0.20037 0.41178 0.0
H708 H 0.02934 0.84169 0.64528 0.0
H709 H 0.00299 0.83543 0.63562 0.0
H710 H 0.01738 0.84698 0.58911 0.0
H711 H 0.04396 0.85329 0.59872 0.0
H712 H 0.98928 0.86175 0.59989 0.0
H713 H 0.98731 0.79821 0.6089 0.0
H714 H -0.0056 0.80895 0.62547 0.0
H715 H 0.00553 0.8092 0.60779 0.0
C716 C 0.02698 0.84275 0.63295 0.0
C717 C 0.03869 0.84801 0.62273 0.0
C718 C 0.01194 0.83907 0.62746 0.0
C719 C 0.00835 0.84057 0.61166 0.0
C720 C 0.02003 0.84564 0.60134 0.0
H721 H 0.91548 0.81296 0.57636 0.0
H722 H 0.94396 0.81629 0.57932 0.0
C723 C 0.03517 0.84923 0.60682 0.0
C724 C -0.00797 0.83786 0.60629 0.0
H725 H 0.96248 0.8107 0.60606 0.0
C726 C 0.98345 0.85055 0.601 0.0
C727 C 0.98455 0.8232 0.60765 0.0
C728 C -0.00655 0.80906 0.61262 0.0
C729 C 0.96732 0.84912 0.59773 0.0
C730 C 0.95965 0.83468 0.6 0.0
C731 C 0.96839 0.82181 0.60454 0.0
C732 C 0.94246 0.83279 0.59817 0.0
C733 C 0.95859 0.8631 0.59205 0.0
C734 C 0.93225 0.84078 0.608 0.0
C735 C 0.91599 0.83887 0.6064 0.0
C736 C 0.9097 0.8289 0.59495 0.0
C737 C 0.91998 0.82075 0.58526 0.0
C738 C 0.93623 0.82264 0.58691 0.0
H739 H 0.96671 0.87194 0.58705 0.0
H740 H 0.94967 0.85977 0.58314 0.0
H741 H 0.9524 0.86849 0.60196 0.0
H742 H 0.93688 0.84844 0.61696 0.0
H743 H 0.90836 0.84527 0.61405 0.0
H744 H 0.34306 0.77902 0.8601 0.0
H745 H 0.33755 0.7512 0.85915 0.0
H746 H 0.33555 0.74994 0.90914 0.0
H747 H 0.34139 0.77772 0.91021 0.0
H748 H 0.35665 0.73034 0.89763 0.0
H749 H 0.3006 0.72193 0.86575 0.0
H750 H 0.31389 0.73456 0.85556 0.0
H751 H 0.30646 0.74034 0.8742 0.0
C752 C 0.34108 0.77289 0.87087 0.0
C753 C 0.34282 0.78051 0.88523 0.0
C754 C 0.33778 0.75701 0.87031 0.0
C755 C 0.33595 0.74853 0.88407 0.0
C756 C 0.33682 0.75629 0.89839 0.0
H757 H 0.35143 0.64838 0.89081 0.0
H758 H 0.34069 0.67358 0.89788 0.0
C759 C 0.34021 0.77215 0.89897 0.0
C760 C 0.3357 0.73139 0.88355 0.0
H761 H 0.31846 0.70027 0.86538 0.0
C762 C 0.34807 0.72369 0.89091 0.0
C763 C 0.32452 0.72279 0.87473 0.0
C764 C 0.31053 0.73033 0.86725 0.0
C765 C 0.35022 0.70778 0.88883 0.0
C766 C 0.33948 0.69929 0.87937 0.0
C767 C 0.32663 0.70683 0.87265 0.0
C768 C 0.34269 0.68314 0.87478 0.0
C769 C 0.36457 0.70044 0.89591 0.0
C770 C 0.34646 0.67993 0.85931 0.0
C771 C 0.35248 0.66557 0.85521 0.0
C772 C 0.35486 0.65415 0.86655 0.0
C773 C 0.34993 0.65699 0.88184 0.0
C774 C 0.34382 0.67138 0.88591 0.0
H775 H 0.37307 0.7092 0.90059 0.0
H776 H 0.3609 0.69281 0.90561 0.0
H777 H 0.3707 0.69324 0.88719 0.0
H778 H 0.34562 0.68885 0.85054 0.0
H779 H 0.35598 0.66372 0.84328 0.0
H780 H 0.43352 0.13655 0.10149 0.0
H781 H 0.4608 0.14365 0.09536 0.0
H782 H 0.47093 0.14994 0.14409 0.0
H783 H 0.44374 0.14296 0.15033 0.0
H784 H 0.4839 0.17351 0.12387 0.0
H785 H 0.49718 0.11331 0.10537 0.0
H786 H 0.48056 0.12201 0.09604 0.0
H787 H 0.47992 0.11799 0.11645 0.0
C788 C 0.44152 0.1396 0.11088 0.0
C789 C 0.43656 0.13905 0.1264 0.0
C790 C 0.45708 0.14359 0.10736 0.0
C791 C 0.46785 0.14708 0.11931 0.0
C792 C 0.46276 0.14721 0.13474 0.0
H793 H 0.5692 0.1438 0.11827 0.0
H794 H 0.54124 0.14119 0.12448 0.0
C795 C 0.44725 0.14319 0.13827 0.0
C796 C 0.48462 0.14989 0.11586 0.0
H797 H 0.51753 0.13201 0.10284 0.0
C798 C 0.49128 0.16448 0.11922 0.0
C799 C 0.49417 0.13796 0.11004 0.0
C800 C 0.48769 0.12188 0.10686 0.0
C801 C 0.50732 0.16753 0.11677 0.0
C802 C 0.51681 0.15568 0.11071 0.0
C803 C 0.51015 0.14106 0.10745 0.0
C804 C 0.53372 0.15813 0.10766 0.0
C805 C 0.51407 0.18326 0.12095 0.0
C806 C 0.53868 0.16854 0.09619 0.0
C807 C 0.55461 0.17005 0.0926 0.0
C808 C 0.56583 0.16111 0.1004 0.0
C809 C 0.56084 0.15087 0.11208 0.0
C810 C 0.54489 0.14935 0.11563 0.0
H811 H 0.50613 0.18981 0.12869 0.0
H812 H 0.52569 0.18218 0.12677 0.0
H813 H 0.5158 0.19009 0.11019 0.0
H814 H 0.53018 0.17523 0.08975 0.0
H815 H 0.5581 0.17801 0.08352 0.0
H816 H 0.07253 0.68144 0.14563 0.0
H817 H 0.07886 0.70809 0.13854 0.0
H818 H 0.1094 0.69187 0.10234 0.0
H819 H 0.10329 0.66499 0.10954 0.0
H820 H 0.1232 0.71451 0.12112 0.0
H821 H 0.06443 0.7328 0.10103 0.0
H822 H 0.06387 0.72413 0.11992 0.0
H823 H 0.06946 0.7127 0.10339 0.0
C824 C 0.08048 0.6835 0.13605 0.0
C825 C 0.0874 0.67112 0.12811 0.0
C826 C 0.084 0.69875 0.13195 0.0
C827 C 0.09439 0.70192 0.11976 0.0
C828 C 0.10126 0.68962 0.11171 0.0
H829 H 0.1077 0.79668 0.08743 0.0
H830 H 0.10255 0.76883 0.08859 0.0
C831 C 0.09773 0.6743 0.11582 0.0
C832 C 0.09869 0.71815 0.11613 0.0
H833 H 0.08283 0.75316 0.10765 0.0
C834 C 0.11443 0.72294 0.11797 0.0
C835 C 0.08725 0.72906 0.11183 0.0
C836 C 0.07034 0.72439 0.10877 0.0
C837 C 0.11893 0.73853 0.11626 0.0
C838 C 0.1073 0.7496 0.11293 0.0
C839 C 0.09168 0.74468 0.11044 0.0
C840 C 0.111 0.76637 0.11216 0.0
C841 C 0.13607 0.743 0.11804 0.0
C842 C 0.11731 0.77423 0.12511 0.0
C843 C 0.12034 0.79016 0.12449 0.0
C844 C 0.11691 0.79853 0.11095 0.0
C845 C 0.11046 0.7906 0.09806 0.0
C846 C 0.10752 0.77468 0.09867 0.0
H847 H 0.14381 0.73297 0.11593 0.0
H848 H 0.13941 0.75244 0.10992 0.0
H849 H 0.13827 0.74715 0.13007 0.0
H850 H 0.11971 0.76808 0.13578 0.0
H851 H 0.12522 0.79593 0.13465 0.0
H852 H 0.4532 0.83914 0.32857 0.0
H853 H 0.47937 0.84096 0.34017 0.0
H854 H 0.4635 0.87622 0.37173 0.0
H855 H 0.43712 0.87452 0.36015 0.0
H856 H 0.49234 0.88331 0.35503 0.0
H857 H 0.49329 0.82608 0.38397 0.0
H858 H 0.48685 0.82522 0.36409 0.0
H859 H 0.47526 0.83529 0.37816 0.0
C860 C 0.45519 0.84722 0.33805 0.0
C861 C 0.44307 0.85667 0.34345 0.0
C862 C 0.47014 0.84818 0.34471 0.0
C863 C 0.47325 0.85859 0.35689 0.0
C864 C 0.46123 0.86805 0.36238 0.0
H865 H 0.56526 0.85292 0.40169 0.0
H866 H 0.5371 0.85696 0.39821 0.0
C867 C 0.44619 0.86703 0.35578 0.0
C868 C 0.48932 0.85995 0.3633 0.0
H869 H 0.51825 0.8385 0.37971 0.0
C870 C 0.49798 0.87364 0.36067 0.0
C871 C 0.49651 0.84737 0.37081 0.0
C872 C 0.48747 0.8327 0.37458 0.0
C873 C 0.51399 0.87474 0.3646 0.0
C874 C 0.52144 0.86175 0.37113 0.0
C875 C 0.51253 0.8484 0.37456 0.0
C876 C 0.53863 0.86128 0.37355 0.0
C877 C 0.52283 0.88968 0.36151 0.0
C878 C 0.5488 0.86248 0.36083 0.0
C879 C 0.5649 0.86016 0.36276 0.0
C880 C 0.57108 0.85645 0.37742 0.0
C881 C 0.56089 0.8557 0.39022 0.0
C882 C 0.5448 0.85804 0.38828 0.0
H883 H 0.51477 0.89968 0.36113 0.0
H884 H 0.53199 0.89193 0.3705 0.0
H885 H 0.5287 0.88887 0.35007 0.0
H886 H 0.54421 0.86464 0.3493 0.0
H887 H 0.57241 0.86079 0.35266 0.0
H888 H 0.38217 0.18336 0.58963 0.0
H889 H 0.38728 0.21107 0.59275 0.0
H890 H 0.36691 0.20963 0.63846 0.0
H891 H 0.36146 0.18189 0.63537 0.0
H892 H 0.35566 0.23347 0.62025 0.0
H893 H 0.42092 0.23245 0.61949 0.0
H894 H 0.41169 0.2231 0.6031 0.0
H895 H 0.409 0.21521 0.62219 0.0
C896 C 0.37889 0.18888 0.60042 0.0
C897 C 0.37144 0.18039 0.61228 0.0
C898 C 0.38189 0.20471 0.60219 0.0
C899 C 0.37766 0.21233 0.6159 0.0
C900 C 0.37031 0.20392 0.62781 0.0
H901 H 0.40563 0.30182 0.65009 0.0
H902 H 0.40152 0.27439 0.64443 0.0
C903 C 0.36724 0.18807 0.62603 0.0
C904 C 0.38038 0.22919 0.61763 0.0
H905 H 0.40915 0.25715 0.61856 0.0
C906 C 0.36735 0.23868 0.61989 0.0
C907 C 0.39566 0.23587 0.61723 0.0
C908 C 0.41015 0.22614 0.61551 0.0
C909 C 0.36917 0.25473 0.62183 0.0
C910 C 0.38442 0.26144 0.62117 0.0
C911 C 0.39746 0.25195 0.61887 0.0
C912 C 0.38723 0.27815 0.62398 0.0
C913 C 0.35483 0.26429 0.62501 0.0
C914 C 0.38076 0.28935 0.61417 0.0
C915 C 0.38302 0.30511 0.61742 0.0
C916 C 0.39189 0.30984 0.63046 0.0
C917 C 0.3987 0.29856 0.63998 0.0
C918 C 0.39639 0.28287 0.63676 0.0
H919 H 0.3446 0.25699 0.62856 0.0
H920 H 0.35729 0.27298 0.63428 0.0
H921 H 0.3515 0.27059 0.61432 0.0
H922 H 0.3739 0.2859 0.60407 0.0
H923 H 0.37772 0.31356 0.60983 0.0
H924 H 0.03042 0.15074 0.82412 0.0
H925 H 0.00382 0.15084 0.83457 0.0
H926 H 0.01611 0.11495 0.86691 0.0
H927 H 0.04288 0.11471 0.85651 0.0
H928 H 0.98757 0.10955 0.84882 0.0
H929 H 0.98939 0.16712 0.8777 0.0
H930 H -0.00357 0.16719 0.85807 0.0
H931 H 0.00694 0.15671 0.87271 0.0
C932 C 0.02754 0.14293 0.83354 0.0
C933 C 0.03877 0.13272 0.8395 0.0
C934 C 0.01236 0.14307 0.83953 0.0
C935 C 0.00812 0.13302 0.85158 0.0
C936 C 0.01925 0.12285 0.85765 0.0
H937 H 0.91723 0.14029 0.89705 0.0
H938 H 0.94524 0.13673 0.89237 0.0
C939 C 0.03452 0.12276 0.85172 0.0
C940 C -0.0082 0.13275 0.85728 0.0
H941 H 0.96398 0.1557 0.87342 0.0
C942 C 0.98242 0.11954 0.85438 0.0
C943 C 0.98524 0.14576 0.86465 0.0
C944 C -0.00496 0.15996 0.86861 0.0
C945 C 0.96638 0.11927 0.85809 0.0
C946 C 0.95964 0.1326 0.86469 0.0
C947 C 0.96919 0.14555 0.86821 0.0
C948 C 0.94259 0.13362 0.86758 0.0
C949 C 0.95676 0.10479 0.8548 0.0
C950 C 0.93188 0.13307 0.85514 0.0
C951 C 0.91585 0.13514 0.85774 0.0
C952 C 0.9103 0.13787 0.87284 0.0
C953 C 0.92109 0.13822 0.88528 0.0
C954 C 0.9371 0.13618 0.88265 0.0
H955 H 0.96431 0.09445 0.85373 0.0
H956 H 0.948 0.10268 0.86409 0.0
H957 H 0.95031 0.1062 0.84368 0.0
H958 H 0.93596 0.1314 0.84338 0.0
H959 H 0.90787 0.13484 0.84791 0.0
H960 H 0.40488 0.0881 0.20134 0.0
H961 H 0.39462 0.08716 0.22771 0.0
H962 H 0.35717 0.11765 0.2146 0.0
H963 H 0.36736 0.1187 0.18806 0.0
H964 H 0.37525 0.12691 0.24163 0.0
H965 H 0.35412 0.0659 0.24475 0.0
H966 H 0.37364 0.06818 0.23712 0.0
H967 H 0.35722 0.07583 0.22657 0.0
C968 C 0.39435 0.09446 0.20398 0.0
C969 C 0.38695 0.1035 0.19261 0.0
C970 C 0.38846 0.09384 0.21903 0.0
C971 C 0.37508 0.10222 0.22301 0.0
C972 C 0.36746 0.11103 0.21167 0.0
H973 H 0.33388 0.094 0.31522 0.0
H974 H 0.3369 0.09656 0.28717 0.0
C975 C 0.37329 0.11158 0.19654 0.0
C976 C 0.36981 0.10257 0.2393 0.0
H977 H 0.35784 0.07919 0.26891 0.0
C978 C 0.37123 0.11655 0.24757 0.0
C979 C 0.36447 0.08904 0.24692 0.0
C980 C 0.36211 0.0739 0.23837 0.0
C981 C 0.36809 0.11719 0.26352 0.0
C982 C 0.36357 0.10348 0.27132 0.0
C983 C 0.36146 0.08966 0.26289 0.0
C984 C 0.36154 0.10304 0.28833 0.0
C985 C 0.36977 0.13249 0.27193 0.0
C986 C 0.37443 0.10585 0.29822 0.0
C987 C 0.37279 0.10436 0.31427 0.0
C988 C 0.35822 0.09998 0.32067 0.0
C989 C 0.34527 0.09741 0.31069 0.0
C990 C 0.34695 0.09885 0.29466 0.0
H991 H 0.3692 0.14242 0.26379 0.0
H992 H 0.36046 0.13375 0.28081 0.0
H993 H 0.38135 0.13302 0.27793 0.0
H994 H 0.38586 0.10883 0.29351 0.0
H995 H 0.383 0.10638 0.32162 0.0
H996 H 0.08838 0.10518 0.43489 0.0
H997 H 0.08694 0.10221 0.46311 0.0
H998 H 0.11763 0.14201 0.46919 0.0
H999 H 0.11925 0.14506 0.4411 0.0
H1000 H 0.12617 0.11532 0.48634 0.0
H1001 H 0.06341 0.1306 0.49431 0.0
H1002 H 0.06725 0.11606 0.47988 0.0
H1003 H 0.07427 0.13554 0.47702 0.0
C1004 C 0.09484 0.1133 0.44223 0.0
C1005 C 0.10392 0.12536 0.43574 0.0
C1006 C 0.09388 0.11165 0.45833 0.0
C1007 C 0.10198 0.12205 0.46817 0.0
C1008 C 0.1112 0.13396 0.46175 0.0
H1009 H 0.10547 0.13689 0.56742 0.0
H1010 H 0.10053 0.13963 0.53951 0.0
C1011 C 0.11213 0.13565 0.44569 0.0
C1012 C 0.10145 0.12019 0.48518 0.0
H1013 H 0.0772 0.12196 0.5166 0.0
C1014 C 0.11548 0.11676 0.49296 0.0
C1015 C 0.08747 0.12222 0.49372 0.0
C1016 C 0.07224 0.12643 0.48588 0.0
C1017 C 0.11589 0.11517 0.50912 0.0
C1018 C 0.10189 0.11695 0.51764 0.0
C1019 C 0.08786 0.12052 0.50993 0.0
C1020 C 0.10186 0.11511 0.53463 0.0
C1021 C 0.13132 0.11169 0.51702 0.0
C1022 C 0.10362 0.10037 0.54105 0.0
C1023 C 0.10644 0.09875 0.5569 0.0
C1024 C 0.10759 0.11188 0.56659 0.0
C1025 C 0.1047 0.12657 0.56027 0.0
C1026 C 0.10187 0.12816 0.54435 0.0
H1027 H 0.14148 0.11312 0.50906 0.0
H1028 H 0.13318 0.1194 0.52723 0.0
H1029 H 0.13106 0.09956 0.52123 0.0
H1030 H 0.10356 0.09018 0.53367 0.0
H1031 H 0.10846 0.08726 0.56142 0.0
H1032 H 0.10569 0.87804 0.82685 0.0
H1033 H 0.09754 0.87404 0.79982 0.0
H1034 H 0.13752 0.90113 0.78446 0.0
H1035 H 0.14558 0.90543 0.8114 0.0
H1036 H 0.11001 0.90986 0.77076 0.0
H1037 H 0.11676 0.84615 0.7669 0.0
H1038 H 0.10457 0.85226 0.78265 0.0
H1039 H 0.12509 0.85758 0.78258 0.0
C1040 C 0.11278 0.88306 0.8177 0.0
C1041 C 0.12627 0.89204 0.82123 0.0
C1042 C 0.10818 0.88068 0.80228 0.0
C1043 C 0.11707 0.8871 0.79016 0.0
C1044 C 0.13055 0.89602 0.79366 0.0
H1045 H 0.10624 0.86707 0.69166 0.0
H1046 H 0.11614 0.8698 0.71826 0.0
C1047 C 0.13513 0.89846 0.80906 0.0
C1048 C 0.11193 0.88521 0.77385 0.0
H1049 H 0.10349 0.85824 0.74586 0.0
C1050 C 0.10866 0.89858 0.76528 0.0
C1051 C 0.11038 0.87049 0.76671 0.0
C1052 C 0.11453 0.8558 0.77512 0.0
C1053 C 0.10358 0.89762 0.74981 0.0
C1054 C 0.10144 0.88287 0.74286 0.0
C1055 C 0.10501 0.86951 0.75131 0.0
C1056 C 0.09538 0.88111 0.72684 0.0
C1057 C 0.10075 0.9124 0.74099 0.0
C1058 C 0.08036 0.88638 0.72297 0.0
C1059 C 0.07469 0.88492 0.70781 0.0
C1060 C 0.08391 0.87801 0.69627 0.0
C1061 C 0.09887 0.87249 0.70026 0.0
C1062 C 0.10454 0.87401 0.71544 0.0
H1063 H 0.10695 0.92246 0.74645 0.0
H1064 H 0.10467 0.91136 0.72877 0.0
H1065 H 0.08797 0.91482 0.74094 0.0
H1066 H 0.07299 0.8916 0.73171 0.0
H1067 H 0.06307 0.88917 0.70517 0.0
H1068 H 0.3631 0.82736 0.94188 0.0
H1069 H 0.36609 0.82969 0.97003 0.0
H1070 H 0.38818 0.8746 0.96454 0.0
H1071 H 0.38522 0.87246 0.93637 0.0
H1072 H 0.39504 0.83546 0.98824 0.0
H1073 H 0.35012 0.88126 -0.00578 0.0
H1074 H 0.3514 0.8691 0.9772 0.0
H1075 H 0.36518 0.88483 0.98006 0.0
C1076 C 0.36858 0.83776 0.94663 0.0
C1077 C 0.37382 0.84979 0.93687 0.0
C1078 C 0.37034 0.83902 0.9627 0.0
C1079 C 0.37726 0.85234 0.96928 0.0
C1080 C 0.38268 0.86428 0.95963 0.0
H1081 H 0.38426 0.88577 0.06339 0.0
H1082 H 0.38861 0.88162 0.03574 0.0
C1083 C 0.38097 0.86303 0.94354 0.0
C1084 C 0.37841 0.85392 0.9863 0.0
H1085 H 0.36407 0.87444 0.01679 0.0
C1086 C 0.38831 0.84398 -0.00546 0.0
C1087 C 0.36957 0.86503 -0.00562 0.0
C1088 C 0.35836 0.87561 0.98608 0.0
C1089 C 0.38977 0.84503 0.01076 0.0
C1090 C 0.38087 0.85611 0.01884 0.0
C1091 C 0.37098 0.86603 0.01054 0.0
C1092 C 0.38116 0.85755 0.03595 0.0
C1093 C 0.40098 0.83446 0.01904 0.0
C1094 C 0.37603 0.84522 0.04533 0.0
C1095 C 0.37368 0.84752 0.06122 0.0
C1096 C 0.37616 0.86226 0.06785 0.0
C1097 C 0.38213 0.87431 0.05858 0.0
C1098 C 0.38463 0.87197 0.04278 0.0
H1099 H 0.41006 0.82995 0.01105 0.0
H1100 H 0.40695 0.84054 0.02886 0.0
H1101 H 0.3943 0.82441 0.02376 0.0
H1102 H 0.37299 0.83408 0.04024 0.0
H1103 H 0.36897 0.83805 0.06806 0.0
H1104 H 0.39527 0.89203 0.28454 0.0
H1105 H 0.39086 0.89482 0.25669 0.0
H1106 H 0.35034 0.86422 0.2595 0.0
H1107 H 0.35426 0.86211 0.28762 0.0
H1108 H 0.39263 0.87346 0.23566 0.0
H1109 H 0.33264 0.89756 0.23327 0.0
H1110 H 0.34369 0.89635 0.25113 0.0
H1111 H 0.33336 0.87958 0.24356 0.0
C1112 C 0.38525 0.88615 0.27924 0.0
C1113 C 0.37506 0.87692 0.28815 0.0
C1114 C 0.38276 0.8877 0.26334 0.0
C1115 C 0.3702 0.87983 0.256 0.0
C1116 C 0.35987 0.87072 0.26495 0.0
H1117 H 0.37212 0.86475 0.1553 0.0
H1118 H 0.3741 0.8612 0.18345 0.0
C1119 C 0.36214 0.86947 0.28098 0.0
C1120 C 0.36866 0.88051 0.23888 0.0
H1121 H 0.34342 0.88912 0.20937 0.0
C1122 C 0.38188 0.87697 0.22991 0.0
C1123 C 0.35467 0.88515 0.2314 0.0
C1124 C 0.34034 0.89002 0.24034 0.0
C1125 C 0.38163 0.8782 0.2137 0.0
C1126 C 0.36752 0.88245 0.20619 0.0
C1127 C 0.3542 0.88575 0.21514 0.0
C1128 C 0.36646 0.88436 0.18914 0.0
C1129 C 0.39666 0.87551 0.20491 0.0
C1130 C 0.36111 0.89837 0.18301 0.0
C1131 C 0.35959 0.90024 0.16703 0.0
C1132 C 0.36361 0.88822 0.15685 0.0
C1133 C 0.36917 0.87426 0.16292 0.0
C1134 C 0.37036 0.87226 0.17898 0.0
H1135 H 0.40717 0.87693 0.21253 0.0
H1136 H 0.39657 0.86348 0.20033 0.0
H1137 H 0.39786 0.88361 0.195 0.0
H1138 H 0.35805 0.90787 0.19061 0.0
H1139 H 0.35528 0.91113 0.16262 0.0
H1140 H 0.37783 0.15258 0.53471 0.0
H1141 H 0.37703 0.15125 0.50635 0.0
H1142 H 0.36838 0.10198 0.50856 0.0
H1143 H 0.3693 0.10313 0.5369 0.0
H1144 H 0.38966 0.11223 0.48412 0.0
H1145 H 0.33306 0.1439 0.4858 0.0
H1146 H 0.34974 0.153 0.4952 0.0
H1147 H 0.34161 0.13535 0.50289 0.0
C1148 C 0.37603 0.14141 0.52916 0.0
C1149 C 0.37341 0.12797 0.53803 0.0
C1150 C 0.37555 0.1407 0.51297 0.0
C1151 C 0.37241 0.12657 0.50544 0.0
C1152 C 0.37079 0.113 0.51421 0.0
H1153 H 0.3275 0.09371 0.42513 0.0
H1154 H 0.33697 0.10228 0.45058 0.0
C1155 C 0.37127 0.11368 0.53039 0.0
C1156 C 0.36929 0.12601 0.48858 0.0
H1157 H 0.34132 0.13474 0.46159 0.0
C1158 C 0.37926 0.11736 0.47909 0.0
C1159 C 0.35562 0.13264 0.48218 0.0
C1160 C 0.34429 0.14167 0.492 0.0
C1161 C 0.3756 0.11474 0.46338 0.0
C1162 C 0.36168 0.12099 0.45713 0.0
C1163 C 0.35204 0.1301 0.46648 0.0
C1164 C 0.35589 0.11657 0.44156 0.0
C1165 C 0.38615 0.10467 0.45376 0.0
C1166 C 0.3633 0.12202 0.4281 0.0
C1167 C 0.35786 0.1172 0.41348 0.0
C1168 C 0.345 0.10681 0.4122 0.0
C1169 C 0.33746 0.10166 0.42574 0.0
C1170 C 0.34283 0.10655 0.44028 0.0
H1171 H 0.39579 0.0996 0.46075 0.0
H1172 H 0.37917 0.09511 0.4483 0.0
H1173 H 0.39144 0.11166 0.4443 0.0
H1174 H 0.37333 0.12988 0.42892 0.0
H1175 H 0.36389 0.12134 0.40323 0.0
H1176 H 0.13115 0.10368 0.79099 0.0
H1177 H 0.13752 0.10088 0.76334 0.0
H1178 H 0.08886 0.10781 0.75133 0.0
H1179 H 0.08236 0.11053 0.77872 0.0
H1180 H 0.12136 0.07856 0.74047 0.0
H1181 H 0.116 0.14106 0.72634 0.0
H1182 H 0.11984 0.13425 0.74578 0.0
H1183 H 0.10038 0.13268 0.7377 0.0
C1184 C 0.12182 0.10456 0.78244 0.0
C1185 C 0.10628 0.10738 0.787 0.0
C1186 C 0.12548 0.10297 0.76671 0.0
C1187 C 0.11366 0.10435 0.75541 0.0
C1188 C 0.09813 0.10691 0.75993 0.0
H1189 H 0.10403 0.10336 0.65592 0.0
H1190 H 0.10073 0.10599 0.68404 0.0
C1191 C 0.09446 0.1084 0.77559 0.0
C1192 C 0.11735 0.10303 0.73878 0.0
H1193 H 0.11791 0.12365 0.70512 0.0
C1194 C 0.12079 0.0884 0.73272 0.0
C1195 C 0.11643 0.11592 0.72881 0.0
C1196 C 0.11307 0.13192 0.73494 0.0
C1197 C 0.12288 0.08623 0.71673 0.0
C1198 C 0.12184 0.09912 0.7067 0.0
C1199 C 0.11865 0.1138 0.71285 0.0
C1200 C 0.12391 0.09762 0.68975 0.0
C1201 C 0.12563 0.07007 0.71068 0.0
C1202 C 0.13812 0.09231 0.68371 0.0
C1203 C 0.13998 0.0907 0.66772 0.0
C1204 C 0.12774 0.09458 0.65748 0.0
C1205 C 0.11364 0.10025 0.66354 0.0
C1206 C 0.11175 0.10175 0.67957 0.0
H1207 H 0.1219 0.0611 0.71917 0.0
H1208 H 0.11918 0.06799 0.69961 0.0
H1209 H 0.13837 0.06863 0.70849 0.0
H1210 H 0.14778 0.08943 0.69136 0.0
H1211 H 0.15105 0.08645 0.6634 0.0
H1212 H 0.11056 0.83215 0.03586 0.0
H1213 H 0.10856 0.83635 0.0079 0.0
H1214 H 0.10681 0.88567 0.01556 0.0
H1215 H 0.1091 0.88162 0.04358 0.0
H1216 H 0.0867 0.8517 0.98849 0.0
H1217 H 0.14594 0.87988 0.98846 0.0
H1218 H 0.13852 0.86918 0.00487 0.0
H1219 H 0.13204 0.88857 0.00132 0.0
C1220 C 0.10959 0.84389 0.03162 0.0
C1221 C 0.11022 0.85659 0.04189 0.0
C1222 C 0.10839 0.84625 0.01565 0.0
C1223 C 0.10781 0.86131 0.00971 0.0
C1224 C 0.10753 0.87397 0.01996 0.0
H1225 H 0.11832 0.89743 0.91706 0.0
H1226 H 0.11183 0.89396 0.94435 0.0
C1227 C 0.1088 0.87163 0.03594 0.0
C1228 C 0.10865 0.86378 -0.00722 0.0
H1229 H 0.1322 0.87905 0.96466 0.0
C1230 C 0.0966 0.85771 0.98324 0.0
C1231 C 0.12168 0.8715 0.98603 0.0
C1232 C 0.13537 0.87755 -0.00435 0.0
C1233 C 0.09716 0.85937 0.96704 0.0
C1234 C 0.11019 0.86712 0.96033 0.0
C1235 C 0.12219 0.8732 0.96989 0.0
C1236 C 0.11192 0.86893 0.94339 0.0
C1237 C 0.08378 0.85301 0.95726 0.0
C1238 C 0.11392 0.85596 0.93378 0.0
C1239 C 0.11765 0.85789 0.91812 0.0
C1240 C 0.11958 0.87283 0.9119 0.0
C1241 C 0.11703 0.88576 0.92149 0.0
C1242 C 0.11327 0.88382 0.93708 0.0
H1243 H 0.07305 0.85082 0.96428 0.0
H1244 H 0.08086 0.8611 0.94772 0.0
H1245 H 0.08732 0.84186 0.95199 0.0
H1246 H 0.11321 0.84438 0.93853 0.0
H1247 H 0.11956 0.8477 0.91105 0.0
H1248 H 0.33168 0.38208 0.10869 0.0
H1249 H 0.30448 0.38899 0.11426 0.0
H1250 H 0.28983 0.34136 0.10776 0.0
H1251 H 0.31685 0.33436 0.10202 0.0
H1252 H 0.27312 0.36196 0.08992 0.0
H1253 H 0.27544 0.38104 0.15146 0.0
H1254 H 0.29009 0.39007 0.13942 0.0
H1255 H 0.29063 0.36954 0.14273 0.0
C1256 C 0.32271 0.37304 0.10869 0.0
C1257 C 0.32642 0.3577 0.1048 0.0
C1258 C 0.3072 0.37699 0.11198 0.0
C1259 C 0.2952 0.36564 0.11156 0.0
C1260 C 0.29895 0.35026 0.10819 0.0
H1261 H 0.19558 0.3817 0.13078 0.0
H1262 H 0.22196 0.37059 0.1309 0.0
C1263 C 0.31441 0.3463 0.10489 0.0
C1264 C 0.27856 0.37005 0.11305 0.0
H1265 H 0.25245 0.38779 0.13695 0.0
C1266 C 0.26855 0.36745 0.10027 0.0
C1267 C 0.27263 0.37707 0.12661 0.0
C1268 C 0.2827 0.37948 0.1409 0.0
C1269 C 0.25289 0.37219 0.10048 0.0
C1270 C 0.24718 0.37986 0.11375 0.0
C1271 C 0.25697 0.38197 0.12676 0.0
C1272 C 0.23134 0.38654 0.1139 0.0
C1273 C 0.2426 0.36916 0.08644 0.0
C1274 C 0.22805 0.39922 0.10438 0.0
C1275 C 0.2131 0.40559 0.1043 0.0
C1276 C 0.20115 0.39939 0.11374 0.0
C1277 C 0.20451 0.38669 0.12332 0.0
C1278 C 0.21955 0.38037 0.12346 0.0
H1279 H 0.24755 0.36012 0.07875 0.0
H1280 H 0.23057 0.36548 0.08998 0.0
H1281 H 0.2416 0.38 0.07964 0.0
H1282 H 0.2371 0.4042 0.09704 0.0
H1283 H 0.21094 0.41538 0.0968 0.0
H1284 H 0.69066 0.10152 0.85363 0.0
H1285 H 0.71779 0.11141 0.85271 0.0
H1286 H 0.73084 0.0795 0.88882 0.0
H1287 H 0.70402 0.06921 0.8894 0.0
H1288 H 0.7346 0.12571 0.87408 0.0
H1289 H 0.76522 0.07209 0.85849 0.0
H1290 H 0.74412 0.07366 0.85717 0.0
H1291 H 0.75342 0.06894 0.87537 0.0
C1292 C 0.69936 0.09654 0.86128 0.0
C1293 C 0.69525 0.08453 0.87152 0.0
C1294 C 0.71485 0.10217 0.86071 0.0
C1295 C 0.72642 0.09593 0.87043 0.0
C1296 C 0.72225 0.08411 0.88082 0.0
H1297 H 0.80714 0.13855 0.91086 0.0
H1298 H 0.78109 0.1295 0.90259 0.0
C1299 C 0.70686 0.07834 0.88125 0.0
C1300 C 0.74264 0.10241 0.87056 0.0
H1301 H 0.78108 0.0918 0.8716 0.0
C1302 C 0.74478 0.11834 0.87325 0.0
C1303 C 0.75594 0.09289 0.86907 0.0
C1304 C 0.75455 0.07598 0.86468 0.0
C1305 C 0.75982 0.12483 0.8755 0.0
C1306 C 0.773 0.11501 0.87559 0.0
C1307 C 0.77095 0.09927 0.87187 0.0
C1308 C 0.78882 0.12062 0.8804 0.0
C1309 C 0.76139 0.14211 0.87787 0.0
C1310 C 0.80195 0.11803 0.87098 0.0
C1311 C 0.81693 0.12286 0.87587 0.0
C1312 C 0.81899 0.13044 0.89021 0.0
C1313 C 0.80587 0.13289 0.89967 0.0
C1314 C 0.79095 0.12786 0.89488 0.0
H1315 H 0.75172 0.14829 0.87192 0.0
H1316 H 0.76061 0.14478 0.89045 0.0
H1317 H 0.7728 0.14666 0.87348 0.0
H1318 H 0.80058 0.11232 0.85982 0.0
H1319 H 0.82686 0.12086 0.86834 0.0
H1320 H 0.10608 0.44735 0.13087 0.0
H1321 H 0.09947 0.47485 0.1287 0.0
H1322 H 0.14873 0.48728 0.13105 0.0
H1323 H 0.15545 0.46002 0.13317 0.0
H1324 H 0.10801 0.50014 0.14961 0.0
H1325 H 0.13258 0.50783 0.09052 0.0
H1326 H 0.12788 0.48902 0.09853 0.0
H1327 H 0.1457 0.49902 0.10419 0.0
C1328 C 0.11548 0.45596 0.13101 0.0
C1329 C 0.13128 0.45154 0.13208 0.0
C1330 C 0.11169 0.47162 0.12973 0.0
C1331 C 0.12366 0.48298 0.12938 0.0
C1332 C 0.13938 0.47861 0.13095 0.0
H1333 H 0.13373 0.582 0.12684 0.0
H1334 H 0.13719 0.55392 0.12539 0.0
C1335 C 0.14317 0.46304 0.13227 0.0
C1336 C 0.11985 0.49949 0.12763 0.0
H1337 H 0.12621 0.53082 0.10434 0.0
C1338 C 0.1118 0.50685 0.13965 0.0
C1339 C 0.12491 0.50812 0.11462 0.0
C1340 C 0.13313 0.5006 0.10115 0.0
C1341 C 0.10915 0.52282 0.13927 0.0
C1342 C 0.11442 0.53153 0.12636 0.0
C1343 C 0.12222 0.52409 0.11421 0.0
C1344 C 0.11227 0.54844 0.12553 0.0
C1345 C 0.10125 0.53033 0.15296 0.0
C1346 C 0.09713 0.55459 0.12546 0.0
C1347 C 0.09511 0.57056 0.12636 0.0
C1348 C 0.10823 0.58067 0.12718 0.0
C1349 C 0.1234 0.57452 0.12626 0.0
C1350 C 0.1254 0.55849 0.12546 0.0
H1351 H 0.10137 0.52279 0.16338 0.0
H1352 H 0.10707 0.54156 0.15596 0.0
H1353 H 0.0888 0.53262 0.14995 0.0
H1354 H 0.08686 0.54701 0.12514 0.0
H1355 H 0.08326 0.57494 0.12683 0.0
H1356 H 0.65589 0.8759 0.37934 0.0
H1357 H 0.68243 0.88546 0.37338 0.0
H1358 H 0.70221 0.84814 0.39988 0.0
H1359 H 0.6758 0.83863 0.40606 0.0
H1360 H 0.71489 0.87726 0.40716 0.0
H1361 H 0.71459 0.86639 0.34354 0.0
H1362 H 0.69835 0.87743 0.35058 0.0
H1363 H 0.70037 0.85761 0.35643 0.0
C1364 C 0.6659 0.86971 0.38384 0.0
C1365 C 0.66379 0.85651 0.39315 0.0
C1366 C 0.68103 0.87512 0.38034 0.0
C1367 C 0.69422 0.86736 0.38602 0.0
C1368 C 0.69214 0.85422 0.39533 0.0
H1369 H 0.79265 0.8776 0.36303 0.0
H1370 H 0.76545 0.86853 0.36615 0.0
C1371 C 0.67705 0.84882 0.39885 0.0
C1372 C 0.71025 0.87327 0.38287 0.0
H1373 H 0.73654 0.88035 0.35388 0.0
C1374 C 0.71964 0.87794 0.39552 0.0
C1375 C 0.7164 0.87395 0.36767 0.0
C1376 C 0.70698 0.86846 0.35376 0.0
C1377 C 0.73505 0.88341 0.39338 0.0
C1378 C 0.74108 0.88445 0.37816 0.0
C1379 C 0.73176 0.87965 0.3655 0.0
C1380 C 0.75718 0.89029 0.37526 0.0
C1381 C 0.74485 0.88777 0.40744 0.0
C1382 C 0.76134 0.90561 0.37903 0.0
C1383 C 0.77683 0.91082 0.37733 0.0
C1384 C 0.7884 0.9008 0.37174 0.0
C1385 C 0.78404 0.88559 0.36744 0.0
C1386 C 0.76852 0.88039 0.36918 0.0
H1387 H 0.73983 0.8829 0.41829 0.0
H1388 H 0.75709 0.88365 0.4062 0.0
H1389 H 0.7453 0.90057 0.40863 0.0
H1390 H 0.75263 0.91347 0.38351 0.0
H1391 H 0.77975 0.92264 0.38061 0.0
H1392 H 0.89596 0.90821 0.13237 0.0
H1393 H 0.89075 0.93572 0.12908 0.0
H1394 H 0.84111 0.92556 0.12483 0.0
H1395 H 0.84618 0.8979 0.12795 0.0
H1396 H 0.85319 0.94842 0.10341 0.0
H1397 H 0.87027 0.96035 0.16479 0.0
H1398 H 0.88467 0.95057 0.15331 0.0
H1399 H 0.8663 0.94102 0.1576 0.0
C1400 C 0.88392 0.91177 0.13061 0.0
C1401 C 0.87144 0.90087 0.13062 0.0
C1402 C 0.88099 0.92751 0.12876 0.0
C1403 C 0.86554 0.93263 0.12699 0.0
C1404 C 0.85312 0.92177 0.12626 0.0
H1405 H 0.82137 0.01799 0.14614 0.0
H1406 H 0.83165 -0.00817 0.14503 0.0
C1407 C 0.85603 0.90599 0.12807 0.0
C1408 C 0.86224 0.94937 0.12678 0.0
H1409 H 0.86311 0.98176 0.14959 0.0
C1410 C 0.85544 0.95577 0.11344 0.0
C1411 C 0.86512 0.95882 0.13996 0.0
C1412 C 0.87187 0.95238 0.1548 0.0
C1413 C 0.85127 0.97142 0.11301 0.0
C1414 C 0.85412 0.98085 0.12621 0.0
C1415 C 0.86111 0.97448 0.13946 0.0
C1416 C 0.8486 -0.00305 0.12707 0.0
C1417 C 0.84333 0.97764 0.09868 0.0
C1418 C 0.85499 0.00855 0.11754 0.0
C1419 C 0.84915 0.0236 0.11815 0.0
C1420 C 0.83682 0.02721 0.12831 0.0
C1421 C 0.8308 0.0156 0.13813 0.0
C1422 C 0.83667 0.00064 0.13753 0.0
H1423 H 0.83966 0.96826 0.09051 0.0
H1424 H 0.83281 0.9844 0.10188 0.0
H1425 H 0.85159 0.98554 0.09254 0.0
H1426 H 0.86439 0.00593 0.10956 0.0
H1427 H 0.85406 0.03228 0.11047 0.0
H1428 H 0.15231 0.60441 0.59431 0.0
H1429 H 0.18012 0.59789 0.59693 0.0
H1430 H 0.19286 0.6464 0.59526 0.0
H1431 H 0.16524 0.65301 0.59234 0.0
H1432 H 0.21031 0.62885 0.57554 0.0
H1433 H 0.20923 0.6028 0.63431 0.0
H1434 H 0.19526 0.59419 0.62104 0.0
H1435 H 0.19323 0.6141 0.62679 0.0
C1436 C 0.16102 0.61368 0.59465 0.0
C1437 C 0.15657 0.62921 0.5931 0.0
C1438 C 0.17689 0.60995 0.59622 0.0
C1439 C 0.18851 0.62169 0.59648 0.0
C1440 C 0.18406 0.63718 0.59512 0.0
H1441 H 0.29097 0.62204 0.60277 0.0
H1442 H 0.26339 0.62977 0.60067 0.0
C1443 C 0.16826 0.64092 0.59346 0.0
C1444 C 0.20537 0.61786 0.59742 0.0
H1445 H 0.2327 0.59976 0.61977 0.0
C1446 C 0.21524 0.62258 0.58525 0.0
C1447 C 0.21174 0.60972 0.61014 0.0
C1448 C 0.20186 0.60503 0.62389 0.0
C1449 C 0.23128 0.61908 0.5853 0.0
C1450 C 0.23757 0.61076 0.5979 0.0
C1451 C 0.22776 0.60613 0.61012 0.0
C1452 C 0.25425 0.60633 0.59845 0.0
C1453 C 0.24131 0.62395 0.57172 0.0
C1454 C 0.25813 0.59064 0.59793 0.0
C1455 C 0.27378 0.58621 0.59911 0.0
C1456 C 0.28582 0.59741 0.60098 0.0
C1457 C 0.28193 0.61317 0.60129 0.0
C1458 C 0.26623 0.6176 0.60006 0.0
H1459 H 0.23409 0.62764 0.56165 0.0
H1460 H 0.24903 0.63384 0.57527 0.0
H1461 H 0.24897 0.61433 0.56801 0.0
H1462 H 0.24902 0.5818 0.5967 0.0
H1463 H 0.27639 0.57397 0.59884 0.0
H1464 H 0.08179 0.42043 0.33076 0.0
H1465 H 0.08746 0.44816 0.33372 0.0
H1466 H 0.12684 0.438 0.36355 0.0
H1467 H 0.1211 0.41028 0.3609 0.0
H1468 H 0.10824 0.46214 0.3745 0.0
H1469 H 0.12451 0.47024 0.31261 0.0
H1470 H 0.10529 0.46194 0.31575 0.0
H1471 H 0.12243 0.45135 0.32131 0.0
C1472 C 0.09164 0.42411 0.33797 0.0
C1473 C 0.10109 0.41319 0.34551 0.0
C1474 C 0.09488 0.43993 0.33961 0.0
C1475 C 0.10769 0.44507 0.34866 0.0
C1476 C 0.11692 0.43423 0.35647 0.0
H1477 H 0.16152 0.52888 0.34763 0.0
H1478 H 0.15047 0.50275 0.34576 0.0
C1479 C 0.11366 0.41841 0.35491 0.0
C1480 C 0.11176 0.46173 0.34978 0.0
H1481 H 0.12468 0.49254 0.32847 0.0
C1482 C 0.11176 0.46884 0.36445 0.0
C1483 C 0.11645 0.47034 0.33663 0.0
C1484 C 0.11733 0.46309 0.32069 0.0
C1485 C 0.11656 0.48435 0.36636 0.0
C1486 C 0.12122 0.49296 0.35319 0.0
C1487 C 0.12097 0.4859 0.3385 0.0
C1488 C 0.12759 0.50892 0.3545 0.0
C1489 C 0.11718 0.49122 0.38248 0.0
C1490 C 0.11832 0.52106 0.35996 0.0
C1491 C 0.12463 0.53608 0.36112 0.0
C1492 C 0.14027 0.53916 0.35672 0.0
C1493 C 0.14943 0.52694 0.35112 0.0
C1494 C 0.14314 0.51199 0.35002 0.0
H1495 H 0.11629 0.48218 0.3916 0.0
H1496 H 0.12826 0.49797 0.38431 0.0
H1497 H 0.1072 0.49922 0.38396 0.0
H1498 H 0.1062 0.51894 0.36322 0.0
H1499 H 0.11725 0.54525 0.3654 0.0
H1500 H 0.36826 0.5686 0.8545 0.0
H1501 H 0.36917 0.54032 0.85545 0.0
H1502 H 0.40972 0.54091 0.82562 0.0
H1503 H 0.40886 0.56919 0.82451 0.0
H1504 H 0.3857 0.52032 0.81608 0.0
H1505 H 0.40075 0.51248 0.87817 0.0
H1506 H 0.38441 0.52507 0.87518 0.0
H1507 H 0.40356 0.53069 0.86823 0.0
C1508 C 0.37743 0.56272 0.84823 0.0
C1509 C 0.38849 0.5711 0.83944 0.0
C1510 C 0.37801 0.54659 0.84888 0.0
C1511 C 0.38967 0.5386 0.8408 0.0
C1512 C 0.40073 0.54692 0.83203 0.0
H1513 H 0.39167 0.43763 0.85361 0.0
H1514 H 0.40194 0.46401 0.84937 0.0
C1515 C 0.40019 0.56305 0.83141 0.0
C1516 C 0.38965 0.52151 0.84078 0.0
H1517 H 0.38954 0.49033 0.86492 0.0
C1518 C 0.38682 0.51372 0.8267 0.0
C1519 C 0.39141 0.51296 0.85461 0.0
C1520 C 0.39536 0.52071 0.86989 0.0
C1521 C 0.38464 0.49761 0.82627 0.0
C1522 C 0.38517 0.4892 0.84029 0.0
C1523 C 0.38905 0.49686 0.8542 0.0
C1524 C 0.37978 0.47291 0.84111 0.0
C1525 C 0.3813 0.48976 0.81091 0.0
C1526 C 0.364 0.46927 0.83779 0.0
C1527 C 0.35812 0.45437 0.84031 0.0
C1528 C 0.36792 0.44282 0.8462 0.0
C1529 C 0.38389 0.4463 0.84902 0.0
C1530 C 0.38975 0.46133 0.84662 0.0
H1531 H 0.38608 0.49665 0.80109 0.0
H1532 H 0.38639 0.478 0.81054 0.0
H1533 H 0.36838 0.4886 0.80924 0.0
H1534 H 0.35606 0.47813 0.83382 0.0
H1535 H 0.34577 0.452 0.83801 0.0
H1536 H 0.86223 0.65097 0.60694 0.0
H1537 H 0.85158 0.67612 0.59967 0.0
H1538 H 0.84578 0.68764 0.64801 0.0
H1539 H 0.85682 0.66274 0.65539 0.0
H1540 H 0.82453 0.69465 0.60593 0.0
H1541 H 0.87966 0.71827 0.63246 0.0
H1542 H 0.87654 0.69788 0.62886 0.0
H1543 H 0.86772 0.70696 0.64541 0.0
C1544 C 0.8583 0.6587 0.61601 0.0
C1545 C 0.86065 0.65506 0.63174 0.0
C1546 C 0.85219 0.67304 0.61183 0.0
C1547 C 0.84825 0.68382 0.62332 0.0
C1548 C 0.84906 0.67956 0.63899 0.0
H1549 H 0.83956 0.78308 0.62137 0.0
H1550 H 0.83619 0.75587 0.62835 0.0
C1551 C 0.85535 0.66533 0.64319 0.0
C1552 C 0.84552 0.70013 0.61906 0.0
H1553 H 0.86173 0.73632 0.62278 0.0
C1554 C 0.83259 0.70381 0.60964 0.0
C1555 C 0.85623 0.71197 0.62376 0.0
C1556 C 0.8709 0.70861 0.63305 0.0
C1557 C 0.82996 0.71916 0.60501 0.0
C1558 C 0.84061 0.73095 0.60985 0.0
C1559 C 0.85349 0.72724 0.61926 0.0
C1560 C 0.8392 0.74726 0.60497 0.0
C1561 C 0.81581 0.72269 0.59509 0.0
C1562 C 0.84162 0.75141 0.58943 0.0
C1563 C 0.84359 0.76699 0.58538 0.0
C1564 C 0.84331 0.77859 0.59688 0.0
C1565 C 0.83996 0.77441 0.61227 0.0
C1566 C 0.83796 0.75888 0.61628 0.0
H1567 H 0.80692 0.71314 0.59534 0.0
H1568 H 0.81023 0.73357 0.59899 0.0
H1569 H 0.81962 0.72431 0.5829 0.0
H1570 H 0.84291 0.74259 0.58058 0.0
H1571 H 0.84615 0.76987 0.57343 0.0
H1572 H 0.9332 0.13914 0.33362 0.0
H1573 H 0.96149 0.14423 0.3354 0.0
H1574 H 0.96219 0.125 0.38151 0.0
H1575 H 0.93394 0.1196 0.37978 0.0
H1576 H 0.97924 0.16178 0.3562 0.0
H1577 H -0.00476 0.09982 0.35864 0.0
H1578 H 0.97584 0.10609 0.35317 0.0
H1579 H 0.98146 0.10529 0.3733 0.0
C1580 C 0.93934 0.13604 0.34418 0.0
C1581 C 0.93133 0.12882 0.35651 0.0
C1582 C 0.9555 0.13896 0.34516 0.0
C1583 C 0.96393 0.13469 0.35845 0.0
C1584 C 0.95591 0.12803 0.37101 0.0
H1585 H 0.05473 0.16278 0.39174 0.0
H1586 H 0.0269 0.15997 0.38523 0.0
C1587 C 0.93976 0.12505 0.37003 0.0
C1588 C 0.98115 0.13713 0.35916 0.0
H1589 H 0.01562 0.1182 0.36464 0.0
C1590 C 0.98723 0.15226 0.35792 0.0
C1591 C -0.00848 0.12463 0.36107 0.0
C1592 C 0.98572 0.10802 0.36146 0.0
C1593 C 0.00343 0.1553 0.35915 0.0
C1594 C 0.01371 0.14289 0.36196 0.0
C1595 C 0.00768 0.1277 0.36261 0.0
C1596 C 0.03065 0.14544 0.3651 0.0
C1597 C 0.00937 0.17176 0.35743 0.0
C1598 C 0.04198 0.13798 0.35608 0.0
C1599 C 0.05793 0.13943 0.35988 0.0
C1600 C 0.06276 0.14829 0.37281 0.0
C1601 C 0.05139 0.15592 0.38167 0.0
C1602 C 0.03548 0.15443 0.37789 0.0
H1603 H 0.00104 0.17883 0.35059 0.0
H1604 H 0.01061 0.17713 0.3691 0.0
H1605 H 0.02103 0.17217 0.3517 0.0
H1606 H 0.03844 0.13089 0.34623 0.0
H1607 H 0.06643 0.13341 0.35286 0.0
H1608 H 0.63826 0.21358 0.07035 0.0
H1609 H 0.64542 0.24061 0.0759 0.0
H1610 H 0.64083 0.23185 0.12495 0.0
H1611 H 0.63427 0.20485 0.11954 0.0
H1612 H 0.62553 0.25943 0.08832 0.0
H1613 H 0.67811 0.2603 0.12591 0.0
H1614 H 0.67226 0.24336 0.11481 0.0
H1615 H 0.66373 0.24707 0.13356 0.0
C1616 C 0.6392 0.21734 0.08233 0.0
C1617 C 0.63558 0.20714 0.09451 0.0
C1618 C 0.64334 0.23277 0.08548 0.0
C1619 C 0.64387 0.23824 0.10085 0.0
C1620 C 0.64098 0.22785 0.11303 0.0
H1621 H 0.61632 0.3141 0.15196 0.0
H1622 H 0.6285 0.29054 0.14229 0.0
C1623 C 0.63702 0.21242 0.1099 0.0
C1624 C 0.64469 0.2551 0.10412 0.0
H1625 H 0.65994 0.28182 0.1296 0.0
C1626 C 0.63339 0.26444 0.097 0.0
C1627 C 0.65492 0.26164 0.11547 0.0
C1628 C 0.66803 0.25256 0.12273 0.0
C1629 C 0.63122 0.27977 0.10177 0.0
C1630 C 0.64072 0.28596 0.11386 0.0
C1631 C 0.65265 0.27698 0.12036 0.0
C1632 C 0.63693 0.30097 0.12107 0.0
C1633 C 0.61804 0.28887 0.09456 0.0
C1634 C 0.63832 0.31476 0.11262 0.0
C1635 C 0.6313 0.32824 0.11807 0.0
C1636 C 0.62282 0.32806 0.13204 0.0
C1637 C 0.62265 0.31456 0.14109 0.0
C1638 C 0.62967 0.30111 0.13563 0.0
H1639 H 0.6105 0.28165 0.08674 0.0
H1640 H 0.61052 0.29391 0.10373 0.0
H1641 H 0.62307 0.29856 0.08768 0.0
H1642 H 0.644 0.31486 0.1014 0.0
H1643 H 0.63174 0.33851 0.1109 0.0
H1644 H 0.41766 0.81013 0.88138 0.0
H1645 H 0.4456 0.81563 0.87739 0.0
H1646 H 0.43436 0.86007 0.85787 0.0
H1647 H 0.40627 0.85444 0.86142 0.0
H1648 H 0.45766 0.8459 0.84197 0.0
H1649 H 0.47067 0.84496 0.90501 0.0
H1650 H 0.46164 0.82725 0.89826 0.0
H1651 H 0.45086 0.84502 0.89742 0.0
C1652 C 0.42113 0.82102 0.87611 0.0
C1653 C 0.40982 0.83192 0.87184 0.0
C1654 C 0.43709 0.82419 0.87395 0.0
C1655 C 0.44205 0.83843 0.86775 0.0
C1656 C 0.43076 0.84907 0.86282 0.0
H1657 H 0.53778 0.87436 0.87688 0.0
H1658 H 0.50943 0.86976 0.87899 0.0
C1659 C 0.41474 0.84583 0.86482 0.0
C1660 C 0.45902 0.84226 0.86664 0.0
H1661 H 0.49278 0.84501 0.88813 0.0
C1662 C 0.46534 0.8458 0.85206 0.0
C1663 C 0.46894 0.84244 0.87989 0.0
C1664 C 0.46266 0.83988 0.89605 0.0
C1665 C 0.48143 0.84911 0.85029 0.0
C1666 C 0.49149 0.84843 0.86341 0.0
C1667 C 0.48509 0.8453 0.87805 0.0
C1668 C 0.50869 0.85101 0.86224 0.0
C1669 C 0.48742 0.85353 0.83443 0.0
C1670 C 0.51772 0.84174 0.85241 0.0
C1671 C 0.53388 0.84442 0.85109 0.0
C1672 C 0.54136 0.85624 0.85978 0.0
C1673 C 0.53237 0.86515 0.87004 0.0
C1674 C 0.51618 0.86257 0.87123 0.0
H1675 H 0.47786 0.85807 0.82696 0.0
H1676 H 0.49696 0.86242 0.83526 0.0
H1677 H 0.49217 0.84311 0.82863 0.0
H1678 H 0.51226 0.83245 0.84574 0.0
H1679 H 0.54049 0.83725 0.8432 0.0
H1680 H 0.8649 0.20368 0.90846 0.0
H1681 H 0.86353 0.23195 0.9066 0.0
H1682 H 0.84985 0.22778 0.85847 0.0
H1683 H 0.85089 0.19972 0.86024 0.0
H1684 H 0.88096 0.25049 0.88802 0.0
H1685 H 0.81827 0.25849 0.87395 0.0
H1686 H 0.82561 0.24056 0.88169 0.0
H1687 H 0.82672 0.2445 0.86119 0.0
C1688 C 0.86143 0.20879 0.89753 0.0
C1689 C 0.85799 0.19943 0.8845 0.0
C1690 C 0.86061 0.22493 0.89651 0.0
C1691 C 0.85623 0.23194 0.8825 0.0
C1692 C 0.85277 0.22261 0.86953 0.0
H1693 H 0.86994 0.30769 0.8271 0.0
H1694 H 0.86199 0.28431 0.84096 0.0
C1695 C 0.85354 0.20654 0.87053 0.0
C1696 C 0.85669 0.24899 0.8808 0.0
H1697 H 0.83628 0.27872 0.86479 0.0
C1698 C 0.87106 0.25681 0.88338 0.0
C1699 C 0.84373 0.25722 0.87486 0.0
C1700 C 0.82768 0.24976 0.87293 0.0
C1701 C 0.8732 0.27229 0.8789 0.0
C1702 C 0.86061 0.28008 0.87176 0.0
C1703 C 0.84592 0.27264 0.87021 0.0
C1704 C 0.86324 0.29493 0.86371 0.0
C1705 C 0.88922 0.27986 0.88075 0.0
C1706 C 0.86612 0.30872 0.87195 0.0
C1707 C 0.87063 0.32219 0.86404 0.0
C1708 C 0.87245 0.32193 0.84781 0.0
C1709 C 0.8688 0.30824 0.83961 0.0
C1710 C 0.86418 0.29488 0.84749 0.0
H1711 H 0.89802 0.27186 0.88569 0.0
H1712 H 0.89351 0.28403 0.86933 0.0
H1713 H 0.88837 0.29007 0.88854 0.0
H1714 H 0.86538 0.30893 0.8845 0.0
H1715 H 0.87336 0.33258 0.87067 0.0
H1716 H 0.40028 0.11075 0.64352 0.0
H1717 H 0.42787 0.10497 0.64874 0.0
H1718 H 0.4343 0.093 0.60058 0.0
H1719 H 0.40686 0.09917 0.59516 0.0
H1720 H 0.44912 0.08029 0.64403 0.0
H1721 H 0.46251 0.13142 0.60704 0.0
H1722 H 0.44288 0.12674 0.61347 0.0
H1723 H 0.45131 0.11634 0.59751 0.0
C1724 C 0.40746 0.10653 0.63412 0.0
C1725 C 0.40153 0.10573 0.61887 0.0
C1726 C 0.42321 0.10321 0.63713 0.0
C1727 C 0.43316 0.09894 0.62496 0.0
C1728 C 0.42685 0.09663 0.61004 0.0
H1729 H 0.53476 0.10201 0.61825 0.0
H1730 H 0.50705 0.09538 0.61387 0.0
C1731 C 0.41119 0.10013 0.60698 0.0
C1732 C 0.45036 0.09887 0.62745 0.0
H1733 H 0.48405 0.1181 0.61729 0.0
C1734 C 0.45681 0.08848 0.63814 0.0
C1735 C 0.46028 0.10972 0.61985 0.0
C1736 C 0.45392 0.12179 0.60893 0.0
C1737 C 0.47303 0.08859 0.64135 0.0
C1738 C 0.48288 0.09945 0.63375 0.0
C1739 C 0.47643 0.1097 0.62296 0.0
C1740 C 0.49985 0.10107 0.63722 0.0
C1741 C 0.47952 0.07711 0.65276 0.0
C1742 C 0.50494 0.10632 0.65185 0.0
C1743 C 0.52077 0.1102 0.65438 0.0
C1744 C 0.53168 0.10897 0.64227 0.0
C1745 C 0.52661 0.10316 0.62779 0.0
C1746 C 0.51082 0.0993 0.62528 0.0
H1747 H 0.47126 0.06719 0.65458 0.0
H1748 H 0.49097 0.07262 0.64875 0.0
H1749 H 0.48148 0.08297 0.66411 0.0
H1750 H 0.49659 0.10807 0.66111 0.0
H1751 H 0.52433 0.11463 0.66566 0.0
H1752 H 0.61395 0.78463 0.40336 0.0
H1753 H 0.61398 0.75667 0.39854 0.0
H1754 H 0.62373 0.76491 0.35018 0.0
H1755 H 0.62403 0.79276 0.35489 0.0
H1756 H 0.59478 0.73985 0.37938 0.0
H1757 H 0.65649 0.73318 0.36098 0.0
H1758 H 0.64969 0.7504 0.37063 0.0
H1759 H 0.64674 0.74786 0.35006 0.0
C1760 C 0.61619 0.78049 0.39171 0.0
C1761 C 0.61905 0.79093 0.37952 0.0
C1762 C 0.61625 0.76451 0.389 0.0
C1763 C 0.6192 0.75873 0.37409 0.0
C1764 C 0.62188 0.76912 0.36188 0.0
H1765 H 0.60539 0.67929 0.31909 0.0
H1766 H 0.61203 0.70418 0.33113 0.0
C1767 C 0.62191 0.78506 0.36457 0.0
C1768 C 0.61851 0.74187 0.37095 0.0
H1769 H 0.63839 0.71268 0.35331 0.0
C1770 C 0.60441 0.7338 0.37398 0.0
C1771 C 0.63115 0.73402 0.36398 0.0
C1772 C 0.64692 0.74178 0.36138 0.0
C1773 C 0.60229 0.71832 0.36935 0.0
C1774 C 0.61462 0.71077 0.36162 0.0
C1775 C 0.62896 0.71859 0.35921 0.0
C1776 C 0.61222 0.69532 0.35457 0.0
C1777 C 0.5866 0.71038 0.37201 0.0
C1778 C 0.61054 0.68206 0.3638 0.0
C1779 C 0.60679 0.66776 0.35695 0.0
C1780 C 0.60457 0.66657 0.34078 0.0
C1781 C 0.60689 0.67982 0.33158 0.0
C1782 C 0.61073 0.69404 0.33842 0.0
H1783 H 0.57771 0.71842 0.3767 0.0
H1784 H 0.58204 0.7053 0.36098 0.0
H1785 H 0.5881 0.70078 0.38038 0.0
H1786 H 0.61177 0.68287 0.37629 0.0
H1787 H 0.6051 0.65777 0.36435 0.0
H1788 H 0.08388 0.86588 0.1477 0.0
H1789 H 0.05621 0.87133 0.15289 0.0
H1790 H 0.04915 0.88283 0.10473 0.0
H1791 H 0.07663 0.8772 0.09937 0.0
H1792 H 0.03506 0.89725 0.14692 0.0
H1793 H 0.02082 0.84407 0.11273 0.0
H1794 H 0.04046 0.84868 0.11948 0.0
H1795 H 0.0326 0.85825 0.10273 0.0
C1796 C 0.07652 0.86988 0.13829 0.0
C1797 C 0.08234 0.87083 0.12307 0.0
C1798 C 0.06074 0.87301 0.14128 0.0
C1799 C 0.05065 0.87718 0.12912 0.0
C1800 C 0.05674 0.87937 0.1142 0.0
H1801 H 0.94971 0.87716 0.11829 0.0
H1802 H 0.9779 0.8819 0.11504 0.0
C1803 C 0.07244 0.87614 0.11117 0.0
C1804 C 0.03351 0.87755 0.13157 0.0
H1805 H -0.00056 0.85872 0.12143 0.0
C1806 C 0.02722 0.88886 0.14137 0.0
C1807 C 0.02341 0.86648 0.12438 0.0
C1808 C 0.02963 0.85358 0.11435 0.0
C1809 C 0.01094 0.88956 0.14392 0.0
C1810 C 0.00087 0.87854 0.13662 0.0
C1811 C 0.00721 0.86723 0.12687 0.0
C1812 C 0.98372 0.87804 0.13918 0.0
C1813 C 0.00461 0.90215 0.15421 0.0
C1814 C 0.97769 0.87448 0.15387 0.0
C1815 C 0.96158 0.87174 0.15577 0.0
C1816 C 0.95131 0.87239 0.14296 0.0
C1817 C 0.95733 0.87651 0.12837 0.0
C1818 C 0.97342 0.87927 0.12649 0.0
H1819 H 0.01322 0.91185 0.15572 0.0
H1820 H -0.00649 0.90678 0.14939 0.0
H1821 H 0.00205 0.89727 0.16584 0.0
H1822 H 0.9855 0.87317 0.16374 0.0
H1823 H 0.95728 0.86858 0.16715 0.0
H1824 H 0.60597 0.86649 0.65597 0.0
H1825 H 0.59704 0.85285 0.67934 0.0
H1826 H 0.63915 0.86782 0.70354 0.0
H1827 H 0.64819 0.88134 0.68036 0.0
H1828 H 0.62911 0.83562 0.7089 0.0
H1829 H 0.58187 0.87898 0.71712 0.0
H1830 H 0.58274 0.86894 0.69882 0.0
H1831 H 0.59811 0.88243 0.70414 0.0
C1832 C 0.6134 0.86671 0.66623 0.0
C1833 C 0.62769 0.87513 0.66641 0.0
C1834 C 0.60828 0.85893 0.67954 0.0
C1835 C 0.6174 0.85948 0.69315 0.0
C1836 C 0.63197 0.86727 0.69311 0.0
H1837 H 0.62368 0.85115 0.78862 0.0
H1838 H 0.62722 0.84891 0.76068 0.0
C1839 C 0.63707 0.87506 0.67988 0.0
C1840 C 0.6114 0.85316 0.70791 0.0
H1841 H 0.58671 0.86202 0.73754 0.0
C1842 C 0.61962 0.84115 0.71508 0.0
C1843 C 0.59896 0.86034 0.71585 0.0
C1844 C 0.5899 0.87344 0.7087 0.0
C1845 C 0.61623 0.83665 0.73035 0.0
C1846 C 0.60459 0.84464 0.7387 0.0
C1847 C 0.59566 0.85592 0.73113 0.0
C1848 C 0.60282 0.84312 0.75572 0.0
C1849 C 0.62544 0.82368 0.7375 0.0
C1850 C 0.58793 0.8406 0.76227 0.0
C1851 C 0.58583 0.84211 0.77827 0.0
C1852 C 0.59859 0.84623 0.78797 0.0
C1853 C 0.61363 0.84794 0.78147 0.0
C1854 C 0.6157 0.8465 0.76549 0.0
H1855 H 0.62907 0.81521 0.72852 0.0
H1856 H 0.63629 0.82854 0.74297 0.0
H1857 H 0.61851 0.81748 0.7465 0.0
H1858 H 0.57782 0.83811 0.75492 0.0
H1859 H 0.57411 0.84069 0.78295 0.0
H1860 H 0.86643 0.87741 0.54302 0.0
H1861 H 0.8651 0.88363 0.51547 0.0
H1862 H 0.85091 0.83654 0.50507 0.0
H1863 H 0.85183 0.83026 0.53273 0.0
H1864 H 0.88228 0.87107 0.49208 0.0
H1865 H 0.81839 0.86109 0.48143 0.0
H1866 H 0.82667 0.8625 0.50071 0.0
H1867 H 0.82838 0.84489 0.48969 0.0
C1868 C 0.86287 0.86839 0.53491 0.0
C1869 C 0.8592 0.85334 0.54007 0.0
C1870 C 0.86215 0.87197 0.51916 0.0
C1871 C 0.85777 0.86059 0.50825 0.0
C1872 C 0.85401 0.84557 0.51333 0.0
H1873 H 0.85128 0.86796 0.40725 0.0
H1874 H 0.85456 0.85751 0.43343 0.0
C1875 C 0.85459 0.842 0.52914 0.0
C1876 C 0.85774 0.86445 0.49154 0.0
H1877 H 0.83404 0.86701 0.45958 0.0
C1878 C 0.87174 0.87015 0.48496 0.0
C1879 C 0.84398 0.86318 0.48229 0.0
C1880 C 0.82846 0.85771 0.48888 0.0
C1881 C 0.8723 0.87481 0.46941 0.0
C1882 C 0.8585 0.87378 0.46028 0.0
C1883 C 0.84461 0.8677 0.46669 0.0
C1884 C 0.85794 0.87991 0.44434 0.0
C1885 C 0.88758 0.88091 0.46285 0.0
C1886 C 0.85888 0.89594 0.4419 0.0
C1887 C 0.85691 0.90195 0.42703 0.0
C1888 C 0.85401 0.89202 0.41433 0.0
C1889 C 0.85357 0.87591 0.41677 0.0
C1890 C 0.8554 0.86992 0.4317 0.0
H1891 H 0.89781 0.8778 0.47023 0.0
H1892 H 0.88942 0.87635 0.45094 0.0
H1893 H 0.88715 0.89373 0.46215 0.0
H1894 H 0.86066 0.90381 0.45159 0.0
H1895 H 0.85733 0.9144 0.42554 0.0
H1896 H 0.85841 0.1078 0.15397 0.0
H1897 H 0.86924 0.1207 0.17717 0.0
H1898 H 0.8262 0.11085 0.2017 0.0
H1899 H 0.81523 0.09818 0.1787 0.0
H1900 H 0.83898 0.14142 0.2068 0.0
H1901 H 0.88296 0.09486 0.2151 0.0
H1902 H 0.88286 0.10474 0.19677 0.0
H1903 H 0.86645 0.09257 0.202 0.0
C1904 C 0.85121 0.1085 0.16427 0.0
C1905 C 0.83602 0.1018 0.16454 0.0
C1906 C 0.85743 0.11585 0.1775 0.0
C1907 C 0.84856 0.11655 0.19115 0.0
C1908 C 0.83322 0.11042 0.19125 0.0
H1909 H 0.84657 0.12747 0.28691 0.0
H1910 H 0.84194 0.12857 0.25899 0.0
C1911 C 0.827 0.1031 0.1781 0.0
C1912 C 0.85538 0.12268 0.20578 0.0
H1913 H 0.88033 0.11291 0.23512 0.0
C1914 C 0.84823 0.13539 0.2129 0.0
C1915 C 0.86751 0.11483 0.21363 0.0
C1916 C 0.87539 0.10093 0.2066 0.0
C1917 C 0.85236 0.13998 0.22803 0.0
C1918 C 0.86372 0.13145 0.23627 0.0
C1919 C 0.8716 0.11941 0.22877 0.0
C1920 C 0.86626 0.13342 0.25317 0.0
C1921 C 0.84424 0.15364 0.23519 0.0
C1922 C 0.88148 0.13579 0.25919 0.0
C1923 C 0.88418 0.13501 0.27517 0.0
C1924 C 0.87172 0.13173 0.28537 0.0
C1925 C 0.8564 0.13004 0.27936 0.0
C1926 C 0.85372 0.13081 0.2634 0.0
H1927 H 0.84047 0.16197 0.22616 0.0
H1928 H 0.83354 0.1495 0.24132 0.0
H1929 H 0.85199 0.15979 0.24368 0.0
H1930 H 0.89133 0.13768 0.25147 0.0
H1931 H 0.89612 0.13638 0.27946 0.0
H1932 H 0.61189 0.10767 0.90567 0.0
H1933 H 0.60461 0.11859 0.93091 0.0
H1934 H 0.63716 0.08809 0.95365 0.0
H1935 H 0.64381 0.07668 0.92871 0.0
H1936 H 0.61097 0.08822 0.96864 0.0
H1937 H 0.62847 0.14921 0.95692 0.0
H1938 H 0.61376 0.14177 0.94377 0.0
H1939 H 0.6331 0.1336 0.94386 0.0
C1940 C 0.61746 0.10334 0.91609 0.0
C1941 C 0.62838 0.09132 0.91525 0.0
C1942 C 0.6134 0.10966 0.93048 0.0
C1943 C 0.62055 0.10436 0.94417 0.0
C1944 C 0.63147 0.09238 0.94326 0.0
H1945 H 0.62998 0.14722 0.03383 0.0
H1946 H 0.63188 0.1391 0.00669 0.0
C1947 C 0.63526 0.08585 0.92899 0.0
C1948 C 0.61653 0.11085 0.95958 0.0
H1949 H 0.61616 0.14419 0.98099 0.0
C1950 C 0.6121 0.10047 0.97133 0.0
C1951 C 0.61814 0.12682 0.96312 0.0
C1952 C 0.62377 0.13849 0.9513 0.0
C1953 C 0.60969 0.10549 0.9866 0.0
C1954 C 0.61097 0.1215 0.99008 0.0
C1955 C 0.61504 0.13195 0.97826 0.0
C1956 C 0.60912 0.12748 0.00611 0.0
C1957 C 0.60656 0.09344 -0.00109 0.0
C1958 C 0.59552 0.12404 0.01468 0.0
C1959 C 0.59459 0.12833 0.03028 0.0
C1960 C 0.60704 0.13658 0.03743 0.0
C1961 C 0.62022 0.14085 0.02859 0.0
C1962 C 0.6213 0.13624 0.01309 0.0
H1963 H 0.61049 0.08179 -0.00478 0.0
H1964 H 0.61262 0.0965 0.00997 0.0
H1965 H 0.59373 0.09263 0.0011 0.0
H1966 H 0.58574 0.11777 0.0094 0.0
H1967 H 0.58418 0.12512 0.03678 0.0
H1968 H 0.60676 0.11412 0.82405 0.0
H1969 H 0.60248 0.12363 0.79764 0.0
H1970 H 0.65264 0.12671 0.79079 0.0
H1971 H 0.65699 0.1167 0.81695 0.0
H1972 H 0.6115 0.14893 0.77947 0.0
H1973 H 0.63865 0.09453 0.75882 0.0
H1974 H 0.6336 0.09767 0.77886 0.0
H1975 H 0.65129 0.10616 0.77104 0.0
C1976 C 0.61686 0.11716 0.81703 0.0
C1977 C 0.63219 0.11442 0.8224 0.0
C1978 C 0.61441 0.12258 0.80195 0.0
C1979 C 0.62725 0.12545 0.79216 0.0
C1980 C 0.64258 0.12415 0.79805 0.0
H1981 H 0.63249 0.13828 0.69227 0.0
H1982 H 0.63836 0.13881 0.7201 0.0
C1983 C 0.64504 0.11851 0.813 0.0
C1984 C 0.62463 0.12819 0.77542 0.0
H1985 H 0.6312 0.11243 0.73969 0.0
C1986 C 0.61584 0.14101 0.77075 0.0
C1987 C 0.63018 0.1177 0.7641 0.0
C1988 C 0.63882 0.10316 0.76842 0.0
C1989 C 0.61256 0.14367 0.755 0.0
C1990 C 0.61817 0.13319 0.74375 0.0
C1991 C 0.62708 0.1205 0.7484 0.0
C1992 C 0.6143 0.1346 0.72711 0.0
C1993 C 0.60317 0.15762 0.75045 0.0
C1994 C 0.59883 0.13202 0.72193 0.0
C1995 C 0.59544 0.13155 0.70606 0.0
C1996 C 0.60749 0.13366 0.69511 0.0
C1997 C 0.62294 0.13661 0.70039 0.0
C1998 C 0.62632 0.13697 0.71626 0.0
H1999 H 0.60273 0.16631 0.75998 0.0
H2000 H 0.60823 0.16321 0.73998 0.0
H2001 H 0.59094 0.15389 0.74762 0.0
H2002 H 0.58946 0.12988 0.73015 0.0
H2003 H 0.58342 0.1293 0.70239 0.0
H2004 H 0.61253 0.82496 0.46125 0.0
H2005 H 0.61199 0.83127 0.489 0.0
H2006 H 0.60709 0.87965 0.47796 0.0
H2007 H 0.60723 0.87345 0.45038 0.0
H2008 H 0.63346 0.84902 0.50382 0.0
H2009 H 0.57507 0.87488 0.5118 0.0
H2010 H 0.5799 0.86366 0.4948 0.0
H2011 H 0.58535 0.88388 0.49605 0.0
C2012 C 0.61103 0.8369 0.46477 0.0
C2013 C 0.60994 0.84872 0.45365 0.0
C2014 C 0.61072 0.84048 0.4806 0.0
C2015 C 0.60924 0.8559 0.48555 0.0
C2016 C 0.60779 0.86763 0.47444 0.0
H2017 H 0.63369 0.91439 0.5605 0.0
H2018 H 0.62537 0.90157 0.53643 0.0
C2019 C 0.60802 0.86407 0.45865 0.0
C2020 C 0.61096 0.86005 0.50216 0.0
H2021 H 0.5951 0.88237 0.53068 0.0
C2022 C 0.62491 0.856 0.50983 0.0
C2023 C 0.59977 0.86915 0.50998 0.0
C2024 C 0.58412 0.873 0.50276 0.0
C2025 C 0.6284 0.86161 0.52476 0.0
C2026 C 0.61762 0.87143 0.53217 0.0
C2027 C 0.60336 0.87491 0.52485 0.0
C2028 C 0.6216 0.87916 0.547 0.0
C2029 C 0.64392 0.85767 0.53222 0.0
C2030 C 0.62199 0.87077 0.56088 0.0
C2031 C 0.62671 0.87806 0.57468 0.0
C2032 C 0.63116 0.89383 0.57476 0.0
C2033 C 0.63043 0.90223 0.56083 0.0
C2034 C 0.62562 0.89495 0.54708 0.0
H2035 H 0.65164 0.85112 0.52427 0.0
H2036 H 0.65021 0.86842 0.53599 0.0
H2037 H 0.64176 0.85054 0.54271 0.0
H2038 H 0.61885 0.85857 0.56098 0.0
H2039 H 0.62712 0.87126 0.58521 0.0
H2040 H 0.87545 0.86071 0.32852 0.0
H2041 H 0.88228 0.85092 0.30273 0.0
H2042 H 0.8349 0.85873 0.28688 0.0
H2043 H 0.82797 0.86856 0.31252 0.0
H2044 H 0.8527 0.82968 0.27483 0.0
H2045 H 0.88217 0.8875 0.26878 0.0
H2046 H 0.88671 0.87607 0.28561 0.0
H2047 H 0.8674 0.88382 0.28332 0.0
C2048 C 0.86636 0.85989 0.31969 0.0
C2049 C 0.85124 0.86562 0.32244 0.0
C2050 C 0.87029 0.85431 0.30499 0.0
C2051 C 0.85911 0.85428 0.29296 0.0
C2052 C 0.84366 0.85867 0.29607 0.0
H2053 H 0.85173 0.84691 0.19393 0.0
H2054 H 0.84781 0.84564 0.22197 0.0
C2055 C 0.83975 0.86434 0.31069 0.0
C2056 C 0.86395 0.8521 0.27672 0.0
H2057 H 0.88116 0.87157 0.24681 0.0
C2058 C 0.85909 0.83871 0.26868 0.0
C2059 C 0.87223 0.86397 0.26884 0.0
C2060 C 0.87741 0.87872 0.27698 0.0
C2061 C 0.86223 0.83692 0.2528 0.0
C2062 C 0.87002 0.84907 0.24477 0.0
C2063 C 0.87519 0.86228 0.25297 0.0
C2064 C 0.87248 0.84874 0.22778 0.0
C2065 C 0.85724 0.82205 0.24482 0.0
C2066 C 0.88757 0.85135 0.22173 0.0
C2067 C 0.88979 0.85244 0.20575 0.0
C2068 C 0.87695 0.85086 0.19548 0.0
C2069 C 0.86186 0.84808 0.20154 0.0
C2070 C 0.85963 0.84718 0.21756 0.0
H2071 H 0.85635 0.81233 0.25319 0.0
H2072 H 0.84546 0.82355 0.23949 0.0
H2073 H 0.86561 0.81886 0.23554 0.0
H2074 H 0.89763 0.8527 0.22942 0.0
H2075 H 0.90158 0.85448 0.20145 0.0
H2076 H 0.87201 0.15718 0.96127 0.0
H2077 H 0.8736 0.14788 0.98804 0.0
H2078 H 0.88139 0.10152 0.97133 0.0
H2079 H 0.87985 0.11067 0.94457 0.0
H2080 H 0.85456 0.10599 -0.00853 0.0
H2081 H 0.91005 0.13085 0.01611 0.0
H2082 H 0.8979 0.14388 0.00526 0.0
H2083 H 0.90702 0.128 -0.0045 0.0
C2084 C 0.87437 0.14507 0.9633 0.0
C2085 C 0.87569 0.13463 0.95083 0.0
C2086 C 0.87539 0.1398 0.97859 0.0
C2087 C 0.87775 0.12405 0.9816 0.0
C2088 C 0.87969 0.11374 0.96919 0.0
H2089 H 0.85821 0.06953 0.0642 0.0
H2090 H 0.86787 0.07749 0.03872 0.0
C2091 C 0.87876 0.11899 0.95393 0.0
C2092 C 0.87608 0.11802 -0.00247 0.0
H2093 H 0.89221 0.11918 0.03388 0.0
C2094 C 0.86287 0.10871 0.00073 0.0
C2095 C 0.88686 0.1218 0.00952 0.0
C2096 C 0.90134 0.1316 0.00649 0.0
C2097 C 0.85988 0.10337 0.01576 0.0
C2098 C 0.8707 0.10704 0.02782 0.0
C2099 C 0.88402 0.11627 0.02458 0.0
C2100 C 0.8678 0.10203 0.04397 0.0
C2101 C 0.8448 0.09438 0.01866 0.0
C2102 C 0.86562 0.11312 0.05567 0.0
C2103 C 0.86038 0.10858 0.07033 0.0
C2104 C 0.85714 0.09289 0.07345 0.0
C2105 C 0.8604 0.08173 0.06205 0.0
C2106 C 0.86585 0.08626 0.04748 0.0
H2107 H 0.83605 0.09605 0.00921 0.0
H2108 H 0.84739 0.08184 0.01924 0.0
H2109 H 0.83941 0.09789 0.02981 0.0
H2110 H 0.86717 0.12534 0.05322 0.0
H2111 H 0.85803 0.11744 0.07891 0.0
H2112 H 0.78208 0.60485 0.8417 0.0
H2113 H 0.75372 0.60838 0.8385 0.0
H2114 H 0.74562 0.58529 0.88215 0.0
H2115 H 0.77378 0.58087 0.88484 0.0
H2116 H 0.72342 0.57753 0.86268 0.0
H2117 H 0.73125 0.64147 0.86074 0.0
H2118 H 0.74069 0.6316 0.84511 0.0
H2119 H 0.74733 0.62876 0.86477 0.0
C2120 C 0.77418 0.60041 0.8505 0.0
C2121 C 0.78007 0.59274 0.8636 0.0
C2122 C 0.75801 0.60252 0.84873 0.0
C2123 C 0.74756 0.59751 0.8603 0.0
C2124 C 0.75344 0.58932 0.87309 0.0
H2125 H 0.66255 0.63703 0.88976 0.0
H2126 H 0.68909 0.6288 0.88384 0.0
C2127 C 0.76953 0.58684 0.87465 0.0
C2128 C 0.73061 0.60134 0.85967 0.0
H2129 H 0.70544 0.6317 0.85874 0.0
C2130 C 0.71946 0.58937 0.86177 0.0
C2131 C 0.72547 0.61683 0.85856 0.0
C2132 C 0.7368 0.63041 0.85732 0.0
C2133 C 0.70341 0.59249 0.86349 0.0
C2134 C 0.6983 0.60797 0.86243 0.0
C2135 C 0.70937 0.61984 0.85954 0.0
C2136 C 0.68192 0.61248 0.86589 0.0
C2137 C 0.69228 0.57927 0.8673 0.0
C2138 C 0.66898 0.60602 0.85781 0.0
C2139 C 0.65367 0.61048 0.86147 0.0
C2140 C 0.65116 0.62177 0.87294 0.0
C2141 C 0.66413 0.62837 0.88079 0.0
C2142 C 0.67932 0.62368 0.8774 0.0
H2143 H 0.69864 0.56894 0.8715 0.0
H2144 H 0.68372 0.58273 0.8763 0.0
H2145 H 0.68564 0.57583 0.85668 0.0
H2146 H 0.67071 0.59767 0.84861 0.0
H2147 H 0.64386 0.60533 0.85514 0.0
H2148 H 0.30265 0.84893 0.1139 0.0
H2149 H 0.27408 0.84698 0.11119 0.0
H2150 H 0.27293 0.89384 0.09412 0.0
H2151 H 0.30153 0.89586 0.09654 0.0
H2152 H 0.25174 0.86521 0.12568 0.0
H2153 H 0.24758 0.86941 0.06145 0.0
H2154 H 0.26581 0.86553 0.07143 0.0
H2155 H 0.25845 0.88491 0.07068 0.0
C2156 C 0.29635 0.8588 0.10946 0.0
C2157 C 0.30438 0.87254 0.10538 0.0
C2158 C 0.28004 0.85766 0.10795 0.0
C2159 C 0.27146 0.87021 0.10231 0.0
C2160 C 0.27939 0.88394 0.09823 0.0
H2161 H 0.16937 0.87762 0.11091 0.0
H2162 H 0.19778 0.88252 0.11295 0.0
C2163 C 0.29573 0.88508 0.09968 0.0
C2164 C 0.25416 0.86899 0.10112 0.0
H2165 H 0.22362 0.86939 0.0753 0.0
C2166 C 0.24556 0.86615 0.11468 0.0
C2167 C 0.24622 0.87012 0.08672 0.0
C2168 C 0.25496 0.87252 0.0717 0.0
C2169 C 0.22916 0.8643 0.11424 0.0
C2170 C 0.2212 0.86561 0.09987 0.0
C2171 C 0.2298 0.86854 0.08631 0.0
C2172 C 0.20405 0.86304 0.09848 0.0
C2173 C 0.22055 0.8605 0.12905 0.0
C2174 C 0.19824 0.85072 0.0894 0.0
C2175 C 0.1821 0.84797 0.08813 0.0
C2176 C 0.17147 0.85753 0.09591 0.0
C2177 C 0.1773 0.87001 0.10487 0.0
C2178 C 0.19349 0.87278 0.1061 0.0
H2179 H 0.22867 0.85653 0.13831 0.0
H2180 H 0.21459 0.87102 0.13331 0.0
H2181 H 0.21144 0.85136 0.12699 0.0
H2182 H 0.20623 0.84311 0.08341 0.0
H2183 H 0.17797 0.83829 0.0811 0.0
H2184 H 0.88189 0.54559 0.88513 0.0
H2185 H 0.8873 0.51787 0.88453 0.0
H2186 H 0.83835 0.50785 0.87513 0.0
H2187 H 0.83274 0.53555 0.87569 0.0
H2188 H 0.85557 0.48756 0.89867 0.0
H2189 H 0.88401 0.49454 0.84099 0.0
H2190 H 0.89033 0.50766 0.85614 0.0
H2191 H 0.87061 0.50861 0.84871 0.0
C2192 C 0.87221 0.53751 0.88311 0.0
C2193 C 0.8569 0.54281 0.88028 0.0
C2194 C 0.87534 0.52169 0.88279 0.0
C2195 C 0.86323 0.51092 0.87968 0.0
C2196 C 0.84783 0.51606 0.87755 0.0
H2197 H 0.85653 0.41247 0.86167 0.0
H2198 H 0.8516 0.43889 0.87056 0.0
C2199 C 0.84468 0.53188 0.87781 0.0
C2200 C 0.86685 0.49442 0.87743 0.0
H2201 H 0.88407 0.46971 0.85198 0.0
C2202 C 0.86183 0.48359 0.88851 0.0
C2203 C 0.875 0.4894 0.86414 0.0
C2204 C 0.88024 0.50059 0.85172 0.0
C2205 C 0.86496 0.46775 0.88671 0.0
C2206 C 0.87299 0.4627 0.87332 0.0
C2207 C 0.87801 0.47361 0.86229 0.0
C2208 C 0.87608 0.44617 0.87012 0.0
C2209 C 0.85988 0.45665 0.89926 0.0
C2210 C 0.89145 0.44148 0.86692 0.0
C2211 C 0.89425 0.42651 0.86158 0.0
C2212 C 0.88172 0.41592 0.85941 0.0
C2213 C 0.86642 0.42037 0.86333 0.0
C2214 C 0.8636 0.43543 0.86851 0.0
H2215 H 0.85834 0.46269 0.91055 0.0
H2216 H 0.8484 0.45127 0.89596 0.0
H2217 H 0.86854 0.44729 0.90081 0.0
H2218 H 0.90125 0.44959 0.86805 0.0
H2219 H 0.90619 0.42339 0.85874 0.0
H2220 H 0.18092 0.13662 0.61078 0.0
H2221 H 0.20912 0.14121 0.60719 0.0
H2222 H 0.21353 0.09553 0.58746 0.0
H2223 H 0.1854 0.09086 0.5908 0.0
H2224 H 0.23305 0.12369 0.62054 0.0
H2225 H 0.23667 0.12338 0.55626 0.0
H2226 H 0.21837 0.12572 0.56648 0.0
H2227 H 0.22658 0.1068 0.56415 0.0
C2228 C 0.18785 0.12761 0.60549 0.0
C2229 C 0.18091 0.11337 0.60108 0.0
C2230 C 0.20394 0.13026 0.60348 0.0
C2231 C 0.21332 0.11877 0.59692 0.0
C2232 C 0.20642 0.10464 0.59228 0.0
H2233 H 0.31381 0.10683 0.60553 0.0
H2234 H 0.28512 0.10456 0.60716 0.0
C2235 C 0.19034 0.10198 0.59428 0.0
C2236 C 0.2305 0.12115 0.59578 0.0
H2237 H 0.26091 0.12173 0.57015 0.0
C2238 C 0.23916 0.12338 0.60953 0.0
C2239 C 0.23835 0.12085 0.58137 0.0
C2240 C 0.22952 0.1192 0.5662 0.0
C2241 C 0.25558 0.12498 0.60929 0.0
C2242 C 0.26348 0.12409 0.59493 0.0
C2243 C 0.25479 0.12222 0.58115 0.0
C2244 C 0.28077 0.12534 0.59394 0.0
C2245 C 0.26431 0.12777 0.62436 0.0
C2246 C 0.28772 0.13757 0.58568 0.0
C2247 C 0.30405 0.13884 0.58465 0.0
C2248 C 0.31369 0.12786 0.59182 0.0
C2249 C 0.30668 0.11551 0.59996 0.0
C2250 C 0.29032 0.11424 0.60097 0.0
H2251 H 0.25639 0.13193 0.63364 0.0
H2252 H 0.26954 0.11675 0.62829 0.0
H2253 H 0.274 0.13639 0.62283 0.0
H2254 H 0.28051 0.1462 0.58012 0.0
H2255 H 0.3091 0.14847 0.57826 0.0
H2256 H 0.1527 0.95856 0.87735 0.0
H2257 H 0.14599 0.98595 0.87927 0.0
H2258 H 0.09678 0.97346 0.88181 0.0
H2259 H 0.10334 0.94607 0.87981 0.0
H2260 H 0.10501 -0.00581 0.85777 0.0
H2261 H 0.12928 0.0139 0.91461 0.0
H2262 H 0.14255 0.00309 0.90273 0.0
H2263 H 0.12519 -0.00625 0.91021 0.0
C2264 C 0.14047 0.96163 0.87858 0.0
C2265 C 0.12854 0.95018 0.87831 0.0
C2266 C 0.13667 0.97727 0.87981 0.0
C2267 C 0.12091 0.98168 0.88086 0.0
C2268 C 0.10902 0.97025 0.88113 0.0
H2269 H 0.07584 0.06952 0.8634 0.0
H2270 H 0.08086 0.04332 0.87266 0.0
C2271 C 0.1128 0.95462 0.87994 0.0
C2272 C 0.11669 -0.00184 0.87967 0.0
H2273 H 0.12117 0.03356 0.89706 0.0
C2274 C 0.10837 0.00278 0.86645 0.0
C2275 C 0.12129 0.0093 0.89094 0.0
C2276 C 0.12997 0.0048 0.9055 0.0
C2277 C 0.10482 0.01835 0.86394 0.0
C2278 C 0.10935 0.02954 0.87521 0.0
C2279 C 0.1176 0.02492 0.88853 0.0
C2280 C 0.10619 0.04616 0.87283 0.0
C2281 C 0.09677 0.02271 0.84894 0.0
C2282 C 0.11873 0.0567 0.8709 0.0
C2283 C 0.11589 0.07177 0.86584 0.0
C2284 C 0.10046 0.07641 0.86254 0.0
C2285 C 0.08787 0.06618 0.86564 0.0
C2286 C 0.09071 0.05121 0.87088 0.0
H2287 H 0.09764 0.01343 0.84002 0.0
H2288 H 0.08411 0.02463 0.85116 0.0
H2289 H 0.10193 0.03355 0.84413 0.0
H2290 H 0.13076 0.05302 0.87244 0.0
H2291 H 0.12582 0.07943 0.8636 0.0
H2292 H 0.82544 0.37903 0.3542 0.0
H2293 H 0.79744 0.38484 0.35099 0.0
H2294 H 0.78591 0.35192 0.38692 0.0
H2295 H 0.81355 0.34554 0.38953 0.0
H2296 H 0.76722 0.34771 0.36369 0.0
H2297 H 0.76936 0.4106 0.37704 0.0
H2298 H 0.78154 0.40536 0.36099 0.0
H2299 H 0.786 0.39826 0.38011 0.0
C2300 C 0.81688 0.37312 0.36141 0.0
C2301 C 0.82162 0.36179 0.37205 0.0
C2302 C 0.80092 0.37652 0.35967 0.0
C2303 C 0.78956 0.36898 0.36887 0.0
C2304 C 0.79441 0.35786 0.37965 0.0
H2305 H 0.69342 0.3946 0.38621 0.0
H2306 H 0.72195 0.3912 0.38643 0.0
C2307 C 0.81023 0.35422 0.38113 0.0
C2308 C 0.77253 0.37199 0.36702 0.0
H2309 H 0.74489 0.40022 0.36822 0.0
C2310 C 0.76235 0.35921 0.36472 0.0
C2311 C 0.76615 0.38696 0.36851 0.0
C2312 C 0.7763 0.40106 0.37195 0.0
C2313 C 0.74601 0.36089 0.36419 0.0
C2314 C 0.73963 0.37591 0.36522 0.0
C2315 C 0.7498 0.38874 0.3673 0.0
C2316 C 0.72243 0.37846 0.36473 0.0
C2317 C 0.73579 0.34645 0.3632 0.0
C2318 C 0.71325 0.37268 0.35235 0.0
C2319 C 0.69695 0.37425 0.35243 0.0
C2320 C 0.68957 0.38208 0.36464 0.0
C2321 C 0.69881 0.38846 0.37669 0.0
C2322 C 0.7151 0.38656 0.37679 0.0
H2323 H 0.74212 0.3361 0.36739 0.0
H2324 H 0.7249 0.34766 0.37013 0.0
H2325 H 0.73242 0.3443 0.35091 0.0
H2326 H 0.71868 0.36686 0.34265 0.0
H2327 H 0.69013 0.36948 0.34284 0.0
H2328 H 0.89648 0.43924 0.61113 0.0
H2329 H 0.89887 0.46748 0.61211 0.0
H2330 H 0.84844 0.4709 0.61531 0.0
H2331 H 0.84592 0.44271 0.61467 0.0
H2332 H 0.88616 0.48912 0.59184 0.0
H2333 H 0.86387 0.49714 0.65186 0.0
H2334 H 0.86953 0.47849 0.64442 0.0
H2335 H 0.85089 0.48649 0.63908 0.0
C2336 C 0.8859 0.44599 0.61217 0.0
C2337 C 0.87102 0.43873 0.61293 0.0
C2338 C 0.88729 0.46211 0.61267 0.0
C2339 C 0.87384 0.47123 0.61394 0.0
C2340 C 0.85898 0.46404 0.61462 0.0
H2341 H 0.86922 0.57165 0.62605 0.0
H2342 H 0.86148 0.54523 0.61845 0.0
C2343 C 0.85757 0.44793 0.61422 0.0
C2344 C 0.87545 0.48828 0.61444 0.0
H2345 H 0.86987 0.51973 0.63769 0.0
C2346 C 0.88253 0.49584 0.60183 0.0
C2347 C 0.87059 0.49698 0.62744 0.0
C2348 C 0.86341 0.48939 0.64154 0.0
C2349 C 0.88518 0.51191 0.60202 0.0
C2350 C 0.88073 0.52052 0.6152 0.0
C2351 C 0.87316 0.51305 0.62756 0.0
C2352 C 0.88531 0.53694 0.61723 0.0
C2353 C 0.89286 0.51953 0.58822 0.0
C2354 C 0.90126 0.54099 0.6188 0.0
C2355 C 0.90572 0.55597 0.62323 0.0
C2356 C 0.89427 0.56716 0.62619 0.0
C2357 C 0.87831 0.56329 0.62382 0.0
C2358 C 0.87386 0.54823 0.6195 0.0
H2359 H 0.89142 0.51237 0.57755 0.0
H2360 H 0.8879 0.53115 0.58608 0.0
H2361 H 0.90565 0.521 0.59056 0.0
H2362 H 0.91025 0.53236 0.61734 0.0
H2363 H 0.91811 0.55861 0.6249 0.0
H2364 H 0.65388 0.53198 0.09708 0.0
H2365 H 0.65019 0.50391 0.09444 0.0
H2366 H 0.59991 0.50934 0.09675 0.0
H2367 H 0.60346 0.5373 0.09917 0.0
H2368 H 0.63647 0.48617 0.11676 0.0
H2369 H 0.60384 0.47819 0.06166 0.0
H2370 H 0.61454 0.49585 0.06634 0.0
H2371 H 0.59497 0.4926 0.07367 0.0
C2372 C 0.64204 0.5272 0.09674 0.0
C2373 C 0.62895 0.53682 0.09841 0.0
C2374 C 0.63996 0.51119 0.09518 0.0
C2375 C 0.62478 0.50458 0.09513 0.0
C2376 C 0.61171 0.51423 0.09634 0.0
H2377 H 0.57215 0.42728 0.11992 0.0
H2378 H 0.58356 0.45095 0.10915 0.0
C2379 C 0.61377 0.5302 0.0979 0.0
C2380 C 0.6225 0.4876 0.09591 0.0
H2381 H 0.60014 0.45796 0.08093 0.0
C2382 C 0.62887 0.47985 0.10871 0.0
C2383 C 0.61263 0.47944 0.08535 0.0
C2384 C 0.60624 0.48693 0.0709 0.0
C2385 C 0.6246 0.46447 0.11194 0.0
C2386 C 0.61388 0.45663 0.10194 0.0
C2387 C 0.60831 0.46406 0.08859 0.0
C2388 C 0.60681 0.44156 0.10629 0.0
C2389 C 0.63071 0.45712 0.12662 0.0
C2390 C 0.61603 0.42832 0.10779 0.0
C2391 C 0.60956 0.41476 0.11405 0.0
C2392 C 0.59377 0.41425 0.11885 0.0
C2393 C 0.58438 0.4273 0.11648 0.0
C2394 C 0.59085 0.44082 0.11025 0.0
H2395 H 0.63703 0.46559 0.13423 0.0
H2396 H 0.62089 0.45181 0.13329 0.0
H2397 H 0.63899 0.4478 0.12356 0.0
H2398 H 0.62833 0.42864 0.10458 0.0
H2399 H 0.61708 0.40486 0.11558 0.0
H2400 H 0.63388 0.70582 0.86696 0.0
H2401 H 0.63921 0.73364 0.86698 0.0
H2402 H 0.63829 0.73418 0.91703 0.0
H2403 H 0.63261 0.70633 0.9171 0.0
H2404 H 0.61785 0.75386 0.90473 0.0
H2405 H 0.67522 0.76318 0.8764 0.0
H2406 H 0.66285 0.75046 0.86506 0.0
H2407 H 0.66918 0.7446 0.88412 0.0
C2408 C 0.63518 0.71178 0.87798 0.0
C2409 C 0.63266 0.70393 0.89202 0.0
C2410 C 0.6384 0.72768 0.87799 0.0
C2411 C 0.63935 0.73596 0.89202 0.0
C2412 C 0.63771 0.72798 0.90609 0.0
H2413 H 0.62157 0.83623 0.89523 0.0
H2414 H 0.63217 0.81155 0.90412 0.0
C2415 C 0.63442 0.71208 0.90609 0.0
C2416 C 0.63943 0.7531 0.8918 0.0
H2417 H 0.65662 0.7843 0.87417 0.0
C2418 C 0.62657 0.76061 0.89843 0.0
C2419 C 0.65081 0.76186 0.88358 0.0
C2420 C 0.66537 0.7546 0.87704 0.0
C2421 C 0.62407 0.77641 0.896 0.0
C2422 C 0.6349 0.78495 0.88689 0.0
C2423 C 0.64832 0.77769 0.88111 0.0
C2424 C 0.63123 0.8007 0.88145 0.0
C2425 C 0.60925 0.78353 0.9022 0.0
C2426 C 0.62792 0.80294 0.86568 0.0
C2427 C 0.62194 0.81697 0.86057 0.0
C2428 C 0.61916 0.82905 0.87115 0.0
C2429 C 0.62342 0.8271 0.88682 0.0
C2430 C 0.62945 0.81302 0.89193 0.0
H2431 H 0.60098 0.77471 0.90701 0.0
H2432 H 0.61235 0.79186 0.9116 0.0
H2433 H 0.60308 0.78997 0.89291 0.0
H2434 H 0.62924 0.79356 0.85742 0.0
H2435 H 0.61895 0.81812 0.84839 0.0
H2436 H 0.5355 0.34383 0.14905 0.0
H2437 H 0.50853 0.3375 0.14113 0.0
H2438 H 0.52065 0.34583 0.09333 0.0
H2439 H 0.5478 0.35215 0.10115 0.0
H2440 H 0.49308 0.3621 0.1056 0.0
H2441 H 0.4916 0.29866 0.1163 0.0
H2442 H 0.4999 0.31033 0.13171 0.0
H2443 H 0.50969 0.30948 0.11333 0.0
C2444 C 0.53248 0.34416 0.13683 0.0
C2445 C 0.54374 0.34851 0.12571 0.0
C2446 C 0.5171 0.34048 0.13233 0.0
C2447 C 0.51271 0.3411 0.11666 0.0
C2448 C 0.52392 0.34523 0.10548 0.0
H2449 H 0.42228 0.31201 0.07858 0.0
H2450 H 0.45031 0.31579 0.08399 0.0
C2451 C 0.53938 0.34879 0.10995 0.0
C2452 C 0.49615 0.33831 0.11217 0.0
H2453 H 0.46702 0.31072 0.112 0.0
C2454 C 0.48737 0.35086 0.10687 0.0
C2455 C 0.48886 0.3236 0.1138 0.0
C2456 C 0.49799 0.30968 0.11898 0.0
C2457 C 0.47129 0.34916 0.10348 0.0
C2458 C 0.46386 0.33457 0.10564 0.0
C2459 C 0.47275 0.32192 0.11054 0.0
C2460 C 0.44688 0.33216 0.10268 0.0
C2461 C 0.4624 0.36295 0.09757 0.0
C2462 C 0.43571 0.33993 0.11161 0.0
C2463 C 0.41966 0.33779 0.10856 0.0
C2464 C 0.41458 0.32781 0.09657 0.0
C2465 C 0.42583 0.31981 0.08787 0.0
C2466 C 0.44184 0.32194 0.09094 0.0
H2467 H 0.47045 0.37212 0.09309 0.0
H2468 H 0.45405 0.35947 0.0882 0.0
H2469 H 0.45552 0.36798 0.10722 0.0
H2470 H 0.43941 0.34765 0.12091 0.0
H2471 H 0.41127 0.34406 0.11549 0.0
H2472 H 0.85335 0.16353 0.34426 0.0
H2473 H 0.84414 0.18894 0.35209 0.0
H2474 H 0.84211 0.17397 0.39973 0.0
H2475 H 0.85167 0.14847 0.39206 0.0
H2476 H 0.81813 0.20083 0.36886 0.0
H2477 H 0.87542 0.20903 0.39985 0.0
H2478 H 0.87181 0.19308 0.38669 0.0
H2479 H 0.86335 0.19285 0.40574 0.0
C2480 C 0.85073 0.16551 0.35639 0.0
C2481 C 0.85358 0.15407 0.36759 0.0
C2482 C 0.84537 0.18003 0.36082 0.0
C2483 C 0.84272 0.18337 0.3765 0.0
C2484 C 0.84435 0.17164 0.38759 0.0
H2485 H 0.84598 0.27864 0.4103 0.0
H2486 H 0.8398 0.25091 0.4103 0.0
C2487 C 0.84979 0.15709 0.38318 0.0
C2488 C 0.84017 0.1996 0.3812 0.0
H2489 H 0.85937 0.23054 0.39762 0.0
C2490 C 0.82698 0.20731 0.37539 0.0
C2491 C 0.85178 0.20799 0.3897 0.0
C2492 C 0.86646 0.20041 0.3958 0.0
C2493 C 0.82538 0.22334 0.37739 0.0
C2494 C 0.83742 0.23183 0.38516 0.0
C2495 C 0.85015 0.22398 0.39169 0.0
C2496 C 0.8381 0.24896 0.3853 0.0
C2497 C 0.81099 0.23107 0.37092 0.0
C2498 C 0.83893 0.25711 0.37125 0.0
C2499 C 0.84243 0.27296 0.37121 0.0
C2500 C 0.84537 0.28087 0.38522 0.0
C2501 C 0.84386 0.27283 0.39931 0.0
C2502 C 0.84027 0.25701 0.39934 0.0
H2503 H 0.8008 0.22288 0.37041 0.0
H2504 H 0.80774 0.24131 0.37798 0.0
H2505 H 0.81344 0.23498 0.3589 0.0
H2506 H 0.8377 0.25107 0.36026 0.0
H2507 H 0.84353 0.27884 0.36018 0.0
H2508 H 0.94747 0.63877 0.65567 0.0
H2509 H 0.97493 0.64487 0.64986 0.0
H2510 H 0.96505 0.64045 0.60088 0.0
H2511 H 0.93749 0.63413 0.60659 0.0
H2512 H -0.00867 0.6237 0.61121 0.0
H2513 H -0.00615 0.68483 0.63149 0.0
H2514 H 0.98606 0.67132 0.64538 0.0
H2515 H 0.97554 0.67464 0.62759 0.0
C2516 C 0.95109 0.63924 0.64364 0.0
C2517 C 0.94033 0.63597 0.63156 0.0
C2518 C 0.96676 0.6428 0.64036 0.0
C2519 C 0.97193 0.64326 0.62496 0.0
C2520 C 0.96122 0.64019 0.61285 0.0
H2521 H 0.05866 0.6774 0.58714 0.0
H2522 H 0.03165 0.67278 0.59547 0.0
C2523 C 0.9455 0.63663 0.61612 0.0
C2524 C 0.98869 0.64625 0.62154 0.0
H2525 H 0.01815 0.6733 0.62518 0.0
C2526 C -0.00278 0.63454 0.61423 0.0
C2527 C -0.00375 0.66043 0.62547 0.0
C2528 C 0.98745 0.6736 0.6328 0.0
C2529 C 0.01319 0.63663 0.61076 0.0
C2530 C 0.02082 0.65072 0.61493 0.0
C2531 C 0.01228 0.66245 0.62219 0.0
C2532 C 0.03738 0.65392 0.61084 0.0
C2533 C 0.02167 0.62393 0.6023 0.0
C2534 C 0.04959 0.64504 0.61703 0.0
C2535 C 0.0651 0.64763 0.61226 0.0
C2536 C 0.06857 0.65917 0.60128 0.0
C2537 C 0.05636 0.66837 0.59555 0.0
C2538 C 0.04091 0.66578 0.60031 0.0
H2539 H 0.01337 0.61527 0.59713 0.0
H2540 H 0.02915 0.62881 0.59293 0.0
H2541 H 0.02943 0.61782 0.61059 0.0
H2542 H 0.04708 0.636 0.62537 0.0
H2543 H 0.07428 0.64041 0.61691 0.0
H2544 H 0.63493 0.297 0.62854 0.0
H2545 H 0.63216 0.26891 0.6315 0.0
H2546 H 0.59458 0.26823 0.59764 0.0
H2547 H 0.59765 0.29612 0.59421 0.0
H2548 H 0.60837 0.25221 0.64146 0.0
H2549 H 0.62087 0.23387 0.58138 0.0
H2550 H 0.62469 0.25338 0.58815 0.0
H2551 H 0.60525 0.24756 0.58177 0.0
C2552 C 0.62613 0.29084 0.62168 0.0
C2553 C 0.61656 0.29875 0.61108 0.0
C2554 C 0.6246 0.27479 0.62334 0.0
C2555 C 0.61342 0.26641 0.61451 0.0
C2556 C 0.60365 0.27435 0.60417 0.0
H2557 H 0.56797 0.18129 0.63931 0.0
H2558 H 0.57606 0.20792 0.63377 0.0
C2559 C 0.60532 0.29033 0.60235 0.0
C2560 C 0.61126 0.24952 0.61678 0.0
H2561 H 0.6071 0.21519 0.59728 0.0
C2562 C 0.6083 0.2441 0.63182 0.0
C2563 C 0.61151 0.23886 0.60425 0.0
C2564 C 0.61593 0.2437 0.58802 0.0
C2565 C 0.60487 0.22844 0.63459 0.0
C2566 C 0.60386 0.21802 0.62189 0.0
C2567 C 0.60757 0.22327 0.60695 0.0
C2568 C 0.59849 0.20178 0.62391 0.0
C2569 C 0.60239 0.22324 0.65112 0.0
C2570 C 0.60801 0.18945 0.61932 0.0
C2571 C 0.60324 0.17415 0.62218 0.0
C2572 C 0.58895 0.17103 0.62974 0.0
C2573 C 0.57915 0.18338 0.63365 0.0
C2574 C 0.58381 0.1986 0.63061 0.0
H2575 H 0.60855 0.2311 0.65948 0.0
H2576 H 0.58965 0.22346 0.6538 0.0
H2577 H 0.60665 0.21129 0.65293 0.0
H2578 H 0.61931 0.19168 0.61396 0.0
H2579 H 0.61101 0.16483 0.61905 0.0
H2580 H 0.0675 0.3573 0.89933 0.0
H2581 H 0.03938 0.36104 0.89518 0.0
H2582 H 0.04699 0.36453 0.84588 0.0
H2583 H 0.0752 0.36101 0.84988 0.0
H2584 H 0.02507 0.3862 0.8581 0.0
H2585 H 0.0124 0.3255 0.8763 0.0
H2586 H 0.02314 0.33732 0.89005 0.0
H2587 H 0.03201 0.33236 0.87186 0.0
C2588 C 0.06324 0.359 0.8876 0.0
C2589 C 0.07357 0.35865 0.8749 0.0
C2590 C 0.04716 0.36112 0.88527 0.0
C2591 C 0.04114 0.3628 0.87022 0.0
C2592 C 0.05146 0.3632 0.85759 0.0
H2593 H 0.95415 0.34202 0.8269 0.0
H2594 H 0.9808 0.34407 0.83729 0.0
C2595 C 0.06756 0.36114 0.8599 0.0
C2596 C 0.024 0.36314 0.86746 0.0
H2597 H -0.00917 0.34046 0.86875 0.0
C2598 C 0.01751 0.37629 0.86056 0.0
C2599 C 0.01428 0.3501 0.87061 0.0
C2600 C 0.02077 0.33545 0.8775 0.0
C2601 C 0.00154 0.37662 0.85641 0.0
C2602 C -0.00811 0.3635 0.85939 0.0
C2603 C -0.0017 0.35052 0.86663 0.0
C2604 C 0.97555 0.36234 0.85361 0.0
C2605 C -0.00476 0.39068 0.84827 0.0
C2606 C 0.96375 0.37182 0.85955 0.0
C2607 C 0.94842 0.37068 0.85363 0.0
C2608 C 0.94472 0.36003 0.8417 0.0
C2609 C 0.95658 0.35039 0.83603 0.0
C2610 C 0.97182 0.35152 0.84196 0.0
H2611 H 0.00477 0.39888 0.84478 0.0
H2612 H 0.98843 0.38718 0.83776 0.0
H2613 H 0.98717 0.39687 0.85615 0.0
H2614 H 0.96641 0.3801 0.8687 0.0
H2615 H 0.93955 0.37825 0.85826 0.0
H2616 H 0.85946 0.6844 0.13355 0.0
H2617 H 0.86463 0.71221 0.13666 0.0
H2618 H 0.88406 0.71405 0.09056 0.0
H2619 H 0.87932 0.68632 0.08747 0.0
H2620 H 0.90249 0.7291 0.11133 0.0
H2621 H 0.84071 0.74771 0.11738 0.0
H2622 H 0.84616 0.73317 0.13114 0.0
H2623 H 0.8458 0.72859 0.11076 0.0
C2624 C 0.86481 0.69073 0.12408 0.0
C2625 C 0.86896 0.68314 0.11027 0.0
C2626 C 0.86764 0.70664 0.12582 0.0
C2627 C 0.87446 0.71522 0.11372 0.0
C2628 C 0.87871 0.70765 0.1 0.0
H2629 H 0.87955 0.81649 0.11223 0.0
H2630 H 0.87418 0.78934 0.10523 0.0
C2631 C 0.876 0.69178 0.09828 0.0
C2632 C 0.87774 0.73199 0.1155 0.0
H2633 H 0.86063 0.76657 0.12352 0.0
C2634 C 0.89332 0.73732 0.11389 0.0
C2635 C 0.86572 0.74271 0.11853 0.0
C2636 C 0.84864 0.7378 0.1194 0.0
C2637 C 0.89728 0.75302 0.11569 0.0
C2638 C 0.88539 0.76361 0.11955 0.0
C2639 C 0.86974 0.75838 0.12069 0.0
C2640 C 0.88908 0.77999 0.12323 0.0
C2641 C 0.91416 0.75814 0.11338 0.0
C2642 C 0.89915 0.78364 0.13569 0.0
C2643 C 0.90228 0.79903 0.13964 0.0
C2644 C 0.89526 0.81109 0.13132 0.0
C2645 C 0.88518 0.80743 0.11881 0.0
C2646 C 0.88208 0.79197 0.11482 0.0
H2647 H 0.92057 0.74988 0.10589 0.0
H2648 H 0.91489 0.76982 0.10807 0.0
H2649 H 0.92024 0.75861 0.12481 0.0
H2650 H 0.90438 0.77455 0.14255 0.0
H2651 H 0.91002 0.80146 0.14941 0.0
H2652 H 0.40276 0.62346 0.35004 0.0
H2653 H 0.43003 0.61941 0.34226 0.0
H2654 H 0.44499 0.62324 0.39003 0.0
H2655 H 0.4179 0.62742 0.39793 0.0
H2656 H 0.46058 0.64348 0.36978 0.0
H2657 H 0.46054 0.58293 0.34773 0.0
H2658 H 0.44524 0.59482 0.33996 0.0
H2659 H 0.44534 0.5902 0.36027 0.0
C2660 C 0.41181 0.62317 0.35892 0.0
C2661 C 0.40817 0.62589 0.37459 0.0
C2662 C 0.42737 0.62077 0.35446 0.0
C2663 C 0.43946 0.62092 0.3656 0.0
C2664 C 0.43579 0.62305 0.38129 0.0
H2665 H 0.53987 0.60706 0.35214 0.0
H2666 H 0.51282 0.60559 0.36177 0.0
C2667 C 0.42029 0.62546 0.38575 0.0
C2668 C 0.45609 0.6205 0.36082 0.0
H2669 H 0.48329 0.59847 0.34237 0.0
C2670 C 0.46559 0.6336 0.36389 0.0
C2671 C 0.46254 0.60754 0.35324 0.0
C2672 C 0.45295 0.593 0.3502 0.0
C2673 C 0.48132 0.63424 0.35924 0.0
C2674 C 0.48763 0.6215 0.35122 0.0
C2675 C 0.4783 0.60823 0.34846 0.0
C2676 C 0.50381 0.62205 0.34522 0.0
C2677 C 0.4911 0.64855 0.36284 0.0
C2678 C 0.50753 0.63172 0.33272 0.0
C2679 C 0.52288 0.63257 0.32717 0.0
C2680 C 0.5348 0.62379 0.33409 0.0
C2681 C 0.53098 0.61404 0.34662 0.0
C2682 C 0.51556 0.61312 0.35209 0.0
H2683 H 0.48545 0.65603 0.37165 0.0
H2684 H 0.50294 0.64533 0.36715 0.0
H2685 H 0.49269 0.65539 0.35208 0.0
H2686 H 0.49853 0.63861 0.32726 0.0
H2687 H 0.52541 0.64017 0.3175 0.0
H2688 H 0.83244 0.59546 0.81961 0.0
H2689 H 0.8353 0.59736 0.79146 0.0
H2690 H 0.88459 0.6085 0.79722 0.0
H2691 H 0.88189 0.60677 0.82538 0.0
H2692 H 0.86786 0.62757 0.77543 0.0
H2693 H 0.85858 0.56432 0.76533 0.0
H2694 H 0.84375 0.57409 0.77629 0.0
H2695 H 0.86317 0.57225 0.78426 0.0
C2696 C 0.84389 0.59838 0.81491 0.0
C2697 C 0.85697 0.60085 0.82474 0.0
C2698 C 0.84548 0.59941 0.79883 0.0
C2699 C 0.86018 0.60289 0.79233 0.0
C2700 C 0.87316 0.60576 0.80208 0.0
H2701 H 0.90592 0.58963 0.7071 0.0
H2702 H 0.89484 0.58913 0.73312 0.0
C2703 C 0.87159 0.60473 0.81815 0.0
C2704 C 0.86224 0.60319 0.77535 0.0
H2705 H 0.86382 0.57974 0.74346 0.0
C2706 C 0.8668 0.61718 0.76836 0.0
C2707 C 0.8609 0.58955 0.76629 0.0
C2708 C 0.85644 0.57414 0.77337 0.0
C2709 C 0.8705 0.61782 0.75254 0.0
C2710 C 0.86944 0.60412 0.74355 0.0
C2711 C 0.86446 0.59021 0.75044 0.0
C2712 C 0.87515 0.60365 0.72742 0.0
C2713 C 0.87621 0.63295 0.74572 0.0
C2714 C 0.8675 0.61173 0.71557 0.0
C2715 C 0.87381 0.61205 0.70062 0.0
C2716 C 0.88787 0.60431 0.69738 0.0
C2717 C 0.89515 0.59581 0.70922 0.0
C2718 C 0.88882 0.59546 0.72409 0.0
H2719 H 0.87851 0.6419 0.75477 0.0
H2720 H 0.88717 0.63121 0.73903 0.0
H2721 H 0.86717 0.63738 0.73761 0.0
H2722 H 0.85682 0.61797 0.71794 0.0
H2723 H 0.86789 0.61866 0.69173 0.0
H2724 H 0.60656 0.58877 0.06308 0.0
H2725 H 0.60059 0.59244 0.03559 0.0
H2726 H 0.60175 0.64194 0.04215 0.0
H2727 H 0.60773 0.63846 0.06977 0.0
H2728 H 0.57531 0.61896 0.01864 0.0
H2729 H 0.64052 0.62119 0.01165 0.0
H2730 H 0.6315 0.60917 0.02631 0.0
H2731 H 0.63151 0.62981 0.02845 0.0
C2732 C 0.60519 0.60045 0.05879 0.0
C2733 C 0.60784 0.61335 0.06855 0.0
C2734 C 0.6017 0.60249 0.0431 0.0
C2735 C 0.6008 0.61743 0.03696 0.0
C2736 C 0.60234 0.63033 0.04681 0.0
H2737 H 0.61455 0.65233 0.94511 0.0
H2738 H 0.61252 0.64798 0.97292 0.0
C2739 C 0.60577 0.62831 0.06255 0.0
C2740 C 0.60057 0.61951 0.02002 0.0
H2741 H 0.62514 0.62369 0.98918 0.0
C2742 C 0.58614 0.62001 0.01212 0.0
C2743 C 0.61478 0.62081 0.01172 0.0
C2744 C 0.63053 0.62022 0.01986 0.0
C2745 C 0.5856 0.62201 -0.00405 0.0
C2746 C 0.59986 0.62328 0.98762 0.0
C2747 C 0.61425 0.62268 -0.00439 0.0
C2748 C 0.60027 0.62594 0.9707 0.0
C2749 C 0.56983 0.62312 0.98796 0.0
C2750 C 0.59413 0.61489 0.96022 0.0
C2751 C 0.59525 0.61734 0.94422 0.0
C2752 C 0.60264 0.63083 0.93849 0.0
C2753 C 0.60882 0.6418 0.94908 0.0
C2754 C 0.60764 0.63936 0.965 0.0
H2755 H 0.56024 0.6254 -0.00367 0.0
H2756 H 0.57 0.63245 0.97913 0.0
H2757 H 0.56709 0.61201 0.98195 0.0
H2758 H 0.58869 0.6043 0.96441 0.0
H2759 H 0.59042 0.60866 0.93636 0.0
H2760 H 0.5781 0.40458 0.19833 0.0
H2761 H 0.58684 0.40808 0.22514 0.0
H2762 H 0.61531 0.36731 0.22138 0.0
H2763 H 0.60704 0.36407 0.1943 0.0
H2764 H 0.58174 0.38924 0.24871 0.0
H2765 H 0.64605 0.39723 0.24113 0.0
H2766 H 0.63239 0.39786 0.22506 0.0
H2767 H 0.6386 0.37955 0.23269 0.0
C2768 C 0.58637 0.39646 0.20315 0.0
C2769 C 0.59191 0.38406 0.19422 0.0
C2770 C 0.59134 0.39847 0.21847 0.0
C2771 C 0.60184 0.38805 0.22522 0.0
C2772 C 0.6075 0.37571 0.21631 0.0
H2773 H 0.6113 0.37758 0.32536 0.0
H2774 H 0.60467 0.37413 0.29789 0.0
C2775 C 0.60271 0.37382 0.20086 0.0
C2776 C 0.60607 0.3897 0.24185 0.0
H2777 H 0.63705 0.39347 0.26697 0.0
C2778 C 0.59384 0.39024 0.2527 0.0
C2779 C 0.62185 0.39115 0.247 0.0
C2780 C 0.63547 0.39158 0.23585 0.0
C2781 C 0.59693 0.39219 0.26859 0.0
C2782 C 0.61271 0.39311 0.2738 0.0
C2783 C 0.62496 0.39261 0.26295 0.0
C2784 C 0.61679 0.39503 0.29042 0.0
C2785 C 0.58322 0.39366 0.27953 0.0
C2786 C 0.62618 0.40766 0.29527 0.0
C2787 C 0.63021 0.40951 0.31089 0.0
C2788 C 0.62483 0.39879 0.32196 0.0
C2789 C 0.61544 0.38613 0.3171 0.0
C2790 C 0.61159 0.38418 0.30143 0.0
H2791 H 0.57238 0.39726 0.27334 0.0
H2792 H 0.58075 0.38225 0.28496 0.0
H2793 H 0.58585 0.4022 0.28889 0.0
H2794 H 0.63035 0.41614 0.28696 0.0
H2795 H 0.63748 0.41936 0.31431 0.0
H2796 H 0.87492 0.35771 0.56595 0.0
H2797 H 0.88005 0.35177 0.53855 0.0
H2798 H 0.86055 0.39562 0.52528 0.0
H2799 H 0.85531 0.40158 0.55238 0.0
H2800 H 0.84714 0.36915 0.51021 0.0
H2801 H 0.91254 0.37096 0.50739 0.0
H2802 H 0.9039 0.3596 0.5227 0.0
H2803 H 0.90175 0.38023 0.52277 0.0
C2804 C 0.87192 0.36614 0.55719 0.0
C2805 C 0.86463 0.38006 0.56129 0.0
C2806 C 0.87492 0.36277 0.54159 0.0
C2807 C 0.87076 0.37333 0.52998 0.0
C2808 C 0.86388 0.38737 0.53411 0.0
H2809 H 0.88443 0.37717 0.43068 0.0
H2810 H 0.88492 0.38202 0.45874 0.0
C2811 C 0.86086 0.39072 0.54961 0.0
C2812 C 0.87227 0.36937 0.51341 0.0
H2813 H 0.89882 0.36342 0.48451 0.0
C2814 C 0.85843 0.36785 0.50459 0.0
C2815 C 0.88704 0.36784 0.50617 0.0
C2816 C 0.9022 0.36983 0.51516 0.0
C2817 C 0.85893 0.36485 0.48864 0.0
C2818 C 0.87368 0.36314 0.48141 0.0
C2819 C 0.88756 0.36469 0.49019 0.0
C2820 C 0.87473 0.35973 0.46468 0.0
C2821 C 0.8437 0.36379 0.47958 0.0
C2822 C 0.86911 0.34551 0.45891 0.0
C2823 C 0.86874 0.34273 0.44297 0.0
C2824 C 0.87405 0.35413 0.43252 0.0
C2825 C 0.88018 0.3682 0.43841 0.0
C2826 C 0.88053 0.37097 0.45441 0.0
H2827 H 0.8337 0.3686 0.48619 0.0
H2828 H 0.84474 0.37008 0.4684 0.0
H2829 H 0.84095 0.35146 0.47693 0.0
H2830 H 0.86473 0.33667 0.46673 0.0
H2831 H 0.86408 0.3317 0.43887 0.0
H2832 H 0.85114 0.37392 0.78914 0.0
H2833 H 0.84556 0.37029 0.76131 0.0
H2834 H 0.89529 0.37159 0.75179 0.0
H2835 H 0.90096 0.37515 0.77929 0.0
H2836 H 0.85531 0.3898 0.73588 0.0
H2837 H 0.87953 0.33078 0.73124 0.0
H2838 H 0.87418 0.3394 0.74957 0.0
H2839 H 0.89266 0.34436 0.74067 0.0
C2840 C 0.86085 0.37348 0.78107 0.0
C2841 C 0.87649 0.37471 0.78639 0.0
C2842 C 0.85766 0.37135 0.76524 0.0
C2843 C 0.87005 0.3703 0.75462 0.0
C2844 C 0.8856 0.37198 0.75988 0.0
H2845 H 0.89293 0.3701 0.65944 0.0
H2846 H 0.89135 0.36711 0.68761 0.0
C2847 C 0.88879 0.37413 0.77559 0.0
C2848 C 0.867 0.36798 0.73789 0.0
H2849 H 0.87664 0.34476 0.70737 0.0
C2850 C 0.85966 0.37983 0.72963 0.0
C2851 C 0.87274 0.35494 0.72987 0.0
C2852 C 0.88009 0.34157 0.7383 0.0
C2853 C 0.85876 0.37942 0.71338 0.0
C2854 C 0.86512 0.36668 0.7053 0.0
C2855 C 0.87184 0.35452 0.71363 0.0
C2856 C 0.86591 0.36639 0.68818 0.0
C2857 C 0.85179 0.39302 0.70496 0.0
C2858 C 0.85214 0.36632 0.67919 0.0
C2859 C 0.85299 0.36808 0.66313 0.0
C2860 C 0.86765 0.36983 0.65578 0.0
C2861 C 0.88146 0.36884 0.66474 0.0
C2862 C 0.88058 0.36714 0.68083 0.0
H2863 H 0.85027 0.40317 0.71274 0.0
H2864 H 0.85934 0.39658 0.69508 0.0
H2865 H 0.84006 0.38963 0.70024 0.0
H2866 H 0.84072 0.36542 0.68466 0.0
H2867 H 0.84212 0.36861 0.65654 0.0
H2868 H 0.82624 0.60599 0.92864 0.0
H2869 H 0.83785 0.61575 0.95279 0.0
H2870 H 0.87713 0.63493 0.92746 0.0
H2871 H 0.86549 0.62523 0.90308 0.0
H2872 H 0.88482 0.61482 0.95347 0.0
H2873 H 0.84327 0.66091 0.96946 0.0
H2874 H 0.83361 0.64322 0.96347 0.0
H2875 H 0.84536 0.65393 0.94979 0.0
C2876 C 0.83723 0.61249 0.92816 0.0
C2877 C 0.84497 0.61485 0.91401 0.0
C2878 C 0.8438 0.61811 0.94195 0.0
C2879 C 0.85825 0.62616 0.94183 0.0
C2880 C 0.8659 0.62883 0.92771 0.0
H2881 H 0.88367 0.65721 0.03515 0.0
H2882 H 0.88412 0.65746 0.0068 0.0
C2883 C 0.85923 0.62333 0.91384 0.0
C2884 C 0.86571 0.63059 0.95672 0.0
H2885 H 0.8579 0.64955 0.99044 0.0
C2886 C 0.8792 0.6227 0.96147 0.0
C2887 C 0.85848 0.64103 0.96698 0.0
C2888 C 0.84446 0.65039 0.96213 0.0
C2889 C 0.8849 0.62406 0.97673 0.0
C2890 C 0.87676 0.63341 0.98742 0.0
C2891 C 0.86406 0.64226 0.98226 0.0
C2892 C 0.87985 0.63282 0.00431 0.0
C2893 C 0.89923 0.61509 0.9814 0.0
C2894 C 0.87769 0.6188 0.01228 0.0
C2895 C 0.87741 0.61861 0.02848 0.0
C2896 C 0.87913 0.63247 0.03694 0.0
C2897 C 0.88224 0.64635 0.02894 0.0
C2898 C 0.88253 0.64652 0.01275 0.0
H2899 H 0.90705 0.61315 0.97132 0.0
H2900 H 0.90603 0.62119 0.99068 0.0
H2901 H 0.89546 0.60358 0.98584 0.0
H2902 H 0.87525 0.60814 0.006 0.0
H2903 H 0.87497 0.60775 0.03431 0.0
H2904 H 0.5838 0.60426 0.27714 0.0
H2905 H 0.592 0.60176 0.25017 0.0
H2906 H 0.64054 0.6006 0.26471 0.0
H2907 H 0.63246 0.6032 0.29195 0.0
H2908 H 0.61878 0.62451 0.23582 0.0
H2909 H 0.62737 0.56061 0.23413 0.0
H2910 H 0.61328 0.5691 0.24714 0.0
H2911 H 0.6339 0.57188 0.25071 0.0
C2912 C 0.59623 0.6034 0.27466 0.0
C2913 C 0.60751 0.60395 0.28666 0.0
C2914 C 0.60086 0.602 0.25926 0.0
C2915 C 0.61682 0.60101 0.25558 0.0
C2916 C 0.62816 0.60133 0.26745 0.0
H2917 H 0.65341 0.58332 0.16308 0.0
H2918 H 0.65101 0.58663 0.19113 0.0
C2919 C 0.62353 0.60281 0.28294 0.0
C2920 C 0.62141 0.6 0.23917 0.0
H2921 H 0.62919 0.57403 0.21048 0.0
C2922 C 0.62124 0.61353 0.23025 0.0
C2923 C 0.62463 0.58566 0.23212 0.0
C2924 C 0.62484 0.5709 0.24142 0.0
C2925 C 0.62396 0.61303 0.21423 0.0
C2926 C 0.62649 0.59855 0.20699 0.0
C2927 C 0.62715 0.58509 0.21606 0.0
C2928 C 0.62806 0.59704 0.18998 0.0
C2929 C 0.62411 0.62799 0.20524 0.0
C2930 C 0.61586 0.60166 0.18005 0.0
C2931 C 0.61722 0.59987 0.164 0.0
C2932 C 0.63073 0.59323 0.15765 0.0
C2933 C 0.64285 0.58848 0.16763 0.0
C2934 C 0.64152 0.59036 0.18366 0.0
H2935 H 0.62682 0.63808 0.21289 0.0
H2936 H 0.63288 0.62774 0.19575 0.0
H2937 H 0.61232 0.62975 0.20001 0.0
H2938 H 0.6052 0.60649 0.18474 0.0
H2939 H 0.60765 0.60353 0.1566 0.0
H2940 H 0.60586 0.37465 0.53588 0.0
H2941 H 0.60367 0.37558 0.50762 0.0
H2942 H 0.60218 0.32566 0.50565 0.0
H2943 H 0.6046 0.3246 0.53392 0.0
H2944 H 0.62475 0.33845 0.487 0.0
H2945 H 0.56799 0.36732 0.47688 0.0
H2946 H 0.58036 0.37777 0.49035 0.0
H2947 H 0.57311 0.35873 0.49528 0.0
C2948 C 0.60478 0.36387 0.52946 0.0
C2949 C 0.60548 0.34956 0.53711 0.0
C2950 C 0.60341 0.36442 0.51332 0.0
C2951 C 0.60255 0.35069 0.50457 0.0
C2952 C 0.60272 0.33638 0.51222 0.0
H2953 H 0.61736 0.34371 0.40353 0.0
H2954 H 0.60974 0.33634 0.42993 0.0
C2955 C 0.60412 0.33582 0.52836 0.0
C2956 C 0.60326 0.35132 0.48743 0.0
H2957 H 0.58648 0.3681 0.45576 0.0
C2958 C 0.61622 0.34465 0.48009 0.0
C2959 C 0.5921 0.3594 0.4785 0.0
C2960 C 0.57752 0.36608 0.48564 0.0
C2961 C 0.61884 0.34667 0.46418 0.0
C2962 C 0.60806 0.35538 0.45538 0.0
C2963 C 0.59472 0.36145 0.46258 0.0
C2964 C 0.61132 0.35968 0.43912 0.0
C2965 C 0.63357 0.34024 0.45709 0.0
C2966 C 0.61428 0.37525 0.43551 0.0
C2967 C 0.61858 0.37949 0.42052 0.0
C2968 C 0.61996 0.36823 0.40879 0.0
C2969 C 0.61651 0.35265 0.41232 0.0
C2970 C 0.61219 0.34841 0.42739 0.0
H2971 H 0.64195 0.33606 0.46603 0.0
H2972 H 0.63037 0.33034 0.44939 0.0
H2973 H 0.63963 0.34916 0.44994 0.0
H2974 H 0.61366 0.38411 0.44442 0.0
H2975 H 0.62105 0.39161 0.41821 0.0
H2976 H 0.71083 0.92024 0.61286 0.0
H2977 H 0.73695 0.90919 0.61542 0.0
H2978 H 0.71655 0.86717 0.63387 0.0
H2979 H 0.69022 0.87813 0.63141 0.0
H2980 H 0.75176 0.89472 0.64465 0.0
H2981 H 0.74321 0.85592 0.59327 0.0
H2982 H 0.73164 0.87307 0.59595 0.0
H2983 H 0.72813 0.85641 0.60786 0.0
C2984 C 0.71184 0.90866 0.61751 0.0
C2985 C 0.69843 0.90001 0.62183 0.0
C2986 C 0.72679 0.90242 0.61904 0.0
C2987 C 0.72858 0.88741 0.6248 0.0
C2988 C 0.71531 0.87879 0.62937 0.0
H2989 H 0.81465 0.83516 0.61493 0.0
H2990 H 0.78812 0.84207 0.62278 0.0
C2991 C 0.70031 0.88506 0.62795 0.0
C2992 C 0.74437 0.88063 0.6252 0.0
H2993 H 0.76823 0.85682 0.60474 0.0
C2994 C 0.75538 0.88628 0.63607 0.0
C2995 C 0.7489 0.8696 0.61403 0.0
C2996 C 0.73744 0.86337 0.60203 0.0
C2997 C 0.77103 0.88137 0.63586 0.0
C2998 C 0.77579 0.8709 0.62418 0.0
C2999 C 0.76457 0.86485 0.61368 0.0
C3000 C 0.79246 0.86681 0.62184 0.0
C3001 C 0.78229 0.88749 0.64809 0.0
C3002 C 0.8038 0.87843 0.61897 0.0
C3003 C 0.81904 0.87452 0.61463 0.0
C3004 C 0.82308 0.85891 0.61278 0.0
C3005 C 0.81186 0.84729 0.61616 0.0
C3006 C 0.7967 0.85122 0.62068 0.0
H3007 H 0.77598 0.89065 0.65888 0.0
H3008 H 0.7914 0.87888 0.651 0.0
H3009 H 0.78824 0.89812 0.64371 0.0
H3010 H 0.80069 0.89054 0.61939 0.0
H3011 H 0.82739 0.88372 0.612 0.0
H3012 H 0.18987 0.63052 0.36929 0.0
H3013 H 0.21786 0.63639 0.3736 0.0
H3014 H 0.22069 0.59805 0.40544 0.0
H3015 H 0.193 0.59171 0.40057 0.0
H3016 H 0.23586 0.6439 0.39763 0.0
H3017 H 0.2542 0.5869 0.37529 0.0
H3018 H 0.23425 0.59348 0.37364 0.0
H3019 H 0.24109 0.58477 0.39137 0.0
C3020 C 0.19647 0.62346 0.37731 0.0
C3021 C 0.18942 0.61054 0.38445 0.0
C3022 C 0.21243 0.62679 0.37974 0.0
C3023 C 0.22145 0.61735 0.38946 0.0
C3024 C 0.21409 0.60512 0.39744 0.0
H3025 H 0.31306 0.63978 0.42781 0.0
H3026 H 0.28498 0.63582 0.42273 0.0
C3027 C 0.19826 0.6016 0.39477 0.0
C3028 C 0.23862 0.62001 0.39106 0.0
H3029 H 0.27377 0.60163 0.38917 0.0
C3030 C 0.24418 0.6347 0.39566 0.0
C3031 C 0.24949 0.60812 0.38806 0.0
C3032 C 0.24446 0.5925 0.38164 0.0
C3033 C 0.26029 0.6377 0.39785 0.0
C3034 C 0.27104 0.62548 0.39596 0.0
C3035 C 0.26551 0.61093 0.39088 0.0
C3036 C 0.28807 0.62746 0.39922 0.0
C3037 C 0.26559 0.65399 0.4019 0.0
C3038 C 0.29918 0.62326 0.38802 0.0
C3039 C 0.31525 0.62505 0.39109 0.0
C3040 C 0.32043 0.63123 0.40535 0.0
C3041 C 0.30933 0.63513 0.41666 0.0
C3042 C 0.2933 0.63305 0.4137 0.0
H3043 H 0.25701 0.66264 0.39772 0.0
H3044 H 0.26646 0.65518 0.4147 0.0
H3045 H 0.27726 0.6568 0.39682 0.0
H3046 H 0.29542 0.6188 0.37681 0.0
H3047 H 0.32358 0.62202 0.38215 0.0
H3048 H 0.62609 0.08357 0.61497 0.0
H3049 H 0.62841 0.05557 0.61068 0.0
H3050 H 0.5971 0.04694 0.64907 0.0
H3051 H 0.59407 0.07468 0.65274 0.0
H3052 H 0.63952 0.03381 0.62711 0.0
H3053 H 0.57689 0.01924 0.61823 0.0
H3054 H 0.584 0.03901 0.61874 0.0
H3055 H 0.57926 0.02897 0.63648 0.0
C3056 C 0.61966 0.07564 0.62239 0.0
C3057 C 0.60977 0.08124 0.63406 0.0
C3058 C 0.62093 0.05967 0.61992 0.0
C3059 C 0.61253 0.04911 0.62925 0.0
C3060 C 0.60315 0.05479 0.64127 0.0
H3061 H 0.64063 0.95705 0.65091 0.0
H3062 H 0.6356 0.98477 0.64934 0.0
C3063 C 0.60157 0.07067 0.64348 0.0
C3064 C 0.6142 0.03215 0.62713 0.0
H3065 H 0.59324 -0.00188 0.62696 0.0
C3066 C 0.62938 0.02603 0.62681 0.0
C3067 C 0.60102 0.02194 0.62627 0.0
C3068 C 0.58441 0.02768 0.62475 0.0
C3069 C 0.63174 0.01001 0.62652 0.0
C3070 C 0.61855 -0.00019 0.62735 0.0
C3071 C 0.60337 0.00591 0.62677 0.0
C3072 C 0.62031 0.98285 0.62919 0.0
C3073 C 0.64836 0.00425 0.62522 0.0
C3074 C 0.61239 0.97242 0.61919 0.0
C3075 C 0.61476 0.95648 0.62051 0.0
C3076 C 0.62525 0.95084 0.6317 0.0
C3077 C 0.6326 0.96119 0.64211 0.0
C3078 C 0.62991 0.97703 0.64106 0.0
H3079 H 0.65598 0.01275 0.61903 0.0
H3080 H 0.65338 0.00277 0.63703 0.0
H3081 H 0.64878 -0.00699 0.61897 0.0
H3082 H 0.60477 0.97662 0.61007 0.0
H3083 H 0.60903 0.94867 0.61229 0.0
H3084 H 0.15888 0.3792 0.88062 0.0
H3085 H 0.18575 0.38859 0.87585 0.0
H3086 H 0.20411 0.34985 0.90128 0.0
H3087 H 0.17739 0.34055 0.90634 0.0
H3088 H 0.21752 0.37778 0.91 0.0
H3089 H 0.21801 0.37061 0.84592 0.0
H3090 H 0.20209 0.38195 0.85315 0.0
H3091 H 0.20315 0.36177 0.85802 0.0
C3092 C 0.16865 0.37267 0.88515 0.0
C3093 C 0.16605 0.35914 0.89384 0.0
C3094 C 0.18397 0.37799 0.88232 0.0
C3095 C 0.19688 0.36978 0.88803 0.0
C3096 C 0.19429 0.3563 0.89673 0.0
H3097 H 0.29539 0.37959 0.86476 0.0
H3098 H 0.26818 0.37069 0.86808 0.0
C3099 C 0.17901 0.35102 0.8996 0.0
C3100 C 0.21312 0.37546 0.88546 0.0
H3101 H 0.24004 0.38362 0.85731 0.0
C3102 C 0.22246 0.37905 0.89849 0.0
C3103 C 0.21954 0.37689 0.87042 0.0
C3104 C 0.21025 0.37247 0.85606 0.0
C3105 C 0.23807 0.38418 0.89689 0.0
C3106 C 0.24436 0.38604 0.88185 0.0
C3107 C 0.23508 0.3823 0.86881 0.0
C3108 C 0.26064 0.39166 0.87946 0.0
C3109 C 0.24778 0.38726 0.91133 0.0
C3110 C 0.26528 0.40648 0.88455 0.0
C3111 C 0.2808 0.41159 0.88274 0.0
C3112 C 0.29193 0.40198 0.8757 0.0
C3113 C 0.28713 0.38725 0.87029 0.0
C3114 C 0.2716 0.38215 0.87214 0.0
H3115 H 0.24259 0.38156 0.92168 0.0
H3116 H 0.25999 0.38314 0.90986 0.0
H3117 H 0.24832 0.39992 0.91359 0.0
H3118 H 0.25689 0.41409 0.88995 0.0
H3119 H 0.28407 0.42304 0.88692 0.0
H3120 H 0.39075 0.40542 0.62027 0.0
H3121 H 0.38584 0.43282 0.61567 0.0
H3122 H 0.33597 0.42434 0.62028 0.0
H3123 H 0.34074 0.39677 0.62442 0.0
H3124 H 0.34285 0.44505 0.59708 0.0
H3125 H 0.37484 0.46115 0.65137 0.0
H3126 H 0.3864 0.45075 0.63757 0.0
H3127 H 0.36976 0.44136 0.64652 0.0
C3128 C 0.37871 0.40935 0.62015 0.0
C3129 C 0.36613 0.39899 0.62292 0.0
C3130 C 0.37595 0.42502 0.61759 0.0
C3131 C 0.36059 0.43066 0.61806 0.0
C3132 C 0.34793 0.42022 0.62 0.0
H3133 H 0.31276 0.5152 0.62892 0.0
H3134 H 0.32182 0.48867 0.62633 0.0
C3135 C 0.35067 0.40448 0.62236 0.0
C3136 C 0.35771 0.44749 0.61729 0.0
H3137 H 0.36487 0.48163 0.63641 0.0
C3138 C 0.34774 0.45306 0.60561 0.0
C3139 C 0.3641 0.45791 0.62849 0.0
C3140 C 0.37425 0.45251 0.64178 0.0
C3141 C 0.34379 0.46876 0.60498 0.0
C3142 C 0.34998 0.47905 0.6163 0.0
C3143 C 0.3603 0.47363 0.6277 0.0
C3144 C 0.34468 0.49518 0.61742 0.0
C3145 C 0.33283 0.47425 0.59241 0.0
C3146 C 0.3547 0.50756 0.61346 0.0
C3147 C 0.34955 0.52282 0.61486 0.0
C3148 C 0.33439 0.52584 0.62047 0.0
C3149 C 0.32452 0.51331 0.62461 0.0
C3150 C 0.32961 0.49814 0.62306 0.0
H3151 H 0.33145 0.4656 0.5829 0.0
H3152 H 0.32107 0.47633 0.59747 0.0
H3153 H 0.3372 0.48535 0.58745 0.0
H3154 H 0.36644 0.50542 0.60921 0.0
H3155 H 0.35743 0.53221 0.6116 0.0
H3156 H 0.77287 0.06862 0.10447 0.0
H3157 H 0.74489 0.07461 0.10327 0.0
H3158 H 0.75626 0.12344 0.10477 0.0
H3159 H 0.78431 0.11758 0.10579 0.0
H3160 H 0.72779 0.09118 0.12541 0.0
H3161 H 0.72604 0.11938 0.06765 0.0
H3162 H 0.74229 0.10769 0.07393 0.0
H3163 H 0.74071 0.12736 0.08058 0.0
C3164 C 0.76943 0.08065 0.10438 0.0
C3165 C 0.78077 0.09265 0.10519 0.0
C3166 C 0.75345 0.08402 0.10374 0.0
C3167 C 0.74856 0.09944 0.10379 0.0
C3168 C 0.75984 0.11147 0.10445 0.0
H3169 H 0.66179 0.14797 0.10446 0.0
H3170 H 0.68885 0.13943 0.10687 0.0
C3171 C 0.77584 0.1081 0.10508 0.0
C3172 C 0.73162 0.10294 0.10372 0.0
H3173 H 0.70334 0.12185 0.08339 0.0
C3174 C 0.72238 0.09778 0.11618 0.0
C3175 C 0.72466 0.1115 0.09162 0.0
C3176 C 0.73389 0.11669 0.07761 0.0
C3177 C 0.70638 0.10141 0.11711 0.0
C3178 C 0.69952 0.11024 0.10516 0.0
C3179 C 0.70871 0.11514 0.09257 0.0
C3180 C 0.68294 0.11501 0.1056 0.0
C3181 C 0.69706 0.09619 0.13104 0.0
C3182 C 0.67063 0.10404 0.10443 0.0
C3183 C 0.65505 0.10889 0.10309 0.0
C3184 C 0.65165 0.12477 0.10275 0.0
C3185 C 0.66401 0.13565 0.10456 0.0
C3186 C 0.67949 0.13081 0.10594 0.0
H3187 H 0.70479 0.09226 0.14064 0.0
H3188 H 0.6896 0.1057 0.13539 0.0
H3189 H 0.68918 0.08638 0.12762 0.0
H3190 H 0.67311 0.09179 0.10393 0.0
H3191 H 0.64579 0.10024 0.10165 0.0
H3192 H 0.59501 0.04438 0.85394 0.0
H3193 H 0.58553 0.01777 0.84912 0.0
H3194 H 0.63294 0.00373 0.83946 0.0
H3195 H 0.64247 0.03011 0.84415 0.0
H3196 H 0.60907 -0.00778 0.81803 0.0
H3197 H 0.59513 0.982 0.88033 0.0
H3198 H 0.58666 -0.00134 0.87121 0.0
H3199 H 0.60754 -0.00207 0.87413 0.0
C3200 C 0.60337 0.03562 0.85067 0.0
C3201 C 0.61949 0.03926 0.84955 0.0
C3202 C 0.59795 0.02047 0.84797 0.0
C3203 C 0.60859 0.00884 0.84409 0.0
C3204 C 0.62458 0.01258 0.84246 0.0
H3205 H 0.61471 0.91156 0.8524 0.0
H3206 H 0.61656 0.93982 0.85355 0.0
C3207 C 0.63 0.02764 0.8452 0.0
C3208 C 0.60342 -0.00745 0.84234 0.0
H3209 H 0.59242 0.96081 0.86333 0.0
C3210 C 0.60518 0.98536 0.82785 0.0
C3211 C 0.59855 0.9837 0.85527 0.0
C3212 C 0.59691 -0.00914 0.87117 0.0
C3213 C 0.60263 0.96938 0.82602 0.0
C3214 C 0.59809 0.96048 0.83902 0.0
C3215 C 0.59587 0.96775 0.85341 0.0
C3216 C 0.59673 0.94345 0.83822 0.0
C3217 C 0.60551 0.962 0.81041 0.0
C3218 C 0.58491 0.93622 0.82926 0.0
C3219 C 0.58384 0.92008 0.82855 0.0
C3220 C 0.59454 0.91096 0.83684 0.0
C3221 C 0.60632 0.91827 0.84585 0.0
C3222 C 0.60737 0.93439 0.84656 0.0
H3223 H 0.61151 0.97009 0.80228 0.0
H3224 H 0.61278 0.95151 0.81171 0.0
H3225 H 0.59409 0.95837 0.80515 0.0
H3226 H 0.57649 0.94306 0.8229 0.0
H3227 H 0.57459 0.91476 0.82156 0.0
H3228 H 0.86884 0.07127 0.36149 0.0
H3229 H 0.86938 0.04324 0.36545 0.0
H3230 H 0.89232 0.03762 0.32126 0.0
H3231 H 0.89248 0.06565 0.31762 0.0
H3232 H 0.85528 0.02184 0.34963 0.0
H3233 H 0.91891 0.01022 0.34714 0.0
H3234 H 0.91139 0.02958 0.34872 0.0
H3235 H 0.91252 0.02015 0.33007 0.0
C3236 C 0.87411 0.06404 0.3527 0.0
C3237 C 0.88062 0.07058 0.33926 0.0
C3238 C 0.87447 0.04805 0.35499 0.0
C3239 C 0.88119 0.03834 0.3438 0.0
C3240 C 0.88757 0.04489 0.3303 0.0
H3241 H 0.85101 0.94454 0.32929 0.0
H3242 H 0.85827 0.97192 0.32693 0.0
C3243 C 0.88748 0.06089 0.32814 0.0
C3244 C 0.88026 0.02131 0.34562 0.0
H3245 H 0.90155 0.98817 0.34303 0.0
C3246 C 0.86546 0.01453 0.34838 0.0
C3247 C 0.89357 0.01173 0.34424 0.0
C3248 C 0.91 0.01833 0.34256 0.0
C3249 C 0.86347 -0.00155 0.3493 0.0
C3250 C 0.87655 0.98885 0.34675 0.0
C3251 C 0.89149 -0.00443 0.3446 0.0
C3252 C 0.87471 0.97181 0.34621 0.0
C3253 C 0.84736 -0.00804 0.35311 0.0
C3254 C 0.88252 0.96247 0.357 0.0
C3255 C 0.87869 0.94669 0.35807 0.0
C3256 C 0.8669 0.94024 0.34846 0.0
C3257 C 0.86002 0.94935 0.3369 0.0
C3258 C 0.86408 0.96497 0.33564 0.0
H3259 H 0.84015 0.00057 0.35937 0.0
H3260 H 0.84109 0.98888 0.34217 0.0
H3261 H 0.84817 0.98139 0.36035 0.0
H3262 H 0.89088 0.96754 0.36516 0.0
H3263 H 0.8841 0.93985 0.36711 0.0
H3264 H 0.33957 0.28335 0.11634 0.0
H3265 H 0.33414 0.25651 0.12372 0.0
H3266 H 0.34858 0.24107 0.07841 0.0
H3267 H 0.35385 0.26797 0.07081 0.0
H3268 H 0.32149 0.22393 0.09253 0.0
H3269 H 0.37445 0.23025 0.13047 0.0
H3270 H 0.35938 0.24432 0.13337 0.0
H3271 H 0.36994 0.24394 0.11538 0.0
C3272 C 0.34132 0.27428 0.10784 0.0
C3273 C 0.34739 0.27772 0.09308 0.0
C3274 C 0.33817 0.25897 0.11207 0.0
C3275 C 0.34117 0.24687 0.10166 0.0
C3276 C 0.3462 0.2503 0.08658 0.0
H3277 H 0.35795 0.15027 0.10331 0.0
H3278 H 0.34734 0.17543 0.09638 0.0
C3279 C 0.34927 0.26565 0.08229 0.0
C3280 C 0.34105 0.2307 0.10715 0.0
H3281 H 0.36131 0.20627 0.13057 0.0
C3282 C 0.33008 0.22002 0.10094 0.0
C3283 C 0.35233 0.22572 0.11807 0.0
C3284 C 0.36479 0.23658 0.12466 0.0
C3285 C 0.33013 0.20438 0.10542 0.0
C3286 C 0.34162 0.19937 0.11615 0.0
C3287 C 0.35238 0.21016 0.1225 0.0
C3288 C 0.34383 0.18287 0.12012 0.0
C3289 C 0.31793 0.19341 0.09866 0.0
C3290 C 0.34499 0.17849 0.13576 0.0
C3291 C 0.35135 0.16424 0.13975 0.0
C3292 C 0.35656 0.1541 0.12815 0.0
C3293 C 0.35399 0.15785 0.1125 0.0
C3294 C 0.34781 0.17221 0.10851 0.0
H3295 H 0.30717 0.19966 0.0951 0.0
H3296 H 0.32279 0.18779 0.08817 0.0
H3297 H 0.3146 0.18423 0.10707 0.0
H3298 H 0.34199 0.18656 0.1449 0.0
H3299 H 0.35307 0.1616 0.15192 0.0
H3300 H 0.56874 0.64248 0.85532 0.0
H3301 H 0.54084 0.63982 0.84845 0.0
H3302 H 0.52877 0.66867 0.88745 0.0
H3303 H 0.55653 0.67163 0.8942 0.0
H3304 H 0.51843 0.62666 0.86676 0.0
H3305 H 0.50224 0.68696 0.85306 0.0
H3306 H 0.52242 0.68081 0.85416 0.0
H3307 H 0.51183 0.68537 0.87157 0.0
C3308 C 0.56015 0.64846 0.86227 0.0
C3309 C 0.56482 0.65725 0.8753 0.0
C3310 C 0.54424 0.64693 0.85833 0.0
C3311 C 0.53277 0.65422 0.86732 0.0
C3312 C 0.53744 0.66325 0.88014 0.0
H3313 H 0.43672 0.62533 0.88127 0.0
H3314 H 0.46464 0.63215 0.88348 0.0
C3315 C 0.55332 0.66482 0.88405 0.0
C3316 C 0.51587 0.6513 0.8642 0.0
H3317 H 0.48088 0.66929 0.85842 0.0
C3318 C 0.51024 0.63596 0.86476 0.0
C3319 C 0.50525 0.66345 0.86145 0.0
C3320 C 0.51076 0.68005 0.85986 0.0
C3321 C 0.49417 0.63247 0.86314 0.0
C3322 C 0.48346 0.64469 0.86125 0.0
C3323 C 0.48913 0.65998 0.86014 0.0
C3324 C 0.46632 0.64174 0.86037 0.0
C3325 C 0.48883 0.61572 0.86344 0.0
C3326 C 0.45792 0.64552 0.8469 0.0
C3327 C 0.44193 0.64176 0.84564 0.0
C3328 C 0.43409 0.63419 0.85786 0.0
C3329 C 0.44243 0.63103 0.87159 0.0
C3330 C 0.4584 0.63483 0.87285 0.0
H3331 H 0.49861 0.60778 0.86074 0.0
H3332 H 0.48445 0.61285 0.87521 0.0
H3333 H 0.47912 0.61354 0.855 0.0
H3334 H 0.46384 0.65096 0.8372 0.0
H3335 H 0.43585 0.64442 0.83492 0.0
H3336 H 0.11567 0.72062 0.57485 0.0
H3337 H 0.12235 0.74677 0.58337 0.0
H3338 H 0.1607 0.72921 0.61091 0.0
H3339 H 0.15324 0.70277 0.60318 0.0
H3340 H 0.14598 0.74682 0.62783 0.0
H3341 H 0.15277 0.77957 0.5741 0.0
H3342 H 0.13426 0.76959 0.57247 0.0
H3343 H 0.1522 0.75867 0.57396 0.0
C3344 C 0.12574 0.72238 0.58244 0.0
C3345 C 0.1339 0.70972 0.58841 0.0
C3346 C 0.12971 0.73739 0.58719 0.0
C3347 C 0.14229 0.74012 0.59755 0.0
C3348 C 0.15099 0.72747 0.60287 0.0
H3349 H 0.13344 0.83802 0.62159 0.0
H3350 H 0.14832 0.81518 0.61382 0.0
C3351 C 0.14673 0.71238 0.59846 0.0
C3352 C 0.14465 0.75578 0.60448 0.0
H3353 H 0.13981 0.79384 0.5957 0.0
C3354 C 0.14514 0.75713 0.62074 0.0
C3355 C 0.14425 0.76943 0.59543 0.0
C3356 C 0.14605 0.76918 0.57803 0.0
C3357 C 0.14337 0.77148 0.6281 0.0
C3358 C 0.14022 0.78469 0.61899 0.0
C3359 C 0.14165 0.78367 0.60278 0.0
C3360 C 0.13313 0.79879 0.62573 0.0
C3361 C 0.14434 0.77217 0.64558 0.0
C3362 C 0.11979 0.79725 0.63519 0.0
C3363 C 0.11153 0.81024 0.63987 0.0
C3364 C 0.11611 0.82505 0.63481 0.0
C3365 C 0.12965 0.82671 0.62565 0.0
C3366 C 0.13815 0.81368 0.62121 0.0
H3367 H 0.15352 0.76423 0.64992 0.0
H3368 H 0.1471 0.78405 0.64986 0.0
H3369 H 0.13297 0.7682 0.65054 0.0
H3370 H 0.11523 0.78593 0.63835 0.0
H3371 H 0.10104 0.80856 0.64678 0.0
H3372 H 0.04045 0.35041 0.33229 0.0
H3373 H 0.01209 0.34566 0.33195 0.0
H3374 H 0.00938 0.36033 0.37975 0.0
H3375 H 0.03774 0.36546 0.38013 0.0
H3376 H -0.00537 0.32581 0.34914 0.0
H3377 H 0.97547 0.38597 0.35943 0.0
H3378 H -0.0046 0.38136 0.35423 0.0
H3379 H 0.98895 0.37943 0.374 0.0
C3380 C 0.03384 0.35268 0.34274 0.0
C3381 C 0.04136 0.35838 0.35623 0.0
C3382 C 0.01763 0.34997 0.3425 0.0
C3383 C 0.00861 0.35291 0.35572 0.0
C3384 C 0.01608 0.35836 0.36929 0.0
H3385 H 0.92039 0.31601 0.38422 0.0
H3386 H 0.94776 0.32132 0.37771 0.0
C3387 C 0.03231 0.36117 0.36952 0.0
C3388 C -0.00853 0.34972 0.35549 0.0
H3389 H 0.95598 0.36597 0.36298 0.0
C3390 C 0.98616 0.33463 0.35199 0.0
C3391 C 0.98042 0.36131 0.35889 0.0
C3392 C 0.98532 0.37797 0.36168 0.0
C3393 C 0.97013 0.33065 0.35249 0.0
C3394 C 0.95919 0.342 0.35692 0.0
C3395 C 0.96441 0.35725 0.35972 0.0
C3396 C 0.94249 0.33805 0.35985 0.0
C3397 C 0.96507 0.31432 0.34837 0.0
C3398 C 0.93042 0.34586 0.3521 0.0
C3399 C 0.91468 0.34293 0.3559 0.0
C3400 C 0.91083 0.33225 0.3676 0.0
C3401 C 0.92296 0.32427 0.37511 0.0
C3402 C 0.93862 0.3272 0.37133 0.0
H3403 H 0.97365 0.30879 0.34049 0.0
H3404 H 0.96445 0.3073 0.35912 0.0
H3405 H 0.95331 0.31403 0.34271 0.0
H3406 H 0.9332 0.35437 0.34328 0.0
H3407 H 0.90559 0.3493 0.34996 0.0
H3408 H 0.37281 0.82588 0.36898 0.0
H3409 H 0.36659 0.80108 0.38151 0.0
H3410 H 0.36541 0.7785 0.33681 0.0
H3411 H 0.37167 0.80308 0.32419 0.0
H3412 H 0.33964 0.77046 0.36133 0.0
H3413 H 0.4024 0.76603 0.37983 0.0
H3414 H 0.3921 0.78379 0.38326 0.0
H3415 H 0.39665 0.77814 0.36379 0.0
C3416 C 0.37092 0.81569 0.36179 0.0
C3417 C 0.37289 0.81639 0.34561 0.0
C3418 C 0.36742 0.80157 0.36898 0.0
C3419 C 0.36569 0.78805 0.36004 0.0
C3420 C 0.36674 0.78887 0.34385 0.0
H3421 H 0.35489 0.69075 0.36152 0.0
H3422 H 0.35426 0.71855 0.35698 0.0
C3423 C 0.37036 0.80291 0.33668 0.0
C3424 C 0.36413 0.77276 0.36745 0.0
H3425 H 0.38615 0.74419 0.3834 0.0
C3426 C 0.34971 0.76476 0.36639 0.0
C3427 C 0.3773 0.76548 0.37409 0.0
C3428 C 0.39306 0.7737 0.37533 0.0
C3429 C 0.34823 0.74937 0.37141 0.0
C3430 C 0.36167 0.74175 0.37718 0.0
C3431 C 0.3759 0.75004 0.37891 0.0
C3432 C 0.36159 0.72491 0.38028 0.0
C3433 C 0.33235 0.74141 0.37031 0.0
C3434 C 0.3665 0.71922 0.39472 0.0
C3435 C 0.36714 0.70327 0.39729 0.0
C3436 C 0.36289 0.69274 0.38544 0.0
C3437 C 0.35811 0.69852 0.37095 0.0
C3438 C 0.35758 0.71443 0.36837 0.0
H3439 H 0.32269 0.7499 0.371 0.0
H3440 H 0.33129 0.73537 0.35896 0.0
H3441 H 0.33076 0.73273 0.37968 0.0
H3442 H 0.36983 0.72714 0.404 0.0
H3443 H 0.37086 0.6992 0.40858 0.0
H3444 H 0.02707 0.61115 0.1679 0.0
H3445 H -0.001 0.60458 0.16678 0.0
H3446 H 0.00147 0.60115 0.1169 0.0
H3447 H 0.02954 0.60741 0.11793 0.0
H3448 H 0.97751 0.62214 0.15241 0.0
H3449 H 0.97505 0.56323 0.12719 0.0
H3450 H -0.00713 0.57157 0.1354 0.0
H3451 H 0.98703 0.5761 0.11583 0.0
C3452 C 0.02167 0.60876 0.15672 0.0
C3453 C 0.03047 0.60986 0.14299 0.0
C3454 C 0.00566 0.60495 0.15611 0.0
C3455 C -0.00178 0.60211 0.14179 0.0
C3456 C 0.00707 0.60287 0.12811 0.0
H3457 H 0.9119 0.60966 0.09693 0.0
H3458 H 0.93819 0.60309 0.10588 0.0
C3459 C 0.02307 0.60662 0.1287 0.0
C3460 C 0.98092 0.60029 0.14089 0.0
H3461 H 0.95159 0.57855 0.12405 0.0
C3462 C 0.97178 0.61243 0.14656 0.0
C3463 C 0.97351 0.5876 0.13324 0.0
C3464 C 0.98263 0.57382 0.12771 0.0
C3465 C 0.95554 0.61277 0.14384 0.0
C3466 C 0.94825 0.60048 0.13545 0.0
C3467 C 0.95725 0.58794 0.13048 0.0
C3468 C 0.93179 0.60155 0.13009 0.0
C3469 C 0.9465 0.62675 0.14908 0.0
C3470 C 0.91938 0.60222 0.14071 0.0
C3471 C 0.9043 0.60609 0.13565 0.0
C3472 C 0.90146 0.60929 0.11989 0.0
C3473 C 0.91371 0.60745 0.10917 0.0
C3474 C 0.92874 0.60361 0.11425 0.0
H3475 H 0.95438 0.63629 0.15324 0.0
H3476 H 0.93911 0.63119 0.13945 0.0
H3477 H 0.93859 0.62341 0.15874 0.0
H3478 H 0.92151 0.60044 0.15298 0.0
H3479 H 0.89509 0.60726 0.14418 0.0
H3480 H 0.12652 0.29469 0.8546 0.0
H3481 H 0.12695 0.26671 0.85059 0.0
H3482 H 0.11862 0.25949 0.89939 0.0
H3483 H 0.11779 0.28752 0.90348 0.0
H3484 H 0.14641 0.24468 0.86343 0.0
H3485 H 0.08385 0.23353 0.87912 0.0
H3486 H 0.09155 0.25277 0.87562 0.0
H3487 H 0.09554 0.24325 0.89369 0.0
C3488 C 0.12472 0.28718 0.86449 0.0
C3489 C 0.12199 0.29334 0.87934 0.0
C3490 C 0.12503 0.27119 0.86218 0.0
C3491 C 0.12265 0.26105 0.87466 0.0
C3492 C 0.12018 0.26713 0.88955 0.0
H3493 H 0.10978 0.16041 0.86626 0.0
H3494 H 0.11716 0.18535 0.87813 0.0
C3495 C 0.11975 0.28314 0.89186 0.0
C3496 C 0.1226 0.24414 0.87189 0.0
H3497 H 0.09872 0.21204 0.87178 0.0
C3498 C 0.13604 0.2375 0.8654 0.0
C3499 C 0.10908 0.2348 0.87455 0.0
C3500 C 0.09413 0.24142 0.88101 0.0
C3501 C 0.13612 0.22184 0.86102 0.0
C3502 C 0.12241 0.21269 0.86312 0.0
C3503 C 0.10924 0.21912 0.87029 0.0
C3504 C 0.12066 0.19707 0.85625 0.0
C3505 C 0.15076 0.21529 0.85389 0.0
C3506 C 0.12046 0.19543 0.84006 0.0
C3507 C 0.11614 0.18131 0.83327 0.0
C3508 C 0.11195 0.16857 0.84256 0.0
C3509 C 0.113 0.17 0.8588 0.0
C3510 C 0.11719 0.18422 0.8656 0.0
H3511 H 0.16141 0.22215 0.85725 0.0
H3512 H 0.15238 0.20305 0.8574 0.0
H3513 H 0.14964 0.21564 0.84106 0.0
H3514 H 0.12285 0.20529 0.83266 0.0
H3515 H 0.11549 0.18056 0.82073 0.0
H3516 H 0.57927 0.3669 0.64269 0.0
H3517 H 0.55157 0.37189 0.64822 0.0
H3518 H 0.54247 0.37799 0.59937 0.0
H3519 H 0.56998 0.37278 0.59367 0.0
H3520 H 0.52983 0.39645 0.64067 0.0
H3521 H 0.51494 0.34026 0.61213 0.0
H3522 H 0.5348 0.3457 0.61756 0.0
H3523 H 0.52607 0.35344 0.60025 0.0
C3524 C 0.57143 0.36957 0.63315 0.0
C3525 C 0.57673 0.36917 0.61772 0.0
C3526 C 0.55564 0.37244 0.63634 0.0
C3527 C 0.545 0.375 0.62416 0.0
C3528 C 0.5505 0.37575 0.60888 0.0
H3529 H 0.44435 0.37554 0.61446 0.0
H3530 H 0.47261 0.37956 0.61106 0.0
C3531 C 0.56621 0.37277 0.60566 0.0
C3532 C 0.52795 0.37544 0.6272 0.0
H3533 H 0.49366 0.35583 0.61955 0.0
C3534 C 0.52188 0.38758 0.6361 0.0
C3535 C 0.5177 0.36374 0.62133 0.0
C3536 C 0.52368 0.34996 0.61241 0.0
C3537 C 0.50567 0.38853 0.63895 0.0
C3538 C 0.49544 0.37696 0.63282 0.0
C3539 C 0.50156 0.36476 0.62408 0.0
C3540 C 0.4783 0.37698 0.63541 0.0
C3541 C 0.49954 0.40198 0.6482 0.0
C3542 C 0.47218 0.37442 0.65027 0.0
C3543 C 0.45602 0.37207 0.65226 0.0
C3544 C 0.44579 0.37214 0.63937 0.0
C3545 C 0.45193 0.37534 0.6246 0.0
C3546 C 0.46805 0.37769 0.62264 0.0
H3547 H 0.50839 0.41154 0.64923 0.0
H3548 H 0.48868 0.40655 0.6428 0.0
H3549 H 0.49656 0.39799 0.66007 0.0
H3550 H 0.47995 0.37356 0.66022 0.0
H3551 H 0.45162 0.36963 0.66378 0.0
H3552 H 0.12871 0.36039 0.29158 0.0
H3553 H 0.13358 0.35861 0.2637 0.0
H3554 H 0.08539 0.34413 0.25597 0.0
H3555 H 0.0803 0.34625 0.28381 0.0
H3556 H 0.13021 0.33509 0.24121 0.0
H3557 H 0.08935 0.38375 0.23055 0.0
H3558 H 0.09594 0.37867 0.24976 0.0
H3559 H 0.08095 0.36721 0.24018 0.0
C3560 C 0.11919 0.35666 0.28397 0.0
C3561 C 0.10406 0.35369 0.28984 0.0
C3562 C 0.122 0.3556 0.26806 0.0
C3563 C 0.10976 0.35151 0.25778 0.0
C3564 C 0.0949 0.34762 0.2637 0.0
H3565 H 0.11175 0.36806 0.15769 0.0
H3566 H 0.10392 0.35617 0.18229 0.0
C3567 C 0.09203 0.3488 0.2796 0.0
C3568 C 0.11237 0.35253 0.24085 0.0
H3569 H 0.1026 0.37381 0.20906 0.0
C3570 C 0.12405 0.34342 0.23411 0.0
C3571 C 0.10428 0.36339 0.23164 0.0
C3572 C 0.09202 0.37392 0.23837 0.0
C3573 C 0.12818 0.34521 0.21847 0.0
C3574 C 0.12054 0.35651 0.20946 0.0
C3575 C 0.10837 0.3651 0.216 0.0
C3576 C 0.12611 0.36103 0.19387 0.0
C3577 C 0.14086 0.33519 0.21179 0.0
C3578 C 0.14123 0.36748 0.1922 0.0
C3579 C 0.1457 0.37434 0.17823 0.0
C3580 C 0.13508 0.37492 0.16571 0.0
C3581 C 0.12019 0.36778 0.16714 0.0
C3582 C 0.11571 0.36097 0.18116 0.0
H3583 H 0.14179 0.3241 0.2182 0.0
H3584 H 0.13861 0.33261 0.19933 0.0
H3585 H 0.15235 0.34139 0.2128 0.0
H3586 H 0.14932 0.36797 0.20195 0.0
H3587 H 0.15725 0.37973 0.17748 0.0
H3588 H 0.36719 0.41285 0.92339 0.0
H3589 H 0.37228 0.40099 0.94856 0.0
H3590 H 0.36319 0.35573 0.92888 0.0
H3591 H 0.35809 0.36748 0.90355 0.0
H3592 H 0.34466 0.36416 0.95578 0.0
H3593 H 0.40868 0.37375 0.96529 0.0
H3594 H 0.39831 0.39044 0.95856 0.0
H3595 H 0.39973 0.37371 0.94621 0.0
C3596 C 0.36656 0.40035 0.92432 0.0
C3597 C 0.36216 0.39111 0.91149 0.0
C3598 C 0.36956 0.39359 0.93869 0.0
C3599 C 0.36821 0.37751 0.9405 0.0
C3600 C 0.36438 0.36818 0.92763 0.0
H3601 H 0.36179 0.32752 0.02889 0.0
H3602 H 0.36188 0.3333 0.00112 0.0
C3603 C 0.36151 0.37491 0.91319 0.0
C3604 C 0.36917 0.37074 0.95618 0.0
H3605 H 0.39338 0.36753 0.98762 0.0
C3606 C 0.35535 0.36463 0.96271 0.0
C3607 C 0.38312 0.37153 0.96511 0.0
C3608 C 0.39836 0.37759 0.95843 0.0
C3609 C 0.35491 0.35995 0.97827 0.0
C3610 C 0.36879 0.36108 0.98736 0.0
C3611 C 0.38275 0.36671 0.98063 0.0
C3612 C 0.3689 0.35734 0.0041 0.0
C3613 C 0.33942 0.35458 0.98502 0.0
C3614 C 0.37315 0.36883 0.01494 0.0
C3615 C 0.37329 0.36553 0.03077 0.0
C3616 C 0.36913 0.35066 0.03608 0.0
C3617 C 0.36489 0.33913 0.02519 0.0
C3618 C 0.36489 0.34242 0.00932 0.0
H3619 H 0.32929 0.35793 0.97763 0.0
H3620 H 0.33931 0.34177 0.98593 0.0
H3621 H 0.33775 0.35947 -0.00317 0.0
H3622 H 0.37629 0.38042 0.01114 0.0
H3623 H 0.37662 0.37467 0.03884 0.0
H3624 H 0.31525 0.59436 0.67689 0.0
H3625 H 0.3255 0.60578 0.70087 0.0
H3626 H 0.37045 0.61379 0.67918 0.0
H3627 H 0.36034 0.60224 0.65504 0.0
H3628 H 0.37211 0.5986 0.70766 0.0
H3629 H 0.3357 0.65096 0.71235 0.0
H3630 H 0.32422 0.63368 0.7088 0.0
H3631 H 0.33792 0.64039 0.69437 0.0
C3632 C 0.32728 0.59865 0.67713 0.0
C3633 C 0.33698 0.59736 0.66404 0.0
C3634 C 0.33307 0.60532 0.69082 0.0
C3635 C 0.34863 0.61088 0.69168 0.0
C3636 C 0.35835 0.60971 0.67865 0.0
H3637 H 0.39795 0.63428 0.77895 0.0
H3638 H 0.39228 0.63337 0.75105 0.0
C3639 C 0.35255 0.60307 0.66491 0.0
C3640 C 0.355 0.61667 0.70664 0.0
H3641 H 0.34777 0.64214 0.73601 0.0
C3642 C 0.36705 0.60832 0.71376 0.0
C3643 C 0.34835 0.62936 0.7145 0.0
C3644 C 0.33594 0.63922 0.70705 0.0
C3645 C 0.37194 0.61169 0.72898 0.0
C3646 C 0.36474 0.62392 0.73713 0.0
C3647 C 0.35323 0.63276 0.72972 0.0
C3648 C 0.36786 0.62661 0.75381 0.0
C3649 C 0.38407 0.60154 0.73654 0.0
C3650 C 0.35582 0.62379 0.76453 0.0
C3651 C 0.35897 0.62438 0.78042 0.0
C3652 C 0.37424 0.62783 0.78586 0.0
C3653 C 0.3861 0.63147 0.7751 0.0
C3654 C 0.38291 0.6309 0.75918 0.0
H3655 H 0.38637 0.59096 0.72959 0.0
H3656 H 0.39531 0.60815 0.73777 0.0
H3657 H 0.38022 0.59799 0.74831 0.0
H3658 H 0.34411 0.6205 0.76059 0.0
H3659 H 0.34956 0.6216 0.78842 0.0
H3660 H 0.1075 0.66343 0.52618 0.0
H3661 H 0.10431 0.65904 0.49828 0.0
H3662 H 0.09355 0.61082 0.5067 0.0
H3663 H 0.09621 0.61519 0.53457 0.0
H3664 H 0.12154 0.64099 0.48079 0.0
H3665 H 0.05978 0.62067 0.47584 0.0
H3666 H 0.0675 0.62982 0.49322 0.0
H3667 H 0.07047 0.60949 0.48972 0.0
C3668 C 0.10429 0.65192 0.52209 0.0
C3669 C 0.10212 0.63965 0.53258 0.0
C3670 C 0.1024 0.64945 0.50616 0.0
C3671 C 0.09837 0.63467 0.50041 0.0
C3672 C 0.09615 0.62242 0.51087 0.0
H3673 H 0.11347 0.58388 0.41879 0.0
H3674 H 0.10443 0.59357 0.44383 0.0
C3675 C 0.09786 0.62491 0.52681 0.0
C3676 C 0.09807 0.63169 0.48347 0.0
H3677 H 0.07681 0.61404 0.45445 0.0
C3678 C 0.11162 0.6354 0.47497 0.0
C3679 C 0.08511 0.6244 0.47588 0.0
C3680 C 0.06984 0.62102 0.48412 0.0
C3681 C 0.1129 0.63132 0.45929 0.0
C3682 C 0.10024 0.6234 0.45192 0.0
C3683 C 0.08646 0.62013 0.46021 0.0
C3684 C 0.10195 0.61719 0.43607 0.0
C3685 C 0.12807 0.63484 0.45089 0.0
C3686 C 0.10279 0.62718 0.4233 0.0
C3687 C 0.10792 0.62168 0.40895 0.0
C3688 C 0.11237 0.60615 0.40727 0.0
C3689 C 0.11023 0.59593 0.41977 0.0
C3690 C 0.10503 0.60142 0.43406 0.0
H3691 H 0.13737 0.63951 0.45879 0.0
H3692 H 0.13248 0.62422 0.44518 0.0
H3693 H 0.12589 0.64353 0.4417 0.0
H3694 H 0.1004 0.63939 0.42469 0.0
H3695 H 0.10941 0.62982 0.39951 0.0
H3696 H 0.08409 0.62426 0.19869 0.0
H3697 H 0.09012 0.6232 0.22639 0.0
H3698 H 0.13918 0.6319 0.21672 0.0
H3699 H 0.13322 0.63337 0.189 0.0
H3700 H 0.10878 0.60276 0.24057 0.0
H3701 H 0.13169 0.66221 0.25164 0.0
H3702 H 0.12111 0.65699 0.23412 0.0
H3703 H 0.14167 0.65272 0.23606 0.0
C3704 C 0.09615 0.6261 0.20245 0.0
C3705 C 0.10818 0.6289 0.19163 0.0
C3706 C 0.09956 0.62552 0.21829 0.0
C3707 C 0.11505 0.62772 0.22362 0.0
C3708 C 0.12708 0.63058 0.21288 0.0
H3709 H 0.16567 0.60826 0.30692 0.0
H3710 H 0.15677 0.61593 0.28109 0.0
C3711 C 0.12367 0.63129 0.19703 0.0
C3712 C 0.11876 0.62585 0.24029 0.0
H3713 H 0.13695 0.64334 0.27129 0.0
C3714 C 0.11475 0.61171 0.24735 0.0
C3715 C 0.12653 0.63756 0.24909 0.0
C3716 C 0.13036 0.65328 0.24239 0.0
C3717 C 0.11876 0.60878 0.26283 0.0
C3718 C 0.12691 0.62032 0.27147 0.0
C3719 C 0.1307 0.63455 0.26456 0.0
C3720 C 0.13228 0.61737 0.28745 0.0
C3721 C 0.11474 0.59318 0.26973 0.0
C3722 C 0.12144 0.61604 0.29958 0.0
C3723 C 0.12647 0.61169 0.31438 0.0
C3724 C 0.14241 0.60853 0.3172 0.0
C3725 C 0.1533 0.61049 0.30511 0.0
C3726 C 0.14827 0.61492 0.29037 0.0
H3727 H 0.1104 0.58477 0.26084 0.0
H3728 H 0.1252 0.58829 0.27561 0.0
H3729 H 0.10544 0.59457 0.27858 0.0
H3730 H 0.10906 0.618 0.2975 0.0
H3731 H 0.11779 0.61033 0.32345 0.0
H3732 H 0.13139 0.41794 0.06046 0.0
H3733 H 0.12308 0.40601 0.03603 0.0
H3734 H 0.1182 0.36177 0.05868 0.0
H3735 H 0.12641 0.37364 0.08336 0.0
H3736 H 0.14075 0.38148 0.02296 0.0
H3737 H 0.07773 0.36513 0.0312 0.0
H3738 H 0.08758 0.37975 0.04294 0.0
H3739 H 0.09132 0.35964 0.04624 0.0
C3740 C 0.12833 0.40571 0.06035 0.0
C3741 C 0.1297 0.39671 0.07384 0.0
C3742 C 0.12354 0.39894 0.04638 0.0
C3743 C 0.11997 0.38306 0.0456 0.0
C3744 C 0.12069 0.3741 0.05913 0.0
H3745 H 0.11731 0.32835 0.96023 0.0
H3746 H 0.11735 0.3353 0.98785 0.0
C3747 C 0.12546 0.3809 0.07318 0.0
C3748 C 0.11721 0.37575 0.0303 0.0
H3749 H 0.08936 0.35805 0.00734 0.0
C3750 C 0.12954 0.37628 0.01957 0.0
C3751 C 0.10258 0.36895 0.02601 0.0
C3752 C 0.08896 0.36836 0.03712 0.0
C3753 C 0.12757 0.37043 0.00452 0.0
C3754 C 0.11289 0.36391 0.00012 0.0
C3755 C 0.1006 0.36305 0.01088 0.0
C3756 C 0.1101 0.35886 0.984 0.0
C3757 C 0.14105 0.37151 -0.00676 0.0
C3758 C 0.10567 0.36977 0.97289 0.0
C3759 C 0.10574 0.36591 0.95716 0.0
C3760 C 0.11024 0.35107 0.95234 0.0
C3761 C 0.11382 0.33989 0.9636 0.0
C3762 C 0.11379 0.34379 0.97936 0.0
H3763 H 0.15198 0.37621 -0.00125 0.0
H3764 H 0.14349 0.35988 0.98836 0.0
H3765 H 0.13779 0.37914 0.98343 0.0
H3766 H 0.1029 0.38149 0.97635 0.0
H3767 H 0.10284 0.37475 0.94877 0.0
H3768 H 0.32343 0.37016 0.81396 0.0
H3769 H 0.32597 0.36049 0.78743 0.0
H3770 H 0.37626 0.35794 0.79362 0.0
H3771 H 0.3737 0.36704 0.82034 0.0
H3772 H 0.34084 0.37698 0.76638 0.0
H3773 H 0.36825 0.31938 0.76872 0.0
H3774 H 0.35954 0.32828 0.78554 0.0
H3775 H 0.37926 0.33347 0.77978 0.0
C3776 C 0.33497 0.36707 0.80981 0.0
C3777 C 0.34838 0.36943 0.81915 0.0
C3778 C 0.33641 0.36156 0.79465 0.0
C3779 C 0.35129 0.35843 0.78853 0.0
C3780 C 0.36461 0.35992 0.79817 0.0
H3781 H 0.392 0.36151 0.69813 0.0
H3782 H 0.38602 0.36134 0.72587 0.0
C3783 C 0.36315 0.36522 0.81343 0.0
C3784 C 0.35309 0.35593 0.77162 0.0
H3785 H 0.37062 0.33315 0.74445 0.0
C3786 C 0.3471 0.36723 0.76159 0.0
C3787 C 0.36135 0.34327 0.76537 0.0
C3788 C 0.36732 0.33034 0.77542 0.0
C3789 C 0.34958 0.36648 0.74556 0.0
C3790 C 0.35828 0.35414 0.73942 0.0
C3791 C 0.36401 0.34264 0.74931 0.0
C3792 C 0.36197 0.3534 0.72276 0.0
C3793 C 0.34334 0.37913 0.73529 0.0
C3794 C 0.35038 0.34895 0.71195 0.0
C3795 C 0.35373 0.34903 0.6961 0.0
C3796 C 0.36872 0.35363 0.69084 0.0
C3797 C 0.38032 0.35799 0.70178 0.0
C3798 C 0.37698 0.35781 0.71762 0.0
H3799 H 0.33807 0.38869 0.74207 0.0
H3800 H 0.35295 0.38399 0.72801 0.0
H3801 H 0.33421 0.37421 0.72736 0.0
H3802 H 0.33873 0.34554 0.71579 0.0
H3803 H 0.34454 0.34558 0.68799 0.0
H3804 H 0.3895 0.65965 0.46333 0.0
H3805 H 0.39429 0.65411 0.49078 0.0
H3806 H 0.39019 0.60513 0.48118 0.0
H3807 H 0.38593 0.61054 0.45381 0.0
H3808 H 0.3728 0.64113 0.50818 0.0
H3809 H 0.42533 0.60484 0.51198 0.0
H3810 H 0.42083 0.616 0.49488 0.0
H3811 H 0.41208 0.59705 0.49762 0.0
C3812 C 0.39004 0.6477 0.46703 0.0
C3813 C 0.38722 0.63553 0.45645 0.0
C3814 C 0.39282 0.64455 0.4827 0.0
C3815 C 0.39281 0.6292 0.48803 0.0
C3816 C 0.39073 0.61704 0.47732 0.0
H3817 H 0.3603 0.57574 0.56055 0.0
H3818 H 0.3735 0.58681 0.53797 0.0
C3819 C 0.3881 0.62017 0.46166 0.0
C3820 C 0.39231 0.62585 0.50488 0.0
H3821 H 0.40544 0.60041 0.5321 0.0
C3822 C 0.38026 0.63258 0.51357 0.0
C3823 C 0.40204 0.6147 0.51191 0.0
C3824 C 0.41589 0.60788 0.50361 0.0
C3825 C 0.37686 0.62756 0.52863 0.0
C3826 C 0.38584 0.61559 0.53521 0.0
C3827 C 0.39854 0.60954 0.52695 0.0
C3828 C 0.3808 0.60795 0.54968 0.0
C3829 C 0.36295 0.63431 0.53696 0.0
C3830 C 0.38108 0.61596 0.56386 0.0
C3831 C 0.3735 0.60968 0.5768 0.0
C3832 C 0.36552 0.59532 0.57568 0.0
C3833 C 0.36623 0.58688 0.56174 0.0
C3834 C 0.37383 0.59315 0.54885 0.0
H3835 H 0.35608 0.64219 0.52945 0.0
H3836 H 0.35499 0.62491 0.54113 0.0
H3837 H 0.36716 0.64098 0.54724 0.0
H3838 H 0.38652 0.62736 0.56471 0.0
H3839 H 0.37324 0.61641 0.58742 0.0
H3840 H 0.14676 0.09202 0.36951 0.0
H3841 H 0.17429 0.0853 0.36499 0.0
H3842 H 0.18629 0.1337 0.35976 0.0
H3843 H 0.15902 0.14054 0.36452 0.0
H3844 H 0.19622 0.09188 0.34059 0.0
H3845 H 0.21358 0.11956 0.39647 0.0
H3846 H 0.19335 0.11524 0.39143 0.0
H3847 H 0.20306 0.13214 0.38369 0.0
C3848 C 0.15524 0.10121 0.36721 0.0
C3849 C 0.15078 0.11682 0.36762 0.0
C3850 C 0.17093 0.09735 0.36462 0.0
C3851 C 0.18232 0.10904 0.36238 0.0
C3852 C 0.17771 0.12454 0.36181 0.0
H3853 H 0.28275 0.11689 0.35515 0.0
H3854 H 0.25432 0.12045 0.35369 0.0
C3855 C 0.16211 0.12841 0.36451 0.0
C3856 C 0.19917 0.10525 0.36157 0.0
H3857 H 0.2343 0.1122 0.37979 0.0
C3858 C 0.20457 0.09621 0.34919 0.0
C3859 C 0.20995 0.11084 0.37291 0.0
C3860 C 0.20471 0.11986 0.38696 0.0
C3861 C 0.22063 0.09304 0.34758 0.0
C3862 C 0.23141 0.09901 0.3587 0.0
C3863 C 0.22596 0.1078 0.37121 0.0
C3864 C 0.24847 0.09634 0.35773 0.0
C3865 C 0.22606 0.08368 0.33387 0.0
C3866 C 0.25452 0.08157 0.36037 0.0
C3867 C 0.27076 0.0795 0.3613 0.0
C3868 C 0.28117 0.09219 0.35963 0.0
C3869 C 0.27504 0.10688 0.3565 0.0
C3870 C 0.25882 0.10895 0.35564 0.0
H3871 H 0.21669 0.08226 0.32491 0.0
H3872 H 0.23654 0.08924 0.32849 0.0
H3873 H 0.22949 0.072 0.33787 0.0
H3874 H 0.24667 0.07176 0.36225 0.0
H3875 H 0.27514 0.06804 0.36372 0.0
H3876 H 0.79864 0.35735 0.60096 0.0
H3877 H 0.77013 0.35368 0.59903 0.0
H3878 H 0.76369 0.40201 0.60974 0.0
H3879 H 0.7922 0.40587 0.61129 0.0
H3880 H 0.74718 0.3582 0.62062 0.0
H3881 H 0.73843 0.39682 0.56997 0.0
H3882 H 0.75762 0.39057 0.57609 0.0
H3883 H 0.74808 0.40604 0.5862 0.0
C3884 C 0.79115 0.3672 0.60288 0.0
C3885 C 0.79763 0.38192 0.60614 0.0
C3886 C 0.77488 0.36508 0.60179 0.0
C3887 C 0.76484 0.37764 0.60397 0.0
C3888 C 0.77126 0.39226 0.60763 0.0
H3889 H 0.66231 0.38113 0.60377 0.0
H3890 H 0.69033 0.38715 0.60782 0.0
C3891 C 0.78754 0.39442 0.6086 0.0
C3892 C 0.74765 0.37533 0.60249 0.0
H3893 H 0.71545 0.38656 0.58179 0.0
C3894 C 0.74024 0.3644 0.61213 0.0
C3895 C 0.73866 0.38344 0.59139 0.0
C3896 C 0.7461 0.39477 0.58022 0.0
C3897 C 0.72405 0.36135 0.61094 0.0
C3898 C 0.71513 0.36941 0.59982 0.0
C3899 C 0.72242 0.3805 0.59035 0.0
C3900 C 0.69832 0.3659 0.59735 0.0
C3901 C 0.71653 0.34952 0.62152 0.0
C3902 C 0.69372 0.35208 0.58995 0.0
C3903 C 0.67782 0.34866 0.58752 0.0
C3904 C 0.66628 0.35901 0.59252 0.0
C3905 C 0.67096 0.37293 0.59984 0.0
C3906 C 0.6869 0.37639 0.60216 0.0
H3907 H 0.72448 0.34624 0.6312 0.0
H3908 H 0.70545 0.35403 0.62642 0.0
H3909 H 0.71353 0.33892 0.61472 0.0
H3910 H 0.70245 0.34394 0.58606 0.0
H3911 H 0.67458 0.33785 0.58184 0.0
H3912 H 0.35308 0.90798 0.3597 0.0
H3913 H 0.34797 0.93495 0.36684 0.0
H3914 H 0.39782 0.94368 0.37177 0.0
H3915 H 0.40303 0.91695 0.36428 0.0
H3916 H 0.35601 0.95525 0.39177 0.0
H3917 H 0.38464 0.97258 0.33658 0.0
H3918 H 0.37939 0.95275 0.34088 0.0
H3919 H 0.39694 0.96139 0.34911 0.0
C3920 C 0.36292 0.91557 0.36263 0.0
C3921 C 0.37846 0.91048 0.36118 0.0
C3922 C 0.35998 0.93096 0.36669 0.0
C3923 C 0.37255 0.94135 0.36944 0.0
C3924 C 0.388 0.9359 0.36932 0.0
H3925 H 0.3814 0.04078 0.3787 0.0
H3926 H 0.38549 0.01284 0.37946 0.0
C3927 C 0.39094 0.92063 0.3651 0.0
C3928 C 0.36966 0.95812 0.37098 0.0
H3929 H 0.37739 -0.0072 0.35354 0.0
C3930 C 0.36065 0.96348 0.38343 0.0
C3931 C 0.37561 0.96877 0.35994 0.0
C3932 C 0.38455 0.96361 0.34579 0.0
C3933 C 0.35773 0.97935 0.38531 0.0
C3934 C 0.3639 0.98996 0.3744 0.0
C3935 C 0.37282 0.98458 0.36194 0.0
C3936 C 0.36104 0.00675 0.3754 0.0
C3937 C 0.34827 0.98469 0.39903 0.0
C3938 C 0.34594 0.0125 0.37282 0.0
C3939 C 0.34356 0.02846 0.37225 0.0
C3940 C 0.35628 0.03892 0.37425 0.0
C3941 C 0.37135 0.03306 0.37711 0.0
C3942 C 0.37372 0.01711 0.37759 0.0
H3943 H 0.3471 0.97555 0.408 0.0
H3944 H 0.35378 -0.00483 0.40439 0.0
H3945 H 0.3363 0.98779 0.39503 0.0
H3946 H 0.33607 0.00465 0.37083 0.0
H3947 H 0.33179 0.03258 0.37005 0.0
H3948 H 0.8161 0.60682 0.10128 0.0
H3949 H 0.78749 0.60359 0.10281 0.0
H3950 H 0.78154 0.64477 0.07535 0.0
H3951 H 0.81006 0.64797 0.07354 0.0
H3952 H 0.76635 0.62441 0.11536 0.0
H3953 H 0.75324 0.61284 0.05316 0.0
H3954 H 0.77283 0.61171 0.06122 0.0
H3955 H 0.76461 0.63021 0.05666 0.0
C3956 C 0.80869 0.61511 0.09546 0.0
C3957 C 0.8153 0.62762 0.08726 0.0
C3958 C 0.79238 0.61326 0.09636 0.0
C3959 C 0.78246 0.62384 0.08902 0.0
C3960 C 0.78902 0.63632 0.08082 0.0
H3961 H 0.68346 0.63624 0.11014 0.0
H3962 H 0.71166 0.64031 0.10594 0.0
C3963 C 0.80531 0.63817 0.07988 0.0
C3964 C 0.76523 0.62216 0.09048 0.0
H3965 H 0.73135 0.61716 0.06956 0.0
C3966 C 0.75868 0.62279 0.10537 0.0
C3967 C 0.75533 0.61994 0.0774 0.0
C3968 C 0.76184 0.61849 0.06121 0.0
C3969 C 0.74241 0.62134 0.10754 0.0
C3970 C 0.73247 0.61951 0.09443 0.0
C3971 C 0.73903 0.61876 0.07955 0.0
C3972 C 0.71528 0.6176 0.096 0.0
C3973 C 0.73603 0.62144 0.12385 0.0
C3974 C 0.70795 0.60371 0.09126 0.0
C3975 C 0.69187 0.60139 0.09353 0.0
C3976 C 0.68282 0.61294 0.10056 0.0
C3977 C 0.69012 0.62707 0.1048 0.0
C3978 C 0.70623 0.62939 0.10249 0.0
H3979 H 0.74538 0.61931 0.13262 0.0
H3980 H 0.73092 0.63292 0.12633 0.0
H3981 H 0.7266 0.61251 0.12521 0.0
H3982 H 0.71476 0.59451 0.08616 0.0
H3983 H 0.68663 0.59039 0.09006 0.0
H3984 H 0.62447 0.57811 0.36399 0.0
H3985 H 0.62989 0.55248 0.37469 0.0
H3986 H 0.58012 0.54226 0.37623 0.0
H3987 H 0.57464 0.5676 0.36504 0.0
H3988 H 0.62128 0.53462 0.40052 0.0
H3989 H 0.59643 0.51036 0.34566 0.0
H3990 H 0.60044 0.53075 0.34828 0.0
H3991 H 0.58295 0.52205 0.35633 0.0
C3992 C 0.61468 0.57051 0.3669 0.0
C3993 C 0.59915 0.57469 0.36341 0.0
C3994 C 0.61779 0.5559 0.37303 0.0
C3995 C 0.60541 0.54537 0.37588 0.0
C3996 C 0.58984 0.5501 0.37375 0.0
H3997 H 0.60417 0.44594 0.38812 0.0
H3998 H 0.59736 0.47325 0.3903 0.0
C3999 C 0.58674 0.56458 0.3674 0.0
C4000 C 0.60882 0.52899 0.37935 0.0
H4001 H 0.60436 0.49249 0.36455 0.0
C4002 C 0.61754 0.52538 0.39272 0.0
C4003 C 0.60408 0.51699 0.36903 0.0
C4004 C 0.5956 0.5202 0.35395 0.0
C4005 C 0.6215 0.51 0.39609 0.0
C4006 C 0.61667 0.49807 0.38578 0.0
C4007 C 0.60787 0.50169 0.37252 0.0
C4008 C 0.62126 0.48177 0.38781 0.0
C4009 C 0.63078 0.50659 0.4106 0.0
C4010 C 0.63701 0.47755 0.38605 0.0
C4011 C 0.64094 0.46194 0.38471 0.0
C4012 C 0.62915 0.45035 0.38504 0.0
C4013 C 0.61351 0.4546 0.38775 0.0
C4014 C 0.6096 0.47018 0.38905 0.0
H4015 H 0.63036 0.51631 0.41907 0.0
H4016 H 0.62627 0.49588 0.41625 0.0
H4017 H 0.64325 0.50474 0.40749 0.0
H4018 H 0.64614 0.48633 0.38478 0.0
H4019 H 0.6531 0.45903 0.38265 0.0
H4020 H 0.19141 0.8573 0.86314 0.0
H4021 H 0.22008 0.85608 0.86346 0.0
H4022 H 0.22308 0.90463 0.87522 0.0
H4023 H 0.19439 0.90593 0.87523 0.0
H4024 H 0.24115 0.87267 0.84517 0.0
H4025 H 0.2513 0.885 0.90786 0.0
H4026 H 0.23216 0.87981 0.90013 0.0
H4027 H 0.2399 0.89913 0.89773 0.0
C4028 C 0.19814 0.8677 0.86593 0.0
C4029 C 0.19059 0.8817 0.86923 0.0
C4030 C 0.21452 0.86698 0.86606 0.0
C4031 C 0.22367 0.88022 0.86952 0.0
C4032 C 0.21622 0.89421 0.87282 0.0
H4033 H 0.32662 0.88756 0.87637 0.0
H4034 H 0.29901 0.89485 0.87305 0.0
C4035 C 0.19982 0.89493 0.87277 0.0
C4036 C 0.24102 0.87935 0.86928 0.0
H4037 H 0.27379 0.8823 0.89223 0.0
C4038 C 0.2483 0.87484 0.85544 0.0
C4039 C 0.2503 0.88232 0.88267 0.0
C4040 C 0.24306 0.88671 0.89799 0.0
C4041 C 0.26462 0.87291 0.8547 0.0
C4042 C 0.27382 0.87544 0.8682 0.0
C4043 C 0.26664 0.88047 0.8819 0.0
C4044 C 0.29062 0.87143 0.86879 0.0
C4045 C 0.27188 0.86801 0.83956 0.0
C4046 C 0.29494 0.8559 0.86744 0.0
C4047 C 0.31057 0.8517 0.86942 0.0
C4048 C 0.32221 0.86298 0.87279 0.0
C4049 C 0.31793 0.87862 0.87371 0.0
C4050 C 0.3022 0.8828 0.87185 0.0
H4051 H 0.26414 0.87065 0.82952 0.0
H4052 H 0.28348 0.87383 0.83786 0.0
H4053 H 0.27374 0.85532 0.83974 0.0
H4054 H 0.28612 0.84694 0.86531 0.0
H4055 H 0.31348 0.83955 0.8686 0.0
H4056 H 0.39148 0.93919 0.09438 0.0
H4057 H 0.39795 0.96687 0.09367 0.0
H4058 H 0.34881 0.9776 0.09802 0.0
H4059 H 0.34218 0.94993 0.09852 0.0
H4060 H 0.36679 -0.0022 0.07726 0.0
H4061 H 0.39401 0.99042 0.13557 0.0
H4062 H 0.40143 0.97797 0.12065 0.0
H4063 H 0.38136 0.97585 0.1268 0.0
C4064 C 0.38202 0.94743 0.09491 0.0
C4065 C 0.36635 0.94241 0.09675 0.0
C4066 C 0.38574 0.96322 0.0945 0.0
C4067 C 0.37387 0.9742 0.09604 0.0
C4068 C 0.35812 0.96925 0.09685 0.0
H4069 H 0.3699 0.07178 0.11748 0.0
H4070 H 0.36405 0.04576 0.10746 0.0
C4071 C 0.35437 0.95345 0.0972 0.0
C4072 C 0.37799 -0.0093 0.09849 0.0
H4073 H 0.3958 0.0152 0.12447 0.0
C4074 C 0.37318 0.00166 0.08753 0.0
C4075 C 0.38618 -0.00438 0.11199 0.0
C4076 C 0.39095 0.9844 0.12452 0.0
C4077 C 0.37662 0.01751 0.08964 0.0
C4078 C 0.38484 0.02239 0.10314 0.0
C4079 C 0.38962 0.01138 0.11406 0.0
C4080 C 0.38839 0.03885 0.10662 0.0
C4081 C 0.37161 0.02884 0.07737 0.0
C4082 C 0.404 0.0436 0.10937 0.0
C4083 C 0.40736 0.05833 0.11529 0.0
C4084 C 0.39515 0.06861 0.11858 0.0
C4085 C 0.37956 0.06414 0.11504 0.0
C4086 C 0.3762 0.04931 0.1092 0.0
H4087 H 0.36928 0.023 0.06606 0.0
H4088 H 0.3606 0.03447 0.08109 0.0
H4089 H 0.38072 0.03803 0.0757 0.0
H4090 H 0.41356 0.03566 0.10749 0.0
H4091 H 0.41951 0.06146 0.11774 0.0
H4092 H 0.11278 0.90473 0.62102 0.0
H4093 H 0.12422 0.92899 0.6113 0.0
H4094 H 0.07911 0.95077 0.61507 0.0
H4095 H 0.06753 0.92665 0.62465 0.0
H4096 H 0.09664 0.95757 0.58684 0.0
H4097 H 0.13143 0.96645 0.64129 0.0
H4098 H 0.13367 0.94838 0.63113 0.0
H4099 H 0.11525 0.95272 0.64007 0.0
C4100 C 0.10525 0.91464 0.61964 0.0
C4101 C 0.08927 0.9138 0.62377 0.0
C4102 C 0.11183 0.92848 0.61412 0.0
C4103 C 0.10252 0.94165 0.61266 0.0
C4104 C 0.08646 0.94069 0.61615 0.0
H4105 H 0.1009 0.03781 0.60143 0.0
H4106 H 0.09666 0.00984 0.60076 0.0
C4107 C 0.07989 0.9269 0.62168 0.0
C4108 C 0.10952 0.95678 0.60839 0.0
H4109 H 0.13171 0.98661 0.62322 0.0
C4110 C 0.1045 0.96386 0.59465 0.0
C4111 C 0.11985 0.96486 0.6186 0.0
C4112 C 0.12535 0.95783 0.63366 0.0
C4113 C 0.10909 0.97911 0.59111 0.0
C4114 C 0.11865 0.98751 0.60177 0.0
C4115 C 0.12437 0.98012 0.61508 0.0
C4116 C 0.12142 0.00438 0.60031 0.0
C4117 C 0.1034 0.98617 0.57616 0.0
C4118 C 0.13676 0.0106 0.60047 0.0
C4119 C 0.13923 0.02663 0.601 0.0
C4120 C 0.12638 0.03666 0.60153 0.0
C4121 C 0.11104 0.03039 0.601 0.0
C4122 C 0.1086 0.0144 0.60046 0.0
H4123 H 0.1011 0.97714 0.56718 0.0
H4124 H 0.09219 -0.00779 0.5783 0.0
H4125 H 0.11207 -0.00529 0.57156 0.0
H4126 H 0.14681 0.00303 0.60052 0.0
H4127 H 0.15119 0.03114 0.60142 0.0
loop_
_geom_bond_atom_site_label_1
_geom_bond_atom_site_label_2
_geom_bond_distance
_geom_bond_site_symmetry_2
_ccdc_geom_bond_type
C0 O1 1.306 . S
C0 O3 1.160 . S
O1 C0 1.306 . S
O1 Cd2 2.228 . S
Cd2 O1 2.228 . S
Cd2 O6 2.273 . S
Cd2 O10 2.277 . S
O3 C0 1.160 . S
O3 Cd4 2.203 . S
Cd4 O3 2.203 . S
Cd4 O6 2.411 . S
Cd4 O7 2.333 . S
Cd4 O8 2.352 . S
Cd4 O12 2.277 . S
Cd4 O13 2.356 . S
C5 O10 1.209 . S
C5 O12 1.226 . S
O6 Cd2 2.273 . S
O6 Cd4 2.411 . S
O6 C9 1.320 . S
O7 Cd4 2.333 . S
O7 C9 1.214 . S
O8 Cd4 2.352 . S
O8 C11 1.258 . S
C9 O6 1.320 . S
C9 O7 1.214 . S
O10 Cd2 2.277 . S
O10 C5 1.209 . S
C11 O8 1.258 . S
C11 O13 1.282 . S
O12 Cd4 2.277 . S
O12 C5 1.226 . S
O13 Cd4 2.356 . S
O13 C11 1.282 . S
C14 O15 1.306 . S
C14 O17 1.160 . S
O15 C14 1.306 . S
O15 Cd16 2.228 . S
Cd16 O15 2.228 . S
Cd16 O20 2.273 . S
Cd16 O24 2.277 . S
O17 C14 1.160 . S
O17 Cd18 2.203 . S
Cd18 O17 2.203 . S
Cd18 O20 2.411 . S
Cd18 O21 2.333 . S
Cd18 O22 2.352 . S
Cd18 O26 2.277 . S
Cd18 O27 2.356 . S
C19 O24 1.209 . S
C19 O26 1.226 . S
O20 Cd16 2.273 . S
O20 Cd18 2.411 . S
O20 C23 1.320 . S
O21 Cd18 2.333 . S
O21 C23 1.214 . S
O22 Cd18 2.352 . S
O22 C25 1.258 . S
C23 O20 1.320 . S
C23 O21 1.214 . S
O24 Cd16 2.277 . S
O24 C19 1.209 . S
C25 O22 1.258 . S
C25 O27 1.282 . S
O26 Cd18 2.277 . S
O26 C19 1.226 . S
O27 Cd18 2.356 . S
O27 C25 1.282 . S
C28 O29 1.306 . S
C28 O31 1.160 . S
O29 C28 1.306 . S
O29 Cd30 2.228 . S
Cd30 O29 2.228 . S
Cd30 O34 2.273 . S
Cd30 O38 2.277 . S
O31 C28 1.160 . S
O31 Cd32 2.203 . S
Cd32 O31 2.203 . S
Cd32 O34 2.411 . S
Cd32 O35 2.333 . S
Cd32 O36 2.352 . S
Cd32 O40 2.277 . S
Cd32 O41 2.356 . S
C33 O38 1.209 . S
C33 O40 1.226 . S
O34 Cd30 2.273 . S
O34 Cd32 2.411 . S
O34 C37 1.320 . S
O35 Cd32 2.333 . S
O35 C37 1.214 . S
O36 Cd32 2.352 . S
O36 C39 1.258 . S
C37 O34 1.320 . S
C37 O35 1.214 . S
O38 Cd30 2.277 . S
O38 C33 1.209 . S
C39 O36 1.258 . S
C39 O41 1.282 . S
O40 Cd32 2.277 . S
O40 C33 1.226 . S
O41 Cd32 2.356 . S
O41 C39 1.282 . S
C42 O43 1.306 . S
C42 O45 1.160 . S
O43 C42 1.306 . S
O43 Cd44 2.228 . S
Cd44 O43 2.228 . S
Cd44 O48 2.273 . S
Cd44 O52 2.277 . S
O45 C42 1.160 . S
O45 Cd46 2.203 . S
Cd46 O45 2.203 . S
Cd46 O48 2.411 . S
Cd46 O49 2.333 . S
Cd46 O50 2.352 . S
Cd46 O54 2.277 . S
Cd46 O55 2.356 . S
C47 O52 1.209 . S
C47 O54 1.226 . S
O48 Cd44 2.273 . S
O48 Cd46 2.411 . S
O48 C51 1.320 . S
O49 Cd46 2.333 . S
O49 C51 1.214 . S
O50 Cd46 2.352 . S
O50 C53 1.258 . S
C51 O48 1.320 . S
C51 O49 1.214 . S
O52 Cd44 2.277 . S
O52 C47 1.209 . S
C53 O50 1.258 . S
C53 O55 1.282 . S
O54 Cd46 2.277 . S
O54 C47 1.226 . S
O55 Cd46 2.356 . S
O55 C53 1.282 . S
C56 O57 1.306 . S
C56 O59 1.160 . S
O57 C56 1.306 . S
O57 Cd58 2.228 . S
Cd58 O57 2.228 . S
Cd58 O62 2.273 . S
Cd58 O66 2.277 . S
O59 C56 1.160 . S
O59 Cd60 2.203 . S
Cd60 O59 2.203 . S
Cd60 O62 2.411 . S
Cd60 O63 2.333 . S
Cd60 O64 2.352 . S
Cd60 O68 2.277 . S
Cd60 O69 2.356 . S
C61 O66 1.209 . S
C61 O68 1.226 . S
O62 Cd58 2.273 . S
O62 Cd60 2.411 . S
O62 C65 1.320 . S
O63 Cd60 2.333 . S
O63 C65 1.214 . S
O64 Cd60 2.352 . S
O64 C67 1.258 . S
C65 O62 1.320 . S
C65 O63 1.214 . S
O66 Cd58 2.277 . S
O66 C61 1.209 . S
C67 O64 1.258 . S
C67 O69 1.282 . S
O68 Cd60 2.277 . S
O68 C61 1.226 . S
O69 Cd60 2.356 . S
O69 C67 1.282 . S
C70 O71 1.306 . S
C70 O73 1.160 . S
O71 C70 1.306 . S
O71 Cd72 2.228 . S
Cd72 O71 2.228 . S
Cd72 O76 2.273 . S
Cd72 O80 2.277 . S
O73 C70 1.160 . S
O73 Cd74 2.203 . S
Cd74 O73 2.203 . S
Cd74 O76 2.411 . S
Cd74 O77 2.333 . S
Cd74 O78 2.352 . S
Cd74 O82 2.277 . S
Cd74 O83 2.356 . S
C75 O80 1.209 . S
C75 O82 1.226 . S
O76 Cd72 2.273 . S
O76 Cd74 2.411 . S
O76 C79 1.320 . S
O77 Cd74 2.333 . S
O77 C79 1.214 . S
O78 Cd74 2.352 . S
O78 C81 1.258 . S
C79 O76 1.320 . S
C79 O77 1.214 . S
O80 Cd72 2.277 . S
O80 C75 1.209 . S
C81 O78 1.258 . S
C81 O83 1.282 . S
O82 Cd74 2.277 . S
O82 C75 1.226 . S
O83 Cd74 2.356 . S
O83 C81 1.282 . S
C84 O85 1.306 . S
C84 O87 1.160 . S
O85 C84 1.306 . S
O85 Cd86 2.228 . S
Cd86 O85 2.228 . S
Cd86 O90 2.273 . S
Cd86 O94 2.277 . S
O87 C84 1.160 . S
O87 Cd88 2.203 . S
Cd88 O87 2.203 . S
Cd88 O90 2.411 . S
Cd88 O91 2.333 . S
Cd88 O92 2.352 . S
Cd88 O96 2.277 . S
Cd88 O97 2.356 . S
C89 O94 1.209 . S
C89 O96 1.226 . S
O90 Cd86 2.273 . S
O90 Cd88 2.411 . S
O90 C93 1.320 . S
O91 Cd88 2.333 . S
O91 C93 1.214 . S
O92 Cd88 2.352 . S
O92 C95 1.258 . S
C93 O90 1.320 . S
C93 O91 1.214 . S
O94 Cd86 2.277 . S
O94 C89 1.209 . S
C95 O92 1.258 . S
C95 O97 1.282 . S
O96 Cd88 2.277 . S
O96 C89 1.226 . S
O97 Cd88 2.356 . S
O97 C95 1.282 . S
C98 O99 1.306 . S
C98 O101 1.160 . S
O99 C98 1.306 . S
O99 Cd100 2.228 . S
Cd100 O99 2.228 . S
Cd100 O104 2.273 . S
Cd100 O108 2.277 . S
O101 C98 1.160 . S
O101 Cd102 2.203 . S
Cd102 O101 2.203 . S
Cd102 O104 2.411 . S
Cd102 O105 2.333 . S
Cd102 O106 2.352 . S
Cd102 O110 2.277 . S
Cd102 O111 2.356 . S
C103 O108 1.209 . S
C103 O110 1.226 . S
O104 Cd100 2.273 . S
O104 Cd102 2.411 . S
O104 C107 1.320 . S
O105 Cd102 2.333 . S
O105 C107 1.214 . S
O106 Cd102 2.352 . S
O106 C109 1.258 . S
C107 O104 1.320 . S
C107 O105 1.214 . S
O108 Cd100 2.277 . S
O108 C103 1.209 . S
C109 O106 1.258 . S
C109 O111 1.282 . S
O110 Cd102 2.277 . S
O110 C103 1.226 . S
O111 Cd102 2.356 . S
O111 C109 1.282 . S
C112 O113 1.306 . S
C112 O115 1.160 . S
O113 C112 1.306 . S
O113 Cd114 2.228 . S
Cd114 O113 2.228 . S
Cd114 O118 2.273 . S
Cd114 O122 2.277 . S
O115 C112 1.160 . S
O115 Cd116 2.203 . S
Cd116 O115 2.203 . S
Cd116 O118 2.411 . S
Cd116 O119 2.333 . S
Cd116 O120 2.352 . S
Cd116 O124 2.277 . S
Cd116 O125 2.356 . S
C117 O122 1.209 . S
C117 O124 1.226 . S
O118 Cd114 2.273 . S
O118 Cd116 2.411 . S
O118 C121 1.320 . S
O119 Cd116 2.333 . S
O119 C121 1.214 . S
O120 Cd116 2.352 . S
O120 C123 1.258 . S
C121 O118 1.320 . S
C121 O119 1.214 . S
O122 Cd114 2.277 . S
O122 C117 1.209 . S
C123 O120 1.258 . S
C123 O125 1.282 . S
O124 Cd116 2.277 . S
O124 C117 1.226 . S
O125 Cd116 2.356 . S
O125 C123 1.282 . S
C126 O127 1.306 . S
C126 O129 1.160 . S
O127 C126 1.306 . S
O127 Cd128 2.228 . S
Cd128 O127 2.228 . S
Cd128 O132 2.273 . S
Cd128 O136 2.277 . S
O129 C126 1.160 . S
O129 Cd130 2.203 . S
Cd130 O129 2.203 . S
Cd130 O132 2.411 . S
Cd130 O133 2.333 . S
Cd130 O134 2.352 . S
Cd130 O138 2.277 . S
Cd130 O139 2.356 . S
C131 O136 1.209 . S
C131 O138 1.226 . S
O132 Cd128 2.273 . S
O132 Cd130 2.411 . S
O132 C135 1.320 . S
O133 Cd130 2.333 . S
O133 C135 1.214 . S
O134 Cd130 2.352 . S
O134 C137 1.258 . S
C135 O132 1.320 . S
C135 O133 1.214 . S
O136 Cd128 2.277 . S
O136 C131 1.209 . S
C137 O134 1.258 . S
C137 O139 1.282 . S
O138 Cd130 2.277 . S
O138 C131 1.226 . S
O139 Cd130 2.356 . S
O139 C137 1.282 . S
C140 O141 1.306 . S
C140 O143 1.160 . S
O141 C140 1.306 . S
O141 Cd142 2.228 . S
Cd142 O141 2.228 . S
Cd142 O146 2.273 . S
Cd142 O150 2.277 . S
O143 C140 1.160 . S
O143 Cd144 2.203 . S
Cd144 O143 2.203 . S
Cd144 O146 2.411 . S
Cd144 O147 2.333 . S
Cd144 O148 2.352 . S
Cd144 O152 2.277 . S
Cd144 O153 2.356 . S
C145 O150 1.209 . S
C145 O152 1.226 . S
O146 Cd142 2.273 . S
O146 Cd144 2.411 . S
O146 C149 1.320 . S
O147 Cd144 2.333 . S
O147 C149 1.214 . S
O148 Cd144 2.352 . S
O148 C151 1.258 . S
C149 O146 1.320 . S
C149 O147 1.214 . S
O150 Cd142 2.277 . S
O150 C145 1.209 . S
C151 O148 1.258 . S
C151 O153 1.282 . S
O152 Cd144 2.277 . S
O152 C145 1.226 . S
O153 Cd144 2.356 . S
O153 C151 1.282 . S
C154 O155 1.306 . S
C154 O157 1.160 . S
O155 C154 1.306 . S
O155 Cd156 2.228 . S
Cd156 O155 2.228 . S
Cd156 O160 2.273 . S
Cd156 O164 2.277 . S
O157 C154 1.160 . S
O157 Cd158 2.203 . S
Cd158 O157 2.203 . S
Cd158 O160 2.411 . S
Cd158 O161 2.333 . S
Cd158 O162 2.352 . S
Cd158 O166 2.277 . S
Cd158 O167 2.356 . S
C159 O164 1.209 . S
C159 O166 1.226 . S
O160 Cd156 2.273 . S
O160 Cd158 2.411 . S
O160 C163 1.320 . S
O161 Cd158 2.333 . S
O161 C163 1.214 . S
O162 Cd158 2.352 . S
O162 C165 1.258 . S
C163 O160 1.320 . S
C163 O161 1.214 . S
O164 Cd156 2.277 . S
O164 C159 1.209 . S
C165 O162 1.258 . S
C165 O167 1.282 . S
O166 Cd158 2.277 . S
O166 C159 1.226 . S
O167 Cd158 2.356 . S
O167 C165 1.282 . S
C168 O169 1.306 . S
C168 O171 1.160 . S
O169 C168 1.306 . S
O169 Cd170 2.228 . S
Cd170 O169 2.228 . S
Cd170 O174 2.273 . S
Cd170 O178 2.277 . S
O171 C168 1.160 . S
O171 Cd172 2.203 . S
Cd172 O171 2.203 . S
Cd172 O174 2.411 . S
Cd172 O175 2.333 . S
Cd172 O176 2.352 . S
Cd172 O180 2.277 . S
Cd172 O181 2.356 . S
C173 O178 1.209 . S
C173 O180 1.226 . S
O174 Cd170 2.273 . S
O174 Cd172 2.411 . S
O174 C177 1.320 . S
O175 Cd172 2.333 . S
O175 C177 1.214 . S
O176 Cd172 2.352 . S
O176 C179 1.258 . S
C177 O174 1.320 . S
C177 O175 1.214 . S
O178 Cd170 2.277 . S
O178 C173 1.209 . S
C179 O176 1.258 . S
C179 O181 1.282 . S
O180 Cd172 2.277 . S
O180 C173 1.226 . S
O181 Cd172 2.356 . S
O181 C179 1.282 . S
C182 O183 1.306 . S
C182 O185 1.160 . S
O183 C182 1.306 . S
O183 Cd184 2.228 . S
Cd184 O183 2.228 . S
Cd184 O188 2.273 . S
Cd184 O192 2.277 . S
O185 C182 1.160 . S
O185 Cd186 2.203 . S
Cd186 O185 2.203 . S
Cd186 O188 2.411 . S
Cd186 O189 2.333 . S
Cd186 O190 2.352 . S
Cd186 O194 2.277 . S
Cd186 O195 2.356 . S
C187 O192 1.209 . S
C187 O194 1.226 . S
O188 Cd184 2.273 . S
O188 Cd186 2.411 . S
O188 C191 1.320 . S
O189 Cd186 2.333 . S
O189 C191 1.214 . S
O190 Cd186 2.352 . S
O190 C193 1.258 . S
C191 O188 1.320 . S
C191 O189 1.214 . S
O192 Cd184 2.277 . S
O192 C187 1.209 . S
C193 O190 1.258 . S
C193 O195 1.282 . S
O194 Cd186 2.277 . S
O194 C187 1.226 . S
O195 Cd186 2.356 . S
O195 C193 1.282 . S
C196 O197 1.306 . S
C196 O199 1.160 . S
O197 C196 1.306 . S
O197 Cd198 2.228 . S
Cd198 O197 2.228 . S
Cd198 O202 2.273 . S
Cd198 O206 2.277 . S
O199 C196 1.160 . S
O199 Cd200 2.203 . S
Cd200 O199 2.203 . S
Cd200 O202 2.411 . S
Cd200 O203 2.333 . S
Cd200 O204 2.352 . S
Cd200 O208 2.277 . S
Cd200 O209 2.356 . S
C201 O206 1.209 . S
C201 O208 1.226 . S
O202 Cd198 2.273 . S
O202 Cd200 2.411 . S
O202 C205 1.320 . S
O203 Cd200 2.333 . S
O203 C205 1.214 . S
O204 Cd200 2.352 . S
O204 C207 1.258 . S
C205 O202 1.320 . S
C205 O203 1.214 . S
O206 Cd198 2.277 . S
O206 C201 1.209 . S
C207 O204 1.258 . S
C207 O209 1.282 . S
O208 Cd200 2.277 . S
O208 C201 1.226 . S
O209 Cd200 2.356 . S
O209 C207 1.282 . S
C210 O211 1.306 . S
C210 O213 1.160 . S
O211 C210 1.306 . S
O211 Cd212 2.228 . S
Cd212 O211 2.228 . S
Cd212 O216 2.273 . S
Cd212 O220 2.277 . S
O213 C210 1.160 . S
O213 Cd214 2.203 . S
Cd214 O213 2.203 . S
Cd214 O216 2.411 . S
Cd214 O217 2.333 . S
Cd214 O218 2.352 . S
Cd214 O222 2.277 . S
Cd214 O223 2.356 . S
C215 O220 1.209 . S
C215 O222 1.226 . S
O216 Cd212 2.273 . S
O216 Cd214 2.411 . S
O216 C219 1.320 . S
O217 Cd214 2.333 . S
O217 C219 1.214 . S
O218 Cd214 2.352 . S
O218 C221 1.258 . S
C219 O216 1.320 . S
C219 O217 1.214 . S
O220 Cd212 2.277 . S
O220 C215 1.209 . S
C221 O218 1.258 . S
C221 O223 1.282 . S
O222 Cd214 2.277 . S
O222 C215 1.226 . S
O223 Cd214 2.356 . S
O223 C221 1.282 . S
C224 O225 1.306 . S
C224 O227 1.160 . S
O225 C224 1.306 . S
O225 Cd226 2.228 . S
Cd226 O225 2.228 . S
Cd226 O230 2.273 . S
Cd226 O234 2.277 . S
O227 C224 1.160 . S
O227 Cd228 2.203 . S
Cd228 O227 2.203 . S
Cd228 O230 2.411 . S
Cd228 O231 2.333 . S
Cd228 O232 2.352 . S
Cd228 O236 2.277 . S
Cd228 O237 2.356 . S
C229 O234 1.209 . S
C229 O236 1.226 . S
O230 Cd226 2.273 . S
O230 Cd228 2.411 . S
O230 C233 1.320 . S
O231 Cd228 2.333 . S
O231 C233 1.214 . S
O232 Cd228 2.352 . S
O232 C235 1.258 . S
C233 O230 1.320 . S
C233 O231 1.214 . S
O234 Cd226 2.277 . S
O234 C229 1.209 . S
C235 O232 1.258 . S
C235 O237 1.282 . S
O236 Cd228 2.277 . S
O236 C229 1.226 . S
O237 Cd228 2.356 . S
O237 C235 1.282 . S
C238 O239 1.306 . S
C238 O241 1.160 . S
O239 C238 1.306 . S
O239 Cd240 2.228 . S
Cd240 O239 2.228 . S
Cd240 O244 2.273 . S
Cd240 O248 2.277 . S
O241 C238 1.160 . S
O241 Cd242 2.203 . S
Cd242 O241 2.203 . S
Cd242 O244 2.411 . S
Cd242 O245 2.333 . S
Cd242 O246 2.352 . S
Cd242 O250 2.277 . S
Cd242 O251 2.356 . S
C243 O248 1.209 . S
C243 O250 1.226 . S
O244 Cd240 2.273 . S
O244 Cd242 2.411 . S
O244 C247 1.320 . S
O245 Cd242 2.333 . S
O245 C247 1.214 . S
O246 Cd242 2.352 . S
O246 C249 1.258 . S
C247 O244 1.320 . S
C247 O245 1.214 . S
O248 Cd240 2.277 . S
O248 C243 1.209 . S
C249 O246 1.258 . S
C249 O251 1.282 . S
O250 Cd242 2.277 . S
O250 C243 1.226 . S
O251 Cd242 2.356 . S
O251 C249 1.282 . S
C252 O253 1.306 . S
C252 O255 1.160 . S
O253 C252 1.306 . S
O253 Cd254 2.228 . S
Cd254 O253 2.228 . S
Cd254 O258 2.273 . S
Cd254 O262 2.277 . S
O255 C252 1.160 . S
O255 Cd256 2.203 . S
Cd256 O255 2.203 . S
Cd256 O258 2.411 . S
Cd256 O259 2.333 . S
Cd256 O260 2.352 . S
Cd256 O264 2.277 . S
Cd256 O265 2.356 . S
C257 O262 1.209 . S
C257 O264 1.226 . S
O258 Cd254 2.273 . S
O258 Cd256 2.411 . S
O258 C261 1.320 . S
O259 Cd256 2.333 . S
O259 C261 1.214 . S
O260 Cd256 2.352 . S
O260 C263 1.258 . S
C261 O258 1.320 . S
C261 O259 1.214 . S
O262 Cd254 2.277 . S
O262 C257 1.209 . S
C263 O260 1.258 . S
C263 O265 1.282 . S
O264 Cd256 2.277 . S
O264 C257 1.226 . S
O265 Cd256 2.356 . S
O265 C263 1.282 . S
C266 O267 1.306 . S
C266 O269 1.160 . S
O267 C266 1.306 . S
O267 Cd268 2.228 . S
Cd268 O267 2.228 . S
Cd268 O272 2.273 . S
Cd268 O276 2.277 . S
O269 C266 1.160 . S
O269 Cd270 2.203 . S
Cd270 O269 2.203 . S
Cd270 O272 2.411 . S
Cd270 O273 2.333 . S
Cd270 O274 2.352 . S
Cd270 O278 2.277 . S
Cd270 O279 2.356 . S
C271 O276 1.209 . S
C271 O278 1.226 . S
O272 Cd268 2.273 . S
O272 Cd270 2.411 . S
O272 C275 1.320 . S
O273 Cd270 2.333 . S
O273 C275 1.214 . S
O274 Cd270 2.352 . S
O274 C277 1.258 . S
C275 O272 1.320 . S
C275 O273 1.214 . S
O276 Cd268 2.277 . S
O276 C271 1.209 . S
C277 O274 1.258 . S
C277 O279 1.282 . S
O278 Cd270 2.277 . S
O278 C271 1.226 . S
O279 Cd270 2.356 . S
O279 C277 1.282 . S
C280 O281 1.306 . S
C280 O283 1.160 . S
O281 C280 1.306 . S
O281 Cd282 2.228 . S
Cd282 O281 2.228 . S
Cd282 O286 2.273 . S
Cd282 O290 2.277 . S
O283 C280 1.160 . S
O283 Cd284 2.203 . S
Cd284 O283 2.203 . S
Cd284 O286 2.411 . S
Cd284 O287 2.333 . S
Cd284 O288 2.352 . S
Cd284 O292 2.277 . S
Cd284 O293 2.356 . S
C285 O290 1.209 . S
C285 O292 1.226 . S
O286 Cd282 2.273 . S
O286 Cd284 2.411 . S
O286 C289 1.320 . S
O287 Cd284 2.333 . S
O287 C289 1.214 . S
O288 Cd284 2.352 . S
O288 C291 1.258 . S
C289 O286 1.320 . S
C289 O287 1.214 . S
O290 Cd282 2.277 . S
O290 C285 1.209 . S
C291 O288 1.258 . S
C291 O293 1.282 . S
O292 Cd284 2.277 . S
O292 C285 1.226 . S
O293 Cd284 2.356 . S
O293 C291 1.282 . S
C294 O295 1.306 . S
C294 O297 1.160 . S
O295 C294 1.306 . S
O295 Cd296 2.228 . S
Cd296 O295 2.228 . S
Cd296 O300 2.273 . S
Cd296 O304 2.277 . S
O297 C294 1.160 . S
O297 Cd298 2.203 . S
Cd298 O297 2.203 . S
Cd298 O300 2.411 . S
Cd298 O301 2.333 . S
Cd298 O302 2.352 . S
Cd298 O306 2.277 . S
Cd298 O307 2.356 . S
C299 O304 1.209 . S
C299 O306 1.226 . S
O300 Cd296 2.273 . S
O300 Cd298 2.411 . S
O300 C303 1.320 . S
O301 Cd298 2.333 . S
O301 C303 1.214 . S
O302 Cd298 2.352 . S
O302 C305 1.258 . S
C303 O300 1.320 . S
C303 O301 1.214 . S
O304 Cd296 2.277 . S
O304 C299 1.209 . S
C305 O302 1.258 . S
C305 O307 1.282 . S
O306 Cd298 2.277 . S
O306 C299 1.226 . S
O307 Cd298 2.356 . S
O307 C305 1.282 . S
C308 O309 1.306 . S
C308 O311 1.160 . S
O309 C308 1.306 . S
O309 Cd310 2.228 . S
Cd310 O309 2.228 . S
Cd310 O314 2.273 . S
Cd310 O318 2.277 . S
O311 C308 1.160 . S
O311 Cd312 2.203 . S
Cd312 O311 2.203 . S
Cd312 O314 2.411 . S
Cd312 O315 2.333 . S
Cd312 O316 2.352 . S
Cd312 O320 2.277 . S
Cd312 O321 2.356 . S
C313 O318 1.209 . S
C313 O320 1.226 . S
O314 Cd310 2.273 . S
O314 Cd312 2.411 . S
O314 C317 1.320 . S
O315 Cd312 2.333 . S
O315 C317 1.214 . S
O316 Cd312 2.352 . S
O316 C319 1.258 . S
C317 O314 1.320 . S
C317 O315 1.214 . S
O318 Cd310 2.277 . S
O318 C313 1.209 . S
C319 O316 1.258 . S
C319 O321 1.282 . S
O320 Cd312 2.277 . S
O320 C313 1.226 . S
O321 Cd312 2.356 . S
O321 C319 1.282 . S
C322 O323 1.306 . S
C322 O325 1.160 . S
O323 C322 1.306 . S
O323 Cd324 2.228 . S
Cd324 O323 2.228 . S
Cd324 O328 2.273 . S
Cd324 O332 2.277 . S
O325 C322 1.160 . S
O325 Cd326 2.203 . S
Cd326 O325 2.203 . S
Cd326 O328 2.411 . S
Cd326 O329 2.333 . S
Cd326 O330 2.352 . S
Cd326 O334 2.277 . S
Cd326 O335 2.356 . S
C327 O332 1.209 . S
C327 O334 1.226 . S
O328 Cd324 2.273 . S
O328 Cd326 2.411 . S
O328 C331 1.320 . S
O329 Cd326 2.333 . S
O329 C331 1.214 . S
O330 Cd326 2.352 . S
O330 C333 1.258 . S
C331 O328 1.320 . S
C331 O329 1.214 . S
O332 Cd324 2.277 . S
O332 C327 1.209 . S
C333 O330 1.258 . S
C333 O335 1.282 . S
O334 Cd326 2.277 . S
O334 C327 1.226 . S
O335 Cd326 2.356 . S
O335 C333 1.282 . S
C336 O337 1.306 . S
C336 O339 1.160 . S
O337 C336 1.306 . S
O337 Cd338 2.228 . S
Cd338 O337 2.228 . S
Cd338 O342 2.273 . S
Cd338 O346 2.277 . S
O339 C336 1.160 . S
O339 Cd340 2.203 . S
Cd340 O339 2.203 . S
Cd340 O342 2.411 . S
Cd340 O343 2.333 . S
Cd340 O344 2.352 . S
Cd340 O348 2.277 . S
Cd340 O349 2.356 . S
C341 O346 1.209 . S
C341 O348 1.226 . S
O342 Cd338 2.273 . S
O342 Cd340 2.411 . S
O342 C345 1.320 . S
O343 Cd340 2.333 . S
O343 C345 1.214 . S
O344 Cd340 2.352 . S
O344 C347 1.258 . S
C345 O342 1.320 . S
C345 O343 1.214 . S
O346 Cd338 2.277 . S
O346 C341 1.209 . S
C347 O344 1.258 . S
C347 O349 1.282 . S
O348 Cd340 2.277 . S
O348 C341 1.226 . S
O349 Cd340 2.356 . S
O349 C347 1.282 . S
C350 O351 1.306 . S
C350 O353 1.160 . S
O351 C350 1.306 . S
O351 Cd352 2.228 . S
Cd352 O351 2.228 . S
Cd352 O356 2.273 . S
Cd352 O360 2.277 . S
O353 C350 1.160 . S
O353 Cd354 2.203 . S
Cd354 O353 2.203 . S
Cd354 O356 2.411 . S
Cd354 O357 2.333 . S
Cd354 O358 2.352 . S
Cd354 O362 2.277 . S
Cd354 O363 2.356 . S
C355 O360 1.209 . S
C355 O362 1.226 . S
O356 Cd352 2.273 . S
O356 Cd354 2.411 . S
O356 C359 1.320 . S
O357 Cd354 2.333 . S
O357 C359 1.214 . S
O358 Cd354 2.352 . S
O358 C361 1.258 . S
C359 O356 1.320 . S
C359 O357 1.214 . S
O360 Cd352 2.277 . S
O360 C355 1.209 . S
C361 O358 1.258 . S
C361 O363 1.282 . S
O362 Cd354 2.277 . S
O362 C355 1.226 . S
O363 Cd354 2.356 . S
O363 C361 1.282 . S
C364 O365 1.306 . S
C364 O367 1.160 . S
O365 C364 1.306 . S
O365 Cd366 2.228 . S
Cd366 O365 2.228 . S
Cd366 O370 2.273 . S
Cd366 O374 2.277 . S
O367 C364 1.160 . S
O367 Cd368 2.203 . S
Cd368 O367 2.203 . S
Cd368 O370 2.411 . S
Cd368 O371 2.333 . S
Cd368 O372 2.352 . S
Cd368 O376 2.277 . S
Cd368 O377 2.356 . S
C369 O374 1.209 . S
C369 O376 1.226 . S
O370 Cd366 2.273 . S
O370 Cd368 2.411 . S
O370 C373 1.320 . S
O371 Cd368 2.333 . S
O371 C373 1.214 . S
O372 Cd368 2.352 . S
O372 C375 1.258 . S
C373 O370 1.320 . S
C373 O371 1.214 . S
O374 Cd366 2.277 . S
O374 C369 1.209 . S
C375 O372 1.258 . S
C375 O377 1.282 . S
O376 Cd368 2.277 . S
O376 C369 1.226 . S
O377 Cd368 2.356 . S
O377 C375 1.282 . S
C378 O379 1.306 . S
C378 O381 1.160 . S
O379 C378 1.306 . S
O379 Cd380 2.228 . S
Cd380 O379 2.228 . S
Cd380 O384 2.273 . S
Cd380 O388 2.277 . S
O381 C378 1.160 . S
O381 Cd382 2.203 . S
Cd382 O381 2.203 . S
Cd382 O384 2.411 . S
Cd382 O385 2.333 . S
Cd382 O386 2.352 . S
Cd382 O390 2.277 . S
Cd382 O391 2.356 . S
C383 O388 1.209 . S
C383 O390 1.226 . S
O384 Cd380 2.273 . S
O384 Cd382 2.411 . S
O384 C387 1.320 . S
O385 Cd382 2.333 . S
O385 C387 1.214 . S
O386 Cd382 2.352 . S
O386 C389 1.258 . S
C387 O384 1.320 . S
C387 O385 1.214 . S
O388 Cd380 2.277 . S
O388 C383 1.209 . S
C389 O386 1.258 . S
C389 O391 1.282 . S
O390 Cd382 2.277 . S
O390 C383 1.226 . S
O391 Cd382 2.356 . S
O391 C389 1.282 . S
C392 O393 1.306 . S
C392 O395 1.160 . S
O393 C392 1.306 . S
O393 Cd394 2.228 . S
Cd394 O393 2.228 . S
Cd394 O398 2.273 . S
Cd394 O402 2.277 . S
O395 C392 1.160 . S
O395 Cd396 2.203 . S
Cd396 O395 2.203 . S
Cd396 O398 2.411 . S
Cd396 O399 2.333 . S
Cd396 O400 2.352 . S
Cd396 O404 2.277 . S
Cd396 O405 2.356 . S
C397 O402 1.209 . S
C397 O404 1.226 . S
O398 Cd394 2.273 . S
O398 Cd396 2.411 . S
O398 C401 1.320 . S
O399 Cd396 2.333 . S
O399 C401 1.214 . S
O400 Cd396 2.352 . S
O400 C403 1.258 . S
C401 O398 1.320 . S
C401 O399 1.214 . S
O402 Cd394 2.277 . S
O402 C397 1.209 . S
C403 O400 1.258 . S
C403 O405 1.282 . S
O404 Cd396 2.277 . S
O404 C397 1.226 . S
O405 Cd396 2.356 . S
O405 C403 1.282 . S
C406 O407 1.306 . S
C406 O409 1.160 . S
O407 C406 1.306 . S
O407 Cd408 2.228 . S
Cd408 O407 2.228 . S
Cd408 O412 2.273 . S
Cd408 O416 2.277 . S
O409 C406 1.160 . S
O409 Cd410 2.203 . S
Cd410 O409 2.203 . S
Cd410 O412 2.411 . S
Cd410 O413 2.333 . S
Cd410 O414 2.352 . S
Cd410 O418 2.277 . S
Cd410 O419 2.356 . S
C411 O416 1.209 . S
C411 O418 1.226 . S
O412 Cd408 2.273 . S
O412 Cd410 2.411 . S
O412 C415 1.320 . S
O413 Cd410 2.333 . S
O413 C415 1.214 . S
O414 Cd410 2.352 . S
O414 C417 1.258 . S
C415 O412 1.320 . S
C415 O413 1.214 . S
O416 Cd408 2.277 . S
O416 C411 1.209 . S
C417 O414 1.258 . S
C417 O419 1.282 . S
O418 Cd410 2.277 . S
O418 C411 1.226 . S
O419 Cd410 2.356 . S
O419 C417 1.282 . S
C420 O421 1.306 . S
C420 O423 1.160 . S
O421 C420 1.306 . S
O421 Cd422 2.228 . S
Cd422 O421 2.228 . S
Cd422 O426 2.273 . S
Cd422 O430 2.277 . S
O423 C420 1.160 . S
O423 Cd424 2.203 . S
Cd424 O423 2.203 . S
Cd424 O426 2.411 . S
Cd424 O427 2.333 . S
Cd424 O428 2.352 . S
Cd424 O432 2.277 . S
Cd424 O433 2.356 . S
C425 O430 1.209 . S
C425 O432 1.226 . S
O426 Cd422 2.273 . S
O426 Cd424 2.411 . S
O426 C429 1.320 . S
O427 Cd424 2.333 . S
O427 C429 1.214 . S
O428 Cd424 2.352 . S
O428 C431 1.258 . S
C429 O426 1.320 . S
C429 O427 1.214 . S
O430 Cd422 2.277 . S
O430 C425 1.209 . S
C431 O428 1.258 . S
C431 O433 1.282 . S
O432 Cd424 2.277 . S
O432 C425 1.226 . S
O433 Cd424 2.356 . S
O433 C431 1.282 . S
C434 O435 1.306 . S
C434 O437 1.160 . S
O435 C434 1.306 . S
O435 Cd436 2.228 . S
Cd436 O435 2.228 . S
Cd436 O440 2.273 . S
Cd436 O444 2.277 . S
O437 C434 1.160 . S
O437 Cd438 2.203 . S
Cd438 O437 2.203 . S
Cd438 O440 2.411 . S
Cd438 O441 2.333 . S
Cd438 O442 2.352 . S
Cd438 O446 2.277 . S
Cd438 O447 2.356 . S
C439 O444 1.209 . S
C439 O446 1.226 . S
O440 Cd436 2.273 . S
O440 Cd438 2.411 . S
O440 C443 1.320 . S
O441 Cd438 2.333 . S
O441 C443 1.214 . S
O442 Cd438 2.352 . S
O442 C445 1.258 . S
C443 O440 1.320 . S
C443 O441 1.214 . S
O444 Cd436 2.277 . S
O444 C439 1.209 . S
C445 O442 1.258 . S
C445 O447 1.282 . S
O446 Cd438 2.277 . S
O446 C439 1.226 . S
O447 Cd438 2.356 . S
O447 C445 1.282 . S
C448 O449 1.306 . S
C448 O451 1.160 . S
O449 C448 1.306 . S
O449 Cd450 2.228 . S
Cd450 O449 2.228 . S
Cd450 O454 2.273 . S
Cd450 O458 2.277 . S
O451 C448 1.160 . S
O451 Cd452 2.203 . S
Cd452 O451 2.203 . S
Cd452 O454 2.411 . S
Cd452 O455 2.333 . S
Cd452 O456 2.352 . S
Cd452 O460 2.277 . S
Cd452 O461 2.356 . S
C453 O458 1.209 . S
C453 O460 1.226 . S
O454 Cd450 2.273 . S
O454 Cd452 2.411 . S
O454 C457 1.320 . S
O455 Cd452 2.333 . S
O455 C457 1.214 . S
O456 Cd452 2.352 . S
O456 C459 1.258 . S
C457 O454 1.320 . S
C457 O455 1.214 . S
O458 Cd450 2.277 . S
O458 C453 1.209 . S
C459 O456 1.258 . S
C459 O461 1.282 . S
O460 Cd452 2.277 . S
O460 C453 1.226 . S
O461 Cd452 2.356 . S
O461 C459 1.282 . S
C462 O463 1.306 . S
C462 O465 1.160 . S
O463 C462 1.306 . S
O463 Cd464 2.228 . S
Cd464 O463 2.228 . S
Cd464 O468 2.273 . S
Cd464 O472 2.277 . S
O465 C462 1.160 . S
O465 Cd466 2.203 . S
Cd466 O465 2.203 . S
Cd466 O468 2.411 . S
Cd466 O469 2.333 . S
Cd466 O470 2.352 . S
Cd466 O474 2.277 . S
Cd466 O475 2.356 . S
C467 O472 1.209 . S
C467 O474 1.226 . S
O468 Cd464 2.273 . S
O468 Cd466 2.411 . S
O468 C471 1.320 . S
O469 Cd466 2.333 . S
O469 C471 1.214 . S
O470 Cd466 2.352 . S
O470 C473 1.258 . S
C471 O468 1.320 . S
C471 O469 1.214 . S
O472 Cd464 2.277 . S
O472 C467 1.209 . S
C473 O470 1.258 . S
C473 O475 1.282 . S
O474 Cd466 2.277 . S
O474 C467 1.226 . S
O475 Cd466 2.356 . S
O475 C473 1.282 . S
C476 O477 1.306 . S
C476 O479 1.160 . S
O477 C476 1.306 . S
O477 Cd478 2.228 . S
Cd478 O477 2.228 . S
Cd478 O482 2.273 . S
Cd478 O486 2.277 . S
O479 C476 1.160 . S
O479 Cd480 2.203 . S
Cd480 O479 2.203 . S
Cd480 O482 2.411 . S
Cd480 O483 2.333 . S
Cd480 O484 2.352 . S
Cd480 O488 2.277 . S
Cd480 O489 2.356 . S
C481 O486 1.209 . S
C481 O488 1.226 . S
O482 Cd478 2.273 . S
O482 Cd480 2.411 . S
O482 C485 1.320 . S
O483 Cd480 2.333 . S
O483 C485 1.214 . S
O484 Cd480 2.352 . S
O484 C487 1.258 . S
C485 O482 1.320 . S
C485 O483 1.214 . S
O486 Cd478 2.277 . S
O486 C481 1.209 . S
C487 O484 1.258 . S
C487 O489 1.282 . S
O488 Cd480 2.277 . S
O488 C481 1.226 . S
O489 Cd480 2.356 . S
O489 C487 1.282 . S
C490 O491 1.306 . S
C490 O493 1.160 . S
O491 C490 1.306 . S
O491 Cd492 2.228 . S
Cd492 O491 2.228 . S
Cd492 O496 2.273 . S
Cd492 O500 2.277 . S
O493 C490 1.160 . S
O493 Cd494 2.203 . S
Cd494 O493 2.203 . S
Cd494 O496 2.411 . S
Cd494 O497 2.333 . S
Cd494 O498 2.352 . S
Cd494 O502 2.277 . S
Cd494 O503 2.356 . S
C495 O500 1.209 . S
C495 O502 1.226 . S
O496 Cd492 2.273 . S
O496 Cd494 2.411 . S
O496 C499 1.320 . S
O497 Cd494 2.333 . S
O497 C499 1.214 . S
O498 Cd494 2.352 . S
O498 C501 1.258 . S
C499 O496 1.320 . S
C499 O497 1.214 . S
O500 Cd492 2.277 . S
O500 C495 1.209 . S
C501 O498 1.258 . S
C501 O503 1.282 . S
O502 Cd494 2.277 . S
O502 C495 1.226 . S
O503 Cd494 2.356 . S
O503 C501 1.282 . S
C504 O505 1.306 . S
C504 O507 1.160 . S
O505 C504 1.306 . S
O505 Cd506 2.228 . S
Cd506 O505 2.228 . S
Cd506 O510 2.273 . S
Cd506 O514 2.277 . S
O507 C504 1.160 . S
O507 Cd508 2.203 . S
Cd508 O507 2.203 . S
Cd508 O510 2.411 . S
Cd508 O511 2.333 . S
Cd508 O512 2.352 . S
Cd508 O516 2.277 . S
Cd508 O517 2.356 . S
C509 O514 1.209 . S
C509 O516 1.226 . S
O510 Cd506 2.273 . S
O510 Cd508 2.411 . S
O510 C513 1.320 . S
O511 Cd508 2.333 . S
O511 C513 1.214 . S
O512 Cd508 2.352 . S
O512 C515 1.258 . S
C513 O510 1.320 . S
C513 O511 1.214 . S
O514 Cd506 2.277 . S
O514 C509 1.209 . S
C515 O512 1.258 . S
C515 O517 1.282 . S
O516 Cd508 2.277 . S
O516 C509 1.226 . S
O517 Cd508 2.356 . S
O517 C515 1.282 . S
C518 O519 1.306 . S
C518 O521 1.160 . S
O519 C518 1.306 . S
O519 Cd520 2.228 . S
Cd520 O519 2.228 . S
Cd520 O524 2.273 . S
Cd520 O528 2.277 . S
O521 C518 1.160 . S
O521 Cd522 2.203 . S
Cd522 O521 2.203 . S
Cd522 O524 2.411 . S
Cd522 O525 2.333 . S
Cd522 O526 2.352 . S
Cd522 O530 2.277 . S
Cd522 O531 2.356 . S
C523 O528 1.209 . S
C523 O530 1.226 . S
O524 Cd520 2.273 . S
O524 Cd522 2.411 . S
O524 C527 1.320 . S
O525 Cd522 2.333 . S
O525 C527 1.214 . S
O526 Cd522 2.352 . S
O526 C529 1.258 . S
C527 O524 1.320 . S
C527 O525 1.214 . S
O528 Cd520 2.277 . S
O528 C523 1.209 . S
C529 O526 1.258 . S
C529 O531 1.282 . S
O530 Cd522 2.277 . S
O530 C523 1.226 . S
O531 Cd522 2.356 . S
O531 C529 1.282 . S
C532 O533 1.306 . S
C532 O535 1.160 . S
O533 C532 1.306 . S
O533 Cd534 2.228 . S
Cd534 O533 2.228 . S
Cd534 O538 2.273 . S
Cd534 O542 2.277 . S
O535 C532 1.160 . S
O535 Cd536 2.203 . S
Cd536 O535 2.203 . S
Cd536 O538 2.411 . S
Cd536 O539 2.333 . S
Cd536 O540 2.352 . S
Cd536 O544 2.277 . S
Cd536 O545 2.356 . S
C537 O542 1.209 . S
C537 O544 1.226 . S
O538 Cd534 2.273 . S
O538 Cd536 2.411 . S
O538 C541 1.320 . S
O539 Cd536 2.333 . S
O539 C541 1.214 . S
O540 Cd536 2.352 . S
O540 C543 1.258 . S
C541 O538 1.320 . S
C541 O539 1.214 . S
O542 Cd534 2.277 . S
O542 C537 1.209 . S
C543 O540 1.258 . S
C543 O545 1.282 . S
O544 Cd536 2.277 . S
O544 C537 1.226 . S
O545 Cd536 2.356 . S
O545 C543 1.282 . S
C546 O547 1.306 . S
C546 O549 1.160 . S
O547 C546 1.306 . S
O547 Cd548 2.228 . S
Cd548 O547 2.228 . S
Cd548 O552 2.273 . S
Cd548 O556 2.277 . S
O549 C546 1.160 . S
O549 Cd550 2.203 . S
Cd550 O549 2.203 . S
Cd550 O552 2.411 . S
Cd550 O553 2.333 . S
Cd550 O554 2.352 . S
Cd550 O558 2.277 . S
Cd550 O559 2.356 . S
C551 O556 1.209 . S
C551 O558 1.226 . S
O552 Cd548 2.273 . S
O552 Cd550 2.411 . S
O552 C555 1.320 . S
O553 Cd550 2.333 . S
O553 C555 1.214 . S
O554 Cd550 2.352 . S
O554 C557 1.258 . S
C555 O552 1.320 . S
C555 O553 1.214 . S
O556 Cd548 2.277 . S
O556 C551 1.209 . S
C557 O554 1.258 . S
C557 O559 1.282 . S
O558 Cd550 2.277 . S
O558 C551 1.226 . S
O559 Cd550 2.356 . S
O559 C557 1.282 . S
C560 O561 1.306 . S
C560 O563 1.160 . S
O561 C560 1.306 . S
O561 Cd562 2.228 . S
Cd562 O561 2.228 . S
Cd562 O566 2.273 . S
Cd562 O570 2.277 . S
O563 C560 1.160 . S
O563 Cd564 2.203 . S
Cd564 O563 2.203 . S
Cd564 O566 2.411 . S
Cd564 O567 2.333 . S
Cd564 O568 2.352 . S
Cd564 O572 2.277 . S
Cd564 O573 2.356 . S
C565 O570 1.209 . S
C565 O572 1.226 . S
O566 Cd562 2.273 . S
O566 Cd564 2.411 . S
O566 C569 1.320 . S
O567 Cd564 2.333 . S
O567 C569 1.214 . S
O568 Cd564 2.352 . S
O568 C571 1.258 . S
C569 O566 1.320 . S
C569 O567 1.214 . S
O570 Cd562 2.277 . S
O570 C565 1.209 . S
C571 O568 1.258 . S
C571 O573 1.282 . S
O572 Cd564 2.277 . S
O572 C565 1.226 . S
O573 Cd564 2.356 . S
O573 C571 1.282 . S
C574 O575 1.306 . S
C574 O577 1.160 . S
O575 C574 1.306 . S
O575 Cd576 2.228 . S
Cd576 O575 2.228 . S
Cd576 O580 2.273 . S
Cd576 O584 2.277 . S
O577 C574 1.160 . S
O577 Cd578 2.203 . S
Cd578 O577 2.203 . S
Cd578 O580 2.411 . S
Cd578 O581 2.333 . S
Cd578 O582 2.352 . S
Cd578 O586 2.277 . S
Cd578 O587 2.356 . S
C579 O584 1.209 . S
C579 O586 1.226 . S
O580 Cd576 2.273 . S
O580 Cd578 2.411 . S
O580 C583 1.320 . S
O581 Cd578 2.333 . S
O581 C583 1.214 . S
O582 Cd578 2.352 . S
O582 C585 1.258 . S
C583 O580 1.320 . S
C583 O581 1.214 . S
O584 Cd576 2.277 . S
O584 C579 1.209 . S
C585 O582 1.258 . S
C585 O587 1.282 . S
O586 Cd578 2.277 . S
O586 C579 1.226 . S
O587 Cd578 2.356 . S
O587 C585 1.282 . S
C588 O589 1.306 . S
C588 O591 1.160 . S
O589 C588 1.306 . S
O589 Cd590 2.228 . S
Cd590 O589 2.228 . S
Cd590 O594 2.273 . S
Cd590 O598 2.277 . S
O591 C588 1.160 . S
O591 Cd592 2.203 . S
Cd592 O591 2.203 . S
Cd592 O594 2.411 . S
Cd592 O595 2.333 . S
Cd592 O596 2.352 . S
Cd592 O600 2.277 . S
Cd592 O601 2.356 . S
C593 O598 1.209 . S
C593 O600 1.226 . S
O594 Cd590 2.273 . S
O594 Cd592 2.411 . S
O594 C597 1.320 . S
O595 Cd592 2.333 . S
O595 C597 1.214 . S
O596 Cd592 2.352 . S
O596 C599 1.258 . S
C597 O594 1.320 . S
C597 O595 1.214 . S
O598 Cd590 2.277 . S
O598 C593 1.209 . S
C599 O596 1.258 . S
C599 O601 1.282 . S
O600 Cd592 2.277 . S
O600 C593 1.226 . S
O601 Cd592 2.356 . S
O601 C599 1.282 . S
C602 O603 1.306 . S
C602 O605 1.160 . S
O603 C602 1.306 . S
O603 Cd604 2.228 . S
Cd604 O603 2.228 . S
Cd604 O608 2.273 . S
Cd604 O612 2.277 . S
O605 C602 1.160 . S
O605 Cd606 2.203 . S
Cd606 O605 2.203 . S
Cd606 O608 2.411 . S
Cd606 O609 2.333 . S
Cd606 O610 2.352 . S
Cd606 O614 2.277 . S
Cd606 O615 2.356 . S
C607 O612 1.209 . S
C607 O614 1.226 . S
O608 Cd604 2.273 . S
O608 Cd606 2.411 . S
O608 C611 1.320 . S
O609 Cd606 2.333 . S
O609 C611 1.214 . S
O610 Cd606 2.352 . S
O610 C613 1.258 . S
C611 O608 1.320 . S
C611 O609 1.214 . S
O612 Cd604 2.277 . S
O612 C607 1.209 . S
C613 O610 1.258 . S
C613 O615 1.282 . S
O614 Cd606 2.277 . S
O614 C607 1.226 . S
O615 Cd606 2.356 . S
O615 C613 1.282 . S
C616 O617 1.306 . S
C616 O619 1.160 . S
O617 C616 1.306 . S
O617 Cd618 2.228 . S
Cd618 O617 2.228 . S
Cd618 O622 2.273 . S
Cd618 O626 2.277 . S
O619 C616 1.160 . S
O619 Cd620 2.203 . S
Cd620 O619 2.203 . S
Cd620 O622 2.411 . S
Cd620 O623 2.333 . S
Cd620 O624 2.352 . S
Cd620 O628 2.277 . S
Cd620 O629 2.356 . S
C621 O626 1.209 . S
C621 O628 1.226 . S
O622 Cd618 2.273 . S
O622 Cd620 2.411 . S
O622 C625 1.320 . S
O623 Cd620 2.333 . S
O623 C625 1.214 . S
O624 Cd620 2.352 . S
O624 C627 1.258 . S
C625 O622 1.320 . S
C625 O623 1.214 . S
O626 Cd618 2.277 . S
O626 C621 1.209 . S
C627 O624 1.258 . S
C627 O629 1.282 . S
O628 Cd620 2.277 . S
O628 C621 1.226 . S
O629 Cd620 2.356 . S
O629 C627 1.282 . S
C630 O631 1.306 . S
C630 O633 1.160 . S
O631 C630 1.306 . S
O631 Cd632 2.228 . S
Cd632 O631 2.228 . S
Cd632 O636 2.273 . S
Cd632 O640 2.277 . S
O633 C630 1.160 . S
O633 Cd634 2.203 . S
Cd634 O633 2.203 . S
Cd634 O636 2.411 . S
Cd634 O637 2.333 . S
Cd634 O638 2.352 . S
Cd634 O642 2.277 . S
Cd634 O643 2.356 . S
C635 O640 1.209 . S
C635 O642 1.226 . S
O636 Cd632 2.273 . S
O636 Cd634 2.411 . S
O636 C639 1.320 . S
O637 Cd634 2.333 . S
O637 C639 1.214 . S
O638 Cd634 2.352 . S
O638 C641 1.258 . S
C639 O636 1.320 . S
C639 O637 1.214 . S
O640 Cd632 2.277 . S
O640 C635 1.209 . S
C641 O638 1.258 . S
C641 O643 1.282 . S
O642 Cd634 2.277 . S
O642 C635 1.226 . S
O643 Cd634 2.356 . S
O643 C641 1.282 . S
C644 O645 1.306 . S
C644 O647 1.160 . S
O645 C644 1.306 . S
O645 Cd646 2.228 . S
Cd646 O645 2.228 . S
Cd646 O650 2.273 . S
Cd646 O654 2.277 . S
O647 C644 1.160 . S
O647 Cd648 2.203 . S
Cd648 O647 2.203 . S
Cd648 O650 2.411 . S
Cd648 O651 2.333 . S
Cd648 O652 2.352 . S
Cd648 O656 2.277 . S
Cd648 O657 2.356 . S
C649 O654 1.209 . S
C649 O656 1.226 . S
O650 Cd646 2.273 . S
O650 Cd648 2.411 . S
O650 C653 1.320 . S
O651 Cd648 2.333 . S
O651 C653 1.214 . S
O652 Cd648 2.352 . S
O652 C655 1.258 . S
C653 O650 1.320 . S
C653 O651 1.214 . S
O654 Cd646 2.277 . S
O654 C649 1.209 . S
C655 O652 1.258 . S
C655 O657 1.282 . S
O656 Cd648 2.277 . S
O656 C649 1.226 . S
O657 Cd648 2.356 . S
O657 C655 1.282 . S
C658 O659 1.306 . S
C658 O661 1.160 . S
O659 C658 1.306 . S
O659 Cd660 2.228 . S
Cd660 O659 2.228 . S
Cd660 O664 2.273 . S
Cd660 O668 2.277 . S
O661 C658 1.160 . S
O661 Cd662 2.203 . S
Cd662 O661 2.203 . S
Cd662 O664 2.411 . S
Cd662 O665 2.333 . S
Cd662 O666 2.352 . S
Cd662 O670 2.277 . S
Cd662 O671 2.356 . S
C663 O668 1.209 . S
C663 O670 1.226 . S
O664 Cd660 2.273 . S
O664 Cd662 2.411 . S
O664 C667 1.320 . S
O665 Cd662 2.333 . S
O665 C667 1.214 . S
O666 Cd662 2.352 . S
O666 C669 1.258 . S
C667 O664 1.320 . S
C667 O665 1.214 . S
O668 Cd660 2.277 . S
O668 C663 1.209 . S
C669 O666 1.258 . S
C669 O671 1.282 . S
O670 Cd662 2.277 . S
O670 C663 1.226 . S
O671 Cd662 2.356 . S
O671 C669 1.282 . S
H672 C680 0.929 . S
H673 C682 0.930 . S
H674 C684 0.930 . S
H675 C687 0.929 . S
H676 C690 0.930 . S
H677 C692 0.960 . S
H678 C692 0.960 . S
H679 C692 0.960 . S
C680 H672 0.929 . S
C680 C681 1.377 . S
C680 C682 1.384 . S
C681 C680 1.377 . S
C681 C687 1.390 . S
C682 H673 0.930 . S
C682 C680 1.384 . S
C682 C683 1.372 . S
C683 C682 1.372 . S
C683 C684 1.400 . S
C683 C688 1.490 . S
C684 H674 0.930 . S
C684 C683 1.400 . S
C684 C687 1.386 . S
H685 C701 0.930 . S
H686 C702 0.931 . S
C687 H675 0.929 . S
C687 C681 1.390 . S
C687 C684 1.386 . S
C688 C683 1.490 . S
C688 C690 1.395 . S
C688 C691 1.403 . S
H689 C695 0.930 . S
C690 H676 0.930 . S
C690 C688 1.395 . S
C690 C693 1.403 . S
C691 C688 1.403 . S
C691 C692 1.524 . S
C691 C695 1.400 . S
C692 H677 0.960 . S
C692 H678 0.960 . S
C692 H679 0.960 . S
C692 C691 1.524 . S
C693 C690 1.403 . S
C693 C694 1.392 . S
C693 C697 1.495 . S
C694 C693 1.392 . S
C694 C695 1.385 . S
C694 C696 1.478 . S
C695 H689 0.930 . S
C695 C691 1.400 . S
C695 C694 1.385 . S
C696 C694 1.478 . S
C696 C698 1.381 . S
C696 C702 1.383 . S
C697 C693 1.495 . S
C697 H703 0.959 . S
C697 H704 0.961 . S
C697 H705 0.960 . S
C698 C696 1.381 . S
C698 C699 1.394 . S
C698 H706 0.930 . S
C699 C698 1.394 . S
C699 C700 1.383 . S
C699 H707 0.929 . S
C700 C699 1.383 . S
C700 C701 1.377 . S
C701 H685 0.930 . S
C701 C700 1.377 . S
C701 C702 1.379 . S
C702 H686 0.931 . S
C702 C696 1.383 . S
C702 C701 1.379 . S
H703 C697 0.959 . S
H704 C697 0.961 . S
H705 C697 0.960 . S
H706 C698 0.930 . S
H707 C699 0.929 . S
H708 C716 0.929 . S
H709 C718 0.930 . S
H710 C720 0.930 . S
H711 C723 0.929 . S
H712 C726 0.930 . S
H713 C728 0.959 . S
H714 C728 0.960 . S
H715 C728 0.960 . S
C716 H708 0.929 . S
C716 C717 1.377 . S
C716 C718 1.384 . S
C717 C716 1.377 . S
C717 C723 1.390 . S
C718 H709 0.930 . S
C718 C716 1.384 . S
C718 C719 1.372 . S
C719 C718 1.372 . S
C719 C720 1.400 . S
C719 C724 1.539 . S
C720 H710 0.930 . S
C720 C719 1.400 . S
C720 C723 1.386 . S
H721 C737 0.930 . S
H722 C738 0.931 . S
C723 H711 0.929 . S
C723 C717 1.390 . S
C723 C720 1.386 . S
C724 C719 1.539 . S
C724 C726 1.361 1_455 S
C724 C727 1.388 1_455 S
H725 C731 0.930 . S
C726 H712 0.930 . S
C726 C724 1.361 1_655 S
C726 C729 1.403 . S
C727 C724 1.388 1_655 S
C727 C728 1.524 1_655 S
C727 C731 1.400 . S
C728 H713 0.959 . S
C728 H714 0.960 . S
C728 H715 0.960 . S
C728 C727 1.524 1_455 S
C729 C726 1.403 . S
C729 C730 1.392 . S
C729 C733 1.495 . S
C730 C729 1.392 . S
C730 C731 1.385 . S
C730 C732 1.478 . S
C731 H725 0.930 . S
C731 C727 1.400 . S
C731 C730 1.385 . S
C732 C730 1.478 . S
C732 C734 1.381 . S
C732 C738 1.383 . S
C733 C729 1.495 . S
C733 H739 0.959 . S
C733 H740 0.961 . S
C733 H741 0.960 . S
C734 C732 1.381 . S
C734 C735 1.394 . S
C734 H742 0.930 . S
C735 C734 1.394 . S
C735 C736 1.383 . S
C735 H743 0.929 . S
C736 C735 1.383 . S
C736 C737 1.377 . S
C737 H721 0.930 . S
C737 C736 1.377 . S
C737 C738 1.379 . S
C738 H722 0.931 . S
C738 C732 1.383 . S
C738 C737 1.379 . S
H739 C733 0.959 . S
H740 C733 0.961 . S
H741 C733 0.960 . S
H742 C734 0.930 . S
H743 C735 0.929 . S
H744 C752 0.929 . S
H745 C754 0.930 . S
H746 C756 0.930 . S
H747 C759 0.929 . S
H748 C762 0.930 . S
H749 C764 0.960 . S
H750 C764 0.960 . S
H751 C764 0.960 . S
C752 H744 0.929 . S
C752 C753 1.377 . S
C752 C754 1.384 . S
C753 C752 1.377 . S
C753 C759 1.390 . S
C754 H745 0.930 . S
C754 C752 1.384 . S
C754 C755 1.372 . S
C755 C754 1.372 . S
C755 C756 1.400 . S
C755 C760 1.490 . S
C756 H746 0.930 . S
C756 C755 1.400 . S
C756 C759 1.386 . S
H757 C773 0.930 . S
H758 C774 0.931 . S
C759 H747 0.929 . S
C759 C753 1.390 . S
C759 C756 1.386 . S
C760 C755 1.490 . S
C760 C762 1.395 . S
C760 C763 1.403 . S
H761 C767 0.930 . S
C762 H748 0.930 . S
C762 C760 1.395 . S
C762 C765 1.403 . S
C763 C760 1.403 . S
C763 C764 1.524 . S
C763 C767 1.400 . S
C764 H749 0.960 . S
C764 H750 0.960 . S
C764 H751 0.960 . S
C764 C763 1.524 . S
C765 C762 1.403 . S
C765 C766 1.392 . S
C765 C769 1.495 . S
C766 C765 1.392 . S
C766 C767 1.385 . S
C766 C768 1.478 . S
C767 H761 0.930 . S
C767 C763 1.400 . S
C767 C766 1.385 . S
C768 C766 1.478 . S
C768 C770 1.381 . S
C768 C774 1.383 . S
C769 C765 1.495 . S
C769 H775 0.959 . S
C769 H776 0.961 . S
C769 H777 0.960 . S
C770 C768 1.381 . S
C770 C771 1.394 . S
C770 H778 0.930 . S
C771 C770 1.394 . S
C771 C772 1.383 . S
C771 H779 0.929 . S
C772 C771 1.383 . S
C772 C773 1.377 . S
C773 H757 0.930 . S
C773 C772 1.377 . S
C773 C774 1.379 . S
C774 H758 0.931 . S
C774 C768 1.383 . S
C774 C773 1.379 . S
H775 C769 0.959 . S
H776 C769 0.961 . S
H777 C769 0.960 . S
H778 C770 0.930 . S
H779 C771 0.929 . S
H780 C788 0.929 . S
H781 C790 0.930 . S
H782 C792 0.930 . S
H783 C795 0.929 . S
H784 C798 0.930 . S
H785 C800 0.960 . S
H786 C800 0.960 . S
H787 C800 0.960 . S
C788 H780 0.929 . S
C788 C789 1.377 . S
C788 C790 1.384 . S
C789 C788 1.377 . S
C789 C795 1.390 . S
C790 H781 0.930 . S
C790 C788 1.384 . S
C790 C791 1.372 . S
C791 C790 1.372 . S
C791 C792 1.400 . S
C791 C796 1.490 . S
C792 H782 0.930 . S
C792 C791 1.400 . S
C792 C795 1.386 . S
H793 C809 0.930 . S
H794 C810 0.931 . S
C795 H783 0.929 . S
C795 C789 1.390 . S
C795 C792 1.386 . S
C796 C791 1.490 . S
C796 C798 1.395 . S
C796 C799 1.403 . S
H797 C803 0.930 . S
C798 H784 0.930 . S
C798 C796 1.395 . S
C798 C801 1.403 . S
C799 C796 1.403 . S
C799 C800 1.524 . S
C799 C803 1.400 . S
C800 H785 0.960 . S
C800 H786 0.960 . S
C800 H787 0.960 . S
C800 C799 1.524 . S
C801 C798 1.403 . S
C801 C802 1.392 . S
C801 C805 1.495 . S
C802 C801 1.392 . S
C802 C803 1.385 . S
C802 C804 1.478 . S
C803 H797 0.930 . S
C803 C799 1.400 . S
C803 C802 1.385 . S
C804 C802 1.478 . S
C804 C806 1.381 . S
C804 C810 1.383 . S
C805 C801 1.495 . S
C805 H811 0.959 . S
C805 H812 0.961 . S
C805 H813 0.960 . S
C806 C804 1.381 . S
C806 C807 1.394 . S
C806 H814 0.930 . S
C807 C806 1.394 . S
C807 C808 1.383 . S
C807 H815 0.929 . S
C808 C807 1.383 . S
C808 C809 1.377 . S
C809 H793 0.930 . S
C809 C808 1.377 . S
C809 C810 1.379 . S
C810 H794 0.931 . S
C810 C804 1.383 . S
C810 C809 1.379 . S
H811 C805 0.959 . S
H812 C805 0.961 . S
H813 C805 0.960 . S
H814 C806 0.930 . S
H815 C807 0.929 . S
H816 C824 0.929 . S
H817 C826 0.930 . S
H818 C828 0.930 . S
H819 C831 0.929 . S
H820 C834 0.930 . S
H821 C836 0.960 . S
H822 C836 0.960 . S
H823 C836 0.960 . S
C824 H816 0.929 . S
C824 C825 1.377 . S
C824 C826 1.384 . S
C825 C824 1.377 . S
C825 C831 1.390 . S
C826 H817 0.930 . S
C826 C824 1.384 . S
C826 C827 1.372 . S
C827 C826 1.372 . S
C827 C828 1.400 . S
C827 C832 1.490 . S
C828 H818 0.930 . S
C828 C827 1.400 . S
C828 C831 1.386 . S
H829 C845 0.930 . S
H830 C846 0.931 . S
C831 H819 0.929 . S
C831 C825 1.390 . S
C831 C828 1.386 . S
C832 C827 1.490 . S
C832 C834 1.395 . S
C832 C835 1.403 . S
H833 C839 0.930 . S
C834 H820 0.930 . S
C834 C832 1.395 . S
C834 C837 1.403 . S
C835 C832 1.403 . S
C835 C836 1.524 . S
C835 C839 1.400 . S
C836 H821 0.960 . S
C836 H822 0.960 . S
C836 H823 0.960 . S
C836 C835 1.524 . S
C837 C834 1.403 . S
C837 C838 1.392 . S
C837 C841 1.495 . S
C838 C837 1.392 . S
C838 C839 1.385 . S
C838 C840 1.478 . S
C839 H833 0.930 . S
C839 C835 1.400 . S
C839 C838 1.385 . S
C840 C838 1.478 . S
C840 C842 1.381 . S
C840 C846 1.383 . S
C841 C837 1.495 . S
C841 H847 0.959 . S
C841 H848 0.961 . S
C841 H849 0.960 . S
C842 C840 1.381 . S
C842 C843 1.394 . S
C842 H850 0.930 . S
C843 C842 1.394 . S
C843 C844 1.383 . S
C843 H851 0.929 . S
C844 C843 1.383 . S
C844 C845 1.377 . S
C845 H829 0.930 . S
C845 C844 1.377 . S
C845 C846 1.379 . S
C846 H830 0.931 . S
C846 C840 1.383 . S
C846 C845 1.379 . S
H847 C841 0.959 . S
H848 C841 0.961 . S
H849 C841 0.960 . S
H850 C842 0.930 . S
H851 C843 0.929 . S
H852 C860 0.929 . S
H853 C862 0.930 . S
H854 C864 0.930 . S
H855 C867 0.929 . S
H856 C870 0.930 . S
H857 C872 0.960 . S
H858 C872 0.960 . S
H859 C872 0.960 . S
C860 H852 0.929 . S
C860 C861 1.377 . S
C860 C862 1.384 . S
C861 C860 1.377 . S
C861 C867 1.390 . S
C862 H853 0.930 . S
C862 C860 1.384 . S
C862 C863 1.372 . S
C863 C862 1.372 . S
C863 C864 1.400 . S
C863 C868 1.490 . S
C864 H854 0.930 . S
C864 C863 1.400 . S
C864 C867 1.386 . S
H865 C881 0.930 . S
H866 C882 0.931 . S
C867 H855 0.929 . S
C867 C861 1.390 . S
C867 C864 1.386 . S
C868 C863 1.490 . S
C868 C870 1.395 . S
C868 C871 1.403 . S
H869 C875 0.930 . S
C870 H856 0.930 . S
C870 C868 1.395 . S
C870 C873 1.403 . S
C871 C868 1.403 . S
C871 C872 1.524 . S
C871 C875 1.400 . S
C872 H857 0.960 . S
C872 H858 0.960 . S
C872 H859 0.960 . S
C872 C871 1.524 . S
C873 C870 1.403 . S
C873 C874 1.392 . S
C873 C877 1.495 . S
C874 C873 1.392 . S
C874 C875 1.385 . S
C874 C876 1.478 . S
C875 H869 0.930 . S
C875 C871 1.400 . S
C875 C874 1.385 . S
C876 C874 1.478 . S
C876 C878 1.381 . S
C876 C882 1.383 . S
C877 C873 1.495 . S
C877 H883 0.959 . S
C877 H884 0.961 . S
C877 H885 0.960 . S
C878 C876 1.381 . S
C878 C879 1.394 . S
C878 H886 0.930 . S
C879 C878 1.394 . S
C879 C880 1.383 . S
C879 H887 0.929 . S
C880 C879 1.383 . S
C880 C881 1.377 . S
C881 H865 0.930 . S
C881 C880 1.377 . S
C881 C882 1.379 . S
C882 H866 0.931 . S
C882 C876 1.383 . S
C882 C881 1.379 . S
H883 C877 0.959 . S
H884 C877 0.961 . S
H885 C877 0.960 . S
H886 C878 0.930 . S
H887 C879 0.929 . S
H888 C896 0.929 . S
H889 C898 0.930 . S
H890 C900 0.930 . S
H891 C903 0.929 . S
H892 C906 0.930 . S
H893 C908 0.960 . S
H894 C908 0.960 . S
H895 C908 0.960 . S
C896 H888 0.929 . S
C896 C897 1.377 . S
C896 C898 1.384 . S
C897 C896 1.377 . S
C897 C903 1.390 . S
C898 H889 0.930 . S
C898 C896 1.384 . S
C898 C899 1.372 . S
C899 C898 1.372 . S
C899 C900 1.400 . S
C899 C904 1.490 . S
C900 H890 0.930 . S
C900 C899 1.400 . S
C900 C903 1.386 . S
H901 C917 0.930 . S
H902 C918 0.931 . S
C903 H891 0.929 . S
C903 C897 1.390 . S
C903 C900 1.386 . S
C904 C899 1.490 . S
C904 C906 1.395 . S
C904 C907 1.403 . S
H905 C911 0.930 . S
C906 H892 0.930 . S
C906 C904 1.395 . S
C906 C909 1.403 . S
C907 C904 1.403 . S
C907 C908 1.524 . S
C907 C911 1.400 . S
C908 H893 0.960 . S
C908 H894 0.960 . S
C908 H895 0.960 . S
C908 C907 1.524 . S
C909 C906 1.403 . S
C909 C910 1.392 . S
C909 C913 1.495 . S
C910 C909 1.392 . S
C910 C911 1.385 . S
C910 C912 1.478 . S
C911 H905 0.930 . S
C911 C907 1.400 . S
C911 C910 1.385 . S
C912 C910 1.478 . S
C912 C914 1.381 . S
C912 C918 1.383 . S
C913 C909 1.495 . S
C913 H919 0.959 . S
C913 H920 0.961 . S
C913 H921 0.960 . S
C914 C912 1.381 . S
C914 C915 1.394 . S
C914 H922 0.930 . S
C915 C914 1.394 . S
C915 C916 1.383 . S
C915 H923 0.929 . S
C916 C915 1.383 . S
C916 C917 1.377 . S
C917 H901 0.930 . S
C917 C916 1.377 . S
C917 C918 1.379 . S
C918 H902 0.931 . S
C918 C912 1.383 . S
C918 C917 1.379 . S
H919 C913 0.959 . S
H920 C913 0.961 . S
H921 C913 0.960 . S
H922 C914 0.930 . S
H923 C915 0.929 . S
H924 C932 0.929 . S
H925 C934 0.930 . S
H926 C936 0.930 . S
H927 C939 0.929 . S
H928 C942 0.930 . S
H929 C944 0.944 1_655 S
H930 C944 0.960 . S
H931 C944 0.960 . S
C932 H924 0.929 . S
C932 C933 1.377 . S
C932 C934 1.384 . S
C933 C932 1.377 . S
C933 C939 1.390 . S
C934 H925 0.930 . S
C934 C932 1.384 . S
C934 C935 1.372 . S
C935 C934 1.372 . S
C935 C936 1.400 . S
C935 C940 1.557 . S
C936 H926 0.930 . S
C936 C935 1.400 . S
C936 C939 1.386 . S
H937 C953 0.930 . S
H938 C954 0.931 . S
C939 H927 0.929 . S
C939 C933 1.390 . S
C939 C936 1.386 . S
C940 C935 1.557 . S
C940 C942 1.353 1_455 S
C940 C943 1.380 1_455 S
H941 C947 0.930 . S
C942 H928 0.930 . S
C942 C940 1.353 1_655 S
C942 C945 1.403 . S
C943 C940 1.380 1_655 S
C943 C944 1.524 1_655 S
C943 C947 1.400 . S
C944 H929 0.944 1_455 S
C944 H930 0.960 . S
C944 H931 0.960 . S
C944 C943 1.524 1_455 S
C945 C942 1.403 . S
C945 C946 1.392 . S
C945 C949 1.495 . S
C946 C945 1.392 . S
C946 C947 1.385 . S
C946 C948 1.478 . S
C947 H941 0.930 . S
C947 C943 1.400 . S
C947 C946 1.385 . S
C948 C946 1.478 . S
C948 C950 1.381 . S
C948 C954 1.383 . S
C949 C945 1.495 . S
C949 H955 0.959 . S
C949 H956 0.961 . S
C949 H957 0.960 . S
C950 C948 1.381 . S
C950 C951 1.394 . S
C950 H958 0.930 . S
C951 C950 1.394 . S
C951 C952 1.383 . S
C951 H959 0.929 . S
C952 C951 1.383 . S
C952 C953 1.377 . S
C953 H937 0.930 . S
C953 C952 1.377 . S
C953 C954 1.379 . S
C954 H938 0.931 . S
C954 C948 1.383 . S
C954 C953 1.379 . S
H955 C949 0.959 . S
H956 C949 0.961 . S
H957 C949 0.960 . S
H958 C950 0.930 . S
H959 C951 0.929 . S
H960 C968 0.929 . S
H961 C970 0.930 . S
H962 C972 0.930 . S
H963 C975 0.929 . S
H964 C978 0.930 . S
H965 C980 0.960 . S
H966 C980 0.960 . S
H967 C980 0.960 . S
C968 H960 0.929 . S
C968 C969 1.377 . S
C968 C970 1.384 . S
C969 C968 1.377 . S
C969 C975 1.390 . S
C970 H961 0.930 . S
C970 C968 1.384 . S
C970 C971 1.372 . S
C971 C970 1.372 . S
C971 C972 1.400 . S
C971 C976 1.490 . S
C972 H962 0.930 . S
C972 C971 1.400 . S
C972 C975 1.386 . S
H973 C989 0.930 . S
H974 C990 0.931 . S
C975 H963 0.929 . S
C975 C969 1.390 . S
C975 C972 1.386 . S
C976 C971 1.490 . S
C976 C978 1.395 . S
C976 C979 1.403 . S
H977 C983 0.930 . S
C978 H964 0.930 . S
C978 C976 1.395 . S
C978 C981 1.403 . S
C979 C976 1.403 . S
C979 C980 1.524 . S
C979 C983 1.400 . S
C980 H965 0.960 . S
C980 H966 0.960 . S
C980 H967 0.960 . S
C980 C979 1.524 . S
C981 C978 1.403 . S
C981 C982 1.392 . S
C981 C985 1.495 . S
C982 C981 1.392 . S
C982 C983 1.385 . S
C982 C984 1.478 . S
C983 H977 0.930 . S
C983 C979 1.400 . S
C983 C982 1.385 . S
C984 C982 1.478 . S
C984 C986 1.381 . S
C984 C990 1.383 . S
C985 C981 1.495 . S
C985 H991 0.959 . S
C985 H992 0.961 . S
C985 H993 0.960 . S
C986 C984 1.381 . S
C986 C987 1.394 . S
C986 H994 0.930 . S
C987 C986 1.394 . S
C987 C988 1.383 . S
C987 H995 0.929 . S
C988 C987 1.383 . S
C988 C989 1.377 . S
C989 H973 0.930 . S
C989 C988 1.377 . S
C989 C990 1.379 . S
C990 H974 0.931 . S
C990 C984 1.383 . S
C990 C989 1.379 . S
H991 C985 0.959 . S
H992 C985 0.961 . S
H993 C985 0.960 . S
H994 C986 0.930 . S
H995 C987 0.929 . S
H996 C1004 0.929 . S
H997 C1006 0.930 . S
H998 C1008 0.930 . S
H999 C1011 0.929 . S
H1000 C1014 0.930 . S
H1001 C1016 0.960 . S
H1002 C1016 0.960 . S
H1003 C1016 0.960 . S
C1004 H996 0.929 . S
C1004 C1005 1.377 . S
C1004 C1006 1.384 . S
C1005 C1004 1.377 . S
C1005 C1011 1.390 . S
C1006 H997 0.930 . S
C1006 C1004 1.384 . S
C1006 C1007 1.372 . S
C1007 C1006 1.372 . S
C1007 C1008 1.400 . S
C1007 C1012 1.490 . S
C1008 H998 0.930 . S
C1008 C1007 1.400 . S
C1008 C1011 1.386 . S
H1009 C1025 0.930 . S
H1010 C1026 0.931 . S
C1011 H999 0.929 . S
C1011 C1005 1.390 . S
C1011 C1008 1.386 . S
C1012 C1007 1.490 . S
C1012 C1014 1.395 . S
C1012 C1015 1.403 . S
H1013 C1019 0.930 . S
C1014 H1000 0.930 . S
C1014 C1012 1.395 . S
C1014 C1017 1.403 . S
C1015 C1012 1.403 . S
C1015 C1016 1.524 . S
C1015 C1019 1.400 . S
C1016 H1001 0.960 . S
C1016 H1002 0.960 . S
C1016 H1003 0.960 . S
C1016 C1015 1.524 . S
C1017 C1014 1.403 . S
C1017 C1018 1.392 . S
C1017 C1021 1.495 . S
C1018 C1017 1.392 . S
C1018 C1019 1.385 . S
C1018 C1020 1.478 . S
C1019 H1013 0.930 . S
C1019 C1015 1.400 . S
C1019 C1018 1.385 . S
C1020 C1018 1.478 . S
C1020 C1022 1.381 . S
C1020 C1026 1.383 . S
C1021 C1017 1.495 . S
C1021 H1027 0.959 . S
C1021 H1028 0.961 . S
C1021 H1029 0.960 . S
C1022 C1020 1.381 . S
C1022 C1023 1.394 . S
C1022 H1030 0.930 . S
C1023 C1022 1.394 . S
C1023 C1024 1.383 . S
C1023 H1031 0.929 . S
C1024 C1023 1.383 . S
C1024 C1025 1.377 . S
C1025 H1009 0.930 . S
C1025 C1024 1.377 . S
C1025 C1026 1.379 . S
C1026 H1010 0.931 . S
C1026 C1020 1.383 . S
C1026 C1025 1.379 . S
H1027 C1021 0.959 . S
H1028 C1021 0.961 . S
H1029 C1021 0.960 . S
H1030 C1022 0.930 . S
H1031 C1023 0.929 . S
H1032 C1040 0.929 . S
H1033 C1042 0.930 . S
H1034 C1044 0.930 . S
H1035 C1047 0.929 . S
H1036 C1050 0.930 . S
H1037 C1052 0.960 . S
H1038 C1052 0.960 . S
H1039 C1052 0.960 . S
C1040 H1032 0.929 . S
C1040 C1041 1.377 . S
C1040 C1042 1.384 . S
C1041 C1040 1.377 . S
C1041 C1047 1.390 . S
C1042 H1033 0.930 . S
C1042 C1040 1.384 . S
C1042 C1043 1.372 . S
C1043 C1042 1.372 . S
C1043 C1044 1.400 . S
C1043 C1048 1.490 . S
C1044 H1034 0.930 . S
C1044 C1043 1.400 . S
C1044 C1047 1.386 . S
H1045 C1061 0.930 . S
H1046 C1062 0.931 . S
C1047 H1035 0.929 . S
C1047 C1041 1.390 . S
C1047 C1044 1.386 . S
C1048 C1043 1.490 . S
C1048 C1050 1.395 . S
C1048 C1051 1.403 . S
H1049 C1055 0.930 . S
C1050 H1036 0.930 . S
C1050 C1048 1.395 . S
C1050 C1053 1.403 . S
C1051 C1048 1.403 . S
C1051 C1052 1.524 . S
C1051 C1055 1.400 . S
C1052 H1037 0.960 . S
C1052 H1038 0.960 . S
C1052 H1039 0.960 . S
C1052 C1051 1.524 . S
C1053 C1050 1.403 . S
C1053 C1054 1.392 . S
C1053 C1057 1.495 . S
C1054 C1053 1.392 . S
C1054 C1055 1.385 . S
C1054 C1056 1.478 . S
C1055 H1049 0.930 . S
C1055 C1051 1.400 . S
C1055 C1054 1.385 . S
C1056 C1054 1.478 . S
C1056 C1058 1.381 . S
C1056 C1062 1.383 . S
C1057 C1053 1.495 . S
C1057 H1063 0.959 . S
C1057 H1064 0.961 . S
C1057 H1065 0.960 . S
C1058 C1056 1.381 . S
C1058 C1059 1.394 . S
C1058 H1066 0.930 . S
C1059 C1058 1.394 . S
C1059 C1060 1.383 . S
C1059 H1067 0.929 . S
C1060 C1059 1.383 . S
C1060 C1061 1.377 . S
C1061 H1045 0.930 . S
C1061 C1060 1.377 . S
C1061 C1062 1.379 . S
C1062 H1046 0.931 . S
C1062 C1056 1.383 . S
C1062 C1061 1.379 . S
H1063 C1057 0.959 . S
H1064 C1057 0.961 . S
H1065 C1057 0.960 . S
H1066 C1058 0.930 . S
H1067 C1059 0.929 . S
H1068 C1076 0.929 . S
H1069 C1078 0.930 . S
H1070 C1080 0.930 . S
H1071 C1083 0.929 . S
H1072 C1086 0.930 . S
H1073 C1088 0.960 1_554 S
H1074 C1088 0.960 . S
H1075 C1088 0.960 . S
C1076 H1068 0.929 . S
C1076 C1077 1.377 . S
C1076 C1078 1.384 . S
C1077 C1076 1.377 . S
C1077 C1083 1.390 . S
C1078 H1069 0.930 . S
C1078 C1076 1.384 . S
C1078 C1079 1.372 . S
C1079 C1078 1.372 . S
C1079 C1080 1.400 . S
C1079 C1084 1.490 1_556 S
C1080 H1070 0.930 . S
C1080 C1079 1.400 . S
C1080 C1083 1.386 . S
H1081 C1097 0.930 . S
H1082 C1098 0.931 . S
C1083 H1071 0.929 . S
C1083 C1077 1.390 . S
C1083 C1080 1.386 . S
C1084 C1079 1.490 1_554 S
C1084 C1086 1.395 . S
C1084 C1087 1.403 . S
H1085 C1091 0.930 . S
C1086 H1072 0.930 . S
C1086 C1084 1.395 . S
C1086 C1089 1.403 . S
C1087 C1084 1.403 . S
C1087 C1088 1.524 1_554 S
C1087 C1091 1.400 . S
C1088 H1073 0.960 1_556 S
C1088 H1074 0.960 . S
C1088 H1075 0.960 . S
C1088 C1087 1.524 1_556 S
C1089 C1086 1.403 . S
C1089 C1090 1.392 . S
C1089 C1093 1.495 . S
C1090 C1089 1.392 . S
C1090 C1091 1.385 . S
C1090 C1092 1.478 . S
C1091 H1085 0.930 . S
C1091 C1087 1.400 . S
C1091 C1090 1.385 . S
C1092 C1090 1.478 . S
C1092 C1094 1.381 . S
C1092 C1098 1.383 . S
C1093 C1089 1.495 . S
C1093 H1099 0.959 . S
C1093 H1100 0.961 . S
C1093 H1101 0.960 . S
C1094 C1092 1.381 . S
C1094 C1095 1.394 . S
C1094 H1102 0.930 . S
C1095 C1094 1.394 . S
C1095 C1096 1.383 . S
C1095 H1103 0.929 . S
C1096 C1095 1.383 . S
C1096 C1097 1.377 . S
C1097 H1081 0.930 . S
C1097 C1096 1.377 . S
C1097 C1098 1.379 . S
C1098 H1082 0.931 . S
C1098 C1092 1.383 . S
C1098 C1097 1.379 . S
H1099 C1093 0.959 . S
H1100 C1093 0.961 . S
H1101 C1093 0.960 . S
H1102 C1094 0.930 . S
H1103 C1095 0.929 . S
H1104 C1112 0.929 . S
H1105 C1114 0.930 . S
H1106 C1116 0.930 . S
H1107 C1119 0.929 . S
H1108 C1122 0.930 . S
H1109 C1124 0.960 . S
H1110 C1124 0.960 . S
H1111 C1124 0.960 . S
C1112 H1104 0.929 . S
C1112 C1113 1.377 . S
C1112 C1114 1.384 . S
C1113 C1112 1.377 . S
C1113 C1119 1.390 . S
C1114 H1105 0.930 . S
C1114 C1112 1.384 . S
C1114 C1115 1.372 . S
C1115 C1114 1.372 . S
C1115 C1116 1.400 . S
C1115 C1120 1.490 . S
C1116 H1106 0.930 . S
C1116 C1115 1.400 . S
C1116 C1119 1.386 . S
H1117 C1133 0.930 . S
H1118 C1134 0.931 . S
C1119 H1107 0.929 . S
C1119 C1113 1.390 . S
C1119 C1116 1.386 . S
C1120 C1115 1.490 . S
C1120 C1122 1.395 . S
C1120 C1123 1.403 . S
H1121 C1127 0.930 . S
C1122 H1108 0.930 . S
C1122 C1120 1.395 . S
C1122 C1125 1.403 . S
C1123 C1120 1.403 . S
C1123 C1124 1.524 . S
C1123 C1127 1.400 . S
C1124 H1109 0.960 . S
C1124 H1110 0.960 . S
C1124 H1111 0.960 . S
C1124 C1123 1.524 . S
C1125 C1122 1.403 . S
C1125 C1126 1.392 . S
C1125 C1129 1.495 . S
C1126 C1125 1.392 . S
C1126 C1127 1.385 . S
C1126 C1128 1.478 . S
C1127 H1121 0.930 . S
C1127 C1123 1.400 . S
C1127 C1126 1.385 . S
C1128 C1126 1.478 . S
C1128 C1130 1.381 . S
C1128 C1134 1.383 . S
C1129 C1125 1.495 . S
C1129 H1135 0.959 . S
C1129 H1136 0.961 . S
C1129 H1137 0.960 . S
C1130 C1128 1.381 . S
C1130 C1131 1.394 . S
C1130 H1138 0.930 . S
C1131 C1130 1.394 . S
C1131 C1132 1.383 . S
C1131 H1139 0.929 . S
C1132 C1131 1.383 . S
C1132 C1133 1.377 . S
C1133 H1117 0.930 . S
C1133 C1132 1.377 . S
C1133 C1134 1.379 . S
C1134 H1118 0.931 . S
C1134 C1128 1.383 . S
C1134 C1133 1.379 . S
H1135 C1129 0.959 . S
H1136 C1129 0.961 . S
H1137 C1129 0.960 . S
H1138 C1130 0.930 . S
H1139 C1131 0.929 . S
H1140 C1148 0.929 . S
H1141 C1150 0.930 . S
H1142 C1152 0.930 . S
H1143 C1155 0.929 . S
H1144 C1158 0.930 . S
H1145 C1160 0.960 . S
H1146 C1160 0.960 . S
H1147 C1160 0.960 . S
C1148 H1140 0.929 . S
C1148 C1149 1.377 . S
C1148 C1150 1.384 . S
C1149 C1148 1.377 . S
C1149 C1155 1.390 . S
C1150 H1141 0.930 . S
C1150 C1148 1.384 . S
C1150 C1151 1.372 . S
C1151 C1150 1.372 . S
C1151 C1152 1.400 . S
C1151 C1156 1.490 . S
C1152 H1142 0.930 . S
C1152 C1151 1.400 . S
C1152 C1155 1.386 . S
H1153 C1169 0.930 . S
H1154 C1170 0.931 . S
C1155 H1143 0.929 . S
C1155 C1149 1.390 . S
C1155 C1152 1.386 . S
C1156 C1151 1.490 . S
C1156 C1158 1.395 . S
C1156 C1159 1.403 . S
H1157 C1163 0.930 . S
C1158 H1144 0.930 . S
C1158 C1156 1.395 . S
C1158 C1161 1.403 . S
C1159 C1156 1.403 . S
C1159 C1160 1.524 . S
C1159 C1163 1.400 . S
C1160 H1145 0.960 . S
C1160 H1146 0.960 . S
C1160 H1147 0.960 . S
C1160 C1159 1.524 . S
C1161 C1158 1.403 . S
C1161 C1162 1.392 . S
C1161 C1165 1.495 . S
C1162 C1161 1.392 . S
C1162 C1163 1.385 . S
C1162 C1164 1.478 . S
C1163 H1157 0.930 . S
C1163 C1159 1.400 . S
C1163 C1162 1.385 . S
C1164 C1162 1.478 . S
C1164 C1166 1.381 . S
C1164 C1170 1.383 . S
C1165 C1161 1.495 . S
C1165 H1171 0.959 . S
C1165 H1172 0.961 . S
C1165 H1173 0.960 . S
C1166 C1164 1.381 . S
C1166 C1167 1.394 . S
C1166 H1174 0.930 . S
C1167 C1166 1.394 . S
C1167 C1168 1.383 . S
C1167 H1175 0.929 . S
C1168 C1167 1.383 . S
C1168 C1169 1.377 . S
C1169 H1153 0.930 . S
C1169 C1168 1.377 . S
C1169 C1170 1.379 . S
C1170 H1154 0.931 . S
C1170 C1164 1.383 . S
C1170 C1169 1.379 . S
H1171 C1165 0.959 . S
H1172 C1165 0.961 . S
H1173 C1165 0.960 . S
H1174 C1166 0.930 . S
H1175 C1167 0.929 . S
H1176 C1184 0.929 . S
H1177 C1186 0.930 . S
H1178 C1188 0.930 . S
H1179 C1191 0.929 . S
H1180 C1194 0.930 . S
H1181 C1196 0.960 . S
H1182 C1196 0.960 . S
H1183 C1196 0.960 . S
C1184 H1176 0.929 . S
C1184 C1185 1.377 . S
C1184 C1186 1.384 . S
C1185 C1184 1.377 . S
C1185 C1191 1.390 . S
C1186 H1177 0.930 . S
C1186 C1184 1.384 . S
C1186 C1187 1.372 . S
C1187 C1186 1.372 . S
C1187 C1188 1.400 . S
C1187 C1192 1.490 . S
C1188 H1178 0.930 . S
C1188 C1187 1.400 . S
C1188 C1191 1.386 . S
H1189 C1205 0.930 . S
H1190 C1206 0.931 . S
C1191 H1179 0.929 . S
C1191 C1185 1.390 . S
C1191 C1188 1.386 . S
C1192 C1187 1.490 . S
C1192 C1194 1.395 . S
C1192 C1195 1.403 . S
H1193 C1199 0.930 . S
C1194 H1180 0.930 . S
C1194 C1192 1.395 . S
C1194 C1197 1.403 . S
C1195 C1192 1.403 . S
C1195 C1196 1.524 . S
C1195 C1199 1.400 . S
C1196 H1181 0.960 . S
C1196 H1182 0.960 . S
C1196 H1183 0.960 . S
C1196 C1195 1.524 . S
C1197 C1194 1.403 . S
C1197 C1198 1.392 . S
C1197 C1201 1.495 . S
C1198 C1197 1.392 . S
C1198 C1199 1.385 . S
C1198 C1200 1.478 . S
C1199 H1193 0.930 . S
C1199 C1195 1.400 . S
C1199 C1198 1.385 . S
C1200 C1198 1.478 . S
C1200 C1202 1.381 . S
C1200 C1206 1.383 . S
C1201 C1197 1.495 . S
C1201 H1207 0.959 . S
C1201 H1208 0.961 . S
C1201 H1209 0.960 . S
C1202 C1200 1.381 . S
C1202 C1203 1.394 . S
C1202 H1210 0.930 . S
C1203 C1202 1.394 . S
C1203 C1204 1.383 . S
C1203 H1211 0.929 . S
C1204 C1203 1.383 . S
C1204 C1205 1.377 . S
C1205 H1189 0.930 . S
C1205 C1204 1.377 . S
C1205 C1206 1.379 . S
C1206 H1190 0.931 . S
C1206 C1200 1.383 . S
C1206 C1205 1.379 . S
H1207 C1201 0.959 . S
H1208 C1201 0.961 . S
H1209 C1201 0.960 . S
H1210 C1202 0.930 . S
H1211 C1203 0.929 . S
H1212 C1220 0.929 . S
H1213 C1222 0.930 . S
H1214 C1224 0.930 . S
H1215 C1227 0.929 . S
H1216 C1230 0.930 . S
H1217 C1232 0.994 . S
H1218 C1232 0.945 1_554 S
H1219 C1232 0.919 1_554 S
C1220 H1212 0.929 . S
C1220 C1221 1.377 . S
C1220 C1222 1.384 . S
C1221 C1220 1.377 . S
C1221 C1227 1.390 . S
C1222 H1213 0.930 . S
C1222 C1220 1.384 . S
C1222 C1223 1.372 . S
C1223 C1222 1.372 . S
C1223 C1224 1.400 . S
C1223 C1228 1.490 1_554 S
C1224 H1214 0.930 . S
C1224 C1223 1.400 . S
C1224 C1227 1.386 . S
H1225 C1241 0.930 . S
H1226 C1242 0.931 . S
C1227 H1215 0.929 . S
C1227 C1221 1.390 . S
C1227 C1224 1.386 . S
C1228 C1223 1.490 1_556 S
C1228 C1230 1.395 . S
C1228 C1231 1.403 . S
H1229 C1235 0.930 . S
C1230 H1216 0.930 . S
C1230 C1228 1.395 . S
C1230 C1233 1.403 . S
C1231 C1228 1.403 . S
C1231 C1232 1.550 . S
C1231 C1235 1.400 . S
C1232 H1217 0.994 . S
C1232 H1218 0.945 1_556 S
C1232 H1219 0.919 1_556 S
C1232 C1231 1.550 . S
C1233 C1230 1.403 . S
C1233 C1234 1.392 . S
C1233 C1237 1.495 . S
C1234 C1233 1.392 . S
C1234 C1235 1.385 . S
C1234 C1236 1.478 . S
C1235 H1229 0.930 . S
C1235 C1231 1.400 . S
C1235 C1234 1.385 . S
C1236 C1234 1.478 . S
C1236 C1238 1.381 . S
C1236 C1242 1.383 . S
C1237 C1233 1.495 . S
C1237 H1243 0.959 . S
C1237 H1244 0.961 . S
C1237 H1245 0.960 . S
C1238 C1236 1.381 . S
C1238 C1239 1.394 . S
C1238 H1246 0.930 . S
C1239 C1238 1.394 . S
C1239 C1240 1.383 . S
C1239 H1247 0.929 . S
C1240 C1239 1.383 . S
C1240 C1241 1.377 . S
C1241 H1225 0.930 . S
C1241 C1240 1.377 . S
C1241 C1242 1.379 . S
C1242 H1226 0.931 . S
C1242 C1236 1.383 . S
C1242 C1241 1.379 . S
H1243 C1237 0.959 . S
H1244 C1237 0.961 . S
H1245 C1237 0.960 . S
H1246 C1238 0.930 . S
H1247 C1239 0.929 . S
H1248 C1256 0.929 . S
H1249 C1258 0.930 . S
H1250 C1260 0.930 . S
H1251 C1263 0.929 . S
H1252 C1266 0.930 . S
H1253 C1268 0.960 . S
H1254 C1268 0.960 . S
H1255 C1268 0.960 . S
C1256 H1248 0.929 . S
C1256 C1257 1.377 . S
C1256 C1258 1.384 . S
C1257 C1256 1.377 . S
C1257 C1263 1.390 . S
C1258 H1249 0.930 . S
C1258 C1256 1.384 . S
C1258 C1259 1.372 . S
C1259 C1258 1.372 . S
C1259 C1260 1.400 . S
C1259 C1264 1.490 . S
C1260 H1250 0.930 . S
C1260 C1259 1.400 . S
C1260 C1263 1.386 . S
H1261 C1277 0.930 . S
H1262 C1278 0.931 . S
C1263 H1251 0.929 . S
C1263 C1257 1.390 . S
C1263 C1260 1.386 . S
C1264 C1259 1.490 . S
C1264 C1266 1.395 . S
C1264 C1267 1.403 . S
H1265 C1271 0.930 . S
C1266 H1252 0.930 . S
C1266 C1264 1.395 . S
C1266 C1269 1.403 . S
C1267 C1264 1.403 . S
C1267 C1268 1.524 . S
C1267 C1271 1.400 . S
C1268 H1253 0.960 . S
C1268 H1254 0.960 . S
C1268 H1255 0.960 . S
C1268 C1267 1.524 . S
C1269 C1266 1.403 . S
C1269 C1270 1.392 . S
C1269 C1273 1.495 . S
C1270 C1269 1.392 . S
C1270 C1271 1.385 . S
C1270 C1272 1.478 . S
C1271 H1265 0.930 . S
C1271 C1267 1.400 . S
C1271 C1270 1.385 . S
C1272 C1270 1.478 . S
C1272 C1274 1.381 . S
C1272 C1278 1.383 . S
C1273 C1269 1.495 . S
C1273 H1279 0.959 . S
C1273 H1280 0.961 . S
C1273 H1281 0.960 . S
C1274 C1272 1.381 . S
C1274 C1275 1.394 . S
C1274 H1282 0.930 . S
C1275 C1274 1.394 . S
C1275 C1276 1.383 . S
C1275 H1283 0.929 . S
C1276 C1275 1.383 . S
C1276 C1277 1.377 . S
C1277 H1261 0.930 . S
C1277 C1276 1.377 . S
C1277 C1278 1.379 . S
C1278 H1262 0.931 . S
C1278 C1272 1.383 . S
C1278 C1277 1.379 . S
H1279 C1273 0.959 . S
H1280 C1273 0.961 . S
H1281 C1273 0.960 . S
H1282 C1274 0.930 . S
H1283 C1275 0.929 . S
H1284 C1292 0.929 . S
H1285 C1294 0.930 . S
H1286 C1296 0.930 . S
H1287 C1299 0.929 . S
H1288 C1302 0.930 . S
H1289 C1304 0.960 . S
H1290 C1304 0.960 . S
H1291 C1304 0.960 . S
C1292 H1284 0.929 . S
C1292 C1293 1.377 . S
C1292 C1294 1.384 . S
C1293 C1292 1.377 . S
C1293 C1299 1.390 . S
C1294 H1285 0.930 . S
C1294 C1292 1.384 . S
C1294 C1295 1.372 . S
C1295 C1294 1.372 . S
C1295 C1296 1.400 . S
C1295 C1300 1.490 . S
C1296 H1286 0.930 . S
C1296 C1295 1.400 . S
C1296 C1299 1.386 . S
H1297 C1313 0.930 . S
H1298 C1314 0.931 . S
C1299 H1287 0.929 . S
C1299 C1293 1.390 . S
C1299 C1296 1.386 . S
C1300 C1295 1.490 . S
C1300 C1302 1.395 . S
C1300 C1303 1.403 . S
H1301 C1307 0.930 . S
C1302 H1288 0.930 . S
C1302 C1300 1.395 . S
C1302 C1305 1.403 . S
C1303 C1300 1.403 . S
C1303 C1304 1.524 . S
C1303 C1307 1.400 . S
C1304 H1289 0.960 . S
C1304 H1290 0.960 . S
C1304 H1291 0.960 . S
C1304 C1303 1.524 . S
C1305 C1302 1.403 . S
C1305 C1306 1.392 . S
C1305 C1309 1.495 . S
C1306 C1305 1.392 . S
C1306 C1307 1.385 . S
C1306 C1308 1.478 . S
C1307 H1301 0.930 . S
C1307 C1303 1.400 . S
C1307 C1306 1.385 . S
C1308 C1306 1.478 . S
C1308 C1310 1.381 . S
C1308 C1314 1.383 . S
C1309 C1305 1.495 . S
C1309 H1315 0.959 . S
C1309 H1316 0.961 . S
C1309 H1317 0.960 . S
C1310 C1308 1.381 . S
C1310 C1311 1.394 . S
C1310 H1318 0.930 . S
C1311 C1310 1.394 . S
C1311 C1312 1.383 . S
C1311 H1319 0.929 . S
C1312 C1311 1.383 . S
C1312 C1313 1.377 . S
C1313 H1297 0.930 . S
C1313 C1312 1.377 . S
C1313 C1314 1.379 . S
C1314 H1298 0.931 . S
C1314 C1308 1.383 . S
C1314 C1313 1.379 . S
H1315 C1309 0.959 . S
H1316 C1309 0.961 . S
H1317 C1309 0.960 . S
H1318 C1310 0.930 . S
H1319 C1311 0.929 . S
H1320 C1328 0.929 . S
H1321 C1330 0.930 . S
H1322 C1332 0.930 . S
H1323 C1335 0.929 . S
H1324 C1338 0.930 . S
H1325 C1340 0.960 . S
H1326 C1340 0.960 . S
H1327 C1340 0.960 . S
C1328 H1320 0.929 . S
C1328 C1329 1.377 . S
C1328 C1330 1.384 . S
C1329 C1328 1.377 . S
C1329 C1335 1.390 . S
C1330 H1321 0.930 . S
C1330 C1328 1.384 . S
C1330 C1331 1.372 . S
C1331 C1330 1.372 . S
C1331 C1332 1.400 . S
C1331 C1336 1.490 . S
C1332 H1322 0.930 . S
C1332 C1331 1.400 . S
C1332 C1335 1.386 . S
H1333 C1349 0.930 . S
H1334 C1350 0.931 . S
C1335 H1323 0.929 . S
C1335 C1329 1.390 . S
C1335 C1332 1.386 . S
C1336 C1331 1.490 . S
C1336 C1338 1.395 . S
C1336 C1339 1.403 . S
H1337 C1343 0.930 . S
C1338 H1324 0.930 . S
C1338 C1336 1.395 . S
C1338 C1341 1.403 . S
C1339 C1336 1.403 . S
C1339 C1340 1.524 . S
C1339 C1343 1.400 . S
C1340 H1325 0.960 . S
C1340 H1326 0.960 . S
C1340 H1327 0.960 . S
C1340 C1339 1.524 . S
C1341 C1338 1.403 . S
C1341 C1342 1.392 . S
C1341 C1345 1.495 . S
C1342 C1341 1.392 . S
C1342 C1343 1.385 . S
C1342 C1344 1.478 . S
C1343 H1337 0.930 . S
C1343 C1339 1.400 . S
C1343 C1342 1.385 . S
C1344 C1342 1.478 . S
C1344 C1346 1.381 . S
C1344 C1350 1.383 . S
C1345 C1341 1.495 . S
C1345 H1351 0.959 . S
C1345 H1352 0.961 . S
C1345 H1353 0.960 . S
C1346 C1344 1.381 . S
C1346 C1347 1.394 . S
C1346 H1354 0.930 . S
C1347 C1346 1.394 . S
C1347 C1348 1.383 . S
C1347 H1355 0.929 . S
C1348 C1347 1.383 . S
C1348 C1349 1.377 . S
C1349 H1333 0.930 . S
C1349 C1348 1.377 . S
C1349 C1350 1.379 . S
C1350 H1334 0.931 . S
C1350 C1344 1.383 . S
C1350 C1349 1.379 . S
H1351 C1345 0.959 . S
H1352 C1345 0.961 . S
H1353 C1345 0.960 . S
H1354 C1346 0.930 . S
H1355 C1347 0.929 . S
H1356 C1364 0.929 . S
H1357 C1366 0.930 . S
H1358 C1368 0.930 . S
H1359 C1371 0.929 . S
H1360 C1374 0.930 . S
H1361 C1376 0.960 . S
H1362 C1376 0.960 . S
H1363 C1376 0.960 . S
C1364 H1356 0.929 . S
C1364 C1365 1.377 . S
C1364 C1366 1.384 . S
C1365 C1364 1.377 . S
C1365 C1371 1.390 . S
C1366 H1357 0.930 . S
C1366 C1364 1.384 . S
C1366 C1367 1.372 . S
C1367 C1366 1.372 . S
C1367 C1368 1.400 . S
C1367 C1372 1.490 . S
C1368 H1358 0.930 . S
C1368 C1367 1.400 . S
C1368 C1371 1.386 . S
H1369 C1385 0.930 . S
H1370 C1386 0.931 . S
C1371 H1359 0.929 . S
C1371 C1365 1.390 . S
C1371 C1368 1.386 . S
C1372 C1367 1.490 . S
C1372 C1374 1.395 . S
C1372 C1375 1.403 . S
H1373 C1379 0.930 . S
C1374 H1360 0.930 . S
C1374 C1372 1.395 . S
C1374 C1377 1.403 . S
C1375 C1372 1.403 . S
C1375 C1376 1.524 . S
C1375 C1379 1.400 . S
C1376 H1361 0.960 . S
C1376 H1362 0.960 . S
C1376 H1363 0.960 . S
C1376 C1375 1.524 . S
C1377 C1374 1.403 . S
C1377 C1378 1.392 . S
C1377 C1381 1.495 . S
C1378 C1377 1.392 . S
C1378 C1379 1.385 . S
C1378 C1380 1.478 . S
C1379 H1373 0.930 . S
C1379 C1375 1.400 . S
C1379 C1378 1.385 . S
C1380 C1378 1.478 . S
C1380 C1382 1.381 . S
C1380 C1386 1.383 . S
C1381 C1377 1.495 . S
C1381 H1387 0.959 . S
C1381 H1388 0.961 . S
C1381 H1389 0.960 . S
C1382 C1380 1.381 . S
C1382 C1383 1.394 . S
C1382 H1390 0.930 . S
C1383 C1382 1.394 . S
C1383 C1384 1.383 . S
C1383 H1391 0.929 . S
C1384 C1383 1.383 . S
C1384 C1385 1.377 . S
C1385 H1369 0.930 . S
C1385 C1384 1.377 . S
C1385 C1386 1.379 . S
C1386 H1370 0.931 . S
C1386 C1380 1.383 . S
C1386 C1385 1.379 . S
H1387 C1381 0.959 . S
H1388 C1381 0.961 . S
H1389 C1381 0.960 . S
H1390 C1382 0.930 . S
H1391 C1383 0.929 . S
H1392 C1400 0.929 . S
H1393 C1402 0.930 . S
H1394 C1404 0.930 . S
H1395 C1407 0.929 . S
H1396 C1410 0.930 . S
H1397 C1412 0.960 . S
H1398 C1412 0.960 . S
H1399 C1412 0.960 . S
C1400 H1392 0.929 . S
C1400 C1401 1.377 . S
C1400 C1402 1.384 . S
C1401 C1400 1.377 . S
C1401 C1407 1.390 . S
C1402 H1393 0.930 . S
C1402 C1400 1.384 . S
C1402 C1403 1.372 . S
C1403 C1402 1.372 . S
C1403 C1404 1.400 . S
C1403 C1408 1.490 . S
C1404 H1394 0.930 . S
C1404 C1403 1.400 . S
C1404 C1407 1.386 . S
H1405 C1421 0.930 . S
H1406 C1422 0.931 . S
C1407 H1395 0.929 . S
C1407 C1401 1.390 . S
C1407 C1404 1.386 . S
C1408 C1403 1.490 . S
C1408 C1410 1.395 . S
C1408 C1411 1.403 . S
H1409 C1415 0.930 . S
C1410 H1396 0.930 . S
C1410 C1408 1.395 . S
C1410 C1413 1.403 . S
C1411 C1408 1.403 . S
C1411 C1412 1.524 . S
C1411 C1415 1.400 . S
C1412 H1397 0.960 . S
C1412 H1398 0.960 . S
C1412 H1399 0.960 . S
C1412 C1411 1.524 . S
C1413 C1410 1.403 . S
C1413 C1414 1.392 . S
C1413 C1417 1.495 1_565 S
C1414 C1413 1.392 . S
C1414 C1415 1.385 . S
C1414 C1416 1.478 1_565 S
C1415 H1409 0.930 . S
C1415 C1411 1.400 . S
C1415 C1414 1.385 . S
C1416 C1414 1.478 1_545 S
C1416 C1418 1.381 . S
C1416 C1422 1.383 . S
C1417 C1413 1.495 1_545 S
C1417 H1423 0.959 1_545 S
C1417 H1424 0.961 . S
C1417 H1425 0.960 . S
C1418 C1416 1.381 . S
C1418 C1419 1.394 . S
C1418 H1426 0.930 . S
C1419 C1418 1.394 . S
C1419 C1420 1.383 . S
C1419 H1427 0.929 . S
C1420 C1419 1.383 . S
C1420 C1421 1.377 . S
C1421 H1405 0.930 . S
C1421 C1420 1.377 . S
C1421 C1422 1.379 . S
C1422 H1406 0.931 . S
C1422 C1416 1.383 . S
C1422 C1421 1.379 . S
H1423 C1417 0.959 1_565 S
H1424 C1417 0.961 . S
H1425 C1417 0.960 . S
H1426 C1418 0.930 . S
H1427 C1419 0.929 . S
H1428 C1436 0.929 . S
H1429 C1438 0.930 . S
H1430 C1440 0.930 . S
H1431 C1443 0.929 . S
H1432 C1446 0.930 . S
H1433 C1448 0.960 . S
H1434 C1448 0.960 . S
H1435 C1448 0.960 . S
C1436 H1428 0.929 . S
C1436 C1437 1.377 . S
C1436 C1438 1.384 . S
C1437 C1436 1.377 . S
C1437 C1443 1.390 . S
C1438 H1429 0.930 . S
C1438 C1436 1.384 . S
C1438 C1439 1.372 . S
C1439 C1438 1.372 . S
C1439 C1440 1.400 . S
C1439 C1444 1.490 . S
C1440 H1430 0.930 . S
C1440 C1439 1.400 . S
C1440 C1443 1.386 . S
H1441 C1457 0.930 . S
H1442 C1458 0.931 . S
C1443 H1431 0.929 . S
C1443 C1437 1.390 . S
C1443 C1440 1.386 . S
C1444 C1439 1.490 . S
C1444 C1446 1.395 . S
C1444 C1447 1.403 . S
H1445 C1451 0.930 . S
C1446 H1432 0.930 . S
C1446 C1444 1.395 . S
C1446 C1449 1.403 . S
C1447 C1444 1.403 . S
C1447 C1448 1.524 . S
C1447 C1451 1.400 . S
C1448 H1433 0.960 . S
C1448 H1434 0.960 . S
C1448 H1435 0.960 . S
C1448 C1447 1.524 . S
C1449 C1446 1.403 . S
C1449 C1450 1.392 . S
C1449 C1453 1.495 . S
C1450 C1449 1.392 . S
C1450 C1451 1.385 . S
C1450 C1452 1.478 . S
C1451 H1445 0.930 . S
C1451 C1447 1.400 . S
C1451 C1450 1.385 . S
C1452 C1450 1.478 . S
C1452 C1454 1.381 . S
C1452 C1458 1.383 . S
C1453 C1449 1.495 . S
C1453 H1459 0.959 . S
C1453 H1460 0.961 . S
C1453 H1461 0.960 . S
C1454 C1452 1.381 . S
C1454 C1455 1.394 . S
C1454 H1462 0.930 . S
C1455 C1454 1.394 . S
C1455 C1456 1.383 . S
C1455 H1463 0.929 . S
C1456 C1455 1.383 . S
C1456 C1457 1.377 . S
C1457 H1441 0.930 . S
C1457 C1456 1.377 . S
C1457 C1458 1.379 . S
C1458 H1442 0.931 . S
C1458 C1452 1.383 . S
C1458 C1457 1.379 . S
H1459 C1453 0.959 . S
H1460 C1453 0.961 . S
H1461 C1453 0.960 . S
H1462 C1454 0.930 . S
H1463 C1455 0.929 . S
H1464 C1472 0.929 . S
H1465 C1474 0.930 . S
H1466 C1476 0.930 . S
H1467 C1479 0.929 . S
H1468 C1482 0.930 . S
H1469 C1484 0.960 . S
H1470 C1484 0.960 . S
H1471 C1484 0.960 . S
C1472 H1464 0.929 . S
C1472 C1473 1.377 . S
C1472 C1474 1.384 . S
C1473 C1472 1.377 . S
C1473 C1479 1.390 . S
C1474 H1465 0.930 . S
C1474 C1472 1.384 . S
C1474 C1475 1.372 . S
C1475 C1474 1.372 . S
C1475 C1476 1.400 . S
C1475 C1480 1.490 . S
C1476 H1466 0.930 . S
C1476 C1475 1.400 . S
C1476 C1479 1.386 . S
H1477 C1493 0.930 . S
H1478 C1494 0.931 . S
C1479 H1467 0.929 . S
C1479 C1473 1.390 . S
C1479 C1476 1.386 . S
C1480 C1475 1.490 . S
C1480 C1482 1.395 . S
C1480 C1483 1.403 . S
H1481 C1487 0.930 . S
C1482 H1468 0.930 . S
C1482 C1480 1.395 . S
C1482 C1485 1.403 . S
C1483 C1480 1.403 . S
C1483 C1484 1.524 . S
C1483 C1487 1.400 . S
C1484 H1469 0.960 . S
C1484 H1470 0.960 . S
C1484 H1471 0.960 . S
C1484 C1483 1.524 . S
C1485 C1482 1.403 . S
C1485 C1486 1.392 . S
C1485 C1489 1.495 . S
C1486 C1485 1.392 . S
C1486 C1487 1.385 . S
C1486 C1488 1.478 . S
C1487 H1481 0.930 . S
C1487 C1483 1.400 . S
C1487 C1486 1.385 . S
C1488 C1486 1.478 . S
C1488 C1490 1.381 . S
C1488 C1494 1.383 . S
C1489 C1485 1.495 . S
C1489 H1495 0.959 . S
C1489 H1496 0.961 . S
C1489 H1497 0.960 . S
C1490 C1488 1.381 . S
C1490 C1491 1.394 . S
C1490 H1498 0.930 . S
C1491 C1490 1.394 . S
C1491 C1492 1.383 . S
C1491 H1499 0.929 . S
C1492 C1491 1.383 . S
C1492 C1493 1.377 . S
C1493 H1477 0.930 . S
C1493 C1492 1.377 . S
C1493 C1494 1.379 . S
C1494 H1478 0.931 . S
C1494 C1488 1.383 . S
C1494 C1493 1.379 . S
H1495 C1489 0.959 . S
H1496 C1489 0.961 . S
H1497 C1489 0.960 . S
H1498 C1490 0.930 . S
H1499 C1491 0.929 . S
H1500 C1508 0.929 . S
H1501 C1510 0.930 . S
H1502 C1512 0.930 . S
H1503 C1515 0.929 . S
H1504 C1518 0.930 . S
H1505 C1520 0.960 . S
H1506 C1520 0.960 . S
H1507 C1520 0.960 . S
C1508 H1500 0.929 . S
C1508 C1509 1.377 . S
C1508 C1510 1.384 . S
C1509 C1508 1.377 . S
C1509 C1515 1.390 . S
C1510 H1501 0.930 . S
C1510 C1508 1.384 . S
C1510 C1511 1.372 . S
C1511 C1510 1.372 . S
C1511 C1512 1.400 . S
C1511 C1516 1.490 . S
C1512 H1502 0.930 . S
C1512 C1511 1.400 . S
C1512 C1515 1.386 . S
H1513 C1529 0.930 . S
H1514 C1530 0.931 . S
C1515 H1503 0.929 . S
C1515 C1509 1.390 . S
C1515 C1512 1.386 . S
C1516 C1511 1.490 . S
C1516 C1518 1.395 . S
C1516 C1519 1.403 . S
H1517 C1523 0.930 . S
C1518 H1504 0.930 . S
C1518 C1516 1.395 . S
C1518 C1521 1.403 . S
C1519 C1516 1.403 . S
C1519 C1520 1.524 . S
C1519 C1523 1.400 . S
C1520 H1505 0.960 . S
C1520 H1506 0.960 . S
C1520 H1507 0.960 . S
C1520 C1519 1.524 . S
C1521 C1518 1.403 . S
C1521 C1522 1.392 . S
C1521 C1525 1.495 . S
C1522 C1521 1.392 . S
C1522 C1523 1.385 . S
C1522 C1524 1.478 . S
C1523 H1517 0.930 . S
C1523 C1519 1.400 . S
C1523 C1522 1.385 . S
C1524 C1522 1.478 . S
C1524 C1526 1.381 . S
C1524 C1530 1.383 . S
C1525 C1521 1.495 . S
C1525 H1531 0.959 . S
C1525 H1532 0.961 . S
C1525 H1533 0.960 . S
C1526 C1524 1.381 . S
C1526 C1527 1.394 . S
C1526 H1534 0.930 . S
C1527 C1526 1.394 . S
C1527 C1528 1.383 . S
C1527 H1535 0.929 . S
C1528 C1527 1.383 . S
C1528 C1529 1.377 . S
C1529 H1513 0.930 . S
C1529 C1528 1.377 . S
C1529 C1530 1.379 . S
C1530 H1514 0.931 . S
C1530 C1524 1.383 . S
C1530 C1529 1.379 . S
H1531 C1525 0.959 . S
H1532 C1525 0.961 . S
H1533 C1525 0.960 . S
H1534 C1526 0.930 . S
H1535 C1527 0.929 . S
H1536 C1544 0.929 . S
H1537 C1546 0.930 . S
H1538 C1548 0.930 . S
H1539 C1551 0.929 . S
H1540 C1554 0.930 . S
H1541 C1556 0.960 . S
H1542 C1556 0.960 . S
H1543 C1556 0.960 . S
C1544 H1536 0.929 . S
C1544 C1545 1.377 . S
C1544 C1546 1.384 . S
C1545 C1544 1.377 . S
C1545 C1551 1.390 . S
C1546 H1537 0.930 . S
C1546 C1544 1.384 . S
C1546 C1547 1.372 . S
C1547 C1546 1.372 . S
C1547 C1548 1.400 . S
C1547 C1552 1.490 . S
C1548 H1538 0.930 . S
C1548 C1547 1.400 . S
C1548 C1551 1.386 . S
H1549 C1565 0.930 . S
H1550 C1566 0.931 . S
C1551 H1539 0.929 . S
C1551 C1545 1.390 . S
C1551 C1548 1.386 . S
C1552 C1547 1.490 . S
C1552 C1554 1.395 . S
C1552 C1555 1.403 . S
H1553 C1559 0.930 . S
C1554 H1540 0.930 . S
C1554 C1552 1.395 . S
C1554 C1557 1.403 . S
C1555 C1552 1.403 . S
C1555 C1556 1.524 . S
C1555 C1559 1.400 . S
C1556 H1541 0.960 . S
C1556 H1542 0.960 . S
C1556 H1543 0.960 . S
C1556 C1555 1.524 . S
C1557 C1554 1.403 . S
C1557 C1558 1.392 . S
C1557 C1561 1.495 . S
C1558 C1557 1.392 . S
C1558 C1559 1.385 . S
C1558 C1560 1.478 . S
C1559 H1553 0.930 . S
C1559 C1555 1.400 . S
C1559 C1558 1.385 . S
C1560 C1558 1.478 . S
C1560 C1562 1.381 . S
C1560 C1566 1.383 . S
C1561 C1557 1.495 . S
C1561 H1567 0.959 . S
C1561 H1568 0.961 . S
C1561 H1569 0.960 . S
C1562 C1560 1.381 . S
C1562 C1563 1.394 . S
C1562 H1570 0.930 . S
C1563 C1562 1.394 . S
C1563 C1564 1.383 . S
C1563 H1571 0.929 . S
C1564 C1563 1.383 . S
C1564 C1565 1.377 . S
C1565 H1549 0.930 . S
C1565 C1564 1.377 . S
C1565 C1566 1.379 . S
C1566 H1550 0.931 . S
C1566 C1560 1.383 . S
C1566 C1565 1.379 . S
H1567 C1561 0.959 . S
H1568 C1561 0.961 . S
H1569 C1561 0.960 . S
H1570 C1562 0.930 . S
H1571 C1563 0.929 . S
H1572 C1580 0.929 . S
H1573 C1582 0.930 . S
H1574 C1584 0.930 . S
H1575 C1587 0.929 . S
H1576 C1590 0.930 . S
H1577 C1592 0.960 . S
H1578 C1592 0.960 . S
H1579 C1592 0.960 . S
C1580 H1572 0.929 . S
C1580 C1581 1.377 . S
C1580 C1582 1.384 . S
C1581 C1580 1.377 . S
C1581 C1587 1.390 . S
C1582 H1573 0.930 . S
C1582 C1580 1.384 . S
C1582 C1583 1.372 . S
C1583 C1582 1.372 . S
C1583 C1584 1.400 . S
C1583 C1588 1.490 . S
C1584 H1574 0.930 . S
C1584 C1583 1.400 . S
C1584 C1587 1.386 . S
H1585 C1601 0.930 . S
H1586 C1602 0.931 . S
C1587 H1575 0.929 . S
C1587 C1581 1.390 . S
C1587 C1584 1.386 . S
C1588 C1583 1.490 . S
C1588 C1590 1.395 1_655 S
C1588 C1591 1.403 1_655 S
H1589 C1595 0.930 . S
C1590 H1576 0.930 . S
C1590 C1588 1.395 1_455 S
C1590 C1593 1.403 . S
C1591 C1588 1.403 1_455 S
C1591 C1592 1.524 1_455 S
C1591 C1595 1.400 . S
C1592 H1577 0.960 . S
C1592 H1578 0.960 . S
C1592 H1579 0.960 . S
C1592 C1591 1.524 1_655 S
C1593 C1590 1.403 . S
C1593 C1594 1.392 . S
C1593 C1597 1.495 . S
C1594 C1593 1.392 . S
C1594 C1595 1.385 . S
C1594 C1596 1.478 . S
C1595 H1589 0.930 . S
C1595 C1591 1.400 . S
C1595 C1594 1.385 . S
C1596 C1594 1.478 . S
C1596 C1598 1.381 . S
C1596 C1602 1.383 . S
C1597 C1593 1.495 . S
C1597 H1603 0.959 . S
C1597 H1604 0.961 . S
C1597 H1605 0.960 . S
C1598 C1596 1.381 . S
C1598 C1599 1.394 . S
C1598 H1606 0.930 . S
C1599 C1598 1.394 . S
C1599 C1600 1.383 . S
C1599 H1607 0.929 . S
C1600 C1599 1.383 . S
C1600 C1601 1.377 . S
C1601 H1585 0.930 . S
C1601 C1600 1.377 . S
C1601 C1602 1.379 . S
C1602 H1586 0.931 . S
C1602 C1596 1.383 . S
C1602 C1601 1.379 . S
H1603 C1597 0.959 . S
H1604 C1597 0.961 . S
H1605 C1597 0.960 . S
H1606 C1598 0.930 . S
H1607 C1599 0.929 . S
H1608 C1616 0.929 . S
H1609 C1618 0.930 . S
H1610 C1620 0.930 . S
H1611 C1623 0.929 . S
H1612 C1626 0.930 . S
H1613 C1628 0.960 . S
H1614 C1628 0.960 . S
H1615 C1628 0.960 . S
C1616 H1608 0.929 . S
C1616 C1617 1.377 . S
C1616 C1618 1.384 . S
C1617 C1616 1.377 . S
C1617 C1623 1.390 . S
C1618 H1609 0.930 . S
C1618 C1616 1.384 . S
C1618 C1619 1.372 . S
C1619 C1618 1.372 . S
C1619 C1620 1.400 . S
C1619 C1624 1.490 . S
C1620 H1610 0.930 . S
C1620 C1619 1.400 . S
C1620 C1623 1.386 . S
H1621 C1637 0.930 . S
H1622 C1638 0.931 . S
C1623 H1611 0.929 . S
C1623 C1617 1.390 . S
C1623 C1620 1.386 . S
C1624 C1619 1.490 . S
C1624 C1626 1.395 . S
C1624 C1627 1.403 . S
H1625 C1631 0.930 . S
C1626 H1612 0.930 . S
C1626 C1624 1.395 . S
C1626 C1629 1.403 . S
C1627 C1624 1.403 . S
C1627 C1628 1.524 . S
C1627 C1631 1.400 . S
C1628 H1613 0.960 . S
C1628 H1614 0.960 . S
C1628 H1615 0.960 . S
C1628 C1627 1.524 . S
C1629 C1626 1.403 . S
C1629 C1630 1.392 . S
C1629 C1633 1.495 . S
C1630 C1629 1.392 . S
C1630 C1631 1.385 . S
C1630 C1632 1.478 . S
C1631 H1625 0.930 . S
C1631 C1627 1.400 . S
C1631 C1630 1.385 . S
C1632 C1630 1.478 . S
C1632 C1634 1.381 . S
C1632 C1638 1.383 . S
C1633 C1629 1.495 . S
C1633 H1639 0.959 . S
C1633 H1640 0.961 . S
C1633 H1641 0.960 . S
C1634 C1632 1.381 . S
C1634 C1635 1.394 . S
C1634 H1642 0.930 . S
C1635 C1634 1.394 . S
C1635 C1636 1.383 . S
C1635 H1643 0.929 . S
C1636 C1635 1.383 . S
C1636 C1637 1.377 . S
C1637 H1621 0.930 . S
C1637 C1636 1.377 . S
C1637 C1638 1.379 . S
C1638 H1622 0.931 . S
C1638 C1632 1.383 . S
C1638 C1637 1.379 . S
H1639 C1633 0.959 . S
H1640 C1633 0.961 . S
H1641 C1633 0.960 . S
H1642 C1634 0.930 . S
H1643 C1635 0.929 . S
H1644 C1652 0.929 . S
H1645 C1654 0.930 . S
H1646 C1656 0.930 . S
H1647 C1659 0.929 . S
H1648 C1662 0.930 . S
H1649 C1664 0.960 . S
H1650 C1664 0.960 . S
H1651 C1664 0.960 . S
C1652 H1644 0.929 . S
C1652 C1653 1.377 . S
C1652 C1654 1.384 . S
C1653 C1652 1.377 . S
C1653 C1659 1.390 . S
C1654 H1645 0.930 . S
C1654 C1652 1.384 . S
C1654 C1655 1.372 . S
C1655 C1654 1.372 . S
C1655 C1656 1.400 . S
C1655 C1660 1.490 . S
C1656 H1646 0.930 . S
C1656 C1655 1.400 . S
C1656 C1659 1.386 . S
H1657 C1673 0.930 . S
H1658 C1674 0.931 . S
C1659 H1647 0.929 . S
C1659 C1653 1.390 . S
C1659 C1656 1.386 . S
C1660 C1655 1.490 . S
C1660 C1662 1.395 . S
C1660 C1663 1.403 . S
H1661 C1667 0.930 . S
C1662 H1648 0.930 . S
C1662 C1660 1.395 . S
C1662 C1665 1.403 . S
C1663 C1660 1.403 . S
C1663 C1664 1.524 . S
C1663 C1667 1.400 . S
C1664 H1649 0.960 . S
C1664 H1650 0.960 . S
C1664 H1651 0.960 . S
C1664 C1663 1.524 . S
C1665 C1662 1.403 . S
C1665 C1666 1.392 . S
C1665 C1669 1.495 . S
C1666 C1665 1.392 . S
C1666 C1667 1.385 . S
C1666 C1668 1.478 . S
C1667 H1661 0.930 . S
C1667 C1663 1.400 . S
C1667 C1666 1.385 . S
C1668 C1666 1.478 . S
C1668 C1670 1.381 . S
C1668 C1674 1.383 . S
C1669 C1665 1.495 . S
C1669 H1675 0.959 . S
C1669 H1676 0.961 . S
C1669 H1677 0.960 . S
C1670 C1668 1.381 . S
C1670 C1671 1.394 . S
C1670 H1678 0.930 . S
C1671 C1670 1.394 . S
C1671 C1672 1.383 . S
C1671 H1679 0.929 . S
C1672 C1671 1.383 . S
C1672 C1673 1.377 . S
C1673 H1657 0.930 . S
C1673 C1672 1.377 . S
C1673 C1674 1.379 . S
C1674 H1658 0.931 . S
C1674 C1668 1.383 . S
C1674 C1673 1.379 . S
H1675 C1669 0.959 . S
H1676 C1669 0.961 . S
H1677 C1669 0.960 . S
H1678 C1670 0.930 . S
H1679 C1671 0.929 . S
H1680 C1688 0.929 . S
H1681 C1690 0.930 . S
H1682 C1692 0.930 . S
H1683 C1695 0.929 . S
H1684 C1698 0.930 . S
H1685 C1700 0.960 . S
H1686 C1700 0.960 . S
H1687 C1700 0.960 . S
C1688 H1680 0.929 . S
C1688 C1689 1.377 . S
C1688 C1690 1.384 . S
C1689 C1688 1.377 . S
C1689 C1695 1.390 . S
C1690 H1681 0.930 . S
C1690 C1688 1.384 . S
C1690 C1691 1.372 . S
C1691 C1690 1.372 . S
C1691 C1692 1.400 . S
C1691 C1696 1.490 . S
C1692 H1682 0.930 . S
C1692 C1691 1.400 . S
C1692 C1695 1.386 . S
H1693 C1709 0.930 . S
H1694 C1710 0.931 . S
C1695 H1683 0.929 . S
C1695 C1689 1.390 . S
C1695 C1692 1.386 . S
C1696 C1691 1.490 . S
C1696 C1698 1.395 . S
C1696 C1699 1.403 . S
H1697 C1703 0.930 . S
C1698 H1684 0.930 . S
C1698 C1696 1.395 . S
C1698 C1701 1.403 . S
C1699 C1696 1.403 . S
C1699 C1700 1.524 . S
C1699 C1703 1.400 . S
C1700 H1685 0.960 . S
C1700 H1686 0.960 . S
C1700 H1687 0.960 . S
C1700 C1699 1.524 . S
C1701 C1698 1.403 . S
C1701 C1702 1.392 . S
C1701 C1705 1.495 . S
C1702 C1701 1.392 . S
C1702 C1703 1.385 . S
C1702 C1704 1.478 . S
C1703 H1697 0.930 . S
C1703 C1699 1.400 . S
C1703 C1702 1.385 . S
C1704 C1702 1.478 . S
C1704 C1706 1.381 . S
C1704 C1710 1.383 . S
C1705 C1701 1.495 . S
C1705 H1711 0.959 . S
C1705 H1712 0.961 . S
C1705 H1713 0.960 . S
C1706 C1704 1.381 . S
C1706 C1707 1.394 . S
C1706 H1714 0.930 . S
C1707 C1706 1.394 . S
C1707 C1708 1.383 . S
C1707 H1715 0.929 . S
C1708 C1707 1.383 . S
C1708 C1709 1.377 . S
C1709 H1693 0.930 . S
C1709 C1708 1.377 . S
C1709 C1710 1.379 . S
C1710 H1694 0.931 . S
C1710 C1704 1.383 . S
C1710 C1709 1.379 . S
H1711 C1705 0.959 . S
H1712 C1705 0.961 . S
H1713 C1705 0.960 . S
H1714 C1706 0.930 . S
H1715 C1707 0.929 . S
H1716 C1724 0.929 . S
H1717 C1726 0.930 . S
H1718 C1728 0.930 . S
H1719 C1731 0.929 . S
H1720 C1734 0.930 . S
H1721 C1736 0.960 . S
H1722 C1736 0.960 . S
H1723 C1736 0.960 . S
C1724 H1716 0.929 . S
C1724 C1725 1.377 . S
C1724 C1726 1.384 . S
C1725 C1724 1.377 . S
C1725 C1731 1.390 . S
C1726 H1717 0.930 . S
C1726 C1724 1.384 . S
C1726 C1727 1.372 . S
C1727 C1726 1.372 . S
C1727 C1728 1.400 . S
C1727 C1732 1.490 . S
C1728 H1718 0.930 . S
C1728 C1727 1.400 . S
C1728 C1731 1.386 . S
H1729 C1745 0.930 . S
H1730 C1746 0.931 . S
C1731 H1719 0.929 . S
C1731 C1725 1.390 . S
C1731 C1728 1.386 . S
C1732 C1727 1.490 . S
C1732 C1734 1.395 . S
C1732 C1735 1.403 . S
H1733 C1739 0.930 . S
C1734 H1720 0.930 . S
C1734 C1732 1.395 . S
C1734 C1737 1.403 . S
C1735 C1732 1.403 . S
C1735 C1736 1.524 . S
C1735 C1739 1.400 . S
C1736 H1721 0.960 . S
C1736 H1722 0.960 . S
C1736 H1723 0.960 . S
C1736 C1735 1.524 . S
C1737 C1734 1.403 . S
C1737 C1738 1.392 . S
C1737 C1741 1.495 . S
C1738 C1737 1.392 . S
C1738 C1739 1.385 . S
C1738 C1740 1.478 . S
C1739 H1733 0.930 . S
C1739 C1735 1.400 . S
C1739 C1738 1.385 . S
C1740 C1738 1.478 . S
C1740 C1742 1.381 . S
C1740 C1746 1.383 . S
C1741 C1737 1.495 . S
C1741 H1747 0.959 . S
C1741 H1748 0.961 . S
C1741 H1749 0.960 . S
C1742 C1740 1.381 . S
C1742 C1743 1.394 . S
C1742 H1750 0.930 . S
C1743 C1742 1.394 . S
C1743 C1744 1.383 . S
C1743 H1751 0.929 . S
C1744 C1743 1.383 . S
C1744 C1745 1.377 . S
C1745 H1729 0.930 . S
C1745 C1744 1.377 . S
C1745 C1746 1.379 . S
C1746 H1730 0.931 . S
C1746 C1740 1.383 . S
C1746 C1745 1.379 . S
H1747 C1741 0.959 . S
H1748 C1741 0.961 . S
H1749 C1741 0.960 . S
H1750 C1742 0.930 . S
H1751 C1743 0.929 . S
H1752 C1760 0.929 . S
H1753 C1762 0.930 . S
H1754 C1764 0.930 . S
H1755 C1767 0.929 . S
H1756 C1770 0.930 . S
H1757 C1772 0.960 . S
H1758 C1772 0.960 . S
H1759 C1772 0.960 . S
C1760 H1752 0.929 . S
C1760 C1761 1.377 . S
C1760 C1762 1.384 . S
C1761 C1760 1.377 . S
C1761 C1767 1.390 . S
C1762 H1753 0.930 . S
C1762 C1760 1.384 . S
C1762 C1763 1.372 . S
C1763 C1762 1.372 . S
C1763 C1764 1.400 . S
C1763 C1768 1.490 . S
C1764 H1754 0.930 . S
C1764 C1763 1.400 . S
C1764 C1767 1.386 . S
H1765 C1781 0.930 . S
H1766 C1782 0.931 . S
C1767 H1755 0.929 . S
C1767 C1761 1.390 . S
C1767 C1764 1.386 . S
C1768 C1763 1.490 . S
C1768 C1770 1.395 . S
C1768 C1771 1.403 . S
H1769 C1775 0.930 . S
C1770 H1756 0.930 . S
C1770 C1768 1.395 . S
C1770 C1773 1.403 . S
C1771 C1768 1.403 . S
C1771 C1772 1.524 . S
C1771 C1775 1.400 . S
C1772 H1757 0.960 . S
C1772 H1758 0.960 . S
C1772 H1759 0.960 . S
C1772 C1771 1.524 . S
C1773 C1770 1.403 . S
C1773 C1774 1.392 . S
C1773 C1777 1.495 . S
C1774 C1773 1.392 . S
C1774 C1775 1.385 . S
C1774 C1776 1.478 . S
C1775 H1769 0.930 . S
C1775 C1771 1.400 . S
C1775 C1774 1.385 . S
C1776 C1774 1.478 . S
C1776 C1778 1.381 . S
C1776 C1782 1.383 . S
C1777 C1773 1.495 . S
C1777 H1783 0.959 . S
C1777 H1784 0.961 . S
C1777 H1785 0.960 . S
C1778 C1776 1.381 . S
C1778 C1779 1.394 . S
C1778 H1786 0.930 . S
C1779 C1778 1.394 . S
C1779 C1780 1.383 . S
C1779 H1787 0.929 . S
C1780 C1779 1.383 . S
C1780 C1781 1.377 . S
C1781 H1765 0.930 . S
C1781 C1780 1.377 . S
C1781 C1782 1.379 . S
C1782 H1766 0.931 . S
C1782 C1776 1.383 . S
C1782 C1781 1.379 . S
H1783 C1777 0.959 . S
H1784 C1777 0.961 . S
H1785 C1777 0.960 . S
H1786 C1778 0.930 . S
H1787 C1779 0.929 . S
H1788 C1796 0.929 . S
H1789 C1798 0.930 . S
H1790 C1800 0.930 . S
H1791 C1803 0.929 . S
H1792 C1806 0.930 . S
H1793 C1808 0.960 . S
H1794 C1808 0.960 . S
H1795 C1808 0.960 . S
C1796 H1788 0.929 . S
C1796 C1797 1.377 . S
C1796 C1798 1.384 . S
C1797 C1796 1.377 . S
C1797 C1803 1.390 . S
C1798 H1789 0.930 . S
C1798 C1796 1.384 . S
C1798 C1799 1.372 . S
C1799 C1798 1.372 . S
C1799 C1800 1.400 . S
C1799 C1804 1.490 . S
C1800 H1790 0.930 . S
C1800 C1799 1.400 . S
C1800 C1803 1.386 . S
H1801 C1817 0.930 . S
H1802 C1818 0.931 . S
C1803 H1791 0.929 . S
C1803 C1797 1.390 . S
C1803 C1800 1.386 . S
C1804 C1799 1.490 . S
C1804 C1806 1.395 . S
C1804 C1807 1.403 . S
H1805 C1811 0.930 . S
C1806 H1792 0.930 . S
C1806 C1804 1.395 . S
C1806 C1809 1.403 . S
C1807 C1804 1.403 . S
C1807 C1808 1.524 . S
C1807 C1811 1.400 . S
C1808 H1793 0.960 . S
C1808 H1794 0.960 . S
C1808 H1795 0.960 . S
C1808 C1807 1.524 . S
C1809 C1806 1.403 . S
C1809 C1810 1.392 . S
C1809 C1813 1.495 . S
C1810 C1809 1.392 . S
C1810 C1811 1.385 . S
C1810 C1812 1.478 1_455 S
C1811 H1805 0.930 . S
C1811 C1807 1.400 . S
C1811 C1810 1.385 . S
C1812 C1810 1.478 1_655 S
C1812 C1814 1.381 . S
C1812 C1818 1.383 . S
C1813 C1809 1.495 . S
C1813 H1819 0.959 . S
C1813 H1820 0.961 . S
C1813 H1821 0.960 . S
C1814 C1812 1.381 . S
C1814 C1815 1.394 . S
C1814 H1822 0.930 . S
C1815 C1814 1.394 . S
C1815 C1816 1.383 . S
C1815 H1823 0.929 . S
C1816 C1815 1.383 . S
C1816 C1817 1.377 . S
C1817 H1801 0.930 . S
C1817 C1816 1.377 . S
C1817 C1818 1.379 . S
C1818 H1802 0.931 . S
C1818 C1812 1.383 . S
C1818 C1817 1.379 . S
H1819 C1813 0.959 . S
H1820 C1813 0.961 . S
H1821 C1813 0.960 . S
H1822 C1814 0.930 . S
H1823 C1815 0.929 . S
H1824 C1832 0.929 . S
H1825 C1834 0.930 . S
H1826 C1836 0.930 . S
H1827 C1839 0.929 . S
H1828 C1842 0.930 . S
H1829 C1844 0.960 . S
H1830 C1844 0.960 . S
H1831 C1844 0.960 . S
C1832 H1824 0.929 . S
C1832 C1833 1.377 . S
C1832 C1834 1.384 . S
C1833 C1832 1.377 . S
C1833 C1839 1.390 . S
C1834 H1825 0.930 . S
C1834 C1832 1.384 . S
C1834 C1835 1.372 . S
C1835 C1834 1.372 . S
C1835 C1836 1.400 . S
C1835 C1840 1.490 . S
C1836 H1826 0.930 . S
C1836 C1835 1.400 . S
C1836 C1839 1.386 . S
H1837 C1853 0.930 . S
H1838 C1854 0.931 . S
C1839 H1827 0.929 . S
C1839 C1833 1.390 . S
C1839 C1836 1.386 . S
C1840 C1835 1.490 . S
C1840 C1842 1.395 . S
C1840 C1843 1.403 . S
H1841 C1847 0.930 . S
C1842 H1828 0.930 . S
C1842 C1840 1.395 . S
C1842 C1845 1.403 . S
C1843 C1840 1.403 . S
C1843 C1844 1.524 . S
C1843 C1847 1.400 . S
C1844 H1829 0.960 . S
C1844 H1830 0.960 . S
C1844 H1831 0.960 . S
C1844 C1843 1.524 . S
C1845 C1842 1.403 . S
C1845 C1846 1.392 . S
C1845 C1849 1.495 . S
C1846 C1845 1.392 . S
C1846 C1847 1.385 . S
C1846 C1848 1.478 . S
C1847 H1841 0.930 . S
C1847 C1843 1.400 . S
C1847 C1846 1.385 . S
C1848 C1846 1.478 . S
C1848 C1850 1.381 . S
C1848 C1854 1.383 . S
C1849 C1845 1.495 . S
C1849 H1855 0.959 . S
C1849 H1856 0.961 . S
C1849 H1857 0.960 . S
C1850 C1848 1.381 . S
C1850 C1851 1.394 . S
C1850 H1858 0.930 . S
C1851 C1850 1.394 . S
C1851 C1852 1.383 . S
C1851 H1859 0.929 . S
C1852 C1851 1.383 . S
C1852 C1853 1.377 . S
C1853 H1837 0.930 . S
C1853 C1852 1.377 . S
C1853 C1854 1.379 . S
C1854 H1838 0.931 . S
C1854 C1848 1.383 . S
C1854 C1853 1.379 . S
H1855 C1849 0.959 . S
H1856 C1849 0.961 . S
H1857 C1849 0.960 . S
H1858 C1850 0.930 . S
H1859 C1851 0.929 . S
H1860 C1868 0.929 . S
H1861 C1870 0.930 . S
H1862 C1872 0.930 . S
H1863 C1875 0.929 . S
H1864 C1878 0.930 . S
H1865 C1880 0.960 . S
H1866 C1880 0.960 . S
H1867 C1880 0.960 . S
C1868 H1860 0.929 . S
C1868 C1869 1.377 . S
C1868 C1870 1.384 . S
C1869 C1868 1.377 . S
C1869 C1875 1.390 . S
C1870 H1861 0.930 . S
C1870 C1868 1.384 . S
C1870 C1871 1.372 . S
C1871 C1870 1.372 . S
C1871 C1872 1.400 . S
C1871 C1876 1.490 . S
C1872 H1862 0.930 . S
C1872 C1871 1.400 . S
C1872 C1875 1.386 . S
H1873 C1889 0.930 . S
H1874 C1890 0.931 . S
C1875 H1863 0.929 . S
C1875 C1869 1.390 . S
C1875 C1872 1.386 . S
C1876 C1871 1.490 . S
C1876 C1878 1.395 . S
C1876 C1879 1.403 . S
H1877 C1883 0.930 . S
C1878 H1864 0.930 . S
C1878 C1876 1.395 . S
C1878 C1881 1.403 . S
C1879 C1876 1.403 . S
C1879 C1880 1.524 . S
C1879 C1883 1.400 . S
C1880 H1865 0.960 . S
C1880 H1866 0.960 . S
C1880 H1867 0.960 . S
C1880 C1879 1.524 . S
C1881 C1878 1.403 . S
C1881 C1882 1.392 . S
C1881 C1885 1.495 . S
C1882 C1881 1.392 . S
C1882 C1883 1.385 . S
C1882 C1884 1.478 . S
C1883 H1877 0.930 . S
C1883 C1879 1.400 . S
C1883 C1882 1.385 . S
C1884 C1882 1.478 . S
C1884 C1886 1.381 . S
C1884 C1890 1.383 . S
C1885 C1881 1.495 . S
C1885 H1891 0.959 . S
C1885 H1892 0.961 . S
C1885 H1893 0.960 . S
C1886 C1884 1.381 . S
C1886 C1887 1.394 . S
C1886 H1894 0.930 . S
C1887 C1886 1.394 . S
C1887 C1888 1.383 . S
C1887 H1895 0.929 . S
C1888 C1887 1.383 . S
C1888 C1889 1.377 . S
C1889 H1873 0.930 . S
C1889 C1888 1.377 . S
C1889 C1890 1.379 . S
C1890 H1874 0.931 . S
C1890 C1884 1.383 . S
C1890 C1889 1.379 . S
H1891 C1885 0.959 . S
H1892 C1885 0.961 . S
H1893 C1885 0.960 . S
H1894 C1886 0.930 . S
H1895 C1887 0.929 . S
H1896 C1904 0.929 . S
H1897 C1906 0.930 . S
H1898 C1908 0.930 . S
H1899 C1911 0.929 . S
H1900 C1914 0.930 . S
H1901 C1916 0.960 . S
H1902 C1916 0.960 . S
H1903 C1916 0.960 . S
C1904 H1896 0.929 . S
C1904 C1905 1.377 . S
C1904 C1906 1.384 . S
C1905 C1904 1.377 . S
C1905 C1911 1.390 . S
C1906 H1897 0.930 . S
C1906 C1904 1.384 . S
C1906 C1907 1.372 . S
C1907 C1906 1.372 . S
C1907 C1908 1.400 . S
C1907 C1912 1.490 . S
C1908 H1898 0.930 . S
C1908 C1907 1.400 . S
C1908 C1911 1.386 . S
H1909 C1925 0.930 . S
H1910 C1926 0.931 . S
C1911 H1899 0.929 . S
C1911 C1905 1.390 . S
C1911 C1908 1.386 . S
C1912 C1907 1.490 . S
C1912 C1914 1.395 . S
C1912 C1915 1.403 . S
H1913 C1919 0.930 . S
C1914 H1900 0.930 . S
C1914 C1912 1.395 . S
C1914 C1917 1.403 . S
C1915 C1912 1.403 . S
C1915 C1916 1.524 . S
C1915 C1919 1.400 . S
C1916 H1901 0.960 . S
C1916 H1902 0.960 . S
C1916 H1903 0.960 . S
C1916 C1915 1.524 . S
C1917 C1914 1.403 . S
C1917 C1918 1.392 . S
C1917 C1921 1.495 . S
C1918 C1917 1.392 . S
C1918 C1919 1.385 . S
C1918 C1920 1.478 . S
C1919 H1913 0.930 . S
C1919 C1915 1.400 . S
C1919 C1918 1.385 . S
C1920 C1918 1.478 . S
C1920 C1922 1.381 . S
C1920 C1926 1.383 . S
C1921 C1917 1.495 . S
C1921 H1927 0.959 . S
C1921 H1928 0.961 . S
C1921 H1929 0.960 . S
C1922 C1920 1.381 . S
C1922 C1923 1.394 . S
C1922 H1930 0.930 . S
C1923 C1922 1.394 . S
C1923 C1924 1.383 . S
C1923 H1931 0.929 . S
C1924 C1923 1.383 . S
C1924 C1925 1.377 . S
C1925 H1909 0.930 . S
C1925 C1924 1.377 . S
C1925 C1926 1.379 . S
C1926 H1910 0.931 . S
C1926 C1920 1.383 . S
C1926 C1925 1.379 . S
H1927 C1921 0.959 . S
H1928 C1921 0.961 . S
H1929 C1921 0.960 . S
H1930 C1922 0.930 . S
H1931 C1923 0.929 . S
H1932 C1940 0.929 . S
H1933 C1942 0.930 . S
H1934 C1944 0.930 . S
H1935 C1947 0.929 . S
H1936 C1950 0.930 . S
H1937 C1952 0.960 . S
H1938 C1952 0.960 . S
H1939 C1952 0.960 . S
C1940 H1932 0.929 . S
C1940 C1941 1.377 . S
C1940 C1942 1.384 . S
C1941 C1940 1.377 . S
C1941 C1947 1.390 . S
C1942 H1933 0.930 . S
C1942 C1940 1.384 . S
C1942 C1943 1.372 . S
C1943 C1942 1.372 . S
C1943 C1944 1.400 . S
C1943 C1948 1.490 . S
C1944 H1934 0.930 . S
C1944 C1943 1.400 . S
C1944 C1947 1.386 . S
H1945 C1961 0.930 . S
H1946 C1962 0.931 . S
C1947 H1935 0.929 . S
C1947 C1941 1.390 . S
C1947 C1944 1.386 . S
C1948 C1943 1.490 . S
C1948 C1950 1.395 . S
C1948 C1951 1.403 . S
H1949 C1955 0.930 . S
C1950 H1936 0.930 . S
C1950 C1948 1.395 . S
C1950 C1953 1.403 . S
C1951 C1948 1.403 . S
C1951 C1952 1.524 . S
C1951 C1955 1.400 . S
C1952 H1937 0.960 . S
C1952 H1938 0.960 . S
C1952 H1939 0.960 . S
C1952 C1951 1.524 . S
C1953 C1950 1.403 . S
C1953 C1954 1.392 1_556 S
C1953 C1957 1.495 1_556 S
C1954 C1953 1.392 1_554 S
C1954 C1955 1.385 1_554 S
C1954 C1956 1.478 . S
C1955 H1949 0.930 . S
C1955 C1951 1.400 . S
C1955 C1954 1.385 1_556 S
C1956 C1954 1.478 . S
C1956 C1958 1.381 . S
C1956 C1962 1.383 . S
C1957 C1953 1.495 1_554 S
C1957 H1963 0.959 1_554 S
C1957 H1964 0.961 . S
C1957 H1965 0.960 . S
C1958 C1956 1.381 . S
C1958 C1959 1.394 . S
C1958 H1966 0.930 . S
C1959 C1958 1.394 . S
C1959 C1960 1.383 . S
C1959 H1967 0.929 . S
C1960 C1959 1.383 . S
C1960 C1961 1.377 . S
C1961 H1945 0.930 . S
C1961 C1960 1.377 . S
C1961 C1962 1.379 . S
C1962 H1946 0.931 . S
C1962 C1956 1.383 . S
C1962 C1961 1.379 . S
H1963 C1957 0.959 1_556 S
H1964 C1957 0.961 . S
H1965 C1957 0.960 . S
H1966 C1958 0.930 . S
H1967 C1959 0.929 . S
H1968 C1976 0.929 . S
H1969 C1978 0.930 . S
H1970 C1980 0.930 . S
H1971 C1983 0.929 . S
H1972 C1986 0.930 . S
H1973 C1988 0.960 . S
H1974 C1988 0.960 . S
H1975 C1988 0.960 . S
C1976 H1968 0.929 . S
C1976 C1977 1.377 . S
C1976 C1978 1.384 . S
C1977 C1976 1.377 . S
C1977 C1983 1.390 . S
C1978 H1969 0.930 . S
C1978 C1976 1.384 . S
C1978 C1979 1.372 . S
C1979 C1978 1.372 . S
C1979 C1980 1.400 . S
C1979 C1984 1.490 . S
C1980 H1970 0.930 . S
C1980 C1979 1.400 . S
C1980 C1983 1.386 . S
H1981 C1997 0.930 . S
H1982 C1998 0.931 . S
C1983 H1971 0.929 . S
C1983 C1977 1.390 . S
C1983 C1980 1.386 . S
C1984 C1979 1.490 . S
C1984 C1986 1.395 . S
C1984 C1987 1.403 . S
H1985 C1991 0.930 . S
C1986 H1972 0.930 . S
C1986 C1984 1.395 . S
C1986 C1989 1.403 . S
C1987 C1984 1.403 . S
C1987 C1988 1.524 . S
C1987 C1991 1.400 . S
C1988 H1973 0.960 . S
C1988 H1974 0.960 . S
C1988 H1975 0.960 . S
C1988 C1987 1.524 . S
C1989 C1986 1.403 . S
C1989 C1990 1.392 . S
C1989 C1993 1.495 . S
C1990 C1989 1.392 . S
C1990 C1991 1.385 . S
C1990 C1992 1.478 . S
C1991 H1985 0.930 . S
C1991 C1987 1.400 . S
C1991 C1990 1.385 . S
C1992 C1990 1.478 . S
C1992 C1994 1.381 . S
C1992 C1998 1.383 . S
C1993 C1989 1.495 . S
C1993 H1999 0.959 . S
C1993 H2000 0.961 . S
C1993 H2001 0.960 . S
C1994 C1992 1.381 . S
C1994 C1995 1.394 . S
C1994 H2002 0.930 . S
C1995 C1994 1.394 . S
C1995 C1996 1.383 . S
C1995 H2003 0.929 . S
C1996 C1995 1.383 . S
C1996 C1997 1.377 . S
C1997 H1981 0.930 . S
C1997 C1996 1.377 . S
C1997 C1998 1.379 . S
C1998 H1982 0.931 . S
C1998 C1992 1.383 . S
C1998 C1997 1.379 . S
H1999 C1993 0.959 . S
H2000 C1993 0.961 . S
H2001 C1993 0.960 . S
H2002 C1994 0.930 . S
H2003 C1995 0.929 . S
H2004 C2012 0.929 . S
H2005 C2014 0.930 . S
H2006 C2016 0.930 . S
H2007 C2019 0.929 . S
H2008 C2022 0.930 . S
H2009 C2024 0.960 . S
H2010 C2024 0.960 . S
H2011 C2024 0.960 . S
C2012 H2004 0.929 . S
C2012 C2013 1.377 . S
C2012 C2014 1.384 . S
C2013 C2012 1.377 . S
C2013 C2019 1.390 . S
C2014 H2005 0.930 . S
C2014 C2012 1.384 . S
C2014 C2015 1.372 . S
C2015 C2014 1.372 . S
C2015 C2016 1.400 . S
C2015 C2020 1.490 . S
C2016 H2006 0.930 . S
C2016 C2015 1.400 . S
C2016 C2019 1.386 . S
H2017 C2033 0.930 . S
H2018 C2034 0.931 . S
C2019 H2007 0.929 . S
C2019 C2013 1.390 . S
C2019 C2016 1.386 . S
C2020 C2015 1.490 . S
C2020 C2022 1.395 . S
C2020 C2023 1.403 . S
H2021 C2027 0.930 . S
C2022 H2008 0.930 . S
C2022 C2020 1.395 . S
C2022 C2025 1.403 . S
C2023 C2020 1.403 . S
C2023 C2024 1.524 . S
C2023 C2027 1.400 . S
C2024 H2009 0.960 . S
C2024 H2010 0.960 . S
C2024 H2011 0.960 . S
C2024 C2023 1.524 . S
C2025 C2022 1.403 . S
C2025 C2026 1.392 . S
C2025 C2029 1.495 . S
C2026 C2025 1.392 . S
C2026 C2027 1.385 . S
C2026 C2028 1.478 . S
C2027 H2021 0.930 . S
C2027 C2023 1.400 . S
C2027 C2026 1.385 . S
C2028 C2026 1.478 . S
C2028 C2030 1.381 . S
C2028 C2034 1.383 . S
C2029 C2025 1.495 . S
C2029 H2035 0.959 . S
C2029 H2036 0.961 . S
C2029 H2037 0.960 . S
C2030 C2028 1.381 . S
C2030 C2031 1.394 . S
C2030 H2038 0.930 . S
C2031 C2030 1.394 . S
C2031 C2032 1.383 . S
C2031 H2039 0.929 . S
C2032 C2031 1.383 . S
C2032 C2033 1.377 . S
C2033 H2017 0.930 . S
C2033 C2032 1.377 . S
C2033 C2034 1.379 . S
C2034 H2018 0.931 . S
C2034 C2028 1.383 . S
C2034 C2033 1.379 . S
H2035 C2029 0.959 . S
H2036 C2029 0.961 . S
H2037 C2029 0.960 . S
H2038 C2030 0.930 . S
H2039 C2031 0.929 . S
H2040 C2048 0.929 . S
H2041 C2050 0.930 . S
H2042 C2052 0.930 . S
H2043 C2055 0.929 . S
H2044 C2058 0.930 . S
H2045 C2060 0.960 . S
H2046 C2060 0.960 . S
H2047 C2060 0.960 . S
C2048 H2040 0.929 . S
C2048 C2049 1.377 . S
C2048 C2050 1.384 . S
C2049 C2048 1.377 . S
C2049 C2055 1.390 . S
C2050 H2041 0.930 . S
C2050 C2048 1.384 . S
C2050 C2051 1.372 . S
C2051 C2050 1.372 . S
C2051 C2052 1.400 . S
C2051 C2056 1.490 . S
C2052 H2042 0.930 . S
C2052 C2051 1.400 . S
C2052 C2055 1.386 . S
H2053 C2069 0.930 . S
H2054 C2070 0.931 . S
C2055 H2043 0.929 . S
C2055 C2049 1.390 . S
C2055 C2052 1.386 . S
C2056 C2051 1.490 . S
C2056 C2058 1.395 . S
C2056 C2059 1.403 . S
H2057 C2063 0.930 . S
C2058 H2044 0.930 . S
C2058 C2056 1.395 . S
C2058 C2061 1.403 . S
C2059 C2056 1.403 . S
C2059 C2060 1.524 . S
C2059 C2063 1.400 . S
C2060 H2045 0.960 . S
C2060 H2046 0.960 . S
C2060 H2047 0.960 . S
C2060 C2059 1.524 . S
C2061 C2058 1.403 . S
C2061 C2062 1.392 . S
C2061 C2065 1.495 . S
C2062 C2061 1.392 . S
C2062 C2063 1.385 . S
C2062 C2064 1.478 . S
C2063 H2057 0.930 . S
C2063 C2059 1.400 . S
C2063 C2062 1.385 . S
C2064 C2062 1.478 . S
C2064 C2066 1.381 . S
C2064 C2070 1.383 . S
C2065 C2061 1.495 . S
C2065 H2071 0.959 . S
C2065 H2072 0.961 . S
C2065 H2073 0.960 . S
C2066 C2064 1.381 . S
C2066 C2067 1.394 . S
C2066 H2074 0.930 . S
C2067 C2066 1.394 . S
C2067 C2068 1.383 . S
C2067 H2075 0.929 . S
C2068 C2067 1.383 . S
C2068 C2069 1.377 . S
C2069 H2053 0.930 . S
C2069 C2068 1.377 . S
C2069 C2070 1.379 . S
C2070 H2054 0.931 . S
C2070 C2064 1.383 . S
C2070 C2069 1.379 . S
H2071 C2065 0.959 . S
H2072 C2065 0.961 . S
H2073 C2065 0.960 . S
H2074 C2066 0.930 . S
H2075 C2067 0.929 . S
H2076 C2084 0.929 . S
H2077 C2086 0.930 . S
H2078 C2088 0.930 . S
H2079 C2091 0.929 . S
H2080 C2094 0.930 1_556 S
H2081 C2096 0.960 . S
H2082 C2096 0.960 . S
H2083 C2096 0.980 . S
C2084 H2076 0.929 . S
C2084 C2085 1.377 . S
C2084 C2086 1.384 . S
C2085 C2084 1.377 . S
C2085 C2091 1.390 . S
C2086 H2077 0.930 . S
C2086 C2084 1.384 . S
C2086 C2087 1.372 . S
C2087 C2086 1.372 . S
C2087 C2088 1.400 . S
C2087 C2092 1.490 . S
C2088 H2078 0.930 . S
C2088 C2087 1.400 . S
C2088 C2091 1.386 . S
H2089 C2105 0.930 . S
H2090 C2106 0.931 . S
C2091 H2079 0.929 . S
C2091 C2085 1.390 . S
C2091 C2088 1.386 . S
C2092 C2087 1.490 . S
C2092 C2094 1.395 1_556 S
C2092 C2095 1.403 1_556 S
H2093 C2099 0.930 . S
C2094 H2080 0.930 1_554 S
C2094 C2092 1.395 1_554 S
C2094 C2097 1.403 . S
C2095 C2092 1.403 1_554 S
C2095 C2096 1.524 . S
C2095 C2099 1.400 . S
C2096 H2081 0.960 . S
C2096 H2082 0.960 . S
C2096 H2083 0.980 . S
C2096 C2095 1.524 . S
C2097 C2094 1.403 . S
C2097 C2098 1.392 . S
C2097 C2101 1.495 . S
C2098 C2097 1.392 . S
C2098 C2099 1.385 . S
C2098 C2100 1.478 . S
C2099 H2093 0.930 . S
C2099 C2095 1.400 . S
C2099 C2098 1.385 . S
C2100 C2098 1.478 . S
C2100 C2102 1.381 . S
C2100 C2106 1.383 . S
C2101 C2097 1.495 . S
C2101 H2107 0.959 . S
C2101 H2108 0.961 . S
C2101 H2109 0.960 . S
C2102 C2100 1.381 . S
C2102 C2103 1.394 . S
C2102 H2110 0.930 . S
C2103 C2102 1.394 . S
C2103 C2104 1.383 . S
C2103 H2111 0.929 . S
C2104 C2103 1.383 . S
C2104 C2105 1.377 . S
C2105 H2089 0.930 . S
C2105 C2104 1.377 . S
C2105 C2106 1.379 . S
C2106 H2090 0.931 . S
C2106 C2100 1.383 . S
C2106 C2105 1.379 . S
H2107 C2101 0.959 . S
H2108 C2101 0.961 . S
H2109 C2101 0.960 . S
H2110 C2102 0.930 . S
H2111 C2103 0.929 . S
H2112 C2120 0.929 . S
H2113 C2122 0.930 . S
H2114 C2124 0.930 . S
H2115 C2127 0.929 . S
H2116 C2130 0.930 . S
H2117 C2132 0.960 . S
H2118 C2132 0.960 . S
H2119 C2132 0.960 . S
C2120 H2112 0.929 . S
C2120 C2121 1.377 . S
C2120 C2122 1.384 . S
C2121 C2120 1.377 . S
C2121 C2127 1.390 . S
C2122 H2113 0.930 . S
C2122 C2120 1.384 . S
C2122 C2123 1.372 . S
C2123 C2122 1.372 . S
C2123 C2124 1.400 . S
C2123 C2128 1.490 . S
C2124 H2114 0.930 . S
C2124 C2123 1.400 . S
C2124 C2127 1.386 . S
H2125 C2141 0.930 . S
H2126 C2142 0.931 . S
C2127 H2115 0.929 . S
C2127 C2121 1.390 . S
C2127 C2124 1.386 . S
C2128 C2123 1.490 . S
C2128 C2130 1.395 . S
C2128 C2131 1.403 . S
H2129 C2135 0.930 . S
C2130 H2116 0.930 . S
C2130 C2128 1.395 . S
C2130 C2133 1.403 . S
C2131 C2128 1.403 . S
C2131 C2132 1.524 . S
C2131 C2135 1.400 . S
C2132 H2117 0.960 . S
C2132 H2118 0.960 . S
C2132 H2119 0.960 . S
C2132 C2131 1.524 . S
C2133 C2130 1.403 . S
C2133 C2134 1.392 . S
C2133 C2137 1.495 . S
C2134 C2133 1.392 . S
C2134 C2135 1.385 . S
C2134 C2136 1.478 . S
C2135 H2129 0.930 . S
C2135 C2131 1.400 . S
C2135 C2134 1.385 . S
C2136 C2134 1.478 . S
C2136 C2138 1.381 . S
C2136 C2142 1.383 . S
C2137 C2133 1.495 . S
C2137 H2143 0.959 . S
C2137 H2144 0.961 . S
C2137 H2145 0.960 . S
C2138 C2136 1.381 . S
C2138 C2139 1.394 . S
C2138 H2146 0.930 . S
C2139 C2138 1.394 . S
C2139 C2140 1.383 . S
C2139 H2147 0.929 . S
C2140 C2139 1.383 . S
C2140 C2141 1.377 . S
C2141 H2125 0.930 . S
C2141 C2140 1.377 . S
C2141 C2142 1.379 . S
C2142 H2126 0.931 . S
C2142 C2136 1.383 . S
C2142 C2141 1.379 . S
H2143 C2137 0.959 . S
H2144 C2137 0.961 . S
H2145 C2137 0.960 . S
H2146 C2138 0.930 . S
H2147 C2139 0.929 . S
H2148 C2156 0.929 . S
H2149 C2158 0.930 . S
H2150 C2160 0.930 . S
H2151 C2163 0.929 . S
H2152 C2166 0.930 . S
H2153 C2168 0.960 . S
H2154 C2168 0.960 . S
H2155 C2168 0.960 . S
C2156 H2148 0.929 . S
C2156 C2157 1.377 . S
C2156 C2158 1.384 . S
C2157 C2156 1.377 . S
C2157 C2163 1.390 . S
C2158 H2149 0.930 . S
C2158 C2156 1.384 . S
C2158 C2159 1.372 . S
C2159 C2158 1.372 . S
C2159 C2160 1.400 . S
C2159 C2164 1.490 . S
C2160 H2150 0.930 . S
C2160 C2159 1.400 . S
C2160 C2163 1.386 . S
H2161 C2177 0.930 . S
H2162 C2178 0.931 . S
C2163 H2151 0.929 . S
C2163 C2157 1.390 . S
C2163 C2160 1.386 . S
C2164 C2159 1.490 . S
C2164 C2166 1.395 . S
C2164 C2167 1.403 . S
H2165 C2171 0.930 . S
C2166 H2152 0.930 . S
C2166 C2164 1.395 . S
C2166 C2169 1.403 . S
C2167 C2164 1.403 . S
C2167 C2168 1.524 . S
C2167 C2171 1.400 . S
C2168 H2153 0.960 . S
C2168 H2154 0.960 . S
C2168 H2155 0.960 . S
C2168 C2167 1.524 . S
C2169 C2166 1.403 . S
C2169 C2170 1.392 . S
C2169 C2173 1.495 . S
C2170 C2169 1.392 . S
C2170 C2171 1.385 . S
C2170 C2172 1.478 . S
C2171 H2165 0.930 . S
C2171 C2167 1.400 . S
C2171 C2170 1.385 . S
C2172 C2170 1.478 . S
C2172 C2174 1.381 . S
C2172 C2178 1.383 . S
C2173 C2169 1.495 . S
C2173 H2179 0.959 . S
C2173 H2180 0.961 . S
C2173 H2181 0.960 . S
C2174 C2172 1.381 . S
C2174 C2175 1.394 . S
C2174 H2182 0.930 . S
C2175 C2174 1.394 . S
C2175 C2176 1.383 . S
C2175 H2183 0.929 . S
C2176 C2175 1.383 . S
C2176 C2177 1.377 . S
C2177 H2161 0.930 . S
C2177 C2176 1.377 . S
C2177 C2178 1.379 . S
C2178 H2162 0.931 . S
C2178 C2172 1.383 . S
C2178 C2177 1.379 . S
H2179 C2173 0.959 . S
H2180 C2173 0.961 . S
H2181 C2173 0.960 . S
H2182 C2174 0.930 . S
H2183 C2175 0.929 . S
H2184 C2192 0.929 . S
H2185 C2194 0.930 . S
H2186 C2196 0.930 . S
H2187 C2199 0.929 . S
H2188 C2202 0.930 . S
H2189 C2204 0.960 . S
H2190 C2204 0.960 . S
H2191 C2204 0.960 . S
C2192 H2184 0.929 . S
C2192 C2193 1.377 . S
C2192 C2194 1.384 . S
C2193 C2192 1.377 . S
C2193 C2199 1.390 . S
C2194 H2185 0.930 . S
C2194 C2192 1.384 . S
C2194 C2195 1.372 . S
C2195 C2194 1.372 . S
C2195 C2196 1.400 . S
C2195 C2200 1.490 . S
C2196 H2186 0.930 . S
C2196 C2195 1.400 . S
C2196 C2199 1.386 . S
H2197 C2213 0.930 . S
H2198 C2214 0.931 . S
C2199 H2187 0.929 . S
C2199 C2193 1.390 . S
C2199 C2196 1.386 . S
C2200 C2195 1.490 . S
C2200 C2202 1.395 . S
C2200 C2203 1.403 . S
H2201 C2207 0.930 . S
C2202 H2188 0.930 . S
C2202 C2200 1.395 . S
C2202 C2205 1.403 . S
C2203 C2200 1.403 . S
C2203 C2204 1.524 . S
C2203 C2207 1.400 . S
C2204 H2189 0.960 . S
C2204 H2190 0.960 . S
C2204 H2191 0.960 . S
C2204 C2203 1.524 . S
C2205 C2202 1.403 . S
C2205 C2206 1.392 . S
C2205 C2209 1.495 . S
C2206 C2205 1.392 . S
C2206 C2207 1.385 . S
C2206 C2208 1.478 . S
C2207 H2201 0.930 . S
C2207 C2203 1.400 . S
C2207 C2206 1.385 . S
C2208 C2206 1.478 . S
C2208 C2210 1.381 . S
C2208 C2214 1.383 . S
C2209 C2205 1.495 . S
C2209 H2215 0.959 . S
C2209 H2216 0.961 . S
C2209 H2217 0.960 . S
C2210 C2208 1.381 . S
C2210 C2211 1.394 . S
C2210 H2218 0.930 . S
C2211 C2210 1.394 . S
C2211 C2212 1.383 . S
C2211 H2219 0.929 . S
C2212 C2211 1.383 . S
C2212 C2213 1.377 . S
C2213 H2197 0.930 . S
C2213 C2212 1.377 . S
C2213 C2214 1.379 . S
C2214 H2198 0.931 . S
C2214 C2208 1.383 . S
C2214 C2213 1.379 . S
H2215 C2209 0.959 . S
H2216 C2209 0.961 . S
H2217 C2209 0.960 . S
H2218 C2210 0.930 . S
H2219 C2211 0.929 . S
H2220 C2228 0.929 . S
H2221 C2230 0.930 . S
H2222 C2232 0.930 . S
H2223 C2235 0.929 . S
H2224 C2238 0.930 . S
H2225 C2240 0.960 . S
H2226 C2240 0.960 . S
H2227 C2240 0.960 . S
C2228 H2220 0.929 . S
C2228 C2229 1.377 . S
C2228 C2230 1.384 . S
C2229 C2228 1.377 . S
C2229 C2235 1.390 . S
C2230 H2221 0.930 . S
C2230 C2228 1.384 . S
C2230 C2231 1.372 . S
C2231 C2230 1.372 . S
C2231 C2232 1.400 . S
C2231 C2236 1.490 . S
C2232 H2222 0.930 . S
C2232 C2231 1.400 . S
C2232 C2235 1.386 . S
H2233 C2249 0.930 . S
H2234 C2250 0.931 . S
C2235 H2223 0.929 . S
C2235 C2229 1.390 . S
C2235 C2232 1.386 . S
C2236 C2231 1.490 . S
C2236 C2238 1.395 . S
C2236 C2239 1.403 . S
H2237 C2243 0.930 . S
C2238 H2224 0.930 . S
C2238 C2236 1.395 . S
C2238 C2241 1.403 . S
C2239 C2236 1.403 . S
C2239 C2240 1.524 . S
C2239 C2243 1.400 . S
C2240 H2225 0.960 . S
C2240 H2226 0.960 . S
C2240 H2227 0.960 . S
C2240 C2239 1.524 . S
C2241 C2238 1.403 . S
C2241 C2242 1.392 . S
C2241 C2245 1.495 . S
C2242 C2241 1.392 . S
C2242 C2243 1.385 . S
C2242 C2244 1.478 . S
C2243 H2237 0.930 . S
C2243 C2239 1.400 . S
C2243 C2242 1.385 . S
C2244 C2242 1.478 . S
C2244 C2246 1.381 . S
C2244 C2250 1.383 . S
C2245 C2241 1.495 . S
C2245 H2251 0.959 . S
C2245 H2252 0.961 . S
C2245 H2253 0.960 . S
C2246 C2244 1.381 . S
C2246 C2247 1.394 . S
C2246 H2254 0.930 . S
C2247 C2246 1.394 . S
C2247 C2248 1.383 . S
C2247 H2255 0.929 . S
C2248 C2247 1.383 . S
C2248 C2249 1.377 . S
C2249 H2233 0.930 . S
C2249 C2248 1.377 . S
C2249 C2250 1.379 . S
C2250 H2234 0.931 . S
C2250 C2244 1.383 . S
C2250 C2249 1.379 . S
H2251 C2245 0.959 . S
H2252 C2245 0.961 . S
H2253 C2245 0.960 . S
H2254 C2246 0.930 . S
H2255 C2247 0.929 . S
H2256 C2264 0.929 . S
H2257 C2266 0.930 . S
H2258 C2268 0.930 . S
H2259 C2271 0.929 . S
H2260 C2274 0.930 . S
H2261 C2276 0.960 . S
H2262 C2276 0.960 . S
H2263 C2276 0.960 . S
C2264 H2256 0.929 . S
C2264 C2265 1.377 . S
C2264 C2266 1.384 . S
C2265 C2264 1.377 . S
C2265 C2271 1.390 . S
C2266 H2257 0.930 . S
C2266 C2264 1.384 . S
C2266 C2267 1.372 . S
C2267 C2266 1.372 . S
C2267 C2268 1.400 . S
C2267 C2272 1.490 1_565 S
C2268 H2258 0.930 . S
C2268 C2267 1.400 . S
C2268 C2271 1.386 . S
H2269 C2285 0.930 . S
H2270 C2286 0.931 . S
C2271 H2259 0.929 . S
C2271 C2265 1.390 . S
C2271 C2268 1.386 . S
C2272 C2267 1.490 1_545 S
C2272 C2274 1.395 . S
C2272 C2275 1.403 . S
H2273 C2279 0.930 . S
C2274 H2260 0.930 . S
C2274 C2272 1.395 . S
C2274 C2277 1.403 . S
C2275 C2272 1.403 . S
C2275 C2276 1.524 . S
C2275 C2279 1.400 . S
C2276 H2261 0.960 . S
C2276 H2262 0.960 . S
C2276 H2263 0.960 . S
C2276 C2275 1.524 . S
C2277 C2274 1.403 . S
C2277 C2278 1.392 . S
C2277 C2281 1.495 . S
C2278 C2277 1.392 . S
C2278 C2279 1.385 . S
C2278 C2280 1.478 . S
C2279 H2273 0.930 . S
C2279 C2275 1.400 . S
C2279 C2278 1.385 . S
C2280 C2278 1.478 . S
C2280 C2282 1.381 . S
C2280 C2286 1.383 . S
C2281 C2277 1.495 . S
C2281 H2287 0.959 . S
C2281 H2288 0.961 . S
C2281 H2289 0.960 . S
C2282 C2280 1.381 . S
C2282 C2283 1.394 . S
C2282 H2290 0.930 . S
C2283 C2282 1.394 . S
C2283 C2284 1.383 . S
C2283 H2291 0.929 . S
C2284 C2283 1.383 . S
C2284 C2285 1.377 . S
C2285 H2269 0.930 . S
C2285 C2284 1.377 . S
C2285 C2286 1.379 . S
C2286 H2270 0.931 . S
C2286 C2280 1.383 . S
C2286 C2285 1.379 . S
H2287 C2281 0.959 . S
H2288 C2281 0.961 . S
H2289 C2281 0.960 . S
H2290 C2282 0.930 . S
H2291 C2283 0.929 . S
H2292 C2300 0.929 . S
H2293 C2302 0.930 . S
H2294 C2304 0.930 . S
H2295 C2307 0.929 . S
H2296 C2310 0.930 . S
H2297 C2312 0.960 . S
H2298 C2312 0.960 . S
H2299 C2312 0.960 . S
C2300 H2292 0.929 . S
C2300 C2301 1.377 . S
C2300 C2302 1.384 . S
C2301 C2300 1.377 . S
C2301 C2307 1.390 . S
C2302 H2293 0.930 . S
C2302 C2300 1.384 . S
C2302 C2303 1.372 . S
C2303 C2302 1.372 . S
C2303 C2304 1.400 . S
C2303 C2308 1.490 . S
C2304 H2294 0.930 . S
C2304 C2303 1.400 . S
C2304 C2307 1.386 . S
H2305 C2321 0.930 . S
H2306 C2322 0.931 . S
C2307 H2295 0.929 . S
C2307 C2301 1.390 . S
C2307 C2304 1.386 . S
C2308 C2303 1.490 . S
C2308 C2310 1.395 . S
C2308 C2311 1.403 . S
H2309 C2315 0.930 . S
C2310 H2296 0.930 . S
C2310 C2308 1.395 . S
C2310 C2313 1.403 . S
C2311 C2308 1.403 . S
C2311 C2312 1.524 . S
C2311 C2315 1.400 . S
C2312 H2297 0.960 . S
C2312 H2298 0.960 . S
C2312 H2299 0.960 . S
C2312 C2311 1.524 . S
C2313 C2310 1.403 . S
C2313 C2314 1.392 . S
C2313 C2317 1.495 . S
C2314 C2313 1.392 . S
C2314 C2315 1.385 . S
C2314 C2316 1.478 . S
C2315 H2309 0.930 . S
C2315 C2311 1.400 . S
C2315 C2314 1.385 . S
C2316 C2314 1.478 . S
C2316 C2318 1.381 . S
C2316 C2322 1.383 . S
C2317 C2313 1.495 . S
C2317 H2323 0.959 . S
C2317 H2324 0.961 . S
C2317 H2325 0.960 . S
C2318 C2316 1.381 . S
C2318 C2319 1.394 . S
C2318 H2326 0.930 . S
C2319 C2318 1.394 . S
C2319 C2320 1.383 . S
C2319 H2327 0.929 . S
C2320 C2319 1.383 . S
C2320 C2321 1.377 . S
C2321 H2305 0.930 . S
C2321 C2320 1.377 . S
C2321 C2322 1.379 . S
C2322 H2306 0.931 . S
C2322 C2316 1.383 . S
C2322 C2321 1.379 . S
H2323 C2317 0.959 . S
H2324 C2317 0.961 . S
H2325 C2317 0.960 . S
H2326 C2318 0.930 . S
H2327 C2319 0.929 . S
H2328 C2336 0.929 . S
H2329 C2338 0.930 . S
H2330 C2340 0.930 . S
H2331 C2343 0.929 . S
H2332 C2346 0.930 . S
H2333 C2348 0.960 . S
H2334 C2348 0.960 . S
H2335 C2348 0.960 . S
C2336 H2328 0.929 . S
C2336 C2337 1.377 . S
C2336 C2338 1.384 . S
C2337 C2336 1.377 . S
C2337 C2343 1.390 . S
C2338 H2329 0.930 . S
C2338 C2336 1.384 . S
C2338 C2339 1.372 . S
C2339 C2338 1.372 . S
C2339 C2340 1.400 . S
C2339 C2344 1.490 . S
C2340 H2330 0.930 . S
C2340 C2339 1.400 . S
C2340 C2343 1.386 . S
H2341 C2357 0.930 . S
H2342 C2358 0.931 . S
C2343 H2331 0.929 . S
C2343 C2337 1.390 . S
C2343 C2340 1.386 . S
C2344 C2339 1.490 . S
C2344 C2346 1.395 . S
C2344 C2347 1.403 . S
H2345 C2351 0.930 . S
C2346 H2332 0.930 . S
C2346 C2344 1.395 . S
C2346 C2349 1.403 . S
C2347 C2344 1.403 . S
C2347 C2348 1.524 . S
C2347 C2351 1.400 . S
C2348 H2333 0.960 . S
C2348 H2334 0.960 . S
C2348 H2335 0.960 . S
C2348 C2347 1.524 . S
C2349 C2346 1.403 . S
C2349 C2350 1.392 . S
C2349 C2353 1.495 . S
C2350 C2349 1.392 . S
C2350 C2351 1.385 . S
C2350 C2352 1.478 . S
C2351 H2345 0.930 . S
C2351 C2347 1.400 . S
C2351 C2350 1.385 . S
C2352 C2350 1.478 . S
C2352 C2354 1.381 . S
C2352 C2358 1.383 . S
C2353 C2349 1.495 . S
C2353 H2359 0.959 . S
C2353 H2360 0.961 . S
C2353 H2361 0.960 . S
C2354 C2352 1.381 . S
C2354 C2355 1.394 . S
C2354 H2362 0.930 . S
C2355 C2354 1.394 . S
C2355 C2356 1.383 . S
C2355 H2363 0.929 . S
C2356 C2355 1.383 . S
C2356 C2357 1.377 . S
C2357 H2341 0.930 . S
C2357 C2356 1.377 . S
C2357 C2358 1.379 . S
C2358 H2342 0.931 . S
C2358 C2352 1.383 . S
C2358 C2357 1.379 . S
H2359 C2353 0.959 . S
H2360 C2353 0.961 . S
H2361 C2353 0.960 . S
H2362 C2354 0.930 . S
H2363 C2355 0.929 . S
H2364 C2372 0.929 . S
H2365 C2374 0.930 . S
H2366 C2376 0.930 . S
H2367 C2379 0.929 . S
H2368 C2382 0.930 . S
H2369 C2384 0.960 . S
H2370 C2384 0.960 . S
H2371 C2384 0.960 . S
C2372 H2364 0.929 . S
C2372 C2373 1.377 . S
C2372 C2374 1.384 . S
C2373 C2372 1.377 . S
C2373 C2379 1.390 . S
C2374 H2365 0.930 . S
C2374 C2372 1.384 . S
C2374 C2375 1.372 . S
C2375 C2374 1.372 . S
C2375 C2376 1.400 . S
C2375 C2380 1.490 . S
C2376 H2366 0.930 . S
C2376 C2375 1.400 . S
C2376 C2379 1.386 . S
H2377 C2393 0.930 . S
H2378 C2394 0.931 . S
C2379 H2367 0.929 . S
C2379 C2373 1.390 . S
C2379 C2376 1.386 . S
C2380 C2375 1.490 . S
C2380 C2382 1.395 . S
C2380 C2383 1.403 . S
H2381 C2387 0.930 . S
C2382 H2368 0.930 . S
C2382 C2380 1.395 . S
C2382 C2385 1.403 . S
C2383 C2380 1.403 . S
C2383 C2384 1.524 . S
C2383 C2387 1.400 . S
C2384 H2369 0.960 . S
C2384 H2370 0.960 . S
C2384 H2371 0.960 . S
C2384 C2383 1.524 . S
C2385 C2382 1.403 . S
C2385 C2386 1.392 . S
C2385 C2389 1.495 . S
C2386 C2385 1.392 . S
C2386 C2387 1.385 . S
C2386 C2388 1.478 . S
C2387 H2381 0.930 . S
C2387 C2383 1.400 . S
C2387 C2386 1.385 . S
C2388 C2386 1.478 . S
C2388 C2390 1.381 . S
C2388 C2394 1.383 . S
C2389 C2385 1.495 . S
C2389 H2395 0.959 . S
C2389 H2396 0.961 . S
C2389 H2397 0.960 . S
C2390 C2388 1.381 . S
C2390 C2391 1.394 . S
C2390 H2398 0.930 . S
C2391 C2390 1.394 . S
C2391 C2392 1.383 . S
C2391 H2399 0.929 . S
C2392 C2391 1.383 . S
C2392 C2393 1.377 . S
C2393 H2377 0.930 . S
C2393 C2392 1.377 . S
C2393 C2394 1.379 . S
C2394 H2378 0.931 . S
C2394 C2388 1.383 . S
C2394 C2393 1.379 . S
H2395 C2389 0.959 . S
H2396 C2389 0.961 . S
H2397 C2389 0.960 . S
H2398 C2390 0.930 . S
H2399 C2391 0.929 . S
H2400 C2408 0.929 . S
H2401 C2410 0.930 . S
H2402 C2412 0.930 . S
H2403 C2415 0.929 . S
H2404 C2418 0.930 . S
H2405 C2420 0.960 . S
H2406 C2420 0.960 . S
H2407 C2420 0.960 . S
C2408 H2400 0.929 . S
C2408 C2409 1.377 . S
C2408 C2410 1.384 . S
C2409 C2408 1.377 . S
C2409 C2415 1.390 . S
C2410 H2401 0.930 . S
C2410 C2408 1.384 . S
C2410 C2411 1.372 . S
C2411 C2410 1.372 . S
C2411 C2412 1.400 . S
C2411 C2416 1.490 . S
C2412 H2402 0.930 . S
C2412 C2411 1.400 . S
C2412 C2415 1.386 . S
H2413 C2429 0.930 . S
H2414 C2430 0.931 . S
C2415 H2403 0.929 . S
C2415 C2409 1.390 . S
C2415 C2412 1.386 . S
C2416 C2411 1.490 . S
C2416 C2418 1.395 . S
C2416 C2419 1.403 . S
H2417 C2423 0.930 . S
C2418 H2404 0.930 . S
C2418 C2416 1.395 . S
C2418 C2421 1.403 . S
C2419 C2416 1.403 . S
C2419 C2420 1.524 . S
C2419 C2423 1.400 . S
C2420 H2405 0.960 . S
C2420 H2406 0.960 . S
C2420 H2407 0.960 . S
C2420 C2419 1.524 . S
C2421 C2418 1.403 . S
C2421 C2422 1.392 . S
C2421 C2425 1.495 . S
C2422 C2421 1.392 . S
C2422 C2423 1.385 . S
C2422 C2424 1.478 . S
C2423 H2417 0.930 . S
C2423 C2419 1.400 . S
C2423 C2422 1.385 . S
C2424 C2422 1.478 . S
C2424 C2426 1.381 . S
C2424 C2430 1.383 . S
C2425 C2421 1.495 . S
C2425 H2431 0.959 . S
C2425 H2432 0.961 . S
C2425 H2433 0.960 . S
C2426 C2424 1.381 . S
C2426 C2427 1.394 . S
C2426 H2434 0.930 . S
C2427 C2426 1.394 . S
C2427 C2428 1.383 . S
C2427 H2435 0.929 . S
C2428 C2427 1.383 . S
C2428 C2429 1.377 . S
C2429 H2413 0.930 . S
C2429 C2428 1.377 . S
C2429 C2430 1.379 . S
C2430 H2414 0.931 . S
C2430 C2424 1.383 . S
C2430 C2429 1.379 . S
H2431 C2425 0.959 . S
H2432 C2425 0.961 . S
H2433 C2425 0.960 . S
H2434 C2426 0.930 . S
H2435 C2427 0.929 . S
H2436 C2444 0.929 . S
H2437 C2446 0.930 . S
H2438 C2448 0.930 . S
H2439 C2451 0.929 . S
H2440 C2454 0.930 . S
H2441 C2456 0.960 . S
H2442 C2456 0.960 . S
H2443 C2456 0.960 . S
C2444 H2436 0.929 . S
C2444 C2445 1.377 . S
C2444 C2446 1.384 . S
C2445 C2444 1.377 . S
C2445 C2451 1.390 . S
C2446 H2437 0.930 . S
C2446 C2444 1.384 . S
C2446 C2447 1.372 . S
C2447 C2446 1.372 . S
C2447 C2448 1.400 . S
C2447 C2452 1.490 . S
C2448 H2438 0.930 . S
C2448 C2447 1.400 . S
C2448 C2451 1.386 . S
H2449 C2465 0.930 . S
H2450 C2466 0.931 . S
C2451 H2439 0.929 . S
C2451 C2445 1.390 . S
C2451 C2448 1.386 . S
C2452 C2447 1.490 . S
C2452 C2454 1.395 . S
C2452 C2455 1.403 . S
H2453 C2459 0.930 . S
C2454 H2440 0.930 . S
C2454 C2452 1.395 . S
C2454 C2457 1.403 . S
C2455 C2452 1.403 . S
C2455 C2456 1.524 . S
C2455 C2459 1.400 . S
C2456 H2441 0.960 . S
C2456 H2442 0.960 . S
C2456 H2443 0.960 . S
C2456 C2455 1.524 . S
C2457 C2454 1.403 . S
C2457 C2458 1.392 . S
C2457 C2461 1.495 . S
C2458 C2457 1.392 . S
C2458 C2459 1.385 . S
C2458 C2460 1.478 . S
C2459 H2453 0.930 . S
C2459 C2455 1.400 . S
C2459 C2458 1.385 . S
C2460 C2458 1.478 . S
C2460 C2462 1.381 . S
C2460 C2466 1.383 . S
C2461 C2457 1.495 . S
C2461 H2467 0.959 . S
C2461 H2468 0.961 . S
C2461 H2469 0.960 . S
C2462 C2460 1.381 . S
C2462 C2463 1.394 . S
C2462 H2470 0.930 . S
C2463 C2462 1.394 . S
C2463 C2464 1.383 . S
C2463 H2471 0.929 . S
C2464 C2463 1.383 . S
C2464 C2465 1.377 . S
C2465 H2449 0.930 . S
C2465 C2464 1.377 . S
C2465 C2466 1.379 . S
C2466 H2450 0.931 . S
C2466 C2460 1.383 . S
C2466 C2465 1.379 . S
H2467 C2461 0.959 . S
H2468 C2461 0.961 . S
H2469 C2461 0.960 . S
H2470 C2462 0.930 . S
H2471 C2463 0.929 . S
H2472 C2480 0.929 . S
H2473 C2482 0.930 . S
H2474 C2484 0.930 . S
H2475 C2487 0.929 . S
H2476 C2490 0.930 . S
H2477 C2492 0.960 . S
H2478 C2492 0.960 . S
H2479 C2492 0.960 . S
C2480 H2472 0.929 . S
C2480 C2481 1.377 . S
C2480 C2482 1.384 . S
C2481 C2480 1.377 . S
C2481 C2487 1.390 . S
C2482 H2473 0.930 . S
C2482 C2480 1.384 . S
C2482 C2483 1.372 . S
C2483 C2482 1.372 . S
C2483 C2484 1.400 . S
C2483 C2488 1.490 . S
C2484 H2474 0.930 . S
C2484 C2483 1.400 . S
C2484 C2487 1.386 . S
H2485 C2501 0.930 . S
H2486 C2502 0.931 . S
C2487 H2475 0.929 . S
C2487 C2481 1.390 . S
C2487 C2484 1.386 . S
C2488 C2483 1.490 . S
C2488 C2490 1.395 . S
C2488 C2491 1.403 . S
H2489 C2495 0.930 . S
C2490 H2476 0.930 . S
C2490 C2488 1.395 . S
C2490 C2493 1.403 . S
C2491 C2488 1.403 . S
C2491 C2492 1.524 . S
C2491 C2495 1.400 . S
C2492 H2477 0.960 . S
C2492 H2478 0.960 . S
C2492 H2479 0.960 . S
C2492 C2491 1.524 . S
C2493 C2490 1.403 . S
C2493 C2494 1.392 . S
C2493 C2497 1.495 . S
C2494 C2493 1.392 . S
C2494 C2495 1.385 . S
C2494 C2496 1.478 . S
C2495 H2489 0.930 . S
C2495 C2491 1.400 . S
C2495 C2494 1.385 . S
C2496 C2494 1.478 . S
C2496 C2498 1.381 . S
C2496 C2502 1.383 . S
C2497 C2493 1.495 . S
C2497 H2503 0.959 . S
C2497 H2504 0.961 . S
C2497 H2505 0.960 . S
C2498 C2496 1.381 . S
C2498 C2499 1.394 . S
C2498 H2506 0.930 . S
C2499 C2498 1.394 . S
C2499 C2500 1.383 . S
C2499 H2507 0.929 . S
C2500 C2499 1.383 . S
C2500 C2501 1.377 . S
C2501 H2485 0.930 . S
C2501 C2500 1.377 . S
C2501 C2502 1.379 . S
C2502 H2486 0.931 . S
C2502 C2496 1.383 . S
C2502 C2501 1.379 . S
H2503 C2497 0.959 . S
H2504 C2497 0.961 . S
H2505 C2497 0.960 . S
H2506 C2498 0.930 . S
H2507 C2499 0.929 . S
H2508 C2516 0.929 . S
H2509 C2518 0.930 . S
H2510 C2520 0.930 . S
H2511 C2523 0.929 . S
H2512 C2526 0.930 . S
H2513 C2528 0.919 1_455 S
H2514 C2528 0.986 . S
H2515 C2528 1.014 . S
C2516 H2508 0.929 . S
C2516 C2517 1.377 . S
C2516 C2518 1.384 . S
C2517 C2516 1.377 . S
C2517 C2523 1.390 . S
C2518 H2509 0.930 . S
C2518 C2516 1.384 . S
C2518 C2519 1.372 . S
C2519 C2518 1.372 . S
C2519 C2520 1.400 . S
C2519 C2524 1.441 1_655 S
C2520 H2510 0.930 . S
C2520 C2519 1.400 . S
C2520 C2523 1.386 . S
H2521 C2537 0.930 . S
H2522 C2538 0.931 . S
C2523 H2511 0.929 . S
C2523 C2517 1.390 . S
C2523 C2520 1.386 . S
C2524 C2519 1.441 1_455 S
C2524 C2526 1.423 . S
C2524 C2527 1.425 . S
H2525 C2531 0.930 . S
C2526 H2512 0.930 . S
C2526 C2524 1.423 . S
C2526 C2529 1.403 . S
C2527 C2524 1.425 . S
C2527 C2528 1.490 1_455 S
C2527 C2531 1.400 . S
C2528 H2513 0.919 1_655 S
C2528 H2514 0.986 . S
C2528 H2515 1.014 . S
C2528 C2527 1.490 1_655 S
C2529 C2526 1.403 . S
C2529 C2530 1.392 . S
C2529 C2533 1.495 . S
C2530 C2529 1.392 . S
C2530 C2531 1.385 . S
C2530 C2532 1.478 . S
C2531 H2525 0.930 . S
C2531 C2527 1.400 . S
C2531 C2530 1.385 . S
C2532 C2530 1.478 . S
C2532 C2534 1.381 . S
C2532 C2538 1.383 . S
C2533 C2529 1.495 . S
C2533 H2539 0.959 . S
C2533 H2540 0.961 . S
C2533 H2541 0.960 . S
C2534 C2532 1.381 . S
C2534 C2535 1.394 . S
C2534 H2542 0.930 . S
C2535 C2534 1.394 . S
C2535 C2536 1.383 . S
C2535 H2543 0.929 . S
C2536 C2535 1.383 . S
C2536 C2537 1.377 . S
C2537 H2521 0.930 . S
C2537 C2536 1.377 . S
C2537 C2538 1.379 . S
C2538 H2522 0.931 . S
C2538 C2532 1.383 . S
C2538 C2537 1.379 . S
H2539 C2533 0.959 . S
H2540 C2533 0.961 . S
H2541 C2533 0.960 . S
H2542 C2534 0.930 . S
H2543 C2535 0.929 . S
H2544 C2552 0.929 . S
H2545 C2554 0.930 . S
H2546 C2556 0.930 . S
H2547 C2559 0.929 . S
H2548 C2562 0.930 . S
H2549 C2564 0.960 . S
H2550 C2564 0.960 . S
H2551 C2564 0.960 . S
C2552 H2544 0.929 . S
C2552 C2553 1.377 . S
C2552 C2554 1.384 . S
C2553 C2552 1.377 . S
C2553 C2559 1.390 . S
C2554 H2545 0.930 . S
C2554 C2552 1.384 . S
C2554 C2555 1.372 . S
C2555 C2554 1.372 . S
C2555 C2556 1.400 . S
C2555 C2560 1.490 . S
C2556 H2546 0.930 . S
C2556 C2555 1.400 . S
C2556 C2559 1.386 . S
H2557 C2573 0.930 . S
H2558 C2574 0.931 . S
C2559 H2547 0.929 . S
C2559 C2553 1.390 . S
C2559 C2556 1.386 . S
C2560 C2555 1.490 . S
C2560 C2562 1.395 . S
C2560 C2563 1.403 . S
H2561 C2567 0.930 . S
C2562 H2548 0.930 . S
C2562 C2560 1.395 . S
C2562 C2565 1.403 . S
C2563 C2560 1.403 . S
C2563 C2564 1.524 . S
C2563 C2567 1.400 . S
C2564 H2549 0.960 . S
C2564 H2550 0.960 . S
C2564 H2551 0.960 . S
C2564 C2563 1.524 . S
C2565 C2562 1.403 . S
C2565 C2566 1.392 . S
C2565 C2569 1.495 . S
C2566 C2565 1.392 . S
C2566 C2567 1.385 . S
C2566 C2568 1.478 . S
C2567 H2561 0.930 . S
C2567 C2563 1.400 . S
C2567 C2566 1.385 . S
C2568 C2566 1.478 . S
C2568 C2570 1.381 . S
C2568 C2574 1.383 . S
C2569 C2565 1.495 . S
C2569 H2575 0.959 . S
C2569 H2576 0.961 . S
C2569 H2577 0.960 . S
C2570 C2568 1.381 . S
C2570 C2571 1.394 . S
C2570 H2578 0.930 . S
C2571 C2570 1.394 . S
C2571 C2572 1.383 . S
C2571 H2579 0.929 . S
C2572 C2571 1.383 . S
C2572 C2573 1.377 . S
C2573 H2557 0.930 . S
C2573 C2572 1.377 . S
C2573 C2574 1.379 . S
C2574 H2558 0.931 . S
C2574 C2568 1.383 . S
C2574 C2573 1.379 . S
H2575 C2569 0.959 . S
H2576 C2569 0.961 . S
H2577 C2569 0.960 . S
H2578 C2570 0.930 . S
H2579 C2571 0.929 . S
H2580 C2588 0.929 . S
H2581 C2590 0.930 . S
H2582 C2592 0.930 . S
H2583 C2595 0.929 . S
H2584 C2598 0.930 . S
H2585 C2600 0.960 . S
H2586 C2600 0.960 . S
H2587 C2600 0.960 . S
C2588 H2580 0.929 . S
C2588 C2589 1.377 . S
C2588 C2590 1.384 . S
C2589 C2588 1.377 . S
C2589 C2595 1.390 . S
C2590 H2581 0.930 . S
C2590 C2588 1.384 . S
C2590 C2591 1.372 . S
C2591 C2590 1.372 . S
C2591 C2592 1.400 . S
C2591 C2596 1.490 . S
C2592 H2582 0.930 . S
C2592 C2591 1.400 . S
C2592 C2595 1.386 . S
H2593 C2609 0.930 . S
H2594 C2610 0.931 . S
C2595 H2583 0.929 . S
C2595 C2589 1.390 . S
C2595 C2592 1.386 . S
C2596 C2591 1.490 . S
C2596 C2598 1.395 . S
C2596 C2599 1.403 . S
H2597 C2603 0.930 1_655 S
C2598 H2584 0.930 . S
C2598 C2596 1.395 . S
C2598 C2601 1.403 . S
C2599 C2596 1.403 . S
C2599 C2600 1.524 . S
C2599 C2603 1.400 . S
C2600 H2585 0.960 . S
C2600 H2586 0.960 . S
C2600 H2587 0.960 . S
C2600 C2599 1.524 . S
C2601 C2598 1.403 . S
C2601 C2602 1.392 . S
C2601 C2605 1.495 . S
C2602 C2601 1.392 . S
C2602 C2603 1.385 . S
C2602 C2604 1.478 1_455 S
C2603 H2597 0.930 1_455 S
C2603 C2599 1.400 . S
C2603 C2602 1.385 . S
C2604 C2602 1.478 1_655 S
C2604 C2606 1.381 . S
C2604 C2610 1.383 . S
C2605 C2601 1.495 . S
C2605 H2611 0.959 . S
C2605 H2612 0.961 . S
C2605 H2613 0.960 . S
C2606 C2604 1.381 . S
C2606 C2607 1.394 . S
C2606 H2614 0.930 . S
C2607 C2606 1.394 . S
C2607 C2608 1.383 . S
C2607 H2615 0.929 . S
C2608 C2607 1.383 . S
C2608 C2609 1.377 . S
C2609 H2593 0.930 . S
C2609 C2608 1.377 . S
C2609 C2610 1.379 . S
C2610 H2594 0.931 . S
C2610 C2604 1.383 . S
C2610 C2609 1.379 . S
H2611 C2605 0.959 . S
H2612 C2605 0.961 . S
H2613 C2605 0.960 . S
H2614 C2606 0.930 . S
H2615 C2607 0.929 . S
H2616 C2624 0.929 . S
H2617 C2626 0.930 . S
H2618 C2628 0.930 . S
H2619 C2631 0.929 . S
H2620 C2634 0.930 . S
H2621 C2636 0.960 . S
H2622 C2636 0.960 . S
H2623 C2636 0.960 . S
C2624 H2616 0.929 . S
C2624 C2625 1.377 . S
C2624 C2626 1.384 . S
C2625 C2624 1.377 . S
C2625 C2631 1.390 . S
C2626 H2617 0.930 . S
C2626 C2624 1.384 . S
C2626 C2627 1.372 . S
C2627 C2626 1.372 . S
C2627 C2628 1.400 . S
C2627 C2632 1.490 . S
C2628 H2618 0.930 . S
C2628 C2627 1.400 . S
C2628 C2631 1.386 . S
H2629 C2645 0.930 . S
H2630 C2646 0.931 . S
C2631 H2619 0.929 . S
C2631 C2625 1.390 . S
C2631 C2628 1.386 . S
C2632 C2627 1.490 . S
C2632 C2634 1.395 . S
C2632 C2635 1.403 . S
H2633 C2639 0.930 . S
C2634 H2620 0.930 . S
C2634 C2632 1.395 . S
C2634 C2637 1.403 . S
C2635 C2632 1.403 . S
C2635 C2636 1.524 . S
C2635 C2639 1.400 . S
C2636 H2621 0.960 . S
C2636 H2622 0.960 . S
C2636 H2623 0.960 . S
C2636 C2635 1.524 . S
C2637 C2634 1.403 . S
C2637 C2638 1.392 . S
C2637 C2641 1.495 . S
C2638 C2637 1.392 . S
C2638 C2639 1.385 . S
C2638 C2640 1.478 . S
C2639 H2633 0.930 . S
C2639 C2635 1.400 . S
C2639 C2638 1.385 . S
C2640 C2638 1.478 . S
C2640 C2642 1.381 . S
C2640 C2646 1.383 . S
C2641 C2637 1.495 . S
C2641 H2647 0.959 . S
C2641 H2648 0.961 . S
C2641 H2649 0.960 . S
C2642 C2640 1.381 . S
C2642 C2643 1.394 . S
C2642 H2650 0.930 . S
C2643 C2642 1.394 . S
C2643 C2644 1.383 . S
C2643 H2651 0.929 . S
C2644 C2643 1.383 . S
C2644 C2645 1.377 . S
C2645 H2629 0.930 . S
C2645 C2644 1.377 . S
C2645 C2646 1.379 . S
C2646 H2630 0.931 . S
C2646 C2640 1.383 . S
C2646 C2645 1.379 . S
H2647 C2641 0.959 . S
H2648 C2641 0.961 . S
H2649 C2641 0.960 . S
H2650 C2642 0.930 . S
H2651 C2643 0.929 . S
H2652 C2660 0.929 . S
H2653 C2662 0.930 . S
H2654 C2664 0.930 . S
H2655 C2667 0.929 . S
H2656 C2670 0.930 . S
H2657 C2672 0.960 . S
H2658 C2672 0.960 . S
H2659 C2672 0.960 . S
C2660 H2652 0.929 . S
C2660 C2661 1.377 . S
C2660 C2662 1.384 . S
C2661 C2660 1.377 . S
C2661 C2667 1.390 . S
C2662 H2653 0.930 . S
C2662 C2660 1.384 . S
C2662 C2663 1.372 . S
C2663 C2662 1.372 . S
C2663 C2664 1.400 . S
C2663 C2668 1.490 . S
C2664 H2654 0.930 . S
C2664 C2663 1.400 . S
C2664 C2667 1.386 . S
H2665 C2681 0.930 . S
H2666 C2682 0.931 . S
C2667 H2655 0.929 . S
C2667 C2661 1.390 . S
C2667 C2664 1.386 . S
C2668 C2663 1.490 . S
C2668 C2670 1.395 . S
C2668 C2671 1.403 . S
H2669 C2675 0.930 . S
C2670 H2656 0.930 . S
C2670 C2668 1.395 . S
C2670 C2673 1.403 . S
C2671 C2668 1.403 . S
C2671 C2672 1.524 . S
C2671 C2675 1.400 . S
C2672 H2657 0.960 . S
C2672 H2658 0.960 . S
C2672 H2659 0.960 . S
C2672 C2671 1.524 . S
C2673 C2670 1.403 . S
C2673 C2674 1.392 . S
C2673 C2677 1.495 . S
C2674 C2673 1.392 . S
C2674 C2675 1.385 . S
C2674 C2676 1.478 . S
C2675 H2669 0.930 . S
C2675 C2671 1.400 . S
C2675 C2674 1.385 . S
C2676 C2674 1.478 . S
C2676 C2678 1.381 . S
C2676 C2682 1.383 . S
C2677 C2673 1.495 . S
C2677 H2683 0.959 . S
C2677 H2684 0.961 . S
C2677 H2685 0.960 . S
C2678 C2676 1.381 . S
C2678 C2679 1.394 . S
C2678 H2686 0.930 . S
C2679 C2678 1.394 . S
C2679 C2680 1.383 . S
C2679 H2687 0.929 . S
C2680 C2679 1.383 . S
C2680 C2681 1.377 . S
C2681 H2665 0.930 . S
C2681 C2680 1.377 . S
C2681 C2682 1.379 . S
C2682 H2666 0.931 . S
C2682 C2676 1.383 . S
C2682 C2681 1.379 . S
H2683 C2677 0.959 . S
H2684 C2677 0.961 . S
H2685 C2677 0.960 . S
H2686 C2678 0.930 . S
H2687 C2679 0.929 . S
H2688 C2696 0.929 . S
H2689 C2698 0.930 . S
H2690 C2700 0.930 . S
H2691 C2703 0.929 . S
H2692 C2706 0.930 . S
H2693 C2708 0.960 . S
H2694 C2708 0.960 . S
H2695 C2708 0.960 . S
C2696 H2688 0.929 . S
C2696 C2697 1.377 . S
C2696 C2698 1.384 . S
C2697 C2696 1.377 . S
C2697 C2703 1.390 . S
C2698 H2689 0.930 . S
C2698 C2696 1.384 . S
C2698 C2699 1.372 . S
C2699 C2698 1.372 . S
C2699 C2700 1.400 . S
C2699 C2704 1.490 . S
C2700 H2690 0.930 . S
C2700 C2699 1.400 . S
C2700 C2703 1.386 . S
H2701 C2717 0.930 . S
H2702 C2718 0.931 . S
C2703 H2691 0.929 . S
C2703 C2697 1.390 . S
C2703 C2700 1.386 . S
C2704 C2699 1.490 . S
C2704 C2706 1.395 . S
C2704 C2707 1.403 . S
H2705 C2711 0.930 . S
C2706 H2692 0.930 . S
C2706 C2704 1.395 . S
C2706 C2709 1.403 . S
C2707 C2704 1.403 . S
C2707 C2708 1.524 . S
C2707 C2711 1.400 . S
C2708 H2693 0.960 . S
C2708 H2694 0.960 . S
C2708 H2695 0.960 . S
C2708 C2707 1.524 . S
C2709 C2706 1.403 . S
C2709 C2710 1.392 . S
C2709 C2713 1.495 . S
C2710 C2709 1.392 . S
C2710 C2711 1.385 . S
C2710 C2712 1.478 . S
C2711 H2705 0.930 . S
C2711 C2707 1.400 . S
C2711 C2710 1.385 . S
C2712 C2710 1.478 . S
C2712 C2714 1.381 . S
C2712 C2718 1.383 . S
C2713 C2709 1.495 . S
C2713 H2719 0.959 . S
C2713 H2720 0.961 . S
C2713 H2721 0.960 . S
C2714 C2712 1.381 . S
C2714 C2715 1.394 . S
C2714 H2722 0.930 . S
C2715 C2714 1.394 . S
C2715 C2716 1.383 . S
C2715 H2723 0.929 . S
C2716 C2715 1.383 . S
C2716 C2717 1.377 . S
C2717 H2701 0.930 . S
C2717 C2716 1.377 . S
C2717 C2718 1.379 . S
C2718 H2702 0.931 . S
C2718 C2712 1.383 . S
C2718 C2717 1.379 . S
H2719 C2713 0.959 . S
H2720 C2713 0.961 . S
H2721 C2713 0.960 . S
H2722 C2714 0.930 . S
H2723 C2715 0.929 . S
H2724 C2732 0.929 . S
H2725 C2734 0.930 . S
H2726 C2736 0.930 . S
H2727 C2739 0.929 . S
H2728 C2742 0.930 . S
H2729 C2744 0.960 . S
H2730 C2744 0.960 . S
H2731 C2744 0.960 . S
C2732 H2724 0.929 . S
C2732 C2733 1.377 . S
C2732 C2734 1.384 . S
C2733 C2732 1.377 . S
C2733 C2739 1.390 . S
C2734 H2725 0.930 . S
C2734 C2732 1.384 . S
C2734 C2735 1.372 . S
C2735 C2734 1.372 . S
C2735 C2736 1.400 . S
C2735 C2740 1.490 . S
C2736 H2726 0.930 . S
C2736 C2735 1.400 . S
C2736 C2739 1.386 . S
H2737 C2753 0.930 . S
H2738 C2754 0.931 . S
C2739 H2727 0.929 . S
C2739 C2733 1.390 . S
C2739 C2736 1.386 . S
C2740 C2735 1.490 . S
C2740 C2742 1.395 . S
C2740 C2743 1.403 . S
H2741 C2747 0.930 . S
C2742 H2728 0.930 . S
C2742 C2740 1.395 . S
C2742 C2745 1.403 . S
C2743 C2740 1.403 . S
C2743 C2744 1.524 . S
C2743 C2747 1.400 . S
C2744 H2729 0.960 . S
C2744 H2730 0.960 . S
C2744 H2731 0.960 . S
C2744 C2743 1.524 . S
C2745 C2742 1.403 . S
C2745 C2746 1.422 . S
C2745 C2749 1.495 1_554 S
C2746 C2745 1.422 . S
C2746 C2747 1.426 . S
C2746 C2748 1.410 1_554 S
C2747 H2741 0.930 . S
C2747 C2743 1.400 . S
C2747 C2746 1.426 . S
C2748 C2746 1.410 1_556 S
C2748 C2750 1.381 . S
C2748 C2754 1.383 . S
C2749 C2745 1.495 1_556 S
C2749 H2755 0.959 1_556 S
C2749 H2756 0.961 . S
C2749 H2757 0.960 . S
C2750 C2748 1.381 . S
C2750 C2751 1.394 . S
C2750 H2758 0.930 . S
C2751 C2750 1.394 . S
C2751 C2752 1.383 . S
C2751 H2759 0.929 . S
C2752 C2751 1.383 . S
C2752 C2753 1.377 . S
C2753 H2737 0.930 . S
C2753 C2752 1.377 . S
C2753 C2754 1.379 . S
C2754 H2738 0.931 . S
C2754 C2748 1.383 . S
C2754 C2753 1.379 . S
H2755 C2749 0.959 1_554 S
H2756 C2749 0.961 . S
H2757 C2749 0.960 . S
H2758 C2750 0.930 . S
H2759 C2751 0.929 . S
H2760 C2768 0.929 . S
H2761 C2770 0.930 . S
H2762 C2772 0.930 . S
H2763 C2775 0.929 . S
H2764 C2778 0.930 . S
H2765 C2780 0.960 . S
H2766 C2780 0.960 . S
H2767 C2780 0.960 . S
C2768 H2760 0.929 . S
C2768 C2769 1.377 . S
C2768 C2770 1.384 . S
C2769 C2768 1.377 . S
C2769 C2775 1.390 . S
C2770 H2761 0.930 . S
C2770 C2768 1.384 . S
C2770 C2771 1.372 . S
C2771 C2770 1.372 . S
C2771 C2772 1.400 . S
C2771 C2776 1.490 . S
C2772 H2762 0.930 . S
C2772 C2771 1.400 . S
C2772 C2775 1.386 . S
H2773 C2789 0.930 . S
H2774 C2790 0.931 . S
C2775 H2763 0.929 . S
C2775 C2769 1.390 . S
C2775 C2772 1.386 . S
C2776 C2771 1.490 . S
C2776 C2778 1.395 . S
C2776 C2779 1.403 . S
H2777 C2783 0.930 . S
C2778 H2764 0.930 . S
C2778 C2776 1.395 . S
C2778 C2781 1.403 . S
C2779 C2776 1.403 . S
C2779 C2780 1.524 . S
C2779 C2783 1.400 . S
C2780 H2765 0.960 . S
C2780 H2766 0.960 . S
C2780 H2767 0.960 . S
C2780 C2779 1.524 . S
C2781 C2778 1.403 . S
C2781 C2782 1.392 . S
C2781 C2785 1.495 . S
C2782 C2781 1.392 . S
C2782 C2783 1.385 . S
C2782 C2784 1.478 . S
C2783 H2777 0.930 . S
C2783 C2779 1.400 . S
C2783 C2782 1.385 . S
C2784 C2782 1.478 . S
C2784 C2786 1.381 . S
C2784 C2790 1.383 . S
C2785 C2781 1.495 . S
C2785 H2791 0.959 . S
C2785 H2792 0.961 . S
C2785 H2793 0.960 . S
C2786 C2784 1.381 . S
C2786 C2787 1.394 . S
C2786 H2794 0.930 . S
C2787 C2786 1.394 . S
C2787 C2788 1.383 . S
C2787 H2795 0.929 . S
C2788 C2787 1.383 . S
C2788 C2789 1.377 . S
C2789 H2773 0.930 . S
C2789 C2788 1.377 . S
C2789 C2790 1.379 . S
C2790 H2774 0.931 . S
C2790 C2784 1.383 . S
C2790 C2789 1.379 . S
H2791 C2785 0.959 . S
H2792 C2785 0.961 . S
H2793 C2785 0.960 . S
H2794 C2786 0.930 . S
H2795 C2787 0.929 . S
H2796 C2804 0.929 . S
H2797 C2806 0.930 . S
H2798 C2808 0.930 . S
H2799 C2811 0.929 . S
H2800 C2814 0.930 . S
H2801 C2816 0.960 . S
H2802 C2816 0.960 . S
H2803 C2816 0.960 . S
C2804 H2796 0.929 . S
C2804 C2805 1.377 . S
C2804 C2806 1.384 . S
C2805 C2804 1.377 . S
C2805 C2811 1.390 . S
C2806 H2797 0.930 . S
C2806 C2804 1.384 . S
C2806 C2807 1.372 . S
C2807 C2806 1.372 . S
C2807 C2808 1.400 . S
C2807 C2812 1.490 . S
C2808 H2798 0.930 . S
C2808 C2807 1.400 . S
C2808 C2811 1.386 . S
H2809 C2825 0.930 . S
H2810 C2826 0.931 . S
C2811 H2799 0.929 . S
C2811 C2805 1.390 . S
C2811 C2808 1.386 . S
C2812 C2807 1.490 . S
C2812 C2814 1.395 . S
C2812 C2815 1.403 . S
H2813 C2819 0.930 . S
C2814 H2800 0.930 . S
C2814 C2812 1.395 . S
C2814 C2817 1.403 . S
C2815 C2812 1.403 . S
C2815 C2816 1.524 . S
C2815 C2819 1.400 . S
C2816 H2801 0.960 . S
C2816 H2802 0.960 . S
C2816 H2803 0.960 . S
C2816 C2815 1.524 . S
C2817 C2814 1.403 . S
C2817 C2818 1.392 . S
C2817 C2821 1.495 . S
C2818 C2817 1.392 . S
C2818 C2819 1.385 . S
C2818 C2820 1.478 . S
C2819 H2813 0.930 . S
C2819 C2815 1.400 . S
C2819 C2818 1.385 . S
C2820 C2818 1.478 . S
C2820 C2822 1.381 . S
C2820 C2826 1.383 . S
C2821 C2817 1.495 . S
C2821 H2827 0.959 . S
C2821 H2828 0.961 . S
C2821 H2829 0.960 . S
C2822 C2820 1.381 . S
C2822 C2823 1.394 . S
C2822 H2830 0.930 . S
C2823 C2822 1.394 . S
C2823 C2824 1.383 . S
C2823 H2831 0.929 . S
C2824 C2823 1.383 . S
C2824 C2825 1.377 . S
C2825 H2809 0.930 . S
C2825 C2824 1.377 . S
C2825 C2826 1.379 . S
C2826 H2810 0.931 . S
C2826 C2820 1.383 . S
C2826 C2825 1.379 . S
H2827 C2821 0.959 . S
H2828 C2821 0.961 . S
H2829 C2821 0.960 . S
H2830 C2822 0.930 . S
H2831 C2823 0.929 . S
H2832 C2840 0.929 . S
H2833 C2842 0.930 . S
H2834 C2844 0.930 . S
H2835 C2847 0.929 . S
H2836 C2850 0.930 . S
H2837 C2852 0.960 . S
H2838 C2852 0.960 . S
H2839 C2852 0.960 . S
C2840 H2832 0.929 . S
C2840 C2841 1.377 . S
C2840 C2842 1.384 . S
C2841 C2840 1.377 . S
C2841 C2847 1.390 . S
C2842 H2833 0.930 . S
C2842 C2840 1.384 . S
C2842 C2843 1.372 . S
C2843 C2842 1.372 . S
C2843 C2844 1.400 . S
C2843 C2848 1.490 . S
C2844 H2834 0.930 . S
C2844 C2843 1.400 . S
C2844 C2847 1.386 . S
H2845 C2861 0.930 . S
H2846 C2862 0.931 . S
C2847 H2835 0.929 . S
C2847 C2841 1.390 . S
C2847 C2844 1.386 . S
C2848 C2843 1.490 . S
C2848 C2850 1.395 . S
C2848 C2851 1.403 . S
H2849 C2855 0.930 . S
C2850 H2836 0.930 . S
C2850 C2848 1.395 . S
C2850 C2853 1.403 . S
C2851 C2848 1.403 . S
C2851 C2852 1.524 . S
C2851 C2855 1.400 . S
C2852 H2837 0.960 . S
C2852 H2838 0.960 . S
C2852 H2839 0.960 . S
C2852 C2851 1.524 . S
C2853 C2850 1.403 . S
C2853 C2854 1.392 . S
C2853 C2857 1.495 . S
C2854 C2853 1.392 . S
C2854 C2855 1.385 . S
C2854 C2856 1.478 . S
C2855 H2849 0.930 . S
C2855 C2851 1.400 . S
C2855 C2854 1.385 . S
C2856 C2854 1.478 . S
C2856 C2858 1.381 . S
C2856 C2862 1.383 . S
C2857 C2853 1.495 . S
C2857 H2863 0.959 . S
C2857 H2864 0.961 . S
C2857 H2865 0.960 . S
C2858 C2856 1.381 . S
C2858 C2859 1.394 . S
C2858 H2866 0.930 . S
C2859 C2858 1.394 . S
C2859 C2860 1.383 . S
C2859 H2867 0.929 . S
C2860 C2859 1.383 . S
C2860 C2861 1.377 . S
C2861 H2845 0.930 . S
C2861 C2860 1.377 . S
C2861 C2862 1.379 . S
C2862 H2846 0.931 . S
C2862 C2856 1.383 . S
C2862 C2861 1.379 . S
H2863 C2857 0.959 . S
H2864 C2857 0.961 . S
H2865 C2857 0.960 . S
H2866 C2858 0.930 . S
H2867 C2859 0.929 . S
H2868 C2876 0.929 . S
H2869 C2878 0.930 . S
H2870 C2880 0.930 . S
H2871 C2883 0.929 . S
H2872 C2886 0.930 . S
H2873 C2888 0.960 . S
H2874 C2888 0.960 . S
H2875 C2888 0.960 . S
C2876 H2868 0.929 . S
C2876 C2877 1.377 . S
C2876 C2878 1.384 . S
C2877 C2876 1.377 . S
C2877 C2883 1.390 . S
C2878 H2869 0.930 . S
C2878 C2876 1.384 . S
C2878 C2879 1.372 . S
C2879 C2878 1.372 . S
C2879 C2880 1.400 . S
C2879 C2884 1.490 . S
C2880 H2870 0.930 . S
C2880 C2879 1.400 . S
C2880 C2883 1.386 . S
H2881 C2897 0.930 . S
H2882 C2898 0.931 . S
C2883 H2871 0.929 . S
C2883 C2877 1.390 . S
C2883 C2880 1.386 . S
C2884 C2879 1.490 . S
C2884 C2886 1.395 . S
C2884 C2887 1.403 . S
H2885 C2891 0.930 . S
C2886 H2872 0.930 . S
C2886 C2884 1.395 . S
C2886 C2889 1.403 . S
C2887 C2884 1.403 . S
C2887 C2888 1.524 . S
C2887 C2891 1.400 . S
C2888 H2873 0.960 . S
C2888 H2874 0.960 . S
C2888 H2875 0.960 . S
C2888 C2887 1.524 . S
C2889 C2886 1.403 . S
C2889 C2890 1.392 . S
C2889 C2893 1.482 1_556 S
C2890 C2889 1.392 . S
C2890 C2891 1.385 . S
C2890 C2892 1.478 1_556 S
C2891 H2885 0.930 . S
C2891 C2887 1.400 . S
C2891 C2890 1.385 . S
C2892 C2890 1.478 1_554 S
C2892 C2894 1.381 . S
C2892 C2898 1.383 . S
C2893 C2889 1.482 1_554 S
C2893 H2899 0.947 1_554 S
C2893 H2900 0.971 . S
C2893 H2901 0.976 . S
C2894 C2892 1.381 . S
C2894 C2895 1.394 . S
C2894 H2902 0.930 . S
C2895 C2894 1.394 . S
C2895 C2896 1.383 . S
C2895 H2903 0.929 . S
C2896 C2895 1.383 . S
C2896 C2897 1.377 . S
C2897 H2881 0.930 . S
C2897 C2896 1.377 . S
C2897 C2898 1.379 . S
C2898 H2882 0.931 . S
C2898 C2892 1.383 . S
C2898 C2897 1.379 . S
H2899 C2893 0.947 1_556 S
H2900 C2893 0.971 . S
H2901 C2893 0.976 . S
H2902 C2894 0.930 . S
H2903 C2895 0.929 . S
H2904 C2912 0.929 . S
H2905 C2914 0.930 . S
H2906 C2916 0.930 . S
H2907 C2919 0.929 . S
H2908 C2922 0.930 . S
H2909 C2924 0.960 . S
H2910 C2924 0.960 . S
H2911 C2924 0.960 . S
C2912 H2904 0.929 . S
C2912 C2913 1.377 . S
C2912 C2914 1.384 . S
C2913 C2912 1.377 . S
C2913 C2919 1.390 . S
C2914 H2905 0.930 . S
C2914 C2912 1.384 . S
C2914 C2915 1.372 . S
C2915 C2914 1.372 . S
C2915 C2916 1.400 . S
C2915 C2920 1.490 . S
C2916 H2906 0.930 . S
C2916 C2915 1.400 . S
C2916 C2919 1.386 . S
H2917 C2933 0.930 . S
H2918 C2934 0.931 . S
C2919 H2907 0.929 . S
C2919 C2913 1.390 . S
C2919 C2916 1.386 . S
C2920 C2915 1.490 . S
C2920 C2922 1.395 . S
C2920 C2923 1.403 . S
H2921 C2927 0.930 . S
C2922 H2908 0.930 . S
C2922 C2920 1.395 . S
C2922 C2925 1.403 . S
C2923 C2920 1.403 . S
C2923 C2924 1.524 . S
C2923 C2927 1.400 . S
C2924 H2909 0.960 . S
C2924 H2910 0.960 . S
C2924 H2911 0.960 . S
C2924 C2923 1.524 . S
C2925 C2922 1.403 . S
C2925 C2926 1.392 . S
C2925 C2929 1.495 . S
C2926 C2925 1.392 . S
C2926 C2927 1.385 . S
C2926 C2928 1.478 . S
C2927 H2921 0.930 . S
C2927 C2923 1.400 . S
C2927 C2926 1.385 . S
C2928 C2926 1.478 . S
C2928 C2930 1.381 . S
C2928 C2934 1.383 . S
C2929 C2925 1.495 . S
C2929 H2935 0.959 . S
C2929 H2936 0.961 . S
C2929 H2937 0.960 . S
C2930 C2928 1.381 . S
C2930 C2931 1.394 . S
C2930 H2938 0.930 . S
C2931 C2930 1.394 . S
C2931 C2932 1.383 . S
C2931 H2939 0.929 . S
C2932 C2931 1.383 . S
C2932 C2933 1.377 . S
C2933 H2917 0.930 . S
C2933 C2932 1.377 . S
C2933 C2934 1.379 . S
C2934 H2918 0.931 . S
C2934 C2928 1.383 . S
C2934 C2933 1.379 . S
H2935 C2929 0.959 . S
H2936 C2929 0.961 . S
H2937 C2929 0.960 . S
H2938 C2930 0.930 . S
H2939 C2931 0.929 . S
H2940 C2948 0.929 . S
H2941 C2950 0.930 . S
H2942 C2952 0.930 . S
H2943 C2955 0.929 . S
H2944 C2958 0.930 . S
H2945 C2960 0.960 . S
H2946 C2960 0.960 . S
H2947 C2960 0.960 . S
C2948 H2940 0.929 . S
C2948 C2949 1.377 . S
C2948 C2950 1.384 . S
C2949 C2948 1.377 . S
C2949 C2955 1.390 . S
C2950 H2941 0.930 . S
C2950 C2948 1.384 . S
C2950 C2951 1.372 . S
C2951 C2950 1.372 . S
C2951 C2952 1.400 . S
C2951 C2956 1.490 . S
C2952 H2942 0.930 . S
C2952 C2951 1.400 . S
C2952 C2955 1.386 . S
H2953 C2969 0.930 . S
H2954 C2970 0.931 . S
C2955 H2943 0.929 . S
C2955 C2949 1.390 . S
C2955 C2952 1.386 . S
C2956 C2951 1.490 . S
C2956 C2958 1.395 . S
C2956 C2959 1.403 . S
H2957 C2963 0.930 . S
C2958 H2944 0.930 . S
C2958 C2956 1.395 . S
C2958 C2961 1.403 . S
C2959 C2956 1.403 . S
C2959 C2960 1.524 . S
C2959 C2963 1.400 . S
C2960 H2945 0.960 . S
C2960 H2946 0.960 . S
C2960 H2947 0.960 . S
C2960 C2959 1.524 . S
C2961 C2958 1.403 . S
C2961 C2962 1.392 . S
C2961 C2965 1.495 . S
C2962 C2961 1.392 . S
C2962 C2963 1.385 . S
C2962 C2964 1.478 . S
C2963 H2957 0.930 . S
C2963 C2959 1.400 . S
C2963 C2962 1.385 . S
C2964 C2962 1.478 . S
C2964 C2966 1.381 . S
C2964 C2970 1.383 . S
C2965 C2961 1.495 . S
C2965 H2971 0.959 . S
C2965 H2972 0.961 . S
C2965 H2973 0.960 . S
C2966 C2964 1.381 . S
C2966 C2967 1.394 . S
C2966 H2974 0.930 . S
C2967 C2966 1.394 . S
C2967 C2968 1.383 . S
C2967 H2975 0.929 . S
C2968 C2967 1.383 . S
C2968 C2969 1.377 . S
C2969 H2953 0.930 . S
C2969 C2968 1.377 . S
C2969 C2970 1.379 . S
C2970 H2954 0.931 . S
C2970 C2964 1.383 . S
C2970 C2969 1.379 . S
H2971 C2965 0.959 . S
H2972 C2965 0.961 . S
H2973 C2965 0.960 . S
H2974 C2966 0.930 . S
H2975 C2967 0.929 . S
H2976 C2984 0.929 . S
H2977 C2986 0.930 . S
H2978 C2988 0.930 . S
H2979 C2991 0.929 . S
H2980 C2994 0.930 . S
H2981 C2996 0.960 . S
H2982 C2996 0.960 . S
H2983 C2996 0.960 . S
C2984 H2976 0.929 . S
C2984 C2985 1.377 . S
C2984 C2986 1.384 . S
C2985 C2984 1.377 . S
C2985 C2991 1.390 . S
C2986 H2977 0.930 . S
C2986 C2984 1.384 . S
C2986 C2987 1.372 . S
C2987 C2986 1.372 . S
C2987 C2988 1.400 . S
C2987 C2992 1.490 . S
C2988 H2978 0.930 . S
C2988 C2987 1.400 . S
C2988 C2991 1.386 . S
H2989 C3005 0.930 . S
H2990 C3006 0.931 . S
C2991 H2979 0.929 . S
C2991 C2985 1.390 . S
C2991 C2988 1.386 . S
C2992 C2987 1.490 . S
C2992 C2994 1.395 . S
C2992 C2995 1.403 . S
H2993 C2999 0.930 . S
C2994 H2980 0.930 . S
C2994 C2992 1.395 . S
C2994 C2997 1.403 . S
C2995 C2992 1.403 . S
C2995 C2996 1.524 . S
C2995 C2999 1.400 . S
C2996 H2981 0.960 . S
C2996 H2982 0.960 . S
C2996 H2983 0.960 . S
C2996 C2995 1.524 . S
C2997 C2994 1.403 . S
C2997 C2998 1.392 . S
C2997 C3001 1.495 . S
C2998 C2997 1.392 . S
C2998 C2999 1.385 . S
C2998 C3000 1.478 . S
C2999 H2993 0.930 . S
C2999 C2995 1.400 . S
C2999 C2998 1.385 . S
C3000 C2998 1.478 . S
C3000 C3002 1.381 . S
C3000 C3006 1.383 . S
C3001 C2997 1.495 . S
C3001 H3007 0.959 . S
C3001 H3008 0.961 . S
C3001 H3009 0.960 . S
C3002 C3000 1.381 . S
C3002 C3003 1.394 . S
C3002 H3010 0.930 . S
C3003 C3002 1.394 . S
C3003 C3004 1.383 . S
C3003 H3011 0.929 . S
C3004 C3003 1.383 . S
C3004 C3005 1.377 . S
C3005 H2989 0.930 . S
C3005 C3004 1.377 . S
C3005 C3006 1.379 . S
C3006 H2990 0.931 . S
C3006 C3000 1.383 . S
C3006 C3005 1.379 . S
H3007 C3001 0.959 . S
H3008 C3001 0.961 . S
H3009 C3001 0.960 . S
H3010 C3002 0.930 . S
H3011 C3003 0.929 . S
H3012 C3020 0.929 . S
H3013 C3022 0.930 . S
H3014 C3024 0.930 . S
H3015 C3027 0.929 . S
H3016 C3030 0.930 . S
H3017 C3032 0.960 . S
H3018 C3032 0.960 . S
H3019 C3032 0.960 . S
C3020 H3012 0.929 . S
C3020 C3021 1.377 . S
C3020 C3022 1.384 . S
C3021 C3020 1.377 . S
C3021 C3027 1.390 . S
C3022 H3013 0.930 . S
C3022 C3020 1.384 . S
C3022 C3023 1.372 . S
C3023 C3022 1.372 . S
C3023 C3024 1.400 . S
C3023 C3028 1.490 . S
C3024 H3014 0.930 . S
C3024 C3023 1.400 . S
C3024 C3027 1.386 . S
H3025 C3041 0.930 . S
H3026 C3042 0.931 . S
C3027 H3015 0.929 . S
C3027 C3021 1.390 . S
C3027 C3024 1.386 . S
C3028 C3023 1.490 . S
C3028 C3030 1.395 . S
C3028 C3031 1.403 . S
H3029 C3035 0.930 . S
C3030 H3016 0.930 . S
C3030 C3028 1.395 . S
C3030 C3033 1.403 . S
C3031 C3028 1.403 . S
C3031 C3032 1.524 . S
C3031 C3035 1.400 . S
C3032 H3017 0.960 . S
C3032 H3018 0.960 . S
C3032 H3019 0.960 . S
C3032 C3031 1.524 . S
C3033 C3030 1.403 . S
C3033 C3034 1.392 . S
C3033 C3037 1.495 . S
C3034 C3033 1.392 . S
C3034 C3035 1.385 . S
C3034 C3036 1.478 . S
C3035 H3029 0.930 . S
C3035 C3031 1.400 . S
C3035 C3034 1.385 . S
C3036 C3034 1.478 . S
C3036 C3038 1.381 . S
C3036 C3042 1.383 . S
C3037 C3033 1.495 . S
C3037 H3043 0.959 . S
C3037 H3044 0.961 . S
C3037 H3045 0.960 . S
C3038 C3036 1.381 . S
C3038 C3039 1.394 . S
C3038 H3046 0.930 . S
C3039 C3038 1.394 . S
C3039 C3040 1.383 . S
C3039 H3047 0.929 . S
C3040 C3039 1.383 . S
C3040 C3041 1.377 . S
C3041 H3025 0.930 . S
C3041 C3040 1.377 . S
C3041 C3042 1.379 . S
C3042 H3026 0.931 . S
C3042 C3036 1.383 . S
C3042 C3041 1.379 . S
H3043 C3037 0.959 . S
H3044 C3037 0.961 . S
H3045 C3037 0.960 . S
H3046 C3038 0.930 . S
H3047 C3039 0.929 . S
H3048 C3056 0.929 . S
H3049 C3058 0.930 . S
H3050 C3060 0.930 . S
H3051 C3063 0.929 . S
H3052 C3066 0.930 . S
H3053 C3068 0.960 . S
H3054 C3068 0.960 . S
H3055 C3068 0.960 . S
C3056 H3048 0.929 . S
C3056 C3057 1.377 . S
C3056 C3058 1.384 . S
C3057 C3056 1.377 . S
C3057 C3063 1.390 . S
C3058 H3049 0.930 . S
C3058 C3056 1.384 . S
C3058 C3059 1.372 . S
C3059 C3058 1.372 . S
C3059 C3060 1.400 . S
C3059 C3064 1.490 . S
C3060 H3050 0.930 . S
C3060 C3059 1.400 . S
C3060 C3063 1.386 . S
H3061 C3077 0.930 . S
H3062 C3078 0.931 . S
C3063 H3051 0.929 . S
C3063 C3057 1.390 . S
C3063 C3060 1.386 . S
C3064 C3059 1.490 . S
C3064 C3066 1.395 . S
C3064 C3067 1.403 . S
H3065 C3071 0.930 1_565 S
C3066 H3052 0.930 . S
C3066 C3064 1.395 . S
C3066 C3069 1.403 . S
C3067 C3064 1.403 . S
C3067 C3068 1.524 . S
C3067 C3071 1.400 . S
C3068 H3053 0.960 . S
C3068 H3054 0.960 . S
C3068 H3055 0.960 . S
C3068 C3067 1.524 . S
C3069 C3066 1.403 . S
C3069 C3070 1.392 . S
C3069 C3073 1.495 . S
C3070 C3069 1.392 . S
C3070 C3071 1.385 . S
C3070 C3072 1.478 1_545 S
C3071 H3065 0.930 1_545 S
C3071 C3067 1.400 . S
C3071 C3070 1.385 . S
C3072 C3070 1.478 1_565 S
C3072 C3074 1.381 . S
C3072 C3078 1.383 . S
C3073 C3069 1.495 . S
C3073 H3079 0.959 . S
C3073 H3080 0.961 . S
C3073 H3081 0.960 . S
C3074 C3072 1.381 . S
C3074 C3075 1.394 . S
C3074 H3082 0.930 . S
C3075 C3074 1.394 . S
C3075 C3076 1.383 . S
C3075 H3083 0.929 . S
C3076 C3075 1.383 . S
C3076 C3077 1.377 . S
C3077 H3061 0.930 . S
C3077 C3076 1.377 . S
C3077 C3078 1.379 . S
C3078 H3062 0.931 . S
C3078 C3072 1.383 . S
C3078 C3077 1.379 . S
H3079 C3073 0.959 . S
H3080 C3073 0.961 . S
H3081 C3073 0.960 . S
H3082 C3074 0.930 . S
H3083 C3075 0.929 . S
H3084 C3092 0.929 . S
H3085 C3094 0.930 . S
H3086 C3096 0.930 . S
H3087 C3099 0.929 . S
H3088 C3102 0.930 . S
H3089 C3104 0.960 . S
H3090 C3104 0.960 . S
H3091 C3104 0.960 . S
C3092 H3084 0.929 . S
C3092 C3093 1.377 . S
C3092 C3094 1.384 . S
C3093 C3092 1.377 . S
C3093 C3099 1.390 . S
C3094 H3085 0.930 . S
C3094 C3092 1.384 . S
C3094 C3095 1.372 . S
C3095 C3094 1.372 . S
C3095 C3096 1.400 . S
C3095 C3100 1.490 . S
C3096 H3086 0.930 . S
C3096 C3095 1.400 . S
C3096 C3099 1.386 . S
H3097 C3113 0.930 . S
H3098 C3114 0.931 . S
C3099 H3087 0.929 . S
C3099 C3093 1.390 . S
C3099 C3096 1.386 . S
C3100 C3095 1.490 . S
C3100 C3102 1.395 . S
C3100 C3103 1.403 . S
H3101 C3107 0.930 . S
C3102 H3088 0.930 . S
C3102 C3100 1.395 . S
C3102 C3105 1.403 . S
C3103 C3100 1.403 . S
C3103 C3104 1.524 . S
C3103 C3107 1.400 . S
C3104 H3089 0.960 . S
C3104 H3090 0.960 . S
C3104 H3091 0.960 . S
C3104 C3103 1.524 . S
C3105 C3102 1.403 . S
C3105 C3106 1.392 . S
C3105 C3109 1.495 . S
C3106 C3105 1.392 . S
C3106 C3107 1.385 . S
C3106 C3108 1.478 . S
C3107 H3101 0.930 . S
C3107 C3103 1.400 . S
C3107 C3106 1.385 . S
C3108 C3106 1.478 . S
C3108 C3110 1.381 . S
C3108 C3114 1.383 . S
C3109 C3105 1.495 . S
C3109 H3115 0.959 . S
C3109 H3116 0.961 . S
C3109 H3117 0.960 . S
C3110 C3108 1.381 . S
C3110 C3111 1.394 . S
C3110 H3118 0.930 . S
C3111 C3110 1.394 . S
C3111 C3112 1.383 . S
C3111 H3119 0.929 . S
C3112 C3111 1.383 . S
C3112 C3113 1.377 . S
C3113 H3097 0.930 . S
C3113 C3112 1.377 . S
C3113 C3114 1.379 . S
C3114 H3098 0.931 . S
C3114 C3108 1.383 . S
C3114 C3113 1.379 . S
H3115 C3109 0.959 . S
H3116 C3109 0.961 . S
H3117 C3109 0.960 . S
H3118 C3110 0.930 . S
H3119 C3111 0.929 . S
H3120 C3128 0.929 . S
H3121 C3130 0.930 . S
H3122 C3132 0.930 . S
H3123 C3135 0.929 . S
H3124 C3138 0.930 . S
H3125 C3140 0.960 . S
H3126 C3140 0.960 . S
H3127 C3140 0.960 . S
C3128 H3120 0.929 . S
C3128 C3129 1.377 . S
C3128 C3130 1.384 . S
C3129 C3128 1.377 . S
C3129 C3135 1.390 . S
C3130 H3121 0.930 . S
C3130 C3128 1.384 . S
C3130 C3131 1.372 . S
C3131 C3130 1.372 . S
C3131 C3132 1.400 . S
C3131 C3136 1.490 . S
C3132 H3122 0.930 . S
C3132 C3131 1.400 . S
C3132 C3135 1.386 . S
H3133 C3149 0.930 . S
H3134 C3150 0.931 . S
C3135 H3123 0.929 . S
C3135 C3129 1.390 . S
C3135 C3132 1.386 . S
C3136 C3131 1.490 . S
C3136 C3138 1.395 . S
C3136 C3139 1.403 . S
H3137 C3143 0.930 . S
C3138 H3124 0.930 . S
C3138 C3136 1.395 . S
C3138 C3141 1.403 . S
C3139 C3136 1.403 . S
C3139 C3140 1.524 . S
C3139 C3143 1.400 . S
C3140 H3125 0.960 . S
C3140 H3126 0.960 . S
C3140 H3127 0.960 . S
C3140 C3139 1.524 . S
C3141 C3138 1.403 . S
C3141 C3142 1.392 . S
C3141 C3145 1.495 . S
C3142 C3141 1.392 . S
C3142 C3143 1.385 . S
C3142 C3144 1.478 . S
C3143 H3137 0.930 . S
C3143 C3139 1.400 . S
C3143 C3142 1.385 . S
C3144 C3142 1.478 . S
C3144 C3146 1.381 . S
C3144 C3150 1.383 . S
C3145 C3141 1.495 . S
C3145 H3151 0.959 . S
C3145 H3152 0.961 . S
C3145 H3153 0.960 . S
C3146 C3144 1.381 . S
C3146 C3147 1.394 . S
C3146 H3154 0.930 . S
C3147 C3146 1.394 . S
C3147 C3148 1.383 . S
C3147 H3155 0.929 . S
C3148 C3147 1.383 . S
C3148 C3149 1.377 . S
C3149 H3133 0.930 . S
C3149 C3148 1.377 . S
C3149 C3150 1.379 . S
C3150 H3134 0.931 . S
C3150 C3144 1.383 . S
C3150 C3149 1.379 . S
H3151 C3145 0.959 . S
H3152 C3145 0.961 . S
H3153 C3145 0.960 . S
H3154 C3146 0.930 . S
H3155 C3147 0.929 . S
H3156 C3164 0.929 . S
H3157 C3166 0.930 . S
H3158 C3168 0.930 . S
H3159 C3171 0.929 . S
H3160 C3174 0.930 . S
H3161 C3176 0.960 . S
H3162 C3176 0.960 . S
H3163 C3176 0.960 . S
C3164 H3156 0.929 . S
C3164 C3165 1.377 . S
C3164 C3166 1.384 . S
C3165 C3164 1.377 . S
C3165 C3171 1.390 . S
C3166 H3157 0.930 . S
C3166 C3164 1.384 . S
C3166 C3167 1.372 . S
C3167 C3166 1.372 . S
C3167 C3168 1.400 . S
C3167 C3172 1.490 . S
C3168 H3158 0.930 . S
C3168 C3167 1.400 . S
C3168 C3171 1.386 . S
H3169 C3185 0.930 . S
H3170 C3186 0.931 . S
C3171 H3159 0.929 . S
C3171 C3165 1.390 . S
C3171 C3168 1.386 . S
C3172 C3167 1.490 . S
C3172 C3174 1.395 . S
C3172 C3175 1.403 . S
H3173 C3179 0.930 . S
C3174 H3160 0.930 . S
C3174 C3172 1.395 . S
C3174 C3177 1.403 . S
C3175 C3172 1.403 . S
C3175 C3176 1.524 . S
C3175 C3179 1.400 . S
C3176 H3161 0.960 . S
C3176 H3162 0.960 . S
C3176 H3163 0.960 . S
C3176 C3175 1.524 . S
C3177 C3174 1.403 . S
C3177 C3178 1.392 . S
C3177 C3181 1.495 . S
C3178 C3177 1.392 . S
C3178 C3179 1.385 . S
C3178 C3180 1.478 . S
C3179 H3173 0.930 . S
C3179 C3175 1.400 . S
C3179 C3178 1.385 . S
C3180 C3178 1.478 . S
C3180 C3182 1.381 . S
C3180 C3186 1.383 . S
C3181 C3177 1.495 . S
C3181 H3187 0.959 . S
C3181 H3188 0.961 . S
C3181 H3189 0.960 . S
C3182 C3180 1.381 . S
C3182 C3183 1.394 . S
C3182 H3190 0.930 . S
C3183 C3182 1.394 . S
C3183 C3184 1.383 . S
C3183 H3191 0.929 . S
C3184 C3183 1.383 . S
C3184 C3185 1.377 . S
C3185 H3169 0.930 . S
C3185 C3184 1.377 . S
C3185 C3186 1.379 . S
C3186 H3170 0.931 . S
C3186 C3180 1.383 . S
C3186 C3185 1.379 . S
H3187 C3181 0.959 . S
H3188 C3181 0.961 . S
H3189 C3181 0.960 . S
H3190 C3182 0.930 . S
H3191 C3183 0.929 . S
H3192 C3200 0.929 . S
H3193 C3202 0.930 . S
H3194 C3204 0.930 . S
H3195 C3207 0.929 . S
H3196 C3210 0.986 . S
H3197 C3212 0.960 . S
H3198 C3212 0.960 1_545 S
H3199 C3212 0.960 1_545 S
C3200 H3192 0.929 . S
C3200 C3201 1.377 . S
C3200 C3202 1.384 . S
C3201 C3200 1.377 . S
C3201 C3207 1.390 . S
C3202 H3193 0.930 . S
C3202 C3200 1.384 . S
C3202 C3203 1.372 . S
C3203 C3202 1.372 . S
C3203 C3204 1.400 . S
C3203 C3208 1.490 . S
C3204 H3194 0.930 . S
C3204 C3203 1.400 . S
C3204 C3207 1.386 . S
H3205 C3221 0.930 . S
H3206 C3222 0.931 . S
C3207 H3195 0.929 . S
C3207 C3201 1.390 . S
C3207 C3204 1.386 . S
C3208 C3203 1.490 . S
C3208 C3210 1.413 . S
C3208 C3211 1.403 1_545 S
H3209 C3215 0.930 . S
C3210 H3196 0.986 . S
C3210 C3208 1.413 . S
C3210 C3213 1.334 1_545 S
C3211 C3208 1.403 1_565 S
C3211 C3212 1.524 . S
C3211 C3215 1.400 . S
C3212 H3197 0.960 . S
C3212 H3198 0.960 1_565 S
C3212 H3199 0.960 1_565 S
C3212 C3211 1.524 . S
C3213 C3210 1.334 1_565 S
C3213 C3214 1.392 . S
C3213 C3217 1.495 . S
C3214 C3213 1.392 . S
C3214 C3215 1.385 . S
C3214 C3216 1.478 . S
C3215 H3209 0.930 . S
C3215 C3211 1.400 . S
C3215 C3214 1.385 . S
C3216 C3214 1.478 . S
C3216 C3218 1.381 . S
C3216 C3222 1.383 . S
C3217 C3213 1.495 . S
C3217 H3223 0.959 . S
C3217 H3224 0.961 . S
C3217 H3225 0.960 . S
C3218 C3216 1.381 . S
C3218 C3219 1.394 . S
C3218 H3226 0.930 . S
C3219 C3218 1.394 . S
C3219 C3220 1.383 . S
C3219 H3227 0.929 . S
C3220 C3219 1.383 . S
C3220 C3221 1.377 . S
C3221 H3205 0.930 . S
C3221 C3220 1.377 . S
C3221 C3222 1.379 . S
C3222 H3206 0.931 . S
C3222 C3216 1.383 . S
C3222 C3221 1.379 . S
H3223 C3217 0.959 . S
H3224 C3217 0.961 . S
H3225 C3217 0.960 . S
H3226 C3218 0.930 . S
H3227 C3219 0.929 . S
H3228 C3236 0.929 . S
H3229 C3238 0.930 . S
H3230 C3240 0.930 . S
H3231 C3243 0.929 . S
H3232 C3246 0.930 . S
H3233 C3248 0.960 . S
H3234 C3248 0.960 . S
H3235 C3248 0.960 . S
C3236 H3228 0.929 . S
C3236 C3237 1.377 . S
C3236 C3238 1.384 . S
C3237 C3236 1.377 . S
C3237 C3243 1.390 . S
C3238 H3229 0.930 . S
C3238 C3236 1.384 . S
C3238 C3239 1.372 . S
C3239 C3238 1.372 . S
C3239 C3240 1.400 . S
C3239 C3244 1.490 . S
C3240 H3230 0.930 . S
C3240 C3239 1.400 . S
C3240 C3243 1.386 . S
H3241 C3257 0.930 . S
H3242 C3258 0.931 . S
C3243 H3231 0.929 . S
C3243 C3237 1.390 . S
C3243 C3240 1.386 . S
C3244 C3239 1.490 . S
C3244 C3246 1.395 . S
C3244 C3247 1.403 . S
H3245 C3251 0.930 1_565 S
C3246 H3232 0.930 . S
C3246 C3244 1.395 . S
C3246 C3249 1.403 . S
C3247 C3244 1.403 . S
C3247 C3248 1.524 . S
C3247 C3251 1.400 . S
C3248 H3233 0.960 . S
C3248 H3234 0.960 . S
C3248 H3235 0.960 . S
C3248 C3247 1.524 . S
C3249 C3246 1.403 . S
C3249 C3250 1.389 1_545 S
C3249 C3253 1.495 . S
C3250 C3249 1.389 1_565 S
C3250 C3251 1.384 1_565 S
C3250 C3252 1.482 . S
C3251 H3245 0.930 1_545 S
C3251 C3247 1.400 . S
C3251 C3250 1.384 1_545 S
C3252 C3250 1.482 . S
C3252 C3254 1.381 . S
C3252 C3258 1.383 . S
C3253 C3249 1.495 . S
C3253 H3259 0.959 . S
C3253 H3260 1.003 . S
C3253 H3261 0.960 . S
C3254 C3252 1.381 . S
C3254 C3255 1.394 . S
C3254 H3262 0.930 . S
C3255 C3254 1.394 . S
C3255 C3256 1.383 . S
C3255 H3263 0.929 . S
C3256 C3255 1.383 . S
C3256 C3257 1.377 . S
C3257 H3241 0.930 . S
C3257 C3256 1.377 . S
C3257 C3258 1.379 . S
C3258 H3242 0.931 . S
C3258 C3252 1.383 . S
C3258 C3257 1.379 . S
H3259 C3253 0.959 . S
H3260 C3253 1.003 . S
H3261 C3253 0.960 . S
H3262 C3254 0.930 . S
H3263 C3255 0.929 . S
H3264 C3272 0.929 . S
H3265 C3274 0.930 . S
H3266 C3276 0.930 . S
H3267 C3279 0.929 . S
H3268 C3282 0.930 . S
H3269 C3284 0.960 . S
H3270 C3284 0.960 . S
H3271 C3284 0.960 . S
C3272 H3264 0.929 . S
C3272 C3273 1.377 . S
C3272 C3274 1.384 . S
C3273 C3272 1.377 . S
C3273 C3279 1.390 . S
C3274 H3265 0.930 . S
C3274 C3272 1.384 . S
C3274 C3275 1.372 . S
C3275 C3274 1.372 . S
C3275 C3276 1.400 . S
C3275 C3280 1.490 . S
C3276 H3266 0.930 . S
C3276 C3275 1.400 . S
C3276 C3279 1.386 . S
H3277 C3293 0.930 . S
H3278 C3294 0.931 . S
C3279 H3267 0.929 . S
C3279 C3273 1.390 . S
C3279 C3276 1.386 . S
C3280 C3275 1.490 . S
C3280 C3282 1.395 . S
C3280 C3283 1.403 . S
H3281 C3287 0.930 . S
C3282 H3268 0.930 . S
C3282 C3280 1.395 . S
C3282 C3285 1.403 . S
C3283 C3280 1.403 . S
C3283 C3284 1.524 . S
C3283 C3287 1.400 . S
C3284 H3269 0.960 . S
C3284 H3270 0.960 . S
C3284 H3271 0.960 . S
C3284 C3283 1.524 . S
C3285 C3282 1.403 . S
C3285 C3286 1.392 . S
C3285 C3289 1.495 . S
C3286 C3285 1.392 . S
C3286 C3287 1.385 . S
C3286 C3288 1.478 . S
C3287 H3281 0.930 . S
C3287 C3283 1.400 . S
C3287 C3286 1.385 . S
C3288 C3286 1.478 . S
C3288 C3290 1.381 . S
C3288 C3294 1.383 . S
C3289 C3285 1.495 . S
C3289 H3295 0.959 . S
C3289 H3296 0.961 . S
C3289 H3297 0.960 . S
C3290 C3288 1.381 . S
C3290 C3291 1.394 . S
C3290 H3298 0.930 . S
C3291 C3290 1.394 . S
C3291 C3292 1.383 . S
C3291 H3299 0.929 . S
C3292 C3291 1.383 . S
C3292 C3293 1.377 . S
C3293 H3277 0.930 . S
C3293 C3292 1.377 . S
C3293 C3294 1.379 . S
C3294 H3278 0.931 . S
C3294 C3288 1.383 . S
C3294 C3293 1.379 . S
H3295 C3289 0.959 . S
H3296 C3289 0.961 . S
H3297 C3289 0.960 . S
H3298 C3290 0.930 . S
H3299 C3291 0.929 . S
H3300 C3308 0.929 . S
H3301 C3310 0.930 . S
H3302 C3312 0.930 . S
H3303 C3315 0.929 . S
H3304 C3318 0.930 . S
H3305 C3320 0.960 . S
H3306 C3320 0.960 . S
H3307 C3320 0.960 . S
C3308 H3300 0.929 . S
C3308 C3309 1.377 . S
C3308 C3310 1.384 . S
C3309 C3308 1.377 . S
C3309 C3315 1.390 . S
C3310 H3301 0.930 . S
C3310 C3308 1.384 . S
C3310 C3311 1.372 . S
C3311 C3310 1.372 . S
C3311 C3312 1.400 . S
C3311 C3316 1.490 . S
C3312 H3302 0.930 . S
C3312 C3311 1.400 . S
C3312 C3315 1.386 . S
H3313 C3329 0.930 . S
H3314 C3330 0.931 . S
C3315 H3303 0.929 . S
C3315 C3309 1.390 . S
C3315 C3312 1.386 . S
C3316 C3311 1.490 . S
C3316 C3318 1.395 . S
C3316 C3319 1.403 . S
H3317 C3323 0.930 . S
C3318 H3304 0.930 . S
C3318 C3316 1.395 . S
C3318 C3321 1.403 . S
C3319 C3316 1.403 . S
C3319 C3320 1.524 . S
C3319 C3323 1.400 . S
C3320 H3305 0.960 . S
C3320 H3306 0.960 . S
C3320 H3307 0.960 . S
C3320 C3319 1.524 . S
C3321 C3318 1.403 . S
C3321 C3322 1.392 . S
C3321 C3325 1.495 . S
C3322 C3321 1.392 . S
C3322 C3323 1.385 . S
C3322 C3324 1.478 . S
C3323 H3317 0.930 . S
C3323 C3319 1.400 . S
C3323 C3322 1.385 . S
C3324 C3322 1.478 . S
C3324 C3326 1.381 . S
C3324 C3330 1.383 . S
C3325 C3321 1.495 . S
C3325 H3331 0.959 . S
C3325 H3332 0.961 . S
C3325 H3333 0.960 . S
C3326 C3324 1.381 . S
C3326 C3327 1.394 . S
C3326 H3334 0.930 . S
C3327 C3326 1.394 . S
C3327 C3328 1.383 . S
C3327 H3335 0.929 . S
C3328 C3327 1.383 . S
C3328 C3329 1.377 . S
C3329 H3313 0.930 . S
C3329 C3328 1.377 . S
C3329 C3330 1.379 . S
C3330 H3314 0.931 . S
C3330 C3324 1.383 . S
C3330 C3329 1.379 . S
H3331 C3325 0.959 . S
H3332 C3325 0.961 . S
H3333 C3325 0.960 . S
H3334 C3326 0.930 . S
H3335 C3327 0.929 . S
H3336 C3344 0.929 . S
H3337 C3346 0.930 . S
H3338 C3348 0.930 . S
H3339 C3351 0.929 . S
H3340 C3354 0.930 . S
H3341 C3356 0.960 . S
H3342 C3356 0.960 . S
H3343 C3356 0.960 . S
C3344 H3336 0.929 . S
C3344 C3345 1.377 . S
C3344 C3346 1.384 . S
C3345 C3344 1.377 . S
C3345 C3351 1.390 . S
C3346 H3337 0.930 . S
C3346 C3344 1.384 . S
C3346 C3347 1.372 . S
C3347 C3346 1.372 . S
C3347 C3348 1.400 . S
C3347 C3352 1.490 . S
C3348 H3338 0.930 . S
C3348 C3347 1.400 . S
C3348 C3351 1.386 . S
H3349 C3365 0.930 . S
H3350 C3366 0.931 . S
C3351 H3339 0.929 . S
C3351 C3345 1.390 . S
C3351 C3348 1.386 . S
C3352 C3347 1.490 . S
C3352 C3354 1.395 . S
C3352 C3355 1.403 . S
H3353 C3359 0.930 . S
C3354 H3340 0.930 . S
C3354 C3352 1.395 . S
C3354 C3357 1.403 . S
C3355 C3352 1.403 . S
C3355 C3356 1.524 . S
C3355 C3359 1.400 . S
C3356 H3341 0.960 . S
C3356 H3342 0.960 . S
C3356 H3343 0.960 . S
C3356 C3355 1.524 . S
C3357 C3354 1.403 . S
C3357 C3358 1.392 . S
C3357 C3361 1.495 . S
C3358 C3357 1.392 . S
C3358 C3359 1.385 . S
C3358 C3360 1.478 . S
C3359 H3353 0.930 . S
C3359 C3355 1.400 . S
C3359 C3358 1.385 . S
C3360 C3358 1.478 . S
C3360 C3362 1.381 . S
C3360 C3366 1.383 . S
C3361 C3357 1.495 . S
C3361 H3367 0.959 . S
C3361 H3368 0.961 . S
C3361 H3369 0.960 . S
C3362 C3360 1.381 . S
C3362 C3363 1.394 . S
C3362 H3370 0.930 . S
C3363 C3362 1.394 . S
C3363 C3364 1.383 . S
C3363 H3371 0.929 . S
C3364 C3363 1.383 . S
C3364 C3365 1.377 . S
C3365 H3349 0.930 . S
C3365 C3364 1.377 . S
C3365 C3366 1.379 . S
C3366 H3350 0.931 . S
C3366 C3360 1.383 . S
C3366 C3365 1.379 . S
H3367 C3361 0.959 . S
H3368 C3361 0.961 . S
H3369 C3361 0.960 . S
H3370 C3362 0.930 . S
H3371 C3363 0.929 . S
H3372 C3380 0.929 . S
H3373 C3382 0.930 . S
H3374 C3384 0.930 . S
H3375 C3387 0.929 . S
H3376 C3390 0.930 . S
H3377 C3392 0.956 1_655 S
H3378 C3392 0.962 . S
H3379 C3392 0.965 . S
C3380 H3372 0.929 . S
C3380 C3381 1.377 . S
C3380 C3382 1.384 . S
C3381 C3380 1.377 . S
C3381 C3387 1.390 . S
C3382 H3373 0.930 . S
C3382 C3380 1.384 . S
C3382 C3383 1.372 . S
C3383 C3382 1.372 . S
C3383 C3384 1.400 . S
C3383 C3388 1.437 1_455 S
C3384 H3374 0.930 . S
C3384 C3383 1.400 . S
C3384 C3387 1.386 . S
H3385 C3401 0.930 . S
H3386 C3402 0.931 . S
C3387 H3375 0.929 . S
C3387 C3381 1.390 . S
C3387 C3384 1.386 . S
C3388 C3383 1.437 1_655 S
C3388 C3390 1.423 . S
C3388 C3391 1.428 . S
H3389 C3395 0.930 . S
C3390 H3376 0.930 . S
C3390 C3388 1.423 . S
C3390 C3393 1.403 . S
C3391 C3388 1.428 . S
C3391 C3392 1.521 1_655 S
C3391 C3395 1.400 . S
C3392 H3377 0.956 1_455 S
C3392 H3378 0.962 . S
C3392 H3379 0.965 . S
C3392 C3391 1.521 1_455 S
C3393 C3390 1.403 . S
C3393 C3394 1.392 . S
C3393 C3397 1.495 . S
C3394 C3393 1.392 . S
C3394 C3395 1.385 . S
C3394 C3396 1.478 . S
C3395 H3389 0.930 . S
C3395 C3391 1.400 . S
C3395 C3394 1.385 . S
C3396 C3394 1.478 . S
C3396 C3398 1.381 . S
C3396 C3402 1.383 . S
C3397 C3393 1.495 . S
C3397 H3403 0.959 . S
C3397 H3404 0.961 . S
C3397 H3405 0.960 . S
C3398 C3396 1.381 . S
C3398 C3399 1.394 . S
C3398 H3406 0.930 . S
C3399 C3398 1.394 . S
C3399 C3400 1.383 . S
C3399 H3407 0.929 . S
C3400 C3399 1.383 . S
C3400 C3401 1.377 . S
C3401 H3385 0.930 . S
C3401 C3400 1.377 . S
C3401 C3402 1.379 . S
C3402 H3386 0.931 . S
C3402 C3396 1.383 . S
C3402 C3401 1.379 . S
H3403 C3397 0.959 . S
H3404 C3397 0.961 . S
H3405 C3397 0.960 . S
H3406 C3398 0.930 . S
H3407 C3399 0.929 . S
H3408 C3416 0.929 . S
H3409 C3418 0.930 . S
H3410 C3420 0.930 . S
H3411 C3423 0.929 . S
H3412 C3426 0.930 . S
H3413 C3428 0.960 . S
H3414 C3428 0.960 . S
H3415 C3428 0.960 . S
C3416 H3408 0.929 . S
C3416 C3417 1.377 . S
C3416 C3418 1.384 . S
C3417 C3416 1.377 . S
C3417 C3423 1.390 . S
C3418 H3409 0.930 . S
C3418 C3416 1.384 . S
C3418 C3419 1.372 . S
C3419 C3418 1.372 . S
C3419 C3420 1.400 . S
C3419 C3424 1.490 . S
C3420 H3410 0.930 . S
C3420 C3419 1.400 . S
C3420 C3423 1.386 . S
H3421 C3437 0.930 . S
H3422 C3438 0.931 . S
C3423 H3411 0.929 . S
C3423 C3417 1.390 . S
C3423 C3420 1.386 . S
C3424 C3419 1.490 . S
C3424 C3426 1.395 . S
C3424 C3427 1.403 . S
H3425 C3431 0.930 . S
C3426 H3412 0.930 . S
C3426 C3424 1.395 . S
C3426 C3429 1.403 . S
C3427 C3424 1.403 . S
C3427 C3428 1.524 . S
C3427 C3431 1.400 . S
C3428 H3413 0.960 . S
C3428 H3414 0.960 . S
C3428 H3415 0.960 . S
C3428 C3427 1.524 . S
C3429 C3426 1.403 . S
C3429 C3430 1.392 . S
C3429 C3433 1.495 . S
C3430 C3429 1.392 . S
C3430 C3431 1.385 . S
C3430 C3432 1.478 . S
C3431 H3425 0.930 . S
C3431 C3427 1.400 . S
C3431 C3430 1.385 . S
C3432 C3430 1.478 . S
C3432 C3434 1.381 . S
C3432 C3438 1.383 . S
C3433 C3429 1.495 . S
C3433 H3439 0.959 . S
C3433 H3440 0.961 . S
C3433 H3441 0.960 . S
C3434 C3432 1.381 . S
C3434 C3435 1.394 . S
C3434 H3442 0.930 . S
C3435 C3434 1.394 . S
C3435 C3436 1.383 . S
C3435 H3443 0.929 . S
C3436 C3435 1.383 . S
C3436 C3437 1.377 . S
C3437 H3421 0.930 . S
C3437 C3436 1.377 . S
C3437 C3438 1.379 . S
C3438 H3422 0.931 . S
C3438 C3432 1.383 . S
C3438 C3437 1.379 . S
H3439 C3433 0.959 . S
H3440 C3433 0.961 . S
H3441 C3433 0.960 . S
H3442 C3434 0.930 . S
H3443 C3435 0.929 . S
H3444 C3452 0.929 . S
H3445 C3454 0.930 . S
H3446 C3456 0.930 . S
H3447 C3459 0.929 . S
H3448 C3462 0.930 . S
H3449 C3464 0.967 . S
H3450 C3464 0.956 1_455 S
H3451 C3464 0.952 1_455 S
C3452 H3444 0.929 . S
C3452 C3453 1.377 . S
C3452 C3454 1.384 . S
C3453 C3452 1.377 . S
C3453 C3459 1.390 . S
C3454 H3445 0.930 . S
C3454 C3452 1.384 . S
C3454 C3455 1.372 . S
C3455 C3454 1.372 . S
C3455 C3456 1.400 . S
C3455 C3460 1.490 1_455 S
C3456 H3446 0.930 . S
C3456 C3455 1.400 . S
C3456 C3459 1.386 . S
H3457 C3473 0.930 . S
H3458 C3474 0.931 . S
C3459 H3447 0.929 . S
C3459 C3453 1.390 . S
C3459 C3456 1.386 . S
C3460 C3455 1.490 1_655 S
C3460 C3462 1.395 . S
C3460 C3463 1.403 . S
H3461 C3467 0.930 . S
C3462 H3448 0.930 . S
C3462 C3460 1.395 . S
C3462 C3465 1.403 . S
C3463 C3460 1.403 . S
C3463 C3464 1.529 . S
C3463 C3467 1.400 . S
C3464 H3449 0.967 . S
C3464 H3450 0.956 1_655 S
C3464 H3451 0.952 1_655 S
C3464 C3463 1.529 . S
C3465 C3462 1.403 . S
C3465 C3466 1.392 . S
C3465 C3469 1.495 . S
C3466 C3465 1.392 . S
C3466 C3467 1.385 . S
C3466 C3468 1.478 . S
C3467 H3461 0.930 . S
C3467 C3463 1.400 . S
C3467 C3466 1.385 . S
C3468 C3466 1.478 . S
C3468 C3470 1.381 . S
C3468 C3474 1.383 . S
C3469 C3465 1.495 . S
C3469 H3475 0.959 . S
C3469 H3476 0.961 . S
C3469 H3477 0.960 . S
C3470 C3468 1.381 . S
C3470 C3471 1.394 . S
C3470 H3478 0.930 . S
C3471 C3470 1.394 . S
C3471 C3472 1.383 . S
C3471 H3479 0.929 . S
C3472 C3471 1.383 . S
C3472 C3473 1.377 . S
C3473 H3457 0.930 . S
C3473 C3472 1.377 . S
C3473 C3474 1.379 . S
C3474 H3458 0.931 . S
C3474 C3468 1.383 . S
C3474 C3473 1.379 . S
H3475 C3469 0.959 . S
H3476 C3469 0.961 . S
H3477 C3469 0.960 . S
H3478 C3470 0.930 . S
H3479 C3471 0.929 . S
H3480 C3488 0.929 . S
H3481 C3490 0.930 . S
H3482 C3492 0.930 . S
H3483 C3495 0.929 . S
H3484 C3498 0.930 . S
H3485 C3500 0.960 . S
H3486 C3500 0.960 . S
H3487 C3500 0.960 . S
C3488 H3480 0.929 . S
C3488 C3489 1.377 . S
C3488 C3490 1.384 . S
C3489 C3488 1.377 . S
C3489 C3495 1.390 . S
C3490 H3481 0.930 . S
C3490 C3488 1.384 . S
C3490 C3491 1.372 . S
C3491 C3490 1.372 . S
C3491 C3492 1.400 . S
C3491 C3496 1.490 . S
C3492 H3482 0.930 . S
C3492 C3491 1.400 . S
C3492 C3495 1.386 . S
H3493 C3509 0.930 . S
H3494 C3510 0.931 . S
C3495 H3483 0.929 . S
C3495 C3489 1.390 . S
C3495 C3492 1.386 . S
C3496 C3491 1.490 . S
C3496 C3498 1.395 . S
C3496 C3499 1.403 . S
H3497 C3503 0.930 . S
C3498 H3484 0.930 . S
C3498 C3496 1.395 . S
C3498 C3501 1.403 . S
C3499 C3496 1.403 . S
C3499 C3500 1.524 . S
C3499 C3503 1.400 . S
C3500 H3485 0.960 . S
C3500 H3486 0.960 . S
C3500 H3487 0.960 . S
C3500 C3499 1.524 . S
C3501 C3498 1.403 . S
C3501 C3502 1.392 . S
C3501 C3505 1.495 . S
C3502 C3501 1.392 . S
C3502 C3503 1.385 . S
C3502 C3504 1.478 . S
C3503 H3497 0.930 . S
C3503 C3499 1.400 . S
C3503 C3502 1.385 . S
C3504 C3502 1.478 . S
C3504 C3506 1.381 . S
C3504 C3510 1.383 . S
C3505 C3501 1.495 . S
C3505 H3511 0.959 . S
C3505 H3512 0.961 . S
C3505 H3513 0.960 . S
C3506 C3504 1.381 . S
C3506 C3507 1.394 . S
C3506 H3514 0.930 . S
C3507 C3506 1.394 . S
C3507 C3508 1.383 . S
C3507 H3515 0.929 . S
C3508 C3507 1.383 . S
C3508 C3509 1.377 . S
C3509 H3493 0.930 . S
C3509 C3508 1.377 . S
C3509 C3510 1.379 . S
C3510 H3494 0.931 . S
C3510 C3504 1.383 . S
C3510 C3509 1.379 . S
H3511 C3505 0.959 . S
H3512 C3505 0.961 . S
H3513 C3505 0.960 . S
H3514 C3506 0.930 . S
H3515 C3507 0.929 . S
H3516 C3524 0.929 . S
H3517 C3526 0.930 . S
H3518 C3528 0.930 . S
H3519 C3531 0.929 . S
H3520 C3534 0.930 . S
H3521 C3536 0.960 . S
H3522 C3536 0.960 . S
H3523 C3536 0.960 . S
C3524 H3516 0.929 . S
C3524 C3525 1.377 . S
C3524 C3526 1.384 . S
C3525 C3524 1.377 . S
C3525 C3531 1.390 . S
C3526 H3517 0.930 . S
C3526 C3524 1.384 . S
C3526 C3527 1.372 . S
C3527 C3526 1.372 . S
C3527 C3528 1.400 . S
C3527 C3532 1.490 . S
C3528 H3518 0.930 . S
C3528 C3527 1.400 . S
C3528 C3531 1.386 . S
H3529 C3545 0.930 . S
H3530 C3546 0.931 . S
C3531 H3519 0.929 . S
C3531 C3525 1.390 . S
C3531 C3528 1.386 . S
C3532 C3527 1.490 . S
C3532 C3534 1.395 . S
C3532 C3535 1.403 . S
H3533 C3539 0.930 . S
C3534 H3520 0.930 . S
C3534 C3532 1.395 . S
C3534 C3537 1.403 . S
C3535 C3532 1.403 . S
C3535 C3536 1.524 . S
C3535 C3539 1.400 . S
C3536 H3521 0.960 . S
C3536 H3522 0.960 . S
C3536 H3523 0.960 . S
C3536 C3535 1.524 . S
C3537 C3534 1.403 . S
C3537 C3538 1.392 . S
C3537 C3541 1.495 . S
C3538 C3537 1.392 . S
C3538 C3539 1.385 . S
C3538 C3540 1.478 . S
C3539 H3533 0.930 . S
C3539 C3535 1.400 . S
C3539 C3538 1.385 . S
C3540 C3538 1.478 . S
C3540 C3542 1.381 . S
C3540 C3546 1.383 . S
C3541 C3537 1.495 . S
C3541 H3547 0.959 . S
C3541 H3548 0.961 . S
C3541 H3549 0.960 . S
C3542 C3540 1.381 . S
C3542 C3543 1.394 . S
C3542 H3550 0.930 . S
C3543 C3542 1.394 . S
C3543 C3544 1.383 . S
C3543 H3551 0.929 . S
C3544 C3543 1.383 . S
C3544 C3545 1.377 . S
C3545 H3529 0.930 . S
C3545 C3544 1.377 . S
C3545 C3546 1.379 . S
C3546 H3530 0.931 . S
C3546 C3540 1.383 . S
C3546 C3545 1.379 . S
H3547 C3541 0.959 . S
H3548 C3541 0.961 . S
H3549 C3541 0.960 . S
H3550 C3542 0.930 . S
H3551 C3543 0.929 . S
H3552 C3560 0.929 . S
H3553 C3562 0.930 . S
H3554 C3564 0.930 . S
H3555 C3567 0.929 . S
H3556 C3570 0.930 . S
H3557 C3572 0.960 . S
H3558 C3572 0.960 . S
H3559 C3572 0.960 . S
C3560 H3552 0.929 . S
C3560 C3561 1.377 . S
C3560 C3562 1.384 . S
C3561 C3560 1.377 . S
C3561 C3567 1.390 . S
C3562 H3553 0.930 . S
C3562 C3560 1.384 . S
C3562 C3563 1.372 . S
C3563 C3562 1.372 . S
C3563 C3564 1.400 . S
C3563 C3568 1.490 . S
C3564 H3554 0.930 . S
C3564 C3563 1.400 . S
C3564 C3567 1.386 . S
H3565 C3581 0.930 . S
H3566 C3582 0.931 . S
C3567 H3555 0.929 . S
C3567 C3561 1.390 . S
C3567 C3564 1.386 . S
C3568 C3563 1.490 . S
C3568 C3570 1.395 . S
C3568 C3571 1.403 . S
H3569 C3575 0.930 . S
C3570 H3556 0.930 . S
C3570 C3568 1.395 . S
C3570 C3573 1.403 . S
C3571 C3568 1.403 . S
C3571 C3572 1.524 . S
C3571 C3575 1.400 . S
C3572 H3557 0.960 . S
C3572 H3558 0.960 . S
C3572 H3559 0.960 . S
C3572 C3571 1.524 . S
C3573 C3570 1.403 . S
C3573 C3574 1.392 . S
C3573 C3577 1.495 . S
C3574 C3573 1.392 . S
C3574 C3575 1.385 . S
C3574 C3576 1.478 . S
C3575 H3569 0.930 . S
C3575 C3571 1.400 . S
C3575 C3574 1.385 . S
C3576 C3574 1.478 . S
C3576 C3578 1.381 . S
C3576 C3582 1.383 . S
C3577 C3573 1.495 . S
C3577 H3583 0.959 . S
C3577 H3584 0.961 . S
C3577 H3585 0.960 . S
C3578 C3576 1.381 . S
C3578 C3579 1.394 . S
C3578 H3586 0.930 . S
C3579 C3578 1.394 . S
C3579 C3580 1.383 . S
C3579 H3587 0.929 . S
C3580 C3579 1.383 . S
C3580 C3581 1.377 . S
C3581 H3565 0.930 . S
C3581 C3580 1.377 . S
C3581 C3582 1.379 . S
C3582 H3566 0.931 . S
C3582 C3576 1.383 . S
C3582 C3581 1.379 . S
H3583 C3577 0.959 . S
H3584 C3577 0.961 . S
H3585 C3577 0.960 . S
H3586 C3578 0.930 . S
H3587 C3579 0.929 . S
H3588 C3596 0.929 . S
H3589 C3598 0.930 . S
H3590 C3600 0.930 . S
H3591 C3603 0.929 . S
H3592 C3606 0.930 . S
H3593 C3608 0.960 . S
H3594 C3608 0.960 . S
H3595 C3608 0.960 . S
C3596 H3588 0.929 . S
C3596 C3597 1.377 . S
C3596 C3598 1.384 . S
C3597 C3596 1.377 . S
C3597 C3603 1.390 . S
C3598 H3589 0.930 . S
C3598 C3596 1.384 . S
C3598 C3599 1.372 . S
C3599 C3598 1.372 . S
C3599 C3600 1.400 . S
C3599 C3604 1.490 . S
C3600 H3590 0.930 . S
C3600 C3599 1.400 . S
C3600 C3603 1.386 . S
H3601 C3617 0.930 . S
H3602 C3618 0.931 . S
C3603 H3591 0.929 . S
C3603 C3597 1.390 . S
C3603 C3600 1.386 . S
C3604 C3599 1.490 . S
C3604 C3606 1.395 . S
C3604 C3607 1.403 . S
H3605 C3611 0.934 1_554 S
C3606 H3592 0.930 . S
C3606 C3604 1.395 . S
C3606 C3609 1.403 . S
C3607 C3604 1.403 . S
C3607 C3608 1.524 . S
C3607 C3611 1.400 . S
C3608 H3593 0.960 . S
C3608 H3594 0.960 . S
C3608 H3595 0.960 . S
C3608 C3607 1.524 . S
C3609 C3606 1.403 . S
C3609 C3610 1.363 1_556 S
C3609 C3613 1.495 . S
C3610 C3609 1.363 1_554 S
C3610 C3611 1.362 1_554 S
C3610 C3612 1.532 . S
C3611 H3605 0.934 1_556 S
C3611 C3607 1.400 . S
C3611 C3610 1.362 1_556 S
C3612 C3610 1.532 . S
C3612 C3614 1.381 . S
C3612 C3618 1.383 . S
C3613 C3609 1.495 . S
C3613 H3619 0.959 . S
C3613 H3620 0.961 1_556 S
C3613 H3621 0.960 1_556 S
C3614 C3612 1.381 . S
C3614 C3615 1.394 . S
C3614 H3622 0.930 . S
C3615 C3614 1.394 . S
C3615 C3616 1.383 . S
C3615 H3623 0.929 . S
C3616 C3615 1.383 . S
C3616 C3617 1.377 . S
C3617 H3601 0.930 . S
C3617 C3616 1.377 . S
C3617 C3618 1.379 . S
C3618 H3602 0.931 . S
C3618 C3612 1.383 . S
C3618 C3617 1.379 . S
H3619 C3613 0.959 . S
H3620 C3613 0.961 1_554 S
H3621 C3613 0.960 1_554 S
H3622 C3614 0.930 . S
H3623 C3615 0.929 . S
H3624 C3632 0.929 . S
H3625 C3634 0.930 . S
H3626 C3636 0.930 . S
H3627 C3639 0.929 . S
H3628 C3642 0.930 . S
H3629 C3644 0.960 . S
H3630 C3644 0.960 . S
H3631 C3644 0.960 . S
C3632 H3624 0.929 . S
C3632 C3633 1.377 . S
C3632 C3634 1.384 . S
C3633 C3632 1.377 . S
C3633 C3639 1.390 . S
C3634 H3625 0.930 . S
C3634 C3632 1.384 . S
C3634 C3635 1.372 . S
C3635 C3634 1.372 . S
C3635 C3636 1.400 . S
C3635 C3640 1.490 . S
C3636 H3626 0.930 . S
C3636 C3635 1.400 . S
C3636 C3639 1.386 . S
H3637 C3653 0.930 . S
H3638 C3654 0.931 . S
C3639 H3627 0.929 . S
C3639 C3633 1.390 . S
C3639 C3636 1.386 . S
C3640 C3635 1.490 . S
C3640 C3642 1.395 . S
C3640 C3643 1.403 . S
H3641 C3647 0.930 . S
C3642 H3628 0.930 . S
C3642 C3640 1.395 . S
C3642 C3645 1.403 . S
C3643 C3640 1.403 . S
C3643 C3644 1.524 . S
C3643 C3647 1.400 . S
C3644 H3629 0.960 . S
C3644 H3630 0.960 . S
C3644 H3631 0.960 . S
C3644 C3643 1.524 . S
C3645 C3642 1.403 . S
C3645 C3646 1.392 . S
C3645 C3649 1.495 . S
C3646 C3645 1.392 . S
C3646 C3647 1.385 . S
C3646 C3648 1.478 . S
C3647 H3641 0.930 . S
C3647 C3643 1.400 . S
C3647 C3646 1.385 . S
C3648 C3646 1.478 . S
C3648 C3650 1.381 . S
C3648 C3654 1.383 . S
C3649 C3645 1.495 . S
C3649 H3655 0.959 . S
C3649 H3656 0.961 . S
C3649 H3657 0.960 . S
C3650 C3648 1.381 . S
C3650 C3651 1.394 . S
C3650 H3658 0.930 . S
C3651 C3650 1.394 . S
C3651 C3652 1.383 . S
C3651 H3659 0.929 . S
C3652 C3651 1.383 . S
C3652 C3653 1.377 . S
C3653 H3637 0.930 . S
C3653 C3652 1.377 . S
C3653 C3654 1.379 . S
C3654 H3638 0.931 . S
C3654 C3648 1.383 . S
C3654 C3653 1.379 . S
H3655 C3649 0.959 . S
H3656 C3649 0.961 . S
H3657 C3649 0.960 . S
H3658 C3650 0.930 . S
H3659 C3651 0.929 . S
H3660 C3668 0.929 . S
H3661 C3670 0.930 . S
H3662 C3672 0.930 . S
H3663 C3675 0.929 . S
H3664 C3678 0.930 . S
H3665 C3680 0.960 . S
H3666 C3680 0.960 . S
H3667 C3680 0.960 . S
C3668 H3660 0.929 . S
C3668 C3669 1.377 . S
C3668 C3670 1.384 . S
C3669 C3668 1.377 . S
C3669 C3675 1.390 . S
C3670 H3661 0.930 . S
C3670 C3668 1.384 . S
C3670 C3671 1.372 . S
C3671 C3670 1.372 . S
C3671 C3672 1.400 . S
C3671 C3676 1.490 . S
C3672 H3662 0.930 . S
C3672 C3671 1.400 . S
C3672 C3675 1.386 . S
H3673 C3689 0.930 . S
H3674 C3690 0.931 . S
C3675 H3663 0.929 . S
C3675 C3669 1.390 . S
C3675 C3672 1.386 . S
C3676 C3671 1.490 . S
C3676 C3678 1.395 . S
C3676 C3679 1.403 . S
H3677 C3683 0.930 . S
C3678 H3664 0.930 . S
C3678 C3676 1.395 . S
C3678 C3681 1.403 . S
C3679 C3676 1.403 . S
C3679 C3680 1.524 . S
C3679 C3683 1.400 . S
C3680 H3665 0.960 . S
C3680 H3666 0.960 . S
C3680 H3667 0.960 . S
C3680 C3679 1.524 . S
C3681 C3678 1.403 . S
C3681 C3682 1.392 . S
C3681 C3685 1.495 . S
C3682 C3681 1.392 . S
C3682 C3683 1.385 . S
C3682 C3684 1.478 . S
C3683 H3677 0.930 . S
C3683 C3679 1.400 . S
C3683 C3682 1.385 . S
C3684 C3682 1.478 . S
C3684 C3686 1.381 . S
C3684 C3690 1.383 . S
C3685 C3681 1.495 . S
C3685 H3691 0.959 . S
C3685 H3692 0.961 . S
C3685 H3693 0.960 . S
C3686 C3684 1.381 . S
C3686 C3687 1.394 . S
C3686 H3694 0.930 . S
C3687 C3686 1.394 . S
C3687 C3688 1.383 . S
C3687 H3695 0.929 . S
C3688 C3687 1.383 . S
C3688 C3689 1.377 . S
C3689 H3673 0.930 . S
C3689 C3688 1.377 . S
C3689 C3690 1.379 . S
C3690 H3674 0.931 . S
C3690 C3684 1.383 . S
C3690 C3689 1.379 . S
H3691 C3685 0.959 . S
H3692 C3685 0.961 . S
H3693 C3685 0.960 . S
H3694 C3686 0.930 . S
H3695 C3687 0.929 . S
H3696 C3704 0.929 . S
H3697 C3706 0.930 . S
H3698 C3708 0.930 . S
H3699 C3711 0.929 . S
H3700 C3714 0.930 . S
H3701 C3716 0.960 . S
H3702 C3716 0.960 . S
H3703 C3716 0.960 . S
C3704 H3696 0.929 . S
C3704 C3705 1.377 . S
C3704 C3706 1.384 . S
C3705 C3704 1.377 . S
C3705 C3711 1.390 . S
C3706 H3697 0.930 . S
C3706 C3704 1.384 . S
C3706 C3707 1.372 . S
C3707 C3706 1.372 . S
C3707 C3708 1.400 . S
C3707 C3712 1.490 . S
C3708 H3698 0.930 . S
C3708 C3707 1.400 . S
C3708 C3711 1.386 . S
H3709 C3725 0.930 . S
H3710 C3726 0.931 . S
C3711 H3699 0.929 . S
C3711 C3705 1.390 . S
C3711 C3708 1.386 . S
C3712 C3707 1.490 . S
C3712 C3714 1.395 . S
C3712 C3715 1.403 . S
H3713 C3719 0.930 . S
C3714 H3700 0.930 . S
C3714 C3712 1.395 . S
C3714 C3717 1.403 . S
C3715 C3712 1.403 . S
C3715 C3716 1.524 . S
C3715 C3719 1.400 . S
C3716 H3701 0.960 . S
C3716 H3702 0.960 . S
C3716 H3703 0.960 . S
C3716 C3715 1.524 . S
C3717 C3714 1.403 . S
C3717 C3718 1.392 . S
C3717 C3721 1.495 . S
C3718 C3717 1.392 . S
C3718 C3719 1.385 . S
C3718 C3720 1.478 . S
C3719 H3713 0.930 . S
C3719 C3715 1.400 . S
C3719 C3718 1.385 . S
C3720 C3718 1.478 . S
C3720 C3722 1.381 . S
C3720 C3726 1.383 . S
C3721 C3717 1.495 . S
C3721 H3727 0.959 . S
C3721 H3728 0.961 . S
C3721 H3729 0.960 . S
C3722 C3720 1.381 . S
C3722 C3723 1.394 . S
C3722 H3730 0.930 . S
C3723 C3722 1.394 . S
C3723 C3724 1.383 . S
C3723 H3731 0.929 . S
C3724 C3723 1.383 . S
C3724 C3725 1.377 . S
C3725 H3709 0.930 . S
C3725 C3724 1.377 . S
C3725 C3726 1.379 . S
C3726 H3710 0.931 . S
C3726 C3720 1.383 . S
C3726 C3725 1.379 . S
H3727 C3721 0.959 . S
H3728 C3721 0.961 . S
H3729 C3721 0.960 . S
H3730 C3722 0.930 . S
H3731 C3723 0.929 . S
H3732 C3740 0.929 . S
H3733 C3742 0.930 . S
H3734 C3744 0.930 . S
H3735 C3747 0.929 . S
H3736 C3750 0.930 . S
H3737 C3752 0.960 . S
H3738 C3752 0.960 . S
H3739 C3752 0.960 . S
C3740 H3732 0.929 . S
C3740 C3741 1.377 . S
C3740 C3742 1.384 . S
C3741 C3740 1.377 . S
C3741 C3747 1.390 . S
C3742 H3733 0.930 . S
C3742 C3740 1.384 . S
C3742 C3743 1.372 . S
C3743 C3742 1.372 . S
C3743 C3744 1.400 . S
C3743 C3748 1.490 . S
C3744 H3734 0.930 . S
C3744 C3743 1.400 . S
C3744 C3747 1.386 . S
H3745 C3761 0.930 . S
H3746 C3762 0.931 . S
C3747 H3735 0.929 . S
C3747 C3741 1.390 . S
C3747 C3744 1.386 . S
C3748 C3743 1.490 . S
C3748 C3750 1.395 . S
C3748 C3751 1.403 . S
H3749 C3755 0.930 . S
C3750 H3736 0.930 . S
C3750 C3748 1.395 . S
C3750 C3753 1.403 . S
C3751 C3748 1.403 . S
C3751 C3752 1.524 . S
C3751 C3755 1.400 . S
C3752 H3737 0.960 . S
C3752 H3738 0.960 . S
C3752 H3739 0.960 . S
C3752 C3751 1.524 . S
C3753 C3750 1.403 . S
C3753 C3754 1.390 1_554 S
C3753 C3757 1.495 1_554 S
C3754 C3753 1.390 1_556 S
C3754 C3755 1.380 1_556 S
C3754 C3756 1.485 . S
C3755 H3749 0.930 . S
C3755 C3751 1.400 . S
C3755 C3754 1.380 1_554 S
C3756 C3754 1.485 . S
C3756 C3758 1.381 . S
C3756 C3762 1.383 . S
C3757 C3753 1.495 1_556 S
C3757 H3763 0.948 1_556 S
C3757 H3764 0.961 . S
C3757 H3765 0.960 . S
C3758 C3756 1.381 . S
C3758 C3759 1.394 . S
C3758 H3766 0.930 . S
C3759 C3758 1.394 . S
C3759 C3760 1.383 . S
C3759 H3767 0.929 . S
C3760 C3759 1.383 . S
C3760 C3761 1.377 . S
C3761 H3745 0.930 . S
C3761 C3760 1.377 . S
C3761 C3762 1.379 . S
C3762 H3746 0.931 . S
C3762 C3756 1.383 . S
C3762 C3761 1.379 . S
H3763 C3757 0.948 1_554 S
H3764 C3757 0.961 . S
H3765 C3757 0.960 . S
H3766 C3758 0.930 . S
H3767 C3759 0.929 . S
H3768 C3776 0.929 . S
H3769 C3778 0.930 . S
H3770 C3780 0.930 . S
H3771 C3783 0.929 . S
H3772 C3786 0.930 . S
H3773 C3788 0.960 . S
H3774 C3788 0.960 . S
H3775 C3788 0.960 . S
C3776 H3768 0.929 . S
C3776 C3777 1.377 . S
C3776 C3778 1.384 . S
C3777 C3776 1.377 . S
C3777 C3783 1.390 . S
C3778 H3769 0.930 . S
C3778 C3776 1.384 . S
C3778 C3779 1.372 . S
C3779 C3778 1.372 . S
C3779 C3780 1.400 . S
C3779 C3784 1.490 . S
C3780 H3770 0.930 . S
C3780 C3779 1.400 . S
C3780 C3783 1.386 . S
H3781 C3797 0.930 . S
H3782 C3798 0.931 . S
C3783 H3771 0.929 . S
C3783 C3777 1.390 . S
C3783 C3780 1.386 . S
C3784 C3779 1.490 . S
C3784 C3786 1.395 . S
C3784 C3787 1.403 . S
H3785 C3791 0.930 . S
C3786 H3772 0.930 . S
C3786 C3784 1.395 . S
C3786 C3789 1.403 . S
C3787 C3784 1.403 . S
C3787 C3788 1.524 . S
C3787 C3791 1.400 . S
C3788 H3773 0.960 . S
C3788 H3774 0.960 . S
C3788 H3775 0.960 . S
C3788 C3787 1.524 . S
C3789 C3786 1.403 . S
C3789 C3790 1.392 . S
C3789 C3793 1.495 . S
C3790 C3789 1.392 . S
C3790 C3791 1.385 . S
C3790 C3792 1.478 . S
C3791 H3785 0.930 . S
C3791 C3787 1.400 . S
C3791 C3790 1.385 . S
C3792 C3790 1.478 . S
C3792 C3794 1.381 . S
C3792 C3798 1.383 . S
C3793 C3789 1.495 . S
C3793 H3799 0.959 . S
C3793 H3800 0.961 . S
C3793 H3801 0.960 . S
C3794 C3792 1.381 . S
C3794 C3795 1.394 . S
C3794 H3802 0.930 . S
C3795 C3794 1.394 . S
C3795 C3796 1.383 . S
C3795 H3803 0.929 . S
C3796 C3795 1.383 . S
C3796 C3797 1.377 . S
C3797 H3781 0.930 . S
C3797 C3796 1.377 . S
C3797 C3798 1.379 . S
C3798 H3782 0.931 . S
C3798 C3792 1.383 . S
C3798 C3797 1.379 . S
H3799 C3793 0.959 . S
H3800 C3793 0.961 . S
H3801 C3793 0.960 . S
H3802 C3794 0.930 . S
H3803 C3795 0.929 . S
H3804 C3812 0.929 . S
H3805 C3814 0.930 . S
H3806 C3816 0.930 . S
H3807 C3819 0.929 . S
H3808 C3822 0.930 . S
H3809 C3824 0.960 . S
H3810 C3824 0.960 . S
H3811 C3824 0.960 . S
C3812 H3804 0.929 . S
C3812 C3813 1.377 . S
C3812 C3814 1.384 . S
C3813 C3812 1.377 . S
C3813 C3819 1.390 . S
C3814 H3805 0.930 . S
C3814 C3812 1.384 . S
C3814 C3815 1.372 . S
C3815 C3814 1.372 . S
C3815 C3816 1.400 . S
C3815 C3820 1.490 . S
C3816 H3806 0.930 . S
C3816 C3815 1.400 . S
C3816 C3819 1.386 . S
H3817 C3833 0.930 . S
H3818 C3834 0.931 . S
C3819 H3807 0.929 . S
C3819 C3813 1.390 . S
C3819 C3816 1.386 . S
C3820 C3815 1.490 . S
C3820 C3822 1.395 . S
C3820 C3823 1.403 . S
H3821 C3827 0.930 . S
C3822 H3808 0.930 . S
C3822 C3820 1.395 . S
C3822 C3825 1.403 . S
C3823 C3820 1.403 . S
C3823 C3824 1.524 . S
C3823 C3827 1.400 . S
C3824 H3809 0.960 . S
C3824 H3810 0.960 . S
C3824 H3811 0.960 . S
C3824 C3823 1.524 . S
C3825 C3822 1.403 . S
C3825 C3826 1.392 . S
C3825 C3829 1.495 . S
C3826 C3825 1.392 . S
C3826 C3827 1.385 . S
C3826 C3828 1.478 . S
C3827 H3821 0.930 . S
C3827 C3823 1.400 . S
C3827 C3826 1.385 . S
C3828 C3826 1.478 . S
C3828 C3830 1.381 . S
C3828 C3834 1.383 . S
C3829 C3825 1.495 . S
C3829 H3835 0.959 . S
C3829 H3836 0.961 . S
C3829 H3837 0.960 . S
C3830 C3828 1.381 . S
C3830 C3831 1.394 . S
C3830 H3838 0.930 . S
C3831 C3830 1.394 . S
C3831 C3832 1.383 . S
C3831 H3839 0.929 . S
C3832 C3831 1.383 . S
C3832 C3833 1.377 . S
C3833 H3817 0.930 . S
C3833 C3832 1.377 . S
C3833 C3834 1.379 . S
C3834 H3818 0.931 . S
C3834 C3828 1.383 . S
C3834 C3833 1.379 . S
H3835 C3829 0.959 . S
H3836 C3829 0.961 . S
H3837 C3829 0.960 . S
H3838 C3830 0.930 . S
H3839 C3831 0.929 . S
H3840 C3848 0.929 . S
H3841 C3850 0.930 . S
H3842 C3852 0.930 . S
H3843 C3855 0.929 . S
H3844 C3858 0.930 . S
H3845 C3860 0.960 . S
H3846 C3860 0.960 . S
H3847 C3860 0.960 . S
C3848 H3840 0.929 . S
C3848 C3849 1.377 . S
C3848 C3850 1.384 . S
C3849 C3848 1.377 . S
C3849 C3855 1.390 . S
C3850 H3841 0.930 . S
C3850 C3848 1.384 . S
C3850 C3851 1.372 . S
C3851 C3850 1.372 . S
C3851 C3852 1.400 . S
C3851 C3856 1.490 . S
C3852 H3842 0.930 . S
C3852 C3851 1.400 . S
C3852 C3855 1.386 . S
H3853 C3869 0.930 . S
H3854 C3870 0.931 . S
C3855 H3843 0.929 . S
C3855 C3849 1.390 . S
C3855 C3852 1.386 . S
C3856 C3851 1.490 . S
C3856 C3858 1.395 . S
C3856 C3859 1.403 . S
H3857 C3863 0.930 . S
C3858 H3844 0.930 . S
C3858 C3856 1.395 . S
C3858 C3861 1.403 . S
C3859 C3856 1.403 . S
C3859 C3860 1.524 . S
C3859 C3863 1.400 . S
C3860 H3845 0.960 . S
C3860 H3846 0.960 . S
C3860 H3847 0.960 . S
C3860 C3859 1.524 . S
C3861 C3858 1.403 . S
C3861 C3862 1.392 . S
C3861 C3865 1.495 . S
C3862 C3861 1.392 . S
C3862 C3863 1.385 . S
C3862 C3864 1.478 . S
C3863 H3857 0.930 . S
C3863 C3859 1.400 . S
C3863 C3862 1.385 . S
C3864 C3862 1.478 . S
C3864 C3866 1.381 . S
C3864 C3870 1.383 . S
C3865 C3861 1.495 . S
C3865 H3871 0.959 . S
C3865 H3872 0.961 . S
C3865 H3873 0.960 . S
C3866 C3864 1.381 . S
C3866 C3867 1.394 . S
C3866 H3874 0.930 . S
C3867 C3866 1.394 . S
C3867 C3868 1.383 . S
C3867 H3875 0.929 . S
C3868 C3867 1.383 . S
C3868 C3869 1.377 . S
C3869 H3853 0.930 . S
C3869 C3868 1.377 . S
C3869 C3870 1.379 . S
C3870 H3854 0.931 . S
C3870 C3864 1.383 . S
C3870 C3869 1.379 . S
H3871 C3865 0.959 . S
H3872 C3865 0.961 . S
H3873 C3865 0.960 . S
H3874 C3866 0.930 . S
H3875 C3867 0.929 . S
H3876 C3884 0.929 . S
H3877 C3886 0.930 . S
H3878 C3888 0.930 . S
H3879 C3891 0.929 . S
H3880 C3894 0.930 . S
H3881 C3896 0.960 . S
H3882 C3896 0.960 . S
H3883 C3896 0.960 . S
C3884 H3876 0.929 . S
C3884 C3885 1.377 . S
C3884 C3886 1.384 . S
C3885 C3884 1.377 . S
C3885 C3891 1.390 . S
C3886 H3877 0.930 . S
C3886 C3884 1.384 . S
C3886 C3887 1.372 . S
C3887 C3886 1.372 . S
C3887 C3888 1.400 . S
C3887 C3892 1.490 . S
C3888 H3878 0.930 . S
C3888 C3887 1.400 . S
C3888 C3891 1.386 . S
H3889 C3905 0.930 . S
H3890 C3906 0.931 . S
C3891 H3879 0.929 . S
C3891 C3885 1.390 . S
C3891 C3888 1.386 . S
C3892 C3887 1.490 . S
C3892 C3894 1.395 . S
C3892 C3895 1.403 . S
H3893 C3899 0.930 . S
C3894 H3880 0.930 . S
C3894 C3892 1.395 . S
C3894 C3897 1.403 . S
C3895 C3892 1.403 . S
C3895 C3896 1.524 . S
C3895 C3899 1.400 . S
C3896 H3881 0.960 . S
C3896 H3882 0.960 . S
C3896 H3883 0.960 . S
C3896 C3895 1.524 . S
C3897 C3894 1.403 . S
C3897 C3898 1.392 . S
C3897 C3901 1.495 . S
C3898 C3897 1.392 . S
C3898 C3899 1.385 . S
C3898 C3900 1.478 . S
C3899 H3893 0.930 . S
C3899 C3895 1.400 . S
C3899 C3898 1.385 . S
C3900 C3898 1.478 . S
C3900 C3902 1.381 . S
C3900 C3906 1.383 . S
C3901 C3897 1.495 . S
C3901 H3907 0.959 . S
C3901 H3908 0.961 . S
C3901 H3909 0.960 . S
C3902 C3900 1.381 . S
C3902 C3903 1.394 . S
C3902 H3910 0.930 . S
C3903 C3902 1.394 . S
C3903 C3904 1.383 . S
C3903 H3911 0.929 . S
C3904 C3903 1.383 . S
C3904 C3905 1.377 . S
C3905 H3889 0.930 . S
C3905 C3904 1.377 . S
C3905 C3906 1.379 . S
C3906 H3890 0.931 . S
C3906 C3900 1.383 . S
C3906 C3905 1.379 . S
H3907 C3901 0.959 . S
H3908 C3901 0.961 . S
H3909 C3901 0.960 . S
H3910 C3902 0.930 . S
H3911 C3903 0.929 . S
H3912 C3920 0.929 . S
H3913 C3922 0.930 . S
H3914 C3924 0.930 . S
H3915 C3927 0.929 . S
H3916 C3930 0.930 . S
H3917 C3932 0.960 . S
H3918 C3932 0.960 . S
H3919 C3932 0.960 . S
C3920 H3912 0.929 . S
C3920 C3921 1.377 . S
C3920 C3922 1.384 . S
C3921 C3920 1.377 . S
C3921 C3927 1.390 . S
C3922 H3913 0.930 . S
C3922 C3920 1.384 . S
C3922 C3923 1.372 . S
C3923 C3922 1.372 . S
C3923 C3924 1.400 . S
C3923 C3928 1.490 . S
C3924 H3914 0.930 . S
C3924 C3923 1.400 . S
C3924 C3927 1.386 . S
H3925 C3941 0.930 . S
H3926 C3942 0.931 . S
C3927 H3915 0.929 . S
C3927 C3921 1.390 . S
C3927 C3924 1.386 . S
C3928 C3923 1.490 . S
C3928 C3930 1.395 . S
C3928 C3931 1.403 . S
H3929 C3935 0.930 1_545 S
C3930 H3916 0.930 . S
C3930 C3928 1.395 . S
C3930 C3933 1.403 . S
C3931 C3928 1.403 . S
C3931 C3932 1.524 . S
C3931 C3935 1.400 . S
C3932 H3917 0.960 . S
C3932 H3918 0.960 . S
C3932 H3919 0.960 . S
C3932 C3931 1.524 . S
C3933 C3930 1.403 . S
C3933 C3934 1.392 1_565 S
C3933 C3937 1.495 . S
C3934 C3933 1.392 1_545 S
C3934 C3935 1.385 1_545 S
C3934 C3936 1.478 . S
C3935 H3929 0.930 1_565 S
C3935 C3931 1.400 . S
C3935 C3934 1.385 1_565 S
C3936 C3934 1.478 . S
C3936 C3938 1.381 . S
C3936 C3942 1.383 . S
C3937 C3933 1.495 . S
C3937 H3943 0.959 . S
C3937 H3944 0.961 . S
C3937 H3945 0.960 . S
C3938 C3936 1.381 . S
C3938 C3939 1.394 . S
C3938 H3946 0.930 . S
C3939 C3938 1.394 . S
C3939 C3940 1.383 . S
C3939 H3947 0.929 . S
C3940 C3939 1.383 . S
C3940 C3941 1.377 . S
C3941 H3925 0.930 . S
C3941 C3940 1.377 . S
C3941 C3942 1.379 . S
C3942 H3926 0.931 . S
C3942 C3936 1.383 . S
C3942 C3941 1.379 . S
H3943 C3937 0.959 . S
H3944 C3937 0.961 . S
H3945 C3937 0.960 . S
H3946 C3938 0.930 . S
H3947 C3939 0.929 . S
H3948 C3956 0.929 . S
H3949 C3958 0.930 . S
H3950 C3960 0.930 . S
H3951 C3963 0.929 . S
H3952 C3966 0.930 . S
H3953 C3968 0.960 . S
H3954 C3968 0.960 . S
H3955 C3968 0.960 . S
C3956 H3948 0.929 . S
C3956 C3957 1.377 . S
C3956 C3958 1.384 . S
C3957 C3956 1.377 . S
C3957 C3963 1.390 . S
C3958 H3949 0.930 . S
C3958 C3956 1.384 . S
C3958 C3959 1.372 . S
C3959 C3958 1.372 . S
C3959 C3960 1.400 . S
C3959 C3964 1.490 . S
C3960 H3950 0.930 . S
C3960 C3959 1.400 . S
C3960 C3963 1.386 . S
H3961 C3977 0.930 . S
H3962 C3978 0.931 . S
C3963 H3951 0.929 . S
C3963 C3957 1.390 . S
C3963 C3960 1.386 . S
C3964 C3959 1.490 . S
C3964 C3966 1.395 . S
C3964 C3967 1.403 . S
H3965 C3971 0.930 . S
C3966 H3952 0.930 . S
C3966 C3964 1.395 . S
C3966 C3969 1.403 . S
C3967 C3964 1.403 . S
C3967 C3968 1.524 . S
C3967 C3971 1.400 . S
C3968 H3953 0.960 . S
C3968 H3954 0.960 . S
C3968 H3955 0.960 . S
C3968 C3967 1.524 . S
C3969 C3966 1.403 . S
C3969 C3970 1.392 . S
C3969 C3973 1.495 . S
C3970 C3969 1.392 . S
C3970 C3971 1.385 . S
C3970 C3972 1.478 . S
C3971 H3965 0.930 . S
C3971 C3967 1.400 . S
C3971 C3970 1.385 . S
C3972 C3970 1.478 . S
C3972 C3974 1.381 . S
C3972 C3978 1.383 . S
C3973 C3969 1.495 . S
C3973 H3979 0.959 . S
C3973 H3980 0.961 . S
C3973 H3981 0.960 . S
C3974 C3972 1.381 . S
C3974 C3975 1.394 . S
C3974 H3982 0.930 . S
C3975 C3974 1.394 . S
C3975 C3976 1.383 . S
C3975 H3983 0.929 . S
C3976 C3975 1.383 . S
C3976 C3977 1.377 . S
C3977 H3961 0.930 . S
C3977 C3976 1.377 . S
C3977 C3978 1.379 . S
C3978 H3962 0.931 . S
C3978 C3972 1.383 . S
C3978 C3977 1.379 . S
H3979 C3973 0.959 . S
H3980 C3973 0.961 . S
H3981 C3973 0.960 . S
H3982 C3974 0.930 . S
H3983 C3975 0.929 . S
H3984 C3992 0.929 . S
H3985 C3994 0.930 . S
H3986 C3996 0.930 . S
H3987 C3999 0.929 . S
H3988 C4002 0.930 . S
H3989 C4004 0.960 . S
H3990 C4004 0.960 . S
H3991 C4004 0.960 . S
C3992 H3984 0.929 . S
C3992 C3993 1.377 . S
C3992 C3994 1.384 . S
C3993 C3992 1.377 . S
C3993 C3999 1.390 . S
C3994 H3985 0.930 . S
C3994 C3992 1.384 . S
C3994 C3995 1.372 . S
C3995 C3994 1.372 . S
C3995 C3996 1.400 . S
C3995 C4000 1.490 . S
C3996 H3986 0.930 . S
C3996 C3995 1.400 . S
C3996 C3999 1.386 . S
H3997 C4013 0.930 . S
H3998 C4014 0.931 . S
C3999 H3987 0.929 . S
C3999 C3993 1.390 . S
C3999 C3996 1.386 . S
C4000 C3995 1.490 . S
C4000 C4002 1.395 . S
C4000 C4003 1.403 . S
H4001 C4007 0.930 . S
C4002 H3988 0.930 . S
C4002 C4000 1.395 . S
C4002 C4005 1.403 . S
C4003 C4000 1.403 . S
C4003 C4004 1.524 . S
C4003 C4007 1.400 . S
C4004 H3989 0.960 . S
C4004 H3990 0.960 . S
C4004 H3991 0.960 . S
C4004 C4003 1.524 . S
C4005 C4002 1.403 . S
C4005 C4006 1.392 . S
C4005 C4009 1.495 . S
C4006 C4005 1.392 . S
C4006 C4007 1.385 . S
C4006 C4008 1.478 . S
C4007 H4001 0.930 . S
C4007 C4003 1.400 . S
C4007 C4006 1.385 . S
C4008 C4006 1.478 . S
C4008 C4010 1.381 . S
C4008 C4014 1.383 . S
C4009 C4005 1.495 . S
C4009 H4015 0.959 . S
C4009 H4016 0.961 . S
C4009 H4017 0.960 . S
C4010 C4008 1.381 . S
C4010 C4011 1.394 . S
C4010 H4018 0.930 . S
C4011 C4010 1.394 . S
C4011 C4012 1.383 . S
C4011 H4019 0.929 . S
C4012 C4011 1.383 . S
C4012 C4013 1.377 . S
C4013 H3997 0.930 . S
C4013 C4012 1.377 . S
C4013 C4014 1.379 . S
C4014 H3998 0.931 . S
C4014 C4008 1.383 . S
C4014 C4013 1.379 . S
H4015 C4009 0.959 . S
H4016 C4009 0.961 . S
H4017 C4009 0.960 . S
H4018 C4010 0.930 . S
H4019 C4011 0.929 . S
H4020 C4028 0.929 . S
H4021 C4030 0.930 . S
H4022 C4032 0.930 . S
H4023 C4035 0.929 . S
H4024 C4038 0.930 . S
H4025 C4040 0.960 . S
H4026 C4040 0.960 . S
H4027 C4040 0.960 . S
C4028 H4020 0.929 . S
C4028 C4029 1.377 . S
C4028 C4030 1.384 . S
C4029 C4028 1.377 . S
C4029 C4035 1.390 . S
C4030 H4021 0.930 . S
C4030 C4028 1.384 . S
C4030 C4031 1.372 . S
C4031 C4030 1.372 . S
C4031 C4032 1.400 . S
C4031 C4036 1.490 . S
C4032 H4022 0.930 . S
C4032 C4031 1.400 . S
C4032 C4035 1.386 . S
H4033 C4049 0.930 . S
H4034 C4050 0.931 . S
C4035 H4023 0.929 . S
C4035 C4029 1.390 . S
C4035 C4032 1.386 . S
C4036 C4031 1.490 . S
C4036 C4038 1.395 . S
C4036 C4039 1.403 . S
H4037 C4043 0.930 . S
C4038 H4024 0.930 . S
C4038 C4036 1.395 . S
C4038 C4041 1.403 . S
C4039 C4036 1.403 . S
C4039 C4040 1.524 . S
C4039 C4043 1.400 . S
C4040 H4025 0.960 . S
C4040 H4026 0.960 . S
C4040 H4027 0.960 . S
C4040 C4039 1.524 . S
C4041 C4038 1.403 . S
C4041 C4042 1.392 . S
C4041 C4045 1.495 . S
C4042 C4041 1.392 . S
C4042 C4043 1.385 . S
C4042 C4044 1.478 . S
C4043 H4037 0.930 . S
C4043 C4039 1.400 . S
C4043 C4042 1.385 . S
C4044 C4042 1.478 . S
C4044 C4046 1.381 . S
C4044 C4050 1.383 . S
C4045 C4041 1.495 . S
C4045 H4051 0.959 . S
C4045 H4052 0.961 . S
C4045 H4053 0.960 . S
C4046 C4044 1.381 . S
C4046 C4047 1.394 . S
C4046 H4054 0.930 . S
C4047 C4046 1.394 . S
C4047 C4048 1.383 . S
C4047 H4055 0.929 . S
C4048 C4047 1.383 . S
C4048 C4049 1.377 . S
C4049 H4033 0.930 . S
C4049 C4048 1.377 . S
C4049 C4050 1.379 . S
C4050 H4034 0.931 . S
C4050 C4044 1.383 . S
C4050 C4049 1.379 . S
H4051 C4045 0.959 . S
H4052 C4045 0.961 . S
H4053 C4045 0.960 . S
H4054 C4046 0.930 . S
H4055 C4047 0.929 . S
H4056 C4064 0.929 . S
H4057 C4066 0.930 . S
H4058 C4068 0.930 . S
H4059 C4071 0.929 . S
H4060 C4074 0.930 . S
H4061 C4076 0.960 1_545 S
H4062 C4076 0.960 . S
H4063 C4076 0.960 . S
C4064 H4056 0.929 . S
C4064 C4065 1.377 . S
C4064 C4066 1.384 . S
C4065 C4064 1.377 . S
C4065 C4071 1.390 . S
C4066 H4057 0.930 . S
C4066 C4064 1.384 . S
C4066 C4067 1.372 . S
C4067 C4066 1.372 . S
C4067 C4068 1.400 . S
C4067 C4072 1.488 1_565 S
C4068 H4058 0.930 . S
C4068 C4067 1.400 . S
C4068 C4071 1.386 . S
H4069 C4085 0.930 . S
H4070 C4086 0.931 . S
C4071 H4059 0.929 . S
C4071 C4065 1.390 . S
C4071 C4068 1.386 . S
C4072 C4067 1.488 1_545 S
C4072 C4074 1.396 . S
C4072 C4075 1.403 . S
H4073 C4079 0.930 . S
C4074 H4060 0.930 . S
C4074 C4072 1.396 . S
C4074 C4077 1.403 . S
C4075 C4072 1.403 . S
C4075 C4076 1.524 1_545 S
C4075 C4079 1.400 . S
C4076 H4061 0.960 1_565 S
C4076 H4062 0.960 . S
C4076 H4063 0.960 . S
C4076 C4075 1.524 1_565 S
C4077 C4074 1.403 . S
C4077 C4078 1.392 . S
C4077 C4081 1.495 . S
C4078 C4077 1.392 . S
C4078 C4079 1.385 . S
C4078 C4080 1.478 . S
C4079 H4073 0.930 . S
C4079 C4075 1.400 . S
C4079 C4078 1.385 . S
C4080 C4078 1.478 . S
C4080 C4082 1.381 . S
C4080 C4086 1.383 . S
C4081 C4077 1.495 . S
C4081 H4087 0.959 . S
C4081 H4088 0.961 . S
C4081 H4089 0.960 . S
C4082 C4080 1.381 . S
C4082 C4083 1.394 . S
C4082 H4090 0.930 . S
C4083 C4082 1.394 . S
C4083 C4084 1.383 . S
C4083 H4091 0.929 . S
C4084 C4083 1.383 . S
C4084 C4085 1.377 . S
C4085 H4069 0.930 . S
C4085 C4084 1.377 . S
C4085 C4086 1.379 . S
C4086 H4070 0.931 . S
C4086 C4080 1.383 . S
C4086 C4085 1.379 . S
H4087 C4081 0.959 . S
H4088 C4081 0.961 . S
H4089 C4081 0.960 . S
H4090 C4082 0.930 . S
H4091 C4083 0.929 . S
H4092 C4100 0.929 . S
H4093 C4102 0.930 . S
H4094 C4104 0.930 . S
H4095 C4107 0.929 . S
H4096 C4110 0.930 . S
H4097 C4112 0.960 . S
H4098 C4112 0.960 . S
H4099 C4112 0.960 . S
C4100 H4092 0.929 . S
C4100 C4101 1.377 . S
C4100 C4102 1.384 . S
C4101 C4100 1.377 . S
C4101 C4107 1.390 . S
C4102 H4093 0.930 . S
C4102 C4100 1.384 . S
C4102 C4103 1.372 . S
C4103 C4102 1.372 . S
C4103 C4104 1.400 . S
C4103 C4108 1.490 . S
C4104 H4094 0.930 . S
C4104 C4103 1.400 . S
C4104 C4107 1.386 . S
H4105 C4121 0.930 . S
H4106 C4122 0.931 . S
C4107 H4095 0.929 . S
C4107 C4101 1.390 . S
C4107 C4104 1.386 . S
C4108 C4103 1.490 . S
C4108 C4110 1.395 . S
C4108 C4111 1.403 . S
H4109 C4115 0.930 1_545 S
C4110 H4096 0.930 . S
C4110 C4108 1.395 . S
C4110 C4113 1.403 . S
C4111 C4108 1.403 . S
C4111 C4112 1.524 . S
C4111 C4115 1.400 . S
C4112 H4097 0.960 . S
C4112 H4098 0.960 . S
C4112 H4099 0.960 . S
C4112 C4111 1.524 . S
C4113 C4110 1.403 . S
C4113 C4114 1.392 1_565 S
C4113 C4117 1.495 . S
C4114 C4113 1.392 1_545 S
C4114 C4115 1.385 1_545 S
C4114 C4116 1.478 . S
C4115 H4109 0.930 1_565 S
C4115 C4111 1.400 . S
C4115 C4114 1.385 1_565 S
C4116 C4114 1.478 . S
C4116 C4118 1.381 . S
C4116 C4122 1.383 . S
C4117 C4113 1.495 . S
C4117 H4123 0.959 . S
C4117 H4124 0.986 . S
C4117 H4125 0.954 1_565 S
C4118 C4116 1.381 . S
C4118 C4119 1.394 . S
C4118 H4126 0.930 . S
C4119 C4118 1.394 . S
C4119 C4120 1.383 . S
C4119 H4127 0.929 . S
C4120 C4119 1.383 . S
C4120 C4121 1.377 . S
C4121 H4105 0.930 . S
C4121 C4120 1.377 . S
C4121 C4122 1.379 . S
C4122 H4106 0.931 . S
C4122 C4116 1.383 . S
C4122 C4121 1.379 . S
H4123 C4117 0.959 . S
H4124 C4117 0.986 . S
H4125 C4117 0.954 1_545 S
H4126 C4118 0.930 . S
H4127 C4119 0.929 . S
C681 C588 1.275 . S
C700 C11 1.267 . S
C717 C23 1.355 . S
C736 C219 1.349 . S
C753 C39 1.306 . S
C772 C560 1.285 . S
C789 C51 1.335 . S
C808 C247 1.287 . S
C825 C625 1.327 . S
C844 C61 1.359 . S
C861 C70 1.337 . S
C880 C294 1.339 . S
C897 C89 1.361 . S
C916 C653 1.354 . S
C933 C98 1.319 . S
C952 C266 1.330 . S
C969 C42 1.347 . S
C988 C658 1.355 . S
C1005 C5 1.365 . S
C1024 C350 1.335 . S
C1041 C373 1.324 . S
C1060 C14 1.316 . S
C1077 C33 1.350 . S
C1096 C336 1.333 . S
C1113 C79 1.300 . S
C1132 C345 1.279 . S
C1149 C95 1.285 . S
C1168 C667 1.286 . S
C1185 C107 1.327 . S
C1204 C359 1.292 . S
C1221 C67 1.285 . S
C1240 C364 1.295 . S
C1257 C546 1.297 . S
C1276 C112 1.294 . S
C1293 C126 1.368 . S
C1312 C275 1.352 . S
C1329 C121 1.309 . S
C1348 C616 1.296 . S
C1365 C303 1.320 . S
C1384 C140 1.311 . S
C1401 C308 1.331 . S
C1420 C154 1.345 . S
C1437 C574 1.297 . S
C1456 C177 1.300 . S
C1473 C597 1.287 . S
C1492 C182 1.317 . S
C1509 C569 1.294 . S
C1528 C205 1.301 . S
C1545 C473 1.353 . S
C1564 C221 1.349 . S
C1581 C229 1.312 . S
C1600 C9 1.290 . S
C1617 C249 1.308 . S
C1636 C445 1.307 . S
C1653 C37 1.317 . S
C1672 C257 1.326 . S
C1689 C271 1.374 . S
C1708 C495 1.355 . S
C1725 C84 1.251 . S
C1744 C291 1.240 . S
C1761 C299 1.358 . S
C1780 C523 1.342 . S
C1797 C56 1.269 . S
C1816 C319 1.259 . S
C1833 C543 1.251 . S
C1852 C263 1.258 . S
C1869 C215 1.404 . S
C1888 C145 1.404 . S
C1905 C159 1.320 . S
C1924 C235 1.322 . S
C1941 C131 1.444 . S
C1960 C243 1.453 . S
C1977 C137 1.351 . S
C1996 C285 1.356 . S
C2013 C305 1.306 . S
C2032 C537 1.303 . S
C2049 C151 1.307 . S
C2068 C313 1.314 . S
C2085 C277 1.242 . S
C2104 C165 1.241 . S
C2121 C333 1.248 . S
C2140 C420 1.245 . S
C2157 C341 1.293 . S
C2176 C65 1.269 . S
C2193 C327 1.291 . S
C2212 C501 1.287 . S
C2229 C355 1.339 . S
C2248 C93 1.335 . S
C2265 C375 1.252 . S
C2284 C109 1.247 . S
C2301 C448 1.329 . S
C2320 C383 1.338 . S
C2337 C397 1.401 . S
C2356 C467 1.401 . S
C2373 C417 1.331 . S
C2392 C439 1.321 . S
C2409 C431 1.282 . S
C2428 C252 1.261 . S
C2445 C443 1.346 . S
C2464 C555 1.336 . S
C2481 C224 1.328 . S
C2500 C459 1.338 . S
C2517 C471 1.327 . S
C2536 C583 1.325 . S
C2553 C481 1.331 . S
C2572 C289 1.306 . S
C2589 C630 1.301 . S
C2608 C490 1.291 . S
C2625 C509 1.361 . S
C2644 C317 1.324 . S
C2661 C602 1.332 . S
C2680 C518 1.322 . S
C2697 C322 1.348 . S
C2716 C462 1.346 . S
C2733 C406 1.344 . S
C2752 C425 1.361 . S
C2769 C434 1.331 . S
C2788 C387 1.325 . S
C2805 C401 1.360 . S
C2824 C453 1.374 . S
C2841 C499 1.309 . S
C2860 C392 1.301 . S
C2877 C331 1.275 . S
C2896 C515 1.308 . S
C2913 C527 1.318 . S
C2932 C415 1.320 . S
C2949 C487 1.265 . S
C2968 C378 1.243 . S
C2985 C532 1.314 . S
C3004 C210 1.322 . S
C3021 C191 1.359 . S
C3040 C611 1.327 . S
C3057 C280 1.319 . S
C3076 C541 1.321 . S
C3093 C639 1.295 . S
C3112 C196 1.294 . S
C3129 C644 1.335 . S
C3148 C168 1.325 . S
C3165 C163 1.301 . S
C3184 C238 1.294 . S
C3201 C135 1.347 . S
C3220 C261 1.303 . S
C3237 C233 1.304 . S
C3256 C149 1.319 . S
C3273 C557 1.318 . S
C3292 C53 1.325 . S
C3309 C429 1.306 . S
C3328 C565 1.324 . S
C3345 C585 1.281 . S
C3364 C25 1.287 . S
C3381 C593 1.305 . S
C3400 C457 1.271 . S
C3417 C75 1.358 . S
C3436 C607 1.367 . S
C3453 C627 1.298 . S
C3472 C504 1.285 . S
C3489 C635 1.364 . S
C3508 C103 1.365 . S
C3525 C476 1.234 . S
C3544 C655 1.225 . S
C3561 C599 1.206 . S
C3580 C123 1.216 . S
C3597 C201 1.393 . S
C3616 C551 1.390 . S
C3633 C173 1.321 . S
C3652 C571 1.304 . S
C3669 C579 1.365 . S
C3688 C193 1.351 . S
C3705 C621 1.418 . S
C3724 C187 1.407 . S
C3741 C117 1.301 . S
C3760 C641 1.304 . S
C3777 C207 1.303 . S
C3796 C649 1.308 . S
C3813 C613 1.301 . S
C3832 C179 1.293 . S
C3849 C0 1.237 . S
C3868 C669 1.237 . S
C3885 C403 1.227 . S
C3904 C485 1.229 . S
C3921 C81 1.310 . S
C3940 C663 1.311 . S
C3957 C513 1.329 . S
C3976 C411 1.351 . S
C3993 C529 1.248 . S
C4012 C389 1.237 . S
C4029 C369 1.312 . S
C4048 C28 1.316 . S
C4065 C347 1.299 . S
C4084 C47 1.310 . S
C4101 C19 1.338 . S
C4120 C361 1.326 . S
