# Generated by pormake.
# Topology wna, (6)-cn, num edge types: 1
# Building blocks:
#     Node 0, Type 0, BuildingBlock: BETDIP_clean_sbu_0, # of connection points: 6
#     Node 1, Type 0, BuildingBlock: BETDIP_clean_sbu_0, # of connection points: 6
#     Node 2, Type 0, BuildingBlock: BETDIP_clean_sbu_0, # of connection points: 6
#     Node 3, Type 0, BuildingBlock: BETDIP_clean_sbu_0, # of connection points: 6
#     Node 4, Type 0, BuildingBlock: BETDIP_clean_sbu_0, # of connection points: 6
#     Node 5, Type 0, BuildingBlock: BETDIP_clean_sbu_0, # of connection points: 6
#     Node 6, Type 0, BuildingBlock: BETDIP_clean_sbu_0, # of connection points: 6
#     Node 7, Type 0, BuildingBlock: BETDIP_clean_sbu_0, # of connection points: 6
#     Node 8, Type 0, BuildingBlock: BETDIP_clean_sbu_0, # of connection points: 6
#     Node 9, Type 0, BuildingBlock: BETDIP_clean_sbu_0, # of connection points: 6
#     Node 10, Type 0, BuildingBlock: BETDIP_clean_sbu_0, # of connection points: 6
#     Node 11, Type 0, BuildingBlock: BETDIP_clean_sbu_0, # of connection points: 6
#     Node 12, Type 0, BuildingBlock: BETDIP_clean_sbu_0, # of connection points: 6
#     Node 13, Type 0, BuildingBlock: BETDIP_clean_sbu_0, # of connection points: 6
#     Node 14, Type 0, BuildingBlock: BETDIP_clean_sbu_0, # of connection points: 6
#     Node 15, Type 0, BuildingBlock: BETDIP_clean_sbu_0, # of connection points: 6
#     Node 16, Type 0, BuildingBlock: BETDIP_clean_sbu_0, # of connection points: 6
#     Node 17, Type 0, BuildingBlock: BETDIP_clean_sbu_0, # of connection points: 6
#     Node 18, Type 0, BuildingBlock: BETDIP_clean_sbu_0, # of connection points: 6
#     Node 19, Type 0, BuildingBlock: BETDIP_clean_sbu_0, # of connection points: 6
#     Node 20, Type 0, BuildingBlock: BETDIP_clean_sbu_0, # of connection points: 6
#     Node 21, Type 0, BuildingBlock: BETDIP_clean_sbu_0, # of connection points: 6
#     Node 22, Type 0, BuildingBlock: BETDIP_clean_sbu_0, # of connection points: 6
#     Node 23, Type 0, BuildingBlock: BETDIP_clean_sbu_0, # of connection points: 6
#     Node 24, Type 0, BuildingBlock: BETDIP_clean_sbu_0, # of connection points: 6
#     Node 25, Type 0, BuildingBlock: BETDIP_clean_sbu_0, # of connection points: 6
#     Node 26, Type 0, BuildingBlock: BETDIP_clean_sbu_0, # of connection points: 6
#     Node 27, Type 0, BuildingBlock: BETDIP_clean_sbu_0, # of connection points: 6
#     Node 28, Type 0, BuildingBlock: BETDIP_clean_sbu_0, # of connection points: 6
#     Node 29, Type 0, BuildingBlock: BETDIP_clean_sbu_0, # of connection points: 6
#     Node 30, Type 0, BuildingBlock: BETDIP_clean_sbu_0, # of connection points: 6
#     Node 31, Type 0, BuildingBlock: BETDIP_clean_sbu_0, # of connection points: 6
#     Node 32, Type 0, BuildingBlock: BETDIP_clean_sbu_0, # of connection points: 6
#     Node 33, Type 0, BuildingBlock: BETDIP_clean_sbu_0, # of connection points: 6
#     Node 34, Type 0, BuildingBlock: BETDIP_clean_sbu_0, # of connection points: 6
#     Node 35, Type 0, BuildingBlock: BETDIP_clean_sbu_0, # of connection points: 6
#     Edge 36, Type (0, 0), BuildingBlock: OJICUG_clean_linker_0, # of connection points: 2
#     Edge 37, Type (0, 0), BuildingBlock: OJICUG_clean_linker_0, # of connection points: 2
#     Edge 38, Type (0, 0), BuildingBlock: OJICUG_clean_linker_0, # of connection points: 2
#     Edge 39, Type (0, 0), BuildingBlock: OJICUG_clean_linker_0, # of connection points: 2
#     Edge 40, Type (0, 0), BuildingBlock: OJICUG_clean_linker_0, # of connection points: 2
#     Edge 41, Type (0, 0), BuildingBlock: OJICUG_clean_linker_0, # of connection points: 2
#     Edge 42, Type (0, 0), BuildingBlock: OJICUG_clean_linker_0, # of connection points: 2
#     Edge 43, Type (0, 0), BuildingBlock: OJICUG_clean_linker_0, # of connection points: 2
#     Edge 44, Type (0, 0), BuildingBlock: OJICUG_clean_linker_0, # of connection points: 2
#     Edge 45, Type (0, 0), BuildingBlock: OJICUG_clean_linker_0, # of connection points: 2
#     Edge 46, Type (0, 0), BuildingBlock: OJICUG_clean_linker_0, # of connection points: 2
#     Edge 47, Type (0, 0), BuildingBlock: OJICUG_clean_linker_0, # of connection points: 2
#     Edge 48, Type (0, 0), BuildingBlock: OJICUG_clean_linker_0, # of connection points: 2
#     Edge 49, Type (0, 0), BuildingBlock: OJICUG_clean_linker_0, # of connection points: 2
#     Edge 50, Type (0, 0), BuildingBlock: OJICUG_clean_linker_0, # of connection points: 2
#     Edge 51, Type (0, 0), BuildingBlock: OJICUG_clean_linker_0, # of connection points: 2
#     Edge 52, Type (0, 0), BuildingBlock: OJICUG_clean_linker_0, # of connection points: 2
#     Edge 53, Type (0, 0), BuildingBlock: OJICUG_clean_linker_0, # of connection points: 2
#     Edge 54, Type (0, 0), BuildingBlock: OJICUG_clean_linker_0, # of connection points: 2
#     Edge 55, Type (0, 0), BuildingBlock: OJICUG_clean_linker_0, # of connection points: 2
#     Edge 56, Type (0, 0), BuildingBlock: OJICUG_clean_linker_0, # of connection points: 2
#     Edge 57, Type (0, 0), BuildingBlock: OJICUG_clean_linker_0, # of connection points: 2
#     Edge 58, Type (0, 0), BuildingBlock: OJICUG_clean_linker_0, # of connection points: 2
#     Edge 59, Type (0, 0), BuildingBlock: OJICUG_clean_linker_0, # of connection points: 2
#     Edge 60, Type (0, 0), BuildingBlock: OJICUG_clean_linker_0, # of connection points: 2
#     Edge 61, Type (0, 0), BuildingBlock: OJICUG_clean_linker_0, # of connection points: 2
#     Edge 62, Type (0, 0), BuildingBlock: OJICUG_clean_linker_0, # of connection points: 2
#     Edge 63, Type (0, 0), BuildingBlock: OJICUG_clean_linker_0, # of connection points: 2
#     Edge 64, Type (0, 0), BuildingBlock: OJICUG_clean_linker_0, # of connection points: 2
#     Edge 65, Type (0, 0), BuildingBlock: OJICUG_clean_linker_0, # of connection points: 2
#     Edge 66, Type (0, 0), BuildingBlock: OJICUG_clean_linker_0, # of connection points: 2
#     Edge 67, Type (0, 0), BuildingBlock: OJICUG_clean_linker_0, # of connection points: 2
#     Edge 68, Type (0, 0), BuildingBlock: OJICUG_clean_linker_0, # of connection points: 2
#     Edge 69, Type (0, 0), BuildingBlock: OJICUG_clean_linker_0, # of connection points: 2
#     Edge 70, Type (0, 0), BuildingBlock: OJICUG_clean_linker_0, # of connection points: 2
#     Edge 71, Type (0, 0), BuildingBlock: OJICUG_clean_linker_0, # of connection points: 2
#     Edge 72, Type (0, 0), BuildingBlock: OJICUG_clean_linker_0, # of connection points: 2
#     Edge 73, Type (0, 0), BuildingBlock: OJICUG_clean_linker_0, # of connection points: 2
#     Edge 74, Type (0, 0), BuildingBlock: OJICUG_clean_linker_0, # of connection points: 2
#     Edge 75, Type (0, 0), BuildingBlock: OJICUG_clean_linker_0, # of connection points: 2
#     Edge 76, Type (0, 0), BuildingBlock: OJICUG_clean_linker_0, # of connection points: 2
#     Edge 77, Type (0, 0), BuildingBlock: OJICUG_clean_linker_0, # of connection points: 2
#     Edge 78, Type (0, 0), BuildingBlock: OJICUG_clean_linker_0, # of connection points: 2
#     Edge 79, Type (0, 0), BuildingBlock: OJICUG_clean_linker_0, # of connection points: 2
#     Edge 80, Type (0, 0), BuildingBlock: OJICUG_clean_linker_0, # of connection points: 2
#     Edge 81, Type (0, 0), BuildingBlock: OJICUG_clean_linker_0, # of connection points: 2
#     Edge 82, Type (0, 0), BuildingBlock: OJICUG_clean_linker_0, # of connection points: 2
#     Edge 83, Type (0, 0), BuildingBlock: OJICUG_clean_linker_0, # of connection points: 2
#     Edge 84, Type (0, 0), BuildingBlock: OJICUG_clean_linker_0, # of connection points: 2
#     Edge 85, Type (0, 0), BuildingBlock: OJICUG_clean_linker_0, # of connection points: 2
#     Edge 86, Type (0, 0), BuildingBlock: OJICUG_clean_linker_0, # of connection points: 2
#     Edge 87, Type (0, 0), BuildingBlock: OJICUG_clean_linker_0, # of connection points: 2
#     Edge 88, Type (0, 0), BuildingBlock: OJICUG_clean_linker_0, # of connection points: 2
#     Edge 89, Type (0, 0), BuildingBlock: OJICUG_clean_linker_0, # of connection points: 2
#     Edge 90, Type (0, 0), BuildingBlock: OJICUG_clean_linker_0, # of connection points: 2
#     Edge 91, Type (0, 0), BuildingBlock: OJICUG_clean_linker_0, # of connection points: 2
#     Edge 92, Type (0, 0), BuildingBlock: OJICUG_clean_linker_0, # of connection points: 2
#     Edge 93, Type (0, 0), BuildingBlock: OJICUG_clean_linker_0, # of connection points: 2
#     Edge 94, Type (0, 0), BuildingBlock: OJICUG_clean_linker_0, # of connection points: 2
#     Edge 95, Type (0, 0), BuildingBlock: OJICUG_clean_linker_0, # of connection points: 2
#     Edge 96, Type (0, 0), BuildingBlock: OJICUG_clean_linker_0, # of connection points: 2
#     Edge 97, Type (0, 0), BuildingBlock: OJICUG_clean_linker_0, # of connection points: 2
#     Edge 98, Type (0, 0), BuildingBlock: OJICUG_clean_linker_0, # of connection points: 2
#     Edge 99, Type (0, 0), BuildingBlock: OJICUG_clean_linker_0, # of connection points: 2
#     Edge 100, Type (0, 0), BuildingBlock: OJICUG_clean_linker_0, # of connection points: 2
#     Edge 101, Type (0, 0), BuildingBlock: OJICUG_clean_linker_0, # of connection points: 2
#     Edge 102, Type (0, 0), BuildingBlock: OJICUG_clean_linker_0, # of connection points: 2
#     Edge 103, Type (0, 0), BuildingBlock: OJICUG_clean_linker_0, # of connection points: 2
#     Edge 104, Type (0, 0), BuildingBlock: OJICUG_clean_linker_0, # of connection points: 2
#     Edge 105, Type (0, 0), BuildingBlock: OJICUG_clean_linker_0, # of connection points: 2
#     Edge 106, Type (0, 0), BuildingBlock: OJICUG_clean_linker_0, # of connection points: 2
#     Edge 107, Type (0, 0), BuildingBlock: OJICUG_clean_linker_0, # of connection points: 2
#     Edge 108, Type (0, 0), BuildingBlock: OJICUG_clean_linker_0, # of connection points: 2
#     Edge 109, Type (0, 0), BuildingBlock: OJICUG_clean_linker_0, # of connection points: 2
#     Edge 110, Type (0, 0), BuildingBlock: OJICUG_clean_linker_0, # of connection points: 2
#     Edge 111, Type (0, 0), BuildingBlock: OJICUG_clean_linker_0, # of connection points: 2
#     Edge 112, Type (0, 0), BuildingBlock: OJICUG_clean_linker_0, # of connection points: 2
#     Edge 113, Type (0, 0), BuildingBlock: OJICUG_clean_linker_0, # of connection points: 2
#     Edge 114, Type (0, 0), BuildingBlock: OJICUG_clean_linker_0, # of connection points: 2
#     Edge 115, Type (0, 0), BuildingBlock: OJICUG_clean_linker_0, # of connection points: 2
#     Edge 116, Type (0, 0), BuildingBlock: OJICUG_clean_linker_0, # of connection points: 2
#     Edge 117, Type (0, 0), BuildingBlock: OJICUG_clean_linker_0, # of connection points: 2
#     Edge 118, Type (0, 0), BuildingBlock: OJICUG_clean_linker_0, # of connection points: 2
#     Edge 119, Type (0, 0), BuildingBlock: OJICUG_clean_linker_0, # of connection points: 2
#     Edge 120, Type (0, 0), BuildingBlock: OJICUG_clean_linker_0, # of connection points: 2
#     Edge 121, Type (0, 0), BuildingBlock: OJICUG_clean_linker_0, # of connection points: 2
#     Edge 122, Type (0, 0), BuildingBlock: OJICUG_clean_linker_0, # of connection points: 2
#     Edge 123, Type (0, 0), BuildingBlock: OJICUG_clean_linker_0, # of connection points: 2
#     Edge 124, Type (0, 0), BuildingBlock: OJICUG_clean_linker_0, # of connection points: 2
#     Edge 125, Type (0, 0), BuildingBlock: OJICUG_clean_linker_0, # of connection points: 2
#     Edge 126, Type (0, 0), BuildingBlock: OJICUG_clean_linker_0, # of connection points: 2
#     Edge 127, Type (0, 0), BuildingBlock: OJICUG_clean_linker_0, # of connection points: 2
#     Edge 128, Type (0, 0), BuildingBlock: OJICUG_clean_linker_0, # of connection points: 2
#     Edge 129, Type (0, 0), BuildingBlock: OJICUG_clean_linker_0, # of connection points: 2
#     Edge 130, Type (0, 0), BuildingBlock: OJICUG_clean_linker_0, # of connection points: 2
#     Edge 131, Type (0, 0), BuildingBlock: OJICUG_clean_linker_0, # of connection points: 2
#     Edge 132, Type (0, 0), BuildingBlock: OJICUG_clean_linker_0, # of connection points: 2
#     Edge 133, Type (0, 0), BuildingBlock: OJICUG_clean_linker_0, # of connection points: 2
#     Edge 134, Type (0, 0), BuildingBlock: OJICUG_clean_linker_0, # of connection points: 2
#     Edge 135, Type (0, 0), BuildingBlock: OJICUG_clean_linker_0, # of connection points: 2
#     Edge 136, Type (0, 0), BuildingBlock: OJICUG_clean_linker_0, # of connection points: 2
#     Edge 137, Type (0, 0), BuildingBlock: OJICUG_clean_linker_0, # of connection points: 2
#     Edge 138, Type (0, 0), BuildingBlock: OJICUG_clean_linker_0, # of connection points: 2
#     Edge 139, Type (0, 0), BuildingBlock: OJICUG_clean_linker_0, # of connection points: 2
#     Edge 140, Type (0, 0), BuildingBlock: OJICUG_clean_linker_0, # of connection points: 2
#     Edge 141, Type (0, 0), BuildingBlock: OJICUG_clean_linker_0, # of connection points: 2
#     Edge 142, Type (0, 0), BuildingBlock: OJICUG_clean_linker_0, # of connection points: 2
#     Edge 143, Type (0, 0), BuildingBlock: OJICUG_clean_linker_0, # of connection points: 2
# Relax obj value: 0.155
# Max RMSD: 0.235
# Mean RMSD: 0.217
data_MOF--net-wna--node1-BETDIP_clean_sbu_0--edge1-OJICUG_clean_linker_0
_symmetry_space_group_name_H-M    P1
_symmetry_Int_Tables_number       1
_symmetry_cell_setting            triclinic
loop_
_symmetry_equiv_pos_as_xyz
'x, y, z'
_cell_length_a     29.340463
_cell_length_b     29.327582
_cell_length_c     127.21031
_cell_angle_alpha  90.072835
_cell_angle_beta   89.955525
_cell_angle_gamma 120.08968
loop_
_atom_site_label
_atom_site_type_symbol
_atom_site_fract_x
_atom_site_fract_y
_atom_site_fract_z
_atom_type_partial_charge
Tb0 Tb 0.14312 0.27184 0.17781 0.0
Tb1 Tb 0.15109 0.2594 0.20106 0.0
C2 C 0.13604 0.30539 0.16003 0.0
C3 C 0.16045 0.32417 0.1496 0.0
C4 C 0.15434 0.36343 0.14464 0.0
C5 C 0.16608 0.37436 0.13398 0.0
C6 C 0.18414 0.34614 0.12801 0.0
C7 C 0.19373 0.30931 0.13315 0.0
C8 C 0.1818 0.29825 0.14386 0.0
C9 C 0.16367 0.1964 0.1826 0.0
C10 C 0.25594 0.33538 0.18874 0.0
C11 C 0.1518 0.22972 0.21971 0.0
C12 C 0.1247 0.21926 0.23002 0.0
C13 C 0.11679 0.17524 0.23583 0.0
C14 C 0.09601 0.16656 0.24602 0.0
C15 C 0.08268 0.20186 0.2507 0.0
C16 C 0.08945 0.24537 0.24475 0.0
C17 C 0.11029 0.25403 0.23452 0.0
C18 C 0.12361 0.33047 0.19548 0.0
C19 C 0.04428 0.18321 0.18911 0.0
O20 O 0.15671 0.33626 0.16821 0.0
O21 O 0.11854 0.25577 0.16221 0.0
O22 O 0.18022 0.23928 0.1875 0.0
O23 O 0.14205 0.19887 0.17392 0.0
O24 O 0.22565 0.33334 0.1808 0.0
O25 O 0.23523 0.30323 0.19691 0.0
O26 O 0.1265 0.1974 0.21199 0.0
O27 O 0.17872 0.27866 0.21656 0.0
O28 O 0.1099 0.2868 0.19129 0.0
O29 O 0.14965 0.33317 0.20386 0.0
O30 O 0.07516 0.18897 0.1972 0.0
O31 O 0.06053 0.21898 0.18157 0.0
H32 H 0.13773 0.38375 0.14889 0.0
H33 H 0.15915 0.40363 0.1303 0.0
H34 H 0.2075 0.28684 0.12878 0.0
H35 H 0.1867 0.26759 0.14749 0.0
H36 H 0.12768 0.14791 0.23254 0.0
H37 H 0.0905 0.1321 0.25024 0.0
H38 H 0.08005 0.27364 0.24809 0.0
H39 H 0.11613 0.28845 0.23024 0.0
Tb40 Tb 0.78555 0.8822 0.17754 0.0
Tb41 Tb 0.80344 0.90591 0.20265 0.0
C42 C 0.75093 0.83274 0.16059 0.0
C43 C 0.73736 0.83859 0.1497 0.0
C44 C 0.69973 0.79358 0.14435 0.0
C45 C 0.69122 0.79562 0.1336 0.0
C46 C 0.72028 0.84283 0.12794 0.0
C47 C 0.75614 0.88867 0.13343 0.0
C48 C 0.76477 0.88654 0.14422 0.0
C49 C 0.85555 0.98252 0.18192 0.0
C50 C 0.72764 0.93462 0.18916 0.0
C51 C 0.83406 0.94544 0.22063 0.0
C52 C 0.84031 0.92949 0.23133 0.0
C53 C 0.88192 0.96589 0.23763 0.0
C54 C 0.88892 0.95251 0.24783 0.0
C55 C 0.85433 0.90227 0.252 0.0
C56 C 0.81276 0.86562 0.2456 0.0
C57 C 0.80586 0.87907 0.23536 0.0
C58 C 0.73693 0.80372 0.19789 0.0
C59 C 0.87739 0.87628 0.1896 0.0
O60 O 0.72016 0.83211 0.16817 0.0
O61 O 0.80107 0.85922 0.16308 0.0
O62 O 0.82873 0.94477 0.18803 0.0
O63 O 0.84123 0.9641 0.17243 0.0
O64 O 0.72783 0.90628 0.181 0.0
O65 O 0.75766 0.94352 0.19768 0.0
O66 O 0.86554 0.94476 0.21339 0.0
O67 O 0.7858 0.92741 0.21717 0.0
O68 O 0.76206 0.84282 0.19208 0.0
O69 O 0.74906 0.82232 0.20736 0.0
O70 O 0.87191 0.89934 0.19813 0.0
O71 O 0.84274 0.85834 0.18177 0.0
H72 H 0.67816 0.75622 0.14842 0.0
H73 H 0.66263 0.75984 0.12965 0.0
H74 H 0.77925 0.92558 0.12929 0.0
H75 H 0.79411 0.92181 0.1482 0.0
H76 H 0.9092 1.00488 0.23466 0.0
H77 H 0.92197 0.98148 0.25239 0.0
H78 H 0.78506 0.82674 0.24854 0.0
H79 H 0.77352 0.85019 0.23064 0.0
Tb80 Tb 0.17898 0.91958 0.17756 0.0
Tb81 Tb 0.15473 0.91086 0.20197 0.0
C82 C 0.2221 0.92618 0.16007 0.0
C83 C 0.21171 0.90203 0.14951 0.0
C84 C 0.25227 0.89914 0.14428 0.0
C85 C 0.24701 0.88441 0.13369 0.0
C86 C 0.20103 0.87243 0.12807 0.0
C87 C 0.15943 0.87311 0.13346 0.0
C88 C 0.16467 0.88768 0.14408 0.0
C89 C 0.08395 0.90221 0.18245 0.0
C90 C 0.12717 0.80644 0.18866 0.0
C91 C 0.11553 0.90359 0.21993 0.0
C92 C 0.13152 0.92847 0.23044 0.0
C93 C 0.09402 0.93138 0.23681 0.0
C94 C 0.1074 0.9536 0.24687 0.0
C95 C 0.15874 0.97348 0.25084 0.0
C96 C 0.19641 0.97072 0.2444 0.0
C97 C 0.18298 0.94859 0.23429 0.0
C98 C 0.25782 0.94858 0.1977 0.0
C99 C 0.19081 1.01734 0.18972 0.0
O100 O 0.2249 0.89918 0.16801 0.0
O101 O 0.19761 0.95178 0.16249 0.0
O102 O 0.11042 0.88648 0.18755 0.0
O103 O 0.10743 0.92095 0.17353 0.0
O104 O 0.15028 0.83551 0.18018 0.0
O105 O 0.12129 0.82713 0.19756 0.0
O106 O 0.11356 0.93296 0.21238 0.0
O107 O 0.13586 0.87491 0.21679 0.0
O108 O 0.21953 0.93635 0.19178 0.0
O109 O 0.23785 0.93933 0.20706 0.0
O110 O 0.16197 0.98626 0.19751 0.0
O111 O 0.21205 1.00141 0.18242 0.0
H112 H 0.28905 0.91046 0.14828 0.0
H113 H 0.28009 0.88494 0.12979 0.0
H114 H 0.12322 0.86342 0.12941 0.0
H115 H 0.13268 0.8895 0.14794 0.0
H116 H 0.05406 0.91601 0.23401 0.0
H117 H 0.07712 0.95432 0.25163 0.0
H118 H 0.23646 0.98619 0.24712 0.0
H119 H 0.21275 0.94709 0.2295 0.0
Tb120 Tb 0.28461 0.13015 0.3658 0.0
Tb121 Tb 0.27347 0.13793 0.34252 0.0
C122 C 0.3177 0.12384 0.38368 0.0
C123 C 0.33692 0.14906 0.39404 0.0
C124 C 0.37638 0.14334 0.39901 0.0
C125 C 0.38761 0.15566 0.40965 0.0
C126 C 0.35949 0.17394 0.41558 0.0
C127 C 0.32254 0.18327 0.41042 0.0
C128 C 0.31117 0.17074 0.39974 0.0
C129 C 0.20891 0.14976 0.36076 0.0
C130 C 0.34808 0.24304 0.35488 0.0
C131 C 0.24459 0.13709 0.32374 0.0
C132 C 0.23179 0.10702 0.31371 0.0
C133 C 0.18112 0.08638 0.30942 0.0
C134 C 0.16932 0.06317 0.29942 0.0
C135 C 0.20803 0.06023 0.29339 0.0
C136 C 0.25848 0.07969 0.29782 0.0
C137 C 0.27027 0.10292 0.30784 0.0
C138 C 0.34448 0.11114 0.34843 0.0
C139 C 0.19677 0.0311 0.35442 0.0
O140 O 0.34861 0.14326 0.37547 0.0
O141 O 0.26826 0.10703 0.38147 0.0
O142 O 0.25215 0.16695 0.35596 0.0
O143 O 0.21117 0.12811 0.36945 0.0
O144 O 0.34559 0.21284 0.36288 0.0
O145 O 0.31677 0.22221 0.3466 0.0
O146 O 0.21194 0.11549 0.33159 0.0
O147 O 0.29369 0.16223 0.32685 0.0
O148 O 0.30036 0.09687 0.35244 0.0
O149 O 0.34803 0.13777 0.34009 0.0
O150 O 0.20358 0.06135 0.34617 0.0
O151 O 0.23149 0.04756 0.36216 0.0
H152 H 0.39659 0.12651 0.39479 0.0
H153 H 0.41697 0.14893 0.41335 0.0
H154 H 0.30015 0.19721 0.41477 0.0
H155 H 0.28038 0.17539 0.39611 0.0
H156 H 0.15076 0.08928 0.31371 0.0
H157 H 0.12979 0.04784 0.2964 0.0
H158 H 0.28948 0.07862 0.2934 0.0
H159 H 0.30988 0.1188 0.31086 0.0
Tb160 Tb 0.93141 0.16686 0.36598 0.0
Tb161 Tb 0.92309 0.14763 0.34271 0.0
C162 C 0.93793 0.20622 0.38391 0.0
C163 C 0.91273 0.20023 0.39428 0.0
C164 C 0.91675 0.24515 0.39908 0.0
C165 C 0.90445 0.2445 0.40972 0.0
C166 C 0.88793 0.19884 0.41581 0.0
C167 C 0.88032 0.1527 0.41081 0.0
C168 C 0.89279 0.15341 0.40014 0.0
C169 C 0.91161 0.07136 0.3609 0.0
C170 C 0.81838 0.11729 0.35516 0.0
C171 C 0.92372 0.1195 0.32391 0.0
C172 C 0.9536 0.13749 0.31389 0.0
C173 C 0.96968 0.10513 0.3089 0.0
C174 C 0.99316 0.11797 0.29894 0.0
C175 C 1.00102 0.16352 0.29365 0.0
C176 C 0.98589 0.19656 0.29876 0.0
C177 C 0.96248 0.18373 0.30876 0.0
C178 C 0.95003 0.24565 0.3486 0.0
C179 C 1.03011 0.1781 0.35453 0.0
O180 O 0.9187 0.21792 0.37571 0.0
O181 O 0.95456 0.1735 0.38166 0.0
O182 O 0.89432 0.09735 0.35614 0.0
O183 O 0.93354 0.09544 0.36958 0.0
O184 O 0.84881 0.14524 0.36312 0.0
O185 O 0.83893 0.10654 0.34686 0.0
O186 O 0.94595 0.10905 0.33172 0.0
O187 O 0.89806 0.1428 0.32708 0.0
O188 O 0.96441 0.21591 0.35261 0.0
O189 O 0.92324 0.22233 0.34028 0.0
O190 O 0.99961 0.15435 0.34631 0.0
O191 O 1.01389 0.19653 0.36228 0.0
H192 H 0.93222 0.28174 0.39475 0.0
H193 H 0.90983 0.28044 0.41328 0.0
H194 H 0.86777 0.11694 0.41529 0.0
H195 H 0.88946 0.11817 0.39665 0.0
H196 H 0.96281 0.06898 0.31261 0.0
H197 H 1.00357 0.09116 0.29524 0.0
H198 H 0.99196 0.23232 0.29502 0.0
H199 H 0.95053 0.20954 0.31238 0.0
Tb200 Tb 0.89402 0.77622 0.36596 0.0
Tb201 Tb 0.91266 0.78693 0.34271 0.0
C202 C 0.8549 0.74336 0.38389 0.0
C203 C 0.86103 0.72429 0.39425 0.0
C204 C 0.81596 0.68418 0.39916 0.0
C205 C 0.81696 0.67299 0.40981 0.0
C206 C 0.86311 0.70181 0.41579 0.0
C207 C 0.90934 0.73944 0.41067 0.0
C208 C 0.90828 0.75075 0.39999 0.0
C209 C 0.98938 0.85208 0.36085 0.0
C210 C 0.94356 0.71286 0.35505 0.0
C211 C 0.93984 0.81569 0.32389 0.0
C212 C 0.92122 0.82837 0.31406 0.0
C213 C 0.95229 0.87805 0.30942 0.0
C214 C 0.93864 0.88981 0.29966 0.0
C215 C 0.8936 0.85202 0.29423 0.0
C216 C 0.86194 0.80249 0.29898 0.0
C217 C 0.87554 0.79079 0.30878 0.0
C218 C 0.81475 0.7158 0.34865 0.0
C219 C 0.88272 0.86378 0.3546 0.0
O220 O 0.84316 0.71232 0.37568 0.0
O221 O 0.8876 0.79279 0.38164 0.0
O222 O 0.96331 0.80869 0.35609 0.0
O223 O 0.96547 0.84997 0.36954 0.0
O224 O 0.91586 0.71539 0.36305 0.0
O225 O 0.95388 0.74396 0.34674 0.0
O226 O 0.95173 0.8484 0.33177 0.0
O227 O 0.91599 0.76659 0.32701 0.0
O228 O 0.8446 0.76006 0.35265 0.0
O229 O 0.83799 0.71211 0.34035 0.0
O230 O 0.90608 0.85683 0.34634 0.0
O231 O 0.86454 0.82922 0.36236 0.0
H232 H 0.77905 0.66341 0.39491 0.0
H233 H 0.78093 0.64311 0.41347 0.0
H234 H 0.94548 0.76237 0.41506 0.0
H235 H 0.94363 0.78204 0.3964 0.0
H236 H 0.98802 0.90755 0.31324 0.0
H237 H 0.96442 0.92808 0.29621 0.0
H238 H 0.82664 0.77264 0.2951 0.0
H239 H 0.85073 0.75205 0.31212 0.0
Tb240 Tb 0.92479 0.79197 0.84171 0.0
Tb241 Tb 0.93054 0.774 0.86679 0.0
C242 C 0.917 0.82367 0.82378 0.0
C243 C 0.94057 0.83162 0.81316 0.0
C244 C 0.94482 0.87303 0.80694 0.0
C245 C 0.96689 0.88193 0.79687 0.0
C246 C 0.98529 0.84953 0.79274 0.0
C247 C 0.98092 0.80789 0.79901 0.0
C248 C 0.95894 0.79912 0.80913 0.0
C249 C 0.9599 0.72505 0.84638 0.0
C250 C 1.02951 0.86408 0.85463 0.0
C251 C 0.94347 0.73959 0.88393 0.0
C252 C 0.92248 0.72773 0.89477 0.0
C253 C 0.92071 0.68499 0.90007 0.0
C254 C 0.90694 0.67621 0.91071 0.0
C255 C 0.89478 0.71017 0.91632 0.0
C256 C 0.89497 0.75209 0.91089 0.0
C257 C 0.90857 0.76073 0.90021 0.0
C258 C 0.90055 0.8443 0.86248 0.0
C259 C 0.82019 0.71573 0.85508 0.0
O260 O 0.948 0.85485 0.83119 0.0
O261 O 0.88721 0.77489 0.82702 0.0
O262 O 0.94588 0.75 0.85224 0.0
O263 O 0.95376 0.73757 0.83693 0.0
O264 O 1.00051 0.85954 0.84625 0.0
O265 O 1.01223 0.82926 0.86244 0.0
O266 O 0.9132 0.70874 0.87636 0.0
O267 O 0.96925 0.7895 0.88123 0.0
O268 O 0.91154 0.81761 0.85635 0.0
O269 O 0.90483 0.82998 0.87194 0.0
O270 O 0.8488 0.71583 0.86321 0.0
O271 O 0.84129 0.7461 0.84661 0.0
H272 H 0.93087 0.89856 0.80988 0.0
H273 H 0.96884 0.91386 0.79225 0.0
H274 H 0.99517 0.7825 0.79615 0.0
H275 H 0.95643 0.7671 0.81381 0.0
H276 H 0.93164 0.65927 0.89605 0.0
H277 H 0.90788 0.64396 0.91464 0.0
H278 H 0.88519 0.7786 0.91492 0.0
H279 H 0.90948 0.79395 0.89629 0.0
Tb280 Tb 0.27217 0.14127 0.8412 0.0
Tb281 Tb 0.28828 0.16556 0.86628 0.0
C282 C 0.24158 0.10176 0.8232 0.0
C283 C 0.23479 0.11757 0.81251 0.0
C284 C 0.19137 0.08201 0.80647 0.0
C285 C 0.18373 0.0952 0.7963 0.0
C286 C 0.21949 0.14441 0.79187 0.0
C287 C 0.26293 0.18022 0.79799 0.0
C288 C 0.27047 0.16697 0.8082 0.0
C289 C 0.33914 0.24347 0.84591 0.0
C290 C 0.19976 0.17452 0.8538 0.0
C291 C 0.3202 0.21221 0.8836 0.0
C292 C 0.32808 0.2019 0.89469 0.0
C293 C 0.37313 0.20027 0.89789 0.0
C294 C 0.38193 0.19538 0.90856 0.0
C295 C 0.34598 0.19217 0.91628 0.0
C296 C 0.30057 0.19292 0.91302 0.0
C297 C 0.29187 0.1979 0.90239 0.0
C298 C 0.21773 0.06514 0.86194 0.0
C299 C 0.34711 0.11309 0.85502 0.0
O300 O 0.21004 0.10196 0.83048 0.0
O301 O 0.28993 0.12011 0.82664 0.0
O302 O 0.31383 0.20452 0.85175 0.0
O303 O 0.32705 0.22471 0.83645 0.0
O304 O 0.20429 0.14951 0.84549 0.0
O305 O 0.23478 0.19309 0.86154 0.0
O306 O 0.35188 0.21146 0.87637 0.0
O307 O 0.27123 0.19058 0.88037 0.0
O308 O 0.24513 0.10262 0.85583 0.0
O309 O 0.23132 0.08405 0.87141 0.0
O310 O 0.34662 0.14237 0.86297 0.0
O311 O 0.31757 0.10349 0.8464 0.0
H312 H 0.16312 0.0438 0.80964 0.0
H313 H 0.14928 0.0669 0.79197 0.0
H314 H 0.29161 0.21826 0.79485 0.0
H315 H 0.30425 0.19525 0.8127 0.0
H316 H 0.4021 0.20371 0.89218 0.0
H317 H 0.41713 0.19453 0.91077 0.0
H318 H 0.2725 0.19159 0.91873 0.0
H319 H 0.25723 0.19996 0.90023 0.0
Tb320 Tb 0.91594 0.13845 0.84371 0.0
Tb321 Tb 0.90028 0.1317 0.86702 0.0
C322 C 0.94144 0.13707 0.82474 0.0
C323 C 0.92271 0.10849 0.81459 0.0
C324 C 0.95357 0.0909 0.80949 0.0
C325 C 0.94102 0.06975 0.79933 0.0
C326 C 0.89728 0.06578 0.79394 0.0
C327 C 0.86532 0.08183 0.79918 0.0
C328 C 0.87796 0.10309 0.80937 0.0
C329 C 0.81901 0.11281 0.85014 0.0
C330 C 0.88608 0.03166 0.8556 0.0
C331 C 0.86439 0.12732 0.88522 0.0
C332 C 0.8737 0.15455 0.89546 0.0
C333 C 0.83135 0.15504 0.90047 0.0
C334 C 0.83531 0.17081 0.91097 0.0
C335 C 0.88176 0.18624 0.91673 0.0
C336 C 0.92518 0.18843 0.91152 0.0
C337 C 0.92123 0.17279 0.90099 0.0
C338 C 0.99462 0.15002 0.86132 0.0
C339 C 0.94891 0.24427 0.85597 0.0
O340 O 0.95129 0.11351 0.83238 0.0
O341 O 0.91976 0.16385 0.82815 0.0
O342 O 0.84881 0.09812 0.85399 0.0
O343 O 0.84145 0.13904 0.84172 0.0
O344 O 0.90969 0.06204 0.84736 0.0
O345 O 0.86855 0.04863 0.86339 0.0
O346 O 0.85166 0.14615 0.87711 0.0
O347 O 0.89571 0.10932 0.88271 0.0
O348 O 0.96835 0.16773 0.85682 0.0
O349 O 0.97167 0.1285 0.8701 0.0
O350 O 0.92197 0.21441 0.86408 0.0
O351 O 0.95839 0.22296 0.84764 0.0
H352 H 0.98841 0.0948 0.81329 0.0
H353 H 0.96601 0.05693 0.79566 0.0
H354 H 0.83153 0.07971 0.79527 0.0
H355 H 0.85348 0.11655 0.81304 0.0
H356 H 0.79413 0.1406 0.89641 0.0
H357 H 0.80089 0.16805 0.91473 0.0
H358 H 0.96177 0.20085 0.91568 0.0
H359 H 0.95461 0.17285 0.89733 0.0
Tb360 Tb 0.79718 0.9127 0.70133 0.0
Tb361 Tb 0.78785 0.92051 0.678 0.0
C362 C 0.82458 0.91263 0.72019 0.0
C363 C 0.83641 0.94148 0.73033 0.0
C364 C 0.88073 0.94959 0.73605 0.0
C365 C 0.89077 0.97203 0.7461 0.0
C366 C 0.85663 0.98702 0.75074 0.0
C367 C 0.81263 0.97974 0.7449 0.0
C368 C 0.80262 0.95723 0.7348 0.0
C369 C 0.72612 0.93899 0.69516 0.0
C370 C 0.8741 1.01978 0.68957 0.0
C371 C 0.75647 0.9257 0.65983 0.0
C372 C 0.73964 0.89914 0.6495 0.0
C373 C 0.69688 0.89828 0.64439 0.0
C374 C 0.68597 0.88299 0.63384 0.0
C375 C 0.71783 0.86843 0.62813 0.0
C376 C 0.75906 0.86671 0.63343 0.0
C377 C 0.76985 0.88186 0.64401 0.0
C378 C 0.86363 0.90145 0.68345 0.0
C379 C 0.72377 0.80766 0.6889 0.0
O380 O 0.85789 0.93511 0.71247 0.0
O381 O 0.77574 0.88795 0.71693 0.0
O382 O 0.77045 0.95351 0.69121 0.0
O383 O 0.72239 0.91249 0.70353 0.0
O384 O 0.86707 0.98945 0.69782 0.0
O385 O 0.83973 1.00322 0.68177 0.0
O386 O 0.72464 0.90552 0.66789 0.0
O387 O 0.80588 0.94471 0.6624 0.0
O388 O 0.81978 0.8839 0.68802 0.0
O389 O 0.862 0.92316 0.67472 0.0
O390 O 0.7266 0.83786 0.68087 0.0
O391 O 0.75463 0.82852 0.69723 0.0
H392 H 0.90709 0.93728 0.73283 0.0
H393 H 0.92457 0.97615 0.75037 0.0
H394 H 0.78583 0.99139 0.74813 0.0
H395 H 0.76805 0.95143 0.73058 0.0
H396 H 0.6734 0.91199 0.64841 0.0
H397 H 0.65427 0.88537 0.63001 0.0
H398 H 0.78389 0.85496 0.62933 0.0
H399 H 0.80314 0.88211 0.64774 0.0
Tb400 Tb 0.14936 0.90226 0.70112 0.0
Tb401 Tb 0.13981 0.88256 0.67788 0.0
C402 C 0.14961 0.93089 0.71991 0.0
C403 C 0.11993 0.91351 0.72997 0.0
C404 C 0.10107 0.94451 0.73453 0.0
C405 C 0.07791 0.93263 0.74453 0.0
C406 C 0.07321 0.88949 0.75029 0.0
C407 C 0.09095 0.85762 0.74559 0.0
C408 C 0.11412 0.86953 0.73557 0.0
C409 C 0.12192 0.80403 0.69533 0.0
C410 C 0.04166 0.87165 0.68952 0.0
C411 C 0.13272 0.84306 0.65995 0.0
C412 C 0.15814 0.84921 0.64961 0.0
C413 C 0.15382 0.80429 0.64475 0.0
C414 C 0.16655 0.80528 0.63413 0.0
C415 C 0.1838 0.85129 0.62811 0.0
C416 C 0.1917 0.8974 0.63317 0.0
C417 C 0.17881 0.89635 0.64383 0.0
C418 C 0.15978 0.97815 0.68298 0.0
C419 C 0.25357 0.93268 0.68843 0.0
O420 O 0.12752 0.94161 0.71211 0.0
O421 O 0.17471 0.90705 0.71673 0.0
O422 O 0.10739 0.83362 0.69129 0.0
O423 O 0.14926 0.82767 0.70357 0.0
O424 O 0.07263 0.89549 0.69768 0.0
O425 O 0.05748 0.85307 0.68173 0.0
O426 O 0.15176 0.83107 0.66814 0.0
O427 O 0.11641 0.87602 0.66222 0.0
O428 O 0.17743 0.9522 0.68763 0.0
O429 O 0.13718 0.95386 0.67437 0.0
O430 O 0.22273 0.90462 0.68052 0.0
O431 O 0.23336 0.94329 0.69681 0.0
H432 H 0.10527 0.9788 0.73045 0.0
H433 H 0.06392 0.95757 0.74776 0.0
H434 H 0.08849 0.82438 0.74979 0.0
H435 H 0.12855 0.84497 0.73232 0.0
H436 H 0.13783 0.76747 0.64902 0.0
H437 H 0.16094 0.76936 0.63051 0.0
H438 H 0.2048 0.93342 0.62876 0.0
H439 H 0.18242 0.9316 0.64738 0.0
Tb440 Tb 0.15938 0.26242 0.70141 0.0
Tb441 Tb 0.17748 0.27347 0.67811 0.0
C442 C 0.1325 0.23316 0.72022 0.0
C443 C 0.15091 0.21971 0.73 0.0
C444 C 0.11824 0.17092 0.73485 0.0
C445 C 0.13186 0.15868 0.74457 0.0
C446 C 0.17853 0.19508 0.74975 0.0
C447 C 0.21176 0.24365 0.74479 0.0
C448 C 0.19816 0.25583 0.73503 0.0
C449 C 0.25708 0.33355 0.69542 0.0
C450 C 0.18918 0.18583 0.68936 0.0
C451 C 0.21604 0.30624 0.66013 0.0
C452 C 0.21025 0.32562 0.64978 0.0
C453 C 0.25543 0.36607 0.64495 0.0
C454 C 0.25489 0.37757 0.63431 0.0
C455 C 0.20908 0.34872 0.62823 0.0
C456 C 0.16273 0.31069 0.63325 0.0
C457 C 0.16334 0.29907 0.64393 0.0
C458 C 0.0822 0.19764 0.68334 0.0
C459 C 0.12847 0.33692 0.68923 0.0
O460 O 0.11998 0.20067 0.71229 0.0
O461 O 0.15693 0.28238 0.71718 0.0
O462 O 0.22721 0.28945 0.69136 0.0
O463 O 0.23404 0.33709 0.70378 0.0
O464 O 0.16612 0.19272 0.69767 0.0
O465 O 0.20701 0.22038 0.68159 0.0
O466 O 0.22834 0.33726 0.66835 0.0
O467 O 0.18296 0.2569 0.66238 0.0
O468 O 0.10858 0.2411 0.68806 0.0
O469 O 0.10584 0.19965 0.67462 0.0
O470 O 0.15588 0.33437 0.68116 0.0
O471 O 0.11833 0.30573 0.69752 0.0
H472 H 0.08133 0.14257 0.73122 0.0
H473 H 0.10486 0.12121 0.74817 0.0
H474 H 0.24832 0.2724 0.74846 0.0
H475 H 0.22425 0.29384 0.73152 0.0
H476 H 0.29211 0.3869 0.64927 0.0
H477 H 0.291 0.40774 0.63073 0.0
H478 H 0.12685 0.28771 0.62879 0.0
H479 H 0.12791 0.26748 0.64744 0.0
Tb480 Tb 0.81006 0.60777 0.51115 0.0
Tb481 Tb 0.81801 0.59659 0.53441 0.0
C482 C 0.80361 0.64077 0.49326 0.0
C483 C 0.82871 0.65969 0.48288 0.0
C484 C 0.82396 0.69987 0.47797 0.0
C485 C 0.83612 0.711 0.46732 0.0
C486 C 0.85323 0.68205 0.46132 0.0
C487 C 0.8616 0.64433 0.46643 0.0
C488 C 0.84926 0.63308 0.47711 0.0
C489 C 0.82922 0.53171 0.51616 0.0
C490 C 0.92302 0.67078 0.52199 0.0
C491 C 0.818 0.56821 0.55319 0.0
C492 C 0.78982 0.55791 0.56337 0.0
C493 C 0.77605 0.51094 0.56873 0.0
C494 C 0.75463 0.50209 0.57886 0.0
C495 C 0.74657 0.54015 0.58395 0.0
C496 C 0.75894 0.58663 0.57844 0.0
C497 C 0.78043 0.59548 0.56827 0.0
C498 C 0.79131 0.66782 0.52858 0.0
C499 C 0.71119 0.51994 0.52252 0.0
O500 O 0.82335 0.67178 0.50145 0.0
O501 O 0.78647 0.59127 0.49549 0.0
O502 O 0.84661 0.57499 0.52096 0.0
O503 O 0.80769 0.53411 0.50746 0.0
O504 O 0.89281 0.66861 0.51403 0.0
O505 O 0.90214 0.6393 0.53025 0.0
O506 O 0.79375 0.5353 0.54548 0.0
O507 O 0.84483 0.61699 0.54993 0.0
O508 O 0.77702 0.62375 0.52452 0.0
O509 O 0.81781 0.67109 0.53692 0.0
O510 O 0.74162 0.52645 0.53072 0.0
O511 O 0.72753 0.55496 0.51484 0.0
H512 H 0.80802 0.72076 0.48223 0.0
H513 H 0.83015 0.74095 0.46367 0.0
H514 H 0.87462 0.62129 0.46203 0.0
H515 H 0.85315 0.60173 0.4807 0.0
H516 H 0.78298 0.4814 0.56516 0.0
H517 H 0.74467 0.4654 0.58274 0.0
H518 H 0.75362 0.61698 0.5821 0.0
H519 H 0.79081 0.63221 0.56436 0.0
Tb520 Tb 0.45537 0.21756 0.51088 0.0
Tb521 Tb 0.46633 0.23709 0.53412 0.0
C522 C 0.42239 0.1778 0.49298 0.0
C523 C 0.40329 0.18385 0.48262 0.0
C524 C 0.36234 0.13896 0.47781 0.0
C525 C 0.35082 0.13968 0.46718 0.0
C526 C 0.38015 0.18537 0.4611 0.0
C527 C 0.4187 0.2315 0.46611 0.0
C528 C 0.43032 0.23073 0.47678 0.0
C529 C 0.53132 0.31309 0.51589 0.0
C530 C 0.39213 0.26735 0.52168 0.0
C531 C 0.49471 0.26605 0.55286 0.0
C532 C 0.50514 0.24827 0.56302 0.0
C533 C 0.55264 0.28117 0.56826 0.0
C534 C 0.56179 0.2687 0.57836 0.0
C535 C 0.52347 0.22301 0.58353 0.0
C536 C 0.47643 0.18918 0.57814 0.0
C537 C 0.46731 0.2017 0.568 0.0
C538 C 0.39518 0.13886 0.52831 0.0
C539 C 0.54304 0.20678 0.52235 0.0
O540 O 0.39144 0.16636 0.50119 0.0
O541 O 0.47185 0.21042 0.49522 0.0
O542 O 0.48799 0.28717 0.52066 0.0
O543 O 0.52907 0.28898 0.50721 0.0
O544 O 0.39447 0.23935 0.51371 0.0
O545 O 0.42356 0.27819 0.52994 0.0
O546 O 0.5276 0.27479 0.54516 0.0
O547 O 0.44591 0.24376 0.54961 0.0
O548 O 0.43926 0.16865 0.52426 0.0
O549 O 0.39186 0.16226 0.53663 0.0
O550 O 0.53635 0.23074 0.53054 0.0
O551 O 0.50829 0.18812 0.51462 0.0
H552 H 0.3411 0.10234 0.48214 0.0
H553 H 0.32024 0.10376 0.4636 0.0
H554 H 0.44206 0.26729 0.46164 0.0
H555 H 0.46225 0.26595 0.48029 0.0
H556 H 0.58239 0.31734 0.56461 0.0
H557 H 0.59889 0.29517 0.58215 0.0
H558 H 0.4459 0.15385 0.58188 0.0
H559 H 0.43018 0.17558 0.56418 0.0
Tb560 Tb 0.84519 0.2532 0.51116 0.0
Tb561 Tb 0.82572 0.24517 0.53443 0.0
C562 C 0.88502 0.2599 0.49328 0.0
C563 C 0.87933 0.23498 0.48289 0.0
C564 C 0.92474 0.24099 0.47795 0.0
C565 C 0.92395 0.22885 0.4673 0.0
C566 C 0.87764 0.21046 0.46133 0.0
C567 C 0.83115 0.20091 0.46646 0.0
C568 C 0.83201 0.21327 0.47715 0.0
C569 C 0.7498 0.23375 0.51615 0.0
C570 C 0.79528 0.14029 0.52203 0.0
C571 C 0.79716 0.24502 0.55321 0.0
C572 C 0.81511 0.27311 0.56341 0.0
C573 C 0.78298 0.2888 0.5686 0.0
C574 C 0.79534 0.31001 0.57876 0.0
C575 C 0.84016 0.31591 0.58404 0.0
C576 C 0.87327 0.30163 0.5787 0.0
C577 C 0.86085 0.28037 0.56851 0.0
C578 C 0.92376 0.27202 0.52861 0.0
C579 C 0.85604 0.35197 0.52258 0.0
O580 O 0.89632 0.24036 0.50148 0.0
O581 O 0.85229 0.27655 0.49549 0.0
O582 O 0.77564 0.21644 0.52096 0.0
O583 O 0.77388 0.25532 0.50746 0.0
O584 O 0.82335 0.17051 0.51406 0.0
O585 O 0.78441 0.16107 0.53027 0.0
O586 O 0.7887 0.26938 0.54552 0.0
O587 O 0.81891 0.21808 0.54993 0.0
O588 O 0.89405 0.28627 0.52455 0.0
O589 O 0.90044 0.24553 0.53695 0.0
O590 O 0.83202 0.32146 0.53077 0.0
O591 O 0.87477 0.33573 0.51488 0.0
H592 H 0.96171 0.25786 0.48219 0.0
H593 H 0.9602 0.23576 0.46363 0.0
H594 H 0.79488 0.18688 0.46209 0.0
H595 H 0.7964 0.20841 0.48076 0.0
H596 H 0.74743 0.2835 0.56488 0.0
H597 H 0.76944 0.32147 0.58251 0.0
H598 H 0.90791 0.30525 0.58251 0.0
H599 H 0.88635 0.26846 0.56474 0.0
Tb600 Tb 0.94824 0.46376 0.69961 0.0
Tb601 Tb 0.93963 0.47198 0.67635 0.0
C602 C 0.97854 0.4586 0.71789 0.0
C603 C 0.99188 0.4844 0.72837 0.0
C604 C 0.04294 0.50435 0.73242 0.0
C605 C 0.05378 0.51949 0.74299 0.0
C606 C 1.01359 0.51442 0.74978 0.0
C607 C 0.96314 0.49686 0.7456 0.0
C608 C 0.9524 0.4821 0.73502 0.0
C609 C 0.87285 0.48332 0.69418 0.0
C610 C 1.01267 0.57686 0.68881 0.0
C611 C 0.91295 0.47219 0.65744 0.0
C612 C 0.90128 0.44298 0.64736 0.0
C613 C 0.85641 0.43366 0.64168 0.0
C614 C 0.84638 0.41069 0.63168 0.0
C615 C 0.88109 0.39645 0.62706 0.0
C616 C 0.92566 0.40497 0.63284 0.0
C617 C 0.93566 0.42796 0.64289 0.0
C618 C 1.0109 0.44601 0.68259 0.0
C619 C 0.8623 0.36465 0.68794 0.0
O620 O 1.01111 0.48149 0.71003 0.0
O621 O 0.92925 0.43618 0.71498 0.0
O622 O 0.91659 0.50071 0.68959 0.0
O623 O 0.87441 0.46164 0.70291 0.0
O624 O 1.00984 0.54648 0.6968 0.0
O625 O 0.98181 0.55608 0.68047 0.0
O626 O 0.87936 0.44998 0.66513 0.0
O627 O 0.96168 0.49671 0.66076 0.0
O628 O 0.96627 0.43101 0.68644 0.0
O629 O 1.01485 0.4729 0.67427 0.0
O630 O 0.86957 0.39519 0.67973 0.0
O631 O 0.89656 0.38104 0.69576 0.0
H632 H 0.07395 0.5059 0.72754 0.0
H633 H 0.09297 0.53245 0.74597 0.0
H634 H 0.93149 0.49312 0.75058 0.0
H635 H 0.9125 0.46675 0.73221 0.0
H636 H 0.82961 0.4454 0.6449 0.0
H637 H 0.81211 0.40557 0.62745 0.0
H638 H 0.95292 0.39393 0.62961 0.0
H639 H 0.97064 0.43469 0.64707 0.0
Tb640 Tb 0.59668 0.50117 0.69938 0.0
Tb641 Tb 0.58846 0.48335 0.67606 0.0
C642 C 0.60223 0.53846 0.71751 0.0
C643 C 0.57583 0.5292 0.72785 0.0
C644 C 0.57556 0.57152 0.73294 0.0
C645 C 0.56034 0.56751 0.74348 0.0
C646 C 0.54523 0.52103 0.74922 0.0
C647 C 0.54299 0.4777 0.74394 0.0
C648 C 0.55808 0.4817 0.73337 0.0
C649 C 0.5775 0.40619 0.69399 0.0
C650 C 0.48367 0.45172 0.68855 0.0
C651 C 0.58866 0.4559 0.6572 0.0
C652 C 0.61786 0.47373 0.64712 0.0
C653 C 0.62932 0.43917 0.64162 0.0
C654 C 0.65247 0.45227 0.63164 0.0
C655 C 0.66475 0.50038 0.62686 0.0
C656 C 0.65404 0.53546 0.63247 0.0
C657 C 0.63089 0.52232 0.64249 0.0
C658 C 0.61463 0.58084 0.68219 0.0
C659 C 0.69563 0.51388 0.68781 0.0
O660 O 0.58207 0.54991 0.70943 0.0
O661 O 0.62097 0.5078 0.71498 0.0
O662 O 0.55998 0.4323 0.68937 0.0
O663 O 0.5992 0.42967 0.70272 0.0
O664 O 0.51401 0.47943 0.69654 0.0
O665 O 0.50437 0.44149 0.68021 0.0
O666 O 0.61142 0.44553 0.66491 0.0
O667 O 0.56323 0.47925 0.66047 0.0
O668 O 0.62936 0.55119 0.68611 0.0
O669 O 0.58798 0.55778 0.67385 0.0
O670 O 0.66511 0.49023 0.67959 0.0
O671 O 0.67928 0.53202 0.69559 0.0
H672 H 0.58966 0.60874 0.7289 0.0
H673 H 0.56315 0.60188 0.74728 0.0
H674 H 0.53081 0.44107 0.74806 0.0
H675 H 0.55788 0.44834 0.72965 0.0
H676 H 0.61916 0.40124 0.64495 0.0
H677 H 0.6593 0.42385 0.62754 0.0
H678 H 0.66353 0.57312 0.62911 0.0
H679 H 0.62249 0.54981 0.64653 0.0
Tb680 Tb 0.5577 0.11051 0.69848 0.0
Tb681 Tb 0.57866 0.12178 0.67531 0.0
C682 C 0.51548 0.07686 0.71613 0.0
C683 C 0.52145 0.05869 0.72658 0.0
C684 C 0.47861 1.01347 0.73086 0.0
C685 C 0.47844 1.00102 0.74147 0.0
C686 C 0.52103 0.03386 0.74804 0.0
C687 C 0.56524 0.07755 0.74357 0.0
C688 C 0.56548 0.08984 0.73294 0.0
C689 C 0.65389 0.18604 0.6938 0.0
C690 C 0.60805 0.04716 0.68794 0.0
C691 C 0.60853 0.15025 0.65662 0.0
C692 C 0.59111 0.16148 0.64651 0.0
C693 C 0.6264 0.20668 0.64088 0.0
C694 C 0.61324 0.21666 0.63091 0.0
C695 C 0.56435 0.18153 0.6263 0.0
C696 C 0.5286 0.13655 0.63203 0.0
C697 C 0.54179 0.12665 0.64204 0.0
C698 C 0.47992 0.0512 0.68097 0.0
C699 C 0.54878 0.19904 0.68699 0.0
O700 O 0.50645 0.04595 0.70799 0.0
O701 O 0.54689 0.12664 0.71393 0.0
O702 O 0.62794 0.143 0.68891 0.0
O703 O 0.62937 0.18347 0.70244 0.0
O704 O 0.57961 0.04953 0.69582 0.0
O705 O 0.61919 0.07851 0.67964 0.0
O706 O 0.61784 0.18314 0.66435 0.0
O707 O 0.58517 0.1013 0.65981 0.0
O708 O 0.50994 0.09522 0.685 0.0
O709 O 0.50337 0.04746 0.6727 0.0
O710 O 0.57319 0.19245 0.67888 0.0
O711 O 0.52895 0.16372 0.69459 0.0
H712 H 0.44413 0.98902 0.72612 0.0
H713 H 0.44425 0.96643 0.74459 0.0
H714 H 0.5986 0.10389 0.74839 0.0
H715 H 0.59905 0.12513 0.72986 0.0
H716 H 0.66484 0.23387 0.64411 0.0
H717 H 0.6421 0.25127 0.6267 0.0
H718 H 0.49037 0.10899 0.62879 0.0
H719 H 0.51372 0.09145 0.64621 0.0
Tb720 Tb 0.58723 0.11872 0.17641 0.0
Tb721 Tb 0.59705 0.1126 0.19968 0.0
C722 C 0.58639 0.14387 0.15741 0.0
C723 C 0.61523 0.15506 0.14728 0.0
C724 C 0.62898 0.20234 0.14204 0.0
C725 C 0.65075 0.21195 0.13194 0.0
C726 C 0.65918 0.17437 0.12675 0.0
C727 C 0.64686 0.1276 0.13214 0.0
C728 C 0.62499 0.11797 0.14228 0.0
C729 C 0.61465 0.04884 0.18286 0.0
C730 C 0.69551 0.19728 0.18778 0.0
C731 C 0.60416 0.08281 0.21785 0.0
C732 C 0.57885 0.06324 0.22819 0.0
C733 C 0.58294 1.02228 0.23292 0.0
C734 C 0.57055 1.01029 0.24353 0.0
C735 C 0.55387 0.03912 0.24968 0.0
C736 C 0.54615 0.07767 0.24476 0.0
C737 C 0.55873 0.0898 0.23411 0.0
C738 C 0.57849 0.18817 0.19384 0.0
C739 C 0.4828 0.04784 0.18933 0.0
O740 O 0.60861 0.17806 0.16501 0.0
O741 O 0.5621 0.09537 0.16087 0.0
O742 O 0.62933 0.09372 0.18656 0.0
O743 O 0.5868 0.0436 0.17461 0.0
O744 O 0.66456 0.18917 0.17957 0.0
O745 O 0.67937 0.16393 0.19574 0.0
O746 O 0.5868 0.05091 0.20973 0.0
O747 O 0.6185 0.1315 0.2154 0.0
O748 O 0.55982 0.14345 0.18957 0.0
O749 O 0.60153 0.18801 0.20251 0.0
O750 O 0.51379 0.0522 0.19732 0.0
O751 O 0.50303 0.07641 0.18068 0.0
H752 H 0.6217 0.23152 0.14568 0.0
H753 H 0.66063 0.24883 0.12815 0.0
H754 H 0.65247 0.0976 0.1284 0.0
H755 H 0.61459 0.08098 0.14609 0.0
H756 H 0.59856 1.00141 0.22854 0.0
H757 H 0.57603 0.97974 0.24705 0.0
H758 H 0.53348 0.10064 0.24928 0.0
H759 H 0.55533 0.12173 0.23067 0.0
Tb760 Tb 0.94318 0.48144 0.17608 0.0
Tb761 Tb 0.95169 0.49881 0.19937 0.0
C762 C 0.91656 0.45432 0.15717 0.0
C763 C 0.90578 0.47214 0.14703 0.0
C764 C 0.85804 0.4393 0.14185 0.0
C765 C 0.8486 0.45159 0.13175 0.0
C766 C 0.88683 0.49706 0.12651 0.0
C767 C 0.93413 0.53083 0.13183 0.0
C768 C 0.94358 0.51846 0.14197 0.0
C769 C 1.0137 0.57919 0.18228 0.0
C770 C 0.86564 0.51136 0.18768 0.0
C771 C 0.98273 0.53687 0.21745 0.0
C772 C 1.00189 0.53103 0.22782 0.0
C773 C 0.04241 0.57616 0.23266 0.0
C774 C 0.05393 0.57555 0.2433 0.0
C775 C 1.02504 0.52971 0.24936 0.0
C776 C 0.98691 0.4834 0.24433 0.0
C777 C 0.97526 0.48408 0.23366 0.0
C778 C 0.87562 0.40417 0.19383 0.0
C779 C 1.01548 0.44912 0.18874 0.0
O780 O 0.88296 0.44379 0.16482 0.0
O781 O 0.96519 0.47754 0.16054 0.0
O782 O 0.96928 0.5491 0.18617 0.0
O783 O 1.01791 0.55634 0.17396 0.0
O784 O 0.87304 0.48805 0.17946 0.0
O785 O 0.89963 0.52915 0.19555 0.0
O786 O 1.01433 0.55007 0.20931 0.0
O787 O 0.93371 0.50322 0.21507 0.0
O788 O 0.91978 0.43011 0.18936 0.0
O789 O 0.87692 0.42768 0.20254 0.0
O790 O 1.0123 0.4764 0.19676 0.0
O791 O 0.98539 0.43966 0.1803 0.0
H792 H 0.82831 0.40326 0.14554 0.0
H793 H 0.81132 0.42513 0.12802 0.0
H794 H 0.96463 0.56599 0.12804 0.0
H795 H 0.98093 0.54452 0.14572 0.0
H796 H 0.06331 0.61286 0.22834 0.0
H797 H 0.08417 0.61163 0.24689 0.0
H798 H 0.9639 0.44751 0.24878 0.0
H799 H 0.94364 0.44867 0.23014 0.0
Tb800 Tb 0.58085 0.47495 0.17625 0.0
Tb801 Tb 0.56396 0.46437 0.19946 0.0
C802 C 0.60785 0.47628 0.1573 0.0
C803 C 0.59031 0.44809 0.14711 0.0
C804 C 0.62528 0.43777 0.14147 0.0
C805 C 0.61283 0.41636 0.13134 0.0
C806 C 0.56501 0.40483 0.12654 0.0
C807 C 0.52919 0.41372 0.13232 0.0
C808 C 0.54174 0.43525 0.1425 0.0
C809 C 0.4834 0.44851 0.18253 0.0
C810 C 0.54903 0.3661 0.18743 0.0
C811 C 0.52945 0.45829 0.21787 0.0
C812 C 0.54259 0.48385 0.22837 0.0
C813 C 0.51281 0.50516 0.23248 0.0
C814 C 0.51769 0.52028 0.24306 0.0
C815 C 0.55205 0.51381 0.24979 0.0
C816 C 0.58368 0.49487 0.24556 0.0
C817 C 0.57908 0.48013 0.23498 0.0
C818 C 0.65848 0.48307 0.19376 0.0
C819 C 0.61372 0.57879 0.1892 0.0
O820 O 0.61855 0.45307 0.16487 0.0
O821 O 0.58422 0.5011 0.16076 0.0
O822 O 0.51289 0.43319 0.18629 0.0
O823 O 0.50663 0.4761 0.17429 0.0
O824 O 0.5735 0.39755 0.17938 0.0
O825 O 0.53061 0.38199 0.19523 0.0
O826 O 0.51921 0.48133 0.21013 0.0
O827 O 0.55624 0.43612 0.21476 0.0
O828 O 0.63275 0.50188 0.18947 0.0
O829 O 0.63486 0.46009 0.20239 0.0
O830 O 0.58617 0.54741 0.19708 0.0
O831 O 0.62309 0.55895 0.18062 0.0
H832 H 0.663 0.44739 0.14484 0.0
H833 H 0.64096 0.40912 0.12724 0.0
H834 H 0.49213 0.40562 0.12887 0.0
H835 H 0.514 0.44293 0.14663 0.0
H836 H 0.48388 0.50784 0.22763 0.0
H837 H 0.49241 0.53431 0.24609 0.0
H838 H 0.61099 0.49004 0.2505 0.0
H839 H 0.60258 0.46369 0.23212 0.0
Tb840 Tb 0.46657 0.24569 0.03449 0.0
Tb841 Tb 0.45676 0.2534 1.01121 0.0
C842 C 0.49409 0.24629 0.05336 0.0
C843 C 0.50468 0.27562 0.06342 0.0
C844 C 0.5522 0.29084 0.06869 0.0
C845 C 0.56171 0.31409 0.07866 0.0
C846 C 0.5238 0.32264 0.08366 0.0
C847 C 0.47647 0.30817 0.07828 0.0
C848 C 0.467 0.28495 0.06827 0.0
C849 C 0.39531 0.27185 0.02843 0.0
C850 C 0.54352 0.35262 0.02271 0.0
C851 C 0.42504 0.2588 0.9931 0.0
C852 C 0.40846 0.23284 0.98269 0.0
C853 C 0.36101 0.22457 0.97832 0.0
C854 C 0.34917 0.21032 0.96774 0.0
C855 C 0.3848 0.20441 0.96126 0.0
C856 C 0.43104 0.20997 0.9658 0.0
C857 C 0.44275 0.22397 0.9764 0.0
C858 C 0.53262 0.23433 1.01656 0.0
C859 C 0.39322 0.14047 0.02212 0.0
O860 O 0.52734 0.26939 0.04566 0.0
O861 O 0.44538 0.21999 0.05005 0.0
O862 O 0.43959 0.28648 0.02444 0.0
O863 O 0.39177 0.2453 0.03677 0.0
O864 O 0.53665 0.32222 0.03094 0.0
O865 O 0.50892 0.33613 1.01495 0.0
O866 O 0.39327 0.23794 1.00115 0.0
O867 O 0.47454 0.27845 0.99566 0.0
O868 O 0.48894 0.2169 1.02117 0.0
O869 O 0.53075 0.25585 1.00782 0.0
O870 O 0.39574 0.17057 1.0141 0.0
O871 O 0.42432 0.16151 0.03042 0.0
H872 H 0.58163 0.28355 0.06519 0.0
H873 H 0.59826 0.32391 0.08258 0.0
H874 H 0.44664 0.31472 0.08182 0.0
H875 H 0.4299 0.27359 0.06442 0.0
H876 H 0.33423 0.23178 0.98295 0.0
H877 H 0.31343 0.20684 0.9645 0.0
H878 H 0.45896 0.20494 0.96108 0.0
H879 H 0.47974 0.23008 0.97952 0.0
Tb880 Tb 0.81769 0.23537 0.03473 0.0
Tb881 Tb 0.80933 0.21693 1.01147 0.0
C882 C 0.81761 0.26313 0.05357 0.0
C883 C 0.78852 0.24482 0.06365 0.0
C884 C 0.77681 0.27894 0.06924 0.0
C885 C 0.75366 0.26528 0.07922 0.0
C886 C 0.74168 0.21703 0.0839 0.0
C887 C 0.75267 0.18241 0.07819 0.0
C888 C 0.77579 0.1961 0.06817 0.0
C889 C 0.79103 0.13755 0.02875 0.0
C890 C 0.71054 0.20485 0.02298 0.0
C891 C 0.80408 0.17938 0.99339 0.0
C892 C 0.83131 0.18935 0.98315 0.0
C893 C 0.83202 0.1474 0.978 0.0
C894 C 0.84838 0.15229 0.96753 0.0
C895 C 0.86419 0.19928 0.96193 0.0
C896 C 0.86599 0.24223 0.96728 0.0
C897 C 0.84979 0.23736 0.97778 0.0
C898 C 0.82877 0.31221 1.01672 0.0
C899 C 0.92238 0.26644 0.02227 0.0
O900 O 0.79442 0.27301 0.04586 0.0
O901 O 0.84358 0.24037 0.05028 0.0
O902 O 0.77648 0.16717 0.02475 0.0
O903 O 0.81778 0.16081 0.03707 0.0
O904 O 0.74119 0.22881 0.03117 0.0
O905 O 0.72675 0.18633 1.01524 0.0
O906 O 0.8241 0.16806 1.00151 0.0
O907 O 0.78491 0.20974 0.99587 0.0
O908 O 0.8463 0.28614 1.02135 0.0
O909 O 0.80684 0.28838 1.00803 0.0
O910 O 0.89195 0.23851 1.01431 0.0
O911 O 0.90177 0.27702 0.03058 0.0
H912 H 0.78672 0.31694 0.06598 0.0
H913 H 0.74659 0.29335 0.08339 0.0
H914 H 0.74341 0.14466 0.08147 0.0
H915 H 0.78438 0.16893 0.06406 0.0
H916 H 0.81744 0.10985 0.98193 0.0
H917 H 0.84591 0.11822 0.96365 0.0
H918 H 0.87865 0.2792 0.96325 0.0
H919 H 0.84971 0.27045 0.98156 0.0
Tb920 Tb 0.8274 0.59655 0.03465 0.0
Tb921 Tb 0.8469 0.60721 1.01137 0.0
C922 C 0.79883 0.56826 0.05343 0.0
C923 C 0.81679 0.55721 0.06351 0.0
C924 C 0.78193 0.51192 0.06917 0.0
C925 C 0.79547 0.50218 0.07913 0.0
C926 C 0.84434 0.53764 0.08372 0.0
C927 C 0.87967 0.5827 0.07795 0.0
C928 C 0.86609 0.59237 0.06795 0.0
C929 C 0.92551 0.66772 0.02886 0.0
C930 C 0.85791 0.51983 0.02292 0.0
C931 C 0.8863 0.64 0.99343 0.0
C932 C 0.87914 0.65843 0.98307 0.0
C933 C 0.9231 0.69996 0.97814 0.0
C934 C 0.92092 0.71176 0.96756 0.0
C935 C 0.87464 0.68206 0.96164 0.0
C936 C 0.8297 0.64227 0.96678 0.0
C937 C 0.8319 0.63057 0.97738 0.0
C938 C 0.75137 0.53123 1.01645 0.0
C939 C 0.79686 0.67042 0.02213 0.0
O940 O 0.78911 0.5353 0.04568 0.0
O941 O 0.82186 0.61715 0.05021 0.0
O942 O 0.89584 0.62364 0.02477 0.0
O943 O 0.90207 0.67109 0.03716 0.0
O944 O 0.83398 0.52661 0.03109 0.0
O945 O 0.87652 0.55448 1.01517 0.0
O946 O 0.89742 0.67112 1.00161 0.0
O947 O 0.8544 0.59047 0.99574 0.0
O948 O 0.77746 0.57476 1.02115 0.0
O949 O 0.77538 0.53332 1.00777 0.0
O950 O 0.82492 0.66802 1.01418 0.0
O951 O 0.78618 0.63921 0.03043 0.0
H952 H 0.7435 0.48446 0.06597 0.0
H953 H 0.76686 0.4675 0.08335 0.0
H954 H 0.91789 0.61055 0.08116 0.0
H955 H 0.89384 0.62768 0.06376 0.0
H956 H 0.96013 0.7216 0.98232 0.0
H957 H 0.95646 0.74227 0.96387 0.0
H958 H 0.79319 0.61917 0.96251 0.0
H959 H 0.79731 0.59828 0.98098 0.0
Tb960 Tb 0.48558 0.93833 0.84512 0.0
Tb961 Tb 0.48718 0.9283 0.86952 0.0
C962 C 0.49348 0.96434 0.82626 0.0
C963 C 0.49981 0.97848 0.815 0.0
C964 C 0.4742 1.00323 0.81048 0.0
C965 C 0.47871 1.01402 0.79968 0.0
C966 C 0.50881 1.00012 0.7932 0.0
C967 C 0.53479 0.97587 0.79779 0.0
C968 C 0.53041 0.96528 0.80855 0.0
C969 C 0.4936 0.8579 0.8522 0.0
C970 C 0.59277 1.00579 0.85746 0.0
C971 C 0.49148 0.89918 0.8879 0.0
C972 C 0.46508 0.88969 0.89824 0.0
C973 C 0.45622 0.84538 0.90405 0.0
C974 C 0.43322 0.83589 0.91403 0.0
C975 C 0.41855 0.87064 0.91847 0.0
C976 C 0.42719 0.915 0.9126 0.0
C977 C 0.45011 0.92438 0.90256 0.0
C978 C 0.45437 0.99567 0.86389 0.0
C979 C 0.38227 0.85513 0.85627 0.0
O980 O 0.46157 0.96995 0.83271 0.0
O981 O 0.521 0.94536 0.83058 0.0
O982 O 0.51457 0.90333 0.85626 0.0
O983 O 0.47087 0.8583 0.84352 0.0
O984 O 0.56346 1.00385 0.84936 0.0
O985 O 0.57164 0.975 0.86579 0.0
O986 O 0.46416 0.86656 0.88031 0.0
O987 O 0.51933 0.94819 0.88468 0.0
O988 O 0.46871 0.96993 0.85832 0.0
O989 O 0.45958 0.98442 0.87349 0.0
O990 O 0.40983 0.86173 0.86501 0.0
O991 O 0.4021 0.88674 0.84802 0.0
H992 H 0.45041 1.01389 0.81527 0.0
H993 H 0.45872 0.03337 0.79642 0.0
H994 H 0.55756 0.96382 0.79304 0.0
H995 H 0.55037 0.94581 0.81178 0.0
H996 H 0.46769 0.81824 0.9009 0.0
H997 H 0.42793 0.80179 0.91836 0.0
H998 H 0.41587 0.94226 0.91572 0.0
H999 H 0.45634 0.9588 0.89822 0.0
Tb1000 Tb 0.12683 0.5525 0.84466 0.0
Tb1001 Tb 0.13365 0.57053 0.86781 0.0
C1002 C 0.0981 0.51658 0.82632 0.0
C1003 C 0.08535 0.52841 0.81573 0.0
C1004 C 1.03368 0.5149 0.81297 0.0
C1005 C 1.02092 0.51864 0.8025 0.0
C1006 C 0.05943 0.53552 0.79453 0.0
C1007 C 0.1114 0.55065 0.7974 0.0
C1008 C 0.12411 0.54706 0.80783 0.0
C1009 C 0.20269 0.64766 0.85005 0.0
C1010 C 0.06227 0.60256 0.85486 0.0
C1011 C 0.15954 0.59803 0.88673 0.0
C1012 C 0.1704 0.58055 0.89691 0.0
C1013 C 0.21733 0.61434 0.90225 0.0
C1014 C 0.22659 0.60219 0.91238 0.0
C1015 C 0.18897 0.5559 0.91749 0.0
C1016 C 0.14253 0.52123 0.91201 0.0
C1017 C 0.13328 0.53345 0.90184 0.0
C1018 C 0.06259 0.47244 0.86167 0.0
C1019 C 0.21063 0.53839 0.85673 0.0
O1020 O 0.06499 0.50652 0.8341 0.0
O1021 O 0.14717 0.54445 0.82933 0.0
O1022 O 0.15838 0.62206 0.8545 0.0
O1023 O 0.20186 0.62322 0.84153 0.0
O1024 O 0.06608 0.57488 0.84699 0.0
O1025 O 0.09155 0.61221 0.86343 0.0
O1026 O 0.19346 0.60912 0.87913 0.0
O1027 O 0.111 0.57408 0.88331 0.0
O1028 O 0.10745 0.50209 0.85791 0.0
O1029 O 0.05818 0.49606 0.86985 0.0
O1030 O 0.20368 0.5632 0.86473 0.0
O1031 O 0.17642 0.51988 0.84891 0.0
H1032 H 1.00271 0.49984 0.81883 0.0
H1033 H 0.9806 0.50724 0.80062 0.0
H1034 H 0.14201 0.5629 0.79152 0.0
H1035 H 0.16411 0.55685 0.80962 0.0
H1036 H 0.24653 0.65097 0.89866 0.0
H1037 H 0.26323 0.62939 0.91623 0.0
H1038 H 0.11249 0.48541 0.91569 0.0
H1039 H 0.09655 0.50664 0.89796 0.0
Tb1040 Tb 0.51077 0.58342 0.84469 0.0
Tb1041 Tb 0.49535 0.57148 0.86798 0.0
C1042 C 0.54651 0.59108 0.82635 0.0
C1043 C 0.53745 0.56519 0.81595 0.0
C1044 C 0.57971 0.56471 0.81089 0.0
C1045 C 0.57593 0.54986 0.80032 0.0
C1046 C 0.52976 0.53537 0.79453 0.0
C1047 C 0.48648 0.53338 0.79976 0.0
C1048 C 0.49024 0.5481 0.81036 0.0
C1049 C 0.4167 0.56417 0.8507 0.0
C1050 C 0.46178 0.46829 0.85474 0.0
C1051 C 0.4706 0.56994 0.8871 0.0
C1052 C 0.48812 0.60039 0.89707 0.0
C1053 C 0.45307 0.61161 0.90244 0.0
C1054 C 0.46585 0.63567 0.91235 0.0
C1055 C 0.51411 0.64909 0.9172 0.0
C1056 C 0.54971 0.63869 0.91172 0.0
C1057 C 0.53689 0.61463 0.90177 0.0
C1058 C 0.59256 0.59963 0.86121 0.0
C1059 C 0.52483 0.6806 0.85715 0.0
O1060 O 0.56017 0.57185 0.83426 0.0
O1061 O 0.51447 0.60776 0.82916 0.0
O1062 O 0.44263 0.54511 0.85486 0.0
O1063 O 0.43978 0.58766 0.84206 0.0
O1064 O 0.48791 0.49998 0.84679 0.0
O1065 O 0.45371 0.48763 0.86354 0.0
O1066 O 0.45524 0.58923 0.87954 0.0
O1067 O 0.49734 0.54851 0.88354 0.0
O1068 O 0.56228 0.61472 0.85779 0.0
O1069 O 0.56996 0.57059 0.86933 0.0
O1070 O 0.50219 0.64881 0.86525 0.0
O1071 O 0.54203 0.66542 0.84902 0.0
H1072 H 0.61672 0.57831 0.81498 0.0
H1073 H 0.61026 0.55246 0.79656 0.0
H1074 H 0.45008 0.52168 0.79559 0.0
H1075 H 0.45692 0.54807 0.81403 0.0
H1076 H 0.41497 0.6005 0.89908 0.0
H1077 H 0.43704 0.64223 0.91635 0.0
H1078 H 0.58751 0.64905 0.91512 0.0
H1079 H 0.5648 0.60645 0.89784 0.0
Tb1080 Tb 0.61915 0.79758 0.03273 0.0
Tb1081 Tb 0.60795 0.80589 1.00946 0.0
C1082 C 0.6525 0.79042 0.05053 0.0
C1083 C 0.67295 0.81491 0.06091 0.0
C1084 C 0.71376 0.8098 0.06542 0.0
C1085 C 0.72639 0.82122 0.07605 0.0
C1086 C 0.69834 0.83791 0.08244 0.0
C1087 C 0.65994 0.84662 0.07775 0.0
C1088 C 0.64719 0.83504 0.06708 0.0
C1089 C 0.54327 0.81709 0.02777 0.0
C1090 C 0.68221 0.91075 1.02194 0.0
C1091 C 0.57985 0.80593 0.99065 0.0
C1092 C 0.5699 0.77756 0.98048 0.0
C1093 C 0.52287 0.76308 0.97508 0.0
C1094 C 0.51428 0.74129 0.96497 0.0
C1095 C 0.55269 0.73355 0.95995 0.0
C1096 C 0.59929 0.74676 0.9655 0.0
C1097 C 0.60786 0.7686 0.97564 0.0
C1098 C 0.67885 0.77877 1.01527 0.0
C1099 C 0.53081 0.69907 1.02129 0.0
O1100 O 0.68307 0.80915 0.04226 0.0
O1101 O 0.60322 0.77502 0.04845 0.0
O1102 O 0.58649 0.83443 0.02295 0.0
O1103 O 0.54567 0.79538 0.03645 0.0
O1104 O 0.67996 0.88043 0.0299 0.0
O1105 O 0.65076 0.88999 1.01367 0.0
O1106 O 0.54684 0.78171 0.99834 0.0
O1107 O 0.62853 0.83291 0.99396 0.0
O1108 O 0.6348 0.76456 1.01931 0.0
O1109 O 0.68235 0.80548 1.00696 0.0
O1110 O 0.53761 0.72964 1.0131 0.0
O1111 O 0.56564 0.71516 0.02901 0.0
H1112 H 0.734 0.79412 0.06085 0.0
H1113 H 0.75682 0.815 0.07937 0.0
H1114 H 0.63752 0.85931 0.08245 0.0
H1115 H 0.61537 0.83918 0.06382 0.0
H1116 H 0.49302 0.76967 0.9786 0.0
H1117 H 0.4775 0.73072 0.96107 0.0
H1118 H 0.62994 0.74176 0.96189 0.0
H1119 H 0.64467 0.77953 0.97958 0.0
Tb1120 Tb 0.26573 0.8347 0.03329 0.0
Tb1121 Tb 0.25716 0.81504 1.01007 0.0
C1122 C 0.27156 0.87395 0.05121 0.0
C1123 C 0.24483 0.8654 0.06148 0.0
C1124 C 0.24717 0.90874 0.06666 0.0
C1125 C 0.23158 0.90486 0.07717 0.0
C1126 C 0.21348 0.85746 0.08276 0.0
C1127 C 0.20851 0.81321 0.07737 0.0
C1128 C 0.22398 0.8171 0.06683 0.0
C1129 C 0.24583 0.73908 0.0283 0.0
C1130 C 0.15252 0.78465 0.02248 0.0
C1131 C 0.25696 0.78606 0.99134 0.0
C1132 C 0.28609 0.80369 0.98126 0.0
C1133 C 0.30116 0.77078 0.97619 0.0
C1134 C 0.32387 0.78324 0.96617 0.0
C1135 C 0.33187 0.82891 0.96092 0.0
C1136 C 0.31808 0.86269 0.96614 0.0
C1137 C 0.29536 0.8502 0.9762 0.0
C1138 C 0.28405 0.91322 1.01584 0.0
C1139 C 0.36433 0.84559 1.0218 0.0
O1140 O 0.25156 0.88475 0.04302 0.0
O1141 O 0.2901 0.84286 0.04891 0.0
O1142 O 0.22857 0.76503 0.02353 0.0
O1143 O 0.26771 0.76322 0.03698 0.0
O1144 O 0.18291 0.81269 0.03044 0.0
O1145 O 0.17316 0.77384 1.01421 0.0
O1146 O 0.28011 0.77652 0.99911 0.0
O1147 O 0.23107 0.80909 0.99451 0.0
O1148 O 0.29856 0.88368 1.0199 0.0
O1149 O 0.2572 0.88958 1.00755 0.0
O1150 O 0.33367 0.82175 1.01362 0.0
O1151 O 0.34824 0.86411 0.02957 0.0
H1152 H 0.2636 0.94651 0.06273 0.0
H1153 H 0.23653 0.9399 0.08107 0.0
H1154 H 0.19399 0.77591 0.08139 0.0
H1155 H 0.2217 0.78296 0.06302 0.0
H1156 H 0.29432 0.73465 0.9799 0.0
H1157 H 0.33488 0.75679 0.96252 0.0
H1158 H 0.32329 0.89799 0.96233 0.0
H1159 H 0.28401 0.87632 0.97989 0.0
Tb1160 Tb 0.22813 0.44375 0.03276 0.0
Tb1161 Tb 0.24697 0.45514 1.00948 0.0
C1162 C 0.18855 0.41042 0.05065 0.0
C1163 C 0.19425 0.39093 0.06099 0.0
C1164 C 0.14908 0.35026 0.06577 0.0
C1165 C 0.14958 0.33851 0.0764 0.0
C1166 C 0.19531 0.36732 0.0825 0.0
C1167 C 0.24166 0.40557 0.07752 0.0
C1168 C 0.24111 0.41743 0.06685 0.0
C1169 C 0.32352 0.5197 0.02771 0.0
C1170 C 0.27759 0.38065 1.02177 0.0
C1171 C 0.27493 0.48376 0.99069 0.0
C1172 C 0.2569 0.49506 0.98063 0.0
C1173 C 0.29117 0.54129 0.97515 0.0
C1174 C 0.27787 0.55121 0.96519 0.0
C1175 C 0.22986 0.51501 0.9604 0.0
C1176 C 0.19504 0.46904 0.96599 0.0
C1177 C 0.20837 0.45918 0.976 0.0
C1178 C 0.149 0.38402 1.0154 0.0
C1179 C 0.21741 0.53188 1.02152 0.0
O1180 O 0.1769 0.37963 0.0424 0.0
O1181 O 0.22145 0.4599 0.04847 0.0
O1182 O 0.2974 0.47648 0.02289 0.0
O1183 O 0.2997 0.51726 0.03643 0.0
O1184 O 0.24975 0.38287 0.02978 0.0
O1185 O 0.28816 0.41214 1.01352 0.0
O1186 O 0.28488 0.51658 0.99847 0.0
O1187 O 0.25196 0.43481 0.99387 0.0
O1188 O 0.17898 0.42809 1.01944 0.0
O1189 O 0.17204 0.38062 1.00703 0.0
O1190 O 0.2409 0.52525 1.01324 0.0
O1191 O 0.19884 0.49691 0.0292 0.0
H1192 H 0.11246 0.32945 0.06143 0.0
H1193 H 0.11348 0.30816 0.07996 0.0
H1194 H 0.27749 0.42854 0.08199 0.0
H1195 H 0.27653 0.44915 0.06337 0.0
H1196 H 0.32903 0.56932 0.97849 0.0
H1197 H 0.30608 0.58663 0.9611 0.0
H1198 H 0.15744 0.44059 0.96263 0.0
H1199 H 0.18108 0.42313 0.98003 0.0
Tb1200 Tb 0.25535 0.45516 0.50954 0.0
Tb1201 Tb 0.26355 0.44413 0.53282 0.0
C1202 C 0.25529 0.48374 0.49079 0.0
C1203 C 0.28412 0.49461 0.48069 0.0
C1204 C 0.29395 0.53945 0.47494 0.0
C1205 C 0.31698 0.54894 0.46496 0.0
C1206 C 0.33077 0.51368 0.46043 0.0
C1207 C 0.32168 0.4691 0.46628 0.0
C1208 C 0.29866 0.45967 0.47631 0.0
C1209 C 0.28202 0.38393 0.51531 0.0
C1210 C 0.36247 0.53157 0.52136 0.0
C1211 C 0.27014 0.41149 0.55074 0.0
C1212 C 0.24519 0.39248 0.56114 0.0
C1213 C 0.25058 0.35272 0.56607 0.0
C1214 C 0.23843 0.34152 0.57672 0.0
C1215 C 0.22066 0.36996 0.5827 0.0
C1216 C 0.21174 0.40729 0.57758 0.0
C1217 C 0.22409 0.41862 0.56689 0.0
C1218 C 0.24453 0.52028 0.52773 0.0
C1219 C 0.15051 0.38099 0.52198 0.0
O1220 O 0.27896 0.51657 0.49853 0.0
O1221 O 0.22903 0.43484 0.49399 0.0
O1222 O 0.29637 0.42792 0.51943 0.0
O1223 O 0.25549 0.38073 0.50698 0.0
O1224 O 0.33197 0.52504 0.51317 0.0
O1225 O 0.34611 0.49672 0.52907 0.0
O1226 O 0.25065 0.38037 0.54256 0.0
O1227 O 0.28683 0.46088 0.54849 0.0
O1228 O 0.22694 0.47677 0.52302 0.0
O1229 O 0.26634 0.51813 0.53641 0.0
O1230 O 0.18076 0.38328 0.52995 0.0
O1231 O 0.1713 0.41237 0.51371 0.0
H1232 H 0.28266 0.56671 0.4781 0.0
H1233 H 0.32258 0.58324 0.46067 0.0
H1234 H 0.33237 0.44144 0.46311 0.0
H1235 H 0.29158 0.42473 0.48056 0.0
H1236 H 0.26697 0.3322 0.56182 0.0
H1237 H 0.24485 0.31188 0.58038 0.0
H1238 H 0.19821 0.42993 0.58196 0.0
H1239 H 0.21972 0.44966 0.56329 0.0
Tb1240 Tb 0.60741 0.81532 0.50975 0.0
Tb1241 Tb 0.61788 0.83393 0.53304 0.0
C1242 C 0.57918 0.78729 0.49093 0.0
C1243 C 0.56821 0.80536 0.48085 0.0
C1244 C 0.52161 0.77156 0.47543 0.0
C1245 C 0.51189 0.78485 0.46544 0.0
C1246 C 0.54868 0.83238 0.46058 0.0
C1247 C 0.59506 0.86672 0.46611 0.0
C1248 C 0.60472 0.8534 0.47614 0.0
C1249 C 0.67881 0.91318 0.51567 0.0
C1250 C 0.5311 0.84606 0.52155 0.0
C1251 C 0.65019 0.8717 0.55112 0.0
C1252 C 0.66725 0.86236 0.56144 0.0
C1253 C 0.70973 0.9047 0.56656 0.0
C1254 C 0.72077 0.90056 0.57711 0.0
C1255 C 0.68933 0.85393 0.5828 0.0
C1256 C 0.6484 0.81058 0.57749 0.0
C1257 C 0.63749 0.8147 0.56692 0.0
C1258 C 0.54184 0.73865 0.52781 0.0
C1259 C 0.68126 0.78447 0.52213 0.0
O1260 O 0.54622 0.77752 0.49868 0.0
O1261 O 0.62802 0.8101 0.49417 0.0
O1262 O 0.63469 0.88353 0.51973 0.0
O1263 O 0.68205 0.88992 0.50733 0.0
O1264 O 0.53769 0.82217 0.51334 0.0
O1265 O 0.56578 0.86436 0.5293 0.0
O1266 O 0.68164 0.88273 0.54301 0.0
O1267 O 0.60063 0.84127 0.54864 0.0
O1268 O 0.58542 0.76479 0.52315 0.0
O1269 O 0.5439 0.76238 0.53652 0.0
O1270 O 0.67886 0.81233 0.53012 0.0
O1271 O 0.64996 0.77388 0.51385 0.0
H1272 H 0.49308 0.73406 0.47882 0.0
H1273 H 0.47613 0.75699 0.4614 0.0
H1274 H 0.62399 0.90393 0.46269 0.0
H1275 H 0.64108 0.88032 0.48012 0.0
H1276 H 0.73286 0.94201 0.56256 0.0
H1277 H 0.75222 0.93494 0.58094 0.0
H1278 H 0.62391 0.77384 0.58158 0.0
H1279 H 0.60443 0.78133 0.56318 0.0
Tb1280 Tb 0.24791 0.80674 0.50953 0.0
Tb1281 Tb 0.22864 0.79876 0.53279 0.0
C1282 C 0.27674 0.80687 0.49077 0.0
C1283 C 0.25909 0.7779 0.48068 0.0
C1284 C 0.2949 0.76964 0.47483 0.0
C1285 C 0.28155 0.74652 0.46485 0.0
C1286 C 0.23191 0.73108 0.46042 0.0
C1287 C 0.19565 0.73859 0.46637 0.0
C1288 C 0.20905 0.7617 0.4764 0.0
C1289 C 0.14985 0.77969 0.51533 0.0
C1290 C 0.2174 0.69982 0.52137 0.0
C1291 C 0.1891 0.79212 0.55069 0.0
C1292 C 0.1947 0.81714 0.56106 0.0
C1293 C 0.14934 0.81168 0.56592 0.0
C1294 C 0.14986 0.82371 0.57657 0.0
C1295 C 0.19584 0.8414 0.58261 0.0
C1296 C 0.24234 0.85048 0.57756 0.0
C1297 C 0.24176 0.83825 0.56688 0.0
C1298 C 0.32404 0.81824 0.52772 0.0
C1299 C 0.27837 0.9117 0.52192 0.0
O1300 O 0.2862 0.7836 0.49853 0.0
O1301 O 0.25358 0.83262 0.49396 0.0
O1302 O 0.17956 0.76552 0.51943 0.0
O1303 O 0.17319 0.80626 0.507 0.0
O1304 O 0.2412 0.73022 0.51315 0.0
O1305 O 0.19899 0.71619 0.52909 0.0
O1306 O 0.17738 0.81129 0.54248 0.0
O1307 O 0.22209 0.7758 0.54847 0.0
O1308 O 0.29805 0.8356 0.52299 0.0
O1309 O 0.29997 0.79642 0.5364 0.0
O1310 O 0.25049 0.88148 0.52991 0.0
O1311 O 0.28902 0.89089 0.51365 0.0
H1312 H 0.33388 0.78223 0.47791 0.0
H1313 H 0.31083 0.74217 0.46048 0.0
H1314 H 0.15685 0.72661 0.46329 0.0
H1315 H 0.18059 0.76756 0.48074 0.0
H1316 H 0.11257 0.79528 0.56162 0.0
H1317 H 0.11362 0.81718 0.58018 0.0
H1318 H 0.27836 0.86397 0.582 0.0
H1319 H 0.27733 0.84269 0.56333 0.0
Tb1320 Tb 0.13218 0.57732 0.36794 0.0
Tb1321 Tb 0.12244 0.58566 0.34467 0.0
C1322 C 0.15966 0.57705 0.38677 0.0
C1323 C 0.17045 0.60562 0.39694 0.0
C1324 C 0.21898 0.62236 0.40193 0.0
C1325 C 0.22852 0.64396 0.41205 0.0
C1326 C 0.18961 0.64919 0.41751 0.0
C1327 C 0.14148 0.63382 0.41237 0.0
C1328 C 0.13194 0.61217 0.40221 0.0
C1329 C 0.06148 0.60434 0.36194 0.0
C1330 C 0.20963 0.68447 0.35622 0.0
C1331 C 0.09043 0.59227 0.32668 0.0
C1332 C 0.07091 0.56688 0.31634 0.0
C1333 C 1.03073 0.57184 0.31149 0.0
C1334 C 1.01896 0.55928 0.30087 0.0
C1335 C 0.04725 0.54153 0.29484 0.0
C1336 C 0.08498 0.53298 0.29989 0.0
C1337 C 0.09688 0.54574 0.31055 0.0
C1338 C 0.1981 0.56625 0.34997 0.0
C1339 C 0.05857 0.47246 0.35541 0.0
O1340 O 0.19293 0.60049 0.37909 0.0
O1341 O 0.11093 0.55107 0.38347 0.0
O1342 O 0.1057 0.6187 0.35795 0.0
O1343 O 0.05766 0.57752 0.37026 0.0
O1344 O 0.20242 0.65391 0.36444 0.0
O1345 O 0.17531 0.6682 0.34841 0.0
O1346 O 0.05925 0.57374 0.33487 0.0
O1347 O 0.13961 0.60807 0.32896 0.0
O1348 O 0.15435 0.54871 0.35457 0.0
O1349 O 0.19653 0.58832 0.34128 0.0
O1350 O 0.06136 0.50281 0.34742 0.0
O1351 O 0.08949 0.49321 0.36375 0.0
H1352 H 0.24928 0.61758 0.39807 0.0
H1353 H 0.26641 0.65623 0.41564 0.0
H1354 H 0.11043 0.63688 0.41633 0.0
H1355 H 0.09397 0.5994 0.39862 0.0
H1356 H 1.01032 0.58825 0.31578 0.0
H1357 H 0.98902 0.56541 0.29726 0.0
H1358 H 0.10752 0.51947 0.29546 0.0
H1359 H 0.12821 0.54165 0.31408 0.0
Tb1360 Tb 0.48342 0.56731 0.36787 0.0
Tb1361 Tb 0.47477 0.54998 0.3446 0.0
C1362 C 0.48392 0.59477 0.38675 0.0
C1363 C 0.45551 0.57712 0.39692 0.0
C1364 C 0.44023 0.60976 0.40205 0.0
C1365 C 0.41881 0.59777 0.41218 0.0
C1366 C 0.41228 0.55282 0.41751 0.0
C1367 C 0.42614 0.51921 0.41224 0.0
C1368 C 0.44764 0.53127 0.40207 0.0
C1369 C 0.45725 0.46984 0.3617 0.0
C1370 C 0.37594 0.5365 0.35631 0.0
C1371 C 0.46884 0.51455 0.32627 0.0
C1372 C 0.49409 0.52688 0.31573 0.0
C1373 C 0.53133 0.51217 0.31295 0.0
C1374 C 0.54824 0.51621 0.3025 0.0
C1375 C 0.52792 0.53458 0.29457 0.0
C1376 C 0.49212 0.551 0.29747 0.0
C1377 C 0.47542 0.54712 0.30788 0.0
C1378 C 0.49411 0.645 0.3501 0.0
C1379 C 0.58788 0.59877 0.35532 0.0
O1380 O 0.46059 0.60485 0.3791 0.0
O1381 O 0.50952 0.57175 0.38339 0.0
O1382 O 0.44237 0.49938 0.35779 0.0
O1383 O 0.48395 0.4929 0.37004 0.0
O1384 O 0.40673 0.5606 0.36446 0.0
O1385 O 0.39217 0.51806 0.34856 0.0
O1386 O 0.49166 0.5046 0.33409 0.0
O1387 O 0.44709 0.54193 0.32923 0.0
O1388 O 0.51182 0.61879 0.3546 0.0
O1389 O 0.47213 0.62158 0.3414 0.0
O1390 O 0.55732 0.57092 0.34736 0.0
O1391 O 0.56737 0.60921 0.36366 0.0
H1392 H 0.44605 0.64545 0.39829 0.0
H1393 H 0.4077 0.62407 0.41588 0.0
H1394 H 0.42201 0.48445 0.4161 0.0
H1395 H 0.45925 0.5054 0.39836 0.0
H1396 H 0.54609 0.49587 0.31877 0.0
H1397 H 0.57637 0.50381 0.3006 0.0
H1398 H 0.47476 0.56442 0.29161 0.0
H1399 H 0.44595 0.55791 0.30968 0.0
Tb1400 Tb 0.49376 0.9299 0.36811 0.0
Tb1401 Tb 0.51234 0.93959 0.34483 0.0
C1402 C 0.46555 0.9024 0.38693 0.0
C1403 C 0.483 0.89159 0.39711 0.0
C1404 C 0.44878 0.84513 0.40253 0.0
C1405 C 0.46102 0.83593 0.41265 0.0
C1406 C 0.50784 0.87313 0.41767 0.0
C1407 C 0.54294 0.91907 0.4121 0.0
C1408 C 0.53062 0.92827 0.40194 0.0
C1409 C 0.59175 1.00056 0.36213 0.0
C1410 C 0.52372 0.85262 0.35642 0.0
C1411 C 0.55132 0.97175 0.32687 0.0
C1412 C 0.54544 0.99141 0.31656 0.0
C1413 C 0.59062 0.03175 0.31172 0.0
C1414 C 0.58974 0.04378 0.30113 0.0
C1415 C 0.54358 1.01558 0.29512 0.0
C1416 C 0.49727 0.97767 0.30017 0.0
C1417 C 0.49821 0.96552 0.3108 0.0
C1418 C 0.41716 0.86366 0.35008 0.0
C1419 C 0.46281 1.00332 0.35552 0.0
O1420 O 0.45581 0.86911 0.37925 0.0
O1421 O 0.48864 0.95116 0.38364 0.0
O1422 O 0.56176 0.95632 0.35815 0.0
O1423 O 0.56873 1.00447 0.37045 0.0
O1424 O 0.50007 0.8597 0.36461 0.0
O1425 O 0.54211 0.88705 0.34863 0.0
O1426 O 0.56401 1.00286 0.33508 0.0
O1427 O 0.51783 0.92252 0.32913 0.0
O1428 O 0.44318 0.90747 0.3547 0.0
O1429 O 0.44105 0.86532 0.34141 0.0
O1430 O 0.49055 1.00054 0.34755 0.0
O1431 O 0.45247 0.97251 0.36387 0.0
H1432 H 0.41177 0.81627 0.399 0.0
H1433 H 0.43348 0.79965 0.41658 0.0
H1434 H 0.5792 0.94877 0.41572 0.0
H1435 H 0.55778 0.9646 0.39798 0.0
H1436 H 0.62751 0.05211 0.31599 0.0
H1437 H 0.62584 0.07384 0.29752 0.0
H1438 H 0.46113 0.9552 0.29575 0.0
H1439 H 0.46276 0.93408 0.31433 0.0
C1440 C 0.18405 0.12833 0.1762 0.0
C1441 C 0.17824 0.15568 0.18469 0.0
H1442 H 0.19447 0.06452 0.17118 0.0
C1443 C 0.18214 0.14056 0.19497 0.0
H1444 H 0.18141 0.1392 0.16819 0.0
C1445 C 0.18813 0.09652 0.19671 0.0
C1446 C 0.19242 0.06826 0.18818 0.0
H1447 H 0.17804 0.1611 0.20164 0.0
H1448 H 0.18827 0.08388 0.2047 0.0
C1449 C 0.19188 0.0857 0.17792 0.0
C1450 C 0.96361 0.12412 0.17856 0.0
C1451 C 0.99202 0.13438 0.18802 0.0
H1452 H 0.89845 0.06817 0.1693 0.0
C1453 C 0.97215 0.09546 0.1959 0.0
H1454 H 0.97755 0.15292 0.17229 0.0
C1455 C 0.92612 0.04681 0.19419 0.0
C1456 C 0.89946 0.03589 0.18454 0.0
H1457 H 0.993 0.10188 0.20327 0.0
H1458 H 0.91292 1.017 0.20021 0.0
C1459 C 0.91819 0.07541 0.17683 0.0
C1460 C 0.99785 0.8886 0.17612 0.0
C1461 C 1.02914 0.88973 0.18459 0.0
H1462 H 0.92536 0.88195 0.17107 0.0
C1463 C 1.00827 0.88185 0.19481 0.0
H1464 H 1.01253 0.89417 0.16814 0.0
C1465 C 0.95831 0.87628 0.19655 0.0
C1466 C 0.92761 0.87631 0.18804 0.0
H1467 H 1.03106 0.88168 0.20145 0.0
H1468 H 0.94395 0.87248 0.20453 0.0
C1469 C 0.94758 0.88125 0.17781 0.0
C1470 C 0.15157 0.16713 0.34857 0.0
C1471 C 0.16858 0.16492 0.35878 0.0
H1472 H 0.09334 0.17212 0.33914 0.0
C1473 C 0.14305 0.17241 0.36738 0.0
H1474 H 0.17063 0.16162 0.34181 0.0
C1475 C 0.10028 0.18011 0.36588 0.0
C1476 C 0.08086 0.17897 0.35573 0.0
H1477 H 0.15542 0.1711 0.37535 0.0
H1478 H 0.08068 0.1841 0.37274 0.0
C1479 C 0.1074 0.17318 0.34706 0.0
C1480 C 0.8811 0.93219 0.36598 0.0
C1481 C 0.88202 0.91378 0.35582 0.0
H1482 H 0.8904 0.99653 0.37547 0.0
C1483 C 0.88777 0.94611 0.34716 0.0
H1484 H 0.87716 0.90861 0.37283 0.0
C1485 C 0.89396 0.99643 0.34869 0.0
C1486 C 0.89636 1.01577 0.35891 0.0
H1487 H 0.88867 0.93303 0.33923 0.0
H1488 H 0.89946 1.02101 0.34194 0.0
C1489 C 0.88894 0.98276 0.3675 0.0
C1490 C 0.06412 0.9092 0.3486 0.0
C1491 C 0.0449 0.89253 0.35883 0.0
H1492 H 0.12737 0.96719 0.3391 0.0
C1493 C 0.07799 0.91848 0.3674 0.0
H1494 H 0.0395 0.8898 0.34187 0.0
C1495 C 0.12852 0.96129 0.36585 0.0
C1496 C 0.14679 0.98035 0.35568 0.0
H1497 H 0.06433 0.90638 0.37538 0.0
H1498 H 0.15216 0.9812 0.37269 0.0
C1499 C 0.11438 0.95341 0.34703 0.0
C1500 C 0.90474 0.91405 0.85024 0.0
C1501 C 0.8903 0.88773 0.85994 0.0
H1502 H 0.91487 0.98029 0.84119 0.0
C1503 C 0.86991 0.90632 0.86777 0.0
H1504 H 0.92092 0.90093 0.84412 0.0
C1505 C 0.8659 0.95133 0.86612 0.0
C1506 C 0.88286 0.97948 0.85661 0.0
H1507 H 0.85834 0.88683 0.87534 0.0
H1508 H 0.85148 0.96521 0.87249 0.0
C1509 C 0.90135 0.95965 0.8486 0.0
C1510 C 0.14941 0.99933 0.84951 0.0
C1511 C 0.17413 1.01151 0.85937 0.0
H1512 H 0.08428 0.94323 0.84019 0.0
C1513 C 0.15382 0.973 0.86729 0.0
H1514 H 0.16399 0.02823 0.8433 0.0
C1515 C 0.10859 0.92413 0.86554 0.0
C1516 C 0.08196 0.91269 0.85584 0.0
H1517 H 0.17211 0.98118 0.87498 0.0
H1518 H 0.09335 0.89624 0.87197 0.0
C1519 C 0.1036 0.95054 0.84776 0.0
C1520 C 0.06696 0.16473 0.84863 0.0
C1521 C 0.04966 0.16437 0.85895 0.0
H1522 H 0.12806 0.16733 0.83882 0.0
C1523 C 0.08404 0.17258 0.86733 0.0
H1524 H 0.04124 0.15847 0.84204 0.0
C1525 C 0.13393 0.17923 0.86551 0.0
C1526 C 0.15035 0.1763 0.85526 0.0
H1527 H 0.07185 0.17263 0.87537 0.0
H1528 H 0.1585 0.18383 0.87224 0.0
C1529 C 0.11661 0.16977 0.8468 0.0
C1530 C 0.92694 0.87516 0.6769 0.0
C1531 C 0.90328 0.8854 0.68548 0.0
H1532 H 0.98777 0.86115 0.6715 0.0
C1533 C 0.92199 0.88561 0.69565 0.0
H1534 H 0.91328 0.87464 0.66897 0.0
C1535 C 0.96598 0.8792 0.69712 0.0
C1536 C 0.9908 0.87081 0.68845 0.0
H1537 H 0.90454 0.89349 0.70239 0.0
H1538 H 0.98139 0.88222 0.70498 0.0
C1539 C 0.96961 0.86721 0.67837 0.0
C1540 C 0.18998 0.11722 0.67791 0.0
C1541 C 0.1899 0.13587 0.68809 0.0
H1542 H 0.17984 0.05261 0.6684 0.0
C1543 C 0.18496 0.1038 0.69674 0.0
H1544 H 0.1933 0.14061 0.67106 0.0
C1545 C 0.17866 0.05346 0.69519 0.0
C1546 C 0.17533 0.03382 0.68497 0.0
H1547 H 0.18474 0.1171 0.70468 0.0
H1548 H 0.17381 0.0291 0.70194 0.0
C1549 C 0.18201 0.0666 0.67637 0.0
C1550 C 0.95664 0.09684 0.69706 0.0
C1551 C 0.92412 0.07056 0.68839 0.0
H1552 H 1.03189 0.15954 0.7023 0.0
C1553 C 0.94246 0.09011 0.67824 0.0
H1554 H 0.9436 0.08269 0.70497 0.0
C1555 C 0.99321 0.13263 0.67674 0.0
C1556 C 1.02645 0.15778 0.68533 0.0
H1557 H 0.91873 0.07073 0.67138 0.0
H1558 H 1.00693 0.14505 0.66877 0.0
C1559 C 1.00715 0.14075 0.69554 0.0
C1560 C 0.85101 0.42938 0.52998 0.0
C1561 C 0.85704 0.40279 0.52134 0.0
H1562 H 0.83961 0.49287 0.53515 0.0
C1563 C 0.85872 0.42232 0.51118 0.0
H1564 H 0.84952 0.41523 0.5379 0.0
C1565 C 0.8514 0.46533 0.50962 0.0
C1566 C 0.84379 0.49098 0.51819 0.0
H1567 H 0.86289 0.40268 0.50434 0.0
H1568 H 0.85055 0.47783 0.50165 0.0
C1569 C 0.84534 0.47377 0.52842 0.0
C1570 C 0.58888 0.38738 0.52821 0.0
C1571 C 0.57217 0.36845 0.51796 0.0
H1572 H 0.64707 0.45027 0.53777 0.0
C1573 C 0.59837 0.40161 0.50942 0.0
H1574 H 0.56932 0.36267 0.53492 0.0
C1575 C 0.6414 0.45198 0.51103 0.0
C1576 C 0.66042 0.47 0.52122 0.0
H1577 H 0.58627 0.38814 0.50143 0.0
H1578 H 0.66146 0.47572 0.50421 0.0
C1579 C 0.63332 0.43748 0.52983 0.0
C1580 C 0.61078 0.20345 0.51105 0.0
C1581 C 0.59284 0.20569 0.52118 0.0
H1582 H 0.67458 0.21123 0.5016 0.0
C1583 C 0.62542 0.21222 0.52985 0.0
H1584 H 0.58701 0.19887 0.50419 0.0
C1585 C 0.67552 0.21793 0.52835 0.0
C1586 C 0.69438 0.21896 0.51815 0.0
H1587 H 0.6127 0.21415 0.53775 0.0
H1588 H 0.70035 0.22415 0.5351 0.0
C1589 C 0.66115 0.21077 0.50955 0.0
C1590 C 0.81555 0.50019 0.6819 0.0
C1591 C 0.83333 0.49945 0.69212 0.0
H1592 H 0.75706 0.50456 0.67245 0.0
C1593 C 0.80908 0.50911 0.70067 0.0
H1594 H 0.83354 0.49284 0.67519 0.0
C1595 C 0.76668 0.51737 0.69912 0.0
C1596 C 0.74637 0.51467 0.68899 0.0
H1597 H 0.82207 0.50895 0.70863 0.0
H1598 H 0.74798 0.52293 0.70596 0.0
C1599 C 0.77181 0.50689 0.68036 0.0
C1600 C 0.54678 0.26661 0.69855 0.0
C1601 C 0.54863 0.24924 0.68834 0.0
H1602 H 0.55515 0.32992 0.70827 0.0
C1603 C 0.55533 0.28251 0.6798 0.0
H1604 H 0.5421 0.2423 0.70533 0.0
C1605 C 0.56134 0.33265 0.68151 0.0
C1606 C 0.56265 0.35088 0.69178 0.0
H1607 H 0.55697 0.27023 0.67184 0.0
H1608 H 0.56744 0.35791 0.67485 0.0
C1609 C 0.55448 0.31701 0.70025 0.0
C1610 C 0.79314 0.29441 0.69919 0.0
C1611 C 0.81216 0.31385 0.68907 0.0
H1612 H 0.72811 0.23938 0.70854 0.0
C1613 C 0.78016 0.28745 0.68034 0.0
H1614 H 0.81643 0.31391 0.70609 0.0
C1615 C 0.72961 0.24344 0.68177 0.0
C1616 C 0.70968 0.22638 0.69194 0.0
H1617 H 0.79369 0.30155 0.67245 0.0
H1618 H 0.70532 0.22453 0.67496 0.0
C1619 C 0.74233 0.25177 0.7006 0.0
C1620 C 0.56452 0.24716 0.18149 0.0
C1621 C 0.56228 0.22755 0.19166 0.0
H1622 H 0.56281 0.30727 0.1721 0.0
C1623 C 0.55006 0.25024 0.20013 0.0
H1624 H 0.57409 0.23055 0.17485 0.0
C1625 C 0.54216 0.29288 0.19856 0.0
C1626 C 0.54781 0.31504 0.18851 0.0
H1627 H 0.54802 0.23587 0.20806 0.0
H1628 H 0.53456 0.31031 0.20536 0.0
C1629 C 0.55812 0.29111 0.17994 0.0
C1630 C 0.81554 0.33088 0.18158 0.0
C1631 C 0.83555 0.34862 0.19172 0.0
H1632 H 0.75459 0.26892 0.1723 0.0
C1633 C 0.81259 0.31427 0.20025 0.0
H1634 H 0.83239 0.35665 0.17489 0.0
C1635 C 0.76932 0.26395 0.19877 0.0
C1636 C 0.74681 0.24707 0.18875 0.0
H1637 H 0.82726 0.32688 0.20816 0.0
H1638 H 0.75181 0.23939 0.20563 0.0
C1639 C 0.77097 0.28071 0.18012 0.0
C1640 C 0.7823 0.50333 0.18007 0.0
C1641 C 0.8159 0.51278 0.18871 0.0
H1642 H 0.7063 0.48833 0.17484 0.0
C1643 C 0.79893 0.51805 0.19875 0.0
H1644 H 0.79417 0.49901 0.17224 0.0
C1645 C 0.74848 0.5106 0.20022 0.0
C1646 C 0.71416 0.49918 0.19169 0.0
H1647 H 0.82348 0.52505 0.2056 0.0
H1648 H 0.73574 0.51231 0.20814 0.0
C1649 C 0.73205 0.49733 0.18154 0.0
C1650 C 0.63419 0.21163 0.03041 0.0
C1651 C 0.65978 0.20401 1.02178 0.0
H1652 H 0.57211 0.2252 0.03556 0.0
C1653 C 0.63951 0.20126 1.01165 0.0
H1654 H 0.64891 0.21399 0.03832 0.0
C1655 C 0.59694 0.20924 1.01009 0.0
C1656 C 0.57247 0.21864 1.01863 0.0
H1657 H 0.65833 0.19582 1.00481 0.0
H1658 H 0.58395 0.20933 1.00212 0.0
C1659 C 0.59027 0.21803 0.02885 0.0
C1660 C 0.85362 0.40143 1.01015 0.0
C1661 C 0.84449 0.36788 1.01873 0.0
H1662 H 0.86668 0.47601 1.00479 0.0
C1663 C 0.84525 0.38669 0.02893 0.0
H1664 H 0.85339 0.38803 1.0022 0.0
C1665 C 0.85151 0.43705 0.03043 0.0
C1666 C 0.85884 0.4699 1.02177 0.0
H1667 H 0.83828 0.36162 0.03567 0.0
H1668 H 0.84927 0.44969 0.03832 0.0
C1669 C 0.86147 0.45203 1.01165 0.0
C1670 C 0.62606 0.42986 0.03017 0.0
C1671 C 0.59355 0.40343 1.02151 0.0
H1672 H 0.70119 0.49285 0.0354 0.0
C1673 C 0.61186 0.42293 1.01136 0.0
H1674 H 0.61307 0.41573 0.03809 0.0
C1675 C 0.66252 0.46563 1.00985 0.0
C1676 C 0.69571 0.49102 1.01844 0.0
H1677 H 0.58815 0.40342 1.0045 0.0
H1678 H 0.67622 0.47805 1.00188 0.0
C1679 C 0.67646 0.47394 0.02865 0.0
C1680 C 0.50574 0.7962 0.86409 0.0
C1681 C 0.50996 0.81853 0.85413 0.0
H1682 H 0.50675 0.73429 0.87293 0.0
C1683 C 0.52493 0.79898 0.84554 0.0
H1684 H 0.49406 0.81038 0.87082 0.0
C1685 C 0.53337 0.75651 0.84674 0.0
C1686 C 0.52574 0.73159 0.85654 0.0
H1687 H 0.52867 0.81564 0.83777 0.0
H1688 H 0.54302 0.74147 0.83982 0.0
C1689 C 0.51296 0.7526 0.86527 0.0
C1690 C 0.2693 0.73589 0.84334 0.0
C1691 C 0.24266 0.70357 0.85196 0.0
H1692 H 0.33271 0.80928 0.83794 0.0
C1693 C 0.2585 0.72382 0.86216 0.0
H1694 H 0.25783 0.72146 0.83538 0.0
C1695 C 0.30267 0.77425 0.86367 0.0
C1696 C 0.33067 0.80576 0.85499 0.0
H1697 H 0.23864 0.69976 0.86894 0.0
H1698 H 0.31584 0.78787 0.8716 0.0
C1699 C 0.31221 0.7865 0.84482 0.0
C1700 C 0.34492 0.55436 0.86295 0.0
C1701 C 0.36113 0.54802 0.85293 0.0
H1702 H 0.28442 0.55679 0.87207 0.0
C1703 C 0.32543 0.53296 0.84454 0.0
H1704 H 0.37185 0.56664 0.86951 0.0
C1705 C 0.27525 0.52631 0.846 0.0
C1706 C 0.25994 0.53597 0.85586 0.0
H1707 H 0.33698 0.52798 0.83672 0.0
H1708 H 0.24964 0.51649 0.83923 0.0
C1709 C 0.29491 0.54896 0.86438 0.0
C1710 C 0.48505 0.83355 1.01567 0.0
C1711 C 0.50292 0.83229 0.02584 0.0
H1712 H 0.42622 0.83794 1.00633 0.0
C1713 C 0.4782 0.84073 0.03447 0.0
H1714 H 0.50339 0.8271 1.00889 0.0
C1715 C 0.43541 0.84851 0.03303 0.0
C1716 C 0.41517 0.8465 0.02293 0.0
H1717 H 0.49122 0.84012 0.04241 0.0
H1718 H 0.41644 0.85323 0.03992 0.0
C1719 C 0.44092 0.83973 1.01422 0.0
C1720 C 0.22514 0.65083 0.03476 0.0
C1721 C 0.23117 0.68371 0.02623 0.0
H1722 H 0.21443 0.57683 0.03992 0.0
C1723 C 0.22765 0.6644 1.01597 0.0
H1724 H 0.22748 0.66454 0.04276 0.0
C1725 C 0.22162 0.61423 1.01431 0.0
C1726 C 0.21707 0.58197 0.02289 0.0
H1727 H 0.23196 0.68885 1.00926 0.0
H1728 H 0.22154 0.60113 1.00634 0.0
C1729 C 0.21739 0.60036 0.03311 0.0
C1730 C 0.39785 0.57755 1.01544 0.0
C1731 C 0.37896 0.56032 0.02567 0.0
H1732 H 0.46083 0.63603 1.00596 0.0
C1733 C 0.41228 0.58586 0.03423 0.0
H1734 H 0.373 0.55852 1.00871 0.0
C1735 C 0.46275 0.62877 0.03268 0.0
C1736 C 0.48074 0.64834 0.02252 0.0
H1737 H 0.39886 0.57334 0.04221 0.0
H1738 H 0.4866 0.64832 0.03952 0.0
C1739 C 0.44807 0.62186 1.01388 0.0
C1740 C 0.22226 0.58654 0.53429 0.0
C1741 C 0.22967 0.56081 0.52571 0.0
H1742 H 0.21094 0.64925 0.5396 0.0
C1743 C 0.22776 0.57786 0.51549 0.0
H1744 H 0.22337 0.57416 0.54226 0.0
C1745 C 0.22205 0.62223 0.51394 0.0
C1746 C 0.21632 0.64895 0.52259 0.0
H1747 H 0.23326 0.55867 0.50875 0.0
H1748 H 0.22331 0.63629 0.50602 0.0
C1749 C 0.2149 0.62952 0.53275 0.0
C1750 C 0.48402 0.66441 0.51552 0.0
C1751 C 0.50153 0.68311 0.52574 0.0
H1752 H 0.42525 0.60163 0.50603 0.0
C1753 C 0.47633 0.64959 0.5343 0.0
H1754 H 0.50278 0.68942 0.5088 0.0
C1755 C 0.43337 0.59913 0.53273 0.0
C1756 C 0.41344 0.58138 0.52258 0.0
H1757 H 0.48908 0.66289 0.54227 0.0
H1758 H 0.41402 0.57516 0.53957 0.0
C1759 C 0.4397 0.61421 0.51395 0.0
C1760 C 0.46319 0.849 0.53286 0.0
C1761 C 0.48136 0.84727 0.52272 0.0
H1762 H 0.39908 0.84052 0.54231 0.0
C1763 C 0.44896 0.84112 0.51405 0.0
H1764 H 0.48682 0.85329 0.53973 0.0
C1765 C 0.39877 0.83519 0.51554 0.0
C1766 C 0.37961 0.83351 0.52574 0.0
H1767 H 0.46187 0.8396 0.50614 0.0
H1768 H 0.3741 0.82926 0.50878 0.0
C1769 C 0.41272 0.84144 0.53435 0.0
C1770 C 0.2556 0.54951 0.36223 0.0
C1771 C 0.2379 0.55045 0.35201 0.0
H1772 H 0.31415 0.54518 0.37167 0.0
C1773 C 0.26244 0.54125 0.34345 0.0
H1774 H 0.23738 0.55649 0.36895 0.0
C1775 C 0.30496 0.53315 0.34499 0.0
C1776 C 0.32514 0.53561 0.35513 0.0
H1777 H 0.24953 0.54159 0.33549 0.0
H1778 H 0.32384 0.52791 0.33815 0.0
C1779 C 0.29949 0.54303 0.36377 0.0
C1780 C 0.52033 0.73469 0.34365 0.0
C1781 C 0.51017 0.70068 0.35219 0.0
H1782 H 0.53421 0.8096 0.33834 0.0
C1783 C 0.51 0.719 0.36239 0.0
H1784 H 0.52081 0.72165 0.3357 0.0
C1785 C 0.51636 0.76938 0.36392 0.0
C1786 C 0.52463 0.80268 0.35528 0.0
H1787 H 0.50218 0.69354 0.3691 0.0
H1788 H 0.51337 0.78165 0.3718 0.0
C1789 C 0.52822 0.78527 0.34518 0.0
C1790 C 0.27752 0.7559 0.34499 0.0
C1791 C 0.2596 0.73543 0.3551 0.0
H1792 H 0.34146 0.812 0.33555 0.0
C1793 C 0.29239 0.76117 0.36377 0.0
H1794 H 0.2536 0.73701 0.33811 0.0
C1795 C 0.3427 0.80546 0.36228 0.0
C1796 C 0.36152 0.8235 0.35209 0.0
H1797 H 0.27972 0.74632 0.37166 0.0
H1798 H 0.3677 0.82373 0.36903 0.0
C1799 C 0.32805 0.79885 0.3435 0.0
C1800 C 0.33769 0.40331 0.17924 0.0
C1801 C 0.31456 0.36807 0.1877 0.0
H1802 H 0.40883 0.45665 0.17105 0.0
C1803 C 0.3481 0.36207 0.19478 0.0
H1804 H 0.31334 0.40916 0.17363 0.0
C1805 C 0.40292 0.38907 0.19324 0.0
C1806 C 0.42575 0.42312 0.18463 0.0
H1807 H 0.33196 0.33535 0.20138 0.0
H1808 H 0.42738 0.38255 0.1987 0.0
C1809 C 0.39254 0.43063 0.17775 0.0
C1810 C 0.67591 0.02984 0.19349 0.0
C1811 C 0.64033 1.01702 0.18508 0.0
H1812 H 0.73089 1.01383 0.20147 0.0
C1813 C 0.63134 0.97485 0.17848 0.0
H1814 H 0.68365 0.06205 0.19873 0.0
C1815 C 0.65856 0.94739 0.18 0.0
C1816 C 0.69532 0.96097 0.18823 0.0
H1817 H 0.60411 0.96381 0.17195 0.0
H1818 H 0.65128 0.91593 0.17458 0.0
C1819 C 0.70291 1.00204 0.19507 0.0
C1820 C 0.11299 0.72513 0.17901 0.0
C1821 C 0.10151 0.74786 0.18764 0.0
H1822 H 0.09499 0.65441 0.17065 0.0
C1823 C 0.06284 0.71398 0.19485 0.0
H1824 H 0.1426 0.74975 0.17331 0.0
C1825 C 1.03509 0.65916 0.19324 0.0
C1826 C 0.04574 0.63677 0.18446 0.0
H1827 H 0.05271 0.72987 0.20156 0.0
H1828 H 1.00459 0.63436 0.19877 0.0
C1829 C 0.0857 0.67035 0.17748 0.0
C1830 C 0.37394 0.33515 0.34897 0.0
C1831 C 0.38004 0.30162 0.35604 0.0
H1832 H 0.39334 0.41433 0.34522 0.0
C1833 C 0.41438 0.32462 0.36463 0.0
H1834 H 0.34786 0.31906 0.34227 0.0
C1835 C 0.44065 0.37933 0.36628 0.0
C1836 C 0.43297 0.41248 0.35943 0.0
H1837 H 0.42026 0.30025 0.37023 0.0
H1838 H 0.46597 0.39551 0.37309 0.0
C1839 C 0.39992 0.38984 0.35067 0.0
C1840 C 0.68256 0.0745 0.36662 0.0
C1841 C 0.64911 0.03334 0.35984 0.0
H1842 H 0.76182 0.13326 0.37049 0.0
C1843 C 0.67142 1.0223 0.3511 0.0
H1844 H 0.66663 0.0841 0.37341 0.0
C1845 C 0.72605 0.05079 0.34936 0.0
C1846 C 0.75987 0.0908 0.35636 0.0
H1847 H 0.64674 0.99091 0.34571 0.0
H1848 H 0.74187 0.04034 0.34268 0.0
C1849 C 0.73722 0.10271 0.36494 0.0
C1850 C 1.01039 0.68765 0.34921 0.0
C1851 C 0.97037 0.68117 0.35622 0.0
H1852 H 0.07059 0.66881 0.34553 0.0
C1853 C 0.9588 0.64671 0.36479 0.0
H1854 H 1.02061 0.71387 0.34253 0.0
C1855 C 0.98732 0.62063 0.36646 0.0
C1856 C 1.02849 0.62863 0.35966 0.0
H1857 H 0.92827 0.64054 0.37036 0.0
H1858 H 0.97794 0.59516 0.37325 0.0
C1859 C 0.03921 0.66189 0.35093 0.0
C1860 C 0.68356 0.61717 0.86553 0.0
C1861 C 0.65022 0.62619 0.85902 0.0
H1862 H 0.76264 0.63784 0.86942 0.0
C1863 C 0.67295 0.66268 0.85075 0.0
H1864 H 0.6674 0.58928 0.87195 0.0
C1865 C 0.72786 0.69047 0.84922 0.0
C1866 C 0.76148 0.68279 0.85598 0.0
H1867 H 0.64835 0.67047 0.84557 0.0
H1868 H 0.74401 0.71907 0.84292 0.0
C1869 C 0.73835 0.6452 0.86407 0.0
C1870 C 0.40599 0.09301 0.86603 0.0
C1871 C 0.37903 0.08651 0.85649 0.0
H1872 H 0.45038 0.0697 0.87571 0.0
C1873 C 0.38048 0.05204 0.84891 0.0
H1874 H 0.40621 0.11903 0.87211 0.0
C1875 C 0.40683 1.02382 0.851 0.0
C1876 C 0.43183 0.0292 0.86074 0.0
H1877 H 0.36013 0.04577 0.84149 0.0
H1878 H 0.40569 0.99626 0.84521 0.0
C1879 C 0.43154 0.0646 0.86813 0.0
C1880 C 1.0141 0.33636 0.84972 0.0
C1881 C 0.97502 0.303 0.85693 0.0
H1882 H 0.07235 0.41568 0.84558 0.0
C1883 C 0.96325 0.32645 0.86538 0.0
H1884 H 1.02443 0.31997 0.84312 0.0
C1885 C 0.99052 0.38143 0.86673 0.0
C1886 C 1.03072 0.41452 0.85973 0.0
H1887 H 0.93339 0.30226 0.87108 0.0
H1888 H 0.98095 0.39794 0.87342 0.0
C1889 C 0.04173 0.39134 0.85114 0.0
C1890 C 0.6721 0.66097 0.69318 0.0
C1891 C 0.639 0.63822 0.68443 0.0
H1892 H 0.72414 0.73186 0.70155 0.0
C1893 C 0.63132 0.67127 0.67755 0.0
H1894 H 0.67871 0.63656 0.69864 0.0
C1895 C 0.65761 0.726 0.67916 0.0
C1896 C 0.69192 0.74909 0.68776 0.0
H1897 H 0.60598 0.65499 0.67075 0.0
H1898 H 0.65172 0.75029 0.67355 0.0
C1899 C 0.69805 0.71567 0.69485 0.0
C1900 C 0.38904 0.97686 0.67656 0.0
C1901 C 0.42264 1.01805 0.68332 0.0
H1902 H 0.30972 0.9176 0.67284 0.0
C1903 C 0.40057 0.02868 0.69215 0.0
H1904 H 0.40477 0.96758 0.6697 0.0
C1905 C 0.34607 0.99972 0.69403 0.0
C1906 C 0.31206 0.95962 0.68707 0.0
H1907 H 0.42536 0.06009 0.69753 0.0
H1908 H 0.33048 1.00987 0.70079 0.0
C1909 C 0.33446 0.94817 0.67838 0.0
C1910 C 1.03321 0.38826 0.69354 0.0
C1911 C 0.04386 0.42164 0.68483 0.0
H1912 H 0.05176 0.33599 0.70186 0.0
C1913 C 0.08492 0.42965 0.678 0.0
H1914 H 1.00196 0.38141 0.69898 0.0
C1915 C 0.11334 0.40343 0.6796 0.0
C1916 C 0.1018 0.36879 0.68814 0.0
H1917 H 0.09427 0.45522 0.67123 0.0
H1918 H 0.14377 0.40961 0.67401 0.0
C1919 C 0.06193 0.36233 0.6952 0.0
C1920 C 1.01497 0.69638 0.52794 0.0
C1921 C 0.98159 0.70253 0.52084 0.0
H1922 H 0.094 0.71563 0.53174 0.0
C1923 C 1.00472 0.7368 0.51224 0.0
H1924 H 0.99879 0.67035 0.53464 0.0
C1925 C 0.05943 0.763 0.51063 0.0
C1926 C 0.09244 0.75532 0.51752 0.0
H1927 H 0.98046 0.74271 0.50662 0.0
H1928 H 0.07574 0.7883 0.50383 0.0
C1929 C 0.06965 0.72228 0.52627 0.0
C1930 C 0.32591 0.28264 0.51197 0.0
C1931 C 0.3601 0.29378 0.52057 0.0
H1932 H 0.27412 0.30185 0.50363 0.0
C1933 C 0.36582 0.33292 0.52776 0.0
H1934 H 0.32032 0.25276 0.50628 0.0
C1935 C 0.33959 0.36134 0.52618 0.0
C1936 C 0.30661 0.35111 0.51742 0.0
H1937 H 0.39176 0.34274 0.53447 0.0
H1938 H 0.34592 0.39206 0.53172 0.0
C1939 C 0.29935 0.31079 0.51044 0.0
C1940 C 0.75196 1.00378 0.51083 0.0
C1941 C 0.71162 0.9707 0.5178 0.0
H1942 H 0.80997 0.08288 0.50667 0.0
C1943 C 0.70134 0.99352 0.52654 0.0
H1944 H 0.76095 0.98743 0.50403 0.0
C1945 C 0.72971 0.04829 0.52812 0.0
C1946 C 0.76886 0.08172 0.52094 0.0
H1947 H 0.67063 0.9691 0.53208 0.0
H1948 H 0.71986 0.06449 0.53482 0.0
C1949 C 0.78007 0.05858 0.51235 0.0
C1950 C 0.105 0.71355 0.70012 0.0
C1951 C 0.09738 0.74649 0.69319 0.0
H1952 H 0.08454 0.63455 0.7042 0.0
C1953 C 0.06425 0.72352 0.68446 0.0
H1954 H 0.13035 0.72999 0.70691 0.0
C1955 C 0.03832 0.66878 0.68283 0.0
C1956 C 0.04443 0.63547 0.68996 0.0
H1957 H 0.05762 0.74778 0.67896 0.0
H1958 H 1.01228 0.6525 0.67613 0.0
C1959 C 0.07868 0.65875 0.69855 0.0
C1960 C 0.34762 0.40753 0.70003 0.0
C1961 C 0.3144 0.36669 0.69316 0.0
H1962 H 0.42671 0.46637 0.70398 0.0
C1963 C 0.33693 0.35634 0.68437 0.0
H1964 H 0.33152 0.4166 0.70686 0.0
C1965 C 0.39156 0.38519 0.68266 0.0
C1966 C 0.42515 0.42487 0.68974 0.0
H1967 H 0.3124 0.32522 0.67891 0.0
H1968 H 0.40757 0.37528 0.67593 0.0
C1969 C 0.40228 0.43609 0.69837 0.0
C1970 C 0.652 0.95553 0.69963 0.0
C1971 C 0.69302 0.9631 0.69282 0.0
H1972 H 0.59306 0.97573 0.70346 0.0
C1973 C 0.70354 0.99584 0.68402 0.0
H1974 H 0.64279 0.93048 0.70648 0.0
C1975 C 0.67472 1.02153 0.68222 0.0
C1976 C 0.63485 1.0155 0.68923 0.0
H1977 H 0.73475 1.00238 0.6786 0.0
H1978 H 0.6848 0.04732 0.67547 0.0
C1979 C 0.62345 0.98154 0.69789 0.0
C1980 C 0.33453 0.98952 0.18495 0.0
C1981 C 0.31428 0.96964 0.19499 0.0
H1982 H 0.40358 0.02982 0.17523 0.0
C1983 C 0.3493 0.97259 0.20285 0.0
H1984 H 0.30856 0.98807 0.17875 0.0
C1985 C 0.40337 0.99589 0.20084 0.0
C1986 C 0.42434 1.01765 0.19093 0.0
H1987 H 0.33498 0.95759 0.21066 0.0
H1988 H 0.42892 0.9982 0.20721 0.0
C1989 C 0.38903 1.0135 0.18295 0.0
C1990 C 0.04158 0.3831 0.18275 0.0
C1991 C 0.04686 0.42195 0.18997 0.0
H1992 H 0.0613 0.32373 0.17884 0.0
C1993 C 0.07991 0.43209 0.19874 0.0
H1994 H 1.01647 0.37397 0.17592 0.0
C1995 C 0.1059 0.40342 0.20037 0.0
C1996 C 0.0992 0.3635 0.19333 0.0
H1997 H 0.08511 0.46166 0.20447 0.0
H1998 H 0.13032 0.41173 0.20729 0.0
C1999 C 0.06722 0.35412 0.18443 0.0
C2000 C 0.67316 0.6729 0.18296 0.0
C2001 C 0.64142 0.6372 0.19085 0.0
H2002 H 0.7282 0.75369 0.17893 0.0
C2003 C 0.63937 0.65777 0.20073 0.0
H2004 H 0.67591 0.65864 0.17527 0.0
C2005 C 0.66949 0.71186 0.2028 0.0
C2006 C 0.70212 0.7473 0.19505 0.0
H2007 H 0.61563 0.63191 0.20702 0.0
H2008 H 0.66786 0.72588 0.2106 0.0
C2009 C 0.70302 0.72743 0.18503 0.0
C2010 C 0.30098 1.00352 1.01094 0.0
C2011 C 0.30857 0.97077 1.01792 0.0
H2012 H 0.32141 0.08238 1.00676 0.0
C2013 C 0.34164 0.99394 0.02666 0.0
H2014 H 0.27566 0.98691 1.00415 0.0
C2015 C 0.3676 0.04872 0.02822 0.0
C2016 C 0.3615 0.08184 1.02104 0.0
H2017 H 0.34821 0.9698 0.0322 0.0
H2018 H 0.39361 0.06519 0.03492 0.0
C2019 C 0.32727 0.05834 1.01245 0.0
C2020 C 0.05835 0.31021 1.01079 0.0
C2021 C 0.09165 0.35105 1.01765 0.0
H2022 H 0.9792 0.25149 1.00685 0.0
C2023 C 0.0692 0.36154 0.02643 0.0
H2024 H 0.0744 0.30104 1.00397 0.0
C2025 C 1.01456 0.33283 0.02815 0.0
C2026 C 0.98089 0.29315 1.02108 0.0
H2027 H 0.09378 0.39267 0.03189 0.0
H2028 H 0.99862 0.34286 0.03487 0.0
C2029 C 1.00368 0.28178 1.01245 0.0
C2030 C 0.7814 0.7363 1.01233 0.0
C2031 C 0.77001 0.70203 1.02093 0.0
H2032 H 0.76206 0.7877 1.00387 0.0
C2033 C 0.73014 0.69567 0.02797 0.0
H2034 H 0.81181 0.74235 1.00674 0.0
C2035 C 0.7013 0.72139 0.02626 0.0
C2036 C 0.71186 0.75449 1.01751 0.0
H2037 H 0.72007 0.6696 0.03467 0.0
H2038 H 0.67005 0.71456 0.03169 0.0
C2039 C 0.75285 0.76236 1.01067 0.0
C2040 C 0.72889 0.09856 0.84609 0.0
C2041 C 0.76198 0.08951 0.85267 0.0
H2042 H 0.65008 0.0799 0.84245 0.0
C2043 C 0.73952 0.05612 0.8614 0.0
H2044 H 0.74491 0.12421 0.83933 0.0
C2045 C 0.68496 0.03092 0.86327 0.0
C2046 C 0.65142 0.03819 0.85642 0.0
H2047 H 0.76396 0.04848 0.86666 0.0
H2048 H 0.66891 1.00424 0.86988 0.0
C2049 C 0.67439 0.07312 0.8479 0.0
C2050 C 0.9853 0.65855 0.84131 0.0
C2051 C 0.98171 0.69041 0.84915 0.0
H2052 H 1.01212 0.60546 0.83697 0.0
C2053 C 1.00188 0.6907 0.85919 0.0
H2054 H 0.97011 0.65738 0.83349 0.0
C2055 C 1.02673 0.66105 0.8612 0.0
C2056 C 1.03143 0.63007 0.85324 0.0
H2057 H 1.00011 0.7152 0.86537 0.0
H2058 H 0.04325 0.66333 0.86892 0.0
C2059 C 1.0094 0.62859 0.84333 0.0
C2060 C 0.37374 0.31947 0.85885 0.0
C2061 C 0.37361 0.29995 0.84874 0.0
H2062 H 0.40162 0.38793 0.86873 0.0
C2063 C 0.4051 0.33571 0.84091 0.0
H2064 H 0.34955 0.29293 0.86501 0.0
C2065 C 0.43513 0.38976 0.84302 0.0
C2066 C 0.43415 0.40996 0.85301 0.0
H2067 H 0.40595 0.32195 0.83305 0.0
H2068 H 0.45798 0.41587 0.83668 0.0
C2069 C 0.40353 0.37395 0.86095 0.0
C2070 C 0.70784 1.0028 1.01605 0.0
C2071 C 0.71398 0.96932 0.02312 0.0
H2072 H 0.72711 0.08191 1.01229 0.0
C2073 C 0.74824 0.99236 0.03173 0.0
H2074 H 0.68182 0.98668 1.00934 0.0
C2075 C 0.77443 0.04708 0.03337 0.0
C2076 C 0.76674 0.08017 0.02651 0.0
H2077 H 0.75414 0.96803 0.03734 0.0
H2078 H 0.79972 0.06331 0.04018 0.0
C2079 C 0.73373 0.05748 1.01775 0.0
C2080 C 1.01608 0.74098 0.03372 0.0
C2081 C 0.98301 0.7006 0.02675 0.0
H2082 H 0.09516 0.79915 0.03787 0.0
C2083 C 1.00583 0.69037 1.018 0.0
H2084 H 0.99974 0.74993 0.04053 0.0
C2085 C 0.06055 0.71888 1.01641 0.0
C2086 C 0.09398 0.7581 0.02359 0.0
H2087 H 0.98144 0.65961 1.01246 0.0
H2088 H 0.07672 0.70906 1.0097 0.0
C2089 C 0.07086 0.76922 0.03219 0.0
C2090 C 0.34398 0.35512 1.0158 0.0
C2091 C 0.30428 0.34883 0.02288 0.0
H2092 H 0.40385 0.33597 1.012 0.0
C2093 C 0.2929 0.3144 0.03145 0.0
H2094 H 0.35401 0.38128 1.00911 0.0
C2095 C 0.32136 0.28823 0.03306 0.0
C2096 C 0.36226 0.29609 0.0262 0.0
H2097 H 0.2626 0.30836 0.03706 0.0
H2098 H 0.31219 0.26284 0.03985 0.0
C2099 C 0.37272 0.32923 1.01746 0.0
C2100 C 0.0586 0.35532 0.51602 0.0
C2101 C 0.09197 0.3492 0.52312 0.0
H2102 H 0.97959 0.33604 0.5122 0.0
C2103 C 0.06884 0.31494 0.53172 0.0
H2104 H 0.0748 0.38135 0.50932 0.0
C2105 C 1.01412 0.28871 0.53332 0.0
C2106 C 0.98114 0.29638 0.52642 0.0
H2107 H 0.09308 0.30905 0.53735 0.0
H2108 H 0.9978 0.2634 0.54012 0.0
C2109 C 1.00393 0.32941 0.51767 0.0
C2110 C 0.70738 0.71864 0.51609 0.0
C2111 C 0.71324 0.75797 0.52324 0.0
H2112 H 0.72716 0.65935 0.51218 0.0
C2113 C 0.74752 0.76923 0.53184 0.0
H2114 H 0.68136 0.70871 0.50938 0.0
C2115 C 0.77404 0.74106 0.53339 0.0
C2116 C 0.76666 0.70058 0.52644 0.0
H2117 H 0.75322 0.79925 0.5375 0.0
H2118 H 0.79935 0.75014 0.54019 0.0
C2119 C 0.73358 0.69019 0.51769 0.0
C2120 C 0.29367 0.99346 0.53159 0.0
C2121 C 0.30492 0.97028 0.52301 0.0
H2122 H 0.31282 0.06463 0.53992 0.0
C2123 C 0.34428 1.00369 0.51587 0.0
H2124 H 0.26363 0.96918 0.53725 0.0
C2125 C 0.37278 0.05846 0.51746 0.0
C2126 C 0.3624 0.08131 0.52619 0.0
H2127 H 0.3542 0.98747 0.50918 0.0
H2128 H 0.40364 0.08284 0.51195 0.0
C2129 C 0.32189 0.04826 0.53313 0.0
C2130 C 0.99277 0.39083 0.3456 0.0
C2131 C 1.02691 0.41389 0.35422 0.0
H2132 H 0.94142 0.31985 0.33714 0.0
C2133 C 1.03307 0.38045 0.3613 0.0
H2134 H 0.98687 0.41514 0.33999 0.0
C2135 C 1.0073 0.32577 0.3596 0.0
C2136 C 0.97434 0.30305 0.35083 0.0
H2137 H 0.05903 0.39659 0.36802 0.0
H2138 H 1.01396 0.30138 0.36506 0.0
C2139 C 0.96665 0.33611 0.34396 0.0
C2140 C 0.73471 0.69341 0.3596 0.0
C2141 C 0.75729 0.68298 0.35084 0.0
H2142 H 0.66403 0.6748 0.36798 0.0
C2143 C 0.72404 0.64238 0.34392 0.0
H2144 H 0.75924 0.72435 0.36509 0.0
C2145 C 0.6693 0.61412 0.34552 0.0
C2146 C 0.64641 0.62539 0.35414 0.0
H2147 H 0.74018 0.63327 0.3371 0.0
H2148 H 0.64485 0.58401 0.33988 0.0
C2149 C 0.68002 0.66485 0.36126 0.0
C2150 C 0.4186 0.0948 0.34391 0.0
C2151 C 0.37761 0.08708 0.35073 0.0
H2152 H 0.47761 0.07478 0.34004 0.0
C2153 C 0.36718 0.05429 0.35953 0.0
H2154 H 0.42773 0.11991 0.33707 0.0
C2155 C 0.3961 0.02871 0.3613 0.0
C2156 C 0.43593 0.03488 0.35427 0.0
H2157 H 0.33595 0.04762 0.36495 0.0
H2158 H 0.38611 1.00285 0.36803 0.0
C2159 C 0.44723 0.06887 0.34562 0.0
C2160 C 0.1501 0.35759 0.09975 0.0
C2161 C 0.19297 0.36087 0.09414 0.0
H2162 H 0.11381 0.35027 0.11469 0.0
C2163 C 0.23358 0.35964 0.09979 0.0
H2164 H 0.11853 0.35922 0.09568 0.0
C2165 C 0.23098 0.35474 0.11078 0.0
C2166 C 0.18815 0.35186 0.11635 0.0
H2167 H 0.26709 0.36203 0.0957 0.0
H2168 H 0.26273 0.35383 0.11494 0.0
C2169 C 0.14777 0.35321 0.11068 0.0
C2170 C 0.70913 0.80088 0.09938 0.0
C2171 C 0.70566 0.84104 0.09407 0.0
H2172 H 0.7167 0.77023 0.1141 0.0
C2173 C 0.70734 0.88243 0.1 0.0
H2174 H 0.70717 0.76799 0.0951 0.0
C2175 C 0.71259 0.88357 0.11099 0.0
C2176 C 0.71542 0.84293 0.11627 0.0
H2177 H 0.70486 0.914 0.09614 0.0
H2178 H 0.71356 0.91576 0.11536 0.0
C2179 C 0.71388 0.80178 0.11031 0.0
C2180 C 0.2198 0.83415 0.11199 0.0
C2181 C 0.19839 0.86315 0.11649 0.0
H2182 H 0.24133 0.80961 0.0979 0.0
C2183 C 0.17792 0.88657 0.10976 0.0
H2184 H 0.23539 0.81512 0.11693 0.0
C2185 C 0.18089 0.88302 0.09883 0.0
C2186 C 0.20427 0.85584 0.09433 0.0
H2187 H 0.16153 0.90957 0.11293 0.0
H2188 H 0.16582 0.90254 0.09389 0.0
C2189 C 0.22264 0.83049 0.10106 0.0
C2190 C 0.37049 0.14005 0.44387 0.0
C2191 C 0.37397 0.18309 0.44945 0.0
H2192 H 0.36313 0.10356 0.42894 0.0
C2193 C 0.37313 0.22385 0.44378 0.0
H2194 H 0.37183 0.10836 0.44796 0.0
C2195 C 0.36833 0.22118 0.43278 0.0
C2196 C 0.36523 0.17815 0.42724 0.0
H2197 H 0.37569 0.2575 0.44786 0.0
H2198 H 0.36765 0.253 0.42861 0.0
C2199 C 0.36626 0.13766 0.43294 0.0
C2200 C 0.84201 0.1604 0.43312 0.0
C2201 C 0.88379 0.20117 0.42746 0.0
H2202 H 0.80697 0.13129 0.44828 0.0
C2203 C 0.92326 0.24427 0.43305 0.0
H2204 H 0.81097 0.12669 0.42904 0.0
C2205 C 0.92115 0.24672 0.44399 0.0
C2206 C 0.87943 0.20622 0.44968 0.0
H2207 H 0.95643 0.27598 0.42898 0.0
H2208 H 0.95207 0.28087 0.44799 0.0
C2209 C 0.8396 0.16313 0.44412 0.0
C2210 C 0.90167 0.69413 0.43304 0.0
C2211 C 0.86132 0.69608 0.42744 0.0
H2212 H 0.93083 0.68793 0.44817 0.0
C2213 C 0.81915 0.69403 0.4331 0.0
H2214 H 0.93466 0.6956 0.42891 0.0
C2215 C 0.81714 0.69001 0.44403 0.0
C2216 C 0.85717 0.68777 0.44967 0.0
H2217 H 0.78782 0.69625 0.42906 0.0
H2218 H 0.78365 0.68793 0.44808 0.0
C2219 C 0.89937 0.68954 0.44405 0.0
C2220 C 0.90736 0.74721 0.93467 0.0
C2221 C 0.88491 0.70335 0.92789 0.0
H2222 H 0.92117 0.77511 0.95058 0.0
C2223 C 0.85573 0.65277 0.93232 0.0
H2224 H 0.93045 0.78674 0.93155 0.0
C2225 C 0.85074 0.64608 0.94324 0.0
C2226 C 0.87491 0.68981 0.95003 0.0
H2227 H 0.83737 0.61814 0.92734 0.0
H2228 H 0.82962 0.6064 0.94635 0.0
C2229 C 0.9025 0.74052 0.94559 0.0
C2230 C 0.31568 0.16057 0.93479 0.0
C2231 C 0.35682 0.19102 0.92772 0.0
H2232 H 0.29226 0.14011 0.95086 0.0
C2233 C 0.40788 0.22292 0.93177 0.0
H2234 H 0.27604 0.13482 0.93195 0.0
C2235 C 0.41718 0.22576 0.9426 0.0
C2236 C 0.37567 0.19682 0.94969 0.0
H2237 H 0.4404 0.24751 0.9266 0.0
H2238 H 0.45659 0.25243 0.94545 0.0
C2239 C 0.32497 0.16352 0.94563 0.0
C2240 C 0.85818 0.22154 0.93264 0.0
C2241 C 0.883 0.19546 0.92829 0.0
H2242 H 0.83282 0.24322 0.94661 0.0
C2243 C 0.90544 0.17448 0.93515 0.0
H2244 H 0.84092 0.2386 0.92761 0.0
C2245 C 0.90117 0.17748 0.94605 0.0
C2246 C 0.87448 0.20167 0.9504 0.0
H2247 H 0.92442 0.15368 0.93209 0.0
H2248 H 0.91784 0.15983 0.95109 0.0
C2249 C 0.85405 0.22469 0.94356 0.0
C2250 C 0.65297 0.82917 0.60117 0.0
C2251 C 0.69676 0.85229 0.59439 0.0
H2252 H 0.62512 0.81538 0.61708 0.0
C2253 C 0.7475 0.87713 0.59883 0.0
H2254 H 0.6133 0.81014 0.59805 0.0
C2255 C 0.75427 0.8805 0.60976 0.0
C2256 C 0.71047 0.85926 0.61654 0.0
H2257 H 0.78212 0.89489 0.59385 0.0
H2258 H 0.79393 0.90168 0.61287 0.0
C2259 C 0.65974 0.83268 0.6121 0.0
C2260 C 0.23348 0.88786 0.59991 0.0
C2261 C 0.19358 0.84525 0.59426 0.0
H2262 H 0.26177 0.92348 0.61507 0.0
C2263 C 0.15135 0.80479 0.59986 0.0
H2264 H 0.2665 0.91964 0.59583 0.0
C2265 C 0.14883 0.80681 0.61079 0.0
C2266 C 0.18837 0.84942 0.61647 0.0
H2267 H 0.12037 0.771 0.59578 0.0
H2268 H 0.11529 0.77516 0.61479 0.0
C2269 C 0.23067 0.89016 0.61091 0.0
C2270 C 0.25649 0.36214 0.60004 0.0
C2271 C 0.2164 0.36401 0.59435 0.0
H2272 H 0.28544 0.3558 0.61505 0.0
C2273 C 0.17372 0.36152 0.59992 0.0
H2274 H 0.29032 0.36476 0.59604 0.0
C2275 C 0.171 0.35655 0.61092 0.0
C2276 C 0.21138 0.35493 0.61657 0.0
H2277 H 0.14219 0.36281 0.59576 0.0
H2278 H 0.13763 0.35451 0.615 0.0
C2279 C 0.25406 0.35775 0.61098 0.0
C2280 C 0.06986 0.56604 0.7652 0.0
C2281 C 1.02319 0.52315 0.76131 0.0
H2282 H 0.11709 0.60477 0.77871 0.0
C2283 C 0.98686 0.48659 0.7685 0.0
H2284 H 0.09833 0.59525 0.75988 0.0
C2285 C 0.99776 0.49166 0.77929 0.0
C2286 C 0.04521 0.53362 0.78318 0.0
H2287 H 0.95086 0.45266 0.76576 0.0
H2288 H 0.96991 0.46128 0.7845 0.0
C2289 C 0.08061 0.57137 0.77601 0.0
C2290 C 0.55652 0.49654 0.76762 0.0
C2291 C 0.53595 0.51951 0.76079 0.0
H2292 H 0.57011 0.48278 0.78355 0.0
C2293 C 0.50985 0.54422 0.76519 0.0
H2294 H 0.57732 0.47761 0.76454 0.0
C2295 C 0.50611 0.54756 0.77611 0.0
C2296 C 0.52851 0.52642 0.78294 0.0
H2297 H 0.49307 0.56187 0.76019 0.0
H2298 H 0.48745 0.56861 0.7792 0.0
C2299 C 0.55291 0.50002 0.77854 0.0
C2300 C 0.47055 1.00849 0.76504 0.0
C2301 C 0.51796 1.02449 0.75959 0.0
H2302 H 0.43033 0.9879 0.77982 0.0
C2303 C 0.56255 0.0331 0.76532 0.0
H2304 H 0.43563 1.00238 0.76092 0.0
C2305 C 0.55975 0.0258 0.77621 0.0
C2306 C 0.51225 1.00955 0.78165 0.0
H2307 H 0.59961 0.04517 0.76138 0.0
H2308 H 0.59501 0.03329 0.78038 0.0
C2309 C 0.46771 1.00103 0.77592 0.0
C2310 C 0.58962 0.02938 0.26685 0.0
C2311 C 0.54981 0.03243 0.26131 0.0
H2312 H 0.61867 1.02162 0.28174 0.0
C2313 C 0.50772 0.03052 0.267 0.0
H2314 H 0.62301 0.03154 0.26275 0.0
C2315 C 0.50532 1.025 0.27798 0.0
C2316 C 0.54546 1.02225 0.28349 0.0
H2317 H 0.47645 0.03275 0.26295 0.0
H2318 H 0.47243 1.02345 0.28218 0.0
C2319 C 0.58752 1.02445 0.27777 0.0
C2320 C 0.03873 0.57711 0.27754 0.0
C2321 C 0.04085 0.53709 0.2832 0.0
H2322 H 1.03203 0.60598 0.26255 0.0
C2323 C 0.03831 0.49439 0.27763 0.0
H2324 H 0.04139 0.61095 0.28156 0.0
C2325 C 1.03312 0.49162 0.26663 0.0
C2326 C 1.03132 0.53197 0.261 0.0
H2327 H 0.0398 0.46293 0.28177 0.0
H2328 H 1.03109 0.45827 0.26253 0.0
C2329 C 1.03412 0.57463 0.26661 0.0
C2330 C 0.54939 0.56607 0.2653 0.0
C2331 C 0.55154 0.52244 0.26133 0.0
H2332 H 0.54226 0.60527 0.27888 0.0
C2333 C 0.5499 0.48504 0.26847 0.0
H2334 H 0.55124 0.59591 0.26002 0.0
C2335 C 0.5442 0.49002 0.27926 0.0
C2336 C 0.54029 0.53274 0.28323 0.0
H2337 H 0.55068 0.45054 0.26567 0.0
H2338 H 0.5405 0.45902 0.28442 0.0
C2339 C 0.54413 0.57131 0.27611 0.0
C2340 C 0.06401 0.1657 0.27983 0.0
C2341 C 1.02335 0.1754 0.28275 0.0
H2342 H 0.11506 0.1672 0.26764 0.0
C2343 C 1.00314 0.19502 0.27506 0.0
H2344 H 0.08126 0.15146 0.28555 0.0
C2345 C 1.02251 0.20396 0.26473 0.0
C2346 C 0.06265 0.19354 0.26178 0.0
H2347 H 0.97131 0.20224 0.27695 0.0
H2348 H 1.00507 0.21789 0.25899 0.0
C2349 C 0.08338 0.17466 0.26952 0.0
C2350 C 0.86289 0.82584 0.27549 0.0
C2351 C 0.88088 0.86391 0.28354 0.0
H2352 H 0.84127 0.80803 0.25928 0.0
C2353 C 0.88833 0.91408 0.2812 0.0
H2354 H 0.85739 0.78702 0.27694 0.0
C2355 C 0.87896 0.92613 0.27106 0.0
C2356 C 0.86202 0.88844 0.26293 0.0
H2357 H 0.90124 0.94415 0.28723 0.0
H2358 H 0.88483 0.96509 0.26961 0.0
C2359 C 0.85363 0.83793 0.26533 0.0
C2360 C 0.16414 0.04867 0.27574 0.0
C2361 C 0.1961 0.03836 0.28244 0.0
H2362 H 0.12821 0.03743 0.2606 0.0
C2363 C 0.2166 1.00732 0.27855 0.0
H2364 H 0.14854 0.07335 0.27834 0.0
C2365 C 0.205 0.98675 0.26831 0.0
C2366 C 0.17252 0.9966 0.26167 0.0
H2367 H 0.24087 0.998 0.28349 0.0
H2368 H 0.22061 0.96216 0.26568 0.0
C2369 C 0.1525 0.02809 0.26553 0.0
C2370 C 0.99775 0.8174 0.77508 0.0
C2371 C 1.00881 0.8594 0.78195 0.0
H2372 H 1.00829 0.79369 0.75974 0.0
C2373 C 0.0419 0.91119 0.77835 0.0
H2374 H 0.97196 0.77703 0.77751 0.0
C2375 C 0.06279 0.92076 0.76816 0.0
C2376 C 0.05119 0.87885 0.76122 0.0
H2377 H 0.05221 0.94454 0.78346 0.0
H2378 H 0.08866 0.9612 0.76577 0.0
C2379 C 1.01861 0.82699 0.76486 0.0
C2380 C 0.21276 0.22166 0.7683 0.0
C2381 C 0.19141 0.18281 0.7604 0.0
H2382 H 0.23747 0.24014 0.78435 0.0
C2383 C 0.1809 0.13166 0.76288 0.0
H2384 H 0.22068 0.26128 0.76676 0.0
C2385 C 0.19065 0.11952 0.77298 0.0
C2386 C 0.2111 0.1581 0.78095 0.0
H2387 H 0.16531 0.10087 0.75698 0.0
H2388 H 0.18239 0.07978 0.77452 0.0
C2389 C 0.22241 0.20949 0.77843 0.0
C2390 C 0.92796 0.06128 0.77563 0.0
C2391 C 0.88631 0.04653 0.7828 0.0
H2392 H 0.95145 0.05547 0.75998 0.0
C2393 C 0.83449 1.01341 0.77921 0.0
H2394 H 0.96831 0.08767 0.778 0.0
C2395 C 0.82475 0.99479 0.76881 0.0
C2396 C 0.86655 1.00887 0.76169 0.0
H2397 H 0.80142 1.00081 0.78451 0.0
H2398 H 0.78446 0.96822 0.76644 0.0
C2399 C 0.91825 0.0428 0.76525 0.0
C2400 C 0.72457 0.49884 0.61276 0.0
C2401 C 0.68738 0.51294 0.61599 0.0
H2402 H 0.77279 0.49701 0.60033 0.0
C2403 C 0.67083 0.53748 0.60862 0.0
H2404 H 0.7391 0.48083 0.61824 0.0
C2405 C 0.69021 0.54675 0.59829 0.0
C2406 C 0.72664 0.53169 0.59503 0.0
H2407 H 0.64176 0.5483 0.61076 0.0
H2408 H 0.67563 0.56459 0.59278 0.0
C2409 C 0.74388 0.50807 0.60245 0.0
C2410 C 0.52602 0.15011 0.60818 0.0
C2411 C 0.55158 0.19151 0.61547 0.0
H2412 H 0.49786 0.12744 0.5924 0.0
C2413 C 0.56644 0.24296 0.61222 0.0
H2414 H 0.51458 0.11008 0.61035 0.0
C2415 C 0.55691 0.2529 0.60194 0.0
C2416 C 0.53227 0.21172 0.59457 0.0
H2417 H 0.58528 0.2757 0.61766 0.0
H2418 H 0.56854 0.29301 0.59979 0.0
C2419 C 0.51649 0.16008 0.59786 0.0
C2420 C 0.8196 0.33868 0.61275 0.0
C2421 C 0.87117 0.37409 0.61616 0.0
H2422 H 0.76957 0.29217 0.60014 0.0
C2423 C 0.9128 0.38919 0.60896 0.0
H2424 H 0.7866 0.32528 0.6181 0.0
C2425 C 0.90297 0.37015 0.59859 0.0
C2426 C 0.85124 0.33552 0.59514 0.0
H2427 H 0.95296 0.41689 0.61124 0.0
H2428 H 0.93586 0.3836 0.59322 0.0
C2429 C 0.80979 0.31971 0.60241 0.0
C2430 C 0.68144 0.21733 0.09803 0.0
C2431 C 0.71896 0.20381 0.09476 0.0
H2432 H 0.63276 0.21801 0.1105 0.0
C2433 C 0.73569 0.17912 0.10205 0.0
H2434 H 0.66677 0.23542 0.09261 0.0
C2435 C 0.71613 0.16913 0.11237 0.0
C2436 C 0.67934 0.18361 0.11569 0.0
H2437 H 0.76501 0.16872 0.09987 0.0
H2438 H 0.73082 0.15118 0.11782 0.0
C2439 C 0.66194 0.20739 0.10833 0.0
C2440 C 0.89353 0.55971 0.11211 0.0
C2441 C 0.87765 0.50812 0.11546 0.0
H2442 H 0.8951 0.60947 0.0996 0.0
C2443 C 0.8525 0.46676 0.10814 0.0
H2444 H 0.91255 0.59251 0.11753 0.0
C2445 C 0.84259 0.47648 0.09786 0.0
C2446 C 0.85752 0.52789 0.09455 0.0
H2447 H 0.84077 0.42668 0.11032 0.0
H2448 H 0.82341 0.44357 0.09247 0.0
C2449 C 0.88358 0.56946 0.1018 0.0
C2450 C 0.59375 0.40504 0.10784 0.0
C2451 C 0.55352 0.38488 0.11546 0.0
H2452 H 0.61587 0.40234 0.09192 0.0
C2453 C 0.50275 0.3454 0.1124 0.0
H2454 H 0.63306 0.43628 0.10981 0.0
C2455 C 0.49283 0.32586 0.10208 0.0
C2456 C 0.53341 0.34533 0.09452 0.0
H2457 H 0.47088 0.32858 0.11806 0.0
H2458 H 0.45363 0.29444 0.1001 0.0
C2459 C 0.58386 0.38557 0.09754 0.0
C2460 C 0.40981 0.902 0.93647 0.0
C2461 C 0.39492 0.86059 0.92923 0.0
H2462 H 0.40254 0.92462 0.95215 0.0
C2463 C 0.35823 0.80905 0.93243 0.0
H2464 H 0.43841 0.9421 0.93433 0.0
C2465 C 0.33765 0.79903 0.94263 0.0
C2466 C 0.35321 0.84023 0.94996 0.0
H2467 H 0.34505 0.7763 0.92701 0.0
H2468 H 0.30908 0.75886 0.94474 0.0
C2469 C 0.38924 0.89195 0.94671 0.0
C2470 C 0.23095 0.57606 0.94629 0.0
C2471 C 0.21713 0.52484 0.94952 0.0
H2472 H 0.23229 0.6258 0.93386 0.0
C2473 C 0.19266 0.48353 0.94217 0.0
H2474 H 0.24891 0.60876 0.95175 0.0
C2475 C 0.18313 0.49336 0.93184 0.0
C2476 C 0.19785 0.54478 0.92856 0.0
H2477 H 0.18207 0.44369 0.9443 0.0
H2478 H 0.16534 0.46078 0.92634 0.0
C2479 C 0.22146 0.58587 0.93598 0.0
C2480 C 0.55144 0.65704 0.93549 0.0
C2481 C 0.52626 0.67242 0.92803 0.0
H2482 H 0.57877 0.66332 0.95135 0.0
C2483 C 0.51116 0.70905 0.93113 0.0
H2484 H 0.56302 0.62841 0.93346 0.0
C2485 C 0.52009 0.72898 0.9414 0.0
C2486 C 0.54441 0.71294 0.94892 0.0
H2487 H 0.49261 0.72268 0.92558 0.0
H2488 H 0.50827 0.75744 0.94342 0.0
C2489 C 0.56041 0.67704 0.94578 0.0
C2490 C 0.38939 0.57446 0.44614 0.0
C2491 C 0.35335 0.52309 0.44956 0.0
H2492 H 0.43664 0.62391 0.43355 0.0
C2493 C 0.33789 0.48121 0.44239 0.0
H2494 H 0.40307 0.60761 0.45147 0.0
C2495 C 0.3572 0.49061 0.43205 0.0
C2496 C 0.39245 0.54216 0.42859 0.0
H2497 H 0.30972 0.44121 0.44468 0.0
H2498 H 0.34347 0.45757 0.4267 0.0
C2499 C 0.40863 0.58384 0.43583 0.0
C2500 C 0.57024 0.87797 0.43195 0.0
C2501 C 0.51904 0.86437 0.42875 0.0
H2502 H 0.61969 0.87813 0.44438 0.0
C2503 C 0.4782 0.84194 0.43622 0.0
H2504 H 0.60261 0.89485 0.42641 0.0
C2505 C 0.488 0.83245 0.44653 0.0
C2506 C 0.53896 0.8451 0.4497 0.0
H2507 H 0.43849 0.83203 0.43414 0.0
H2508 H 0.45551 0.8154 0.45205 0.0
C2509 C 0.58006 0.86844 0.44229 0.0
C2510 C 0.23566 0.67369 0.44604 0.0
C2511 C 0.2189 0.70843 0.44955 0.0
H2512 H 0.23898 0.62735 0.43338 0.0
C2513 C 0.19114 0.72255 0.44248 0.0
H2514 H 0.25622 0.66107 0.45129 0.0
C2515 C 0.18127 0.70318 0.43214 0.0
C2516 C 0.19892 0.66919 0.42859 0.0
H2517 H 0.17818 0.74971 0.44484 0.0
H2518 H 0.16086 0.71586 0.42686 0.0
C2519 C 0.22583 0.65438 0.43573 0.0
loop_
_geom_bond_atom_site_label_1
_geom_bond_atom_site_label_2
_geom_bond_distance
_geom_bond_site_symmetry_2
_ccdc_geom_bond_type
Tb0 C2 2.809 . S
Tb0 O20 2.484 . S
Tb0 O21 2.440 . S
Tb0 O22 2.658 . S
Tb0 O23 2.409 . S
Tb0 O24 2.378 . S
Tb0 O28 2.325 . S
Tb0 O31 2.341 . S
Tb1 C11 2.809 . S
Tb1 O22 2.325 . S
Tb1 O25 2.341 . S
Tb1 O26 2.484 . S
Tb1 O27 2.440 . S
Tb1 O28 2.658 . S
Tb1 O29 2.409 . S
Tb1 O30 2.378 . S
C2 Tb0 2.809 . S
C2 C3 1.514 . S
C2 O20 1.248 . S
C2 O21 1.266 . S
C3 C2 1.514 . S
C3 C4 1.359 . S
C3 C8 1.348 . S
C4 C3 1.359 . S
C4 C5 1.380 . S
C4 H32 0.929 . S
C5 C4 1.380 . S
C5 C6 1.347 . S
C5 H33 0.931 . S
C6 C5 1.347 . S
C6 C7 1.369 . S
C7 C6 1.369 . S
C7 C8 1.408 . S
C7 H34 0.930 . S
C8 C3 1.348 . S
C8 C7 1.408 . S
C8 H35 0.930 . S
C9 O22 1.281 . S
C9 O23 1.254 . S
C10 O24 1.236 . S
C10 O25 1.266 . S
C11 Tb1 2.809 . S
C11 C12 1.514 . S
C11 O26 1.248 . S
C11 O27 1.266 . S
C12 C11 1.514 . S
C12 C13 1.359 . S
C12 C17 1.348 . S
C13 C12 1.359 . S
C13 C14 1.380 . S
C13 H36 0.929 . S
C14 C13 1.380 . S
C14 C15 1.347 . S
C14 H37 0.931 . S
C15 C14 1.347 . S
C15 C16 1.369 . S
C16 C15 1.369 . S
C16 C17 1.408 . S
C16 H38 0.930 . S
C17 C12 1.348 . S
C17 C16 1.408 . S
C17 H39 0.930 . S
C18 O28 1.281 . S
C18 O29 1.254 . S
C19 O30 1.236 . S
C19 O31 1.266 . S
O20 Tb0 2.484 . S
O20 C2 1.248 . S
O21 Tb0 2.440 . S
O21 C2 1.266 . S
O22 Tb0 2.658 . S
O22 Tb1 2.325 . S
O22 C9 1.281 . S
O23 Tb0 2.409 . S
O23 C9 1.254 . S
O24 Tb0 2.378 . S
O24 C10 1.236 . S
O25 Tb1 2.341 . S
O25 C10 1.266 . S
O26 Tb1 2.484 . S
O26 C11 1.248 . S
O27 Tb1 2.440 . S
O27 C11 1.266 . S
O28 Tb0 2.325 . S
O28 Tb1 2.658 . S
O28 C18 1.281 . S
O29 Tb1 2.409 . S
O29 C18 1.254 . S
O30 Tb1 2.378 . S
O30 C19 1.236 . S
O31 Tb0 2.341 . S
O31 C19 1.266 . S
H32 C4 0.929 . S
H33 C5 0.931 . S
H34 C7 0.930 . S
H35 C8 0.930 . S
H36 C13 0.929 . S
H37 C14 0.931 . S
H38 C16 0.930 . S
H39 C17 0.930 . S
Tb40 C42 2.809 . S
Tb40 O60 2.484 . S
Tb40 O61 2.440 . S
Tb40 O62 2.658 . S
Tb40 O63 2.409 . S
Tb40 O64 2.378 . S
Tb40 O68 2.325 . S
Tb40 O71 2.341 . S
Tb41 C51 2.809 . S
Tb41 O62 2.325 . S
Tb41 O65 2.341 . S
Tb41 O66 2.484 . S
Tb41 O67 2.440 . S
Tb41 O68 2.658 . S
Tb41 O69 2.409 . S
Tb41 O70 2.378 . S
C42 Tb40 2.809 . S
C42 C43 1.514 . S
C42 O60 1.248 . S
C42 O61 1.266 . S
C43 C42 1.514 . S
C43 C44 1.359 . S
C43 C48 1.348 . S
C44 C43 1.359 . S
C44 C45 1.380 . S
C44 H72 0.929 . S
C45 C44 1.380 . S
C45 C46 1.347 . S
C45 H73 0.931 . S
C46 C45 1.347 . S
C46 C47 1.369 . S
C47 C46 1.369 . S
C47 C48 1.408 . S
C47 H74 0.930 . S
C48 C43 1.348 . S
C48 C47 1.408 . S
C48 H75 0.930 . S
C49 O62 1.281 . S
C49 O63 1.254 . S
C50 O64 1.236 . S
C50 O65 1.266 . S
C51 Tb41 2.809 . S
C51 C52 1.514 . S
C51 O66 1.248 . S
C51 O67 1.266 . S
C52 C51 1.514 . S
C52 C53 1.359 . S
C52 C57 1.348 . S
C53 C52 1.359 . S
C53 C54 1.380 . S
C53 H76 0.929 . S
C54 C53 1.380 . S
C54 C55 1.347 . S
C54 H77 0.931 . S
C55 C54 1.347 . S
C55 C56 1.369 . S
C56 C55 1.369 . S
C56 C57 1.408 . S
C56 H78 0.930 . S
C57 C52 1.348 . S
C57 C56 1.408 . S
C57 H79 0.930 . S
C58 O68 1.281 . S
C58 O69 1.254 . S
C59 O70 1.236 . S
C59 O71 1.266 . S
O60 Tb40 2.484 . S
O60 C42 1.248 . S
O61 Tb40 2.440 . S
O61 C42 1.266 . S
O62 Tb40 2.658 . S
O62 Tb41 2.325 . S
O62 C49 1.281 . S
O63 Tb40 2.409 . S
O63 C49 1.254 . S
O64 Tb40 2.378 . S
O64 C50 1.236 . S
O65 Tb41 2.341 . S
O65 C50 1.266 . S
O66 Tb41 2.484 . S
O66 C51 1.248 . S
O67 Tb41 2.440 . S
O67 C51 1.266 . S
O68 Tb40 2.325 . S
O68 Tb41 2.658 . S
O68 C58 1.281 . S
O69 Tb41 2.409 . S
O69 C58 1.254 . S
O70 Tb41 2.378 . S
O70 C59 1.236 . S
O71 Tb40 2.341 . S
O71 C59 1.266 . S
H72 C44 0.929 . S
H73 C45 0.931 . S
H74 C47 0.930 . S
H75 C48 0.930 . S
H76 C53 0.929 . S
H77 C54 0.931 . S
H78 C56 0.930 . S
H79 C57 0.930 . S
Tb80 C82 2.809 . S
Tb80 O100 2.484 . S
Tb80 O101 2.440 . S
Tb80 O102 2.658 . S
Tb80 O103 2.409 . S
Tb80 O104 2.378 . S
Tb80 O108 2.325 . S
Tb80 O111 2.341 . S
Tb81 C91 2.809 . S
Tb81 O102 2.325 . S
Tb81 O105 2.341 . S
Tb81 O106 2.484 . S
Tb81 O107 2.440 . S
Tb81 O108 2.658 . S
Tb81 O109 2.409 . S
Tb81 O110 2.378 . S
C82 Tb80 2.809 . S
C82 C83 1.514 . S
C82 O100 1.248 . S
C82 O101 1.266 . S
C83 C82 1.514 . S
C83 C84 1.359 . S
C83 C88 1.348 . S
C84 C83 1.359 . S
C84 C85 1.380 . S
C84 H112 0.929 . S
C85 C84 1.380 . S
C85 C86 1.347 . S
C85 H113 0.931 . S
C86 C85 1.347 . S
C86 C87 1.369 . S
C87 C86 1.369 . S
C87 C88 1.408 . S
C87 H114 0.930 . S
C88 C83 1.348 . S
C88 C87 1.408 . S
C88 H115 0.930 . S
C89 O102 1.281 . S
C89 O103 1.254 . S
C90 O104 1.236 . S
C90 O105 1.266 . S
C91 Tb81 2.809 . S
C91 C92 1.514 . S
C91 O106 1.248 . S
C91 O107 1.266 . S
C92 C91 1.514 . S
C92 C93 1.359 . S
C92 C97 1.348 . S
C93 C92 1.359 . S
C93 C94 1.380 . S
C93 H116 0.929 . S
C94 C93 1.380 . S
C94 C95 1.347 . S
C94 H117 0.931 . S
C95 C94 1.347 . S
C95 C96 1.369 . S
C96 C95 1.369 . S
C96 C97 1.408 . S
C96 H118 0.930 . S
C97 C92 1.348 . S
C97 C96 1.408 . S
C97 H119 0.930 . S
C98 O108 1.281 . S
C98 O109 1.254 . S
C99 O110 1.236 . S
C99 O111 1.266 . S
O100 Tb80 2.484 . S
O100 C82 1.248 . S
O101 Tb80 2.440 . S
O101 C82 1.266 . S
O102 Tb80 2.658 . S
O102 Tb81 2.325 . S
O102 C89 1.281 . S
O103 Tb80 2.409 . S
O103 C89 1.254 . S
O104 Tb80 2.378 . S
O104 C90 1.236 . S
O105 Tb81 2.341 . S
O105 C90 1.266 . S
O106 Tb81 2.484 . S
O106 C91 1.248 . S
O107 Tb81 2.440 . S
O107 C91 1.266 . S
O108 Tb80 2.325 . S
O108 Tb81 2.658 . S
O108 C98 1.281 . S
O109 Tb81 2.409 . S
O109 C98 1.254 . S
O110 Tb81 2.378 . S
O110 C99 1.236 . S
O111 Tb80 2.341 . S
O111 C99 1.266 . S
H112 C84 0.929 . S
H113 C85 0.931 . S
H114 C87 0.930 . S
H115 C88 0.930 . S
H116 C93 0.929 . S
H117 C94 0.931 . S
H118 C96 0.930 . S
H119 C97 0.930 . S
Tb120 C122 2.809 . S
Tb120 O140 2.484 . S
Tb120 O141 2.440 . S
Tb120 O142 2.658 . S
Tb120 O143 2.409 . S
Tb120 O144 2.378 . S
Tb120 O148 2.325 . S
Tb120 O151 2.341 . S
Tb121 C131 2.809 . S
Tb121 O142 2.325 . S
Tb121 O145 2.341 . S
Tb121 O146 2.484 . S
Tb121 O147 2.440 . S
Tb121 O148 2.658 . S
Tb121 O149 2.409 . S
Tb121 O150 2.378 . S
C122 Tb120 2.809 . S
C122 C123 1.514 . S
C122 O140 1.248 . S
C122 O141 1.266 . S
C123 C122 1.514 . S
C123 C124 1.359 . S
C123 C128 1.348 . S
C124 C123 1.359 . S
C124 C125 1.380 . S
C124 H152 0.929 . S
C125 C124 1.380 . S
C125 C126 1.347 . S
C125 H153 0.931 . S
C126 C125 1.347 . S
C126 C127 1.369 . S
C127 C126 1.369 . S
C127 C128 1.408 . S
C127 H154 0.930 . S
C128 C123 1.348 . S
C128 C127 1.408 . S
C128 H155 0.930 . S
C129 O142 1.281 . S
C129 O143 1.254 . S
C130 O144 1.236 . S
C130 O145 1.266 . S
C131 Tb121 2.809 . S
C131 C132 1.514 . S
C131 O146 1.248 . S
C131 O147 1.266 . S
C132 C131 1.514 . S
C132 C133 1.359 . S
C132 C137 1.348 . S
C133 C132 1.359 . S
C133 C134 1.380 . S
C133 H156 0.929 . S
C134 C133 1.380 . S
C134 C135 1.347 . S
C134 H157 0.931 . S
C135 C134 1.347 . S
C135 C136 1.369 . S
C136 C135 1.369 . S
C136 C137 1.408 . S
C136 H158 0.930 . S
C137 C132 1.348 . S
C137 C136 1.408 . S
C137 H159 0.930 . S
C138 O148 1.281 . S
C138 O149 1.254 . S
C139 O150 1.236 . S
C139 O151 1.266 . S
O140 Tb120 2.484 . S
O140 C122 1.248 . S
O141 Tb120 2.440 . S
O141 C122 1.266 . S
O142 Tb120 2.658 . S
O142 Tb121 2.325 . S
O142 C129 1.281 . S
O143 Tb120 2.409 . S
O143 C129 1.254 . S
O144 Tb120 2.378 . S
O144 C130 1.236 . S
O145 Tb121 2.341 . S
O145 C130 1.266 . S
O146 Tb121 2.484 . S
O146 C131 1.248 . S
O147 Tb121 2.440 . S
O147 C131 1.266 . S
O148 Tb120 2.325 . S
O148 Tb121 2.658 . S
O148 C138 1.281 . S
O149 Tb121 2.409 . S
O149 C138 1.254 . S
O150 Tb121 2.378 . S
O150 C139 1.236 . S
O151 Tb120 2.341 . S
O151 C139 1.266 . S
H152 C124 0.929 . S
H153 C125 0.931 . S
H154 C127 0.930 . S
H155 C128 0.930 . S
H156 C133 0.929 . S
H157 C134 0.931 . S
H158 C136 0.930 . S
H159 C137 0.930 . S
Tb160 C162 2.809 . S
Tb160 O180 2.484 . S
Tb160 O181 2.440 . S
Tb160 O182 2.658 . S
Tb160 O183 2.409 . S
Tb160 O184 2.378 . S
Tb160 O188 2.325 . S
Tb160 O191 2.341 . S
Tb161 C171 2.809 . S
Tb161 O182 2.325 . S
Tb161 O185 2.341 . S
Tb161 O186 2.484 . S
Tb161 O187 2.440 . S
Tb161 O188 2.658 . S
Tb161 O189 2.409 . S
Tb161 O190 2.378 . S
C162 Tb160 2.809 . S
C162 C163 1.514 . S
C162 O180 1.248 . S
C162 O181 1.266 . S
C163 C162 1.514 . S
C163 C164 1.359 . S
C163 C168 1.348 . S
C164 C163 1.359 . S
C164 C165 1.380 . S
C164 H192 0.929 . S
C165 C164 1.380 . S
C165 C166 1.347 . S
C165 H193 0.931 . S
C166 C165 1.347 . S
C166 C167 1.369 . S
C167 C166 1.369 . S
C167 C168 1.408 . S
C167 H194 0.930 . S
C168 C163 1.348 . S
C168 C167 1.408 . S
C168 H195 0.930 . S
C169 O182 1.281 . S
C169 O183 1.254 . S
C170 O184 1.236 . S
C170 O185 1.266 . S
C171 Tb161 2.809 . S
C171 C172 1.514 . S
C171 O186 1.248 . S
C171 O187 1.266 . S
C172 C171 1.514 . S
C172 C173 1.359 . S
C172 C177 1.348 . S
C173 C172 1.359 . S
C173 C174 1.380 . S
C173 H196 0.929 . S
C174 C173 1.380 . S
C174 C175 1.347 . S
C174 H197 0.931 . S
C175 C174 1.347 . S
C175 C176 1.369 . S
C176 C175 1.369 . S
C176 C177 1.408 . S
C176 H198 0.930 . S
C177 C172 1.348 . S
C177 C176 1.408 . S
C177 H199 0.930 . S
C178 O188 1.281 . S
C178 O189 1.254 . S
C179 O190 1.236 . S
C179 O191 1.266 . S
O180 Tb160 2.484 . S
O180 C162 1.248 . S
O181 Tb160 2.440 . S
O181 C162 1.266 . S
O182 Tb160 2.658 . S
O182 Tb161 2.325 . S
O182 C169 1.281 . S
O183 Tb160 2.409 . S
O183 C169 1.254 . S
O184 Tb160 2.378 . S
O184 C170 1.236 . S
O185 Tb161 2.341 . S
O185 C170 1.266 . S
O186 Tb161 2.484 . S
O186 C171 1.248 . S
O187 Tb161 2.440 . S
O187 C171 1.266 . S
O188 Tb160 2.325 . S
O188 Tb161 2.658 . S
O188 C178 1.281 . S
O189 Tb161 2.409 . S
O189 C178 1.254 . S
O190 Tb161 2.378 . S
O190 C179 1.236 . S
O191 Tb160 2.341 . S
O191 C179 1.266 . S
H192 C164 0.929 . S
H193 C165 0.931 . S
H194 C167 0.930 . S
H195 C168 0.930 . S
H196 C173 0.929 . S
H197 C174 0.931 . S
H198 C176 0.930 . S
H199 C177 0.930 . S
Tb200 C202 2.809 . S
Tb200 O220 2.484 . S
Tb200 O221 2.440 . S
Tb200 O222 2.658 . S
Tb200 O223 2.409 . S
Tb200 O224 2.378 . S
Tb200 O228 2.325 . S
Tb200 O231 2.341 . S
Tb201 C211 2.809 . S
Tb201 O222 2.325 . S
Tb201 O225 2.341 . S
Tb201 O226 2.484 . S
Tb201 O227 2.440 . S
Tb201 O228 2.658 . S
Tb201 O229 2.409 . S
Tb201 O230 2.378 . S
C202 Tb200 2.809 . S
C202 C203 1.514 . S
C202 O220 1.248 . S
C202 O221 1.266 . S
C203 C202 1.514 . S
C203 C204 1.359 . S
C203 C208 1.348 . S
C204 C203 1.359 . S
C204 C205 1.380 . S
C204 H232 0.929 . S
C205 C204 1.380 . S
C205 C206 1.347 . S
C205 H233 0.931 . S
C206 C205 1.347 . S
C206 C207 1.369 . S
C207 C206 1.369 . S
C207 C208 1.408 . S
C207 H234 0.930 . S
C208 C203 1.348 . S
C208 C207 1.408 . S
C208 H235 0.930 . S
C209 O222 1.281 . S
C209 O223 1.254 . S
C210 O224 1.236 . S
C210 O225 1.266 . S
C211 Tb201 2.809 . S
C211 C212 1.514 . S
C211 O226 1.248 . S
C211 O227 1.266 . S
C212 C211 1.514 . S
C212 C213 1.359 . S
C212 C217 1.348 . S
C213 C212 1.359 . S
C213 C214 1.380 . S
C213 H236 0.929 . S
C214 C213 1.380 . S
C214 C215 1.347 . S
C214 H237 0.931 . S
C215 C214 1.347 . S
C215 C216 1.369 . S
C216 C215 1.369 . S
C216 C217 1.408 . S
C216 H238 0.930 . S
C217 C212 1.348 . S
C217 C216 1.408 . S
C217 H239 0.930 . S
C218 O228 1.281 . S
C218 O229 1.254 . S
C219 O230 1.236 . S
C219 O231 1.266 . S
O220 Tb200 2.484 . S
O220 C202 1.248 . S
O221 Tb200 2.440 . S
O221 C202 1.266 . S
O222 Tb200 2.658 . S
O222 Tb201 2.325 . S
O222 C209 1.281 . S
O223 Tb200 2.409 . S
O223 C209 1.254 . S
O224 Tb200 2.378 . S
O224 C210 1.236 . S
O225 Tb201 2.341 . S
O225 C210 1.266 . S
O226 Tb201 2.484 . S
O226 C211 1.248 . S
O227 Tb201 2.440 . S
O227 C211 1.266 . S
O228 Tb200 2.325 . S
O228 Tb201 2.658 . S
O228 C218 1.281 . S
O229 Tb201 2.409 . S
O229 C218 1.254 . S
O230 Tb201 2.378 . S
O230 C219 1.236 . S
O231 Tb200 2.341 . S
O231 C219 1.266 . S
H232 C204 0.929 . S
H233 C205 0.931 . S
H234 C207 0.930 . S
H235 C208 0.930 . S
H236 C213 0.929 . S
H237 C214 0.931 . S
H238 C216 0.930 . S
H239 C217 0.930 . S
Tb240 C242 2.809 . S
Tb240 O260 2.484 . S
Tb240 O261 2.440 . S
Tb240 O262 2.658 . S
Tb240 O263 2.409 . S
Tb240 O264 2.378 . S
Tb240 O268 2.325 . S
Tb240 O271 2.341 . S
Tb241 C251 2.809 . S
Tb241 O262 2.325 . S
Tb241 O265 2.341 . S
Tb241 O266 2.484 . S
Tb241 O267 2.440 . S
Tb241 O268 2.658 . S
Tb241 O269 2.409 . S
Tb241 O270 2.378 . S
C242 Tb240 2.809 . S
C242 C243 1.514 . S
C242 O260 1.248 . S
C242 O261 1.266 . S
C243 C242 1.514 . S
C243 C244 1.359 . S
C243 C248 1.348 . S
C244 C243 1.359 . S
C244 C245 1.380 . S
C244 H272 0.929 . S
C245 C244 1.380 . S
C245 C246 1.347 . S
C245 H273 0.931 . S
C246 C245 1.347 . S
C246 C247 1.369 . S
C247 C246 1.369 . S
C247 C248 1.408 . S
C247 H274 0.930 . S
C248 C243 1.348 . S
C248 C247 1.408 . S
C248 H275 0.930 . S
C249 O262 1.281 . S
C249 O263 1.254 . S
C250 O264 1.236 . S
C250 O265 1.266 . S
C251 Tb241 2.809 . S
C251 C252 1.514 . S
C251 O266 1.248 . S
C251 O267 1.266 . S
C252 C251 1.514 . S
C252 C253 1.359 . S
C252 C257 1.348 . S
C253 C252 1.359 . S
C253 C254 1.380 . S
C253 H276 0.929 . S
C254 C253 1.380 . S
C254 C255 1.347 . S
C254 H277 0.931 . S
C255 C254 1.347 . S
C255 C256 1.369 . S
C256 C255 1.369 . S
C256 C257 1.408 . S
C256 H278 0.930 . S
C257 C252 1.348 . S
C257 C256 1.408 . S
C257 H279 0.930 . S
C258 O268 1.281 . S
C258 O269 1.254 . S
C259 O270 1.236 . S
C259 O271 1.266 . S
O260 Tb240 2.484 . S
O260 C242 1.248 . S
O261 Tb240 2.440 . S
O261 C242 1.266 . S
O262 Tb240 2.658 . S
O262 Tb241 2.325 . S
O262 C249 1.281 . S
O263 Tb240 2.409 . S
O263 C249 1.254 . S
O264 Tb240 2.378 . S
O264 C250 1.236 . S
O265 Tb241 2.341 . S
O265 C250 1.266 . S
O266 Tb241 2.484 . S
O266 C251 1.248 . S
O267 Tb241 2.440 . S
O267 C251 1.266 . S
O268 Tb240 2.325 . S
O268 Tb241 2.658 . S
O268 C258 1.281 . S
O269 Tb241 2.409 . S
O269 C258 1.254 . S
O270 Tb241 2.378 . S
O270 C259 1.236 . S
O271 Tb240 2.341 . S
O271 C259 1.266 . S
H272 C244 0.929 . S
H273 C245 0.931 . S
H274 C247 0.930 . S
H275 C248 0.930 . S
H276 C253 0.929 . S
H277 C254 0.931 . S
H278 C256 0.930 . S
H279 C257 0.930 . S
Tb280 C282 2.809 . S
Tb280 O300 2.484 . S
Tb280 O301 2.440 . S
Tb280 O302 2.658 . S
Tb280 O303 2.409 . S
Tb280 O304 2.378 . S
Tb280 O308 2.325 . S
Tb280 O311 2.341 . S
Tb281 C291 2.809 . S
Tb281 O302 2.325 . S
Tb281 O305 2.341 . S
Tb281 O306 2.484 . S
Tb281 O307 2.440 . S
Tb281 O308 2.658 . S
Tb281 O309 2.409 . S
Tb281 O310 2.378 . S
C282 Tb280 2.809 . S
C282 C283 1.514 . S
C282 O300 1.248 . S
C282 O301 1.266 . S
C283 C282 1.514 . S
C283 C284 1.359 . S
C283 C288 1.348 . S
C284 C283 1.359 . S
C284 C285 1.380 . S
C284 H312 0.929 . S
C285 C284 1.380 . S
C285 C286 1.347 . S
C285 H313 0.931 . S
C286 C285 1.347 . S
C286 C287 1.369 . S
C287 C286 1.369 . S
C287 C288 1.408 . S
C287 H314 0.930 . S
C288 C283 1.348 . S
C288 C287 1.408 . S
C288 H315 0.930 . S
C289 O302 1.281 . S
C289 O303 1.254 . S
C290 O304 1.236 . S
C290 O305 1.266 . S
C291 Tb281 2.809 . S
C291 C292 1.514 . S
C291 O306 1.248 . S
C291 O307 1.266 . S
C292 C291 1.514 . S
C292 C293 1.359 . S
C292 C297 1.348 . S
C293 C292 1.359 . S
C293 C294 1.380 . S
C293 H316 0.929 . S
C294 C293 1.380 . S
C294 C295 1.347 . S
C294 H317 0.931 . S
C295 C294 1.347 . S
C295 C296 1.369 . S
C296 C295 1.369 . S
C296 C297 1.408 . S
C296 H318 0.930 . S
C297 C292 1.348 . S
C297 C296 1.408 . S
C297 H319 0.930 . S
C298 O308 1.281 . S
C298 O309 1.254 . S
C299 O310 1.236 . S
C299 O311 1.266 . S
O300 Tb280 2.484 . S
O300 C282 1.248 . S
O301 Tb280 2.440 . S
O301 C282 1.266 . S
O302 Tb280 2.658 . S
O302 Tb281 2.325 . S
O302 C289 1.281 . S
O303 Tb280 2.409 . S
O303 C289 1.254 . S
O304 Tb280 2.378 . S
O304 C290 1.236 . S
O305 Tb281 2.341 . S
O305 C290 1.266 . S
O306 Tb281 2.484 . S
O306 C291 1.248 . S
O307 Tb281 2.440 . S
O307 C291 1.266 . S
O308 Tb280 2.325 . S
O308 Tb281 2.658 . S
O308 C298 1.281 . S
O309 Tb281 2.409 . S
O309 C298 1.254 . S
O310 Tb281 2.378 . S
O310 C299 1.236 . S
O311 Tb280 2.341 . S
O311 C299 1.266 . S
H312 C284 0.929 . S
H313 C285 0.931 . S
H314 C287 0.930 . S
H315 C288 0.930 . S
H316 C293 0.929 . S
H317 C294 0.931 . S
H318 C296 0.930 . S
H319 C297 0.930 . S
Tb320 C322 2.809 . S
Tb320 O340 2.484 . S
Tb320 O341 2.440 . S
Tb320 O342 2.658 . S
Tb320 O343 2.409 . S
Tb320 O344 2.378 . S
Tb320 O348 2.325 . S
Tb320 O351 2.341 . S
Tb321 C331 2.809 . S
Tb321 O342 2.325 . S
Tb321 O345 2.341 . S
Tb321 O346 2.484 . S
Tb321 O347 2.440 . S
Tb321 O348 2.658 . S
Tb321 O349 2.409 . S
Tb321 O350 2.378 . S
C322 Tb320 2.809 . S
C322 C323 1.514 . S
C322 O340 1.248 . S
C322 O341 1.266 . S
C323 C322 1.514 . S
C323 C324 1.359 . S
C323 C328 1.348 . S
C324 C323 1.359 . S
C324 C325 1.380 . S
C324 H352 0.929 . S
C325 C324 1.380 . S
C325 C326 1.347 . S
C325 H353 0.931 . S
C326 C325 1.347 . S
C326 C327 1.369 . S
C327 C326 1.369 . S
C327 C328 1.408 . S
C327 H354 0.930 . S
C328 C323 1.348 . S
C328 C327 1.408 . S
C328 H355 0.930 . S
C329 O342 1.281 . S
C329 O343 1.254 . S
C330 O344 1.236 . S
C330 O345 1.266 . S
C331 Tb321 2.809 . S
C331 C332 1.514 . S
C331 O346 1.248 . S
C331 O347 1.266 . S
C332 C331 1.514 . S
C332 C333 1.359 . S
C332 C337 1.348 . S
C333 C332 1.359 . S
C333 C334 1.380 . S
C333 H356 0.929 . S
C334 C333 1.380 . S
C334 C335 1.347 . S
C334 H357 0.931 . S
C335 C334 1.347 . S
C335 C336 1.369 . S
C336 C335 1.369 . S
C336 C337 1.408 . S
C336 H358 0.930 . S
C337 C332 1.348 . S
C337 C336 1.408 . S
C337 H359 0.930 . S
C338 O348 1.281 . S
C338 O349 1.254 . S
C339 O350 1.236 . S
C339 O351 1.266 . S
O340 Tb320 2.484 . S
O340 C322 1.248 . S
O341 Tb320 2.440 . S
O341 C322 1.266 . S
O342 Tb320 2.658 . S
O342 Tb321 2.325 . S
O342 C329 1.281 . S
O343 Tb320 2.409 . S
O343 C329 1.254 . S
O344 Tb320 2.378 . S
O344 C330 1.236 . S
O345 Tb321 2.341 . S
O345 C330 1.266 . S
O346 Tb321 2.484 . S
O346 C331 1.248 . S
O347 Tb321 2.440 . S
O347 C331 1.266 . S
O348 Tb320 2.325 . S
O348 Tb321 2.658 . S
O348 C338 1.281 . S
O349 Tb321 2.409 . S
O349 C338 1.254 . S
O350 Tb321 2.378 . S
O350 C339 1.236 . S
O351 Tb320 2.341 . S
O351 C339 1.266 . S
H352 C324 0.929 . S
H353 C325 0.931 . S
H354 C327 0.930 . S
H355 C328 0.930 . S
H356 C333 0.929 . S
H357 C334 0.931 . S
H358 C336 0.930 . S
H359 C337 0.930 . S
Tb360 C362 2.809 . S
Tb360 O380 2.484 . S
Tb360 O381 2.440 . S
Tb360 O382 2.658 . S
Tb360 O383 2.409 . S
Tb360 O384 2.378 . S
Tb360 O388 2.325 . S
Tb360 O391 2.341 . S
Tb361 C371 2.809 . S
Tb361 O382 2.325 . S
Tb361 O385 2.341 . S
Tb361 O386 2.484 . S
Tb361 O387 2.440 . S
Tb361 O388 2.658 . S
Tb361 O389 2.409 . S
Tb361 O390 2.378 . S
C362 Tb360 2.809 . S
C362 C363 1.514 . S
C362 O380 1.248 . S
C362 O381 1.266 . S
C363 C362 1.514 . S
C363 C364 1.359 . S
C363 C368 1.348 . S
C364 C363 1.359 . S
C364 C365 1.380 . S
C364 H392 0.929 . S
C365 C364 1.380 . S
C365 C366 1.347 . S
C365 H393 0.931 . S
C366 C365 1.347 . S
C366 C367 1.369 . S
C367 C366 1.369 . S
C367 C368 1.408 . S
C367 H394 0.930 . S
C368 C363 1.348 . S
C368 C367 1.408 . S
C368 H395 0.930 . S
C369 O382 1.281 . S
C369 O383 1.254 . S
C370 O384 1.236 . S
C370 O385 1.266 . S
C371 Tb361 2.809 . S
C371 C372 1.514 . S
C371 O386 1.248 . S
C371 O387 1.266 . S
C372 C371 1.514 . S
C372 C373 1.359 . S
C372 C377 1.348 . S
C373 C372 1.359 . S
C373 C374 1.380 . S
C373 H396 0.929 . S
C374 C373 1.380 . S
C374 C375 1.347 . S
C374 H397 0.931 . S
C375 C374 1.347 . S
C375 C376 1.369 . S
C376 C375 1.369 . S
C376 C377 1.408 . S
C376 H398 0.930 . S
C377 C372 1.348 . S
C377 C376 1.408 . S
C377 H399 0.930 . S
C378 O388 1.281 . S
C378 O389 1.254 . S
C379 O390 1.236 . S
C379 O391 1.266 . S
O380 Tb360 2.484 . S
O380 C362 1.248 . S
O381 Tb360 2.440 . S
O381 C362 1.266 . S
O382 Tb360 2.658 . S
O382 Tb361 2.325 . S
O382 C369 1.281 . S
O383 Tb360 2.409 . S
O383 C369 1.254 . S
O384 Tb360 2.378 . S
O384 C370 1.236 . S
O385 Tb361 2.341 . S
O385 C370 1.266 . S
O386 Tb361 2.484 . S
O386 C371 1.248 . S
O387 Tb361 2.440 . S
O387 C371 1.266 . S
O388 Tb360 2.325 . S
O388 Tb361 2.658 . S
O388 C378 1.281 . S
O389 Tb361 2.409 . S
O389 C378 1.254 . S
O390 Tb361 2.378 . S
O390 C379 1.236 . S
O391 Tb360 2.341 . S
O391 C379 1.266 . S
H392 C364 0.929 . S
H393 C365 0.931 . S
H394 C367 0.930 . S
H395 C368 0.930 . S
H396 C373 0.929 . S
H397 C374 0.931 . S
H398 C376 0.930 . S
H399 C377 0.930 . S
Tb400 C402 2.809 . S
Tb400 O420 2.484 . S
Tb400 O421 2.440 . S
Tb400 O422 2.658 . S
Tb400 O423 2.409 . S
Tb400 O424 2.378 . S
Tb400 O428 2.325 . S
Tb400 O431 2.341 . S
Tb401 C411 2.809 . S
Tb401 O422 2.325 . S
Tb401 O425 2.341 . S
Tb401 O426 2.484 . S
Tb401 O427 2.440 . S
Tb401 O428 2.658 . S
Tb401 O429 2.409 . S
Tb401 O430 2.378 . S
C402 Tb400 2.809 . S
C402 C403 1.514 . S
C402 O420 1.248 . S
C402 O421 1.266 . S
C403 C402 1.514 . S
C403 C404 1.359 . S
C403 C408 1.348 . S
C404 C403 1.359 . S
C404 C405 1.380 . S
C404 H432 0.929 . S
C405 C404 1.380 . S
C405 C406 1.347 . S
C405 H433 0.931 . S
C406 C405 1.347 . S
C406 C407 1.369 . S
C407 C406 1.369 . S
C407 C408 1.408 . S
C407 H434 0.930 . S
C408 C403 1.348 . S
C408 C407 1.408 . S
C408 H435 0.930 . S
C409 O422 1.281 . S
C409 O423 1.254 . S
C410 O424 1.236 . S
C410 O425 1.266 . S
C411 Tb401 2.809 . S
C411 C412 1.514 . S
C411 O426 1.248 . S
C411 O427 1.266 . S
C412 C411 1.514 . S
C412 C413 1.359 . S
C412 C417 1.348 . S
C413 C412 1.359 . S
C413 C414 1.380 . S
C413 H436 0.929 . S
C414 C413 1.380 . S
C414 C415 1.347 . S
C414 H437 0.931 . S
C415 C414 1.347 . S
C415 C416 1.369 . S
C416 C415 1.369 . S
C416 C417 1.408 . S
C416 H438 0.930 . S
C417 C412 1.348 . S
C417 C416 1.408 . S
C417 H439 0.930 . S
C418 O428 1.281 . S
C418 O429 1.254 . S
C419 O430 1.236 . S
C419 O431 1.266 . S
O420 Tb400 2.484 . S
O420 C402 1.248 . S
O421 Tb400 2.440 . S
O421 C402 1.266 . S
O422 Tb400 2.658 . S
O422 Tb401 2.325 . S
O422 C409 1.281 . S
O423 Tb400 2.409 . S
O423 C409 1.254 . S
O424 Tb400 2.378 . S
O424 C410 1.236 . S
O425 Tb401 2.341 . S
O425 C410 1.266 . S
O426 Tb401 2.484 . S
O426 C411 1.248 . S
O427 Tb401 2.440 . S
O427 C411 1.266 . S
O428 Tb400 2.325 . S
O428 Tb401 2.658 . S
O428 C418 1.281 . S
O429 Tb401 2.409 . S
O429 C418 1.254 . S
O430 Tb401 2.378 . S
O430 C419 1.236 . S
O431 Tb400 2.341 . S
O431 C419 1.266 . S
H432 C404 0.929 . S
H433 C405 0.931 . S
H434 C407 0.930 . S
H435 C408 0.930 . S
H436 C413 0.929 . S
H437 C414 0.931 . S
H438 C416 0.930 . S
H439 C417 0.930 . S
Tb440 C442 2.809 . S
Tb440 O460 2.484 . S
Tb440 O461 2.440 . S
Tb440 O462 2.658 . S
Tb440 O463 2.409 . S
Tb440 O464 2.378 . S
Tb440 O468 2.325 . S
Tb440 O471 2.341 . S
Tb441 C451 2.809 . S
Tb441 O462 2.325 . S
Tb441 O465 2.341 . S
Tb441 O466 2.484 . S
Tb441 O467 2.440 . S
Tb441 O468 2.658 . S
Tb441 O469 2.409 . S
Tb441 O470 2.378 . S
C442 Tb440 2.809 . S
C442 C443 1.514 . S
C442 O460 1.248 . S
C442 O461 1.266 . S
C443 C442 1.514 . S
C443 C444 1.359 . S
C443 C448 1.348 . S
C444 C443 1.359 . S
C444 C445 1.380 . S
C444 H472 0.929 . S
C445 C444 1.380 . S
C445 C446 1.347 . S
C445 H473 0.931 . S
C446 C445 1.347 . S
C446 C447 1.369 . S
C447 C446 1.369 . S
C447 C448 1.408 . S
C447 H474 0.930 . S
C448 C443 1.348 . S
C448 C447 1.408 . S
C448 H475 0.930 . S
C449 O462 1.281 . S
C449 O463 1.254 . S
C450 O464 1.236 . S
C450 O465 1.266 . S
C451 Tb441 2.809 . S
C451 C452 1.514 . S
C451 O466 1.248 . S
C451 O467 1.266 . S
C452 C451 1.514 . S
C452 C453 1.359 . S
C452 C457 1.348 . S
C453 C452 1.359 . S
C453 C454 1.380 . S
C453 H476 0.929 . S
C454 C453 1.380 . S
C454 C455 1.347 . S
C454 H477 0.931 . S
C455 C454 1.347 . S
C455 C456 1.369 . S
C456 C455 1.369 . S
C456 C457 1.408 . S
C456 H478 0.930 . S
C457 C452 1.348 . S
C457 C456 1.408 . S
C457 H479 0.930 . S
C458 O468 1.281 . S
C458 O469 1.254 . S
C459 O470 1.236 . S
C459 O471 1.266 . S
O460 Tb440 2.484 . S
O460 C442 1.248 . S
O461 Tb440 2.440 . S
O461 C442 1.266 . S
O462 Tb440 2.658 . S
O462 Tb441 2.325 . S
O462 C449 1.281 . S
O463 Tb440 2.409 . S
O463 C449 1.254 . S
O464 Tb440 2.378 . S
O464 C450 1.236 . S
O465 Tb441 2.341 . S
O465 C450 1.266 . S
O466 Tb441 2.484 . S
O466 C451 1.248 . S
O467 Tb441 2.440 . S
O467 C451 1.266 . S
O468 Tb440 2.325 . S
O468 Tb441 2.658 . S
O468 C458 1.281 . S
O469 Tb441 2.409 . S
O469 C458 1.254 . S
O470 Tb441 2.378 . S
O470 C459 1.236 . S
O471 Tb440 2.341 . S
O471 C459 1.266 . S
H472 C444 0.929 . S
H473 C445 0.931 . S
H474 C447 0.930 . S
H475 C448 0.930 . S
H476 C453 0.929 . S
H477 C454 0.931 . S
H478 C456 0.930 . S
H479 C457 0.930 . S
Tb480 C482 2.809 . S
Tb480 O500 2.484 . S
Tb480 O501 2.440 . S
Tb480 O502 2.658 . S
Tb480 O503 2.409 . S
Tb480 O504 2.378 . S
Tb480 O508 2.325 . S
Tb480 O511 2.341 . S
Tb481 C491 2.809 . S
Tb481 O502 2.325 . S
Tb481 O505 2.341 . S
Tb481 O506 2.484 . S
Tb481 O507 2.440 . S
Tb481 O508 2.658 . S
Tb481 O509 2.409 . S
Tb481 O510 2.378 . S
C482 Tb480 2.809 . S
C482 C483 1.514 . S
C482 O500 1.248 . S
C482 O501 1.266 . S
C483 C482 1.514 . S
C483 C484 1.359 . S
C483 C488 1.348 . S
C484 C483 1.359 . S
C484 C485 1.380 . S
C484 H512 0.929 . S
C485 C484 1.380 . S
C485 C486 1.347 . S
C485 H513 0.931 . S
C486 C485 1.347 . S
C486 C487 1.369 . S
C487 C486 1.369 . S
C487 C488 1.408 . S
C487 H514 0.930 . S
C488 C483 1.348 . S
C488 C487 1.408 . S
C488 H515 0.930 . S
C489 O502 1.281 . S
C489 O503 1.254 . S
C490 O504 1.236 . S
C490 O505 1.266 . S
C491 Tb481 2.809 . S
C491 C492 1.514 . S
C491 O506 1.248 . S
C491 O507 1.266 . S
C492 C491 1.514 . S
C492 C493 1.359 . S
C492 C497 1.348 . S
C493 C492 1.359 . S
C493 C494 1.380 . S
C493 H516 0.929 . S
C494 C493 1.380 . S
C494 C495 1.347 . S
C494 H517 0.931 . S
C495 C494 1.347 . S
C495 C496 1.369 . S
C496 C495 1.369 . S
C496 C497 1.408 . S
C496 H518 0.930 . S
C497 C492 1.348 . S
C497 C496 1.408 . S
C497 H519 0.930 . S
C498 O508 1.281 . S
C498 O509 1.254 . S
C499 O510 1.236 . S
C499 O511 1.266 . S
O500 Tb480 2.484 . S
O500 C482 1.248 . S
O501 Tb480 2.440 . S
O501 C482 1.266 . S
O502 Tb480 2.658 . S
O502 Tb481 2.325 . S
O502 C489 1.281 . S
O503 Tb480 2.409 . S
O503 C489 1.254 . S
O504 Tb480 2.378 . S
O504 C490 1.236 . S
O505 Tb481 2.341 . S
O505 C490 1.266 . S
O506 Tb481 2.484 . S
O506 C491 1.248 . S
O507 Tb481 2.440 . S
O507 C491 1.266 . S
O508 Tb480 2.325 . S
O508 Tb481 2.658 . S
O508 C498 1.281 . S
O509 Tb481 2.409 . S
O509 C498 1.254 . S
O510 Tb481 2.378 . S
O510 C499 1.236 . S
O511 Tb480 2.341 . S
O511 C499 1.266 . S
H512 C484 0.929 . S
H513 C485 0.931 . S
H514 C487 0.930 . S
H515 C488 0.930 . S
H516 C493 0.929 . S
H517 C494 0.931 . S
H518 C496 0.930 . S
H519 C497 0.930 . S
Tb520 C522 2.809 . S
Tb520 O540 2.484 . S
Tb520 O541 2.440 . S
Tb520 O542 2.658 . S
Tb520 O543 2.409 . S
Tb520 O544 2.378 . S
Tb520 O548 2.325 . S
Tb520 O551 2.341 . S
Tb521 C531 2.809 . S
Tb521 O542 2.325 . S
Tb521 O545 2.341 . S
Tb521 O546 2.484 . S
Tb521 O547 2.440 . S
Tb521 O548 2.658 . S
Tb521 O549 2.409 . S
Tb521 O550 2.378 . S
C522 Tb520 2.809 . S
C522 C523 1.514 . S
C522 O540 1.248 . S
C522 O541 1.266 . S
C523 C522 1.514 . S
C523 C524 1.359 . S
C523 C528 1.348 . S
C524 C523 1.359 . S
C524 C525 1.380 . S
C524 H552 0.929 . S
C525 C524 1.380 . S
C525 C526 1.347 . S
C525 H553 0.931 . S
C526 C525 1.347 . S
C526 C527 1.369 . S
C527 C526 1.369 . S
C527 C528 1.408 . S
C527 H554 0.930 . S
C528 C523 1.348 . S
C528 C527 1.408 . S
C528 H555 0.930 . S
C529 O542 1.281 . S
C529 O543 1.254 . S
C530 O544 1.236 . S
C530 O545 1.266 . S
C531 Tb521 2.809 . S
C531 C532 1.514 . S
C531 O546 1.248 . S
C531 O547 1.266 . S
C532 C531 1.514 . S
C532 C533 1.359 . S
C532 C537 1.348 . S
C533 C532 1.359 . S
C533 C534 1.380 . S
C533 H556 0.929 . S
C534 C533 1.380 . S
C534 C535 1.347 . S
C534 H557 0.931 . S
C535 C534 1.347 . S
C535 C536 1.369 . S
C536 C535 1.369 . S
C536 C537 1.408 . S
C536 H558 0.930 . S
C537 C532 1.348 . S
C537 C536 1.408 . S
C537 H559 0.930 . S
C538 O548 1.281 . S
C538 O549 1.254 . S
C539 O550 1.236 . S
C539 O551 1.266 . S
O540 Tb520 2.484 . S
O540 C522 1.248 . S
O541 Tb520 2.440 . S
O541 C522 1.266 . S
O542 Tb520 2.658 . S
O542 Tb521 2.325 . S
O542 C529 1.281 . S
O543 Tb520 2.409 . S
O543 C529 1.254 . S
O544 Tb520 2.378 . S
O544 C530 1.236 . S
O545 Tb521 2.341 . S
O545 C530 1.266 . S
O546 Tb521 2.484 . S
O546 C531 1.248 . S
O547 Tb521 2.440 . S
O547 C531 1.266 . S
O548 Tb520 2.325 . S
O548 Tb521 2.658 . S
O548 C538 1.281 . S
O549 Tb521 2.409 . S
O549 C538 1.254 . S
O550 Tb521 2.378 . S
O550 C539 1.236 . S
O551 Tb520 2.341 . S
O551 C539 1.266 . S
H552 C524 0.929 . S
H553 C525 0.931 . S
H554 C527 0.930 . S
H555 C528 0.930 . S
H556 C533 0.929 . S
H557 C534 0.931 . S
H558 C536 0.930 . S
H559 C537 0.930 . S
Tb560 C562 2.809 . S
Tb560 O580 2.484 . S
Tb560 O581 2.440 . S
Tb560 O582 2.658 . S
Tb560 O583 2.409 . S
Tb560 O584 2.378 . S
Tb560 O588 2.325 . S
Tb560 O591 2.341 . S
Tb561 C571 2.809 . S
Tb561 O582 2.325 . S
Tb561 O585 2.341 . S
Tb561 O586 2.484 . S
Tb561 O587 2.440 . S
Tb561 O588 2.658 . S
Tb561 O589 2.409 . S
Tb561 O590 2.378 . S
C562 Tb560 2.809 . S
C562 C563 1.514 . S
C562 O580 1.248 . S
C562 O581 1.266 . S
C563 C562 1.514 . S
C563 C564 1.359 . S
C563 C568 1.348 . S
C564 C563 1.359 . S
C564 C565 1.380 . S
C564 H592 0.929 . S
C565 C564 1.380 . S
C565 C566 1.347 . S
C565 H593 0.931 . S
C566 C565 1.347 . S
C566 C567 1.369 . S
C567 C566 1.369 . S
C567 C568 1.408 . S
C567 H594 0.930 . S
C568 C563 1.348 . S
C568 C567 1.408 . S
C568 H595 0.930 . S
C569 O582 1.281 . S
C569 O583 1.254 . S
C570 O584 1.236 . S
C570 O585 1.266 . S
C571 Tb561 2.809 . S
C571 C572 1.514 . S
C571 O586 1.248 . S
C571 O587 1.266 . S
C572 C571 1.514 . S
C572 C573 1.359 . S
C572 C577 1.348 . S
C573 C572 1.359 . S
C573 C574 1.380 . S
C573 H596 0.929 . S
C574 C573 1.380 . S
C574 C575 1.347 . S
C574 H597 0.931 . S
C575 C574 1.347 . S
C575 C576 1.369 . S
C576 C575 1.369 . S
C576 C577 1.408 . S
C576 H598 0.930 . S
C577 C572 1.348 . S
C577 C576 1.408 . S
C577 H599 0.930 . S
C578 O588 1.281 . S
C578 O589 1.254 . S
C579 O590 1.236 . S
C579 O591 1.266 . S
O580 Tb560 2.484 . S
O580 C562 1.248 . S
O581 Tb560 2.440 . S
O581 C562 1.266 . S
O582 Tb560 2.658 . S
O582 Tb561 2.325 . S
O582 C569 1.281 . S
O583 Tb560 2.409 . S
O583 C569 1.254 . S
O584 Tb560 2.378 . S
O584 C570 1.236 . S
O585 Tb561 2.341 . S
O585 C570 1.266 . S
O586 Tb561 2.484 . S
O586 C571 1.248 . S
O587 Tb561 2.440 . S
O587 C571 1.266 . S
O588 Tb560 2.325 . S
O588 Tb561 2.658 . S
O588 C578 1.281 . S
O589 Tb561 2.409 . S
O589 C578 1.254 . S
O590 Tb561 2.378 . S
O590 C579 1.236 . S
O591 Tb560 2.341 . S
O591 C579 1.266 . S
H592 C564 0.929 . S
H593 C565 0.931 . S
H594 C567 0.930 . S
H595 C568 0.930 . S
H596 C573 0.929 . S
H597 C574 0.931 . S
H598 C576 0.930 . S
H599 C577 0.930 . S
Tb600 C602 2.809 . S
Tb600 O620 2.484 . S
Tb600 O621 2.440 . S
Tb600 O622 2.658 . S
Tb600 O623 2.409 . S
Tb600 O624 2.378 . S
Tb600 O628 2.325 . S
Tb600 O631 2.341 . S
Tb601 C611 2.809 . S
Tb601 O622 2.325 . S
Tb601 O625 2.341 . S
Tb601 O626 2.484 . S
Tb601 O627 2.440 . S
Tb601 O628 2.658 . S
Tb601 O629 2.409 . S
Tb601 O630 2.378 . S
C602 Tb600 2.809 . S
C602 C603 1.514 . S
C602 O620 1.248 . S
C602 O621 1.266 . S
C603 C602 1.514 . S
C603 C604 1.359 1_655 S
C603 C608 1.348 . S
C604 C603 1.359 1_455 S
C604 C605 1.380 . S
C604 H632 0.929 . S
C605 C604 1.380 . S
C605 C606 1.347 . S
C605 H633 0.931 . S
C606 C605 1.347 . S
C606 C607 1.369 1_455 S
C607 C606 1.369 1_655 S
C607 C608 1.408 . S
C607 H634 0.930 . S
C608 C603 1.348 . S
C608 C607 1.408 . S
C608 H635 0.930 . S
C609 O622 1.281 . S
C609 O623 1.254 . S
C610 O624 1.236 . S
C610 O625 1.266 . S
C611 Tb601 2.809 . S
C611 C612 1.514 . S
C611 O626 1.248 . S
C611 O627 1.266 . S
C612 C611 1.514 . S
C612 C613 1.359 . S
C612 C617 1.348 . S
C613 C612 1.359 . S
C613 C614 1.380 . S
C613 H636 0.929 . S
C614 C613 1.380 . S
C614 C615 1.347 . S
C614 H637 0.931 . S
C615 C614 1.347 . S
C615 C616 1.369 . S
C616 C615 1.369 . S
C616 C617 1.408 . S
C616 H638 0.930 . S
C617 C612 1.348 . S
C617 C616 1.408 . S
C617 H639 0.930 . S
C618 O628 1.281 . S
C618 O629 1.254 . S
C619 O630 1.236 . S
C619 O631 1.266 . S
O620 Tb600 2.484 . S
O620 C602 1.248 . S
O621 Tb600 2.440 . S
O621 C602 1.266 . S
O622 Tb600 2.658 . S
O622 Tb601 2.325 . S
O622 C609 1.281 . S
O623 Tb600 2.409 . S
O623 C609 1.254 . S
O624 Tb600 2.378 . S
O624 C610 1.236 . S
O625 Tb601 2.341 . S
O625 C610 1.266 . S
O626 Tb601 2.484 . S
O626 C611 1.248 . S
O627 Tb601 2.440 . S
O627 C611 1.266 . S
O628 Tb600 2.325 . S
O628 Tb601 2.658 . S
O628 C618 1.281 . S
O629 Tb601 2.409 . S
O629 C618 1.254 . S
O630 Tb601 2.378 . S
O630 C619 1.236 . S
O631 Tb600 2.341 . S
O631 C619 1.266 . S
H632 C604 0.929 . S
H633 C605 0.931 . S
H634 C607 0.930 . S
H635 C608 0.930 . S
H636 C613 0.929 . S
H637 C614 0.931 . S
H638 C616 0.930 . S
H639 C617 0.930 . S
Tb640 C642 2.809 . S
Tb640 O660 2.484 . S
Tb640 O661 2.440 . S
Tb640 O662 2.658 . S
Tb640 O663 2.409 . S
Tb640 O664 2.378 . S
Tb640 O668 2.325 . S
Tb640 O671 2.341 . S
Tb641 C651 2.809 . S
Tb641 O662 2.325 . S
Tb641 O665 2.341 . S
Tb641 O666 2.484 . S
Tb641 O667 2.440 . S
Tb641 O668 2.658 . S
Tb641 O669 2.409 . S
Tb641 O670 2.378 . S
C642 Tb640 2.809 . S
C642 C643 1.514 . S
C642 O660 1.248 . S
C642 O661 1.266 . S
C643 C642 1.514 . S
C643 C644 1.359 . S
C643 C648 1.348 . S
C644 C643 1.359 . S
C644 C645 1.380 . S
C644 H672 0.929 . S
C645 C644 1.380 . S
C645 C646 1.347 . S
C645 H673 0.931 . S
C646 C645 1.347 . S
C646 C647 1.369 . S
C647 C646 1.369 . S
C647 C648 1.408 . S
C647 H674 0.930 . S
C648 C643 1.348 . S
C648 C647 1.408 . S
C648 H675 0.930 . S
C649 O662 1.281 . S
C649 O663 1.254 . S
C650 O664 1.236 . S
C650 O665 1.266 . S
C651 Tb641 2.809 . S
C651 C652 1.514 . S
C651 O666 1.248 . S
C651 O667 1.266 . S
C652 C651 1.514 . S
C652 C653 1.359 . S
C652 C657 1.348 . S
C653 C652 1.359 . S
C653 C654 1.380 . S
C653 H676 0.929 . S
C654 C653 1.380 . S
C654 C655 1.347 . S
C654 H677 0.931 . S
C655 C654 1.347 . S
C655 C656 1.369 . S
C656 C655 1.369 . S
C656 C657 1.408 . S
C656 H678 0.930 . S
C657 C652 1.348 . S
C657 C656 1.408 . S
C657 H679 0.930 . S
C658 O668 1.281 . S
C658 O669 1.254 . S
C659 O670 1.236 . S
C659 O671 1.266 . S
O660 Tb640 2.484 . S
O660 C642 1.248 . S
O661 Tb640 2.440 . S
O661 C642 1.266 . S
O662 Tb640 2.658 . S
O662 Tb641 2.325 . S
O662 C649 1.281 . S
O663 Tb640 2.409 . S
O663 C649 1.254 . S
O664 Tb640 2.378 . S
O664 C650 1.236 . S
O665 Tb641 2.341 . S
O665 C650 1.266 . S
O666 Tb641 2.484 . S
O666 C651 1.248 . S
O667 Tb641 2.440 . S
O667 C651 1.266 . S
O668 Tb640 2.325 . S
O668 Tb641 2.658 . S
O668 C658 1.281 . S
O669 Tb641 2.409 . S
O669 C658 1.254 . S
O670 Tb641 2.378 . S
O670 C659 1.236 . S
O671 Tb640 2.341 . S
O671 C659 1.266 . S
H672 C644 0.929 . S
H673 C645 0.931 . S
H674 C647 0.930 . S
H675 C648 0.930 . S
H676 C653 0.929 . S
H677 C654 0.931 . S
H678 C656 0.930 . S
H679 C657 0.930 . S
Tb680 C682 2.809 . S
Tb680 O700 2.484 . S
Tb680 O701 2.440 . S
Tb680 O702 2.658 . S
Tb680 O703 2.409 . S
Tb680 O704 2.378 . S
Tb680 O708 2.325 . S
Tb680 O711 2.341 . S
Tb681 C691 2.809 . S
Tb681 O702 2.325 . S
Tb681 O705 2.341 . S
Tb681 O706 2.484 . S
Tb681 O707 2.440 . S
Tb681 O708 2.658 . S
Tb681 O709 2.409 . S
Tb681 O710 2.378 . S
C682 Tb680 2.809 . S
C682 C683 1.514 . S
C682 O700 1.248 . S
C682 O701 1.266 . S
C683 C682 1.514 . S
C683 C684 1.359 1_545 S
C683 C688 1.348 . S
C684 C683 1.359 1_565 S
C684 C685 1.380 . S
C684 H712 0.929 . S
C685 C684 1.380 . S
C685 C686 1.347 . S
C685 H713 0.931 . S
C686 C685 1.347 . S
C686 C687 1.369 1_565 S
C687 C686 1.369 1_545 S
C687 C688 1.408 . S
C687 H714 0.930 . S
C688 C683 1.348 . S
C688 C687 1.408 . S
C688 H715 0.930 . S
C689 O702 1.281 . S
C689 O703 1.254 . S
C690 O704 1.236 . S
C690 O705 1.266 . S
C691 Tb681 2.809 . S
C691 C692 1.514 . S
C691 O706 1.248 . S
C691 O707 1.266 . S
C692 C691 1.514 . S
C692 C693 1.359 . S
C692 C697 1.348 . S
C693 C692 1.359 . S
C693 C694 1.380 . S
C693 H716 0.929 . S
C694 C693 1.380 . S
C694 C695 1.347 . S
C694 H717 0.931 . S
C695 C694 1.347 . S
C695 C696 1.369 . S
C696 C695 1.369 . S
C696 C697 1.408 . S
C696 H718 0.930 . S
C697 C692 1.348 . S
C697 C696 1.408 . S
C697 H719 0.930 . S
C698 O708 1.281 . S
C698 O709 1.254 . S
C699 O710 1.236 . S
C699 O711 1.266 . S
O700 Tb680 2.484 . S
O700 C682 1.248 . S
O701 Tb680 2.440 . S
O701 C682 1.266 . S
O702 Tb680 2.658 . S
O702 Tb681 2.325 . S
O702 C689 1.281 . S
O703 Tb680 2.409 . S
O703 C689 1.254 . S
O704 Tb680 2.378 . S
O704 C690 1.236 . S
O705 Tb681 2.341 . S
O705 C690 1.266 . S
O706 Tb681 2.484 . S
O706 C691 1.248 . S
O707 Tb681 2.440 . S
O707 C691 1.266 . S
O708 Tb680 2.325 . S
O708 Tb681 2.658 . S
O708 C698 1.281 . S
O709 Tb681 2.409 . S
O709 C698 1.254 . S
O710 Tb681 2.378 . S
O710 C699 1.236 . S
O711 Tb680 2.341 . S
O711 C699 1.266 . S
H712 C684 0.929 . S
H713 C685 0.931 . S
H714 C687 0.930 . S
H715 C688 0.930 . S
H716 C693 0.929 . S
H717 C694 0.931 . S
H718 C696 0.930 . S
H719 C697 0.930 . S
Tb720 C722 2.809 . S
Tb720 O740 2.484 . S
Tb720 O741 2.440 . S
Tb720 O742 2.658 . S
Tb720 O743 2.409 . S
Tb720 O744 2.378 . S
Tb720 O748 2.325 . S
Tb720 O751 2.341 . S
Tb721 C731 2.809 . S
Tb721 O742 2.325 . S
Tb721 O745 2.341 . S
Tb721 O746 2.484 . S
Tb721 O747 2.440 . S
Tb721 O748 2.658 . S
Tb721 O749 2.409 . S
Tb721 O750 2.378 . S
C722 Tb720 2.809 . S
C722 C723 1.514 . S
C722 O740 1.248 . S
C722 O741 1.266 . S
C723 C722 1.514 . S
C723 C724 1.359 . S
C723 C728 1.348 . S
C724 C723 1.359 . S
C724 C725 1.380 . S
C724 H752 0.929 . S
C725 C724 1.380 . S
C725 C726 1.347 . S
C725 H753 0.931 . S
C726 C725 1.347 . S
C726 C727 1.369 . S
C727 C726 1.369 . S
C727 C728 1.408 . S
C727 H754 0.930 . S
C728 C723 1.348 . S
C728 C727 1.408 . S
C728 H755 0.930 . S
C729 O742 1.281 . S
C729 O743 1.254 . S
C730 O744 1.236 . S
C730 O745 1.266 . S
C731 Tb721 2.809 . S
C731 C732 1.514 . S
C731 O746 1.248 . S
C731 O747 1.266 . S
C732 C731 1.514 . S
C732 C733 1.359 1_545 S
C732 C737 1.348 . S
C733 C732 1.359 1_565 S
C733 C734 1.380 . S
C733 H756 0.929 . S
C734 C733 1.380 . S
C734 C735 1.347 . S
C734 H757 0.931 . S
C735 C734 1.347 . S
C735 C736 1.369 1_565 S
C736 C735 1.369 1_545 S
C736 C737 1.408 . S
C736 H758 0.930 . S
C737 C732 1.348 . S
C737 C736 1.408 . S
C737 H759 0.930 . S
C738 O748 1.281 . S
C738 O749 1.254 . S
C739 O750 1.236 . S
C739 O751 1.266 . S
O740 Tb720 2.484 . S
O740 C722 1.248 . S
O741 Tb720 2.440 . S
O741 C722 1.266 . S
O742 Tb720 2.658 . S
O742 Tb721 2.325 . S
O742 C729 1.281 . S
O743 Tb720 2.409 . S
O743 C729 1.254 . S
O744 Tb720 2.378 . S
O744 C730 1.236 . S
O745 Tb721 2.341 . S
O745 C730 1.266 . S
O746 Tb721 2.484 . S
O746 C731 1.248 . S
O747 Tb721 2.440 . S
O747 C731 1.266 . S
O748 Tb720 2.325 . S
O748 Tb721 2.658 . S
O748 C738 1.281 . S
O749 Tb721 2.409 . S
O749 C738 1.254 . S
O750 Tb721 2.378 . S
O750 C739 1.236 . S
O751 Tb720 2.341 . S
O751 C739 1.266 . S
H752 C724 0.929 . S
H753 C725 0.931 . S
H754 C727 0.930 . S
H755 C728 0.930 . S
H756 C733 0.929 . S
H757 C734 0.931 . S
H758 C736 0.930 . S
H759 C737 0.930 . S
Tb760 C762 2.809 . S
Tb760 O780 2.484 . S
Tb760 O781 2.440 . S
Tb760 O782 2.658 . S
Tb760 O783 2.409 . S
Tb760 O784 2.378 . S
Tb760 O788 2.325 . S
Tb760 O791 2.341 . S
Tb761 C771 2.809 . S
Tb761 O782 2.325 . S
Tb761 O785 2.341 . S
Tb761 O786 2.484 . S
Tb761 O787 2.440 . S
Tb761 O788 2.658 . S
Tb761 O789 2.409 . S
Tb761 O790 2.378 . S
C762 Tb760 2.809 . S
C762 C763 1.514 . S
C762 O780 1.248 . S
C762 O781 1.266 . S
C763 C762 1.514 . S
C763 C764 1.359 . S
C763 C768 1.348 . S
C764 C763 1.359 . S
C764 C765 1.380 . S
C764 H792 0.929 . S
C765 C764 1.380 . S
C765 C766 1.347 . S
C765 H793 0.931 . S
C766 C765 1.347 . S
C766 C767 1.369 . S
C767 C766 1.369 . S
C767 C768 1.408 . S
C767 H794 0.930 . S
C768 C763 1.348 . S
C768 C767 1.408 . S
C768 H795 0.930 . S
C769 O782 1.281 . S
C769 O783 1.254 . S
C770 O784 1.236 . S
C770 O785 1.266 . S
C771 Tb761 2.809 . S
C771 C772 1.514 . S
C771 O786 1.248 . S
C771 O787 1.266 . S
C772 C771 1.514 . S
C772 C773 1.359 1_655 S
C772 C777 1.348 . S
C773 C772 1.359 1_455 S
C773 C774 1.380 . S
C773 H796 0.929 . S
C774 C773 1.380 . S
C774 C775 1.347 . S
C774 H797 0.931 . S
C775 C774 1.347 . S
C775 C776 1.369 1_455 S
C776 C775 1.369 1_655 S
C776 C777 1.408 . S
C776 H798 0.930 . S
C777 C772 1.348 . S
C777 C776 1.408 . S
C777 H799 0.930 . S
C778 O788 1.281 . S
C778 O789 1.254 . S
C779 O790 1.236 . S
C779 O791 1.266 . S
O780 Tb760 2.484 . S
O780 C762 1.248 . S
O781 Tb760 2.440 . S
O781 C762 1.266 . S
O782 Tb760 2.658 . S
O782 Tb761 2.325 . S
O782 C769 1.281 . S
O783 Tb760 2.409 . S
O783 C769 1.254 . S
O784 Tb760 2.378 . S
O784 C770 1.236 . S
O785 Tb761 2.341 . S
O785 C770 1.266 . S
O786 Tb761 2.484 . S
O786 C771 1.248 . S
O787 Tb761 2.440 . S
O787 C771 1.266 . S
O788 Tb760 2.325 . S
O788 Tb761 2.658 . S
O788 C778 1.281 . S
O789 Tb761 2.409 . S
O789 C778 1.254 . S
O790 Tb761 2.378 . S
O790 C779 1.236 . S
O791 Tb760 2.341 . S
O791 C779 1.266 . S
H792 C764 0.929 . S
H793 C765 0.931 . S
H794 C767 0.930 . S
H795 C768 0.930 . S
H796 C773 0.929 . S
H797 C774 0.931 . S
H798 C776 0.930 . S
H799 C777 0.930 . S
Tb800 C802 2.809 . S
Tb800 O820 2.484 . S
Tb800 O821 2.440 . S
Tb800 O822 2.658 . S
Tb800 O823 2.409 . S
Tb800 O824 2.378 . S
Tb800 O828 2.325 . S
Tb800 O831 2.341 . S
Tb801 C811 2.809 . S
Tb801 O822 2.325 . S
Tb801 O825 2.341 . S
Tb801 O826 2.484 . S
Tb801 O827 2.440 . S
Tb801 O828 2.658 . S
Tb801 O829 2.409 . S
Tb801 O830 2.378 . S
C802 Tb800 2.809 . S
C802 C803 1.514 . S
C802 O820 1.248 . S
C802 O821 1.266 . S
C803 C802 1.514 . S
C803 C804 1.359 . S
C803 C808 1.348 . S
C804 C803 1.359 . S
C804 C805 1.380 . S
C804 H832 0.929 . S
C805 C804 1.380 . S
C805 C806 1.347 . S
C805 H833 0.931 . S
C806 C805 1.347 . S
C806 C807 1.369 . S
C807 C806 1.369 . S
C807 C808 1.408 . S
C807 H834 0.930 . S
C808 C803 1.348 . S
C808 C807 1.408 . S
C808 H835 0.930 . S
C809 O822 1.281 . S
C809 O823 1.254 . S
C810 O824 1.236 . S
C810 O825 1.266 . S
C811 Tb801 2.809 . S
C811 C812 1.514 . S
C811 O826 1.248 . S
C811 O827 1.266 . S
C812 C811 1.514 . S
C812 C813 1.359 . S
C812 C817 1.348 . S
C813 C812 1.359 . S
C813 C814 1.380 . S
C813 H836 0.929 . S
C814 C813 1.380 . S
C814 C815 1.347 . S
C814 H837 0.931 . S
C815 C814 1.347 . S
C815 C816 1.369 . S
C816 C815 1.369 . S
C816 C817 1.408 . S
C816 H838 0.930 . S
C817 C812 1.348 . S
C817 C816 1.408 . S
C817 H839 0.930 . S
C818 O828 1.281 . S
C818 O829 1.254 . S
C819 O830 1.236 . S
C819 O831 1.266 . S
O820 Tb800 2.484 . S
O820 C802 1.248 . S
O821 Tb800 2.440 . S
O821 C802 1.266 . S
O822 Tb800 2.658 . S
O822 Tb801 2.325 . S
O822 C809 1.281 . S
O823 Tb800 2.409 . S
O823 C809 1.254 . S
O824 Tb800 2.378 . S
O824 C810 1.236 . S
O825 Tb801 2.341 . S
O825 C810 1.266 . S
O826 Tb801 2.484 . S
O826 C811 1.248 . S
O827 Tb801 2.440 . S
O827 C811 1.266 . S
O828 Tb800 2.325 . S
O828 Tb801 2.658 . S
O828 C818 1.281 . S
O829 Tb801 2.409 . S
O829 C818 1.254 . S
O830 Tb801 2.378 . S
O830 C819 1.236 . S
O831 Tb800 2.341 . S
O831 C819 1.266 . S
H832 C804 0.929 . S
H833 C805 0.931 . S
H834 C807 0.930 . S
H835 C808 0.930 . S
H836 C813 0.929 . S
H837 C814 0.931 . S
H838 C816 0.930 . S
H839 C817 0.930 . S
Tb840 C842 2.809 . S
Tb840 O860 2.484 . S
Tb840 O861 2.440 . S
Tb840 O862 2.658 1_554 S
Tb840 O863 2.409 . S
Tb840 O864 2.378 . S
Tb840 O868 2.325 . S
Tb840 O871 2.341 . S
Tb841 C851 2.809 . S
Tb841 O862 2.325 . S
Tb841 O865 2.341 . S
Tb841 O866 2.484 . S
Tb841 O867 2.440 . S
Tb841 O868 2.658 1_556 S
Tb841 O869 2.409 . S
Tb841 O870 2.378 . S
C842 Tb840 2.809 . S
C842 C843 1.514 . S
C842 O860 1.248 . S
C842 O861 1.266 . S
C843 C842 1.514 . S
C843 C844 1.359 . S
C843 C848 1.348 . S
C844 C843 1.359 . S
C844 C845 1.380 . S
C844 H872 0.929 . S
C845 C844 1.380 . S
C845 C846 1.347 . S
C845 H873 0.931 . S
C846 C845 1.347 . S
C846 C847 1.369 . S
C847 C846 1.369 . S
C847 C848 1.408 . S
C847 H874 0.930 . S
C848 C843 1.348 . S
C848 C847 1.408 . S
C848 H875 0.930 . S
C849 O862 1.281 1_554 S
C849 O863 1.254 . S
C850 O864 1.236 . S
C850 O865 1.266 1_554 S
C851 Tb841 2.809 . S
C851 C852 1.514 . S
C851 O866 1.248 . S
C851 O867 1.266 . S
C852 C851 1.514 . S
C852 C853 1.359 . S
C852 C857 1.348 . S
C853 C852 1.359 . S
C853 C854 1.380 . S
C853 H876 0.929 . S
C854 C853 1.380 . S
C854 C855 1.347 . S
C854 H877 0.931 . S
C855 C854 1.347 . S
C855 C856 1.369 . S
C856 C855 1.369 . S
C856 C857 1.408 . S
C856 H878 0.930 . S
C857 C852 1.348 . S
C857 C856 1.408 . S
C857 H879 0.930 . S
C858 O868 1.281 1_556 S
C858 O869 1.254 . S
C859 O870 1.236 . S
C859 O871 1.266 1_556 S
O860 Tb840 2.484 . S
O860 C842 1.248 . S
O861 Tb840 2.440 . S
O861 C842 1.266 . S
O862 Tb840 2.658 1_556 S
O862 Tb841 2.325 . S
O862 C849 1.281 1_556 S
O863 Tb840 2.409 . S
O863 C849 1.254 . S
O864 Tb840 2.378 . S
O864 C850 1.236 . S
O865 Tb841 2.341 . S
O865 C850 1.266 1_556 S
O866 Tb841 2.484 . S
O866 C851 1.248 . S
O867 Tb841 2.440 . S
O867 C851 1.266 . S
O868 Tb840 2.325 . S
O868 Tb841 2.658 1_554 S
O868 C858 1.281 1_554 S
O869 Tb841 2.409 . S
O869 C858 1.254 . S
O870 Tb841 2.378 . S
O870 C859 1.236 . S
O871 Tb840 2.341 . S
O871 C859 1.266 1_554 S
H872 C844 0.929 . S
H873 C845 0.931 . S
H874 C847 0.930 . S
H875 C848 0.930 . S
H876 C853 0.929 . S
H877 C854 0.931 . S
H878 C856 0.930 . S
H879 C857 0.930 . S
Tb880 C882 2.809 . S
Tb880 O900 2.484 . S
Tb880 O901 2.440 . S
Tb880 O902 2.658 1_554 S
Tb880 O903 2.409 . S
Tb880 O904 2.378 . S
Tb880 O908 2.325 . S
Tb880 O911 2.341 . S
Tb881 C891 2.809 . S
Tb881 O902 2.325 . S
Tb881 O905 2.341 . S
Tb881 O906 2.484 . S
Tb881 O907 2.440 . S
Tb881 O908 2.658 1_556 S
Tb881 O909 2.409 . S
Tb881 O910 2.378 . S
C882 Tb880 2.809 . S
C882 C883 1.514 . S
C882 O900 1.248 . S
C882 O901 1.266 . S
C883 C882 1.514 . S
C883 C884 1.359 . S
C883 C888 1.348 . S
C884 C883 1.359 . S
C884 C885 1.380 . S
C884 H912 0.929 . S
C885 C884 1.380 . S
C885 C886 1.347 . S
C885 H913 0.931 . S
C886 C885 1.347 . S
C886 C887 1.369 . S
C887 C886 1.369 . S
C887 C888 1.408 . S
C887 H914 0.930 . S
C888 C883 1.348 . S
C888 C887 1.408 . S
C888 H915 0.930 . S
C889 O902 1.281 1_554 S
C889 O903 1.254 . S
C890 O904 1.236 . S
C890 O905 1.266 1_554 S
C891 Tb881 2.809 . S
C891 C892 1.514 . S
C891 O906 1.248 . S
C891 O907 1.266 . S
C892 C891 1.514 . S
C892 C893 1.359 . S
C892 C897 1.348 . S
C893 C892 1.359 . S
C893 C894 1.380 . S
C893 H916 0.929 . S
C894 C893 1.380 . S
C894 C895 1.347 . S
C894 H917 0.931 . S
C895 C894 1.347 . S
C895 C896 1.369 . S
C896 C895 1.369 . S
C896 C897 1.408 . S
C896 H918 0.930 . S
C897 C892 1.348 . S
C897 C896 1.408 . S
C897 H919 0.930 . S
C898 O908 1.281 1_556 S
C898 O909 1.254 . S
C899 O910 1.236 . S
C899 O911 1.266 1_556 S
O900 Tb880 2.484 . S
O900 C882 1.248 . S
O901 Tb880 2.440 . S
O901 C882 1.266 . S
O902 Tb880 2.658 1_556 S
O902 Tb881 2.325 . S
O902 C889 1.281 1_556 S
O903 Tb880 2.409 . S
O903 C889 1.254 . S
O904 Tb880 2.378 . S
O904 C890 1.236 . S
O905 Tb881 2.341 . S
O905 C890 1.266 1_556 S
O906 Tb881 2.484 . S
O906 C891 1.248 . S
O907 Tb881 2.440 . S
O907 C891 1.266 . S
O908 Tb880 2.325 . S
O908 Tb881 2.658 1_554 S
O908 C898 1.281 1_554 S
O909 Tb881 2.409 . S
O909 C898 1.254 . S
O910 Tb881 2.378 . S
O910 C899 1.236 . S
O911 Tb880 2.341 . S
O911 C899 1.266 1_554 S
H912 C884 0.929 . S
H913 C885 0.931 . S
H914 C887 0.930 . S
H915 C888 0.930 . S
H916 C893 0.929 . S
H917 C894 0.931 . S
H918 C896 0.930 . S
H919 C897 0.930 . S
Tb920 C922 2.809 . S
Tb920 O940 2.484 . S
Tb920 O941 2.440 . S
Tb920 O942 2.658 1_554 S
Tb920 O943 2.409 . S
Tb920 O944 2.378 . S
Tb920 O948 2.325 . S
Tb920 O951 2.341 . S
Tb921 C931 2.809 . S
Tb921 O942 2.325 . S
Tb921 O945 2.341 . S
Tb921 O946 2.484 . S
Tb921 O947 2.440 . S
Tb921 O948 2.658 1_556 S
Tb921 O949 2.409 . S
Tb921 O950 2.378 . S
C922 Tb920 2.809 . S
C922 C923 1.514 . S
C922 O940 1.248 . S
C922 O941 1.266 . S
C923 C922 1.514 . S
C923 C924 1.359 . S
C923 C928 1.348 . S
C924 C923 1.359 . S
C924 C925 1.380 . S
C924 H952 0.929 . S
C925 C924 1.380 . S
C925 C926 1.347 . S
C925 H953 0.931 . S
C926 C925 1.347 . S
C926 C927 1.369 . S
C927 C926 1.369 . S
C927 C928 1.408 . S
C927 H954 0.930 . S
C928 C923 1.348 . S
C928 C927 1.408 . S
C928 H955 0.930 . S
C929 O942 1.281 1_554 S
C929 O943 1.254 . S
C930 O944 1.236 . S
C930 O945 1.266 1_554 S
C931 Tb921 2.809 . S
C931 C932 1.514 . S
C931 O946 1.248 . S
C931 O947 1.266 . S
C932 C931 1.514 . S
C932 C933 1.359 . S
C932 C937 1.348 . S
C933 C932 1.359 . S
C933 C934 1.380 . S
C933 H956 0.929 . S
C934 C933 1.380 . S
C934 C935 1.347 . S
C934 H957 0.931 . S
C935 C934 1.347 . S
C935 C936 1.369 . S
C936 C935 1.369 . S
C936 C937 1.408 . S
C936 H958 0.930 . S
C937 C932 1.348 . S
C937 C936 1.408 . S
C937 H959 0.930 . S
C938 O948 1.281 1_556 S
C938 O949 1.254 . S
C939 O950 1.236 . S
C939 O951 1.266 1_556 S
O940 Tb920 2.484 . S
O940 C922 1.248 . S
O941 Tb920 2.440 . S
O941 C922 1.266 . S
O942 Tb920 2.658 1_556 S
O942 Tb921 2.325 . S
O942 C929 1.281 1_556 S
O943 Tb920 2.409 . S
O943 C929 1.254 . S
O944 Tb920 2.378 . S
O944 C930 1.236 . S
O945 Tb921 2.341 . S
O945 C930 1.266 1_556 S
O946 Tb921 2.484 . S
O946 C931 1.248 . S
O947 Tb921 2.440 . S
O947 C931 1.266 . S
O948 Tb920 2.325 . S
O948 Tb921 2.658 1_554 S
O948 C938 1.281 1_554 S
O949 Tb921 2.409 . S
O949 C938 1.254 . S
O950 Tb921 2.378 . S
O950 C939 1.236 . S
O951 Tb920 2.341 . S
O951 C939 1.266 1_554 S
H952 C924 0.929 . S
H953 C925 0.931 . S
H954 C927 0.930 . S
H955 C928 0.930 . S
H956 C933 0.929 . S
H957 C934 0.931 . S
H958 C936 0.930 . S
H959 C937 0.930 . S
Tb960 C962 2.809 . S
Tb960 O980 2.484 . S
Tb960 O981 2.440 . S
Tb960 O982 2.658 . S
Tb960 O983 2.409 . S
Tb960 O984 2.378 . S
Tb960 O988 2.325 . S
Tb960 O991 2.341 . S
Tb961 C971 2.809 . S
Tb961 O982 2.325 . S
Tb961 O985 2.341 . S
Tb961 O986 2.484 . S
Tb961 O987 2.440 . S
Tb961 O988 2.658 . S
Tb961 O989 2.409 . S
Tb961 O990 2.378 . S
C962 Tb960 2.809 . S
C962 C963 1.514 . S
C962 O980 1.248 . S
C962 O981 1.266 . S
C963 C962 1.514 . S
C963 C964 1.359 1_565 S
C963 C968 1.348 . S
C964 C963 1.359 1_545 S
C964 C965 1.380 . S
C964 H992 0.929 . S
C965 C964 1.380 . S
C965 C966 1.347 . S
C965 H993 0.931 . S
C966 C965 1.347 . S
C966 C967 1.369 1_545 S
C967 C966 1.369 1_565 S
C967 C968 1.408 . S
C967 H994 0.930 . S
C968 C963 1.348 . S
C968 C967 1.408 . S
C968 H995 0.930 . S
C969 O982 1.281 . S
C969 O983 1.254 . S
C970 O984 1.236 . S
C970 O985 1.266 . S
C971 Tb961 2.809 . S
C971 C972 1.514 . S
C971 O986 1.248 . S
C971 O987 1.266 . S
C972 C971 1.514 . S
C972 C973 1.359 . S
C972 C977 1.348 . S
C973 C972 1.359 . S
C973 C974 1.380 . S
C973 H996 0.929 . S
C974 C973 1.380 . S
C974 C975 1.347 . S
C974 H997 0.931 . S
C975 C974 1.347 . S
C975 C976 1.369 . S
C976 C975 1.369 . S
C976 C977 1.408 . S
C976 H998 0.930 . S
C977 C972 1.348 . S
C977 C976 1.408 . S
C977 H999 0.930 . S
C978 O988 1.281 . S
C978 O989 1.254 . S
C979 O990 1.236 . S
C979 O991 1.266 . S
O980 Tb960 2.484 . S
O980 C962 1.248 . S
O981 Tb960 2.440 . S
O981 C962 1.266 . S
O982 Tb960 2.658 . S
O982 Tb961 2.325 . S
O982 C969 1.281 . S
O983 Tb960 2.409 . S
O983 C969 1.254 . S
O984 Tb960 2.378 . S
O984 C970 1.236 . S
O985 Tb961 2.341 . S
O985 C970 1.266 . S
O986 Tb961 2.484 . S
O986 C971 1.248 . S
O987 Tb961 2.440 . S
O987 C971 1.266 . S
O988 Tb960 2.325 . S
O988 Tb961 2.658 . S
O988 C978 1.281 . S
O989 Tb961 2.409 . S
O989 C978 1.254 . S
O990 Tb961 2.378 . S
O990 C979 1.236 . S
O991 Tb960 2.341 . S
O991 C979 1.266 . S
H992 C964 0.929 . S
H993 C965 0.931 . S
H994 C967 0.930 . S
H995 C968 0.930 . S
H996 C973 0.929 . S
H997 C974 0.931 . S
H998 C976 0.930 . S
H999 C977 0.930 . S
Tb1000 C1002 2.809 . S
Tb1000 O1020 2.484 . S
Tb1000 O1021 2.440 . S
Tb1000 O1022 2.658 . S
Tb1000 O1023 2.409 . S
Tb1000 O1024 2.378 . S
Tb1000 O1028 2.325 . S
Tb1000 O1031 2.341 . S
Tb1001 C1011 2.809 . S
Tb1001 O1022 2.325 . S
Tb1001 O1025 2.341 . S
Tb1001 O1026 2.484 . S
Tb1001 O1027 2.440 . S
Tb1001 O1028 2.658 . S
Tb1001 O1029 2.409 . S
Tb1001 O1030 2.378 . S
C1002 Tb1000 2.809 . S
C1002 C1003 1.514 . S
C1002 O1020 1.248 . S
C1002 O1021 1.266 . S
C1003 C1002 1.514 . S
C1003 C1004 1.359 1_455 S
C1003 C1008 1.348 . S
C1004 C1003 1.359 1_655 S
C1004 C1005 1.380 . S
C1004 H1032 0.929 . S
C1005 C1004 1.380 . S
C1005 C1006 1.347 . S
C1005 H1033 0.931 . S
C1006 C1005 1.347 . S
C1006 C1007 1.369 1_655 S
C1007 C1006 1.369 1_455 S
C1007 C1008 1.408 . S
C1007 H1034 0.930 . S
C1008 C1003 1.348 . S
C1008 C1007 1.408 . S
C1008 H1035 0.930 . S
C1009 O1022 1.281 . S
C1009 O1023 1.254 . S
C1010 O1024 1.236 . S
C1010 O1025 1.266 . S
C1011 Tb1001 2.809 . S
C1011 C1012 1.514 . S
C1011 O1026 1.248 . S
C1011 O1027 1.266 . S
C1012 C1011 1.514 . S
C1012 C1013 1.359 . S
C1012 C1017 1.348 . S
C1013 C1012 1.359 . S
C1013 C1014 1.380 . S
C1013 H1036 0.929 . S
C1014 C1013 1.380 . S
C1014 C1015 1.347 . S
C1014 H1037 0.931 . S
C1015 C1014 1.347 . S
C1015 C1016 1.369 . S
C1016 C1015 1.369 . S
C1016 C1017 1.408 . S
C1016 H1038 0.930 . S
C1017 C1012 1.348 . S
C1017 C1016 1.408 . S
C1017 H1039 0.930 . S
C1018 O1028 1.281 . S
C1018 O1029 1.254 . S
C1019 O1030 1.236 . S
C1019 O1031 1.266 . S
O1020 Tb1000 2.484 . S
O1020 C1002 1.248 . S
O1021 Tb1000 2.440 . S
O1021 C1002 1.266 . S
O1022 Tb1000 2.658 . S
O1022 Tb1001 2.325 . S
O1022 C1009 1.281 . S
O1023 Tb1000 2.409 . S
O1023 C1009 1.254 . S
O1024 Tb1000 2.378 . S
O1024 C1010 1.236 . S
O1025 Tb1001 2.341 . S
O1025 C1010 1.266 . S
O1026 Tb1001 2.484 . S
O1026 C1011 1.248 . S
O1027 Tb1001 2.440 . S
O1027 C1011 1.266 . S
O1028 Tb1000 2.325 . S
O1028 Tb1001 2.658 . S
O1028 C1018 1.281 . S
O1029 Tb1001 2.409 . S
O1029 C1018 1.254 . S
O1030 Tb1001 2.378 . S
O1030 C1019 1.236 . S
O1031 Tb1000 2.341 . S
O1031 C1019 1.266 . S
H1032 C1004 0.929 . S
H1033 C1005 0.931 . S
H1034 C1007 0.930 . S
H1035 C1008 0.930 . S
H1036 C1013 0.929 . S
H1037 C1014 0.931 . S
H1038 C1016 0.930 . S
H1039 C1017 0.930 . S
Tb1040 C1042 2.809 . S
Tb1040 O1060 2.484 . S
Tb1040 O1061 2.440 . S
Tb1040 O1062 2.658 . S
Tb1040 O1063 2.409 . S
Tb1040 O1064 2.378 . S
Tb1040 O1068 2.325 . S
Tb1040 O1071 2.341 . S
Tb1041 C1051 2.809 . S
Tb1041 O1062 2.325 . S
Tb1041 O1065 2.341 . S
Tb1041 O1066 2.484 . S
Tb1041 O1067 2.440 . S
Tb1041 O1068 2.658 . S
Tb1041 O1069 2.409 . S
Tb1041 O1070 2.378 . S
C1042 Tb1040 2.809 . S
C1042 C1043 1.514 . S
C1042 O1060 1.248 . S
C1042 O1061 1.266 . S
C1043 C1042 1.514 . S
C1043 C1044 1.359 . S
C1043 C1048 1.348 . S
C1044 C1043 1.359 . S
C1044 C1045 1.380 . S
C1044 H1072 0.929 . S
C1045 C1044 1.380 . S
C1045 C1046 1.347 . S
C1045 H1073 0.931 . S
C1046 C1045 1.347 . S
C1046 C1047 1.369 . S
C1047 C1046 1.369 . S
C1047 C1048 1.408 . S
C1047 H1074 0.930 . S
C1048 C1043 1.348 . S
C1048 C1047 1.408 . S
C1048 H1075 0.930 . S
C1049 O1062 1.281 . S
C1049 O1063 1.254 . S
C1050 O1064 1.236 . S
C1050 O1065 1.266 . S
C1051 Tb1041 2.809 . S
C1051 C1052 1.514 . S
C1051 O1066 1.248 . S
C1051 O1067 1.266 . S
C1052 C1051 1.514 . S
C1052 C1053 1.359 . S
C1052 C1057 1.348 . S
C1053 C1052 1.359 . S
C1053 C1054 1.380 . S
C1053 H1076 0.929 . S
C1054 C1053 1.380 . S
C1054 C1055 1.347 . S
C1054 H1077 0.931 . S
C1055 C1054 1.347 . S
C1055 C1056 1.369 . S
C1056 C1055 1.369 . S
C1056 C1057 1.408 . S
C1056 H1078 0.930 . S
C1057 C1052 1.348 . S
C1057 C1056 1.408 . S
C1057 H1079 0.930 . S
C1058 O1068 1.281 . S
C1058 O1069 1.254 . S
C1059 O1070 1.236 . S
C1059 O1071 1.266 . S
O1060 Tb1040 2.484 . S
O1060 C1042 1.248 . S
O1061 Tb1040 2.440 . S
O1061 C1042 1.266 . S
O1062 Tb1040 2.658 . S
O1062 Tb1041 2.325 . S
O1062 C1049 1.281 . S
O1063 Tb1040 2.409 . S
O1063 C1049 1.254 . S
O1064 Tb1040 2.378 . S
O1064 C1050 1.236 . S
O1065 Tb1041 2.341 . S
O1065 C1050 1.266 . S
O1066 Tb1041 2.484 . S
O1066 C1051 1.248 . S
O1067 Tb1041 2.440 . S
O1067 C1051 1.266 . S
O1068 Tb1040 2.325 . S
O1068 Tb1041 2.658 . S
O1068 C1058 1.281 . S
O1069 Tb1041 2.409 . S
O1069 C1058 1.254 . S
O1070 Tb1041 2.378 . S
O1070 C1059 1.236 . S
O1071 Tb1040 2.341 . S
O1071 C1059 1.266 . S
H1072 C1044 0.929 . S
H1073 C1045 0.931 . S
H1074 C1047 0.930 . S
H1075 C1048 0.930 . S
H1076 C1053 0.929 . S
H1077 C1054 0.931 . S
H1078 C1056 0.930 . S
H1079 C1057 0.930 . S
Tb1080 C1082 2.809 . S
Tb1080 O1100 2.484 . S
Tb1080 O1101 2.440 . S
Tb1080 O1102 2.658 1_554 S
Tb1080 O1103 2.409 . S
Tb1080 O1104 2.378 . S
Tb1080 O1108 2.325 . S
Tb1080 O1111 2.341 . S
Tb1081 C1091 2.809 . S
Tb1081 O1102 2.325 . S
Tb1081 O1105 2.341 . S
Tb1081 O1106 2.484 . S
Tb1081 O1107 2.440 . S
Tb1081 O1108 2.658 1_556 S
Tb1081 O1109 2.409 . S
Tb1081 O1110 2.378 . S
C1082 Tb1080 2.809 . S
C1082 C1083 1.514 . S
C1082 O1100 1.248 . S
C1082 O1101 1.266 . S
C1083 C1082 1.514 . S
C1083 C1084 1.359 . S
C1083 C1088 1.348 . S
C1084 C1083 1.359 . S
C1084 C1085 1.380 . S
C1084 H1112 0.929 . S
C1085 C1084 1.380 . S
C1085 C1086 1.347 . S
C1085 H1113 0.931 . S
C1086 C1085 1.347 . S
C1086 C1087 1.369 . S
C1087 C1086 1.369 . S
C1087 C1088 1.408 . S
C1087 H1114 0.930 . S
C1088 C1083 1.348 . S
C1088 C1087 1.408 . S
C1088 H1115 0.930 . S
C1089 O1102 1.281 1_554 S
C1089 O1103 1.254 . S
C1090 O1104 1.236 . S
C1090 O1105 1.266 1_554 S
C1091 Tb1081 2.809 . S
C1091 C1092 1.514 . S
C1091 O1106 1.248 . S
C1091 O1107 1.266 . S
C1092 C1091 1.514 . S
C1092 C1093 1.359 . S
C1092 C1097 1.348 . S
C1093 C1092 1.359 . S
C1093 C1094 1.380 . S
C1093 H1116 0.929 . S
C1094 C1093 1.380 . S
C1094 C1095 1.347 . S
C1094 H1117 0.931 . S
C1095 C1094 1.347 . S
C1095 C1096 1.369 . S
C1096 C1095 1.369 . S
C1096 C1097 1.408 . S
C1096 H1118 0.930 . S
C1097 C1092 1.348 . S
C1097 C1096 1.408 . S
C1097 H1119 0.930 . S
C1098 O1108 1.281 1_556 S
C1098 O1109 1.254 . S
C1099 O1110 1.236 . S
C1099 O1111 1.266 1_556 S
O1100 Tb1080 2.484 . S
O1100 C1082 1.248 . S
O1101 Tb1080 2.440 . S
O1101 C1082 1.266 . S
O1102 Tb1080 2.658 1_556 S
O1102 Tb1081 2.325 . S
O1102 C1089 1.281 1_556 S
O1103 Tb1080 2.409 . S
O1103 C1089 1.254 . S
O1104 Tb1080 2.378 . S
O1104 C1090 1.236 . S
O1105 Tb1081 2.341 . S
O1105 C1090 1.266 1_556 S
O1106 Tb1081 2.484 . S
O1106 C1091 1.248 . S
O1107 Tb1081 2.440 . S
O1107 C1091 1.266 . S
O1108 Tb1080 2.325 . S
O1108 Tb1081 2.658 1_554 S
O1108 C1098 1.281 1_554 S
O1109 Tb1081 2.409 . S
O1109 C1098 1.254 . S
O1110 Tb1081 2.378 . S
O1110 C1099 1.236 . S
O1111 Tb1080 2.341 . S
O1111 C1099 1.266 1_554 S
H1112 C1084 0.929 . S
H1113 C1085 0.931 . S
H1114 C1087 0.930 . S
H1115 C1088 0.930 . S
H1116 C1093 0.929 . S
H1117 C1094 0.931 . S
H1118 C1096 0.930 . S
H1119 C1097 0.930 . S
Tb1120 C1122 2.809 . S
Tb1120 O1140 2.484 . S
Tb1120 O1141 2.440 . S
Tb1120 O1142 2.658 1_554 S
Tb1120 O1143 2.409 . S
Tb1120 O1144 2.378 . S
Tb1120 O1148 2.325 . S
Tb1120 O1151 2.341 . S
Tb1121 C1131 2.809 . S
Tb1121 O1142 2.325 . S
Tb1121 O1145 2.341 . S
Tb1121 O1146 2.484 . S
Tb1121 O1147 2.440 . S
Tb1121 O1148 2.658 1_556 S
Tb1121 O1149 2.409 . S
Tb1121 O1150 2.378 . S
C1122 Tb1120 2.809 . S
C1122 C1123 1.514 . S
C1122 O1140 1.248 . S
C1122 O1141 1.266 . S
C1123 C1122 1.514 . S
C1123 C1124 1.359 . S
C1123 C1128 1.348 . S
C1124 C1123 1.359 . S
C1124 C1125 1.380 . S
C1124 H1152 0.929 . S
C1125 C1124 1.380 . S
C1125 C1126 1.347 . S
C1125 H1153 0.931 . S
C1126 C1125 1.347 . S
C1126 C1127 1.369 . S
C1127 C1126 1.369 . S
C1127 C1128 1.408 . S
C1127 H1154 0.930 . S
C1128 C1123 1.348 . S
C1128 C1127 1.408 . S
C1128 H1155 0.930 . S
C1129 O1142 1.281 1_554 S
C1129 O1143 1.254 . S
C1130 O1144 1.236 . S
C1130 O1145 1.266 1_554 S
C1131 Tb1121 2.809 . S
C1131 C1132 1.514 . S
C1131 O1146 1.248 . S
C1131 O1147 1.266 . S
C1132 C1131 1.514 . S
C1132 C1133 1.359 . S
C1132 C1137 1.348 . S
C1133 C1132 1.359 . S
C1133 C1134 1.380 . S
C1133 H1156 0.929 . S
C1134 C1133 1.380 . S
C1134 C1135 1.347 . S
C1134 H1157 0.931 . S
C1135 C1134 1.347 . S
C1135 C1136 1.369 . S
C1136 C1135 1.369 . S
C1136 C1137 1.408 . S
C1136 H1158 0.930 . S
C1137 C1132 1.348 . S
C1137 C1136 1.408 . S
C1137 H1159 0.930 . S
C1138 O1148 1.281 1_556 S
C1138 O1149 1.254 . S
C1139 O1150 1.236 . S
C1139 O1151 1.266 1_556 S
O1140 Tb1120 2.484 . S
O1140 C1122 1.248 . S
O1141 Tb1120 2.440 . S
O1141 C1122 1.266 . S
O1142 Tb1120 2.658 1_556 S
O1142 Tb1121 2.325 . S
O1142 C1129 1.281 1_556 S
O1143 Tb1120 2.409 . S
O1143 C1129 1.254 . S
O1144 Tb1120 2.378 . S
O1144 C1130 1.236 . S
O1145 Tb1121 2.341 . S
O1145 C1130 1.266 1_556 S
O1146 Tb1121 2.484 . S
O1146 C1131 1.248 . S
O1147 Tb1121 2.440 . S
O1147 C1131 1.266 . S
O1148 Tb1120 2.325 . S
O1148 Tb1121 2.658 1_554 S
O1148 C1138 1.281 1_554 S
O1149 Tb1121 2.409 . S
O1149 C1138 1.254 . S
O1150 Tb1121 2.378 . S
O1150 C1139 1.236 . S
O1151 Tb1120 2.341 . S
O1151 C1139 1.266 1_554 S
H1152 C1124 0.929 . S
H1153 C1125 0.931 . S
H1154 C1127 0.930 . S
H1155 C1128 0.930 . S
H1156 C1133 0.929 . S
H1157 C1134 0.931 . S
H1158 C1136 0.930 . S
H1159 C1137 0.930 . S
Tb1160 C1162 2.809 . S
Tb1160 O1180 2.484 . S
Tb1160 O1181 2.440 . S
Tb1160 O1182 2.658 1_554 S
Tb1160 O1183 2.409 . S
Tb1160 O1184 2.378 . S
Tb1160 O1188 2.325 . S
Tb1160 O1191 2.341 . S
Tb1161 C1171 2.809 . S
Tb1161 O1182 2.325 . S
Tb1161 O1185 2.341 . S
Tb1161 O1186 2.484 . S
Tb1161 O1187 2.440 . S
Tb1161 O1188 2.658 1_556 S
Tb1161 O1189 2.409 . S
Tb1161 O1190 2.378 . S
C1162 Tb1160 2.809 . S
C1162 C1163 1.514 . S
C1162 O1180 1.248 . S
C1162 O1181 1.266 . S
C1163 C1162 1.514 . S
C1163 C1164 1.359 . S
C1163 C1168 1.348 . S
C1164 C1163 1.359 . S
C1164 C1165 1.380 . S
C1164 H1192 0.929 . S
C1165 C1164 1.380 . S
C1165 C1166 1.347 . S
C1165 H1193 0.931 . S
C1166 C1165 1.347 . S
C1166 C1167 1.369 . S
C1167 C1166 1.369 . S
C1167 C1168 1.408 . S
C1167 H1194 0.930 . S
C1168 C1163 1.348 . S
C1168 C1167 1.408 . S
C1168 H1195 0.930 . S
C1169 O1182 1.281 1_554 S
C1169 O1183 1.254 . S
C1170 O1184 1.236 . S
C1170 O1185 1.266 1_554 S
C1171 Tb1161 2.809 . S
C1171 C1172 1.514 . S
C1171 O1186 1.248 . S
C1171 O1187 1.266 . S
C1172 C1171 1.514 . S
C1172 C1173 1.359 . S
C1172 C1177 1.348 . S
C1173 C1172 1.359 . S
C1173 C1174 1.380 . S
C1173 H1196 0.929 . S
C1174 C1173 1.380 . S
C1174 C1175 1.347 . S
C1174 H1197 0.931 . S
C1175 C1174 1.347 . S
C1175 C1176 1.369 . S
C1176 C1175 1.369 . S
C1176 C1177 1.408 . S
C1176 H1198 0.930 . S
C1177 C1172 1.348 . S
C1177 C1176 1.408 . S
C1177 H1199 0.930 . S
C1178 O1188 1.281 1_556 S
C1178 O1189 1.254 . S
C1179 O1190 1.236 . S
C1179 O1191 1.266 1_556 S
O1180 Tb1160 2.484 . S
O1180 C1162 1.248 . S
O1181 Tb1160 2.440 . S
O1181 C1162 1.266 . S
O1182 Tb1160 2.658 1_556 S
O1182 Tb1161 2.325 . S
O1182 C1169 1.281 1_556 S
O1183 Tb1160 2.409 . S
O1183 C1169 1.254 . S
O1184 Tb1160 2.378 . S
O1184 C1170 1.236 . S
O1185 Tb1161 2.341 . S
O1185 C1170 1.266 1_556 S
O1186 Tb1161 2.484 . S
O1186 C1171 1.248 . S
O1187 Tb1161 2.440 . S
O1187 C1171 1.266 . S
O1188 Tb1160 2.325 . S
O1188 Tb1161 2.658 1_554 S
O1188 C1178 1.281 1_554 S
O1189 Tb1161 2.409 . S
O1189 C1178 1.254 . S
O1190 Tb1161 2.378 . S
O1190 C1179 1.236 . S
O1191 Tb1160 2.341 . S
O1191 C1179 1.266 1_554 S
H1192 C1164 0.929 . S
H1193 C1165 0.931 . S
H1194 C1167 0.930 . S
H1195 C1168 0.930 . S
H1196 C1173 0.929 . S
H1197 C1174 0.931 . S
H1198 C1176 0.930 . S
H1199 C1177 0.930 . S
Tb1200 C1202 2.809 . S
Tb1200 O1220 2.484 . S
Tb1200 O1221 2.440 . S
Tb1200 O1222 2.658 . S
Tb1200 O1223 2.409 . S
Tb1200 O1224 2.378 . S
Tb1200 O1228 2.325 . S
Tb1200 O1231 2.341 . S
Tb1201 C1211 2.809 . S
Tb1201 O1222 2.325 . S
Tb1201 O1225 2.341 . S
Tb1201 O1226 2.484 . S
Tb1201 O1227 2.440 . S
Tb1201 O1228 2.658 . S
Tb1201 O1229 2.409 . S
Tb1201 O1230 2.378 . S
C1202 Tb1200 2.809 . S
C1202 C1203 1.514 . S
C1202 O1220 1.248 . S
C1202 O1221 1.266 . S
C1203 C1202 1.514 . S
C1203 C1204 1.359 . S
C1203 C1208 1.348 . S
C1204 C1203 1.359 . S
C1204 C1205 1.380 . S
C1204 H1232 0.929 . S
C1205 C1204 1.380 . S
C1205 C1206 1.347 . S
C1205 H1233 0.931 . S
C1206 C1205 1.347 . S
C1206 C1207 1.369 . S
C1207 C1206 1.369 . S
C1207 C1208 1.408 . S
C1207 H1234 0.930 . S
C1208 C1203 1.348 . S
C1208 C1207 1.408 . S
C1208 H1235 0.930 . S
C1209 O1222 1.281 . S
C1209 O1223 1.254 . S
C1210 O1224 1.236 . S
C1210 O1225 1.266 . S
C1211 Tb1201 2.809 . S
C1211 C1212 1.514 . S
C1211 O1226 1.248 . S
C1211 O1227 1.266 . S
C1212 C1211 1.514 . S
C1212 C1213 1.359 . S
C1212 C1217 1.348 . S
C1213 C1212 1.359 . S
C1213 C1214 1.380 . S
C1213 H1236 0.929 . S
C1214 C1213 1.380 . S
C1214 C1215 1.347 . S
C1214 H1237 0.931 . S
C1215 C1214 1.347 . S
C1215 C1216 1.369 . S
C1216 C1215 1.369 . S
C1216 C1217 1.408 . S
C1216 H1238 0.930 . S
C1217 C1212 1.348 . S
C1217 C1216 1.408 . S
C1217 H1239 0.930 . S
C1218 O1228 1.281 . S
C1218 O1229 1.254 . S
C1219 O1230 1.236 . S
C1219 O1231 1.266 . S
O1220 Tb1200 2.484 . S
O1220 C1202 1.248 . S
O1221 Tb1200 2.440 . S
O1221 C1202 1.266 . S
O1222 Tb1200 2.658 . S
O1222 Tb1201 2.325 . S
O1222 C1209 1.281 . S
O1223 Tb1200 2.409 . S
O1223 C1209 1.254 . S
O1224 Tb1200 2.378 . S
O1224 C1210 1.236 . S
O1225 Tb1201 2.341 . S
O1225 C1210 1.266 . S
O1226 Tb1201 2.484 . S
O1226 C1211 1.248 . S
O1227 Tb1201 2.440 . S
O1227 C1211 1.266 . S
O1228 Tb1200 2.325 . S
O1228 Tb1201 2.658 . S
O1228 C1218 1.281 . S
O1229 Tb1201 2.409 . S
O1229 C1218 1.254 . S
O1230 Tb1201 2.378 . S
O1230 C1219 1.236 . S
O1231 Tb1200 2.341 . S
O1231 C1219 1.266 . S
H1232 C1204 0.929 . S
H1233 C1205 0.931 . S
H1234 C1207 0.930 . S
H1235 C1208 0.930 . S
H1236 C1213 0.929 . S
H1237 C1214 0.931 . S
H1238 C1216 0.930 . S
H1239 C1217 0.930 . S
Tb1240 C1242 2.809 . S
Tb1240 O1260 2.484 . S
Tb1240 O1261 2.440 . S
Tb1240 O1262 2.658 . S
Tb1240 O1263 2.409 . S
Tb1240 O1264 2.378 . S
Tb1240 O1268 2.325 . S
Tb1240 O1271 2.341 . S
Tb1241 C1251 2.809 . S
Tb1241 O1262 2.325 . S
Tb1241 O1265 2.341 . S
Tb1241 O1266 2.484 . S
Tb1241 O1267 2.440 . S
Tb1241 O1268 2.658 . S
Tb1241 O1269 2.409 . S
Tb1241 O1270 2.378 . S
C1242 Tb1240 2.809 . S
C1242 C1243 1.514 . S
C1242 O1260 1.248 . S
C1242 O1261 1.266 . S
C1243 C1242 1.514 . S
C1243 C1244 1.359 . S
C1243 C1248 1.348 . S
C1244 C1243 1.359 . S
C1244 C1245 1.380 . S
C1244 H1272 0.929 . S
C1245 C1244 1.380 . S
C1245 C1246 1.347 . S
C1245 H1273 0.931 . S
C1246 C1245 1.347 . S
C1246 C1247 1.369 . S
C1247 C1246 1.369 . S
C1247 C1248 1.408 . S
C1247 H1274 0.930 . S
C1248 C1243 1.348 . S
C1248 C1247 1.408 . S
C1248 H1275 0.930 . S
C1249 O1262 1.281 . S
C1249 O1263 1.254 . S
C1250 O1264 1.236 . S
C1250 O1265 1.266 . S
C1251 Tb1241 2.809 . S
C1251 C1252 1.514 . S
C1251 O1266 1.248 . S
C1251 O1267 1.266 . S
C1252 C1251 1.514 . S
C1252 C1253 1.359 . S
C1252 C1257 1.348 . S
C1253 C1252 1.359 . S
C1253 C1254 1.380 . S
C1253 H1276 0.929 . S
C1254 C1253 1.380 . S
C1254 C1255 1.347 . S
C1254 H1277 0.931 . S
C1255 C1254 1.347 . S
C1255 C1256 1.369 . S
C1256 C1255 1.369 . S
C1256 C1257 1.408 . S
C1256 H1278 0.930 . S
C1257 C1252 1.348 . S
C1257 C1256 1.408 . S
C1257 H1279 0.930 . S
C1258 O1268 1.281 . S
C1258 O1269 1.254 . S
C1259 O1270 1.236 . S
C1259 O1271 1.266 . S
O1260 Tb1240 2.484 . S
O1260 C1242 1.248 . S
O1261 Tb1240 2.440 . S
O1261 C1242 1.266 . S
O1262 Tb1240 2.658 . S
O1262 Tb1241 2.325 . S
O1262 C1249 1.281 . S
O1263 Tb1240 2.409 . S
O1263 C1249 1.254 . S
O1264 Tb1240 2.378 . S
O1264 C1250 1.236 . S
O1265 Tb1241 2.341 . S
O1265 C1250 1.266 . S
O1266 Tb1241 2.484 . S
O1266 C1251 1.248 . S
O1267 Tb1241 2.440 . S
O1267 C1251 1.266 . S
O1268 Tb1240 2.325 . S
O1268 Tb1241 2.658 . S
O1268 C1258 1.281 . S
O1269 Tb1241 2.409 . S
O1269 C1258 1.254 . S
O1270 Tb1241 2.378 . S
O1270 C1259 1.236 . S
O1271 Tb1240 2.341 . S
O1271 C1259 1.266 . S
H1272 C1244 0.929 . S
H1273 C1245 0.931 . S
H1274 C1247 0.930 . S
H1275 C1248 0.930 . S
H1276 C1253 0.929 . S
H1277 C1254 0.931 . S
H1278 C1256 0.930 . S
H1279 C1257 0.930 . S
Tb1280 C1282 2.809 . S
Tb1280 O1300 2.484 . S
Tb1280 O1301 2.440 . S
Tb1280 O1302 2.658 . S
Tb1280 O1303 2.409 . S
Tb1280 O1304 2.378 . S
Tb1280 O1308 2.325 . S
Tb1280 O1311 2.341 . S
Tb1281 C1291 2.809 . S
Tb1281 O1302 2.325 . S
Tb1281 O1305 2.341 . S
Tb1281 O1306 2.484 . S
Tb1281 O1307 2.440 . S
Tb1281 O1308 2.658 . S
Tb1281 O1309 2.409 . S
Tb1281 O1310 2.378 . S
C1282 Tb1280 2.809 . S
C1282 C1283 1.514 . S
C1282 O1300 1.248 . S
C1282 O1301 1.266 . S
C1283 C1282 1.514 . S
C1283 C1284 1.359 . S
C1283 C1288 1.348 . S
C1284 C1283 1.359 . S
C1284 C1285 1.380 . S
C1284 H1312 0.929 . S
C1285 C1284 1.380 . S
C1285 C1286 1.347 . S
C1285 H1313 0.931 . S
C1286 C1285 1.347 . S
C1286 C1287 1.369 . S
C1287 C1286 1.369 . S
C1287 C1288 1.408 . S
C1287 H1314 0.930 . S
C1288 C1283 1.348 . S
C1288 C1287 1.408 . S
C1288 H1315 0.930 . S
C1289 O1302 1.281 . S
C1289 O1303 1.254 . S
C1290 O1304 1.236 . S
C1290 O1305 1.266 . S
C1291 Tb1281 2.809 . S
C1291 C1292 1.514 . S
C1291 O1306 1.248 . S
C1291 O1307 1.266 . S
C1292 C1291 1.514 . S
C1292 C1293 1.359 . S
C1292 C1297 1.348 . S
C1293 C1292 1.359 . S
C1293 C1294 1.380 . S
C1293 H1316 0.929 . S
C1294 C1293 1.380 . S
C1294 C1295 1.347 . S
C1294 H1317 0.931 . S
C1295 C1294 1.347 . S
C1295 C1296 1.369 . S
C1296 C1295 1.369 . S
C1296 C1297 1.408 . S
C1296 H1318 0.930 . S
C1297 C1292 1.348 . S
C1297 C1296 1.408 . S
C1297 H1319 0.930 . S
C1298 O1308 1.281 . S
C1298 O1309 1.254 . S
C1299 O1310 1.236 . S
C1299 O1311 1.266 . S
O1300 Tb1280 2.484 . S
O1300 C1282 1.248 . S
O1301 Tb1280 2.440 . S
O1301 C1282 1.266 . S
O1302 Tb1280 2.658 . S
O1302 Tb1281 2.325 . S
O1302 C1289 1.281 . S
O1303 Tb1280 2.409 . S
O1303 C1289 1.254 . S
O1304 Tb1280 2.378 . S
O1304 C1290 1.236 . S
O1305 Tb1281 2.341 . S
O1305 C1290 1.266 . S
O1306 Tb1281 2.484 . S
O1306 C1291 1.248 . S
O1307 Tb1281 2.440 . S
O1307 C1291 1.266 . S
O1308 Tb1280 2.325 . S
O1308 Tb1281 2.658 . S
O1308 C1298 1.281 . S
O1309 Tb1281 2.409 . S
O1309 C1298 1.254 . S
O1310 Tb1281 2.378 . S
O1310 C1299 1.236 . S
O1311 Tb1280 2.341 . S
O1311 C1299 1.266 . S
H1312 C1284 0.929 . S
H1313 C1285 0.931 . S
H1314 C1287 0.930 . S
H1315 C1288 0.930 . S
H1316 C1293 0.929 . S
H1317 C1294 0.931 . S
H1318 C1296 0.930 . S
H1319 C1297 0.930 . S
Tb1320 C1322 2.809 . S
Tb1320 O1340 2.484 . S
Tb1320 O1341 2.440 . S
Tb1320 O1342 2.658 . S
Tb1320 O1343 2.409 . S
Tb1320 O1344 2.378 . S
Tb1320 O1348 2.325 . S
Tb1320 O1351 2.341 . S
Tb1321 C1331 2.809 . S
Tb1321 O1342 2.325 . S
Tb1321 O1345 2.341 . S
Tb1321 O1346 2.484 . S
Tb1321 O1347 2.440 . S
Tb1321 O1348 2.658 . S
Tb1321 O1349 2.409 . S
Tb1321 O1350 2.378 . S
C1322 Tb1320 2.809 . S
C1322 C1323 1.514 . S
C1322 O1340 1.248 . S
C1322 O1341 1.266 . S
C1323 C1322 1.514 . S
C1323 C1324 1.359 . S
C1323 C1328 1.348 . S
C1324 C1323 1.359 . S
C1324 C1325 1.380 . S
C1324 H1352 0.929 . S
C1325 C1324 1.380 . S
C1325 C1326 1.347 . S
C1325 H1353 0.931 . S
C1326 C1325 1.347 . S
C1326 C1327 1.369 . S
C1327 C1326 1.369 . S
C1327 C1328 1.408 . S
C1327 H1354 0.930 . S
C1328 C1323 1.348 . S
C1328 C1327 1.408 . S
C1328 H1355 0.930 . S
C1329 O1342 1.281 . S
C1329 O1343 1.254 . S
C1330 O1344 1.236 . S
C1330 O1345 1.266 . S
C1331 Tb1321 2.809 . S
C1331 C1332 1.514 . S
C1331 O1346 1.248 . S
C1331 O1347 1.266 . S
C1332 C1331 1.514 . S
C1332 C1333 1.359 1_455 S
C1332 C1337 1.348 . S
C1333 C1332 1.359 1_655 S
C1333 C1334 1.380 . S
C1333 H1356 0.929 . S
C1334 C1333 1.380 . S
C1334 C1335 1.347 . S
C1334 H1357 0.931 . S
C1335 C1334 1.347 . S
C1335 C1336 1.369 1_655 S
C1336 C1335 1.369 1_455 S
C1336 C1337 1.408 . S
C1336 H1358 0.930 . S
C1337 C1332 1.348 . S
C1337 C1336 1.408 . S
C1337 H1359 0.930 . S
C1338 O1348 1.281 . S
C1338 O1349 1.254 . S
C1339 O1350 1.236 . S
C1339 O1351 1.266 . S
O1340 Tb1320 2.484 . S
O1340 C1322 1.248 . S
O1341 Tb1320 2.440 . S
O1341 C1322 1.266 . S
O1342 Tb1320 2.658 . S
O1342 Tb1321 2.325 . S
O1342 C1329 1.281 . S
O1343 Tb1320 2.409 . S
O1343 C1329 1.254 . S
O1344 Tb1320 2.378 . S
O1344 C1330 1.236 . S
O1345 Tb1321 2.341 . S
O1345 C1330 1.266 . S
O1346 Tb1321 2.484 . S
O1346 C1331 1.248 . S
O1347 Tb1321 2.440 . S
O1347 C1331 1.266 . S
O1348 Tb1320 2.325 . S
O1348 Tb1321 2.658 . S
O1348 C1338 1.281 . S
O1349 Tb1321 2.409 . S
O1349 C1338 1.254 . S
O1350 Tb1321 2.378 . S
O1350 C1339 1.236 . S
O1351 Tb1320 2.341 . S
O1351 C1339 1.266 . S
H1352 C1324 0.929 . S
H1353 C1325 0.931 . S
H1354 C1327 0.930 . S
H1355 C1328 0.930 . S
H1356 C1333 0.929 . S
H1357 C1334 0.931 . S
H1358 C1336 0.930 . S
H1359 C1337 0.930 . S
Tb1360 C1362 2.809 . S
Tb1360 O1380 2.484 . S
Tb1360 O1381 2.440 . S
Tb1360 O1382 2.658 . S
Tb1360 O1383 2.409 . S
Tb1360 O1384 2.378 . S
Tb1360 O1388 2.325 . S
Tb1360 O1391 2.341 . S
Tb1361 C1371 2.809 . S
Tb1361 O1382 2.325 . S
Tb1361 O1385 2.341 . S
Tb1361 O1386 2.484 . S
Tb1361 O1387 2.440 . S
Tb1361 O1388 2.658 . S
Tb1361 O1389 2.409 . S
Tb1361 O1390 2.378 . S
C1362 Tb1360 2.809 . S
C1362 C1363 1.514 . S
C1362 O1380 1.248 . S
C1362 O1381 1.266 . S
C1363 C1362 1.514 . S
C1363 C1364 1.359 . S
C1363 C1368 1.348 . S
C1364 C1363 1.359 . S
C1364 C1365 1.380 . S
C1364 H1392 0.929 . S
C1365 C1364 1.380 . S
C1365 C1366 1.347 . S
C1365 H1393 0.931 . S
C1366 C1365 1.347 . S
C1366 C1367 1.369 . S
C1367 C1366 1.369 . S
C1367 C1368 1.408 . S
C1367 H1394 0.930 . S
C1368 C1363 1.348 . S
C1368 C1367 1.408 . S
C1368 H1395 0.930 . S
C1369 O1382 1.281 . S
C1369 O1383 1.254 . S
C1370 O1384 1.236 . S
C1370 O1385 1.266 . S
C1371 Tb1361 2.809 . S
C1371 C1372 1.514 . S
C1371 O1386 1.248 . S
C1371 O1387 1.266 . S
C1372 C1371 1.514 . S
C1372 C1373 1.359 . S
C1372 C1377 1.348 . S
C1373 C1372 1.359 . S
C1373 C1374 1.380 . S
C1373 H1396 0.929 . S
C1374 C1373 1.380 . S
C1374 C1375 1.347 . S
C1374 H1397 0.931 . S
C1375 C1374 1.347 . S
C1375 C1376 1.369 . S
C1376 C1375 1.369 . S
C1376 C1377 1.408 . S
C1376 H1398 0.930 . S
C1377 C1372 1.348 . S
C1377 C1376 1.408 . S
C1377 H1399 0.930 . S
C1378 O1388 1.281 . S
C1378 O1389 1.254 . S
C1379 O1390 1.236 . S
C1379 O1391 1.266 . S
O1380 Tb1360 2.484 . S
O1380 C1362 1.248 . S
O1381 Tb1360 2.440 . S
O1381 C1362 1.266 . S
O1382 Tb1360 2.658 . S
O1382 Tb1361 2.325 . S
O1382 C1369 1.281 . S
O1383 Tb1360 2.409 . S
O1383 C1369 1.254 . S
O1384 Tb1360 2.378 . S
O1384 C1370 1.236 . S
O1385 Tb1361 2.341 . S
O1385 C1370 1.266 . S
O1386 Tb1361 2.484 . S
O1386 C1371 1.248 . S
O1387 Tb1361 2.440 . S
O1387 C1371 1.266 . S
O1388 Tb1360 2.325 . S
O1388 Tb1361 2.658 . S
O1388 C1378 1.281 . S
O1389 Tb1361 2.409 . S
O1389 C1378 1.254 . S
O1390 Tb1361 2.378 . S
O1390 C1379 1.236 . S
O1391 Tb1360 2.341 . S
O1391 C1379 1.266 . S
H1392 C1364 0.929 . S
H1393 C1365 0.931 . S
H1394 C1367 0.930 . S
H1395 C1368 0.930 . S
H1396 C1373 0.929 . S
H1397 C1374 0.931 . S
H1398 C1376 0.930 . S
H1399 C1377 0.930 . S
Tb1400 C1402 2.809 . S
Tb1400 O1420 2.484 . S
Tb1400 O1421 2.440 . S
Tb1400 O1422 2.658 . S
Tb1400 O1423 2.409 . S
Tb1400 O1424 2.378 . S
Tb1400 O1428 2.325 . S
Tb1400 O1431 2.341 . S
Tb1401 C1411 2.809 . S
Tb1401 O1422 2.325 . S
Tb1401 O1425 2.341 . S
Tb1401 O1426 2.484 . S
Tb1401 O1427 2.440 . S
Tb1401 O1428 2.658 . S
Tb1401 O1429 2.409 . S
Tb1401 O1430 2.378 . S
C1402 Tb1400 2.809 . S
C1402 C1403 1.514 . S
C1402 O1420 1.248 . S
C1402 O1421 1.266 . S
C1403 C1402 1.514 . S
C1403 C1404 1.359 . S
C1403 C1408 1.348 . S
C1404 C1403 1.359 . S
C1404 C1405 1.380 . S
C1404 H1432 0.929 . S
C1405 C1404 1.380 . S
C1405 C1406 1.347 . S
C1405 H1433 0.931 . S
C1406 C1405 1.347 . S
C1406 C1407 1.369 . S
C1407 C1406 1.369 . S
C1407 C1408 1.408 . S
C1407 H1434 0.930 . S
C1408 C1403 1.348 . S
C1408 C1407 1.408 . S
C1408 H1435 0.930 . S
C1409 O1422 1.281 . S
C1409 O1423 1.254 . S
C1410 O1424 1.236 . S
C1410 O1425 1.266 . S
C1411 Tb1401 2.809 . S
C1411 C1412 1.514 . S
C1411 O1426 1.248 . S
C1411 O1427 1.266 . S
C1412 C1411 1.514 . S
C1412 C1413 1.359 1_565 S
C1412 C1417 1.348 . S
C1413 C1412 1.359 1_545 S
C1413 C1414 1.380 . S
C1413 H1436 0.929 . S
C1414 C1413 1.380 . S
C1414 C1415 1.347 . S
C1414 H1437 0.931 . S
C1415 C1414 1.347 . S
C1415 C1416 1.369 1_545 S
C1416 C1415 1.369 1_565 S
C1416 C1417 1.408 . S
C1416 H1438 0.930 . S
C1417 C1412 1.348 . S
C1417 C1416 1.408 . S
C1417 H1439 0.930 . S
C1418 O1428 1.281 . S
C1418 O1429 1.254 . S
C1419 O1430 1.236 . S
C1419 O1431 1.266 . S
O1420 Tb1400 2.484 . S
O1420 C1402 1.248 . S
O1421 Tb1400 2.440 . S
O1421 C1402 1.266 . S
O1422 Tb1400 2.658 . S
O1422 Tb1401 2.325 . S
O1422 C1409 1.281 . S
O1423 Tb1400 2.409 . S
O1423 C1409 1.254 . S
O1424 Tb1400 2.378 . S
O1424 C1410 1.236 . S
O1425 Tb1401 2.341 . S
O1425 C1410 1.266 . S
O1426 Tb1401 2.484 . S
O1426 C1411 1.248 . S
O1427 Tb1401 2.440 . S
O1427 C1411 1.266 . S
O1428 Tb1400 2.325 . S
O1428 Tb1401 2.658 . S
O1428 C1418 1.281 . S
O1429 Tb1401 2.409 . S
O1429 C1418 1.254 . S
O1430 Tb1401 2.378 . S
O1430 C1419 1.236 . S
O1431 Tb1400 2.341 . S
O1431 C1419 1.266 . S
H1432 C1404 0.929 . S
H1433 C1405 0.931 . S
H1434 C1407 0.930 . S
H1435 C1408 0.930 . S
H1436 C1413 0.929 . S
H1437 C1414 0.931 . S
H1438 C1416 0.930 . S
H1439 C1417 0.930 . S
C1440 C1441 1.387 . S
C1440 H1444 0.950 . S
C1440 C1449 1.390 . S
C1441 C1440 1.387 . S
C1441 C1443 1.387 . S
H1442 C1449 0.950 . S
C1443 C1441 1.387 . S
C1443 C1445 1.390 . S
C1443 H1447 0.950 . S
H1444 C1440 0.950 . S
C1445 C1443 1.390 . S
C1445 C1446 1.387 . S
C1445 H1448 0.950 . S
C1446 C1445 1.387 . S
C1446 C1449 1.387 . S
H1447 C1443 0.950 . S
H1448 C1445 0.950 . S
C1449 C1440 1.390 . S
C1449 H1442 0.950 . S
C1449 C1446 1.387 . S
C1450 C1451 1.387 . S
C1450 H1454 0.950 . S
C1450 C1459 1.390 . S
C1451 C1450 1.387 . S
C1451 C1453 1.387 . S
H1452 C1459 0.950 . S
C1453 C1451 1.387 . S
C1453 C1455 1.390 . S
C1453 H1457 0.950 . S
H1454 C1450 0.950 . S
C1455 C1453 1.390 . S
C1455 C1456 1.387 . S
C1455 H1458 0.950 . S
C1456 C1455 1.387 . S
C1456 C1459 1.387 . S
H1457 C1453 0.950 . S
H1458 C1455 0.950 . S
C1459 C1450 1.390 . S
C1459 H1452 0.950 . S
C1459 C1456 1.387 . S
C1460 C1461 1.387 . S
C1460 H1464 0.950 . S
C1460 C1469 1.390 . S
C1461 C1460 1.387 . S
C1461 C1463 1.387 . S
H1462 C1469 0.950 . S
C1463 C1461 1.387 . S
C1463 C1465 1.390 . S
C1463 H1467 0.950 . S
H1464 C1460 0.950 . S
C1465 C1463 1.390 . S
C1465 C1466 1.387 . S
C1465 H1468 0.950 . S
C1466 C1465 1.387 . S
C1466 C1469 1.387 . S
H1467 C1463 0.950 . S
H1468 C1465 0.950 . S
C1469 C1460 1.390 . S
C1469 H1462 0.950 . S
C1469 C1466 1.387 . S
C1470 C1471 1.387 . S
C1470 H1474 0.950 . S
C1470 C1479 1.390 . S
C1471 C1470 1.387 . S
C1471 C1473 1.387 . S
H1472 C1479 0.950 . S
C1473 C1471 1.387 . S
C1473 C1475 1.390 . S
C1473 H1477 0.950 . S
H1474 C1470 0.950 . S
C1475 C1473 1.390 . S
C1475 C1476 1.387 . S
C1475 H1478 0.950 . S
C1476 C1475 1.387 . S
C1476 C1479 1.387 . S
H1477 C1473 0.950 . S
H1478 C1475 0.950 . S
C1479 C1470 1.390 . S
C1479 H1472 0.950 . S
C1479 C1476 1.387 . S
C1480 C1481 1.387 . S
C1480 H1484 0.950 . S
C1480 C1489 1.390 . S
C1481 C1480 1.387 . S
C1481 C1483 1.387 . S
H1482 C1489 0.950 . S
C1483 C1481 1.387 . S
C1483 C1485 1.390 . S
C1483 H1487 0.950 . S
H1484 C1480 0.950 . S
C1485 C1483 1.390 . S
C1485 C1486 1.387 . S
C1485 H1488 0.950 . S
C1486 C1485 1.387 . S
C1486 C1489 1.387 . S
H1487 C1483 0.950 . S
H1488 C1485 0.950 . S
C1489 C1480 1.390 . S
C1489 H1482 0.950 . S
C1489 C1486 1.387 . S
C1490 C1491 1.387 . S
C1490 H1494 0.950 . S
C1490 C1499 1.390 . S
C1491 C1490 1.387 . S
C1491 C1493 1.387 . S
H1492 C1499 0.950 . S
C1493 C1491 1.387 . S
C1493 C1495 1.390 . S
C1493 H1497 0.950 . S
H1494 C1490 0.950 . S
C1495 C1493 1.390 . S
C1495 C1496 1.387 . S
C1495 H1498 0.950 . S
C1496 C1495 1.387 . S
C1496 C1499 1.387 . S
H1497 C1493 0.950 . S
H1498 C1495 0.950 . S
C1499 C1490 1.390 . S
C1499 H1492 0.950 . S
C1499 C1496 1.387 . S
C1500 C1501 1.387 . S
C1500 H1504 0.950 . S
C1500 C1509 1.390 . S
C1501 C1500 1.387 . S
C1501 C1503 1.387 . S
H1502 C1509 0.950 . S
C1503 C1501 1.387 . S
C1503 C1505 1.390 . S
C1503 H1507 0.950 . S
H1504 C1500 0.950 . S
C1505 C1503 1.390 . S
C1505 C1506 1.387 . S
C1505 H1508 0.950 . S
C1506 C1505 1.387 . S
C1506 C1509 1.387 . S
H1507 C1503 0.950 . S
H1508 C1505 0.950 . S
C1509 C1500 1.390 . S
C1509 H1502 0.950 . S
C1509 C1506 1.387 . S
C1510 C1511 1.387 . S
C1510 H1514 0.950 . S
C1510 C1519 1.390 . S
C1511 C1510 1.387 . S
C1511 C1513 1.387 . S
H1512 C1519 0.950 . S
C1513 C1511 1.387 . S
C1513 C1515 1.390 . S
C1513 H1517 0.950 . S
H1514 C1510 0.950 . S
C1515 C1513 1.390 . S
C1515 C1516 1.387 . S
C1515 H1518 0.950 . S
C1516 C1515 1.387 . S
C1516 C1519 1.387 . S
H1517 C1513 0.950 . S
H1518 C1515 0.950 . S
C1519 C1510 1.390 . S
C1519 H1512 0.950 . S
C1519 C1516 1.387 . S
C1520 C1521 1.387 . S
C1520 H1524 0.950 . S
C1520 C1529 1.390 . S
C1521 C1520 1.387 . S
C1521 C1523 1.387 . S
H1522 C1529 0.950 . S
C1523 C1521 1.387 . S
C1523 C1525 1.390 . S
C1523 H1527 0.950 . S
H1524 C1520 0.950 . S
C1525 C1523 1.390 . S
C1525 C1526 1.387 . S
C1525 H1528 0.950 . S
C1526 C1525 1.387 . S
C1526 C1529 1.387 . S
H1527 C1523 0.950 . S
H1528 C1525 0.950 . S
C1529 C1520 1.390 . S
C1529 H1522 0.950 . S
C1529 C1526 1.387 . S
C1530 C1531 1.387 . S
C1530 H1534 0.950 . S
C1530 C1539 1.390 . S
C1531 C1530 1.387 . S
C1531 C1533 1.387 . S
H1532 C1539 0.950 . S
C1533 C1531 1.387 . S
C1533 C1535 1.390 . S
C1533 H1537 0.950 . S
H1534 C1530 0.950 . S
C1535 C1533 1.390 . S
C1535 C1536 1.387 . S
C1535 H1538 0.950 . S
C1536 C1535 1.387 . S
C1536 C1539 1.387 . S
H1537 C1533 0.950 . S
H1538 C1535 0.950 . S
C1539 C1530 1.390 . S
C1539 H1532 0.950 . S
C1539 C1536 1.387 . S
C1540 C1541 1.387 . S
C1540 H1544 0.950 . S
C1540 C1549 1.390 . S
C1541 C1540 1.387 . S
C1541 C1543 1.387 . S
H1542 C1549 0.950 . S
C1543 C1541 1.387 . S
C1543 C1545 1.390 . S
C1543 H1547 0.950 . S
H1544 C1540 0.950 . S
C1545 C1543 1.390 . S
C1545 C1546 1.387 . S
C1545 H1548 0.950 . S
C1546 C1545 1.387 . S
C1546 C1549 1.387 . S
H1547 C1543 0.950 . S
H1548 C1545 0.950 . S
C1549 C1540 1.390 . S
C1549 H1542 0.950 . S
C1549 C1546 1.387 . S
C1550 C1551 1.387 . S
C1550 H1554 0.950 . S
C1550 C1559 1.390 . S
C1551 C1550 1.387 . S
C1551 C1553 1.387 . S
H1552 C1559 0.950 . S
C1553 C1551 1.387 . S
C1553 C1555 1.390 . S
C1553 H1557 0.950 . S
H1554 C1550 0.950 . S
C1555 C1553 1.390 . S
C1555 C1556 1.387 . S
C1555 H1558 0.950 . S
C1556 C1555 1.387 . S
C1556 C1559 1.387 . S
H1557 C1553 0.950 . S
H1558 C1555 0.950 . S
C1559 C1550 1.390 . S
C1559 H1552 0.950 . S
C1559 C1556 1.387 . S
C1560 C1561 1.387 . S
C1560 H1564 0.950 . S
C1560 C1569 1.390 . S
C1561 C1560 1.387 . S
C1561 C1563 1.387 . S
H1562 C1569 0.950 . S
C1563 C1561 1.387 . S
C1563 C1565 1.390 . S
C1563 H1567 0.950 . S
H1564 C1560 0.950 . S
C1565 C1563 1.390 . S
C1565 C1566 1.387 . S
C1565 H1568 0.950 . S
C1566 C1565 1.387 . S
C1566 C1569 1.387 . S
H1567 C1563 0.950 . S
H1568 C1565 0.950 . S
C1569 C1560 1.390 . S
C1569 H1562 0.950 . S
C1569 C1566 1.387 . S
C1570 C1571 1.387 . S
C1570 H1574 0.950 . S
C1570 C1579 1.390 . S
C1571 C1570 1.387 . S
C1571 C1573 1.387 . S
H1572 C1579 0.950 . S
C1573 C1571 1.387 . S
C1573 C1575 1.390 . S
C1573 H1577 0.950 . S
H1574 C1570 0.950 . S
C1575 C1573 1.390 . S
C1575 C1576 1.387 . S
C1575 H1578 0.950 . S
C1576 C1575 1.387 . S
C1576 C1579 1.387 . S
H1577 C1573 0.950 . S
H1578 C1575 0.950 . S
C1579 C1570 1.390 . S
C1579 H1572 0.950 . S
C1579 C1576 1.387 . S
C1580 C1581 1.387 . S
C1580 H1584 0.950 . S
C1580 C1589 1.390 . S
C1581 C1580 1.387 . S
C1581 C1583 1.387 . S
H1582 C1589 0.950 . S
C1583 C1581 1.387 . S
C1583 C1585 1.390 . S
C1583 H1587 0.950 . S
H1584 C1580 0.950 . S
C1585 C1583 1.390 . S
C1585 C1586 1.387 . S
C1585 H1588 0.950 . S
C1586 C1585 1.387 . S
C1586 C1589 1.387 . S
H1587 C1583 0.950 . S
H1588 C1585 0.950 . S
C1589 C1580 1.390 . S
C1589 H1582 0.950 . S
C1589 C1586 1.387 . S
C1590 C1591 1.387 . S
C1590 H1594 0.950 . S
C1590 C1599 1.390 . S
C1591 C1590 1.387 . S
C1591 C1593 1.387 . S
H1592 C1599 0.950 . S
C1593 C1591 1.387 . S
C1593 C1595 1.390 . S
C1593 H1597 0.950 . S
H1594 C1590 0.950 . S
C1595 C1593 1.390 . S
C1595 C1596 1.387 . S
C1595 H1598 0.950 . S
C1596 C1595 1.387 . S
C1596 C1599 1.387 . S
H1597 C1593 0.950 . S
H1598 C1595 0.950 . S
C1599 C1590 1.390 . S
C1599 H1592 0.950 . S
C1599 C1596 1.387 . S
C1600 C1601 1.387 . S
C1600 H1604 0.950 . S
C1600 C1609 1.390 . S
C1601 C1600 1.387 . S
C1601 C1603 1.387 . S
H1602 C1609 0.950 . S
C1603 C1601 1.387 . S
C1603 C1605 1.390 . S
C1603 H1607 0.950 . S
H1604 C1600 0.950 . S
C1605 C1603 1.390 . S
C1605 C1606 1.387 . S
C1605 H1608 0.950 . S
C1606 C1605 1.387 . S
C1606 C1609 1.387 . S
H1607 C1603 0.950 . S
H1608 C1605 0.950 . S
C1609 C1600 1.390 . S
C1609 H1602 0.950 . S
C1609 C1606 1.387 . S
C1610 C1611 1.387 . S
C1610 H1614 0.950 . S
C1610 C1619 1.390 . S
C1611 C1610 1.387 . S
C1611 C1613 1.387 . S
H1612 C1619 0.950 . S
C1613 C1611 1.387 . S
C1613 C1615 1.390 . S
C1613 H1617 0.950 . S
H1614 C1610 0.950 . S
C1615 C1613 1.390 . S
C1615 C1616 1.387 . S
C1615 H1618 0.950 . S
C1616 C1615 1.387 . S
C1616 C1619 1.387 . S
H1617 C1613 0.950 . S
H1618 C1615 0.950 . S
C1619 C1610 1.390 . S
C1619 H1612 0.950 . S
C1619 C1616 1.387 . S
C1620 C1621 1.387 . S
C1620 H1624 0.950 . S
C1620 C1629 1.390 . S
C1621 C1620 1.387 . S
C1621 C1623 1.387 . S
H1622 C1629 0.950 . S
C1623 C1621 1.387 . S
C1623 C1625 1.390 . S
C1623 H1627 0.950 . S
H1624 C1620 0.950 . S
C1625 C1623 1.390 . S
C1625 C1626 1.387 . S
C1625 H1628 0.950 . S
C1626 C1625 1.387 . S
C1626 C1629 1.387 . S
H1627 C1623 0.950 . S
H1628 C1625 0.950 . S
C1629 C1620 1.390 . S
C1629 H1622 0.950 . S
C1629 C1626 1.387 . S
C1630 C1631 1.387 . S
C1630 H1634 0.950 . S
C1630 C1639 1.390 . S
C1631 C1630 1.387 . S
C1631 C1633 1.387 . S
H1632 C1639 0.950 . S
C1633 C1631 1.387 . S
C1633 C1635 1.390 . S
C1633 H1637 0.950 . S
H1634 C1630 0.950 . S
C1635 C1633 1.390 . S
C1635 C1636 1.387 . S
C1635 H1638 0.950 . S
C1636 C1635 1.387 . S
C1636 C1639 1.387 . S
H1637 C1633 0.950 . S
H1638 C1635 0.950 . S
C1639 C1630 1.390 . S
C1639 H1632 0.950 . S
C1639 C1636 1.387 . S
C1640 C1641 1.387 . S
C1640 H1644 0.950 . S
C1640 C1649 1.390 . S
C1641 C1640 1.387 . S
C1641 C1643 1.387 . S
H1642 C1649 0.950 . S
C1643 C1641 1.387 . S
C1643 C1645 1.390 . S
C1643 H1647 0.950 . S
H1644 C1640 0.950 . S
C1645 C1643 1.390 . S
C1645 C1646 1.387 . S
C1645 H1648 0.950 . S
C1646 C1645 1.387 . S
C1646 C1649 1.387 . S
H1647 C1643 0.950 . S
H1648 C1645 0.950 . S
C1649 C1640 1.390 . S
C1649 H1642 0.950 . S
C1649 C1646 1.387 . S
C1650 C1651 1.387 . S
C1650 H1654 0.950 . S
C1650 C1659 1.390 . S
C1651 C1650 1.387 . S
C1651 C1653 1.387 1_554 S
H1652 C1659 0.950 . S
C1653 C1651 1.387 1_556 S
C1653 C1655 1.390 . S
C1653 H1657 0.950 . S
H1654 C1650 0.950 . S
C1655 C1653 1.390 . S
C1655 C1656 1.387 1_556 S
C1655 H1658 0.950 . S
C1656 C1655 1.387 1_554 S
C1656 C1659 1.387 . S
H1657 C1653 0.950 . S
H1658 C1655 0.950 . S
C1659 C1650 1.390 . S
C1659 H1652 0.950 . S
C1659 C1656 1.387 . S
C1660 C1661 1.387 1_556 S
C1660 H1664 0.950 . S
C1660 C1669 1.390 . S
C1661 C1660 1.387 1_554 S
C1661 C1663 1.387 . S
H1662 C1669 0.950 . S
C1663 C1661 1.387 . S
C1663 C1665 1.390 . S
C1663 H1667 0.950 . S
H1664 C1660 0.950 . S
C1665 C1663 1.390 . S
C1665 C1666 1.387 . S
C1665 H1668 0.950 . S
C1666 C1665 1.387 . S
C1666 C1669 1.387 1_554 S
H1667 C1663 0.950 . S
H1668 C1665 0.950 . S
C1669 C1660 1.390 . S
C1669 H1662 0.950 . S
C1669 C1666 1.387 1_556 S
C1670 C1671 1.387 . S
C1670 H1674 0.950 . S
C1670 C1679 1.390 . S
C1671 C1670 1.387 . S
C1671 C1673 1.387 1_554 S
H1672 C1679 0.950 . S
C1673 C1671 1.387 1_556 S
C1673 C1675 1.390 . S
C1673 H1677 0.950 . S
H1674 C1670 0.950 . S
C1675 C1673 1.390 . S
C1675 C1676 1.387 1_556 S
C1675 H1678 0.950 . S
C1676 C1675 1.387 1_554 S
C1676 C1679 1.387 . S
H1677 C1673 0.950 . S
H1678 C1675 0.950 . S
C1679 C1670 1.390 . S
C1679 H1672 0.950 . S
C1679 C1676 1.387 . S
C1680 C1681 1.387 . S
C1680 H1684 0.950 . S
C1680 C1689 1.390 . S
C1681 C1680 1.387 . S
C1681 C1683 1.387 . S
H1682 C1689 0.950 . S
C1683 C1681 1.387 . S
C1683 C1685 1.390 . S
C1683 H1687 0.950 . S
H1684 C1680 0.950 . S
C1685 C1683 1.390 . S
C1685 C1686 1.387 . S
C1685 H1688 0.950 . S
C1686 C1685 1.387 . S
C1686 C1689 1.387 . S
H1687 C1683 0.950 . S
H1688 C1685 0.950 . S
C1689 C1680 1.390 . S
C1689 H1682 0.950 . S
C1689 C1686 1.387 . S
C1690 C1691 1.387 . S
C1690 H1694 0.950 . S
C1690 C1699 1.390 . S
C1691 C1690 1.387 . S
C1691 C1693 1.387 . S
H1692 C1699 0.950 . S
C1693 C1691 1.387 . S
C1693 C1695 1.390 . S
C1693 H1697 0.950 . S
H1694 C1690 0.950 . S
C1695 C1693 1.390 . S
C1695 C1696 1.387 . S
C1695 H1698 0.950 . S
C1696 C1695 1.387 . S
C1696 C1699 1.387 . S
H1697 C1693 0.950 . S
H1698 C1695 0.950 . S
C1699 C1690 1.390 . S
C1699 H1692 0.950 . S
C1699 C1696 1.387 . S
C1700 C1701 1.387 . S
C1700 H1704 0.950 . S
C1700 C1709 1.390 . S
C1701 C1700 1.387 . S
C1701 C1703 1.387 . S
H1702 C1709 0.950 . S
C1703 C1701 1.387 . S
C1703 C1705 1.390 . S
C1703 H1707 0.950 . S
H1704 C1700 0.950 . S
C1705 C1703 1.390 . S
C1705 C1706 1.387 . S
C1705 H1708 0.950 . S
C1706 C1705 1.387 . S
C1706 C1709 1.387 . S
H1707 C1703 0.950 . S
H1708 C1705 0.950 . S
C1709 C1700 1.390 . S
C1709 H1702 0.950 . S
C1709 C1706 1.387 . S
C1710 C1711 1.387 . S
C1710 H1714 0.950 . S
C1710 C1719 1.390 . S
C1711 C1710 1.387 . S
C1711 C1713 1.387 1_556 S
H1712 C1719 0.950 . S
C1713 C1711 1.387 1_554 S
C1713 C1715 1.390 . S
C1713 H1717 0.950 . S
H1714 C1710 0.950 . S
C1715 C1713 1.390 . S
C1715 C1716 1.387 1_554 S
C1715 H1718 0.950 . S
C1716 C1715 1.387 1_556 S
C1716 C1719 1.387 . S
H1717 C1713 0.950 . S
H1718 C1715 0.950 . S
C1719 C1710 1.390 . S
C1719 H1712 0.950 . S
C1719 C1716 1.387 . S
C1720 C1721 1.387 1_554 S
C1720 H1724 0.950 . S
C1720 C1729 1.390 . S
C1721 C1720 1.387 1_556 S
C1721 C1723 1.387 . S
H1722 C1729 0.950 . S
C1723 C1721 1.387 . S
C1723 C1725 1.390 . S
C1723 H1727 0.950 . S
H1724 C1720 0.950 . S
C1725 C1723 1.390 . S
C1725 C1726 1.387 . S
C1725 H1728 0.950 . S
C1726 C1725 1.387 . S
C1726 C1729 1.387 1_556 S
H1727 C1723 0.950 . S
H1728 C1725 0.950 . S
C1729 C1720 1.390 . S
C1729 H1722 0.950 . S
C1729 C1726 1.387 1_554 S
C1730 C1731 1.387 . S
C1730 H1734 0.950 . S
C1730 C1739 1.390 . S
C1731 C1730 1.387 . S
C1731 C1733 1.387 1_556 S
H1732 C1739 0.950 . S
C1733 C1731 1.387 1_554 S
C1733 C1735 1.390 . S
C1733 H1737 0.950 . S
H1734 C1730 0.950 . S
C1735 C1733 1.390 . S
C1735 C1736 1.387 1_554 S
C1735 H1738 0.950 . S
C1736 C1735 1.387 1_556 S
C1736 C1739 1.387 . S
H1737 C1733 0.950 . S
H1738 C1735 0.950 . S
C1739 C1730 1.390 . S
C1739 H1732 0.950 . S
C1739 C1736 1.387 . S
C1740 C1741 1.387 . S
C1740 H1744 0.950 . S
C1740 C1749 1.390 . S
C1741 C1740 1.387 . S
C1741 C1743 1.387 . S
H1742 C1749 0.950 . S
C1743 C1741 1.387 . S
C1743 C1745 1.390 . S
C1743 H1747 0.950 . S
H1744 C1740 0.950 . S
C1745 C1743 1.390 . S
C1745 C1746 1.387 . S
C1745 H1748 0.950 . S
C1746 C1745 1.387 . S
C1746 C1749 1.387 . S
H1747 C1743 0.950 . S
H1748 C1745 0.950 . S
C1749 C1740 1.390 . S
C1749 H1742 0.950 . S
C1749 C1746 1.387 . S
C1750 C1751 1.387 . S
C1750 H1754 0.950 . S
C1750 C1759 1.390 . S
C1751 C1750 1.387 . S
C1751 C1753 1.387 . S
H1752 C1759 0.950 . S
C1753 C1751 1.387 . S
C1753 C1755 1.390 . S
C1753 H1757 0.950 . S
H1754 C1750 0.950 . S
C1755 C1753 1.390 . S
C1755 C1756 1.387 . S
C1755 H1758 0.950 . S
C1756 C1755 1.387 . S
C1756 C1759 1.387 . S
H1757 C1753 0.950 . S
H1758 C1755 0.950 . S
C1759 C1750 1.390 . S
C1759 H1752 0.950 . S
C1759 C1756 1.387 . S
C1760 C1761 1.387 . S
C1760 H1764 0.950 . S
C1760 C1769 1.390 . S
C1761 C1760 1.387 . S
C1761 C1763 1.387 . S
H1762 C1769 0.950 . S
C1763 C1761 1.387 . S
C1763 C1765 1.390 . S
C1763 H1767 0.950 . S
H1764 C1760 0.950 . S
C1765 C1763 1.390 . S
C1765 C1766 1.387 . S
C1765 H1768 0.950 . S
C1766 C1765 1.387 . S
C1766 C1769 1.387 . S
H1767 C1763 0.950 . S
H1768 C1765 0.950 . S
C1769 C1760 1.390 . S
C1769 H1762 0.950 . S
C1769 C1766 1.387 . S
C1770 C1771 1.387 . S
C1770 H1774 0.950 . S
C1770 C1779 1.390 . S
C1771 C1770 1.387 . S
C1771 C1773 1.387 . S
H1772 C1779 0.950 . S
C1773 C1771 1.387 . S
C1773 C1775 1.390 . S
C1773 H1777 0.950 . S
H1774 C1770 0.950 . S
C1775 C1773 1.390 . S
C1775 C1776 1.387 . S
C1775 H1778 0.950 . S
C1776 C1775 1.387 . S
C1776 C1779 1.387 . S
H1777 C1773 0.950 . S
H1778 C1775 0.950 . S
C1779 C1770 1.390 . S
C1779 H1772 0.950 . S
C1779 C1776 1.387 . S
C1780 C1781 1.387 . S
C1780 H1784 0.950 . S
C1780 C1789 1.390 . S
C1781 C1780 1.387 . S
C1781 C1783 1.387 . S
H1782 C1789 0.950 . S
C1783 C1781 1.387 . S
C1783 C1785 1.390 . S
C1783 H1787 0.950 . S
H1784 C1780 0.950 . S
C1785 C1783 1.390 . S
C1785 C1786 1.387 . S
C1785 H1788 0.950 . S
C1786 C1785 1.387 . S
C1786 C1789 1.387 . S
H1787 C1783 0.950 . S
H1788 C1785 0.950 . S
C1789 C1780 1.390 . S
C1789 H1782 0.950 . S
C1789 C1786 1.387 . S
C1790 C1791 1.387 . S
C1790 H1794 0.950 . S
C1790 C1799 1.390 . S
C1791 C1790 1.387 . S
C1791 C1793 1.387 . S
H1792 C1799 0.950 . S
C1793 C1791 1.387 . S
C1793 C1795 1.390 . S
C1793 H1797 0.950 . S
H1794 C1790 0.950 . S
C1795 C1793 1.390 . S
C1795 C1796 1.387 . S
C1795 H1798 0.950 . S
C1796 C1795 1.387 . S
C1796 C1799 1.387 . S
H1797 C1793 0.950 . S
H1798 C1795 0.950 . S
C1799 C1790 1.390 . S
C1799 H1792 0.950 . S
C1799 C1796 1.387 . S
C1800 C1801 1.387 . S
C1800 H1804 0.950 . S
C1800 C1809 1.390 . S
C1801 C1800 1.387 . S
C1801 C1803 1.387 . S
H1802 C1809 0.950 . S
C1803 C1801 1.387 . S
C1803 C1805 1.390 . S
C1803 H1807 0.950 . S
H1804 C1800 0.950 . S
C1805 C1803 1.390 . S
C1805 C1806 1.387 . S
C1805 H1808 0.950 . S
C1806 C1805 1.387 . S
C1806 C1809 1.387 . S
H1807 C1803 0.950 . S
H1808 C1805 0.950 . S
C1809 C1800 1.390 . S
C1809 H1802 0.950 . S
C1809 C1806 1.387 . S
C1810 C1811 1.387 1_545 S
C1810 H1814 0.950 . S
C1810 C1819 1.390 1_545 S
C1811 C1810 1.387 1_565 S
C1811 C1813 1.387 . S
H1812 C1819 0.950 1_545 S
C1813 C1811 1.387 . S
C1813 C1815 1.390 . S
C1813 H1817 0.950 . S
H1814 C1810 0.950 . S
C1815 C1813 1.390 . S
C1815 C1816 1.387 . S
C1815 H1818 0.950 . S
C1816 C1815 1.387 . S
C1816 C1819 1.387 . S
H1817 C1813 0.950 . S
H1818 C1815 0.950 . S
C1819 C1810 1.390 1_565 S
C1819 H1812 0.950 1_565 S
C1819 C1816 1.387 . S
C1820 C1821 1.387 . S
C1820 H1824 0.950 . S
C1820 C1829 1.390 . S
C1821 C1820 1.387 . S
C1821 C1823 1.387 . S
H1822 C1829 0.950 1_655 S
C1823 C1821 1.387 . S
C1823 C1825 1.390 . S
C1823 H1827 0.950 . S
H1824 C1820 0.950 . S
C1825 C1823 1.390 . S
C1825 C1826 1.387 . S
C1825 H1828 0.950 . S
C1826 C1825 1.387 . S
C1826 C1829 1.387 . S
H1827 C1823 0.950 . S
H1828 C1825 0.950 . S
C1829 C1820 1.390 . S
C1829 H1822 0.950 1_455 S
C1829 C1826 1.387 . S
C1830 C1831 1.387 . S
C1830 H1834 0.950 . S
C1830 C1839 1.390 . S
C1831 C1830 1.387 . S
C1831 C1833 1.387 . S
H1832 C1839 0.950 . S
C1833 C1831 1.387 . S
C1833 C1835 1.390 . S
C1833 H1837 0.950 . S
H1834 C1830 0.950 . S
C1835 C1833 1.390 . S
C1835 C1836 1.387 . S
C1835 H1838 0.950 . S
C1836 C1835 1.387 . S
C1836 C1839 1.387 . S
H1837 C1833 0.950 . S
H1838 C1835 0.950 . S
C1839 C1830 1.390 . S
C1839 H1832 0.950 . S
C1839 C1836 1.387 . S
C1840 C1841 1.387 . S
C1840 H1844 0.950 . S
C1840 C1849 1.390 . S
C1841 C1840 1.387 . S
C1841 C1843 1.387 . S
H1842 C1849 0.950 . S
C1843 C1841 1.387 . S
C1843 C1845 1.390 . S
C1843 H1847 0.950 . S
H1844 C1840 0.950 . S
C1845 C1843 1.390 . S
C1845 C1846 1.387 . S
C1845 H1848 0.950 . S
C1846 C1845 1.387 . S
C1846 C1849 1.387 . S
H1847 C1843 0.950 . S
H1848 C1845 0.950 . S
C1849 C1840 1.390 . S
C1849 H1842 0.950 . S
C1849 C1846 1.387 . S
C1850 C1851 1.387 . S
C1850 H1854 0.950 . S
C1850 C1859 1.390 . S
C1851 C1850 1.387 . S
C1851 C1853 1.387 . S
H1852 C1859 0.950 . S
C1853 C1851 1.387 . S
C1853 C1855 1.390 . S
C1853 H1857 0.950 . S
H1854 C1850 0.950 . S
C1855 C1853 1.390 . S
C1855 C1856 1.387 . S
C1855 H1858 0.950 . S
C1856 C1855 1.387 . S
C1856 C1859 1.387 . S
H1857 C1853 0.950 . S
H1858 C1855 0.950 . S
C1859 C1850 1.390 . S
C1859 H1852 0.950 . S
C1859 C1856 1.387 . S
C1860 C1861 1.387 . S
C1860 H1864 0.950 . S
C1860 C1869 1.390 . S
C1861 C1860 1.387 . S
C1861 C1863 1.387 . S
H1862 C1869 0.950 . S
C1863 C1861 1.387 . S
C1863 C1865 1.390 . S
C1863 H1867 0.950 . S
H1864 C1860 0.950 . S
C1865 C1863 1.390 . S
C1865 C1866 1.387 . S
C1865 H1868 0.950 . S
C1866 C1865 1.387 . S
C1866 C1869 1.387 . S
H1867 C1863 0.950 . S
H1868 C1865 0.950 . S
C1869 C1860 1.390 . S
C1869 H1862 0.950 . S
C1869 C1866 1.387 . S
C1870 C1871 1.387 . S
C1870 H1874 0.950 . S
C1870 C1879 1.390 . S
C1871 C1870 1.387 . S
C1871 C1873 1.387 . S
H1872 C1879 0.950 . S
C1873 C1871 1.387 . S
C1873 C1875 1.390 . S
C1873 H1877 0.950 . S
H1874 C1870 0.950 . S
C1875 C1873 1.390 . S
C1875 C1876 1.387 . S
C1875 H1878 0.950 1_545 S
C1876 C1875 1.387 . S
C1876 C1879 1.387 . S
H1877 C1873 0.950 . S
H1878 C1875 0.950 1_565 S
C1879 C1870 1.390 . S
C1879 H1872 0.950 . S
C1879 C1876 1.387 . S
C1880 C1881 1.387 1_455 S
C1880 H1884 0.950 . S
C1880 C1889 1.390 . S
C1881 C1880 1.387 1_655 S
C1881 C1883 1.387 . S
H1882 C1889 0.950 . S
C1883 C1881 1.387 . S
C1883 C1885 1.390 . S
C1883 H1887 0.950 . S
H1884 C1880 0.950 . S
C1885 C1883 1.390 . S
C1885 C1886 1.387 . S
C1885 H1888 0.950 . S
C1886 C1885 1.387 . S
C1886 C1889 1.387 1_655 S
H1887 C1883 0.950 . S
H1888 C1885 0.950 . S
C1889 C1880 1.390 . S
C1889 H1882 0.950 . S
C1889 C1886 1.387 1_455 S
C1890 C1891 1.387 . S
C1890 H1894 0.950 . S
C1890 C1899 1.390 . S
C1891 C1890 1.387 . S
C1891 C1893 1.387 . S
H1892 C1899 0.950 . S
C1893 C1891 1.387 . S
C1893 C1895 1.390 . S
C1893 H1897 0.950 . S
H1894 C1890 0.950 . S
C1895 C1893 1.390 . S
C1895 C1896 1.387 . S
C1895 H1898 0.950 . S
C1896 C1895 1.387 . S
C1896 C1899 1.387 . S
H1897 C1893 0.950 . S
H1898 C1895 0.950 . S
C1899 C1890 1.390 . S
C1899 H1892 0.950 . S
C1899 C1896 1.387 . S
C1900 C1901 1.387 . S
C1900 H1904 0.950 . S
C1900 C1909 1.390 . S
C1901 C1900 1.387 . S
C1901 C1903 1.387 . S
H1902 C1909 0.950 . S
C1903 C1901 1.387 . S
C1903 C1905 1.390 . S
C1903 H1907 0.950 . S
H1904 C1900 0.950 . S
C1905 C1903 1.390 . S
C1905 C1906 1.387 . S
C1905 H1908 0.950 . S
C1906 C1905 1.387 . S
C1906 C1909 1.387 . S
H1907 C1903 0.950 . S
H1908 C1905 0.950 . S
C1909 C1900 1.390 . S
C1909 H1902 0.950 . S
C1909 C1906 1.387 . S
C1910 C1911 1.387 . S
C1910 H1914 0.950 . S
C1910 C1919 1.390 . S
C1911 C1910 1.387 . S
C1911 C1913 1.387 . S
H1912 C1919 0.950 . S
C1913 C1911 1.387 . S
C1913 C1915 1.390 . S
C1913 H1917 0.950 . S
H1914 C1910 0.950 . S
C1915 C1913 1.390 . S
C1915 C1916 1.387 . S
C1915 H1918 0.950 . S
C1916 C1915 1.387 . S
C1916 C1919 1.387 . S
H1917 C1913 0.950 . S
H1918 C1915 0.950 . S
C1919 C1910 1.390 . S
C1919 H1912 0.950 . S
C1919 C1916 1.387 . S
C1920 C1921 1.387 1_455 S
C1920 H1924 0.949 . S
C1920 C1929 1.390 . S
C1921 C1920 1.387 1_655 S
C1921 C1923 1.387 . S
H1922 C1929 0.950 . S
C1923 C1921 1.387 . S
C1923 C1925 1.390 1_655 S
C1923 H1927 0.950 . S
H1924 C1920 0.949 . S
C1925 C1923 1.390 1_455 S
C1925 C1926 1.387 . S
C1925 H1928 0.950 . S
C1926 C1925 1.387 . S
C1926 C1929 1.387 . S
H1927 C1923 0.950 . S
H1928 C1925 0.950 . S
C1929 C1920 1.390 . S
C1929 H1922 0.950 . S
C1929 C1926 1.387 . S
C1930 C1931 1.387 . S
C1930 H1934 0.950 . S
C1930 C1939 1.390 . S
C1931 C1930 1.387 . S
C1931 C1933 1.387 . S
H1932 C1939 0.950 . S
C1933 C1931 1.387 . S
C1933 C1935 1.390 . S
C1933 H1937 0.950 . S
H1934 C1930 0.950 . S
C1935 C1933 1.390 . S
C1935 C1936 1.387 . S
C1935 H1938 0.950 . S
C1936 C1935 1.387 . S
C1936 C1939 1.387 . S
H1937 C1933 0.950 . S
H1938 C1935 0.950 . S
C1939 C1930 1.390 . S
C1939 H1932 0.950 . S
C1939 C1936 1.387 . S
C1940 C1941 1.387 . S
C1940 H1944 0.950 . S
C1940 C1949 1.390 . S
C1941 C1940 1.387 . S
C1941 C1943 1.387 . S
H1942 C1949 0.950 1_545 S
C1943 C1941 1.387 . S
C1943 C1945 1.390 . S
C1943 H1947 0.950 . S
H1944 C1940 0.950 . S
C1945 C1943 1.390 . S
C1945 C1946 1.387 1_565 S
C1945 H1948 0.950 1_565 S
C1946 C1945 1.387 1_545 S
C1946 C1949 1.387 1_545 S
H1947 C1943 0.950 . S
H1948 C1945 0.950 1_545 S
C1949 C1940 1.390 . S
C1949 H1942 0.950 1_565 S
C1949 C1946 1.387 1_565 S
C1950 C1951 1.387 . S
C1950 H1954 0.950 . S
C1950 C1959 1.390 . S
C1951 C1950 1.387 . S
C1951 C1953 1.387 . S
H1952 C1959 0.950 . S
C1953 C1951 1.387 . S
C1953 C1955 1.390 . S
C1953 H1957 0.950 . S
H1954 C1950 0.950 . S
C1955 C1953 1.390 . S
C1955 C1956 1.387 . S
C1955 H1958 0.950 . S
C1956 C1955 1.387 . S
C1956 C1959 1.387 . S
H1957 C1953 0.950 . S
H1958 C1955 0.950 . S
C1959 C1950 1.390 . S
C1959 H1952 0.950 . S
C1959 C1956 1.387 . S
C1960 C1961 1.387 . S
C1960 H1964 0.950 . S
C1960 C1969 1.390 . S
C1961 C1960 1.387 . S
C1961 C1963 1.387 . S
H1962 C1969 0.950 . S
C1963 C1961 1.387 . S
C1963 C1965 1.390 . S
C1963 H1967 0.950 . S
H1964 C1960 0.950 . S
C1965 C1963 1.390 . S
C1965 C1966 1.387 . S
C1965 H1968 0.950 . S
C1966 C1965 1.387 . S
C1966 C1969 1.387 . S
H1967 C1963 0.950 . S
H1968 C1965 0.950 . S
C1969 C1960 1.390 . S
C1969 H1962 0.950 . S
C1969 C1966 1.387 . S
C1970 C1971 1.387 . S
C1970 H1974 0.950 . S
C1970 C1979 1.390 . S
C1971 C1970 1.387 . S
C1971 C1973 1.387 . S
H1972 C1979 0.950 . S
C1973 C1971 1.387 . S
C1973 C1975 1.390 . S
C1973 H1977 0.950 . S
H1974 C1970 0.950 . S
C1975 C1973 1.390 . S
C1975 C1976 1.387 . S
C1975 H1978 0.950 . S
C1976 C1975 1.387 . S
C1976 C1979 1.387 . S
H1977 C1973 0.950 . S
H1978 C1975 0.950 . S
C1979 C1970 1.390 . S
C1979 H1972 0.950 . S
C1979 C1976 1.387 . S
C1980 C1981 1.387 . S
C1980 H1984 0.950 . S
C1980 C1989 1.390 . S
C1981 C1980 1.387 . S
C1981 C1983 1.387 . S
H1982 C1989 0.950 . S
C1983 C1981 1.387 . S
C1983 C1985 1.390 . S
C1983 H1987 0.950 . S
H1984 C1980 0.950 . S
C1985 C1983 1.390 . S
C1985 C1986 1.387 . S
C1985 H1988 0.950 . S
C1986 C1985 1.387 . S
C1986 C1989 1.387 . S
H1987 C1983 0.950 . S
H1988 C1985 0.950 . S
C1989 C1980 1.390 . S
C1989 H1982 0.950 . S
C1989 C1986 1.387 . S
C1990 C1991 1.387 . S
C1990 H1994 0.950 . S
C1990 C1999 1.390 . S
C1991 C1990 1.387 . S
C1991 C1993 1.387 . S
H1992 C1999 0.950 . S
C1993 C1991 1.387 . S
C1993 C1995 1.390 . S
C1993 H1997 0.950 . S
H1994 C1990 0.950 . S
C1995 C1993 1.390 . S
C1995 C1996 1.387 . S
C1995 H1998 0.950 . S
C1996 C1995 1.387 . S
C1996 C1999 1.387 . S
H1997 C1993 0.950 . S
H1998 C1995 0.950 . S
C1999 C1990 1.390 . S
C1999 H1992 0.950 . S
C1999 C1996 1.387 . S
C2000 C2001 1.387 . S
C2000 H2004 0.950 . S
C2000 C2009 1.390 . S
C2001 C2000 1.387 . S
C2001 C2003 1.387 . S
H2002 C2009 0.950 . S
C2003 C2001 1.387 . S
C2003 C2005 1.390 . S
C2003 H2007 0.950 . S
H2004 C2000 0.950 . S
C2005 C2003 1.390 . S
C2005 C2006 1.387 . S
C2005 H2008 0.950 . S
C2006 C2005 1.387 . S
C2006 C2009 1.387 . S
H2007 C2003 0.950 . S
H2008 C2005 0.950 . S
C2009 C2000 1.390 . S
C2009 H2002 0.950 . S
C2009 C2006 1.387 . S
C2010 C2011 1.381 1_554 S
C2010 H2014 0.950 . S
C2010 C2019 1.390 1_564 S
C2011 C2010 1.381 1_556 S
C2011 C2013 1.400 . S
H2012 C2019 0.949 1_554 S
C2013 C2011 1.400 . S
C2013 C2015 1.390 . S
C2013 H2017 0.950 . S
H2014 C2010 0.950 . S
C2015 C2013 1.390 . S
C2015 C2016 1.387 1_565 S
C2015 H2018 0.950 1_565 S
C2016 C2015 1.387 1_545 S
C2016 C2019 1.388 . S
H2017 C2013 0.950 . S
H2018 C2015 0.950 1_545 S
C2019 C2010 1.390 1_546 S
C2019 H2012 0.949 1_556 S
C2019 C2016 1.388 . S
C2020 C2021 1.413 . S
C2020 H2024 0.950 . S
C2020 C2029 1.390 . S
C2021 C2020 1.413 . S
C2021 C2023 1.367 1_556 S
H2022 C2029 0.950 1_655 S
C2023 C2021 1.367 1_554 S
C2023 C2025 1.390 1_455 S
C2023 H2027 0.950 . S
H2024 C2020 0.950 . S
C2025 C2023 1.390 1_655 S
C2025 C2026 1.387 1_554 S
C2025 H2028 0.950 . S
C2026 C2025 1.387 1_556 S
C2026 C2029 1.387 1_655 S
H2027 C2023 0.950 . S
H2028 C2025 0.950 . S
C2029 C2020 1.390 . S
C2029 H2022 0.950 1_455 S
C2029 C2026 1.387 1_455 S
C2030 C2031 1.387 . S
C2030 H2034 0.950 . S
C2030 C2039 1.390 . S
C2031 C2030 1.387 . S
C2031 C2033 1.387 1_556 S
H2032 C2039 0.950 . S
C2033 C2031 1.387 1_554 S
C2033 C2035 1.390 . S
C2033 H2037 0.950 . S
H2034 C2030 0.950 . S
C2035 C2033 1.390 . S
C2035 C2036 1.357 1_554 S
C2035 H2038 0.950 . S
C2036 C2035 1.357 1_556 S
C2036 C2039 1.428 . S
H2037 C2033 0.950 . S
H2038 C2035 0.950 . S
C2039 C2030 1.390 . S
C2039 H2032 0.950 . S
C2039 C2036 1.428 . S
C2040 C2041 1.387 . S
C2040 H2044 0.950 . S
C2040 C2049 1.390 . S
C2041 C2040 1.387 . S
C2041 C2043 1.387 . S
H2042 C2049 0.950 . S
C2043 C2041 1.387 . S
C2043 C2045 1.390 . S
C2043 H2047 0.950 . S
H2044 C2040 0.950 . S
C2045 C2043 1.390 . S
C2045 C2046 1.387 . S
C2045 H2048 0.950 . S
C2046 C2045 1.387 . S
C2046 C2049 1.387 . S
H2047 C2043 0.950 . S
H2048 C2045 0.950 . S
C2049 C2040 1.390 . S
C2049 H2042 0.950 . S
C2049 C2046 1.387 . S
C2050 C2051 1.387 . S
C2050 H2054 0.950 . S
C2050 C2059 1.390 . S
C2051 C2050 1.387 . S
C2051 C2053 1.387 . S
H2052 C2059 0.950 . S
C2053 C2051 1.387 . S
C2053 C2055 1.390 . S
C2053 H2057 0.950 . S
H2054 C2050 0.950 . S
C2055 C2053 1.390 . S
C2055 C2056 1.387 . S
C2055 H2058 0.950 . S
C2056 C2055 1.387 . S
C2056 C2059 1.387 . S
H2057 C2053 0.950 . S
H2058 C2055 0.950 . S
C2059 C2050 1.390 . S
C2059 H2052 0.950 . S
C2059 C2056 1.387 . S
C2060 C2061 1.387 . S
C2060 H2064 0.950 . S
C2060 C2069 1.390 . S
C2061 C2060 1.387 . S
C2061 C2063 1.387 . S
H2062 C2069 0.950 . S
C2063 C2061 1.387 . S
C2063 C2065 1.390 . S
C2063 H2067 0.950 . S
H2064 C2060 0.950 . S
C2065 C2063 1.390 . S
C2065 C2066 1.387 . S
C2065 H2068 0.950 . S
C2066 C2065 1.387 . S
C2066 C2069 1.387 . S
H2067 C2063 0.950 . S
H2068 C2065 0.950 . S
C2069 C2060 1.390 . S
C2069 H2062 0.950 . S
C2069 C2066 1.387 . S
C2070 C2071 1.387 1_556 S
C2070 H2074 0.950 . S
C2070 C2079 1.390 1_565 S
C2071 C2070 1.387 1_554 S
C2071 C2073 1.387 1_565 S
H2072 C2079 0.950 . S
C2073 C2071 1.387 1_545 S
C2073 C2075 1.390 . S
C2073 H2077 0.950 1_545 S
H2074 C2070 0.950 . S
C2075 C2073 1.390 . S
C2075 C2076 1.440 . S
C2075 H2078 0.950 . S
C2076 C2075 1.440 . S
C2076 C2079 1.345 1_554 S
H2077 C2073 0.950 1_565 S
H2078 C2075 0.950 . S
C2079 C2070 1.390 1_545 S
C2079 H2072 0.950 . S
C2079 C2076 1.345 1_556 S
C2080 C2081 1.412 . S
C2080 H2084 0.950 . S
C2080 C2089 1.390 . S
C2081 C2080 1.412 . S
C2081 C2083 1.369 1_554 S
H2082 C2089 0.950 1_455 S
C2083 C2081 1.369 1_556 S
C2083 C2085 1.390 1_655 S
C2083 H2087 0.950 . S
H2084 C2080 0.950 . S
C2085 C2083 1.390 1_455 S
C2085 C2086 1.387 1_556 S
C2085 H2088 0.950 . S
C2086 C2085 1.387 1_554 S
C2086 C2089 1.387 1_455 S
H2087 C2083 0.950 . S
H2088 C2085 0.950 . S
C2089 C2080 1.390 . S
C2089 H2082 0.950 1_655 S
C2089 C2086 1.387 1_655 S
C2090 C2091 1.387 1_556 S
C2090 H2094 0.950 . S
C2090 C2099 1.390 . S
C2091 C2090 1.387 1_554 S
C2091 C2093 1.387 . S
H2092 C2099 0.950 . S
C2093 C2091 1.387 . S
C2093 C2095 1.390 . S
C2093 H2097 0.950 . S
H2094 C2090 0.950 . S
C2095 C2093 1.390 . S
C2095 C2096 1.440 . S
C2095 H2098 0.950 . S
C2096 C2095 1.440 . S
C2096 C2099 1.345 1_554 S
H2097 C2093 0.950 . S
H2098 C2095 0.950 . S
C2099 C2090 1.390 . S
C2099 H2092 0.950 . S
C2099 C2096 1.345 1_556 S
C2100 C2101 1.387 1_655 S
C2100 H2104 0.950 1_655 S
C2100 C2109 1.390 . S
C2101 C2100 1.387 1_455 S
C2101 C2103 1.387 1_455 S
H2102 C2109 0.950 . S
C2103 C2101 1.387 1_655 S
C2103 C2105 1.390 . S
C2103 H2107 0.950 1_655 S
H2104 C2100 0.950 1_455 S
C2105 C2103 1.390 . S
C2105 C2106 1.387 . S
C2105 H2108 0.950 . S
C2106 C2105 1.387 . S
C2106 C2109 1.387 . S
H2107 C2103 0.950 1_455 S
H2108 C2105 0.950 . S
C2109 C2100 1.390 . S
C2109 H2102 0.950 . S
C2109 C2106 1.387 . S
C2110 C2111 1.387 . S
C2110 H2114 0.950 . S
C2110 C2119 1.390 . S
C2111 C2110 1.387 . S
C2111 C2113 1.387 . S
H2112 C2119 0.950 . S
C2113 C2111 1.387 . S
C2113 C2115 1.390 . S
C2113 H2117 0.950 . S
H2114 C2110 0.950 . S
C2115 C2113 1.390 . S
C2115 C2116 1.387 . S
C2115 H2118 0.950 . S
C2116 C2115 1.387 . S
C2116 C2119 1.387 . S
H2117 C2113 0.950 . S
H2118 C2115 0.950 . S
C2119 C2110 1.390 . S
C2119 H2112 0.950 . S
C2119 C2116 1.387 . S
C2120 C2121 1.387 . S
C2120 H2124 0.950 . S
C2120 C2129 1.390 1_565 S
C2121 C2120 1.387 . S
C2121 C2123 1.387 1_565 S
H2122 C2129 0.950 . S
C2123 C2121 1.387 1_545 S
C2123 C2125 1.390 . S
C2123 H2127 0.950 . S
H2124 C2120 0.950 . S
C2125 C2123 1.390 . S
C2125 C2126 1.387 . S
C2125 H2128 0.950 . S
C2126 C2125 1.387 . S
C2126 C2129 1.387 . S
H2127 C2123 0.950 . S
H2128 C2125 0.950 . S
C2129 C2120 1.390 1_545 S
C2129 H2122 0.950 . S
C2129 C2126 1.387 . S
C2130 C2131 1.387 . S
C2130 H2134 0.950 . S
C2130 C2139 1.390 . S
C2131 C2130 1.387 . S
C2131 C2133 1.387 . S
H2132 C2139 0.950 . S
C2133 C2131 1.387 . S
C2133 C2135 1.390 . S
C2133 H2137 0.950 . S
H2134 C2130 0.950 . S
C2135 C2133 1.390 . S
C2135 C2136 1.387 . S
C2135 H2138 0.950 . S
C2136 C2135 1.387 . S
C2136 C2139 1.387 . S
H2137 C2133 0.950 . S
H2138 C2135 0.950 . S
C2139 C2130 1.390 . S
C2139 H2132 0.950 . S
C2139 C2136 1.387 . S
C2140 C2141 1.387 . S
C2140 H2144 0.950 . S
C2140 C2149 1.390 . S
C2141 C2140 1.387 . S
C2141 C2143 1.387 . S
H2142 C2149 0.950 . S
C2143 C2141 1.387 . S
C2143 C2145 1.390 . S
C2143 H2147 0.950 . S
H2144 C2140 0.950 . S
C2145 C2143 1.390 . S
C2145 C2146 1.387 . S
C2145 H2148 0.950 . S
C2146 C2145 1.387 . S
C2146 C2149 1.387 . S
H2147 C2143 0.950 . S
H2148 C2145 0.950 . S
C2149 C2140 1.390 . S
C2149 H2142 0.950 . S
C2149 C2146 1.387 . S
C2150 C2151 1.387 . S
C2150 H2154 0.950 . S
C2150 C2159 1.390 . S
C2151 C2150 1.387 . S
C2151 C2153 1.387 . S
H2152 C2159 0.950 . S
C2153 C2151 1.387 . S
C2153 C2155 1.390 . S
C2153 H2157 0.950 . S
H2154 C2150 0.950 . S
C2155 C2153 1.390 . S
C2155 C2156 1.387 . S
C2155 H2158 0.950 . S
C2156 C2155 1.387 . S
C2156 C2159 1.387 . S
H2157 C2153 0.950 . S
H2158 C2155 0.950 . S
C2159 C2150 1.390 . S
C2159 H2152 0.950 . S
C2159 C2156 1.387 . S
C2160 C2161 1.387 . S
C2160 H2164 0.950 . S
C2160 C2169 1.390 . S
C2161 C2160 1.387 . S
C2161 C2163 1.387 . S
H2162 C2169 0.950 . S
C2163 C2161 1.387 . S
C2163 C2165 1.390 . S
C2163 H2167 0.950 . S
H2164 C2160 0.950 . S
C2165 C2163 1.390 . S
C2165 C2166 1.387 . S
C2165 H2168 0.950 . S
C2166 C2165 1.387 . S
C2166 C2169 1.387 . S
H2167 C2163 0.950 . S
H2168 C2165 0.950 . S
C2169 C2160 1.390 . S
C2169 H2162 0.950 . S
C2169 C2166 1.387 . S
C2170 C2171 1.387 . S
C2170 H2174 0.950 . S
C2170 C2179 1.390 . S
C2171 C2170 1.387 . S
C2171 C2173 1.387 . S
H2172 C2179 0.950 . S
C2173 C2171 1.387 . S
C2173 C2175 1.390 . S
C2173 H2177 0.950 1_565 S
H2174 C2170 0.950 . S
C2175 C2173 1.390 . S
C2175 C2176 1.387 . S
C2175 H2178 0.950 1_565 S
C2176 C2175 1.387 . S
C2176 C2179 1.387 . S
H2177 C2173 0.950 1_545 S
H2178 C2175 0.950 1_545 S
C2179 C2170 1.390 . S
C2179 H2172 0.950 . S
C2179 C2176 1.387 . S
C2180 C2181 1.387 . S
C2180 H2184 0.950 . S
C2180 C2189 1.390 . S
C2181 C2180 1.387 . S
C2181 C2183 1.387 . S
H2182 C2189 0.950 . S
C2183 C2181 1.387 . S
C2183 C2185 1.390 . S
C2183 H2187 0.950 . S
H2184 C2180 0.950 . S
C2185 C2183 1.390 . S
C2185 C2186 1.387 . S
C2185 H2188 0.950 . S
C2186 C2185 1.387 . S
C2186 C2189 1.387 . S
H2187 C2183 0.950 . S
H2188 C2185 0.950 . S
C2189 C2180 1.390 . S
C2189 H2182 0.950 . S
C2189 C2186 1.387 . S
C2190 C2191 1.387 . S
C2190 H2194 0.950 . S
C2190 C2199 1.390 . S
C2191 C2190 1.387 . S
C2191 C2193 1.387 . S
H2192 C2199 0.950 . S
C2193 C2191 1.387 . S
C2193 C2195 1.390 . S
C2193 H2197 0.950 . S
H2194 C2190 0.950 . S
C2195 C2193 1.390 . S
C2195 C2196 1.387 . S
C2195 H2198 0.950 . S
C2196 C2195 1.387 . S
C2196 C2199 1.387 . S
H2197 C2193 0.950 . S
H2198 C2195 0.950 . S
C2199 C2190 1.390 . S
C2199 H2192 0.950 . S
C2199 C2196 1.387 . S
C2200 C2201 1.387 . S
C2200 H2204 0.950 1_545 S
C2200 C2209 1.390 . S
C2201 C2200 1.387 . S
C2201 C2203 1.387 . S
H2202 C2209 0.950 1_565 S
C2203 C2201 1.387 . S
C2203 C2205 1.390 . S
C2203 H2207 0.950 . S
H2204 C2200 0.950 1_565 S
C2205 C2203 1.390 . S
C2205 C2206 1.387 . S
C2205 H2208 0.950 . S
C2206 C2205 1.387 . S
C2206 C2209 1.387 . S
H2207 C2203 0.950 . S
H2208 C2205 0.950 . S
C2209 C2200 1.390 . S
C2209 H2202 0.950 1_545 S
C2209 C2206 1.387 . S
C2210 C2211 1.387 . S
C2210 H2214 0.950 . S
C2210 C2219 1.390 . S
C2211 C2210 1.387 . S
C2211 C2213 1.387 . S
H2212 C2219 0.950 1_455 S
C2213 C2211 1.387 . S
C2213 C2215 1.390 . S
C2213 H2217 0.950 . S
H2214 C2210 0.950 . S
C2215 C2213 1.390 . S
C2215 C2216 1.387 . S
C2215 H2218 0.950 . S
C2216 C2215 1.387 . S
C2216 C2219 1.387 . S
H2217 C2213 0.950 . S
H2218 C2215 0.950 . S
C2219 C2210 1.390 . S
C2219 H2212 0.950 1_655 S
C2219 C2216 1.387 . S
C2220 C2221 1.387 . S
C2220 H2224 0.950 . S
C2220 C2229 1.390 . S
C2221 C2220 1.387 . S
C2221 C2223 1.387 . S
H2222 C2229 0.950 . S
C2223 C2221 1.387 . S
C2223 C2225 1.390 . S
C2223 H2227 0.950 . S
H2224 C2220 0.950 . S
C2225 C2223 1.390 . S
C2225 C2226 1.387 . S
C2225 H2228 0.950 . S
C2226 C2225 1.387 . S
C2226 C2229 1.387 . S
H2227 C2223 0.950 . S
H2228 C2225 0.950 . S
C2229 C2220 1.390 . S
C2229 H2222 0.950 . S
C2229 C2226 1.387 . S
C2230 C2231 1.387 . S
C2230 H2234 0.950 1_545 S
C2230 C2239 1.390 . S
C2231 C2230 1.387 . S
C2231 C2233 1.387 . S
H2232 C2239 0.950 1_565 S
C2233 C2231 1.387 . S
C2233 C2235 1.390 . S
C2233 H2237 0.950 . S
H2234 C2230 0.950 1_565 S
C2235 C2233 1.390 . S
C2235 C2236 1.387 . S
C2235 H2238 0.950 . S
C2236 C2235 1.387 . S
C2236 C2239 1.387 . S
H2237 C2233 0.950 . S
H2238 C2235 0.950 . S
C2239 C2230 1.390 . S
C2239 H2232 0.950 1_545 S
C2239 C2236 1.387 . S
C2240 C2241 1.387 . S
C2240 H2244 0.950 . S
C2240 C2249 1.390 . S
C2241 C2240 1.387 . S
C2241 C2243 1.387 . S
H2242 C2249 0.950 . S
C2243 C2241 1.387 . S
C2243 C2245 1.390 . S
C2243 H2247 0.950 1_655 S
H2244 C2240 0.950 . S
C2245 C2243 1.390 . S
C2245 C2246 1.387 . S
C2245 H2248 0.950 1_655 S
C2246 C2245 1.387 . S
C2246 C2249 1.387 . S
H2247 C2243 0.950 1_455 S
H2248 C2245 0.950 1_455 S
C2249 C2240 1.390 . S
C2249 H2242 0.950 . S
C2249 C2246 1.387 . S
C2250 C2251 1.387 . S
C2250 H2254 0.950 . S
C2250 C2259 1.390 . S
C2251 C2250 1.387 . S
C2251 C2253 1.387 . S
H2252 C2259 0.950 . S
C2253 C2251 1.387 . S
C2253 C2255 1.390 . S
C2253 H2257 0.950 . S
H2254 C2250 0.950 . S
C2255 C2253 1.390 . S
C2255 C2256 1.387 . S
C2255 H2258 0.950 . S
C2256 C2255 1.387 . S
C2256 C2259 1.387 . S
H2257 C2253 0.950 . S
H2258 C2255 0.950 . S
C2259 C2250 1.390 . S
C2259 H2252 0.950 . S
C2259 C2256 1.387 . S
C2260 C2261 1.387 . S
C2260 H2264 0.950 1_565 S
C2260 C2269 1.390 . S
C2261 C2260 1.387 . S
C2261 C2263 1.387 . S
H2262 C2269 0.950 1_545 S
C2263 C2261 1.387 . S
C2263 C2265 1.390 . S
C2263 H2267 0.950 . S
H2264 C2260 0.950 1_545 S
C2265 C2263 1.390 . S
C2265 C2266 1.387 . S
C2265 H2268 0.950 . S
C2266 C2265 1.387 . S
C2266 C2269 1.387 . S
H2267 C2263 0.950 . S
H2268 C2265 0.950 . S
C2269 C2260 1.390 . S
C2269 H2262 0.950 1_565 S
C2269 C2266 1.387 . S
C2270 C2271 1.387 . S
C2270 H2274 0.950 . S
C2270 C2279 1.390 . S
C2271 C2270 1.387 . S
C2271 C2273 1.387 . S
H2272 C2279 0.950 . S
C2273 C2271 1.387 . S
C2273 C2275 1.390 . S
C2273 H2277 0.950 1_455 S
H2274 C2270 0.950 . S
C2275 C2273 1.390 . S
C2275 C2276 1.387 . S
C2275 H2278 0.950 1_455 S
C2276 C2275 1.387 . S
C2276 C2279 1.387 . S
H2277 C2273 0.950 1_655 S
H2278 C2275 0.950 1_655 S
C2279 C2270 1.390 . S
C2279 H2272 0.950 . S
C2279 C2276 1.387 . S
C2280 C2281 1.387 . S
C2280 H2284 0.950 . S
C2280 C2289 1.390 . S
C2281 C2280 1.387 . S
C2281 C2283 1.387 1_455 S
H2282 C2289 0.950 . S
C2283 C2281 1.387 1_655 S
C2283 C2285 1.390 . S
C2283 H2287 0.950 . S
H2284 C2280 0.950 . S
C2285 C2283 1.390 . S
C2285 C2286 1.387 . S
C2285 H2288 0.950 . S
C2286 C2285 1.387 . S
C2286 C2289 1.387 1_655 S
H2287 C2283 0.950 . S
H2288 C2285 0.950 . S
C2289 C2280 1.390 . S
C2289 H2282 0.950 . S
C2289 C2286 1.387 1_455 S
C2290 C2291 1.387 . S
C2290 H2294 0.950 . S
C2290 C2299 1.390 . S
C2291 C2290 1.387 . S
C2291 C2293 1.387 . S
H2292 C2299 0.950 . S
C2293 C2291 1.387 . S
C2293 C2295 1.390 . S
C2293 H2297 0.950 . S
H2294 C2290 0.950 . S
C2295 C2293 1.390 . S
C2295 C2296 1.387 . S
C2295 H2298 0.950 . S
C2296 C2295 1.387 . S
C2296 C2299 1.387 . S
H2297 C2293 0.950 . S
H2298 C2295 0.950 . S
C2299 C2290 1.390 . S
C2299 H2292 0.950 . S
C2299 C2296 1.387 . S
C2300 C2301 1.387 . S
C2300 H2304 0.950 . S
C2300 C2309 1.392 . S
C2301 C2300 1.387 . S
C2301 C2303 1.387 . S
H2302 C2309 0.944 1_545 S
C2303 C2301 1.387 . S
C2303 C2305 1.390 1_565 S
C2303 H2307 0.950 . S
H2304 C2300 0.950 . S
C2305 C2303 1.390 1_545 S
C2305 C2306 1.387 . S
C2305 H2308 0.950 . S
C2306 C2305 1.387 . S
C2306 C2309 1.392 1_545 S
H2307 C2303 0.950 . S
H2308 C2305 0.950 . S
C2309 C2300 1.392 . S
C2309 H2302 0.944 1_565 S
C2309 C2306 1.392 1_565 S
C2310 C2311 1.390 1_545 S
C2310 H2314 0.946 1_545 S
C2310 C2319 1.391 . S
C2311 C2310 1.390 1_565 S
C2311 C2313 1.395 . S
H2312 C2319 0.950 . S
C2313 C2311 1.395 . S
C2313 C2315 1.388 1_565 S
C2313 H2317 0.944 . S
H2314 C2310 0.946 1_565 S
C2315 C2313 1.388 1_545 S
C2315 C2316 1.387 . S
C2315 H2318 0.950 . S
C2316 C2315 1.387 . S
C2316 C2319 1.387 . S
H2317 C2313 0.944 . S
H2318 C2315 0.950 . S
C2319 C2310 1.391 . S
C2319 H2312 0.950 . S
C2319 C2316 1.387 . S
C2320 C2321 1.387 . S
C2320 H2324 0.948 . S
C2320 C2329 1.390 1_655 S
C2321 C2320 1.387 . S
C2321 C2323 1.387 . S
H2322 C2329 0.950 . S
C2323 C2321 1.387 . S
C2323 C2325 1.390 . S
C2323 H2327 0.950 . S
H2324 C2320 0.948 . S
C2325 C2323 1.390 . S
C2325 C2326 1.387 1_655 S
C2325 H2328 0.950 . S
C2326 C2325 1.387 1_455 S
C2326 C2329 1.387 . S
H2327 C2323 0.950 . S
H2328 C2325 0.950 . S
C2329 C2320 1.390 1_455 S
C2329 H2322 0.950 . S
C2329 C2326 1.387 . S
C2330 C2331 1.387 . S
C2330 H2334 0.950 . S
C2330 C2339 1.390 . S
C2331 C2330 1.387 . S
C2331 C2333 1.387 . S
H2332 C2339 0.950 . S
C2333 C2331 1.387 . S
C2333 C2335 1.390 . S
C2333 H2337 0.950 . S
H2334 C2330 0.950 . S
C2335 C2333 1.390 . S
C2335 C2336 1.387 . S
C2335 H2338 0.950 . S
C2336 C2335 1.387 . S
C2336 C2339 1.387 . S
H2337 C2333 0.950 . S
H2338 C2335 0.950 . S
C2339 C2330 1.390 . S
C2339 H2332 0.950 . S
C2339 C2336 1.387 . S
C2340 C2341 1.387 1_455 S
C2340 H2344 0.950 . S
C2340 C2349 1.390 . S
C2341 C2340 1.387 1_655 S
C2341 C2343 1.387 . S
H2342 C2349 0.950 . S
C2343 C2341 1.387 . S
C2343 C2345 1.390 . S
C2343 H2347 0.950 . S
H2344 C2340 0.950 . S
C2345 C2343 1.390 . S
C2345 C2346 1.387 1_655 S
C2345 H2348 0.950 . S
C2346 C2345 1.387 1_455 S
C2346 C2349 1.387 . S
H2347 C2343 0.950 . S
H2348 C2345 0.950 . S
C2349 C2340 1.390 . S
C2349 H2342 0.950 . S
C2349 C2346 1.387 . S
C2350 C2351 1.387 . S
C2350 H2354 0.950 . S
C2350 C2359 1.390 . S
C2351 C2350 1.387 . S
C2351 C2353 1.387 . S
H2352 C2359 0.950 . S
C2353 C2351 1.387 . S
C2353 C2355 1.390 . S
C2353 H2357 0.950 . S
H2354 C2350 0.950 . S
C2355 C2353 1.390 . S
C2355 C2356 1.387 . S
C2355 H2358 0.950 . S
C2356 C2355 1.387 . S
C2356 C2359 1.387 . S
H2357 C2353 0.950 . S
H2358 C2355 0.950 . S
C2359 C2350 1.390 . S
C2359 H2352 0.950 . S
C2359 C2356 1.387 . S
C2360 C2361 1.387 . S
C2360 H2364 0.950 . S
C2360 C2369 1.390 1_545 S
C2361 C2360 1.387 . S
C2361 C2363 1.387 . S
H2362 C2369 0.950 . S
C2363 C2361 1.387 . S
C2363 C2365 1.390 1_545 S
C2363 H2367 0.950 . S
H2364 C2360 0.950 . S
C2365 C2363 1.390 1_565 S
C2365 C2366 1.387 . S
C2365 H2368 0.950 . S
C2366 C2365 1.387 . S
C2366 C2369 1.387 . S
H2367 C2363 0.950 . S
H2368 C2365 0.950 . S
C2369 C2360 1.390 1_565 S
C2369 H2362 0.950 . S
C2369 C2366 1.387 . S
C2370 C2371 1.387 . S
C2370 H2374 0.950 . S
C2370 C2379 1.390 . S
C2371 C2370 1.387 . S
C2371 C2373 1.387 1_655 S
H2372 C2379 0.950 . S
C2373 C2371 1.387 1_455 S
C2373 C2375 1.390 . S
C2373 H2377 0.950 . S
H2374 C2370 0.950 . S
C2375 C2373 1.390 . S
C2375 C2376 1.387 . S
C2375 H2378 0.950 . S
C2376 C2375 1.387 . S
C2376 C2379 1.387 1_455 S
H2377 C2373 0.950 . S
H2378 C2375 0.950 . S
C2379 C2370 1.390 . S
C2379 H2372 0.950 . S
C2379 C2376 1.387 1_655 S
C2380 C2381 1.387 . S
C2380 H2384 0.950 . S
C2380 C2389 1.390 . S
C2381 C2380 1.387 . S
C2381 C2383 1.387 . S
H2382 C2389 0.950 . S
C2383 C2381 1.387 . S
C2383 C2385 1.390 . S
C2383 H2387 0.950 . S
H2384 C2380 0.950 . S
C2385 C2383 1.390 . S
C2385 C2386 1.387 . S
C2385 H2388 0.950 . S
C2386 C2385 1.387 . S
C2386 C2389 1.387 . S
H2387 C2383 0.950 . S
H2388 C2385 0.950 . S
C2389 C2380 1.390 . S
C2389 H2382 0.950 . S
C2389 C2386 1.387 . S
C2390 C2391 1.387 . S
C2390 H2394 0.950 . S
C2390 C2399 1.390 1_545 S
C2391 C2390 1.387 . S
C2391 C2393 1.387 . S
H2392 C2399 0.950 . S
C2393 C2391 1.387 . S
C2393 C2395 1.390 1_545 S
C2393 H2397 0.950 . S
H2394 C2390 0.950 . S
C2395 C2393 1.390 1_565 S
C2395 C2396 1.387 . S
C2395 H2398 0.950 . S
C2396 C2395 1.387 . S
C2396 C2399 1.387 . S
H2397 C2393 0.950 . S
H2398 C2395 0.950 . S
C2399 C2390 1.390 1_565 S
C2399 H2392 0.950 . S
C2399 C2396 1.387 . S
C2400 C2401 1.387 . S
C2400 H2404 0.950 . S
C2400 C2409 1.390 . S
C2401 C2400 1.387 . S
C2401 C2403 1.387 . S
H2402 C2409 0.950 . S
C2403 C2401 1.387 . S
C2403 C2405 1.390 . S
C2403 H2407 0.950 . S
H2404 C2400 0.950 . S
C2405 C2403 1.390 . S
C2405 C2406 1.387 . S
C2405 H2408 0.950 . S
C2406 C2405 1.387 . S
C2406 C2409 1.387 . S
H2407 C2403 0.950 . S
H2408 C2405 0.950 . S
C2409 C2400 1.390 . S
C2409 H2402 0.950 . S
C2409 C2406 1.387 . S
C2410 C2411 1.387 . S
C2410 H2414 0.950 . S
C2410 C2419 1.390 . S
C2411 C2410 1.387 . S
C2411 C2413 1.387 . S
H2412 C2419 0.950 . S
C2413 C2411 1.387 . S
C2413 C2415 1.390 . S
C2413 H2417 0.950 . S
H2414 C2410 0.950 . S
C2415 C2413 1.390 . S
C2415 C2416 1.387 . S
C2415 H2418 0.950 . S
C2416 C2415 1.387 . S
C2416 C2419 1.387 . S
H2417 C2413 0.950 . S
H2418 C2415 0.950 . S
C2419 C2410 1.390 . S
C2419 H2412 0.950 . S
C2419 C2416 1.387 . S
C2420 C2421 1.387 . S
C2420 H2424 0.950 . S
C2420 C2429 1.390 . S
C2421 C2420 1.387 . S
C2421 C2423 1.387 . S
H2422 C2429 0.950 . S
C2423 C2421 1.387 . S
C2423 C2425 1.390 . S
C2423 H2427 0.950 . S
H2424 C2420 0.950 . S
C2425 C2423 1.390 . S
C2425 C2426 1.387 . S
C2425 H2428 0.950 . S
C2426 C2425 1.387 . S
C2426 C2429 1.387 . S
H2427 C2423 0.950 . S
H2428 C2425 0.950 . S
C2429 C2420 1.390 . S
C2429 H2422 0.950 . S
C2429 C2426 1.387 . S
C2430 C2431 1.387 . S
C2430 H2434 0.950 . S
C2430 C2439 1.390 . S
C2431 C2430 1.387 . S
C2431 C2433 1.387 . S
H2432 C2439 0.950 . S
C2433 C2431 1.387 . S
C2433 C2435 1.390 . S
C2433 H2437 0.950 . S
H2434 C2430 0.950 . S
C2435 C2433 1.390 . S
C2435 C2436 1.387 . S
C2435 H2438 0.950 . S
C2436 C2435 1.387 . S
C2436 C2439 1.387 . S
H2437 C2433 0.950 . S
H2438 C2435 0.950 . S
C2439 C2430 1.390 . S
C2439 H2432 0.950 . S
C2439 C2436 1.387 . S
C2440 C2441 1.387 . S
C2440 H2444 0.950 . S
C2440 C2449 1.390 . S
C2441 C2440 1.387 . S
C2441 C2443 1.387 . S
H2442 C2449 0.950 . S
C2443 C2441 1.387 . S
C2443 C2445 1.390 . S
C2443 H2447 0.950 . S
H2444 C2440 0.950 . S
C2445 C2443 1.390 . S
C2445 C2446 1.387 . S
C2445 H2448 0.950 . S
C2446 C2445 1.387 . S
C2446 C2449 1.387 . S
H2447 C2443 0.950 . S
H2448 C2445 0.950 . S
C2449 C2440 1.390 . S
C2449 H2442 0.950 . S
C2449 C2446 1.387 . S
C2450 C2451 1.387 . S
C2450 H2454 0.950 . S
C2450 C2459 1.390 . S
C2451 C2450 1.387 . S
C2451 C2453 1.387 . S
H2452 C2459 0.950 . S
C2453 C2451 1.387 . S
C2453 C2455 1.390 . S
C2453 H2457 0.950 . S
H2454 C2450 0.950 . S
C2455 C2453 1.390 . S
C2455 C2456 1.387 . S
C2455 H2458 0.950 . S
C2456 C2455 1.387 . S
C2456 C2459 1.387 . S
H2457 C2453 0.950 . S
H2458 C2455 0.950 . S
C2459 C2450 1.390 . S
C2459 H2452 0.950 . S
C2459 C2456 1.387 . S
C2460 C2461 1.387 . S
C2460 H2464 0.950 . S
C2460 C2469 1.390 . S
C2461 C2460 1.387 . S
C2461 C2463 1.387 . S
H2462 C2469 0.950 . S
C2463 C2461 1.387 . S
C2463 C2465 1.390 . S
C2463 H2467 0.950 . S
H2464 C2460 0.950 . S
C2465 C2463 1.390 . S
C2465 C2466 1.387 . S
C2465 H2468 0.950 . S
C2466 C2465 1.387 . S
C2466 C2469 1.387 . S
H2467 C2463 0.950 . S
H2468 C2465 0.950 . S
C2469 C2460 1.390 . S
C2469 H2462 0.950 . S
C2469 C2466 1.387 . S
C2470 C2471 1.387 . S
C2470 H2474 0.950 . S
C2470 C2479 1.390 . S
C2471 C2470 1.387 . S
C2471 C2473 1.387 . S
H2472 C2479 0.950 . S
C2473 C2471 1.387 . S
C2473 C2475 1.390 . S
C2473 H2477 0.950 . S
H2474 C2470 0.950 . S
C2475 C2473 1.390 . S
C2475 C2476 1.387 . S
C2475 H2478 0.950 . S
C2476 C2475 1.387 . S
C2476 C2479 1.387 . S
H2477 C2473 0.950 . S
H2478 C2475 0.950 . S
C2479 C2470 1.390 . S
C2479 H2472 0.950 . S
C2479 C2476 1.387 . S
C2480 C2481 1.387 . S
C2480 H2484 0.950 . S
C2480 C2489 1.390 . S
C2481 C2480 1.387 . S
C2481 C2483 1.387 . S
H2482 C2489 0.950 . S
C2483 C2481 1.387 . S
C2483 C2485 1.390 . S
C2483 H2487 0.950 . S
H2484 C2480 0.950 . S
C2485 C2483 1.390 . S
C2485 C2486 1.387 . S
C2485 H2488 0.950 . S
C2486 C2485 1.387 . S
C2486 C2489 1.387 . S
H2487 C2483 0.950 . S
H2488 C2485 0.950 . S
C2489 C2480 1.390 . S
C2489 H2482 0.950 . S
C2489 C2486 1.387 . S
C2490 C2491 1.387 . S
C2490 H2494 0.950 . S
C2490 C2499 1.390 . S
C2491 C2490 1.387 . S
C2491 C2493 1.387 . S
H2492 C2499 0.950 . S
C2493 C2491 1.387 . S
C2493 C2495 1.390 . S
C2493 H2497 0.950 . S
H2494 C2490 0.950 . S
C2495 C2493 1.390 . S
C2495 C2496 1.387 . S
C2495 H2498 0.950 . S
C2496 C2495 1.387 . S
C2496 C2499 1.387 . S
H2497 C2493 0.950 . S
H2498 C2495 0.950 . S
C2499 C2490 1.390 . S
C2499 H2492 0.950 . S
C2499 C2496 1.387 . S
C2500 C2501 1.387 . S
C2500 H2504 0.950 . S
C2500 C2509 1.390 . S
C2501 C2500 1.387 . S
C2501 C2503 1.387 . S
H2502 C2509 0.950 . S
C2503 C2501 1.387 . S
C2503 C2505 1.390 . S
C2503 H2507 0.950 . S
H2504 C2500 0.950 . S
C2505 C2503 1.390 . S
C2505 C2506 1.387 . S
C2505 H2508 0.950 . S
C2506 C2505 1.387 . S
C2506 C2509 1.387 . S
H2507 C2503 0.950 . S
H2508 C2505 0.950 . S
C2509 C2500 1.390 . S
C2509 H2502 0.950 . S
C2509 C2506 1.387 . S
C2510 C2511 1.387 . S
C2510 H2514 0.950 . S
C2510 C2519 1.390 . S
C2511 C2510 1.387 . S
C2511 C2513 1.387 . S
H2512 C2519 0.950 . S
C2513 C2511 1.387 . S
C2513 C2515 1.390 . S
C2513 H2517 0.950 . S
H2514 C2510 0.950 . S
C2515 C2513 1.390 . S
C2515 C2516 1.387 . S
C2515 H2518 0.950 . S
C2516 C2515 1.387 . S
C2516 C2519 1.387 . S
H2517 C2513 0.950 . S
H2518 C2515 0.950 . S
C2519 C2510 1.390 . S
C2519 H2512 0.950 . S
C2519 C2516 1.387 . S
C1441 C9 1.753 . S
C1446 C99 1.854 1_545 S
C1451 C19 1.854 1_655 S
C1456 C49 1.754 1_545 S
C1461 C89 1.755 1_655 S
C1466 C59 1.854 . S
C1471 C129 1.822 . S
C1476 C179 1.920 1_455 S
C1481 C219 1.920 . S
C1486 C169 1.820 1_565 S
C1491 C209 1.822 1_455 S
C1496 C139 1.919 1_565 S
C1501 C258 1.754 . S
C1506 C330 1.853 1_565 S
C1511 C298 1.754 1_565 S
C1516 C250 1.854 1_455 S
C1521 C338 1.755 1_455 S
C1526 C290 1.854 . S
C1531 C378 1.823 . S
C1536 C410 1.920 1_655 S
C1541 C450 1.921 . S
C1546 C418 1.823 1_545 S
C1551 C370 1.920 1_545 S
C1556 C458 1.820 1_655 S
C1561 C579 1.911 . S
C1566 C489 1.812 . S
C1571 C529 1.812 . S
C1576 C499 1.911 . S
C1581 C539 1.910 . S
C1586 C569 1.812 . S
C1591 C609 1.838 . S
C1596 C659 1.935 . S
C1601 C699 1.934 . S
C1606 C649 1.836 . S
C1611 C619 1.934 . S
C1616 C689 1.836 . S
C1621 C738 1.781 . S
C1626 C810 1.880 . S
C1631 C778 1.780 . S
C1636 C730 1.880 . S
C1641 C770 1.880 . S
C1646 C818 1.781 . S
C1651 C890 1.779 . S
C1656 C858 1.696 1_554 S
C1661 C898 1.699 1_554 S
C1666 C930 1.779 . S
C1671 C850 1.778 . S
C1676 C938 1.696 1_554 S
C1681 C969 1.784 . S
C1686 C1059 1.881 . S
C1691 C1009 1.780 . S
C1696 C979 1.880 . S
C1701 C1049 1.784 . S
C1706 C1019 1.881 . S
C1711 C1089 1.698 1_556 S
C1716 C1139 1.780 . S
C1721 C1129 1.696 1_556 S
C1726 C1179 1.779 . S
C1731 C1169 1.699 1_556 S
C1736 C1099 1.779 . S
C1741 C1218 1.812 . S
C1746 C1290 1.911 . S
C1751 C1258 1.809 . S
C1756 C1210 1.910 . S
C1761 C1250 1.912 . S
C1766 C1298 1.812 . S
C1771 C1338 1.836 . S
C1776 C1370 1.934 . S
C1781 C1378 1.839 . S
C1786 C1410 1.935 . S
C1791 C1330 1.935 . S
C1796 C1418 1.838 . S
C1801 C10 1.888 . S
C1806 C809 1.862 . S
C1811 C729 1.860 1_565 S
C1816 C50 1.889 . S
C1821 C90 1.887 . S
C1826 C769 1.861 1_455 S
C1831 C130 1.809 . S
C1836 C1369 1.771 . S
C1841 C1409 1.771 1_545 S
C1846 C170 1.807 . S
C1851 C210 1.808 . S
C1856 C1329 1.770 1_655 S
C1861 C1058 1.861 . S
C1866 C259 1.890 . S
C1871 C299 1.889 . S
C1876 C978 1.860 1_545 S
C1881 C339 1.888 . S
C1886 C1018 1.862 1_655 S
C1891 C658 1.771 . S
C1896 C379 1.807 . S
C1901 C698 1.770 1_565 S
C1906 C419 1.808 . S
C1911 C618 1.771 1_455 S
C1916 C459 1.807 . S
C1921 C490 1.849 . S
C1926 C1289 1.815 . S
C1931 C530 1.848 . S
C1936 C1209 1.817 . S
C1941 C1249 1.816 . S
C1946 C570 1.847 . S
C1951 C409 1.808 . S
C1956 C610 1.841 1_455 S
C1961 C449 1.807 . S
C1966 C650 1.840 . S
C1971 C369 1.807 . S
C1976 C690 1.841 1_565 S
C1981 C98 1.858 . S
C1986 C739 1.882 1_565 S
C1991 C779 1.882 1_455 S
C1996 C18 1.858 . S
C2001 C819 1.881 . S
C2006 C58 1.857 . S
C2011 C1138 1.827 . S
C2016 C859 1.873 . S
C2021 C1178 1.828 . S
C2026 C899 1.875 . S
C2031 C939 1.875 . S
C2036 C1098 1.828 . S
C2041 C329 1.858 . S
C2046 C970 1.882 1_545 S
C2051 C249 1.859 . S
C2056 C1010 1.883 1_655 S
C2061 C289 1.856 . S
C2066 C1050 1.882 . S
C2071 C1090 1.875 . S
C2076 C889 1.828 . S
C2081 C929 1.828 . S
C2086 C1130 1.873 . S
C2091 C1170 1.875 . S
C2096 C849 1.827 . S
C2101 C1219 1.848 . S
C2106 C578 1.817 . S
C2111 C1259 1.848 . S
C2116 C498 1.817 . S
C2121 C1299 1.848 . S
C2126 C538 1.815 . S
C2131 C1339 1.843 1_655 S
C2136 C178 1.807 . S
C2141 C218 1.807 . S
C2146 C1379 1.840 . S
C2151 C138 1.807 . S
C2156 C1419 1.842 1_545 S
C2161 C1166 2.295 . S
C2166 C6 2.288 . S
C2171 C1086 2.295 . S
C2176 C46 2.288 . S
C2181 C86 2.302 . S
C2186 C1126 2.284 . S
C2191 C526 2.462 . S
C2196 C126 2.460 . S
C2201 C166 2.462 . S
C2206 C566 2.464 . S
C2211 C206 2.462 . S
C2216 C486 2.464 . S
C2221 C255 2.301 . S
C2226 C935 2.282 . S
C2231 C295 2.301 . S
C2236 C855 2.282 . S
C2241 C335 2.303 . S
C2246 C895 2.283 . S
C2251 C1255 2.462 . S
C2256 C375 2.461 . S
C2261 C1295 2.463 . S
C2266 C415 2.460 . S
C2271 C1215 2.464 . S
C2276 C455 2.462 . S
C2281 C606 2.493 . S
C2286 C1006 2.498 . S
C2291 C646 2.493 . S
C2296 C1046 2.496 . S
C2301 C686 2.492 . S
C2306 C966 2.496 . S
C2311 C735 2.498 . S
C2316 C1415 2.494 . S
C2321 C1335 2.494 . S
C2326 C775 2.498 . S
C2331 C815 2.496 . S
C2336 C1375 2.491 . S
C2341 C175 1.252 . S
C2346 C15 1.254 . S
C2351 C215 1.251 . S
C2356 C55 1.252 . S
C2361 C135 1.252 . S
C2366 C95 1.254 . S
C2371 C246 1.254 . S
C2376 C406 1.252 . S
C2381 C446 1.251 . S
C2386 C286 1.253 . S
C2391 C326 1.252 . S
C2396 C366 1.251 . S
C2401 C655 1.317 . S
C2406 C495 1.319 . S
C2411 C695 1.317 . S
C2416 C535 1.318 . S
C2421 C615 1.318 . S
C2426 C575 1.319 . S
C2431 C886 1.543 . S
C2436 C726 1.575 . S
C2441 C766 1.564 . S
C2446 C926 1.556 . S
C2451 C806 1.562 . S
C2456 C846 1.556 . S
C2461 C975 1.562 . S
C2466 C1135 1.554 . S
C2471 C1175 1.543 . S
C2476 C1015 1.576 . S
C2481 C1055 1.561 . S
C2486 C1095 1.554 . S
C2491 C1206 1.318 . S
C2496 C1366 1.316 . S
C2501 C1406 1.318 . S
C2506 C1246 1.318 . S
C2511 C1286 1.318 . S
C2516 C1326 1.317 . S
