# Generated by pormake.
# Topology fni, (5)-cn, num edge types: 1
# Building blocks:
#     Node 0, Type 0, BuildingBlock: XOMCOT_clean_sbu_0, # of connection points: 5
#     Node 1, Type 0, BuildingBlock: XOMCOT_clean_sbu_0, # of connection points: 5
#     Node 2, Type 0, BuildingBlock: XOMCOT_clean_sbu_0, # of connection points: 5
#     Node 3, Type 0, BuildingBlock: XOMCOT_clean_sbu_0, # of connection points: 5
#     Node 4, Type 0, BuildingBlock: XOMCOT_clean_sbu_0, # of connection points: 5
#     Node 5, Type 0, BuildingBlock: XOMCOT_clean_sbu_0, # of connection points: 5
#     Node 6, Type 0, BuildingBlock: XOMCOT_clean_sbu_0, # of connection points: 5
#     Node 7, Type 0, BuildingBlock: XOMCOT_clean_sbu_0, # of connection points: 5
#     Edge 8, Type (0, 0), BuildingBlock: CIFDUS_clean_linker_0, # of connection points: 2
#     Edge 9, Type (0, 0), BuildingBlock: CIFDUS_clean_linker_0, # of connection points: 2
#     Edge 10, Type (0, 0), BuildingBlock: CIFDUS_clean_linker_0, # of connection points: 2
#     Edge 11, Type (0, 0), BuildingBlock: CIFDUS_clean_linker_0, # of connection points: 2
#     Edge 12, Type (0, 0), BuildingBlock: CIFDUS_clean_linker_0, # of connection points: 2
#     Edge 13, Type (0, 0), BuildingBlock: CIFDUS_clean_linker_0, # of connection points: 2
#     Edge 14, Type (0, 0), BuildingBlock: CIFDUS_clean_linker_0, # of connection points: 2
#     Edge 15, Type (0, 0), BuildingBlock: CIFDUS_clean_linker_0, # of connection points: 2
#     Edge 16, Type (0, 0), BuildingBlock: CIFDUS_clean_linker_0, # of connection points: 2
#     Edge 17, Type (0, 0), BuildingBlock: CIFDUS_clean_linker_0, # of connection points: 2
#     Edge 18, Type (0, 0), BuildingBlock: CIFDUS_clean_linker_0, # of connection points: 2
#     Edge 19, Type (0, 0), BuildingBlock: CIFDUS_clean_linker_0, # of connection points: 2
#     Edge 20, Type (0, 0), BuildingBlock: CIFDUS_clean_linker_0, # of connection points: 2
#     Edge 21, Type (0, 0), BuildingBlock: CIFDUS_clean_linker_0, # of connection points: 2
#     Edge 22, Type (0, 0), BuildingBlock: CIFDUS_clean_linker_0, # of connection points: 2
#     Edge 23, Type (0, 0), BuildingBlock: CIFDUS_clean_linker_0, # of connection points: 2
#     Edge 24, Type (0, 0), BuildingBlock: CIFDUS_clean_linker_0, # of connection points: 2
#     Edge 25, Type (0, 0), BuildingBlock: CIFDUS_clean_linker_0, # of connection points: 2
#     Edge 26, Type (0, 0), BuildingBlock: CIFDUS_clean_linker_0, # of connection points: 2
#     Edge 27, Type (0, 0), BuildingBlock: CIFDUS_clean_linker_0, # of connection points: 2
# Relax obj value: 0.070
# Max RMSD: 0.156
# Mean RMSD: 0.155
data_MOF--net-fni--node1-XOMCOT_clean_sbu_0--edge1-CIFDUS_clean_linker_0
_symmetry_space_group_name_H-M    P1
_symmetry_Int_Tables_number       1
_symmetry_cell_setting            triclinic
loop_
_symmetry_equiv_pos_as_xyz
'x, y, z'
_cell_length_a     47.998333
_cell_length_b     48.261911
_cell_length_c     15.867118
_cell_angle_alpha  89.540916
_cell_angle_beta   90.417652
_cell_angle_gamma 90.375754
loop_
_atom_site_label
_atom_site_type_symbol
_atom_site_fract_x
_atom_site_fract_y
_atom_site_fract_z
_atom_type_partial_charge
Co0 Co 0.39307 0.3656 0.0326 0.0
C1 C 0.39829 0.37317 0.21543 0.0
C2 C 0.35587 0.37755 0.17375 0.0
C3 C 0.35665 0.37928 0.26027 0.0
N4 N 0.382 0.3738 0.14604 0.0
N5 N 0.38333 0.37637 0.28637 0.0
H6 H 0.42051 0.36967 0.2138 0.0
H7 H 0.33738 0.3777 0.13441 0.0
C8 C 0.35145 0.41002 0.96226 0.0
O9 O 0.36837 0.43145 0.95935 0.0
N10 N 0.40344 0.35688 0.91759 0.0
C11 C 0.41639 0.33405 0.88908 0.0
C12 C 0.41769 0.33546 0.80264 0.0
C13 C 0.3975 0.37195 0.84788 0.0
N14 N 0.40565 0.35925 0.77684 0.0
C15 C 0.44444 0.3937 0.99941 0.0
C16 C 0.43266 0.44282 0.07965 0.0
C17 C 0.45925 0.43945 0.04471 0.0
C18 C 0.46474 0.41449 1.00332 0.0
C19 C 0.41272 0.42149 0.07343 0.0
N20 N 0.41857 0.39739 0.03255 0.0
H21 H 0.4499 0.37421 0.97128 0.0
H22 H 0.39273 0.42426 0.10296 0.0
H23 H 0.42405 0.31713 0.92745 0.0
H24 H 0.38743 0.39184 0.84876 0.0
O25 O 0.41817 0.33733 0.0774 0.0
O26 O 0.37392 0.3307 0.04121 0.0
O27 O 0.35972 0.38629 0.98772 0.0
C28 C 0.39685 0.32046 0.07174 0.0
H29 H 0.33874 0.38094 0.30089 0.0
H30 H 0.42588 0.31963 0.76195 0.0
H31 H 0.4275 0.46139 0.11382 0.0
H32 H 0.48474 0.41077 0.97457 0.0
Co33 Co 0.64419 0.89447 0.26861 0.0
C34 C 0.63546 0.89849 0.45135 0.0
C35 C 0.63758 0.85611 0.41188 0.0
C36 C 0.63587 0.8566 0.49836 0.0
N37 N 0.63724 0.88238 0.38271 0.0
N38 N 0.63473 0.88328 0.52306 0.0
H39 H 0.63563 0.92089 0.44877 0.0
H40 H 0.64036 0.83792 0.37361 0.0
C41 C 0.60666 0.84772 0.19743 0.0
O42 O 0.58481 0.86356 0.18663 0.0
N43 N 0.65202 0.90585 0.15308 0.0
C44 C 0.67338 0.92158 0.12432 0.0
C45 C 0.67214 0.92262 0.03773 0.0
C46 C 0.63798 0.89796 0.08326 0.0
N47 N 0.64995 0.90759 1.0121 0.0
C48 C 0.60773 0.93902 0.2283 0.0
C49 C 0.56159 0.92004 0.31488 0.0
C50 C 0.56072 0.94643 0.27705 0.0
C51 C 0.58414 0.9556 0.23236 0.0
C52 C 0.58566 0.90392 0.30868 0.0
N53 N 0.6083 0.91328 0.26466 0.0
H54 H 0.62602 0.94751 0.19825 0.0
H55 H 0.58611 0.88399 0.3402 0.0
H56 H 0.68924 0.93137 0.1626 0.0
H57 H 0.61933 0.8855 0.08392 0.0
O58 O 0.66607 0.92503 0.31265 0.0
O59 O 0.68248 0.88333 0.2825 0.0
O60 O 0.62964 0.85756 0.22598 0.0
C61 C 0.68702 0.90803 0.31228 0.0
H62 H 0.63715 0.83877 0.53995 0.0
H63 H 0.6871 0.93275 0.9969 0.0
H64 H 0.5442 0.91222 0.3513 0.0
H65 H 0.58453 0.97571 0.20163 0.0
Co66 Co 0.10732 0.15937 0.45084 0.0
C67 C 0.10666 0.15689 0.63755 0.0
C68 C 0.14805 0.16172 0.59037 0.0
C69 C 0.149 0.16376 0.67687 0.0
N70 N 0.12154 0.1567 0.56563 0.0
N71 N 0.12287 0.16091 0.70624 0.0
H72 H 0.08428 0.15596 0.63988 0.0
H73 H 0.1653 0.16551 0.5483 0.0
C74 C 0.1585 0.12349 0.43208 0.0
O75 O 0.1513 0.10814 0.49726 0.0
N76 N 0.09359 0.1628 0.33695 0.0
C77 C 0.0671 0.16008 0.30973 0.0
C78 C 0.06697 0.16088 0.22279 0.0
C79 C 0.10913 0.16551 0.26707 0.0
N80 N 0.09349 0.16409 0.19623 0.0
C81 C 0.06583 0.12034 0.5089 0.0
C82 C 0.08002 0.07782 0.40223 0.0
C83 C 0.05716 0.07414 0.45571 0.0
C84 C 0.05023 0.09577 0.50985 0.0
C85 C 0.09527 0.10261 0.40402 0.0
N86 N 0.08867 0.1233 0.4587 0.0
H87 H 0.05838 0.13748 0.54503 0.0
H88 H 0.11152 0.10553 0.35816 0.0
H89 H 0.04933 0.15662 0.35008 0.0
H90 H 0.13151 0.168 0.26809 0.0
O91 O 0.0778 0.1833 0.49027 0.0
O92 O 0.11952 0.19735 0.44704 0.0
O93 O 0.14276 0.14306 0.40626 0.0
C94 C 0.09528 0.20361 0.47695 0.0
H95 H 0.16721 0.16876 0.71457 0.0
H96 H 0.04893 0.15798 0.18244 0.0
H97 H 0.08576 0.0619 0.35799 0.0
H98 H 0.032 0.0943 0.54952 0.0
Co99 Co 0.88127 0.62638 0.75317 0.0
C100 C 0.87818 0.63585 0.56731 0.0
C101 C 0.85492 0.59986 0.60529 0.0
C102 C 0.85325 0.6024 0.51886 0.0
N103 N 0.87049 0.62093 0.63588 0.0
N104 N 0.86801 0.62498 0.49522 0.0
H105 H 0.89163 0.65386 0.56919 0.0
H106 H 0.84625 0.58312 0.6426 0.0
C107 C 0.83432 0.5948 0.84948 0.0
O108 O 0.84877 0.59036 0.91864 0.0
N109 N 0.89206 0.63244 0.86931 0.0
C110 C 0.91808 0.63023 0.90088 0.0
C111 C 0.91738 0.6353 0.98591 0.0
C112 C 0.87619 0.64044 0.93443 0.0
N113 N 0.89095 0.64134 1.00727 0.0
C114 C 0.92197 0.59071 0.6842 0.0
C115 C 0.92611 0.55401 0.81796 0.0
C116 C 0.94585 0.55252 0.75316 0.0
C117 C 0.94262 0.57051 0.68386 0.0
C118 C 0.9051 0.57404 0.81441 0.0
N119 N 0.90373 0.59273 0.74943 0.0
H120 H 0.92168 0.60574 0.63351 0.0
H121 H 0.89172 0.57584 0.86771 0.0
H122 H 0.93615 0.62433 0.865 0.0
H123 H 0.85409 0.64444 0.92919 0.0
O124 O 0.90997 0.65274 0.72086 0.0
O125 O 0.866 0.66316 0.74829 0.0
O126 O 0.84537 0.60638 0.78486 0.0
C127 C 0.89075 0.67156 0.72618 0.0
H128 H 0.84315 0.58795 0.47649 0.0
H129 H 0.93472 0.63302 0.02936 0.0
H130 H 0.92771 0.54102 0.87364 0.0
H131 H 0.95658 0.56986 0.63069 0.0
Co132 Co 0.36477 0.12128 0.29675 0.0
C133 C 0.36807 0.12024 0.48331 0.0
C134 C 0.36234 0.16131 0.43457 0.0
C135 C 0.36086 0.16222 0.52108 0.0
N136 N 0.36746 0.13505 0.41089 0.0
N137 N 0.36427 0.1363 0.55139 0.0
H138 H 0.36972 0.09804 0.48662 0.0
H139 H 0.35836 0.17839 0.3917 0.0
C140 C 0.40416 0.17031 0.28313 0.0
O141 O 0.41778 0.16194 0.35073 0.0
N142 N 0.36143 0.10801 0.18328 0.0
C143 C 0.36251 0.08154 0.15748 0.0
C144 C 0.36218 0.08142 0.07066 0.0
C145 C 0.36019 0.12357 0.11269 0.0
N146 N 0.36088 0.1079 0.04268 0.0
C147 C 0.39916 0.0764 0.35438 0.0
C148 C 0.44549 0.08977 0.25989 0.0
C149 C 0.44585 0.06555 0.3092 0.0
C150 C 0.42224 0.05893 0.35673 0.0
C151 C 0.42186 0.10656 0.25886 0.0
N152 N 0.39935 0.10041 0.30815 0.0
H153 H 0.38062 0.0697 0.38668 0.0
H154 H 0.42133 0.12368 0.21487 0.0
H155 H 0.36439 0.06371 0.1988 0.0
H156 H 0.35915 0.14593 0.11274 0.0
O157 O 0.33832 0.09328 0.33462 0.0
O158 O 0.32743 0.13549 0.28989 0.0
O159 O 0.38416 0.15572 0.25317 0.0
C160 C 0.31916 0.11168 0.31974 0.0
H161 H 0.35593 0.18021 0.55832 0.0
H162 H 0.36396 0.06329 0.03144 0.0
H163 H 0.46284 0.09509 0.21948 0.0
H164 H 0.42138 0.04015 0.39445 0.0
Co165 Co 0.88894 0.86921 0.48981 0.0
C166 C 0.89024 0.87727 0.67589 0.0
C167 C 0.84859 0.87431 0.62793 0.0
C168 C 0.84759 0.87485 0.71471 0.0
N169 N 0.87535 0.87642 0.60315 0.0
N170 N 0.87387 0.8766 0.74498 0.0
H171 H 0.9126 0.87608 0.6791 0.0
H172 H 0.83102 0.8712 0.58591 0.0
C173 C 0.84404 0.91279 0.46094 0.0
O174 O 0.84959 0.92562 0.53185 0.0
N175 N 0.90212 0.86144 0.37751 0.0
C176 C 0.92881 0.85973 0.35259 0.0
C177 C 0.92927 0.85804 0.26583 0.0
C178 C 0.88673 0.86032 0.30604 0.0
N179 N 0.90278 0.85855 0.23658 0.0
C180 C 0.93897 0.89743 0.5439 0.0
C181 C 0.93128 0.94503 0.4489 0.0
C182 C 0.95461 0.94334 0.50221 0.0
C183 C 0.95848 0.91901 0.54955 0.0
C184 C 0.9121 0.92313 0.44606 0.0
N185 N 0.91539 0.90011 0.4959 0.0
H186 H 0.94322 0.8783 0.57695 0.0
H187 H 0.89509 0.92463 0.40168 0.0
H188 H 0.94671 0.86068 0.39427 0.0
H189 H 0.86428 0.86191 0.30468 0.0
O190 O 0.91124 0.83894 0.53624 0.0
O191 O 0.86775 0.83557 0.48964 0.0
O192 O 0.85874 0.8924 0.43736 0.0
C193 C 0.889 0.82364 0.52494 0.0
H194 H 0.82893 0.87322 0.75233 0.0
H195 H 0.94773 0.85695 0.22729 0.0
H196 H 0.92777 0.96321 0.40986 0.0
H197 H 0.97678 0.91641 0.5891 0.0
Co198 Co 0.14626 0.38272 0.79809 0.0
C199 C 0.14272 0.38423 0.98281 0.0
C200 C 0.14172 0.34243 0.93751 0.0
C201 C 0.14118 0.34175 0.02437 0.0
N202 N 0.14263 0.36907 0.9119 0.0
N203 N 0.14185 0.36807 0.05273 0.0
H204 H 0.1443 0.4066 0.98296 0.0
H205 H 0.14196 0.32474 0.89611 0.0
C206 C 0.10488 0.34864 0.69773 0.0
O207 O 0.09707 0.37081 0.65539 0.0
N208 N 0.15066 0.39628 0.68306 0.0
C209 C 0.15257 0.42276 0.65575 0.0
C210 C 0.15535 0.42298 0.56959 0.0
C211 C 0.15386 0.3808 0.61317 0.0
N212 N 0.1558 0.39657 0.54263 0.0
C213 C 0.11699 0.43398 0.82365 0.0
C214 C 0.06413 0.41121 0.83137 0.0
C215 C 0.06686 0.44019 0.82974 0.0
C216 C 0.09395 0.45144 0.82946 0.0
C217 C 0.0878 0.39458 0.82702 0.0
N218 N 0.11364 0.40602 0.81579 0.0
H219 H 0.13758 0.44304 0.82548 0.0
H220 H 0.08507 0.37246 0.83232 0.0
H221 H 0.15254 0.44089 0.69476 0.0
H222 H 0.15382 0.35839 0.61374 0.0
O223 O 0.17606 0.40764 0.83495 0.0
O224 O 0.1817 0.36474 0.79008 0.0
O225 O 0.1229 0.3504 0.7572 0.0
C226 C 0.19296 0.3873 0.81923 0.0
H227 H 0.14038 0.32329 0.06344 0.0
H228 H 0.1571 0.44126 0.53001 0.0
H229 H 0.04389 0.40124 0.83404 0.0
H230 H 0.09744 0.47357 0.83363 0.0
Co231 Co 0.63033 0.6433 0.03975 0.0
C232 C 0.6379 0.65041 0.23051 0.0
C233 C 0.65462 0.61266 0.18246 0.0
C234 C 0.65868 0.61299 0.26812 0.0
N235 N 0.64199 0.63622 0.15743 0.0
N236 N 0.64831 0.63667 0.29921 0.0
H237 H 0.62742 0.67014 0.2338 0.0
H238 H 0.65973 0.59563 0.14169 0.0
C239 C 0.6721 0.60859 0.93586 0.0
O240 O 0.65675 0.60754 0.8672 0.0
N241 N 0.61761 0.65005 0.923 0.0
C242 C 0.59057 0.64836 0.90002 0.0
C243 C 0.58798 0.65357 0.81516 0.0
C244 C 0.63109 0.65742 0.85064 0.0
N245 N 0.61339 0.65899 0.7831 0.0
C246 C 0.5821 0.61529 0.10281 0.0
C247 C 0.58594 0.56783 1.00749 0.0
C248 C 0.56266 0.57111 0.05922 0.0
C249 C 0.56103 0.59515 0.10792 0.0
C250 C 0.60634 0.58864 1.00338 0.0
N251 N 0.60414 0.61224 0.04977 0.0
H252 H 0.58044 0.63372 0.14061 0.0
H253 H 0.62338 0.58575 0.96138 0.0
H254 H 0.57367 0.64327 0.94216 0.0
H255 H 0.65334 0.66093 0.84699 0.0
O256 O 0.60647 0.67347 0.07537 0.0
O257 O 0.65071 0.67775 0.03869 0.0
O258 O 0.66289 0.61944 1.00351 0.0
C259 C 0.62813 0.68953 0.06479 0.0
H260 H 0.66776 0.59639 0.30526 0.0
H261 H 0.56878 0.6524 0.7791 0.0
H262 H 0.58798 0.54968 0.96835 0.0
H263 H 0.54361 0.5984 0.14963 0.0
H264 H 0.56761 0.51499 0.07088 0.0
H265 H 0.50648 0.57976 0.04961 0.0
H266 H 0.46906 0.54511 0.04479 0.0
H267 H 0.45383 0.49619 0.04111 0.0
H268 H 0.51527 0.43171 0.06926 0.0
H269 H 0.55222 0.46635 0.07529 0.0
C270 C 0.54609 0.52151 0.06508 0.0
C271 C 0.53989 0.54994 0.06029 0.0
C272 C 0.52466 0.50147 0.06278 0.0
C273 C 0.51184 0.55803 0.05406 0.0
C274 C 0.49043 0.5382 0.05086 0.0
C275 C 0.47523 0.48965 0.04963 0.0
C276 C 0.48155 0.46115 0.05318 0.0
C277 C 0.49658 0.50982 0.05465 0.0
C278 C 0.50961 0.45333 0.06378 0.0
C279 C 0.53087 0.47318 0.06802 0.0
H280 H 0.44547 0.00924 0.29625 0.0
H281 H 0.50094 0.07957 0.31827 0.0
H282 H 0.54117 0.04889 0.31261 0.0
H283 H 0.56054 1.0023 0.30088 0.0
H284 H 0.50531 0.93192 0.27373 0.0
H285 H 0.46502 0.96236 0.2846 0.0
C286 C 0.46637 0.01781 0.30072 0.0
C287 C 0.4702 0.04667 0.3078 0.0
C288 C 0.48942 1.00005 0.29693 0.0
C289 C 0.49742 0.05748 0.31207 0.0
C290 C 0.52042 0.03994 0.30918 0.0
C291 C 0.53971 0.99357 0.29631 0.0
C292 C 0.53606 0.9648 0.28586 0.0
C293 C 0.51666 0.01123 0.30112 0.0
C294 C 0.50883 0.9539 0.28247 0.0
C295 C 0.48575 0.97133 0.28811 0.0
H296 H 0.9777 0.97269 0.37283 0.0
H297 H 0.97714 0.96628 0.64402 0.0
H298 H 0.0092 1.00577 0.65394 0.0
H299 H 0.0365 0.04298 0.58537 0.0
H300 H 0.0375 0.04878 0.314 0.0
H301 H 0.00633 0.00871 0.30428 0.0
C302 C 0.98455 0.98002 0.43407 0.0
C303 C 0.97491 0.96669 0.5076 0.0
C304 C 1.00311 1.00261 0.43925 0.0
C305 C 0.98436 0.9761 0.58649 0.0
C306 C 1.00259 0.99874 0.5922 0.0
C307 C 0.02987 0.03544 0.52418 0.0
C308 C 0.03931 0.04887 0.45055 0.0
C309 C 0.01197 0.01229 0.51902 0.0
C310 C 0.0308 0.03866 0.37163 0.0
C311 C 0.01283 0.01584 0.36601 0.0
H312 H 0.06139 0.49008 0.7491 0.0
H313 H 0.01537 0.43162 0.90266 0.0
H314 H 0.97384 0.46013 0.88887 0.0
H315 H 0.95031 0.50152 0.83205 0.0
H316 H 0.99852 0.56222 0.69271 0.0
H317 H 0.03914 0.53283 0.70223 0.0
C318 C 0.04252 0.48368 0.78115 0.0
C319 C 0.04178 0.45847 0.82648 0.0
C320 C 0.0188 0.5005 0.77479 0.0
C321 C 0.01668 0.45053 0.86576 0.0
C322 C 0.99285 0.46697 0.85844 0.0
C323 C 0.9697 0.50859 0.80448 0.0
C324 C 0.97078 0.53406 0.7602 0.0
C325 C 0.99361 0.49197 0.81275 0.0
C326 C 0.99636 0.54243 0.72458 0.0
C327 C 0.01991 0.52575 0.73092 0.0
H328 H 0.35978 0.39778 0.42468 0.0
H329 H 0.42877 0.34823 0.34183 0.0
H330 H 0.44313 0.34046 0.4875 0.0
H331 H 0.43442 0.34522 0.63863 0.0
H332 H 0.36367 0.39227 0.72154 0.0
H333 H 0.35184 0.40364 0.57592 0.0
C334 C 0.37791 0.38524 0.43845 0.0
C335 C 0.39302 0.37354 0.37215 0.0
C336 C 0.38576 0.38035 0.52254 0.0
C337 C 0.41686 0.35779 0.39121 0.0
C338 C 0.42499 0.35312 0.47471 0.0
C339 C 0.41638 0.3579 0.6249 0.0
C340 C 0.39994 0.36771 0.69116 0.0
C341 C 0.40932 0.36391 0.54085 0.0
C342 C 0.37694 0.38464 0.67216 0.0
C343 C 0.36999 0.39099 0.58869 0.0
H344 H 0.66046 0.9378 0.87227 0.0
H345 H 0.62252 0.86153 0.95921 0.0
H346 H 0.61242 0.84833 0.81445 0.0
H347 H 0.61682 0.85705 0.66282 0.0
H348 H 0.65714 0.93201 0.57548 0.0
H349 H 0.66364 0.94715 0.72041 0.0
C350 C 0.65004 0.91828 0.85955 0.0
C351 C 0.64238 0.90072 0.92672 0.0
C352 C 0.64471 0.91053 0.77593 0.0
C353 C 0.62839 0.87569 0.90908 0.0
C354 C 0.62277 0.86797 0.82612 0.0
C355 C 0.62706 0.87667 0.6755 0.0
C356 C 0.63656 0.89324 0.60824 0.0
C357 C 0.63122 0.88503 0.75907 0.0
C358 C 0.64931 0.91892 0.62575 0.0
C359 C 0.65326 0.92752 0.70878 0.0
H360 H 0.15192 0.14864 0.84712 0.0
H361 H 0.07326 0.18084 0.75866 0.0
H362 H 0.05724 0.18494 0.90341 0.0
H363 H 0.06538 0.17903 0.05551 0.0
H364 H 0.14405 0.14669 0.14381 0.0
H365 H 0.16046 0.14372 0.99933 0.0
C366 C 0.13139 0.15679 0.85961 0.0
C367 C 0.11377 0.16411 0.79199 0.0
C368 C 0.12232 0.15924 0.94317 0.0
C369 C 0.08707 0.17444 0.80924 0.0
C370 C 0.07794 0.17701 0.89215 0.0
C371 C 0.08605 0.17122 0.04312 0.0
C372 C 0.10339 0.16317 0.11068 0.0
C373 C 0.09531 0.16928 0.95961 0.0
C374 C 0.13033 0.15346 0.09341 0.0
C375 C 0.1397 0.15153 1.01059 0.0
H376 H 0.91833 0.65855 0.14592 0.0
H377 H 0.83948 0.62556 0.05985 0.0
H378 H 0.82443 0.6194 0.20526 0.0
H379 H 0.83557 0.619 0.35716 0.0
H380 H 0.91525 0.65036 0.44205 0.0
H381 H 0.92802 0.66152 0.29741 0.0
C382 C 0.89779 0.65019 0.15901 0.0
C383 C 0.88028 0.6422 0.09193 0.0
C384 C 0.88949 0.64614 0.24282 0.0
C385 C 0.85342 0.63199 0.10995 0.0
C386 C 0.84487 0.62819 0.19329 0.0
C387 C 0.85568 0.62833 0.34387 0.0
C388 C 0.87446 0.63361 0.41038 0.0
C389 C 0.86305 0.63445 0.26019 0.0
C390 C 0.90026 0.64624 0.39237 0.0
C391 C 0.90768 0.65249 0.30948 0.0
H392 H 0.34573 0.0797 0.9036 0.0
H393 H 0.37953 0.158 0.9871 0.0
H394 H 0.38288 0.17399 0.84164 0.0
H395 H 0.37756 0.16529 0.69002 0.0
H396 H 0.34445 0.08677 0.60668 0.0
H397 H 0.34021 0.07108 0.75245 0.0
C398 C 0.35402 0.10017 0.89009 0.0
C399 C 0.36228 0.11755 0.95657 0.0
C400 C 0.35629 0.10914 0.8061 0.0
C401 C 0.37257 0.14425 0.93763 0.0
C402 C 0.37472 0.15338 0.85424 0.0
C403 C 0.36923 0.14484 0.70391 0.0
C404 C 0.36155 0.1272 0.63757 0.0
C405 C 0.36674 0.13597 0.78797 0.0
C406 C 0.35104 0.1006 0.65642 0.0
C407 C 0.3484 0.09167 0.73984 0.0
H408 H 0.93109 0.87926 0.10324 0.0
H409 H 0.85347 0.84023 0.17323 0.0
H410 H 0.83737 0.84264 0.02689 0.0
H411 H 0.84554 0.85536 0.87863 0.0
H412 H 0.92287 0.89539 0.80965 0.0
H413 H 0.93901 0.89253 0.95543 0.0
C414 C 0.91078 0.87099 0.08647 0.0
C415 C 0.8936 0.85946 0.14951 0.0
C416 C 0.90159 0.87255 1.00209 0.0
C417 C 0.86707 0.84939 0.12643 0.0
C418 C 0.85788 0.85068 0.04256 0.0
C419 C 0.86581 0.86374 0.89528 0.0
C420 C 0.88294 0.87548 0.8323 0.0
C421 C 0.87493 0.86227 0.97981 0.0
C422 C 0.90933 0.88584 0.85588 0.0
C423 C 0.91856 0.88436 0.9396 0.0
H424 H 0.13707 0.42477 0.40653 0.0
H425 H 0.17378 0.34715 0.48368 0.0
H426 H 0.17223 0.33111 0.33804 0.0
H427 H 0.16102 0.33949 0.18838 0.0
H428 H 0.12403 0.41716 0.11271 0.0
H429 H 0.12579 0.43307 0.25805 0.0
C430 C 0.14514 0.4045 0.39161 0.0
C431 C 0.15572 0.38731 0.45628 0.0
C432 C 0.14422 0.39544 0.30781 0.0
C433 C 0.16538 0.36079 0.43554 0.0
C434 C 0.16459 0.35163 0.35211 0.0
C435 C 0.15309 0.35978 0.20367 0.0
C436 C 0.14248 0.3771 0.13927 0.0
C437 C 0.15402 0.36878 0.28772 0.0
C438 C 0.13269 0.40353 0.16047 0.0
C439 C 0.13354 0.4126 0.24377 0.0
H440 H 0.65857 0.64118 0.69603 0.0
H441 H 0.58059 0.68395 0.66625 0.0
H442 H 0.58512 0.68283 0.5132 0.0
H443 H 0.60913 0.66576 0.38556 0.0
H444 H 0.68735 0.62338 0.41602 0.0
H445 H 0.68494 0.62846 0.56843 0.0
C446 C 0.64291 0.65081 0.65615 0.0
C447 C 0.61912 0.6624 0.6935 0.0
C448 C 0.64548 0.64985 0.5671 0.0
C449 C 0.59894 0.67452 0.63989 0.0
C450 C 0.6015 0.6739 0.55189 0.0
C451 C 0.62588 0.65812 0.42537 0.0
C452 C 0.64817 0.64378 0.38841 0.0
C453 C 0.62434 0.661 0.51433 0.0
C454 C 0.66961 0.63397 0.44202 0.0
C455 C 0.66832 0.63695 0.5297 0.0
H456 H 0.2247 0.43221 0.86871 0.0
H457 H 0.22959 0.34514 0.80981 0.0
H458 H 0.27885 0.3451 0.84544 0.0
H459 H 0.32012 0.36872 0.89835 0.0
H460 H 0.31741 0.45582 0.95563 0.0
H461 H 0.26792 0.45702 0.91462 0.0
C462 C 0.23663 0.41331 0.86335 0.0
C463 C 0.22332 0.38867 0.83709 0.0
C464 C 0.26535 0.4134 0.88365 0.0
C465 C 0.23914 0.3644 0.82993 0.0
C466 C 0.2674 0.3643 0.8504 0.0
C467 C 0.30877 0.38805 0.90187 0.0
C468 C 0.32233 0.41208 0.93102 0.0
C469 C 0.28061 0.38854 0.87816 0.0
C470 C 0.30743 0.43703 0.93348 0.0
C471 C 0.27912 0.43766 0.91041 0.0
H472 H 0.65016 0.81439 0.16104 0.0
H473 H 0.56046 0.81484 0.17482 0.0
H474 H 0.55888 0.76589 0.13512 0.0
H475 H 0.58332 0.72256 0.09824 0.0
H476 H 0.67299 0.72364 0.07946 0.0
H477 H 0.67418 0.77225 0.11916 0.0
C478 C 0.63023 0.80381 0.15557 0.0
C479 C 0.60548 0.81824 0.17152 0.0
C480 C 0.62947 0.77585 0.13166 0.0
C481 C 0.57984 0.80424 0.16288 0.0
C482 C 0.57893 0.77622 0.14033 0.0
C483 C 0.60307 0.73349 0.10269 0.0
C484 C 0.62802 0.71939 0.08608 0.0
C485 C 0.60364 0.76175 0.1248 0.0
C486 C 0.65345 0.73392 0.09165 0.0
C487 C 0.6542 0.76176 0.11459 0.0
H488 H 0.27465 0.13867 0.25608 0.0
H489 H 0.29757 0.07401 0.43174 0.0
H490 H 0.24913 0.07028 0.47876 0.0
H491 H 0.20093 0.08836 0.47757 0.0
H492 H 0.17901 0.15275 0.29873 0.0
H493 H 0.22618 0.15334 0.24506 0.0
C494 C 0.26898 0.12357 0.30409 0.0
C495 C 0.28961 0.10683 0.34094 0.0
C496 C 0.24124 0.12155 0.33058 0.0
C497 C 0.28198 0.08711 0.40234 0.0
C498 C 0.25433 0.08507 0.42951 0.0
C499 C 0.20638 0.10225 0.42615 0.0
C500 C 0.18638 0.12072 0.39325 0.0
C501 C 0.23384 0.10261 0.39523 0.0
C502 C 0.19387 0.13844 0.32611 0.0
C503 C 0.22095 0.13888 0.29522 0.0
H504 H 0.85236 0.70694 0.66602 0.0
H505 H 0.94033 0.69994 0.7171 0.0
H506 H 0.94812 0.7467 0.65937 0.0
H507 H 0.92947 0.78959 0.5921 0.0
H508 H 0.84148 0.79359 0.53415 0.0
H509 H 0.83429 0.74807 0.59598 0.0
C510 C 0.87321 0.71576 0.66546 0.0
C511 C 0.89567 0.70027 0.69681 0.0
C512 C 0.87758 0.74208 0.62994 0.0
C513 C 0.92267 0.71166 0.6938 0.0
C514 C 0.92713 0.73832 0.66056 0.0
C515 C 0.90881 0.78037 0.59272 0.0
C516 C 0.88611 0.79505 0.55837 0.0
C517 C 0.90471 0.75371 0.62786 0.0
C518 C 0.85943 0.7828 0.55959 0.0
C519 C 0.85518 0.75674 0.59539 0.0
H520 H 0.79593 0.93619 0.51799 0.0
H521 H 0.83305 0.90025 0.2977 0.0
H522 H 0.78752 0.89654 0.23037 0.0
H523 H 0.73658 0.89806 0.24093 0.0
H524 H 0.69886 0.93623 0.45587 0.0
H525 H 0.74504 0.94466 0.51842 0.0
C526 C 0.79412 0.92828 0.45439 0.0
C527 C 0.81779 0.91785 0.41387 0.0
C528 C 0.76769 0.92616 0.41567 0.0
C529 C 0.81509 0.90777 0.33122 0.0
C530 C 0.78903 0.90559 0.29255 0.0
C531 C 0.73861 0.90853 0.30097 0.0
C532 C 0.71463 0.91619 0.34459 0.0
C533 C 0.76511 0.9137 0.33547 0.0
C534 C 0.71724 0.93014 0.42154 0.0
C535 C 0.74359 0.93488 0.45729 0.0
H536 H 0.08558 0.22148 0.63405 0.0
H537 H 0.09475 0.24929 0.37721 0.0
H538 H 0.09434 0.2977 0.42282 0.0
H539 H 0.09707 0.33163 0.53739 0.0
H540 H 0.09431 0.30333 0.79553 0.0
H541 H 0.08629 0.25569 0.74864 0.0
C542 C 0.08665 0.23827 0.58824 0.0
C543 C 0.08961 0.23216 0.50248 0.0
C544 C 0.0879 0.2659 0.61553 0.0
C545 C 0.09202 0.25379 0.44343 0.0
C546 C 0.09196 0.28137 0.46957 0.0
C547 C 0.09401 0.31509 0.58318 0.0
C548 C 0.09599 0.32088 0.66965 0.0
C549 C 0.0907 0.28765 0.55567 0.0
C550 C 0.09275 0.29925 0.72859 0.0
C551 C 0.08824 0.27206 0.70182 0.0
H552 H 0.7041 0.59999 0.7972 0.0
H553 H 0.70705 0.59828 0.06915 0.0
H554 H 0.75718 0.59047 0.06596 0.0
H555 H 0.80086 0.58895 0.98665 0.0
H556 H 0.79836 0.59353 0.71493 0.0
H557 H 0.74754 0.59503 0.71748 0.0
C558 C 0.7156 0.59737 0.8558 0.0
C559 C 0.70171 0.59981 0.93331 0.0
C560 C 0.74466 0.5936 0.85361 0.0
C561 C 0.7171 0.59662 1.00855 0.0
C562 C 0.74585 0.5922 1.00683 0.0
C563 C 0.78922 0.58971 0.92784 0.0
C564 C 0.80353 0.59118 0.85071 0.0
C565 C 0.75996 0.59135 0.9298 0.0
C566 C 0.78799 0.59245 0.77526 0.0
C567 C 0.75887 0.59339 0.77664 0.0
H568 H 0.43165 0.29521 0.18638 0.0
H569 H 0.3646 0.27926 1.01036 0.0
H570 H 0.36283 0.23092 0.05496 0.0
H571 H 0.37768 0.1941 0.14994 0.0
H572 H 0.44297 0.2093 0.33252 0.0
H573 H 0.44826 0.25678 0.27896 0.0
C574 C 0.41695 0.281 0.15729 0.0
C575 C 0.39819 0.29081 0.09549 0.0
C576 C 0.41558 0.25313 0.1847 0.0
C577 C 0.37908 0.27227 0.05863 0.0
C578 C 0.37805 0.24459 0.08399 0.0
C579 C 0.3933 0.20761 0.17778 0.0
C580 C 0.40978 0.19808 0.24559 0.0
C581 C 0.3958 0.23493 0.148 0.0
C582 C 0.42993 0.21604 0.28038 0.0
C583 C 0.43291 0.24326 0.24993 0.0
loop_
_geom_bond_atom_site_label_1
_geom_bond_atom_site_label_2
_geom_bond_distance
_geom_bond_site_symmetry_2
_ccdc_geom_bond_type
Co0 N4 2.148 . S
Co0 N10 2.128 1_554 S
Co0 N20 2.194 . S
Co0 O25 2.351 . S
Co0 O26 2.155 . S
Co0 O27 2.096 1_554 S
C1 N4 1.301 . S
C1 N5 1.328 . S
C1 H6 0.930 . S
C2 C3 1.333 . S
C2 N4 1.317 . S
C2 H7 0.930 . S
C3 C2 1.333 . S
C3 N5 1.350 . S
C3 H29 0.931 . S
N4 Co0 2.148 . S
N4 C1 1.301 . S
N4 C2 1.317 . S
N5 C1 1.328 . S
N5 C3 1.350 . S
H6 C1 0.930 . S
H7 C2 0.930 . S
C8 O9 1.224 . S
C8 O27 1.247 . S
O9 C8 1.224 . S
N10 Co0 2.128 1_556 S
N10 C11 1.355 . S
N10 C13 1.311 . S
C11 N10 1.355 . S
C11 C12 1.363 . S
C11 H23 0.929 . S
C12 C11 1.363 . S
C12 N14 1.375 . S
C12 H30 0.931 . S
C13 N10 1.311 . S
C13 N14 1.347 . S
C13 H24 0.929 . S
N14 C12 1.375 . S
N14 C13 1.347 . S
C15 C18 1.365 . S
C15 N20 1.328 . S
C15 H21 0.929 . S
C16 C17 1.362 1_556 S
C16 C19 1.378 . S
C16 H31 0.929 . S
C17 C16 1.362 1_554 S
C17 C18 1.366 . S
C18 C15 1.365 . S
C18 C17 1.366 . S
C18 H32 0.930 . S
C19 C16 1.378 . S
C19 N20 1.315 1_556 S
C19 H22 0.930 . S
N20 Co0 2.194 . S
N20 C15 1.328 . S
N20 C19 1.315 1_554 S
H21 C15 0.929 . S
H22 C19 0.930 . S
H23 C11 0.929 . S
H24 C13 0.929 . S
O25 Co0 2.351 . S
O25 C28 1.244 . S
O26 Co0 2.155 . S
O26 C28 1.240 . S
O27 Co0 2.096 1_556 S
O27 C8 1.247 . S
C28 O25 1.244 . S
C28 O26 1.240 . S
H29 C3 0.931 . S
H30 C12 0.931 . S
H31 C16 0.929 . S
H32 C18 0.930 . S
Co33 N37 2.148 . S
Co33 N43 2.128 . S
Co33 N53 2.194 . S
Co33 O58 2.351 . S
Co33 O59 2.155 . S
Co33 O60 2.096 . S
C34 N37 1.301 . S
C34 N38 1.328 . S
C34 H39 0.930 . S
C35 C36 1.333 . S
C35 N37 1.317 . S
C35 H40 0.930 . S
C36 C35 1.333 . S
C36 N38 1.350 . S
C36 H62 0.931 . S
N37 Co33 2.148 . S
N37 C34 1.301 . S
N37 C35 1.317 . S
N38 C34 1.328 . S
N38 C36 1.350 . S
H39 C34 0.930 . S
H40 C35 0.930 . S
C41 O42 1.224 . S
C41 O60 1.247 . S
O42 C41 1.224 . S
N43 Co33 2.128 . S
N43 C44 1.355 . S
N43 C46 1.311 . S
C44 N43 1.355 . S
C44 C45 1.363 . S
C44 H56 0.929 . S
C45 C44 1.363 . S
C45 N47 1.375 1_554 S
C45 H63 0.931 1_554 S
C46 N43 1.311 . S
C46 N47 1.347 1_554 S
C46 H57 0.929 . S
N47 C45 1.375 1_556 S
N47 C46 1.347 1_556 S
C48 C51 1.365 . S
C48 N53 1.328 . S
C48 H54 0.929 . S
C49 C50 1.362 . S
C49 C52 1.378 . S
C49 H64 0.929 . S
C50 C49 1.362 . S
C50 C51 1.366 . S
C51 C48 1.365 . S
C51 C50 1.366 . S
C51 H65 0.930 . S
C52 C49 1.378 . S
C52 N53 1.315 . S
C52 H55 0.930 . S
N53 Co33 2.194 . S
N53 C48 1.328 . S
N53 C52 1.315 . S
H54 C48 0.929 . S
H55 C52 0.930 . S
H56 C44 0.929 . S
H57 C46 0.929 . S
O58 Co33 2.351 . S
O58 C61 1.244 . S
O59 Co33 2.155 . S
O59 C61 1.240 . S
O60 Co33 2.096 . S
O60 C41 1.247 . S
C61 O58 1.244 . S
C61 O59 1.240 . S
H62 C36 0.931 . S
H63 C45 0.931 1_556 S
H64 C49 0.929 . S
H65 C51 0.930 . S
Co66 N70 2.148 . S
Co66 N76 2.128 . S
Co66 N86 2.194 . S
Co66 O91 2.351 . S
Co66 O92 2.155 . S
Co66 O93 2.096 . S
C67 N70 1.301 . S
C67 N71 1.328 . S
C67 H72 0.930 . S
C68 C69 1.333 . S
C68 N70 1.317 . S
C68 H73 0.930 . S
C69 C68 1.333 . S
C69 N71 1.350 . S
C69 H95 0.931 . S
N70 Co66 2.148 . S
N70 C67 1.301 . S
N70 C68 1.317 . S
N71 C67 1.328 . S
N71 C69 1.350 . S
H72 C67 0.930 . S
H73 C68 0.930 . S
C74 O75 1.224 . S
C74 O93 1.247 . S
O75 C74 1.224 . S
N76 Co66 2.128 . S
N76 C77 1.355 . S
N76 C79 1.311 . S
C77 N76 1.355 . S
C77 C78 1.363 . S
C77 H89 0.929 . S
C78 C77 1.363 . S
C78 N80 1.375 . S
C78 H96 0.931 . S
C79 N76 1.311 . S
C79 N80 1.347 . S
C79 H90 0.929 . S
N80 C78 1.375 . S
N80 C79 1.347 . S
C81 C84 1.365 . S
C81 N86 1.328 . S
C81 H87 0.929 . S
C82 C83 1.362 . S
C82 C85 1.378 . S
C82 H97 0.929 . S
C83 C82 1.362 . S
C83 C84 1.366 . S
C84 C81 1.365 . S
C84 C83 1.366 . S
C84 H98 0.930 . S
C85 C82 1.378 . S
C85 N86 1.315 . S
C85 H88 0.930 . S
N86 Co66 2.194 . S
N86 C81 1.328 . S
N86 C85 1.315 . S
H87 C81 0.929 . S
H88 C85 0.930 . S
H89 C77 0.929 . S
H90 C79 0.929 . S
O91 Co66 2.351 . S
O91 C94 1.244 . S
O92 Co66 2.155 . S
O92 C94 1.240 . S
O93 Co66 2.096 . S
O93 C74 1.247 . S
C94 O91 1.244 . S
C94 O92 1.240 . S
H95 C69 0.931 . S
H96 C78 0.931 . S
H97 C82 0.929 . S
H98 C84 0.930 . S
Co99 N103 2.148 . S
Co99 N109 2.128 . S
Co99 N119 2.194 . S
Co99 O124 2.351 . S
Co99 O125 2.155 . S
Co99 O126 2.096 . S
C100 N103 1.301 . S
C100 N104 1.328 . S
C100 H105 0.930 . S
C101 C102 1.333 . S
C101 N103 1.317 . S
C101 H106 0.930 . S
C102 C101 1.333 . S
C102 N104 1.350 . S
C102 H128 0.931 . S
N103 Co99 2.148 . S
N103 C100 1.301 . S
N103 C101 1.317 . S
N104 C100 1.328 . S
N104 C102 1.350 . S
H105 C100 0.930 . S
H106 C101 0.930 . S
C107 O108 1.224 . S
C107 O126 1.247 . S
O108 C107 1.224 . S
N109 Co99 2.128 . S
N109 C110 1.355 . S
N109 C112 1.311 . S
C110 N109 1.355 . S
C110 C111 1.363 . S
C110 H122 0.929 . S
C111 C110 1.363 . S
C111 N113 1.375 1_556 S
C111 H129 0.931 1_556 S
C112 N109 1.311 . S
C112 N113 1.347 1_556 S
C112 H123 0.929 . S
N113 C111 1.375 1_554 S
N113 C112 1.347 1_554 S
C114 C117 1.365 . S
C114 N119 1.328 . S
C114 H120 0.929 . S
C115 C116 1.362 . S
C115 C118 1.378 . S
C115 H130 0.929 . S
C116 C115 1.362 . S
C116 C117 1.366 . S
C117 C114 1.365 . S
C117 C116 1.366 . S
C117 H131 0.930 . S
C118 C115 1.378 . S
C118 N119 1.315 . S
C118 H121 0.930 . S
N119 Co99 2.194 . S
N119 C114 1.328 . S
N119 C118 1.315 . S
H120 C114 0.929 . S
H121 C118 0.930 . S
H122 C110 0.929 . S
H123 C112 0.929 . S
O124 Co99 2.351 . S
O124 C127 1.244 . S
O125 Co99 2.155 . S
O125 C127 1.240 . S
O126 Co99 2.096 . S
O126 C107 1.247 . S
C127 O124 1.244 . S
C127 O125 1.240 . S
H128 C102 0.931 . S
H129 C111 0.931 1_554 S
H130 C115 0.929 . S
H131 C117 0.930 . S
Co132 N136 2.148 . S
Co132 N142 2.128 . S
Co132 N152 2.194 . S
Co132 O157 2.351 . S
Co132 O158 2.155 . S
Co132 O159 2.096 . S
C133 N136 1.301 . S
C133 N137 1.328 . S
C133 H138 0.930 . S
C134 C135 1.333 . S
C134 N136 1.317 . S
C134 H139 0.930 . S
C135 C134 1.333 . S
C135 N137 1.350 . S
C135 H161 0.931 . S
N136 Co132 2.148 . S
N136 C133 1.301 . S
N136 C134 1.317 . S
N137 C133 1.328 . S
N137 C135 1.350 . S
H138 C133 0.930 . S
H139 C134 0.930 . S
C140 O141 1.224 . S
C140 O159 1.247 . S
O141 C140 1.224 . S
N142 Co132 2.128 . S
N142 C143 1.355 . S
N142 C145 1.311 . S
C143 N142 1.355 . S
C143 C144 1.363 . S
C143 H155 0.929 . S
C144 C143 1.363 . S
C144 N146 1.375 1_554 S
C144 H162 0.931 1_554 S
C145 N142 1.311 . S
C145 N146 1.347 1_554 S
C145 H156 0.929 . S
N146 C144 1.375 1_556 S
N146 C145 1.347 1_556 S
C147 C150 1.365 . S
C147 N152 1.328 . S
C147 H153 0.929 . S
C148 C149 1.362 . S
C148 C151 1.378 . S
C148 H163 0.929 . S
C149 C148 1.362 . S
C149 C150 1.366 . S
C150 C147 1.365 . S
C150 C149 1.366 . S
C150 H164 0.930 . S
C151 C148 1.378 . S
C151 N152 1.315 . S
C151 H154 0.930 . S
N152 Co132 2.194 . S
N152 C147 1.328 . S
N152 C151 1.315 . S
H153 C147 0.929 . S
H154 C151 0.930 . S
H155 C143 0.929 . S
H156 C145 0.929 . S
O157 Co132 2.351 . S
O157 C160 1.244 . S
O158 Co132 2.155 . S
O158 C160 1.240 . S
O159 Co132 2.096 . S
O159 C140 1.247 . S
C160 O157 1.244 . S
C160 O158 1.240 . S
H161 C135 0.931 . S
H162 C144 0.931 1_556 S
H163 C148 0.929 . S
H164 C150 0.930 . S
Co165 N169 2.148 . S
Co165 N175 2.128 . S
Co165 N185 2.194 . S
Co165 O190 2.351 . S
Co165 O191 2.155 . S
Co165 O192 2.096 . S
C166 N169 1.301 . S
C166 N170 1.328 . S
C166 H171 0.930 . S
C167 C168 1.333 . S
C167 N169 1.317 . S
C167 H172 0.930 . S
C168 C167 1.333 . S
C168 N170 1.350 . S
C168 H194 0.931 . S
N169 Co165 2.148 . S
N169 C166 1.301 . S
N169 C167 1.317 . S
N170 C166 1.328 . S
N170 C168 1.350 . S
H171 C166 0.930 . S
H172 C167 0.930 . S
C173 O174 1.224 . S
C173 O192 1.247 . S
O174 C173 1.224 . S
N175 Co165 2.128 . S
N175 C176 1.355 . S
N175 C178 1.311 . S
C176 N175 1.355 . S
C176 C177 1.363 . S
C176 H188 0.929 . S
C177 C176 1.363 . S
C177 N179 1.375 . S
C177 H195 0.931 . S
C178 N175 1.311 . S
C178 N179 1.347 . S
C178 H189 0.929 . S
N179 C177 1.375 . S
N179 C178 1.347 . S
C180 C183 1.365 . S
C180 N185 1.328 . S
C180 H186 0.929 . S
C181 C182 1.362 . S
C181 C184 1.378 . S
C181 H196 0.929 . S
C182 C181 1.362 . S
C182 C183 1.366 . S
C183 C180 1.365 . S
C183 C182 1.366 . S
C183 H197 0.930 . S
C184 C181 1.378 . S
C184 N185 1.315 . S
C184 H187 0.930 . S
N185 Co165 2.194 . S
N185 C180 1.328 . S
N185 C184 1.315 . S
H186 C180 0.929 . S
H187 C184 0.930 . S
H188 C176 0.929 . S
H189 C178 0.929 . S
O190 Co165 2.351 . S
O190 C193 1.244 . S
O191 Co165 2.155 . S
O191 C193 1.240 . S
O192 Co165 2.096 . S
O192 C173 1.247 . S
C193 O190 1.244 . S
C193 O191 1.240 . S
H194 C168 0.931 . S
H195 C177 0.931 . S
H196 C181 0.929 . S
H197 C183 0.930 . S
Co198 N202 2.148 . S
Co198 N208 2.128 . S
Co198 N218 2.194 . S
Co198 O223 2.351 . S
Co198 O224 2.155 . S
Co198 O225 2.096 . S
C199 N202 1.301 . S
C199 N203 1.328 1_556 S
C199 H204 0.930 . S
C200 C201 1.333 . S
C200 N202 1.317 . S
C200 H205 0.930 . S
C201 C200 1.333 . S
C201 N203 1.350 1_556 S
C201 H227 0.931 1_556 S
N202 Co198 2.148 . S
N202 C199 1.301 . S
N202 C200 1.317 . S
N203 C199 1.328 1_554 S
N203 C201 1.350 1_554 S
H204 C199 0.930 . S
H205 C200 0.930 . S
C206 O207 1.224 . S
C206 O225 1.247 . S
O207 C206 1.224 . S
N208 Co198 2.128 . S
N208 C209 1.355 . S
N208 C211 1.311 . S
C209 N208 1.355 . S
C209 C210 1.363 . S
C209 H221 0.929 . S
C210 C209 1.363 . S
C210 N212 1.375 . S
C210 H228 0.931 . S
C211 N208 1.311 . S
C211 N212 1.347 . S
C211 H222 0.929 . S
N212 C210 1.375 . S
N212 C211 1.347 . S
C213 C216 1.365 . S
C213 N218 1.328 . S
C213 H219 0.929 . S
C214 C215 1.362 . S
C214 C217 1.378 . S
C214 H229 0.929 . S
C215 C214 1.362 . S
C215 C216 1.366 . S
C216 C213 1.365 . S
C216 C215 1.366 . S
C216 H230 0.930 . S
C217 C214 1.378 . S
C217 N218 1.315 . S
C217 H220 0.930 . S
N218 Co198 2.194 . S
N218 C213 1.328 . S
N218 C217 1.315 . S
H219 C213 0.929 . S
H220 C217 0.930 . S
H221 C209 0.929 . S
H222 C211 0.929 . S
O223 Co198 2.351 . S
O223 C226 1.244 . S
O224 Co198 2.155 . S
O224 C226 1.240 . S
O225 Co198 2.096 . S
O225 C206 1.247 . S
C226 O223 1.244 . S
C226 O224 1.240 . S
H227 C201 0.931 1_554 S
H228 C210 0.931 . S
H229 C214 0.929 . S
H230 C216 0.930 . S
Co231 N235 2.148 . S
Co231 N241 2.128 1_554 S
Co231 N251 2.194 . S
Co231 O256 2.351 . S
Co231 O257 2.155 . S
Co231 O258 2.096 1_554 S
C232 N235 1.301 . S
C232 N236 1.328 . S
C232 H237 0.930 . S
C233 C234 1.333 . S
C233 N235 1.317 . S
C233 H238 0.930 . S
C234 C233 1.333 . S
C234 N236 1.350 . S
C234 H260 0.931 . S
N235 Co231 2.148 . S
N235 C232 1.301 . S
N235 C233 1.317 . S
N236 C232 1.328 . S
N236 C234 1.350 . S
H237 C232 0.930 . S
H238 C233 0.930 . S
C239 O240 1.224 . S
C239 O258 1.247 . S
O240 C239 1.224 . S
N241 Co231 2.128 1_556 S
N241 C242 1.355 . S
N241 C244 1.311 . S
C242 N241 1.355 . S
C242 C243 1.363 . S
C242 H254 0.929 . S
C243 C242 1.363 . S
C243 N245 1.375 . S
C243 H261 0.931 . S
C244 N241 1.311 . S
C244 N245 1.347 . S
C244 H255 0.929 . S
N245 C243 1.375 . S
N245 C244 1.347 . S
C246 C249 1.365 . S
C246 N251 1.328 . S
C246 H252 0.929 . S
C247 C248 1.362 1_556 S
C247 C250 1.378 . S
C247 H262 0.929 . S
C248 C247 1.362 1_554 S
C248 C249 1.366 . S
C249 C246 1.365 . S
C249 C248 1.366 . S
C249 H263 0.930 . S
C250 C247 1.378 . S
C250 N251 1.315 1_556 S
C250 H253 0.930 . S
N251 Co231 2.194 . S
N251 C246 1.328 . S
N251 C250 1.315 1_554 S
H252 C246 0.929 . S
H253 C250 0.930 . S
H254 C242 0.929 . S
H255 C244 0.929 . S
O256 Co231 2.351 . S
O256 C259 1.244 . S
O257 Co231 2.155 . S
O257 C259 1.240 . S
O258 Co231 2.096 1_556 S
O258 C239 1.247 . S
C259 O256 1.244 . S
C259 O257 1.240 . S
H260 C234 0.931 . S
H261 C243 0.931 . S
H262 C247 0.929 . S
H263 C249 0.930 . S
H264 C270 0.930 . S
H265 C273 0.930 . S
H266 C274 0.930 . S
H267 C275 0.930 . S
H268 C278 0.930 . S
H269 C279 0.930 . S
C270 H264 0.930 . S
C270 C271 1.355 . S
C270 C272 1.415 . S
C271 C270 1.355 . S
C271 C273 1.419 1_554 S
C272 C270 1.415 . S
C272 C277 1.425 1_554 S
C272 C279 1.409 . S
C273 H265 0.930 . S
C273 C271 1.419 1_556 S
C273 C274 1.362 . S
C274 H266 0.930 . S
C274 C273 1.362 . S
C274 C277 1.409 . S
C275 H267 0.930 . S
C275 C276 1.355 1_556 S
C275 C277 1.415 . S
C276 C275 1.355 1_554 S
C276 C278 1.419 . S
C277 C272 1.425 1_556 S
C277 C274 1.409 . S
C277 C275 1.415 . S
C278 H268 0.930 . S
C278 C276 1.419 . S
C278 C279 1.362 . S
C279 H269 0.930 . S
C279 C272 1.409 . S
C279 C278 1.362 . S
H280 C286 0.930 . S
H281 C289 0.930 . S
H282 C290 0.930 . S
H283 C291 0.930 . S
H284 C294 0.930 . S
H285 C295 0.930 . S
C286 H280 0.930 . S
C286 C287 1.355 . S
C286 C288 1.415 1_545 S
C287 C286 1.355 . S
C287 C289 1.419 . S
C288 C286 1.415 1_565 S
C288 C293 1.425 1_565 S
C288 C295 1.409 . S
C289 H281 0.930 . S
C289 C287 1.419 . S
C289 C290 1.362 . S
C290 H282 0.930 . S
C290 C289 1.362 . S
C290 C293 1.409 . S
C291 H283 0.930 . S
C291 C292 1.355 . S
C291 C293 1.415 1_565 S
C292 C291 1.355 . S
C292 C294 1.419 . S
C293 C288 1.425 1_545 S
C293 C290 1.409 . S
C293 C291 1.415 1_545 S
C294 H284 0.930 . S
C294 C292 1.419 . S
C294 C295 1.362 . S
C295 H285 0.930 . S
C295 C288 1.409 . S
C295 C294 1.362 . S
H296 C302 0.930 . S
H297 C305 0.930 . S
H298 C306 0.930 1_455 S
H299 C307 0.930 . S
H300 C310 0.930 . S
H301 C311 0.930 . S
C302 H296 0.930 . S
C302 C303 1.355 . S
C302 C304 1.415 1_565 S
C303 C302 1.355 . S
C303 C305 1.419 . S
C304 C302 1.415 1_545 S
C304 C309 1.425 1_655 S
C304 C311 1.409 . S
C305 H297 0.930 . S
C305 C303 1.419 . S
C305 C306 1.362 . S
C306 H298 0.930 1_655 S
C306 C305 1.362 . S
C306 C309 1.409 1_665 S
C307 H299 0.930 . S
C307 C308 1.355 . S
C307 C309 1.415 . S
C308 C307 1.355 . S
C308 C310 1.419 . S
C309 C304 1.425 1_455 S
C309 C306 1.409 1_445 S
C309 C307 1.415 . S
C310 H300 0.930 . S
C310 C308 1.419 . S
C310 C311 1.362 1_455 S
C311 H301 0.930 . S
C311 C304 1.409 . S
C311 C310 1.362 1_655 S
H312 C318 0.930 . S
H313 C321 0.930 . S
H314 C322 0.930 . S
H315 C323 0.930 . S
H316 C326 0.930 . S
H317 C327 0.930 . S
C318 H312 0.930 . S
C318 C319 1.355 . S
C318 C320 1.415 . S
C319 C318 1.355 . S
C319 C321 1.419 . S
C320 C318 1.415 . S
C320 C325 1.425 1_455 S
C320 C327 1.409 . S
C321 H313 0.930 . S
C321 C319 1.419 . S
C321 C322 1.362 1_455 S
C322 H314 0.930 . S
C322 C321 1.362 1_655 S
C322 C325 1.409 . S
C323 H315 0.930 . S
C323 C324 1.355 . S
C323 C325 1.415 . S
C324 C323 1.355 . S
C324 C326 1.419 . S
C325 C320 1.425 1_655 S
C325 C322 1.409 . S
C325 C323 1.415 . S
C326 H316 0.930 . S
C326 C324 1.419 . S
C326 C327 1.362 1_655 S
C327 H317 0.930 . S
C327 C320 1.409 . S
C327 C326 1.362 1_455 S
H328 C334 0.930 . S
H329 C337 0.930 . S
H330 C338 0.930 . S
H331 C339 0.930 . S
H332 C342 0.930 . S
H333 C343 0.930 . S
C334 H328 0.930 . S
C334 C335 1.355 . S
C334 C336 1.415 . S
C335 C334 1.355 . S
C335 C337 1.419 . S
C336 C334 1.415 . S
C336 C341 1.425 . S
C336 C343 1.409 . S
C337 H329 0.930 . S
C337 C335 1.419 . S
C337 C338 1.362 . S
C338 H330 0.930 . S
C338 C337 1.362 . S
C338 C341 1.409 . S
C339 H331 0.930 . S
C339 C340 1.355 . S
C339 C341 1.415 . S
C340 C339 1.355 . S
C340 C342 1.419 . S
C341 C336 1.425 . S
C341 C338 1.409 . S
C341 C339 1.415 . S
C342 H332 0.930 . S
C342 C340 1.419 . S
C342 C343 1.362 . S
C343 H333 0.930 . S
C343 C336 1.409 . S
C343 C342 1.362 . S
H344 C350 0.930 . S
H345 C353 0.930 . S
H346 C354 0.930 . S
H347 C355 0.930 . S
H348 C358 0.930 . S
H349 C359 0.930 . S
C350 H344 0.930 . S
C350 C351 1.355 . S
C350 C352 1.415 . S
C351 C350 1.355 . S
C351 C353 1.419 . S
C352 C350 1.415 . S
C352 C357 1.425 . S
C352 C359 1.409 . S
C353 H345 0.930 . S
C353 C351 1.419 . S
C353 C354 1.362 . S
C354 H346 0.930 . S
C354 C353 1.362 . S
C354 C357 1.409 . S
C355 H347 0.930 . S
C355 C356 1.355 . S
C355 C357 1.415 . S
C356 C355 1.355 . S
C356 C358 1.419 . S
C357 C352 1.425 . S
C357 C354 1.409 . S
C357 C355 1.415 . S
C358 H348 0.930 . S
C358 C356 1.419 . S
C358 C359 1.362 . S
C359 H349 0.930 . S
C359 C352 1.409 . S
C359 C358 1.362 . S
H360 C366 0.930 . S
H361 C369 0.930 . S
H362 C370 0.930 . S
H363 C371 0.930 . S
H364 C374 0.930 . S
H365 C375 0.930 . S
C366 H360 0.930 . S
C366 C367 1.355 . S
C366 C368 1.415 . S
C367 C366 1.355 . S
C367 C369 1.419 . S
C368 C366 1.415 . S
C368 C373 1.425 1_556 S
C368 C375 1.409 1_556 S
C369 H361 0.930 . S
C369 C367 1.419 . S
C369 C370 1.362 . S
C370 H362 0.930 . S
C370 C369 1.362 . S
C370 C373 1.409 1_556 S
C371 H363 0.930 . S
C371 C372 1.355 . S
C371 C373 1.415 . S
C372 C371 1.355 . S
C372 C374 1.419 . S
C373 C368 1.425 1_554 S
C373 C370 1.409 1_554 S
C373 C371 1.415 . S
C374 H364 0.930 . S
C374 C372 1.419 . S
C374 C375 1.362 . S
C375 H365 0.930 . S
C375 C368 1.409 1_554 S
C375 C374 1.362 . S
H376 C382 0.930 . S
H377 C385 0.930 . S
H378 C386 0.930 . S
H379 C387 0.930 . S
H380 C390 0.930 . S
H381 C391 0.930 . S
C382 H376 0.930 . S
C382 C383 1.355 . S
C382 C384 1.415 . S
C383 C382 1.355 . S
C383 C385 1.419 . S
C384 C382 1.415 . S
C384 C389 1.425 . S
C384 C391 1.409 . S
C385 H377 0.930 . S
C385 C383 1.419 . S
C385 C386 1.362 . S
C386 H378 0.930 . S
C386 C385 1.362 . S
C386 C389 1.409 . S
C387 H379 0.930 . S
C387 C388 1.355 . S
C387 C389 1.415 . S
C388 C387 1.355 . S
C388 C390 1.419 . S
C389 C384 1.425 . S
C389 C386 1.409 . S
C389 C387 1.415 . S
C390 H380 0.930 . S
C390 C388 1.419 . S
C390 C391 1.362 . S
C391 H381 0.930 . S
C391 C384 1.409 . S
C391 C390 1.362 . S
H392 C398 0.930 . S
H393 C401 0.930 . S
H394 C402 0.930 . S
H395 C403 0.930 . S
H396 C406 0.930 . S
H397 C407 0.930 . S
C398 H392 0.930 . S
C398 C399 1.355 . S
C398 C400 1.415 . S
C399 C398 1.355 . S
C399 C401 1.419 . S
C400 C398 1.415 . S
C400 C405 1.425 . S
C400 C407 1.409 . S
C401 H393 0.930 . S
C401 C399 1.419 . S
C401 C402 1.362 . S
C402 H394 0.930 . S
C402 C401 1.362 . S
C402 C405 1.409 . S
C403 H395 0.930 . S
C403 C404 1.355 . S
C403 C405 1.415 . S
C404 C403 1.355 . S
C404 C406 1.419 . S
C405 C400 1.425 . S
C405 C402 1.409 . S
C405 C403 1.415 . S
C406 H396 0.930 . S
C406 C404 1.419 . S
C406 C407 1.362 . S
C407 H397 0.930 . S
C407 C400 1.409 . S
C407 C406 1.362 . S
H408 C414 0.930 . S
H409 C417 0.930 . S
H410 C418 0.930 . S
H411 C419 0.930 . S
H412 C422 0.930 . S
H413 C423 0.930 . S
C414 H408 0.930 . S
C414 C415 1.355 . S
C414 C416 1.415 . S
C415 C414 1.355 . S
C415 C417 1.419 . S
C416 C414 1.415 . S
C416 C421 1.425 1_554 S
C416 C423 1.409 1_554 S
C417 H409 0.930 . S
C417 C415 1.419 . S
C417 C418 1.362 . S
C418 H410 0.930 . S
C418 C417 1.362 . S
C418 C421 1.409 1_554 S
C419 H411 0.930 . S
C419 C420 1.355 . S
C419 C421 1.415 . S
C420 C419 1.355 . S
C420 C422 1.419 . S
C421 C416 1.425 1_556 S
C421 C418 1.409 1_556 S
C421 C419 1.415 . S
C422 H412 0.930 . S
C422 C420 1.419 . S
C422 C423 1.362 . S
C423 H413 0.930 . S
C423 C416 1.409 1_556 S
C423 C422 1.362 . S
H424 C430 0.930 . S
H425 C433 0.930 . S
H426 C434 0.930 . S
H427 C435 0.930 . S
H428 C438 0.930 . S
H429 C439 0.930 . S
C430 H424 0.930 . S
C430 C431 1.355 . S
C430 C432 1.415 . S
C431 C430 1.355 . S
C431 C433 1.419 . S
C432 C430 1.415 . S
C432 C437 1.425 . S
C432 C439 1.409 . S
C433 H425 0.930 . S
C433 C431 1.419 . S
C433 C434 1.362 . S
C434 H426 0.930 . S
C434 C433 1.362 . S
C434 C437 1.409 . S
C435 H427 0.930 . S
C435 C436 1.355 . S
C435 C437 1.415 . S
C436 C435 1.355 . S
C436 C438 1.419 . S
C437 C432 1.425 . S
C437 C434 1.409 . S
C437 C435 1.415 . S
C438 H428 0.930 . S
C438 C436 1.419 . S
C438 C439 1.362 . S
C439 H429 0.930 . S
C439 C432 1.409 . S
C439 C438 1.362 . S
H440 C446 0.930 . S
H441 C449 0.930 . S
H442 C450 0.930 . S
H443 C451 0.930 . S
H444 C454 0.930 . S
H445 C455 0.930 . S
C446 H440 0.930 . S
C446 C447 1.355 . S
C446 C448 1.415 . S
C447 C446 1.355 . S
C447 C449 1.419 . S
C448 C446 1.415 . S
C448 C453 1.425 . S
C448 C455 1.409 . S
C449 H441 0.930 . S
C449 C447 1.419 . S
C449 C450 1.362 . S
C450 H442 0.930 . S
C450 C449 1.362 . S
C450 C453 1.409 . S
C451 H443 0.930 . S
C451 C452 1.355 . S
C451 C453 1.415 . S
C452 C451 1.355 . S
C452 C454 1.419 . S
C453 C448 1.425 . S
C453 C450 1.409 . S
C453 C451 1.415 . S
C454 H444 0.930 . S
C454 C452 1.419 . S
C454 C455 1.362 . S
C455 H445 0.930 . S
C455 C448 1.409 . S
C455 C454 1.362 . S
H456 C462 0.930 . S
H457 C465 0.930 . S
H458 C466 0.930 . S
H459 C467 0.930 . S
H460 C470 0.930 . S
H461 C471 0.930 . S
C462 H456 0.930 . S
C462 C463 1.355 . S
C462 C464 1.415 . S
C463 C462 1.355 . S
C463 C465 1.419 . S
C464 C462 1.415 . S
C464 C469 1.425 . S
C464 C471 1.409 . S
C465 H457 0.930 . S
C465 C463 1.419 . S
C465 C466 1.362 . S
C466 H458 0.930 . S
C466 C465 1.362 . S
C466 C469 1.409 . S
C467 H459 0.930 . S
C467 C468 1.355 . S
C467 C469 1.415 . S
C468 C467 1.355 . S
C468 C470 1.419 . S
C469 C464 1.425 . S
C469 C466 1.409 . S
C469 C467 1.415 . S
C470 H460 0.930 . S
C470 C468 1.419 . S
C470 C471 1.362 . S
C471 H461 0.930 . S
C471 C464 1.409 . S
C471 C470 1.362 . S
H472 C478 0.930 . S
H473 C481 0.930 . S
H474 C482 0.930 . S
H475 C483 0.930 . S
H476 C486 0.930 1_556 S
H477 C487 0.930 1_556 S
C478 H472 0.930 . S
C478 C479 1.355 . S
C478 C480 1.415 . S
C479 C478 1.355 . S
C479 C481 1.419 . S
C480 C478 1.415 . S
C480 C485 1.425 . S
C480 C487 1.409 . S
C481 H473 0.930 . S
C481 C479 1.419 . S
C481 C482 1.362 . S
C482 H474 0.930 . S
C482 C481 1.362 . S
C482 C485 1.409 . S
C483 H475 0.930 . S
C483 C484 1.355 . S
C483 C485 1.415 . S
C484 C483 1.355 . S
C484 C486 1.419 . S
C485 C480 1.425 . S
C485 C482 1.409 . S
C485 C483 1.415 . S
C486 H476 0.930 1_554 S
C486 C484 1.419 . S
C486 C487 1.362 . S
C487 H477 0.930 1_554 S
C487 C480 1.409 . S
C487 C486 1.362 . S
H488 C494 0.930 . S
H489 C497 0.930 . S
H490 C498 0.930 . S
H491 C499 0.930 . S
H492 C502 0.930 . S
H493 C503 0.930 . S
C494 H488 0.930 . S
C494 C495 1.355 . S
C494 C496 1.415 . S
C495 C494 1.355 . S
C495 C497 1.419 . S
C496 C494 1.415 . S
C496 C501 1.425 . S
C496 C503 1.409 . S
C497 H489 0.930 . S
C497 C495 1.419 . S
C497 C498 1.362 . S
C498 H490 0.930 . S
C498 C497 1.362 . S
C498 C501 1.409 . S
C499 H491 0.930 . S
C499 C500 1.355 . S
C499 C501 1.415 . S
C500 C499 1.355 . S
C500 C502 1.419 . S
C501 C496 1.425 . S
C501 C498 1.409 . S
C501 C499 1.415 . S
C502 H492 0.930 . S
C502 C500 1.419 . S
C502 C503 1.362 . S
C503 H493 0.930 . S
C503 C496 1.409 . S
C503 C502 1.362 . S
H504 C510 0.930 . S
H505 C513 0.930 . S
H506 C514 0.930 . S
H507 C515 0.930 . S
H508 C518 0.930 . S
H509 C519 0.930 . S
C510 H504 0.930 . S
C510 C511 1.355 . S
C510 C512 1.415 . S
C511 C510 1.355 . S
C511 C513 1.419 . S
C512 C510 1.415 . S
C512 C517 1.425 . S
C512 C519 1.409 . S
C513 H505 0.930 . S
C513 C511 1.419 . S
C513 C514 1.362 . S
C514 H506 0.930 . S
C514 C513 1.362 . S
C514 C517 1.409 . S
C515 H507 0.930 . S
C515 C516 1.355 . S
C515 C517 1.415 . S
C516 C515 1.355 . S
C516 C518 1.419 . S
C517 C512 1.425 . S
C517 C514 1.409 . S
C517 C515 1.415 . S
C518 H508 0.930 . S
C518 C516 1.419 . S
C518 C519 1.362 . S
C519 H509 0.930 . S
C519 C512 1.409 . S
C519 C518 1.362 . S
H520 C526 0.930 . S
H521 C529 0.930 . S
H522 C530 0.930 . S
H523 C531 0.930 . S
H524 C534 0.930 . S
H525 C535 0.930 . S
C526 H520 0.930 . S
C526 C527 1.355 . S
C526 C528 1.415 . S
C527 C526 1.355 . S
C527 C529 1.419 . S
C528 C526 1.415 . S
C528 C533 1.425 . S
C528 C535 1.409 . S
C529 H521 0.930 . S
C529 C527 1.419 . S
C529 C530 1.362 . S
C530 H522 0.930 . S
C530 C529 1.362 . S
C530 C533 1.409 . S
C531 H523 0.930 . S
C531 C532 1.355 . S
C531 C533 1.415 . S
C532 C531 1.355 . S
C532 C534 1.419 . S
C533 C528 1.425 . S
C533 C530 1.409 . S
C533 C531 1.415 . S
C534 H524 0.930 . S
C534 C532 1.419 . S
C534 C535 1.362 . S
C535 H525 0.930 . S
C535 C528 1.409 . S
C535 C534 1.362 . S
H536 C542 0.930 . S
H537 C545 0.930 . S
H538 C546 0.930 . S
H539 C547 0.930 . S
H540 C550 0.930 . S
H541 C551 0.930 . S
C542 H536 0.930 . S
C542 C543 1.355 . S
C542 C544 1.415 . S
C543 C542 1.355 . S
C543 C545 1.419 . S
C544 C542 1.415 . S
C544 C549 1.425 . S
C544 C551 1.409 . S
C545 H537 0.930 . S
C545 C543 1.419 . S
C545 C546 1.362 . S
C546 H538 0.930 . S
C546 C545 1.362 . S
C546 C549 1.409 . S
C547 H539 0.930 . S
C547 C548 1.355 . S
C547 C549 1.415 . S
C548 C547 1.355 . S
C548 C550 1.419 . S
C549 C544 1.425 . S
C549 C546 1.409 . S
C549 C547 1.415 . S
C550 H540 0.930 . S
C550 C548 1.419 . S
C550 C551 1.362 . S
C551 H541 0.930 . S
C551 C544 1.409 . S
C551 C550 1.362 . S
H552 C558 0.930 . S
H553 C561 0.930 . S
H554 C562 0.930 1_554 S
H555 C563 0.930 . S
H556 C566 0.930 . S
H557 C567 0.930 . S
C558 H552 0.930 . S
C558 C559 1.355 . S
C558 C560 1.415 . S
C559 C558 1.355 . S
C559 C561 1.419 1_556 S
C560 C558 1.415 . S
C560 C565 1.425 . S
C560 C567 1.409 . S
C561 H553 0.930 . S
C561 C559 1.419 1_554 S
C561 C562 1.362 1_554 S
C562 H554 0.930 1_556 S
C562 C561 1.362 1_556 S
C562 C565 1.409 . S
C563 H555 0.930 . S
C563 C564 1.355 . S
C563 C565 1.415 . S
C564 C563 1.355 . S
C564 C566 1.419 . S
C565 C560 1.425 . S
C565 C562 1.409 . S
C565 C563 1.415 . S
C566 H556 0.930 . S
C566 C564 1.419 . S
C566 C567 1.362 . S
C567 H557 0.930 . S
C567 C560 1.409 . S
C567 C566 1.362 . S
H568 C574 0.930 . S
H569 C577 0.930 . S
H570 C578 0.930 . S
H571 C579 0.930 . S
H572 C582 0.930 . S
H573 C583 0.930 . S
C574 H568 0.930 . S
C574 C575 1.355 . S
C574 C576 1.415 . S
C575 C574 1.355 . S
C575 C577 1.419 . S
C576 C574 1.415 . S
C576 C581 1.425 . S
C576 C583 1.409 . S
C577 H569 0.930 . S
C577 C575 1.419 . S
C577 C578 1.362 . S
C578 H570 0.930 . S
C578 C577 1.362 . S
C578 C581 1.409 . S
C579 H571 0.930 . S
C579 C580 1.355 . S
C579 C581 1.415 . S
C580 C579 1.355 . S
C580 C582 1.419 . S
C581 C576 1.425 . S
C581 C578 1.409 . S
C581 C579 1.415 . S
C582 H572 0.930 . S
C582 C580 1.419 . S
C582 C583 1.362 . S
C583 H573 0.930 . S
C583 C576 1.409 . S
C583 C582 1.362 . S
C271 C248 1.289 . S
C276 C17 1.277 . S
C287 C149 1.266 . S
C292 C50 1.279 . S
C303 C182 1.257 . S
C308 C83 1.268 . S
C319 C215 1.268 . S
C324 C116 1.268 . S
C335 N5 1.445 . S
C340 N14 1.441 . S
C351 N47 1.440 . S
C356 N38 1.444 . S
C367 N71 1.447 . S
C372 N80 1.443 . S
C383 N113 1.448 . S
C388 N104 1.450 . S
C399 N146 1.441 . S
C404 N137 1.445 . S
C415 N179 1.444 . S
C420 N170 1.446 . S
C431 N212 1.435 . S
C436 N203 1.438 . S
C447 N245 1.421 . S
C452 N236 1.427 . S
C463 C226 1.355 . S
C468 C8 1.391 . S
C479 C41 1.404 . S
C484 C259 1.388 . S
C495 C160 1.376 . S
C500 C74 1.348 . S
C511 C127 1.358 . S
C516 C193 1.314 . S
C527 C173 1.319 . S
C532 C61 1.337 . S
C543 C94 1.346 . S
C548 C206 1.365 . S
C559 C239 1.396 . S
C564 C107 1.393 . S
C575 C28 1.338 . S
C580 C140 1.381 . S
