# Generated by pormake.
# Topology umw, (4)-cn, num edge types: 1
# Building blocks:
#     Node 0, Type 0, BuildingBlock: AZAVOO_clean_sbu_0, # of connection points: 4
#     Node 1, Type 0, BuildingBlock: AZAVOO_clean_sbu_0, # of connection points: 4
#     Node 2, Type 0, BuildingBlock: AZAVOO_clean_sbu_0, # of connection points: 4
#     Node 3, Type 0, BuildingBlock: AZAVOO_clean_sbu_0, # of connection points: 4
#     Node 4, Type 0, BuildingBlock: AZAVOO_clean_sbu_0, # of connection points: 4
#     Node 5, Type 0, BuildingBlock: AZAVOO_clean_sbu_0, # of connection points: 4
#     Node 6, Type 0, BuildingBlock: AZAVOO_clean_sbu_0, # of connection points: 4
#     Node 7, Type 0, BuildingBlock: AZAVOO_clean_sbu_0, # of connection points: 4
#     Edge 8, Type (0, 0), BuildingBlock: FUNLAD_clean_linker_0, # of connection points: 2
#     Edge 9, Type (0, 0), BuildingBlock: FUNLAD_clean_linker_0, # of connection points: 2
#     Edge 10, Type (0, 0), BuildingBlock: FUNLAD_clean_linker_0, # of connection points: 2
#     Edge 11, Type (0, 0), BuildingBlock: FUNLAD_clean_linker_0, # of connection points: 2
#     Edge 12, Type (0, 0), BuildingBlock: FUNLAD_clean_linker_0, # of connection points: 2
#     Edge 13, Type (0, 0), BuildingBlock: FUNLAD_clean_linker_0, # of connection points: 2
#     Edge 14, Type (0, 0), BuildingBlock: FUNLAD_clean_linker_0, # of connection points: 2
#     Edge 15, Type (0, 0), BuildingBlock: FUNLAD_clean_linker_0, # of connection points: 2
#     Edge 16, Type (0, 0), BuildingBlock: FUNLAD_clean_linker_0, # of connection points: 2
#     Edge 17, Type (0, 0), BuildingBlock: FUNLAD_clean_linker_0, # of connection points: 2
#     Edge 18, Type (0, 0), BuildingBlock: FUNLAD_clean_linker_0, # of connection points: 2
#     Edge 19, Type (0, 0), BuildingBlock: FUNLAD_clean_linker_0, # of connection points: 2
#     Edge 20, Type (0, 0), BuildingBlock: FUNLAD_clean_linker_0, # of connection points: 2
#     Edge 21, Type (0, 0), BuildingBlock: FUNLAD_clean_linker_0, # of connection points: 2
#     Edge 22, Type (0, 0), BuildingBlock: FUNLAD_clean_linker_0, # of connection points: 2
#     Edge 23, Type (0, 0), BuildingBlock: FUNLAD_clean_linker_0, # of connection points: 2
# Relax obj value: 0.147
# Max RMSD: 0.119
# Mean RMSD: 0.119
data_MOF--net-umw--node1-AZAVOO_clean_sbu_0--edge1-FUNLAD_clean_linker_0
_symmetry_space_group_name_H-M    P1
_symmetry_Int_Tables_number       1
_symmetry_cell_setting            triclinic
loop_
_symmetry_equiv_pos_as_xyz
'x, y, z'
_cell_length_a     51.872121
_cell_length_b     51.999257
_cell_length_c     27.495202
_cell_angle_alpha  90.173203
_cell_angle_beta   89.667651
_cell_angle_gamma 90.167185
loop_
_atom_site_label
_atom_site_type_symbol
_atom_site_fract_x
_atom_site_fract_y
_atom_site_fract_z
_atom_type_partial_charge
Mg0 Mg 0.37861 0.14941 0.24929 0.0
O1 O 0.40888 0.14212 0.30913 0.0
O2 O 0.43488 0.11082 0.28237 0.0
Mg3 Mg 0.42368 0.10013 0.20491 0.0
C4 C 0.42788 0.12683 0.31512 0.0
C5 C 0.34568 0.19767 0.26925 0.0
O6 O 0.33846 0.19062 0.22545 0.0
O7 O 0.40836 0.17285 0.20531 0.0
O8 O 0.43451 0.141 0.1812 0.0
O9 O 0.35457 0.11653 0.27791 0.0
O10 O 0.38429 0.1125 0.22081 0.0
C11 C 0.42841 0.16478 0.18274 0.0
C12 C 0.36762 0.10176 0.24895 0.0
O13 O 0.36339 0.18494 0.29004 0.0
Mg14 Mg 0.82175 0.37743 0.49649 0.0
O15 O 0.82891 0.40732 0.55761 0.0
O16 O 0.86199 0.43197 0.53349 0.0
Mg17 Mg 0.87385 0.42066 0.4566 0.0
C18 C 0.84501 0.4256 0.56504 0.0
C19 C 0.78395 0.33876 0.53948 0.0
O20 O 0.8033 0.3251 0.52251 0.0
O21 O 0.80039 0.4079 0.45152 0.0
O22 O 0.83383 0.43291 0.43044 0.0
O23 O 0.8528 0.35253 0.52781 0.0
O24 O 0.85981 0.3818 0.47144 0.0
C25 C 0.80975 0.42767 0.4301 0.0
C26 C 0.86903 0.36507 0.50091 0.0
O27 O 0.78473 0.36308 0.53434 0.0
Mg28 Mg 0.59237 0.82017 0.74327 0.0
O29 O 0.56506 0.82227 0.80996 0.0
O30 O 0.53269 0.84859 0.79082 0.0
Mg31 Mg 0.53864 0.86322 0.71376 0.0
C32 C 0.54397 0.83371 0.8207 0.0
C33 C 0.63848 0.78715 0.77288 0.0
O34 O 0.64872 0.80631 0.74835 0.0
O35 O 0.5638 0.79373 0.7028 0.0
O36 O 0.53276 0.82214 0.68617 0.0
O37 O 0.61386 0.85519 0.76946 0.0
O38 O 0.58028 0.85678 0.72093 0.0
C39 C 0.54204 0.79945 0.68409 0.0
C40 C 0.59735 0.86892 0.74594 0.0
O41 O 0.61406 0.78625 0.77739 0.0
Mg42 Mg 0.15353 0.59404 -0.00336 0.0
O43 O 0.14966 0.56564 0.0605 0.0
O44 O 0.11911 0.53691 0.04185 0.0
Mg45 Mg 0.10383 0.54616 0.96631 0.0
C46 C 0.13603 0.54586 0.07092 0.0
C47 C 0.18989 0.63532 0.03747 0.0
O48 O 0.16948 0.64821 0.02354 0.0
O49 O 0.17584 0.56382 0.95163 0.0
O50 O 0.14371 0.53626 0.93545 0.0
O51 O 0.12145 0.6178 0.02852 0.0
O52 O 0.11545 0.58644 0.97567 0.0
C53 C 0.16733 0.54311 0.93213 0.0
C54 C 0.10565 0.60359 0.00396 0.0
O55 O 0.19027 0.6111 0.03061 0.0
Mg56 Mg 0.37912 0.81681 0.29044 0.0
O57 O 0.40643 0.82089 0.22444 0.0
O58 O 0.43664 0.84994 0.24327 0.0
Mg59 Mg 0.42926 0.86419 0.32062 0.0
C60 C 0.42658 0.83393 0.21358 0.0
C61 C 0.33703 0.77697 0.27099 0.0
O62 O 0.32771 0.79145 0.30615 0.0
O63 O 0.40949 0.79271 0.33067 0.0
O64 O 0.43833 0.82358 0.34753 0.0
O65 O 0.35551 0.85017 0.26412 0.0
O66 O 0.38842 0.85399 0.31396 0.0
C67 C 0.4308 0.80018 0.34932 0.0
C68 C 0.37074 0.86492 0.28887 0.0
O69 O 0.35975 0.78156 0.25559 0.0
Mg70 Mg 0.15525 0.37375 0.52778 0.0
O71 O 0.15144 0.40218 0.46392 0.0
O72 O 0.1204 0.43026 0.48304 0.0
Mg73 Mg 0.10482 0.42065 0.55851 0.0
C74 C 0.13757 0.42171 0.45378 0.0
C75 C 0.20095 0.33651 0.5124 0.0
O76 O 0.18892 0.32662 0.55019 0.0
O77 O 0.17691 0.40431 0.57294 0.0
O78 O 0.14438 0.43127 0.58936 0.0
O79 O 0.1238 0.3494 0.49562 0.0
O80 O 0.11699 0.38065 0.54849 0.0
C81 C 0.16806 0.42484 0.59257 0.0
C82 C 0.10763 0.36342 0.51993 0.0
O83 O 0.19244 0.35732 0.49438 0.0
Mg84 Mg 0.59347 0.15461 0.78023 0.0
O85 O 0.56529 0.15045 0.71548 0.0
O86 O 0.53686 0.11988 0.7359 0.0
Mg87 Mg 0.54519 0.10556 0.81219 0.0
C88 C 0.54566 0.13641 0.70581 0.0
C89 C 0.63354 0.19665 0.76502 0.0
O90 O 0.6421 0.18279 0.80138 0.0
O91 O 0.56306 0.17744 0.82369 0.0
O92 O 0.53535 0.14567 0.84139 0.0
O93 O 0.61799 0.12239 0.75105 0.0
O94 O 0.58559 0.11678 0.80206 0.0
C95 C 0.54227 0.16924 0.84362 0.0
C96 C 0.60341 0.10677 0.77542 0.0
O97 O 0.61176 0.19085 0.74691 0.0
Mg98 Mg 0.81897 0.59527 0.02533 0.0
O99 O 0.8229 0.56521 0.96363 0.0
O100 O 0.85426 0.53806 0.98451 0.0
Mg101 Mg 0.86889 0.54886 0.0598 0.0
C102 C 0.83715 0.5457 0.95471 0.0
C103 C 0.78055 0.63608 -0.00613 0.0
O104 O 0.79851 0.64866 0.01772 0.0
O105 O 0.79661 0.56595 0.07224 0.0
O106 O 0.82885 0.53909 0.09025 0.0
O107 O 0.85107 0.61857 -0.00808 0.0
O108 O 0.85696 0.58856 0.04714 0.0
C109 C 0.80519 0.54571 0.0929 0.0
C110 C 0.86682 0.60506 0.01765 0.0
O111 O 0.78241 0.61174 -0.00955 0.0
C112 C 0.4404 0.14822 0.39391 0.0
C113 C 0.44228 0.12729 0.36155 0.0
C114 C 0.45429 0.14836 0.43751 0.0
C115 C 0.47011 0.12742 0.4497 0.0
C116 C 0.47173 0.10648 0.41757 0.0
C117 C 0.45822 0.1065 0.37386 0.0
C118 C 0.48397 0.12587 0.49668 0.0
C119 C 0.49254 0.14648 0.52172 0.0
C120 C 0.50615 0.14382 0.56891 0.0
C121 C 0.52521 0.16173 0.58212 0.0
C122 C 0.53835 0.15932 0.6263 0.0
C123 C 0.53232 0.13916 0.65848 0.0
H124 H 0.48479 0.11019 0.5932 0.0
C125 C 0.51287 0.12157 0.64545 0.0
C126 C 0.49994 0.12388 0.60136 0.0
H127 H 0.50751 0.1059 0.66936 0.0
H128 H 0.42827 0.16451 0.38553 0.0
H129 H 0.4521 0.16454 0.46202 0.0
H130 H 0.48357 0.09 0.42629 0.0
H131 H 0.46001 0.08997 0.35002 0.0
H132 H 0.48832 0.10671 0.50999 0.0
H133 H 0.49067 0.1656 0.50637 0.0
H134 H 0.53016 0.17743 0.55797 0.0
H135 H 0.55307 0.17333 0.63534 0.0
C136 C 0.82324 0.4383 0.6437 0.0
C137 C 0.84455 0.43975 0.61194 0.0
C138 C 0.82324 0.45187 0.68787 0.0
C139 C 0.84469 0.46692 0.70118 0.0
C140 C 0.86598 0.46812 0.66963 0.0
C141 C 0.86585 0.45492 0.62542 0.0
C142 C 0.84632 0.48058 0.74856 0.0
C143 C 0.82576 0.48962 0.77333 0.0
C144 C 0.82856 0.50363 0.82025 0.0
C145 C 0.81103 0.52312 0.83271 0.0
C146 C 0.81376 0.53696 0.87621 0.0
C147 C 0.8339 0.53125 0.90847 0.0
H148 H 0.86176 0.48216 0.84538 0.0
C149 C 0.85103 0.51127 0.89639 0.0
C150 C 0.84838 0.49762 0.85294 0.0
H151 H 0.86663 0.50612 0.92046 0.0
H152 H 0.80656 0.42674 0.63444 0.0
H153 H 0.80673 0.45003 0.71188 0.0
H154 H 0.88283 0.47938 0.67917 0.0
H155 H 0.88269 0.45636 0.60209 0.0
H156 H 0.86555 0.48455 0.7622 0.0
H157 H 0.80664 0.4881 0.75768 0.0
H158 H 0.79543 0.52795 0.80838 0.0
H159 H 0.80009 0.55207 0.88453 0.0
C160 C 0.46336 0.84103 0.15558 0.0
C161 C 0.43889 0.83039 0.1652 0.0
C162 C 0.47494 0.83817 0.10991 0.0
C163 C 0.46231 0.82461 0.07263 0.0
C164 C 0.43787 0.81402 0.08214 0.0
C165 C 0.42635 0.81667 0.12803 0.0
C166 C 0.47327 0.82287 0.02267 0.0
C167 C 0.49877 0.82388 0.013 0.0
C168 C 0.50948 0.82493 0.96277 0.0
C169 C 0.53468 0.81622 0.9538 0.0
C170 C 0.54581 0.81849 0.90746 0.0
C171 C 0.53207 0.82996 0.86935 0.0
H172 H 0.4765 0.84381 0.93019 0.0
C173 C 0.50681 0.8386 0.87842 0.0
C174 C 0.49565 0.83614 0.92448 0.0
H175 H 0.49564 0.84758 0.84999 0.0
H176 H 0.47358 0.85176 0.18328 0.0
H177 H 0.49344 0.84729 0.10363 0.0
H178 H 0.42759 0.80373 0.0539 0.0
H179 H 0.40746 0.80831 0.13409 0.0
H180 H 0.45976 0.8204 -0.00702 0.0
H181 H 0.51243 0.82371 0.04279 0.0
H182 H 0.54586 0.80777 0.9828 0.0
H183 H 0.56533 0.81174 0.90181 0.0
C184 C 0.13052 0.45938 0.39895 0.0
C185 C 0.14115 0.43486 0.40644 0.0
C186 C 0.13295 0.47157 0.35396 0.0
C187 C 0.146 0.45947 0.31524 0.0
C188 C 0.15665 0.43501 0.32266 0.0
C189 C 0.1545 0.42291 0.36793 0.0
C190 C 0.14709 0.47111 0.26599 0.0
C191 C 0.14683 0.49671 0.25844 0.0
C192 C 0.14531 0.50834 0.20926 0.0
C193 C 0.15553 0.53303 0.20151 0.0
C194 C 0.15303 0.54508 0.15633 0.0
C195 C 0.13975 0.53284 0.11825 0.0
H196 H 0.12351 0.47726 0.176 0.0
C197 C 0.12951 0.50812 0.1261 0.0
C198 C 0.13229 0.49598 0.171 0.0
H199 H 0.11914 0.49814 0.0976 0.0
H200 H 0.12009 0.46914 0.42778 0.0
H201 H 0.12384 0.49009 0.34928 0.0
H202 H 0.16657 0.42516 0.29326 0.0
H203 H 0.16279 0.40398 0.37238 0.0
H204 H 0.14845 0.4581 0.23509 0.0
H205 H 0.14812 0.50975 0.28929 0.0
H206 H 0.16541 0.54308 0.23056 0.0
H207 H 0.16104 0.56417 0.15161 0.0
C208 C 0.33673 0.22442 0.34408 0.0
C209 C 0.33186 0.21876 0.29492 0.0
C210 C 0.32219 0.2431 0.3688 0.0
C211 C 0.30238 0.25648 0.34485 0.0
C212 C 0.29826 0.25143 0.2953 0.0
C213 C 0.3127 0.23277 0.27071 0.0
C214 C 0.2854 0.27561 0.36983 0.0
C215 C 0.28092 0.27588 0.41824 0.0
C216 C 0.26151 0.29287 0.44243 0.0
C217 C 0.25127 0.28527 0.48756 0.0
C218 C 0.23206 0.29973 0.51059 0.0
C219 C 0.2227 0.32239 0.48932 0.0
H220 H 0.26074 0.32311 0.38793 0.0
C221 C 0.23359 0.33062 0.44503 0.0
C222 C 0.25281 0.31606 0.42184 0.0
H223 H 0.22699 0.3481 0.42783 0.0
H224 H 0.3515 0.21415 0.36372 0.0
H225 H 0.32661 0.24693 0.40653 0.0
H226 H 0.28337 0.26156 0.27567 0.0
H227 H 0.3085 0.22907 0.23278 0.0
H228 H 0.27454 0.28846 0.34668 0.0
H229 H 0.29015 0.26159 0.4409 0.0
H230 H 0.25772 0.26768 0.50463 0.0
H231 H 0.22427 0.29288 0.54483 0.0
C232 C 0.76414 0.2993 0.57564 0.0
C233 C 0.76229 0.32566 0.56497 0.0
C234 C 0.74425 0.28653 0.60005 0.0
C235 C 0.72186 0.29974 0.61458 0.0
C236 C 0.71965 0.32596 0.60297 0.0
C237 C 0.73977 0.33889 0.57881 0.0
C238 C 0.70054 0.28621 0.64072 0.0
C239 C 0.70521 0.26699 0.67228 0.0
C240 C 0.68507 0.25152 0.69774 0.0
C241 C 0.69215 0.23817 0.73985 0.0
C242 C 0.67502 0.2212 0.76245 0.0
C243 C 0.65034 0.21681 0.74323 0.0
H244 H 0.65403 0.25747 0.64629 0.0
C245 C 0.64285 0.23068 0.70177 0.0
C246 C 0.66005 0.2479 0.67921 0.0
H247 H 0.624 0.2277 0.68595 0.0
H248 H 0.78108 0.28841 0.56526 0.0
H249 H 0.74634 0.26614 0.60688 0.0
H250 H 0.70249 0.33653 0.61324 0.0
H251 H 0.73766 0.35915 0.57084 0.0
H252 H 0.68094 0.29278 0.63504 0.0
H253 H 0.72512 0.26248 0.6809 0.0
H254 H 0.71129 0.24049 0.7549 0.0
H255 H 0.6815 0.21096 0.79435 0.0
C256 C 0.75873 0.67746 0.97332 0.0
C257 C 0.75958 0.6505 0.96952 0.0
C258 C 0.74005 0.69157 0.9487 0.0
C259 C 0.72173 0.67912 0.91926 0.0
C260 C 0.72194 0.65211 0.91679 0.0
C261 C 0.74077 0.63792 0.94141 0.0
C262 C 0.70221 0.69397 0.89134 0.0
C263 C 0.70722 0.71769 0.87382 0.0
C264 C 0.68873 0.73376 0.84592 0.0
C265 C 0.69871 0.75406 0.81797 0.0
C266 C 0.68236 0.77087 0.79358 0.0
C267 C 0.65545 0.76804 0.79679 0.0
H268 H 0.65327 0.71546 0.87055 0.0
C269 C 0.6453 0.74754 0.82427 0.0
C270 C 0.66177 0.73053 0.84862 0.0
H271 H 0.62466 0.74488 0.82766 0.0
H272 H 0.77268 0.68782 -0.0049 0.0
H273 H 0.73997 0.71226 0.95311 0.0
H274 H 0.70785 0.64199 0.89491 0.0
H275 H 0.74077 0.61717 0.93793 0.0
H276 H 0.68402 0.6846 0.88306 0.0
H277 H 0.72643 0.72567 0.8786 0.0
H278 H 0.71934 0.75713 0.81532 0.0
H279 H 0.69093 0.7864 0.77283 0.0
C280 C 0.20883 0.67525 0.07367 0.0
C281 C 0.21128 0.64897 0.06242 0.0
C282 C 0.2283 0.68834 0.09847 0.0
C283 C 0.25082 0.67549 0.11287 0.0
C284 C 0.25368 0.64941 0.10044 0.0
C285 C 0.23402 0.63619 0.07581 0.0
C286 C 0.27161 0.68917 0.13995 0.0
C287 C 0.26636 0.70835 0.17162 0.0
C288 C 0.28604 0.72361 0.19858 0.0
C289 C 0.278 0.73733 0.23998 0.0
C290 C 0.29486 0.75388 0.26419 0.0
C291 C 0.32026 0.75741 0.24741 0.0
H292 H 0.31854 0.71663 0.15011 0.0
C293 C 0.32865 0.74322 0.20663 0.0
C294 C 0.31171 0.72647 0.1824 0.0
H295 H 0.34808 0.74557 0.19264 0.0
H296 H 0.19172 0.68582 0.06357 0.0
H297 H 0.22573 0.70863 0.10583 0.0
H298 H 0.27097 0.63912 0.11054 0.0
H299 H 0.23661 0.616 0.06743 0.0
H300 H 0.2913 0.68258 0.1351 0.0
H301 H 0.24631 0.71291 0.17934 0.0
H302 H 0.25836 0.7356 0.25326 0.0
H303 H 0.28768 0.7644 0.29549 0.0
C304 C 0.35336 0.90573 0.2529 0.0
C305 C 0.36856 0.89331 0.28781 0.0
C306 C 0.35131 0.93261 0.25273 0.0
C307 C 0.36425 0.94754 0.28783 0.0
C308 C 0.37902 0.93504 0.32313 0.0
C309 C 0.38137 0.90828 0.32287 0.0
C310 C 0.36254 0.97609 0.28928 0.0
C311 C 0.36002 -0.00944 0.24907 0.0
C312 C 0.36114 0.01914 0.25005 0.0
C313 C 0.37195 0.03202 0.21008 0.0
C314 C 0.37406 0.0588 0.21002 0.0
C315 C 0.36485 0.07341 0.24953 0.0
H316 H 0.3426 0.0244 0.32039 0.0
C317 C 0.35332 0.06063 0.28905 0.0
C318 C 0.35161 0.03371 0.28948 0.0
H319 H 0.34593 0.07139 0.31989 0.0
H320 H 0.34311 0.89471 0.22565 0.0
H321 H 0.33925 0.94157 0.22566 0.0
H322 H 0.38904 0.94603 0.35076 0.0
H323 H 0.39299 0.89931 0.35064 0.0
H324 H 0.36569 -0.0145 0.32409 0.0
H325 H 0.3595 0.98124 0.21367 0.0
H326 H 0.37925 0.0213 0.1791 0.0
H327 H 0.38279 0.06808 0.17877 0.0
C328 C 0.91421 0.37204 0.47126 0.0
C329 C 0.89723 0.36206 0.50654 0.0
C330 C 0.9409 0.37002 0.47698 0.0
C331 C 0.95122 0.35804 0.51832 0.0
C332 C 0.93424 0.34807 0.55356 0.0
C333 C 0.90751 0.34981 0.54753 0.0
C334 C 0.97947 0.35721 0.52716 0.0
C335 C -0.00279 0.35666 0.49113 0.0
C336 C 0.02545 0.35758 0.50019 0.0
C337 C 0.04244 0.34608 0.46667 0.0
C338 C 0.06916 0.34755 0.47333 0.0
C339 C 0.07941 0.36106 0.51314 0.0
H340 H 0.02331 0.38068 0.56604 0.0
C341 C 0.06241 0.37271 0.54649 0.0
C342 C 0.03574 0.37096 0.54018 0.0
H343 H 0.06968 0.38325 0.57757 0.0
H344 H 0.90689 0.38157 0.43923 0.0
H345 H 0.95333 0.37853 0.44966 0.0
H346 H 0.94167 0.33898 0.58597 0.0
H347 H 0.89494 0.34204 0.57546 0.0
H348 H 0.98575 0.35642 0.56475 0.0
H349 H -0.00904 0.35481 0.45363 0.0
H350 H 0.03503 0.33589 0.43528 0.0
H351 H 0.08177 0.33848 0.44689 0.0
C352 C 0.61681 0.91075 0.77428 0.0
C353 C 0.59721 0.89743 0.74943 0.0
C354 C 0.6165 0.93768 0.77729 0.0
C355 C 0.59639 0.95173 0.75599 0.0
C356 C 0.57687 0.93843 0.73137 0.0
C357 C 0.57747 0.91167 0.72746 0.0
C358 C 0.59433 0.98009 0.76087 0.0
C359 C 0.61482 -0.00395 0.7612 0.0
C360 C 0.61183 0.02441 0.76517 0.0
C361 C 0.62891 0.04076 0.74017 0.0
C362 C 0.62607 0.06752 0.74296 0.0
C363 C 0.60637 0.07845 0.7716 0.0
H364 H 0.57939 0.02332 0.8153 0.0
C365 C 0.58978 0.06202 0.79766 0.0
C366 C 0.59238 0.03534 0.79432 0.0
H367 H 0.57483 0.06966 0.8211 0.0
H368 H 0.63236 0.90039 0.79145 0.0
H369 H 0.63161 0.94739 0.79729 0.0
H370 H 0.56115 0.94881 0.7147 0.0
H371 H 0.56233 0.90227 0.70724 0.0
H372 H 0.57503 -0.01182 0.76132 0.0
H373 H 0.63407 -0.01166 0.75563 0.0
H374 H 0.64423 0.0328 0.71786 0.0
H375 H 0.63937 0.07963 0.72285 0.0
C376 C 0.91155 0.59635 0.04652 0.0
C377 C 0.89514 0.60711 0.01159 0.0
C378 C 0.93832 0.5978 0.041 0.0
C379 C 0.94931 0.60996 0.0002 0.0
C380 C 0.93291 0.62057 0.96511 0.0
C381 C 0.90608 0.61943 0.97098 0.0
C382 C 0.97768 0.61044 -0.00798 0.0
C383 C -0.00513 0.61087 0.02863 0.0
C384 C 0.02323 0.60971 0.02064 0.0
C385 C 0.03978 0.62118 0.05472 0.0
C386 C 0.06658 0.61953 0.04912 0.0
C387 C 0.07735 0.60586 0.00984 0.0
H388 H 0.02191 0.58646 0.95494 0.0
C389 C 0.06078 0.5942 0.97598 0.0
C390 C 0.03403 0.59615 0.9812 0.0
H391 H 0.06847 0.58354 0.94529 0.0
H392 H 0.90373 0.58675 0.07826 0.0
H393 H 0.95029 0.58877 0.06813 0.0
H394 H 0.94087 0.62982 0.9331 0.0
H395 H 0.89393 0.6278 0.94334 0.0
H396 H 0.98451 0.61113 0.95462 0.0
H397 H -0.01194 0.61283 0.06589 0.0
H398 H 0.03196 0.63151 0.08572 0.0
H399 H 0.07884 0.62864 0.07592 0.0
C400 C 0.53758 0.20334 0.90769 0.0
C401 C 0.52626 0.18645 0.87398 0.0
C402 C 0.52261 0.2142 0.9451 0.0
C403 C 0.49609 0.20847 0.94885 0.0
C404 C 0.4845 0.19389 0.91191 0.0
C405 C 0.49945 0.18273 0.87523 0.0
C406 C 0.4805 0.21412 -0.00677 0.0
C407 C 0.49071 0.21337 0.0382 0.0
C408 C 0.47505 0.20649 0.08182 0.0
C409 C 0.48645 0.19065 0.11683 0.0
C410 C 0.47136 0.17857 0.1522 0.0
C411 C 0.44463 0.1826 0.15414 0.0
H412 H 0.43936 0.22509 0.06082 0.0
C413 C 0.43354 0.20059 0.12257 0.0
C414 C 0.44863 0.21238 0.0864 0.0
H415 H 0.41295 0.20402 0.12342 0.0
H416 H 0.55822 0.20654 0.90743 0.0
H417 H 0.53205 0.22601 0.9722 0.0
H418 H 0.4641 0.18938 0.9135 0.0
H419 H 0.49023 0.16995 0.84939 0.0
H420 H 0.45969 0.2132 0.98936 0.0
H421 H 0.51151 0.21217 0.04192 0.0
H422 H 0.50676 0.18596 0.11456 0.0
H423 H 0.48039 0.16492 0.1764 0.0
C424 C 0.7915 0.50295 0.12351 0.0
C425 C 0.78824 0.52973 0.12383 0.0
C426 C 0.78073 0.48782 0.16023 0.0
C427 C 0.76707 0.49922 0.1988 0.0
C428 C 0.76183 0.52579 0.19686 0.0
C429 C 0.77227 0.54094 0.15939 0.0
C430 C 0.7618 0.48328 0.24265 0.0
C431 C 0.76371 0.49291 0.28808 0.0
C432 C 0.77043 0.47657 0.3305 0.0
C433 C 0.76326 0.45047 0.33417 0.0
C434 C 0.77443 0.43469 0.36958 0.0
C435 C 0.79308 0.44475 0.40128 0.0
H436 H 0.79279 0.50702 0.36387 0.0
C437 C 0.79857 0.47119 0.40003 0.0
C438 C 0.78711 0.48697 0.36545 0.0
H439 H 0.81272 0.47946 0.42438 0.0
H440 H 0.80362 0.49384 0.09627 0.0
H441 H 0.78486 0.46741 0.16045 0.0
H442 H 0.75074 0.53509 0.22533 0.0
H443 H 0.76948 0.56157 0.16037 0.0
H444 H 0.76189 0.46256 0.23755 0.0
H445 H 0.76582 0.51356 0.29285 0.0
H446 H 0.7499 0.44198 0.30861 0.0
H447 H 0.76985 0.41435 0.3699 0.0
C448 C 0.54008 0.76505 0.62017 0.0
C449 C 0.52754 0.78044 0.655 0.0
C450 C 0.52586 0.75303 0.58321 0.0
C451 C 0.49889 0.75618 0.58094 0.0
C452 C 0.48632 0.76904 0.61921 0.0
C453 C 0.5005 0.78129 0.65551 0.0
C454 C 0.48351 0.74994 0.53681 0.0
C455 C 0.49351 0.75156 0.49153 0.0
C456 C 0.47757 0.75824 0.44848 0.0
C457 C 0.451 0.75262 0.44531 0.0
C458 C 0.4358 0.7645 0.40982 0.0
C459 C 0.44692 0.78223 0.3774 0.0
H460 H 0.50934 0.77815 0.41355 0.0
C461 C 0.47376 0.78581 0.37773 0.0
C462 C 0.48893 0.77372 0.41251 0.0
H463 H 0.48287 0.79916 0.35274 0.0
H464 H 0.56094 0.76404 0.6191 0.0
H465 H 0.53614 0.7425 0.55524 0.0
H466 H 0.46559 0.77151 0.61889 0.0
H467 H 0.49035 0.79286 0.68227 0.0
H468 H 0.46271 0.74968 0.5414 0.0
H469 H 0.51423 0.7536 0.48717 0.0
H470 H 0.4417 0.74008 0.47142 0.0
H471 H 0.41515 0.76132 0.41016 0.0
C472 C 0.20117 0.53769 0.86735 0.0
C473 C 0.1843 0.52681 0.90177 0.0
C474 C 0.21204 0.5223 0.83058 0.0
C475 C 0.20632 0.4958 0.82818 0.0
C476 C 0.19163 0.48471 0.86569 0.0
C477 C 0.18048 0.50007 0.90172 0.0
C478 C 0.2123 0.47959 0.78483 0.0
C479 C 0.21217 0.48909 0.73925 0.0
C480 C 0.20633 0.47278 0.69606 0.0
C481 C 0.19147 0.48361 0.65894 0.0
C482 C 0.18052 0.46808 0.62311 0.0
C483 C 0.18471 0.44141 0.62285 0.0
H484 H 0.22441 0.43752 0.72068 0.0
C485 C 0.20173 0.43083 0.65687 0.0
C486 C 0.21239 0.44638 0.69346 0.0
H487 H 0.2053 0.41032 0.65734 0.0
H488 H 0.20445 0.55827 0.8667 0.0
H489 H 0.22392 0.53138 0.80304 0.0
H490 H 0.18712 0.46435 0.86515 0.0
H491 H 0.16772 0.49118 0.92814 0.0
H492 H 0.21138 0.4589 0.78989 0.0
H493 H 0.21096 0.50976 0.73425 0.0
H494 H 0.18669 0.50389 0.65964 0.0
H495 H 0.16764 0.47676 0.59699 0.0
loop_
_geom_bond_atom_site_label_1
_geom_bond_atom_site_label_2
_geom_bond_distance
_geom_bond_site_symmetry_2
_ccdc_geom_bond_type
Mg0 O1 2.028 . S
Mg0 O7 1.986 . S
Mg0 O9 2.114 . S
Mg0 O10 2.251 . S
Mg0 O13 2.010 . S
O1 Mg0 2.028 . S
O1 C4 1.250 . S
O2 Mg3 2.028 . S
O2 C4 1.248 . S
Mg3 O2 2.028 . S
Mg3 O8 2.032 . S
Mg3 O10 2.079 . S
C4 O1 1.250 . S
C4 O2 1.248 . S
C5 O6 1.264 . S
C5 O13 1.249 . S
O6 C5 1.264 . S
O7 Mg0 1.986 . S
O7 C11 1.246 . S
O8 Mg3 2.032 . S
O8 C11 1.259 . S
O9 Mg0 2.114 . S
O9 C12 1.252 . S
O10 Mg0 2.251 . S
O10 Mg3 2.079 . S
O10 C12 1.273 . S
C11 O7 1.246 . S
C11 O8 1.259 . S
C12 O9 1.252 . S
C12 O10 1.273 . S
O13 Mg0 2.010 . S
O13 C5 1.249 . S
Mg14 O15 2.028 . S
Mg14 O21 1.986 . S
Mg14 O23 2.114 . S
Mg14 O24 2.251 . S
Mg14 O27 2.010 . S
O15 Mg14 2.028 . S
O15 C18 1.250 . S
O16 Mg17 2.028 . S
O16 C18 1.248 . S
Mg17 O16 2.028 . S
Mg17 O22 2.032 . S
Mg17 O24 2.079 . S
C18 O15 1.250 . S
C18 O16 1.248 . S
C19 O20 1.264 . S
C19 O27 1.249 . S
O20 C19 1.264 . S
O21 Mg14 1.986 . S
O21 C25 1.246 . S
O22 Mg17 2.032 . S
O22 C25 1.259 . S
O23 Mg14 2.114 . S
O23 C26 1.252 . S
O24 Mg14 2.251 . S
O24 Mg17 2.079 . S
O24 C26 1.273 . S
C25 O21 1.246 . S
C25 O22 1.259 . S
C26 O23 1.252 . S
C26 O24 1.273 . S
O27 Mg14 2.010 . S
O27 C19 1.249 . S
Mg28 O29 2.028 . S
Mg28 O35 1.986 . S
Mg28 O37 2.114 . S
Mg28 O38 2.251 . S
Mg28 O41 2.010 . S
O29 Mg28 2.028 . S
O29 C32 1.250 . S
O30 Mg31 2.028 . S
O30 C32 1.248 . S
Mg31 O30 2.028 . S
Mg31 O36 2.032 . S
Mg31 O38 2.079 . S
C32 O29 1.250 . S
C32 O30 1.248 . S
C33 O34 1.264 . S
C33 O41 1.249 . S
O34 C33 1.264 . S
O35 Mg28 1.986 . S
O35 C39 1.246 . S
O36 Mg31 2.032 . S
O36 C39 1.259 . S
O37 Mg28 2.114 . S
O37 C40 1.252 . S
O38 Mg28 2.251 . S
O38 Mg31 2.079 . S
O38 C40 1.273 . S
C39 O35 1.246 . S
C39 O36 1.259 . S
C40 O37 1.252 . S
C40 O38 1.273 . S
O41 Mg28 2.010 . S
O41 C33 1.249 . S
Mg42 O43 2.028 . S
Mg42 O49 1.986 1_554 S
Mg42 O51 2.114 . S
Mg42 O52 2.251 . S
Mg42 O55 2.010 . S
O43 Mg42 2.028 . S
O43 C46 1.250 . S
O44 Mg45 2.028 . S
O44 C46 1.248 . S
Mg45 O44 2.028 . S
Mg45 O50 2.032 1_554 S
Mg45 O52 2.079 . S
C46 O43 1.250 . S
C46 O44 1.248 . S
C47 O48 1.264 . S
C47 O55 1.249 . S
O48 C47 1.264 . S
O49 Mg42 1.986 1_556 S
O49 C53 1.246 . S
O50 Mg45 2.032 1_556 S
O50 C53 1.259 . S
O51 Mg42 2.114 . S
O51 C54 1.252 . S
O52 Mg42 2.251 . S
O52 Mg45 2.079 . S
O52 C54 1.273 . S
C53 O49 1.246 . S
C53 O50 1.259 . S
C54 O51 1.252 . S
C54 O52 1.273 . S
O55 Mg42 2.010 . S
O55 C47 1.249 . S
Mg56 O57 2.028 . S
Mg56 O63 1.986 . S
Mg56 O65 2.114 . S
Mg56 O66 2.251 . S
Mg56 O69 2.010 . S
O57 Mg56 2.028 . S
O57 C60 1.250 . S
O58 Mg59 2.028 . S
O58 C60 1.248 . S
Mg59 O58 2.028 . S
Mg59 O64 2.032 . S
Mg59 O66 2.079 . S
C60 O57 1.250 . S
C60 O58 1.248 . S
C61 O62 1.264 . S
C61 O69 1.249 . S
O62 C61 1.264 . S
O63 Mg56 1.986 . S
O63 C67 1.246 . S
O64 Mg59 2.032 . S
O64 C67 1.259 . S
O65 Mg56 2.114 . S
O65 C68 1.252 . S
O66 Mg56 2.251 . S
O66 Mg59 2.079 . S
O66 C68 1.273 . S
C67 O63 1.246 . S
C67 O64 1.259 . S
C68 O65 1.252 . S
C68 O66 1.273 . S
O69 Mg56 2.010 . S
O69 C61 1.249 . S
Mg70 O71 2.028 . S
Mg70 O77 1.986 . S
Mg70 O79 2.114 . S
Mg70 O80 2.251 . S
Mg70 O83 2.010 . S
O71 Mg70 2.028 . S
O71 C74 1.250 . S
O72 Mg73 2.028 . S
O72 C74 1.248 . S
Mg73 O72 2.028 . S
Mg73 O78 2.032 . S
Mg73 O80 2.079 . S
C74 O71 1.250 . S
C74 O72 1.248 . S
C75 O76 1.264 . S
C75 O83 1.249 . S
O76 C75 1.264 . S
O77 Mg70 1.986 . S
O77 C81 1.246 . S
O78 Mg73 2.032 . S
O78 C81 1.259 . S
O79 Mg70 2.114 . S
O79 C82 1.252 . S
O80 Mg70 2.251 . S
O80 Mg73 2.079 . S
O80 C82 1.273 . S
C81 O77 1.246 . S
C81 O78 1.259 . S
C82 O79 1.252 . S
C82 O80 1.273 . S
O83 Mg70 2.010 . S
O83 C75 1.249 . S
Mg84 O85 2.028 . S
Mg84 O91 1.986 . S
Mg84 O93 2.114 . S
Mg84 O94 2.251 . S
Mg84 O97 2.010 . S
O85 Mg84 2.028 . S
O85 C88 1.250 . S
O86 Mg87 2.028 . S
O86 C88 1.248 . S
Mg87 O86 2.028 . S
Mg87 O92 2.032 . S
Mg87 O94 2.079 . S
C88 O85 1.250 . S
C88 O86 1.248 . S
C89 O90 1.264 . S
C89 O97 1.249 . S
O90 C89 1.264 . S
O91 Mg84 1.986 . S
O91 C95 1.246 . S
O92 Mg87 2.032 . S
O92 C95 1.259 . S
O93 Mg84 2.114 . S
O93 C96 1.252 . S
O94 Mg84 2.251 . S
O94 Mg87 2.079 . S
O94 C96 1.273 . S
C95 O91 1.246 . S
C95 O92 1.259 . S
C96 O93 1.252 . S
C96 O94 1.273 . S
O97 Mg84 2.010 . S
O97 C89 1.249 . S
Mg98 O99 2.028 1_554 S
Mg98 O105 1.986 . S
Mg98 O107 2.114 1_554 S
Mg98 O108 2.251 . S
Mg98 O111 2.010 . S
O99 Mg98 2.028 1_556 S
O99 C102 1.250 . S
O100 Mg101 2.028 1_556 S
O100 C102 1.248 . S
Mg101 O100 2.028 1_554 S
Mg101 O106 2.032 . S
Mg101 O108 2.079 . S
C102 O99 1.250 . S
C102 O100 1.248 . S
C103 O104 1.264 . S
C103 O111 1.249 . S
O104 C103 1.264 . S
O105 Mg98 1.986 . S
O105 C109 1.246 . S
O106 Mg101 2.032 . S
O106 C109 1.259 . S
O107 Mg98 2.114 1_556 S
O107 C110 1.252 1_556 S
O108 Mg98 2.251 . S
O108 Mg101 2.079 . S
O108 C110 1.273 . S
C109 O105 1.246 . S
C109 O106 1.259 . S
C110 O107 1.252 1_554 S
C110 O108 1.273 . S
O111 Mg98 2.010 . S
O111 C103 1.249 . S
C112 C113 1.386 . S
C112 C114 1.383 . S
C112 H128 0.951 . S
C113 C112 1.386 . S
C113 C117 1.383 . S
C114 C112 1.383 . S
C114 C115 1.402 . S
C114 H129 0.951 . S
C115 C114 1.402 . S
C115 C116 1.375 . S
C115 C118 1.481 . S
C116 C115 1.375 . S
C116 C117 1.367 . S
C116 H130 0.951 . S
C117 C113 1.383 . S
C117 C116 1.367 . S
C117 H131 0.950 . S
C118 C115 1.481 . S
C118 C119 1.297 . S
C118 H132 0.950 . S
C119 C118 1.297 . S
C119 C120 1.479 . S
C119 H133 0.950 . S
C120 C119 1.479 . S
C120 C121 1.375 . S
C120 C126 1.404 . S
C121 C120 1.375 . S
C121 C122 1.369 . S
C121 H134 0.950 . S
C122 C121 1.369 . S
C122 C123 1.392 . S
C122 H135 0.951 . S
C123 C122 1.392 . S
C123 C125 1.384 . S
H124 C126 0.949 . S
C125 C123 1.384 . S
C125 C126 1.385 . S
C125 H127 0.950 . S
C126 C120 1.404 . S
C126 H124 0.949 . S
C126 C125 1.385 . S
H127 C125 0.950 . S
H128 C112 0.951 . S
H129 C114 0.951 . S
H130 C116 0.951 . S
H131 C117 0.950 . S
H132 C118 0.950 . S
H133 C119 0.950 . S
H134 C121 0.950 . S
H135 C122 0.951 . S
C136 C137 1.386 . S
C136 C138 1.383 . S
C136 H152 0.951 . S
C137 C136 1.386 . S
C137 C141 1.383 . S
C138 C136 1.383 . S
C138 C139 1.402 . S
C138 H153 0.951 . S
C139 C138 1.402 . S
C139 C140 1.375 . S
C139 C142 1.481 . S
C140 C139 1.375 . S
C140 C141 1.367 . S
C140 H154 0.951 . S
C141 C137 1.383 . S
C141 C140 1.367 . S
C141 H155 0.950 . S
C142 C139 1.481 . S
C142 C143 1.297 . S
C142 H156 0.950 . S
C143 C142 1.297 . S
C143 C144 1.479 . S
C143 H157 0.950 . S
C144 C143 1.479 . S
C144 C145 1.375 . S
C144 C150 1.404 . S
C145 C144 1.375 . S
C145 C146 1.369 . S
C145 H158 0.950 . S
C146 C145 1.369 . S
C146 C147 1.392 . S
C146 H159 0.951 . S
C147 C146 1.392 . S
C147 C149 1.384 . S
H148 C150 0.949 . S
C149 C147 1.384 . S
C149 C150 1.385 . S
C149 H151 0.950 . S
C150 C144 1.404 . S
C150 H148 0.949 . S
C150 C149 1.385 . S
H151 C149 0.950 . S
H152 C136 0.951 . S
H153 C138 0.951 . S
H154 C140 0.951 . S
H155 C141 0.950 . S
H156 C142 0.950 . S
H157 C143 0.950 . S
H158 C145 0.950 . S
H159 C146 0.951 . S
C160 C161 1.386 . S
C160 C162 1.383 . S
C160 H176 0.951 . S
C161 C160 1.386 . S
C161 C165 1.383 . S
C162 C160 1.383 . S
C162 C163 1.402 . S
C162 H177 0.951 . S
C163 C162 1.402 . S
C163 C164 1.375 . S
C163 C166 1.481 . S
C164 C163 1.375 . S
C164 C165 1.367 . S
C164 H178 0.951 . S
C165 C161 1.383 . S
C165 C164 1.367 . S
C165 H179 0.950 . S
C166 C163 1.481 . S
C166 C167 1.297 . S
C166 H180 0.950 . S
C167 C166 1.297 . S
C167 C168 1.479 1_554 S
C167 H181 0.950 . S
C168 C167 1.479 1_556 S
C168 C169 1.375 . S
C168 C174 1.404 . S
C169 C168 1.375 . S
C169 C170 1.369 . S
C169 H182 0.950 1_556 S
C170 C169 1.369 . S
C170 C171 1.392 . S
C170 H183 0.951 . S
C171 C170 1.392 . S
C171 C173 1.384 . S
H172 C174 0.949 . S
C173 C171 1.384 . S
C173 C174 1.385 . S
C173 H175 0.950 . S
C174 C168 1.404 . S
C174 H172 0.949 . S
C174 C173 1.385 . S
H175 C173 0.950 . S
H176 C160 0.951 . S
H177 C162 0.951 . S
H178 C164 0.951 . S
H179 C165 0.950 . S
H180 C166 0.950 . S
H181 C167 0.950 . S
H182 C169 0.950 1_554 S
H183 C170 0.951 . S
C184 C185 1.386 . S
C184 C186 1.383 . S
C184 H200 0.951 . S
C185 C184 1.386 . S
C185 C189 1.383 . S
C186 C184 1.383 . S
C186 C187 1.402 . S
C186 H201 0.951 . S
C187 C186 1.402 . S
C187 C188 1.375 . S
C187 C190 1.481 . S
C188 C187 1.375 . S
C188 C189 1.367 . S
C188 H202 0.951 . S
C189 C185 1.383 . S
C189 C188 1.367 . S
C189 H203 0.950 . S
C190 C187 1.481 . S
C190 C191 1.297 . S
C190 H204 0.950 . S
C191 C190 1.297 . S
C191 C192 1.479 . S
C191 H205 0.950 . S
C192 C191 1.479 . S
C192 C193 1.375 . S
C192 C198 1.404 . S
C193 C192 1.375 . S
C193 C194 1.369 . S
C193 H206 0.950 . S
C194 C193 1.369 . S
C194 C195 1.392 . S
C194 H207 0.951 . S
C195 C194 1.392 . S
C195 C197 1.384 . S
H196 C198 0.949 . S
C197 C195 1.384 . S
C197 C198 1.385 . S
C197 H199 0.950 . S
C198 C192 1.404 . S
C198 H196 0.949 . S
C198 C197 1.385 . S
H199 C197 0.950 . S
H200 C184 0.951 . S
H201 C186 0.951 . S
H202 C188 0.951 . S
H203 C189 0.950 . S
H204 C190 0.950 . S
H205 C191 0.950 . S
H206 C193 0.950 . S
H207 C194 0.951 . S
C208 C209 1.386 . S
C208 C210 1.383 . S
C208 H224 0.951 . S
C209 C208 1.386 . S
C209 C213 1.383 . S
C210 C208 1.383 . S
C210 C211 1.402 . S
C210 H225 0.951 . S
C211 C210 1.402 . S
C211 C212 1.375 . S
C211 C214 1.481 . S
C212 C211 1.375 . S
C212 C213 1.367 . S
C212 H226 0.951 . S
C213 C209 1.383 . S
C213 C212 1.367 . S
C213 H227 0.950 . S
C214 C211 1.481 . S
C214 C215 1.297 . S
C214 H228 0.950 . S
C215 C214 1.297 . S
C215 C216 1.479 . S
C215 H229 0.950 . S
C216 C215 1.479 . S
C216 C217 1.375 . S
C216 C222 1.404 . S
C217 C216 1.375 . S
C217 C218 1.369 . S
C217 H230 0.950 . S
C218 C217 1.369 . S
C218 C219 1.392 . S
C218 H231 0.951 . S
C219 C218 1.392 . S
C219 C221 1.384 . S
H220 C222 0.949 . S
C221 C219 1.384 . S
C221 C222 1.385 . S
C221 H223 0.950 . S
C222 C216 1.404 . S
C222 H220 0.949 . S
C222 C221 1.385 . S
H223 C221 0.950 . S
H224 C208 0.951 . S
H225 C210 0.951 . S
H226 C212 0.951 . S
H227 C213 0.950 . S
H228 C214 0.950 . S
H229 C215 0.950 . S
H230 C217 0.950 . S
H231 C218 0.951 . S
C232 C233 1.386 . S
C232 C234 1.383 . S
C232 H248 0.951 . S
C233 C232 1.386 . S
C233 C237 1.383 . S
C234 C232 1.383 . S
C234 C235 1.402 . S
C234 H249 0.951 . S
C235 C234 1.402 . S
C235 C236 1.375 . S
C235 C238 1.481 . S
C236 C235 1.375 . S
C236 C237 1.367 . S
C236 H250 0.951 . S
C237 C233 1.383 . S
C237 C236 1.367 . S
C237 H251 0.950 . S
C238 C235 1.481 . S
C238 C239 1.297 . S
C238 H252 0.950 . S
C239 C238 1.297 . S
C239 C240 1.479 . S
C239 H253 0.950 . S
C240 C239 1.479 . S
C240 C241 1.375 . S
C240 C246 1.404 . S
C241 C240 1.375 . S
C241 C242 1.369 . S
C241 H254 0.950 . S
C242 C241 1.369 . S
C242 C243 1.392 . S
C242 H255 0.951 . S
C243 C242 1.392 . S
C243 C245 1.384 . S
H244 C246 0.949 . S
C245 C243 1.384 . S
C245 C246 1.385 . S
C245 H247 0.950 . S
C246 C240 1.404 . S
C246 H244 0.949 . S
C246 C245 1.385 . S
H247 C245 0.950 . S
H248 C232 0.951 . S
H249 C234 0.951 . S
H250 C236 0.951 . S
H251 C237 0.950 . S
H252 C238 0.950 . S
H253 C239 0.950 . S
H254 C241 0.950 . S
H255 C242 0.951 . S
C256 C257 1.386 . S
C256 C258 1.383 . S
C256 H272 0.941 1_556 S
C257 C256 1.386 . S
C257 C261 1.383 . S
C258 C256 1.383 . S
C258 C259 1.402 . S
C258 H273 0.951 . S
C259 C258 1.402 . S
C259 C260 1.375 . S
C259 C262 1.481 . S
C260 C259 1.375 . S
C260 C261 1.367 . S
C260 H274 0.951 . S
C261 C257 1.383 . S
C261 C260 1.367 . S
C261 H275 0.950 . S
C262 C259 1.481 . S
C262 C263 1.297 . S
C262 H276 0.950 . S
C263 C262 1.297 . S
C263 C264 1.479 . S
C263 H277 0.950 . S
C264 C263 1.479 . S
C264 C265 1.375 . S
C264 C270 1.404 . S
C265 C264 1.375 . S
C265 C266 1.369 . S
C265 H278 0.950 . S
C266 C265 1.369 . S
C266 C267 1.392 . S
C266 H279 0.951 . S
C267 C266 1.392 . S
C267 C269 1.384 . S
H268 C270 0.949 . S
C269 C267 1.384 . S
C269 C270 1.385 . S
C269 H271 0.950 . S
C270 C264 1.404 . S
C270 H268 0.949 . S
C270 C269 1.385 . S
H271 C269 0.950 . S
H272 C256 0.941 1_554 S
H273 C258 0.951 . S
H274 C260 0.951 . S
H275 C261 0.950 . S
H276 C262 0.950 . S
H277 C263 0.950 . S
H278 C265 0.950 . S
H279 C266 0.951 . S
C280 C281 1.386 . S
C280 C282 1.383 . S
C280 H296 0.951 . S
C281 C280 1.386 . S
C281 C285 1.383 . S
C282 C280 1.383 . S
C282 C283 1.402 . S
C282 H297 0.951 . S
C283 C282 1.402 . S
C283 C284 1.375 . S
C283 C286 1.481 . S
C284 C283 1.375 . S
C284 C285 1.367 . S
C284 H298 0.951 . S
C285 C281 1.383 . S
C285 C284 1.367 . S
C285 H299 0.950 . S
C286 C283 1.481 . S
C286 C287 1.297 . S
C286 H300 0.950 . S
C287 C286 1.297 . S
C287 C288 1.479 . S
C287 H301 0.950 . S
C288 C287 1.479 . S
C288 C289 1.375 . S
C288 C294 1.404 . S
C289 C288 1.375 . S
C289 C290 1.369 . S
C289 H302 0.950 . S
C290 C289 1.369 . S
C290 C291 1.392 . S
C290 H303 0.951 . S
C291 C290 1.392 . S
C291 C293 1.384 . S
H292 C294 0.949 . S
C293 C291 1.384 . S
C293 C294 1.385 . S
C293 H295 0.950 . S
C294 C288 1.404 . S
C294 H292 0.949 . S
C294 C293 1.385 . S
H295 C293 0.950 . S
H296 C280 0.951 . S
H297 C282 0.951 . S
H298 C284 0.951 . S
H299 C285 0.950 . S
H300 C286 0.950 . S
H301 C287 0.950 . S
H302 C289 0.950 . S
H303 C290 0.951 . S
C304 C305 1.386 . S
C304 C306 1.383 . S
C304 H320 0.951 . S
C305 C304 1.386 . S
C305 C309 1.383 . S
C306 C304 1.383 . S
C306 C307 1.402 . S
C306 H321 0.951 . S
C307 C306 1.402 . S
C307 C308 1.375 . S
C307 C310 1.481 . S
C308 C307 1.375 . S
C308 C309 1.367 . S
C308 H322 0.951 . S
C309 C305 1.383 . S
C309 C308 1.367 . S
C309 H323 0.950 . S
C310 C307 1.481 . S
C310 C311 1.297 1_565 S
C310 H324 0.950 . S
C311 C310 1.297 1_545 S
C311 C312 1.479 . S
C311 H325 0.950 . S
C312 C311 1.479 . S
C312 C313 1.375 . S
C312 C318 1.404 . S
C313 C312 1.375 . S
C313 C314 1.369 . S
C313 H326 0.950 . S
C314 C313 1.369 . S
C314 C315 1.392 . S
C314 H327 0.951 . S
C315 C314 1.392 . S
C315 C317 1.384 . S
H316 C318 0.949 . S
C317 C315 1.384 . S
C317 C318 1.385 . S
C317 H319 0.950 . S
C318 C312 1.404 . S
C318 H316 0.949 . S
C318 C317 1.385 . S
H319 C317 0.950 . S
H320 C304 0.951 . S
H321 C306 0.951 . S
H322 C308 0.951 . S
H323 C309 0.950 . S
H324 C310 0.950 . S
H325 C311 0.950 . S
H326 C313 0.950 . S
H327 C314 0.951 . S
C328 C329 1.386 . S
C328 C330 1.383 . S
C328 H344 0.951 . S
C329 C328 1.386 . S
C329 C333 1.383 . S
C330 C328 1.383 . S
C330 C331 1.402 . S
C330 H345 0.951 . S
C331 C330 1.402 . S
C331 C332 1.375 . S
C331 C334 1.481 . S
C332 C331 1.375 . S
C332 C333 1.367 . S
C332 H346 0.951 . S
C333 C329 1.383 . S
C333 C332 1.367 . S
C333 H347 0.950 . S
C334 C331 1.481 . S
C334 C335 1.297 1_655 S
C334 H348 0.965 . S
C335 C334 1.297 1_455 S
C335 C336 1.479 . S
C335 H349 0.962 . S
C336 C335 1.479 . S
C336 C337 1.375 . S
C336 C342 1.404 . S
C337 C336 1.375 . S
C337 C338 1.369 . S
C337 H350 0.950 . S
C338 C337 1.369 . S
C338 C339 1.392 . S
C338 H351 0.951 . S
C339 C338 1.392 . S
C339 C341 1.384 . S
H340 C342 0.949 . S
C341 C339 1.384 . S
C341 C342 1.385 . S
C341 H343 0.950 . S
C342 C336 1.404 . S
C342 H340 0.949 . S
C342 C341 1.385 . S
H343 C341 0.950 . S
H344 C328 0.951 . S
H345 C330 0.951 . S
H346 C332 0.951 . S
H347 C333 0.950 . S
H348 C334 0.965 . S
H349 C335 0.962 . S
H350 C337 0.950 . S
H351 C338 0.951 . S
C352 C353 1.386 . S
C352 C354 1.383 . S
C352 H368 0.951 . S
C353 C352 1.386 . S
C353 C357 1.383 . S
C354 C352 1.383 . S
C354 C355 1.402 . S
C354 H369 0.951 . S
C355 C354 1.402 . S
C355 C356 1.375 . S
C355 C358 1.481 . S
C356 C355 1.375 . S
C356 C357 1.367 . S
C356 H370 0.951 . S
C357 C353 1.383 . S
C357 C356 1.367 . S
C357 H371 0.950 . S
C358 C355 1.481 . S
C358 C359 1.297 1_565 S
C358 H372 0.950 . S
C359 C358 1.297 1_545 S
C359 C360 1.479 . S
C359 H373 0.950 . S
C360 C359 1.479 . S
C360 C361 1.375 . S
C360 C366 1.404 . S
C361 C360 1.375 . S
C361 C362 1.369 . S
C361 H374 0.950 . S
C362 C361 1.369 . S
C362 C363 1.392 . S
C362 H375 0.951 . S
C363 C362 1.392 . S
C363 C365 1.384 . S
H364 C366 0.949 . S
C365 C363 1.384 . S
C365 C366 1.385 . S
C365 H367 0.950 . S
C366 C360 1.404 . S
C366 H364 0.949 . S
C366 C365 1.385 . S
H367 C365 0.950 . S
H368 C352 0.951 . S
H369 C354 0.951 . S
H370 C356 0.951 . S
H371 C357 0.950 . S
H372 C358 0.950 . S
H373 C359 0.950 . S
H374 C361 0.950 . S
H375 C362 0.951 . S
C376 C377 1.386 . S
C376 C378 1.383 . S
C376 H392 0.951 . S
C377 C376 1.386 . S
C377 C381 1.383 1_554 S
C378 C376 1.383 . S
C378 C379 1.402 . S
C378 H393 0.951 . S
C379 C378 1.402 . S
C379 C380 1.375 1_554 S
C379 C382 1.481 . S
C380 C379 1.375 1_556 S
C380 C381 1.367 . S
C380 H394 0.951 . S
C381 C377 1.383 1_556 S
C381 C380 1.367 . S
C381 H395 0.950 . S
C382 C379 1.481 . S
C382 C383 1.297 1_655 S
C382 H396 0.950 1_554 S
C383 C382 1.297 1_455 S
C383 C384 1.479 . S
C383 H397 0.961 . S
C384 C383 1.479 . S
C384 C385 1.375 . S
C384 C390 1.404 . S
C385 C384 1.375 . S
C385 C386 1.369 . S
C385 H398 0.950 . S
C386 C385 1.369 . S
C386 C387 1.392 . S
C386 H399 0.951 . S
C387 C386 1.392 . S
C387 C389 1.384 . S
H388 C390 0.949 1_556 S
C389 C387 1.384 . S
C389 C390 1.385 . S
C389 H391 0.950 1_554 S
C390 C384 1.404 . S
C390 H388 0.949 1_554 S
C390 C389 1.385 . S
H391 C389 0.950 1_556 S
H392 C376 0.951 . S
H393 C378 0.951 . S
H394 C380 0.951 . S
H395 C381 0.950 . S
H396 C382 0.950 1_556 S
H397 C383 0.961 . S
H398 C385 0.950 . S
H399 C386 0.951 . S
C400 C401 1.386 . S
C400 C402 1.383 . S
C400 H416 0.951 . S
C401 C400 1.386 . S
C401 C405 1.383 . S
C402 C400 1.383 . S
C402 C403 1.402 . S
C402 H417 0.951 1_556 S
C403 C402 1.402 . S
C403 C404 1.375 . S
C403 C406 1.481 . S
C404 C403 1.375 . S
C404 C405 1.367 . S
C404 H418 0.951 . S
C405 C401 1.383 . S
C405 C404 1.367 . S
C405 H419 0.950 . S
C406 C403 1.481 . S
C406 C407 1.297 1_556 S
C406 H420 0.950 . S
C407 C406 1.297 1_554 S
C407 C408 1.479 . S
C407 H421 0.950 . S
C408 C407 1.479 . S
C408 C409 1.375 . S
C408 C414 1.404 . S
C409 C408 1.375 . S
C409 C410 1.369 . S
C409 H422 0.950 . S
C410 C409 1.369 . S
C410 C411 1.392 . S
C410 H423 0.951 . S
C411 C410 1.392 . S
C411 C413 1.384 . S
H412 C414 0.949 . S
C413 C411 1.384 . S
C413 C414 1.385 . S
C413 H415 0.950 . S
C414 C408 1.404 . S
C414 H412 0.949 . S
C414 C413 1.385 . S
H415 C413 0.950 . S
H416 C400 0.951 . S
H417 C402 0.951 1_554 S
H418 C404 0.951 . S
H419 C405 0.950 . S
H420 C406 0.950 . S
H421 C407 0.950 . S
H422 C409 0.950 . S
H423 C410 0.951 . S
C424 C425 1.386 . S
C424 C426 1.383 . S
C424 H440 0.951 . S
C425 C424 1.386 . S
C425 C429 1.383 . S
C426 C424 1.383 . S
C426 C427 1.402 . S
C426 H441 0.951 . S
C427 C426 1.402 . S
C427 C428 1.375 . S
C427 C430 1.481 . S
C428 C427 1.375 . S
C428 C429 1.367 . S
C428 H442 0.951 . S
C429 C425 1.383 . S
C429 C428 1.367 . S
C429 H443 0.950 . S
C430 C427 1.481 . S
C430 C431 1.297 . S
C430 H444 0.950 . S
C431 C430 1.297 . S
C431 C432 1.479 . S
C431 H445 0.950 . S
C432 C431 1.479 . S
C432 C433 1.375 . S
C432 C438 1.404 . S
C433 C432 1.375 . S
C433 C434 1.369 . S
C433 H446 0.950 . S
C434 C433 1.369 . S
C434 C435 1.392 . S
C434 H447 0.951 . S
C435 C434 1.392 . S
C435 C437 1.384 . S
H436 C438 0.949 . S
C437 C435 1.384 . S
C437 C438 1.385 . S
C437 H439 0.950 . S
C438 C432 1.404 . S
C438 H436 0.949 . S
C438 C437 1.385 . S
H439 C437 0.950 . S
H440 C424 0.951 . S
H441 C426 0.951 . S
H442 C428 0.951 . S
H443 C429 0.950 . S
H444 C430 0.950 . S
H445 C431 0.950 . S
H446 C433 0.950 . S
H447 C434 0.951 . S
C448 C449 1.386 . S
C448 C450 1.383 . S
C448 H464 0.951 . S
C449 C448 1.386 . S
C449 C453 1.383 . S
C450 C448 1.383 . S
C450 C451 1.402 . S
C450 H465 0.951 . S
C451 C450 1.402 . S
C451 C452 1.375 . S
C451 C454 1.481 . S
C452 C451 1.375 . S
C452 C453 1.367 . S
C452 H466 0.951 . S
C453 C449 1.383 . S
C453 C452 1.367 . S
C453 H467 0.950 . S
C454 C451 1.481 . S
C454 C455 1.297 . S
C454 H468 0.950 . S
C455 C454 1.297 . S
C455 C456 1.479 . S
C455 H469 0.950 . S
C456 C455 1.479 . S
C456 C457 1.375 . S
C456 C462 1.404 . S
C457 C456 1.375 . S
C457 C458 1.369 . S
C457 H470 0.950 . S
C458 C457 1.369 . S
C458 C459 1.392 . S
C458 H471 0.951 . S
C459 C458 1.392 . S
C459 C461 1.384 . S
H460 C462 0.949 . S
C461 C459 1.384 . S
C461 C462 1.385 . S
C461 H463 0.950 . S
C462 C456 1.404 . S
C462 H460 0.949 . S
C462 C461 1.385 . S
H463 C461 0.950 . S
H464 C448 0.951 . S
H465 C450 0.951 . S
H466 C452 0.951 . S
H467 C453 0.950 . S
H468 C454 0.950 . S
H469 C455 0.950 . S
H470 C457 0.950 . S
H471 C458 0.951 . S
C472 C473 1.386 . S
C472 C474 1.383 . S
C472 H488 0.951 . S
C473 C472 1.386 . S
C473 C477 1.383 . S
C474 C472 1.383 . S
C474 C475 1.402 . S
C474 H489 0.951 . S
C475 C474 1.402 . S
C475 C476 1.375 . S
C475 C478 1.481 . S
C476 C475 1.375 . S
C476 C477 1.367 . S
C476 H490 0.951 . S
C477 C473 1.383 . S
C477 C476 1.367 . S
C477 H491 0.950 . S
C478 C475 1.481 . S
C478 C479 1.297 . S
C478 H492 0.950 . S
C479 C478 1.297 . S
C479 C480 1.479 . S
C479 H493 0.950 . S
C480 C479 1.479 . S
C480 C481 1.375 . S
C480 C486 1.404 . S
C481 C480 1.375 . S
C481 C482 1.369 . S
C481 H494 0.950 . S
C482 C481 1.369 . S
C482 C483 1.392 . S
C482 H495 0.951 . S
C483 C482 1.392 . S
C483 C485 1.384 . S
H484 C486 0.949 . S
C485 C483 1.384 . S
C485 C486 1.385 . S
C485 H487 0.950 . S
C486 C480 1.404 . S
C486 H484 0.949 . S
C486 C485 1.385 . S
H487 C485 0.950 . S
H488 C472 0.951 . S
H489 C474 0.951 . S
H490 C476 0.951 . S
H491 C477 0.950 . S
H492 C478 0.950 . S
H493 C479 0.950 . S
H494 C481 0.950 . S
H495 C482 0.951 . S
C113 C4 1.310 . S
C123 C88 1.286 . S
C137 C18 1.284 . S
C147 C102 1.252 . S
C161 C60 1.338 . S
C171 C32 1.356 . S
C185 C74 1.321 . S
C195 C46 1.306 . S
C209 C5 1.043 . S
C219 C75 1.144 . S
C233 C19 1.116 . S
C243 C89 1.022 . S
C257 C103 1.128 1_556 S
C267 C33 0.967 . S
C281 C47 1.095 . S
C291 C61 1.065 . S
C305 C68 1.272 . S
C315 C12 1.292 . S
C329 C26 1.264 . S
C339 C82 1.247 . S
C353 C40 1.270 . S
C363 C96 1.291 . S
C377 C110 1.260 . S
C387 C54 1.254 . S
C401 C95 1.263 . S
C411 C11 1.303 . S
C425 C109 1.295 . S
C435 C25 1.196 . S
C449 C39 1.298 . S
C459 C67 1.206 . S
C473 C53 1.235 . S
C483 C81 1.319 . S
