# Generated by pormake.
# Topology wnr, (7)-cn, num edge types: 1
# Building blocks:
#     Node 0, Type 0, BuildingBlock: HICVOG_clean_sbu_0, # of connection points: 7
#     Node 1, Type 0, BuildingBlock: HICVOG_clean_sbu_0, # of connection points: 7
#     Node 2, Type 0, BuildingBlock: HICVOG_clean_sbu_0, # of connection points: 7
#     Node 3, Type 0, BuildingBlock: HICVOG_clean_sbu_0, # of connection points: 7
#     Node 4, Type 0, BuildingBlock: HICVOG_clean_sbu_0, # of connection points: 7
#     Node 5, Type 0, BuildingBlock: HICVOG_clean_sbu_0, # of connection points: 7
#     Edge 6, Type (0, 0), BuildingBlock: UVAHIK_clean_linker_0, # of connection points: 2
#     Edge 7, Type (0, 0), BuildingBlock: UVAHIK_clean_linker_0, # of connection points: 2
#     Edge 8, Type (0, 0), BuildingBlock: UVAHIK_clean_linker_0, # of connection points: 2
#     Edge 9, Type (0, 0), BuildingBlock: UVAHIK_clean_linker_0, # of connection points: 2
#     Edge 10, Type (0, 0), BuildingBlock: UVAHIK_clean_linker_0, # of connection points: 2
#     Edge 11, Type (0, 0), BuildingBlock: UVAHIK_clean_linker_0, # of connection points: 2
#     Edge 12, Type (0, 0), BuildingBlock: UVAHIK_clean_linker_0, # of connection points: 2
#     Edge 13, Type (0, 0), BuildingBlock: UVAHIK_clean_linker_0, # of connection points: 2
#     Edge 14, Type (0, 0), BuildingBlock: UVAHIK_clean_linker_0, # of connection points: 2
#     Edge 15, Type (0, 0), BuildingBlock: UVAHIK_clean_linker_0, # of connection points: 2
#     Edge 16, Type (0, 0), BuildingBlock: UVAHIK_clean_linker_0, # of connection points: 2
#     Edge 17, Type (0, 0), BuildingBlock: UVAHIK_clean_linker_0, # of connection points: 2
#     Edge 18, Type (0, 0), BuildingBlock: UVAHIK_clean_linker_0, # of connection points: 2
#     Edge 19, Type (0, 0), BuildingBlock: UVAHIK_clean_linker_0, # of connection points: 2
#     Edge 20, Type (0, 0), BuildingBlock: UVAHIK_clean_linker_0, # of connection points: 2
#     Edge 21, Type (0, 0), BuildingBlock: UVAHIK_clean_linker_0, # of connection points: 2
#     Edge 22, Type (0, 0), BuildingBlock: UVAHIK_clean_linker_0, # of connection points: 2
#     Edge 23, Type (0, 0), BuildingBlock: UVAHIK_clean_linker_0, # of connection points: 2
#     Edge 24, Type (0, 0), BuildingBlock: UVAHIK_clean_linker_0, # of connection points: 2
#     Edge 25, Type (0, 0), BuildingBlock: UVAHIK_clean_linker_0, # of connection points: 2
#     Edge 26, Type (0, 0), BuildingBlock: UVAHIK_clean_linker_0, # of connection points: 2
# Relax obj value: 0.148
# Max RMSD: 0.223
# Mean RMSD: 0.223
data_MOF--net-wnr--node1-HICVOG_clean_sbu_0--edge1-UVAHIK_clean_linker_0
_symmetry_space_group_name_H-M    P1
_symmetry_Int_Tables_number       1
_symmetry_cell_setting            triclinic
loop_
_symmetry_equiv_pos_as_xyz
'x, y, z'
_cell_length_a     54.168247
_cell_length_b     54.231391
_cell_length_c     22.069799
_cell_angle_alpha  90.085
_cell_angle_beta   90.007409
_cell_angle_gamma 119.98592
loop_
_atom_site_label
_atom_site_type_symbol
_atom_site_fract_x
_atom_site_fract_y
_atom_site_fract_z
_atom_type_partial_charge
Zn0 Zn 0.17178 0.39905 0.02548 0.0
C1 C 0.11133 0.40814 0.11361 0.0
N2 N 0.09367 0.38616 0.07836 0.0
C3 C 0.11189 0.38224 0.04408 0.0
N4 N 0.1394 0.40089 0.05756 0.0
N5 N 0.13901 0.41734 0.1016 0.0
C6 C 0.17322 0.42766 0.25158 0.0
O7 O 0.1748 0.40876 0.21703 0.0
O8 O 0.16754 0.39341 0.93478 0.0
Zn9 Zn 0.16978 0.45203 0.13646 0.0
N10 N 0.17336 0.36761 0.0635 0.0
C11 C 0.15797 0.33351 0.14293 0.0
C12 C 0.15646 0.35517 0.11249 0.0
C13 C 0.19172 0.3591 0.04337 0.0
N14 N 0.17636 0.32513 0.12323 0.0
C15 C 0.19338 0.33717 0.07403 0.0
O16 O 0.20918 0.46605 0.1014 0.0
C17 C 0.22238 0.45841 0.06506 0.0
O18 O 0.20975 0.43461 0.03754 0.0
H19 H 0.14215 0.36225 0.12836 0.0
H20 H 0.20529 0.36984 0.00499 0.0
C21 C 0.16761 0.50356 0.1604 0.0
C22 C 0.16007 0.52433 0.14665 0.0
C23 C 0.13875 0.49977 0.05496 0.0
C24 C 0.1466 0.47958 0.0684 0.0
N25 N 0.16058 0.48166 0.12094 0.0
N26 N 0.14564 0.52154 0.09416 0.0
H27 H 0.17859 0.50446 0.202 0.0
C28 C 0.17077 0.41477 0.90452 0.0
O29 O 0.17551 0.43783 0.93392 0.0
O30 O 0.17113 0.44772 0.22695 0.0
H31 H 0.14142 0.46221 0.03734 0.0
H32 H 0.14476 0.32352 0.18219 0.0
H33 H 0.12736 0.49825 0.01358 0.0
Zn34 Zn 0.6261 0.77928 0.70051 0.0
C35 C 0.61771 0.7102 0.78905 0.0
N36 N 0.63989 0.7148 0.75422 0.0
C37 C 0.64362 0.7368 0.7199 0.0
N38 N 0.62465 0.74532 0.73294 0.0
N39 N 0.60819 0.72836 0.77671 0.0
C40 C 0.59701 0.75133 0.9268 0.0
O41 O 0.61567 0.77217 0.8927 0.0
O42 O 0.6313 0.7803 0.6098 0.0
Zn43 Zn 0.57326 0.724 0.81108 0.0
N44 N 0.65768 0.81263 0.73766 0.0
C45 C 0.69201 0.83195 0.81686 0.0
C46 C 0.67026 0.80856 0.78695 0.0
C47 C 0.66613 0.83934 0.71676 0.0
N48 N 0.70032 0.85855 0.79641 0.0
C49 C 0.68813 0.86315 0.74694 0.0
O50 O 0.55933 0.74953 0.77707 0.0
C51 C 0.56679 0.77038 0.74103 0.0
O52 O 0.59049 0.78159 0.71314 0.0
H53 H 0.66321 0.78731 0.80347 0.0
H54 H 0.65527 0.84187 0.67818 0.0
C55 C 0.5211 0.67078 0.83239 0.0
C56 C 0.49988 0.64273 0.81769 0.0
C57 C 0.5253 0.6455 0.72769 0.0
C58 C 0.5459 0.67329 0.74202 0.0
N59 N 0.54357 0.68531 0.79417 0.0
N60 N 0.5029 0.63098 0.76559 0.0
H61 H 0.52011 0.68097 0.87372 0.0
C62 C 0.60994 0.7619 0.57977 0.0
O63 O 0.58702 0.7435 0.60936 0.0
O64 O 0.57726 0.72908 0.90168 0.0
H65 H 0.56372 0.68523 0.7119 0.0
H66 H 0.70211 0.82903 0.85634 0.0
H67 H 0.52698 0.63555 0.68658 0.0
Zn68 Zn 0.29896 0.85131 0.47781 0.0
C69 C 0.28935 0.90925 0.38101 0.0
N70 N 0.31189 0.92745 0.41438 0.0
C71 C 0.31554 0.90986 0.45116 0.0
N72 N 0.29634 0.88224 0.44073 0.0
N73 N 0.27964 0.88184 0.39642 0.0
C74 C 0.25929 0.84255 0.24738 0.0
O75 O 0.2727 0.83254 0.27967 0.0
O76 O 0.29212 0.85165 0.56726 0.0
Zn77 Zn 0.24475 0.8501 0.3658 0.0
N78 N 0.33757 0.85915 0.46348 0.0
C79 C 0.3769 0.87818 0.39564 0.0
C80 C 0.3492 0.8715 0.40949 0.0
C81 C 0.35247 0.85273 0.50413 0.0
N82 N 0.39173 0.87173 0.43588 0.0
C83 C 0.38038 0.85895 0.4899 0.0
O84 O 0.2394 0.81139 0.3842 0.0
C85 C 0.25033 0.79846 0.41137 0.0
O86 O 0.27238 0.81167 0.44464 0.0
H87 H 0.33701 0.87624 0.37751 0.0
H88 H 0.34277 0.84323 0.54696 0.0
C89 C 0.18551 0.83495 0.37636 0.0
C90 C 0.1629 0.83823 0.3984 0.0
C91 C 0.19556 0.87614 0.46134 0.0
C92 C 0.21782 0.87281 0.43948 0.0
N93 N 0.2125 0.85255 0.39702 0.0
N94 N 0.16877 0.85896 0.44016 0.0
H95 H 0.1819 0.81913 0.34225 0.0
C96 C 0.28773 0.83109 0.60163 0.0
O97 O 0.28758 0.80871 0.57826 0.0
O98 O 0.24529 0.85233 0.27457 0.0
H99 H 0.23921 0.88644 0.45607 0.0
H100 H 0.38652 0.88824 0.35305 0.0
H101 H 0.19953 0.89233 0.49474 0.0
Zn102 Zn 0.45624 0.16596 0.85033 0.0
C103 C 0.38863 0.10889 0.94908 0.0
N104 N 0.39243 0.09037 0.91565 0.0
C105 C 0.41373 0.10763 0.87861 0.0
N106 N 0.42276 0.13539 0.88902 0.0
N107 N 0.40678 0.13618 0.93358 0.0
C108 C 0.42283 0.17469 0.08368 0.0
O109 O 0.44679 0.18354 0.05389 0.0
O110 O 0.44768 0.16588 0.76177 0.0
Zn111 Zn 0.40454 0.16854 0.96314 0.0
N112 N 0.48659 0.15717 0.8613 0.0
C113 C 0.50653 0.13639 0.92532 0.0
C114 C 0.48576 0.14369 0.91376 0.0
C115 C 0.50787 0.16427 0.82018 0.0
N116 N 0.52775 0.14348 0.88459 0.0
C117 C 0.52936 0.15748 0.83222 0.0
O118 O 0.43985 0.20621 0.94881 0.0
C119 C 0.4635 0.21895 0.9209 0.0
O120 O 0.47113 0.20586 0.88425 0.0
H121 H 0.46898 0.13855 0.94635 0.0
H122 H 0.50786 0.17484 0.77874 0.0
C123 C 0.36386 0.18753 0.94305 0.0
C124 C 0.34182 0.18858 0.91127 0.0
C125 C 0.33852 0.15254 0.84478 0.0
C126 C 0.36037 0.1517 0.87613 0.0
N127 N 0.37268 0.16919 0.92448 0.0
N128 N 0.32989 0.17096 0.8628 0.0
H129 H 0.37448 0.2016 0.98093 0.0
C130 C 0.46324 0.18659 0.72714 0.0
O131 O 0.48582 0.20892 0.74962 0.0
O132 O 0.39977 0.16577 0.05401 0.0
H133 H 0.36774 0.13746 0.86141 0.0
H134 H 0.50596 0.12539 0.9666 0.0
H135 H 0.32862 0.13884 0.80603 0.0
Zn136 Zn 0.85688 0.24226 0.63245 0.0
C137 C 0.91822 0.31263 0.54852 0.0
N138 N 0.93547 0.30832 0.58515 0.0
C139 C 0.91687 0.28587 0.61802 0.0
N140 N 0.88953 0.27679 0.60243 0.0
N141 N 0.89043 0.29385 0.55846 0.0
C142 C 0.85636 0.26944 0.40657 0.0
O143 O 0.85235 0.24811 0.44134 0.0
O144 O 0.86065 0.24003 0.7231 0.0
Zn145 Zn 0.85998 0.29764 0.52144 0.0
N146 N 0.85565 0.20963 0.59297 0.0
C147 C 0.87152 0.19189 0.51229 0.0
C148 C 0.87279 0.21467 0.5441 0.0
C149 C 0.8373 0.18253 0.6117 0.0
N150 N 0.85312 0.16491 0.53051 0.0
C151 C 0.83587 0.15935 0.57957 0.0
O152 O 0.8203 0.27201 0.55457 0.0
C153 C 0.80671 0.25122 0.59068 0.0
O154 O 0.819 0.24 0.6193 0.0
H155 H 0.88707 0.23622 0.52936 0.0
H156 H 0.82354 0.17921 0.65005 0.0
C157 C 0.86087 0.35064 0.49741 0.0
C158 C 0.86746 0.3787 0.51119 0.0
C159 C 0.88924 0.37634 0.60292 0.0
C160 C 0.88226 0.34853 0.58949 0.0
N161 N 0.86849 0.33631 0.53691 0.0
N162 N 0.88169 0.39067 0.56372 0.0
H163 H 0.8501 0.3403 0.45581 0.0
C164 C 0.85819 0.25836 0.75452 0.0
O165 O 0.85402 0.27732 0.7264 0.0
O166 O 0.85982 0.29221 0.43096 0.0
H167 H 0.88788 0.33675 0.62067 0.0
H168 H 0.88492 0.19558 0.47309 0.0
H169 H 0.90042 0.38644 0.64435 0.0
Zn170 Zn 0.72774 0.56896 0.19472 0.0
C171 C 0.73706 0.635 0.29766 0.0
N172 N 0.71418 0.63087 0.26583 0.0
C173 C 0.71017 0.60986 0.22781 0.0
N174 N 0.72957 0.60145 0.23595 0.0
N175 N 0.74673 0.61752 0.27997 0.0
C176 C 0.77031 0.60206 0.42771 0.0
O177 O 0.75577 0.578 0.39789 0.0
O178 O 0.73799 0.57902 0.10692 0.0
Zn179 Zn 0.78222 0.62082 0.3069 0.0
N180 N 0.68842 0.53809 0.20034 0.0
C181 C 0.6445 0.51839 0.25403 0.0
C182 C 0.6733 0.53858 0.24906 0.0
C183 C 0.6761 0.5172 0.15758 0.0
N184 N 0.63207 0.49795 0.21091 0.0
C185 C 0.6471 0.49653 0.16298 0.0
O186 O 0.78624 0.58637 0.29032 0.0
C187 C 0.77449 0.56239 0.26337 0.0
O188 O 0.75275 0.5544 0.22952 0.0
H189 H 0.68342 0.55483 0.28343 0.0
H190 H 0.68849 0.51691 0.11948 0.0
C191 C 0.84122 0.66426 0.28744 0.0
C192 C 0.86318 0.68911 0.26038 0.0
C193 C 0.8287 0.69216 0.1992 0.0
C194 C 0.80713 0.66759 0.22593 0.0
N195 N 0.81368 0.65424 0.26984 0.0
N196 N 0.85605 0.70235 0.2171 0.0
H197 H 0.84577 0.65331 0.32283 0.0
C198 C 0.74432 0.56423 0.07246 0.0
O199 O 0.74468 0.54197 0.09483 0.0
O200 O 0.78413 0.6251 0.39803 0.0
H201 H 0.78528 0.65935 0.2119 0.0
H202 H 0.63211 0.51889 0.29195 0.0
H203 H 0.82376 0.70311 0.16452 0.0
C204 C 0.08423 0.33223 0.00984 0.0
C205 C 0.10143 0.36109 0.99507 0.0
C206 C 0.06515 0.313 0.96725 0.0
C207 C 0.04098 0.30486 0.80644 0.0
H208 H 0.96536 0.26881 0.8774 0.0
C209 C 0.92774 0.2851 0.72629 0.0
C210 C 0.92673 0.27488 0.66748 0.0
C211 C 0.94623 0.28432 0.76943 0.0
C212 C 0.98632 0.27838 0.85693 0.0
H213 H 0.11268 0.39246 0.92448 0.0
H214 H 0.08047 0.35897 0.84926 0.0
H215 H 1.00718 0.28969 0.94308 0.0
H216 H 0.9433 0.25501 0.60769 0.0
H217 H 0.9757 0.25349 0.68312 0.0
H218 H 0.02013 0.29521 0.72026 0.0
C219 C 0.08195 0.35085 0.8931 0.0
C220 C 1.01033 0.29015 0.89455 0.0
C221 C 0.10079 0.37007 0.93591 0.0
C222 C 0.94319 0.26228 0.6534 0.0
C223 C 0.96195 0.26175 0.69631 0.0
C224 C 0.01696 0.29293 0.76882 0.0
C225 C 0.06287 0.32242 0.90928 0.0
C226 C 0.03795 0.3045 0.8697 0.0
C227 C 0.96463 0.274 0.7539 0.0
C228 C 0.98937 0.28053 0.79364 0.0
H229 H 0.08385 0.32504 0.05579 0.0
H230 H 0.05089 0.29121 0.98094 0.0
H231 H 0.06195 0.31559 0.78595 0.0
H232 H 0.91642 0.29627 0.73717 0.0
H233 H 0.94804 0.29435 0.81295 0.0
C234 C 0.74129 0.6486 0.40565 0.0
C235 C 0.74918 0.65674 0.34536 0.0
C236 C 0.74243 0.66835 0.44803 0.0
C237 C 0.73149 0.72935 0.44464 0.0
H238 H 0.73671 0.72515 0.61899 0.0
C239 C 0.69356 0.75918 0.68513 0.0
C240 C 0.6646 0.7474 0.67068 0.0
C241 C 0.71265 0.75911 0.6425 0.0
C242 C 0.7357 0.7272 0.57038 0.0
H243 H 0.76618 0.69194 0.28244 0.0
H244 H 0.76888 0.72674 0.35662 0.0
H245 H 0.75751 0.70402 0.5538 0.0
H246 H 0.63291 0.72682 0.6006 0.0
H247 H 0.66609 0.72762 0.52537 0.0
H248 H 0.70862 0.75146 0.46125 0.0
C249 C 0.76166 0.70516 0.37139 0.0
C250 C 0.74739 0.71479 0.53303 0.0
C251 C 0.76051 0.68538 0.32913 0.0
C252 C 0.65538 0.73743 0.61175 0.0
C253 C 0.67443 0.73753 0.56893 0.0
C254 C 0.71974 0.74168 0.48197 0.0
C255 C 0.75112 0.69649 0.43043 0.0
C256 C 0.74452 0.71481 0.46975 0.0
C257 C 0.70297 0.74701 0.58484 0.0
C258 C 0.72078 0.73983 0.5453 0.0
H259 H 0.73159 0.62642 0.4186 0.0
H260 H 0.7339 0.6608 0.49288 0.0
H261 H 0.7286 0.72958 0.39614 0.0
H262 H 0.70094 0.76627 0.73093 0.0
H263 H 0.73453 0.76678 0.65598 0.0
C264 C 0.28873 0.91726 0.27138 0.0
C265 C 0.27976 0.91945 0.32965 0.0
C266 C 0.29139 0.93648 0.2263 0.0
C267 C 0.2814 0.99694 0.18345 0.0
H268 H 0.36068 0.03105 0.13551 0.0
C269 C 0.34028 0.07929 0.99086 0.0
C270 C 0.36916 0.09906 0.00101 0.0
C271 C 0.32385 0.06017 0.03641 0.0
C272 C 0.33859 0.02199 0.14898 0.0
H273 H 0.26455 0.94179 0.38579 0.0
H274 H 0.269 0.97539 0.30681 0.0
H275 H 0.33909 0.98774 0.19524 0.0
H276 H 0.40316 0.1156 0.06712 0.0
H277 H 0.37437 0.08302 0.14741 0.0
H278 H 0.28118 0.03148 0.13589 0.0
C279 C 0.27352 0.9586 0.2955 0.0
C280 C 0.32606 0.99686 0.18226 0.0
C281 C 0.27087 0.93932 0.34061 0.0
C282 C 0.38066 0.10134 0.05896 0.0
C283 C 0.3643 0.08229 0.10449 0.0
C284 C 0.29391 0.02205 0.14895 0.0
C285 C 0.28554 0.95846 0.23921 0.0
C286 C 0.29736 0.984 0.19984 0.0
C287 C 0.33632 0.06038 0.09233 0.0
C288 C 0.32275 0.03492 0.13194 0.0
H289 H 0.29677 0.90289 0.26257 0.0
H290 H 0.30053 0.9358 0.18308 0.0
H291 H 0.25929 0.98755 0.19694 0.0
H292 H 0.33123 0.07673 0.94593 0.0
H293 H 0.30242 0.04344 0.02566 0.0
C294 C 0.19229 0.56195 0.22233 0.0
C295 C 0.16747 0.5493 0.18637 0.0
C296 C 0.20026 0.5873 0.25402 0.0
C297 C 0.1905 0.64978 0.24665 0.0
H298 H 0.22224 0.66625 0.40892 0.0
C299 C 0.21253 0.75228 0.36738 0.0
C300 C 0.23858 0.7677 0.39837 0.0
C301 C 0.20298 0.72444 0.34793 0.0
C302 C 0.21363 0.66205 0.36338 0.0
H303 H 0.13098 0.5528 0.15813 0.0
H304 H 0.1447 0.59656 0.21343 0.0
H305 H 0.20739 0.6197 0.36314 0.0
H306 H 0.2744 0.76531 0.43556 0.0
H307 H 0.25786 0.71671 0.40077 0.0
H308 H 0.19698 0.69197 0.246 0.0
C309 C 0.15831 0.58726 0.2163 0.0
C310 C 0.20512 0.63539 0.33718 0.0
C311 C 0.15039 0.56207 0.18472 0.0
C312 C 0.25421 0.75405 0.41187 0.0
C313 C 0.2447 0.72614 0.39203 0.0
C314 C 0.19902 0.67632 0.27262 0.0
C315 C 0.18365 0.60056 0.25025 0.0
C316 C 0.19322 0.62888 0.27865 0.0
C317 C 0.21929 0.71125 0.35847 0.0
C318 C 0.21047 0.68278 0.3315 0.0
H319 H 0.20626 0.55307 0.22403 0.0
H320 H 0.22002 0.59712 0.27942 0.0
H321 H 0.1821 0.64579 0.20092 0.0
H322 H 0.19974 0.76196 0.35677 0.0
H323 H 0.18296 0.71339 0.32359 0.0
C324 C 0.26873 0.46899 0.01747 0.0
C325 C 0.25298 0.47824 0.05179 0.0
C326 C 0.29703 0.48791 0.00169 0.0
C327 C 0.34701 0.56393 0.97662 0.0
H328 H 0.40368 0.54017 0.97696 0.0
C329 C 0.4627 0.63832 0.89356 0.0
C330 C 0.47427 0.62558 0.85614 0.0
C331 C 0.43731 0.62156 0.92547 0.0
C332 C 0.38808 0.54711 0.97618 0.0
H333 H 0.255 0.51472 0.09721 0.0
H334 H 0.30448 0.5478 0.06937 0.0
H335 H 0.35631 0.50856 0.01784 0.0
H336 H 0.46821 0.58505 0.82421 0.0
H337 H 0.42406 0.55611 0.87865 0.0
H338 H 0.37849 0.60214 0.93339 0.0
C339 C 0.29477 0.52586 0.05455 0.0
C340 C 0.36093 0.52898 -0.00029 0.0
C341 C 0.26647 0.50684 0.0708 0.0
C342 C 0.46002 0.59569 0.85246 0.0
C343 C 0.43474 0.579 0.88425 0.0
C344 C 0.37416 0.58203 0.95279 0.0
C345 C 0.31032 0.51664 0.01945 0.0
C346 C 0.33992 0.53696 -0.00068 0.0
C347 C 0.42286 0.59167 0.92076 0.0
C348 C 0.3949 0.57365 0.95131 0.0
H349 H 0.25909 0.44714 0.00203 0.0
H350 H 0.30826 0.48018 0.97403 0.0
H351 H 0.33123 0.57061 0.97506 0.0
H352 H 0.47262 0.66124 0.89692 0.0
H353 H 0.42888 0.63204 0.9535 0.0
C354 C 0.55572 0.80582 0.69386 0.0
C355 C 0.54683 0.78107 0.72859 0.0
C356 C 0.53659 0.81504 0.67879 0.0
C357 C 0.46021 0.7885 0.65656 0.0
H358 H 0.48383 0.86879 0.65342 0.0
C359 C 0.38516 0.8283 0.57035 0.0
C360 C 0.39775 0.85174 0.53071 0.0
C361 C 0.40212 0.8204 0.60381 0.0
C362 C 0.47692 0.84629 0.65373 0.0
H363 H 0.51081 0.74692 0.77568 0.0
H364 H 0.47739 0.76306 0.74914 0.0
H365 H 0.5159 0.85363 0.69457 0.0
H366 H 0.43812 0.88561 0.49676 0.0
H367 H 0.46741 0.87168 0.55405 0.0
H368 H 0.42158 0.78119 0.61408 0.0
C369 C 0.4992 0.77521 0.73338 0.0
C370 C 0.49531 0.83761 0.67737 0.0
C371 C 0.51841 0.76607 0.74887 0.0
C372 C 0.42764 0.86742 0.52669 0.0
C373 C 0.44452 0.85958 0.56008 0.0
C374 C 0.44184 0.79719 0.63268 0.0
C375 C 0.50802 0.79969 0.69775 0.0
C376 C 0.4874 0.80866 0.67805 0.0
C377 C 0.43201 0.83575 0.59848 0.0
C378 C 0.45019 0.82625 0.62989 0.0
H379 H 0.57742 0.81794 0.67746 0.0
H380 H 0.54401 0.83379 0.65068 0.0
H381 H 0.45356 0.76606 0.65585 0.0
H382 H 0.36223 0.81535 0.57409 0.0
H383 H 0.39178 0.80206 0.63331 0.0
C384 C 0.56803 0.14955 0.79249 0.0
C385 C 0.55402 0.16546 0.79112 0.0
C386 C 0.593 0.15814 0.75947 0.0
C387 C 0.65356 0.22233 0.69404 0.0
H388 H 0.67199 0.16746 0.62636 0.0
C389 C 0.76283 0.25582 0.58229 0.0
C390 C 0.77595 0.24044 0.6019 0.0
C391 C 0.73427 0.24643 0.5964 0.0
C392 C 0.66718 0.18304 0.64516 0.0
H393 H 0.55542 0.203 0.75263 0.0
H394 H 0.59869 0.21762 0.69391 0.0
H395 H 0.62417 0.15134 0.66517 0.0
H396 H 0.76897 0.20269 0.65037 0.0
H397 H 0.71933 0.18638 0.67461 0.0
H398 H 0.69677 0.25396 0.67467 0.0
C399 C 0.59035 0.19852 0.72113 0.0
C400 C 0.63978 0.17382 0.66748 0.0
C401 C 0.56526 0.18987 0.75426 0.0
C402 C 0.75962 0.21511 0.63459 0.0
C403 C 0.73106 0.20563 0.64817 0.0
C404 C 0.68095 0.23158 0.67138 0.0
C405 C 0.60476 0.18297 0.72404 0.0
C406 C 0.63278 0.19324 0.69352 0.0
C407 C 0.71812 0.22132 0.62983 0.0
C408 C 0.68825 0.21195 0.64791 0.0
H409 H 0.56002 0.13061 0.82021 0.0
H410 H 0.60364 0.14582 0.76363 0.0
H411 H 0.64909 0.23787 0.71438 0.0
H412 H 0.77476 0.27543 0.55709 0.0
H413 H 0.72484 0.25887 0.58125 0.0
C414 C 0.83503 0.3827 0.43377 0.0
C415 C 0.85928 0.39564 0.47139 0.0
C416 C 0.8265 0.39931 0.40097 0.0
C417 C 0.85176 0.47352 0.34842 0.0
H418 H 0.77146 0.45028 0.35065 0.0
C419 C 0.81078 0.55187 0.30837 0.0
C420 C 0.78549 0.54263 0.27513 0.0
C421 C 0.82022 0.53291 0.32336 0.0
C422 C 0.79391 0.45688 0.34872 0.0
H423 H 0.89381 0.43632 0.50256 0.0
H424 H 0.87879 0.465 0.44648 0.0
H425 H 0.78717 0.41878 0.39244 0.0
H426 H 0.75062 0.50615 0.23048 0.0
H427 H 0.76714 0.47303 0.25688 0.0
H428 H 0.85856 0.51198 0.30632 0.0
C429 C 0.86654 0.44208 0.44147 0.0
C430 C 0.80293 0.43879 0.37263 0.0
C431 C 0.87502 0.42555 0.4742 0.0
C432 C 0.77019 0.51403 0.25613 0.0
C433 C 0.77955 0.49499 0.27156 0.0
C434 C 0.84276 0.49163 0.32477 0.0
C435 C 0.84199 0.42922 0.40493 0.0
C436 C 0.83204 0.4471 0.37383 0.0
C437 C 0.80455 0.50416 0.30581 0.0
C438 C 0.81378 0.48376 0.32561 0.0
H439 H 0.822 0.35977 0.43106 0.0
H440 H 0.80759 0.38869 0.37293 0.0
H441 H 0.87428 0.48039 0.34743 0.0
H442 H 0.82315 0.57371 0.3238 0.0
H443 H 0.83938 0.54063 0.35038 0.0
C444 C 0.47922 0.26124 0.9884 0.0
C445 C 0.4833 0.24938 0.93531 0.0
C446 C 0.49808 0.28949 0.00409 0.0
C447 C 0.57075 0.35034 0.97337 0.0
H448 H 0.5404 0.3911 0.06165 0.0
C449 C 0.60626 0.46705 0.09463 0.0
C450 C 0.63247 0.47289 0.11933 0.0
C451 C 0.58982 0.44219 0.06119 0.0
C452 C 0.54941 0.38047 0.036 0.0
H453 H 0.51046 0.25811 0.8568 0.0
H454 H 0.54297 0.30799 0.88307 0.0
H455 H 0.50827 0.34411 0.02284 0.0
H456 H 0.66258 0.45792 0.12751 0.0
H457 H 0.63337 0.41372 0.07175 0.0
H458 H 0.6119 0.38736 0.98474 0.0
C459 C 0.52547 0.29517 0.91336 0.0
C460 C 0.53086 0.35305 0.01467 0.0
C461 C 0.50672 0.26661 0.89802 0.0
C462 C 0.64254 0.45398 0.10819 0.0
C463 C 0.62575 0.42867 0.07601 0.0
C464 C 0.58936 0.37809 0.99393 0.0
C465 C 0.52138 0.307 0.9667 0.0
C466 C 0.54125 0.33728 0.98428 0.0
C467 C 0.59874 0.42203 0.05342 0.0
C468 C 0.57901 0.39341 0.02649 0.0
H469 H 0.46171 0.24851 0.01881 0.0
H470 H 0.49455 0.29741 0.04637 0.0
H471 H 0.57966 0.3389 0.95044 0.0
H472 H 0.59815 0.48145 0.10244 0.0
H473 H 0.5697 0.43849 0.04295 0.0
C474 C 0.92841 0.3253 0.44019 0.0
C475 C 0.92976 0.33411 0.50035 0.0
C476 C 0.94699 0.34423 0.3968 0.0
C477 C 0.01982 0.4045 0.39412 0.0
H478 H 1.00672 0.39738 0.22082 0.0
C479 C 0.10156 0.41083 0.2221 0.0
C480 C 0.10036 0.41855 0.16214 0.0
C481 C 0.08321 0.4115 0.26576 0.0
C482 C 1.01087 0.40029 0.26905 0.0
H483 H 0.95021 0.36968 0.56229 0.0
H484 H 0.98228 0.40315 0.48628 0.0
H485 H 0.96627 0.37792 0.28961 0.0
H486 H 0.08042 0.43444 0.10084 0.0
H487 H 0.04877 0.43641 0.17735 0.0
H488 H 0.06441 0.42618 0.37354 0.0
C489 C 0.96708 0.38163 0.47239 0.0
C490 C 0.98757 0.38878 0.30854 0.0
C491 C 0.94853 0.36262 0.51574 0.0
C492 C 0.08202 0.42888 0.14726 0.0
C493 C 0.06369 0.42965 0.19088 0.0
C494 C 0.04311 0.41609 0.35463 0.0
C495 C 0.96752 0.37226 0.41311 0.0
C496 C 0.99174 0.38975 0.37154 0.0
C497 C 0.06306 0.41959 0.24991 0.0
C498 C 0.03893 0.41314 0.2916 0.0
H499 H 0.9151 0.30313 0.42802 0.0
H500 H 0.94693 0.33605 0.35198 0.0
H501 H 0.02396 0.40552 0.44232 0.0
H502 H 0.11453 0.40152 0.23387 0.0
H503 H 0.0831 0.40317 0.31038 0.0
C504 C 0.69794 0.60727 0.11888 0.0
C505 C 0.6889 0.6005 0.17906 0.0
C506 C 0.67948 0.60751 0.07486 0.0
C507 C 0.62041 0.62221 0.07016 0.0
H508 H 0.62791 0.61588 0.89715 0.0
C509 C 0.59702 0.6602 0.82252 0.0
C510 C 0.60738 0.68886 0.83749 0.0
C511 C 0.59619 0.64112 0.86615 0.0
C512 C 0.62491 0.61723 0.94529 0.0
H513 H 0.65326 0.58689 0.24023 0.0
H514 H 0.62055 0.5862 0.16311 0.0
H515 H 0.64654 0.59438 0.96671 0.0
H516 H 0.62453 0.72008 0.90928 0.0
H517 H 0.62276 0.68705 0.9858 0.0
H518 H 0.59935 0.64561 0.04877 0.0
C519 C 0.64196 0.5918 0.14974 0.0
C520 C 0.63597 0.60518 0.98524 0.0
C521 C 0.66053 0.59184 0.19376 0.0
C522 C 0.61517 0.69781 0.89746 0.0
C523 C 0.61444 0.67882 0.94112 0.0
C524 C 0.60924 0.63415 0.03024 0.0
C525 C 0.65166 0.60111 0.09047 0.0
C526 C 0.63483 0.60845 0.04818 0.0
C527 C 0.60622 0.65056 0.92529 0.0
C528 C 0.61233 0.63277 0.96732 0.0
H529 H 0.72004 0.61519 0.10709 0.0
H530 H 0.68792 0.61518 0.03002 0.0
H531 H 0.61927 0.62543 0.11828 0.0
H532 H 0.59144 0.65303 0.77607 0.0
H533 H 0.58935 0.61943 0.85261 0.0
C534 C 0.41656 0.09727 0.77034 0.0
C535 C 0.42386 0.09607 0.83069 0.0
C536 C 0.41639 0.07809 0.72762 0.0
C537 C 0.41892 0.03593 0.64105 0.0
H538 H 0.38058 0.96 0.70994 0.0
C539 C 0.36555 0.93982 0.48406 0.0
C540 C 0.33705 0.92102 0.49947 0.0
C541 C 0.3845 0.95878 0.52708 0.0
C542 C 0.39143 0.98103 0.68991 0.0
H543 H 0.4387 0.0757 0.89335 0.0
H544 H 0.43958 0.04292 0.81846 0.0
H545 H 0.4003 1.00123 0.77658 0.0
H546 H 0.30616 0.9062 0.57194 0.0
H547 H 0.33897 0.939 0.64734 0.0
H548 H 0.4081 0.01572 0.55434 0.0
C549 C 0.43344 0.05817 0.80399 0.0
C550 C 0.40311 1.00479 0.72819 0.0
C551 C 0.43334 0.07717 0.84669 0.0
C552 C 0.32831 0.91978 0.55963 0.0
C553 C 0.34716 0.93887 0.60267 0.0
C554 C 0.40712 0.01217 0.60276 0.0
C555 C 0.42344 0.05732 0.74476 0.0
C556 C 0.41618 0.03256 0.70424 0.0
C557 C 0.37508 0.95962 0.58604 0.0
C558 C 0.39237 0.9844 0.62669 0.0
H559 H 0.40818 0.11094 0.75757 0.0
H560 H 0.40827 0.07796 0.68272 0.0
H561 H 0.42915 0.05696 0.62101 0.0
H562 H 0.37259 0.94134 0.43755 0.0
H563 H 0.40598 0.97402 0.51302 0.0
C564 C 0.22391 0.316 0.09912 0.0
C565 C 0.21307 0.32689 0.05524 0.0
C566 C 0.24088 0.30441 0.08233 0.0
C567 C 0.25426 0.2696 0.95429 0.0
H568 H 0.3205 0.28263 0.04729 0.0
C569 C 0.32131 0.21917 0.8822 0.0
C570 C 0.33142 0.20841 0.92784 0.0
C571 C 0.30948 0.23616 0.89668 0.0
C572 C 0.30188 0.27851 0.02118 0.0
H573 H 0.21169 0.33401 0.95885 0.0
H574 H 0.24142 0.31383 0.92961 0.0
H575 H 0.29534 0.30799 0.07394 0.0
H576 H 0.33699 0.20721 0.0249 0.0
H577 H 0.31588 0.23648 0.05038 0.0
H578 H 0.26012 0.23959 0.9026 0.0
C579 C 0.23678 0.31438 0.97716 0.0
C580 C 0.28753 0.29314 0.03635 0.0
C581 C 0.21998 0.32624 0.99402 0.0
C582 C 0.32986 0.21551 0.98848 0.0
C583 C 0.31772 0.23233 0.00308 0.0
C584 C 0.26846 0.25483 0.93941 0.0
C585 C 0.24721 0.3031 0.0211 0.0
C586 C 0.26347 0.28877 0.00321 0.0
C587 C 0.30703 0.24259 0.95737 0.0
C588 C 0.29243 0.25899 0.97271 0.0
H589 H 0.21906 0.31619 0.14668 0.0
H590 H 0.2483 0.29565 0.11726 0.0
H591 H 0.23552 0.26535 0.92851 0.0
H592 H 0.32245 0.21436 0.83497 0.0
H593 H 0.30214 0.24417 0.86009 0.0
C594 C 0.69875 0.90019 0.66609 0.0
C595 C 0.69831 0.89299 0.72746 0.0
C596 C 0.71052 0.92873 0.64864 0.0
C597 C 0.73183 1.00096 0.70666 0.0
H598 H 0.78481 0.02661 0.57209 0.0
C599 C 0.80928 0.12069 0.65725 0.0
C600 C 0.81612 0.12916 0.59648 0.0
C601 C 0.79252 0.09179 0.67215 0.0
C602 C 0.76973 0.01983 0.60913 0.0
H603 H 0.7093 0.91021 0.81855 0.0
H604 H 0.72966 0.95975 0.78813 0.0
H605 H 0.7592 0.97638 0.59874 0.0
H606 H 0.80978 0.11393 0.50375 0.0
H607 H 0.78011 0.06392 0.52943 0.0
H608 H 0.74236 0.04443 0.71712 0.0
C609 C 0.72081 0.94339 0.75352 0.0
C610 C 0.75504 0.99095 0.62444 0.0
C611 C 0.70932 0.91496 0.77088 0.0
C612 C 0.80517 0.10814 0.55107 0.0
C613 C 0.78826 0.07938 0.56586 0.0
C614 C 0.74639 0.02987 0.69109 0.0
C615 C 0.72191 0.95069 0.69214 0.0
C616 C 0.73609 0.98117 0.67368 0.0
C617 C 0.78207 0.0707 0.62665 0.0
C618 C 0.76571 0.03976 0.64234 0.0
H619 H 0.69088 0.88395 0.63124 0.0
H620 H 0.71089 0.93365 0.60098 0.0
H621 H 0.71714 0.99408 0.74447 0.0
H622 H 0.81772 0.13621 0.69353 0.0
H623 H 0.78857 0.08597 0.71952 0.0
C624 C 0.91151 0.7314 0.27518 0.0
C625 C 0.89368 0.70172 0.27752 0.0
C626 C 0.94069 0.74388 0.28631 0.0
C627 C 0.99642 0.73077 0.35154 0.0
H628 H 0.0461 0.7979 0.25735 0.0
C629 C 0.12094 0.79103 0.36666 0.0
C630 C 0.13308 0.82045 0.37697 0.0
C631 C 0.09203 0.77441 0.35107 0.0
C632 C 0.0325 0.77917 0.28399 0.0
H633 H 0.89268 0.6618 0.29369 0.0
H634 H 0.94391 0.68361 0.31231 0.0
H635 H 0.99506 0.7726 0.2378 0.0
H636 H 0.12464 0.85553 0.37788 0.0
H637 H 0.07464 0.82677 0.3494 0.0
H638 H 0.03434 0.73752 0.39727 0.0
C639 C 0.93514 0.6973 0.30296 0.0
C640 C 1.00318 0.76473 0.27315 0.0
C641 C 0.90573 0.68477 0.29239 0.0
C642 C 0.11592 0.83293 0.37018 0.0
C643 C 0.08731 0.8165 0.35361 0.0
C644 C 0.02592 0.7451 0.36192 0.0
C645 C 0.95308 0.72704 0.29919 0.0
C646 C 0.98459 0.74075 0.30776 0.0
C647 C 0.07496 0.78703 0.34439 0.0
C648 C 0.04417 0.76982 0.32912 0.0
H649 H 0.90288 0.74511 0.26452 0.0
H650 H 0.95355 0.76686 0.28471 0.0
H651 H 0.98283 0.7125 0.37932 0.0
H652 H 0.13351 0.78072 0.37239 0.0
H653 H 0.08303 0.75174 0.34413 0.0
C654 C 0.1724 0.40168 0.34641 0.0
C655 C 0.17268 0.42511 0.31849 0.0
C656 C 0.17173 0.39932 0.40964 0.0
C657 C 0.18895 0.44263 0.54853 0.0
H658 H 0.13844 0.37106 0.62809 0.0
C659 C 0.17094 0.4372 0.80557 0.0
C660 C 0.16929 0.41402 0.83744 0.0
C661 C 0.17076 0.43737 0.74234 0.0
C662 C 0.15294 0.39112 0.60659 0.0
H663 H 0.17216 0.46429 0.33522 0.0
H664 H 0.17108 0.46021 0.44519 0.0
H665 H 0.13963 0.37361 0.51745 0.0
H666 H 0.1655 0.37247 0.82773 0.0
H667 H 0.16565 0.37295 0.71694 0.0
H668 H 0.20251 0.46019 0.63712 0.0
C669 C 0.17165 0.44378 0.41828 0.0
C670 C 0.15358 0.39257 0.54319 0.0
C671 C 0.17215 0.44605 0.35518 0.0
C672 C 0.16686 0.39069 0.80451 0.0
C673 C 0.1668 0.39091 0.74101 0.0
C674 C 0.18843 0.44116 0.61171 0.0
C675 C 0.17152 0.42045 0.44628 0.0
C676 C 0.1714 0.41844 0.51349 0.0
C677 C 0.16908 0.41443 0.70914 0.0
C678 C 0.1702 0.41548 0.64165 0.0
H679 H 0.17271 0.38512 0.31946 0.0
H680 H 0.17185 0.3812 0.42987 0.0
H681 H 0.20332 0.46274 0.52703 0.0
H682 H 0.17253 0.45541 0.82944 0.0
H683 H 0.17188 0.45556 0.71944 0.0
C684 C 0.63364 0.78207 0.47966 0.0
C685 C 0.61057 0.76097 0.51271 0.0
C686 C 0.63333 0.78158 0.41618 0.0
C687 C 0.58299 0.75165 0.28688 0.0
H688 H 0.65105 0.77214 0.19299 0.0
C689 C 0.57882 0.73123 0.02996 0.0
C690 C 0.59949 0.75313 0.99373 0.0
C691 C 0.58101 0.73283 0.09308 0.0
C692 C 0.63193 0.76663 0.21863 0.0
H693 H 0.56956 0.72226 0.505 0.0
H694 H 0.56927 0.72111 0.39497 0.0
H695 H 0.65358 0.77351 0.30361 0.0
H696 H 0.6389 0.79371 0.99556 0.0
H697 H 0.64269 0.79646 0.10601 0.0
H698 H 0.56128 0.74447 0.20207 0.0
C699 C 0.5873 0.73847 0.41776 0.0
C700 C 0.63338 0.76745 0.28202 0.0
C701 C 0.58756 0.73904 0.481 0.0
C702 C 0.62257 0.77652 0.02213 0.0
C703 C 0.62484 0.77803 0.08539 0.0
C704 C 0.58153 0.75069 0.22368 0.0
C705 C 0.60998 0.75992 0.38444 0.0
C706 C 0.60886 0.75978 0.31696 0.0
C707 C 0.60399 0.75627 0.12156 0.0
C708 C 0.60592 0.758 0.18879 0.0
H709 H 0.65172 0.79924 0.50276 0.0
H710 H 0.65107 0.79856 0.39202 0.0
H711 H 0.56381 0.74624 0.31218 0.0
H712 H 0.56086 0.71281 0.0096 0.0
H713 H 0.56481 0.71552 0.11965 0.0
C714 C 0.27892 0.8542 0.69103 0.0
C715 C 0.28323 0.83257 0.66733 0.0
C716 C 0.27461 0.85554 0.75312 0.0
C717 C 0.25517 0.81178 0.8934 0.0
H718 H 0.28864 0.88508 0.9743 0.0
C719 C 0.26888 0.82432 0.15174 0.0
C720 C 0.26043 0.84202 0.18055 0.0
C721 C 0.26993 0.82339 0.08869 0.0
C722 C 0.27892 0.86449 0.95211 0.0
H723 H 0.28682 0.79563 0.69032 0.0
H724 H 0.28015 0.79839 0.79859 0.0
H725 H 0.29425 0.88305 0.86492 0.0
H726 H 0.24682 0.87297 0.16599 0.0
H727 H 0.24918 0.8717 0.05509 0.0
H728 H 0.2407 0.7933 0.98109 0.0
C729 C 0.27929 0.81391 0.76919 0.0
C730 C 0.28205 0.86328 0.88944 0.0
C731 C 0.28332 0.81242 0.70706 0.0
C732 C 0.25328 0.85903 0.14496 0.0
C733 C 0.25476 0.85841 0.08165 0.0
C734 C 0.25234 0.81301 0.95604 0.0
C735 C 0.27476 0.83542 0.79306 0.0
C736 C 0.27045 0.83688 0.85935 0.0
C737 C 0.26292 0.84042 0.053 0.0
C738 C 0.26441 0.83935 0.98608 0.0
H739 H 0.27862 0.87 0.66155 0.0
H740 H 0.27081 0.87216 0.76965 0.0
H741 H 0.24535 0.7911 0.87172 0.0
H742 H 0.27449 0.81094 0.1779 0.0
H743 H 0.2766 0.80958 0.06779 0.0
C744 C 0.47551 0.20581 0.62171 0.0
C745 C 0.45611 0.18532 0.66211 0.0
C746 C 0.46898 0.20443 0.56014 0.0
C747 C 0.4216 0.15473 0.44154 0.0
H748 H 0.44855 0.22465 0.35045 0.0
C749 C 0.39856 0.15863 0.18467 0.0
C750 C 0.42324 0.17564 0.15052 0.0
C751 C 0.39971 0.15943 0.24812 0.0
C752 C 0.44087 0.20496 0.3754 0.0
H753 H 0.41443 0.14746 0.66975 0.0
H754 H 0.40272 0.14546 0.5626 0.0
H755 H 0.45569 0.22686 0.45978 0.0
H756 H 0.46824 0.20708 0.15571 0.0
H757 H 0.47005 0.2088 0.26591 0.0
H758 H 0.40669 0.13296 0.35657 0.0
C759 C 0.42326 0.16228 0.57817 0.0
C760 C 0.44511 0.2062 0.43796 0.0
C761 C 0.42992 0.16352 0.6397 0.0
C762 C 0.44889 0.19366 0.18079 0.0
C763 C 0.44991 0.19481 0.24387 0.0
C764 C 0.41707 0.15351 0.37893 0.0
C765 C 0.44274 0.18269 0.53754 0.0
C766 C 0.43609 0.18114 0.4717 0.0
C767 C 0.4254 0.17766 0.27819 0.0
C768 C 0.4272 0.17864 0.34517 0.0
H769 H 0.49596 0.22276 0.63744 0.0
H770 H 0.48477 0.22018 0.5301 0.0
H771 H 0.41462 0.13501 0.46585 0.0
H772 H 0.37855 0.14445 0.16242 0.0
H773 H 0.38052 0.14601 0.27368 0.0
C774 C 0.86186 0.29029 0.3028 0.0
C775 C 0.85805 0.26757 0.3398 0.0
C776 C 0.86365 0.28872 0.23987 0.0
C777 C 0.84601 0.2373 0.11372 0.0
H778 H 0.89724 0.30527 0.02364 0.0
C779 C 0.86166 0.2371 0.85322 0.0
C780 C 0.86064 0.25904 0.82147 0.0
C781 C 0.86313 0.23764 0.91664 0.0
C782 C 0.88274 0.28613 0.04814 0.0
H783 H 0.85342 0.22547 0.33956 0.0
H784 H 0.85696 0.2229 0.22977 0.0
H785 H 0.89647 0.30703 0.13393 0.0
H786 H 0.861 0.29903 0.83142 0.0
H787 H 0.86367 0.29999 0.94152 0.0
H788 H 0.83234 0.21647 0.02756 0.0
C789 C 0.85809 0.24176 0.24934 0.0
C790 C 0.88221 0.28715 0.11139 0.0
C791 C 0.85619 0.24329 0.31237 0.0
C792 C 0.86166 0.28174 0.85439 0.0
C793 C 0.86339 0.2824 0.91756 0.0
C794 C 0.84667 0.23626 0.05038 0.0
C795 C 0.86184 0.26447 0.21225 0.0
C796 C 0.86354 0.26287 0.14503 0.0
C797 C 0.86396 0.2603 0.94949 0.0
C798 C 0.86475 0.26077 0.01686 0.0
H799 H 0.86335 0.30931 0.32237 0.0
H800 H 0.86605 0.30643 0.21282 0.0
H801 H 0.83112 0.21827 0.13798 0.0
H802 H 0.861 0.21936 0.82916 0.0
H803 H 0.86378 0.22042 0.93998 0.0
C804 C 0.76353 0.57641 0.52524 0.0
C805 C 0.77078 0.60183 0.49464 0.0
C806 C 0.76375 0.57564 0.58837 0.0
C807 C 0.75504 0.60853 0.72348 0.0
H808 H 0.7919 0.57199 0.80408 0.0
C809 C 0.75355 0.5971 0.98469 0.0
C810 C 0.75023 0.57141 0.00743 0.0
C811 C 0.75865 0.60356 0.92299 0.0
C812 C 0.78121 0.58197 0.78238 0.0
H813 H 0.78368 0.64638 0.50613 0.0
H814 H 0.78338 0.64483 0.61738 0.0
H815 H 0.79593 0.57834 0.69457 0.0
H816 H 0.74941 0.53225 0.98313 0.0
H817 H 0.75741 0.54303 0.87571 0.0
H818 H 0.73924 0.61111 0.81071 0.0
C819 C 0.77784 0.62562 0.59205 0.0
C820 C 0.7837 0.58576 0.71967 0.0
C821 C 0.77812 0.62652 0.52857 0.0
C822 C 0.75211 0.55234 0.9672 0.0
C823 C 0.75691 0.55865 0.90552 0.0
C824 C 0.75222 0.60441 0.78626 0.0
C825 C 0.77082 0.60017 0.62244 0.0
C826 C 0.77032 0.5987 0.68951 0.0
C827 C 0.76029 0.58435 0.88251 0.0
C828 C 0.76491 0.59066 0.81641 0.0
H829 H 0.75784 0.55704 0.50038 0.0
H830 H 0.75795 0.55568 0.61065 0.0
H831 H 0.74432 0.61836 0.70119 0.0
H832 H 0.75231 0.61231 0.01458 0.0
H833 H 0.76151 0.62371 0.90718 0.0
loop_
_geom_bond_atom_site_label_1
_geom_bond_atom_site_label_2
_geom_bond_distance
_geom_bond_site_symmetry_2
_ccdc_geom_bond_type
Zn0 N4 2.020 . S
Zn0 O8 2.019 1_554 S
Zn0 N10 2.119 . S
Zn0 O18 1.975 . S
C1 N2 1.334 . S
C1 N5 1.336 . S
N2 C1 1.334 . S
N2 C3 1.334 . S
C3 N2 1.334 . S
C3 N4 1.336 . S
N4 Zn0 2.020 . S
N4 C3 1.336 . S
N4 N5 1.354 . S
N5 C1 1.336 . S
N5 N4 1.354 . S
N5 Zn9 2.020 . S
C6 O7 1.244 . S
C6 O30 1.257 . S
O7 C6 1.244 . S
O8 Zn0 2.019 1_556 S
O8 C28 1.257 . S
Zn9 N5 2.020 . S
Zn9 O16 1.975 . S
Zn9 N25 2.119 . S
Zn9 O30 2.019 . S
N10 Zn0 2.119 . S
N10 C12 1.334 . S
N10 C13 1.328 . S
C11 C12 1.391 . S
C11 N14 1.329 . S
C11 H32 0.930 . S
C12 N10 1.334 . S
C12 C11 1.391 . S
C12 H19 0.930 . S
C13 N10 1.328 . S
C13 C15 1.392 . S
C13 H20 0.930 . S
N14 C11 1.329 . S
N14 C15 1.331 . S
C15 C13 1.392 . S
C15 N14 1.331 . S
O16 Zn9 1.975 . S
O16 C17 1.252 . S
C17 O16 1.252 . S
C17 O18 1.252 . S
O18 Zn0 1.975 . S
O18 C17 1.252 . S
H19 C12 0.930 . S
H20 C13 0.930 . S
C21 C22 1.392 . S
C21 N25 1.328 . S
C21 H27 0.930 . S
C22 C21 1.392 . S
C22 N26 1.331 . S
C23 C24 1.391 . S
C23 N26 1.329 . S
C23 H33 0.930 . S
C24 C23 1.391 . S
C24 N25 1.334 . S
C24 H31 0.930 . S
N25 Zn9 2.119 . S
N25 C21 1.328 . S
N25 C24 1.334 . S
N26 C22 1.331 . S
N26 C23 1.329 . S
H27 C21 0.930 . S
C28 O8 1.257 . S
C28 O29 1.244 . S
O29 C28 1.244 . S
O30 C6 1.257 . S
O30 Zn9 2.019 . S
H31 C24 0.930 . S
H32 C11 0.930 . S
H33 C23 0.930 . S
Zn34 N38 2.020 . S
Zn34 O42 2.019 . S
Zn34 N44 2.119 . S
Zn34 O52 1.975 . S
C35 N36 1.334 . S
C35 N39 1.336 . S
N36 C35 1.334 . S
N36 C37 1.334 . S
C37 N36 1.334 . S
C37 N38 1.336 . S
N38 Zn34 2.020 . S
N38 C37 1.336 . S
N38 N39 1.354 . S
N39 C35 1.336 . S
N39 N38 1.354 . S
N39 Zn43 2.020 . S
C40 O41 1.244 1_554 S
C40 O64 1.257 1_554 S
O41 C40 1.244 1_556 S
O42 Zn34 2.019 . S
O42 C62 1.257 . S
Zn43 N39 2.020 . S
Zn43 O50 1.975 . S
Zn43 N59 2.119 . S
Zn43 O64 2.019 . S
N44 Zn34 2.119 . S
N44 C46 1.334 . S
N44 C47 1.328 . S
C45 C46 1.391 . S
C45 N48 1.329 . S
C45 H66 0.930 . S
C46 N44 1.334 . S
C46 C45 1.391 . S
C46 H53 0.930 . S
C47 N44 1.328 . S
C47 C49 1.392 . S
C47 H54 0.930 . S
N48 C45 1.329 . S
N48 C49 1.331 . S
C49 C47 1.392 . S
C49 N48 1.331 . S
O50 Zn43 1.975 . S
O50 C51 1.252 . S
C51 O50 1.252 . S
C51 O52 1.252 . S
O52 Zn34 1.975 . S
O52 C51 1.252 . S
H53 C46 0.930 . S
H54 C47 0.930 . S
C55 C56 1.392 . S
C55 N59 1.328 . S
C55 H61 0.930 . S
C56 C55 1.392 . S
C56 N60 1.331 . S
C57 C58 1.391 . S
C57 N60 1.329 . S
C57 H67 0.930 . S
C58 C57 1.391 . S
C58 N59 1.334 . S
C58 H65 0.930 . S
N59 Zn43 2.119 . S
N59 C55 1.328 . S
N59 C58 1.334 . S
N60 C56 1.331 . S
N60 C57 1.329 . S
H61 C55 0.930 . S
C62 O42 1.257 . S
C62 O63 1.244 . S
O63 C62 1.244 . S
O64 C40 1.257 1_556 S
O64 Zn43 2.019 . S
H65 C58 0.930 . S
H66 C45 0.930 . S
H67 C57 0.930 . S
Zn68 N72 2.020 . S
Zn68 O76 2.019 . S
Zn68 N78 2.119 . S
Zn68 O86 1.975 . S
C69 N70 1.334 . S
C69 N73 1.336 . S
N70 C69 1.334 . S
N70 C71 1.334 . S
C71 N70 1.334 . S
C71 N72 1.336 . S
N72 Zn68 2.020 . S
N72 C71 1.336 . S
N72 N73 1.354 . S
N73 C69 1.336 . S
N73 N72 1.354 . S
N73 Zn77 2.020 . S
C74 O75 1.244 . S
C74 O98 1.257 . S
O75 C74 1.244 . S
O76 Zn68 2.019 . S
O76 C96 1.257 . S
Zn77 N73 2.020 . S
Zn77 O84 1.975 . S
Zn77 N93 2.119 . S
Zn77 O98 2.019 . S
N78 Zn68 2.119 . S
N78 C80 1.334 . S
N78 C81 1.328 . S
C79 C80 1.391 . S
C79 N82 1.329 . S
C79 H100 0.930 . S
C80 N78 1.334 . S
C80 C79 1.391 . S
C80 H87 0.930 . S
C81 N78 1.328 . S
C81 C83 1.392 . S
C81 H88 0.930 . S
N82 C79 1.329 . S
N82 C83 1.331 . S
C83 C81 1.392 . S
C83 N82 1.331 . S
O84 Zn77 1.975 . S
O84 C85 1.252 . S
C85 O84 1.252 . S
C85 O86 1.252 . S
O86 Zn68 1.975 . S
O86 C85 1.252 . S
H87 C80 0.930 . S
H88 C81 0.930 . S
C89 C90 1.392 . S
C89 N93 1.328 . S
C89 H95 0.930 . S
C90 C89 1.392 . S
C90 N94 1.331 . S
C91 C92 1.391 . S
C91 N94 1.329 . S
C91 H101 0.930 . S
C92 C91 1.391 . S
C92 N93 1.334 . S
C92 H99 0.930 . S
N93 Zn77 2.119 . S
N93 C89 1.328 . S
N93 C92 1.334 . S
N94 C90 1.331 . S
N94 C91 1.329 . S
H95 C89 0.930 . S
C96 O76 1.257 . S
C96 O97 1.244 . S
O97 C96 1.244 . S
O98 C74 1.257 . S
O98 Zn77 2.019 . S
H99 C92 0.930 . S
H100 C79 0.930 . S
H101 C91 0.930 . S
Zn102 N106 2.020 . S
Zn102 O110 2.019 . S
Zn102 N112 2.119 . S
Zn102 O120 1.975 . S
C103 N104 1.334 . S
C103 N107 1.336 . S
N104 C103 1.334 . S
N104 C105 1.334 . S
C105 N104 1.334 . S
C105 N106 1.336 . S
N106 Zn102 2.020 . S
N106 C105 1.336 . S
N106 N107 1.354 . S
N107 C103 1.336 . S
N107 N106 1.354 . S
N107 Zn111 2.020 . S
C108 O109 1.244 . S
C108 O132 1.257 . S
O109 C108 1.244 . S
O110 Zn102 2.019 . S
O110 C130 1.257 . S
Zn111 N107 2.020 . S
Zn111 O118 1.975 . S
Zn111 N127 2.119 . S
Zn111 O132 2.019 1_556 S
N112 Zn102 2.119 . S
N112 C114 1.334 . S
N112 C115 1.328 . S
C113 C114 1.391 . S
C113 N116 1.329 . S
C113 H134 0.930 . S
C114 N112 1.334 . S
C114 C113 1.391 . S
C114 H121 0.930 . S
C115 N112 1.328 . S
C115 C117 1.392 . S
C115 H122 0.930 . S
N116 C113 1.329 . S
N116 C117 1.331 . S
C117 C115 1.392 . S
C117 N116 1.331 . S
O118 Zn111 1.975 . S
O118 C119 1.252 . S
C119 O118 1.252 . S
C119 O120 1.252 . S
O120 Zn102 1.975 . S
O120 C119 1.252 . S
H121 C114 0.930 . S
H122 C115 0.930 . S
C123 C124 1.392 . S
C123 N127 1.328 . S
C123 H129 0.930 . S
C124 C123 1.392 . S
C124 N128 1.331 . S
C125 C126 1.391 . S
C125 N128 1.329 . S
C125 H135 0.930 . S
C126 C125 1.391 . S
C126 N127 1.334 . S
C126 H133 0.930 . S
N127 Zn111 2.119 . S
N127 C123 1.328 . S
N127 C126 1.334 . S
N128 C124 1.331 . S
N128 C125 1.329 . S
H129 C123 0.930 . S
C130 O110 1.257 . S
C130 O131 1.244 . S
O131 C130 1.244 . S
O132 C108 1.257 . S
O132 Zn111 2.019 1_554 S
H133 C126 0.930 . S
H134 C113 0.930 . S
H135 C125 0.930 . S
Zn136 N140 2.020 . S
Zn136 O144 2.019 . S
Zn136 N146 2.119 . S
Zn136 O154 1.975 . S
C137 N138 1.334 . S
C137 N141 1.336 . S
N138 C137 1.334 . S
N138 C139 1.334 . S
C139 N138 1.334 . S
C139 N140 1.336 . S
N140 Zn136 2.020 . S
N140 C139 1.336 . S
N140 N141 1.354 . S
N141 C137 1.336 . S
N141 N140 1.354 . S
N141 Zn145 2.020 . S
C142 O143 1.244 . S
C142 O166 1.257 . S
O143 C142 1.244 . S
O144 Zn136 2.019 . S
O144 C164 1.257 . S
Zn145 N141 2.020 . S
Zn145 O152 1.975 . S
Zn145 N161 2.119 . S
Zn145 O166 2.019 . S
N146 Zn136 2.119 . S
N146 C148 1.334 . S
N146 C149 1.328 . S
C147 C148 1.391 . S
C147 N150 1.329 . S
C147 H168 0.930 . S
C148 N146 1.334 . S
C148 C147 1.391 . S
C148 H155 0.930 . S
C149 N146 1.328 . S
C149 C151 1.392 . S
C149 H156 0.930 . S
N150 C147 1.329 . S
N150 C151 1.331 . S
C151 C149 1.392 . S
C151 N150 1.331 . S
O152 Zn145 1.975 . S
O152 C153 1.252 . S
C153 O152 1.252 . S
C153 O154 1.252 . S
O154 Zn136 1.975 . S
O154 C153 1.252 . S
H155 C148 0.930 . S
H156 C149 0.930 . S
C157 C158 1.392 . S
C157 N161 1.328 . S
C157 H163 0.930 . S
C158 C157 1.392 . S
C158 N162 1.331 . S
C159 C160 1.391 . S
C159 N162 1.329 . S
C159 H169 0.930 . S
C160 C159 1.391 . S
C160 N161 1.334 . S
C160 H167 0.930 . S
N161 Zn145 2.119 . S
N161 C157 1.328 . S
N161 C160 1.334 . S
N162 C158 1.331 . S
N162 C159 1.329 . S
H163 C157 0.930 . S
C164 O144 1.257 . S
C164 O165 1.244 . S
O165 C164 1.244 . S
O166 C142 1.257 . S
O166 Zn145 2.019 . S
H167 C160 0.930 . S
H168 C147 0.930 . S
H169 C159 0.930 . S
Zn170 N174 2.020 . S
Zn170 O178 2.019 . S
Zn170 N180 2.119 . S
Zn170 O188 1.975 . S
C171 N172 1.334 . S
C171 N175 1.336 . S
N172 C171 1.334 . S
N172 C173 1.334 . S
C173 N172 1.334 . S
C173 N174 1.336 . S
N174 Zn170 2.020 . S
N174 C173 1.336 . S
N174 N175 1.354 . S
N175 C171 1.336 . S
N175 N174 1.354 . S
N175 Zn179 2.020 . S
C176 O177 1.244 . S
C176 O200 1.257 . S
O177 C176 1.244 . S
O178 Zn170 2.019 . S
O178 C198 1.257 1_554 S
Zn179 N175 2.020 . S
Zn179 O186 1.975 . S
Zn179 N195 2.119 . S
Zn179 O200 2.019 . S
N180 Zn170 2.119 . S
N180 C182 1.334 . S
N180 C183 1.328 . S
C181 C182 1.391 . S
C181 N184 1.329 . S
C181 H202 0.930 . S
C182 N180 1.334 . S
C182 C181 1.391 . S
C182 H189 0.930 . S
C183 N180 1.328 . S
C183 C185 1.392 . S
C183 H190 0.930 . S
N184 C181 1.329 . S
N184 C185 1.331 . S
C185 C183 1.392 . S
C185 N184 1.331 . S
O186 Zn179 1.975 . S
O186 C187 1.252 . S
C187 O186 1.252 . S
C187 O188 1.252 . S
O188 Zn170 1.975 . S
O188 C187 1.252 . S
H189 C182 0.930 . S
H190 C183 0.930 . S
C191 C192 1.392 . S
C191 N195 1.328 . S
C191 H197 0.930 . S
C192 C191 1.392 . S
C192 N196 1.331 . S
C193 C194 1.391 . S
C193 N196 1.329 . S
C193 H203 0.930 . S
C194 C193 1.391 . S
C194 N195 1.334 . S
C194 H201 0.930 . S
N195 Zn179 2.119 . S
N195 C191 1.328 . S
N195 C194 1.334 . S
N196 C192 1.331 . S
N196 C193 1.329 . S
H197 C191 0.930 . S
C198 O178 1.257 1_556 S
C198 O199 1.244 1_556 S
O199 C198 1.244 1_554 S
O200 C176 1.257 . S
O200 Zn179 2.019 . S
H201 C194 0.930 . S
H202 C181 0.930 . S
H203 C193 0.930 . S
C204 C205 1.349 . S
C204 C206 1.327 1_554 S
C204 H229 0.950 . S
C205 C204 1.349 . S
C205 C221 1.349 1_554 S
C206 C204 1.327 1_556 S
C206 C225 1.429 . S
C206 H230 0.951 . S
C207 C224 1.574 . S
C207 C226 1.368 . S
C207 H231 0.949 . S
H208 C212 0.949 . S
C209 C210 1.349 . S
C209 C211 1.327 . S
C209 H232 0.950 . S
C210 C209 1.349 . S
C210 C222 1.349 . S
C211 C209 1.327 . S
C211 C227 1.429 . S
C211 H233 0.950 . S
C212 H208 0.949 . S
C212 C220 1.574 . S
C212 C228 1.368 . S
H213 C221 0.950 . S
H214 C219 0.950 . S
H215 C220 0.949 . S
H216 C222 0.950 . S
H217 C223 0.950 . S
H218 C224 0.949 . S
C219 H214 0.950 . S
C219 C221 1.327 . S
C219 C225 1.429 . S
C220 C212 1.574 . S
C220 H215 0.949 . S
C220 C226 1.368 1_655 S
C221 C205 1.349 1_556 S
C221 H213 0.950 . S
C221 C219 1.327 . S
C222 C210 1.349 . S
C222 H216 0.950 . S
C222 C223 1.327 . S
C223 H217 0.950 . S
C223 C222 1.327 . S
C223 C227 1.429 . S
C224 C207 1.574 . S
C224 H218 0.949 . S
C224 C228 1.368 1_455 S
C225 C206 1.429 . S
C225 C219 1.429 . S
C225 C226 1.523 . S
C226 C207 1.368 . S
C226 C220 1.368 1_455 S
C226 C225 1.523 . S
C227 C211 1.429 . S
C227 C223 1.429 . S
C227 C228 1.523 . S
C228 C212 1.368 . S
C228 C224 1.368 1_655 S
C228 C227 1.523 . S
H229 C204 0.950 . S
H230 C206 0.951 . S
H231 C207 0.949 . S
H232 C209 0.950 . S
H233 C211 0.950 . S
C234 C235 1.349 . S
C234 C236 1.327 . S
C234 H259 0.950 . S
C235 C234 1.349 . S
C235 C251 1.349 . S
C236 C234 1.327 . S
C236 C255 1.429 . S
C236 H260 0.950 . S
C237 C254 1.574 . S
C237 C256 1.368 . S
C237 H261 0.949 . S
H238 C242 0.949 . S
C239 C240 1.349 . S
C239 C241 1.327 . S
C239 H262 0.950 . S
C240 C239 1.349 . S
C240 C252 1.349 . S
C241 C239 1.327 . S
C241 C257 1.429 . S
C241 H263 0.950 . S
C242 H238 0.949 . S
C242 C250 1.574 . S
C242 C258 1.368 . S
H243 C251 0.950 . S
H244 C249 0.950 . S
H245 C250 0.949 . S
H246 C252 0.950 . S
H247 C253 0.950 . S
H248 C254 0.949 . S
C249 H244 0.950 . S
C249 C251 1.327 . S
C249 C255 1.429 . S
C250 C242 1.574 . S
C250 H245 0.949 . S
C250 C256 1.368 . S
C251 C235 1.349 . S
C251 H243 0.950 . S
C251 C249 1.327 . S
C252 C240 1.349 . S
C252 H246 0.950 . S
C252 C253 1.327 . S
C253 H247 0.950 . S
C253 C252 1.327 . S
C253 C257 1.429 . S
C254 C237 1.574 . S
C254 H248 0.949 . S
C254 C258 1.368 . S
C255 C236 1.429 . S
C255 C249 1.429 . S
C255 C256 1.523 . S
C256 C237 1.368 . S
C256 C250 1.368 . S
C256 C255 1.523 . S
C257 C241 1.429 . S
C257 C253 1.429 . S
C257 C258 1.523 . S
C258 C242 1.368 . S
C258 C254 1.368 . S
C258 C257 1.523 . S
H259 C234 0.950 . S
H260 C236 0.950 . S
H261 C237 0.949 . S
H262 C239 0.950 . S
H263 C241 0.950 . S
C264 C265 1.349 . S
C264 C266 1.327 . S
C264 H289 0.950 . S
C265 C264 1.349 . S
C265 C281 1.349 . S
C266 C264 1.327 . S
C266 C285 1.429 . S
C266 H290 0.950 . S
C267 C284 1.574 1_565 S
C267 C286 1.368 . S
C267 H291 0.949 . S
H268 C272 0.949 . S
C269 C270 1.349 . S
C269 C271 1.327 1_556 S
C269 H292 0.950 . S
C270 C269 1.349 . S
C270 C282 1.349 1_556 S
C271 C269 1.327 1_554 S
C271 C287 1.429 . S
C271 H293 0.950 . S
C272 H268 0.949 . S
C272 C280 1.574 1_545 S
C272 C288 1.368 . S
H273 C281 0.950 . S
H274 C279 0.950 . S
H275 C280 0.949 . S
H276 C282 0.950 . S
H277 C283 0.950 . S
H278 C284 0.949 . S
C279 H274 0.950 . S
C279 C281 1.327 . S
C279 C285 1.429 . S
C280 C272 1.574 1_565 S
C280 H275 0.949 . S
C280 C286 1.368 . S
C281 C265 1.349 . S
C281 H273 0.950 . S
C281 C279 1.327 . S
C282 C270 1.349 1_554 S
C282 H276 0.950 . S
C282 C283 1.327 . S
C283 H277 0.950 . S
C283 C282 1.327 . S
C283 C287 1.429 . S
C284 C267 1.574 1_545 S
C284 H278 0.949 . S
C284 C288 1.368 . S
C285 C266 1.429 . S
C285 C279 1.429 . S
C285 C286 1.523 . S
C286 C267 1.368 . S
C286 C280 1.368 . S
C286 C285 1.523 . S
C287 C271 1.429 . S
C287 C283 1.429 . S
C287 C288 1.523 . S
C288 C272 1.368 . S
C288 C284 1.368 . S
C288 C287 1.523 . S
H289 C264 0.950 . S
H290 C266 0.950 . S
H291 C267 0.949 . S
H292 C269 0.950 . S
H293 C271 0.950 . S
C294 C295 1.349 . S
C294 C296 1.327 . S
C294 H319 0.950 . S
C295 C294 1.349 . S
C295 C311 1.349 . S
C296 C294 1.327 . S
C296 C315 1.429 . S
C296 H320 0.950 . S
C297 C314 1.574 . S
C297 C316 1.368 . S
C297 H321 0.949 . S
H298 C302 0.949 . S
C299 C300 1.349 . S
C299 C301 1.327 . S
C299 H322 0.950 . S
C300 C299 1.349 . S
C300 C312 1.349 . S
C301 C299 1.327 . S
C301 C317 1.429 . S
C301 H323 0.950 . S
C302 H298 0.949 . S
C302 C310 1.574 . S
C302 C318 1.368 . S
H303 C311 0.950 . S
H304 C309 0.950 . S
H305 C310 0.949 . S
H306 C312 0.950 . S
H307 C313 0.950 . S
H308 C314 0.949 . S
C309 H304 0.950 . S
C309 C311 1.327 . S
C309 C315 1.429 . S
C310 C302 1.574 . S
C310 H305 0.949 . S
C310 C316 1.368 . S
C311 C295 1.349 . S
C311 H303 0.950 . S
C311 C309 1.327 . S
C312 C300 1.349 . S
C312 H306 0.950 . S
C312 C313 1.327 . S
C313 H307 0.950 . S
C313 C312 1.327 . S
C313 C317 1.429 . S
C314 C297 1.574 . S
C314 H308 0.949 . S
C314 C318 1.368 . S
C315 C296 1.429 . S
C315 C309 1.429 . S
C315 C316 1.523 . S
C316 C297 1.368 . S
C316 C310 1.368 . S
C316 C315 1.523 . S
C317 C301 1.429 . S
C317 C313 1.429 . S
C317 C318 1.523 . S
C318 C302 1.368 . S
C318 C314 1.368 . S
C318 C317 1.523 . S
H319 C294 0.950 . S
H320 C296 0.950 . S
H321 C297 0.949 . S
H322 C299 0.950 . S
H323 C301 0.950 . S
C324 C325 1.349 . S
C324 C326 1.327 . S
C324 H349 0.950 . S
C325 C324 1.349 . S
C325 C341 1.349 . S
C326 C324 1.327 . S
C326 C345 1.429 . S
C326 H350 0.950 . S
C327 C344 1.574 . S
C327 C346 1.368 . S
C327 H351 0.949 . S
H328 C332 0.949 . S
C329 C330 1.349 1_554 S
C329 C331 1.327 . S
C329 H352 0.950 . S
C330 C329 1.349 1_556 S
C330 C342 1.349 . S
C331 C329 1.327 . S
C331 C347 1.429 1_554 S
C331 H353 0.950 . S
C332 H328 0.949 . S
C332 C340 1.576 . S
C332 C348 1.368 1_556 S
H333 C341 0.950 . S
H334 C339 0.950 . S
H335 C340 0.952 . S
H336 C342 0.950 . S
H337 C343 0.950 . S
H338 C344 0.949 . S
C339 H334 0.950 . S
C339 C341 1.327 . S
C339 C345 1.429 . S
C340 C332 1.576 . S
C340 H335 0.952 . S
C340 C346 1.363 1_556 S
C341 C325 1.349 . S
C341 H333 0.950 . S
C341 C339 1.327 . S
C342 C330 1.349 . S
C342 H336 0.950 . S
C342 C343 1.327 . S
C343 H337 0.950 . S
C343 C342 1.327 . S
C343 C347 1.429 . S
C344 C327 1.574 . S
C344 H338 0.949 . S
C344 C348 1.368 . S
C345 C326 1.429 . S
C345 C339 1.429 . S
C345 C346 1.523 . S
C346 C327 1.368 . S
C346 C340 1.363 1_554 S
C346 C345 1.523 . S
C347 C331 1.429 1_556 S
C347 C343 1.429 . S
C347 C348 1.523 1_556 S
C348 C332 1.368 1_554 S
C348 C344 1.368 . S
C348 C347 1.523 1_554 S
H349 C324 0.950 . S
H350 C326 0.950 . S
H351 C327 0.949 . S
H352 C329 0.950 . S
H353 C331 0.950 . S
C354 C355 1.349 . S
C354 C356 1.327 . S
C354 H379 0.950 . S
C355 C354 1.349 . S
C355 C371 1.349 . S
C356 C354 1.327 . S
C356 C375 1.429 . S
C356 H380 0.950 . S
C357 C374 1.574 . S
C357 C376 1.368 . S
C357 H381 0.949 . S
H358 C362 0.949 . S
C359 C360 1.349 . S
C359 C361 1.327 . S
C359 H382 0.950 . S
C360 C359 1.349 . S
C360 C372 1.349 . S
C361 C359 1.327 . S
C361 C377 1.429 . S
C361 H383 0.950 . S
C362 H358 0.949 . S
C362 C370 1.574 . S
C362 C378 1.368 . S
H363 C371 0.950 . S
H364 C369 0.950 . S
H365 C370 0.949 . S
H366 C372 0.950 . S
H367 C373 0.950 . S
H368 C374 0.949 . S
C369 H364 0.950 . S
C369 C371 1.327 . S
C369 C375 1.429 . S
C370 C362 1.574 . S
C370 H365 0.949 . S
C370 C376 1.368 . S
C371 C355 1.349 . S
C371 H363 0.950 . S
C371 C369 1.327 . S
C372 C360 1.349 . S
C372 H366 0.950 . S
C372 C373 1.327 . S
C373 H367 0.950 . S
C373 C372 1.327 . S
C373 C377 1.429 . S
C374 C357 1.574 . S
C374 H368 0.949 . S
C374 C378 1.368 . S
C375 C356 1.429 . S
C375 C369 1.429 . S
C375 C376 1.523 . S
C376 C357 1.368 . S
C376 C370 1.368 . S
C376 C375 1.523 . S
C377 C361 1.429 . S
C377 C373 1.429 . S
C377 C378 1.523 . S
C378 C362 1.368 . S
C378 C374 1.368 . S
C378 C377 1.523 . S
H379 C354 0.950 . S
H380 C356 0.950 . S
H381 C357 0.949 . S
H382 C359 0.950 . S
H383 C361 0.950 . S
C384 C385 1.349 . S
C384 C386 1.327 . S
C384 H409 0.950 . S
C385 C384 1.349 . S
C385 C401 1.349 . S
C386 C384 1.327 . S
C386 C405 1.429 . S
C386 H410 0.950 . S
C387 C404 1.574 . S
C387 C406 1.368 . S
C387 H411 0.949 . S
H388 C392 0.949 . S
C389 C390 1.349 . S
C389 C391 1.327 . S
C389 H412 0.950 . S
C390 C389 1.349 . S
C390 C402 1.349 . S
C391 C389 1.327 . S
C391 C407 1.429 . S
C391 H413 0.950 . S
C392 H388 0.949 . S
C392 C400 1.574 . S
C392 C408 1.368 . S
H393 C401 0.950 . S
H394 C399 0.950 . S
H395 C400 0.949 . S
H396 C402 0.950 . S
H397 C403 0.950 . S
H398 C404 0.949 . S
C399 H394 0.950 . S
C399 C401 1.327 . S
C399 C405 1.429 . S
C400 C392 1.574 . S
C400 H395 0.949 . S
C400 C406 1.368 . S
C401 C385 1.349 . S
C401 H393 0.950 . S
C401 C399 1.327 . S
C402 C390 1.349 . S
C402 H396 0.950 . S
C402 C403 1.327 . S
C403 H397 0.950 . S
C403 C402 1.327 . S
C403 C407 1.429 . S
C404 C387 1.574 . S
C404 H398 0.949 . S
C404 C408 1.368 . S
C405 C386 1.429 . S
C405 C399 1.429 . S
C405 C406 1.523 . S
C406 C387 1.368 . S
C406 C400 1.368 . S
C406 C405 1.523 . S
C407 C391 1.429 . S
C407 C403 1.429 . S
C407 C408 1.523 . S
C408 C392 1.368 . S
C408 C404 1.368 . S
C408 C407 1.523 . S
H409 C384 0.950 . S
H410 C386 0.950 . S
H411 C387 0.949 . S
H412 C389 0.950 . S
H413 C391 0.950 . S
C414 C415 1.349 . S
C414 C416 1.327 . S
C414 H439 0.950 . S
C415 C414 1.349 . S
C415 C431 1.349 . S
C416 C414 1.327 . S
C416 C435 1.429 . S
C416 H440 0.950 . S
C417 C434 1.574 . S
C417 C436 1.368 . S
C417 H441 0.949 . S
H418 C422 0.949 . S
C419 C420 1.349 . S
C419 C421 1.327 . S
C419 H442 0.950 . S
C420 C419 1.349 . S
C420 C432 1.349 . S
C421 C419 1.327 . S
C421 C437 1.429 . S
C421 H443 0.950 . S
C422 H418 0.949 . S
C422 C430 1.574 . S
C422 C438 1.368 . S
H423 C431 0.950 . S
H424 C429 0.950 . S
H425 C430 0.949 . S
H426 C432 0.950 . S
H427 C433 0.950 . S
H428 C434 0.949 . S
C429 H424 0.950 . S
C429 C431 1.327 . S
C429 C435 1.429 . S
C430 C422 1.574 . S
C430 H425 0.949 . S
C430 C436 1.368 . S
C431 C415 1.349 . S
C431 H423 0.950 . S
C431 C429 1.327 . S
C432 C420 1.349 . S
C432 H426 0.950 . S
C432 C433 1.327 . S
C433 H427 0.950 . S
C433 C432 1.327 . S
C433 C437 1.429 . S
C434 C417 1.574 . S
C434 H428 0.949 . S
C434 C438 1.368 . S
C435 C416 1.429 . S
C435 C429 1.429 . S
C435 C436 1.523 . S
C436 C417 1.368 . S
C436 C430 1.368 . S
C436 C435 1.523 . S
C437 C421 1.429 . S
C437 C433 1.429 . S
C437 C438 1.523 . S
C438 C422 1.368 . S
C438 C434 1.368 . S
C438 C437 1.523 . S
H439 C414 0.950 . S
H440 C416 0.950 . S
H441 C417 0.949 . S
H442 C419 0.950 . S
H443 C421 0.950 . S
C444 C445 1.349 . S
C444 C446 1.327 . S
C444 H469 0.950 . S
C445 C444 1.349 . S
C445 C461 1.349 . S
C446 C444 1.327 . S
C446 C465 1.429 . S
C446 H470 0.950 . S
C447 C464 1.574 . S
C447 C466 1.368 . S
C447 H471 0.949 . S
H448 C452 0.949 . S
C449 C450 1.346 1_556 S
C449 C451 1.328 . S
C449 H472 0.951 . S
C450 C449 1.346 1_554 S
C450 C462 1.349 . S
C451 C449 1.328 . S
C451 C467 1.429 1_556 S
C451 H473 0.950 . S
C452 H448 0.949 . S
C452 C460 1.574 1_554 S
C452 C468 1.368 1_554 S
H453 C461 0.950 . S
H454 C459 0.950 . S
H455 C460 0.949 1_554 S
H456 C462 0.950 . S
H457 C463 0.950 . S
H458 C464 0.949 . S
C459 H454 0.950 . S
C459 C461 1.327 . S
C459 C465 1.429 . S
C460 C452 1.574 1_556 S
C460 H455 0.949 1_556 S
C460 C466 1.368 . S
C461 C445 1.349 . S
C461 H453 0.950 . S
C461 C459 1.327 . S
C462 C450 1.349 . S
C462 H456 0.950 . S
C462 C463 1.327 . S
C463 H457 0.950 . S
C463 C462 1.327 . S
C463 C467 1.429 . S
C464 C447 1.574 . S
C464 H458 0.949 . S
C464 C468 1.368 . S
C465 C446 1.429 . S
C465 C459 1.429 . S
C465 C466 1.523 . S
C466 C447 1.368 . S
C466 C460 1.368 . S
C466 C465 1.523 . S
C467 C451 1.429 1_554 S
C467 C463 1.429 . S
C467 C468 1.523 1_554 S
C468 C452 1.368 1_556 S
C468 C464 1.368 . S
C468 C467 1.523 1_556 S
H469 C444 0.950 . S
H470 C446 0.950 . S
H471 C447 0.949 . S
H472 C449 0.951 . S
H473 C451 0.950 . S
C474 C475 1.349 . S
C474 C476 1.327 . S
C474 H499 0.950 . S
C475 C474 1.349 . S
C475 C491 1.349 . S
C476 C474 1.327 . S
C476 C495 1.429 . S
C476 H500 0.950 . S
C477 C494 1.574 1_655 S
C477 C496 1.368 . S
C477 H501 0.949 . S
H478 C482 0.949 . S
C479 C480 1.349 . S
C479 C481 1.327 . S
C479 H502 0.950 . S
C480 C479 1.349 . S
C480 C492 1.349 . S
C481 C479 1.327 . S
C481 C497 1.429 . S
C481 H503 0.950 . S
C482 H478 0.949 . S
C482 C490 1.574 1_455 S
C482 C498 1.368 . S
H483 C491 0.950 . S
H484 C489 0.950 . S
H485 C490 0.949 . S
H486 C492 0.950 . S
H487 C493 0.950 . S
H488 C494 0.949 . S
C489 H484 0.950 . S
C489 C491 1.327 . S
C489 C495 1.429 . S
C490 C482 1.574 1_655 S
C490 H485 0.949 . S
C490 C496 1.368 . S
C491 C475 1.349 . S
C491 H483 0.950 . S
C491 C489 1.327 . S
C492 C480 1.349 . S
C492 H486 0.950 . S
C492 C493 1.327 . S
C493 H487 0.950 . S
C493 C492 1.327 . S
C493 C497 1.429 . S
C494 C477 1.574 1_455 S
C494 H488 0.949 . S
C494 C498 1.368 . S
C495 C476 1.429 . S
C495 C489 1.429 . S
C495 C496 1.523 . S
C496 C477 1.368 . S
C496 C490 1.368 . S
C496 C495 1.523 . S
C497 C481 1.429 . S
C497 C493 1.429 . S
C497 C498 1.523 . S
C498 C482 1.368 . S
C498 C494 1.368 . S
C498 C497 1.523 . S
H499 C474 0.950 . S
H500 C476 0.950 . S
H501 C477 0.949 . S
H502 C479 0.950 . S
H503 C481 0.950 . S
C504 C505 1.349 . S
C504 C506 1.327 . S
C504 H529 0.950 . S
C505 C504 1.349 . S
C505 C521 1.349 . S
C506 C504 1.327 . S
C506 C525 1.429 . S
C506 H530 0.950 . S
C507 C524 1.574 1_554 S
C507 C526 1.368 . S
C507 H531 0.949 . S
H508 C512 0.949 . S
C509 C510 1.349 . S
C509 C511 1.327 . S
C509 H532 0.950 . S
C510 C509 1.349 . S
C510 C522 1.349 . S
C511 C509 1.327 . S
C511 C527 1.429 . S
C511 H533 0.950 . S
C512 H508 0.949 . S
C512 C520 1.574 1_556 S
C512 C528 1.368 . S
H513 C521 0.950 . S
H514 C519 0.950 . S
H515 C520 0.949 . S
H516 C522 0.950 . S
H517 C523 0.950 . S
H518 C524 0.949 . S
C519 H514 0.950 . S
C519 C521 1.327 . S
C519 C525 1.429 . S
C520 C512 1.574 1_554 S
C520 H515 0.949 . S
C520 C526 1.368 . S
C521 C505 1.349 . S
C521 H513 0.950 . S
C521 C519 1.327 . S
C522 C510 1.349 . S
C522 H516 0.950 . S
C522 C523 1.327 . S
C523 H517 0.950 . S
C523 C522 1.327 . S
C523 C527 1.429 . S
C524 C507 1.574 1_556 S
C524 H518 0.949 . S
C524 C528 1.368 . S
C525 C506 1.429 . S
C525 C519 1.429 . S
C525 C526 1.523 . S
C526 C507 1.368 . S
C526 C520 1.368 . S
C526 C525 1.523 . S
C527 C511 1.429 . S
C527 C523 1.429 . S
C527 C528 1.523 . S
C528 C512 1.368 . S
C528 C524 1.368 . S
C528 C527 1.523 . S
H529 C504 0.950 . S
H530 C506 0.950 . S
H531 C507 0.949 . S
H532 C509 0.950 . S
H533 C511 0.950 . S
C534 C535 1.349 . S
C534 C536 1.327 . S
C534 H559 0.950 . S
C535 C534 1.349 . S
C535 C551 1.349 . S
C536 C534 1.327 . S
C536 C555 1.429 . S
C536 H560 0.950 . S
C537 C554 1.574 1_545 S
C537 C556 1.368 . S
C537 H561 0.949 . S
H538 C542 0.949 . S
C539 C540 1.349 . S
C539 C541 1.327 . S
C539 H562 0.950 . S
C540 C539 1.349 . S
C540 C552 1.349 . S
C541 C539 1.327 . S
C541 C557 1.429 . S
C541 H563 0.950 . S
C542 H538 0.949 . S
C542 C550 1.574 1_565 S
C542 C558 1.368 . S
H543 C551 0.950 . S
H544 C549 0.950 . S
H545 C550 0.949 . S
H546 C552 0.950 . S
H547 C553 0.950 . S
H548 C554 0.949 . S
C549 H544 0.950 . S
C549 C551 1.327 . S
C549 C555 1.429 . S
C550 C542 1.574 1_545 S
C550 H545 0.949 . S
C550 C556 1.368 . S
C551 C535 1.349 . S
C551 H543 0.950 . S
C551 C549 1.327 . S
C552 C540 1.349 . S
C552 H546 0.950 . S
C552 C553 1.327 . S
C553 H547 0.950 . S
C553 C552 1.327 . S
C553 C557 1.429 . S
C554 C537 1.574 1_565 S
C554 H548 0.949 . S
C554 C558 1.368 . S
C555 C536 1.429 . S
C555 C549 1.429 . S
C555 C556 1.523 . S
C556 C537 1.368 . S
C556 C550 1.368 . S
C556 C555 1.523 . S
C557 C541 1.429 . S
C557 C553 1.429 . S
C557 C558 1.523 . S
C558 C542 1.368 . S
C558 C554 1.368 . S
C558 C557 1.523 . S
H559 C534 0.950 . S
H560 C536 0.950 . S
H561 C537 0.949 . S
H562 C539 0.950 . S
H563 C541 0.950 . S
C564 C565 1.349 . S
C564 C566 1.327 . S
C564 H589 0.950 . S
C565 C564 1.349 . S
C565 C581 1.349 1_554 S
C566 C564 1.327 . S
C566 C585 1.429 . S
C566 H590 0.950 . S
C567 C584 1.574 . S
C567 C586 1.368 1_556 S
C567 H591 0.949 . S
H568 C572 0.949 . S
C569 C570 1.349 . S
C569 C571 1.327 . S
C569 H592 0.950 . S
C570 C569 1.349 . S
C570 C582 1.349 1_556 S
C571 C569 1.327 . S
C571 C587 1.429 . S
C571 H593 0.950 . S
C572 H568 0.949 . S
C572 C580 1.574 . S
C572 C588 1.368 1_554 S
H573 C581 0.950 . S
H574 C579 0.950 . S
H575 C580 0.949 . S
H576 C582 0.950 . S
H577 C583 0.950 . S
H578 C584 0.949 . S
C579 H574 0.950 . S
C579 C581 1.327 . S
C579 C585 1.429 1_556 S
C580 C572 1.574 . S
C580 H575 0.949 . S
C580 C586 1.368 . S
C581 C565 1.349 1_556 S
C581 H573 0.950 . S
C581 C579 1.327 . S
C582 C570 1.349 1_554 S
C582 H576 0.950 . S
C582 C583 1.327 . S
C583 H577 0.950 . S
C583 C582 1.327 . S
C583 C587 1.429 1_554 S
C584 C567 1.574 . S
C584 H578 0.949 . S
C584 C588 1.368 . S
C585 C566 1.429 . S
C585 C579 1.429 1_554 S
C585 C586 1.523 . S
C586 C567 1.368 1_554 S
C586 C580 1.368 . S
C586 C585 1.523 . S
C587 C571 1.429 . S
C587 C583 1.429 1_556 S
C587 C588 1.523 . S
C588 C572 1.368 1_556 S
C588 C584 1.368 . S
C588 C587 1.523 . S
H589 C564 0.950 . S
H590 C566 0.950 . S
H591 C567 0.949 . S
H592 C569 0.950 . S
H593 C571 0.950 . S
C594 C595 1.349 . S
C594 C596 1.327 . S
C594 H619 0.950 . S
C595 C594 1.349 . S
C595 C611 1.349 . S
C596 C594 1.327 . S
C596 C615 1.429 . S
C596 H620 0.950 . S
C597 C614 1.574 1_565 S
C597 C616 1.368 . S
C597 H621 0.949 . S
H598 C602 0.949 . S
C599 C600 1.349 . S
C599 C601 1.327 . S
C599 H622 0.950 . S
C600 C599 1.349 . S
C600 C612 1.349 . S
C601 C599 1.327 . S
C601 C617 1.429 . S
C601 H623 0.950 . S
C602 H598 0.949 . S
C602 C610 1.574 1_545 S
C602 C618 1.368 . S
H603 C611 0.950 . S
H604 C609 0.950 . S
H605 C610 0.949 . S
H606 C612 0.950 . S
H607 C613 0.950 . S
H608 C614 0.949 . S
C609 H604 0.950 . S
C609 C611 1.327 . S
C609 C615 1.429 . S
C610 C602 1.574 1_565 S
C610 H605 0.949 . S
C610 C616 1.368 . S
C611 C595 1.349 . S
C611 H603 0.950 . S
C611 C609 1.327 . S
C612 C600 1.349 . S
C612 H606 0.950 . S
C612 C613 1.327 . S
C613 H607 0.950 . S
C613 C612 1.327 . S
C613 C617 1.429 . S
C614 C597 1.574 1_545 S
C614 H608 0.949 . S
C614 C618 1.368 . S
C615 C596 1.429 . S
C615 C609 1.429 . S
C615 C616 1.523 . S
C616 C597 1.368 . S
C616 C610 1.368 . S
C616 C615 1.523 . S
C617 C601 1.429 . S
C617 C613 1.429 . S
C617 C618 1.523 . S
C618 C602 1.368 . S
C618 C614 1.368 . S
C618 C617 1.523 . S
H619 C594 0.950 . S
H620 C596 0.950 . S
H621 C597 0.949 . S
H622 C599 0.950 . S
H623 C601 0.950 . S
C624 C625 1.349 . S
C624 C626 1.327 . S
C624 H649 0.950 . S
C625 C624 1.349 . S
C625 C641 1.349 . S
C626 C624 1.327 . S
C626 C645 1.429 . S
C626 H650 0.950 . S
C627 C644 1.574 1_655 S
C627 C646 1.368 . S
C627 H651 0.949 . S
H628 C632 0.949 . S
C629 C630 1.349 . S
C629 C631 1.327 . S
C629 H652 0.950 . S
C630 C629 1.349 . S
C630 C642 1.349 . S
C631 C629 1.327 . S
C631 C647 1.429 . S
C631 H653 0.950 . S
C632 H628 0.949 . S
C632 C640 1.574 1_455 S
C632 C648 1.368 . S
H633 C641 0.950 . S
H634 C639 0.950 . S
H635 C640 0.949 . S
H636 C642 0.950 . S
H637 C643 0.950 . S
H638 C644 0.949 . S
C639 H634 0.950 . S
C639 C641 1.327 . S
C639 C645 1.429 . S
C640 C632 1.574 1_655 S
C640 H635 0.949 . S
C640 C646 1.368 . S
C641 C625 1.349 . S
C641 H633 0.950 . S
C641 C639 1.327 . S
C642 C630 1.349 . S
C642 H636 0.950 . S
C642 C643 1.327 . S
C643 H637 0.950 . S
C643 C642 1.327 . S
C643 C647 1.429 . S
C644 C627 1.574 1_455 S
C644 H638 0.949 . S
C644 C648 1.368 . S
C645 C626 1.429 . S
C645 C639 1.429 . S
C645 C646 1.523 . S
C646 C627 1.368 . S
C646 C640 1.368 . S
C646 C645 1.523 . S
C647 C631 1.429 . S
C647 C643 1.429 . S
C647 C648 1.523 . S
C648 C632 1.368 . S
C648 C644 1.368 . S
C648 C647 1.523 . S
H649 C624 0.950 . S
H650 C626 0.950 . S
H651 C627 0.949 . S
H652 C629 0.950 . S
H653 C631 0.950 . S
C654 C655 1.349 . S
C654 C656 1.327 . S
C654 H679 0.950 . S
C655 C654 1.349 . S
C655 C671 1.349 . S
C656 C654 1.327 . S
C656 C675 1.429 . S
C656 H680 0.950 . S
C657 C674 1.574 . S
C657 C676 1.368 . S
C657 H681 0.949 . S
H658 C662 0.949 . S
C659 C660 1.349 . S
C659 C661 1.327 . S
C659 H682 0.950 . S
C660 C659 1.349 . S
C660 C672 1.349 . S
C661 C659 1.327 . S
C661 C677 1.429 . S
C661 H683 0.950 . S
C662 H658 0.949 . S
C662 C670 1.574 . S
C662 C678 1.368 . S
H663 C671 0.950 . S
H664 C669 0.950 . S
H665 C670 0.949 . S
H666 C672 0.950 . S
H667 C673 0.950 . S
H668 C674 0.949 . S
C669 H664 0.950 . S
C669 C671 1.327 . S
C669 C675 1.429 . S
C670 C662 1.574 . S
C670 H665 0.949 . S
C670 C676 1.368 . S
C671 C655 1.349 . S
C671 H663 0.950 . S
C671 C669 1.327 . S
C672 C660 1.349 . S
C672 H666 0.950 . S
C672 C673 1.327 . S
C673 H667 0.950 . S
C673 C672 1.327 . S
C673 C677 1.429 . S
C674 C657 1.574 . S
C674 H668 0.949 . S
C674 C678 1.368 . S
C675 C656 1.429 . S
C675 C669 1.429 . S
C675 C676 1.523 . S
C676 C657 1.368 . S
C676 C670 1.368 . S
C676 C675 1.523 . S
C677 C661 1.429 . S
C677 C673 1.429 . S
C677 C678 1.523 . S
C678 C662 1.368 . S
C678 C674 1.368 . S
C678 C677 1.523 . S
H679 C654 0.950 . S
H680 C656 0.950 . S
H681 C657 0.949 . S
H682 C659 0.950 . S
H683 C661 0.950 . S
C684 C685 1.349 . S
C684 C686 1.327 . S
C684 H709 0.950 . S
C685 C684 1.349 . S
C685 C701 1.349 . S
C686 C684 1.327 . S
C686 C705 1.429 . S
C686 H710 0.950 . S
C687 C704 1.574 . S
C687 C706 1.368 . S
C687 H711 0.949 . S
H688 C692 0.949 . S
C689 C690 1.349 . S
C689 C691 1.327 . S
C689 H712 0.950 . S
C690 C689 1.349 . S
C690 C702 1.349 . S
C691 C689 1.327 . S
C691 C707 1.429 . S
C691 H713 0.950 . S
C692 H688 0.949 . S
C692 C700 1.574 . S
C692 C708 1.368 . S
H693 C701 0.950 . S
H694 C699 0.950 . S
H695 C700 0.949 . S
H696 C702 0.950 . S
H697 C703 0.950 . S
H698 C704 0.949 . S
C699 H694 0.950 . S
C699 C701 1.327 . S
C699 C705 1.429 . S
C700 C692 1.574 . S
C700 H695 0.949 . S
C700 C706 1.368 . S
C701 C685 1.349 . S
C701 H693 0.950 . S
C701 C699 1.327 . S
C702 C690 1.349 . S
C702 H696 0.950 . S
C702 C703 1.327 . S
C703 H697 0.950 . S
C703 C702 1.327 . S
C703 C707 1.429 . S
C704 C687 1.574 . S
C704 H698 0.949 . S
C704 C708 1.368 . S
C705 C686 1.429 . S
C705 C699 1.429 . S
C705 C706 1.523 . S
C706 C687 1.368 . S
C706 C700 1.368 . S
C706 C705 1.523 . S
C707 C691 1.429 . S
C707 C703 1.429 . S
C707 C708 1.523 . S
C708 C692 1.368 . S
C708 C704 1.368 . S
C708 C707 1.523 . S
H709 C684 0.950 . S
H710 C686 0.950 . S
H711 C687 0.949 . S
H712 C689 0.950 . S
H713 C691 0.950 . S
C714 C715 1.349 . S
C714 C716 1.327 . S
C714 H739 0.950 . S
C715 C714 1.349 . S
C715 C731 1.349 . S
C716 C714 1.327 . S
C716 C735 1.429 . S
C716 H740 0.950 . S
C717 C734 1.574 1_556 S
C717 C736 1.368 . S
C717 H741 0.949 . S
H718 C722 0.949 . S
C719 C720 1.349 . S
C719 C721 1.327 . S
C719 H742 0.950 . S
C720 C719 1.349 . S
C720 C732 1.349 . S
C721 C719 1.327 . S
C721 C737 1.429 . S
C721 H743 0.950 . S
C722 H718 0.949 . S
C722 C730 1.574 1_554 S
C722 C738 1.368 . S
H723 C731 0.950 . S
H724 C729 0.950 . S
H725 C730 0.949 . S
H726 C732 0.950 . S
H727 C733 0.950 . S
H728 C734 0.949 . S
C729 H724 0.950 . S
C729 C731 1.327 . S
C729 C735 1.429 . S
C730 C722 1.574 1_556 S
C730 H725 0.949 . S
C730 C736 1.368 . S
C731 C715 1.349 . S
C731 H723 0.950 . S
C731 C729 1.327 . S
C732 C720 1.349 . S
C732 H726 0.950 . S
C732 C733 1.327 . S
C733 H727 0.950 . S
C733 C732 1.327 . S
C733 C737 1.429 . S
C734 C717 1.574 1_554 S
C734 H728 0.949 . S
C734 C738 1.368 . S
C735 C716 1.429 . S
C735 C729 1.429 . S
C735 C736 1.523 . S
C736 C717 1.368 . S
C736 C730 1.368 . S
C736 C735 1.523 . S
C737 C721 1.429 . S
C737 C733 1.429 . S
C737 C738 1.523 . S
C738 C722 1.368 . S
C738 C734 1.368 . S
C738 C737 1.523 . S
H739 C714 0.950 . S
H740 C716 0.950 . S
H741 C717 0.949 . S
H742 C719 0.950 . S
H743 C721 0.950 . S
C744 C745 1.349 . S
C744 C746 1.327 . S
C744 H769 0.950 . S
C745 C744 1.349 . S
C745 C761 1.349 . S
C746 C744 1.327 . S
C746 C765 1.429 . S
C746 H770 0.950 . S
C747 C764 1.574 . S
C747 C766 1.368 . S
C747 H771 0.949 . S
H748 C752 0.949 . S
C749 C750 1.349 . S
C749 C751 1.327 . S
C749 H772 0.950 . S
C750 C749 1.349 . S
C750 C762 1.349 . S
C751 C749 1.327 . S
C751 C767 1.429 . S
C751 H773 0.950 . S
C752 H748 0.949 . S
C752 C760 1.574 . S
C752 C768 1.368 . S
H753 C761 0.950 . S
H754 C759 0.950 . S
H755 C760 0.949 . S
H756 C762 0.950 . S
H757 C763 0.950 . S
H758 C764 0.949 . S
C759 H754 0.950 . S
C759 C761 1.327 . S
C759 C765 1.429 . S
C760 C752 1.574 . S
C760 H755 0.949 . S
C760 C766 1.368 . S
C761 C745 1.349 . S
C761 H753 0.950 . S
C761 C759 1.327 . S
C762 C750 1.349 . S
C762 H756 0.950 . S
C762 C763 1.327 . S
C763 H757 0.950 . S
C763 C762 1.327 . S
C763 C767 1.429 . S
C764 C747 1.574 . S
C764 H758 0.949 . S
C764 C768 1.368 . S
C765 C746 1.429 . S
C765 C759 1.429 . S
C765 C766 1.523 . S
C766 C747 1.368 . S
C766 C760 1.368 . S
C766 C765 1.523 . S
C767 C751 1.429 . S
C767 C763 1.429 . S
C767 C768 1.523 . S
C768 C752 1.368 . S
C768 C764 1.368 . S
C768 C767 1.523 . S
H769 C744 0.950 . S
H770 C746 0.950 . S
H771 C747 0.949 . S
H772 C749 0.950 . S
H773 C751 0.950 . S
C774 C775 1.349 . S
C774 C776 1.327 . S
C774 H799 0.950 . S
C775 C774 1.349 . S
C775 C791 1.349 . S
C776 C774 1.327 . S
C776 C795 1.429 . S
C776 H800 0.950 . S
C777 C794 1.574 1_554 S
C777 C796 1.368 . S
C777 H801 0.949 . S
H778 C782 0.949 . S
C779 C780 1.349 . S
C779 C781 1.327 . S
C779 H802 0.950 . S
C780 C779 1.349 . S
C780 C792 1.349 . S
C781 C779 1.327 . S
C781 C797 1.429 . S
C781 H803 0.950 . S
C782 H778 0.949 . S
C782 C790 1.574 1_556 S
C782 C798 1.368 . S
H783 C791 0.950 . S
H784 C789 0.950 . S
H785 C790 0.949 . S
H786 C792 0.950 . S
H787 C793 0.950 . S
H788 C794 0.949 . S
C789 H784 0.950 . S
C789 C791 1.327 . S
C789 C795 1.429 . S
C790 C782 1.574 1_554 S
C790 H785 0.949 . S
C790 C796 1.368 . S
C791 C775 1.349 . S
C791 H783 0.950 . S
C791 C789 1.327 . S
C792 C780 1.349 . S
C792 H786 0.950 . S
C792 C793 1.327 . S
C793 H787 0.950 . S
C793 C792 1.327 . S
C793 C797 1.429 . S
C794 C777 1.574 1_556 S
C794 H788 0.949 . S
C794 C798 1.368 . S
C795 C776 1.429 . S
C795 C789 1.429 . S
C795 C796 1.523 . S
C796 C777 1.368 . S
C796 C790 1.368 . S
C796 C795 1.523 . S
C797 C781 1.429 . S
C797 C793 1.429 . S
C797 C798 1.523 . S
C798 C782 1.368 . S
C798 C794 1.368 . S
C798 C797 1.523 . S
H799 C774 0.950 . S
H800 C776 0.950 . S
H801 C777 0.949 . S
H802 C779 0.950 . S
H803 C781 0.950 . S
C804 C805 1.349 . S
C804 C806 1.327 . S
C804 H829 0.950 . S
C805 C804 1.349 . S
C805 C821 1.349 . S
C806 C804 1.327 . S
C806 C825 1.429 . S
C806 H830 0.950 . S
C807 C824 1.574 . S
C807 C826 1.368 . S
C807 H831 0.949 . S
H808 C812 0.949 . S
C809 C810 1.349 . S
C809 C811 1.327 . S
C809 H832 0.950 . S
C810 C809 1.349 . S
C810 C822 1.349 . S
C811 C809 1.327 . S
C811 C827 1.429 . S
C811 H833 0.950 . S
C812 H808 0.949 . S
C812 C820 1.574 . S
C812 C828 1.368 . S
H813 C821 0.950 . S
H814 C819 0.950 . S
H815 C820 0.949 . S
H816 C822 0.950 . S
H817 C823 0.950 . S
H818 C824 0.949 . S
C819 H814 0.950 . S
C819 C821 1.327 . S
C819 C825 1.429 . S
C820 C812 1.574 . S
C820 H815 0.949 . S
C820 C826 1.368 . S
C821 C805 1.349 . S
C821 H813 0.950 . S
C821 C819 1.327 . S
C822 C810 1.349 . S
C822 H816 0.950 . S
C822 C823 1.327 . S
C823 H817 0.950 . S
C823 C822 1.327 . S
C823 C827 1.429 . S
C824 C807 1.574 . S
C824 H818 0.949 . S
C824 C828 1.368 . S
C825 C806 1.429 . S
C825 C819 1.429 . S
C825 C826 1.523 . S
C826 C807 1.368 . S
C826 C820 1.368 . S
C826 C825 1.523 . S
C827 C811 1.429 . S
C827 C823 1.429 . S
C827 C828 1.523 . S
C828 C812 1.368 . S
C828 C824 1.368 . S
C828 C827 1.523 . S
H829 C804 0.950 . S
H830 C806 0.950 . S
H831 C807 0.949 . S
H832 C809 0.950 . S
H833 C811 0.950 . S
C205 C3 2.683 . S
C210 C139 2.683 . S
C235 C171 2.683 . S
C240 C37 2.683 . S
C265 C69 2.683 . S
C270 C103 2.683 . S
C295 C22 1.799 . S
C300 C85 1.837 . S
C325 C17 1.837 . S
C330 C56 1.800 . S
C355 C51 1.837 . S
C360 C83 1.799 . S
C385 C117 1.799 . S
C390 C153 1.837 . S
C415 C158 1.799 . S
C420 C187 1.837 . S
C445 C119 1.837 . S
C450 C185 1.800 . S
C475 C137 0.920 . S
C480 C1 0.920 . S
C505 C173 0.920 . S
C510 C35 0.920 . S
C535 C105 0.920 . S
C540 C71 0.920 . S
C565 C15 1.227 . S
C570 C124 1.227 . S
C595 C49 1.227 . S
C600 C151 1.227 . S
C625 C192 1.227 . S
C630 C90 1.227 . S
C655 C6 1.133 . S
C660 C28 1.136 . S
C685 C62 1.136 . S
C690 C40 1.133 . S
C715 C96 1.133 . S
C720 C74 1.136 . S
C745 C130 1.133 . S
C750 C108 1.136 . S
C775 C142 1.133 . S
C780 C164 1.136 . S
C805 C176 1.136 . S
C810 C198 1.133 . S
