# Generated by pormake.
# Topology unj, (4)-cn, num edge types: 1
# Building blocks:
#     Node 0, Type 0, BuildingBlock: ICAMEG_clean_sbu_1, # of connection points: 4
#     Node 1, Type 0, BuildingBlock: ICAMEG_clean_sbu_1, # of connection points: 4
#     Node 2, Type 0, BuildingBlock: ICAMEG_clean_sbu_1, # of connection points: 4
#     Node 3, Type 0, BuildingBlock: ICAMEG_clean_sbu_1, # of connection points: 4
#     Node 4, Type 0, BuildingBlock: ICAMEG_clean_sbu_1, # of connection points: 4
#     Node 5, Type 0, BuildingBlock: ICAMEG_clean_sbu_1, # of connection points: 4
#     Edge 6, Type (0, 0), BuildingBlock: ZUJKAS_clean_linker_0, # of connection points: 2
#     Edge 7, Type (0, 0), BuildingBlock: ZUJKAS_clean_linker_0, # of connection points: 2
#     Edge 8, Type (0, 0), BuildingBlock: ZUJKAS_clean_linker_0, # of connection points: 2
#     Edge 9, Type (0, 0), BuildingBlock: ZUJKAS_clean_linker_0, # of connection points: 2
#     Edge 10, Type (0, 0), BuildingBlock: ZUJKAS_clean_linker_0, # of connection points: 2
#     Edge 11, Type (0, 0), BuildingBlock: ZUJKAS_clean_linker_0, # of connection points: 2
#     Edge 12, Type (0, 0), BuildingBlock: ZUJKAS_clean_linker_0, # of connection points: 2
#     Edge 13, Type (0, 0), BuildingBlock: ZUJKAS_clean_linker_0, # of connection points: 2
#     Edge 14, Type (0, 0), BuildingBlock: ZUJKAS_clean_linker_0, # of connection points: 2
#     Edge 15, Type (0, 0), BuildingBlock: ZUJKAS_clean_linker_0, # of connection points: 2
#     Edge 16, Type (0, 0), BuildingBlock: ZUJKAS_clean_linker_0, # of connection points: 2
#     Edge 17, Type (0, 0), BuildingBlock: ZUJKAS_clean_linker_0, # of connection points: 2
# Relax obj value: 0.087
# Max RMSD: 0.190
# Mean RMSD: 0.156
data_MOF--net-unj--node1-ICAMEG_clean_sbu_1--edge1-ZUJKAS_clean_linker_0
_symmetry_space_group_name_H-M    P1
_symmetry_Int_Tables_number       1
_symmetry_cell_setting            triclinic
loop_
_symmetry_equiv_pos_as_xyz
'x, y, z'
_cell_length_a     40.535101
_cell_length_b     44.594176
_cell_length_c     51.028154
_cell_angle_alpha  90.029321
_cell_angle_beta   89.969182
_cell_angle_gamma 120.13609
loop_
_atom_site_label
_atom_site_type_symbol
_atom_site_fract_x
_atom_site_fract_y
_atom_site_fract_z
_atom_type_partial_charge
Co0 Co 0.56925 0.2989 0.59317 0.0
Co1 Co 0.47825 0.22836 0.60244 0.0
O2 O 0.52313 0.2574 0.58055 0.0
C3 C 0.54745 0.32599 0.54648 0.0
O4 O 0.51156 0.30888 0.55384 0.0
C5 C 0.49873 0.17824 0.57865 0.0
O6 O 0.53495 0.20209 0.57939 0.0
O7 O 0.51076 0.22678 0.63139 0.0
O8 O 0.56786 0.27489 0.62639 0.0
H9 H 0.40205 0.19546 0.6858 0.0
H10 H 0.56923 0.26967 0.54102 0.0
O11 O 0.57287 0.32429 0.55996 0.0
H12 H 0.67188 0.2666 0.59058 0.0
H13 H 0.70131 0.40259 0.58421 0.0
H14 H 0.59305 0.33578 0.64403 0.0
H15 H 0.63448 0.29037 0.61061 0.0
H16 H 0.64352 0.35015 0.56873 0.0
O17 O 0.47342 0.18471 0.58721 0.0
H18 H 0.45774 0.23137 0.65769 0.0
H19 H 0.40359 0.16356 0.59344 0.0
H20 H 0.65045 0.38789 0.66041 0.0
H21 H 0.60632 0.2462 0.52002 0.0
H22 H 0.7051 0.4217 0.63039 0.0
H23 H 0.65793 0.24437 0.54491 0.0
O24 O 0.53832 0.3175 0.60963 0.0
H25 H 0.43724 0.22127 0.50866 0.0
H26 H 0.41191 0.23994 0.59996 0.0
H27 H 0.37265 0.24313 0.56436 0.0
H28 H 0.38519 0.23368 0.5183 0.0
H29 H 0.47606 0.21876 0.54487 0.0
H30 H 0.3475 0.12675 0.62092 0.0
H31 H 0.34643 0.14271 0.66742 0.0
O32 O 0.48086 0.27079 0.61785 0.0
C33 C 0.54497 0.24738 0.63879 0.0
C34 C 0.40213 0.18829 0.66554 0.0
C35 C 0.37154 0.1497 0.62914 0.0
N36 N 0.43382 0.19972 0.62392 0.0
C37 C 0.43353 0.20858 0.64951 0.0
C38 C 0.40344 0.17059 0.6137 0.0
C39 C 0.37095 0.15868 0.65523 0.0
C40 C 0.59185 0.26923 0.55191 0.0
N41 N 0.59949 0.28115 0.57712 0.0
C42 C 0.61267 0.25579 0.53994 0.0
C43 C 0.64157 0.25472 0.55393 0.0
C44 C 0.64936 0.26712 0.57957 0.0
C45 C 0.62791 0.28033 0.5909 0.0
C46 C 0.67769 0.38808 0.59748 0.0
C47 C 0.61678 0.35027 0.63088 0.0
C48 C 0.64483 0.35843 0.58879 0.0
N49 N 0.61496 0.33987 0.60548 0.0
C50 C 0.64917 0.3798 0.64025 0.0
C51 C 0.67981 0.39877 0.6234 0.0
C52 C 0.50447 0.30333 0.61885 0.0
C53 C 0.43151 0.22546 0.52864 0.0
C54 C 0.41778 0.23619 0.57996 0.0
C55 C 0.39532 0.23781 0.55989 0.0
C56 C 0.40234 0.23246 0.53406 0.0
N57 N 0.44641 0.22943 0.57449 0.0
C58 C 0.45335 0.224 0.54923 0.0
Co59 Co 0.26197 0.4674 0.77396 0.0
Co60 Co 0.2686 0.54674 0.76701 0.0
O61 O 0.27381 0.50839 0.75267 0.0
C62 C 0.33083 0.48144 0.74089 0.0
O63 O 0.33414 0.51029 0.73176 0.0
C64 C 0.22945 0.53468 0.71511 0.0
O65 O 0.21092 0.50113 0.7195 0.0
O66 O 0.21426 0.51392 0.7756 0.0
O67 O 0.21862 0.46933 0.79176 0.0
H68 H 0.22636 0.60357 0.83361 0.0
H69 H 0.26439 0.46431 0.71566 0.0
O70 O 0.30453 0.46286 0.75721 0.0
H71 H 0.13616 0.37086 0.74077 0.0
H72 H 0.24369 0.34867 0.79088 0.0
H73 H 0.24319 0.4496 0.82999 0.0
H74 H 0.18222 0.40772 0.7745 0.0
H75 H 0.25721 0.39934 0.76374 0.0
O76 O 0.25326 0.55544 0.73183 0.0
H77 H 0.23462 0.55651 0.81542 0.0
H78 H 0.28977 0.61766 0.74831 0.0
H79 H 0.22916 0.39933 0.8578 0.0
H80 H 0.21945 0.42781 0.68137 0.0
H81 H 0.22936 0.3484 0.83825 0.0
H82 H 0.15472 0.38068 0.69381 0.0
O83 O 0.29852 0.49779 0.80135 0.0
H84 H 0.38336 0.60038 0.70798 0.0
H85 H 0.33524 0.60224 0.79635 0.0
H86 H 0.40287 0.64219 0.78591 0.0
H87 H 0.42735 0.64152 0.7414 0.0
H88 H 0.316 0.56045 0.71941 0.0
H89 H 0.28184 0.66527 0.76567 0.0
H90 H 0.25006 0.65844 0.80867 0.0
O91 O 0.28444 0.54028 0.80279 0.0
C92 C 0.20035 0.48548 0.78823 0.0
C93 C 0.24033 0.60689 0.81488 0.0
C94 C 0.27142 0.6415 0.77674 0.0
N95 N 0.26283 0.58437 0.7809 0.0
C96 C 0.24515 0.58035 0.8045 0.0
C97 C 0.27574 0.6144 0.76697 0.0
C98 C 0.2536 0.63766 0.80087 0.0
C99 C 0.23662 0.44357 0.72134 0.0
N100 N 0.22634 0.43788 0.74716 0.0
C101 C 0.21112 0.4231 0.70178 0.0
C102 C 0.17478 0.39671 0.70876 0.0
C103 C 0.16436 0.3912 0.7351 0.0
C104 C 0.19059 0.41221 0.75412 0.0
C105 C 0.24345 0.37068 0.79962 0.0
C106 C 0.24311 0.42745 0.82131 0.0
C107 C 0.25119 0.39949 0.78436 0.0
N108 N 0.25072 0.42731 0.79524 0.0
C109 C 0.23525 0.3991 0.83717 0.0
C110 C 0.2354 0.37054 0.82619 0.0
C111 C 0.30042 0.52431 0.81231 0.0
C112 C 0.37306 0.60089 0.72745 0.0
C113 C 0.34573 0.6014 0.77706 0.0
C114 C 0.38403 0.62428 0.7712 0.0
C115 C 0.39773 0.62393 0.74622 0.0
N116 N 0.32173 0.57871 0.75859 0.0
C117 C 0.33492 0.57838 0.73402 0.0
Co118 Co 0.75483 0.29636 0.92712 0.0
Co119 Co 0.77014 0.22753 0.91561 0.0
O120 O 0.75745 0.25559 0.93899 0.0
C121 C 0.80344 0.32206 0.97593 0.0
O122 O 0.81659 0.30082 0.97229 0.0
C123 C 0.69875 0.17522 0.94328 0.0
O124 O 0.68674 0.19758 0.94401 0.0
O125 O 0.73164 0.22307 0.88914 0.0
O126 O 0.72897 0.27187 0.89397 0.0
H127 H 0.80317 0.19491 0.82931 0.0
H128 H 0.7244 0.26525 0.9791 0.0
O129 O 0.77962 0.32259 0.96 0.0
H130 H 0.61601 0.26187 0.93259 0.0
H131 H 0.73348 0.3978 0.93748 0.0
H132 H 0.76915 0.33305 0.87641 0.0
H133 H 0.67923 0.28727 0.91161 0.0
H134 H 0.73575 0.34633 0.95247 0.0
O135 O 0.73063 0.18329 0.93272 0.0
H136 H 0.78728 0.22954 0.85895 0.0
H137 H 0.77988 0.16601 0.92327 0.0
H138 H 0.76679 0.38418 0.86051 0.0
H139 H 0.66193 0.24028 1.00112 0.0
H140 H 0.74888 0.41695 0.89116 0.0
H141 H 0.6071 0.23824 0.97775 0.0
O142 O 0.8062 0.31653 0.91035 0.0
H143 H 0.81571 0.22216 1.00611 0.0
H144 H 0.85223 0.24725 0.91308 0.0
H145 H 0.90022 0.25329 0.94554 0.0
H146 H 0.88203 0.24058 0.99243 0.0
H147 H 0.76876 0.21693 0.97305 0.0
H148 H 0.79539 0.13054 0.89428 0.0
H149 H 0.8073 0.14499 0.84695 0.0
O150 O 0.81039 0.2703 0.89787 0.0
C151 C 0.72008 0.24366 0.88204 0.0
C152 C 0.79812 0.18839 0.8499 0.0
C153 C 0.79371 0.15224 0.88637 0.0
N154 N 0.78283 0.19992 0.89282 0.0
C155 C 0.78919 0.20795 0.86679 0.0
C156 C 0.78484 0.17238 0.90267 0.0
C157 C 0.8004 0.16037 0.85981 0.0
C158 C 0.70075 0.26466 0.96886 0.0
N159 N 0.70531 0.27723 0.9439 0.0
C160 C 0.66541 0.25039 0.98141 0.0
C161 C 0.63464 0.24921 0.96827 0.0
C162 C 0.6396 0.26237 0.94291 0.0
C163 C 0.67535 0.2764 0.93099 0.0
C164 C 0.74127 0.38371 0.92393 0.0
C165 C 0.76108 0.34705 0.88981 0.0
C166 C 0.74273 0.3546 0.93232 0.0
N167 N 0.75235 0.33655 0.91528 0.0
C168 C 0.75991 0.37603 0.88072 0.0
C169 C 0.7499 0.39443 0.89793 0.0
C170 C 0.82316 0.3029 0.89847 0.0
C171 C 0.82396 0.22767 0.98573 0.0
C172 C 0.84413 0.2419 0.93346 0.0
C173 C 0.87141 0.24524 0.95174 0.0
C174 C 0.86118 0.23806 0.97805 0.0
N175 N 0.80766 0.23164 0.94114 0.0
C176 C 0.79743 0.22458 0.9669 0.0
Co177 Co 0.46354 0.7269 0.09595 0.0
Co178 Co 0.55413 0.79698 0.10432 0.0
O179 O 0.50919 0.76805 0.08255 0.0
C180 C 0.48162 0.69912 0.04819 0.0
O181 O 0.51747 0.71427 0.05558 0.0
C182 C 0.53633 0.84769 0.07904 0.0
O183 O 0.49985 0.82528 0.08178 0.0
O184 O 0.52186 0.80168 0.1317 0.0
O185 O 0.46767 0.75027 0.13022 0.0
H186 H 0.6288 0.83354 0.18829 0.0
H187 H 0.45952 0.75664 0.04496 0.0
O188 O 0.45727 0.70217 0.06196 0.0
H189 H 0.36365 0.7624 0.10093 0.0
H190 H 0.33001 0.62487 0.08964 0.0
H191 H 0.4429 0.68861 0.14629 0.0
H192 H 0.40168 0.73749 0.11782 0.0
H193 H 0.38728 0.67719 0.07338 0.0
O194 O 0.56123 0.84027 0.08685 0.0
H195 H 0.57291 0.79731 0.16046 0.0
H196 H 0.63066 0.85885 0.09406 0.0
H197 H 0.3861 0.63657 0.16342 0.0
H198 H 0.4217 0.7813 0.02713 0.0
H199 H 0.32913 0.60432 0.13501 0.0
H200 H 0.37347 0.78444 0.05523 0.0
O201 O 0.49498 0.70754 0.10983 0.0
H202 H 0.59759 0.79784 0.01198 0.0
H203 H 0.61619 0.77937 0.1048 0.0
H204 H 0.65488 0.77205 0.07085 0.0
H205 H 0.64574 0.78137 0.02405 0.0
H206 H 0.55925 0.80457 0.04658 0.0
H207 H 0.68705 0.89592 0.12121 0.0
H208 H 0.68639 0.88326 0.16867 0.0
O209 O 0.54917 0.75493 0.12233 0.0
C210 C 0.48932 0.77959 0.14093 0.0
C211 C 0.62947 0.83926 0.16762 0.0
C212 C 0.66215 0.87429 0.12998 0.0
N213 N 0.59863 0.82579 0.12564 0.0
C214 C 0.59796 0.81878 0.15175 0.0
C215 C 0.6301 0.85325 0.11472 0.0
C216 C 0.66176 0.86717 0.15661 0.0
C217 C 0.43832 0.75759 0.05722 0.0
N218 N 0.43286 0.74566 0.08242 0.0
C219 C 0.4171 0.77172 0.04705 0.0
C220 C 0.3901 0.77354 0.06285 0.0
C221 C 0.38461 0.76122 0.0885 0.0
C222 C 0.40638 0.7473 0.09801 0.0
C223 C 0.35464 0.63872 0.10222 0.0
C224 C 0.41814 0.6748 0.13385 0.0
C225 C 0.38719 0.66831 0.09309 0.0
N226 N 0.41833 0.68604 0.10892 0.0
C227 C 0.3861 0.64532 0.14364 0.0
C228 C 0.35416 0.62722 0.12768 0.0
C229 C 0.5272 0.72208 0.12146 0.0
C230 C 0.6019 0.79379 0.03231 0.0
C231 C 0.61193 0.78333 0.08448 0.0
C232 C 0.634 0.77925 0.06534 0.0
C233 C 0.62888 0.7845 0.03909 0.0
N234 N 0.58556 0.7925 0.07768 0.0
C235 C 0.58038 0.79769 0.05199 0.0
Co236 Co 0.77108 0.55896 0.27532 0.0
Co237 Co 0.76025 0.47906 0.26563 0.0
O238 O 0.75853 0.51941 0.25234 0.0
C239 C 0.69907 0.54713 0.24971 0.0
O240 O 0.68281 0.51414 0.25587 0.0
C241 C 0.80242 0.49129 0.21482 0.0
O242 O 0.82479 0.52402 0.22107 0.0
O243 O 0.81481 0.50968 0.27544 0.0
O244 O 0.80985 0.55219 0.2951 0.0
H245 H 0.79418 0.41462 0.33095 0.0
H246 H 0.77462 0.568 0.21771 0.0
O247 O 0.73368 0.56784 0.256 0.0
H248 H 0.90384 0.65119 0.24948 0.0
H249 H 0.79696 0.67942 0.29567 0.0
H250 H 0.78342 0.57156 0.33247 0.0
H251 H 0.85295 0.61412 0.28055 0.0
H252 H 0.78297 0.62997 0.26689 0.0
O253 O 0.77572 0.47107 0.2302 0.0
H254 H 0.79012 0.46446 0.31402 0.0
H255 H 0.73614 0.40841 0.24475 0.0
H256 H 0.79775 0.62049 0.36194 0.0
H257 H 0.8246 0.60486 0.18595 0.0
H258 H 0.80461 0.6749 0.34355 0.0
H259 H 0.88979 0.64676 0.2018 0.0
O260 O 0.73044 0.52771 0.30029 0.0
H261 H 0.64754 0.43668 0.20543 0.0
H262 H 0.69107 0.42292 0.29245 0.0
H263 H 0.62321 0.38691 0.28064 0.0
H264 H 0.60105 0.39361 0.23681 0.0
H265 H 0.71513 0.47246 0.21819 0.0
H266 H 0.73994 0.35809 0.26081 0.0
H267 H 0.76898 0.36095 0.30426 0.0
O268 O 0.74361 0.48465 0.30152 0.0
C269 C 0.82815 0.53643 0.29011 0.0
C270 C 0.7814 0.41303 0.312 0.0
C271 C 0.751 0.38132 0.27262 0.0
N272 N 0.76277 0.43931 0.27848 0.0
C273 C 0.77896 0.44115 0.30234 0.0
C274 C 0.74905 0.40995 0.26359 0.0
C275 C 0.76728 0.38294 0.29701 0.0
C276 C 0.80284 0.58638 0.22476 0.0
N277 N 0.81079 0.58899 0.25095 0.0
C278 C 0.83105 0.6071 0.20669 0.0
C279 C 0.86763 0.63057 0.21559 0.0
C280 C 0.87554 0.63306 0.24233 0.0
C281 C 0.84662 0.61193 0.25983 0.0
C282 C 0.79408 0.65586 0.30391 0.0
C283 C 0.78655 0.59521 0.32431 0.0
C284 C 0.78605 0.62773 0.28772 0.0
N285 N 0.78259 0.59797 0.29798 0.0
C286 C 0.79458 0.6228 0.3411 0.0
C287 C 0.79839 0.65331 0.33077 0.0
C288 C 0.72704 0.50032 0.31075 0.0
C289 C 0.65686 0.43347 0.22456 0.0
C290 C 0.68165 0.42615 0.27341 0.0
C291 C 0.64319 0.40559 0.26679 0.0
C292 C 0.63078 0.40934 0.24219 0.0
N293 N 0.70706 0.44978 0.25602 0.0
C294 C 0.69511 0.45357 0.23186 0.0
Co295 Co 0.276 0.72883 0.42397 0.0
Co296 Co 0.26223 0.79784 0.41449 0.0
O297 O 0.27576 0.77005 0.43726 0.0
C298 C 0.23254 0.70258 0.47422 0.0
O299 O 0.21271 0.71768 0.46864 0.0
C300 C 0.33252 0.85047 0.44279 0.0
O301 O 0.34594 0.82916 0.44202 0.0
O302 O 0.30234 0.80421 0.38891 0.0
O303 O 0.29429 0.75073 0.38866 0.0
H304 H 0.23222 0.83334 0.32837 0.0
H305 H 0.31722 0.76091 0.47327 0.0
O306 O 0.25855 0.70534 0.45875 0.0
H307 H 0.41483 0.76551 0.41305 0.0
H308 H 0.29984 0.62846 0.4292 0.0
H309 H 0.24997 0.6882 0.37477 0.0
H310 H 0.34786 0.73945 0.39894 0.0
H311 H 0.30091 0.68103 0.44544 0.0
O312 O 0.30007 0.84174 0.43289 0.0
H313 H 0.24811 0.79832 0.35754 0.0
H314 H 0.2494 0.85744 0.42324 0.0
H315 H 0.24866 0.63588 0.35767 0.0
H316 H 0.38378 0.78665 0.48838 0.0
H317 H 0.27372 0.60562 0.38496 0.0
H318 H 0.43317 0.78923 0.45812 0.0
O319 O 0.22195 0.70851 0.4127 0.0
H320 H 0.21162 0.79612 0.50468 0.0
H321 H 0.17979 0.77675 0.41064 0.0
H322 H 0.12979 0.76736 0.44255 0.0
H323 H 0.1456 0.77715 0.48994 0.0
H324 H 0.26067 0.80486 0.47211 0.0
H325 H 0.23383 0.89328 0.39474 0.0
H326 H 0.22499 0.88122 0.34695 0.0
O327 O 0.22328 0.75522 0.39523 0.0
C328 C 0.30795 0.78099 0.37883 0.0
C329 C 0.23588 0.83877 0.34917 0.0
C330 C 0.23683 0.87244 0.38642 0.0
N331 N 0.24937 0.82563 0.39209 0.0
C332 C 0.24478 0.81897 0.3658 0.0
C333 C 0.24572 0.8521 0.40245 0.0
C334 C 0.23187 0.86566 0.35961 0.0
C335 C 0.33847 0.76162 0.46008 0.0
N336 N 0.32865 0.74879 0.43522 0.0
C337 C 0.37615 0.77637 0.4687 0.0
C338 C 0.40385 0.77786 0.4517 0.0
C339 C 0.3936 0.76461 0.4264 0.0
C340 C 0.35565 0.75007 0.41845 0.0
C341 C 0.28887 0.64143 0.41711 0.0
C342 C 0.26108 0.67527 0.38672 0.0
C343 C 0.2893 0.67115 0.42623 0.0
N344 N 0.27566 0.68777 0.41102 0.0
C345 C 0.26019 0.64561 0.37695 0.0
C346 C 0.27423 0.62864 0.39228 0.0
C347 C 0.20723 0.72251 0.39878 0.0
C348 C 0.2044 0.79188 0.48407 0.0
C349 C 0.18688 0.78094 0.43124 0.0
C350 C 0.15846 0.77567 0.44921 0.0
C351 C 0.16736 0.78118 0.4758 0.0
N352 N 0.22317 0.7915 0.43951 0.0
C353 C 0.2321 0.79692 0.46554 0.0
H354 H 0.53277 0.16319 0.53836 0.0
H355 H 0.50759 0.10794 0.51486 0.0
H356 H 0.41267 0.06076 0.56862 0.0
H357 H 0.43639 0.11632 0.59094 0.0
H358 H 0.4932 0.04589 0.52464 0.0
H359 H 0.35478 0.03608 0.50262 0.0
H360 H 0.39365 0.07435 0.51711 0.0
H361 H 0.36234 0.03772 0.53728 0.0
C362 C 0.50658 0.14094 0.54515 0.0
C363 C 0.48627 0.14414 0.56625 0.0
C364 C 0.49216 0.10934 0.53171 0.0
C365 C 0.45747 0.08023 0.53938 0.0
C366 C 0.43856 0.08303 0.56153 0.0
H367 H 0.38023 0.86809 0.48513 0.0
H368 H 0.41185 0.92369 0.50837 0.0
C369 C 0.45237 0.11475 0.57449 0.0
C370 C 0.4408 0.04718 0.52409 0.0
H371 H 0.35818 0.98483 0.49587 0.0
C372 C 0.46375 0.0327 0.51815 0.0
C373 C 0.40258 0.03013 0.51499 0.0
C374 C 0.37711 0.0456 0.51807 0.0
C375 C 0.44949 1.00159 0.50383 0.0
C376 C 0.41059 0.98347 0.49616 0.0
C377 C 0.38785 0.99823 0.50189 0.0
C378 C 0.39275 0.9497 0.48168 0.0
C379 C 0.47677 0.98924 0.49648 0.0
C380 C 0.37025 0.94499 0.45937 0.0
C381 C 0.35101 0.91285 0.44672 0.0
C382 C 0.35445 0.88476 0.45567 0.0
C383 C 0.37754 0.88947 0.47758 0.0
C384 C 0.39593 0.92142 0.49074 0.0
H385 H 0.50664 1.01115 0.49562 0.0
H386 H 0.47559 0.97086 0.51161 0.0
H387 H 0.46945 0.97593 0.47719 0.0
H388 H 0.36719 0.96616 0.45183 0.0
H389 H 0.33345 0.91 0.42984 0.0
H390 H 0.54533 0.36141 0.64927 0.0
H391 H 0.52097 0.39469 0.67245 0.0
H392 H 0.41009 0.32982 0.63797 0.0
H393 H 0.43372 0.29581 0.61606 0.0
H394 H 0.49211 0.4332 0.65928 0.0
H395 H 0.37936 0.32057 0.71235 0.0
H396 H 0.41567 0.31798 0.69379 0.0
H397 H 0.37358 0.31308 0.67775 0.0
C398 C 0.51575 0.3543 0.64674 0.0
C399 C 0.49122 0.32552 0.63127 0.0
C400 C 0.50181 0.3733 0.65999 0.0
C401 C 0.46325 0.36414 0.65772 0.0
C402 C 0.43945 0.33659 0.64106 0.0
H403 H 0.3649 0.49388 0.69273 0.0
H404 H 0.39955 0.46733 0.67382 0.0
C405 C 0.45309 0.31721 0.62836 0.0
C406 C 0.44764 0.38322 0.67252 0.0
H407 H 0.37211 0.37068 0.71026 0.0
C408 C 0.4661 0.41955 0.67069 0.0
C409 C 0.41422 0.36572 0.68806 0.0
C410 C 0.39487 0.32725 0.69335 0.0
C411 C 0.45141 0.43861 0.6831 0.0
C412 C 0.41634 0.42079 0.69692 0.0
C413 C 0.39863 0.38457 0.69942 0.0
C414 C 0.39713 0.43876 0.70882 0.0
C415 C 0.47418 0.47766 0.68162 0.0
C416 C 0.38292 0.43094 0.73459 0.0
C417 C 0.36191 0.44521 0.74511 0.0
C418 C 0.3552 0.46818 0.73031 0.0
C419 C 0.37013 0.47671 0.70478 0.0
C420 C 0.3903 0.46171 0.69401 0.0
H421 H 0.50512 0.48705 0.67926 0.0
H422 H 0.4649 0.48647 0.66425 0.0
H423 H 0.47022 0.48984 0.69942 0.0
H424 H 0.38758 0.41333 0.74653 0.0
H425 H 0.35075 0.43811 0.76484 0.0
H426 H 0.86865 0.37394 0.90168 0.0
H427 H 0.9318 0.41029 0.88192 0.0
H428 H 0.92525 0.31988 0.84618 0.0
H429 H 0.86257 0.28348 0.86566 0.0
H430 H 0.99779 0.40292 0.88963 0.0
H431 H 0.956 0.38985 0.78495 0.0
H432 H 0.92241 0.38015 0.81136 0.0
H433 H 0.93658 0.34933 0.80215 0.0
C434 C 0.88045 0.36183 0.88938 0.0
C435 C 0.86035 0.32571 0.88529 0.0
C436 C 0.91659 0.38265 0.87816 0.0
C437 C 0.93306 0.36785 0.86233 0.0
C438 C 0.91288 0.33196 0.85796 0.0
H439 H 0.16344 0.42881 0.82035 0.0
H440 H 0.0993 0.40354 0.83866 0.0
C441 C 0.87701 0.31114 0.86927 0.0
C442 C 0.97209 0.38938 0.85136 0.0
H443 H 0.02216 0.4122 0.79385 0.0
C444 C 1.00311 0.40529 0.86869 0.0
C445 C 0.97902 0.3927 0.82403 0.0
C446 C 0.94675 0.37739 0.80449 0.0
C447 C 0.0409 0.42326 0.85943 0.0
C448 C 0.04787 0.42517 0.83213 0.0
C449 C 0.01682 0.41047 0.81477 0.0
C450 C 0.08719 0.4412 0.82128 0.0
C451 C 0.07312 0.43989 0.87894 0.0
C452 C 0.10157 0.47051 0.80503 0.0
C453 C 0.13842 0.48517 0.79449 0.0
C454 C 0.16145 0.4705 0.79973 0.0
C455 C 0.14671 0.44094 0.8159 0.0
C456 C 0.11003 0.4265 0.82653 0.0
H457 H 0.06317 0.44379 0.89826 0.0
H458 H 0.0854 0.42281 0.88189 0.0
H459 H 0.09615 0.46533 0.87165 0.0
H460 H 0.08433 0.48215 0.80059 0.0
H461 H 0.14869 0.50782 0.78208 0.0
H462 H 0.60134 0.90856 0.08905 0.0
H463 H 0.62418 0.96449 0.06759 0.0
H464 H 0.52495 0.91893 0.01748 0.0
H465 H 0.50077 0.86348 0.04033 0.0
H466 H 0.64695 0.98401 0.02212 0.0
H467 H 0.52416 1.00418 0.03489 0.0
H468 H 0.52696 0.96983 0.05142 0.0
H469 H 0.51015 0.96431 0.01806 0.0
C470 C 0.58412 0.91065 0.07372 0.0
C471 C 0.54916 0.88174 0.06647 0.0
C472 C 0.59723 0.94266 0.06137 0.0
C473 C 0.57616 0.94644 0.04104 0.0
C474 C 0.54127 0.91734 0.03365 0.0
H475 H 0.69435 0.11474 0.92856 0.0
H476 H 0.6623 0.05904 0.9513 0.0
C477 C 0.52757 0.88548 0.04656 0.0
C478 C 0.59211 0.98021 0.02673 0.0
H479 H 0.57075 0.04027 1.00309 0.0
C480 C 0.63024 0.99637 0.01825 0.0
C481 C 0.57082 0.99697 0.02186 0.0
C482 C 0.53092 0.9831 0.03231 0.0
C483 C 0.64752 0.02834 1.00507 0.0
C484 C 0.62555 0.04401 0.99873 0.0
C485 C 0.58754 0.02814 1.00746 0.0
C486 C 0.64172 0.07701 0.98343 0.0
C487 C 0.68959 0.04536 0.99894 0.0
C488 C 0.6386 0.10523 0.99273 0.0
C489 C 0.65572 0.13683 0.97911 0.0
C490 C 0.67679 0.14097 0.95617 0.0
C491 C 0.67875 0.11244 0.94641 0.0
C492 C 0.66077 0.08066 0.95959 0.0
H493 H 0.70438 0.03674 0.01274 0.0
H494 H 0.69335 0.03783 0.97891 0.0
H495 H 0.7037 0.07405 0.99997 0.0
H496 H 0.62382 0.10314 0.01092 0.0
H497 H 0.6538 0.15842 0.98709 0.0
H498 H 0.6253 0.51163 0.23103 0.0
H499 H 0.59111 0.53557 0.20711 0.0
H500 H 0.68985 0.63789 0.21275 0.0
H501 H 0.7242 0.61439 0.2361 0.0
H502 H 0.57316 0.58604 0.22196 0.0
H503 H 0.66695 0.62974 0.13476 0.0
H504 H 0.66769 0.60006 0.15847 0.0
H505 H 0.69323 0.64602 0.16468 0.0
C506 C 0.63976 0.5392 0.22707 0.0
C507 C 0.67763 0.56099 0.23537 0.0
C508 C 0.62016 0.55285 0.21342 0.0
C509 C 0.63815 0.58845 0.20768 0.0
C510 C 0.67566 0.61023 0.21634 0.0
H511 H 0.59504 0.74333 0.14668 0.0
H512 H 0.61802 0.70764 0.1667 0.0
C513 C 0.69521 0.5967 0.22988 0.0
C514 C 0.61786 0.60337 0.19315 0.0
H515 H 0.62696 0.65461 0.14069 0.0
C516 C 0.58454 0.60058 0.20397 0.0
C517 C 0.6326 0.62221 0.16958 0.0
C518 C 0.66686 0.62441 0.15604 0.0
C519 C 0.56677 0.61762 0.19258 0.0
C520 C 0.58256 0.63768 0.16967 0.0
C521 C 0.61504 0.63942 0.15836 0.0
C522 C 0.56732 0.65879 0.15793 0.0
C523 C 0.53223 0.61532 0.20572 0.0
C524 C 0.53107 0.64319 0.14624 0.0
C525 C 0.51775 0.6636 0.13456 0.0
C526 C 0.54048 0.70004 0.13435 0.0
C527 C 0.57667 0.71543 0.14631 0.0
C528 C 0.58995 0.69505 0.15781 0.0
H529 H 0.5273 0.60351 0.22554 0.0
H530 H 0.53543 0.64147 0.20749 0.0
H531 H 0.50661 0.59914 0.19357 0.0
H532 H 0.5133 0.61522 0.14581 0.0
H533 H 0.48977 0.6508 0.12555 0.0
H534 H 0.15014 0.65848 0.41441 0.0
H535 H 0.08659 0.62401 0.39515 0.0
H536 H 0.11665 0.70108 0.33465 0.0
H537 H 0.17929 0.73639 0.35467 0.0
H538 H 0.05092 0.68451 0.35155 0.0
H539 H 0.04877 0.56127 0.33405 0.0
H540 H 0.05709 0.57334 0.36792 0.0
H541 H 0.09158 0.60034 0.34363 0.0
C542 C 0.14329 0.66784 0.39683 0.0
C543 C 0.16978 0.70014 0.38605 0.0
C544 C 0.10698 0.64796 0.38568 0.0
C545 C 0.09679 0.65945 0.36305 0.0
C546 C 0.12362 0.69147 0.35205 0.0
H547 H 0.88907 0.53217 0.27127 0.0
H548 H 0.95443 0.56155 0.28854 0.0
C549 C 0.15952 0.71167 0.36351 0.0
C550 C 0.05754 0.63948 0.35174 0.0
H551 H 0.98844 0.5589 0.33159 0.0
C552 C 0.03751 0.65709 0.347 0.0
C553 C 0.03993 0.60377 0.3453 0.0
C554 C 0.06064 0.5837 0.34772 0.0
C555 C 1.00051 0.64013 0.33645 0.0
C556 C 0.98201 0.60399 0.33154 0.0
C557 C 1.00223 0.58643 0.33576 0.0
C558 C 0.94184 0.58417 0.32192 0.0
C559 C 0.98217 0.66152 0.33007 0.0
C560 C 0.91263 0.58602 0.33532 0.0
C561 C 0.87559 0.56985 0.32524 0.0
C562 C 0.86653 0.55048 0.30193 0.0
C563 C 0.89518 0.54685 0.2893 0.0
C564 C 0.93254 0.5637 0.29915 0.0
H565 H 1.00395 0.68911 0.32655 0.0
H566 H 0.96369 0.65149 0.31246 0.0
H567 H 0.96447 0.66079 0.34693 0.0
H568 H 0.91859 0.6005 0.35343 0.0
H569 H 0.85404 0.57275 0.33563 0.0
H570 H 0.61998 0.36866 0.52929 0.0
H571 H 0.6407 0.40215 0.48905 0.0
H572 H 0.52364 0.36581 0.46791 0.0
H573 H 0.50229 0.33148 0.5085 0.0
H574 H 0.56587 0.36019 0.42742 0.0
H575 H 0.64419 0.49202 0.46944 0.0
H576 H 0.65887 0.46403 0.48407 0.0
H577 H 0.61054 0.45483 0.48828 0.0
C578 C 0.59844 0.36785 0.5163 0.0
C579 C 0.55937 0.34734 0.52224 0.0
C580 C 0.61046 0.38737 0.49332 0.0
C581 C 0.58383 0.38714 0.47569 0.0
C582 C 0.54472 0.3667 0.48141 0.0
H583 H 0.68353 0.52264 0.33683 0.0
H584 H 0.64318 0.49621 0.37561 0.0
C585 C 0.53257 0.34712 0.5046 0.0
C586 C 0.59739 0.40646 0.45057 0.0
H587 H 0.66323 0.48539 0.42576 0.0
C588 C 0.58655 0.38771 0.427 0.0
C589 C 0.62392 0.44252 0.44989 0.0
C590 C 0.63474 0.46458 0.47427 0.0
C591 C 0.60357 0.40352 0.40308 0.0
C592 C 0.63261 0.43885 0.40278 0.0
C593 C 0.6414 0.45819 0.42603 0.0
C594 C 0.65653 0.45511 0.37918 0.0
C595 C 0.59096 0.38196 0.37841 0.0
C596 C 0.67811 0.44133 0.36876 0.0
C597 C 0.70116 0.45633 0.34683 0.0
C598 C 0.70343 0.4857 0.33474 0.0
C599 C 0.68237 0.49999 0.34554 0.0
C600 C 0.65925 0.48489 0.36766 0.0
H601 H 0.56119 0.36006 0.38019 0.0
H602 H 0.59285 0.39786 0.36111 0.0
H603 H 0.60969 0.37084 0.37493 0.0
H604 H 0.67735 0.41898 0.37773 0.0
H605 H 0.71718 0.4447 0.33936 0.0
H606 H 0.19313 0.7021 0.51843 0.0
H607 H 0.18689 0.6713 0.55978 0.0
H608 H 0.24931 0.62592 0.52608 0.0
H609 H 0.25621 0.65672 0.48526 0.0
H610 H 0.15635 0.59975 0.57243 0.0
H611 H 0.31205 0.67618 0.59089 0.0
H612 H 0.28887 0.68846 0.56646 0.0
H613 H 0.30025 0.65511 0.55953 0.0
C614 C 0.2053 0.6854 0.51984 0.0
C615 C 0.22568 0.68233 0.49869 0.0
C616 C 0.20168 0.6678 0.54343 0.0
C617 C 0.2183 0.64686 0.54615 0.0
C618 C 0.23703 0.64255 0.52464 0.0
H619 H 0.19217 0.50046 0.66996 0.0
H620 H 0.18632 0.52651 0.62908 0.0
C621 C 0.24091 0.66022 0.50127 0.0
C622 C 0.21765 0.63046 0.57163 0.0
H623 H 0.27636 0.62687 0.61789 0.0
C624 C 0.18252 0.60578 0.5825 0.0
C625 C 0.25182 0.63863 0.58487 0.0
C626 C 0.29037 0.66628 0.57501 0.0
C627 C 0.18076 0.58855 0.60604 0.0
C628 C 0.21506 0.59588 0.61876 0.0
C629 C 0.25007 0.62096 0.60802 0.0
C630 C 0.21574 0.57917 0.64382 0.0
C631 C 0.14226 0.56315 0.61732 0.0
C632 C 0.23452 0.60004 0.66557 0.0
C633 C 0.23833 0.58536 0.68867 0.0
C634 C 0.22339 0.54933 0.69069 0.0
C635 C 0.20384 0.52825 0.66909 0.0
C636 C 0.20026 0.54309 0.64577 0.0
H637 H 0.1193 0.56699 0.60903 0.0
H638 H 0.13549 0.53638 0.61256 0.0
H639 H 0.14221 0.56559 0.63898 0.0
H640 H 0.24672 0.6279 0.66457 0.0
H641 H 0.25333 0.60244 0.70492 0.0
H642 H 0.71936 0.20743 0.83815 0.0
H643 H 0.68547 0.20147 0.79681 0.0
H644 H 0.63138 0.2541 0.83142 0.0
H645 H 0.66604 0.26135 0.87194 0.0
H646 H 0.61062 0.17307 0.78083 0.0
H647 H 0.68558 0.31586 0.77001 0.0
H648 H 0.69893 0.29479 0.79448 0.0
H649 H 0.65934 0.30167 0.80009 0.0
C650 C 0.69998 0.21745 0.83697 0.0
C651 C 0.696 0.23549 0.85824 0.0
C652 C 0.6806 0.214 0.81335 0.0
C653 C 0.65665 0.2282 0.81076 0.0
C654 C 0.65061 0.24392 0.83262 0.0
H655 H 0.50414 0.20294 0.67923 0.0
H656 H 0.52942 0.19516 0.72081 0.0
C657 C 0.67042 0.24795 0.8559 0.0
C658 C 0.63964 0.2286 0.785 0.0
H659 H 0.63392 0.28348 0.74104 0.0
C660 C 0.61583 0.19719 0.77201 0.0
C661 C 0.64688 0.26012 0.77327 0.0
C662 C 0.67438 0.29502 0.78504 0.0
C663 C 0.5987 0.19646 0.7478 0.0
C664 C 0.60485 0.22795 0.73662 0.0
C665 C 0.62884 0.25926 0.74963 0.0
C666 C 0.58871 0.2298 0.71081 0.0
C667 C 0.575 0.16212 0.73417 0.0
C668 C 0.61336 0.2521 0.69143 0.0
C669 C 0.599 0.2572 0.6681 0.0
C670 C 0.55951 0.23975 0.66318 0.0
C671 C 0.53472 0.21656 0.68225 0.0
C672 C 0.54918 0.2119 0.70597 0.0
H673 H 0.58167 0.14228 0.74144 0.0
H674 H 0.54436 0.15255 0.73804 0.0
H675 H 0.57962 0.16478 0.71264 0.0
H676 H 0.64393 0.26624 0.69458 0.0
H677 H 0.6191 0.27531 0.65407 0.0
H678 H 0.30741 0.57819 0.84195 0.0
H679 H 0.34631 0.60365 0.88076 0.0
H680 H 0.38274 0.52801 0.87811 0.0
H681 H 0.34359 0.502 0.83878 0.0
H682 H 0.36025 0.53889 0.92904 0.0
H683 H 0.46392 0.6629 0.88214 0.0
H684 H 0.41528 0.65135 0.87628 0.0
H685 H 0.43287 0.62439 0.86352 0.0
C686 C 0.32368 0.56683 0.84942 0.0
C687 C 0.32259 0.53816 0.83694 0.0
C688 C 0.34612 0.58163 0.87162 0.0
C689 C 0.36809 0.56825 0.88197 0.0
C690 C 0.36631 0.53899 0.8702 0.0
H691 H 0.52478 0.69047 1.01039 0.0
H692 H 0.50172 0.65572 0.97009 0.0
C693 C 0.34387 0.52413 0.84778 0.0
C694 C 0.39194 0.58471 0.9055 0.0
H695 H 0.46017 0.66334 0.92921 0.0
C696 C 0.3826 0.56591 0.92901 0.0
C697 C 0.42154 0.61981 0.90537 0.0
C698 C 0.43431 0.64072 0.88041 0.0
C699 C 0.40031 0.58196 0.95272 0.0
C700 C 0.4277 0.61781 0.95292 0.0
C701 C 0.4389 0.63597 0.92912 0.0
C702 C 0.4421 0.63759 0.97774 0.0
C703 C 0.38885 0.56059 0.97747 0.0
C704 C 0.41635 0.63933 0.99515 0.0
C705 C 0.42935 0.65917 0.01795 0.0
C706 C 0.46854 0.67792 0.02392 0.0
C707 C 0.49443 0.67623 1.00645 0.0
C708 C 0.48131 0.65639 0.98344 0.0
H709 H 0.37779 0.53273 0.97313 0.0
H710 H 0.41324 0.56978 0.99125 0.0
H711 H 0.36577 0.56283 0.98732 0.0
H712 H 0.38609 0.62577 0.99087 0.0
H713 H 0.40852 0.65988 0.03083 0.0
H714 H 0.82819 0.31273 0.02387 0.0
H715 H 0.83475 0.34517 0.06442 0.0
H716 H 0.80814 0.41378 0.02174 0.0
H717 H 0.80077 0.38132 0.9816 0.0
H718 H 0.87872 0.41587 0.08021 0.0
H719 H 0.72412 0.37165 0.07708 0.0
H720 H 0.74547 0.35309 0.05651 0.0
H721 H 0.74929 0.39384 0.04792 0.0
C722 C 0.82432 0.33505 0.02312 0.0
C723 C 0.81337 0.34413 0.99965 0.0
C724 C 0.82804 0.35354 0.04627 0.0
C725 C 0.82107 0.38142 0.0462 0.0
C726 C 0.81273 0.39186 0.0224 0.0
H727 H 0.85366 0.52541 0.17481 0.0
H728 H 0.86088 0.50023 0.13386 0.0
C729 C 0.80861 0.37329 0.99945 0.0
C730 C 0.81995 0.39828 0.07107 0.0
H731 H 0.76079 0.41411 0.10887 0.0
C732 C 0.85296 0.41546 0.08656 0.0
C733 C 0.78617 0.39738 0.07947 0.0
C734 C 0.74914 0.37773 0.06454 0.0
C735 C 0.85316 0.43212 0.11008 0.0
C736 C 0.81961 0.43197 0.11807 0.0
C737 C 0.78662 0.41456 0.10262 0.0
C738 C 0.81699 0.44772 0.14314 0.0
C739 C 0.88893 0.44899 0.12648 0.0
C740 C 0.78953 0.42681 0.16173 0.0
C741 C 0.78505 0.44111 0.18484 0.0
C742 C 0.80796 0.47681 0.19005 0.0
C743 C 0.83566 0.49783 0.17147 0.0
C744 C 0.84002 0.48342 0.14815 0.0
H745 H 0.90897 0.43992 0.12088 0.0
H746 H 0.90371 0.47748 0.1236 0.0
H747 H 0.88201 0.44358 0.14762 0.0
H748 H 0.77133 0.39926 0.1583 0.0
H749 H 0.76343 0.424 0.1986 0.0
H750 H 0.32734 0.73841 0.35293 0.0
H751 H 0.36562 0.75058 0.3135 0.0
H752 H 0.37894 0.8526 0.30915 0.0
H753 H 0.34052 0.84081 0.34915 0.0
H754 H 0.35644 0.81299 0.26084 0.0
H755 H 0.48248 0.81637 0.30602 0.0
H756 H 0.43808 0.77922 0.31554 0.0
H757 H 0.44807 0.8219 0.3248 0.0
C758 C 0.33857 0.76364 0.34388 0.0
C759 C 0.33106 0.78878 0.3545 0.0
C760 C 0.36065 0.77057 0.32132 0.0
C761 C 0.37574 0.8027 0.3087 0.0
C762 C 0.36789 0.82775 0.31882 0.0
H763 H 0.52692 0.83682 0.17308 0.0
H764 H 0.50262 0.84922 0.21334 0.0
C765 C 0.34593 0.82095 0.34165 0.0
C766 C 0.39818 0.80895 0.28428 0.0
H767 H 0.47479 0.80591 0.25956 0.0
C768 C 0.38273 0.81217 0.26057 0.0
C769 C 0.43271 0.80828 0.28398 0.0
C770 C 0.45157 0.8066 0.30898 0.0
C771 C 0.39957 0.81236 0.23644 0.0
C772 C 0.43248 0.80901 0.23608 0.0
C773 C 0.44937 0.80819 0.25985 0.0
C774 C 0.44729 0.80262 0.21138 0.0
C775 C 0.38137 0.81512 0.21148 0.0
C776 C 0.4245 0.77209 0.19726 0.0
C777 C 0.43828 0.76478 0.17454 0.0
C778 C 0.47527 0.78792 0.16525 0.0
C779 C 0.49824 0.81853 0.17953 0.0
C780 C 0.48442 0.82568 0.20251 0.0
H781 H 0.3639 0.82755 0.21497 0.0
H782 H 0.40328 0.83022 0.1964 0.0
H783 H 0.36228 0.78871 0.20361 0.0
H784 H 0.39609 0.75355 0.20407 0.0
H785 H 0.41979 0.74076 0.16436 0.0
loop_
_geom_bond_atom_site_label_1
_geom_bond_atom_site_label_2
_geom_bond_distance
_geom_bond_site_symmetry_2
_ccdc_geom_bond_type
Co0 O2 2.143 . S
Co0 O8 2.074 . S
Co0 O11 2.093 . S
Co0 O24 2.097 . S
Co0 N41 2.151 . S
Co0 N49 2.214 . S
Co1 O2 2.160 . S
Co1 O7 2.058 . S
Co1 O17 2.057 . S
Co1 O32 2.037 . S
Co1 N36 2.145 . S
Co1 N57 2.257 . S
O2 Co0 2.143 . S
O2 Co1 2.160 . S
C3 O4 1.278 . S
C3 O11 1.224 . S
O4 C3 1.278 . S
C5 O6 1.245 . S
C5 O17 1.232 . S
O6 C5 1.245 . S
O7 Co1 2.058 . S
O7 C33 1.269 . S
O8 Co0 2.074 . S
O8 C33 1.257 . S
H9 C34 0.930 . S
H10 C40 0.930 . S
O11 Co0 2.093 . S
O11 C3 1.224 . S
H12 C44 0.929 . S
H13 C46 0.930 . S
H14 C47 0.930 . S
H15 C45 0.929 . S
H16 C48 0.928 . S
O17 Co1 2.057 . S
O17 C5 1.232 . S
H18 C37 0.929 . S
H19 C38 0.929 . S
H20 C50 0.931 . S
H21 C42 0.929 . S
H22 C51 0.930 . S
H23 C43 0.931 . S
O24 Co0 2.097 . S
O24 C52 1.214 . S
H25 C53 0.929 . S
H26 C54 0.929 . S
H27 C55 0.930 . S
H28 C56 0.929 . S
H29 C58 0.930 . S
H30 C35 0.930 . S
H31 C39 0.930 . S
O32 Co1 2.037 . S
O32 C52 1.234 . S
C33 O7 1.269 . S
C33 O8 1.257 . S
C34 H9 0.930 . S
C34 C37 1.388 . S
C34 C39 1.418 . S
C35 H30 0.930 . S
C35 C38 1.404 . S
C35 C39 1.353 . S
N36 Co1 2.145 . S
N36 C37 1.397 . S
N36 C38 1.334 . S
C37 H18 0.929 . S
C37 C34 1.388 . S
C37 N36 1.397 . S
C38 H19 0.929 . S
C38 C35 1.404 . S
C38 N36 1.334 . S
C39 H31 0.930 . S
C39 C34 1.418 . S
C39 C35 1.353 . S
C40 H10 0.930 . S
C40 N41 1.330 . S
C40 C42 1.446 . S
N41 Co0 2.151 . S
N41 C40 1.330 . S
N41 C45 1.418 . S
C42 H21 0.929 . S
C42 C40 1.446 . S
C42 C43 1.332 . S
C43 H23 0.931 . S
C43 C42 1.332 . S
C43 C44 1.267 . S
C44 H12 0.929 . S
C44 C43 1.267 . S
C44 C45 1.251 . S
C45 H15 0.929 . S
C45 N41 1.418 . S
C45 C44 1.251 . S
C46 H13 0.930 . S
C46 C48 1.406 . S
C46 C51 1.261 . S
C47 H14 0.930 . S
C47 N49 1.325 . S
C47 C50 1.357 . S
C48 H16 0.928 . S
C48 C46 1.406 . S
C48 N49 1.261 . S
N49 Co0 2.214 . S
N49 C47 1.325 . S
N49 C48 1.261 . S
C50 H20 0.931 . S
C50 C47 1.357 . S
C50 C51 1.312 . S
C51 H22 0.930 . S
C51 C46 1.261 . S
C51 C50 1.312 . S
C52 O24 1.214 . S
C52 O32 1.234 . S
C53 H25 0.929 . S
C53 C56 1.391 . S
C53 C58 1.391 . S
C54 H26 0.929 . S
C54 C55 1.390 . S
C54 N57 1.391 . S
C55 H27 0.930 . S
C55 C54 1.390 . S
C55 C56 1.392 . S
C56 H28 0.929 . S
C56 C53 1.391 . S
C56 C55 1.392 . S
N57 Co1 2.257 . S
N57 C54 1.391 . S
N57 C58 1.388 . S
C58 H29 0.930 . S
C58 C53 1.391 . S
C58 N57 1.388 . S
Co59 O61 2.143 . S
Co59 O67 2.074 . S
Co59 O70 2.093 . S
Co59 O83 2.097 . S
Co59 N100 2.151 . S
Co59 N108 2.214 . S
Co60 O61 2.160 . S
Co60 O66 2.058 . S
Co60 O76 2.057 . S
Co60 O91 2.037 . S
Co60 N95 2.145 . S
Co60 N116 2.257 . S
O61 Co59 2.143 . S
O61 Co60 2.160 . S
C62 O63 1.278 . S
C62 O70 1.224 . S
O63 C62 1.278 . S
C64 O65 1.245 . S
C64 O76 1.232 . S
O65 C64 1.245 . S
O66 Co60 2.058 . S
O66 C92 1.269 . S
O67 Co59 2.074 . S
O67 C92 1.257 . S
H68 C93 0.930 . S
H69 C99 0.930 . S
O70 Co59 2.093 . S
O70 C62 1.224 . S
H71 C103 0.929 . S
H72 C105 0.930 . S
H73 C106 0.930 . S
H74 C104 0.929 . S
H75 C107 0.928 . S
O76 Co60 2.057 . S
O76 C64 1.232 . S
H77 C96 0.929 . S
H78 C97 0.929 . S
H79 C109 0.931 . S
H80 C101 0.929 . S
H81 C110 0.930 . S
H82 C102 0.931 . S
O83 Co59 2.097 . S
O83 C111 1.214 . S
H84 C112 0.929 . S
H85 C113 0.929 . S
H86 C114 0.930 . S
H87 C115 0.929 . S
H88 C117 0.930 . S
H89 C94 0.930 . S
H90 C98 0.930 . S
O91 Co60 2.037 . S
O91 C111 1.234 . S
C92 O66 1.269 . S
C92 O67 1.257 . S
C93 H68 0.930 . S
C93 C96 1.388 . S
C93 C98 1.418 . S
C94 H89 0.930 . S
C94 C97 1.404 . S
C94 C98 1.353 . S
N95 Co60 2.145 . S
N95 C96 1.397 . S
N95 C97 1.334 . S
C96 H77 0.929 . S
C96 C93 1.388 . S
C96 N95 1.397 . S
C97 H78 0.929 . S
C97 C94 1.404 . S
C97 N95 1.334 . S
C98 H90 0.930 . S
C98 C93 1.418 . S
C98 C94 1.353 . S
C99 H69 0.930 . S
C99 N100 1.330 . S
C99 C101 1.446 . S
N100 Co59 2.151 . S
N100 C99 1.330 . S
N100 C104 1.418 . S
C101 H80 0.929 . S
C101 C99 1.446 . S
C101 C102 1.332 . S
C102 H82 0.931 . S
C102 C101 1.332 . S
C102 C103 1.267 . S
C103 H71 0.929 . S
C103 C102 1.267 . S
C103 C104 1.251 . S
C104 H74 0.929 . S
C104 N100 1.418 . S
C104 C103 1.251 . S
C105 H72 0.930 . S
C105 C107 1.406 . S
C105 C110 1.261 . S
C106 H73 0.930 . S
C106 N108 1.325 . S
C106 C109 1.357 . S
C107 H75 0.928 . S
C107 C105 1.406 . S
C107 N108 1.261 . S
N108 Co59 2.214 . S
N108 C106 1.325 . S
N108 C107 1.261 . S
C109 H79 0.931 . S
C109 C106 1.357 . S
C109 C110 1.312 . S
C110 H81 0.930 . S
C110 C105 1.261 . S
C110 C109 1.312 . S
C111 O83 1.214 . S
C111 O91 1.234 . S
C112 H84 0.929 . S
C112 C115 1.391 . S
C112 C117 1.391 . S
C113 H85 0.929 . S
C113 C114 1.390 . S
C113 N116 1.391 . S
C114 H86 0.930 . S
C114 C113 1.390 . S
C114 C115 1.392 . S
C115 H87 0.929 . S
C115 C112 1.391 . S
C115 C114 1.392 . S
N116 Co60 2.257 . S
N116 C113 1.391 . S
N116 C117 1.388 . S
C117 H88 0.930 . S
C117 C112 1.391 . S
C117 N116 1.388 . S
Co118 O120 2.143 . S
Co118 O126 2.074 . S
Co118 O129 2.093 . S
Co118 O142 2.097 . S
Co118 N159 2.151 . S
Co118 N167 2.214 . S
Co119 O120 2.160 . S
Co119 O125 2.058 . S
Co119 O135 2.057 . S
Co119 O150 2.037 . S
Co119 N154 2.145 . S
Co119 N175 2.257 . S
O120 Co118 2.143 . S
O120 Co119 2.160 . S
C121 O122 1.278 . S
C121 O129 1.224 . S
O122 C121 1.278 . S
C123 O124 1.245 . S
C123 O135 1.232 . S
O124 C123 1.245 . S
O125 Co119 2.058 . S
O125 C151 1.269 . S
O126 Co118 2.074 . S
O126 C151 1.257 . S
H127 C152 0.930 . S
H128 C158 0.930 . S
O129 Co118 2.093 . S
O129 C121 1.224 . S
H130 C162 0.929 . S
H131 C164 0.930 . S
H132 C165 0.930 . S
H133 C163 0.929 . S
H134 C166 0.928 . S
O135 Co119 2.057 . S
O135 C123 1.232 . S
H136 C155 0.929 . S
H137 C156 0.929 . S
H138 C168 0.931 . S
H139 C160 0.929 . S
H140 C169 0.930 . S
H141 C161 0.931 . S
O142 Co118 2.097 . S
O142 C170 1.214 . S
H143 C171 0.929 1_554 S
H144 C172 0.929 . S
H145 C173 0.930 . S
H146 C174 0.929 . S
H147 C176 0.930 . S
H148 C153 0.930 . S
H149 C157 0.930 . S
O150 Co119 2.037 . S
O150 C170 1.234 . S
C151 O125 1.269 . S
C151 O126 1.257 . S
C152 H127 0.930 . S
C152 C155 1.388 . S
C152 C157 1.418 . S
C153 H148 0.930 . S
C153 C156 1.404 . S
C153 C157 1.353 . S
N154 Co119 2.145 . S
N154 C155 1.397 . S
N154 C156 1.334 . S
C155 H136 0.929 . S
C155 C152 1.388 . S
C155 N154 1.397 . S
C156 H137 0.929 . S
C156 C153 1.404 . S
C156 N154 1.334 . S
C157 H149 0.930 . S
C157 C152 1.418 . S
C157 C153 1.353 . S
C158 H128 0.930 . S
C158 N159 1.330 . S
C158 C160 1.446 . S
N159 Co118 2.151 . S
N159 C158 1.330 . S
N159 C163 1.418 . S
C160 H139 0.929 . S
C160 C158 1.446 . S
C160 C161 1.332 . S
C161 H141 0.931 . S
C161 C160 1.332 . S
C161 C162 1.267 . S
C162 H130 0.929 . S
C162 C161 1.267 . S
C162 C163 1.251 . S
C163 H133 0.929 . S
C163 N159 1.418 . S
C163 C162 1.251 . S
C164 H131 0.930 . S
C164 C166 1.406 . S
C164 C169 1.261 . S
C165 H132 0.930 . S
C165 N167 1.325 . S
C165 C168 1.357 . S
C166 H134 0.928 . S
C166 C164 1.406 . S
C166 N167 1.261 . S
N167 Co118 2.214 . S
N167 C165 1.325 . S
N167 C166 1.261 . S
C168 H138 0.931 . S
C168 C165 1.357 . S
C168 C169 1.312 . S
C169 H140 0.930 . S
C169 C164 1.261 . S
C169 C168 1.312 . S
C170 O142 1.214 . S
C170 O150 1.234 . S
C171 H143 0.929 1_556 S
C171 C174 1.391 . S
C171 C176 1.391 . S
C172 H144 0.929 . S
C172 C173 1.390 . S
C172 N175 1.391 . S
C173 H145 0.930 . S
C173 C172 1.390 . S
C173 C174 1.392 . S
C174 H146 0.929 . S
C174 C171 1.391 . S
C174 C173 1.392 . S
N175 Co119 2.257 . S
N175 C172 1.391 . S
N175 C176 1.388 . S
C176 H147 0.930 . S
C176 C171 1.391 . S
C176 N175 1.388 . S
Co177 O179 2.143 . S
Co177 O185 2.074 . S
Co177 O188 2.093 . S
Co177 O201 2.097 . S
Co177 N218 2.151 . S
Co177 N226 2.214 . S
Co178 O179 2.160 . S
Co178 O184 2.058 . S
Co178 O194 2.057 . S
Co178 O209 2.037 . S
Co178 N213 2.145 . S
Co178 N234 2.257 . S
O179 Co177 2.143 . S
O179 Co178 2.160 . S
C180 O181 1.278 . S
C180 O188 1.224 . S
O181 C180 1.278 . S
C182 O183 1.245 . S
C182 O194 1.232 . S
O183 C182 1.245 . S
O184 Co178 2.058 . S
O184 C210 1.269 . S
O185 Co177 2.074 . S
O185 C210 1.257 . S
H186 C211 0.930 . S
H187 C217 0.930 . S
O188 Co177 2.093 . S
O188 C180 1.224 . S
H189 C221 0.929 . S
H190 C223 0.930 . S
H191 C224 0.930 . S
H192 C222 0.929 . S
H193 C225 0.928 . S
O194 Co178 2.057 . S
O194 C182 1.232 . S
H195 C214 0.929 . S
H196 C215 0.929 . S
H197 C227 0.931 . S
H198 C219 0.929 . S
H199 C228 0.930 . S
H200 C220 0.931 . S
O201 Co177 2.097 . S
O201 C229 1.214 . S
H202 C230 0.929 . S
H203 C231 0.929 . S
H204 C232 0.930 . S
H205 C233 0.929 . S
H206 C235 0.930 . S
H207 C212 0.930 . S
H208 C216 0.930 . S
O209 Co178 2.037 . S
O209 C229 1.234 . S
C210 O184 1.269 . S
C210 O185 1.257 . S
C211 H186 0.930 . S
C211 C214 1.388 . S
C211 C216 1.418 . S
C212 H207 0.930 . S
C212 C215 1.404 . S
C212 C216 1.353 . S
N213 Co178 2.145 . S
N213 C214 1.397 . S
N213 C215 1.334 . S
C214 H195 0.929 . S
C214 C211 1.388 . S
C214 N213 1.397 . S
C215 H196 0.929 . S
C215 C212 1.404 . S
C215 N213 1.334 . S
C216 H208 0.930 . S
C216 C211 1.418 . S
C216 C212 1.353 . S
C217 H187 0.930 . S
C217 N218 1.330 . S
C217 C219 1.446 . S
N218 Co177 2.151 . S
N218 C217 1.330 . S
N218 C222 1.418 . S
C219 H198 0.929 . S
C219 C217 1.446 . S
C219 C220 1.332 . S
C220 H200 0.931 . S
C220 C219 1.332 . S
C220 C221 1.267 . S
C221 H189 0.929 . S
C221 C220 1.267 . S
C221 C222 1.251 . S
C222 H192 0.929 . S
C222 N218 1.418 . S
C222 C221 1.251 . S
C223 H190 0.930 . S
C223 C225 1.406 . S
C223 C228 1.261 . S
C224 H191 0.930 . S
C224 N226 1.325 . S
C224 C227 1.357 . S
C225 H193 0.928 . S
C225 C223 1.406 . S
C225 N226 1.261 . S
N226 Co177 2.214 . S
N226 C224 1.325 . S
N226 C225 1.261 . S
C227 H197 0.931 . S
C227 C224 1.357 . S
C227 C228 1.312 . S
C228 H199 0.930 . S
C228 C223 1.261 . S
C228 C227 1.312 . S
C229 O201 1.214 . S
C229 O209 1.234 . S
C230 H202 0.929 . S
C230 C233 1.391 . S
C230 C235 1.391 . S
C231 H203 0.929 . S
C231 C232 1.390 . S
C231 N234 1.391 . S
C232 H204 0.930 . S
C232 C231 1.390 . S
C232 C233 1.392 . S
C233 H205 0.929 . S
C233 C230 1.391 . S
C233 C232 1.392 . S
N234 Co178 2.257 . S
N234 C231 1.391 . S
N234 C235 1.388 . S
C235 H206 0.930 . S
C235 C230 1.391 . S
C235 N234 1.388 . S
Co236 O238 2.143 . S
Co236 O244 2.074 . S
Co236 O247 2.093 . S
Co236 O260 2.097 . S
Co236 N277 2.151 . S
Co236 N285 2.214 . S
Co237 O238 2.160 . S
Co237 O243 2.058 . S
Co237 O253 2.057 . S
Co237 O268 2.037 . S
Co237 N272 2.145 . S
Co237 N293 2.257 . S
O238 Co236 2.143 . S
O238 Co237 2.160 . S
C239 O240 1.278 . S
C239 O247 1.224 . S
O240 C239 1.278 . S
C241 O242 1.245 . S
C241 O253 1.232 . S
O242 C241 1.245 . S
O243 Co237 2.058 . S
O243 C269 1.269 . S
O244 Co236 2.074 . S
O244 C269 1.257 . S
H245 C270 0.930 . S
H246 C276 0.930 . S
O247 Co236 2.093 . S
O247 C239 1.224 . S
H248 C280 0.929 . S
H249 C282 0.930 . S
H250 C283 0.930 . S
H251 C281 0.929 . S
H252 C284 0.928 . S
O253 Co237 2.057 . S
O253 C241 1.232 . S
H254 C273 0.929 . S
H255 C274 0.929 . S
H256 C286 0.931 . S
H257 C278 0.929 . S
H258 C287 0.930 . S
H259 C279 0.931 . S
O260 Co236 2.097 . S
O260 C288 1.214 . S
H261 C289 0.929 . S
H262 C290 0.929 . S
H263 C291 0.930 . S
H264 C292 0.929 . S
H265 C294 0.930 . S
H266 C271 0.930 . S
H267 C275 0.930 . S
O268 Co237 2.037 . S
O268 C288 1.234 . S
C269 O243 1.269 . S
C269 O244 1.257 . S
C270 H245 0.930 . S
C270 C273 1.388 . S
C270 C275 1.418 . S
C271 H266 0.930 . S
C271 C274 1.404 . S
C271 C275 1.353 . S
N272 Co237 2.145 . S
N272 C273 1.397 . S
N272 C274 1.334 . S
C273 H254 0.929 . S
C273 C270 1.388 . S
C273 N272 1.397 . S
C274 H255 0.929 . S
C274 C271 1.404 . S
C274 N272 1.334 . S
C275 H267 0.930 . S
C275 C270 1.418 . S
C275 C271 1.353 . S
C276 H246 0.930 . S
C276 N277 1.330 . S
C276 C278 1.446 . S
N277 Co236 2.151 . S
N277 C276 1.330 . S
N277 C281 1.418 . S
C278 H257 0.929 . S
C278 C276 1.446 . S
C278 C279 1.332 . S
C279 H259 0.931 . S
C279 C278 1.332 . S
C279 C280 1.267 . S
C280 H248 0.929 . S
C280 C279 1.267 . S
C280 C281 1.251 . S
C281 H251 0.929 . S
C281 N277 1.418 . S
C281 C280 1.251 . S
C282 H249 0.930 . S
C282 C284 1.406 . S
C282 C287 1.261 . S
C283 H250 0.930 . S
C283 N285 1.325 . S
C283 C286 1.357 . S
C284 H252 0.928 . S
C284 C282 1.406 . S
C284 N285 1.261 . S
N285 Co236 2.214 . S
N285 C283 1.325 . S
N285 C284 1.261 . S
C286 H256 0.931 . S
C286 C283 1.357 . S
C286 C287 1.312 . S
C287 H258 0.930 . S
C287 C282 1.261 . S
C287 C286 1.312 . S
C288 O260 1.214 . S
C288 O268 1.234 . S
C289 H261 0.929 . S
C289 C292 1.391 . S
C289 C294 1.391 . S
C290 H262 0.929 . S
C290 C291 1.390 . S
C290 N293 1.391 . S
C291 H263 0.930 . S
C291 C290 1.390 . S
C291 C292 1.392 . S
C292 H264 0.929 . S
C292 C289 1.391 . S
C292 C291 1.392 . S
N293 Co237 2.257 . S
N293 C290 1.391 . S
N293 C294 1.388 . S
C294 H265 0.930 . S
C294 C289 1.391 . S
C294 N293 1.388 . S
Co295 O297 2.143 . S
Co295 O303 2.074 . S
Co295 O306 2.093 . S
Co295 O319 2.097 . S
Co295 N336 2.151 . S
Co295 N344 2.214 . S
Co296 O297 2.160 . S
Co296 O302 2.058 . S
Co296 O312 2.057 . S
Co296 O327 2.037 . S
Co296 N331 2.145 . S
Co296 N352 2.257 . S
O297 Co295 2.143 . S
O297 Co296 2.160 . S
C298 O299 1.278 . S
C298 O306 1.224 . S
O299 C298 1.278 . S
C300 O301 1.245 . S
C300 O312 1.232 . S
O301 C300 1.245 . S
O302 Co296 2.058 . S
O302 C328 1.269 . S
O303 Co295 2.074 . S
O303 C328 1.257 . S
H304 C329 0.930 . S
H305 C335 0.930 . S
O306 Co295 2.093 . S
O306 C298 1.224 . S
H307 C339 0.929 . S
H308 C341 0.930 . S
H309 C342 0.930 . S
H310 C340 0.929 . S
H311 C343 0.928 . S
O312 Co296 2.057 . S
O312 C300 1.232 . S
H313 C332 0.929 . S
H314 C333 0.929 . S
H315 C345 0.931 . S
H316 C337 0.929 . S
H317 C346 0.930 . S
H318 C338 0.931 . S
O319 Co295 2.097 . S
O319 C347 1.214 . S
H320 C348 0.929 . S
H321 C349 0.929 . S
H322 C350 0.930 . S
H323 C351 0.929 . S
H324 C353 0.930 . S
H325 C330 0.930 . S
H326 C334 0.930 . S
O327 Co296 2.037 . S
O327 C347 1.234 . S
C328 O302 1.269 . S
C328 O303 1.257 . S
C329 H304 0.930 . S
C329 C332 1.388 . S
C329 C334 1.418 . S
C330 H325 0.930 . S
C330 C333 1.404 . S
C330 C334 1.353 . S
N331 Co296 2.145 . S
N331 C332 1.397 . S
N331 C333 1.334 . S
C332 H313 0.929 . S
C332 C329 1.388 . S
C332 N331 1.397 . S
C333 H314 0.929 . S
C333 C330 1.404 . S
C333 N331 1.334 . S
C334 H326 0.930 . S
C334 C329 1.418 . S
C334 C330 1.353 . S
C335 H305 0.930 . S
C335 N336 1.330 . S
C335 C337 1.446 . S
N336 Co295 2.151 . S
N336 C335 1.330 . S
N336 C340 1.418 . S
C337 H316 0.929 . S
C337 C335 1.446 . S
C337 C338 1.332 . S
C338 H318 0.931 . S
C338 C337 1.332 . S
C338 C339 1.267 . S
C339 H307 0.929 . S
C339 C338 1.267 . S
C339 C340 1.251 . S
C340 H310 0.929 . S
C340 N336 1.418 . S
C340 C339 1.251 . S
C341 H308 0.930 . S
C341 C343 1.406 . S
C341 C346 1.261 . S
C342 H309 0.930 . S
C342 N344 1.325 . S
C342 C345 1.357 . S
C343 H311 0.928 . S
C343 C341 1.406 . S
C343 N344 1.261 . S
N344 Co295 2.214 . S
N344 C342 1.325 . S
N344 C343 1.261 . S
C345 H315 0.931 . S
C345 C342 1.357 . S
C345 C346 1.312 . S
C346 H317 0.930 . S
C346 C341 1.261 . S
C346 C345 1.312 . S
C347 O319 1.214 . S
C347 O327 1.234 . S
C348 H320 0.929 . S
C348 C351 1.391 . S
C348 C353 1.391 . S
C349 H321 0.929 . S
C349 C350 1.390 . S
C349 N352 1.391 . S
C350 H322 0.930 . S
C350 C349 1.390 . S
C350 C351 1.392 . S
C351 H323 0.929 . S
C351 C348 1.391 . S
C351 C350 1.392 . S
N352 Co296 2.257 . S
N352 C349 1.391 . S
N352 C353 1.388 . S
C353 H324 0.930 . S
C353 C348 1.391 . S
C353 N352 1.388 . S
H354 C362 0.929 . S
H355 C364 0.930 . S
H356 C366 0.930 . S
H357 C369 0.929 . S
H358 C372 0.930 . S
H359 C374 0.960 . S
H360 C374 0.960 . S
H361 C374 0.960 . S
C362 H354 0.929 . S
C362 C363 1.377 . S
C362 C364 1.384 . S
C363 C362 1.377 . S
C363 C369 1.390 . S
C364 H355 0.930 . S
C364 C362 1.384 . S
C364 C365 1.372 . S
C365 C364 1.372 . S
C365 C366 1.400 . S
C365 C370 1.490 . S
C366 H356 0.930 . S
C366 C365 1.400 . S
C366 C369 1.386 . S
H367 C383 0.930 . S
H368 C384 0.931 . S
C369 H357 0.929 . S
C369 C363 1.390 . S
C369 C366 1.386 . S
C370 C365 1.490 . S
C370 C372 1.395 . S
C370 C373 1.403 . S
H371 C377 0.930 . S
C372 H358 0.930 . S
C372 C370 1.395 . S
C372 C375 1.403 1_545 S
C373 C370 1.403 . S
C373 C374 1.524 . S
C373 C377 1.400 1_545 S
C374 H359 0.960 . S
C374 H360 0.960 . S
C374 H361 0.960 . S
C374 C373 1.524 . S
C375 C372 1.403 1_565 S
C375 C376 1.392 . S
C375 C379 1.495 . S
C376 C375 1.392 . S
C376 C377 1.385 . S
C376 C378 1.478 . S
C377 H371 0.930 . S
C377 C373 1.400 1_565 S
C377 C376 1.385 . S
C378 C376 1.478 . S
C378 C380 1.381 . S
C378 C384 1.383 . S
C379 C375 1.495 . S
C379 H385 0.949 1_565 S
C379 H386 0.961 . S
C379 H387 0.960 . S
C380 C378 1.381 . S
C380 C381 1.394 . S
C380 H388 0.930 . S
C381 C380 1.394 . S
C381 C382 1.383 . S
C381 H389 0.929 . S
C382 C381 1.383 . S
C382 C383 1.377 . S
C383 H367 0.930 . S
C383 C382 1.377 . S
C383 C384 1.379 . S
C384 H368 0.931 . S
C384 C378 1.383 . S
C384 C383 1.379 . S
H385 C379 0.949 1_545 S
H386 C379 0.961 . S
H387 C379 0.960 . S
H388 C380 0.930 . S
H389 C381 0.929 . S
H390 C398 0.929 . S
H391 C400 0.930 . S
H392 C402 0.930 . S
H393 C405 0.929 . S
H394 C408 0.930 . S
H395 C410 0.960 . S
H396 C410 0.960 . S
H397 C410 0.960 . S
C398 H390 0.929 . S
C398 C399 1.377 . S
C398 C400 1.384 . S
C399 C398 1.377 . S
C399 C405 1.390 . S
C400 H391 0.930 . S
C400 C398 1.384 . S
C400 C401 1.372 . S
C401 C400 1.372 . S
C401 C402 1.400 . S
C401 C406 1.490 . S
C402 H392 0.930 . S
C402 C401 1.400 . S
C402 C405 1.386 . S
H403 C419 0.930 . S
H404 C420 0.931 . S
C405 H393 0.929 . S
C405 C399 1.390 . S
C405 C402 1.386 . S
C406 C401 1.490 . S
C406 C408 1.395 . S
C406 C409 1.403 . S
H407 C413 0.930 . S
C408 H394 0.930 . S
C408 C406 1.395 . S
C408 C411 1.403 . S
C409 C406 1.403 . S
C409 C410 1.524 . S
C409 C413 1.400 . S
C410 H395 0.960 . S
C410 H396 0.960 . S
C410 H397 0.960 . S
C410 C409 1.524 . S
C411 C408 1.403 . S
C411 C412 1.392 . S
C411 C415 1.495 . S
C412 C411 1.392 . S
C412 C413 1.385 . S
C412 C414 1.478 . S
C413 H407 0.930 . S
C413 C409 1.400 . S
C413 C412 1.385 . S
C414 C412 1.478 . S
C414 C416 1.381 . S
C414 C420 1.383 . S
C415 C411 1.495 . S
C415 H421 0.959 . S
C415 H422 0.961 . S
C415 H423 0.960 . S
C416 C414 1.381 . S
C416 C417 1.394 . S
C416 H424 0.930 . S
C417 C416 1.394 . S
C417 C418 1.383 . S
C417 H425 0.929 . S
C418 C417 1.383 . S
C418 C419 1.377 . S
C419 H403 0.930 . S
C419 C418 1.377 . S
C419 C420 1.379 . S
C420 H404 0.931 . S
C420 C414 1.383 . S
C420 C419 1.379 . S
H421 C415 0.959 . S
H422 C415 0.961 . S
H423 C415 0.960 . S
H424 C416 0.930 . S
H425 C417 0.929 . S
H426 C434 0.929 . S
H427 C436 0.930 . S
H428 C438 0.930 . S
H429 C441 0.929 . S
H430 C444 0.930 . S
H431 C446 0.960 . S
H432 C446 0.960 . S
H433 C446 0.960 . S
C434 H426 0.929 . S
C434 C435 1.377 . S
C434 C436 1.384 . S
C435 C434 1.377 . S
C435 C441 1.390 . S
C436 H427 0.930 . S
C436 C434 1.384 . S
C436 C437 1.372 . S
C437 C436 1.372 . S
C437 C438 1.400 . S
C437 C442 1.490 . S
C438 H428 0.930 . S
C438 C437 1.400 . S
C438 C441 1.386 . S
H439 C455 0.930 . S
H440 C456 0.931 . S
C441 H429 0.929 . S
C441 C435 1.390 . S
C441 C438 1.386 . S
C442 C437 1.490 . S
C442 C444 1.395 . S
C442 C445 1.403 . S
H443 C449 0.930 . S
C444 H430 0.930 . S
C444 C442 1.395 . S
C444 C447 1.403 1_655 S
C445 C442 1.403 . S
C445 C446 1.524 . S
C445 C449 1.400 1_655 S
C446 H431 0.960 . S
C446 H432 0.960 . S
C446 H433 0.960 . S
C446 C445 1.524 . S
C447 C444 1.403 1_455 S
C447 C448 1.392 . S
C447 C451 1.495 . S
C448 C447 1.392 . S
C448 C449 1.385 . S
C448 C450 1.478 . S
C449 H443 0.930 . S
C449 C445 1.400 1_455 S
C449 C448 1.385 . S
C450 C448 1.478 . S
C450 C452 1.381 . S
C450 C456 1.383 . S
C451 C447 1.495 . S
C451 H457 0.959 . S
C451 H458 0.961 . S
C451 H459 0.960 . S
C452 C450 1.381 . S
C452 C453 1.394 . S
C452 H460 0.930 . S
C453 C452 1.394 . S
C453 C454 1.383 . S
C453 H461 0.929 . S
C454 C453 1.383 . S
C454 C455 1.377 . S
C455 H439 0.930 . S
C455 C454 1.377 . S
C455 C456 1.379 . S
C456 H440 0.931 . S
C456 C450 1.383 . S
C456 C455 1.379 . S
H457 C451 0.959 . S
H458 C451 0.961 . S
H459 C451 0.960 . S
H460 C452 0.930 . S
H461 C453 0.929 . S
H462 C470 0.929 . S
H463 C472 0.930 . S
H464 C474 0.930 1_556 S
H465 C477 0.929 . S
H466 C480 0.930 . S
H467 C482 0.960 . S
H468 C482 0.960 . S
H469 C482 0.960 . S
C470 H462 0.929 . S
C470 C471 1.377 . S
C470 C472 1.384 . S
C471 C470 1.377 . S
C471 C477 1.390 . S
C472 H463 0.930 . S
C472 C470 1.384 . S
C472 C473 1.372 . S
C473 C472 1.372 . S
C473 C474 1.400 . S
C473 C478 1.490 . S
C474 H464 0.930 1_554 S
C474 C473 1.400 . S
C474 C477 1.386 . S
H475 C491 0.930 . S
H476 C492 0.931 . S
C477 H465 0.929 . S
C477 C471 1.390 . S
C477 C474 1.386 . S
C478 C473 1.490 . S
C478 C480 1.395 . S
C478 C481 1.403 1_554 S
H479 C485 0.930 . S
C480 H466 0.930 . S
C480 C478 1.395 . S
C480 C483 1.403 1_565 S
C481 C478 1.403 1_556 S
C481 C482 1.524 . S
C481 C485 1.400 1_565 S
C482 H467 0.960 . S
C482 H468 0.960 . S
C482 H469 0.960 . S
C482 C481 1.524 . S
C483 C480 1.403 1_545 S
C483 C484 1.392 1_554 S
C483 C487 1.495 . S
C484 C483 1.392 1_556 S
C484 C485 1.385 . S
C484 C486 1.478 . S
C485 H479 0.930 . S
C485 C481 1.400 1_545 S
C485 C484 1.385 . S
C486 C484 1.478 . S
C486 C488 1.381 . S
C486 C492 1.383 . S
C487 C483 1.495 . S
C487 H493 0.959 . S
C487 H494 0.961 . S
C487 H495 0.960 . S
C488 C486 1.381 . S
C488 C489 1.394 . S
C488 H496 0.930 1_556 S
C489 C488 1.394 . S
C489 C490 1.383 . S
C489 H497 0.929 . S
C490 C489 1.383 . S
C490 C491 1.377 . S
C491 H475 0.930 . S
C491 C490 1.377 . S
C491 C492 1.379 . S
C492 H476 0.931 . S
C492 C486 1.383 . S
C492 C491 1.379 . S
H493 C487 0.959 . S
H494 C487 0.961 . S
H495 C487 0.960 . S
H496 C488 0.930 1_554 S
H497 C489 0.929 . S
H498 C506 0.929 . S
H499 C508 0.930 . S
H500 C510 0.930 . S
H501 C513 0.929 . S
H502 C516 0.930 . S
H503 C518 0.960 . S
H504 C518 0.960 . S
H505 C518 0.960 . S
C506 H498 0.929 . S
C506 C507 1.377 . S
C506 C508 1.384 . S
C507 C506 1.377 . S
C507 C513 1.390 . S
C508 H499 0.930 . S
C508 C506 1.384 . S
C508 C509 1.372 . S
C509 C508 1.372 . S
C509 C510 1.400 . S
C509 C514 1.490 . S
C510 H500 0.930 . S
C510 C509 1.400 . S
C510 C513 1.386 . S
H511 C527 0.930 . S
H512 C528 0.931 . S
C513 H501 0.929 . S
C513 C507 1.390 . S
C513 C510 1.386 . S
C514 C509 1.490 . S
C514 C516 1.395 . S
C514 C517 1.403 . S
H515 C521 0.930 . S
C516 H502 0.930 . S
C516 C514 1.395 . S
C516 C519 1.403 . S
C517 C514 1.403 . S
C517 C518 1.524 . S
C517 C521 1.400 . S
C518 H503 0.960 . S
C518 H504 0.960 . S
C518 H505 0.960 . S
C518 C517 1.524 . S
C519 C516 1.403 . S
C519 C520 1.392 . S
C519 C523 1.495 . S
C520 C519 1.392 . S
C520 C521 1.385 . S
C520 C522 1.478 . S
C521 H515 0.930 . S
C521 C517 1.400 . S
C521 C520 1.385 . S
C522 C520 1.478 . S
C522 C524 1.381 . S
C522 C528 1.383 . S
C523 C519 1.495 . S
C523 H529 0.959 . S
C523 H530 0.961 . S
C523 H531 0.960 . S
C524 C522 1.381 . S
C524 C525 1.394 . S
C524 H532 0.930 . S
C525 C524 1.394 . S
C525 C526 1.383 . S
C525 H533 0.929 . S
C526 C525 1.383 . S
C526 C527 1.377 . S
C527 H511 0.930 . S
C527 C526 1.377 . S
C527 C528 1.379 . S
C528 H512 0.931 . S
C528 C522 1.383 . S
C528 C527 1.379 . S
H529 C523 0.959 . S
H530 C523 0.961 . S
H531 C523 0.960 . S
H532 C524 0.930 . S
H533 C525 0.929 . S
H534 C542 0.929 . S
H535 C544 0.930 . S
H536 C546 0.930 . S
H537 C549 0.929 . S
H538 C552 0.930 . S
H539 C554 0.960 . S
H540 C554 0.960 . S
H541 C554 0.960 . S
C542 H534 0.929 . S
C542 C543 1.377 . S
C542 C544 1.384 . S
C543 C542 1.377 . S
C543 C549 1.390 . S
C544 H535 0.930 . S
C544 C542 1.384 . S
C544 C545 1.372 . S
C545 C544 1.372 . S
C545 C546 1.400 . S
C545 C550 1.490 . S
C546 H536 0.930 . S
C546 C545 1.400 . S
C546 C549 1.386 . S
H547 C563 0.930 . S
H548 C564 0.931 . S
C549 H537 0.929 . S
C549 C543 1.390 . S
C549 C546 1.386 . S
C550 C545 1.490 . S
C550 C552 1.395 . S
C550 C553 1.403 . S
H551 C557 0.930 . S
C552 H538 0.930 . S
C552 C550 1.395 . S
C552 C555 1.403 1_455 S
C553 C550 1.403 . S
C553 C554 1.524 . S
C553 C557 1.400 1_455 S
C554 H539 0.960 . S
C554 H540 0.960 . S
C554 H541 0.960 . S
C554 C553 1.524 . S
C555 C552 1.403 1_655 S
C555 C556 1.392 . S
C555 C559 1.495 . S
C556 C555 1.392 . S
C556 C557 1.385 . S
C556 C558 1.478 . S
C557 H551 0.930 . S
C557 C553 1.400 1_655 S
C557 C556 1.385 . S
C558 C556 1.478 . S
C558 C560 1.381 . S
C558 C564 1.383 . S
C559 C555 1.495 . S
C559 H565 0.959 . S
C559 H566 0.961 . S
C559 H567 0.960 . S
C560 C558 1.381 . S
C560 C561 1.394 . S
C560 H568 0.930 . S
C561 C560 1.394 . S
C561 C562 1.383 . S
C561 H569 0.929 . S
C562 C561 1.383 . S
C562 C563 1.377 . S
C563 H547 0.930 . S
C563 C562 1.377 . S
C563 C564 1.379 . S
C564 H548 0.931 . S
C564 C558 1.383 . S
C564 C563 1.379 . S
H565 C559 0.959 . S
H566 C559 0.961 . S
H567 C559 0.960 . S
H568 C560 0.930 . S
H569 C561 0.929 . S
H570 C578 0.929 . S
H571 C580 0.930 . S
H572 C582 0.930 . S
H573 C585 0.929 . S
H574 C588 0.930 . S
H575 C590 0.960 . S
H576 C590 0.960 . S
H577 C590 0.960 . S
C578 H570 0.929 . S
C578 C579 1.377 . S
C578 C580 1.384 . S
C579 C578 1.377 . S
C579 C585 1.390 . S
C580 H571 0.930 . S
C580 C578 1.384 . S
C580 C581 1.372 . S
C581 C580 1.372 . S
C581 C582 1.400 . S
C581 C586 1.490 . S
C582 H572 0.930 . S
C582 C581 1.400 . S
C582 C585 1.386 . S
H583 C599 0.930 . S
H584 C600 0.931 . S
C585 H573 0.929 . S
C585 C579 1.390 . S
C585 C582 1.386 . S
C586 C581 1.490 . S
C586 C588 1.395 . S
C586 C589 1.403 . S
H587 C593 0.930 . S
C588 H574 0.930 . S
C588 C586 1.395 . S
C588 C591 1.403 . S
C589 C586 1.403 . S
C589 C590 1.524 . S
C589 C593 1.400 . S
C590 H575 0.960 . S
C590 H576 0.960 . S
C590 H577 0.960 . S
C590 C589 1.524 . S
C591 C588 1.403 . S
C591 C592 1.392 . S
C591 C595 1.495 . S
C592 C591 1.392 . S
C592 C593 1.385 . S
C592 C594 1.478 . S
C593 H587 0.930 . S
C593 C589 1.400 . S
C593 C592 1.385 . S
C594 C592 1.478 . S
C594 C596 1.381 . S
C594 C600 1.383 . S
C595 C591 1.495 . S
C595 H601 0.959 . S
C595 H602 0.961 . S
C595 H603 0.960 . S
C596 C594 1.381 . S
C596 C597 1.394 . S
C596 H604 0.930 . S
C597 C596 1.394 . S
C597 C598 1.383 . S
C597 H605 0.929 . S
C598 C597 1.383 . S
C598 C599 1.377 . S
C599 H583 0.930 . S
C599 C598 1.377 . S
C599 C600 1.379 . S
C600 H584 0.931 . S
C600 C594 1.383 . S
C600 C599 1.379 . S
H601 C595 0.959 . S
H602 C595 0.961 . S
H603 C595 0.960 . S
H604 C596 0.930 . S
H605 C597 0.929 . S
H606 C614 0.929 . S
H607 C616 0.930 . S
H608 C618 0.930 . S
H609 C621 0.929 . S
H610 C624 0.930 . S
H611 C626 0.960 . S
H612 C626 0.960 . S
H613 C626 0.960 . S
C614 H606 0.929 . S
C614 C615 1.377 . S
C614 C616 1.384 . S
C615 C614 1.377 . S
C615 C621 1.390 . S
C616 H607 0.930 . S
C616 C614 1.384 . S
C616 C617 1.372 . S
C617 C616 1.372 . S
C617 C618 1.400 . S
C617 C622 1.490 . S
C618 H608 0.930 . S
C618 C617 1.400 . S
C618 C621 1.386 . S
H619 C635 0.930 . S
H620 C636 0.931 . S
C621 H609 0.929 . S
C621 C615 1.390 . S
C621 C618 1.386 . S
C622 C617 1.490 . S
C622 C624 1.395 . S
C622 C625 1.403 . S
H623 C629 0.930 . S
C624 H610 0.930 . S
C624 C622 1.395 . S
C624 C627 1.403 . S
C625 C622 1.403 . S
C625 C626 1.524 . S
C625 C629 1.400 . S
C626 H611 0.960 . S
C626 H612 0.960 . S
C626 H613 0.960 . S
C626 C625 1.524 . S
C627 C624 1.403 . S
C627 C628 1.392 . S
C627 C631 1.495 . S
C628 C627 1.392 . S
C628 C629 1.385 . S
C628 C630 1.478 . S
C629 H623 0.930 . S
C629 C625 1.400 . S
C629 C628 1.385 . S
C630 C628 1.478 . S
C630 C632 1.381 . S
C630 C636 1.383 . S
C631 C627 1.495 . S
C631 H637 0.959 . S
C631 H638 0.961 . S
C631 H639 0.960 . S
C632 C630 1.381 . S
C632 C633 1.394 . S
C632 H640 0.930 . S
C633 C632 1.394 . S
C633 C634 1.383 . S
C633 H641 0.929 . S
C634 C633 1.383 . S
C634 C635 1.377 . S
C635 H619 0.930 . S
C635 C634 1.377 . S
C635 C636 1.379 . S
C636 H620 0.931 . S
C636 C630 1.383 . S
C636 C635 1.379 . S
H637 C631 0.959 . S
H638 C631 0.961 . S
H639 C631 0.960 . S
H640 C632 0.930 . S
H641 C633 0.929 . S
H642 C650 0.929 . S
H643 C652 0.930 . S
H644 C654 0.930 . S
H645 C657 0.929 . S
H646 C660 0.930 . S
H647 C662 0.960 . S
H648 C662 0.960 . S
H649 C662 0.960 . S
C650 H642 0.929 . S
C650 C651 1.377 . S
C650 C652 1.384 . S
C651 C650 1.377 . S
C651 C657 1.390 . S
C652 H643 0.930 . S
C652 C650 1.384 . S
C652 C653 1.372 . S
C653 C652 1.372 . S
C653 C654 1.400 . S
C653 C658 1.490 . S
C654 H644 0.930 . S
C654 C653 1.400 . S
C654 C657 1.386 . S
H655 C671 0.930 . S
H656 C672 0.931 . S
C657 H645 0.929 . S
C657 C651 1.390 . S
C657 C654 1.386 . S
C658 C653 1.490 . S
C658 C660 1.395 . S
C658 C661 1.403 . S
H659 C665 0.930 . S
C660 H646 0.930 . S
C660 C658 1.395 . S
C660 C663 1.403 . S
C661 C658 1.403 . S
C661 C662 1.524 . S
C661 C665 1.400 . S
C662 H647 0.960 . S
C662 H648 0.960 . S
C662 H649 0.960 . S
C662 C661 1.524 . S
C663 C660 1.403 . S
C663 C664 1.392 . S
C663 C667 1.495 . S
C664 C663 1.392 . S
C664 C665 1.385 . S
C664 C666 1.478 . S
C665 H659 0.930 . S
C665 C661 1.400 . S
C665 C664 1.385 . S
C666 C664 1.478 . S
C666 C668 1.381 . S
C666 C672 1.383 . S
C667 C663 1.495 . S
C667 H673 0.959 . S
C667 H674 0.961 . S
C667 H675 0.960 . S
C668 C666 1.381 . S
C668 C669 1.394 . S
C668 H676 0.930 . S
C669 C668 1.394 . S
C669 C670 1.383 . S
C669 H677 0.929 . S
C670 C669 1.383 . S
C670 C671 1.377 . S
C671 H655 0.930 . S
C671 C670 1.377 . S
C671 C672 1.379 . S
C672 H656 0.931 . S
C672 C666 1.383 . S
C672 C671 1.379 . S
H673 C667 0.959 . S
H674 C667 0.961 . S
H675 C667 0.960 . S
H676 C668 0.930 . S
H677 C669 0.929 . S
H678 C686 0.929 . S
H679 C688 0.930 . S
H680 C690 0.930 . S
H681 C693 0.929 . S
H682 C696 0.930 . S
H683 C698 0.960 . S
H684 C698 0.960 . S
H685 C698 0.960 . S
C686 H678 0.929 . S
C686 C687 1.377 . S
C686 C688 1.384 . S
C687 C686 1.377 . S
C687 C693 1.390 . S
C688 H679 0.930 . S
C688 C686 1.384 . S
C688 C689 1.372 . S
C689 C688 1.372 . S
C689 C690 1.400 . S
C689 C694 1.490 . S
C690 H680 0.930 . S
C690 C689 1.400 . S
C690 C693 1.386 . S
H691 C707 0.930 . S
H692 C708 0.931 . S
C693 H681 0.929 . S
C693 C687 1.390 . S
C693 C690 1.386 . S
C694 C689 1.490 . S
C694 C696 1.395 . S
C694 C697 1.403 . S
H695 C701 0.930 . S
C696 H682 0.930 . S
C696 C694 1.395 . S
C696 C699 1.403 . S
C697 C694 1.403 . S
C697 C698 1.524 . S
C697 C701 1.400 . S
C698 H683 0.960 . S
C698 H684 0.960 . S
C698 H685 0.960 . S
C698 C697 1.524 . S
C699 C696 1.403 . S
C699 C700 1.392 . S
C699 C703 1.495 . S
C700 C699 1.392 . S
C700 C701 1.385 . S
C700 C702 1.478 . S
C701 H695 0.930 . S
C701 C697 1.400 . S
C701 C700 1.385 . S
C702 C700 1.478 . S
C702 C704 1.381 . S
C702 C708 1.383 . S
C703 C699 1.495 . S
C703 H709 0.959 . S
C703 H710 0.961 . S
C703 H711 0.960 . S
C704 C702 1.381 . S
C704 C705 1.394 . S
C704 H712 0.930 . S
C705 C704 1.394 . S
C705 C706 1.383 1_556 S
C705 H713 0.929 1_556 S
C706 C705 1.383 1_554 S
C706 C707 1.377 1_554 S
C707 H691 0.930 . S
C707 C706 1.377 1_556 S
C707 C708 1.379 . S
C708 H692 0.931 . S
C708 C702 1.383 . S
C708 C707 1.379 . S
H709 C703 0.959 . S
H710 C703 0.961 . S
H711 C703 0.960 . S
H712 C704 0.930 . S
H713 C705 0.929 1_554 S
H714 C722 0.929 . S
H715 C724 0.930 . S
H716 C726 0.930 . S
H717 C729 0.940 . S
H718 C732 0.930 . S
H719 C734 0.960 . S
H720 C734 0.960 . S
H721 C734 0.960 . S
C722 H714 0.929 . S
C722 C723 1.377 1_554 S
C722 C724 1.384 . S
C723 C722 1.377 1_556 S
C723 C729 1.392 . S
C724 H715 0.930 . S
C724 C722 1.384 . S
C724 C725 1.372 . S
C725 C724 1.372 . S
C725 C726 1.400 . S
C725 C730 1.490 . S
C726 H716 0.930 . S
C726 C725 1.400 . S
C726 C729 1.373 1_554 S
H727 C743 0.930 . S
H728 C744 0.931 . S
C729 H717 0.940 . S
C729 C723 1.392 . S
C729 C726 1.373 1_556 S
C730 C725 1.490 . S
C730 C732 1.395 . S
C730 C733 1.403 . S
H731 C737 0.930 . S
C732 H718 0.930 . S
C732 C730 1.395 . S
C732 C735 1.403 . S
C733 C730 1.403 . S
C733 C734 1.524 . S
C733 C737 1.400 . S
C734 H719 0.960 . S
C734 H720 0.960 . S
C734 H721 0.960 . S
C734 C733 1.524 . S
C735 C732 1.403 . S
C735 C736 1.392 . S
C735 C739 1.495 . S
C736 C735 1.392 . S
C736 C737 1.385 . S
C736 C738 1.478 . S
C737 H731 0.930 . S
C737 C733 1.400 . S
C737 C736 1.385 . S
C738 C736 1.478 . S
C738 C740 1.381 . S
C738 C744 1.383 . S
C739 C735 1.495 . S
C739 H745 0.959 . S
C739 H746 0.961 . S
C739 H747 0.960 . S
C740 C738 1.381 . S
C740 C741 1.394 . S
C740 H748 0.930 . S
C741 C740 1.394 . S
C741 C742 1.383 . S
C741 H749 0.929 . S
C742 C741 1.383 . S
C742 C743 1.377 . S
C743 H727 0.930 . S
C743 C742 1.377 . S
C743 C744 1.379 . S
C744 H728 0.931 . S
C744 C738 1.383 . S
C744 C743 1.379 . S
H745 C739 0.959 . S
H746 C739 0.961 . S
H747 C739 0.960 . S
H748 C740 0.930 . S
H749 C741 0.929 . S
H750 C758 0.929 . S
H751 C760 0.930 . S
H752 C762 0.930 . S
H753 C765 0.929 . S
H754 C768 0.930 . S
H755 C770 0.960 . S
H756 C770 0.960 . S
H757 C770 0.960 . S
C758 H750 0.929 . S
C758 C759 1.377 . S
C758 C760 1.384 . S
C759 C758 1.377 . S
C759 C765 1.390 . S
C760 H751 0.930 . S
C760 C758 1.384 . S
C760 C761 1.372 . S
C761 C760 1.372 . S
C761 C762 1.400 . S
C761 C766 1.490 . S
C762 H752 0.930 . S
C762 C761 1.400 . S
C762 C765 1.386 . S
H763 C779 0.930 . S
H764 C780 0.931 . S
C765 H753 0.929 . S
C765 C759 1.390 . S
C765 C762 1.386 . S
C766 C761 1.490 . S
C766 C768 1.395 . S
C766 C769 1.403 . S
H767 C773 0.930 . S
C768 H754 0.930 . S
C768 C766 1.395 . S
C768 C771 1.403 . S
C769 C766 1.403 . S
C769 C770 1.524 . S
C769 C773 1.400 . S
C770 H755 0.960 . S
C770 H756 0.960 . S
C770 H757 0.960 . S
C770 C769 1.524 . S
C771 C768 1.403 . S
C771 C772 1.392 . S
C771 C775 1.495 . S
C772 C771 1.392 . S
C772 C773 1.385 . S
C772 C774 1.478 . S
C773 H767 0.930 . S
C773 C769 1.400 . S
C773 C772 1.385 . S
C774 C772 1.478 . S
C774 C776 1.381 . S
C774 C780 1.383 . S
C775 C771 1.495 . S
C775 H781 0.959 . S
C775 H782 0.961 . S
C775 H783 0.960 . S
C776 C774 1.381 . S
C776 C777 1.394 . S
C776 H784 0.930 . S
C777 C776 1.394 . S
C777 C778 1.383 . S
C777 H785 0.929 . S
C778 C777 1.383 . S
C778 C779 1.377 . S
C779 H763 0.930 . S
C779 C778 1.377 . S
C779 C780 1.379 . S
C780 H764 0.931 . S
C780 C774 1.383 . S
C780 C779 1.379 . S
H781 C775 0.959 . S
H782 C775 0.961 . S
H783 C775 0.960 . S
H784 C776 0.930 . S
H785 C777 0.929 . S
C363 C5 1.855 . S
C382 C300 1.855 . S
C399 C52 1.781 . S
C418 C62 1.783 . S
C435 C170 1.713 . S
C454 C92 1.713 . S
C471 C182 1.857 . S
C490 C123 1.849 . S
C507 C239 1.783 . S
C526 C229 1.782 . S
C543 C347 1.713 . S
C562 C269 1.706 . S
C579 C3 1.445 . S
C598 C288 1.432 . S
C615 C298 1.268 . S
C634 C64 1.262 . S
C651 C151 1.579 . S
C670 C33 1.582 . S
C687 C111 1.442 . S
C706 C180 1.436 . S
C723 C121 1.268 . S
C742 C241 1.263 . S
C759 C328 1.579 . S
C778 C210 1.581 . S
