# Generated by pormake.
# Topology uku, (4)-cn, num edge types: 1
# Building blocks:
#     Node 0, Type 0, BuildingBlock: CEKHIL_clean_sbu_0, # of connection points: 4
#     Node 1, Type 0, BuildingBlock: CEKHIL_clean_sbu_0, # of connection points: 4
#     Node 2, Type 0, BuildingBlock: CEKHIL_clean_sbu_0, # of connection points: 4
#     Node 3, Type 0, BuildingBlock: CEKHIL_clean_sbu_0, # of connection points: 4
#     Node 4, Type 0, BuildingBlock: CEKHIL_clean_sbu_0, # of connection points: 4
#     Node 5, Type 0, BuildingBlock: CEKHIL_clean_sbu_0, # of connection points: 4
#     Node 6, Type 0, BuildingBlock: CEKHIL_clean_sbu_0, # of connection points: 4
#     Node 7, Type 0, BuildingBlock: CEKHIL_clean_sbu_0, # of connection points: 4
#     Node 8, Type 0, BuildingBlock: CEKHIL_clean_sbu_0, # of connection points: 4
#     Node 9, Type 0, BuildingBlock: CEKHIL_clean_sbu_0, # of connection points: 4
#     Node 10, Type 0, BuildingBlock: CEKHIL_clean_sbu_0, # of connection points: 4
#     Node 11, Type 0, BuildingBlock: CEKHIL_clean_sbu_0, # of connection points: 4
#     Edge 12, Type (0, 0), BuildingBlock: MIFKUJ_clean_linker_0, # of connection points: 2
#     Edge 13, Type (0, 0), BuildingBlock: MIFKUJ_clean_linker_0, # of connection points: 2
#     Edge 14, Type (0, 0), BuildingBlock: MIFKUJ_clean_linker_0, # of connection points: 2
#     Edge 15, Type (0, 0), BuildingBlock: MIFKUJ_clean_linker_0, # of connection points: 2
#     Edge 16, Type (0, 0), BuildingBlock: MIFKUJ_clean_linker_0, # of connection points: 2
#     Edge 17, Type (0, 0), BuildingBlock: MIFKUJ_clean_linker_0, # of connection points: 2
#     Edge 18, Type (0, 0), BuildingBlock: MIFKUJ_clean_linker_0, # of connection points: 2
#     Edge 19, Type (0, 0), BuildingBlock: MIFKUJ_clean_linker_0, # of connection points: 2
#     Edge 20, Type (0, 0), BuildingBlock: MIFKUJ_clean_linker_0, # of connection points: 2
#     Edge 21, Type (0, 0), BuildingBlock: MIFKUJ_clean_linker_0, # of connection points: 2
#     Edge 22, Type (0, 0), BuildingBlock: MIFKUJ_clean_linker_0, # of connection points: 2
#     Edge 23, Type (0, 0), BuildingBlock: MIFKUJ_clean_linker_0, # of connection points: 2
#     Edge 24, Type (0, 0), BuildingBlock: MIFKUJ_clean_linker_0, # of connection points: 2
#     Edge 25, Type (0, 0), BuildingBlock: MIFKUJ_clean_linker_0, # of connection points: 2
#     Edge 26, Type (0, 0), BuildingBlock: MIFKUJ_clean_linker_0, # of connection points: 2
#     Edge 27, Type (0, 0), BuildingBlock: MIFKUJ_clean_linker_0, # of connection points: 2
#     Edge 28, Type (0, 0), BuildingBlock: MIFKUJ_clean_linker_0, # of connection points: 2
#     Edge 29, Type (0, 0), BuildingBlock: MIFKUJ_clean_linker_0, # of connection points: 2
#     Edge 30, Type (0, 0), BuildingBlock: MIFKUJ_clean_linker_0, # of connection points: 2
#     Edge 31, Type (0, 0), BuildingBlock: MIFKUJ_clean_linker_0, # of connection points: 2
#     Edge 32, Type (0, 0), BuildingBlock: MIFKUJ_clean_linker_0, # of connection points: 2
#     Edge 33, Type (0, 0), BuildingBlock: MIFKUJ_clean_linker_0, # of connection points: 2
#     Edge 34, Type (0, 0), BuildingBlock: MIFKUJ_clean_linker_0, # of connection points: 2
#     Edge 35, Type (0, 0), BuildingBlock: MIFKUJ_clean_linker_0, # of connection points: 2
# Relax obj value: 0.371
# Max RMSD: 0.261
# Mean RMSD: 0.261
data_MOF--net-uku--node1-CEKHIL_clean_sbu_0--edge1-MIFKUJ_clean_linker_0
_symmetry_space_group_name_H-M    P1
_symmetry_Int_Tables_number       1
_symmetry_cell_setting            triclinic
loop_
_symmetry_equiv_pos_as_xyz
'x, y, z'
_cell_length_a     52.873466
_cell_length_b     52.796921
_cell_length_c     52.830956
_cell_angle_alpha  90.174385
_cell_angle_beta   89.931309
_cell_angle_gamma 90.046584
loop_
_atom_site_label
_atom_site_type_symbol
_atom_site_fract_x
_atom_site_fract_y
_atom_site_fract_z
_atom_type_partial_charge
Co0 Co 0.0436 0.1532 0.65995 0.0
O1 O 0.02069 0.16487 0.6343 0.0
O2 O 0.05791 0.14675 0.62709 0.0
C3 C 0.04269 0.18739 0.68542 0.0
O4 O 0.07247 0.13955 0.6811 0.0
Co5 Co 0.02407 0.1441 0.71476 0.0
O6 O 0.06002 0.13579 0.72171 0.0
C7 C 0.01277 0.10659 0.67529 0.0
C8 C 0.03752 0.15709 0.6181 0.0
C9 C 0.07673 0.134 0.70437 0.0
O10 O 0.02713 0.11872 0.65983 0.0
O11 O 0.00703 0.11489 0.69734 0.0
O12 O 0.05653 0.18734 0.66509 0.0
O13 O 0.0273 0.16847 0.68762 0.0
Co14 Co 0.93249 0.79719 0.64949 0.0
O15 O 0.94856 0.79137 0.61749 0.0
O16 O 0.91225 0.81196 0.62324 0.0
C17 C 0.93625 0.75853 0.66641 0.0
O18 O 0.90953 0.8058 0.67903 0.0
Co19 Co 0.96258 0.79479 0.69948 0.0
O20 O 0.92901 0.79864 0.71611 0.0
C21 C 0.96799 0.83959 0.66748 0.0
C22 C 0.92974 0.80394 0.60793 0.0
C23 C 0.90945 0.80449 0.70334 0.0
O24 O 0.95063 0.83047 0.65314 0.0
O25 O 0.97713 0.82741 0.68627 0.0
O26 O 0.91894 0.76306 0.64953 0.0
O27 O 0.95318 0.77611 0.66901 0.0
Co28 Co 0.0503 0.80416 0.33333 0.0
O29 O 0.02284 0.79572 0.35538 0.0
O30 O 0.05895 0.81383 0.36734 0.0
C31 C 0.05162 0.76827 0.31047 0.0
O32 O 0.08289 0.81473 0.31622 0.0
Co33 Co 0.04036 0.80989 0.27576 0.0
O34 O 0.07781 0.81288 0.27399 0.0
C35 C 0.02471 0.85063 0.30997 0.0
C36 C 0.03645 0.80578 0.37323 0.0
C37 C 0.09157 0.81621 0.29354 0.0
O38 O 0.03582 0.83902 0.32816 0.0
O39 O 0.02231 0.84113 0.28779 0.0
O40 O 0.0621 0.76905 0.33274 0.0
O41 O 0.03785 0.78763 0.30479 0.0
Co42 Co 0.96218 0.16502 0.31602 0.0
O43 O 0.98997 0.17664 0.33663 0.0
O44 O 0.95434 0.15962 0.35099 0.0
C45 C 0.95865 0.19829 0.28985 0.0
O46 O 0.92919 0.15184 0.3015 0.0
Co47 Co 0.96864 0.15404 0.2586 0.0
O48 O 0.93103 0.15525 0.25911 0.0
C49 C 0.98676 0.11663 0.29564 0.0
C50 C 0.97632 0.16948 0.35584 0.0
C51 C 0.91876 0.15173 0.27958 0.0
O52 O 0.97757 0.1302 0.3137 0.0
O53 O 0.98665 0.12363 0.27245 0.0
O54 O 0.94928 0.19935 0.31259 0.0
O55 O 0.97299 0.17897 0.28525 0.0
Co56 Co 0.64851 0.07914 0.16984 0.0
O57 O 0.61887 0.06387 0.1841 0.0
O58 O 0.61906 0.09464 0.15541 0.0
C59 C 0.67073 0.08435 0.20563 0.0
O60 O 0.67448 0.10036 0.15156 0.0
Co61 Co 0.70098 0.05325 0.1716 0.0
O62 O 0.7134 0.08783 0.16297 0.0
C63 C 0.66384 0.03662 0.13347 0.0
C64 C 0.60627 0.07898 0.16938 0.0
C65 C 0.69849 0.10353 0.15248 0.0
O66 O 0.6486 0.05386 0.14136 0.0
O67 O 0.68523 0.03222 0.14393 0.0
O68 O 0.65301 0.10034 0.19969 0.0
O69 O 0.67213 0.06428 0.19161 0.0
Co70 Co 0.34077 0.93502 0.17667 0.0
O71 O 0.36568 0.9564 0.19198 0.0
O72 O 0.3733 0.92735 0.16235 0.0
C73 C 0.31972 0.92375 0.21177 0.0
O74 O 0.32024 0.90917 0.15707 0.0
Co75 Co 0.28437 0.95086 0.1783 0.0
O76 O 0.27876 0.91796 0.16088 0.0
C77 C 0.31775 0.97463 0.14097 0.0
C78 C 0.38168 0.94553 0.17674 0.0
C79 C 0.29685 0.90427 0.15263 0.0
O80 O 0.3357 0.96035 0.14884 0.0
O81 O 0.29583 0.97504 0.15126 0.0
O82 O 0.34076 0.91247 0.20575 0.0
O83 O 0.31417 0.94353 0.19848 0.0
Co84 Co 0.6727 0.95639 0.82343 0.0
O85 O 0.6556 0.9855 0.80934 0.0
O86 O 0.63706 0.95046 0.82325 0.0
C87 C 0.70367 0.95135 0.79463 0.0
O88 O 0.6829 0.92244 0.83792 0.0
Co89 Co 0.72766 0.95945 0.84376 0.0
O90 O 0.72392 0.9224 0.84906 0.0
C91 C 0.68643 0.98085 0.87418 0.0
C92 C 0.63486 0.97276 0.81323 0.0
C93 C 0.70271 0.91124 0.84633 0.0
O94 O 0.67026 0.9714 0.85859 0.0
O95 O 0.71031 0.98027 0.8703 0.0
O96 O 0.68082 0.94365 0.78977 0.0
O97 O 0.70599 0.96523 0.81473 0.0
Co98 Co 0.33249 0.03089 0.82827 0.0
O99 O 0.35971 0.00955 0.8168 0.0
O100 O 0.36434 0.04691 0.83561 0.0
C101 C 0.30803 0.02925 0.79335 0.0
O102 O 0.30959 0.0586 0.84183 0.0
Co103 Co 0.27796 0.00944 0.83499 0.0
O104 O 0.26931 0.04484 0.8442 0.0
C105 C 0.31596 0.00073 0.87486 0.0
C106 C 0.37472 0.02733 0.82488 0.0
C107 C 0.28605 0.06202 0.84684 0.0
O108 O 0.33233 0.01404 0.86265 0.0
O109 O 0.29414 -0.00489 0.86599 0.0
O110 O 0.32768 0.04401 0.79416 0.0
O111 O 0.30608 0.0135 0.81195 0.0
Co112 Co 0.15653 0.66822 0.03069 0.0
O113 O 0.16309 0.64631 0.00212 0.0
O114 O 0.15445 0.6337 0.04127 0.0
C115 C 0.18894 0.69542 0.02573 0.0
O116 O 0.14987 0.684 0.06498 0.0
Co117 Co 0.14217 0.7248 0.02456 0.0
O118 O 0.14471 0.7261 0.06206 0.0
C119 C 0.10363 0.68552 0.01518 0.0
C120 C 0.16015 0.62782 0.01809 0.0
C121 C 0.14662 0.7059 0.07506 0.0
O122 O 0.11916 0.66844 0.02285 0.0
O123 O 0.1099 0.70879 0.01244 0.0
O124 O 0.19256 0.67331 0.0358 0.0
O125 O 0.16679 0.69895 0.01591 0.0
Co126 Co 0.16403 0.32326 0.95084 0.0
O127 O 0.17873 0.34733 0.97397 0.0
O128 O 0.16064 0.35674 0.93729 0.0
C129 C 0.19527 0.29443 0.95083 0.0
O130 O 0.14768 0.30428 0.92169 0.0
Co131 Co 0.14926 0.26916 0.96842 0.0
O132 O 0.13993 0.26381 0.9324 0.0
C133 C 0.11617 0.31198 0.9815 0.0
C134 C 0.17203 0.36447 0.95768 0.0
C135 C 0.1397 0.28187 0.91645 0.0
O136 O 0.13018 0.3267 0.9681 0.0
O137 O 0.12168 0.28877 0.98569 0.0
O138 O 0.19717 0.31481 0.93721 0.0
O139 O 0.17635 0.29385 0.96635 0.0
Co140 Co 0.80337 0.65599 0.92373 0.0
O141 O 0.79521 0.62713 0.94377 0.0
O142 O 0.81803 0.62637 0.90833 0.0
C143 C 0.76538 0.67473 0.92374 0.0
O144 O 0.81472 0.6816 0.89782 0.0
Co145 Co 0.80209 0.7095 0.94779 0.0
O146 O 0.81174 0.7213 0.9133 0.0
C147 C 0.84304 0.67519 0.96122 0.0
C148 C 0.80889 0.61436 0.92776 0.0
C149 C 0.81665 0.70571 0.89551 0.0
O150 O 0.83568 0.66055 0.94326 0.0
O151 O 0.83063 0.69478 0.96824 0.0
O152 O 0.7699 0.65596 0.90836 0.0
O153 O 0.78256 0.67897 0.94065 0.0
Co154 Co 0.81965 0.35997 0.05533 0.0
O155 O 0.80877 0.39186 0.04198 0.0
O156 O 0.8376 0.38673 0.07219 0.0
C157 C 0.78208 0.34109 0.06024 0.0
O158 O 0.8351 0.33088 0.07461 0.0
Co159 Co 0.8124 0.30974 0.02597 0.0
O160 O 0.82229 0.2936 0.05851 0.0
C161 C 0.85436 0.34337 0.01185 0.0
C162 C 0.82522 0.40186 0.05736 0.0
C163 C 0.83355 0.30663 0.07543 0.0
O164 O 0.84767 0.35829 0.02984 0.0
O165 O 0.84201 0.32329 0.00609 0.0
O166 O 0.7899 0.35773 0.07669 0.0
O167 O 0.79528 0.33948 0.03963 0.0
H168 H 0.94832 0.16584 0.39877 0.0
H169 H 0.96312 0.16835 0.44245 0.0
H170 H 0.03935 0.18092 0.41615 0.0
H171 H 0.02458 0.17875 0.37212 0.0
H172 H 0.03285 0.14112 0.45343 0.0
H173 H 0.01216 0.22868 0.44084 0.0
H174 H 0.98501 0.26423 0.42772 0.0
H175 H 0.9288 0.24203 0.48203 0.0
H176 H 0.95543 0.2061 0.49522 0.0
H177 H 0.07338 0.15646 0.58099 0.0
H178 H 0.06696 0.16252 0.53556 0.0
H179 H 0.98656 0.16973 0.54805 0.0
H180 H 0.99306 0.16485 0.59353 0.0
H181 H 0.00052 0.20349 0.51599 0.0
H182 H 0.01528 0.11396 0.52443 0.0
H183 H 0.03868 0.07566 0.53712 0.0
H184 H 0.10153 0.09819 0.49076 0.0
H185 H 0.07857 0.13678 0.47802 0.0
C186 C 0.96821 0.1693 0.40224 0.0
C187 C 0.98533 0.17206 0.38209 0.0
C188 C 0.9766 0.17084 0.42719 0.0
C189 C 0.00226 0.17497 0.43241 0.0
C190 C 0.01945 0.17781 0.41238 0.0
C191 C 0.01099 0.17662 0.38733 0.0
C192 C 0.011 0.17507 0.45892 0.0
C193 C 0.0263 0.15504 0.46709 0.0
C194 C 0.00172 0.19285 0.47667 0.0
C195 C 0.98574 0.21458 0.4689 0.0
C196 C -0.00607 0.23126 0.44986 0.0
C197 C 0.97864 0.2515 0.44243 0.0
C198 C 0.95518 0.25536 0.454 0.0
C199 C 0.94698 0.23902 0.47307 0.0
C200 C 0.96218 0.21873 0.48056 0.0
C201 C 0.05435 0.15931 0.57398 0.0
C202 C 0.03369 0.16012 0.59069 0.0
C203 C 0.05069 0.16269 0.54804 0.0
C204 C 0.02623 0.16627 0.53834 0.0
C205 C 0.00561 0.16709 0.55509 0.0
C206 C 0.00932 0.1642 0.58105 0.0
C207 C 0.02193 0.16912 0.51076 0.0
C208 C 0.00747 0.18974 0.50236 0.0
C209 C 0.0315 0.15154 0.49286 0.0
C210 C 0.04534 0.12839 0.50052 0.0
C211 C 0.03417 0.11084 0.51711 0.0
C212 C 0.04733 0.08906 0.52428 0.0
C213 C 0.07161 0.08454 0.51482 0.0
C214 C 0.08274 0.10174 0.49811 0.0
C215 C 0.06966 0.12356 0.4909 0.0
H216 H 0.08178 0.06767 0.52039 0.0
H217 H 0.94337 0.27104 0.44821 0.0
H218 H 0.04313 0.84762 0.40243 0.0
H219 H 0.01866 0.85946 0.44005 0.0
H220 H 0.98024 0.78724 0.43725 0.0
H221 H 0.0035 0.7762 0.39883 0.0
H222 H 0.94729 0.82196 0.4448 0.0
H223 H 0.03088 0.80417 0.481 0.0
H224 H 0.07672 0.81107 0.48649 0.0
H225 H 0.06316 0.88882 0.50639 0.0
H226 H 0.01724 0.88239 0.50078 0.0
H227 H 0.93833 0.77333 0.56785 0.0
H228 H 0.94718 0.78669 0.52439 0.0
H229 H 0.93312 0.86445 0.54534 0.0
H230 H 0.92291 0.8509 0.58871 0.0
H231 H 0.98662 0.84525 0.52675 0.0
H232 H 0.90112 0.85549 0.50345 0.0
H233 H 0.85577 0.84501 0.50069 0.0
H234 H 0.87336 0.77751 0.45874 0.0
H235 H 0.91885 0.78733 0.46157 0.0
C236 C 0.02975 0.83418 0.41022 0.0
C237 C 0.02523 0.81093 0.39805 0.0
C238 C 0.01572 0.84098 0.43161 0.0
C239 C -0.0024 0.82424 0.44151 0.0
C240 C -0.00613 0.80061 0.42978 0.0
C241 C 0.00733 0.79415 0.40805 0.0
C242 C 0.98218 0.83094 0.46398 0.0
C243 C 0.9559 0.82706 0.46273 0.0
C244 C 0.99317 0.83901 0.48705 0.0
C245 C 0.02073 0.84291 0.49009 0.0
C246 C 0.03772 0.82279 0.48632 0.0
C247 C 0.06369 0.8266 0.48951 0.0
C248 C 0.07285 0.8504 0.49668 0.0
C249 C 0.05605 0.87042 0.50075 0.0
C250 C 0.03006 0.86671 0.49758 0.0
C251 C 0.93623 0.79311 0.56287 0.0
C252 C 0.92994 0.81114 0.58128 0.0
C253 C 0.94116 0.80072 0.53816 0.0
C254 C 0.94062 0.82649 0.53183 0.0
C255 C 0.93323 0.84447 0.54993 0.0
C256 C 0.92744 0.83673 0.57454 0.0
C257 C 0.95231 0.8342 0.50783 0.0
C258 C 0.97791 0.84102 0.50863 0.0
C259 C 0.94082 0.8283 0.48451 0.0
C260 C 0.91346 0.82213 0.48283 0.0
C261 C 0.89535 0.83828 0.49383 0.0
C262 C 0.8696 0.83249 0.49221 0.0
C263 C 0.86169 0.8106 0.47957 0.0
C264 C 0.87952 0.79447 0.46851 0.0
C265 C 0.90529 0.80017 0.47008 0.0
H266 H 0.84174 0.80614 0.47832 0.0
H267 H 0.09296 0.8533 0.49916 0.0
H268 H 0.4081 0.94797 0.13275 0.0
H269 H 0.44417 0.97567 0.12406 0.0
H270 H 0.44741 -0.0038 0.20319 0.0
H271 H 0.41064 0.96949 0.21163 0.0
H272 H 0.44647 0.03691 0.17552 0.0
H273 H 0.49278 0.95724 0.17204 0.0
H274 H 0.50238 0.9144 0.15595 0.0
H275 H 0.51215 0.94412 0.08099 0.0
H276 H 0.50233 0.98712 0.09662 0.0
H277 H 0.57215 0.06656 0.20552 0.0
H278 H 0.52884 0.05191 0.19844 0.0
H279 H 0.53629 0.06769 0.11871 0.0
H280 H 0.57943 0.08335 0.12589 0.0
H281 H 0.52775 0.01467 0.13424 0.0
H282 H 0.49137 0.09591 0.14173 0.0
H283 H 0.48394 0.13849 0.15948 0.0
H284 H 0.45735 0.10557 0.22881 0.0
H285 H 0.46497 0.06278 0.21165 0.0
C286 C 0.41703 0.95785 0.14836 0.0
C287 C 0.40675 0.95669 0.17286 0.0
C288 C 0.43755 0.97375 0.14336 0.0
C289 C 0.44836 0.98813 0.16295 0.0
C290 C 0.43912 0.98552 0.18774 0.0
C291 C 0.41832 0.97011 0.19261 0.0
C292 C 0.46818 0.00719 0.15773 0.0
C293 C 0.46432 0.032 0.16663 0.0
C294 C 0.49086 0.00116 0.14484 0.0
C295 C 0.49646 0.9753 0.13543 0.0
C296 C 0.49672 0.95459 0.15209 0.0
C297 C 0.50226 0.9303 0.14306 0.0
C298 C 0.50777 0.92653 0.11745 0.0
C299 C 0.50781 0.94706 0.10081 0.0
C300 C 0.50227 0.97138 0.10975 0.0
C301 C 0.56418 0.06775 0.18667 0.0
C302 C 0.57894 0.0759 0.16623 0.0
C303 C 0.5395 0.05952 0.18265 0.0
C304 C 0.52954 0.05878 0.15807 0.0
C305 C 0.5437 0.06838 0.13781 0.0
C306 C 0.56822 0.07731 0.14195 0.0
C307 C 0.50657 0.04374 0.15353 0.0
C308 C 0.50966 0.01972 0.14259 0.0
C309 C 0.48334 0.05037 0.16483 0.0
C310 C 0.47888 0.07609 0.17541 0.0
C311 C 0.48415 0.09773 0.16085 0.0
C312 C 0.47986 0.12192 0.17079 0.0
C313 C 0.47021 0.12473 0.19527 0.0
C314 C 0.46482 0.10336 0.20984 0.0
C315 C 0.46908 0.07913 0.2 0.0
H316 H 0.46689 0.14347 0.20293 0.0
H317 H 0.51207 0.90771 0.1105 0.0
H318 H 0.59101 0.94648 0.80998 0.0
H319 H 0.54855 0.96313 0.80422 0.0
H320 H 0.57868 0.0388 0.79769 0.0
H321 H 0.62172 0.02208 0.80344 0.0
H322 H 0.53988 0.03431 0.83325 0.0
H323 H 0.55265 0.01331 0.74667 0.0
H324 H 0.56582 0.98683 0.71047 0.0
H325 H 0.51097 0.93048 0.73099 0.0
H326 H 0.49771 0.95642 0.76753 0.0
H327 H 0.40855 0.06632 0.82444 0.0
H328 H 0.45395 0.06405 0.81567 0.0
H329 H 0.44836 0.98275 0.80837 0.0
H330 H 0.40284 0.98513 0.81591 0.0
H331 H 0.47694 -8e-05 0.77263 0.0
H332 H 0.47167 0.01508 0.86343 0.0
H333 H 0.45932 0.03911 0.90161 0.0
H334 H 0.50063 0.10382 0.87489 0.0
H335 H 0.51296 0.08023 0.8364 0.0
C336 C 0.58871 0.96664 0.807 0.0
C337 C 0.60964 0.98302 0.80729 0.0
C338 C 0.56442 0.97611 0.80352 0.0
C339 C 0.56051 0.00215 0.80029 0.0
C340 C 0.58139 0.0186 0.80001 0.0
C341 C 0.60589 0.00905 0.80325 0.0
C342 C 0.53431 0.0119 0.79959 0.0
C343 C 0.52617 0.02738 0.81961 0.0
C344 C 0.51646 0.00244 0.78204 0.0
C345 C 0.52424 0.98682 0.75992 0.0
C346 C 0.54349 -0.00479 0.74356 0.0
C347 C 0.55096 0.9803 0.72296 0.0
C348 C 0.53925 0.95699 0.71844 0.0
C349 C 0.52001 0.94856 0.73449 0.0
C350 C 0.51248 0.96338 0.75513 0.0
C351 C 0.41709 0.04797 0.82106 0.0
C352 C 0.40227 0.02586 0.82096 0.0
C353 C 0.44302 0.04669 0.81608 0.0
C354 C 0.45467 0.0232 0.8116 0.0
C355 C 0.43981 0.00112 0.81163 0.0
C356 C 0.41383 0.00245 0.81609 0.0
C357 C 0.48231 0.02126 0.80705 0.0
C358 C 0.4907 0.00737 0.78595 0.0
C359 C 0.50036 0.03189 0.82381 0.0
C360 C 0.49295 0.04602 0.84692 0.0
C361 C 0.47795 0.0345 0.86563 0.0
C362 C 0.47098 0.04802 0.88733 0.0
C363 C 0.47911 0.07301 0.89063 0.0
C364 C 0.49429 0.08449 0.87228 0.0
C365 C 0.50128 0.07106 0.85053 0.0
H366 H 0.4737 0.08345 0.90745 0.0
H367 H 0.54508 0.94546 0.70249 0.0
H368 H 0.16378 0.4037 0.92532 0.0
H369 H 0.16657 0.44896 0.93476 0.0
H370 H 0.19161 0.432 0.01051 0.0
H371 H 0.18893 0.38663 0.00123 0.0
H372 H 0.15031 0.46428 0.00863 0.0
H373 H 0.23233 0.45699 0.97031 0.0
H374 H 0.26279 0.4453 0.9369 0.0
H375 H 0.22508 0.49461 0.88465 0.0
H376 H 0.19415 0.50633 0.91766 0.0
H377 H 0.17142 0.58873 0.04909 0.0
H378 H 0.17743 0.54442 0.03766 0.0
H379 H 0.16271 0.56221 0.95934 0.0
H380 H 0.15783 0.60707 0.97063 0.0
H381 H 0.19978 0.52926 0.9623 0.0
H382 H 0.11686 0.53526 -0.00138 0.0
H383 H 0.08512 0.54681 0.03088 0.0
H384 H 0.12243 0.49946 0.08519 0.0
H385 H 0.15461 0.4879 0.05334 0.0
C386 C 0.1702 0.4096 0.94389 0.0
C387 C 0.17599 0.39166 0.96261 0.0
C388 C 0.1719 0.43544 0.94919 0.0
C389 C 0.17938 0.44373 0.97328 0.0
C390 C 0.18584 0.42589 0.99179 0.0
C391 C 0.18432 0.40003 0.98645 0.0
C392 C 0.17832 0.47092 0.97979 0.0
C393 C 0.16144 0.47848 -0.00118 0.0
C394 C 0.19219 0.48938 0.96629 0.0
C395 C 0.21076 0.48234 0.9464 0.0
C396 C 0.23038 0.46516 0.95163 0.0
C397 C 0.24777 0.45857 0.93278 0.0
C398 C 0.24583 0.46915 0.90865 0.0
C399 C 0.22654 0.4864 0.90334 0.0
C400 C 0.20909 0.49304 0.92212 0.0
C401 C 0.16946 0.58321 0.02942 0.0
C402 C 0.16388 0.60121 0.01074 0.0
C403 C 0.17283 0.55787 0.02293 0.0
C404 C 0.16995 0.5499 -0.00226 0.0
C405 C 0.16491 0.56795 0.97892 0.0
C406 C 0.16204 0.59349 0.98536 0.0
C407 C 0.17181 0.52266 0.99126 0.0
C408 C 0.18872 0.51507 0.97219 0.0
C409 C 0.15772 0.50411 0.00451 0.0
C410 C 0.13827 0.5109 0.02365 0.0
C411 C 0.11839 0.52745 0.01749 0.0
C412 C 0.10031 0.53398 0.0357 0.0
C413 C 0.10179 0.52392 0.06008 0.0
C414 C 0.12132 0.50726 0.0663 0.0
C415 C 0.13948 0.50069 0.04817 0.0
H416 H 0.08778 0.52901 0.07415 0.0
H417 H 0.25931 0.46403 0.89408 0.0
H418 H 0.85702 0.59688 0.92402 0.0
H419 H 0.87494 0.5631 0.95033 0.0
H420 H 0.79982 0.54293 0.97517 0.0
H421 H 0.78204 0.57693 0.94961 0.0
H422 H 0.8325 0.55875 0.01408 0.0
H423 H 0.83454 0.50503 0.93728 0.0
H424 H 0.85058 0.49371 0.89488 0.0
H425 H 0.9265 0.49194 0.92361 0.0
H426 H 0.9109 0.50352 0.96615 0.0
H427 H 0.79422 0.44105 0.04656 0.0
H428 H 0.80717 0.48308 0.03253 0.0
H429 H 0.88528 0.46423 0.04674 0.0
H430 H 0.87219 0.4222 0.06167 0.0
H431 H 0.87358 0.4764 -0.00432 0.0
H432 H 0.8673 0.5153 0.07513 0.0
H433 H 0.85044 0.52484 0.11762 0.0
H434 H 0.78216 0.55371 0.08463 0.0
H435 H 0.79837 0.544 0.04198 0.0
C436 C 0.84433 0.58443 0.93425 0.0
C437 C 0.81819 0.58936 0.93501 0.0
C438 C 0.85462 0.56539 0.94943 0.0
C439 C 0.83871 0.55104 0.96504 0.0
C440 C 0.81239 0.55418 0.9635 0.0
C441 C 0.80221 0.57335 0.94874 0.0
C442 C 0.8488 0.53483 0.98529 0.0
C443 C 0.84164 0.54075 0.0102 0.0
C444 C 0.86239 0.51236 0.98037 0.0
C445 C 0.87163 0.50566 0.95474 0.0
C446 C 0.85469 0.50257 0.93448 0.0
C447 C 0.86369 0.496 0.91044 0.0
C448 C 0.88956 0.49225 0.90652 0.0
C449 C 0.90648 0.49496 0.92665 0.0
C450 C 0.89757 0.50152 0.95071 0.0
C451 C 0.81402 0.44625 0.04761 0.0
C452 C 0.83222 0.42858 0.05507 0.0
C453 C 0.82143 0.47025 0.03973 0.0
C454 C 0.84719 0.4767 0.03871 0.0
C455 C 0.86533 0.45962 0.04767 0.0
C456 C 0.85782 0.43573 0.05621 0.0
C457 C 0.85452 0.49909 0.02385 0.0
C458 C 0.86542 0.49478 -4e-05 0.0
C459 C 0.84417 0.52302 0.02963 0.0
C460 C 0.83415 0.52896 0.05528 0.0
C461 C 0.84863 0.52356 0.07692 0.0
C462 C 0.83918 0.52902 0.10105 0.0
C463 C 0.81526 0.5399 0.10382 0.0
C464 C 0.80072 0.54535 0.08246 0.0
C465 C 0.81007 0.53993 0.05828 0.0
H466 H 0.80797 0.54409 0.12252 0.0
H467 H 0.89648 0.48714 0.8879 0.0
H468 H 0.08623 0.09785 0.73923 0.0
H469 H 0.12674 0.07879 0.74969 0.0
H470 H 0.16408 0.12775 0.69602 0.0
H471 H 0.12294 0.1456 0.68404 0.0
H472 H 0.18462 0.08363 0.69344 0.0
H473 H 0.17138 0.13945 0.76557 0.0
H474 H 0.14459 0.15871 0.7988 0.0
H475 H 0.12752 0.08488 0.82811 0.0
H476 H 0.15489 0.06531 0.79561 0.0
H477 H 0.30519 0.06564 0.75679 0.0
H478 H 0.26675 0.08169 0.73668 0.0
H479 H 0.22291 0.02377 0.77384 0.0
H480 H 0.26123 0.00733 0.79367 0.0
H481 H 0.20744 0.07458 0.78405 0.0
H482 H 0.22829 0.02068 0.71288 0.0
H483 H 0.25591 0.00441 0.6789 0.0
H484 H 0.26003 0.07868 0.64625 0.0
H485 H 0.23271 0.09548 0.68026 0.0
C486 C 0.1031 0.10465 0.72976 0.0
C487 C 0.10156 0.12341 0.71109 0.0
C488 C 0.12631 0.09389 0.73589 0.0
C489 C 0.14867 0.10241 0.72431 0.0
C490 C 0.14714 0.12097 0.70536 0.0
C491 C 0.1237 0.13121 0.69859 0.0
C492 C 0.17343 0.09156 0.73193 0.0
C493 C 0.18981 0.08203 0.71323 0.0
C494 C 0.18023 0.08926 0.75772 0.0
C495 C 0.165 0.10097 0.77815 0.0
C496 C 0.16199 0.12739 0.77922 0.0
C497 C 0.14677 0.13835 0.79793 0.0
C498 C 0.13423 0.12302 0.81544 0.0
C499 C 0.13722 0.09673 0.81453 0.0
C500 C 0.15283 0.08572 0.79618 0.0
C501 C 0.28747 0.05591 0.76018 0.0
C502 C 0.28616 0.03548 0.77716 0.0
C503 C 0.26554 0.06511 0.74866 0.0
C504 C 0.24203 0.05403 0.754 0.0
C505 C 0.24091 0.03264 0.76965 0.0
C506 C 0.26283 0.02328 0.78095 0.0
C507 C 0.21839 0.0663 0.74559 0.0
C508 C 0.20231 0.07628 0.76424 0.0
C509 C 0.2123 0.06948 0.71975 0.0
C510 C 0.22868 0.05938 0.69928 0.0
C511 C 0.23529 0.03359 0.6986 0.0
C512 C 0.25084 0.02427 0.67929 0.0
C513 C 0.25978 0.04052 0.66047 0.0
C514 C 0.25312 0.06612 0.66087 0.0
C515 C 0.23758 0.07555 0.68014 0.0
H516 H 0.27182 0.03326 0.64554 0.0
H517 H 0.12231 0.13151 0.82981 0.0
H518 H 0.75297 0.95277 0.81011 0.0
H519 H 0.78704 0.92511 0.79637 0.0
H520 H 0.73891 0.89414 0.73798 0.0
H521 H 0.70403 0.92057 0.753 0.0
H522 H 0.76068 0.85743 0.7588 0.0
H523 H 0.79177 0.93531 0.72632 0.0
H524 H 0.80432 0.98029 0.72613 0.0
H525 H 0.86079 0.96537 0.78248 0.0
H526 H 0.84834 0.92034 0.78327 0.0
H527 H 0.86176 0.8072 0.6842 0.0
H528 H 0.82538 0.82819 0.7033 0.0
H529 H 0.86795 0.84079 0.77178 0.0
H530 H 0.90459 0.81957 0.75284 0.0
H531 H 0.84955 0.88526 0.74741 0.0
H532 H 0.8154 0.80553 0.77791 0.0
H533 H 0.80297 0.76061 0.7732 0.0
H534 H 0.75306 0.78046 0.71238 0.0
H535 H 0.76534 0.82539 0.71675 0.0
C536 C 0.74963 0.94026 0.79422 0.0
C537 C 0.72566 0.93862 0.78289 0.0
C538 C 0.76928 0.92452 0.7862 0.0
C539 C 0.7657 0.90752 0.766 0.0
C540 C 0.74214 0.9069 0.75374 0.0
C541 C 0.72227 0.9222 0.76219 0.0
C542 C 0.78606 0.88952 0.75862 0.0
C543 C 0.78003 0.86368 0.75603 0.0
C544 C 0.81148 0.89739 0.75531 0.0
C545 C 0.81891 0.9245 0.75506 0.0
C546 C 0.8067 0.94166 0.73884 0.0
C547 C 0.81383 0.96716 0.7386 0.0
C548 C 0.83328 0.9757 0.75435 0.0
C549 C 0.84569 0.95874 0.77033 0.0
C550 C 0.83862 0.93322 0.77067 0.0
C551 C 0.86325 0.81393 0.70353 0.0
C552 C 0.88621 0.81227 0.7168 0.0
C553 C 0.84236 0.82575 0.71448 0.0
C554 C 0.84408 0.83615 0.73885 0.0
C555 C 0.86635 0.8329 0.7529 0.0
C556 C 0.88723 0.82078 0.74204 0.0
C557 C 0.82407 0.85349 0.74786 0.0
C558 C 0.83019 0.87918 0.75054 0.0
C559 C 0.79869 0.84563 0.75046 0.0
C560 C 0.79132 0.8187 0.74768 0.0
C561 C 0.80188 0.80021 0.76351 0.0
C562 C 0.79484 0.77481 0.76092 0.0
C563 C 0.77724 0.7677 0.74251 0.0
C564 C 0.76668 0.78598 0.72663 0.0
C565 C 0.77366 0.81142 0.72919 0.0
H566 H 0.77178 0.74803 0.74054 0.0
H567 H 0.83878 -0.00455 0.75412 0.0
H568 H 0.32322 0.87784 0.23526 0.0
H569 H 0.28967 0.85563 0.25822 0.0
H570 H 0.24079 0.9204 0.24956 0.0
H571 H 0.27422 0.94275 0.2268 0.0
H572 H 0.23429 0.89748 0.29587 0.0
H573 H 0.23634 0.87269 0.20603 0.0
H574 H 0.25639 0.85518 0.16767 0.0
H575 H 0.27556 0.78734 0.20785 0.0
H576 H 0.25515 0.80433 0.24643 0.0
H577 H 0.11443 0.83142 0.24989 0.0
H578 H 0.15791 0.84535 0.24425 0.0
H579 H 0.17335 0.83033 0.32298 0.0
H580 H 0.12941 0.81695 0.32903 0.0
H581 H 0.20194 0.8226 0.24902 0.0
H582 H 0.22013 0.87507 0.34181 0.0
H583 H 0.19681 0.89401 0.37765 0.0
H584 H 0.13388 0.9096 0.32893 0.0
H585 H 0.15707 0.89141 0.29261 0.0
C586 C 0.30549 0.88753 0.2387 0.0
C587 C 0.30118 0.91191 0.22896 0.0
C588 C 0.28636 0.8748 0.25178 0.0
C589 C 0.26268 0.88627 0.2553 0.0
C590 C 0.25895 0.91123 0.24705 0.0
C591 C 0.27802 0.92393 0.23393 0.0
C592 C 0.24086 0.87162 0.26496 0.0
C593 C 0.22735 0.88089 0.2859 0.0
C594 C 0.23191 0.84993 0.25201 0.0
C595 C 0.24457 0.83988 0.22911 0.0
C596 C 0.24501 0.85412 0.2067 0.0
C597 C 0.25639 0.84428 0.18492 0.0
C598 C 0.26752 0.82029 0.18535 0.0
C599 C 0.26705 0.80597 0.20756 0.0
C600 C 0.25548 0.81564 0.22936 0.0
C601 C 0.12703 0.83095 0.26603 0.0
C602 C 0.11838 0.82323 0.28995 0.0
C603 C 0.15194 0.83884 0.26275 0.0
C604 C 0.16883 0.83905 0.28323 0.0
C605 C 0.16053 0.83065 0.30701 0.0
C606 C 0.13543 0.823 0.3104 0.0
C607 C 0.19473 0.849 0.27937 0.0
C608 C 0.20917 0.83872 0.25956 0.0
C609 C 0.20427 0.86994 0.29321 0.0
C610 C 0.19022 0.88155 0.3146 0.0
C611 C 0.20136 0.88267 0.33872 0.0
C612 C 0.18819 0.89332 0.35909 0.0
C613 C 0.16386 0.90297 0.35554 0.0
C614 C 0.15273 0.90215 0.33159 0.0
C615 C 0.16589 0.89168 0.3111 0.0
H616 H 0.15365 0.91112 0.37135 0.0
H617 H 0.27639 0.81276 0.16847 0.0
H618 H 0.68836 0.13212 0.21342 0.0
H619 H 0.72939 0.14387 0.23144 0.0
H620 H 0.74326 0.06588 0.25087 0.0
H621 H 0.70262 0.05377 0.23184 0.0
H622 H 0.75594 0.11359 0.28937 0.0
H623 H 0.77056 0.07184 0.20849 0.0
H624 H 0.76607 0.06364 0.16279 0.0
H625 H 0.78658 0.14062 0.14681 0.0
H626 H 0.79033 0.14952 0.19247 0.0
H627 H 0.89146 0.1151 0.30341 0.0
H628 H 0.84654 0.10517 0.29698 0.0
H629 H 0.84004 0.16881 0.24622 0.0
H630 H 0.88492 0.17851 0.25269 0.0
H631 H 0.8229 0.12707 0.22492 0.0
H632 H 0.81175 0.16837 0.30512 0.0
H633 H 0.81935 0.17623 0.3505 0.0
H634 H 0.79489 0.10069 0.36791 0.0
H635 H 0.78748 0.09224 0.32257 0.0
C636 C 0.69984 0.11757 0.22214 0.0
C637 C 0.6924 0.09204 0.22131 0.0
C638 C 0.72329 0.1243 0.23227 0.0
C639 C 0.73926 0.10567 0.24224 0.0
C640 C 0.73109 0.08043 0.24316 0.0
C641 C 0.70795 0.07358 0.23237 0.0
C642 C 0.76526 0.11237 0.24972 0.0
C643 C 0.77074 0.1163 0.2754 0.0
C644 C 0.78425 0.11632 0.23132 0.0
C645 C 0.78008 0.11151 0.20397 0.0
C646 C 0.77341 0.08721 0.19529 0.0
C647 C 0.77121 0.08238 0.16935 0.0
C648 C 0.77583 0.10166 0.15188 0.0
C649 C 0.78279 0.12576 0.16033 0.0
C650 C 0.78485 0.13073 0.18624 0.0
C651 C 0.88023 0.12708 0.29117 0.0
C652 C 0.89148 0.14714 0.27792 0.0
C653 C 0.85462 0.12151 0.28761 0.0
C654 C 0.83995 0.13625 0.27111 0.0
C655 C 0.85106 0.15705 0.25886 0.0
C656 C 0.87663 0.16244 0.26229 0.0
C657 C 0.81376 0.1287 0.26464 0.0
C658 C 0.80818 0.12453 0.23903 0.0
C659 C 0.79481 0.12457 0.28313 0.0
C660 C 0.7993 0.12959 0.3104 0.0
C661 C 0.80821 0.15335 0.31859 0.0
C662 C 0.81244 0.15793 0.34432 0.0
C663 C 0.80767 0.13895 0.36207 0.0
C664 C 0.7986 0.11536 0.35413 0.0
C665 C 0.79436 0.11068 0.32843 0.0
H666 H 0.81094 0.14253 0.38198 0.0
H667 H 0.77412 0.0979 0.1318 0.0
H668 H 0.69043 0.12035 0.10498 0.0
H669 H 0.70287 0.1615 0.08743 0.0
H670 H 0.74013 0.18038 0.15764 0.0
H671 H 0.72813 0.13889 0.17501 0.0
H672 H 0.70162 0.21693 0.13717 0.0
H673 H 0.77778 0.17129 0.11404 0.0
H674 H 0.80042 0.13506 0.09498 0.0
H675 H 0.76644 0.15109 0.02299 0.0
H676 H 0.74329 0.18712 0.04183 0.0
H677 H 0.76931 0.32799 0.10832 0.0
H678 H 0.751 0.28808 0.12196 0.0
H679 H 0.73927 0.26635 0.04398 0.0
H680 H 0.7589 0.30601 0.03019 0.0
H681 H 0.76199 0.23036 0.06651 0.0
H682 H 0.68882 0.27838 0.08707 0.0
H683 H 0.66376 0.31333 0.1053 0.0
H684 H 0.68806 0.2927 0.17996 0.0
H685 H 0.71355 0.25783 0.16217 0.0
C686 C 0.7017 0.13316 0.11639 0.0
C687 C 0.70869 0.1266 0.14112 0.0
C688 C 0.70871 0.15657 0.10644 0.0
C689 C 0.72231 0.17386 0.12133 0.0
C690 C 0.72961 0.16718 0.14595 0.0
C691 C 0.72299 0.14354 0.15574 0.0
C692 C 0.72788 0.19934 0.11146 0.0
C693 C 0.71504 0.22007 0.12194 0.0
C694 C 0.7445 0.203 0.0909 0.0
C695 C 0.75863 0.18164 0.07941 0.0
C696 C 0.77498 0.16687 0.09422 0.0
C697 C 0.78793 0.14644 0.08345 0.0
C698 C 0.78481 0.14073 0.05779 0.0
C699 C 0.7688 0.15551 0.04286 0.0
C700 C 0.75578 0.17594 0.05358 0.0
C701 C 0.7622 0.31506 0.09405 0.0
C702 C 0.76559 0.32005 0.06817 0.0
C703 C 0.75163 0.29219 0.1019 0.0
C704 C 0.74359 0.27418 0.08402 0.0
C705 C 0.74544 0.2799 0.05813 0.0
C706 C 0.75648 0.30261 0.05026 0.0
C707 C 0.73595 0.24847 0.09238 0.0
C708 C 0.74836 0.22751 0.0816 0.0
C709 C 0.71856 0.2446 0.11243 0.0
C710 C 0.70327 0.2656 0.12324 0.0
C711 C 0.68899 0.28142 0.10736 0.0
C712 C 0.67467 0.30119 0.11762 0.0
C713 C 0.67436 0.30527 0.14376 0.0
C714 C 0.68833 0.28953 0.15971 0.0
C715 C 0.70269 0.26973 0.14955 0.0
H716 H 0.66326 0.3206 0.15167 0.0
H717 H 0.79485 0.1249 0.04947 0.0
H718 H 0.23564 0.69268 0.04721 0.0
H719 H 0.26098 0.72775 0.06357 0.0
H720 H 0.20664 0.78103 0.03429 0.0
H721 H 0.18151 0.74603 0.01725 0.0
H722 H 0.25373 0.79979 0.03046 0.0
H723 H 0.2028 0.76322 0.09723 0.0
H724 H 0.18618 0.72966 0.12502 0.0
H725 H 0.26165 0.71066 0.14793 0.0
H726 H 0.27872 0.74452 0.12062 0.0
H727 H 0.25487 0.89798 0.1236 0.0
H728 H 0.24452 0.8621 0.09616 0.0
H729 H 0.31408 0.82533 0.11735 0.0
H730 H 0.32497 0.86155 0.14449 0.0
H731 H 0.26585 0.79694 0.12355 0.0
H732 H 0.31457 0.8417 0.06224 0.0
H733 H 0.32859 0.87769 0.03612 0.0
H734 H 0.25447 0.88337 0.00357 0.0
H735 H 0.23989 0.84757 0.02971 0.0
C736 C 0.22932 0.71188 0.04382 0.0
C737 C 0.20633 0.7166 0.03135 0.0
C738 C 0.24377 0.73189 0.05328 0.0
C739 C 0.23536 0.75695 0.0507 0.0
C740 C 0.21338 0.76181 0.03665 0.0
C741 C 0.19899 0.74178 0.02698 0.0
C742 C 0.24828 0.77783 0.06435 0.0
C743 C 0.2563 0.79924 0.05082 0.0
C744 C 0.25209 0.77692 0.09085 0.0
C745 C 0.24203 0.7561 0.10666 0.0
C746 C 0.21584 0.75171 0.10802 0.0
C747 C 0.20634 0.73269 0.12372 0.0
C748 C 0.22283 0.71782 0.138 0.0
C749 C 0.24889 0.72211 0.13677 0.0
C750 C 0.25849 0.74129 0.12129 0.0
C751 C 0.26805 0.88233 0.12233 0.0
C752 C 0.29069 0.8825 0.13621 0.0
C753 C 0.26221 0.86199 0.10649 0.0
C754 C 0.27874 0.84136 0.10453 0.0
C755 C 0.30131 0.84133 0.11843 0.0
C756 C 0.30743 0.86194 0.13393 0.0
C757 C 0.27106 0.81893 0.08974 0.0
C758 C 0.26382 0.79728 0.10312 0.0
C759 C 0.26767 0.81989 0.06322 0.0
C760 C 0.27609 0.84201 0.04808 0.0
C761 C 0.30117 0.85077 0.04972 0.0
C762 C 0.30927 0.87104 0.03478 0.0
C763 C 0.29248 0.88271 0.01809 0.0
C764 C 0.2675 0.87421 0.0164 0.0
C765 C 0.25931 0.85392 0.03126 0.0
H766 H 0.29876 0.89846 0.00661 0.0
H767 H 0.2154 0.70309 0.15013 0.0
H768 H 0.75598 0.71829 0.94949 0.0
H769 H 0.72977 0.75328 0.93584 0.0
H770 H 0.70248 0.70853 0.87297 0.0
H771 H 0.7298 0.67352 0.88611 0.0
H772 H 0.71897 0.74994 0.85568 0.0
H773 H 0.66091 0.73306 0.91989 0.0
H774 H 0.64445 0.72113 0.96185 0.0
H775 H 0.67756 0.78793 -0.00554 0.0
H776 H 0.69459 0.8001 0.9528 0.0
H777 H 0.66951 0.87594 0.82823 0.0
H778 H 0.66602 0.83135 0.84085 0.0
H779 H 0.72669 0.84193 0.89431 0.0
H780 H 0.73075 0.88623 0.88145 0.0
H781 H 0.67748 0.81354 0.91118 0.0
H782 H 0.74607 0.81759 0.84566 0.0
H783 H 0.75896 0.82992 0.80246 0.0
H784 H 0.69828 0.78565 0.77132 0.0
H785 H 0.68498 0.77322 0.81437 0.0
C786 C 0.744 0.71563 0.93308 0.0
C787 C 0.74529 0.69336 0.9186 0.0
C788 C 0.7287 0.73562 0.92542 0.0
C789 C 0.71394 0.73359 0.9034 0.0
C790 C 0.71372 0.71057 0.88999 0.0
C791 C 0.72931 0.69058 0.89753 0.0
C792 C 0.70246 0.75679 0.89255 0.0
C793 C 0.70912 0.76344 0.86767 0.0
C794 C 0.68938 0.77453 0.9079 0.0
C795 C 0.67909 0.76748 0.93312 0.0
C796 C 0.66482 0.74516 0.93601 0.0
C797 C 0.65537 0.73835 0.95976 0.0
C798 C 0.65996 0.75376 0.9808 0.0
C799 C 0.67398 0.77603 0.97813 0.0
C800 C 0.68349 0.78293 0.95442 0.0
C801 C 0.68202 0.86875 0.84274 0.0
C802 C 0.70049 0.88446 0.8538 0.0
C803 C 0.67992 0.84339 0.84996 0.0
C804 C 0.69591 0.83363 0.86865 0.0
C805 C 0.71403 0.84935 0.88002 0.0
C806 C 0.71649 0.87451 0.87248 0.0
C807 C 0.69533 0.80657 0.87527 0.0
C808 C 0.68639 0.79944 0.89917 0.0
C809 C 0.70569 0.78816 0.8589 0.0
C810 C 0.71441 0.79471 0.83312 0.0
C811 C 0.73549 0.81055 0.82957 0.0
C812 C 0.74286 0.81755 0.80514 0.0
C813 C 0.72932 0.80871 0.7842 0.0
C814 C 0.70866 0.79254 0.78758 0.0
C815 C 0.70123 0.78549 0.81197 0.0
H816 H 0.73473 0.81445 0.76535 0.0
H817 H 0.65265 0.74844 -0.00082 0.0
H818 H 0.25318 0.06901 0.88544 0.0
H819 H 0.24182 0.10881 0.90607 0.0
H820 H 0.2897 0.14961 0.8539 0.0
H821 H 0.3025 0.10936 0.83435 0.0
H822 H 0.29428 0.16949 0.89856 0.0
H823 H 0.22259 0.14469 0.84788 0.0
H824 H 0.19023 0.11419 0.83371 0.0
H825 H 0.15897 0.11198 0.90874 0.0
H826 H 0.19158 0.14197 0.92352 0.0
H827 H 0.23227 0.2893 0.91511 0.0
H828 H 0.25171 0.24991 0.90046 0.0
H829 H 0.21102 0.20843 0.95777 0.0
H830 H 0.19138 0.24772 0.97246 0.0
H831 H 0.20339 0.18937 0.91076 0.0
H832 H 0.27453 0.21458 0.96121 0.0
H833 H 0.30802 0.24352 0.97606 0.0
H834 H 0.33983 0.24563 0.90128 0.0
H835 H 0.3063 0.21696 0.88588 0.0
C836 C 0.26115 0.08651 0.87831 0.0
C837 C 0.27837 0.08629 0.85811 0.0
C838 C 0.25464 0.10925 0.89007 0.0
C839 C 0.26438 0.13232 0.88113 0.0
C840 C 0.28184 0.13207 0.86106 0.0
C841 C 0.289 0.10917 0.84979 0.0
C842 C 0.25603 0.15665 0.89256 0.0
C843 C 0.2744 0.174 0.9009 0.0
C844 C 0.23008 0.16236 0.89609 0.0
C845 C 0.20966 0.14541 0.88685 0.0
C846 C 0.20883 0.13768 0.86136 0.0
C847 C 0.19047 0.12043 0.85323 0.0
C848 C 0.17259 0.1111 0.87035 0.0
C849 C 0.17287 0.11919 0.89554 0.0
C850 C 0.19129 0.1363 0.9038 0.0
C851 C 0.22783 0.27186 0.92492 0.0
C852 C 0.21008 0.27153 0.94475 0.0
C853 C 0.23903 0.24939 0.91657 0.0
C854 C 0.23276 0.22627 0.92801 0.0
C855 C 0.21603 0.22609 0.94865 0.0
C856 C 0.20486 0.24855 0.95703 0.0
C857 C 0.24161 0.20208 0.91689 0.0
C858 C 0.22327 0.18485 0.90843 0.0
C859 C 0.26752 0.19663 0.91312 0.0
C860 C 0.28775 0.21382 0.92234 0.0
C861 C 0.28853 0.22139 0.94788 0.0
C862 C 0.30756 0.23771 0.95641 0.0
C863 C 0.326 0.24647 0.93961 0.0
C864 C 0.32551 0.23886 0.91426 0.0
C865 C 0.30652 0.22255 0.90563 0.0
H866 H 0.34071 0.25911 0.94625 0.0
H867 H 0.15854 0.09756 0.86417 0.0
H868 H 0.08705 0.73024 0.31396 0.0
H869 H 0.10597 0.70663 0.27862 0.0
H870 H 0.05561 0.74461 0.2268 0.0
H871 H 0.0358 0.76657 0.2618 0.0
H872 H 0.0617 0.70093 0.21019 0.0
H873 H 0.12255 0.76488 0.24383 0.0
H874 H 0.15173 0.78216 0.27602 0.0
H875 H 0.18998 0.71072 0.28024 0.0
H876 H 0.16116 0.69298 0.24798 0.0
H877 H 0.12305 0.74327 0.10185 0.0
H878 H 0.11088 0.74226 0.14646 0.0
H879 H 0.14882 0.67063 0.15548 0.0
H880 H 0.16073 0.67113 0.11059 0.0
H881 H 0.15345 0.71579 0.19706 0.0
H882 H 0.09743 0.65825 0.15278 0.0
H883 H 0.07036 0.64628 0.11668 0.0
H884 H 0.02262 0.7105 0.13105 0.0
H885 H 0.04974 0.72317 0.16688 0.0
C886 C 0.07967 0.73298 0.29506 0.0
C887 C 0.06023 0.75057 0.29057 0.0
C888 C 0.09068 0.7197 0.27484 0.0
C889 C 0.08274 0.7243 0.24987 0.0
C890 C 0.06223 0.74067 0.24578 0.0
C891 C 0.05096 0.75342 0.26589 0.0
C892 C 0.09635 0.71391 0.22749 0.0
C893 C 0.08182 0.704 0.2075 0.0
C894 C 0.12279 0.71702 0.224 0.0
C895 C 0.13952 0.72753 0.24384 0.0
C896 C 0.13706 0.75283 0.25179 0.0
C897 C 0.15355 0.76272 0.26999 0.0
C898 C 0.17254 0.74755 0.28029 0.0
C899 C 0.17519 0.72243 0.27233 0.0
C900 C 0.15883 0.71245 0.25407 0.0
C901 C 0.12919 0.72749 0.11337 0.0
C902 C 0.14259 0.70714 0.10267 0.0
C903 C 0.12221 0.72694 0.1388 0.0
C904 C 0.12881 0.70625 0.15399 0.0
C905 C 0.14353 0.68666 0.14389 0.0
C906 C 0.15019 0.68696 0.11829 0.0
C907 C 0.11838 0.70458 0.17979 0.0
C908 C 0.13352 0.71197 0.20021 0.0
C909 C 0.09243 0.69965 0.1836 0.0
C910 C 0.07574 0.69174 0.16241 0.0
C911 C 0.08129 0.66994 0.14811 0.0
C912 C 0.06592 0.66302 0.1277 0.0
C913 C 0.04482 0.67766 0.12153 0.0
C914 C 0.03899 0.6992 0.13582 0.0
C915 C 0.05434 0.70624 0.15619 0.0
H916 H 0.03296 0.6723 0.1057 0.0
H917 H 0.18527 0.75531 0.29435 0.0
H918 H 0.07812 0.22489 0.6869 0.0
H919 H 0.09278 0.24814 0.72414 0.0
H920 H 0.03609 0.21115 0.76975 0.0
H921 H 0.0211 0.18797 0.73248 0.0
H922 H 0.04255 0.26095 0.78362 0.0
H923 H 0.09485 0.18717 0.77043 0.0
H924 H 0.12244 0.15815 0.74659 0.0
H925 H 0.17437 0.21891 0.73185 0.0
H926 H 0.14712 0.24834 0.756 0.0
H927 H 0.10405 0.24685 0.90379 0.0
H928 H 0.08529 0.23935 0.86212 0.0
H929 H 0.13169 0.29844 0.83036 0.0
H930 H 0.15017 0.30661 0.87225 0.0
H931 H 0.13162 0.24338 0.80747 0.0
H932 H 0.07898 0.31687 0.82299 0.0
H933 H 0.05045 0.34472 0.84728 0.0
H934 H -0.00045 0.2825 0.85946 0.0
H935 H 0.02752 0.25443 0.83452 0.0
C936 C 0.06847 0.22201 0.70476 0.0
C937 C 0.04868 0.20433 0.70687 0.0
C938 C 0.07693 0.23525 0.72602 0.0
C939 C 0.06581 0.231 0.74975 0.0
C940 C 0.04498 0.21461 0.7516 0.0
C941 C 0.03649 0.20133 0.73031 0.0
C942 C 0.07709 0.24207 0.7729 0.0
C943 C 0.062 0.25705 0.78884 0.0
C944 C 0.10259 0.23738 0.77953 0.0
C945 C 0.11881 0.21998 0.76468 0.0
C946 C 0.11202 0.1944 0.76187 0.0
C947 C 0.1276 0.17788 0.74829 0.0
C948 C 0.15001 0.18671 0.7374 0.0
C949 C 0.15696 0.21211 0.74021 0.0
C950 C 0.1415 0.22871 0.75391 0.0
C951 C 0.11024 0.25829 0.88796 0.0
C952 C 0.1287 0.27719 0.8912 0.0
C953 C 0.09935 0.25414 0.86428 0.0
C954 C 0.107 0.26852 0.84338 0.0
C955 C 0.12544 0.28737 0.84642 0.0
C956 C 0.13599 0.29192 0.87027 0.0
C957 C 0.09708 0.26215 0.81809 0.0
C958 C 0.11237 0.24776 0.80189 0.0
C959 C 0.07178 0.26722 0.81136 0.0
C960 C 0.05542 0.28356 0.82717 0.0
C961 C 0.06181 0.3091 0.83106 0.0
C962 C 0.04569 0.32494 0.84483 0.0
C963 C 0.0233 0.31534 0.85514 0.0
C964 C 0.01692 0.2899 0.85151 0.0
C965 C 0.03281 0.27406 0.83742 0.0
H966 H 0.01087 0.32764 0.86585 0.0
H967 H 0.16208 0.17383 0.72695 0.0
H968 H 0.8581 0.73513 0.88901 0.0
H969 H 0.88084 0.74193 0.84922 0.0
H970 H 0.82075 0.70417 0.80851 0.0
H971 H 0.79895 0.696 0.84854 0.0
H972 H 0.86204 0.68431 0.79545 0.0
H973 H 0.83524 0.76977 0.80647 0.0
H974 H 0.82972 0.81182 0.82597 0.0
H975 H 0.91017 0.82273 0.8265 0.0
H976 H 0.91625 0.7805 0.80749 0.0
H977 H 0.89508 0.72778 0.67156 0.0
H978 H 0.87806 0.7131 0.71177 0.0
H979 H 0.94683 0.73578 0.74939 0.0
H980 H 0.96417 0.75037 0.70911 0.0
H981 H 0.90362 0.76246 0.76451 0.0
H982 H 0.92892 0.67573 0.75257 0.0
H983 H 0.93226 0.63538 0.72918 0.0
H984 H 0.8513 0.62951 0.72677 0.0
H985 H 0.84746 0.67 0.74984 0.0
C986 C 0.84953 0.72896 0.87142 0.0
C987 C 0.82688 0.71514 0.87158 0.0
C988 C 0.86249 0.73283 0.8487 0.0
C989 C 0.85254 0.72354 0.8258 0.0
C990 C 0.82894 0.71128 0.82593 0.0
C991 C 0.81639 0.7068 0.84869 0.0
C992 C 0.86769 0.7243 0.80216 0.0
C993 C 0.87085 0.70155 0.78858 0.0
C994 C 0.87984 0.74659 0.79351 0.0
C995 C 0.8762 0.77173 0.80576 0.0
C996 C 0.8518 0.78095 0.81103 0.0
C997 C 0.84856 0.80487 0.82197 0.0
C998 C 0.86958 0.81991 0.82754 0.0
C999 C 0.89389 0.81104 0.82223 0.0
C1000 C 0.89724 0.78709 0.81139 0.0
C1001 C 0.90705 0.72869 0.68817 0.0
C1002 C 0.93059 0.74108 0.68741 0.0
C1003 C 0.89727 0.72025 0.71116 0.0
C1004 C 0.91103 0.72387 0.73354 0.0
C1005 C 0.93586 0.73313 0.73228 0.0
C1006 C 0.94573 0.74141 0.70924 0.0
C1007 C 0.89787 0.72259 0.75814 0.0
C1008 C 0.89499 0.74528 0.77175 0.0
C1009 C 0.88562 0.70044 0.76657 0.0
C1010 C 0.88792 0.67601 0.75279 0.0
C1011 C 0.91183 0.66594 0.74688 0.0
C1012 C 0.91381 0.64301 0.73372 0.0
C1013 C 0.89201 0.62991 0.72645 0.0
C1014 C 0.86818 0.63968 0.7324 0.0
C1015 C 0.86609 0.66259 0.74556 0.0
H1016 H 0.89359 0.61218 0.71625 0.0
H1017 H 0.86702 0.83847 0.8359 0.0
H1018 H 0.91418 0.22448 0.29068 0.0
H1019 H 0.89115 0.24122 0.25438 0.0
H1020 H 0.95329 0.22085 0.20536 0.0
H1021 H 0.97599 0.20313 0.24151 0.0
H1022 H 0.89789 0.27698 0.22245 0.0
H1023 H 0.9382 0.20385 0.15368 0.0
H1024 H 0.95058 0.15871 0.15301 0.0
H1025 H 0.89431 0.14221 0.20934 0.0
H1026 H 0.88146 0.18725 0.20987 0.0
H1027 H 0.87356 0.32369 0.10229 0.0
H1028 H 0.89378 0.3039 0.13853 0.0
H1029 H 0.84161 0.24114 0.13359 0.0
H1030 H 0.82185 0.26055 0.09632 0.0
H1031 H 0.88713 0.22442 0.1451 0.0
H1032 H 0.8329 0.28852 0.17739 0.0
H1033 H 0.81417 0.33117 0.18049 0.0
H1034 H 0.88641 0.36207 0.20122 0.0
H1035 H 0.90567 0.31964 0.19788 0.0
C1036 C 0.92312 0.22391 0.27223 0.0
C1037 C 0.9469 0.21248 0.2689 0.0
C1038 C 0.90985 0.23335 0.25145 0.0
C1039 C 0.92019 0.23173 0.22701 0.0
C1040 C 0.94454 0.22156 0.22389 0.0
C1041 C 0.95768 0.21179 0.2446 0.0
C1042 C 0.90564 0.24093 0.20486 0.0
C1043 C 0.89553 0.26548 0.20556 0.0
C1044 C 0.90183 0.22575 0.18305 0.0
C1045 C 0.90931 0.1988 0.18229 0.0
C1046 C 0.92853 0.19053 0.16589 0.0
C1047 C 0.9356 0.16501 0.16551 0.0
C1048 C 0.92338 0.14763 0.18127 0.0
C1049 C 0.90394 0.15571 0.19732 0.0
C1050 C 0.89684 0.1812 0.19776 0.0
C1051 C 0.86647 0.30561 0.10883 0.0
C1052 C 0.84606 0.29372 0.09665 0.0
C1053 C 0.87797 0.29437 0.1296 0.0
C1054 C 0.86883 0.27136 0.13913 0.0
C1055 C 0.84887 0.259 0.1266 0.0
C1056 C 0.8376 0.27007 0.10538 0.0
C1057 C 0.87996 0.2607 0.16249 0.0
C1058 C 0.88941 0.23591 0.16201 0.0
C1059 C 0.88233 0.2754 0.18485 0.0
C1060 C 0.87076 0.30091 0.18724 0.0
C1061 C 0.84483 0.30443 0.18249 0.0
C1062 C 0.83411 0.32856 0.18429 0.0
C1063 C 0.8491 0.34932 0.19102 0.0
C1064 C 0.87482 0.34597 0.19601 0.0
C1065 C 0.88565 0.32188 0.1942 0.0
H1066 H 0.84077 0.36799 0.19239 0.0
H1067 H 0.92887 0.12789 0.18095 0.0
H1068 H 0.03708 0.07386 0.64367 0.0
H1069 H 0.02915 0.02868 0.63857 0.0
H1070 H 0.96326 0.03484 0.68656 0.0
H1071 H 0.97201 0.07992 0.69284 0.0
H1072 H 0.98837 -0.00272 0.70129 0.0
H1073 H 0.96089 0.02346 0.61944 0.0
H1074 H 0.96397 0.04555 0.57849 0.0
H1075 H 0.029 0.001 0.5587 0.0
H1076 H 0.0265 0.97885 0.59968 0.0
H1077 H 0.94716 0.87364 0.63474 0.0
H1078 H 0.95529 0.9189 0.63233 0.0
H1079 H 0.01497 0.91153 0.68745 0.0
H1080 H 0.00628 0.86615 0.69077 0.0
H1081 H 0.99119 0.94967 0.62025 0.0
H1082 H 0.0153 0.96178 0.72643 0.0
H1083 H 0.0067 0.94061 0.76713 0.0
H1084 H 0.93752 0.91019 0.73723 0.0
H1085 H 0.94555 0.93145 0.69649 0.0
C1086 C 0.02059 0.06571 0.65272 0.0
C1087 C 0.00515 0.08045 0.66866 0.0
C1088 C 0.01603 0.03981 0.64974 0.0
C1089 C -0.00453 0.02824 0.66201 0.0
C1090 C 0.97933 0.04324 0.67699 0.0
C1091 C 0.98424 0.06903 0.68046 0.0
C1092 C 0.99188 0.0003 0.66073 0.0
C1093 C 0.9889 0.98696 0.68351 0.0
C1094 C 0.99231 0.98667 0.63758 0.0
C1095 C 0.99362 -0.00035 0.61273 0.0
C1096 C 0.97593 0.01846 0.60641 0.0
C1097 C 0.97756 0.03099 0.58319 0.0
C1098 C -0.00329 0.02473 0.56603 0.0
C1099 C 0.01419 0.00584 0.57202 0.0
C1100 C 0.01265 0.99327 0.59523 0.0
C1101 C 0.96223 0.8815 0.64622 0.0
C1102 C 0.97578 0.86625 0.66331 0.0
C1103 C 0.96691 0.90746 0.64471 0.0
C1104 C 0.98537 0.91877 0.66008 0.0
C1105 C 0.00019 0.90333 0.67585 0.0
C1106 C -0.00472 0.87735 0.67765 0.0
C1107 C 0.98781 0.94681 0.66079 0.0
C1108 C 0.99065 0.9601 0.63796 0.0
C1109 C 0.98636 0.96054 0.68381 0.0
C1110 C 0.98118 0.94799 0.70835 0.0
C1111 C -0.00179 0.95065 0.72859 0.0
C1112 C 0.99345 0.93862 0.75165 0.0
C1113 C 0.97162 0.92399 0.75474 0.0
C1114 C 0.95446 0.92145 0.7348 0.0
C1115 C 0.95912 0.93347 0.71171 0.0
H1116 H 0.96799 0.91467 0.77259 0.0
H1117 H -0.00202 0.03448 0.54808 0.0
H1118 H 0.00853 0.0822 0.26345 0.0
H1119 H 0.01607 0.03737 0.27139 0.0
H1120 H 0.99215 0.04696 0.34889 0.0
H1121 H 0.98434 0.09188 0.34116 0.0
H1122 H 0.04494 0.00948 0.30412 0.0
H1123 H 0.95504 -0.00528 0.36321 0.0
H1124 H 0.91381 0.0153 0.3708 0.0
H1125 H 0.91508 0.0461 0.29567 0.0
H1126 H 0.95611 0.02538 0.28752 0.0
H1127 H 0.04027 0.88248 0.34765 0.0
H1128 H 0.03356 0.92817 0.35036 0.0
H1129 H 0.98527 0.92497 0.28475 0.0
H1130 H 0.99227 0.87922 0.28147 0.0
H1131 H 0.96881 0.95915 0.32666 0.0
H1132 H 0.0397 0.93875 0.27206 0.0
H1133 H 0.08041 0.91847 0.26167 0.0
H1134 H 0.11607 0.95821 0.32305 0.0
H1135 H 0.07539 0.97837 0.3341 0.0
C1136 C 0.00524 0.07495 0.28232 0.0
C1137 C -0.00453 0.09063 0.30155 0.0
C1138 C 0.00964 0.0493 0.28684 0.0
C1139 C 0.00427 0.03881 0.3106 0.0
C1140 C -0.00393 0.05466 0.33031 0.0
C1141 C 0.99171 0.08037 0.32585 0.0
C1142 C 0.00542 0.011 0.31397 0.0
C1143 C 0.02836 -0.00148 0.30932 0.0
C1144 C 0.9837 -0.00332 0.32046 0.0
C1145 C 0.95876 0.00874 0.32489 0.0
C1146 C 0.94645 0.0058 0.34829 0.0
C1147 C 0.92313 0.01749 0.35268 0.0
C1148 C 0.91188 0.03207 0.33376 0.0
C1149 C 0.92386 0.03487 0.31034 0.0
C1150 C 0.94715 0.02317 0.30583 0.0
C1151 C 0.0278 0.89135 0.33406 0.0
C1152 C 0.01701 0.87725 0.31414 0.0
C1153 C 0.02403 0.91746 0.33566 0.0
C1154 C 0.0091 0.92984 0.31765 0.0
C1155 C -0.00315 0.91565 0.29881 0.0
C1156 C 0.00096 0.88957 0.29691 0.0
C1157 C 0.00832 0.95778 0.31689 0.0
C1158 C 0.98547 0.97021 0.32198 0.0
C1159 C 0.03004 0.97207 0.31054 0.0
C1160 C 0.05445 0.95981 0.3041 0.0
C1161 C 0.05615 0.94292 0.28353 0.0
C1162 C 0.07922 0.9315 0.27748 0.0
C1163 C 0.1008 0.93703 0.2917 0.0
C1164 C 0.09933 0.95394 0.31206 0.0
C1165 C 0.07626 0.96535 0.31824 0.0
H1166 H 0.11868 0.92827 0.28688 0.0
H1167 H 0.89385 0.04115 0.33722 0.0
H1168 H 0.713 0.00842 0.90899 0.0
H1169 H 0.70119 0.01705 0.95275 0.0
H1170 H 0.6281 0.98302 0.94004 0.0
H1171 H 0.63982 0.97407 0.89607 0.0
H1172 H 0.66414 0.04288 0.97719 0.0
H1173 H 0.61491 0.94743 0.99397 0.0
H1174 H 0.61331 0.90447 0.97545 0.0
H1175 H 0.68932 0.91298 0.94802 0.0
H1176 H 0.69148 0.95581 0.96669 0.0
H1177 H 0.62282 0.04466 0.10296 0.0
H1178 H 0.61863 0.03235 0.05866 0.0
H1179 H 0.68672 0.98787 0.06401 0.0
H1180 H 0.69136 0.00024 0.10838 0.0
H1181 H 0.64827 0.96707 0.03037 0.0
H1182 H 0.69523 0.04426 0.04767 0.0
H1183 H 0.70058 0.08651 0.06699 0.0
H1184 H 0.63562 0.11359 0.02658 0.0
H1185 H 0.62967 0.07132 0.00732 0.0
C1186 C 0.69423 0.00312 0.9153 0.0
C1187 C 0.67748 0.99025 0.89907 0.0
C1188 C 0.68749 0.00816 0.94034 0.0
C1189 C 0.66394 0.00032 0.94973 0.0
C1190 C 0.6465 0.98893 0.93322 0.0
C1191 C 0.6532 0.98396 0.90805 0.0
C1192 C 0.65872 0.00243 0.97722 0.0
C1193 C 0.66031 0.02635 0.98873 0.0
C1194 C 0.6541 0.98079 0.99237 0.0
C1195 C 0.65322 0.95491 0.98145 0.0
C1196 C 0.6313 0.94008 0.98405 0.0
C1197 C 0.6303 0.91576 0.97353 0.0
C1198 C 0.65117 0.90604 0.96049 0.0
C1199 C 0.67314 0.92056 0.95805 0.0
C1200 C 0.67425 0.94486 0.96858 0.0
C1201 C 0.63661 0.03171 0.09501 0.0
C1202 C 0.65781 0.02393 0.10912 0.0
C1203 C 0.6341 0.02467 0.06966 0.0
C1204 C 0.65257 0.00956 0.05805 0.0
C1205 C 0.6723 -0.00039 0.07269 0.0
C1206 C 0.67497 0.0068 0.09804 0.0
C1207 C 0.65361 0.00749 0.03016 0.0
C1208 C 0.6514 0.98364 0.01867 0.0
C1209 C 0.6581 0.0291 0.01502 0.0
C1210 C 0.66184 0.05459 0.02629 0.0
C1211 C 0.68197 0.05918 0.04307 0.0
C1212 C 0.68513 0.08313 0.05399 0.0
C1213 C 0.66841 0.10271 0.04808 0.0
C1214 C 0.64853 0.09839 0.03118 0.0
C1215 C 0.64526 0.07444 0.02025 0.0
H1216 H 0.67089 0.12124 0.05654 0.0
H1217 H 0.65034 0.88723 0.95233 0.0
H1218 H 0.28183 -0.00429 0.1102 0.0
H1219 H 0.28658 0.00432 0.06509 0.0
H1220 H 0.36674 0.99052 0.07036 0.0
H1221 H 0.36232 0.98207 0.11557 0.0
H1222 H 0.35165 0.02834 0.03253 0.0
H1223 H 0.33166 0.94238 0.0605 0.0
H1224 H 0.30534 0.91224 0.08457 0.0
H1225 H 0.24021 0.93374 0.04122 0.0
H1226 H 0.26596 0.96448 0.01738 0.0
H1227 H 0.36131 0.00061 0.90072 0.0
H1228 H 0.3671 -0.00317 0.94663 0.0
H1229 H 0.28662 0.98619 0.95579 0.0
H1230 H 0.28103 0.98824 0.91044 0.0
H1231 H 0.30711 0.95882 0.98744 0.0
H1232 H 0.32061 0.04629 0.96357 0.0
H1233 H 0.34172 0.08105 0.94064 0.0
H1234 H 0.41247 0.06165 0.97538 0.0
H1235 H 0.3918 0.02658 -0.0017 0.0
C1236 C 0.30063 -0.00457 0.10206 0.0
C1237 C 0.32158 0.98756 0.11639 0.0
C1238 C 0.3033 0.0003 0.07622 0.0
C1239 C 0.32691 -0.00259 0.06436 0.0
C1240 C 0.34833 0.99262 0.07916 0.0
C1241 C 0.3457 0.98769 0.105 0.0
C1242 C 0.32845 -0.0049 0.03648 0.0
C1243 C 0.34214 0.01305 0.02258 0.0
C1244 C 0.31582 0.97524 0.02362 0.0
C1245 C 0.3007 0.95591 0.03731 0.0
C1246 C 0.31169 0.94082 0.05624 0.0
C1247 C 0.29684 0.92371 0.06992 0.0
C1248 C 0.27109 0.92124 0.06453 0.0
C1249 C 0.26013 0.93579 0.04545 0.0
C1250 C 0.27484 0.95306 0.03186 0.0
C1251 C 0.34498 -0.00308 0.91256 0.0
C1252 C 0.32071 -0.00521 0.90186 0.0
C1253 C 0.34825 -0.00495 0.93883 0.0
C1254 C 0.32722 0.99186 0.95488 0.0
C1255 C 0.30322 0.98864 0.944 0.0
C1256 C 0.30005 0.98983 0.91788 0.0
C1257 C 0.32948 0.99272 0.98299 0.0
C1258 C 0.31676 0.97417 -0.00285 0.0
C1259 C 0.34235 0.01248 -0.00404 0.0
C1260 C 0.35473 0.03367 0.9824 0.0
C1261 C 0.34069 0.04937 0.9662 0.0
C1262 C 0.35257 0.06912 0.95322 0.0
C1263 C 0.37844 0.0735 0.95649 0.0
C1264 C 0.39245 0.0582 0.97283 0.0
C1265 C 0.38067 0.03839 0.98582 0.0
H1266 H 0.38761 0.08879 0.94642 0.0
H1267 H 0.25962 0.90787 0.0749 0.0
H1268 H 0.88353 0.65377 0.93819 0.0
H1269 H 0.92597 0.64861 0.95484 0.0
H1270 H 0.90144 0.67844 0.02705 0.0
H1271 H 0.85906 0.6854 0.00959 0.0
H1272 H 0.94184 0.69861 0.01837 0.0
H1273 H 0.92022 0.613 0.0161 0.0
H1274 H 0.90273 0.57273 5e-05 0.0
H1275 H 0.95826 0.57158 0.94072 0.0
H1276 H 0.97579 0.61207 0.95603 0.0
H1277 H 0.07871 0.64297 0.03167 0.0
H1278 H 0.03314 0.63461 0.02988 0.0
H1279 H 0.0223 0.70374 0.98798 0.0
H1280 H 0.06747 0.71251 0.99017 0.0
H1281 H -0.00169 0.62727 -0.00508 0.0
H1282 H 0.97155 0.7347 0.0075 0.0
H1283 H 0.98804 0.77191 0.03048 0.0
H1284 H 0.02695 0.72317 0.08235 0.0
H1285 H 0.01027 0.68566 0.06007 0.0
C1286 C 0.88709 0.65898 0.95772 0.0
C1287 C 0.86803 0.67009 0.97258 0.0
C1288 C 0.91139 0.65574 0.96737 0.0
C1289 C 0.91704 0.6626 0.99246 0.0
C1290 C 0.8977 0.67297 0.00763 0.0
C1291 C 0.87348 0.67694 -0.00231 0.0
C1292 C 0.94366 0.66131 0.00167 0.0
C1293 C 0.95401 0.68282 0.01346 0.0
C1294 C 0.95961 0.6403 -0.00354 0.0
C1295 C 0.94932 0.61571 0.98723 0.0
C1296 C 0.92865 0.60426 -0.00045 0.0
C1297 C 0.91871 0.58137 0.99058 0.0
C1298 C 0.9294 0.56961 0.96941 0.0
C1299 C 0.95004 0.5807 0.95715 0.0
C1300 C 0.96001 0.60361 0.966 0.0
C1301 C 0.06664 0.65624 0.02182 0.0
C1302 C 0.07673 0.67856 0.01129 0.0
C1303 C 0.04059 0.65143 0.02085 0.0
C1304 C 0.02422 0.66882 0.00931 0.0
C1305 C 0.03446 0.69036 -0.00242 0.0
C1306 C 0.06036 0.69529 -0.00127 0.0
C1307 C -0.00366 0.66519 0.00985 0.0
C1308 C 0.98586 0.64274 0.00016 0.0
C1309 C 0.98003 0.68476 0.01818 0.0
C1310 C 0.98977 0.70734 0.03195 0.0
C1311 C 0.98346 0.7319 0.02392 0.0
C1312 C 0.99287 0.75306 0.03682 0.0
C1313 C 0.00856 0.7499 0.05784 0.0
C1314 C 0.01482 0.72558 0.06606 0.0
C1315 C 0.0054 0.70437 0.05328 0.0
H1316 H 0.01586 0.76631 0.06776 0.0
H1317 H 0.9217 0.55192 0.96248 0.0
H1318 H 0.07851 0.28526 0.00498 0.0
H1319 H 0.03446 0.29781 0.0098 0.0
H1320 H 0.05226 0.37227 0.98151 0.0
H1321 H 0.09644 0.35976 0.97607 0.0
H1322 H 0.0072 0.33469 0.03396 0.0
H1323 H 0.00489 0.38948 0.94227 0.0
H1324 H 0.03233 0.39575 0.90498 0.0
H1325 H 0.05672 0.31831 0.90919 0.0
H1326 H 0.02915 0.31151 0.94631 0.0
H1327 H 0.88546 0.38412 0.01909 0.0
H1328 H 0.9308 0.38553 0.01116 0.0
H1329 H 0.92638 0.31452 0.97098 0.0
H1330 H 0.88087 0.31251 0.97923 0.0
H1331 H 0.96488 0.35431 0.95241 0.0
H1332 H 0.93553 0.30696 0.02705 0.0
H1333 H 0.9115 0.3032 0.06694 0.0
H1334 H 0.95197 0.36665 0.09789 0.0
H1335 H 0.97589 0.37107 0.05799 0.0
C1336 C 0.07327 0.30449 0.00023 0.0
C1337 C 0.09099 0.32132 0.98964 0.0
C1338 C 0.04803 0.31165 0.00307 0.0
C1339 C 0.04001 0.33576 -0.00453 0.0
C1340 C 0.058 0.35338 0.98701 0.0
C1341 C 0.08327 0.34619 0.98399 0.0
C1342 C 0.01257 0.34129 -0.00589 0.0
C1343 C -0.00199 0.33916 0.01618 0.0
C1344 C 0.00054 0.3471 0.97088 0.0
C1345 C 0.01515 0.35009 0.94713 0.0
C1346 C 0.01585 0.37372 0.93501 0.0
C1347 C 0.03149 0.37739 0.91399 0.0
C1348 C 0.04642 0.35751 0.9049 0.0
C1349 C 0.04527 0.33373 0.91639 0.0
C1350 C 0.02959 0.32994 0.93737 0.0
C1351 C 0.89387 0.36907 0.00794 0.0
C1352 C 0.87957 0.34782 0.00037 0.0
C1353 C 0.91983 0.37002 0.00337 0.0
C1354 C 0.93187 0.34995 0.99087 0.0
C1355 C 0.91731 0.33016 0.98072 0.0
C1356 C 0.8913 0.32903 0.9855 0.0
C1357 C 0.95965 0.34749 0.99224 0.0
C1358 C 0.97417 0.35012 0.97021 0.0
C1359 C 0.97171 0.34222 0.01554 0.0
C1360 C 0.95729 0.33951 0.03947 0.0
C1361 C 0.9391 0.32027 0.04227 0.0
C1362 C 0.92554 0.31799 0.06489 0.0
C1363 C 0.9302 0.3347 0.08492 0.0
C1364 C 0.94837 0.35375 0.08235 0.0
C1365 C 0.96193 0.35615 0.05975 0.0
H1366 H 0.91984 0.33284 0.10249 0.0
H1367 H 0.05892 0.36059 0.88899 0.0
loop_
_geom_bond_atom_site_label_1
_geom_bond_atom_site_label_2
_geom_bond_distance
_geom_bond_site_symmetry_2
_ccdc_geom_bond_type
Co0 O1 2.216 . S
Co0 O2 2.091 . S
Co0 O4 2.004 . S
Co0 O10 2.021 . S
Co0 O12 2.137 . S
Co0 O13 2.244 . S
O1 Co0 2.216 . S
O1 C8 1.247 . S
O2 Co0 2.091 . S
O2 C8 1.261 . S
C3 O12 1.247 . S
C3 O13 1.272 . S
O4 Co0 2.004 . S
O4 C9 1.259 . S
Co5 O6 2.061 . S
Co5 O11 2.052 . S
Co5 O13 2.135 . S
O6 Co5 2.061 . S
O6 C9 1.235 . S
C7 O10 1.238 . S
C7 O11 1.241 . S
C8 O1 1.247 . S
C8 O2 1.261 . S
C9 O4 1.259 . S
C9 O6 1.235 . S
O10 Co0 2.021 . S
O10 C7 1.238 . S
O11 Co5 2.052 . S
O11 C7 1.241 . S
O12 Co0 2.137 . S
O12 C3 1.247 . S
O13 Co0 2.244 . S
O13 C3 1.272 . S
O13 Co5 2.135 . S
Co14 O15 2.216 . S
Co14 O16 2.091 . S
Co14 O18 2.004 . S
Co14 O24 2.021 . S
Co14 O26 2.137 . S
Co14 O27 2.244 . S
O15 Co14 2.216 . S
O15 C22 1.247 . S
O16 Co14 2.091 . S
O16 C22 1.261 . S
C17 O26 1.247 . S
C17 O27 1.272 . S
O18 Co14 2.004 . S
O18 C23 1.259 . S
Co19 O20 2.061 . S
Co19 O25 2.052 . S
Co19 O27 2.135 . S
O20 Co19 2.061 . S
O20 C23 1.235 . S
C21 O24 1.238 . S
C21 O25 1.241 . S
C22 O15 1.247 . S
C22 O16 1.261 . S
C23 O18 1.259 . S
C23 O20 1.235 . S
O24 Co14 2.021 . S
O24 C21 1.238 . S
O25 Co19 2.052 . S
O25 C21 1.241 . S
O26 Co14 2.137 . S
O26 C17 1.247 . S
O27 Co14 2.244 . S
O27 C17 1.272 . S
O27 Co19 2.135 . S
Co28 O29 2.216 . S
Co28 O30 2.091 . S
Co28 O32 2.004 . S
Co28 O38 2.021 . S
Co28 O40 2.137 . S
Co28 O41 2.244 . S
O29 Co28 2.216 . S
O29 C36 1.247 . S
O30 Co28 2.091 . S
O30 C36 1.261 . S
C31 O40 1.247 . S
C31 O41 1.272 . S
O32 Co28 2.004 . S
O32 C37 1.259 . S
Co33 O34 2.061 . S
Co33 O39 2.052 . S
Co33 O41 2.135 . S
O34 Co33 2.061 . S
O34 C37 1.235 . S
C35 O38 1.238 . S
C35 O39 1.241 . S
C36 O29 1.247 . S
C36 O30 1.261 . S
C37 O32 1.259 . S
C37 O34 1.235 . S
O38 Co28 2.021 . S
O38 C35 1.238 . S
O39 Co33 2.052 . S
O39 C35 1.241 . S
O40 Co28 2.137 . S
O40 C31 1.247 . S
O41 Co28 2.244 . S
O41 C31 1.272 . S
O41 Co33 2.135 . S
Co42 O43 2.216 . S
Co42 O44 2.091 . S
Co42 O46 2.004 . S
Co42 O52 2.021 . S
Co42 O54 2.137 . S
Co42 O55 2.244 . S
O43 Co42 2.216 . S
O43 C50 1.247 . S
O44 Co42 2.091 . S
O44 C50 1.261 . S
C45 O54 1.247 . S
C45 O55 1.272 . S
O46 Co42 2.004 . S
O46 C51 1.259 . S
Co47 O48 2.061 . S
Co47 O53 2.052 . S
Co47 O55 2.135 . S
O48 Co47 2.061 . S
O48 C51 1.235 . S
C49 O52 1.238 . S
C49 O53 1.241 . S
C50 O43 1.247 . S
C50 O44 1.261 . S
C51 O46 1.259 . S
C51 O48 1.235 . S
O52 Co42 2.021 . S
O52 C49 1.238 . S
O53 Co47 2.052 . S
O53 C49 1.241 . S
O54 Co42 2.137 . S
O54 C45 1.247 . S
O55 Co42 2.244 . S
O55 C45 1.272 . S
O55 Co47 2.135 . S
Co56 O57 2.216 . S
Co56 O58 2.091 . S
Co56 O60 2.004 . S
Co56 O66 2.021 . S
Co56 O68 2.137 . S
Co56 O69 2.244 . S
O57 Co56 2.216 . S
O57 C64 1.247 . S
O58 Co56 2.091 . S
O58 C64 1.261 . S
C59 O68 1.247 . S
C59 O69 1.272 . S
O60 Co56 2.004 . S
O60 C65 1.259 . S
Co61 O62 2.061 . S
Co61 O67 2.052 . S
Co61 O69 2.135 . S
O62 Co61 2.061 . S
O62 C65 1.235 . S
C63 O66 1.238 . S
C63 O67 1.241 . S
C64 O57 1.247 . S
C64 O58 1.261 . S
C65 O60 1.259 . S
C65 O62 1.235 . S
O66 Co56 2.021 . S
O66 C63 1.238 . S
O67 Co61 2.052 . S
O67 C63 1.241 . S
O68 Co56 2.137 . S
O68 C59 1.247 . S
O69 Co56 2.244 . S
O69 C59 1.272 . S
O69 Co61 2.135 . S
Co70 O71 2.216 . S
Co70 O72 2.091 . S
Co70 O74 2.004 . S
Co70 O80 2.021 . S
Co70 O82 2.137 . S
Co70 O83 2.244 . S
O71 Co70 2.216 . S
O71 C78 1.247 . S
O72 Co70 2.091 . S
O72 C78 1.261 . S
C73 O82 1.247 . S
C73 O83 1.272 . S
O74 Co70 2.004 . S
O74 C79 1.259 . S
Co75 O76 2.061 . S
Co75 O81 2.052 . S
Co75 O83 2.135 . S
O76 Co75 2.061 . S
O76 C79 1.235 . S
C77 O80 1.238 . S
C77 O81 1.241 . S
C78 O71 1.247 . S
C78 O72 1.261 . S
C79 O74 1.259 . S
C79 O76 1.235 . S
O80 Co70 2.021 . S
O80 C77 1.238 . S
O81 Co75 2.052 . S
O81 C77 1.241 . S
O82 Co70 2.137 . S
O82 C73 1.247 . S
O83 Co70 2.244 . S
O83 C73 1.272 . S
O83 Co75 2.135 . S
Co84 O85 2.216 . S
Co84 O86 2.091 . S
Co84 O88 2.004 . S
Co84 O94 2.021 . S
Co84 O96 2.137 . S
Co84 O97 2.244 . S
O85 Co84 2.216 . S
O85 C92 1.247 . S
O86 Co84 2.091 . S
O86 C92 1.261 . S
C87 O96 1.247 . S
C87 O97 1.272 . S
O88 Co84 2.004 . S
O88 C93 1.259 . S
Co89 O90 2.061 . S
Co89 O95 2.052 . S
Co89 O97 2.135 . S
O90 Co89 2.061 . S
O90 C93 1.235 . S
C91 O94 1.238 . S
C91 O95 1.241 . S
C92 O85 1.247 . S
C92 O86 1.261 . S
C93 O88 1.259 . S
C93 O90 1.235 . S
O94 Co84 2.021 . S
O94 C91 1.238 . S
O95 Co89 2.052 . S
O95 C91 1.241 . S
O96 Co84 2.137 . S
O96 C87 1.247 . S
O97 Co84 2.244 . S
O97 C87 1.272 . S
O97 Co89 2.135 . S
Co98 O99 2.216 . S
Co98 O100 2.091 . S
Co98 O102 2.004 . S
Co98 O108 2.021 . S
Co98 O110 2.137 . S
Co98 O111 2.244 . S
O99 Co98 2.216 . S
O99 C106 1.247 . S
O100 Co98 2.091 . S
O100 C106 1.261 . S
C101 O110 1.247 . S
C101 O111 1.272 . S
O102 Co98 2.004 . S
O102 C107 1.259 . S
Co103 O104 2.061 . S
Co103 O109 2.052 . S
Co103 O111 2.135 . S
O104 Co103 2.061 . S
O104 C107 1.235 . S
C105 O108 1.238 . S
C105 O109 1.241 . S
C106 O99 1.247 . S
C106 O100 1.261 . S
C107 O102 1.259 . S
C107 O104 1.235 . S
O108 Co98 2.021 . S
O108 C105 1.238 . S
O109 Co103 2.052 . S
O109 C105 1.241 . S
O110 Co98 2.137 . S
O110 C101 1.247 . S
O111 Co98 2.244 . S
O111 C101 1.272 . S
O111 Co103 2.135 . S
Co112 O113 2.216 . S
Co112 O114 2.091 . S
Co112 O116 2.004 . S
Co112 O122 2.021 . S
Co112 O124 2.137 . S
Co112 O125 2.244 . S
O113 Co112 2.216 . S
O113 C120 1.247 . S
O114 Co112 2.091 . S
O114 C120 1.261 . S
C115 O124 1.247 . S
C115 O125 1.272 . S
O116 Co112 2.004 . S
O116 C121 1.259 . S
Co117 O118 2.061 . S
Co117 O123 2.052 . S
Co117 O125 2.135 . S
O118 Co117 2.061 . S
O118 C121 1.235 . S
C119 O122 1.238 . S
C119 O123 1.241 . S
C120 O113 1.247 . S
C120 O114 1.261 . S
C121 O116 1.259 . S
C121 O118 1.235 . S
O122 Co112 2.021 . S
O122 C119 1.238 . S
O123 Co117 2.052 . S
O123 C119 1.241 . S
O124 Co112 2.137 . S
O124 C115 1.247 . S
O125 Co112 2.244 . S
O125 C115 1.272 . S
O125 Co117 2.135 . S
Co126 O127 2.216 . S
Co126 O128 2.091 . S
Co126 O130 2.004 . S
Co126 O136 2.021 . S
Co126 O138 2.137 . S
Co126 O139 2.244 . S
O127 Co126 2.216 . S
O127 C134 1.247 . S
O128 Co126 2.091 . S
O128 C134 1.261 . S
C129 O138 1.247 . S
C129 O139 1.272 . S
O130 Co126 2.004 . S
O130 C135 1.259 . S
Co131 O132 2.061 . S
Co131 O137 2.052 . S
Co131 O139 2.135 . S
O132 Co131 2.061 . S
O132 C135 1.235 . S
C133 O136 1.238 . S
C133 O137 1.241 . S
C134 O127 1.247 . S
C134 O128 1.261 . S
C135 O130 1.259 . S
C135 O132 1.235 . S
O136 Co126 2.021 . S
O136 C133 1.238 . S
O137 Co131 2.052 . S
O137 C133 1.241 . S
O138 Co126 2.137 . S
O138 C129 1.247 . S
O139 Co126 2.244 . S
O139 C129 1.272 . S
O139 Co131 2.135 . S
Co140 O141 2.216 . S
Co140 O142 2.091 . S
Co140 O144 2.004 . S
Co140 O150 2.021 . S
Co140 O152 2.137 . S
Co140 O153 2.244 . S
O141 Co140 2.216 . S
O141 C148 1.247 . S
O142 Co140 2.091 . S
O142 C148 1.261 . S
C143 O152 1.247 . S
C143 O153 1.272 . S
O144 Co140 2.004 . S
O144 C149 1.259 . S
Co145 O146 2.061 . S
Co145 O151 2.052 . S
Co145 O153 2.135 . S
O146 Co145 2.061 . S
O146 C149 1.235 . S
C147 O150 1.238 . S
C147 O151 1.241 . S
C148 O141 1.247 . S
C148 O142 1.261 . S
C149 O144 1.259 . S
C149 O146 1.235 . S
O150 Co140 2.021 . S
O150 C147 1.238 . S
O151 Co145 2.052 . S
O151 C147 1.241 . S
O152 Co140 2.137 . S
O152 C143 1.247 . S
O153 Co140 2.244 . S
O153 C143 1.272 . S
O153 Co145 2.135 . S
Co154 O155 2.216 . S
Co154 O156 2.091 . S
Co154 O158 2.004 . S
Co154 O164 2.021 . S
Co154 O166 2.137 . S
Co154 O167 2.244 . S
O155 Co154 2.216 . S
O155 C162 1.247 . S
O156 Co154 2.091 . S
O156 C162 1.261 . S
C157 O166 1.247 . S
C157 O167 1.272 . S
O158 Co154 2.004 . S
O158 C163 1.259 . S
Co159 O160 2.061 . S
Co159 O165 2.052 . S
Co159 O167 2.135 . S
O160 Co159 2.061 . S
O160 C163 1.235 . S
C161 O164 1.238 . S
C161 O165 1.241 . S
C162 O155 1.247 . S
C162 O156 1.261 . S
C163 O158 1.259 . S
C163 O160 1.235 . S
O164 Co154 2.021 . S
O164 C161 1.238 . S
O165 Co159 2.052 . S
O165 C161 1.241 . S
O166 Co154 2.137 . S
O166 C157 1.247 . S
O167 Co154 2.244 . S
O167 C157 1.272 . S
O167 Co159 2.135 . S
H168 C186 0.951 . S
H169 C188 0.951 . S
H170 C190 0.950 . S
H171 C191 0.950 . S
H172 C193 0.950 . S
H173 C196 0.950 . S
H174 C197 0.950 . S
H175 C199 0.950 . S
H176 C200 0.950 . S
H177 C201 0.951 . S
H178 C203 0.951 . S
H179 C205 0.950 . S
H180 C206 0.950 . S
H181 C208 0.950 . S
H182 C211 0.950 . S
H183 C212 0.950 . S
H184 C214 0.950 . S
H185 C215 0.950 . S
C186 H168 0.951 . S
C186 C187 1.366 . S
C186 C188 1.388 . S
C187 C186 1.366 . S
C187 C191 1.385 . S
C188 H169 0.951 . S
C188 C186 1.388 . S
C188 C189 1.366 . S
C189 C188 1.366 . S
C189 C190 1.414 . S
C189 C192 1.499 . S
C190 H170 0.950 . S
C190 C189 1.414 . S
C190 C191 1.374 . S
C191 H171 0.950 . S
C191 C187 1.385 . S
C191 C190 1.374 . S
C192 C189 1.499 . S
C192 C193 1.373 1_655 S
C192 C194 1.389 . S
C193 H172 0.950 . S
C193 C192 1.373 1_455 S
C193 C209 1.377 . S
C194 C192 1.389 . S
C194 C195 1.524 . S
C194 C208 1.377 . S
C195 C194 1.524 . S
C195 C196 1.397 . S
C195 C200 1.363 . S
C196 H173 0.950 . S
C196 C195 1.397 . S
C196 C197 1.334 . S
C197 H174 0.950 . S
C197 C196 1.334 . S
C197 C198 1.287 . S
C198 C197 1.287 . S
C198 C199 1.524 . S
C198 H217 0.913 . S
C199 H175 0.950 . S
C199 C198 1.524 . S
C199 C200 1.415 . S
C200 H176 0.950 . S
C200 C195 1.363 . S
C200 C199 1.415 . S
C201 H177 0.951 . S
C201 C202 1.366 . S
C201 C203 1.388 . S
C202 C201 1.366 . S
C202 C206 1.385 . S
C203 H178 0.951 . S
C203 C201 1.388 . S
C203 C204 1.366 . S
C204 C203 1.366 . S
C204 C205 1.414 . S
C204 C207 1.499 . S
C205 H179 0.950 . S
C205 C204 1.414 . S
C205 C206 1.374 . S
C206 H180 0.950 . S
C206 C202 1.385 . S
C206 C205 1.374 . S
C207 C204 1.499 . S
C207 C208 1.373 1_455 S
C207 C209 1.389 . S
C208 H181 0.950 . S
C208 C194 1.377 . S
C208 C207 1.373 1_655 S
C209 C193 1.377 . S
C209 C207 1.389 . S
C209 C210 1.524 . S
C210 C209 1.524 . S
C210 C211 1.397 . S
C210 C215 1.363 . S
C211 H182 0.950 . S
C211 C210 1.397 . S
C211 C212 1.334 . S
C212 H183 0.950 . S
C212 C211 1.334 . S
C212 C213 1.287 . S
C213 C212 1.287 . S
C213 C214 1.524 . S
C213 H216 0.999 . S
C214 H184 0.950 . S
C214 C213 1.524 . S
C214 C215 1.415 . S
C215 H185 0.950 . S
C215 C210 1.363 . S
C215 C214 1.415 . S
H216 C213 0.999 . S
H217 C198 0.913 . S
H218 C236 0.951 . S
H219 C238 0.951 . S
H220 C240 0.950 . S
H221 C241 0.950 . S
H222 C243 0.950 . S
H223 C246 0.950 . S
H224 C247 0.950 . S
H225 C249 0.950 . S
H226 C250 0.950 . S
H227 C251 0.951 . S
H228 C253 0.951 . S
H229 C255 0.950 . S
H230 C256 0.950 . S
H231 C258 0.950 . S
H232 C261 0.950 . S
H233 C262 0.950 . S
H234 C264 0.950 . S
H235 C265 0.950 . S
C236 H218 0.951 . S
C236 C237 1.366 . S
C236 C238 1.388 . S
C237 C236 1.366 . S
C237 C241 1.385 . S
C238 H219 0.951 . S
C238 C236 1.388 . S
C238 C239 1.366 . S
C239 C238 1.366 . S
C239 C240 1.414 . S
C239 C242 1.499 . S
C240 H220 0.950 . S
C240 C239 1.414 . S
C240 C241 1.374 . S
C241 H221 0.950 . S
C241 C237 1.385 . S
C241 C240 1.374 . S
C242 C239 1.499 . S
C242 C243 1.373 1_455 S
C242 C244 1.389 . S
C243 H222 0.950 . S
C243 C242 1.373 1_655 S
C243 C259 1.377 . S
C244 C242 1.389 . S
C244 C245 1.524 . S
C244 C258 1.377 . S
C245 C244 1.524 . S
C245 C246 1.397 . S
C245 C250 1.363 . S
C246 H223 0.950 . S
C246 C245 1.397 . S
C246 C247 1.334 . S
C247 H224 0.950 . S
C247 C246 1.334 . S
C247 C248 1.287 . S
C248 C247 1.287 . S
C248 C249 1.524 . S
C248 H267 0.913 . S
C249 H225 0.950 . S
C249 C248 1.524 . S
C249 C250 1.415 . S
C250 H226 0.950 . S
C250 C245 1.363 . S
C250 C249 1.415 . S
C251 H227 0.951 . S
C251 C252 1.366 . S
C251 C253 1.388 . S
C252 C251 1.366 . S
C252 C256 1.385 . S
C253 H228 0.951 . S
C253 C251 1.388 . S
C253 C254 1.366 . S
C254 C253 1.366 . S
C254 C255 1.414 . S
C254 C257 1.499 . S
C255 H229 0.950 . S
C255 C254 1.414 . S
C255 C256 1.374 . S
C256 H230 0.950 . S
C256 C252 1.385 . S
C256 C255 1.374 . S
C257 C254 1.499 . S
C257 C258 1.373 1_655 S
C257 C259 1.389 . S
C258 H231 0.950 . S
C258 C244 1.377 . S
C258 C257 1.373 1_455 S
C259 C243 1.377 . S
C259 C257 1.389 . S
C259 C260 1.524 . S
C260 C259 1.524 . S
C260 C261 1.397 . S
C260 C265 1.363 . S
C261 H232 0.950 . S
C261 C260 1.397 . S
C261 C262 1.334 . S
C262 H233 0.950 . S
C262 C261 1.334 . S
C262 C263 1.287 . S
C263 C262 1.287 . S
C263 C264 1.524 . S
C263 H266 0.999 . S
C264 H234 0.950 . S
C264 C263 1.524 . S
C264 C265 1.415 . S
C265 H235 0.950 . S
C265 C260 1.363 . S
C265 C264 1.415 . S
H266 C263 0.999 . S
H267 C248 0.913 . S
H268 C286 0.951 . S
H269 C288 0.951 . S
H270 C290 0.950 . S
H271 C291 0.950 . S
H272 C293 0.950 . S
H273 C296 0.950 . S
H274 C297 0.950 . S
H275 C299 0.950 . S
H276 C300 0.950 . S
H277 C301 0.951 . S
H278 C303 0.951 . S
H279 C305 0.950 . S
H280 C306 0.950 . S
H281 C308 0.950 . S
H282 C311 0.950 . S
H283 C312 0.950 . S
H284 C314 0.950 . S
H285 C315 0.950 . S
C286 H268 0.951 . S
C286 C287 1.366 . S
C286 C288 1.388 . S
C287 C286 1.366 . S
C287 C291 1.385 . S
C288 H269 0.951 . S
C288 C286 1.388 . S
C288 C289 1.366 . S
C289 C288 1.366 . S
C289 C290 1.414 . S
C289 C292 1.499 . S
C290 H270 0.950 . S
C290 C289 1.414 . S
C290 C291 1.374 . S
C291 H271 0.950 . S
C291 C287 1.385 . S
C291 C290 1.374 . S
C292 C289 1.499 . S
C292 C293 1.373 1_565 S
C292 C294 1.389 . S
C293 H272 0.950 . S
C293 C292 1.373 1_545 S
C293 C309 1.377 . S
C294 C292 1.389 . S
C294 C295 1.524 . S
C294 C308 1.377 . S
C295 C294 1.524 . S
C295 C296 1.397 . S
C295 C300 1.363 . S
C296 H273 0.950 . S
C296 C295 1.397 . S
C296 C297 1.334 . S
C297 H274 0.950 . S
C297 C296 1.334 . S
C297 C298 1.287 . S
C298 C297 1.287 . S
C298 C299 1.524 . S
C298 H317 0.913 . S
C299 H275 0.950 . S
C299 C298 1.524 . S
C299 C300 1.415 . S
C300 H276 0.950 . S
C300 C295 1.363 . S
C300 C299 1.415 . S
C301 H277 0.951 . S
C301 C302 1.366 . S
C301 C303 1.388 . S
C302 C301 1.366 . S
C302 C306 1.385 . S
C303 H278 0.951 . S
C303 C301 1.388 . S
C303 C304 1.366 . S
C304 C303 1.366 . S
C304 C305 1.414 . S
C304 C307 1.499 . S
C305 H279 0.950 . S
C305 C304 1.414 . S
C305 C306 1.374 . S
C306 H280 0.950 . S
C306 C302 1.385 . S
C306 C305 1.374 . S
C307 C304 1.499 . S
C307 C308 1.373 1_545 S
C307 C309 1.389 . S
C308 H281 0.950 . S
C308 C294 1.377 . S
C308 C307 1.373 1_565 S
C309 C293 1.377 . S
C309 C307 1.389 . S
C309 C310 1.524 . S
C310 C309 1.524 . S
C310 C311 1.397 . S
C310 C315 1.363 . S
C311 H282 0.950 . S
C311 C310 1.397 . S
C311 C312 1.334 . S
C312 H283 0.950 . S
C312 C311 1.334 . S
C312 C313 1.287 . S
C313 C312 1.287 . S
C313 C314 1.524 . S
C313 H316 0.999 . S
C314 H284 0.950 . S
C314 C313 1.524 . S
C314 C315 1.415 . S
C315 H285 0.950 . S
C315 C310 1.363 . S
C315 C314 1.415 . S
H316 C313 0.999 . S
H317 C298 0.913 . S
H318 C336 0.951 . S
H319 C338 0.951 . S
H320 C340 0.950 . S
H321 C341 0.950 . S
H322 C343 0.950 . S
H323 C346 0.950 . S
H324 C347 0.950 . S
H325 C349 0.950 . S
H326 C350 0.950 . S
H327 C351 0.951 . S
H328 C353 0.951 . S
H329 C355 0.950 . S
H330 C356 0.950 . S
H331 C358 0.950 . S
H332 C361 0.950 . S
H333 C362 0.950 . S
H334 C364 0.950 . S
H335 C365 0.950 . S
C336 H318 0.951 . S
C336 C337 1.366 . S
C336 C338 1.388 . S
C337 C336 1.366 . S
C337 C341 1.385 . S
C338 H319 0.951 . S
C338 C336 1.388 . S
C338 C339 1.366 . S
C339 C338 1.366 . S
C339 C340 1.414 . S
C339 C342 1.499 . S
C340 H320 0.950 . S
C340 C339 1.414 . S
C340 C341 1.374 . S
C341 H321 0.950 . S
C341 C337 1.385 . S
C341 C340 1.374 . S
C342 C339 1.499 . S
C342 C343 1.373 1_565 S
C342 C344 1.389 . S
C343 H322 0.950 . S
C343 C342 1.373 1_545 S
C343 C359 1.377 . S
C344 C342 1.389 . S
C344 C345 1.524 . S
C344 C358 1.377 . S
C345 C344 1.524 . S
C345 C346 1.397 . S
C345 C350 1.363 . S
C346 H323 0.950 . S
C346 C345 1.397 . S
C346 C347 1.334 . S
C347 H324 0.950 . S
C347 C346 1.334 . S
C347 C348 1.287 . S
C348 C347 1.287 . S
C348 C349 1.524 . S
C348 H367 0.913 . S
C349 H325 0.950 . S
C349 C348 1.524 . S
C349 C350 1.415 . S
C350 H326 0.950 . S
C350 C345 1.363 . S
C350 C349 1.415 . S
C351 H327 0.951 . S
C351 C352 1.366 . S
C351 C353 1.388 . S
C352 C351 1.366 . S
C352 C356 1.385 . S
C353 H328 0.951 . S
C353 C351 1.388 . S
C353 C354 1.366 . S
C354 C353 1.366 . S
C354 C355 1.414 . S
C354 C357 1.499 . S
C355 H329 0.950 . S
C355 C354 1.414 . S
C355 C356 1.374 . S
C356 H330 0.950 . S
C356 C352 1.385 . S
C356 C355 1.374 . S
C357 C354 1.499 . S
C357 C358 1.373 1_545 S
C357 C359 1.389 . S
C358 H331 0.950 . S
C358 C344 1.377 . S
C358 C357 1.373 1_565 S
C359 C343 1.377 . S
C359 C357 1.389 . S
C359 C360 1.524 . S
C360 C359 1.524 . S
C360 C361 1.397 . S
C360 C365 1.363 . S
C361 H332 0.950 . S
C361 C360 1.397 . S
C361 C362 1.334 . S
C362 H333 0.950 . S
C362 C361 1.334 . S
C362 C363 1.287 . S
C363 C362 1.287 . S
C363 C364 1.524 . S
C363 H366 0.999 . S
C364 H334 0.950 . S
C364 C363 1.524 . S
C364 C365 1.415 . S
C365 H335 0.950 . S
C365 C360 1.363 . S
C365 C364 1.415 . S
H366 C363 0.999 . S
H367 C348 0.913 . S
H368 C386 0.951 . S
H369 C388 0.951 . S
H370 C390 0.950 . S
H371 C391 0.950 . S
H372 C393 0.950 . S
H373 C396 0.950 . S
H374 C397 0.950 . S
H375 C399 0.950 . S
H376 C400 0.950 . S
H377 C401 0.951 . S
H378 C403 0.951 . S
H379 C405 0.950 . S
H380 C406 0.950 . S
H381 C408 0.950 . S
H382 C411 0.950 . S
H383 C412 0.950 . S
H384 C414 0.950 . S
H385 C415 0.950 . S
C386 H368 0.951 . S
C386 C387 1.366 . S
C386 C388 1.388 . S
C387 C386 1.366 . S
C387 C391 1.385 . S
C388 H369 0.951 . S
C388 C386 1.388 . S
C388 C389 1.366 . S
C389 C388 1.366 . S
C389 C390 1.414 . S
C389 C392 1.499 . S
C390 H370 0.950 . S
C390 C389 1.414 . S
C390 C391 1.374 . S
C391 H371 0.950 . S
C391 C387 1.385 . S
C391 C390 1.374 . S
C392 C389 1.499 . S
C392 C393 1.373 1_556 S
C392 C394 1.389 . S
C393 H372 0.950 . S
C393 C392 1.373 1_554 S
C393 C409 1.377 . S
C394 C392 1.389 . S
C394 C395 1.524 . S
C394 C408 1.377 . S
C395 C394 1.524 . S
C395 C396 1.397 . S
C395 C400 1.363 . S
C396 H373 0.950 . S
C396 C395 1.397 . S
C396 C397 1.334 . S
C397 H374 0.950 . S
C397 C396 1.334 . S
C397 C398 1.287 . S
C398 C397 1.287 . S
C398 C399 1.524 . S
C398 H417 0.913 . S
C399 H375 0.950 . S
C399 C398 1.524 . S
C399 C400 1.415 . S
C400 H376 0.950 . S
C400 C395 1.363 . S
C400 C399 1.415 . S
C401 H377 0.951 . S
C401 C402 1.366 . S
C401 C403 1.388 . S
C402 C401 1.366 . S
C402 C406 1.385 . S
C403 H378 0.951 . S
C403 C401 1.388 . S
C403 C404 1.366 . S
C404 C403 1.366 . S
C404 C405 1.414 . S
C404 C407 1.499 . S
C405 H379 0.950 . S
C405 C404 1.414 . S
C405 C406 1.374 . S
C406 H380 0.950 . S
C406 C402 1.385 . S
C406 C405 1.374 . S
C407 C404 1.499 . S
C407 C408 1.373 1_554 S
C407 C409 1.389 . S
C408 H381 0.950 . S
C408 C394 1.377 . S
C408 C407 1.373 1_556 S
C409 C393 1.377 . S
C409 C407 1.389 . S
C409 C410 1.524 . S
C410 C409 1.524 . S
C410 C411 1.397 . S
C410 C415 1.363 . S
C411 H382 0.950 . S
C411 C410 1.397 . S
C411 C412 1.334 . S
C412 H383 0.950 . S
C412 C411 1.334 . S
C412 C413 1.287 . S
C413 C412 1.287 . S
C413 C414 1.524 . S
C413 H416 0.999 . S
C414 H384 0.950 . S
C414 C413 1.524 . S
C414 C415 1.415 . S
C415 H385 0.950 . S
C415 C410 1.363 . S
C415 C414 1.415 . S
H416 C413 0.999 . S
H417 C398 0.913 . S
H418 C436 0.951 . S
H419 C438 0.951 . S
H420 C440 0.950 . S
H421 C441 0.950 . S
H422 C443 0.950 . S
H423 C446 0.950 . S
H424 C447 0.950 . S
H425 C449 0.950 . S
H426 C450 0.950 . S
H427 C451 0.951 . S
H428 C453 0.951 . S
H429 C455 0.950 . S
H430 C456 0.950 . S
H431 C458 0.950 . S
H432 C461 0.950 . S
H433 C462 0.950 . S
H434 C464 0.950 . S
H435 C465 0.950 . S
C436 H418 0.951 . S
C436 C437 1.366 . S
C436 C438 1.388 . S
C437 C436 1.366 . S
C437 C441 1.385 . S
C438 H419 0.951 . S
C438 C436 1.388 . S
C438 C439 1.366 . S
C439 C438 1.366 . S
C439 C440 1.414 . S
C439 C442 1.499 . S
C440 H420 0.950 . S
C440 C439 1.414 . S
C440 C441 1.374 . S
C441 H421 0.950 . S
C441 C437 1.385 . S
C441 C440 1.374 . S
C442 C439 1.499 . S
C442 C443 1.373 1_556 S
C442 C444 1.389 . S
C443 H422 0.950 . S
C443 C442 1.373 1_554 S
C443 C459 1.377 . S
C444 C442 1.389 . S
C444 C445 1.524 . S
C444 C458 1.377 . S
C445 C444 1.524 . S
C445 C446 1.397 . S
C445 C450 1.363 . S
C446 H423 0.950 . S
C446 C445 1.397 . S
C446 C447 1.334 . S
C447 H424 0.950 . S
C447 C446 1.334 . S
C447 C448 1.287 . S
C448 C447 1.287 . S
C448 C449 1.524 . S
C448 H467 0.913 . S
C449 H425 0.950 . S
C449 C448 1.524 . S
C449 C450 1.415 . S
C450 H426 0.950 . S
C450 C445 1.363 . S
C450 C449 1.415 . S
C451 H427 0.951 . S
C451 C452 1.366 . S
C451 C453 1.388 . S
C452 C451 1.366 . S
C452 C456 1.385 . S
C453 H428 0.951 . S
C453 C451 1.388 . S
C453 C454 1.366 . S
C454 C453 1.366 . S
C454 C455 1.414 . S
C454 C457 1.499 . S
C455 H429 0.950 . S
C455 C454 1.414 . S
C455 C456 1.374 . S
C456 H430 0.950 . S
C456 C452 1.385 . S
C456 C455 1.374 . S
C457 C454 1.499 . S
C457 C458 1.373 1_554 S
C457 C459 1.389 . S
C458 H431 0.950 . S
C458 C444 1.377 . S
C458 C457 1.373 1_556 S
C459 C443 1.377 . S
C459 C457 1.389 . S
C459 C460 1.524 . S
C460 C459 1.524 . S
C460 C461 1.397 . S
C460 C465 1.363 . S
C461 H432 0.950 . S
C461 C460 1.397 . S
C461 C462 1.334 . S
C462 H433 0.950 . S
C462 C461 1.334 . S
C462 C463 1.287 . S
C463 C462 1.287 . S
C463 C464 1.524 . S
C463 H466 0.999 . S
C464 H434 0.950 . S
C464 C463 1.524 . S
C464 C465 1.415 . S
C465 H435 0.950 . S
C465 C460 1.363 . S
C465 C464 1.415 . S
H466 C463 0.999 . S
H467 C448 0.913 . S
H468 C486 0.951 . S
H469 C488 0.951 . S
H470 C490 0.950 . S
H471 C491 0.950 . S
H472 C493 0.950 . S
H473 C496 0.950 . S
H474 C497 0.950 . S
H475 C499 0.950 . S
H476 C500 0.950 . S
H477 C501 0.951 . S
H478 C503 0.951 . S
H479 C505 0.950 . S
H480 C506 0.950 . S
H481 C508 0.950 . S
H482 C511 0.950 . S
H483 C512 0.950 . S
H484 C514 0.950 . S
H485 C515 0.950 . S
C486 H468 0.951 . S
C486 C487 1.366 . S
C486 C488 1.388 . S
C487 C486 1.366 . S
C487 C491 1.385 . S
C488 H469 0.951 . S
C488 C486 1.388 . S
C488 C489 1.366 . S
C489 C488 1.366 . S
C489 C490 1.414 . S
C489 C492 1.499 . S
C490 H470 0.950 . S
C490 C489 1.414 . S
C490 C491 1.374 . S
C491 H471 0.950 . S
C491 C487 1.385 . S
C491 C490 1.374 . S
C492 C489 1.499 . S
C492 C493 1.373 . S
C492 C494 1.389 . S
C493 H472 0.950 . S
C493 C492 1.373 . S
C493 C509 1.377 . S
C494 C492 1.389 . S
C494 C495 1.524 . S
C494 C508 1.377 . S
C495 C494 1.524 . S
C495 C496 1.397 . S
C495 C500 1.363 . S
C496 H473 0.950 . S
C496 C495 1.397 . S
C496 C497 1.334 . S
C497 H474 0.950 . S
C497 C496 1.334 . S
C497 C498 1.287 . S
C498 C497 1.287 . S
C498 C499 1.524 . S
C498 H517 0.913 . S
C499 H475 0.950 . S
C499 C498 1.524 . S
C499 C500 1.415 . S
C500 H476 0.950 . S
C500 C495 1.363 . S
C500 C499 1.415 . S
C501 H477 0.951 . S
C501 C502 1.366 . S
C501 C503 1.388 . S
C502 C501 1.366 . S
C502 C506 1.385 . S
C503 H478 0.951 . S
C503 C501 1.388 . S
C503 C504 1.366 . S
C504 C503 1.366 . S
C504 C505 1.414 . S
C504 C507 1.499 . S
C505 H479 0.950 . S
C505 C504 1.414 . S
C505 C506 1.374 . S
C506 H480 0.950 . S
C506 C502 1.385 . S
C506 C505 1.374 . S
C507 C504 1.499 . S
C507 C508 1.373 . S
C507 C509 1.389 . S
C508 H481 0.950 . S
C508 C494 1.377 . S
C508 C507 1.373 . S
C509 C493 1.377 . S
C509 C507 1.389 . S
C509 C510 1.524 . S
C510 C509 1.524 . S
C510 C511 1.397 . S
C510 C515 1.363 . S
C511 H482 0.950 . S
C511 C510 1.397 . S
C511 C512 1.334 . S
C512 H483 0.950 . S
C512 C511 1.334 . S
C512 C513 1.287 . S
C513 C512 1.287 . S
C513 C514 1.524 . S
C513 H516 0.999 . S
C514 H484 0.950 . S
C514 C513 1.524 . S
C514 C515 1.415 . S
C515 H485 0.950 . S
C515 C510 1.363 . S
C515 C514 1.415 . S
H516 C513 0.999 . S
H517 C498 0.913 . S
H518 C536 0.951 . S
H519 C538 0.951 . S
H520 C540 0.950 . S
H521 C541 0.950 . S
H522 C543 0.950 . S
H523 C546 0.950 . S
H524 C547 0.950 . S
H525 C549 0.950 1_545 S
H526 C550 0.950 . S
H527 C551 0.951 . S
H528 C553 0.951 . S
H529 C555 0.950 . S
H530 C556 0.950 . S
H531 C558 0.950 . S
H532 C561 0.950 . S
H533 C562 0.950 . S
H534 C564 0.950 . S
H535 C565 0.950 . S
C536 H518 0.951 . S
C536 C537 1.366 . S
C536 C538 1.388 . S
C537 C536 1.366 . S
C537 C541 1.385 . S
C538 H519 0.951 . S
C538 C536 1.388 . S
C538 C539 1.366 . S
C539 C538 1.366 . S
C539 C540 1.414 . S
C539 C542 1.499 . S
C540 H520 0.950 . S
C540 C539 1.414 . S
C540 C541 1.374 . S
C541 H521 0.950 . S
C541 C537 1.385 . S
C541 C540 1.374 . S
C542 C539 1.499 . S
C542 C543 1.373 . S
C542 C544 1.389 . S
C543 H522 0.950 . S
C543 C542 1.373 . S
C543 C559 1.377 . S
C544 C542 1.389 . S
C544 C545 1.524 . S
C544 C558 1.377 . S
C545 C544 1.524 . S
C545 C546 1.397 . S
C545 C550 1.363 . S
C546 H523 0.950 . S
C546 C545 1.397 . S
C546 C547 1.334 . S
C547 H524 0.950 . S
C547 C546 1.334 . S
C547 C548 1.287 . S
C548 C547 1.287 . S
C548 C549 1.524 . S
C548 H567 0.913 1_565 S
C549 H525 0.950 1_565 S
C549 C548 1.524 . S
C549 C550 1.415 . S
C550 H526 0.950 . S
C550 C545 1.363 . S
C550 C549 1.415 . S
C551 H527 0.951 . S
C551 C552 1.366 . S
C551 C553 1.388 . S
C552 C551 1.366 . S
C552 C556 1.385 . S
C553 H528 0.951 . S
C553 C551 1.388 . S
C553 C554 1.366 . S
C554 C553 1.366 . S
C554 C555 1.414 . S
C554 C557 1.499 . S
C555 H529 0.950 . S
C555 C554 1.414 . S
C555 C556 1.374 . S
C556 H530 0.950 . S
C556 C552 1.385 . S
C556 C555 1.374 . S
C557 C554 1.499 . S
C557 C558 1.373 . S
C557 C559 1.389 . S
C558 H531 0.950 . S
C558 C544 1.377 . S
C558 C557 1.373 . S
C559 C543 1.377 . S
C559 C557 1.389 . S
C559 C560 1.524 . S
C560 C559 1.524 . S
C560 C561 1.397 . S
C560 C565 1.363 . S
C561 H532 0.950 . S
C561 C560 1.397 . S
C561 C562 1.334 . S
C562 H533 0.950 . S
C562 C561 1.334 . S
C562 C563 1.287 . S
C563 C562 1.287 . S
C563 C564 1.524 . S
C563 H566 0.999 . S
C564 H534 0.950 . S
C564 C563 1.524 . S
C564 C565 1.415 . S
C565 H535 0.950 . S
C565 C560 1.363 . S
C565 C564 1.415 . S
H566 C563 0.999 . S
H567 C548 0.913 1_545 S
H568 C586 0.951 . S
H569 C588 0.951 . S
H570 C590 0.950 . S
H571 C591 0.950 . S
H572 C593 0.950 . S
H573 C596 0.950 . S
H574 C597 0.950 . S
H575 C599 0.950 . S
H576 C600 0.950 . S
H577 C601 0.951 . S
H578 C603 0.951 . S
H579 C605 0.950 . S
H580 C606 0.950 . S
H581 C608 0.950 . S
H582 C611 0.950 . S
H583 C612 0.950 . S
H584 C614 0.950 . S
H585 C615 0.950 . S
C586 H568 0.951 . S
C586 C587 1.366 . S
C586 C588 1.388 . S
C587 C586 1.366 . S
C587 C591 1.385 . S
C588 H569 0.951 . S
C588 C586 1.388 . S
C588 C589 1.366 . S
C589 C588 1.366 . S
C589 C590 1.414 . S
C589 C592 1.499 . S
C590 H570 0.950 . S
C590 C589 1.414 . S
C590 C591 1.374 . S
C591 H571 0.950 . S
C591 C587 1.385 . S
C591 C590 1.374 . S
C592 C589 1.499 . S
C592 C593 1.373 . S
C592 C594 1.389 . S
C593 H572 0.950 . S
C593 C592 1.373 . S
C593 C609 1.377 . S
C594 C592 1.389 . S
C594 C595 1.524 . S
C594 C608 1.377 . S
C595 C594 1.524 . S
C595 C596 1.397 . S
C595 C600 1.363 . S
C596 H573 0.950 . S
C596 C595 1.397 . S
C596 C597 1.334 . S
C597 H574 0.950 . S
C597 C596 1.334 . S
C597 C598 1.287 . S
C598 C597 1.287 . S
C598 C599 1.524 . S
C598 H617 0.913 . S
C599 H575 0.950 . S
C599 C598 1.524 . S
C599 C600 1.415 . S
C600 H576 0.950 . S
C600 C595 1.363 . S
C600 C599 1.415 . S
C601 H577 0.951 . S
C601 C602 1.366 . S
C601 C603 1.388 . S
C602 C601 1.366 . S
C602 C606 1.385 . S
C603 H578 0.951 . S
C603 C601 1.388 . S
C603 C604 1.366 . S
C604 C603 1.366 . S
C604 C605 1.414 . S
C604 C607 1.499 . S
C605 H579 0.950 . S
C605 C604 1.414 . S
C605 C606 1.374 . S
C606 H580 0.950 . S
C606 C602 1.385 . S
C606 C605 1.374 . S
C607 C604 1.499 . S
C607 C608 1.373 . S
C607 C609 1.389 . S
C608 H581 0.950 . S
C608 C594 1.377 . S
C608 C607 1.373 . S
C609 C593 1.377 . S
C609 C607 1.389 . S
C609 C610 1.524 . S
C610 C609 1.524 . S
C610 C611 1.397 . S
C610 C615 1.363 . S
C611 H582 0.950 . S
C611 C610 1.397 . S
C611 C612 1.334 . S
C612 H583 0.950 . S
C612 C611 1.334 . S
C612 C613 1.287 . S
C613 C612 1.287 . S
C613 C614 1.524 . S
C613 H616 0.999 . S
C614 H584 0.950 . S
C614 C613 1.524 . S
C614 C615 1.415 . S
C615 H585 0.950 . S
C615 C610 1.363 . S
C615 C614 1.415 . S
H616 C613 0.999 . S
H617 C598 0.913 . S
H618 C636 0.951 . S
H619 C638 0.951 . S
H620 C640 0.950 . S
H621 C641 0.950 . S
H622 C643 0.950 . S
H623 C646 0.950 . S
H624 C647 0.950 . S
H625 C649 0.950 . S
H626 C650 0.950 . S
H627 C651 0.951 . S
H628 C653 0.951 . S
H629 C655 0.950 . S
H630 C656 0.950 . S
H631 C658 0.950 . S
H632 C661 0.950 . S
H633 C662 0.950 . S
H634 C664 0.950 . S
H635 C665 0.950 . S
C636 H618 0.951 . S
C636 C637 1.366 . S
C636 C638 1.388 . S
C637 C636 1.366 . S
C637 C641 1.385 . S
C638 H619 0.951 . S
C638 C636 1.388 . S
C638 C639 1.366 . S
C639 C638 1.366 . S
C639 C640 1.414 . S
C639 C642 1.499 . S
C640 H620 0.950 . S
C640 C639 1.414 . S
C640 C641 1.374 . S
C641 H621 0.950 . S
C641 C637 1.385 . S
C641 C640 1.374 . S
C642 C639 1.499 . S
C642 C643 1.373 . S
C642 C644 1.389 . S
C643 H622 0.950 . S
C643 C642 1.373 . S
C643 C659 1.377 . S
C644 C642 1.389 . S
C644 C645 1.524 . S
C644 C658 1.377 . S
C645 C644 1.524 . S
C645 C646 1.397 . S
C645 C650 1.363 . S
C646 H623 0.950 . S
C646 C645 1.397 . S
C646 C647 1.334 . S
C647 H624 0.950 . S
C647 C646 1.334 . S
C647 C648 1.287 . S
C648 C647 1.287 . S
C648 C649 1.524 . S
C648 H667 0.913 . S
C649 H625 0.950 . S
C649 C648 1.524 . S
C649 C650 1.415 . S
C650 H626 0.950 . S
C650 C645 1.363 . S
C650 C649 1.415 . S
C651 H627 0.951 . S
C651 C652 1.366 . S
C651 C653 1.388 . S
C652 C651 1.366 . S
C652 C656 1.385 . S
C653 H628 0.951 . S
C653 C651 1.388 . S
C653 C654 1.366 . S
C654 C653 1.366 . S
C654 C655 1.414 . S
C654 C657 1.499 . S
C655 H629 0.950 . S
C655 C654 1.414 . S
C655 C656 1.374 . S
C656 H630 0.950 . S
C656 C652 1.385 . S
C656 C655 1.374 . S
C657 C654 1.499 . S
C657 C658 1.373 . S
C657 C659 1.389 . S
C658 H631 0.950 . S
C658 C644 1.377 . S
C658 C657 1.373 . S
C659 C643 1.377 . S
C659 C657 1.389 . S
C659 C660 1.524 . S
C660 C659 1.524 . S
C660 C661 1.397 . S
C660 C665 1.363 . S
C661 H632 0.950 . S
C661 C660 1.397 . S
C661 C662 1.334 . S
C662 H633 0.950 . S
C662 C661 1.334 . S
C662 C663 1.287 . S
C663 C662 1.287 . S
C663 C664 1.524 . S
C663 H666 0.999 . S
C664 H634 0.950 . S
C664 C663 1.524 . S
C664 C665 1.415 . S
C665 H635 0.950 . S
C665 C660 1.363 . S
C665 C664 1.415 . S
H666 C663 0.999 . S
H667 C648 0.913 . S
H668 C686 0.951 . S
H669 C688 0.951 . S
H670 C690 0.950 . S
H671 C691 0.950 . S
H672 C693 0.950 . S
H673 C696 0.950 . S
H674 C697 0.950 . S
H675 C699 0.950 . S
H676 C700 0.950 . S
H677 C701 0.951 . S
H678 C703 0.951 . S
H679 C705 0.950 . S
H680 C706 0.950 . S
H681 C708 0.950 . S
H682 C711 0.950 . S
H683 C712 0.950 . S
H684 C714 0.950 . S
H685 C715 0.950 . S
C686 H668 0.951 . S
C686 C687 1.366 . S
C686 C688 1.388 . S
C687 C686 1.366 . S
C687 C691 1.385 . S
C688 H669 0.951 . S
C688 C686 1.388 . S
C688 C689 1.366 . S
C689 C688 1.366 . S
C689 C690 1.414 . S
C689 C692 1.499 . S
C690 H670 0.950 . S
C690 C689 1.414 . S
C690 C691 1.374 . S
C691 H671 0.950 . S
C691 C687 1.385 . S
C691 C690 1.374 . S
C692 C689 1.499 . S
C692 C693 1.373 . S
C692 C694 1.389 . S
C693 H672 0.950 . S
C693 C692 1.373 . S
C693 C709 1.377 . S
C694 C692 1.389 . S
C694 C695 1.524 . S
C694 C708 1.377 . S
C695 C694 1.524 . S
C695 C696 1.397 . S
C695 C700 1.363 . S
C696 H673 0.950 . S
C696 C695 1.397 . S
C696 C697 1.334 . S
C697 H674 0.950 . S
C697 C696 1.334 . S
C697 C698 1.287 . S
C698 C697 1.287 . S
C698 C699 1.524 . S
C698 H717 0.913 . S
C699 H675 0.950 . S
C699 C698 1.524 . S
C699 C700 1.415 . S
C700 H676 0.950 . S
C700 C695 1.363 . S
C700 C699 1.415 . S
C701 H677 0.951 . S
C701 C702 1.366 . S
C701 C703 1.388 . S
C702 C701 1.366 . S
C702 C706 1.385 . S
C703 H678 0.951 . S
C703 C701 1.388 . S
C703 C704 1.366 . S
C704 C703 1.366 . S
C704 C705 1.414 . S
C704 C707 1.499 . S
C705 H679 0.950 . S
C705 C704 1.414 . S
C705 C706 1.374 . S
C706 H680 0.950 . S
C706 C702 1.385 . S
C706 C705 1.374 . S
C707 C704 1.499 . S
C707 C708 1.373 . S
C707 C709 1.389 . S
C708 H681 0.950 . S
C708 C694 1.377 . S
C708 C707 1.373 . S
C709 C693 1.377 . S
C709 C707 1.389 . S
C709 C710 1.524 . S
C710 C709 1.524 . S
C710 C711 1.397 . S
C710 C715 1.363 . S
C711 H682 0.950 . S
C711 C710 1.397 . S
C711 C712 1.334 . S
C712 H683 0.950 . S
C712 C711 1.334 . S
C712 C713 1.287 . S
C713 C712 1.287 . S
C713 C714 1.524 . S
C713 H716 0.999 . S
C714 H684 0.950 . S
C714 C713 1.524 . S
C714 C715 1.415 . S
C715 H685 0.950 . S
C715 C710 1.363 . S
C715 C714 1.415 . S
H716 C713 0.999 . S
H717 C698 0.913 . S
H718 C736 0.951 . S
H719 C738 0.951 . S
H720 C740 0.950 . S
H721 C741 0.950 . S
H722 C743 0.950 . S
H723 C746 0.950 . S
H724 C747 0.950 . S
H725 C749 0.950 . S
H726 C750 0.950 . S
H727 C751 0.951 . S
H728 C753 0.951 . S
H729 C755 0.950 . S
H730 C756 0.950 . S
H731 C758 0.950 . S
H732 C761 0.950 . S
H733 C762 0.950 . S
H734 C764 0.950 . S
H735 C765 0.950 . S
C736 H718 0.951 . S
C736 C737 1.366 . S
C736 C738 1.388 . S
C737 C736 1.366 . S
C737 C741 1.385 . S
C738 H719 0.951 . S
C738 C736 1.388 . S
C738 C739 1.366 . S
C739 C738 1.366 . S
C739 C740 1.414 . S
C739 C742 1.499 . S
C740 H720 0.950 . S
C740 C739 1.414 . S
C740 C741 1.374 . S
C741 H721 0.950 . S
C741 C737 1.385 . S
C741 C740 1.374 . S
C742 C739 1.499 . S
C742 C743 1.373 . S
C742 C744 1.389 . S
C743 H722 0.950 . S
C743 C742 1.373 . S
C743 C759 1.377 . S
C744 C742 1.389 . S
C744 C745 1.524 . S
C744 C758 1.377 . S
C745 C744 1.524 . S
C745 C746 1.397 . S
C745 C750 1.363 . S
C746 H723 0.950 . S
C746 C745 1.397 . S
C746 C747 1.334 . S
C747 H724 0.950 . S
C747 C746 1.334 . S
C747 C748 1.287 . S
C748 C747 1.287 . S
C748 C749 1.524 . S
C748 H767 0.913 . S
C749 H725 0.950 . S
C749 C748 1.524 . S
C749 C750 1.415 . S
C750 H726 0.950 . S
C750 C745 1.363 . S
C750 C749 1.415 . S
C751 H727 0.951 . S
C751 C752 1.366 . S
C751 C753 1.388 . S
C752 C751 1.366 . S
C752 C756 1.385 . S
C753 H728 0.951 . S
C753 C751 1.388 . S
C753 C754 1.366 . S
C754 C753 1.366 . S
C754 C755 1.414 . S
C754 C757 1.499 . S
C755 H729 0.950 . S
C755 C754 1.414 . S
C755 C756 1.374 . S
C756 H730 0.950 . S
C756 C752 1.385 . S
C756 C755 1.374 . S
C757 C754 1.499 . S
C757 C758 1.373 . S
C757 C759 1.389 . S
C758 H731 0.950 . S
C758 C744 1.377 . S
C758 C757 1.373 . S
C759 C743 1.377 . S
C759 C757 1.389 . S
C759 C760 1.524 . S
C760 C759 1.524 . S
C760 C761 1.397 . S
C760 C765 1.363 . S
C761 H732 0.950 . S
C761 C760 1.397 . S
C761 C762 1.334 . S
C762 H733 0.950 . S
C762 C761 1.334 . S
C762 C763 1.287 . S
C763 C762 1.287 . S
C763 C764 1.524 . S
C763 H766 0.999 . S
C764 H734 0.950 . S
C764 C763 1.524 . S
C764 C765 1.415 . S
C765 H735 0.950 . S
C765 C760 1.363 . S
C765 C764 1.415 . S
H766 C763 0.999 . S
H767 C748 0.913 . S
H768 C786 0.951 . S
H769 C788 0.951 . S
H770 C790 0.950 . S
H771 C791 0.950 . S
H772 C793 0.950 . S
H773 C796 0.950 . S
H774 C797 0.950 . S
H775 C799 0.950 . S
H776 C800 0.950 . S
H777 C801 0.951 . S
H778 C803 0.951 . S
H779 C805 0.950 . S
H780 C806 0.950 . S
H781 C808 0.950 . S
H782 C811 0.950 . S
H783 C812 0.950 . S
H784 C814 0.950 . S
H785 C815 0.950 . S
C786 H768 0.951 . S
C786 C787 1.366 . S
C786 C788 1.388 . S
C787 C786 1.366 . S
C787 C791 1.385 . S
C788 H769 0.951 . S
C788 C786 1.388 . S
C788 C789 1.366 . S
C789 C788 1.366 . S
C789 C790 1.414 . S
C789 C792 1.499 . S
C790 H770 0.950 . S
C790 C789 1.414 . S
C790 C791 1.374 . S
C791 H771 0.950 . S
C791 C787 1.385 . S
C791 C790 1.374 . S
C792 C789 1.499 . S
C792 C793 1.373 . S
C792 C794 1.389 . S
C793 H772 0.950 . S
C793 C792 1.373 . S
C793 C809 1.377 . S
C794 C792 1.389 . S
C794 C795 1.524 . S
C794 C808 1.377 . S
C795 C794 1.524 . S
C795 C796 1.397 . S
C795 C800 1.363 . S
C796 H773 0.950 . S
C796 C795 1.397 . S
C796 C797 1.334 . S
C797 H774 0.950 . S
C797 C796 1.334 . S
C797 C798 1.287 . S
C798 C797 1.287 . S
C798 C799 1.524 . S
C798 H817 0.913 1_556 S
C799 H775 0.950 . S
C799 C798 1.524 . S
C799 C800 1.415 . S
C800 H776 0.950 . S
C800 C795 1.363 . S
C800 C799 1.415 . S
C801 H777 0.951 . S
C801 C802 1.366 . S
C801 C803 1.388 . S
C802 C801 1.366 . S
C802 C806 1.385 . S
C803 H778 0.951 . S
C803 C801 1.388 . S
C803 C804 1.366 . S
C804 C803 1.366 . S
C804 C805 1.414 . S
C804 C807 1.499 . S
C805 H779 0.950 . S
C805 C804 1.414 . S
C805 C806 1.374 . S
C806 H780 0.950 . S
C806 C802 1.385 . S
C806 C805 1.374 . S
C807 C804 1.499 . S
C807 C808 1.373 . S
C807 C809 1.389 . S
C808 H781 0.950 . S
C808 C794 1.377 . S
C808 C807 1.373 . S
C809 C793 1.377 . S
C809 C807 1.389 . S
C809 C810 1.524 . S
C810 C809 1.524 . S
C810 C811 1.397 . S
C810 C815 1.363 . S
C811 H782 0.950 . S
C811 C810 1.397 . S
C811 C812 1.334 . S
C812 H783 0.950 . S
C812 C811 1.334 . S
C812 C813 1.287 . S
C813 C812 1.287 . S
C813 C814 1.524 . S
C813 H816 0.999 . S
C814 H784 0.950 . S
C814 C813 1.524 . S
C814 C815 1.415 . S
C815 H785 0.950 . S
C815 C810 1.363 . S
C815 C814 1.415 . S
H816 C813 0.999 . S
H817 C798 0.913 1_554 S
H818 C836 0.951 . S
H819 C838 0.951 . S
H820 C840 0.950 . S
H821 C841 0.950 . S
H822 C843 0.950 . S
H823 C846 0.950 . S
H824 C847 0.950 . S
H825 C849 0.950 . S
H826 C850 0.950 . S
H827 C851 0.951 . S
H828 C853 0.951 . S
H829 C855 0.950 . S
H830 C856 0.950 . S
H831 C858 0.950 . S
H832 C861 0.950 . S
H833 C862 0.950 . S
H834 C864 0.950 . S
H835 C865 0.950 . S
C836 H818 0.951 . S
C836 C837 1.366 . S
C836 C838 1.388 . S
C837 C836 1.366 . S
C837 C841 1.385 . S
C838 H819 0.951 . S
C838 C836 1.388 . S
C838 C839 1.366 . S
C839 C838 1.366 . S
C839 C840 1.414 . S
C839 C842 1.499 . S
C840 H820 0.950 . S
C840 C839 1.414 . S
C840 C841 1.374 . S
C841 H821 0.950 . S
C841 C837 1.385 . S
C841 C840 1.374 . S
C842 C839 1.499 . S
C842 C843 1.373 . S
C842 C844 1.389 . S
C843 H822 0.950 . S
C843 C842 1.373 . S
C843 C859 1.377 . S
C844 C842 1.389 . S
C844 C845 1.524 . S
C844 C858 1.377 . S
C845 C844 1.524 . S
C845 C846 1.397 . S
C845 C850 1.363 . S
C846 H823 0.950 . S
C846 C845 1.397 . S
C846 C847 1.334 . S
C847 H824 0.950 . S
C847 C846 1.334 . S
C847 C848 1.287 . S
C848 C847 1.287 . S
C848 C849 1.524 . S
C848 H867 0.913 . S
C849 H825 0.950 . S
C849 C848 1.524 . S
C849 C850 1.415 . S
C850 H826 0.950 . S
C850 C845 1.363 . S
C850 C849 1.415 . S
C851 H827 0.951 . S
C851 C852 1.366 . S
C851 C853 1.388 . S
C852 C851 1.366 . S
C852 C856 1.385 . S
C853 H828 0.951 . S
C853 C851 1.388 . S
C853 C854 1.366 . S
C854 C853 1.366 . S
C854 C855 1.414 . S
C854 C857 1.499 . S
C855 H829 0.950 . S
C855 C854 1.414 . S
C855 C856 1.374 . S
C856 H830 0.950 . S
C856 C852 1.385 . S
C856 C855 1.374 . S
C857 C854 1.499 . S
C857 C858 1.373 . S
C857 C859 1.389 . S
C858 H831 0.950 . S
C858 C844 1.377 . S
C858 C857 1.373 . S
C859 C843 1.377 . S
C859 C857 1.389 . S
C859 C860 1.524 . S
C860 C859 1.524 . S
C860 C861 1.397 . S
C860 C865 1.363 . S
C861 H832 0.950 . S
C861 C860 1.397 . S
C861 C862 1.334 . S
C862 H833 0.950 . S
C862 C861 1.334 . S
C862 C863 1.287 . S
C863 C862 1.287 . S
C863 C864 1.524 . S
C863 H866 0.999 . S
C864 H834 0.950 . S
C864 C863 1.524 . S
C864 C865 1.415 . S
C865 H835 0.950 . S
C865 C860 1.363 . S
C865 C864 1.415 . S
H866 C863 0.999 . S
H867 C848 0.913 . S
H868 C886 0.951 . S
H869 C888 0.951 . S
H870 C890 0.950 . S
H871 C891 0.950 . S
H872 C893 0.950 . S
H873 C896 0.950 . S
H874 C897 0.950 . S
H875 C899 0.950 . S
H876 C900 0.950 . S
H877 C901 0.951 . S
H878 C903 0.951 . S
H879 C905 0.950 . S
H880 C906 0.950 . S
H881 C908 0.950 . S
H882 C911 0.950 . S
H883 C912 0.950 . S
H884 C914 0.950 . S
H885 C915 0.950 . S
C886 H868 0.951 . S
C886 C887 1.366 . S
C886 C888 1.388 . S
C887 C886 1.366 . S
C887 C891 1.385 . S
C888 H869 0.951 . S
C888 C886 1.388 . S
C888 C889 1.366 . S
C889 C888 1.366 . S
C889 C890 1.414 . S
C889 C892 1.499 . S
C890 H870 0.950 . S
C890 C889 1.414 . S
C890 C891 1.374 . S
C891 H871 0.950 . S
C891 C887 1.385 . S
C891 C890 1.374 . S
C892 C889 1.499 . S
C892 C893 1.373 . S
C892 C894 1.389 . S
C893 H872 0.950 . S
C893 C892 1.373 . S
C893 C909 1.377 . S
C894 C892 1.389 . S
C894 C895 1.524 . S
C894 C908 1.377 . S
C895 C894 1.524 . S
C895 C896 1.397 . S
C895 C900 1.363 . S
C896 H873 0.950 . S
C896 C895 1.397 . S
C896 C897 1.334 . S
C897 H874 0.950 . S
C897 C896 1.334 . S
C897 C898 1.287 . S
C898 C897 1.287 . S
C898 C899 1.524 . S
C898 H917 0.913 . S
C899 H875 0.950 . S
C899 C898 1.524 . S
C899 C900 1.415 . S
C900 H876 0.950 . S
C900 C895 1.363 . S
C900 C899 1.415 . S
C901 H877 0.951 . S
C901 C902 1.366 . S
C901 C903 1.388 . S
C902 C901 1.366 . S
C902 C906 1.385 . S
C903 H878 0.951 . S
C903 C901 1.388 . S
C903 C904 1.366 . S
C904 C903 1.366 . S
C904 C905 1.414 . S
C904 C907 1.499 . S
C905 H879 0.950 . S
C905 C904 1.414 . S
C905 C906 1.374 . S
C906 H880 0.950 . S
C906 C902 1.385 . S
C906 C905 1.374 . S
C907 C904 1.499 . S
C907 C908 1.373 . S
C907 C909 1.389 . S
C908 H881 0.950 . S
C908 C894 1.377 . S
C908 C907 1.373 . S
C909 C893 1.377 . S
C909 C907 1.389 . S
C909 C910 1.524 . S
C910 C909 1.524 . S
C910 C911 1.397 . S
C910 C915 1.363 . S
C911 H882 0.950 . S
C911 C910 1.397 . S
C911 C912 1.334 . S
C912 H883 0.950 . S
C912 C911 1.334 . S
C912 C913 1.287 . S
C913 C912 1.287 . S
C913 C914 1.524 . S
C913 H916 0.999 . S
C914 H884 0.950 . S
C914 C913 1.524 . S
C914 C915 1.415 . S
C915 H885 0.950 . S
C915 C910 1.363 . S
C915 C914 1.415 . S
H916 C913 0.999 . S
H917 C898 0.913 . S
H918 C936 0.951 . S
H919 C938 0.951 . S
H920 C940 0.950 . S
H921 C941 0.950 . S
H922 C943 0.950 . S
H923 C946 0.950 . S
H924 C947 0.950 . S
H925 C949 0.950 . S
H926 C950 0.950 . S
H927 C951 0.951 . S
H928 C953 0.951 . S
H929 C955 0.950 . S
H930 C956 0.950 . S
H931 C958 0.950 . S
H932 C961 0.950 . S
H933 C962 0.950 . S
H934 C964 0.950 . S
H935 C965 0.950 . S
C936 H918 0.951 . S
C936 C937 1.366 . S
C936 C938 1.388 . S
C937 C936 1.366 . S
C937 C941 1.385 . S
C938 H919 0.951 . S
C938 C936 1.388 . S
C938 C939 1.366 . S
C939 C938 1.366 . S
C939 C940 1.414 . S
C939 C942 1.499 . S
C940 H920 0.950 . S
C940 C939 1.414 . S
C940 C941 1.374 . S
C941 H921 0.950 . S
C941 C937 1.385 . S
C941 C940 1.374 . S
C942 C939 1.499 . S
C942 C943 1.373 . S
C942 C944 1.389 . S
C943 H922 0.950 . S
C943 C942 1.373 . S
C943 C959 1.377 . S
C944 C942 1.389 . S
C944 C945 1.524 . S
C944 C958 1.377 . S
C945 C944 1.524 . S
C945 C946 1.397 . S
C945 C950 1.363 . S
C946 H923 0.950 . S
C946 C945 1.397 . S
C946 C947 1.334 . S
C947 H924 0.950 . S
C947 C946 1.334 . S
C947 C948 1.287 . S
C948 C947 1.287 . S
C948 C949 1.524 . S
C948 H967 0.913 . S
C949 H925 0.950 . S
C949 C948 1.524 . S
C949 C950 1.415 . S
C950 H926 0.950 . S
C950 C945 1.363 . S
C950 C949 1.415 . S
C951 H927 0.951 . S
C951 C952 1.366 . S
C951 C953 1.388 . S
C952 C951 1.366 . S
C952 C956 1.385 . S
C953 H928 0.951 . S
C953 C951 1.388 . S
C953 C954 1.366 . S
C954 C953 1.366 . S
C954 C955 1.414 . S
C954 C957 1.499 . S
C955 H929 0.950 . S
C955 C954 1.414 . S
C955 C956 1.374 . S
C956 H930 0.950 . S
C956 C952 1.385 . S
C956 C955 1.374 . S
C957 C954 1.499 . S
C957 C958 1.373 . S
C957 C959 1.389 . S
C958 H931 0.950 . S
C958 C944 1.377 . S
C958 C957 1.373 . S
C959 C943 1.377 . S
C959 C957 1.389 . S
C959 C960 1.524 . S
C960 C959 1.524 . S
C960 C961 1.397 . S
C960 C965 1.363 . S
C961 H932 0.950 . S
C961 C960 1.397 . S
C961 C962 1.334 . S
C962 H933 0.950 . S
C962 C961 1.334 . S
C962 C963 1.287 . S
C963 C962 1.287 . S
C963 C964 1.524 . S
C963 H966 0.999 . S
C964 H934 0.950 . S
C964 C963 1.524 . S
C964 C965 1.415 . S
C965 H935 0.950 . S
C965 C960 1.363 . S
C965 C964 1.415 . S
H966 C963 0.999 . S
H967 C948 0.913 . S
H968 C986 0.951 . S
H969 C988 0.951 . S
H970 C990 0.950 . S
H971 C991 0.950 . S
H972 C993 0.950 . S
H973 C996 0.950 . S
H974 C997 0.950 . S
H975 C999 0.950 . S
H976 C1000 0.950 . S
H977 C1001 0.951 . S
H978 C1003 0.951 . S
H979 C1005 0.950 . S
H980 C1006 0.950 . S
H981 C1008 0.950 . S
H982 C1011 0.950 . S
H983 C1012 0.950 . S
H984 C1014 0.950 . S
H985 C1015 0.950 . S
C986 H968 0.951 . S
C986 C987 1.366 . S
C986 C988 1.388 . S
C987 C986 1.366 . S
C987 C991 1.385 . S
C988 H969 0.951 . S
C988 C986 1.388 . S
C988 C989 1.366 . S
C989 C988 1.366 . S
C989 C990 1.414 . S
C989 C992 1.499 . S
C990 H970 0.950 . S
C990 C989 1.414 . S
C990 C991 1.374 . S
C991 H971 0.950 . S
C991 C987 1.385 . S
C991 C990 1.374 . S
C992 C989 1.499 . S
C992 C993 1.373 . S
C992 C994 1.389 . S
C993 H972 0.950 . S
C993 C992 1.373 . S
C993 C1009 1.377 . S
C994 C992 1.389 . S
C994 C995 1.524 . S
C994 C1008 1.377 . S
C995 C994 1.524 . S
C995 C996 1.397 . S
C995 C1000 1.363 . S
C996 H973 0.950 . S
C996 C995 1.397 . S
C996 C997 1.334 . S
C997 H974 0.950 . S
C997 C996 1.334 . S
C997 C998 1.287 . S
C998 C997 1.287 . S
C998 C999 1.524 . S
C998 H1017 0.913 . S
C999 H975 0.950 . S
C999 C998 1.524 . S
C999 C1000 1.415 . S
C1000 H976 0.950 . S
C1000 C995 1.363 . S
C1000 C999 1.415 . S
C1001 H977 0.951 . S
C1001 C1002 1.366 . S
C1001 C1003 1.388 . S
C1002 C1001 1.366 . S
C1002 C1006 1.385 . S
C1003 H978 0.951 . S
C1003 C1001 1.388 . S
C1003 C1004 1.366 . S
C1004 C1003 1.366 . S
C1004 C1005 1.414 . S
C1004 C1007 1.499 . S
C1005 H979 0.950 . S
C1005 C1004 1.414 . S
C1005 C1006 1.374 . S
C1006 H980 0.950 . S
C1006 C1002 1.385 . S
C1006 C1005 1.374 . S
C1007 C1004 1.499 . S
C1007 C1008 1.373 . S
C1007 C1009 1.389 . S
C1008 H981 0.950 . S
C1008 C994 1.377 . S
C1008 C1007 1.373 . S
C1009 C993 1.377 . S
C1009 C1007 1.389 . S
C1009 C1010 1.524 . S
C1010 C1009 1.524 . S
C1010 C1011 1.397 . S
C1010 C1015 1.363 . S
C1011 H982 0.950 . S
C1011 C1010 1.397 . S
C1011 C1012 1.334 . S
C1012 H983 0.950 . S
C1012 C1011 1.334 . S
C1012 C1013 1.287 . S
C1013 C1012 1.287 . S
C1013 C1014 1.524 . S
C1013 H1016 0.999 . S
C1014 H984 0.950 . S
C1014 C1013 1.524 . S
C1014 C1015 1.415 . S
C1015 H985 0.950 . S
C1015 C1010 1.363 . S
C1015 C1014 1.415 . S
H1016 C1013 0.999 . S
H1017 C998 0.913 . S
H1018 C1036 0.951 . S
H1019 C1038 0.951 . S
H1020 C1040 0.950 . S
H1021 C1041 0.950 . S
H1022 C1043 0.950 . S
H1023 C1046 0.950 . S
H1024 C1047 0.950 . S
H1025 C1049 0.950 . S
H1026 C1050 0.950 . S
H1027 C1051 0.951 . S
H1028 C1053 0.951 . S
H1029 C1055 0.950 . S
H1030 C1056 0.950 . S
H1031 C1058 0.950 . S
H1032 C1061 0.950 . S
H1033 C1062 0.950 . S
H1034 C1064 0.950 . S
H1035 C1065 0.950 . S
C1036 H1018 0.951 . S
C1036 C1037 1.366 . S
C1036 C1038 1.388 . S
C1037 C1036 1.366 . S
C1037 C1041 1.385 . S
C1038 H1019 0.951 . S
C1038 C1036 1.388 . S
C1038 C1039 1.366 . S
C1039 C1038 1.366 . S
C1039 C1040 1.414 . S
C1039 C1042 1.499 . S
C1040 H1020 0.950 . S
C1040 C1039 1.414 . S
C1040 C1041 1.374 . S
C1041 H1021 0.950 . S
C1041 C1037 1.385 . S
C1041 C1040 1.374 . S
C1042 C1039 1.499 . S
C1042 C1043 1.373 . S
C1042 C1044 1.389 . S
C1043 H1022 0.950 . S
C1043 C1042 1.373 . S
C1043 C1059 1.377 . S
C1044 C1042 1.389 . S
C1044 C1045 1.524 . S
C1044 C1058 1.377 . S
C1045 C1044 1.524 . S
C1045 C1046 1.397 . S
C1045 C1050 1.363 . S
C1046 H1023 0.950 . S
C1046 C1045 1.397 . S
C1046 C1047 1.334 . S
C1047 H1024 0.950 . S
C1047 C1046 1.334 . S
C1047 C1048 1.287 . S
C1048 C1047 1.287 . S
C1048 C1049 1.524 . S
C1048 H1067 0.913 . S
C1049 H1025 0.950 . S
C1049 C1048 1.524 . S
C1049 C1050 1.415 . S
C1050 H1026 0.950 . S
C1050 C1045 1.363 . S
C1050 C1049 1.415 . S
C1051 H1027 0.951 . S
C1051 C1052 1.366 . S
C1051 C1053 1.388 . S
C1052 C1051 1.366 . S
C1052 C1056 1.385 . S
C1053 H1028 0.951 . S
C1053 C1051 1.388 . S
C1053 C1054 1.366 . S
C1054 C1053 1.366 . S
C1054 C1055 1.414 . S
C1054 C1057 1.499 . S
C1055 H1029 0.950 . S
C1055 C1054 1.414 . S
C1055 C1056 1.374 . S
C1056 H1030 0.950 . S
C1056 C1052 1.385 . S
C1056 C1055 1.374 . S
C1057 C1054 1.499 . S
C1057 C1058 1.373 . S
C1057 C1059 1.389 . S
C1058 H1031 0.950 . S
C1058 C1044 1.377 . S
C1058 C1057 1.373 . S
C1059 C1043 1.377 . S
C1059 C1057 1.389 . S
C1059 C1060 1.524 . S
C1060 C1059 1.524 . S
C1060 C1061 1.397 . S
C1060 C1065 1.363 . S
C1061 H1032 0.950 . S
C1061 C1060 1.397 . S
C1061 C1062 1.334 . S
C1062 H1033 0.950 . S
C1062 C1061 1.334 . S
C1062 C1063 1.287 . S
C1063 C1062 1.287 . S
C1063 C1064 1.524 . S
C1063 H1066 0.999 . S
C1064 H1034 0.950 . S
C1064 C1063 1.524 . S
C1064 C1065 1.415 . S
C1065 H1035 0.950 . S
C1065 C1060 1.363 . S
C1065 C1064 1.415 . S
H1066 C1063 0.999 . S
H1067 C1048 0.913 . S
H1068 C1086 0.951 . S
H1069 C1088 0.951 . S
H1070 C1090 0.960 . S
H1071 C1091 0.950 . S
H1072 C1093 0.950 . S
H1073 C1096 0.950 . S
H1074 C1097 0.950 . S
H1075 C1099 0.950 . S
H1076 C1100 0.950 1_565 S
H1077 C1101 0.951 . S
H1078 C1103 0.951 . S
H1079 C1105 0.960 . S
H1080 C1106 0.950 . S
H1081 C1108 0.950 . S
H1082 C1111 0.950 . S
H1083 C1112 0.950 . S
H1084 C1114 0.950 . S
H1085 C1115 0.950 1_545 S
C1086 H1068 0.951 . S
C1086 C1087 1.366 . S
C1086 C1088 1.388 . S
C1087 C1086 1.366 . S
C1087 C1091 1.385 . S
C1088 H1069 0.951 . S
C1088 C1086 1.388 . S
C1088 C1089 1.366 . S
C1089 C1088 1.366 . S
C1089 C1090 1.414 . S
C1089 C1092 1.499 . S
C1090 H1070 0.960 . S
C1090 C1089 1.414 . S
C1090 C1091 1.374 . S
C1091 H1071 0.950 . S
C1091 C1087 1.385 . S
C1091 C1090 1.374 . S
C1092 C1089 1.499 . S
C1092 C1093 1.373 . S
C1092 C1094 1.389 . S
C1093 H1072 0.950 . S
C1093 C1092 1.373 . S
C1093 C1109 1.377 1_445 S
C1094 C1092 1.389 . S
C1094 C1095 1.524 . S
C1094 C1108 1.377 1_445 S
C1095 C1094 1.524 . S
C1095 C1096 1.397 1_455 S
C1095 C1100 1.363 . S
C1096 H1073 0.950 . S
C1096 C1095 1.397 1_655 S
C1096 C1097 1.334 . S
C1097 H1074 0.950 . S
C1097 C1096 1.334 . S
C1097 C1098 1.287 1_655 S
C1098 C1097 1.287 1_455 S
C1098 C1099 1.524 . S
C1098 H1117 0.913 . S
C1099 H1075 0.950 . S
C1099 C1098 1.524 . S
C1099 C1100 1.415 . S
C1100 H1076 0.950 1_545 S
C1100 C1095 1.363 . S
C1100 C1099 1.415 . S
C1101 H1077 0.951 . S
C1101 C1102 1.366 . S
C1101 C1103 1.388 . S
C1102 C1101 1.366 . S
C1102 C1106 1.385 . S
C1103 H1078 0.951 . S
C1103 C1101 1.388 . S
C1103 C1104 1.366 . S
C1104 C1103 1.366 . S
C1104 C1105 1.414 . S
C1104 C1107 1.499 . S
C1105 H1079 0.960 . S
C1105 C1104 1.414 . S
C1105 C1106 1.374 . S
C1106 H1080 0.950 . S
C1106 C1102 1.385 . S
C1106 C1105 1.374 . S
C1107 C1104 1.499 . S
C1107 C1108 1.373 . S
C1107 C1109 1.389 . S
C1108 H1081 0.950 . S
C1108 C1094 1.377 1_665 S
C1108 C1107 1.373 . S
C1109 C1093 1.377 1_665 S
C1109 C1107 1.389 . S
C1109 C1110 1.524 . S
C1110 C1109 1.524 . S
C1110 C1111 1.397 1_655 S
C1110 C1115 1.363 . S
C1111 H1082 0.950 . S
C1111 C1110 1.397 1_455 S
C1111 C1112 1.334 . S
C1112 H1083 0.950 . S
C1112 C1111 1.334 . S
C1112 C1113 1.287 1_455 S
C1113 C1112 1.287 1_655 S
C1113 C1114 1.524 . S
C1113 H1116 0.999 . S
C1114 H1084 0.950 . S
C1114 C1113 1.524 . S
C1114 C1115 1.415 . S
C1115 H1085 0.950 1_565 S
C1115 C1110 1.363 . S
C1115 C1114 1.415 . S
H1116 C1113 0.999 . S
H1117 C1098 0.913 . S
H1118 C1136 0.951 . S
H1119 C1138 0.951 . S
H1120 C1140 0.950 1_455 S
H1121 C1141 0.950 . S
H1122 C1143 0.950 . S
H1123 C1146 0.950 . S
H1124 C1147 0.950 . S
H1125 C1149 0.950 . S
H1126 C1150 0.950 . S
H1127 C1151 0.951 . S
H1128 C1153 0.951 . S
H1129 C1155 0.950 1_655 S
H1130 C1156 0.950 . S
H1131 C1158 0.950 . S
H1132 C1161 0.950 . S
H1133 C1162 0.950 . S
H1134 C1164 0.950 . S
H1135 C1165 0.950 . S
C1136 H1118 0.951 . S
C1136 C1137 1.366 . S
C1136 C1138 1.388 . S
C1137 C1136 1.366 . S
C1137 C1141 1.385 . S
C1138 H1119 0.951 . S
C1138 C1136 1.388 . S
C1138 C1139 1.366 . S
C1139 C1138 1.366 . S
C1139 C1140 1.414 . S
C1139 C1142 1.499 . S
C1140 H1120 0.950 1_655 S
C1140 C1139 1.414 . S
C1140 C1141 1.374 . S
C1141 H1121 0.950 . S
C1141 C1137 1.385 . S
C1141 C1140 1.374 . S
C1142 C1139 1.499 . S
C1142 C1143 1.373 1_655 S
C1142 C1144 1.389 . S
C1143 H1122 0.950 . S
C1143 C1142 1.373 1_455 S
C1143 C1159 1.377 1_545 S
C1144 C1142 1.389 . S
C1144 C1145 1.524 . S
C1144 C1158 1.377 1_545 S
C1145 C1144 1.524 . S
C1145 C1146 1.397 . S
C1145 C1150 1.363 1_545 S
C1146 H1123 0.950 . S
C1146 C1145 1.397 . S
C1146 C1147 1.334 . S
C1147 H1124 0.950 . S
C1147 C1146 1.334 . S
C1147 C1148 1.287 . S
C1148 C1147 1.287 . S
C1148 C1149 1.524 1_545 S
C1148 H1167 0.913 . S
C1149 H1125 0.950 . S
C1149 C1148 1.524 1_565 S
C1149 C1150 1.415 . S
C1150 H1126 0.950 . S
C1150 C1145 1.363 1_565 S
C1150 C1149 1.415 . S
C1151 H1127 0.951 . S
C1151 C1152 1.366 . S
C1151 C1153 1.388 . S
C1152 C1151 1.366 . S
C1152 C1156 1.385 . S
C1153 H1128 0.951 . S
C1153 C1151 1.388 . S
C1153 C1154 1.366 . S
C1154 C1153 1.366 . S
C1154 C1155 1.414 . S
C1154 C1157 1.499 . S
C1155 H1129 0.950 1_455 S
C1155 C1154 1.414 . S
C1155 C1156 1.374 . S
C1156 H1130 0.950 . S
C1156 C1152 1.385 . S
C1156 C1155 1.374 . S
C1157 C1154 1.499 . S
C1157 C1158 1.373 1_455 S
C1157 C1159 1.389 . S
C1158 H1131 0.950 . S
C1158 C1144 1.377 1_565 S
C1158 C1157 1.373 1_655 S
C1159 C1143 1.377 1_565 S
C1159 C1157 1.389 . S
C1159 C1160 1.524 . S
C1160 C1159 1.524 . S
C1160 C1161 1.397 . S
C1160 C1165 1.363 1_565 S
C1161 H1132 0.950 . S
C1161 C1160 1.397 . S
C1161 C1162 1.334 . S
C1162 H1133 0.950 . S
C1162 C1161 1.334 . S
C1162 C1163 1.287 . S
C1163 C1162 1.287 . S
C1163 C1164 1.524 1_565 S
C1163 H1166 0.999 . S
C1164 H1134 0.950 . S
C1164 C1163 1.524 1_545 S
C1164 C1165 1.415 . S
C1165 H1135 0.950 . S
C1165 C1160 1.363 1_545 S
C1165 C1164 1.415 . S
H1166 C1163 0.999 . S
H1167 C1148 0.913 . S
H1168 C1186 0.951 . S
H1169 C1188 0.951 . S
H1170 C1190 0.950 1_545 S
H1171 C1191 0.950 . S
H1172 C1193 0.950 . S
H1173 C1196 0.950 . S
H1174 C1197 0.950 . S
H1175 C1199 0.950 . S
H1176 C1200 0.950 . S
H1177 C1201 0.951 . S
H1178 C1203 0.951 . S
H1179 C1205 0.950 1_565 S
H1180 C1206 0.950 . S
H1181 C1208 0.950 . S
H1182 C1211 0.950 . S
H1183 C1212 0.950 . S
H1184 C1214 0.950 . S
H1185 C1215 0.950 . S
C1186 H1168 0.951 . S
C1186 C1187 1.366 . S
C1186 C1188 1.388 . S
C1187 C1186 1.366 . S
C1187 C1191 1.385 . S
C1188 H1169 0.951 . S
C1188 C1186 1.388 . S
C1188 C1189 1.366 . S
C1189 C1188 1.366 . S
C1189 C1190 1.414 . S
C1189 C1192 1.499 . S
C1190 H1170 0.950 1_565 S
C1190 C1189 1.414 . S
C1190 C1191 1.374 . S
C1191 H1171 0.950 . S
C1191 C1187 1.385 . S
C1191 C1190 1.374 . S
C1192 C1189 1.499 . S
C1192 C1193 1.373 1_565 S
C1192 C1194 1.389 . S
C1193 H1172 0.950 . S
C1193 C1192 1.373 1_545 S
C1193 C1209 1.377 1_556 S
C1194 C1192 1.389 . S
C1194 C1195 1.524 . S
C1194 C1208 1.377 1_556 S
C1195 C1194 1.524 . S
C1195 C1196 1.397 . S
C1195 C1200 1.363 1_556 S
C1196 H1173 0.950 . S
C1196 C1195 1.397 . S
C1196 C1197 1.334 . S
C1197 H1174 0.950 . S
C1197 C1196 1.334 . S
C1197 C1198 1.287 . S
C1198 C1197 1.287 . S
C1198 C1199 1.524 1_556 S
C1198 H1217 0.913 . S
C1199 H1175 0.950 . S
C1199 C1198 1.524 1_554 S
C1199 C1200 1.415 . S
C1200 H1176 0.950 . S
C1200 C1195 1.363 1_554 S
C1200 C1199 1.415 . S
C1201 H1177 0.951 . S
C1201 C1202 1.366 . S
C1201 C1203 1.388 . S
C1202 C1201 1.366 . S
C1202 C1206 1.385 . S
C1203 H1178 0.951 . S
C1203 C1201 1.388 . S
C1203 C1204 1.366 . S
C1204 C1203 1.366 . S
C1204 C1205 1.414 . S
C1204 C1207 1.499 . S
C1205 H1179 0.950 1_545 S
C1205 C1204 1.414 . S
C1205 C1206 1.374 . S
C1206 H1180 0.950 . S
C1206 C1202 1.385 . S
C1206 C1205 1.374 . S
C1207 C1204 1.499 . S
C1207 C1208 1.373 1_545 S
C1207 C1209 1.389 . S
C1208 H1181 0.950 . S
C1208 C1194 1.377 1_554 S
C1208 C1207 1.373 1_565 S
C1209 C1193 1.377 1_554 S
C1209 C1207 1.389 . S
C1209 C1210 1.524 . S
C1210 C1209 1.524 . S
C1210 C1211 1.397 . S
C1210 C1215 1.363 1_554 S
C1211 H1182 0.950 . S
C1211 C1210 1.397 . S
C1211 C1212 1.334 . S
C1212 H1183 0.950 . S
C1212 C1211 1.334 . S
C1212 C1213 1.287 . S
C1213 C1212 1.287 . S
C1213 C1214 1.524 1_554 S
C1213 H1216 0.999 . S
C1214 H1184 0.950 . S
C1214 C1213 1.524 1_556 S
C1214 C1215 1.415 . S
C1215 H1185 0.950 . S
C1215 C1210 1.363 1_556 S
C1215 C1214 1.415 . S
H1216 C1213 0.999 . S
H1217 C1198 0.913 . S
H1218 C1236 0.951 . S
H1219 C1238 0.951 . S
H1220 C1240 0.950 . S
H1221 C1241 0.950 . S
H1222 C1243 0.950 . S
H1223 C1246 0.950 . S
H1224 C1247 0.950 . S
H1225 C1249 0.950 . S
H1226 C1250 0.950 1_545 S
H1227 C1251 0.951 . S
H1228 C1253 0.951 . S
H1229 C1255 0.950 . S
H1230 C1256 0.950 . S
H1231 C1258 0.950 . S
H1232 C1261 0.950 . S
H1233 C1262 0.950 . S
H1234 C1264 0.950 . S
H1235 C1265 0.950 1_565 S
C1236 H1218 0.951 . S
C1236 C1237 1.366 . S
C1236 C1238 1.388 . S
C1237 C1236 1.366 . S
C1237 C1241 1.385 . S
C1238 H1219 0.951 . S
C1238 C1236 1.388 . S
C1238 C1239 1.366 . S
C1239 C1238 1.366 . S
C1239 C1240 1.414 . S
C1239 C1242 1.499 . S
C1240 H1220 0.950 . S
C1240 C1239 1.414 . S
C1240 C1241 1.374 . S
C1241 H1221 0.950 . S
C1241 C1237 1.385 . S
C1241 C1240 1.374 . S
C1242 C1239 1.499 . S
C1242 C1243 1.373 . S
C1242 C1244 1.389 . S
C1243 H1222 0.950 . S
C1243 C1242 1.373 . S
C1243 C1259 1.377 1_564 S
C1244 C1242 1.389 . S
C1244 C1245 1.524 . S
C1244 C1258 1.377 1_564 S
C1245 C1244 1.524 . S
C1245 C1246 1.397 . S
C1245 C1250 1.363 . S
C1246 H1223 0.950 . S
C1246 C1245 1.397 . S
C1246 C1247 1.334 . S
C1247 H1224 0.950 . S
C1247 C1246 1.334 . S
C1247 C1248 1.287 . S
C1248 C1247 1.287 . S
C1248 C1249 1.524 . S
C1248 H1267 0.913 . S
C1249 H1225 0.950 . S
C1249 C1248 1.524 . S
C1249 C1250 1.415 . S
C1250 H1226 0.950 1_565 S
C1250 C1245 1.363 . S
C1250 C1249 1.415 . S
C1251 H1227 0.951 . S
C1251 C1252 1.366 . S
C1251 C1253 1.388 . S
C1252 C1251 1.366 . S
C1252 C1256 1.385 . S
C1253 H1228 0.951 . S
C1253 C1251 1.388 . S
C1253 C1254 1.366 . S
C1254 C1253 1.366 . S
C1254 C1255 1.414 . S
C1254 C1257 1.499 . S
C1255 H1229 0.950 . S
C1255 C1254 1.414 . S
C1255 C1256 1.374 . S
C1256 H1230 0.950 . S
C1256 C1252 1.385 . S
C1256 C1255 1.374 . S
C1257 C1254 1.499 . S
C1257 C1258 1.373 . S
C1257 C1259 1.389 . S
C1258 H1231 0.950 . S
C1258 C1244 1.377 1_546 S
C1258 C1257 1.373 . S
C1259 C1243 1.377 1_546 S
C1259 C1257 1.389 . S
C1259 C1260 1.524 . S
C1260 C1259 1.524 . S
C1260 C1261 1.397 . S
C1260 C1265 1.363 . S
C1261 H1232 0.950 . S
C1261 C1260 1.397 . S
C1261 C1262 1.334 . S
C1262 H1233 0.950 . S
C1262 C1261 1.334 . S
C1262 C1263 1.287 . S
C1263 C1262 1.287 . S
C1263 C1264 1.524 . S
C1263 H1266 0.999 . S
C1264 H1234 0.950 . S
C1264 C1263 1.524 . S
C1264 C1265 1.415 . S
C1265 H1235 0.950 1_545 S
C1265 C1260 1.363 . S
C1265 C1264 1.415 . S
H1266 C1263 0.999 . S
H1267 C1248 0.913 . S
H1268 C1286 0.951 . S
H1269 C1288 0.951 . S
H1270 C1290 0.950 1_554 S
H1271 C1291 0.950 . S
H1272 C1293 0.950 . S
H1273 C1296 0.950 . S
H1274 C1297 0.950 . S
H1275 C1299 0.950 . S
H1276 C1300 0.950 . S
H1277 C1301 0.951 . S
H1278 C1303 0.951 . S
H1279 C1305 0.950 1_556 S
H1280 C1306 0.950 . S
H1281 C1308 0.950 . S
H1282 C1311 0.950 . S
H1283 C1312 0.950 . S
H1284 C1314 0.950 . S
H1285 C1315 0.950 . S
C1286 H1268 0.951 . S
C1286 C1287 1.366 . S
C1286 C1288 1.388 . S
C1287 C1286 1.366 . S
C1287 C1291 1.385 . S
C1288 H1269 0.951 . S
C1288 C1286 1.388 . S
C1288 C1289 1.366 . S
C1289 C1288 1.366 . S
C1289 C1290 1.414 . S
C1289 C1292 1.499 . S
C1290 H1270 0.950 1_556 S
C1290 C1289 1.414 . S
C1290 C1291 1.374 . S
C1291 H1271 0.950 . S
C1291 C1287 1.385 . S
C1291 C1290 1.374 . S
C1292 C1289 1.499 . S
C1292 C1293 1.373 1_556 S
C1292 C1294 1.389 . S
C1293 H1272 0.950 . S
C1293 C1292 1.373 1_554 S
C1293 C1309 1.377 1_655 S
C1294 C1292 1.389 . S
C1294 C1295 1.524 . S
C1294 C1308 1.377 1_655 S
C1295 C1294 1.524 . S
C1295 C1296 1.397 . S
C1295 C1300 1.363 1_655 S
C1296 H1273 0.950 . S
C1296 C1295 1.397 . S
C1296 C1297 1.334 . S
C1297 H1274 0.950 . S
C1297 C1296 1.334 . S
C1297 C1298 1.287 . S
C1298 C1297 1.287 . S
C1298 C1299 1.524 1_655 S
C1298 H1317 0.913 . S
C1299 H1275 0.950 . S
C1299 C1298 1.524 1_455 S
C1299 C1300 1.415 . S
C1300 H1276 0.950 . S
C1300 C1295 1.363 1_455 S
C1300 C1299 1.415 . S
C1301 H1277 0.951 . S
C1301 C1302 1.366 . S
C1301 C1303 1.388 . S
C1302 C1301 1.366 . S
C1302 C1306 1.385 . S
C1303 H1278 0.951 . S
C1303 C1301 1.388 . S
C1303 C1304 1.366 . S
C1304 C1303 1.366 . S
C1304 C1305 1.414 . S
C1304 C1307 1.499 . S
C1305 H1279 0.950 1_554 S
C1305 C1304 1.414 . S
C1305 C1306 1.374 . S
C1306 H1280 0.950 . S
C1306 C1302 1.385 . S
C1306 C1305 1.374 . S
C1307 C1304 1.499 . S
C1307 C1308 1.373 1_554 S
C1307 C1309 1.389 . S
C1308 H1281 0.950 . S
C1308 C1294 1.377 1_455 S
C1308 C1307 1.373 1_556 S
C1309 C1293 1.377 1_455 S
C1309 C1307 1.389 . S
C1309 C1310 1.524 . S
C1310 C1309 1.524 . S
C1310 C1311 1.397 . S
C1310 C1315 1.363 1_455 S
C1311 H1282 0.950 . S
C1311 C1310 1.397 . S
C1311 C1312 1.334 . S
C1312 H1283 0.950 . S
C1312 C1311 1.334 . S
C1312 C1313 1.287 . S
C1313 C1312 1.287 . S
C1313 C1314 1.524 1_455 S
C1313 H1316 0.999 . S
C1314 H1284 0.950 . S
C1314 C1313 1.524 1_655 S
C1314 C1315 1.415 . S
C1315 H1285 0.950 . S
C1315 C1310 1.363 1_655 S
C1315 C1314 1.415 . S
H1316 C1313 0.999 . S
H1317 C1298 0.913 . S
H1318 C1336 0.951 . S
H1319 C1338 0.951 . S
H1320 C1340 0.950 1_554 S
H1321 C1341 0.950 . S
H1322 C1343 0.950 . S
H1323 C1346 0.950 . S
H1324 C1347 0.950 . S
H1325 C1349 0.950 . S
H1326 C1350 0.950 . S
H1327 C1351 0.951 . S
H1328 C1353 0.951 . S
H1329 C1355 0.950 1_556 S
H1330 C1356 0.950 . S
H1331 C1358 0.950 . S
H1332 C1361 0.950 . S
H1333 C1362 0.950 . S
H1334 C1364 0.950 . S
H1335 C1365 0.950 . S
C1336 H1318 0.951 . S
C1336 C1337 1.366 . S
C1336 C1338 1.388 . S
C1337 C1336 1.366 . S
C1337 C1341 1.385 . S
C1338 H1319 0.951 . S
C1338 C1336 1.388 . S
C1338 C1339 1.366 . S
C1339 C1338 1.366 . S
C1339 C1340 1.414 . S
C1339 C1342 1.499 . S
C1340 H1320 0.950 1_556 S
C1340 C1339 1.414 . S
C1340 C1341 1.374 . S
C1341 H1321 0.950 . S
C1341 C1337 1.385 . S
C1341 C1340 1.374 . S
C1342 C1339 1.499 . S
C1342 C1343 1.373 1_556 S
C1342 C1344 1.389 . S
C1343 H1322 0.950 . S
C1343 C1342 1.373 1_554 S
C1343 C1359 1.377 1_455 S
C1344 C1342 1.389 . S
C1344 C1345 1.524 . S
C1344 C1358 1.377 1_455 S
C1345 C1344 1.524 . S
C1345 C1346 1.397 . S
C1345 C1350 1.363 1_455 S
C1346 H1323 0.950 . S
C1346 C1345 1.397 . S
C1346 C1347 1.334 . S
C1347 H1324 0.950 . S
C1347 C1346 1.334 . S
C1347 C1348 1.287 . S
C1348 C1347 1.287 . S
C1348 C1349 1.524 1_455 S
C1348 H1367 0.913 . S
C1349 H1325 0.950 . S
C1349 C1348 1.524 1_655 S
C1349 C1350 1.415 . S
C1350 H1326 0.950 . S
C1350 C1345 1.363 1_655 S
C1350 C1349 1.415 . S
C1351 H1327 0.951 . S
C1351 C1352 1.366 . S
C1351 C1353 1.388 . S
C1352 C1351 1.366 . S
C1352 C1356 1.385 . S
C1353 H1328 0.951 . S
C1353 C1351 1.388 . S
C1353 C1354 1.366 . S
C1354 C1353 1.366 . S
C1354 C1355 1.414 . S
C1354 C1357 1.499 . S
C1355 H1329 0.950 1_554 S
C1355 C1354 1.414 . S
C1355 C1356 1.374 . S
C1356 H1330 0.950 . S
C1356 C1352 1.385 . S
C1356 C1355 1.374 . S
C1357 C1354 1.499 . S
C1357 C1358 1.373 1_554 S
C1357 C1359 1.389 . S
C1358 H1331 0.950 . S
C1358 C1344 1.377 1_655 S
C1358 C1357 1.373 1_556 S
C1359 C1343 1.377 1_655 S
C1359 C1357 1.389 . S
C1359 C1360 1.524 . S
C1360 C1359 1.524 . S
C1360 C1361 1.397 . S
C1360 C1365 1.363 1_655 S
C1361 H1332 0.950 . S
C1361 C1360 1.397 . S
C1361 C1362 1.334 . S
C1362 H1333 0.950 . S
C1362 C1361 1.334 . S
C1362 C1363 1.287 . S
C1363 C1362 1.287 . S
C1363 C1364 1.524 1_655 S
C1363 H1366 0.999 . S
C1364 H1334 0.950 . S
C1364 C1363 1.524 1_455 S
C1364 C1365 1.415 . S
C1365 H1335 0.950 . S
C1365 C1360 1.363 1_455 S
C1365 C1364 1.415 . S
H1366 C1363 0.999 . S
H1367 C1348 0.913 . S
C187 C50 0.715 . S
C202 C8 0.716 . S
C237 C36 0.715 . S
C252 C22 0.715 . S
C287 C78 0.716 . S
C302 C64 0.715 . S
C337 C92 0.715 . S
C352 C106 0.716 . S
C387 C134 0.715 . S
C402 C120 0.716 . S
C437 C148 0.716 . S
C452 C162 0.715 . S
C487 C9 0.743 . S
C502 C101 0.740 . S
C537 C87 0.740 . S
C552 C23 0.742 . S
C587 C73 0.742 . S
C602 C37 0.740 . S
C637 C59 0.742 . S
C652 C51 0.740 . S
C687 C65 0.743 . S
C702 C157 0.741 . S
C737 C115 0.742 . S
C752 C79 0.742 . S
C787 C143 0.740 . S
C802 C93 0.741 . S
C837 C107 0.743 . S
C852 C129 0.740 . S
C887 C31 0.742 . S
C902 C121 0.742 . S
C937 C3 0.742 . S
C952 C135 0.741 . S
C987 C149 0.743 . S
C1002 C17 0.741 . S
C1037 C45 0.741 . S
C1052 C163 0.741 . S
C1087 C7 1.167 . S
C1102 C21 1.168 . S
C1137 C49 1.167 . S
C1152 C35 1.168 . S
C1187 C91 1.167 . S
C1202 C63 1.168 . S
C1237 C77 1.168 . S
C1252 C105 1.167 . S
C1287 C147 1.167 . S
C1302 C119 1.168 . S
C1337 C133 1.167 . S
C1352 C161 1.168 . S
