# Generated by pormake.
# Topology qtz-e, (6)-cn, num edge types: 1
# Building blocks:
#     Node 0, Type 0, BuildingBlock: CIFDUS_clean_sbu_1, # of connection points: 6
#     Node 1, Type 0, BuildingBlock: CIFDUS_clean_sbu_1, # of connection points: 6
#     Node 2, Type 0, BuildingBlock: CIFDUS_clean_sbu_1, # of connection points: 6
#     Node 3, Type 0, BuildingBlock: CIFDUS_clean_sbu_1, # of connection points: 6
#     Node 4, Type 0, BuildingBlock: CIFDUS_clean_sbu_1, # of connection points: 6
#     Node 5, Type 0, BuildingBlock: CIFDUS_clean_sbu_1, # of connection points: 6
#     Edge 6, Type (0, 0), BuildingBlock: FUNLAD_clean_linker_0, # of connection points: 2
#     Edge 7, Type (0, 0), BuildingBlock: FUNLAD_clean_linker_0, # of connection points: 2
#     Edge 8, Type (0, 0), BuildingBlock: FUNLAD_clean_linker_0, # of connection points: 2
#     Edge 9, Type (0, 0), BuildingBlock: FUNLAD_clean_linker_0, # of connection points: 2
#     Edge 10, Type (0, 0), BuildingBlock: FUNLAD_clean_linker_0, # of connection points: 2
#     Edge 11, Type (0, 0), BuildingBlock: FUNLAD_clean_linker_0, # of connection points: 2
#     Edge 12, Type (0, 0), BuildingBlock: FUNLAD_clean_linker_0, # of connection points: 2
#     Edge 13, Type (0, 0), BuildingBlock: FUNLAD_clean_linker_0, # of connection points: 2
#     Edge 14, Type (0, 0), BuildingBlock: FUNLAD_clean_linker_0, # of connection points: 2
#     Edge 15, Type (0, 0), BuildingBlock: FUNLAD_clean_linker_0, # of connection points: 2
#     Edge 16, Type (0, 0), BuildingBlock: FUNLAD_clean_linker_0, # of connection points: 2
#     Edge 17, Type (0, 0), BuildingBlock: FUNLAD_clean_linker_0, # of connection points: 2
#     Edge 18, Type (0, 0), BuildingBlock: FUNLAD_clean_linker_0, # of connection points: 2
#     Edge 19, Type (0, 0), BuildingBlock: FUNLAD_clean_linker_0, # of connection points: 2
#     Edge 20, Type (0, 0), BuildingBlock: FUNLAD_clean_linker_0, # of connection points: 2
#     Edge 21, Type (0, 0), BuildingBlock: FUNLAD_clean_linker_0, # of connection points: 2
#     Edge 22, Type (0, 0), BuildingBlock: FUNLAD_clean_linker_0, # of connection points: 2
#     Edge 23, Type (0, 0), BuildingBlock: FUNLAD_clean_linker_0, # of connection points: 2
# Relax obj value: 0.336
# Max RMSD: 0.228
# Mean RMSD: 0.228
data_MOF--net-qtz-e--node1-CIFDUS_clean_sbu_1--edge1-FUNLAD_clean_linker_0
_symmetry_space_group_name_H-M    P1
_symmetry_Int_Tables_number       1
_symmetry_cell_setting            triclinic
loop_
_symmetry_equiv_pos_as_xyz
'x, y, z'
_cell_length_a     32.177161
_cell_length_b     32.158927
_cell_length_c     35.539069
_cell_angle_alpha  90.005985
_cell_angle_beta   89.935622
_cell_angle_gamma 120.00065
loop_
_atom_site_label
_atom_site_type_symbol
_atom_site_fract_x
_atom_site_fract_y
_atom_site_fract_z
_atom_type_partial_charge
O0 O 0.27329 0.44294 0.02736 0.0
Mn1 Mn 0.21846 0.44385 0.99574 0.0
O2 O 0.32786 0.52067 0.03813 0.0
Mn3 Mn 0.30714 0.54564 0.0008 0.0
O4 O 0.16564 0.44727 0.96498 0.0
O5 O 0.19184 0.37376 0.98253 0.0
Mn6 Mn 0.12822 0.34483 0.98545 0.0
O7 O 0.17574 0.42518 0.04481 0.0
O8 O 0.10706 0.37333 0.95054 0.0
O9 O 0.25956 0.46089 0.94687 0.0
O10 O 0.32134 0.53611 0.95211 0.0
O11 O 0.14264 0.29833 0.9714 0.0
O12 O 0.11303 0.35094 0.03466 0.0
C13 C 0.24725 0.55511 0.01363 0.0
C14 C 0.31115 0.47597 0.04387 0.0
C15 C 0.12641 0.41882 0.94811 0.0
C16 C 0.18686 0.33284 0.97203 0.0
C17 C 0.13591 0.38822 0.05513 0.0
C18 C 0.29793 0.49691 0.93397 0.0
O19 O 0.24425 0.51428 0.00615 0.0
O20 O 0.29052 0.59131 0.01194 0.0
O21 O 0.84258 0.28784 0.36869 0.0
Mn22 Mn 0.79404 0.22387 0.34096 0.0
O23 O 0.80539 0.33139 0.37366 0.0
Mn24 Mn 0.75908 0.29827 0.33777 0.0
O25 O 0.74477 0.16138 0.31406 0.0
O26 O 0.84752 0.20905 0.33157 0.0
Mn27 Mn 0.82568 0.14818 0.34432 0.0
O28 O 0.77594 0.18735 0.39321 0.0
O29 O 0.77225 0.10963 0.31443 0.0
O30 O 0.81125 0.25927 0.28914 0.0
O31 O 0.78169 0.30963 0.28878 0.0
O32 O 0.88729 0.17116 0.32707 0.0
O33 O 0.81321 0.14397 0.39536 0.0
C34 C 0.6984 0.23137 0.35482 0.0
C35 C 0.83999 0.32414 0.38131 0.0
C36 C 0.74051 0.1207 0.30565 0.0
C37 C 0.88731 0.21098 0.32155 0.0
C38 C 0.78809 0.15985 0.41062 0.0
C39 C 0.80479 0.29151 0.27332 0.0
O40 O 0.74059 0.23806 0.34785 0.0
O41 O 0.69443 0.26902 0.34946 0.0
O42 O 0.55469 0.83589 0.70591 0.0
Mn43 Mn 0.54932 0.77682 0.67632 0.0
O44 O 0.48091 0.81274 0.72851 0.0
Mn45 Mn 0.44954 0.7669 0.69187 0.0
O46 O 0.54337 0.71836 0.64734 0.0
O47 O 0.61683 0.81714 0.65858 0.0
Mn48 Mn 0.65044 0.78791 0.66344 0.0
O49 O 0.57274 0.75635 0.7249 0.0
O50 O 0.61749 0.73112 0.63536 0.0
O51 O 0.52684 0.79803 0.62875 0.0
O52 O 0.45577 0.79186 0.64362 0.0
O53 O 0.69032 0.84773 0.6412 0.0
O54 O 0.65033 0.77821 0.71492 0.0
C55 C 0.44132 0.69638 0.6989 0.0
C56 C 0.52582 0.84259 0.72686 0.0
C57 C 0.57174 0.70534 0.63317 0.0
C58 C 0.65313 0.85302 0.64306 0.0
C59 C 0.61324 0.76143 0.73605 0.0
C60 C 0.4908 0.80344 0.62103 0.0
O61 O 0.48083 0.7352 0.69154 0.0
O62 O 0.40522 0.70328 0.70261 0.0
O63 O 0.71194 0.54359 0.04328 0.0
Mn64 Mn 0.76868 0.54548 0.01242 0.0
O65 O 0.66319 0.4656 0.05882 0.0
Mn66 Mn 0.68567 0.43962 0.02339 0.0
O67 O 0.82278 0.54411 0.98211 0.0
O68 O 0.7915 0.61386 0.99611 0.0
Mn69 Mn 0.85527 0.6469 0.99998 0.0
O70 O 0.8119 0.56948 0.06076 0.0
O71 O 0.88017 0.61881 0.9678 0.0
O72 O 0.7256 0.52191 0.96462 0.0
O73 O 0.66952 0.44446 0.97409 0.0
O74 O 0.83699 0.6894 0.9826 0.0
O75 O 0.86972 0.64598 0.05036 0.0
C76 C 0.7524 0.44145 0.03518 0.0
C77 C 0.67577 0.51001 0.06124 0.0
C78 C 0.86208 0.5734 0.96566 0.0
C79 C 0.79386 0.65291 0.98378 0.0
C80 C 0.84867 0.60903 0.07136 0.0
C81 C 0.68902 0.4824 0.9539 0.0
O82 O 0.74776 0.47775 0.02662 0.0
O83 O 0.712 0.40152 0.03622 0.0
O84 O 0.18056 0.72867 0.3631 0.0
Mn85 Mn 0.24019 0.77838 0.33149 0.0
O86 O 0.2016 0.67746 0.38821 0.0
Mn87 Mn 0.24886 0.68954 0.35344 0.0
O88 O 0.30038 0.82661 0.30095 0.0
O89 O 0.20058 0.80524 0.30965 0.0
Mn90 Mn 0.23608 0.86883 0.30912 0.0
O91 O 0.26137 0.82679 0.37701 0.0
O92 O 0.28932 0.8855 0.27881 0.0
O93 O 0.2182 0.73004 0.28658 0.0
O94 O 0.22665 0.66777 0.3052 0.0
O95 O 0.17752 0.85371 0.28873 0.0
O96 O 0.25178 0.8885 0.35858 0.0
C97 C 0.31876 0.75127 0.36191 0.0
C98 C 0.17316 0.69417 0.38563 0.0
C99 C 0.31435 0.86498 0.2816 0.0
C100 C 0.16663 0.8095 0.29382 0.0
C101 C 0.26389 0.86752 0.38305 0.0
C102 C 0.21389 0.68854 0.281 0.0
O103 O 0.28111 0.75239 0.35103 0.0
O104 O 0.3111 0.70824 0.36755 0.0
O105 O 0.44423 0.17378 0.68412 0.0
Mn106 Mn 0.42759 0.22127 0.65685 0.0
O107 O 0.52489 0.20736 0.67743 0.0
Mn108 Mn 0.53726 0.25929 0.64701 0.0
O109 O 0.41495 0.27059 0.62972 0.0
O110 O 0.35896 0.16855 0.64829 0.0
Mn111 Mn 0.32037 0.19137 0.66014 0.0
O112 O 0.40919 0.23987 0.70884 0.0
O113 O 0.33615 0.24488 0.6298 0.0
O114 O 0.44432 0.20267 0.60483 0.0
O115 O 0.52417 0.24561 0.59642 0.0
O116 O 0.28142 0.12938 0.64357 0.0
O117 O 0.32868 0.2047 0.71105 0.0
C118 C 0.53061 0.31496 0.67489 0.0
C119 C 0.48431 0.17485 0.69031 0.0
C120 C 0.37927 0.27578 0.621 0.0
C121 C 0.32099 0.1287 0.63881 0.0
C122 C 0.36981 0.22911 0.72618 0.0
C123 C 0.48204 0.21691 0.58452 0.0
O124 O 0.49542 0.27452 0.66378 0.0
O125 O 0.57229 0.32135 0.66568 0.0
C126 C 0.17779 0.68252 0.21674 0.0
C127 C 0.1913 0.662 0.24579 0.0
C128 C 0.15737 0.6569 0.18348 0.0
C129 C 0.1502 0.61019 0.17866 0.0
C130 C 0.16137 0.58907 0.20859 0.0
C131 C 0.18178 0.61455 0.24154 0.0
C132 C 0.13668 0.5838 0.14219 0.0
C133 C 0.14094 0.60489 0.10852 0.0
C134 C 0.15387 0.58719 0.0743 0.0
C135 C 0.18835 0.62164 0.05016 0.0
C136 C 0.2152 0.60942 0.02657 0.0
C137 C 0.20756 0.56239 0.02635 0.0
H138 H 0.11244 0.51064 0.08608 0.0
C139 C 0.16742 0.52638 0.04527 0.0
C140 C 0.1407 0.53863 0.06933 0.0
H141 H 0.15919 0.48966 0.04432 0.0
H142 H 0.18359 0.71861 0.21943 0.0
H143 H 0.14816 0.67427 0.16167 0.0
H144 H 0.1561 0.55315 0.206 0.0
H145 H 0.19067 0.59699 0.2635 0.0
H146 H 0.13241 0.5481 0.1428 0.0
H147 H 0.14706 0.64122 0.10735 0.0
H148 H 0.19844 0.65913 0.05258 0.0
H149 H 0.24498 0.63787 0.01125 0.0
C150 C 0.4882 0.22149 0.51488 0.0
C151 C 0.47816 0.19439 0.54788 0.0
C152 C 0.49563 0.20391 0.4811 0.0
C153 C 0.49456 0.15967 0.48012 0.0
C154 C 0.48114 0.13109 0.51275 0.0
C155 C 0.47315 0.1485 0.54643 0.0
C156 C 0.51368 0.14803 0.44616 0.0
C157 C 0.54177 0.12794 0.44841 0.0
C158 C 0.57911 0.13812 0.41952 0.0
C159 C 0.62516 0.14961 0.43177 0.0
C160 C 0.66491 0.17503 0.40823 0.0
C161 C 0.65885 0.1883 0.37202 0.0
H162 H 0.53728 0.13571 0.37085 0.0
C163 C 0.61229 0.171 0.35806 0.0
C164 C 0.57254 0.14563 0.38153 0.0
H165 H 0.60691 0.18111 0.33017 0.0
H166 H 0.49278 0.25723 0.51563 0.0
H167 H 0.50578 0.22658 0.45634 0.0
H168 H 0.47905 0.09642 0.51275 0.0
H169 H 0.46643 0.12761 0.57191 0.0
H170 H 0.51346 0.16595 0.42031 0.0
H171 H 0.54545 0.11391 0.47524 0.0
H172 H 0.63118 0.1439 0.46084 0.0
H173 H 0.70048 0.18933 0.42 0.0
C174 C 0.36356 0.52692 0.88613 0.0
C175 C 0.31653 0.49295 0.8968 0.0
C176 C 0.38046 0.5261 0.85018 0.0
C177 C 0.35064 0.4912 0.82378 0.0
C178 C 0.30451 0.45562 0.83515 0.0
C179 C 0.2877 0.45622 0.8714 0.0
C180 C 0.36278 0.49723 0.78299 0.0
C181 C 0.40749 0.5274 0.77021 0.0
C182 C 0.4173 0.56194 0.73884 0.0
C183 C 0.46475 0.59957 0.73367 0.0
C184 C 0.4739 0.64243 0.71631 0.0
C185 C 0.43567 0.64834 0.70447 0.0
H186 H 0.3431 0.53693 0.7224 0.0
C187 C 0.38925 0.60825 0.70414 0.0
C188 C 0.38009 0.56526 0.72079 0.0
H189 H 0.35916 0.61122 0.6938 0.0
H190 H 0.38705 0.55528 0.90519 0.0
H191 H 0.41579 0.55496 0.84266 0.0
H192 H 0.28057 0.42862 0.81536 0.0
H193 H 0.25145 0.42916 0.87891 0.0
H194 H 0.3325 0.48383 0.76395 0.0
H195 H 0.43761 0.53558 0.78858 0.0
H196 H 0.49442 0.5978 0.74638 0.0
H197 H 0.5102 0.67201 0.7154 0.0
C198 C 0.84224 0.35931 0.22819 0.0
C199 C 0.82709 0.31113 0.23643 0.0
C200 C 0.85876 0.37783 0.19242 0.0
C201 C 0.86018 0.3484 0.16372 0.0
C202 C 0.84755 0.30086 0.17254 0.0
C203 C 0.83178 0.2825 0.20883 0.0
C204 C 0.86445 0.36342 0.12369 0.0
C205 C 0.88551 0.41 0.11338 0.0
C206 C 0.86391 0.42616 0.084 0.0
C207 C 0.86128 0.46772 0.09132 0.0
C208 C 0.82789 0.47579 0.07248 0.0
C209 C 0.79756 0.44316 0.04537 0.0
H210 H 0.83998 0.36523 0.04635 0.0
C211 C 0.80446 0.40499 0.03467 0.0
C212 C 0.83767 0.39668 0.05363 0.0
H213 H 0.78153 0.3794 0.01364 0.0
H214 H 0.83983 0.38249 0.24917 0.0
H215 H 0.86684 0.4142 0.18686 0.0
H216 H 0.84774 0.27725 0.15087 0.0
H217 H 0.82073 0.24532 0.21465 0.0
H218 H 0.84097 0.33553 0.1042 0.0
H219 H 0.91005 0.43716 0.13296 0.0
H220 H 0.88105 0.49107 0.11457 0.0
H221 H 0.82215 0.50414 0.08245 0.0
C222 C 0.50815 0.81685 0.55187 0.0
C223 C 0.48995 0.82565 0.58493 0.0
C224 C 0.50358 0.83524 0.5174 0.0
C225 C 0.48076 0.86294 0.51548 0.0
C226 C 0.46472 0.87344 0.54896 0.0
C227 C 0.46916 0.85496 0.58325 0.0
C228 C 0.46467 0.87344 0.47932 0.0
C229 C 0.48087 0.86959 0.44525 0.0
C230 C 0.44824 0.85347 0.41227 0.0
C231 C 0.44746 0.81742 0.3896 0.0
C232 C 0.40651 0.78723 0.36887 0.0
C233 C 0.36618 0.79323 0.37004 0.0
H234 H 0.41179 0.89353 0.4241 0.0
C235 C 0.37036 0.83435 0.38724 0.0
C236 C 0.41127 0.86452 0.40825 0.0
H237 H 0.34046 0.84043 0.38818 0.0
H238 H 0.52387 0.79392 0.55237 0.0
H239 H 0.51532 0.82503 0.49232 0.0
H240 H 0.44664 0.89423 0.54839 0.0
H241 H 0.45532 0.8628 0.60843 0.0
H242 H 0.43268 0.87664 0.48107 0.0
H243 H 0.51304 0.86678 0.4433 0.0
H244 H 0.47589 0.80875 0.39149 0.0
H245 H 0.40465 0.7563 0.35506 0.0
C246 C 0.61868 0.44607 0.91085 0.0
C247 C 0.66699 0.48051 0.91702 0.0
C248 C 0.59761 0.44194 0.87584 0.0
C249 C 0.62434 0.47236 0.84594 0.0
C250 C 0.67238 0.50766 0.85236 0.0
C251 C 0.69349 0.51192 0.88765 0.0
C252 C 0.60551 0.46294 0.80683 0.0
C253 C 0.55842 0.43639 0.79874 0.0
C254 C 0.54246 0.40795 0.76375 0.0
C255 C 0.51124 0.35839 0.76707 0.0
C256 C 0.50412 0.32804 0.73676 0.0
C257 C 0.52664 0.34693 0.70222 0.0
H258 H 0.5877 0.46553 0.72552 0.0
C259 C 0.55541 0.39689 0.69806 0.0
C260 C 0.56332 0.42733 0.72867 0.0
H261 H 0.57425 0.41207 0.67188 0.0
H262 H 0.59716 0.4215 0.93298 0.0
H263 H 0.56111 0.41309 0.87211 0.0
H264 H 0.69405 0.53102 0.82971 0.0
H265 H 0.73091 0.53867 0.89152 0.0
H266 H 0.63171 0.47232 0.78438 0.0
H267 H 0.53183 0.4268 0.82082 0.0
H268 H 0.49576 0.34264 0.79412 0.0
H269 H 0.485 0.28974 0.74165 0.0
C270 C 0.36807 0.49553 0.09661 0.0
C271 C 0.34092 0.46372 0.06765 0.0
C272 C 0.40785 0.49494 0.11136 0.0
C273 C 0.42118 0.46254 0.09729 0.0
C274 C 0.39063 0.42684 0.0718 0.0
C275 C 0.35067 0.42749 0.05688 0.0
C276 C 0.4692 0.46889 0.10516 0.0
C277 C 0.50875 0.51294 0.10659 0.0
C278 C 0.5576 0.51969 0.10312 0.0
C279 C 0.56916 0.48694 0.11917 0.0
C280 C 0.6111 0.48746 0.10855 0.0
C281 C 0.64207 0.52053 0.08158 0.0
H282 H 0.58348 0.58267 0.06771 0.0
C283 C 0.63342 0.5569 0.06904 0.0
C284 C 0.59141 0.55655 0.07993 0.0
H285 H 0.65667 0.58288 0.04831 0.0
H286 H 0.36071 0.52333 0.10585 0.0
H287 H 0.42976 0.52173 0.13205 0.0
H288 H 0.39992 0.40103 0.06099 0.0
H289 H 0.33031 0.40264 0.03456 0.0
H290 H 0.47305 0.43724 0.10343 0.0
H291 H 0.5052 0.54468 0.10391 0.0
H292 H 0.54455 0.45922 0.13823 0.0
H293 H 0.61743 0.45958 0.11933 0.0
C294 C 0.08402 0.65714 0.38704 0.0
C295 C 0.12662 0.66609 0.40489 0.0
C296 C 0.04023 0.61749 0.39782 0.0
C297 C 0.03878 0.58642 0.42626 0.0
C298 C 0.08035 0.59919 0.44725 0.0
C299 C 0.1239 0.63877 0.43667 0.0
C300 C 0.99561 0.53832 0.4301 0.0
C301 C 0.99924 0.49856 0.43473 0.0
C302 C 0.95822 0.44968 0.42809 0.0
C303 C 0.96625 0.4153 0.41021 0.0
C304 C 0.92757 0.37209 0.39732 0.0
C305 C 0.88039 0.36269 0.40248 0.0
H306 H 0.90373 0.46309 0.45145 0.0
C307 C 0.87254 0.39506 0.42378 0.0
C308 C 0.91103 0.43812 0.43645 0.0
H309 H 0.8365 0.3883 0.429 0.0
H310 H 0.08506 0.67762 0.3625 0.0
H311 H 0.00834 0.60868 0.38165 0.0
H312 H 0.07986 0.57682 0.47023 0.0
H313 H 0.15617 0.6455 0.45138 0.0
H314 H 0.96124 0.53484 0.42274 0.0
H315 H 0.03448 0.5021 0.4378 0.0
H316 H 0.00245 0.42323 0.40395 0.0
H317 H 0.93472 0.34779 0.38112 0.0
C318 C 0.52722 0.14658 0.73189 0.0
C319 C 0.48501 0.13656 0.71269 0.0
C320 C 0.53197 0.10978 0.74816 0.0
C321 C 0.49475 0.06195 0.74517 0.0
C322 C 0.45112 0.0523 0.72857 0.0
C323 C 0.44623 0.08935 0.7124 0.0
C324 C 0.5014 0.02126 0.75661 0.0
C325 C 0.54444 0.02348 0.75538 0.0
C326 C 0.54856 0.97962 0.75667 0.0
C327 C 0.51659 0.93932 0.77786 0.0
C328 C 0.51325 0.89501 0.77133 0.0
C329 C 0.54177 0.89027 0.74353 0.0
H330 H 0.60718 0.00716 0.71662 0.0
C331 C 0.57815 0.9318 0.72609 0.0
C332 C 0.58156 0.97627 0.73274 0.0
H333 H 0.60081 0.92935 0.70465 0.0
H334 H 0.55733 0.18291 0.73339 0.0
H335 H 0.56531 0.11889 0.76217 0.0
H336 H 0.42162 0.01574 0.72635 0.0
H337 H 0.41325 0.08068 0.69792 0.0
H338 H 0.46909 0.9868 0.76101 0.0
H339 H 0.57626 0.05663 0.74713 0.0
H340 H 0.4921 0.9413 0.79773 0.0
H341 H 0.48557 0.86372 0.78583 0.0
C342 C 0.49968 0.62625 0.61663 0.0
C343 C 0.5499 0.65628 0.61691 0.0
C344 C 0.47881 0.57785 0.6067 0.0
C345 C 0.50771 0.55821 0.59644 0.0
C346 C 0.55774 0.5888 0.595 0.0
C347 C 0.57863 0.63723 0.60504 0.0
C348 C 0.48806 0.50566 0.59081 0.0
C349 C 0.44099 0.47284 0.58697 0.0
C350 C 0.4224 0.42011 0.58875 0.0
C351 C 0.3758 0.3898 0.6026 0.0
C352 C 0.35987 0.34142 0.61041 0.0
C353 C 0.39034 0.32249 0.60442 0.0
H354 H 0.48616 0.42127 0.56694 0.0
C355 C 0.43526 0.35174 0.5874 0.0
C356 C 0.451 0.39987 0.5794 0.0
H357 H 0.45927 0.33797 0.58175 0.0
H358 H 0.47626 0.63956 0.62558 0.0
H359 H 0.44027 0.55594 0.60891 0.0
H360 H 0.58102 0.57482 0.58728 0.0
H361 H 0.61738 0.65917 0.60487 0.0
H362 H 0.51395 0.49348 0.59243 0.0
H363 H 0.41457 0.48431 0.58586 0.0
H364 H 0.35265 0.40421 0.60951 0.0
H365 H 0.32504 0.31985 0.62346 0.0
C366 C 0.05238 0.41132 0.91789 0.0
C367 C 0.1003 0.44016 0.92937 0.0
C368 C 0.02514 0.4323 0.90726 0.0
C369 C 0.04531 0.48256 0.90813 0.0
C370 C 0.09428 0.51129 0.91626 0.0
C371 C 0.12146 0.49041 0.92693 0.0
C372 C 0.01596 0.50626 0.90423 0.0
C373 C 0.96974 0.48482 0.91533 0.0
C374 C 0.94214 0.51009 0.9215 0.0
C375 C 0.96403 0.56043 0.92495 0.0
C376 C 0.93743 0.58155 0.93718 0.0
C377 C 0.88867 0.55286 0.94649 0.0
H378 H 0.87485 0.44318 0.9263 0.0
C379 C 0.86637 0.50294 0.94096 0.0
C380 C 0.89278 0.48194 0.92867 0.0
H381 H 0.82875 0.47966 0.94756 0.0
H382 H 0.03515 0.37253 0.91889 0.0
H383 H 0.98799 0.40895 0.89957 0.0
H384 H 0.11095 0.55007 0.91664 0.0
H385 H 0.15849 0.51384 0.93508 0.0
H386 H 0.03464 0.54387 0.89636 0.0
H387 H 0.9518 0.44729 0.92354 0.0
H388 H 0.00203 0.58369 0.92032 0.0
H389 H 0.95572 0.62007 0.94125 0.0
C390 C 0.39462 0.87096 0.27305 0.0
C391 C 0.36396 0.88959 0.26629 0.0
C392 C 0.44366 0.89815 0.26497 0.0
C393 C 0.46329 0.94486 0.25007 0.0
C394 C 0.43197 0.96181 0.24066 0.0
C395 C 0.38295 0.93463 0.24872 0.0
C396 C 0.51597 0.97858 0.24654 0.0
C397 C 0.54966 0.97294 0.26469 0.0
C398 C 0.60056 0.01185 0.26858 0.0
C399 C 0.61373 0.06068 0.26773 0.0
C400 C 0.66011 0.09614 0.27761 0.0
C401 C 0.69451 0.08381 0.28878 0.0
H402 H 0.62633 0.96236 0.27922 0.0
C403 C 0.6821 0.03523 0.28778 0.0
C404 C 0.63554 0.99967 0.27804 0.0
H405 H 0.70756 0.02436 0.29636 0.0
H406 H 0.38121 0.83612 0.28611 0.0
H407 H 0.46583 0.88263 0.27141 0.0
H408 H 0.44579 0.99733 0.22872 0.0
H409 H 0.36044 0.95003 0.24279 0.0
H410 H 0.52697 0.01151 0.23095 0.0
H411 H 0.53969 0.93987 0.27963 0.0
H412 H 0.58777 0.07178 0.26167 0.0
H413 H 0.66825 0.13315 0.27814 0.0
C414 C 0.34222 0.21954 0.79274 0.0
C415 C 0.37082 0.24969 0.76357 0.0
C416 C 0.33321 0.23866 0.82508 0.0
C417 C 0.35232 0.28866 0.8289 0.0
C418 C 0.38246 0.3188 0.80015 0.0
C419 C 0.39145 0.29953 0.7678 0.0
C420 C 0.33659 0.30991 0.85948 0.0
C421 C 0.3142 0.28634 0.89131 0.0
C422 C 0.28712 0.30148 0.91663 0.0
C423 C 0.24633 0.26546 0.93496 0.0
C424 C 0.21572 0.27658 0.95485 0.0
C425 C 0.2255 0.32426 0.95779 0.0
H426 H 0.33106 0.37863 0.90901 0.0
C427 C 0.26872 0.36088 0.94254 0.0
C428 C 0.29899 0.34967 0.92163 0.0
H429 H 0.2783 0.39786 0.94524 0.0
H430 H 0.32472 0.18089 0.78962 0.0
H431 H 0.3087 0.21362 0.84563 0.0
H432 H 0.3972 0.3573 0.80184 0.0
H433 H 0.41178 0.32343 0.74497 0.0
H434 H 0.34026 0.34481 0.85391 0.0
H435 H 0.31069 0.25163 0.89717 0.0
H436 H 0.23655 0.22809 0.93218 0.0
H437 H 0.18317 0.24733 0.96673 0.0
C438 C 0.92672 0.2908 0.2863 0.0
C439 C 0.92857 0.25147 0.30167 0.0
C440 C 0.96296 0.32289 0.26169 0.0
C441 C 0.00253 0.31698 0.25307 0.0
C442 C 0.00639 0.28047 0.27135 0.0
C443 C 0.96985 0.24799 0.29495 0.0
C444 C 0.03914 0.34568 0.2238 0.0
C445 C 0.02868 0.36193 0.19229 0.0
C446 C 0.05942 0.37605 0.1578 0.0
C447 C 0.03653 0.36622 0.12273 0.0
C448 C 0.06222 0.37207 0.0896 0.0
C449 C 0.11183 0.3891 0.09047 0.0
H450 H 0.12881 0.40489 0.18521 0.0
C451 C 0.1358 0.40255 0.12519 0.0
C452 C 0.10972 0.39568 0.15871 0.0
H453 H 0.17408 0.41608 0.12657 0.0
H454 H 0.89704 0.29624 0.29237 0.0
H455 H 0.9596 0.35176 0.24918 0.0
H456 H 0.03667 0.27536 0.26582 0.0
H457 H 0.97337 0.21892 0.30691 0.0
H458 H 0.07319 0.34636 0.22537 0.0
H459 H 0.99301 0.35735 0.18933 0.0
H460 H 0.99806 0.35159 0.12098 0.0
H461 H 0.04291 0.36208 0.06315 0.0
C462 C 0.68653 0.94094 0.63408 0.0
C463 C 0.65242 0.89365 0.62443 0.0
C464 C 0.69307 0.97951 0.61148 0.0
C465 C 0.66641 0.97131 0.57805 0.0
C466 C 0.63053 0.92397 0.56973 0.0
C467 C 0.62397 0.88557 0.59249 0.0
C468 C 0.67701 0.00988 0.54968 0.0
C469 C 0.71905 0.05188 0.54791 0.0
C470 C 0.73463 0.08548 0.51504 0.0
C471 C 0.78409 0.11635 0.50949 0.0
C472 C 0.80133 0.14354 0.47656 0.0
C473 C 0.76951 0.14145 0.4487 0.0
H474 H 0.66414 0.0634 0.49153 0.0
C475 C 0.71993 0.11319 0.45513 0.0
C476 C 0.70254 0.08561 0.48807 0.0
H477 H 0.69468 0.10969 0.43355 0.0
H478 H 0.70929 0.94795 0.65845 0.0
H479 H 0.71997 0.01528 0.61993 0.0
H480 H 0.60934 0.91624 0.54433 0.0
H481 H 0.59921 0.8493 0.5836 0.0
H482 H 0.65127 1.00066 0.52704 0.0
H483 H 0.74607 0.05975 0.56922 0.0
H484 H 0.80979 0.11748 0.52974 0.0
H485 H 0.83975 0.16449 0.47204 0.0
C486 C 0.66307 0.76615 0.79144 0.0
C487 C 0.61781 0.74462 0.77401 0.0
C488 C 0.67069 0.74629 0.82383 0.0
C489 C 0.63329 0.70394 0.83969 0.0
C490 C 0.58758 0.68307 0.82301 0.0
C491 C 0.57969 0.70367 0.79084 0.0
C492 C 0.64302 0.67921 0.87122 0.0
C493 C 0.67608 0.70402 0.89793 0.0
C494 C 0.69595 0.68339 0.92553 0.0
C495 C 0.72553 0.71362 0.95428 0.0
C496 C 0.75395 0.70109 0.97572 0.0
C497 C 0.7533 0.65771 0.96932 0.0
H498 H 0.67057 0.61385 0.89891 0.0
C499 C 0.72078 0.62539 0.94288 0.0
C500 C 0.69239 0.6381 0.92099 0.0
H501 H 0.72036 0.59235 0.93678 0.0
H502 H 0.69327 0.79765 0.77922 0.0
H503 H 0.70668 0.7629 0.83519 0.0
H504 H 0.55817 0.65029 0.83445 0.0
H505 H 0.54446 0.68612 0.77815 0.0
H506 H 0.62366 0.64025 0.87154 0.0
H507 H 0.69162 0.7428 0.89859 0.0
H508 H 0.72909 0.74861 0.95865 0.0
H509 H 0.77885 0.72687 0.99578 0.0
C510 C 0.0888 0.78115 0.2611 0.0
C511 C 0.12101 0.76964 0.27849 0.0
C512 C 0.04867 0.74651 0.2418 0.0
C513 C 0.03918 0.69892 0.23932 0.0
C514 C 0.07032 0.68674 0.25783 0.0
C515 C 0.11043 0.72162 0.2778 0.0
C516 C 1.00023 0.66355 0.21426 0.0
C517 C 0.96042 0.66615 0.20659 0.0
C518 C 0.92646 0.64129 0.17481 0.0
C519 C 0.88595 0.64696 0.17147 0.0
C520 C 0.85805 0.63291 0.13874 0.0
C521 C 0.86977 0.6124 0.10877 0.0
H522 H 0.96729 0.61326 0.14628 0.0
C523 C 0.90828 0.60389 0.11268 0.0
C524 C 0.93638 0.61806 0.1454 0.0
H525 H 0.91838 0.58884 0.08951 0.0
H526 H 0.09544 0.81767 0.2611 0.0
H527 H 0.02664 0.758 0.2272 0.0
H528 H 0.06408 0.65041 0.25632 0.0
H529 H 0.13356 0.71116 0.29171 0.0
H530 H 0.00606 0.6367 0.20068 0.0
H531 H 0.95373 0.69064 0.22313 0.0
H532 H 0.87735 0.66482 0.19343 0.0
H533 H 0.82898 0.64053 0.13602 0.0
C534 C 0.36185 0.08654 0.6088 0.0
C535 C 0.32015 0.0866 0.62052 0.0
C536 C 0.35849 0.04888 0.58637 0.0
C537 C 0.3133 0.01015 0.57614 0.0
C538 C 0.27201 0.0084 0.59071 0.0
C539 C 0.27532 0.04618 0.61227 0.0
C540 C 0.30703 0.97238 0.54868 0.0
C541 C 0.33547 0.98199 0.51828 0.0
C542 C 0.32067 0.95008 0.48459 0.0
C543 C 0.33355 0.97174 0.44903 0.0
C544 C 0.31568 0.94437 0.41639 0.0
C545 C 0.2854 0.89433 0.41832 0.0
H546 H 0.2823 0.88162 0.5137 0.0
C547 C 0.27495 0.87187 0.45372 0.0
C548 C 0.29202 0.8996 0.4867 0.0
H549 H 0.2521 0.8333 0.45595 0.0
H550 H 0.39684 0.11575 0.61619 0.0
H551 H 0.39108 0.05029 0.57674 0.0
H552 H 0.23674 0.97877 0.58381 0.0
H553 H 0.24227 0.04422 0.62145 0.0
H554 H 0.2736 0.93832 0.55003 0.0
H555 H 0.3665 0.01773 0.51523 0.0
H556 H 0.35585 0.01037 0.44645 0.0
H557 H 0.32509 0.96262 0.38945 0.0
loop_
_geom_bond_atom_site_label_1
_geom_bond_atom_site_label_2
_geom_bond_distance
_geom_bond_site_symmetry_2
_ccdc_geom_bond_type
O0 Mn1 2.163 1_554 S
O0 C14 1.244 . S
Mn1 O0 2.163 1_556 S
Mn1 O4 2.160 . S
Mn1 O5 2.221 . S
Mn1 O7 2.163 1_556 S
Mn1 O9 2.160 . S
Mn1 O19 2.221 1_556 S
O2 Mn3 2.087 . S
O2 C14 1.256 . S
Mn3 O2 2.087 . S
Mn3 O10 2.089 1_554 S
Mn3 O19 2.290 . S
Mn3 O20 2.251 . S
O4 Mn1 2.160 . S
O4 C15 1.239 . S
O5 Mn1 2.221 . S
O5 Mn6 2.290 . S
O5 C16 1.278 . S
Mn6 O5 2.290 . S
Mn6 O8 2.089 . S
Mn6 O11 2.251 . S
Mn6 O12 2.087 1_556 S
O7 Mn1 2.163 1_554 S
O7 C17 1.244 . S
O8 Mn6 2.089 . S
O8 C15 1.256 . S
O9 Mn1 2.160 . S
O9 C18 1.239 . S
O10 Mn3 2.089 1_556 S
O10 C18 1.256 . S
O11 Mn6 2.251 . S
O11 C16 1.241 . S
O12 Mn6 2.087 1_554 S
O12 C17 1.256 . S
C13 O19 1.278 . S
C13 O20 1.241 . S
C14 O0 1.244 . S
C14 O2 1.256 . S
C15 O4 1.239 . S
C15 O8 1.256 . S
C16 O5 1.278 . S
C16 O11 1.241 . S
C17 O7 1.244 . S
C17 O12 1.256 . S
C18 O9 1.239 . S
C18 O10 1.256 . S
O19 Mn1 2.221 1_554 S
O19 Mn3 2.290 . S
O19 C13 1.278 . S
O20 Mn3 2.251 . S
O20 C13 1.241 . S
O21 Mn22 2.163 . S
O21 C35 1.244 . S
Mn22 O21 2.163 . S
Mn22 O25 2.160 . S
Mn22 O26 2.221 . S
Mn22 O28 2.163 . S
Mn22 O30 2.160 . S
Mn22 O40 2.221 . S
O23 Mn24 2.087 . S
O23 C35 1.256 . S
Mn24 O23 2.087 . S
Mn24 O31 2.089 . S
Mn24 O40 2.290 . S
Mn24 O41 2.251 . S
O25 Mn22 2.160 . S
O25 C36 1.239 . S
O26 Mn22 2.221 . S
O26 Mn27 2.290 . S
O26 C37 1.278 . S
Mn27 O26 2.290 . S
Mn27 O29 2.089 . S
Mn27 O32 2.251 . S
Mn27 O33 2.087 . S
O28 Mn22 2.163 . S
O28 C38 1.244 . S
O29 Mn27 2.089 . S
O29 C36 1.256 . S
O30 Mn22 2.160 . S
O30 C39 1.239 . S
O31 Mn24 2.089 . S
O31 C39 1.256 . S
O32 Mn27 2.251 . S
O32 C37 1.241 . S
O33 Mn27 2.087 . S
O33 C38 1.256 . S
C34 O40 1.278 . S
C34 O41 1.241 . S
C35 O21 1.244 . S
C35 O23 1.256 . S
C36 O25 1.239 . S
C36 O29 1.256 . S
C37 O26 1.278 . S
C37 O32 1.241 . S
C38 O28 1.244 . S
C38 O33 1.256 . S
C39 O30 1.239 . S
C39 O31 1.256 . S
O40 Mn22 2.221 . S
O40 Mn24 2.290 . S
O40 C34 1.278 . S
O41 Mn24 2.251 . S
O41 C34 1.241 . S
O42 Mn43 2.163 . S
O42 C56 1.244 . S
Mn43 O42 2.163 . S
Mn43 O46 2.160 . S
Mn43 O47 2.221 . S
Mn43 O49 2.163 . S
Mn43 O51 2.160 . S
Mn43 O61 2.221 . S
O44 Mn45 2.087 . S
O44 C56 1.256 . S
Mn45 O44 2.087 . S
Mn45 O52 2.089 . S
Mn45 O61 2.290 . S
Mn45 O62 2.251 . S
O46 Mn43 2.160 . S
O46 C57 1.239 . S
O47 Mn43 2.221 . S
O47 Mn48 2.290 . S
O47 C58 1.278 . S
Mn48 O47 2.290 . S
Mn48 O50 2.089 . S
Mn48 O53 2.251 . S
Mn48 O54 2.087 . S
O49 Mn43 2.163 . S
O49 C59 1.244 . S
O50 Mn48 2.089 . S
O50 C57 1.256 . S
O51 Mn43 2.160 . S
O51 C60 1.239 . S
O52 Mn45 2.089 . S
O52 C60 1.256 . S
O53 Mn48 2.251 . S
O53 C58 1.241 . S
O54 Mn48 2.087 . S
O54 C59 1.256 . S
C55 O61 1.278 . S
C55 O62 1.241 . S
C56 O42 1.244 . S
C56 O44 1.256 . S
C57 O46 1.239 . S
C57 O50 1.256 . S
C58 O47 1.278 . S
C58 O53 1.241 . S
C59 O49 1.244 . S
C59 O54 1.256 . S
C60 O51 1.239 . S
C60 O52 1.256 . S
O61 Mn43 2.221 . S
O61 Mn45 2.290 . S
O61 C55 1.278 . S
O62 Mn45 2.251 . S
O62 C55 1.241 . S
O63 Mn64 2.163 1_554 S
O63 C77 1.244 . S
Mn64 O63 2.163 1_556 S
Mn64 O67 2.160 . S
Mn64 O68 2.221 . S
Mn64 O70 2.163 1_556 S
Mn64 O72 2.160 . S
Mn64 O82 2.221 1_556 S
O65 Mn66 2.087 . S
O65 C77 1.256 . S
Mn66 O65 2.087 . S
Mn66 O73 2.089 1_554 S
Mn66 O82 2.290 . S
Mn66 O83 2.251 . S
O67 Mn64 2.160 . S
O67 C78 1.239 . S
O68 Mn64 2.221 . S
O68 Mn69 2.290 . S
O68 C79 1.278 . S
Mn69 O68 2.290 . S
Mn69 O71 2.089 . S
Mn69 O74 2.251 . S
Mn69 O75 2.087 1_556 S
O70 Mn64 2.163 1_554 S
O70 C80 1.244 . S
O71 Mn69 2.089 . S
O71 C78 1.256 . S
O72 Mn64 2.160 . S
O72 C81 1.239 . S
O73 Mn66 2.089 1_556 S
O73 C81 1.256 . S
O74 Mn69 2.251 . S
O74 C79 1.241 . S
O75 Mn69 2.087 1_554 S
O75 C80 1.256 . S
C76 O82 1.278 . S
C76 O83 1.241 . S
C77 O63 1.244 . S
C77 O65 1.256 . S
C78 O67 1.239 . S
C78 O71 1.256 . S
C79 O68 1.278 . S
C79 O74 1.241 . S
C80 O70 1.244 . S
C80 O75 1.256 . S
C81 O72 1.239 . S
C81 O73 1.256 . S
O82 Mn64 2.221 1_554 S
O82 Mn66 2.290 . S
O82 C76 1.278 . S
O83 Mn66 2.251 . S
O83 C76 1.241 . S
O84 Mn85 2.163 . S
O84 C98 1.244 . S
Mn85 O84 2.163 . S
Mn85 O88 2.160 . S
Mn85 O89 2.221 . S
Mn85 O91 2.163 . S
Mn85 O93 2.160 . S
Mn85 O103 2.221 . S
O86 Mn87 2.087 . S
O86 C98 1.256 . S
Mn87 O86 2.087 . S
Mn87 O94 2.089 . S
Mn87 O103 2.290 . S
Mn87 O104 2.251 . S
O88 Mn85 2.160 . S
O88 C99 1.239 . S
O89 Mn85 2.221 . S
O89 Mn90 2.290 . S
O89 C100 1.278 . S
Mn90 O89 2.290 . S
Mn90 O92 2.089 . S
Mn90 O95 2.251 . S
Mn90 O96 2.087 . S
O91 Mn85 2.163 . S
O91 C101 1.244 . S
O92 Mn90 2.089 . S
O92 C99 1.256 . S
O93 Mn85 2.160 . S
O93 C102 1.239 . S
O94 Mn87 2.089 . S
O94 C102 1.256 . S
O95 Mn90 2.251 . S
O95 C100 1.241 . S
O96 Mn90 2.087 . S
O96 C101 1.256 . S
C97 O103 1.278 . S
C97 O104 1.241 . S
C98 O84 1.244 . S
C98 O86 1.256 . S
C99 O88 1.239 . S
C99 O92 1.256 . S
C100 O89 1.278 . S
C100 O95 1.241 . S
C101 O91 1.244 . S
C101 O96 1.256 . S
C102 O93 1.239 . S
C102 O94 1.256 . S
O103 Mn85 2.221 . S
O103 Mn87 2.290 . S
O103 C97 1.278 . S
O104 Mn87 2.251 . S
O104 C97 1.241 . S
O105 Mn106 2.163 . S
O105 C119 1.244 . S
Mn106 O105 2.163 . S
Mn106 O109 2.160 . S
Mn106 O110 2.221 . S
Mn106 O112 2.163 . S
Mn106 O114 2.160 . S
Mn106 O124 2.221 . S
O107 Mn108 2.087 . S
O107 C119 1.256 . S
Mn108 O107 2.087 . S
Mn108 O115 2.089 . S
Mn108 O124 2.290 . S
Mn108 O125 2.251 . S
O109 Mn106 2.160 . S
O109 C120 1.239 . S
O110 Mn106 2.221 . S
O110 Mn111 2.290 . S
O110 C121 1.278 . S
Mn111 O110 2.290 . S
Mn111 O113 2.089 . S
Mn111 O116 2.251 . S
Mn111 O117 2.087 . S
O112 Mn106 2.163 . S
O112 C122 1.244 . S
O113 Mn111 2.089 . S
O113 C120 1.256 . S
O114 Mn106 2.160 . S
O114 C123 1.239 . S
O115 Mn108 2.089 . S
O115 C123 1.256 . S
O116 Mn111 2.251 . S
O116 C121 1.241 . S
O117 Mn111 2.087 . S
O117 C122 1.256 . S
C118 O124 1.278 . S
C118 O125 1.241 . S
C119 O105 1.244 . S
C119 O107 1.256 . S
C120 O109 1.239 . S
C120 O113 1.256 . S
C121 O110 1.278 . S
C121 O116 1.241 . S
C122 O112 1.244 . S
C122 O117 1.256 . S
C123 O114 1.239 . S
C123 O115 1.256 . S
O124 Mn106 2.221 . S
O124 Mn108 2.290 . S
O124 C118 1.278 . S
O125 Mn108 2.251 . S
O125 C118 1.241 . S
C126 C127 1.386 . S
C126 C128 1.383 . S
C126 H142 0.951 . S
C127 C126 1.386 . S
C127 C131 1.383 . S
C128 C126 1.383 . S
C128 C129 1.402 . S
C128 H143 0.951 . S
C129 C128 1.402 . S
C129 C130 1.375 . S
C129 C132 1.481 . S
C130 C129 1.375 . S
C130 C131 1.367 . S
C130 H144 0.951 . S
C131 C127 1.383 . S
C131 C130 1.367 . S
C131 H145 0.950 . S
C132 C129 1.481 . S
C132 C133 1.297 . S
C132 H146 0.950 . S
C133 C132 1.297 . S
C133 C134 1.479 . S
C133 H147 0.950 . S
C134 C133 1.479 . S
C134 C135 1.375 . S
C134 C140 1.404 . S
C135 C134 1.375 . S
C135 C136 1.369 . S
C135 H148 0.950 . S
C136 C135 1.369 . S
C136 C137 1.392 . S
C136 H149 0.951 . S
C137 C136 1.392 . S
C137 C139 1.384 . S
H138 C140 0.949 . S
C139 C137 1.384 . S
C139 C140 1.385 . S
C139 H141 0.950 . S
C140 C134 1.404 . S
C140 H138 0.949 . S
C140 C139 1.385 . S
H141 C139 0.950 . S
H142 C126 0.951 . S
H143 C128 0.951 . S
H144 C130 0.951 . S
H145 C131 0.950 . S
H146 C132 0.950 . S
H147 C133 0.950 . S
H148 C135 0.950 . S
H149 C136 0.951 . S
C150 C151 1.386 . S
C150 C152 1.383 . S
C150 H166 0.951 . S
C151 C150 1.386 . S
C151 C155 1.383 . S
C152 C150 1.383 . S
C152 C153 1.402 . S
C152 H167 0.951 . S
C153 C152 1.402 . S
C153 C154 1.375 . S
C153 C156 1.481 . S
C154 C153 1.375 . S
C154 C155 1.367 . S
C154 H168 0.951 . S
C155 C151 1.383 . S
C155 C154 1.367 . S
C155 H169 0.950 . S
C156 C153 1.481 . S
C156 C157 1.297 . S
C156 H170 0.950 . S
C157 C156 1.297 . S
C157 C158 1.479 . S
C157 H171 0.950 . S
C158 C157 1.479 . S
C158 C159 1.375 . S
C158 C164 1.404 . S
C159 C158 1.375 . S
C159 C160 1.369 . S
C159 H172 0.950 . S
C160 C159 1.369 . S
C160 C161 1.392 . S
C160 H173 0.951 . S
C161 C160 1.392 . S
C161 C163 1.384 . S
H162 C164 0.949 . S
C163 C161 1.384 . S
C163 C164 1.385 . S
C163 H165 0.950 . S
C164 C158 1.404 . S
C164 H162 0.949 . S
C164 C163 1.385 . S
H165 C163 0.950 . S
H166 C150 0.951 . S
H167 C152 0.951 . S
H168 C154 0.951 . S
H169 C155 0.950 . S
H170 C156 0.950 . S
H171 C157 0.950 . S
H172 C159 0.950 . S
H173 C160 0.951 . S
C174 C175 1.386 . S
C174 C176 1.383 . S
C174 H190 0.951 . S
C175 C174 1.386 . S
C175 C179 1.383 . S
C176 C174 1.383 . S
C176 C177 1.402 . S
C176 H191 0.951 . S
C177 C176 1.402 . S
C177 C178 1.375 . S
C177 C180 1.481 . S
C178 C177 1.375 . S
C178 C179 1.367 . S
C178 H192 0.951 . S
C179 C175 1.383 . S
C179 C178 1.367 . S
C179 H193 0.950 . S
C180 C177 1.481 . S
C180 C181 1.297 . S
C180 H194 0.950 . S
C181 C180 1.297 . S
C181 C182 1.479 . S
C181 H195 0.950 . S
C182 C181 1.479 . S
C182 C183 1.375 . S
C182 C188 1.404 . S
C183 C182 1.375 . S
C183 C184 1.369 . S
C183 H196 0.950 . S
C184 C183 1.369 . S
C184 C185 1.392 . S
C184 H197 0.951 . S
C185 C184 1.392 . S
C185 C187 1.384 . S
H186 C188 0.949 . S
C187 C185 1.384 . S
C187 C188 1.385 . S
C187 H189 0.950 . S
C188 C182 1.404 . S
C188 H186 0.949 . S
C188 C187 1.385 . S
H189 C187 0.950 . S
H190 C174 0.951 . S
H191 C176 0.951 . S
H192 C178 0.951 . S
H193 C179 0.950 . S
H194 C180 0.950 . S
H195 C181 0.950 . S
H196 C183 0.950 . S
H197 C184 0.951 . S
C198 C199 1.386 . S
C198 C200 1.383 . S
C198 H214 0.951 . S
C199 C198 1.386 . S
C199 C203 1.383 . S
C200 C198 1.383 . S
C200 C201 1.402 . S
C200 H215 0.951 . S
C201 C200 1.402 . S
C201 C202 1.375 . S
C201 C204 1.481 . S
C202 C201 1.375 . S
C202 C203 1.367 . S
C202 H216 0.951 . S
C203 C199 1.383 . S
C203 C202 1.367 . S
C203 H217 0.950 . S
C204 C201 1.481 . S
C204 C205 1.297 . S
C204 H218 0.950 . S
C205 C204 1.297 . S
C205 C206 1.479 . S
C205 H219 0.950 . S
C206 C205 1.479 . S
C206 C207 1.375 . S
C206 C212 1.404 . S
C207 C206 1.375 . S
C207 C208 1.369 . S
C207 H220 0.950 . S
C208 C207 1.369 . S
C208 C209 1.392 . S
C208 H221 0.951 . S
C209 C208 1.392 . S
C209 C211 1.384 . S
H210 C212 0.949 . S
C211 C209 1.384 . S
C211 C212 1.385 . S
C211 H213 0.950 . S
C212 C206 1.404 . S
C212 H210 0.949 . S
C212 C211 1.385 . S
H213 C211 0.950 . S
H214 C198 0.951 . S
H215 C200 0.951 . S
H216 C202 0.951 . S
H217 C203 0.950 . S
H218 C204 0.950 . S
H219 C205 0.950 . S
H220 C207 0.950 . S
H221 C208 0.951 . S
C222 C223 1.386 . S
C222 C224 1.383 . S
C222 H238 0.951 . S
C223 C222 1.386 . S
C223 C227 1.383 . S
C224 C222 1.383 . S
C224 C225 1.402 . S
C224 H239 0.951 . S
C225 C224 1.402 . S
C225 C226 1.375 . S
C225 C228 1.481 . S
C226 C225 1.375 . S
C226 C227 1.367 . S
C226 H240 0.951 . S
C227 C223 1.383 . S
C227 C226 1.367 . S
C227 H241 0.950 . S
C228 C225 1.481 . S
C228 C229 1.297 . S
C228 H242 0.950 . S
C229 C228 1.297 . S
C229 C230 1.479 . S
C229 H243 0.950 . S
C230 C229 1.479 . S
C230 C231 1.375 . S
C230 C236 1.404 . S
C231 C230 1.375 . S
C231 C232 1.369 . S
C231 H244 0.950 . S
C232 C231 1.369 . S
C232 C233 1.392 . S
C232 H245 0.951 . S
C233 C232 1.392 . S
C233 C235 1.384 . S
H234 C236 0.949 . S
C235 C233 1.384 . S
C235 C236 1.385 . S
C235 H237 0.950 . S
C236 C230 1.404 . S
C236 H234 0.949 . S
C236 C235 1.385 . S
H237 C235 0.950 . S
H238 C222 0.951 . S
H239 C224 0.951 . S
H240 C226 0.951 . S
H241 C227 0.950 . S
H242 C228 0.950 . S
H243 C229 0.950 . S
H244 C231 0.950 . S
H245 C232 0.951 . S
C246 C247 1.386 . S
C246 C248 1.383 . S
C246 H262 0.951 . S
C247 C246 1.386 . S
C247 C251 1.383 . S
C248 C246 1.383 . S
C248 C249 1.402 . S
C248 H263 0.951 . S
C249 C248 1.402 . S
C249 C250 1.375 . S
C249 C252 1.481 . S
C250 C249 1.375 . S
C250 C251 1.367 . S
C250 H264 0.951 . S
C251 C247 1.383 . S
C251 C250 1.367 . S
C251 H265 0.950 . S
C252 C249 1.481 . S
C252 C253 1.297 . S
C252 H266 0.950 . S
C253 C252 1.297 . S
C253 C254 1.479 . S
C253 H267 0.950 . S
C254 C253 1.479 . S
C254 C255 1.375 . S
C254 C260 1.404 . S
C255 C254 1.375 . S
C255 C256 1.369 . S
C255 H268 0.950 . S
C256 C255 1.369 . S
C256 C257 1.392 . S
C256 H269 0.951 . S
C257 C256 1.392 . S
C257 C259 1.384 . S
H258 C260 0.949 . S
C259 C257 1.384 . S
C259 C260 1.385 . S
C259 H261 0.950 . S
C260 C254 1.404 . S
C260 H258 0.949 . S
C260 C259 1.385 . S
H261 C259 0.950 . S
H262 C246 0.951 . S
H263 C248 0.951 . S
H264 C250 0.951 . S
H265 C251 0.950 . S
H266 C252 0.950 . S
H267 C253 0.950 . S
H268 C255 0.950 . S
H269 C256 0.951 . S
C270 C271 1.386 . S
C270 C272 1.383 . S
C270 H286 0.951 . S
C271 C270 1.386 . S
C271 C275 1.383 1_554 S
C272 C270 1.383 . S
C272 C273 1.402 . S
C272 H287 0.951 . S
C273 C272 1.402 . S
C273 C274 1.375 1_554 S
C273 C276 1.481 1_554 S
C274 C273 1.375 1_556 S
C274 C275 1.367 . S
C274 H288 0.951 . S
C275 C271 1.383 1_556 S
C275 C274 1.367 . S
C275 H289 0.950 . S
C276 C273 1.481 1_556 S
C276 C277 1.297 1_556 S
C276 H290 0.950 . S
C277 C276 1.297 1_554 S
C277 C278 1.479 . S
C277 H291 0.950 . S
C278 C277 1.479 . S
C278 C279 1.375 . S
C278 C284 1.404 1_554 S
C279 C278 1.375 . S
C279 C280 1.369 . S
C279 H292 0.950 . S
C280 C279 1.369 . S
C280 C281 1.392 . S
C280 H293 0.951 . S
C281 C280 1.392 . S
C281 C283 1.384 1_554 S
H282 C284 0.949 . S
C283 C281 1.384 1_556 S
C283 C284 1.385 . S
C283 H285 0.950 . S
C284 C278 1.404 1_556 S
C284 H282 0.949 . S
C284 C283 1.385 . S
H285 C283 0.950 . S
H286 C270 0.951 . S
H287 C272 0.951 . S
H288 C274 0.951 . S
H289 C275 0.950 . S
H290 C276 0.950 . S
H291 C277 0.950 . S
H292 C279 0.950 . S
H293 C280 0.951 . S
C294 C295 1.386 . S
C294 C296 1.383 . S
C294 H310 0.951 . S
C295 C294 1.386 . S
C295 C299 1.383 . S
C296 C294 1.383 . S
C296 C297 1.402 . S
C296 H311 0.951 . S
C297 C296 1.402 . S
C297 C298 1.375 . S
C297 C300 1.481 1_455 S
C298 C297 1.375 . S
C298 C299 1.367 . S
C298 H312 0.951 1_455 S
C299 C295 1.383 . S
C299 C298 1.367 . S
C299 H313 0.950 . S
C300 C297 1.481 1_655 S
C300 C301 1.297 1_655 S
C300 H314 0.950 . S
C301 C300 1.297 1_455 S
C301 C302 1.479 1_455 S
C301 H315 0.950 . S
C302 C301 1.479 1_655 S
C302 C303 1.375 . S
C302 C308 1.404 . S
C303 C302 1.375 . S
C303 C304 1.369 . S
C303 H316 0.950 1_655 S
C304 C303 1.369 . S
C304 C305 1.392 . S
C304 H317 0.951 . S
C305 C304 1.392 . S
C305 C307 1.384 . S
H306 C308 0.949 . S
C307 C305 1.384 . S
C307 C308 1.385 . S
C307 H309 0.950 . S
C308 C302 1.404 . S
C308 H306 0.949 . S
C308 C307 1.385 . S
H309 C307 0.950 . S
H310 C294 0.951 . S
H311 C296 0.951 . S
H312 C298 0.951 1_655 S
H313 C299 0.950 . S
H314 C300 0.950 . S
H315 C301 0.950 . S
H316 C303 0.950 1_455 S
H317 C304 0.951 . S
C318 C319 1.386 . S
C318 C320 1.383 . S
C318 H334 0.951 . S
C319 C318 1.386 . S
C319 C323 1.383 . S
C320 C318 1.383 . S
C320 C321 1.402 . S
C320 H335 0.951 . S
C321 C320 1.402 . S
C321 C322 1.375 . S
C321 C324 1.481 1_545 S
C322 C321 1.375 . S
C322 C323 1.367 . S
C322 H336 0.951 1_545 S
C323 C319 1.383 . S
C323 C322 1.367 . S
C323 H337 0.950 . S
C324 C321 1.481 1_565 S
C324 C325 1.297 . S
C324 H338 0.950 . S
C325 C324 1.297 . S
C325 C326 1.479 . S
C325 H339 0.950 1_565 S
C326 C325 1.479 . S
C326 C327 1.375 . S
C326 C332 1.404 . S
C327 C326 1.375 . S
C327 C328 1.369 . S
C327 H340 0.950 1_565 S
C328 C327 1.369 . S
C328 C329 1.392 . S
C328 H341 0.951 . S
C329 C328 1.392 . S
C329 C331 1.384 . S
H330 C332 0.949 . S
C331 C329 1.384 . S
C331 C332 1.385 . S
C331 H333 0.950 . S
C332 C326 1.404 . S
C332 H330 0.949 . S
C332 C331 1.385 . S
H333 C331 0.950 . S
H334 C318 0.951 . S
H335 C320 0.951 . S
H336 C322 0.951 1_565 S
H337 C323 0.950 . S
H338 C324 0.950 . S
H339 C325 0.950 1_545 S
H340 C327 0.950 1_545 S
H341 C328 0.951 . S
C342 C343 1.386 . S
C342 C344 1.383 . S
C342 H358 0.951 . S
C343 C342 1.386 . S
C343 C347 1.383 . S
C344 C342 1.383 . S
C344 C345 1.402 . S
C344 H359 0.951 . S
C345 C344 1.402 . S
C345 C346 1.375 . S
C345 C348 1.481 . S
C346 C345 1.375 . S
C346 C347 1.367 . S
C346 H360 0.951 . S
C347 C343 1.383 . S
C347 C346 1.367 . S
C347 H361 0.950 . S
C348 C345 1.481 . S
C348 C349 1.297 . S
C348 H362 0.950 . S
C349 C348 1.297 . S
C349 C350 1.479 . S
C349 H363 0.950 . S
C350 C349 1.479 . S
C350 C351 1.375 . S
C350 C356 1.404 . S
C351 C350 1.375 . S
C351 C352 1.369 . S
C351 H364 0.950 . S
C352 C351 1.369 . S
C352 C353 1.392 . S
C352 H365 0.951 . S
C353 C352 1.392 . S
C353 C355 1.384 . S
H354 C356 0.949 . S
C355 C353 1.384 . S
C355 C356 1.385 . S
C355 H357 0.950 . S
C356 C350 1.404 . S
C356 H354 0.949 . S
C356 C355 1.385 . S
H357 C355 0.950 . S
H358 C342 0.951 . S
H359 C344 0.951 . S
H360 C346 0.951 . S
H361 C347 0.950 . S
H362 C348 0.950 . S
H363 C349 0.950 . S
H364 C351 0.950 . S
H365 C352 0.951 . S
C366 C367 1.386 . S
C366 C368 1.383 . S
C366 H382 0.951 . S
C367 C366 1.386 . S
C367 C371 1.383 1_556 S
C368 C366 1.383 . S
C368 C369 1.402 . S
C368 H383 0.951 . S
C369 C368 1.402 . S
C369 C370 1.375 1_556 S
C369 C372 1.485 . S
C370 C369 1.375 1_554 S
C370 C371 1.367 . S
C370 H384 0.951 . S
C371 C367 1.383 1_554 S
C371 C370 1.367 . S
C371 H385 0.950 . S
C372 C369 1.485 . S
C372 C373 1.294 1_455 S
C372 H386 0.949 1_556 S
C373 C372 1.294 1_655 S
C373 C374 1.479 . S
C373 H387 0.950 . S
C374 C373 1.479 . S
C374 C375 1.375 . S
C374 C380 1.404 1_556 S
C375 C374 1.375 . S
C375 C376 1.369 . S
C375 H388 0.950 . S
C376 C375 1.369 . S
C376 C377 1.392 . S
C376 H389 0.951 . S
C377 C376 1.392 . S
C377 C379 1.384 1_556 S
H378 C380 0.949 . S
C379 C377 1.384 1_554 S
C379 C380 1.385 . S
C379 H381 0.950 . S
C380 C374 1.404 1_554 S
C380 H378 0.949 . S
C380 C379 1.385 . S
H381 C379 0.950 . S
H382 C366 0.951 . S
H383 C368 0.951 . S
H384 C370 0.951 . S
H385 C371 0.950 . S
H386 C372 0.949 1_554 S
H387 C373 0.950 . S
H388 C375 0.950 . S
H389 C376 0.951 . S
C390 C391 1.386 . S
C390 C392 1.383 . S
C390 H406 0.951 . S
C391 C390 1.386 . S
C391 C395 1.383 . S
C392 C390 1.383 . S
C392 C393 1.402 . S
C392 H407 0.951 . S
C393 C392 1.402 . S
C393 C394 1.375 . S
C393 C396 1.481 . S
C394 C393 1.375 . S
C394 C395 1.367 . S
C394 H408 0.951 . S
C395 C391 1.383 . S
C395 C394 1.367 . S
C395 H409 0.950 . S
C396 C393 1.481 . S
C396 C397 1.297 . S
C396 H410 0.950 . S
C397 C396 1.297 . S
C397 C398 1.479 1_565 S
C397 H411 0.950 . S
C398 C397 1.479 1_545 S
C398 C399 1.375 . S
C398 C404 1.404 . S
C399 C398 1.375 . S
C399 C400 1.369 . S
C399 H412 0.950 . S
C400 C399 1.369 . S
C400 C401 1.392 . S
C400 H413 0.951 . S
C401 C400 1.392 . S
C401 C403 1.384 . S
H402 C404 0.949 1_565 S
C403 C401 1.384 . S
C403 C404 1.385 . S
C403 H405 0.950 . S
C404 C398 1.404 . S
C404 H402 0.949 1_545 S
C404 C403 1.385 . S
H405 C403 0.950 . S
H406 C390 0.951 . S
H407 C392 0.951 . S
H408 C394 0.951 . S
H409 C395 0.950 . S
H410 C396 0.950 . S
H411 C397 0.950 . S
H412 C399 0.950 . S
H413 C400 0.951 . S
C414 C415 1.386 . S
C414 C416 1.383 . S
C414 H430 0.951 . S
C415 C414 1.386 . S
C415 C419 1.383 . S
C416 C414 1.383 . S
C416 C417 1.402 . S
C416 H431 0.951 . S
C417 C416 1.402 . S
C417 C418 1.375 . S
C417 C420 1.481 . S
C418 C417 1.375 . S
C418 C419 1.367 . S
C418 H432 0.951 . S
C419 C415 1.383 . S
C419 C418 1.367 . S
C419 H433 0.950 . S
C420 C417 1.481 . S
C420 C421 1.297 . S
C420 H434 0.950 . S
C421 C420 1.297 . S
C421 C422 1.479 . S
C421 H435 0.950 . S
C422 C421 1.479 . S
C422 C423 1.375 . S
C422 C428 1.404 . S
C423 C422 1.375 . S
C423 C424 1.369 . S
C423 H436 0.950 . S
C424 C423 1.369 . S
C424 C425 1.392 . S
C424 H437 0.951 . S
C425 C424 1.392 . S
C425 C427 1.384 . S
H426 C428 0.949 . S
C427 C425 1.384 . S
C427 C428 1.385 . S
C427 H429 0.950 . S
C428 C422 1.404 . S
C428 H426 0.949 . S
C428 C427 1.385 . S
H429 C427 0.950 . S
H430 C414 0.951 . S
H431 C416 0.951 . S
H432 C418 0.951 . S
H433 C419 0.950 . S
H434 C420 0.950 . S
H435 C421 0.950 . S
H436 C423 0.950 . S
H437 C424 0.951 . S
C438 C439 1.386 . S
C438 C440 1.383 . S
C438 H454 0.951 . S
C439 C438 1.386 . S
C439 C443 1.383 . S
C440 C438 1.383 . S
C440 C441 1.402 . S
C440 H455 0.951 . S
C441 C440 1.402 . S
C441 C442 1.375 . S
C441 C444 1.481 1_655 S
C442 C441 1.375 . S
C442 C443 1.367 . S
C442 H456 0.951 1_655 S
C443 C439 1.383 . S
C443 C442 1.367 . S
C443 H457 0.950 . S
C444 C441 1.481 1_455 S
C444 C445 1.297 . S
C444 H458 0.950 . S
C445 C444 1.297 . S
C445 C446 1.479 . S
C445 H459 0.950 1_455 S
C446 C445 1.479 . S
C446 C447 1.375 . S
C446 C452 1.404 . S
C447 C446 1.375 . S
C447 C448 1.369 . S
C447 H460 0.950 . S
C448 C447 1.369 . S
C448 C449 1.392 . S
C448 H461 0.951 . S
C449 C448 1.392 . S
C449 C451 1.384 . S
H450 C452 0.949 . S
C451 C449 1.384 . S
C451 C452 1.385 . S
C451 H453 0.950 . S
C452 C446 1.404 . S
C452 H450 0.949 . S
C452 C451 1.385 . S
H453 C451 0.950 . S
H454 C438 0.951 . S
H455 C440 0.951 . S
H456 C442 0.951 1_455 S
H457 C443 0.950 . S
H458 C444 0.950 . S
H459 C445 0.950 1_655 S
H460 C447 0.950 . S
H461 C448 0.951 . S
C462 C463 1.386 . S
C462 C464 1.383 . S
C462 H478 0.951 . S
C463 C462 1.386 . S
C463 C467 1.383 . S
C464 C462 1.383 . S
C464 C465 1.402 . S
C464 H479 0.951 . S
C465 C464 1.402 . S
C465 C466 1.375 . S
C465 C468 1.481 . S
C466 C465 1.375 . S
C466 C467 1.367 . S
C466 H480 0.951 . S
C467 C463 1.383 . S
C467 C466 1.367 . S
C467 H481 0.950 . S
C468 C465 1.481 . S
C468 C469 1.297 1_565 S
C468 H482 0.950 . S
C469 C468 1.297 1_545 S
C469 C470 1.479 . S
C469 H483 0.950 1_545 S
C470 C469 1.479 . S
C470 C471 1.375 . S
C470 C476 1.404 . S
C471 C470 1.375 . S
C471 C472 1.369 . S
C471 H484 0.950 . S
C472 C471 1.369 . S
C472 C473 1.392 . S
C472 H485 0.951 . S
C473 C472 1.392 . S
C473 C475 1.384 . S
H474 C476 0.949 . S
C475 C473 1.384 . S
C475 C476 1.385 . S
C475 H477 0.950 . S
C476 C470 1.404 . S
C476 H474 0.949 . S
C476 C475 1.385 . S
H477 C475 0.950 . S
H478 C462 0.951 . S
H479 C464 0.951 . S
H480 C466 0.951 . S
H481 C467 0.950 . S
H482 C468 0.950 . S
H483 C469 0.950 1_565 S
H484 C471 0.950 . S
H485 C472 0.951 . S
C486 C487 1.386 . S
C486 C488 1.383 . S
C486 H502 0.951 . S
C487 C486 1.386 . S
C487 C491 1.383 . S
C488 C486 1.383 . S
C488 C489 1.402 . S
C488 H503 0.951 . S
C489 C488 1.402 . S
C489 C490 1.375 . S
C489 C492 1.481 . S
C490 C489 1.375 . S
C490 C491 1.367 . S
C490 H504 0.951 . S
C491 C487 1.383 . S
C491 C490 1.367 . S
C491 H505 0.950 . S
C492 C489 1.481 . S
C492 C493 1.297 . S
C492 H506 0.950 . S
C493 C492 1.297 . S
C493 C494 1.479 . S
C493 H507 0.950 . S
C494 C493 1.479 . S
C494 C495 1.375 . S
C494 C500 1.404 . S
C495 C494 1.375 . S
C495 C496 1.369 . S
C495 H508 0.950 . S
C496 C495 1.369 . S
C496 C497 1.392 . S
C496 H509 0.951 . S
C497 C496 1.392 . S
C497 C499 1.384 . S
H498 C500 0.949 . S
C499 C497 1.384 . S
C499 C500 1.385 . S
C499 H501 0.950 . S
C500 C494 1.404 . S
C500 H498 0.949 . S
C500 C499 1.385 . S
H501 C499 0.950 . S
H502 C486 0.951 . S
H503 C488 0.951 . S
H504 C490 0.951 . S
H505 C491 0.950 . S
H506 C492 0.950 . S
H507 C493 0.950 . S
H508 C495 0.950 . S
H509 C496 0.951 . S
C510 C511 1.386 . S
C510 C512 1.383 . S
C510 H526 0.951 . S
C511 C510 1.386 . S
C511 C515 1.383 . S
C512 C510 1.383 . S
C512 C513 1.402 . S
C512 H527 0.951 . S
C513 C512 1.402 . S
C513 C514 1.375 . S
C513 C516 1.481 . S
C514 C513 1.375 . S
C514 C515 1.367 . S
C514 H528 0.951 . S
C515 C511 1.383 . S
C515 C514 1.367 . S
C515 H529 0.950 . S
C516 C513 1.481 . S
C516 C517 1.297 . S
C516 H530 0.950 . S
C517 C516 1.297 . S
C517 C518 1.479 1_455 S
C517 H531 0.950 . S
C518 C517 1.479 1_655 S
C518 C519 1.375 . S
C518 C524 1.404 . S
C519 C518 1.375 . S
C519 C520 1.369 . S
C519 H532 0.950 . S
C520 C519 1.369 . S
C520 C521 1.392 . S
C520 H533 0.951 . S
C521 C520 1.392 . S
C521 C523 1.384 . S
H522 C524 0.949 . S
C523 C521 1.384 . S
C523 C524 1.385 . S
C523 H525 0.950 . S
C524 C518 1.404 . S
C524 H522 0.949 . S
C524 C523 1.385 . S
H525 C523 0.950 . S
H526 C510 0.951 . S
H527 C512 0.951 . S
H528 C514 0.951 . S
H529 C515 0.950 . S
H530 C516 0.950 . S
H531 C517 0.950 . S
H532 C519 0.950 . S
H533 C520 0.951 . S
C534 C535 1.386 . S
C534 C536 1.383 . S
C534 H550 0.951 . S
C535 C534 1.386 . S
C535 C539 1.383 . S
C536 C534 1.383 . S
C536 C537 1.402 . S
C536 H551 0.951 . S
C537 C536 1.402 . S
C537 C538 1.375 . S
C537 C540 1.481 1_545 S
C538 C537 1.375 . S
C538 C539 1.367 . S
C538 H552 0.951 . S
C539 C535 1.383 . S
C539 C538 1.367 . S
C539 H553 0.950 . S
C540 C537 1.481 1_565 S
C540 C541 1.297 . S
C540 H554 0.950 . S
C541 C540 1.297 . S
C541 C542 1.479 . S
C541 H555 0.950 . S
C542 C541 1.479 . S
C542 C543 1.375 . S
C542 C548 1.404 . S
C543 C542 1.375 . S
C543 C544 1.369 . S
C543 H556 0.950 . S
C544 C543 1.369 . S
C544 C545 1.392 . S
C544 H557 0.951 . S
C545 C544 1.392 . S
C545 C547 1.384 . S
H546 C548 0.949 . S
C547 C545 1.384 . S
C547 C548 1.385 . S
C547 H549 0.950 . S
C548 C542 1.404 . S
C548 H546 0.949 . S
C548 C547 1.385 . S
H549 C547 0.950 . S
H550 C534 0.951 . S
H551 C536 0.951 . S
H552 C538 0.951 . S
H553 C539 0.950 . S
H554 C540 0.950 . S
H555 C541 0.950 . S
H556 C543 0.950 . S
H557 C544 0.951 . S
C127 C102 0.783 . S
C137 C13 0.673 . S
C151 C123 0.820 . S
C161 C34 0.900 . S
C175 C18 0.864 . S
C185 C55 0.795 . S
C199 C39 0.841 . S
C209 C76 0.932 . S
C223 C60 0.781 . S
C233 C97 0.762 . S
C247 C81 0.809 . S
C257 C118 0.874 . S
C271 C14 0.982 . S
C281 C77 0.850 . S
C295 C98 0.995 . S
C305 C35 0.998 . S
C319 C119 1.026 . S
C329 C56 0.900 . S
C343 C57 1.004 . S
C353 C120 1.002 . S
C367 C15 0.990 . S
C377 C78 0.986 . S
C391 C99 0.998 . S
C401 C36 0.990 . S
C415 C122 1.040 . S
C425 C16 0.927 . S
C439 C37 1.019 . S
C449 C17 1.004 . S
C463 C58 1.007 . S
C473 C38 0.951 . S
C487 C59 1.034 . S
C497 C79 0.964 . S
C511 C100 1.024 . S
C521 C80 0.944 . S
C535 C121 0.990 . S
C545 C101 1.039 . S
