# Generated by pormake.
# Topology why, (6)-cn, num edge types: 1
# Building blocks:
#     Node 0, Type 0, BuildingBlock: CUKXOW_clean_sbu_0, # of connection points: 6
#     Node 1, Type 0, BuildingBlock: CUKXOW_clean_sbu_0, # of connection points: 6
#     Node 2, Type 0, BuildingBlock: CUKXOW_clean_sbu_0, # of connection points: 6
#     Node 3, Type 0, BuildingBlock: CUKXOW_clean_sbu_0, # of connection points: 6
#     Node 4, Type 0, BuildingBlock: CUKXOW_clean_sbu_0, # of connection points: 6
#     Node 5, Type 0, BuildingBlock: CUKXOW_clean_sbu_0, # of connection points: 6
#     Node 6, Type 0, BuildingBlock: CUKXOW_clean_sbu_0, # of connection points: 6
#     Node 7, Type 0, BuildingBlock: CUKXOW_clean_sbu_0, # of connection points: 6
#     Node 8, Type 0, BuildingBlock: CUKXOW_clean_sbu_0, # of connection points: 6
#     Node 9, Type 0, BuildingBlock: CUKXOW_clean_sbu_0, # of connection points: 6
#     Node 10, Type 0, BuildingBlock: CUKXOW_clean_sbu_0, # of connection points: 6
#     Node 11, Type 0, BuildingBlock: CUKXOW_clean_sbu_0, # of connection points: 6
#     Node 12, Type 0, BuildingBlock: CUKXOW_clean_sbu_0, # of connection points: 6
#     Node 13, Type 0, BuildingBlock: CUKXOW_clean_sbu_0, # of connection points: 6
#     Node 14, Type 0, BuildingBlock: CUKXOW_clean_sbu_0, # of connection points: 6
#     Node 15, Type 0, BuildingBlock: CUKXOW_clean_sbu_0, # of connection points: 6
#     Edge 16, Type (0, 0), BuildingBlock: MIFKUJ_clean_linker_0, # of connection points: 2
#     Edge 17, Type (0, 0), BuildingBlock: MIFKUJ_clean_linker_0, # of connection points: 2
#     Edge 18, Type (0, 0), BuildingBlock: MIFKUJ_clean_linker_0, # of connection points: 2
#     Edge 19, Type (0, 0), BuildingBlock: MIFKUJ_clean_linker_0, # of connection points: 2
#     Edge 20, Type (0, 0), BuildingBlock: MIFKUJ_clean_linker_0, # of connection points: 2
#     Edge 21, Type (0, 0), BuildingBlock: MIFKUJ_clean_linker_0, # of connection points: 2
#     Edge 22, Type (0, 0), BuildingBlock: MIFKUJ_clean_linker_0, # of connection points: 2
#     Edge 23, Type (0, 0), BuildingBlock: MIFKUJ_clean_linker_0, # of connection points: 2
#     Edge 24, Type (0, 0), BuildingBlock: MIFKUJ_clean_linker_0, # of connection points: 2
#     Edge 25, Type (0, 0), BuildingBlock: MIFKUJ_clean_linker_0, # of connection points: 2
#     Edge 26, Type (0, 0), BuildingBlock: MIFKUJ_clean_linker_0, # of connection points: 2
#     Edge 27, Type (0, 0), BuildingBlock: MIFKUJ_clean_linker_0, # of connection points: 2
#     Edge 28, Type (0, 0), BuildingBlock: MIFKUJ_clean_linker_0, # of connection points: 2
#     Edge 29, Type (0, 0), BuildingBlock: MIFKUJ_clean_linker_0, # of connection points: 2
#     Edge 30, Type (0, 0), BuildingBlock: MIFKUJ_clean_linker_0, # of connection points: 2
#     Edge 31, Type (0, 0), BuildingBlock: MIFKUJ_clean_linker_0, # of connection points: 2
#     Edge 32, Type (0, 0), BuildingBlock: MIFKUJ_clean_linker_0, # of connection points: 2
#     Edge 33, Type (0, 0), BuildingBlock: MIFKUJ_clean_linker_0, # of connection points: 2
#     Edge 34, Type (0, 0), BuildingBlock: MIFKUJ_clean_linker_0, # of connection points: 2
#     Edge 35, Type (0, 0), BuildingBlock: MIFKUJ_clean_linker_0, # of connection points: 2
#     Edge 36, Type (0, 0), BuildingBlock: MIFKUJ_clean_linker_0, # of connection points: 2
#     Edge 37, Type (0, 0), BuildingBlock: MIFKUJ_clean_linker_0, # of connection points: 2
#     Edge 38, Type (0, 0), BuildingBlock: MIFKUJ_clean_linker_0, # of connection points: 2
#     Edge 39, Type (0, 0), BuildingBlock: MIFKUJ_clean_linker_0, # of connection points: 2
#     Edge 40, Type (0, 0), BuildingBlock: MIFKUJ_clean_linker_0, # of connection points: 2
#     Edge 41, Type (0, 0), BuildingBlock: MIFKUJ_clean_linker_0, # of connection points: 2
#     Edge 42, Type (0, 0), BuildingBlock: MIFKUJ_clean_linker_0, # of connection points: 2
#     Edge 43, Type (0, 0), BuildingBlock: MIFKUJ_clean_linker_0, # of connection points: 2
#     Edge 44, Type (0, 0), BuildingBlock: MIFKUJ_clean_linker_0, # of connection points: 2
#     Edge 45, Type (0, 0), BuildingBlock: MIFKUJ_clean_linker_0, # of connection points: 2
#     Edge 46, Type (0, 0), BuildingBlock: MIFKUJ_clean_linker_0, # of connection points: 2
#     Edge 47, Type (0, 0), BuildingBlock: MIFKUJ_clean_linker_0, # of connection points: 2
#     Edge 48, Type (0, 0), BuildingBlock: MIFKUJ_clean_linker_0, # of connection points: 2
#     Edge 49, Type (0, 0), BuildingBlock: MIFKUJ_clean_linker_0, # of connection points: 2
#     Edge 50, Type (0, 0), BuildingBlock: MIFKUJ_clean_linker_0, # of connection points: 2
#     Edge 51, Type (0, 0), BuildingBlock: MIFKUJ_clean_linker_0, # of connection points: 2
#     Edge 52, Type (0, 0), BuildingBlock: MIFKUJ_clean_linker_0, # of connection points: 2
#     Edge 53, Type (0, 0), BuildingBlock: MIFKUJ_clean_linker_0, # of connection points: 2
#     Edge 54, Type (0, 0), BuildingBlock: MIFKUJ_clean_linker_0, # of connection points: 2
#     Edge 55, Type (0, 0), BuildingBlock: MIFKUJ_clean_linker_0, # of connection points: 2
#     Edge 56, Type (0, 0), BuildingBlock: MIFKUJ_clean_linker_0, # of connection points: 2
#     Edge 57, Type (0, 0), BuildingBlock: MIFKUJ_clean_linker_0, # of connection points: 2
#     Edge 58, Type (0, 0), BuildingBlock: MIFKUJ_clean_linker_0, # of connection points: 2
#     Edge 59, Type (0, 0), BuildingBlock: MIFKUJ_clean_linker_0, # of connection points: 2
#     Edge 60, Type (0, 0), BuildingBlock: MIFKUJ_clean_linker_0, # of connection points: 2
#     Edge 61, Type (0, 0), BuildingBlock: MIFKUJ_clean_linker_0, # of connection points: 2
#     Edge 62, Type (0, 0), BuildingBlock: MIFKUJ_clean_linker_0, # of connection points: 2
#     Edge 63, Type (0, 0), BuildingBlock: MIFKUJ_clean_linker_0, # of connection points: 2
# Relax obj value: 0.197
# Max RMSD: 0.188
# Mean RMSD: 0.188
data_MOF--net-why--node1-CUKXOW_clean_sbu_0--edge1-MIFKUJ_clean_linker_0
_symmetry_space_group_name_H-M    P1
_symmetry_Int_Tables_number       1
_symmetry_cell_setting            triclinic
loop_
_symmetry_equiv_pos_as_xyz
'x, y, z'
_cell_length_a     65.113152
_cell_length_b     65.160376
_cell_length_c     32.335507
_cell_angle_alpha  90.000971
_cell_angle_beta   89.88729
_cell_angle_gamma 90.045195
loop_
_atom_site_label
_atom_site_type_symbol
_atom_site_fract_x
_atom_site_fract_y
_atom_site_fract_z
_atom_type_partial_charge
Tb0 Tb 0.36582 0.20202 0.07976 0.0
C1 C 0.34864 0.15902 0.10745 0.0
Tb2 Tb 0.32785 0.18505 0.03612 0.0
O3 O 0.35202 0.2175 0.13246 0.0
O4 O 0.33344 0.20296 0.08978 0.0
O5 O 0.36469 0.17152 0.10633 0.0
C6 C 0.29066 0.1756 1.00627 0.0
O7 O 0.33147 0.16254 0.08624 0.0
C8 C 0.36327 0.16943 0.01206 0.0
C9 C 0.34771 0.22708 1.00449 0.0
O10 O 0.30789 0.17417 0.9863 0.0
O11 O 0.29429 0.18282 0.04301 0.0
O12 O 0.34604 0.15941 0.01216 0.0
O13 O 0.35974 0.18782 0.02217 0.0
O14 O 0.33153 0.21453 1.00265 0.0
O15 O 0.36328 0.22402 0.02991 0.0
C16 C 0.40358 0.21347 0.09859 0.0
O17 O 0.38791 0.22555 0.0953 0.0
O18 O 0.39812 0.19463 0.09116 0.0
C19 C 0.33318 0.21364 0.12262 0.0
Tb20 Tb 0.5557 0.61538 0.33211 0.0
C21 C 0.59903 0.59886 0.35874 0.0
Tb22 Tb 0.57312 0.57714 0.2882 0.0
O23 O 0.54153 0.60103 0.38615 0.0
O24 O 0.55563 0.58315 0.34204 0.0
O25 O 0.58649 0.61484 0.35681 0.0
C26 C 0.58304 0.54017 0.25748 0.0
O27 O 0.59542 0.58129 0.33875 0.0
C28 C 0.58867 0.61253 0.26458 0.0
C29 C 0.53098 0.59708 0.25644 0.0
O30 O 0.58587 0.55768 0.23935 0.0
O31 O 0.57412 0.54336 0.29296 0.0
O32 O 0.5987 0.59533 0.26446 0.0
O33 O 0.57019 0.60905 0.27459 0.0
O34 O 0.54387 0.58117 0.25396 0.0
O35 O 0.53358 0.61241 0.28271 0.0
C36 C 0.5439 0.65292 0.35239 0.0
O37 O 0.53202 0.63703 0.34974 0.0
O38 O 0.56268 0.64782 0.34324 0.0
C39 C 0.54574 0.58234 0.37576 0.0
Tb40 Tb 0.14368 0.8079 0.58253 0.0
C41 C 0.16171 0.85065 0.60894 0.0
Tb42 Tb 0.18274 0.82381 0.53865 0.0
O43 O 0.15743 0.79346 0.63676 0.0
O44 O 0.17588 0.80693 0.5927 0.0
O45 O 0.14543 0.83848 0.60795 0.0
C46 C 0.22037 0.83263 0.50975 0.0
O47 O 0.17896 0.84677 0.58802 0.0
C48 C 0.14782 0.83992 0.51352 0.0
C49 C 0.16234 0.78131 0.50989 0.0
O50 O 0.20342 0.83348 0.4888 0.0
O51 O 0.21622 0.82622 0.54693 0.0
O52 O 0.16532 0.84946 0.51307 0.0
O53 O 0.15081 0.82153 0.52458 0.0
O54 O 0.17861 0.79377 0.50733 0.0
O55 O 0.14664 0.78477 0.535 0.0
C56 C 0.1054 0.79864 0.60253 0.0
O57 O 0.12101 0.78648 0.60609 0.0
O58 O 0.11118 0.81615 0.58718 0.0
C59 C 0.1763 0.79713 0.62653 0.0
Tb60 Tb 0.95389 0.39449 0.83495 0.0
C61 C 0.91129 0.41285 0.86121 0.0
Tb62 Tb 0.93875 0.43258 0.78875 0.0
O63 O 0.97316 0.40794 0.88262 0.0
O64 O 0.95812 0.42674 0.84038 0.0
O65 O 0.92391 0.39695 0.86337 0.0
C66 C 0.92354 0.46887 0.76477 0.0
O67 O 0.91472 0.42892 0.83657 0.0
C68 C 0.93096 0.39683 0.75377 0.0
C69 C 0.98071 0.41286 0.76101 0.0
O70 O 0.91583 0.45103 0.75639 0.0
O71 O 0.94007 0.46639 0.78676 0.0
O72 O 0.93456 0.41356 0.73315 0.0
O73 O 0.93068 0.40115 0.79168 0.0
O74 O 0.96893 0.42952 0.759 0.0
O75 O 0.97688 0.39735 0.78635 0.0
C76 C 0.96121 0.35495 0.84464 0.0
O77 O 0.96196 0.36476 0.80981 0.0
O78 O 0.95631 0.36741 0.87448 0.0
C79 C 0.96992 0.42684 0.8717 0.0
Tb80 Tb 0.68484 0.82191 0.98495 0.0
C81 C 0.66174 0.78263 0.02182 0.0
Tb82 Tb 0.64575 0.80574 0.94222 0.0
O83 O 0.66787 0.84896 1.00665 0.0
O84 O 0.65279 0.82118 0.99806 0.0
O85 O 0.67943 0.79303 0.02002 0.0
C86 C 0.6071 0.79821 0.92225 0.0
O87 O 0.64616 0.78652 0.99676 0.0
C88 C 0.67836 0.79183 0.90142 0.0
C89 C 0.66533 0.84732 0.91169 0.0
O90 O 0.6212 0.78441 0.92753 0.0
O91 O 0.61468 0.8164 0.92842 0.0
O92 O 0.65945 0.78788 0.89202 0.0
O93 O 0.67803 0.80313 0.9333 0.0
O94 O 0.64881 0.83549 0.91328 0.0
O95 O 0.68228 0.84363 0.9334 0.0
C96 C 0.72241 0.83026 0.01417 0.0
O97 O 0.70536 0.83168 0.0348 0.0
O98 O 0.71837 0.82357 0.97719 0.0
C99 C 0.65013 0.83988 1.00662 0.0
Tb100 Tb 0.43756 0.43248 0.73639 0.0
C101 C 0.47897 0.41344 0.77031 0.0
Tb102 Tb 0.4566 0.39274 0.69232 0.0
O103 O 0.42349 0.41588 0.78936 0.0
O104 O 0.43856 0.40074 0.74322 0.0
O105 O 0.46676 0.42991 0.77017 0.0
C106 C 0.47148 0.35582 0.67746 0.0
O107 O 0.47641 0.39733 0.74568 0.0
C108 C 0.46446 0.42648 0.64878 0.0
C109 C 0.41229 0.40683 0.66805 0.0
O110 O 0.48234 0.37236 0.68157 0.0
O111 O 0.45204 0.35999 0.68152 0.0
O112 O 0.46933 0.40799 0.63763 0.0
O113 O 0.45532 0.42489 0.68324 0.0
O114 O 0.42574 0.39153 0.66835 0.0
O115 O 0.41506 0.42465 0.68785 0.0
C116 C 0.42342 0.47006 0.75283 0.0
O117 O 0.41285 0.45321 0.75401 0.0
O118 O 0.44226 0.46587 0.74204 0.0
C119 C 0.42863 0.39776 0.77601 0.0
Tb120 Tb 0.82641 0.18926 0.48733 0.0
C121 C 0.84629 0.2315 0.51763 0.0
Tb122 Tb 0.86469 0.20566 0.44342 0.0
O123 O 0.84403 0.16417 0.51462 0.0
O124 O 0.8583 0.19196 0.50143 0.0
O125 O 0.8299 0.21919 0.51938 0.0
C126 C 0.90278 0.2162 0.42469 0.0
O127 O 0.862 0.22794 0.49266 0.0
C128 C 0.8323 0.21627 0.39892 0.0
C129 C 0.84821 0.16207 0.41871 0.0
O130 O 0.88749 0.22876 0.42835 0.0
O131 O 0.8967 0.19752 0.43156 0.0
O132 O 0.8512 0.22017 0.38934 0.0
O133 O 0.8324 0.20629 0.43264 0.0
O134 O 0.86411 0.17473 0.41949 0.0
O135 O 0.83077 0.16584 0.43899 0.0
C136 C 0.78915 0.1796 0.51684 0.0
O137 O 0.8062 0.17912 0.53741 0.0
O138 O 0.79293 0.18614 0.47961 0.0
C139 C 0.8615 0.17368 0.51278 0.0
Tb140 Tb 0.07403 0.57861 0.23446 0.0
C141 C 0.03276 0.59822 0.26539 0.0
Tb142 Tb 0.05767 0.61734 0.19084 0.0
O143 O 0.07783 0.59572 0.29244 0.0
O144 O 0.0803 0.61061 0.23602 0.0
O145 O 0.04329 0.58076 0.26252 0.0
C146 C 0.04668 0.65566 0.17379 0.0
O147 O 0.03794 0.61497 0.24481 0.0
C148 C 0.04491 0.58459 0.14942 0.0
C149 C 0.10031 0.60056 0.1617 0.0
O150 O 0.03425 0.64039 0.17917 0.0
O151 O 0.06549 0.64946 0.1781 0.0
O152 O 0.04142 0.60344 0.13888 0.0
O153 O 0.05575 0.58506 0.18192 0.0
O154 O 0.0867 0.61562 0.15906 0.0
O155 O 0.09787 0.58435 0.18666 0.0
C156 C 0.08919 0.54183 0.25593 0.0
O157 O 0.09793 0.55944 0.26215 0.0
O158 O 0.07178 0.54484 0.23718 0.0
C159 C 0.08003 0.61345 0.27459 0.0
Tb160 Tb 0.86746 0.70265 0.57988 0.0
C161 C 0.84932 0.66059 0.60833 0.0
Tb162 Tb 0.82849 0.68752 0.5365 0.0
O163 O 0.85442 0.72228 0.62794 0.0
O164 O 0.83531 0.70711 0.58709 0.0
O165 O 0.86579 0.67251 0.60703 0.0
C166 C 0.79175 0.67244 0.5147 0.0
O167 O 0.83243 0.66446 0.5863 0.0
C168 C 0.86354 0.67921 0.49869 0.0
C169 C 0.84935 0.72801 0.50416 0.0
O170 O 0.79477 0.69015 0.53231 0.0
O171 O 0.8093 0.66345 0.50964 0.0
O172 O 0.84629 0.68239 0.47962 0.0
O173 O 0.86007 0.67933 0.53702 0.0
O174 O 0.8317 0.71766 0.50594 0.0
O175 O 0.86519 0.72336 0.52783 0.0
C176 C 0.90673 0.71187 0.58919 0.0
O177 O 0.8962 0.7144 0.55566 0.0
O178 O 0.89522 0.70386 0.61786 0.0
C179 C 0.8354 0.71899 0.61815 0.0
Tb180 Tb 0.05574 0.11702 0.83212 0.0
C181 C 0.0983 0.09863 0.85871 0.0
Tb182 Tb 0.07111 0.07866 0.78645 0.0
O183 O 0.03615 0.10334 0.87942 0.0
O184 O 0.05161 0.08479 0.83759 0.0
O185 O 0.08561 0.11449 0.86069 0.0
C186 C 0.08613 0.04225 0.76266 0.0
O187 O 0.09503 0.0825 0.8342 0.0
C188 C 0.07889 0.1142 0.75047 0.0
C189 C 0.02913 0.09845 0.75862 0.0
O190 O 0.09372 0.06005 0.75349 0.0
O191 O 0.06984 0.04482 0.78547 0.0
O192 O 0.07553 0.09722 0.73054 0.0
O193 O 0.07904 0.11025 0.78864 0.0
O194 O 0.04083 0.08169 0.75713 0.0
O195 O 0.03301 0.11417 0.78335 0.0
C196 C 0.04842 0.15641 0.84485 0.0
O197 O 0.04948 0.14763 0.80892 0.0
O198 O 0.0515 0.143 0.8739 0.0
C199 C 0.03967 0.08447 0.86869 0.0
Tb200 Tb 0.6439 0.30415 0.07538 0.0
C201 C 0.65938 0.34756 0.10436 0.0
Tb202 Tb 0.68246 0.32234 0.03442 0.0
O203 O 0.65769 0.28784 0.12726 0.0
O204 O 0.67618 0.30341 0.08624 0.0
O205 O 0.64373 0.33461 0.10188 0.0
C206 C 0.71989 0.33239 1.00659 0.0
O207 O 0.67717 0.3445 0.08475 0.0
C208 C 0.64718 0.33809 1.00997 0.0
C209 C 0.66218 0.28189 0.99682 0.0
O210 O 0.70316 0.33225 0.98492 0.0
O211 O 0.71566 0.32641 0.04403 0.0
O212 O 0.66444 0.34809 1.01002 0.0
O213 O 0.65078 0.31969 0.01966 0.0
O214 O 0.67934 0.29302 0.99982 0.0
O215 O 0.64592 0.2853 0.02041 0.0
C216 C 0.60644 0.29159 0.09325 0.0
O217 O 0.62197 0.27973 0.08577 0.0
O218 O 0.61189 0.31075 0.09049 0.0
C219 C 0.67651 0.29244 0.11859 0.0
Tb220 Tb 0.45575 0.89253 0.32871 0.0
C221 C 0.41295 0.90972 0.35758 0.0
Tb222 Tb 0.43862 0.93095 0.28598 0.0
O223 O 0.47257 0.90648 0.37973 0.0
O224 O 0.45734 0.92491 0.33821 0.0
O225 O 0.42536 0.89365 0.35588 0.0
C226 C 0.42863 0.96814 0.25673 0.0
O227 O 0.41648 0.92706 0.33686 0.0
C228 C 0.4218 0.8958 0.26369 0.0
C229 C 0.47872 0.90931 0.24912 0.0
O230 O 0.42764 0.95101 0.23642 0.0
O231 O 0.43587 0.96445 0.29345 0.0
O232 O 0.41221 0.91325 0.26375 0.0
O233 O 0.44039 0.899 0.27252 0.0
O234 O 0.46773 0.92663 0.25083 0.0
O235 O 0.47507 0.89364 0.27415 0.0
C236 C 0.46694 0.85485 0.34897 0.0
O237 O 0.47933 0.86972 0.3397 0.0
O238 O 0.448 0.86105 0.34646 0.0
C239 C 0.46839 0.9253 0.37044 0.0
Tb240 Tb 0.18241 0.32273 0.48318 0.0
C241 C 0.16356 0.28067 0.51698 0.0
Tb242 Tb 0.14407 0.30504 0.44242 0.0
O243 O 0.16446 0.34837 0.50761 0.0
O244 O 0.15073 0.31979 0.49924 0.0
O245 O 0.17966 0.29334 0.51722 0.0
C246 C 0.1062 0.29298 0.42621 0.0
O247 O 0.14749 0.28349 0.49278 0.0
C248 C 0.17622 0.29356 0.39783 0.0
C249 C 0.16013 0.34813 0.41291 0.0
O250 O 0.12192 0.28104 0.43035 0.0
O251 O 0.11167 0.31202 0.43123 0.0
O252 O 0.15729 0.2894 0.3892 0.0
O253 O 0.17626 0.30442 0.4304 0.0
O254 O 0.14424 0.3355 0.41573 0.0
O255 O 0.17778 0.3448 0.43261 0.0
C256 C 0.21982 0.3326 0.51124 0.0
O257 O 0.21583 0.32559 0.47449 0.0
O258 O 0.20285 0.33361 0.53215 0.0
C259 C 0.1473 0.33826 0.50905 0.0
Tb260 Tb 0.93644 0.93321 0.23674 0.0
C261 C 0.9759 0.91192 0.27643 0.0
Tb262 Tb 0.9552 0.8954 0.19453 0.0
O263 O 0.90983 0.91501 0.25601 0.0
O264 O 0.93845 0.90116 0.24978 0.0
O265 O 0.96484 0.92914 0.274 0.0
C266 C 0.96829 0.8583 0.17416 0.0
O267 O 0.97294 0.89623 0.25114 0.0
C268 C 0.96816 0.9288 0.15501 0.0
C269 C 0.91289 0.91221 0.16246 0.0
O270 O 0.97984 0.87372 0.18407 0.0
O271 O 0.94904 0.86362 0.17602 0.0
O272 O 0.97311 0.91018 0.14562 0.0
O273 O 0.95634 0.92783 0.18609 0.0
O274 O 0.92544 0.89625 0.16481 0.0
O275 O 0.91578 0.9295 0.18369 0.0
C276 C 0.92538 0.96994 0.26676 0.0
O277 O 0.92331 0.95248 0.28549 0.0
O278 O 0.93426 0.96687 0.23123 0.0
C279 C 0.91968 0.89772 0.25691 0.0
Tb280 Tb 0.32956 0.68809 0.97982 0.0
C281 C 0.3503 0.72676 0.01899 0.0
Tb282 Tb 0.36796 0.70622 0.93807 0.0
O283 O 0.34662 0.68169 0.03673 0.0
O284 O 0.36169 0.68181 0.98005 0.0
O285 O 0.33224 0.7176 0.01303 0.0
C286 C 0.4047 0.72187 0.9224 0.0
O287 O 0.36667 0.72197 0.99686 0.0
C288 C 0.33483 0.71951 0.89821 0.0
C289 C 0.35249 0.664 0.90542 0.0
O290 O 0.3892 0.73181 0.93736 0.0
O291 O 0.39974 0.70275 0.91653 0.0
O292 O 0.3536 0.7235 0.88789 0.0
O293 O 0.33567 0.70812 0.92984 0.0
O294 O 0.36787 0.67734 0.90595 0.0
O295 O 0.3356 0.66614 0.92872 0.0
C296 C 0.29286 0.6719 0.99911 0.0
O297 O 0.31051 0.66296 1.00319 0.0
O298 O 0.29577 0.69014 0.98376 0.0
C299 C 0.36439 0.68035 0.01859 0.0
Tb300 Tb 0.57334 0.07405 0.73701 0.0
C301 C 0.53094 0.09274 0.76954 0.0
Tb302 Tb 0.55631 0.11303 0.69689 0.0
O303 O 0.59882 0.09172 0.76305 0.0
O304 O 0.57038 0.10552 0.75379 0.0
O305 O 0.54369 0.07673 0.77012 0.0
C306 C 0.54745 0.15206 0.68409 0.0
O307 O 0.53383 0.10893 0.74557 0.0
C308 C 0.54517 0.08146 0.65062 0.0
C309 C 0.59955 0.09653 0.66828 0.0
O310 O 0.53417 0.13726 0.68599 0.0
O311 O 0.56589 0.14491 0.68893 0.0
O312 O 0.54103 0.1005 0.64262 0.0
O313 O 0.55562 0.08102 0.68373 0.0
O314 O 0.58689 0.11238 0.67043 0.0
O315 O 0.59613 0.07889 0.6879 0.0
C316 C 0.58297 0.03658 0.76488 0.0
O317 O 0.57626 0.04068 0.72795 0.0
O318 O 0.58375 0.05345 0.78604 0.0
C319 C 0.58872 0.10885 0.76452 0.0
H320 H 0.43891 0.19094 0.10092 0.0
H321 H 0.47398 0.20446 0.10815 0.0
H322 H 0.44974 0.26579 0.12057 0.0
H323 H 0.41494 0.25249 0.11346 0.0
H324 H 0.47969 0.26204 0.05996 0.0
H325 H 0.46844 0.24359 0.20259 0.0
H326 H 0.45943 0.22015 0.25968 0.0
H327 H 0.50942 0.1805 0.22621 0.0
H328 H 0.51855 0.20358 0.16852 0.0
H329 H 0.57176 0.31419 0.10477 0.0
H330 H 0.53679 0.3009 0.11395 0.0
H331 H 0.55999 0.23888 0.10914 0.0
H332 H 0.59482 0.25202 0.10059 0.0
H333 H 0.53042 0.24328 0.1679 0.0
H334 H 0.54053 0.25927 0.02386 0.0
H335 H 0.55035 0.28168 0.96561 0.0
H336 H 0.50307 0.32442 0.99962 0.0
H337 H 0.4931 0.30231 0.05829 0.0
C338 C 0.44116 0.20724 0.10576 0.0
C339 C 0.42442 0.22074 0.10649 0.0
C340 C 0.46107 0.21491 0.10993 0.0
C341 C 0.46426 0.23607 0.11486 0.0
C342 C 0.44747 0.24942 0.11668 0.0
C343 C 0.42767 0.2418 0.11268 0.0
C344 C 0.48511 0.24461 0.11559 0.0
C345 C 0.49072 0.25818 0.08386 0.0
C346 C 0.49948 0.23907 0.14624 0.0
C347 C 0.49405 0.22521 0.18098 0.0
C348 C 0.4774 0.22978 0.20718 0.0
C349 C 0.47229 0.21658 0.23969 0.0
C350 C 0.48381 0.19882 0.2465 0.0
C351 C 0.50049 0.19425 0.22086 0.0
C352 C 0.50565 0.2074 0.18828 0.0
C353 C 0.56933 0.29775 0.10619 0.0
C354 C 0.58576 0.28407 0.10171 0.0
C355 C 0.54946 0.2902 0.11136 0.0
C356 C 0.54594 0.26895 0.11178 0.0
C357 C 0.56249 0.25532 0.10897 0.0
C358 C 0.5823 0.26284 0.10386 0.0
C359 C 0.52493 0.2608 0.11247 0.0
C360 C 0.51933 0.24723 0.14421 0.0
C361 C 0.51059 0.26614 0.08156 0.0
C362 C 0.51622 0.27924 0.04571 0.0
C363 C 0.53231 0.2735 0.01902 0.0
C364 C 0.53787 0.28613 0.98588 0.0
C365 C 0.52735 0.3045 0.97892 0.0
C366 C 0.51118 0.31019 1.00498 0.0
C367 C 0.50555 0.2976 0.03816 0.0
H368 H 0.53171 0.3143 0.95333 0.0
H369 H 0.47983 0.18862 0.27169 0.0
H370 H 0.50574 0.66314 0.3774 0.0
H371 H 0.49205 0.69751 0.38862 0.0
H372 H 0.55149 0.72354 0.36104 0.0
H373 H 0.56544 0.68891 0.35019 0.0
H374 H 0.53097 0.74312 0.42699 0.0
H375 H 0.51784 0.72233 0.28642 0.0
H376 H 0.50546 0.69858 0.23253 0.0
H377 H 0.44459 0.70136 0.28355 0.0
H378 H 0.45661 0.72514 0.3377 0.0
H379 H 0.50599 0.84109 0.35021 0.0
H380 H 0.51775 0.80632 0.36443 0.0
H381 H 0.45535 0.78739 0.38851 0.0
H382 H 0.44329 0.82227 0.37278 0.0
H383 H 0.47509 0.76333 0.331 0.0
H384 H 0.48836 0.78873 0.46653 0.0
H385 H 0.50168 0.81277 0.51888 0.0
H386 H 0.56324 0.80205 0.47628 0.0
H387 H 0.55027 0.77816 0.42324 0.0
C388 C 0.51595 0.67617 0.37417 0.0
C389 C 0.53655 0.67353 0.36254 0.0
C390 C 0.50812 0.69575 0.38061 0.0
C391 C 0.52072 0.71295 0.37511 0.0
C392 C 0.54158 0.71035 0.36537 0.0
C393 C 0.54948 0.69067 0.35904 0.0
C394 C 0.51166 0.73362 0.37653 0.0
C395 C 0.51887 0.74768 0.40588 0.0
C396 C 0.49555 0.73921 0.34952 0.0
C397 C 0.48817 0.72532 0.31636 0.0
C398 C 0.50183 0.71781 0.28621 0.0
C399 C 0.49487 0.7044 0.25554 0.0
C400 C 0.47426 0.69845 0.25459 0.0
C401 C 0.46053 0.70603 0.28417 0.0
C402 C 0.4674 0.7195 0.31482 0.0
C403 C 0.49477 0.82955 0.35878 0.0
C404 C 0.47374 0.83418 0.36009 0.0
C405 C 0.50153 0.80977 0.36725 0.0
C406 C 0.48739 0.7944 0.37762 0.0
C407 C 0.46641 0.79913 0.38025 0.0
C408 C 0.45957 0.81895 0.37137 0.0
C409 C 0.49447 0.77303 0.38132 0.0
C410 C 0.48695 0.75877 0.35268 0.0
C411 C 0.51041 0.7674 0.40874 0.0
C412 C 0.51831 0.78174 0.44069 0.0
C413 C 0.50472 0.79162 0.46809 0.0
C414 C 0.51222 0.8052 0.49794 0.0
C415 C 0.53329 0.80896 0.50086 0.0
C416 C 0.54692 0.79912 0.47398 0.0
C417 C 0.5395 0.78553 0.44405 0.0
H418 H 0.53907 0.81948 0.524 0.0
H419 H 0.46895 0.68798 0.23095 0.0
H420 H 0.07037 0.81446 0.57014 0.0
H421 H 0.0357 0.80026 0.57768 0.0
H422 H 0.0587 0.75489 0.66312 0.0
H423 H 0.0934 0.7685 0.65427 0.0
H424 H 0.03759 0.73723 0.60515 0.0
H425 H 0.02635 0.79468 0.69465 0.0
H426 H 0.0265 0.83108 0.7155 0.0
H427 H 0.98586 0.84574 0.61537 0.0
H428 H 0.98568 0.80948 0.59355 0.0
H429 H 0.93331 0.70337 0.65206 0.0
H430 H 0.96761 0.71847 0.66222 0.0
H431 H 0.96047 0.75362 0.55014 0.0
H432 H 0.92672 0.73823 0.53912 0.0
H433 H 0.97299 0.77569 0.62988 0.0
H434 H 0.98883 0.72008 0.53494 0.0
H435 H 0.98864 0.68394 0.51226 0.0
H436 H 0.02067 0.66641 0.6227 0.0
H437 H 0.02078 0.70246 0.64628 0.0
C438 C 0.06783 0.80178 0.5912 0.0
C439 C 0.08432 0.79248 0.61162 0.0
C440 C 0.04809 0.79374 0.59563 0.0
C441 C 0.04464 0.77665 0.62126 0.0
C442 C 0.06106 0.76805 0.64318 0.0
C443 C 0.0808 0.77583 0.63817 0.0
C444 C 0.0244 0.7665 0.62196 0.0
C445 C 0.02352 0.74558 0.61153 0.0
C446 C 0.00603 0.7775 0.62928 0.0
C447 C 0.00608 0.79935 0.64236 0.0
C448 C 0.01754 0.80568 0.67692 0.0
C449 C 0.0176 0.82629 0.68896 0.0
C450 C 0.00616 0.8407 0.66683 0.0
C451 C 0.99465 0.83454 0.63259 0.0
C452 C 0.99455 0.81396 0.6204 0.0
C453 C 0.93923 0.71418 0.62953 0.0
C454 C 0.92758 0.71967 0.59483 0.0
C455 C 0.95866 0.72277 0.63538 0.0
C456 C 0.96627 0.73716 0.60698 0.0
C457 C 0.95465 0.74259 0.57234 0.0
C458 C 0.93551 0.73371 0.56603 0.0
C459 C 0.98642 0.74669 0.61307 0.0
C460 C 0.9872 0.76741 0.62449 0.0
C461 C 1.00469 0.73558 0.60661 0.0
C462 C 1.00453 0.7139 0.59266 0.0
C463 C 0.9956 0.70848 0.55462 0.0
C464 C 0.99557 0.68803 0.54153 0.0
C465 C 1.00456 0.67287 0.56611 0.0
C466 C 0.01365 0.67816 0.60376 0.0
C467 C 0.01372 0.6986 0.61699 0.0
H468 H 1.00453 0.65705 0.55591 0.0
H469 H 0.00626 0.85665 0.67616 0.0
H470 H 0.97558 0.32999 0.78497 0.0
H471 H 0.98792 0.29499 0.79265 0.0
H472 H 0.97178 0.29611 0.92225 0.0
H473 H 0.95994 0.33172 0.91483 0.0
H474 H 0.00956 0.28159 0.91086 0.0
H475 H 0.94366 0.2674 0.85224 0.0
H476 H 0.91526 0.27172 0.80265 0.0
H477 H 0.95494 0.25364 0.70296 0.0
H478 H 0.98367 0.24947 0.75183 0.0
H479 H 0.03543 0.17395 0.91667 0.0
H480 H 0.0188 0.2075 0.92398 0.0
H481 H 0.02955 0.21965 0.79445 0.0
H482 H 0.04568 0.18605 0.78686 0.0
H483 H 0.9902 0.22545 0.81489 0.0
H484 H 0.05659 0.24419 0.86998 0.0
H485 H 0.08604 0.24108 0.91739 0.0
H486 H 0.04627 0.25148 0.02137 0.0
H487 H 0.01651 0.25437 0.97457 0.0
C488 C 0.97446 0.3227 0.81499 0.0
C489 C 0.96686 0.33339 0.84934 0.0
C490 C 0.98139 0.30268 0.8193 0.0
C491 C 0.98043 0.29289 0.85787 0.0
C492 C 0.97251 0.30344 0.8922 0.0
C493 C 0.96574 0.32365 0.88795 0.0
C494 C 0.98897 0.27209 0.86232 0.0
C495 C 1.00502 0.26912 0.89059 0.0
C496 C 0.98324 0.25606 0.83521 0.0
C497 C 0.96584 0.25813 0.80578 0.0
C498 C 0.94635 0.26439 0.81974 0.0
C499 C 0.93019 0.2668 0.79175 0.0
C500 C 0.93327 0.26288 0.74972 0.0
C501 C 0.95254 0.25655 0.73557 0.0
C502 C 0.96876 0.25413 0.76342 0.0
C503 C 0.03454 0.184 0.89004 0.0
C504 C 0.04162 0.17754 0.85117 0.0
C505 C 0.02507 0.20309 0.89423 0.0
C506 C 0.02289 0.21592 0.85967 0.0
C507 C 0.03093 0.20983 0.82134 0.0
C508 C 0.04021 0.19074 0.81709 0.0
C509 C 0.0112 0.23521 0.86246 0.0
C510 C 0.99448 0.2378 0.83568 0.0
C511 C 0.0164 0.2509 0.89071 0.0
C512 C 0.03429 0.24924 0.91882 0.0
C513 C 0.05409 0.24563 0.90298 0.0
C514 C 0.07085 0.24395 0.92974 0.0
C515 C 0.06802 0.24602 0.97238 0.0
C516 C 0.04843 0.24984 0.98834 0.0
C517 C 0.03162 0.25151 0.96172 0.0
H518 H 0.08101 0.24471 0.99304 0.0
H519 H 0.92076 0.26482 0.72808 0.0
H520 H 0.59137 0.76109 0.90319 0.0
H521 H 0.55542 0.75232 0.89208 0.0
H522 H 0.53849 0.81586 0.90835 0.0
H523 H 0.57473 0.82475 0.9198 0.0
H524 H 0.51611 0.78975 0.95678 0.0
H525 H 0.53394 0.79474 0.81453 0.0
H526 H 0.55474 0.78892 0.75183 0.0
H527 H 0.54441 0.72401 0.76164 0.0
H528 H 0.52379 0.7294 0.82475 0.0
H529 H 0.41316 0.76236 0.92199 0.0
H530 H 0.44643 0.77875 0.91149 0.0
H531 H 0.47443 0.71938 0.8935 0.0
H532 H 0.44081 0.70283 0.90291 0.0
H533 H 0.48951 0.74814 0.83992 0.0
H534 H 0.4766 0.74272 0.9869 0.0
H535 H 0.45611 0.74779 0.05033 0.0
H536 H 0.45771 0.81303 0.03195 0.0
H537 H 0.47812 0.80834 0.96824 0.0
C538 C 0.58002 0.77323 0.90389 0.0
C539 C 0.58567 0.79355 0.91243 0.0
C540 C 0.55953 0.76823 0.89724 0.0
C541 C 0.5444 0.7835 0.89891 0.0
C542 C 0.55004 0.80393 0.90668 0.0
C543 C 0.57064 0.80897 0.91318 0.0
C544 C 0.52262 0.77752 0.89623 0.0
C545 C 0.5101 0.7811 0.93079 0.0
C546 C 0.51507 0.76581 0.86269 0.0
C547 C 0.52739 0.76248 0.82456 0.0
C548 C 0.53622 0.77921 0.8035 0.0
C549 C 0.54796 0.77599 0.76785 0.0
C550 C 0.55091 0.75611 0.75279 0.0
C551 C 0.5421 0.73941 0.77333 0.0
C552 C 0.53035 0.74254 0.80901 0.0
C553 C 0.42639 0.7528 0.91548 0.0
C554 C 0.42461 0.73136 0.91365 0.0
C555 C 0.44534 0.76219 0.90953 0.0
C556 C 0.46286 0.75023 0.90243 0.0
C557 C 0.46101 0.72882 0.89906 0.0
C558 C 0.44192 0.7194 0.90458 0.0
C559 C 0.48324 0.76003 0.90077 0.0
C560 C 0.49544 0.75713 0.8655 0.0
C561 C 0.49057 0.77228 0.93375 0.0
C562 C 0.47869 0.77516 0.97256 0.0
C563 C 0.4725 0.75814 0.99629 0.0
C564 C 0.46094 0.76095 0.03232 0.0
C565 C 0.45558 0.78072 0.04512 0.0
C566 C 0.46188 0.79773 0.022 0.0
C567 C 0.47347 0.79501 0.98596 0.0
H568 H 0.44659 0.78287 0.07297 0.0
H569 H 0.56001 0.75365 0.72519 0.0
H570 H 0.51151 0.34642 0.66589 0.0
H571 H 0.52684 0.31221 0.66432 0.0
H572 H 0.46671 0.28506 0.67783 0.0
H573 H 0.45125 0.31934 0.67955 0.0
H574 H 0.49524 0.27064 0.73407 0.0
H575 H 0.49033 0.28259 0.58721 0.0
H576 H 0.49604 0.30182 0.52252 0.0
H577 H 0.56128 0.29769 0.53979 0.0
H578 H 0.55594 0.27868 0.60493 0.0
H579 H 0.5092 0.16776 0.6815 0.0
H580 H 0.49953 0.20392 0.68031 0.0
H581 H 0.56347 0.22131 0.67816 0.0
H582 H 0.57336 0.1849 0.67979 0.0
H583 H 0.537 0.242 0.61918 0.0
H584 H 0.54207 0.22773 0.76303 0.0
H585 H 0.53662 0.20921 0.82859 0.0
H586 H 0.47151 0.21803 0.81793 0.0
H587 H 0.47652 0.23629 0.75186 0.0
C588 C 0.50156 0.33313 0.66796 0.0
C589 C 0.48025 0.33534 0.67278 0.0
C590 C 0.51032 0.31367 0.66694 0.0
C591 C 0.49785 0.29626 0.67077 0.0
C592 C 0.4765 0.29843 0.67483 0.0
C593 C 0.46772 0.31791 0.67564 0.0
C594 C 0.50717 0.27578 0.67275 0.0
C595 C 0.50417 0.26423 0.7088 0.0
C596 C 0.5195 0.26799 0.64035 0.0
C597 C 0.52273 0.27941 0.60119 0.0
C598 C 0.50589 0.28595 0.57742 0.0
C599 C 0.50906 0.29677 0.54062 0.0
C600 C 0.52901 0.30103 0.52712 0.0
C601 C 0.54583 0.29442 0.55033 0.0
C602 C 0.54274 0.2836 0.58717 0.0
C603 C 0.5212 0.17928 0.68063 0.0
C604 C 0.54199 0.17372 0.6808 0.0
C605 C 0.51566 0.19985 0.68014 0.0
C606 C 0.53083 0.21508 0.67969 0.0
C607 C 0.55164 0.20962 0.67872 0.0
C608 C 0.55722 0.18895 0.6796 0.0
C609 C 0.52458 0.23668 0.68003 0.0
C610 C 0.52822 0.24848 0.64456 0.0
C611 C 0.51284 0.24474 0.71301 0.0
C612 C 0.50968 0.23329 0.75227 0.0
C613 C 0.52656 0.22553 0.77438 0.0
C614 C 0.52356 0.21515 0.81175 0.0
C615 C 0.50374 0.21254 0.82751 0.0
C616 C 0.48687 0.22019 0.80581 0.0
C617 C 0.48978 0.23053 0.76836 0.0
H618 H 0.50144 0.20448 0.85642 0.0
H619 H 0.53143 0.3094 0.49861 0.0
H620 H 0.91569 0.25455 0.40722 0.0
H621 H 0.951 0.26633 0.39962 0.0
H622 H 0.97274 0.20432 0.41686 0.0
H623 H 0.9372 0.19245 0.42528 0.0
H624 H 0.99222 0.23088 0.46574 0.0
H625 H 0.97574 0.22748 0.32216 0.0
H626 H 0.9552 0.23366 0.25943 0.0
H627 H 0.9626 0.29869 0.27474 0.0
H628 H 0.98296 0.29293 0.33793 0.0
H629 H 0.09467 0.25351 0.41829 0.0
H630 H 0.05987 0.24016 0.41167 0.0
H631 H 0.03594 0.3019 0.41201 0.0
H632 H 0.07103 0.31551 0.41881 0.0
H633 H 0.01829 0.27453 0.3513 0.0
H634 H 0.03287 0.278 0.49665 0.0
H635 H 0.05298 0.27204 0.56 0.0
H636 H 0.04857 0.20692 0.54163 0.0
H637 H 0.0286 0.2125 0.47784 0.0
C638 C 0.928 0.24339 0.40886 0.0
C639 C 0.92389 0.22263 0.41671 0.0
C640 C 0.94811 0.25011 0.40423 0.0
C641 C 0.96438 0.23612 0.40702 0.0
C642 C 0.9603 0.21527 0.41423 0.0
C643 C 0.9401 0.20853 0.41894 0.0
C644 C 0.98564 0.24372 0.4058 0.0
C645 C 0.99805 0.24009 0.44038 0.0
C646 C 0.99292 0.25622 0.37313 0.0
C647 C 0.98076 0.25976 0.33499 0.0
C648 C 0.97286 0.2431 0.31234 0.0
C649 C 0.96127 0.24653 0.27666 0.0
C650 C 0.95756 0.26655 0.26315 0.0
C651 C 0.96548 0.28319 0.28525 0.0
C652 C 0.97707 0.27985 0.32097 0.0
C653 C 0.08202 0.26427 0.41665 0.0
C654 C 0.08535 0.2855 0.4193 0.0
C655 C 0.06222 0.25662 0.4129 0.0
C656 C 0.04552 0.27009 0.4118 0.0
C657 C 0.04879 0.29136 0.41289 0.0
C658 C 0.0687 0.29907 0.41686 0.0
C659 C 0.02463 0.2617 0.41127 0.0
C660 C 0.01238 0.26521 0.37647 0.0
C661 C 0.01742 0.2491 0.44377 0.0
C662 C 0.02947 0.24568 0.48212 0.0
C663 C 0.03638 0.26241 0.50584 0.0
C664 C 0.04772 0.2591 0.5419 0.0
C665 C 0.05216 0.23911 0.55472 0.0
C666 C 0.04518 0.2224 0.53159 0.0
C667 C 0.03383 0.22562 0.4955 0.0
H668 H 0.06091 0.23658 0.58267 0.0
H669 H 0.94858 0.26918 0.23553 0.0
H670 H 0.00837 0.66816 0.1543 0.0
H671 H 0.99643 0.70333 0.1445 0.0
H672 H 0.05793 0.7258 0.16525 0.0
H673 H 0.07 0.69044 0.17519 0.0
H674 H 0.02873 0.74485 0.2132 0.0
H675 H 0.03805 0.72811 0.07026 0.0
H676 H 0.03413 0.70733 1.00706 0.0
H677 H 0.96869 0.71491 0.01273 0.0
H678 H 0.97218 0.7355 0.07635 0.0
H679 H 0.0081 0.84719 0.17145 0.0
H680 H 0.02203 0.81286 0.16159 0.0
H681 H 0.96083 0.78903 0.144 0.0
H682 H 0.94661 0.82364 0.15434 0.0
H683 H 0.99045 0.77102 0.09161 0.0
H684 H 0.98052 0.7856 0.23519 0.0
H685 H 0.98337 0.80584 0.29932 0.0
H686 H 0.04911 0.80104 0.29404 0.0
H687 H 0.04661 0.78102 0.22945 0.0
C688 C 0.01938 0.6806 0.15631 0.0
C689 C 0.04008 0.67673 0.16542 0.0
C690 C 0.01257 0.70062 0.15044 0.0
C691 C 0.02636 0.71706 0.15365 0.0
C692 C 0.04713 0.71322 0.1623 0.0
C693 C 0.05399 0.69312 0.16792 0.0
C694 C 0.01863 0.73828 0.15125 0.0
C695 C 0.02077 0.75071 0.1863 0.0
C696 C 0.00754 0.74555 0.11664 0.0
C697 C 0.00538 0.73322 0.0783 0.0
C698 C 0.02281 0.72521 0.05824 0.0
C699 C 0.02066 0.71349 0.02229 0.0
C700 C 1.00117 0.70977 1.00594 0.0
C701 C 0.98378 0.7178 0.02545 0.0
C702 C 0.98584 0.72951 0.06143 0.0
C703 C 0.99759 0.83468 0.16516 0.0
C704 C 0.97629 0.83788 0.16428 0.0
C705 C 0.00558 0.81513 0.15945 0.0
C706 C 0.99239 0.79847 0.15295 0.0
C707 C 0.97116 0.80177 0.14947 0.0
C708 C 0.96309 0.82143 0.15547 0.0
C709 C 1.00079 0.7775 0.15345 0.0
C710 C 0.99865 0.76513 0.11827 0.0
C711 C 0.01177 0.77014 0.18812 0.0
C712 C 0.01336 0.78203 0.22718 0.0
C713 C 0.99557 0.78902 0.24751 0.0
C714 C 0.99713 0.80043 0.28397 0.0
C715 C 0.01642 0.8048 0.30067 0.0
C716 C 0.03418 0.79769 0.28101 0.0
C717 C 0.03269 0.7863 0.24447 0.0
H718 H 0.01761 0.81365 0.3289 0.0
H719 H 0.99954 0.70069 0.9781 0.0
H720 H 0.10555 0.12018 0.92903 0.0
H721 H 0.13882 0.13069 0.95634 0.0
H722 H 0.16939 0.09394 0.86396 0.0
H723 H 0.13591 0.08295 0.83689 0.0
H724 H 0.19079 0.09401 0.93639 0.0
H725 H 0.16212 0.14378 0.84605 0.0
H726 H 0.13509 0.16643 0.81855 0.0
H727 H 0.13394 0.1999 0.93293 0.0
H728 H 0.16075 0.17721 0.9614 0.0
H729 H 0.28368 0.15286 0.93723 0.0
H730 H 0.25116 0.13777 0.91437 0.0
H731 H 0.22006 0.16564 0.01792 0.0
H732 H 0.25273 0.18052 0.04145 0.0
H733 H 0.19962 0.16972 0.9378 0.0
H734 H 0.23007 0.11803 0.02595 0.0
H735 H 0.25794 0.09497 0.04826 0.0
H736 H 0.25725 0.06523 0.92976 0.0
H737 H 0.22957 0.08834 0.90653 0.0
C738 C 0.11934 0.11392 0.91511 0.0
C739 C 0.11813 0.10088 0.88057 0.0
C740 C 0.13836 0.12004 0.93063 0.0
C741 C 0.1566 0.11356 0.9115 0.0
C742 C 0.1555 0.09925 0.87902 0.0
C743 C 0.13637 0.09292 0.86368 0.0
C744 C 0.17652 0.12309 0.92337 0.0
C745 C 0.19279 0.11054 0.93625 0.0
C746 C 0.17917 0.1447 0.92322 0.0
C747 C 0.16332 0.15867 0.906 0.0
C748 C 0.15602 0.15589 0.86545 0.0
C749 C 0.14074 0.16874 0.84967 0.0
C750 C 0.13276 0.18456 0.87401 0.0
C751 C 0.14011 0.18762 0.91413 0.0
C752 C 0.15537 0.17477 0.9301 0.0
C753 C 0.26989 0.15589 0.95499 0.0
C754 C 0.2707 0.16785 0.99113 0.0
C755 C 0.25136 0.14719 0.94197 0.0
C756 C 0.23325 0.15047 0.96461 0.0
C757 C 0.23389 0.16291 1.00007 0.0
C758 C 0.25252 0.17138 0.01347 0.0
C759 C 0.21372 0.14065 0.95149 0.0
C760 C 0.19757 0.15319 0.93807 0.0
C761 C 0.21137 0.11905 0.95031 0.0
C762 C 0.22789 0.10505 0.96437 0.0
C763 C 0.23598 0.10669 1.00453 0.0
C764 C 0.25172 0.09359 0.01737 0.0
C765 C 0.2594 0.07868 0.99041 0.0
C766 C 0.25131 0.07681 0.95059 0.0
C767 C 0.23558 0.08989 0.93759 0.0
H768 H 0.27159 0.06855 1.0004 0.0
H769 H 0.12092 0.19449 0.86176 0.0
H770 H 0.67887 0.38485 0.09507 0.0
H771 H 0.66766 0.418 0.12334 0.0
H772 H 0.61952 0.38748 0.19153 0.0
H773 H 0.63042 0.35461 0.16331 0.0
H774 H 0.60422 0.41843 0.14902 0.0
H775 H 0.66168 0.4087 0.2398 0.0
H776 H 0.69794 0.40234 0.25752 0.0
H777 H 0.71582 0.45698 0.19249 0.0
H778 H 0.67968 0.46351 0.17388 0.0
H779 H 0.573 0.50132 0.28335 0.0
H780 H 0.58717 0.46868 0.25768 0.0
H781 H 0.6256 0.50183 0.1719 0.0
H782 H 0.61107 0.5343 0.19641 0.0
H783 H 0.64642 0.47047 0.22178 0.0
H784 H 0.58921 0.48007 0.13112 0.0
H785 H 0.55318 0.48594 0.11116 0.0
H786 H 0.53505 0.43103 0.17496 0.0
H787 H 0.57097 0.425 0.19589 0.0
C788 C 0.66623 0.38518 0.11687 0.0
C789 C 0.65551 0.36708 0.12678 0.0
C790 C 0.65978 0.40415 0.13294 0.0
C791 C 0.64265 0.40529 0.15949 0.0
C792 C 0.63263 0.38707 0.17087 0.0
C793 C 0.63897 0.36824 0.15478 0.0
C794 C 0.63419 0.42539 0.1735 0.0
C795 C 0.61341 0.42966 0.16549 0.0
C796 C 0.64626 0.44035 0.1939 0.0
C797 C 0.668 0.43647 0.20507 0.0
C798 C 0.67336 0.41926 0.22897 0.0
C799 C 0.69389 0.41564 0.23923 0.0
C800 C 0.70918 0.42921 0.22604 0.0
C801 C 0.70396 0.44646 0.20263 0.0
C802 C 0.68346 0.45014 0.19225 0.0
C803 C 0.58435 0.50158 0.25883 0.0
C804 C 0.59088 0.52031 0.24176 0.0
C805 C 0.59244 0.48297 0.24422 0.0
C806 C 0.60747 0.48286 0.21292 0.0
C807 C 0.61406 0.50157 0.1961 0.0
C808 C 0.60567 0.52009 0.21001 0.0
C809 C 0.61643 0.46324 0.19788 0.0
C810 C 0.63727 0.45915 0.20549 0.0
C811 C 0.60443 0.44838 0.17713 0.0
C812 C 0.58273 0.45229 0.1657 0.0
C813 C 0.5775 0.46942 0.14148 0.0
C814 C 0.55711 0.47273 0.12981 0.0
C815 C 0.54182 0.45891 0.14194 0.0
C816 C 0.5469 0.44175 0.16571 0.0
C817 C 0.56727 0.43839 0.17749 0.0
H818 H 0.52605 0.46147 0.13281 0.0
H819 H 0.72506 0.42639 0.23402 0.0
H820 H 0.3748 0.92375 0.33643 0.0
H821 H 0.34189 0.91245 0.3654 0.0
H822 H 0.37405 0.87743 0.45827 0.0
H823 H 0.40681 0.88793 0.42808 0.0
H824 H 0.34712 0.8543 0.42723 0.0
H825 H 0.34437 0.92308 0.47892 0.0
H826 H 0.34569 0.96086 0.4753 0.0
H827 H 0.29458 0.96098 0.3916 0.0
H828 H 0.29311 0.92317 0.3943 0.0
H829 H 0.2577 0.82977 0.54821 0.0
H830 H 0.29054 0.84448 0.52502 0.0
H831 H 0.26102 0.86826 0.41582 0.0
H832 H 0.22833 0.85337 0.43851 0.0
H833 H 0.28611 0.89741 0.45673 0.0
H834 H 0.29004 0.828 0.40567 0.0
H835 H 0.28896 0.79028 0.41166 0.0
H836 H 0.3386 0.79197 0.49881 0.0
H837 H 0.33979 0.82975 0.49377 0.0
C838 C 0.37479 0.91411 0.36372 0.0
C839 C 0.39335 0.90681 0.38015 0.0
C840 C 0.35594 0.9076 0.38031 0.0
C841 C 0.35533 0.89408 0.41431 0.0
C842 C 0.37398 0.88771 0.43194 0.0
C843 C 0.39274 0.89386 0.41487 0.0
C844 C 0.33548 0.88528 0.42962 0.0
C845 C 0.33395 0.86386 0.43438 0.0
C846 C 0.31798 0.89753 0.43808 0.0
C847 C 0.31876 0.92027 0.43652 0.0
C848 C 0.3335 0.93115 0.45951 0.0
C849 C 0.33426 0.95257 0.45766 0.0
C850 C 0.32027 0.96331 0.43315 0.0
C851 C 0.30543 0.95264 0.41053 0.0
C852 C 0.30461 0.93122 0.41225 0.0
C853 C 0.2583 0.83799 0.5191 0.0
C854 C 0.2405 0.84034 0.49505 0.0
C855 C 0.27703 0.84641 0.50592 0.0
C856 C 0.27823 0.8575 0.46867 0.0
C857 C 0.26045 0.85984 0.44469 0.0
C858 C 0.24181 0.85121 0.45757 0.0
C859 C 0.29801 0.86663 0.45459 0.0
C860 C 0.29944 0.88801 0.44989 0.0
C861 C 0.31552 0.85441 0.44667 0.0
C862 C 0.31484 0.83171 0.44969 0.0
C863 C 0.3006 0.82034 0.4264 0.0
C864 C 0.3 0.79895 0.42956 0.0
C865 C 0.31366 0.78874 0.45569 0.0
C866 C 0.328 0.7999 0.47864 0.0
C867 C 0.32866 0.8213 0.47562 0.0
H868 H 0.31318 0.77218 0.45809 0.0
H869 H 0.32089 0.97989 0.43174 0.0
H870 H 0.83021 0.62344 0.59482 0.0
H871 H 0.83987 0.59026 0.62533 0.0
H872 H 0.88329 0.62097 0.70473 0.0
H873 H 0.87389 0.65384 0.6744 0.0
H874 H 0.90132 0.59078 0.66179 0.0
H875 H 0.83965 0.59869 0.74336 0.0
H876 H 0.80251 0.60399 0.75385 0.0
H877 H 0.78953 0.54936 0.68433 0.0
H878 H 0.82661 0.54388 0.67299 0.0
H879 H 0.93605 0.50782 0.78447 0.0
H880 H 0.92072 0.54025 0.76147 0.0
H881 H 0.87563 0.50663 0.691 0.0
H882 H 0.89055 0.47432 0.71477 0.0
H883 H 0.85758 0.53766 0.72762 0.0
H884 H 0.91789 0.52947 0.64456 0.0
H885 H 0.95468 0.52384 0.63035 0.0
H886 H 0.96983 0.57858 0.69768 0.0
H887 H 0.93312 0.58439 0.71278 0.0
C888 C 0.84138 0.62312 0.61958 0.0
C889 C 0.8514 0.64122 0.63198 0.0
C890 C 0.84695 0.60416 0.63691 0.0
C891 C 0.86246 0.6031 0.66713 0.0
C892 C 0.87146 0.62135 0.68121 0.0
C893 C 0.866 0.64016 0.66389 0.0
C894 C 0.8707 0.58309 0.68182 0.0
C895 C 0.89179 0.5793 0.67674 0.0
C896 C 0.85817 0.56778 0.69996 0.0
C897 C 0.8359 0.57099 0.70698 0.0
C898 C 0.82887 0.5879 0.73004 0.0
C899 C 0.80783 0.59091 0.7362 0.0
C900 C 0.79367 0.57705 0.71967 0.0
C901 C 0.80052 0.5601 0.69707 0.0
C902 C 0.82155 0.55702 0.69081 0.0
C903 C 0.92287 0.50741 0.76411 0.0
C904 C 0.91456 0.48859 0.75121 0.0
C905 C 0.91414 0.52592 0.75086 0.0
C906 C 0.89713 0.52594 0.72401 0.0
C907 C 0.8887 0.50708 0.71167 0.0
C908 C 0.89732 0.48861 0.72512 0.0
C909 C 0.8883 0.54553 0.70825 0.0
C910 C 0.86712 0.54919 0.71283 0.0
C911 C 0.90069 0.56069 0.68917 0.0
C912 C 0.92278 0.55725 0.68016 0.0
C913 C 0.92908 0.54022 0.65661 0.0
C914 C 0.94991 0.53701 0.64835 0.0
C915 C 0.96459 0.55081 0.6632 0.0
C916 C 0.95845 0.56788 0.68626 0.0
C917 C 0.93763 0.57115 0.69465 0.0
H918 H 0.98071 0.5483 0.65676 0.0
H919 H 0.77738 0.57942 0.72446 0.0
H920 H 0.73048 0.85087 0.08547 0.0
H921 H 0.76305 0.8663 0.10699 0.0
H922 H 0.79238 0.8426 0.99727 0.0
H923 H 0.75967 0.82728 0.9753 0.0
H924 H 0.8157 0.83739 0.07097 0.0
H925 H 0.77974 0.89091 0.99822 0.0
H926 H 0.75016 0.91337 0.98362 0.0
H927 H 0.75327 0.93787 0.10673 0.0
H928 H 0.78269 0.91532 0.12226 0.0
H929 H 0.90774 0.89151 0.09026 0.0
H930 H 0.87533 0.87978 0.06038 0.0
H931 H 0.84193 0.91218 0.1555 0.0
H932 H 0.8744 0.92482 0.18412 0.0
H933 H 0.82044 0.91297 0.08776 0.0
H934 H 0.85497 0.85963 0.16281 0.0
H935 H 0.88425 0.83721 0.18 0.0
H936 H 0.88299 0.81176 0.05752 0.0
H937 H 0.85393 0.83428 0.03937 0.0
C938 C 0.74391 0.84879 0.06609 0.0
C939 C 0.74256 0.83789 0.02869 0.0
C940 C 0.76248 0.8577 0.07833 0.0
C941 C 0.78009 0.85579 0.05353 0.0
C942 C 0.77896 0.84431 0.01681 0.0
C943 C 0.76029 0.83557 1.00431 0.0
C944 C 0.79958 0.86607 0.06569 0.0
C945 C 0.81685 0.85394 0.07409 0.0
C946 C 0.80088 0.88761 0.0709 0.0
C947 C 0.78329 0.90129 0.06152 0.0
C948 C 0.77401 0.90097 0.02229 0.0
C949 C 0.75729 0.91373 0.01382 0.0
C950 C 0.74981 0.927 0.04426 0.0
C951 C 0.75907 0.92757 0.0832 0.0
C952 C 0.77578 0.91481 0.09183 0.0
C953 C 0.89344 0.89659 0.10405 0.0
C954 C 0.89355 0.90907 0.13947 0.0
C955 C 0.87492 0.8897 0.08725 0.0
C956 C 0.85614 0.8945 0.10645 0.0
C957 C 0.85618 0.9081 0.14025 0.0
C958 C 0.87474 0.91542 0.15649 0.0
C959 C 0.83671 0.88432 0.093 0.0
C960 C 0.81939 0.89644 0.08455 0.0
C961 C 0.83525 0.8627 0.08834 0.0
C962 C 0.85239 0.84878 0.09961 0.0
C963 C 0.86099 0.84931 0.13949 0.0
C964 C 0.87755 0.83659 0.14941 0.0
C965 C 0.8855 0.82311 0.11982 0.0
C966 C 0.87683 0.82224 0.08036 0.0
C967 C 0.86032 0.83497 0.07025 0.0
H968 H 0.89836 0.81332 0.12737 0.0
H969 H 0.73686 0.93687 0.03765 0.0
H970 H 0.32871 0.62889 0.90343 0.0
H971 H 0.3377 0.59602 0.87125 0.0
H972 H 0.39324 0.62288 0.82231 0.0
H973 H 0.38409 0.65566 0.85261 0.0
H974 H 0.37938 0.5974 0.76856 0.0
H975 H 0.3919 0.59463 0.91513 0.0
H976 H 0.38274 0.59706 0.98902 0.0
H977 H 0.33804 0.54917 0.97377 0.0
H978 H 0.34677 0.54665 0.89962 0.0
H979 H 0.44268 0.50758 0.75014 0.0
H980 H 0.42821 0.54091 0.77086 0.0
H981 H 0.37085 0.5114 0.80158 0.0
H982 H 0.38514 0.47829 0.78103 0.0
H983 H 0.38379 0.53746 0.86268 0.0
H984 H 0.37477 0.5392 0.71466 0.0
H985 H 0.38644 0.53707 0.64219 0.0
H986 H 0.42781 0.58743 0.66228 0.0
H987 H 0.41657 0.58968 0.73506 0.0
C988 C 0.34261 0.62789 0.8851 0.0
C989 C 0.35577 0.64491 0.88114 0.0
C990 C 0.34784 0.60903 0.86698 0.0
C991 C 0.36643 0.6068 0.84511 0.0
C992 C 0.37889 0.6241 0.83914 0.0
C993 C 0.37362 0.6429 0.85678 0.0
C994 C 0.37371 0.58637 0.83041 0.0
C995 C 0.38044 0.58434 0.78927 0.0
C996 C 0.37502 0.56921 0.85719 0.0
C997 C 0.36982 0.57062 0.90177 0.0
C998 C 0.38002 0.58472 0.92749 0.0
C999 C 0.37492 0.5861 0.96942 0.0
C1000 C 0.35977 0.57332 0.98605 0.0
C1001 C 0.34974 0.55909 0.96082 0.0
C1002 C 0.35476 0.55767 0.91885 0.0
C1003 C 0.42697 0.50829 0.76115 0.0
C1004 C 0.41503 0.49039 0.76397 0.0
C1005 C 0.41871 0.5273 0.77286 0.0
C1006 C 0.3984 0.52864 0.7876 0.0
C1007 C 0.38653 0.51074 0.79036 0.0
C1008 C 0.39472 0.49184 0.77848 0.0
C1009 C 0.38953 0.54858 0.80102 0.0
C1010 C 0.38255 0.55049 0.84194 0.0
C1011 C 0.38834 0.5657 0.77425 0.0
C1012 C 0.39495 0.56449 0.7304 0.0
C1013 C 0.38646 0.54972 0.7037 0.0
C1014 C 0.39298 0.54851 0.66256 0.0
C1015 C 0.40789 0.56207 0.64767 0.0
C1016 C 0.41627 0.57692 0.67387 0.0
C1017 C 0.40981 0.57819 0.71505 0.0
H1018 H 0.41293 0.5611 0.61581 0.0
H1019 H 0.35584 0.57441 0.01852 0.0
H1020 H 0.60614 0.1212 0.60185 0.0
H1021 H 0.63916 0.13197 0.57309 0.0
H1022 H 0.67055 0.09147 0.65734 0.0
H1023 H 0.63736 0.08037 0.68603 0.0
H1024 H 0.68415 0.13279 0.65971 0.0
H1025 H 0.67216 0.08032 0.55897 0.0
H1026 H 0.65224 0.06144 0.50653 0.0
H1027 H 0.64892 0.11569 0.43147 0.0
H1028 H 0.66856 0.135 0.48377 0.0
H1029 H 0.78323 0.15593 0.58471 0.0
H1030 H 0.75166 0.13927 0.60743 0.0
H1031 H 0.71883 0.16746 0.50644 0.0
H1032 H 0.75093 0.18328 0.48219 0.0
H1033 H 0.70634 0.13043 0.51295 0.0
H1034 H 0.71435 0.18404 0.61317 0.0
H1035 H 0.73216 0.20492 0.6657 0.0
H1036 H 0.74082 0.15136 0.74101 0.0
H1037 H 0.72309 0.13016 0.68886 0.0
C1038 C 0.62005 0.11421 0.6136 0.0
C1039 C 0.61917 0.09988 0.64609 0.0
C1040 C 0.63891 0.12038 0.5971 0.0
C1041 C 0.65732 0.11252 0.61303 0.0
C1042 C 0.6565 0.09767 0.64453 0.0
C1043 C 0.63755 0.09122 0.66064 0.0
C1044 C 0.67727 0.12119 0.59902 0.0
C1045 C 0.68922 0.13199 0.62777 0.0
C1046 C 0.68346 0.12074 0.55707 0.0
C1047 C 0.67169 0.10916 0.52549 0.0
C1048 C 0.66703 0.08828 0.53146 0.0
C1049 C 0.65582 0.07749 0.50172 0.0
C1050 C 0.64928 0.08737 0.46574 0.0
C1051 C 0.65398 0.10806 0.45938 0.0
C1052 C 0.66517 0.11893 0.48904 0.0
C1053 C 0.76925 0.15873 0.56753 0.0
C1054 C 0.76947 0.17104 0.53189 0.0
C1055 C 0.75112 0.14926 0.58069 0.0
C1056 C 0.73262 0.15238 0.55927 0.0
C1057 C 0.73283 0.16481 0.52365 0.0
C1058 C 0.75113 0.17396 0.50993 0.0
C1059 C 0.71326 0.14229 0.5736 0.0
C1060 C 0.70138 0.13124 0.54494 0.0
C1061 C 0.70688 0.14282 0.61556 0.0
C1062 C 0.7176 0.15549 0.64692 0.0
C1063 C 0.72018 0.1767 0.64081 0.0
C1064 C 0.73021 0.1886 0.67056 0.0
C1065 C 0.73768 0.17946 0.70659 0.0
C1066 C 0.73509 0.15841 0.71302 0.0
C1067 C 0.72499 0.14646 0.68345 0.0
H1068 H 0.74543 0.18869 0.7296 0.0
H1069 H 0.6406 0.07899 0.44274 0.0
H1070 H 0.18237 0.38408 0.41691 0.0
H1071 H 0.17325 0.41723 0.38587 0.0
H1072 H 0.12115 0.38915 0.3262 0.0
H1073 H 0.13024 0.35616 0.35637 0.0
H1074 H 0.13873 0.41694 0.27597 0.0
H1075 H 0.11723 0.41283 0.41758 0.0
H1076 H 0.12232 0.40811 0.49243 0.0
H1077 H 0.16074 0.46165 0.49611 0.0
H1078 H 0.15648 0.46629 0.42089 0.0
H1079 H 0.07337 0.50332 0.24319 0.0
H1080 H 0.0877 0.47048 0.26671 0.0
H1081 H 0.13849 0.50254 0.32281 0.0
H1082 H 0.1242 0.53528 0.29959 0.0
H1083 H 0.12335 0.47336 0.37428 0.0
H1084 H 0.14483 0.47715 0.23221 0.0
H1085 H 0.13991 0.48127 0.15707 0.0
H1086 H 0.10051 0.42841 0.15522 0.0
H1087 H 0.10497 0.42413 0.23049 0.0
C1088 C 0.16924 0.38489 0.39646 0.0
C1089 C 0.15694 0.36749 0.38948 0.0
C1090 C 0.16397 0.40388 0.37894 0.0
C1091 C 0.1463 0.40577 0.35419 0.0
C1092 C 0.13478 0.38814 0.34524 0.0
C1093 C 0.13998 0.36926 0.36276 0.0
C1094 C 0.13881 0.42618 0.33991 0.0
C1095 C 0.13526 0.42923 0.29751 0.0
C1096 C 0.13446 0.44234 0.36795 0.0
C1097 C 0.13675 0.43976 0.41339 0.0
C1098 C 0.12698 0.42346 0.43419 0.0
C1099 C 0.12974 0.42078 0.47671 0.0
C1100 C 0.14187 0.43454 0.49901 0.0
C1101 C 0.15135 0.45098 0.47879 0.0
C1102 C 0.14882 0.45361 0.43617 0.0
C1103 C 0.0876 0.50331 0.26046 0.0
C1104 C 0.0977 0.52184 0.26944 0.0
C1105 C 0.09582 0.48455 0.27381 0.0
C1106 C 0.11429 0.48399 0.29632 0.0
C1107 C 0.12425 0.50254 0.30556 0.0
C1108 C 0.11609 0.52125 0.29211 0.0
C1109 C 0.12328 0.46411 0.31032 0.0
C1110 C 0.12701 0.46114 0.35271 0.0
C1111 C 0.1277 0.44798 0.28235 0.0
C1112 C 0.12509 0.45044 0.23705 0.0
C1113 C 0.135 0.46649 0.21583 0.0
C1114 C 0.13231 0.46884 0.17321 0.0
C1115 C 0.11986 0.45514 0.1514 0.0
C1116 C 0.11012 0.43902 0.17216 0.0
C1117 C 0.11274 0.43662 0.2148 0.0
H1118 H 0.1178 0.45698 0.11841 0.0
H1119 H 0.14389 0.4325 0.53197 0.0
H1120 H 0.6073 0.62861 0.41518 0.0
H1121 H 0.64049 0.63829 0.44338 0.0
H1122 H 0.66873 0.58671 0.38226 0.0
H1123 H 0.63521 0.57685 0.35317 0.0
H1124 H 0.68376 0.59509 0.46572 0.0
H1125 H 0.67408 0.62944 0.33633 0.0
H1126 H 0.65497 0.64965 0.28483 0.0
H1127 H 0.65094 0.70004 0.37001 0.0
H1128 H 0.66995 0.68003 0.42224 0.0
H1129 H 0.7852 0.63547 0.47839 0.0
H1130 H 0.7527 0.62088 0.45481 0.0
H1131 H 0.72071 0.67485 0.49754 0.0
H1132 H 0.75343 0.68968 0.52084 0.0
H1133 H 0.70813 0.66388 0.4213 0.0
H1134 H 0.71811 0.62936 0.5508 0.0
H1135 H 0.73705 0.60889 0.60226 0.0
H1136 H 0.74045 0.55852 0.5169 0.0
H1137 H 0.72178 0.57881 0.46468 0.0
C1138 C 0.62045 0.61908 0.40799 0.0
C1139 C 0.61859 0.60206 0.38142 0.0
C1140 C 0.63946 0.62469 0.42421 0.0
C1141 C 0.65713 0.61345 0.41436 0.0
C1142 C 0.65525 0.59564 0.39008 0.0
C1143 C 0.63609 0.59 0.37359 0.0
C1144 C 0.67753 0.62134 0.42745 0.0
C1145 C 0.6893 0.60996 0.45553 0.0
C1146 C 0.6845 0.64095 0.41479 0.0
C1147 C 0.67328 0.65316 0.38334 0.0
C1148 C 0.669 0.64478 0.3442 0.0
C1149 C 0.6582 0.65621 0.31485 0.0
C1150 C 0.65164 0.67608 0.32418 0.0
C1151 C 0.656 0.68462 0.36284 0.0
C1152 C 0.66682 0.67326 0.39231 0.0
C1153 C 0.77123 0.64421 0.48292 0.0
C1154 C 0.77182 0.6637 0.50153 0.0
C1155 C 0.75264 0.6358 0.46958 0.0
C1156 C 0.73418 0.64662 0.4748 0.0
C1157 C 0.73474 0.66617 0.49327 0.0
C1158 C 0.7534 0.67462 0.50667 0.0
C1159 C 0.71442 0.63773 0.46002 0.0
C1160 C 0.70271 0.64896 0.4315 0.0
C1161 C 0.70758 0.61796 0.47225 0.0
C1162 C 0.71872 0.60569 0.50368 0.0
C1163 C 0.72304 0.61398 0.54288 0.0
C1164 C 0.7337 0.6024 0.57221 0.0
C1165 C 0.74 0.58244 0.56282 0.0
C1166 C 0.73559 0.574 0.52411 0.0
C1167 C 0.72495 0.58552 0.49465 0.0
H1168 H 0.74825 0.5735 0.58557 0.0
H1169 H 0.64322 0.68488 0.30146 0.0
H1170 H 0.07478 1.0033 0.78559 0.0
H1171 H 0.09043 0.97084 0.76297 0.0
H1172 H 0.13316 1.00444 0.68654 0.0
H1173 H 0.11769 0.03674 0.70903 0.0
H1174 H 0.1161 0.97178 0.6454 0.0
H1175 H 0.149 0.98454 0.77609 0.0
H1176 H 0.15003 0.99172 0.85093 0.0
H1177 H 0.1177 0.93554 0.87543 0.0
H1178 H 0.11623 0.92817 0.80064 0.0
H1179 H 0.18019 0.88784 0.59392 0.0
H1180 H 0.17054 0.92106 0.62422 0.0
H1181 H 0.1276 0.89051 0.70525 0.0
H1182 H 0.13719 0.8575 0.67545 0.0
H1183 H 0.14633 0.92223 0.7446 0.0
H1184 H 0.11078 0.91023 0.61691 0.0
H1185 H 0.10805 0.90224 0.54265 0.0
H1186 H 0.14324 0.95606 0.51306 0.0
H1187 H 0.1464 0.96423 0.58734 0.0
C1188 C 0.0875 1.00369 0.76396 0.0
C1189 C 0.09505 0.0225 0.74909 0.0
C1190 C 0.09648 0.98518 0.75118 0.0
C1191 C 0.11308 0.98522 0.72325 0.0
C1192 C 0.1204 1.00402 0.70808 0.0
C1193 C 0.11157 0.02247 0.72105 0.0
C1194 C 0.12279 0.96573 0.70947 0.0
C1195 C 0.12299 0.96111 0.66705 0.0
C1196 C 0.13137 0.95156 0.73776 0.0
C1197 C 0.13233 0.95591 0.78274 0.0
C1198 C 0.14197 0.9738 0.79741 0.0
C1199 C 0.14266 0.97789 0.83983 0.0
C1200 C 0.13389 0.96412 0.86791 0.0
C1201 C 0.12447 0.94621 0.85363 0.0
C1202 C 0.12371 0.94206 0.81124 0.0
C1203 C 0.16912 0.88819 0.61896 0.0
C1204 C 0.15935 0.8701 0.63211 0.0
C1205 C 0.16349 0.90717 0.63602 0.0
C1206 C 0.14811 0.90829 0.66659 0.0
C1207 C 0.13944 0.89006 0.68168 0.0
C1208 C 0.14491 0.8712 0.66447 0.0
C1209 C 0.13971 0.92835 0.68056 0.0
C1210 C 0.13964 0.93302 0.72295 0.0
C1211 C 0.13102 0.94248 0.65233 0.0
C1212 C 0.12904 0.93771 0.60767 0.0
C1213 C 0.11808 0.92027 0.59458 0.0
C1214 C 0.11643 0.91572 0.55248 0.0
C1215 C 0.12553 0.92859 0.52314 0.0
C1216 C 0.13624 0.94608 0.53584 0.0
C1217 C 0.13795 0.95069 0.57794 0.0
H1218 H 0.12424 0.92507 0.49055 0.0
H1219 H 0.13445 0.96731 0.90074 0.0
H1220 H 0.72787 0.35126 0.93341 0.0
H1221 H 0.75998 0.36704 0.91075 0.0
H1222 H 0.78928 0.34736 0.02363 0.0
H1223 H 0.75677 0.33219 0.0471 0.0
H1224 H 0.80009 0.38464 1.00901 0.0
H1225 H 0.79819 0.3242 0.9262 0.0
H1226 H 0.78463 0.29855 0.87729 0.0
H1227 H 0.78073 0.34459 0.78264 0.0
H1228 H 0.79393 0.37062 0.83121 0.0
H1229 H 0.90367 0.39304 0.93359 0.0
H1230 H 0.87017 0.38272 0.96097 0.0
H1231 H 0.84014 0.41586 0.86282 0.0
H1232 H 0.87373 0.42659 0.83562 0.0
H1233 H 0.82961 0.37309 0.86944 0.0
H1234 H 0.83383 0.43303 0.95545 0.0
H1235 H 0.85027 0.45648 1.00524 0.0
H1236 H 0.85283 0.40811 0.09525 0.0
H1237 H 0.83667 0.38427 0.04577 0.0
C1238 C 0.74121 0.35013 0.95325 0.0
C1239 C 0.73987 0.34042 0.99194 0.0
C1240 C 0.75962 0.3591 0.94017 0.0
C1241 C 0.77724 0.3582 0.96515 0.0
C1242 C 0.77595 0.34828 1.00373 0.0
C1243 C 0.75741 0.33952 0.01706 0.0
C1244 C 0.79676 0.36817 0.95154 0.0
C1245 C 0.80664 0.38186 0.97865 0.0
C1246 C 0.80523 0.36496 0.9116 0.0
C1247 C 0.79683 0.34943 0.88255 0.0
C1248 C 0.79421 0.32892 0.89511 0.0
C1249 C 0.78663 0.3143 0.86741 0.0
C1250 C 0.78176 0.31995 0.82692 0.0
C1251 C 0.78446 0.34024 0.81404 0.0
C1252 C 0.79199 0.35494 0.84166 0.0
C1253 C 0.88991 0.39862 0.91853 0.0
C1254 C 0.89129 0.41067 0.88254 0.0
C1255 C 0.87079 0.39269 0.93419 0.0
C1256 C 0.85269 0.39847 0.91386 0.0
C1257 C 0.85396 0.41127 0.87898 0.0
C1258 C 0.87312 0.41754 0.8637 0.0
C1259 C 0.83273 0.38946 0.92682 0.0
C1260 C 0.82287 0.3759 0.89963 0.0
C1261 C 0.82453 0.39248 0.96688 0.0
C1262 C 0.83419 0.40681 0.99674 0.0
C1263 C 0.83806 0.42733 0.98572 0.0
C1264 C 0.84729 0.44071 0.01393 0.0
C1265 C 0.85263 0.43378 0.05335 0.0
C1266 C 0.8487 0.41346 0.06469 0.0
C1267 C 0.83948 0.40001 0.03659 0.0
H1268 H 0.85978 0.44416 0.07514 0.0
H1269 H 0.77595 0.3086 0.80548 0.0
H1270 H 0.43337 0.00636 0.29086 0.0
H1271 H 0.41726 0.03847 0.26835 0.0
H1272 H 0.38701 0.00604 0.16919 0.0
H1273 H 0.40399 0.97434 0.19024 0.0
H1274 H 0.39783 0.03995 0.14048 0.0
H1275 H 0.36217 0.02186 0.2643 0.0
H1276 H 0.35816 0.01228 0.33766 0.0
H1277 H 0.38579 0.06925 0.37459 0.0
H1278 H 0.3902 0.07907 0.30141 0.0
H1279 H 0.32991 0.12187 0.0934 0.0
H1280 H 0.3396 0.0886 0.1233 0.0
H1281 H 0.38319 0.11888 0.20287 0.0
H1282 H 0.3737 0.15199 0.17318 0.0
H1283 H 0.36291 0.08541 0.24158 0.0
H1284 H 0.39732 0.1023 0.11313 0.0
H1285 H 0.39754 0.11128 0.03946 0.0
H1286 H 0.36853 0.05396 1.00984 0.0
H1287 H 0.36742 0.04492 0.08393 0.0
C1288 C 0.42342 0.0062 0.26405 0.0
C1289 C 0.41994 0.98788 0.24229 0.0
C1290 C 0.41401 0.02451 0.25141 0.0
C1291 C 0.40045 0.02474 0.2175 0.0
C1292 C 0.39732 0.00642 0.19543 0.0
C1293 C 0.40704 0.98825 0.20752 0.0
C1294 C 0.38965 0.04399 0.20465 0.0
C1295 C 0.38991 0.04963 0.16265 0.0
C1296 C 0.37936 0.05692 0.23331 0.0
C1297 C 0.37669 0.05111 0.27736 0.0
C1298 C 0.36752 0.03229 0.28806 0.0
C1299 C 0.36515 0.02682 0.32961 0.0
C1300 C 0.37177 0.04013 0.36076 0.0
C1301 C 0.3807 0.05895 0.35042 0.0
C1302 C 0.38311 0.06448 0.30892 0.0
C1303 C 0.34114 0.12148 0.11806 0.0
C1304 C 0.35117 0.13954 0.13066 0.0
C1305 C 0.34672 0.10245 0.13501 0.0
C1306 C 0.3623 0.10123 0.16502 0.0
C1307 C 0.37116 0.11942 0.17978 0.0
C1308 C 0.36578 0.13834 0.16258 0.0
C1309 C 0.37113 0.08112 0.17772 0.0
C1310 C 0.37062 0.07546 0.21958 0.0
C1311 C 0.38079 0.06792 0.14884 0.0
C1312 C 0.38199 0.07308 0.1042 0.0
C1313 C 0.39068 0.09172 0.09104 0.0
C1314 C 0.39089 0.09687 0.04914 0.0
C1315 C 0.38293 0.08327 0.01986 0.0
C1316 C 0.37466 0.06451 0.03254 0.0
C1317 C 0.37416 0.0594 0.07453 0.0
H1318 H 0.38327 0.08722 0.98737 0.0
H1319 H 0.36993 0.03587 0.39291 0.0
H1320 H 0.25734 0.32859 0.4738 0.0
H1321 H 0.29034 0.34256 0.49765 0.0
H1322 H 0.26034 0.36825 0.60479 0.0
H1323 H 0.22749 0.35409 0.58149 0.0
H1324 H 0.28693 0.39615 0.56306 0.0
H1325 H 0.28742 0.32726 0.61816 0.0
H1326 H 0.285 0.28956 0.61383 0.0
H1327 H 0.3359 0.28839 0.52921 0.0
H1328 H 0.33844 0.32614 0.53262 0.0
H1329 H 0.37398 0.42122 0.68744 0.0
H1330 H 0.34127 0.41016 0.65753 0.0
H1331 H 0.37394 0.37298 0.56864 0.0
H1332 H 0.40649 0.38322 0.59976 0.0
H1333 H 0.34565 0.35117 0.59892 0.0
H1334 H 0.34652 0.41928 0.5436 0.0
H1335 H 0.3492 0.45702 0.54521 0.0
H1336 H 0.29656 0.46023 0.62513 0.0
H1337 H 0.29372 0.42247 0.62445 0.0
C1338 C 0.25786 0.33711 0.50255 0.0
C1339 C 0.23992 0.34019 0.52591 0.0
C1340 C 0.27667 0.34509 0.5161 0.0
C1341 C 0.27777 0.35646 0.55299 0.0
C1342 C 0.25982 0.35959 0.5762 0.0
C1343 C 0.24111 0.3514 0.56297 0.0
C1344 C 0.29762 0.365 0.56764 0.0
C1345 C 0.29975 0.38636 0.57129 0.0
C1346 C 0.31447 0.35223 0.57731 0.0
C1347 C 0.31297 0.32954 0.57529 0.0
C1348 C 0.29798 0.31898 0.59834 0.0
C1349 C 0.29661 0.2976 0.59612 0.0
C1350 C 0.31025 0.28659 0.57116 0.0
C1351 C 0.32532 0.29694 0.54847 0.0
C1352 C 0.32674 0.31833 0.55056 0.0
C1353 C 0.37414 0.41102 0.66099 0.0
C1354 C 0.39276 0.40308 0.64595 0.0
C1355 C 0.35542 0.4047 0.6438 0.0
C1356 C 0.35501 0.39076 0.61052 0.0
C1357 C 0.37374 0.3836 0.59441 0.0
C1358 C 0.39237 0.38955 0.6121 0.0
C1359 C 0.33522 0.38252 0.59421 0.0
C1360 C 0.33299 0.36112 0.5904 0.0
C1361 C 0.31839 0.39532 0.58387 0.0
C1362 C 0.32003 0.41803 0.58428 0.0
C1363 C 0.3356 0.42802 0.56177 0.0
C1364 C 0.33714 0.44942 0.56247 0.0
C1365 C 0.32309 0.46101 0.58534 0.0
C1366 C 0.30744 0.45123 0.60747 0.0
C1367 C 0.30585 0.42983 0.6069 0.0
H1368 H 0.32431 0.47758 0.58585 0.0
H1369 H 0.30917 0.27003 0.56949 0.0
H1370 H 0.8759 0.15399 0.35789 0.0
H1371 H 0.88534 0.12077 0.32934 0.0
H1372 H 0.83761 0.09179 0.40128 0.0
H1373 H 0.82813 0.12529 0.43065 0.0
H1374 H 0.87478 0.07276 0.41035 0.0
H1375 H 0.8337 0.09522 0.2962 0.0
H1376 H 0.82234 0.1196 0.24261 0.0
H1377 H 0.88243 0.11856 0.18773 0.0
H1378 H 0.89425 0.09441 0.24136 0.0
H1379 H 0.89609 0.97498 0.32559 0.0
H1380 H 0.87976 0.00679 0.34792 0.0
H1381 H 0.91876 0.04113 0.2648 0.0
H1382 H 0.93423 0.00896 0.24044 0.0
H1383 H 0.88313 0.05677 0.2613 0.0
H1384 H 0.92565 0.03798 0.37661 0.0
H1385 H 0.93898 0.01538 0.43156 0.0
H1386 H 0.87876 0.01132 0.48529 0.0
H1387 H 0.86501 0.0337 0.43037 0.0
C1388 C 0.86712 0.14063 0.36724 0.0
C1389 C 0.85125 0.14232 0.39666 0.0
C1390 C 0.87252 0.12161 0.35066 0.0
C1391 C 0.86214 0.10374 0.36291 0.0
C1392 C 0.8458 0.10539 0.39128 0.0
C1393 C 0.84029 0.12455 0.4078 0.0
C1394 C 0.86951 0.08334 0.34826 0.0
C1395 C 0.87621 0.06906 0.37776 0.0
C1396 C 0.87208 0.07882 0.30572 0.0
C1397 C 0.8649 0.09309 0.27299 0.0
C1398 C 0.84453 0.10028 0.27285 0.0
C1399 C 0.838 0.11405 0.24245 0.0
C1400 C 0.85166 0.12065 0.21183 0.0
C1401 C 0.87186 0.11344 0.21147 0.0
C1402 C 0.87848 0.09968 0.24183 0.0
C1403 C 0.90127 0.98934 0.31224 0.0
C1404 C 0.91657 0.98954 0.28156 0.0
C1405 C 0.89198 0.00758 0.32522 0.0
C1406 C 0.89826 0.02658 0.30887 0.0
C1407 C 0.9136 0.02676 0.27808 0.0
C1408 C 0.92255 0.0084 0.26432 0.0
C1409 C 0.88866 0.04615 0.32343 0.0
C1410 C 0.88156 0.06032 0.29393 0.0
C1411 C 0.88601 0.05074 0.36603 0.0
C1412 C 0.89427 0.03734 0.39915 0.0
C1413 C 0.91523 0.03215 0.4 0.0
C1414 C 0.92286 0.01941 0.43115 0.0
C1415 C 0.90972 0.01188 0.46183 0.0
C1416 C 0.88892 0.01714 0.46148 0.0
C1417 C 0.8812 0.02987 0.43037 0.0
H1418 H 0.91565 1.00201 0.48591 0.0
H1419 H 0.84659 0.13133 0.18835 0.0
H1420 H 0.10861 0.62949 0.10304 0.0
H1421 H 0.14144 0.63788 0.07189 0.0
H1422 H 0.16956 0.58686 0.13509 0.0
H1423 H 0.1365 0.57863 0.16785 0.0
H1424 H 0.19239 0.6199 0.14394 0.0
H1425 H 0.16203 0.58722 0.02756 0.0
H1426 H 0.13526 0.5797 0.9759 0.0
H1427 H 0.13832 0.6418 0.93186 0.0
H1428 H 0.16491 0.64978 0.98365 0.0
H1429 H 0.28676 0.63514 0.03676 0.0
H1430 H 0.25436 0.62018 0.06044 0.0
H1431 H 0.22162 0.67292 0.01438 0.0
H1432 H 0.25418 0.68802 0.99052 0.0
H1433 H 0.20219 0.63603 0.99523 0.0
H1434 H 0.23095 0.66874 0.11557 0.0
H1435 H 0.25784 0.67583 0.16726 0.0
H1436 H 0.25796 0.61239 0.20317 0.0
H1437 H 0.23126 0.60486 0.15126 0.0
C1438 C 0.12164 0.61978 0.11009 0.0
C1439 C 0.11981 0.60335 0.13819 0.0
C1440 C 0.14049 0.62458 0.09188 0.0
C1441 C 0.15806 0.61292 0.10064 0.0
C1442 C 0.15623 0.59609 0.12771 0.0
C1443 C 0.13728 0.5913 0.14622 0.0
C1444 C 0.17841 0.61935 0.08361 0.0
C1445 C 0.19463 0.62298 0.11127 0.0
C1446 C 0.18132 0.62389 0.04108 0.0
C1447 C 0.16538 0.61913 1.00972 0.0
C1448 C 0.1569 0.59932 1.00705 0.0
C1449 C 0.14177 0.59496 0.97771 0.0
C1450 C 0.13507 0.61027 0.95067 0.0
C1451 C 0.14352 0.62995 0.95284 0.0
C1452 C 0.15865 0.6344 0.98215 0.0
C1453 C 0.27266 0.64354 0.03156 0.0
C1454 C 0.27299 0.6628 0.01194 0.0
C1455 C 0.25415 0.63499 0.04523 0.0
C1456 C 0.23555 0.6455 0.03959 0.0
C1457 C 0.23578 0.66455 0.01913 0.0
C1458 C 0.25437 0.67319 1.00561 0.0
C1459 C 0.21595 0.63671 0.05564 0.0
C1460 C 0.19994 0.6327 0.0278 0.0
C1461 C 0.21326 0.63169 0.09793 0.0
C1462 C 0.22927 0.6362 0.12922 0.0
C1463 C 0.23684 0.65627 0.13424 0.0
C1464 C 0.25202 0.66037 0.16363 0.0
C1465 C 0.25964 0.64456 0.1884 0.0
C1466 C 0.25206 0.62461 0.18391 0.0
C1467 C 0.2369 0.62042 0.15454 0.0
H1468 H 0.27139 0.64777 0.21114 0.0
H1469 H 0.12335 0.60687 0.92798 0.0
H1470 H 0.6052 0.02939 0.83426 0.0
H1471 H 0.62128 0.99719 0.8558 0.0
H1472 H 0.59536 0.96657 0.74983 0.0
H1473 H 0.57954 0.99901 0.72748 0.0
H1474 H 0.5917 0.94532 0.83191 0.0
H1475 H 0.6416 0.97754 0.74112 0.0
H1476 H 0.6634 0.00632 0.71805 0.0
H1477 H 0.69403 0.00675 0.83553 0.0
H1478 H 0.67218 0.97816 0.85953 0.0
H1479 H 0.64402 0.85317 0.84085 0.0
H1480 H 0.63272 0.88592 0.81227 0.0
H1481 H 0.66905 0.91813 0.90292 0.0
H1482 H 0.68082 0.88518 0.93115 0.0
H1483 H 0.66773 0.93918 0.82978 0.0
H1484 H 0.61995 0.90913 0.92301 0.0
H1485 H 0.59859 0.88138 0.95211 0.0
H1486 H 0.56388 0.87855 0.83947 0.0
H1487 H 0.58528 0.90607 0.80939 0.0
C1488 C 0.60279 0.01577 0.81568 0.0
C1489 C 0.59113 0.01666 0.77918 0.0
C1490 C 0.61204 0.99742 0.82797 0.0
C1491 C 0.6096 0.97956 0.80428 0.0
C1492 C 0.59742 0.98022 0.76848 0.0
C1493 C 0.58842 0.99871 0.75577 0.0
C1494 C 0.62015 0.96036 0.81661 0.0
C1495 C 0.60829 0.94383 0.83082 0.0
C1496 C 0.64184 0.95879 0.8168 0.0
C1497 C 0.65511 0.97585 0.80226 0.0
C1498 C 0.65286 0.98389 0.76216 0.0
C1499 C 0.66525 1.00014 0.74889 0.0
C1500 C 0.68005 0.00839 0.77534 0.0
C1501 C 0.68254 1.00036 0.81509 0.0
C1502 C 0.67017 0.98412 0.82853 0.0
C1503 C 0.65009 0.86723 0.85391 0.0
C1504 C 0.6632 0.86666 0.88834 0.0
C1505 C 0.64352 0.88594 0.83772 0.0
C1506 C 0.6496 0.90447 0.85617 0.0
C1507 C 0.66407 0.90401 0.88837 0.0
C1508 C 0.67087 0.88519 0.90434 0.0
C1509 C 0.63927 0.92393 0.84432 0.0
C1510 C 0.65114 0.94058 0.83061 0.0
C1511 C 0.61757 0.92581 0.84553 0.0
C1512 C 0.60435 0.90955 0.86378 0.0
C1513 C 0.60784 0.90251 0.90433 0.0
C1514 C 0.59573 0.88683 0.92102 0.0
C1515 C 0.57992 0.87818 0.89761 0.0
C1516 C 0.57615 0.88525 0.85754 0.0
C1517 C 0.58826 0.90091 0.84066 0.0
H1518 H 0.57057 0.86603 0.91056 0.0
H1519 H 0.68963 0.02098 0.76501 0.0
H1520 H 0.37066 0.13067 0.98498 0.0
H1521 H 0.40161 0.11722 0.95182 0.0
H1522 H 0.43085 0.17626 0.96442 0.0
H1523 H 0.39971 0.18987 0.9979 0.0
H1524 H 0.43576 0.16143 0.88742 0.0
H1525 H 0.44826 0.1376 0.02113 0.0
H1526 H 0.4449 0.12094 0.08922 0.0
H1527 H 0.43583 0.06259 0.03035 0.0
H1528 H 0.43877 0.07894 0.96181 0.0
H1529 H 0.53234 0.09136 0.85394 0.0
H1530 H 0.50579 0.10418 0.90145 0.0
H1531 H 0.46415 0.11133 0.79877 0.0
H1532 H 0.49102 0.09964 0.75137 0.0
H1533 H 0.46978 0.09643 0.92814 0.0
H1534 H 0.43439 0.15414 0.80938 0.0
H1535 H 0.44531 0.17338 0.74747 0.0
H1536 H 0.50822 0.16927 0.78593 0.0
H1537 H 0.49765 0.15073 0.84896 0.0
C1538 C 0.38373 0.14078 0.98108 0.0
C1539 C 0.38272 0.16134 0.99415 0.0
C1540 C 0.4015 0.13301 0.96227 0.0
C1541 C 0.41873 0.14559 0.95592 0.0
C1542 C 0.41782 0.16617 0.96913 0.0
C1543 C 0.40004 0.17394 0.98832 0.0
C1544 C 0.43698 0.13742 0.93301 0.0
C1545 C 0.4432 0.14723 0.89638 0.0
C1546 C 0.44725 0.11922 0.94525 0.0
C1547 C 0.44361 0.10955 0.98622 0.0
C1548 C 0.44522 0.12127 0.02262 0.0
C1549 C 0.44356 0.11185 0.06134 0.0
C1550 C 0.44038 0.09069 0.06411 0.0
C1551 C 0.4385 0.07895 0.02815 0.0
C1552 C 0.44011 0.0883 0.98936 0.0
C1553 C 0.5173 0.09509 0.84185 0.0
C1554 C 0.51364 0.09434 0.79908 0.0
C1555 C 0.50215 0.10259 0.86894 0.0
C1556 C 0.48304 0.10934 0.85373 0.0
C1557 C 0.4789 0.10688 0.81134 0.0
C1558 C 0.49415 0.09987 0.78427 0.0
C1559 C 0.46785 0.11987 0.88148 0.0
C1560 C 0.46227 0.11057 0.91906 0.0
C1561 C 0.4587 0.13895 0.87086 0.0
C1562 C 0.46521 0.15078 0.83374 0.0
C1563 C 0.45054 0.15749 0.80488 0.0
C1564 C 0.45667 0.1683 0.7696 0.0
C1565 C 0.47744 0.17246 0.76273 0.0
C1566 C 0.49213 0.16596 0.79126 0.0
C1567 C 0.48607 0.15539 0.82688 0.0
H1568 H 0.48211 0.18084 0.73542 0.0
H1569 H 0.43913 0.08342 0.09411 0.0
H1570 H 0.56856 0.64903 0.24994 0.0
H1571 H 0.58255 0.67971 0.21561 0.0
H1572 H 0.64154 0.65008 0.20497 0.0
H1573 H 0.62782 0.61979 0.23989 0.0
H1574 H 0.64679 0.68975 0.22302 0.0
H1575 H 0.60756 0.65101 0.12364 0.0
H1576 H 0.5765 0.63361 0.09768 0.0
H1577 H 0.54323 0.69043 0.10265 0.0
H1578 H 0.57404 0.70812 0.12918 0.0
H1579 H 0.68712 0.75271 0.05559 0.0
H1580 H 0.67654 0.72497 0.10311 0.0
H1581 H 0.61585 0.75127 0.11061 0.0
H1582 H 0.62611 0.77829 0.06312 0.0
H1583 H 0.61219 0.71278 0.09476 0.0
H1584 H 0.65134 0.7521 0.19237 0.0
H1585 H 0.68192 0.76955 0.22035 0.0
H1586 H 0.71488 0.7125 0.22041 0.0
H1587 H 0.68458 0.69475 0.19184 0.0
C1588 C 0.58456 0.6492 0.24066 0.0
C1589 C 0.59702 0.63192 0.24718 0.0
C1590 C 0.59254 0.66669 0.22089 0.0
C1591 C 0.61308 0.66715 0.20702 0.0
C1592 C 0.62568 0.65017 0.21517 0.0
C1593 C 0.61776 0.63279 0.23499 0.0
C1594 C 0.62124 0.6847 0.18207 0.0
C1595 C 0.63931 0.69472 0.19481 0.0
C1596 C 0.61146 0.69138 0.14539 0.0
C1597 C 0.59304 0.68084 0.12875 0.0
C1598 C 0.59358 0.65977 0.1194 0.0
C1599 C 0.57603 0.64986 0.10457 0.0
C1600 C 0.55788 0.6609 0.09862 0.0
C1601 C 0.55728 0.68189 0.10733 0.0
C1602 C 0.57479 0.69188 0.12223 0.0
C1603 C 0.67168 0.75269 0.06808 0.0
C1604 C 0.65742 0.76757 0.0553 0.0
C1605 C 0.66559 0.73684 0.09522 0.0
C1606 C 0.64526 0.73585 0.11043 0.0
C1607 C 0.63149 0.75139 0.0991 0.0
C1608 C 0.63744 0.76692 0.07192 0.0
C1609 C 0.63762 0.71822 0.13599 0.0
C1610 C 0.61967 0.70801 0.12312 0.0
C1611 C 0.64749 0.71149 0.17259 0.0
C1612 C 0.66577 0.72215 0.18944 0.0
C1613 C 0.66517 0.74331 0.19794 0.0
C1614 C 0.68244 0.75325 0.214 0.0
C1615 C 0.70035 0.74215 0.22201 0.0
C1616 C 0.70101 0.72108 0.21408 0.0
C1617 C 0.68379 0.71108 0.19797 0.0
H1618 H 0.7137 0.74987 0.23448 0.0
H1619 H 0.5443 0.65319 0.0872 0.0
H1620 H 1.0051 0.93835 0.30905 0.0
H1621 H 0.03317 0.92904 0.35674 0.0
H1622 H 0.00862 0.86775 0.36671 0.0
H1623 H 0.98097 0.87687 0.3195 0.0
H1624 H 0.02289 0.88116 0.44153 0.0
H1625 H 0.04672 0.87752 0.29997 0.0
H1626 H 0.0537 0.89145 0.23043 0.0
H1627 H 0.09346 0.93713 0.28289 0.0
H1628 H 0.08648 0.92361 0.35285 0.0
H1629 H 0.11057 0.82075 0.49986 0.0
H1630 H 0.07995 0.83547 0.46677 0.0
H1631 H 0.11136 0.89341 0.45374 0.0
H1632 H 0.14173 0.87888 0.48674 0.0
H1633 H 0.09345 0.88434 0.38389 0.0
H1634 H 0.07281 0.88538 0.5253 0.0
H1635 H 0.06585 0.87141 0.59475 0.0
H1636 H 0.0198 0.83145 0.54435 0.0
H1637 H 0.02693 0.8447 0.47437 0.0
C1638 C 0.0055 0.92308 0.32223 0.0
C1639 C 0.99088 0.90834 0.31037 0.0
C1640 C 0.0216 0.9177 0.34924 0.0
C1641 C 0.02318 0.89758 0.36514 0.0
C1642 C 0.00784 0.88333 0.35506 0.0
C1643 C 0.99204 0.88858 0.32786 0.0
C1644 C 0.04138 0.89064 0.38969 0.0
C1645 C 0.03832 0.88177 0.42889 0.0
C1646 C 0.06161 0.89166 0.37363 0.0
C1647 C 0.06589 0.89972 0.33164 0.0
C1648 C 0.05682 0.89064 0.29669 0.0
C1649 C 0.0608 0.89844 0.25721 0.0
C1650 C 0.07397 0.91521 0.25226 0.0
C1651 C 0.08323 0.92417 0.28678 0.0
C1652 C 0.07928 0.91644 0.32635 0.0
C1653 C 0.11081 0.83668 0.49035 0.0
C1654 C 0.1286 0.84862 0.49592 0.0
C1655 C 0.09329 0.84513 0.47146 0.0
C1656 C 0.0932 0.86569 0.4578 0.0
C1657 C 0.11094 0.87757 0.46382 0.0
C1658 C 0.12833 0.86921 0.4828 0.0
C1659 C 0.07505 0.87473 0.4359 0.0
C1660 C 0.0781 0.88391 0.39697 0.0
C1661 C 0.05485 0.87401 0.45236 0.0
C1662 C 0.0506 0.86588 0.49443 0.0
C1663 C 0.06138 0.87343 0.52891 0.0
C1664 C 0.05739 0.86565 0.56841 0.0
C1665 C 0.04244 0.8505 0.57395 0.0
C1666 C 0.03143 0.84312 0.54001 0.0
C1667 C 0.03547 0.85074 0.50039 0.0
H1668 H 0.03944 0.84445 0.60452 0.0
H1669 H 0.07703 0.92123 0.22166 0.0
H1670 H 0.83417 0.23578 0.59957 0.0
H1671 H 0.84628 0.26232 0.64834 0.0
H1672 H 0.87738 0.29325 0.54833 0.0
H1673 H 0.86546 0.26718 0.50021 0.0
H1674 H 0.90329 0.2849 0.61255 0.0
H1675 H 0.83442 0.31263 0.59412 0.0
H1676 H 0.79662 0.31192 0.59878 0.0
H1677 H 0.80028 0.30265 0.73004 0.0
H1678 H 0.83812 0.30291 0.72604 0.0
H1679 H 0.93259 0.3847 0.67316 0.0
H1680 H 0.91685 0.35428 0.64182 0.0
H1681 H 0.89415 0.33542 0.76128 0.0
H1682 H 0.91024 0.36573 0.79295 0.0
H1683 H 0.86384 0.3336 0.69957 0.0
H1684 H 0.93033 0.30782 0.72262 0.0
H1685 H 0.96809 0.30584 0.72314 0.0
H1686 H 0.96924 0.30913 0.59056 0.0
H1687 H 0.93141 0.311 0.58917 0.0
C1688 C 0.84304 0.24861 0.58793 0.0
C1689 C 0.84888 0.24932 0.54601 0.0
C1690 C 0.8501 0.26369 0.61585 0.0
C1691 C 0.86301 0.27972 0.60216 0.0
C1692 C 0.8677 0.28099 0.55989 0.0
C1693 C 0.86074 0.26607 0.53229 0.0
C1694 C 0.87303 0.29451 0.63128 0.0
C1695 C 0.89461 0.29564 0.6313 0.0
C1696 C 0.86185 0.3079 0.6575 0.0
C1697 C 0.83911 0.30747 0.65968 0.0
C1698 C 0.82718 0.31017 0.62389 0.0
C1699 C 0.80574 0.3099 0.62643 0.0
C1700 C 0.79606 0.30715 0.66464 0.0
C1701 C 0.80779 0.3047 0.70043 0.0
C1702 C 0.82924 0.30489 0.69804 0.0
C1703 C 0.92442 0.37397 0.6928 0.0
C1704 C 0.92264 0.37763 0.73547 0.0
C1705 C 0.91543 0.35656 0.67489 0.0
C1706 C 0.90426 0.34251 0.69913 0.0
C1707 C 0.90261 0.34604 0.74189 0.0
C1708 C 0.9119 0.36331 0.75996 0.0
C1709 C 0.894 0.32452 0.67921 0.0
C1710 C 0.87249 0.32272 0.6811 0.0
C1711 C 0.90521 0.31021 0.65527 0.0
C1712 C 0.92801 0.30972 0.65581 0.0
C1713 C 0.93862 0.30833 0.69357 0.0
C1714 C 0.96005 0.30716 0.69402 0.0
C1715 C 0.97108 0.30747 0.65693 0.0
C1716 C 0.96068 0.3089 0.61928 0.0
C1717 C 0.93923 0.30994 0.61863 0.0
H1718 H 0.98767 0.30654 0.65733 0.0
H1719 H 0.77946 0.30699 0.66655 0.0
H1720 H 0.64194 0.88042 0.01902 0.0
H1721 H 0.61157 0.89574 0.05131 0.0
H1722 H 0.58483 0.83551 0.06539 0.0
H1723 H 0.6149 0.82027 0.03152 0.0
H1724 H 0.55582 0.86068 0.04725 0.0
H1725 H 0.61042 0.86283 0.14689 0.0
H1726 H 0.64483 0.8716 0.17334 0.0
H1727 H 0.63205 0.93572 0.15682 0.0
H1728 H 0.59764 0.9273 0.12976 0.0
H1729 H 0.49121 0.87253 0.21933 0.0
H1730 H 0.5184 0.86495 0.17046 0.0
H1731 H 0.53004 0.92962 0.15485 0.0
H1732 H 0.50236 0.9375 0.20484 0.0
H1733 H 0.56588 0.90676 0.16767 0.0
H1734 H 0.50777 0.90237 0.07761 0.0
H1735 H 0.47334 0.89121 0.0553 0.0
H1736 H 0.49277 0.82828 0.05875 0.0
H1737 H 0.52718 0.83901 0.08172 0.0
C1738 C 0.6295 0.87047 0.02877 0.0
C1739 C 0.63092 0.84911 0.0232 0.0
C1740 C 0.61216 0.87924 0.04751 0.0
C1741 C 0.59597 0.86682 0.062 0.0
C1742 C 0.59706 0.84551 0.05487 0.0
C1743 C 0.6143 0.83677 0.03555 0.0
C1744 C 0.5782 0.87587 0.08543 0.0
C1745 C 0.55809 0.87063 0.07375 0.0
C1746 C 0.58091 0.88934 0.11955 0.0
C1747 C 0.60156 0.89443 0.13585 0.0
C1748 C 0.61501 0.87879 0.14861 0.0
C1749 C 0.6345 0.8837 0.16376 0.0
C1750 C 0.64065 0.9042 0.16663 0.0
C1751 C 0.62728 0.91984 0.15449 0.0
C1752 C 0.60778 0.91502 0.13926 0.0
C1753 C 0.49939 0.8853 0.20556 0.0
C1754 C 0.49457 0.90571 0.21641 0.0
C1755 C 0.51493 0.88087 0.17717 0.0
C1756 C 0.52624 0.89664 0.15843 0.0
C1757 C 0.52146 0.91714 0.16872 0.0
C1758 C 0.5056 0.92166 0.19714 0.0
C1759 C 0.54358 0.89124 0.12991 0.0
C1760 C 0.56362 0.8971 0.14072 0.0
C1761 C 0.54082 0.87801 0.09549 0.0
C1762 C 0.52006 0.87152 0.08165 0.0
C1763 C 0.50466 0.88614 0.07393 0.0
C1764 C 0.48513 0.87989 0.06111 0.0
C1765 C 0.48084 0.85905 0.05565 0.0
C1766 C 0.49608 0.84442 0.06297 0.0
C1767 C 0.51561 0.85058 0.07585 0.0
H1768 H 0.46573 0.85424 0.04571 0.0
H1769 H 0.65574 0.90797 0.17837 0.0
H1770 H 0.41771 0.39202 0.85577 0.0
H1771 H 0.40421 0.36098 0.88839 0.0
H1772 H 0.4111 0.32811 0.77347 0.0
H1773 H 0.42478 0.35942 0.74061 0.0
H1774 H 0.37212 0.32226 0.81157 0.0
H1775 H 0.44278 0.31615 0.84888 0.0
H1776 H 0.47625 0.32783 0.87564 0.0
H1777 H 0.44887 0.34075 0.99359 0.0
H1778 H 0.41518 0.32922 0.96758 0.0
H1779 H 0.34656 0.22743 0.91948 0.0
H1780 H 0.36004 0.25473 0.87438 0.0
H1781 H 0.36877 0.29358 0.98102 0.0
H1782 H 0.35613 0.26616 0.02575 0.0
H1783 H 0.40222 0.29331 0.93962 0.0
H1784 H 0.33108 0.30196 0.9012 0.0
H1785 H 0.29736 0.29099 0.87452 0.0
H1786 H 0.32514 0.27398 0.75897 0.0
H1787 H 0.35909 0.28461 0.78517 0.0
C1788 C 0.41665 0.3781 0.83755 0.0
C1789 C 0.42259 0.37808 0.79575 0.0
C1790 C 0.40891 0.36034 0.85625 0.0
C1791 C 0.40669 0.3421 0.83356 0.0
C1792 C 0.41271 0.34196 0.79171 0.0
C1793 C 0.42076 0.35977 0.77305 0.0
C1794 C 0.39758 0.32357 0.85384 0.0
C1795 C 0.37887 0.31564 0.83915 0.0
C1796 C 0.40615 0.31513 0.89025 0.0
C1797 C 0.4264 0.32198 0.90614 0.0
C1798 C 0.44386 0.32162 0.88044 0.0
C1799 C 0.46287 0.32819 0.89548 0.0
C1800 C 0.46466 0.33516 0.93615 0.0
C1801 C 0.44745 0.3354 0.96204 0.0
C1802 C 0.4284 0.32879 0.94721 0.0
C1803 C 0.35068 0.24209 0.93294 0.0
C1804 C 0.35001 0.2448 0.97605 0.0
C1805 C 0.35853 0.25769 0.90719 0.0
C1806 C 0.36556 0.27638 0.92409 0.0
C1807 C 0.36368 0.27936 0.96699 0.0
C1808 C 0.3562 0.26375 0.99259 0.0
C1809 C 0.37628 0.29231 0.89829 0.0
C1810 C 0.39543 0.29974 0.91189 0.0
C1811 C 0.36803 0.30029 0.86103 0.0
C1812 C 0.34765 0.29385 0.84533 0.0
C1813 C 0.33002 0.29571 0.87024 0.0
C1814 C 0.31086 0.28959 0.85517 0.0
C1815 C 0.30911 0.28173 0.81513 0.0
C1816 C 0.32652 0.28003 0.79002 0.0
C1817 C 0.34572 0.28611 0.80495 0.0
H1818 H 0.29427 0.277 0.80352 0.0
H1819 H 0.47938 0.34035 0.94759 0.0
H1820 H 0.9916 0.11351 0.77806 0.0
H1821 H 0.96413 0.12363 0.73073 0.0
H1822 H 0.99957 0.10125 0.62748 0.0
H1823 H 0.02706 0.0905 0.67525 0.0
H1824 H 0.9828 0.14481 0.6222 0.0
H1825 H 0.9614 0.07503 0.64561 0.0
H1826 H 0.95301 0.04488 0.68854 0.0
H1827 H 0.90529 0.07893 0.74939 0.0
H1828 H 0.91359 0.10939 0.70723 0.0
H1829 H 0.90007 0.16667 0.48229 0.0
H1830 H 0.9294 0.15168 0.51896 0.0
H1831 H 0.89331 0.14927 0.63104 0.0
H1832 H 0.86387 0.16341 0.59372 0.0
H1833 H 0.91238 0.11579 0.62581 0.0
H1834 H 0.93425 0.18574 0.6111 0.0
H1835 H 0.94167 0.21753 0.57247 0.0
H1836 H 0.98763 0.18607 0.5013 0.0
H1837 H 0.98029 0.15396 0.53923 0.0
C1838 C 0.99334 0.11028 0.74537 0.0
C1839 C 0.01135 0.10094 0.73041 0.0
C1840 C 0.97768 0.1162 0.71832 0.0
C1841 C 0.97981 0.11332 0.67552 0.0
C1842 C 0.99762 0.10364 0.6604 0.0
C1843 C 0.01317 0.09727 0.6877 0.0
C1844 C 0.96348 0.12099 0.64711 0.0
C1845 C 0.96749 0.13824 0.62225 0.0
C1846 C 0.94334 0.11287 0.64823 0.0
C1847 C 0.93824 0.09454 0.67348 0.0
C1848 C 0.94923 0.07614 0.66839 0.0
C1849 C 0.94447 0.05898 0.69254 0.0
C1850 C 0.92866 0.06 0.72174 0.0
C1851 C 0.91754 0.07817 0.72678 0.0
C1852 C 0.92225 0.09538 0.70273 0.0
C1853 C 0.89862 0.1633 0.51491 0.0
C1854 C 0.87988 0.16655 0.53542 0.0
C1855 C 0.91538 0.15467 0.53596 0.0
C1856 C 0.91385 0.14951 0.57819 0.0
C1857 C 0.89505 0.153 0.59858 0.0
C1858 C 0.87824 0.16124 0.57734 0.0
C1859 C 0.93144 0.13995 0.60111 0.0
C1860 C 0.92769 0.12233 0.62516 0.0
C1861 C 0.9517 0.14803 0.59983 0.0
C1862 C 0.95656 0.16739 0.57769 0.0
C1863 C 0.94588 0.18557 0.58708 0.0
C1864 C 0.95007 0.20364 0.56533 0.0
C1865 C 0.96505 0.20379 0.53435 0.0
C1866 C 0.97599 0.1859 0.52525 0.0
C1867 C 0.97184 0.16776 0.54691 0.0
H1868 H 0.96818 0.21778 0.51749 0.0
H1869 H 0.92499 0.0467 0.74041 0.0
H1870 H 0.14793 0.744 0.53167 0.0
H1871 H 0.13718 0.71607 0.48639 0.0
H1872 H 0.15921 0.74975 0.38041 0.0
H1873 H 0.17024 0.77797 0.42625 0.0
H1874 H 0.11855 0.73483 0.37092 0.0
H1875 H 0.18408 0.70756 0.40818 0.0
H1876 H 0.212 0.69763 0.45553 0.0
H1877 H 0.17163 0.65537 0.51717 0.0
H1878 H 0.14337 0.66524 0.47056 0.0
H1879 H 0.0957 0.64854 0.23973 0.0
H1880 H 0.11217 0.67744 0.27521 0.0
H1881 H 0.09972 0.64886 0.39296 0.0
H1882 H 0.08345 0.61989 0.35756 0.0
H1883 H 0.1385 0.662 0.39022 0.0
H1884 H 0.07255 0.69112 0.36045 0.0
H1885 H 0.0436 0.70013 0.31488 0.0
H1886 H 0.08337 0.73821 0.24175 0.0
H1887 H 0.11267 0.72929 0.28671 0.0
C1888 C 0.15099 0.74527 0.49881 0.0
C1889 C 0.16016 0.7631 0.48259 0.0
C1890 C 0.14476 0.72928 0.47288 0.0
C1891 C 0.14736 0.7307 0.42988 0.0
C1892 C 0.15705 0.74826 0.41349 0.0
C1893 C 0.1636 0.76426 0.4397 0.0
C1894 C 0.13896 0.71415 0.40264 0.0
C1895 C 0.12325 0.71896 0.37446 0.0
C1896 C 0.14458 0.69332 0.40801 0.0
C1897 C 0.16156 0.68725 0.43601 0.0
C1898 C 0.18111 0.69626 0.43202 0.0
C1899 C 0.197 0.69062 0.4587 0.0
C1900 C 0.19358 0.67591 0.48938 0.0
C1901 C 0.17426 0.66677 0.49339 0.0
C1902 C 0.1583 0.67236 0.46681 0.0
C1903 C 0.09625 0.64856 0.27319 0.0
C1904 C 0.08826 0.63192 0.29584 0.0
C1905 C 0.10569 0.6651 0.2935 0.0
C1906 C 0.10723 0.66543 0.33692 0.0
C1907 C 0.09889 0.64897 0.3595 0.0
C1908 C 0.08948 0.63245 0.33923 0.0
C1909 C 0.11792 0.68261 0.3589 0.0
C1910 C 0.134 0.6779 0.38621 0.0
C1911 C 0.11249 0.70347 0.35302 0.0
C1912 C 0.09484 0.70938 0.32668 0.0
C1913 C 0.07515 0.70135 0.33455 0.0
C1914 C 0.05869 0.70644 0.30887 0.0
C1915 C 0.06168 0.71965 0.27539 0.0
C1916 C 0.08111 0.72795 0.26768 0.0
C1917 C 0.09765 0.72291 0.2933 0.0
H1918 H 0.04893 0.72344 0.25549 0.0
H1919 H 0.2059 0.67156 0.51001 0.0
H1920 H 0.87084 0.67465 0.41628 0.0
H1921 H 0.90038 0.6585 0.38277 0.0
H1922 H 0.92834 0.6485 0.50188 0.0
H1923 H 0.89878 0.66502 0.53562 0.0
H1924 H 0.95711 0.65966 0.4454 0.0
H1925 H 0.90424 0.60921 0.4521 0.0
H1926 H 0.86935 0.59514 0.44347 0.0
H1927 H 0.87355 0.604 0.31213 0.0
H1928 H 0.90837 0.61841 0.32004 0.0
H1929 H 0.03012 0.59092 0.34904 0.0
H1930 H 1.0021 0.60201 0.39545 0.0
H1931 H 0.96727 0.62236 0.28984 0.0
H1932 H 0.99519 0.6117 0.24399 0.0
H1933 H 0.94293 0.60261 0.34786 0.0
H1934 H 0.99557 0.65479 0.3429 0.0
H1935 H 0.03057 0.66837 0.35246 0.0
H1936 H 0.02693 0.65584 0.48262 0.0
H1937 H 0.99209 0.64162 0.47367 0.0
C1938 C 0.88333 0.66914 0.43537 0.0
C1939 C 0.88236 0.67093 0.47863 0.0
C1940 C 0.90021 0.6598 0.41617 0.0
C1941 C 0.91649 0.65182 0.43973 0.0
C1942 C 0.91596 0.65436 0.48294 0.0
C1943 C 0.89903 0.66378 0.50222 0.0
C1944 C 0.93364 0.6404 0.41903 0.0
C1945 C 0.95403 0.64694 0.42467 0.0
C1946 C 0.92975 0.62383 0.39169 0.0
C1947 C 0.90887 0.61504 0.38671 0.0
C1948 C 0.89768 0.60829 0.42141 0.0
C1949 C 0.87792 0.60024 0.41664 0.0
C1950 C 0.86922 0.59872 0.37728 0.0
C1951 C 0.8803 0.6052 0.3426 0.0
C1952 C 0.90006 0.61329 0.3472 0.0
C1953 C 0.01619 0.59718 0.33585 0.0
C1954 C 0.01465 0.60018 0.29292 0.0
C1955 C 1.0003 0.60375 0.36234 0.0
C1956 C 0.98258 0.6132 0.3462 0.0
C1957 C 0.9807 0.61512 0.30313 0.0
C1958 C 0.99663 0.60893 0.2769 0.0
C1959 C 0.96632 0.62212 0.37352 0.0
C1960 C 0.94605 0.61512 0.36907 0.0
C1961 C 0.97039 0.63816 0.40208 0.0
C1962 C 0.99133 0.64678 0.40748 0.0
C1963 C 1.00232 0.65467 0.37349 0.0
C1964 C 0.02212 0.66253 0.37881 0.0
C1965 C 0.031 0.66291 0.41809 0.0
C1966 C 0.02006 0.65546 0.45217 0.0
C1967 C 1.0003 0.64745 0.44697 0.0
H1968 H 0.04632 0.66904 0.42214 0.0
H1969 H 0.85392 0.59248 0.37366 0.0
H1970 H 0.08488 0.12149 0.66851 0.0
H1971 H 0.10195 0.15082 0.63615 0.0
H1972 H 0.10992 0.17893 0.75575 0.0
H1973 H 0.09293 0.14932 0.78854 0.0
H1974 H 0.09782 0.20727 0.69228 0.0
H1975 H 0.14967 0.15668 0.71569 0.0
H1976 H 0.16471 0.12199 0.7137 0.0
H1977 H 0.1618 0.12216 0.58104 0.0
H1978 H 0.14644 0.15676 0.58225 0.0
H1979 H 0.16722 0.28071 0.60166 0.0
H1980 H 0.1556 0.25332 0.64889 0.0
H1981 H 0.14321 0.21424 0.54423 0.0
H1982 H 0.15441 0.24152 0.49743 0.0
H1983 H 0.16025 0.19265 0.60907 0.0
H1984 H 0.106 0.24143 0.58537 0.0
H1985 H 0.09025 0.27581 0.58577 0.0
H1986 H 0.09669 0.27882 0.71776 0.0
H1987 H 0.11303 0.24465 0.71802 0.0
C1988 C 0.09012 0.13396 0.68797 0.0
C1989 C 0.08762 0.133 0.73112 0.0
C1990 C 0.09993 0.15073 0.66941 0.0
C1991 C 0.10747 0.16703 0.69347 0.0
C1992 C 0.10429 0.16654 0.73651 0.0
C1993 C 0.09458 0.14961 0.75521 0.0
C1994 C 0.11933 0.184 0.6734 0.0
C1995 C 0.11171 0.20417 0.67481 0.0
C1996 C 0.13731 0.17997 0.65 0.0
C1997 C 0.14677 0.15926 0.64908 0.0
C1998 C 0.15211 0.14927 0.68609 0.0
C1999 C 0.16071 0.12963 0.68511 0.0
C2000 C 0.16418 0.11986 0.64727 0.0
C2001 C 0.1591 0.12975 0.61033 0.0
C2002 C 0.15046 0.14938 0.61114 0.0
C2003 C 0.16268 0.26601 0.58898 0.0
C2004 C 0.16199 0.26311 0.54593 0.0
C2005 C 0.15579 0.25046 0.6159 0.0
C2006 C 0.14832 0.23173 0.60014 0.0
C2007 C 0.1489 0.22847 0.55724 0.0
C2008 C 0.15541 0.24405 0.53049 0.0
C2009 C 0.13863 0.21591 0.62745 0.0
C2010 C 0.1466 0.19588 0.62721 0.0
C2011 C 0.12094 0.2201 0.65174 0.0
C2012 C 0.11104 0.2406 0.65165 0.0
C2013 C 0.10429 0.24951 0.61444 0.0
C2014 C 0.09521 0.26895 0.61454 0.0
C2015 C 0.0925 0.27951 0.65175 0.0
C2016 C 0.09885 0.27064 0.68894 0.0
C2017 C 0.10806 0.25125 0.68897 0.0
H2018 H 0.08543 0.29455 0.65178 0.0
H2019 H 0.17083 0.10465 0.64656 0.0
H2020 H 0.51813 0.40268 0.75377 0.0
H2021 H 0.54418 0.39124 0.80278 0.0
H2022 H 0.50368 0.40597 0.90425 0.0
H2023 H 0.47772 0.41826 0.85475 0.0
H2024 H 0.54199 0.413 0.92707 0.0
H2025 H 0.50741 0.35698 0.86597 0.0
H2026 H 0.49312 0.33596 0.80944 0.0
H2027 H 0.55382 0.32488 0.76272 0.0
H2028 H 0.56849 0.3464 0.81805 0.0
H2029 H 0.61019 0.31811 1.0008 0.0
H2030 H 0.57846 0.33179 0.97036 0.0
H2031 H 0.60858 0.38996 0.95 0.0
H2032 H 0.63985 0.37658 0.98143 0.0
H2033 H 0.56976 0.34364 0.89729 0.0
H2034 H 0.57587 0.42973 0.94928 0.0
H2035 H 0.58659 0.44937 1.01076 0.0
H2036 H 0.57693 0.3964 0.08729 0.0
H2037 H 0.5658 0.3765 0.02643 0.0
C2038 C 0.51502 0.40407 0.78659 0.0
C2039 C 0.49598 0.41152 0.80046 0.0
C2040 C 0.52984 0.39727 0.81464 0.0
C2041 C 0.52576 0.39712 0.85734 0.0
C2042 C 0.50721 0.40577 0.8715 0.0
C2043 C 0.49242 0.41295 0.84326 0.0
C2044 C 0.54049 0.38692 0.88637 0.0
C2045 C 0.54806 0.39784 0.92059 0.0
C2046 C 0.5478 0.3667 0.8792 0.0
C2047 C 0.53906 0.35345 0.84612 0.0
C2048 C 0.51772 0.35019 0.8435 0.0
C2049 C 0.50955 0.33819 0.81166 0.0
C2050 C 0.52255 0.32905 0.78265 0.0
C2051 C 0.54377 0.33196 0.78527 0.0
C2052 C 0.55202 0.34409 0.81683 0.0
C2053 C 0.60989 0.33389 0.99032 0.0
C2054 C 0.62752 0.34628 0.99356 0.0
C2055 C 0.59177 0.34171 0.97277 0.0
C2056 C 0.59089 0.36207 0.95815 0.0
C2057 C 0.60853 0.3744 0.96178 0.0
C2058 C 0.62652 0.36666 0.97951 0.0
C2059 C 0.57214 0.37016 0.93675 0.0
C2060 C 0.56367 0.35877 0.90403 0.0
C2061 C 0.56355 0.38964 0.94621 0.0
C2062 C 0.57014 0.40156 0.9831 0.0
C2063 C 0.57592 0.42228 0.97923 0.0
C2064 C 0.58208 0.43346 0.01399 0.0
C2065 C 0.58248 0.42412 0.05287 0.0
C2066 C 0.57667 0.40359 0.05711 0.0
C2067 C 0.57046 0.39234 0.02247 0.0
H2068 H 0.58727 0.43281 0.07969 0.0
H2069 H 0.51619 0.31968 0.75819 0.0
H2070 H 0.32293 0.75374 0.05686 0.0
H2071 H 0.33165 0.78095 0.107 0.0
H2072 H 0.39478 0.76081 0.10644 0.0
H2073 H 0.38618 0.73376 0.05825 0.0
H2074 H 0.38549 0.77088 0.18061 0.0
H2075 H 0.37673 0.80254 0.04681 0.0
H2076 H 0.35764 0.81185 0.98372 0.0
H2077 H 0.31235 0.84296 0.05727 0.0
H2078 H 0.33107 0.8336 0.12086 0.0
H2079 H 0.44205 0.86061 0.24028 0.0
H2080 H 0.42726 0.83025 0.2066 0.0
H2081 H 0.36682 0.85696 0.2167 0.0
H2082 H 0.38165 0.88745 0.24902 0.0
H2083 H 0.37135 0.84318 0.1428 0.0
H2084 H 0.38528 0.81467 0.27728 0.0
H2085 H 0.40562 0.80402 0.33787 0.0
H2086 H 0.44352 0.76624 0.26028 0.0
H2087 H 0.42373 0.77698 0.19907 0.0
C2088 C 0.33854 0.75498 0.06809 0.0
C2089 C 0.35387 0.74175 0.05302 0.0
C2090 C 0.34359 0.77063 0.09646 0.0
C2091 C 0.36402 0.77325 0.11013 0.0
C2092 C 0.37896 0.75931 0.09652 0.0
C2093 C 0.37398 0.74385 0.06853 0.0
C2094 C 0.37049 0.7908 0.13705 0.0
C2095 C 0.38247 0.78671 0.17223 0.0
C2096 C 0.36638 0.81151 0.1267 0.0
C2097 C 0.35514 0.81716 0.08856 0.0
C2098 C 0.36261 0.81123 0.04952 0.0
C2099 C 0.35188 0.81654 0.01368 0.0
C2100 C 0.33376 0.82793 0.01649 0.0
C2101 C 0.32637 0.83409 0.05515 0.0
C2102 C 0.33703 0.8288 0.09109 0.0
C2103 C 0.42559 0.85986 0.23566 0.0
C2104 C 0.41302 0.87645 0.24708 0.0
C2105 C 0.4171 0.84244 0.21657 0.0
C2106 C 0.3958 0.8411 0.20919 0.0
C2107 C 0.38326 0.85752 0.22176 0.0
C2108 C 0.39175 0.87496 0.24037 0.0
C2109 C 0.38665 0.82332 0.18627 0.0
C2110 C 0.37419 0.82738 0.15168 0.0
C2111 C 0.39067 0.80257 0.19682 0.0
C2112 C 0.40309 0.79678 0.23348 0.0
C2113 C 0.39812 0.80431 0.27302 0.0
C2114 C 0.40953 0.79823 0.30749 0.0
C2115 C 0.42582 0.78446 0.30287 0.0
C2116 C 0.43089 0.77691 0.26376 0.0
C2117 C 0.4196 0.78301 0.22918 0.0
H2118 H 0.43442 0.7795 0.32959 0.0
H2119 H 0.32547 0.83203 0.98871 0.0
H2120 H 0.11074 0.31813 0.52348 0.0
H2121 H 0.08006 0.3317 0.55834 0.0
H2122 H 0.11042 0.39012 0.57367 0.0
H2123 H 0.14059 0.37684 0.53791 0.0
H2124 H 0.07303 0.34313 0.63104 0.0
H2125 H 0.07774 0.42984 0.58138 0.0
H2126 H 0.08458 0.45042 0.51883 0.0
H2127 H 0.07243 0.39793 0.44246 0.0
H2128 H 0.06521 0.3771 0.50445 0.0
H2129 H 0.01874 0.39861 0.7793 0.0
H2130 H 0.04538 0.38736 0.73108 0.0
H2131 H 0.00788 0.40697 0.62851 0.0
H2132 H 0.98168 0.41937 0.67725 0.0
H2133 H 0.04453 0.41266 0.60697 0.0
H2134 H 0.01094 0.35539 0.66472 0.0
H2135 H 0.99699 0.33287 0.71909 0.0
H2136 H 0.05791 0.32117 0.76373 0.0
H2137 H 0.07223 0.34422 0.71048 0.0
C2138 C 0.1107 0.33394 0.53384 0.0
C2139 C 0.1281 0.34639 0.52794 0.0
C2140 C 0.09317 0.3417 0.55394 0.0
C2141 C 0.09265 0.3621 0.56854 0.0
C2142 C 0.11004 0.37453 0.56212 0.0
C2143 C 0.12744 0.36683 0.54187 0.0
C2144 C 0.0746 0.3701 0.59267 0.0
C2145 C 0.06681 0.35832 0.62559 0.0
C2146 C 0.06578 0.38966 0.58505 0.0
C2147 C 0.07104 0.40187 0.54769 0.0
C2148 C 0.0765 0.42268 0.55126 0.0
C2149 C 0.08038 0.43441 0.51588 0.0
C2150 C 0.07877 0.42552 0.47671 0.0
C2151 C 0.07357 0.40481 0.47283 0.0
C2152 C 0.06965 0.39302 0.5081 0.0
C2153 C 0.01644 0.401 0.74647 0.0
C2154 C 0.99819 0.41 0.73206 0.0
C2155 C 0.03156 0.39428 0.71879 0.0
C2156 C 0.02851 0.39561 0.67581 0.0
C2157 C 0.01069 0.40558 0.66139 0.0
C2158 C 0.99573 0.41281 0.68926 0.0
C2159 C 0.0436 0.38604 0.64631 0.0
C2160 C 0.05077 0.39748 0.61236 0.0
C2161 C 0.05118 0.36577 0.65181 0.0
C2162 C 0.04266 0.35174 0.68378 0.0
C2163 C 0.02137 0.34817 0.68633 0.0
C2164 C 0.01339 0.33529 0.71697 0.0
C2165 C 0.02654 0.32557 0.74484 0.0
C2166 C 0.04773 0.32874 0.74215 0.0
C2167 C 0.05579 0.34175 0.71179 0.0
H2168 H 0.02033 0.31558 0.76849 0.0
H2169 H 0.0817 0.43466 0.44936 0.0
H2170 H 0.94021 0.8647 0.28957 0.0
H2171 H 0.92529 0.835 0.32517 0.0
H2172 H 0.86441 0.85761 0.29879 0.0
H2173 H 0.87936 0.8877 0.26481 0.0
H2174 H 0.86483 0.84571 0.37434 0.0
H2175 H 0.88811 0.81424 0.24819 0.0
H2176 H 0.91284 0.80449 0.19374 0.0
H2177 H 0.95015 0.77371 0.28365 0.0
H2178 H 0.92596 0.78364 0.33882 0.0
H2179 H 0.82136 0.75132 0.45852 0.0
H2180 H 0.8296 0.77923 0.4094 0.0
H2181 H 0.8942 0.76963 0.43103 0.0
H2182 H 0.88635 0.74226 0.47878 0.0
H2183 H 0.88749 0.77405 0.35091 0.0
H2184 H 0.86789 0.80895 0.47699 0.0
H2185 H 0.84417 0.81811 0.53362 0.0
H2186 H 0.80105 0.84194 0.44558 0.0
H2187 H 0.82442 0.83266 0.38836 0.0
C2188 C 0.92365 0.86318 0.291 0.0
C2189 C 0.91095 0.87854 0.27449 0.0
C2190 C 0.91507 0.84613 0.31125 0.0
C2191 C 0.89359 0.84378 0.31451 0.0
C2192 C 0.88097 0.85895 0.297 0.0
C2193 C 0.88954 0.87613 0.27738 0.0
C2194 C 0.88429 0.82605 0.33756 0.0
C2195 C 0.86955 0.83001 0.36853 0.0
C2196 C 0.89053 0.80547 0.33085 0.0
C2197 C 0.90524 0.79977 0.29769 0.0
C2198 C 0.90168 0.80555 0.25641 0.0
C2199 C 0.9156 0.79999 0.22541 0.0
C2200 C 0.933 0.78846 0.23522 0.0
C2201 C 0.93665 0.78262 0.27609 0.0
C2202 C 0.92285 0.78822 0.30724 0.0
C2203 C 0.83728 0.75516 0.45256 0.0
C2204 C 0.8531 0.74458 0.47309 0.0
C2205 C 0.84199 0.77116 0.42461 0.0
C2206 C 0.86259 0.77666 0.41652 0.0
C2207 C 0.87823 0.76577 0.43645 0.0
C2208 C 0.8736 0.75009 0.46422 0.0
C2209 C 0.86846 0.7938 0.38802 0.0
C2210 C 0.88255 0.78974 0.35608 0.0
C2211 C 0.86178 0.81425 0.39407 0.0
C2212 C 0.84776 0.81986 0.4284 0.0
C2213 C 0.85327 0.81598 0.4697 0.0
C2214 C 0.83991 0.82122 0.5019 0.0
C2215 C 0.82108 0.83053 0.4932 0.0
C2216 C 0.81561 0.83468 0.45227 0.0
C2217 C 0.82891 0.82943 0.41994 0.0
H2218 H 0.81076 0.83458 0.51817 0.0
H2219 H 0.9436 0.78395 0.21115 0.0
H2220 H 0.36961 0.6725 0.10031 0.0
H2221 H 0.39931 0.65739 0.13456 0.0
H2222 H 0.43156 0.65493 0.01802 0.0
H2223 H 0.40142 0.66977 0.98321 0.0
H2224 H 0.43685 0.61948 0.06129 0.0
H2225 H 0.44674 0.69087 0.09126 0.0
H2226 H 0.43507 0.72535 0.11241 0.0
H2227 H 0.41663 0.70163 0.23065 0.0
H2228 H 0.42838 0.66704 0.21034 0.0
H2229 H 0.53108 0.59492 0.17143 0.0
H2230 H 0.50432 0.60836 0.12515 0.0
H2231 H 0.46514 0.61954 0.23057 0.0
H2232 H 0.49199 0.60683 0.27644 0.0
H2233 H 0.46626 0.65244 0.18614 0.0
H2234 H 0.45642 0.58039 0.15425 0.0
H2235 H 0.46727 0.54605 0.13069 0.0
H2236 H 0.48525 0.57114 0.01327 0.0
H2237 H 0.47473 0.60568 0.03633 0.0
C2238 C 0.38306 0.66888 0.08193 0.0
C2239 C 0.38318 0.6724 0.03907 0.0
C2240 C 0.40011 0.66028 0.10162 0.0
C2241 C 0.41789 0.6552 0.07911 0.0
C2242 C 0.41809 0.65872 0.03616 0.0
C2243 C 0.40091 0.66732 0.01633 0.0
C2244 C 0.43599 0.64605 0.10083 0.0
C2245 C 0.44355 0.62684 0.08816 0.0
C2246 C 0.44468 0.65547 0.13617 0.0
C2247 C 0.43843 0.67639 0.14927 0.0
C2248 C 0.44027 0.69304 0.12184 0.0
C2249 C 0.43368 0.7126 0.1337 0.0
C2250 C 0.4252 0.71569 0.17293 0.0
C2251 C 0.42334 0.69923 0.2004 0.0
C2252 C 0.43005 0.67967 0.1888 0.0
C2253 C 0.51646 0.59957 0.18442 0.0
C2254 C 0.5135 0.59953 0.22749 0.0
C2255 C 0.50118 0.60742 0.15799 0.0
C2256 C 0.48255 0.61509 0.17418 0.0
C2257 C 0.47932 0.61394 0.21709 0.0
C2258 C 0.4946 0.60641 0.24333 0.0
C2259 C 0.46685 0.62546 0.14742 0.0
C2260 C 0.45976 0.64505 0.1591 0.0
C2261 C 0.45874 0.61639 0.11104 0.0
C2262 C 0.46501 0.59564 0.09718 0.0
C2263 C 0.46284 0.5786 0.12353 0.0
C2264 C 0.46889 0.5591 0.11024 0.0
C2265 C 0.477 0.55643 0.07055 0.0
C2266 C 0.479 0.57324 0.04402 0.0
C2267 C 0.47298 0.59278 0.05717 0.0
H2268 H 0.48168 0.54132 0.06033 0.0
H2269 H 0.42002 0.73082 0.18201 0.0
H2270 H 0.63086 0.2816 0.94301 0.0
H2271 H 0.62017 0.2538 0.89733 0.0
H2272 H 0.6744 0.21956 0.93013 0.0
H2273 H 0.68544 0.2479 0.97573 0.0
H2274 H 0.6632 0.21461 0.84635 0.0
H2275 H 0.62941 0.21081 0.97986 0.0
H2276 H 0.60899 0.22518 0.03731 0.0
H2277 H 0.55875 0.23636 0.95454 0.0
H2278 H 0.57898 0.22232 0.89644 0.0
H2279 H 0.6272 0.11561 0.79375 0.0
H2280 H 0.64075 0.14632 0.82716 0.0
H2281 H 0.58256 0.17675 0.80979 0.0
H2282 H 0.5687 0.14557 0.77736 0.0
H2283 H 0.59563 0.18457 0.88401 0.0
H2284 H 0.62655 0.18901 0.75163 0.0
H2285 H 0.64585 0.17757 0.69013 0.0
H2286 H 0.69954 0.16822 0.76462 0.0
H2287 H 0.68051 0.1793 0.82667 0.0
C2288 C 0.6408 0.26836 0.9397 0.0
C2289 C 0.659 0.26691 0.96289 0.0
C2290 C 0.63458 0.25239 0.91378 0.0
C2291 C 0.64617 0.2343 0.91096 0.0
C2292 C 0.66511 0.23331 0.93198 0.0
C2293 C 0.67149 0.24952 0.95783 0.0
C2294 C 0.63765 0.21613 0.88845 0.0
C2295 C 0.6486 0.20782 0.85497 0.0
C2296 C 0.61815 0.20773 0.89855 0.0
C2297 C 0.60578 0.21564 0.93373 0.0
C2298 C 0.61404 0.21641 0.97387 0.0
C2299 C 0.60251 0.22449 1.00654 0.0
C2300 C 0.58261 0.23169 0.99955 0.0
C2301 C 0.57417 0.23077 0.95989 0.0
C2302 C 0.58566 0.22273 0.92709 0.0
C2303 C 0.61729 0.12887 0.79684 0.0
C2304 C 0.59688 0.12815 0.7828 0.0
C2305 C 0.62512 0.14654 0.81577 0.0
C2306 C 0.61287 0.16413 0.82065 0.0
C2307 C 0.59243 0.16347 0.80642 0.0
C2308 C 0.58451 0.14567 0.78767 0.0
C2309 C 0.62126 0.18281 0.84191 0.0
C2310 C 0.61027 0.19127 0.87524 0.0
C2311 C 0.64052 0.19158 0.83113 0.0
C2312 C 0.65204 0.18482 0.7939 0.0
C2313 C 0.64243 0.18435 0.75497 0.0
C2314 C 0.65333 0.17796 0.71998 0.0
C2315 C 0.6739 0.17217 0.72347 0.0
C2316 C 0.68362 0.17273 0.76193 0.0
C2317 C 0.67278 0.17907 0.79704 0.0
H2318 H 0.68229 0.16731 0.69633 0.0
H2319 H 0.57371 0.23794 0.02485 0.0
H2320 H 0.3359 0.23943 0.18695 0.0
H2321 H 0.30923 0.25235 0.23213 0.0
H2322 H 0.2637 0.21866 0.16324 0.0
H2323 H 0.2909 0.2056 0.11652 0.0
H2324 H 0.25049 0.25783 0.18345 0.0
H2325 H 0.2796 0.20173 0.25816 0.0
H2326 H 0.30742 0.18078 0.28789 0.0
H2327 H 0.32632 0.23162 0.36326 0.0
H2328 H 0.2988 0.25299 0.33353 0.0
H2329 H 0.17295 0.26848 0.33237 0.0
H2330 H 0.19935 0.25555 0.28653 0.0
H2331 H 0.24544 0.28832 0.35574 0.0
H2332 H 0.21853 0.30134 0.40314 0.0
H2333 H 0.25826 0.24946 0.33522 0.0
H2334 H 0.22932 0.30561 0.26044 0.0
H2335 H 0.20162 0.32667 0.23062 0.0
H2336 H 0.18248 0.27587 0.15537 0.0
H2337 H 0.2099 0.25439 0.18518 0.0
C2338 C 0.32024 0.23462 0.1811 0.0
C2339 C 0.31563 0.22127 0.14809 0.0
C2340 C 0.30494 0.24203 0.20733 0.0
C2341 C 0.28441 0.23622 0.20196 0.0
C2342 C 0.27947 0.22326 0.16835 0.0
C2343 C 0.29499 0.21577 0.14164 0.0
C2344 C 0.2685 0.24403 0.23167 0.0
C2345 C 0.252 0.25566 0.21657 0.0
C2346 C 0.27074 0.24187 0.27517 0.0
C2347 C 0.28722 0.22901 0.29336 0.0
C2348 C 0.28977 0.20849 0.28086 0.0
C2349 C 0.30548 0.19653 0.29775 0.0
C2350 C 0.31865 0.20488 0.32738 0.0
C2351 C 0.31611 0.22519 0.34028 0.0
C2352 C 0.30045 0.23722 0.32346 0.0
C2353 C 0.18867 0.2731 0.33812 0.0
C2354 C 0.19353 0.28615 0.37146 0.0
C2355 C 0.20382 0.26569 0.31149 0.0
C2356 C 0.22444 0.27121 0.31682 0.0
C2357 C 0.2296 0.28394 0.35065 0.0
C2358 C 0.21424 0.29142 0.37773 0.0
C2359 C 0.24025 0.26327 0.28702 0.0
C2360 C 0.25674 0.25162 0.30211 0.0
C2361 C 0.23801 0.26542 0.24351 0.0
C2362 C 0.22158 0.27834 0.2253 0.0
C2363 C 0.21912 0.29888 0.23775 0.0
C2364 C 0.20348 0.3109 0.22081 0.0
C2365 C 0.19027 0.3026 0.19119 0.0
C2366 C 0.19272 0.28228 0.17835 0.0
C2367 C 0.20832 0.27018 0.19522 0.0
H2368 H 0.17817 0.31194 0.17812 0.0
H2369 H 0.3308 0.19559 0.34041 0.0
H2370 H 0.54075 0.54085 0.35607 0.0
H2371 H 0.5269 0.51394 0.40234 0.0
H2372 H 0.52427 0.5577 0.50232 0.0
H2373 H 0.53809 0.58404 0.45712 0.0
H2374 H 0.53641 0.52253 0.53212 0.0
H2375 H 0.4814 0.54497 0.44284 0.0
H2376 H 0.46468 0.55106 0.37557 0.0
H2377 H 0.4688 0.48683 0.34699 0.0
H2378 H 0.48579 0.48041 0.41392 0.0
H2379 H 0.46917 0.46786 0.66966 0.0
H2380 H 0.48218 0.49523 0.62356 0.0
H2381 H 0.48322 0.45241 0.5218 0.0
H2382 H 0.47003 0.42569 0.56679 0.0
H2383 H 0.47179 0.48734 0.49298 0.0
H2384 H 0.52708 0.46478 0.58143 0.0
H2385 H 0.54407 0.45848 0.64836 0.0
H2386 H 0.53977 0.52256 0.67809 0.0
H2387 H 0.52251 0.52919 0.61152 0.0
C2388 C 0.53759 0.5445 0.38813 0.0
C2389 C 0.54049 0.56459 0.40284 0.0
C2390 C 0.52947 0.52921 0.41452 0.0
C2391 C 0.52421 0.53378 0.45597 0.0
C2392 C 0.5281 0.55362 0.47075 0.0
C2393 C 0.53601 0.56875 0.44463 0.0
C2394 C 0.51388 0.51856 0.48405 0.0
C2395 C 0.52219 0.51497 0.52357 0.0
C2396 C 0.49539 0.50843 0.47321 0.0
C2397 C 0.48506 0.51225 0.43315 0.0
C2398 C 0.47886 0.53217 0.42208 0.0
C2399 C 0.46932 0.53568 0.38404 0.0
C2400 C 0.46573 0.51935 0.35697 0.0
C2401 C 0.47162 0.49947 0.36796 0.0
C2402 C 0.4812 0.49589 0.40594 0.0
C2403 C 0.47171 0.46454 0.63724 0.0
C2404 C 0.46859 0.44459 0.62195 0.0
C2405 C 0.47939 0.48009 0.61093 0.0
C2406 C 0.4841 0.47589 0.56903 0.0
C2407 C 0.47984 0.45623 0.55371 0.0
C2408 C 0.47229 0.44087 0.5797 0.0
C2409 C 0.49434 0.49125 0.54106 0.0
C2410 C 0.48601 0.49489 0.50156 0.0
C2411 C 0.51285 0.50138 0.55188 0.0
C2412 C 0.52332 0.49744 0.59174 0.0
C2413 C 0.52964 0.4775 0.60238 0.0
C2414 C 0.53933 0.47387 0.64022 0.0
C2415 C 0.54294 0.4901 0.66751 0.0
C2416 C 0.53693 0.51 0.65696 0.0
C2417 C 0.5272 0.51371 0.61917 0.0
H2418 H 0.55044 0.48726 0.6968 0.0
H2419 H 0.45834 0.5221 0.32754 0.0
H2420 H 0.17363 0.78309 0.70431 0.0
H2421 H 0.20041 0.77033 0.74935 0.0
H2422 H 0.24589 0.78395 0.65616 0.0
H2423 H 0.21853 0.79672 0.60979 0.0
H2424 H 0.25186 0.74583 0.69055 0.0
H2425 H 0.24192 0.81332 0.74403 0.0
H2426 H 0.22224 0.84298 0.76995 0.0
H2427 H 0.19947 0.80668 0.87096 0.0
H2428 H 0.21877 0.7767 0.8453 0.0
H2429 H 0.33717 0.73511 0.82159 0.0
H2430 H 0.31002 0.74739 0.77689 0.0
H2431 H 0.26486 0.73075 0.86866 0.0
H2432 H 0.29257 0.71817 0.91453 0.0
H2433 H 0.2586 0.77017 0.83535 0.0
H2434 H 0.26897 0.70272 0.78186 0.0
H2435 H 0.28894 0.67328 0.7559 0.0
H2436 H 0.31127 0.7098 0.65482 0.0
H2437 H 0.29167 0.73958 0.68052 0.0
C2438 C 0.18933 0.78361 0.69319 0.0
C2439 C 0.1939 0.79109 0.65334 0.0
C2440 C 0.20472 0.77633 0.7193 0.0
C2441 C 0.22532 0.77637 0.70671 0.0
C2442 C 0.23011 0.78385 0.66682 0.0
C2443 C 0.21452 0.79128 0.64038 0.0
C2444 C 0.24139 0.76794 0.73525 0.0
C2445 C 0.25357 0.75142 0.72195 0.0
C2446 C 0.24324 0.77467 0.77687 0.0
C2447 C 0.23167 0.79271 0.79253 0.0
C2448 C 0.2326 0.81161 0.7716 0.0
C2449 C 0.22153 0.82849 0.78627 0.0
C2450 C 0.20958 0.8267 0.82203 0.0
C2451 C 0.20871 0.80804 0.84324 0.0
C2452 C 0.21974 0.7911 0.82867 0.0
C2453 C 0.32148 0.73383 0.83249 0.0
C2454 C 0.31709 0.72554 0.87176 0.0
C2455 C 0.30589 0.74085 0.80658 0.0
C2456 C 0.28529 0.73985 0.81892 0.0
C2457 C 0.28066 0.7316 0.85827 0.0
C2458 C 0.29645 0.72432 0.88441 0.0
C2459 C 0.26904 0.74808 0.79063 0.0
C2460 C 0.25685 0.76457 0.80396 0.0
C2461 C 0.26722 0.74135 0.74902 0.0
C2462 C 0.27897 0.72344 0.73333 0.0
C2463 C 0.27826 0.70453 0.75428 0.0
C2464 C 0.2895 0.68777 0.73957 0.0
C2465 C 0.3014 0.68968 0.70378 0.0
C2466 C 0.30205 0.70835 0.68256 0.0
C2467 C 0.29087 0.72517 0.69716 0.0
H2468 H 0.31009 0.67668 0.69244 0.0
H2469 H 0.20102 0.83979 0.83334 0.0
H2470 H 0.01727 0.58637 0.08814 0.0
H2471 H 1.00522 0.55945 0.04249 0.0
H2472 H 0.04314 0.51547 0.10626 0.0
H2473 H 0.05564 0.54297 0.15276 0.0
H2474 H 0.04573 0.51147 0.02079 0.0
H2475 H 0.99123 0.51509 0.11943 0.0
H2476 H 0.96507 0.53195 0.16291 0.0
H2477 H 0.93484 0.55473 0.05433 0.0
H2478 H 0.961 0.53825 1.01018 0.0
H2479 H 0.9996 0.42483 0.92915 0.0
H2480 H 0.0124 0.45144 0.97474 0.0
H2481 H 0.97284 0.49566 0.91583 0.0
H2482 H 0.95948 0.46846 0.86974 0.0
H2483 H 0.97125 0.49934 0.99943 0.0
H2484 H 0.02576 0.49598 0.90073 0.0
H2485 H 0.05199 0.47937 0.85704 0.0
H2486 H 0.08227 0.45632 0.96532 0.0
H2487 H 0.05605 0.47255 1.00968 0.0
C2488 C 0.02306 0.57097 0.0929 0.0
C2489 C 0.03741 0.56687 0.12437 0.0
C2490 C 0.01601 0.55549 0.06667 0.0
C2491 C 0.02296 0.53526 0.07097 0.0
C2492 C 0.03741 0.53095 0.10236 0.0
C2493 C 0.04448 0.54661 0.12909 0.0
C2494 C 0.01531 0.5191 0.04166 0.0
C2495 C 0.02946 0.50854 0.01671 0.0
C2496 C 0.99401 0.51571 0.03505 0.0
C2497 C 0.97818 0.52556 0.0615 0.0
C2498 C 0.97909 0.52382 0.10482 0.0
C2499 C 0.96425 0.53329 0.12959 0.0
C2500 C 0.94833 0.54444 0.1114 0.0
C2501 C 0.94719 0.5461 0.06839 0.0
C2502 C 0.96201 0.53668 0.04347 0.0
C2503 C 0.99368 0.44025 0.92535 0.0
C2504 C 0.97852 0.44448 0.89551 0.0
C2505 C 1.00116 0.45555 0.95153 0.0
C2506 C 0.99391 0.47576 0.94869 0.0
C2507 C 0.97883 0.48022 0.91863 0.0
C2508 C 0.97127 0.46473 0.89206 0.0
C2509 C 1.00167 0.49169 0.97845 0.0
C2510 C 0.98752 0.50223 1.00349 0.0
C2511 C 0.02297 0.49508 0.98511 0.0
C2512 C 0.03882 0.48535 0.95852 0.0
C2513 C 0.03792 0.48724 0.91523 0.0
C2514 C 0.0528 0.47792 0.89034 0.0
C2515 C 0.06876 0.46676 0.90839 0.0
C2516 C 0.06989 0.46495 0.95138 0.0
C2517 C 0.05503 0.47423 0.97641 0.0
H2518 H 0.08027 0.45955 0.88906 0.0
H2519 H 0.93685 0.55176 0.13063 0.0
H2520 H 0.67626 0.76428 0.83981 0.0
H2521 H 0.70291 0.75258 0.79299 0.0
H2522 H 0.74727 0.79032 0.8563 0.0
H2523 H 0.72003 0.80258 0.90367 0.0
H2524 H 0.7515 0.79333 0.7722 0.0
H2525 H 0.74697 0.73749 0.86759 0.0
H2526 H 0.72964 0.71094 0.90934 0.0
H2527 H 0.7066 0.68266 0.79881 0.0
H2528 H 0.72355 0.70921 0.7564 0.0
H2529 H 0.83785 0.74756 0.67796 0.0
H2530 H 0.81136 0.75992 0.72456 0.0
H2531 H 0.76666 0.72176 0.66329 0.0
H2532 H 0.7937 0.70885 0.61621 0.0
H2533 H 0.76275 0.71908 0.74665 0.0
H2534 H 0.76719 0.77482 0.65118 0.0
H2535 H 0.78449 0.80129 0.6092 0.0
H2536 H 0.80762 0.82975 0.71947 0.0
H2537 H 0.7907 0.80326 0.76212 0.0
C2538 C 0.6917 0.77007 0.84426 0.0
C2539 C 0.69596 0.78432 0.87588 0.0
C2540 C 0.70703 0.76323 0.81734 0.0
C2541 C 0.72731 0.77021 0.82117 0.0
C2542 C 0.73177 0.78454 0.85272 0.0
C2543 C 0.71625 0.79147 0.88001 0.0
C2544 C 0.74336 0.76275 0.79125 0.0
C2545 C 0.75422 0.77709 0.76721 0.0
C2546 C 0.74653 0.74153 0.78342 0.0
C2547 C 0.73641 0.72545 0.80883 0.0
C2548 C 0.73809 0.7257 0.85219 0.0
C2549 C 0.72835 0.71063 0.87598 0.0
C2550 C 0.71699 0.69515 0.85675 0.0
C2551 C 0.71539 0.69467 0.81367 0.0
C2552 C 0.72509 0.70971 0.78974 0.0
C2553 C 0.82236 0.74186 0.67389 0.0
C2554 C 0.81793 0.72725 0.64306 0.0
C2555 C 0.80712 0.74908 0.70066 0.0
C2556 C 0.7868 0.7421 0.69741 0.0
C2557 C 0.78218 0.72752 0.66644 0.0
C2558 C 0.79759 0.72023 0.63932 0.0
C2559 C 0.77089 0.74965 0.72755 0.0
C2560 C 0.76005 0.73532 0.75164 0.0
C2561 C 0.76774 0.77088 0.73538 0.0
C2562 C 0.7778 0.78694 0.70984 0.0
C2563 C 0.77608 0.78663 0.66648 0.0
C2564 C 0.7858 0.80166 0.64256 0.0
C2565 C 0.79718 0.81717 0.66165 0.0
C2566 C 0.79881 0.81772 0.70472 0.0
C2567 C 0.78914 0.80271 0.72879 0.0
H2568 H 0.80471 0.82878 0.64308 0.0
H2569 H 0.70946 0.6835 0.87521 0.0
H2570 H 0.67307 0.2751 0.19347 0.0
H2571 H 0.69957 0.26286 0.23967 0.0
H2572 H 0.74615 0.28275 0.15362 0.0
H2573 H 0.71909 0.2952 0.10606 0.0
H2574 H 0.75359 0.24336 0.18516 0.0
H2575 H 0.73836 0.30922 0.24224 0.0
H2576 H 0.71618 0.33709 0.26801 0.0
H2577 H 0.6931 0.29755 0.36365 0.0
H2578 H 0.71492 0.26933 0.33808 0.0
H2579 H 0.83579 0.23278 0.32327 0.0
H2580 H 0.80937 0.24511 0.27704 0.0
H2581 H 0.76273 0.22681 0.36443 0.0
H2582 H 0.78972 0.21441 0.41214 0.0
H2583 H 0.7553 0.26538 0.33208 0.0
H2584 H 0.77038 0.19953 0.2753 0.0
H2585 H 0.79246 0.17153 0.24975 0.0
H2586 H 0.81561 0.21077 0.15368 0.0
H2587 H 0.7939 0.23913 0.17903 0.0
C2588 C 0.68893 0.27708 0.18411 0.0
C2589 C 0.69389 0.28627 0.14592 0.0
C2590 C 0.70414 0.27008 0.21091 0.0
C2591 C 0.72496 0.27205 0.2007 0.0
C2592 C 0.73018 0.28114 0.1624 0.0
C2593 C 0.71475 0.28835 0.1353 0.0
C2594 C 0.74084 0.26406 0.23017 0.0
C2595 C 0.75422 0.24847 0.21706 0.0
C2596 C 0.74123 0.27011 0.27237 0.0
C2597 C 0.72817 0.2871 0.28802 0.0
C2598 C 0.72845 0.30641 0.26858 0.0
C2599 C 0.71596 0.32228 0.28318 0.0
C2600 C 0.70321 0.31908 0.31739 0.0
C2601 C 0.70297 0.30001 0.33713 0.0
C2602 C 0.71542 0.28407 0.32263 0.0
C2603 C 0.81993 0.23116 0.33293 0.0
C2604 C 0.81494 0.22245 0.37156 0.0
C2605 C 0.80475 0.2382 0.30609 0.0
C2606 C 0.78393 0.23668 0.31662 0.0
C2607 C 0.7787 0.22806 0.35536 0.0
C2608 C 0.79409 0.22087 0.38256 0.0
C2609 C 0.76808 0.24468 0.28709 0.0
C2610 C 0.75469 0.26027 0.30019 0.0
C2611 C 0.76765 0.2386 0.24489 0.0
C2612 C 0.78061 0.22152 0.22929 0.0
C2613 C 0.78028 0.20224 0.2489 0.0
C2614 C 0.79272 0.1863 0.23443 0.0
C2615 C 0.80546 0.18938 0.20017 0.0
C2616 C 0.80575 0.20841 0.18024 0.0
C2617 C 0.79335 0.22442 0.19462 0.0
H2618 H 0.81509 0.17702 0.18902 0.0
H2619 H 0.69355 0.33139 0.32865 0.0
H2620 H 0.00689 0.08533 0.91919 0.0
H2621 H 0.99456 0.05914 0.96664 0.0
H2622 H 0.04079 0.0173 0.92181 0.0
H2623 H 0.05318 0.04384 0.87304 0.0
H2624 H 1.00418 0.99747 0.93679 0.0
H2625 H 0.04727 0.04309 0.01338 0.0
H2626 H 0.05971 0.0766 0.03846 0.0
H2627 H 1.00114 0.08825 0.09501 0.0
H2628 H 0.98825 0.05492 0.06974 0.0
H2629 H 1.0004 0.9291 0.10332 0.0
H2630 H 0.01139 0.95554 0.05526 0.0
H2631 H 0.96378 0.99569 0.10046 0.0
H2632 H 0.95263 0.96882 0.1498 0.0
H2633 H 1.00046 0.01655 0.08527 0.0
H2634 H 0.95759 0.97048 1.00943 0.0
H2635 H 0.94544 0.93683 0.98462 0.0
H2636 H 1.00384 0.92587 0.92688 0.0
H2637 H 0.01647 0.95934 0.95188 0.0
C2638 C 0.01438 0.07049 0.91892 0.0
C2639 C 0.03113 0.06675 0.89236 0.0
C2640 C 0.00734 0.05551 0.94645 0.0
C2641 C 0.01699 0.03631 0.94887 0.0
C2642 C 0.03314 0.03205 0.92092 0.0
C2643 C 0.04019 0.04717 0.89289 0.0
C2644 C 0.01029 0.02119 0.98133 0.0
C2645 C 1.00369 1.00157 0.96929 0.0
C2646 C 0.009 0.02659 0.02387 0.0
C2647 C 0.01674 0.04658 0.03934 0.0
C2648 C 0.03699 0.05286 0.03091 0.0
C2649 C 0.04413 0.07181 0.0452 0.0
C2650 C 0.03121 0.08456 0.06824 0.0
C2651 C 0.01113 0.07836 0.07713 0.0
C2652 C 1.0039 0.05944 0.06286 0.0
C2653 C 0.99226 0.9436 0.1035 0.0
C2654 C 0.97552 0.94675 0.1304 0.0
C2655 C 0.99855 0.95873 0.07564 0.0
C2656 C 0.98819 0.97753 0.07324 0.0
C2657 C 0.97197 0.98124 0.10137 0.0
C2658 C 0.96563 0.96593 0.1297 0.0
C2659 C 0.99437 0.99283 0.04072 0.0
C2660 C 1.0009 0.01247 0.05276 0.0
C2661 C 0.99562 0.98744 0.99819 0.0
C2662 C 0.98803 0.96736 0.98283 0.0
C2663 C 0.9679 0.96084 0.9917 0.0
C2664 C 0.96092 0.9418 0.97756 0.0
C2665 C 0.97387 0.9292 0.95426 0.0
C2666 C 0.99383 0.93564 0.94496 0.0
C2667 C 1.0009 0.95465 0.95907 0.0
H2668 H 0.96844 0.91447 0.94335 0.0
H2669 H 0.03676 0.09923 0.07927 0.0
H2670 H 0.52515 0.08561 0.57853 0.0
H2671 H 0.5124 0.05948 0.53184 0.0
H2672 H 0.53638 0.01227 0.61167 0.0
H2673 H 0.54962 0.0389 0.65926 0.0
H2674 H 0.54365 1.00386 0.52907 0.0
H2675 H 0.48488 0.02267 0.60938 0.0
H2676 H 0.46003 0.04637 0.64151 0.0
H2677 H 0.44257 0.06856 0.52161 0.0
H2678 H 0.46754 0.0452 0.48875 0.0
H2679 H 0.4892 0.92227 0.44165 0.0
H2680 H 0.50195 0.94898 0.48679 0.0
H2681 H 0.47688 0.9951 0.40575 0.0
H2682 H 0.46352 0.96781 0.35973 0.0
H2683 H 0.47023 1.00447 0.48798 0.0
H2684 H 0.52872 0.98555 0.40751 0.0
H2685 H 0.55358 0.96193 0.37519 0.0
H2686 H 0.57166 0.94011 0.495 0.0
H2687 H 0.54668 0.96339 0.52805 0.0
C2688 C 0.52781 0.06969 0.5865 0.0
C2689 C 0.53837 0.06442 0.62298 0.0
C2690 C 0.52034 0.05469 0.55962 0.0
C2691 C 0.52298 0.03379 0.56833 0.0
C2692 C 0.53398 0.0283 0.6043 0.0
C2693 C 0.54154 0.04349 0.63154 0.0
C2694 C 0.51428 0.01806 0.53929 0.0
C2695 C 0.52753 1.00379 0.52068 0.0
C2696 C 0.49334 0.01831 0.52697 0.0
C2697 C 0.47822 0.0323 0.54662 0.0
C2698 C 0.47585 0.03271 0.58987 0.0
C2699 C 0.46173 0.04606 0.60821 0.0
C2700 C 0.44976 0.05899 0.58363 0.0
C2701 C 0.45186 0.05855 0.54062 0.0
C2702 C 0.46598 0.04524 0.52212 0.0
C2703 C 0.48632 0.93806 0.43301 0.0
C2704 C 0.47539 0.94282 0.39668 0.0
C2705 C 0.49379 0.95341 0.45903 0.0
C2706 C 0.49085 0.97418 0.44955 0.0
C2707 C 0.47953 0.97918 0.41368 0.0
C2708 C 0.47191 0.96361 0.38732 0.0
C2709 C 0.4996 0.99023 0.47784 0.0
C2710 C 0.48636 1.00456 0.49632 0.0
C2711 C 0.52056 0.99006 0.49 0.0
C2712 C 0.5357 0.97612 0.47024 0.0
C2713 C 0.53789 0.97562 0.42696 0.0
C2714 C 0.55202 0.9623 0.40851 0.0
C2715 C 0.56416 0.9495 0.43302 0.0
C2716 C 0.56223 0.95003 0.47605 0.0
C2717 C 0.54811 0.9633 0.49466 0.0
H2718 H 0.57509 0.9392 0.41867 0.0
H2719 H 0.43884 0.06932 0.59789 0.0
loop_
_geom_bond_atom_site_label_1
_geom_bond_atom_site_label_2
_geom_bond_distance
_geom_bond_site_symmetry_2
_ccdc_geom_bond_type
Tb0 O3 2.453 . S
Tb0 O4 2.596 . S
Tb0 O5 2.374 . S
Tb0 O13 2.343 . S
Tb0 O15 2.353 . S
Tb0 O17 2.427 . S
Tb0 O18 2.513 . S
C1 O5 1.251 . S
C1 O7 1.263 . S
Tb2 O4 2.343 . S
Tb2 O7 2.353 . S
Tb2 O10 2.427 . S
Tb2 O11 2.513 . S
Tb2 O12 2.441 1_554 S
Tb2 O13 2.596 . S
Tb2 O14 2.374 . S
O3 Tb0 2.453 . S
O3 C19 1.245 . S
O4 Tb0 2.596 . S
O4 Tb2 2.343 . S
O4 C19 1.259 . S
O5 Tb0 2.374 . S
O5 C1 1.251 . S
C6 O10 1.275 . S
C6 O11 1.246 . S
O7 C1 1.263 . S
O7 Tb2 2.353 . S
C8 O12 1.231 1_554 S
C8 O13 1.259 . S
C9 O14 1.250 . S
C9 O15 1.263 . S
O10 Tb2 2.427 . S
O10 C6 1.275 . S
O11 Tb2 2.513 . S
O11 C6 1.246 . S
O12 Tb2 2.441 1_556 S
O12 C8 1.231 1_556 S
O13 Tb0 2.343 . S
O13 Tb2 2.596 . S
O13 C8 1.259 . S
O14 Tb2 2.374 . S
O14 C9 1.250 . S
O15 Tb0 2.353 . S
O15 C9 1.263 . S
C16 O17 1.275 . S
C16 O18 1.246 . S
O17 Tb0 2.427 . S
O17 C16 1.275 . S
O18 Tb0 2.513 . S
O18 C16 1.246 . S
C19 O3 1.245 . S
C19 O4 1.259 . S
Tb20 O23 2.453 . S
Tb20 O24 2.596 . S
Tb20 O25 2.374 . S
Tb20 O33 2.343 . S
Tb20 O35 2.353 . S
Tb20 O37 2.427 . S
Tb20 O38 2.513 . S
C21 O25 1.251 . S
C21 O27 1.263 . S
Tb22 O24 2.343 . S
Tb22 O27 2.353 . S
Tb22 O30 2.427 . S
Tb22 O31 2.513 . S
Tb22 O32 2.453 . S
Tb22 O33 2.596 . S
Tb22 O34 2.374 . S
O23 Tb20 2.453 . S
O23 C39 1.245 . S
O24 Tb20 2.596 . S
O24 Tb22 2.343 . S
O24 C39 1.259 . S
O25 Tb20 2.374 . S
O25 C21 1.251 . S
C26 O30 1.275 . S
C26 O31 1.246 . S
O27 C21 1.263 . S
O27 Tb22 2.353 . S
C28 O32 1.245 . S
C28 O33 1.259 . S
C29 O34 1.250 . S
C29 O35 1.263 . S
O30 Tb22 2.427 . S
O30 C26 1.275 . S
O31 Tb22 2.513 . S
O31 C26 1.246 . S
O32 Tb22 2.453 . S
O32 C28 1.245 . S
O33 Tb20 2.343 . S
O33 Tb22 2.596 . S
O33 C28 1.259 . S
O34 Tb22 2.374 . S
O34 C29 1.250 . S
O35 Tb20 2.353 . S
O35 C29 1.263 . S
C36 O37 1.275 . S
C36 O38 1.246 . S
O37 Tb20 2.427 . S
O37 C36 1.275 . S
O38 Tb20 2.513 . S
O38 C36 1.246 . S
C39 O23 1.245 . S
C39 O24 1.259 . S
Tb40 O43 2.453 . S
Tb40 O44 2.596 . S
Tb40 O45 2.374 . S
Tb40 O53 2.343 . S
Tb40 O55 2.353 . S
Tb40 O57 2.427 . S
Tb40 O58 2.513 . S
C41 O45 1.251 . S
C41 O47 1.263 . S
Tb42 O44 2.343 . S
Tb42 O47 2.353 . S
Tb42 O50 2.427 . S
Tb42 O51 2.513 . S
Tb42 O52 2.453 . S
Tb42 O53 2.596 . S
Tb42 O54 2.374 . S
O43 Tb40 2.453 . S
O43 C59 1.245 . S
O44 Tb40 2.596 . S
O44 Tb42 2.343 . S
O44 C59 1.259 . S
O45 Tb40 2.374 . S
O45 C41 1.251 . S
C46 O50 1.275 . S
C46 O51 1.246 . S
O47 C41 1.263 . S
O47 Tb42 2.353 . S
C48 O52 1.245 . S
C48 O53 1.259 . S
C49 O54 1.250 . S
C49 O55 1.263 . S
O50 Tb42 2.427 . S
O50 C46 1.275 . S
O51 Tb42 2.513 . S
O51 C46 1.246 . S
O52 Tb42 2.453 . S
O52 C48 1.245 . S
O53 Tb40 2.343 . S
O53 Tb42 2.596 . S
O53 C48 1.259 . S
O54 Tb42 2.374 . S
O54 C49 1.250 . S
O55 Tb40 2.353 . S
O55 C49 1.263 . S
C56 O57 1.275 . S
C56 O58 1.246 . S
O57 Tb40 2.427 . S
O57 C56 1.275 . S
O58 Tb40 2.513 . S
O58 C56 1.246 . S
C59 O43 1.245 . S
C59 O44 1.259 . S
Tb60 O63 2.453 . S
Tb60 O64 2.596 . S
Tb60 O65 2.374 . S
Tb60 O73 2.343 . S
Tb60 O75 2.353 . S
Tb60 O77 2.427 . S
Tb60 O78 2.513 . S
C61 O65 1.251 . S
C61 O67 1.263 . S
Tb62 O64 2.343 . S
Tb62 O67 2.353 . S
Tb62 O70 2.427 . S
Tb62 O71 2.513 . S
Tb62 O72 2.453 . S
Tb62 O73 2.596 . S
Tb62 O74 2.374 . S
O63 Tb60 2.453 . S
O63 C79 1.245 . S
O64 Tb60 2.596 . S
O64 Tb62 2.343 . S
O64 C79 1.259 . S
O65 Tb60 2.374 . S
O65 C61 1.251 . S
C66 O70 1.275 . S
C66 O71 1.246 . S
O67 C61 1.263 . S
O67 Tb62 2.353 . S
C68 O72 1.245 . S
C68 O73 1.259 . S
C69 O74 1.250 . S
C69 O75 1.263 . S
O70 Tb62 2.427 . S
O70 C66 1.275 . S
O71 Tb62 2.513 . S
O71 C66 1.246 . S
O72 Tb62 2.453 . S
O72 C68 1.245 . S
O73 Tb60 2.343 . S
O73 Tb62 2.596 . S
O73 C68 1.259 . S
O74 Tb62 2.374 . S
O74 C69 1.250 . S
O75 Tb60 2.353 . S
O75 C69 1.263 . S
C76 O77 1.275 . S
C76 O78 1.246 . S
O77 Tb60 2.427 . S
O77 C76 1.275 . S
O78 Tb60 2.513 . S
O78 C76 1.246 . S
C79 O63 1.245 . S
C79 O64 1.259 . S
Tb80 O83 2.441 1_556 S
Tb80 O84 2.596 . S
Tb80 O85 2.374 . S
Tb80 O93 2.343 . S
Tb80 O95 2.353 . S
Tb80 O97 2.427 . S
Tb80 O98 2.513 . S
C81 O85 1.251 . S
C81 O87 1.263 . S
Tb82 O84 2.343 . S
Tb82 O87 2.353 . S
Tb82 O90 2.427 . S
Tb82 O91 2.513 . S
Tb82 O92 2.453 . S
Tb82 O93 2.596 . S
Tb82 O94 2.374 . S
O83 Tb80 2.441 1_554 S
O83 C99 1.231 1_554 S
O84 Tb80 2.596 . S
O84 Tb82 2.343 . S
O84 C99 1.259 . S
O85 Tb80 2.374 . S
O85 C81 1.251 . S
C86 O90 1.275 . S
C86 O91 1.246 . S
O87 C81 1.263 . S
O87 Tb82 2.353 . S
C88 O92 1.245 . S
C88 O93 1.259 . S
C89 O94 1.250 . S
C89 O95 1.263 . S
O90 Tb82 2.427 . S
O90 C86 1.275 . S
O91 Tb82 2.513 . S
O91 C86 1.246 . S
O92 Tb82 2.453 . S
O92 C88 1.245 . S
O93 Tb80 2.343 . S
O93 Tb82 2.596 . S
O93 C88 1.259 . S
O94 Tb82 2.374 . S
O94 C89 1.250 . S
O95 Tb80 2.353 . S
O95 C89 1.263 . S
C96 O97 1.275 . S
C96 O98 1.246 . S
O97 Tb80 2.427 . S
O97 C96 1.275 . S
O98 Tb80 2.513 . S
O98 C96 1.246 . S
C99 O83 1.231 1_556 S
C99 O84 1.259 . S
Tb100 O103 2.453 . S
Tb100 O104 2.596 . S
Tb100 O105 2.374 . S
Tb100 O113 2.343 . S
Tb100 O115 2.353 . S
Tb100 O117 2.427 . S
Tb100 O118 2.513 . S
C101 O105 1.251 . S
C101 O107 1.263 . S
Tb102 O104 2.343 . S
Tb102 O107 2.353 . S
Tb102 O110 2.427 . S
Tb102 O111 2.513 . S
Tb102 O112 2.453 . S
Tb102 O113 2.596 . S
Tb102 O114 2.374 . S
O103 Tb100 2.453 . S
O103 C119 1.245 . S
O104 Tb100 2.596 . S
O104 Tb102 2.343 . S
O104 C119 1.259 . S
O105 Tb100 2.374 . S
O105 C101 1.251 . S
C106 O110 1.275 . S
C106 O111 1.246 . S
O107 C101 1.263 . S
O107 Tb102 2.353 . S
C108 O112 1.245 . S
C108 O113 1.259 . S
C109 O114 1.250 . S
C109 O115 1.263 . S
O110 Tb102 2.427 . S
O110 C106 1.275 . S
O111 Tb102 2.513 . S
O111 C106 1.246 . S
O112 Tb102 2.453 . S
O112 C108 1.245 . S
O113 Tb100 2.343 . S
O113 Tb102 2.596 . S
O113 C108 1.259 . S
O114 Tb102 2.374 . S
O114 C109 1.250 . S
O115 Tb100 2.353 . S
O115 C109 1.263 . S
C116 O117 1.275 . S
C116 O118 1.246 . S
O117 Tb100 2.427 . S
O117 C116 1.275 . S
O118 Tb100 2.513 . S
O118 C116 1.246 . S
C119 O103 1.245 . S
C119 O104 1.259 . S
Tb120 O123 2.453 . S
Tb120 O124 2.596 . S
Tb120 O125 2.374 . S
Tb120 O133 2.343 . S
Tb120 O135 2.353 . S
Tb120 O137 2.427 . S
Tb120 O138 2.513 . S
C121 O125 1.251 . S
C121 O127 1.263 . S
Tb122 O124 2.343 . S
Tb122 O127 2.353 . S
Tb122 O130 2.427 . S
Tb122 O131 2.513 . S
Tb122 O132 2.453 . S
Tb122 O133 2.596 . S
Tb122 O134 2.374 . S
O123 Tb120 2.453 . S
O123 C139 1.245 . S
O124 Tb120 2.596 . S
O124 Tb122 2.343 . S
O124 C139 1.259 . S
O125 Tb120 2.374 . S
O125 C121 1.251 . S
C126 O130 1.275 . S
C126 O131 1.246 . S
O127 C121 1.263 . S
O127 Tb122 2.353 . S
C128 O132 1.245 . S
C128 O133 1.259 . S
C129 O134 1.250 . S
C129 O135 1.263 . S
O130 Tb122 2.427 . S
O130 C126 1.275 . S
O131 Tb122 2.513 . S
O131 C126 1.246 . S
O132 Tb122 2.453 . S
O132 C128 1.245 . S
O133 Tb120 2.343 . S
O133 Tb122 2.596 . S
O133 C128 1.259 . S
O134 Tb122 2.374 . S
O134 C129 1.250 . S
O135 Tb120 2.353 . S
O135 C129 1.263 . S
C136 O137 1.275 . S
C136 O138 1.246 . S
O137 Tb120 2.427 . S
O137 C136 1.275 . S
O138 Tb120 2.513 . S
O138 C136 1.246 . S
C139 O123 1.245 . S
C139 O124 1.259 . S
Tb140 O143 2.453 . S
Tb140 O144 2.596 . S
Tb140 O145 2.374 . S
Tb140 O153 2.343 . S
Tb140 O155 2.353 . S
Tb140 O157 2.427 . S
Tb140 O158 2.513 . S
C141 O145 1.251 . S
C141 O147 1.263 . S
Tb142 O144 2.343 . S
Tb142 O147 2.353 . S
Tb142 O150 2.427 . S
Tb142 O151 2.513 . S
Tb142 O152 2.453 . S
Tb142 O153 2.596 . S
Tb142 O154 2.374 . S
O143 Tb140 2.453 . S
O143 C159 1.245 . S
O144 Tb140 2.596 . S
O144 Tb142 2.343 . S
O144 C159 1.259 . S
O145 Tb140 2.374 . S
O145 C141 1.251 . S
C146 O150 1.275 . S
C146 O151 1.246 . S
O147 C141 1.263 . S
O147 Tb142 2.353 . S
C148 O152 1.245 . S
C148 O153 1.259 . S
C149 O154 1.250 . S
C149 O155 1.263 . S
O150 Tb142 2.427 . S
O150 C146 1.275 . S
O151 Tb142 2.513 . S
O151 C146 1.246 . S
O152 Tb142 2.453 . S
O152 C148 1.245 . S
O153 Tb140 2.343 . S
O153 Tb142 2.596 . S
O153 C148 1.259 . S
O154 Tb142 2.374 . S
O154 C149 1.250 . S
O155 Tb140 2.353 . S
O155 C149 1.263 . S
C156 O157 1.275 . S
C156 O158 1.246 . S
O157 Tb140 2.427 . S
O157 C156 1.275 . S
O158 Tb140 2.513 . S
O158 C156 1.246 . S
C159 O143 1.245 . S
C159 O144 1.259 . S
Tb160 O163 2.453 . S
Tb160 O164 2.596 . S
Tb160 O165 2.374 . S
Tb160 O173 2.343 . S
Tb160 O175 2.353 . S
Tb160 O177 2.427 . S
Tb160 O178 2.513 . S
C161 O165 1.251 . S
C161 O167 1.263 . S
Tb162 O164 2.343 . S
Tb162 O167 2.353 . S
Tb162 O170 2.427 . S
Tb162 O171 2.513 . S
Tb162 O172 2.453 . S
Tb162 O173 2.596 . S
Tb162 O174 2.374 . S
O163 Tb160 2.453 . S
O163 C179 1.245 . S
O164 Tb160 2.596 . S
O164 Tb162 2.343 . S
O164 C179 1.259 . S
O165 Tb160 2.374 . S
O165 C161 1.251 . S
C166 O170 1.275 . S
C166 O171 1.246 . S
O167 C161 1.263 . S
O167 Tb162 2.353 . S
C168 O172 1.245 . S
C168 O173 1.259 . S
C169 O174 1.250 . S
C169 O175 1.263 . S
O170 Tb162 2.427 . S
O170 C166 1.275 . S
O171 Tb162 2.513 . S
O171 C166 1.246 . S
O172 Tb162 2.453 . S
O172 C168 1.245 . S
O173 Tb160 2.343 . S
O173 Tb162 2.596 . S
O173 C168 1.259 . S
O174 Tb162 2.374 . S
O174 C169 1.250 . S
O175 Tb160 2.353 . S
O175 C169 1.263 . S
C176 O177 1.275 . S
C176 O178 1.246 . S
O177 Tb160 2.427 . S
O177 C176 1.275 . S
O178 Tb160 2.513 . S
O178 C176 1.246 . S
C179 O163 1.245 . S
C179 O164 1.259 . S
Tb180 O183 2.453 . S
Tb180 O184 2.596 . S
Tb180 O185 2.374 . S
Tb180 O193 2.343 . S
Tb180 O195 2.353 . S
Tb180 O197 2.427 . S
Tb180 O198 2.513 . S
C181 O185 1.251 . S
C181 O187 1.263 . S
Tb182 O184 2.343 . S
Tb182 O187 2.353 . S
Tb182 O190 2.427 . S
Tb182 O191 2.513 . S
Tb182 O192 2.453 . S
Tb182 O193 2.596 . S
Tb182 O194 2.374 . S
O183 Tb180 2.453 . S
O183 C199 1.245 . S
O184 Tb180 2.596 . S
O184 Tb182 2.343 . S
O184 C199 1.259 . S
O185 Tb180 2.374 . S
O185 C181 1.251 . S
C186 O190 1.275 . S
C186 O191 1.246 . S
O187 C181 1.263 . S
O187 Tb182 2.353 . S
C188 O192 1.245 . S
C188 O193 1.259 . S
C189 O194 1.250 . S
C189 O195 1.263 . S
O190 Tb182 2.427 . S
O190 C186 1.275 . S
O191 Tb182 2.513 . S
O191 C186 1.246 . S
O192 Tb182 2.453 . S
O192 C188 1.245 . S
O193 Tb180 2.343 . S
O193 Tb182 2.596 . S
O193 C188 1.259 . S
O194 Tb182 2.374 . S
O194 C189 1.250 . S
O195 Tb180 2.353 . S
O195 C189 1.263 . S
C196 O197 1.275 . S
C196 O198 1.246 . S
O197 Tb180 2.427 . S
O197 C196 1.275 . S
O198 Tb180 2.513 . S
O198 C196 1.246 . S
C199 O183 1.245 . S
C199 O184 1.259 . S
Tb200 O203 2.453 . S
Tb200 O204 2.596 . S
Tb200 O205 2.374 . S
Tb200 O213 2.343 . S
Tb200 O215 2.353 . S
Tb200 O217 2.427 . S
Tb200 O218 2.513 . S
C201 O205 1.251 . S
C201 O207 1.263 . S
Tb202 O204 2.343 . S
Tb202 O207 2.353 . S
Tb202 O210 2.427 . S
Tb202 O211 2.513 . S
Tb202 O212 2.441 1_554 S
Tb202 O213 2.596 . S
Tb202 O214 2.374 . S
O203 Tb200 2.453 . S
O203 C219 1.245 . S
O204 Tb200 2.596 . S
O204 Tb202 2.343 . S
O204 C219 1.259 . S
O205 Tb200 2.374 . S
O205 C201 1.251 . S
C206 O210 1.275 . S
C206 O211 1.246 . S
O207 C201 1.263 . S
O207 Tb202 2.353 . S
C208 O212 1.231 1_554 S
C208 O213 1.259 . S
C209 O214 1.250 . S
C209 O215 1.263 . S
O210 Tb202 2.427 . S
O210 C206 1.275 . S
O211 Tb202 2.513 . S
O211 C206 1.246 . S
O212 Tb202 2.441 1_556 S
O212 C208 1.231 1_556 S
O213 Tb200 2.343 . S
O213 Tb202 2.596 . S
O213 C208 1.259 . S
O214 Tb202 2.374 . S
O214 C209 1.250 . S
O215 Tb200 2.353 . S
O215 C209 1.263 . S
C216 O217 1.275 . S
C216 O218 1.246 . S
O217 Tb200 2.427 . S
O217 C216 1.275 . S
O218 Tb200 2.513 . S
O218 C216 1.246 . S
C219 O203 1.245 . S
C219 O204 1.259 . S
Tb220 O223 2.453 . S
Tb220 O224 2.596 . S
Tb220 O225 2.374 . S
Tb220 O233 2.343 . S
Tb220 O235 2.353 . S
Tb220 O237 2.427 . S
Tb220 O238 2.513 . S
C221 O225 1.251 . S
C221 O227 1.263 . S
Tb222 O224 2.343 . S
Tb222 O227 2.353 . S
Tb222 O230 2.427 . S
Tb222 O231 2.513 . S
Tb222 O232 2.453 . S
Tb222 O233 2.596 . S
Tb222 O234 2.374 . S
O223 Tb220 2.453 . S
O223 C239 1.245 . S
O224 Tb220 2.596 . S
O224 Tb222 2.343 . S
O224 C239 1.259 . S
O225 Tb220 2.374 . S
O225 C221 1.251 . S
C226 O230 1.275 . S
C226 O231 1.246 . S
O227 C221 1.263 . S
O227 Tb222 2.353 . S
C228 O232 1.245 . S
C228 O233 1.259 . S
C229 O234 1.250 . S
C229 O235 1.263 . S
O230 Tb222 2.427 . S
O230 C226 1.275 . S
O231 Tb222 2.513 . S
O231 C226 1.246 . S
O232 Tb222 2.453 . S
O232 C228 1.245 . S
O233 Tb220 2.343 . S
O233 Tb222 2.596 . S
O233 C228 1.259 . S
O234 Tb222 2.374 . S
O234 C229 1.250 . S
O235 Tb220 2.353 . S
O235 C229 1.263 . S
C236 O237 1.275 . S
C236 O238 1.246 . S
O237 Tb220 2.427 . S
O237 C236 1.275 . S
O238 Tb220 2.513 . S
O238 C236 1.246 . S
C239 O223 1.245 . S
C239 O224 1.259 . S
Tb240 O243 2.453 . S
Tb240 O244 2.596 . S
Tb240 O245 2.374 . S
Tb240 O253 2.343 . S
Tb240 O255 2.353 . S
Tb240 O257 2.427 . S
Tb240 O258 2.513 . S
C241 O245 1.251 . S
C241 O247 1.263 . S
Tb242 O244 2.343 . S
Tb242 O247 2.353 . S
Tb242 O250 2.427 . S
Tb242 O251 2.513 . S
Tb242 O252 2.453 . S
Tb242 O253 2.596 . S
Tb242 O254 2.374 . S
O243 Tb240 2.453 . S
O243 C259 1.245 . S
O244 Tb240 2.596 . S
O244 Tb242 2.343 . S
O244 C259 1.259 . S
O245 Tb240 2.374 . S
O245 C241 1.251 . S
C246 O250 1.275 . S
C246 O251 1.246 . S
O247 C241 1.263 . S
O247 Tb242 2.353 . S
C248 O252 1.245 . S
C248 O253 1.259 . S
C249 O254 1.250 . S
C249 O255 1.263 . S
O250 Tb242 2.427 . S
O250 C246 1.275 . S
O251 Tb242 2.513 . S
O251 C246 1.246 . S
O252 Tb242 2.453 . S
O252 C248 1.245 . S
O253 Tb240 2.343 . S
O253 Tb242 2.596 . S
O253 C248 1.259 . S
O254 Tb242 2.374 . S
O254 C249 1.250 . S
O255 Tb240 2.353 . S
O255 C249 1.263 . S
C256 O257 1.275 . S
C256 O258 1.246 . S
O257 Tb240 2.427 . S
O257 C256 1.275 . S
O258 Tb240 2.513 . S
O258 C256 1.246 . S
C259 O243 1.245 . S
C259 O244 1.259 . S
Tb260 O263 2.453 . S
Tb260 O264 2.596 . S
Tb260 O265 2.374 . S
Tb260 O273 2.343 . S
Tb260 O275 2.353 . S
Tb260 O277 2.427 . S
Tb260 O278 2.513 . S
C261 O265 1.251 . S
C261 O267 1.263 . S
Tb262 O264 2.343 . S
Tb262 O267 2.353 . S
Tb262 O270 2.427 . S
Tb262 O271 2.513 . S
Tb262 O272 2.453 . S
Tb262 O273 2.596 . S
Tb262 O274 2.374 . S
O263 Tb260 2.453 . S
O263 C279 1.245 . S
O264 Tb260 2.596 . S
O264 Tb262 2.343 . S
O264 C279 1.259 . S
O265 Tb260 2.374 . S
O265 C261 1.251 . S
C266 O270 1.275 . S
C266 O271 1.246 . S
O267 C261 1.263 . S
O267 Tb262 2.353 . S
C268 O272 1.245 . S
C268 O273 1.259 . S
C269 O274 1.250 . S
C269 O275 1.263 . S
O270 Tb262 2.427 . S
O270 C266 1.275 . S
O271 Tb262 2.513 . S
O271 C266 1.246 . S
O272 Tb262 2.453 . S
O272 C268 1.245 . S
O273 Tb260 2.343 . S
O273 Tb262 2.596 . S
O273 C268 1.259 . S
O274 Tb262 2.374 . S
O274 C269 1.250 . S
O275 Tb260 2.353 . S
O275 C269 1.263 . S
C276 O277 1.275 . S
C276 O278 1.246 . S
O277 Tb260 2.427 . S
O277 C276 1.275 . S
O278 Tb260 2.513 . S
O278 C276 1.246 . S
C279 O263 1.245 . S
C279 O264 1.259 . S
Tb280 O283 2.441 1_556 S
Tb280 O284 2.596 . S
Tb280 O285 2.374 . S
Tb280 O293 2.343 . S
Tb280 O295 2.353 . S
Tb280 O297 2.427 . S
Tb280 O298 2.513 . S
C281 O285 1.251 . S
C281 O287 1.263 . S
Tb282 O284 2.343 . S
Tb282 O287 2.353 . S
Tb282 O290 2.427 . S
Tb282 O291 2.513 . S
Tb282 O292 2.453 . S
Tb282 O293 2.596 . S
Tb282 O294 2.374 . S
O283 Tb280 2.441 1_554 S
O283 C299 1.231 1_554 S
O284 Tb280 2.596 . S
O284 Tb282 2.343 . S
O284 C299 1.259 . S
O285 Tb280 2.374 . S
O285 C281 1.251 . S
C286 O290 1.275 . S
C286 O291 1.246 . S
O287 C281 1.263 . S
O287 Tb282 2.353 . S
C288 O292 1.245 . S
C288 O293 1.259 . S
C289 O294 1.250 . S
C289 O295 1.263 . S
O290 Tb282 2.427 . S
O290 C286 1.275 . S
O291 Tb282 2.513 . S
O291 C286 1.246 . S
O292 Tb282 2.453 . S
O292 C288 1.245 . S
O293 Tb280 2.343 . S
O293 Tb282 2.596 . S
O293 C288 1.259 . S
O294 Tb282 2.374 . S
O294 C289 1.250 . S
O295 Tb280 2.353 . S
O295 C289 1.263 . S
C296 O297 1.275 . S
C296 O298 1.246 . S
O297 Tb280 2.427 . S
O297 C296 1.275 . S
O298 Tb280 2.513 . S
O298 C296 1.246 . S
C299 O283 1.231 1_556 S
C299 O284 1.259 . S
Tb300 O303 2.453 . S
Tb300 O304 2.596 . S
Tb300 O305 2.374 . S
Tb300 O313 2.343 . S
Tb300 O315 2.353 . S
Tb300 O317 2.427 . S
Tb300 O318 2.513 . S
C301 O305 1.251 . S
C301 O307 1.263 . S
Tb302 O304 2.343 . S
Tb302 O307 2.353 . S
Tb302 O310 2.427 . S
Tb302 O311 2.513 . S
Tb302 O312 2.453 . S
Tb302 O313 2.596 . S
Tb302 O314 2.374 . S
O303 Tb300 2.453 . S
O303 C319 1.245 . S
O304 Tb300 2.596 . S
O304 Tb302 2.343 . S
O304 C319 1.259 . S
O305 Tb300 2.374 . S
O305 C301 1.251 . S
C306 O310 1.275 . S
C306 O311 1.246 . S
O307 C301 1.263 . S
O307 Tb302 2.353 . S
C308 O312 1.245 . S
C308 O313 1.259 . S
C309 O314 1.250 . S
C309 O315 1.263 . S
O310 Tb302 2.427 . S
O310 C306 1.275 . S
O311 Tb302 2.513 . S
O311 C306 1.246 . S
O312 Tb302 2.453 . S
O312 C308 1.245 . S
O313 Tb300 2.343 . S
O313 Tb302 2.596 . S
O313 C308 1.259 . S
O314 Tb302 2.374 . S
O314 C309 1.250 . S
O315 Tb300 2.353 . S
O315 C309 1.263 . S
C316 O317 1.275 . S
C316 O318 1.246 . S
O317 Tb300 2.427 . S
O317 C316 1.275 . S
O318 Tb300 2.513 . S
O318 C316 1.246 . S
C319 O303 1.245 . S
C319 O304 1.259 . S
H320 C338 0.951 . S
H321 C340 0.951 . S
H322 C342 0.950 . S
H323 C343 0.950 . S
H324 C345 0.950 . S
H325 C348 0.950 . S
H326 C349 0.950 . S
H327 C351 0.950 . S
H328 C352 0.950 . S
H329 C353 0.951 . S
H330 C355 0.951 . S
H331 C357 0.950 . S
H332 C358 0.950 . S
H333 C360 0.950 . S
H334 C363 0.950 . S
H335 C364 0.950 . S
H336 C366 0.950 . S
H337 C367 0.950 . S
C338 H320 0.951 . S
C338 C339 1.366 . S
C338 C340 1.388 . S
C339 C338 1.366 . S
C339 C343 1.385 . S
C340 H321 0.951 . S
C340 C338 1.388 . S
C340 C341 1.366 . S
C341 C340 1.366 . S
C341 C342 1.414 . S
C341 C344 1.499 . S
C342 H322 0.950 . S
C342 C341 1.414 . S
C342 C343 1.374 . S
C343 H323 0.950 . S
C343 C339 1.385 . S
C343 C342 1.374 . S
C344 C341 1.499 . S
C344 C345 1.373 . S
C344 C346 1.389 . S
C345 H324 0.950 . S
C345 C344 1.373 . S
C345 C361 1.377 . S
C346 C344 1.389 . S
C346 C347 1.524 . S
C346 C360 1.377 . S
C347 C346 1.524 . S
C347 C348 1.397 . S
C347 C352 1.363 . S
C348 H325 0.950 . S
C348 C347 1.397 . S
C348 C349 1.334 . S
C349 H326 0.950 . S
C349 C348 1.334 . S
C349 C350 1.287 . S
C350 C349 1.287 . S
C350 C351 1.524 . S
C350 H369 0.913 . S
C351 H327 0.950 . S
C351 C350 1.524 . S
C351 C352 1.415 . S
C352 H328 0.950 . S
C352 C347 1.363 . S
C352 C351 1.415 . S
C353 H329 0.951 . S
C353 C354 1.366 . S
C353 C355 1.388 . S
C354 C353 1.366 . S
C354 C358 1.385 . S
C355 H330 0.951 . S
C355 C353 1.388 . S
C355 C356 1.366 . S
C356 C355 1.366 . S
C356 C357 1.414 . S
C356 C359 1.499 . S
C357 H331 0.950 . S
C357 C356 1.414 . S
C357 C358 1.374 . S
C358 H332 0.950 . S
C358 C354 1.385 . S
C358 C357 1.374 . S
C359 C356 1.499 . S
C359 C360 1.373 . S
C359 C361 1.389 . S
C360 H333 0.950 . S
C360 C346 1.377 . S
C360 C359 1.373 . S
C361 C345 1.377 . S
C361 C359 1.389 . S
C361 C362 1.524 . S
C362 C361 1.524 . S
C362 C363 1.397 . S
C362 C367 1.363 1_554 S
C363 H334 0.950 . S
C363 C362 1.397 . S
C363 C364 1.334 1_554 S
C364 H335 0.950 . S
C364 C363 1.334 1_556 S
C364 C365 1.287 . S
C365 C364 1.287 . S
C365 C366 1.524 . S
C365 H368 0.999 . S
C366 H336 0.950 . S
C366 C365 1.524 . S
C366 C367 1.415 . S
C367 H337 0.950 . S
C367 C362 1.363 1_556 S
C367 C366 1.415 . S
H368 C365 0.999 . S
H369 C350 0.913 . S
H370 C388 0.951 . S
H371 C390 0.951 . S
H372 C392 0.950 . S
H373 C393 0.950 . S
H374 C395 0.950 . S
H375 C398 0.950 . S
H376 C399 0.950 . S
H377 C401 0.950 . S
H378 C402 0.950 . S
H379 C403 0.951 . S
H380 C405 0.951 . S
H381 C407 0.950 . S
H382 C408 0.950 . S
H383 C410 0.950 . S
H384 C413 0.950 . S
H385 C414 0.950 . S
H386 C416 0.950 . S
H387 C417 0.950 . S
C388 H370 0.951 . S
C388 C389 1.366 . S
C388 C390 1.388 . S
C389 C388 1.366 . S
C389 C393 1.385 . S
C390 H371 0.951 . S
C390 C388 1.388 . S
C390 C391 1.366 . S
C391 C390 1.366 . S
C391 C392 1.414 . S
C391 C394 1.499 . S
C392 H372 0.950 . S
C392 C391 1.414 . S
C392 C393 1.374 . S
C393 H373 0.950 . S
C393 C389 1.385 . S
C393 C392 1.374 . S
C394 C391 1.499 . S
C394 C395 1.373 . S
C394 C396 1.389 . S
C395 H374 0.950 . S
C395 C394 1.373 . S
C395 C411 1.377 . S
C396 C394 1.389 . S
C396 C397 1.524 . S
C396 C410 1.377 . S
C397 C396 1.524 . S
C397 C398 1.397 . S
C397 C402 1.363 . S
C398 H375 0.950 . S
C398 C397 1.397 . S
C398 C399 1.334 . S
C399 H376 0.950 . S
C399 C398 1.334 . S
C399 C400 1.287 . S
C400 C399 1.287 . S
C400 C401 1.524 . S
C400 H419 0.913 . S
C401 H377 0.950 . S
C401 C400 1.524 . S
C401 C402 1.415 . S
C402 H378 0.950 . S
C402 C397 1.363 . S
C402 C401 1.415 . S
C403 H379 0.951 . S
C403 C404 1.366 . S
C403 C405 1.388 . S
C404 C403 1.366 . S
C404 C408 1.385 . S
C405 H380 0.951 . S
C405 C403 1.388 . S
C405 C406 1.366 . S
C406 C405 1.366 . S
C406 C407 1.414 . S
C406 C409 1.499 . S
C407 H381 0.950 . S
C407 C406 1.414 . S
C407 C408 1.374 . S
C408 H382 0.950 . S
C408 C404 1.385 . S
C408 C407 1.374 . S
C409 C406 1.499 . S
C409 C410 1.373 . S
C409 C411 1.389 . S
C410 H383 0.950 . S
C410 C396 1.377 . S
C410 C409 1.373 . S
C411 C395 1.377 . S
C411 C409 1.389 . S
C411 C412 1.524 . S
C412 C411 1.524 . S
C412 C413 1.397 . S
C412 C417 1.363 . S
C413 H384 0.950 . S
C413 C412 1.397 . S
C413 C414 1.334 . S
C414 H385 0.950 . S
C414 C413 1.334 . S
C414 C415 1.287 . S
C415 C414 1.287 . S
C415 C416 1.524 . S
C415 H418 0.999 . S
C416 H386 0.950 . S
C416 C415 1.524 . S
C416 C417 1.415 . S
C417 H387 0.950 . S
C417 C412 1.363 . S
C417 C416 1.415 . S
H418 C415 0.999 . S
H419 C400 0.913 . S
H420 C438 0.951 . S
H421 C440 0.951 . S
H422 C442 0.950 . S
H423 C443 0.950 . S
H424 C445 0.950 . S
H425 C448 0.950 1_455 S
H426 C449 0.964 . S
H427 C451 0.950 . S
H428 C452 0.950 . S
H429 C453 0.951 . S
H430 C455 0.951 . S
H431 C457 0.950 . S
H432 C458 0.950 . S
H433 C460 0.950 . S
H434 C463 0.950 1_655 S
H435 C464 0.964 . S
H436 C466 0.950 . S
H437 C467 0.950 . S
C438 H420 0.951 . S
C438 C439 1.366 . S
C438 C440 1.388 . S
C439 C438 1.366 . S
C439 C443 1.385 . S
C440 H421 0.951 . S
C440 C438 1.388 . S
C440 C441 1.366 . S
C441 C440 1.366 . S
C441 C442 1.414 . S
C441 C444 1.499 . S
C442 H422 0.950 . S
C442 C441 1.414 . S
C442 C443 1.374 . S
C443 H423 0.950 . S
C443 C439 1.385 . S
C443 C442 1.374 . S
C444 C441 1.499 . S
C444 C445 1.373 . S
C444 C446 1.389 1_455 S
C445 H424 0.950 . S
C445 C444 1.373 . S
C445 C461 1.377 . S
C446 C444 1.389 1_655 S
C446 C447 1.524 . S
C446 C460 1.377 . S
C447 C446 1.524 . S
C447 C448 1.397 . S
C447 C452 1.363 . S
C448 H425 0.950 1_655 S
C448 C447 1.397 . S
C448 C449 1.334 . S
C449 H426 0.964 . S
C449 C448 1.334 . S
C449 C450 1.287 . S
C450 C449 1.287 . S
C450 C451 1.524 . S
C450 H469 0.913 . S
C451 H427 0.950 . S
C451 C450 1.524 . S
C451 C452 1.415 . S
C452 H428 0.950 . S
C452 C447 1.363 . S
C452 C451 1.415 . S
C453 H429 0.951 . S
C453 C454 1.366 . S
C453 C455 1.388 . S
C454 C453 1.366 . S
C454 C458 1.385 . S
C455 H430 0.951 . S
C455 C453 1.388 . S
C455 C456 1.366 . S
C456 C455 1.366 . S
C456 C457 1.414 . S
C456 C459 1.499 . S
C457 H431 0.950 . S
C457 C456 1.414 . S
C457 C458 1.374 . S
C458 H432 0.950 . S
C458 C454 1.385 . S
C458 C457 1.374 . S
C459 C456 1.499 . S
C459 C460 1.373 . S
C459 C461 1.389 1_655 S
C460 H433 0.950 . S
C460 C446 1.377 . S
C460 C459 1.373 . S
C461 C445 1.377 . S
C461 C459 1.389 1_455 S
C461 C462 1.524 . S
C462 C461 1.524 . S
C462 C463 1.397 . S
C462 C467 1.363 . S
C463 H434 0.950 1_455 S
C463 C462 1.397 . S
C463 C464 1.334 . S
C464 H435 0.964 . S
C464 C463 1.334 . S
C464 C465 1.287 . S
C465 C464 1.287 . S
C465 C466 1.524 . S
C465 H468 0.999 . S
C466 H436 0.950 . S
C466 C465 1.524 . S
C466 C467 1.415 . S
C467 H437 0.950 . S
C467 C462 1.363 . S
C467 C466 1.415 . S
H468 C465 0.999 . S
H469 C450 0.913 . S
H470 C488 0.951 . S
H471 C490 0.951 . S
H472 C492 0.950 . S
H473 C493 0.950 . S
H474 C495 0.950 . S
H475 C498 0.950 . S
H476 C499 0.950 . S
H477 C501 0.950 . S
H478 C502 0.950 . S
H479 C503 0.951 . S
H480 C505 0.951 . S
H481 C507 0.950 . S
H482 C508 0.950 . S
H483 C510 0.950 . S
H484 C513 0.950 . S
H485 C514 0.950 . S
H486 C516 0.960 . S
H487 C517 0.950 . S
C488 H470 0.951 . S
C488 C489 1.366 . S
C488 C490 1.388 . S
C489 C488 1.366 . S
C489 C493 1.385 . S
C490 H471 0.951 . S
C490 C488 1.388 . S
C490 C491 1.366 . S
C491 C490 1.366 . S
C491 C492 1.414 . S
C491 C494 1.499 . S
C492 H472 0.950 . S
C492 C491 1.414 . S
C492 C493 1.374 . S
C493 H473 0.950 . S
C493 C489 1.385 . S
C493 C492 1.374 . S
C494 C491 1.499 . S
C494 C495 1.373 . S
C494 C496 1.389 . S
C495 H474 0.950 . S
C495 C494 1.373 . S
C495 C511 1.377 1_655 S
C496 C494 1.389 . S
C496 C497 1.524 . S
C496 C510 1.377 1_655 S
C497 C496 1.524 . S
C497 C498 1.397 . S
C497 C502 1.363 1_655 S
C498 H475 0.950 . S
C498 C497 1.397 . S
C498 C499 1.334 . S
C499 H476 0.950 . S
C499 C498 1.334 . S
C499 C500 1.287 . S
C500 C499 1.287 . S
C500 C501 1.524 1_655 S
C500 H519 0.913 . S
C501 H477 0.950 . S
C501 C500 1.524 1_455 S
C501 C502 1.415 . S
C502 H478 0.950 . S
C502 C497 1.363 1_455 S
C502 C501 1.415 . S
C503 H479 0.951 . S
C503 C504 1.366 . S
C503 C505 1.388 . S
C504 C503 1.366 . S
C504 C508 1.385 . S
C505 H480 0.951 . S
C505 C503 1.388 . S
C505 C506 1.366 . S
C506 C505 1.366 . S
C506 C507 1.414 . S
C506 C509 1.499 . S
C507 H481 0.950 . S
C507 C506 1.414 . S
C507 C508 1.374 . S
C508 H482 0.950 . S
C508 C504 1.385 . S
C508 C507 1.374 . S
C509 C506 1.499 . S
C509 C510 1.373 . S
C509 C511 1.389 . S
C510 H483 0.950 . S
C510 C496 1.377 1_455 S
C510 C509 1.373 . S
C511 C495 1.377 1_455 S
C511 C509 1.389 . S
C511 C512 1.524 . S
C512 C511 1.524 . S
C512 C513 1.397 . S
C512 C517 1.363 1_455 S
C513 H484 0.950 . S
C513 C512 1.397 . S
C513 C514 1.334 . S
C514 H485 0.950 . S
C514 C513 1.334 . S
C514 C515 1.287 . S
C515 C514 1.287 . S
C515 C516 1.524 1_455 S
C515 H518 0.999 1_556 S
C516 H486 0.960 . S
C516 C515 1.524 1_655 S
C516 C517 1.415 . S
C517 H487 0.950 . S
C517 C512 1.363 1_655 S
C517 C516 1.415 . S
H518 C515 0.999 1_554 S
H519 C500 0.913 . S
H520 C538 0.951 . S
H521 C540 0.951 . S
H522 C542 0.950 . S
H523 C543 0.950 . S
H524 C545 0.950 . S
H525 C548 0.950 . S
H526 C549 0.950 . S
H527 C551 0.950 . S
H528 C552 0.950 . S
H529 C553 0.951 . S
H530 C555 0.951 . S
H531 C557 0.950 . S
H532 C558 0.950 . S
H533 C560 0.950 . S
H534 C563 0.950 . S
H535 C564 0.950 1_554 S
H536 C566 0.950 . S
H537 C567 0.950 . S
C538 H520 0.951 . S
C538 C539 1.366 . S
C538 C540 1.388 . S
C539 C538 1.366 . S
C539 C543 1.385 . S
C540 H521 0.951 . S
C540 C538 1.388 . S
C540 C541 1.366 . S
C541 C540 1.366 . S
C541 C542 1.414 . S
C541 C544 1.499 . S
C542 H522 0.950 . S
C542 C541 1.414 . S
C542 C543 1.374 . S
C543 H523 0.950 . S
C543 C539 1.385 . S
C543 C542 1.374 . S
C544 C541 1.499 . S
C544 C545 1.373 . S
C544 C546 1.389 . S
C545 H524 0.950 . S
C545 C544 1.373 . S
C545 C561 1.377 . S
C546 C544 1.389 . S
C546 C547 1.524 . S
C546 C560 1.377 . S
C547 C546 1.524 . S
C547 C548 1.397 . S
C547 C552 1.363 . S
C548 H525 0.950 . S
C548 C547 1.397 . S
C548 C549 1.334 . S
C549 H526 0.950 . S
C549 C548 1.334 . S
C549 C550 1.287 . S
C550 C549 1.287 . S
C550 C551 1.524 . S
C550 H569 0.913 . S
C551 H527 0.950 . S
C551 C550 1.524 . S
C551 C552 1.415 . S
C552 H528 0.950 . S
C552 C547 1.363 . S
C552 C551 1.415 . S
C553 H529 0.951 . S
C553 C554 1.366 . S
C553 C555 1.388 . S
C554 C553 1.366 . S
C554 C558 1.385 . S
C555 H530 0.951 . S
C555 C553 1.388 . S
C555 C556 1.366 . S
C556 C555 1.366 . S
C556 C557 1.414 . S
C556 C559 1.499 . S
C557 H531 0.950 . S
C557 C556 1.414 . S
C557 C558 1.374 . S
C558 H532 0.950 . S
C558 C554 1.385 . S
C558 C557 1.374 . S
C559 C556 1.499 . S
C559 C560 1.373 . S
C559 C561 1.389 . S
C560 H533 0.950 . S
C560 C546 1.377 . S
C560 C559 1.373 . S
C561 C545 1.377 . S
C561 C559 1.389 . S
C561 C562 1.524 . S
C562 C561 1.524 . S
C562 C563 1.397 . S
C562 C567 1.363 . S
C563 H534 0.950 . S
C563 C562 1.397 . S
C563 C564 1.334 . S
C564 H535 0.950 1_556 S
C564 C563 1.334 . S
C564 C565 1.287 . S
C565 C564 1.287 . S
C565 C566 1.524 . S
C565 H568 0.999 . S
C566 H536 0.950 . S
C566 C565 1.524 . S
C566 C567 1.415 . S
C567 H537 0.950 . S
C567 C562 1.363 . S
C567 C566 1.415 . S
H568 C565 0.999 . S
H569 C550 0.913 . S
H570 C588 0.951 . S
H571 C590 0.951 . S
H572 C592 0.950 . S
H573 C593 0.950 . S
H574 C595 0.950 . S
H575 C598 0.950 . S
H576 C599 0.950 . S
H577 C601 0.950 . S
H578 C602 0.950 . S
H579 C603 0.951 . S
H580 C605 0.951 . S
H581 C607 0.950 . S
H582 C608 0.950 . S
H583 C610 0.950 . S
H584 C613 0.950 . S
H585 C614 0.950 . S
H586 C616 0.950 . S
H587 C617 0.950 . S
C588 H570 0.951 . S
C588 C589 1.366 . S
C588 C590 1.388 . S
C589 C588 1.366 . S
C589 C593 1.385 . S
C590 H571 0.951 . S
C590 C588 1.388 . S
C590 C591 1.366 . S
C591 C590 1.366 . S
C591 C592 1.414 . S
C591 C594 1.499 . S
C592 H572 0.950 . S
C592 C591 1.414 . S
C592 C593 1.374 . S
C593 H573 0.950 . S
C593 C589 1.385 . S
C593 C592 1.374 . S
C594 C591 1.499 . S
C594 C595 1.373 . S
C594 C596 1.389 . S
C595 H574 0.950 . S
C595 C594 1.373 . S
C595 C611 1.377 . S
C596 C594 1.389 . S
C596 C597 1.524 . S
C596 C610 1.377 . S
C597 C596 1.524 . S
C597 C598 1.397 . S
C597 C602 1.363 . S
C598 H575 0.950 . S
C598 C597 1.397 . S
C598 C599 1.334 . S
C599 H576 0.950 . S
C599 C598 1.334 . S
C599 C600 1.287 . S
C600 C599 1.287 . S
C600 C601 1.524 . S
C600 H619 0.913 . S
C601 H577 0.950 . S
C601 C600 1.524 . S
C601 C602 1.415 . S
C602 H578 0.950 . S
C602 C597 1.363 . S
C602 C601 1.415 . S
C603 H579 0.951 . S
C603 C604 1.366 . S
C603 C605 1.388 . S
C604 C603 1.366 . S
C604 C608 1.385 . S
C605 H580 0.951 . S
C605 C603 1.388 . S
C605 C606 1.366 . S
C606 C605 1.366 . S
C606 C607 1.414 . S
C606 C609 1.499 . S
C607 H581 0.950 . S
C607 C606 1.414 . S
C607 C608 1.374 . S
C608 H582 0.950 . S
C608 C604 1.385 . S
C608 C607 1.374 . S
C609 C606 1.499 . S
C609 C610 1.373 . S
C609 C611 1.389 . S
C610 H583 0.950 . S
C610 C596 1.377 . S
C610 C609 1.373 . S
C611 C595 1.377 . S
C611 C609 1.389 . S
C611 C612 1.524 . S
C612 C611 1.524 . S
C612 C613 1.397 . S
C612 C617 1.363 . S
C613 H584 0.950 . S
C613 C612 1.397 . S
C613 C614 1.334 . S
C614 H585 0.950 . S
C614 C613 1.334 . S
C614 C615 1.287 . S
C615 C614 1.287 . S
C615 C616 1.524 . S
C615 H618 0.999 . S
C616 H586 0.950 . S
C616 C615 1.524 . S
C616 C617 1.415 . S
C617 H587 0.950 . S
C617 C612 1.363 . S
C617 C616 1.415 . S
H618 C615 0.999 . S
H619 C600 0.913 . S
H620 C638 0.951 . S
H621 C640 0.951 . S
H622 C642 0.950 . S
H623 C643 0.950 . S
H624 C645 0.950 . S
H625 C648 0.950 . S
H626 C649 0.950 . S
H627 C651 0.950 . S
H628 C652 0.950 . S
H629 C653 0.951 . S
H630 C655 0.951 . S
H631 C657 0.950 . S
H632 C658 0.950 . S
H633 C660 0.950 . S
H634 C663 0.950 . S
H635 C664 0.950 . S
H636 C666 0.950 . S
H637 C667 0.950 . S
C638 H620 0.951 . S
C638 C639 1.366 . S
C638 C640 1.388 . S
C639 C638 1.366 . S
C639 C643 1.385 . S
C640 H621 0.951 . S
C640 C638 1.388 . S
C640 C641 1.366 . S
C641 C640 1.366 . S
C641 C642 1.414 . S
C641 C644 1.499 . S
C642 H622 0.950 . S
C642 C641 1.414 . S
C642 C643 1.374 . S
C643 H623 0.950 . S
C643 C639 1.385 . S
C643 C642 1.374 . S
C644 C641 1.499 . S
C644 C645 1.373 1_655 S
C644 C646 1.389 . S
C645 H624 0.950 . S
C645 C644 1.373 1_455 S
C645 C661 1.377 . S
C646 C644 1.389 . S
C646 C647 1.524 . S
C646 C660 1.377 . S
C647 C646 1.524 . S
C647 C648 1.397 . S
C647 C652 1.363 . S
C648 H625 0.950 . S
C648 C647 1.397 . S
C648 C649 1.334 . S
C649 H626 0.950 . S
C649 C648 1.334 . S
C649 C650 1.287 . S
C650 C649 1.287 . S
C650 C651 1.524 . S
C650 H669 0.913 . S
C651 H627 0.950 . S
C651 C650 1.524 . S
C651 C652 1.415 . S
C652 H628 0.950 . S
C652 C647 1.363 . S
C652 C651 1.415 . S
C653 H629 0.951 . S
C653 C654 1.366 . S
C653 C655 1.388 . S
C654 C653 1.366 . S
C654 C658 1.385 . S
C655 H630 0.951 . S
C655 C653 1.388 . S
C655 C656 1.366 . S
C656 C655 1.366 . S
C656 C657 1.414 . S
C656 C659 1.499 . S
C657 H631 0.950 . S
C657 C656 1.414 . S
C657 C658 1.374 . S
C658 H632 0.950 . S
C658 C654 1.385 . S
C658 C657 1.374 . S
C659 C656 1.499 . S
C659 C660 1.373 1_455 S
C659 C661 1.389 . S
C660 H633 0.950 . S
C660 C646 1.377 . S
C660 C659 1.373 1_655 S
C661 C645 1.377 . S
C661 C659 1.389 . S
C661 C662 1.524 . S
C662 C661 1.524 . S
C662 C663 1.397 . S
C662 C667 1.363 . S
C663 H634 0.950 . S
C663 C662 1.397 . S
C663 C664 1.334 . S
C664 H635 0.950 . S
C664 C663 1.334 . S
C664 C665 1.287 . S
C665 C664 1.287 . S
C665 C666 1.524 . S
C665 H668 0.999 . S
C666 H636 0.950 . S
C666 C665 1.524 . S
C666 C667 1.415 . S
C667 H637 0.950 . S
C667 C662 1.363 . S
C667 C666 1.415 . S
H668 C665 0.999 . S
H669 C650 0.913 . S
H670 C688 0.951 . S
H671 C690 0.951 . S
H672 C692 0.950 . S
H673 C693 0.950 . S
H674 C695 0.950 . S
H675 C698 0.950 . S
H676 C699 0.950 . S
H677 C701 0.950 1_556 S
H678 C702 0.950 1_655 S
H679 C703 0.951 . S
H680 C705 0.951 . S
H681 C707 0.950 . S
H682 C708 0.950 . S
H683 C710 0.950 . S
H684 C713 0.950 . S
H685 C714 0.950 . S
H686 C716 0.950 . S
H687 C717 0.950 1_455 S
C688 H670 0.951 . S
C688 C689 1.366 . S
C688 C690 1.388 . S
C689 C688 1.366 . S
C689 C693 1.385 . S
C690 H671 0.951 . S
C690 C688 1.388 . S
C690 C691 1.366 . S
C691 C690 1.366 . S
C691 C692 1.414 . S
C691 C694 1.499 . S
C692 H672 0.950 . S
C692 C691 1.414 . S
C692 C693 1.374 . S
C693 H673 0.950 . S
C693 C689 1.385 . S
C693 C692 1.374 . S
C694 C691 1.499 . S
C694 C695 1.373 . S
C694 C696 1.389 . S
C695 H674 0.950 . S
C695 C694 1.373 . S
C695 C711 1.377 1_455 S
C696 C694 1.389 . S
C696 C697 1.524 . S
C696 C710 1.377 1_455 S
C697 C696 1.524 . S
C697 C698 1.397 . S
C697 C702 1.363 . S
C698 H675 0.950 . S
C698 C697 1.397 . S
C698 C699 1.334 . S
C699 H676 0.950 . S
C699 C698 1.334 . S
C699 C700 1.287 . S
C700 C699 1.287 . S
C700 C701 1.524 . S
C700 H719 0.913 1_554 S
C701 H677 0.950 1_554 S
C701 C700 1.524 . S
C701 C702 1.415 . S
C702 H678 0.950 1_455 S
C702 C697 1.363 . S
C702 C701 1.415 . S
C703 H679 0.951 . S
C703 C704 1.366 . S
C703 C705 1.388 . S
C704 C703 1.366 . S
C704 C708 1.385 . S
C705 H680 0.951 . S
C705 C703 1.388 . S
C705 C706 1.366 . S
C706 C705 1.366 . S
C706 C707 1.414 . S
C706 C709 1.499 . S
C707 H681 0.950 . S
C707 C706 1.414 . S
C707 C708 1.374 . S
C708 H682 0.950 . S
C708 C704 1.385 . S
C708 C707 1.374 . S
C709 C706 1.499 . S
C709 C710 1.373 . S
C709 C711 1.389 . S
C710 H683 0.950 . S
C710 C696 1.377 1_655 S
C710 C709 1.373 . S
C711 C695 1.377 1_655 S
C711 C709 1.389 . S
C711 C712 1.524 . S
C712 C711 1.524 . S
C712 C713 1.397 . S
C712 C717 1.363 . S
C713 H684 0.950 . S
C713 C712 1.397 . S
C713 C714 1.334 . S
C714 H685 0.950 . S
C714 C713 1.334 . S
C714 C715 1.287 . S
C715 C714 1.287 . S
C715 C716 1.524 . S
C715 H718 0.999 . S
C716 H686 0.950 . S
C716 C715 1.524 . S
C716 C717 1.415 . S
C717 H687 0.950 1_655 S
C717 C712 1.363 . S
C717 C716 1.415 . S
H718 C715 0.999 . S
H719 C700 0.913 1_556 S
H720 C738 0.951 . S
H721 C740 0.951 . S
H722 C742 0.950 . S
H723 C743 0.950 . S
H724 C745 0.950 . S
H725 C748 0.950 . S
H726 C749 0.950 . S
H727 C751 0.950 . S
H728 C752 0.950 1_554 S
H729 C753 0.951 . S
H730 C755 0.951 . S
H731 C757 0.950 . S
H732 C758 0.950 . S
H733 C760 0.950 . S
H734 C763 0.950 . S
H735 C764 0.950 . S
H736 C766 0.950 . S
H737 C767 0.950 . S
C738 H720 0.951 . S
C738 C739 1.366 . S
C738 C740 1.388 . S
C739 C738 1.366 . S
C739 C743 1.385 . S
C740 H721 0.951 . S
C740 C738 1.388 . S
C740 C741 1.366 . S
C741 C740 1.366 . S
C741 C742 1.414 . S
C741 C744 1.499 . S
C742 H722 0.950 . S
C742 C741 1.414 . S
C742 C743 1.374 . S
C743 H723 0.950 . S
C743 C739 1.385 . S
C743 C742 1.374 . S
C744 C741 1.499 . S
C744 C745 1.373 . S
C744 C746 1.389 . S
C745 H724 0.950 . S
C745 C744 1.373 . S
C745 C761 1.377 . S
C746 C744 1.389 . S
C746 C747 1.524 . S
C746 C760 1.377 . S
C747 C746 1.524 . S
C747 C748 1.397 . S
C747 C752 1.363 . S
C748 H725 0.950 . S
C748 C747 1.397 . S
C748 C749 1.334 . S
C749 H726 0.950 . S
C749 C748 1.334 . S
C749 C750 1.287 . S
C750 C749 1.287 . S
C750 C751 1.524 . S
C750 H769 0.913 . S
C751 H727 0.950 . S
C751 C750 1.524 . S
C751 C752 1.415 . S
C752 H728 0.950 1_556 S
C752 C747 1.363 . S
C752 C751 1.415 . S
C753 H729 0.951 . S
C753 C754 1.366 1_556 S
C753 C755 1.388 . S
C754 C753 1.366 1_554 S
C754 C758 1.385 . S
C755 H730 0.951 . S
C755 C753 1.388 . S
C755 C756 1.363 1_556 S
C756 C755 1.363 1_554 S
C756 C757 1.420 . S
C756 C759 1.496 1_554 S
C757 H731 0.950 . S
C757 C756 1.420 . S
C757 C758 1.374 . S
C758 H732 0.950 . S
C758 C754 1.385 . S
C758 C757 1.374 . S
C759 C756 1.496 1_556 S
C759 C760 1.373 . S
C759 C761 1.389 . S
C760 H733 0.950 . S
C760 C746 1.377 . S
C760 C759 1.373 . S
C761 C745 1.377 . S
C761 C759 1.389 . S
C761 C762 1.524 . S
C762 C761 1.524 . S
C762 C763 1.397 1_556 S
C762 C767 1.363 . S
C763 H734 0.950 . S
C763 C762 1.397 1_554 S
C763 C764 1.334 . S
C764 H735 0.950 . S
C764 C763 1.334 . S
C764 C765 1.287 . S
C765 C764 1.287 . S
C765 C766 1.524 1_554 S
C765 H768 0.999 . S
C766 H736 0.950 . S
C766 C765 1.524 1_556 S
C766 C767 1.415 . S
C767 H737 0.950 . S
C767 C762 1.363 . S
C767 C766 1.415 . S
H768 C765 0.999 . S
H769 C750 0.913 . S
H770 C788 0.951 . S
H771 C790 0.951 . S
H772 C792 0.950 . S
H773 C793 0.950 . S
H774 C795 0.950 . S
H775 C798 0.950 . S
H776 C799 0.950 . S
H777 C801 0.950 . S
H778 C802 0.950 . S
H779 C803 0.951 . S
H780 C805 0.951 . S
H781 C807 0.950 . S
H782 C808 0.950 . S
H783 C810 0.950 . S
H784 C813 0.950 . S
H785 C814 0.950 . S
H786 C816 0.950 . S
H787 C817 0.950 . S
C788 H770 0.951 . S
C788 C789 1.366 . S
C788 C790 1.388 . S
C789 C788 1.366 . S
C789 C793 1.385 . S
C790 H771 0.951 . S
C790 C788 1.388 . S
C790 C791 1.366 . S
C791 C790 1.366 . S
C791 C792 1.414 . S
C791 C794 1.499 . S
C792 H772 0.950 . S
C792 C791 1.414 . S
C792 C793 1.374 . S
C793 H773 0.950 . S
C793 C789 1.385 . S
C793 C792 1.374 . S
C794 C791 1.499 . S
C794 C795 1.373 . S
C794 C796 1.389 . S
C795 H774 0.950 . S
C795 C794 1.373 . S
C795 C811 1.377 . S
C796 C794 1.389 . S
C796 C797 1.524 . S
C796 C810 1.377 . S
C797 C796 1.524 . S
C797 C798 1.397 . S
C797 C802 1.363 . S
C798 H775 0.950 . S
C798 C797 1.397 . S
C798 C799 1.334 . S
C799 H776 0.950 . S
C799 C798 1.334 . S
C799 C800 1.287 . S
C800 C799 1.287 . S
C800 C801 1.524 . S
C800 H819 0.913 . S
C801 H777 0.950 . S
C801 C800 1.524 . S
C801 C802 1.415 . S
C802 H778 0.950 . S
C802 C797 1.363 . S
C802 C801 1.415 . S
C803 H779 0.951 . S
C803 C804 1.366 . S
C803 C805 1.388 . S
C804 C803 1.366 . S
C804 C808 1.385 . S
C805 H780 0.951 . S
C805 C803 1.388 . S
C805 C806 1.366 . S
C806 C805 1.366 . S
C806 C807 1.414 . S
C806 C809 1.499 . S
C807 H781 0.950 . S
C807 C806 1.414 . S
C807 C808 1.374 . S
C808 H782 0.950 . S
C808 C804 1.385 . S
C808 C807 1.374 . S
C809 C806 1.499 . S
C809 C810 1.373 . S
C809 C811 1.389 . S
C810 H783 0.950 . S
C810 C796 1.377 . S
C810 C809 1.373 . S
C811 C795 1.377 . S
C811 C809 1.389 . S
C811 C812 1.524 . S
C812 C811 1.524 . S
C812 C813 1.397 . S
C812 C817 1.363 . S
C813 H784 0.950 . S
C813 C812 1.397 . S
C813 C814 1.334 . S
C814 H785 0.950 . S
C814 C813 1.334 . S
C814 C815 1.287 . S
C815 C814 1.287 . S
C815 C816 1.524 . S
C815 H818 0.999 . S
C816 H786 0.950 . S
C816 C815 1.524 . S
C816 C817 1.415 . S
C817 H787 0.950 . S
C817 C812 1.363 . S
C817 C816 1.415 . S
H818 C815 0.999 . S
H819 C800 0.913 . S
H820 C838 0.951 . S
H821 C840 0.951 . S
H822 C842 0.950 . S
H823 C843 0.950 . S
H824 C845 0.950 . S
H825 C848 0.950 . S
H826 C849 0.950 . S
H827 C851 0.950 . S
H828 C852 0.950 . S
H829 C853 0.951 . S
H830 C855 0.951 . S
H831 C857 0.950 . S
H832 C858 0.950 . S
H833 C860 0.950 . S
H834 C863 0.950 . S
H835 C864 0.950 . S
H836 C866 0.950 . S
H837 C867 0.950 . S
C838 H820 0.951 . S
C838 C839 1.366 . S
C838 C840 1.388 . S
C839 C838 1.366 . S
C839 C843 1.385 . S
C840 H821 0.951 . S
C840 C838 1.388 . S
C840 C841 1.366 . S
C841 C840 1.366 . S
C841 C842 1.414 . S
C841 C844 1.499 . S
C842 H822 0.950 . S
C842 C841 1.414 . S
C842 C843 1.374 . S
C843 H823 0.950 . S
C843 C839 1.385 . S
C843 C842 1.374 . S
C844 C841 1.499 . S
C844 C845 1.373 . S
C844 C846 1.389 . S
C845 H824 0.950 . S
C845 C844 1.373 . S
C845 C861 1.377 . S
C846 C844 1.389 . S
C846 C847 1.524 . S
C846 C860 1.377 . S
C847 C846 1.524 . S
C847 C848 1.397 . S
C847 C852 1.363 . S
C848 H825 0.950 . S
C848 C847 1.397 . S
C848 C849 1.334 . S
C849 H826 0.950 . S
C849 C848 1.334 . S
C849 C850 1.287 . S
C850 C849 1.287 . S
C850 C851 1.524 . S
C850 H869 0.913 . S
C851 H827 0.950 . S
C851 C850 1.524 . S
C851 C852 1.415 . S
C852 H828 0.950 . S
C852 C847 1.363 . S
C852 C851 1.415 . S
C853 H829 0.951 . S
C853 C854 1.366 . S
C853 C855 1.388 . S
C854 C853 1.366 . S
C854 C858 1.385 . S
C855 H830 0.951 . S
C855 C853 1.388 . S
C855 C856 1.366 . S
C856 C855 1.366 . S
C856 C857 1.414 . S
C856 C859 1.499 . S
C857 H831 0.950 . S
C857 C856 1.414 . S
C857 C858 1.374 . S
C858 H832 0.950 . S
C858 C854 1.385 . S
C858 C857 1.374 . S
C859 C856 1.499 . S
C859 C860 1.373 . S
C859 C861 1.389 . S
C860 H833 0.950 . S
C860 C846 1.377 . S
C860 C859 1.373 . S
C861 C845 1.377 . S
C861 C859 1.389 . S
C861 C862 1.524 . S
C862 C861 1.524 . S
C862 C863 1.397 . S
C862 C867 1.363 . S
C863 H834 0.950 . S
C863 C862 1.397 . S
C863 C864 1.334 . S
C864 H835 0.950 . S
C864 C863 1.334 . S
C864 C865 1.287 . S
C865 C864 1.287 . S
C865 C866 1.524 . S
C865 H868 0.999 . S
C866 H836 0.950 . S
C866 C865 1.524 . S
C866 C867 1.415 . S
C867 H837 0.950 . S
C867 C862 1.363 . S
C867 C866 1.415 . S
H868 C865 0.999 . S
H869 C850 0.913 . S
H870 C888 0.951 . S
H871 C890 0.951 . S
H872 C892 0.950 . S
H873 C893 0.950 . S
H874 C895 0.950 . S
H875 C898 0.950 . S
H876 C899 0.950 . S
H877 C901 0.950 . S
H878 C902 0.950 . S
H879 C903 0.951 . S
H880 C905 0.951 . S
H881 C907 0.950 . S
H882 C908 0.950 . S
H883 C910 0.950 . S
H884 C913 0.950 . S
H885 C914 0.950 . S
H886 C916 0.950 . S
H887 C917 0.950 . S
C888 H870 0.951 . S
C888 C889 1.366 . S
C888 C890 1.388 . S
C889 C888 1.366 . S
C889 C893 1.385 . S
C890 H871 0.951 . S
C890 C888 1.388 . S
C890 C891 1.366 . S
C891 C890 1.366 . S
C891 C892 1.414 . S
C891 C894 1.499 . S
C892 H872 0.950 . S
C892 C891 1.414 . S
C892 C893 1.374 . S
C893 H873 0.950 . S
C893 C889 1.385 . S
C893 C892 1.374 . S
C894 C891 1.499 . S
C894 C895 1.373 . S
C894 C896 1.389 . S
C895 H874 0.950 . S
C895 C894 1.373 . S
C895 C911 1.377 . S
C896 C894 1.389 . S
C896 C897 1.524 . S
C896 C910 1.377 . S
C897 C896 1.524 . S
C897 C898 1.397 . S
C897 C902 1.363 . S
C898 H875 0.950 . S
C898 C897 1.397 . S
C898 C899 1.334 . S
C899 H876 0.950 . S
C899 C898 1.334 . S
C899 C900 1.287 . S
C900 C899 1.287 . S
C900 C901 1.524 . S
C900 H919 0.913 . S
C901 H877 0.950 . S
C901 C900 1.524 . S
C901 C902 1.415 . S
C902 H878 0.950 . S
C902 C897 1.363 . S
C902 C901 1.415 . S
C903 H879 0.951 . S
C903 C904 1.366 . S
C903 C905 1.388 . S
C904 C903 1.366 . S
C904 C908 1.385 . S
C905 H880 0.951 . S
C905 C903 1.388 . S
C905 C906 1.366 . S
C906 C905 1.366 . S
C906 C907 1.414 . S
C906 C909 1.499 . S
C907 H881 0.950 . S
C907 C906 1.414 . S
C907 C908 1.374 . S
C908 H882 0.950 . S
C908 C904 1.385 . S
C908 C907 1.374 . S
C909 C906 1.499 . S
C909 C910 1.373 . S
C909 C911 1.389 . S
C910 H883 0.950 . S
C910 C896 1.377 . S
C910 C909 1.373 . S
C911 C895 1.377 . S
C911 C909 1.389 . S
C911 C912 1.524 . S
C912 C911 1.524 . S
C912 C913 1.397 . S
C912 C917 1.363 . S
C913 H884 0.950 . S
C913 C912 1.397 . S
C913 C914 1.334 . S
C914 H885 0.950 . S
C914 C913 1.334 . S
C914 C915 1.287 . S
C915 C914 1.287 . S
C915 C916 1.524 . S
C915 H918 0.999 . S
C916 H886 0.950 . S
C916 C915 1.524 . S
C916 C917 1.415 . S
C917 H887 0.950 . S
C917 C912 1.363 . S
C917 C916 1.415 . S
H918 C915 0.999 . S
H919 C900 0.913 . S
H920 C938 0.951 . S
H921 C940 0.951 . S
H922 C942 0.950 . S
H923 C943 0.950 . S
H924 C945 0.950 . S
H925 C948 0.950 . S
H926 C949 0.950 . S
H927 C951 0.950 . S
H928 C952 0.950 . S
H929 C953 0.951 . S
H930 C955 0.951 . S
H931 C957 0.950 . S
H932 C958 0.950 . S
H933 C960 0.950 . S
H934 C963 0.950 . S
H935 C964 0.950 . S
H936 C966 0.950 1_556 S
H937 C967 0.950 1_556 S
C938 H920 0.951 . S
C938 C939 1.366 1_554 S
C938 C940 1.388 . S
C939 C938 1.366 1_556 S
C939 C943 1.385 . S
C940 H921 0.951 . S
C940 C938 1.388 . S
C940 C941 1.367 1_554 S
C941 C940 1.367 1_556 S
C941 C942 1.412 . S
C941 C944 1.499 1_556 S
C942 H922 0.950 . S
C942 C941 1.412 . S
C942 C943 1.374 . S
C943 H923 0.950 . S
C943 C939 1.385 . S
C943 C942 1.374 . S
C944 C941 1.499 1_554 S
C944 C945 1.373 . S
C944 C946 1.389 . S
C945 H924 0.950 . S
C945 C944 1.373 . S
C945 C961 1.377 . S
C946 C944 1.389 . S
C946 C947 1.524 . S
C946 C960 1.377 . S
C947 C946 1.524 . S
C947 C948 1.397 1_554 S
C947 C952 1.363 . S
C948 H925 0.950 . S
C948 C947 1.397 1_556 S
C948 C949 1.334 . S
C949 H926 0.950 . S
C949 C948 1.334 . S
C949 C950 1.287 1_556 S
C950 C949 1.287 1_554 S
C950 C951 1.524 . S
C950 H969 0.913 . S
C951 H927 0.950 . S
C951 C950 1.524 . S
C951 C952 1.415 . S
C952 H928 0.950 . S
C952 C947 1.363 . S
C952 C951 1.415 . S
C953 H929 0.951 . S
C953 C954 1.366 . S
C953 C955 1.388 . S
C954 C953 1.366 . S
C954 C958 1.385 . S
C955 H930 0.951 . S
C955 C953 1.388 . S
C955 C956 1.366 . S
C956 C955 1.366 . S
C956 C957 1.414 . S
C956 C959 1.499 . S
C957 H931 0.950 . S
C957 C956 1.414 . S
C957 C958 1.374 . S
C958 H932 0.950 . S
C958 C954 1.385 . S
C958 C957 1.374 . S
C959 C956 1.499 . S
C959 C960 1.373 . S
C959 C961 1.389 . S
C960 H933 0.950 . S
C960 C946 1.377 . S
C960 C959 1.373 . S
C961 C945 1.377 . S
C961 C959 1.389 . S
C961 C962 1.524 . S
C962 C961 1.524 . S
C962 C963 1.397 . S
C962 C967 1.363 . S
C963 H934 0.950 . S
C963 C962 1.397 . S
C963 C964 1.334 . S
C964 H935 0.950 . S
C964 C963 1.334 . S
C964 C965 1.287 . S
C965 C964 1.287 . S
C965 C966 1.524 . S
C965 H968 0.999 . S
C966 H936 0.950 1_554 S
C966 C965 1.524 . S
C966 C967 1.415 . S
C967 H937 0.950 1_554 S
C967 C962 1.363 . S
C967 C966 1.415 . S
H968 C965 0.999 . S
H969 C950 0.913 . S
H970 C988 0.951 . S
H971 C990 0.951 . S
H972 C992 0.950 . S
H973 C993 0.950 . S
H974 C995 0.950 . S
H975 C998 0.950 . S
H976 C999 0.950 . S
H977 C1001 0.950 . S
H978 C1002 0.950 . S
H979 C1003 0.951 . S
H980 C1005 0.951 . S
H981 C1007 0.950 . S
H982 C1008 0.950 . S
H983 C1010 0.950 . S
H984 C1013 0.950 . S
H985 C1014 0.950 . S
H986 C1016 0.950 . S
H987 C1017 0.950 . S
C988 H970 0.951 . S
C988 C989 1.366 . S
C988 C990 1.388 . S
C989 C988 1.366 . S
C989 C993 1.385 . S
C990 H971 0.951 . S
C990 C988 1.388 . S
C990 C991 1.366 . S
C991 C990 1.366 . S
C991 C992 1.414 . S
C991 C994 1.499 . S
C992 H972 0.950 . S
C992 C991 1.414 . S
C992 C993 1.374 . S
C993 H973 0.950 . S
C993 C989 1.385 . S
C993 C992 1.374 . S
C994 C991 1.499 . S
C994 C995 1.373 . S
C994 C996 1.389 . S
C995 H974 0.950 . S
C995 C994 1.373 . S
C995 C1011 1.377 . S
C996 C994 1.389 . S
C996 C997 1.524 . S
C996 C1010 1.377 . S
C997 C996 1.524 . S
C997 C998 1.397 . S
C997 C1002 1.363 . S
C998 H975 0.950 . S
C998 C997 1.397 . S
C998 C999 1.334 . S
C999 H976 0.950 . S
C999 C998 1.334 . S
C999 C1000 1.287 . S
C1000 C999 1.287 . S
C1000 C1001 1.524 . S
C1000 H1019 0.913 . S
C1001 H977 0.950 . S
C1001 C1000 1.524 . S
C1001 C1002 1.415 . S
C1002 H978 0.950 . S
C1002 C997 1.363 . S
C1002 C1001 1.415 . S
C1003 H979 0.951 . S
C1003 C1004 1.366 . S
C1003 C1005 1.388 . S
C1004 C1003 1.366 . S
C1004 C1008 1.385 . S
C1005 H980 0.951 . S
C1005 C1003 1.388 . S
C1005 C1006 1.366 . S
C1006 C1005 1.366 . S
C1006 C1007 1.414 . S
C1006 C1009 1.499 . S
C1007 H981 0.950 . S
C1007 C1006 1.414 . S
C1007 C1008 1.374 . S
C1008 H982 0.950 . S
C1008 C1004 1.385 . S
C1008 C1007 1.374 . S
C1009 C1006 1.499 . S
C1009 C1010 1.373 . S
C1009 C1011 1.389 . S
C1010 H983 0.950 . S
C1010 C996 1.377 . S
C1010 C1009 1.373 . S
C1011 C995 1.377 . S
C1011 C1009 1.389 . S
C1011 C1012 1.524 . S
C1012 C1011 1.524 . S
C1012 C1013 1.397 . S
C1012 C1017 1.363 . S
C1013 H984 0.950 . S
C1013 C1012 1.397 . S
C1013 C1014 1.334 . S
C1014 H985 0.950 . S
C1014 C1013 1.334 . S
C1014 C1015 1.287 . S
C1015 C1014 1.287 . S
C1015 C1016 1.524 . S
C1015 H1018 0.999 . S
C1016 H986 0.950 . S
C1016 C1015 1.524 . S
C1016 C1017 1.415 . S
C1017 H987 0.950 . S
C1017 C1012 1.363 . S
C1017 C1016 1.415 . S
H1018 C1015 0.999 . S
H1019 C1000 0.913 . S
H1020 C1038 0.951 . S
H1021 C1040 0.951 . S
H1022 C1042 0.950 . S
H1023 C1043 0.950 . S
H1024 C1045 0.950 . S
H1025 C1048 0.950 . S
H1026 C1049 0.950 . S
H1027 C1051 0.950 . S
H1028 C1052 0.950 . S
H1029 C1053 0.951 . S
H1030 C1055 0.951 . S
H1031 C1057 0.950 . S
H1032 C1058 0.950 . S
H1033 C1060 0.950 . S
H1034 C1063 0.950 . S
H1035 C1064 0.950 . S
H1036 C1066 0.950 . S
H1037 C1067 0.950 . S
C1038 H1020 0.951 . S
C1038 C1039 1.366 . S
C1038 C1040 1.388 . S
C1039 C1038 1.366 . S
C1039 C1043 1.385 . S
C1040 H1021 0.951 . S
C1040 C1038 1.388 . S
C1040 C1041 1.366 . S
C1041 C1040 1.366 . S
C1041 C1042 1.414 . S
C1041 C1044 1.499 . S
C1042 H1022 0.950 . S
C1042 C1041 1.414 . S
C1042 C1043 1.374 . S
C1043 H1023 0.950 . S
C1043 C1039 1.385 . S
C1043 C1042 1.374 . S
C1044 C1041 1.499 . S
C1044 C1045 1.373 . S
C1044 C1046 1.389 . S
C1045 H1024 0.950 . S
C1045 C1044 1.373 . S
C1045 C1061 1.377 . S
C1046 C1044 1.389 . S
C1046 C1047 1.524 . S
C1046 C1060 1.377 . S
C1047 C1046 1.524 . S
C1047 C1048 1.397 . S
C1047 C1052 1.363 . S
C1048 H1025 0.950 . S
C1048 C1047 1.397 . S
C1048 C1049 1.334 . S
C1049 H1026 0.950 . S
C1049 C1048 1.334 . S
C1049 C1050 1.287 . S
C1050 C1049 1.287 . S
C1050 C1051 1.524 . S
C1050 H1069 0.913 . S
C1051 H1027 0.950 . S
C1051 C1050 1.524 . S
C1051 C1052 1.415 . S
C1052 H1028 0.950 . S
C1052 C1047 1.363 . S
C1052 C1051 1.415 . S
C1053 H1029 0.951 . S
C1053 C1054 1.366 . S
C1053 C1055 1.388 . S
C1054 C1053 1.366 . S
C1054 C1058 1.385 . S
C1055 H1030 0.951 . S
C1055 C1053 1.388 . S
C1055 C1056 1.366 . S
C1056 C1055 1.366 . S
C1056 C1057 1.414 . S
C1056 C1059 1.499 . S
C1057 H1031 0.950 . S
C1057 C1056 1.414 . S
C1057 C1058 1.374 . S
C1058 H1032 0.950 . S
C1058 C1054 1.385 . S
C1058 C1057 1.374 . S
C1059 C1056 1.499 . S
C1059 C1060 1.373 . S
C1059 C1061 1.389 . S
C1060 H1033 0.950 . S
C1060 C1046 1.377 . S
C1060 C1059 1.373 . S
C1061 C1045 1.377 . S
C1061 C1059 1.389 . S
C1061 C1062 1.524 . S
C1062 C1061 1.524 . S
C1062 C1063 1.397 . S
C1062 C1067 1.363 . S
C1063 H1034 0.950 . S
C1063 C1062 1.397 . S
C1063 C1064 1.334 . S
C1064 H1035 0.950 . S
C1064 C1063 1.334 . S
C1064 C1065 1.287 . S
C1065 C1064 1.287 . S
C1065 C1066 1.524 . S
C1065 H1068 0.999 . S
C1066 H1036 0.950 . S
C1066 C1065 1.524 . S
C1066 C1067 1.415 . S
C1067 H1037 0.950 . S
C1067 C1062 1.363 . S
C1067 C1066 1.415 . S
H1068 C1065 0.999 . S
H1069 C1050 0.913 . S
H1070 C1088 0.951 . S
H1071 C1090 0.951 . S
H1072 C1092 0.950 . S
H1073 C1093 0.950 . S
H1074 C1095 0.950 . S
H1075 C1098 0.950 . S
H1076 C1099 0.950 . S
H1077 C1101 0.950 . S
H1078 C1102 0.950 . S
H1079 C1103 0.951 . S
H1080 C1105 0.951 . S
H1081 C1107 0.950 . S
H1082 C1108 0.950 . S
H1083 C1110 0.950 . S
H1084 C1113 0.950 . S
H1085 C1114 0.950 . S
H1086 C1116 0.950 . S
H1087 C1117 0.950 . S
C1088 H1070 0.951 . S
C1088 C1089 1.366 . S
C1088 C1090 1.388 . S
C1089 C1088 1.366 . S
C1089 C1093 1.385 . S
C1090 H1071 0.951 . S
C1090 C1088 1.388 . S
C1090 C1091 1.366 . S
C1091 C1090 1.366 . S
C1091 C1092 1.414 . S
C1091 C1094 1.499 . S
C1092 H1072 0.950 . S
C1092 C1091 1.414 . S
C1092 C1093 1.374 . S
C1093 H1073 0.950 . S
C1093 C1089 1.385 . S
C1093 C1092 1.374 . S
C1094 C1091 1.499 . S
C1094 C1095 1.373 . S
C1094 C1096 1.389 . S
C1095 H1074 0.950 . S
C1095 C1094 1.373 . S
C1095 C1111 1.377 . S
C1096 C1094 1.389 . S
C1096 C1097 1.524 . S
C1096 C1110 1.377 . S
C1097 C1096 1.524 . S
C1097 C1098 1.397 . S
C1097 C1102 1.363 . S
C1098 H1075 0.950 . S
C1098 C1097 1.397 . S
C1098 C1099 1.334 . S
C1099 H1076 0.950 . S
C1099 C1098 1.334 . S
C1099 C1100 1.287 . S
C1100 C1099 1.287 . S
C1100 C1101 1.524 . S
C1100 H1119 0.913 . S
C1101 H1077 0.950 . S
C1101 C1100 1.524 . S
C1101 C1102 1.415 . S
C1102 H1078 0.950 . S
C1102 C1097 1.363 . S
C1102 C1101 1.415 . S
C1103 H1079 0.951 . S
C1103 C1104 1.366 . S
C1103 C1105 1.388 . S
C1104 C1103 1.366 . S
C1104 C1108 1.385 . S
C1105 H1080 0.951 . S
C1105 C1103 1.388 . S
C1105 C1106 1.366 . S
C1106 C1105 1.366 . S
C1106 C1107 1.414 . S
C1106 C1109 1.499 . S
C1107 H1081 0.950 . S
C1107 C1106 1.414 . S
C1107 C1108 1.374 . S
C1108 H1082 0.950 . S
C1108 C1104 1.385 . S
C1108 C1107 1.374 . S
C1109 C1106 1.499 . S
C1109 C1110 1.373 . S
C1109 C1111 1.389 . S
C1110 H1083 0.950 . S
C1110 C1096 1.377 . S
C1110 C1109 1.373 . S
C1111 C1095 1.377 . S
C1111 C1109 1.389 . S
C1111 C1112 1.524 . S
C1112 C1111 1.524 . S
C1112 C1113 1.397 . S
C1112 C1117 1.363 . S
C1113 H1084 0.950 . S
C1113 C1112 1.397 . S
C1113 C1114 1.334 . S
C1114 H1085 0.950 . S
C1114 C1113 1.334 . S
C1114 C1115 1.287 . S
C1115 C1114 1.287 . S
C1115 C1116 1.524 . S
C1115 H1118 0.999 . S
C1116 H1086 0.950 . S
C1116 C1115 1.524 . S
C1116 C1117 1.415 . S
C1117 H1087 0.950 . S
C1117 C1112 1.363 . S
C1117 C1116 1.415 . S
H1118 C1115 0.999 . S
H1119 C1100 0.913 . S
H1120 C1138 0.951 . S
H1121 C1140 0.951 . S
H1122 C1142 0.950 . S
H1123 C1143 0.950 . S
H1124 C1145 0.950 . S
H1125 C1148 0.950 . S
H1126 C1149 0.950 . S
H1127 C1151 0.950 . S
H1128 C1152 0.950 . S
H1129 C1153 0.951 . S
H1130 C1155 0.951 . S
H1131 C1157 0.950 . S
H1132 C1158 0.950 . S
H1133 C1160 0.950 . S
H1134 C1163 0.950 . S
H1135 C1164 0.950 . S
H1136 C1166 0.950 . S
H1137 C1167 0.950 . S
C1138 H1120 0.951 . S
C1138 C1139 1.366 . S
C1138 C1140 1.388 . S
C1139 C1138 1.366 . S
C1139 C1143 1.385 . S
C1140 H1121 0.951 . S
C1140 C1138 1.388 . S
C1140 C1141 1.366 . S
C1141 C1140 1.366 . S
C1141 C1142 1.414 . S
C1141 C1144 1.499 . S
C1142 H1122 0.950 . S
C1142 C1141 1.414 . S
C1142 C1143 1.374 . S
C1143 H1123 0.950 . S
C1143 C1139 1.385 . S
C1143 C1142 1.374 . S
C1144 C1141 1.499 . S
C1144 C1145 1.373 . S
C1144 C1146 1.389 . S
C1145 H1124 0.950 . S
C1145 C1144 1.373 . S
C1145 C1161 1.377 . S
C1146 C1144 1.389 . S
C1146 C1147 1.524 . S
C1146 C1160 1.377 . S
C1147 C1146 1.524 . S
C1147 C1148 1.397 . S
C1147 C1152 1.363 . S
C1148 H1125 0.950 . S
C1148 C1147 1.397 . S
C1148 C1149 1.334 . S
C1149 H1126 0.950 . S
C1149 C1148 1.334 . S
C1149 C1150 1.287 . S
C1150 C1149 1.287 . S
C1150 C1151 1.524 . S
C1150 H1169 0.913 . S
C1151 H1127 0.950 . S
C1151 C1150 1.524 . S
C1151 C1152 1.415 . S
C1152 H1128 0.950 . S
C1152 C1147 1.363 . S
C1152 C1151 1.415 . S
C1153 H1129 0.951 . S
C1153 C1154 1.366 . S
C1153 C1155 1.388 . S
C1154 C1153 1.366 . S
C1154 C1158 1.385 . S
C1155 H1130 0.951 . S
C1155 C1153 1.388 . S
C1155 C1156 1.366 . S
C1156 C1155 1.366 . S
C1156 C1157 1.414 . S
C1156 C1159 1.499 . S
C1157 H1131 0.950 . S
C1157 C1156 1.414 . S
C1157 C1158 1.374 . S
C1158 H1132 0.950 . S
C1158 C1154 1.385 . S
C1158 C1157 1.374 . S
C1159 C1156 1.499 . S
C1159 C1160 1.373 . S
C1159 C1161 1.389 . S
C1160 H1133 0.950 . S
C1160 C1146 1.377 . S
C1160 C1159 1.373 . S
C1161 C1145 1.377 . S
C1161 C1159 1.389 . S
C1161 C1162 1.524 . S
C1162 C1161 1.524 . S
C1162 C1163 1.397 . S
C1162 C1167 1.363 . S
C1163 H1134 0.950 . S
C1163 C1162 1.397 . S
C1163 C1164 1.334 . S
C1164 H1135 0.950 . S
C1164 C1163 1.334 . S
C1164 C1165 1.287 . S
C1165 C1164 1.287 . S
C1165 C1166 1.524 . S
C1165 H1168 0.999 . S
C1166 H1136 0.950 . S
C1166 C1165 1.524 . S
C1166 C1167 1.415 . S
C1167 H1137 0.950 . S
C1167 C1162 1.363 . S
C1167 C1166 1.415 . S
H1168 C1165 0.999 . S
H1169 C1150 0.913 . S
H1170 C1188 0.951 . S
H1171 C1190 0.951 . S
H1172 C1192 0.950 . S
H1173 C1193 0.950 . S
H1174 C1195 0.950 . S
H1175 C1198 0.950 . S
H1176 C1199 0.950 . S
H1177 C1201 0.950 . S
H1178 C1202 0.950 . S
H1179 C1203 0.951 . S
H1180 C1205 0.951 . S
H1181 C1207 0.950 . S
H1182 C1208 0.950 . S
H1183 C1210 0.950 . S
H1184 C1213 0.950 . S
H1185 C1214 0.950 . S
H1186 C1216 0.950 . S
H1187 C1217 0.950 . S
C1188 H1170 0.951 . S
C1188 C1189 1.366 . S
C1188 C1190 1.388 1_545 S
C1189 C1188 1.366 . S
C1189 C1193 1.385 . S
C1190 H1171 0.951 . S
C1190 C1188 1.388 1_565 S
C1190 C1191 1.366 . S
C1191 C1190 1.366 . S
C1191 C1192 1.414 1_565 S
C1191 C1194 1.499 . S
C1192 H1172 0.950 . S
C1192 C1191 1.414 1_545 S
C1192 C1193 1.374 . S
C1193 H1173 0.950 . S
C1193 C1189 1.385 . S
C1193 C1192 1.374 . S
C1194 C1191 1.499 . S
C1194 C1195 1.373 . S
C1194 C1196 1.389 . S
C1195 H1174 0.950 . S
C1195 C1194 1.373 . S
C1195 C1211 1.377 . S
C1196 C1194 1.389 . S
C1196 C1197 1.524 . S
C1196 C1210 1.377 . S
C1197 C1196 1.524 . S
C1197 C1198 1.397 . S
C1197 C1202 1.363 . S
C1198 H1175 0.950 . S
C1198 C1197 1.397 . S
C1198 C1199 1.334 . S
C1199 H1176 0.950 . S
C1199 C1198 1.334 . S
C1199 C1200 1.287 . S
C1200 C1199 1.287 . S
C1200 C1201 1.524 . S
C1200 H1219 0.913 . S
C1201 H1177 0.950 . S
C1201 C1200 1.524 . S
C1201 C1202 1.415 . S
C1202 H1178 0.950 . S
C1202 C1197 1.363 . S
C1202 C1201 1.415 . S
C1203 H1179 0.951 . S
C1203 C1204 1.366 . S
C1203 C1205 1.388 . S
C1204 C1203 1.366 . S
C1204 C1208 1.385 . S
C1205 H1180 0.951 . S
C1205 C1203 1.388 . S
C1205 C1206 1.366 . S
C1206 C1205 1.366 . S
C1206 C1207 1.414 . S
C1206 C1209 1.499 . S
C1207 H1181 0.950 . S
C1207 C1206 1.414 . S
C1207 C1208 1.374 . S
C1208 H1182 0.950 . S
C1208 C1204 1.385 . S
C1208 C1207 1.374 . S
C1209 C1206 1.499 . S
C1209 C1210 1.373 . S
C1209 C1211 1.389 . S
C1210 H1183 0.950 . S
C1210 C1196 1.377 . S
C1210 C1209 1.373 . S
C1211 C1195 1.377 . S
C1211 C1209 1.389 . S
C1211 C1212 1.524 . S
C1212 C1211 1.524 . S
C1212 C1213 1.397 . S
C1212 C1217 1.363 . S
C1213 H1184 0.950 . S
C1213 C1212 1.397 . S
C1213 C1214 1.334 . S
C1214 H1185 0.950 . S
C1214 C1213 1.334 . S
C1214 C1215 1.287 . S
C1215 C1214 1.287 . S
C1215 C1216 1.524 . S
C1215 H1218 0.999 . S
C1216 H1186 0.950 . S
C1216 C1215 1.524 . S
C1216 C1217 1.415 . S
C1217 H1187 0.950 . S
C1217 C1212 1.363 . S
C1217 C1216 1.415 . S
H1218 C1215 0.999 . S
H1219 C1200 0.913 . S
H1220 C1238 0.951 1_556 S
H1221 C1240 0.951 . S
H1222 C1242 0.950 . S
H1223 C1243 0.950 . S
H1224 C1245 0.950 . S
H1225 C1248 0.950 . S
H1226 C1249 0.950 . S
H1227 C1251 0.950 . S
H1228 C1252 0.950 . S
H1229 C1253 0.951 . S
H1230 C1255 0.951 . S
H1231 C1257 0.950 . S
H1232 C1258 0.950 . S
H1233 C1260 0.950 . S
H1234 C1263 0.950 . S
H1235 C1264 0.950 . S
H1236 C1266 0.950 . S
H1237 C1267 0.950 . S
C1238 H1220 0.951 1_554 S
C1238 C1239 1.366 . S
C1238 C1240 1.388 1_554 S
C1239 C1238 1.366 . S
C1239 C1243 1.385 . S
C1240 H1221 0.951 . S
C1240 C1238 1.388 1_556 S
C1240 C1241 1.366 . S
C1241 C1240 1.366 . S
C1241 C1242 1.414 1_556 S
C1241 C1244 1.499 . S
C1242 H1222 0.950 . S
C1242 C1241 1.414 1_554 S
C1242 C1243 1.374 . S
C1243 H1223 0.950 . S
C1243 C1239 1.385 . S
C1243 C1242 1.374 . S
C1244 C1241 1.499 . S
C1244 C1245 1.373 1_556 S
C1244 C1246 1.389 . S
C1245 H1224 0.950 . S
C1245 C1244 1.373 1_554 S
C1245 C1261 1.377 1_554 S
C1246 C1244 1.389 . S
C1246 C1247 1.524 . S
C1246 C1260 1.377 . S
C1247 C1246 1.524 . S
C1247 C1248 1.397 . S
C1247 C1252 1.363 . S
C1248 H1225 0.950 . S
C1248 C1247 1.397 . S
C1248 C1249 1.334 . S
C1249 H1226 0.950 . S
C1249 C1248 1.334 . S
C1249 C1250 1.287 . S
C1250 C1249 1.287 . S
C1250 C1251 1.524 . S
C1250 H1269 0.913 . S
C1251 H1227 0.950 . S
C1251 C1250 1.524 . S
C1251 C1252 1.415 . S
C1252 H1228 0.950 . S
C1252 C1247 1.363 . S
C1252 C1251 1.415 . S
C1253 H1229 0.951 . S
C1253 C1254 1.366 . S
C1253 C1255 1.388 . S
C1254 C1253 1.366 . S
C1254 C1258 1.385 . S
C1255 H1230 0.951 . S
C1255 C1253 1.388 . S
C1255 C1256 1.366 . S
C1256 C1255 1.366 . S
C1256 C1257 1.414 . S
C1256 C1259 1.499 . S
C1257 H1231 0.950 . S
C1257 C1256 1.414 . S
C1257 C1258 1.374 . S
C1258 H1232 0.950 . S
C1258 C1254 1.385 . S
C1258 C1257 1.374 . S
C1259 C1256 1.499 . S
C1259 C1260 1.373 . S
C1259 C1261 1.389 . S
C1260 H1233 0.950 . S
C1260 C1246 1.377 . S
C1260 C1259 1.373 . S
C1261 C1245 1.377 1_556 S
C1261 C1259 1.389 . S
C1261 C1262 1.524 1_556 S
C1262 C1261 1.524 1_554 S
C1262 C1263 1.397 . S
C1262 C1267 1.363 . S
C1263 H1234 0.950 . S
C1263 C1262 1.397 . S
C1263 C1264 1.334 . S
C1264 H1235 0.950 . S
C1264 C1263 1.334 . S
C1264 C1265 1.287 . S
C1265 C1264 1.287 . S
C1265 C1266 1.524 . S
C1265 H1268 0.999 . S
C1266 H1236 0.950 . S
C1266 C1265 1.524 . S
C1266 C1267 1.415 . S
C1267 H1237 0.950 . S
C1267 C1262 1.363 . S
C1267 C1266 1.415 . S
H1268 C1265 0.999 . S
H1269 C1250 0.913 . S
H1270 C1288 0.951 . S
H1271 C1290 0.951 . S
H1272 C1292 0.950 1_545 S
H1273 C1293 0.950 . S
H1274 C1295 0.950 . S
H1275 C1298 0.950 . S
H1276 C1299 0.950 . S
H1277 C1301 0.950 . S
H1278 C1302 0.950 . S
H1279 C1303 0.951 . S
H1280 C1305 0.951 . S
H1281 C1307 0.950 . S
H1282 C1308 0.950 . S
H1283 C1310 0.950 . S
H1284 C1313 0.950 . S
H1285 C1314 0.950 . S
H1286 C1316 0.950 . S
H1287 C1317 0.950 . S
C1288 H1270 0.951 . S
C1288 C1289 1.366 . S
C1288 C1290 1.388 1_565 S
C1289 C1288 1.366 . S
C1289 C1293 1.385 . S
C1290 H1271 0.951 . S
C1290 C1288 1.388 1_545 S
C1290 C1291 1.366 . S
C1291 C1290 1.366 . S
C1291 C1292 1.414 1_545 S
C1291 C1294 1.499 . S
C1292 H1272 0.950 1_565 S
C1292 C1291 1.414 1_565 S
C1292 C1293 1.374 . S
C1293 H1273 0.950 . S
C1293 C1289 1.385 . S
C1293 C1292 1.374 . S
C1294 C1291 1.499 . S
C1294 C1295 1.373 . S
C1294 C1296 1.389 . S
C1295 H1274 0.950 . S
C1295 C1294 1.373 . S
C1295 C1311 1.377 . S
C1296 C1294 1.389 . S
C1296 C1297 1.524 . S
C1296 C1310 1.377 . S
C1297 C1296 1.524 . S
C1297 C1298 1.397 . S
C1297 C1302 1.363 . S
C1298 H1275 0.950 . S
C1298 C1297 1.397 . S
C1298 C1299 1.334 . S
C1299 H1276 0.950 . S
C1299 C1298 1.334 . S
C1299 C1300 1.287 . S
C1300 C1299 1.287 . S
C1300 C1301 1.524 . S
C1300 H1319 0.913 . S
C1301 H1277 0.950 . S
C1301 C1300 1.524 . S
C1301 C1302 1.415 . S
C1302 H1278 0.950 . S
C1302 C1297 1.363 . S
C1302 C1301 1.415 . S
C1303 H1279 0.951 . S
C1303 C1304 1.366 . S
C1303 C1305 1.388 . S
C1304 C1303 1.366 . S
C1304 C1308 1.385 . S
C1305 H1280 0.951 . S
C1305 C1303 1.388 . S
C1305 C1306 1.366 . S
C1306 C1305 1.366 . S
C1306 C1307 1.414 . S
C1306 C1309 1.499 . S
C1307 H1281 0.950 . S
C1307 C1306 1.414 . S
C1307 C1308 1.374 . S
C1308 H1282 0.950 . S
C1308 C1304 1.385 . S
C1308 C1307 1.374 . S
C1309 C1306 1.499 . S
C1309 C1310 1.373 . S
C1309 C1311 1.389 . S
C1310 H1283 0.950 . S
C1310 C1296 1.377 . S
C1310 C1309 1.373 . S
C1311 C1295 1.377 . S
C1311 C1309 1.389 . S
C1311 C1312 1.524 . S
C1312 C1311 1.524 . S
C1312 C1313 1.397 . S
C1312 C1317 1.363 . S
C1313 H1284 0.950 . S
C1313 C1312 1.397 . S
C1313 C1314 1.334 . S
C1314 H1285 0.950 . S
C1314 C1313 1.334 . S
C1314 C1315 1.287 . S
C1315 C1314 1.287 . S
C1315 C1316 1.524 . S
C1315 H1318 0.999 . S
C1316 H1286 0.950 . S
C1316 C1315 1.524 . S
C1316 C1317 1.415 . S
C1317 H1287 0.950 . S
C1317 C1312 1.363 . S
C1317 C1316 1.415 . S
H1318 C1315 0.999 . S
H1319 C1300 0.913 . S
H1320 C1338 0.951 . S
H1321 C1340 0.951 . S
H1322 C1342 0.950 . S
H1323 C1343 0.950 . S
H1324 C1345 0.950 . S
H1325 C1348 0.950 . S
H1326 C1349 0.950 . S
H1327 C1351 0.950 . S
H1328 C1352 0.950 . S
H1329 C1353 0.951 . S
H1330 C1355 0.951 . S
H1331 C1357 0.950 . S
H1332 C1358 0.950 . S
H1333 C1360 0.950 . S
H1334 C1363 0.950 . S
H1335 C1364 0.950 . S
H1336 C1366 0.950 . S
H1337 C1367 0.950 . S
C1338 H1320 0.951 . S
C1338 C1339 1.366 . S
C1338 C1340 1.388 . S
C1339 C1338 1.366 . S
C1339 C1343 1.385 . S
C1340 H1321 0.951 . S
C1340 C1338 1.388 . S
C1340 C1341 1.366 . S
C1341 C1340 1.366 . S
C1341 C1342 1.414 . S
C1341 C1344 1.499 . S
C1342 H1322 0.950 . S
C1342 C1341 1.414 . S
C1342 C1343 1.374 . S
C1343 H1323 0.950 . S
C1343 C1339 1.385 . S
C1343 C1342 1.374 . S
C1344 C1341 1.499 . S
C1344 C1345 1.373 . S
C1344 C1346 1.389 . S
C1345 H1324 0.950 . S
C1345 C1344 1.373 . S
C1345 C1361 1.377 . S
C1346 C1344 1.389 . S
C1346 C1347 1.524 . S
C1346 C1360 1.377 . S
C1347 C1346 1.524 . S
C1347 C1348 1.397 . S
C1347 C1352 1.363 . S
C1348 H1325 0.950 . S
C1348 C1347 1.397 . S
C1348 C1349 1.334 . S
C1349 H1326 0.950 . S
C1349 C1348 1.334 . S
C1349 C1350 1.287 . S
C1350 C1349 1.287 . S
C1350 C1351 1.524 . S
C1350 H1369 0.913 . S
C1351 H1327 0.950 . S
C1351 C1350 1.524 . S
C1351 C1352 1.415 . S
C1352 H1328 0.950 . S
C1352 C1347 1.363 . S
C1352 C1351 1.415 . S
C1353 H1329 0.951 . S
C1353 C1354 1.366 . S
C1353 C1355 1.388 . S
C1354 C1353 1.366 . S
C1354 C1358 1.385 . S
C1355 H1330 0.951 . S
C1355 C1353 1.388 . S
C1355 C1356 1.366 . S
C1356 C1355 1.366 . S
C1356 C1357 1.414 . S
C1356 C1359 1.499 . S
C1357 H1331 0.950 . S
C1357 C1356 1.414 . S
C1357 C1358 1.374 . S
C1358 H1332 0.950 . S
C1358 C1354 1.385 . S
C1358 C1357 1.374 . S
C1359 C1356 1.499 . S
C1359 C1360 1.373 . S
C1359 C1361 1.389 . S
C1360 H1333 0.950 . S
C1360 C1346 1.377 . S
C1360 C1359 1.373 . S
C1361 C1345 1.377 . S
C1361 C1359 1.389 . S
C1361 C1362 1.524 . S
C1362 C1361 1.524 . S
C1362 C1363 1.397 . S
C1362 C1367 1.363 . S
C1363 H1334 0.950 . S
C1363 C1362 1.397 . S
C1363 C1364 1.334 . S
C1364 H1335 0.950 . S
C1364 C1363 1.334 . S
C1364 C1365 1.287 . S
C1365 C1364 1.287 . S
C1365 C1366 1.524 . S
C1365 H1368 0.999 . S
C1366 H1336 0.950 . S
C1366 C1365 1.524 . S
C1366 C1367 1.415 . S
C1367 H1337 0.950 . S
C1367 C1362 1.363 . S
C1367 C1366 1.415 . S
H1368 C1365 0.999 . S
H1369 C1350 0.913 . S
H1370 C1388 0.951 . S
H1371 C1390 0.951 . S
H1372 C1392 0.950 . S
H1373 C1393 0.950 . S
H1374 C1395 0.950 . S
H1375 C1398 0.950 . S
H1376 C1399 0.950 . S
H1377 C1401 0.950 . S
H1378 C1402 0.950 . S
H1379 C1403 0.951 . S
H1380 C1405 0.946 1_545 S
H1381 C1407 0.950 . S
H1382 C1408 0.950 . S
H1383 C1410 0.950 . S
H1384 C1413 0.950 . S
H1385 C1414 0.950 . S
H1386 C1416 0.950 . S
H1387 C1417 0.950 . S
C1388 H1370 0.951 . S
C1388 C1389 1.366 . S
C1388 C1390 1.388 . S
C1389 C1388 1.366 . S
C1389 C1393 1.385 . S
C1390 H1371 0.951 . S
C1390 C1388 1.388 . S
C1390 C1391 1.366 . S
C1391 C1390 1.366 . S
C1391 C1392 1.414 . S
C1391 C1394 1.499 . S
C1392 H1372 0.950 . S
C1392 C1391 1.414 . S
C1392 C1393 1.374 . S
C1393 H1373 0.950 . S
C1393 C1389 1.385 . S
C1393 C1392 1.374 . S
C1394 C1391 1.499 . S
C1394 C1395 1.373 . S
C1394 C1396 1.389 . S
C1395 H1374 0.950 . S
C1395 C1394 1.373 . S
C1395 C1411 1.377 . S
C1396 C1394 1.389 . S
C1396 C1397 1.524 . S
C1396 C1410 1.377 . S
C1397 C1396 1.524 . S
C1397 C1398 1.397 . S
C1397 C1402 1.363 . S
C1398 H1375 0.950 . S
C1398 C1397 1.397 . S
C1398 C1399 1.334 . S
C1399 H1376 0.950 . S
C1399 C1398 1.334 . S
C1399 C1400 1.287 . S
C1400 C1399 1.287 . S
C1400 C1401 1.524 . S
C1400 H1419 0.913 . S
C1401 H1377 0.950 . S
C1401 C1400 1.524 . S
C1401 C1402 1.415 . S
C1402 H1378 0.950 . S
C1402 C1397 1.363 . S
C1402 C1401 1.415 . S
C1403 H1379 0.951 . S
C1403 C1404 1.366 . S
C1403 C1405 1.407 . S
C1404 C1403 1.366 . S
C1404 C1408 1.385 . S
C1405 H1380 0.946 1_565 S
C1405 C1403 1.407 . S
C1405 C1406 1.352 1_565 S
C1406 C1405 1.352 1_545 S
C1406 C1407 1.414 . S
C1406 C1409 1.499 . S
C1407 H1381 0.950 . S
C1407 C1406 1.414 . S
C1407 C1408 1.374 1_545 S
C1408 H1382 0.950 . S
C1408 C1404 1.385 . S
C1408 C1407 1.374 1_565 S
C1409 C1406 1.499 . S
C1409 C1410 1.373 . S
C1409 C1411 1.389 . S
C1410 H1383 0.950 . S
C1410 C1396 1.377 . S
C1410 C1409 1.373 . S
C1411 C1395 1.377 . S
C1411 C1409 1.389 . S
C1411 C1412 1.524 . S
C1412 C1411 1.524 . S
C1412 C1413 1.397 . S
C1412 C1417 1.363 . S
C1413 H1384 0.950 . S
C1413 C1412 1.397 . S
C1413 C1414 1.334 1_545 S
C1414 H1385 0.950 . S
C1414 C1413 1.334 1_565 S
C1414 C1415 1.287 . S
C1415 C1414 1.287 . S
C1415 C1416 1.524 . S
C1415 H1418 0.999 . S
C1416 H1386 0.950 . S
C1416 C1415 1.524 . S
C1416 C1417 1.415 1_565 S
C1417 H1387 0.950 . S
C1417 C1412 1.363 . S
C1417 C1416 1.415 1_545 S
H1418 C1415 0.999 . S
H1419 C1400 0.913 . S
H1420 C1438 0.951 . S
H1421 C1440 0.951 . S
H1422 C1442 0.950 . S
H1423 C1443 0.950 . S
H1424 C1445 0.950 . S
H1425 C1448 0.950 1_554 S
H1426 C1449 0.950 . S
H1427 C1451 0.950 . S
H1428 C1452 0.950 . S
H1429 C1453 0.951 1_554 S
H1430 C1455 0.951 . S
H1431 C1457 0.950 . S
H1432 C1458 0.950 . S
H1433 C1460 0.950 . S
H1434 C1463 0.950 . S
H1435 C1464 0.950 . S
H1436 C1466 0.950 . S
H1437 C1467 0.950 . S
C1438 H1420 0.951 . S
C1438 C1439 1.366 . S
C1438 C1440 1.388 . S
C1439 C1438 1.366 . S
C1439 C1443 1.385 . S
C1440 H1421 0.951 . S
C1440 C1438 1.388 . S
C1440 C1441 1.366 . S
C1441 C1440 1.366 . S
C1441 C1442 1.414 . S
C1441 C1444 1.499 . S
C1442 H1422 0.950 . S
C1442 C1441 1.414 . S
C1442 C1443 1.374 . S
C1443 H1423 0.950 . S
C1443 C1439 1.385 . S
C1443 C1442 1.374 . S
C1444 C1441 1.499 . S
C1444 C1445 1.373 . S
C1444 C1446 1.389 . S
C1445 H1424 0.950 . S
C1445 C1444 1.373 . S
C1445 C1461 1.377 . S
C1446 C1444 1.389 . S
C1446 C1447 1.524 1_554 S
C1446 C1460 1.377 1_554 S
C1447 C1446 1.524 1_556 S
C1447 C1448 1.397 . S
C1447 C1452 1.363 . S
C1448 H1425 0.950 1_556 S
C1448 C1447 1.397 . S
C1448 C1449 1.334 . S
C1449 H1426 0.950 . S
C1449 C1448 1.334 . S
C1449 C1450 1.287 . S
C1450 C1449 1.287 . S
C1450 C1451 1.524 . S
C1450 H1469 0.913 . S
C1451 H1427 0.950 . S
C1451 C1450 1.524 . S
C1451 C1452 1.415 . S
C1452 H1428 0.950 . S
C1452 C1447 1.363 . S
C1452 C1451 1.415 . S
C1453 H1429 0.951 1_556 S
C1453 C1454 1.366 . S
C1453 C1455 1.388 1_556 S
C1454 C1453 1.366 . S
C1454 C1458 1.385 . S
C1455 H1430 0.951 . S
C1455 C1453 1.388 1_554 S
C1455 C1456 1.366 . S
C1456 C1455 1.366 . S
C1456 C1457 1.414 1_554 S
C1456 C1459 1.499 . S
C1457 H1431 0.950 . S
C1457 C1456 1.414 1_556 S
C1457 C1458 1.374 . S
C1458 H1432 0.950 . S
C1458 C1454 1.385 . S
C1458 C1457 1.374 . S
C1459 C1456 1.499 . S
C1459 C1460 1.373 1_554 S
C1459 C1461 1.389 . S
C1460 H1433 0.950 . S
C1460 C1446 1.377 1_556 S
C1460 C1459 1.373 1_556 S
C1461 C1445 1.377 . S
C1461 C1459 1.389 . S
C1461 C1462 1.524 . S
C1462 C1461 1.524 . S
C1462 C1463 1.397 . S
C1462 C1467 1.363 . S
C1463 H1434 0.950 . S
C1463 C1462 1.397 . S
C1463 C1464 1.334 . S
C1464 H1435 0.950 . S
C1464 C1463 1.334 . S
C1464 C1465 1.287 . S
C1465 C1464 1.287 . S
C1465 C1466 1.524 . S
C1465 H1468 0.999 . S
C1466 H1436 0.950 . S
C1466 C1465 1.524 . S
C1466 C1467 1.415 . S
C1467 H1437 0.950 . S
C1467 C1462 1.363 . S
C1467 C1466 1.415 . S
H1468 C1465 0.999 . S
H1469 C1450 0.913 . S
H1470 C1488 0.951 . S
H1471 C1490 0.951 1_565 S
H1472 C1492 0.950 . S
H1473 C1493 0.950 . S
H1474 C1495 0.950 . S
H1475 C1498 0.950 . S
H1476 C1499 0.950 . S
H1477 C1501 0.950 . S
H1478 C1502 0.950 . S
H1479 C1503 0.951 . S
H1480 C1505 0.951 . S
H1481 C1507 0.950 . S
H1482 C1508 0.950 . S
H1483 C1510 0.950 . S
H1484 C1513 0.950 . S
H1485 C1514 0.950 . S
H1486 C1516 0.950 . S
H1487 C1517 0.950 . S
C1488 H1470 0.951 . S
C1488 C1489 1.366 . S
C1488 C1490 1.388 . S
C1489 C1488 1.366 . S
C1489 C1493 1.385 . S
C1490 H1471 0.951 1_545 S
C1490 C1488 1.388 . S
C1490 C1491 1.366 1_545 S
C1491 C1490 1.366 1_565 S
C1491 C1492 1.414 . S
C1491 C1494 1.499 . S
C1492 H1472 0.950 . S
C1492 C1491 1.414 . S
C1492 C1493 1.374 1_565 S
C1493 H1473 0.950 . S
C1493 C1489 1.385 . S
C1493 C1492 1.374 1_545 S
C1494 C1491 1.499 . S
C1494 C1495 1.373 . S
C1494 C1496 1.389 . S
C1495 H1474 0.950 . S
C1495 C1494 1.373 . S
C1495 C1511 1.377 . S
C1496 C1494 1.389 . S
C1496 C1497 1.524 . S
C1496 C1510 1.377 . S
C1497 C1496 1.524 . S
C1497 C1498 1.397 . S
C1497 C1502 1.363 . S
C1498 H1475 0.950 . S
C1498 C1497 1.397 . S
C1498 C1499 1.334 1_565 S
C1499 H1476 0.950 . S
C1499 C1498 1.334 1_545 S
C1499 C1500 1.287 . S
C1500 C1499 1.287 . S
C1500 C1501 1.524 . S
C1500 H1519 0.913 . S
C1501 H1477 0.950 . S
C1501 C1500 1.524 . S
C1501 C1502 1.415 1_545 S
C1502 H1478 0.950 . S
C1502 C1497 1.363 . S
C1502 C1501 1.415 1_565 S
C1503 H1479 0.951 . S
C1503 C1504 1.366 . S
C1503 C1505 1.388 . S
C1504 C1503 1.366 . S
C1504 C1508 1.385 . S
C1505 H1480 0.951 . S
C1505 C1503 1.388 . S
C1505 C1506 1.366 . S
C1506 C1505 1.366 . S
C1506 C1507 1.414 . S
C1506 C1509 1.499 . S
C1507 H1481 0.950 . S
C1507 C1506 1.414 . S
C1507 C1508 1.374 . S
C1508 H1482 0.950 . S
C1508 C1504 1.385 . S
C1508 C1507 1.374 . S
C1509 C1506 1.499 . S
C1509 C1510 1.373 . S
C1509 C1511 1.389 . S
C1510 H1483 0.950 . S
C1510 C1496 1.377 . S
C1510 C1509 1.373 . S
C1511 C1495 1.377 . S
C1511 C1509 1.389 . S
C1511 C1512 1.524 . S
C1512 C1511 1.524 . S
C1512 C1513 1.397 . S
C1512 C1517 1.363 . S
C1513 H1484 0.950 . S
C1513 C1512 1.397 . S
C1513 C1514 1.334 . S
C1514 H1485 0.950 . S
C1514 C1513 1.334 . S
C1514 C1515 1.287 . S
C1515 C1514 1.287 . S
C1515 C1516 1.524 . S
C1515 H1518 0.999 . S
C1516 H1486 0.950 . S
C1516 C1515 1.524 . S
C1516 C1517 1.415 . S
C1517 H1487 0.950 . S
C1517 C1512 1.363 . S
C1517 C1516 1.415 . S
H1518 C1515 0.999 . S
H1519 C1500 0.913 . S
H1520 C1538 0.951 . S
H1521 C1540 0.951 . S
H1522 C1542 0.950 . S
H1523 C1543 0.950 . S
H1524 C1545 0.950 . S
H1525 C1548 0.950 . S
H1526 C1549 0.950 . S
H1527 C1551 0.950 . S
H1528 C1552 0.950 . S
H1529 C1553 0.951 . S
H1530 C1555 0.951 . S
H1531 C1557 0.950 . S
H1532 C1558 0.950 . S
H1533 C1560 0.950 . S
H1534 C1563 0.950 . S
H1535 C1564 0.950 . S
H1536 C1566 0.950 . S
H1537 C1567 0.950 . S
C1538 H1520 0.951 . S
C1538 C1539 1.366 . S
C1538 C1540 1.388 . S
C1539 C1538 1.366 . S
C1539 C1543 1.385 1_556 S
C1540 H1521 0.951 . S
C1540 C1538 1.388 . S
C1540 C1541 1.366 . S
C1541 C1540 1.366 . S
C1541 C1542 1.414 . S
C1541 C1544 1.499 . S
C1542 H1522 0.950 . S
C1542 C1541 1.414 . S
C1542 C1543 1.374 1_556 S
C1543 H1523 0.950 . S
C1543 C1539 1.385 1_554 S
C1543 C1542 1.374 1_554 S
C1544 C1541 1.499 . S
C1544 C1545 1.373 . S
C1544 C1546 1.389 . S
C1545 H1524 0.950 . S
C1545 C1544 1.373 . S
C1545 C1561 1.377 . S
C1546 C1544 1.389 . S
C1546 C1547 1.524 . S
C1546 C1560 1.377 . S
C1547 C1546 1.524 . S
C1547 C1548 1.397 . S
C1547 C1552 1.363 . S
C1548 H1525 0.950 . S
C1548 C1547 1.397 . S
C1548 C1549 1.334 . S
C1549 H1526 0.950 . S
C1549 C1548 1.334 . S
C1549 C1550 1.287 . S
C1550 C1549 1.287 . S
C1550 C1551 1.524 . S
C1550 H1569 0.913 . S
C1551 H1527 0.950 . S
C1551 C1550 1.524 . S
C1551 C1552 1.415 . S
C1552 H1528 0.950 . S
C1552 C1547 1.363 . S
C1552 C1551 1.415 . S
C1553 H1529 0.951 . S
C1553 C1554 1.366 . S
C1553 C1555 1.388 . S
C1554 C1553 1.366 . S
C1554 C1558 1.385 . S
C1555 H1530 0.951 . S
C1555 C1553 1.388 . S
C1555 C1556 1.366 . S
C1556 C1555 1.366 . S
C1556 C1557 1.414 . S
C1556 C1559 1.499 . S
C1557 H1531 0.950 . S
C1557 C1556 1.414 . S
C1557 C1558 1.374 . S
C1558 H1532 0.950 . S
C1558 C1554 1.385 . S
C1558 C1557 1.374 . S
C1559 C1556 1.499 . S
C1559 C1560 1.373 . S
C1559 C1561 1.389 . S
C1560 H1533 0.950 . S
C1560 C1546 1.377 . S
C1560 C1559 1.373 . S
C1561 C1545 1.377 . S
C1561 C1559 1.389 . S
C1561 C1562 1.524 . S
C1562 C1561 1.524 . S
C1562 C1563 1.397 . S
C1562 C1567 1.363 . S
C1563 H1534 0.950 . S
C1563 C1562 1.397 . S
C1563 C1564 1.334 . S
C1564 H1535 0.950 . S
C1564 C1563 1.334 . S
C1564 C1565 1.287 . S
C1565 C1564 1.287 . S
C1565 C1566 1.524 . S
C1565 H1568 0.999 . S
C1566 H1536 0.950 . S
C1566 C1565 1.524 . S
C1566 C1567 1.415 . S
C1567 H1537 0.950 . S
C1567 C1562 1.363 . S
C1567 C1566 1.415 . S
H1568 C1565 0.999 . S
H1569 C1550 0.913 . S
H1570 C1588 0.951 . S
H1571 C1590 0.951 . S
H1572 C1592 0.950 . S
H1573 C1593 0.950 . S
H1574 C1595 0.950 . S
H1575 C1598 0.950 . S
H1576 C1599 0.950 . S
H1577 C1601 0.950 . S
H1578 C1602 0.950 . S
H1579 C1603 0.951 . S
H1580 C1605 0.951 . S
H1581 C1607 0.950 . S
H1582 C1608 0.943 1_556 S
H1583 C1610 0.950 . S
H1584 C1613 0.950 . S
H1585 C1614 0.950 . S
H1586 C1616 0.950 . S
H1587 C1617 0.950 . S
C1588 H1570 0.951 . S
C1588 C1589 1.366 . S
C1588 C1590 1.388 . S
C1589 C1588 1.366 . S
C1589 C1593 1.385 . S
C1590 H1571 0.951 . S
C1590 C1588 1.388 . S
C1590 C1591 1.366 . S
C1591 C1590 1.366 . S
C1591 C1592 1.414 . S
C1591 C1594 1.499 . S
C1592 H1572 0.950 . S
C1592 C1591 1.414 . S
C1592 C1593 1.374 . S
C1593 H1573 0.950 . S
C1593 C1589 1.385 . S
C1593 C1592 1.374 . S
C1594 C1591 1.499 . S
C1594 C1595 1.373 . S
C1594 C1596 1.389 . S
C1595 H1574 0.950 . S
C1595 C1594 1.373 . S
C1595 C1611 1.377 . S
C1596 C1594 1.389 . S
C1596 C1597 1.524 . S
C1596 C1610 1.377 . S
C1597 C1596 1.524 . S
C1597 C1598 1.397 . S
C1597 C1602 1.363 . S
C1598 H1575 0.950 . S
C1598 C1597 1.397 . S
C1598 C1599 1.334 . S
C1599 H1576 0.950 . S
C1599 C1598 1.334 . S
C1599 C1600 1.287 . S
C1600 C1599 1.287 . S
C1600 C1601 1.524 . S
C1600 H1619 0.913 . S
C1601 H1577 0.950 . S
C1601 C1600 1.524 . S
C1601 C1602 1.415 . S
C1602 H1578 0.950 . S
C1602 C1597 1.363 . S
C1602 C1601 1.415 . S
C1603 H1579 0.951 . S
C1603 C1604 1.366 . S
C1603 C1605 1.388 . S
C1604 C1603 1.366 . S
C1604 C1608 1.385 . S
C1605 H1580 0.951 . S
C1605 C1603 1.388 . S
C1605 C1606 1.366 . S
C1606 C1605 1.366 . S
C1606 C1607 1.414 . S
C1606 C1609 1.499 . S
C1607 H1581 0.950 . S
C1607 C1606 1.414 . S
C1607 C1608 1.374 . S
C1608 H1582 0.943 1_554 S
C1608 C1604 1.385 . S
C1608 C1607 1.374 . S
C1609 C1606 1.499 . S
C1609 C1610 1.373 . S
C1609 C1611 1.389 . S
C1610 H1583 0.950 . S
C1610 C1596 1.377 . S
C1610 C1609 1.373 . S
C1611 C1595 1.377 . S
C1611 C1609 1.389 . S
C1611 C1612 1.524 . S
C1612 C1611 1.524 . S
C1612 C1613 1.397 . S
C1612 C1617 1.363 . S
C1613 H1584 0.950 . S
C1613 C1612 1.397 . S
C1613 C1614 1.334 . S
C1614 H1585 0.950 . S
C1614 C1613 1.334 . S
C1614 C1615 1.287 . S
C1615 C1614 1.287 . S
C1615 C1616 1.524 . S
C1615 H1618 0.999 . S
C1616 H1586 0.950 . S
C1616 C1615 1.524 . S
C1616 C1617 1.415 . S
C1617 H1587 0.950 . S
C1617 C1612 1.363 . S
C1617 C1616 1.415 . S
H1618 C1615 0.999 . S
H1619 C1600 0.913 . S
H1620 C1638 0.945 1_455 S
H1621 C1640 0.951 . S
H1622 C1642 0.950 . S
H1623 C1643 0.950 . S
H1624 C1645 0.950 . S
H1625 C1648 0.950 . S
H1626 C1649 0.950 . S
H1627 C1651 0.950 . S
H1628 C1652 0.950 . S
H1629 C1653 0.951 . S
H1630 C1655 0.951 . S
H1631 C1657 0.950 . S
H1632 C1658 0.950 . S
H1633 C1660 0.950 . S
H1634 C1663 0.950 . S
H1635 C1664 0.950 . S
H1636 C1666 0.950 . S
H1637 C1667 0.950 . S
C1638 H1620 0.945 1_655 S
C1638 C1639 1.366 . S
C1638 C1640 1.388 1_655 S
C1639 C1638 1.366 . S
C1639 C1643 1.385 . S
C1640 H1621 0.951 . S
C1640 C1638 1.388 1_455 S
C1640 C1641 1.366 . S
C1641 C1640 1.366 . S
C1641 C1642 1.414 1_455 S
C1641 C1644 1.499 . S
C1642 H1622 0.950 . S
C1642 C1641 1.414 1_655 S
C1642 C1643 1.374 . S
C1643 H1623 0.950 . S
C1643 C1639 1.385 . S
C1643 C1642 1.374 . S
C1644 C1641 1.499 . S
C1644 C1645 1.373 . S
C1644 C1646 1.389 . S
C1645 H1624 0.950 . S
C1645 C1644 1.373 . S
C1645 C1661 1.377 . S
C1646 C1644 1.389 . S
C1646 C1647 1.524 . S
C1646 C1660 1.377 . S
C1647 C1646 1.524 . S
C1647 C1648 1.397 . S
C1647 C1652 1.363 . S
C1648 H1625 0.950 . S
C1648 C1647 1.397 . S
C1648 C1649 1.334 . S
C1649 H1626 0.950 . S
C1649 C1648 1.334 . S
C1649 C1650 1.287 . S
C1650 C1649 1.287 . S
C1650 C1651 1.524 . S
C1650 H1669 0.913 . S
C1651 H1627 0.950 . S
C1651 C1650 1.524 . S
C1651 C1652 1.415 . S
C1652 H1628 0.950 . S
C1652 C1647 1.363 . S
C1652 C1651 1.415 . S
C1653 H1629 0.951 . S
C1653 C1654 1.366 . S
C1653 C1655 1.388 . S
C1654 C1653 1.366 . S
C1654 C1658 1.385 . S
C1655 H1630 0.951 . S
C1655 C1653 1.388 . S
C1655 C1656 1.366 . S
C1656 C1655 1.366 . S
C1656 C1657 1.414 . S
C1656 C1659 1.499 . S
C1657 H1631 0.950 . S
C1657 C1656 1.414 . S
C1657 C1658 1.374 . S
C1658 H1632 0.950 . S
C1658 C1654 1.385 . S
C1658 C1657 1.374 . S
C1659 C1656 1.499 . S
C1659 C1660 1.373 . S
C1659 C1661 1.389 . S
C1660 H1633 0.950 . S
C1660 C1646 1.377 . S
C1660 C1659 1.373 . S
C1661 C1645 1.377 . S
C1661 C1659 1.389 . S
C1661 C1662 1.524 . S
C1662 C1661 1.524 . S
C1662 C1663 1.397 . S
C1662 C1667 1.363 . S
C1663 H1634 0.950 . S
C1663 C1662 1.397 . S
C1663 C1664 1.334 . S
C1664 H1635 0.950 . S
C1664 C1663 1.334 . S
C1664 C1665 1.287 . S
C1665 C1664 1.287 . S
C1665 C1666 1.524 1_455 S
C1665 H1668 1.004 . S
C1666 H1636 0.950 . S
C1666 C1665 1.524 1_655 S
C1666 C1667 1.415 1_655 S
C1667 H1637 0.950 . S
C1667 C1662 1.363 . S
C1667 C1666 1.415 1_455 S
H1668 C1665 1.004 . S
H1669 C1650 0.913 . S
H1670 C1688 0.951 . S
H1671 C1690 0.951 . S
H1672 C1692 0.950 . S
H1673 C1693 0.950 . S
H1674 C1695 0.950 . S
H1675 C1698 0.950 . S
H1676 C1699 0.950 . S
H1677 C1701 0.950 . S
H1678 C1702 0.950 . S
H1679 C1703 0.951 . S
H1680 C1705 0.951 . S
H1681 C1707 0.950 . S
H1682 C1708 0.950 . S
H1683 C1710 0.950 . S
H1684 C1713 0.950 . S
H1685 C1714 0.950 . S
H1686 C1716 0.950 . S
H1687 C1717 0.950 . S
C1688 H1670 0.951 . S
C1688 C1689 1.366 . S
C1688 C1690 1.388 . S
C1689 C1688 1.366 . S
C1689 C1693 1.385 . S
C1690 H1671 0.951 . S
C1690 C1688 1.388 . S
C1690 C1691 1.366 . S
C1691 C1690 1.366 . S
C1691 C1692 1.414 . S
C1691 C1694 1.499 . S
C1692 H1672 0.950 . S
C1692 C1691 1.414 . S
C1692 C1693 1.374 . S
C1693 H1673 0.950 . S
C1693 C1689 1.385 . S
C1693 C1692 1.374 . S
C1694 C1691 1.499 . S
C1694 C1695 1.373 . S
C1694 C1696 1.389 . S
C1695 H1674 0.950 . S
C1695 C1694 1.373 . S
C1695 C1711 1.377 . S
C1696 C1694 1.389 . S
C1696 C1697 1.524 . S
C1696 C1710 1.377 . S
C1697 C1696 1.524 . S
C1697 C1698 1.397 . S
C1697 C1702 1.363 . S
C1698 H1675 0.950 . S
C1698 C1697 1.397 . S
C1698 C1699 1.334 . S
C1699 H1676 0.950 . S
C1699 C1698 1.334 . S
C1699 C1700 1.287 . S
C1700 C1699 1.287 . S
C1700 C1701 1.524 . S
C1700 H1719 0.913 . S
C1701 H1677 0.950 . S
C1701 C1700 1.524 . S
C1701 C1702 1.415 . S
C1702 H1678 0.950 . S
C1702 C1697 1.363 . S
C1702 C1701 1.415 . S
C1703 H1679 0.951 . S
C1703 C1704 1.366 . S
C1703 C1705 1.388 . S
C1704 C1703 1.366 . S
C1704 C1708 1.385 . S
C1705 H1680 0.951 . S
C1705 C1703 1.388 . S
C1705 C1706 1.366 . S
C1706 C1705 1.366 . S
C1706 C1707 1.414 . S
C1706 C1709 1.499 . S
C1707 H1681 0.950 . S
C1707 C1706 1.414 . S
C1707 C1708 1.374 . S
C1708 H1682 0.950 . S
C1708 C1704 1.385 . S
C1708 C1707 1.374 . S
C1709 C1706 1.499 . S
C1709 C1710 1.373 . S
C1709 C1711 1.389 . S
C1710 H1683 0.950 . S
C1710 C1696 1.377 . S
C1710 C1709 1.373 . S
C1711 C1695 1.377 . S
C1711 C1709 1.389 . S
C1711 C1712 1.524 . S
C1712 C1711 1.524 . S
C1712 C1713 1.397 . S
C1712 C1717 1.363 . S
C1713 H1684 0.950 . S
C1713 C1712 1.397 . S
C1713 C1714 1.334 . S
C1714 H1685 0.950 . S
C1714 C1713 1.334 . S
C1714 C1715 1.287 . S
C1715 C1714 1.287 . S
C1715 C1716 1.524 . S
C1715 H1718 0.999 . S
C1716 H1686 0.950 . S
C1716 C1715 1.524 . S
C1716 C1717 1.415 . S
C1717 H1687 0.950 . S
C1717 C1712 1.363 . S
C1717 C1716 1.415 . S
H1718 C1715 0.999 . S
H1719 C1700 0.913 . S
H1720 C1738 0.951 . S
H1721 C1740 0.951 . S
H1722 C1742 0.950 . S
H1723 C1743 0.950 1_556 S
H1724 C1745 0.950 . S
H1725 C1748 0.950 . S
H1726 C1749 0.950 . S
H1727 C1751 0.950 . S
H1728 C1752 0.950 . S
H1729 C1753 0.951 . S
H1730 C1755 0.951 . S
H1731 C1757 0.950 . S
H1732 C1758 0.950 . S
H1733 C1760 0.950 . S
H1734 C1763 0.950 . S
H1735 C1764 0.950 . S
H1736 C1766 0.950 . S
H1737 C1767 0.950 . S
C1738 H1720 0.951 . S
C1738 C1739 1.366 . S
C1738 C1740 1.388 . S
C1739 C1738 1.366 . S
C1739 C1743 1.385 . S
C1740 H1721 0.951 . S
C1740 C1738 1.388 . S
C1740 C1741 1.366 . S
C1741 C1740 1.366 . S
C1741 C1742 1.414 . S
C1741 C1744 1.499 . S
C1742 H1722 0.950 . S
C1742 C1741 1.414 . S
C1742 C1743 1.374 . S
C1743 H1723 0.950 1_554 S
C1743 C1739 1.385 . S
C1743 C1742 1.374 . S
C1744 C1741 1.499 . S
C1744 C1745 1.373 . S
C1744 C1746 1.389 . S
C1745 H1724 0.950 . S
C1745 C1744 1.373 . S
C1745 C1761 1.377 . S
C1746 C1744 1.389 . S
C1746 C1747 1.524 . S
C1746 C1760 1.377 . S
C1747 C1746 1.524 . S
C1747 C1748 1.397 . S
C1747 C1752 1.363 . S
C1748 H1725 0.950 . S
C1748 C1747 1.397 . S
C1748 C1749 1.334 . S
C1749 H1726 0.950 . S
C1749 C1748 1.334 . S
C1749 C1750 1.287 . S
C1750 C1749 1.287 . S
C1750 C1751 1.524 . S
C1750 H1769 0.913 . S
C1751 H1727 0.950 . S
C1751 C1750 1.524 . S
C1751 C1752 1.415 . S
C1752 H1728 0.950 . S
C1752 C1747 1.363 . S
C1752 C1751 1.415 . S
C1753 H1729 0.951 . S
C1753 C1754 1.366 . S
C1753 C1755 1.388 . S
C1754 C1753 1.366 . S
C1754 C1758 1.385 . S
C1755 H1730 0.951 . S
C1755 C1753 1.388 . S
C1755 C1756 1.366 . S
C1756 C1755 1.366 . S
C1756 C1757 1.414 . S
C1756 C1759 1.499 . S
C1757 H1731 0.950 . S
C1757 C1756 1.414 . S
C1757 C1758 1.374 . S
C1758 H1732 0.950 . S
C1758 C1754 1.385 . S
C1758 C1757 1.374 . S
C1759 C1756 1.499 . S
C1759 C1760 1.373 . S
C1759 C1761 1.389 . S
C1760 H1733 0.950 . S
C1760 C1746 1.377 . S
C1760 C1759 1.373 . S
C1761 C1745 1.377 . S
C1761 C1759 1.389 . S
C1761 C1762 1.524 . S
C1762 C1761 1.524 . S
C1762 C1763 1.397 . S
C1762 C1767 1.363 . S
C1763 H1734 0.950 . S
C1763 C1762 1.397 . S
C1763 C1764 1.334 . S
C1764 H1735 0.950 . S
C1764 C1763 1.334 . S
C1764 C1765 1.287 . S
C1765 C1764 1.287 . S
C1765 C1766 1.524 . S
C1765 H1768 0.999 . S
C1766 H1736 0.950 . S
C1766 C1765 1.524 . S
C1766 C1767 1.415 . S
C1767 H1737 0.950 . S
C1767 C1762 1.363 . S
C1767 C1766 1.415 . S
H1768 C1765 0.999 . S
H1769 C1750 0.913 . S
H1770 C1788 0.951 . S
H1771 C1790 0.951 . S
H1772 C1792 0.950 . S
H1773 C1793 0.950 . S
H1774 C1795 0.950 . S
H1775 C1798 0.950 . S
H1776 C1799 0.950 . S
H1777 C1801 0.950 . S
H1778 C1802 0.950 . S
H1779 C1803 0.951 . S
H1780 C1805 0.951 . S
H1781 C1807 0.950 . S
H1782 C1808 0.950 1_554 S
H1783 C1810 0.950 . S
H1784 C1813 0.950 . S
H1785 C1814 0.950 . S
H1786 C1816 0.950 . S
H1787 C1817 0.950 . S
C1788 H1770 0.951 . S
C1788 C1789 1.366 . S
C1788 C1790 1.388 . S
C1789 C1788 1.366 . S
C1789 C1793 1.385 . S
C1790 H1771 0.951 . S
C1790 C1788 1.388 . S
C1790 C1791 1.366 . S
C1791 C1790 1.366 . S
C1791 C1792 1.414 . S
C1791 C1794 1.499 . S
C1792 H1772 0.950 . S
C1792 C1791 1.414 . S
C1792 C1793 1.374 . S
C1793 H1773 0.950 . S
C1793 C1789 1.385 . S
C1793 C1792 1.374 . S
C1794 C1791 1.499 . S
C1794 C1795 1.373 . S
C1794 C1796 1.389 . S
C1795 H1774 0.950 . S
C1795 C1794 1.373 . S
C1795 C1811 1.377 . S
C1796 C1794 1.389 . S
C1796 C1797 1.524 . S
C1796 C1810 1.377 . S
C1797 C1796 1.524 . S
C1797 C1798 1.397 . S
C1797 C1802 1.363 . S
C1798 H1775 0.950 . S
C1798 C1797 1.397 . S
C1798 C1799 1.334 . S
C1799 H1776 0.950 . S
C1799 C1798 1.334 . S
C1799 C1800 1.287 . S
C1800 C1799 1.287 . S
C1800 C1801 1.524 . S
C1800 H1819 0.913 . S
C1801 H1777 0.950 . S
C1801 C1800 1.524 . S
C1801 C1802 1.415 . S
C1802 H1778 0.950 . S
C1802 C1797 1.363 . S
C1802 C1801 1.415 . S
C1803 H1779 0.951 . S
C1803 C1804 1.366 . S
C1803 C1805 1.388 . S
C1804 C1803 1.366 . S
C1804 C1808 1.385 . S
C1805 H1780 0.951 . S
C1805 C1803 1.388 . S
C1805 C1806 1.366 . S
C1806 C1805 1.366 . S
C1806 C1807 1.414 . S
C1806 C1809 1.499 . S
C1807 H1781 0.950 . S
C1807 C1806 1.414 . S
C1807 C1808 1.374 . S
C1808 H1782 0.950 1_556 S
C1808 C1804 1.385 . S
C1808 C1807 1.374 . S
C1809 C1806 1.499 . S
C1809 C1810 1.373 . S
C1809 C1811 1.389 . S
C1810 H1783 0.950 . S
C1810 C1796 1.377 . S
C1810 C1809 1.373 . S
C1811 C1795 1.377 . S
C1811 C1809 1.389 . S
C1811 C1812 1.524 . S
C1812 C1811 1.524 . S
C1812 C1813 1.397 . S
C1812 C1817 1.363 . S
C1813 H1784 0.950 . S
C1813 C1812 1.397 . S
C1813 C1814 1.334 . S
C1814 H1785 0.950 . S
C1814 C1813 1.334 . S
C1814 C1815 1.287 . S
C1815 C1814 1.287 . S
C1815 C1816 1.524 . S
C1815 H1818 0.999 . S
C1816 H1786 0.950 . S
C1816 C1815 1.524 . S
C1816 C1817 1.415 . S
C1817 H1787 0.950 . S
C1817 C1812 1.363 . S
C1817 C1816 1.415 . S
H1818 C1815 0.999 . S
H1819 C1800 0.913 . S
H1820 C1838 0.951 . S
H1821 C1840 0.951 . S
H1822 C1842 0.950 . S
H1823 C1843 0.950 . S
H1824 C1845 0.950 . S
H1825 C1848 0.950 . S
H1826 C1849 0.950 . S
H1827 C1851 0.950 . S
H1828 C1852 0.950 . S
H1829 C1853 0.951 . S
H1830 C1855 0.951 . S
H1831 C1857 0.950 . S
H1832 C1858 0.950 . S
H1833 C1860 0.950 . S
H1834 C1863 0.950 . S
H1835 C1864 0.950 . S
H1836 C1866 0.950 1_455 S
H1837 C1867 0.950 . S
C1838 H1820 0.951 . S
C1838 C1839 1.366 1_655 S
C1838 C1840 1.388 . S
C1839 C1838 1.366 1_455 S
C1839 C1843 1.385 . S
C1840 H1821 0.951 . S
C1840 C1838 1.388 . S
C1840 C1841 1.366 . S
C1841 C1840 1.366 . S
C1841 C1842 1.414 1_655 S
C1841 C1844 1.499 . S
C1842 H1822 0.950 . S
C1842 C1841 1.414 1_455 S
C1842 C1843 1.374 . S
C1843 H1823 0.950 . S
C1843 C1839 1.385 . S
C1843 C1842 1.374 . S
C1844 C1841 1.499 . S
C1844 C1845 1.373 . S
C1844 C1846 1.389 . S
C1845 H1824 0.950 . S
C1845 C1844 1.373 . S
C1845 C1861 1.377 . S
C1846 C1844 1.389 . S
C1846 C1847 1.524 . S
C1846 C1860 1.377 . S
C1847 C1846 1.524 . S
C1847 C1848 1.397 . S
C1847 C1852 1.363 . S
C1848 H1825 0.950 . S
C1848 C1847 1.397 . S
C1848 C1849 1.334 . S
C1849 H1826 0.950 . S
C1849 C1848 1.334 . S
C1849 C1850 1.287 . S
C1850 C1849 1.287 . S
C1850 C1851 1.524 . S
C1850 H1869 0.913 . S
C1851 H1827 0.950 . S
C1851 C1850 1.524 . S
C1851 C1852 1.415 . S
C1852 H1828 0.950 . S
C1852 C1847 1.363 . S
C1852 C1851 1.415 . S
C1853 H1829 0.951 . S
C1853 C1854 1.366 . S
C1853 C1855 1.388 . S
C1854 C1853 1.366 . S
C1854 C1858 1.385 . S
C1855 H1830 0.951 . S
C1855 C1853 1.388 . S
C1855 C1856 1.366 . S
C1856 C1855 1.366 . S
C1856 C1857 1.414 . S
C1856 C1859 1.499 . S
C1857 H1831 0.950 . S
C1857 C1856 1.414 . S
C1857 C1858 1.374 . S
C1858 H1832 0.950 . S
C1858 C1854 1.385 . S
C1858 C1857 1.374 . S
C1859 C1856 1.499 . S
C1859 C1860 1.373 . S
C1859 C1861 1.389 . S
C1860 H1833 0.950 . S
C1860 C1846 1.377 . S
C1860 C1859 1.373 . S
C1861 C1845 1.377 . S
C1861 C1859 1.389 . S
C1861 C1862 1.524 . S
C1862 C1861 1.524 . S
C1862 C1863 1.397 . S
C1862 C1867 1.363 . S
C1863 H1834 0.950 . S
C1863 C1862 1.397 . S
C1863 C1864 1.334 . S
C1864 H1835 0.950 . S
C1864 C1863 1.334 . S
C1864 C1865 1.287 . S
C1865 C1864 1.287 . S
C1865 C1866 1.524 . S
C1865 H1868 0.999 . S
C1866 H1836 0.950 1_655 S
C1866 C1865 1.524 . S
C1866 C1867 1.415 . S
C1867 H1837 0.950 . S
C1867 C1862 1.363 . S
C1867 C1866 1.415 . S
H1868 C1865 0.999 . S
H1869 C1850 0.913 . S
H1870 C1888 0.951 . S
H1871 C1890 0.951 . S
H1872 C1892 0.950 . S
H1873 C1893 0.950 . S
H1874 C1895 0.950 . S
H1875 C1898 0.950 . S
H1876 C1899 0.950 . S
H1877 C1901 0.950 . S
H1878 C1902 0.950 . S
H1879 C1903 0.951 . S
H1880 C1905 0.951 . S
H1881 C1907 0.950 . S
H1882 C1908 0.950 . S
H1883 C1910 0.950 . S
H1884 C1913 0.950 . S
H1885 C1914 0.950 . S
H1886 C1916 0.950 . S
H1887 C1917 0.950 . S
C1888 H1870 0.951 . S
C1888 C1889 1.366 . S
C1888 C1890 1.388 . S
C1889 C1888 1.366 . S
C1889 C1893 1.385 . S
C1890 H1871 0.951 . S
C1890 C1888 1.388 . S
C1890 C1891 1.366 . S
C1891 C1890 1.366 . S
C1891 C1892 1.414 . S
C1891 C1894 1.499 . S
C1892 H1872 0.950 . S
C1892 C1891 1.414 . S
C1892 C1893 1.374 . S
C1893 H1873 0.950 . S
C1893 C1889 1.385 . S
C1893 C1892 1.374 . S
C1894 C1891 1.499 . S
C1894 C1895 1.373 . S
C1894 C1896 1.389 . S
C1895 H1874 0.950 . S
C1895 C1894 1.373 . S
C1895 C1911 1.377 . S
C1896 C1894 1.389 . S
C1896 C1897 1.524 . S
C1896 C1910 1.377 . S
C1897 C1896 1.524 . S
C1897 C1898 1.397 . S
C1897 C1902 1.363 . S
C1898 H1875 0.950 . S
C1898 C1897 1.397 . S
C1898 C1899 1.334 . S
C1899 H1876 0.950 . S
C1899 C1898 1.334 . S
C1899 C1900 1.287 . S
C1900 C1899 1.287 . S
C1900 C1901 1.524 . S
C1900 H1919 0.913 . S
C1901 H1877 0.950 . S
C1901 C1900 1.524 . S
C1901 C1902 1.415 . S
C1902 H1878 0.950 . S
C1902 C1897 1.363 . S
C1902 C1901 1.415 . S
C1903 H1879 0.951 . S
C1903 C1904 1.366 . S
C1903 C1905 1.388 . S
C1904 C1903 1.366 . S
C1904 C1908 1.385 . S
C1905 H1880 0.951 . S
C1905 C1903 1.388 . S
C1905 C1906 1.366 . S
C1906 C1905 1.366 . S
C1906 C1907 1.414 . S
C1906 C1909 1.499 . S
C1907 H1881 0.950 . S
C1907 C1906 1.414 . S
C1907 C1908 1.374 . S
C1908 H1882 0.950 . S
C1908 C1904 1.385 . S
C1908 C1907 1.374 . S
C1909 C1906 1.499 . S
C1909 C1910 1.373 . S
C1909 C1911 1.389 . S
C1910 H1883 0.950 . S
C1910 C1896 1.377 . S
C1910 C1909 1.373 . S
C1911 C1895 1.377 . S
C1911 C1909 1.389 . S
C1911 C1912 1.524 . S
C1912 C1911 1.524 . S
C1912 C1913 1.397 . S
C1912 C1917 1.363 . S
C1913 H1884 0.950 . S
C1913 C1912 1.397 . S
C1913 C1914 1.334 . S
C1914 H1885 0.950 . S
C1914 C1913 1.334 . S
C1914 C1915 1.287 . S
C1915 C1914 1.287 . S
C1915 C1916 1.524 . S
C1915 H1918 0.999 . S
C1916 H1886 0.950 . S
C1916 C1915 1.524 . S
C1916 C1917 1.415 . S
C1917 H1887 0.950 . S
C1917 C1912 1.363 . S
C1917 C1916 1.415 . S
H1918 C1915 0.999 . S
H1919 C1900 0.913 . S
H1920 C1938 0.951 . S
H1921 C1940 0.951 . S
H1922 C1942 0.950 . S
H1923 C1943 0.950 . S
H1924 C1945 0.950 . S
H1925 C1948 0.950 . S
H1926 C1949 0.950 . S
H1927 C1951 0.950 . S
H1928 C1952 0.950 . S
H1929 C1953 0.951 . S
H1930 C1955 0.951 . S
H1931 C1957 0.950 . S
H1932 C1958 0.950 . S
H1933 C1960 0.950 . S
H1934 C1963 0.950 . S
H1935 C1964 0.950 . S
H1936 C1966 0.950 . S
H1937 C1967 0.958 . S
C1938 H1920 0.951 . S
C1938 C1939 1.366 . S
C1938 C1940 1.388 . S
C1939 C1938 1.366 . S
C1939 C1943 1.385 . S
C1940 H1921 0.951 . S
C1940 C1938 1.388 . S
C1940 C1941 1.366 . S
C1941 C1940 1.366 . S
C1941 C1942 1.414 . S
C1941 C1944 1.499 . S
C1942 H1922 0.950 . S
C1942 C1941 1.414 . S
C1942 C1943 1.374 . S
C1943 H1923 0.950 . S
C1943 C1939 1.385 . S
C1943 C1942 1.374 . S
C1944 C1941 1.499 . S
C1944 C1945 1.373 . S
C1944 C1946 1.389 . S
C1945 H1924 0.950 . S
C1945 C1944 1.373 . S
C1945 C1961 1.377 . S
C1946 C1944 1.389 . S
C1946 C1947 1.524 . S
C1946 C1960 1.377 . S
C1947 C1946 1.524 . S
C1947 C1948 1.397 . S
C1947 C1952 1.363 . S
C1948 H1925 0.950 . S
C1948 C1947 1.397 . S
C1948 C1949 1.334 . S
C1949 H1926 0.950 . S
C1949 C1948 1.334 . S
C1949 C1950 1.287 . S
C1950 C1949 1.287 . S
C1950 C1951 1.524 . S
C1950 H1969 0.913 . S
C1951 H1927 0.950 . S
C1951 C1950 1.524 . S
C1951 C1952 1.415 . S
C1952 H1928 0.950 . S
C1952 C1947 1.363 . S
C1952 C1951 1.415 . S
C1953 H1929 0.951 . S
C1953 C1954 1.366 . S
C1953 C1955 1.388 . S
C1954 C1953 1.366 . S
C1954 C1958 1.385 . S
C1955 H1930 0.951 . S
C1955 C1953 1.388 . S
C1955 C1956 1.366 1_455 S
C1956 C1955 1.366 1_655 S
C1956 C1957 1.414 . S
C1956 C1959 1.499 . S
C1957 H1931 0.950 . S
C1957 C1956 1.414 . S
C1957 C1958 1.374 1_655 S
C1958 H1932 0.950 . S
C1958 C1954 1.385 . S
C1958 C1957 1.374 1_455 S
C1959 C1956 1.499 . S
C1959 C1960 1.373 . S
C1959 C1961 1.389 . S
C1960 H1933 0.950 . S
C1960 C1946 1.377 . S
C1960 C1959 1.373 . S
C1961 C1945 1.377 . S
C1961 C1959 1.389 . S
C1961 C1962 1.524 1_655 S
C1962 C1961 1.524 1_455 S
C1962 C1963 1.397 . S
C1962 C1967 1.363 . S
C1963 H1934 0.950 . S
C1963 C1962 1.397 . S
C1963 C1964 1.334 . S
C1964 H1935 0.950 . S
C1964 C1963 1.334 . S
C1964 C1965 1.287 . S
C1965 C1964 1.287 . S
C1965 C1966 1.524 . S
C1965 H1968 0.999 . S
C1966 H1936 0.950 . S
C1966 C1965 1.524 . S
C1966 C1967 1.415 . S
C1967 H1937 0.958 . S
C1967 C1962 1.363 . S
C1967 C1966 1.415 . S
H1968 C1965 0.999 . S
H1969 C1950 0.913 . S
H1970 C1988 0.951 . S
H1971 C1990 0.951 . S
H1972 C1992 0.950 . S
H1973 C1993 0.950 . S
H1974 C1995 0.950 . S
H1975 C1998 0.950 . S
H1976 C1999 0.950 . S
H1977 C2001 0.950 . S
H1978 C2002 0.950 . S
H1979 C2003 0.951 . S
H1980 C2005 0.951 . S
H1981 C2007 0.950 . S
H1982 C2008 0.950 . S
H1983 C2010 0.950 . S
H1984 C2013 0.950 . S
H1985 C2014 0.950 . S
H1986 C2016 0.950 . S
H1987 C2017 0.950 . S
C1988 H1970 0.951 . S
C1988 C1989 1.366 . S
C1988 C1990 1.388 . S
C1989 C1988 1.366 . S
C1989 C1993 1.385 . S
C1990 H1971 0.951 . S
C1990 C1988 1.388 . S
C1990 C1991 1.366 . S
C1991 C1990 1.366 . S
C1991 C1992 1.414 . S
C1991 C1994 1.499 . S
C1992 H1972 0.950 . S
C1992 C1991 1.414 . S
C1992 C1993 1.374 . S
C1993 H1973 0.950 . S
C1993 C1989 1.385 . S
C1993 C1992 1.374 . S
C1994 C1991 1.499 . S
C1994 C1995 1.373 . S
C1994 C1996 1.389 . S
C1995 H1974 0.950 . S
C1995 C1994 1.373 . S
C1995 C2011 1.377 . S
C1996 C1994 1.389 . S
C1996 C1997 1.524 . S
C1996 C2010 1.377 . S
C1997 C1996 1.524 . S
C1997 C1998 1.397 . S
C1997 C2002 1.363 . S
C1998 H1975 0.950 . S
C1998 C1997 1.397 . S
C1998 C1999 1.334 . S
C1999 H1976 0.950 . S
C1999 C1998 1.334 . S
C1999 C2000 1.287 . S
C2000 C1999 1.287 . S
C2000 C2001 1.524 . S
C2000 H2019 0.913 . S
C2001 H1977 0.950 . S
C2001 C2000 1.524 . S
C2001 C2002 1.415 . S
C2002 H1978 0.950 . S
C2002 C1997 1.363 . S
C2002 C2001 1.415 . S
C2003 H1979 0.951 . S
C2003 C2004 1.366 . S
C2003 C2005 1.388 . S
C2004 C2003 1.366 . S
C2004 C2008 1.385 . S
C2005 H1980 0.951 . S
C2005 C2003 1.388 . S
C2005 C2006 1.366 . S
C2006 C2005 1.366 . S
C2006 C2007 1.414 . S
C2006 C2009 1.499 . S
C2007 H1981 0.950 . S
C2007 C2006 1.414 . S
C2007 C2008 1.374 . S
C2008 H1982 0.950 . S
C2008 C2004 1.385 . S
C2008 C2007 1.374 . S
C2009 C2006 1.499 . S
C2009 C2010 1.373 . S
C2009 C2011 1.389 . S
C2010 H1983 0.950 . S
C2010 C1996 1.377 . S
C2010 C2009 1.373 . S
C2011 C1995 1.377 . S
C2011 C2009 1.389 . S
C2011 C2012 1.524 . S
C2012 C2011 1.524 . S
C2012 C2013 1.397 . S
C2012 C2017 1.363 . S
C2013 H1984 0.950 . S
C2013 C2012 1.397 . S
C2013 C2014 1.334 . S
C2014 H1985 0.950 . S
C2014 C2013 1.334 . S
C2014 C2015 1.287 . S
C2015 C2014 1.287 . S
C2015 C2016 1.524 . S
C2015 H2018 0.999 . S
C2016 H1986 0.950 . S
C2016 C2015 1.524 . S
C2016 C2017 1.415 . S
C2017 H1987 0.950 . S
C2017 C2012 1.363 . S
C2017 C2016 1.415 . S
H2018 C2015 0.999 . S
H2019 C2000 0.913 . S
H2020 C2038 0.951 . S
H2021 C2040 0.951 . S
H2022 C2042 0.950 . S
H2023 C2043 0.950 . S
H2024 C2045 0.950 . S
H2025 C2048 0.950 . S
H2026 C2049 0.950 . S
H2027 C2051 0.950 . S
H2028 C2052 0.950 . S
H2029 C2053 0.951 . S
H2030 C2055 0.951 . S
H2031 C2057 0.950 . S
H2032 C2058 0.950 . S
H2033 C2060 0.950 . S
H2034 C2063 0.950 . S
H2035 C2064 0.945 1_554 S
H2036 C2066 0.950 . S
H2037 C2067 0.950 . S
C2038 H2020 0.951 . S
C2038 C2039 1.366 . S
C2038 C2040 1.388 . S
C2039 C2038 1.366 . S
C2039 C2043 1.385 . S
C2040 H2021 0.951 . S
C2040 C2038 1.388 . S
C2040 C2041 1.366 . S
C2041 C2040 1.366 . S
C2041 C2042 1.414 . S
C2041 C2044 1.499 . S
C2042 H2022 0.950 . S
C2042 C2041 1.414 . S
C2042 C2043 1.374 . S
C2043 H2023 0.950 . S
C2043 C2039 1.385 . S
C2043 C2042 1.374 . S
C2044 C2041 1.499 . S
C2044 C2045 1.373 . S
C2044 C2046 1.389 . S
C2045 H2024 0.950 . S
C2045 C2044 1.373 . S
C2045 C2061 1.377 . S
C2046 C2044 1.389 . S
C2046 C2047 1.524 . S
C2046 C2060 1.377 . S
C2047 C2046 1.524 . S
C2047 C2048 1.397 . S
C2047 C2052 1.363 . S
C2048 H2025 0.950 . S
C2048 C2047 1.397 . S
C2048 C2049 1.334 . S
C2049 H2026 0.950 . S
C2049 C2048 1.334 . S
C2049 C2050 1.287 . S
C2050 C2049 1.287 . S
C2050 C2051 1.524 . S
C2050 H2069 0.913 . S
C2051 H2027 0.950 . S
C2051 C2050 1.524 . S
C2051 C2052 1.415 . S
C2052 H2028 0.950 . S
C2052 C2047 1.363 . S
C2052 C2051 1.415 . S
C2053 H2029 0.951 . S
C2053 C2054 1.366 1_554 S
C2053 C2055 1.388 1_554 S
C2054 C2053 1.366 1_556 S
C2054 C2058 1.385 . S
C2055 H2030 0.951 . S
C2055 C2053 1.388 1_556 S
C2055 C2056 1.366 . S
C2056 C2055 1.366 . S
C2056 C2057 1.414 . S
C2056 C2059 1.499 . S
C2057 H2031 0.950 . S
C2057 C2056 1.414 . S
C2057 C2058 1.374 . S
C2058 H2032 0.950 . S
C2058 C2054 1.385 . S
C2058 C2057 1.374 . S
C2059 C2056 1.499 . S
C2059 C2060 1.373 . S
C2059 C2061 1.389 . S
C2060 H2033 0.950 . S
C2060 C2046 1.377 . S
C2060 C2059 1.373 . S
C2061 C2045 1.377 . S
C2061 C2059 1.389 . S
C2061 C2062 1.524 . S
C2062 C2061 1.524 . S
C2062 C2063 1.397 . S
C2062 C2067 1.363 . S
C2063 H2034 0.950 . S
C2063 C2062 1.397 . S
C2063 C2064 1.334 . S
C2064 H2035 0.945 1_556 S
C2064 C2063 1.334 . S
C2064 C2065 1.287 1_556 S
C2065 C2064 1.287 1_554 S
C2065 C2066 1.524 . S
C2065 H2068 0.999 . S
C2066 H2036 0.950 . S
C2066 C2065 1.524 . S
C2066 C2067 1.415 1_554 S
C2067 H2037 0.950 . S
C2067 C2062 1.363 . S
C2067 C2066 1.415 1_556 S
H2068 C2065 0.999 . S
H2069 C2050 0.913 . S
H2070 C2088 0.951 . S
H2071 C2090 0.951 . S
H2072 C2092 0.950 . S
H2073 C2093 0.950 1_556 S
H2074 C2095 0.950 . S
H2075 C2098 0.950 . S
H2076 C2099 0.950 . S
H2077 C2101 0.950 . S
H2078 C2102 0.950 . S
H2079 C2103 0.951 . S
H2080 C2105 0.951 . S
H2081 C2107 0.950 . S
H2082 C2108 0.950 . S
H2083 C2110 0.950 . S
H2084 C2113 0.950 . S
H2085 C2114 0.950 . S
H2086 C2116 0.950 . S
H2087 C2117 0.950 . S
C2088 H2070 0.951 . S
C2088 C2089 1.366 . S
C2088 C2090 1.388 . S
C2089 C2088 1.366 . S
C2089 C2093 1.385 . S
C2090 H2071 0.951 . S
C2090 C2088 1.388 . S
C2090 C2091 1.366 . S
C2091 C2090 1.366 . S
C2091 C2092 1.414 . S
C2091 C2094 1.499 . S
C2092 H2072 0.950 . S
C2092 C2091 1.414 . S
C2092 C2093 1.374 . S
C2093 H2073 0.950 1_554 S
C2093 C2089 1.385 . S
C2093 C2092 1.374 . S
C2094 C2091 1.499 . S
C2094 C2095 1.373 . S
C2094 C2096 1.389 . S
C2095 H2074 0.950 . S
C2095 C2094 1.373 . S
C2095 C2111 1.377 . S
C2096 C2094 1.389 . S
C2096 C2097 1.524 . S
C2096 C2110 1.377 . S
C2097 C2096 1.524 . S
C2097 C2098 1.397 . S
C2097 C2102 1.363 . S
C2098 H2075 0.950 . S
C2098 C2097 1.397 . S
C2098 C2099 1.334 . S
C2099 H2076 0.950 . S
C2099 C2098 1.334 . S
C2099 C2100 1.287 . S
C2100 C2099 1.287 . S
C2100 C2101 1.524 . S
C2100 H2119 0.913 . S
C2101 H2077 0.950 . S
C2101 C2100 1.524 . S
C2101 C2102 1.415 . S
C2102 H2078 0.950 . S
C2102 C2097 1.363 . S
C2102 C2101 1.415 . S
C2103 H2079 0.951 . S
C2103 C2104 1.366 . S
C2103 C2105 1.388 . S
C2104 C2103 1.366 . S
C2104 C2108 1.385 . S
C2105 H2080 0.951 . S
C2105 C2103 1.388 . S
C2105 C2106 1.366 . S
C2106 C2105 1.366 . S
C2106 C2107 1.414 . S
C2106 C2109 1.499 . S
C2107 H2081 0.950 . S
C2107 C2106 1.414 . S
C2107 C2108 1.374 . S
C2108 H2082 0.950 . S
C2108 C2104 1.385 . S
C2108 C2107 1.374 . S
C2109 C2106 1.499 . S
C2109 C2110 1.373 . S
C2109 C2111 1.389 . S
C2110 H2083 0.950 . S
C2110 C2096 1.377 . S
C2110 C2109 1.373 . S
C2111 C2095 1.377 . S
C2111 C2109 1.389 . S
C2111 C2112 1.524 . S
C2112 C2111 1.524 . S
C2112 C2113 1.397 . S
C2112 C2117 1.363 . S
C2113 H2084 0.950 . S
C2113 C2112 1.397 . S
C2113 C2114 1.334 . S
C2114 H2085 0.950 . S
C2114 C2113 1.334 . S
C2114 C2115 1.287 . S
C2115 C2114 1.287 . S
C2115 C2116 1.524 . S
C2115 H2118 0.999 . S
C2116 H2086 0.950 . S
C2116 C2115 1.524 . S
C2116 C2117 1.415 . S
C2117 H2087 0.950 . S
C2117 C2112 1.363 . S
C2117 C2116 1.415 . S
H2118 C2115 0.999 . S
H2119 C2100 0.913 . S
H2120 C2138 0.951 . S
H2121 C2140 0.951 . S
H2122 C2142 0.950 . S
H2123 C2143 0.950 . S
H2124 C2145 0.950 . S
H2125 C2148 0.950 . S
H2126 C2149 0.950 . S
H2127 C2151 0.950 . S
H2128 C2152 0.950 . S
H2129 C2153 0.951 . S
H2130 C2155 0.951 . S
H2131 C2157 0.950 . S
H2132 C2158 0.950 . S
H2133 C2160 0.950 . S
H2134 C2163 0.950 . S
H2135 C2164 0.950 . S
H2136 C2166 0.950 . S
H2137 C2167 0.950 . S
C2138 H2120 0.951 . S
C2138 C2139 1.366 . S
C2138 C2140 1.388 . S
C2139 C2138 1.366 . S
C2139 C2143 1.385 . S
C2140 H2121 0.951 . S
C2140 C2138 1.388 . S
C2140 C2141 1.366 . S
C2141 C2140 1.366 . S
C2141 C2142 1.414 . S
C2141 C2144 1.499 . S
C2142 H2122 0.950 . S
C2142 C2141 1.414 . S
C2142 C2143 1.374 . S
C2143 H2123 0.950 . S
C2143 C2139 1.385 . S
C2143 C2142 1.374 . S
C2144 C2141 1.499 . S
C2144 C2145 1.373 . S
C2144 C2146 1.389 . S
C2145 H2124 0.950 . S
C2145 C2144 1.373 . S
C2145 C2161 1.377 . S
C2146 C2144 1.389 . S
C2146 C2147 1.524 . S
C2146 C2160 1.377 . S
C2147 C2146 1.524 . S
C2147 C2148 1.397 . S
C2147 C2152 1.363 . S
C2148 H2125 0.950 . S
C2148 C2147 1.397 . S
C2148 C2149 1.334 . S
C2149 H2126 0.950 . S
C2149 C2148 1.334 . S
C2149 C2150 1.287 . S
C2150 C2149 1.287 . S
C2150 C2151 1.524 . S
C2150 H2169 0.913 . S
C2151 H2127 0.950 . S
C2151 C2150 1.524 . S
C2151 C2152 1.415 . S
C2152 H2128 0.950 . S
C2152 C2147 1.363 . S
C2152 C2151 1.415 . S
C2153 H2129 0.951 . S
C2153 C2154 1.366 1_455 S
C2153 C2155 1.388 . S
C2154 C2153 1.366 1_655 S
C2154 C2158 1.385 . S
C2155 H2130 0.951 . S
C2155 C2153 1.388 . S
C2155 C2156 1.366 . S
C2156 C2155 1.366 . S
C2156 C2157 1.414 1_455 S
C2156 C2159 1.499 . S
C2157 H2131 0.950 . S
C2157 C2156 1.414 1_655 S
C2157 C2158 1.374 . S
C2158 H2132 0.950 . S
C2158 C2154 1.385 . S
C2158 C2157 1.374 . S
C2159 C2156 1.499 . S
C2159 C2160 1.373 . S
C2159 C2161 1.389 . S
C2160 H2133 0.950 . S
C2160 C2146 1.377 . S
C2160 C2159 1.373 . S
C2161 C2145 1.377 . S
C2161 C2159 1.389 . S
C2161 C2162 1.524 . S
C2162 C2161 1.524 . S
C2162 C2163 1.397 . S
C2162 C2167 1.363 . S
C2163 H2134 0.950 . S
C2163 C2162 1.397 . S
C2163 C2164 1.334 . S
C2164 H2135 0.950 . S
C2164 C2163 1.334 . S
C2164 C2165 1.287 . S
C2165 C2164 1.287 . S
C2165 C2166 1.524 . S
C2165 H2168 0.999 . S
C2166 H2136 0.950 . S
C2166 C2165 1.524 . S
C2166 C2167 1.415 . S
C2167 H2137 0.950 . S
C2167 C2162 1.363 . S
C2167 C2166 1.415 . S
H2168 C2165 0.999 . S
H2169 C2150 0.913 . S
H2170 C2188 0.951 . S
H2171 C2190 0.951 . S
H2172 C2192 0.950 . S
H2173 C2193 0.950 . S
H2174 C2195 0.950 . S
H2175 C2198 0.950 . S
H2176 C2199 0.950 . S
H2177 C2201 0.950 . S
H2178 C2202 0.950 . S
H2179 C2203 0.951 . S
H2180 C2205 0.951 . S
H2181 C2207 0.950 . S
H2182 C2208 0.950 . S
H2183 C2210 0.950 . S
H2184 C2213 0.950 . S
H2185 C2214 0.950 . S
H2186 C2216 0.950 . S
H2187 C2217 0.950 . S
C2188 H2170 0.951 . S
C2188 C2189 1.366 . S
C2188 C2190 1.388 . S
C2189 C2188 1.366 . S
C2189 C2193 1.385 . S
C2190 H2171 0.951 . S
C2190 C2188 1.388 . S
C2190 C2191 1.366 . S
C2191 C2190 1.366 . S
C2191 C2192 1.414 . S
C2191 C2194 1.499 . S
C2192 H2172 0.950 . S
C2192 C2191 1.414 . S
C2192 C2193 1.374 . S
C2193 H2173 0.950 . S
C2193 C2189 1.385 . S
C2193 C2192 1.374 . S
C2194 C2191 1.499 . S
C2194 C2195 1.373 . S
C2194 C2196 1.389 . S
C2195 H2174 0.950 . S
C2195 C2194 1.373 . S
C2195 C2211 1.377 . S
C2196 C2194 1.389 . S
C2196 C2197 1.524 . S
C2196 C2210 1.377 . S
C2197 C2196 1.524 . S
C2197 C2198 1.397 . S
C2197 C2202 1.363 . S
C2198 H2175 0.950 . S
C2198 C2197 1.397 . S
C2198 C2199 1.334 . S
C2199 H2176 0.950 . S
C2199 C2198 1.334 . S
C2199 C2200 1.287 . S
C2200 C2199 1.287 . S
C2200 C2201 1.524 . S
C2200 H2219 0.913 . S
C2201 H2177 0.950 . S
C2201 C2200 1.524 . S
C2201 C2202 1.415 . S
C2202 H2178 0.950 . S
C2202 C2197 1.363 . S
C2202 C2201 1.415 . S
C2203 H2179 0.951 . S
C2203 C2204 1.366 . S
C2203 C2205 1.388 . S
C2204 C2203 1.366 . S
C2204 C2208 1.385 . S
C2205 H2180 0.951 . S
C2205 C2203 1.388 . S
C2205 C2206 1.366 . S
C2206 C2205 1.366 . S
C2206 C2207 1.414 . S
C2206 C2209 1.499 . S
C2207 H2181 0.950 . S
C2207 C2206 1.414 . S
C2207 C2208 1.374 . S
C2208 H2182 0.950 . S
C2208 C2204 1.385 . S
C2208 C2207 1.374 . S
C2209 C2206 1.499 . S
C2209 C2210 1.373 . S
C2209 C2211 1.389 . S
C2210 H2183 0.950 . S
C2210 C2196 1.377 . S
C2210 C2209 1.373 . S
C2211 C2195 1.377 . S
C2211 C2209 1.389 . S
C2211 C2212 1.524 . S
C2212 C2211 1.524 . S
C2212 C2213 1.397 . S
C2212 C2217 1.363 . S
C2213 H2184 0.950 . S
C2213 C2212 1.397 . S
C2213 C2214 1.334 . S
C2214 H2185 0.950 . S
C2214 C2213 1.334 . S
C2214 C2215 1.287 . S
C2215 C2214 1.287 . S
C2215 C2216 1.524 . S
C2215 H2218 0.999 . S
C2216 H2186 0.950 . S
C2216 C2215 1.524 . S
C2216 C2217 1.415 . S
C2217 H2187 0.950 . S
C2217 C2212 1.363 . S
C2217 C2216 1.415 . S
H2218 C2215 0.999 . S
H2219 C2200 0.913 . S
H2220 C2238 0.951 . S
H2221 C2240 0.951 . S
H2222 C2242 0.950 . S
H2223 C2243 0.950 1_556 S
H2224 C2245 0.950 . S
H2225 C2248 0.950 . S
H2226 C2249 0.950 . S
H2227 C2251 0.950 . S
H2228 C2252 0.950 . S
H2229 C2253 0.951 . S
H2230 C2255 0.951 . S
H2231 C2257 0.950 . S
H2232 C2258 0.950 . S
H2233 C2260 0.950 . S
H2234 C2263 0.950 . S
H2235 C2264 0.950 . S
H2236 C2266 0.950 . S
H2237 C2267 0.950 . S
C2238 H2220 0.951 . S
C2238 C2239 1.366 . S
C2238 C2240 1.388 . S
C2239 C2238 1.366 . S
C2239 C2243 1.385 . S
C2240 H2221 0.951 . S
C2240 C2238 1.388 . S
C2240 C2241 1.366 . S
C2241 C2240 1.366 . S
C2241 C2242 1.414 . S
C2241 C2244 1.499 . S
C2242 H2222 0.950 . S
C2242 C2241 1.414 . S
C2242 C2243 1.374 . S
C2243 H2223 0.950 1_554 S
C2243 C2239 1.385 . S
C2243 C2242 1.374 . S
C2244 C2241 1.499 . S
C2244 C2245 1.373 . S
C2244 C2246 1.389 . S
C2245 H2224 0.950 . S
C2245 C2244 1.373 . S
C2245 C2261 1.377 . S
C2246 C2244 1.389 . S
C2246 C2247 1.524 . S
C2246 C2260 1.377 . S
C2247 C2246 1.524 . S
C2247 C2248 1.397 . S
C2247 C2252 1.363 . S
C2248 H2225 0.950 . S
C2248 C2247 1.397 . S
C2248 C2249 1.334 . S
C2249 H2226 0.950 . S
C2249 C2248 1.334 . S
C2249 C2250 1.287 . S
C2250 C2249 1.287 . S
C2250 C2251 1.524 . S
C2250 H2269 0.913 . S
C2251 H2227 0.950 . S
C2251 C2250 1.524 . S
C2251 C2252 1.415 . S
C2252 H2228 0.950 . S
C2252 C2247 1.363 . S
C2252 C2251 1.415 . S
C2253 H2229 0.951 . S
C2253 C2254 1.366 . S
C2253 C2255 1.388 . S
C2254 C2253 1.366 . S
C2254 C2258 1.385 . S
C2255 H2230 0.951 . S
C2255 C2253 1.388 . S
C2255 C2256 1.366 . S
C2256 C2255 1.366 . S
C2256 C2257 1.414 . S
C2256 C2259 1.499 . S
C2257 H2231 0.950 . S
C2257 C2256 1.414 . S
C2257 C2258 1.374 . S
C2258 H2232 0.950 . S
C2258 C2254 1.385 . S
C2258 C2257 1.374 . S
C2259 C2256 1.499 . S
C2259 C2260 1.373 . S
C2259 C2261 1.389 . S
C2260 H2233 0.950 . S
C2260 C2246 1.377 . S
C2260 C2259 1.373 . S
C2261 C2245 1.377 . S
C2261 C2259 1.389 . S
C2261 C2262 1.524 . S
C2262 C2261 1.524 . S
C2262 C2263 1.397 . S
C2262 C2267 1.363 . S
C2263 H2234 0.950 . S
C2263 C2262 1.397 . S
C2263 C2264 1.334 . S
C2264 H2235 0.950 . S
C2264 C2263 1.334 . S
C2264 C2265 1.287 . S
C2265 C2264 1.287 . S
C2265 C2266 1.524 . S
C2265 H2268 0.999 . S
C2266 H2236 0.950 . S
C2266 C2265 1.524 . S
C2266 C2267 1.415 . S
C2267 H2237 0.950 . S
C2267 C2262 1.363 . S
C2267 C2266 1.415 . S
H2268 C2265 0.999 . S
H2269 C2250 0.913 . S
H2270 C2288 0.951 1_554 S
H2271 C2290 0.951 . S
H2272 C2292 0.950 . S
H2273 C2293 0.950 . S
H2274 C2295 0.950 . S
H2275 C2298 0.950 . S
H2276 C2299 0.950 . S
H2277 C2301 0.950 . S
H2278 C2302 0.950 . S
H2279 C2303 0.951 . S
H2280 C2305 0.951 . S
H2281 C2307 0.950 . S
H2282 C2308 0.950 . S
H2283 C2310 0.950 . S
H2284 C2313 0.950 . S
H2285 C2314 0.950 . S
H2286 C2316 0.950 . S
H2287 C2317 0.950 . S
C2288 H2270 0.951 1_556 S
C2288 C2289 1.366 . S
C2288 C2290 1.388 . S
C2289 C2288 1.366 . S
C2289 C2293 1.385 . S
C2290 H2271 0.951 . S
C2290 C2288 1.388 . S
C2290 C2291 1.366 . S
C2291 C2290 1.366 . S
C2291 C2292 1.414 . S
C2291 C2294 1.499 . S
C2292 H2272 0.950 . S
C2292 C2291 1.414 . S
C2292 C2293 1.374 . S
C2293 H2273 0.950 . S
C2293 C2289 1.385 . S
C2293 C2292 1.374 . S
C2294 C2291 1.499 . S
C2294 C2295 1.373 . S
C2294 C2296 1.389 . S
C2295 H2274 0.950 . S
C2295 C2294 1.373 . S
C2295 C2311 1.377 . S
C2296 C2294 1.389 . S
C2296 C2297 1.524 . S
C2296 C2310 1.377 . S
C2297 C2296 1.524 . S
C2297 C2298 1.397 . S
C2297 C2302 1.363 . S
C2298 H2275 0.950 . S
C2298 C2297 1.397 . S
C2298 C2299 1.334 1_556 S
C2299 H2276 0.950 . S
C2299 C2298 1.334 1_554 S
C2299 C2300 1.287 . S
C2300 C2299 1.287 . S
C2300 C2301 1.524 . S
C2300 H2319 0.913 . S
C2301 H2277 0.950 . S
C2301 C2300 1.524 . S
C2301 C2302 1.415 1_554 S
C2302 H2278 0.950 . S
C2302 C2297 1.363 . S
C2302 C2301 1.415 1_556 S
C2303 H2279 0.951 . S
C2303 C2304 1.366 . S
C2303 C2305 1.388 . S
C2304 C2303 1.366 . S
C2304 C2308 1.385 . S
C2305 H2280 0.951 . S
C2305 C2303 1.388 . S
C2305 C2306 1.366 . S
C2306 C2305 1.366 . S
C2306 C2307 1.414 . S
C2306 C2309 1.499 . S
C2307 H2281 0.950 . S
C2307 C2306 1.414 . S
C2307 C2308 1.374 . S
C2308 H2282 0.950 . S
C2308 C2304 1.385 . S
C2308 C2307 1.374 . S
C2309 C2306 1.499 . S
C2309 C2310 1.373 . S
C2309 C2311 1.389 . S
C2310 H2283 0.950 . S
C2310 C2296 1.377 . S
C2310 C2309 1.373 . S
C2311 C2295 1.377 . S
C2311 C2309 1.389 . S
C2311 C2312 1.524 . S
C2312 C2311 1.524 . S
C2312 C2313 1.397 . S
C2312 C2317 1.363 . S
C2313 H2284 0.950 . S
C2313 C2312 1.397 . S
C2313 C2314 1.334 . S
C2314 H2285 0.950 . S
C2314 C2313 1.334 . S
C2314 C2315 1.287 . S
C2315 C2314 1.287 . S
C2315 C2316 1.524 . S
C2315 H2318 0.999 . S
C2316 H2286 0.950 . S
C2316 C2315 1.524 . S
C2316 C2317 1.415 . S
C2317 H2287 0.950 . S
C2317 C2312 1.363 . S
C2317 C2316 1.415 . S
H2318 C2315 0.999 . S
H2319 C2300 0.913 . S
H2320 C2338 0.951 . S
H2321 C2340 0.951 . S
H2322 C2342 0.950 . S
H2323 C2343 0.950 . S
H2324 C2345 0.950 . S
H2325 C2348 0.950 . S
H2326 C2349 0.950 . S
H2327 C2351 0.950 . S
H2328 C2352 0.950 . S
H2329 C2353 0.951 . S
H2330 C2355 0.951 . S
H2331 C2357 0.950 . S
H2332 C2358 0.950 . S
H2333 C2360 0.950 . S
H2334 C2363 0.950 . S
H2335 C2364 0.950 . S
H2336 C2366 0.950 . S
H2337 C2367 0.950 . S
C2338 H2320 0.951 . S
C2338 C2339 1.366 . S
C2338 C2340 1.388 . S
C2339 C2338 1.366 . S
C2339 C2343 1.385 . S
C2340 H2321 0.951 . S
C2340 C2338 1.388 . S
C2340 C2341 1.366 . S
C2341 C2340 1.366 . S
C2341 C2342 1.414 . S
C2341 C2344 1.499 . S
C2342 H2322 0.950 . S
C2342 C2341 1.414 . S
C2342 C2343 1.374 . S
C2343 H2323 0.950 . S
C2343 C2339 1.385 . S
C2343 C2342 1.374 . S
C2344 C2341 1.499 . S
C2344 C2345 1.373 . S
C2344 C2346 1.389 . S
C2345 H2324 0.950 . S
C2345 C2344 1.373 . S
C2345 C2361 1.377 . S
C2346 C2344 1.389 . S
C2346 C2347 1.524 . S
C2346 C2360 1.377 . S
C2347 C2346 1.524 . S
C2347 C2348 1.397 . S
C2347 C2352 1.363 . S
C2348 H2325 0.950 . S
C2348 C2347 1.397 . S
C2348 C2349 1.334 . S
C2349 H2326 0.950 . S
C2349 C2348 1.334 . S
C2349 C2350 1.287 . S
C2350 C2349 1.287 . S
C2350 C2351 1.524 . S
C2350 H2369 0.913 . S
C2351 H2327 0.950 . S
C2351 C2350 1.524 . S
C2351 C2352 1.415 . S
C2352 H2328 0.950 . S
C2352 C2347 1.363 . S
C2352 C2351 1.415 . S
C2353 H2329 0.951 . S
C2353 C2354 1.366 . S
C2353 C2355 1.388 . S
C2354 C2353 1.366 . S
C2354 C2358 1.385 . S
C2355 H2330 0.951 . S
C2355 C2353 1.388 . S
C2355 C2356 1.366 . S
C2356 C2355 1.366 . S
C2356 C2357 1.414 . S
C2356 C2359 1.499 . S
C2357 H2331 0.950 . S
C2357 C2356 1.414 . S
C2357 C2358 1.374 . S
C2358 H2332 0.950 . S
C2358 C2354 1.385 . S
C2358 C2357 1.374 . S
C2359 C2356 1.499 . S
C2359 C2360 1.373 . S
C2359 C2361 1.389 . S
C2360 H2333 0.950 . S
C2360 C2346 1.377 . S
C2360 C2359 1.373 . S
C2361 C2345 1.377 . S
C2361 C2359 1.389 . S
C2361 C2362 1.524 . S
C2362 C2361 1.524 . S
C2362 C2363 1.397 . S
C2362 C2367 1.363 . S
C2363 H2334 0.950 . S
C2363 C2362 1.397 . S
C2363 C2364 1.334 . S
C2364 H2335 0.950 . S
C2364 C2363 1.334 . S
C2364 C2365 1.287 . S
C2365 C2364 1.287 . S
C2365 C2366 1.524 . S
C2365 H2368 0.999 . S
C2366 H2336 0.950 . S
C2366 C2365 1.524 . S
C2366 C2367 1.415 . S
C2367 H2337 0.950 . S
C2367 C2362 1.363 . S
C2367 C2366 1.415 . S
H2368 C2365 0.999 . S
H2369 C2350 0.913 . S
H2370 C2388 0.951 . S
H2371 C2390 0.951 . S
H2372 C2392 0.950 . S
H2373 C2393 0.950 . S
H2374 C2395 0.950 . S
H2375 C2398 0.950 . S
H2376 C2399 0.950 . S
H2377 C2401 0.950 . S
H2378 C2402 0.950 . S
H2379 C2403 0.951 . S
H2380 C2405 0.951 . S
H2381 C2407 0.950 . S
H2382 C2408 0.950 . S
H2383 C2410 0.950 . S
H2384 C2413 0.950 . S
H2385 C2414 0.950 . S
H2386 C2416 0.950 . S
H2387 C2417 0.950 . S
C2388 H2370 0.951 . S
C2388 C2389 1.366 . S
C2388 C2390 1.388 . S
C2389 C2388 1.366 . S
C2389 C2393 1.385 . S
C2390 H2371 0.951 . S
C2390 C2388 1.388 . S
C2390 C2391 1.366 . S
C2391 C2390 1.366 . S
C2391 C2392 1.414 . S
C2391 C2394 1.499 . S
C2392 H2372 0.950 . S
C2392 C2391 1.414 . S
C2392 C2393 1.374 . S
C2393 H2373 0.950 . S
C2393 C2389 1.385 . S
C2393 C2392 1.374 . S
C2394 C2391 1.499 . S
C2394 C2395 1.373 . S
C2394 C2396 1.389 . S
C2395 H2374 0.950 . S
C2395 C2394 1.373 . S
C2395 C2411 1.377 . S
C2396 C2394 1.389 . S
C2396 C2397 1.524 . S
C2396 C2410 1.377 . S
C2397 C2396 1.524 . S
C2397 C2398 1.397 . S
C2397 C2402 1.363 . S
C2398 H2375 0.950 . S
C2398 C2397 1.397 . S
C2398 C2399 1.334 . S
C2399 H2376 0.950 . S
C2399 C2398 1.334 . S
C2399 C2400 1.287 . S
C2400 C2399 1.287 . S
C2400 C2401 1.524 . S
C2400 H2419 0.913 . S
C2401 H2377 0.950 . S
C2401 C2400 1.524 . S
C2401 C2402 1.415 . S
C2402 H2378 0.950 . S
C2402 C2397 1.363 . S
C2402 C2401 1.415 . S
C2403 H2379 0.951 . S
C2403 C2404 1.366 . S
C2403 C2405 1.388 . S
C2404 C2403 1.366 . S
C2404 C2408 1.385 . S
C2405 H2380 0.951 . S
C2405 C2403 1.388 . S
C2405 C2406 1.366 . S
C2406 C2405 1.366 . S
C2406 C2407 1.414 . S
C2406 C2409 1.499 . S
C2407 H2381 0.950 . S
C2407 C2406 1.414 . S
C2407 C2408 1.374 . S
C2408 H2382 0.950 . S
C2408 C2404 1.385 . S
C2408 C2407 1.374 . S
C2409 C2406 1.499 . S
C2409 C2410 1.373 . S
C2409 C2411 1.389 . S
C2410 H2383 0.950 . S
C2410 C2396 1.377 . S
C2410 C2409 1.373 . S
C2411 C2395 1.377 . S
C2411 C2409 1.389 . S
C2411 C2412 1.524 . S
C2412 C2411 1.524 . S
C2412 C2413 1.397 . S
C2412 C2417 1.363 . S
C2413 H2384 0.950 . S
C2413 C2412 1.397 . S
C2413 C2414 1.334 . S
C2414 H2385 0.950 . S
C2414 C2413 1.334 . S
C2414 C2415 1.287 . S
C2415 C2414 1.287 . S
C2415 C2416 1.524 . S
C2415 H2418 0.999 . S
C2416 H2386 0.950 . S
C2416 C2415 1.524 . S
C2416 C2417 1.415 . S
C2417 H2387 0.950 . S
C2417 C2412 1.363 . S
C2417 C2416 1.415 . S
H2418 C2415 0.999 . S
H2419 C2400 0.913 . S
H2420 C2438 0.951 . S
H2421 C2440 0.951 . S
H2422 C2442 0.950 . S
H2423 C2443 0.950 . S
H2424 C2445 0.950 . S
H2425 C2448 0.950 . S
H2426 C2449 0.950 . S
H2427 C2451 0.950 . S
H2428 C2452 0.950 . S
H2429 C2453 0.951 . S
H2430 C2455 0.951 . S
H2431 C2457 0.950 . S
H2432 C2458 0.950 . S
H2433 C2460 0.950 . S
H2434 C2463 0.950 . S
H2435 C2464 0.950 . S
H2436 C2466 0.950 . S
H2437 C2467 0.950 . S
C2438 H2420 0.951 . S
C2438 C2439 1.366 . S
C2438 C2440 1.388 . S
C2439 C2438 1.366 . S
C2439 C2443 1.385 . S
C2440 H2421 0.951 . S
C2440 C2438 1.388 . S
C2440 C2441 1.366 . S
C2441 C2440 1.366 . S
C2441 C2442 1.414 . S
C2441 C2444 1.499 . S
C2442 H2422 0.950 . S
C2442 C2441 1.414 . S
C2442 C2443 1.374 . S
C2443 H2423 0.950 . S
C2443 C2439 1.385 . S
C2443 C2442 1.374 . S
C2444 C2441 1.499 . S
C2444 C2445 1.373 . S
C2444 C2446 1.389 . S
C2445 H2424 0.950 . S
C2445 C2444 1.373 . S
C2445 C2461 1.377 . S
C2446 C2444 1.389 . S
C2446 C2447 1.524 . S
C2446 C2460 1.377 . S
C2447 C2446 1.524 . S
C2447 C2448 1.397 . S
C2447 C2452 1.363 . S
C2448 H2425 0.950 . S
C2448 C2447 1.397 . S
C2448 C2449 1.334 . S
C2449 H2426 0.950 . S
C2449 C2448 1.334 . S
C2449 C2450 1.287 . S
C2450 C2449 1.287 . S
C2450 C2451 1.524 . S
C2450 H2469 0.913 . S
C2451 H2427 0.950 . S
C2451 C2450 1.524 . S
C2451 C2452 1.415 . S
C2452 H2428 0.950 . S
C2452 C2447 1.363 . S
C2452 C2451 1.415 . S
C2453 H2429 0.951 . S
C2453 C2454 1.366 . S
C2453 C2455 1.388 . S
C2454 C2453 1.366 . S
C2454 C2458 1.385 . S
C2455 H2430 0.951 . S
C2455 C2453 1.388 . S
C2455 C2456 1.366 . S
C2456 C2455 1.366 . S
C2456 C2457 1.414 . S
C2456 C2459 1.499 . S
C2457 H2431 0.950 . S
C2457 C2456 1.414 . S
C2457 C2458 1.374 . S
C2458 H2432 0.950 . S
C2458 C2454 1.385 . S
C2458 C2457 1.374 . S
C2459 C2456 1.499 . S
C2459 C2460 1.373 . S
C2459 C2461 1.389 . S
C2460 H2433 0.950 . S
C2460 C2446 1.377 . S
C2460 C2459 1.373 . S
C2461 C2445 1.377 . S
C2461 C2459 1.389 . S
C2461 C2462 1.524 . S
C2462 C2461 1.524 . S
C2462 C2463 1.397 . S
C2462 C2467 1.363 . S
C2463 H2434 0.950 . S
C2463 C2462 1.397 . S
C2463 C2464 1.334 . S
C2464 H2435 0.950 . S
C2464 C2463 1.334 . S
C2464 C2465 1.287 . S
C2465 C2464 1.287 . S
C2465 C2466 1.524 . S
C2465 H2468 0.999 . S
C2466 H2436 0.950 . S
C2466 C2465 1.524 . S
C2466 C2467 1.415 . S
C2467 H2437 0.950 . S
C2467 C2462 1.363 . S
C2467 C2466 1.415 . S
H2468 C2465 0.999 . S
H2469 C2450 0.913 . S
H2470 C2488 0.951 . S
H2471 C2490 0.951 . S
H2472 C2492 0.950 . S
H2473 C2493 0.950 . S
H2474 C2495 0.950 . S
H2475 C2498 0.950 . S
H2476 C2499 0.950 . S
H2477 C2501 0.950 . S
H2478 C2502 0.950 . S
H2479 C2503 0.951 . S
H2480 C2505 0.951 . S
H2481 C2507 0.950 . S
H2482 C2508 0.950 . S
H2483 C2510 0.950 . S
H2484 C2513 0.950 . S
H2485 C2514 0.950 . S
H2486 C2516 0.950 . S
H2487 C2517 0.950 . S
C2488 H2470 0.951 . S
C2488 C2489 1.366 . S
C2488 C2490 1.388 . S
C2489 C2488 1.366 . S
C2489 C2493 1.385 . S
C2490 H2471 0.951 . S
C2490 C2488 1.388 . S
C2490 C2491 1.366 . S
C2491 C2490 1.366 . S
C2491 C2492 1.414 . S
C2491 C2494 1.499 . S
C2492 H2472 0.950 . S
C2492 C2491 1.414 . S
C2492 C2493 1.374 . S
C2493 H2473 0.950 . S
C2493 C2489 1.385 . S
C2493 C2492 1.374 . S
C2494 C2491 1.499 . S
C2494 C2495 1.373 1_554 S
C2494 C2496 1.389 1_455 S
C2495 H2474 0.950 . S
C2495 C2494 1.373 1_556 S
C2495 C2511 1.377 . S
C2496 C2494 1.389 1_655 S
C2496 C2497 1.524 . S
C2496 C2510 1.377 . S
C2497 C2496 1.524 . S
C2497 C2498 1.397 . S
C2497 C2502 1.363 . S
C2498 H2475 0.950 . S
C2498 C2497 1.397 . S
C2498 C2499 1.334 . S
C2499 H2476 0.950 . S
C2499 C2498 1.334 . S
C2499 C2500 1.287 . S
C2500 C2499 1.287 . S
C2500 C2501 1.524 . S
C2500 H2519 0.913 . S
C2501 H2477 0.950 . S
C2501 C2500 1.524 . S
C2501 C2502 1.415 . S
C2502 H2478 0.950 . S
C2502 C2497 1.363 . S
C2502 C2501 1.415 . S
C2503 H2479 0.951 . S
C2503 C2504 1.366 . S
C2503 C2505 1.388 . S
C2504 C2503 1.366 . S
C2504 C2508 1.385 . S
C2505 H2480 0.951 . S
C2505 C2503 1.388 . S
C2505 C2506 1.366 . S
C2506 C2505 1.366 . S
C2506 C2507 1.414 . S
C2506 C2509 1.499 . S
C2507 H2481 0.950 . S
C2507 C2506 1.414 . S
C2507 C2508 1.374 . S
C2508 H2482 0.950 . S
C2508 C2504 1.385 . S
C2508 C2507 1.374 . S
C2509 C2506 1.499 . S
C2509 C2510 1.373 1_556 S
C2509 C2511 1.389 1_655 S
C2510 H2483 0.950 . S
C2510 C2496 1.377 . S
C2510 C2509 1.373 1_554 S
C2511 C2495 1.377 . S
C2511 C2509 1.389 1_455 S
C2511 C2512 1.524 . S
C2512 C2511 1.524 . S
C2512 C2513 1.397 . S
C2512 C2517 1.363 . S
C2513 H2484 0.950 . S
C2513 C2512 1.397 . S
C2513 C2514 1.334 . S
C2514 H2485 0.950 . S
C2514 C2513 1.334 . S
C2514 C2515 1.287 . S
C2515 C2514 1.287 . S
C2515 C2516 1.524 . S
C2515 H2518 0.999 . S
C2516 H2486 0.950 . S
C2516 C2515 1.524 . S
C2516 C2517 1.415 . S
C2517 H2487 0.950 . S
C2517 C2512 1.363 . S
C2517 C2516 1.415 . S
H2518 C2515 0.999 . S
H2519 C2500 0.913 . S
H2520 C2538 0.951 . S
H2521 C2540 0.951 . S
H2522 C2542 0.950 . S
H2523 C2543 0.950 . S
H2524 C2545 0.950 . S
H2525 C2548 0.950 . S
H2526 C2549 0.950 . S
H2527 C2551 0.950 . S
H2528 C2552 0.950 . S
H2529 C2553 0.951 . S
H2530 C2555 0.951 . S
H2531 C2557 0.950 . S
H2532 C2558 0.950 . S
H2533 C2560 0.950 . S
H2534 C2563 0.950 . S
H2535 C2564 0.950 . S
H2536 C2566 0.950 . S
H2537 C2567 0.950 . S
C2538 H2520 0.951 . S
C2538 C2539 1.366 . S
C2538 C2540 1.388 . S
C2539 C2538 1.366 . S
C2539 C2543 1.385 . S
C2540 H2521 0.951 . S
C2540 C2538 1.388 . S
C2540 C2541 1.366 . S
C2541 C2540 1.366 . S
C2541 C2542 1.414 . S
C2541 C2544 1.499 . S
C2542 H2522 0.950 . S
C2542 C2541 1.414 . S
C2542 C2543 1.374 . S
C2543 H2523 0.950 . S
C2543 C2539 1.385 . S
C2543 C2542 1.374 . S
C2544 C2541 1.499 . S
C2544 C2545 1.373 . S
C2544 C2546 1.389 . S
C2545 H2524 0.950 . S
C2545 C2544 1.373 . S
C2545 C2561 1.377 . S
C2546 C2544 1.389 . S
C2546 C2547 1.524 . S
C2546 C2560 1.377 . S
C2547 C2546 1.524 . S
C2547 C2548 1.397 . S
C2547 C2552 1.363 . S
C2548 H2525 0.950 . S
C2548 C2547 1.397 . S
C2548 C2549 1.334 . S
C2549 H2526 0.950 . S
C2549 C2548 1.334 . S
C2549 C2550 1.287 . S
C2550 C2549 1.287 . S
C2550 C2551 1.524 . S
C2550 H2569 0.913 . S
C2551 H2527 0.950 . S
C2551 C2550 1.524 . S
C2551 C2552 1.415 . S
C2552 H2528 0.950 . S
C2552 C2547 1.363 . S
C2552 C2551 1.415 . S
C2553 H2529 0.951 . S
C2553 C2554 1.366 . S
C2553 C2555 1.388 . S
C2554 C2553 1.366 . S
C2554 C2558 1.385 . S
C2555 H2530 0.951 . S
C2555 C2553 1.388 . S
C2555 C2556 1.366 . S
C2556 C2555 1.366 . S
C2556 C2557 1.414 . S
C2556 C2559 1.499 . S
C2557 H2531 0.950 . S
C2557 C2556 1.414 . S
C2557 C2558 1.374 . S
C2558 H2532 0.950 . S
C2558 C2554 1.385 . S
C2558 C2557 1.374 . S
C2559 C2556 1.499 . S
C2559 C2560 1.373 . S
C2559 C2561 1.389 . S
C2560 H2533 0.950 . S
C2560 C2546 1.377 . S
C2560 C2559 1.373 . S
C2561 C2545 1.377 . S
C2561 C2559 1.389 . S
C2561 C2562 1.524 . S
C2562 C2561 1.524 . S
C2562 C2563 1.397 . S
C2562 C2567 1.363 . S
C2563 H2534 0.950 . S
C2563 C2562 1.397 . S
C2563 C2564 1.334 . S
C2564 H2535 0.950 . S
C2564 C2563 1.334 . S
C2564 C2565 1.287 . S
C2565 C2564 1.287 . S
C2565 C2566 1.524 . S
C2565 H2568 0.999 . S
C2566 H2536 0.950 . S
C2566 C2565 1.524 . S
C2566 C2567 1.415 . S
C2567 H2537 0.950 . S
C2567 C2562 1.363 . S
C2567 C2566 1.415 . S
H2568 C2565 0.999 . S
H2569 C2550 0.913 . S
H2570 C2588 0.951 . S
H2571 C2590 0.951 . S
H2572 C2592 0.950 . S
H2573 C2593 0.950 . S
H2574 C2595 0.950 . S
H2575 C2598 0.950 . S
H2576 C2599 0.950 . S
H2577 C2601 0.950 . S
H2578 C2602 0.950 . S
H2579 C2603 0.951 . S
H2580 C2605 0.951 . S
H2581 C2607 0.950 . S
H2582 C2608 0.950 . S
H2583 C2610 0.950 . S
H2584 C2613 0.950 . S
H2585 C2614 0.950 . S
H2586 C2616 0.950 . S
H2587 C2617 0.950 . S
C2588 H2570 0.951 . S
C2588 C2589 1.366 . S
C2588 C2590 1.388 . S
C2589 C2588 1.366 . S
C2589 C2593 1.385 . S
C2590 H2571 0.951 . S
C2590 C2588 1.388 . S
C2590 C2591 1.366 . S
C2591 C2590 1.366 . S
C2591 C2592 1.414 . S
C2591 C2594 1.499 . S
C2592 H2572 0.950 . S
C2592 C2591 1.414 . S
C2592 C2593 1.374 . S
C2593 H2573 0.950 . S
C2593 C2589 1.385 . S
C2593 C2592 1.374 . S
C2594 C2591 1.499 . S
C2594 C2595 1.373 . S
C2594 C2596 1.389 . S
C2595 H2574 0.950 . S
C2595 C2594 1.373 . S
C2595 C2611 1.377 . S
C2596 C2594 1.389 . S
C2596 C2597 1.524 . S
C2596 C2610 1.377 . S
C2597 C2596 1.524 . S
C2597 C2598 1.397 . S
C2597 C2602 1.363 . S
C2598 H2575 0.950 . S
C2598 C2597 1.397 . S
C2598 C2599 1.334 . S
C2599 H2576 0.950 . S
C2599 C2598 1.334 . S
C2599 C2600 1.287 . S
C2600 C2599 1.287 . S
C2600 C2601 1.524 . S
C2600 H2619 0.913 . S
C2601 H2577 0.950 . S
C2601 C2600 1.524 . S
C2601 C2602 1.415 . S
C2602 H2578 0.950 . S
C2602 C2597 1.363 . S
C2602 C2601 1.415 . S
C2603 H2579 0.951 . S
C2603 C2604 1.366 . S
C2603 C2605 1.388 . S
C2604 C2603 1.366 . S
C2604 C2608 1.385 . S
C2605 H2580 0.951 . S
C2605 C2603 1.388 . S
C2605 C2606 1.366 . S
C2606 C2605 1.366 . S
C2606 C2607 1.414 . S
C2606 C2609 1.499 . S
C2607 H2581 0.950 . S
C2607 C2606 1.414 . S
C2607 C2608 1.374 . S
C2608 H2582 0.950 . S
C2608 C2604 1.385 . S
C2608 C2607 1.374 . S
C2609 C2606 1.499 . S
C2609 C2610 1.373 . S
C2609 C2611 1.389 . S
C2610 H2583 0.950 . S
C2610 C2596 1.377 . S
C2610 C2609 1.373 . S
C2611 C2595 1.377 . S
C2611 C2609 1.389 . S
C2611 C2612 1.524 . S
C2612 C2611 1.524 . S
C2612 C2613 1.397 . S
C2612 C2617 1.363 . S
C2613 H2584 0.950 . S
C2613 C2612 1.397 . S
C2613 C2614 1.334 . S
C2614 H2585 0.950 . S
C2614 C2613 1.334 . S
C2614 C2615 1.287 . S
C2615 C2614 1.287 . S
C2615 C2616 1.524 . S
C2615 H2618 0.999 . S
C2616 H2586 0.950 . S
C2616 C2615 1.524 . S
C2616 C2617 1.415 . S
C2617 H2587 0.950 . S
C2617 C2612 1.363 . S
C2617 C2616 1.415 . S
H2618 C2615 0.999 . S
H2619 C2600 0.913 . S
H2620 C2638 0.951 . S
H2621 C2640 0.951 1_655 S
H2622 C2642 0.950 . S
H2623 C2643 0.950 . S
H2624 C2645 0.950 . S
H2625 C2648 0.950 . S
H2626 C2649 0.929 1_455 S
H2627 C2651 0.950 . S
H2628 C2652 0.950 1_556 S
H2629 C2653 0.951 . S
H2630 C2655 0.951 1_455 S
H2631 C2657 0.950 . S
H2632 C2658 0.950 . S
H2633 C2660 0.950 . S
H2634 C2663 0.950 . S
H2635 C2664 0.929 1_655 S
H2636 C2666 0.950 . S
H2637 C2667 0.950 1_554 S
C2638 H2620 0.951 . S
C2638 C2639 1.366 . S
C2638 C2640 1.388 . S
C2639 C2638 1.366 . S
C2639 C2643 1.385 . S
C2640 H2621 0.951 1_455 S
C2640 C2638 1.388 . S
C2640 C2641 1.366 . S
C2641 C2640 1.366 . S
C2641 C2642 1.414 . S
C2641 C2644 1.499 . S
C2642 H2622 0.950 . S
C2642 C2641 1.414 . S
C2642 C2643 1.374 . S
C2643 H2623 0.950 . S
C2643 C2639 1.385 . S
C2643 C2642 1.374 . S
C2644 C2641 1.499 . S
C2644 C2645 1.373 1_545 S
C2644 C2646 1.389 1_456 S
C2645 H2624 0.950 . S
C2645 C2644 1.373 1_565 S
C2645 C2661 1.377 . S
C2646 C2644 1.389 1_654 S
C2646 C2647 1.524 . S
C2646 C2660 1.377 . S
C2647 C2646 1.524 . S
C2647 C2648 1.397 1_655 S
C2647 C2652 1.363 . S
C2648 H2625 0.950 . S
C2648 C2647 1.397 1_455 S
C2648 C2649 1.329 1_455 S
C2649 H2626 0.929 1_655 S
C2649 C2648 1.329 1_655 S
C2649 C2650 1.315 . S
C2650 C2649 1.315 . S
C2650 C2651 1.524 . S
C2650 H2669 0.913 . S
C2651 H2627 0.950 . S
C2651 C2650 1.524 . S
C2651 C2652 1.415 . S
C2652 H2628 0.950 1_554 S
C2652 C2647 1.363 . S
C2652 C2651 1.415 . S
C2653 H2629 0.951 . S
C2653 C2654 1.366 . S
C2653 C2655 1.388 . S
C2654 C2653 1.366 . S
C2654 C2658 1.385 . S
C2655 H2630 0.951 1_655 S
C2655 C2653 1.388 . S
C2655 C2656 1.366 . S
C2656 C2655 1.366 . S
C2656 C2657 1.414 . S
C2656 C2659 1.499 . S
C2657 H2631 0.950 . S
C2657 C2656 1.414 . S
C2657 C2658 1.374 . S
C2658 H2632 0.950 . S
C2658 C2654 1.385 . S
C2658 C2657 1.374 . S
C2659 C2656 1.499 . S
C2659 C2660 1.373 1_565 S
C2659 C2661 1.389 1_654 S
C2660 H2633 0.950 . S
C2660 C2646 1.377 . S
C2660 C2659 1.373 1_545 S
C2661 C2645 1.377 . S
C2661 C2659 1.389 1_456 S
C2661 C2662 1.524 . S
C2662 C2661 1.524 . S
C2662 C2663 1.397 1_455 S
C2662 C2667 1.363 . S
C2663 H2634 0.950 . S
C2663 C2662 1.397 1_655 S
C2663 C2664 1.329 1_655 S
C2664 H2635 0.929 1_455 S
C2664 C2663 1.329 1_455 S
C2664 C2665 1.315 . S
C2665 C2664 1.315 . S
C2665 C2666 1.524 . S
C2665 H2668 0.999 . S
C2666 H2636 0.950 . S
C2666 C2665 1.524 . S
C2666 C2667 1.415 . S
C2667 H2637 0.950 1_556 S
C2667 C2662 1.363 . S
C2667 C2666 1.415 . S
H2668 C2665 0.999 . S
H2669 C2650 0.913 . S
H2670 C2688 0.951 . S
H2671 C2690 0.951 . S
H2672 C2692 0.950 . S
H2673 C2693 0.950 . S
H2674 C2695 0.950 . S
H2675 C2698 0.950 . S
H2676 C2699 0.950 . S
H2677 C2701 0.950 . S
H2678 C2702 0.950 . S
H2679 C2703 0.951 . S
H2680 C2705 0.951 . S
H2681 C2707 0.950 . S
H2682 C2708 0.950 . S
H2683 C2710 0.950 . S
H2684 C2713 0.950 . S
H2685 C2714 0.950 . S
H2686 C2716 0.950 . S
H2687 C2717 0.950 . S
C2688 H2670 0.951 . S
C2688 C2689 1.366 . S
C2688 C2690 1.388 . S
C2689 C2688 1.366 . S
C2689 C2693 1.385 . S
C2690 H2671 0.951 . S
C2690 C2688 1.388 . S
C2690 C2691 1.366 . S
C2691 C2690 1.366 . S
C2691 C2692 1.414 . S
C2691 C2694 1.499 . S
C2692 H2672 0.950 . S
C2692 C2691 1.414 . S
C2692 C2693 1.374 . S
C2693 H2673 0.950 . S
C2693 C2689 1.385 . S
C2693 C2692 1.374 . S
C2694 C2691 1.499 . S
C2694 C2695 1.373 1_545 S
C2694 C2696 1.389 . S
C2695 H2674 0.950 . S
C2695 C2694 1.373 1_565 S
C2695 C2711 1.377 . S
C2696 C2694 1.389 . S
C2696 C2697 1.524 . S
C2696 C2710 1.377 . S
C2697 C2696 1.524 . S
C2697 C2698 1.397 . S
C2697 C2702 1.363 . S
C2698 H2675 0.950 . S
C2698 C2697 1.397 . S
C2698 C2699 1.334 . S
C2699 H2676 0.950 . S
C2699 C2698 1.334 . S
C2699 C2700 1.287 . S
C2700 C2699 1.287 . S
C2700 C2701 1.524 . S
C2700 H2719 0.913 . S
C2701 H2677 0.950 . S
C2701 C2700 1.524 . S
C2701 C2702 1.415 . S
C2702 H2678 0.950 . S
C2702 C2697 1.363 . S
C2702 C2701 1.415 . S
C2703 H2679 0.951 . S
C2703 C2704 1.366 . S
C2703 C2705 1.388 . S
C2704 C2703 1.366 . S
C2704 C2708 1.385 . S
C2705 H2680 0.951 . S
C2705 C2703 1.388 . S
C2705 C2706 1.366 . S
C2706 C2705 1.366 . S
C2706 C2707 1.414 . S
C2706 C2709 1.499 . S
C2707 H2681 0.950 . S
C2707 C2706 1.414 . S
C2707 C2708 1.374 . S
C2708 H2682 0.950 . S
C2708 C2704 1.385 . S
C2708 C2707 1.374 . S
C2709 C2706 1.499 . S
C2709 C2710 1.373 1_565 S
C2709 C2711 1.389 . S
C2710 H2683 0.950 . S
C2710 C2696 1.377 . S
C2710 C2709 1.373 1_545 S
C2711 C2695 1.377 . S
C2711 C2709 1.389 . S
C2711 C2712 1.524 . S
C2712 C2711 1.524 . S
C2712 C2713 1.397 . S
C2712 C2717 1.363 . S
C2713 H2684 0.950 . S
C2713 C2712 1.397 . S
C2713 C2714 1.334 . S
C2714 H2685 0.950 . S
C2714 C2713 1.334 . S
C2714 C2715 1.287 . S
C2715 C2714 1.287 . S
C2715 C2716 1.524 . S
C2715 H2718 0.999 . S
C2716 H2686 0.950 . S
C2716 C2715 1.524 . S
C2716 C2717 1.415 . S
C2717 H2687 0.950 . S
C2717 C2712 1.363 . S
C2717 C2716 1.415 . S
H2718 C2715 0.999 . S
H2719 C2700 0.913 . S
C339 C16 0.630 . S
C354 C216 0.630 . S
C389 C36 0.630 . S
C404 C236 0.630 . S
C439 C56 0.628 . S
C454 C176 0.628 . S
C489 C76 0.629 . S
C504 C196 0.629 . S
C539 C86 0.630 . S
C554 C286 0.630 . S
C589 C106 0.629 . S
C604 C306 0.629 . S
C639 C126 0.630 . S
C654 C246 0.630 . S
C689 C146 0.629 . S
C704 C266 0.628 . S
C739 C181 1.825 . S
C754 C6 1.849 . S
C789 C201 1.824 . S
C804 C26 1.850 . S
C839 C221 1.824 . S
C854 C46 1.849 . S
C889 C161 1.824 . S
C904 C66 1.849 . S
C939 C96 1.849 . S
C954 C269 1.825 . S
C989 C289 1.824 . S
C1004 C116 1.849 . S
C1039 C309 1.824 . S
C1054 C136 1.849 . S
C1089 C249 1.824 . S
C1104 C156 1.849 . S
C1139 C21 1.824 . S
C1154 C166 1.850 . S
C1189 C186 1.849 . S
C1204 C41 1.825 . S
C1239 C206 1.849 . S
C1254 C61 1.824 . S
C1289 C226 1.849 . S
C1304 C1 1.824 . S
C1339 C256 1.849 . S
C1354 C109 1.824 . S
C1389 C129 1.824 . S
C1404 C276 1.850 . S
C1439 C149 1.824 . S
C1454 C296 1.849 . S
C1489 C316 1.850 . S
C1504 C89 1.824 . S
C1539 C8 1.387 1_556 S
C1554 C301 1.479 . S
C1589 C28 1.387 . S
C1604 C81 1.479 1_554 S
C1639 C261 1.479 . S
C1654 C48 1.386 . S
C1689 C121 1.479 . S
C1704 C68 1.386 . S
C1739 C99 1.386 1_554 S
C1754 C229 1.479 . S
C1789 C119 1.386 . S
C1804 C9 1.479 1_556 S
C1839 C189 1.479 . S
C1854 C139 1.386 . S
C1889 C49 1.479 . S
C1904 C159 1.386 . S
C1939 C168 1.387 . S
C1954 C141 1.479 . S
C1989 C188 1.387 . S
C2004 C241 1.479 . S
C2039 C101 1.479 . S
C2054 C208 1.387 1_556 S
C2089 C281 1.479 1_554 S
C2104 C228 1.385 . S
C2139 C259 1.387 . S
C2154 C69 1.479 . S
C2189 C279 1.386 . S
C2204 C169 1.479 . S
C2239 C299 1.386 1_554 S
C2254 C29 1.479 . S
C2289 C209 1.479 1_556 S
C2304 C319 1.386 . S
C2339 C19 2.183 . S
C2354 C248 2.183 . S
C2389 C39 2.183 . S
C2404 C108 2.183 . S
C2439 C59 2.183 . S
C2454 C288 2.183 . S
C2489 C148 2.183 . S
C2504 C79 2.183 . S
C2539 C88 2.183 . S
C2554 C179 2.183 . S
C2589 C219 2.183 . S
C2604 C128 2.183 . S
C2639 C199 2.183 . S
C2654 C268 2.183 . S
C2689 C308 2.183 . S
C2704 C239 2.183 . S
