# Generated by pormake.
# Topology unl, (4)-cn, num edge types: 1
# Building blocks:
#     Node 0, Type 0, BuildingBlock: ESEHIV_clean_sbu_0, # of connection points: 4
#     Node 1, Type 0, BuildingBlock: ESEHIV_clean_sbu_0, # of connection points: 4
#     Node 2, Type 0, BuildingBlock: ESEHIV_clean_sbu_0, # of connection points: 4
#     Node 3, Type 0, BuildingBlock: ESEHIV_clean_sbu_0, # of connection points: 4
#     Node 4, Type 0, BuildingBlock: ESEHIV_clean_sbu_0, # of connection points: 4
#     Node 5, Type 0, BuildingBlock: ESEHIV_clean_sbu_0, # of connection points: 4
#     Node 6, Type 0, BuildingBlock: ESEHIV_clean_sbu_0, # of connection points: 4
#     Node 7, Type 0, BuildingBlock: ESEHIV_clean_sbu_0, # of connection points: 4
#     Node 8, Type 0, BuildingBlock: ESEHIV_clean_sbu_0, # of connection points: 4
#     Node 9, Type 0, BuildingBlock: ESEHIV_clean_sbu_0, # of connection points: 4
#     Node 10, Type 0, BuildingBlock: ESEHIV_clean_sbu_0, # of connection points: 4
#     Node 11, Type 0, BuildingBlock: ESEHIV_clean_sbu_0, # of connection points: 4
#     Node 12, Type 0, BuildingBlock: ESEHIV_clean_sbu_0, # of connection points: 4
#     Node 13, Type 0, BuildingBlock: ESEHIV_clean_sbu_0, # of connection points: 4
#     Node 14, Type 0, BuildingBlock: ESEHIV_clean_sbu_0, # of connection points: 4
#     Node 15, Type 0, BuildingBlock: ESEHIV_clean_sbu_0, # of connection points: 4
#     Node 16, Type 0, BuildingBlock: ESEHIV_clean_sbu_0, # of connection points: 4
#     Node 17, Type 0, BuildingBlock: ESEHIV_clean_sbu_0, # of connection points: 4
#     Node 18, Type 0, BuildingBlock: ESEHIV_clean_sbu_0, # of connection points: 4
#     Node 19, Type 0, BuildingBlock: ESEHIV_clean_sbu_0, # of connection points: 4
#     Node 20, Type 0, BuildingBlock: ESEHIV_clean_sbu_0, # of connection points: 4
#     Node 21, Type 0, BuildingBlock: ESEHIV_clean_sbu_0, # of connection points: 4
#     Node 22, Type 0, BuildingBlock: ESEHIV_clean_sbu_0, # of connection points: 4
#     Node 23, Type 0, BuildingBlock: ESEHIV_clean_sbu_0, # of connection points: 4
#     Node 24, Type 0, BuildingBlock: ESEHIV_clean_sbu_0, # of connection points: 4
#     Node 25, Type 0, BuildingBlock: ESEHIV_clean_sbu_0, # of connection points: 4
#     Node 26, Type 0, BuildingBlock: ESEHIV_clean_sbu_0, # of connection points: 4
#     Node 27, Type 0, BuildingBlock: ESEHIV_clean_sbu_0, # of connection points: 4
#     Node 28, Type 0, BuildingBlock: ESEHIV_clean_sbu_0, # of connection points: 4
#     Node 29, Type 0, BuildingBlock: ESEHIV_clean_sbu_0, # of connection points: 4
#     Node 30, Type 0, BuildingBlock: ESEHIV_clean_sbu_0, # of connection points: 4
#     Node 31, Type 0, BuildingBlock: ESEHIV_clean_sbu_0, # of connection points: 4
#     Node 32, Type 0, BuildingBlock: ESEHIV_clean_sbu_0, # of connection points: 4
#     Node 33, Type 0, BuildingBlock: ESEHIV_clean_sbu_0, # of connection points: 4
#     Node 34, Type 0, BuildingBlock: ESEHIV_clean_sbu_0, # of connection points: 4
#     Node 35, Type 0, BuildingBlock: ESEHIV_clean_sbu_0, # of connection points: 4
#     Edge 36, Type (0, 0), BuildingBlock: KIFKEQ_clean_linker_1, # of connection points: 2
#     Edge 37, Type (0, 0), BuildingBlock: KIFKEQ_clean_linker_1, # of connection points: 2
#     Edge 38, Type (0, 0), BuildingBlock: KIFKEQ_clean_linker_1, # of connection points: 2
#     Edge 39, Type (0, 0), BuildingBlock: KIFKEQ_clean_linker_1, # of connection points: 2
#     Edge 40, Type (0, 0), BuildingBlock: KIFKEQ_clean_linker_1, # of connection points: 2
#     Edge 41, Type (0, 0), BuildingBlock: KIFKEQ_clean_linker_1, # of connection points: 2
#     Edge 42, Type (0, 0), BuildingBlock: KIFKEQ_clean_linker_1, # of connection points: 2
#     Edge 43, Type (0, 0), BuildingBlock: KIFKEQ_clean_linker_1, # of connection points: 2
#     Edge 44, Type (0, 0), BuildingBlock: KIFKEQ_clean_linker_1, # of connection points: 2
#     Edge 45, Type (0, 0), BuildingBlock: KIFKEQ_clean_linker_1, # of connection points: 2
#     Edge 46, Type (0, 0), BuildingBlock: KIFKEQ_clean_linker_1, # of connection points: 2
#     Edge 47, Type (0, 0), BuildingBlock: KIFKEQ_clean_linker_1, # of connection points: 2
#     Edge 48, Type (0, 0), BuildingBlock: KIFKEQ_clean_linker_1, # of connection points: 2
#     Edge 49, Type (0, 0), BuildingBlock: KIFKEQ_clean_linker_1, # of connection points: 2
#     Edge 50, Type (0, 0), BuildingBlock: KIFKEQ_clean_linker_1, # of connection points: 2
#     Edge 51, Type (0, 0), BuildingBlock: KIFKEQ_clean_linker_1, # of connection points: 2
#     Edge 52, Type (0, 0), BuildingBlock: KIFKEQ_clean_linker_1, # of connection points: 2
#     Edge 53, Type (0, 0), BuildingBlock: KIFKEQ_clean_linker_1, # of connection points: 2
#     Edge 54, Type (0, 0), BuildingBlock: KIFKEQ_clean_linker_1, # of connection points: 2
#     Edge 55, Type (0, 0), BuildingBlock: KIFKEQ_clean_linker_1, # of connection points: 2
#     Edge 56, Type (0, 0), BuildingBlock: KIFKEQ_clean_linker_1, # of connection points: 2
#     Edge 57, Type (0, 0), BuildingBlock: KIFKEQ_clean_linker_1, # of connection points: 2
#     Edge 58, Type (0, 0), BuildingBlock: KIFKEQ_clean_linker_1, # of connection points: 2
#     Edge 59, Type (0, 0), BuildingBlock: KIFKEQ_clean_linker_1, # of connection points: 2
#     Edge 60, Type (0, 0), BuildingBlock: KIFKEQ_clean_linker_1, # of connection points: 2
#     Edge 61, Type (0, 0), BuildingBlock: KIFKEQ_clean_linker_1, # of connection points: 2
#     Edge 62, Type (0, 0), BuildingBlock: KIFKEQ_clean_linker_1, # of connection points: 2
#     Edge 63, Type (0, 0), BuildingBlock: KIFKEQ_clean_linker_1, # of connection points: 2
#     Edge 64, Type (0, 0), BuildingBlock: KIFKEQ_clean_linker_1, # of connection points: 2
#     Edge 65, Type (0, 0), BuildingBlock: KIFKEQ_clean_linker_1, # of connection points: 2
#     Edge 66, Type (0, 0), BuildingBlock: KIFKEQ_clean_linker_1, # of connection points: 2
#     Edge 67, Type (0, 0), BuildingBlock: KIFKEQ_clean_linker_1, # of connection points: 2
#     Edge 68, Type (0, 0), BuildingBlock: KIFKEQ_clean_linker_1, # of connection points: 2
#     Edge 69, Type (0, 0), BuildingBlock: KIFKEQ_clean_linker_1, # of connection points: 2
#     Edge 70, Type (0, 0), BuildingBlock: KIFKEQ_clean_linker_1, # of connection points: 2
#     Edge 71, Type (0, 0), BuildingBlock: KIFKEQ_clean_linker_1, # of connection points: 2
#     Edge 72, Type (0, 0), BuildingBlock: KIFKEQ_clean_linker_1, # of connection points: 2
#     Edge 73, Type (0, 0), BuildingBlock: KIFKEQ_clean_linker_1, # of connection points: 2
#     Edge 74, Type (0, 0), BuildingBlock: KIFKEQ_clean_linker_1, # of connection points: 2
#     Edge 75, Type (0, 0), BuildingBlock: KIFKEQ_clean_linker_1, # of connection points: 2
#     Edge 76, Type (0, 0), BuildingBlock: KIFKEQ_clean_linker_1, # of connection points: 2
#     Edge 77, Type (0, 0), BuildingBlock: KIFKEQ_clean_linker_1, # of connection points: 2
#     Edge 78, Type (0, 0), BuildingBlock: KIFKEQ_clean_linker_1, # of connection points: 2
#     Edge 79, Type (0, 0), BuildingBlock: KIFKEQ_clean_linker_1, # of connection points: 2
#     Edge 80, Type (0, 0), BuildingBlock: KIFKEQ_clean_linker_1, # of connection points: 2
#     Edge 81, Type (0, 0), BuildingBlock: KIFKEQ_clean_linker_1, # of connection points: 2
#     Edge 82, Type (0, 0), BuildingBlock: KIFKEQ_clean_linker_1, # of connection points: 2
#     Edge 83, Type (0, 0), BuildingBlock: KIFKEQ_clean_linker_1, # of connection points: 2
#     Edge 84, Type (0, 0), BuildingBlock: KIFKEQ_clean_linker_1, # of connection points: 2
#     Edge 85, Type (0, 0), BuildingBlock: KIFKEQ_clean_linker_1, # of connection points: 2
#     Edge 86, Type (0, 0), BuildingBlock: KIFKEQ_clean_linker_1, # of connection points: 2
#     Edge 87, Type (0, 0), BuildingBlock: KIFKEQ_clean_linker_1, # of connection points: 2
#     Edge 88, Type (0, 0), BuildingBlock: KIFKEQ_clean_linker_1, # of connection points: 2
#     Edge 89, Type (0, 0), BuildingBlock: KIFKEQ_clean_linker_1, # of connection points: 2
#     Edge 90, Type (0, 0), BuildingBlock: KIFKEQ_clean_linker_1, # of connection points: 2
#     Edge 91, Type (0, 0), BuildingBlock: KIFKEQ_clean_linker_1, # of connection points: 2
#     Edge 92, Type (0, 0), BuildingBlock: KIFKEQ_clean_linker_1, # of connection points: 2
#     Edge 93, Type (0, 0), BuildingBlock: KIFKEQ_clean_linker_1, # of connection points: 2
#     Edge 94, Type (0, 0), BuildingBlock: KIFKEQ_clean_linker_1, # of connection points: 2
#     Edge 95, Type (0, 0), BuildingBlock: KIFKEQ_clean_linker_1, # of connection points: 2
#     Edge 96, Type (0, 0), BuildingBlock: KIFKEQ_clean_linker_1, # of connection points: 2
#     Edge 97, Type (0, 0), BuildingBlock: KIFKEQ_clean_linker_1, # of connection points: 2
#     Edge 98, Type (0, 0), BuildingBlock: KIFKEQ_clean_linker_1, # of connection points: 2
#     Edge 99, Type (0, 0), BuildingBlock: KIFKEQ_clean_linker_1, # of connection points: 2
#     Edge 100, Type (0, 0), BuildingBlock: KIFKEQ_clean_linker_1, # of connection points: 2
#     Edge 101, Type (0, 0), BuildingBlock: KIFKEQ_clean_linker_1, # of connection points: 2
#     Edge 102, Type (0, 0), BuildingBlock: KIFKEQ_clean_linker_1, # of connection points: 2
#     Edge 103, Type (0, 0), BuildingBlock: KIFKEQ_clean_linker_1, # of connection points: 2
#     Edge 104, Type (0, 0), BuildingBlock: KIFKEQ_clean_linker_1, # of connection points: 2
#     Edge 105, Type (0, 0), BuildingBlock: KIFKEQ_clean_linker_1, # of connection points: 2
#     Edge 106, Type (0, 0), BuildingBlock: KIFKEQ_clean_linker_1, # of connection points: 2
#     Edge 107, Type (0, 0), BuildingBlock: KIFKEQ_clean_linker_1, # of connection points: 2
# Relax obj value: 0.037
# Max RMSD: 0.197
# Mean RMSD: 0.183
data_MOF--net-unl--node1-ESEHIV_clean_sbu_0--edge1-KIFKEQ_clean_linker_1
_symmetry_space_group_name_H-M    P1
_symmetry_Int_Tables_number       1
_symmetry_cell_setting            triclinic
loop_
_symmetry_equiv_pos_as_xyz
'x, y, z'
_cell_length_a     63.808798
_cell_length_b     67.948966
_cell_length_c     50.812287
_cell_angle_alpha  88.301525
_cell_angle_beta   90.021134
_cell_angle_gamma 117.98577
loop_
_atom_site_label
_atom_site_type_symbol
_atom_site_fract_x
_atom_site_fract_y
_atom_site_fract_z
_atom_type_partial_charge
Cu0 Cu 0.21564 0.1451 0.1382 0.0
N1 N 0.19663 0.1414 0.16783 0.0
N2 N 0.1838 0.14712 0.20644 0.0
C3 C 0.20128 0.15537 0.18787 0.0
C4 C 0.16757 0.12721 0.19761 0.0
C5 C 0.17552 0.12376 0.17383 0.0
O6 O 0.24858 0.16212 0.14867 0.0
C7 C 0.20986 0.1591 0.08542 0.0
O8 O 0.22295 0.15022 0.07722 0.0
H9 H 0.2174 0.17105 0.189 0.0
H10 H 0.1666 0.10935 0.16177 0.0
N11 N 0.21121 0.11701 0.12884 0.0
N12 N 0.2039 0.0868 0.10609 0.0
C13 C 0.20117 0.10534 0.10724 0.0
C14 C 0.22014 0.10526 0.14203 0.0
C15 C 0.21569 0.08667 0.12811 0.0
C16 C 0.26605 0.16372 0.13497 0.0
O17 O 0.26233 0.15582 0.11118 0.0
H18 H 0.19247 0.11054 0.09243 0.0
H19 H 0.23011 0.11041 0.16 0.0
O20 O 0.20607 0.15933 0.11003 0.0
H21 H 0.15101 0.11598 0.20748 0.0
H22 H 0.22186 0.07468 0.13312 0.0
Cu23 Cu 0.87116 0.04661 0.14285 0.0
N24 N 0.85466 0.02367 0.11965 0.0
N25 N 0.8457 1.00154 0.08509 0.0
C26 C 0.8614 0.0211 0.09537 0.0
C27 C 0.82851 0.99155 0.10374 0.0
C28 C 0.83412 1.00516 0.12496 0.0
O29 O 0.89972 0.06916 0.12552 0.0
C30 C 0.88787 0.04527 0.19436 0.0
O31 O 0.89791 0.06712 0.19194 0.0
H32 H 0.8776 0.03322 0.0856 0.0
H33 H 0.82428 1.00152 0.14335 0.0
N34 N 0.85297 0.06038 0.15204 0.0
N35 N 0.84407 0.0868 0.16528 0.0
C36 C 0.86131 0.0822 0.1566 0.0
C37 C 0.82967 0.05074 0.15794 0.0
C38 C 0.82411 0.06694 0.16605 0.0
C39 C 0.91718 0.06653 0.11788 0.0
O40 O 0.91734 0.04757 0.12327 0.0
H41 H 0.8798 0.0943 0.15394 0.0
H42 H 0.81769 0.03307 0.15721 0.0
O43 O 0.8768 0.03366 0.17493 0.0
H44 H 0.81335 0.97516 0.10262 0.0
H45 H 0.80681 0.06403 0.17288 0.0
Cu46 Cu 0.95726 0.79908 0.12872 0.0
N47 N 0.98501 0.80862 0.10856 0.0
N48 N 1.01381 0.82638 0.07831 0.0
C49 C 0.99369 0.82466 0.08935 0.0
C50 C 1.01774 0.81074 0.0911 0.0
C51 C 1.00001 0.79986 0.10964 0.0
O52 O 0.9355 0.80651 0.10939 0.0
C53 C 0.97724 0.80523 0.17854 0.0
O54 O 0.98234 0.78985 0.17019 0.0
H55 H 0.98541 0.8348 0.08361 0.0
H56 H 0.99789 0.78613 0.12263 0.0
N57 N 0.94255 0.768 0.13173 0.0
N58 N 0.91911 0.73268 0.14537 0.0
C59 C 0.92764 0.75449 0.15081 0.0
C60 C 0.94345 0.7544 0.1136 0.0
C61 C 0.92911 0.73268 0.12194 0.0
C62 C 0.9372 0.82577 0.10525 0.0
O63 O 0.95434 0.8431 0.11626 0.0
H64 H 0.92307 0.76061 0.16815 0.0
H65 H 0.95339 0.75995 0.09525 0.0
O66 O 0.96553 0.81179 0.16357 0.0
H67 H 0.03205 0.80693 0.08692 0.0
H68 H 0.92574 0.71807 0.11104 0.0
Cu69 Cu 0.16902 0.21841 0.43137 0.0
N70 N 0.18954 0.21077 0.4499 0.0
N71 N 0.2026 0.19471 0.48018 0.0
C72 C 0.18343 0.1952 0.4695 0.0
C73 C 0.22145 0.21064 0.46664 0.0
C74 C 0.21335 0.22053 0.44806 0.0
O75 O 0.13975 0.20584 0.45194 0.0
C76 C 0.18282 0.21531 0.38004 0.0
O77 O 0.20271 0.23204 0.38769 0.0
H78 H 0.16526 0.18459 0.47585 0.0
H79 H 0.22409 0.23429 0.43466 0.0
N80 N 0.18195 0.24943 0.43034 0.0
N81 N 0.19132 0.28455 0.41823 0.0
C82 C 0.17955 0.26284 0.41185 0.0
C83 C 0.19554 0.26302 0.44904 0.0
C84 C 0.20138 0.28465 0.44164 0.0
C85 C 0.12295 0.21074 0.44883 0.0
O86 O 0.12375 0.22373 0.42877 0.0
H87 H 0.16952 0.25677 0.39406 0.0
H88 H 0.20065 0.2575 0.46696 0.0
O89 O 0.16513 0.20691 0.39597 0.0
H90 H 0.23988 0.21536 0.47038 0.0
H91 H 0.21182 0.29924 0.45295 0.0
Cu92 Cu 0.83469 0.97391 0.42845 0.0
N93 N 0.84149 0.99805 0.4498 0.0
N94 N 0.85608 0.02261 0.48182 0.0
C95 C 0.85075 1.00191 0.47417 0.0
C96 C 0.84979 0.03198 0.46162 0.0
C97 C 0.84083 0.01682 0.44196 0.0
O98 O 0.84142 0.95227 0.44701 0.0
C99 C 0.8518 0.97381 0.37651 0.0
O100 O 0.84007 0.95199 0.37935 0.0
H101 H 0.85456 0.99025 0.48548 0.0
H102 H 0.835 0.01954 0.42284 0.0
N103 N 0.8025 0.95941 0.42031 0.0
N104 N 0.76735 0.93256 0.40743 0.0
C105 C 0.79 0.93797 0.4136 0.0
C106 C 0.78734 0.96795 0.41843 0.0
C107 C 0.76565 0.95145 0.41053 0.0
C108 C 0.86166 0.9553 0.45466 0.0
O109 O 0.88059 0.97426 0.44876 0.0
H110 H 0.79753 0.92665 0.4132 0.0
H111 H 0.79184 0.98508 0.42206 0.0
O112 O 0.85255 0.98573 0.3957 0.0
H113 H 0.8519 0.04875 0.46092 0.0
H114 H 0.75008 0.95347 0.40666 0.0
Cu115 Cu 0.081 0.88384 0.4201 0.0
N116 N 0.06319 0.88355 0.39056 0.0
N117 N 0.04422 0.8755 0.35209 0.0
C118 C 0.05683 0.87015 0.36971 0.0
C119 C 0.04256 0.89281 0.36236 0.0
C120 C 0.05418 0.89767 0.38598 0.0
O121 O 0.10295 0.87228 0.41219 0.0
C122 C 0.04991 0.87925 0.46107 0.0
O123 O 0.05407 0.89881 0.45103 0.0
H124 H 0.06168 0.85704 0.3673 0.0
H125 H 0.05604 0.91073 0.39892 0.0
N126 N 0.10063 0.91335 0.4289 0.0
N127 N 0.12481 0.94259 0.45229 0.0
C128 C 0.11044 0.92032 0.45252 0.0
C129 C 0.10914 0.93174 0.41306 0.0
C130 C 0.12398 0.94982 0.42745 0.0
C131 C 0.09889 0.85275 0.40629 0.0
O132 O 0.07691 0.83668 0.40551 0.0
H133 H 0.10701 0.90918 0.46949 0.0
H134 H 0.1052 0.93192 0.39238 0.0
O135 O 0.05976 0.86889 0.45027 0.0
H136 H 0.03335 0.90124 0.35361 0.0
H137 H 0.13387 0.96685 0.41994 0.0
Cu138 Cu 0.81704 0.87364 0.90547 0.0
N139 N 0.82473 0.85519 0.9271 0.0
N140 N 0.83862 0.84192 0.95972 0.0
C141 C 0.83751 0.85995 0.94936 0.0
C142 C 0.82596 0.82519 0.94347 0.0
C143 C 0.81746 0.83343 0.9234 0.0
O144 O 0.82788 0.90254 0.92118 0.0
C145 C 0.84804 0.87402 0.86481 0.0
O146 O 0.86151 0.87435 0.88452 0.0
H147 H 0.84542 0.8761 0.95817 0.0
H148 H 0.80668 0.82422 0.90719 0.0
N149 N 0.78396 0.86105 0.90527 0.0
N150 N 0.7469 0.85368 0.89534 0.0
C151 C 0.76959 0.86226 0.88647 0.0
C152 C 0.76986 0.85129 0.92648 0.0
C153 C 0.74704 0.84675 0.92045 0.0
C154 C 0.84841 0.91515 0.92997 0.0
O155 O 0.86574 0.91023 0.92606 0.0
H156 H 0.77578 0.87021 0.86724 0.0
H157 H 0.77598 0.84842 0.94535 0.0
O158 O 0.82882 0.87478 0.86964 0.0
H159 H 0.82336 0.8083 0.94569 0.0
H160 H 0.73177 0.83927 0.93364 0.0
Cu161 Cu 0.16451 0.94095 0.90469 0.0
N162 N 0.18278 0.96587 0.92449 0.0
N163 N 0.19402 0.99261 0.954 0.0
C164 C 0.17659 0.97275 0.94639 0.0
C165 C 0.21186 0.99824 0.93628 0.0
C166 C 0.20485 0.98176 0.91814 0.0
O167 O 0.13509 0.92131 0.92328 0.0
C168 C 0.15623 0.96763 0.86622 0.0
O169 O 0.15157 0.97648 0.88657 0.0
H170 H 0.15944 0.96373 0.95607 0.0
H171 H 0.21497 0.9815 0.9012 0.0
N172 N 0.18081 0.92447 0.90081 0.0
N173 N 0.18924 0.89751 0.88861 0.0
C174 C 0.17492 0.90705 0.88514 0.0
C175 C 0.19946 0.92614 0.91469 0.0
C176 C 0.20473 0.90961 0.90723 0.0
C177 C 0.11923 0.92603 0.93158 0.0
O178 O 0.12099 0.94574 0.92595 0.0
H179 H 0.16017 0.9014 0.8718 0.0
H180 H 0.20818 0.93813 0.92975 0.0
O181 O 0.16069 0.95136 0.86989 0.0
H182 H 0.22878 0.01322 0.93632 0.0
H183 H 0.21844 0.90641 0.91565 0.0
Cu184 Cu 0.0796 0.20268 0.92679 0.0
N185 N 0.05433 0.19505 0.9505 0.0
N186 N 0.02774 0.17793 0.98297 0.0
C187 C 0.04606 0.17848 0.96908 0.0
C188 C 0.02418 0.19458 0.97251 0.0
C189 C 0.04046 0.20497 0.95235 0.0
O190 O 0.10103 0.19258 0.94262 0.0
C191 C 0.07423 0.18935 0.87192 0.0
O192 O 0.09748 0.19906 0.86974 0.0
H193 H 0.05355 0.16728 0.9726 0.0
H194 H 0.04209 0.21881 0.93988 0.0
N195 N 0.09617 0.23386 0.92253 0.0
N196 N 0.12202 0.26855 0.90876 0.0
C197 C 0.1127 0.24652 0.90417 0.0
C198 C 0.09513 0.24839 0.93923 0.0
C199 C 0.11087 0.26969 0.93078 0.0
C200 C 0.10731 0.19887 0.96605 0.0
O201 O 0.09957 0.21159 0.97693 0.0
H202 H 0.11835 0.23972 0.88835 0.0
H203 H 0.0841 0.24382 0.9568 0.0
O204 O 0.06459 0.18887 0.89402 0.0
H205 H 1.01051 0.1987 0.97869 0.0
H206 H 0.1139 0.28484 0.94025 0.0
Cu207 Cu 0.89141 0.81751 0.64075 0.0
N208 N 0.87311 0.82525 0.61818 0.0
N209 N 0.86329 0.8427 0.58639 0.0
C210 C 0.88116 0.84232 0.60026 0.0
C211 C 0.84326 0.82531 0.59606 0.0
C212 C 0.84937 0.81465 0.61572 0.0
O213 O 0.92235 0.82798 0.62333 0.0
C214 C 0.87288 0.82325 0.68761 0.0
O215 O 0.85379 0.80718 0.67748 0.0
H216 H 0.89978 0.85394 0.59711 0.0
H217 H 0.83731 0.80006 0.62726 0.0
N218 N 0.87707 0.78638 0.64516 0.0
N219 N 0.86777 0.75207 0.66086 0.0
C220 C 0.88075 0.77426 0.66436 0.0
C221 C 0.86131 0.7714 0.62901 0.0
C222 C 0.85557 0.75032 0.63857 0.0
C223 C 0.92262 0.81848 0.60212 0.0
O224 O 0.90261 0.80221 0.594 0.0
H225 H 0.89269 0.78164 0.6805 0.0
H226 H 0.85485 0.7755 0.61109 0.0
O227 O 0.89249 0.83061 0.67488 0.0
H228 H 0.82545 0.82076 0.58958 0.0
H229 H 0.84382 0.73494 0.62929 0.0
Cu230 Cu 0.23918 0.0809 0.65631 0.0
N231 N 0.23246 0.05615 0.63616 0.0
N232 N 0.21816 0.03088 0.60488 0.0
C233 C 0.22189 0.05113 0.61258 0.0
C234 C 0.22689 0.023 0.62433 0.0
C235 C 0.23561 0.03858 0.64359 0.0
O236 O 0.23069 0.10127 0.63719 0.0
C237 C 0.20263 0.05404 0.69331 0.0
O238 O 0.18985 0.04531 0.67243 0.0
H239 H 0.21683 0.06199 0.60142 0.0
H240 H 0.24315 0.03699 0.66211 0.0
N241 N 0.27176 0.09642 0.66207 0.0
N242 N 0.30715 0.12321 0.67429 0.0
C243 C 0.28355 0.11633 0.67335 0.0
C244 C 0.28836 0.09043 0.65564 0.0
C245 C 0.31019 0.10689 0.66315 0.0
C246 C 0.21043 0.09643 0.62777 0.0
O247 O 0.19253 0.07654 0.63264 0.0
H248 H 0.27496 0.12569 0.68032 0.0
H249 H 0.28486 0.07519 0.64613 0.0
O250 O 0.2235 0.07024 0.69042 0.0
H251 H 0.2262 1.00677 0.6251 0.0
H252 H 0.32694 0.10668 0.66083 0.0
Cu253 Cu 0.96284 0.15596 0.65629 0.0
N254 N 0.9871 0.17617 0.63402 0.0
N255 N 1.01441 0.19027 0.60173 0.0
C256 C 0.99484 0.17215 0.61112 0.0
C257 C 1.01903 0.20625 0.61931 0.0
C258 C 1.00212 0.19751 0.63915 0.0
O259 O 0.9504 0.12728 0.63959 0.0
C260 C 0.97066 0.14462 0.71027 0.0
O261 O 0.94993 0.12667 0.70978 0.0
H262 H 0.98696 0.15603 0.60216 0.0
H263 H 1.0012 0.20589 0.65655 0.0
N264 N 0.9394 0.16514 0.65777 0.0
N265 N 0.9082 0.17001 0.66888 0.0
C266 C 0.92253 0.16117 0.67625 0.0
C267 C 0.93572 0.17694 0.63832 0.0
C268 C 0.91664 0.18001 0.64507 0.0
C269 C 0.92869 0.11249 0.64029 0.0
O270 O 0.91381 0.11478 0.65619 0.0
H271 H 0.9205 0.15159 0.69433 0.0
H272 H 0.94616 0.18278 0.6203 0.0
O273 O 0.97795 0.15784 0.69018 0.0
H274 H 0.0338 0.22295 0.61811 0.0
H275 H 0.90971 0.18915 0.63335 0.0
Cu276 Cu 0.8773 0.47664 0.47653 0.0
N277 N 0.85991 0.47887 0.50496 0.0
N278 N 0.84758 0.48599 0.54309 0.0
C279 C 0.86605 0.4862 0.52965 0.0
C280 C 0.82927 0.47805 0.52629 0.0
C281 C 0.83691 0.47371 0.50296 0.0
O282 O 0.91071 0.48659 0.48407 0.0
C283 C 0.88141 0.4958 0.42387 0.0
O284 O 0.89968 0.49218 0.42024 0.0
H285 H 0.88372 0.49202 0.53736 0.0
H286 H 0.82647 0.4674 0.48548 0.0
N287 N 0.86453 0.44665 0.46827 0.0
N288 N 0.85636 0.41622 0.44561 0.0
C289 C 0.86689 0.43872 0.44511 0.0
C290 C 0.85209 0.42857 0.48406 0.0
C291 C 0.84705 0.40974 0.47014 0.0
C292 C 0.92566 0.50446 0.49458 0.0
O293 O 0.91926 0.5195 0.5009 0.0
H294 H 0.87669 0.44926 0.42843 0.0
H295 H 0.84723 0.42907 0.50433 0.0
O296 O 0.87135 0.49173 0.44646 0.0
H297 H 0.81151 0.47541 0.53058 0.0
H298 H 0.83724 0.39266 0.47749 0.0
Cu299 Cu 0.54063 0.38475 0.46886 0.0
N300 N 0.52485 0.36208 0.44502 0.0
N301 N 0.51646 0.34036 0.41027 0.0
C302 C 0.53351 0.35761 0.42303 0.0
C303 C 0.49646 0.33366 0.42479 0.0
C304 C 0.50173 0.34695 0.4463 0.0
O305 O 0.57097 0.4061 0.45368 0.0
C306 C 0.55528 0.38158 0.52165 0.0
O307 O 0.57049 0.40283 0.51834 0.0
H308 H 0.55173 0.36701 0.41621 0.0
H309 H 0.48951 0.34581 0.46174 0.0
N310 N 0.52344 0.4004 0.47361 0.0
N311 N 0.5144 0.42693 0.48592 0.0
C312 C 0.52989 0.4186 0.48812 0.0
C313 C 0.50323 0.39712 0.4618 0.0
C314 C 0.49758 0.41337 0.4694 0.0
C315 C 0.58825 0.40261 0.44764 0.0
O316 O 0.58731 0.38333 0.45401 0.0
H317 H 0.54606 0.426 0.49931 0.0
H318 H 0.49352 0.38415 0.44813 0.0
O319 O 0.54217 0.37119 0.5026 0.0
H320 H 0.47931 0.31995 0.42031 0.0
H321 H 0.4823 0.41508 0.4631 0.0
Cu322 Cu 0.62586 0.13122 0.46278 0.0
N323 N 0.6537 0.1405 0.44279 0.0
N324 N 0.68312 0.15845 0.41326 0.0
C325 C 0.66264 0.15649 0.42353 0.0
C326 C 0.68703 0.143 0.42655 0.0
C327 C 0.66893 0.13203 0.44468 0.0
O328 O 0.60422 0.13883 0.44346 0.0
C329 C 0.64501 0.1367 0.51287 0.0
O330 O 0.6492 0.12068 0.50477 0.0
H331 H 0.65439 0.16655 0.41734 0.0
H332 H 0.66685 0.11855 0.45807 0.0
N333 N 0.61081 0.10015 0.46641 0.0
N334 N 0.58648 0.06524 0.48063 0.0
C335 C 0.59426 0.08718 0.4845 0.0
C336 C 0.61347 0.08601 0.45047 0.0
C337 C 0.59859 0.0645 0.45923 0.0
C338 C 0.60681 0.15827 0.4382 0.0
O339 O 0.62493 0.17567 0.44786 0.0
H340 H 0.58811 0.09376 0.50013 0.0
H341 H 0.62511 0.09099 0.43336 0.0
O342 O 0.63422 0.14404 0.49756 0.0
H343 H 0.70166 0.13949 0.42313 0.0
H344 H 0.59638 0.04949 0.45003 0.0
Cu345 Cu 0.83984 0.5546 0.7712 0.0
N346 N 0.85731 0.54335 0.78987 0.0
N347 N 0.86825 0.52561 0.82011 0.0
C348 C 0.85229 0.53266 0.81361 0.0
C349 C 0.88395 0.53229 0.7998 0.0
C350 C 0.87719 0.54328 0.78124 0.0
O351 O 0.81147 0.54867 0.79143 0.0
C352 C 0.83305 0.52412 0.73045 0.0
O353 O 0.83343 0.51099 0.74974 0.0
H354 H 0.83689 0.52951 0.82549 0.0
H355 H 0.88587 0.55038 0.76248 0.0
N356 N 0.85811 0.58547 0.76732 0.0
N357 N 0.86941 0.62096 0.75522 0.0
C358 C 0.85167 0.59975 0.75548 0.0
C359 C 0.88063 0.59802 0.77492 0.0
C360 C 0.88768 0.61992 0.76742 0.0
C361 C 0.79506 0.5294 0.79832 0.0
O362 O 0.79585 0.51165 0.78992 0.0
H363 H 0.83449 0.59457 0.74668 0.0
H364 H 0.89124 0.59168 0.78504 0.0
O365 O 0.83387 0.54267 0.73586 0.0
H366 H 0.8992 0.52938 0.79843 0.0
H367 H 0.90487 0.63398 0.77081 0.0
Cu368 Cu 0.50502 0.30531 0.7594 0.0
N369 N 0.51523 0.33107 0.77887 0.0
N370 N 0.53007 0.35564 0.81089 0.0
C371 C 0.52158 0.33409 0.80437 0.0
C372 C 0.52876 0.36642 0.78872 0.0
C373 C 0.5196 0.35126 0.76908 0.0
O374 O 0.51342 0.28442 0.77719 0.0
C375 C 0.50708 0.31967 0.7068 0.0
O376 O 0.4876 0.32006 0.71434 0.0
H377 H 0.52084 0.32097 0.81757 0.0
H378 H 0.51681 0.35479 0.74887 0.0
N379 N 0.47196 0.29028 0.75775 0.0
N380 N 0.43559 0.26368 0.74815 0.0
C381 C 0.45918 0.27074 0.74608 0.0
C382 C 0.45602 0.2959 0.76764 0.0
C383 C 0.43355 0.27954 0.76168 0.0
C384 C 0.53335 0.28856 0.78698 0.0
O385 O 0.5515 0.30857 0.78368 0.0
H386 H 0.46717 0.26206 0.73599 0.0
H387 H 0.46045 0.31079 0.77847 0.0
O388 O 0.51809 0.31367 0.7235 0.0
H389 H 0.53418 0.38408 0.78677 0.0
H390 H 0.41702 0.27921 0.76727 0.0
Cu391 Cu 0.74672 0.20736 0.75635 0.0
N392 N 0.73047 0.20943 0.72661 0.0
N393 N 0.71206 0.20327 0.68787 0.0
C394 C 0.72281 0.19603 0.70583 0.0
C395 C 0.713 0.22185 0.69787 0.0
C396 C 0.72429 0.22555 0.7217 0.0
O397 O 0.76389 0.1908 0.74796 0.0
C398 C 0.72855 0.18941 0.80828 0.0
O399 O 0.74961 0.19109 0.81259 0.0
H400 H 0.72542 0.18152 0.70377 0.0
H401 H 0.72783 0.23911 0.7346 0.0
N402 N 0.76894 0.2363 0.76467 0.0
N403 N 0.79315 0.26584 0.78763 0.0
C404 C 0.77473 0.24495 0.78872 0.0
C405 C 0.784 0.25226 0.74774 0.0
C406 C 0.79892 0.2705 0.7618 0.0
C407 C 0.78339 0.19491 0.75908 0.0
O408 O 0.79085 0.20903 0.77827 0.0
H409 H 0.76586 0.23594 0.80665 0.0
H410 H 0.78454 0.25044 0.72671 0.0
O411 O 0.72386 0.19447 0.78548 0.0
H412 H 0.70578 0.23194 0.6888 0.0
H413 H 0.81351 0.28562 0.75367 0.0
Cu414 Cu 0.48457 0.20287 0.23833 0.0
N415 N 0.49073 0.18431 0.26149 0.0
N416 N 0.50496 0.17195 0.29471 0.0
C417 C 0.50653 0.19004 0.28117 0.0
C418 C 0.48758 0.15422 0.28302 0.0
C419 C 0.47888 0.16189 0.26259 0.0
O420 O 0.49477 0.23142 0.25456 0.0
C421 C 0.48798 0.18675 0.1896 0.0
O422 O 0.46799 0.17017 0.19858 0.0
H423 H 0.51847 0.20708 0.28595 0.0
H424 H 0.46465 0.15183 0.24963 0.0
N425 N 0.45159 0.19125 0.2362 0.0
N426 N 0.41554 0.18579 0.22445 0.0
C427 C 0.4384 0.1935 0.21668 0.0
C428 C 0.43652 0.18182 0.25677 0.0
C429 C 0.41432 0.17847 0.24962 0.0
C430 C 0.51527 0.24594 0.26151 0.0
O431 O 0.53404 0.24387 0.25498 0.0
H432 H 0.44559 0.20158 0.19773 0.0
H433 H 0.44161 0.1785 0.27604 0.0
O434 O 0.49873 0.20375 0.20376 0.0
H435 H 0.48165 0.13692 0.28872 0.0
H436 H 0.39856 0.17158 0.26208 0.0
Cu437 Cu 0.83793 0.27668 0.24482 0.0
N438 N 0.85572 0.30074 0.2661 0.0
N439 N 0.86571 0.32637 0.29694 0.0
C440 C 0.84893 0.3065 0.28847 0.0
C441 C 0.88375 0.33318 0.27923 0.0
C442 C 0.87748 0.31746 0.26024 0.0
O443 O 0.80883 0.25629 0.26318 0.0
C444 C 0.83712 0.28449 0.18929 0.0
O445 O 0.84352 0.26884 0.18736 0.0
H446 H 0.83166 0.29679 0.29768 0.0
H447 H 0.88777 0.31845 0.24286 0.0
N448 N 0.85468 0.26073 0.2389 0.0
N449 N 0.86228 0.23291 0.22849 0.0
C450 C 0.84558 0.23972 0.2304 0.0
C451 C 0.87787 0.26732 0.24275 0.0
C452 C 0.88261 0.25022 0.23635 0.0
C453 C 0.79243 0.26059 0.27057 0.0
O454 O 0.7938 0.28006 0.26425 0.0
H455 H 0.82704 0.22965 0.22582 0.0
H456 H 0.89049 0.2834 0.24976 0.0
O457 O 0.8326 0.28923 0.21195 0.0
H458 H 0.90022 0.3486 0.27964 0.0
H459 H 0.89977 0.25065 0.23703 0.0
Cu460 Cu 0.75545 0.53041 0.25587 0.0
N461 N 0.72813 0.52184 0.27634 0.0
N462 N 0.70065 0.50584 0.30817 0.0
C463 C 0.71958 0.50614 0.29592 0.0
C464 C 0.69712 0.52184 0.29573 0.0
C465 C 0.71406 0.53162 0.27605 0.0
O466 O 0.77396 0.51772 0.27315 0.0
C467 C 0.73006 0.50203 0.21415 0.0
O468 O 0.72127 0.48651 0.23297 0.0
H469 H 0.72756 0.49571 0.30164 0.0
H470 H 0.71636 0.5453 0.26285 0.0
N471 N 0.77266 0.56148 0.25627 0.0
N472 N 0.79753 0.5971 0.24514 0.0
C473 C 0.78773 0.57564 0.23775 0.0
C474 C 0.77277 0.5743 0.27596 0.0
C475 C 0.788 0.59622 0.26917 0.0
C476 C 0.79658 0.52737 0.27299 0.0
O477 O 0.80831 0.54512 0.25758 0.0
H478 H 0.79183 0.57017 0.21959 0.0
H479 H 0.76255 0.56808 0.29407 0.0
O480 O 0.74595 0.5215 0.21977 0.0
H481 H 0.68332 0.52618 0.30059 0.0
H482 H 0.79159 0.61037 0.28107 0.0
Cu483 Cu 0.56361 0.15023 0.97203 0.0
N484 N 0.5452 0.15803 0.94981 0.0
N485 N 0.53509 0.17563 0.91848 0.0
C486 C 0.55295 0.17577 0.93289 0.0
C487 C 0.51538 0.15717 0.92678 0.0
C488 C 0.52166 0.1464 0.94616 0.0
O489 O 0.59529 0.16372 0.95592 0.0
C490 C 0.54248 0.14934 1.0203 0.0
O491 O 0.52535 0.13174 1.00968 0.0
H492 H 0.5714 0.18817 0.93067 0.0
H493 H 0.50997 0.13095 0.95654 0.0
N494 N 0.55102 0.11911 0.97232 0.0
N495 N 0.54055 0.08371 0.98471 0.0
C496 C 0.55136 0.10531 0.99176 0.0
C497 C 0.53975 0.10592 0.9523 0.0
C498 C 0.5332 0.08417 0.95985 0.0
C499 C 0.60839 0.1542 0.95592 0.0
O500 O 0.60211 0.13598 0.97053 0.0
H501 H 0.55966 0.11115 1.0105 0.0
H502 H 0.53648 0.11175 0.93348 0.0
O503 O 0.56187 0.16035 1.00734 0.0
H504 H 0.49767 0.15186 0.91941 0.0
H505 H 0.5235 0.06986 0.94787 0.0
Cu506 Cu 0.90428 0.41003 0.98738 0.0
N507 N 0.90063 0.38646 0.96677 0.0
N508 N 0.88663 0.36037 0.93641 0.0
C509 C 0.88476 0.3773 0.94756 0.0
C510 C 0.90441 0.35889 0.94926 0.0
C511 C 0.91298 0.37499 0.96798 0.0
O512 O 0.88616 0.42306 0.9707 0.0
C513 C 0.87235 0.38755 1.03035 0.0
O514 O 0.85565 0.38626 1.01429 0.0
H515 H 0.8719 0.38282 0.94219 0.0
H516 H 0.92728 0.3782 0.98146 0.0
N517 N 0.93632 0.43114 0.98734 0.0
N518 N 0.97076 0.46018 0.99781 0.0
C519 C 0.94756 0.44763 1.00432 0.0
C520 C 0.95293 0.43331 0.96955 0.0
C521 C 0.97419 0.45115 0.97597 0.0
C522 C 0.88917 0.44264 0.97441 0.0
O523 O 0.9034 0.4544 0.99306 0.0
H524 H 0.93888 0.45033 1.02109 0.0
H525 H 0.94969 0.42282 0.95283 0.0
O526 O 0.89396 0.39808 1.02282 0.0
H527 H 0.91105 0.34725 0.94523 0.0
H528 H 0.99073 0.45735 0.965 0.0
Cu529 Cu 0.62583 0.48278 0.99478 0.0
N530 N 0.65219 0.50264 0.97458 0.0
N531 N 0.68057 0.51613 0.94327 0.0
C532 C 0.66298 0.49762 0.95501 0.0
C533 C 0.68086 0.53339 0.95606 0.0
C534 C 0.66339 0.52502 0.97537 0.0
O535 O 0.61317 0.4545 0.97705 0.0
C536 C 0.64977 0.47348 0.03681 0.0
O537 O 0.65534 0.46325 1.0187 0.0
H538 H 0.65758 0.48078 0.94903 0.0
H539 H 0.65886 0.53456 0.98878 0.0
N540 N 0.60338 0.4933 0.99394 0.0
N541 N 0.57295 0.50001 1.00316 0.0
C542 C 0.58615 0.49022 1.01156 0.0
C543 C 0.60108 0.50546 0.9739 0.0
C544 C 0.58252 0.50968 0.9795 0.0
C545 C 0.59117 0.44087 0.97527 0.0
O546 O 0.57568 0.44402 0.9891 0.0
H547 H 0.5831 0.48062 1.02982 0.0
H548 H 0.61217 0.51083 0.95632 0.0
O549 O 0.63633 0.48202 1.03075 0.0
H550 H 0.69287 0.55084 0.95182 0.0
H551 H 0.57677 0.51938 0.96708 0.0
Cu552 Cu 0.54311 0.80856 0.8143 0.0
N553 N 0.52358 0.80794 0.84221 0.0
N554 N 0.5113 0.81494 0.88044 0.0
C555 C 0.53 0.82022 0.86398 0.0
C556 C 0.49246 0.79879 0.86843 0.0
C557 C 0.50007 0.79457 0.84492 0.0
O558 O 0.5759 0.82362 0.82567 0.0
C559 C 0.5175 0.81054 0.77073 0.0
O560 O 0.50341 0.79014 0.77958 0.0
H561 H 0.5481 0.83244 0.86788 0.0
H562 H 0.48922 0.78241 0.83087 0.0
N563 N 0.53614 0.77942 0.8066 0.0
N564 N 0.53246 0.75032 0.78396 0.0
C565 C 0.54157 0.77271 0.78411 0.0
C566 C 0.5234 0.7607 0.8213 0.0
C567 C 0.521 0.74269 0.80731 0.0
C568 C 0.59382 0.82826 0.81085 0.0
O569 O 0.59074 0.82478 0.78552 0.0
H570 H 0.55118 0.78395 0.76777 0.0
H571 H 0.516 0.76014 0.84061 0.0
O572 O 0.53659 0.82226 0.78306 0.0
H573 H 0.47439 0.79071 0.87599 0.0
H574 H 0.51149 0.72533 0.81376 0.0
Cu575 Cu 0.20252 0.71418 0.80247 0.0
N576 N 0.18599 0.68816 0.78361 0.0
N577 N 0.17504 0.66262 0.75258 0.0
C578 C 0.18867 0.6843 0.75823 0.0
C579 C 0.16314 0.65265 0.77515 0.0
C580 C 0.1699 0.6684 0.79415 0.0
O581 O 0.23254 0.73397 0.78526 0.0
C582 C 0.19048 0.70094 0.85552 0.0
O583 O 0.17102 0.70163 0.84851 0.0
H584 H 0.20108 0.69687 0.74453 0.0
H585 H 0.16396 0.66554 0.8145 0.0
N586 N 0.18535 0.73009 0.8036 0.0
N587 N 0.17617 0.75715 0.81264 0.0
C588 C 0.19313 0.75058 0.81318 0.0
C589 C 0.16275 0.72347 0.79656 0.0
C590 C 0.157 0.74011 0.80222 0.0
C591 C 0.2465 0.72812 0.77415 0.0
O592 O 0.2416 0.70705 0.77511 0.0
H593 H 0.21067 0.76016 0.82114 0.0
H594 H 0.15119 0.70752 0.78834 0.0
O595 O 0.20695 0.70587 0.83841 0.0
H596 H 0.15062 0.63513 0.77783 0.0
H597 H 0.14004 0.7397 0.79892 0.0
Cu598 Cu 0.29105 0.46748 0.79765 0.0
N599 N 0.32018 0.47603 0.78093 0.0
N600 N 0.35047 0.492 0.75214 0.0
C601 C 0.32765 0.48676 0.75735 0.0
C602 C 0.35751 0.48416 0.77323 0.0
C603 C 0.33878 0.47431 0.79092 0.0
O604 O 0.27528 0.48141 0.77756 0.0
C605 C 0.30581 0.49607 0.84141 0.0
O606 O 0.30864 0.51174 0.82385 0.0
H607 H 0.31683 0.49133 0.74475 0.0
H608 H 0.33882 0.46682 0.81 0.0
N609 N 0.27285 0.43656 0.7966 0.0
N610 N 0.24678 0.40125 0.80754 0.0
C611 C 0.25727 0.4227 0.81495 0.0
C612 C 0.27227 0.42353 0.77692 0.0
C613 C 0.25625 0.40176 0.7836 0.0
C614 C 0.25301 0.47473 0.77812 0.0
O615 O 0.23962 0.45903 0.79537 0.0
H616 H 0.25383 0.42831 0.83339 0.0
H617 H 0.28264 0.42953 0.75887 0.0
O618 O 0.29737 0.47602 0.83423 0.0
H619 H 0.375 0.48556 0.77577 0.0
H620 H 0.25161 0.38751 0.77147 0.0
Cu621 Cu 0.49478 0.8822 0.10762 0.0
N622 N 0.51639 0.87688 0.12734 0.0
N623 N 0.53044 0.86198 0.15791 0.0
C624 C 0.51118 0.8596 0.14442 0.0
C625 C 0.54844 0.88149 0.14884 0.0
C626 C 0.53971 0.89064 0.13004 0.0
O627 O 0.46492 0.86725 0.12713 0.0
C628 C 0.51166 0.87793 0.05823 0.0
O629 O 0.53191 0.89255 0.06797 0.0
H630 H 0.4934 0.84608 0.14772 0.0
H631 H 0.54948 0.90656 0.11966 0.0
N632 N 0.50462 0.9128 0.10683 0.0
N633 N 0.51331 0.94758 0.09401 0.0
C634 C 0.50741 0.92679 0.08616 0.0
C635 C 0.50902 0.92515 0.12831 0.0
C636 C 0.51435 0.94656 0.12051 0.0
C637 C 0.44897 0.87348 0.12648 0.0
O638 O 0.4511 0.88927 0.10947 0.0
H639 H 0.50449 0.92168 0.06594 0.0
H640 H 0.50804 0.91884 0.14832 0.0
O641 O 0.4928 0.87121 0.07218 0.0
H642 H 0.56657 0.88878 0.15552 0.0
H643 H 0.51869 0.96034 0.13336 0.0
Cu644 Cu 0.16292 0.64067 0.09412 0.0
N645 N 0.17134 0.66472 0.11603 0.0
N646 N 0.18568 0.6881 0.14916 0.0
C647 C 0.17925 0.66731 0.14097 0.0
C648 C 0.18148 0.69883 0.12871 0.0
C649 C 0.17262 0.68436 0.10837 0.0
O650 O 0.1713 0.61911 0.10982 0.0
C651 C 0.17951 0.64149 0.04121 0.0
O652 O 0.17295 0.6202 0.04525 0.0
H653 H 0.18112 0.65457 0.15247 0.0
H654 H 0.16796 0.68803 0.08905 0.0
N655 N 0.13012 0.62584 0.09006 0.0
N656 N 0.0943 0.59957 0.0784 0.0
C657 C 0.118 0.60746 0.07605 0.0
C658 C 0.11361 0.6298 0.1017 0.0
C659 C 0.09145 0.61359 0.09456 0.0
C660 C 0.19174 0.62247 0.11707 0.0
O661 O 0.21019 0.64211 0.11259 0.0
H662 H 0.12641 0.59959 0.06511 0.0
H663 H 0.11742 0.64327 0.11485 0.0
O664 O 0.17748 0.65262 0.05983 0.0
H665 H 0.18479 0.71598 0.12841 0.0
H666 H 0.07459 0.61219 0.10084 0.0
Cu667 Cu 0.41415 0.54331 0.08665 0.0
N668 N 0.39886 0.5481 0.05748 0.0
N669 N 0.38114 0.54528 1.01869 0.0
C670 C 0.38845 0.53497 0.03692 0.0
C671 C 0.38705 0.5655 1.02827 0.0
C672 C 0.39789 0.56716 0.05209 0.0
O673 O 0.42964 0.52573 0.07638 0.0
C674 C 0.38237 0.54118 0.12601 0.0
O675 O 0.38785 0.56092 0.11544 0.0
H676 H 0.387 0.51856 0.03494 0.0
H677 H 0.40506 0.58149 0.06444 0.0
N678 N 0.43825 0.57104 0.09641 0.0
N679 N 0.46323 0.59947 0.12047 0.0
C680 C 0.44382 0.57916 0.12075 0.0
C681 C 0.45465 0.5866 0.08017 0.0
C682 C 0.47003 0.60413 0.09487 0.0
C683 C 0.44669 0.52613 0.08986 0.0
O684 O 0.4518 0.53643 0.11227 0.0
H685 H 0.43386 0.57021 0.13824 0.0
H686 H 0.45558 0.58507 0.05912 0.0
O687 O 0.39168 0.52997 0.11622 0.0
H688 H 0.38384 0.57825 1.01866 0.0
H689 H 0.48542 0.61884 0.08725 0.0
Cu690 Cu 0.14873 0.53268 0.57087 0.0
N691 N 0.15706 0.5134 0.58976 0.0
N692 N 0.17263 0.50007 0.62049 0.0
C693 C 0.16682 0.51629 0.61383 0.0
C694 C 0.16612 0.48644 0.5999 0.0
C695 C 0.1565 0.49467 0.58103 0.0
O696 O 0.16152 0.55991 0.59073 0.0
C697 C 0.15233 0.52231 0.51811 0.0
O698 O 0.13096 0.50597 0.5234 0.0
H699 H 0.17046 0.53046 0.62574 0.0
H700 H 0.15007 0.48779 0.56199 0.0
N701 N 0.11545 0.51968 0.57014 0.0
N702 N 0.07789 0.51113 0.5605 0.0
C703 C 0.10115 0.52463 0.55473 0.0
C704 C 0.10075 0.50264 0.58614 0.0
C705 C 0.07769 0.49732 0.58026 0.0
C706 C 0.15311 0.57358 0.59132 0.0
O707 O 0.13587 0.57106 0.5754 0.0
H708 H 0.10765 0.53762 0.53943 0.0
H709 H 0.10647 0.49467 0.60116 0.0
O710 O 0.16289 0.53667 0.53558 0.0
H711 H 0.16836 0.47166 0.59847 0.0
H712 H 0.06198 0.48447 0.59013 0.0
Cu713 Cu 0.50443 0.61069 0.58224 0.0
N714 N 0.52446 0.63566 0.60105 0.0
N715 N 0.53677 0.66191 0.63121 0.0
C716 C 0.5191 0.64218 0.62374 0.0
C717 C 0.55393 0.66798 0.61257 0.0
C718 C 0.54632 0.65172 0.59405 0.0
O719 O 0.47498 0.59579 0.60254 0.0
C720 C 0.5183 0.62776 0.53101 0.0
O721 O 0.53669 0.62505 0.53773 0.0
H722 H 0.50224 0.63303 0.63405 0.0
H723 H 0.55593 0.65185 0.57649 0.0
N724 N 0.51795 0.59158 0.58033 0.0
N725 N 0.5255 0.56393 0.56894 0.0
C726 C 0.51226 0.57441 0.56425 0.0
C727 C 0.53534 0.59201 0.59564 0.0
C728 C 0.54006 0.57503 0.58867 0.0
C729 C 0.45867 0.57599 0.59935 0.0
O730 O 0.46006 0.56487 0.57931 0.0
H731 H 0.4988 0.56984 0.54935 0.0
H732 H 0.5438 0.60373 0.61103 0.0
O733 O 0.50092 0.62132 0.54723 0.0
H734 H 0.57073 0.68312 0.6123 0.0
H735 H 0.55284 0.57089 0.59788 0.0
Cu736 Cu 0.41586 0.86625 0.59013 0.0
N737 N 0.38769 0.85608 0.60947 0.0
N738 N 0.35846 0.83738 0.63892 0.0
C739 C 0.38066 0.84233 0.63096 0.0
C740 C 0.35138 0.84851 0.62163 0.0
C741 C 0.36941 0.85995 0.60351 0.0
O742 O 0.43663 0.85691 0.60888 0.0
C743 C 0.39166 0.83539 0.55019 0.0
O744 O 0.38282 0.8208 0.56996 0.0
H745 H 0.3916 0.836 0.64038 0.0
H746 H 0.36908 0.87005 0.58681 0.0
N747 N 0.43057 0.89735 0.58743 0.0
N748 N 0.45575 0.93257 0.57518 0.0
C749 C 0.44957 0.91081 0.57234 0.0
C750 C 0.42444 0.91099 0.60021 0.0
C751 C 0.43994 0.93271 0.59274 0.0
C752 C 0.44574 0.86678 0.63012 0.0
O753 O 0.44108 0.88268 0.63759 0.0
H754 H 0.45882 0.9047 0.55982 0.0
H755 H 0.40974 0.90551 0.61405 0.0
O756 O 0.40739 0.85521 0.55469 0.0
H757 H 0.33414 0.84792 0.62151 0.0
H758 H 0.43936 0.94741 0.59946 0.0
Cu759 Cu 0.21988 0.4827 0.30072 0.0
N760 N 0.20288 0.49015 0.27606 0.0
N761 N 0.19432 0.50745 0.24304 0.0
C762 C 0.21174 0.50615 0.25684 0.0
C763 C 0.17379 0.49185 0.25412 0.0
C764 C 0.17913 0.48137 0.27464 0.0
O765 O 0.25175 0.49336 0.28552 0.0
C766 C 0.22565 0.49562 0.35585 0.0
O767 O 0.23939 0.48618 0.35892 0.0
H768 H 0.23053 0.51668 0.25315 0.0
H769 H 0.16659 0.46847 0.28791 0.0
N770 N 0.20509 0.4515 0.30534 0.0
N771 N 0.19647 0.41683 0.31894 0.0
C772 C 0.21002 0.4389 0.32275 0.0
C773 C 0.18791 0.43687 0.29009 0.0
C774 C 0.18253 0.41559 0.29843 0.0
C775 C 0.25307 0.48303 0.26551 0.0
O776 O 0.23368 0.46579 0.25778 0.0
H777 H 0.22375 0.44576 0.33733 0.0
H778 H 0.18023 0.4413 0.27348 0.0
O779 O 0.21743 0.49631 0.33319 0.0
H780 H 0.15621 0.48877 0.24833 0.0
H781 H 0.16935 0.40039 0.28995 0.0
Cu782 Cu 0.57431 0.74369 0.32211 0.0
N783 N 0.56799 0.71882 0.30231 0.0
N784 N 0.55263 0.69199 0.2728 0.0
C785 C 0.55405 0.71133 0.28111 0.0
C786 C 0.56634 0.68733 0.28947 0.0
C787 C 0.57565 0.7038 0.30763 0.0
O788 O 0.56472 0.76326 0.30302 0.0
C789 C 0.5404 0.71544 0.36076 0.0
O790 O 0.52797 0.70485 0.34039 0.0
H791 H 0.5447 0.71962 0.27245 0.0
H792 H 0.58706 0.7047 0.32381 0.0
N793 N 0.60706 0.76033 0.32641 0.0
N794 N 0.64229 0.78812 0.33739 0.0
C795 C 0.61844 0.7792 0.33988 0.0
C796 C 0.62424 0.75717 0.31505 0.0
C797 C 0.64596 0.77423 0.32181 0.0
C798 C 0.54394 0.75908 0.29603 0.0
O799 O 0.52572 0.74006 0.30343 0.0
H800 H 0.60936 0.78663 0.35048 0.0
H801 H 0.62121 0.7437 0.30224 0.0
O802 O 0.55981 0.73334 0.35689 0.0
H803 H 0.56956 0.67308 0.2887 0.0
H804 H 0.66311 0.77629 0.31558 0.0
Cu805 Cu 0.28634 0.8131 0.33287 0.0
N806 N 0.31468 0.83199 0.31523 0.0
N807 N 0.34394 0.84545 0.28503 0.0
C808 C 0.32138 0.82994 0.29074 0.0
C809 C 0.35161 0.85775 0.30673 0.0
C810 C 0.33351 0.84943 0.32529 0.0
O811 O 0.27293 0.7853 0.31432 0.0
C812 C 0.30783 0.80215 0.37545 0.0
O813 O 0.31434 0.79287 0.35705 0.0
H814 H 0.31026 0.81681 0.2778 0.0
H815 H 0.33418 0.85529 0.34498 0.0
N816 N 0.26598 0.82584 0.33034 0.0
N817 N 0.23738 0.8354 0.33767 0.0
C818 C 0.24814 0.82346 0.3466 0.0
C819 C 0.26643 0.83959 0.31053 0.0
C820 C 0.24892 0.84553 0.31498 0.0
C821 C 0.25088 0.77174 0.31315 0.0
O822 O 0.2358 0.77483 0.32783 0.0
H823 H 0.2433 0.81335 0.36465 0.0
H824 H 0.27863 0.84482 0.29389 0.0
O825 O 0.29431 0.8106 0.3694 0.0
H826 H 0.36911 0.87167 0.30909 0.0
H827 H 0.24476 0.85621 0.3022 0.0
H828 H 0.19648 0.04407 0.10808 0.0
H829 H 0.19962 0.09601 0.05454 0.0
H830 H 0.19237 0.02073 0.07093 0.0
H831 H 0.19455 0.07234 1.01751 0.0
H832 H 0.21908 0.03745 0.95832 0.0
H833 H 0.219 0.05933 0.99522 0.0
H834 H 0.16667 0.99952 0.03564 0.0
H835 H 0.16743 0.97742 0.999 0.0
C836 C 0.19606 0.05044 0.08843 0.0
C837 C 0.19863 0.07204 0.08437 0.0
C838 C 0.19345 0.03695 0.06712 0.0
C839 C 0.19333 0.04472 0.04119 0.0
C840 C 0.19495 0.06597 0.03719 0.0
C841 C 0.19756 0.07946 0.0585 0.0
C842 C 0.20769 0.02888 0.97512 0.0
C843 C 0.1934 1.0056 0.97569 0.0
C844 C 0.20739 0.0415 0.99617 0.0
C845 C 0.19276 0.03122 1.01839 0.0
C846 C 0.17828 1.00796 1.01892 0.0
C847 C 0.17856 0.9953 0.9978 0.0
H848 H 0.9583 0.06808 0.09899 0.0
H849 H 0.9179 0.10434 0.09732 0.0
H850 H 0.98738 0.09588 0.06836 0.0
H851 H 0.94617 0.13141 0.06615 0.0
H852 H 1.00879 0.18705 1.02538 0.0
H853 H 0.98459 0.16105 0.06042 0.0
H854 H 0.9918 0.10801 1.02338 0.0
H855 H 1.01677 0.13441 0.98887 0.0
C856 C 0.95565 0.08199 0.09216 0.0
C857 C 0.93577 0.08396 0.10064 0.0
C858 C 0.97222 0.09785 0.07443 0.0
C859 C 0.96919 0.11596 0.06467 0.0
C860 C 0.94944 0.11801 0.07354 0.0
C861 C 0.93307 0.10232 0.09136 0.0
C862 C 1.00521 0.16984 1.02482 0.0
C863 C 1.01447 0.1627 1.0043 0.0
C864 C 0.99128 0.15488 0.04485 0.0
C865 C 0.98592 0.13229 0.04466 0.0
C866 C 0.99574 0.1253 1.02443 0.0
C867 C 1.00998 0.14039 1.00456 0.0
H868 H 0.82545 0.80689 0.99403 0.0
H869 H 0.88026 0.87415 0.97767 0.0
H870 H 0.84769 0.80368 1.03138 0.0
H871 H 0.90316 0.87083 1.01447 0.0
H872 H 0.93262 0.86338 0.0937 0.0
H873 H 0.90733 0.86799 0.06058 0.0
H874 H 0.88131 0.79936 0.03939 0.0
H875 H 0.90563 0.79459 0.07297 0.0
C876 C 0.84236 0.82096 0.99839 0.0
C877 C 0.85119 0.84069 0.9828 0.0
C878 C 0.85521 0.81913 1.01976 0.0
C879 C 0.87749 0.83688 1.02588 0.0
C880 C 0.886 0.85688 1.01065 0.0
C881 C 0.87293 0.8588 0.98946 0.0
C882 C 0.92129 0.84924 0.08212 0.0
C883 C 0.92113 0.8286 0.0861 0.0
C884 C 0.9069 0.85192 0.06296 0.0
C885 C 0.89215 0.83406 0.04718 0.0
C886 C 0.89196 0.81341 0.05142 0.0
C887 C 0.90611 0.81069 0.07066 0.0
H888 H 0.99909 0.17111 0.55474 0.0
H889 H 0.06215 0.21267 0.59762 0.0
H890 H 0.0238 0.17396 0.51619 0.0
H891 H 0.08672 0.2153 0.55948 0.0
H892 H 0.12259 0.19309 0.49788 0.0
H893 H 0.09496 0.18662 0.53422 0.0
H894 H 0.05381 0.2073 0.48406 0.0
H895 H 0.08174 0.21418 0.44749 0.0
C896 C 1.0182 0.18074 0.55591 0.0
C897 C 0.02873 0.19174 0.57909 0.0
C898 C 0.03228 0.18246 0.53389 0.0
C899 C 0.05714 0.19478 0.53494 0.0
C900 C 0.06761 0.20557 0.55821 0.0
C901 C 0.05356 0.20422 0.57995 0.0
C902 C 0.10752 0.19603 0.4944 0.0
C903 C 0.10448 0.20431 0.46978 0.0
C904 C 0.09177 0.1924 0.51529 0.0
C905 C 0.07238 0.19662 0.51198 0.0
C906 C 0.0686 0.20386 0.48708 0.0
C907 C 0.08462 0.20786 0.46621 0.0
H908 H 0.90167 0.95446 0.47344 0.0
H909 H 0.82509 0.91721 0.47535 0.0
H910 H 0.90359 0.9266 0.50349 0.0
H911 H 0.82694 0.89005 0.50588 0.0
H912 H 0.83541 0.83414 0.54382 0.0
H913 H 0.83664 0.86073 0.5099 0.0
H914 H 0.89595 0.91353 0.54843 0.0
H915 H 0.89505 0.88658 0.58191 0.0
C916 C 0.88527 0.94035 0.48022 0.0
C917 C 0.86324 0.93807 0.47193 0.0
C918 C 0.88635 0.92444 0.4976 0.0
C919 C 0.86543 0.90599 0.50716 0.0
C920 C 0.84346 0.90372 0.4986 0.0
C921 C 0.84239 0.91946 0.48115 0.0
C922 C 0.84871 0.85143 0.54499 0.0
C923 C 0.86498 0.85832 0.56564 0.0
C924 C 0.84941 0.86672 0.52558 0.0
C925 C 0.8662 0.88941 0.52652 0.0
C926 C 0.88293 0.89619 0.54685 0.0
C927 C 0.88239 0.88078 0.56611 0.0
H928 H 0.14149 0.98703 0.4584 0.0
H929 H 0.13977 0.92814 0.49523 0.0
H930 H 0.16529 1.00923 0.49437 0.0
H931 H 0.1626 0.95011 0.53167 0.0
H932 H 0.22407 0.99933 0.57942 0.0
H933 H 0.20199 0.97842 0.54181 0.0
H934 H 0.16188 0.01496 0.54058 0.0
H935 H 0.1841 0.03595 0.57807 0.0
C936 C 0.14617 0.97878 0.4741 0.0
C937 C 0.13865 0.95573 0.4738 0.0
C938 C 0.15961 0.9915 0.49491 0.0
C939 C 0.16589 0.98148 0.51594 0.0
C940 C 0.15836 0.95844 0.51564 0.0
C941 C 0.14495 0.94575 0.49485 0.0
C942 C 0.2105 1.00286 0.57117 0.0
C943 C 0.20583 0.01928 0.58184 0.0
C944 C 0.1978 0.99085 0.54962 0.0
C945 C 0.18004 0.9949 0.53823 0.0
C946 C 0.17564 0.01159 0.54863 0.0
C947 C 0.1884 0.02365 0.57014 0.0
H948 H 0.80952 0.97048 0.05751 0.0
H949 H 0.88564 0.01163 0.05608 0.0
H950 H 0.81224 0.95273 1.01792 0.0
H951 H 0.88828 0.99451 1.0155 0.0
H952 H 0.88383 0.93596 0.96554 0.0
H953 H 0.8844 0.95955 1.0011 0.0
H954 H 0.81989 0.95767 0.9719 0.0
H955 H 0.81895 0.93355 0.93695 0.0
C956 C 0.82687 0.97588 0.04869 0.0
C957 C 0.84736 0.99239 0.06029 0.0
C958 C 0.82841 0.96588 1.02565 0.0
C959 C 0.8505 0.97217 1.01334 0.0
C960 C 0.87099 0.98908 1.02455 0.0
C961 C 0.86944 0.99908 0.04771 0.0
C962 C 0.87001 0.94093 0.96643 0.0
C963 C 0.85121 0.93266 0.94855 0.0
C964 C 0.87035 0.95452 0.98683 0.0
C965 C 0.85197 0.96028 0.9897 0.0
C966 C 0.83401 0.95313 0.97076 0.0
C967 C 0.83357 0.93942 0.95055 0.0
H968 H 0.06021 0.83985 0.06735 0.0
H969 H 0.99966 0.84683 0.0406 0.0
H970 H 0.08363 0.86323 1.03035 0.0
H971 H 0.02343 0.87063 1.00355 0.0
H972 H 0.08561 0.93219 0.95871 0.0
H973 H 0.05879 0.90798 0.99374 0.0
H974 H 0.08454 0.86031 0.98215 0.0
H975 H 0.11135 0.88439 0.9475 0.0
C976 C 0.05178 0.8462 0.05351 0.0
C977 C 0.0279 0.84118 0.05692 0.0
C978 C 0.06527 0.85966 1.03225 0.0
C979 C 0.05531 0.86857 1.01383 0.0
C980 C 0.03162 0.86407 1.01748 0.0
C981 C 1.01803 0.85046 0.03877 0.0
C982 C 0.08532 0.91641 0.96342 0.0
C983 C 0.10082 0.91035 0.95045 0.0
C984 C 0.06992 0.90253 0.98345 0.0
C985 C 0.06981 0.8824 0.99096 0.0
C986 C 0.08455 0.87594 0.97719 0.0
C987 C 0.09984 0.88971 0.95719 0.0
H988 H 0.10624 0.19308 1.0189 0.0
H989 H 0.14195 0.18853 0.94907 0.0
H990 H 0.13156 0.1837 0.04623 0.0
H991 H 0.1686 0.18027 0.97664 0.0
H992 H 0.19825 0.14606 0.03471 0.0
H993 H 0.17367 0.15492 1.00487 0.0
H994 H 0.16933 0.19848 0.06255 0.0
H995 H 0.19265 0.18852 0.09274 0.0
C996 C 0.11973 0.19023 1.00938 0.0
C997 C 0.1222 0.19168 0.98184 0.0
C998 C 0.13451 0.18506 1.02512 0.0
C999 C 0.15266 0.18167 1.01387 0.0
C1000 C 0.15481 0.18264 0.98614 0.0
C1001 C 0.13959 0.18741 0.97027 0.0
C1002 C 0.19215 0.15766 0.04088 0.0
C1003 C 0.19724 0.16646 0.06618 0.0
C1004 C 0.17809 0.16282 1.0237 0.0
C1005 C 0.16906 0.1772 1.03126 0.0
C1006 C 0.1752 0.18678 0.05619 0.0
C1007 C 0.18882 0.18126 0.0735 0.0
H1008 H 0.96477 0.85741 0.60493 0.0
H1009 H 0.92934 0.79737 0.56085 0.0
H1010 H 0.99823 0.87159 0.5736 0.0
H1011 H 0.96235 0.81157 0.52957 0.0
H1012 H 0.03201 0.83721 0.48442 0.0
H1013 H 1.00409 0.82202 0.52181 0.0
H1014 H 1.00386 0.88519 0.52782 0.0
H1015 H 0.03172 0.90032 0.49102 0.0
C1016 C 0.96424 0.84713 0.5888 0.0
C1017 C 0.94428 0.82635 0.5853 0.0
C1018 C 0.98333 0.85529 0.57074 0.0
C1019 C 0.98294 0.84278 0.54892 0.0
C1020 C 0.96343 0.82158 0.54621 0.0
C1021 C 0.94436 0.81351 0.5641 0.0
C1022 C 0.02613 0.84787 0.4939 0.0
C1023 C 0.03397 0.86992 0.48454 0.0
C1024 C 1.01009 0.83917 0.51527 0.0
C1025 C 1.0017 0.85238 0.52787 0.0
C1026 C 1.01014 0.8746 0.51892 0.0
C1027 C 0.02599 0.88322 0.49756 0.0
H1028 H 0.16884 0.17406 0.51858 0.0
H1029 H 0.23729 0.18355 0.49166 0.0
H1030 H 0.16993 0.15096 0.55563 0.0
H1031 H 0.23843 0.16068 0.52879 0.0
H1032 H 0.24456 0.13793 0.61162 0.0
H1033 H 0.242 0.16209 0.57683 0.0
H1034 H 0.16863 0.11447 0.56493 0.0
H1035 H 0.17105 0.09031 0.60004 0.0
C1036 C 0.18404 0.17112 0.52036 0.0
C1037 C 0.20301 0.18078 0.50203 0.0
C1038 C 0.18467 0.1579 0.54169 0.0
C1039 C 0.20433 0.15409 0.54527 0.0
C1040 C 0.22322 0.16364 0.5269 0.0
C1041 C 0.22256 0.17677 0.50556 0.0
C1042 C 0.22778 0.13267 0.60181 0.0
C1043 C 0.20804 0.1121 0.60856 0.0
C1044 C 0.22638 0.14647 0.58171 0.0
C1045 C 0.2052 0.14009 0.56789 0.0
C1046 C 0.18518 0.11992 0.57528 0.0
C1047 C 0.18659 0.10605 0.59537 0.0
H1048 H 0.9527 0.10902 0.59756 0.0
H1049 H 0.88384 0.07749 0.63623 0.0
H1050 H 0.93614 0.08501 0.56021 0.0
H1051 H 0.86735 0.05339 0.59874 0.0
H1052 H 0.85057 1.00382 0.5309 0.0
H1053 H 0.86938 0.0229 0.57138 0.0
H1054 H 0.90696 0.0848 0.52637 0.0
H1055 H 0.88824 0.06584 0.4863 0.0
C1056 C 0.93414 0.09669 0.59837 0.0
C1057 C 0.91956 0.09535 0.61985 0.0
C1058 C 0.92464 0.08301 0.57687 0.0
C1059 C 0.90039 0.06749 0.57642 0.0
C1060 C 0.88611 0.06514 0.59856 0.0
C1061 C 0.89556 0.07901 0.62 0.0
C1062 C 0.86301 0.02145 0.52975 0.0
C1063 C 0.86782 0.03338 0.5055 0.0
C1064 C 0.87367 0.03237 0.55287 0.0
C1065 C 0.88971 0.05533 0.55203 0.0
C1066 C 0.89488 0.06707 0.52764 0.0
C1067 C 0.88397 0.05626 0.50473 0.0
H1068 H 0.83744 0.30976 0.34069 0.0
H1069 H 0.88995 0.37112 0.30312 0.0
H1070 H 0.83372 0.33086 0.37683 0.0
H1071 H 0.88698 0.39193 0.33958 0.0
H1072 H 0.85817 0.42565 0.39327 0.0
H1073 H 0.85962 0.40322 0.35759 0.0
H1074 H 0.85531 0.35266 0.41415 0.0
H1075 H 0.8537 0.37515 0.44993 0.0
C1076 C 0.84821 0.3277 0.34009 0.0
C1077 C 0.86398 0.33866 0.31886 0.0
C1078 C 0.84625 0.33978 0.36097 0.0
C1079 C 0.85997 0.36312 0.36108 0.0
C1080 C 0.87587 0.37402 0.33998 0.0
C1081 C 0.87782 0.36198 0.31917 0.0
C1082 C 0.85765 0.40981 0.39814 0.0
C1083 C 0.85603 0.40231 0.4245 0.0
C1084 C 0.85849 0.39693 0.37766 0.0
C1085 C 0.85782 0.37621 0.38297 0.0
C1086 C 0.85565 0.36844 0.40932 0.0
C1087 C 0.85473 0.38134 0.42985 0.0
H1088 H 0.59085 0.44039 0.42455 0.0
H1089 H 0.62909 0.40223 0.43097 0.0
H1090 H 0.61969 0.46552 0.39252 0.0
H1091 H 0.65889 0.42823 0.39949 0.0
H1092 H 0.6892 0.4626 0.31804 0.0
H1093 H 0.66408 0.43834 0.35403 0.0
H1094 H 0.65809 0.49406 0.38525 0.0
H1095 H 0.68225 0.51778 0.34865 0.0
C1096 C 0.60571 0.43758 0.41951 0.0
C1097 C 0.60758 0.4192 0.43033 0.0
C1098 C 0.62245 0.45218 0.40116 0.0
C1099 C 0.64178 0.44905 0.3933 0.0
C1100 C 0.64407 0.43101 0.40472 0.0
C1101 C 0.62709 0.41619 0.42296 0.0
C1102 C 0.6826 0.46958 0.33277 0.0
C1103 C 0.68736 0.49195 0.3304 0.0
C1104 C 0.6683 0.45575 0.3535 0.0
C1105 C 0.65875 0.4641 0.37253 0.0
C1106 C 0.6645 0.48681 0.37065 0.0
C1107 C 0.67842 0.50047 0.34972 0.0
H1108 H 0.57037 0.12585 0.41166 0.0
H1109 H 0.60674 0.1971 0.42136 0.0
H1110 H 0.54562 0.13026 0.37825 0.0
H1111 H 0.58129 0.20149 0.38828 0.0
H1112 H 0.55048 0.20163 0.30546 0.0
H1113 H 0.57444 0.19922 0.3417 0.0
H1114 H 0.5142 0.13889 0.37122 0.0
H1115 H 0.49061 0.14111 0.33474 0.0
C1116 C 0.57289 0.14248 0.40694 0.0
C1117 C 0.59061 0.16112 0.41925 0.0
C1118 C 0.55854 0.145 0.3878 0.0
C1119 C 0.56133 0.16624 0.3805 0.0
C1120 C 0.5788 0.18491 0.39313 0.0
C1121 C 0.59329 0.18238 0.41226 0.0
C1122 C 0.54234 0.18799 0.31986 0.0
C1123 C 0.51872 0.17142 0.31703 0.0
C1124 C 0.55605 0.18662 0.34071 0.0
C1125 C 0.54638 0.16873 0.35935 0.0
C1126 C 0.52248 0.15261 0.35694 0.0
C1127 C 0.50889 0.15388 0.33602 0.0
H1128 H 0.69961 0.54891 0.9055 0.0
H1129 H 0.69545 0.48606 0.9311 0.0
H1130 H 0.72559 0.55154 0.869 0.0
H1131 H 0.72203 0.48887 0.895 0.0
H1132 H 0.75556 0.49129 0.81519 0.0
H1133 H 0.72655 0.48756 0.84888 0.0
H1134 H 0.76465 0.5586 0.86014 0.0
H1135 H 0.79296 0.56237 0.82591 0.0
C1136 C 0.70444 0.53573 0.90346 0.0
C1137 C 0.69556 0.51734 0.92132 0.0
C1138 C 0.71941 0.53724 0.88252 0.0
C1139 C 0.72616 0.5205 0.87901 0.0
C1140 C 0.71701 0.50194 0.89674 0.0
C1141 C 0.70181 0.50034 0.91754 0.0
C1142 C 0.7576 0.50613 0.82471 0.0
C1143 C 0.77659 0.52713 0.81777 0.0
C1144 C 0.74105 0.50397 0.84422 0.0
C1145 C 0.74318 0.52275 0.85743 0.0
C1146 C 0.76208 0.54377 0.85019 0.0
C1147 C 0.77847 0.54594 0.83058 0.0
H1148 H 0.57321 0.28957 0.80904 0.0
H1149 H 0.49724 0.24873 0.80438 0.0
H1150 H 0.57516 0.2618 0.83922 0.0
H1151 H 0.499 0.22167 0.83513 0.0
H1152 H 0.5091 0.16704 0.87435 0.0
H1153 H 0.51043 0.19381 0.84063 0.0
H1154 H 0.56558 0.24722 0.88317 0.0
H1155 H 0.56469 0.2201 0.91639 0.0
C1156 C 0.55695 0.27468 0.81441 0.0
C1157 C 0.5351 0.27138 0.80421 0.0
C1158 C 0.55803 0.25882 0.83189 0.0
C1159 C 0.53724 0.23939 0.83971 0.0
C1160 C 0.51547 0.23611 0.82924 0.0
C1161 C 0.51443 0.25178 0.81164 0.0
C1162 C 0.52149 0.1845 0.87645 0.0
C1163 C 0.53663 0.1915 0.89811 0.0
C1164 C 0.52225 0.19991 0.85715 0.0
C1165 C 0.53793 0.22282 0.85921 0.0
C1166 C 0.55347 0.22974 0.88067 0.0
C1167 C 0.55291 0.21423 0.8998 0.0
H1168 H 0.87908 0.31877 0.92489 0.0
H1169 H 0.86219 0.37093 0.89968 0.0
H1170 H 0.85609 0.29616 0.88887 0.0
H1171 H 0.83828 0.34786 0.86442 0.0
H1172 H 0.82015 0.31085 0.7869 0.0
H1173 H 0.84267 0.3337 0.82304 0.0
H1174 H 0.81583 0.27503 0.87458 0.0
H1175 H 0.79424 0.25206 0.83819 0.0
C1176 C 0.87049 0.32546 0.91172 0.0
C1177 C 0.87261 0.34677 0.91528 0.0
C1178 C 0.85702 0.31234 0.89122 0.0
C1179 C 0.84525 0.32014 0.87375 0.0
C1180 C 0.84729 0.3414 0.87733 0.0
C1181 C 0.86081 0.35455 0.89781 0.0
C1182 C 0.81915 0.30278 0.80586 0.0
C1183 C 0.8054 0.27954 0.80948 0.0
C1184 C 0.83187 0.31594 0.82671 0.0
C1185 C 0.83113 0.30622 0.85175 0.0
C1186 C 0.81708 0.28304 0.85549 0.0
C1187 C 0.8044 0.26988 0.83463 0.0
H1188 H 0.55191 0.33128 0.39656 0.0
H1189 H 0.48613 0.32762 0.36994 0.0
H1190 H 0.55314 0.31075 0.35833 0.0
H1191 H 0.48782 0.30841 0.33095 0.0
H1192 H 0.47896 0.24844 0.28657 0.0
H1193 H 0.48104 0.27331 0.32053 0.0
H1194 H 0.55759 0.30788 0.31292 0.0
H1195 H 0.55545 0.28183 0.27947 0.0
C1196 C 0.53801 0.32648 0.38214 0.0
C1197 C 0.51876 0.3307 0.3863 0.0
C1198 C 0.53871 0.3148 0.36013 0.0
C1199 C 0.52037 0.30748 0.34155 0.0
C1200 C 0.50188 0.31302 0.34513 0.0
C1201 C 0.50094 0.32419 0.36737 0.0
C1202 C 0.4963 0.26146 0.29185 0.0
C1203 C 0.51705 0.26307 0.28021 0.0
C1204 C 0.4975 0.27596 0.31135 0.0
C1205 C 0.51949 0.29287 0.31961 0.0
C1206 C 0.54032 0.29491 0.30743 0.0
C1207 C 0.53911 0.2801 0.28806 0.0
H1208 H 0.75768 0.26603 0.29631 0.0
H1209 H 0.78482 0.2191 0.28663 0.0
H1210 H 0.72993 0.24124 0.33035 0.0
H1211 H 0.75711 0.19446 0.32025 0.0
H1212 H 0.72997 0.17263 0.40431 0.0
H1213 H 0.75445 0.19673 0.36834 0.0
H1214 H 0.69464 0.20349 0.33874 0.0
H1215 H 0.66982 0.17896 0.37476 0.0
C1216 C 0.75752 0.25033 0.30115 0.0
C1217 C 0.77365 0.24467 0.28891 0.0
C1218 C 0.74159 0.23612 0.3206 0.0
C1219 C 0.74158 0.21605 0.32824 0.0
C1220 C 0.75702 0.21002 0.31519 0.0
C1221 C 0.77283 0.22412 0.29579 0.0
C1222 C 0.72186 0.17898 0.39006 0.0
C1223 C 0.69778 0.17356 0.39238 0.0
C1224 C 0.73595 0.19286 0.3694 0.0
C1225 C 0.72642 0.20181 0.35051 0.0
C1226 C 0.70251 0.19691 0.35307 0.0
C1227 C 0.68831 0.18288 0.37375 0.0
H1228 H 0.84159 0.50129 0.42416 0.0
H1229 H 0.89606 0.50329 0.37199 0.0
H1230 H 0.82166 0.5079 0.38672 0.0
H1231 H 0.87587 0.50968 0.33438 0.0
H1232 H 0.84467 0.54475 0.27855 0.0
H1233 H 0.86583 0.53747 0.31437 0.0
H1234 H 0.79909 0.48819 0.34856 0.0
H1235 H 0.77788 0.49565 0.31296 0.0
C1236 C 0.84942 0.50325 0.40472 0.0
C1237 C 0.87048 0.50174 0.40116 0.0
C1238 C 0.83782 0.50683 0.38318 0.0
C1239 C 0.84697 0.50907 0.35745 0.0
C1240 C 0.86836 0.50812 0.35392 0.0
C1241 C 0.87994 0.50444 0.3755 0.0
C1242 C 0.83449 0.53216 0.29353 0.0
C1243 C 0.80952 0.52086 0.29287 0.0
C1244 C 0.84666 0.52796 0.31406 0.0
C1245 C 0.83418 0.51242 0.33454 0.0
C1246 C 0.80926 0.50057 0.33338 0.0
C1247 C 0.79709 0.5047 0.3128 0.0
H1248 H 0.63875 0.1366 0.94943 0.0
H1249 H 0.62279 0.18777 0.918 0.0
H1250 H 0.66798 0.14514 0.91427 0.0
H1251 H 0.65239 0.19658 0.88307 0.0
H1252 H 0.68436 0.18676 0.80692 0.0
H1253 H 0.65679 0.17945 0.8436 0.0
H1254 H 0.70616 0.1728 0.89668 0.0
H1255 H 0.73358 0.17974 0.85991 0.0
C1256 C 0.64172 0.14992 0.93527 0.0
C1257 C 0.62831 0.16143 0.93655 0.0
C1258 C 0.65857 0.15486 0.9151 0.0
C1259 C 0.66243 0.17142 0.89564 0.0
C1260 C 0.64958 0.18345 0.89744 0.0
C1261 C 0.63276 0.17854 0.91765 0.0
C1262 C 0.68931 0.18362 0.82638 0.0
C1263 C 0.71121 0.1838 0.8304 0.0
C1264 C 0.67357 0.17963 0.84749 0.0
C1265 C 0.67928 0.17569 0.87319 0.0
C1266 C 0.70107 0.17559 0.87714 0.0
C1267 C 0.71683 0.17962 0.85603 0.0
H1268 H 0.86374 0.4243 0.93034 0.0
H1269 H 0.89501 0.48532 0.97326 0.0
H1270 H 0.8554 0.44357 0.89395 0.0
H1271 H 0.8866 0.50457 0.93663 0.0
H1272 H 0.85323 0.52772 0.86936 0.0
H1273 H 0.85411 0.50635 0.90877 0.0
H1274 H 0.88381 0.47307 0.86219 0.0
H1275 H 0.88278 0.4942 0.82308 0.0
C1276 C 0.86847 0.44173 0.93225 0.0
C1277 C 0.88034 0.45334 0.95462 0.0
C1278 C 0.86378 0.45278 0.91131 0.0
C1279 C 0.87066 0.47563 0.9123 0.0
C1280 C 0.88106 0.48693 0.93535 0.0
C1281 C 0.88592 0.4759 0.95629 0.0
C1282 C 0.85973 0.51568 0.8676 0.0
C1283 C 0.86806 0.5127 0.8432 0.0
C1284 C 0.86035 0.50357 0.89012 0.0
C1285 C 0.86893 0.48798 0.88852 0.0
C1286 C 0.87684 0.48477 0.864 0.0
C1287 C 0.87652 0.49705 0.84165 0.0
H1288 H 0.54568 0.40901 0.96552 0.0
H1289 H 0.61794 0.43533 0.93695 0.0
H1290 H 0.5316 0.386 0.92688 0.0
H1291 H 0.60381 0.41228 0.89847 0.0
H1292 H 0.56579 0.39707 0.81811 0.0
H1293 H 0.58111 0.41476 0.85977 0.0
H1294 H 0.53196 0.35445 0.90195 0.0
H1295 H 0.51642 0.33671 0.8599 0.0
C1296 C 0.55861 0.40959 0.95128 0.0
C1297 C 0.58293 0.4242 0.95427 0.0
C1298 C 0.55052 0.39633 0.92917 0.0
C1299 C 0.56656 0.39751 0.90945 0.0
C1300 C 0.59097 0.41124 0.91313 0.0
C1301 C 0.59907 0.42435 0.9353 0.0
C1302 C 0.55822 0.38757 0.83624 0.0
C1303 C 0.53977 0.36554 0.8357 0.0
C1304 C 0.56719 0.39762 0.86014 0.0
C1305 C 0.55781 0.386 0.8842 0.0
C1306 C 0.5395 0.36386 0.88374 0.0
C1307 C 0.5307 0.35367 0.85971 0.0
H1308 H 0.51653 0.64544 0.67901 0.0
H1309 H 0.55681 0.70674 0.63392 0.0
H1310 H 0.51629 0.66661 0.71685 0.0
H1311 H 0.55588 0.72802 0.67119 0.0
H1312 H 0.56888 0.76153 0.74956 0.0
H1313 H 0.57071 0.73976 0.71317 0.0
H1314 H 0.49975 0.68821 0.73318 0.0
H1315 H 0.49852 0.70972 0.7701 0.0
C1316 C 0.52515 0.66347 0.67717 0.0
C1317 C 0.53674 0.67444 0.65357 0.0
C1318 C 0.52495 0.67565 0.6988 0.0
C1319 C 0.53604 0.69912 0.69721 0.0
C1320 C 0.54757 0.71003 0.67346 0.0
C1321 C 0.54805 0.69785 0.652 0.0
C1322 C 0.55373 0.74554 0.7461 0.0
C1323 C 0.53359 0.7373 0.76267 0.0
C1324 C 0.55468 0.73306 0.72517 0.0
C1325 C 0.53534 0.71216 0.72004 0.0
C1326 C 0.51519 0.70398 0.73672 0.0
C1327 C 0.51441 0.71633 0.75788 0.0
H1328 H 0.36446 0.80395 0.66277 0.0
H1329 H 0.32096 0.83712 0.66433 0.0
H1330 H 0.34029 0.77846 0.69823 0.0
H1331 H 0.29617 0.81103 0.69865 0.0
H1332 H 0.26564 0.77341 0.77421 0.0
H1333 H 0.2952 0.8006 0.74382 0.0
H1334 H 0.30133 0.74756 0.70546 0.0
H1335 H 0.27228 0.7204 0.73653 0.0
C1336 C 0.34986 0.80594 0.67069 0.0
C1337 C 0.34467 0.82263 0.6605 0.0
C1338 C 0.33581 0.79112 0.69087 0.0
C1339 C 0.31623 0.79262 0.70134 0.0
C1340 C 0.31129 0.80952 0.69139 0.0
C1341 C 0.32535 0.82434 0.67134 0.0
C1342 C 0.27352 0.76756 0.7595 0.0
C1343 C 0.26646 0.74471 0.75765 0.0
C1344 C 0.29036 0.78315 0.74194 0.0
C1345 C 0.30041 0.77628 0.72188 0.0
C1346 C 0.29411 0.7535 0.72076 0.0
C1347 C 0.27738 0.73789 0.73852 0.0
H1348 H 0.20459 0.4846 0.62385 0.0
H1349 H 0.16803 0.5117 0.66994 0.0
H1350 H 0.2246 0.48098 0.66321 0.0
H1351 H 0.1881 0.50801 0.70961 0.0
H1352 H 0.20686 0.46706 0.77494 0.0
H1353 H 0.18786 0.47529 0.7374 0.0
H1354 H 0.25502 0.50674 0.69544 0.0
H1355 H 0.27409 0.49875 0.73287 0.0
C1356 C 0.20078 0.48972 0.64244 0.0
C1357 C 0.18466 0.49835 0.64381 0.0
C1358 C 0.21241 0.48785 0.66494 0.0
C1359 C 0.20798 0.49428 0.68949 0.0
C1360 C 0.19181 0.50287 0.69096 0.0
C1361 C 0.18045 0.5051 0.66828 0.0
C1362 C 0.21765 0.47603 0.75787 0.0
C1363 C 0.24198 0.48213 0.7569 0.0
C1364 C 0.20676 0.4808 0.73641 0.0
C1365 C 0.21991 0.49147 0.7134 0.0
C1366 C 0.24439 0.49826 0.7128 0.0
C1367 C 0.25532 0.49379 0.73434 0.0
H1368 H 0.44509 0.84747 0.17019 0.0
H1369 H 0.41113 0.88197 0.13081 0.0
H1370 H 0.41808 0.8388 0.20774 0.0
H1371 H 0.38402 0.87316 0.16852 0.0
H1372 H 0.32768 0.83663 0.23519 0.0
H1373 H 0.3511 0.84082 0.19516 0.0
H1374 H 0.41437 0.86341 0.24168 0.0
H1375 H 0.39105 0.85915 0.28146 0.0
C1376 C 0.43164 0.85292 0.16933 0.0
C1377 C 0.43041 0.86557 0.14753 0.0
C1378 C 0.41626 0.84806 0.19094 0.0
C1379 C 0.39911 0.8555 0.19118 0.0
C1380 C 0.39702 0.86714 0.16885 0.0
C1381 C 0.4126 0.87224 0.1473 0.0
C1382 C 0.34656 0.84235 0.2368 0.0
C1383 C 0.35755 0.84764 0.26145 0.0
C1384 C 0.35996 0.84487 0.21391 0.0
C1385 C 0.38454 0.85236 0.21531 0.0
C1386 C 0.39543 0.85738 0.24 0.0
C1387 C 0.38212 0.85517 0.26276 0.0
H1388 H 0.23239 0.6217 0.13383 0.0
H1389 H 0.15591 0.58317 0.13594 0.0
H1390 H 0.23516 0.59298 0.16155 0.0
H1391 H 0.15856 0.55524 0.16425 0.0
H1392 H 0.16696 0.49932 0.20026 0.0
H1393 H 0.16854 0.52633 0.16665 0.0
H1394 H 0.22825 0.57839 0.20562 0.0
H1395 H 0.22713 0.55092 0.23851 0.0
C1396 C 0.2162 0.60711 0.14014 0.0
C1397 C 0.19395 0.60475 0.13263 0.0
C1398 C 0.21776 0.5907 0.15618 0.0
C1399 C 0.19709 0.57167 0.16518 0.0
C1400 C 0.17492 0.56932 0.15731 0.0
C1401 C 0.17338 0.58552 0.14116 0.0
C1402 C 0.18051 0.51652 0.20141 0.0
C1403 C 0.19676 0.52311 0.22206 0.0
C1404 C 0.1814 0.53206 0.18226 0.0
C1405 C 0.19827 0.55471 0.18359 0.0
C1406 C 0.21514 0.56111 0.20374 0.0
C1407 C 0.21448 0.54542 0.22268 0.0
H1408 H 0.53902 0.64821 0.26491 0.0
H1409 H 0.53473 0.7054 0.23135 0.0
H1410 H 0.5171 0.62628 0.22818 0.0
H1411 H 0.51154 0.68299 0.19532 0.0
H1412 H 0.49441 0.64383 0.11976 0.0
H1413 H 0.51558 0.66606 0.15671 0.0
H1414 H 0.47887 0.60866 0.20935 0.0
H1415 H 0.45871 0.58606 0.17221 0.0
C1416 C 0.53344 0.65619 0.24978 0.0
C1417 C 0.53892 0.67876 0.25122 0.0
C1418 C 0.52048 0.64343 0.22881 0.0
C1419 C 0.51244 0.65278 0.20872 0.0
C1420 C 0.51768 0.67527 0.21024 0.0
C1421 C 0.53079 0.6881 0.23116 0.0
C1422 C 0.49095 0.6358 0.13911 0.0
C1423 C 0.47488 0.61297 0.14274 0.0
C1424 C 0.50291 0.6487 0.16045 0.0
C1425 C 0.49903 0.6392 0.1861 0.0
C1426 C 0.48262 0.6165 0.18985 0.0
C1427 C 0.47077 0.60355 0.16847 0.0
H1428 H 0.18336 0.57892 0.63188 0.0
H1429 H 0.139 0.60548 0.59896 0.0
H1430 H 0.1912 0.60253 0.66965 0.0
H1431 H 0.14684 0.62907 0.63695 0.0
H1432 H 0.18077 0.68012 0.70272 0.0
H1433 H 0.17846 0.66099 0.66172 0.0
H1434 H 0.16553 0.60146 0.70694 0.0
H1435 H 0.16806 0.62052 0.74753 0.0
C1436 C 0.17553 0.59001 0.63247 0.0
C1437 C 0.16037 0.59013 0.61242 0.0
C1438 C 0.17993 0.60346 0.65424 0.0
C1439 C 0.16944 0.6175 0.65645 0.0
C1440 C 0.15527 0.61851 0.63578 0.0
C1441 C 0.15071 0.60491 0.61405 0.0
C1442 C 0.17764 0.66302 0.7038 0.0
C1443 C 0.17444 0.65179 0.72836 0.0
C1444 C 0.17617 0.65203 0.68037 0.0
C1445 C 0.17187 0.62972 0.68107 0.0
C1446 C 0.16911 0.6187 0.70567 0.0
C1447 C 0.17029 0.62955 0.72897 0.0
H1448 H 0.39774 0.51977 0.75094 0.0
H1449 H 0.33568 0.49258 0.7022 0.0
H1450 H 0.42216 0.54065 0.71291 0.0
H1451 H 0.36017 0.51375 0.66399 0.0
H1452 H 0.42074 0.53392 0.59947 0.0
H1453 H 0.39318 0.51402 0.63597 0.0
H1454 H 0.42733 0.57245 0.68288 0.0
H1455 H 0.45483 0.59235 0.64661 0.0
C1456 C 0.38932 0.5182 0.73207 0.0
C1457 C 0.36478 0.50446 0.72958 0.0
C1458 C 0.40327 0.53035 0.71033 0.0
C1459 C 0.39308 0.52893 0.68547 0.0
C1460 C 0.36854 0.51512 0.68288 0.0
C1461 C 0.3545 0.50314 0.70477 0.0
C1462 C 0.42217 0.54262 0.61744 0.0
C1463 C 0.44012 0.56469 0.62013 0.0
C1464 C 0.40633 0.53123 0.63832 0.0
C1465 C 0.40825 0.5416 0.66238 0.0
C1466 C 0.42563 0.56391 0.66471 0.0
C1467 C 0.44131 0.57534 0.64383 0.0
H1468 H 0.53822 0.85355 0.74986 0.0
H1469 H 0.48044 0.78759 0.73842 0.0
H1470 H 0.52416 0.86796 0.71292 0.0
H1471 H 0.46629 0.80194 0.70211 0.0
H1472 H 0.45341 0.8303 0.62619 0.0
H1473 H 0.47407 0.81759 0.65745 0.0
H1474 H 0.49041 0.87462 0.70483 0.0
H1475 H 0.47028 0.88744 0.67357 0.0
C1476 C 0.52266 0.84211 0.73939 0.0
C1477 C 0.51038 0.81946 0.74728 0.0
C1478 C 0.51452 0.85037 0.71829 0.0
C1479 C 0.49403 0.83612 0.70452 0.0
C1480 C 0.48228 0.81336 0.71195 0.0
C1481 C 0.49032 0.80517 0.73302 0.0
C1482 C 0.46169 0.84025 0.6431 0.0
C1483 C 0.46 0.85979 0.64745 0.0
C1484 C 0.47343 0.83292 0.66111 0.0
C1485 C 0.48383 0.84502 0.68379 0.0
C1486 C 0.48288 0.86499 0.6875 0.0
C1487 C 0.47111 0.87225 0.66962 0.0
H1488 H 0.29363 0.52367 0.26597 0.0
H1489 H 0.26209 0.46054 0.22757 0.0
H1490 H 0.32729 0.53767 0.23487 0.0
H1491 H 0.29518 0.47452 0.19647 0.0
H1492 H 0.36521 0.50049 0.15249 0.0
H1493 H 0.33691 0.48652 0.1895 0.0
H1494 H 0.33349 0.54854 0.18839 0.0
H1495 H 0.36192 0.56257 0.15194 0.0
C1496 C 0.29402 0.51269 0.25117 0.0
C1497 C 0.27507 0.49105 0.24919 0.0
C1498 C 0.3132 0.52075 0.23319 0.0
C1499 C 0.31392 0.50728 0.21297 0.0
C1500 C 0.29544 0.48532 0.21185 0.0
C1501 C 0.27631 0.47735 0.22965 0.0
C1502 C 0.35852 0.51117 0.16026 0.0
C1503 C 0.36575 0.53259 0.14905 0.0
C1504 C 0.34223 0.50315 0.18145 0.0
C1505 C 0.33284 0.51638 0.192 0.0
C1506 C 0.34055 0.53797 0.18112 0.0
C1507 C 0.35673 0.54595 0.15996 0.0
H1508 H 0.50253 0.75627 0.27624 0.0
H1509 H 0.57865 0.79759 0.27353 0.0
H1510 H 0.49827 0.78152 0.24399 0.0
H1511 H 0.57449 0.82223 0.2409 0.0
H1512 H 0.55971 0.87388 0.19969 0.0
H1513 H 0.56172 0.84952 0.23454 0.0
H1514 H 0.5053 0.7926 0.1982 0.0
H1515 H 0.50303 0.81721 0.16359 0.0
C1516 C 0.51834 0.77074 0.26884 0.0
C1517 C 0.54092 0.77488 0.27755 0.0
C1518 C 0.51592 0.78514 0.25018 0.0
C1519 C 0.53603 0.80397 0.23974 0.0
C1520 C 0.55855 0.80817 0.24875 0.0
C1521 C 0.56095 0.7939 0.26744 0.0
C1522 C 0.54782 0.85616 0.19905 0.0
C1523 C 0.53134 0.84748 0.17873 0.0
C1524 C 0.54896 0.84215 0.21907 0.0
C1525 C 0.53379 0.819 0.21918 0.0
C1526 C 0.51705 0.81035 0.19901 0.0
C1527 C 0.51579 0.82443 0.17908 0.0
H1528 H 0.20523 0.73946 0.30482 0.0
H1529 H 0.2767 0.76683 0.27335 0.0
H1530 H 0.19027 0.7165 0.26616 0.0
H1531 H 0.26168 0.74399 0.23484 0.0
H1532 H 0.21999 0.73004 0.15635 0.0
H1533 H 0.23651 0.7472 0.198 0.0
H1534 H 0.19174 0.68506 0.23974 0.0
H1535 H 0.17518 0.66778 0.19765 0.0
C1536 C 0.21779 0.74029 0.28994 0.0
C1537 C 0.24214 0.75517 0.29209 0.0
C1538 C 0.20922 0.72707 0.26785 0.0
C1539 C 0.22479 0.72864 0.24737 0.0
C1540 C 0.24924 0.74263 0.25019 0.0
C1541 C 0.25783 0.75565 0.27234 0.0
C1542 C 0.21372 0.72003 0.17439 0.0
C1543 C 0.19621 0.69763 0.1738 0.0
C1544 C 0.22333 0.72978 0.19823 0.0
C1545 C 0.21546 0.71746 0.22213 0.0
C1546 C 0.19809 0.69495 0.2216 0.0
C1547 C 0.18873 0.68505 0.19759 0.0
H1548 H 0.14491 0.18063 0.35708 0.0
H1549 H 0.21855 0.22851 0.34348 0.0
H1550 H 0.1442 0.1646 0.31444 0.0
H1551 H 0.21803 0.21221 0.30145 0.0
H1552 H 0.20469 0.19123 0.21664 0.0
H1553 H 0.20323 0.20812 0.25778 0.0
H1554 H 0.15924 0.14266 0.29293 0.0
H1555 H 0.16051 0.12586 0.2517 0.0
C1556 C 0.16093 0.18775 0.34502 0.0
C1557 C 0.18177 0.20586 0.35376 0.0
C1558 C 0.16058 0.17847 0.32062 0.0
C1559 C 0.18108 0.18706 0.3044 0.0
C1560 C 0.2018 0.20534 0.31311 0.0
C1561 C 0.20213 0.21462 0.33739 0.0
C1562 C 0.19481 0.18044 0.23317 0.0
C1563 C 0.18277 0.15717 0.23079 0.0
C1564 C 0.19396 0.19012 0.25682 0.0
C1565 C 0.18114 0.17679 0.27881 0.0
C1566 C 0.16896 0.15351 0.27635 0.0
C1567 C 0.16973 0.14384 0.25266 0.0
H1568 H 0.86867 0.01765 0.36145 0.0
H1569 H 0.85655 0.95423 0.33205 0.0
H1570 H 0.88008 0.03445 0.31748 0.0
H1571 H 0.86896 0.97126 0.28807 0.0
H1572 H 0.85999 1.00149 0.20914 0.0
H1573 H 0.85431 0.98444 0.25305 0.0
H1574 H 0.90786 0.04688 0.28256 0.0
H1575 H 0.91277 0.06416 0.2387 0.0
C1576 C 0.86889 1.00737 0.34568 0.0
C1577 C 0.86152 0.98453 0.35029 0.0
C1578 C 0.87561 0.01707 0.32037 0.0
C1579 C 0.87538 1.00426 0.29898 0.0
C1580 C 0.86893 0.9816 0.30386 0.0
C1581 C 0.86197 0.97183 0.32917 0.0
C1582 C 0.87077 0.01153 0.22492 0.0
C1583 C 0.88671 0.03426 0.2204 0.0
C1584 C 0.8676 1.00169 0.25019 0.0
C1585 C 0.88048 0.01425 0.2716 0.0
C1586 C 0.89722 0.03676 0.26676 0.0
C1587 C 0.90019 0.04666 0.24153 0.0
H1588 H 1.0059 0.79699 0.21185 0.0
H1589 H 0.96861 0.83592 0.2042 0.0
H1590 H 1.02174 0.81376 0.25362 0.0
H1591 H 0.98393 0.8523 0.2467 0.0
H1592 H 0.03669 0.89513 0.30849 0.0
H1593 H 1.01967 0.87785 0.26715 0.0
H1594 H 1.01207 0.81493 0.29834 0.0
H1595 H 0.02956 0.83246 0.3396 0.0
C1596 C 1.00086 0.809 0.2192 0.0
C1597 C 0.98598 0.81512 0.20456 0.0
C1598 C 1.00986 0.81853 0.24335 0.0
C1599 C 1.00415 0.8344 0.25373 0.0
C1600 C 0.98903 0.84038 0.23921 0.0
C1601 C 0.98009 0.83089 0.21489 0.0
C1602 C 0.03125 0.87757 0.30661 0.0
C1603 C 0.03448 0.86518 0.32743 0.0
C1604 C 1.02138 0.86761 0.28287 0.0
C1605 C 1.01433 0.84492 0.27929 0.0
C1606 C 1.01758 0.83252 0.30015 0.0
C1607 C 0.02762 0.84255 0.32387 0.0
H1608 H 0.83269 0.81174 0.71653 0.0
H1609 H 0.90823 0.85589 0.71644 0.0
H1610 H 0.82832 0.82632 0.75796 0.0
H1611 H 0.90374 0.87084 0.75822 0.0
H1612 H 0.88661 0.86985 0.84824 0.0
H1613 H 0.89391 0.85954 0.80491 0.0
H1614 H 0.83011 0.85944 0.77639 0.0
H1615 H 0.82256 0.86936 0.81981 0.0
C1616 C 0.84843 0.82466 0.72528 0.0
C1617 C 0.87085 0.83261 0.71305 0.0
C1618 C 0.84586 0.83319 0.74904 0.0
C1619 C 0.86561 0.84993 0.76141 0.0
C1620 C 0.88814 0.85788 0.7493 0.0
C1621 C 0.89072 0.84936 0.72532 0.0
C1622 C 0.87424 0.86786 0.83267 0.0
C1623 C 0.85386 0.87025 0.83765 0.0
C1624 C 0.87852 0.86205 0.80774 0.0
C1625 C 0.86249 0.85841 0.78716 0.0
C1626 C 0.84262 0.86169 0.79189 0.0
C1627 C 0.83835 0.86753 0.81678 0.0
H1628 H 0.1569 0.02667 0.70985 0.0
H1629 H 0.22954 0.05574 0.73573 0.0
H1630 H 0.14368 1.00525 0.75176 0.0
H1631 H 0.2163 0.03388 0.77709 0.0
H1632 H 0.18264 0.96556 0.82526 0.0
H1633 H 0.19278 0.98737 0.78376 0.0
H1634 H 0.14846 0.01658 0.8058 0.0
H1635 H 0.13873 0.99522 0.84786 0.0
C1636 C 0.16999 0.02863 0.72454 0.0
C1637 C 0.19425 0.0429 0.71951 0.0
C1638 C 0.16242 0.0164 0.74845 0.0
C1639 C 0.17904 0.01786 0.76741 0.0
C1640 C 0.2032 0.03242 0.76264 0.0
C1641 C 0.21072 0.04501 0.73905 0.0
C1642 C 0.1748 0.9764 0.82117 0.0
C1643 C 0.1599 0.9787 0.83984 0.0
C1644 C 0.18073 0.98896 0.79751 0.0
C1645 C 0.17148 1.00368 0.79179 0.0
C1646 C 0.15578 1.00531 0.80986 0.0
C1647 C 0.15025 0.99312 0.83384 0.0
H1648 H 0.96113 0.12112 0.75767 0.0
H1649 H 1.01471 0.17991 0.71676 0.0
H1650 H 0.98624 0.13009 0.79647 0.0
H1651 H 0.03948 0.18903 0.75551 0.0
H1652 H 0.08834 0.18985 0.82072 0.0
H1653 H 0.06347 0.17752 0.7819 0.0
H1654 H 1.00091 0.15702 0.8309 0.0
H1655 H 0.02568 0.1689 0.86969 0.0
C1656 C 0.97822 0.13595 0.75692 0.0
C1657 C 0.98582 0.14977 0.73402 0.0
C1658 C 0.9926 0.14116 0.77924 0.0
C1659 C 1.01498 0.16029 0.7792 0.0
C1660 C 1.02257 0.17399 0.75621 0.0
C1661 C 1.00822 0.16881 0.73398 0.0
C1662 C 0.06927 0.18253 0.82326 0.0
C1663 C 0.05909 0.18047 0.84839 0.0
C1664 C 0.05499 0.17558 0.80094 0.0
C1665 C 0.03012 0.16637 0.80315 0.0
C1666 C 1.01993 0.1638 0.82839 0.0
C1667 C 0.0342 0.17076 0.85068 0.0
H1668 H 0.83332 0.54756 0.68541 0.0
H1669 H 0.83653 0.48817 0.71246 0.0
H1670 H 0.83832 0.5395 0.64003 0.0
H1671 H 0.84127 0.48002 0.6671 0.0
H1672 H 0.87342 0.48439 0.5849 0.0
H1673 H 0.87032 0.49418 0.63026 0.0
H1674 H 0.81675 0.51267 0.60656 0.0
H1675 H 0.82028 0.50346 0.56145 0.0
C1676 C 0.83488 0.53269 0.68169 0.0
C1677 C 0.83443 0.5185 0.70265 0.0
C1678 C 0.83774 0.52805 0.65564 0.0
C1679 C 0.84033 0.50916 0.64988 0.0
C1680 C 0.8397 0.49489 0.67083 0.0
C1681 C 0.83673 0.49946 0.69685 0.0
C1682 C 0.86122 0.4908 0.58937 0.0
C1683 C 0.84698 0.49296 0.56957 0.0
C1684 C 0.85924 0.49619 0.61539 0.0
C1685 C 0.84316 0.5041 0.62211 0.0
C1686 C 0.82941 0.50678 0.60212 0.0
C1687 C 0.83127 0.50126 0.57626 0.0
H1688 H 0.55231 0.33453 0.68658 0.0
H1689 H 0.48133 0.32042 0.66471 0.0
H1690 H 0.5662 0.34805 0.64122 0.0
H1691 H 0.49505 0.33361 0.61986 0.0
H1692 H 0.52107 0.33969 0.53649 0.0
H1693 H 0.51125 0.32296 0.5808 0.0
H1694 H 0.57014 0.38122 0.61147 0.0
H1695 H 0.58008 0.39813 0.56698 0.0
C1696 C 0.53966 0.33408 0.67207 0.0
C1697 C 0.51574 0.32646 0.67924 0.0
C1698 C 0.54762 0.34192 0.64619 0.0
C1699 C 0.53169 0.34182 0.62695 0.0
C1700 C 0.50772 0.33367 0.6341 0.0
C1701 C 0.49989 0.32624 0.65989 0.0
C1702 C 0.53217 0.34888 0.55256 0.0
C1703 C 0.55124 0.37039 0.54814 0.0
C1704 C 0.52647 0.33928 0.57799 0.0
C1705 C 0.53979 0.35085 0.59966 0.0
C1706 C 0.55962 0.37186 0.59515 0.0
C1707 C 0.56522 0.38158 0.56967 0.0
H1708 H 0.63888 0.16919 0.53772 0.0
H1709 H 0.67087 0.1258 0.54738 0.0
H1710 H 0.65396 0.18483 0.58064 0.0
H1711 H 0.6864 0.14174 0.58957 0.0
H1712 H 0.69309 0.15971 0.67546 0.0
H1713 H 0.67544 0.14328 0.63384 0.0
H1714 H 0.69032 0.20835 0.60225 0.0
H1715 H 0.70762 0.22464 0.64396 0.0
C1716 C 0.64913 0.16301 0.54894 0.0
C1717 C 0.65361 0.14622 0.53907 0.0
C1718 C 0.65791 0.17206 0.5735 0.0
C1719 C 0.67142 0.16456 0.5887 0.0
C1720 C 0.67575 0.1477 0.57875 0.0
C1721 C 0.66693 0.13864 0.55436 0.0
C1722 C 0.69272 0.17052 0.65959 0.0
C1723 C 0.7018 0.19351 0.66312 0.0
C1724 C 0.68258 0.1611 0.63567 0.0
C1725 C 0.68141 0.17446 0.61455 0.0
C1726 C 0.69048 0.19745 0.61815 0.0
C1727 C 0.70049 0.20683 0.6421 0.0
H1728 H 0.56397 0.19114 0.04165 0.0
H1729 H 0.51094 0.12304 0.05788 0.0
H1730 H 0.55225 0.20236 0.08233 0.0
H1731 H 0.49991 0.13387 0.09848 0.0
H1732 H 0.46346 0.16017 0.15001 0.0
H1733 H 0.47864 0.15298 0.10974 0.0
H1734 H 0.54998 0.20043 0.13065 0.0
H1735 H 0.5344 0.20825 0.17103 0.0
C1736 C 0.55013 0.17853 0.05411 0.0
C1737 C 0.53816 0.15625 0.04635 0.0
C1738 C 0.54342 0.18493 0.07743 0.0
C1739 C 0.52471 0.16913 0.09349 0.0
C1740 C 0.5138 0.14669 0.08628 0.0
C1741 C 0.52028 0.1404 0.06301 0.0
C1742 C 0.48239 0.16923 0.14602 0.0
C1743 C 0.49773 0.18461 0.16391 0.0
C1744 C 0.49117 0.16497 0.12294 0.0
C1745 C 0.51567 0.17567 0.11712 0.0
C1746 C 0.53103 0.19183 0.13446 0.0
C1747 C 0.52212 0.19631 0.15761 0.0
H1748 H 0.82944 0.36771 0.05686 0.0
H1749 H 0.90112 0.37681 0.06038 0.0
H1750 H 0.81865 0.34254 0.09593 0.0
H1751 H 0.89018 0.35155 0.09882 0.0
H1752 H 0.85327 0.28284 0.14023 0.0
H1753 H 0.8605 0.30858 0.10287 0.0
H1754 H 0.83166 0.3438 0.14703 0.0
H1755 H 0.82461 0.31811 0.18495 0.0
C1756 C 0.84291 0.36452 0.06606 0.0
C1757 C 0.86611 0.3742 0.05544 0.0
C1758 C 0.83673 0.35017 0.0884 0.0
C1759 C 0.85354 0.34496 0.10013 0.0
C1760 C 0.87683 0.35512 0.08995 0.0
C1761 C 0.8831 0.3697 0.06801 0.0
C1762 C 0.8482 0.29588 0.14202 0.0
C1763 C 0.83854 0.2985 0.16572 0.0
C1764 C 0.85246 0.31068 0.12062 0.0
C1765 C 0.84689 0.32829 0.12222 0.0
C1766 C 0.83612 0.33034 0.14535 0.0
C1767 C 0.83213 0.31566 0.16701 0.0
H1768 H 0.67257 0.45174 0.05915 0.0
H1769 H 0.65206 0.5026 0.07431 0.0
H1770 H 0.69249 0.45839 0.10157 0.0
H1771 H 0.67218 0.50935 0.1166 0.0
H1772 H 0.7345 0.53228 0.17477 0.0
H1773 H 0.71474 0.52487 0.13224 0.0
H1774 H 0.68205 0.45416 0.15041 0.0
H1775 H 0.70161 0.46152 0.19306 0.0
C1776 C 0.6722 0.46427 0.07156 0.0
C1777 C 0.66067 0.47661 0.06329 0.0
C1778 C 0.68358 0.46803 0.0959 0.0
C1779 C 0.68405 0.48448 0.1124 0.0
C1780 C 0.67238 0.49673 0.10422 0.0
C1781 C 0.66068 0.49273 0.08007 0.0
C1782 C 0.72327 0.51514 0.16963 0.0
C1783 C 0.71967 0.49749 0.18738 0.0
C1784 C 0.71179 0.51091 0.14534 0.0
C1785 C 0.69671 0.48893 0.13799 0.0
C1786 C 0.69362 0.47127 0.15542 0.0
C1787 C 0.70481 0.4755 0.17989 0.0
H1788 H 0.47287 0.85024 1.0297 0.0
H1789 H 0.54949 0.8856 1.02663 0.0
H1790 H 0.47258 0.83566 0.98628 0.0
H1791 H 0.54927 0.87052 0.98381 0.0
H1792 H 0.54104 0.85662 0.89634 0.0
H1793 H 0.54062 0.87238 0.93873 0.0
H1794 H 0.48131 0.80982 0.96446 0.0
H1795 H 0.48153 0.79433 0.92194 0.0
C1796 C 0.48965 0.85484 1.01982 0.0
C1797 C 0.51118 0.86911 1.03169 0.0
C1798 C 0.48951 0.84637 0.99496 0.0
C1799 C 0.51092 0.85184 0.98141 0.0
C1800 C 0.53242 0.86619 0.99334 0.0
C1801 C 0.53254 0.87475 1.01806 0.0
C1802 C 0.52801 0.84622 0.9111 0.0
C1803 C 0.51131 0.82422 0.90567 0.0
C1804 C 0.52776 0.85523 0.93548 0.0
C1805 C 0.51091 0.84242 0.95517 0.0
C1806 C 0.49426 0.82038 0.94969 0.0
C1807 C 0.49442 0.81144 0.92528 0.0
H1808 H 0.21991 0.68466 0.87475 0.0
H1809 H 0.16547 0.70159 0.8983 0.0
H1810 H 0.22095 0.67145 0.92008 0.0
H1811 H 0.16668 0.6887 0.94315 0.0
H1812 H 0.18923 0.68376 1.02559 0.0
H1813 H 0.19538 0.69959 0.98091 0.0
H1814 H 0.19128 0.63911 0.95107 0.0
H1815 H 0.18504 0.62305 0.99597 0.0
C1816 C 0.20838 0.68577 0.88961 0.0
C1817 C 0.19259 0.69413 0.88296 0.0
C1818 C 0.20889 0.67811 0.91546 0.0
C1819 C 0.19396 0.67913 0.93516 0.0
C1820 C 0.17859 0.68794 0.92851 0.0
C1821 C 0.17781 0.6952 0.90274 0.0
C1822 C 0.18994 0.67387 1.00962 0.0
C1823 C 0.18636 0.652 1.01439 0.0
C1824 C 0.1934 0.68296 0.98399 0.0
C1825 C 0.19358 0.67051 0.96248 0.0
C1826 C 0.19133 0.64912 0.96729 0.0
C1827 C 0.18764 0.6399 0.993 0.0
H1828 H 0.38832 0.56955 0.97348 0.0
H1829 H 0.34947 0.50288 1.00701 0.0
H1830 H 0.36927 0.55688 0.93149 0.0
H1831 H 0.32942 0.49005 0.96508 0.0
H1832 H 0.315 0.47089 0.8782 0.0
H1833 H 0.33305 0.48209 0.92115 0.0
H1834 H 0.33375 0.5457 0.90953 0.0
H1835 H 0.31681 0.53483 0.86616 0.0
C1836 C 0.37545 0.55217 0.9719 0.0
C1837 C 0.37029 0.53725 0.99361 0.0
C1838 C 0.36434 0.54486 0.9478 0.0
C1839 C 0.34741 0.52243 0.94474 0.0
C1840 C 0.34248 0.5074 0.96646 0.0
C1841 C 0.35392 0.51471 0.99055 0.0
C1842 C 0.31888 0.48722 0.88492 0.0
C1843 C 0.31459 0.50202 0.86863 0.0
C1844 C 0.32917 0.49364 0.90968 0.0
C1845 C 0.3352 0.51496 0.91895 0.0
C1846 C 0.33004 0.52939 0.90294 0.0
C1847 C 0.32008 0.52309 0.87807 0.0
H1848 H 0.13194 0.501 0.47326 0.0
H1849 H 0.20026 0.54299 0.5067 0.0
H1850 H 0.15143 0.49737 0.43387 0.0
H1851 H 0.21989 0.53923 0.46704 0.0
H1852 H 0.24032 0.49838 0.4072 0.0
H1853 H 0.22415 0.50787 0.44563 0.0
H1854 H 0.17636 0.51972 0.39546 0.0
H1855 H 0.19241 0.51032 0.35716 0.0
C1856 C 0.15116 0.50968 0.47209 0.0
C1857 C 0.16452 0.52231 0.49316 0.0
C1858 C 0.16234 0.50766 0.44942 0.0
C1859 C 0.18724 0.51798 0.44727 0.0
C1860 C 0.20068 0.53095 0.46815 0.0
C1861 C 0.18944 0.53326 0.49076 0.0
C1862 C 0.22656 0.50326 0.40431 0.0
C1863 C 0.21761 0.50342 0.37902 0.0
C1864 C 0.21736 0.50881 0.42635 0.0
C1865 C 0.19883 0.51441 0.42366 0.0
C1866 C 0.19042 0.51523 0.39828 0.0
C1867 C 0.19974 0.50991 0.37628 0.0
H1868 H 0.55612 0.64927 0.49759 0.0
H1869 H 0.48304 0.63487 0.5082 0.0
H1870 H 0.55932 0.67158 0.45811 0.0
H1871 H 0.48634 0.65736 0.46815 0.0
H1872 H 0.50034 0.67737 0.37634 0.0
H1873 H 0.49316 0.65655 0.41836 0.0
H1874 H 0.55922 0.7079 0.44745 0.0
H1875 H 0.56647 0.72871 0.40562 0.0
C1876 C 0.54065 0.65077 0.49147 0.0
C1877 C 0.51931 0.64026 0.50615 0.0
C1878 C 0.54259 0.66376 0.4689 0.0
C1879 C 0.52319 0.66647 0.46019 0.0
C1880 C 0.50161 0.65559 0.47443 0.0
C1881 C 0.49973 0.64273 0.49734 0.0
C1882 C 0.51315 0.68442 0.39185 0.0
C1883 C 0.53412 0.70462 0.38747 0.0
C1884 C 0.50897 0.67249 0.41595 0.0
C1885 C 0.52578 0.68043 0.43606 0.0
C1886 C 0.54611 0.70118 0.43216 0.0
C1887 C 0.55019 0.71318 0.40821 0.0
H1888 H 0.36294 0.79397 0.53138 0.0
H1889 H 0.39549 0.86406 0.50927 0.0
H1890 H 0.34214 0.78499 0.48942 0.0
H1891 H 0.3745 0.85504 0.46756 0.0
H1892 H 0.30982 0.83114 0.41286 0.0
H1893 H 0.3308 0.83868 0.45461 0.0
H1894 H 0.35149 0.78795 0.43974 0.0
H1895 H 0.33073 0.78053 0.39778 0.0
C1896 C 0.36583 0.80744 0.5175 0.0
C1897 C 0.38091 0.82973 0.52371 0.0
C1898 C 0.35393 0.80228 0.49347 0.0
C1899 C 0.35651 0.81932 0.47531 0.0
C1900 C 0.37192 0.84157 0.4813 0.0
C1901 C 0.38411 0.84671 0.50511 0.0
C1902 C 0.31863 0.82143 0.41858 0.0
C1903 C 0.31858 0.80522 0.40196 0.0
C1904 C 0.33083 0.82589 0.4424 0.0
C1905 C 0.34295 0.81402 0.45037 0.0
C1906 C 0.34227 0.79733 0.43417 0.0
C1907 C 0.3304 0.79311 0.41013 0.0
H1908 H 0.27604 0.16604 0.18731 0.0
H1909 H 0.30913 0.17747 0.11039 0.0
H1910 H 0.31322 0.17337 0.20767 0.0
H1911 H 0.34702 0.18626 0.13075 0.0
H1912 H 0.40301 0.17338 0.17447 0.0
H1913 H 0.36783 0.17042 0.1519 0.0
H1914 H 0.35084 0.19823 0.21918 0.0
H1915 H 0.38505 0.19961 0.24195 0.0
C1916 C 0.29147 0.1707 0.17474 0.0
C1917 C 0.28958 0.17114 0.14722 0.0
C1918 C 0.31299 0.17506 0.18644 0.0
C1919 C 0.33344 0.18046 0.171 0.0
C1920 C 0.33169 0.18172 0.1434 0.0
C1921 C 0.30998 0.1769 0.13167 0.0
C1922 C 0.39173 0.17897 0.18416 0.0
C1923 C 0.39648 0.18647 0.20997 0.0
C1924 C 0.37159 0.17742 0.17125 0.0
C1925 C 0.35605 0.18381 0.18371 0.0
C1926 C 0.36175 0.19243 0.20911 0.0
C1927 C 0.38149 0.19344 0.22217 0.0
H1928 H 0.88693 0.21131 0.24373 0.0
H1929 H 0.83086 0.20666 0.19268 0.0
H1930 H 0.88231 0.17596 0.22819 0.0
H1931 H 0.8265 0.17151 0.17654 0.0
H1932 H 0.80903 0.09844 0.1725 0.0
H1933 H 0.81316 0.13342 0.18829 0.0
H1934 H 0.8892 0.15931 0.19124 0.0
H1935 H 0.88502 0.12397 0.177 0.0
C1936 C 0.87375 0.20282 0.22899 0.0
C1937 C 0.85927 0.21181 0.21946 0.0
C1938 C 0.87113 0.18255 0.21997 0.0
C1939 C 0.85408 0.17081 0.20097 0.0
C1940 C 0.83956 0.17983 0.19147 0.0
C1941 C 0.84205 0.20002 0.20069 0.0
C1942 C 0.82665 0.11143 0.17674 0.0
C1943 C 0.84664 0.10805 0.17352 0.0
C1944 C 0.82904 0.1317 0.18552 0.0
C1945 C 0.85152 0.14929 0.19116 0.0
C1946 C 0.87154 0.14607 0.18755 0.0
C1947 C 0.86914 0.12575 0.17897 0.0
H1948 H 0.82702 0.63751 0.26504 0.0
H1949 H 0.80802 0.60166 0.19263 0.0
H1950 H 0.85635 0.67049 0.24112 0.0
H1951 H 0.83775 0.63464 0.16889 0.0
H1952 H 0.91152 0.68995 0.14262 0.0
H1953 H 0.88181 0.65724 0.16662 0.0
H1954 H 0.85828 0.6985 0.20704 0.0
H1955 H 0.88772 0.7313 0.18269 0.0
C1956 C 0.82886 0.63661 0.24403 0.0
C1957 C 0.81497 0.61674 0.23087 0.0
C1958 C 0.84577 0.65558 0.23031 0.0
C1959 C 0.84939 0.65517 0.20313 0.0
C1960 C 0.83559 0.63538 0.18992 0.0
C1961 C 0.81854 0.61643 0.20359 0.0
C1962 C 0.89992 0.69214 0.15638 0.0
C1963 C 0.90206 0.7134 0.16049 0.0
C1964 C 0.88287 0.67332 0.17018 0.0
C1965 C 0.86762 0.67526 0.18863 0.0
C1966 C 0.86993 0.6965 0.19312 0.0
C1967 C 0.8869 0.71534 0.17916 0.0
H1968 H 0.20954 0.41541 0.36957 0.0
H1969 H 0.18461 0.37603 0.30028 0.0
H1970 H 0.20865 0.38337 0.39373 0.0
H1971 H 0.18375 0.34419 0.32425 0.0
H1972 H 0.15948 0.28522 0.38321 0.0
H1973 H 0.16134 0.3176 0.35925 0.0
H1974 H 0.22796 0.3598 0.39604 0.0
H1975 H 0.22609 0.32743 0.42 0.0
C1976 C 0.2041 0.40002 0.35942 0.0
C1977 C 0.19695 0.39828 0.33305 0.0
C1978 C 0.20357 0.38164 0.37325 0.0
C1979 C 0.19594 0.36112 0.36099 0.0
C1980 C 0.18923 0.35955 0.33449 0.0
C1981 C 0.18973 0.37787 0.32072 0.0
C1982 C 0.17464 0.30134 0.38601 0.0
C1983 C 0.19261 0.30365 0.40359 0.0
C1984 C 0.17571 0.31995 0.37228 0.0
C1985 C 0.1948 0.34135 0.37572 0.0
C1986 C 0.21281 0.34365 0.39323 0.0
C1987 C 0.21173 0.32504 0.40697 0.0
H1988 H 0.68603 0.81538 0.31683 0.0
H1989 H 0.63901 0.80778 0.38184 0.0
H1990 H 0.71605 0.85012 0.33434 0.0
H1991 H 0.66921 0.84251 0.39966 0.0
H1992 H 0.71952 0.91711 0.40864 0.0
H1993 H 0.68915 0.88222 0.39173 0.0
H1994 H 0.74329 0.86442 0.3696 0.0
H1995 H 0.77368 0.89971 0.38524 0.0
C1996 C 0.68219 0.82098 0.33505 0.0
C1997 C 0.6601 0.80871 0.34796 0.0
C1998 C 0.69945 0.84094 0.34514 0.0
C1999 C 0.69516 0.84915 0.36851 0.0
C2000 C 0.67304 0.83689 0.38143 0.0
C2001 C 0.65571 0.81694 0.37124 0.0
C2002 C 0.72502 0.90589 0.39997 0.0
C2003 C 0.7492 0.91143 0.39829 0.0
C2004 C 0.70752 0.88569 0.39054 0.0
C2005 C 0.7137 0.87044 0.37921 0.0
C2006 C 0.73784 0.87586 0.37783 0.0
C2007 C 0.75533 0.89606 0.38718 0.0
H2008 H 0.20173 0.80456 0.36892 0.0
H2009 H 0.22843 0.87049 0.33316 0.0
H2010 H 0.16804 0.8077 0.38763 0.0
H2011 H 0.19476 0.8734 0.35109 0.0
H2012 H 0.14611 0.8823 0.40769 0.0
H2013 H 0.17947 0.87722 0.39324 0.0
H2014 H 0.1315 0.80944 0.37336 0.0
H2015 H 0.09782 0.81441 0.38827 0.0
C2016 C 0.20049 0.81974 0.36516 0.0
C2017 C 0.21779 0.83725 0.34948 0.0
C2018 C 0.18107 0.82145 0.37565 0.0
C2019 C 0.17869 0.84082 0.37093 0.0
C2020 C 0.19613 0.85834 0.35543 0.0
C2021 C 0.21536 0.85658 0.34487 0.0
C2022 C 0.14256 0.86623 0.40039 0.0
C2023 C 0.11917 0.84882 0.39896 0.0
C2024 C 0.16176 0.86336 0.39197 0.0
C2025 C 0.15819 0.84301 0.38184 0.0
C2026 C 0.13489 0.8253 0.38118 0.0
C2027 C 0.11558 0.82819 0.38961 0.0
H2028 H 0.71385 0.86312 0.91567 0.0
H2029 H 0.73456 0.84322 0.8447 0.0
H2030 H 0.67833 0.86008 0.89441 0.0
H2031 H 0.69824 0.83884 0.82347 0.0
H2032 H 0.63725 0.84558 0.78576 0.0
H2033 H 0.67556 0.85447 0.80519 0.0
H2034 H 0.64149 0.83341 0.88186 0.0
H2035 H 0.60379 0.82577 0.86267 0.0
C2036 C 0.71063 0.85794 0.89547 0.0
C2037 C 0.72679 0.85321 0.88188 0.0
C2038 C 0.69016 0.85602 0.88326 0.0
C2039 C 0.68497 0.8488 0.85724 0.0
C2040 C 0.7016 0.84467 0.84339 0.0
C2041 C 0.72239 0.84705 0.85553 0.0
C2042 C 0.63807 0.84314 0.80682 0.0
C2043 C 0.61744 0.83505 0.82265 0.0
C2044 C 0.66004 0.84805 0.81798 0.0
C2045 C 0.66187 0.8447 0.84521 0.0
C2046 C 0.64114 0.83676 0.86096 0.0
C2047 C 0.61934 0.83221 0.84989 0.0
H2048 H 0.2154 0.79741 0.81294 0.0
H2049 H 0.14098 0.7634 0.83415 0.0
H2050 H 0.21869 0.83193 0.82985 0.0
H2051 H 0.14426 0.79767 0.85176 0.0
H2052 H 0.15221 0.86681 0.86082 0.0
H2053 H 0.14939 0.83373 0.84085 0.0
H2054 H 0.21904 0.84924 0.86947 0.0
H2055 H 0.22254 0.88304 0.88803 0.0
C2056 C 0.19978 0.79728 0.82142 0.0
C2057 C 0.17795 0.77766 0.82222 0.0
C2058 C 0.20165 0.81707 0.83121 0.0
C2059 C 0.18176 0.81769 0.84232 0.0
C2060 C 0.15988 0.79802 0.84296 0.0
C2061 C 0.15798 0.7783 0.83292 0.0
C2062 C 0.16713 0.86348 0.86263 0.0
C2063 C 0.18761 0.87786 0.87628 0.0
C2064 C 0.16536 0.84421 0.85138 0.0
C2065 C 0.18392 0.83862 0.85359 0.0
C2066 C 0.20446 0.85305 0.86702 0.0
C2067 C 0.20633 0.87242 0.87807 0.0
H2068 H 0.23702 0.35804 0.80291 0.0
H2069 H 0.21576 0.40038 0.84473 0.0
H2070 H 0.20693 0.32548 0.82707 0.0
H2071 H 0.18575 0.36788 0.86886 0.0
H2072 H 0.15276 0.3089 0.92723 0.0
H2073 H 0.18295 0.34069 0.90245 0.0
H2074 H 0.16394 0.30244 0.83194 0.0
H2075 H 0.13356 0.27044 0.8569 0.0
C2076 C 0.22583 0.36043 0.81708 0.0
C2077 C 0.22894 0.38193 0.82188 0.0
C2078 C 0.20855 0.34172 0.83094 0.0
C2079 C 0.19394 0.34403 0.84998 0.0
C2080 C 0.19697 0.36551 0.85467 0.0
C2081 C 0.21423 0.38419 0.84082 0.0
C2082 C 0.15481 0.30725 0.90641 0.0
C2083 C 0.14051 0.28711 0.89404 0.0
C2084 C 0.17217 0.32554 0.89216 0.0
C2085 C 0.17577 0.32423 0.86513 0.0
C2086 C 0.16179 0.30397 0.85279 0.0
C2087 C 0.14436 0.28561 0.86709 0.0
H2088 H 0.83324 0.70896 0.66324 0.0
H2089 H 0.90167 0.75364 0.69464 0.0
H2090 H 0.83391 0.67785 0.68708 0.0
H2091 H 0.90173 0.72258 0.71976 0.0
H2092 H 0.90677 0.65771 0.73397 0.0
H2093 H 0.90618 0.6901 0.71288 0.0
H2094 H 0.8309 0.6611 0.72946 0.0
H2095 H 0.83153 0.62852 0.75005 0.0
C2096 C 0.84843 0.71223 0.67529 0.0
C2097 C 0.86753 0.7339 0.67667 0.0
C2098 C 0.84865 0.69435 0.68933 0.0
C2099 C 0.86789 0.69761 0.70538 0.0
C2100 C 0.88676 0.71936 0.70731 0.0
C2101 C 0.88659 0.73728 0.69312 0.0
C2102 C 0.89015 0.65836 0.73333 0.0
C2103 C 0.86917 0.64048 0.74358 0.0
C2104 C 0.8898 0.67698 0.72129 0.0
C2105 C 0.86848 0.67827 0.71936 0.0
C2106 C 0.84758 0.66053 0.7301 0.0
C2107 C 0.84791 0.64184 0.74195 0.0
H2108 H 0.30174 0.1485 0.7115 0.0
H2109 H 0.354 0.14456 0.661 0.0
H2110 H 0.33257 0.18267 0.72961 0.0
H2111 H 0.38475 0.17862 0.67912 0.0
H2112 H 0.43724 0.22546 0.73783 0.0
H2113 H 0.40589 0.19166 0.71997 0.0
H2114 H 0.35945 0.22176 0.71771 0.0
H2115 H 0.39093 0.25571 0.73557 0.0
C2116 C 0.31972 0.15498 0.70406 0.0
C2117 C 0.32532 0.14364 0.68482 0.0
C2118 C 0.33743 0.1746 0.71447 0.0
C2119 C 0.36117 0.18336 0.70591 0.0
C2120 C 0.36672 0.17213 0.68652 0.0
C2121 C 0.34905 0.15255 0.67612 0.0
C2122 C 0.42046 0.22502 0.73332 0.0
C2123 C 0.41674 0.24345 0.73804 0.0
C2124 C 0.40244 0.20558 0.72307 0.0
C2125 C 0.38017 0.204 0.71726 0.0
C2126 C 0.37631 0.22231 0.72224 0.0
C2127 C 0.39437 0.2418 0.73249 0.0
H2128 H 0.87083 0.17338 0.64803 0.0
H2129 H 0.89961 0.16478 0.72182 0.0
H2130 H 0.83921 0.17596 0.67147 0.0
H2131 H 0.86707 0.16628 0.74545 0.0
H2132 H 0.82721 0.20332 0.77646 0.0
H2133 H 0.85549 0.19385 0.7559 0.0
H2134 H 0.80379 0.15729 0.69725 0.0
H2135 H 0.77563 0.16744 0.71745 0.0
C2136 C 0.87037 0.17191 0.66929 0.0
C2137 C 0.88812 0.16927 0.68299 0.0
C2138 C 0.85191 0.17303 0.68279 0.0
C2139 C 0.85051 0.17142 0.71045 0.0
C2140 C 0.86774 0.16791 0.72417 0.0
C2141 C 0.8863 0.16683 0.7106 0.0
C2142 C 0.82171 0.19303 0.75936 0.0
C2143 C 0.79918 0.18636 0.74847 0.0
C2144 C 0.83795 0.18745 0.74762 0.0
C2145 C 0.8321 0.17493 0.72472 0.0
C2146 C 0.80912 0.16732 0.71457 0.0
C2147 C 0.79287 0.173 0.72627 0.0
H2148 H 0.07441 0.54641 0.53816 0.0
H2149 H 0.03443 0.47572 0.5557 0.0
H2150 H 0.03873 0.5462 0.51983 0.0
H2151 H 0.99895 0.47557 0.53817 0.0
H2152 H 0.94429 0.47667 0.48341 0.0
H2153 H 0.98215 0.4795 0.49688 0.0
H2154 H 0.99941 0.54121 0.53476 0.0
H2155 H 0.96146 0.53857 0.52089 0.0
C2156 C 0.05809 0.53082 0.53794 0.0
C2157 C 0.0573 0.5111 0.54851 0.0
C2158 C 0.03759 0.53073 0.52769 0.0
C2159 C 1.01592 0.51086 0.52748 0.0
C2160 C 1.01533 0.49114 0.53768 0.0
C2161 C 0.03567 0.49126 0.54804 0.0
C2162 C 0.95616 0.49096 0.49445 0.0
C2163 C 0.94965 0.5073 0.50124 0.0
C2164 C 0.97789 0.49252 0.5023 0.0
C2165 C 0.99378 0.51045 0.51718 0.0
C2166 C 0.98768 0.52724 0.52319 0.0
C2167 C 0.96585 0.52566 0.51534 0.0
H2168 H 0.56043 0.55215 0.56396 0.0
H2169 H 0.48719 0.53155 0.54518 0.0
H2170 H 0.55773 0.51901 0.54379 0.0
H2171 H 0.48444 0.49831 0.52505 0.0
H2172 H 0.49566 0.4532 0.46771 0.0
H2173 H 0.49839 0.48649 0.48747 0.0
H2174 H 0.53948 0.47899 0.55086 0.0
H2175 H 0.5368 0.44568 0.531 0.0
C2176 C 0.54368 0.54049 0.5557 0.0
C2177 C 0.52401 0.54456 0.55628 0.0
C2178 C 0.54213 0.52143 0.54414 0.0
C2179 C 0.52084 0.5059 0.53285 0.0
C2180 C 0.50121 0.51005 0.53323 0.0
C2181 C 0.50279 0.52914 0.54477 0.0
C2182 C 0.50509 0.45849 0.48598 0.0
C2183 C 0.51599 0.44667 0.49775 0.0
C2184 C 0.50666 0.47762 0.49734 0.0
C2185 C 0.51914 0.48547 0.52079 0.0
C2186 C 0.53003 0.47365 0.53258 0.0
C2187 C 0.52849 0.45451 0.52119 0.0
H2188 H 0.54982 0.06412 0.50896 0.0
H2189 H 0.58188 0.02357 0.48579 0.0
H2190 H 0.51843 0.03198 0.53238 0.0
H2191 H 0.55057 0.99146 0.50922 0.0
H2192 H 0.47637 0.9339 0.52798 0.0
H2193 H 0.50849 0.96623 0.50576 0.0
H2194 H 0.51113 1.00708 0.5705 0.0
H2195 H 0.47899 0.97475 0.59271 0.0
C2196 C 0.55036 0.04844 0.50911 0.0
C2197 C 0.56836 0.04646 0.49537 0.0
C2198 C 0.53234 0.02998 0.52254 0.0
C2199 C 0.5319 1.00909 0.5226 0.0
C2200 C 0.5501 1.00719 0.50918 0.0
C2201 C 0.56808 0.02563 0.49574 0.0
C2202 C 0.48394 0.9497 0.53762 0.0
C2203 C 0.47502 0.95167 0.56215 0.0
C2204 C 0.50238 0.96827 0.52487 0.0
C2205 C 0.51241 0.98929 0.53633 0.0
C2206 C 0.50358 0.99124 0.56091 0.0
C2207 C 0.48512 0.97267 0.57366 0.0
H2208 H 0.52779 0.042 0.9674 0.0
H2209 H 0.54595 0.08063 0.03775 0.0
H2210 H 0.52076 1.00908 0.99357 0.0
H2211 H 0.54035 0.04793 0.06364 0.0
H2212 H 0.50347 0.98067 0.1071 0.0
H2213 H 0.51032 0.01354 0.08049 0.0
H2214 H 0.53914 0.99138 1.01777 0.0
H2215 H 0.53155 0.95809 0.04436 0.0
C2216 C 0.53037 0.04363 0.9884 0.0
C2217 C 0.53731 0.06423 1.00028 0.0
C2218 C 0.52663 0.02466 1.00344 0.0
C2219 C 0.52993 0.0257 1.03082 0.0
C2220 C 0.53723 0.04633 0.04268 0.0
C2221 C 0.54076 0.06527 1.02767 0.0
C2222 C 0.51137 0.98288 0.08768 0.0
C2223 C 0.51705 0.96682 0.07787 0.0
C2224 C 0.5154 1.00181 0.0724 0.0
C2225 C 0.52547 1.00533 0.04696 0.0
C2226 C 0.53106 0.98915 0.0371 0.0
C2227 C 0.52677 0.97006 0.05233 0.0
H2228 H 1.01809 0.47472 0.99991 0.0
H2229 H 0.96283 0.49004 1.02461 0.0
H2230 H 0.04771 0.50841 1.01994 0.0
H2231 H 0.99247 0.52405 0.04431 0.0
H2232 H 0.09698 0.58174 1.03242 0.0
H2233 H 0.06668 0.54786 1.0134 0.0
H2234 H 1.01995 0.53824 0.0796 0.0
H2235 H 0.05022 0.57244 0.09832 0.0
C2236 C 1.01229 0.48538 1.00948 0.0
C2237 C 0.98811 0.47972 1.01058 0.0
C2238 C 0.02929 0.50477 1.02092 0.0
C2239 C 1.02257 0.51912 0.03361 0.0
C2240 C 0.9983 0.51328 0.03501 0.0
C2241 C 0.98128 0.49378 1.02371 0.0
C2242 C 0.08028 0.57234 0.04296 0.0
C2243 C 0.07605 0.57977 0.06692 0.0
C2244 C 0.06289 0.55285 1.0321 0.0
C2245 C 0.04086 0.54016 0.04502 0.0
C2246 C 0.03656 0.54771 0.0689 0.0
C2247 C 0.05393 0.56732 0.07967 0.0
H2248 H 0.53891 0.50814 0.98078 0.0
H2249 H 0.56096 0.49248 0.05544 0.0
H2250 H 0.50732 0.51173 1.00274 0.0
H2251 H 0.52826 0.4948 0.07737 0.0
H2252 H 0.48833 0.53076 0.11025 0.0
H2253 H 0.51719 0.52185 0.09003 0.0
H2254 H 0.47026 0.49358 1.0246 0.0
H2255 H 0.44171 0.50335 0.04448 0.0
C2256 C 0.53705 0.50535 1.0019 0.0
C2257 C 0.55294 0.50035 1.01626 0.0
C2258 C 0.51852 0.50705 1.01452 0.0
C2259 C 0.51508 0.50361 0.04195 0.0
C2260 C 0.5305 0.49792 0.05628 0.0
C2261 C 0.54918 0.49634 0.04362 0.0
C2262 C 0.484 0.52242 0.09168 0.0
C2263 C 0.46272 0.51795 0.07891 0.0
C2264 C 0.50057 0.51716 0.0801 0.0
C2265 C 0.49629 0.50712 0.05549 0.0
C2266 C 0.47449 0.50174 0.04328 0.0
C2267 C 0.45797 0.50717 0.05479 0.0
loop_
_geom_bond_atom_site_label_1
_geom_bond_atom_site_label_2
_geom_bond_distance
_geom_bond_site_symmetry_2
_ccdc_geom_bond_type
Cu0 N1 1.999 . S
Cu0 O6 1.974 . S
Cu0 N11 1.985 . S
Cu0 O20 1.959 . S
N1 Cu0 1.999 . S
N1 C3 1.263 . S
N1 C5 1.389 . S
N2 C3 1.358 . S
N2 C4 1.400 . S
C3 N1 1.263 . S
C3 N2 1.358 . S
C3 H9 0.930 . S
C4 N2 1.400 . S
C4 C5 1.351 . S
C4 H21 0.930 . S
C5 N1 1.389 . S
C5 C4 1.351 . S
C5 H10 0.930 . S
O6 Cu0 1.974 . S
O6 C16 1.282 . S
C7 O8 1.261 . S
C7 O20 1.251 . S
O8 C7 1.261 . S
H9 C3 0.930 . S
H10 C5 0.930 . S
N11 Cu0 1.985 . S
N11 C13 1.335 . S
N11 C14 1.390 . S
N12 C13 1.345 . S
N12 C15 1.336 . S
C13 N11 1.335 . S
C13 N12 1.345 . S
C13 H18 0.930 . S
C14 N11 1.390 . S
C14 C15 1.346 . S
C14 H19 0.930 . S
C15 N12 1.336 . S
C15 C14 1.346 . S
C15 H22 0.929 . S
C16 O6 1.282 . S
C16 O17 1.216 . S
O17 C16 1.216 . S
H18 C13 0.930 . S
H19 C14 0.930 . S
O20 Cu0 1.959 . S
O20 C7 1.251 . S
H21 C4 0.930 . S
H22 C15 0.929 . S
Cu23 N24 1.999 . S
Cu23 O29 1.974 . S
Cu23 N34 1.985 . S
Cu23 O43 1.959 . S
N24 Cu23 1.999 . S
N24 C26 1.263 . S
N24 C28 1.385 1_545 S
N25 C26 1.358 1_565 S
N25 C27 1.400 . S
C26 N24 1.263 . S
C26 N25 1.358 1_545 S
C26 H32 0.930 . S
C27 N25 1.400 . S
C27 C28 1.357 . S
C27 H44 0.930 . S
C28 N24 1.385 1_565 S
C28 C27 1.357 . S
C28 H33 0.928 . S
O29 Cu23 1.974 . S
O29 C39 1.282 . S
C30 O31 1.261 . S
C30 O43 1.251 . S
O31 C30 1.261 . S
H32 C26 0.930 . S
H33 C28 0.928 . S
N34 Cu23 1.985 . S
N34 C36 1.335 . S
N34 C37 1.390 . S
N35 C36 1.345 . S
N35 C38 1.336 . S
C36 N34 1.335 . S
C36 N35 1.345 . S
C36 H41 0.930 . S
C37 N34 1.390 . S
C37 C38 1.346 . S
C37 H42 0.930 . S
C38 N35 1.336 . S
C38 C37 1.346 . S
C38 H45 0.929 . S
C39 O29 1.282 . S
C39 O40 1.216 . S
O40 C39 1.216 . S
H41 C36 0.930 . S
H42 C37 0.930 . S
O43 Cu23 1.959 . S
O43 C30 1.251 . S
H44 C27 0.930 . S
H45 C38 0.929 . S
Cu46 N47 1.999 . S
Cu46 O52 1.974 . S
Cu46 N57 1.985 . S
Cu46 O66 1.959 . S
N47 Cu46 1.999 . S
N47 C49 1.263 . S
N47 C51 1.389 . S
N48 C49 1.358 . S
N48 C50 1.400 1_655 S
C49 N47 1.263 . S
C49 N48 1.358 . S
C49 H55 0.930 . S
C50 N48 1.400 1_455 S
C50 C51 1.351 1_455 S
C50 H67 0.930 . S
C51 N47 1.389 . S
C51 C50 1.351 1_655 S
C51 H56 0.930 . S
O52 Cu46 1.974 . S
O52 C62 1.282 . S
C53 O54 1.261 . S
C53 O66 1.251 . S
O54 C53 1.261 . S
H55 C49 0.930 . S
H56 C51 0.930 . S
N57 Cu46 1.985 . S
N57 C59 1.335 . S
N57 C60 1.390 . S
N58 C59 1.345 . S
N58 C61 1.336 . S
C59 N57 1.335 . S
C59 N58 1.345 . S
C59 H64 0.930 . S
C60 N57 1.390 . S
C60 C61 1.346 . S
C60 H65 0.930 . S
C61 N58 1.336 . S
C61 C60 1.346 . S
C61 H68 0.929 . S
C62 O52 1.282 . S
C62 O63 1.216 . S
O63 C62 1.216 . S
H64 C59 0.930 . S
H65 C60 0.930 . S
O66 Cu46 1.959 . S
O66 C53 1.251 . S
H67 C50 0.930 . S
H68 C61 0.929 . S
Cu69 N70 1.999 . S
Cu69 O75 1.974 . S
Cu69 N80 1.985 . S
Cu69 O89 1.959 . S
N70 Cu69 1.999 . S
N70 C72 1.263 . S
N70 C74 1.389 . S
N71 C72 1.358 . S
N71 C73 1.400 . S
C72 N70 1.263 . S
C72 N71 1.358 . S
C72 H78 0.930 . S
C73 N71 1.400 . S
C73 C74 1.351 . S
C73 H90 0.930 . S
C74 N70 1.389 . S
C74 C73 1.351 . S
C74 H79 0.930 . S
O75 Cu69 1.974 . S
O75 C85 1.282 . S
C76 O77 1.261 . S
C76 O89 1.251 . S
O77 C76 1.261 . S
H78 C72 0.930 . S
H79 C74 0.930 . S
N80 Cu69 1.985 . S
N80 C82 1.335 . S
N80 C83 1.390 . S
N81 C82 1.345 . S
N81 C84 1.336 . S
C82 N80 1.335 . S
C82 N81 1.345 . S
C82 H87 0.930 . S
C83 N80 1.390 . S
C83 C84 1.346 . S
C83 H88 0.930 . S
C84 N81 1.336 . S
C84 C83 1.346 . S
C84 H91 0.929 . S
C85 O75 1.282 . S
C85 O86 1.216 . S
O86 C85 1.216 . S
H87 C82 0.930 . S
H88 C83 0.930 . S
O89 Cu69 1.959 . S
O89 C76 1.251 . S
H90 C73 0.930 . S
H91 C84 0.929 . S
Cu92 N93 1.999 . S
Cu92 O98 1.974 . S
Cu92 N103 1.985 . S
Cu92 O112 1.959 . S
N93 Cu92 1.999 . S
N93 C95 1.263 . S
N93 C97 1.389 . S
N94 C95 1.358 1_545 S
N94 C96 1.400 . S
C95 N93 1.263 . S
C95 N94 1.358 1_565 S
C95 H101 0.930 . S
C96 N94 1.400 . S
C96 C97 1.351 1_545 S
C96 H113 0.930 . S
C97 N93 1.389 . S
C97 C96 1.351 1_565 S
C97 H102 0.930 1_565 S
O98 Cu92 1.974 . S
O98 C108 1.282 . S
C99 O100 1.261 . S
C99 O112 1.251 . S
O100 C99 1.261 . S
H101 C95 0.930 . S
H102 C97 0.930 1_545 S
N103 Cu92 1.985 . S
N103 C105 1.335 . S
N103 C106 1.390 . S
N104 C105 1.345 . S
N104 C107 1.336 . S
C105 N103 1.335 . S
C105 N104 1.345 . S
C105 H110 0.930 . S
C106 N103 1.390 . S
C106 C107 1.346 . S
C106 H111 0.930 . S
C107 N104 1.336 . S
C107 C106 1.346 . S
C107 H114 0.929 . S
C108 O98 1.282 . S
C108 O109 1.216 . S
O109 C108 1.216 . S
H110 C105 0.930 . S
H111 C106 0.930 . S
O112 Cu92 1.959 . S
O112 C99 1.251 . S
H113 C96 0.930 . S
H114 C107 0.929 . S
Cu115 N116 1.999 . S
Cu115 O121 1.974 . S
Cu115 N126 1.985 . S
Cu115 O135 1.959 . S
N116 Cu115 1.999 . S
N116 C118 1.263 . S
N116 C120 1.389 . S
N117 C118 1.358 . S
N117 C119 1.400 . S
C118 N116 1.263 . S
C118 N117 1.358 . S
C118 H124 0.930 . S
C119 N117 1.400 . S
C119 C120 1.351 . S
C119 H136 0.930 1_455 S
C120 N116 1.389 . S
C120 C119 1.351 . S
C120 H125 0.930 . S
O121 Cu115 1.974 . S
O121 C131 1.282 . S
C122 O123 1.261 . S
C122 O135 1.251 . S
O123 C122 1.261 . S
H124 C118 0.930 . S
H125 C120 0.930 . S
N126 Cu115 1.985 . S
N126 C128 1.335 . S
N126 C129 1.390 . S
N127 C128 1.345 . S
N127 C130 1.336 . S
C128 N126 1.335 . S
C128 N127 1.345 . S
C128 H133 0.930 . S
C129 N126 1.390 . S
C129 C130 1.346 . S
C129 H134 0.930 . S
C130 N127 1.336 . S
C130 C129 1.346 . S
C130 H137 0.929 . S
C131 O121 1.282 . S
C131 O132 1.216 . S
O132 C131 1.216 . S
H133 C128 0.930 . S
H134 C129 0.930 . S
O135 Cu115 1.959 . S
O135 C122 1.251 . S
H136 C119 0.930 1_655 S
H137 C130 0.929 . S
Cu138 N139 1.999 . S
Cu138 O144 1.974 . S
Cu138 N149 1.985 . S
Cu138 O158 1.959 . S
N139 Cu138 1.999 . S
N139 C141 1.263 . S
N139 C143 1.389 . S
N140 C141 1.358 . S
N140 C142 1.400 . S
C141 N139 1.263 . S
C141 N140 1.358 . S
C141 H147 0.930 . S
C142 N140 1.400 . S
C142 C143 1.351 . S
C142 H159 0.930 . S
C143 N139 1.389 . S
C143 C142 1.351 . S
C143 H148 0.930 . S
O144 Cu138 1.974 . S
O144 C154 1.282 . S
C145 O146 1.261 . S
C145 O158 1.251 . S
O146 C145 1.261 . S
H147 C141 0.930 . S
H148 C143 0.930 . S
N149 Cu138 1.985 . S
N149 C151 1.335 . S
N149 C152 1.390 . S
N150 C151 1.345 . S
N150 C153 1.336 . S
C151 N149 1.335 . S
C151 N150 1.345 . S
C151 H156 0.930 . S
C152 N149 1.390 . S
C152 C153 1.346 . S
C152 H157 0.930 . S
C153 N150 1.336 . S
C153 C152 1.346 . S
C153 H160 0.929 . S
C154 O144 1.282 . S
C154 O155 1.216 . S
O155 C154 1.216 . S
H156 C151 0.930 . S
H157 C152 0.930 . S
O158 Cu138 1.959 . S
O158 C145 1.251 . S
H159 C142 0.930 . S
H160 C153 0.929 . S
Cu161 N162 1.999 . S
Cu161 O167 1.974 . S
Cu161 N172 1.985 . S
Cu161 O181 1.959 . S
N162 Cu161 1.999 . S
N162 C164 1.263 . S
N162 C166 1.389 . S
N163 C164 1.358 . S
N163 C165 1.400 1_565 S
C164 N162 1.263 . S
C164 N163 1.358 . S
C164 H170 0.930 . S
C165 N163 1.400 1_545 S
C165 C166 1.351 1_545 S
C165 H182 0.930 . S
C166 N162 1.389 . S
C166 C165 1.351 1_565 S
C166 H171 0.930 . S
O167 Cu161 1.974 . S
O167 C177 1.282 . S
C168 O169 1.261 . S
C168 O181 1.251 . S
O169 C168 1.261 . S
H170 C164 0.930 . S
H171 C166 0.930 . S
N172 Cu161 1.985 . S
N172 C174 1.335 . S
N172 C175 1.390 . S
N173 C174 1.345 . S
N173 C176 1.336 . S
C174 N172 1.335 . S
C174 N173 1.345 . S
C174 H179 0.930 . S
C175 N172 1.390 . S
C175 C176 1.346 . S
C175 H180 0.930 . S
C176 N173 1.336 . S
C176 C175 1.346 . S
C176 H183 0.929 . S
C177 O167 1.282 . S
C177 O178 1.216 . S
O178 C177 1.216 . S
H179 C174 0.930 . S
H180 C175 0.930 . S
O181 Cu161 1.959 . S
O181 C168 1.251 . S
H182 C165 0.930 . S
H183 C176 0.929 . S
Cu184 N185 1.999 . S
Cu184 O190 1.974 . S
Cu184 N195 1.985 . S
Cu184 O204 1.959 . S
N185 Cu184 1.999 . S
N185 C187 1.263 . S
N185 C189 1.389 . S
N186 C187 1.358 . S
N186 C188 1.400 1_455 S
C187 N185 1.263 . S
C187 N186 1.358 . S
C187 H193 0.930 . S
C188 N186 1.400 1_655 S
C188 C189 1.351 1_655 S
C188 H205 0.930 . S
C189 N185 1.389 . S
C189 C188 1.351 1_455 S
C189 H194 0.941 . S
O190 Cu184 1.974 . S
O190 C200 1.282 . S
C191 O192 1.261 . S
C191 O204 1.251 . S
O192 C191 1.261 . S
H193 C187 0.930 . S
H194 C189 0.941 . S
N195 Cu184 1.985 . S
N195 C197 1.335 . S
N195 C198 1.390 . S
N196 C197 1.345 . S
N196 C199 1.336 . S
C197 N195 1.335 . S
C197 N196 1.345 . S
C197 H202 0.930 . S
C198 N195 1.390 . S
C198 C199 1.346 . S
C198 H203 0.930 . S
C199 N196 1.336 . S
C199 C198 1.346 . S
C199 H206 0.929 . S
C200 O190 1.282 . S
C200 O201 1.216 . S
O201 C200 1.216 . S
H202 C197 0.930 . S
H203 C198 0.930 . S
O204 Cu184 1.959 . S
O204 C191 1.251 . S
H205 C188 0.930 . S
H206 C199 0.929 . S
Cu207 N208 1.999 . S
Cu207 O213 1.974 . S
Cu207 N218 1.985 . S
Cu207 O227 1.959 . S
N208 Cu207 1.999 . S
N208 C210 1.263 . S
N208 C212 1.389 . S
N209 C210 1.358 . S
N209 C211 1.400 . S
C210 N208 1.263 . S
C210 N209 1.358 . S
C210 H216 0.930 . S
C211 N209 1.400 . S
C211 C212 1.351 . S
C211 H228 0.930 . S
C212 N208 1.389 . S
C212 C211 1.351 . S
C212 H217 0.930 . S
O213 Cu207 1.974 . S
O213 C223 1.282 . S
C214 O215 1.261 . S
C214 O227 1.251 . S
O215 C214 1.261 . S
H216 C210 0.930 . S
H217 C212 0.930 . S
N218 Cu207 1.985 . S
N218 C220 1.335 . S
N218 C221 1.390 . S
N219 C220 1.345 . S
N219 C222 1.336 . S
C220 N218 1.335 . S
C220 N219 1.345 . S
C220 H225 0.930 . S
C221 N218 1.390 . S
C221 C222 1.346 . S
C221 H226 0.930 . S
C222 N219 1.336 . S
C222 C221 1.346 . S
C222 H229 0.929 . S
C223 O213 1.282 . S
C223 O224 1.216 . S
O224 C223 1.216 . S
H225 C220 0.930 . S
H226 C221 0.930 . S
O227 Cu207 1.959 . S
O227 C214 1.251 . S
H228 C211 0.930 . S
H229 C222 0.929 . S
Cu230 N231 1.999 . S
Cu230 O236 1.974 . S
Cu230 N241 1.985 . S
Cu230 O250 1.959 . S
N231 Cu230 1.999 . S
N231 C233 1.263 . S
N231 C235 1.389 . S
N232 C233 1.358 . S
N232 C234 1.400 1_545 S
C233 N231 1.263 . S
C233 N232 1.358 . S
C233 H239 0.930 . S
C234 N232 1.400 1_565 S
C234 C235 1.351 1_565 S
C234 H251 0.930 . S
C235 N231 1.389 . S
C235 C234 1.351 1_545 S
C235 H240 0.930 . S
O236 Cu230 1.974 . S
O236 C246 1.282 . S
C237 O238 1.261 . S
C237 O250 1.251 . S
O238 C237 1.261 . S
H239 C233 0.930 . S
H240 C235 0.930 . S
N241 Cu230 1.985 . S
N241 C243 1.335 . S
N241 C244 1.390 . S
N242 C243 1.345 . S
N242 C245 1.336 . S
C243 N241 1.335 . S
C243 N242 1.345 . S
C243 H248 0.930 . S
C244 N241 1.390 . S
C244 C245 1.346 . S
C244 H249 0.930 . S
C245 N242 1.336 . S
C245 C244 1.346 . S
C245 H252 0.929 . S
C246 O236 1.282 . S
C246 O247 1.216 . S
O247 C246 1.216 . S
H248 C243 0.930 . S
H249 C244 0.930 . S
O250 Cu230 1.959 . S
O250 C237 1.251 . S
H251 C234 0.930 . S
H252 C245 0.929 . S
Cu253 N254 1.999 . S
Cu253 O259 1.974 . S
Cu253 N264 1.985 . S
Cu253 O273 1.959 . S
N254 Cu253 1.999 . S
N254 C256 1.263 . S
N254 C258 1.389 . S
N255 C256 1.358 . S
N255 C257 1.400 1_655 S
C256 N254 1.263 . S
C256 N255 1.358 . S
C256 H262 0.930 . S
C257 N255 1.400 1_455 S
C257 C258 1.351 1_455 S
C257 H274 0.930 . S
C258 N254 1.389 . S
C258 C257 1.351 1_655 S
C258 H263 0.930 . S
O259 Cu253 1.974 . S
O259 C269 1.282 . S
C260 O261 1.261 . S
C260 O273 1.251 . S
O261 C260 1.261 . S
H262 C256 0.930 . S
H263 C258 0.930 . S
N264 Cu253 1.985 . S
N264 C266 1.335 . S
N264 C267 1.390 . S
N265 C266 1.345 . S
N265 C268 1.336 . S
C266 N264 1.335 . S
C266 N265 1.345 . S
C266 H271 0.930 . S
C267 N264 1.390 . S
C267 C268 1.346 . S
C267 H272 0.930 . S
C268 N265 1.336 . S
C268 C267 1.346 . S
C268 H275 0.929 . S
C269 O259 1.282 . S
C269 O270 1.216 . S
O270 C269 1.216 . S
H271 C266 0.930 . S
H272 C267 0.930 . S
O273 Cu253 1.959 . S
O273 C260 1.251 . S
H274 C257 0.930 . S
H275 C268 0.929 . S
Cu276 N277 1.999 . S
Cu276 O282 1.974 . S
Cu276 N287 1.985 . S
Cu276 O296 1.959 . S
N277 Cu276 1.999 . S
N277 C279 1.263 . S
N277 C281 1.389 . S
N278 C279 1.358 . S
N278 C280 1.400 . S
C279 N277 1.263 . S
C279 N278 1.358 . S
C279 H285 0.930 . S
C280 N278 1.400 . S
C280 C281 1.351 . S
C280 H297 0.930 . S
C281 N277 1.389 . S
C281 C280 1.351 . S
C281 H286 0.930 . S
O282 Cu276 1.974 . S
O282 C292 1.282 . S
C283 O284 1.261 . S
C283 O296 1.251 . S
O284 C283 1.261 . S
H285 C279 0.930 . S
H286 C281 0.930 . S
N287 Cu276 1.985 . S
N287 C289 1.335 . S
N287 C290 1.390 . S
N288 C289 1.345 . S
N288 C291 1.336 . S
C289 N287 1.335 . S
C289 N288 1.345 . S
C289 H294 0.930 . S
C290 N287 1.390 . S
C290 C291 1.346 . S
C290 H295 0.930 . S
C291 N288 1.336 . S
C291 C290 1.346 . S
C291 H298 0.929 . S
C292 O282 1.282 . S
C292 O293 1.216 . S
O293 C292 1.216 . S
H294 C289 0.930 . S
H295 C290 0.930 . S
O296 Cu276 1.959 . S
O296 C283 1.251 . S
H297 C280 0.930 . S
H298 C291 0.929 . S
Cu299 N300 1.999 . S
Cu299 O305 1.974 . S
Cu299 N310 1.985 . S
Cu299 O319 1.959 . S
N300 Cu299 1.999 . S
N300 C302 1.263 . S
N300 C304 1.389 . S
N301 C302 1.358 . S
N301 C303 1.400 . S
C302 N300 1.263 . S
C302 N301 1.358 . S
C302 H308 0.930 . S
C303 N301 1.400 . S
C303 C304 1.351 . S
C303 H320 0.930 . S
C304 N300 1.389 . S
C304 C303 1.351 . S
C304 H309 0.930 . S
O305 Cu299 1.974 . S
O305 C315 1.282 . S
C306 O307 1.261 . S
C306 O319 1.251 . S
O307 C306 1.261 . S
H308 C302 0.930 . S
H309 C304 0.930 . S
N310 Cu299 1.985 . S
N310 C312 1.335 . S
N310 C313 1.390 . S
N311 C312 1.345 . S
N311 C314 1.336 . S
C312 N310 1.335 . S
C312 N311 1.345 . S
C312 H317 0.930 . S
C313 N310 1.390 . S
C313 C314 1.346 . S
C313 H318 0.930 . S
C314 N311 1.336 . S
C314 C313 1.346 . S
C314 H321 0.929 . S
C315 O305 1.282 . S
C315 O316 1.216 . S
O316 C315 1.216 . S
H317 C312 0.930 . S
H318 C313 0.930 . S
O319 Cu299 1.959 . S
O319 C306 1.251 . S
H320 C303 0.930 . S
H321 C314 0.929 . S
Cu322 N323 1.999 . S
Cu322 O328 1.974 . S
Cu322 N333 1.985 . S
Cu322 O342 1.959 . S
N323 Cu322 1.999 . S
N323 C325 1.263 . S
N323 C327 1.389 . S
N324 C325 1.358 . S
N324 C326 1.400 . S
C325 N323 1.263 . S
C325 N324 1.358 . S
C325 H331 0.930 . S
C326 N324 1.400 . S
C326 C327 1.351 . S
C326 H343 0.930 . S
C327 N323 1.389 . S
C327 C326 1.351 . S
C327 H332 0.930 . S
O328 Cu322 1.974 . S
O328 C338 1.282 . S
C329 O330 1.261 . S
C329 O342 1.251 . S
O330 C329 1.261 . S
H331 C325 0.930 . S
H332 C327 0.930 . S
N333 Cu322 1.985 . S
N333 C335 1.335 . S
N333 C336 1.390 . S
N334 C335 1.345 . S
N334 C337 1.336 . S
C335 N333 1.335 . S
C335 N334 1.345 . S
C335 H340 0.930 . S
C336 N333 1.390 . S
C336 C337 1.346 . S
C336 H341 0.930 . S
C337 N334 1.336 . S
C337 C336 1.346 . S
C337 H344 0.929 . S
C338 O328 1.282 . S
C338 O339 1.216 . S
O339 C338 1.216 . S
H340 C335 0.930 . S
H341 C336 0.930 . S
O342 Cu322 1.959 . S
O342 C329 1.251 . S
H343 C326 0.930 . S
H344 C337 0.929 . S
Cu345 N346 1.999 . S
Cu345 O351 1.974 . S
Cu345 N356 1.985 . S
Cu345 O365 1.959 . S
N346 Cu345 1.999 . S
N346 C348 1.263 . S
N346 C350 1.389 . S
N347 C348 1.358 . S
N347 C349 1.400 . S
C348 N346 1.263 . S
C348 N347 1.358 . S
C348 H354 0.930 . S
C349 N347 1.400 . S
C349 C350 1.351 . S
C349 H366 0.930 . S
C350 N346 1.389 . S
C350 C349 1.351 . S
C350 H355 0.930 . S
O351 Cu345 1.974 . S
O351 C361 1.282 . S
C352 O353 1.261 . S
C352 O365 1.251 . S
O353 C352 1.261 . S
H354 C348 0.930 . S
H355 C350 0.930 . S
N356 Cu345 1.985 . S
N356 C358 1.335 . S
N356 C359 1.390 . S
N357 C358 1.345 . S
N357 C360 1.336 . S
C358 N356 1.335 . S
C358 N357 1.345 . S
C358 H363 0.930 . S
C359 N356 1.390 . S
C359 C360 1.346 . S
C359 H364 0.930 . S
C360 N357 1.336 . S
C360 C359 1.346 . S
C360 H367 0.929 . S
C361 O351 1.282 . S
C361 O362 1.216 . S
O362 C361 1.216 . S
H363 C358 0.930 . S
H364 C359 0.930 . S
O365 Cu345 1.959 . S
O365 C352 1.251 . S
H366 C349 0.930 . S
H367 C360 0.929 . S
Cu368 N369 1.999 . S
Cu368 O374 1.974 . S
Cu368 N379 1.985 . S
Cu368 O388 1.959 . S
N369 Cu368 1.999 . S
N369 C371 1.263 . S
N369 C373 1.389 . S
N370 C371 1.358 . S
N370 C372 1.400 . S
C371 N369 1.263 . S
C371 N370 1.358 . S
C371 H377 0.930 . S
C372 N370 1.400 . S
C372 C373 1.351 . S
C372 H389 0.930 . S
C373 N369 1.389 . S
C373 C372 1.351 . S
C373 H378 0.930 . S
O374 Cu368 1.974 . S
O374 C384 1.282 . S
C375 O376 1.261 . S
C375 O388 1.251 . S
O376 C375 1.261 . S
H377 C371 0.930 . S
H378 C373 0.930 . S
N379 Cu368 1.985 . S
N379 C381 1.335 . S
N379 C382 1.390 . S
N380 C381 1.345 . S
N380 C383 1.336 . S
C381 N379 1.335 . S
C381 N380 1.345 . S
C381 H386 0.930 . S
C382 N379 1.390 . S
C382 C383 1.346 . S
C382 H387 0.930 . S
C383 N380 1.336 . S
C383 C382 1.346 . S
C383 H390 0.929 . S
C384 O374 1.282 . S
C384 O385 1.216 . S
O385 C384 1.216 . S
H386 C381 0.930 . S
H387 C382 0.930 . S
O388 Cu368 1.959 . S
O388 C375 1.251 . S
H389 C372 0.930 . S
H390 C383 0.929 . S
Cu391 N392 1.999 . S
Cu391 O397 1.974 . S
Cu391 N402 1.985 . S
Cu391 O411 1.959 . S
N392 Cu391 1.999 . S
N392 C394 1.263 . S
N392 C396 1.389 . S
N393 C394 1.358 . S
N393 C395 1.400 . S
C394 N392 1.263 . S
C394 N393 1.358 . S
C394 H400 0.930 . S
C395 N393 1.400 . S
C395 C396 1.351 . S
C395 H412 0.930 . S
C396 N392 1.389 . S
C396 C395 1.351 . S
C396 H401 0.930 . S
O397 Cu391 1.974 . S
O397 C407 1.282 . S
C398 O399 1.261 . S
C398 O411 1.251 . S
O399 C398 1.261 . S
H400 C394 0.930 . S
H401 C396 0.930 . S
N402 Cu391 1.985 . S
N402 C404 1.335 . S
N402 C405 1.390 . S
N403 C404 1.345 . S
N403 C406 1.336 . S
C404 N402 1.335 . S
C404 N403 1.345 . S
C404 H409 0.930 . S
C405 N402 1.390 . S
C405 C406 1.346 . S
C405 H410 0.930 . S
C406 N403 1.336 . S
C406 C405 1.346 . S
C406 H413 0.929 . S
C407 O397 1.282 . S
C407 O408 1.216 . S
O408 C407 1.216 . S
H409 C404 0.930 . S
H410 C405 0.930 . S
O411 Cu391 1.959 . S
O411 C398 1.251 . S
H412 C395 0.930 . S
H413 C406 0.929 . S
Cu414 N415 1.999 . S
Cu414 O420 1.974 . S
Cu414 N425 1.985 . S
Cu414 O434 1.959 . S
N415 Cu414 1.999 . S
N415 C417 1.263 . S
N415 C419 1.389 . S
N416 C417 1.358 . S
N416 C418 1.400 . S
C417 N415 1.263 . S
C417 N416 1.358 . S
C417 H423 0.930 . S
C418 N416 1.400 . S
C418 C419 1.351 . S
C418 H435 0.930 . S
C419 N415 1.389 . S
C419 C418 1.351 . S
C419 H424 0.930 . S
O420 Cu414 1.974 . S
O420 C430 1.282 . S
C421 O422 1.261 . S
C421 O434 1.251 . S
O422 C421 1.261 . S
H423 C417 0.930 . S
H424 C419 0.930 . S
N425 Cu414 1.985 . S
N425 C427 1.335 . S
N425 C428 1.390 . S
N426 C427 1.345 . S
N426 C429 1.336 . S
C427 N425 1.335 . S
C427 N426 1.345 . S
C427 H432 0.930 . S
C428 N425 1.390 . S
C428 C429 1.346 . S
C428 H433 0.930 . S
C429 N426 1.336 . S
C429 C428 1.346 . S
C429 H436 0.929 . S
C430 O420 1.282 . S
C430 O431 1.216 . S
O431 C430 1.216 . S
H432 C427 0.930 . S
H433 C428 0.930 . S
O434 Cu414 1.959 . S
O434 C421 1.251 . S
H435 C418 0.930 . S
H436 C429 0.929 . S
Cu437 N438 1.999 . S
Cu437 O443 1.974 . S
Cu437 N448 1.985 . S
Cu437 O457 1.959 . S
N438 Cu437 1.999 . S
N438 C440 1.263 . S
N438 C442 1.389 . S
N439 C440 1.358 . S
N439 C441 1.400 . S
C440 N438 1.263 . S
C440 N439 1.358 . S
C440 H446 0.930 . S
C441 N439 1.400 . S
C441 C442 1.351 . S
C441 H458 0.930 . S
C442 N438 1.389 . S
C442 C441 1.351 . S
C442 H447 0.930 . S
O443 Cu437 1.974 . S
O443 C453 1.282 . S
C444 O445 1.261 . S
C444 O457 1.251 . S
O445 C444 1.261 . S
H446 C440 0.930 . S
H447 C442 0.930 . S
N448 Cu437 1.985 . S
N448 C450 1.335 . S
N448 C451 1.390 . S
N449 C450 1.345 . S
N449 C452 1.336 . S
C450 N448 1.335 . S
C450 N449 1.345 . S
C450 H455 0.930 . S
C451 N448 1.390 . S
C451 C452 1.346 . S
C451 H456 0.930 . S
C452 N449 1.336 . S
C452 C451 1.346 . S
C452 H459 0.929 . S
C453 O443 1.282 . S
C453 O454 1.216 . S
O454 C453 1.216 . S
H455 C450 0.930 . S
H456 C451 0.930 . S
O457 Cu437 1.959 . S
O457 C444 1.251 . S
H458 C441 0.930 . S
H459 C452 0.929 . S
Cu460 N461 1.999 . S
Cu460 O466 1.974 . S
Cu460 N471 1.985 . S
Cu460 O480 1.959 . S
N461 Cu460 1.999 . S
N461 C463 1.263 . S
N461 C465 1.389 . S
N462 C463 1.358 . S
N462 C464 1.400 . S
C463 N461 1.263 . S
C463 N462 1.358 . S
C463 H469 0.930 . S
C464 N462 1.400 . S
C464 C465 1.351 . S
C464 H481 0.930 . S
C465 N461 1.389 . S
C465 C464 1.351 . S
C465 H470 0.930 . S
O466 Cu460 1.974 . S
O466 C476 1.282 . S
C467 O468 1.261 . S
C467 O480 1.251 . S
O468 C467 1.261 . S
H469 C463 0.930 . S
H470 C465 0.930 . S
N471 Cu460 1.985 . S
N471 C473 1.335 . S
N471 C474 1.390 . S
N472 C473 1.345 . S
N472 C475 1.336 . S
C473 N471 1.335 . S
C473 N472 1.345 . S
C473 H478 0.930 . S
C474 N471 1.390 . S
C474 C475 1.346 . S
C474 H479 0.930 . S
C475 N472 1.336 . S
C475 C474 1.346 . S
C475 H482 0.929 . S
C476 O466 1.282 . S
C476 O477 1.216 . S
O477 C476 1.216 . S
H478 C473 0.930 . S
H479 C474 0.930 . S
O480 Cu460 1.959 . S
O480 C467 1.251 . S
H481 C464 0.930 . S
H482 C475 0.929 . S
Cu483 N484 1.999 . S
Cu483 O489 1.974 . S
Cu483 N494 1.985 . S
Cu483 O503 1.959 . S
N484 Cu483 1.999 . S
N484 C486 1.263 . S
N484 C488 1.389 . S
N485 C486 1.358 . S
N485 C487 1.400 . S
C486 N484 1.263 . S
C486 N485 1.358 . S
C486 H492 0.930 . S
C487 N485 1.400 . S
C487 C488 1.351 . S
C487 H504 0.930 . S
C488 N484 1.389 . S
C488 C487 1.351 . S
C488 H493 0.930 . S
O489 Cu483 1.974 . S
O489 C499 1.282 . S
C490 O491 1.261 . S
C490 O503 1.251 . S
O491 C490 1.261 . S
H492 C486 0.930 . S
H493 C488 0.930 . S
N494 Cu483 1.985 . S
N494 C496 1.335 . S
N494 C497 1.390 . S
N495 C496 1.345 . S
N495 C498 1.336 . S
C496 N494 1.335 . S
C496 N495 1.345 . S
C496 H501 0.930 . S
C497 N494 1.390 . S
C497 C498 1.346 . S
C497 H502 0.930 . S
C498 N495 1.336 . S
C498 C497 1.346 . S
C498 H505 0.929 . S
C499 O489 1.282 . S
C499 O500 1.216 . S
O500 C499 1.216 . S
H501 C496 0.930 . S
H502 C497 0.930 . S
O503 Cu483 1.959 . S
O503 C490 1.251 . S
H504 C487 0.930 . S
H505 C498 0.929 . S
Cu506 N507 1.999 . S
Cu506 O512 1.974 . S
Cu506 N517 1.985 . S
Cu506 O526 1.959 . S
N507 Cu506 1.999 . S
N507 C509 1.263 . S
N507 C511 1.389 . S
N508 C509 1.358 . S
N508 C510 1.400 . S
C509 N507 1.263 . S
C509 N508 1.358 . S
C509 H515 0.930 . S
C510 N508 1.400 . S
C510 C511 1.351 . S
C510 H527 0.930 . S
C511 N507 1.389 . S
C511 C510 1.351 . S
C511 H516 0.930 . S
O512 Cu506 1.974 . S
O512 C522 1.282 . S
C513 O514 1.261 . S
C513 O526 1.251 . S
O514 C513 1.261 . S
H515 C509 0.930 . S
H516 C511 0.930 . S
N517 Cu506 1.985 . S
N517 C519 1.335 . S
N517 C520 1.390 . S
N518 C519 1.345 . S
N518 C521 1.336 . S
C519 N517 1.335 . S
C519 N518 1.345 . S
C519 H524 0.930 . S
C520 N517 1.390 . S
C520 C521 1.346 . S
C520 H525 0.930 . S
C521 N518 1.336 . S
C521 C520 1.346 . S
C521 H528 0.929 . S
C522 O512 1.282 . S
C522 O523 1.216 . S
O523 C522 1.216 . S
H524 C519 0.930 . S
H525 C520 0.930 . S
O526 Cu506 1.959 . S
O526 C513 1.251 . S
H527 C510 0.930 . S
H528 C521 0.929 . S
Cu529 N530 1.999 . S
Cu529 O535 1.974 . S
Cu529 N540 1.985 . S
Cu529 O549 1.959 . S
N530 Cu529 1.999 . S
N530 C532 1.263 . S
N530 C534 1.389 . S
N531 C532 1.358 . S
N531 C533 1.400 . S
C532 N530 1.263 . S
C532 N531 1.358 . S
C532 H538 0.930 . S
C533 N531 1.400 . S
C533 C534 1.351 . S
C533 H550 0.930 . S
C534 N530 1.389 . S
C534 C533 1.351 . S
C534 H539 0.930 . S
O535 Cu529 1.974 . S
O535 C545 1.282 . S
C536 O537 1.261 . S
C536 O549 1.251 . S
O537 C536 1.261 . S
H538 C532 0.930 . S
H539 C534 0.930 . S
N540 Cu529 1.985 . S
N540 C542 1.335 . S
N540 C543 1.390 . S
N541 C542 1.345 . S
N541 C544 1.336 . S
C542 N540 1.335 . S
C542 N541 1.345 . S
C542 H547 0.930 . S
C543 N540 1.390 . S
C543 C544 1.346 . S
C543 H548 0.930 . S
C544 N541 1.336 . S
C544 C543 1.346 . S
C544 H551 0.929 . S
C545 O535 1.282 . S
C545 O546 1.216 . S
O546 C545 1.216 . S
H547 C542 0.930 . S
H548 C543 0.930 . S
O549 Cu529 1.959 . S
O549 C536 1.251 . S
H550 C533 0.930 . S
H551 C544 0.929 . S
Cu552 N553 1.999 . S
Cu552 O558 1.974 . S
Cu552 N563 1.985 . S
Cu552 O572 1.959 . S
N553 Cu552 1.999 . S
N553 C555 1.263 . S
N553 C557 1.389 . S
N554 C555 1.358 . S
N554 C556 1.400 . S
C555 N553 1.263 . S
C555 N554 1.358 . S
C555 H561 0.930 . S
C556 N554 1.400 . S
C556 C557 1.351 . S
C556 H573 0.930 . S
C557 N553 1.389 . S
C557 C556 1.351 . S
C557 H562 0.930 . S
O558 Cu552 1.974 . S
O558 C568 1.282 . S
C559 O560 1.261 . S
C559 O572 1.251 . S
O560 C559 1.261 . S
H561 C555 0.930 . S
H562 C557 0.930 . S
N563 Cu552 1.985 . S
N563 C565 1.335 . S
N563 C566 1.390 . S
N564 C565 1.345 . S
N564 C567 1.336 . S
C565 N563 1.335 . S
C565 N564 1.345 . S
C565 H570 0.930 . S
C566 N563 1.390 . S
C566 C567 1.346 . S
C566 H571 0.930 . S
C567 N564 1.336 . S
C567 C566 1.346 . S
C567 H574 0.929 . S
C568 O558 1.282 . S
C568 O569 1.216 . S
O569 C568 1.216 . S
H570 C565 0.930 . S
H571 C566 0.930 . S
O572 Cu552 1.959 . S
O572 C559 1.251 . S
H573 C556 0.930 . S
H574 C567 0.929 . S
Cu575 N576 1.999 . S
Cu575 O581 1.974 . S
Cu575 N586 1.985 . S
Cu575 O595 1.959 . S
N576 Cu575 1.999 . S
N576 C578 1.263 . S
N576 C580 1.389 . S
N577 C578 1.358 . S
N577 C579 1.400 . S
C578 N576 1.263 . S
C578 N577 1.358 . S
C578 H584 0.930 . S
C579 N577 1.400 . S
C579 C580 1.351 . S
C579 H596 0.930 . S
C580 N576 1.389 . S
C580 C579 1.351 . S
C580 H585 0.930 . S
O581 Cu575 1.974 . S
O581 C591 1.282 . S
C582 O583 1.261 . S
C582 O595 1.251 . S
O583 C582 1.261 . S
H584 C578 0.930 . S
H585 C580 0.930 . S
N586 Cu575 1.985 . S
N586 C588 1.335 . S
N586 C589 1.390 . S
N587 C588 1.345 . S
N587 C590 1.336 . S
C588 N586 1.335 . S
C588 N587 1.345 . S
C588 H593 0.930 . S
C589 N586 1.390 . S
C589 C590 1.346 . S
C589 H594 0.930 . S
C590 N587 1.336 . S
C590 C589 1.346 . S
C590 H597 0.929 . S
C591 O581 1.282 . S
C591 O592 1.216 . S
O592 C591 1.216 . S
H593 C588 0.930 . S
H594 C589 0.930 . S
O595 Cu575 1.959 . S
O595 C582 1.251 . S
H596 C579 0.930 . S
H597 C590 0.929 . S
Cu598 N599 1.999 . S
Cu598 O604 1.974 . S
Cu598 N609 1.985 . S
Cu598 O618 1.959 . S
N599 Cu598 1.999 . S
N599 C601 1.263 . S
N599 C603 1.389 . S
N600 C601 1.358 . S
N600 C602 1.400 . S
C601 N599 1.263 . S
C601 N600 1.358 . S
C601 H607 0.930 . S
C602 N600 1.400 . S
C602 C603 1.351 . S
C602 H619 0.930 . S
C603 N599 1.389 . S
C603 C602 1.351 . S
C603 H608 0.930 . S
O604 Cu598 1.974 . S
O604 C614 1.282 . S
C605 O606 1.261 . S
C605 O618 1.251 . S
O606 C605 1.261 . S
H607 C601 0.930 . S
H608 C603 0.930 . S
N609 Cu598 1.985 . S
N609 C611 1.335 . S
N609 C612 1.390 . S
N610 C611 1.345 . S
N610 C613 1.336 . S
C611 N609 1.335 . S
C611 N610 1.345 . S
C611 H616 0.930 . S
C612 N609 1.390 . S
C612 C613 1.346 . S
C612 H617 0.930 . S
C613 N610 1.336 . S
C613 C612 1.346 . S
C613 H620 0.929 . S
C614 O604 1.282 . S
C614 O615 1.216 . S
O615 C614 1.216 . S
H616 C611 0.930 . S
H617 C612 0.930 . S
O618 Cu598 1.959 . S
O618 C605 1.251 . S
H619 C602 0.930 . S
H620 C613 0.929 . S
Cu621 N622 1.999 . S
Cu621 O627 1.974 . S
Cu621 N632 1.985 . S
Cu621 O641 1.959 . S
N622 Cu621 1.999 . S
N622 C624 1.263 . S
N622 C626 1.389 . S
N623 C624 1.358 . S
N623 C625 1.400 . S
C624 N622 1.263 . S
C624 N623 1.358 . S
C624 H630 0.930 . S
C625 N623 1.400 . S
C625 C626 1.351 . S
C625 H642 0.930 . S
C626 N622 1.389 . S
C626 C625 1.351 . S
C626 H631 0.930 . S
O627 Cu621 1.974 . S
O627 C637 1.282 . S
C628 O629 1.261 . S
C628 O641 1.251 . S
O629 C628 1.261 . S
H630 C624 0.930 . S
H631 C626 0.930 . S
N632 Cu621 1.985 . S
N632 C634 1.335 . S
N632 C635 1.390 . S
N633 C634 1.345 . S
N633 C636 1.336 . S
C634 N632 1.335 . S
C634 N633 1.345 . S
C634 H639 0.930 . S
C635 N632 1.390 . S
C635 C636 1.346 . S
C635 H640 0.930 . S
C636 N633 1.336 . S
C636 C635 1.346 . S
C636 H643 0.929 . S
C637 O627 1.282 . S
C637 O638 1.216 . S
O638 C637 1.216 . S
H639 C634 0.930 . S
H640 C635 0.930 . S
O641 Cu621 1.959 . S
O641 C628 1.251 . S
H642 C625 0.930 . S
H643 C636 0.929 . S
Cu644 N645 1.999 . S
Cu644 O650 1.974 . S
Cu644 N655 1.985 . S
Cu644 O664 1.959 . S
N645 Cu644 1.999 . S
N645 C647 1.263 . S
N645 C649 1.389 . S
N646 C647 1.358 . S
N646 C648 1.400 . S
C647 N645 1.263 . S
C647 N646 1.358 . S
C647 H653 0.930 . S
C648 N646 1.400 . S
C648 C649 1.351 . S
C648 H665 0.930 . S
C649 N645 1.389 . S
C649 C648 1.351 . S
C649 H654 0.930 . S
O650 Cu644 1.974 . S
O650 C660 1.282 . S
C651 O652 1.261 . S
C651 O664 1.251 . S
O652 C651 1.261 . S
H653 C647 0.930 . S
H654 C649 0.930 . S
N655 Cu644 1.985 . S
N655 C657 1.335 . S
N655 C658 1.390 . S
N656 C657 1.345 . S
N656 C659 1.336 . S
C657 N655 1.335 . S
C657 N656 1.345 . S
C657 H662 0.930 . S
C658 N655 1.390 . S
C658 C659 1.346 . S
C658 H663 0.930 . S
C659 N656 1.336 . S
C659 C658 1.346 . S
C659 H666 0.929 . S
C660 O650 1.282 . S
C660 O661 1.216 . S
O661 C660 1.216 . S
H662 C657 0.930 . S
H663 C658 0.930 . S
O664 Cu644 1.959 . S
O664 C651 1.251 . S
H665 C648 0.930 . S
H666 C659 0.929 . S
Cu667 N668 1.999 . S
Cu667 O673 1.974 . S
Cu667 N678 1.985 . S
Cu667 O687 1.959 . S
N668 Cu667 1.999 . S
N668 C670 1.263 . S
N668 C672 1.389 . S
N669 C670 1.358 . S
N669 C671 1.400 . S
C670 N668 1.263 . S
C670 N669 1.358 . S
C670 H676 0.930 . S
C671 N669 1.400 . S
C671 C672 1.351 . S
C671 H688 0.930 1_554 S
C672 N668 1.389 . S
C672 C671 1.351 . S
C672 H677 0.930 . S
O673 Cu667 1.974 . S
O673 C683 1.282 . S
C674 O675 1.261 . S
C674 O687 1.251 . S
O675 C674 1.261 . S
H676 C670 0.930 . S
H677 C672 0.930 . S
N678 Cu667 1.985 . S
N678 C680 1.335 . S
N678 C681 1.390 . S
N679 C680 1.345 . S
N679 C682 1.336 . S
C680 N678 1.335 . S
C680 N679 1.345 . S
C680 H685 0.930 . S
C681 N678 1.390 . S
C681 C682 1.346 . S
C681 H686 0.930 . S
C682 N679 1.336 . S
C682 C681 1.346 . S
C682 H689 0.929 . S
C683 O673 1.282 . S
C683 O684 1.216 . S
O684 C683 1.216 . S
H685 C680 0.930 . S
H686 C681 0.930 . S
O687 Cu667 1.959 . S
O687 C674 1.251 . S
H688 C671 0.930 1_556 S
H689 C682 0.929 . S
Cu690 N691 1.999 . S
Cu690 O696 1.974 . S
Cu690 N701 1.985 . S
Cu690 O710 1.959 . S
N691 Cu690 1.999 . S
N691 C693 1.263 . S
N691 C695 1.389 . S
N692 C693 1.358 . S
N692 C694 1.400 . S
C693 N691 1.263 . S
C693 N692 1.358 . S
C693 H699 0.930 . S
C694 N692 1.400 . S
C694 C695 1.351 . S
C694 H711 0.930 . S
C695 N691 1.389 . S
C695 C694 1.351 . S
C695 H700 0.930 . S
O696 Cu690 1.974 . S
O696 C706 1.282 . S
C697 O698 1.261 . S
C697 O710 1.251 . S
O698 C697 1.261 . S
H699 C693 0.930 . S
H700 C695 0.930 . S
N701 Cu690 1.985 . S
N701 C703 1.335 . S
N701 C704 1.390 . S
N702 C703 1.345 . S
N702 C705 1.336 . S
C703 N701 1.335 . S
C703 N702 1.345 . S
C703 H708 0.930 . S
C704 N701 1.390 . S
C704 C705 1.346 . S
C704 H709 0.930 . S
C705 N702 1.336 . S
C705 C704 1.346 . S
C705 H712 0.929 . S
C706 O696 1.282 . S
C706 O707 1.216 . S
O707 C706 1.216 . S
H708 C703 0.930 . S
H709 C704 0.930 . S
O710 Cu690 1.959 . S
O710 C697 1.251 . S
H711 C694 0.930 . S
H712 C705 0.929 . S
Cu713 N714 1.999 . S
Cu713 O719 1.974 . S
Cu713 N724 1.985 . S
Cu713 O733 1.959 . S
N714 Cu713 1.999 . S
N714 C716 1.263 . S
N714 C718 1.389 . S
N715 C716 1.358 . S
N715 C717 1.400 . S
C716 N714 1.263 . S
C716 N715 1.358 . S
C716 H722 0.930 . S
C717 N715 1.400 . S
C717 C718 1.351 . S
C717 H734 0.930 . S
C718 N714 1.389 . S
C718 C717 1.351 . S
C718 H723 0.930 . S
O719 Cu713 1.974 . S
O719 C729 1.282 . S
C720 O721 1.261 . S
C720 O733 1.251 . S
O721 C720 1.261 . S
H722 C716 0.930 . S
H723 C718 0.930 . S
N724 Cu713 1.985 . S
N724 C726 1.335 . S
N724 C727 1.390 . S
N725 C726 1.345 . S
N725 C728 1.336 . S
C726 N724 1.335 . S
C726 N725 1.345 . S
C726 H731 0.930 . S
C727 N724 1.390 . S
C727 C728 1.346 . S
C727 H732 0.930 . S
C728 N725 1.336 . S
C728 C727 1.346 . S
C728 H735 0.929 . S
C729 O719 1.282 . S
C729 O730 1.216 . S
O730 C729 1.216 . S
H731 C726 0.930 . S
H732 C727 0.930 . S
O733 Cu713 1.959 . S
O733 C720 1.251 . S
H734 C717 0.930 . S
H735 C728 0.929 . S
Cu736 N737 1.999 . S
Cu736 O742 1.974 . S
Cu736 N747 1.985 . S
Cu736 O756 1.959 . S
N737 Cu736 1.999 . S
N737 C739 1.263 . S
N737 C741 1.389 . S
N738 C739 1.358 . S
N738 C740 1.400 . S
C739 N737 1.263 . S
C739 N738 1.358 . S
C739 H745 0.930 . S
C740 N738 1.400 . S
C740 C741 1.351 . S
C740 H757 0.930 . S
C741 N737 1.389 . S
C741 C740 1.351 . S
C741 H746 0.930 . S
O742 Cu736 1.974 . S
O742 C752 1.282 . S
C743 O744 1.261 . S
C743 O756 1.251 . S
O744 C743 1.261 . S
H745 C739 0.930 . S
H746 C741 0.930 . S
N747 Cu736 1.985 . S
N747 C749 1.335 . S
N747 C750 1.390 . S
N748 C749 1.345 . S
N748 C751 1.336 . S
C749 N747 1.335 . S
C749 N748 1.345 . S
C749 H754 0.930 . S
C750 N747 1.390 . S
C750 C751 1.346 . S
C750 H755 0.930 . S
C751 N748 1.336 . S
C751 C750 1.346 . S
C751 H758 0.929 . S
C752 O742 1.282 . S
C752 O753 1.216 . S
O753 C752 1.216 . S
H754 C749 0.930 . S
H755 C750 0.930 . S
O756 Cu736 1.959 . S
O756 C743 1.251 . S
H757 C740 0.930 . S
H758 C751 0.929 . S
Cu759 N760 1.999 . S
Cu759 O765 1.974 . S
Cu759 N770 1.985 . S
Cu759 O779 1.959 . S
N760 Cu759 1.999 . S
N760 C762 1.263 . S
N760 C764 1.389 . S
N761 C762 1.358 . S
N761 C763 1.400 . S
C762 N760 1.263 . S
C762 N761 1.358 . S
C762 H768 0.930 . S
C763 N761 1.400 . S
C763 C764 1.351 . S
C763 H780 0.930 . S
C764 N760 1.389 . S
C764 C763 1.351 . S
C764 H769 0.930 . S
O765 Cu759 1.974 . S
O765 C775 1.282 . S
C766 O767 1.261 . S
C766 O779 1.251 . S
O767 C766 1.261 . S
H768 C762 0.930 . S
H769 C764 0.930 . S
N770 Cu759 1.985 . S
N770 C772 1.335 . S
N770 C773 1.390 . S
N771 C772 1.345 . S
N771 C774 1.336 . S
C772 N770 1.335 . S
C772 N771 1.345 . S
C772 H777 0.930 . S
C773 N770 1.390 . S
C773 C774 1.346 . S
C773 H778 0.930 . S
C774 N771 1.336 . S
C774 C773 1.346 . S
C774 H781 0.929 . S
C775 O765 1.282 . S
C775 O776 1.216 . S
O776 C775 1.216 . S
H777 C772 0.930 . S
H778 C773 0.930 . S
O779 Cu759 1.959 . S
O779 C766 1.251 . S
H780 C763 0.930 . S
H781 C774 0.929 . S
Cu782 N783 1.999 . S
Cu782 O788 1.974 . S
Cu782 N793 1.985 . S
Cu782 O802 1.959 . S
N783 Cu782 1.999 . S
N783 C785 1.263 . S
N783 C787 1.389 . S
N784 C785 1.358 . S
N784 C786 1.400 . S
C785 N783 1.263 . S
C785 N784 1.358 . S
C785 H791 0.930 . S
C786 N784 1.400 . S
C786 C787 1.351 . S
C786 H803 0.930 . S
C787 N783 1.389 . S
C787 C786 1.351 . S
C787 H792 0.930 . S
O788 Cu782 1.974 . S
O788 C798 1.282 . S
C789 O790 1.261 . S
C789 O802 1.251 . S
O790 C789 1.261 . S
H791 C785 0.930 . S
H792 C787 0.930 . S
N793 Cu782 1.985 . S
N793 C795 1.335 . S
N793 C796 1.390 . S
N794 C795 1.345 . S
N794 C797 1.336 . S
C795 N793 1.335 . S
C795 N794 1.345 . S
C795 H800 0.930 . S
C796 N793 1.390 . S
C796 C797 1.346 . S
C796 H801 0.930 . S
C797 N794 1.336 . S
C797 C796 1.346 . S
C797 H804 0.929 . S
C798 O788 1.282 . S
C798 O799 1.216 . S
O799 C798 1.216 . S
H800 C795 0.930 . S
H801 C796 0.930 . S
O802 Cu782 1.959 . S
O802 C789 1.251 . S
H803 C786 0.930 . S
H804 C797 0.929 . S
Cu805 N806 1.999 . S
Cu805 O811 1.974 . S
Cu805 N816 1.985 . S
Cu805 O825 1.959 . S
N806 Cu805 1.999 . S
N806 C808 1.263 . S
N806 C810 1.389 . S
N807 C808 1.358 . S
N807 C809 1.400 . S
C808 N806 1.263 . S
C808 N807 1.358 . S
C808 H814 0.930 . S
C809 N807 1.400 . S
C809 C810 1.351 . S
C809 H826 0.930 . S
C810 N806 1.389 . S
C810 C809 1.351 . S
C810 H815 0.930 . S
O811 Cu805 1.974 . S
O811 C821 1.282 . S
C812 O813 1.261 . S
C812 O825 1.251 . S
O813 C812 1.261 . S
H814 C808 0.930 . S
H815 C810 0.930 . S
N816 Cu805 1.985 . S
N816 C818 1.335 . S
N816 C819 1.390 . S
N817 C818 1.345 . S
N817 C820 1.336 . S
C818 N816 1.335 . S
C818 N817 1.345 . S
C818 H823 0.930 . S
C819 N816 1.390 . S
C819 C820 1.346 . S
C819 H824 0.930 . S
C820 N817 1.336 . S
C820 C819 1.346 . S
C820 H827 0.929 . S
C821 O811 1.282 . S
C821 O822 1.216 . S
O822 C821 1.216 . S
H823 C818 0.930 . S
H824 C819 0.930 . S
O825 Cu805 1.959 . S
O825 C812 1.251 . S
H826 C809 0.930 . S
H827 C820 0.929 . S
H828 C836 0.950 . S
H829 C841 0.950 . S
H830 C838 0.950 . S
H831 C840 0.950 . S
H832 C842 0.950 . S
H833 C844 0.950 . S
H834 C846 0.950 . S
H835 C847 0.898 1_565 S
C836 H828 0.950 . S
C836 C837 1.386 . S
C836 C838 1.391 . S
C837 C836 1.386 . S
C837 C841 1.393 1_554 S
C838 H830 0.950 . S
C838 C836 1.391 . S
C838 C839 1.400 1_554 S
C839 C838 1.400 1_556 S
C839 C840 1.398 . S
C839 C845 1.491 . S
C840 H831 0.950 . S
C840 C839 1.398 . S
C840 C841 1.390 . S
C841 H829 0.950 . S
C841 C837 1.393 1_556 S
C841 C840 1.390 . S
C842 H832 0.950 . S
C842 C843 1.386 . S
C842 C844 1.391 . S
C843 C842 1.386 . S
C843 C847 1.393 . S
C844 H833 0.950 . S
C844 C842 1.391 . S
C844 C845 1.400 . S
C845 C839 1.491 . S
C845 C844 1.400 . S
C845 C846 1.398 . S
C846 H834 0.950 . S
C846 C845 1.398 . S
C846 C847 1.391 . S
C847 H835 0.898 1_545 S
C847 C843 1.393 . S
C847 C846 1.391 . S
H848 C856 0.950 . S
H849 C861 0.950 . S
H850 C858 0.950 . S
H851 C860 0.950 . S
H852 C862 0.950 . S
H853 C864 0.950 . S
H854 C866 0.950 . S
H855 C867 0.950 . S
C856 H848 0.950 . S
C856 C857 1.386 . S
C856 C858 1.391 . S
C857 C856 1.386 . S
C857 C861 1.393 . S
C858 H850 0.950 . S
C858 C856 1.391 . S
C858 C859 1.400 . S
C859 C858 1.400 . S
C859 C860 1.398 . S
C859 C865 1.491 1_554 S
C860 H851 0.950 . S
C860 C859 1.398 . S
C860 C861 1.391 . S
C861 H849 0.950 . S
C861 C857 1.393 . S
C861 C860 1.391 . S
C862 H852 0.950 . S
C862 C863 1.386 . S
C862 C864 1.391 . S
C863 C862 1.386 . S
C863 C867 1.393 . S
C864 H853 0.950 . S
C864 C862 1.391 . S
C864 C865 1.400 . S
C865 C859 1.491 1_556 S
C865 C864 1.400 . S
C865 C866 1.398 . S
C866 H854 0.950 . S
C866 C865 1.398 . S
C866 C867 1.391 . S
C867 H855 0.950 . S
C867 C863 1.393 . S
C867 C866 1.391 . S
H868 C876 0.950 . S
H869 C881 0.950 . S
H870 C878 0.950 . S
H871 C880 0.950 . S
H872 C882 0.950 . S
H873 C884 0.950 . S
H874 C886 0.950 1_556 S
H875 C887 0.950 . S
C876 H868 0.950 . S
C876 C877 1.386 . S
C876 C878 1.391 . S
C877 C876 1.386 . S
C877 C881 1.393 . S
C878 H870 0.950 . S
C878 C876 1.391 . S
C878 C879 1.400 . S
C879 C878 1.400 . S
C879 C880 1.398 . S
C879 C885 1.491 1_556 S
C880 H871 0.950 . S
C880 C879 1.398 . S
C880 C881 1.391 . S
C881 H869 0.950 . S
C881 C877 1.393 . S
C881 C880 1.391 . S
C882 H872 0.950 . S
C882 C883 1.386 . S
C882 C884 1.391 . S
C883 C882 1.386 . S
C883 C887 1.393 . S
C884 H873 0.950 . S
C884 C882 1.391 . S
C884 C885 1.400 . S
C885 C879 1.491 1_554 S
C885 C884 1.400 . S
C885 C886 1.398 . S
C886 H874 0.950 1_554 S
C886 C885 1.398 . S
C886 C887 1.391 . S
C887 H875 0.950 . S
C887 C883 1.393 . S
C887 C886 1.391 . S
H888 C896 0.950 1_655 S
H889 C901 0.950 . S
H890 C898 0.950 . S
H891 C900 0.950 . S
H892 C902 0.950 . S
H893 C904 0.950 . S
H894 C906 0.950 . S
H895 C907 0.950 . S
C896 H888 0.950 1_455 S
C896 C897 1.386 . S
C896 C898 1.391 . S
C897 C896 1.386 . S
C897 C901 1.393 . S
C898 H890 0.950 . S
C898 C896 1.391 . S
C898 C899 1.400 . S
C899 C898 1.400 . S
C899 C900 1.398 . S
C899 C905 1.491 . S
C900 H891 0.950 . S
C900 C899 1.398 . S
C900 C901 1.391 . S
C901 H889 0.950 . S
C901 C897 1.393 . S
C901 C900 1.391 . S
C902 H892 0.950 . S
C902 C903 1.386 . S
C902 C904 1.391 . S
C903 C902 1.386 . S
C903 C907 1.393 . S
C904 H893 0.950 . S
C904 C902 1.391 . S
C904 C905 1.400 . S
C905 C899 1.491 . S
C905 C904 1.400 . S
C905 C906 1.398 . S
C906 H894 0.950 . S
C906 C905 1.398 . S
C906 C907 1.391 . S
C907 H895 0.950 . S
C907 C903 1.393 . S
C907 C906 1.391 . S
H908 C916 0.950 . S
H909 C921 0.950 . S
H910 C918 0.950 . S
H911 C920 0.950 . S
H912 C922 0.950 . S
H913 C924 0.950 . S
H914 C926 0.950 . S
H915 C927 0.950 . S
C916 H908 0.950 . S
C916 C917 1.386 . S
C916 C918 1.391 . S
C917 C916 1.386 . S
C917 C921 1.393 . S
C918 H910 0.950 . S
C918 C916 1.391 . S
C918 C919 1.400 . S
C919 C918 1.400 . S
C919 C920 1.398 . S
C919 C925 1.491 . S
C920 H911 0.950 . S
C920 C919 1.398 . S
C920 C921 1.391 . S
C921 H909 0.950 . S
C921 C917 1.393 . S
C921 C920 1.391 . S
C922 H912 0.950 . S
C922 C923 1.386 . S
C922 C924 1.391 . S
C923 C922 1.386 . S
C923 C927 1.393 . S
C924 H913 0.950 . S
C924 C922 1.391 . S
C924 C925 1.400 . S
C925 C919 1.491 . S
C925 C924 1.400 . S
C925 C926 1.398 . S
C926 H914 0.950 . S
C926 C925 1.398 . S
C926 C927 1.391 . S
C927 H915 0.950 . S
C927 C923 1.393 . S
C927 C926 1.391 . S
H928 C936 0.950 . S
H929 C941 0.950 . S
H930 C938 0.950 . S
H931 C940 0.950 . S
H932 C942 0.950 . S
H933 C944 0.950 . S
H934 C946 0.950 . S
H935 C947 0.950 . S
C936 H928 0.950 . S
C936 C937 1.386 . S
C936 C938 1.391 . S
C937 C936 1.386 . S
C937 C941 1.393 . S
C938 H930 0.950 . S
C938 C936 1.391 . S
C938 C939 1.400 . S
C939 C938 1.400 . S
C939 C940 1.398 . S
C939 C945 1.491 . S
C940 H931 0.950 . S
C940 C939 1.398 . S
C940 C941 1.391 . S
C941 H929 0.950 . S
C941 C937 1.393 . S
C941 C940 1.391 . S
C942 H932 0.950 . S
C942 C943 1.386 . S
C942 C944 1.391 . S
C943 C942 1.386 . S
C943 C947 1.393 . S
C944 H933 0.950 . S
C944 C942 1.391 . S
C944 C945 1.400 . S
C945 C939 1.491 . S
C945 C944 1.400 . S
C945 C946 1.398 . S
C946 H934 0.950 . S
C946 C945 1.398 . S
C946 C947 1.391 . S
C947 H935 0.950 . S
C947 C943 1.393 . S
C947 C946 1.391 . S
H948 C956 0.950 . S
H949 C961 0.950 . S
H950 C958 0.950 . S
H951 C960 0.910 1_556 S
H952 C962 0.950 . S
H953 C964 0.950 . S
H954 C966 0.950 1_554 S
H955 C967 0.950 . S
C956 H948 0.950 . S
C956 C957 1.386 . S
C956 C958 1.391 . S
C957 C956 1.386 . S
C957 C961 1.393 . S
C958 H950 0.950 . S
C958 C956 1.391 . S
C958 C959 1.400 . S
C959 C958 1.400 . S
C959 C960 1.403 . S
C959 C965 1.491 1_554 S
C960 H951 0.910 1_554 S
C960 C959 1.403 . S
C960 C961 1.426 . S
C961 H949 0.950 . S
C961 C957 1.393 . S
C961 C960 1.426 . S
C962 H952 0.950 . S
C962 C963 1.386 . S
C962 C964 1.391 . S
C963 C962 1.386 . S
C963 C967 1.393 . S
C964 H953 0.950 . S
C964 C962 1.391 . S
C964 C965 1.400 . S
C965 C959 1.491 1_556 S
C965 C964 1.400 . S
C965 C966 1.398 . S
C966 H954 0.950 1_556 S
C966 C965 1.398 . S
C966 C967 1.391 . S
C967 H955 0.950 . S
C967 C963 1.393 . S
C967 C966 1.391 . S
H968 C976 0.950 . S
H969 C981 0.950 1_655 S
H970 C978 0.950 . S
H971 C980 0.950 . S
H972 C982 0.950 . S
H973 C984 0.950 . S
H974 C986 0.950 1_554 S
H975 C987 0.950 . S
C976 H968 0.950 . S
C976 C977 1.386 . S
C976 C978 1.391 . S
C977 C976 1.386 . S
C977 C981 1.393 . S
C978 H970 0.950 . S
C978 C976 1.391 . S
C978 C979 1.400 . S
C979 C978 1.400 . S
C979 C980 1.398 1_554 S
C979 C985 1.491 1_554 S
C980 H971 0.950 . S
C980 C979 1.398 1_556 S
C980 C981 1.391 1_556 S
C981 H969 0.950 1_455 S
C981 C977 1.393 . S
C981 C980 1.391 1_554 S
C982 H972 0.950 . S
C982 C983 1.386 . S
C982 C984 1.391 . S
C983 C982 1.386 . S
C983 C987 1.393 . S
C984 H973 0.950 . S
C984 C982 1.391 . S
C984 C985 1.400 . S
C985 C979 1.491 1_556 S
C985 C984 1.400 . S
C985 C986 1.398 . S
C986 H974 0.950 1_556 S
C986 C985 1.398 . S
C986 C987 1.391 . S
C987 H975 0.950 . S
C987 C983 1.393 . S
C987 C986 1.391 . S
H988 C996 0.950 . S
H989 C1001 0.950 . S
H990 C998 0.950 1_554 S
H991 C1000 0.950 . S
H992 C1002 0.950 . S
H993 C1004 0.950 . S
H994 C1006 0.950 . S
H995 C1007 0.950 . S
C996 H988 0.950 . S
C996 C997 1.386 . S
C996 C998 1.391 . S
C997 C996 1.386 . S
C997 C1001 1.393 . S
C998 H990 0.950 1_556 S
C998 C996 1.391 . S
C998 C999 1.400 . S
C999 C998 1.400 . S
C999 C1000 1.398 . S
C999 C1005 1.491 1_556 S
C1000 H991 0.950 . S
C1000 C999 1.398 . S
C1000 C1001 1.391 . S
C1001 H989 0.950 . S
C1001 C997 1.393 . S
C1001 C1000 1.391 . S
C1002 H992 0.950 . S
C1002 C1003 1.386 . S
C1002 C1004 1.391 . S
C1003 C1002 1.386 . S
C1003 C1007 1.393 . S
C1004 H993 0.950 . S
C1004 C1002 1.391 . S
C1004 C1005 1.400 . S
C1005 C999 1.491 1_554 S
C1005 C1004 1.400 . S
C1005 C1006 1.398 . S
C1006 H994 0.950 . S
C1006 C1005 1.398 . S
C1006 C1007 1.391 . S
C1007 H995 0.950 . S
C1007 C1003 1.393 . S
C1007 C1006 1.391 . S
H1008 C1016 0.950 . S
H1009 C1021 0.950 . S
H1010 C1018 0.950 . S
H1011 C1020 0.950 . S
H1012 C1022 0.950 . S
H1013 C1024 0.950 . S
H1014 C1026 0.950 . S
H1015 C1027 0.950 . S
C1016 H1008 0.950 . S
C1016 C1017 1.386 . S
C1016 C1018 1.391 . S
C1017 C1016 1.386 . S
C1017 C1021 1.393 . S
C1018 H1010 0.950 . S
C1018 C1016 1.391 . S
C1018 C1019 1.400 . S
C1019 C1018 1.400 . S
C1019 C1020 1.398 . S
C1019 C1025 1.491 . S
C1020 H1011 0.950 . S
C1020 C1019 1.398 . S
C1020 C1021 1.391 . S
C1021 H1009 0.950 . S
C1021 C1017 1.393 . S
C1021 C1020 1.391 . S
C1022 H1012 0.950 . S
C1022 C1023 1.386 1_455 S
C1022 C1024 1.391 1_455 S
C1023 C1022 1.386 1_655 S
C1023 C1027 1.393 . S
C1024 H1013 0.950 . S
C1024 C1022 1.391 1_655 S
C1024 C1025 1.400 . S
C1025 C1019 1.491 . S
C1025 C1024 1.400 . S
C1025 C1026 1.398 . S
C1026 H1014 0.950 . S
C1026 C1025 1.398 . S
C1026 C1027 1.391 . S
C1027 H1015 0.950 . S
C1027 C1023 1.393 . S
C1027 C1026 1.391 . S
H1028 C1036 0.950 . S
H1029 C1041 0.950 . S
H1030 C1038 0.950 . S
H1031 C1040 0.950 . S
H1032 C1042 0.950 . S
H1033 C1044 0.950 . S
H1034 C1046 0.950 . S
H1035 C1047 0.950 . S
C1036 H1028 0.950 . S
C1036 C1037 1.386 . S
C1036 C1038 1.391 . S
C1037 C1036 1.386 . S
C1037 C1041 1.393 . S
C1038 H1030 0.950 . S
C1038 C1036 1.391 . S
C1038 C1039 1.400 . S
C1039 C1038 1.400 . S
C1039 C1040 1.398 . S
C1039 C1045 1.491 . S
C1040 H1031 0.950 . S
C1040 C1039 1.398 . S
C1040 C1041 1.391 . S
C1041 H1029 0.950 . S
C1041 C1037 1.393 . S
C1041 C1040 1.391 . S
C1042 H1032 0.950 . S
C1042 C1043 1.386 . S
C1042 C1044 1.391 . S
C1043 C1042 1.386 . S
C1043 C1047 1.393 . S
C1044 H1033 0.950 . S
C1044 C1042 1.391 . S
C1044 C1045 1.400 . S
C1045 C1039 1.491 . S
C1045 C1044 1.400 . S
C1045 C1046 1.398 . S
C1046 H1034 0.950 . S
C1046 C1045 1.398 . S
C1046 C1047 1.391 . S
C1047 H1035 0.950 . S
C1047 C1043 1.393 . S
C1047 C1046 1.391 . S
H1048 C1056 0.950 . S
H1049 C1061 0.950 . S
H1050 C1058 0.950 . S
H1051 C1060 0.950 . S
H1052 C1062 0.950 . S
H1053 C1064 0.950 . S
H1054 C1066 0.950 . S
H1055 C1067 0.950 . S
C1056 H1048 0.950 . S
C1056 C1057 1.386 . S
C1056 C1058 1.391 . S
C1057 C1056 1.386 . S
C1057 C1061 1.393 . S
C1058 H1050 0.950 . S
C1058 C1056 1.391 . S
C1058 C1059 1.400 . S
C1059 C1058 1.400 . S
C1059 C1060 1.398 . S
C1059 C1065 1.491 . S
C1060 H1051 0.950 . S
C1060 C1059 1.398 . S
C1060 C1061 1.391 . S
C1061 H1049 0.950 . S
C1061 C1057 1.393 . S
C1061 C1060 1.391 . S
C1062 H1052 0.950 . S
C1062 C1063 1.386 . S
C1062 C1064 1.391 . S
C1063 C1062 1.386 . S
C1063 C1067 1.393 . S
C1064 H1053 0.950 . S
C1064 C1062 1.391 . S
C1064 C1065 1.400 . S
C1065 C1059 1.491 . S
C1065 C1064 1.400 . S
C1065 C1066 1.398 . S
C1066 H1054 0.950 . S
C1066 C1065 1.398 . S
C1066 C1067 1.391 . S
C1067 H1055 0.950 . S
C1067 C1063 1.393 . S
C1067 C1066 1.391 . S
H1068 C1076 0.950 . S
H1069 C1081 0.950 . S
H1070 C1078 0.950 . S
H1071 C1080 0.950 . S
H1072 C1082 0.950 . S
H1073 C1084 0.950 . S
H1074 C1086 0.950 . S
H1075 C1087 0.950 . S
C1076 H1068 0.950 . S
C1076 C1077 1.386 . S
C1076 C1078 1.391 . S
C1077 C1076 1.386 . S
C1077 C1081 1.393 . S
C1078 H1070 0.950 . S
C1078 C1076 1.391 . S
C1078 C1079 1.400 . S
C1079 C1078 1.400 . S
C1079 C1080 1.398 . S
C1079 C1085 1.491 . S
C1080 H1071 0.950 . S
C1080 C1079 1.398 . S
C1080 C1081 1.391 . S
C1081 H1069 0.950 . S
C1081 C1077 1.393 . S
C1081 C1080 1.391 . S
C1082 H1072 0.950 . S
C1082 C1083 1.386 . S
C1082 C1084 1.391 . S
C1083 C1082 1.386 . S
C1083 C1087 1.393 . S
C1084 H1073 0.950 . S
C1084 C1082 1.391 . S
C1084 C1085 1.400 . S
C1085 C1079 1.491 . S
C1085 C1084 1.400 . S
C1085 C1086 1.398 . S
C1086 H1074 0.950 . S
C1086 C1085 1.398 . S
C1086 C1087 1.391 . S
C1087 H1075 0.950 . S
C1087 C1083 1.393 . S
C1087 C1086 1.391 . S
H1088 C1096 0.950 . S
H1089 C1101 0.950 . S
H1090 C1098 0.950 . S
H1091 C1100 0.950 . S
H1092 C1102 0.950 . S
H1093 C1104 0.950 . S
H1094 C1106 0.950 . S
H1095 C1107 0.950 . S
C1096 H1088 0.950 . S
C1096 C1097 1.386 . S
C1096 C1098 1.391 . S
C1097 C1096 1.386 . S
C1097 C1101 1.393 . S
C1098 H1090 0.950 . S
C1098 C1096 1.391 . S
C1098 C1099 1.400 . S
C1099 C1098 1.400 . S
C1099 C1100 1.398 . S
C1099 C1105 1.491 . S
C1100 H1091 0.950 . S
C1100 C1099 1.398 . S
C1100 C1101 1.391 . S
C1101 H1089 0.950 . S
C1101 C1097 1.393 . S
C1101 C1100 1.391 . S
C1102 H1092 0.950 . S
C1102 C1103 1.386 . S
C1102 C1104 1.391 . S
C1103 C1102 1.386 . S
C1103 C1107 1.393 . S
C1104 H1093 0.950 . S
C1104 C1102 1.391 . S
C1104 C1105 1.400 . S
C1105 C1099 1.491 . S
C1105 C1104 1.400 . S
C1105 C1106 1.398 . S
C1106 H1094 0.950 . S
C1106 C1105 1.398 . S
C1106 C1107 1.391 . S
C1107 H1095 0.950 . S
C1107 C1103 1.393 . S
C1107 C1106 1.391 . S
H1108 C1116 0.950 . S
H1109 C1121 0.950 . S
H1110 C1118 0.950 . S
H1111 C1120 0.950 . S
H1112 C1122 0.950 . S
H1113 C1124 0.950 . S
H1114 C1126 0.950 . S
H1115 C1127 0.950 . S
C1116 H1108 0.950 . S
C1116 C1117 1.386 . S
C1116 C1118 1.391 . S
C1117 C1116 1.386 . S
C1117 C1121 1.393 . S
C1118 H1110 0.950 . S
C1118 C1116 1.391 . S
C1118 C1119 1.400 . S
C1119 C1118 1.400 . S
C1119 C1120 1.398 . S
C1119 C1125 1.491 . S
C1120 H1111 0.950 . S
C1120 C1119 1.398 . S
C1120 C1121 1.391 . S
C1121 H1109 0.950 . S
C1121 C1117 1.393 . S
C1121 C1120 1.391 . S
C1122 H1112 0.950 . S
C1122 C1123 1.386 . S
C1122 C1124 1.391 . S
C1123 C1122 1.386 . S
C1123 C1127 1.393 . S
C1124 H1113 0.950 . S
C1124 C1122 1.391 . S
C1124 C1125 1.400 . S
C1125 C1119 1.491 . S
C1125 C1124 1.400 . S
C1125 C1126 1.398 . S
C1126 H1114 0.950 . S
C1126 C1125 1.398 . S
C1126 C1127 1.391 . S
C1127 H1115 0.950 . S
C1127 C1123 1.393 . S
C1127 C1126 1.391 . S
H1128 C1136 0.950 . S
H1129 C1141 0.950 . S
H1130 C1138 0.950 . S
H1131 C1140 0.950 . S
H1132 C1142 0.950 . S
H1133 C1144 0.950 . S
H1134 C1146 0.950 . S
H1135 C1147 0.950 . S
C1136 H1128 0.950 . S
C1136 C1137 1.386 . S
C1136 C1138 1.391 . S
C1137 C1136 1.386 . S
C1137 C1141 1.393 . S
C1138 H1130 0.950 . S
C1138 C1136 1.391 . S
C1138 C1139 1.400 . S
C1139 C1138 1.400 . S
C1139 C1140 1.398 . S
C1139 C1145 1.491 . S
C1140 H1131 0.950 . S
C1140 C1139 1.398 . S
C1140 C1141 1.391 . S
C1141 H1129 0.950 . S
C1141 C1137 1.393 . S
C1141 C1140 1.391 . S
C1142 H1132 0.950 . S
C1142 C1143 1.386 . S
C1142 C1144 1.391 . S
C1143 C1142 1.386 . S
C1143 C1147 1.393 . S
C1144 H1133 0.950 . S
C1144 C1142 1.391 . S
C1144 C1145 1.400 . S
C1145 C1139 1.491 . S
C1145 C1144 1.400 . S
C1145 C1146 1.398 . S
C1146 H1134 0.950 . S
C1146 C1145 1.398 . S
C1146 C1147 1.391 . S
C1147 H1135 0.950 . S
C1147 C1143 1.393 . S
C1147 C1146 1.391 . S
H1148 C1156 0.950 . S
H1149 C1161 0.950 . S
H1150 C1158 0.950 . S
H1151 C1160 0.950 . S
H1152 C1162 0.950 . S
H1153 C1164 0.950 . S
H1154 C1166 0.950 . S
H1155 C1167 0.950 . S
C1156 H1148 0.950 . S
C1156 C1157 1.386 . S
C1156 C1158 1.391 . S
C1157 C1156 1.386 . S
C1157 C1161 1.393 . S
C1158 H1150 0.950 . S
C1158 C1156 1.391 . S
C1158 C1159 1.400 . S
C1159 C1158 1.400 . S
C1159 C1160 1.398 . S
C1159 C1165 1.491 . S
C1160 H1151 0.950 . S
C1160 C1159 1.398 . S
C1160 C1161 1.391 . S
C1161 H1149 0.950 . S
C1161 C1157 1.393 . S
C1161 C1160 1.391 . S
C1162 H1152 0.950 . S
C1162 C1163 1.386 . S
C1162 C1164 1.391 . S
C1163 C1162 1.386 . S
C1163 C1167 1.393 . S
C1164 H1153 0.950 . S
C1164 C1162 1.391 . S
C1164 C1165 1.400 . S
C1165 C1159 1.491 . S
C1165 C1164 1.400 . S
C1165 C1166 1.398 . S
C1166 H1154 0.950 . S
C1166 C1165 1.398 . S
C1166 C1167 1.391 . S
C1167 H1155 0.950 . S
C1167 C1163 1.393 . S
C1167 C1166 1.391 . S
H1168 C1176 0.950 . S
H1169 C1181 0.950 . S
H1170 C1178 0.950 . S
H1171 C1180 0.950 . S
H1172 C1182 0.950 . S
H1173 C1184 0.950 . S
H1174 C1186 0.950 . S
H1175 C1187 0.950 . S
C1176 H1168 0.950 . S
C1176 C1177 1.386 . S
C1176 C1178 1.391 . S
C1177 C1176 1.386 . S
C1177 C1181 1.393 . S
C1178 H1170 0.950 . S
C1178 C1176 1.391 . S
C1178 C1179 1.400 . S
C1179 C1178 1.400 . S
C1179 C1180 1.398 . S
C1179 C1185 1.491 . S
C1180 H1171 0.950 . S
C1180 C1179 1.398 . S
C1180 C1181 1.391 . S
C1181 H1169 0.950 . S
C1181 C1177 1.393 . S
C1181 C1180 1.391 . S
C1182 H1172 0.950 . S
C1182 C1183 1.386 . S
C1182 C1184 1.391 . S
C1183 C1182 1.386 . S
C1183 C1187 1.393 . S
C1184 H1173 0.950 . S
C1184 C1182 1.391 . S
C1184 C1185 1.400 . S
C1185 C1179 1.491 . S
C1185 C1184 1.400 . S
C1185 C1186 1.398 . S
C1186 H1174 0.950 . S
C1186 C1185 1.398 . S
C1186 C1187 1.391 . S
C1187 H1175 0.950 . S
C1187 C1183 1.393 . S
C1187 C1186 1.391 . S
H1188 C1196 0.950 . S
H1189 C1201 0.950 . S
H1190 C1198 0.950 . S
H1191 C1200 0.950 . S
H1192 C1202 0.950 . S
H1193 C1204 0.950 . S
H1194 C1206 0.950 . S
H1195 C1207 0.950 . S
C1196 H1188 0.950 . S
C1196 C1197 1.386 . S
C1196 C1198 1.391 . S
C1197 C1196 1.386 . S
C1197 C1201 1.393 . S
C1198 H1190 0.950 . S
C1198 C1196 1.391 . S
C1198 C1199 1.400 . S
C1199 C1198 1.400 . S
C1199 C1200 1.398 . S
C1199 C1205 1.491 . S
C1200 H1191 0.950 . S
C1200 C1199 1.398 . S
C1200 C1201 1.391 . S
C1201 H1189 0.950 . S
C1201 C1197 1.393 . S
C1201 C1200 1.391 . S
C1202 H1192 0.950 . S
C1202 C1203 1.386 . S
C1202 C1204 1.391 . S
C1203 C1202 1.386 . S
C1203 C1207 1.393 . S
C1204 H1193 0.950 . S
C1204 C1202 1.391 . S
C1204 C1205 1.400 . S
C1205 C1199 1.491 . S
C1205 C1204 1.400 . S
C1205 C1206 1.398 . S
C1206 H1194 0.950 . S
C1206 C1205 1.398 . S
C1206 C1207 1.391 . S
C1207 H1195 0.950 . S
C1207 C1203 1.393 . S
C1207 C1206 1.391 . S
H1208 C1216 0.950 . S
H1209 C1221 0.950 . S
H1210 C1218 0.950 . S
H1211 C1220 0.950 . S
H1212 C1222 0.950 . S
H1213 C1224 0.950 . S
H1214 C1226 0.950 . S
H1215 C1227 0.950 . S
C1216 H1208 0.950 . S
C1216 C1217 1.386 . S
C1216 C1218 1.391 . S
C1217 C1216 1.386 . S
C1217 C1221 1.393 . S
C1218 H1210 0.950 . S
C1218 C1216 1.391 . S
C1218 C1219 1.400 . S
C1219 C1218 1.400 . S
C1219 C1220 1.398 . S
C1219 C1225 1.491 . S
C1220 H1211 0.950 . S
C1220 C1219 1.398 . S
C1220 C1221 1.391 . S
C1221 H1209 0.950 . S
C1221 C1217 1.393 . S
C1221 C1220 1.391 . S
C1222 H1212 0.950 . S
C1222 C1223 1.386 . S
C1222 C1224 1.391 . S
C1223 C1222 1.386 . S
C1223 C1227 1.393 . S
C1224 H1213 0.950 . S
C1224 C1222 1.391 . S
C1224 C1225 1.400 . S
C1225 C1219 1.491 . S
C1225 C1224 1.400 . S
C1225 C1226 1.398 . S
C1226 H1214 0.950 . S
C1226 C1225 1.398 . S
C1226 C1227 1.391 . S
C1227 H1215 0.950 . S
C1227 C1223 1.393 . S
C1227 C1226 1.391 . S
H1228 C1236 0.950 . S
H1229 C1241 0.950 . S
H1230 C1238 0.950 . S
H1231 C1240 0.950 . S
H1232 C1242 0.950 . S
H1233 C1244 0.950 . S
H1234 C1246 0.950 . S
H1235 C1247 0.950 . S
C1236 H1228 0.950 . S
C1236 C1237 1.386 . S
C1236 C1238 1.391 . S
C1237 C1236 1.386 . S
C1237 C1241 1.393 . S
C1238 H1230 0.950 . S
C1238 C1236 1.391 . S
C1238 C1239 1.400 . S
C1239 C1238 1.400 . S
C1239 C1240 1.398 . S
C1239 C1245 1.491 . S
C1240 H1231 0.950 . S
C1240 C1239 1.398 . S
C1240 C1241 1.391 . S
C1241 H1229 0.950 . S
C1241 C1237 1.393 . S
C1241 C1240 1.391 . S
C1242 H1232 0.950 . S
C1242 C1243 1.386 . S
C1242 C1244 1.391 . S
C1243 C1242 1.386 . S
C1243 C1247 1.393 . S
C1244 H1233 0.950 . S
C1244 C1242 1.391 . S
C1244 C1245 1.400 . S
C1245 C1239 1.491 . S
C1245 C1244 1.400 . S
C1245 C1246 1.398 . S
C1246 H1234 0.950 . S
C1246 C1245 1.398 . S
C1246 C1247 1.391 . S
C1247 H1235 0.950 . S
C1247 C1243 1.393 . S
C1247 C1246 1.391 . S
H1248 C1256 0.950 . S
H1249 C1261 0.950 . S
H1250 C1258 0.950 . S
H1251 C1260 0.950 . S
H1252 C1262 0.950 . S
H1253 C1264 0.950 . S
H1254 C1266 0.950 . S
H1255 C1267 0.950 . S
C1256 H1248 0.950 . S
C1256 C1257 1.386 . S
C1256 C1258 1.391 . S
C1257 C1256 1.386 . S
C1257 C1261 1.393 . S
C1258 H1250 0.950 . S
C1258 C1256 1.391 . S
C1258 C1259 1.400 . S
C1259 C1258 1.400 . S
C1259 C1260 1.398 . S
C1259 C1265 1.491 . S
C1260 H1251 0.950 . S
C1260 C1259 1.398 . S
C1260 C1261 1.391 . S
C1261 H1249 0.950 . S
C1261 C1257 1.393 . S
C1261 C1260 1.391 . S
C1262 H1252 0.950 . S
C1262 C1263 1.386 . S
C1262 C1264 1.391 . S
C1263 C1262 1.386 . S
C1263 C1267 1.393 . S
C1264 H1253 0.950 . S
C1264 C1262 1.391 . S
C1264 C1265 1.400 . S
C1265 C1259 1.491 . S
C1265 C1264 1.400 . S
C1265 C1266 1.398 . S
C1266 H1254 0.950 . S
C1266 C1265 1.398 . S
C1266 C1267 1.391 . S
C1267 H1255 0.950 . S
C1267 C1263 1.393 . S
C1267 C1266 1.391 . S
H1268 C1276 0.950 . S
H1269 C1281 0.950 . S
H1270 C1278 0.950 . S
H1271 C1280 0.950 . S
H1272 C1282 0.950 . S
H1273 C1284 0.950 . S
H1274 C1286 0.950 . S
H1275 C1287 0.950 . S
C1276 H1268 0.950 . S
C1276 C1277 1.386 . S
C1276 C1278 1.391 . S
C1277 C1276 1.386 . S
C1277 C1281 1.393 . S
C1278 H1270 0.950 . S
C1278 C1276 1.391 . S
C1278 C1279 1.400 . S
C1279 C1278 1.400 . S
C1279 C1280 1.398 . S
C1279 C1285 1.491 . S
C1280 H1271 0.950 . S
C1280 C1279 1.398 . S
C1280 C1281 1.391 . S
C1281 H1269 0.950 . S
C1281 C1277 1.393 . S
C1281 C1280 1.391 . S
C1282 H1272 0.950 . S
C1282 C1283 1.386 . S
C1282 C1284 1.391 . S
C1283 C1282 1.386 . S
C1283 C1287 1.393 . S
C1284 H1273 0.950 . S
C1284 C1282 1.391 . S
C1284 C1285 1.400 . S
C1285 C1279 1.491 . S
C1285 C1284 1.400 . S
C1285 C1286 1.398 . S
C1286 H1274 0.950 . S
C1286 C1285 1.398 . S
C1286 C1287 1.391 . S
C1287 H1275 0.950 . S
C1287 C1283 1.393 . S
C1287 C1286 1.391 . S
H1288 C1296 0.950 . S
H1289 C1301 0.950 . S
H1290 C1298 0.950 . S
H1291 C1300 0.950 . S
H1292 C1302 0.950 . S
H1293 C1304 0.950 . S
H1294 C1306 0.950 . S
H1295 C1307 0.950 . S
C1296 H1288 0.950 . S
C1296 C1297 1.386 . S
C1296 C1298 1.391 . S
C1297 C1296 1.386 . S
C1297 C1301 1.393 . S
C1298 H1290 0.950 . S
C1298 C1296 1.391 . S
C1298 C1299 1.400 . S
C1299 C1298 1.400 . S
C1299 C1300 1.398 . S
C1299 C1305 1.491 . S
C1300 H1291 0.950 . S
C1300 C1299 1.398 . S
C1300 C1301 1.391 . S
C1301 H1289 0.950 . S
C1301 C1297 1.393 . S
C1301 C1300 1.391 . S
C1302 H1292 0.950 . S
C1302 C1303 1.386 . S
C1302 C1304 1.391 . S
C1303 C1302 1.386 . S
C1303 C1307 1.393 . S
C1304 H1293 0.950 . S
C1304 C1302 1.391 . S
C1304 C1305 1.400 . S
C1305 C1299 1.491 . S
C1305 C1304 1.400 . S
C1305 C1306 1.398 . S
C1306 H1294 0.950 . S
C1306 C1305 1.398 . S
C1306 C1307 1.391 . S
C1307 H1295 0.950 . S
C1307 C1303 1.393 . S
C1307 C1306 1.391 . S
H1308 C1316 0.950 . S
H1309 C1321 0.950 . S
H1310 C1318 0.950 . S
H1311 C1320 0.950 . S
H1312 C1322 0.950 . S
H1313 C1324 0.950 . S
H1314 C1326 0.950 . S
H1315 C1327 0.950 . S
C1316 H1308 0.950 . S
C1316 C1317 1.386 . S
C1316 C1318 1.391 . S
C1317 C1316 1.386 . S
C1317 C1321 1.393 . S
C1318 H1310 0.950 . S
C1318 C1316 1.391 . S
C1318 C1319 1.400 . S
C1319 C1318 1.400 . S
C1319 C1320 1.398 . S
C1319 C1325 1.491 . S
C1320 H1311 0.950 . S
C1320 C1319 1.398 . S
C1320 C1321 1.391 . S
C1321 H1309 0.950 . S
C1321 C1317 1.393 . S
C1321 C1320 1.391 . S
C1322 H1312 0.950 . S
C1322 C1323 1.386 . S
C1322 C1324 1.391 . S
C1323 C1322 1.386 . S
C1323 C1327 1.393 . S
C1324 H1313 0.950 . S
C1324 C1322 1.391 . S
C1324 C1325 1.400 . S
C1325 C1319 1.491 . S
C1325 C1324 1.400 . S
C1325 C1326 1.398 . S
C1326 H1314 0.950 . S
C1326 C1325 1.398 . S
C1326 C1327 1.391 . S
C1327 H1315 0.950 . S
C1327 C1323 1.393 . S
C1327 C1326 1.391 . S
H1328 C1336 0.950 . S
H1329 C1341 0.950 . S
H1330 C1338 0.950 . S
H1331 C1340 0.950 . S
H1332 C1342 0.950 . S
H1333 C1344 0.950 . S
H1334 C1346 0.950 . S
H1335 C1347 0.950 . S
C1336 H1328 0.950 . S
C1336 C1337 1.386 . S
C1336 C1338 1.391 . S
C1337 C1336 1.386 . S
C1337 C1341 1.393 . S
C1338 H1330 0.950 . S
C1338 C1336 1.391 . S
C1338 C1339 1.400 . S
C1339 C1338 1.400 . S
C1339 C1340 1.398 . S
C1339 C1345 1.491 . S
C1340 H1331 0.950 . S
C1340 C1339 1.398 . S
C1340 C1341 1.391 . S
C1341 H1329 0.950 . S
C1341 C1337 1.393 . S
C1341 C1340 1.391 . S
C1342 H1332 0.950 . S
C1342 C1343 1.386 . S
C1342 C1344 1.391 . S
C1343 C1342 1.386 . S
C1343 C1347 1.393 . S
C1344 H1333 0.950 . S
C1344 C1342 1.391 . S
C1344 C1345 1.400 . S
C1345 C1339 1.491 . S
C1345 C1344 1.400 . S
C1345 C1346 1.398 . S
C1346 H1334 0.950 . S
C1346 C1345 1.398 . S
C1346 C1347 1.391 . S
C1347 H1335 0.950 . S
C1347 C1343 1.393 . S
C1347 C1346 1.391 . S
H1348 C1356 0.950 . S
H1349 C1361 0.950 . S
H1350 C1358 0.950 . S
H1351 C1360 0.950 . S
H1352 C1362 0.950 . S
H1353 C1364 0.950 . S
H1354 C1366 0.950 . S
H1355 C1367 0.950 . S
C1356 H1348 0.950 . S
C1356 C1357 1.386 . S
C1356 C1358 1.391 . S
C1357 C1356 1.386 . S
C1357 C1361 1.393 . S
C1358 H1350 0.950 . S
C1358 C1356 1.391 . S
C1358 C1359 1.400 . S
C1359 C1358 1.400 . S
C1359 C1360 1.398 . S
C1359 C1365 1.491 . S
C1360 H1351 0.950 . S
C1360 C1359 1.398 . S
C1360 C1361 1.391 . S
C1361 H1349 0.950 . S
C1361 C1357 1.393 . S
C1361 C1360 1.391 . S
C1362 H1352 0.950 . S
C1362 C1363 1.386 . S
C1362 C1364 1.391 . S
C1363 C1362 1.386 . S
C1363 C1367 1.393 . S
C1364 H1353 0.950 . S
C1364 C1362 1.391 . S
C1364 C1365 1.400 . S
C1365 C1359 1.491 . S
C1365 C1364 1.400 . S
C1365 C1366 1.398 . S
C1366 H1354 0.950 . S
C1366 C1365 1.398 . S
C1366 C1367 1.391 . S
C1367 H1355 0.950 . S
C1367 C1363 1.393 . S
C1367 C1366 1.391 . S
H1368 C1376 0.950 . S
H1369 C1381 0.950 . S
H1370 C1378 0.950 . S
H1371 C1380 0.950 . S
H1372 C1382 0.950 . S
H1373 C1384 0.950 . S
H1374 C1386 0.950 . S
H1375 C1387 0.950 . S
C1376 H1368 0.950 . S
C1376 C1377 1.386 . S
C1376 C1378 1.391 . S
C1377 C1376 1.386 . S
C1377 C1381 1.393 . S
C1378 H1370 0.950 . S
C1378 C1376 1.391 . S
C1378 C1379 1.400 . S
C1379 C1378 1.400 . S
C1379 C1380 1.398 . S
C1379 C1385 1.491 . S
C1380 H1371 0.950 . S
C1380 C1379 1.398 . S
C1380 C1381 1.391 . S
C1381 H1369 0.950 . S
C1381 C1377 1.393 . S
C1381 C1380 1.391 . S
C1382 H1372 0.950 . S
C1382 C1383 1.386 . S
C1382 C1384 1.391 . S
C1383 C1382 1.386 . S
C1383 C1387 1.393 . S
C1384 H1373 0.950 . S
C1384 C1382 1.391 . S
C1384 C1385 1.400 . S
C1385 C1379 1.491 . S
C1385 C1384 1.400 . S
C1385 C1386 1.398 . S
C1386 H1374 0.950 . S
C1386 C1385 1.398 . S
C1386 C1387 1.391 . S
C1387 H1375 0.950 . S
C1387 C1383 1.393 . S
C1387 C1386 1.391 . S
H1388 C1396 0.950 . S
H1389 C1401 0.950 . S
H1390 C1398 0.950 . S
H1391 C1400 0.950 . S
H1392 C1402 0.950 . S
H1393 C1404 0.950 . S
H1394 C1406 0.950 . S
H1395 C1407 0.950 . S
C1396 H1388 0.950 . S
C1396 C1397 1.386 . S
C1396 C1398 1.391 . S
C1397 C1396 1.386 . S
C1397 C1401 1.393 . S
C1398 H1390 0.950 . S
C1398 C1396 1.391 . S
C1398 C1399 1.400 . S
C1399 C1398 1.400 . S
C1399 C1400 1.398 . S
C1399 C1405 1.491 . S
C1400 H1391 0.950 . S
C1400 C1399 1.398 . S
C1400 C1401 1.391 . S
C1401 H1389 0.950 . S
C1401 C1397 1.393 . S
C1401 C1400 1.391 . S
C1402 H1392 0.950 . S
C1402 C1403 1.386 . S
C1402 C1404 1.391 . S
C1403 C1402 1.386 . S
C1403 C1407 1.393 . S
C1404 H1393 0.950 . S
C1404 C1402 1.391 . S
C1404 C1405 1.400 . S
C1405 C1399 1.491 . S
C1405 C1404 1.400 . S
C1405 C1406 1.398 . S
C1406 H1394 0.950 . S
C1406 C1405 1.398 . S
C1406 C1407 1.391 . S
C1407 H1395 0.950 . S
C1407 C1403 1.393 . S
C1407 C1406 1.391 . S
H1408 C1416 0.950 . S
H1409 C1421 0.950 . S
H1410 C1418 0.950 . S
H1411 C1420 0.950 . S
H1412 C1422 0.950 . S
H1413 C1424 0.950 . S
H1414 C1426 0.950 . S
H1415 C1427 0.950 . S
C1416 H1408 0.950 . S
C1416 C1417 1.386 . S
C1416 C1418 1.391 . S
C1417 C1416 1.386 . S
C1417 C1421 1.393 . S
C1418 H1410 0.950 . S
C1418 C1416 1.391 . S
C1418 C1419 1.400 . S
C1419 C1418 1.400 . S
C1419 C1420 1.398 . S
C1419 C1425 1.491 . S
C1420 H1411 0.950 . S
C1420 C1419 1.398 . S
C1420 C1421 1.391 . S
C1421 H1409 0.950 . S
C1421 C1417 1.393 . S
C1421 C1420 1.391 . S
C1422 H1412 0.950 . S
C1422 C1423 1.386 . S
C1422 C1424 1.391 . S
C1423 C1422 1.386 . S
C1423 C1427 1.393 . S
C1424 H1413 0.950 . S
C1424 C1422 1.391 . S
C1424 C1425 1.400 . S
C1425 C1419 1.491 . S
C1425 C1424 1.400 . S
C1425 C1426 1.398 . S
C1426 H1414 0.950 . S
C1426 C1425 1.398 . S
C1426 C1427 1.391 . S
C1427 H1415 0.950 . S
C1427 C1423 1.393 . S
C1427 C1426 1.391 . S
H1428 C1436 0.950 . S
H1429 C1441 0.950 . S
H1430 C1438 0.950 . S
H1431 C1440 0.950 . S
H1432 C1442 0.950 . S
H1433 C1444 0.950 . S
H1434 C1446 0.950 . S
H1435 C1447 0.950 . S
C1436 H1428 0.950 . S
C1436 C1437 1.386 . S
C1436 C1438 1.391 . S
C1437 C1436 1.386 . S
C1437 C1441 1.393 . S
C1438 H1430 0.950 . S
C1438 C1436 1.391 . S
C1438 C1439 1.400 . S
C1439 C1438 1.400 . S
C1439 C1440 1.398 . S
C1439 C1445 1.491 . S
C1440 H1431 0.950 . S
C1440 C1439 1.398 . S
C1440 C1441 1.391 . S
C1441 H1429 0.950 . S
C1441 C1437 1.393 . S
C1441 C1440 1.391 . S
C1442 H1432 0.950 . S
C1442 C1443 1.386 . S
C1442 C1444 1.391 . S
C1443 C1442 1.386 . S
C1443 C1447 1.393 . S
C1444 H1433 0.950 . S
C1444 C1442 1.391 . S
C1444 C1445 1.400 . S
C1445 C1439 1.491 . S
C1445 C1444 1.400 . S
C1445 C1446 1.398 . S
C1446 H1434 0.950 . S
C1446 C1445 1.398 . S
C1446 C1447 1.391 . S
C1447 H1435 0.950 . S
C1447 C1443 1.393 . S
C1447 C1446 1.391 . S
H1448 C1456 0.950 . S
H1449 C1461 0.950 . S
H1450 C1458 0.950 . S
H1451 C1460 0.950 . S
H1452 C1462 0.950 . S
H1453 C1464 0.950 . S
H1454 C1466 0.950 . S
H1455 C1467 0.950 . S
C1456 H1448 0.950 . S
C1456 C1457 1.386 . S
C1456 C1458 1.391 . S
C1457 C1456 1.386 . S
C1457 C1461 1.393 . S
C1458 H1450 0.950 . S
C1458 C1456 1.391 . S
C1458 C1459 1.400 . S
C1459 C1458 1.400 . S
C1459 C1460 1.398 . S
C1459 C1465 1.491 . S
C1460 H1451 0.950 . S
C1460 C1459 1.398 . S
C1460 C1461 1.391 . S
C1461 H1449 0.950 . S
C1461 C1457 1.393 . S
C1461 C1460 1.391 . S
C1462 H1452 0.950 . S
C1462 C1463 1.386 . S
C1462 C1464 1.391 . S
C1463 C1462 1.386 . S
C1463 C1467 1.393 . S
C1464 H1453 0.950 . S
C1464 C1462 1.391 . S
C1464 C1465 1.400 . S
C1465 C1459 1.491 . S
C1465 C1464 1.400 . S
C1465 C1466 1.398 . S
C1466 H1454 0.950 . S
C1466 C1465 1.398 . S
C1466 C1467 1.391 . S
C1467 H1455 0.950 . S
C1467 C1463 1.393 . S
C1467 C1466 1.391 . S
H1468 C1476 0.950 . S
H1469 C1481 0.950 . S
H1470 C1478 0.950 . S
H1471 C1480 0.950 . S
H1472 C1482 0.950 . S
H1473 C1484 0.950 . S
H1474 C1486 0.950 . S
H1475 C1487 0.950 . S
C1476 H1468 0.950 . S
C1476 C1477 1.386 . S
C1476 C1478 1.391 . S
C1477 C1476 1.386 . S
C1477 C1481 1.393 . S
C1478 H1470 0.950 . S
C1478 C1476 1.391 . S
C1478 C1479 1.400 . S
C1479 C1478 1.400 . S
C1479 C1480 1.398 . S
C1479 C1485 1.491 . S
C1480 H1471 0.950 . S
C1480 C1479 1.398 . S
C1480 C1481 1.391 . S
C1481 H1469 0.950 . S
C1481 C1477 1.393 . S
C1481 C1480 1.391 . S
C1482 H1472 0.950 . S
C1482 C1483 1.386 . S
C1482 C1484 1.391 . S
C1483 C1482 1.386 . S
C1483 C1487 1.393 . S
C1484 H1473 0.950 . S
C1484 C1482 1.391 . S
C1484 C1485 1.400 . S
C1485 C1479 1.491 . S
C1485 C1484 1.400 . S
C1485 C1486 1.398 . S
C1486 H1474 0.950 . S
C1486 C1485 1.398 . S
C1486 C1487 1.391 . S
C1487 H1475 0.950 . S
C1487 C1483 1.393 . S
C1487 C1486 1.391 . S
H1488 C1496 0.950 . S
H1489 C1501 0.950 . S
H1490 C1498 0.950 . S
H1491 C1500 0.950 . S
H1492 C1502 0.950 . S
H1493 C1504 0.950 . S
H1494 C1506 0.950 . S
H1495 C1507 0.950 . S
C1496 H1488 0.950 . S
C1496 C1497 1.386 . S
C1496 C1498 1.391 . S
C1497 C1496 1.386 . S
C1497 C1501 1.393 . S
C1498 H1490 0.950 . S
C1498 C1496 1.391 . S
C1498 C1499 1.400 . S
C1499 C1498 1.400 . S
C1499 C1500 1.398 . S
C1499 C1505 1.491 . S
C1500 H1491 0.950 . S
C1500 C1499 1.398 . S
C1500 C1501 1.391 . S
C1501 H1489 0.950 . S
C1501 C1497 1.393 . S
C1501 C1500 1.391 . S
C1502 H1492 0.950 . S
C1502 C1503 1.386 . S
C1502 C1504 1.391 . S
C1503 C1502 1.386 . S
C1503 C1507 1.393 . S
C1504 H1493 0.950 . S
C1504 C1502 1.391 . S
C1504 C1505 1.400 . S
C1505 C1499 1.491 . S
C1505 C1504 1.400 . S
C1505 C1506 1.398 . S
C1506 H1494 0.950 . S
C1506 C1505 1.398 . S
C1506 C1507 1.391 . S
C1507 H1495 0.950 . S
C1507 C1503 1.393 . S
C1507 C1506 1.391 . S
H1508 C1516 0.950 . S
H1509 C1521 0.950 . S
H1510 C1518 0.950 . S
H1511 C1520 0.950 . S
H1512 C1522 0.950 . S
H1513 C1524 0.950 . S
H1514 C1526 0.950 . S
H1515 C1527 0.950 . S
C1516 H1508 0.950 . S
C1516 C1517 1.386 . S
C1516 C1518 1.391 . S
C1517 C1516 1.386 . S
C1517 C1521 1.393 . S
C1518 H1510 0.950 . S
C1518 C1516 1.391 . S
C1518 C1519 1.400 . S
C1519 C1518 1.400 . S
C1519 C1520 1.398 . S
C1519 C1525 1.491 . S
C1520 H1511 0.950 . S
C1520 C1519 1.398 . S
C1520 C1521 1.391 . S
C1521 H1509 0.950 . S
C1521 C1517 1.393 . S
C1521 C1520 1.391 . S
C1522 H1512 0.950 . S
C1522 C1523 1.386 . S
C1522 C1524 1.391 . S
C1523 C1522 1.386 . S
C1523 C1527 1.393 . S
C1524 H1513 0.950 . S
C1524 C1522 1.391 . S
C1524 C1525 1.400 . S
C1525 C1519 1.491 . S
C1525 C1524 1.400 . S
C1525 C1526 1.398 . S
C1526 H1514 0.950 . S
C1526 C1525 1.398 . S
C1526 C1527 1.391 . S
C1527 H1515 0.950 . S
C1527 C1523 1.393 . S
C1527 C1526 1.391 . S
H1528 C1536 0.950 . S
H1529 C1541 0.950 . S
H1530 C1538 0.950 . S
H1531 C1540 0.950 . S
H1532 C1542 0.950 . S
H1533 C1544 0.950 . S
H1534 C1546 0.950 . S
H1535 C1547 0.950 . S
C1536 H1528 0.950 . S
C1536 C1537 1.386 . S
C1536 C1538 1.391 . S
C1537 C1536 1.386 . S
C1537 C1541 1.393 . S
C1538 H1530 0.950 . S
C1538 C1536 1.391 . S
C1538 C1539 1.400 . S
C1539 C1538 1.400 . S
C1539 C1540 1.398 . S
C1539 C1545 1.491 . S
C1540 H1531 0.950 . S
C1540 C1539 1.398 . S
C1540 C1541 1.391 . S
C1541 H1529 0.950 . S
C1541 C1537 1.393 . S
C1541 C1540 1.391 . S
C1542 H1532 0.950 . S
C1542 C1543 1.386 . S
C1542 C1544 1.391 . S
C1543 C1542 1.386 . S
C1543 C1547 1.393 . S
C1544 H1533 0.950 . S
C1544 C1542 1.391 . S
C1544 C1545 1.400 . S
C1545 C1539 1.491 . S
C1545 C1544 1.400 . S
C1545 C1546 1.398 . S
C1546 H1534 0.950 . S
C1546 C1545 1.398 . S
C1546 C1547 1.391 . S
C1547 H1535 0.950 . S
C1547 C1543 1.393 . S
C1547 C1546 1.391 . S
H1548 C1556 0.950 . S
H1549 C1561 0.950 . S
H1550 C1558 0.950 . S
H1551 C1560 0.950 . S
H1552 C1562 0.950 . S
H1553 C1564 0.950 . S
H1554 C1566 0.950 . S
H1555 C1567 0.950 . S
C1556 H1548 0.950 . S
C1556 C1557 1.386 . S
C1556 C1558 1.391 . S
C1557 C1556 1.386 . S
C1557 C1561 1.393 . S
C1558 H1550 0.950 . S
C1558 C1556 1.391 . S
C1558 C1559 1.400 . S
C1559 C1558 1.400 . S
C1559 C1560 1.398 . S
C1559 C1565 1.491 . S
C1560 H1551 0.950 . S
C1560 C1559 1.398 . S
C1560 C1561 1.391 . S
C1561 H1549 0.950 . S
C1561 C1557 1.393 . S
C1561 C1560 1.391 . S
C1562 H1552 0.950 . S
C1562 C1563 1.386 . S
C1562 C1564 1.391 . S
C1563 C1562 1.386 . S
C1563 C1567 1.393 . S
C1564 H1553 0.950 . S
C1564 C1562 1.391 . S
C1564 C1565 1.400 . S
C1565 C1559 1.491 . S
C1565 C1564 1.400 . S
C1565 C1566 1.398 . S
C1566 H1554 0.950 . S
C1566 C1565 1.398 . S
C1566 C1567 1.391 . S
C1567 H1555 0.950 . S
C1567 C1563 1.393 . S
C1567 C1566 1.391 . S
H1568 C1576 0.965 . S
H1569 C1581 0.950 . S
H1570 C1578 0.950 . S
H1571 C1580 0.950 . S
H1572 C1582 0.950 . S
H1573 C1584 0.950 . S
H1574 C1586 0.950 . S
H1575 C1587 0.950 . S
C1576 H1568 0.965 . S
C1576 C1577 1.365 1_545 S
C1576 C1578 1.396 . S
C1577 C1576 1.365 1_565 S
C1577 C1581 1.393 . S
C1578 H1570 0.950 . S
C1578 C1576 1.396 . S
C1578 C1579 1.400 1_545 S
C1579 C1578 1.400 1_565 S
C1579 C1580 1.398 . S
C1579 C1585 1.491 1_565 S
C1580 H1571 0.950 . S
C1580 C1579 1.398 . S
C1580 C1581 1.391 . S
C1581 H1569 0.950 . S
C1581 C1577 1.393 . S
C1581 C1580 1.391 . S
C1582 H1572 0.950 . S
C1582 C1583 1.386 1_565 S
C1582 C1584 1.391 . S
C1583 C1582 1.386 1_545 S
C1583 C1587 1.393 . S
C1584 H1573 0.950 . S
C1584 C1582 1.391 . S
C1584 C1585 1.400 1_565 S
C1585 C1579 1.491 1_545 S
C1585 C1584 1.400 1_545 S
C1585 C1586 1.398 . S
C1586 H1574 0.950 . S
C1586 C1585 1.398 . S
C1586 C1587 1.391 . S
C1587 H1575 0.950 . S
C1587 C1583 1.393 . S
C1587 C1586 1.391 . S
H1588 C1596 0.950 . S
H1589 C1601 0.950 . S
H1590 C1598 0.950 1_455 S
H1591 C1600 0.950 . S
H1592 C1602 0.950 . S
H1593 C1604 0.950 . S
H1594 C1606 0.950 . S
H1595 C1607 0.950 . S
C1596 H1588 0.950 . S
C1596 C1597 1.386 . S
C1596 C1598 1.391 . S
C1597 C1596 1.386 . S
C1597 C1601 1.393 . S
C1598 H1590 0.950 1_655 S
C1598 C1596 1.391 . S
C1598 C1599 1.400 . S
C1599 C1598 1.400 . S
C1599 C1600 1.398 . S
C1599 C1605 1.491 . S
C1600 H1591 0.950 . S
C1600 C1599 1.398 . S
C1600 C1601 1.391 . S
C1601 H1589 0.950 . S
C1601 C1597 1.393 . S
C1601 C1600 1.391 . S
C1602 H1592 0.950 . S
C1602 C1603 1.386 1_655 S
C1602 C1604 1.391 . S
C1603 C1602 1.386 1_455 S
C1603 C1607 1.393 . S
C1604 H1593 0.950 . S
C1604 C1602 1.391 . S
C1604 C1605 1.400 . S
C1605 C1599 1.491 . S
C1605 C1604 1.400 . S
C1605 C1606 1.398 1_655 S
C1606 H1594 0.950 . S
C1606 C1605 1.398 1_455 S
C1606 C1607 1.391 . S
C1607 H1595 0.950 . S
C1607 C1603 1.393 . S
C1607 C1606 1.391 . S
H1608 C1616 0.950 . S
H1609 C1621 0.950 . S
H1610 C1618 0.950 . S
H1611 C1620 0.950 . S
H1612 C1622 0.950 . S
H1613 C1624 0.950 . S
H1614 C1626 0.950 . S
H1615 C1627 0.950 . S
C1616 H1608 0.950 . S
C1616 C1617 1.386 . S
C1616 C1618 1.391 . S
C1617 C1616 1.386 . S
C1617 C1621 1.393 . S
C1618 H1610 0.950 . S
C1618 C1616 1.391 . S
C1618 C1619 1.400 . S
C1619 C1618 1.400 . S
C1619 C1620 1.398 . S
C1619 C1625 1.491 . S
C1620 H1611 0.950 . S
C1620 C1619 1.398 . S
C1620 C1621 1.391 . S
C1621 H1609 0.950 . S
C1621 C1617 1.393 . S
C1621 C1620 1.391 . S
C1622 H1612 0.950 . S
C1622 C1623 1.386 . S
C1622 C1624 1.391 . S
C1623 C1622 1.386 . S
C1623 C1627 1.393 . S
C1624 H1613 0.950 . S
C1624 C1622 1.391 . S
C1624 C1625 1.400 . S
C1625 C1619 1.491 . S
C1625 C1624 1.400 . S
C1625 C1626 1.398 . S
C1626 H1614 0.950 . S
C1626 C1625 1.398 . S
C1626 C1627 1.391 . S
C1627 H1615 0.950 . S
C1627 C1623 1.393 . S
C1627 C1626 1.391 . S
H1628 C1636 0.950 . S
H1629 C1641 0.950 . S
H1630 C1638 0.950 . S
H1631 C1640 0.968 . S
H1632 C1642 0.950 . S
H1633 C1644 0.950 . S
H1634 C1646 0.950 . S
H1635 C1647 0.950 . S
C1636 H1628 0.950 . S
C1636 C1637 1.386 . S
C1636 C1638 1.391 . S
C1637 C1636 1.386 . S
C1637 C1641 1.393 . S
C1638 H1630 0.950 . S
C1638 C1636 1.391 . S
C1638 C1639 1.400 . S
C1639 C1638 1.400 . S
C1639 C1640 1.398 . S
C1639 C1645 1.491 1_545 S
C1640 H1631 0.968 . S
C1640 C1639 1.398 . S
C1640 C1641 1.391 . S
C1641 H1629 0.950 . S
C1641 C1637 1.393 . S
C1641 C1640 1.391 . S
C1642 H1632 0.950 . S
C1642 C1643 1.386 . S
C1642 C1644 1.391 . S
C1643 C1642 1.386 . S
C1643 C1647 1.393 . S
C1644 H1633 0.950 . S
C1644 C1642 1.391 . S
C1644 C1645 1.400 . S
C1645 C1639 1.491 1_565 S
C1645 C1644 1.400 . S
C1645 C1646 1.398 . S
C1646 H1634 0.950 . S
C1646 C1645 1.398 . S
C1646 C1647 1.391 . S
C1647 H1635 0.950 . S
C1647 C1643 1.393 . S
C1647 C1646 1.391 . S
H1648 C1656 0.950 . S
H1649 C1661 0.950 1_455 S
H1650 C1658 0.950 . S
H1651 C1660 0.950 . S
H1652 C1662 0.950 . S
H1653 C1664 0.950 . S
H1654 C1666 0.950 . S
H1655 C1667 0.950 . S
C1656 H1648 0.950 . S
C1656 C1657 1.386 . S
C1656 C1658 1.391 . S
C1657 C1656 1.386 . S
C1657 C1661 1.393 . S
C1658 H1650 0.950 . S
C1658 C1656 1.391 . S
C1658 C1659 1.400 . S
C1659 C1658 1.400 . S
C1659 C1660 1.398 1_655 S
C1659 C1665 1.491 1_655 S
C1660 H1651 0.950 . S
C1660 C1659 1.398 1_455 S
C1660 C1661 1.391 1_455 S
C1661 H1649 0.950 1_655 S
C1661 C1657 1.393 . S
C1661 C1660 1.391 1_655 S
C1662 H1652 0.950 . S
C1662 C1663 1.386 . S
C1662 C1664 1.391 . S
C1663 C1662 1.386 . S
C1663 C1667 1.393 1_455 S
C1664 H1653 0.950 . S
C1664 C1662 1.391 . S
C1664 C1665 1.400 . S
C1665 C1659 1.491 1_455 S
C1665 C1664 1.400 . S
C1665 C1666 1.398 1_455 S
C1666 H1654 0.950 . S
C1666 C1665 1.398 1_655 S
C1666 C1667 1.391 . S
C1667 H1655 0.950 . S
C1667 C1663 1.393 1_655 S
C1667 C1666 1.391 . S
H1668 C1676 0.950 . S
H1669 C1681 0.950 . S
H1670 C1678 0.950 . S
H1671 C1680 0.950 . S
H1672 C1682 0.950 . S
H1673 C1684 0.950 . S
H1674 C1686 0.950 . S
H1675 C1687 0.950 . S
C1676 H1668 0.950 . S
C1676 C1677 1.386 . S
C1676 C1678 1.391 . S
C1677 C1676 1.386 . S
C1677 C1681 1.393 . S
C1678 H1670 0.950 . S
C1678 C1676 1.391 . S
C1678 C1679 1.400 . S
C1679 C1678 1.400 . S
C1679 C1680 1.398 . S
C1679 C1685 1.491 . S
C1680 H1671 0.950 . S
C1680 C1679 1.398 . S
C1680 C1681 1.391 . S
C1681 H1669 0.950 . S
C1681 C1677 1.393 . S
C1681 C1680 1.391 . S
C1682 H1672 0.950 . S
C1682 C1683 1.386 . S
C1682 C1684 1.391 . S
C1683 C1682 1.386 . S
C1683 C1687 1.393 . S
C1684 H1673 0.950 . S
C1684 C1682 1.391 . S
C1684 C1685 1.400 . S
C1685 C1679 1.491 . S
C1685 C1684 1.400 . S
C1685 C1686 1.398 . S
C1686 H1674 0.950 . S
C1686 C1685 1.398 . S
C1686 C1687 1.391 . S
C1687 H1675 0.950 . S
C1687 C1683 1.393 . S
C1687 C1686 1.391 . S
H1688 C1696 0.950 . S
H1689 C1701 0.950 . S
H1690 C1698 0.950 . S
H1691 C1700 0.950 . S
H1692 C1702 0.950 . S
H1693 C1704 0.950 . S
H1694 C1706 0.950 . S
H1695 C1707 0.950 . S
C1696 H1688 0.950 . S
C1696 C1697 1.386 . S
C1696 C1698 1.391 . S
C1697 C1696 1.386 . S
C1697 C1701 1.393 . S
C1698 H1690 0.950 . S
C1698 C1696 1.391 . S
C1698 C1699 1.400 . S
C1699 C1698 1.400 . S
C1699 C1700 1.398 . S
C1699 C1705 1.491 . S
C1700 H1691 0.950 . S
C1700 C1699 1.398 . S
C1700 C1701 1.391 . S
C1701 H1689 0.950 . S
C1701 C1697 1.393 . S
C1701 C1700 1.391 . S
C1702 H1692 0.950 . S
C1702 C1703 1.386 . S
C1702 C1704 1.391 . S
C1703 C1702 1.386 . S
C1703 C1707 1.393 . S
C1704 H1693 0.950 . S
C1704 C1702 1.391 . S
C1704 C1705 1.400 . S
C1705 C1699 1.491 . S
C1705 C1704 1.400 . S
C1705 C1706 1.398 . S
C1706 H1694 0.950 . S
C1706 C1705 1.398 . S
C1706 C1707 1.391 . S
C1707 H1695 0.950 . S
C1707 C1703 1.393 . S
C1707 C1706 1.391 . S
H1708 C1716 0.950 . S
H1709 C1721 0.950 . S
H1710 C1718 0.950 . S
H1711 C1720 0.950 . S
H1712 C1722 0.950 . S
H1713 C1724 0.950 . S
H1714 C1726 0.950 . S
H1715 C1727 0.950 . S
C1716 H1708 0.950 . S
C1716 C1717 1.386 . S
C1716 C1718 1.391 . S
C1717 C1716 1.386 . S
C1717 C1721 1.393 . S
C1718 H1710 0.950 . S
C1718 C1716 1.391 . S
C1718 C1719 1.400 . S
C1719 C1718 1.400 . S
C1719 C1720 1.398 . S
C1719 C1725 1.491 . S
C1720 H1711 0.950 . S
C1720 C1719 1.398 . S
C1720 C1721 1.391 . S
C1721 H1709 0.950 . S
C1721 C1717 1.393 . S
C1721 C1720 1.391 . S
C1722 H1712 0.950 . S
C1722 C1723 1.386 . S
C1722 C1724 1.391 . S
C1723 C1722 1.386 . S
C1723 C1727 1.393 . S
C1724 H1713 0.950 . S
C1724 C1722 1.391 . S
C1724 C1725 1.400 . S
C1725 C1719 1.491 . S
C1725 C1724 1.400 . S
C1725 C1726 1.398 . S
C1726 H1714 0.950 . S
C1726 C1725 1.398 . S
C1726 C1727 1.391 . S
C1727 H1715 0.950 . S
C1727 C1723 1.393 . S
C1727 C1726 1.391 . S
H1728 C1736 0.950 . S
H1729 C1741 0.950 . S
H1730 C1738 0.950 . S
H1731 C1740 0.950 . S
H1732 C1742 0.950 . S
H1733 C1744 0.950 . S
H1734 C1746 0.950 . S
H1735 C1747 0.950 . S
C1736 H1728 0.950 . S
C1736 C1737 1.386 . S
C1736 C1738 1.391 . S
C1737 C1736 1.386 . S
C1737 C1741 1.393 . S
C1738 H1730 0.950 . S
C1738 C1736 1.391 . S
C1738 C1739 1.400 . S
C1739 C1738 1.400 . S
C1739 C1740 1.398 . S
C1739 C1745 1.491 . S
C1740 H1731 0.950 . S
C1740 C1739 1.398 . S
C1740 C1741 1.391 . S
C1741 H1729 0.950 . S
C1741 C1737 1.393 . S
C1741 C1740 1.391 . S
C1742 H1732 0.950 . S
C1742 C1743 1.386 . S
C1742 C1744 1.391 . S
C1743 C1742 1.386 . S
C1743 C1747 1.393 . S
C1744 H1733 0.950 . S
C1744 C1742 1.391 . S
C1744 C1745 1.400 . S
C1745 C1739 1.491 . S
C1745 C1744 1.400 . S
C1745 C1746 1.398 . S
C1746 H1734 0.950 . S
C1746 C1745 1.398 . S
C1746 C1747 1.391 . S
C1747 H1735 0.950 . S
C1747 C1743 1.393 . S
C1747 C1746 1.391 . S
H1748 C1756 0.950 . S
H1749 C1761 0.950 . S
H1750 C1758 0.950 . S
H1751 C1760 0.950 . S
H1752 C1762 0.950 . S
H1753 C1764 0.950 . S
H1754 C1766 0.950 . S
H1755 C1767 0.950 . S
C1756 H1748 0.950 . S
C1756 C1757 1.386 . S
C1756 C1758 1.391 . S
C1757 C1756 1.386 . S
C1757 C1761 1.393 . S
C1758 H1750 0.950 . S
C1758 C1756 1.391 . S
C1758 C1759 1.400 . S
C1759 C1758 1.400 . S
C1759 C1760 1.398 . S
C1759 C1765 1.491 . S
C1760 H1751 0.950 . S
C1760 C1759 1.398 . S
C1760 C1761 1.391 . S
C1761 H1749 0.950 . S
C1761 C1757 1.393 . S
C1761 C1760 1.391 . S
C1762 H1752 0.950 . S
C1762 C1763 1.386 . S
C1762 C1764 1.391 . S
C1763 C1762 1.386 . S
C1763 C1767 1.393 . S
C1764 H1753 0.950 . S
C1764 C1762 1.391 . S
C1764 C1765 1.400 . S
C1765 C1759 1.491 . S
C1765 C1764 1.400 . S
C1765 C1766 1.398 . S
C1766 H1754 0.950 . S
C1766 C1765 1.398 . S
C1766 C1767 1.391 . S
C1767 H1755 0.950 . S
C1767 C1763 1.393 . S
C1767 C1766 1.391 . S
H1768 C1776 0.950 . S
H1769 C1781 0.950 . S
H1770 C1778 0.950 . S
H1771 C1780 0.950 . S
H1772 C1782 0.950 . S
H1773 C1784 0.950 . S
H1774 C1786 0.950 . S
H1775 C1787 0.950 . S
C1776 H1768 0.950 . S
C1776 C1777 1.386 . S
C1776 C1778 1.391 . S
C1777 C1776 1.386 . S
C1777 C1781 1.393 . S
C1778 H1770 0.950 . S
C1778 C1776 1.391 . S
C1778 C1779 1.400 . S
C1779 C1778 1.400 . S
C1779 C1780 1.398 . S
C1779 C1785 1.491 . S
C1780 H1771 0.950 . S
C1780 C1779 1.398 . S
C1780 C1781 1.391 . S
C1781 H1769 0.950 . S
C1781 C1777 1.393 . S
C1781 C1780 1.391 . S
C1782 H1772 0.950 . S
C1782 C1783 1.386 . S
C1782 C1784 1.391 . S
C1783 C1782 1.386 . S
C1783 C1787 1.393 . S
C1784 H1773 0.950 . S
C1784 C1782 1.391 . S
C1784 C1785 1.400 . S
C1785 C1779 1.491 . S
C1785 C1784 1.400 . S
C1785 C1786 1.398 . S
C1786 H1774 0.950 . S
C1786 C1785 1.398 . S
C1786 C1787 1.391 . S
C1787 H1775 0.950 . S
C1787 C1783 1.393 . S
C1787 C1786 1.391 . S
H1788 C1796 0.950 . S
H1789 C1801 0.950 . S
H1790 C1798 0.950 . S
H1791 C1800 0.950 . S
H1792 C1802 0.950 . S
H1793 C1804 0.950 . S
H1794 C1806 0.950 . S
H1795 C1807 0.950 . S
C1796 H1788 0.950 . S
C1796 C1797 1.386 . S
C1796 C1798 1.391 . S
C1797 C1796 1.386 . S
C1797 C1801 1.393 . S
C1798 H1790 0.950 . S
C1798 C1796 1.391 . S
C1798 C1799 1.400 . S
C1799 C1798 1.400 . S
C1799 C1800 1.398 . S
C1799 C1805 1.491 . S
C1800 H1791 0.950 . S
C1800 C1799 1.398 . S
C1800 C1801 1.391 . S
C1801 H1789 0.950 . S
C1801 C1797 1.393 . S
C1801 C1800 1.391 . S
C1802 H1792 0.950 . S
C1802 C1803 1.386 . S
C1802 C1804 1.391 . S
C1803 C1802 1.386 . S
C1803 C1807 1.393 . S
C1804 H1793 0.950 . S
C1804 C1802 1.391 . S
C1804 C1805 1.400 . S
C1805 C1799 1.491 . S
C1805 C1804 1.400 . S
C1805 C1806 1.398 . S
C1806 H1794 0.950 . S
C1806 C1805 1.398 . S
C1806 C1807 1.391 . S
C1807 H1795 0.950 . S
C1807 C1803 1.393 . S
C1807 C1806 1.391 . S
H1808 C1816 0.950 . S
H1809 C1821 0.950 . S
H1810 C1818 0.950 . S
H1811 C1820 0.950 . S
H1812 C1822 0.950 . S
H1813 C1824 0.950 . S
H1814 C1826 0.950 . S
H1815 C1827 0.950 . S
C1816 H1808 0.950 . S
C1816 C1817 1.386 . S
C1816 C1818 1.391 . S
C1817 C1816 1.386 . S
C1817 C1821 1.393 . S
C1818 H1810 0.950 . S
C1818 C1816 1.391 . S
C1818 C1819 1.400 . S
C1819 C1818 1.400 . S
C1819 C1820 1.398 . S
C1819 C1825 1.491 . S
C1820 H1811 0.950 . S
C1820 C1819 1.398 . S
C1820 C1821 1.391 . S
C1821 H1809 0.950 . S
C1821 C1817 1.393 . S
C1821 C1820 1.391 . S
C1822 H1812 0.950 . S
C1822 C1823 1.386 . S
C1822 C1824 1.391 . S
C1823 C1822 1.386 . S
C1823 C1827 1.393 . S
C1824 H1813 0.950 . S
C1824 C1822 1.391 . S
C1824 C1825 1.400 . S
C1825 C1819 1.491 . S
C1825 C1824 1.400 . S
C1825 C1826 1.398 . S
C1826 H1814 0.950 . S
C1826 C1825 1.398 . S
C1826 C1827 1.391 . S
C1827 H1815 0.950 . S
C1827 C1823 1.393 . S
C1827 C1826 1.391 . S
H1828 C1836 0.950 . S
H1829 C1841 0.950 . S
H1830 C1838 0.950 . S
H1831 C1840 0.950 . S
H1832 C1842 0.950 . S
H1833 C1844 0.950 . S
H1834 C1846 0.950 . S
H1835 C1847 0.950 . S
C1836 H1828 0.950 . S
C1836 C1837 1.386 . S
C1836 C1838 1.391 . S
C1837 C1836 1.386 . S
C1837 C1841 1.393 . S
C1838 H1830 0.950 . S
C1838 C1836 1.391 . S
C1838 C1839 1.400 . S
C1839 C1838 1.400 . S
C1839 C1840 1.398 . S
C1839 C1845 1.491 . S
C1840 H1831 0.950 . S
C1840 C1839 1.398 . S
C1840 C1841 1.391 . S
C1841 H1829 0.950 . S
C1841 C1837 1.393 . S
C1841 C1840 1.391 . S
C1842 H1832 0.950 . S
C1842 C1843 1.386 . S
C1842 C1844 1.391 . S
C1843 C1842 1.386 . S
C1843 C1847 1.393 . S
C1844 H1833 0.950 . S
C1844 C1842 1.391 . S
C1844 C1845 1.400 . S
C1845 C1839 1.491 . S
C1845 C1844 1.400 . S
C1845 C1846 1.398 . S
C1846 H1834 0.950 . S
C1846 C1845 1.398 . S
C1846 C1847 1.391 . S
C1847 H1835 0.950 . S
C1847 C1843 1.393 . S
C1847 C1846 1.391 . S
H1848 C1856 0.950 . S
H1849 C1861 0.950 . S
H1850 C1858 0.950 . S
H1851 C1860 0.950 . S
H1852 C1862 0.950 . S
H1853 C1864 0.950 . S
H1854 C1866 0.950 . S
H1855 C1867 0.950 . S
C1856 H1848 0.950 . S
C1856 C1857 1.386 . S
C1856 C1858 1.391 . S
C1857 C1856 1.386 . S
C1857 C1861 1.393 . S
C1858 H1850 0.950 . S
C1858 C1856 1.391 . S
C1858 C1859 1.400 . S
C1859 C1858 1.400 . S
C1859 C1860 1.398 . S
C1859 C1865 1.491 . S
C1860 H1851 0.950 . S
C1860 C1859 1.398 . S
C1860 C1861 1.391 . S
C1861 H1849 0.950 . S
C1861 C1857 1.393 . S
C1861 C1860 1.391 . S
C1862 H1852 0.950 . S
C1862 C1863 1.386 . S
C1862 C1864 1.391 . S
C1863 C1862 1.386 . S
C1863 C1867 1.393 . S
C1864 H1853 0.950 . S
C1864 C1862 1.391 . S
C1864 C1865 1.400 . S
C1865 C1859 1.491 . S
C1865 C1864 1.400 . S
C1865 C1866 1.398 . S
C1866 H1854 0.950 . S
C1866 C1865 1.398 . S
C1866 C1867 1.391 . S
C1867 H1855 0.950 . S
C1867 C1863 1.393 . S
C1867 C1866 1.391 . S
H1868 C1876 0.950 . S
H1869 C1881 0.950 . S
H1870 C1878 0.950 . S
H1871 C1880 0.950 . S
H1872 C1882 0.950 . S
H1873 C1884 0.950 . S
H1874 C1886 0.950 . S
H1875 C1887 0.950 . S
C1876 H1868 0.950 . S
C1876 C1877 1.386 . S
C1876 C1878 1.391 . S
C1877 C1876 1.386 . S
C1877 C1881 1.393 . S
C1878 H1870 0.950 . S
C1878 C1876 1.391 . S
C1878 C1879 1.400 . S
C1879 C1878 1.400 . S
C1879 C1880 1.398 . S
C1879 C1885 1.491 . S
C1880 H1871 0.950 . S
C1880 C1879 1.398 . S
C1880 C1881 1.391 . S
C1881 H1869 0.950 . S
C1881 C1877 1.393 . S
C1881 C1880 1.391 . S
C1882 H1872 0.950 . S
C1882 C1883 1.386 . S
C1882 C1884 1.391 . S
C1883 C1882 1.386 . S
C1883 C1887 1.393 . S
C1884 H1873 0.950 . S
C1884 C1882 1.391 . S
C1884 C1885 1.400 . S
C1885 C1879 1.491 . S
C1885 C1884 1.400 . S
C1885 C1886 1.398 . S
C1886 H1874 0.950 . S
C1886 C1885 1.398 . S
C1886 C1887 1.391 . S
C1887 H1875 0.950 . S
C1887 C1883 1.393 . S
C1887 C1886 1.391 . S
H1888 C1896 0.950 . S
H1889 C1901 0.950 . S
H1890 C1898 0.950 . S
H1891 C1900 0.950 . S
H1892 C1902 0.950 . S
H1893 C1904 0.950 . S
H1894 C1906 0.950 . S
H1895 C1907 0.950 . S
C1896 H1888 0.950 . S
C1896 C1897 1.386 . S
C1896 C1898 1.391 . S
C1897 C1896 1.386 . S
C1897 C1901 1.393 . S
C1898 H1890 0.950 . S
C1898 C1896 1.391 . S
C1898 C1899 1.400 . S
C1899 C1898 1.400 . S
C1899 C1900 1.398 . S
C1899 C1905 1.491 . S
C1900 H1891 0.950 . S
C1900 C1899 1.398 . S
C1900 C1901 1.391 . S
C1901 H1889 0.950 . S
C1901 C1897 1.393 . S
C1901 C1900 1.391 . S
C1902 H1892 0.950 . S
C1902 C1903 1.386 . S
C1902 C1904 1.391 . S
C1903 C1902 1.386 . S
C1903 C1907 1.393 . S
C1904 H1893 0.950 . S
C1904 C1902 1.391 . S
C1904 C1905 1.400 . S
C1905 C1899 1.491 . S
C1905 C1904 1.400 . S
C1905 C1906 1.398 . S
C1906 H1894 0.950 . S
C1906 C1905 1.398 . S
C1906 C1907 1.391 . S
C1907 H1895 0.950 . S
C1907 C1903 1.393 . S
C1907 C1906 1.391 . S
H1908 C1916 0.950 . S
H1909 C1921 0.950 . S
H1910 C1918 0.950 . S
H1911 C1920 0.950 . S
H1912 C1922 0.950 . S
H1913 C1924 0.950 . S
H1914 C1926 0.950 . S
H1915 C1927 0.950 . S
C1916 H1908 0.950 . S
C1916 C1917 1.386 . S
C1916 C1918 1.391 . S
C1917 C1916 1.386 . S
C1917 C1921 1.393 . S
C1918 H1910 0.950 . S
C1918 C1916 1.391 . S
C1918 C1919 1.400 . S
C1919 C1918 1.400 . S
C1919 C1920 1.398 . S
C1919 C1925 1.491 . S
C1920 H1911 0.950 . S
C1920 C1919 1.398 . S
C1920 C1921 1.391 . S
C1921 H1909 0.950 . S
C1921 C1917 1.393 . S
C1921 C1920 1.391 . S
C1922 H1912 0.950 . S
C1922 C1923 1.386 . S
C1922 C1924 1.391 . S
C1923 C1922 1.386 . S
C1923 C1927 1.393 . S
C1924 H1913 0.950 . S
C1924 C1922 1.391 . S
C1924 C1925 1.400 . S
C1925 C1919 1.491 . S
C1925 C1924 1.400 . S
C1925 C1926 1.398 . S
C1926 H1914 0.950 . S
C1926 C1925 1.398 . S
C1926 C1927 1.391 . S
C1927 H1915 0.950 . S
C1927 C1923 1.393 . S
C1927 C1926 1.391 . S
H1928 C1936 0.950 . S
H1929 C1941 0.950 . S
H1930 C1938 0.950 . S
H1931 C1940 0.950 . S
H1932 C1942 0.950 . S
H1933 C1944 0.950 . S
H1934 C1946 0.950 . S
H1935 C1947 0.950 . S
C1936 H1928 0.950 . S
C1936 C1937 1.386 . S
C1936 C1938 1.391 . S
C1937 C1936 1.386 . S
C1937 C1941 1.393 . S
C1938 H1930 0.950 . S
C1938 C1936 1.391 . S
C1938 C1939 1.400 . S
C1939 C1938 1.400 . S
C1939 C1940 1.398 . S
C1939 C1945 1.491 . S
C1940 H1931 0.950 . S
C1940 C1939 1.398 . S
C1940 C1941 1.391 . S
C1941 H1929 0.950 . S
C1941 C1937 1.393 . S
C1941 C1940 1.391 . S
C1942 H1932 0.950 . S
C1942 C1943 1.386 . S
C1942 C1944 1.391 . S
C1943 C1942 1.386 . S
C1943 C1947 1.393 . S
C1944 H1933 0.950 . S
C1944 C1942 1.391 . S
C1944 C1945 1.400 . S
C1945 C1939 1.491 . S
C1945 C1944 1.400 . S
C1945 C1946 1.398 . S
C1946 H1934 0.950 . S
C1946 C1945 1.398 . S
C1946 C1947 1.391 . S
C1947 H1935 0.950 . S
C1947 C1943 1.393 . S
C1947 C1946 1.391 . S
H1948 C1956 0.950 . S
H1949 C1961 0.950 . S
H1950 C1958 0.950 . S
H1951 C1960 0.950 . S
H1952 C1962 0.950 . S
H1953 C1964 0.950 . S
H1954 C1966 0.950 . S
H1955 C1967 0.950 . S
C1956 H1948 0.950 . S
C1956 C1957 1.386 . S
C1956 C1958 1.391 . S
C1957 C1956 1.386 . S
C1957 C1961 1.393 . S
C1958 H1950 0.950 . S
C1958 C1956 1.391 . S
C1958 C1959 1.400 . S
C1959 C1958 1.400 . S
C1959 C1960 1.398 . S
C1959 C1965 1.491 . S
C1960 H1951 0.950 . S
C1960 C1959 1.398 . S
C1960 C1961 1.391 . S
C1961 H1949 0.950 . S
C1961 C1957 1.393 . S
C1961 C1960 1.391 . S
C1962 H1952 0.950 . S
C1962 C1963 1.386 . S
C1962 C1964 1.391 . S
C1963 C1962 1.386 . S
C1963 C1967 1.393 . S
C1964 H1953 0.950 . S
C1964 C1962 1.391 . S
C1964 C1965 1.400 . S
C1965 C1959 1.491 . S
C1965 C1964 1.400 . S
C1965 C1966 1.398 . S
C1966 H1954 0.950 . S
C1966 C1965 1.398 . S
C1966 C1967 1.391 . S
C1967 H1955 0.950 . S
C1967 C1963 1.393 . S
C1967 C1966 1.391 . S
H1968 C1976 0.950 . S
H1969 C1981 0.950 . S
H1970 C1978 0.950 . S
H1971 C1980 0.950 . S
H1972 C1982 0.950 . S
H1973 C1984 0.950 . S
H1974 C1986 0.950 . S
H1975 C1987 0.950 . S
C1976 H1968 0.950 . S
C1976 C1977 1.386 . S
C1976 C1978 1.391 . S
C1977 C1976 1.386 . S
C1977 C1981 1.393 . S
C1978 H1970 0.950 . S
C1978 C1976 1.391 . S
C1978 C1979 1.400 . S
C1979 C1978 1.400 . S
C1979 C1980 1.398 . S
C1979 C1985 1.491 . S
C1980 H1971 0.950 . S
C1980 C1979 1.398 . S
C1980 C1981 1.391 . S
C1981 H1969 0.950 . S
C1981 C1977 1.393 . S
C1981 C1980 1.391 . S
C1982 H1972 0.950 . S
C1982 C1983 1.386 . S
C1982 C1984 1.391 . S
C1983 C1982 1.386 . S
C1983 C1987 1.393 . S
C1984 H1973 0.950 . S
C1984 C1982 1.391 . S
C1984 C1985 1.400 . S
C1985 C1979 1.491 . S
C1985 C1984 1.400 . S
C1985 C1986 1.398 . S
C1986 H1974 0.950 . S
C1986 C1985 1.398 . S
C1986 C1987 1.391 . S
C1987 H1975 0.950 . S
C1987 C1983 1.393 . S
C1987 C1986 1.391 . S
H1988 C1996 0.950 . S
H1989 C2001 0.950 . S
H1990 C1998 0.950 . S
H1991 C2000 0.950 . S
H1992 C2002 0.950 . S
H1993 C2004 0.950 . S
H1994 C2006 0.950 . S
H1995 C2007 0.950 . S
C1996 H1988 0.950 . S
C1996 C1997 1.386 . S
C1996 C1998 1.391 . S
C1997 C1996 1.386 . S
C1997 C2001 1.393 . S
C1998 H1990 0.950 . S
C1998 C1996 1.391 . S
C1998 C1999 1.400 . S
C1999 C1998 1.400 . S
C1999 C2000 1.398 . S
C1999 C2005 1.491 . S
C2000 H1991 0.950 . S
C2000 C1999 1.398 . S
C2000 C2001 1.391 . S
C2001 H1989 0.950 . S
C2001 C1997 1.393 . S
C2001 C2000 1.391 . S
C2002 H1992 0.950 . S
C2002 C2003 1.386 . S
C2002 C2004 1.391 . S
C2003 C2002 1.386 . S
C2003 C2007 1.393 . S
C2004 H1993 0.950 . S
C2004 C2002 1.391 . S
C2004 C2005 1.400 . S
C2005 C1999 1.491 . S
C2005 C2004 1.400 . S
C2005 C2006 1.398 . S
C2006 H1994 0.950 . S
C2006 C2005 1.398 . S
C2006 C2007 1.391 . S
C2007 H1995 0.950 . S
C2007 C2003 1.393 . S
C2007 C2006 1.391 . S
H2008 C2016 0.950 . S
H2009 C2021 0.950 . S
H2010 C2018 0.950 . S
H2011 C2020 0.950 . S
H2012 C2022 0.950 . S
H2013 C2024 0.950 . S
H2014 C2026 0.950 . S
H2015 C2027 0.950 . S
C2016 H2008 0.950 . S
C2016 C2017 1.386 . S
C2016 C2018 1.391 . S
C2017 C2016 1.386 . S
C2017 C2021 1.393 . S
C2018 H2010 0.950 . S
C2018 C2016 1.391 . S
C2018 C2019 1.400 . S
C2019 C2018 1.400 . S
C2019 C2020 1.398 . S
C2019 C2025 1.491 . S
C2020 H2011 0.950 . S
C2020 C2019 1.398 . S
C2020 C2021 1.391 . S
C2021 H2009 0.950 . S
C2021 C2017 1.393 . S
C2021 C2020 1.391 . S
C2022 H2012 0.950 . S
C2022 C2023 1.386 . S
C2022 C2024 1.391 . S
C2023 C2022 1.386 . S
C2023 C2027 1.393 . S
C2024 H2013 0.950 . S
C2024 C2022 1.391 . S
C2024 C2025 1.400 . S
C2025 C2019 1.491 . S
C2025 C2024 1.400 . S
C2025 C2026 1.398 . S
C2026 H2014 0.950 . S
C2026 C2025 1.398 . S
C2026 C2027 1.391 . S
C2027 H2015 0.950 . S
C2027 C2023 1.393 . S
C2027 C2026 1.391 . S
H2028 C2036 0.950 . S
H2029 C2041 0.950 . S
H2030 C2038 0.950 . S
H2031 C2040 0.950 . S
H2032 C2042 0.950 . S
H2033 C2044 0.950 . S
H2034 C2046 0.950 . S
H2035 C2047 0.950 . S
C2036 H2028 0.950 . S
C2036 C2037 1.386 . S
C2036 C2038 1.391 . S
C2037 C2036 1.386 . S
C2037 C2041 1.393 . S
C2038 H2030 0.950 . S
C2038 C2036 1.391 . S
C2038 C2039 1.400 . S
C2039 C2038 1.400 . S
C2039 C2040 1.398 . S
C2039 C2045 1.491 . S
C2040 H2031 0.950 . S
C2040 C2039 1.398 . S
C2040 C2041 1.391 . S
C2041 H2029 0.950 . S
C2041 C2037 1.393 . S
C2041 C2040 1.391 . S
C2042 H2032 0.950 . S
C2042 C2043 1.386 . S
C2042 C2044 1.391 . S
C2043 C2042 1.386 . S
C2043 C2047 1.393 . S
C2044 H2033 0.950 . S
C2044 C2042 1.391 . S
C2044 C2045 1.400 . S
C2045 C2039 1.491 . S
C2045 C2044 1.400 . S
C2045 C2046 1.398 . S
C2046 H2034 0.950 . S
C2046 C2045 1.398 . S
C2046 C2047 1.391 . S
C2047 H2035 0.950 . S
C2047 C2043 1.393 . S
C2047 C2046 1.391 . S
H2048 C2056 0.950 . S
H2049 C2061 0.950 . S
H2050 C2058 0.950 . S
H2051 C2060 0.950 . S
H2052 C2062 0.950 . S
H2053 C2064 0.950 . S
H2054 C2066 0.950 . S
H2055 C2067 0.950 . S
C2056 H2048 0.950 . S
C2056 C2057 1.386 . S
C2056 C2058 1.391 . S
C2057 C2056 1.386 . S
C2057 C2061 1.393 . S
C2058 H2050 0.950 . S
C2058 C2056 1.391 . S
C2058 C2059 1.400 . S
C2059 C2058 1.400 . S
C2059 C2060 1.398 . S
C2059 C2065 1.491 . S
C2060 H2051 0.950 . S
C2060 C2059 1.398 . S
C2060 C2061 1.391 . S
C2061 H2049 0.950 . S
C2061 C2057 1.393 . S
C2061 C2060 1.391 . S
C2062 H2052 0.950 . S
C2062 C2063 1.386 . S
C2062 C2064 1.391 . S
C2063 C2062 1.386 . S
C2063 C2067 1.393 . S
C2064 H2053 0.950 . S
C2064 C2062 1.391 . S
C2064 C2065 1.400 . S
C2065 C2059 1.491 . S
C2065 C2064 1.400 . S
C2065 C2066 1.398 . S
C2066 H2054 0.950 . S
C2066 C2065 1.398 . S
C2066 C2067 1.391 . S
C2067 H2055 0.950 . S
C2067 C2063 1.393 . S
C2067 C2066 1.391 . S
H2068 C2076 0.950 . S
H2069 C2081 0.950 . S
H2070 C2078 0.950 . S
H2071 C2080 0.950 . S
H2072 C2082 0.950 . S
H2073 C2084 0.950 . S
H2074 C2086 0.950 . S
H2075 C2087 0.950 . S
C2076 H2068 0.950 . S
C2076 C2077 1.386 . S
C2076 C2078 1.391 . S
C2077 C2076 1.386 . S
C2077 C2081 1.393 . S
C2078 H2070 0.950 . S
C2078 C2076 1.391 . S
C2078 C2079 1.400 . S
C2079 C2078 1.400 . S
C2079 C2080 1.398 . S
C2079 C2085 1.491 . S
C2080 H2071 0.950 . S
C2080 C2079 1.398 . S
C2080 C2081 1.391 . S
C2081 H2069 0.950 . S
C2081 C2077 1.393 . S
C2081 C2080 1.391 . S
C2082 H2072 0.950 . S
C2082 C2083 1.386 . S
C2082 C2084 1.391 . S
C2083 C2082 1.386 . S
C2083 C2087 1.393 . S
C2084 H2073 0.950 . S
C2084 C2082 1.391 . S
C2084 C2085 1.400 . S
C2085 C2079 1.491 . S
C2085 C2084 1.400 . S
C2085 C2086 1.398 . S
C2086 H2074 0.950 . S
C2086 C2085 1.398 . S
C2086 C2087 1.391 . S
C2087 H2075 0.950 . S
C2087 C2083 1.393 . S
C2087 C2086 1.391 . S
H2088 C2096 0.950 . S
H2089 C2101 0.950 . S
H2090 C2098 0.950 . S
H2091 C2100 0.950 . S
H2092 C2102 0.950 . S
H2093 C2104 0.950 . S
H2094 C2106 0.950 . S
H2095 C2107 0.950 . S
C2096 H2088 0.950 . S
C2096 C2097 1.386 . S
C2096 C2098 1.391 . S
C2097 C2096 1.386 . S
C2097 C2101 1.393 . S
C2098 H2090 0.950 . S
C2098 C2096 1.391 . S
C2098 C2099 1.400 . S
C2099 C2098 1.400 . S
C2099 C2100 1.398 . S
C2099 C2105 1.491 . S
C2100 H2091 0.950 . S
C2100 C2099 1.398 . S
C2100 C2101 1.391 . S
C2101 H2089 0.950 . S
C2101 C2097 1.393 . S
C2101 C2100 1.391 . S
C2102 H2092 0.950 . S
C2102 C2103 1.386 . S
C2102 C2104 1.391 . S
C2103 C2102 1.386 . S
C2103 C2107 1.393 . S
C2104 H2093 0.950 . S
C2104 C2102 1.391 . S
C2104 C2105 1.400 . S
C2105 C2099 1.491 . S
C2105 C2104 1.400 . S
C2105 C2106 1.398 . S
C2106 H2094 0.950 . S
C2106 C2105 1.398 . S
C2106 C2107 1.391 . S
C2107 H2095 0.950 . S
C2107 C2103 1.393 . S
C2107 C2106 1.391 . S
H2108 C2116 0.950 . S
H2109 C2121 0.950 . S
H2110 C2118 0.950 . S
H2111 C2120 0.950 . S
H2112 C2122 0.950 . S
H2113 C2124 0.950 . S
H2114 C2126 0.950 . S
H2115 C2127 0.950 . S
C2116 H2108 0.950 . S
C2116 C2117 1.386 . S
C2116 C2118 1.391 . S
C2117 C2116 1.386 . S
C2117 C2121 1.393 . S
C2118 H2110 0.950 . S
C2118 C2116 1.391 . S
C2118 C2119 1.400 . S
C2119 C2118 1.400 . S
C2119 C2120 1.398 . S
C2119 C2125 1.491 . S
C2120 H2111 0.950 . S
C2120 C2119 1.398 . S
C2120 C2121 1.391 . S
C2121 H2109 0.950 . S
C2121 C2117 1.393 . S
C2121 C2120 1.391 . S
C2122 H2112 0.950 . S
C2122 C2123 1.386 . S
C2122 C2124 1.391 . S
C2123 C2122 1.386 . S
C2123 C2127 1.393 . S
C2124 H2113 0.950 . S
C2124 C2122 1.391 . S
C2124 C2125 1.400 . S
C2125 C2119 1.491 . S
C2125 C2124 1.400 . S
C2125 C2126 1.398 . S
C2126 H2114 0.950 . S
C2126 C2125 1.398 . S
C2126 C2127 1.391 . S
C2127 H2115 0.950 . S
C2127 C2123 1.393 . S
C2127 C2126 1.391 . S
H2128 C2136 0.950 . S
H2129 C2141 0.950 . S
H2130 C2138 0.950 . S
H2131 C2140 0.950 . S
H2132 C2142 0.950 . S
H2133 C2144 0.950 . S
H2134 C2146 0.950 . S
H2135 C2147 0.950 . S
C2136 H2128 0.950 . S
C2136 C2137 1.386 . S
C2136 C2138 1.391 . S
C2137 C2136 1.386 . S
C2137 C2141 1.393 . S
C2138 H2130 0.950 . S
C2138 C2136 1.391 . S
C2138 C2139 1.400 . S
C2139 C2138 1.400 . S
C2139 C2140 1.398 . S
C2139 C2145 1.491 . S
C2140 H2131 0.950 . S
C2140 C2139 1.398 . S
C2140 C2141 1.391 . S
C2141 H2129 0.950 . S
C2141 C2137 1.393 . S
C2141 C2140 1.391 . S
C2142 H2132 0.950 . S
C2142 C2143 1.386 . S
C2142 C2144 1.391 . S
C2143 C2142 1.386 . S
C2143 C2147 1.393 . S
C2144 H2133 0.950 . S
C2144 C2142 1.391 . S
C2144 C2145 1.400 . S
C2145 C2139 1.491 . S
C2145 C2144 1.400 . S
C2145 C2146 1.398 . S
C2146 H2134 0.950 . S
C2146 C2145 1.398 . S
C2146 C2147 1.391 . S
C2147 H2135 0.950 . S
C2147 C2143 1.393 . S
C2147 C2146 1.391 . S
H2148 C2156 0.950 . S
H2149 C2161 0.950 . S
H2150 C2158 0.950 . S
H2151 C2160 0.950 . S
H2152 C2162 0.950 . S
H2153 C2164 0.950 . S
H2154 C2166 0.950 . S
H2155 C2167 0.950 . S
C2156 H2148 0.950 . S
C2156 C2157 1.386 . S
C2156 C2158 1.391 . S
C2157 C2156 1.386 . S
C2157 C2161 1.393 . S
C2158 H2150 0.950 . S
C2158 C2156 1.391 . S
C2158 C2159 1.400 . S
C2159 C2158 1.400 . S
C2159 C2160 1.398 . S
C2159 C2165 1.491 1_455 S
C2160 H2151 0.950 . S
C2160 C2159 1.398 . S
C2160 C2161 1.391 . S
C2161 H2149 0.950 . S
C2161 C2157 1.393 . S
C2161 C2160 1.391 . S
C2162 H2152 0.950 . S
C2162 C2163 1.386 . S
C2162 C2164 1.391 . S
C2163 C2162 1.386 . S
C2163 C2167 1.393 . S
C2164 H2153 0.950 . S
C2164 C2162 1.391 . S
C2164 C2165 1.400 . S
C2165 C2159 1.491 1_655 S
C2165 C2164 1.400 . S
C2165 C2166 1.398 . S
C2166 H2154 0.950 . S
C2166 C2165 1.398 . S
C2166 C2167 1.391 . S
C2167 H2155 0.950 . S
C2167 C2163 1.393 . S
C2167 C2166 1.391 . S
H2168 C2176 0.950 . S
H2169 C2181 0.950 . S
H2170 C2178 0.950 . S
H2171 C2180 0.950 . S
H2172 C2182 0.950 . S
H2173 C2184 0.950 . S
H2174 C2186 0.950 . S
H2175 C2187 0.950 . S
C2176 H2168 0.950 . S
C2176 C2177 1.386 . S
C2176 C2178 1.391 . S
C2177 C2176 1.386 . S
C2177 C2181 1.393 . S
C2178 H2170 0.950 . S
C2178 C2176 1.391 . S
C2178 C2179 1.400 . S
C2179 C2178 1.400 . S
C2179 C2180 1.398 . S
C2179 C2185 1.491 . S
C2180 H2171 0.950 . S
C2180 C2179 1.398 . S
C2180 C2181 1.391 . S
C2181 H2169 0.950 . S
C2181 C2177 1.393 . S
C2181 C2180 1.391 . S
C2182 H2172 0.950 . S
C2182 C2183 1.386 . S
C2182 C2184 1.391 . S
C2183 C2182 1.386 . S
C2183 C2187 1.393 . S
C2184 H2173 0.950 . S
C2184 C2182 1.391 . S
C2184 C2185 1.400 . S
C2185 C2179 1.491 . S
C2185 C2184 1.400 . S
C2185 C2186 1.398 . S
C2186 H2174 0.950 . S
C2186 C2185 1.398 . S
C2186 C2187 1.391 . S
C2187 H2175 0.950 . S
C2187 C2183 1.393 . S
C2187 C2186 1.391 . S
H2188 C2196 0.950 . S
H2189 C2201 0.950 . S
H2190 C2198 0.950 . S
H2191 C2200 0.950 . S
H2192 C2202 0.950 . S
H2193 C2204 0.950 . S
H2194 C2206 0.950 . S
H2195 C2207 0.950 . S
C2196 H2188 0.950 . S
C2196 C2197 1.386 . S
C2196 C2198 1.391 . S
C2197 C2196 1.386 . S
C2197 C2201 1.393 . S
C2198 H2190 0.950 . S
C2198 C2196 1.391 . S
C2198 C2199 1.400 . S
C2199 C2198 1.400 . S
C2199 C2200 1.398 . S
C2199 C2205 1.491 1_545 S
C2200 H2191 0.950 . S
C2200 C2199 1.398 . S
C2200 C2201 1.391 . S
C2201 H2189 0.950 . S
C2201 C2197 1.393 . S
C2201 C2200 1.391 . S
C2202 H2192 0.950 . S
C2202 C2203 1.386 . S
C2202 C2204 1.391 . S
C2203 C2202 1.386 . S
C2203 C2207 1.393 . S
C2204 H2193 0.950 . S
C2204 C2202 1.391 . S
C2204 C2205 1.400 . S
C2205 C2199 1.491 1_565 S
C2205 C2204 1.400 . S
C2205 C2206 1.398 . S
C2206 H2194 0.950 . S
C2206 C2205 1.398 . S
C2206 C2207 1.391 . S
C2207 H2195 0.950 . S
C2207 C2203 1.393 . S
C2207 C2206 1.391 . S
H2208 C2216 0.950 . S
H2209 C2221 0.950 . S
H2210 C2218 0.950 . S
H2211 C2220 0.950 . S
H2212 C2222 0.950 . S
H2213 C2224 0.950 . S
H2214 C2226 0.950 . S
H2215 C2227 0.950 . S
C2216 H2208 0.950 . S
C2216 C2217 1.386 . S
C2216 C2218 1.391 . S
C2217 C2216 1.386 . S
C2217 C2221 1.393 1_556 S
C2218 H2210 0.950 . S
C2218 C2216 1.391 . S
C2218 C2219 1.400 1_556 S
C2219 C2218 1.400 1_554 S
C2219 C2220 1.398 . S
C2219 C2225 1.491 1_545 S
C2220 H2211 0.950 . S
C2220 C2219 1.398 . S
C2220 C2221 1.391 . S
C2221 H2209 0.950 . S
C2221 C2217 1.393 1_554 S
C2221 C2220 1.391 . S
C2222 H2212 0.950 . S
C2222 C2223 1.386 . S
C2222 C2224 1.391 . S
C2223 C2222 1.386 . S
C2223 C2227 1.393 1_554 S
C2224 H2213 0.950 . S
C2224 C2222 1.391 . S
C2224 C2225 1.400 . S
C2225 C2219 1.491 1_565 S
C2225 C2224 1.400 . S
C2225 C2226 1.398 1_554 S
C2226 H2214 0.950 . S
C2226 C2225 1.398 1_556 S
C2226 C2227 1.391 . S
C2227 H2215 0.950 . S
C2227 C2223 1.393 1_556 S
C2227 C2226 1.391 . S
H2228 C2236 0.950 . S
H2229 C2241 0.950 . S
H2230 C2238 0.950 1_455 S
H2231 C2240 0.950 . S
H2232 C2242 0.957 . S
H2233 C2244 0.945 1_556 S
H2234 C2246 0.950 . S
H2235 C2247 0.950 . S
C2236 H2228 0.950 . S
C2236 C2237 1.386 1_554 S
C2236 C2238 1.391 . S
C2237 C2236 1.386 1_556 S
C2237 C2241 1.393 . S
C2238 H2230 0.950 1_655 S
C2238 C2236 1.391 . S
C2238 C2239 1.409 . S
C2239 C2238 1.409 . S
C2239 C2240 1.381 1_554 S
C2239 C2245 1.501 1_655 S
C2240 H2231 0.950 . S
C2240 C2239 1.381 1_556 S
C2240 C2241 1.391 . S
C2241 H2229 0.950 . S
C2241 C2237 1.393 . S
C2241 C2240 1.391 . S
C2242 H2232 0.957 . S
C2242 C2243 1.386 . S
C2242 C2244 1.394 . S
C2243 C2242 1.386 . S
C2243 C2247 1.393 . S
C2244 H2233 0.945 1_554 S
C2244 C2242 1.394 . S
C2244 C2245 1.403 . S
C2245 C2239 1.501 1_455 S
C2245 C2244 1.403 . S
C2245 C2246 1.398 . S
C2246 H2234 0.950 . S
C2246 C2245 1.398 . S
C2246 C2247 1.391 . S
C2247 H2235 0.950 . S
C2247 C2243 1.393 . S
C2247 C2246 1.391 . S
H2248 C2256 0.950 . S
H2249 C2261 0.950 . S
H2250 C2258 0.950 . S
H2251 C2260 0.950 . S
H2252 C2262 0.950 . S
H2253 C2264 0.950 . S
H2254 C2266 0.950 1_556 S
H2255 C2267 0.950 . S
C2256 H2248 0.950 . S
C2256 C2257 1.384 1_556 S
C2256 C2258 1.391 . S
C2257 C2256 1.384 1_554 S
C2257 C2261 1.395 . S
C2258 H2250 0.950 . S
C2258 C2256 1.391 . S
C2258 C2259 1.400 1_556 S
C2259 C2258 1.400 1_554 S
C2259 C2260 1.398 . S
C2259 C2265 1.491 . S
C2260 H2251 0.950 . S
C2260 C2259 1.398 . S
C2260 C2261 1.391 . S
C2261 H2249 0.950 . S
C2261 C2257 1.395 . S
C2261 C2260 1.391 . S
C2262 H2252 0.950 . S
C2262 C2263 1.386 . S
C2262 C2264 1.391 . S
C2263 C2262 1.386 . S
C2263 C2267 1.393 . S
C2264 H2253 0.950 . S
C2264 C2262 1.391 . S
C2264 C2265 1.400 . S
C2265 C2259 1.491 . S
C2265 C2264 1.400 . S
C2265 C2266 1.398 . S
C2266 H2254 0.950 1_554 S
C2266 C2265 1.398 . S
C2266 C2267 1.391 . S
C2267 H2255 0.950 . S
C2267 C2263 1.393 . S
C2267 C2266 1.391 . S
C837 N12 1.448 . S
C843 N163 1.377 1_545 S
C857 C39 1.479 . S
C863 N186 1.424 1_655 S
C877 N140 1.424 . S
C883 C62 1.455 . S
C897 N255 1.405 1_455 S
C903 C85 1.451 . S
C917 C108 1.477 . S
C923 N209 1.413 . S
C937 N127 1.455 . S
C943 N232 1.404 1_565 S
C957 N25 1.667 . S
C963 C154 1.735 . S
C977 N48 1.527 1_455 S
C983 C177 1.599 . S
C997 C200 1.671 . S
C1003 C7 1.711 . S
C1017 C223 1.681 . S
C1023 C122 1.706 1_655 S
C1037 N71 1.547 . S
C1043 C246 1.590 . S
C1057 C269 1.721 . S
C1063 N94 1.668 . S
C1077 N439 1.379 . S
C1083 N288 1.444 . S
C1097 C315 1.453 . S
C1103 N462 1.409 . S
C1117 C338 1.450 . S
C1123 N416 1.411 . S
C1137 N531 1.408 . S
C1143 C361 1.450 . S
C1157 C384 1.475 . S
C1163 N485 1.410 . S
C1177 N508 1.407 . S
C1183 N403 1.452 . S
C1197 N301 1.674 . S
C1203 C430 1.722 . S
C1217 C453 1.596 . S
C1223 N324 1.552 . S
C1237 C283 1.707 . S
C1243 C476 1.675 . S
C1257 C499 1.681 . S
C1263 C398 1.717 . S
C1277 C522 1.585 . S
C1283 N347 1.522 . S
C1297 C545 1.740 . S
C1303 N370 1.687 . S
C1317 N715 1.380 . S
C1323 N564 1.456 . S
C1337 N738 1.400 . S
C1343 C591 1.469 . S
C1357 N692 1.434 . S
C1363 C614 1.468 . S
C1377 C637 1.463 . S
C1383 N807 1.433 . S
C1397 C660 1.476 . S
C1403 N761 1.411 . S
C1417 N784 1.400 . S
C1423 N679 1.436 . S
C1437 C706 1.721 . S
C1443 N577 1.667 . S
C1457 N600 1.522 . S
C1463 C729 1.592 . S
C1477 C559 1.716 . S
C1483 C752 1.675 . S
C1497 C775 1.678 . S
C1503 C674 1.707 . S
C1517 C798 1.583 . S
C1523 N623 1.535 . S
C1537 C821 1.741 . S
C1543 N646 1.685 . S
C1557 C76 2.064 . S
C1563 N2 1.934 . S
C1577 C99 2.261 . S
C1583 C30 2.270 . S
C1597 C53 2.055 . S
C1603 N117 1.951 . S
C1617 C214 2.246 . S
C1623 C145 2.231 . S
C1637 C237 2.076 . S
C1643 C168 2.076 . S
C1657 C260 2.229 . S
C1663 C191 2.249 . S
C1677 C352 2.065 . S
C1683 N278 1.929 . S
C1697 C375 2.260 . S
C1703 C306 2.266 . S
C1717 C329 2.065 . S
C1723 N393 1.931 . S
C1737 C490 2.248 1_554 S
C1743 C421 2.230 . S
C1757 C513 2.070 1_554 S
C1763 C444 2.082 . S
C1777 C536 2.236 1_554 S
C1783 C467 2.244 . S
C1797 C628 2.065 1_556 S
C1803 N554 1.928 . S
C1817 C582 2.260 . S
C1823 C651 2.266 1_556 S
C1837 N669 1.945 1_556 S
C1843 C605 2.057 . S
C1857 C697 2.228 . S
C1863 C766 2.249 . S
C1877 C720 2.073 . S
C1883 C789 2.078 . S
C1897 C743 2.247 . S
C1903 C812 2.231 . S
C1917 C16 1.726 . S
C1923 N426 1.708 . S
C1937 N449 1.588 . S
C1943 N35 1.588 . S
C1957 N472 1.703 . S
C1963 N58 1.710 . S
C1977 N771 1.729 . S
C1983 N81 1.735 . S
C1997 N794 1.595 . S
C2003 N104 1.595 . S
C2017 N817 1.723 . S
C2023 C131 1.733 . S
C2037 N150 1.720 . S
C2043 C568 1.734 . S
C2057 N587 1.574 . S
C2063 N173 1.575 . S
C2077 N610 1.714 . S
C2083 N196 1.706 . S
C2097 N219 1.702 . S
C2103 N357 1.710 . S
C2117 N242 1.580 . S
C2123 N380 1.578 . S
C2137 N265 1.706 . S
C2143 C407 1.724 . S
C2157 N702 1.722 . S
C2163 C292 1.734 . S
C2177 N725 1.590 . S
C2183 N311 1.590 . S
C2197 N334 1.710 . S
C2203 N748 1.702 . S
C2217 N495 1.720 . S
C2223 N633 1.727 . S
C2237 N518 1.576 . S
C2243 N656 1.574 . S
C2257 N541 1.698 1_554 S
C2263 C683 1.716 . S
