# Generated by pormake.
# Topology sml, (6)-cn, num edge types: 1
# Building blocks:
#     Node 0, Type 0, BuildingBlock: BETDEL_clean_sbu_0, # of connection points: 6
#     Node 1, Type 0, BuildingBlock: BETDEL_clean_sbu_0, # of connection points: 6
#     Node 2, Type 0, BuildingBlock: BETDEL_clean_sbu_0, # of connection points: 6
#     Node 3, Type 0, BuildingBlock: BETDEL_clean_sbu_0, # of connection points: 6
#     Node 4, Type 0, BuildingBlock: BETDEL_clean_sbu_0, # of connection points: 6
#     Node 5, Type 0, BuildingBlock: BETDEL_clean_sbu_0, # of connection points: 6
#     Edge 6, Type (0, 0), BuildingBlock: FUNLAD_clean_linker_1, # of connection points: 2
#     Edge 7, Type (0, 0), BuildingBlock: FUNLAD_clean_linker_1, # of connection points: 2
#     Edge 8, Type (0, 0), BuildingBlock: FUNLAD_clean_linker_1, # of connection points: 2
#     Edge 9, Type (0, 0), BuildingBlock: FUNLAD_clean_linker_1, # of connection points: 2
#     Edge 10, Type (0, 0), BuildingBlock: FUNLAD_clean_linker_1, # of connection points: 2
#     Edge 11, Type (0, 0), BuildingBlock: FUNLAD_clean_linker_1, # of connection points: 2
#     Edge 12, Type (0, 0), BuildingBlock: FUNLAD_clean_linker_1, # of connection points: 2
#     Edge 13, Type (0, 0), BuildingBlock: FUNLAD_clean_linker_1, # of connection points: 2
#     Edge 14, Type (0, 0), BuildingBlock: FUNLAD_clean_linker_1, # of connection points: 2
#     Edge 15, Type (0, 0), BuildingBlock: FUNLAD_clean_linker_1, # of connection points: 2
#     Edge 16, Type (0, 0), BuildingBlock: FUNLAD_clean_linker_1, # of connection points: 2
#     Edge 17, Type (0, 0), BuildingBlock: FUNLAD_clean_linker_1, # of connection points: 2
#     Edge 18, Type (0, 0), BuildingBlock: FUNLAD_clean_linker_1, # of connection points: 2
#     Edge 19, Type (0, 0), BuildingBlock: FUNLAD_clean_linker_1, # of connection points: 2
#     Edge 20, Type (0, 0), BuildingBlock: FUNLAD_clean_linker_1, # of connection points: 2
#     Edge 21, Type (0, 0), BuildingBlock: FUNLAD_clean_linker_1, # of connection points: 2
#     Edge 22, Type (0, 0), BuildingBlock: FUNLAD_clean_linker_1, # of connection points: 2
#     Edge 23, Type (0, 0), BuildingBlock: FUNLAD_clean_linker_1, # of connection points: 2
# Relax obj value: 0.137
# Max RMSD: 0.174
# Mean RMSD: 0.174
data_MOF--net-sml--node1-BETDEL_clean_sbu_0--edge1-FUNLAD_clean_linker_1
_symmetry_space_group_name_H-M    P1
_symmetry_Int_Tables_number       1
_symmetry_cell_setting            triclinic
loop_
_symmetry_equiv_pos_as_xyz
'x, y, z'
_cell_length_a     37.338182
_cell_length_b     37.333671
_cell_length_c     18.481879
_cell_angle_alpha  90.115436
_cell_angle_beta   89.345601
_cell_angle_gamma 119.81415
loop_
_atom_site_label
_atom_site_type_symbol
_atom_site_fract_x
_atom_site_fract_y
_atom_site_fract_z
_atom_type_partial_charge
Dy0 Dy 0.19024 0.43053 0.06832 0.0
C1 C 0.20936 0.40498 0.373 0.0
C2 C 0.19864 0.45096 0.92517 0.0
Dy3 Dy 0.21654 0.42393 0.22944 0.0
O4 O 0.16519 0.4214 0.95496 0.0
O5 O 0.22634 0.47014 0.97399 0.0
O6 O 0.12337 0.38269 0.09577 0.0
O7 O 0.16387 0.4199 0.17552 0.0
C8 C 0.12891 0.38951 0.1651 0.0
C9 C 0.27729 0.46936 0.13591 0.0
O10 O 0.21045 0.36529 0.18022 0.0
O11 O 0.20203 0.37768 0.05908 0.0
O12 O 0.24292 0.43329 0.34139 0.0
O13 O 0.18052 0.38592 0.32564 0.0
O14 O 0.28101 0.47624 0.20543 0.0
O15 O 0.24411 0.43683 0.12276 0.0
O16 O 0.20379 0.49217 0.1142 0.0
O17 O 0.20404 0.47669 0.23689 0.0
C18 C 0.20683 0.35553 0.11007 0.0
C19 C 0.20506 0.50133 0.18411 0.0
Dy20 Dy 0.84181 0.25895 0.65649 0.0
C21 C 0.80007 0.21039 0.35999 0.0
C22 C 0.84729 0.26942 0.80274 0.0
Dy23 Dy 0.80399 0.22004 0.50643 0.0
O24 O 0.87601 0.29316 0.75673 0.0
O25 O 0.8158 0.24083 0.76877 0.0
O26 O 0.90558 0.29098 0.60574 0.0
O27 O 0.85955 0.23443 0.56458 0.0
C28 C 0.89541 0.26415 0.55378 0.0
C29 C 0.75004 0.21637 0.60693 0.0
O30 O 0.80333 0.16506 0.55682 0.0
O31 O 0.81739 0.19107 0.6744 0.0
O32 O 0.77066 0.18685 0.40498 0.0
O33 O 0.83154 0.23825 0.39504 0.0
O34 O 0.73894 0.19111 0.55231 0.0
O35 O 0.78663 0.24453 0.59782 0.0
O36 O 0.83359 0.30997 0.61017 0.0
O37 O 0.82711 0.28822 0.49047 0.0
C38 C 0.80556 0.16033 0.62763 0.0
C39 C 0.8335 0.31679 0.53966 0.0
Dy40 Dy 0.58081 0.76591 0.74847 0.0
C41 C 0.59508 0.81516 0.0509 0.0
C42 C 0.56937 0.7494 0.60377 0.0
Dy43 Dy 0.58288 0.8018 0.90582 0.0
O44 O 0.58381 0.73282 0.64816 0.0
O45 O 0.55989 0.77377 0.6389 0.0
O46 O 0.62962 0.75051 0.78173 0.0
O47 O 0.58864 0.75166 0.85883 0.0
C48 C 0.62034 0.7484 0.85034 0.0
C49 C 0.54016 0.81584 0.8067 0.0
O50 O 0.64377 0.85138 0.85961 0.0
O51 O 0.63694 0.82851 0.73963 0.0
O52 O 0.58091 0.83315 0.00901 0.0
O53 O 0.60403 0.79121 0.01304 0.0
O54 O 0.53189 0.81431 0.87578 0.0
O55 O 0.57284 0.81447 0.79631 0.0
O56 O 0.51725 0.71982 0.79108 0.0
O57 O 0.52411 0.74175 0.91188 0.0
C58 C 0.65674 0.85606 0.79096 0.0
C59 C 0.50316 0.71618 0.85881 0.0
Dy60 Dy 0.76177 0.56509 0.26519 0.0
C61 C 0.80042 0.57251 0.96436 0.0
C62 C 0.7551 0.56259 0.41197 0.0
Dy63 Dy 0.79232 0.56869 0.11098 0.0
O64 O 0.73144 0.56865 0.36888 0.0
O65 O 0.78188 0.55738 0.3751 0.0
O66 O 0.71953 0.588 0.22688 0.0
O67 O 0.77635 0.60757 0.17432 0.0
C68 C 0.74312 0.6083 0.17236 0.0
C69 C 0.81374 0.52772 0.20312 0.0
O70 O 0.84382 0.629 0.1501 0.0
O71 O 0.82902 0.61271 0.27188 0.0
O72 O 0.82228 0.56413 0.00785 0.0
O73 O 0.77449 0.57935 1.00074 0.0
O74 O 0.83606 0.54802 0.14748 0.0
O75 O 0.77939 0.52665 0.2026 0.0
O76 O 0.71089 0.5042 0.22853 0.0
O77 O 0.72563 0.51807 0.10604 0.0
C78 C 0.85431 0.63566 0.21909 0.0
C79 C 0.70076 0.49545 0.15981 0.0
Dy80 Dy 0.22724 0.80002 0.44879 0.0
C81 C 0.18412 0.77293 0.7526 0.0
C82 C 0.23939 0.79976 0.30327 0.0
Dy83 Dy 0.19398 0.77458 0.60638 0.0
O84 O 0.22034 0.81667 0.33499 0.0
O85 O 0.25268 0.78385 0.35095 0.0
O86 O 0.26406 0.86696 0.4803 0.0
O87 O 0.20901 0.82674 0.53596 0.0
C88 C 0.24007 0.86238 0.53539 0.0
C89 C 0.1805 0.71218 0.51845 0.0
O90 O 0.13672 0.76765 0.55773 0.0
O91 O 0.15809 0.76951 0.43783 0.0
O92 O 0.19813 0.75237 0.71699 0.0
O93 O 0.17441 0.79366 0.70831 0.0
O94 O 0.15661 0.70801 0.5733 0.0
O95 O 0.21211 0.74754 0.51874 0.0
O96 O 0.28286 0.80341 0.50001 0.0
O97 O 0.26285 0.80758 0.61786 0.0
C98 C 0.12957 0.76371 0.48736 0.0
C99 C 0.29069 0.81021 0.57001 0.0
Dy100 Dy 0.422 0.19157 0.93028 0.0
C101 C 0.39341 0.21349 0.62945 0.0
C102 C 0.43521 0.19498 0.07496 0.0
Dy103 Dy 0.41209 0.21622 0.77188 0.0
O104 O 0.44365 0.17306 0.03024 0.0
O105 O 0.42103 0.21527 0.04027 0.0
O106 O 0.37138 0.12557 0.91142 0.0
O107 O 0.40703 0.16248 0.82514 0.0
C108 C 0.37576 0.12886 0.84136 0.0
C109 C 0.46373 0.27915 0.85341 0.0
O110 O 0.35607 0.2132 0.82582 0.0
O111 O 0.36422 0.19458 0.94266 0.0
O112 O 0.42591 0.24287 0.66 0.0
O113 O 0.37 0.18597 0.67726 0.0
O114 O 0.46536 0.28025 0.78316 0.0
O115 O 0.43144 0.24727 0.87535 0.0
O116 O 0.48429 0.20981 0.88177 0.0
O117 O 0.4633 0.20154 0.76154 0.0
C118 C 0.34415 0.2038 0.89458 0.0
C119 C 0.49082 0.20709 0.8116 0.0
H120 H 0.2875 0.18323 0.95916 0.0
C121 C 0.30949 0.20775 0.9238 0.0
H122 H 0.33726 0.27082 0.89826 0.0
H123 H 0.16411 0.23991 0.0623 0.0
H124 H 0.12667 0.19354 0.96357 0.0
H125 H 0.16335 0.17564 0.87114 0.0
H126 H 0.23736 0.20306 0.87779 0.0
C127 C 0.312 0.24483 0.92646 0.0
C128 C 0.28868 0.25409 0.98255 0.0
C129 C 0.24571 0.23879 0.97643 0.0
C130 C 0.22488 0.25077 0.02766 0.0
C131 C 0.18159 0.2333 0.02268 0.0
C132 C 0.15976 0.20642 0.96676 0.0
C133 C 0.1804 0.19624 0.91486 0.0
C134 C 0.22288 0.21213 0.91937 0.0
H135 H 0.21347 0.31948 0.02369 0.0
C136 C 0.21477 0.32304 0.08221 0.0
H137 H 0.23224 0.30699 0.17926 0.0
H138 H 0.36888 0.28102 0.01973 0.0
H139 H 0.40499 0.32386 0.12247 0.0
H140 H 0.37029 0.34874 0.20594 0.0
H141 H 0.29883 0.32971 0.18919 0.0
C142 C 0.22907 0.30257 0.12115 0.0
C143 C 0.24746 0.28004 0.08227 0.0
C144 C 0.28963 0.29219 0.09237 0.0
C145 C 0.31011 0.2789 0.04279 0.0
C146 C 0.35204 0.2909 0.05477 0.0
C147 C 0.37319 0.31551 0.11348 0.0
C148 C 0.35358 0.32937 0.16069 0.0
C149 C 0.31241 0.31818 0.15032 0.0
H150 H 0.10736 0.38496 0.27693 0.0
C151 C 0.09787 0.37111 0.22374 0.0
H152 H 0.04872 0.32592 0.16263 0.0
H153 H 0.00915 0.28522 0.52094 0.0
H154 H 0.06874 0.2754 0.5209 0.0
H155 H 0.10965 0.28565 0.40929 0.0
H156 H 0.09154 0.3062 0.29732 0.0
C157 C 0.05936 0.33941 0.21566 0.0
C158 C 0.0299 0.32488 0.27884 0.0
C159 C 0.03945 0.31053 0.34301 0.0
C160 C 0.0151 0.30339 0.4069 0.0
C161 C 0.02642 0.29079 0.47081 0.0
C162 C 0.06047 0.28493 0.4715 0.0
C163 C 0.08355 0.29077 0.4087 0.0
C164 C 0.07309 0.30304 0.34496 0.0
H165 H 0.90738 0.24489 0.44735 0.0
C166 C 0.91995 0.26936 0.48739 0.0
H167 H 0.96946 0.32805 0.5143 0.0
H168 H 1.0007 0.34873 0.16414 0.0
H169 H 0.94096 0.35815 0.16446 0.0
H170 H 0.89873 0.34552 0.2751 0.0
H171 H 0.9154 0.32248 0.38579 0.0
C172 C 0.95626 0.30363 0.47427 0.0
C173 C 0.98021 0.30892 0.40607 0.0
C174 C 0.96941 0.32129 0.34114 0.0
C175 C 0.99415 0.32909 0.27743 0.0
C176 C 0.98316 0.34244 0.21405 0.0
C177 C 0.94896 0.34805 0.21349 0.0
C178 C 0.92511 0.34084 0.27575 0.0
C179 C 0.93497 0.32749 0.33889 0.0
H180 H 0.79749 0.11802 0.71669 0.0
C181 C 0.79331 0.11938 0.65881 0.0
H182 H 0.767 0.08433 0.5648 0.0
H183 H 0.77229 0.95489 0.8131 0.0
H184 H 0.84695 0.9951 0.80049 0.0
H185 H 0.87982 0.05697 0.72223 0.0
H186 H 0.83834 0.07931 0.65664 0.0
C187 C 0.77357 0.0839 0.62181 0.0
C188 C 0.75416 0.04347 0.66112 0.0
C189 C 0.77881 0.0301 0.6974 0.0
C190 C 0.75983 0.99371 0.74097 0.0
C191 C 0.78517 0.98184 0.77833 0.0
C192 C 0.82801 0.00467 0.77166 0.0
C193 C 0.84653 0.03957 0.72773 0.0
C194 C 0.82238 0.05223 0.69078 0.0
H195 H 0.70612 0.89663 0.71505 0.0
C196 C 0.69081 0.8962 0.76573 0.0
H197 H 0.67742 0.93158 0.83839 0.0
H198 H 0.69752 0.05923 0.59688 0.0
H199 H 0.62305 0.01727 0.60539 0.0
H200 H 0.5903 0.95304 0.67757 0.0
H201 H 0.63175 0.9307 0.74251 0.0
C202 C 0.69569 0.9319 0.79193 0.0
C203 C 0.71624 0.9702 0.74687 0.0
C204 C 0.69155 0.9827 0.70851 0.0
C205 C 0.71049 0.01936 0.66576 0.0
C206 C 0.68492 0.03142 0.62936 0.0
C207 C 0.64206 0.00764 0.63382 0.0
C208 C 0.62361 0.97153 0.67455 0.0
C209 C 0.64785 0.95909 0.71165 0.0
H210 H 0.62453 0.73083 0.96234 0.0
C211 C 0.63623 0.73272 0.90752 0.0
H212 H 0.67163 0.71734 0.83788 0.0
H213 H 0.73807 0.70518 0.16622 0.0
H214 H 0.76769 0.77957 0.17054 0.0
H215 H 0.75464 0.81668 0.07332 0.0
H216 H 0.71165 0.77963 0.97147 0.0
C217 C 0.66159 0.71771 0.89316 0.0
C218 C 0.67173 0.69602 0.95017 0.0
C219 C 0.69777 0.7183 0.00846 0.0
C220 C 0.70617 0.69701 0.06364 0.0
C221 C 0.73134 0.71988 0.12218 0.0
C222 C 0.74844 0.76258 0.12544 0.0
C223 C 0.74102 0.78346 0.07077 0.0
C224 C 0.7161 0.76177 0.01277 0.0
H225 H 0.7579 0.64951 0.0779 0.0
C226 C 0.73425 0.6317 0.11828 0.0
H227 H 0.6736 0.61229 0.15538 0.0
H228 H 0.62043 0.64383 0.84637 0.0
H229 H 0.59162 0.56959 0.84156 0.0
H230 H 0.60726 0.53299 0.93611 0.0
H231 H 0.65172 0.57041 0.03623 0.0
C232 C 0.69804 0.63112 0.11693 0.0
C233 C 0.68919 0.65361 0.05972 0.0
C234 C 0.66337 0.63138 1.00133 0.0
C235 C 0.65469 0.65258 0.94645 0.0
C236 C 0.62842 0.62943 0.88916 0.0
C237 C 0.6116 0.58676 0.88579 0.0
C238 C 0.62038 0.56614 0.93904 0.0
C239 C 0.64593 0.58801 0.99624 0.0
H240 H 0.06211 0.72411 0.49204 0.0
C241 C 0.08733 0.74962 0.46302 0.0
H242 H 0.10562 0.79299 0.37896 0.0
H243 H 0.95967 0.67253 0.17818 0.0
H244 H 0.01897 0.70172 0.09785 0.0
H245 H 0.08728 0.75446 0.14116 0.0
H246 H 0.09756 0.77467 0.26653 0.0
C247 C 0.07982 0.76685 0.40554 0.0
C248 C 0.03773 0.74839 0.37344 0.0
C249 C 0.03239 0.73761 0.29907 0.0
C250 C 0.99223 0.71008 0.2724 0.0
C251 C 0.98856 0.69594 0.20015 0.0
C252 C 0.02259 0.71194 0.1535 0.0
C253 C 0.06117 0.74114 0.17811 0.0
C254 C 0.06649 0.75285 0.25043 0.0
H255 H 0.91125 0.69597 0.20353 0.0
C256 C 0.89577 0.66892 0.23827 0.0
H257 H 0.89927 0.63694 0.32911 0.0
H258 H 0.03644 0.77624 0.5099 0.0
H259 H 0.97591 0.75606 0.58612 0.0
H260 H 0.90612 0.70853 0.54077 0.0
H261 H 0.89641 0.68146 0.41893 0.0
C262 C 0.91522 0.66446 0.29543 0.0
C263 C 0.95718 0.69643 0.31884 0.0
C264 C 0.96231 0.71165 0.39064 0.0
C265 C 0.00256 0.73806 0.41762 0.0
C266 C 0.00665 0.75432 0.48825 0.0
C267 C 0.97215 0.74345 0.53215 0.0
C268 C 0.93286 0.71677 0.50657 0.0
C269 C 0.92778 0.70121 0.43657 0.0
H270 H 0.36803 0.10093 0.73424 0.0
C271 C 0.35553 0.0951 0.78911 0.0
H272 H 0.31219 0.05117 0.86193 0.0
H273 H 0.26214 0.97954 0.52014 0.0
H274 H 0.25128 0.03759 0.49911 0.0
H275 H 0.26455 0.08852 0.59525 0.0
H276 H 0.28918 0.08197 0.71263 0.0
C277 C 0.32413 0.05766 0.80674 0.0
C278 C 0.30888 0.02332 0.75324 0.0
C279 C 0.29271 0.02661 0.68594 0.0
C280 C 0.28393 0.99662 0.63119 0.0
C281 C 0.26908 0.00134 0.56375 0.0
C282 C 0.26261 0.03445 0.55101 0.0
C283 C 0.27017 0.06316 0.60508 0.0
C284 C 0.28472 0.05927 0.672 0.0
H285 H 0.22681 0.88526 0.63646 0.0
C286 C 0.24808 0.89373 0.5907 0.0
H287 H 0.30206 0.94087 0.5404 0.0
H288 H 0.33713 0.00619 0.87754 0.0
H289 H 0.34741 0.94797 0.8983 0.0
H290 H 0.33196 0.8959 0.80293 0.0
H291 H 0.30597 0.90175 0.68714 0.0
C292 C 0.28121 0.93168 0.58685 0.0
C293 C 0.2898 0.96256 0.6447 0.0
C294 C 0.30453 0.95841 0.71276 0.0
C295 C 0.31384 0.98867 0.76727 0.0
C296 C 0.32933 0.98413 0.8342 0.0
C297 C 0.33545 0.9508 0.84687 0.0
C298 C 0.3267 0.92149 0.79339 0.0
C299 C 0.31155 0.92514 0.72703 0.0
H300 H 0.24022 0.47664 0.83125 0.0
C301 C 0.20823 0.45618 0.84711 0.0
H302 H 0.14891 0.41199 0.81324 0.0
H303 H 0.26182 0.50286 0.51097 0.0
H304 H 0.27532 0.56813 0.56135 0.0
H305 H 0.24877 0.57152 0.68236 0.0
H306 H 0.20921 0.50967 0.7541 0.0
C307 C 0.18054 0.4334 0.79674 0.0
C308 C 0.19363 0.43152 0.72058 0.0
C309 C 0.21459 0.46773 0.67719 0.0
C310 C 0.22868 0.4655 0.6062 0.0
C311 C 0.2505 0.50243 0.5652 0.0
C312 C 0.25838 0.54026 0.59336 0.0
C313 C 0.24347 0.54218 0.6615 0.0
C314 C 0.22122 0.50639 0.70257 0.0
H315 H 0.17005 0.38089 0.47028 0.0
C316 C 0.20163 0.4009 0.45174 0.0
H317 H 0.26214 0.44494 0.48051 0.0
H318 H 0.1565 0.35631 0.7899 0.0
H319 H 0.14658 0.29176 0.74203 0.0
H320 H 0.17158 0.28826 0.61963 0.0
H321 H 0.20653 0.3494 0.54441 0.0
C322 C 0.23087 0.42423 0.49967 0.0
C323 C 0.2202 0.4268 0.57716 0.0
C324 C 0.20038 0.39086 0.62128 0.0
C325 C 0.18669 0.39312 0.69256 0.0
C326 C 0.16722 0.35663 0.73521 0.0
C327 C 0.16149 0.31924 0.70856 0.0
C328 C 0.17549 0.31726 0.63963 0.0
C329 C 0.19504 0.35256 0.59659 0.0
H330 H 0.77264 0.18062 0.25565 0.0
C331 C 0.79729 0.2081 0.28056 0.0
H332 H 0.84822 0.26763 0.26528 0.0
H333 H 0.89406 0.24471 0.94766 0.0
H334 H 0.95189 0.24997 0.01419 0.0
H335 H 0.95181 0.25088 0.14762 0.0
H336 H 0.89356 0.24588 0.21515 0.0
C337 C 0.8238 0.24039 0.23957 0.0
C338 C 0.82316 0.2399 0.15899 0.0
C339 C 0.85794 0.24385 0.12008 0.0
C340 C 0.85844 0.2444 0.04304 0.0
C341 C 0.8926 0.24591 0.00595 0.0
C342 C 0.92594 0.24852 0.04355 0.0
C343 C 0.92585 0.24892 0.11863 0.0
C344 C 0.89223 0.24625 0.15673 0.0
H345 H 0.87574 0.29997 0.9061 0.0
C346 C 0.85054 0.27252 0.88215 0.0
H347 H 0.79831 0.21392 0.89967 0.0
H348 H 0.75288 0.23551 0.21649 0.0
H349 H 0.696 0.23241 0.1501 0.0
H350 H 0.69717 0.23411 0.01669 0.0
H351 H 0.75536 0.23897 0.94905 0.0
C352 C 0.82358 0.24107 0.92435 0.0
C353 C 0.82465 0.24239 1.00498 0.0
C354 C 0.79011 0.23898 0.04397 0.0
C355 C 0.78932 0.23774 0.12097 0.0
C356 C 0.75482 0.23544 0.15814 0.0
C357 C 0.72199 0.234 0.12065 0.0
C358 C 0.72267 0.23501 0.04558 0.0
C359 C 0.75626 0.23761 0.00742 0.0
H360 H 0.58092 0.72657 0.50063 0.0
C361 C 0.57051 0.74656 0.52415 0.0
H362 H 0.55503 0.79282 0.50507 0.0
H363 H 0.65967 0.85994 0.21784 0.0
H364 H 0.69998 0.9152 0.3016 0.0
H365 H 0.68286 0.90734 0.43199 0.0
H366 H 0.62555 0.84408 0.47947 0.0
C367 C 0.56338 0.77132 0.4811 0.0
C368 C 0.57319 0.77545 0.40192 0.0
C369 C 0.60639 0.81301 0.37463 0.0
C370 C 0.61592 0.81783 0.29918 0.0
C371 C 0.65027 0.85505 0.27417 0.0
C372 C 0.6739 0.88694 0.32178 0.0
C373 C 0.66429 0.8825 0.39519 0.0
C374 C 0.63114 0.84601 0.42167 0.0
H375 H 0.58478 0.83655 0.15653 0.0
C376 C 0.59426 0.81637 0.13071 0.0
H377 H 0.60812 0.76858 0.145 0.0
H378 H 0.50612 0.70037 0.43516 0.0
H379 H 0.466 0.64494 0.35145 0.0
H380 H 0.48283 0.65296 0.22093 0.0
H381 H 0.53967 0.71649 0.17327 0.0
C382 C 0.60067 0.7902 0.1712 0.0
C383 C 0.59176 0.78536 0.25071 0.0
C384 C 0.5588 0.74763 0.27807 0.0
C385 C 0.54933 0.74278 0.35358 0.0
C386 C 0.51531 0.70537 0.37873 0.0
C387 C 0.49183 0.67336 0.33117 0.0
C388 C 0.50128 0.67788 0.25769 0.0
C389 C 0.53416 0.71454 0.23109 0.0
H390 H 0.82597 0.56519 0.86106 0.0
C391 C 0.80279 0.57116 0.88527 0.0
H392 H 0.75303 0.58169 0.86672 0.0
H393 H 0.81345 0.64149 0.54368 0.0
H394 H 0.83402 0.70721 0.60149 0.0
H395 H 0.82863 0.71169 0.73403 0.0
H396 H 0.80291 0.65049 0.80958 0.0
C397 C 0.77588 0.575 0.84324 0.0
C398 C 0.77757 0.57177 0.76343 0.0
C399 C 0.79177 0.60769 0.72018 0.0
C400 C 0.79434 0.60504 0.64383 0.0
C401 C 0.80998 0.6416 0.60187 0.0
C402 C 0.82211 0.67958 0.63439 0.0
C403 C 0.81913 0.6821 0.70901 0.0
C404 C 0.80425 0.64672 0.75172 0.0
H405 H 0.72938 0.56813 0.51661 0.0
C406 C 0.75363 0.56431 0.49107 0.0
H407 H 0.80686 0.55915 0.50635 0.0
H408 H 0.74616 0.49631 0.83042 0.0
H409 H 0.72718 0.43097 0.7725 0.0
H410 H 0.73376 0.42691 0.64015 0.0
H411 H 0.75882 0.48815 0.56482 0.0
C412 C 0.78258 0.56303 0.53134 0.0
C413 C 0.78197 0.56632 0.61109 0.0
C414 C 0.76842 0.5305 0.65428 0.0
C415 C 0.7656 0.53307 0.73062 0.0
C416 C 0.75011 0.49642 0.77234 0.0
C417 C 0.73886 0.45863 0.73973 0.0
C418 C 0.74247 0.45633 0.6652 0.0
C419 C 0.7569 0.49171 0.62264 0.0
H420 H 0.16915 0.79225 0.85615 0.0
C421 C 0.1838 0.77618 0.83181 0.0
H422 H 0.22064 0.74864 0.84918 0.0
H423 H 0.2887 0.85887 0.13481 0.0
H424 H 0.34659 0.89722 0.05281 0.0
H425 H 0.34237 0.87773 0.9245 0.0
H426 H 0.2793 0.82106 0.87613 0.0
C427 C 0.20409 0.76283 0.87335 0.0
C428 C 0.20828 0.77116 0.95224 0.0
C429 C 0.24539 0.80423 0.97938 0.0
C430 C 0.24843 0.81444 0.05406 0.0
C431 C 0.28514 0.84887 0.07912 0.0
C432 C 0.31855 0.87134 0.03252 0.0
C433 C 0.31606 0.86052 0.96009 0.0
C434 C 0.27979 0.82779 0.93321 0.0
H435 H 0.26094 0.78303 0.20414 0.0
C436 C 0.24146 0.79483 0.22479 0.0
H437 H 0.19574 0.81037 0.2008 0.0
H438 H 0.13517 0.70255 0.91867 0.0
H439 H 0.08012 0.65919 1.00291 0.0
H440 H 0.08628 0.6752 0.13326 0.0
H441 H 0.14694 0.73523 0.17998 0.0
C442 C 0.21725 0.80118 0.17966 0.0
C443 C 0.21486 0.79049 0.10171 0.0
C444 C 0.17866 0.75591 0.07512 0.0
C445 C 0.17532 0.74633 1.00019 0.0
C446 C 0.13915 0.71129 0.97511 0.0
C447 C 0.10743 0.68605 0.02289 0.0
C448 C 0.11089 0.69506 0.09627 0.0
C449 C 0.14584 0.72972 0.12232 0.0
H450 H 0.35807 0.18579 0.52975 0.0
C451 C 0.38792 0.20852 0.5507 0.0
H452 H 0.45043 0.251 0.52749 0.0
H453 H 0.38667 0.13065 0.23495 0.0
H454 H 0.3704 0.07339 0.31559 0.0
H455 H 0.37859 0.08383 0.44751 0.0
H456 H 0.40194 0.15127 0.49946 0.0
C457 C 0.42063 0.22853 0.50585 0.0
C458 C 0.41822 0.22203 0.42614 0.0
C459 C 0.40734 0.18279 0.39649 0.0
C460 C 0.4054 0.17732 0.3201 0.0
C461 C 0.39093 0.13712 0.29219 0.0
C462 C 0.38115 0.10383 0.33796 0.0
C463 C 0.38557 0.10967 0.41222 0.0
C464 C 0.39863 0.1486 0.44142 0.0
H465 H 0.45698 0.18487 0.18026 0.0
C466 C 0.43748 0.19489 0.15432 0.0
H467 H 0.39526 0.21651 0.16628 0.0
H468 H 0.43966 0.30109 0.46483 0.0
H469 H 0.45944 0.35912 0.38388 0.0
H470 H 0.46131 0.3508 0.25165 0.0
H471 H 0.44314 0.28446 0.19972 0.0
C472 C 0.41472 0.20686 0.19367 0.0
C473 C 0.41732 0.21172 0.27359 0.0
C474 C 0.42925 0.25112 0.30324 0.0
C475 C 0.4292 0.25616 0.37947 0.0
C476 C 0.43997 0.29561 0.40739 0.0
C477 C 0.45127 0.32922 0.36151 0.0
C478 C 0.45224 0.32454 0.28711 0.0
C479 C 0.4415 0.28611 0.25802 0.0
H480 H 0.23039 0.56877 0.18686 0.0
C481 C 0.20541 0.53933 0.20611 0.0
H482 H 0.15338 0.50729 0.27336 0.0
H483 H 0.20336 0.6331 0.52678 0.0
H484 H 0.19207 0.57062 0.58571 0.0
H485 H 0.17826 0.50924 0.5144 0.0
H486 H 0.17644 0.51038 0.3842 0.0
C487 C 0.17813 0.53747 0.25625 0.0
C488 C 0.18405 0.57418 0.29832 0.0
C489 C 0.18572 0.57317 0.37511 0.0
C490 C 0.19283 0.60826 0.4165 0.0
C491 C 0.19606 0.60684 0.4927 0.0
C492 C 0.19026 0.57128 0.52737 0.0
C493 C 0.1826 0.5368 0.48725 0.0
C494 C 0.18115 0.53781 0.41213 0.0
H495 H 0.14537 0.64891 0.47637 0.0
C496 C 0.1742 0.67792 0.47075 0.0
H497 H 0.23229 0.70949 0.41802 0.0
H498 H 0.17529 0.58434 0.15371 0.0
H499 H 0.18696 0.64721 0.0948 0.0
H500 H 0.20466 0.70951 0.16592 0.0
H501 H 0.20772 0.70857 0.29678 0.0
C502 C 0.20352 0.68054 0.42465 0.0
C503 C 0.19752 0.64415 0.38136 0.0
C504 C 0.19612 0.64525 0.30476 0.0
C505 C 0.1883 0.60992 0.26331 0.0
C506 C 0.18382 0.61099 0.18745 0.0
C507 C 0.18982 0.64671 0.15297 0.0
C508 C 0.19938 0.68172 0.19308 0.0
C509 C 0.20164 0.68092 0.26814 0.0
H510 H 0.73587 0.24123 0.70434 0.0
C511 C 0.72221 0.21861 0.66138 0.0
H512 H 0.66716 0.17339 0.61363 0.0
H513 H 0.54502 0.13845 0.87343 0.0
H514 H 0.54819 0.07501 0.87144 0.0
H515 H 0.59987 0.06925 0.79548 0.0
H516 H 0.64851 0.12671 0.72073 0.0
C517 C 0.68104 0.19645 0.65584 0.0
C518 C 0.65308 0.2019 0.70729 0.0
C519 C 0.62547 0.16833 0.75187 0.0
C520 C 0.59594 0.17176 0.79627 0.0
C521 C 0.56809 0.13744 0.83887 0.0
C522 C 0.56964 0.10091 0.83834 0.0
C523 C 0.59873 0.09766 0.79555 0.0
C524 C 0.6264 0.13086 0.75274 0.0
H525 H 0.53339 0.20879 0.72749 0.0
C526 C 0.52905 0.20879 0.78582 0.0
H527 H 0.55382 0.20753 0.8877 0.0
H528 H 0.70024 0.2725 0.62666 0.0
H529 H 0.69994 0.33697 0.63613 0.0
H530 H 0.6523 0.34414 0.72066 0.0
H531 H 0.60393 0.28621 0.79513 0.0
C532 C 0.55783 0.20926 0.82926 0.0
C533 C 0.59409 0.20872 0.79602 0.0
C534 C 0.62362 0.24331 0.7557 0.0
C535 C 0.65245 0.23968 0.70972 0.0
C536 C 0.67913 0.27386 0.66548 0.0
C537 C 0.679 0.31108 0.66979 0.0
C538 C 0.65207 0.31508 0.71715 0.0
C539 C 0.62443 0.2816 0.75937 0.0
H540 H 0.30287 0.48308 0.02504 0.0
C541 C 0.30675 0.49557 0.07938 0.0
H542 H 0.34101 0.5468 0.14666 0.0
H543 H 0.50378 0.63346 0.95927 0.0
H544 H 0.52675 0.61457 0.0673 0.0
H545 H 0.47674 0.56984 0.16056 0.0
H546 H 0.40348 0.54405 0.14662 0.0
C547 C 0.33671 0.53437 0.09221 0.0
C548 C 0.36643 0.56042 0.03419 0.0
C549 C 0.4091 0.57427 0.04218 0.0
C550 C 0.43789 0.59953 0.98783 0.0
C551 C 0.48045 0.6139 0.99839 0.0
C552 C 0.49412 0.60328 0.06021 0.0
C553 C 0.46597 0.57812 0.11271 0.0
C554 C 0.42395 0.56361 0.10405 0.0
H555 H 0.44378 0.68816 0.91571 0.0
C556 C 0.46288 0.68132 0.87983 0.0
H557 H 0.47631 0.6354 0.84574 0.0
H558 H 0.28796 0.5449 1.0058 0.0
H559 H 0.26472 0.56143 0.89531 0.0
H560 H 0.31402 0.59995 0.79653 0.0
H561 H 0.38704 0.62268 0.8085 0.0
C562 C 0.45491 0.64223 0.87465 0.0
C563 C 0.42398 0.61071 0.92524 0.0
C564 C 0.38129 0.59601 0.91621 0.0
C565 C 0.35259 0.57186 0.97157 0.0
C566 C 0.31066 0.5608 0.96357 0.0
C567 C 0.29702 0.57069 0.90081 0.0
C568 C 0.32479 0.59253 0.84533 0.0
C569 C 0.36656 0.60544 0.85292 0.0
H570 H 0.81495 0.36417 0.54765 0.0
C571 C 0.83239 0.35372 0.51516 0.0
H572 H 0.86589 0.36019 0.41964 0.0
H573 H 0.7758 0.41976 0.21099 0.0
H574 H 0.76871 0.35851 0.15237 0.0
H575 H 0.79198 0.31497 0.21254 0.0
H576 H 0.82102 0.33122 0.33178 0.0
C577 C 0.84817 0.37105 0.45038 0.0
C578 C 0.83643 0.39929 0.41349 0.0
C579 C 0.81848 0.38854 0.34369 0.0
C580 C 0.80551 0.41396 0.30847 0.0
C581 C 0.78709 0.40213 0.23947 0.0
C582 C 0.78252 0.36686 0.20535 0.0
C583 C 0.79543 0.34222 0.23932 0.0
C584 C 0.8126 0.35236 0.30791 0.0
H585 H 0.85226 0.50147 0.23564 0.0
C586 C 0.82405 0.50196 0.2488 0.0
H587 H 0.77187 0.47879 0.31851 0.0
H588 H 0.87638 0.43358 0.54059 0.0
H589 H 0.88318 0.49489 0.59848 0.0
H590 H 0.85651 0.53619 0.54061 0.0
H591 H 0.82324 0.51657 0.4235 0.0
C592 C 0.79979 0.47828 0.3032 0.0
C593 C 0.81064 0.45023 0.3426 0.0
C594 C 0.82838 0.46098 0.41217 0.0
C595 C 0.84227 0.43613 0.44695 0.0
C596 C 0.86294 0.4497 0.51373 0.0
C597 C 0.86761 0.48524 0.54712 0.0
C598 C 0.85269 0.50857 0.5144 0.0
C599 C 0.83361 0.49694 0.44739 0.0
H600 H 0.33807 0.83133 0.65358 0.0
C601 C 0.33086 0.81918 0.59886 0.0
H602 H 0.3477 0.79281 0.51308 0.0
H603 H 0.51201 0.89042 0.72993 0.0
H604 H 0.52023 0.95329 0.67561 0.0
H605 H 0.46976 0.95072 0.58774 0.0
H606 H 0.41051 0.8852 0.55398 0.0
C607 C 0.35578 0.80789 0.56546 0.0
C608 C 0.39048 0.80902 0.60626 0.0
C609 C 0.42551 0.84735 0.62378 0.0
C610 C 0.45497 0.84872 0.67348 0.0
C611 C 0.48895 0.88755 0.69185 0.0
C612 C 0.49402 0.92387 0.6611 0.0
C613 C 0.46556 0.92243 0.61171 0.0
C614 C 0.43163 0.8847 0.59307 0.0
H615 H 0.52495 0.82 0.69292 0.0
C616 C 0.51413 0.81694 0.7486 0.0
H617 H 0.46552 0.80863 0.81859 0.0
H618 H 0.32899 0.73011 0.57862 0.0
H619 H 0.32183 0.66707 0.63019 0.0
H620 H 0.37321 0.66947 0.71577 0.0
H621 H 0.43205 0.73493 0.75048 0.0
C622 C 0.47715 0.81314 0.76324 0.0
C623 C 0.44948 0.81168 0.70483 0.0
C624 C 0.41575 0.77317 0.68412 0.0
C625 C 0.38629 0.77181 0.63448 0.0
C626 C 0.35238 0.73294 0.61592 0.0
C627 C 0.3479 0.69652 0.64509 0.0
C628 C 0.37682 0.69786 0.69331 0.0
C629 C 0.4104 0.73564 0.71284 0.0
H630 H 0.64163 0.43964 0.18772 0.0
C631 C 0.66097 0.45852 0.14308 0.0
H632 H 0.66765 0.46576 0.02954 0.0
H633 H 0.54744 0.28005 0.95276 0.0
H634 H 0.61345 0.28288 0.93635 0.0
H635 H 0.67801 0.34389 0.97507 0.0
H636 H 0.67695 0.40219 0.03136 0.0
C637 C 0.64812 0.44789 0.0748 0.0
C638 C 0.60874 0.40983 0.05782 0.0
C639 C 0.61001 0.37621 0.02465 0.0
C640 C 0.57293 0.3414 1.00105 0.0
C641 C 0.5749 0.30777 0.96964 0.0
C642 C 0.61251 0.30887 0.96039 0.0
C643 C 0.64886 0.34319 0.98233 0.0
C644 C 0.64782 0.3765 0.01433 0.0
H645 H 0.52502 0.33254 0.86862 0.0
C646 C 0.49785 0.30934 0.89765 0.0
H647 H 0.47044 0.28782 1.00054 0.0
H648 H 0.59503 0.46837 0.12204 0.0
H649 H 0.52869 0.46393 0.14242 0.0
H650 H 0.46434 0.40295 0.10277 0.0
H651 H 0.46611 0.34613 0.0418 0.0
C652 C 0.49774 0.3092 0.97012 0.0
C653 C 0.53479 0.34078 0.00895 0.0
C654 C 0.53313 0.37298 0.04668 0.0
C655 C 0.57022 0.40785 0.07053 0.0
C656 C 0.56784 0.44068 0.1044 0.0
C657 C 0.52993 0.43863 0.1161 0.0
C658 C 0.4937 0.40432 0.09368 0.0
C659 C 0.49512 0.37192 0.05887 0.0
loop_
_geom_bond_atom_site_label_1
_geom_bond_atom_site_label_2
_geom_bond_distance
_geom_bond_site_symmetry_2
_ccdc_geom_bond_type
Dy0 O4 2.398 . S
Dy0 O5 2.491 . S
Dy0 O6 2.403 . S
Dy0 O7 2.664 . S
Dy0 O11 2.326 . S
Dy0 O15 2.310 . S
Dy0 O16 2.351 . S
C1 O12 1.185 . S
C1 O13 1.355 . S
C2 O4 1.185 . S
C2 O5 1.355 . S
Dy3 O7 2.310 . S
Dy3 O10 2.351 . S
Dy3 O12 2.398 . S
Dy3 O13 2.491 . S
Dy3 O14 2.403 . S
Dy3 O15 2.664 . S
Dy3 O17 2.326 . S
O4 Dy0 2.398 . S
O4 C2 1.185 . S
O5 Dy0 2.491 . S
O5 C2 1.355 . S
O6 Dy0 2.403 . S
O6 C8 1.254 . S
O7 Dy0 2.664 . S
O7 Dy3 2.310 . S
O7 C8 1.268 . S
C8 O6 1.254 . S
C8 O7 1.268 . S
C9 O14 1.254 . S
C9 O15 1.268 . S
O10 Dy3 2.351 . S
O10 C18 1.249 . S
O11 Dy0 2.326 . S
O11 C18 1.267 . S
O12 C1 1.185 . S
O12 Dy3 2.398 . S
O13 C1 1.355 . S
O13 Dy3 2.491 . S
O14 Dy3 2.403 . S
O14 C9 1.254 . S
O15 Dy0 2.310 . S
O15 Dy3 2.664 . S
O15 C9 1.268 . S
O16 Dy0 2.351 . S
O16 C19 1.249 . S
O17 Dy3 2.326 . S
O17 C19 1.267 . S
C18 O10 1.249 . S
C18 O11 1.267 . S
C19 O16 1.249 . S
C19 O17 1.267 . S
Dy20 O24 2.398 . S
Dy20 O25 2.491 . S
Dy20 O26 2.403 . S
Dy20 O27 2.664 . S
Dy20 O31 2.326 . S
Dy20 O35 2.310 . S
Dy20 O36 2.351 . S
C21 O32 1.185 . S
C21 O33 1.355 . S
C22 O24 1.185 . S
C22 O25 1.355 . S
Dy23 O27 2.310 . S
Dy23 O30 2.351 . S
Dy23 O32 2.398 . S
Dy23 O33 2.491 . S
Dy23 O34 2.403 . S
Dy23 O35 2.664 . S
Dy23 O37 2.326 . S
O24 Dy20 2.398 . S
O24 C22 1.185 . S
O25 Dy20 2.491 . S
O25 C22 1.355 . S
O26 Dy20 2.403 . S
O26 C28 1.254 . S
O27 Dy20 2.664 . S
O27 Dy23 2.310 . S
O27 C28 1.268 . S
C28 O26 1.254 . S
C28 O27 1.268 . S
C29 O34 1.254 . S
C29 O35 1.268 . S
O30 Dy23 2.351 . S
O30 C38 1.249 . S
O31 Dy20 2.326 . S
O31 C38 1.267 . S
O32 C21 1.185 . S
O32 Dy23 2.398 . S
O33 C21 1.355 . S
O33 Dy23 2.491 . S
O34 Dy23 2.403 . S
O34 C29 1.254 . S
O35 Dy20 2.310 . S
O35 Dy23 2.664 . S
O35 C29 1.268 . S
O36 Dy20 2.351 . S
O36 C39 1.249 . S
O37 Dy23 2.326 . S
O37 C39 1.267 . S
C38 O30 1.249 . S
C38 O31 1.267 . S
C39 O36 1.249 . S
C39 O37 1.267 . S
Dy40 O44 2.398 . S
Dy40 O45 2.491 . S
Dy40 O46 2.403 . S
Dy40 O47 2.664 . S
Dy40 O51 2.326 . S
Dy40 O55 2.310 . S
Dy40 O56 2.351 . S
C41 O52 1.185 . S
C41 O53 1.355 . S
C42 O44 1.185 . S
C42 O45 1.355 . S
Dy43 O47 2.310 1_554 S
Dy43 O50 2.351 1_554 S
Dy43 O52 2.398 . S
Dy43 O53 2.491 . S
Dy43 O54 2.403 . S
Dy43 O55 2.664 1_554 S
Dy43 O57 2.326 . S
O44 Dy40 2.398 . S
O44 C42 1.185 . S
O45 Dy40 2.491 . S
O45 C42 1.355 . S
O46 Dy40 2.403 . S
O46 C48 1.254 . S
O47 Dy40 2.664 . S
O47 Dy43 2.310 1_556 S
O47 C48 1.268 . S
C48 O46 1.254 . S
C48 O47 1.268 . S
C49 O54 1.254 1_556 S
C49 O55 1.268 . S
O50 Dy43 2.351 1_556 S
O50 C58 1.249 . S
O51 Dy40 2.326 . S
O51 C58 1.267 . S
O52 C41 1.185 . S
O52 Dy43 2.398 . S
O53 C41 1.355 . S
O53 Dy43 2.491 . S
O54 Dy43 2.403 . S
O54 C49 1.254 1_554 S
O55 Dy40 2.310 . S
O55 Dy43 2.664 1_556 S
O55 C49 1.268 . S
O56 Dy40 2.351 . S
O56 C59 1.249 1_556 S
O57 Dy43 2.326 . S
O57 C59 1.267 . S
C58 O50 1.249 . S
C58 O51 1.267 . S
C59 O56 1.249 1_554 S
C59 O57 1.267 . S
Dy60 O64 2.398 . S
Dy60 O65 2.491 . S
Dy60 O66 2.403 . S
Dy60 O67 2.664 . S
Dy60 O71 2.326 . S
Dy60 O75 2.310 . S
Dy60 O76 2.351 . S
C61 O72 1.185 . S
C61 O73 1.355 . S
C62 O64 1.185 . S
C62 O65 1.355 . S
Dy63 O67 2.310 1_556 S
Dy63 O70 2.351 1_556 S
Dy63 O72 2.398 . S
Dy63 O73 2.491 . S
Dy63 O74 2.403 1_556 S
Dy63 O75 2.664 1_556 S
Dy63 O77 2.326 . S
O64 Dy60 2.398 . S
O64 C62 1.185 . S
O65 Dy60 2.491 . S
O65 C62 1.355 . S
O66 Dy60 2.403 . S
O66 C68 1.254 . S
O67 Dy60 2.664 . S
O67 Dy63 2.310 1_554 S
O67 C68 1.268 . S
C68 O66 1.254 . S
C68 O67 1.268 . S
C69 O74 1.254 . S
C69 O75 1.268 . S
O70 Dy63 2.351 1_554 S
O70 C78 1.249 . S
O71 Dy60 2.326 . S
O71 C78 1.267 . S
O72 C61 1.185 . S
O72 Dy63 2.398 . S
O73 C61 1.355 . S
O73 Dy63 2.491 . S
O74 Dy63 2.403 1_554 S
O74 C69 1.254 . S
O75 Dy60 2.310 . S
O75 Dy63 2.664 1_554 S
O75 C69 1.268 . S
O76 Dy60 2.351 . S
O76 C79 1.249 . S
O77 Dy63 2.326 . S
O77 C79 1.267 1_556 S
C78 O70 1.249 . S
C78 O71 1.267 . S
C79 O76 1.249 . S
C79 O77 1.267 1_554 S
Dy80 O84 2.398 . S
Dy80 O85 2.491 . S
Dy80 O86 2.403 . S
Dy80 O87 2.664 . S
Dy80 O91 2.326 . S
Dy80 O95 2.310 . S
Dy80 O96 2.351 . S
C81 O92 1.185 . S
C81 O93 1.355 . S
C82 O84 1.185 . S
C82 O85 1.355 . S
Dy83 O87 2.310 . S
Dy83 O90 2.351 . S
Dy83 O92 2.398 . S
Dy83 O93 2.491 . S
Dy83 O94 2.403 . S
Dy83 O95 2.664 . S
Dy83 O97 2.326 . S
O84 Dy80 2.398 . S
O84 C82 1.185 . S
O85 Dy80 2.491 . S
O85 C82 1.355 . S
O86 Dy80 2.403 . S
O86 C88 1.254 . S
O87 Dy80 2.664 . S
O87 Dy83 2.310 . S
O87 C88 1.268 . S
C88 O86 1.254 . S
C88 O87 1.268 . S
C89 O94 1.254 . S
C89 O95 1.268 . S
O90 Dy83 2.351 . S
O90 C98 1.249 . S
O91 Dy80 2.326 . S
O91 C98 1.267 . S
O92 C81 1.185 . S
O92 Dy83 2.398 . S
O93 C81 1.355 . S
O93 Dy83 2.491 . S
O94 Dy83 2.403 . S
O94 C89 1.254 . S
O95 Dy80 2.310 . S
O95 Dy83 2.664 . S
O95 C89 1.268 . S
O96 Dy80 2.351 . S
O96 C99 1.249 . S
O97 Dy83 2.326 . S
O97 C99 1.267 . S
C98 O90 1.249 . S
C98 O91 1.267 . S
C99 O96 1.249 . S
C99 O97 1.267 . S
Dy100 O104 2.398 . S
Dy100 O105 2.491 . S
Dy100 O106 2.403 . S
Dy100 O107 2.664 . S
Dy100 O111 2.326 . S
Dy100 O115 2.310 . S
Dy100 O116 2.351 . S
C101 O112 1.185 . S
C101 O113 1.355 . S
C102 O104 1.185 . S
C102 O105 1.355 . S
Dy103 O107 2.310 . S
Dy103 O110 2.351 . S
Dy103 O112 2.398 . S
Dy103 O113 2.491 . S
Dy103 O114 2.403 . S
Dy103 O115 2.664 . S
Dy103 O117 2.326 . S
O104 Dy100 2.398 . S
O104 C102 1.185 . S
O105 Dy100 2.491 . S
O105 C102 1.355 . S
O106 Dy100 2.403 . S
O106 C108 1.254 . S
O107 Dy100 2.664 . S
O107 Dy103 2.310 . S
O107 C108 1.268 . S
C108 O106 1.254 . S
C108 O107 1.268 . S
C109 O114 1.254 . S
C109 O115 1.268 . S
O110 Dy103 2.351 . S
O110 C118 1.249 . S
O111 Dy100 2.326 . S
O111 C118 1.267 . S
O112 C101 1.185 . S
O112 Dy103 2.398 . S
O113 C101 1.355 . S
O113 Dy103 2.491 . S
O114 Dy103 2.403 . S
O114 C109 1.254 . S
O115 Dy100 2.310 . S
O115 Dy103 2.664 . S
O115 C109 1.268 . S
O116 Dy100 2.351 . S
O116 C119 1.249 . S
O117 Dy103 2.326 . S
O117 C119 1.267 . S
C118 O110 1.249 . S
C118 O111 1.267 . S
C119 O116 1.249 . S
C119 O117 1.267 . S
H120 C121 0.951 . S
C121 H120 0.951 . S
C121 C127 1.265 . S
H122 C127 0.950 . S
H123 C131 0.949 . S
H124 C132 0.950 1_554 S
H125 C133 0.951 . S
H126 C134 0.951 . S
C127 C121 1.265 . S
C127 H122 0.950 . S
C127 C128 1.478 . S
C128 C127 1.478 . S
C128 C129 1.397 . S
C128 C145 1.388 1_556 S
C129 C128 1.397 . S
C129 C130 1.438 1_556 S
C129 C134 1.429 . S
C130 C129 1.438 1_554 S
C130 C131 1.428 . S
C130 C143 1.394 . S
C131 H123 0.949 . S
C131 C130 1.428 . S
C131 C132 1.345 1_554 S
C132 H124 0.950 1_556 S
C132 C131 1.345 1_556 S
C132 C133 1.424 . S
C133 H125 0.951 . S
C133 C132 1.424 . S
C133 C134 1.347 . S
C134 H126 0.951 . S
C134 C129 1.429 . S
C134 C133 1.347 . S
H135 C136 0.951 . S
C136 H135 0.951 . S
C136 C142 1.265 . S
H137 C142 0.950 . S
H138 C146 0.949 . S
H139 C147 0.950 . S
H140 C148 0.951 . S
H141 C149 0.951 . S
C142 C136 1.265 . S
C142 H137 0.950 . S
C142 C143 1.478 . S
C143 C130 1.394 . S
C143 C142 1.478 . S
C143 C144 1.397 . S
C144 C143 1.397 . S
C144 C145 1.445 . S
C144 C149 1.429 . S
C145 C128 1.388 1_554 S
C145 C144 1.445 . S
C145 C146 1.426 1_554 S
C146 H138 0.949 . S
C146 C145 1.426 1_556 S
C146 C147 1.345 1_556 S
C147 H139 0.950 . S
C147 C146 1.345 1_554 S
C147 C148 1.424 . S
C148 H140 0.951 . S
C148 C147 1.424 . S
C148 C149 1.347 . S
C149 H141 0.951 . S
C149 C144 1.429 . S
C149 C148 1.347 . S
H150 C151 0.951 . S
C151 H150 0.951 . S
C151 C157 1.265 . S
H152 C157 0.950 . S
H153 C161 0.949 . S
H154 C162 0.950 . S
H155 C163 0.951 . S
H156 C164 0.951 . S
C157 C151 1.265 . S
C157 H152 0.950 . S
C157 C158 1.478 . S
C158 C157 1.478 . S
C158 C159 1.397 . S
C158 C175 1.394 . S
C159 C158 1.397 . S
C159 C160 1.438 1_455 S
C159 C164 1.429 . S
C160 C159 1.438 1_655 S
C160 C161 1.428 . S
C160 C173 1.394 . S
C161 H153 0.949 . S
C161 C160 1.428 . S
C161 C162 1.345 . S
C162 H154 0.950 . S
C162 C161 1.345 . S
C162 C163 1.424 1_655 S
C163 H155 0.951 . S
C163 C162 1.424 1_455 S
C163 C164 1.347 . S
C164 H156 0.951 . S
C164 C159 1.429 . S
C164 C163 1.347 . S
H165 C166 0.951 . S
C166 H165 0.951 . S
C166 C172 1.265 . S
H167 C172 0.950 . S
H168 C176 0.949 . S
H169 C177 0.950 . S
H170 C178 0.951 . S
H171 C179 0.951 . S
C172 C166 1.265 . S
C172 H167 0.950 . S
C172 C173 1.478 . S
C173 C160 1.394 . S
C173 C172 1.478 . S
C173 C174 1.397 . S
C174 C173 1.397 . S
C174 C175 1.438 1_655 S
C174 C179 1.429 . S
C175 C158 1.394 . S
C175 C174 1.438 1_455 S
C175 C176 1.428 . S
C176 H168 0.949 . S
C176 C175 1.428 . S
C176 C177 1.345 . S
C177 H169 0.950 . S
C177 C176 1.345 . S
C177 C178 1.424 1_455 S
C178 H170 0.951 . S
C178 C177 1.424 1_655 S
C178 C179 1.347 . S
C179 H171 0.951 . S
C179 C174 1.429 . S
C179 C178 1.347 . S
H180 C181 0.951 . S
C181 H180 0.951 . S
C181 C187 1.265 . S
H182 C187 0.950 . S
H183 C191 0.949 . S
H184 C192 0.950 . S
H185 C193 0.951 . S
H186 C194 0.951 . S
C187 C181 1.265 . S
C187 H182 0.950 . S
C187 C188 1.478 . S
C188 C187 1.478 . S
C188 C189 1.397 . S
C188 C205 1.394 . S
C189 C188 1.397 . S
C189 C190 1.438 1_545 S
C189 C194 1.429 . S
C190 C189 1.438 1_565 S
C190 C191 1.428 . S
C190 C203 1.394 . S
C191 H183 0.949 . S
C191 C190 1.428 . S
C191 C192 1.345 . S
C192 H184 0.950 . S
C192 C191 1.345 . S
C192 C193 1.424 1_565 S
C193 H185 0.951 . S
C193 C192 1.424 1_545 S
C193 C194 1.347 . S
C194 H186 0.951 . S
C194 C189 1.429 . S
C194 C193 1.347 . S
H195 C196 0.951 . S
C196 H195 0.951 . S
C196 C202 1.265 . S
H197 C202 0.950 . S
H198 C206 0.949 . S
H199 C207 0.950 . S
H200 C208 0.951 . S
H201 C209 0.951 . S
C202 C196 1.265 . S
C202 H197 0.950 . S
C202 C203 1.478 . S
C203 C190 1.394 . S
C203 C202 1.478 . S
C203 C204 1.397 . S
C204 C203 1.397 . S
C204 C205 1.438 1_565 S
C204 C209 1.429 . S
C205 C188 1.394 . S
C205 C204 1.438 1_545 S
C205 C206 1.428 . S
C206 H198 0.949 . S
C206 C205 1.428 . S
C206 C207 1.345 . S
C207 H199 0.950 . S
C207 C206 1.345 . S
C207 C208 1.424 1_545 S
C208 H200 0.951 . S
C208 C207 1.424 1_565 S
C208 C209 1.347 . S
C209 H201 0.951 . S
C209 C204 1.429 . S
C209 C208 1.347 . S
H210 C211 0.951 1_554 S
C211 H210 0.951 1_556 S
C211 C217 1.265 . S
H212 C217 0.950 . S
H213 C221 0.949 . S
H214 C222 0.950 . S
H215 C223 0.951 . S
H216 C224 0.951 . S
C217 C211 1.265 . S
C217 H212 0.950 . S
C217 C218 1.478 1_556 S
C218 C217 1.478 1_554 S
C218 C219 1.397 . S
C218 C235 1.394 1_554 S
C219 C218 1.397 . S
C219 C220 1.438 . S
C219 C224 1.429 . S
C220 C219 1.438 . S
C220 C221 1.428 . S
C220 C233 1.394 . S
C221 H213 0.949 . S
C221 C220 1.428 . S
C221 C222 1.345 . S
C222 H214 0.950 . S
C222 C221 1.345 . S
C222 C223 1.424 . S
C223 H215 0.951 . S
C223 C222 1.424 . S
C223 C224 1.347 . S
C224 H216 0.951 . S
C224 C219 1.429 . S
C224 C223 1.347 . S
H225 C226 0.951 . S
C226 H225 0.951 . S
C226 C232 1.265 . S
H227 C232 0.950 . S
H228 C236 0.949 . S
H229 C237 0.950 . S
H230 C238 0.951 . S
H231 C239 0.951 . S
C232 C226 1.265 . S
C232 H227 0.950 . S
C232 C233 1.478 . S
C233 C220 1.394 . S
C233 C232 1.478 . S
C233 C234 1.397 1_554 S
C234 C233 1.397 1_556 S
C234 C235 1.438 . S
C234 C239 1.429 . S
C235 C218 1.394 1_556 S
C235 C234 1.438 . S
C235 C236 1.428 . S
C236 H228 0.949 . S
C236 C235 1.428 . S
C236 C237 1.345 . S
C237 H229 0.950 . S
C237 C236 1.345 . S
C237 C238 1.424 . S
C238 H230 0.951 . S
C238 C237 1.424 . S
C238 C239 1.347 . S
C239 H231 0.951 . S
C239 C234 1.429 . S
C239 C238 1.347 . S
H240 C241 0.951 . S
C241 H240 0.951 . S
C241 C247 1.265 . S
H242 C247 0.950 . S
H243 C251 0.949 1_655 S
H244 C252 0.950 . S
H245 C253 0.951 . S
H246 C254 0.951 . S
C247 C241 1.265 . S
C247 H242 0.950 . S
C247 C248 1.478 . S
C248 C247 1.478 . S
C248 C249 1.397 . S
C248 C265 1.394 1_455 S
C249 C248 1.397 . S
C249 C250 1.438 . S
C249 C254 1.429 . S
C250 C249 1.438 . S
C250 C251 1.428 . S
C250 C263 1.394 1_455 S
C251 H243 0.949 1_455 S
C251 C250 1.428 . S
C251 C252 1.345 . S
C252 H244 0.950 . S
C252 C251 1.345 . S
C252 C253 1.424 . S
C253 H245 0.951 . S
C253 C252 1.424 . S
C253 C254 1.347 . S
C254 H246 0.951 . S
C254 C249 1.429 . S
C254 C253 1.347 . S
H255 C256 0.951 . S
C256 H255 0.951 . S
C256 C262 1.265 . S
H257 C262 0.950 . S
H258 C266 0.949 1_455 S
H259 C267 0.950 . S
H260 C268 0.951 . S
H261 C269 0.951 . S
C262 C256 1.265 . S
C262 H257 0.950 . S
C262 C263 1.478 . S
C263 C250 1.394 1_655 S
C263 C262 1.478 . S
C263 C264 1.397 . S
C264 C263 1.397 . S
C264 C265 1.438 . S
C264 C269 1.429 . S
C265 C248 1.394 1_655 S
C265 C264 1.438 . S
C265 C266 1.428 . S
C266 H258 0.949 1_655 S
C266 C265 1.428 . S
C266 C267 1.345 . S
C267 H259 0.950 . S
C267 C266 1.345 . S
C267 C268 1.424 . S
C268 H260 0.951 . S
C268 C267 1.424 . S
C268 C269 1.347 . S
C269 H261 0.951 . S
C269 C264 1.429 . S
C269 C268 1.347 . S
H270 C271 0.951 . S
C271 H270 0.951 . S
C271 C277 1.265 . S
H272 C277 0.950 . S
H273 C281 0.949 . S
H274 C282 0.950 . S
H275 C283 0.951 . S
H276 C284 0.951 . S
C277 C271 1.265 . S
C277 H272 0.950 . S
C277 C278 1.478 . S
C278 C277 1.478 . S
C278 C279 1.397 . S
C278 C295 1.394 . S
C279 C278 1.397 . S
C279 C280 1.438 1_545 S
C279 C284 1.429 . S
C280 C279 1.438 1_565 S
C280 C281 1.428 . S
C280 C293 1.394 . S
C281 H273 0.949 . S
C281 C280 1.428 . S
C281 C282 1.345 . S
C282 H274 0.950 . S
C282 C281 1.345 . S
C282 C283 1.424 1_565 S
C283 H275 0.951 . S
C283 C282 1.424 1_545 S
C283 C284 1.347 . S
C284 H276 0.951 . S
C284 C279 1.429 . S
C284 C283 1.347 . S
H285 C286 0.951 . S
C286 H285 0.951 . S
C286 C292 1.265 . S
H287 C292 0.950 . S
H288 C296 0.949 . S
H289 C297 0.950 . S
H290 C298 0.951 . S
H291 C299 0.951 . S
C292 C286 1.265 . S
C292 H287 0.950 . S
C292 C293 1.478 . S
C293 C280 1.394 . S
C293 C292 1.478 . S
C293 C294 1.397 . S
C294 C293 1.397 . S
C294 C295 1.438 1_565 S
C294 C299 1.429 . S
C295 C278 1.394 . S
C295 C294 1.438 1_545 S
C295 C296 1.428 . S
C296 H288 0.949 . S
C296 C295 1.428 . S
C296 C297 1.345 . S
C297 H289 0.950 . S
C297 C296 1.345 . S
C297 C298 1.424 1_545 S
C298 H290 0.951 . S
C298 C297 1.424 1_565 S
C298 C299 1.347 . S
C299 H291 0.951 . S
C299 C294 1.429 . S
C299 C298 1.347 . S
H300 C301 0.951 . S
C301 H300 0.951 . S
C301 C307 1.265 . S
H302 C307 0.950 . S
H303 C311 0.949 . S
H304 C312 0.950 . S
H305 C313 0.951 . S
H306 C314 0.951 . S
C307 C301 1.265 . S
C307 H302 0.950 . S
C307 C308 1.478 . S
C308 C307 1.478 . S
C308 C309 1.397 . S
C308 C325 1.394 . S
C309 C308 1.397 . S
C309 C310 1.438 . S
C309 C314 1.429 . S
C310 C309 1.438 . S
C310 C311 1.428 . S
C310 C323 1.394 . S
C311 H303 0.949 . S
C311 C310 1.428 . S
C311 C312 1.345 . S
C312 H304 0.950 . S
C312 C311 1.345 . S
C312 C313 1.424 . S
C313 H305 0.951 . S
C313 C312 1.424 . S
C313 C314 1.347 . S
C314 H306 0.951 . S
C314 C309 1.429 . S
C314 C313 1.347 . S
H315 C316 0.951 . S
C316 H315 0.951 . S
C316 C322 1.265 . S
H317 C322 0.950 . S
H318 C326 0.949 . S
H319 C327 0.950 . S
H320 C328 0.951 . S
H321 C329 0.951 . S
C322 C316 1.265 . S
C322 H317 0.950 . S
C322 C323 1.478 . S
C323 C310 1.394 . S
C323 C322 1.478 . S
C323 C324 1.397 . S
C324 C323 1.397 . S
C324 C325 1.438 . S
C324 C329 1.429 . S
C325 C308 1.394 . S
C325 C324 1.438 . S
C325 C326 1.428 . S
C326 H318 0.949 . S
C326 C325 1.428 . S
C326 C327 1.345 . S
C327 H319 0.950 . S
C327 C326 1.345 . S
C327 C328 1.424 . S
C328 H320 0.951 . S
C328 C327 1.424 . S
C328 C329 1.347 . S
C329 H321 0.951 . S
C329 C324 1.429 . S
C329 C328 1.347 . S
H330 C331 0.951 . S
C331 H330 0.951 . S
C331 C337 1.265 . S
H332 C337 0.950 . S
H333 C341 0.949 . S
H334 C342 0.950 . S
H335 C343 0.951 . S
H336 C344 0.951 1_554 S
C337 C331 1.265 . S
C337 H332 0.950 . S
C337 C338 1.478 1_554 S
C338 C337 1.478 1_556 S
C338 C339 1.397 . S
C338 C355 1.394 . S
C339 C338 1.397 . S
C339 C340 1.438 . S
C339 C344 1.429 . S
C340 C339 1.438 . S
C340 C341 1.428 . S
C340 C353 1.394 . S
C341 H333 0.949 . S
C341 C340 1.428 . S
C341 C342 1.345 . S
C342 H334 0.950 . S
C342 C341 1.345 . S
C342 C343 1.424 . S
C343 H335 0.951 . S
C343 C342 1.424 . S
C343 C344 1.347 . S
C344 H336 0.951 1_556 S
C344 C339 1.429 . S
C344 C343 1.347 . S
H345 C346 0.951 . S
C346 H345 0.951 . S
C346 C352 1.265 . S
H347 C352 0.950 . S
H348 C356 0.949 1_554 S
H349 C357 0.950 . S
H350 C358 0.951 . S
H351 C359 0.951 . S
C352 C346 1.265 . S
C352 H347 0.950 . S
C352 C353 1.478 . S
C353 C340 1.394 . S
C353 C352 1.478 . S
C353 C354 1.397 . S
C354 C353 1.397 . S
C354 C355 1.438 . S
C354 C359 1.429 . S
C355 C338 1.394 . S
C355 C354 1.438 . S
C355 C356 1.428 . S
C356 H348 0.949 1_556 S
C356 C355 1.428 . S
C356 C357 1.345 . S
C357 H349 0.950 . S
C357 C356 1.345 . S
C357 C358 1.424 . S
C358 H350 0.951 . S
C358 C357 1.424 . S
C358 C359 1.347 . S
C359 H351 0.951 . S
C359 C354 1.429 . S
C359 C358 1.347 . S
H360 C361 0.951 . S
C361 H360 0.951 . S
C361 C367 1.265 . S
H362 C367 0.950 . S
H363 C371 0.949 . S
H364 C372 0.950 . S
H365 C373 0.951 . S
H366 C374 0.951 . S
C367 C361 1.265 . S
C367 H362 0.950 . S
C367 C368 1.478 . S
C368 C367 1.478 . S
C368 C369 1.397 . S
C368 C385 1.394 . S
C369 C368 1.397 . S
C369 C370 1.438 . S
C369 C374 1.429 . S
C370 C369 1.438 . S
C370 C371 1.428 . S
C370 C383 1.394 . S
C371 H363 0.949 . S
C371 C370 1.428 . S
C371 C372 1.345 . S
C372 H364 0.950 . S
C372 C371 1.345 . S
C372 C373 1.424 . S
C373 H365 0.951 . S
C373 C372 1.424 . S
C373 C374 1.347 . S
C374 H366 0.951 . S
C374 C369 1.429 . S
C374 C373 1.347 . S
H375 C376 0.951 . S
C376 H375 0.951 . S
C376 C382 1.265 . S
H377 C382 0.950 . S
H378 C386 0.949 . S
H379 C387 0.950 . S
H380 C388 0.951 . S
H381 C389 0.951 . S
C382 C376 1.265 . S
C382 H377 0.950 . S
C382 C383 1.478 . S
C383 C370 1.394 . S
C383 C382 1.478 . S
C383 C384 1.397 . S
C384 C383 1.397 . S
C384 C385 1.438 . S
C384 C389 1.429 . S
C385 C368 1.394 . S
C385 C384 1.438 . S
C385 C386 1.428 . S
C386 H378 0.949 . S
C386 C385 1.428 . S
C386 C387 1.345 . S
C387 H379 0.950 . S
C387 C386 1.345 . S
C387 C388 1.424 . S
C388 H380 0.951 . S
C388 C387 1.424 . S
C388 C389 1.347 . S
C389 H381 0.951 . S
C389 C384 1.429 . S
C389 C388 1.347 . S
H390 C391 0.951 . S
C391 H390 0.951 . S
C391 C397 1.265 . S
H392 C397 0.950 . S
H393 C401 0.949 . S
H394 C402 0.950 . S
H395 C403 0.951 . S
H396 C404 0.951 . S
C397 C391 1.265 . S
C397 H392 0.950 . S
C397 C398 1.478 . S
C398 C397 1.478 . S
C398 C399 1.397 . S
C398 C415 1.394 . S
C399 C398 1.397 . S
C399 C400 1.438 . S
C399 C404 1.429 . S
C400 C399 1.438 . S
C400 C401 1.428 . S
C400 C413 1.394 . S
C401 H393 0.949 . S
C401 C400 1.428 . S
C401 C402 1.345 . S
C402 H394 0.950 . S
C402 C401 1.345 . S
C402 C403 1.424 . S
C403 H395 0.951 . S
C403 C402 1.424 . S
C403 C404 1.347 . S
C404 H396 0.951 . S
C404 C399 1.429 . S
C404 C403 1.347 . S
H405 C406 0.951 . S
C406 H405 0.951 . S
C406 C412 1.265 . S
H407 C412 0.950 . S
H408 C416 0.949 . S
H409 C417 0.950 . S
H410 C418 0.951 . S
H411 C419 0.951 . S
C412 C406 1.265 . S
C412 H407 0.950 . S
C412 C413 1.478 . S
C413 C400 1.394 . S
C413 C412 1.478 . S
C413 C414 1.397 . S
C414 C413 1.397 . S
C414 C415 1.438 . S
C414 C419 1.429 . S
C415 C398 1.394 . S
C415 C414 1.438 . S
C415 C416 1.428 . S
C416 H408 0.949 . S
C416 C415 1.428 . S
C416 C417 1.345 . S
C417 H409 0.950 . S
C417 C416 1.345 . S
C417 C418 1.424 . S
C418 H410 0.951 . S
C418 C417 1.424 . S
C418 C419 1.347 . S
C419 H411 0.951 . S
C419 C414 1.429 . S
C419 C418 1.347 . S
H420 C421 0.951 . S
C421 H420 0.951 . S
C421 C427 1.265 . S
H422 C427 0.950 . S
H423 C431 0.949 . S
H424 C432 0.950 . S
H425 C433 0.951 . S
H426 C434 0.951 . S
C427 C421 1.265 . S
C427 H422 0.950 . S
C427 C428 1.478 1_556 S
C428 C427 1.478 1_554 S
C428 C429 1.397 . S
C428 C445 1.394 . S
C429 C428 1.397 . S
C429 C430 1.438 . S
C429 C434 1.429 . S
C430 C429 1.438 . S
C430 C431 1.428 . S
C430 C443 1.394 . S
C431 H423 0.949 . S
C431 C430 1.428 . S
C431 C432 1.345 . S
C432 H424 0.950 . S
C432 C431 1.345 . S
C432 C433 1.424 . S
C433 H425 0.951 . S
C433 C432 1.424 . S
C433 C434 1.347 . S
C434 H426 0.951 . S
C434 C429 1.429 . S
C434 C433 1.347 . S
H435 C436 0.951 . S
C436 H435 0.951 . S
C436 C442 1.265 . S
H437 C442 0.950 . S
H438 C446 0.949 1_556 S
H439 C447 0.950 . S
H440 C448 0.951 . S
H441 C449 0.951 . S
C442 C436 1.265 . S
C442 H437 0.950 . S
C442 C443 1.478 . S
C443 C430 1.394 . S
C443 C442 1.478 . S
C443 C444 1.397 . S
C444 C443 1.397 . S
C444 C445 1.438 . S
C444 C449 1.429 . S
C445 C428 1.394 . S
C445 C444 1.438 . S
C445 C446 1.428 . S
C446 H438 0.949 1_554 S
C446 C445 1.428 . S
C446 C447 1.345 . S
C447 H439 0.950 . S
C447 C446 1.345 . S
C447 C448 1.424 . S
C448 H440 0.951 . S
C448 C447 1.424 . S
C448 C449 1.347 . S
C449 H441 0.951 . S
C449 C444 1.429 . S
C449 C448 1.347 . S
H450 C451 0.951 . S
C451 H450 0.951 . S
C451 C457 1.265 . S
H452 C457 0.950 . S
H453 C461 0.949 . S
H454 C462 0.950 . S
H455 C463 0.951 . S
H456 C464 0.951 . S
C457 C451 1.265 . S
C457 H452 0.950 . S
C457 C458 1.478 . S
C458 C457 1.478 . S
C458 C459 1.397 . S
C458 C475 1.394 . S
C459 C458 1.397 . S
C459 C460 1.438 . S
C459 C464 1.429 . S
C460 C459 1.438 . S
C460 C461 1.428 . S
C460 C473 1.394 . S
C461 H453 0.949 . S
C461 C460 1.428 . S
C461 C462 1.345 . S
C462 H454 0.950 . S
C462 C461 1.345 . S
C462 C463 1.424 . S
C463 H455 0.951 . S
C463 C462 1.424 . S
C463 C464 1.347 . S
C464 H456 0.951 . S
C464 C459 1.429 . S
C464 C463 1.347 . S
H465 C466 0.951 . S
C466 H465 0.951 . S
C466 C472 1.265 . S
H467 C472 0.950 . S
H468 C476 0.949 . S
H469 C477 0.950 . S
H470 C478 0.951 . S
H471 C479 0.951 . S
C472 C466 1.265 . S
C472 H467 0.950 . S
C472 C473 1.478 . S
C473 C460 1.394 . S
C473 C472 1.478 . S
C473 C474 1.397 . S
C474 C473 1.397 . S
C474 C475 1.438 . S
C474 C479 1.429 . S
C475 C458 1.394 . S
C475 C474 1.438 . S
C475 C476 1.428 . S
C476 H468 0.949 . S
C476 C475 1.428 . S
C476 C477 1.345 . S
C477 H469 0.950 . S
C477 C476 1.345 . S
C477 C478 1.424 . S
C478 H470 0.951 . S
C478 C477 1.424 . S
C478 C479 1.347 . S
C479 H471 0.951 . S
C479 C474 1.429 . S
C479 C478 1.347 . S
H480 C481 0.951 . S
C481 H480 0.951 . S
C481 C487 1.265 . S
H482 C487 0.950 . S
H483 C491 0.949 . S
H484 C492 0.950 . S
H485 C493 0.951 . S
H486 C494 0.951 . S
C487 C481 1.265 . S
C487 H482 0.950 . S
C487 C488 1.478 . S
C488 C487 1.478 . S
C488 C489 1.397 . S
C488 C505 1.394 . S
C489 C488 1.397 . S
C489 C490 1.438 . S
C489 C494 1.429 . S
C490 C489 1.438 . S
C490 C491 1.428 . S
C490 C503 1.394 . S
C491 H483 0.949 . S
C491 C490 1.428 . S
C491 C492 1.345 . S
C492 H484 0.950 . S
C492 C491 1.345 . S
C492 C493 1.424 . S
C493 H485 0.951 . S
C493 C492 1.424 . S
C493 C494 1.347 . S
C494 H486 0.951 . S
C494 C489 1.429 . S
C494 C493 1.347 . S
H495 C496 0.951 . S
C496 H495 0.951 . S
C496 C502 1.265 . S
H497 C502 0.950 . S
H498 C506 0.949 . S
H499 C507 0.950 . S
H500 C508 0.951 . S
H501 C509 0.951 . S
C502 C496 1.265 . S
C502 H497 0.950 . S
C502 C503 1.478 . S
C503 C490 1.394 . S
C503 C502 1.478 . S
C503 C504 1.397 . S
C504 C503 1.397 . S
C504 C505 1.438 . S
C504 C509 1.429 . S
C505 C488 1.394 . S
C505 C504 1.438 . S
C505 C506 1.428 . S
C506 H498 0.949 . S
C506 C505 1.428 . S
C506 C507 1.345 . S
C507 H499 0.950 . S
C507 C506 1.345 . S
C507 C508 1.424 . S
C508 H500 0.951 . S
C508 C507 1.424 . S
C508 C509 1.347 . S
C509 H501 0.951 . S
C509 C504 1.429 . S
C509 C508 1.347 . S
H510 C511 0.951 . S
C511 H510 0.951 . S
C511 C517 1.265 . S
H512 C517 0.950 . S
H513 C521 0.949 . S
H514 C522 0.950 . S
H515 C523 0.951 . S
H516 C524 0.951 . S
C517 C511 1.265 . S
C517 H512 0.950 . S
C517 C518 1.478 . S
C518 C517 1.478 . S
C518 C519 1.397 . S
C518 C535 1.394 . S
C519 C518 1.397 . S
C519 C520 1.438 . S
C519 C524 1.429 . S
C520 C519 1.438 . S
C520 C521 1.428 . S
C520 C533 1.394 . S
C521 H513 0.949 . S
C521 C520 1.428 . S
C521 C522 1.345 . S
C522 H514 0.950 . S
C522 C521 1.345 . S
C522 C523 1.424 . S
C523 H515 0.951 . S
C523 C522 1.424 . S
C523 C524 1.347 . S
C524 H516 0.951 . S
C524 C519 1.429 . S
C524 C523 1.347 . S
H525 C526 0.951 . S
C526 H525 0.951 . S
C526 C532 1.265 . S
H527 C532 0.950 . S
H528 C536 0.949 . S
H529 C537 0.950 . S
H530 C538 0.951 . S
H531 C539 0.951 . S
C532 C526 1.265 . S
C532 H527 0.950 . S
C532 C533 1.478 . S
C533 C520 1.394 . S
C533 C532 1.478 . S
C533 C534 1.397 . S
C534 C533 1.397 . S
C534 C535 1.438 . S
C534 C539 1.429 . S
C535 C518 1.394 . S
C535 C534 1.438 . S
C535 C536 1.428 . S
C536 H528 0.949 . S
C536 C535 1.428 . S
C536 C537 1.345 . S
C537 H529 0.950 . S
C537 C536 1.345 . S
C537 C538 1.424 . S
C538 H530 0.951 . S
C538 C537 1.424 . S
C538 C539 1.347 . S
C539 H531 0.951 . S
C539 C534 1.429 . S
C539 C538 1.347 . S
H540 C541 0.951 . S
C541 H540 0.951 . S
C541 C547 1.265 . S
H542 C547 0.950 . S
H543 C551 0.949 . S
H544 C552 0.950 . S
H545 C553 0.951 . S
H546 C554 0.951 . S
C547 C541 1.265 . S
C547 H542 0.950 . S
C547 C548 1.478 . S
C548 C547 1.478 . S
C548 C549 1.397 . S
C548 C565 1.394 . S
C549 C548 1.397 . S
C549 C550 1.438 . S
C549 C554 1.429 . S
C550 C549 1.438 . S
C550 C551 1.428 . S
C550 C563 1.394 . S
C551 H543 0.949 . S
C551 C550 1.428 . S
C551 C552 1.345 . S
C552 H544 0.950 . S
C552 C551 1.345 . S
C552 C553 1.424 . S
C553 H545 0.951 . S
C553 C552 1.424 . S
C553 C554 1.347 . S
C554 H546 0.951 . S
C554 C549 1.429 . S
C554 C553 1.347 . S
H555 C556 0.951 . S
C556 H555 0.951 . S
C556 C562 1.265 . S
H557 C562 0.950 . S
H558 C566 0.949 . S
H559 C567 0.950 . S
H560 C568 0.951 1_556 S
H561 C569 0.951 . S
C562 C556 1.265 . S
C562 H557 0.950 . S
C562 C563 1.478 . S
C563 C550 1.394 . S
C563 C562 1.478 . S
C563 C564 1.397 . S
C564 C563 1.397 . S
C564 C565 1.438 . S
C564 C569 1.429 . S
C565 C548 1.394 . S
C565 C564 1.438 . S
C565 C566 1.428 . S
C566 H558 0.949 . S
C566 C565 1.428 . S
C566 C567 1.345 . S
C567 H559 0.950 . S
C567 C566 1.345 . S
C567 C568 1.424 . S
C568 H560 0.951 1_554 S
C568 C567 1.424 . S
C568 C569 1.347 . S
C569 H561 0.951 . S
C569 C564 1.429 . S
C569 C568 1.347 . S
H570 C571 0.951 . S
C571 H570 0.951 . S
C571 C577 1.265 . S
H572 C577 0.950 . S
H573 C581 0.949 . S
H574 C582 0.950 1_556 S
H575 C583 0.951 . S
H576 C584 0.951 . S
C577 C571 1.265 . S
C577 H572 0.950 . S
C577 C578 1.478 . S
C578 C577 1.478 . S
C578 C579 1.397 . S
C578 C595 1.394 . S
C579 C578 1.397 . S
C579 C580 1.438 . S
C579 C584 1.429 . S
C580 C579 1.438 . S
C580 C581 1.428 . S
C580 C593 1.394 . S
C581 H573 0.949 . S
C581 C580 1.428 . S
C581 C582 1.345 . S
C582 H574 0.950 1_554 S
C582 C581 1.345 . S
C582 C583 1.424 . S
C583 H575 0.951 . S
C583 C582 1.424 . S
C583 C584 1.347 . S
C584 H576 0.951 . S
C584 C579 1.429 . S
C584 C583 1.347 . S
H585 C586 0.951 . S
C586 H585 0.951 . S
C586 C592 1.265 . S
H587 C592 0.950 . S
H588 C596 0.949 . S
H589 C597 0.950 . S
H590 C598 0.951 . S
H591 C599 0.951 . S
C592 C586 1.265 . S
C592 H587 0.950 . S
C592 C593 1.478 . S
C593 C580 1.394 . S
C593 C592 1.478 . S
C593 C594 1.397 . S
C594 C593 1.397 . S
C594 C595 1.438 . S
C594 C599 1.429 . S
C595 C578 1.394 . S
C595 C594 1.438 . S
C595 C596 1.428 . S
C596 H588 0.949 . S
C596 C595 1.428 . S
C596 C597 1.345 . S
C597 H589 0.950 . S
C597 C596 1.345 . S
C597 C598 1.424 . S
C598 H590 0.951 . S
C598 C597 1.424 . S
C598 C599 1.347 . S
C599 H591 0.951 . S
C599 C594 1.429 . S
C599 C598 1.347 . S
H600 C601 0.951 . S
C601 H600 0.951 . S
C601 C607 1.265 . S
H602 C607 0.950 . S
H603 C611 0.949 . S
H604 C612 0.950 . S
H605 C613 0.951 . S
H606 C614 0.951 . S
C607 C601 1.265 . S
C607 H602 0.950 . S
C607 C608 1.478 . S
C608 C607 1.478 . S
C608 C609 1.397 . S
C608 C625 1.394 . S
C609 C608 1.397 . S
C609 C610 1.438 . S
C609 C614 1.429 . S
C610 C609 1.438 . S
C610 C611 1.428 . S
C610 C623 1.394 . S
C611 H603 0.949 . S
C611 C610 1.428 . S
C611 C612 1.345 . S
C612 H604 0.950 . S
C612 C611 1.345 . S
C612 C613 1.424 . S
C613 H605 0.951 . S
C613 C612 1.424 . S
C613 C614 1.347 . S
C614 H606 0.951 . S
C614 C609 1.429 . S
C614 C613 1.347 . S
H615 C616 0.951 . S
C616 H615 0.951 . S
C616 C622 1.265 . S
H617 C622 0.950 . S
H618 C626 0.949 . S
H619 C627 0.950 . S
H620 C628 0.951 . S
H621 C629 0.951 . S
C622 C616 1.265 . S
C622 H617 0.950 . S
C622 C623 1.478 . S
C623 C610 1.394 . S
C623 C622 1.478 . S
C623 C624 1.397 . S
C624 C623 1.397 . S
C624 C625 1.438 . S
C624 C629 1.429 . S
C625 C608 1.394 . S
C625 C624 1.438 . S
C625 C626 1.428 . S
C626 H618 0.949 . S
C626 C625 1.428 . S
C626 C627 1.345 . S
C627 H619 0.950 . S
C627 C626 1.345 . S
C627 C628 1.424 . S
C628 H620 0.951 . S
C628 C627 1.424 . S
C628 C629 1.347 . S
C629 H621 0.951 . S
C629 C624 1.429 . S
C629 C628 1.347 . S
H630 C631 0.951 1_554 S
C631 H630 0.951 1_556 S
C631 C637 1.265 . S
H632 C637 0.950 . S
H633 C641 0.949 . S
H634 C642 0.950 . S
H635 C643 0.951 . S
H636 C644 0.951 . S
C637 C631 1.265 . S
C637 H632 0.950 . S
C637 C638 1.478 . S
C638 C637 1.478 . S
C638 C639 1.397 . S
C638 C655 1.394 . S
C639 C638 1.397 . S
C639 C640 1.438 . S
C639 C644 1.429 . S
C640 C639 1.438 . S
C640 C641 1.428 . S
C640 C653 1.394 . S
C641 H633 0.949 . S
C641 C640 1.428 . S
C641 C642 1.345 . S
C642 H634 0.950 . S
C642 C641 1.345 . S
C642 C643 1.424 . S
C643 H635 0.951 . S
C643 C642 1.424 . S
C643 C644 1.347 . S
C644 H636 0.951 . S
C644 C639 1.429 . S
C644 C643 1.347 . S
H645 C646 0.951 . S
C646 H645 0.951 . S
C646 C652 1.265 . S
H647 C652 0.950 . S
H648 C656 0.949 . S
H649 C657 0.950 . S
H650 C658 0.951 . S
H651 C659 0.951 . S
C652 C646 1.265 . S
C652 H647 0.950 . S
C652 C653 1.478 . S
C653 C640 1.394 . S
C653 C652 1.478 . S
C653 C654 1.397 . S
C654 C653 1.397 . S
C654 C655 1.438 . S
C654 C659 1.429 . S
C655 C638 1.394 . S
C655 C654 1.438 . S
C655 C656 1.428 . S
C656 H648 0.949 . S
C656 C655 1.428 . S
C656 C657 1.345 . S
C657 H649 0.950 . S
C657 C656 1.345 . S
C657 C658 1.424 . S
C658 H650 0.951 . S
C658 C657 1.424 . S
C658 C659 1.347 . S
C659 H651 0.951 . S
C659 C654 1.429 . S
C659 C658 1.347 . S
C121 C118 1.518 . S
C136 C18 1.518 . S
C151 C8 1.406 . S
C166 C28 1.499 . S
C181 C38 1.520 . S
C196 C58 1.521 . S
C211 C48 1.428 . S
C226 C68 1.512 . S
C241 C98 1.528 . S
C256 C78 1.529 . S
C271 C108 1.405 . S
C286 C88 1.498 . S
C301 C2 1.213 1_556 S
C316 C1 1.213 . S
C331 C21 1.224 . S
C346 C22 1.224 . S
C361 C42 1.220 . S
C376 C41 1.220 . S
C391 C61 1.203 . S
C406 C62 1.203 . S
C421 C81 1.177 . S
C436 C82 1.177 . S
C451 C101 1.169 . S
C466 C102 1.169 1_554 S
C481 C19 1.586 . S
C496 C89 1.621 . S
C511 C29 1.615 . S
C526 C119 1.618 . S
C541 C9 1.622 . S
C556 C59 1.599 . S
C571 C39 1.562 . S
C586 C69 1.612 . S
C601 C99 1.604 . S
C616 C49 1.622 . S
C631 C79 1.582 1_556 S
C646 C109 1.600 . S
