# Generated by pormake.
# Topology npo, (4)-cn, num edge types: 1
# Building blocks:
#     Node 0, Type 0, BuildingBlock: ICAMEG_clean_sbu_1, # of connection points: 4
#     Node 1, Type 0, BuildingBlock: ICAMEG_clean_sbu_1, # of connection points: 4
#     Node 2, Type 0, BuildingBlock: ICAMEG_clean_sbu_1, # of connection points: 4
#     Node 3, Type 0, BuildingBlock: ICAMEG_clean_sbu_1, # of connection points: 4
#     Node 4, Type 0, BuildingBlock: ICAMEG_clean_sbu_1, # of connection points: 4
#     Node 5, Type 0, BuildingBlock: ICAMEG_clean_sbu_1, # of connection points: 4
#     Edge 6, Type (0, 0), BuildingBlock: FUNLAD_clean_linker_1, # of connection points: 2
#     Edge 7, Type (0, 0), BuildingBlock: FUNLAD_clean_linker_1, # of connection points: 2
#     Edge 8, Type (0, 0), BuildingBlock: FUNLAD_clean_linker_1, # of connection points: 2
#     Edge 9, Type (0, 0), BuildingBlock: FUNLAD_clean_linker_1, # of connection points: 2
#     Edge 10, Type (0, 0), BuildingBlock: FUNLAD_clean_linker_1, # of connection points: 2
#     Edge 11, Type (0, 0), BuildingBlock: FUNLAD_clean_linker_1, # of connection points: 2
#     Edge 12, Type (0, 0), BuildingBlock: FUNLAD_clean_linker_1, # of connection points: 2
#     Edge 13, Type (0, 0), BuildingBlock: FUNLAD_clean_linker_1, # of connection points: 2
#     Edge 14, Type (0, 0), BuildingBlock: FUNLAD_clean_linker_1, # of connection points: 2
#     Edge 15, Type (0, 0), BuildingBlock: FUNLAD_clean_linker_1, # of connection points: 2
#     Edge 16, Type (0, 0), BuildingBlock: FUNLAD_clean_linker_1, # of connection points: 2
#     Edge 17, Type (0, 0), BuildingBlock: FUNLAD_clean_linker_1, # of connection points: 2
# Relax obj value: 0.243
# Max RMSD: 0.245
# Mean RMSD: 0.244
data_MOF--net-npo--node1-ICAMEG_clean_sbu_1--edge1-FUNLAD_clean_linker_1
_symmetry_space_group_name_H-M    P1
_symmetry_Int_Tables_number       1
_symmetry_cell_setting            triclinic
loop_
_symmetry_equiv_pos_as_xyz
'x, y, z'
_cell_length_a     48.067345
_cell_length_b     48.069947
_cell_length_c     27.047633
_cell_angle_alpha  89.802419
_cell_angle_beta   90.024753
_cell_angle_gamma 119.97077
loop_
_atom_site_label
_atom_site_type_symbol
_atom_site_fract_x
_atom_site_fract_y
_atom_site_fract_z
_atom_type_partial_charge
Co0 Co 0.58024 0.13642 0.19026 0.0
Co1 Co 0.56066 0.12618 0.31486 0.0
O2 O 0.55757 0.10897 0.24762 0.0
C3 C 0.51495 0.08702 0.14925 0.0
O4 O 0.50358 0.07442 0.19285 0.0
C5 C 0.57863 0.08713 0.37749 0.0
O6 O 0.60373 0.11433 0.39101 0.0
O7 O 0.60867 0.14938 0.31173 0.0
O8 O 0.61833 0.16335 0.23179 0.0
H9 H 0.60388 0.21264 0.44408 0.0
H10 H 0.55331 0.06548 0.18514 0.0
O11 O 0.54321 0.11082 0.14441 0.0
H12 H 0.66852 0.11306 0.14748 0.0
H13 H 0.61673 0.1597 0.01262 0.0
H14 H 0.62076 0.20681 0.17599 0.0
H15 H 0.64564 0.14767 0.16619 0.0
H16 H 0.58808 0.12494 0.08382 0.0
O17 O 0.55991 0.08704 0.34386 0.0
H18 H 0.59955 0.19023 0.36075 0.0
H19 H 0.52745 0.09837 0.41135 0.0
H20 H 0.65003 0.24239 0.10587 0.0
H21 H 0.57501 0.03008 0.16548 0.0
H22 H 0.64813 0.21887 0.02346 0.0
H23 H 0.63306 0.0538 0.14653 0.0
O24 O 0.56253 0.16522 0.20516 0.0
H25 H 0.44986 0.03064 0.29706 0.0
H26 H 0.51207 0.14536 0.34064 0.0
H27 H 0.45295 0.11759 0.34273 0.0
H28 H 0.42141 0.05976 0.32104 0.0
H29 H 0.50906 0.0595 0.29467 0.0
H30 H 0.53134 0.11971 0.4954 0.0
H31 H 0.56973 0.17725 0.51219 0.0
O32 O 0.5611 0.16518 0.28818 0.0
C33 C 0.62758 0.165 0.27626 0.0
C34 C 0.58709 0.18751 0.43725 0.0
C35 C 0.54635 0.13538 0.46603 0.0
N36 N 0.56332 0.143 0.38112 0.0
C37 C 0.5845 0.17468 0.39011 0.0
C38 C 0.54428 0.12342 0.41836 0.0
C39 C 0.56791 0.16765 0.47543 0.0
C40 C 0.57843 0.07611 0.17619 0.0
N41 N 0.59794 0.10872 0.17583 0.0
C42 C 0.59067 0.05588 0.16544 0.0
C43 C 0.62325 0.06919 0.15488 0.0
C44 C 0.64314 0.10243 0.15541 0.0
C45 C 0.63003 0.12191 0.16617 0.0
C46 C 0.61775 0.17024 0.04836 0.0
C47 C 0.6199 0.19635 0.1403 0.0
C48 C 0.60148 0.15068 0.0888 0.0
N49 N 0.60285 0.1638 0.13415 0.0
C50 C 0.63648 0.21664 0.1007 0.0
C51 C 0.63538 0.20343 0.05447 0.0
C52 C 0.55947 0.17641 0.24622 0.0
C53 C 0.46333 0.05583 0.30667 0.0
C54 C 0.49857 0.1203 0.33061 0.0
C55 C 0.46507 0.10464 0.33214 0.0
C56 C 0.44738 0.07219 0.32004 0.0
N57 N 0.51406 0.10409 0.31745 0.0
C58 C 0.49687 0.07227 0.30558 0.0
Co59 Co 0.43154 0.56431 0.71194 0.0
Co60 Co 0.42795 0.55399 0.83935 0.0
O61 O 0.44057 0.54706 0.77271 0.0
C62 C 0.42153 0.499 0.67919 0.0
O63 O 0.42945 0.4922 0.72215 0.0
C64 C 0.49468 0.5628 0.85629 0.0
O65 O 0.50212 0.56712 0.8092 0.0
O66 O 0.45053 0.60143 0.82797 0.0
O67 O 0.44183 0.60475 0.74708 0.0
H68 H 0.38485 0.60262 0.95988 0.0
H69 H 0.48049 0.54281 0.71129 0.0
O70 O 0.42064 0.52476 0.67252 0.0
H71 H 0.53714 0.65385 0.64845 0.0
H72 H 0.43413 0.58598 0.52899 0.0
H73 H 0.39556 0.59835 0.69184 0.0
H74 H 0.48043 0.62851 0.67351 0.0
H75 H 0.44703 0.56582 0.60444 0.0
O76 O 0.46751 0.55796 0.87121 0.0
H77 H 0.4007 0.59312 0.87773 0.0
H78 H 0.42841 0.52964 0.94108 0.0
H79 H 0.38184 0.61856 0.61719 0.0
H80 H 0.53674 0.56677 0.68531 0.0
H81 H 0.40137 0.61267 0.53509 0.0
H82 H 0.56565 0.6228 0.65366 0.0
O83 O 0.38526 0.54482 0.73048 0.0
H84 H 0.41829 0.44491 0.84081 0.0
H85 H 0.36253 0.50539 0.87535 0.0
H86 H 0.33435 0.44691 0.88965 0.0
H87 H 0.36234 0.41629 0.87274 0.0
H88 H 0.44537 0.50329 0.8262 0.0
H89 H 0.41317 0.5387 0.02387 0.0
H90 H 0.39108 0.57533 0.03368 0.0
O91 O 0.38755 0.55 0.81288 0.0
C92 C 0.45106 0.6173 0.78968 0.0
C93 C 0.39441 0.58658 0.95607 0.0
C94 C 0.41034 0.55074 0.99201 0.0
N95 N 0.41542 0.5608 0.9045 0.0
C96 C 0.40338 0.58106 0.90963 0.0
C97 C 0.41904 0.54579 0.945 0.0
C98 C 0.39793 0.57128 0.99748 0.0
C99 C 0.49238 0.56683 0.69671 0.0
N100 N 0.47664 0.58383 0.69314 0.0
C101 C 0.52452 0.58047 0.68245 0.0
C102 C 0.54075 0.61193 0.66483 0.0
C103 C 0.52478 0.62935 0.66196 0.0
C104 C 0.49264 0.61489 0.67649 0.0
C105 C 0.42561 0.58885 0.56458 0.0
C106 C 0.40423 0.59576 0.65626 0.0
C107 C 0.43281 0.57746 0.60747 0.0
N108 N 0.42233 0.58119 0.65265 0.0
C109 C 0.39637 0.60724 0.61412 0.0
C110 C 0.40725 0.60384 0.56804 0.0
C111 C 0.3726 0.54426 0.77215 0.0
C112 C 0.40588 0.458 0.84851 0.0
C113 C 0.3748 0.49223 0.86742 0.0
C114 C 0.35875 0.45912 0.87581 0.0
C115 C 0.37447 0.44195 0.86635 0.0
N116 N 0.40572 0.50786 0.85027 0.0
C117 C 0.42116 0.49112 0.84051 0.0
Co118 Co 0.86879 0.43551 0.30466 0.0
Co119 Co 0.87962 0.44147 0.17777 0.0
O120 O 0.89676 0.45151 0.24576 0.0
C121 C 0.92234 0.50211 0.33494 0.0
O122 O 0.93743 0.50767 0.29245 0.0
C123 C 0.91991 0.41731 0.1327 0.0
O124 O 0.89424 0.38873 0.13061 0.0
O125 O 0.85661 0.39456 0.19348 0.0
O126 O 0.84058 0.39359 0.27169 0.0
H127 H 0.79397 0.38216 0.0504 0.0
H128 H 0.93937 0.45799 0.30866 0.0
O129 O 0.89565 0.47652 0.34221 0.0
H130 H 0.88594 0.3505 0.38495 0.0
H131 H 0.84391 0.41915 0.48713 0.0
H132 H 0.79831 0.40079 0.31917 0.0
H133 H 0.85408 0.37377 0.35285 0.0
H134 H 0.87939 0.4379 0.41409 0.0
O135 O 0.91899 0.44025 0.15494 0.0
H136 H 0.81593 0.39661 0.13476 0.0
H137 H 0.90698 0.46503 0.07674 0.0
H138 H 0.76196 0.38164 0.39125 0.0
H139 H 0.97208 0.43597 0.34108 0.0
H140 H 0.78472 0.39064 0.47594 0.0
H141 H 0.94547 0.38182 0.37974 0.0
O142 O 0.84177 0.45313 0.27853 0.0
H143 H 0.97463 0.55337 0.17507 0.0
H144 H 0.86016 0.48603 0.1323 0.0
H145 H 0.88773 0.54416 0.115 0.0
H146 H 0.94543 0.57824 0.13619 0.0
H147 H 0.946 0.4952 0.19243 0.0
H148 H 0.8862 0.45103 0.99179 0.0
H149 H 0.82923 0.40934 0.97816 0.0
O150 O 0.84057 0.44331 0.19721 0.0
C151 C 0.84 0.37967 0.23138 0.0
C152 C 0.81885 0.40032 0.05584 0.0
C153 C 0.8706 0.43895 0.02294 0.0
N154 N 0.86284 0.43146 0.11076 0.0
C155 C 0.83143 0.40861 0.10355 0.0
C156 C 0.8823 0.44668 0.07117 0.0
C157 C 0.83864 0.41557 0.01533 0.0
C158 C 0.92743 0.43477 0.32613 0.0
N159 N 0.8947 0.41775 0.32999 0.0
C160 C 0.94617 0.42223 0.34409 0.0
C161 C 0.93124 0.39182 0.36565 0.0
C162 C 0.89786 0.37426 0.36858 0.0
C163 C 0.87992 0.38759 0.35023 0.0
C164 C 0.83369 0.41492 0.45039 0.0
C165 C 0.80839 0.4046 0.3559 0.0
C166 C 0.85365 0.42552 0.40886 0.0
N167 N 0.84091 0.42003 0.3623 0.0
C168 C 0.78769 0.39378 0.39657 0.0
C169 C 0.80049 0.39892 0.44409 0.0
C170 C 0.83017 0.45074 0.23526 0.0
C171 C 0.9495 0.53877 0.16559 0.0
C172 C 0.88518 0.50071 0.14211 0.0
C173 C 0.90071 0.53361 0.13198 0.0
C174 C 0.93309 0.55271 0.14383 0.0
N175 N 0.90146 0.48719 0.16336 0.0
C176 C 0.93318 0.5058 0.1752 0.0
Co177 Co 0.44553 0.87047 0.82785 0.0
Co178 Co 0.43412 0.87587 0.70366 0.0
O179 O 0.45017 0.89638 0.76854 0.0
C180 C 0.43624 0.92489 0.86622 0.0
O181 O 0.43671 0.9363 0.8219 0.0
C182 C 0.50018 0.92809 0.67665 0.0
O183 O 0.51193 0.92 0.71428 0.0
O184 O 0.46038 0.85434 0.70822 0.0
O185 O 0.45184 0.83935 0.78775 0.0
H186 H 0.38866 0.7835 0.58457 0.0
H187 H 0.49407 0.94032 0.82601 0.0
O188 O 0.43895 0.9001 0.87231 0.0
H189 H 0.55523 0.88537 0.86145 0.0
H190 H 0.46293 0.8518 1.00591 0.0
H191 H 0.41068 0.80048 0.84883 0.0
H192 H 0.49665 0.85423 0.84941 0.0
H193 H 0.46937 0.8847 0.93203 0.0
O194 O 0.47008 0.91351 0.66878 0.0
H195 H 0.4085 0.80977 0.66519 0.0
H196 H 0.42673 0.89898 0.60448 0.0
H197 H 0.40387 0.76671 0.92169 0.0
H198 H 0.55246 0.97238 0.83881 0.0
H199 H 0.43012 0.79235 1.00097 0.0
H200 H 0.58353 0.94492 0.85656 0.0
O201 O 0.39828 0.84466 0.81714 0.0
H202 H 0.41508 0.96942 0.7132 0.0
H203 H 0.36533 0.8534 0.68042 0.0
H204 H 0.33218 0.87925 0.67617 0.0
H205 H 0.35707 0.93772 0.69246 0.0
H206 H 0.44728 0.94247 0.71767 0.0
H207 H 0.40741 0.87372 0.52304 0.0
H208 H 0.38804 0.81554 0.51274 0.0
O209 O 0.39719 0.83756 0.7352 0.0
C210 C 0.46077 0.83737 0.74424 0.0
C211 C 0.39698 0.80886 0.5886 0.0
C212 C 0.40754 0.8595 0.55406 0.0
N213 N 0.41864 0.85586 0.63967 0.0
C214 C 0.40819 0.82387 0.63421 0.0
C215 C 0.41855 0.8737 0.60025 0.0
C216 C 0.39666 0.82685 0.54831 0.0
C217 C 0.50719 0.92815 0.83455 0.0
N218 N 0.49171 0.89542 0.83788 0.0
C219 C 0.54037 0.94646 0.84139 0.0
C220 C 0.5578 0.93104 0.85125 0.0
C221 C 0.54194 0.89764 0.85399 0.0
C222 C 0.50874 0.88012 0.84703 0.0
C223 C 0.45141 0.84034 0.97156 0.0
C224 C 0.4223 0.81186 0.88311 0.0
C225 C 0.45488 0.85885 0.92962 0.0
N226 N 0.44058 0.84454 0.886 0.0
C227 C 0.41829 0.79259 0.92429 0.0
C228 C 0.433 0.80699 0.96876 0.0
C229 C 0.384 0.83008 0.77771 0.0
C230 C 0.40396 0.94393 0.706 0.0
C231 C 0.3763 0.87878 0.68802 0.0
C232 C 0.35742 0.89332 0.68532 0.0
C233 C 0.37141 0.92613 0.69441 0.0
N234 N 0.40821 0.89641 0.69945 0.0
C235 C 0.42209 0.92857 0.70836 0.0
Co236 Co 0.55879 0.43359 0.21774 0.0
Co237 Co 0.58021 0.45792 0.33942 0.0
O238 O 0.55586 0.45471 0.2788 0.0
C239 C 0.57107 0.49727 0.17828 0.0
O240 O 0.58873 0.51197 0.21699 0.0
C241 C 0.51451 0.44283 0.37992 0.0
O242 O 0.50152 0.44011 0.33621 0.0
O243 O 0.56448 0.41077 0.33826 0.0
O244 O 0.5603 0.39942 0.25727 0.0
H245 H 0.65481 0.43657 0.44198 0.0
H246 H 0.50671 0.44934 0.22599 0.0
O247 O 0.55721 0.46686 0.17474 0.0
H248 H 0.45184 0.33163 0.20777 0.0
H249 H 0.52911 0.39269 0.04338 0.0
H250 H 0.59658 0.4031 0.18728 0.0
H251 H 0.51096 0.36381 0.20816 0.0
H252 H 0.526 0.41904 0.11953 0.0
O253 O 0.54347 0.44929 0.38446 0.0
H254 H 0.62366 0.43338 0.36764 0.0
H255 H 0.58886 0.48884 0.43837 0.0
H256 H 0.60024 0.3763 0.11208 0.0
H257 H 0.44749 0.41815 0.22505 0.0
H258 H 0.56633 0.37096 0.03936 0.0
H259 H 0.41967 0.35884 0.21603 0.0
O260 O 0.60679 0.45897 0.21809 0.0
H261 H 0.56876 0.55634 0.32896 0.0
H262 H 0.64449 0.5164 0.3521 0.0
H263 H 0.66474 0.57467 0.35292 0.0
H264 H 0.62674 0.59502 0.3416 0.0
H265 H 0.54965 0.49839 0.32758 0.0
H266 H 0.61948 0.49242 0.51358 0.0
H267 H 0.65285 0.46627 0.51564 0.0
O268 O 0.61818 0.46652 0.29912 0.0
C269 C 0.56066 0.39204 0.3024 0.0
C270 C 0.64043 0.44814 0.44149 0.0
C271 C 0.62056 0.47944 0.48169 0.0
N272 N 0.6046 0.46106 0.3985 0.0
C273 C 0.62278 0.44648 0.39946 0.0
C274 C 0.60321 0.47726 0.43903 0.0
C275 C 0.63929 0.46478 0.48282 0.0
C276 C 0.49476 0.42357 0.22172 0.0
N277 N 0.51226 0.40842 0.21712 0.0
C278 C 0.46123 0.40602 0.22137 0.0
C279 C 0.44564 0.37274 0.21636 0.0
C280 C 0.46366 0.35746 0.21179 0.0
C281 C 0.49715 0.37579 0.21228 0.0
C282 C 0.54401 0.39487 0.0748 0.0
C283 C 0.58171 0.40082 0.15589 0.0
C284 C 0.54245 0.40988 0.11799 0.0
N285 N 0.56111 0.41261 0.15791 0.0
C286 C 0.5839 0.38564 0.11335 0.0
C287 C 0.56489 0.38267 0.07258 0.0
C288 C 0.62643 0.46774 0.25424 0.0
C289 C 0.58552 0.54777 0.33433 0.0
C290 C 0.62776 0.525 0.34709 0.0
C291 C 0.63939 0.55806 0.34765 0.0
C292 C 0.61806 0.56946 0.34131 0.0
N293 N 0.59573 0.50381 0.34077 0.0
C294 C 0.57476 0.51488 0.33399 0.0
Co295 Co 0.12228 0.55281 0.66572 0.0
Co296 Co 0.1232 0.56948 0.79153 0.0
O297 O 0.10035 0.55277 0.7278 0.0
C298 C 0.07433 0.57316 0.63085 0.0
O299 O 0.06239 0.57179 0.67502 0.0
C300 C 0.0624 0.50764 0.8199 0.0
O301 O 0.05313 0.50108 0.77376 0.0
O302 O 0.1463 0.54473 0.78457 0.0
O303 O 0.14886 0.53892 0.70263 0.0
H304 H 0.22126 0.62068 0.89946 0.0
H305 H 0.05039 0.51452 0.67095 0.0
O306 O 0.09691 0.56701 0.62423 0.0
H307 H 0.08484 0.43694 0.62741 0.0
H308 H 0.12917 0.53106 0.48523 0.0
H309 H 0.19015 0.5752 0.63943 0.0
H310 H 0.12487 0.49379 0.64126 0.0
H311 H 0.1014 0.53065 0.56205 0.0
O312 O 0.0886 0.53286 0.83102 0.0
H313 H 0.19122 0.59832 0.82217 0.0
H314 H 0.10411 0.57702 0.89376 0.0
H315 H 0.21881 0.57581 0.56348 0.0
H316 H 0.00966 0.45823 0.65619 0.0
H317 H 0.18829 0.55364 0.48565 0.0
H318 H 0.02672 0.41884 0.63432 0.0
O319 O 0.15582 0.59893 0.6747 0.0
H320 H 0.0278 0.58643 0.78912 0.0
H321 H 0.14442 0.63742 0.81712 0.0
H322 H 0.11779 0.66956 0.82583 0.0
H323 H 0.05899 0.64404 0.81213 0.0
H324 H 0.05544 0.55538 0.78002 0.0
H325 H 0.13325 0.59927 0.97182 0.0
H326 H 0.19221 0.62123 0.97509 0.0
O327 O 0.15873 0.60651 0.7567 0.0
C328 C 0.1559 0.536 0.74682 0.0
C329 C 0.19554 0.6111 0.89859 0.0
C330 C 0.14612 0.59898 0.93923 0.0
N331 N 0.14595 0.58641 0.85336 0.0
C332 C 0.1784 0.59842 0.8549 0.0
C333 C 0.12975 0.58637 0.89491 0.0
C334 C 0.17923 0.61139 0.94099 0.0
C335 C 0.05817 0.49791 0.66059 0.0
N336 N 0.09011 0.50785 0.65607 0.0
C337 C 0.03491 0.46585 0.6527 0.0
C338 C 0.04448 0.44376 0.64054 0.0
C339 C 0.07708 0.45389 0.6367 0.0
C340 C 0.09965 0.48615 0.64478 0.0
C341 C 0.14274 0.54076 0.51892 0.0
C342 C 0.17666 0.56535 0.60578 0.0
C343 C 0.12716 0.54069 0.56253 0.0
N344 N 0.14411 0.55275 0.60532 0.0
C345 C 0.19304 0.56584 0.56285 0.0
C346 C 0.1759 0.55342 0.51919 0.0
C347 C 0.1686 0.61603 0.71296 0.0
C348 C 0.0534 0.59778 0.79558 0.0
C349 C 0.11886 0.62608 0.81091 0.0
C350 C 0.10389 0.64444 0.81602 0.0
C351 C 0.07091 0.63011 0.80836 0.0
N352 N 0.10149 0.59425 0.79885 0.0
C353 C 0.06919 0.58017 0.79085 0.0
H354 H 0.55926 0.21778 0.21045 0.0
C355 C 0.55586 0.20524 0.2454 0.0
H356 H 0.54707 0.2048 0.32198 0.0
H357 H 0.60584 0.35438 0.34158 0.0
H358 H 0.63916 0.34389 0.39665 0.0
H359 H 0.63217 0.28962 0.4037 0.0
H360 H 0.59298 0.24595 0.3537 0.0
C361 C 0.55007 0.21705 0.2869 0.0
C362 C 0.55084 0.24851 0.28771 0.0
C363 C 0.57359 0.27372 0.31807 0.0
C364 C 0.5767 0.30478 0.31567 0.0
C365 C 0.6012 0.32999 0.34368 0.0
C366 C 0.62079 0.32438 0.3752 0.0
C367 C 0.61692 0.29386 0.37903 0.0
C368 C 0.59411 0.2689 0.35022 0.0
H369 H 0.55151 0.3508 0.35061 0.0
C370 C 0.55694 0.36014 0.31307 0.0
H371 H 0.56627 0.35244 0.23959 0.0
H372 H 0.49999 0.20383 0.23342 0.0
H373 H 0.46421 0.21343 0.18233 0.0
H374 H 0.4699 0.26729 0.17742 0.0
H375 H 0.51119 0.31172 0.22395 0.0
C376 C 0.561 0.34309 0.27713 0.0
C377 C 0.55613 0.31021 0.28445 0.0
C378 C 0.53212 0.28448 0.25644 0.0
C379 C 0.52926 0.25356 0.25843 0.0
C380 C 0.50416 0.22809 0.23168 0.0
C381 C 0.48319 0.23319 0.20259 0.0
C382 C 0.48636 0.26349 0.19989 0.0
C383 C 0.51034 0.28885 0.2266 0.0
H384 H 0.32886 0.53393 0.81235 0.0
C385 C 0.33923 0.53765 0.77548 0.0
H386 H 0.33278 0.54478 0.70025 0.0
H387 H 0.18787 0.48048 0.8107 0.0
H388 H 0.19119 0.43184 0.81831 0.0
H389 H 0.23985 0.43097 0.79173 0.0
H390 H 0.28559 0.47875 0.75782 0.0
C391 C 0.32232 0.53907 0.73707 0.0
C392 C 0.29112 0.5379 0.74623 0.0
C393 C 0.26424 0.50951 0.76475 0.0
C394 C 0.23578 0.50971 0.77871 0.0
C395 C 0.20974 0.48137 0.79854 0.0
C396 C 0.21138 0.45336 0.80325 0.0
C397 C 0.23882 0.45289 0.78841 0.0
C398 C 0.26499 0.48054 0.76932 0.0
H399 H 0.18036 0.51042 0.72201 0.0
C400 C 0.17911 0.5247 0.75216 0.0
H401 H 0.20442 0.55501 0.81158 0.0
H402 H 0.33779 0.59627 0.71075 0.0
H403 H 0.3329 0.64369 0.6985 0.0
H404 H 0.28275 0.64311 0.71818 0.0
H405 H 0.23728 0.59563 0.7528 0.0
C406 C 0.20362 0.53818 0.78414 0.0
C407 C 0.23388 0.53801 0.7728 0.0
C408 C 0.26032 0.56607 0.75266 0.0
C409 C 0.28901 0.56608 0.73963 0.0
C410 C 0.31522 0.59468 0.72058 0.0
C411 C 0.31282 0.62211 0.7133 0.0
C412 C 0.28455 0.62183 0.72467 0.0
C413 C 0.25861 0.59433 0.74443 0.0
H414 H 0.66892 0.19413 0.32568 0.0
C415 C 0.6614 0.18894 0.28731 0.0
H416 H 0.67444 0.20161 0.21235 0.0
H417 H 0.76568 0.34299 0.31096 0.0
H418 H 0.71657 0.3392 0.34097 0.0
H419 H 0.66477 0.28938 0.33041 0.0
H420 H 0.66189 0.24274 0.29286 0.0
C421 C 0.6815 0.20713 0.25084 0.0
C422 C 0.71288 0.23666 0.25991 0.0
C423 C 0.71384 0.26409 0.28115 0.0
C424 C 0.74358 0.29331 0.28502 0.0
C425 C 0.7439 0.32019 0.30704 0.0
C426 C 0.71581 0.31843 0.3242 0.0
C427 C 0.68666 0.29035 0.31856 0.0
C428 C 0.68546 0.26353 0.29709 0.0
H429 H 0.80838 0.33478 0.19074 0.0
C430 C 0.81639 0.345 0.2273 0.0
H431 H 0.81042 0.33736 0.30431 0.0
H432 H 0.71945 0.18864 0.21776 0.0
H433 H 0.76884 0.19269 0.18717 0.0
H434 H 0.8203 0.24361 0.19308 0.0
H435 H 0.82268 0.29089 0.22938 0.0
C436 C 0.80248 0.327 0.26788 0.0
C437 C 0.77207 0.29558 0.26555 0.0
C438 C 0.77118 0.26817 0.24465 0.0
C439 C 0.74153 0.2387 0.24173 0.0
C440 C 0.74128 0.21166 0.22063 0.0
C441 C 0.76946 0.21362 0.20311 0.0
C442 C 0.79844 0.2423 0.20642 0.0
C443 C 0.79945 0.26931 0.22707 0.0
H444 H 0.47449 0.80825 0.6974 0.0
C445 C 0.46851 0.81169 0.73478 0.0
H446 H 0.45968 0.7944 0.80848 0.0
H447 H 0.42059 0.65883 0.69596 0.0
H448 H 0.38161 0.66639 0.65046 0.0
H449 H 0.37915 0.71611 0.65921 0.0
H450 H 0.41685 0.7592 0.71116 0.0
C451 C 0.46501 0.79068 0.77085 0.0
C452 C 0.46742 0.76137 0.7625 0.0
C453 C 0.44424 0.73583 0.73325 0.0
C454 C 0.44477 0.70654 0.72995 0.0
C455 C 0.42158 0.68164 0.69986 0.0
C456 C 0.39876 0.6855 0.67383 0.0
C457 C 0.39749 0.71356 0.67853 0.0
C458 C 0.41963 0.73833 0.70823 0.0
H459 H 0.45921 0.66021 0.83185 0.0
C460 C 0.46005 0.65143 0.79522 0.0
H461 H 0.46721 0.66175 0.71896 0.0
H462 H 0.51577 0.80585 0.8204 0.0
H463 H 0.55623 0.79909 0.86365 0.0
H464 H 0.55735 0.74847 0.85741 0.0
H465 H 0.51785 0.70421 0.80831 0.0
C466 C 0.46647 0.67072 0.7554 0.0
C467 C 0.46759 0.70229 0.75749 0.0
C468 C 0.49124 0.72813 0.78568 0.0
C469 C 0.49096 0.75757 0.78848 0.0
C470 C 0.51474 0.78292 0.81717 0.0
C471 C 0.53821 0.77943 0.84199 0.0
C472 C 0.53881 0.75091 0.83853 0.0
C473 C 0.51579 0.72556 0.81055 0.0
H474 H 0.67675 0.48982 0.27654 0.0
C475 C 0.66027 0.47693 0.24648 0.0
H476 H 0.65268 0.44817 0.18378 0.0
H477 H 0.80936 0.51636 0.2462 0.0
H478 H 0.81419 0.56673 0.2189 0.0
H479 H 0.7666 0.56924 0.19099 0.0
H480 H 0.7138 0.52135 0.19057 0.0
C481 C 0.66954 0.4633 0.21192 0.0
C482 C 0.69912 0.46121 0.22057 0.0
C483 C 0.72991 0.48917 0.21937 0.0
C484 C 0.75748 0.48752 0.23419 0.0
C485 C 0.78775 0.51606 0.23419 0.0
C486 C 0.79083 0.54517 0.21882 0.0
C487 C 0.76403 0.5466 0.20322 0.0
C488 C 0.73386 0.519 0.20341 0.0
H489 H 0.79805 0.45974 0.18863 0.0
C490 C 0.80315 0.45652 0.22676 0.0
H491 H 0.78643 0.45028 0.30044 0.0
H492 H 0.64369 0.40276 0.22656 0.0
H493 H 0.63922 0.35208 0.24979 0.0
H494 H 0.68703 0.34888 0.27275 0.0
H495 H 0.74 0.39665 0.27354 0.0
C496 C 0.7833 0.45554 0.26241 0.0
C497 C 0.75433 0.45774 0.24908 0.0
C498 C 0.72364 0.42961 0.24909 0.0
C499 C 0.69602 0.43134 0.23488 0.0
C500 C 0.66559 0.40292 0.23615 0.0
C501 C 0.66261 0.37359 0.24965 0.0
C502 C 0.68961 0.37182 0.26271 0.0
C503 C 0.71981 0.39941 0.26278 0.0
H504 H 0.33958 0.79526 0.81724 0.0
C505 C 0.35138 0.80179 0.78138 0.0
H506 H 0.34822 0.7899 0.70552 0.0
H507 H 0.24258 0.64893 0.80039 0.0
H508 H 0.28745 0.65082 0.844 0.0
H509 H 0.34116 0.69925 0.84058 0.0
H510 H 0.35003 0.74625 0.79456 0.0
C511 C 0.33686 0.78325 0.74168 0.0
C512 C 0.30461 0.75387 0.74415 0.0
C513 C 0.30007 0.72633 0.77054 0.0
C514 C 0.26931 0.69808 0.77131 0.0
C515 C 0.26532 0.67109 0.79861 0.0
C516 C 0.29096 0.67177 0.82365 0.0
C517 C 0.32118 0.69902 0.82172 0.0
C518 C 0.32586 0.72598 0.79539 0.0
H519 H 0.20897 0.65511 0.67097 0.0
C520 C 0.19768 0.648 0.70714 0.0
H521 H 0.20056 0.65995 0.78286 0.0
H522 H 0.30538 0.80222 0.68928 0.0
H523 H 0.26058 0.80007 0.64471 0.0
H524 H 0.20725 0.75108 0.64609 0.0
H525 H 0.19846 0.70389 0.69175 0.0
C526 C 0.21136 0.66734 0.74643 0.0
C527 C 0.24346 0.69696 0.74419 0.0
C528 C 0.24808 0.72439 0.7175 0.0
C529 C 0.27875 0.7528 0.71727 0.0
C530 C 0.28268 0.77994 0.69052 0.0
C531 C 0.25712 0.77909 0.66492 0.0
C532 C 0.22711 0.7515 0.66566 0.0
C533 C 0.22245 0.72447 0.69178 0.0
H534 H 0.43537 0.93079 0.94649 0.0
C535 C 0.43751 0.94272 0.91128 0.0
H536 H 0.44837 0.9867 0.87715 0.0
H537 H 0.42314 0.03922 0.08061 0.0
H538 H 0.37611 0.03009 0.0338 0.0
H539 H 0.36417 0.00328 0.95263 0.0
H540 H 0.3992 0.98552 0.91752 0.0
C541 C 0.44569 0.97383 0.91151 0.0
C542 C 0.45383 0.99185 0.95916 0.0
C543 C 0.4332 0.00212 0.9791 0.0
C544 C 0.44002 0.01751 0.02607 0.0
C545 C 0.419 0.02745 0.04513 0.0
C546 C 0.39196 0.02232 0.01868 0.0
C547 C 0.38523 0.00722 0.97296 0.0
C548 C 0.4055 0.99714 0.95324 0.0
H549 H 0.50815 0.08372 0.06877 0.0
C550 C 0.49819 0.07085 0.10329 0.0
H551 H 0.46611 0.02566 0.13497 0.0
H552 H 0.50109 0.97949 0.92882 0.0
H553 H 0.54766 0.98827 0.97583 0.0
H554 H 0.55778 0.01214 0.05915 0.0
H555 H 0.52152 0.02762 0.09564 0.0
C556 C 0.47553 0.03971 0.10133 0.0
C557 C 0.46748 0.02264 0.05295 0.0
C558 C 0.4883 0.01261 0.03285 0.0
C559 C 0.48185 0.99783 0.98553 0.0
C560 C 0.50404 0.98965 0.96536 0.0
C561 C 0.53107 0.99481 0.99181 0.0
C562 C 0.53682 0.00831 0.03863 0.0
C563 C 0.51581 0.01718 0.05907 0.0
H564 H 0.50816 0.43968 0.46049 0.0
C565 C 0.49736 0.44137 0.42607 0.0
H566 H 0.46213 0.45006 0.39488 0.0
H567 H 0.41344 0.40858 0.62913 0.0
H568 H 0.39604 0.35417 0.60195 0.0
H569 H 0.40807 0.34378 0.51757 0.0
H570 H 0.43755 0.38771 0.45972 0.0
C571 C 0.47206 0.44599 0.4284 0.0
C572 C 0.46137 0.45153 0.47748 0.0
C573 C 0.44394 0.42565 0.51079 0.0
C574 C 0.43685 0.43163 0.55946 0.0
C575 C 0.41946 0.40533 0.59185 0.0
C576 C 0.40933 0.37402 0.5767 0.0
C577 C 0.41613 0.36817 0.52919 0.0
C578 C 0.43318 0.39358 0.49643 0.0
H579 H 0.40691 0.4831 0.60282 0.0
C580 C 0.42 0.48106 0.63413 0.0
H581 H 0.45492 0.4691 0.65613 0.0
H582 H 0.49389 0.50643 0.42237 0.0
H583 H 0.51228 0.56084 0.4499 0.0
H584 H 0.50206 0.57151 0.53521 0.0
H585 H 0.47334 0.52798 0.59323 0.0
C586 C 0.44029 0.46993 0.62617 0.0
C587 C 0.44707 0.46347 0.57481 0.0
C588 C 0.46454 0.48941 0.54141 0.0
C589 C 0.47114 0.48335 0.49252 0.0
C590 C 0.48838 0.50966 0.45997 0.0
C591 C 0.49911 0.54104 0.47529 0.0
C592 C 0.49332 0.54705 0.52326 0.0
C593 C 0.47646 0.5217 0.55614 0.0
H594 H 0.0142 0.4806 0.85341 0.0
C595 C 0.03956 0.48964 0.8602 0.0
H596 H 0.07522 0.49569 0.91069 0.0
H597 H 0.013 0.49896 0.11154 0.0
H598 H 0.06529 0.54701 0.11358 0.0
H599 H 0.10085 0.56378 0.04079 0.0
H600 H 0.08466 0.53258 0.96579 0.0
C601 C 0.04974 0.48682 0.90546 0.0
C602 C 0.02827 0.47571 0.95022 0.0
C603 C 0.03783 0.49502 0.99356 0.0
C604 C 0.01683 0.48603 0.03517 0.0
C605 C 0.02754 0.50511 0.07842 0.0
C606 C 0.05758 0.53273 0.08022 0.0
C607 C 0.07761 0.54213 0.03924 0.0
C608 C 0.06798 0.52374 0.99634 0.0
H609 H 0.95106 0.40469 0.08942 0.0
C610 C 0.94709 0.42431 0.09944 0.0
H611 H 0.95847 0.47186 0.0845 0.0
H612 H 0.00601 0.42773 0.88111 0.0
H613 H 0.95216 0.38183 0.87634 0.0
H614 H 0.91191 0.37244 0.94053 0.0
H615 H 0.92572 0.40772 0.0109 0.0
C616 C 0.96265 0.45236 0.07459 0.0
C617 C 0.98566 0.45864 0.03298 0.0
C618 C 0.97604 0.43936 0.98964 0.0
C619 C 0.99811 0.44678 0.94977 0.0
C620 C 0.9893 0.4248 0.91015 0.0
C621 C 0.9586 0.39813 0.90728 0.0
C622 C 0.93602 0.39271 0.94359 0.0
C623 C 0.94447 0.41301 0.98428 0.0
H624 H 0.54454 0.03711 0.39984 0.0
C625 C 0.56733 0.05821 0.40902 0.0
H626 H 0.6038 0.0805 0.46255 0.0
H627 H 0.51632 0.00902 0.64546 0.0
H628 H 0.52767 0.06366 0.65762 0.0
H629 H 0.55611 0.10511 0.5937 0.0
H630 H 0.57347 0.09229 0.51743 0.0
C631 C 0.58178 0.05893 0.45209 0.0
C632 C 0.56529 0.03362 0.49082 0.0
C633 C 0.55568 0.04165 0.53573 0.0
C634 C 0.53909 0.01769 0.57256 0.0
C635 C 0.52915 0.02627 0.61642 0.0
C636 C 0.53545 0.05755 0.62385 0.0
C637 C 0.55148 0.08089 0.58789 0.0
C638 C 0.56145 0.07318 0.54428 0.0
H639 H 0.54716 0.96864 0.65202 0.0
C640 C 0.52192 0.95412 0.64249 0.0
H641 H 0.48604 0.94462 0.58921 0.0
H642 H 0.58315 0.01072 0.41171 0.0
H643 H 0.57092 0.95578 0.39914 0.0
H644 H 0.54064 0.91397 0.4618 0.0
H645 H 0.52269 0.92691 0.53776 0.0
C646 C 0.511 0.95976 0.59984 0.0
C647 C 0.53199 0.98569 0.56448 0.0
C648 C 0.542 0.97776 0.52 0.0
C649 C 0.55897 0.00178 0.48338 0.0
C650 C 0.56947 0.99328 0.44009 0.0
C651 C 0.56277 0.96187 0.43255 0.0
C652 C 0.54575 0.93832 0.46786 0.0
C653 C 0.5355 0.94605 0.5112 0.0
H654 H 0.53412 0.55382 0.87828 0.0
C655 C 0.51545 0.5582 0.89219 0.0
H656 H 0.49019 0.56007 0.95463 0.0
H657 H 0.49644 0.46018 0.09145 0.0
H658 H 0.44176 0.43015 0.0617 0.0
H659 H 0.42348 0.45052 0.99243 0.0
H660 H 0.45974 0.5012 0.95288 0.0
C661 C 0.50924 0.55613 0.94116 0.0
C662 C 0.52248 0.54237 0.97763 0.0
C663 C 0.50127 0.51221 0.99965 0.0
C664 C 0.51212 0.50001 0.0386 0.0
C665 C 0.4899 0.47031 0.06086 0.0
C666 C 0.4583 0.45282 0.04432 0.0
C667 C 0.44799 0.46433 1.00545 0.0
C668 C 0.46906 0.49361 0.98327 0.0
H669 H 0.56964 0.53944 0.14728 0.0
C670 C 0.56582 0.5157 0.13887 0.0
H671 H 0.55197 0.47922 0.08572 0.0
H672 H 0.56909 0.6012 0.94471 0.0
H673 H 0.6248 0.63003 0.97099 0.0
H674 H 0.64468 0.60716 0.03425 0.0
H675 H 0.60892 0.55567 0.0724 0.0
C676 C 0.55558 0.50296 0.09357 0.0
C677 C 0.54449 0.51755 0.05489 0.0
C678 C 0.56603 0.54725 0.03172 0.0
C679 C 0.55485 0.55992 0.9937 0.0
C680 C 0.5765 0.59017 0.97278 0.0
C681 C 0.60851 0.60699 0.98759 0.0
C682 C 0.61969 0.59414 0.02331 0.0
C683 C 0.59884 0.56462 0.04516 0.0
H684 H 0.07251 0.58176 0.55161 0.0
C685 C 0.05865 0.57595 0.58568 0.0
H686 H 0.01196 0.55716 0.61543 0.0
H687 H 0.9702 0.58886 0.40271 0.0
H688 H 0.97731 0.63568 0.44767 0.0
H689 H 0.99989 0.64695 0.53197 0.0
H690 H 0.01552 0.61144 0.572 0.0
C691 C 0.02695 0.56492 0.58253 0.0
C692 C 0.01112 0.55716 0.533 0.0
C693 C 0.00182 0.57786 0.5103 0.0
C694 C 0.9886 0.57124 0.46168 0.0
C695 C 0.98001 0.59262 0.43968 0.0
C696 C 0.98406 0.61959 0.46502 0.0
C697 C 0.9968 0.62595 0.5125 0.0
C698 C 0.00568 0.60544 0.53504 0.0
H699 H 0.92354 0.51849 0.41115 0.0
C700 C 0.93851 0.52143 0.37919 0.0
H701 H 0.98564 0.53678 0.35491 0.0
H702 H 0.02325 0.51057 0.56759 0.0
H703 H 0.01551 0.46354 0.52331 0.0
H704 H 0.99359 0.45258 0.4386 0.0
H705 H 0.97933 0.48867 0.39774 0.0
C706 C 0.97049 0.53619 0.38518 0.0
C707 C 0.98464 0.54385 0.4359 0.0
C708 C 0.99342 0.5228 0.45902 0.0
C709 C 0.00633 0.52926 0.50771 0.0
C710 C 0.01399 0.50727 0.53031 0.0
C711 C 0.00948 0.48002 0.50541 0.0
C712 C 0.99713 0.47385 0.45775 0.0
C713 C 0.98909 0.49483 0.4347 0.0
loop_
_geom_bond_atom_site_label_1
_geom_bond_atom_site_label_2
_geom_bond_distance
_geom_bond_site_symmetry_2
_ccdc_geom_bond_type
Co0 O2 2.143 . S
Co0 O8 2.074 . S
Co0 O11 2.093 . S
Co0 O24 2.097 . S
Co0 N41 2.151 . S
Co0 N49 2.214 . S
Co1 O2 2.160 . S
Co1 O7 2.058 . S
Co1 O17 2.057 . S
Co1 O32 2.037 . S
Co1 N36 2.145 . S
Co1 N57 2.257 . S
O2 Co0 2.143 . S
O2 Co1 2.160 . S
C3 O4 1.278 . S
C3 O11 1.224 . S
O4 C3 1.278 . S
C5 O6 1.245 . S
C5 O17 1.232 . S
O6 C5 1.245 . S
O7 Co1 2.058 . S
O7 C33 1.269 . S
O8 Co0 2.074 . S
O8 C33 1.257 . S
H9 C34 0.930 . S
H10 C40 0.930 . S
O11 Co0 2.093 . S
O11 C3 1.224 . S
H12 C44 0.929 . S
H13 C46 0.930 . S
H14 C47 0.930 . S
H15 C45 0.929 . S
H16 C48 0.928 . S
O17 Co1 2.057 . S
O17 C5 1.232 . S
H18 C37 0.929 . S
H19 C38 0.929 . S
H20 C50 0.931 . S
H21 C42 0.929 . S
H22 C51 0.930 . S
H23 C43 0.931 . S
O24 Co0 2.097 . S
O24 C52 1.214 . S
H25 C53 0.929 . S
H26 C54 0.929 . S
H27 C55 0.930 . S
H28 C56 0.929 . S
H29 C58 0.930 . S
H30 C35 0.930 . S
H31 C39 0.930 . S
O32 Co1 2.037 . S
O32 C52 1.234 . S
C33 O7 1.269 . S
C33 O8 1.257 . S
C34 H9 0.930 . S
C34 C37 1.388 . S
C34 C39 1.418 . S
C35 H30 0.930 . S
C35 C38 1.404 . S
C35 C39 1.353 . S
N36 Co1 2.145 . S
N36 C37 1.397 . S
N36 C38 1.334 . S
C37 H18 0.929 . S
C37 C34 1.388 . S
C37 N36 1.397 . S
C38 H19 0.929 . S
C38 C35 1.404 . S
C38 N36 1.334 . S
C39 H31 0.930 . S
C39 C34 1.418 . S
C39 C35 1.353 . S
C40 H10 0.930 . S
C40 N41 1.330 . S
C40 C42 1.446 . S
N41 Co0 2.151 . S
N41 C40 1.330 . S
N41 C45 1.418 . S
C42 H21 0.929 . S
C42 C40 1.446 . S
C42 C43 1.332 . S
C43 H23 0.931 . S
C43 C42 1.332 . S
C43 C44 1.267 . S
C44 H12 0.929 . S
C44 C43 1.267 . S
C44 C45 1.251 . S
C45 H15 0.929 . S
C45 N41 1.418 . S
C45 C44 1.251 . S
C46 H13 0.930 . S
C46 C48 1.406 . S
C46 C51 1.261 . S
C47 H14 0.930 . S
C47 N49 1.325 . S
C47 C50 1.357 . S
C48 H16 0.928 . S
C48 C46 1.406 . S
C48 N49 1.261 . S
N49 Co0 2.214 . S
N49 C47 1.325 . S
N49 C48 1.261 . S
C50 H20 0.931 . S
C50 C47 1.357 . S
C50 C51 1.312 . S
C51 H22 0.930 . S
C51 C46 1.261 . S
C51 C50 1.312 . S
C52 O24 1.214 . S
C52 O32 1.234 . S
C53 H25 0.929 . S
C53 C56 1.391 . S
C53 C58 1.391 . S
C54 H26 0.929 . S
C54 C55 1.390 . S
C54 N57 1.391 . S
C55 H27 0.930 . S
C55 C54 1.390 . S
C55 C56 1.392 . S
C56 H28 0.929 . S
C56 C53 1.391 . S
C56 C55 1.392 . S
N57 Co1 2.257 . S
N57 C54 1.391 . S
N57 C58 1.388 . S
C58 H29 0.930 . S
C58 C53 1.391 . S
C58 N57 1.388 . S
Co59 O61 2.143 . S
Co59 O67 2.074 . S
Co59 O70 2.093 . S
Co59 O83 2.097 . S
Co59 N100 2.151 . S
Co59 N108 2.214 . S
Co60 O61 2.160 . S
Co60 O66 2.058 . S
Co60 O76 2.057 . S
Co60 O91 2.037 . S
Co60 N95 2.145 . S
Co60 N116 2.257 . S
O61 Co59 2.143 . S
O61 Co60 2.160 . S
C62 O63 1.278 . S
C62 O70 1.224 . S
O63 C62 1.278 . S
C64 O65 1.245 . S
C64 O76 1.232 . S
O65 C64 1.245 . S
O66 Co60 2.058 . S
O66 C92 1.269 . S
O67 Co59 2.074 . S
O67 C92 1.257 . S
H68 C93 0.930 . S
H69 C99 0.930 . S
O70 Co59 2.093 . S
O70 C62 1.224 . S
H71 C103 0.929 . S
H72 C105 0.930 . S
H73 C106 0.930 . S
H74 C104 0.929 . S
H75 C107 0.928 . S
O76 Co60 2.057 . S
O76 C64 1.232 . S
H77 C96 0.929 . S
H78 C97 0.929 . S
H79 C109 0.931 . S
H80 C101 0.929 . S
H81 C110 0.930 . S
H82 C102 0.931 . S
O83 Co59 2.097 . S
O83 C111 1.214 . S
H84 C112 0.929 . S
H85 C113 0.929 . S
H86 C114 0.930 . S
H87 C115 0.929 . S
H88 C117 0.930 . S
H89 C94 0.930 . S
H90 C98 0.930 . S
O91 Co60 2.037 . S
O91 C111 1.234 . S
C92 O66 1.269 . S
C92 O67 1.257 . S
C93 H68 0.930 . S
C93 C96 1.388 . S
C93 C98 1.418 . S
C94 H89 0.930 . S
C94 C97 1.404 . S
C94 C98 1.353 . S
N95 Co60 2.145 . S
N95 C96 1.397 . S
N95 C97 1.334 . S
C96 H77 0.929 . S
C96 C93 1.388 . S
C96 N95 1.397 . S
C97 H78 0.929 . S
C97 C94 1.404 . S
C97 N95 1.334 . S
C98 H90 0.930 . S
C98 C93 1.418 . S
C98 C94 1.353 . S
C99 H69 0.930 . S
C99 N100 1.330 . S
C99 C101 1.446 . S
N100 Co59 2.151 . S
N100 C99 1.330 . S
N100 C104 1.418 . S
C101 H80 0.929 . S
C101 C99 1.446 . S
C101 C102 1.332 . S
C102 H82 0.931 . S
C102 C101 1.332 . S
C102 C103 1.267 . S
C103 H71 0.929 . S
C103 C102 1.267 . S
C103 C104 1.251 . S
C104 H74 0.929 . S
C104 N100 1.418 . S
C104 C103 1.251 . S
C105 H72 0.930 . S
C105 C107 1.406 . S
C105 C110 1.261 . S
C106 H73 0.930 . S
C106 N108 1.325 . S
C106 C109 1.357 . S
C107 H75 0.928 . S
C107 C105 1.406 . S
C107 N108 1.261 . S
N108 Co59 2.214 . S
N108 C106 1.325 . S
N108 C107 1.261 . S
C109 H79 0.931 . S
C109 C106 1.357 . S
C109 C110 1.312 . S
C110 H81 0.930 . S
C110 C105 1.261 . S
C110 C109 1.312 . S
C111 O83 1.214 . S
C111 O91 1.234 . S
C112 H84 0.929 . S
C112 C115 1.391 . S
C112 C117 1.391 . S
C113 H85 0.929 . S
C113 C114 1.390 . S
C113 N116 1.391 . S
C114 H86 0.930 . S
C114 C113 1.390 . S
C114 C115 1.392 . S
C115 H87 0.929 . S
C115 C112 1.391 . S
C115 C114 1.392 . S
N116 Co60 2.257 . S
N116 C113 1.391 . S
N116 C117 1.388 . S
C117 H88 0.930 . S
C117 C112 1.391 . S
C117 N116 1.388 . S
Co118 O120 2.143 . S
Co118 O126 2.074 . S
Co118 O129 2.093 . S
Co118 O142 2.097 . S
Co118 N159 2.151 . S
Co118 N167 2.214 . S
Co119 O120 2.160 . S
Co119 O125 2.058 . S
Co119 O135 2.057 . S
Co119 O150 2.037 . S
Co119 N154 2.145 . S
Co119 N175 2.257 . S
O120 Co118 2.143 . S
O120 Co119 2.160 . S
C121 O122 1.278 . S
C121 O129 1.224 . S
O122 C121 1.278 . S
C123 O124 1.245 . S
C123 O135 1.232 . S
O124 C123 1.245 . S
O125 Co119 2.058 . S
O125 C151 1.269 . S
O126 Co118 2.074 . S
O126 C151 1.257 . S
H127 C152 0.930 . S
H128 C158 0.930 . S
O129 Co118 2.093 . S
O129 C121 1.224 . S
H130 C162 0.929 . S
H131 C164 0.930 . S
H132 C165 0.930 . S
H133 C163 0.929 . S
H134 C166 0.928 . S
O135 Co119 2.057 . S
O135 C123 1.232 . S
H136 C155 0.929 . S
H137 C156 0.929 . S
H138 C168 0.931 . S
H139 C160 0.929 . S
H140 C169 0.930 . S
H141 C161 0.931 . S
O142 Co118 2.097 . S
O142 C170 1.214 . S
H143 C171 0.929 . S
H144 C172 0.929 . S
H145 C173 0.930 . S
H146 C174 0.929 . S
H147 C176 0.930 . S
H148 C153 0.930 . S
H149 C157 0.930 . S
O150 Co119 2.037 . S
O150 C170 1.234 . S
C151 O125 1.269 . S
C151 O126 1.257 . S
C152 H127 0.930 . S
C152 C155 1.388 . S
C152 C157 1.418 . S
C153 H148 0.930 . S
C153 C156 1.404 . S
C153 C157 1.353 . S
N154 Co119 2.145 . S
N154 C155 1.397 . S
N154 C156 1.334 . S
C155 H136 0.929 . S
C155 C152 1.388 . S
C155 N154 1.397 . S
C156 H137 0.929 . S
C156 C153 1.404 . S
C156 N154 1.334 . S
C157 H149 0.930 . S
C157 C152 1.418 . S
C157 C153 1.353 . S
C158 H128 0.930 . S
C158 N159 1.330 . S
C158 C160 1.446 . S
N159 Co118 2.151 . S
N159 C158 1.330 . S
N159 C163 1.418 . S
C160 H139 0.929 . S
C160 C158 1.446 . S
C160 C161 1.332 . S
C161 H141 0.931 . S
C161 C160 1.332 . S
C161 C162 1.267 . S
C162 H130 0.929 . S
C162 C161 1.267 . S
C162 C163 1.251 . S
C163 H133 0.929 . S
C163 N159 1.418 . S
C163 C162 1.251 . S
C164 H131 0.930 . S
C164 C166 1.406 . S
C164 C169 1.261 . S
C165 H132 0.930 . S
C165 N167 1.325 . S
C165 C168 1.357 . S
C166 H134 0.928 . S
C166 C164 1.406 . S
C166 N167 1.261 . S
N167 Co118 2.214 . S
N167 C165 1.325 . S
N167 C166 1.261 . S
C168 H138 0.931 . S
C168 C165 1.357 . S
C168 C169 1.312 . S
C169 H140 0.930 . S
C169 C164 1.261 . S
C169 C168 1.312 . S
C170 O142 1.214 . S
C170 O150 1.234 . S
C171 H143 0.929 . S
C171 C174 1.391 . S
C171 C176 1.391 . S
C172 H144 0.929 . S
C172 C173 1.390 . S
C172 N175 1.391 . S
C173 H145 0.930 . S
C173 C172 1.390 . S
C173 C174 1.392 . S
C174 H146 0.929 . S
C174 C171 1.391 . S
C174 C173 1.392 . S
N175 Co119 2.257 . S
N175 C172 1.391 . S
N175 C176 1.388 . S
C176 H147 0.930 . S
C176 C171 1.391 . S
C176 N175 1.388 . S
Co177 O179 2.143 . S
Co177 O185 2.074 . S
Co177 O188 2.093 . S
Co177 O201 2.097 . S
Co177 N218 2.151 . S
Co177 N226 2.214 . S
Co178 O179 2.160 . S
Co178 O184 2.058 . S
Co178 O194 2.057 . S
Co178 O209 2.037 . S
Co178 N213 2.145 . S
Co178 N234 2.257 . S
O179 Co177 2.143 . S
O179 Co178 2.160 . S
C180 O181 1.278 . S
C180 O188 1.224 . S
O181 C180 1.278 . S
C182 O183 1.245 . S
C182 O194 1.232 . S
O183 C182 1.245 . S
O184 Co178 2.058 . S
O184 C210 1.269 . S
O185 Co177 2.074 . S
O185 C210 1.257 . S
H186 C211 0.930 . S
H187 C217 0.930 . S
O188 Co177 2.093 . S
O188 C180 1.224 . S
H189 C221 0.929 . S
H190 C223 0.930 . S
H191 C224 0.930 . S
H192 C222 0.929 . S
H193 C225 0.928 . S
O194 Co178 2.057 . S
O194 C182 1.232 . S
H195 C214 0.929 . S
H196 C215 0.929 . S
H197 C227 0.931 . S
H198 C219 0.929 . S
H199 C228 0.930 . S
H200 C220 0.931 . S
O201 Co177 2.097 . S
O201 C229 1.214 . S
H202 C230 0.929 . S
H203 C231 0.929 . S
H204 C232 0.930 . S
H205 C233 0.929 . S
H206 C235 0.930 . S
H207 C212 0.930 . S
H208 C216 0.930 . S
O209 Co178 2.037 . S
O209 C229 1.234 . S
C210 O184 1.269 . S
C210 O185 1.257 . S
C211 H186 0.930 . S
C211 C214 1.388 . S
C211 C216 1.418 . S
C212 H207 0.930 . S
C212 C215 1.404 . S
C212 C216 1.353 . S
N213 Co178 2.145 . S
N213 C214 1.397 . S
N213 C215 1.334 . S
C214 H195 0.929 . S
C214 C211 1.388 . S
C214 N213 1.397 . S
C215 H196 0.929 . S
C215 C212 1.404 . S
C215 N213 1.334 . S
C216 H208 0.930 . S
C216 C211 1.418 . S
C216 C212 1.353 . S
C217 H187 0.930 . S
C217 N218 1.330 . S
C217 C219 1.446 . S
N218 Co177 2.151 . S
N218 C217 1.330 . S
N218 C222 1.418 . S
C219 H198 0.929 . S
C219 C217 1.446 . S
C219 C220 1.332 . S
C220 H200 0.931 . S
C220 C219 1.332 . S
C220 C221 1.267 . S
C221 H189 0.929 . S
C221 C220 1.267 . S
C221 C222 1.251 . S
C222 H192 0.929 . S
C222 N218 1.418 . S
C222 C221 1.251 . S
C223 H190 0.930 . S
C223 C225 1.406 . S
C223 C228 1.261 . S
C224 H191 0.930 . S
C224 N226 1.325 . S
C224 C227 1.357 . S
C225 H193 0.928 . S
C225 C223 1.406 . S
C225 N226 1.261 . S
N226 Co177 2.214 . S
N226 C224 1.325 . S
N226 C225 1.261 . S
C227 H197 0.931 . S
C227 C224 1.357 . S
C227 C228 1.312 . S
C228 H199 0.930 . S
C228 C223 1.261 . S
C228 C227 1.312 . S
C229 O201 1.214 . S
C229 O209 1.234 . S
C230 H202 0.929 . S
C230 C233 1.391 . S
C230 C235 1.391 . S
C231 H203 0.929 . S
C231 C232 1.390 . S
C231 N234 1.391 . S
C232 H204 0.930 . S
C232 C231 1.390 . S
C232 C233 1.392 . S
C233 H205 0.929 . S
C233 C230 1.391 . S
C233 C232 1.392 . S
N234 Co178 2.257 . S
N234 C231 1.391 . S
N234 C235 1.388 . S
C235 H206 0.930 . S
C235 C230 1.391 . S
C235 N234 1.388 . S
Co236 O238 2.143 . S
Co236 O244 2.074 . S
Co236 O247 2.093 . S
Co236 O260 2.097 . S
Co236 N277 2.151 . S
Co236 N285 2.214 . S
Co237 O238 2.160 . S
Co237 O243 2.058 . S
Co237 O253 2.057 . S
Co237 O268 2.037 . S
Co237 N272 2.145 . S
Co237 N293 2.257 . S
O238 Co236 2.143 . S
O238 Co237 2.160 . S
C239 O240 1.278 . S
C239 O247 1.224 . S
O240 C239 1.278 . S
C241 O242 1.245 . S
C241 O253 1.232 . S
O242 C241 1.245 . S
O243 Co237 2.058 . S
O243 C269 1.269 . S
O244 Co236 2.074 . S
O244 C269 1.257 . S
H245 C270 0.930 . S
H246 C276 0.930 . S
O247 Co236 2.093 . S
O247 C239 1.224 . S
H248 C280 0.929 . S
H249 C282 0.930 . S
H250 C283 0.930 . S
H251 C281 0.929 . S
H252 C284 0.928 . S
O253 Co237 2.057 . S
O253 C241 1.232 . S
H254 C273 0.929 . S
H255 C274 0.929 . S
H256 C286 0.931 . S
H257 C278 0.929 . S
H258 C287 0.930 . S
H259 C279 0.931 . S
O260 Co236 2.097 . S
O260 C288 1.214 . S
H261 C289 0.929 . S
H262 C290 0.929 . S
H263 C291 0.930 . S
H264 C292 0.929 . S
H265 C294 0.930 . S
H266 C271 0.930 . S
H267 C275 0.930 . S
O268 Co237 2.037 . S
O268 C288 1.234 . S
C269 O243 1.269 . S
C269 O244 1.257 . S
C270 H245 0.930 . S
C270 C273 1.388 . S
C270 C275 1.418 . S
C271 H266 0.930 . S
C271 C274 1.404 . S
C271 C275 1.353 . S
N272 Co237 2.145 . S
N272 C273 1.397 . S
N272 C274 1.334 . S
C273 H254 0.929 . S
C273 C270 1.388 . S
C273 N272 1.397 . S
C274 H255 0.929 . S
C274 C271 1.404 . S
C274 N272 1.334 . S
C275 H267 0.930 . S
C275 C270 1.418 . S
C275 C271 1.353 . S
C276 H246 0.930 . S
C276 N277 1.330 . S
C276 C278 1.446 . S
N277 Co236 2.151 . S
N277 C276 1.330 . S
N277 C281 1.418 . S
C278 H257 0.929 . S
C278 C276 1.446 . S
C278 C279 1.332 . S
C279 H259 0.931 . S
C279 C278 1.332 . S
C279 C280 1.267 . S
C280 H248 0.929 . S
C280 C279 1.267 . S
C280 C281 1.251 . S
C281 H251 0.929 . S
C281 N277 1.418 . S
C281 C280 1.251 . S
C282 H249 0.930 . S
C282 C284 1.406 . S
C282 C287 1.261 . S
C283 H250 0.930 . S
C283 N285 1.325 . S
C283 C286 1.357 . S
C284 H252 0.928 . S
C284 C282 1.406 . S
C284 N285 1.261 . S
N285 Co236 2.214 . S
N285 C283 1.325 . S
N285 C284 1.261 . S
C286 H256 0.931 . S
C286 C283 1.357 . S
C286 C287 1.312 . S
C287 H258 0.930 . S
C287 C282 1.261 . S
C287 C286 1.312 . S
C288 O260 1.214 . S
C288 O268 1.234 . S
C289 H261 0.929 . S
C289 C292 1.391 . S
C289 C294 1.391 . S
C290 H262 0.929 . S
C290 C291 1.390 . S
C290 N293 1.391 . S
C291 H263 0.930 . S
C291 C290 1.390 . S
C291 C292 1.392 . S
C292 H264 0.929 . S
C292 C289 1.391 . S
C292 C291 1.392 . S
N293 Co237 2.257 . S
N293 C290 1.391 . S
N293 C294 1.388 . S
C294 H265 0.930 . S
C294 C289 1.391 . S
C294 N293 1.388 . S
Co295 O297 2.143 . S
Co295 O303 2.074 . S
Co295 O306 2.093 . S
Co295 O319 2.097 . S
Co295 N336 2.151 . S
Co295 N344 2.214 . S
Co296 O297 2.160 . S
Co296 O302 2.058 . S
Co296 O312 2.057 . S
Co296 O327 2.037 . S
Co296 N331 2.145 . S
Co296 N352 2.257 . S
O297 Co295 2.143 . S
O297 Co296 2.160 . S
C298 O299 1.278 . S
C298 O306 1.224 . S
O299 C298 1.278 . S
C300 O301 1.245 . S
C300 O312 1.232 . S
O301 C300 1.245 . S
O302 Co296 2.058 . S
O302 C328 1.269 . S
O303 Co295 2.074 . S
O303 C328 1.257 . S
H304 C329 0.930 . S
H305 C335 0.930 . S
O306 Co295 2.093 . S
O306 C298 1.224 . S
H307 C339 0.929 . S
H308 C341 0.930 . S
H309 C342 0.930 . S
H310 C340 0.929 . S
H311 C343 0.928 . S
O312 Co296 2.057 . S
O312 C300 1.232 . S
H313 C332 0.929 . S
H314 C333 0.929 . S
H315 C345 0.931 . S
H316 C337 0.929 . S
H317 C346 0.930 . S
H318 C338 0.931 . S
O319 Co295 2.097 . S
O319 C347 1.214 . S
H320 C348 0.929 . S
H321 C349 0.929 . S
H322 C350 0.930 . S
H323 C351 0.929 . S
H324 C353 0.930 . S
H325 C330 0.930 . S
H326 C334 0.930 . S
O327 Co296 2.037 . S
O327 C347 1.234 . S
C328 O302 1.269 . S
C328 O303 1.257 . S
C329 H304 0.930 . S
C329 C332 1.388 . S
C329 C334 1.418 . S
C330 H325 0.930 . S
C330 C333 1.404 . S
C330 C334 1.353 . S
N331 Co296 2.145 . S
N331 C332 1.397 . S
N331 C333 1.334 . S
C332 H313 0.929 . S
C332 C329 1.388 . S
C332 N331 1.397 . S
C333 H314 0.929 . S
C333 C330 1.404 . S
C333 N331 1.334 . S
C334 H326 0.930 . S
C334 C329 1.418 . S
C334 C330 1.353 . S
C335 H305 0.930 . S
C335 N336 1.330 . S
C335 C337 1.446 . S
N336 Co295 2.151 . S
N336 C335 1.330 . S
N336 C340 1.418 . S
C337 H316 0.929 . S
C337 C335 1.446 . S
C337 C338 1.332 . S
C338 H318 0.931 . S
C338 C337 1.332 . S
C338 C339 1.267 . S
C339 H307 0.929 . S
C339 C338 1.267 . S
C339 C340 1.251 . S
C340 H310 0.929 . S
C340 N336 1.418 . S
C340 C339 1.251 . S
C341 H308 0.930 . S
C341 C343 1.406 . S
C341 C346 1.261 . S
C342 H309 0.930 . S
C342 N344 1.325 . S
C342 C345 1.357 . S
C343 H311 0.928 . S
C343 C341 1.406 . S
C343 N344 1.261 . S
N344 Co295 2.214 . S
N344 C342 1.325 . S
N344 C343 1.261 . S
C345 H315 0.931 . S
C345 C342 1.357 . S
C345 C346 1.312 . S
C346 H317 0.930 . S
C346 C341 1.261 . S
C346 C345 1.312 . S
C347 O319 1.214 . S
C347 O327 1.234 . S
C348 H320 0.929 . S
C348 C351 1.391 . S
C348 C353 1.391 . S
C349 H321 0.929 . S
C349 C350 1.390 . S
C349 N352 1.391 . S
C350 H322 0.930 . S
C350 C349 1.390 . S
C350 C351 1.392 . S
C351 H323 0.929 . S
C351 C348 1.391 . S
C351 C350 1.392 . S
N352 Co296 2.257 . S
N352 C349 1.391 . S
N352 C353 1.388 . S
C353 H324 0.930 . S
C353 C348 1.391 . S
C353 N352 1.388 . S
H354 C355 0.951 . S
C355 H354 0.951 . S
C355 C361 1.265 . S
H356 C361 0.950 . S
H357 C365 0.949 . S
H358 C366 0.950 . S
H359 C367 0.951 . S
H360 C368 0.951 . S
C361 C355 1.265 . S
C361 H356 0.950 . S
C361 C362 1.478 . S
C362 C361 1.478 . S
C362 C363 1.397 . S
C362 C379 1.394 . S
C363 C362 1.397 . S
C363 C364 1.438 . S
C363 C368 1.429 . S
C364 C363 1.438 . S
C364 C365 1.428 . S
C364 C377 1.394 . S
C365 H357 0.949 . S
C365 C364 1.428 . S
C365 C366 1.345 . S
C366 H358 0.950 . S
C366 C365 1.345 . S
C366 C367 1.424 . S
C367 H359 0.951 . S
C367 C366 1.424 . S
C367 C368 1.347 . S
C368 H360 0.951 . S
C368 C363 1.429 . S
C368 C367 1.347 . S
H369 C370 0.951 . S
C370 H369 0.951 . S
C370 C376 1.265 . S
H371 C376 0.950 . S
H372 C380 0.949 . S
H373 C381 0.950 . S
H374 C382 0.951 . S
H375 C383 0.951 . S
C376 C370 1.265 . S
C376 H371 0.950 . S
C376 C377 1.478 . S
C377 C364 1.394 . S
C377 C376 1.478 . S
C377 C378 1.397 . S
C378 C377 1.397 . S
C378 C379 1.438 . S
C378 C383 1.429 . S
C379 C362 1.394 . S
C379 C378 1.438 . S
C379 C380 1.428 . S
C380 H372 0.949 . S
C380 C379 1.428 . S
C380 C381 1.345 . S
C381 H373 0.950 . S
C381 C380 1.345 . S
C381 C382 1.424 . S
C382 H374 0.951 . S
C382 C381 1.424 . S
C382 C383 1.347 . S
C383 H375 0.951 . S
C383 C378 1.429 . S
C383 C382 1.347 . S
H384 C385 0.951 . S
C385 H384 0.951 . S
C385 C391 1.265 . S
H386 C391 0.950 . S
H387 C395 0.949 . S
H388 C396 0.950 . S
H389 C397 0.951 . S
H390 C398 0.951 . S
C391 C385 1.265 . S
C391 H386 0.950 . S
C391 C392 1.478 . S
C392 C391 1.478 . S
C392 C393 1.397 . S
C392 C409 1.394 . S
C393 C392 1.397 . S
C393 C394 1.438 . S
C393 C398 1.429 . S
C394 C393 1.438 . S
C394 C395 1.428 . S
C394 C407 1.394 . S
C395 H387 0.949 . S
C395 C394 1.428 . S
C395 C396 1.345 . S
C396 H388 0.950 . S
C396 C395 1.345 . S
C396 C397 1.424 . S
C397 H389 0.951 . S
C397 C396 1.424 . S
C397 C398 1.347 . S
C398 H390 0.951 . S
C398 C393 1.429 . S
C398 C397 1.347 . S
H399 C400 0.951 . S
C400 H399 0.951 . S
C400 C406 1.265 . S
H401 C406 0.950 . S
H402 C410 0.949 . S
H403 C411 0.950 . S
H404 C412 0.951 . S
H405 C413 0.951 . S
C406 C400 1.265 . S
C406 H401 0.950 . S
C406 C407 1.478 . S
C407 C394 1.394 . S
C407 C406 1.478 . S
C407 C408 1.397 . S
C408 C407 1.397 . S
C408 C409 1.438 . S
C408 C413 1.429 . S
C409 C392 1.394 . S
C409 C408 1.438 . S
C409 C410 1.428 . S
C410 H402 0.949 . S
C410 C409 1.428 . S
C410 C411 1.345 . S
C411 H403 0.950 . S
C411 C410 1.345 . S
C411 C412 1.424 . S
C412 H404 0.951 . S
C412 C411 1.424 . S
C412 C413 1.347 . S
C413 H405 0.951 . S
C413 C408 1.429 . S
C413 C412 1.347 . S
H414 C415 0.951 . S
C415 H414 0.951 . S
C415 C421 1.265 . S
H416 C421 0.950 . S
H417 C425 0.949 . S
H418 C426 0.950 . S
H419 C427 0.951 . S
H420 C428 0.951 . S
C421 C415 1.265 . S
C421 H416 0.950 . S
C421 C422 1.478 . S
C422 C421 1.478 . S
C422 C423 1.397 . S
C422 C439 1.394 . S
C423 C422 1.397 . S
C423 C424 1.438 . S
C423 C428 1.429 . S
C424 C423 1.438 . S
C424 C425 1.428 . S
C424 C437 1.394 . S
C425 H417 0.949 . S
C425 C424 1.428 . S
C425 C426 1.345 . S
C426 H418 0.950 . S
C426 C425 1.345 . S
C426 C427 1.424 . S
C427 H419 0.951 . S
C427 C426 1.424 . S
C427 C428 1.347 . S
C428 H420 0.951 . S
C428 C423 1.429 . S
C428 C427 1.347 . S
H429 C430 0.951 . S
C430 H429 0.951 . S
C430 C436 1.265 . S
H431 C436 0.950 . S
H432 C440 0.949 . S
H433 C441 0.950 . S
H434 C442 0.951 . S
H435 C443 0.951 . S
C436 C430 1.265 . S
C436 H431 0.950 . S
C436 C437 1.478 . S
C437 C424 1.394 . S
C437 C436 1.478 . S
C437 C438 1.397 . S
C438 C437 1.397 . S
C438 C439 1.438 . S
C438 C443 1.429 . S
C439 C422 1.394 . S
C439 C438 1.438 . S
C439 C440 1.428 . S
C440 H432 0.949 . S
C440 C439 1.428 . S
C440 C441 1.345 . S
C441 H433 0.950 . S
C441 C440 1.345 . S
C441 C442 1.424 . S
C442 H434 0.951 . S
C442 C441 1.424 . S
C442 C443 1.347 . S
C443 H435 0.951 . S
C443 C438 1.429 . S
C443 C442 1.347 . S
H444 C445 0.951 . S
C445 H444 0.951 . S
C445 C451 1.265 . S
H446 C451 0.950 . S
H447 C455 0.949 . S
H448 C456 0.950 . S
H449 C457 0.951 . S
H450 C458 0.951 . S
C451 C445 1.265 . S
C451 H446 0.950 . S
C451 C452 1.478 . S
C452 C451 1.478 . S
C452 C453 1.397 . S
C452 C469 1.394 . S
C453 C452 1.397 . S
C453 C454 1.438 . S
C453 C458 1.429 . S
C454 C453 1.438 . S
C454 C455 1.428 . S
C454 C467 1.394 . S
C455 H447 0.949 . S
C455 C454 1.428 . S
C455 C456 1.345 . S
C456 H448 0.950 . S
C456 C455 1.345 . S
C456 C457 1.424 . S
C457 H449 0.951 . S
C457 C456 1.424 . S
C457 C458 1.347 . S
C458 H450 0.951 . S
C458 C453 1.429 . S
C458 C457 1.347 . S
H459 C460 0.951 . S
C460 H459 0.951 . S
C460 C466 1.265 . S
H461 C466 0.950 . S
H462 C470 0.949 . S
H463 C471 0.950 . S
H464 C472 0.951 . S
H465 C473 0.951 . S
C466 C460 1.265 . S
C466 H461 0.950 . S
C466 C467 1.478 . S
C467 C454 1.394 . S
C467 C466 1.478 . S
C467 C468 1.397 . S
C468 C467 1.397 . S
C468 C469 1.438 . S
C468 C473 1.429 . S
C469 C452 1.394 . S
C469 C468 1.438 . S
C469 C470 1.428 . S
C470 H462 0.949 . S
C470 C469 1.428 . S
C470 C471 1.345 . S
C471 H463 0.950 . S
C471 C470 1.345 . S
C471 C472 1.424 . S
C472 H464 0.951 . S
C472 C471 1.424 . S
C472 C473 1.347 . S
C473 H465 0.951 . S
C473 C468 1.429 . S
C473 C472 1.347 . S
H474 C475 0.951 . S
C475 H474 0.951 . S
C475 C481 1.265 . S
H476 C481 0.950 . S
H477 C485 0.949 . S
H478 C486 0.950 . S
H479 C487 0.951 . S
H480 C488 0.951 . S
C481 C475 1.265 . S
C481 H476 0.950 . S
C481 C482 1.478 . S
C482 C481 1.478 . S
C482 C483 1.397 . S
C482 C499 1.394 . S
C483 C482 1.397 . S
C483 C484 1.438 . S
C483 C488 1.429 . S
C484 C483 1.438 . S
C484 C485 1.428 . S
C484 C497 1.394 . S
C485 H477 0.949 . S
C485 C484 1.428 . S
C485 C486 1.345 . S
C486 H478 0.950 . S
C486 C485 1.345 . S
C486 C487 1.424 . S
C487 H479 0.951 . S
C487 C486 1.424 . S
C487 C488 1.347 . S
C488 H480 0.951 . S
C488 C483 1.429 . S
C488 C487 1.347 . S
H489 C490 0.951 . S
C490 H489 0.951 . S
C490 C496 1.265 . S
H491 C496 0.950 . S
H492 C500 0.949 . S
H493 C501 0.950 . S
H494 C502 0.951 . S
H495 C503 0.951 . S
C496 C490 1.265 . S
C496 H491 0.950 . S
C496 C497 1.478 . S
C497 C484 1.394 . S
C497 C496 1.478 . S
C497 C498 1.397 . S
C498 C497 1.397 . S
C498 C499 1.438 . S
C498 C503 1.429 . S
C499 C482 1.394 . S
C499 C498 1.438 . S
C499 C500 1.428 . S
C500 H492 0.949 . S
C500 C499 1.428 . S
C500 C501 1.345 . S
C501 H493 0.950 . S
C501 C500 1.345 . S
C501 C502 1.424 . S
C502 H494 0.951 . S
C502 C501 1.424 . S
C502 C503 1.347 . S
C503 H495 0.951 . S
C503 C498 1.429 . S
C503 C502 1.347 . S
H504 C505 0.951 . S
C505 H504 0.951 . S
C505 C511 1.265 . S
H506 C511 0.950 . S
H507 C515 0.949 . S
H508 C516 0.950 . S
H509 C517 0.951 . S
H510 C518 0.951 . S
C511 C505 1.265 . S
C511 H506 0.950 . S
C511 C512 1.478 . S
C512 C511 1.478 . S
C512 C513 1.397 . S
C512 C529 1.394 . S
C513 C512 1.397 . S
C513 C514 1.438 . S
C513 C518 1.429 . S
C514 C513 1.438 . S
C514 C515 1.428 . S
C514 C527 1.394 . S
C515 H507 0.949 . S
C515 C514 1.428 . S
C515 C516 1.345 . S
C516 H508 0.950 . S
C516 C515 1.345 . S
C516 C517 1.424 . S
C517 H509 0.951 . S
C517 C516 1.424 . S
C517 C518 1.347 . S
C518 H510 0.951 . S
C518 C513 1.429 . S
C518 C517 1.347 . S
H519 C520 0.951 . S
C520 H519 0.951 . S
C520 C526 1.265 . S
H521 C526 0.950 . S
H522 C530 0.949 . S
H523 C531 0.950 . S
H524 C532 0.951 . S
H525 C533 0.951 . S
C526 C520 1.265 . S
C526 H521 0.950 . S
C526 C527 1.478 . S
C527 C514 1.394 . S
C527 C526 1.478 . S
C527 C528 1.397 . S
C528 C527 1.397 . S
C528 C529 1.438 . S
C528 C533 1.429 . S
C529 C512 1.394 . S
C529 C528 1.438 . S
C529 C530 1.428 . S
C530 H522 0.949 . S
C530 C529 1.428 . S
C530 C531 1.345 . S
C531 H523 0.950 . S
C531 C530 1.345 . S
C531 C532 1.424 . S
C532 H524 0.951 . S
C532 C531 1.424 . S
C532 C533 1.347 . S
C533 H525 0.951 . S
C533 C528 1.429 . S
C533 C532 1.347 . S
H534 C535 0.951 . S
C535 H534 0.951 . S
C535 C541 1.265 . S
H536 C541 0.950 . S
H537 C545 0.949 . S
H538 C546 0.957 . S
H539 C547 0.951 . S
H540 C548 0.951 . S
C541 C535 1.265 . S
C541 H536 0.950 . S
C541 C542 1.478 . S
C542 C541 1.478 . S
C542 C543 1.397 1_565 S
C542 C559 1.394 . S
C543 C542 1.397 1_545 S
C543 C544 1.438 1_556 S
C543 C548 1.429 . S
C544 C543 1.438 1_554 S
C544 C545 1.428 . S
C544 C557 1.394 . S
C545 H537 0.949 . S
C545 C544 1.428 . S
C545 C546 1.359 . S
C546 H538 0.957 . S
C546 C545 1.359 . S
C546 C547 1.402 1_554 S
C547 H539 0.951 . S
C547 C546 1.402 1_556 S
C547 C548 1.347 . S
C548 H540 0.951 . S
C548 C543 1.429 . S
C548 C547 1.347 . S
H549 C550 0.951 . S
C550 H549 0.951 . S
C550 C556 1.265 . S
H551 C556 0.950 . S
H552 C560 0.949 . S
H553 C561 0.950 . S
H554 C562 0.951 . S
H555 C563 0.966 . S
C556 C550 1.265 . S
C556 H551 0.950 . S
C556 C557 1.478 . S
C557 C544 1.394 . S
C557 C556 1.478 . S
C557 C558 1.397 1_545 S
C558 C557 1.397 1_565 S
C558 C559 1.438 1_554 S
C558 C563 1.429 . S
C559 C542 1.394 . S
C559 C558 1.438 1_556 S
C559 C560 1.428 . S
C560 H552 0.949 . S
C560 C559 1.428 . S
C560 C561 1.345 . S
C561 H553 0.950 . S
C561 C560 1.345 . S
C561 C562 1.424 1_556 S
C562 H554 0.951 . S
C562 C561 1.424 1_554 S
C562 C563 1.347 . S
C563 H555 0.966 . S
C563 C558 1.429 . S
C563 C562 1.347 . S
H564 C565 0.951 . S
C565 H564 0.951 . S
C565 C571 1.265 . S
H566 C571 0.950 . S
H567 C575 0.949 . S
H568 C576 0.950 . S
H569 C577 0.951 . S
H570 C578 0.951 . S
C571 C565 1.265 . S
C571 H566 0.950 . S
C571 C572 1.478 . S
C572 C571 1.478 . S
C572 C573 1.397 . S
C572 C589 1.394 . S
C573 C572 1.397 . S
C573 C574 1.438 . S
C573 C578 1.429 . S
C574 C573 1.438 . S
C574 C575 1.428 . S
C574 C587 1.394 . S
C575 H567 0.949 . S
C575 C574 1.428 . S
C575 C576 1.345 . S
C576 H568 0.950 . S
C576 C575 1.345 . S
C576 C577 1.424 . S
C577 H569 0.951 . S
C577 C576 1.424 . S
C577 C578 1.347 . S
C578 H570 0.951 . S
C578 C573 1.429 . S
C578 C577 1.347 . S
H579 C580 0.951 . S
C580 H579 0.951 . S
C580 C586 1.265 . S
H581 C586 0.950 . S
H582 C590 0.949 . S
H583 C591 0.950 . S
H584 C592 0.951 . S
H585 C593 0.951 . S
C586 C580 1.265 . S
C586 H581 0.950 . S
C586 C587 1.478 . S
C587 C574 1.394 . S
C587 C586 1.478 . S
C587 C588 1.397 . S
C588 C587 1.397 . S
C588 C589 1.438 . S
C588 C593 1.429 . S
C589 C572 1.394 . S
C589 C588 1.438 . S
C589 C590 1.428 . S
C590 H582 0.949 . S
C590 C589 1.428 . S
C590 C591 1.345 . S
C591 H583 0.950 . S
C591 C590 1.345 . S
C591 C592 1.424 . S
C592 H584 0.951 . S
C592 C591 1.424 . S
C592 C593 1.347 . S
C593 H585 0.951 . S
C593 C588 1.429 . S
C593 C592 1.347 . S
H594 C595 0.951 . S
C595 H594 0.951 . S
C595 C601 1.265 . S
H596 C601 0.950 . S
H597 C605 0.949 . S
H598 C606 0.950 . S
H599 C607 0.951 . S
H600 C608 0.951 1_556 S
C601 C595 1.265 . S
C601 H596 0.950 . S
C601 C602 1.478 . S
C602 C601 1.478 . S
C602 C603 1.397 1_556 S
C602 C619 1.394 1_455 S
C603 C602 1.397 1_554 S
C603 C604 1.438 . S
C603 C608 1.429 . S
C604 C603 1.438 . S
C604 C605 1.428 . S
C604 C617 1.394 1_455 S
C605 H597 0.949 . S
C605 C604 1.428 . S
C605 C606 1.345 . S
C606 H598 0.950 . S
C606 C605 1.345 . S
C606 C607 1.424 . S
C607 H599 0.951 . S
C607 C606 1.424 . S
C607 C608 1.347 . S
C608 H600 0.951 1_554 S
C608 C603 1.429 . S
C608 C607 1.347 . S
H609 C610 0.951 . S
C610 H609 0.951 . S
C610 C616 1.265 . S
H611 C616 0.950 . S
H612 C620 0.949 . S
H613 C621 0.950 . S
H614 C622 0.951 . S
H615 C623 0.951 1_554 S
C616 C610 1.265 . S
C616 H611 0.950 . S
C616 C617 1.478 . S
C617 C604 1.394 1_655 S
C617 C616 1.478 . S
C617 C618 1.397 1_554 S
C618 C617 1.397 1_556 S
C618 C619 1.438 . S
C618 C623 1.429 . S
C619 C602 1.394 1_655 S
C619 C618 1.438 . S
C619 C620 1.428 . S
C620 H612 0.949 . S
C620 C619 1.428 . S
C620 C621 1.345 . S
C621 H613 0.950 . S
C621 C620 1.345 . S
C621 C622 1.424 . S
C622 H614 0.951 . S
C622 C621 1.424 . S
C622 C623 1.347 . S
C623 H615 0.951 1_556 S
C623 C618 1.429 . S
C623 C622 1.347 . S
H624 C625 0.951 . S
C625 H624 0.951 . S
C625 C631 1.265 . S
H626 C631 0.950 . S
H627 C635 0.949 . S
H628 C636 0.950 . S
H629 C637 0.951 . S
H630 C638 0.951 . S
C631 C625 1.265 . S
C631 H626 0.950 . S
C631 C632 1.478 . S
C632 C631 1.478 . S
C632 C633 1.397 . S
C632 C649 1.394 1_545 S
C633 C632 1.397 . S
C633 C634 1.438 . S
C633 C638 1.429 . S
C634 C633 1.438 . S
C634 C635 1.428 . S
C634 C647 1.394 1_545 S
C635 H627 0.949 . S
C635 C634 1.428 . S
C635 C636 1.345 . S
C636 H628 0.950 . S
C636 C635 1.345 . S
C636 C637 1.424 . S
C637 H629 0.951 . S
C637 C636 1.424 . S
C637 C638 1.347 . S
C638 H630 0.951 . S
C638 C633 1.429 . S
C638 C637 1.347 . S
H639 C640 0.951 . S
C640 H639 0.951 . S
C640 C646 1.265 . S
H641 C646 0.950 . S
H642 C650 0.949 . S
H643 C651 0.950 . S
H644 C652 0.951 . S
H645 C653 0.951 . S
C646 C640 1.265 . S
C646 H641 0.950 . S
C646 C647 1.478 . S
C647 C634 1.394 1_565 S
C647 C646 1.478 . S
C647 C648 1.397 . S
C648 C647 1.397 . S
C648 C649 1.438 . S
C648 C653 1.429 . S
C649 C632 1.394 1_565 S
C649 C648 1.438 . S
C649 C650 1.428 . S
C650 H642 0.949 . S
C650 C649 1.428 . S
C650 C651 1.345 . S
C651 H643 0.950 . S
C651 C650 1.345 . S
C651 C652 1.424 . S
C652 H644 0.951 . S
C652 C651 1.424 . S
C652 C653 1.347 . S
C653 H645 0.951 . S
C653 C648 1.429 . S
C653 C652 1.347 . S
H654 C655 0.951 . S
C655 H654 0.951 . S
C655 C661 1.265 . S
H656 C661 0.950 . S
H657 C665 0.949 . S
H658 C666 0.950 . S
H659 C667 0.951 . S
H660 C668 0.951 . S
C661 C655 1.265 . S
C661 H656 0.950 . S
C661 C662 1.478 . S
C662 C661 1.478 . S
C662 C663 1.397 . S
C662 C679 1.394 . S
C663 C662 1.397 . S
C663 C664 1.438 1_556 S
C663 C668 1.429 . S
C664 C663 1.438 1_554 S
C664 C665 1.428 . S
C664 C677 1.394 . S
C665 H657 0.949 . S
C665 C664 1.428 . S
C665 C666 1.345 . S
C666 H658 0.950 . S
C666 C665 1.345 . S
C666 C667 1.424 1_554 S
C667 H659 0.951 . S
C667 C666 1.424 1_556 S
C667 C668 1.347 . S
C668 H660 0.951 . S
C668 C663 1.429 . S
C668 C667 1.347 . S
H669 C670 0.951 . S
C670 H669 0.951 . S
C670 C676 1.265 . S
H671 C676 0.950 . S
H672 C680 0.949 . S
H673 C681 0.950 . S
H674 C682 0.951 . S
H675 C683 0.951 . S
C676 C670 1.265 . S
C676 H671 0.950 . S
C676 C677 1.478 . S
C677 C664 1.394 . S
C677 C676 1.478 . S
C677 C678 1.397 . S
C678 C677 1.397 . S
C678 C679 1.438 1_554 S
C678 C683 1.429 . S
C679 C662 1.394 . S
C679 C678 1.438 1_556 S
C679 C680 1.428 . S
C680 H672 0.949 . S
C680 C679 1.428 . S
C680 C681 1.345 . S
C681 H673 0.950 . S
C681 C680 1.345 . S
C681 C682 1.424 1_556 S
C682 H674 0.951 . S
C682 C681 1.424 1_554 S
C682 C683 1.347 . S
C683 H675 0.951 . S
C683 C678 1.429 . S
C683 C682 1.347 . S
H684 C685 0.951 . S
C685 H684 0.951 . S
C685 C691 1.265 . S
H686 C691 0.950 . S
H687 C695 0.949 . S
H688 C696 0.950 . S
H689 C697 0.951 . S
H690 C698 0.951 . S
C691 C685 1.265 . S
C691 H686 0.950 . S
C691 C692 1.478 . S
C692 C691 1.478 . S
C692 C693 1.397 . S
C692 C709 1.394 . S
C693 C692 1.397 . S
C693 C694 1.438 1_455 S
C693 C698 1.429 . S
C694 C693 1.438 1_655 S
C694 C695 1.428 . S
C694 C707 1.394 . S
C695 H687 0.949 . S
C695 C694 1.428 . S
C695 C696 1.345 . S
C696 H688 0.950 . S
C696 C695 1.345 . S
C696 C697 1.424 . S
C697 H689 0.951 . S
C697 C696 1.424 . S
C697 C698 1.347 1_655 S
C698 H690 0.951 . S
C698 C693 1.429 . S
C698 C697 1.347 1_455 S
H699 C700 0.951 . S
C700 H699 0.951 . S
C700 C706 1.265 . S
H701 C706 0.950 . S
H702 C710 0.949 . S
H703 C711 0.950 . S
H704 C712 0.951 . S
H705 C713 0.951 . S
C706 C700 1.265 . S
C706 H701 0.950 . S
C706 C707 1.478 . S
C707 C694 1.394 . S
C707 C706 1.478 . S
C707 C708 1.397 . S
C708 C707 1.397 . S
C708 C709 1.438 1_655 S
C708 C713 1.429 . S
C709 C692 1.394 . S
C709 C708 1.438 1_455 S
C709 C710 1.428 . S
C710 H702 0.949 . S
C710 C709 1.428 . S
C710 C711 1.345 . S
C711 H703 0.950 . S
C711 C710 1.345 . S
C711 C712 1.424 . S
C712 H704 0.951 . S
C712 C711 1.424 . S
C712 C713 1.347 1_455 S
C713 H705 0.951 . S
C713 C708 1.429 . S
C713 C712 1.347 1_655 S
C355 C52 1.268 . S
C370 C269 1.300 . S
C385 C111 1.231 . S
C400 C328 1.225 . S
C415 C33 1.305 . S
C430 C151 1.257 . S
C445 C210 1.313 . S
C460 C92 1.269 . S
C475 C288 1.230 . S
C490 C170 1.233 . S
C505 C229 1.296 . S
C520 C347 1.268 . S
C535 C180 1.449 . S
C550 C3 1.449 . S
C565 C241 1.467 . S
C580 C62 1.461 . S
C595 C300 1.477 . S
C610 C123 1.495 . S
C625 C5 1.469 . S
C640 C182 1.487 . S
C655 C64 1.496 . S
C670 C239 1.491 . S
C685 C298 1.448 . S
C700 C121 1.451 . S
