# Generated by pormake.
# Topology sxc, (6)-cn, num edge types: 1
# Building blocks:
#     Node 0, Type 0, BuildingBlock: GEDQOX_clean_sbu_0, # of connection points: 6
#     Node 1, Type 0, BuildingBlock: GEDQOX_clean_sbu_0, # of connection points: 6
#     Node 2, Type 0, BuildingBlock: GEDQOX_clean_sbu_0, # of connection points: 6
#     Edge 3, Type (0, 0), BuildingBlock: UVAHIK_clean_linker_0, # of connection points: 2
#     Edge 4, Type (0, 0), BuildingBlock: UVAHIK_clean_linker_0, # of connection points: 2
#     Edge 5, Type (0, 0), BuildingBlock: UVAHIK_clean_linker_0, # of connection points: 2
#     Edge 6, Type (0, 0), BuildingBlock: UVAHIK_clean_linker_0, # of connection points: 2
#     Edge 7, Type (0, 0), BuildingBlock: UVAHIK_clean_linker_0, # of connection points: 2
#     Edge 8, Type (0, 0), BuildingBlock: UVAHIK_clean_linker_0, # of connection points: 2
#     Edge 9, Type (0, 0), BuildingBlock: UVAHIK_clean_linker_0, # of connection points: 2
#     Edge 10, Type (0, 0), BuildingBlock: UVAHIK_clean_linker_0, # of connection points: 2
#     Edge 11, Type (0, 0), BuildingBlock: UVAHIK_clean_linker_0, # of connection points: 2
# Relax obj value: 0.207
# Max RMSD: 0.148
# Mean RMSD: 0.084
data_MOF--net-sxc--node1-GEDQOX_clean_sbu_0--edge1-UVAHIK_clean_linker_0
_symmetry_space_group_name_H-M    P1
_symmetry_Int_Tables_number       1
_symmetry_cell_setting            triclinic
loop_
_symmetry_equiv_pos_as_xyz
'x, y, z'
_cell_length_a     28.200184
_cell_length_b     22.940347
_cell_length_c     58.396673
_cell_angle_alpha  92.595849
_cell_angle_beta   90.126427
_cell_angle_gamma 133.30717
loop_
_atom_site_label
_atom_site_type_symbol
_atom_site_fract_x
_atom_site_fract_y
_atom_site_fract_z
_atom_type_partial_charge
Nd0 Nd 0.14181 0.17084 0.99192 0.0
Nd1 Nd 0.16344 1.07319 0.00145 0.0
C2 C 0.10699 0.23713 0.97259 0.0
C3 C 0.08756 0.27423 0.96179 0.0
C4 C 1.03635 0.23034 0.94505 0.0
C5 C 1.00771 0.25842 0.93875 0.0
C6 C 1.02998 0.33014 0.94929 0.0
C7 C 0.08651 0.37838 0.96386 0.0
C8 C 0.11504 0.35039 0.97011 0.0
C9 C 0.14778 0.1609 0.03869 0.0
C10 C 0.29473 0.26722 -0.00331 0.0
C11 C 0.19227 1.00102 0.02171 0.0
C12 C 0.14611 0.926 0.03292 0.0
C13 C 0.16396 0.91381 0.05321 0.0
C14 C 0.11766 0.84272 0.06421 0.0
C15 C 1.05308 0.78395 0.05506 0.0
C16 C 1.03523 0.7991 0.03533 0.0
C17 C 0.08123 0.86912 0.02439 0.0
C18 C 0.15122 1.07708 0.95492 0.0
C19 C 1.00894 0.97685 -0.00372 0.0
O20 O 0.09204 0.17309 0.96325 0.0
O21 O 0.13878 0.26439 -0.00746 0.0
O22 O 0.17587 0.22723 0.02911 0.0
O23 O 0.1172 0.10295 0.02378 0.0
O24 O 0.25337 0.27028 0.98799 0.0
O25 O 0.27129 0.19924 0.00488 0.0
O26 O 0.20176 1.06041 0.03187 0.0
O27 O 0.18329 0.99527 -0.0006 0.0
O28 O 0.12351 1.01182 0.96512 0.0
O29 O 0.18492 0.13749 0.96914 0.0
O30 O 1.05045 0.97264 0.00415 0.0
O31 O 1.03264 1.04613 0.98904 0.0
H32 H 1.01502 0.17159 0.93825 0.0
H33 H 0.96442 0.22057 0.9274 0.0
H34 H 0.10451 0.43358 0.97248 0.0
H35 H 0.15533 0.38558 0.98279 0.0
H36 H 0.21362 0.95853 0.06031 0.0
H37 H 0.13277 0.83237 0.07932 0.0
H38 H 0.98666 0.75465 0.0273 0.0
H39 H 1.06615 0.87762 0.00884 0.0
Nd40 Nd 1.0501 1.05109 0.32789 0.0
Nd41 Nd 0.17414 0.16102 0.33316 0.0
C42 C 0.92653 0.96297 0.31527 0.0
C43 C 0.88435 0.97886 0.31513 0.0
C44 C 0.90657 1.05083 0.30736 0.0
C45 C 0.86775 1.06771 0.30902 0.0
C46 C 0.80637 1.01312 0.31858 0.0
C47 C 0.78408 0.94095 0.32617 0.0
C48 C 0.82286 0.92399 0.32444 0.0
C49 C 0.08362 1.07562 0.37412 0.0
C50 C 0.11455 0.25025 0.3316 0.0
C51 C 0.29768 0.24907 0.34579 0.0
C52 C 0.33931 0.23241 0.34639 0.0
C53 C 0.31634 0.16042 0.35449 0.0
C54 C 0.35461 0.14266 0.35322 0.0
C55 C 0.41617 0.19639 0.34375 0.0
C56 C 0.43918 0.26856 0.33583 0.0
C57 C 0.40096 0.2864 0.33717 0.0
C58 C 0.14067 0.13865 0.28707 0.0
C59 C 0.10959 0.96178 0.32952 0.0
O60 O 0.97343 1.00099 0.30088 0.0
O61 O 0.94535 0.96212 0.33554 0.0
O62 O 1.04589 1.00629 0.36285 0.0
O63 O 0.10589 0.13078 0.36077 0.0
O64 O 1.06176 0.17057 0.32705 0.0
O65 O 0.16855 0.26415 0.33618 0.0
O66 O 0.25099 0.21265 0.36025 0.0
O67 O 0.27877 0.24855 0.32534 0.0
O68 O 0.17813 0.20734 0.29868 0.0
O69 O 0.11857 0.08264 0.30009 0.0
O70 O 0.16234 1.04144 0.33408 0.0
O71 O 1.05565 0.94793 0.32489 0.0
H72 H 0.95409 0.09447 0.30022 0.0
H73 H 0.88574 0.1234 0.30282 0.0
H74 H 0.73735 0.89846 0.33395 0.0
H75 H 0.80543 0.86875 0.3308 0.0
H76 H 0.26866 0.11744 0.36157 0.0
H77 H 0.33604 0.08697 0.35965 0.0
H78 H 0.48606 0.31038 0.32811 0.0
H79 H 0.41894 0.3416 0.33055 0.0
Nd80 Nd 0.11073 0.15183 0.6711 0.0
Nd81 Nd 0.12409 1.04728 0.65884 0.0
C82 C 0.07913 0.22666 0.6901 0.0
C83 C 1.01858 0.20791 0.68986 0.0
C84 C 1.0132 0.25386 0.70389 0.0
C85 C 0.95497 0.23576 0.70356 0.0
C86 C 0.90187 0.17133 0.68926 0.0
C87 C 0.90734 0.12474 0.67543 0.0
C88 C 0.96556 0.1431 0.67569 0.0
C89 C 0.11342 0.13689 0.62392 0.0
C90 C 0.97405 0.95701 0.66325 0.0
C91 C 0.15569 0.97216 0.64012 0.0
C92 C 0.21524 0.98882 0.64173 0.0
C93 C 0.2208 0.94151 0.62863 0.0
C94 C 0.27785 0.95713 0.63052 0.0
C95 C 0.32953 1.02038 0.64549 0.0
C96 C 0.32386 1.06827 0.6584 0.0
C97 C 0.26685 1.05242 0.65655 0.0
C98 C 0.12188 1.06268 0.70602 0.0
C99 C 0.26086 0.24229 0.66655 0.0
O100 O 0.07771 0.17687 0.70086 0.0
O101 O 0.10631 0.24408 0.67034 0.0
O102 O 0.14647 0.20466 0.63576 0.0
O103 O 0.08023 1.07922 0.6369 0.0
O104 O 1.00161 1.0276 0.67337 0.0
O105 O 1.01196 0.95048 0.65308 0.0
O106 O 0.16068 1.0252 0.62968 0.0
O107 O 0.1249 0.95187 0.65916 0.0
O108 O 0.08874 0.99488 0.6942 0.0
O109 O 0.155 0.12021 0.69299 0.0
O110 O 0.23337 0.17138 0.65671 0.0
O111 O 0.22292 0.24923 0.67647 0.0
H112 H 1.054 0.30373 0.71494 0.0
H113 H 0.9514 0.27204 0.71444 0.0
H114 H 0.8673 1.07557 0.66399 0.0
H115 H 0.96948 0.1075 0.66464 0.0
H116 H 0.18101 0.89243 0.61712 0.0
H117 H 0.28161 0.91989 0.62034 0.0
H118 H 0.36274 0.11653 0.67033 0.0
H119 H 0.26267 0.08893 0.66693 0.0
C120 C 1.01179 0.4219 0.95208 0.0
C121 C 0.98595 0.3434 0.95079 0.0
C122 C 0.97847 0.43861 0.96334 0.0
C123 C 0.8973 0.37559 0.01421 0.0
H124 H 0.89492 0.53997 0.00576 0.0
C125 C 0.94048 0.65245 0.05958 0.0
C126 C 1.00823 0.70078 0.06219 0.0
C127 C 0.89989 0.57148 0.05255 0.0
C128 C 0.89256 0.49158 0.00839 0.0
H129 H 0.9013 0.21928 0.95726 0.0
H130 H 0.84324 0.24888 0.97663 0.0
H131 H 0.89378 0.47165 0.9723 0.0
H132 H 0.08383 0.69893 0.06569 0.0
H133 H 1.01301 0.55809 0.05457 0.0
H134 H 0.9049 0.40315 0.05033 0.0
C135 C 0.88906 0.29711 0.96907 0.0
C136 C 0.89248 0.4532 0.98922 0.0
C137 C 0.92224 0.28035 0.95779 0.0
C138 C 1.03204 0.66368 0.06346 0.0
C139 C 0.99118 0.58241 0.057 0.0
C140 C 0.89838 0.41485 0.0334 0.0
C141 C 0.91892 0.37677 0.9732 0.0
C142 C 0.89785 0.39773 0.99208 0.0
C143 C 0.92676 0.53847 0.04908 0.0
C144 C 0.89929 0.47588 0.0306 0.0
H145 H 1.0608 0.47132 0.94679 0.0
H146 H 1.00273 0.50078 0.96659 0.0
H147 H 0.90288 0.33403 0.01678 0.0
H148 H 0.92068 0.67951 0.05925 0.0
H149 H 0.85007 0.53815 0.04676 0.0
C150 C 0.42672 0.09869 0.33436 0.0
C151 C 0.45589 0.17666 0.34172 0.0
C152 C 0.46456 1.08062 0.33193 0.0
C153 C 0.63276 0.17547 0.32397 0.0
H154 H 0.57078 0.97626 0.34525 0.0
C155 C 0.79489 0.10962 0.32858 0.0
C156 C 0.76611 1.03197 0.32101 0.0
C157 C 0.7567 0.12713 0.33118 0.0
C158 C 0.5883 1.03169 0.33903 0.0
H159 H 0.54687 0.29637 0.35279 0.0
H160 H 0.61308 0.26465 0.34858 0.0
H161 H 0.50406 1.00721 0.34974 0.0
H162 H 0.67537 0.91211 0.30989 0.0
H163 H 0.60853 0.94285 0.31442 0.0
H164 H 0.71699 0.19997 0.31327 0.0
C165 C 0.5612 0.21799 0.34435 0.0
C166 C 0.55022 1.04934 0.34159 0.0
C167 C 0.52338 0.23608 0.34677 0.0
C168 C 0.69858 0.97218 0.31605 0.0
C169 C 0.66041 0.9897 0.31865 0.0
C170 C 0.67083 0.15783 0.32142 0.0
C171 C 0.53209 0.14021 0.33685 0.0
C172 C 0.57221 0.12139 0.3341 0.0
C173 C 0.6892 1.06729 0.32624 0.0
C174 C 0.6489 0.08584 0.32894 0.0
H175 H 0.37488 1.05207 0.33003 0.0
H176 H 0.44118 1.02044 0.3258 0.0
H177 H 0.65029 0.23089 0.31774 0.0
H178 H 0.84673 0.15649 0.33287 0.0
H179 H 0.77984 0.18714 0.33739 0.0
C180 C 0.87229 0.80849 0.65367 0.0
C181 C 0.90062 0.8845 0.66337 0.0
C182 C 0.80438 0.74035 0.65401 0.0
C183 C 0.64839 0.66241 0.68172 0.0
H184 H 0.5644 0.49032 0.6344 0.0
C185 C 0.36257 0.39089 0.676 0.0
C186 C 0.33428 0.31477 0.66642 0.0
C187 C 0.43048 0.45901 0.67565 0.0
C188 C 0.58646 0.53677 0.64806 0.0
H189 H 0.87672 0.94614 0.68094 0.0
H190 H 0.75934 0.82919 0.68117 0.0
H191 H 0.68055 0.60787 0.6336 0.0
H192 H 0.35823 0.25287 0.64908 0.0
H193 H 0.47563 0.36987 0.64882 0.0
H194 H 0.55427 0.59131 0.69617 0.0
C195 C 0.78961 0.82111 0.6736 0.0
C196 C 0.6543 0.60544 0.6476 0.0
C197 C 0.85771 0.8893 0.67333 0.0
C198 C 0.37721 0.30982 0.65659 0.0
C199 C 0.44532 0.378 0.6563 0.0
C200 C 0.58055 0.59375 0.68217 0.0
C201 C 0.76102 0.74461 0.66399 0.0
C202 C 0.68725 0.67026 0.66442 0.0
C203 C 0.47385 0.45461 0.66579 0.0
C204 C 0.54761 0.52894 0.66536 0.0
H205 H 0.90284 0.80113 0.64587 0.0
H206 H 0.78629 0.68372 0.6467 0.0
H207 H 0.67043 0.70883 0.69538 0.0
H208 H 0.332 0.39836 0.6837 0.0
H209 H 0.44855 0.51573 0.68287 0.0
C210 C 0.84537 0.21842 0.68534 0.0
C211 C 0.84186 0.15504 0.68777 0.0
C212 C 0.78865 0.20257 0.68186 0.0
C213 C 0.622 1.04404 0.65912 0.0
H214 H 0.59689 0.17511 0.68907 0.0
C215 C 0.38255 0.96962 0.65165 0.0
C216 C 0.38824 1.03442 0.64852 0.0
C217 C 0.43791 0.98337 0.65634 0.0
C218 C 0.60375 0.13865 0.68046 0.0
H219 H 0.77735 1.0262 0.68944 0.0
H220 H 0.67764 0.99837 0.68344 0.0
H221 H 0.69412 0.20088 0.69897 0.0
H222 H 0.45531 0.16361 0.64693 0.0
H223 H 0.55258 0.18773 0.65506 0.0
H224 H 0.53178 0.98207 0.64053 0.0
C225 C 0.72425 1.05998 0.68389 0.0
C226 C 0.65903 0.15322 0.68614 0.0
C227 C 0.78098 1.07583 0.68735 0.0
C228 C 0.44995 0.11292 0.64957 0.0
C229 C 0.50529 0.12666 0.65425 0.0
C230 C 0.56669 1.02945 0.65345 0.0
C231 C 0.72786 0.12317 0.68079 0.0
C232 C 0.66853 0.10613 0.67546 0.0
C233 C 0.49946 1.06205 0.65795 0.0
C234 C 0.55746 1.07693 0.66401 0.0
H235 H 0.89198 0.27988 0.68528 0.0
H236 H 0.7925 0.2521 0.67921 0.0
H237 H 0.62901 1.00789 0.6504 0.0
H238 H 0.33522 0.90867 0.65122 0.0
H239 H 0.43241 0.93279 0.65938 0.0
C240 C 0.88968 0.90697 0.98818 0.0
C241 C 0.93536 0.90414 -0.00377 0.0
C242 C 0.82142 0.83928 0.98822 0.0
C243 C 0.69487 0.61223 -0.00531 0.0
H244 H 0.57576 0.64195 0.00021 0.0
C245 C 0.41345 0.33735 0.00512 0.0
C246 C 0.36788 0.33986 -0.00322 0.0
C247 C 0.48155 0.40505 0.00507 0.0
C248 C 0.60764 0.63152 -0.00167 0.0
H249 H 0.94212 0.8249 0.01088 0.0
H250 H 0.82498 0.70893 0.01135 0.0
H251 H 0.69246 0.75823 5e-05 0.0
H252 H 0.36062 0.41818 0.98173 0.0
H253 H 0.47773 0.53443 0.9813 0.0
H254 H 0.60999 0.4855 -0.00703 0.0
C255 C 0.84134 0.76294 0.00449 0.0
C256 C 0.67573 0.69937 -0.00176 0.0
C257 C 0.90951 0.83052 0.00439 0.0
C258 C 0.39339 0.413 0.98839 0.0
C259 C 0.46142 0.48066 0.98833 0.0
C260 C 0.62679 0.5444 -0.00521 0.0
C261 C 0.79532 0.76529 -0.00363 0.0
C262 C 0.72132 0.69168 -0.00357 0.0
C263 C 0.50743 0.47861 -0.00332 0.0
C264 C 0.58127 0.55215 -0.00339 0.0
H265 H 0.90664 0.96179 0.98169 0.0
H266 H 0.78919 0.84511 0.98146 0.0
H267 H 0.72666 0.60169 -0.0072 0.0
H268 H 0.39653 0.28274 0.01177 0.0
H269 H 0.51385 0.39957 0.01203 0.0
C270 C 1.05703 0.31203 0.32687 0.0
C271 C 0.11361 0.32327 0.33144 0.0
C272 C 1.05662 0.3767 0.32669 0.0
C273 C 0.16851 0.62189 0.33509 0.0
H274 H 1.00903 0.57127 0.32238 0.0
C275 C 0.16708 0.89996 0.33429 0.0
C276 C 0.11052 0.88874 0.3297 0.0
C277 C 0.16748 0.83528 0.33448 0.0
C278 C 1.05558 0.59008 0.32607 0.0
H279 H 0.21618 0.42741 0.33948 0.0
H280 H 0.2156 0.53434 0.33917 0.0
H281 H 1.00955 0.46449 0.32271 0.0
H282 H 1.00796 0.7846 0.32163 0.0
H283 H 1.00852 0.67766 0.32196 0.0
H284 H 0.21455 0.74748 0.33846 0.0
C285 C 0.1693 0.47348 0.33558 0.0
C286 C 1.05589 0.52533 0.32628 0.0
C287 C 0.16968 0.40883 0.33577 0.0
C288 C 1.05444 0.80318 0.32535 0.0
C289 C 1.05482 0.73852 0.32556 0.0
C290 C 0.16821 0.68664 0.33489 0.0
C291 C 0.11274 0.46244 0.33102 0.0
C292 C 0.11238 0.53621 0.3308 0.0
C293 C 0.11136 0.74954 0.33014 0.0
C294 C 0.11172 0.67576 0.33037 0.0
H295 H 1.01086 0.251 0.32327 0.0
H296 H 1.01004 0.35781 0.32297 0.0
H297 H 0.21507 0.64071 0.33879 0.0
H298 H 0.21325 0.96098 0.33789 0.0
H299 H 0.21405 0.85416 0.33821 0.0
C300 C 0.1664 0.20136 0.24962 0.0
C301 C 0.13554 0.13185 0.26146 0.0
C302 C 0.1653 0.19878 0.22564 0.0
C303 C 0.0807 1.06295 0.17255 0.0
H304 H 0.2383 0.24577 0.14487 0.0
C305 C 0.11058 1.07782 0.07312 0.0
C306 C 0.14455 0.15272 0.06397 0.0
C307 C 0.10818 1.07089 0.097 0.0
C308 C 0.19348 0.19453 0.1522 0.0
H309 H 0.07766 1.00407 0.2571 0.0
H310 H 0.07598 0.99933 0.21488 0.0
H311 H 0.23566 0.24047 0.18629 0.0
H312 H 0.2023 0.27881 0.07282 0.0
H313 H 0.19755 0.26695 0.11417 0.0
H314 H 1.03865 1.01731 0.13822 0.0
C315 C 0.10098 1.05615 0.22432 0.0
C316 C 0.19195 0.19142 0.17611 0.0
C317 C 0.10212 1.05881 0.24853 0.0
C318 C 0.17588 0.22029 0.07925 0.0
C319 C 0.17349 0.21343 0.10305 0.0
C320 C 0.08224 1.06607 0.1485 0.0
C321 C 0.13341 0.12653 0.21252 0.0
C322 C 0.1353 0.12625 0.18676 0.0
C323 C 0.13984 0.13874 0.11237 0.0
C324 C 0.13845 0.13256 0.13796 0.0
H325 H 0.19207 0.2586 0.25893 0.0
H326 H 0.18945 0.25394 0.21737 0.0
H327 H 1.03602 1.01197 0.18 0.0
H328 H 0.08609 1.02453 0.06181 0.0
H329 H 0.08239 1.0125 0.10338 0.0
C330 C 1.05711 1.01689 0.41243 0.0
C331 C 0.09002 0.08509 0.39971 0.0
C332 C 1.06096 1.02338 0.43647 0.0
C333 C 0.10277 0.15971 0.48693 0.0
H334 H 0.10367 1.01775 0.52009 0.0
C335 C 0.14607 0.19818 0.58582 0.0
C336 C 0.1105 0.12915 0.59833 0.0
C337 C 0.14396 0.19261 0.56178 0.0
C338 C 0.10264 1.05727 0.51118 0.0
H339 H 0.1537 0.21425 0.40246 0.0
H340 H 0.16139 0.22614 0.44456 0.0
H341 H 0.10152 1.01083 0.47831 0.0
H342 H 1.04532 0.99973 0.59523 0.0
H343 H 1.04106 0.9896 0.55315 0.0
H344 H 0.10401 0.20621 0.51983 0.0
C345 C 0.13154 0.16706 0.4359 0.0
C346 C 0.10145 1.05337 0.48708 0.0
C347 C 0.12753 0.16045 0.41172 0.0
C348 C 0.07312 1.05411 0.58612 0.0
C349 C 0.07108 1.04846 0.56197 0.0
C350 C 0.10407 0.16369 0.51103 0.0
C351 C 0.09818 0.09846 0.44868 0.0
C352 C 0.10131 0.10437 0.47452 0.0
C353 C 0.10627 0.11772 0.54939 0.0
C354 C 0.10402 0.11253 0.52357 0.0
H355 H 1.02762 0.95781 0.40379 0.0
H356 H 1.03356 0.9689 0.44548 0.0
H357 H 0.10155 0.19909 0.47804 0.0
H358 H 0.17581 0.25703 0.59465 0.0
H359 H 0.17275 0.24749 0.55289 0.0
C360 C 0.09158 1.00107 0.74395 0.0
C361 C 0.12649 1.07037 0.73162 0.0
C362 C 0.09577 1.00624 0.76797 0.0
C363 C 0.14222 0.13895 0.82001 0.0
H364 H 0.14678 0.99426 0.84915 0.0
C365 C 0.18297 0.15368 0.91933 0.0
C366 C 0.14921 1.08055 0.92955 0.0
C367 C 0.18114 0.15594 0.89532 0.0
C368 C 0.14464 1.03448 0.84142 0.0
H369 H 0.19229 0.19988 0.73505 0.0
H370 H 0.20005 0.20923 0.77721 0.0
H371 H 0.14254 0.99272 0.80759 0.0
H372 H 0.08577 0.95232 0.92255 0.0
H373 H 0.08171 0.9558 0.88105 0.0
H374 H 0.14409 0.18039 0.85404 0.0
C375 C 0.16912 0.15055 0.7682 0.0
C376 C 0.14231 1.03367 0.81743 0.0
C377 C 0.16503 0.14532 0.74402 0.0
C378 C 0.11286 1.00978 0.91526 0.0
C379 C 0.11093 1.01195 0.89136 0.0
C380 C 0.14443 0.13965 0.84412 0.0
C381 C 0.135 0.08098 0.78053 0.0
C382 C 0.14038 0.08523 0.80629 0.0
C383 C 0.14553 0.08509 0.88093 0.0
C384 C 0.14504 0.08679 0.85521 0.0
H385 H 1.06093 0.94229 0.73501 0.0
H386 H 1.06762 0.95113 0.77671 0.0
H387 H 0.14027 0.17914 0.81214 0.0
H388 H 0.21121 0.20929 0.92987 0.0
H389 H 0.20878 0.21351 0.88805 0.0
loop_
_geom_bond_atom_site_label_1
_geom_bond_atom_site_label_2
_geom_bond_distance
_geom_bond_site_symmetry_2
_ccdc_geom_bond_type
Nd0 C2 2.836 1_655 S
Nd0 O20 2.500 1_654 S
Nd0 O21 2.492 . S
Nd0 O22 2.487 . S
Nd0 O23 2.682 1_645 S
Nd0 O24 2.410 1_655 S
Nd0 O29 2.414 1_654 S
Nd0 O31 2.424 1_545 S
Nd1 C11 2.836 . S
Nd1 O23 2.414 . S
Nd1 O25 2.424 1_565 S
Nd1 O26 2.500 . S
Nd1 O27 2.492 1_554 S
Nd1 O28 2.487 1_554 S
Nd1 O29 2.682 1_564 S
Nd1 O30 2.410 1_454 S
C2 Nd0 2.836 1_455 S
C2 C3 1.498 . S
C2 O20 1.258 1_554 S
C2 O21 1.239 1_455 S
C3 C2 1.498 . S
C3 C4 1.366 1_554 S
C3 C8 1.407 . S
C4 C3 1.366 1_556 S
C4 C5 1.392 . S
C4 H32 0.930 . S
C5 C4 1.392 . S
C5 C6 1.398 1_556 S
C5 H33 0.929 . S
C6 C5 1.398 1_554 S
C6 C7 1.352 . S
C7 C6 1.352 . S
C7 C8 1.384 . S
C7 H34 0.930 . S
C8 C3 1.407 . S
C8 C7 1.384 . S
C8 H35 0.929 . S
C9 O22 1.246 . S
C9 O23 1.271 1_645 S
C10 O24 1.251 . S
C10 O25 1.268 . S
C11 Nd1 2.836 . S
C11 C12 1.498 1_455 S
C11 O26 1.258 . S
C11 O27 1.239 1_554 S
C12 C11 1.498 1_655 S
C12 C13 1.366 . S
C12 C17 1.407 1_554 S
C13 C12 1.366 . S
C13 C14 1.392 . S
C13 H36 0.930 . S
C14 C13 1.392 . S
C14 C15 1.398 . S
C14 H37 0.929 . S
C15 C14 1.398 . S
C15 C16 1.352 1_554 S
C16 C15 1.352 1_556 S
C16 C17 1.384 . S
C16 H38 0.930 . S
C17 C12 1.407 1_556 S
C17 C16 1.384 . S
C17 H39 0.931 . S
C18 O28 1.241 . S
C18 O29 1.273 1_565 S
C19 O30 1.251 1_554 S
C19 O31 1.268 . S
O20 Nd0 2.500 1_456 S
O20 C2 1.258 1_556 S
O21 Nd0 2.492 . S
O21 C2 1.239 1_655 S
O22 Nd0 2.487 . S
O22 C9 1.246 . S
O23 Nd0 2.682 1_465 S
O23 Nd1 2.414 . S
O23 C9 1.271 1_465 S
O24 Nd0 2.410 1_455 S
O24 C10 1.251 . S
O25 Nd1 2.424 1_545 S
O25 C10 1.268 . S
O26 Nd1 2.500 . S
O26 C11 1.258 . S
O27 Nd1 2.492 1_556 S
O27 C11 1.239 1_556 S
O28 Nd1 2.487 1_556 S
O28 C18 1.241 . S
O29 Nd0 2.414 1_456 S
O29 Nd1 2.682 1_546 S
O29 C18 1.273 1_545 S
O30 Nd1 2.410 1_656 S
O30 C19 1.251 1_556 S
O31 Nd0 2.424 1_565 S
O31 C19 1.268 . S
H32 C4 0.930 . S
H33 C5 0.929 . S
H34 C7 0.930 . S
H35 C8 0.929 . S
H36 C13 0.930 . S
H37 C14 0.929 . S
H38 C16 0.930 . S
H39 C17 0.931 . S
Nd40 C42 2.836 . S
Nd40 O60 2.500 . S
Nd40 O61 2.492 . S
Nd40 O62 2.487 . S
Nd40 O63 2.682 1_665 S
Nd40 O64 2.410 1_665 S
Nd40 O69 2.414 1_665 S
Nd40 O71 2.424 . S
Nd41 C51 2.836 . S
Nd41 O63 2.414 . S
Nd41 O65 2.424 . S
Nd41 O66 2.500 . S
Nd41 O67 2.492 . S
Nd41 O68 2.487 . S
Nd41 O69 2.682 . S
Nd41 O70 2.410 1_545 S
C42 Nd40 2.836 . S
C42 C43 1.498 . S
C42 O60 1.258 . S
C42 O61 1.239 . S
C43 C42 1.498 . S
C43 C44 1.366 1_565 S
C43 C48 1.407 . S
C44 C43 1.366 1_545 S
C44 C45 1.392 . S
C44 H72 0.930 . S
C45 C44 1.392 . S
C45 C46 1.398 1_545 S
C45 H73 0.929 . S
C46 C45 1.398 1_565 S
C46 C47 1.352 . S
C47 C46 1.352 . S
C47 C48 1.384 . S
C47 H74 0.930 . S
C48 C43 1.407 . S
C48 C47 1.384 . S
C48 H75 0.929 . S
C49 O62 1.241 1_445 S
C49 O63 1.273 . S
C50 O64 1.251 . S
C50 O65 1.268 . S
C51 Nd41 2.836 . S
C51 C52 1.498 . S
C51 O66 1.258 . S
C51 O67 1.239 . S
C52 C51 1.498 . S
C52 C53 1.366 . S
C52 C57 1.407 . S
C53 C52 1.366 . S
C53 C54 1.392 . S
C53 H76 0.930 . S
C54 C53 1.392 . S
C54 C55 1.398 . S
C54 H77 0.929 . S
C55 C54 1.398 . S
C55 C56 1.352 . S
C56 C55 1.352 . S
C56 C57 1.384 . S
C56 H78 0.930 . S
C57 C52 1.407 . S
C57 C56 1.384 . S
C57 H79 0.929 . S
C58 O68 1.241 . S
C58 O69 1.273 . S
C59 O70 1.251 . S
C59 O71 1.268 1_455 S
O60 Nd40 2.500 . S
O60 C42 1.258 . S
O61 Nd40 2.492 . S
O61 C42 1.239 . S
O62 Nd40 2.487 . S
O62 C49 1.241 1_665 S
O63 Nd40 2.682 1_445 S
O63 Nd41 2.414 . S
O63 C49 1.273 . S
O64 Nd40 2.410 1_445 S
O64 C50 1.251 . S
O65 Nd41 2.424 . S
O65 C50 1.268 . S
O66 Nd41 2.500 . S
O66 C51 1.258 . S
O67 Nd41 2.492 . S
O67 C51 1.239 . S
O68 Nd41 2.487 . S
O68 C58 1.241 . S
O69 Nd40 2.414 1_445 S
O69 Nd41 2.682 . S
O69 C58 1.273 . S
O70 Nd41 2.410 1_565 S
O70 C59 1.251 . S
O71 Nd40 2.424 . S
O71 C59 1.268 1_655 S
H72 C44 0.930 . S
H73 C45 0.929 . S
H74 C47 0.930 . S
H75 C48 0.929 . S
H76 C53 0.930 . S
H77 C54 0.929 . S
H78 C56 0.930 . S
H79 C57 0.929 . S
Nd80 C82 2.836 1_455 S
Nd80 O100 2.500 1_455 S
Nd80 O101 2.492 1_455 S
Nd80 O102 2.487 . S
Nd80 O103 2.682 . S
Nd80 O104 2.410 1_445 S
Nd80 O109 2.414 . S
Nd80 O111 2.424 . S
Nd81 C91 2.836 . S
Nd81 O103 2.414 1_565 S
Nd81 O105 2.424 1_455 S
Nd81 O106 2.500 . S
Nd81 O107 2.492 . S
Nd81 O108 2.487 . S
Nd81 O109 2.682 1_565 S
Nd81 O110 2.410 1_565 S
C82 Nd80 2.836 1_655 S
C82 C83 1.498 . S
C82 O100 1.258 . S
C82 O101 1.239 . S
C83 C82 1.498 . S
C83 C84 1.366 1_545 S
C83 C88 1.407 . S
C84 C83 1.366 1_565 S
C84 C85 1.392 . S
C84 H112 0.930 . S
C85 C84 1.392 . S
C85 C86 1.400 . S
C85 H113 0.929 . S
C86 C85 1.400 . S
C86 C87 1.352 1_565 S
C87 C86 1.352 1_545 S
C87 C88 1.384 . S
C87 H114 0.930 . S
C88 C83 1.407 . S
C88 C87 1.384 . S
C88 H115 0.929 . S
C89 O102 1.241 . S
C89 O103 1.273 . S
C90 O104 1.251 . S
C90 O105 1.268 . S
C91 Nd81 2.836 . S
C91 C92 1.498 1_565 S
C91 O106 1.258 . S
C91 O107 1.239 . S
C92 C91 1.498 1_545 S
C92 C93 1.366 . S
C92 C97 1.407 1_545 S
C93 C92 1.366 . S
C93 C94 1.392 . S
C93 H116 0.930 . S
C94 C93 1.392 . S
C94 C95 1.398 . S
C94 H117 0.929 . S
C95 C94 1.398 . S
C95 C96 1.352 . S
C96 C95 1.352 . S
C96 C97 1.384 1_545 S
C96 H118 0.930 1_545 S
C97 C92 1.407 1_565 S
C97 C96 1.384 1_565 S
C97 H119 0.929 . S
C98 O108 1.241 1_545 S
C98 O109 1.273 . S
C99 O110 1.251 . S
C99 O111 1.268 . S
O100 Nd80 2.500 1_655 S
O100 C82 1.258 . S
O101 Nd80 2.492 1_655 S
O101 C82 1.239 . S
O102 Nd80 2.487 . S
O102 C89 1.241 . S
O103 Nd80 2.682 . S
O103 Nd81 2.414 1_545 S
O103 C89 1.273 . S
O104 Nd80 2.410 1_665 S
O104 C90 1.251 . S
O105 Nd81 2.424 1_655 S
O105 C90 1.268 . S
O106 Nd81 2.500 . S
O106 C91 1.258 . S
O107 Nd81 2.492 . S
O107 C91 1.239 . S
O108 Nd81 2.487 . S
O108 C98 1.241 1_565 S
O109 Nd80 2.414 . S
O109 Nd81 2.682 1_545 S
O109 C98 1.273 . S
O110 Nd81 2.410 1_545 S
O110 C99 1.251 . S
O111 Nd80 2.424 . S
O111 C99 1.268 . S
H112 C84 0.930 . S
H113 C85 0.929 . S
H114 C87 0.930 . S
H115 C88 0.929 . S
H116 C93 0.930 . S
H117 C94 0.929 . S
H118 C96 0.930 1_565 S
H119 C97 0.929 . S
C120 C121 1.349 . S
C120 C122 1.327 . S
C120 H145 0.950 . S
C121 C120 1.349 . S
C121 C137 1.349 1_554 S
C122 C120 1.327 . S
C122 C141 1.429 . S
C122 H146 0.950 . S
C123 C140 1.574 . S
C123 C142 1.368 1_656 S
C123 H147 0.949 . S
H124 C128 0.949 . S
C125 C126 1.349 1_556 S
C125 C127 1.327 . S
C125 H148 0.950 . S
C126 C125 1.349 1_554 S
C126 C138 1.349 . S
C127 C125 1.327 . S
C127 C143 1.429 1_556 S
C127 H149 0.950 . S
C128 H124 0.949 . S
C128 C136 1.574 . S
C128 C144 1.368 1_455 S
H129 C137 0.950 . S
H130 C135 0.950 . S
H131 C136 0.949 . S
H132 C138 0.950 . S
H133 C139 0.950 1_455 S
H134 C140 0.949 . S
C135 H130 0.950 . S
C135 C137 1.327 . S
C135 C141 1.429 1_556 S
C136 C128 1.574 . S
C136 H131 0.949 . S
C136 C142 1.368 . S
C137 C121 1.349 1_556 S
C137 H129 0.950 . S
C137 C135 1.327 . S
C138 C126 1.349 . S
C138 H132 0.950 . S
C138 C139 1.327 . S
C139 H133 0.950 1_655 S
C139 C138 1.327 . S
C139 C143 1.429 . S
C140 C123 1.574 . S
C140 H134 0.949 . S
C140 C144 1.368 1_556 S
C141 C122 1.429 . S
C141 C135 1.429 1_554 S
C141 C142 1.523 . S
C142 C123 1.368 1_454 S
C142 C136 1.368 . S
C142 C141 1.523 . S
C143 C127 1.429 1_554 S
C143 C139 1.429 . S
C143 C144 1.523 . S
C144 C128 1.368 1_655 S
C144 C140 1.368 1_554 S
C144 C143 1.523 . S
H145 C120 0.950 . S
H146 C122 0.950 . S
H147 C123 0.949 . S
H148 C125 0.950 . S
H149 C127 0.950 . S
C150 C151 1.349 1_565 S
C150 C152 1.327 . S
C150 H175 0.950 . S
C151 C150 1.349 1_545 S
C151 C167 1.349 . S
C152 C150 1.327 . S
C152 C171 1.429 1_565 S
C152 H176 0.950 . S
C153 C170 1.574 . S
C153 C172 1.368 . S
C153 H177 0.949 . S
H154 C158 0.949 . S
C155 C156 1.349 1_545 S
C155 C157 1.327 . S
C155 H178 0.950 . S
C156 C155 1.349 1_565 S
C156 C168 1.349 . S
C157 C155 1.327 . S
C157 C173 1.429 . S
C157 H179 0.950 . S
C158 H154 0.949 . S
C158 C166 1.574 . S
C158 C174 1.368 1_565 S
H159 C167 0.950 . S
H160 C165 0.950 . S
H161 C166 0.949 . S
H162 C168 0.950 . S
H163 C169 0.950 . S
H164 C170 0.949 . S
C165 H160 0.950 . S
C165 C167 1.327 . S
C165 C171 1.429 . S
C166 C158 1.574 . S
C166 H161 0.949 . S
C166 C172 1.368 1_565 S
C167 C151 1.349 . S
C167 H159 0.950 . S
C167 C165 1.327 . S
C168 C156 1.349 . S
C168 H162 0.950 . S
C168 C169 1.327 . S
C169 H163 0.950 . S
C169 C168 1.327 . S
C169 C173 1.429 1_565 S
C170 C153 1.574 . S
C170 H164 0.949 . S
C170 C174 1.368 . S
C171 C152 1.429 1_545 S
C171 C165 1.429 . S
C171 C172 1.523 . S
C172 C153 1.368 . S
C172 C166 1.368 1_545 S
C172 C171 1.523 . S
C173 C157 1.429 . S
C173 C169 1.429 1_545 S
C173 C174 1.523 . S
C174 C158 1.368 1_545 S
C174 C170 1.368 . S
C174 C173 1.523 . S
H175 C150 0.950 . S
H176 C152 0.950 . S
H177 C153 0.949 . S
H178 C155 0.950 . S
H179 C157 0.950 . S
C180 C181 1.349 . S
C180 C182 1.327 . S
C180 H205 0.950 . S
C181 C180 1.349 . S
C181 C197 1.349 . S
C182 C180 1.327 . S
C182 C201 1.429 . S
C182 H206 0.950 . S
C183 C200 1.574 . S
C183 C202 1.368 . S
C183 H207 0.949 . S
H184 C188 0.949 . S
C185 C186 1.349 . S
C185 C187 1.327 . S
C185 H208 0.950 . S
C186 C185 1.349 . S
C186 C198 1.349 . S
C187 C185 1.327 . S
C187 C203 1.429 . S
C187 H209 0.950 . S
C188 H184 0.949 . S
C188 C196 1.574 . S
C188 C204 1.368 . S
H189 C197 0.950 . S
H190 C195 0.950 . S
H191 C196 0.949 . S
H192 C198 0.950 . S
H193 C199 0.950 . S
H194 C200 0.949 . S
C195 H190 0.950 . S
C195 C197 1.327 . S
C195 C201 1.429 . S
C196 C188 1.574 . S
C196 H191 0.949 . S
C196 C202 1.368 . S
C197 C181 1.349 . S
C197 H189 0.950 . S
C197 C195 1.327 . S
C198 C186 1.349 . S
C198 H192 0.950 . S
C198 C199 1.327 . S
C199 H193 0.950 . S
C199 C198 1.327 . S
C199 C203 1.429 . S
C200 C183 1.574 . S
C200 H194 0.949 . S
C200 C204 1.368 . S
C201 C182 1.429 . S
C201 C195 1.429 . S
C201 C202 1.523 . S
C202 C183 1.368 . S
C202 C196 1.368 . S
C202 C201 1.523 . S
C203 C187 1.429 . S
C203 C199 1.429 . S
C203 C204 1.523 . S
C204 C188 1.368 . S
C204 C200 1.368 . S
C204 C203 1.523 . S
H205 C180 0.950 . S
H206 C182 0.950 . S
H207 C183 0.949 . S
H208 C185 0.950 . S
H209 C187 0.950 . S
C210 C211 1.349 1_545 S
C210 C212 1.327 . S
C210 H235 0.950 . S
C211 C210 1.349 1_565 S
C211 C227 1.349 . S
C212 C210 1.327 . S
C212 C231 1.429 . S
C212 H236 0.950 . S
C213 C230 1.574 . S
C213 C232 1.368 1_565 S
C213 H237 0.949 . S
H214 C218 0.949 . S
C215 C216 1.349 . S
C215 C217 1.327 1_545 S
C215 H238 0.950 1_545 S
C216 C215 1.349 . S
C216 C228 1.349 . S
C217 C215 1.327 1_565 S
C217 C233 1.429 1_565 S
C217 H239 0.950 . S
C218 H214 0.949 . S
C218 C226 1.574 . S
C218 C234 1.368 . S
H219 C227 0.950 . S
H220 C225 0.950 . S
H221 C226 0.949 . S
H222 C228 0.950 . S
H223 C229 0.950 . S
H224 C230 0.949 . S
C225 H220 0.950 . S
C225 C227 1.327 . S
C225 C231 1.429 1_565 S
C226 C218 1.574 . S
C226 H221 0.949 . S
C226 C232 1.368 . S
C227 C211 1.349 . S
C227 H219 0.950 . S
C227 C225 1.327 . S
C228 C216 1.349 . S
C228 H222 0.950 . S
C228 C229 1.327 . S
C229 H223 0.950 . S
C229 C228 1.327 . S
C229 C233 1.429 . S
C230 C213 1.574 . S
C230 H224 0.949 . S
C230 C234 1.368 1_565 S
C231 C212 1.429 . S
C231 C225 1.429 1_545 S
C231 C232 1.523 . S
C232 C213 1.368 1_545 S
C232 C226 1.368 . S
C232 C231 1.523 . S
C233 C217 1.429 1_545 S
C233 C229 1.429 . S
C233 C234 1.523 . S
C234 C218 1.368 . S
C234 C230 1.368 1_545 S
C234 C233 1.523 . S
H235 C210 0.950 . S
H236 C212 0.950 . S
H237 C213 0.949 . S
H238 C215 0.950 1_565 S
H239 C217 0.950 . S
C240 C241 1.349 . S
C240 C242 1.327 . S
C240 H265 0.950 . S
C241 C240 1.349 . S
C241 C257 1.349 1_554 S
C242 C240 1.327 . S
C242 C261 1.429 . S
C242 H266 0.950 . S
C243 C260 1.574 . S
C243 C262 1.368 1_556 S
C243 H267 0.949 . S
H244 C248 0.949 . S
C245 C246 1.349 1_556 S
C245 C247 1.327 . S
C245 H268 0.950 . S
C246 C245 1.349 1_554 S
C246 C258 1.349 . S
C247 C245 1.327 . S
C247 C263 1.429 1_556 S
C247 H269 0.950 . S
C248 H244 0.949 . S
C248 C256 1.574 . S
C248 C264 1.368 . S
H249 C257 0.950 . S
H250 C255 0.950 . S
H251 C256 0.949 . S
H252 C258 0.950 . S
H253 C259 0.950 . S
H254 C260 0.949 . S
C255 H250 0.950 . S
C255 C257 1.327 . S
C255 C261 1.429 1_556 S
C256 C248 1.574 . S
C256 H251 0.949 . S
C256 C262 1.368 . S
C257 C241 1.349 1_556 S
C257 H249 0.950 . S
C257 C255 1.327 . S
C258 C246 1.349 . S
C258 H252 0.950 . S
C258 C259 1.327 . S
C259 H253 0.950 . S
C259 C258 1.327 . S
C259 C263 1.429 . S
C260 C243 1.574 . S
C260 H254 0.949 . S
C260 C264 1.368 1_556 S
C261 C242 1.429 . S
C261 C255 1.429 1_554 S
C261 C262 1.523 . S
C262 C243 1.368 1_554 S
C262 C256 1.368 . S
C262 C261 1.523 . S
C263 C247 1.429 1_554 S
C263 C259 1.429 . S
C263 C264 1.523 . S
C264 C248 1.368 . S
C264 C260 1.368 1_554 S
C264 C263 1.523 . S
H265 C240 0.950 . S
H266 C242 0.950 . S
H267 C243 0.949 . S
H268 C245 0.950 . S
H269 C247 0.950 . S
C270 C271 1.349 . S
C270 C272 1.327 . S
C270 H295 0.950 . S
C271 C270 1.349 . S
C271 C287 1.349 . S
C272 C270 1.327 . S
C272 C291 1.429 . S
C272 H296 0.950 1_455 S
C273 C290 1.574 . S
C273 C292 1.368 . S
C273 H297 0.949 . S
H274 C278 0.949 1_655 S
C275 C276 1.349 . S
C275 C277 1.327 . S
C275 H298 0.950 . S
C276 C275 1.349 . S
C276 C288 1.349 . S
C277 C275 1.327 . S
C277 C293 1.429 . S
C277 H299 0.950 . S
C278 H274 0.949 1_455 S
C278 C286 1.574 . S
C278 C294 1.368 . S
H279 C287 0.950 . S
H280 C285 0.950 . S
H281 C286 0.949 1_655 S
H282 C288 0.950 1_655 S
H283 C289 0.950 1_655 S
H284 C290 0.949 . S
C285 H280 0.950 . S
C285 C287 1.327 . S
C285 C291 1.429 . S
C286 C278 1.574 . S
C286 H281 0.949 1_455 S
C286 C292 1.368 . S
C287 C271 1.349 . S
C287 H279 0.950 . S
C287 C285 1.327 . S
C288 C276 1.349 . S
C288 H282 0.950 1_455 S
C288 C289 1.327 . S
C289 H283 0.950 1_455 S
C289 C288 1.327 . S
C289 C293 1.429 . S
C290 C273 1.574 . S
C290 H284 0.949 . S
C290 C294 1.368 . S
C291 C272 1.429 . S
C291 C285 1.429 . S
C291 C292 1.523 . S
C292 C273 1.368 . S
C292 C286 1.368 . S
C292 C291 1.523 . S
C293 C277 1.429 . S
C293 C289 1.429 . S
C293 C294 1.523 . S
C294 C278 1.368 . S
C294 C290 1.368 . S
C294 C293 1.523 . S
H295 C270 0.950 . S
H296 C272 0.950 1_655 S
H297 C273 0.949 . S
H298 C275 0.950 . S
H299 C277 0.950 . S
C300 C301 1.349 . S
C300 C302 1.327 . S
C300 H325 0.950 . S
C301 C300 1.349 . S
C301 C317 1.349 1_445 S
C302 C300 1.327 . S
C302 C321 1.429 . S
C302 H326 0.950 . S
C303 C320 1.574 . S
C303 C322 1.368 1_665 S
C303 H327 0.949 . S
H304 C308 0.949 . S
C305 C306 1.349 1_665 S
C305 C307 1.327 . S
C305 H328 0.950 . S
C306 C305 1.349 1_445 S
C306 C318 1.349 . S
C307 C305 1.327 . S
C307 C323 1.429 1_665 S
C307 H329 0.950 . S
C308 H304 0.949 . S
C308 C316 1.574 . S
C308 C324 1.368 . S
H309 C317 0.950 . S
H310 C315 0.950 . S
H311 C316 0.949 . S
H312 C318 0.950 . S
H313 C319 0.950 . S
H314 C320 0.949 . S
C315 H310 0.950 . S
C315 C317 1.327 . S
C315 C321 1.429 1_665 S
C316 C308 1.574 . S
C316 H311 0.949 . S
C316 C322 1.368 . S
C317 C301 1.349 1_665 S
C317 H309 0.950 . S
C317 C315 1.327 . S
C318 C306 1.349 . S
C318 H312 0.950 . S
C318 C319 1.327 . S
C319 H313 0.950 . S
C319 C318 1.327 . S
C319 C323 1.429 . S
C320 C303 1.574 . S
C320 H314 0.949 . S
C320 C324 1.368 1_665 S
C321 C302 1.429 . S
C321 C315 1.429 1_445 S
C321 C322 1.523 . S
C322 C303 1.368 1_445 S
C322 C316 1.368 . S
C322 C321 1.523 . S
C323 C307 1.429 1_445 S
C323 C319 1.429 . S
C323 C324 1.523 . S
C324 C308 1.368 . S
C324 C320 1.368 1_445 S
C324 C323 1.523 . S
H325 C300 0.950 . S
H326 C302 0.950 . S
H327 C303 0.949 . S
H328 C305 0.950 . S
H329 C307 0.950 . S
C330 C331 1.349 1_565 S
C330 C332 1.327 . S
C330 H355 0.950 . S
C331 C330 1.349 1_545 S
C331 C347 1.349 . S
C332 C330 1.327 . S
C332 C351 1.429 1_565 S
C332 H356 0.950 . S
C333 C350 1.574 . S
C333 C352 1.368 . S
C333 H357 0.949 . S
H334 C338 0.949 . S
C335 C336 1.349 . S
C335 C337 1.327 . S
C335 H358 0.950 . S
C336 C335 1.349 . S
C336 C348 1.349 1_545 S
C337 C335 1.327 . S
C337 C353 1.429 . S
C337 H359 0.950 . S
C338 H334 0.949 . S
C338 C346 1.574 . S
C338 C354 1.368 1_565 S
H339 C347 0.950 . S
H340 C345 0.950 . S
H341 C346 0.949 . S
H342 C348 0.950 . S
H343 C349 0.950 . S
H344 C350 0.949 . S
C345 H340 0.950 . S
C345 C347 1.327 . S
C345 C351 1.429 . S
C346 C338 1.574 . S
C346 H341 0.949 . S
C346 C352 1.368 1_565 S
C347 C331 1.349 . S
C347 H339 0.950 . S
C347 C345 1.327 . S
C348 C336 1.349 1_565 S
C348 H342 0.950 . S
C348 C349 1.327 . S
C349 H343 0.950 . S
C349 C348 1.327 . S
C349 C353 1.429 1_565 S
C350 C333 1.574 . S
C350 H344 0.949 . S
C350 C354 1.368 . S
C351 C332 1.429 1_545 S
C351 C345 1.429 . S
C351 C352 1.523 . S
C352 C333 1.368 . S
C352 C346 1.368 1_545 S
C352 C351 1.523 . S
C353 C337 1.429 . S
C353 C349 1.429 1_545 S
C353 C354 1.523 . S
C354 C338 1.368 1_545 S
C354 C350 1.368 . S
C354 C353 1.523 . S
H355 C330 0.950 . S
H356 C332 0.950 . S
H357 C333 0.949 . S
H358 C335 0.950 . S
H359 C337 0.950 . S
C360 C361 1.349 1_565 S
C360 C362 1.327 . S
C360 H385 0.950 . S
C361 C360 1.349 1_545 S
C361 C377 1.349 . S
C362 C360 1.327 . S
C362 C381 1.429 1_565 S
C362 H386 0.950 . S
C363 C380 1.574 . S
C363 C382 1.368 . S
C363 H387 0.949 . S
H364 C368 0.949 . S
C365 C366 1.349 . S
C365 C367 1.327 . S
C365 H388 0.950 . S
C366 C365 1.349 . S
C366 C378 1.349 1_545 S
C367 C365 1.327 . S
C367 C383 1.429 . S
C367 H389 0.950 . S
C368 H364 0.949 . S
C368 C376 1.574 . S
C368 C384 1.368 1_565 S
H369 C377 0.950 . S
H370 C375 0.950 . S
H371 C376 0.949 . S
H372 C378 0.950 . S
H373 C379 0.950 . S
H374 C380 0.949 . S
C375 H370 0.950 . S
C375 C377 1.327 . S
C375 C381 1.429 . S
C376 C368 1.574 . S
C376 H371 0.949 . S
C376 C382 1.368 1_565 S
C377 C361 1.349 . S
C377 H369 0.950 . S
C377 C375 1.327 . S
C378 C366 1.349 1_565 S
C378 H372 0.950 . S
C378 C379 1.327 . S
C379 H373 0.950 . S
C379 C378 1.327 . S
C379 C383 1.429 1_565 S
C380 C363 1.574 . S
C380 H374 0.949 . S
C380 C384 1.368 . S
C381 C362 1.429 1_545 S
C381 C375 1.429 . S
C381 C382 1.523 . S
C382 C363 1.368 . S
C382 C376 1.368 1_545 S
C382 C381 1.523 . S
C383 C367 1.429 . S
C383 C379 1.429 1_545 S
C383 C384 1.523 . S
C384 C368 1.368 1_545 S
C384 C380 1.368 . S
C384 C383 1.523 . S
H385 C360 0.950 . S
H386 C362 0.950 . S
H387 C363 0.949 . S
H388 C365 0.950 . S
H389 C367 0.950 . S
C121 C6 0.860 . S
C126 C15 0.860 . S
C151 C55 0.622 . S
C156 C46 0.622 . S
C181 C90 2.999 . S
C186 C99 2.999 . S
C211 C86 0.625 . S
C216 C95 0.626 . S
C241 C19 3.042 . S
C246 C10 3.042 . S
C271 C50 4.850 . S
C276 C59 4.850 . S
C301 C58 1.469 . S
C306 C9 1.475 1_455 S
C331 C49 1.447 . S
C336 C89 1.450 . S
C361 C98 1.462 . S
C366 C18 1.452 1_545 S
