# Generated by pormake.
# Topology acs-a, (4)-cn, num edge types: 1
# Building blocks:
#     Node 0, Type 0, BuildingBlock: KUFVIS_clean_sbu_0, # of connection points: 4
#     Node 1, Type 0, BuildingBlock: KUFVIS_clean_sbu_0, # of connection points: 4
#     Node 2, Type 0, BuildingBlock: KUFVIS_clean_sbu_0, # of connection points: 4
#     Node 3, Type 0, BuildingBlock: KUFVIS_clean_sbu_0, # of connection points: 4
#     Node 4, Type 0, BuildingBlock: KUFVIS_clean_sbu_0, # of connection points: 4
#     Node 5, Type 0, BuildingBlock: KUFVIS_clean_sbu_0, # of connection points: 4
#     Node 6, Type 0, BuildingBlock: KUFVIS_clean_sbu_0, # of connection points: 4
#     Node 7, Type 0, BuildingBlock: KUFVIS_clean_sbu_0, # of connection points: 4
#     Node 8, Type 0, BuildingBlock: KUFVIS_clean_sbu_0, # of connection points: 4
#     Node 9, Type 0, BuildingBlock: KUFVIS_clean_sbu_0, # of connection points: 4
#     Node 10, Type 0, BuildingBlock: KUFVIS_clean_sbu_0, # of connection points: 4
#     Node 11, Type 0, BuildingBlock: KUFVIS_clean_sbu_0, # of connection points: 4
#     Edge 12, Type (0, 0), BuildingBlock: EZIPEK_clean_linker_0, # of connection points: 2
#     Edge 13, Type (0, 0), BuildingBlock: EZIPEK_clean_linker_0, # of connection points: 2
#     Edge 14, Type (0, 0), BuildingBlock: EZIPEK_clean_linker_0, # of connection points: 2
#     Edge 15, Type (0, 0), BuildingBlock: EZIPEK_clean_linker_0, # of connection points: 2
#     Edge 16, Type (0, 0), BuildingBlock: EZIPEK_clean_linker_0, # of connection points: 2
#     Edge 17, Type (0, 0), BuildingBlock: EZIPEK_clean_linker_0, # of connection points: 2
#     Edge 18, Type (0, 0), BuildingBlock: EZIPEK_clean_linker_0, # of connection points: 2
#     Edge 19, Type (0, 0), BuildingBlock: EZIPEK_clean_linker_0, # of connection points: 2
#     Edge 20, Type (0, 0), BuildingBlock: EZIPEK_clean_linker_0, # of connection points: 2
#     Edge 21, Type (0, 0), BuildingBlock: EZIPEK_clean_linker_0, # of connection points: 2
#     Edge 22, Type (0, 0), BuildingBlock: EZIPEK_clean_linker_0, # of connection points: 2
#     Edge 23, Type (0, 0), BuildingBlock: EZIPEK_clean_linker_0, # of connection points: 2
#     Edge 24, Type (0, 0), BuildingBlock: EZIPEK_clean_linker_0, # of connection points: 2
#     Edge 25, Type (0, 0), BuildingBlock: EZIPEK_clean_linker_0, # of connection points: 2
#     Edge 26, Type (0, 0), BuildingBlock: EZIPEK_clean_linker_0, # of connection points: 2
#     Edge 27, Type (0, 0), BuildingBlock: EZIPEK_clean_linker_0, # of connection points: 2
#     Edge 28, Type (0, 0), BuildingBlock: EZIPEK_clean_linker_0, # of connection points: 2
#     Edge 29, Type (0, 0), BuildingBlock: EZIPEK_clean_linker_0, # of connection points: 2
#     Edge 30, Type (0, 0), BuildingBlock: EZIPEK_clean_linker_0, # of connection points: 2
#     Edge 31, Type (0, 0), BuildingBlock: EZIPEK_clean_linker_0, # of connection points: 2
#     Edge 32, Type (0, 0), BuildingBlock: EZIPEK_clean_linker_0, # of connection points: 2
#     Edge 33, Type (0, 0), BuildingBlock: EZIPEK_clean_linker_0, # of connection points: 2
#     Edge 34, Type (0, 0), BuildingBlock: EZIPEK_clean_linker_0, # of connection points: 2
#     Edge 35, Type (0, 0), BuildingBlock: EZIPEK_clean_linker_0, # of connection points: 2
# Relax obj value: 0.492
# Max RMSD: 0.252
# Mean RMSD: 0.228
data_MOF--net-acs-a--node1-KUFVIS_clean_sbu_0--edge1-EZIPEK_clean_linker_0
_symmetry_space_group_name_H-M    P1
_symmetry_Int_Tables_number       1
_symmetry_cell_setting            triclinic
loop_
_symmetry_equiv_pos_as_xyz
'x, y, z'
_cell_length_a     35.249308
_cell_length_b     35.257445
_cell_length_c     29.182273
_cell_angle_alpha  90.382922
_cell_angle_beta   89.89081
_cell_angle_gamma 114.02786
loop_
_atom_site_label
_atom_site_type_symbol
_atom_site_fract_x
_atom_site_fract_y
_atom_site_fract_z
_atom_type_partial_charge
Mn0 Mn 0.57883 0.1509 0.05694 0.0
Mn1 Mn 0.49679 0.15321 0.11363 0.0
C2 C 0.5458 0.19126 0.02606 0.0
C3 C 0.65188 0.18122 0.0506 0.0
C4 C 0.49357 0.0803 0.05466 0.0
O5 O 0.5838 0.12882 0.12013 0.0
O6 O 0.53455 0.14188 0.15725 0.0
C7 C 0.53836 0.22678 0.17333 0.0
N8 N 0.50957 0.20657 0.14066 0.0
C9 C 0.48167 0.25843 0.1442 0.0
C10 C 0.51113 0.27981 0.1777 0.0
C11 C 0.54 0.26419 0.19191 0.0
C12 C 0.48248 0.22199 0.12577 0.0
H13 H 0.5591 0.21388 0.18606 0.0
C14 C 0.56495 0.1309 0.15666 0.0
O15 O 0.63049 0.14369 0.03549 0.0
O16 O 0.63096 0.20006 0.06893 0.0
N17 N 0.45657 0.1638 0.07805 0.0
C18 C 0.42647 0.13664 0.05031 0.0
C19 C 0.39382 0.14646 0.03506 0.0
C20 C 0.39143 0.18338 0.0498 0.0
C21 C 0.42156 0.20998 0.07996 0.0
C22 C 0.45379 0.19887 0.09347 0.0
H23 H 0.42688 0.10736 0.04021 0.0
O24 O 0.56687 0.17641 0.00091 0.0
O25 O 0.54239 0.17944 0.06889 0.0
O26 O 0.53067 0.09646 0.03939 0.0
O27 O 0.47957 0.09728 0.08532 0.0
C28 C 0.42017 0.24654 0.09809 0.0
C29 C 0.45052 0.27103 0.12977 0.0
H30 H 0.51086 0.30741 0.19379 0.0
H31 H 0.56223 0.27988 0.21861 0.0
H32 H 0.37018 0.12528 0.01259 0.0
H33 H 0.36594 0.19064 0.03839 0.0
H34 H 0.39576 0.256 0.08803 0.0
H35 H 0.44905 0.29899 0.14362 0.0
Mn36 Mn 0.39545 0.56681 0.5786 0.0
Mn37 Mn 0.32501 0.47281 0.61067 0.0
C38 C 0.32696 0.54396 0.55437 0.0
C39 C 0.43026 0.6394 0.58533 0.0
C40 C 0.39931 0.4866 0.55148 0.0
O41 O 0.41874 0.554 0.63855 0.0
O42 O 0.36167 0.49905 0.66486 0.0
C43 C 0.26887 0.47824 0.68358 0.0
N44 N 0.27586 0.47327 0.63854 0.0
C45 C 0.20362 0.45466 0.62038 0.0
C46 C 0.19632 0.46174 0.66598 0.0
C47 C 0.22861 0.472 0.69785 0.0
C48 C 0.2438 0.45939 0.60832 0.0
H49 H 0.2934 0.48501 0.70845 0.0
C50 C 0.39841 0.5285 0.67031 0.0
O51 O 0.44662 0.61736 0.56432 0.0
O52 O 0.39481 0.61862 0.605 0.0
N53 N 0.28997 0.44895 0.55841 0.0
C54 C 0.29925 0.43406 0.51863 0.0
C55 C 0.26929 0.4189 0.48384 0.0
C56 C 0.22958 0.41804 0.49065 0.0
C57 C 0.22003 0.43164 0.53256 0.0
C58 C 0.25146 0.4471 0.56575 0.0
H59 H 0.32899 0.433 0.5135 0.0
O60 O 0.35664 0.57052 0.52984 0.0
O61 O 0.33928 0.52889 0.58848 0.0
O62 O 0.40862 0.52444 0.54272 0.0
O63 O 0.37223 0.46624 0.58102 0.0
C64 C 0.18024 0.42955 0.54303 0.0
C65 C 0.17194 0.44076 0.58709 0.0
H66 H 0.16553 0.45727 0.67739 0.0
H67 H 0.22147 0.47323 0.73339 0.0
H68 H 0.2767 0.40748 0.45204 0.0
H69 H 0.20638 0.40598 0.4639 0.0
H70 H 0.15547 0.4181 0.51793 0.0
H71 H 0.1408 0.43747 0.59543 0.0
Mn72 Mn 0.85142 0.37995 0.06867 0.0
Mn73 Mn 0.88515 0.31196 0.11303 0.0
C74 C 0.81639 0.30932 0.05106 0.0
C75 C 0.80787 0.41435 0.06533 0.0
C76 C 0.93382 0.37938 0.0453 0.0
O77 O 0.88383 0.40995 0.12656 0.0
O78 O 0.89419 0.35662 0.15926 0.0
C79 C 0.82697 0.27716 0.18997 0.0
N80 N 0.84325 0.27153 0.14947 0.0
C81 C 0.79593 0.19951 0.1465 0.0
C82 C 0.77852 0.20464 0.18805 0.0
C83 C 0.79366 0.24387 0.20942 0.0
C84 C 0.82852 0.23413 0.1282 0.0
H85 H 0.83862 0.30708 0.20673 0.0
C86 C 0.89436 0.39315 0.16056 0.0
O87 O 0.84306 0.42842 0.04396 0.0
O88 O 0.80085 0.38343 0.09278 0.0
N89 N 0.87546 0.26752 0.07025 0.0
C90 C 0.89402 0.26842 0.02904 0.0
C91 C 0.88145 0.23204 0.00239 0.0
C92 C 0.84986 0.19516 0.0183 0.0
C93 C 0.83139 0.19492 0.06095 0.0
C94 C 0.84562 0.23198 0.08628 0.0
H95 H 0.91815 0.29668 0.01651 0.0
O96 O 0.81595 0.33731 0.02271 0.0
O97 O 0.84086 0.32419 0.08596 0.0
O98 O 0.90382 0.38858 0.03505 0.0
O99 O 0.93111 0.35213 0.07524 0.0
C100 C 0.79898 0.15952 0.079 0.0
C101 C 0.7812 0.16183 0.12171 0.0
H102 H 0.75286 0.17896 0.20332 0.0
H103 H 0.77962 0.24848 0.2408 0.0
H104 H 0.89586 0.23249 0.96951 0.0
H105 H 0.83993 0.16728 0.99741 0.0
H106 H 0.78719 0.13047 0.06008 0.0
H107 H 0.75586 0.1346 0.13491 0.0
Mn108 Mn 0.41536 0.85224 0.56093 0.0
Mn109 Mn 0.50401 0.87496 0.6196 0.0
C110 C 0.44977 0.8077 0.55678 0.0
C111 C 0.34275 0.81479 0.55261 0.0
C112 C 0.49523 0.92642 0.54215 0.0
O113 O 0.41308 0.89048 0.614 0.0
O114 O 0.46512 0.88877 0.65873 0.0
C115 C 0.47578 0.81493 0.69404 0.0
N116 N 0.50131 0.83085 0.65783 0.0
C117 C 0.52722 0.77759 0.66142 0.0
C118 C 0.50068 0.76018 0.69824 0.0
C119 C 0.47423 0.77859 0.71401 0.0
C120 C 0.52614 0.813 0.64154 0.0
H121 H 0.4549 0.82841 0.70575 0.0
C122 C 0.43218 0.89543 0.65274 0.0
O123 O 0.36301 0.84784 0.52872 0.0
O124 O 0.3638 0.80673 0.5843 0.0
N125 N 0.54208 0.86112 0.58306 0.0
C126 C 0.56336 0.87995 0.54464 0.0
C127 C 0.59032 0.86484 0.52358 0.0
C128 C 0.59541 0.83065 0.54228 0.0
C129 C 0.57387 0.81227 0.58224 0.0
C130 C 0.54803 0.82925 0.60219 0.0
H131 H 0.56023 0.9065 0.53017 0.0
O132 O 0.42603 0.80889 0.52341 0.0
O133 O 0.45564 0.83565 0.58782 0.0
O134 O 0.46022 0.90073 0.527 0.0
O135 O 0.51072 0.92168 0.57988 0.0
C136 C 0.57638 0.77727 0.60258 0.0
C137 C 0.55273 0.75967 0.64196 0.0
H138 H 0.49907 0.73137 0.71239 0.0
H139 H 0.4511 0.7644 0.73998 0.0
H140 H 0.60705 0.87946 0.49291 0.0
H141 H 0.61581 0.8187 0.52562 0.0
H142 H 0.59575 0.76318 0.58772 0.0
H143 H 0.5539 0.73202 0.65662 0.0
Mn144 Mn 0.59502 0.429 0.04969 0.0
Mn145 Mn 0.65617 0.50444 0.12019 0.0
C146 C 0.66719 0.45663 0.04075 0.0
C147 C 0.56274 0.35752 0.0317 0.0
C148 C 0.59336 0.51224 0.05537 0.0
O149 O 0.55913 0.42492 0.10682 0.0
O150 O 0.61 0.46474 0.15604 0.0
C151 C 0.68951 0.45436 0.17273 0.0
N152 N 0.69658 0.48924 0.14836 0.0
C153 C 0.76979 0.50588 0.14469 0.0
C154 C 0.76289 0.46898 0.16787 0.0
C155 C 0.7222 0.44237 0.18022 0.0
C156 C 0.73511 0.51387 0.13367 0.0
H157 H 0.65847 0.43403 0.18284 0.0
C158 C 0.57259 0.43925 0.147 0.0
O159 O 0.54926 0.38333 0.01374 0.0
O160 O 0.5919 0.37286 0.06142 0.0
N161 N 0.70201 0.54406 0.08688 0.0
C162 C 0.70176 0.57043 0.05308 0.0
C163 C 0.73954 0.59854 0.03472 0.0
C164 C 0.77718 0.59865 0.05053 0.0
C165 C 0.77665 0.57031 0.08424 0.0
C166 C 0.73811 0.54391 0.10226 0.0
H167 H 0.67303 0.56974 0.03973 0.0
O168 O 0.64301 0.43876 0.00651 0.0
O169 O 0.64768 0.46061 0.07641 0.0
O170 O 0.59045 0.48179 0.02973 0.0
O171 O 0.61498 0.52179 0.09195 0.0
C172 C 0.81262 0.56582 0.09902 0.0
C173 C 0.8091 0.53301 0.1285 0.0
H174 H 0.78825 0.45992 0.17463 0.0
H175 H 0.7157 0.41226 0.19484 0.0
H176 H 0.73961 0.61965 0.00793 0.0
H177 H 0.8062 0.61972 0.03554 0.0
H178 H 0.84285 0.58581 0.08572 0.0
H179 H 0.83657 0.52791 0.13697 0.0
Mn180 Mn 0.14486 0.62164 0.56185 0.0
Mn181 Mn 0.12147 0.69834 0.60279 0.0
C182 C 0.17672 0.68722 0.5278 0.0
C183 C 0.18602 0.58469 0.55965 0.0
C184 C 0.0612 0.62428 0.54908 0.0
O185 O 0.1244 0.60174 0.62648 0.0
O186 O 0.1162 0.65825 0.65278 0.0
C187 C 0.19248 0.73682 0.66638 0.0
N188 N 0.16876 0.74041 0.63135 0.0
C189 C 0.2085 0.81423 0.62784 0.0
C190 C 0.23324 0.81138 0.66406 0.0
C191 C 0.22565 0.77235 0.68284 0.0
C192 C 0.17702 0.77746 0.61162 0.0
H193 H 0.18606 0.7071 0.68162 0.0
C194 C 0.11629 0.62229 0.65837 0.0
O195 O 0.14787 0.56786 0.54539 0.0
O196 O 0.19943 0.62191 0.57667 0.0
N197 N 0.1253 0.74015 0.55936 0.0
C198 C 0.0995 0.73735 0.52354 0.0
C199 C 0.10306 0.77357 0.50067 0.0
C200 C 0.13238 0.81242 0.51553 0.0
C201 C 0.15804 0.81467 0.55303 0.0
C202 C 0.15325 0.77747 0.57426 0.0
H203 H 0.076 0.7078 0.51281 0.0
O204 O 0.16718 0.65333 0.5043 0.0
O205 O 0.16084 0.68106 0.56903 0.0
O206 O 0.08698 0.60869 0.54068 0.0
O207 O 0.07002 0.65727 0.57294 0.0
C208 C 0.18829 0.85231 0.57006 0.0
C209 C 0.21388 0.85205 0.60709 0.0
H210 H 0.25814 0.83893 0.67764 0.0
H211 H 0.24481 0.76975 0.71055 0.0
H212 H 0.08289 0.7716 0.47201 0.0
H213 H 0.13492 0.8403 0.49791 0.0
H214 H 0.19274 0.88156 0.55432 0.0
H215 H 0.23771 0.88106 0.61918 0.0
Mn216 Mn 0.84932 0.42492 0.44044 0.0
Mn217 Mn 0.85477 0.50953 0.38082 0.0
C218 C 0.79741 0.45034 0.44758 0.0
C219 C 0.82528 0.35198 0.44921 0.0
C220 C 0.91376 0.51322 0.45718 0.0
O221 O 0.88603 0.42658 0.38415 0.0
O222 O 0.87911 0.47798 0.34315 0.0
C223 C 0.79799 0.46793 0.30562 0.0
N224 N 0.80907 0.49595 0.3404 0.0
C225 C 0.74976 0.51177 0.32774 0.0
C226 C 0.73807 0.48344 0.29108 0.0
C227 C 0.76156 0.46026 0.28156 0.0
C228 C 0.78562 0.5167 0.35212 0.0
H229 H 0.8157 0.45008 0.29776 0.0
C230 C 0.8898 0.44743 0.34698 0.0
O231 O 0.85794 0.37724 0.47092 0.0
O232 O 0.80814 0.36889 0.42185 0.0
N233 N 0.83023 0.54088 0.41429 0.0
C234 C 0.84327 0.5631 0.45389 0.0
C235 C 0.82114 0.58523 0.47161 0.0
C236 C 0.78595 0.58444 0.44838 0.0
C237 C 0.77331 0.56166 0.4075 0.0
C238 C 0.79685 0.54058 0.3913 0.0
H239 H 0.87033 0.56401 0.47186 0.0
O240 O 0.80385 0.42904 0.48056 0.0
O241 O 0.82384 0.45891 0.41468 0.0
O242 O 0.89562 0.47566 0.47044 0.0
O243 O 0.9026 0.52759 0.42229 0.0
C244 C 0.73774 0.55822 0.38274 0.0
C245 C 0.72588 0.53316 0.34293 0.0
H246 H 0.70968 0.47717 0.27224 0.0
H247 H 0.75111 0.43485 0.25775 0.0
H248 H 0.83111 0.60274 0.50319 0.0
H249 H 0.76871 0.60117 0.46242 0.0
H250 H 0.71878 0.57398 0.39457 0.0
H251 H 0.6978 0.52972 0.32494 0.0
Mn252 Mn 0.37046 0.85078 0.92862 0.0
Mn253 Mn 0.30253 0.89078 0.89725 0.0
C254 C 0.30141 0.81936 0.953 0.0
C255 C 0.4038 0.80587 0.9242 0.0
C256 C 0.37711 0.93522 0.95885 0.0
O257 O 0.39495 0.88164 0.86856 0.0
O258 O 0.3418 0.89787 0.84511 0.0
C259 C 0.25451 0.84153 0.81828 0.0
N260 N 0.25627 0.85242 0.86333 0.0
C261 C 0.18285 0.81186 0.87232 0.0
C262 C 0.18057 0.79927 0.82642 0.0
C263 C 0.21647 0.81453 0.79923 0.0
C264 C 0.22149 0.83937 0.88928 0.0
H265 H 0.28173 0.85399 0.79687 0.0
C266 C 0.3766 0.89474 0.83838 0.0
O267 O 0.42119 0.84197 0.94347 0.0
O268 O 0.36849 0.79728 0.90374 0.0
N269 N 0.26358 0.88247 0.94617 0.0
C270 C 0.27033 0.89973 0.98893 0.0
C271 C 0.23733 0.88836 0.02027 0.0
C272 C 0.19767 0.8595 0.0073 0.0
C273 C 0.19133 0.84249 0.96298 0.0
C274 C 0.22545 0.85492 0.93326 0.0
H275 H 0.30062 0.92199 -0.00081 0.0
O276 O 0.33097 0.8169 0.97779 0.0
O277 O 0.31429 0.84408 0.91837 0.0
O278 O 0.38625 0.90441 0.96398 0.0
O279 O 0.34781 0.93432 0.93272 0.0
C280 C 0.15246 0.81376 0.9471 0.0
C281 C 0.14817 0.79863 0.9017 0.0
H282 H 0.15134 0.77831 0.81154 0.0
H283 H 0.21462 0.80587 0.76356 0.0
H284 H 0.24247 0.90176 0.05437 0.0
H285 H 0.1723 0.85076 0.03159 0.0
H286 H 0.12556 0.80344 0.96936 0.0
H287 H 0.118 0.77702 0.88964 0.0
Mn288 Mn 0.55472 0.39178 0.42277 0.0
Mn289 Mn 0.46122 0.32101 0.38764 0.0
C290 C 0.53193 0.32334 0.44543 0.0
C291 C 0.6274 0.42598 0.41842 0.0
C292 C 0.47374 0.39472 0.44884 0.0
O293 O 0.54357 0.41492 0.36176 0.0
O294 O 0.48693 0.35925 0.33576 0.0
C295 C 0.47643 0.27251 0.3119 0.0
N296 N 0.46516 0.27493 0.35616 0.0
C297 C 0.45101 0.20297 0.36874 0.0
C298 C 0.46359 0.20009 0.3238 0.0
C299 C 0.47575 0.23481 0.29512 0.0
C300 C 0.4515 0.24107 0.38338 0.0
H301 H 0.48589 0.29915 0.28966 0.0
C302 C 0.51772 0.39455 0.32996 0.0
O303 O 0.60538 0.4427 0.43884 0.0
O304 O 0.60669 0.39025 0.3991 0.0
N305 N 0.4374 0.28281 0.43683 0.0
C306 C 0.42206 0.28931 0.47762 0.0
C307 C 0.4073 0.25718 0.50984 0.0
C308 C 0.40788 0.21847 0.49957 0.0
C309 C 0.42268 0.21209 0.45688 0.0
C310 C 0.43719 0.24536 0.42621 0.0
H311 H 0.42074 0.31863 0.48548 0.0
O312 O 0.55695 0.35285 0.47173 0.0
O313 O 0.51683 0.33596 0.41172 0.0
O314 O 0.512 0.4053 0.45633 0.0
O315 O 0.45248 0.36615 0.4207 0.0
C316 C 0.4233 0.1739 0.44343 0.0
C317 C 0.4373 0.16929 0.39931 0.0
H318 H 0.46346 0.17121 0.31072 0.0
H319 H 0.48433 0.23224 0.26015 0.0
H320 H 0.39538 0.26221 0.54246 0.0
H321 H 0.39642 0.19372 0.52449 0.0
H322 H 0.41251 0.14769 0.46652 0.0
H323 H 0.43699 0.13958 0.38905 0.0
Mn324 Mn 0.14214 0.58717 0.94194 0.0
Mn325 Mn 0.1404 0.50319 0.88402 0.0
C326 C 0.1899 0.55829 0.96015 0.0
C327 C 0.16829 0.65997 0.94833 0.0
C328 C 0.07504 0.5004 0.95269 0.0
O329 O 0.11084 0.58667 0.88213 0.0
O330 O 0.12371 0.53779 0.84255 0.0
C331 C 0.2051 0.54027 0.81375 0.0
N332 N 0.19027 0.51488 0.85047 0.0
C333 C 0.24259 0.48809 0.84204 0.0
C334 C 0.25806 0.51373 0.80401 0.0
C335 C 0.23973 0.54041 0.79014 0.0
C336 C 0.20849 0.48993 0.86479 0.0
H337 H 0.18992 0.55932 0.80173 0.0
C338 C 0.11203 0.56767 0.84482 0.0
O339 O 0.13373 0.63674 0.96834 0.0
O340 O 0.18555 0.64099 0.92372 0.0
N341 N 0.15724 0.46786 0.92079 0.0
C342 C 0.13679 0.44294 0.95631 0.0
C343 C 0.1518 0.41496 0.97461 0.0
C344 C 0.18703 0.41199 0.95543 0.0
C345 C 0.20683 0.43698 0.91804 0.0
C346 C 0.19092 0.46491 0.90183 0.0
H347 H 0.10893 0.44383 0.97033 0.0
O348 O 0.18149 0.58153 0.98962 0.0
O349 O 0.16913 0.55207 0.92238 0.0
O350 O 0.09288 0.53747 0.96809 0.0
O351 O 0.08806 0.48675 0.91825 0.0
C352 C 0.24126 0.43469 0.89567 0.0
C353 C 0.25891 0.45998 0.85745 0.0
H354 H 0.28248 0.51153 0.78354 0.0
H355 H 0.25135 0.55983 0.76032 0.0
H356 H 0.13592 0.39535 0.00305 0.0
H357 H 0.19829 0.39008 0.96931 0.0
H358 H 0.2541 0.41325 0.90725 0.0
H359 H 0.28474 0.45716 0.83996 0.0
Mn360 Mn 0.63096 0.15573 0.4341 0.0
Mn361 Mn 0.69528 0.11479 0.39728 0.0
C362 C 0.70037 0.18783 0.45569 0.0
C363 C 0.5946 0.19709 0.43355 0.0
C364 C 0.61859 0.07014 0.45423 0.0
O365 O 0.60595 0.12546 0.37292 0.0
O366 O 0.66147 0.11639 0.34285 0.0
C367 C 0.75397 0.16649 0.32729 0.0
N368 N 0.74621 0.15318 0.37137 0.0
C369 C 0.81847 0.18935 0.39146 0.0
C370 C 0.82692 0.20459 0.34678 0.0
C371 C 0.79476 0.19222 0.31439 0.0
C372 C 0.77754 0.16257 0.40205 0.0
H373 H 0.72932 0.15695 0.30215 0.0
C374 C 0.62587 0.11852 0.3389 0.0
O375 O 0.57985 0.16131 0.45297 0.0
O376 O 0.62963 0.20822 0.41152 0.0
N377 N 0.72829 0.1154 0.44984 0.0
C378 C 0.71659 0.09296 0.48919 0.0
C379 C 0.74558 0.09976 0.52458 0.0
C380 C 0.78659 0.12902 0.51896 0.0
C381 C 0.79835 0.15077 0.47768 0.0
C382 C 0.76792 0.14304 0.4438 0.0
H383 H 0.68556 0.06966 0.49357 0.0
O384 O 0.67156 0.18991 0.48232 0.0
O385 O 0.68636 0.16287 0.42105 0.0
O386 O 0.61787 0.10343 0.46863 0.0
O387 O 0.64432 0.06994 0.42364 0.0
C388 C 0.83926 0.17931 0.46857 0.0
C389 C 0.84938 0.19838 0.42533 0.0
H390 H 0.85822 0.2247 0.33655 0.0
H391 H 0.80184 0.20185 0.27946 0.0
H392 H 0.73638 0.08226 0.55603 0.0
H393 H 0.80896 0.134 0.54623 0.0
H394 H 0.86338 0.18605 0.49419 0.0
H395 H 0.8812 0.21935 0.4182 0.0
Mn396 Mn 0.42387 0.59573 0.9414 0.0
Mn397 Mn 0.51633 0.65525 0.89673 0.0
C398 C 0.44817 0.66718 0.94991 0.0
C399 C 0.35169 0.56221 0.93316 0.0
C400 C 0.50272 0.59564 0.97505 0.0
O401 O 0.43532 0.55996 0.89201 0.0
O402 O 0.48684 0.60913 0.85271 0.0
C403 C 0.48817 0.68825 0.81874 0.0
N404 N 0.51175 0.69556 0.85711 0.0
C405 C 0.52365 0.76776 0.85795 0.0
C406 C 0.49892 0.7608 0.81882 0.0
C407 C 0.48001 0.72042 0.80022 0.0
C408 C 0.52831 0.73364 0.87691 0.0
H409 H 0.47267 0.65732 0.80471 0.0
C410 C 0.45701 0.57291 0.85553 0.0
O411 O 0.37118 0.54956 0.96296 0.0
O412 O 0.37489 0.59266 0.90776 0.0
N413 N 0.54616 0.7012 0.9366 0.0
C414 C 0.56886 0.70209 0.97453 0.0
C415 C 0.589 0.73952 0.99879 0.0
C416 C 0.5868 0.77603 0.98271 0.0
C417 C 0.56588 0.77494 0.94159 0.0
C418 C 0.54706 0.73673 0.91876 0.0
H419 H 0.5727 0.67475 0.98512 0.0
O420 O 0.42098 0.64271 0.97838 0.0
O421 O 0.46234 0.64839 0.92077 0.0
O422 O 0.46574 0.59014 0.98415 0.0
O423 O 0.52279 0.61495 0.93982 0.0
C424 C 0.56291 0.81014 0.9223 0.0
C425 C 0.54123 0.80642 0.88077 0.0
H426 H 0.49236 0.78582 0.80492 0.0
H427 H 0.45711 0.71268 0.77342 0.0
H428 H 0.60652 0.74029 0.02946 0.0
H429 H 0.60208 0.80484 0.00159 0.0
H430 H 0.57662 0.84004 0.93942 0.0
H431 H 0.53789 0.83332 0.86692 0.0
C432 C 0.61908 0.16009 0.27196 0.0
C433 C 0.61082 0.12058 0.29139 0.0
C434 C 0.57313 0.0869 0.22111 0.0
C435 C 0.58285 0.1265 0.2015 0.0
N436 N 0.62511 0.20004 0.20309 0.0
N437 N 0.58872 0.04696 0.28001 0.0
C438 C 0.6088 0.16287 0.22544 0.0
C439 C 0.59043 0.08407 0.26459 0.0
N440 N 0.63644 0.19523 0.29806 0.0
N441 N 0.54691 0.05209 0.19848 0.0
H442 H 0.60218 0.0443 0.31086 0.0
H443 H 0.57762 0.01979 0.26048 0.0
H444 H 0.53531 0.05319 0.16591 0.0
H445 H 0.5348 0.02264 0.21299 0.0
H446 H 0.6385 0.22421 0.28767 0.0
H447 H 0.64556 0.19481 0.33173 0.0
H448 H 0.64789 0.22689 0.21708 0.0
H449 H 0.61903 0.20315 0.16867 0.0
C450 C 0.38993 0.54284 0.7527 0.0
C451 C 0.41518 0.53713 0.71808 0.0
C452 C 0.46946 0.54895 0.77652 0.0
C453 C 0.44143 0.54988 0.81129 0.0
N454 N 0.36907 0.52793 0.83098 0.0
N455 N 0.4786 0.53047 0.69789 0.0
C456 C 0.39981 0.54041 0.79903 0.0
C457 C 0.45499 0.53886 0.73018 0.0
N458 N 0.35806 0.55361 0.7418 0.0
N459 N 0.50971 0.55773 0.78786 0.0
H460 H 0.46935 0.52421 0.6638 0.0
H461 H 0.50599 0.52725 0.70543 0.0
H462 H 0.51984 0.56145 0.82186 0.0
H463 H 0.533 0.56242 0.76377 0.0
H464 H 0.3434 0.56429 0.76664 0.0
H465 H 0.35063 0.55758 0.70814 0.0
H466 H 0.33845 0.52097 0.82247 0.0
H467 H 0.37258 0.51749 0.86327 0.0
C468 C 0.85782 0.39477 0.23278 0.0
C469 C 0.89525 0.41058 0.2074 0.0
C470 C 0.93225 0.44863 0.27617 0.0
C471 C 0.89528 0.42945 0.30226 0.0
N472 N 0.82508 0.37709 0.30657 0.0
N473 N 0.96908 0.45022 0.20493 0.0
C474 C 0.85897 0.40004 0.2809 0.0
C475 C 0.93291 0.43679 0.22917 0.0
N476 N 0.82061 0.37595 0.21063 0.0
N477 N 0.96633 0.47862 0.29616 0.0
H478 H 0.96963 0.44425 0.16997 0.0
H479 H -0.00169 0.46576 0.2196 0.0
H480 H 0.96717 0.48585 0.33096 0.0
H481 H 0.99289 0.49717 0.27819 0.0
H482 H 0.79198 0.36813 0.22663 0.0
H483 H 0.81835 0.37211 0.17526 0.0
H484 H 0.7996 0.35186 0.29365 0.0
H485 H 0.82412 0.3808 0.34171 0.0
C486 C 0.36847 0.8652 0.75919 0.0
C487 C 0.39113 0.89789 0.78993 0.0
C488 C 0.4375 0.93475 0.72669 0.0
C489 C 0.41292 0.90292 0.69565 0.0
N490 N 0.34734 0.84511 0.68108 0.0
N491 N 0.44501 0.96589 0.80278 0.0
C492 C 0.37584 0.87065 0.71145 0.0
C493 C 0.42495 0.9335 0.77356 0.0
N494 N 0.34127 0.82787 0.77579 0.0
N495 N 0.47335 0.9656 0.71132 0.0
H496 H 0.43808 0.96445 0.83763 0.0
H497 H 0.46704 0.99459 0.79235 0.0
H498 H 0.48153 0.96874 0.67672 0.0
H499 H 0.49539 0.98712 0.73267 0.0
H500 H 0.32726 0.80138 0.75547 0.0
H501 H 0.33619 0.8222 0.81068 0.0
H502 H 0.31892 0.82222 0.691 0.0
H503 H 0.34927 0.85044 0.64605 0.0
C504 C 0.50834 0.42488 0.25439 0.0
C505 C 0.52946 0.40623 0.28148 0.0
C506 C 0.56277 0.39428 0.2125 0.0
C507 C 0.54791 0.4193 0.18744 0.0
N508 N 0.5077 0.46016 0.18312 0.0
N509 N 0.58244 0.37947 0.2865 0.0
C510 C 0.52055 0.4348 0.2078 0.0
C511 C 0.55809 0.39245 0.26046 0.0
N512 N 0.47693 0.43304 0.27306 0.0
N513 N 0.58286 0.3736 0.19019 0.0
H514 H 0.5826 0.3816 0.32177 0.0
H515 H 0.60618 0.37211 0.27362 0.0
H516 H 0.58526 0.37358 0.15456 0.0
H517 H 0.5934 0.35339 0.2061 0.0
H518 H 0.45792 0.44315 0.25399 0.0
H519 H 0.46822 0.427 0.30729 0.0
H520 H 0.49142 0.47626 0.19733 0.0
H521 H 0.51508 0.4663 0.14851 0.0
C522 C 0.0745 0.58488 0.72732 0.0
C523 C 0.11356 0.60737 0.70618 0.0
C524 C 0.14858 0.61275 0.77971 0.0
C525 C 0.11025 0.58665 0.80007 0.0
N526 N 0.03696 0.5452 0.79335 0.0
N527 N 0.18835 0.63524 0.70996 0.0
C528 C 0.07312 0.57211 0.77393 0.0
C529 C 0.15075 0.61931 0.73177 0.0
N530 N 0.0389 0.57571 0.70275 0.0
N531 N 0.18318 0.63136 0.80631 0.0
H532 H 0.19144 0.64025 0.67471 0.0
H533 H 0.21626 0.6399 0.72606 0.0
H534 H 0.18344 0.62578 0.84122 0.0
H535 H 0.21066 0.65461 0.79448 0.0
H536 H 0.0093 0.56329 0.71705 0.0
H537 H 0.03928 0.58236 0.66797 0.0
H538 H 0.00956 0.52972 0.77511 0.0
H539 H 0.03499 0.53701 0.82785 0.0
C540 C 0.45299 0.04689 0.98406 0.0
C541 C 0.46291 0.04328 0.03058 0.0
C542 C 0.40883 0.97224 0.03209 0.0
C543 C 0.40309 0.97397 0.98403 0.0
N544 N 0.42381 0.01174 0.91295 0.0
N545 N 0.45292 0.00167 0.09827 0.0
C546 C 0.42604 0.01105 0.95967 0.0
C547 C 0.44137 0.00575 0.05454 0.0
N548 N 0.46789 0.08497 0.96355 0.0
N549 N 0.38229 0.93904 0.0565 0.0
H550 H 0.47638 0.02571 0.11572 0.0
H551 H 0.44168 0.97367 0.1159 0.0
H552 H 0.35766 0.91432 0.04139 0.0
H553 H 0.38212 0.93775 0.09214 0.0
H554 H 0.4577 0.0902 0.9317 0.0
H555 H 0.48735 0.11224 0.98007 0.0
H556 H 0.44404 0.03608 0.89315 0.0
H557 H 0.40397 0.98679 0.8934 0.0
C558 C 0.43945 0.4424 0.54831 0.0
C559 C 0.4193 0.46412 0.52484 0.0
C560 C 0.43714 0.44226 0.45109 0.0
C561 C 0.45335 0.41713 0.47466 0.0
N562 N 0.46509 0.3884 0.54547 0.0
N563 N 0.39243 0.47902 0.45401 0.0
C564 C 0.45313 0.4158 0.52325 0.0
C565 C 0.41638 0.46261 0.47623 0.0
N566 N 0.44711 0.44856 0.59429 0.0
N567 N 0.44323 0.44824 0.40496 0.0
H568 H 0.37627 0.49407 0.47073 0.0
H569 H 0.38537 0.47431 0.41923 0.0
H570 H 0.45881 0.43425 0.38545 0.0
H571 H 0.43634 0.47 0.38685 0.0
H572 H 0.46586 0.43735 0.61225 0.0
H573 H 0.43793 0.46814 0.6139 0.0
H574 H 0.46081 0.38253 0.58045 0.0
H575 H 0.47616 0.36882 0.52853 0.0
C576 C 0.04387 0.45979 0.02401 0.0
C577 C 0.03929 0.46943 0.97766 0.0
C578 C 0.97234 0.40939 0.97385 0.0
C579 C 0.97363 0.40409 0.02186 0.0
N580 N 0.0097 0.42737 0.09404 0.0
N581 N -0.00358 0.45679 0.91012 0.0
C582 C 0.00928 0.42986 0.04736 0.0
C583 C 0.0028 0.445 0.95294 0.0
N584 N 0.08166 0.47771 0.04528 0.0
N585 N 0.942 0.37999 0.94822 0.0
H586 H 0.01741 0.48359 0.8943 0.0
H587 H 0.96856 0.44242 0.89228 0.0
H588 H 0.91976 0.35306 0.9626 0.0
H589 H 0.94155 0.38015 0.91253 0.0
H590 H 0.08779 0.4681 0.07704 0.0
H591 H 0.10813 0.49932 0.02956 0.0
H592 H 0.03243 0.44928 0.11447 0.0
H593 H 0.98616 0.40507 0.11285 0.0
C594 C 0.56317 0.99623 0.44792 0.0
C595 C 0.58808 0.03116 0.47515 0.0
C596 C 0.54175 0.0012 0.54 0.0
C597 C 0.52153 0.96354 0.51548 0.0
N598 N 0.51955 0.92268 0.44769 0.0
N599 N 0.60651 0.06033 0.55149 0.0
C600 C 0.53388 0.9602 0.46976 0.0
C601 C 0.57898 0.03169 0.52255 0.0
N602 N 0.56562 0.99781 0.40127 0.0
N603 N 0.52516 0.008 0.57996 0.0
H604 H 0.63559 0.08172 0.54092 0.0
H605 H 0.60244 0.0595 0.58692 0.0
H606 H 0.49674 0.98685 0.59263 0.0
H607 H 0.53715 0.03641 0.59729 0.0
H608 H 0.54516 0.97452 0.38015 0.0
H609 H 0.58491 0.02413 0.38369 0.0
H610 H 0.53139 0.91837 0.41625 0.0
H611 H 0.49883 0.89518 0.46232 0.0
C612 C 0.55017 0.59445 0.0372 0.0
C613 C 0.52083 0.57324 0.00309 0.0
C614 C 0.5277 0.5098 0.02243 0.0
C615 C 0.56613 0.53363 0.04435 0.0
N616 N 0.61347 0.60154 0.07415 0.0
N617 N 0.48027 0.50919 0.96311 0.0
C618 C 0.57722 0.57677 0.05296 0.0
C619 C 0.50894 0.53035 0.99571 0.0
N620 N 0.5508 0.63021 0.05604 0.0
N621 N 0.50805 0.46793 0.02905 0.0
H622 H 0.46462 0.52287 0.94364 0.0
H623 H 0.47423 0.47871 0.95356 0.0
H624 H 0.51865 0.45231 0.05251 0.0
H625 H 0.47848 0.45004 0.01621 0.0
H626 H 0.56945 0.64509 0.08397 0.0
H627 H 0.52914 0.64207 0.0469 0.0
H628 H 0.62393 0.63379 0.07534 0.0
H629 H 0.63447 0.59121 0.08827 0.0
C630 C 0.98804 0.56327 0.45745 0.0
C631 C 0.95065 0.5426 0.48221 0.0
C632 C 0.98358 0.58233 0.55147 0.0
C633 C 0.02044 0.60358 0.52599 0.0
N634 N 0.0535 0.62331 0.45249 0.0
N635 N 0.90965 0.53859 0.54984 0.0
C636 C 0.02107 0.597 0.47813 0.0
C637 C 0.94742 0.55387 0.52847 0.0
N638 N 0.99281 0.54927 0.41493 0.0
N639 N 0.98351 0.58823 0.59774 0.0
H640 H 0.88256 0.51768 0.5342 0.0
H641 H 0.90449 0.54907 0.58171 0.0
H642 H 0.00836 0.61087 0.615 0.0
H643 H 0.95959 0.56968 0.61917 0.0
H644 H 0.02089 0.56049 0.39724 0.0
H645 H 0.96987 0.52348 0.39929 0.0
H646 H 0.0539 0.62253 0.41681 0.0
H647 H 0.07803 0.64872 0.46679 0.0
C648 C 0.5885 0.26739 0.00819 0.0
C649 C 0.54882 0.23362 0.01333 0.0
C650 C 0.51539 0.28261 0.00938 0.0
C651 C 0.55502 0.31573 0.01287 0.0
N652 N 0.62577 0.3396 0.98811 0.0
N653 N 0.47827 0.20992 0.98792 0.0
C654 C 0.59058 0.30804 0.00375 0.0
C655 C 0.51297 0.24125 0.00465 0.0
N656 N 0.62438 0.2614 0.00676 0.0
N657 N 0.48064 0.29048 0.01056 0.0
H658 H 0.47774 0.18062 0.98101 0.0
H659 H 0.45255 0.21441 0.97613 0.0
H660 H 0.48209 0.32051 0.0137 0.0
H661 H 0.45069 0.2673 0.00881 0.0
H662 H 0.6536 0.2852 0.01184 0.0
H663 H 0.62597 0.23358 0.99814 0.0
H664 H 0.65215 0.33585 0.97707 0.0
H665 H 0.62618 0.3685 0.98023 0.0
C666 C 0.26207 0.5413 0.51591 0.0
C667 C 0.28612 0.547 0.55636 0.0
C668 C 0.23323 0.56065 0.59955 0.0
C669 C 0.21394 0.56295 0.55818 0.0
N670 N 0.21028 0.55733 0.47573 0.0
N671 N 0.29762 0.5715 0.63581 0.0
C672 C 0.2279 0.55309 0.51593 0.0
C673 C 0.27243 0.55881 0.59817 0.0
N674 N 0.27178 0.5245 0.47771 0.0
N675 N 0.21424 0.56099 0.64037 0.0
H676 H 0.32769 0.57344 0.63725 0.0
H677 H 0.29014 0.58453 0.66475 0.0
H678 H 0.18497 0.56176 0.64217 0.0
H679 H 0.22528 0.55581 0.67178 0.0
H680 H 0.25298 0.51575 0.44867 0.0
H681 H 0.2967 0.51572 0.4767 0.0
H682 H 0.22243 0.55547 0.44365 0.0
H683 H 0.18486 0.56524 0.47443 0.0
C684 C 0.75229 0.259 0.09288 0.0
C685 C 0.77843 0.26906 0.05336 0.0
C686 C 0.72271 0.21271 0.01124 0.0
C687 C 0.69822 0.20234 0.05165 0.0
N688 N 0.69675 0.20512 0.13366 0.0
N689 N 0.79121 0.24928 0.97761 0.0
C690 C 0.71591 0.22173 0.09338 0.0
C691 C 0.76456 0.24361 0.01347 0.0
N692 N 0.75937 0.28633 0.12848 0.0
N693 N 0.70541 0.1951 0.97042 0.0
H694 H 0.82164 0.27185 0.97815 0.0
H695 H 0.78437 0.22938 0.94938 0.0
H696 H 0.67541 0.17196 0.96794 0.0
H697 H 0.71999 0.20495 0.93896 0.0
H698 H 0.73812 0.28199 0.15494 0.0
H699 H 0.78406 0.31511 0.12996 0.0
H700 H 0.70872 0.21726 0.16569 0.0
H701 H 0.67101 0.17665 0.13474 0.0
C702 C 0.43039 0.74392 0.60674 0.0
C703 C 0.4522 0.7674 0.56805 0.0
C704 C 0.47048 0.70943 0.54529 0.0
C705 C 0.44767 0.68606 0.58366 0.0
N706 N 0.42195 0.68836 0.65939 0.0
N707 N 0.49795 0.7752 0.50431 0.0
C708 C 0.43279 0.70579 0.61697 0.0
C709 C 0.47369 0.75084 0.53844 0.0
N710 N 0.40569 0.75667 0.63312 0.0
N711 N 0.48842 0.69222 0.51481 0.0
H712 H 0.50019 0.80511 0.49792 0.0
H713 H 0.51825 0.76737 0.48444 0.0
H714 H 0.49523 0.66694 0.52243 0.0
H715 H 0.49798 0.70383 0.48212 0.0
H716 H 0.40571 0.78599 0.63176 0.0
H717 H 0.38379 0.73718 0.656 0.0
H718 H 0.41204 0.70173 0.68619 0.0
H719 H 0.42797 0.66301 0.6696 0.0
C720 C 0.70142 0.41143 0.0683 0.0
C721 C 0.70508 0.44872 0.04665 0.0
C722 C 0.77921 0.46627 0.03516 0.0
C723 C 0.77353 0.42684 0.05351 0.0
N724 N 0.72287 0.35564 0.06064 0.0
N725 N 0.74533 0.50561 0.99753 0.0
C726 C 0.73268 0.39734 0.06153 0.0
C727 C 0.74328 0.47415 0.02575 0.0
N728 N 0.66916 0.38951 0.09643 0.0
N729 N 0.81798 0.49659 0.02831 0.0
H730 H 0.71961 0.51227 0.99092 0.0
H731 H 0.77154 0.52278 0.97819 0.0
H732 H 0.84512 0.49401 0.03817 0.0
H733 H 0.82309 0.52625 0.01707 0.0
H734 H 0.66752 0.36324 0.11409 0.0
H735 H 0.64842 0.40115 0.10854 0.0
H736 H 0.69267 0.33356 0.06559 0.0
H737 H 0.74322 0.34324 0.04831 0.0
C738 C 0.25522 0.70918 0.5247 0.0
C739 C 0.22041 0.71977 0.52131 0.0
C740 C 0.26778 0.79376 0.52526 0.0
C741 C 0.30083 0.78277 0.53878 0.0
N742 N 0.32652 0.72871 0.54591 0.0
N743 N 0.19958 0.77031 0.48947 0.0
C744 C 0.29457 0.74015 0.53715 0.0
C745 C 0.22828 0.76173 0.51327 0.0
N746 N 0.25274 0.67136 0.50971 0.0
N747 N 0.27326 0.83437 0.52597 0.0
H748 H 0.17223 0.7466 0.47756 0.0
H749 H 0.20502 0.79965 0.47692 0.0
H750 H 0.30042 0.85842 0.53744 0.0
H751 H 0.24985 0.84403 0.51807 0.0
H752 H 0.27802 0.66328 0.50797 0.0
H753 H 0.22774 0.64996 0.4918 0.0
H754 H 0.3218 0.69875 0.5558 0.0
H755 H 0.35766 0.7487 0.54308 0.0
C756 C 0.73743 0.46944 0.46779 0.0
C757 C 0.755 0.44848 0.43865 0.0
C758 C 0.69341 0.42622 0.38911 0.0
C759 C 0.67394 0.44314 0.4204 0.0
N760 N 0.68392 0.49544 0.47856 0.0
N761 N 0.74556 0.4005 0.37505 0.0
C762 C 0.69762 0.46893 0.45691 0.0
C763 C 0.73187 0.42516 0.40028 0.0
N764 N 0.75845 0.48911 0.50631 0.0
N765 N 0.67602 0.41362 0.34684 0.0
H766 H 0.77498 0.40111 0.37778 0.0
H767 H 0.72675 0.37763 0.35242 0.0
H768 H 0.65242 0.42166 0.33501 0.0
H769 H 0.68829 0.40115 0.32137 0.0
H770 H 0.74566 0.50092 0.53192 0.0
H771 H 0.78816 0.49139 0.51419 0.0
H772 H 0.701 0.51709 0.50319 0.0
H773 H 0.65839 0.50044 0.46726 0.0
C774 C 0.23725 0.76789 0.99306 0.0
C775 C 0.25983 0.78304 0.95184 0.0
C776 C 0.20518 0.72652 0.90997 0.0
C777 C 0.18895 0.70616 0.9514 0.0
N778 N 0.18882 0.70775 0.03396 0.0
N779 N 0.26848 0.76785 0.87183 0.0
C780 C 0.2041 0.72726 0.99356 0.0
C781 C 0.24438 0.76046 0.91018 0.0
N782 N 0.24765 0.79208 0.03163 0.0
N783 N 0.18431 0.71128 0.86997 0.0
H784 H 0.25938 0.74952 0.84232 0.0
H785 H 0.29944 0.78826 0.87102 0.0
H786 H 0.15524 0.68627 0.8695 0.0
H787 H 0.19387 0.72586 0.83849 0.0
H788 H 0.23005 0.78441 0.06155 0.0
H789 H 0.2718 0.82164 0.03219 0.0
H790 H 0.20213 0.71939 0.06568 0.0
H791 H 0.16375 0.67892 0.03551 0.0
C792 C 0.56371 0.23993 0.39553 0.0
C793 C 0.57192 0.22394 0.43634 0.0
C794 C 0.53922 0.26211 0.48009 0.0
C795 C 0.53956 0.285 0.44031 0.0
N796 N 0.56141 0.2993 0.36004 0.0
N797 N 0.57109 0.22233 0.51927 0.0
C798 C 0.55389 0.27476 0.39779 0.0
C799 C 0.5601 0.2351 0.47926 0.0
N800 N 0.56498 0.2217 0.35437 0.0
N801 N 0.51926 0.26642 0.51862 0.0
H802 H 0.58786 0.2039 0.52048 0.0
H803 H 0.56692 0.23321 0.55134 0.0
H804 H 0.50361 0.28597 0.52001 0.0
H805 H 0.5147 0.24761 0.54729 0.0
H806 H 0.55606 0.2305 0.32358 0.0
H807 H 0.57031 0.19474 0.35178 0.0
H808 H 0.57757 0.29566 0.33155 0.0
H809 H 0.55421 0.32465 0.35726 0.0
C810 C 0.24202 0.52803 0.98118 0.0
C811 C 0.23199 0.55829 0.95889 0.0
C812 C 0.29132 0.57582 0.90884 0.0
C813 C 0.30586 0.55045 0.93427 0.0
N814 N 0.28993 0.49406 0.98755 0.0
N815 N 0.26058 0.62396 0.9206 0.0
C816 C 0.2798 0.52411 0.96891 0.0
C817 C 0.26028 0.58581 0.92787 0.0
N818 N 0.2159 0.50411 0.01419 0.0
N819 N 0.30732 0.5911 0.86694 0.0
H820 H 0.24605 0.63602 0.94394 0.0
H821 H 0.28196 0.64591 0.89913 0.0
H822 H 0.32697 0.58074 0.8491 0.0
H823 H 0.29618 0.60914 0.84753 0.0
H824 H 0.22078 0.48146 0.03277 0.0
H825 H 0.1891 0.50793 0.02373 0.0
H826 H 0.27354 0.47442 0.0138 0.0
H827 H 0.31323 0.48645 0.9737 0.0
C828 C 0.75672 0.2469 0.41161 0.0
C829 C 0.74142 0.225 0.45353 0.0
C830 C 0.79233 0.28509 0.49554 0.0
C831 C 0.80704 0.30574 0.45332 0.0
N832 N 0.81625 0.29788 0.37299 0.0
N833 N 0.75441 0.21916 0.53364 0.0
C834 C 0.79403 0.28319 0.41217 0.0
C835 C 0.76272 0.2427 0.49495 0.0
N836 N 0.7342 0.23666 0.37199 0.0
N837 N 0.80449 0.30626 0.53593 0.0
H838 H 0.73344 0.18804 0.5338 0.0
H839 H 0.77129 0.22921 0.5639 0.0
H840 H 0.82682 0.33667 0.53775 0.0
H841 H 0.79091 0.29419 0.5673 0.0
H842 H 0.70478 0.21325 0.36904 0.0
H843 H 0.74309 0.25484 0.34259 0.0
H844 H 0.80933 0.28134 0.34215 0.0
H845 H 0.84415 0.32437 0.37317 0.0
C846 C 0.42411 0.71066 0.89849 0.0
C847 C 0.44539 0.70709 0.93876 0.0
C848 C 0.4392 0.76872 0.97054 0.0
C849 C 0.42171 0.77443 0.9284 0.0
N850 N 0.40879 0.75685 0.84829 0.0
N851 N 0.48075 0.7379 0.00869 0.0
C852 C 0.41771 0.74728 0.89117 0.0
C853 C 0.45583 0.73819 0.97304 0.0
N854 N 0.4081 0.67868 0.86782 0.0
N855 N 0.43646 0.7892 0.00951 0.0
H856 H 0.49261 0.71531 0.01184 0.0
H857 H 0.49292 0.76225 0.03223 0.0
H858 H 0.42074 0.80853 0.01139 0.0
H859 H 0.44528 0.78295 0.04166 0.0
H860 H 0.38656 0.67742 0.84277 0.0
H861 H 0.41549 0.65312 0.86744 0.0
H862 H 0.40772 0.73907 0.81928 0.0
H863 H 0.40731 0.78508 0.84066 0.0
loop_
_geom_bond_atom_site_label_1
_geom_bond_atom_site_label_2
_geom_bond_distance
_geom_bond_site_symmetry_2
_ccdc_geom_bond_type
Mn0 O5 2.095 . S
Mn0 O15 2.162 . S
Mn0 O16 2.297 . S
Mn0 O24 2.385 . S
Mn0 O25 2.209 . S
Mn0 O26 2.094 . S
Mn1 O6 2.121 . S
Mn1 N8 2.257 . S
Mn1 N17 2.282 . S
Mn1 O25 2.215 . S
Mn1 O27 2.117 . S
C2 O24 1.234 . S
C2 O25 1.283 . S
C3 O15 1.281 . S
C3 O16 1.236 . S
C4 O26 1.240 . S
C4 O27 1.264 . S
O5 Mn0 2.095 . S
O5 C14 1.250 . S
O6 Mn1 2.121 . S
O6 C14 1.258 . S
C7 N8 1.326 . S
C7 C11 1.460 . S
C7 H13 0.929 . S
N8 Mn1 2.257 . S
N8 C7 1.326 . S
N8 C12 1.362 . S
C9 C10 1.258 . S
C9 C12 1.431 . S
C9 C29 1.449 . S
C10 C9 1.258 . S
C10 C11 1.477 . S
C10 H30 0.931 . S
C11 C7 1.460 . S
C11 C10 1.477 . S
C11 H31 0.930 . S
C12 N8 1.362 . S
C12 C9 1.431 . S
C12 C22 1.476 . S
H13 C7 0.929 . S
C14 O5 1.250 . S
C14 O6 1.258 . S
O15 Mn0 2.162 . S
O15 C3 1.281 . S
O16 Mn0 2.297 . S
O16 C3 1.236 . S
N17 Mn1 2.282 . S
N17 C18 1.328 . S
N17 C22 1.318 . S
C18 N17 1.328 . S
C18 C19 1.457 1_554 S
C18 H23 0.929 1_554 S
C19 C18 1.457 1_556 S
C19 C20 1.291 . S
C19 H32 0.931 . S
C20 C19 1.291 . S
C20 C21 1.373 1_556 S
C20 H33 0.929 . S
C21 C20 1.373 1_554 S
C21 C22 1.396 . S
C21 C28 1.403 . S
C22 C12 1.476 . S
C22 N17 1.318 . S
C22 C21 1.396 . S
H23 C18 0.929 1_556 S
O24 Mn0 2.385 . S
O24 C2 1.234 . S
O25 Mn0 2.209 . S
O25 Mn1 2.215 . S
O25 C2 1.283 . S
O26 Mn0 2.094 . S
O26 C4 1.240 . S
O27 Mn1 2.117 . S
O27 C4 1.264 . S
C28 C21 1.403 . S
C28 C29 1.399 . S
C28 H34 0.929 . S
C29 C9 1.449 . S
C29 C28 1.399 . S
C29 H35 0.930 . S
H30 C10 0.931 . S
H31 C11 0.930 . S
H32 C19 0.931 . S
H33 C20 0.929 . S
H34 C28 0.929 . S
H35 C29 0.930 . S
Mn36 O41 2.095 . S
Mn36 O51 2.162 . S
Mn36 O52 2.297 . S
Mn36 O60 2.385 . S
Mn36 O61 2.209 . S
Mn36 O62 2.094 . S
Mn37 O42 2.121 . S
Mn37 N44 2.257 . S
Mn37 N53 2.282 . S
Mn37 O61 2.215 . S
Mn37 O63 2.117 . S
C38 O60 1.234 . S
C38 O61 1.283 . S
C39 O51 1.281 . S
C39 O52 1.236 . S
C40 O62 1.240 . S
C40 O63 1.264 . S
O41 Mn36 2.095 . S
O41 C50 1.250 . S
O42 Mn37 2.121 . S
O42 C50 1.258 . S
C43 N44 1.326 . S
C43 C47 1.460 . S
C43 H49 0.929 . S
N44 Mn37 2.257 . S
N44 C43 1.326 . S
N44 C48 1.362 . S
C45 C46 1.258 . S
C45 C48 1.431 . S
C45 C65 1.449 . S
C46 C45 1.258 . S
C46 C47 1.477 . S
C46 H66 0.931 . S
C47 C43 1.460 . S
C47 C46 1.477 . S
C47 H67 0.930 . S
C48 N44 1.362 . S
C48 C45 1.431 . S
C48 C58 1.476 . S
H49 C43 0.929 . S
C50 O41 1.250 . S
C50 O42 1.258 . S
O51 Mn36 2.162 . S
O51 C39 1.281 . S
O52 Mn36 2.297 . S
O52 C39 1.236 . S
N53 Mn37 2.282 . S
N53 C54 1.328 . S
N53 C58 1.318 . S
C54 N53 1.328 . S
C54 C55 1.457 . S
C54 H59 0.929 . S
C55 C54 1.457 . S
C55 C56 1.291 . S
C55 H68 0.931 . S
C56 C55 1.291 . S
C56 C57 1.373 . S
C56 H69 0.929 . S
C57 C56 1.373 . S
C57 C58 1.396 . S
C57 C64 1.403 . S
C58 C48 1.476 . S
C58 N53 1.318 . S
C58 C57 1.396 . S
H59 C54 0.929 . S
O60 Mn36 2.385 . S
O60 C38 1.234 . S
O61 Mn36 2.209 . S
O61 Mn37 2.215 . S
O61 C38 1.283 . S
O62 Mn36 2.094 . S
O62 C40 1.240 . S
O63 Mn37 2.117 . S
O63 C40 1.264 . S
C64 C57 1.403 . S
C64 C65 1.399 . S
C64 H70 0.929 . S
C65 C45 1.449 . S
C65 C64 1.399 . S
C65 H71 0.930 . S
H66 C46 0.931 . S
H67 C47 0.930 . S
H68 C55 0.931 . S
H69 C56 0.929 . S
H70 C64 0.929 . S
H71 C65 0.930 . S
Mn72 O77 2.095 . S
Mn72 O87 2.162 . S
Mn72 O88 2.297 . S
Mn72 O96 2.385 1_554 S
Mn72 O97 2.209 . S
Mn72 O98 2.094 . S
Mn73 O78 2.121 . S
Mn73 N80 2.257 . S
Mn73 N89 2.282 . S
Mn73 O97 2.215 . S
Mn73 O99 2.117 . S
C74 O96 1.234 1_554 S
C74 O97 1.283 . S
C75 O87 1.281 . S
C75 O88 1.236 . S
C76 O98 1.240 . S
C76 O99 1.264 . S
O77 Mn72 2.095 . S
O77 C86 1.250 . S
O78 Mn73 2.121 . S
O78 C86 1.258 . S
C79 N80 1.326 . S
C79 C83 1.460 . S
C79 H85 0.929 . S
N80 Mn73 2.257 . S
N80 C79 1.326 . S
N80 C84 1.362 . S
C81 C82 1.258 . S
C81 C84 1.431 . S
C81 C101 1.449 . S
C82 C81 1.258 . S
C82 C83 1.477 . S
C82 H102 0.931 . S
C83 C79 1.460 . S
C83 C82 1.477 . S
C83 H103 0.930 . S
C84 N80 1.362 . S
C84 C81 1.431 . S
C84 C94 1.476 . S
H85 C79 0.929 . S
C86 O77 1.250 . S
C86 O78 1.258 . S
O87 Mn72 2.162 . S
O87 C75 1.281 . S
O88 Mn72 2.297 . S
O88 C75 1.236 . S
N89 Mn73 2.282 . S
N89 C90 1.328 1_554 S
N89 C94 1.318 . S
C90 N89 1.328 1_556 S
C90 C91 1.457 . S
C90 H95 0.929 . S
C91 C90 1.457 . S
C91 C92 1.291 . S
C91 H104 0.931 . S
C92 C91 1.291 . S
C92 C93 1.373 1_556 S
C92 H105 0.929 . S
C93 C92 1.373 1_554 S
C93 C94 1.396 . S
C93 C100 1.403 . S
C94 C84 1.476 . S
C94 N89 1.318 . S
C94 C93 1.396 . S
H95 C90 0.929 . S
O96 Mn72 2.385 1_556 S
O96 C74 1.234 1_556 S
O97 Mn72 2.209 . S
O97 Mn73 2.215 . S
O97 C74 1.283 . S
O98 Mn72 2.094 . S
O98 C76 1.240 . S
O99 Mn73 2.117 . S
O99 C76 1.264 . S
C100 C93 1.403 . S
C100 C101 1.399 . S
C100 H106 0.929 . S
C101 C81 1.449 . S
C101 C100 1.399 . S
C101 H107 0.930 . S
H102 C82 0.931 . S
H103 C83 0.930 . S
H104 C91 0.931 . S
H105 C92 0.929 . S
H106 C100 0.929 . S
H107 C101 0.930 . S
Mn108 O113 2.095 . S
Mn108 O123 2.162 . S
Mn108 O124 2.297 . S
Mn108 O132 2.385 . S
Mn108 O133 2.209 . S
Mn108 O134 2.094 . S
Mn109 O114 2.121 . S
Mn109 N116 2.257 . S
Mn109 N125 2.282 . S
Mn109 O133 2.215 . S
Mn109 O135 2.117 . S
C110 O132 1.234 . S
C110 O133 1.283 . S
C111 O123 1.281 . S
C111 O124 1.236 . S
C112 O134 1.240 . S
C112 O135 1.264 . S
O113 Mn108 2.095 . S
O113 C122 1.250 . S
O114 Mn109 2.121 . S
O114 C122 1.258 . S
C115 N116 1.326 . S
C115 C119 1.460 . S
C115 H121 0.929 . S
N116 Mn109 2.257 . S
N116 C115 1.326 . S
N116 C120 1.362 . S
C117 C118 1.258 . S
C117 C120 1.431 . S
C117 C137 1.449 . S
C118 C117 1.258 . S
C118 C119 1.477 . S
C118 H138 0.931 . S
C119 C115 1.460 . S
C119 C118 1.477 . S
C119 H139 0.930 . S
C120 N116 1.362 . S
C120 C117 1.431 . S
C120 C130 1.476 . S
H121 C115 0.929 . S
C122 O113 1.250 . S
C122 O114 1.258 . S
O123 Mn108 2.162 . S
O123 C111 1.281 . S
O124 Mn108 2.297 . S
O124 C111 1.236 . S
N125 Mn109 2.282 . S
N125 C126 1.328 . S
N125 C130 1.318 . S
C126 N125 1.328 . S
C126 C127 1.457 . S
C126 H131 0.929 . S
C127 C126 1.457 . S
C127 C128 1.291 . S
C127 H140 0.931 . S
C128 C127 1.291 . S
C128 C129 1.373 . S
C128 H141 0.929 . S
C129 C128 1.373 . S
C129 C130 1.396 . S
C129 C136 1.403 . S
C130 C120 1.476 . S
C130 N125 1.318 . S
C130 C129 1.396 . S
H131 C126 0.929 . S
O132 Mn108 2.385 . S
O132 C110 1.234 . S
O133 Mn108 2.209 . S
O133 Mn109 2.215 . S
O133 C110 1.283 . S
O134 Mn108 2.094 . S
O134 C112 1.240 . S
O135 Mn109 2.117 . S
O135 C112 1.264 . S
C136 C129 1.403 . S
C136 C137 1.399 . S
C136 H142 0.929 . S
C137 C117 1.449 . S
C137 C136 1.399 . S
C137 H143 0.930 . S
H138 C118 0.931 . S
H139 C119 0.930 . S
H140 C127 0.931 . S
H141 C128 0.929 . S
H142 C136 0.929 . S
H143 C137 0.930 . S
Mn144 O149 2.095 . S
Mn144 O159 2.162 . S
Mn144 O160 2.297 . S
Mn144 O168 2.397 . S
Mn144 O169 2.209 . S
Mn144 O170 2.094 . S
Mn145 O150 2.121 . S
Mn145 N152 2.257 . S
Mn145 N161 2.282 . S
Mn145 O169 2.215 . S
Mn145 O171 2.117 . S
C146 O168 1.246 . S
C146 O169 1.283 . S
C147 O159 1.281 . S
C147 O160 1.236 . S
C148 O170 1.240 . S
C148 O171 1.264 . S
O149 Mn144 2.095 . S
O149 C158 1.250 . S
O150 Mn145 2.121 . S
O150 C158 1.258 . S
C151 N152 1.326 . S
C151 C155 1.460 . S
C151 H157 0.929 . S
N152 Mn145 2.257 . S
N152 C151 1.326 . S
N152 C156 1.362 . S
C153 C154 1.258 . S
C153 C156 1.431 . S
C153 C173 1.449 . S
C154 C153 1.258 . S
C154 C155 1.477 . S
C154 H174 0.931 . S
C155 C151 1.460 . S
C155 C154 1.477 . S
C155 H175 0.930 . S
C156 N152 1.362 . S
C156 C153 1.431 . S
C156 C166 1.476 . S
H157 C151 0.929 . S
C158 O149 1.250 . S
C158 O150 1.258 . S
O159 Mn144 2.162 . S
O159 C147 1.281 . S
O160 Mn144 2.297 . S
O160 C147 1.236 . S
N161 Mn145 2.282 . S
N161 C162 1.328 1_554 S
N161 C166 1.318 . S
C162 N161 1.328 1_556 S
C162 C163 1.457 . S
C162 H167 0.929 . S
C163 C162 1.457 . S
C163 C164 1.291 . S
C163 H176 0.931 . S
C164 C163 1.291 . S
C164 C165 1.373 1_556 S
C164 H177 0.929 . S
C165 C164 1.373 1_554 S
C165 C166 1.396 . S
C165 C172 1.403 . S
C166 C156 1.476 . S
C166 N161 1.318 . S
C166 C165 1.396 . S
H167 C162 0.929 . S
O168 Mn144 2.397 . S
O168 C146 1.246 . S
O169 Mn144 2.209 . S
O169 Mn145 2.215 . S
O169 C146 1.283 . S
O170 Mn144 2.094 . S
O170 C148 1.240 . S
O171 Mn145 2.117 . S
O171 C148 1.264 . S
C172 C165 1.403 . S
C172 C173 1.399 . S
C172 H178 0.929 . S
C173 C153 1.449 . S
C173 C172 1.399 . S
C173 H179 0.930 . S
H174 C154 0.931 . S
H175 C155 0.930 . S
H176 C163 0.931 . S
H177 C164 0.929 . S
H178 C172 0.929 . S
H179 C173 0.930 . S
Mn180 O185 2.095 . S
Mn180 O195 2.162 . S
Mn180 O196 2.297 . S
Mn180 O204 2.385 . S
Mn180 O205 2.209 . S
Mn180 O206 2.094 . S
Mn181 O186 2.121 . S
Mn181 N188 2.257 . S
Mn181 N197 2.282 . S
Mn181 O205 2.215 . S
Mn181 O207 2.117 . S
C182 O204 1.234 . S
C182 O205 1.283 . S
C183 O195 1.281 . S
C183 O196 1.236 . S
C184 O206 1.240 . S
C184 O207 1.264 . S
O185 Mn180 2.095 . S
O185 C194 1.250 . S
O186 Mn181 2.121 . S
O186 C194 1.258 . S
C187 N188 1.326 . S
C187 C191 1.460 . S
C187 H193 0.929 . S
N188 Mn181 2.257 . S
N188 C187 1.326 . S
N188 C192 1.362 . S
C189 C190 1.258 . S
C189 C192 1.431 . S
C189 C209 1.449 . S
C190 C189 1.258 . S
C190 C191 1.477 . S
C190 H210 0.931 . S
C191 C187 1.460 . S
C191 C190 1.477 . S
C191 H211 0.930 . S
C192 N188 1.362 . S
C192 C189 1.431 . S
C192 C202 1.476 . S
H193 C187 0.929 . S
C194 O185 1.250 . S
C194 O186 1.258 . S
O195 Mn180 2.162 . S
O195 C183 1.281 . S
O196 Mn180 2.297 . S
O196 C183 1.236 . S
N197 Mn181 2.282 . S
N197 C198 1.328 . S
N197 C202 1.318 . S
C198 N197 1.328 . S
C198 C199 1.457 . S
C198 H203 0.929 . S
C199 C198 1.457 . S
C199 C200 1.291 . S
C199 H212 0.931 . S
C200 C199 1.291 . S
C200 C201 1.373 . S
C200 H213 0.929 . S
C201 C200 1.373 . S
C201 C202 1.396 . S
C201 C208 1.403 . S
C202 C192 1.476 . S
C202 N197 1.318 . S
C202 C201 1.396 . S
H203 C198 0.929 . S
O204 Mn180 2.385 . S
O204 C182 1.234 . S
O205 Mn180 2.209 . S
O205 Mn181 2.215 . S
O205 C182 1.283 . S
O206 Mn180 2.094 . S
O206 C184 1.240 . S
O207 Mn181 2.117 . S
O207 C184 1.264 . S
C208 C201 1.403 . S
C208 C209 1.399 . S
C208 H214 0.929 . S
C209 C189 1.449 . S
C209 C208 1.399 . S
C209 H215 0.930 . S
H210 C190 0.931 . S
H211 C191 0.930 . S
H212 C199 0.931 . S
H213 C200 0.929 . S
H214 C208 0.929 . S
H215 C209 0.930 . S
Mn216 O221 2.095 . S
Mn216 O231 2.162 . S
Mn216 O232 2.297 . S
Mn216 O240 2.385 . S
Mn216 O241 2.209 . S
Mn216 O242 2.094 . S
Mn217 O222 2.121 . S
Mn217 N224 2.257 . S
Mn217 N233 2.282 . S
Mn217 O241 2.215 . S
Mn217 O243 2.117 . S
C218 O240 1.234 . S
C218 O241 1.283 . S
C219 O231 1.281 . S
C219 O232 1.236 . S
C220 O242 1.240 . S
C220 O243 1.264 . S
O221 Mn216 2.095 . S
O221 C230 1.250 . S
O222 Mn217 2.121 . S
O222 C230 1.258 . S
C223 N224 1.326 . S
C223 C227 1.460 . S
C223 H229 0.929 . S
N224 Mn217 2.257 . S
N224 C223 1.326 . S
N224 C228 1.362 . S
C225 C226 1.258 . S
C225 C228 1.431 . S
C225 C245 1.449 . S
C226 C225 1.258 . S
C226 C227 1.477 . S
C226 H246 0.931 . S
C227 C223 1.460 . S
C227 C226 1.477 . S
C227 H247 0.930 . S
C228 N224 1.362 . S
C228 C225 1.431 . S
C228 C238 1.476 . S
H229 C223 0.929 . S
C230 O221 1.250 . S
C230 O222 1.258 . S
O231 Mn216 2.162 . S
O231 C219 1.281 . S
O232 Mn216 2.297 . S
O232 C219 1.236 . S
N233 Mn217 2.282 . S
N233 C234 1.328 . S
N233 C238 1.318 . S
C234 N233 1.328 . S
C234 C235 1.457 . S
C234 H239 0.929 . S
C235 C234 1.457 . S
C235 C236 1.291 . S
C235 H248 0.931 . S
C236 C235 1.291 . S
C236 C237 1.373 . S
C236 H249 0.929 . S
C237 C236 1.373 . S
C237 C238 1.396 . S
C237 C244 1.403 . S
C238 C228 1.476 . S
C238 N233 1.318 . S
C238 C237 1.396 . S
H239 C234 0.929 . S
O240 Mn216 2.385 . S
O240 C218 1.234 . S
O241 Mn216 2.209 . S
O241 Mn217 2.215 . S
O241 C218 1.283 . S
O242 Mn216 2.094 . S
O242 C220 1.240 . S
O243 Mn217 2.117 . S
O243 C220 1.264 . S
C244 C237 1.403 . S
C244 C245 1.399 . S
C244 H250 0.929 . S
C245 C225 1.449 . S
C245 C244 1.399 . S
C245 H251 0.930 . S
H246 C226 0.931 . S
H247 C227 0.930 . S
H248 C235 0.931 . S
H249 C236 0.929 . S
H250 C244 0.929 . S
H251 C245 0.930 . S
Mn252 O257 2.095 . S
Mn252 O267 2.162 . S
Mn252 O268 2.297 . S
Mn252 O276 2.385 1_556 S
Mn252 O277 2.209 . S
Mn252 O278 2.094 . S
Mn253 O258 2.121 . S
Mn253 N260 2.257 . S
Mn253 N269 2.282 . S
Mn253 O277 2.215 . S
Mn253 O279 2.117 . S
C254 O276 1.234 1_556 S
C254 O277 1.283 . S
C255 O267 1.281 . S
C255 O268 1.236 . S
C256 O278 1.240 . S
C256 O279 1.264 . S
O257 Mn252 2.095 . S
O257 C266 1.250 . S
O258 Mn253 2.121 . S
O258 C266 1.258 . S
C259 N260 1.326 . S
C259 C263 1.460 . S
C259 H265 0.929 . S
N260 Mn253 2.257 . S
N260 C259 1.326 . S
N260 C264 1.362 . S
C261 C262 1.258 . S
C261 C264 1.431 . S
C261 C281 1.449 . S
C262 C261 1.258 . S
C262 C263 1.477 . S
C262 H282 0.931 . S
C263 C259 1.460 . S
C263 C262 1.477 . S
C263 H283 0.930 . S
C264 N260 1.362 . S
C264 C261 1.431 . S
C264 C274 1.476 . S
H265 C259 0.929 . S
C266 O257 1.250 . S
C266 O258 1.258 . S
O267 Mn252 2.162 . S
O267 C255 1.281 . S
O268 Mn252 2.297 . S
O268 C255 1.236 . S
N269 Mn253 2.282 . S
N269 C270 1.328 1_556 S
N269 C274 1.318 . S
C270 N269 1.328 1_554 S
C270 C271 1.457 . S
C270 H275 0.929 . S
C271 C270 1.457 . S
C271 C272 1.291 . S
C271 H284 0.931 . S
C272 C271 1.291 . S
C272 C273 1.373 1_554 S
C272 H285 0.929 . S
C273 C272 1.373 1_556 S
C273 C274 1.396 . S
C273 C280 1.403 . S
C274 C264 1.476 . S
C274 N269 1.318 . S
C274 C273 1.396 . S
H275 C270 0.929 . S
O276 Mn252 2.385 1_554 S
O276 C254 1.234 1_554 S
O277 Mn252 2.209 . S
O277 Mn253 2.215 . S
O277 C254 1.283 . S
O278 Mn252 2.094 . S
O278 C256 1.240 . S
O279 Mn253 2.117 . S
O279 C256 1.264 . S
C280 C273 1.403 . S
C280 C281 1.399 . S
C280 H286 0.929 . S
C281 C261 1.449 . S
C281 C280 1.399 . S
C281 H287 0.930 . S
H282 C262 0.931 . S
H283 C263 0.930 . S
H284 C271 0.931 . S
H285 C272 0.929 . S
H286 C280 0.929 . S
H287 C281 0.930 . S
Mn288 O293 2.095 . S
Mn288 O303 2.162 . S
Mn288 O304 2.297 . S
Mn288 O312 2.385 . S
Mn288 O313 2.209 . S
Mn288 O314 2.094 . S
Mn289 O294 2.121 . S
Mn289 N296 2.257 . S
Mn289 N305 2.282 . S
Mn289 O313 2.215 . S
Mn289 O315 2.117 . S
C290 O312 1.234 . S
C290 O313 1.283 . S
C291 O303 1.281 . S
C291 O304 1.236 . S
C292 O314 1.240 . S
C292 O315 1.264 . S
O293 Mn288 2.095 . S
O293 C302 1.250 . S
O294 Mn289 2.121 . S
O294 C302 1.258 . S
C295 N296 1.326 . S
C295 C299 1.460 . S
C295 H301 0.929 . S
N296 Mn289 2.257 . S
N296 C295 1.326 . S
N296 C300 1.362 . S
C297 C298 1.258 . S
C297 C300 1.431 . S
C297 C317 1.449 . S
C298 C297 1.258 . S
C298 C299 1.477 . S
C298 H318 0.931 . S
C299 C295 1.460 . S
C299 C298 1.477 . S
C299 H319 0.930 . S
C300 N296 1.362 . S
C300 C297 1.431 . S
C300 C310 1.476 . S
H301 C295 0.929 . S
C302 O293 1.250 . S
C302 O294 1.258 . S
O303 Mn288 2.162 . S
O303 C291 1.281 . S
O304 Mn288 2.297 . S
O304 C291 1.236 . S
N305 Mn289 2.282 . S
N305 C306 1.328 . S
N305 C310 1.318 . S
C306 N305 1.328 . S
C306 C307 1.457 . S
C306 H311 0.929 . S
C307 C306 1.457 . S
C307 C308 1.291 . S
C307 H320 0.931 . S
C308 C307 1.291 . S
C308 C309 1.373 . S
C308 H321 0.929 . S
C309 C308 1.373 . S
C309 C310 1.396 . S
C309 C316 1.403 . S
C310 C300 1.476 . S
C310 N305 1.318 . S
C310 C309 1.396 . S
H311 C306 0.929 . S
O312 Mn288 2.385 . S
O312 C290 1.234 . S
O313 Mn288 2.209 . S
O313 Mn289 2.215 . S
O313 C290 1.283 . S
O314 Mn288 2.094 . S
O314 C292 1.240 . S
O315 Mn289 2.117 . S
O315 C292 1.264 . S
C316 C309 1.403 . S
C316 C317 1.399 . S
C316 H322 0.929 . S
C317 C297 1.449 . S
C317 C316 1.399 . S
C317 H323 0.930 . S
H318 C298 0.931 . S
H319 C299 0.930 . S
H320 C307 0.931 . S
H321 C308 0.929 . S
H322 C316 0.929 . S
H323 C317 0.930 . S
Mn324 O329 2.095 . S
Mn324 O339 2.162 . S
Mn324 O340 2.297 . S
Mn324 O348 2.385 . S
Mn324 O349 2.209 . S
Mn324 O350 2.094 . S
Mn325 O330 2.121 . S
Mn325 N332 2.257 . S
Mn325 N341 2.282 . S
Mn325 O349 2.215 . S
Mn325 O351 2.117 . S
C326 O348 1.234 . S
C326 O349 1.283 . S
C327 O339 1.281 . S
C327 O340 1.236 . S
C328 O350 1.240 . S
C328 O351 1.264 . S
O329 Mn324 2.095 . S
O329 C338 1.250 . S
O330 Mn325 2.121 . S
O330 C338 1.258 . S
C331 N332 1.326 . S
C331 C335 1.460 . S
C331 H337 0.929 . S
N332 Mn325 2.257 . S
N332 C331 1.326 . S
N332 C336 1.362 . S
C333 C334 1.258 . S
C333 C336 1.431 . S
C333 C353 1.449 . S
C334 C333 1.258 . S
C334 C335 1.477 . S
C334 H354 0.931 . S
C335 C331 1.460 . S
C335 C334 1.477 . S
C335 H355 0.930 . S
C336 N332 1.362 . S
C336 C333 1.431 . S
C336 C346 1.476 . S
H337 C331 0.929 . S
C338 O329 1.250 . S
C338 O330 1.258 . S
O339 Mn324 2.162 . S
O339 C327 1.281 . S
O340 Mn324 2.297 . S
O340 C327 1.236 . S
N341 Mn325 2.282 . S
N341 C342 1.328 . S
N341 C346 1.318 . S
C342 N341 1.328 . S
C342 C343 1.457 1_556 S
C342 H347 0.929 1_556 S
C343 C342 1.457 1_554 S
C343 C344 1.291 . S
C343 H356 0.931 . S
C344 C343 1.291 . S
C344 C345 1.373 1_554 S
C344 H357 0.929 . S
C345 C344 1.373 1_556 S
C345 C346 1.396 . S
C345 C352 1.403 . S
C346 C336 1.476 . S
C346 N341 1.318 . S
C346 C345 1.396 . S
H347 C342 0.929 1_554 S
O348 Mn324 2.385 . S
O348 C326 1.234 . S
O349 Mn324 2.209 . S
O349 Mn325 2.215 . S
O349 C326 1.283 . S
O350 Mn324 2.094 . S
O350 C328 1.240 . S
O351 Mn325 2.117 . S
O351 C328 1.264 . S
C352 C345 1.403 . S
C352 C353 1.399 . S
C352 H358 0.929 . S
C353 C333 1.449 . S
C353 C352 1.399 . S
C353 H359 0.930 . S
H354 C334 0.931 . S
H355 C335 0.930 . S
H356 C343 0.931 . S
H357 C344 0.929 . S
H358 C352 0.929 . S
H359 C353 0.930 . S
Mn360 O365 2.095 . S
Mn360 O375 2.162 . S
Mn360 O376 2.297 . S
Mn360 O384 2.385 . S
Mn360 O385 2.209 . S
Mn360 O386 2.094 . S
Mn361 O366 2.121 . S
Mn361 N368 2.257 . S
Mn361 N377 2.282 . S
Mn361 O385 2.215 . S
Mn361 O387 2.117 . S
C362 O384 1.234 . S
C362 O385 1.283 . S
C363 O375 1.281 . S
C363 O376 1.236 . S
C364 O386 1.240 . S
C364 O387 1.264 . S
O365 Mn360 2.095 . S
O365 C374 1.250 . S
O366 Mn361 2.121 . S
O366 C374 1.258 . S
C367 N368 1.326 . S
C367 C371 1.460 . S
C367 H373 0.929 . S
N368 Mn361 2.257 . S
N368 C367 1.326 . S
N368 C372 1.362 . S
C369 C370 1.258 . S
C369 C372 1.431 . S
C369 C389 1.449 . S
C370 C369 1.258 . S
C370 C371 1.477 . S
C370 H390 0.931 . S
C371 C367 1.460 . S
C371 C370 1.477 . S
C371 H391 0.930 . S
C372 N368 1.362 . S
C372 C369 1.431 . S
C372 C382 1.476 . S
H373 C367 0.929 . S
C374 O365 1.250 . S
C374 O366 1.258 . S
O375 Mn360 2.162 . S
O375 C363 1.281 . S
O376 Mn360 2.297 . S
O376 C363 1.236 . S
N377 Mn361 2.282 . S
N377 C378 1.328 . S
N377 C382 1.318 . S
C378 N377 1.328 . S
C378 C379 1.457 . S
C378 H383 0.929 . S
C379 C378 1.457 . S
C379 C380 1.291 . S
C379 H392 0.931 . S
C380 C379 1.291 . S
C380 C381 1.373 . S
C380 H393 0.929 . S
C381 C380 1.373 . S
C381 C382 1.396 . S
C381 C388 1.403 . S
C382 C372 1.476 . S
C382 N377 1.318 . S
C382 C381 1.396 . S
H383 C378 0.929 . S
O384 Mn360 2.385 . S
O384 C362 1.234 . S
O385 Mn360 2.209 . S
O385 Mn361 2.215 . S
O385 C362 1.283 . S
O386 Mn360 2.094 . S
O386 C364 1.240 . S
O387 Mn361 2.117 . S
O387 C364 1.264 . S
C388 C381 1.403 . S
C388 C389 1.399 . S
C388 H394 0.929 . S
C389 C369 1.449 . S
C389 C388 1.399 . S
C389 H395 0.930 . S
H390 C370 0.931 . S
H391 C371 0.930 . S
H392 C379 0.931 . S
H393 C380 0.929 . S
H394 C388 0.929 . S
H395 C389 0.930 . S
Mn396 O401 2.095 . S
Mn396 O411 2.162 . S
Mn396 O412 2.297 . S
Mn396 O420 2.397 . S
Mn396 O421 2.209 . S
Mn396 O422 2.094 . S
Mn397 O402 2.121 . S
Mn397 N404 2.257 . S
Mn397 N413 2.282 . S
Mn397 O421 2.215 . S
Mn397 O423 2.117 . S
C398 O420 1.246 . S
C398 O421 1.283 . S
C399 O411 1.281 . S
C399 O412 1.236 . S
C400 O422 1.240 . S
C400 O423 1.264 . S
O401 Mn396 2.095 . S
O401 C410 1.250 . S
O402 Mn397 2.121 . S
O402 C410 1.258 . S
C403 N404 1.326 . S
C403 C407 1.460 . S
C403 H409 0.929 . S
N404 Mn397 2.257 . S
N404 C403 1.326 . S
N404 C408 1.362 . S
C405 C406 1.258 . S
C405 C408 1.431 . S
C405 C425 1.449 . S
C406 C405 1.258 . S
C406 C407 1.477 . S
C406 H426 0.931 . S
C407 C403 1.460 . S
C407 C406 1.477 . S
C407 H427 0.930 . S
C408 N404 1.362 . S
C408 C405 1.431 . S
C408 C418 1.476 . S
H409 C403 0.929 . S
C410 O401 1.250 . S
C410 O402 1.258 . S
O411 Mn396 2.162 . S
O411 C399 1.281 . S
O412 Mn396 2.297 . S
O412 C399 1.236 . S
N413 Mn397 2.282 . S
N413 C414 1.328 1_556 S
N413 C418 1.318 . S
C414 N413 1.328 1_554 S
C414 C415 1.457 . S
C414 H419 0.929 . S
C415 C414 1.457 . S
C415 C416 1.291 . S
C415 H428 0.931 . S
C416 C415 1.291 . S
C416 C417 1.373 1_554 S
C416 H429 0.929 . S
C417 C416 1.373 1_556 S
C417 C418 1.396 . S
C417 C424 1.403 . S
C418 C408 1.476 . S
C418 N413 1.318 . S
C418 C417 1.396 . S
H419 C414 0.929 . S
O420 Mn396 2.397 . S
O420 C398 1.246 . S
O421 Mn396 2.209 . S
O421 Mn397 2.215 . S
O421 C398 1.283 . S
O422 Mn396 2.094 . S
O422 C400 1.240 . S
O423 Mn397 2.117 . S
O423 C400 1.264 . S
C424 C417 1.403 . S
C424 C425 1.399 . S
C424 H430 0.929 . S
C425 C405 1.449 . S
C425 C424 1.399 . S
C425 H431 0.930 . S
H426 C406 0.931 . S
H427 C407 0.930 . S
H428 C415 0.931 . S
H429 C416 0.929 . S
H430 C424 0.929 . S
H431 C425 0.930 . S
C432 C433 1.363 . S
C432 C438 1.379 . S
C432 N440 1.356 . S
C433 C432 1.363 . S
C433 C439 1.363 . S
C434 C435 1.363 . S
C434 C439 1.379 . S
C434 N441 1.356 . S
C435 C434 1.363 . S
C435 C438 1.363 . S
N436 C438 1.356 . S
N436 H448 0.984 . S
N436 H449 0.985 . S
N437 C439 1.356 . S
N437 H442 0.984 . S
N437 H443 0.985 . S
C438 C432 1.379 . S
C438 C435 1.363 . S
C438 N436 1.356 . S
C439 C433 1.363 . S
C439 C434 1.379 . S
C439 N437 1.356 . S
N440 C432 1.356 . S
N440 H446 0.984 . S
N440 H447 0.984 . S
N441 C434 1.356 . S
N441 H444 0.984 . S
N441 H445 0.985 . S
H442 N437 0.984 . S
H443 N437 0.985 . S
H444 N441 0.984 . S
H445 N441 0.985 . S
H446 N440 0.984 . S
H447 N440 0.984 . S
H448 N436 0.984 . S
H449 N436 0.985 . S
C450 C451 1.363 . S
C450 C456 1.379 . S
C450 N458 1.356 . S
C451 C450 1.363 . S
C451 C457 1.363 . S
C452 C453 1.363 . S
C452 C457 1.379 . S
C452 N459 1.356 . S
C453 C452 1.363 . S
C453 C456 1.363 . S
N454 C456 1.356 . S
N454 H466 0.984 . S
N454 H467 0.985 . S
N455 C457 1.356 . S
N455 H460 0.984 . S
N455 H461 0.985 . S
C456 C450 1.379 . S
C456 C453 1.363 . S
C456 N454 1.356 . S
C457 C451 1.363 . S
C457 C452 1.379 . S
C457 N455 1.356 . S
N458 C450 1.356 . S
N458 H464 0.984 . S
N458 H465 0.984 . S
N459 C452 1.356 . S
N459 H462 0.984 . S
N459 H463 0.985 . S
H460 N455 0.984 . S
H461 N455 0.985 . S
H462 N459 0.984 . S
H463 N459 0.985 . S
H464 N458 0.984 . S
H465 N458 0.984 . S
H466 N454 0.984 . S
H467 N454 0.985 . S
C468 C469 1.363 . S
C468 C474 1.379 . S
C468 N476 1.356 . S
C469 C468 1.363 . S
C469 C475 1.363 . S
C470 C471 1.363 . S
C470 C475 1.379 . S
C470 N477 1.356 . S
C471 C470 1.363 . S
C471 C474 1.363 . S
N472 C474 1.356 . S
N472 H484 0.984 . S
N472 H485 0.985 . S
N473 C475 1.356 . S
N473 H478 0.984 . S
N473 H479 0.985 . S
C474 C468 1.379 . S
C474 C471 1.363 . S
C474 N472 1.356 . S
C475 C469 1.363 . S
C475 C470 1.379 . S
C475 N473 1.356 . S
N476 C468 1.356 . S
N476 H482 0.984 . S
N476 H483 0.984 . S
N477 C470 1.356 . S
N477 H480 0.984 . S
N477 H481 0.985 . S
H478 N473 0.984 . S
H479 N473 0.985 . S
H480 N477 0.984 . S
H481 N477 0.985 . S
H482 N476 0.984 . S
H483 N476 0.984 . S
H484 N472 0.984 . S
H485 N472 0.985 . S
C486 C487 1.363 . S
C486 C492 1.379 . S
C486 N494 1.356 . S
C487 C486 1.363 . S
C487 C493 1.363 . S
C488 C489 1.363 . S
C488 C493 1.379 . S
C488 N495 1.356 . S
C489 C488 1.363 . S
C489 C492 1.363 . S
N490 C492 1.356 . S
N490 H502 0.984 . S
N490 H503 0.985 . S
N491 C493 1.356 . S
N491 H496 0.984 . S
N491 H497 0.985 . S
C492 C486 1.379 . S
C492 C489 1.363 . S
C492 N490 1.356 . S
C493 C487 1.363 . S
C493 C488 1.379 . S
C493 N491 1.356 . S
N494 C486 1.356 . S
N494 H500 0.984 . S
N494 H501 0.984 . S
N495 C488 1.356 . S
N495 H498 0.984 . S
N495 H499 0.985 . S
H496 N491 0.984 . S
H497 N491 0.985 . S
H498 N495 0.984 . S
H499 N495 0.985 . S
H500 N494 0.984 . S
H501 N494 0.984 . S
H502 N490 0.984 . S
H503 N490 0.985 . S
C504 C505 1.363 . S
C504 C510 1.379 . S
C504 N512 1.356 . S
C505 C504 1.363 . S
C505 C511 1.363 . S
C506 C507 1.363 . S
C506 C511 1.379 . S
C506 N513 1.356 . S
C507 C506 1.363 . S
C507 C510 1.363 . S
N508 C510 1.356 . S
N508 H520 0.984 . S
N508 H521 0.985 . S
N509 C511 1.356 . S
N509 H514 0.984 . S
N509 H515 0.985 . S
C510 C504 1.379 . S
C510 C507 1.363 . S
C510 N508 1.356 . S
C511 C505 1.363 . S
C511 C506 1.379 . S
C511 N509 1.356 . S
N512 C504 1.356 . S
N512 H518 0.984 . S
N512 H519 0.984 . S
N513 C506 1.356 . S
N513 H516 0.984 . S
N513 H517 0.985 . S
H514 N509 0.984 . S
H515 N509 0.985 . S
H516 N513 0.984 . S
H517 N513 0.985 . S
H518 N512 0.984 . S
H519 N512 0.984 . S
H520 N508 0.984 . S
H521 N508 0.985 . S
C522 C523 1.363 . S
C522 C528 1.379 . S
C522 N530 1.356 . S
C523 C522 1.363 . S
C523 C529 1.363 . S
C524 C525 1.363 . S
C524 C529 1.379 . S
C524 N531 1.356 . S
C525 C524 1.363 . S
C525 C528 1.363 . S
N526 C528 1.356 . S
N526 H538 0.984 . S
N526 H539 0.985 . S
N527 C529 1.356 . S
N527 H532 0.984 . S
N527 H533 0.985 . S
C528 C522 1.379 . S
C528 C525 1.363 . S
C528 N526 1.356 . S
C529 C523 1.363 . S
C529 C524 1.379 . S
C529 N527 1.356 . S
N530 C522 1.356 . S
N530 H536 0.984 . S
N530 H537 0.984 . S
N531 C524 1.356 . S
N531 H534 0.984 . S
N531 H535 0.985 . S
H532 N527 0.984 . S
H533 N527 0.985 . S
H534 N531 0.984 . S
H535 N531 0.985 . S
H536 N530 0.984 . S
H537 N530 0.984 . S
H538 N526 0.984 . S
H539 N526 0.985 . S
C540 C541 1.363 1_556 S
C540 C546 1.382 . S
C540 N548 1.356 . S
C541 C540 1.363 1_554 S
C541 C547 1.363 . S
C542 C543 1.363 1_554 S
C542 C547 1.379 1_565 S
C542 N549 1.356 . S
C543 C542 1.363 1_556 S
C543 C546 1.358 1_565 S
N544 C546 1.357 1_565 S
N544 H556 0.984 1_565 S
N544 H557 0.985 . S
N545 C547 1.356 . S
N545 H550 0.984 . S
N545 H551 0.985 1_545 S
C546 C540 1.382 . S
C546 C543 1.358 1_545 S
C546 N544 1.357 1_545 S
C547 C541 1.363 . S
C547 C542 1.379 1_545 S
C547 N545 1.356 . S
N548 C540 1.356 . S
N548 H554 0.984 . S
N548 H555 0.984 . S
N549 C542 1.356 . S
N549 H552 0.984 . S
N549 H553 0.985 . S
H550 N545 0.984 . S
H551 N545 0.985 1_565 S
H552 N549 0.984 . S
H553 N549 0.985 . S
H554 N548 0.984 . S
H555 N548 0.984 . S
H556 N544 0.984 1_545 S
H557 N544 0.985 . S
C558 C559 1.363 . S
C558 C564 1.379 . S
C558 N566 1.356 . S
C559 C558 1.363 . S
C559 C565 1.363 . S
C560 C561 1.363 . S
C560 C565 1.379 . S
C560 N567 1.356 . S
C561 C560 1.363 . S
C561 C564 1.363 . S
N562 C564 1.356 . S
N562 H574 0.984 . S
N562 H575 0.985 . S
N563 C565 1.356 . S
N563 H568 0.984 . S
N563 H569 0.985 . S
C564 C558 1.379 . S
C564 C561 1.363 . S
C564 N562 1.356 . S
C565 C559 1.363 . S
C565 C560 1.379 . S
C565 N563 1.356 . S
N566 C558 1.356 . S
N566 H572 0.984 . S
N566 H573 0.984 . S
N567 C560 1.356 . S
N567 H570 0.984 . S
N567 H571 0.985 . S
H568 N563 0.984 . S
H569 N563 0.985 . S
H570 N567 0.984 . S
H571 N567 0.985 . S
H572 N566 0.984 . S
H573 N566 0.984 . S
H574 N562 0.984 . S
H575 N562 0.985 . S
C576 C577 1.363 1_554 S
C576 C582 1.379 1_455 S
C576 N584 1.356 . S
C577 C576 1.363 1_556 S
C577 C583 1.363 . S
C578 C579 1.363 1_556 S
C578 C583 1.379 1_655 S
C578 N585 1.356 . S
C579 C578 1.363 1_554 S
C579 C582 1.363 . S
N580 C582 1.356 . S
N580 H592 0.991 . S
N580 H593 0.985 . S
N581 C583 1.356 . S
N581 H586 0.984 . S
N581 H587 0.985 . S
C582 C576 1.379 1_655 S
C582 C579 1.363 . S
C582 N580 1.356 . S
C583 C577 1.363 . S
C583 C578 1.379 1_455 S
C583 N581 1.356 . S
N584 C576 1.356 . S
N584 H590 0.984 . S
N584 H591 0.984 . S
N585 C578 1.356 . S
N585 H588 0.984 . S
N585 H589 0.985 . S
H586 N581 0.984 . S
H587 N581 0.985 . S
H588 N585 0.984 . S
H589 N585 0.985 . S
H590 N584 0.984 . S
H591 N584 0.984 . S
H592 N580 0.991 . S
H593 N580 0.985 . S
C594 C595 1.363 . S
C594 C600 1.379 1_545 S
C594 N602 1.356 . S
C595 C594 1.363 . S
C595 C601 1.352 1_545 S
C596 C597 1.363 . S
C596 C601 1.385 . S
C596 N603 1.356 . S
C597 C596 1.363 . S
C597 C600 1.363 . S
N598 C600 1.356 . S
N598 H610 0.984 1_565 S
N598 H611 0.985 . S
N599 C601 1.358 1_545 S
N599 H604 0.984 . S
N599 H605 0.985 1_545 S
C600 C594 1.379 1_565 S
C600 C597 1.363 . S
C600 N598 1.356 . S
C601 C595 1.352 1_565 S
C601 C596 1.385 . S
C601 N599 1.358 1_565 S
N602 C594 1.356 . S
N602 H608 0.984 . S
N602 H609 0.984 . S
N603 C596 1.356 . S
N603 H606 0.984 . S
N603 H607 0.985 . S
H604 N599 0.984 . S
H605 N599 0.985 1_565 S
H606 N603 0.984 . S
H607 N603 0.985 . S
H608 N602 0.984 . S
H609 N602 0.984 . S
H610 N598 0.984 1_545 S
H611 N598 0.985 . S
C612 C613 1.363 1_554 S
C612 C618 1.379 . S
C612 N620 1.356 . S
C613 C612 1.363 1_556 S
C613 C619 1.363 . S
C614 C615 1.363 1_556 S
C614 C619 1.379 . S
C614 N621 1.356 . S
C615 C614 1.363 1_554 S
C615 C618 1.363 . S
N616 C618 1.356 . S
N616 H628 0.984 . S
N616 H629 0.985 . S
N617 C619 1.356 . S
N617 H622 0.984 . S
N617 H623 0.985 . S
C618 C612 1.379 . S
C618 C615 1.363 . S
C618 N616 1.356 . S
C619 C613 1.363 . S
C619 C614 1.379 . S
C619 N617 1.356 . S
N620 C612 1.356 . S
N620 H626 0.984 . S
N620 H627 0.984 . S
N621 C614 1.356 . S
N621 H624 0.984 . S
N621 H625 0.985 . S
H622 N617 0.984 . S
H623 N617 0.985 . S
H624 N621 0.984 . S
H625 N621 0.985 . S
H626 N620 0.984 . S
H627 N620 0.984 . S
H628 N616 0.984 . S
H629 N616 0.985 . S
C630 C631 1.363 . S
C630 C636 1.379 1_655 S
C630 N638 1.356 . S
C631 C630 1.363 . S
C631 C637 1.363 . S
C632 C633 1.381 . S
C632 C637 1.367 1_455 S
C632 N639 1.356 . S
C633 C632 1.381 . S
C633 C636 1.363 . S
N634 C636 1.356 . S
N634 H646 0.984 . S
N634 H647 0.985 . S
N635 C637 1.356 . S
N635 H640 0.984 . S
N635 H641 0.985 . S
C636 C630 1.379 1_455 S
C636 C633 1.363 . S
C636 N634 1.356 . S
C637 C631 1.363 . S
C637 C632 1.367 1_655 S
C637 N635 1.356 . S
N638 C630 1.356 . S
N638 H644 0.984 1_655 S
N638 H645 0.984 . S
N639 C632 1.356 . S
N639 H642 0.984 . S
N639 H643 0.985 1_455 S
H640 N635 0.984 . S
H641 N635 0.985 . S
H642 N639 0.984 . S
H643 N639 0.985 1_655 S
H644 N638 0.984 1_455 S
H645 N638 0.984 . S
H646 N634 0.984 . S
H647 N634 0.985 . S
C648 C649 1.363 . S
C648 C654 1.379 . S
C648 N656 1.356 . S
C649 C648 1.363 . S
C649 C655 1.363 . S
C650 C651 1.363 . S
C650 C655 1.379 . S
C650 N657 1.356 . S
C651 C650 1.363 . S
C651 C654 1.363 . S
N652 C654 1.356 . S
N652 H664 0.984 . S
N652 H665 0.985 . S
N653 C655 1.356 . S
N653 H658 0.984 . S
N653 H659 0.985 . S
C654 C648 1.379 . S
C654 C651 1.363 . S
C654 N652 1.356 . S
C655 C649 1.363 . S
C655 C650 1.379 . S
C655 N653 1.356 . S
N656 C648 1.356 . S
N656 H662 0.984 1_554 S
N656 H663 0.984 . S
N657 C650 1.356 . S
N657 H660 0.984 . S
N657 H661 0.985 . S
H658 N653 0.984 . S
H659 N653 0.985 . S
H660 N657 0.984 . S
H661 N657 0.985 . S
H662 N656 0.984 1_556 S
H663 N656 0.984 . S
H664 N652 0.984 . S
H665 N652 0.985 . S
C666 C667 1.363 . S
C666 C672 1.379 . S
C666 N674 1.356 . S
C667 C666 1.363 . S
C667 C673 1.363 . S
C668 C669 1.363 . S
C668 C673 1.379 . S
C668 N675 1.356 . S
C669 C668 1.363 . S
C669 C672 1.363 . S
N670 C672 1.356 . S
N670 H682 0.984 . S
N670 H683 0.985 . S
N671 C673 1.356 . S
N671 H676 0.984 . S
N671 H677 0.985 . S
C672 C666 1.379 . S
C672 C669 1.363 . S
C672 N670 1.356 . S
C673 C667 1.363 . S
C673 C668 1.379 . S
C673 N671 1.356 . S
N674 C666 1.356 . S
N674 H680 0.984 . S
N674 H681 0.984 . S
N675 C668 1.356 . S
N675 H678 0.984 . S
N675 H679 0.985 . S
H676 N671 0.984 . S
H677 N671 0.985 . S
H678 N675 0.984 . S
H679 N675 0.985 . S
H680 N674 0.984 . S
H681 N674 0.984 . S
H682 N670 0.984 . S
H683 N670 0.985 . S
C684 C685 1.363 . S
C684 C690 1.379 . S
C684 N692 1.356 . S
C685 C684 1.363 . S
C685 C691 1.363 1_554 S
C686 C687 1.342 1_556 S
C686 C691 1.384 . S
C686 N693 1.367 . S
C687 C686 1.342 1_554 S
C687 C690 1.363 . S
N688 C690 1.356 . S
N688 H700 0.984 . S
N688 H701 0.985 . S
N689 C691 1.356 . S
N689 H694 0.984 . S
N689 H695 0.985 . S
C690 C684 1.379 . S
C690 C687 1.363 . S
C690 N688 1.356 . S
C691 C685 1.363 1_556 S
C691 C686 1.384 . S
C691 N689 1.356 . S
N692 C684 1.356 . S
N692 H698 0.984 . S
N692 H699 0.984 . S
N693 C686 1.367 . S
N693 H696 0.984 . S
N693 H697 0.985 . S
H694 N689 0.984 . S
H695 N689 0.985 . S
H696 N693 0.984 . S
H697 N693 0.985 . S
H698 N692 0.984 . S
H699 N692 0.984 . S
H700 N688 0.984 . S
H701 N688 0.985 . S
C702 C703 1.363 . S
C702 C708 1.379 . S
C702 N710 1.356 . S
C703 C702 1.363 . S
C703 C709 1.363 . S
C704 C705 1.363 . S
C704 C709 1.379 . S
C704 N711 1.356 . S
C705 C704 1.363 . S
C705 C708 1.363 . S
N706 C708 1.356 . S
N706 H718 0.984 . S
N706 H719 0.985 . S
N707 C709 1.356 . S
N707 H712 0.984 . S
N707 H713 0.985 . S
C708 C702 1.379 . S
C708 C705 1.363 . S
C708 N706 1.356 . S
C709 C703 1.363 . S
C709 C704 1.379 . S
C709 N707 1.356 . S
N710 C702 1.356 . S
N710 H716 0.984 . S
N710 H717 0.984 . S
N711 C704 1.356 . S
N711 H714 0.984 . S
N711 H715 0.985 . S
H712 N707 0.984 . S
H713 N707 0.985 . S
H714 N711 0.984 . S
H715 N711 0.985 . S
H716 N710 0.984 . S
H717 N710 0.984 . S
H718 N706 0.984 . S
H719 N706 0.985 . S
C720 C721 1.363 . S
C720 C726 1.379 . S
C720 N728 1.356 . S
C721 C720 1.363 . S
C721 C727 1.363 . S
C722 C723 1.363 . S
C722 C727 1.379 . S
C722 N729 1.356 . S
C723 C722 1.363 . S
C723 C726 1.363 . S
N724 C726 1.356 . S
N724 H736 0.984 . S
N724 H737 0.985 . S
N725 C727 1.356 . S
N725 H730 0.984 . S
N725 H731 0.985 . S
C726 C720 1.379 . S
C726 C723 1.363 . S
C726 N724 1.356 . S
C727 C721 1.363 . S
C727 C722 1.379 . S
C727 N725 1.356 . S
N728 C720 1.356 . S
N728 H734 0.984 . S
N728 H735 0.984 . S
N729 C722 1.356 . S
N729 H732 0.984 . S
N729 H733 0.985 . S
H730 N725 0.984 . S
H731 N725 0.985 . S
H732 N729 0.984 . S
H733 N729 0.985 . S
H734 N728 0.984 . S
H735 N728 0.984 . S
H736 N724 0.984 . S
H737 N724 0.985 . S
C738 C739 1.363 . S
C738 C744 1.379 . S
C738 N746 1.356 . S
C739 C738 1.363 . S
C739 C745 1.363 . S
C740 C741 1.363 . S
C740 C745 1.379 . S
C740 N747 1.356 . S
C741 C740 1.363 . S
C741 C744 1.363 . S
N742 C744 1.356 . S
N742 H754 0.984 . S
N742 H755 0.985 . S
N743 C745 1.356 . S
N743 H748 0.984 . S
N743 H749 0.985 . S
C744 C738 1.379 . S
C744 C741 1.363 . S
C744 N742 1.356 . S
C745 C739 1.363 . S
C745 C740 1.379 . S
C745 N743 1.356 . S
N746 C738 1.356 . S
N746 H752 0.984 . S
N746 H753 0.984 . S
N747 C740 1.356 . S
N747 H750 0.984 . S
N747 H751 0.985 . S
H748 N743 0.984 . S
H749 N743 0.985 . S
H750 N747 0.984 . S
H751 N747 0.985 . S
H752 N746 0.984 . S
H753 N746 0.984 . S
H754 N742 0.984 . S
H755 N742 0.985 . S
C756 C757 1.363 . S
C756 C762 1.379 . S
C756 N764 1.356 . S
C757 C756 1.363 . S
C757 C763 1.363 . S
C758 C759 1.363 . S
C758 C763 1.379 . S
C758 N765 1.356 . S
C759 C758 1.363 . S
C759 C762 1.363 . S
N760 C762 1.356 . S
N760 H772 0.984 . S
N760 H773 0.985 . S
N761 C763 1.356 . S
N761 H766 0.984 . S
N761 H767 0.985 . S
C762 C756 1.379 . S
C762 C759 1.363 . S
C762 N760 1.356 . S
C763 C757 1.363 . S
C763 C758 1.379 . S
C763 N761 1.356 . S
N764 C756 1.356 . S
N764 H770 0.984 . S
N764 H771 0.984 . S
N765 C758 1.356 . S
N765 H768 0.984 . S
N765 H769 0.985 . S
H766 N761 0.984 . S
H767 N761 0.985 . S
H768 N765 0.984 . S
H769 N765 0.985 . S
H770 N764 0.984 . S
H771 N764 0.984 . S
H772 N760 0.984 . S
H773 N760 0.985 . S
C774 C775 1.363 1_554 S
C774 C780 1.379 1_554 S
C774 N782 1.356 . S
C775 C774 1.363 1_556 S
C775 C781 1.363 . S
C776 C777 1.363 . S
C776 C781 1.379 . S
C776 N783 1.356 . S
C777 C776 1.363 . S
C777 C780 1.363 . S
N778 C780 1.356 1_554 S
N778 H790 0.984 . S
N778 H791 0.985 1_554 S
N779 C781 1.356 . S
N779 H784 0.984 . S
N779 H785 0.985 . S
C780 C774 1.379 1_556 S
C780 C777 1.363 . S
C780 N778 1.356 1_556 S
C781 C775 1.363 . S
C781 C776 1.379 . S
C781 N779 1.356 . S
N782 C774 1.356 . S
N782 H788 0.984 . S
N782 H789 0.984 . S
N783 C776 1.356 . S
N783 H786 0.984 . S
N783 H787 0.985 . S
H784 N779 0.984 . S
H785 N779 0.985 . S
H786 N783 0.984 . S
H787 N783 0.985 . S
H788 N782 0.984 . S
H789 N782 0.984 . S
H790 N778 0.984 . S
H791 N778 0.985 1_556 S
C792 C793 1.363 . S
C792 C798 1.379 . S
C792 N800 1.356 . S
C793 C792 1.363 . S
C793 C799 1.363 . S
C794 C795 1.363 . S
C794 C799 1.379 . S
C794 N801 1.356 . S
C795 C794 1.363 . S
C795 C798 1.363 . S
N796 C798 1.356 . S
N796 H808 0.984 . S
N796 H809 0.985 . S
N797 C799 1.356 . S
N797 H802 0.984 . S
N797 H803 0.985 . S
C798 C792 1.379 . S
C798 C795 1.363 . S
C798 N796 1.356 . S
C799 C793 1.363 . S
C799 C794 1.379 . S
C799 N797 1.356 . S
N800 C792 1.356 . S
N800 H806 0.984 . S
N800 H807 0.984 . S
N801 C794 1.356 . S
N801 H804 0.984 . S
N801 H805 0.985 . S
H802 N797 0.984 . S
H803 N797 0.985 . S
H804 N801 0.984 . S
H805 N801 0.985 . S
H806 N800 0.984 . S
H807 N800 0.984 . S
H808 N796 0.984 . S
H809 N796 0.985 . S
C810 C811 1.363 . S
C810 C816 1.379 . S
C810 N818 1.356 1_556 S
C811 C810 1.363 . S
C811 C817 1.363 . S
C812 C813 1.363 . S
C812 C817 1.379 . S
C812 N819 1.356 . S
C813 C812 1.363 . S
C813 C816 1.363 . S
N814 C816 1.356 . S
N814 H826 0.984 . S
N814 H827 0.985 . S
N815 C817 1.356 . S
N815 H820 0.984 . S
N815 H821 0.985 . S
C816 C810 1.379 . S
C816 C813 1.363 . S
C816 N814 1.356 . S
C817 C811 1.363 . S
C817 C812 1.379 . S
C817 N815 1.356 . S
N818 C810 1.356 1_554 S
N818 H824 0.984 . S
N818 H825 0.984 . S
N819 C812 1.356 . S
N819 H822 0.984 . S
N819 H823 0.985 . S
H820 N815 0.984 . S
H821 N815 0.985 . S
H822 N819 0.984 . S
H823 N819 0.985 . S
H824 N818 0.984 . S
H825 N818 0.984 . S
H826 N814 0.984 . S
H827 N814 0.985 . S
C828 C829 1.363 . S
C828 C834 1.379 . S
C828 N836 1.356 . S
C829 C828 1.363 . S
C829 C835 1.363 . S
C830 C831 1.363 . S
C830 C835 1.379 . S
C830 N837 1.356 . S
C831 C830 1.363 . S
C831 C834 1.363 . S
N832 C834 1.356 . S
N832 H844 0.984 . S
N832 H845 0.985 . S
N833 C835 1.356 . S
N833 H838 0.984 . S
N833 H839 0.985 . S
C834 C828 1.379 . S
C834 C831 1.363 . S
C834 N832 1.356 . S
C835 C829 1.363 . S
C835 C830 1.379 . S
C835 N833 1.356 . S
N836 C828 1.356 . S
N836 H842 0.984 . S
N836 H843 0.984 . S
N837 C830 1.356 . S
N837 H840 0.984 . S
N837 H841 0.985 . S
H838 N833 0.984 . S
H839 N833 0.985 . S
H840 N837 0.984 . S
H841 N837 0.985 . S
H842 N836 0.984 . S
H843 N836 0.984 . S
H844 N832 0.984 . S
H845 N832 0.985 . S
C846 C847 1.363 . S
C846 C852 1.379 . S
C846 N854 1.356 . S
C847 C846 1.363 . S
C847 C853 1.354 1_556 S
C848 C849 1.363 . S
C848 C853 1.376 1_556 S
C848 N855 1.356 1_556 S
C849 C848 1.363 . S
C849 C852 1.363 . S
N850 C852 1.356 . S
N850 H862 0.984 . S
N850 H863 0.985 . S
N851 C853 1.366 . S
N851 H856 0.984 . S
N851 H857 0.985 . S
C852 C846 1.379 . S
C852 C849 1.363 . S
C852 N850 1.356 . S
C853 C847 1.354 1_554 S
C853 C848 1.376 1_554 S
C853 N851 1.366 . S
N854 C846 1.356 . S
N854 H860 0.984 . S
N854 H861 0.984 . S
N855 C848 1.356 1_554 S
N855 H858 0.984 1_554 S
N855 H859 0.985 . S
H856 N851 0.984 . S
H857 N851 0.985 . S
H858 N855 0.984 1_556 S
H859 N855 0.985 . S
H860 N854 0.984 . S
H861 N854 0.984 . S
H862 N850 0.984 . S
H863 N850 0.985 . S
C433 C374 1.577 . S
C435 C14 1.541 . S
C451 C50 1.466 . S
C453 C410 1.466 . S
C469 C86 1.577 . S
C471 C230 1.541 . S
C487 C266 1.577 . S
C489 C122 1.541 . S
C505 C302 1.466 . S
C507 C158 1.466 . S
C523 C194 1.577 . S
C525 C338 1.541 . S
C541 C4 1.192 . S
C543 C256 1.212 . S
C559 C40 1.000 . S
C561 C292 1.000 . S
C577 C328 1.192 . S
C579 C76 1.212 . S
C595 C364 1.212 . S
C597 C112 1.192 . S
C613 C400 1.000 . S
C615 C148 1.000 . S
C631 C220 1.192 . S
C633 C184 1.212 . S
C649 C2 1.125 . S
C651 C147 1.129 . S
C667 C38 1.160 . S
C669 C183 1.231 . S
C685 C74 1.167 . S
C687 C3 1.222 . S
C703 C110 1.125 . S
C705 C39 1.129 . S
C721 C146 1.160 . S
C723 C75 1.231 . S
C739 C182 1.167 . S
C741 C111 1.222 . S
C757 C218 1.125 . S
C759 C291 1.129 . S
C775 C254 1.167 . S
C777 C327 1.222 . S
C793 C363 1.231 . S
C795 C290 1.160 . S
C811 C326 1.125 . S
C813 C399 1.129 . S
C829 C362 1.167 . S
C831 C219 1.222 . S
C847 C398 1.160 . S
C849 C255 1.231 . S
