# Generated by pormake.
# Topology uox, (4)-cn, num edge types: 1
# Building blocks:
#     Node 0, Type 0, BuildingBlock: AZAVOO_clean_sbu_0, # of connection points: 4
#     Node 1, Type 0, BuildingBlock: AZAVOO_clean_sbu_0, # of connection points: 4
#     Node 2, Type 0, BuildingBlock: AZAVOO_clean_sbu_0, # of connection points: 4
#     Node 3, Type 0, BuildingBlock: AZAVOO_clean_sbu_0, # of connection points: 4
#     Node 4, Type 0, BuildingBlock: AZAVOO_clean_sbu_0, # of connection points: 4
#     Node 5, Type 0, BuildingBlock: AZAVOO_clean_sbu_0, # of connection points: 4
#     Node 6, Type 0, BuildingBlock: AZAVOO_clean_sbu_0, # of connection points: 4
#     Node 7, Type 0, BuildingBlock: AZAVOO_clean_sbu_0, # of connection points: 4
#     Node 8, Type 0, BuildingBlock: AZAVOO_clean_sbu_0, # of connection points: 4
#     Node 9, Type 0, BuildingBlock: AZAVOO_clean_sbu_0, # of connection points: 4
#     Node 10, Type 0, BuildingBlock: AZAVOO_clean_sbu_0, # of connection points: 4
#     Node 11, Type 0, BuildingBlock: AZAVOO_clean_sbu_0, # of connection points: 4
#     Node 12, Type 0, BuildingBlock: AZAVOO_clean_sbu_0, # of connection points: 4
#     Node 13, Type 0, BuildingBlock: AZAVOO_clean_sbu_0, # of connection points: 4
#     Node 14, Type 0, BuildingBlock: AZAVOO_clean_sbu_0, # of connection points: 4
#     Node 15, Type 0, BuildingBlock: AZAVOO_clean_sbu_0, # of connection points: 4
#     Node 16, Type 0, BuildingBlock: AZAVOO_clean_sbu_0, # of connection points: 4
#     Node 17, Type 0, BuildingBlock: AZAVOO_clean_sbu_0, # of connection points: 4
#     Node 18, Type 0, BuildingBlock: AZAVOO_clean_sbu_0, # of connection points: 4
#     Node 19, Type 0, BuildingBlock: AZAVOO_clean_sbu_0, # of connection points: 4
#     Node 20, Type 0, BuildingBlock: AZAVOO_clean_sbu_0, # of connection points: 4
#     Node 21, Type 0, BuildingBlock: AZAVOO_clean_sbu_0, # of connection points: 4
#     Node 22, Type 0, BuildingBlock: AZAVOO_clean_sbu_0, # of connection points: 4
#     Node 23, Type 0, BuildingBlock: AZAVOO_clean_sbu_0, # of connection points: 4
#     Node 24, Type 0, BuildingBlock: AZAVOO_clean_sbu_0, # of connection points: 4
#     Node 25, Type 0, BuildingBlock: AZAVOO_clean_sbu_0, # of connection points: 4
#     Node 26, Type 0, BuildingBlock: AZAVOO_clean_sbu_0, # of connection points: 4
#     Node 27, Type 0, BuildingBlock: AZAVOO_clean_sbu_0, # of connection points: 4
#     Node 28, Type 0, BuildingBlock: AZAVOO_clean_sbu_0, # of connection points: 4
#     Node 29, Type 0, BuildingBlock: AZAVOO_clean_sbu_0, # of connection points: 4
#     Node 30, Type 0, BuildingBlock: AZAVOO_clean_sbu_0, # of connection points: 4
#     Node 31, Type 0, BuildingBlock: AZAVOO_clean_sbu_0, # of connection points: 4
#     Edge 32, Type (0, 0), BuildingBlock: XUDNAN_clean_linker_2, # of connection points: 2
#     Edge 33, Type (0, 0), BuildingBlock: XUDNAN_clean_linker_2, # of connection points: 2
#     Edge 34, Type (0, 0), BuildingBlock: XUDNAN_clean_linker_2, # of connection points: 2
#     Edge 35, Type (0, 0), BuildingBlock: XUDNAN_clean_linker_2, # of connection points: 2
#     Edge 36, Type (0, 0), BuildingBlock: XUDNAN_clean_linker_2, # of connection points: 2
#     Edge 37, Type (0, 0), BuildingBlock: XUDNAN_clean_linker_2, # of connection points: 2
#     Edge 38, Type (0, 0), BuildingBlock: XUDNAN_clean_linker_2, # of connection points: 2
#     Edge 39, Type (0, 0), BuildingBlock: XUDNAN_clean_linker_2, # of connection points: 2
#     Edge 40, Type (0, 0), BuildingBlock: XUDNAN_clean_linker_2, # of connection points: 2
#     Edge 41, Type (0, 0), BuildingBlock: XUDNAN_clean_linker_2, # of connection points: 2
#     Edge 42, Type (0, 0), BuildingBlock: XUDNAN_clean_linker_2, # of connection points: 2
#     Edge 43, Type (0, 0), BuildingBlock: XUDNAN_clean_linker_2, # of connection points: 2
#     Edge 44, Type (0, 0), BuildingBlock: XUDNAN_clean_linker_2, # of connection points: 2
#     Edge 45, Type (0, 0), BuildingBlock: XUDNAN_clean_linker_2, # of connection points: 2
#     Edge 46, Type (0, 0), BuildingBlock: XUDNAN_clean_linker_2, # of connection points: 2
#     Edge 47, Type (0, 0), BuildingBlock: XUDNAN_clean_linker_2, # of connection points: 2
#     Edge 48, Type (0, 0), BuildingBlock: XUDNAN_clean_linker_2, # of connection points: 2
#     Edge 49, Type (0, 0), BuildingBlock: XUDNAN_clean_linker_2, # of connection points: 2
#     Edge 50, Type (0, 0), BuildingBlock: XUDNAN_clean_linker_2, # of connection points: 2
#     Edge 51, Type (0, 0), BuildingBlock: XUDNAN_clean_linker_2, # of connection points: 2
#     Edge 52, Type (0, 0), BuildingBlock: XUDNAN_clean_linker_2, # of connection points: 2
#     Edge 53, Type (0, 0), BuildingBlock: XUDNAN_clean_linker_2, # of connection points: 2
#     Edge 54, Type (0, 0), BuildingBlock: XUDNAN_clean_linker_2, # of connection points: 2
#     Edge 55, Type (0, 0), BuildingBlock: XUDNAN_clean_linker_2, # of connection points: 2
#     Edge 56, Type (0, 0), BuildingBlock: XUDNAN_clean_linker_2, # of connection points: 2
#     Edge 57, Type (0, 0), BuildingBlock: XUDNAN_clean_linker_2, # of connection points: 2
#     Edge 58, Type (0, 0), BuildingBlock: XUDNAN_clean_linker_2, # of connection points: 2
#     Edge 59, Type (0, 0), BuildingBlock: XUDNAN_clean_linker_2, # of connection points: 2
#     Edge 60, Type (0, 0), BuildingBlock: XUDNAN_clean_linker_2, # of connection points: 2
#     Edge 61, Type (0, 0), BuildingBlock: XUDNAN_clean_linker_2, # of connection points: 2
#     Edge 62, Type (0, 0), BuildingBlock: XUDNAN_clean_linker_2, # of connection points: 2
#     Edge 63, Type (0, 0), BuildingBlock: XUDNAN_clean_linker_2, # of connection points: 2
#     Edge 64, Type (0, 0), BuildingBlock: XUDNAN_clean_linker_2, # of connection points: 2
#     Edge 65, Type (0, 0), BuildingBlock: XUDNAN_clean_linker_2, # of connection points: 2
#     Edge 66, Type (0, 0), BuildingBlock: XUDNAN_clean_linker_2, # of connection points: 2
#     Edge 67, Type (0, 0), BuildingBlock: XUDNAN_clean_linker_2, # of connection points: 2
#     Edge 68, Type (0, 0), BuildingBlock: XUDNAN_clean_linker_2, # of connection points: 2
#     Edge 69, Type (0, 0), BuildingBlock: XUDNAN_clean_linker_2, # of connection points: 2
#     Edge 70, Type (0, 0), BuildingBlock: XUDNAN_clean_linker_2, # of connection points: 2
#     Edge 71, Type (0, 0), BuildingBlock: XUDNAN_clean_linker_2, # of connection points: 2
#     Edge 72, Type (0, 0), BuildingBlock: XUDNAN_clean_linker_2, # of connection points: 2
#     Edge 73, Type (0, 0), BuildingBlock: XUDNAN_clean_linker_2, # of connection points: 2
#     Edge 74, Type (0, 0), BuildingBlock: XUDNAN_clean_linker_2, # of connection points: 2
#     Edge 75, Type (0, 0), BuildingBlock: XUDNAN_clean_linker_2, # of connection points: 2
#     Edge 76, Type (0, 0), BuildingBlock: XUDNAN_clean_linker_2, # of connection points: 2
#     Edge 77, Type (0, 0), BuildingBlock: XUDNAN_clean_linker_2, # of connection points: 2
#     Edge 78, Type (0, 0), BuildingBlock: XUDNAN_clean_linker_2, # of connection points: 2
#     Edge 79, Type (0, 0), BuildingBlock: XUDNAN_clean_linker_2, # of connection points: 2
#     Edge 80, Type (0, 0), BuildingBlock: XUDNAN_clean_linker_2, # of connection points: 2
#     Edge 81, Type (0, 0), BuildingBlock: XUDNAN_clean_linker_2, # of connection points: 2
#     Edge 82, Type (0, 0), BuildingBlock: XUDNAN_clean_linker_2, # of connection points: 2
#     Edge 83, Type (0, 0), BuildingBlock: XUDNAN_clean_linker_2, # of connection points: 2
#     Edge 84, Type (0, 0), BuildingBlock: XUDNAN_clean_linker_2, # of connection points: 2
#     Edge 85, Type (0, 0), BuildingBlock: XUDNAN_clean_linker_2, # of connection points: 2
#     Edge 86, Type (0, 0), BuildingBlock: XUDNAN_clean_linker_2, # of connection points: 2
#     Edge 87, Type (0, 0), BuildingBlock: XUDNAN_clean_linker_2, # of connection points: 2
#     Edge 88, Type (0, 0), BuildingBlock: XUDNAN_clean_linker_2, # of connection points: 2
#     Edge 89, Type (0, 0), BuildingBlock: XUDNAN_clean_linker_2, # of connection points: 2
#     Edge 90, Type (0, 0), BuildingBlock: XUDNAN_clean_linker_2, # of connection points: 2
#     Edge 91, Type (0, 0), BuildingBlock: XUDNAN_clean_linker_2, # of connection points: 2
#     Edge 92, Type (0, 0), BuildingBlock: XUDNAN_clean_linker_2, # of connection points: 2
#     Edge 93, Type (0, 0), BuildingBlock: XUDNAN_clean_linker_2, # of connection points: 2
#     Edge 94, Type (0, 0), BuildingBlock: XUDNAN_clean_linker_2, # of connection points: 2
#     Edge 95, Type (0, 0), BuildingBlock: XUDNAN_clean_linker_2, # of connection points: 2
# Relax obj value: 0.135
# Max RMSD: 0.161
# Mean RMSD: 0.161
data_MOF--net-uox--node1-AZAVOO_clean_sbu_0--edge1-XUDNAN_clean_linker_2
_symmetry_space_group_name_H-M    P1
_symmetry_Int_Tables_number       1
_symmetry_cell_setting            triclinic
loop_
_symmetry_equiv_pos_as_xyz
'x, y, z'
_cell_length_a     43.731683
_cell_length_b     43.543453
_cell_length_c     82.137121
_cell_angle_alpha  90.04029
_cell_angle_beta   89.839178
_cell_angle_gamma 89.784742
loop_
_atom_site_label
_atom_site_type_symbol
_atom_site_fract_x
_atom_site_fract_y
_atom_site_fract_z
_atom_type_partial_charge
Mg0 Mg 0.44109 0.00433 0.14328 0.0
O1 O 0.41301 0.04822 0.13854 0.0
O2 O 0.36411 0.03785 0.14464 0.0
Mg3 Mg 0.36203 0.99544 0.15333 0.0
C4 C 0.38494 0.05608 0.13972 0.0
C5 C 0.50415 0.02386 0.13029 0.0
O6 O 0.49949 -0.00111 0.12167 0.0
O7 O 0.43846 0.01223 0.17046 0.0
O8 O 0.38939 0.00067 0.17562 0.0
O9 O 0.43282 0.99425 0.11815 0.0
O10 O 0.40393 0.98541 0.1398 0.0
C11 C 0.41599 0.00884 0.18021 0.0
C12 C 0.40825 0.98262 0.12442 0.0
O13 O 0.48465 0.03164 0.14102 0.0
Mg14 Mg 0.22278 0.19502 0.39863 0.0
O15 O 0.17907 0.1671 0.39229 0.0
O16 O 0.19034 0.11737 0.39604 0.0
Mg17 Mg 0.23768 0.11133 0.40668 0.0
C18 C 0.17189 0.13866 0.39182 0.0
C19 C 0.20996 0.25507 0.38232 0.0
O20 O 0.23691 0.24676 0.37669 0.0
O21 O 0.21162 0.19503 0.42649 0.0
O22 O 0.2262 0.14695 0.42499 0.0
O23 O 0.24764 0.18291 0.3744 0.0
O24 O 0.24983 0.15567 0.39672 0.0
C25 C 0.2186 0.16988 0.43356 0.0
C26 C 0.25903 0.15988 0.38223 0.0
O27 O 0.19767 0.2393 0.39354 0.0
Mg28 Mg 0.04158 0.98029 0.64995 0.0
O29 O 0.06937 0.93918 0.64293 0.0
O30 O 0.11724 0.94452 0.65178 0.0
Mg31 Mg 0.1211 0.99295 0.66215 0.0
C32 C 0.09638 0.9291 0.64476 0.0
C33 C 0.98937 0.96555 0.6348 0.0
O34 O 0.99487 0.99422 0.63081 0.0
O35 O 0.04216 0.96767 0.67664 0.0
O36 O 0.08953 0.98243 0.68338 0.0
O37 O 0.05192 -0.00524 0.62633 0.0
O38 O 0.0783 0.00031 0.64915 0.0
C39 C 0.06283 0.97313 0.68719 0.0
C40 C 0.07544 0.00574 0.63389 0.0
O41 O 0.00027 0.95182 0.64432 0.0
Mg42 Mg 0.25733 0.79115 0.9036 0.0
O43 O 0.29917 0.82087 0.89632 0.0
O44 O 0.28872 0.87019 0.90166 0.0
Mg45 Mg 0.24048 0.87219 0.91236 0.0
C46 C 0.30675 0.84922 0.89651 0.0
C47 C 0.27917 0.73225 0.88716 0.0
O48 O 0.25623 0.73939 0.87757 0.0
O49 O 0.26936 0.79381 0.93075 0.0
O50 O 0.25674 0.84336 0.93325 0.0
O51 O 0.23637 0.80092 0.87922 0.0
O52 O 0.22936 0.82805 0.90173 0.0
C53 C 0.26622 0.81813 0.93931 0.0
C54 C 0.22421 0.82425 0.88659 0.0
O55 O 0.28479 0.74869 0.89955 0.0
Mg56 Mg 0.44501 0.97763 0.33098 0.0
O57 O 0.41703 0.93552 0.33876 0.0
O58 O 0.36834 0.94685 0.33299 0.0
Mg59 Mg 0.3624 0.99348 0.32213 0.0
C60 C 0.38875 0.92861 0.33832 0.0
C61 C 0.50722 0.96593 0.34485 0.0
O62 O 0.50071 0.9949 0.34785 0.0
O63 O 0.44314 0.96484 0.30378 0.0
O64 O 0.39541 0.98185 0.30275 0.0
O65 O 0.43325 -0.00548 0.35495 0.0
O66 O 0.40471 -0.00087 0.33317 0.0
C67 C 0.41954 0.97274 0.29565 0.0
C68 C 0.40933 0.00615 0.34804 0.0
O69 O 0.48897 0.9507 0.336 0.0
Mg70 Mg 0.25618 0.19431 0.58598 0.0
O71 O 0.29982 0.16692 0.59303 0.0
O72 O 0.29197 0.11824 0.58553 0.0
Mg73 Mg 0.2439 0.11378 0.57509 0.0
C74 C 0.30894 0.13907 0.5916 0.0
C75 C 0.27354 0.25353 0.60302 0.0
O76 O 0.25321 0.24355 0.61353 0.0
O77 O 0.26886 0.19357 0.55872 0.0
O78 O 0.25753 0.14415 0.55417 0.0
O79 O 0.231 0.18208 0.60973 0.0
O80 O 0.23176 0.1564 0.58662 0.0
C81 C 0.26581 0.17058 0.54916 0.0
C82 C 0.22139 0.15937 0.60099 0.0
O83 O 0.27966 0.23827 0.59031 0.0
Mg84 Mg 0.0421 0.00841 0.83847 0.0
O85 O 0.0698 0.05083 0.84694 0.0
O86 O 0.11614 0.04286 0.83598 0.0
Mg87 Mg 0.12144 -0.00565 0.82627 0.0
C88 C 0.09699 0.05963 0.84368 0.0
C89 C 0.98733 0.02451 0.85371 0.0
O90 O 0.99322 5e-05 0.86254 0.0
O91 O 0.04445 0.02372 0.81183 0.0
O92 O 0.09081 0.0052 0.80505 0.0
O93 O 0.054 0.98609 0.86108 0.0
O94 O 0.08038 0.99048 0.8384 0.0
C95 C 0.06475 0.01627 0.80127 0.0
C96 C 0.07665 0.97727 0.852 0.0
O97 O -0.00136 0.03281 0.84274 0.0
Mg98 Mg 0.22608 0.79607 0.08071 0.0
O99 O 0.18172 0.8237 0.08578 0.0
O100 O 0.19246 0.87359 0.08222 0.0
Mg101 Mg 0.24105 0.87828 0.07285 0.0
C102 C 0.17406 0.85205 0.08592 0.0
C103 C 0.2097 0.73554 0.09641 0.0
O104 O 0.232 0.74472 0.10588 0.0
O105 O 0.21684 0.79672 0.05297 0.0
O106 O 0.22933 0.84592 0.05261 0.0
O107 O 0.24556 0.80656 0.10575 0.0
O108 O 0.25222 0.83506 0.08399 0.0
C109 C 0.22157 0.82158 0.04515 0.0
C110 C 0.25724 0.83063 0.09906 0.0
O111 O 0.20167 0.75166 0.08427 0.0
Mg112 Mg 0.54421 0.97989 0.83906 0.0
O113 O 0.57521 0.93823 0.84622 0.0
O114 O 0.62088 0.9536 0.83735 0.0
Mg115 Mg 0.62068 -0.00539 0.82713 0.0
C116 C 0.60375 0.93346 0.84395 0.0
C117 C 0.48222 0.96114 0.85285 0.0
O118 O 0.4858 0.98788 0.86001 0.0
O119 O 0.54668 0.96801 0.81217 0.0
O120 O 0.59237 0.98785 0.80571 0.0
O121 O 0.55302 -0.00413 0.86285 0.0
O122 O 0.57798 0.00306 0.83974 0.0
C123 C 0.567 0.9756 0.80173 0.0
C124 C 0.57518 0.00874 0.8549 0.0
O125 O 0.50266 0.95126 0.84317 0.0
Mg126 Mg 0.76612 0.79639 0.5861 0.0
O127 O 0.80789 0.82321 0.59573 0.0
O128 O 0.80721 0.86327 0.57885 0.0
Mg129 Mg 0.75736 0.87563 0.57417 0.0
C130 C 0.82007 0.84753 0.59 0.0
C131 C 0.77815 0.73384 0.60131 0.0
O132 O 0.75497 0.74239 0.61048 0.0
O133 O 0.78034 0.79864 0.55899 0.0
O134 O 0.76054 0.84473 0.55277 0.0
O135 O 0.73719 0.80726 0.60886 0.0
O136 O 0.74311 0.83489 0.58674 0.0
C137 C 0.77055 0.81836 0.54861 0.0
C138 C 0.72968 0.83102 0.60029 0.0
O139 O 0.78793 0.75135 0.59016 0.0
Mg140 Mg 0.94767 0.0057 0.33346 0.0
O141 O 0.91863 0.04878 0.33797 0.0
O142 O 0.86997 0.03651 0.33324 0.0
Mg143 Mg 0.86973 0.99454 0.32343 0.0
C144 C 0.89036 0.05573 0.33754 0.0
C145 C -0.00059 0.02395 0.34843 0.0
O146 O -0.00393 -0.00458 0.35328 0.0
O147 O 0.94588 0.01414 0.30611 0.0
O148 O 0.89684 0.00152 0.30142 0.0
O149 O 0.93717 0.99476 0.35841 0.0
O150 O 0.91268 0.98389 0.33555 0.0
C151 C 0.92312 0.01035 0.29658 0.0
C152 C 0.91535 0.98058 0.35094 0.0
O153 O 0.98818 0.03526 0.33819 0.0
Mg154 Mg 0.72989 0.19374 0.08072 0.0
O155 O 0.68752 0.16565 0.08825 0.0
O156 O 0.69517 0.11736 0.07992 0.0
Mg157 Mg 0.74338 0.11394 0.06917 0.0
C158 C 0.67861 0.13789 0.08671 0.0
C159 C 0.71121 0.2539 0.09666 0.0
O160 O 0.7335 0.24594 0.10649 0.0
O161 O 0.71744 0.19267 0.05416 0.0
O162 O 0.73104 0.14456 0.0477 0.0
O163 O 0.75147 0.18347 0.10449 0.0
O164 O 0.75639 0.15603 0.08185 0.0
C165 C 0.72203 0.17146 0.04371 0.0
C166 C 0.76253 0.15973 0.09695 0.0
O167 O 0.7044 0.2371 0.08464 0.0
Mg168 Mg 0.54266 0.00627 0.65141 0.0
O169 O 0.57038 0.04736 0.64301 0.0
O170 O 0.61904 0.0408 0.65054 0.0
Mg171 Mg 0.62337 -0.00801 0.66073 0.0
C172 C 0.59776 0.05687 0.64419 0.0
C173 C 0.48229 0.02654 0.63621 0.0
O174 O 0.48608 -0.00015 0.62898 0.0
O175 O 0.54738 0.02066 0.67775 0.0
O176 O 0.59524 0.0046 0.68299 0.0
O177 O 0.55225 0.99042 0.62757 0.0
O178 O 0.5811 0.986 0.6496 0.0
C179 C 0.56935 0.01521 0.68754 0.0
C180 C 0.57636 0.97941 0.63464 0.0
O181 O 0.50054 0.03442 0.64742 0.0
Mg182 Mg 0.72965 0.79684 0.39493 0.0
O183 O 0.68598 0.82652 0.39006 0.0
O184 O 0.69862 0.87168 0.40101 0.0
Mg185 Mg 0.747 0.87278 0.4111 0.0
C186 C 0.67964 0.85445 0.39358 0.0
C187 C 0.71804 0.73463 0.38143 0.0
O188 O 0.74647 0.74054 0.37729 0.0
O189 O 0.72005 0.79276 0.42223 0.0
O190 O 0.73376 0.83934 0.43101 0.0
O191 O 0.74889 0.81252 0.37068 0.0
O192 O 0.75651 0.83488 0.39453 0.0
C193 C 0.72434 0.81216 0.43367 0.0
C194 C 0.75948 0.83539 0.379 0.0
O195 O 0.70335 0.75406 0.38985 0.0
Mg196 Mg 0.94755 0.97738 0.14462 0.0
O197 O 0.92064 0.93414 0.13702 0.0
O198 O 0.87207 0.94267 0.14468 0.0
Mg199 Mg 0.86529 0.99055 0.15404 0.0
C200 C 0.89287 0.92564 0.13863 0.0
C201 C 0.00071 0.96659 0.12835 0.0
O202 O -0.00859 0.99273 0.1221 0.0
O203 O 0.94465 0.96504 0.17201 0.0
O204 O 0.89608 0.9805 0.17494 0.0
O205 O 0.93512 -0.0016 0.12149 0.0
O206 O 0.90795 -0.0051 0.14386 0.0
C207 C 0.92157 0.9721 0.18097 0.0
C208 C 0.91226 0.00766 0.13022 0.0
O209 O 0.99227 0.95389 0.13946 0.0
Mg210 Mg 0.76376 0.19366 0.90155 0.0
O211 O 0.80492 0.16567 0.8936 0.0
O212 O 0.80066 0.11788 0.90317 0.0
Mg213 Mg 0.75343 0.11344 0.91447 0.0
C214 C 0.81549 0.13873 0.89572 0.0
C215 C 0.77997 0.2528 0.88347 0.0
O216 O 0.75279 0.24765 0.87731 0.0
O217 O 0.77934 0.19385 0.92849 0.0
O218 O 0.76689 0.14533 0.93445 0.0
O219 O 0.73553 0.17866 0.87919 0.0
O220 O 0.73827 0.15591 0.903 0.0
C221 C 0.77561 0.17197 0.93878 0.0
C222 C 0.72674 0.15691 0.88885 0.0
O223 O 0.79022 0.2356 0.89462 0.0
Mg224 Mg 0.94949 0.51253 0.651 0.0
O225 O 0.92158 0.55366 0.64279 0.0
O226 O 0.87243 0.54534 0.64897 0.0
Mg227 Mg 0.86731 0.49747 0.65902 0.0
C228 C 0.89374 0.56219 0.64342 0.0
C229 C 0.00442 0.52542 0.6377 0.0
O230 O -0.00152 0.49651 0.63438 0.0
O231 O 0.94424 0.52573 0.67779 0.0
O232 O 0.8959 0.50978 0.68057 0.0
O233 O 0.94046 0.48871 0.62699 0.0
O234 O 0.91179 0.48463 0.64899 0.0
C235 C 0.92097 0.51925 0.6866 0.0
C236 C 0.91662 0.47742 0.63416 0.0
O237 O 0.99301 0.54014 0.64666 0.0
Mg238 Mg 0.72828 0.69676 0.9038 0.0
O239 O 0.68626 0.67095 0.89461 0.0
O240 O 0.68727 0.62315 0.90438 0.0
Mg241 Mg 0.7331 0.61553 0.91628 0.0
C242 C 0.67419 0.64465 0.89656 0.0
C243 C 0.71811 0.76063 0.88968 0.0
O244 O 0.74753 0.75597 0.88738 0.0
O245 O 0.71181 0.69744 0.93047 0.0
O246 O 0.72208 0.64834 0.93619 0.0
O247 O 0.75694 0.68138 0.88154 0.0
O248 O 0.75281 0.65671 0.9047 0.0
C249 C 0.71498 0.67541 0.94065 0.0
C250 C 0.76434 0.65801 0.89045 0.0
O251 O 0.70301 0.74073 0.89749 0.0
Mg252 Mg 0.54255 0.47526 0.14558 0.0
O253 O 0.57174 0.43499 0.13844 0.0
O254 O 0.62021 0.44286 0.14572 0.0
Mg255 Mg 0.62265 0.49165 0.15604 0.0
C256 C 0.59928 0.42611 0.13967 0.0
C257 C 0.48234 0.46066 0.1323 0.0
O258 O 0.48699 0.4904 0.13114 0.0
O259 O 0.54549 0.46335 0.1725 0.0
O260 O 0.5934 0.4791 0.17773 0.0
O261 O 0.5528 0.49806 0.12157 0.0
O262 O 0.57959 0.50423 0.14405 0.0
C263 C 0.56742 0.4691 0.1823 0.0
C264 C 0.57589 0.51029 0.12894 0.0
O265 O 0.50151 0.44487 0.14026 0.0
Mg266 Mg 0.76208 0.29066 0.39874 0.0
O267 O 0.80506 0.31814 0.39169 0.0
O268 O 0.79674 0.36805 0.39637 0.0
Mg269 Mg 0.75002 0.37413 0.4078 0.0
C270 C 0.81374 0.34608 0.39144 0.0
C271 C 0.77871 0.2317 0.38132 0.0
O272 O 0.75115 0.23691 0.37562 0.0
O273 O 0.7749 0.28896 0.42643 0.0
O274 O 0.76186 0.33716 0.42501 0.0
O275 O 0.74024 0.30265 0.37466 0.0
O276 O 0.73454 0.331 0.39661 0.0
C277 C 0.76925 0.31432 0.4336 0.0
C278 C 0.72901 0.32694 0.38149 0.0
O279 O 0.78926 0.24844 0.3926 0.0
Mg280 Mg 0.95007 0.47875 0.83768 0.0
O281 O 0.9215 0.43576 0.84473 0.0
O282 O 0.87346 0.44775 0.83806 0.0
Mg283 Mg 0.87067 0.49564 0.82689 0.0
C284 C 0.89317 0.42896 0.84377 0.0
C285 C 0.00235 0.46196 0.8538 0.0
O286 O -0.00638 0.48534 0.86281 0.0
O287 O 0.94817 0.46695 0.81097 0.0
O288 O 0.89969 0.48091 0.80556 0.0
O289 O 0.93899 0.5 0.86176 0.0
O290 O 0.91349 0.50691 0.83872 0.0
C291 C 0.92591 0.47107 0.80118 0.0
C292 C 0.91651 0.5124 0.85389 0.0
O293 O 0.99324 0.45307 0.84199 0.0
Mg294 Mg 0.76412 0.69551 0.08249 0.0
O295 O 0.80714 0.66749 0.08935 0.0
O296 O 0.79916 0.62083 0.0787 0.0
Mg297 Mg 0.74991 0.6161 0.06995 0.0
C298 C 0.8161 0.64026 0.08599 0.0
C299 C 0.77376 0.75765 0.09632 0.0
O300 O 0.74625 0.74993 0.10126 0.0
O301 O 0.77564 0.69463 0.05545 0.0
O302 O 0.7595 0.64746 0.04856 0.0
O303 O 0.73792 0.68407 0.10588 0.0
O304 O 0.73867 0.65785 0.08295 0.0
C305 C 0.76899 0.67424 0.04482 0.0
C306 C 0.72753 0.6617 0.09713 0.0
O307 O 0.78842 0.73966 0.08701 0.0
Mg308 Mg 0.5457 0.51606 0.3337 0.0
O309 O 0.57556 0.55644 0.34141 0.0
O310 O 0.62294 0.54474 0.33301 0.0
Mg311 Mg 0.62592 0.4959 0.32397 0.0
C312 C 0.60364 0.56312 0.33941 0.0
C313 C 0.48262 0.52822 0.34466 0.0
O314 O 0.48743 0.49843 0.34556 0.0
O315 O 0.55007 0.52823 0.30647 0.0
O316 O 0.59683 0.50828 0.30245 0.0
O317 O 0.55451 0.48853 0.35722 0.0
O318 O 0.58171 0.48687 0.3347 0.0
C319 C 0.57183 0.51942 0.29704 0.0
C320 C 0.57689 0.47675 0.34896 0.0
O321 O 0.50324 0.5448 0.33835 0.0
Mg322 Mg 0.72886 0.28984 0.58675 0.0
O323 O 0.6855 0.3191 0.59481 0.0
O324 O 0.70272 0.36384 0.58574 0.0
Mg325 Mg 0.74948 0.36829 0.57472 0.0
C326 C 0.68177 0.34791 0.59241 0.0
C327 C 0.71077 0.22907 0.60204 0.0
O328 O 0.73332 0.23653 0.61179 0.0
O329 O 0.71646 0.29215 0.55921 0.0
O330 O 0.73392 0.33945 0.55381 0.0
O331 O 0.75687 0.30145 0.61032 0.0
O332 O 0.75605 0.32616 0.58721 0.0
C333 C 0.72264 0.31394 0.54924 0.0
C334 C 0.7673 0.32338 0.60129 0.0
O335 O 0.70371 0.24656 0.59034 0.0
Mg336 Mg 0.04075 0.47872 0.33347 0.0
O337 O 0.06709 0.4344 0.34105 0.0
O338 O 0.11421 0.44003 0.33097 0.0
Mg339 Mg 0.12087 0.48783 0.32088 0.0
C340 C 0.09402 0.42418 0.3383 0.0
C341 C 0.98562 0.46049 0.3487 0.0
O342 O 0.98926 0.48621 0.35684 0.0
O343 O 0.04156 0.46582 0.3065 0.0
O344 O 0.09025 0.47696 0.29985 0.0
O345 O 0.05536 0.50608 0.35638 0.0
O346 O 0.07898 0.50325 0.33287 0.0
C347 C 0.06314 0.46919 0.29611 0.0
C348 C 0.07771 0.51459 0.34708 0.0
O349 O -0.00236 0.45303 0.33788 0.0
Mg350 Mg 0.26057 0.29179 0.08218 0.0
O351 O 0.30364 0.32216 0.08835 0.0
O352 O 0.28518 0.36697 0.07981 0.0
Mg353 Mg 0.23725 0.36929 0.06983 0.0
C354 C 0.30679 0.35102 0.08596 0.0
C355 C 0.27322 0.231 0.09714 0.0
O356 O 0.24587 0.23862 0.10247 0.0
O357 O 0.27155 0.29224 0.05459 0.0
O358 O 0.25235 0.3387 0.04924 0.0
O359 O 0.23851 0.30274 0.10659 0.0
O360 O 0.23076 0.32864 0.08401 0.0
C361 C 0.26413 0.31342 0.04451 0.0
C362 C 0.2258 0.32571 0.09926 0.0
O363 O 0.28681 0.24841 0.08708 0.0
Mg364 Mg 0.4471 0.50634 0.8373 0.0
O365 O 0.41968 0.5495 0.84446 0.0
O366 O 0.37044 0.54262 0.83818 0.0
Mg367 Mg 0.36608 0.49378 0.82819 0.0
C368 C 0.39212 0.55915 0.84364 0.0
C369 C 0.50676 0.52688 0.85318 0.0
O370 O 0.49859 0.50525 0.86343 0.0
O371 O 0.44345 0.51766 0.81051 0.0
O372 O 0.39379 0.50742 0.80606 0.0
O373 O 0.43751 0.48609 0.86163 0.0
O374 O 0.40948 0.48031 0.83932 0.0
C375 C 0.42027 0.51546 0.80117 0.0
C376 C 0.41381 0.47472 0.85442 0.0
O377 O 0.49066 0.5322 0.84065 0.0
Mg378 Mg 0.22621 0.69556 0.58617 0.0
O379 O 0.18368 0.66571 0.59339 0.0
O380 O 0.197 0.6189 0.5848 0.0
Mg381 Mg 0.24505 0.6172 0.57434 0.0
C382 C 0.17775 0.63722 0.59137 0.0
C383 C 0.20757 0.75697 0.60057 0.0
O384 O 0.2331 0.75233 0.60861 0.0
O385 O 0.21384 0.69432 0.55926 0.0
O386 O 0.22994 0.64695 0.55306 0.0
O387 O 0.24851 0.68554 0.6101 0.0
O388 O 0.25529 0.65925 0.58734 0.0
C389 C 0.2191 0.67305 0.54889 0.0
C390 C 0.26078 0.66245 0.60253 0.0
O391 O 0.19884 0.73761 0.59008 0.0
Mg392 Mg 0.04036 0.51227 0.14516 0.0
O393 O 0.06716 0.55475 0.13771 0.0
O394 O 0.11623 0.54669 0.14411 0.0
Mg395 Mg 0.12226 0.49835 0.15343 0.0
C396 C 0.09477 0.56371 0.1388 0.0
C397 C 0.98646 0.52613 0.1304 0.0
O398 O 0.99374 0.49877 0.12482 0.0
O399 O 0.04418 0.52409 0.17234 0.0
O400 O 0.09281 0.50917 0.17519 0.0
O401 O 0.04922 0.49 0.12071 0.0
O402 O 0.07907 0.48535 0.14213 0.0
C403 C 0.06736 0.51797 0.18124 0.0
C404 C 0.07372 0.47888 0.12722 0.0
O405 O -0.00406 0.5383 0.14123 0.0
Mg406 Mg 0.2253 0.2898 0.90285 0.0
O407 O 0.18298 0.31682 0.89436 0.0
O408 O 0.18565 0.36387 0.90523 0.0
Mg409 Mg 0.23238 0.37017 0.91645 0.0
C410 C 0.17163 0.34337 0.89714 0.0
C411 C 0.2154 0.22899 0.88627 0.0
O412 O 0.24219 0.23764 0.88068 0.0
O413 O 0.21017 0.28877 0.92938 0.0
O414 O 0.22208 0.33701 0.93642 0.0
O415 O 0.2539 0.30476 0.88065 0.0
O416 O 0.24876 0.32895 0.90396 0.0
C417 C 0.21437 0.3097 0.94007 0.0
C418 C 0.26133 0.32745 0.89001 0.0
O419 O 0.20203 0.24539 0.89686 0.0
Mg420 Mg 0.44468 0.47139 0.652 0.0
O421 O 0.41567 0.43089 0.64429 0.0
O422 O 0.36595 0.44043 0.64906 0.0
Mg423 Mg 0.36085 0.48634 0.66201 0.0
C424 C 0.38763 0.42321 0.64395 0.0
C425 C 0.50549 0.46071 0.63767 0.0
O426 O 0.49954 0.49014 0.63589 0.0
O427 O 0.44641 0.4565 0.67912 0.0
O428 O 0.39973 0.47313 0.67733 0.0
O429 O 0.43165 0.49902 0.62888 0.0
O430 O 0.40581 0.4989 0.65184 0.0
C431 C 0.42203 0.46556 0.68613 0.0
C432 C 0.40916 0.50947 0.63752 0.0
O433 O 0.48676 0.44441 0.64557 0.0
Mg434 Mg 0.26177 0.69801 0.39539 0.0
O435 O 0.30189 0.66475 0.38917 0.0
O436 O 0.28398 0.61987 0.39779 0.0
Mg437 Mg 0.23594 0.62247 0.40831 0.0
C438 C 0.30513 0.63594 0.39134 0.0
C439 C 0.27617 0.75506 0.37992 0.0
O440 O 0.24663 0.75087 0.3782 0.0
O441 O 0.27256 0.6982 0.4228 0.0
O442 O 0.25249 0.65232 0.42896 0.0
O443 O 0.23932 0.68661 0.37176 0.0
O444 O 0.22924 0.6652 0.3956 0.0
C445 C 0.26481 0.67761 0.43318 0.0
C446 C 0.22443 0.66666 0.38033 0.0
O447 O 0.29166 0.73657 0.38851 0.0
H448 H 0.4441 0.94473 0.26787 0.0
H449 H 0.39986 0.02095 0.28621 0.0
H450 H 0.39872 0.04247 0.25889 0.0
H451 H 0.49146 0.98195 0.23641 0.0
H452 H 0.48527 0.95184 0.22171 0.0
H453 H 0.48459 0.94319 0.24317 0.0
H454 H 0.43045 0.91975 0.2399 0.0
H455 H 0.43119 0.92864 0.2185 0.0
H456 H 0.40037 0.94272 0.23109 0.0
H457 H 0.39726 0.05395 0.23015 0.0
H458 H 0.39697 0.05462 0.20004 0.0
H459 H 0.4447 0.97375 0.19925 0.0
C460 C 0.43511 0.96767 0.26606 0.0
C461 C 0.4226 0.98463 0.27908 0.0
C462 C 0.40928 0.00733 0.27632 0.0
C463 C 0.40864 0.01998 0.26087 0.0
C464 C 0.42061 0.00278 0.24821 0.0
C465 C 0.43429 0.98095 0.25048 0.0
C466 C 0.44379 0.9671 0.23432 0.0
C467 C 0.47834 0.96065 0.23388 0.0
C468 C 0.42534 0.93782 0.23075 0.0
C469 C 0.43496 0.99302 0.22287 0.0
C470 C 0.42088 0.0102 0.23123 0.0
C471 C 0.40804 0.03552 0.22338 0.0
C472 C 0.40805 0.03583 0.20638 0.0
C473 C 0.42116 0.01121 0.19763 0.0
C474 C 0.43574 0.99333 0.20589 0.0
H475 H 0.24457 0.21583 0.52802 0.0
H476 H 0.29443 0.1295 0.53055 0.0
H477 H 0.28641 0.12142 0.50142 0.0
H478 H 0.1885 0.19644 0.50013 0.0
H479 H 0.18964 0.23099 0.48807 0.0
H480 H 0.20127 0.23198 0.50907 0.0
H481 H 0.25322 0.25484 0.5 0.0
H482 H 0.24172 0.25298 0.47896 0.0
H483 H 0.27649 0.23436 0.48543 0.0
H484 H 0.26463 0.1163 0.47516 0.0
H485 H 0.2427 0.12024 0.44833 0.0
H486 H 0.21175 0.21351 0.45885 0.0
C487 C 0.25501 0.1961 0.52219 0.0
C488 C 0.27014 0.17318 0.53148 0.0
C489 C 0.28292 0.14727 0.52361 0.0
C490 C 0.27823 0.14232 0.5071 0.0
C491 C 0.26159 0.16406 0.49847 0.0
C492 C 0.25123 0.1911 0.50535 0.0
C493 C 0.23454 0.21042 0.49261 0.0
C494 C 0.20152 0.21787 0.4978 0.0
C495 C 0.25256 0.2399 0.48903 0.0
C496 C 0.23528 0.18868 0.47806 0.0
C497 C 0.25096 0.16216 0.48204 0.0
C498 C 0.25315 0.13731 0.47162 0.0
C499 C 0.24018 0.13988 0.45633 0.0
C500 C 0.22581 0.16753 0.45115 0.0
C501 C 0.2228 0.19223 0.46233 0.0
H502 H 0.0735 0.97327 0.78286 0.0
H503 H 0.03794 0.05959 0.78151 0.0
H504 H 0.02747 0.05377 0.75193 0.0
H505 H 0.11262 0.97263 0.74709 0.0
H506 H 0.1027 0.93422 0.74088 0.0
H507 H 0.10326 0.94398 0.76213 0.0
H508 H 0.04722 0.92625 0.76536 0.0
H509 H 0.04657 0.91586 0.74411 0.0
H510 H 0.01818 0.94187 0.75218 0.0
H511 H 0.02651 0.03956 0.72258 0.0
H512 H 0.03432 0.01827 0.69505 0.0
H513 H 0.07098 0.94104 0.71568 0.0
C514 C 0.06339 0.99238 0.77633 0.0
C515 C 0.05603 0.01341 0.78419 0.0
C516 C 0.04264 0.03791 0.77553 0.0
C517 C 0.03659 0.03469 0.75884 0.0
C518 C 0.04343 0.00663 0.75135 0.0
C519 C 0.05675 0.98931 0.75988 0.0
C520 C 0.06365 0.96218 0.74889 0.0
C521 C 0.09757 0.95274 0.7498 0.0
C522 C 0.04265 0.93494 0.75288 0.0
C523 C 0.05556 0.97596 0.7326 0.0
C524 C 0.04261 -0.00174 0.73438 0.0
C525 C 0.03479 0.01628 0.72107 0.0
C526 C 0.03912 0.00396 0.70554 0.0
C527 C 0.05276 0.98135 0.7035 0.0
C528 C 0.06044 0.96343 0.71711 0.0
H529 H 0.25571 0.77116 0.96186 0.0
H530 H 0.28468 0.86615 0.95682 0.0
H531 H 0.27291 0.87546 0.9854 0.0
H532 H 0.19583 0.77926 0.98944 0.0
H533 H 0.20325 0.74774 -0.00762 0.0
H534 H 0.21738 0.74711 0.98156 0.0
H535 H 0.27328 0.73897 0.99098 0.0
H536 H 0.25904 0.74033 0.00181 0.0
H537 H 0.28811 0.76629 -0.00537 0.0
H538 H 0.24476 0.8791 0.00035 0.0
H539 H 0.22543 0.87336 0.02772 0.0
H540 H 0.22252 0.77392 0.02157 0.0
C541 C 0.2608 0.79343 0.96704 0.0
C542 C 0.27033 0.81823 0.95705 0.0
C543 C 0.27683 0.84706 0.96417 0.0
C544 C 0.26997 0.85269 0.98037 0.0
C545 C 0.25814 0.82881 0.98954 0.0
C546 C 0.25524 0.7993 0.98366 0.0
C547 C 0.24158 0.77826 -0.01304 0.0
C548 C 0.21383 0.76205 0.99238 0.0
C549 C 0.26643 0.75462 -0.00869 0.0
C550 C 0.23655 0.8013 0.00076 0.0
C551 C 0.24451 0.83037 -0.00439 0.0
C552 C 0.23969 0.85638 0.00492 0.0
C553 C 0.22841 0.85271 0.02052 0.0
C554 C 0.2236 0.82307 0.02719 0.0
C555 C 0.2265 0.79685 0.01695 0.0
H556 H 0.57322 0.94162 0.7735 0.0
H557 H 0.53936 0.02064 0.79354 0.0
H558 H 0.53173 0.04109 0.76593 0.0
H559 H 0.61535 0.96934 0.742 0.0
H560 H 0.60459 0.94106 0.72706 0.0
H561 H 0.60294 0.93171 0.74833 0.0
H562 H 0.54575 0.91685 0.74485 0.0
H563 H 0.54779 0.92685 0.72357 0.0
H564 H 0.51933 0.94447 0.73648 0.0
H565 H 0.53487 0.05514 0.73693 0.0
H566 H 0.54644 0.06038 0.70743 0.0
H567 H 0.57741 0.97251 0.7061 0.0
C568 C 0.5632 0.96419 0.77192 0.0
C569 C 0.55661 0.98302 0.78541 0.0
C570 C 0.54354 0.00577 0.78317 0.0
C571 C 0.53923 0.0176 0.76759 0.0
C572 C 0.54635 -0.00109 0.75441 0.0
C573 C 0.55813 0.9762 0.75633 0.0
C574 C 0.56589 0.96193 0.74003 0.0
C575 C 0.59917 0.95037 0.73934 0.0
C576 C 0.54334 0.936 0.73599 0.0
C577 C 0.56091 0.9894 0.72906 0.0
C578 C 0.54822 0.00718 0.73749 0.0
C579 C 0.5433 0.03564 0.73006 0.0
C580 C 0.55011 0.03856 0.71345 0.0
C581 C 0.56237 0.01336 0.70483 0.0
C582 C 0.56827 0.99212 0.71266 0.0
H583 H 0.70309 0.84289 0.46023 0.0
H584 H 0.75027 0.75993 0.44512 0.0
H585 H 0.76696 0.75107 0.47347 0.0
H586 H 0.75684 0.86969 0.48743 0.0
H587 H 0.72957 0.88379 0.50215 0.0
H588 H 0.71904 0.88114 0.48107 0.0
H589 H 0.6725 0.84781 0.48956 0.0
H590 H 0.68391 0.84985 0.51059 0.0
H591 H 0.67868 0.81302 0.501 0.0
H592 H 0.78426 0.75526 0.50284 0.0
H593 H 0.79504 0.76905 0.53162 0.0
H594 H 0.7356 0.84869 0.52669 0.0
C595 C 0.71582 0.8222 0.46308 0.0
C596 C 0.72509 0.8018 0.45065 0.0
C597 C 0.74231 0.77531 0.45462 0.0
C598 C 0.75223 0.77034 0.47062 0.0
C599 C 0.74402 0.7917 0.4825 0.0
C600 C 0.72551 0.8167 0.47899 0.0
C601 C 0.72075 0.83683 0.49378 0.0
C602 C 0.73226 0.86979 0.49092 0.0
C603 C 0.68696 0.83685 0.49905 0.0
C604 C 0.74058 0.81994 0.50588 0.0
C605 C 0.75373 0.79391 0.49929 0.0
C606 C 0.77375 0.77539 0.50823 0.0
C607 C 0.77991 0.78343 0.52448 0.0
C608 C 0.7664 0.80997 0.53138 0.0
C609 C 0.74664 0.82834 0.52183 0.0
H610 H 0.94953 0.97395 0.2774 0.0
H611 H 0.90344 0.05562 0.27668 0.0
H612 H 0.90189 0.05386 0.24657 0.0
H613 H 0.99468 0.97983 0.24022 0.0
H614 H 0.98701 0.94101 0.23379 0.0
H615 H 0.98759 0.95038 0.25516 0.0
H616 H 0.93291 0.92878 0.25865 0.0
H617 H 0.9324 0.9189 0.23736 0.0
H618 H 0.90265 0.94292 0.24579 0.0
H619 H 0.90468 0.04282 0.21768 0.0
H620 H 0.9058 0.02132 0.19028 0.0
H621 H 0.94596 0.94338 0.20874 0.0
C622 C 0.94057 0.99347 0.27075 0.0
C623 C 0.92746 0.01214 0.27904 0.0
C624 C 0.9139 0.03647 0.2703 0.0
C625 C 0.91274 0.03547 0.25331 0.0
C626 C 0.92475 0.0097 0.24544 0.0
C627 C 0.93859 0.99247 0.25379 0.0
C628 C 0.94664 0.96616 0.24235 0.0
C629 C 0.98104 0.95893 0.24291 0.0
C630 C 0.9275 0.93751 0.24628 0.0
C631 C 0.93742 0.98004 0.22615 0.0
C632 C 0.92444 0.00219 0.22843 0.0
C633 C 0.91371 0.01994 0.21571 0.0
C634 C 0.91444 0.00738 0.20021 0.0
C635 C 0.9263 0.98413 0.19746 0.0
C636 C 0.93795 0.9667 0.21053 0.0
H637 H 0.75921 0.13155 0.96244 0.0
H638 H 0.7874 0.22625 0.95522 0.0
H639 H 0.77443 0.23729 0.98407 0.0
H640 H 0.69389 0.14628 0.98701 0.0
H641 H 0.69798 0.11296 -0.01078 0.0
H642 H 0.71312 0.11315 0.97859 0.0
H643 H 0.7674 0.099 0.98889 0.0
H644 H 0.75245 0.1004 -0.00045 0.0
H645 H 0.78403 0.12397 -0.0069 0.0
H646 H 0.75335 0.23832 0.00314 0.0
H647 H 0.7354 0.22779 0.03109 0.0
H648 H 0.71725 0.13319 0.01769 0.0
C649 C 0.76319 0.15466 0.96682 0.0
C650 C 0.77438 0.17814 0.95647 0.0
C651 C 0.77906 0.20789 0.96291 0.0
C652 C 0.77144 0.2144 0.9792 0.0
C653 C 0.75893 0.19098 0.98871 0.0
C654 C 0.75509 0.16164 0.98275 0.0
C655 C 0.74126 0.14034 0.99528 0.0
C656 C 0.71028 0.1274 0.98972 0.0
C657 C 0.76152 0.11452 -0.01063 0.0
C658 C 0.73504 0.16275 -0.00096 0.0
C659 C 0.74544 0.19178 -0.00491 0.0
C660 C 0.74484 0.21579 0.0063 0.0
C661 C 0.73416 0.2097 0.02207 0.0
C662 C 0.72449 0.17978 0.02644 0.0
C663 C 0.72411 0.15636 0.01461 0.0
H664 H 0.93789 0.55076 0.7148 0.0
H665 H 0.91489 0.46126 0.69499 0.0
H666 H 0.91677 0.43865 0.72218 0.0
H667 H 0.99057 0.52315 0.74688 0.0
H668 H 0.97691 0.55077 0.76158 0.0
H669 H 0.97586 0.55976 0.74018 0.0
H670 H 0.91771 0.57117 0.74292 0.0
H671 H 0.91905 0.56146 0.76421 0.0
H672 H 0.89276 0.54194 0.75092 0.0
H673 H 0.91615 0.42588 0.75074 0.0
H674 H 0.91676 0.42322 0.78084 0.0
H675 H 0.94299 0.51898 0.78301 0.0
C676 C 0.93402 0.52637 0.7163 0.0
C677 C 0.92625 0.50765 0.70297 0.0
C678 C 0.92075 0.47589 0.7052 0.0
C679 C 0.92179 0.46277 0.72054 0.0
C680 C 0.92889 0.48161 0.73354 0.0
C681 C 0.9352 0.51261 0.73173 0.0
C682 C 0.94064 0.52743 0.74815 0.0
C683 C 0.97293 0.54106 0.74925 0.0
C684 C 0.91607 0.55194 0.75176 0.0
C685 C 0.93712 0.49965 0.75914 0.0
C686 C 0.92985 0.47364 0.75041 0.0
C687 C 0.92285 0.44571 0.75781 0.0
C688 C 0.92352 0.44423 0.77478 0.0
C689 C 0.93148 0.4704 0.78385 0.0
C690 C 0.93839 0.49837 0.77605 0.0
H691 H 0.78078 0.64039 0.01769 0.0
H692 H 0.74348 0.72733 0.03428 0.0
H693 H 0.72365 0.73766 0.00666 0.0
H694 H 0.80598 0.66441 0.98758 0.0
H695 H 0.79456 0.62901 0.978 0.0
H696 H 0.80473 0.62917 -0.01131 0.0
H697 H 0.75375 0.60401 -0.00205 0.0
H698 H 0.74459 0.60263 0.98711 0.0
H699 H 0.71803 0.62118 -0.00821 0.0
H700 H 0.70786 0.7369 0.98746 0.0
H701 H 0.69555 0.72607 0.95847 0.0
H702 H 0.74445 0.63929 0.96234 0.0
C703 C 0.76942 0.66208 0.01531 0.0
C704 C 0.76454 0.6836 0.02786 0.0
C705 C 0.74857 0.71122 0.02458 0.0
C706 C 0.73682 0.71705 0.00902 0.0
C707 C 0.74159 0.69514 -0.00308 0.0
C708 C 0.75768 0.66827 -0.00012 0.0
C709 C 0.76088 0.64762 0.99524 0.0
C710 C 0.79406 0.64221 0.98958 0.0
C711 C 0.74222 0.61718 -0.01187 0.0
C712 C 0.74308 0.66739 0.98347 0.0
C713 C 0.73313 0.69444 0.99045 0.0
C714 C 0.71558 0.71579 0.9818 0.0
C715 C 0.70848 0.70942 0.96544 0.0
C716 C 0.71854 0.68174 0.95818 0.0
C717 C 0.73582 0.66054 0.96748 0.0
H718 H 0.55837 0.55197 0.26849 0.0
H719 H 0.5702 0.46091 0.28911 0.0
H720 H 0.56749 0.438 0.26196 0.0
H721 H 0.50463 0.52858 0.23524 0.0
H722 H 0.52172 0.5545 0.22077 0.0
H723 H 0.52179 0.56385 0.24214 0.0
H724 H 0.58088 0.56979 0.24079 0.0
H725 H 0.58028 0.55996 0.2195 0.0
H726 H 0.60384 0.53827 0.23335 0.0
H727 H 0.56916 0.42456 0.23337 0.0
H728 H 0.57068 0.42121 0.20327 0.0
H729 H 0.55511 0.51936 0.20016 0.0
C730 C 0.55933 0.52723 0.2672 0.0
C731 C 0.56424 0.50807 0.28079 0.0
C732 C 0.56623 0.47583 0.27875 0.0
C733 C 0.56479 0.46256 0.26342 0.0
C734 C 0.56067 0.48175 0.25018 0.0
C735 C 0.5575 0.51332 0.25176 0.0
C736 C 0.55479 0.52824 0.23513 0.0
C737 C 0.52388 0.54476 0.23322 0.0
C738 C 0.58155 0.55036 0.23201 0.0
C739 C 0.55683 0.50003 0.22426 0.0
C740 C 0.56052 0.47357 0.23326 0.0
C741 C 0.56528 0.44487 0.22608 0.0
C742 C 0.56589 0.44305 0.20908 0.0
C743 C 0.56164 0.46974 0.19971 0.0
C744 C 0.55713 0.49853 0.2073 0.0
H745 H 0.74241 0.26834 0.52791 0.0
H746 H 0.6942 0.3555 0.53096 0.0
H747 H 0.70202 0.36361 0.50175 0.0
H748 H 0.79847 0.28634 0.50012 0.0
H749 H 0.79658 0.25203 0.48787 0.0
H750 H 0.78465 0.25099 0.50885 0.0
H751 H 0.7322 0.22972 0.49964 0.0
H752 H 0.74404 0.23158 0.47861 0.0
H753 H 0.70969 0.25103 0.48515 0.0
H754 H 0.72488 0.36888 0.47549 0.0
H755 H 0.74738 0.36477 0.44866 0.0
H756 H 0.77533 0.27051 0.45876 0.0
C757 C 0.73214 0.28822 0.52218 0.0
C758 C 0.71749 0.31129 0.53162 0.0
C759 C 0.70515 0.33751 0.52388 0.0
C760 C 0.70978 0.34249 0.50734 0.0
C761 C 0.726 0.32054 0.49856 0.0
C762 C 0.73583 0.29324 0.50533 0.0
C763 C 0.75218 0.27371 0.49249 0.0
C764 C 0.78492 0.2653 0.49766 0.0
C765 C 0.73342 0.24479 0.48875 0.0
C766 C 0.75217 0.29568 0.47806 0.0
C767 C 0.73698 0.32249 0.48213 0.0
C768 C 0.73582 0.34762 0.47185 0.0
C769 C 0.74911 0.34496 0.45658 0.0
C770 C 0.76259 0.31693 0.45125 0.0
C771 C 0.76483 0.29205 0.46233 0.0
H772 H 0.04242 0.51667 0.27816 0.0
H773 H 0.07454 0.42253 0.27555 0.0
H774 H 0.076 0.42592 0.24556 0.0
H775 H -0.00413 0.51871 0.24137 0.0
H776 H 0.00838 0.55632 0.23511 0.0
H777 H 0.00711 0.5466 0.25643 0.0
H778 H 0.06405 0.56063 0.25959 0.0
H779 H 0.06535 0.57111 0.2384 0.0
H780 H 0.09203 0.54325 0.24628 0.0
H781 H 0.07489 0.43844 0.21728 0.0
H782 H 0.07596 0.46063 0.19005 0.0
H783 H 0.04792 0.54929 0.20948 0.0
C784 C 0.04831 0.49646 0.2711 0.0
C785 C 0.05658 0.46864 0.27883 0.0
C786 C 0.0665 0.44324 0.2696 0.0
C787 C 0.06773 0.44517 0.25267 0.0
C788 C 0.05936 0.47281 0.24535 0.0
C789 C 0.05017 0.49822 0.25414 0.0
C790 C 0.04536 0.52589 0.24307 0.0
C791 C 0.01219 0.53755 0.24405 0.0
C792 C 0.06806 0.55173 0.24708 0.0
C793 C 0.05244 0.51152 0.22661 0.0
C794 C 0.06046 0.48091 0.2285 0.0
C795 C 0.06871 0.4623 0.21556 0.0
C796 C 0.06926 0.4752 0.20018 0.0
C797 C 0.06221 0.50661 0.19777 0.0
C798 C 0.05316 0.52516 0.21107 0.0
H799 H 0.24097 0.35119 0.02138 0.0
H800 H 0.28801 0.26384 0.02724 0.0
H801 H 0.2805 0.25333 -0.00222 0.0
H802 H 0.18271 0.32665 -0.00376 0.0
H803 H 0.18438 0.36127 0.9946 0.0
H804 H 0.19491 0.36239 0.00518 0.0
H805 H 0.24538 0.38733 -0.00494 0.0
H806 H 0.23526 0.3846 0.98439 0.0
H807 H 0.27096 0.36731 0.99045 0.0
H808 H 0.26456 0.25033 0.97837 0.0
H809 H 0.24128 0.25728 0.95117 0.0
H810 H 0.20402 0.34507 0.96653 0.0
C811 C 0.2503 0.32996 0.01657 0.0
C812 C 0.26493 0.30817 0.0267 0.0
C813 C 0.27666 0.28081 0.01973 0.0
C814 C 0.27244 0.27467 0.00304 0.0
C815 C 0.25635 0.29607 -0.00632 0.0
C816 C 0.24581 0.32333 0.00024 0.0
C817 C 0.22795 0.34211 -0.01194 0.0
C818 C 0.195 0.3485 -0.00616 0.0
C819 C 0.24701 0.37199 0.99434 0.0
C820 C 0.23062 0.32008 0.98402 0.0
C821 C 0.2476 0.29393 0.98727 0.0
C822 C 0.25098 0.27056 0.97578 0.0
C823 C 0.23705 0.27433 0.96053 0.0
C824 C 0.21992 0.30117 0.95704 0.0
C825 C 0.21628 0.32394 0.96907 0.0
H826 H 0.44967 0.47426 0.78229 0.0
H827 H 0.39634 0.55826 0.78116 0.0
H828 H 0.39391 0.55518 0.75112 0.0
H829 H 0.49268 0.48302 0.7446 0.0
H830 H 0.48852 0.44344 0.73856 0.0
H831 H 0.48909 0.45346 0.75984 0.0
H832 H 0.43706 0.42689 0.76431 0.0
H833 H 0.43647 0.41618 0.74313 0.0
H834 H 0.40496 0.4375 0.75176 0.0
H835 H 0.39468 0.54201 0.72234 0.0
H836 H 0.39661 0.51893 0.69522 0.0
H837 H 0.44787 0.44117 0.71422 0.0
C838 C 0.43871 0.49261 0.77555 0.0
C839 C 0.42446 0.51737 0.78368 0.0
C840 C 0.40841 0.53999 0.77486 0.0
C841 C 0.40674 0.53821 0.75791 0.0
C842 C 0.42076 0.51334 0.75019 0.0
C843 C 0.4362 0.49073 0.75864 0.0
C844 C 0.44629 0.46482 0.74745 0.0
C845 C 0.48123 0.46098 0.74762 0.0
C846 C 0.43023 0.43457 0.75194 0.0
C847 C 0.43494 0.47697 0.73127 0.0
C848 C 0.42009 0.50487 0.73331 0.0
C849 C 0.40624 0.52025 0.72054 0.0
C850 C 0.40733 0.50676 0.70521 0.0
C851 C 0.42225 0.47813 0.70271 0.0
C852 C 0.43656 0.46313 0.71585 0.0
H853 H 0.22755 0.63268 0.52399 0.0
H854 H 0.20968 0.72906 0.53395 0.0
H855 H 0.2211 0.74136 0.50516 0.0
H856 H 0.29149 0.64236 0.49925 0.0
H857 H 0.28178 0.61105 0.48588 0.0
H858 H 0.26885 0.61079 0.50668 0.0
H859 H 0.21329 0.6043 0.49624 0.0
H860 H 0.22626 0.60575 0.47542 0.0
H861 H 0.19741 0.63231 0.48248 0.0
H862 H 0.2401 0.74339 0.47581 0.0
H863 H 0.25759 0.73402 0.44754 0.0
H864 H 0.26567 0.63672 0.45814 0.0
C865 C 0.22539 0.65636 0.52012 0.0
C866 C 0.21804 0.67995 0.53128 0.0
C867 C 0.21526 0.71057 0.52562 0.0
C868 C 0.22198 0.71781 0.50932 0.0
C869 C 0.23131 0.69415 0.49895 0.0
C870 C 0.23243 0.66398 0.50409 0.0
C871 C 0.24388 0.64274 0.49085 0.0
C872 C 0.27324 0.62576 0.49598 0.0
C873 C 0.21871 0.61994 0.48595 0.0
C874 C 0.25019 0.66587 0.47755 0.0
C875 C 0.24259 0.69536 0.48235 0.0
C876 C 0.24619 0.72041 0.47194 0.0
C877 C 0.25669 0.71498 0.456 0.0
C878 C 0.26338 0.68474 0.45071 0.0
C879 C 0.26104 0.66015 0.46187 0.0
H880 H 0.3458 0.98133 0.12515 0.0
H881 H 0.4258 0.93748 0.10403 0.0
H882 H 0.39464 0.89248 0.09673 0.0
H883 H 0.31275 0.91763 0.14324 0.0
H884 H 0.2738 0.92733 0.13823 0.0
H885 H 0.30188 0.9572 0.14023 0.0
H886 H 0.28773 0.9758 0.11127 0.0
H887 H 0.26053 0.9451 0.10905 0.0
H888 H 0.29079 0.94966 0.09431 0.0
H889 H 0.3589 0.84951 0.09683 0.0
H890 H 0.31514 0.81421 0.09628 0.0
H891 H 0.25597 0.88615 0.11503 0.0
C892 C 0.35636 0.96261 0.1185 0.0
C893 C 0.38809 0.96247 0.11519 0.0
C894 C 0.40142 0.93797 0.10642 0.0
C895 C 0.38401 0.91221 0.10246 0.0
C896 C 0.35331 0.91196 0.10701 0.0
C897 C 0.33912 0.93693 0.11418 0.0
C898 C 0.30563 0.93038 0.11768 0.0
C899 C 0.29811 0.93332 0.13593 0.0
C900 C 0.28494 0.95147 0.10746 0.0
C901 C 0.30384 0.89722 0.1121 0.0
C902 C 0.33182 0.88716 0.10624 0.0
C903 C 0.33676 0.8571 0.1012 0.0
C904 C 0.31201 0.83704 0.10131 0.0
C905 C 0.28268 0.84735 0.10607 0.0
C906 C 0.2785 0.87761 0.11184 0.0
H907 H 0.27037 0.12664 0.3534 0.0
H908 H 0.30833 0.15262 0.40022 0.0
H909 H 0.34818 0.1134 0.39745 0.0
H910 H 0.28454 0.04635 0.35478 0.0
H911 H 0.29802 0.0425 0.33412 0.0
H912 H 0.27159 0.07278 0.33935 0.0
H913 H 0.30933 0.11284 0.32763 0.0
H914 H 0.33561 0.08242 0.32242 0.0
H915 H 0.3481 0.11383 0.33502 0.0
H916 H 0.38044 0.0686 0.39168 0.0
H917 H 0.41257 0.0278 0.3794 0.0
H918 H 0.35876 0.03408 0.33512 0.0
C919 C 0.28763 0.12451 0.36276 0.0
C920 C 0.28609 0.14223 0.37716 0.0
C921 C 0.30898 0.1389 0.3892 0.0
C922 C 0.33157 0.11654 0.38784 0.0
C923 C 0.33167 0.09814 0.3741 0.0
C924 C 0.31126 0.10253 0.36141 0.0
C925 C 0.31858 0.08065 0.34752 0.0
C926 C 0.29156 0.0593 0.34374 0.0
C927 C 0.32851 0.0985 0.33225 0.0
C928 C 0.34529 0.06301 0.35483 0.0
C929 C 0.3521 0.07322 0.37025 0.0
C930 C 0.37569 0.06049 0.37949 0.0
C931 C 0.39373 0.03729 0.37248 0.0
C932 C 0.38814 0.02748 0.35637 0.0
C933 C 0.36335 0.04037 0.34759 0.0
H934 H 0.12422 0.0339 0.64777 0.0
H935 H 0.07872 0.0191 0.60144 0.0
H936 H 0.11469 0.05499 0.58843 0.0
H937 H 0.13645 0.10931 0.6457 0.0
H938 H 0.17445 0.10976 0.65415 0.0
H939 H 0.14863 0.07925 0.65934 0.0
H940 H 0.18839 0.03922 0.64942 0.0
H941 H 0.21438 0.06981 0.64433 0.0
H942 H 0.20385 0.04197 0.62911 0.0
H943 H 0.1437 0.10006 0.58273 0.0
H944 H 0.17662 0.14489 0.58118 0.0
H945 H 0.21057 0.12704 0.62998 0.0
C946 C 0.1225 0.03718 0.63476 0.0
C947 C 0.09881 0.02371 0.62554 0.0
C948 C 0.09672 0.02929 0.60866 0.0
C949 C 0.11709 0.04944 0.6012 0.0
C950 C 0.13944 0.06315 0.61081 0.0
C951 C 0.14304 0.05664 0.62709 0.0
C952 C 0.16808 0.0759 0.63474 0.0
C953 C 0.15614 0.09465 0.64934 0.0
C954 C 0.19531 0.05551 0.63968 0.0
C955 C 0.17591 0.09639 0.62046 0.0
C956 C 0.15892 0.08827 0.6069 0.0
C957 C 0.15825 0.10582 0.59291 0.0
C958 C 0.17665 0.1315 0.59232 0.0
C959 C 0.19662 0.13871 0.6053 0.0
C960 C 0.19575 0.12164 0.61985 0.0
H961 H 0.09269 0.95044 0.88201 0.0
H962 H 0.10733 0.94555 0.82963 0.0
H963 H 0.15118 0.91241 0.83343 0.0
H964 H 0.16973 0.94138 0.89706 0.0
H965 H 0.16053 0.91245 0.91196 0.0
H966 H 0.13211 0.94036 0.90612 0.0
H967 H 0.09492 0.89652 0.89843 0.0
H968 H 0.12328 0.86869 0.90443 0.0
H969 H 0.10724 0.86732 0.88426 0.0
H970 H 0.19403 0.88175 0.8417 0.0
H971 H 0.22649 0.84178 0.85451 0.0
H972 H 0.1807 0.85862 0.90069 0.0
C973 C 0.10534 0.94242 0.87147 0.0
C974 C 0.09816 0.95252 0.85564 0.0
C975 C 0.11383 0.93998 0.842 0.0
C976 C 0.1389 0.92108 0.84394 0.0
C977 C 0.14698 0.91315 0.85957 0.0
C978 C 0.12994 0.92186 0.8731 0.0
C979 C 0.14041 0.90438 0.88798 0.0
C980 C 0.15136 0.92597 0.90157 0.0
C981 C 0.11495 0.88296 0.89413 0.0
C982 C 0.16657 0.88613 0.88059 0.0
C983 C 0.17012 0.89188 0.86424 0.0
C984 C 0.1916 0.87664 0.85453 0.0
C985 C 0.20964 0.85394 0.86177 0.0
C986 C 0.20572 0.84725 0.87841 0.0
C987 C 0.18422 0.86368 0.88791 0.0
H988 H 0.70588 0.13525 0.85843 0.0
H989 H 0.69597 0.12467 0.91088 0.0
H990 H 0.66529 0.07937 0.90711 0.0
H991 H 0.62859 0.12072 0.85101 0.0
H992 H 0.63365 0.09968 0.83228 0.0
H993 H 0.66166 0.1275 0.83836 0.0
H994 H 0.70363 0.08561 0.83615 0.0
H995 H 0.67528 0.0577 0.8304 0.0
H996 H 0.69979 0.05049 0.84758 0.0
H997 H 0.63281 0.03885 0.89943 0.0
H998 H 0.59072 0.00938 0.88708 0.0
H999 H 0.61368 0.04821 0.8399 0.0
C1000 C 0.69745 0.12303 0.86899 0.0
C1001 C 0.70488 0.13253 0.88493 0.0
C1002 C 0.6922 0.11693 0.89851 0.0
C1003 C 0.67475 0.09089 0.89658 0.0
C1004 C 0.66868 0.08119 0.88095 0.0
C1005 C 0.67864 0.09706 0.86728 0.0
C1006 C 0.66345 0.08441 0.85213 0.0
C1007 C 0.64578 0.10958 0.84292 0.0
C1008 C 0.68695 0.06861 0.84091 0.0
C1009 C 0.6421 0.0611 0.85988 0.0
C1010 C 0.6468 0.05861 0.87637 0.0
C1011 C 0.62883 0.04018 0.88645 0.0
C1012 C 0.60478 0.02395 0.87946 0.0
C1013 C 0.59914 0.02664 0.86267 0.0
C1014 C 0.61798 0.0454 0.85279 0.0
H1015 H 0.61676 0.9415 0.64903 0.0
H1016 H 0.58506 0.97269 0.60172 0.0
H1017 H 0.6216 0.93697 0.58844 0.0
H1018 H 0.69661 0.93109 0.63934 0.0
H1019 H 0.69988 0.8968 0.65152 0.0
H1020 H 0.67251 0.92606 0.65697 0.0
H1021 H 0.62931 0.88555 0.6563 0.0
H1022 H 0.65669 0.85635 0.65074 0.0
H1023 H 0.62363 0.86304 0.63815 0.0
H1024 H 0.65623 0.89616 0.58079 0.0
H1025 H 0.69429 0.85577 0.5777 0.0
H1026 H 0.70642 0.85153 0.63022 0.0
C1027 C 0.61781 0.94121 0.63586 0.0
C1028 C 0.59831 0.95972 0.62628 0.0
C1029 C 0.59981 0.95843 0.60914 0.0
C1030 C 0.62044 0.93838 0.60158 0.0
C1031 C 0.63883 0.91999 0.61146 0.0
C1032 C 0.63799 0.92135 0.62819 0.0
C1033 C 0.65932 0.89812 0.63596 0.0
C1034 C 0.68353 0.91399 0.64656 0.0
C1035 C 0.64114 0.87436 0.64587 0.0
C1036 C 0.67303 0.88387 0.62081 0.0
C1037 C 0.66016 0.89663 0.60695 0.0
C1038 C 0.6671 0.8865 0.59145 0.0
C1039 C 0.68879 0.86354 0.5899 0.0
C1040 C 0.70397 0.85141 0.60373 0.0
C1041 C 0.69544 0.86087 0.6195 0.0
H1042 H 0.8047 0.83794 0.35555 0.0
H1043 H 0.74516 0.89458 0.3853 0.0
H1044 H 0.78197 0.93703 0.38397 0.0
H1045 H 0.87657 0.85997 0.36556 0.0
H1046 H 0.89115 0.86505 0.34519 0.0
H1047 H 0.85989 0.83921 0.34878 0.0
H1048 H 0.8283 0.86928 0.32718 0.0
H1049 H 0.85953 0.89559 0.32413 0.0
H1050 H 0.82227 0.90996 0.32971 0.0
H1051 H 0.8304 0.96853 0.38419 0.0
H1052 H 0.87777 0.99648 0.37642 0.0
H1053 H 0.90073 0.92344 0.34262 0.0
C1054 C 0.79899 0.85966 0.36125 0.0
C1055 C 0.77339 0.86253 0.37158 0.0
C1056 C 0.76595 0.89143 0.37839 0.0
C1057 C 0.78659 0.9157 0.37764 0.0
C1058 C 0.81344 0.91123 0.36894 0.0
C1059 C 0.81862 0.88489 0.35984 0.0
C1060 C 0.84735 0.88798 0.34973 0.0
C1061 C 0.87006 0.86146 0.35251 0.0
C1062 C 0.83888 0.89089 0.33162 0.0
C1063 C 0.85933 0.91806 0.35632 0.0
C1064 C 0.83937 0.9313 0.36732 0.0
C1065 C 0.84602 0.95882 0.37532 0.0
C1066 C 0.87311 0.97418 0.37115 0.0
C1067 C 0.89268 0.96169 0.35915 0.0
C1068 C 0.88609 0.93307 0.35201 0.0
H1069 H 0.80083 0.12012 0.08195 0.0
H1070 H 0.76887 0.14977 0.12963 0.0
H1071 H 0.80508 0.11352 0.14249 0.0
H1072 H 0.81271 0.03995 0.09082 0.0
H1073 H 0.84716 0.03745 0.07876 0.0
H1074 H 0.81774 0.06464 0.07342 0.0
H1075 H 0.85711 0.10877 0.07464 0.0
H1076 H 0.8866 0.08163 0.07997 0.0
H1077 H 0.87922 0.11432 0.09288 0.0
H1078 H 0.84723 0.08113 0.14976 0.0
H1079 H 0.88862 0.04436 0.15268 0.0
H1080 H 0.89192 0.03083 0.10017 0.0
C1081 C 0.80105 0.1186 0.09511 0.0
C1082 C 0.78218 0.13746 0.10492 0.0
C1083 C 0.78337 0.13546 0.12203 0.0
C1084 C 0.80373 0.11503 0.12936 0.0
C1085 C 0.82253 0.09735 0.11929 0.0
C1086 C 0.82125 0.09855 0.10258 0.0
C1087 C 0.8449 0.0778 0.09465 0.0
C1088 C 0.8297 0.05349 0.08378 0.0
C1089 C 0.86834 0.09677 0.08496 0.0
C1090 C 0.85924 0.06395 0.1097 0.0
C1091 C 0.84629 0.07653 0.12364 0.0
C1092 C 0.85691 0.07026 0.13906 0.0
C1093 C 0.8805 0.04934 0.14049 0.0
C1094 C 0.89246 0.0338 0.12666 0.0
C1095 C 0.88262 0.0419 0.11091 0.0
H1096 H 0.78849 0.34676 0.63158 0.0
H1097 H 0.80453 0.34709 0.57924 0.0
H1098 H 0.83868 0.39033 0.58183 0.0
H1099 H 0.79697 0.42748 0.64064 0.0
H1100 H 0.82138 0.42215 0.65806 0.0
H1101 H 0.79432 0.39284 0.65259 0.0
H1102 H 0.83839 0.35287 0.65133 0.0
H1103 H 0.86527 0.38234 0.65682 0.0
H1104 H 0.87108 0.36022 0.63851 0.0
H1105 H 0.86978 0.43403 0.58875 0.0
H1106 H 0.90639 0.47015 0.60136 0.0
H1107 H 0.87758 0.4387 0.64919 0.0
C1108 C 0.79942 0.35589 0.62079 0.0
C1109 C 0.79241 0.34457 0.60512 0.0
C1110 C 0.80816 0.35634 0.59134 0.0
C1111 C 0.82771 0.38106 0.59257 0.0
C1112 C 0.83304 0.39292 0.60785 0.0
C1113 C 0.82065 0.38013 0.62186 0.0
C1114 C 0.83467 0.39489 0.63678 0.0
C1115 C 0.81036 0.41026 0.64765 0.0
C1116 C 0.85347 0.37117 0.64643 0.0
C1117 C 0.85537 0.41841 0.62872 0.0
C1118 C 0.85381 0.41696 0.61203 0.0
C1119 C 0.87155 0.43548 0.60186 0.0
C1120 C 0.89229 0.45575 0.60905 0.0
C1121 C 0.89472 0.4571 0.62614 0.0
C1122 C 0.87586 0.4384 0.63604 0.0
H1123 H 0.89189 0.56417 0.84229 0.0
H1124 H 0.88662 0.49874 0.88199 0.0
H1125 H 0.84024 0.52507 0.89226 0.0
H1126 H 0.87281 0.62893 0.86388 0.0
H1127 H 0.85011 0.64688 0.84823 0.0
H1128 H 0.88002 0.62038 0.84273 0.0
H1129 H 0.84147 0.58714 0.82676 0.0
H1130 H 0.81162 0.61413 0.83192 0.0
H1131 H 0.80714 0.57397 0.83668 0.0
H1132 H 0.80775 0.56417 0.90169 0.0
H1133 H 0.78194 0.61056 0.90914 0.0
H1134 H 0.79597 0.64838 0.86084 0.0
C1135 C 0.88077 0.55558 0.85318 0.0
C1136 C 0.89259 0.53003 0.86167 0.0
C1137 C 0.87804 0.5189 0.87575 0.0
C1138 C 0.85149 0.53327 0.88136 0.0
C1139 C 0.84024 0.5584 0.87263 0.0
C1140 C 0.85418 0.5695 0.85882 0.0
C1141 C 0.83884 0.59859 0.85269 0.0
C1142 C 0.86182 0.62526 0.85185 0.0
C1143 C 0.82385 0.59311 0.83602 0.0
C1144 C 0.81526 0.60341 0.86607 0.0
C1145 C 0.81684 0.57957 0.87727 0.0
C1146 C 0.8039 0.5816 0.89253 0.0
C1147 C 0.78852 0.60823 0.89656 0.0
C1148 C 0.78333 0.6318 0.885 0.0
C1149 C 0.79744 0.6297 0.8695 0.0
H1150 H 0.71143 0.63239 0.12612 0.0
H1151 H 0.68247 0.65099 0.07655 0.0
H1152 H 0.64314 0.6114 0.07859 0.0
H1153 H 0.6998 0.55191 0.12686 0.0
H1154 H 0.68283 0.55071 0.14688 0.0
H1155 H 0.70936 0.58074 0.14176 0.0
H1156 H 0.66882 0.62158 0.14989 0.0
H1157 H 0.64244 0.59142 0.15504 0.0
H1158 H 0.63152 0.6206 0.1406 0.0
H1159 H 0.61075 0.56693 0.08443 0.0
H1160 H 0.57726 0.52743 0.09669 0.0
H1161 H 0.62286 0.54098 0.14309 0.0
C1162 C 0.69628 0.62847 0.11593 0.0
C1163 C 0.70033 0.64391 0.10104 0.0
C1164 C 0.68001 0.63866 0.08794 0.0
C1165 C 0.65775 0.61614 0.08889 0.0
C1166 C 0.65543 0.59971 0.10324 0.0
C1167 C 0.67314 0.60627 0.11678 0.0
C1168 C 0.66386 0.58637 0.13103 0.0
C1169 C 0.69057 0.56623 0.13696 0.0
C1170 C 0.65087 0.60617 0.14496 0.0
C1171 C 0.63908 0.56729 0.12305 0.0
C1172 C 0.63494 0.57508 0.10698 0.0
C1173 C 0.61338 0.56069 0.0971 0.0
C1174 C 0.59455 0.53832 0.10411 0.0
C1175 C 0.59751 0.53101 0.12079 0.0
C1176 C 0.62033 0.54549 0.13023 0.0
H1177 H 0.70623 0.38116 0.39312 0.0
H1178 H 0.70839 0.32344 0.35 0.0
H1179 H 0.67032 0.35773 0.33711 0.0
H1180 H 0.63323 0.39811 0.39601 0.0
H1181 H 0.63644 0.43827 0.40107 0.0
H1182 H 0.66718 0.41235 0.40585 0.0
H1183 H 0.70505 0.44588 0.38954 0.0
H1184 H 0.67445 0.47236 0.385 0.0
H1185 H 0.69671 0.45571 0.36871 0.0
H1186 H 0.6243 0.38897 0.33248 0.0
H1187 H 0.5819 0.42594 0.33164 0.0
H1188 H 0.61433 0.46885 0.37602 0.0
C1189 C 0.69999 0.37628 0.38071 0.0
C1190 C 0.71043 0.34959 0.37256 0.0
C1191 C 0.70066 0.34372 0.35647 0.0
C1192 C 0.67915 0.36309 0.34907 0.0
C1193 C 0.66846 0.38844 0.35783 0.0
C1194 C 0.6795 0.3959 0.373 0.0
C1195 C 0.66375 0.42416 0.37994 0.0
C1196 C 0.6493 0.41779 0.3967 0.0
C1197 C 0.68632 0.45114 0.38084 0.0
C1198 C 0.63965 0.42938 0.36705 0.0
C1199 C 0.64309 0.40849 0.35441 0.0
C1200 C 0.62199 0.40614 0.34194 0.0
C1201 C 0.59766 0.42677 0.3418 0.0
C1202 C 0.59504 0.45009 0.35375 0.0
C1203 C 0.61576 0.45103 0.36684 0.0
H1204 H 0.09297 0.54117 0.37744 0.0
H1205 H 0.11703 0.53982 0.32609 0.0
H1206 H 0.16413 0.56559 0.3315 0.0
H1207 H 0.10931 0.61923 0.37769 0.0
H1208 H 0.12272 0.62169 0.39838 0.0
H1209 H 0.09615 0.59216 0.39275 0.0
H1210 H 0.13374 0.55112 0.40379 0.0
H1211 H 0.1605 0.58082 0.40918 0.0
H1212 H 0.17241 0.54968 0.39613 0.0
H1213 H 0.20517 0.59551 0.33997 0.0
H1214 H 0.23204 0.64107 0.3504 0.0
H1215 H 0.17771 0.63676 0.39469 0.0
C1216 C 0.1088 0.5456 0.36756 0.0
C1217 C 0.10298 0.53501 0.35163 0.0
C1218 C 0.12257 0.54405 0.33872 0.0
C1219 C 0.1496 0.5591 0.3416 0.0
C1220 C 0.15574 0.56804 0.35733 0.0
C1221 C 0.1353 0.56329 0.37005 0.0
C1222 C 0.14311 0.58402 0.38428 0.0
C1223 C 0.11623 0.60555 0.38851 0.0
C1224 C 0.15305 0.56527 0.39922 0.0
C1225 C 0.16981 0.60157 0.37696 0.0
C1226 C 0.17756 0.59067 0.36178 0.0
C1227 C 0.19968 0.60439 0.35193 0.0
C1228 C 0.21434 0.63049 0.35773 0.0
C1229 C 0.20656 0.64223 0.37314 0.0
C1230 C 0.18402 0.62778 0.38284 0.0
H1231 H 0.21881 0.38767 0.09469 0.0
H1232 H 0.18238 0.30976 0.12121 0.0
H1233 H 0.13689 0.34055 0.12864 0.0
H1234 H 0.19276 0.448 0.12034 0.0
H1235 H 0.18167 0.47363 0.10414 0.0
H1236 H 0.21198 0.44623 0.1009 0.0
H1237 H 0.18409 0.42364 0.07602 0.0
H1238 H 0.15416 0.45173 0.07885 0.0
H1239 H 0.14491 0.41148 0.07803 0.0
H1240 H 0.09459 0.37674 0.1313 0.0
H1241 H 0.0606 0.42145 0.13443 0.0
H1242 H 0.12359 0.47727 0.10645 0.0
C1243 C 0.20128 0.37716 0.10208 0.0
C1244 C 0.20374 0.34624 0.10723 0.0
C1245 C 0.18097 0.33351 0.11735 0.0
C1246 C 0.15488 0.35063 0.12135 0.0
C1247 C 0.15221 0.38032 0.11517 0.0
C1248 C 0.17496 0.39385 0.10602 0.0
C1249 C 0.16609 0.42626 0.10094 0.0
C1250 C 0.1895 0.44993 0.10696 0.0
C1251 C 0.16208 0.42838 0.08236 0.0
C1252 C 0.13545 0.42928 0.10954 0.0
C1253 C 0.12759 0.40194 0.11704 0.0
C1254 C 0.10034 0.39826 0.12549 0.0
C1255 C 0.08106 0.4236 0.12703 0.0
C1256 C 0.08941 0.45228 0.12042 0.0
C1257 C 0.11656 0.45523 0.11124 0.0
H1258 H 0.38401 0.42741 0.8412 0.0
H1259 H 0.3938 0.47984 0.88587 0.0
H1260 H 0.35318 0.44842 0.89862 0.0
H1261 H 0.30263 0.4157 0.84181 0.0
H1262 H 0.30556 0.37673 0.83449 0.0
H1263 H 0.33424 0.40442 0.82897 0.0
H1264 H 0.37614 0.36831 0.84039 0.0
H1265 H 0.34738 0.34078 0.84604 0.0
H1266 H 0.37351 0.35517 0.86114 0.0
H1267 H 0.31935 0.40879 0.90713 0.0
H1268 H 0.28586 0.36592 0.91165 0.0
H1269 H 0.29116 0.34074 0.8604 0.0
C1270 C 0.37734 0.43234 0.85365 0.0
C1271 C 0.39159 0.45579 0.86271 0.0
C1272 C 0.3831 0.46161 0.87897 0.0
C1273 C 0.36003 0.44415 0.88615 0.0
C1274 C 0.34639 0.4212 0.87682 0.0
C1275 C 0.35457 0.41515 0.86096 0.0
C1276 C 0.33753 0.38781 0.85407 0.0
C1277 C 0.31885 0.39673 0.83895 0.0
C1278 C 0.35997 0.36146 0.85018 0.0
C1279 C 0.31745 0.38001 0.86854 0.0
C1280 C 0.32395 0.39931 0.88151 0.0
C1281 C 0.31261 0.39459 0.89695 0.0
C1282 C 0.29318 0.37013 0.89927 0.0
C1283 C 0.28378 0.35131 0.8861 0.0
C1284 C 0.29667 0.35574 0.87049 0.0
H1285 H 0.38149 0.52426 0.60725 0.0
H1286 H 0.39061 0.55229 0.65787 0.0
H1287 H 0.34765 0.58723 0.6551 0.0
H1288 H 0.36742 0.60121 0.59276 0.0
H1289 H 0.33965 0.59069 0.57758 0.0
H1290 H 0.36876 0.56366 0.58347 0.0
H1291 H 0.32627 0.52425 0.59019 0.0
H1292 H 0.29739 0.552 0.5847 0.0
H1293 H 0.29661 0.5344 0.60454 0.0
H1294 H 0.30463 0.61836 0.64844 0.0
H1295 H 0.2708 0.65633 0.63526 0.0
H1296 H 0.29314 0.61629 0.58819 0.0
C1297 C 0.37449 0.53808 0.61758 0.0
C1298 C 0.38857 0.5347 0.63298 0.0
C1299 C 0.37941 0.5537 0.64613 0.0
C1300 C 0.35477 0.57343 0.64479 0.0
C1301 C 0.34008 0.57517 0.62998 0.0
C1302 C 0.35006 0.5592 0.61632 0.0
C1303 C 0.3321 0.56949 0.60145 0.0
C1304 C 0.35326 0.58203 0.58804 0.0
C1305 C 0.3119 0.54347 0.59484 0.0
C1306 C 0.31256 0.5947 0.60905 0.0
C1307 C 0.31635 0.59618 0.62563 0.0
C1308 C 0.3013 0.6177 0.6354 0.0
C1309 C 0.28237 0.63926 0.62786 0.0
C1310 C 0.27923 0.63912 0.61078 0.0
C1311 C 0.29442 0.61648 0.60132 0.0
H1312 H 0.36751 0.07656 0.10995 0.0
H1313 H 0.3797 0.10468 0.16007 0.0
H1314 H 0.35508 0.15469 0.154 0.0
H1315 H 0.37691 0.15398 0.09032 0.0
H1316 H 0.34694 0.14647 0.07586 0.0
H1317 H 0.37009 0.1153 0.0834 0.0
H1318 H 0.32092 0.08698 0.0927 0.0
H1319 H 0.29796 0.11831 0.08524 0.0
H1320 H 0.29444 0.10627 0.10615 0.0
H1321 H 0.32159 0.19686 0.14381 0.0
H1322 H 0.28744 0.23255 0.12897 0.0
H1323 H 0.29852 0.1784 0.08508 0.0
C1324 C 0.36596 0.09383 0.11941 0.0
C1325 C 0.37579 0.08738 0.13538 0.0
C1326 C 0.37263 0.10974 0.14773 0.0
C1327 C 0.35867 0.13805 0.14438 0.0
C1328 C 0.34814 0.14343 0.12863 0.0
C1329 C 0.3521 0.12222 0.11623 0.0
C1330 C 0.33606 0.13246 0.1008 0.0
C1331 C 0.35888 0.13736 0.08677 0.0
C1332 C 0.31086 0.10965 0.09595 0.0
C1333 C 0.32238 0.16255 0.10649 0.0
C1334 C 0.3293 0.16827 0.12263 0.0
C1335 C 0.31669 0.19306 0.13106 0.0
C1336 C 0.29714 0.21295 0.12263 0.0
C1337 C 0.291 0.20811 0.10596 0.0
C1338 C 0.30354 0.18263 0.09779 0.0
H1339 H 0.16085 0.09109 0.3719 0.0
H1340 H 0.11507 0.16359 0.39877 0.0
H1341 H 0.06467 0.14143 0.39113 0.0
H1342 H 0.10725 0.08397 0.33868 0.0
H1343 H 0.11155 0.04281 0.33792 0.0
H1344 H 0.14279 0.06629 0.34474 0.0
H1345 H 0.14478 0.03493 0.3717 0.0
H1346 H 0.11326 0.0118 0.36488 0.0
H1347 H 0.11077 0.03191 0.38403 0.0
H1348 H 0.01929 0.10914 0.38075 0.0
H1349 H 0.99124 0.0724 0.36741 0.0
H1350 H 0.06124 0.02063 0.34884 0.0
C1351 C 0.14019 0.1026 0.37598 0.0
C1352 C 0.14167 0.12904 0.3858 0.0
C1353 C 0.11426 0.14351 0.391 0.0
C1354 C 0.08565 0.13094 0.38682 0.0
C1355 C 0.08514 0.1042 0.37739 0.0
C1356 C 0.11182 0.09049 0.37193 0.0
C1357 C 0.1057 0.06136 0.36254 0.0
C1358 C 0.11751 0.06378 0.34492 0.0
C1359 C 0.11944 0.03335 0.37132 0.0
C1360 C 0.07131 0.06088 0.36316 0.0
C1361 C 0.05968 0.08561 0.37185 0.0
C1362 C 0.02827 0.08995 0.37383 0.0
C1363 C 0.00847 0.0691 0.36624 0.0
C1364 C 0.02028 0.04427 0.35704 0.0
C1365 C 0.05193 0.03964 0.35581 0.0
H1366 H 0.13348 0.88438 0.65693 0.0
H1367 H 0.07709 0.90857 0.61551 0.0
H1368 H 0.09545 0.86265 0.60084 0.0
H1369 H 0.19655 0.8615 0.63812 0.0
H1370 H 0.20528 0.82825 0.65036 0.0
H1371 H 0.18288 0.859 0.65882 0.0
H1372 H 0.13963 0.82041 0.66582 0.0
H1373 H 0.16252 0.78973 0.65738 0.0
H1374 H 0.12428 0.79628 0.65002 0.0
H1375 H 0.12696 0.82227 0.58886 0.0
H1376 H 0.16613 0.78428 0.58097 0.0
H1377 H 0.20176 0.78475 0.63025 0.0
C1378 C 0.12451 0.87936 0.64495 0.0
C1379 C 0.10416 0.89973 0.63722 0.0
C1380 C 0.09261 0.89289 0.62158 0.0
C1381 C 0.10277 0.86688 0.61321 0.0
C1382 C 0.12374 0.84772 0.62091 0.0
C1383 C 0.13385 0.85302 0.6366 0.0
C1384 C 0.15807 0.82993 0.64153 0.0
C1385 C 0.18742 0.84564 0.64754 0.0
C1386 C 0.14536 0.80777 0.65444 0.0
C1387 C 0.16282 0.81373 0.62542 0.0
C1388 C 0.14192 0.82356 0.61392 0.0
C1389 C 0.14289 0.81365 0.59783 0.0
C1390 C 0.16538 0.79243 0.59343 0.0
C1391 C 0.18667 0.78174 0.60505 0.0
C1392 C 0.18566 0.79273 0.62118 0.0
H1393 H 0.44682 0.96267 0.88051 0.0
H1394 H 0.45932 0.91475 0.8346 0.0
H1395 H 0.41953 0.87765 0.84246 0.0
H1396 H 0.43189 0.89537 0.90575 0.0
H1397 H 0.40291 0.9145 0.91772 0.0
H1398 H 0.43371 0.93629 0.90889 0.0
H1399 H 0.39464 0.97173 0.89479 0.0
H1400 H 0.36354 0.95007 0.90335 0.0
H1401 H 0.36604 0.95541 0.88162 0.0
H1402 H 0.37889 0.84608 0.85484 0.0
H1403 H 0.33383 0.82578 0.8694 0.0
H1404 H 0.34553 0.8947 0.90702 0.0
C1405 C 0.44112 0.94434 0.87215 0.0
C1406 C 0.45641 0.94115 0.85707 0.0
C1407 C 0.44821 0.91717 0.84634 0.0
C1408 C 0.4258 0.89591 0.85073 0.0
C1409 C 0.41188 0.89892 0.86592 0.0
C1410 C 0.41882 0.92275 0.87639 0.0
C1411 C 0.3987 0.92192 0.89145 0.0
C1412 C 0.41796 0.91668 0.90686 0.0
C1413 C 0.37959 0.95153 0.89288 0.0
C1414 C 0.37885 0.89428 0.88756 0.0
C1415 C 0.38744 0.88104 0.87294 0.0
C1416 C 0.37202 0.856 0.86638 0.0
C1417 C 0.34653 0.84456 0.87474 0.0
C1418 C 0.33631 0.8586 0.88931 0.0
C1419 C 0.353 0.88348 0.89592 0.0
H1420 H 0.32055 0.76249 0.3569 0.0
H1421 H 0.26208 0.81088 0.39118 0.0
H1422 H 0.29019 0.85882 0.38585 0.0
H1423 H 0.39073 0.80209 0.36453 0.0
H1424 H 0.40217 0.80443 0.34346 0.0
H1425 H 0.37822 0.77335 0.35024 0.0
H1426 H 0.33819 0.78763 0.32842 0.0
H1427 H 0.36212 0.81865 0.3216 0.0
H1428 H 0.32316 0.82621 0.32766 0.0
H1429 H 0.32574 0.89865 0.37943 0.0
H1430 H 0.35844 0.93625 0.36574 0.0
H1431 H 0.39174 0.86565 0.33275 0.0
C1432 C 0.31378 0.78341 0.3631 0.0
C1433 C 0.28987 0.78352 0.37466 0.0
C1434 C 0.28066 0.81085 0.38241 0.0
C1435 C 0.29662 0.8379 0.37958 0.0
C1436 C 0.32104 0.837 0.3687 0.0
C1437 C 0.32893 0.81099 0.36001 0.0
C1438 C 0.35454 0.81758 0.34798 0.0
C1439 C 0.38311 0.79821 0.35179 0.0
C1440 C 0.34385 0.81222 0.33037 0.0
C1441 C 0.35978 0.85146 0.35149 0.0
C1442 C 0.34067 0.86148 0.36387 0.0
C1443 C 0.34067 0.89139 0.36962 0.0
C1444 C 0.35944 0.91244 0.36188 0.0
C1445 C 0.37738 0.9036 0.34835 0.0
C1446 C 0.37846 0.8726 0.34328 0.0
H1447 H 0.33957 0.08534 0.58541 0.0
H1448 H 0.34835 0.17228 0.61087 0.0
H1449 H 0.39741 0.15461 0.6225 0.0
H1450 H 0.36406 0.038 0.61579 0.0
H1451 H 0.38496 0.01177 0.60288 0.0
H1452 H 0.35351 0.03343 0.59472 0.0
H1453 H 0.38961 0.05476 0.5722 0.0
H1454 H 0.42092 0.03305 0.58069 0.0
H1455 H 0.42438 0.07396 0.57798 0.0
H1456 H 0.44066 0.125 0.63452 0.0
H1457 H 0.47617 0.08633 0.64546 0.0
H1458 H 0.43951 0.01835 0.61215 0.0
C1459 C 0.35203 0.10094 0.59321 0.0
C1460 C 0.33993 0.13015 0.59732 0.0
C1461 C 0.35709 0.14983 0.60752 0.0
C1462 C 0.38505 0.14003 0.61414 0.0
C1463 C 0.39574 0.11071 0.61023 0.0
C1464 C 0.38 0.0916 0.5998 0.0
C1465 C 0.39522 0.06032 0.59852 0.0
C1466 C 0.37311 0.03438 0.60327 0.0
C1467 C 0.40832 0.05523 0.58133 0.0
C1468 C 0.42049 0.06401 0.61092 0.0
C1469 C 0.4209 0.09352 0.61718 0.0
C1470 C 0.44083 0.10197 0.62956 0.0
C1471 C 0.46068 0.0797 0.63583 0.0
C1472 C 0.4604 0.04925 0.62976 0.0
C1473 C 0.44023 0.04145 0.61703 0.0
H1474 H 0.10228 0.08734 0.87379 0.0
H1475 H 0.11616 0.10115 0.82205 0.0
H1476 H 0.1447 0.14859 0.82763 0.0
H1477 H 0.09777 0.17147 0.88572 0.0
H1478 H 0.11948 0.16545 0.90407 0.0
H1479 H 0.09517 0.13542 0.89642 0.0
H1480 H 0.14104 0.09764 0.89588 0.0
H1481 H 0.16509 0.12751 0.90383 0.0
H1482 H 0.17544 0.10829 0.88516 0.0
H1483 H 0.17994 0.18685 0.83823 0.0
H1484 H 0.21396 0.22099 0.85375 0.0
H1485 H 0.17666 0.18576 0.899 0.0
C1486 C 0.11017 0.10125 0.86371 0.0
C1487 C 0.10677 0.09107 0.84747 0.0
C1488 C 0.11832 0.10897 0.83452 0.0
C1489 C 0.13458 0.13586 0.83758 0.0
C1490 C 0.13904 0.14458 0.85368 0.0
C1491 C 0.12673 0.12833 0.8666 0.0
C1492 C 0.13775 0.14137 0.88273 0.0
C1493 C 0.11094 0.15421 0.89282 0.0
C1494 C 0.1559 0.11726 0.89246 0.0
C1495 C 0.15858 0.16678 0.87672 0.0
C1496 C 0.15911 0.16792 0.85991 0.0
C1497 C 0.17916 0.18685 0.8514 0.0
C1498 C 0.19869 0.20578 0.86028 0.0
C1499 C 0.19762 0.20597 0.87746 0.0
C1500 C 0.17742 0.18622 0.88582 0.0
H1501 H 0.15819 0.87998 0.11396 0.0
H1502 H 0.12147 0.84637 0.06845 0.0
H1503 H 0.0715 0.87089 0.07489 0.0
H1504 H 0.08743 0.87379 0.13898 0.0
H1505 H 0.09556 0.9091 0.14956 0.0
H1506 H 0.1265 0.88536 0.14224 0.0
H1507 H 0.14819 0.93195 0.12628 0.0
H1508 H 0.11707 0.9555 0.13348 0.0
H1509 H 0.12403 0.95174 0.11193 0.0
H1510 H 0.02856 0.9053 0.08464 0.0
H1511 H -0.00675 0.94129 0.09873 0.0
H1512 H 0.05778 0.95056 0.1383 0.0
C1513 C 0.1392 0.87693 0.10568 0.0
C1514 C 0.14311 0.86096 0.09092 0.0
C1515 C 0.11838 0.85803 0.08 0.0
C1516 C 0.09011 0.87198 0.08352 0.0
C1517 C 0.08719 0.88842 0.09805 0.0
C1518 C 0.11091 0.89042 0.1091 0.0
C1519 C 0.10287 0.91134 0.1232 0.0
C1520 C 0.10309 0.89383 0.13945 0.0
C1521 C 0.12431 0.93927 0.12374 0.0
C1522 C 0.07091 0.92079 0.11843 0.0
C1523 C 0.06238 0.90772 0.10376 0.0
C1524 C 0.03475 0.91509 0.09628 0.0
C1525 C 0.01505 0.93567 0.10424 0.0
C1526 C 0.02305 0.9481 0.11953 0.0
C1527 C 0.05127 0.94084 0.12667 0.0
H1528 H 0.66135 0.78713 0.89601 0.0
H1529 H 0.73858 0.78897 0.86261 0.0
H1530 H 0.71196 0.82681 0.84578 0.0
H1531 H 0.59968 0.80201 0.86469 0.0
H1532 H 0.57853 0.82658 0.87838 0.0
H1533 H 0.60123 0.79541 0.88633 0.0
H1534 H 0.62935 0.83413 0.90477 0.0
H1535 H 0.60724 0.86529 0.89645 0.0
H1536 H 0.64844 0.86658 0.89574 0.0
H1537 H 0.6805 0.86395 0.83301 0.0
H1538 H 0.64908 0.90849 0.82668 0.0
H1539 H 0.59145 0.88992 0.86877 0.0
C1540 C 0.67237 0.79541 0.88505 0.0
C1541 C 0.70201 0.78492 0.88053 0.0
C1542 C 0.71602 0.79661 0.86633 0.0
C1543 C 0.70086 0.81782 0.85654 0.0
C1544 C 0.67177 0.82754 0.86116 0.0
C1545 C 0.65765 0.81738 0.87519 0.0
C1546 C 0.62786 0.83504 0.87811 0.0
C1547 C 0.60018 0.81347 0.87679 0.0
C1548 C 0.62827 0.85124 0.89475 0.0
C1549 C 0.62872 0.85789 0.86395 0.0
C1550 C 0.65374 0.85172 0.85412 0.0
C1551 C 0.66084 0.8692 0.84056 0.0
C1552 C 0.64285 0.89467 0.83714 0.0
C1553 C 0.61809 0.90316 0.84733 0.0
C1554 C 0.61019 0.88395 0.86072 0.0
H1555 H 0.98132 0.90516 0.6256 0.0
H1556 H 0.93469 0.99279 0.63116 0.0
H1557 H 0.88632 0.96887 0.62299 0.0
H1558 H 0.94131 0.88111 0.58948 0.0
H1559 H 0.93892 0.84125 0.59524 0.0
H1560 H 0.96996 0.86446 0.60257 0.0
H1561 H 0.95567 0.8498 0.63207 0.0
H1562 H 0.9242 0.82701 0.62479 0.0
H1563 H 0.91749 0.8571 0.63946 0.0
H1564 H 0.84398 0.93758 0.61558 0.0
H1565 H 0.80836 0.90161 0.60305 0.0
H1566 H 0.88044 0.83302 0.59914 0.0
C1567 C 0.96074 0.91905 0.62516 0.0
C1568 C 0.9613 0.95066 0.62928 0.0
C1569 C 0.93446 0.96854 0.62818 0.0
C1570 C 0.90693 0.95512 0.62367 0.0
C1571 C 0.90681 0.92393 0.62 0.0
C1572 C 0.93293 0.90606 0.62023 0.0
C1573 C 0.92603 0.87342 0.61461 0.0
C1574 C 0.94519 0.86457 0.59957 0.0
C1575 C 0.93115 0.85047 0.62857 0.0
C1576 C 0.89216 0.87647 0.61055 0.0
C1577 C 0.88178 0.90562 0.61446 0.0
C1578 C 0.85172 0.91478 0.61227 0.0
C1579 C 0.83171 0.89418 0.60514 0.0
C1580 C 0.84181 0.86488 0.59996 0.0
C1581 C 0.87226 0.85534 0.60306 0.0
H1582 H 0.77657 0.16973 0.38228 0.0
H1583 H 0.82612 0.24612 0.36147 0.0
H1584 H 0.86244 0.2098 0.34819 0.0
H1585 H 0.84141 0.12318 0.3914 0.0
H1586 H 0.82265 0.08765 0.38633 0.0
H1587 H 0.80053 0.11986 0.39358 0.0
H1588 H 0.76654 0.11791 0.36769 0.0
H1589 H 0.78816 0.08529 0.36057 0.0
H1590 H 0.78447 0.11886 0.3479 0.0
H1591 H 0.89413 0.16337 0.3378 0.0
H1592 H 0.91475 0.11217 0.32971 0.0
H1593 H 0.84351 0.06797 0.35783 0.0
C1594 C 0.79508 0.17864 0.37489 0.0
C1595 C 0.79908 0.21032 0.37291 0.0
C1596 C 0.82325 0.22162 0.36316 0.0
C1597 C 0.8439 0.20124 0.35564 0.0
C1598 C 0.83998 0.16982 0.3582 0.0
C1599 C 0.81596 0.15871 0.3675 0.0
C1600 C 0.81623 0.12418 0.36832 0.0
C1601 C 0.82048 0.11308 0.38595 0.0
C1602 C 0.78713 0.11079 0.36066 0.0
C1603 C 0.844 0.11729 0.35802 0.0
C1604 C 0.85769 0.14376 0.3523 0.0
C1605 C 0.88351 0.14257 0.34224 0.0
C1606 C 0.8951 0.11351 0.33774 0.0
C1607 C 0.8804 0.08636 0.34308 0.0
C1608 C 0.85491 0.08845 0.35348 0.0
H1609 H 0.63976 0.09263 0.07636 0.0
H1610 H 0.65218 0.16072 0.11431 0.0
H1611 H 0.60712 0.14034 0.12888 0.0
H1612 H 0.55411 0.09144 0.07758 0.0
H1613 H 0.553 0.05057 0.07416 0.0
H1614 H 0.58372 0.07302 0.06573 0.0
H1615 H 0.62318 0.03765 0.08018 0.0
H1616 H 0.59221 0.01538 0.08841 0.0
H1617 H 0.6202 0.03188 0.10187 0.0
H1618 H 0.56504 0.10914 0.14088 0.0
H1619 H 0.52552 0.0715 0.14854 0.0
H1620 H 0.5397 0.02376 0.10269 0.0
C1621 C 0.6325 0.10367 0.08754 0.0
C1622 C 0.64928 0.12839 0.09417 0.0
C1623 C 0.63935 0.14211 0.1089 0.0
C1624 C 0.61384 0.13063 0.11728 0.0
C1625 C 0.5982 0.10581 0.11061 0.0
C1626 C 0.60678 0.09277 0.09593 0.0
C1627 C 0.58723 0.06502 0.09199 0.0
C1628 C 0.56839 0.07036 0.07645 0.0
C1629 C 0.60689 0.03577 0.09054 0.0
C1630 C 0.56699 0.06401 0.10699 0.0
C1631 C 0.57362 0.08783 0.11752 0.0
C1632 C 0.55921 0.09075 0.13259 0.0
C1633 C 0.53694 0.06915 0.13688 0.0
C1634 C 0.5294 0.04487 0.12617 0.0
C1635 C 0.5449 0.04215 0.11111 0.0
H1636 H 0.69944 0.20433 0.63198 0.0
H1637 H 0.67525 0.19781 0.58089 0.0
H1638 H 0.63587 0.15952 0.58755 0.0
H1639 H 0.69573 0.12966 0.64232 0.0
H1640 H 0.67714 0.13402 0.66183 0.0
H1641 H 0.69954 0.1649 0.65369 0.0
H1642 H 0.65365 0.20189 0.65606 0.0
H1643 H 0.63092 0.17131 0.66453 0.0
H1644 H 0.61768 0.19191 0.64686 0.0
H1645 H 0.60355 0.11927 0.59878 0.0
H1646 H 0.5841 0.07405 0.61355 0.0
H1647 H 0.62979 0.1047 0.65739 0.0
C1648 C 0.6858 0.19474 0.62225 0.0
C1649 C 0.69013 0.20386 0.60596 0.0
C1650 C 0.67198 0.19109 0.59347 0.0
C1651 C 0.64934 0.16972 0.59715 0.0
C1652 C 0.64503 0.16165 0.61338 0.0
C1653 C 0.66274 0.17364 0.62576 0.0
C1654 C 0.65493 0.15912 0.64197 0.0
C1655 C 0.68354 0.14612 0.65043 0.0
C1656 C 0.6383 0.18244 0.653 0.0
C1657 C 0.63328 0.13416 0.63631 0.0
C1658 C 0.62645 0.13747 0.61997 0.0
C1659 C 0.60822 0.11661 0.61163 0.0
C1660 C 0.5974 0.09101 0.62007 0.0
C1661 C 0.60564 0.08615 0.63648 0.0
C1662 C 0.62326 0.10821 0.64482 0.0
H1663 H 0.53822 0.9115 0.33793 0.0
H1664 H 0.5312 0.98549 0.37328 0.0
H1665 H 0.5691 0.95981 0.39047 0.0
H1666 H 0.55322 0.84776 0.36738 0.0
H1667 H 0.58052 0.8297 0.35391 0.0
H1668 H 0.54941 0.85199 0.34565 0.0
H1669 H 0.58887 0.88462 0.32981 0.0
H1670 H 0.6198 0.86281 0.33853 0.0
H1671 H 0.61878 0.90401 0.34078 0.0
H1672 H 0.60675 0.92874 0.40373 0.0
H1673 H 0.65105 0.89762 0.41109 0.0
H1674 H 0.64033 0.8436 0.36693 0.0
C1675 C 0.54459 0.92203 0.34936 0.0
C1676 C 0.53151 0.95041 0.35432 0.0
C1677 C 0.5408 0.96384 0.36919 0.0
C1678 C 0.5621 0.94923 0.37917 0.0
C1679 C 0.57437 0.92131 0.37408 0.0
C1680 C 0.56659 0.90794 0.35944 0.0
C1681 C 0.58618 0.87944 0.35631 0.0
C1682 C 0.56613 0.8505 0.35579 0.0
C1683 C 0.60451 0.88295 0.34042 0.0
C1684 C 0.60682 0.8797 0.37135 0.0
C1685 C 0.59848 0.90367 0.38151 0.0
C1686 C 0.61367 0.9099 0.39593 0.0
C1687 C 0.63895 0.89205 0.39998 0.0
C1688 C 0.64945 0.86831 0.3896 0.0
C1689 C 0.63267 0.8614 0.37521 0.0
H1690 H 0.80691 0.80489 0.08359 0.0
H1691 H 0.77909 0.76189 0.12883 0.0
H1692 H 0.81372 0.796 0.14411 0.0
H1693 H 0.88615 0.82168 0.09295 0.0
H1694 H 0.88469 0.85912 0.08362 0.0
H1695 H 0.86014 0.82896 0.07638 0.0
H1696 H 0.81335 0.86477 0.08111 0.0
H1697 H 0.83801 0.89448 0.08871 0.0
H1698 H 0.80677 0.88081 0.10106 0.0
H1699 H 0.8502 0.83421 0.15441 0.0
H1700 H 0.87966 0.88128 0.16002 0.0
H1701 H 0.88234 0.90197 0.10846 0.0
C1702 C 0.80825 0.80288 0.09672 0.0
C1703 C 0.79078 0.78093 0.10517 0.0
C1704 C 0.79235 0.77889 0.12229 0.0
C1705 C 0.81221 0.79779 0.131 0.0
C1706 C 0.82977 0.81884 0.12234 0.0
C1707 C 0.82739 0.82216 0.10565 0.0
C1708 C 0.84592 0.8492 0.09963 0.0
C1709 C 0.8707 0.8391 0.08743 0.0
C1710 C 0.82476 0.87377 0.0922 0.0
C1711 C 0.85975 0.86002 0.11552 0.0
C1712 C 0.85033 0.84187 0.12841 0.0
C1713 C 0.85816 0.84836 0.14445 0.0
C1714 C 0.87507 0.87488 0.14751 0.0
C1715 C 0.8839 0.89435 0.1346 0.0
C1716 C 0.87684 0.88657 0.11839 0.0
H1717 H 0.95796 0.03022 0.88309 0.0
H1718 H 0.96146 0.06666 0.83392 0.0
H1719 H 0.92454 0.10688 0.8415 0.0
H1720 H 0.88136 0.03737 0.88967 0.0
H1721 H 0.88303 0.05025 0.91052 0.0
H1722 H 0.91358 0.02733 0.90229 0.0
H1723 H 0.95274 0.06904 0.9101 0.0
H1724 H 0.92226 0.09208 0.91857 0.0
H1725 H 0.94718 0.10796 0.90325 0.0
H1726 H 0.88462 0.1393 0.85293 0.0
H1727 H 0.83829 0.1584 0.86685 0.0
H1728 H 0.85911 0.10117 0.9086 0.0
C1729 C 0.95087 0.04671 0.87398 0.0
C1730 C 0.96254 0.04561 0.85798 0.0
C1731 C 0.95286 0.0674 0.8463 0.0
C1732 C 0.93227 0.09054 0.85053 0.0
C1733 C 0.92175 0.09164 0.86649 0.0
C1734 C 0.93047 0.07027 0.87806 0.0
C1735 C 0.91343 0.07515 0.89391 0.0
C1736 C 0.89685 0.04579 0.8994 0.0
C1737 C 0.9352 0.08676 0.90724 0.0
C1738 C 0.89136 0.1002 0.88873 0.0
C1739 C 0.89779 0.11046 0.87317 0.0
C1740 C 0.87955 0.13197 0.86523 0.0
C1741 C 0.8533 0.14258 0.87317 0.0
C1742 C 0.84531 0.13099 0.88867 0.0
C1743 C 0.86494 0.11022 0.89672 0.0
H1744 H 0.78849 0.70844 0.63129 0.0
H1745 H 0.80807 0.69822 0.57971 0.0
H1746 H 0.84555 0.65757 0.58583 0.0
H1747 H 0.86654 0.69416 0.64604 0.0
H1748 H 0.85368 0.67255 0.66345 0.0
H1749 H 0.82992 0.70257 0.65517 0.0
H1750 H 0.78573 0.66366 0.65221 0.0
H1751 H 0.80958 0.63354 0.66022 0.0
H1752 H 0.7917 0.62895 0.64062 0.0
H1753 H 0.88011 0.61909 0.59682 0.0
H1754 H 0.90424 0.5768 0.61217 0.0
H1755 H 0.86167 0.60973 0.65662 0.0
C1756 C 0.80053 0.69734 0.62134 0.0
C1757 C 0.79591 0.70642 0.60506 0.0
C1758 C 0.81179 0.6916 0.59227 0.0
C1759 C 0.83329 0.66884 0.59562 0.0
C1760 C 0.83855 0.66135 0.61182 0.0
C1761 C 0.82233 0.67461 0.6245 0.0
C1762 C 0.83087 0.6603 0.64067 0.0
C1763 C 0.84617 0.68381 0.65199 0.0
C1764 C 0.8028 0.64573 0.6489 0.0
C1765 C 0.85357 0.63625 0.63489 0.0
C1766 C 0.85827 0.63804 0.61827 0.0
C1767 C 0.87707 0.61757 0.60988 0.0
C1768 C 0.89076 0.59383 0.61865 0.0
C1769 C 0.88493 0.59065 0.63546 0.0
C1770 C 0.86666 0.61231 0.64377 0.0
H1771 H 0.62235 0.61929 0.90912 0.0
H1772 H 0.66416 0.65137 0.8644 0.0
H1773 H 0.6224 0.62799 0.84855 0.0
H1774 H 0.59962 0.54949 0.89776 0.0
H1775 H 0.56249 0.54932 0.90737 0.0
H1776 H 0.59217 0.57351 0.91525 0.0
H1777 H 0.55623 0.62069 0.91222 0.0
H1778 H 0.52677 0.59606 0.90427 0.0
H1779 H 0.53922 0.62893 0.89274 0.0
H1780 H 0.58349 0.59374 0.83756 0.0
H1781 H 0.54393 0.55516 0.83163 0.0
H1782 H 0.52577 0.54541 0.88334 0.0
C1783 C 0.62185 0.6223 0.89604 0.0
C1784 C 0.64604 0.63719 0.88786 0.0
C1785 C 0.64536 0.64051 0.87078 0.0
C1786 C 0.62184 0.62726 0.86172 0.0
C1787 C 0.59888 0.61164 0.87003 0.0
C1788 C 0.59801 0.60989 0.88684 0.0
C1789 C 0.57153 0.59016 0.89258 0.0
C1790 C 0.58213 0.56407 0.90389 0.0
C1791 C 0.54698 0.61016 0.90094 0.0
C1792 C 0.56026 0.57816 0.87635 0.0
C1793 C 0.57573 0.59173 0.86354 0.0
C1794 C 0.5706 0.58351 0.84741 0.0
C1795 C 0.54839 0.56143 0.84417 0.0
C1796 C 0.53199 0.54757 0.85702 0.0
C1797 C 0.53821 0.5557 0.87333 0.0
H1798 H 0.62 0.37143 0.15211 0.0
H1799 H 0.59829 0.41951 0.10742 0.0
H1800 H 0.61909 0.37641 0.09136 0.0
H1801 H 0.68729 0.34211 0.14336 0.0
H1802 H 0.68293 0.30377 0.15131 0.0
H1803 H 0.65993 0.3345 0.15934 0.0
H1804 H 0.6108 0.3038 0.15261 0.0
H1805 H 0.63428 0.27301 0.14475 0.0
H1806 H 0.60496 0.28983 0.1322 0.0
H1807 H 0.65116 0.33582 0.0806 0.0
H1808 H 0.68845 0.29445 0.0751 0.0
H1809 H 0.68942 0.27095 0.12641 0.0
C1810 C 0.61896 0.37216 0.13894 0.0
C1811 C 0.608 0.39846 0.13082 0.0
C1812 C 0.60671 0.39928 0.11367 0.0
C1813 C 0.61822 0.37491 0.1045 0.0
C1814 C 0.63004 0.34967 0.11274 0.0
C1815 C 0.62962 0.34746 0.12957 0.0
C1816 C 0.64585 0.31849 0.13519 0.0
C1817 C 0.67048 0.32517 0.14804 0.0
C1818 C 0.62259 0.29489 0.14156 0.0
C1819 C 0.6595 0.30793 0.11916 0.0
C1820 C 0.64876 0.32539 0.10633 0.0
C1821 C 0.65911 0.32134 0.09043 0.0
C1822 C 0.68049 0.2982 0.08745 0.0
C1823 C 0.69157 0.27999 0.10037 0.0
C1824 C 0.68127 0.28497 0.11642 0.0
H1825 H 0.84877 0.39404 0.40082 0.0
H1826 H 0.84754 0.31596 0.36803 0.0
H1827 H 0.89566 0.33413 0.35533 0.0
H1828 H 0.87007 0.44831 0.37395 0.0
H1829 H 0.89477 0.46931 0.38748 0.0
H1830 H 0.86401 0.44686 0.39567 0.0
H1831 H 0.90307 0.41723 0.4137 0.0
H1832 H 0.93371 0.43982 0.40526 0.0
H1833 H 0.93539 0.3985 0.40425 0.0
H1834 H 0.93767 0.36577 0.34321 0.0
H1835 H 0.97317 0.40587 0.3339 0.0
H1836 H 0.94689 0.46318 0.37495 0.0
C1837 C 0.85903 0.38039 0.39121 0.0
C1838 C 0.84447 0.35379 0.38529 0.0
C1839 C 0.8585 0.33637 0.37276 0.0
C1840 C 0.8858 0.34649 0.36552 0.0
C1841 C 0.8989 0.37361 0.37124 0.0
C1842 C 0.88631 0.38994 0.38406 0.0
C1843 C 0.90322 0.41966 0.38707 0.0
C1844 C 0.88172 0.44766 0.38596 0.0
C1845 C 0.91984 0.41873 0.40354 0.0
C1846 C 0.92564 0.41882 0.37307 0.0
C1847 C 0.92334 0.39174 0.36433 0.0
C1848 C 0.94013 0.38673 0.35016 0.0
C1849 C 0.95998 0.40982 0.34489 0.0
C1850 C 0.96279 0.43764 0.35374 0.0
C1851 C 0.9453 0.44214 0.36798 0.0
H1852 H 0.8998 0.36482 0.83994 0.0
H1853 H 0.85834 0.43618 0.86974 0.0
H1854 H 0.82923 0.39746 0.88472 0.0
H1855 H 0.8394 0.31759 0.83436 0.0
H1856 H 0.85707 0.28077 0.83801 0.0
H1857 H 0.87998 0.31253 0.83124 0.0
H1858 H 0.9153 0.30514 0.85619 0.0
H1859 H 0.892 0.27343 0.86285 0.0
H1860 H 0.899 0.3052 0.87637 0.0
H1861 H 0.79657 0.35593 0.89213 0.0
H1862 H 0.76695 0.30831 0.89569 0.0
H1863 H 0.82952 0.26026 0.86342 0.0
C1864 C 0.88529 0.37189 0.84998 0.0
C1865 C 0.88098 0.40352 0.85369 0.0
C1866 C 0.86167 0.41215 0.8667 0.0
C1867 C 0.84516 0.39033 0.87534 0.0
C1868 C 0.84842 0.3597 0.87101 0.0
C1869 C 0.86867 0.34993 0.85907 0.0
C1870 C 0.86615 0.31512 0.85687 0.0
C1871 C 0.86027 0.30601 0.83906 0.0
C1872 C 0.89482 0.29877 0.86346 0.0
C1873 C 0.83867 0.30841 0.86772 0.0
C1874 C 0.82966 0.33442 0.87609 0.0
C1875 C 0.80379 0.3351 0.88603 0.0
C1876 C 0.7869 0.30821 0.88782 0.0
C1877 C 0.79613 0.28114 0.87981 0.0
C1878 C 0.82227 0.28101 0.86964 0.0
H1879 H 0.94414 0.5673 0.14223 0.0
H1880 H 0.98095 0.52821 0.09771 0.0
H1881 H 0.94724 0.56174 0.08151 0.0
H1882 H 0.86844 0.56877 0.12996 0.0
H1883 H 0.85851 0.60462 0.13966 0.0
H1884 H 0.88917 0.58158 0.14764 0.0
H1885 H 0.92631 0.62756 0.14502 0.0
H1886 H 0.89534 0.65073 0.13728 0.0
H1887 H 0.93023 0.64681 0.12572 0.0
H1888 H 0.90691 0.59447 0.07023 0.0
H1889 H 0.85765 0.61982 0.06439 0.0
H1890 H 0.84454 0.63784 0.11584 0.0
C1891 C 0.94518 0.5662 0.12907 0.0
C1892 C 0.96503 0.54536 0.12115 0.0
C1893 C 0.96564 0.54394 0.10396 0.0
C1894 C 0.94692 0.56318 0.09467 0.0
C1895 C 0.92746 0.58348 0.10277 0.0
C1896 C 0.92612 0.58492 0.11958 0.0
C1897 C 0.90065 0.60623 0.12517 0.0
C1898 C 0.87784 0.58927 0.13625 0.0
C1899 C 0.91393 0.63452 0.1338 0.0
C1900 C 0.88655 0.61481 0.10888 0.0
C1901 C 0.90326 0.60229 0.09615 0.0
C1902 C 0.89381 0.60472 0.08003 0.0
C1903 C 0.86583 0.61905 0.07683 0.0
C1904 C 0.84767 0.63082 0.08965 0.0
C1905 C 0.85851 0.62957 0.10583 0.0
H1906 H 0.60627 0.59262 0.36889 0.0
H1907 H 0.62605 0.60217 0.31741 0.0
H1908 H 0.65315 0.65058 0.32274 0.0
H1909 H 0.60004 0.6777 0.37884 0.0
H1910 H 0.61963 0.67287 0.39796 0.0
H1911 H 0.59618 0.64236 0.39008 0.0
H1912 H 0.64194 0.60476 0.39185 0.0
H1913 H 0.66534 0.63512 0.39981 0.0
H1914 H 0.67742 0.61441 0.38189 0.0
H1915 H 0.68679 0.68955 0.33348 0.0
H1916 H 0.71971 0.72438 0.34921 0.0
H1917 H 0.67789 0.69276 0.39409 0.0
C1918 C 0.61528 0.60577 0.35878 0.0
C1919 C 0.61401 0.59428 0.34274 0.0
C1920 C 0.62679 0.61108 0.32973 0.0
C1921 C 0.64211 0.63851 0.33264 0.0
C1922 C 0.64445 0.64865 0.34864 0.0
C1923 C 0.63101 0.63327 0.36154 0.0
C1924 C 0.64024 0.64744 0.37769 0.0
C1925 C 0.61235 0.66092 0.38666 0.0
C1926 C 0.65724 0.62403 0.38843 0.0
C1927 C 0.66164 0.67241 0.37175 0.0
C1928 C 0.66374 0.67244 0.35495 0.0
C1929 C 0.68474 0.69052 0.3466 0.0
C1930 C 0.70365 0.70981 0.35561 0.0
C1931 C 0.70094 0.71117 0.37271 0.0
C1932 C 0.67982 0.69227 0.38094 0.0
H1933 H 0.62821 0.33021 0.61064 0.0
H1934 H 0.67078 0.40656 0.58473 0.0
H1935 H 0.62957 0.43973 0.59238 0.0
H1936 H 0.5469 0.35503 0.60082 0.0
H1937 H 0.5316 0.34608 0.62064 0.0
H1938 H 0.56308 0.32397 0.61252 0.0
H1939 H 0.59531 0.33616 0.63808 0.0
H1940 H 0.56344 0.35755 0.64624 0.0
H1941 H 0.60025 0.37562 0.64422 0.0
H1942 H 0.58872 0.46753 0.60307 0.0
H1943 H 0.54573 0.48978 0.61805 0.0
H1944 H 0.52405 0.39973 0.6378 0.0
C1945 C 0.62842 0.35373 0.60639 0.0
C1946 C 0.65342 0.36529 0.59699 0.0
C1947 C 0.65262 0.39644 0.5919 0.0
C1948 C 0.62894 0.4159 0.5961 0.0
C1949 C 0.60524 0.4044 0.6053 0.0
C1950 C 0.60414 0.37419 0.61049 0.0
C1951 C 0.57569 0.36977 0.62121 0.0
C1952 C 0.55298 0.34738 0.61332 0.0
C1953 C 0.58421 0.35915 0.63846 0.0
C1954 C 0.56272 0.40242 0.62145 0.0
C1955 C 0.58019 0.42154 0.61192 0.0
C1956 C 0.57448 0.45287 0.61051 0.0
C1957 C 0.55009 0.46537 0.61917 0.0
C1958 C 0.53162 0.44659 0.62913 0.0
C1959 C 0.53788 0.41461 0.63024 0.0
H1960 H 0.09421 0.394 0.36808 0.0
H1961 H 0.11394 0.38291 0.31666 0.0
H1962 H 0.14113 0.3346 0.32231 0.0
H1963 H 0.16167 0.37166 0.38348 0.0
H1964 H 0.14831 0.34901 0.40041 0.0
H1965 H 0.12454 0.37906 0.39232 0.0
H1966 H 0.08116 0.33935 0.38816 0.0
H1967 H 0.10547 0.30926 0.39596 0.0
H1968 H 0.08837 0.30541 0.37614 0.0
H1969 H 0.17692 0.29704 0.33353 0.0
H1970 H 0.21107 0.26395 0.34971 0.0
H1971 H 0.16659 0.29496 0.39407 0.0
C1972 C 0.10305 0.38051 0.35803 0.0
C1973 C 0.1021 0.392 0.34191 0.0
C1974 C 0.11451 0.37435 0.32904 0.0
C1975 C 0.12997 0.34689 0.33213 0.0
C1976 C 0.13245 0.33709 0.34818 0.0
C1977 C 0.11845 0.35256 0.36094 0.0
C1978 C 0.12677 0.33768 0.37712 0.0
C1979 C 0.14119 0.36075 0.38902 0.0
C1980 C 0.09877 0.32199 0.38479 0.0
C1981 C 0.14992 0.31393 0.37146 0.0
C1982 C 0.15241 0.3137 0.35469 0.0
C1983 C 0.1745 0.29622 0.34663 0.0
C1984 C 0.19411 0.2779 0.35593 0.0
C1985 C 0.19122 0.27692 0.37307 0.0
C1986 C 0.16885 0.2951 0.38093 0.0
H1987 H 0.3632 0.33132 0.10069 0.0
H1988 H 0.31544 0.41109 0.08084 0.0
H1989 H 0.35772 0.44329 0.08768 0.0
H1990 H 0.3976 0.36593 0.13447 0.0
H1991 H 0.43549 0.34986 0.13255 0.0
H1992 H 0.40327 0.32955 0.12433 0.0
H1993 H 0.43057 0.3281 0.09644 0.0
H1994 H 0.46234 0.34934 0.10465 0.0
H1995 H 0.44243 0.36346 0.087 0.0
H1996 H 0.39878 0.46977 0.09843 0.0
H1997 H 0.44048 0.4907 0.1144 0.0
H1998 H 0.46793 0.39829 0.12846 0.0
C1999 C 0.36203 0.35546 0.09762 0.0
C2000 C 0.33534 0.36823 0.09013 0.0
C2001 C 0.33496 0.40007 0.08646 0.0
C2002 C 0.35924 0.41895 0.09021 0.0
C2003 C 0.3846 0.40625 0.0976 0.0
C2004 C 0.38688 0.37535 0.10128 0.0
C2005 C 0.41741 0.36948 0.11002 0.0
C2006 C 0.41314 0.35272 0.12632 0.0
C2007 C 0.43949 0.35153 0.09886 0.0
C2008 C 0.42877 0.40243 0.11244 0.0
C2009 C 0.40995 0.42266 0.10431 0.0
C2010 C 0.41403 0.45427 0.10477 0.0
C2011 C 0.43775 0.466 0.11405 0.0
C2012 C 0.45732 0.44631 0.1229 0.0
C2013 C 0.4531 0.41392 0.12192 0.0
H2014 H 0.29092 0.70868 0.85678 0.0
H2015 H 0.3157 0.70073 0.90776 0.0
H2016 H 0.3541 0.66146 0.90075 0.0
H2017 H 0.29376 0.63366 0.84568 0.0
H2018 H 0.31252 0.63825 0.82625 0.0
H2019 H 0.29037 0.6693 0.83463 0.0
H2020 H 0.33664 0.70538 0.83251 0.0
H2021 H 0.3592 0.67459 0.82394 0.0
H2022 H 0.37241 0.69465 0.84177 0.0
H2023 H 0.38546 0.62066 0.88935 0.0
H2024 H 0.40531 0.57582 0.87431 0.0
H2025 H 0.36016 0.60782 0.83052 0.0
C2026 C 0.30456 0.69863 0.8664 0.0
C2027 C 0.30052 0.70759 0.8828 0.0
C2028 C 0.31869 0.69423 0.89512 0.0
C2029 C 0.34074 0.67218 0.89124 0.0
C2030 C 0.34458 0.66407 0.87497 0.0
C2031 C 0.3271 0.6768 0.86269 0.0
C2032 C 0.33483 0.66238 0.84635 0.0
C2033 C 0.30615 0.65014 0.83774 0.0
C2034 C 0.35179 0.68563 0.83551 0.0
C2035 C 0.35622 0.63679 0.85185 0.0
C2036 C 0.36284 0.63959 0.86824 0.0
C2037 C 0.38098 0.61839 0.87646 0.0
C2038 C 0.39211 0.59302 0.86785 0.0
C2039 C 0.3843 0.58864 0.85135 0.0
C2040 C 0.36654 0.61099 0.84314 0.0
H2041 H 0.03585 0.57862 0.64572 0.0
H2042 H 0.02693 0.50865 0.60834 0.0
H2043 H 0.0642 0.53577 0.59132 0.0
H2044 H 0.0503 0.64524 0.61797 0.0
H2045 H 0.07831 0.66144 0.63153 0.0
H2046 H 0.04723 0.63897 0.6396 0.0
H2047 H 0.0866 0.60379 0.65398 0.0
H2048 H 0.11754 0.62591 0.64559 0.0
H2049 H 0.11595 0.58506 0.64209 0.0
H2050 H 0.10224 0.56781 0.57859 0.0
H2051 H 0.14785 0.59792 0.57234 0.0
H2052 H 0.13824 0.64691 0.61817 0.0
C2053 C 0.04163 0.56932 0.63387 0.0
C2054 C 0.02826 0.54166 0.62828 0.0
C2055 C 0.0368 0.52975 0.6129 0.0
C2056 C 0.0577 0.54522 0.60302 0.0
C2057 C 0.0703 0.57246 0.60874 0.0
C2058 C 0.06323 0.58422 0.62391 0.0
C2059 C 0.08325 0.61191 0.62771 0.0
C2060 C 0.0636 0.64113 0.62929 0.0
C2061 C 0.10195 0.60632 0.64326 0.0
C2062 C 0.10355 0.61289 0.61253 0.0
C2063 C 0.09452 0.59046 0.60163 0.0
C2064 C 0.10964 0.58543 0.58699 0.0
C2065 C 0.13566 0.60263 0.58358 0.0
C2066 C 0.14689 0.62451 0.59479 0.0
C2067 C 0.13004 0.63052 0.6093 0.0
H2068 H 0.11444 0.61861 0.15129 0.0
H2069 H 0.0984 0.56817 0.10663 0.0
H2070 H 0.1256 0.6079 0.09103 0.0
H2071 H 0.10763 0.69784 0.1322 0.0
H2072 H 0.13737 0.71318 0.14495 0.0
H2073 H 0.11302 0.68304 0.15248 0.0
H2074 H 0.16077 0.64982 0.15886 0.0
H2075 H 0.18485 0.68014 0.15139 0.0
H2076 H 0.18818 0.64206 0.14293 0.0
H2077 H 0.15904 0.64756 0.08082 0.0
H2078 H 0.19291 0.69153 0.07532 0.0
H2079 H 0.18797 0.71803 0.1262 0.0
C2080 C 0.11569 0.61686 0.13815 0.0
C2081 C 0.10393 0.59104 0.12994 0.0
C2082 C 0.1066 0.58845 0.11289 0.0
C2083 C 0.12215 0.61071 0.104 0.0
C2084 C 0.1343 0.63555 0.11238 0.0
C2085 C 0.13072 0.63936 0.129 0.0
C2086 C 0.14762 0.66765 0.13491 0.0
C2087 C 0.12506 0.69187 0.14152 0.0
C2088 C 0.17179 0.65939 0.14778 0.0
C2089 C 0.1623 0.678 0.11908 0.0
C2090 C 0.15403 0.65913 0.10631 0.0
C2091 C 0.16524 0.66301 0.09058 0.0
C2092 C 0.18452 0.68778 0.08759 0.0
C2093 C 0.19259 0.70788 0.10031 0.0
C2094 C 0.18198 0.7027 0.11633 0.0
H2095 H 0.11805 0.3668 0.90933 0.0
H2096 H 0.1667 0.34532 0.86467 0.0
H2097 H 0.12806 0.37386 0.84889 0.0
H2098 H 0.03898 0.36249 0.89133 0.0
H2099 H 0.02521 0.39404 0.90356 0.0
H2100 H 0.05468 0.36903 0.9113 0.0
H2101 H 0.08979 0.41609 0.91615 0.0
H2102 H 0.05991 0.44073 0.9086 0.0
H2103 H 0.09745 0.44198 0.89952 0.0
H2104 H 0.08883 0.40825 0.83832 0.0
H2105 H 0.04526 0.44271 0.8326 0.0
H2106 H 0.02071 0.44248 0.88381 0.0
C2107 C 0.11969 0.36721 0.89617 0.0
C2108 C 0.14473 0.35342 0.88805 0.0
C2109 C 0.14704 0.35498 0.87093 0.0
C2110 C 0.12542 0.37135 0.86192 0.0
C2111 C 0.10142 0.38539 0.87025 0.0
C2112 C 0.09785 0.38299 0.88693 0.0
C2113 C 0.07047 0.40156 0.89279 0.0
C2114 C 0.04587 0.38051 0.90017 0.0
C2115 C 0.08 0.42657 0.90498 0.0
C2116 C 0.06003 0.41541 0.87679 0.0
C2117 C 0.07829 0.40565 0.86402 0.0
C2118 C 0.07396 0.41569 0.84811 0.0
C2119 C 0.0494 0.43529 0.84499 0.0
C2120 C 0.02995 0.44482 0.85776 0.0
C2121 C 0.03559 0.43543 0.87391 0.0
H2122 H 0.30622 0.26502 0.63044 0.0
H2123 H 0.28278 0.30098 0.58285 0.0
H2124 H 0.31931 0.34336 0.58661 0.0
H2125 H 0.31213 0.33126 0.65173 0.0
H2126 H 0.34603 0.32208 0.66324 0.0
H2127 H 0.32196 0.29178 0.65593 0.0
H2128 H 0.36793 0.26682 0.64119 0.0
H2129 H 0.3923 0.29703 0.64862 0.0
H2130 H 0.39034 0.28915 0.62711 0.0
H2131 H 0.35224 0.38338 0.596 0.0
H2132 H 0.37576 0.42437 0.61228 0.0
H2133 H 0.37979 0.36377 0.65404 0.0
C2134 C 0.30892 0.28203 0.62093 0.0
C2135 C 0.2919 0.28037 0.60643 0.0
C2136 C 0.29582 0.30236 0.59403 0.0
C2137 C 0.31679 0.32603 0.59595 0.0
C2138 C 0.33399 0.32677 0.61017 0.0
C2139 C 0.33038 0.3055 0.62251 0.0
C2140 C 0.3502 0.31331 0.63705 0.0
C2141 C 0.33143 0.31474 0.65291 0.0
C2142 C 0.37677 0.2902 0.63857 0.0
C2143 C 0.36181 0.34456 0.63175 0.0
C2144 C 0.35369 0.3507 0.61579 0.0
C2145 C 0.35937 0.37878 0.60836 0.0
C2146 C 0.37253 0.40189 0.61767 0.0
C2147 C 0.3794 0.39675 0.63418 0.0
C2148 C 0.37496 0.36765 0.64128 0.0
H2149 H 0.45843 0.58713 0.34193 0.0
H2150 H 0.44829 0.50059 0.36771 0.0
H2151 H 0.4072 0.52286 0.38418 0.0
H2152 H 0.43849 0.63844 0.37719 0.0
H2153 H 0.41781 0.66484 0.36436 0.0
H2154 H 0.44954 0.64316 0.3562 0.0
H2155 H 0.41417 0.62289 0.33346 0.0
H2156 H 0.38243 0.64399 0.34194 0.0
H2157 H 0.37946 0.6031 0.33886 0.0
H2158 H 0.3677 0.55115 0.39709 0.0
H2159 H 0.32376 0.5826 0.40421 0.0
H2160 H 0.35315 0.65262 0.36979 0.0
C2161 C 0.44758 0.57309 0.35114 0.0
C2162 C 0.45672 0.54213 0.3536 0.0
C2163 C 0.44177 0.52426 0.36556 0.0
C2164 C 0.41859 0.53683 0.37514 0.0
C2165 C 0.41023 0.56727 0.37255 0.0
C2166 C 0.42371 0.58524 0.36075 0.0
C2167 C 0.4077 0.6164 0.3597 0.0
C2168 C 0.42969 0.64224 0.36467 0.0
C2169 C 0.39518 0.6219 0.34247 0.0
C2170 C 0.38206 0.61215 0.37226 0.0
C2171 C 0.38519 0.58388 0.37975 0.0
C2172 C 0.36479 0.57333 0.39137 0.0
C2173 C 0.33963 0.59145 0.39523 0.0
C2174 C 0.33443 0.61995 0.38743 0.0
C2175 C 0.35644 0.63094 0.37599 0.0
loop_
_geom_bond_atom_site_label_1
_geom_bond_atom_site_label_2
_geom_bond_distance
_geom_bond_site_symmetry_2
_ccdc_geom_bond_type
Mg0 O1 2.028 . S
Mg0 O7 1.986 . S
Mg0 O9 2.114 1_545 S
Mg0 O10 2.251 1_545 S
Mg0 O13 2.010 . S
O1 Mg0 2.028 . S
O1 C4 1.250 . S
O2 Mg3 2.028 . S
O2 C4 1.248 . S
Mg3 O2 2.028 . S
Mg3 O8 2.032 . S
Mg3 O10 2.079 1_545 S
C4 O1 1.250 . S
C4 O2 1.248 . S
C5 O6 1.264 . S
C5 O13 1.249 . S
O6 C5 1.264 . S
O7 Mg0 1.986 . S
O7 C11 1.246 . S
O8 Mg3 2.032 . S
O8 C11 1.259 . S
O9 Mg0 2.114 1_565 S
O9 C12 1.252 . S
O10 Mg0 2.251 1_565 S
O10 Mg3 2.079 1_565 S
O10 C12 1.273 . S
C11 O7 1.246 . S
C11 O8 1.259 . S
C12 O9 1.252 . S
C12 O10 1.273 . S
O13 Mg0 2.010 . S
O13 C5 1.249 . S
Mg14 O15 2.028 . S
Mg14 O21 1.986 . S
Mg14 O23 2.114 . S
Mg14 O24 2.251 . S
Mg14 O27 2.010 . S
O15 Mg14 2.028 . S
O15 C18 1.250 . S
O16 Mg17 2.028 . S
O16 C18 1.248 . S
Mg17 O16 2.028 . S
Mg17 O22 2.032 . S
Mg17 O24 2.079 . S
C18 O15 1.250 . S
C18 O16 1.248 . S
C19 O20 1.264 . S
C19 O27 1.249 . S
O20 C19 1.264 . S
O21 Mg14 1.986 . S
O21 C25 1.246 . S
O22 Mg17 2.032 . S
O22 C25 1.259 . S
O23 Mg14 2.114 . S
O23 C26 1.252 . S
O24 Mg14 2.251 . S
O24 Mg17 2.079 . S
O24 C26 1.273 . S
C25 O21 1.246 . S
C25 O22 1.259 . S
C26 O23 1.252 . S
C26 O24 1.273 . S
O27 Mg14 2.010 . S
O27 C19 1.249 . S
Mg28 O29 2.028 . S
Mg28 O35 1.986 . S
Mg28 O37 2.114 1_565 S
Mg28 O38 2.251 1_565 S
Mg28 O41 2.010 . S
O29 Mg28 2.028 . S
O29 C32 1.250 . S
O30 Mg31 2.028 . S
O30 C32 1.248 . S
Mg31 O30 2.028 . S
Mg31 O36 2.032 . S
Mg31 O38 2.079 1_565 S
C32 O29 1.250 . S
C32 O30 1.248 . S
C33 O34 1.264 . S
C33 O41 1.249 1_655 S
O34 C33 1.264 . S
O35 Mg28 1.986 . S
O35 C39 1.246 . S
O36 Mg31 2.032 . S
O36 C39 1.259 . S
O37 Mg28 2.114 1_545 S
O37 C40 1.252 . S
O38 Mg28 2.251 1_545 S
O38 Mg31 2.079 1_545 S
O38 C40 1.273 . S
C39 O35 1.246 . S
C39 O36 1.259 . S
C40 O37 1.252 . S
C40 O38 1.273 . S
O41 Mg28 2.010 . S
O41 C33 1.249 1_455 S
Mg42 O43 2.028 . S
Mg42 O49 1.986 . S
Mg42 O51 2.114 . S
Mg42 O52 2.251 . S
Mg42 O55 2.010 . S
O43 Mg42 2.028 . S
O43 C46 1.250 . S
O44 Mg45 2.028 . S
O44 C46 1.248 . S
Mg45 O44 2.028 . S
Mg45 O50 2.032 . S
Mg45 O52 2.079 . S
C46 O43 1.250 . S
C46 O44 1.248 . S
C47 O48 1.264 . S
C47 O55 1.249 . S
O48 C47 1.264 . S
O49 Mg42 1.986 . S
O49 C53 1.246 . S
O50 Mg45 2.032 . S
O50 C53 1.259 . S
O51 Mg42 2.114 . S
O51 C54 1.252 . S
O52 Mg42 2.251 . S
O52 Mg45 2.079 . S
O52 C54 1.273 . S
C53 O49 1.246 . S
C53 O50 1.259 . S
C54 O51 1.252 . S
C54 O52 1.273 . S
O55 Mg42 2.010 . S
O55 C47 1.249 . S
Mg56 O57 2.028 . S
Mg56 O63 1.986 . S
Mg56 O65 2.114 1_565 S
Mg56 O66 2.251 1_565 S
Mg56 O69 2.010 . S
O57 Mg56 2.028 . S
O57 C60 1.250 . S
O58 Mg59 2.028 . S
O58 C60 1.248 . S
Mg59 O58 2.028 . S
Mg59 O64 2.032 . S
Mg59 O66 2.079 1_565 S
C60 O57 1.250 . S
C60 O58 1.248 . S
C61 O62 1.264 . S
C61 O69 1.249 . S
O62 C61 1.264 . S
O63 Mg56 1.986 . S
O63 C67 1.246 . S
O64 Mg59 2.032 . S
O64 C67 1.259 . S
O65 Mg56 2.114 1_545 S
O65 C68 1.252 . S
O66 Mg56 2.251 1_545 S
O66 Mg59 2.079 1_545 S
O66 C68 1.273 . S
C67 O63 1.246 . S
C67 O64 1.259 . S
C68 O65 1.252 . S
C68 O66 1.273 . S
O69 Mg56 2.010 . S
O69 C61 1.249 . S
Mg70 O71 2.028 . S
Mg70 O77 1.986 . S
Mg70 O79 2.114 . S
Mg70 O80 2.251 . S
Mg70 O83 2.010 . S
O71 Mg70 2.028 . S
O71 C74 1.250 . S
O72 Mg73 2.028 . S
O72 C74 1.248 . S
Mg73 O72 2.028 . S
Mg73 O78 2.032 . S
Mg73 O80 2.079 . S
C74 O71 1.250 . S
C74 O72 1.248 . S
C75 O76 1.264 . S
C75 O83 1.249 . S
O76 C75 1.264 . S
O77 Mg70 1.986 . S
O77 C81 1.246 . S
O78 Mg73 2.032 . S
O78 C81 1.259 . S
O79 Mg70 2.114 . S
O79 C82 1.252 . S
O80 Mg70 2.251 . S
O80 Mg73 2.079 . S
O80 C82 1.273 . S
C81 O77 1.246 . S
C81 O78 1.259 . S
C82 O79 1.252 . S
C82 O80 1.273 . S
O83 Mg70 2.010 . S
O83 C75 1.249 . S
Mg84 O85 2.028 . S
Mg84 O91 1.986 . S
Mg84 O93 2.114 1_545 S
Mg84 O94 2.251 1_545 S
Mg84 O97 2.010 . S
O85 Mg84 2.028 . S
O85 C88 1.250 . S
O86 Mg87 2.028 . S
O86 C88 1.248 . S
Mg87 O86 2.028 . S
Mg87 O92 2.032 . S
Mg87 O94 2.079 1_545 S
C88 O85 1.250 . S
C88 O86 1.248 . S
C89 O90 1.264 . S
C89 O97 1.249 1_655 S
O90 C89 1.264 . S
O91 Mg84 1.986 . S
O91 C95 1.246 . S
O92 Mg87 2.032 . S
O92 C95 1.259 . S
O93 Mg84 2.114 1_565 S
O93 C96 1.252 . S
O94 Mg84 2.251 1_565 S
O94 Mg87 2.079 1_565 S
O94 C96 1.273 . S
C95 O91 1.246 . S
C95 O92 1.259 . S
C96 O93 1.252 . S
C96 O94 1.273 . S
O97 Mg84 2.010 . S
O97 C89 1.249 1_455 S
Mg98 O99 2.028 . S
Mg98 O105 1.986 . S
Mg98 O107 2.114 . S
Mg98 O108 2.251 . S
Mg98 O111 2.010 . S
O99 Mg98 2.028 . S
O99 C102 1.250 . S
O100 Mg101 2.028 . S
O100 C102 1.248 . S
Mg101 O100 2.028 . S
Mg101 O106 2.032 . S
Mg101 O108 2.079 . S
C102 O99 1.250 . S
C102 O100 1.248 . S
C103 O104 1.264 . S
C103 O111 1.249 . S
O104 C103 1.264 . S
O105 Mg98 1.986 . S
O105 C109 1.246 . S
O106 Mg101 2.032 . S
O106 C109 1.259 . S
O107 Mg98 2.114 . S
O107 C110 1.252 . S
O108 Mg98 2.251 . S
O108 Mg101 2.079 . S
O108 C110 1.273 . S
C109 O105 1.246 . S
C109 O106 1.259 . S
C110 O107 1.252 . S
C110 O108 1.273 . S
O111 Mg98 2.010 . S
O111 C103 1.249 . S
Mg112 O113 2.028 . S
Mg112 O119 1.986 . S
Mg112 O121 2.114 1_565 S
Mg112 O122 2.251 1_565 S
Mg112 O125 2.010 . S
O113 Mg112 2.028 . S
O113 C116 1.250 . S
O114 Mg115 2.028 . S
O114 C116 1.248 . S
Mg115 O114 2.028 . S
Mg115 O120 2.032 . S
Mg115 O122 2.079 1_565 S
C116 O113 1.250 . S
C116 O114 1.248 . S
C117 O118 1.264 . S
C117 O125 1.249 . S
O118 C117 1.264 . S
O119 Mg112 1.986 . S
O119 C123 1.246 . S
O120 Mg115 2.032 . S
O120 C123 1.259 . S
O121 Mg112 2.114 1_545 S
O121 C124 1.252 . S
O122 Mg112 2.251 1_545 S
O122 Mg115 2.079 1_545 S
O122 C124 1.273 . S
C123 O119 1.246 . S
C123 O120 1.259 . S
C124 O121 1.252 . S
C124 O122 1.273 . S
O125 Mg112 2.010 . S
O125 C117 1.249 . S
Mg126 O127 2.028 . S
Mg126 O133 1.986 . S
Mg126 O135 2.114 . S
Mg126 O136 2.251 . S
Mg126 O139 2.010 . S
O127 Mg126 2.028 . S
O127 C130 1.250 . S
O128 Mg129 2.028 . S
O128 C130 1.248 . S
Mg129 O128 2.028 . S
Mg129 O134 2.032 . S
Mg129 O136 2.079 . S
C130 O127 1.250 . S
C130 O128 1.248 . S
C131 O132 1.264 . S
C131 O139 1.249 . S
O132 C131 1.264 . S
O133 Mg126 1.986 . S
O133 C137 1.246 . S
O134 Mg129 2.032 . S
O134 C137 1.259 . S
O135 Mg126 2.114 . S
O135 C138 1.252 . S
O136 Mg126 2.251 . S
O136 Mg129 2.079 . S
O136 C138 1.273 . S
C137 O133 1.246 . S
C137 O134 1.259 . S
C138 O135 1.252 . S
C138 O136 1.273 . S
O139 Mg126 2.010 . S
O139 C131 1.249 . S
Mg140 O141 2.028 . S
Mg140 O147 1.986 . S
Mg140 O149 2.114 1_545 S
Mg140 O150 2.251 1_545 S
Mg140 O153 2.010 . S
O141 Mg140 2.028 . S
O141 C144 1.250 . S
O142 Mg143 2.028 . S
O142 C144 1.248 . S
Mg143 O142 2.028 . S
Mg143 O148 2.032 . S
Mg143 O150 2.079 1_545 S
C144 O141 1.250 . S
C144 O142 1.248 . S
C145 O146 1.264 . S
C145 O153 1.249 1_455 S
O146 C145 1.264 . S
O147 Mg140 1.986 . S
O147 C151 1.246 . S
O148 Mg143 2.032 . S
O148 C151 1.259 . S
O149 Mg140 2.114 1_565 S
O149 C152 1.252 . S
O150 Mg140 2.251 1_565 S
O150 Mg143 2.079 1_565 S
O150 C152 1.273 . S
C151 O147 1.246 . S
C151 O148 1.259 . S
C152 O149 1.252 . S
C152 O150 1.273 . S
O153 Mg140 2.010 . S
O153 C145 1.249 1_655 S
Mg154 O155 2.028 . S
Mg154 O161 1.986 . S
Mg154 O163 2.114 . S
Mg154 O164 2.251 . S
Mg154 O167 2.010 . S
O155 Mg154 2.028 . S
O155 C158 1.250 . S
O156 Mg157 2.028 . S
O156 C158 1.248 . S
Mg157 O156 2.028 . S
Mg157 O162 2.032 . S
Mg157 O164 2.079 . S
C158 O155 1.250 . S
C158 O156 1.248 . S
C159 O160 1.264 . S
C159 O167 1.249 . S
O160 C159 1.264 . S
O161 Mg154 1.986 . S
O161 C165 1.246 . S
O162 Mg157 2.032 . S
O162 C165 1.259 . S
O163 Mg154 2.114 . S
O163 C166 1.252 . S
O164 Mg154 2.251 . S
O164 Mg157 2.079 . S
O164 C166 1.273 . S
C165 O161 1.246 . S
C165 O162 1.259 . S
C166 O163 1.252 . S
C166 O164 1.273 . S
O167 Mg154 2.010 . S
O167 C159 1.249 . S
Mg168 O169 2.028 . S
Mg168 O175 1.986 . S
Mg168 O177 2.114 1_545 S
Mg168 O178 2.251 1_545 S
Mg168 O181 2.010 . S
O169 Mg168 2.028 . S
O169 C172 1.250 . S
O170 Mg171 2.028 . S
O170 C172 1.248 . S
Mg171 O170 2.028 . S
Mg171 O176 2.032 . S
Mg171 O178 2.079 1_545 S
C172 O169 1.250 . S
C172 O170 1.248 . S
C173 O174 1.264 . S
C173 O181 1.249 . S
O174 C173 1.264 . S
O175 Mg168 1.986 . S
O175 C179 1.246 . S
O176 Mg171 2.032 . S
O176 C179 1.259 . S
O177 Mg168 2.114 1_565 S
O177 C180 1.252 . S
O178 Mg168 2.251 1_565 S
O178 Mg171 2.079 1_565 S
O178 C180 1.273 . S
C179 O175 1.246 . S
C179 O176 1.259 . S
C180 O177 1.252 . S
C180 O178 1.273 . S
O181 Mg168 2.010 . S
O181 C173 1.249 . S
Mg182 O183 2.028 . S
Mg182 O189 1.986 . S
Mg182 O191 2.114 . S
Mg182 O192 2.251 . S
Mg182 O195 2.010 . S
O183 Mg182 2.028 . S
O183 C186 1.250 . S
O184 Mg185 2.028 . S
O184 C186 1.248 . S
Mg185 O184 2.028 . S
Mg185 O190 2.032 . S
Mg185 O192 2.079 . S
C186 O183 1.250 . S
C186 O184 1.248 . S
C187 O188 1.264 . S
C187 O195 1.249 . S
O188 C187 1.264 . S
O189 Mg182 1.986 . S
O189 C193 1.246 . S
O190 Mg185 2.032 . S
O190 C193 1.259 . S
O191 Mg182 2.114 . S
O191 C194 1.252 . S
O192 Mg182 2.251 . S
O192 Mg185 2.079 . S
O192 C194 1.273 . S
C193 O189 1.246 . S
C193 O190 1.259 . S
C194 O191 1.252 . S
C194 O192 1.273 . S
O195 Mg182 2.010 . S
O195 C187 1.249 . S
Mg196 O197 2.028 . S
Mg196 O203 1.986 . S
Mg196 O205 2.114 1_565 S
Mg196 O206 2.251 1_565 S
Mg196 O209 2.010 . S
O197 Mg196 2.028 . S
O197 C200 1.250 . S
O198 Mg199 2.028 . S
O198 C200 1.248 . S
Mg199 O198 2.028 . S
Mg199 O204 2.032 . S
Mg199 O206 2.079 1_565 S
C200 O197 1.250 . S
C200 O198 1.248 . S
C201 O202 1.264 . S
C201 O209 1.249 1_455 S
O202 C201 1.264 . S
O203 Mg196 1.986 . S
O203 C207 1.246 . S
O204 Mg199 2.032 . S
O204 C207 1.259 . S
O205 Mg196 2.114 1_545 S
O205 C208 1.252 . S
O206 Mg196 2.251 1_545 S
O206 Mg199 2.079 1_545 S
O206 C208 1.273 . S
C207 O203 1.246 . S
C207 O204 1.259 . S
C208 O205 1.252 . S
C208 O206 1.273 . S
O209 Mg196 2.010 . S
O209 C201 1.249 1_655 S
Mg210 O211 2.028 . S
Mg210 O217 1.986 . S
Mg210 O219 2.114 . S
Mg210 O220 2.251 . S
Mg210 O223 2.010 . S
O211 Mg210 2.028 . S
O211 C214 1.250 . S
O212 Mg213 2.028 . S
O212 C214 1.248 . S
Mg213 O212 2.028 . S
Mg213 O218 2.032 . S
Mg213 O220 2.079 . S
C214 O211 1.250 . S
C214 O212 1.248 . S
C215 O216 1.264 . S
C215 O223 1.249 . S
O216 C215 1.264 . S
O217 Mg210 1.986 . S
O217 C221 1.246 . S
O218 Mg213 2.032 . S
O218 C221 1.259 . S
O219 Mg210 2.114 . S
O219 C222 1.252 . S
O220 Mg210 2.251 . S
O220 Mg213 2.079 . S
O220 C222 1.273 . S
C221 O217 1.246 . S
C221 O218 1.259 . S
C222 O219 1.252 . S
C222 O220 1.273 . S
O223 Mg210 2.010 . S
O223 C215 1.249 . S
Mg224 O225 2.028 . S
Mg224 O231 1.986 . S
Mg224 O233 2.114 . S
Mg224 O234 2.251 . S
Mg224 O237 2.010 . S
O225 Mg224 2.028 . S
O225 C228 1.250 . S
O226 Mg227 2.028 . S
O226 C228 1.248 . S
Mg227 O226 2.028 . S
Mg227 O232 2.032 . S
Mg227 O234 2.079 . S
C228 O225 1.250 . S
C228 O226 1.248 . S
C229 O230 1.264 . S
C229 O237 1.249 1_455 S
O230 C229 1.264 . S
O231 Mg224 1.986 . S
O231 C235 1.246 . S
O232 Mg227 2.032 . S
O232 C235 1.259 . S
O233 Mg224 2.114 . S
O233 C236 1.252 . S
O234 Mg224 2.251 . S
O234 Mg227 2.079 . S
O234 C236 1.273 . S
C235 O231 1.246 . S
C235 O232 1.259 . S
C236 O233 1.252 . S
C236 O234 1.273 . S
O237 Mg224 2.010 . S
O237 C229 1.249 1_655 S
Mg238 O239 2.028 . S
Mg238 O245 1.986 . S
Mg238 O247 2.114 . S
Mg238 O248 2.251 . S
Mg238 O251 2.010 . S
O239 Mg238 2.028 . S
O239 C242 1.250 . S
O240 Mg241 2.028 . S
O240 C242 1.248 . S
Mg241 O240 2.028 . S
Mg241 O246 2.032 . S
Mg241 O248 2.079 . S
C242 O239 1.250 . S
C242 O240 1.248 . S
C243 O244 1.264 . S
C243 O251 1.249 . S
O244 C243 1.264 . S
O245 Mg238 1.986 . S
O245 C249 1.246 . S
O246 Mg241 2.032 . S
O246 C249 1.259 . S
O247 Mg238 2.114 . S
O247 C250 1.252 . S
O248 Mg238 2.251 . S
O248 Mg241 2.079 . S
O248 C250 1.273 . S
C249 O245 1.246 . S
C249 O246 1.259 . S
C250 O247 1.252 . S
C250 O248 1.273 . S
O251 Mg238 2.010 . S
O251 C243 1.249 . S
Mg252 O253 2.028 . S
Mg252 O259 1.986 . S
Mg252 O261 2.114 . S
Mg252 O262 2.251 . S
Mg252 O265 2.010 . S
O253 Mg252 2.028 . S
O253 C256 1.250 . S
O254 Mg255 2.028 . S
O254 C256 1.248 . S
Mg255 O254 2.028 . S
Mg255 O260 2.032 . S
Mg255 O262 2.079 . S
C256 O253 1.250 . S
C256 O254 1.248 . S
C257 O258 1.264 . S
C257 O265 1.249 . S
O258 C257 1.264 . S
O259 Mg252 1.986 . S
O259 C263 1.246 . S
O260 Mg255 2.032 . S
O260 C263 1.259 . S
O261 Mg252 2.114 . S
O261 C264 1.252 . S
O262 Mg252 2.251 . S
O262 Mg255 2.079 . S
O262 C264 1.273 . S
C263 O259 1.246 . S
C263 O260 1.259 . S
C264 O261 1.252 . S
C264 O262 1.273 . S
O265 Mg252 2.010 . S
O265 C257 1.249 . S
Mg266 O267 2.028 . S
Mg266 O273 1.986 . S
Mg266 O275 2.114 . S
Mg266 O276 2.251 . S
Mg266 O279 2.010 . S
O267 Mg266 2.028 . S
O267 C270 1.250 . S
O268 Mg269 2.028 . S
O268 C270 1.248 . S
Mg269 O268 2.028 . S
Mg269 O274 2.032 . S
Mg269 O276 2.079 . S
C270 O267 1.250 . S
C270 O268 1.248 . S
C271 O272 1.264 . S
C271 O279 1.249 . S
O272 C271 1.264 . S
O273 Mg266 1.986 . S
O273 C277 1.246 . S
O274 Mg269 2.032 . S
O274 C277 1.259 . S
O275 Mg266 2.114 . S
O275 C278 1.252 . S
O276 Mg266 2.251 . S
O276 Mg269 2.079 . S
O276 C278 1.273 . S
C277 O273 1.246 . S
C277 O274 1.259 . S
C278 O275 1.252 . S
C278 O276 1.273 . S
O279 Mg266 2.010 . S
O279 C271 1.249 . S
Mg280 O281 2.028 . S
Mg280 O287 1.986 . S
Mg280 O289 2.114 . S
Mg280 O290 2.251 . S
Mg280 O293 2.010 . S
O281 Mg280 2.028 . S
O281 C284 1.250 . S
O282 Mg283 2.028 . S
O282 C284 1.248 . S
Mg283 O282 2.028 . S
Mg283 O288 2.032 . S
Mg283 O290 2.079 . S
C284 O281 1.250 . S
C284 O282 1.248 . S
C285 O286 1.264 . S
C285 O293 1.249 1_455 S
O286 C285 1.264 . S
O287 Mg280 1.986 . S
O287 C291 1.246 . S
O288 Mg283 2.032 . S
O288 C291 1.259 . S
O289 Mg280 2.114 . S
O289 C292 1.252 . S
O290 Mg280 2.251 . S
O290 Mg283 2.079 . S
O290 C292 1.273 . S
C291 O287 1.246 . S
C291 O288 1.259 . S
C292 O289 1.252 . S
C292 O290 1.273 . S
O293 Mg280 2.010 . S
O293 C285 1.249 1_655 S
Mg294 O295 2.028 . S
Mg294 O301 1.986 . S
Mg294 O303 2.114 . S
Mg294 O304 2.251 . S
Mg294 O307 2.010 . S
O295 Mg294 2.028 . S
O295 C298 1.250 . S
O296 Mg297 2.028 . S
O296 C298 1.248 . S
Mg297 O296 2.028 . S
Mg297 O302 2.032 . S
Mg297 O304 2.079 . S
C298 O295 1.250 . S
C298 O296 1.248 . S
C299 O300 1.264 . S
C299 O307 1.249 . S
O300 C299 1.264 . S
O301 Mg294 1.986 . S
O301 C305 1.246 . S
O302 Mg297 2.032 . S
O302 C305 1.259 . S
O303 Mg294 2.114 . S
O303 C306 1.252 . S
O304 Mg294 2.251 . S
O304 Mg297 2.079 . S
O304 C306 1.273 . S
C305 O301 1.246 . S
C305 O302 1.259 . S
C306 O303 1.252 . S
C306 O304 1.273 . S
O307 Mg294 2.010 . S
O307 C299 1.249 . S
Mg308 O309 2.028 . S
Mg308 O315 1.986 . S
Mg308 O317 2.114 . S
Mg308 O318 2.251 . S
Mg308 O321 2.010 . S
O309 Mg308 2.028 . S
O309 C312 1.250 . S
O310 Mg311 2.028 . S
O310 C312 1.248 . S
Mg311 O310 2.028 . S
Mg311 O316 2.032 . S
Mg311 O318 2.079 . S
C312 O309 1.250 . S
C312 O310 1.248 . S
C313 O314 1.264 . S
C313 O321 1.249 . S
O314 C313 1.264 . S
O315 Mg308 1.986 . S
O315 C319 1.246 . S
O316 Mg311 2.032 . S
O316 C319 1.259 . S
O317 Mg308 2.114 . S
O317 C320 1.252 . S
O318 Mg308 2.251 . S
O318 Mg311 2.079 . S
O318 C320 1.273 . S
C319 O315 1.246 . S
C319 O316 1.259 . S
C320 O317 1.252 . S
C320 O318 1.273 . S
O321 Mg308 2.010 . S
O321 C313 1.249 . S
Mg322 O323 2.028 . S
Mg322 O329 1.986 . S
Mg322 O331 2.114 . S
Mg322 O332 2.251 . S
Mg322 O335 2.010 . S
O323 Mg322 2.028 . S
O323 C326 1.250 . S
O324 Mg325 2.028 . S
O324 C326 1.248 . S
Mg325 O324 2.028 . S
Mg325 O330 2.032 . S
Mg325 O332 2.079 . S
C326 O323 1.250 . S
C326 O324 1.248 . S
C327 O328 1.264 . S
C327 O335 1.249 . S
O328 C327 1.264 . S
O329 Mg322 1.986 . S
O329 C333 1.246 . S
O330 Mg325 2.032 . S
O330 C333 1.259 . S
O331 Mg322 2.114 . S
O331 C334 1.252 . S
O332 Mg322 2.251 . S
O332 Mg325 2.079 . S
O332 C334 1.273 . S
C333 O329 1.246 . S
C333 O330 1.259 . S
C334 O331 1.252 . S
C334 O332 1.273 . S
O335 Mg322 2.010 . S
O335 C327 1.249 . S
Mg336 O337 2.028 . S
Mg336 O343 1.986 . S
Mg336 O345 2.114 . S
Mg336 O346 2.251 . S
Mg336 O349 2.010 . S
O337 Mg336 2.028 . S
O337 C340 1.250 . S
O338 Mg339 2.028 . S
O338 C340 1.248 . S
Mg339 O338 2.028 . S
Mg339 O344 2.032 . S
Mg339 O346 2.079 . S
C340 O337 1.250 . S
C340 O338 1.248 . S
C341 O342 1.264 . S
C341 O349 1.249 1_655 S
O342 C341 1.264 . S
O343 Mg336 1.986 . S
O343 C347 1.246 . S
O344 Mg339 2.032 . S
O344 C347 1.259 . S
O345 Mg336 2.114 . S
O345 C348 1.252 . S
O346 Mg336 2.251 . S
O346 Mg339 2.079 . S
O346 C348 1.273 . S
C347 O343 1.246 . S
C347 O344 1.259 . S
C348 O345 1.252 . S
C348 O346 1.273 . S
O349 Mg336 2.010 . S
O349 C341 1.249 1_455 S
Mg350 O351 2.028 . S
Mg350 O357 1.986 . S
Mg350 O359 2.114 . S
Mg350 O360 2.251 . S
Mg350 O363 2.010 . S
O351 Mg350 2.028 . S
O351 C354 1.250 . S
O352 Mg353 2.028 . S
O352 C354 1.248 . S
Mg353 O352 2.028 . S
Mg353 O358 2.032 . S
Mg353 O360 2.079 . S
C354 O351 1.250 . S
C354 O352 1.248 . S
C355 O356 1.264 . S
C355 O363 1.249 . S
O356 C355 1.264 . S
O357 Mg350 1.986 . S
O357 C361 1.246 . S
O358 Mg353 2.032 . S
O358 C361 1.259 . S
O359 Mg350 2.114 . S
O359 C362 1.252 . S
O360 Mg350 2.251 . S
O360 Mg353 2.079 . S
O360 C362 1.273 . S
C361 O357 1.246 . S
C361 O358 1.259 . S
C362 O359 1.252 . S
C362 O360 1.273 . S
O363 Mg350 2.010 . S
O363 C355 1.249 . S
Mg364 O365 2.028 . S
Mg364 O371 1.986 . S
Mg364 O373 2.114 . S
Mg364 O374 2.251 . S
Mg364 O377 2.010 . S
O365 Mg364 2.028 . S
O365 C368 1.250 . S
O366 Mg367 2.028 . S
O366 C368 1.248 . S
Mg367 O366 2.028 . S
Mg367 O372 2.032 . S
Mg367 O374 2.079 . S
C368 O365 1.250 . S
C368 O366 1.248 . S
C369 O370 1.264 . S
C369 O377 1.249 . S
O370 C369 1.264 . S
O371 Mg364 1.986 . S
O371 C375 1.246 . S
O372 Mg367 2.032 . S
O372 C375 1.259 . S
O373 Mg364 2.114 . S
O373 C376 1.252 . S
O374 Mg364 2.251 . S
O374 Mg367 2.079 . S
O374 C376 1.273 . S
C375 O371 1.246 . S
C375 O372 1.259 . S
C376 O373 1.252 . S
C376 O374 1.273 . S
O377 Mg364 2.010 . S
O377 C369 1.249 . S
Mg378 O379 2.028 . S
Mg378 O385 1.986 . S
Mg378 O387 2.114 . S
Mg378 O388 2.251 . S
Mg378 O391 2.010 . S
O379 Mg378 2.028 . S
O379 C382 1.250 . S
O380 Mg381 2.028 . S
O380 C382 1.248 . S
Mg381 O380 2.028 . S
Mg381 O386 2.032 . S
Mg381 O388 2.079 . S
C382 O379 1.250 . S
C382 O380 1.248 . S
C383 O384 1.264 . S
C383 O391 1.249 . S
O384 C383 1.264 . S
O385 Mg378 1.986 . S
O385 C389 1.246 . S
O386 Mg381 2.032 . S
O386 C389 1.259 . S
O387 Mg378 2.114 . S
O387 C390 1.252 . S
O388 Mg378 2.251 . S
O388 Mg381 2.079 . S
O388 C390 1.273 . S
C389 O385 1.246 . S
C389 O386 1.259 . S
C390 O387 1.252 . S
C390 O388 1.273 . S
O391 Mg378 2.010 . S
O391 C383 1.249 . S
Mg392 O393 2.028 . S
Mg392 O399 1.986 . S
Mg392 O401 2.114 . S
Mg392 O402 2.251 . S
Mg392 O405 2.010 . S
O393 Mg392 2.028 . S
O393 C396 1.250 . S
O394 Mg395 2.028 . S
O394 C396 1.248 . S
Mg395 O394 2.028 . S
Mg395 O400 2.032 . S
Mg395 O402 2.079 . S
C396 O393 1.250 . S
C396 O394 1.248 . S
C397 O398 1.264 . S
C397 O405 1.249 1_655 S
O398 C397 1.264 . S
O399 Mg392 1.986 . S
O399 C403 1.246 . S
O400 Mg395 2.032 . S
O400 C403 1.259 . S
O401 Mg392 2.114 . S
O401 C404 1.252 . S
O402 Mg392 2.251 . S
O402 Mg395 2.079 . S
O402 C404 1.273 . S
C403 O399 1.246 . S
C403 O400 1.259 . S
C404 O401 1.252 . S
C404 O402 1.273 . S
O405 Mg392 2.010 . S
O405 C397 1.249 1_455 S
Mg406 O407 2.028 . S
Mg406 O413 1.986 . S
Mg406 O415 2.114 . S
Mg406 O416 2.251 . S
Mg406 O419 2.010 . S
O407 Mg406 2.028 . S
O407 C410 1.250 . S
O408 Mg409 2.028 . S
O408 C410 1.248 . S
Mg409 O408 2.028 . S
Mg409 O414 2.032 . S
Mg409 O416 2.079 . S
C410 O407 1.250 . S
C410 O408 1.248 . S
C411 O412 1.264 . S
C411 O419 1.249 . S
O412 C411 1.264 . S
O413 Mg406 1.986 . S
O413 C417 1.246 . S
O414 Mg409 2.032 . S
O414 C417 1.259 . S
O415 Mg406 2.114 . S
O415 C418 1.252 . S
O416 Mg406 2.251 . S
O416 Mg409 2.079 . S
O416 C418 1.273 . S
C417 O413 1.246 . S
C417 O414 1.259 . S
C418 O415 1.252 . S
C418 O416 1.273 . S
O419 Mg406 2.010 . S
O419 C411 1.249 . S
Mg420 O421 2.028 . S
Mg420 O427 1.986 . S
Mg420 O429 2.114 . S
Mg420 O430 2.251 . S
Mg420 O433 2.010 . S
O421 Mg420 2.028 . S
O421 C424 1.250 . S
O422 Mg423 2.028 . S
O422 C424 1.248 . S
Mg423 O422 2.028 . S
Mg423 O428 2.032 . S
Mg423 O430 2.079 . S
C424 O421 1.250 . S
C424 O422 1.248 . S
C425 O426 1.264 . S
C425 O433 1.249 . S
O426 C425 1.264 . S
O427 Mg420 1.986 . S
O427 C431 1.246 . S
O428 Mg423 2.032 . S
O428 C431 1.259 . S
O429 Mg420 2.114 . S
O429 C432 1.252 . S
O430 Mg420 2.251 . S
O430 Mg423 2.079 . S
O430 C432 1.273 . S
C431 O427 1.246 . S
C431 O428 1.259 . S
C432 O429 1.252 . S
C432 O430 1.273 . S
O433 Mg420 2.010 . S
O433 C425 1.249 . S
Mg434 O435 2.028 . S
Mg434 O441 1.986 . S
Mg434 O443 2.114 . S
Mg434 O444 2.251 . S
Mg434 O447 2.010 . S
O435 Mg434 2.028 . S
O435 C438 1.250 . S
O436 Mg437 2.028 . S
O436 C438 1.248 . S
Mg437 O436 2.028 . S
Mg437 O442 2.032 . S
Mg437 O444 2.079 . S
C438 O435 1.250 . S
C438 O436 1.248 . S
C439 O440 1.264 . S
C439 O447 1.249 . S
O440 C439 1.264 . S
O441 Mg434 1.986 . S
O441 C445 1.246 . S
O442 Mg437 2.032 . S
O442 C445 1.259 . S
O443 Mg434 2.114 . S
O443 C446 1.252 . S
O444 Mg434 2.251 . S
O444 Mg437 2.079 . S
O444 C446 1.273 . S
C445 O441 1.246 . S
C445 O442 1.259 . S
C446 O443 1.252 . S
C446 O444 1.273 . S
O447 Mg434 2.010 . S
O447 C439 1.249 . S
H448 C460 0.930 . S
H449 C462 0.930 . S
H450 C463 0.930 . S
H451 C467 0.959 . S
H452 C467 0.959 . S
H453 C467 0.961 . S
H454 C468 0.960 . S
H455 C468 0.961 . S
H456 C468 0.959 . S
H457 C471 0.929 . S
H458 C472 0.931 . S
H459 C474 0.930 . S
C460 H448 0.930 . S
C460 C461 1.399 . S
C460 C465 1.399 . S
C461 C460 1.399 . S
C461 C462 1.376 1_565 S
C462 H449 0.930 . S
C462 C461 1.376 1_545 S
C462 C463 1.388 . S
C463 H450 0.930 . S
C463 C462 1.388 . S
C463 C464 1.390 . S
C464 C463 1.390 . S
C464 C465 1.394 1_545 S
C464 C470 1.465 . S
C465 C460 1.399 . S
C465 C464 1.394 1_565 S
C465 C466 1.516 . S
C466 C465 1.516 . S
C466 C467 1.502 . S
C466 C468 1.561 . S
C466 C469 1.526 . S
C467 H451 0.959 . S
C467 H452 0.959 . S
C467 H453 0.961 . S
C467 C466 1.502 . S
C468 H454 0.960 . S
C468 H455 0.961 . S
C468 H456 0.959 . S
C468 C466 1.561 . S
C469 C466 1.526 . S
C469 C470 1.396 1_565 S
C469 C474 1.390 . S
C470 C464 1.465 . S
C470 C469 1.396 1_545 S
C470 C471 1.399 . S
C471 H457 0.929 . S
C471 C470 1.399 . S
C471 C472 1.385 . S
C472 H458 0.931 . S
C472 C471 1.385 . S
C472 C473 1.389 . S
C473 C472 1.389 . S
C473 C474 1.387 1_545 S
C474 H459 0.930 . S
C474 C469 1.390 . S
C474 C473 1.387 1_565 S
H475 C487 0.930 . S
H476 C489 0.930 . S
H477 C490 0.930 . S
H478 C494 0.959 . S
H479 C494 0.959 . S
H480 C494 0.961 . S
H481 C495 0.960 . S
H482 C495 0.961 . S
H483 C495 0.959 . S
H484 C498 0.929 . S
H485 C499 0.931 . S
H486 C501 0.930 . S
C487 H475 0.930 . S
C487 C488 1.399 . S
C487 C492 1.399 . S
C488 C487 1.399 . S
C488 C489 1.376 . S
C489 H476 0.930 . S
C489 C488 1.376 . S
C489 C490 1.388 . S
C490 H477 0.930 . S
C490 C489 1.388 . S
C490 C491 1.390 . S
C491 C490 1.390 . S
C491 C492 1.394 . S
C491 C497 1.465 . S
C492 C487 1.399 . S
C492 C491 1.394 . S
C492 C493 1.516 . S
C493 C492 1.516 . S
C493 C494 1.502 . S
C493 C495 1.561 . S
C493 C496 1.526 . S
C494 H478 0.959 . S
C494 H479 0.959 . S
C494 H480 0.961 . S
C494 C493 1.502 . S
C495 H481 0.960 . S
C495 H482 0.961 . S
C495 H483 0.959 . S
C495 C493 1.561 . S
C496 C493 1.526 . S
C496 C497 1.396 . S
C496 C501 1.390 . S
C497 C491 1.465 . S
C497 C496 1.396 . S
C497 C498 1.399 . S
C498 H484 0.929 . S
C498 C497 1.399 . S
C498 C499 1.385 . S
C499 H485 0.931 . S
C499 C498 1.385 . S
C499 C500 1.389 . S
C500 C499 1.389 . S
C500 C501 1.387 . S
C501 H486 0.930 . S
C501 C496 1.390 . S
C501 C500 1.387 . S
H502 C514 0.930 . S
H503 C516 0.930 . S
H504 C517 0.930 . S
H505 C521 0.959 . S
H506 C521 0.959 . S
H507 C521 0.961 . S
H508 C522 0.960 . S
H509 C522 0.961 . S
H510 C522 0.959 . S
H511 C525 0.929 . S
H512 C526 0.931 . S
H513 C528 0.930 . S
C514 H502 0.930 . S
C514 C515 1.399 1_565 S
C514 C519 1.399 . S
C515 C514 1.399 1_545 S
C515 C516 1.376 . S
C516 H503 0.930 . S
C516 C515 1.376 . S
C516 C517 1.388 . S
C517 H504 0.930 . S
C517 C516 1.388 . S
C517 C518 1.390 . S
C518 C517 1.390 . S
C518 C519 1.394 1_545 S
C518 C524 1.465 . S
C519 C514 1.399 . S
C519 C518 1.394 1_565 S
C519 C520 1.516 . S
C520 C519 1.516 . S
C520 C521 1.502 . S
C520 C522 1.561 . S
C520 C523 1.526 . S
C521 H505 0.959 . S
C521 H506 0.959 . S
C521 H507 0.961 . S
C521 C520 1.502 . S
C522 H508 0.960 . S
C522 H509 0.961 . S
C522 H510 0.959 . S
C522 C520 1.561 . S
C523 C520 1.526 . S
C523 C524 1.396 1_565 S
C523 C528 1.390 . S
C524 C518 1.465 . S
C524 C523 1.396 1_545 S
C524 C525 1.399 . S
C525 H511 0.929 . S
C525 C524 1.399 . S
C525 C526 1.385 . S
C526 H512 0.931 . S
C526 C525 1.385 . S
C526 C527 1.389 1_545 S
C527 C526 1.389 1_565 S
C527 C528 1.387 . S
C528 H513 0.930 . S
C528 C523 1.390 . S
C528 C527 1.387 . S
H529 C541 0.930 . S
H530 C543 0.930 . S
H531 C544 0.930 . S
H532 C548 0.959 . S
H533 C548 0.959 1_554 S
H534 C548 0.961 . S
H535 C549 0.960 1_556 S
H536 C549 0.961 . S
H537 C549 0.959 . S
H538 C552 0.929 . S
H539 C553 0.931 . S
H540 C555 0.930 . S
C541 H529 0.930 . S
C541 C542 1.399 . S
C541 C546 1.399 . S
C542 C541 1.399 . S
C542 C543 1.376 . S
C543 H530 0.930 . S
C543 C542 1.376 . S
C543 C544 1.388 . S
C544 H531 0.930 . S
C544 C543 1.388 . S
C544 C545 1.390 . S
C545 C544 1.390 . S
C545 C546 1.394 . S
C545 C551 1.465 1_556 S
C546 C541 1.399 . S
C546 C545 1.394 . S
C546 C547 1.520 . S
C547 C546 1.520 . S
C547 C548 1.502 . S
C547 C549 1.560 1_556 S
C547 C550 1.521 1_556 S
C548 H532 0.959 . S
C548 H533 0.959 1_556 S
C548 H534 0.961 . S
C548 C547 1.502 . S
C549 H535 0.960 1_554 S
C549 H536 0.961 . S
C549 H537 0.959 . S
C549 C547 1.560 1_554 S
C550 C547 1.521 1_554 S
C550 C551 1.396 . S
C550 C555 1.390 . S
C551 C545 1.465 1_554 S
C551 C550 1.396 . S
C551 C552 1.399 . S
C552 H538 0.929 . S
C552 C551 1.399 . S
C552 C553 1.385 . S
C553 H539 0.931 . S
C553 C552 1.385 . S
C553 C554 1.389 . S
C554 C553 1.389 . S
C554 C555 1.387 . S
C555 H540 0.930 . S
C555 C550 1.390 . S
C555 C554 1.387 . S
H556 C568 0.930 . S
H557 C570 0.930 . S
H558 C571 0.930 . S
H559 C575 0.959 . S
H560 C575 0.959 . S
H561 C575 0.961 . S
H562 C576 0.960 . S
H563 C576 0.961 . S
H564 C576 0.959 . S
H565 C579 0.929 . S
H566 C580 0.931 . S
H567 C582 0.930 . S
C568 H556 0.930 . S
C568 C569 1.399 . S
C568 C573 1.399 . S
C569 C568 1.399 . S
C569 C570 1.376 1_565 S
C570 H557 0.930 . S
C570 C569 1.376 1_545 S
C570 C571 1.388 . S
C571 H558 0.930 . S
C571 C570 1.388 . S
C571 C572 1.390 . S
C572 C571 1.390 . S
C572 C573 1.394 1_545 S
C572 C578 1.465 . S
C573 C568 1.399 . S
C573 C572 1.394 1_565 S
C573 C574 1.516 . S
C574 C573 1.516 . S
C574 C575 1.502 . S
C574 C576 1.561 . S
C574 C577 1.526 . S
C575 H559 0.959 . S
C575 H560 0.959 . S
C575 H561 0.961 . S
C575 C574 1.502 . S
C576 H562 0.960 . S
C576 H563 0.961 . S
C576 H564 0.959 . S
C576 C574 1.561 . S
C577 C574 1.526 . S
C577 C578 1.396 1_565 S
C577 C582 1.390 . S
C578 C572 1.465 . S
C578 C577 1.396 1_545 S
C578 C579 1.399 . S
C579 H565 0.929 . S
C579 C578 1.399 . S
C579 C580 1.385 . S
C580 H566 0.931 . S
C580 C579 1.385 . S
C580 C581 1.389 . S
C581 C580 1.389 . S
C581 C582 1.387 1_545 S
C582 H567 0.930 . S
C582 C577 1.390 . S
C582 C581 1.387 1_565 S
H583 C595 0.930 . S
H584 C597 0.930 . S
H585 C598 0.930 . S
H586 C602 0.959 . S
H587 C602 0.959 . S
H588 C602 0.961 . S
H589 C603 0.960 . S
H590 C603 0.961 . S
H591 C603 0.959 . S
H592 C606 0.929 . S
H593 C607 0.931 . S
H594 C609 0.930 . S
C595 H583 0.930 . S
C595 C596 1.399 . S
C595 C600 1.399 . S
C596 C595 1.399 . S
C596 C597 1.376 . S
C597 H584 0.930 . S
C597 C596 1.376 . S
C597 C598 1.388 . S
C598 H585 0.930 . S
C598 C597 1.388 . S
C598 C599 1.390 . S
C599 C598 1.390 . S
C599 C600 1.394 . S
C599 C605 1.465 . S
C600 C595 1.399 . S
C600 C599 1.394 . S
C600 C601 1.516 . S
C601 C600 1.516 . S
C601 C602 1.502 . S
C601 C603 1.561 . S
C601 C604 1.526 . S
C602 H586 0.959 . S
C602 H587 0.959 . S
C602 H588 0.961 . S
C602 C601 1.502 . S
C603 H589 0.960 . S
C603 H590 0.961 . S
C603 H591 0.959 . S
C603 C601 1.561 . S
C604 C601 1.526 . S
C604 C605 1.396 . S
C604 C609 1.390 . S
C605 C599 1.465 . S
C605 C604 1.396 . S
C605 C606 1.399 . S
C606 H592 0.929 . S
C606 C605 1.399 . S
C606 C607 1.385 . S
C607 H593 0.931 . S
C607 C606 1.385 . S
C607 C608 1.389 . S
C608 C607 1.389 . S
C608 C609 1.387 . S
C609 H594 0.930 . S
C609 C604 1.390 . S
C609 C608 1.387 . S
H610 C622 0.930 . S
H611 C624 0.930 . S
H612 C625 0.930 . S
H613 C629 0.959 . S
H614 C629 0.959 . S
H615 C629 0.961 . S
H616 C630 0.960 . S
H617 C630 0.961 . S
H618 C630 0.959 . S
H619 C633 0.929 . S
H620 C634 0.931 . S
H621 C636 0.930 . S
C622 H610 0.930 . S
C622 C623 1.399 1_565 S
C622 C627 1.399 . S
C623 C622 1.399 1_545 S
C623 C624 1.376 . S
C624 H611 0.930 . S
C624 C623 1.376 . S
C624 C625 1.388 . S
C625 H612 0.930 . S
C625 C624 1.388 . S
C625 C626 1.390 . S
C626 C625 1.390 . S
C626 C627 1.394 1_545 S
C626 C632 1.465 . S
C627 C622 1.399 . S
C627 C626 1.394 1_565 S
C627 C628 1.516 . S
C628 C627 1.516 . S
C628 C629 1.502 . S
C628 C630 1.561 . S
C628 C631 1.526 . S
C629 H613 0.959 . S
C629 H614 0.959 . S
C629 H615 0.961 . S
C629 C628 1.502 . S
C630 H616 0.960 . S
C630 H617 0.961 . S
C630 H618 0.959 . S
C630 C628 1.561 . S
C631 C628 1.526 . S
C631 C632 1.396 1_565 S
C631 C636 1.390 . S
C632 C626 1.465 . S
C632 C631 1.396 1_545 S
C632 C633 1.399 . S
C633 H619 0.929 . S
C633 C632 1.399 . S
C633 C634 1.385 . S
C634 H620 0.931 . S
C634 C633 1.385 . S
C634 C635 1.389 1_545 S
C635 C634 1.389 1_565 S
C635 C636 1.387 . S
C636 H621 0.930 . S
C636 C631 1.390 . S
C636 C635 1.387 . S
H637 C649 0.930 . S
H638 C651 0.930 . S
H639 C652 0.930 . S
H640 C656 0.959 . S
H641 C656 0.959 1_554 S
H642 C656 0.961 . S
H643 C657 0.960 1_556 S
H644 C657 0.961 . S
H645 C657 0.959 . S
H646 C660 0.929 . S
H647 C661 0.931 . S
H648 C663 0.930 . S
C649 H637 0.930 . S
C649 C650 1.399 . S
C649 C654 1.399 . S
C650 C649 1.399 . S
C650 C651 1.376 . S
C651 H638 0.930 . S
C651 C650 1.376 . S
C651 C652 1.388 . S
C652 H639 0.930 . S
C652 C651 1.388 . S
C652 C653 1.390 . S
C653 C652 1.390 . S
C653 C654 1.394 . S
C653 C659 1.465 1_556 S
C654 C649 1.399 . S
C654 C653 1.394 . S
C654 C655 1.548 . S
C655 C654 1.548 . S
C655 C656 1.509 . S
C655 C657 1.556 1_556 S
C655 C658 1.492 1_556 S
C656 H640 0.959 . S
C656 H641 0.959 1_556 S
C656 H642 0.961 . S
C656 C655 1.509 . S
C657 H643 0.960 1_554 S
C657 H644 0.961 . S
C657 H645 0.959 . S
C657 C655 1.556 1_554 S
C658 C655 1.492 1_554 S
C658 C659 1.396 . S
C658 C663 1.390 . S
C659 C653 1.465 1_554 S
C659 C658 1.396 . S
C659 C660 1.399 . S
C660 H646 0.929 . S
C660 C659 1.399 . S
C660 C661 1.385 . S
C661 H647 0.931 . S
C661 C660 1.385 . S
C661 C662 1.389 . S
C662 C661 1.389 . S
C662 C663 1.387 . S
C663 H648 0.930 . S
C663 C658 1.390 . S
C663 C662 1.387 . S
H664 C676 0.930 . S
H665 C678 0.930 . S
H666 C679 0.930 . S
H667 C683 0.959 . S
H668 C683 0.959 . S
H669 C683 0.961 . S
H670 C684 0.960 . S
H671 C684 0.961 . S
H672 C684 0.959 . S
H673 C687 0.929 . S
H674 C688 0.931 . S
H675 C690 0.930 . S
C676 H664 0.930 . S
C676 C677 1.399 . S
C676 C681 1.399 . S
C677 C676 1.399 . S
C677 C678 1.376 . S
C678 H665 0.930 . S
C678 C677 1.376 . S
C678 C679 1.388 . S
C679 H666 0.930 . S
C679 C678 1.388 . S
C679 C680 1.390 . S
C680 C679 1.390 . S
C680 C681 1.394 . S
C680 C686 1.465 . S
C681 C676 1.399 . S
C681 C680 1.394 . S
C681 C682 1.516 . S
C682 C681 1.516 . S
C682 C683 1.502 . S
C682 C684 1.561 . S
C682 C685 1.526 . S
C683 H667 0.959 . S
C683 H668 0.959 . S
C683 H669 0.961 . S
C683 C682 1.502 . S
C684 H670 0.960 . S
C684 H671 0.961 . S
C684 H672 0.959 . S
C684 C682 1.561 . S
C685 C682 1.526 . S
C685 C686 1.396 . S
C685 C690 1.390 . S
C686 C680 1.465 . S
C686 C685 1.396 . S
C686 C687 1.399 . S
C687 H673 0.929 . S
C687 C686 1.399 . S
C687 C688 1.385 . S
C688 H674 0.931 . S
C688 C687 1.385 . S
C688 C689 1.389 . S
C689 C688 1.389 . S
C689 C690 1.387 . S
C690 H675 0.930 . S
C690 C685 1.390 . S
C690 C689 1.387 . S
H691 C703 0.930 . S
H692 C705 0.930 . S
H693 C706 0.930 . S
H694 C710 0.959 . S
H695 C710 0.959 . S
H696 C710 0.961 1_554 S
H697 C711 0.967 . S
H698 C711 0.954 1_556 S
H699 C711 0.960 . S
H700 C714 0.929 . S
H701 C715 0.931 . S
H702 C717 0.930 . S
C703 H691 0.930 . S
C703 C704 1.399 . S
C703 C708 1.399 . S
C704 C703 1.399 . S
C704 C705 1.376 . S
C705 H692 0.930 . S
C705 C704 1.376 . S
C705 C706 1.388 . S
C706 H693 0.930 . S
C706 C705 1.388 . S
C706 C707 1.390 . S
C707 C706 1.390 . S
C707 C708 1.394 . S
C707 C713 1.465 1_554 S
C708 C703 1.399 . S
C708 C707 1.394 . S
C708 C709 1.516 1_554 S
C709 C708 1.516 1_556 S
C709 C710 1.502 . S
C709 C711 1.561 1_556 S
C709 C712 1.526 . S
C710 H694 0.959 . S
C710 H695 0.959 . S
C710 H696 0.961 1_556 S
C710 C709 1.502 . S
C711 H697 0.967 . S
C711 H698 0.954 1_554 S
C711 H699 0.960 . S
C711 C709 1.561 1_554 S
C712 C709 1.526 . S
C712 C713 1.396 . S
C712 C717 1.390 . S
C713 C707 1.465 1_556 S
C713 C712 1.396 . S
C713 C714 1.399 . S
C714 H700 0.929 . S
C714 C713 1.399 . S
C714 C715 1.385 . S
C715 H701 0.931 . S
C715 C714 1.385 . S
C715 C716 1.389 . S
C716 C715 1.389 . S
C716 C717 1.387 . S
C717 H702 0.930 . S
C717 C712 1.390 . S
C717 C716 1.387 . S
H718 C730 0.930 . S
H719 C732 0.930 . S
H720 C733 0.930 . S
H721 C737 0.959 . S
H722 C737 0.959 . S
H723 C737 0.961 . S
H724 C738 0.960 . S
H725 C738 0.961 . S
H726 C738 0.959 . S
H727 C741 0.929 . S
H728 C742 0.931 . S
H729 C744 0.930 . S
C730 H718 0.930 . S
C730 C731 1.399 . S
C730 C735 1.399 . S
C731 C730 1.399 . S
C731 C732 1.376 . S
C732 H719 0.930 . S
C732 C731 1.376 . S
C732 C733 1.388 . S
C733 H720 0.930 . S
C733 C732 1.388 . S
C733 C734 1.390 . S
C734 C733 1.390 . S
C734 C735 1.394 . S
C734 C740 1.465 . S
C735 C730 1.399 . S
C735 C734 1.394 . S
C735 C736 1.516 . S
C736 C735 1.516 . S
C736 C737 1.502 . S
C736 C738 1.561 . S
C736 C739 1.526 . S
C737 H721 0.959 . S
C737 H722 0.959 . S
C737 H723 0.961 . S
C737 C736 1.502 . S
C738 H724 0.960 . S
C738 H725 0.961 . S
C738 H726 0.959 . S
C738 C736 1.561 . S
C739 C736 1.526 . S
C739 C740 1.396 . S
C739 C744 1.390 . S
C740 C734 1.465 . S
C740 C739 1.396 . S
C740 C741 1.399 . S
C741 H727 0.929 . S
C741 C740 1.399 . S
C741 C742 1.385 . S
C742 H728 0.931 . S
C742 C741 1.385 . S
C742 C743 1.389 . S
C743 C742 1.389 . S
C743 C744 1.387 . S
C744 H729 0.930 . S
C744 C739 1.390 . S
C744 C743 1.387 . S
H745 C757 0.930 . S
H746 C759 0.930 . S
H747 C760 0.930 . S
H748 C764 0.959 . S
H749 C764 0.959 . S
H750 C764 0.961 . S
H751 C765 0.960 . S
H752 C765 0.961 . S
H753 C765 0.959 . S
H754 C768 0.929 . S
H755 C769 0.931 . S
H756 C771 0.930 . S
C757 H745 0.930 . S
C757 C758 1.399 . S
C757 C762 1.399 . S
C758 C757 1.399 . S
C758 C759 1.376 . S
C759 H746 0.930 . S
C759 C758 1.376 . S
C759 C760 1.388 . S
C760 H747 0.930 . S
C760 C759 1.388 . S
C760 C761 1.390 . S
C761 C760 1.390 . S
C761 C762 1.394 . S
C761 C767 1.465 . S
C762 C757 1.399 . S
C762 C761 1.394 . S
C762 C763 1.516 . S
C763 C762 1.516 . S
C763 C764 1.502 . S
C763 C765 1.561 . S
C763 C766 1.526 . S
C764 H748 0.959 . S
C764 H749 0.959 . S
C764 H750 0.961 . S
C764 C763 1.502 . S
C765 H751 0.960 . S
C765 H752 0.961 . S
C765 H753 0.959 . S
C765 C763 1.561 . S
C766 C763 1.526 . S
C766 C767 1.396 . S
C766 C771 1.390 . S
C767 C761 1.465 . S
C767 C766 1.396 . S
C767 C768 1.399 . S
C768 H754 0.929 . S
C768 C767 1.399 . S
C768 C769 1.385 . S
C769 H755 0.931 . S
C769 C768 1.385 . S
C769 C770 1.389 . S
C770 C769 1.389 . S
C770 C771 1.387 . S
C771 H756 0.930 . S
C771 C766 1.390 . S
C771 C770 1.387 . S
H772 C784 0.930 . S
H773 C786 0.930 . S
H774 C787 0.930 . S
H775 C791 0.959 . S
H776 C791 0.959 . S
H777 C791 0.961 . S
H778 C792 0.960 . S
H779 C792 0.961 . S
H780 C792 0.959 . S
H781 C795 0.929 . S
H782 C796 0.931 . S
H783 C798 0.930 . S
C784 H772 0.930 . S
C784 C785 1.399 . S
C784 C789 1.399 . S
C785 C784 1.399 . S
C785 C786 1.376 . S
C786 H773 0.930 . S
C786 C785 1.376 . S
C786 C787 1.388 . S
C787 H774 0.930 . S
C787 C786 1.388 . S
C787 C788 1.390 . S
C788 C787 1.390 . S
C788 C789 1.394 . S
C788 C794 1.465 . S
C789 C784 1.399 . S
C789 C788 1.394 . S
C789 C790 1.516 . S
C790 C789 1.516 . S
C790 C791 1.502 . S
C790 C792 1.561 . S
C790 C793 1.526 . S
C791 H775 0.959 . S
C791 H776 0.959 . S
C791 H777 0.961 . S
C791 C790 1.502 . S
C792 H778 0.960 . S
C792 H779 0.961 . S
C792 H780 0.959 . S
C792 C790 1.561 . S
C793 C790 1.526 . S
C793 C794 1.396 . S
C793 C798 1.390 . S
C794 C788 1.465 . S
C794 C793 1.396 . S
C794 C795 1.399 . S
C795 H781 0.929 . S
C795 C794 1.399 . S
C795 C796 1.385 . S
C796 H782 0.931 . S
C796 C795 1.385 . S
C796 C797 1.389 . S
C797 C796 1.389 . S
C797 C798 1.387 . S
C798 H783 0.930 . S
C798 C793 1.390 . S
C798 C797 1.387 . S
H799 C811 0.930 . S
H800 C813 0.930 . S
H801 C814 0.930 . S
H802 C818 0.959 . S
H803 C818 0.959 1_556 S
H804 C818 0.961 . S
H805 C819 0.928 1_554 S
H806 C819 0.988 . S
H807 C819 0.969 . S
H808 C822 0.929 . S
H809 C823 0.931 . S
H810 C825 0.930 . S
C811 H799 0.930 . S
C811 C812 1.399 . S
C811 C816 1.399 . S
C812 C811 1.399 . S
C812 C813 1.376 . S
C813 H800 0.930 . S
C813 C812 1.376 . S
C813 C814 1.388 . S
C814 H801 0.930 . S
C814 C813 1.388 . S
C814 C815 1.390 . S
C815 C814 1.390 . S
C815 C816 1.394 . S
C815 C821 1.465 1_554 S
C816 C811 1.399 . S
C816 C815 1.394 . S
C816 C817 1.516 . S
C817 C816 1.516 . S
C817 C818 1.502 . S
C817 C819 1.558 1_554 S
C817 C820 1.526 1_554 S
C818 H802 0.959 . S
C818 H803 0.959 1_554 S
C818 H804 0.961 . S
C818 C817 1.502 . S
C819 H805 0.928 1_556 S
C819 H806 0.988 . S
C819 H807 0.969 . S
C819 C817 1.558 1_556 S
C820 C817 1.526 1_556 S
C820 C821 1.396 . S
C820 C825 1.390 . S
C821 C815 1.465 1_556 S
C821 C820 1.396 . S
C821 C822 1.399 . S
C822 H808 0.929 . S
C822 C821 1.399 . S
C822 C823 1.385 . S
C823 H809 0.931 . S
C823 C822 1.385 . S
C823 C824 1.389 . S
C824 C823 1.389 . S
C824 C825 1.387 . S
C825 H810 0.930 . S
C825 C820 1.390 . S
C825 C824 1.387 . S
H826 C838 0.930 . S
H827 C840 0.930 . S
H828 C841 0.930 . S
H829 C845 0.959 . S
H830 C845 0.959 . S
H831 C845 0.961 . S
H832 C846 0.960 . S
H833 C846 0.961 . S
H834 C846 0.959 . S
H835 C849 0.929 . S
H836 C850 0.931 . S
H837 C852 0.930 . S
C838 H826 0.930 . S
C838 C839 1.399 . S
C838 C843 1.399 . S
C839 C838 1.399 . S
C839 C840 1.376 . S
C840 H827 0.930 . S
C840 C839 1.376 . S
C840 C841 1.388 . S
C841 H828 0.930 . S
C841 C840 1.388 . S
C841 C842 1.390 . S
C842 C841 1.390 . S
C842 C843 1.394 . S
C842 C848 1.465 . S
C843 C838 1.399 . S
C843 C842 1.394 . S
C843 C844 1.516 . S
C844 C843 1.516 . S
C844 C845 1.502 . S
C844 C846 1.561 . S
C844 C847 1.526 . S
C845 H829 0.959 . S
C845 H830 0.959 . S
C845 H831 0.961 . S
C845 C844 1.502 . S
C846 H832 0.960 . S
C846 H833 0.961 . S
C846 H834 0.959 . S
C846 C844 1.561 . S
C847 C844 1.526 . S
C847 C848 1.396 . S
C847 C852 1.390 . S
C848 C842 1.465 . S
C848 C847 1.396 . S
C848 C849 1.399 . S
C849 H835 0.929 . S
C849 C848 1.399 . S
C849 C850 1.385 . S
C850 H836 0.931 . S
C850 C849 1.385 . S
C850 C851 1.389 . S
C851 C850 1.389 . S
C851 C852 1.387 . S
C852 H837 0.930 . S
C852 C847 1.390 . S
C852 C851 1.387 . S
H853 C865 0.930 . S
H854 C867 0.930 . S
H855 C868 0.930 . S
H856 C872 0.959 . S
H857 C872 0.959 . S
H858 C872 0.961 . S
H859 C873 0.960 . S
H860 C873 0.961 . S
H861 C873 0.959 . S
H862 C876 0.929 . S
H863 C877 0.931 . S
H864 C879 0.930 . S
C865 H853 0.930 . S
C865 C866 1.399 . S
C865 C870 1.399 . S
C866 C865 1.399 . S
C866 C867 1.376 . S
C867 H854 0.930 . S
C867 C866 1.376 . S
C867 C868 1.388 . S
C868 H855 0.930 . S
C868 C867 1.388 . S
C868 C869 1.390 . S
C869 C868 1.390 . S
C869 C870 1.394 . S
C869 C875 1.465 . S
C870 C865 1.399 . S
C870 C869 1.394 . S
C870 C871 1.516 . S
C871 C870 1.516 . S
C871 C872 1.502 . S
C871 C873 1.561 . S
C871 C874 1.526 . S
C872 H856 0.959 . S
C872 H857 0.959 . S
C872 H858 0.961 . S
C872 C871 1.502 . S
C873 H859 0.960 . S
C873 H860 0.961 . S
C873 H861 0.959 . S
C873 C871 1.561 . S
C874 C871 1.526 . S
C874 C875 1.396 . S
C874 C879 1.390 . S
C875 C869 1.465 . S
C875 C874 1.396 . S
C875 C876 1.399 . S
C876 H862 0.929 . S
C876 C875 1.399 . S
C876 C877 1.385 . S
C877 H863 0.931 . S
C877 C876 1.385 . S
C877 C878 1.389 . S
C878 C877 1.389 . S
C878 C879 1.387 . S
C879 H864 0.930 . S
C879 C874 1.390 . S
C879 C878 1.387 . S
H880 C892 0.930 . S
H881 C894 0.930 . S
H882 C895 0.930 . S
H883 C899 0.959 . S
H884 C899 0.959 . S
H885 C899 0.961 . S
H886 C900 0.960 . S
H887 C900 0.961 . S
H888 C900 0.959 . S
H889 C903 0.929 . S
H890 C904 0.931 . S
H891 C906 0.930 . S
C892 H880 0.930 . S
C892 C893 1.399 . S
C892 C897 1.399 . S
C893 C892 1.399 . S
C893 C894 1.376 . S
C894 H881 0.930 . S
C894 C893 1.376 . S
C894 C895 1.388 . S
C895 H882 0.930 . S
C895 C894 1.388 . S
C895 C896 1.390 . S
C896 C895 1.390 . S
C896 C897 1.394 . S
C896 C902 1.465 . S
C897 C892 1.399 . S
C897 C896 1.394 . S
C897 C898 1.516 . S
C898 C897 1.516 . S
C898 C899 1.502 . S
C898 C900 1.561 . S
C898 C901 1.526 . S
C899 H883 0.959 . S
C899 H884 0.959 . S
C899 H885 0.961 . S
C899 C898 1.502 . S
C900 H886 0.960 . S
C900 H887 0.961 . S
C900 H888 0.959 . S
C900 C898 1.561 . S
C901 C898 1.526 . S
C901 C902 1.396 . S
C901 C906 1.390 . S
C902 C896 1.465 . S
C902 C901 1.396 . S
C902 C903 1.399 . S
C903 H889 0.929 . S
C903 C902 1.399 . S
C903 C904 1.385 . S
C904 H890 0.931 . S
C904 C903 1.385 . S
C904 C905 1.389 . S
C905 C904 1.389 . S
C905 C906 1.387 . S
C906 H891 0.930 . S
C906 C901 1.390 . S
C906 C905 1.387 . S
H907 C919 0.930 . S
H908 C921 0.930 . S
H909 C922 0.930 . S
H910 C926 0.959 . S
H911 C926 0.959 . S
H912 C926 0.961 . S
H913 C927 0.960 . S
H914 C927 0.961 . S
H915 C927 0.959 . S
H916 C930 0.929 . S
H917 C931 0.931 . S
H918 C933 0.930 . S
C919 H907 0.930 . S
C919 C920 1.399 . S
C919 C924 1.399 . S
C920 C919 1.399 . S
C920 C921 1.376 . S
C921 H908 0.930 . S
C921 C920 1.376 . S
C921 C922 1.388 . S
C922 H909 0.930 . S
C922 C921 1.388 . S
C922 C923 1.390 . S
C923 C922 1.390 . S
C923 C924 1.394 . S
C923 C929 1.465 . S
C924 C919 1.399 . S
C924 C923 1.394 . S
C924 C925 1.516 . S
C925 C924 1.516 . S
C925 C926 1.502 . S
C925 C927 1.561 . S
C925 C928 1.526 . S
C926 H910 0.959 . S
C926 H911 0.959 . S
C926 H912 0.961 . S
C926 C925 1.502 . S
C927 H913 0.960 . S
C927 H914 0.961 . S
C927 H915 0.959 . S
C927 C925 1.561 . S
C928 C925 1.526 . S
C928 C929 1.396 . S
C928 C933 1.390 . S
C929 C923 1.465 . S
C929 C928 1.396 . S
C929 C930 1.399 . S
C930 H916 0.929 . S
C930 C929 1.399 . S
C930 C931 1.385 . S
C931 H917 0.931 . S
C931 C930 1.385 . S
C931 C932 1.389 . S
C932 C931 1.389 . S
C932 C933 1.387 . S
C933 H918 0.930 . S
C933 C928 1.390 . S
C933 C932 1.387 . S
H934 C946 0.930 . S
H935 C948 0.930 . S
H936 C949 0.930 . S
H937 C953 0.959 . S
H938 C953 0.959 . S
H939 C953 0.961 . S
H940 C954 0.960 . S
H941 C954 0.961 . S
H942 C954 0.959 . S
H943 C957 0.929 . S
H944 C958 0.931 . S
H945 C960 0.930 . S
C946 H934 0.930 . S
C946 C947 1.399 . S
C946 C951 1.399 . S
C947 C946 1.399 . S
C947 C948 1.376 . S
C948 H935 0.930 . S
C948 C947 1.376 . S
C948 C949 1.388 . S
C949 H936 0.930 . S
C949 C948 1.388 . S
C949 C950 1.390 . S
C950 C949 1.390 . S
C950 C951 1.394 . S
C950 C956 1.465 . S
C951 C946 1.399 . S
C951 C950 1.394 . S
C951 C952 1.516 . S
C952 C951 1.516 . S
C952 C953 1.502 . S
C952 C954 1.561 . S
C952 C955 1.526 . S
C953 H937 0.959 . S
C953 H938 0.959 . S
C953 H939 0.961 . S
C953 C952 1.502 . S
C954 H940 0.960 . S
C954 H941 0.961 . S
C954 H942 0.959 . S
C954 C952 1.561 . S
C955 C952 1.526 . S
C955 C956 1.396 . S
C955 C960 1.390 . S
C956 C950 1.465 . S
C956 C955 1.396 . S
C956 C957 1.399 . S
C957 H943 0.929 . S
C957 C956 1.399 . S
C957 C958 1.385 . S
C958 H944 0.931 . S
C958 C957 1.385 . S
C958 C959 1.389 . S
C959 C958 1.389 . S
C959 C960 1.387 . S
C960 H945 0.930 . S
C960 C955 1.390 . S
C960 C959 1.387 . S
H961 C973 0.930 . S
H962 C975 0.930 . S
H963 C976 0.930 . S
H964 C980 0.959 . S
H965 C980 0.959 . S
H966 C980 0.961 . S
H967 C981 0.960 . S
H968 C981 0.961 . S
H969 C981 0.959 . S
H970 C984 0.929 . S
H971 C985 0.931 . S
H972 C987 0.930 . S
C973 H961 0.930 . S
C973 C974 1.399 . S
C973 C978 1.399 . S
C974 C973 1.399 . S
C974 C975 1.376 . S
C975 H962 0.930 . S
C975 C974 1.376 . S
C975 C976 1.388 . S
C976 H963 0.930 . S
C976 C975 1.388 . S
C976 C977 1.390 . S
C977 C976 1.390 . S
C977 C978 1.394 . S
C977 C983 1.465 . S
C978 C973 1.399 . S
C978 C977 1.394 . S
C978 C979 1.516 . S
C979 C978 1.516 . S
C979 C980 1.502 . S
C979 C981 1.561 . S
C979 C982 1.526 . S
C980 H964 0.959 . S
C980 H965 0.959 . S
C980 H966 0.961 . S
C980 C979 1.502 . S
C981 H967 0.960 . S
C981 H968 0.961 . S
C981 H969 0.959 . S
C981 C979 1.561 . S
C982 C979 1.526 . S
C982 C983 1.396 . S
C982 C987 1.390 . S
C983 C977 1.465 . S
C983 C982 1.396 . S
C983 C984 1.399 . S
C984 H970 0.929 . S
C984 C983 1.399 . S
C984 C985 1.385 . S
C985 H971 0.931 . S
C985 C984 1.385 . S
C985 C986 1.389 . S
C986 C985 1.389 . S
C986 C987 1.387 . S
C987 H972 0.930 . S
C987 C982 1.390 . S
C987 C986 1.387 . S
H988 C1000 0.930 . S
H989 C1002 0.930 . S
H990 C1003 0.930 . S
H991 C1007 0.959 . S
H992 C1007 0.959 . S
H993 C1007 0.961 . S
H994 C1008 0.960 . S
H995 C1008 0.961 . S
H996 C1008 0.959 . S
H997 C1011 0.929 . S
H998 C1012 0.931 . S
H999 C1014 0.930 . S
C1000 H988 0.930 . S
C1000 C1001 1.399 . S
C1000 C1005 1.399 . S
C1001 C1000 1.399 . S
C1001 C1002 1.376 . S
C1002 H989 0.930 . S
C1002 C1001 1.376 . S
C1002 C1003 1.388 . S
C1003 H990 0.930 . S
C1003 C1002 1.388 . S
C1003 C1004 1.390 . S
C1004 C1003 1.390 . S
C1004 C1005 1.394 . S
C1004 C1010 1.465 . S
C1005 C1000 1.399 . S
C1005 C1004 1.394 . S
C1005 C1006 1.516 . S
C1006 C1005 1.516 . S
C1006 C1007 1.502 . S
C1006 C1008 1.561 . S
C1006 C1009 1.526 . S
C1007 H991 0.959 . S
C1007 H992 0.959 . S
C1007 H993 0.961 . S
C1007 C1006 1.502 . S
C1008 H994 0.960 . S
C1008 H995 0.961 . S
C1008 H996 0.959 . S
C1008 C1006 1.561 . S
C1009 C1006 1.526 . S
C1009 C1010 1.396 . S
C1009 C1014 1.390 . S
C1010 C1004 1.465 . S
C1010 C1009 1.396 . S
C1010 C1011 1.399 . S
C1011 H997 0.929 . S
C1011 C1010 1.399 . S
C1011 C1012 1.385 . S
C1012 H998 0.931 . S
C1012 C1011 1.385 . S
C1012 C1013 1.389 . S
C1013 C1012 1.389 . S
C1013 C1014 1.387 . S
C1014 H999 0.930 . S
C1014 C1009 1.390 . S
C1014 C1013 1.387 . S
H1015 C1027 0.930 . S
H1016 C1029 0.930 . S
H1017 C1030 0.930 . S
H1018 C1034 0.959 . S
H1019 C1034 0.959 . S
H1020 C1034 0.961 . S
H1021 C1035 0.960 . S
H1022 C1035 0.961 . S
H1023 C1035 0.959 . S
H1024 C1038 0.929 . S
H1025 C1039 0.931 . S
H1026 C1041 0.930 . S
C1027 H1015 0.930 . S
C1027 C1028 1.399 . S
C1027 C1032 1.399 . S
C1028 C1027 1.399 . S
C1028 C1029 1.376 . S
C1029 H1016 0.930 . S
C1029 C1028 1.376 . S
C1029 C1030 1.388 . S
C1030 H1017 0.930 . S
C1030 C1029 1.388 . S
C1030 C1031 1.390 . S
C1031 C1030 1.390 . S
C1031 C1032 1.394 . S
C1031 C1037 1.465 . S
C1032 C1027 1.399 . S
C1032 C1031 1.394 . S
C1032 C1033 1.516 . S
C1033 C1032 1.516 . S
C1033 C1034 1.502 . S
C1033 C1035 1.561 . S
C1033 C1036 1.526 . S
C1034 H1018 0.959 . S
C1034 H1019 0.959 . S
C1034 H1020 0.961 . S
C1034 C1033 1.502 . S
C1035 H1021 0.960 . S
C1035 H1022 0.961 . S
C1035 H1023 0.959 . S
C1035 C1033 1.561 . S
C1036 C1033 1.526 . S
C1036 C1037 1.396 . S
C1036 C1041 1.390 . S
C1037 C1031 1.465 . S
C1037 C1036 1.396 . S
C1037 C1038 1.399 . S
C1038 H1024 0.929 . S
C1038 C1037 1.399 . S
C1038 C1039 1.385 . S
C1039 H1025 0.931 . S
C1039 C1038 1.385 . S
C1039 C1040 1.389 . S
C1040 C1039 1.389 . S
C1040 C1041 1.387 . S
C1041 H1026 0.930 . S
C1041 C1036 1.390 . S
C1041 C1040 1.387 . S
H1042 C1054 0.930 . S
H1043 C1056 0.930 . S
H1044 C1057 0.930 . S
H1045 C1061 0.959 . S
H1046 C1061 0.959 . S
H1047 C1061 0.961 . S
H1048 C1062 0.960 . S
H1049 C1062 0.961 . S
H1050 C1062 0.959 . S
H1051 C1065 0.929 . S
H1052 C1066 0.933 1_545 S
H1053 C1068 0.930 . S
C1054 H1042 0.930 . S
C1054 C1055 1.399 . S
C1054 C1059 1.399 . S
C1055 C1054 1.399 . S
C1055 C1056 1.376 . S
C1056 H1043 0.930 . S
C1056 C1055 1.376 . S
C1056 C1057 1.388 . S
C1057 H1044 0.930 . S
C1057 C1056 1.388 . S
C1057 C1058 1.390 . S
C1058 C1057 1.390 . S
C1058 C1059 1.394 . S
C1058 C1064 1.465 . S
C1059 C1054 1.399 . S
C1059 C1058 1.394 . S
C1059 C1060 1.516 . S
C1060 C1059 1.516 . S
C1060 C1061 1.502 . S
C1060 C1062 1.561 . S
C1060 C1063 1.526 . S
C1061 H1045 0.959 . S
C1061 H1046 0.959 . S
C1061 H1047 0.961 . S
C1061 C1060 1.502 . S
C1062 H1048 0.960 . S
C1062 H1049 0.961 . S
C1062 H1050 0.959 . S
C1062 C1060 1.561 . S
C1063 C1060 1.526 . S
C1063 C1064 1.396 . S
C1063 C1068 1.390 . S
C1064 C1058 1.465 . S
C1064 C1063 1.396 . S
C1064 C1065 1.399 . S
C1065 H1051 0.929 . S
C1065 C1064 1.399 . S
C1065 C1066 1.385 . S
C1066 H1052 0.933 1_565 S
C1066 C1065 1.385 . S
C1066 C1067 1.389 . S
C1067 C1066 1.389 . S
C1067 C1068 1.387 . S
C1068 H1053 0.930 . S
C1068 C1063 1.390 . S
C1068 C1067 1.387 . S
H1069 C1081 0.930 . S
H1070 C1083 0.930 . S
H1071 C1084 0.930 . S
H1072 C1088 0.959 . S
H1073 C1088 0.959 . S
H1074 C1088 0.961 . S
H1075 C1089 0.960 . S
H1076 C1089 0.961 . S
H1077 C1089 0.959 . S
H1078 C1092 0.929 . S
H1079 C1093 0.931 . S
H1080 C1095 0.930 . S
C1081 H1069 0.930 . S
C1081 C1082 1.399 . S
C1081 C1086 1.399 . S
C1082 C1081 1.399 . S
C1082 C1083 1.376 . S
C1083 H1070 0.930 . S
C1083 C1082 1.376 . S
C1083 C1084 1.388 . S
C1084 H1071 0.930 . S
C1084 C1083 1.388 . S
C1084 C1085 1.390 . S
C1085 C1084 1.390 . S
C1085 C1086 1.394 . S
C1085 C1091 1.465 . S
C1086 C1081 1.399 . S
C1086 C1085 1.394 . S
C1086 C1087 1.516 . S
C1087 C1086 1.516 . S
C1087 C1088 1.502 . S
C1087 C1089 1.561 . S
C1087 C1090 1.526 . S
C1088 H1072 0.959 . S
C1088 H1073 0.959 . S
C1088 H1074 0.961 . S
C1088 C1087 1.502 . S
C1089 H1075 0.960 . S
C1089 H1076 0.961 . S
C1089 H1077 0.959 . S
C1089 C1087 1.561 . S
C1090 C1087 1.526 . S
C1090 C1091 1.396 . S
C1090 C1095 1.390 . S
C1091 C1085 1.465 . S
C1091 C1090 1.396 . S
C1091 C1092 1.399 . S
C1092 H1078 0.929 . S
C1092 C1091 1.399 . S
C1092 C1093 1.385 . S
C1093 H1079 0.931 . S
C1093 C1092 1.385 . S
C1093 C1094 1.389 . S
C1094 C1093 1.389 . S
C1094 C1095 1.387 . S
C1095 H1080 0.930 . S
C1095 C1090 1.390 . S
C1095 C1094 1.387 . S
H1096 C1108 0.930 . S
H1097 C1110 0.930 . S
H1098 C1111 0.930 . S
H1099 C1115 0.959 . S
H1100 C1115 0.959 . S
H1101 C1115 0.961 . S
H1102 C1116 0.960 . S
H1103 C1116 0.961 . S
H1104 C1116 0.959 . S
H1105 C1119 0.929 . S
H1106 C1120 0.931 . S
H1107 C1122 0.930 . S
C1108 H1096 0.930 . S
C1108 C1109 1.399 . S
C1108 C1113 1.399 . S
C1109 C1108 1.399 . S
C1109 C1110 1.376 . S
C1110 H1097 0.930 . S
C1110 C1109 1.376 . S
C1110 C1111 1.388 . S
C1111 H1098 0.930 . S
C1111 C1110 1.388 . S
C1111 C1112 1.390 . S
C1112 C1111 1.390 . S
C1112 C1113 1.394 . S
C1112 C1118 1.465 . S
C1113 C1108 1.399 . S
C1113 C1112 1.394 . S
C1113 C1114 1.516 . S
C1114 C1113 1.516 . S
C1114 C1115 1.502 . S
C1114 C1116 1.561 . S
C1114 C1117 1.526 . S
C1115 H1099 0.959 . S
C1115 H1100 0.959 . S
C1115 H1101 0.961 . S
C1115 C1114 1.502 . S
C1116 H1102 0.960 . S
C1116 H1103 0.961 . S
C1116 H1104 0.959 . S
C1116 C1114 1.561 . S
C1117 C1114 1.526 . S
C1117 C1118 1.396 . S
C1117 C1122 1.390 . S
C1118 C1112 1.465 . S
C1118 C1117 1.396 . S
C1118 C1119 1.399 . S
C1119 H1105 0.929 . S
C1119 C1118 1.399 . S
C1119 C1120 1.385 . S
C1120 H1106 0.931 . S
C1120 C1119 1.385 . S
C1120 C1121 1.389 . S
C1121 C1120 1.389 . S
C1121 C1122 1.387 . S
C1122 H1107 0.930 . S
C1122 C1117 1.390 . S
C1122 C1121 1.387 . S
H1123 C1135 0.930 . S
H1124 C1137 0.930 . S
H1125 C1138 0.930 . S
H1126 C1142 0.959 . S
H1127 C1142 0.959 . S
H1128 C1142 0.961 . S
H1129 C1143 0.960 . S
H1130 C1143 0.961 . S
H1131 C1143 0.959 . S
H1132 C1146 0.929 . S
H1133 C1147 0.931 . S
H1134 C1149 0.930 . S
C1135 H1123 0.930 . S
C1135 C1136 1.399 . S
C1135 C1140 1.399 . S
C1136 C1135 1.399 . S
C1136 C1137 1.376 . S
C1137 H1124 0.930 . S
C1137 C1136 1.376 . S
C1137 C1138 1.388 . S
C1138 H1125 0.930 . S
C1138 C1137 1.388 . S
C1138 C1139 1.390 . S
C1139 C1138 1.390 . S
C1139 C1140 1.394 . S
C1139 C1145 1.465 . S
C1140 C1135 1.399 . S
C1140 C1139 1.394 . S
C1140 C1141 1.516 . S
C1141 C1140 1.516 . S
C1141 C1142 1.502 . S
C1141 C1143 1.561 . S
C1141 C1144 1.526 . S
C1142 H1126 0.959 . S
C1142 H1127 0.959 . S
C1142 H1128 0.961 . S
C1142 C1141 1.502 . S
C1143 H1129 0.960 . S
C1143 H1130 0.961 . S
C1143 H1131 0.959 . S
C1143 C1141 1.561 . S
C1144 C1141 1.526 . S
C1144 C1145 1.396 . S
C1144 C1149 1.390 . S
C1145 C1139 1.465 . S
C1145 C1144 1.396 . S
C1145 C1146 1.399 . S
C1146 H1132 0.929 . S
C1146 C1145 1.399 . S
C1146 C1147 1.385 . S
C1147 H1133 0.931 . S
C1147 C1146 1.385 . S
C1147 C1148 1.389 . S
C1148 C1147 1.389 . S
C1148 C1149 1.387 . S
C1149 H1134 0.930 . S
C1149 C1144 1.390 . S
C1149 C1148 1.387 . S
H1150 C1162 0.930 . S
H1151 C1164 0.930 . S
H1152 C1165 0.930 . S
H1153 C1169 0.959 . S
H1154 C1169 0.959 . S
H1155 C1169 0.961 . S
H1156 C1170 0.960 . S
H1157 C1170 0.961 . S
H1158 C1170 0.959 . S
H1159 C1173 0.929 . S
H1160 C1174 0.931 . S
H1161 C1176 0.930 . S
C1162 H1150 0.930 . S
C1162 C1163 1.399 . S
C1162 C1167 1.399 . S
C1163 C1162 1.399 . S
C1163 C1164 1.376 . S
C1164 H1151 0.930 . S
C1164 C1163 1.376 . S
C1164 C1165 1.388 . S
C1165 H1152 0.930 . S
C1165 C1164 1.388 . S
C1165 C1166 1.390 . S
C1166 C1165 1.390 . S
C1166 C1167 1.394 . S
C1166 C1172 1.465 . S
C1167 C1162 1.399 . S
C1167 C1166 1.394 . S
C1167 C1168 1.516 . S
C1168 C1167 1.516 . S
C1168 C1169 1.502 . S
C1168 C1170 1.561 . S
C1168 C1171 1.526 . S
C1169 H1153 0.959 . S
C1169 H1154 0.959 . S
C1169 H1155 0.961 . S
C1169 C1168 1.502 . S
C1170 H1156 0.960 . S
C1170 H1157 0.961 . S
C1170 H1158 0.959 . S
C1170 C1168 1.561 . S
C1171 C1168 1.526 . S
C1171 C1172 1.396 . S
C1171 C1176 1.390 . S
C1172 C1166 1.465 . S
C1172 C1171 1.396 . S
C1172 C1173 1.399 . S
C1173 H1159 0.929 . S
C1173 C1172 1.399 . S
C1173 C1174 1.385 . S
C1174 H1160 0.931 . S
C1174 C1173 1.385 . S
C1174 C1175 1.389 . S
C1175 C1174 1.389 . S
C1175 C1176 1.387 . S
C1176 H1161 0.930 . S
C1176 C1171 1.390 . S
C1176 C1175 1.387 . S
H1177 C1189 0.930 . S
H1178 C1191 0.930 . S
H1179 C1192 0.930 . S
H1180 C1196 0.959 . S
H1181 C1196 0.959 . S
H1182 C1196 0.961 . S
H1183 C1197 0.960 . S
H1184 C1197 0.961 . S
H1185 C1197 0.959 . S
H1186 C1200 0.929 . S
H1187 C1201 0.931 . S
H1188 C1203 0.930 . S
C1189 H1177 0.930 . S
C1189 C1190 1.399 . S
C1189 C1194 1.399 . S
C1190 C1189 1.399 . S
C1190 C1191 1.376 . S
C1191 H1178 0.930 . S
C1191 C1190 1.376 . S
C1191 C1192 1.388 . S
C1192 H1179 0.930 . S
C1192 C1191 1.388 . S
C1192 C1193 1.390 . S
C1193 C1192 1.390 . S
C1193 C1194 1.394 . S
C1193 C1199 1.465 . S
C1194 C1189 1.399 . S
C1194 C1193 1.394 . S
C1194 C1195 1.516 . S
C1195 C1194 1.516 . S
C1195 C1196 1.502 . S
C1195 C1197 1.561 . S
C1195 C1198 1.526 . S
C1196 H1180 0.959 . S
C1196 H1181 0.959 . S
C1196 H1182 0.961 . S
C1196 C1195 1.502 . S
C1197 H1183 0.960 . S
C1197 H1184 0.961 . S
C1197 H1185 0.959 . S
C1197 C1195 1.561 . S
C1198 C1195 1.526 . S
C1198 C1199 1.396 . S
C1198 C1203 1.390 . S
C1199 C1193 1.465 . S
C1199 C1198 1.396 . S
C1199 C1200 1.399 . S
C1200 H1186 0.929 . S
C1200 C1199 1.399 . S
C1200 C1201 1.385 . S
C1201 H1187 0.931 . S
C1201 C1200 1.385 . S
C1201 C1202 1.389 . S
C1202 C1201 1.389 . S
C1202 C1203 1.387 . S
C1203 H1188 0.930 . S
C1203 C1198 1.390 . S
C1203 C1202 1.387 . S
H1204 C1216 0.930 . S
H1205 C1218 0.930 . S
H1206 C1219 0.930 . S
H1207 C1223 0.959 . S
H1208 C1223 0.959 . S
H1209 C1223 0.961 . S
H1210 C1224 0.960 . S
H1211 C1224 0.961 . S
H1212 C1224 0.959 . S
H1213 C1227 0.929 . S
H1214 C1228 0.931 . S
H1215 C1230 0.930 . S
C1216 H1204 0.930 . S
C1216 C1217 1.399 . S
C1216 C1221 1.399 . S
C1217 C1216 1.399 . S
C1217 C1218 1.376 . S
C1218 H1205 0.930 . S
C1218 C1217 1.376 . S
C1218 C1219 1.388 . S
C1219 H1206 0.930 . S
C1219 C1218 1.388 . S
C1219 C1220 1.390 . S
C1220 C1219 1.390 . S
C1220 C1221 1.394 . S
C1220 C1226 1.465 . S
C1221 C1216 1.399 . S
C1221 C1220 1.394 . S
C1221 C1222 1.516 . S
C1222 C1221 1.516 . S
C1222 C1223 1.502 . S
C1222 C1224 1.561 . S
C1222 C1225 1.526 . S
C1223 H1207 0.959 . S
C1223 H1208 0.959 . S
C1223 H1209 0.961 . S
C1223 C1222 1.502 . S
C1224 H1210 0.960 . S
C1224 H1211 0.961 . S
C1224 H1212 0.959 . S
C1224 C1222 1.561 . S
C1225 C1222 1.526 . S
C1225 C1226 1.396 . S
C1225 C1230 1.390 . S
C1226 C1220 1.465 . S
C1226 C1225 1.396 . S
C1226 C1227 1.399 . S
C1227 H1213 0.929 . S
C1227 C1226 1.399 . S
C1227 C1228 1.385 . S
C1228 H1214 0.931 . S
C1228 C1227 1.385 . S
C1228 C1229 1.389 . S
C1229 C1228 1.389 . S
C1229 C1230 1.387 . S
C1230 H1215 0.930 . S
C1230 C1225 1.390 . S
C1230 C1229 1.387 . S
H1231 C1243 0.930 . S
H1232 C1245 0.930 . S
H1233 C1246 0.930 . S
H1234 C1250 0.959 . S
H1235 C1250 0.959 . S
H1236 C1250 0.961 . S
H1237 C1251 0.960 . S
H1238 C1251 0.961 . S
H1239 C1251 0.959 . S
H1240 C1254 0.929 . S
H1241 C1255 0.931 . S
H1242 C1257 0.930 . S
C1243 H1231 0.930 . S
C1243 C1244 1.399 . S
C1243 C1248 1.399 . S
C1244 C1243 1.399 . S
C1244 C1245 1.376 . S
C1245 H1232 0.930 . S
C1245 C1244 1.376 . S
C1245 C1246 1.388 . S
C1246 H1233 0.930 . S
C1246 C1245 1.388 . S
C1246 C1247 1.390 . S
C1247 C1246 1.390 . S
C1247 C1248 1.394 . S
C1247 C1253 1.465 . S
C1248 C1243 1.399 . S
C1248 C1247 1.394 . S
C1248 C1249 1.516 . S
C1249 C1248 1.516 . S
C1249 C1250 1.502 . S
C1249 C1251 1.561 . S
C1249 C1252 1.526 . S
C1250 H1234 0.959 . S
C1250 H1235 0.959 . S
C1250 H1236 0.961 . S
C1250 C1249 1.502 . S
C1251 H1237 0.960 . S
C1251 H1238 0.961 . S
C1251 H1239 0.959 . S
C1251 C1249 1.561 . S
C1252 C1249 1.526 . S
C1252 C1253 1.396 . S
C1252 C1257 1.390 . S
C1253 C1247 1.465 . S
C1253 C1252 1.396 . S
C1253 C1254 1.399 . S
C1254 H1240 0.929 . S
C1254 C1253 1.399 . S
C1254 C1255 1.385 . S
C1255 H1241 0.931 . S
C1255 C1254 1.385 . S
C1255 C1256 1.389 . S
C1256 C1255 1.389 . S
C1256 C1257 1.387 . S
C1257 H1242 0.930 . S
C1257 C1252 1.390 . S
C1257 C1256 1.387 . S
H1258 C1270 0.930 . S
H1259 C1272 0.930 . S
H1260 C1273 0.930 . S
H1261 C1277 0.959 . S
H1262 C1277 0.959 . S
H1263 C1277 0.961 . S
H1264 C1278 0.960 . S
H1265 C1278 0.961 . S
H1266 C1278 0.959 . S
H1267 C1281 0.929 . S
H1268 C1282 0.931 . S
H1269 C1284 0.930 . S
C1270 H1258 0.930 . S
C1270 C1271 1.399 . S
C1270 C1275 1.399 . S
C1271 C1270 1.399 . S
C1271 C1272 1.376 . S
C1272 H1259 0.930 . S
C1272 C1271 1.376 . S
C1272 C1273 1.388 . S
C1273 H1260 0.930 . S
C1273 C1272 1.388 . S
C1273 C1274 1.390 . S
C1274 C1273 1.390 . S
C1274 C1275 1.394 . S
C1274 C1280 1.465 . S
C1275 C1270 1.399 . S
C1275 C1274 1.394 . S
C1275 C1276 1.516 . S
C1276 C1275 1.516 . S
C1276 C1277 1.502 . S
C1276 C1278 1.561 . S
C1276 C1279 1.526 . S
C1277 H1261 0.959 . S
C1277 H1262 0.959 . S
C1277 H1263 0.961 . S
C1277 C1276 1.502 . S
C1278 H1264 0.960 . S
C1278 H1265 0.961 . S
C1278 H1266 0.959 . S
C1278 C1276 1.561 . S
C1279 C1276 1.526 . S
C1279 C1280 1.396 . S
C1279 C1284 1.390 . S
C1280 C1274 1.465 . S
C1280 C1279 1.396 . S
C1280 C1281 1.399 . S
C1281 H1267 0.929 . S
C1281 C1280 1.399 . S
C1281 C1282 1.385 . S
C1282 H1268 0.931 . S
C1282 C1281 1.385 . S
C1282 C1283 1.389 . S
C1283 C1282 1.389 . S
C1283 C1284 1.387 . S
C1284 H1269 0.930 . S
C1284 C1279 1.390 . S
C1284 C1283 1.387 . S
H1285 C1297 0.930 . S
H1286 C1299 0.930 . S
H1287 C1300 0.930 . S
H1288 C1304 0.959 . S
H1289 C1304 0.959 . S
H1290 C1304 0.961 . S
H1291 C1305 0.960 . S
H1292 C1305 0.961 . S
H1293 C1305 0.959 . S
H1294 C1308 0.929 . S
H1295 C1309 0.931 . S
H1296 C1311 0.930 . S
C1297 H1285 0.930 . S
C1297 C1298 1.399 . S
C1297 C1302 1.399 . S
C1298 C1297 1.399 . S
C1298 C1299 1.376 . S
C1299 H1286 0.930 . S
C1299 C1298 1.376 . S
C1299 C1300 1.388 . S
C1300 H1287 0.930 . S
C1300 C1299 1.388 . S
C1300 C1301 1.390 . S
C1301 C1300 1.390 . S
C1301 C1302 1.394 . S
C1301 C1307 1.465 . S
C1302 C1297 1.399 . S
C1302 C1301 1.394 . S
C1302 C1303 1.516 . S
C1303 C1302 1.516 . S
C1303 C1304 1.502 . S
C1303 C1305 1.561 . S
C1303 C1306 1.526 . S
C1304 H1288 0.959 . S
C1304 H1289 0.959 . S
C1304 H1290 0.961 . S
C1304 C1303 1.502 . S
C1305 H1291 0.960 . S
C1305 H1292 0.961 . S
C1305 H1293 0.959 . S
C1305 C1303 1.561 . S
C1306 C1303 1.526 . S
C1306 C1307 1.396 . S
C1306 C1311 1.390 . S
C1307 C1301 1.465 . S
C1307 C1306 1.396 . S
C1307 C1308 1.399 . S
C1308 H1294 0.929 . S
C1308 C1307 1.399 . S
C1308 C1309 1.385 . S
C1309 H1295 0.931 . S
C1309 C1308 1.385 . S
C1309 C1310 1.389 . S
C1310 C1309 1.389 . S
C1310 C1311 1.387 . S
C1311 H1296 0.930 . S
C1311 C1306 1.390 . S
C1311 C1310 1.387 . S
H1312 C1324 0.930 . S
H1313 C1326 0.930 . S
H1314 C1327 0.930 . S
H1315 C1331 0.959 . S
H1316 C1331 0.959 . S
H1317 C1331 0.961 . S
H1318 C1332 0.960 . S
H1319 C1332 0.961 . S
H1320 C1332 0.959 . S
H1321 C1335 0.929 . S
H1322 C1336 0.931 . S
H1323 C1338 0.930 . S
C1324 H1312 0.930 . S
C1324 C1325 1.399 . S
C1324 C1329 1.399 . S
C1325 C1324 1.399 . S
C1325 C1326 1.376 . S
C1326 H1313 0.930 . S
C1326 C1325 1.376 . S
C1326 C1327 1.388 . S
C1327 H1314 0.930 . S
C1327 C1326 1.388 . S
C1327 C1328 1.390 . S
C1328 C1327 1.390 . S
C1328 C1329 1.394 . S
C1328 C1334 1.465 . S
C1329 C1324 1.399 . S
C1329 C1328 1.394 . S
C1329 C1330 1.516 . S
C1330 C1329 1.516 . S
C1330 C1331 1.502 . S
C1330 C1332 1.561 . S
C1330 C1333 1.526 . S
C1331 H1315 0.959 . S
C1331 H1316 0.959 . S
C1331 H1317 0.961 . S
C1331 C1330 1.502 . S
C1332 H1318 0.960 . S
C1332 H1319 0.961 . S
C1332 H1320 0.959 . S
C1332 C1330 1.561 . S
C1333 C1330 1.526 . S
C1333 C1334 1.396 . S
C1333 C1338 1.390 . S
C1334 C1328 1.465 . S
C1334 C1333 1.396 . S
C1334 C1335 1.399 . S
C1335 H1321 0.929 . S
C1335 C1334 1.399 . S
C1335 C1336 1.385 . S
C1336 H1322 0.931 . S
C1336 C1335 1.385 . S
C1336 C1337 1.389 . S
C1337 C1336 1.389 . S
C1337 C1338 1.387 . S
C1338 H1323 0.930 . S
C1338 C1333 1.390 . S
C1338 C1337 1.387 . S
H1339 C1351 0.930 . S
H1340 C1353 0.930 . S
H1341 C1354 0.930 . S
H1342 C1358 0.959 . S
H1343 C1358 0.959 . S
H1344 C1358 0.961 . S
H1345 C1359 0.960 . S
H1346 C1359 0.961 . S
H1347 C1359 0.959 . S
H1348 C1362 0.929 . S
H1349 C1363 0.931 1_655 S
H1350 C1365 0.930 . S
C1351 H1339 0.930 . S
C1351 C1352 1.399 . S
C1351 C1356 1.399 . S
C1352 C1351 1.399 . S
C1352 C1353 1.376 . S
C1353 H1340 0.930 . S
C1353 C1352 1.376 . S
C1353 C1354 1.388 . S
C1354 H1341 0.930 . S
C1354 C1353 1.388 . S
C1354 C1355 1.390 . S
C1355 C1354 1.390 . S
C1355 C1356 1.394 . S
C1355 C1361 1.465 . S
C1356 C1351 1.399 . S
C1356 C1355 1.394 . S
C1356 C1357 1.516 . S
C1357 C1356 1.516 . S
C1357 C1358 1.502 . S
C1357 C1359 1.561 . S
C1357 C1360 1.526 . S
C1358 H1342 0.959 . S
C1358 H1343 0.959 . S
C1358 H1344 0.961 . S
C1358 C1357 1.502 . S
C1359 H1345 0.960 . S
C1359 H1346 0.961 . S
C1359 H1347 0.959 . S
C1359 C1357 1.561 . S
C1360 C1357 1.526 . S
C1360 C1361 1.396 . S
C1360 C1365 1.390 . S
C1361 C1355 1.465 . S
C1361 C1360 1.396 . S
C1361 C1362 1.399 . S
C1362 H1348 0.929 . S
C1362 C1361 1.399 . S
C1362 C1363 1.385 . S
C1363 H1349 0.931 1_455 S
C1363 C1362 1.385 . S
C1363 C1364 1.389 . S
C1364 C1363 1.389 . S
C1364 C1365 1.387 . S
C1365 H1350 0.930 . S
C1365 C1360 1.390 . S
C1365 C1364 1.387 . S
H1366 C1378 0.930 . S
H1367 C1380 0.930 . S
H1368 C1381 0.930 . S
H1369 C1385 0.959 . S
H1370 C1385 0.959 . S
H1371 C1385 0.961 . S
H1372 C1386 0.960 . S
H1373 C1386 0.961 . S
H1374 C1386 0.959 . S
H1375 C1389 0.929 . S
H1376 C1390 0.931 . S
H1377 C1392 0.930 . S
C1378 H1366 0.930 . S
C1378 C1379 1.399 . S
C1378 C1383 1.399 . S
C1379 C1378 1.399 . S
C1379 C1380 1.376 . S
C1380 H1367 0.930 . S
C1380 C1379 1.376 . S
C1380 C1381 1.388 . S
C1381 H1368 0.930 . S
C1381 C1380 1.388 . S
C1381 C1382 1.390 . S
C1382 C1381 1.390 . S
C1382 C1383 1.394 . S
C1382 C1388 1.465 . S
C1383 C1378 1.399 . S
C1383 C1382 1.394 . S
C1383 C1384 1.516 . S
C1384 C1383 1.516 . S
C1384 C1385 1.502 . S
C1384 C1386 1.561 . S
C1384 C1387 1.526 . S
C1385 H1369 0.959 . S
C1385 H1370 0.959 . S
C1385 H1371 0.961 . S
C1385 C1384 1.502 . S
C1386 H1372 0.960 . S
C1386 H1373 0.961 . S
C1386 H1374 0.959 . S
C1386 C1384 1.561 . S
C1387 C1384 1.526 . S
C1387 C1388 1.396 . S
C1387 C1392 1.390 . S
C1388 C1382 1.465 . S
C1388 C1387 1.396 . S
C1388 C1389 1.399 . S
C1389 H1375 0.929 . S
C1389 C1388 1.399 . S
C1389 C1390 1.385 . S
C1390 H1376 0.931 . S
C1390 C1389 1.385 . S
C1390 C1391 1.389 . S
C1391 C1390 1.389 . S
C1391 C1392 1.387 . S
C1392 H1377 0.930 . S
C1392 C1387 1.390 . S
C1392 C1391 1.387 . S
H1393 C1405 0.930 . S
H1394 C1407 0.930 . S
H1395 C1408 0.930 . S
H1396 C1412 0.959 . S
H1397 C1412 0.959 . S
H1398 C1412 0.961 . S
H1399 C1413 0.960 . S
H1400 C1413 0.961 . S
H1401 C1413 0.959 . S
H1402 C1416 0.929 . S
H1403 C1417 0.931 . S
H1404 C1419 0.930 . S
C1405 H1393 0.930 . S
C1405 C1406 1.399 . S
C1405 C1410 1.399 . S
C1406 C1405 1.399 . S
C1406 C1407 1.376 . S
C1407 H1394 0.930 . S
C1407 C1406 1.376 . S
C1407 C1408 1.388 . S
C1408 H1395 0.930 . S
C1408 C1407 1.388 . S
C1408 C1409 1.390 . S
C1409 C1408 1.390 . S
C1409 C1410 1.394 . S
C1409 C1415 1.465 . S
C1410 C1405 1.399 . S
C1410 C1409 1.394 . S
C1410 C1411 1.516 . S
C1411 C1410 1.516 . S
C1411 C1412 1.502 . S
C1411 C1413 1.561 . S
C1411 C1414 1.526 . S
C1412 H1396 0.959 . S
C1412 H1397 0.959 . S
C1412 H1398 0.961 . S
C1412 C1411 1.502 . S
C1413 H1399 0.960 . S
C1413 H1400 0.961 . S
C1413 H1401 0.959 . S
C1413 C1411 1.561 . S
C1414 C1411 1.526 . S
C1414 C1415 1.396 . S
C1414 C1419 1.390 . S
C1415 C1409 1.465 . S
C1415 C1414 1.396 . S
C1415 C1416 1.399 . S
C1416 H1402 0.929 . S
C1416 C1415 1.399 . S
C1416 C1417 1.385 . S
C1417 H1403 0.931 . S
C1417 C1416 1.385 . S
C1417 C1418 1.389 . S
C1418 C1417 1.389 . S
C1418 C1419 1.387 . S
C1419 H1404 0.930 . S
C1419 C1414 1.390 . S
C1419 C1418 1.387 . S
H1420 C1432 0.930 . S
H1421 C1434 0.930 . S
H1422 C1435 0.930 . S
H1423 C1439 0.959 . S
H1424 C1439 0.959 . S
H1425 C1439 0.961 . S
H1426 C1440 0.960 . S
H1427 C1440 0.961 . S
H1428 C1440 0.959 . S
H1429 C1443 0.929 . S
H1430 C1444 0.931 . S
H1431 C1446 0.930 . S
C1432 H1420 0.930 . S
C1432 C1433 1.399 . S
C1432 C1437 1.399 . S
C1433 C1432 1.399 . S
C1433 C1434 1.376 . S
C1434 H1421 0.930 . S
C1434 C1433 1.376 . S
C1434 C1435 1.388 . S
C1435 H1422 0.930 . S
C1435 C1434 1.388 . S
C1435 C1436 1.390 . S
C1436 C1435 1.390 . S
C1436 C1437 1.394 . S
C1436 C1442 1.465 . S
C1437 C1432 1.399 . S
C1437 C1436 1.394 . S
C1437 C1438 1.516 . S
C1438 C1437 1.516 . S
C1438 C1439 1.502 . S
C1438 C1440 1.561 . S
C1438 C1441 1.526 . S
C1439 H1423 0.959 . S
C1439 H1424 0.959 . S
C1439 H1425 0.961 . S
C1439 C1438 1.502 . S
C1440 H1426 0.960 . S
C1440 H1427 0.961 . S
C1440 H1428 0.959 . S
C1440 C1438 1.561 . S
C1441 C1438 1.526 . S
C1441 C1442 1.396 . S
C1441 C1446 1.390 . S
C1442 C1436 1.465 . S
C1442 C1441 1.396 . S
C1442 C1443 1.399 . S
C1443 H1429 0.929 . S
C1443 C1442 1.399 . S
C1443 C1444 1.385 . S
C1444 H1430 0.931 . S
C1444 C1443 1.385 . S
C1444 C1445 1.389 . S
C1445 C1444 1.389 . S
C1445 C1446 1.387 . S
C1446 H1431 0.930 . S
C1446 C1441 1.390 . S
C1446 C1445 1.387 . S
H1447 C1459 0.930 . S
H1448 C1461 0.930 . S
H1449 C1462 0.930 . S
H1450 C1466 0.959 . S
H1451 C1466 0.959 . S
H1452 C1466 0.961 . S
H1453 C1467 0.960 . S
H1454 C1467 0.961 . S
H1455 C1467 0.959 . S
H1456 C1470 0.929 . S
H1457 C1471 0.931 . S
H1458 C1473 0.930 . S
C1459 H1447 0.930 . S
C1459 C1460 1.399 . S
C1459 C1464 1.399 . S
C1460 C1459 1.399 . S
C1460 C1461 1.376 . S
C1461 H1448 0.930 . S
C1461 C1460 1.376 . S
C1461 C1462 1.388 . S
C1462 H1449 0.930 . S
C1462 C1461 1.388 . S
C1462 C1463 1.390 . S
C1463 C1462 1.390 . S
C1463 C1464 1.394 . S
C1463 C1469 1.465 . S
C1464 C1459 1.399 . S
C1464 C1463 1.394 . S
C1464 C1465 1.516 . S
C1465 C1464 1.516 . S
C1465 C1466 1.502 . S
C1465 C1467 1.561 . S
C1465 C1468 1.526 . S
C1466 H1450 0.959 . S
C1466 H1451 0.959 . S
C1466 H1452 0.961 . S
C1466 C1465 1.502 . S
C1467 H1453 0.960 . S
C1467 H1454 0.961 . S
C1467 H1455 0.959 . S
C1467 C1465 1.561 . S
C1468 C1465 1.526 . S
C1468 C1469 1.396 . S
C1468 C1473 1.390 . S
C1469 C1463 1.465 . S
C1469 C1468 1.396 . S
C1469 C1470 1.399 . S
C1470 H1456 0.929 . S
C1470 C1469 1.399 . S
C1470 C1471 1.385 . S
C1471 H1457 0.931 . S
C1471 C1470 1.385 . S
C1471 C1472 1.389 . S
C1472 C1471 1.389 . S
C1472 C1473 1.387 . S
C1473 H1458 0.930 . S
C1473 C1468 1.390 . S
C1473 C1472 1.387 . S
H1474 C1486 0.930 . S
H1475 C1488 0.930 . S
H1476 C1489 0.930 . S
H1477 C1493 0.959 . S
H1478 C1493 0.959 . S
H1479 C1493 0.961 . S
H1480 C1494 0.960 . S
H1481 C1494 0.961 . S
H1482 C1494 0.959 . S
H1483 C1497 0.929 . S
H1484 C1498 0.931 . S
H1485 C1500 0.930 . S
C1486 H1474 0.930 . S
C1486 C1487 1.399 . S
C1486 C1491 1.399 . S
C1487 C1486 1.399 . S
C1487 C1488 1.376 . S
C1488 H1475 0.930 . S
C1488 C1487 1.376 . S
C1488 C1489 1.388 . S
C1489 H1476 0.930 . S
C1489 C1488 1.388 . S
C1489 C1490 1.390 . S
C1490 C1489 1.390 . S
C1490 C1491 1.394 . S
C1490 C1496 1.465 . S
C1491 C1486 1.399 . S
C1491 C1490 1.394 . S
C1491 C1492 1.516 . S
C1492 C1491 1.516 . S
C1492 C1493 1.502 . S
C1492 C1494 1.561 . S
C1492 C1495 1.526 . S
C1493 H1477 0.959 . S
C1493 H1478 0.959 . S
C1493 H1479 0.961 . S
C1493 C1492 1.502 . S
C1494 H1480 0.960 . S
C1494 H1481 0.961 . S
C1494 H1482 0.959 . S
C1494 C1492 1.561 . S
C1495 C1492 1.526 . S
C1495 C1496 1.396 . S
C1495 C1500 1.390 . S
C1496 C1490 1.465 . S
C1496 C1495 1.396 . S
C1496 C1497 1.399 . S
C1497 H1483 0.929 . S
C1497 C1496 1.399 . S
C1497 C1498 1.385 . S
C1498 H1484 0.931 . S
C1498 C1497 1.385 . S
C1498 C1499 1.389 . S
C1499 C1498 1.389 . S
C1499 C1500 1.387 . S
C1500 H1485 0.930 . S
C1500 C1495 1.390 . S
C1500 C1499 1.387 . S
H1501 C1513 0.930 . S
H1502 C1515 0.930 . S
H1503 C1516 0.930 . S
H1504 C1520 0.959 . S
H1505 C1520 0.959 . S
H1506 C1520 0.961 . S
H1507 C1521 0.960 . S
H1508 C1521 0.961 . S
H1509 C1521 0.959 . S
H1510 C1524 0.929 . S
H1511 C1525 0.924 1_655 S
H1512 C1527 0.930 . S
C1513 H1501 0.930 . S
C1513 C1514 1.399 . S
C1513 C1518 1.399 . S
C1514 C1513 1.399 . S
C1514 C1515 1.376 . S
C1515 H1502 0.930 . S
C1515 C1514 1.376 . S
C1515 C1516 1.388 . S
C1516 H1503 0.930 . S
C1516 C1515 1.388 . S
C1516 C1517 1.390 . S
C1517 C1516 1.390 . S
C1517 C1518 1.394 . S
C1517 C1523 1.465 . S
C1518 C1513 1.399 . S
C1518 C1517 1.394 . S
C1518 C1519 1.516 . S
C1519 C1518 1.516 . S
C1519 C1520 1.502 . S
C1519 C1521 1.561 . S
C1519 C1522 1.526 . S
C1520 H1504 0.959 . S
C1520 H1505 0.959 . S
C1520 H1506 0.961 . S
C1520 C1519 1.502 . S
C1521 H1507 0.960 . S
C1521 H1508 0.961 . S
C1521 H1509 0.959 . S
C1521 C1519 1.561 . S
C1522 C1519 1.526 . S
C1522 C1523 1.396 . S
C1522 C1527 1.390 . S
C1523 C1517 1.465 . S
C1523 C1522 1.396 . S
C1523 C1524 1.399 . S
C1524 H1510 0.929 . S
C1524 C1523 1.399 . S
C1524 C1525 1.385 . S
C1525 H1511 0.924 1_455 S
C1525 C1524 1.385 . S
C1525 C1526 1.389 . S
C1526 C1525 1.389 . S
C1526 C1527 1.387 . S
C1527 H1512 0.930 . S
C1527 C1522 1.390 . S
C1527 C1526 1.387 . S
H1528 C1540 0.930 . S
H1529 C1542 0.930 . S
H1530 C1543 0.930 . S
H1531 C1547 0.959 . S
H1532 C1547 0.959 . S
H1533 C1547 0.961 . S
H1534 C1548 0.960 . S
H1535 C1548 0.961 . S
H1536 C1548 0.959 . S
H1537 C1551 0.929 . S
H1538 C1552 0.931 . S
H1539 C1554 0.930 . S
C1540 H1528 0.930 . S
C1540 C1541 1.399 . S
C1540 C1545 1.399 . S
C1541 C1540 1.399 . S
C1541 C1542 1.376 . S
C1542 H1529 0.930 . S
C1542 C1541 1.376 . S
C1542 C1543 1.388 . S
C1543 H1530 0.930 . S
C1543 C1542 1.388 . S
C1543 C1544 1.390 . S
C1544 C1543 1.390 . S
C1544 C1545 1.394 . S
C1544 C1550 1.465 . S
C1545 C1540 1.399 . S
C1545 C1544 1.394 . S
C1545 C1546 1.516 . S
C1546 C1545 1.516 . S
C1546 C1547 1.502 . S
C1546 C1548 1.561 . S
C1546 C1549 1.526 . S
C1547 H1531 0.959 . S
C1547 H1532 0.959 . S
C1547 H1533 0.961 . S
C1547 C1546 1.502 . S
C1548 H1534 0.960 . S
C1548 H1535 0.961 . S
C1548 H1536 0.959 . S
C1548 C1546 1.561 . S
C1549 C1546 1.526 . S
C1549 C1550 1.396 . S
C1549 C1554 1.390 . S
C1550 C1544 1.465 . S
C1550 C1549 1.396 . S
C1550 C1551 1.399 . S
C1551 H1537 0.929 . S
C1551 C1550 1.399 . S
C1551 C1552 1.385 . S
C1552 H1538 0.931 . S
C1552 C1551 1.385 . S
C1552 C1553 1.389 . S
C1553 C1552 1.389 . S
C1553 C1554 1.387 . S
C1554 H1539 0.930 . S
C1554 C1549 1.390 . S
C1554 C1553 1.387 . S
H1555 C1567 0.930 . S
H1556 C1569 0.930 . S
H1557 C1570 0.930 . S
H1558 C1574 0.959 . S
H1559 C1574 0.959 . S
H1560 C1574 0.961 . S
H1561 C1575 0.960 . S
H1562 C1575 0.961 . S
H1563 C1575 0.959 . S
H1564 C1578 0.929 . S
H1565 C1579 0.931 . S
H1566 C1581 0.930 . S
C1567 H1555 0.930 . S
C1567 C1568 1.399 . S
C1567 C1572 1.399 . S
C1568 C1567 1.399 . S
C1568 C1569 1.376 . S
C1569 H1556 0.930 . S
C1569 C1568 1.376 . S
C1569 C1570 1.388 . S
C1570 H1557 0.930 . S
C1570 C1569 1.388 . S
C1570 C1571 1.390 . S
C1571 C1570 1.390 . S
C1571 C1572 1.394 . S
C1571 C1577 1.465 . S
C1572 C1567 1.399 . S
C1572 C1571 1.394 . S
C1572 C1573 1.516 . S
C1573 C1572 1.516 . S
C1573 C1574 1.502 . S
C1573 C1575 1.561 . S
C1573 C1576 1.526 . S
C1574 H1558 0.959 . S
C1574 H1559 0.959 . S
C1574 H1560 0.961 . S
C1574 C1573 1.502 . S
C1575 H1561 0.960 . S
C1575 H1562 0.961 . S
C1575 H1563 0.959 . S
C1575 C1573 1.561 . S
C1576 C1573 1.526 . S
C1576 C1577 1.396 . S
C1576 C1581 1.390 . S
C1577 C1571 1.465 . S
C1577 C1576 1.396 . S
C1577 C1578 1.399 . S
C1578 H1564 0.929 . S
C1578 C1577 1.399 . S
C1578 C1579 1.385 . S
C1579 H1565 0.931 . S
C1579 C1578 1.385 . S
C1579 C1580 1.389 . S
C1580 C1579 1.389 . S
C1580 C1581 1.387 . S
C1581 H1566 0.930 . S
C1581 C1576 1.390 . S
C1581 C1580 1.387 . S
H1582 C1594 0.930 . S
H1583 C1596 0.930 . S
H1584 C1597 0.930 . S
H1585 C1601 0.959 . S
H1586 C1601 0.959 . S
H1587 C1601 0.961 . S
H1588 C1602 0.960 . S
H1589 C1602 0.961 . S
H1590 C1602 0.959 . S
H1591 C1605 0.929 . S
H1592 C1606 0.931 . S
H1593 C1608 0.930 . S
C1594 H1582 0.930 . S
C1594 C1595 1.399 . S
C1594 C1599 1.399 . S
C1595 C1594 1.399 . S
C1595 C1596 1.376 . S
C1596 H1583 0.930 . S
C1596 C1595 1.376 . S
C1596 C1597 1.388 . S
C1597 H1584 0.930 . S
C1597 C1596 1.388 . S
C1597 C1598 1.390 . S
C1598 C1597 1.390 . S
C1598 C1599 1.394 . S
C1598 C1604 1.465 . S
C1599 C1594 1.399 . S
C1599 C1598 1.394 . S
C1599 C1600 1.516 . S
C1600 C1599 1.516 . S
C1600 C1601 1.502 . S
C1600 C1602 1.561 . S
C1600 C1603 1.526 . S
C1601 H1585 0.959 . S
C1601 H1586 0.959 . S
C1601 H1587 0.961 . S
C1601 C1600 1.502 . S
C1602 H1588 0.960 . S
C1602 H1589 0.961 . S
C1602 H1590 0.959 . S
C1602 C1600 1.561 . S
C1603 C1600 1.526 . S
C1603 C1604 1.396 . S
C1603 C1608 1.390 . S
C1604 C1598 1.465 . S
C1604 C1603 1.396 . S
C1604 C1605 1.399 . S
C1605 H1591 0.929 . S
C1605 C1604 1.399 . S
C1605 C1606 1.385 . S
C1606 H1592 0.931 . S
C1606 C1605 1.385 . S
C1606 C1607 1.389 . S
C1607 C1606 1.389 . S
C1607 C1608 1.387 . S
C1608 H1593 0.930 . S
C1608 C1603 1.390 . S
C1608 C1607 1.387 . S
H1609 C1621 0.930 . S
H1610 C1623 0.930 . S
H1611 C1624 0.930 . S
H1612 C1628 0.959 . S
H1613 C1628 0.959 . S
H1614 C1628 0.961 . S
H1615 C1629 0.960 . S
H1616 C1629 0.961 . S
H1617 C1629 0.959 . S
H1618 C1632 0.929 . S
H1619 C1633 0.931 . S
H1620 C1635 0.930 . S
C1621 H1609 0.930 . S
C1621 C1622 1.399 . S
C1621 C1626 1.399 . S
C1622 C1621 1.399 . S
C1622 C1623 1.376 . S
C1623 H1610 0.930 . S
C1623 C1622 1.376 . S
C1623 C1624 1.388 . S
C1624 H1611 0.930 . S
C1624 C1623 1.388 . S
C1624 C1625 1.390 . S
C1625 C1624 1.390 . S
C1625 C1626 1.394 . S
C1625 C1631 1.465 . S
C1626 C1621 1.399 . S
C1626 C1625 1.394 . S
C1626 C1627 1.516 . S
C1627 C1626 1.516 . S
C1627 C1628 1.502 . S
C1627 C1629 1.561 . S
C1627 C1630 1.526 . S
C1628 H1612 0.959 . S
C1628 H1613 0.959 . S
C1628 H1614 0.961 . S
C1628 C1627 1.502 . S
C1629 H1615 0.960 . S
C1629 H1616 0.961 . S
C1629 H1617 0.959 . S
C1629 C1627 1.561 . S
C1630 C1627 1.526 . S
C1630 C1631 1.396 . S
C1630 C1635 1.390 . S
C1631 C1625 1.465 . S
C1631 C1630 1.396 . S
C1631 C1632 1.399 . S
C1632 H1618 0.929 . S
C1632 C1631 1.399 . S
C1632 C1633 1.385 . S
C1633 H1619 0.931 . S
C1633 C1632 1.385 . S
C1633 C1634 1.389 . S
C1634 C1633 1.389 . S
C1634 C1635 1.387 . S
C1635 H1620 0.930 . S
C1635 C1630 1.390 . S
C1635 C1634 1.387 . S
H1636 C1648 0.930 . S
H1637 C1650 0.930 . S
H1638 C1651 0.930 . S
H1639 C1655 0.959 . S
H1640 C1655 0.959 . S
H1641 C1655 0.961 . S
H1642 C1656 0.960 . S
H1643 C1656 0.961 . S
H1644 C1656 0.959 . S
H1645 C1659 0.929 . S
H1646 C1660 0.931 . S
H1647 C1662 0.930 . S
C1648 H1636 0.930 . S
C1648 C1649 1.399 . S
C1648 C1653 1.399 . S
C1649 C1648 1.399 . S
C1649 C1650 1.376 . S
C1650 H1637 0.930 . S
C1650 C1649 1.376 . S
C1650 C1651 1.388 . S
C1651 H1638 0.930 . S
C1651 C1650 1.388 . S
C1651 C1652 1.390 . S
C1652 C1651 1.390 . S
C1652 C1653 1.394 . S
C1652 C1658 1.465 . S
C1653 C1648 1.399 . S
C1653 C1652 1.394 . S
C1653 C1654 1.516 . S
C1654 C1653 1.516 . S
C1654 C1655 1.502 . S
C1654 C1656 1.561 . S
C1654 C1657 1.526 . S
C1655 H1639 0.959 . S
C1655 H1640 0.959 . S
C1655 H1641 0.961 . S
C1655 C1654 1.502 . S
C1656 H1642 0.960 . S
C1656 H1643 0.961 . S
C1656 H1644 0.959 . S
C1656 C1654 1.561 . S
C1657 C1654 1.526 . S
C1657 C1658 1.396 . S
C1657 C1662 1.390 . S
C1658 C1652 1.465 . S
C1658 C1657 1.396 . S
C1658 C1659 1.399 . S
C1659 H1645 0.929 . S
C1659 C1658 1.399 . S
C1659 C1660 1.385 . S
C1660 H1646 0.931 . S
C1660 C1659 1.385 . S
C1660 C1661 1.389 . S
C1661 C1660 1.389 . S
C1661 C1662 1.387 . S
C1662 H1647 0.930 . S
C1662 C1657 1.390 . S
C1662 C1661 1.387 . S
H1663 C1675 0.930 . S
H1664 C1677 0.930 . S
H1665 C1678 0.930 . S
H1666 C1682 0.959 . S
H1667 C1682 0.959 . S
H1668 C1682 0.961 . S
H1669 C1683 0.960 . S
H1670 C1683 0.961 . S
H1671 C1683 0.959 . S
H1672 C1686 0.929 . S
H1673 C1687 0.931 . S
H1674 C1689 0.930 . S
C1675 H1663 0.930 . S
C1675 C1676 1.399 . S
C1675 C1680 1.399 . S
C1676 C1675 1.399 . S
C1676 C1677 1.376 . S
C1677 H1664 0.930 . S
C1677 C1676 1.376 . S
C1677 C1678 1.388 . S
C1678 H1665 0.930 . S
C1678 C1677 1.388 . S
C1678 C1679 1.390 . S
C1679 C1678 1.390 . S
C1679 C1680 1.394 . S
C1679 C1685 1.465 . S
C1680 C1675 1.399 . S
C1680 C1679 1.394 . S
C1680 C1681 1.516 . S
C1681 C1680 1.516 . S
C1681 C1682 1.502 . S
C1681 C1683 1.561 . S
C1681 C1684 1.526 . S
C1682 H1666 0.959 . S
C1682 H1667 0.959 . S
C1682 H1668 0.961 . S
C1682 C1681 1.502 . S
C1683 H1669 0.960 . S
C1683 H1670 0.961 . S
C1683 H1671 0.959 . S
C1683 C1681 1.561 . S
C1684 C1681 1.526 . S
C1684 C1685 1.396 . S
C1684 C1689 1.390 . S
C1685 C1679 1.465 . S
C1685 C1684 1.396 . S
C1685 C1686 1.399 . S
C1686 H1672 0.929 . S
C1686 C1685 1.399 . S
C1686 C1687 1.385 . S
C1687 H1673 0.931 . S
C1687 C1686 1.385 . S
C1687 C1688 1.389 . S
C1688 C1687 1.389 . S
C1688 C1689 1.387 . S
C1689 H1674 0.930 . S
C1689 C1684 1.390 . S
C1689 C1688 1.387 . S
H1690 C1702 0.930 . S
H1691 C1704 0.930 . S
H1692 C1705 0.930 . S
H1693 C1709 0.959 . S
H1694 C1709 0.959 . S
H1695 C1709 0.961 . S
H1696 C1710 0.960 . S
H1697 C1710 0.961 . S
H1698 C1710 0.959 . S
H1699 C1713 0.929 . S
H1700 C1714 0.931 . S
H1701 C1716 0.930 . S
C1702 H1690 0.930 . S
C1702 C1703 1.399 . S
C1702 C1707 1.399 . S
C1703 C1702 1.399 . S
C1703 C1704 1.376 . S
C1704 H1691 0.930 . S
C1704 C1703 1.376 . S
C1704 C1705 1.388 . S
C1705 H1692 0.930 . S
C1705 C1704 1.388 . S
C1705 C1706 1.390 . S
C1706 C1705 1.390 . S
C1706 C1707 1.394 . S
C1706 C1712 1.465 . S
C1707 C1702 1.399 . S
C1707 C1706 1.394 . S
C1707 C1708 1.516 . S
C1708 C1707 1.516 . S
C1708 C1709 1.502 . S
C1708 C1710 1.561 . S
C1708 C1711 1.526 . S
C1709 H1693 0.959 . S
C1709 H1694 0.959 . S
C1709 H1695 0.961 . S
C1709 C1708 1.502 . S
C1710 H1696 0.960 . S
C1710 H1697 0.961 . S
C1710 H1698 0.959 . S
C1710 C1708 1.561 . S
C1711 C1708 1.526 . S
C1711 C1712 1.396 . S
C1711 C1716 1.390 . S
C1712 C1706 1.465 . S
C1712 C1711 1.396 . S
C1712 C1713 1.399 . S
C1713 H1699 0.929 . S
C1713 C1712 1.399 . S
C1713 C1714 1.385 . S
C1714 H1700 0.931 . S
C1714 C1713 1.385 . S
C1714 C1715 1.389 . S
C1715 C1714 1.389 . S
C1715 C1716 1.387 . S
C1716 H1701 0.930 . S
C1716 C1711 1.390 . S
C1716 C1715 1.387 . S
H1717 C1729 0.930 . S
H1718 C1731 0.930 . S
H1719 C1732 0.930 . S
H1720 C1736 0.959 . S
H1721 C1736 0.959 . S
H1722 C1736 0.961 . S
H1723 C1737 0.960 . S
H1724 C1737 0.961 . S
H1725 C1737 0.959 . S
H1726 C1740 0.929 . S
H1727 C1741 0.931 . S
H1728 C1743 0.930 . S
C1729 H1717 0.930 . S
C1729 C1730 1.399 . S
C1729 C1734 1.399 . S
C1730 C1729 1.399 . S
C1730 C1731 1.376 . S
C1731 H1718 0.930 . S
C1731 C1730 1.376 . S
C1731 C1732 1.388 . S
C1732 H1719 0.930 . S
C1732 C1731 1.388 . S
C1732 C1733 1.390 . S
C1733 C1732 1.390 . S
C1733 C1734 1.394 . S
C1733 C1739 1.465 . S
C1734 C1729 1.399 . S
C1734 C1733 1.394 . S
C1734 C1735 1.516 . S
C1735 C1734 1.516 . S
C1735 C1736 1.502 . S
C1735 C1737 1.561 . S
C1735 C1738 1.526 . S
C1736 H1720 0.959 . S
C1736 H1721 0.959 . S
C1736 H1722 0.961 . S
C1736 C1735 1.502 . S
C1737 H1723 0.960 . S
C1737 H1724 0.961 . S
C1737 H1725 0.959 . S
C1737 C1735 1.561 . S
C1738 C1735 1.526 . S
C1738 C1739 1.396 . S
C1738 C1743 1.390 . S
C1739 C1733 1.465 . S
C1739 C1738 1.396 . S
C1739 C1740 1.399 . S
C1740 H1726 0.929 . S
C1740 C1739 1.399 . S
C1740 C1741 1.385 . S
C1741 H1727 0.931 . S
C1741 C1740 1.385 . S
C1741 C1742 1.389 . S
C1742 C1741 1.389 . S
C1742 C1743 1.387 . S
C1743 H1728 0.930 . S
C1743 C1738 1.390 . S
C1743 C1742 1.387 . S
H1744 C1756 0.930 . S
H1745 C1758 0.930 . S
H1746 C1759 0.930 . S
H1747 C1763 0.959 . S
H1748 C1763 0.959 . S
H1749 C1763 0.961 . S
H1750 C1764 0.960 . S
H1751 C1764 0.961 . S
H1752 C1764 0.959 . S
H1753 C1767 0.929 . S
H1754 C1768 0.931 . S
H1755 C1770 0.930 . S
C1756 H1744 0.930 . S
C1756 C1757 1.399 . S
C1756 C1761 1.399 . S
C1757 C1756 1.399 . S
C1757 C1758 1.376 . S
C1758 H1745 0.930 . S
C1758 C1757 1.376 . S
C1758 C1759 1.388 . S
C1759 H1746 0.930 . S
C1759 C1758 1.388 . S
C1759 C1760 1.390 . S
C1760 C1759 1.390 . S
C1760 C1761 1.394 . S
C1760 C1766 1.465 . S
C1761 C1756 1.399 . S
C1761 C1760 1.394 . S
C1761 C1762 1.516 . S
C1762 C1761 1.516 . S
C1762 C1763 1.502 . S
C1762 C1764 1.561 . S
C1762 C1765 1.526 . S
C1763 H1747 0.959 . S
C1763 H1748 0.959 . S
C1763 H1749 0.961 . S
C1763 C1762 1.502 . S
C1764 H1750 0.960 . S
C1764 H1751 0.961 . S
C1764 H1752 0.959 . S
C1764 C1762 1.561 . S
C1765 C1762 1.526 . S
C1765 C1766 1.396 . S
C1765 C1770 1.390 . S
C1766 C1760 1.465 . S
C1766 C1765 1.396 . S
C1766 C1767 1.399 . S
C1767 H1753 0.929 . S
C1767 C1766 1.399 . S
C1767 C1768 1.385 . S
C1768 H1754 0.931 . S
C1768 C1767 1.385 . S
C1768 C1769 1.389 . S
C1769 C1768 1.389 . S
C1769 C1770 1.387 . S
C1770 H1755 0.930 . S
C1770 C1765 1.390 . S
C1770 C1769 1.387 . S
H1771 C1783 0.930 . S
H1772 C1785 0.930 . S
H1773 C1786 0.930 . S
H1774 C1790 0.959 . S
H1775 C1790 0.959 . S
H1776 C1790 0.961 . S
H1777 C1791 0.960 . S
H1778 C1791 0.961 . S
H1779 C1791 0.959 . S
H1780 C1794 0.929 . S
H1781 C1795 0.931 . S
H1782 C1797 0.930 . S
C1783 H1771 0.930 . S
C1783 C1784 1.399 . S
C1783 C1788 1.399 . S
C1784 C1783 1.399 . S
C1784 C1785 1.376 . S
C1785 H1772 0.930 . S
C1785 C1784 1.376 . S
C1785 C1786 1.388 . S
C1786 H1773 0.930 . S
C1786 C1785 1.388 . S
C1786 C1787 1.390 . S
C1787 C1786 1.390 . S
C1787 C1788 1.394 . S
C1787 C1793 1.465 . S
C1788 C1783 1.399 . S
C1788 C1787 1.394 . S
C1788 C1789 1.516 . S
C1789 C1788 1.516 . S
C1789 C1790 1.502 . S
C1789 C1791 1.561 . S
C1789 C1792 1.526 . S
C1790 H1774 0.959 . S
C1790 H1775 0.959 . S
C1790 H1776 0.961 . S
C1790 C1789 1.502 . S
C1791 H1777 0.960 . S
C1791 H1778 0.961 . S
C1791 H1779 0.959 . S
C1791 C1789 1.561 . S
C1792 C1789 1.526 . S
C1792 C1793 1.396 . S
C1792 C1797 1.390 . S
C1793 C1787 1.465 . S
C1793 C1792 1.396 . S
C1793 C1794 1.399 . S
C1794 H1780 0.929 . S
C1794 C1793 1.399 . S
C1794 C1795 1.385 . S
C1795 H1781 0.931 . S
C1795 C1794 1.385 . S
C1795 C1796 1.389 . S
C1796 C1795 1.389 . S
C1796 C1797 1.387 . S
C1797 H1782 0.930 . S
C1797 C1792 1.390 . S
C1797 C1796 1.387 . S
H1798 C1810 0.930 . S
H1799 C1812 0.930 . S
H1800 C1813 0.930 . S
H1801 C1817 0.959 . S
H1802 C1817 0.959 . S
H1803 C1817 0.961 . S
H1804 C1818 0.960 . S
H1805 C1818 0.961 . S
H1806 C1818 0.959 . S
H1807 C1821 0.929 . S
H1808 C1822 0.931 . S
H1809 C1824 0.930 . S
C1810 H1798 0.930 . S
C1810 C1811 1.399 . S
C1810 C1815 1.399 . S
C1811 C1810 1.399 . S
C1811 C1812 1.376 . S
C1812 H1799 0.930 . S
C1812 C1811 1.376 . S
C1812 C1813 1.388 . S
C1813 H1800 0.930 . S
C1813 C1812 1.388 . S
C1813 C1814 1.390 . S
C1814 C1813 1.390 . S
C1814 C1815 1.394 . S
C1814 C1820 1.465 . S
C1815 C1810 1.399 . S
C1815 C1814 1.394 . S
C1815 C1816 1.516 . S
C1816 C1815 1.516 . S
C1816 C1817 1.502 . S
C1816 C1818 1.561 . S
C1816 C1819 1.526 . S
C1817 H1801 0.959 . S
C1817 H1802 0.959 . S
C1817 H1803 0.961 . S
C1817 C1816 1.502 . S
C1818 H1804 0.960 . S
C1818 H1805 0.961 . S
C1818 H1806 0.959 . S
C1818 C1816 1.561 . S
C1819 C1816 1.526 . S
C1819 C1820 1.396 . S
C1819 C1824 1.390 . S
C1820 C1814 1.465 . S
C1820 C1819 1.396 . S
C1820 C1821 1.399 . S
C1821 H1807 0.929 . S
C1821 C1820 1.399 . S
C1821 C1822 1.385 . S
C1822 H1808 0.931 . S
C1822 C1821 1.385 . S
C1822 C1823 1.389 . S
C1823 C1822 1.389 . S
C1823 C1824 1.387 . S
C1824 H1809 0.930 . S
C1824 C1819 1.390 . S
C1824 C1823 1.387 . S
H1825 C1837 0.930 . S
H1826 C1839 0.930 . S
H1827 C1840 0.930 . S
H1828 C1844 0.959 . S
H1829 C1844 0.959 . S
H1830 C1844 0.961 . S
H1831 C1845 0.960 . S
H1832 C1845 0.961 . S
H1833 C1845 0.959 . S
H1834 C1848 0.929 . S
H1835 C1849 0.931 . S
H1836 C1851 0.930 . S
C1837 H1825 0.930 . S
C1837 C1838 1.399 . S
C1837 C1842 1.399 . S
C1838 C1837 1.399 . S
C1838 C1839 1.376 . S
C1839 H1826 0.930 . S
C1839 C1838 1.376 . S
C1839 C1840 1.388 . S
C1840 H1827 0.930 . S
C1840 C1839 1.388 . S
C1840 C1841 1.390 . S
C1841 C1840 1.390 . S
C1841 C1842 1.394 . S
C1841 C1847 1.465 . S
C1842 C1837 1.399 . S
C1842 C1841 1.394 . S
C1842 C1843 1.516 . S
C1843 C1842 1.516 . S
C1843 C1844 1.502 . S
C1843 C1845 1.561 . S
C1843 C1846 1.526 . S
C1844 H1828 0.959 . S
C1844 H1829 0.959 . S
C1844 H1830 0.961 . S
C1844 C1843 1.502 . S
C1845 H1831 0.960 . S
C1845 H1832 0.961 . S
C1845 H1833 0.959 . S
C1845 C1843 1.561 . S
C1846 C1843 1.526 . S
C1846 C1847 1.396 . S
C1846 C1851 1.390 . S
C1847 C1841 1.465 . S
C1847 C1846 1.396 . S
C1847 C1848 1.399 . S
C1848 H1834 0.929 . S
C1848 C1847 1.399 . S
C1848 C1849 1.385 . S
C1849 H1835 0.931 . S
C1849 C1848 1.385 . S
C1849 C1850 1.389 . S
C1850 C1849 1.389 . S
C1850 C1851 1.387 . S
C1851 H1836 0.930 . S
C1851 C1846 1.390 . S
C1851 C1850 1.387 . S
H1852 C1864 0.930 . S
H1853 C1866 0.930 . S
H1854 C1867 0.930 . S
H1855 C1871 0.959 . S
H1856 C1871 0.959 . S
H1857 C1871 0.961 . S
H1858 C1872 0.960 . S
H1859 C1872 0.961 . S
H1860 C1872 0.959 . S
H1861 C1875 0.929 . S
H1862 C1876 0.931 . S
H1863 C1878 0.930 . S
C1864 H1852 0.930 . S
C1864 C1865 1.399 . S
C1864 C1869 1.399 . S
C1865 C1864 1.399 . S
C1865 C1866 1.376 . S
C1866 H1853 0.930 . S
C1866 C1865 1.376 . S
C1866 C1867 1.388 . S
C1867 H1854 0.930 . S
C1867 C1866 1.388 . S
C1867 C1868 1.390 . S
C1868 C1867 1.390 . S
C1868 C1869 1.394 . S
C1868 C1874 1.465 . S
C1869 C1864 1.399 . S
C1869 C1868 1.394 . S
C1869 C1870 1.516 . S
C1870 C1869 1.516 . S
C1870 C1871 1.502 . S
C1870 C1872 1.561 . S
C1870 C1873 1.526 . S
C1871 H1855 0.959 . S
C1871 H1856 0.959 . S
C1871 H1857 0.961 . S
C1871 C1870 1.502 . S
C1872 H1858 0.960 . S
C1872 H1859 0.961 . S
C1872 H1860 0.959 . S
C1872 C1870 1.561 . S
C1873 C1870 1.526 . S
C1873 C1874 1.396 . S
C1873 C1878 1.390 . S
C1874 C1868 1.465 . S
C1874 C1873 1.396 . S
C1874 C1875 1.399 . S
C1875 H1861 0.929 . S
C1875 C1874 1.399 . S
C1875 C1876 1.385 . S
C1876 H1862 0.931 . S
C1876 C1875 1.385 . S
C1876 C1877 1.389 . S
C1877 C1876 1.389 . S
C1877 C1878 1.387 . S
C1878 H1863 0.930 . S
C1878 C1873 1.390 . S
C1878 C1877 1.387 . S
H1879 C1891 0.930 . S
H1880 C1893 0.930 . S
H1881 C1894 0.930 . S
H1882 C1898 0.959 . S
H1883 C1898 0.959 . S
H1884 C1898 0.961 . S
H1885 C1899 0.960 . S
H1886 C1899 0.961 . S
H1887 C1899 0.959 . S
H1888 C1902 0.929 . S
H1889 C1903 0.931 . S
H1890 C1905 0.930 . S
C1891 H1879 0.930 . S
C1891 C1892 1.399 . S
C1891 C1896 1.399 . S
C1892 C1891 1.399 . S
C1892 C1893 1.376 . S
C1893 H1880 0.930 . S
C1893 C1892 1.376 . S
C1893 C1894 1.388 . S
C1894 H1881 0.930 . S
C1894 C1893 1.388 . S
C1894 C1895 1.390 . S
C1895 C1894 1.390 . S
C1895 C1896 1.394 . S
C1895 C1901 1.465 . S
C1896 C1891 1.399 . S
C1896 C1895 1.394 . S
C1896 C1897 1.516 . S
C1897 C1896 1.516 . S
C1897 C1898 1.502 . S
C1897 C1899 1.561 . S
C1897 C1900 1.526 . S
C1898 H1882 0.959 . S
C1898 H1883 0.959 . S
C1898 H1884 0.961 . S
C1898 C1897 1.502 . S
C1899 H1885 0.960 . S
C1899 H1886 0.961 . S
C1899 H1887 0.959 . S
C1899 C1897 1.561 . S
C1900 C1897 1.526 . S
C1900 C1901 1.396 . S
C1900 C1905 1.390 . S
C1901 C1895 1.465 . S
C1901 C1900 1.396 . S
C1901 C1902 1.399 . S
C1902 H1888 0.929 . S
C1902 C1901 1.399 . S
C1902 C1903 1.385 . S
C1903 H1889 0.931 . S
C1903 C1902 1.385 . S
C1903 C1904 1.389 . S
C1904 C1903 1.389 . S
C1904 C1905 1.387 . S
C1905 H1890 0.930 . S
C1905 C1900 1.390 . S
C1905 C1904 1.387 . S
H1906 C1918 0.930 . S
H1907 C1920 0.930 . S
H1908 C1921 0.930 . S
H1909 C1925 0.959 . S
H1910 C1925 0.959 . S
H1911 C1925 0.961 . S
H1912 C1926 0.960 . S
H1913 C1926 0.961 . S
H1914 C1926 0.959 . S
H1915 C1929 0.929 . S
H1916 C1930 0.931 . S
H1917 C1932 0.930 . S
C1918 H1906 0.930 . S
C1918 C1919 1.399 . S
C1918 C1923 1.399 . S
C1919 C1918 1.399 . S
C1919 C1920 1.376 . S
C1920 H1907 0.930 . S
C1920 C1919 1.376 . S
C1920 C1921 1.388 . S
C1921 H1908 0.930 . S
C1921 C1920 1.388 . S
C1921 C1922 1.390 . S
C1922 C1921 1.390 . S
C1922 C1923 1.394 . S
C1922 C1928 1.465 . S
C1923 C1918 1.399 . S
C1923 C1922 1.394 . S
C1923 C1924 1.516 . S
C1924 C1923 1.516 . S
C1924 C1925 1.502 . S
C1924 C1926 1.561 . S
C1924 C1927 1.526 . S
C1925 H1909 0.959 . S
C1925 H1910 0.959 . S
C1925 H1911 0.961 . S
C1925 C1924 1.502 . S
C1926 H1912 0.960 . S
C1926 H1913 0.961 . S
C1926 H1914 0.959 . S
C1926 C1924 1.561 . S
C1927 C1924 1.526 . S
C1927 C1928 1.396 . S
C1927 C1932 1.390 . S
C1928 C1922 1.465 . S
C1928 C1927 1.396 . S
C1928 C1929 1.399 . S
C1929 H1915 0.929 . S
C1929 C1928 1.399 . S
C1929 C1930 1.385 . S
C1930 H1916 0.931 . S
C1930 C1929 1.385 . S
C1930 C1931 1.389 . S
C1931 C1930 1.389 . S
C1931 C1932 1.387 . S
C1932 H1917 0.930 . S
C1932 C1927 1.390 . S
C1932 C1931 1.387 . S
H1933 C1945 0.930 . S
H1934 C1947 0.930 . S
H1935 C1948 0.930 . S
H1936 C1952 0.959 . S
H1937 C1952 0.959 . S
H1938 C1952 0.961 . S
H1939 C1953 0.960 . S
H1940 C1953 0.961 . S
H1941 C1953 0.959 . S
H1942 C1956 0.929 . S
H1943 C1957 0.931 . S
H1944 C1959 0.930 . S
C1945 H1933 0.930 . S
C1945 C1946 1.399 . S
C1945 C1950 1.399 . S
C1946 C1945 1.399 . S
C1946 C1947 1.376 . S
C1947 H1934 0.930 . S
C1947 C1946 1.376 . S
C1947 C1948 1.388 . S
C1948 H1935 0.930 . S
C1948 C1947 1.388 . S
C1948 C1949 1.390 . S
C1949 C1948 1.390 . S
C1949 C1950 1.394 . S
C1949 C1955 1.465 . S
C1950 C1945 1.399 . S
C1950 C1949 1.394 . S
C1950 C1951 1.516 . S
C1951 C1950 1.516 . S
C1951 C1952 1.502 . S
C1951 C1953 1.561 . S
C1951 C1954 1.526 . S
C1952 H1936 0.959 . S
C1952 H1937 0.959 . S
C1952 H1938 0.961 . S
C1952 C1951 1.502 . S
C1953 H1939 0.960 . S
C1953 H1940 0.961 . S
C1953 H1941 0.959 . S
C1953 C1951 1.561 . S
C1954 C1951 1.526 . S
C1954 C1955 1.396 . S
C1954 C1959 1.390 . S
C1955 C1949 1.465 . S
C1955 C1954 1.396 . S
C1955 C1956 1.399 . S
C1956 H1942 0.929 . S
C1956 C1955 1.399 . S
C1956 C1957 1.385 . S
C1957 H1943 0.931 . S
C1957 C1956 1.385 . S
C1957 C1958 1.389 . S
C1958 C1957 1.389 . S
C1958 C1959 1.387 . S
C1959 H1944 0.930 . S
C1959 C1954 1.390 . S
C1959 C1958 1.387 . S
H1960 C1972 0.930 . S
H1961 C1974 0.930 . S
H1962 C1975 0.930 . S
H1963 C1979 0.959 . S
H1964 C1979 0.959 . S
H1965 C1979 0.961 . S
H1966 C1980 0.960 . S
H1967 C1980 0.961 . S
H1968 C1980 0.959 . S
H1969 C1983 0.929 . S
H1970 C1984 0.931 . S
H1971 C1986 0.930 . S
C1972 H1960 0.930 . S
C1972 C1973 1.399 . S
C1972 C1977 1.399 . S
C1973 C1972 1.399 . S
C1973 C1974 1.376 . S
C1974 H1961 0.930 . S
C1974 C1973 1.376 . S
C1974 C1975 1.388 . S
C1975 H1962 0.930 . S
C1975 C1974 1.388 . S
C1975 C1976 1.390 . S
C1976 C1975 1.390 . S
C1976 C1977 1.394 . S
C1976 C1982 1.465 . S
C1977 C1972 1.399 . S
C1977 C1976 1.394 . S
C1977 C1978 1.516 . S
C1978 C1977 1.516 . S
C1978 C1979 1.502 . S
C1978 C1980 1.561 . S
C1978 C1981 1.526 . S
C1979 H1963 0.959 . S
C1979 H1964 0.959 . S
C1979 H1965 0.961 . S
C1979 C1978 1.502 . S
C1980 H1966 0.960 . S
C1980 H1967 0.961 . S
C1980 H1968 0.959 . S
C1980 C1978 1.561 . S
C1981 C1978 1.526 . S
C1981 C1982 1.396 . S
C1981 C1986 1.390 . S
C1982 C1976 1.465 . S
C1982 C1981 1.396 . S
C1982 C1983 1.399 . S
C1983 H1969 0.929 . S
C1983 C1982 1.399 . S
C1983 C1984 1.385 . S
C1984 H1970 0.931 . S
C1984 C1983 1.385 . S
C1984 C1985 1.389 . S
C1985 C1984 1.389 . S
C1985 C1986 1.387 . S
C1986 H1971 0.930 . S
C1986 C1981 1.390 . S
C1986 C1985 1.387 . S
H1987 C1999 0.930 . S
H1988 C2001 0.930 . S
H1989 C2002 0.930 . S
H1990 C2006 0.959 . S
H1991 C2006 0.959 . S
H1992 C2006 0.961 . S
H1993 C2007 0.960 . S
H1994 C2007 0.961 . S
H1995 C2007 0.959 . S
H1996 C2010 0.929 . S
H1997 C2011 0.931 . S
H1998 C2013 0.930 . S
C1999 H1987 0.930 . S
C1999 C2000 1.399 . S
C1999 C2004 1.399 . S
C2000 C1999 1.399 . S
C2000 C2001 1.376 . S
C2001 H1988 0.930 . S
C2001 C2000 1.376 . S
C2001 C2002 1.388 . S
C2002 H1989 0.930 . S
C2002 C2001 1.388 . S
C2002 C2003 1.390 . S
C2003 C2002 1.390 . S
C2003 C2004 1.394 . S
C2003 C2009 1.465 . S
C2004 C1999 1.399 . S
C2004 C2003 1.394 . S
C2004 C2005 1.516 . S
C2005 C2004 1.516 . S
C2005 C2006 1.502 . S
C2005 C2007 1.561 . S
C2005 C2008 1.526 . S
C2006 H1990 0.959 . S
C2006 H1991 0.959 . S
C2006 H1992 0.961 . S
C2006 C2005 1.502 . S
C2007 H1993 0.960 . S
C2007 H1994 0.961 . S
C2007 H1995 0.959 . S
C2007 C2005 1.561 . S
C2008 C2005 1.526 . S
C2008 C2009 1.396 . S
C2008 C2013 1.390 . S
C2009 C2003 1.465 . S
C2009 C2008 1.396 . S
C2009 C2010 1.399 . S
C2010 H1996 0.929 . S
C2010 C2009 1.399 . S
C2010 C2011 1.385 . S
C2011 H1997 0.931 . S
C2011 C2010 1.385 . S
C2011 C2012 1.389 . S
C2012 C2011 1.389 . S
C2012 C2013 1.387 . S
C2013 H1998 0.930 . S
C2013 C2008 1.390 . S
C2013 C2012 1.387 . S
H2014 C2026 0.930 . S
H2015 C2028 0.930 . S
H2016 C2029 0.930 . S
H2017 C2033 0.959 . S
H2018 C2033 0.959 . S
H2019 C2033 0.961 . S
H2020 C2034 0.960 . S
H2021 C2034 0.961 . S
H2022 C2034 0.959 . S
H2023 C2037 0.929 . S
H2024 C2038 0.931 . S
H2025 C2040 0.930 . S
C2026 H2014 0.930 . S
C2026 C2027 1.399 . S
C2026 C2031 1.399 . S
C2027 C2026 1.399 . S
C2027 C2028 1.376 . S
C2028 H2015 0.930 . S
C2028 C2027 1.376 . S
C2028 C2029 1.388 . S
C2029 H2016 0.930 . S
C2029 C2028 1.388 . S
C2029 C2030 1.390 . S
C2030 C2029 1.390 . S
C2030 C2031 1.394 . S
C2030 C2036 1.465 . S
C2031 C2026 1.399 . S
C2031 C2030 1.394 . S
C2031 C2032 1.516 . S
C2032 C2031 1.516 . S
C2032 C2033 1.502 . S
C2032 C2034 1.561 . S
C2032 C2035 1.526 . S
C2033 H2017 0.959 . S
C2033 H2018 0.959 . S
C2033 H2019 0.961 . S
C2033 C2032 1.502 . S
C2034 H2020 0.960 . S
C2034 H2021 0.961 . S
C2034 H2022 0.959 . S
C2034 C2032 1.561 . S
C2035 C2032 1.526 . S
C2035 C2036 1.396 . S
C2035 C2040 1.390 . S
C2036 C2030 1.465 . S
C2036 C2035 1.396 . S
C2036 C2037 1.399 . S
C2037 H2023 0.929 . S
C2037 C2036 1.399 . S
C2037 C2038 1.385 . S
C2038 H2024 0.931 . S
C2038 C2037 1.385 . S
C2038 C2039 1.389 . S
C2039 C2038 1.389 . S
C2039 C2040 1.387 . S
C2040 H2025 0.930 . S
C2040 C2035 1.390 . S
C2040 C2039 1.387 . S
H2041 C2053 0.930 . S
H2042 C2055 0.930 . S
H2043 C2056 0.930 . S
H2044 C2060 0.959 . S
H2045 C2060 0.959 . S
H2046 C2060 0.961 . S
H2047 C2061 0.960 . S
H2048 C2061 0.961 . S
H2049 C2061 0.959 . S
H2050 C2064 0.929 . S
H2051 C2065 0.931 . S
H2052 C2067 0.930 . S
C2053 H2041 0.930 . S
C2053 C2054 1.399 . S
C2053 C2058 1.399 . S
C2054 C2053 1.399 . S
C2054 C2055 1.376 . S
C2055 H2042 0.930 . S
C2055 C2054 1.376 . S
C2055 C2056 1.388 . S
C2056 H2043 0.930 . S
C2056 C2055 1.388 . S
C2056 C2057 1.390 . S
C2057 C2056 1.390 . S
C2057 C2058 1.394 . S
C2057 C2063 1.465 . S
C2058 C2053 1.399 . S
C2058 C2057 1.394 . S
C2058 C2059 1.516 . S
C2059 C2058 1.516 . S
C2059 C2060 1.502 . S
C2059 C2061 1.561 . S
C2059 C2062 1.526 . S
C2060 H2044 0.959 . S
C2060 H2045 0.959 . S
C2060 H2046 0.961 . S
C2060 C2059 1.502 . S
C2061 H2047 0.960 . S
C2061 H2048 0.961 . S
C2061 H2049 0.959 . S
C2061 C2059 1.561 . S
C2062 C2059 1.526 . S
C2062 C2063 1.396 . S
C2062 C2067 1.390 . S
C2063 C2057 1.465 . S
C2063 C2062 1.396 . S
C2063 C2064 1.399 . S
C2064 H2050 0.929 . S
C2064 C2063 1.399 . S
C2064 C2065 1.385 . S
C2065 H2051 0.931 . S
C2065 C2064 1.385 . S
C2065 C2066 1.389 . S
C2066 C2065 1.389 . S
C2066 C2067 1.387 . S
C2067 H2052 0.930 . S
C2067 C2062 1.390 . S
C2067 C2066 1.387 . S
H2068 C2080 0.930 . S
H2069 C2082 0.930 . S
H2070 C2083 0.930 . S
H2071 C2087 0.959 . S
H2072 C2087 0.959 . S
H2073 C2087 0.961 . S
H2074 C2088 0.960 . S
H2075 C2088 0.961 . S
H2076 C2088 0.959 . S
H2077 C2091 0.929 . S
H2078 C2092 0.931 . S
H2079 C2094 0.930 . S
C2080 H2068 0.930 . S
C2080 C2081 1.399 . S
C2080 C2085 1.399 . S
C2081 C2080 1.399 . S
C2081 C2082 1.376 . S
C2082 H2069 0.930 . S
C2082 C2081 1.376 . S
C2082 C2083 1.388 . S
C2083 H2070 0.930 . S
C2083 C2082 1.388 . S
C2083 C2084 1.390 . S
C2084 C2083 1.390 . S
C2084 C2085 1.394 . S
C2084 C2090 1.465 . S
C2085 C2080 1.399 . S
C2085 C2084 1.394 . S
C2085 C2086 1.516 . S
C2086 C2085 1.516 . S
C2086 C2087 1.502 . S
C2086 C2088 1.561 . S
C2086 C2089 1.526 . S
C2087 H2071 0.959 . S
C2087 H2072 0.959 . S
C2087 H2073 0.961 . S
C2087 C2086 1.502 . S
C2088 H2074 0.960 . S
C2088 H2075 0.961 . S
C2088 H2076 0.959 . S
C2088 C2086 1.561 . S
C2089 C2086 1.526 . S
C2089 C2090 1.396 . S
C2089 C2094 1.390 . S
C2090 C2084 1.465 . S
C2090 C2089 1.396 . S
C2090 C2091 1.399 . S
C2091 H2077 0.929 . S
C2091 C2090 1.399 . S
C2091 C2092 1.385 . S
C2092 H2078 0.931 . S
C2092 C2091 1.385 . S
C2092 C2093 1.389 . S
C2093 C2092 1.389 . S
C2093 C2094 1.387 . S
C2094 H2079 0.930 . S
C2094 C2089 1.390 . S
C2094 C2093 1.387 . S
H2095 C2107 0.930 . S
H2096 C2109 0.930 . S
H2097 C2110 0.930 . S
H2098 C2114 0.959 . S
H2099 C2114 0.959 . S
H2100 C2114 0.961 . S
H2101 C2115 0.960 . S
H2102 C2115 0.961 . S
H2103 C2115 0.959 . S
H2104 C2118 0.929 . S
H2105 C2119 0.931 . S
H2106 C2121 0.930 . S
C2107 H2095 0.930 . S
C2107 C2108 1.399 . S
C2107 C2112 1.399 . S
C2108 C2107 1.399 . S
C2108 C2109 1.376 . S
C2109 H2096 0.930 . S
C2109 C2108 1.376 . S
C2109 C2110 1.388 . S
C2110 H2097 0.930 . S
C2110 C2109 1.388 . S
C2110 C2111 1.390 . S
C2111 C2110 1.390 . S
C2111 C2112 1.394 . S
C2111 C2117 1.465 . S
C2112 C2107 1.399 . S
C2112 C2111 1.394 . S
C2112 C2113 1.516 . S
C2113 C2112 1.516 . S
C2113 C2114 1.502 . S
C2113 C2115 1.561 . S
C2113 C2116 1.526 . S
C2114 H2098 0.959 . S
C2114 H2099 0.959 . S
C2114 H2100 0.961 . S
C2114 C2113 1.502 . S
C2115 H2101 0.960 . S
C2115 H2102 0.961 . S
C2115 H2103 0.959 . S
C2115 C2113 1.561 . S
C2116 C2113 1.526 . S
C2116 C2117 1.396 . S
C2116 C2121 1.390 . S
C2117 C2111 1.465 . S
C2117 C2116 1.396 . S
C2117 C2118 1.399 . S
C2118 H2104 0.929 . S
C2118 C2117 1.399 . S
C2118 C2119 1.385 . S
C2119 H2105 0.931 . S
C2119 C2118 1.385 . S
C2119 C2120 1.389 . S
C2120 C2119 1.389 . S
C2120 C2121 1.387 . S
C2121 H2106 0.930 . S
C2121 C2116 1.390 . S
C2121 C2120 1.387 . S
H2122 C2134 0.930 . S
H2123 C2136 0.930 . S
H2124 C2137 0.930 . S
H2125 C2141 0.959 . S
H2126 C2141 0.959 . S
H2127 C2141 0.961 . S
H2128 C2142 0.960 . S
H2129 C2142 0.961 . S
H2130 C2142 0.959 . S
H2131 C2145 0.929 . S
H2132 C2146 0.931 . S
H2133 C2148 0.930 . S
C2134 H2122 0.930 . S
C2134 C2135 1.399 . S
C2134 C2139 1.399 . S
C2135 C2134 1.399 . S
C2135 C2136 1.376 . S
C2136 H2123 0.930 . S
C2136 C2135 1.376 . S
C2136 C2137 1.388 . S
C2137 H2124 0.930 . S
C2137 C2136 1.388 . S
C2137 C2138 1.390 . S
C2138 C2137 1.390 . S
C2138 C2139 1.394 . S
C2138 C2144 1.465 . S
C2139 C2134 1.399 . S
C2139 C2138 1.394 . S
C2139 C2140 1.516 . S
C2140 C2139 1.516 . S
C2140 C2141 1.502 . S
C2140 C2142 1.561 . S
C2140 C2143 1.526 . S
C2141 H2125 0.959 . S
C2141 H2126 0.959 . S
C2141 H2127 0.961 . S
C2141 C2140 1.502 . S
C2142 H2128 0.960 . S
C2142 H2129 0.961 . S
C2142 H2130 0.959 . S
C2142 C2140 1.561 . S
C2143 C2140 1.526 . S
C2143 C2144 1.396 . S
C2143 C2148 1.390 . S
C2144 C2138 1.465 . S
C2144 C2143 1.396 . S
C2144 C2145 1.399 . S
C2145 H2131 0.929 . S
C2145 C2144 1.399 . S
C2145 C2146 1.385 . S
C2146 H2132 0.931 . S
C2146 C2145 1.385 . S
C2146 C2147 1.389 . S
C2147 C2146 1.389 . S
C2147 C2148 1.387 . S
C2148 H2133 0.930 . S
C2148 C2143 1.390 . S
C2148 C2147 1.387 . S
H2149 C2161 0.930 . S
H2150 C2163 0.930 . S
H2151 C2164 0.930 . S
H2152 C2168 0.959 . S
H2153 C2168 0.959 . S
H2154 C2168 0.961 . S
H2155 C2169 0.960 . S
H2156 C2169 0.961 . S
H2157 C2169 0.959 . S
H2158 C2172 0.929 . S
H2159 C2173 0.931 . S
H2160 C2175 0.930 . S
C2161 H2149 0.930 . S
C2161 C2162 1.399 . S
C2161 C2166 1.399 . S
C2162 C2161 1.399 . S
C2162 C2163 1.376 . S
C2163 H2150 0.930 . S
C2163 C2162 1.376 . S
C2163 C2164 1.388 . S
C2164 H2151 0.930 . S
C2164 C2163 1.388 . S
C2164 C2165 1.390 . S
C2165 C2164 1.390 . S
C2165 C2166 1.394 . S
C2165 C2171 1.465 . S
C2166 C2161 1.399 . S
C2166 C2165 1.394 . S
C2166 C2167 1.516 . S
C2167 C2166 1.516 . S
C2167 C2168 1.502 . S
C2167 C2169 1.561 . S
C2167 C2170 1.526 . S
C2168 H2152 0.959 . S
C2168 H2153 0.959 . S
C2168 H2154 0.961 . S
C2168 C2167 1.502 . S
C2169 H2155 0.960 . S
C2169 H2156 0.961 . S
C2169 H2157 0.959 . S
C2169 C2167 1.561 . S
C2170 C2167 1.526 . S
C2170 C2171 1.396 . S
C2170 C2175 1.390 . S
C2171 C2165 1.465 . S
C2171 C2170 1.396 . S
C2171 C2172 1.399 . S
C2172 H2158 0.929 . S
C2172 C2171 1.399 . S
C2172 C2173 1.385 . S
C2173 H2159 0.931 . S
C2173 C2172 1.385 . S
C2173 C2174 1.389 . S
C2174 C2173 1.389 . S
C2174 C2175 1.387 . S
C2175 H2160 0.930 . S
C2175 C2170 1.390 . S
C2175 C2174 1.387 . S
C461 C67 1.451 . S
C473 C11 1.464 . S
C488 C81 1.463 . S
C500 C25 1.451 . S
C515 C95 1.497 . S
C527 C39 1.482 . S
C542 C53 1.457 . S
C554 C109 1.450 . S
C569 C123 1.488 . S
C581 C179 1.490 . S
C596 C193 1.499 . S
C608 C137 1.500 . S
C623 C151 1.457 . S
C635 C207 1.456 . S
C650 C221 1.497 . S
C662 C165 1.495 . S
C677 C235 1.454 . S
C689 C291 1.469 . S
C704 C305 1.485 . S
C716 C249 1.498 . S
C731 C319 1.455 . S
C743 C263 1.472 . S
C758 C333 1.462 . S
C770 C277 1.451 . S
C785 C347 1.460 . S
C797 C403 1.458 . S
C812 C361 1.494 . S
C824 C417 1.492 . S
C839 C375 1.456 . S
C851 C431 1.455 . S
C866 C389 1.499 . S
C878 C445 1.497 . S
C893 C12 0.908 . S
C905 C110 0.882 . S
C920 C26 0.878 . S
C932 C68 0.907 . S
C947 C40 0.896 . S
C959 C82 0.856 . S
C974 C96 0.859 . S
C986 C54 0.898 . S
C1001 C222 0.845 . S
C1013 C124 0.894 . S
C1028 C180 0.907 . S
C1040 C138 0.857 . S
C1055 C194 0.849 . S
C1067 C152 0.875 . S
C1082 C166 0.907 . S
C1094 C208 0.857 . S
C1109 C334 0.865 . S
C1121 C236 0.903 . S
C1136 C292 0.872 . S
C1148 C250 0.846 . S
C1163 C306 0.874 . S
C1175 C264 0.907 . S
C1190 C278 0.901 . S
C1202 C320 0.862 . S
C1217 C348 0.845 . S
C1229 C446 0.887 . S
C1244 C362 0.901 . S
C1256 C404 0.886 . S
C1271 C376 0.903 . S
C1283 C418 0.850 . S
C1298 C432 0.848 . S
C1310 C390 0.901 . S
C1325 C4 1.445 . S
C1337 C355 1.389 . S
C1352 C18 1.468 . S
C1364 C145 1.421 . S
C1379 C32 1.481 . S
C1391 C383 1.380 . S
C1406 C117 1.354 . S
C1418 C46 1.472 . S
C1433 C439 1.310 . S
C1445 C60 1.435 . S
C1460 C74 1.487 . S
C1472 C173 1.410 . S
C1487 C88 1.436 . S
C1499 C411 1.371 . S
C1514 C102 1.451 . S
C1526 C201 1.401 . S
C1541 C243 1.321 . S
C1553 C116 1.430 . S
C1568 C33 1.312 . S
C1580 C130 1.430 . S
C1595 C271 1.411 . S
C1607 C144 1.475 . S
C1622 C158 1.463 . S
C1634 C5 1.373 . S
C1649 C327 1.388 . S
C1661 C172 1.471 . S
C1676 C61 1.325 . S
C1688 C186 1.432 . S
C1703 C299 1.361 . S
C1715 C200 1.448 . S
C1730 C89 1.398 . S
C1742 C214 1.475 . S
C1757 C131 1.334 . S
C1769 C228 1.461 . S
C1784 C242 1.474 . S
C1796 C369 1.360 . S
C1811 C256 1.471 . S
C1823 C159 1.353 . S
C1838 C270 1.486 . S
C1850 C341 1.401 . S
C1865 C284 1.448 . S
C1877 C215 1.319 . S
C1892 C397 1.404 . S
C1904 C298 1.453 . S
C1919 C312 1.434 . S
C1931 C187 1.367 . S
C1946 C326 1.427 . S
C1958 C425 1.320 . S
C1973 C340 1.460 . S
C1985 C19 1.384 . S
C2000 C354 1.431 . S
C2012 C257 1.326 . S
C2027 C47 1.387 . S
C2039 C368 1.470 . S
C2054 C229 1.327 . S
C2066 C382 1.433 . S
C2081 C396 1.442 . S
C2093 C103 1.333 . S
C2108 C410 1.443 . S
C2120 C285 1.336 . S
C2135 C75 1.353 . S
C2147 C424 1.453 . S
C2162 C313 1.315 . S
C2174 C438 1.428 . S
