# Generated by pormake.
# Topology zga, (5)-cn, num edge types: 1
# Building blocks:
#     Node 0, Type 0, BuildingBlock: BEQFEK_clean_sbu_0, # of connection points: 5
#     Node 1, Type 0, BuildingBlock: BEQFEK_clean_sbu_0, # of connection points: 5
#     Node 2, Type 0, BuildingBlock: BEQFEK_clean_sbu_0, # of connection points: 5
#     Node 3, Type 0, BuildingBlock: BEQFEK_clean_sbu_0, # of connection points: 5
#     Node 4, Type 0, BuildingBlock: BEQFEK_clean_sbu_0, # of connection points: 5
#     Node 5, Type 0, BuildingBlock: BEQFEK_clean_sbu_0, # of connection points: 5
#     Node 6, Type 0, BuildingBlock: BEQFEK_clean_sbu_0, # of connection points: 5
#     Node 7, Type 0, BuildingBlock: BEQFEK_clean_sbu_0, # of connection points: 5
#     Node 8, Type 0, BuildingBlock: BEQFEK_clean_sbu_0, # of connection points: 5
#     Node 9, Type 0, BuildingBlock: BEQFEK_clean_sbu_0, # of connection points: 5
#     Node 10, Type 0, BuildingBlock: BEQFEK_clean_sbu_0, # of connection points: 5
#     Node 11, Type 0, BuildingBlock: BEQFEK_clean_sbu_0, # of connection points: 5
#     Node 12, Type 0, BuildingBlock: BEQFEK_clean_sbu_0, # of connection points: 5
#     Node 13, Type 0, BuildingBlock: BEQFEK_clean_sbu_0, # of connection points: 5
#     Node 14, Type 0, BuildingBlock: BEQFEK_clean_sbu_0, # of connection points: 5
#     Node 15, Type 0, BuildingBlock: BEQFEK_clean_sbu_0, # of connection points: 5
#     Edge 16, Type (0, 0), BuildingBlock: UVAHIK_clean_linker_0, # of connection points: 2
#     Edge 17, Type (0, 0), BuildingBlock: UVAHIK_clean_linker_0, # of connection points: 2
#     Edge 18, Type (0, 0), BuildingBlock: UVAHIK_clean_linker_0, # of connection points: 2
#     Edge 19, Type (0, 0), BuildingBlock: UVAHIK_clean_linker_0, # of connection points: 2
#     Edge 20, Type (0, 0), BuildingBlock: UVAHIK_clean_linker_0, # of connection points: 2
#     Edge 21, Type (0, 0), BuildingBlock: UVAHIK_clean_linker_0, # of connection points: 2
#     Edge 22, Type (0, 0), BuildingBlock: UVAHIK_clean_linker_0, # of connection points: 2
#     Edge 23, Type (0, 0), BuildingBlock: UVAHIK_clean_linker_0, # of connection points: 2
#     Edge 24, Type (0, 0), BuildingBlock: UVAHIK_clean_linker_0, # of connection points: 2
#     Edge 25, Type (0, 0), BuildingBlock: UVAHIK_clean_linker_0, # of connection points: 2
#     Edge 26, Type (0, 0), BuildingBlock: UVAHIK_clean_linker_0, # of connection points: 2
#     Edge 27, Type (0, 0), BuildingBlock: UVAHIK_clean_linker_0, # of connection points: 2
#     Edge 28, Type (0, 0), BuildingBlock: UVAHIK_clean_linker_0, # of connection points: 2
#     Edge 29, Type (0, 0), BuildingBlock: UVAHIK_clean_linker_0, # of connection points: 2
#     Edge 30, Type (0, 0), BuildingBlock: UVAHIK_clean_linker_0, # of connection points: 2
#     Edge 31, Type (0, 0), BuildingBlock: UVAHIK_clean_linker_0, # of connection points: 2
#     Edge 32, Type (0, 0), BuildingBlock: UVAHIK_clean_linker_0, # of connection points: 2
#     Edge 33, Type (0, 0), BuildingBlock: UVAHIK_clean_linker_0, # of connection points: 2
#     Edge 34, Type (0, 0), BuildingBlock: UVAHIK_clean_linker_0, # of connection points: 2
#     Edge 35, Type (0, 0), BuildingBlock: UVAHIK_clean_linker_0, # of connection points: 2
#     Edge 36, Type (0, 0), BuildingBlock: UVAHIK_clean_linker_0, # of connection points: 2
#     Edge 37, Type (0, 0), BuildingBlock: UVAHIK_clean_linker_0, # of connection points: 2
#     Edge 38, Type (0, 0), BuildingBlock: UVAHIK_clean_linker_0, # of connection points: 2
#     Edge 39, Type (0, 0), BuildingBlock: UVAHIK_clean_linker_0, # of connection points: 2
#     Edge 40, Type (0, 0), BuildingBlock: UVAHIK_clean_linker_0, # of connection points: 2
#     Edge 41, Type (0, 0), BuildingBlock: UVAHIK_clean_linker_0, # of connection points: 2
#     Edge 42, Type (0, 0), BuildingBlock: UVAHIK_clean_linker_0, # of connection points: 2
#     Edge 43, Type (0, 0), BuildingBlock: UVAHIK_clean_linker_0, # of connection points: 2
#     Edge 44, Type (0, 0), BuildingBlock: UVAHIK_clean_linker_0, # of connection points: 2
#     Edge 45, Type (0, 0), BuildingBlock: UVAHIK_clean_linker_0, # of connection points: 2
#     Edge 46, Type (0, 0), BuildingBlock: UVAHIK_clean_linker_0, # of connection points: 2
#     Edge 47, Type (0, 0), BuildingBlock: UVAHIK_clean_linker_0, # of connection points: 2
#     Edge 48, Type (0, 0), BuildingBlock: UVAHIK_clean_linker_0, # of connection points: 2
#     Edge 49, Type (0, 0), BuildingBlock: UVAHIK_clean_linker_0, # of connection points: 2
#     Edge 50, Type (0, 0), BuildingBlock: UVAHIK_clean_linker_0, # of connection points: 2
#     Edge 51, Type (0, 0), BuildingBlock: UVAHIK_clean_linker_0, # of connection points: 2
#     Edge 52, Type (0, 0), BuildingBlock: UVAHIK_clean_linker_0, # of connection points: 2
#     Edge 53, Type (0, 0), BuildingBlock: UVAHIK_clean_linker_0, # of connection points: 2
#     Edge 54, Type (0, 0), BuildingBlock: UVAHIK_clean_linker_0, # of connection points: 2
#     Edge 55, Type (0, 0), BuildingBlock: UVAHIK_clean_linker_0, # of connection points: 2
# Relax obj value: 0.156
# Max RMSD: 0.221
# Mean RMSD: 0.176
data_MOF--net-zga--node1-BEQFEK_clean_sbu_0--edge1-UVAHIK_clean_linker_0
_symmetry_space_group_name_H-M    P1
_symmetry_Int_Tables_number       1
_symmetry_cell_setting            triclinic
loop_
_symmetry_equiv_pos_as_xyz
'x, y, z'
_cell_length_a     67.60071
_cell_length_b     114.96381
_cell_length_c     23.248
_cell_angle_alpha  91.148183
_cell_angle_beta   90.075016
_cell_angle_gamma 101.06344
loop_
_atom_site_label
_atom_site_type_symbol
_atom_site_fract_x
_atom_site_fract_y
_atom_site_fract_z
_atom_type_partial_charge
Co0 Co 0.07736 0.53813 0.09061 0.0
Co1 Co 0.06209 0.53768 0.21769 0.0
C2 C 0.07508 0.56047 0.15444 0.0
O3 O 0.07919 0.55503 0.10927 0.0
O4 O 0.06847 0.55485 0.19928 0.0
C5 C 0.10026 0.54541 0.98963 0.0
O6 O 0.10673 0.55512 0.02025 0.0
C7 C 0.06971 0.54163 0.34061 0.0
C8 C 0.04188 0.53161 0.3791 0.0
C9 C 0.06059 0.5384 0.39276 0.0
N10 N 0.05712 0.53679 0.29808 0.0
N11 N 0.04045 0.53087 0.32131 0.0
C12 C 0.08962 0.54966 0.3311 0.0
H13 H 0.10197 0.54464 0.33561 0.0
H14 H 0.09208 0.557 0.36368 0.0
H15 H 0.09043 0.55331 0.28726 0.0
C16 C 0.10619 0.52478 0.1417 0.0
N17 N 0.09088 0.5307 0.14608 0.0
N18 N 0.0837 0.52982 0.19873 0.0
C19 C 0.09374 0.52288 0.22897 0.0
C20 C 0.10853 0.51962 0.19417 0.0
C21 C 0.11841 0.5243 0.0884 0.0
H22 H 0.10958 0.518 0.05687 0.0
H23 H 0.12166 0.53317 0.06879 0.0
H24 H 0.13285 0.52146 0.09771 0.0
O25 O 0.04857 0.53035 0.08596 0.0
O26 O 0.03738 0.52997 0.17581 0.0
H27 H 0.07108 0.51721 0.29281 0.0
H28 H 0.09149 0.50916 0.29203 0.0
C29 C 0.08754 0.51802 0.28695 0.0
H30 H 0.09558 0.524 0.32096 0.0
H31 H 0.02819 0.52624 0.29772 0.0
O32 O 0.08846 0.53681 0.01254 0.0
C33 C 0.03442 0.52768 0.1223 0.0
Co34 Co 0.14312 0.70948 0.20015 0.0
Co35 Co 0.12815 0.71022 0.07371 0.0
C36 C 0.12197 0.68758 0.13726 0.0
O37 O 0.12989 0.69299 0.18234 0.0
O38 O 0.12068 0.69306 0.09073 0.0
C39 C 0.15869 0.70082 0.30269 0.0
O40 O 0.15449 0.69044 0.27616 0.0
C41 C 0.1294 0.70666 0.94928 0.0
C42 C 0.11507 0.72114 0.91849 0.0
C43 C 0.12484 0.7122 0.89988 0.0
N44 N 0.12288 0.7122 0.99483 0.0
N45 N 0.11396 0.72068 0.97615 0.0
C46 C 0.14168 0.69719 0.95412 0.0
H47 H 0.1479 0.69711 -0.0017 0.0
H48 H 0.15414 0.69852 0.92243 0.0
H49 H 0.1319 0.68844 0.94482 0.0
C50 C 0.18228 0.71931 0.1466 0.0
N51 N 0.16228 0.71518 0.14349 0.0
N52 N 0.15591 0.71629 0.09075 0.0
C53 C 0.17165 0.72162 0.05901 0.0
C54 C 0.18893 0.72354 0.09308 0.0
C55 C 0.1947 0.71873 0.19941 0.0
H56 H 0.19227 0.72575 0.23055 0.0
H57 H 0.18981 0.71003 0.21993 0.0
H58 H 0.21099 0.7199 0.18928 0.0
O59 O 0.12268 0.71971 0.20659 0.0
O60 O 0.11077 0.71917 0.11745 0.0
H61 H 0.15527 0.72881 0.99361 0.0
H62 H 0.18217 0.73367 0.99056 0.0
C63 C 0.16991 0.72601 -0.00065 0.0
H64 H 0.17106 0.71883 0.96773 0.0
H65 H 0.10799 0.72653 0.00291 0.0
O66 O 0.15578 0.71 0.27689 0.0
C67 C 0.11057 0.72255 0.16984 0.0
Co68 Co 0.80694 0.44592 0.93503 0.0
Co69 Co 0.82057 0.45117 0.80832 0.0
C70 C 0.8207 0.42756 0.86119 0.0
O71 O 0.81403 0.43078 0.90887 0.0
O72 O 0.82369 0.43454 0.81898 0.0
C73 C 0.78988 0.43411 0.03688 0.0
O74 O 0.79033 0.42428 0.00753 0.0
C75 C 0.81575 0.44733 0.68543 0.0
C76 C 0.83486 0.46329 0.64952 0.0
C77 C 0.82189 0.45282 0.63426 0.0
N78 N 0.82443 0.45431 0.72897 0.0
N79 N 0.83594 0.46382 0.70742 0.0
C80 C 0.8029 0.43534 0.69372 0.0
H81 H 0.81288 0.42881 0.69854 0.0
H82 H 0.79398 0.43534 0.73378 0.0
H83 H 0.79273 0.43244 0.65667 0.0
C84 C 0.77086 0.45426 0.89332 0.0
N85 N 0.78883 0.45114 0.88429 0.0
N86 N 0.79465 0.45365 0.83126 0.0
C87 C 0.7806 0.45858 0.80489 0.0
C88 C 0.76506 0.45911 0.8433 0.0
C89 C 0.76071 0.45377 0.95063 0.0
H90 H 0.77109 0.45906 0.98263 0.0
H91 H 0.75746 0.44447 0.96512 0.0
H92 H 0.74651 0.45725 0.94911 0.0
O93 O 0.83196 0.458 0.94238 0.0
O94 O 0.84198 0.46186 0.85269 0.0
H95 H 0.79705 0.46888 0.73849 0.0
H96 H 0.77001 0.46768 0.73328 0.0
C97 C 0.78225 0.46293 0.74446 0.0
H98 H 0.78123 0.45526 0.71434 0.0
H99 H 0.8444 0.47068 0.7322 0.0
O100 O 0.7956 0.44404 0.01318 0.0
C101 C 0.84444 0.46356 0.90677 0.0
Co102 Co 0.91669 0.30271 0.91177 0.0
Co103 Co 0.90164 0.29719 0.7851 0.0
C104 C 0.90182 0.32087 0.84461 0.0
O105 O 0.9095 0.31786 0.89064 0.0
O106 O 0.89818 0.31374 0.80161 0.0
C107 C 0.93412 0.3141 0.01646 0.0
O108 O 0.93364 0.32399 0.9896 0.0
C109 C 0.90813 0.30078 0.66281 0.0
C110 C 0.88471 0.28688 0.623 0.0
C111 C 0.90052 0.29605 0.6102 0.0
N112 N 0.89752 0.29458 0.7047 0.0
N113 N 0.8835 0.2863 0.68074 0.0
C114 C 0.92443 0.31142 0.67353 0.0
H115 H 0.92344 0.31504 0.71775 0.0
H116 H 0.93937 0.30889 0.66895 0.0
H117 H 0.92341 0.31835 0.64167 0.0
C118 C 0.95286 0.29503 0.86408 0.0
N119 N 0.93444 0.2977 0.85805 0.0
N120 N 0.92763 0.29464 0.80582 0.0
C121 C 0.94118 0.28948 0.77759 0.0
C122 C 0.95779 0.28972 0.81319 0.0
C123 C 0.96525 0.29744 0.9179 0.0
H124 H 0.96381 0.30618 0.93673 0.0
H125 H 0.98138 0.2974 0.90932 0.0
H126 H 0.95952 0.29055 0.94971 0.0
O127 O 0.89135 0.29072 0.91695 0.0
O128 O 0.88078 0.28628 0.82722 0.0
H129 H 0.94506 0.2752 0.71937 0.0
H130 H 0.9421 0.28867 0.68554 0.0
C131 C 0.93695 0.28272 0.72169 0.0
H132 H 0.92059 0.27917 0.71675 0.0
H133 H 0.87312 0.28027 0.70378 0.0
O134 O 0.92839 0.30422 0.99018 0.0
C135 C 0.87867 0.28491 0.88125 0.0
Co136 Co 0.07271 0.03741 0.58892 0.0
Co137 Co 0.05957 0.03795 0.7176 0.0
C138 C 0.07447 0.06029 0.65371 0.0
O139 O 0.07687 0.05446 0.60807 0.0
O140 O 0.06805 0.05504 0.69969 0.0
C141 C 0.09653 0.04367 0.48853 0.0
O142 O 0.10502 0.05284 0.52042 0.0
C143 C 0.06689 0.04257 0.83985 0.0
C144 C 0.04056 0.03119 0.8795 0.0
C145 C 0.05841 0.03897 0.89232 0.0
N146 N 0.05475 0.03703 0.79792 0.0
N147 N 0.03894 0.03032 0.82176 0.0
C148 C 0.08557 0.05158 0.82891 0.0
H149 H 0.08127 0.06033 0.82337 0.0
H150 H 0.09282 0.04931 0.78849 0.0
H151 H 0.09642 0.05241 0.86519 0.0
C152 C 0.10023 0.02287 0.63674 0.0
N153 N 0.08564 0.02928 0.64275 0.0
N154 N 0.07979 0.02912 0.69676 0.0
C155 C 0.09027 0.02235 0.7267 0.0
C156 C 0.10364 0.01825 0.68968 0.0
C157 C 0.11015 0.02092 0.58082 0.0
H158 H 0.09845 0.01778 0.54761 0.0
H159 H 0.11915 0.02947 0.56656 0.0
H160 H 0.12011 0.01434 0.58455 0.0
O161 O 0.04349 0.03085 0.58622 0.0
O162 O 0.03386 0.03132 0.67733 0.0
H163 H 0.07186 0.01806 0.80127 0.0
H164 H 0.09539 0.01286 0.80355 0.0
C165 C 0.08805 0.02018 0.78989 0.0
H166 H 0.09525 0.0283 0.81401 0.0
H167 H 0.02723 0.025 0.79864 0.0
O168 O 0.08301 0.03577 0.51027 0.0
C169 C 0.02981 0.02898 0.62434 0.0
Co170 Co 0.14126 0.20983 0.69386 0.0
Co171 Co 0.12828 0.21005 0.5648 0.0
C172 C 0.12204 0.18757 0.62924 0.0
O173 O 0.12948 0.19316 0.67441 0.0
O174 O 0.12068 0.19293 0.58245 0.0
C175 C 0.15801 0.20108 0.79359 0.0
O176 O 0.1571 0.19143 0.76169 0.0
C177 C 0.12856 0.20533 0.44029 0.0
C178 C 0.11879 0.2212 0.40694 0.0
C179 C 0.12555 0.21103 0.38973 0.0
N180 N 0.12411 0.21197 0.48493 0.0
N181 N 0.11788 0.22131 0.46469 0.0
C182 C 0.13761 0.19451 0.44694 0.0
H183 H 0.14388 0.19424 0.49091 0.0
H184 H 0.1497 0.19435 0.41486 0.0
H185 H 0.12572 0.1865 0.43989 0.0
C186 C 0.18048 0.22147 0.64577 0.0
N187 N 0.16097 0.21623 0.63968 0.0
N188 N 0.15573 0.21625 0.58514 0.0
C189 C 0.17184 0.22149 0.55463 0.0
C190 C 0.18806 0.225 0.59206 0.0
C191 C 0.19111 0.22369 0.70259 0.0
H192 H 0.1812 0.22704 0.73433 0.0
H193 H 0.19432 0.21521 0.71849 0.0
H194 H 0.20544 0.23021 0.69931 0.0
O195 O 0.11975 0.21921 0.69737 0.0
O196 O 0.11039 0.21929 0.60587 0.0
H197 H 0.1605 0.22785 0.47769 0.0
H198 H 0.18682 0.22682 0.4737 0.0
C199 C 0.17191 0.22263 0.49056 0.0
H200 H 0.16794 0.2137 0.47041 0.0
H201 H 0.11385 0.22802 0.49039 0.0
O202 O 0.15279 0.21012 0.77211 0.0
C203 C 0.10869 0.22229 0.6584 0.0
Co204 Co 0.80471 0.94551 0.44962 0.0
Co205 Co 0.81869 0.95092 0.32322 0.0
C206 C 0.82312 0.92833 0.38095 0.0
O207 O 0.81513 0.93118 0.42731 0.0
O208 O 0.82521 0.93512 0.33796 0.0
C209 C 0.78848 0.93331 0.55081 0.0
O210 O 0.79008 0.92371 0.52099 0.0
C211 C 0.81325 0.9466 0.20011 0.0
C212 C 0.8339 0.96184 0.16311 0.0
C213 C 0.81999 0.9517 0.14847 0.0
N214 N 0.82251 0.9535 0.24326 0.0
N215 N 0.8349 0.96258 0.22097 0.0
C216 C 0.79913 0.93503 0.20862 0.0
H217 H 0.80083 0.93168 0.25234 0.0
H218 H 0.78335 0.93624 0.20372 0.0
H219 H 0.80189 0.92838 0.17579 0.0
C220 C 0.76656 0.95049 0.40253 0.0
N221 N 0.78565 0.94889 0.3961 0.0
N222 N 0.79175 0.95177 0.34365 0.0
C223 C 0.77686 0.95562 0.31548 0.0
C224 C 0.76031 0.95477 0.35153 0.0
C225 C 0.75487 0.94828 0.45712 0.0
H226 H 0.75678 0.93967 0.4748 0.0
H227 H 0.7386 0.94815 0.45005 0.0
H228 H 0.76092 0.95534 0.48924 0.0
O229 O 0.82779 0.95903 0.45641 0.0
O230 O 0.83794 0.96304 0.36692 0.0
H231 H 0.76942 0.96837 0.25598 0.0
H232 H 0.77542 0.95521 0.22346 0.0
C233 C 0.77943 0.9618 0.25904 0.0
H234 H 0.79523 0.96646 0.25378 0.0
H235 H 0.84398 0.96928 0.24523 0.0
O236 O 0.7931 0.94337 0.52751 0.0
C237 C 0.83967 0.96511 0.42091 0.0
Co238 Co 0.91784 0.80223 0.4243 0.0
Co239 Co 0.90491 0.79962 0.29489 0.0
C240 C 0.9063 0.82235 0.35978 0.0
O241 O 0.91182 0.81797 0.40558 0.0
O242 O 0.90344 0.81627 0.3132 0.0
C243 C 0.93771 0.81306 0.52647 0.0
O244 O 0.9403 0.82282 0.49668 0.0
C245 C 0.90907 0.80455 0.17301 0.0
C246 C 0.89051 0.78858 0.13226 0.0
C247 C 0.90304 0.79926 0.12021 0.0
N248 N 0.90075 0.79725 0.21443 0.0
N249 N 0.8895 0.78776 0.18994 0.0
C250 C 0.9218 0.81653 0.18477 0.0
H251 H 0.91172 0.82291 0.19351 0.0
H252 H 0.93123 0.81632 0.2237 0.0
H253 H 0.93144 0.81977 0.14771 0.0
C254 C 0.95258 0.79288 0.37869 0.0
N255 N 0.93551 0.79708 0.3711 0.0
N256 N 0.93027 0.79601 0.31646 0.0
C257 C 0.94408 0.79123 0.28721 0.0
C258 C 0.95862 0.78901 0.32572 0.0
C259 C 0.96139 0.79136 0.43656 0.0
H260 H 0.94921 0.78733 0.46608 0.0
H261 H 0.96835 0.8002 0.4547 0.0
H262 H 0.97288 0.78566 0.43433 0.0
O263 O 0.89239 0.79055 0.4261 0.0
O264 O 0.88241 0.78914 0.33466 0.0
H265 H 0.92928 0.78264 0.21188 0.0
H266 H 0.95653 0.78533 0.2079 0.0
C267 C 0.94339 0.78891 0.22352 0.0
H268 H 0.94349 0.79733 0.20124 0.0
H269 H 0.88143 0.78066 0.21257 0.0
O270 O 0.92914 0.80332 0.50295 0.0
C271 C 0.87965 0.78629 0.38716 0.0
Co272 Co 0.57614 0.53881 0.59299 0.0
Co273 Co 0.55998 0.53848 0.71885 0.0
C274 C 0.5758 0.56126 0.65961 0.0
O275 O 0.57935 0.55567 0.61425 0.0
O276 O 0.56851 0.55579 0.70427 0.0
C277 C 0.59855 0.54589 0.48985 0.0
O278 O 0.60343 0.5563 0.51579 0.0
C279 C 0.56321 0.54166 0.84364 0.0
C280 C 0.53774 0.52804 0.87281 0.0
C281 C 0.55412 0.53634 0.89251 0.0
N282 N 0.55282 0.53658 0.79741 0.0
N283 N 0.53738 0.52863 0.81512 0.0
C284 C 0.58264 0.55041 0.83995 0.0
H285 H 0.58927 0.55009 0.79643 0.0
H286 H 0.59354 0.54861 0.8728 0.0
H287 H 0.57968 0.55946 0.8481 0.0
C288 C 0.60318 0.52449 0.64429 0.0
N289 N 0.58808 0.53057 0.64829 0.0
N290 N 0.58096 0.52995 0.70104 0.0
C291 C 0.59107 0.52313 0.732 0.0
C292 C 0.60556 0.51955 0.69712 0.0
C293 C 0.61463 0.52322 0.59022 0.0
H294 H 0.6039 0.51938 0.55556 0.0
H295 H 0.62238 0.53212 0.57646 0.0
H296 H 0.62586 0.51746 0.59604 0.0
O297 O 0.54719 0.532 0.58433 0.0
O298 O 0.53539 0.5319 0.67328 0.0
H299 H 0.571 0.51793 0.80223 0.0
H300 H 0.59468 0.513 0.80781 0.0
C301 C 0.5874 0.52035 0.79417 0.0
H302 H 0.59377 0.52828 0.8208 0.0
H303 H 0.52716 0.52321 0.7877 0.0
O304 O 0.58795 0.53732 0.51624 0.0
C305 C 0.53264 0.5298 0.6196 0.0
Co306 Co 0.64116 0.71116 0.69159 0.0
Co307 Co 0.62733 0.71056 0.56287 0.0
C308 C 0.62182 0.68849 0.63102 0.0
O309 O 0.62956 0.69433 0.67522 0.0
O310 O 0.62005 0.69361 0.58376 0.0
C311 C 0.65884 0.70321 0.7914 0.0
O312 O 0.65901 0.69373 0.75905 0.0
C313 C 0.62758 0.70453 0.44019 0.0
C314 C 0.61533 0.71907 0.40139 0.0
C315 C 0.62322 0.7091 0.38798 0.0
N316 N 0.6228 0.7116 0.48253 0.0
N317 N 0.61522 0.72019 0.45914 0.0
C318 C 0.63546 0.69342 0.45039 0.0
H319 H 0.62248 0.68609 0.45756 0.0
H320 H 0.64502 0.69446 0.48969 0.0
H321 H 0.64401 0.69091 0.41303 0.0
C322 C 0.68006 0.72251 0.64022 0.0
N323 N 0.66051 0.71726 0.63575 0.0
N324 N 0.65486 0.71695 0.58143 0.0
C325 C 0.67074 0.72197 0.54945 0.0
C326 C 0.68724 0.72569 0.58567 0.0
C327 C 0.69114 0.72502 0.69622 0.0
H328 H 0.68142 0.72842 0.72835 0.0
H329 H 0.69468 0.71665 0.71252 0.0
H330 H 0.70534 0.7316 0.69154 0.0
O331 O 0.61943 0.72037 0.69386 0.0
O332 O 0.60949 0.72003 0.60269 0.0
H333 H 0.65843 0.72747 0.47182 0.0
H334 H 0.68496 0.72699 0.46711 0.0
C335 C 0.67033 0.72264 0.48517 0.0
H336 H 0.6668 0.71355 0.46656 0.0
H337 H 0.61048 0.72698 0.48256 0.0
O338 O 0.65286 0.71202 0.76995 0.0
C339 C 0.60807 0.72324 0.65506 0.0
Co340 Co 0.30777 0.44613 0.43994 0.0
Co341 Co 0.3209 0.45092 0.31248 0.0
C342 C 0.3246 0.4283 0.37089 0.0
O343 O 0.31726 0.43149 0.41763 0.0
O344 O 0.32662 0.43493 0.32731 0.0
C345 C 0.29075 0.43419 0.54079 0.0
O346 O 0.29113 0.42452 0.51013 0.0
C347 C 0.31461 0.44651 0.18969 0.0
C348 C 0.33591 0.46134 0.15166 0.0
C349 C 0.32144 0.45141 0.13773 0.0
N350 N 0.32437 0.45333 0.23237 0.0
N351 N 0.33713 0.46216 0.20947 0.0
C352 C 0.29995 0.43517 0.19894 0.0
H353 H 0.30139 0.43194 0.24303 0.0
H354 H 0.28434 0.43666 0.19349 0.0
H355 H 0.3024 0.42833 0.16677 0.0
C356 C 0.26981 0.45181 0.3949 0.0
N357 N 0.2886 0.44976 0.38734 0.0
N358 N 0.29438 0.45237 0.33437 0.0
C359 C 0.27963 0.4565 0.30695 0.0
C360 C 0.26346 0.45611 0.34409 0.0
C361 C 0.2585 0.44994 0.45027 0.0
H362 H 0.26533 0.4569 0.48203 0.0
H363 H 0.2598 0.44122 0.46773 0.0
H364 H 0.24233 0.45028 0.44435 0.0
O365 O 0.33148 0.45933 0.44515 0.0
O366 O 0.34093 0.46282 0.35467 0.0
H367 H 0.29804 0.46687 0.24378 0.0
H368 H 0.27254 0.46931 0.24721 0.0
C369 C 0.28213 0.46251 0.25008 0.0
H370 H 0.27755 0.45587 0.21503 0.0
H371 H 0.34665 0.46875 0.23328 0.0
O372 O 0.29651 0.44425 0.51825 0.0
C373 C 0.34327 0.46508 0.40838 0.0
Co374 Co 0.4187 0.30243 0.42852 0.0
Co375 Co 0.405 0.29848 0.30002 0.0
C376 C 0.40673 0.32186 0.36136 0.0
O377 O 0.41268 0.31801 0.40797 0.0
O378 O 0.40357 0.31528 0.31636 0.0
C379 C 0.43777 0.31344 0.53185 0.0
O380 O 0.43935 0.32334 0.50343 0.0
C381 C 0.41081 0.30264 0.17821 0.0
C382 C 0.38958 0.2877 0.13756 0.0
C383 C 0.40404 0.29761 0.12541 0.0
N384 N 0.40103 0.2959 0.21965 0.0
N385 N 0.38827 0.28702 0.19525 0.0
C386 C 0.42533 0.31402 0.1901 0.0
H387 H 0.41686 0.32068 0.20729 0.0
H388 H 0.43627 0.31267 0.22381 0.0
H389 H 0.43341 0.31763 0.15101 0.0
C390 C 0.45374 0.29329 0.3836 0.0
N391 N 0.4363 0.29708 0.37574 0.0
N392 N 0.43021 0.29486 0.32216 0.0
C393 C 0.44344 0.28935 0.29446 0.0
C394 C 0.45883 0.28826 0.33236 0.0
C395 C 0.46401 0.29332 0.44066 0.0
H396 H 0.45362 0.28788 0.471 0.0
H397 H 0.46752 0.30251 0.45848 0.0
H398 H 0.4781 0.28975 0.43722 0.0
O399 O 0.39309 0.29073 0.4318 0.0
O400 O 0.38265 0.2883 0.34086 0.0
H401 H 0.42521 0.27971 0.22715 0.0
H402 H 0.45156 0.2787 0.22329 0.0
C403 C 0.44086 0.28462 0.23386 0.0
H404 H 0.44365 0.29212 0.2039 0.0
H405 H 0.3788 0.28046 0.21794 0.0
O406 O 0.4301 0.30366 0.50709 0.0
C407 C 0.38017 0.28602 0.39406 0.0
Co408 Co 0.5768 0.03681 0.08737 0.0
Co409 Co 0.56127 0.03713 0.21401 0.0
C410 C 0.5785 0.05955 0.15232 0.0
O411 O 0.58197 0.05382 0.10734 0.0
O412 O 0.57046 0.05425 0.19654 0.0
C413 C 0.60017 0.0427 0.98497 0.0
O414 O 0.60799 0.05241 0.01398 0.0
C415 C 0.56771 0.04073 0.33745 0.0
C416 C 0.5404 0.02956 0.37311 0.0
C417 C 0.5587 0.03664 0.38876 0.0
N418 N 0.5554 0.03616 0.29385 0.0
N419 N 0.53895 0.02966 0.31541 0.0
C420 C 0.5885 0.04777 0.32887 0.0
H421 H 0.59361 0.04659 0.28416 0.0
H422 H 0.59927 0.04509 0.35971 0.0
H423 H 0.58832 0.05731 0.33644 0.0
C424 C 0.60289 0.02181 0.13898 0.0
N425 N 0.58842 0.02836 0.14276 0.0
N426 N 0.58129 0.02796 0.19549 0.0
C427 C 0.59059 0.02076 0.22649 0.0
C428 C 0.60477 0.01676 0.19201 0.0
C429 C 0.61522 0.02095 0.0862 0.0
H430 H 0.61943 0.02981 0.06683 0.0
H431 H 0.62913 0.01758 0.09598 0.0
H432 H 0.60603 0.01492 0.05422 0.0
O433 O 0.54731 0.03075 0.08158 0.0
O434 O 0.53613 0.03082 0.17124 0.0
H435 H 0.58874 0.00807 0.29449 0.0
H436 H 0.5929 0.02333 0.3178 0.0
C437 C 0.58475 0.01681 0.28613 0.0
H438 H 0.56832 0.01607 0.29219 0.0
H439 H 0.52711 0.0249 0.29063 0.0
O440 O 0.58748 0.03473 0.00934 0.0
C441 C 0.53295 0.02879 0.11768 0.0
Co442 Co 0.64336 0.20897 0.19856 0.0
Co443 Co 0.62689 0.20968 0.07343 0.0
C444 C 0.62465 0.18676 0.13523 0.0
O445 O 0.63312 0.19217 0.17965 0.0
O446 O 0.6211 0.19239 0.09086 0.0
C447 C 0.66031 0.2015 0.30222 0.0
O448 O 0.6574 0.19102 0.27664 0.0
C449 C 0.62772 0.20613 0.94876 0.0
C450 C 0.61157 0.21989 0.91882 0.0
C451 C 0.62225 0.21142 0.89958 0.0
N452 N 0.62085 0.21138 0.9947 0.0
N453 N 0.61085 0.21942 0.97653 0.0
C454 C 0.64112 0.19721 0.95298 0.0
H455 H 0.6476 0.19734 0.99694 0.0
H456 H 0.65342 0.19897 0.92091 0.0
H457 H 0.63208 0.18823 0.94388 0.0
C458 C 0.68141 0.22012 0.14255 0.0
N459 N 0.66148 0.21568 0.14118 0.0
N460 N 0.65446 0.21663 0.08902 0.0
C461 C 0.66963 0.22223 0.05609 0.0
C462 C 0.68728 0.22443 0.08855 0.0
C463 C 0.69459 0.21947 0.19369 0.0
H464 H 0.69281 0.22656 0.22524 0.0
H465 H 0.68987 0.21081 0.21466 0.0
H466 H 0.71069 0.22053 0.18148 0.0
O467 O 0.62075 0.21768 0.20677 0.0
O468 O 0.60909 0.21814 0.11792 0.0
H469 H 0.65207 0.22887 0.99172 0.0
H470 H 0.6788 0.23435 0.98707 0.0
C471 C 0.66706 0.22647 0.99654 0.0
H472 H 0.66852 0.21937 0.96483 0.0
H473 H 0.60438 0.22498 0.00362 0.0
O474 O 0.65636 0.2103 0.27523 0.0
C475 C 0.60845 0.22074 0.17121 0.0
Co476 Co 0.3073 0.94698 0.92915 0.0
Co477 Co 0.32067 0.95302 0.80294 0.0
C478 C 0.32384 0.92971 0.85604 0.0
O479 O 0.31645 0.93242 0.90362 0.0
O480 O 0.32611 0.93684 0.81435 0.0
C481 C 0.29162 0.93474 0.03119 0.0
O482 O 0.29342 0.9251 0.00196 0.0
C483 C 0.31417 0.94941 0.67996 0.0
C484 C 0.33576 0.96429 0.64334 0.0
C485 C 0.32111 0.9545 0.62847 0.0
N486 N 0.32405 0.95598 0.72324 0.0
N487 N 0.33695 0.96486 0.7012 0.0
C488 C 0.29934 0.93809 0.68817 0.0
H489 H 0.30055 0.93472 0.73207 0.0
H490 H 0.28381 0.93968 0.68246 0.0
H491 H 0.30183 0.93132 0.65567 0.0
C492 C 0.26944 0.95309 0.88606 0.0
N493 N 0.28827 0.95117 0.87787 0.0
N494 N 0.29419 0.95436 0.82568 0.0
C495 C 0.27949 0.95876 0.79949 0.0
C496 C 0.26321 0.95795 0.83656 0.0
C497 C 0.25795 0.95052 0.94077 0.0
H498 H 0.26415 0.95736 0.9738 0.0
H499 H 0.25983 0.94177 0.95679 0.0
H500 H 0.24166 0.95049 0.93448 0.0
O501 O 0.33115 0.96003 0.93636 0.0
O502 O 0.3409 0.9645 0.84698 0.0
H503 H 0.29803 0.96967 0.73844 0.0
H504 H 0.27257 0.97216 0.74297 0.0
C505 C 0.28209 0.96531 0.74406 0.0
H506 H 0.27749 0.95899 0.70766 0.0
H507 H 0.34662 0.97126 0.72561 0.0
O508 O 0.29606 0.94475 0.00738 0.0
C509 C 0.34309 0.96615 0.90114 0.0
Co510 Co 0.41704 0.80443 0.90998 0.0
Co511 Co 0.40063 0.79817 0.78534 0.0
C512 C 0.40307 0.82251 0.8396 0.0
O513 O 0.41073 0.81963 0.88598 0.0
O514 O 0.3986 0.81511 0.79789 0.0
C515 C 0.43179 0.81539 0.01866 0.0
O516 O 0.42679 0.825 -0.00174 0.0
C517 C 0.40405 0.80062 0.66187 0.0
C518 C 0.3846 0.78417 0.62862 0.0
C519 C 0.3977 0.79431 0.61162 0.0
N520 N 0.3952 0.79447 0.70642 0.0
N521 N 0.38336 0.78473 0.68638 0.0
C522 C 0.41986 0.81163 0.66843 0.0
H523 H 0.42646 0.81233 0.7124 0.0
H524 H 0.43194 0.81168 0.63608 0.0
H525 H 0.41286 0.81947 0.6616 0.0
C526 C 0.45224 0.79585 0.8617 0.0
N527 N 0.43385 0.7986 0.85631 0.0
N528 N 0.42664 0.79538 0.80466 0.0
C529 C 0.43999 0.79012 0.77598 0.0
C530 C 0.45678 0.79036 0.81092 0.0
C531 C 0.46509 0.79853 0.91454 0.0
H532 H 0.45955 0.79186 0.94753 0.0
H533 H 0.46392 0.80739 0.93239 0.0
H534 H 0.48112 0.79836 0.90511 0.0
O535 O 0.39139 0.79292 0.91944 0.0
O536 O 0.37984 0.78802 0.83113 0.0
H537 H 0.41956 0.77937 0.71669 0.0
H538 H 0.44489 0.77675 0.71344 0.0
C539 C 0.43566 0.78368 0.71936 0.0
H540 H 0.43908 0.79008 0.68404 0.0
H541 H 0.37503 0.77826 0.71222 0.0
O542 O 0.42959 0.80607 0.98715 0.0
C543 C 0.37819 0.78705 0.88542 0.0
C544 C 0.23923 0.46924 0.37062 0.0
C545 C 0.24492 0.46076 0.33321 0.0
C546 C 0.22286 0.47449 0.35703 0.0
C547 C 0.1938 0.48105 0.23167 0.0
H548 H 0.15722 0.48922 0.3473 0.0
C549 C 0.12615 0.50269 0.17409 0.0
C550 C 0.12314 0.51215 0.20998 0.0
C551 C 0.13993 0.49565 0.18961 0.0
C552 C 0.16741 0.48707 0.31461 0.0
H553 H 0.23779 0.45078 0.25351 0.0
H554 H 0.20897 0.45983 0.22988 0.0
H555 H 0.18287 0.478 0.3744 0.0
H556 H 0.13202 0.52171 0.28996 0.0
H557 H 0.15611 0.50943 0.31722 0.0
H558 H 0.17849 0.49021 0.17201 0.0
C559 C 0.21729 0.46258 0.26925 0.0
C560 C 0.18209 0.48064 0.33013 0.0
C561 C 0.23368 0.45735 0.28284 0.0
C562 C 0.13397 0.51439 0.26182 0.0
C563 C 0.1477 0.50734 0.27745 0.0
C564 C 0.17911 0.48745 0.21615 0.0
C565 C 0.21189 0.47136 0.30571 0.0
C566 C 0.19557 0.47764 0.28892 0.0
C567 C 0.15088 0.49791 0.24146 0.0
C568 C 0.16586 0.49063 0.25753 0.0
H569 H 0.24791 0.47215 0.40924 0.0
H570 H 0.21928 0.48134 0.38565 0.0
H571 H 0.20416 0.47907 0.19904 0.0
H572 H 0.11768 0.50066 0.13438 0.0
H573 H 0.14185 0.48835 0.16135 0.0
C574 C 0.07836 0.72972 0.15553 0.0
C575 C 0.09591 0.72989 0.18809 0.0
C576 C 0.06442 0.73662 0.17243 0.0
C577 C 0.04926 0.75365 0.29759 0.0
H578 H 0.01859 0.76595 0.17995 0.0
C579 C 0.99487 0.78716 0.33355 0.0
C580 C 0.97519 0.78258 0.31399 0.0
C581 C 0.01054 0.78116 0.32088 0.0
C582 C 0.02711 0.76257 0.21312 0.0
H583 H 0.11281 0.73753 0.26347 0.0
H584 H 0.08893 0.74999 0.29175 0.0
H585 H 0.04474 0.75509 0.1517 0.0
H586 H 0.95621 0.76795 0.26845 0.0
H587 H 0.98379 0.75777 0.24394 0.0
H588 H 0.03178 0.76157 0.35878 0.0
C589 C 0.08555 0.74425 0.25412 0.0
C590 C 0.04197 0.75625 0.19711 0.0
C591 C 0.09932 0.73716 0.23777 0.0
C592 C 0.97136 0.77181 0.28269 0.0
C593 C 0.98704 0.76597 0.26898 0.0
C594 C 0.03465 0.7602 0.31354 0.0
C595 C 0.06788 0.74407 0.22169 0.0
C596 C 0.05299 0.75149 0.23908 0.0
C597 C 0.00675 0.77062 0.2877 0.0
C598 C 0.02326 0.76452 0.27138 0.0
H599 H 0.07521 0.72411 0.11733 0.0
H600 H 0.05079 0.73596 0.14708 0.0
H601 H 0.0572 0.75001 0.3312 0.0
H602 H 0.99815 0.79545 0.35783 0.0
H603 H 0.02568 0.78488 0.3357 0.0
C604 C 0.34713 0.77125 0.8744 0.0
C605 C 0.36021 0.77936 0.90973 0.0
C606 C 0.32962 0.76444 0.89704 0.0
C607 C 0.29294 0.76511 0.01075 0.0
H608 H 0.27698 0.73135 0.97974 0.0
C609 C 0.22126 0.73795 0.11074 0.0
C610 C 0.20959 0.72912 0.07591 0.0
C611 C 0.24047 0.74351 0.09326 0.0
C612 C 0.28108 0.7408 0.98825 0.0
H613 H 0.3653 0.78654 0.99677 0.0
H614 H 0.33459 0.77475 0.03589 0.0
H615 H 0.309 0.74208 0.94293 0.0
H616 H 0.20885 0.71899 0.99616 0.0
H617 H 0.24194 0.72901 0.96423 0.0
H618 H 0.26487 0.76403 0.05422 0.0
C619 C 0.33794 0.77368 0.99075 0.0
C620 C 0.29945 0.74691 0.96733 0.0
C621 C 0.35556 0.78037 0.96835 0.0
C622 C 0.2175 0.72586 0.02357 0.0
C623 C 0.23658 0.7315 0.0057 0.0
C624 C 0.27447 0.75905 0.03103 0.0
C625 C 0.32473 0.76572 0.95523 0.0
C626 C 0.30553 0.75913 0.97837 0.0
C627 C 0.24829 0.74045 0.04017 0.0
C628 C 0.26827 0.74681 0.01998 0.0
H629 H 0.35031 0.77023 0.82911 0.0
H630 H 0.31961 0.75841 0.86868 0.0
H631 H 0.29715 0.77457 0.01918 0.0
H632 H 0.21541 0.74073 0.15103 0.0
H633 H 0.24914 0.75022 0.12138 0.0
C634 C 0.87812 0.47675 0.89186 0.0
C635 C 0.86261 0.4717 0.92914 0.0
C636 C 0.8959 0.48369 0.91375 0.0
C637 C 0.92637 0.48859 0.04668 0.0
H638 H 0.9545 0.51641 0.96877 0.0
C639 C 0.99833 0.5183 0.14047 0.0
C640 C 0.01413 0.52186 0.10156 0.0
C641 C 0.97924 0.51277 0.12055 0.0
C642 C 0.94688 0.50861 0.99077 0.0
H643 H 0.85333 0.4704 0.01855 0.0
H644 H 0.88415 0.48263 0.05644 0.0
H645 H 0.92203 0.50591 0.93166 0.0
H646 H 0.0222 0.52244 0.01111 0.0
H647 H 0.98902 0.51275 0.97665 0.0
H648 H 0.95127 0.49124 0.10554 0.0
C649 C 0.88275 0.48102 0.01041 0.0
C650 C 0.92829 0.50259 0.9695 0.0
C651 C 0.86503 0.47406 0.98859 0.0
C652 C 0.01039 0.51983 0.04233 0.0
C653 C 0.99132 0.51434 0.02247 0.0
C654 C 0.94492 0.49462 0.068 0.0
C655 C 0.89852 0.48576 0.97336 0.0
C656 C 0.91789 0.49247 0.99701 0.0
C657 C 0.97555 0.51073 0.06133 0.0
C658 C 0.95545 0.50464 0.04004 0.0
H659 H 0.87678 0.4751 0.84585 0.0
H660 H 0.90783 0.48713 0.88408 0.0
H661 H 0.91893 0.48071 0.06835 0.0
H662 H 0.00067 0.51975 0.18635 0.0
H663 H 0.96733 0.51018 0.15151 0.0
C664 C 0.72802 0.45883 0.84082 0.0
C665 C 0.74784 0.46509 0.83529 0.0
C666 C 0.71176 0.46444 0.83056 0.0
C667 C 0.69851 0.49415 0.81856 0.0
H668 H 0.65378 0.47744 0.72609 0.0
C669 C 0.64154 0.51821 0.71106 0.0
C670 C 0.62112 0.51287 0.7139 0.0
C671 C 0.65637 0.5121 0.72876 0.0
C672 C 0.66605 0.48217 0.75253 0.0
H673 H 0.76648 0.48209 0.817 0.0
H674 H 0.73822 0.49188 0.79798 0.0
H675 H 0.68077 0.46728 0.75386 0.0
H676 H 0.59998 0.49697 0.73582 0.0
H677 H 0.62596 0.4862 0.76712 0.0
H678 H 0.68396 0.50911 0.81637 0.0
C679 C 0.73507 0.48269 0.81063 0.0
C680 C 0.68149 0.47635 0.76857 0.0
C681 C 0.75125 0.47709 0.82093 0.0
C682 C 0.6157 0.50126 0.73371 0.0
C683 C 0.63053 0.4951 0.75121 0.0
C684 C 0.68313 0.49998 0.80238 0.0
C685 C 0.71512 0.47642 0.81486 0.0
C686 C 0.69802 0.48232 0.8012 0.0
C687 C 0.65103 0.5005 0.74932 0.0
C688 C 0.66685 0.4941 0.76863 0.0
H689 H 0.72513 0.44956 0.85216 0.0
H690 H 0.69658 0.4594 0.8349 0.0
H691 H 0.71083 0.49894 0.84463 0.0
H692 H 0.64598 0.52717 0.69576 0.0
H693 H 0.67204 0.51643 0.72596 0.0
C694 C 0.08532 0.23588 0.63252 0.0
C695 C 0.09378 0.22966 0.67448 0.0
C696 C 0.07159 0.24304 0.64803 0.0
C697 C 0.05282 0.25795 0.77487 0.0
H698 H 0.00799 0.2594 0.6728 0.0
C699 C 0.98231 0.2769 0.84029 0.0
C700 C 0.97558 0.28436 0.80064 0.0
C701 C 0.99798 0.27104 0.82592 0.0
C702 C 0.02055 0.25917 0.70145 0.0
H703 H 0.09422 0.22592 0.76552 0.0
H704 H 0.06977 0.23805 0.79228 0.0
H705 H 0.03241 0.24726 0.6455 0.0
H706 H 0.98031 0.29188 0.71594 0.0
H707 H 0.0074 0.28141 0.69028 0.0
H708 H 0.04039 0.26959 0.8316 0.0
C709 C 0.07416 0.23771 0.7476 0.0
C710 C 0.03461 0.25224 0.68577 0.0
C711 C 0.08808 0.23067 0.73219 0.0
C712 C 0.98508 0.28607 0.74699 0.0
C713 C 0.00055 0.28009 0.73234 0.0
C714 C 0.03859 0.26475 0.79086 0.0
C715 C 0.06578 0.24403 0.70577 0.0
C716 C 0.05094 0.25153 0.72226 0.0
C717 C 0.00697 0.27241 0.77139 0.0
C718 C 0.02235 0.26543 0.75425 0.0
H719 H 0.08954 0.23536 0.58773 0.0
H720 H 0.06575 0.24793 0.61474 0.0
H721 H 0.06539 0.25781 0.80361 0.0
H722 H 0.975 0.27526 0.88153 0.0
H723 H 0.00254 0.26507 0.85659 0.0
C724 C 0.71471 0.22602 0.01561 0.0
C725 C 0.70777 0.22967 0.06864 0.0
C726 C 0.73379 0.23114 0.99563 0.0
C727 C 0.78359 0.24692 0.04215 0.0
H728 H 0.78804 0.25879 0.8868 0.0
C729 C 0.85519 0.27773 0.96159 0.0
C730 C 0.8605 0.27702 0.90337 0.0
C731 C 0.8372 0.27104 0.9818 0.0
C732 C 0.78719 0.25533 0.92989 0.0
H733 H 0.71529 0.24147 0.14252 0.0
H734 H 0.74899 0.25026 0.1082 0.0
H735 H 0.7554 0.24883 0.92225 0.0
H736 H 0.8515 0.26832 0.82122 0.0
H737 H 0.82041 0.25634 0.85687 0.0
H738 H 0.81537 0.25323 0.04978 0.0
C739 C 0.73962 0.24342 0.08219 0.0
C740 C 0.76844 0.24968 0.95025 0.0
C741 C 0.7204 0.2384 0.10184 0.0
C742 C 0.84775 0.26915 0.86622 0.0
C743 C 0.82985 0.26234 0.88661 0.0
C744 C 0.8024 0.25244 0.02158 0.0
C745 C 0.74641 0.2399 0.02867 0.0
C746 C 0.76644 0.24553 0.00672 0.0
C747 C 0.82418 0.26335 0.94446 0.0
C748 C 0.80441 0.25682 0.96535 0.0
H749 H 0.7054 0.21915 0.98964 0.0
H750 H 0.73875 0.22817 0.95453 0.0
H751 H 0.78247 0.24366 0.08565 0.0
H752 H 0.8646 0.28375 0.99134 0.0
H753 H 0.83323 0.27221 0.02636 0.0
C754 C 0.23843 0.97044 0.86714 0.0
C755 C 0.24459 0.9626 0.827 0.0
C756 C 0.2219 0.97569 0.85532 0.0
C757 C 0.1771 0.97345 0.76077 0.0
H758 H 0.184 0.00723 0.79281 0.0
C759 C 0.11339 -1e-05 0.72813 0.0
C760 C 0.11901 0.01124 0.70427 0.0
C761 C 0.12809 0.99361 0.74418 0.0
C762 C 0.18188 0.99781 0.7833 0.0
H763 H 0.23817 0.9538 0.74403 0.0
H764 H 0.20939 0.96305 0.72288 0.0
H765 H 0.2104 0.99666 0.82028 0.0
H766 H 0.14407 0.0246 0.67685 0.0
H767 H 0.16986 0.01342 0.70417 0.0
H768 H 0.14877 0.97469 0.72248 0.0
C769 C 0.21713 0.96507 0.76374 0.0
C770 C 0.19689 0.99172 0.79974 0.0
C771 C 0.23366 0.95984 0.77558 0.0
C772 C 0.13946 0.01594 0.69542 0.0
C773 C 0.15417 0.00959 0.7115 0.0
C774 C 0.16204 0.97955 0.74444 0.0
C775 C 0.21125 0.9732 0.80309 0.0
C776 C 0.19475 0.97949 0.78831 0.0
C777 C 0.14866 0.99839 0.73654 0.0
C778 C 0.16436 0.99182 0.75509 0.0
H779 H 0.24678 0.97281 0.90681 0.0
H780 H 0.21761 0.98182 0.88676 0.0
H781 H 0.17493 0.96401 0.75179 0.0
H782 H 0.09764 0.99618 0.73474 0.0
H783 H 0.12337 0.98505 0.76362 0.0
C784 C 0.21129 0.24135 0.54345 0.0
C785 C 0.2086 0.23125 0.57763 0.0
C786 C 0.2305 0.24663 0.52513 0.0
C787 C 0.28282 0.25275 0.55804 0.0
H788 H 0.29233 0.25234 0.39358 0.0
C789 C 0.36089 0.27234 0.46544 0.0
C790 C 0.36143 0.27827 0.4131 0.0
C791 C 0.34284 0.26563 0.48534 0.0
C792 C 0.28991 0.25272 0.43954 0.0
H793 H 0.22383 0.21911 0.62227 0.0
H794 H 0.25778 0.22876 0.59217 0.0
H795 H 0.2595 0.24314 0.43109 0.0
H796 H 0.34359 0.28181 0.34032 0.0
H797 H 0.31196 0.27064 0.37602 0.0
H798 H 0.31267 0.26287 0.56695 0.0
C799 C 0.24488 0.23236 0.57862 0.0
C800 C 0.27116 0.24736 0.4609 0.0
C801 C 0.22556 0.2269 0.59592 0.0
C802 C 0.34365 0.27723 0.38059 0.0
C803 C 0.32551 0.27075 0.40105 0.0
C804 C 0.30146 0.25836 0.53667 0.0
C805 C 0.24739 0.2421 0.54211 0.0
C806 C 0.26747 0.24738 0.52021 0.0
C807 C 0.3248 0.26492 0.45395 0.0
C808 C 0.30525 0.25848 0.47702 0.0
H809 H 0.19847 0.24503 0.52998 0.0
H810 H 0.2322 0.25424 0.49753 0.0
H811 H 0.28017 0.25292 0.60398 0.0
H812 H 0.37443 0.27289 0.49114 0.0
H813 H 0.34307 0.26105 0.5255 0.0
C814 C 0.87188 0.97969 0.4064 0.0
C815 C 0.85666 0.97416 0.4434 0.0
C816 C 0.889 0.98724 0.42854 0.0
C817 C 0.91906 0.99262 0.56158 0.0
H818 H 0.94702 0.0202 0.48157 0.0
C819 C 0.99349 0.02105 0.64739 0.0
C820 C 0.00882 0.024 0.60637 0.0
C821 C 0.97379 0.01616 0.63006 0.0
C822 C 0.9394 0.01249 0.50425 0.0
H823 H 0.847 0.97275 0.53246 0.0
H824 H 0.87672 0.98604 0.57083 0.0
H825 H 0.91417 0.00981 0.44647 0.0
H826 H 0.01533 0.02426 0.51489 0.0
H827 H 0.98108 0.01567 0.48495 0.0
H828 H 0.94441 0.99517 0.61875 0.0
C829 C 0.87561 0.98434 0.52483 0.0
C830 C 0.92061 0.00654 0.48415 0.0
C831 C 0.85852 0.97677 0.50274 0.0
C832 C 0.00392 0.02209 0.54769 0.0
C833 C 0.98424 0.01725 0.53043 0.0
C834 C 0.93782 0.99858 0.58172 0.0
C835 C 0.89125 0.98945 0.48814 0.0
C836 C 0.91036 0.99643 0.51209 0.0
C837 C 0.96898 0.01417 0.57139 0.0
C838 C 0.94833 0.00847 0.55276 0.0
H839 H 0.87093 0.97789 0.36046 0.0
H840 H 0.90084 0.99094 0.3991 0.0
H841 H 0.91174 0.98475 0.5836 0.0
H842 H 0.99672 0.02243 0.69293 0.0
H843 H 0.9623 0.01396 0.6626 0.0
C844 C 0.6216 -0.0006 0.1746 0.0
C845 C 0.61901 0.00915 0.20909 0.0
C846 C 0.6352 0.99231 0.19098 0.0
C847 C 0.66274 0.98415 0.31658 0.0
H848 H 0.69993 0.97608 0.2025 0.0
C849 C 0.73502 0.96729 0.37664 0.0
C850 C 0.74145 0.95899 0.33965 0.0
C851 C 0.71837 0.97221 0.36206 0.0
C852 C 0.68944 0.97806 0.23474 0.0
H853 H 0.62851 0.01918 0.28745 0.0
H854 H 0.65216 0.00676 0.3164 0.0
H855 H 0.67399 0.9869 0.17395 0.0
H856 H 0.73533 0.94896 0.25974 0.0
H857 H 0.70596 0.95736 0.23452 0.0
H858 H 0.67826 0.97538 0.37748 0.0
C859 C 0.64357 0.0045 0.27704 0.0
C860 C 0.6746 0.98429 0.21833 0.0
C861 C 0.63007 0.01162 0.26047 0.0
C862 C 0.73064 0.9554 0.28876 0.0
C863 C 0.71394 0.96027 0.27425 0.0
C864 C 0.67753 0.97787 0.33296 0.0
C865 C 0.64635 0.9948 0.24238 0.0
C866 C 0.66125 0.98753 0.25919 0.0
C867 C 0.70782 0.96889 0.31022 0.0
C868 C 0.69121 0.97487 0.29235 0.0
H869 H 0.613 0.99722 0.1352 0.0
H870 H 0.63688 0.98481 0.1637 0.0
H871 H 0.65247 0.98638 0.34886 0.0
H872 H 0.74335 0.97033 0.41568 0.0
H873 H 0.71427 0.97895 0.39036 0.0
C874 C 0.71022 0.7417 0.53404 0.0
C875 C 0.70769 0.73178 0.56947 0.0
C876 C 0.72934 0.74687 0.51458 0.0
C877 C 0.78213 0.75246 0.54711 0.0
H878 H 0.79059 0.75365 0.38218 0.0
C879 C 0.86015 0.77178 0.45451 0.0
C880 C 0.86078 0.7784 0.40422 0.0
C881 C 0.84197 0.76506 0.47341 0.0
C882 C 0.78847 0.75357 0.42832 0.0
H883 H 0.72313 0.71986 0.61494 0.0
H884 H 0.75691 0.72931 0.58281 0.0
H885 H 0.75773 0.74453 0.41986 0.0
H886 H 0.84301 0.78308 0.3338 0.0
H887 H 0.81115 0.77186 0.36796 0.0
H888 H 0.81234 0.76202 0.55623 0.0
C889 C 0.74396 0.73285 0.56916 0.0
C890 C 0.76969 0.74826 0.44977 0.0
C891 C 0.72473 0.7275 0.58763 0.0
C892 C 0.84298 0.77798 0.37249 0.0
C893 C 0.82471 0.77147 0.39206 0.0
C894 C 0.80081 0.758 0.52573 0.0
C895 C 0.74631 0.74243 0.53159 0.0
C896 C 0.76638 0.74771 0.50927 0.0
C897 C 0.8239 0.76502 0.44318 0.0
C898 C 0.80424 0.75868 0.46597 0.0
H899 H 0.69734 0.74533 0.52066 0.0
H900 H 0.73089 0.75437 0.48628 0.0
H901 H 0.77981 0.75219 0.59321 0.0
H902 H 0.87371 0.77184 0.47949 0.0
H903 H 0.84213 0.75998 0.51204 0.0
C904 C 0.48394 0.78638 0.74481 0.0
C905 C 0.47438 0.78483 0.7984 0.0
C906 C 0.49931 0.78028 0.73065 0.0
C907 C 0.51942 0.75382 0.77269 0.0
H908 H 0.56386 0.76726 0.6741 0.0
C909 C 0.58763 0.73154 0.7294 0.0
C910 C 0.59303 0.73049 0.67142 0.0
C911 C 0.57351 0.7384 0.74523 0.0
C912 C 0.55144 0.76339 0.70138 0.0
H913 H 0.47373 0.77599 0.87994 0.0
H914 H 0.50127 0.76583 0.8567 0.0
H915 H 0.53934 0.77927 0.70344 0.0
H916 H 0.58802 0.73593 0.58462 0.0
H917 H 0.56349 0.74811 0.61264 0.0
H918 H 0.53187 0.73804 0.77146 0.0
C919 C 0.49654 0.77146 0.82473 0.0
C920 C 0.53736 0.77024 0.7181 0.0
C921 C 0.48098 0.77744 0.83851 0.0
C922 C 0.58411 0.73653 0.62961 0.0
C923 C 0.57019 0.74355 0.64562 0.0
C924 C 0.53365 0.74705 0.7566 0.0
C925 C 0.50565 0.77262 0.77017 0.0
C926 C 0.5211 0.76552 0.7538 0.0
C927 C 0.56471 0.7445 0.70354 0.0
C928 C 0.54973 0.75175 0.72062 0.0
H929 H 0.47921 0.79212 0.71331 0.0
H930 H 0.50577 0.78132 0.68804 0.0
H931 H 0.50689 0.74977 0.79908 0.0
H932 H 0.5942 0.72698 0.76265 0.0
H933 H 0.56963 0.73906 0.79022 0.0
C934 C 0.50861 0.52346 0.53789 0.0
C935 C 0.51224 0.52462 0.59748 0.0
C936 C 0.48958 0.5183 0.51665 0.0
C937 C 0.43579 0.50992 0.55693 0.0
H938 H 0.43386 0.4878 0.42797 0.0
C939 C 0.36424 0.47628 0.48798 0.0
C940 C 0.36084 0.47397 0.42877 0.0
C941 C 0.38186 0.48374 0.50749 0.0
C942 C 0.43412 0.49409 0.46341 0.0
H943 H 0.49857 0.52142 0.68152 0.0
H944 H 0.46538 0.51219 0.64432 0.0
H945 H 0.46629 0.4982 0.46454 0.0
H946 H 0.37291 0.47817 0.34355 0.0
H947 H 0.40358 0.49122 0.37772 0.0
H948 H 0.40351 0.50556 0.55629 0.0
C949 C 0.47722 0.51544 0.61405 0.0
C950 C 0.45272 0.50006 0.48442 0.0
C951 C 0.49628 0.52067 0.63536 0.0
C952 C 0.37509 0.47968 0.38946 0.0
C953 C 0.39272 0.48711 0.40901 0.0
C954 C 0.41714 0.50391 0.53596 0.0
C955 C 0.47371 0.5141 0.55442 0.0
C956 C 0.4538 0.50802 0.53153 0.0
C957 C 0.39649 0.48903 0.46825 0.0
C958 C 0.41612 0.4959 0.48908 0.0
H959 H 0.5205 0.52651 0.50744 0.0
H960 H 0.48729 0.5176 0.47049 0.0
H961 H 0.4361 0.51611 0.5928 0.0
H962 H 0.35356 0.47206 0.51947 0.0
H963 H 0.38439 0.48497 0.55341 0.0
C964 C 0.49522 0.28739 0.32227 0.0
C965 C 0.47504 0.28154 0.32292 0.0
C966 C 0.51049 0.28103 0.31052 0.0
C967 C 0.52214 0.25103 0.30965 0.0
H968 H 0.56142 0.26323 0.19353 0.0
C969 C 0.5902 0.22921 0.25096 0.0
C970 C 0.59346 0.2277 0.19178 0.0
C971 C 0.57626 0.23596 0.27008 0.0
C972 C 0.55054 0.25972 0.22601 0.0
H973 H 0.45473 0.2646 0.314 0.0
H974 H 0.48141 0.25341 0.29375 0.0
H975 H 0.53616 0.27475 0.22287 0.0
H976 H 0.58462 0.2321 0.10631 0.0
H977 H 0.56042 0.2439 0.13981 0.0
H978 H 0.53637 0.23592 0.31217 0.0
C979 C 0.48552 0.26287 0.3022 0.0
C980 C 0.53622 0.26635 0.24318 0.0
C981 C 0.47028 0.26924 0.31338 0.0
C982 C 0.58248 0.23307 0.1522 0.0
C983 C 0.56871 0.2399 0.17134 0.0
C984 C 0.5366 0.24444 0.2929 0.0
C985 C 0.50576 0.26871 0.30002 0.0
C986 C 0.52173 0.26201 0.28468 0.0
C987 C 0.56547 0.24142 0.23044 0.0
C988 C 0.55078 0.24866 0.2504 0.0
H989 H 0.49911 0.29688 0.32982 0.0
H990 H 0.52598 0.28574 0.30959 0.0
H991 H 0.51122 0.24751 0.34202 0.0
H992 H 0.59841 0.22519 0.28258 0.0
H993 H 0.57412 0.23704 0.31591 0.0
C994 C 0.37596 0.98018 0.88719 0.0
C995 C 0.36054 0.97481 0.924 0.0
C996 C 0.39336 0.98743 0.9096 0.0
C997 C 0.42327 0.99237 0.04334 0.0
H998 H 0.452 0.01999 0.96509 0.0
C999 C 0.49633 0.02087 0.13602 0.0
C1000 C 0.51224 0.02393 0.09691 0.0
C1001 C 0.47693 0.01594 0.11639 0.0
C1002 C 0.44418 0.01226 0.98724 0.0
H1003 H 0.35087 0.97337 0.01303 0.0
H1004 H 0.38102 0.98615 0.05186 0.0
H1005 H 0.41934 0.00971 0.92809 0.0
H1006 H 0.5201 0.02441 0.00633 0.0
H1007 H 0.4863 0.01575 0.97229 0.0
H1008 H 0.44817 0.99483 0.10206 0.0
C1009 C 0.37988 0.98454 0.0058 0.0
C1010 C 0.42549 0.00637 0.96605 0.0
C1011 C 0.36254 0.97726 0.98346 0.0
C1012 C 0.50822 0.02215 0.03769 0.0
C1013 C 0.48881 0.01726 0.01809 0.0
C1014 C 0.4419 0.99828 0.06458 0.0
C1015 C 0.39567 0.98951 0.96928 0.0
C1016 C 0.41491 0.99628 0.99355 0.0
C1017 C 0.47299 0.01401 0.05723 0.0
C1018 C 0.45266 0.00821 0.03644 0.0
H1019 H 0.37493 0.97848 0.84118 0.0
H1020 H 0.40531 0.99103 0.88029 0.0
H1021 H 0.41572 0.98451 0.065 0.0
H1022 H 0.49887 0.02217 0.18191 0.0
H1023 H 0.46499 0.01365 0.14755 0.0
C1024 C 0.05656 0.5436 0.49605 0.0
C1025 C 0.06894 0.5409 0.45132 0.0
C1026 C 0.064 0.54534 0.55224 0.0
C1027 C 0.10118 0.53668 0.64768 0.0
H1028 H 0.0885 0.56172 0.74703 0.0
C1029 C 0.0976 0.53463 0.89463 0.0
C1030 C 0.10388 0.54515 0.92701 0.0
C1031 C 0.09795 0.53478 0.83461 0.0
C1032 C 0.09245 0.55479 0.71965 0.0
H1033 H 0.09857 0.53747 0.43044 0.0
H1034 H 0.11165 0.54059 0.52862 0.0
H1035 H 0.07975 0.56122 0.64502 0.0
H1036 H 0.11673 0.56391 0.92198 0.0
H1037 H 0.11723 0.56414 0.81701 0.0
H1038 H 0.11337 0.53006 0.72274 0.0
C1039 C 0.09628 0.54153 0.52004 0.0
C1040 C 0.08725 0.55444 0.66144 0.0
C1041 C 0.08888 0.53991 0.46373 0.0
C1042 C 0.11169 0.55566 0.89825 0.0
C1043 C 0.11189 0.55582 0.83818 0.0
C1044 C 0.10623 0.53697 0.70606 0.0
C1045 C 0.08389 0.54422 0.56486 0.0
C1046 C 0.09123 0.54527 0.62513 0.0
C1047 C 0.10448 0.54545 0.80582 0.0
C1048 C 0.1016 0.54592 0.74279 0.0
H1049 H 0.04107 0.5443 0.48758 0.0
H1050 H 0.05401 0.54722 0.58611 0.0
H1051 H 0.10432 0.52947 0.62071 0.0
H1052 H 0.09162 0.52637 0.91556 0.0
H1053 H 0.09203 0.52665 0.81082 0.0
C1054 C 0.13154 0.6994 0.81617 0.0
C1055 C 0.13183 0.71069 0.84067 0.0
C1056 C 0.13791 0.69822 0.75948 0.0
C1057 C 0.14423 0.71474 0.62459 0.0
H1058 H 0.17442 0.69088 0.575 0.0
C1059 C 0.16892 0.71283 0.39201 0.0
C1060 C 0.16322 0.70166 0.36489 0.0
C1061 C 0.16924 0.71389 0.45184 0.0
C1062 C 0.16599 0.69758 0.58837 0.0
H1063 H 0.1394 0.72958 0.8261 0.0
H1064 H 0.15079 0.72757 0.7279 0.0
H1065 H 0.16616 0.69274 0.67695 0.0
H1066 H 0.15516 0.68275 0.37901 0.0
H1067 H 0.15547 0.68462 0.48375 0.0
H1068 H 0.14376 0.71951 0.53651 0.0
C1069 C 0.1453 0.7196 0.75172 0.0
C1070 C 0.16119 0.69861 0.64657 0.0
C1071 C 0.1388 0.72076 0.80798 0.0
C1072 C 0.15951 0.69148 0.39872 0.0
C1073 C 0.15975 0.69255 0.45872 0.0
C1074 C 0.14909 0.71375 0.5668 0.0
C1075 C 0.14468 0.70833 0.7265 0.0
C1076 C 0.15022 0.70721 0.66521 0.0
C1077 C 0.16379 0.7038 0.48572 0.0
C1078 C 0.15998 0.70516 0.54798 0.0
H1079 H 0.12591 0.69149 0.84019 0.0
H1080 H 0.13697 0.68941 0.741 0.0
H1081 H 0.13535 0.72127 0.6372 0.0
H1082 H 0.17219 0.72083 0.36705 0.0
H1083 H 0.17287 0.72266 0.47159 0.0
C1084 C 0.82987 0.44877 0.53227 0.0
C1085 C 0.81546 0.44894 0.57537 0.0
C1086 C 0.82381 0.44537 0.47599 0.0
C1087 C 0.80693 0.43182 0.36788 0.0
H1088 H 0.76518 0.44602 0.29915 0.0
C1089 C 0.78526 0.42334 0.12991 0.0
C1090 C 0.78578 0.4338 0.09926 0.0
C1091 C 0.78476 0.42357 0.19002 0.0
C1092 C 0.77677 0.44193 0.31788 0.0
H1093 H 0.78351 0.44637 0.59356 0.0
H1094 H 0.77285 0.44022 0.49525 0.0
H1095 H 0.77349 0.44968 0.40095 0.0
H1096 H 0.7846 0.4525 0.1072 0.0
H1097 H 0.78382 0.4529 0.21175 0.0
H1098 H 0.81084 0.42449 0.28438 0.0
C1099 C 0.78881 0.44256 0.50497 0.0
C1100 C 0.78143 0.44395 0.37621 0.0
C1101 C 0.79489 0.44591 0.56128 0.0
C1102 C 0.78438 0.4443 0.12962 0.0
C1103 C 0.78379 0.44452 0.18958 0.0
C1104 C 0.80222 0.42977 0.30965 0.0
C1105 C 0.80322 0.44224 0.46175 0.0
C1106 C 0.79688 0.43913 0.40146 0.0
C1107 C 0.78461 0.43424 0.22046 0.0
C1108 C 0.78741 0.43502 0.28374 0.0
H1109 H 0.84581 0.45124 0.54218 0.0
H1110 H 0.83525 0.44544 0.44335 0.0
H1111 H 0.81872 0.42786 0.3864 0.0
H1112 H 0.78621 0.41509 0.10772 0.0
H1113 H 0.78513 0.41548 0.21275 0.0
C1114 C 0.93921 0.32479 0.11179 0.0
C1115 C 0.9382 0.31429 0.07897 0.0
C1116 C 0.93966 0.32454 0.17185 0.0
C1117 C 0.94663 0.30603 0.2964 0.0
H1118 H 0.9053 0.32076 0.36652 0.0
C1119 C 0.92799 0.30278 0.53923 0.0
C1120 C 0.90736 0.29976 0.55198 0.0
C1121 C 0.93431 0.30598 0.48358 0.0
C1122 C 0.91693 0.31663 0.34757 0.0
H1123 H 0.93847 0.29549 0.08314 0.0
H1124 H 0.93919 0.29505 0.18769 0.0
H1125 H 0.91341 0.32394 0.26523 0.0
H1126 H 0.87716 0.2975 0.51674 0.0
H1127 H 0.88816 0.30307 0.41938 0.0
H1128 H 0.94955 0.29833 0.37837 0.0
C1129 C 0.93963 0.30348 0.16719 0.0
C1130 C 0.92176 0.31857 0.28977 0.0
C1131 C 0.93908 0.30371 0.10723 0.0
C1132 C 0.89316 0.29989 0.50808 0.0
C1133 C 0.89945 0.30317 0.45256 0.0
C1134 C 0.94187 0.30414 0.35437 0.0
C1135 C 0.93926 0.31381 0.20014 0.0
C1136 C 0.93634 0.31307 0.26324 0.0
C1137 C 0.92009 0.30622 0.43971 0.0
C1138 C 0.92664 0.3092 0.38013 0.0
H1139 H 0.93867 0.33311 0.0913 0.0
H1140 H 0.93965 0.33267 0.1962 0.0
H1141 H 0.95803 0.30175 0.27717 0.0
H1142 H 0.93928 0.30239 0.57175 0.0
H1143 H 0.9503 0.30826 0.47485 0.0
C1144 C 0.10988 0.05367 0.39812 0.0
C1145 C 0.10025 0.0434 0.42599 0.0
C1146 C 0.11041 0.05398 0.33808 0.0
C1147 C 0.10241 0.0355 0.20492 0.0
H1148 H 0.08094 0.06174 0.14399 0.0
C1149 C 0.05545 0.04505 0.99473 0.0
C1150 C 0.0671 0.0415 0.95029 0.0
C1151 C 0.06304 0.04654 0.05085 0.0
C1152 C 0.08705 0.0544 0.16038 0.0
H1153 H 0.08498 0.02513 0.41306 0.0
H1154 H 0.086 0.02567 0.30841 0.0
H1155 H 0.08913 0.06158 0.24623 0.0
H1156 H 0.09542 0.03629 0.92931 0.0
H1157 H 0.1088 0.03895 0.02755 0.0
H1158 H 0.09962 0.02811 0.11937 0.0
C1159 C 0.09308 0.03349 0.33285 0.0
C1160 C 0.09194 0.05436 0.21872 0.0
C1161 C 0.09239 0.03321 0.3928 0.0
C1162 C 0.08642 0.0394 0.96268 0.0
C1163 C 0.09395 0.04077 0.01889 0.0
C1164 C 0.09769 0.03558 0.14644 0.0
C1165 C 0.10154 0.04399 0.3049 0.0
C1166 C 0.09922 0.04478 0.24182 0.0
C1167 C 0.08228 0.04428 0.06358 0.0
C1168 C 0.08951 0.0449 0.12391 0.0
H1169 H 0.11614 0.06166 0.42252 0.0
H1170 H 0.11721 0.06215 0.31756 0.0
H1171 H 0.1081 0.02804 0.22158 0.0
H1172 H 0.04039 0.04654 0.98613 0.0
H1173 H 0.05357 0.04906 0.08463 0.0
C1174 C 0.12993 0.19676 0.30919 0.0
C1175 C 0.13165 0.20843 0.33049 0.0
C1176 C 0.13632 0.1946 0.25344 0.0
C1177 C 0.16787 0.20919 0.13468 0.0
H1178 H 0.13334 0.18602 0.03728 0.0
C1179 C 0.16496 0.21147 0.88886 0.0
C1180 C 0.16183 0.20088 0.85605 0.0
C1181 C 0.16542 0.21119 0.9488 0.0
C1182 C 0.14337 0.19236 0.06422 0.0
H1183 H 0.14092 0.22699 0.30969 0.0
H1184 H 0.15151 0.22325 0.21244 0.0
H1185 H 0.12541 0.18769 0.13898 0.0
H1186 H 0.15791 0.18173 0.86009 0.0
H1187 H 0.15855 0.18127 0.96512 0.0
H1188 H 0.18528 0.2142 0.05915 0.0
C1189 C 0.14581 0.21573 0.2391 0.0
C1190 C 0.13882 0.19332 0.12251 0.0
C1191 C 0.13947 0.21788 0.29463 0.0
C1192 C 0.16031 0.19004 0.88424 0.0
C1193 C 0.16056 0.18976 0.94431 0.0
C1194 C 0.17234 0.20827 0.07637 0.0
C1195 C 0.14443 0.20407 0.2179 0.0
C1196 C 0.15071 0.20197 0.15803 0.0
C1197 C 0.16261 0.20032 0.97713 0.0
C1198 C 0.15984 0.20005 0.04029 0.0
H1199 H 0.12344 0.1893 0.33515 0.0
H1200 H 0.13499 0.18551 0.23828 0.0
H1201 H 0.17759 0.21576 0.16122 0.0
H1202 H 0.16629 0.21996 0.86832 0.0
H1203 H 0.16688 0.21947 0.97297 0.0
C1204 C 0.7934 0.94322 0.07608 0.0
C1205 C 0.81376 0.94759 0.08952 0.0
C1206 C 0.78755 0.93975 0.0197 0.0
C1207 C 0.77933 0.94147 0.8912 0.0
H1208 H 0.81177 0.92433 0.79646 0.0
C1209 C 0.78189 0.94289 0.64437 0.0
C1210 C 0.78446 0.9327 0.61321 0.0
C1211 C 0.78139 0.9429 0.70437 0.0
C1212 C 0.80234 0.92894 0.82254 0.0
H1213 H 0.84393 0.95194 0.05489 0.0
H1214 H 0.83375 0.9459 0.95619 0.0
H1215 H 0.81961 0.92765 0.89859 0.0
H1216 H 0.78714 0.91427 0.6203 0.0
H1217 H 0.7863 0.91432 0.72531 0.0
H1218 H 0.76237 0.94301 0.81474 0.0
C1219 C 0.82234 0.94496 0.98936 0.0
C1220 C 0.80699 0.93096 0.88083 0.0
C1221 C 0.82816 0.9485 0.04565 0.0
C1222 C 0.78525 0.92229 0.6431 0.0
C1223 C 0.78488 0.92232 0.7032 0.0
C1224 C 0.77476 0.93952 0.83276 0.0
C1225 C 0.80196 0.9406 0.97578 0.0
C1226 C 0.79578 0.93745 0.91546 0.0
C1227 C 0.78353 0.93273 0.73441 0.0
C1228 C 0.78647 0.93343 0.79764 0.0
H1229 H 0.78189 0.94278 0.10865 0.0
H1230 H 0.77173 0.93646 0.0104 0.0
H1231 H 0.7705 0.94655 0.91683 0.0
H1232 H 0.7811 0.95103 0.62255 0.0
H1233 H 0.78047 0.95109 0.72722 0.0
C1234 C 0.89598 0.80345 0.01847 0.0
C1235 C 0.90999 0.80318 0.06262 0.0
C1236 C 0.90256 0.80648 0.96288 0.0
C1237 C 0.92128 0.81903 0.85637 0.0
H1238 H 0.96019 0.80192 0.78982 0.0
C1239 C 0.94453 0.82444 0.61955 0.0
C1240 C 0.94178 0.81358 0.58895 0.0
C1241 C 0.94495 0.82468 0.67967 0.0
C1242 C 0.94945 0.80684 0.80801 0.0
H1243 H 0.94174 0.80534 0.08361 0.0
H1244 H 0.95331 0.81072 0.98627 0.0
H1245 H 0.95154 0.79965 0.89156 0.0
H1246 H 0.93891 0.79456 0.59696 0.0
H1247 H 0.93974 0.795 0.7017 0.0
H1248 H 0.91861 0.82587 0.77244 0.0
C1249 C 0.93727 0.80878 0.99476 0.0
C1250 C 0.94459 0.8056 0.86623 0.0
C1251 C 0.93068 0.80585 0.05044 0.0
C1252 C 0.94089 0.80306 0.6194 0.0
C1253 C 0.9415 0.80332 0.67939 0.0
C1254 C 0.92626 0.82035 0.79831 0.0
C1255 C 0.92327 0.80908 0.9504 0.0
C1256 C 0.9301 0.81146 0.89058 0.0
C1257 C 0.94288 0.81409 0.71013 0.0
C1258 C 0.94003 0.81404 0.77326 0.0
H1259 H 0.87995 0.80124 0.02693 0.0
H1260 H 0.89143 0.80645 0.92927 0.0
H1261 H 0.91021 0.82374 0.87424 0.0
H1262 H 0.94533 0.8327 0.59727 0.0
H1263 H 0.94625 0.83312 0.70239 0.0
C1264 C 0.57057 0.54845 0.97688 0.0
C1265 C 0.56179 0.53741 0.95221 0.0
C1266 C 0.57769 0.54922 0.03362 0.0
C1267 C 0.57082 0.53281 0.16881 0.0
H1268 H 0.62017 0.554 0.21637 0.0
C1269 C 0.59757 0.53333 0.40081 0.0
C1270 C 0.60179 0.54461 0.42745 0.0
C1271 C 0.59652 0.53217 0.34102 0.0
C1272 C 0.60635 0.54806 0.20361 0.0
H1273 H 0.55377 0.51854 0.96694 0.0
H1274 H 0.56633 0.51984 0.06537 0.0
H1275 H 0.61009 0.55268 0.11486 0.0
H1276 H 0.60998 0.56348 0.41235 0.0
H1277 H 0.60789 0.56146 0.30777 0.0
H1278 H 0.56683 0.52829 0.25712 0.0
C1279 C 0.56748 0.52793 0.04148 0.0
C1280 C 0.60054 0.54734 0.14565 0.0
C1281 C 0.56029 0.52718 0.98508 0.0
C1282 C 0.6066 0.55467 0.39306 0.0
C1283 C 0.60546 0.55351 0.33311 0.0
C1284 C 0.57664 0.5335 0.22644 0.0
C1285 C 0.57611 0.53896 0.06661 0.0
C1286 C 0.58267 0.53971 0.12771 0.0
C1287 C 0.59959 0.54227 0.30667 0.0
C1288 C 0.59443 0.54114 0.24456 0.0
H1289 H 0.57153 0.5565 0.95287 0.0
H1290 H 0.58396 0.55786 0.05208 0.0
H1291 H 0.55675 0.52705 0.15671 0.0
H1292 H 0.59411 0.5254 0.42618 0.0
H1293 H 0.59244 0.52338 0.32174 0.0
C1294 C 0.66344 0.71324 0.88821 0.0
C1295 C 0.66194 0.70287 0.85421 0.0
C1296 C 0.66304 0.71265 0.94814 0.0
C1297 C 0.64101 0.69262 0.05901 0.0
H1298 H 0.6728 0.71563 0.16327 0.0
C1299 C 0.64897 0.70512 0.31751 0.0
C1300 C 0.62886 0.70571 0.32979 0.0
C1301 C 0.65487 0.7033 0.26101 0.0
C1302 C 0.66397 0.70905 0.13476 0.0
H1303 H 0.66002 0.68382 0.85634 0.0
H1304 H 0.65911 0.68281 0.96116 0.0
H1305 H 0.68156 0.71544 0.06124 0.0
H1306 H 0.59916 0.70495 0.2935 0.0
H1307 H 0.60935 0.70158 0.19443 0.0
H1308 H 0.62301 0.68649 0.13214 0.0
C1309 C 0.66053 0.69137 0.9413 0.0
C1310 C 0.6689 0.709 0.07643 0.0
C1311 C 0.66117 0.69197 0.88135 0.0
C1312 C 0.61467 0.70433 0.28496 0.0
C1313 C 0.6205 0.70236 0.22852 0.0
C1314 C 0.63594 0.69276 0.11719 0.0
C1315 C 0.66094 0.70167 0.97517 0.0
C1316 C 0.65729 0.70089 0.03788 0.0
C1317 C 0.64072 0.70202 0.21591 0.0
C1318 C 0.64718 0.70109 0.15544 0.0
H1319 H 0.66414 0.72177 0.86852 0.0
H1320 H 0.66327 0.72073 0.97319 0.0
H1321 H 0.63167 0.68635 0.03013 0.0
H1322 H 0.6603 0.70654 0.35125 0.0
H1323 H 0.67054 0.70308 0.25242 0.0
C1324 C 0.32925 0.44771 0.03517 0.0
C1325 C 0.31493 0.44726 0.07907 0.0
C1326 C 0.3232 0.44417 0.97907 0.0
C1327 C 0.30691 0.43034 0.871 0.0
H1328 H 0.26419 0.444 0.80411 0.0
C1329 C 0.28596 0.42289 0.63219 0.0
C1330 C 0.28645 0.43352 0.603 0.0
C1331 C 0.28517 0.42274 0.69223 0.0
C1332 C 0.27603 0.44005 0.82237 0.0
H1333 H 0.28302 0.44323 0.0985 0.0
H1334 H 0.27244 0.43693 0.00046 0.0
H1335 H 0.27216 0.44719 0.90648 0.0
H1336 H 0.28492 0.45213 0.61339 0.0
H1337 H 0.28356 0.45187 0.71796 0.0
H1338 H 0.31137 0.42361 0.7866 0.0
C1339 C 0.28835 0.43986 0.00965 0.0
C1340 C 0.2805 0.4418 0.88095 0.0
C1341 C 0.29443 0.44332 0.06589 0.0
C1342 C 0.28473 0.44381 0.6347 0.0
C1343 C 0.2838 0.44364 0.69462 0.0
C1344 C 0.30236 0.42852 0.81257 0.0
C1345 C 0.30268 0.44027 0.9657 0.0
C1346 C 0.29633 0.43722 0.90546 0.0
C1347 C 0.28466 0.4332 0.72405 0.0
C1348 C 0.28721 0.43361 0.78738 0.0
H1349 H 0.34513 0.45081 0.04424 0.0
H1350 H 0.33455 0.44477 0.94584 0.0
H1351 H 0.31903 0.4266 0.88897 0.0
H1352 H 0.28717 0.4148 0.60894 0.0
H1353 H 0.28562 0.41454 0.71387 0.0
C1354 C 0.39712 0.3021 0.02394 0.0
C1355 C 0.41111 0.30136 0.06761 0.0
C1356 C 0.4037 0.30522 0.96848 0.0
C1357 C 0.42248 0.31802 0.8631 0.0
H1358 H 0.46084 0.301 0.79283 0.0
C1359 C 0.44458 0.32445 0.62601 0.0
C1360 C 0.442 0.31373 0.59424 0.0
C1361 C 0.44526 0.32443 0.6861 0.0
C1362 C 0.45023 0.30588 0.81204 0.0
H1363 H 0.44279 0.30273 0.08761 0.0
H1364 H 0.45438 0.3083 0.99051 0.0
H1365 H 0.45233 0.29817 0.89435 0.0
H1366 H 0.43967 0.2947 0.60017 0.0
H1367 H 0.4408 0.29468 0.70475 0.0
H1368 H 0.41972 0.32535 0.78036 0.0
C1369 C 0.43837 0.30664 -0.00069 0.0
C1370 C 0.44547 0.30433 0.87019 0.0
C1371 C 0.43177 0.30359 0.05489 0.0
C1372 C 0.4415 0.3031 0.62348 0.0
C1373 C 0.4423 0.30309 0.68343 0.0
C1374 C 0.42733 0.31963 0.8051 0.0
C1375 C 0.42439 0.30748 0.95554 0.0
C1376 C 0.43117 0.31016 0.89588 0.0
C1377 C 0.44354 0.31371 0.7154 0.0
C1378 C 0.44088 0.31335 0.77863 0.0
H1379 H 0.3811 0.30025 0.03276 0.0
H1380 H 0.39257 0.30559 0.93535 0.0
H1381 H 0.41159 0.32273 0.88201 0.0
H1382 H 0.44511 0.33279 0.6047 0.0
H1383 H 0.44647 0.33276 0.7097 0.0
C1384 C 0.56318 0.02821 0.48468 0.0
C1385 C 0.56739 0.03784 0.44748 0.0
C1386 C 0.57131 0.02909 0.54011 0.0
C1387 C 0.59092 0.05082 0.65365 0.0
H1388 H 0.60824 0.02386 0.72159 0.0
C1389 C 0.61362 0.05162 0.89214 0.0
C1390 C 0.60359 0.04177 0.92239 0.0
C1391 C 0.61395 0.05135 0.83201 0.0
C1392 C 0.60348 0.03147 0.70318 0.0
H1393 H 0.5828 0.0561 0.44007 0.0
H1394 H 0.59733 0.05758 0.53676 0.0
H1395 H 0.59938 0.0232 0.61959 0.0
H1396 H 0.58733 0.02362 0.91349 0.0
H1397 H 0.58783 0.02316 0.80891 0.0
H1398 H 0.59443 0.05895 0.73751 0.0
C1399 C 0.58784 0.04932 0.52277 0.0
C1400 C 0.59837 0.03108 0.64486 0.0
C1401 C 0.57971 0.04843 0.46713 0.0
C1402 C 0.59507 0.03139 0.89147 0.0
C1403 C 0.59548 0.0311 0.83145 0.0
C1404 C 0.59606 0.05121 0.71196 0.0
C1405 C 0.58374 0.03964 0.55983 0.0
C1406 C 0.59153 0.04063 0.61981 0.0
C1407 C 0.60439 0.04119 0.80104 0.0
C1408 C 0.60191 0.04142 0.73767 0.0
H1409 H 0.55368 0.01994 0.4708 0.0
H1410 H 0.56751 0.02155 0.56794 0.0
H1411 H 0.58553 0.05827 0.63583 0.0
H1412 H 0.62043 0.05974 0.91471 0.0
H1413 H 0.62118 0.05921 0.80972 0.0
C1414 C 0.63051 0.19912 0.81559 0.0
C1415 C 0.62918 0.21022 0.83996 0.0
C1416 C 0.63701 0.19825 0.75882 0.0
C1417 C 0.64096 0.21455 0.62323 0.0
H1418 H 0.67597 0.19308 0.5759 0.0
C1419 C 0.66764 0.21398 0.39161 0.0
C1420 C 0.66425 0.20271 0.36476 0.0
C1421 C 0.66724 0.21509 0.45141 0.0
C1422 C 0.66617 0.1991 0.5886 0.0
H1423 H 0.63382 0.22908 0.82471 0.0
H1424 H 0.64534 0.2276 0.72632 0.0
H1425 H 0.66682 0.19447 0.67738 0.0
H1426 H 0.65956 0.1838 0.37959 0.0
H1427 H 0.65863 0.18576 0.48415 0.0
H1428 H 0.64002 0.2191 0.5349 0.0
C1429 C 0.6411 0.21954 0.75042 0.0
C1430 C 0.66087 0.19986 0.64654 0.0
C1431 C 0.63452 0.2204 0.80681 0.0
C1432 C 0.66212 0.19261 0.39901 0.0
C1433 C 0.66165 0.19373 0.45896 0.0
C1434 C 0.64629 0.21383 0.56563 0.0
C1435 C 0.64225 0.20845 0.72554 0.0
C1436 C 0.64818 0.2076 0.6644 0.0
C1437 C 0.66338 0.20496 0.48556 0.0
C1438 C 0.65893 0.20609 0.54761 0.0
H1439 H 0.6261 0.19111 0.83981 0.0
H1440 H 0.63744 0.18956 0.74057 0.0
H1441 H 0.6308 0.22041 0.63526 0.0
H1442 H 0.66964 0.22194 0.36641 0.0
H1443 H 0.66909 0.22388 0.47085 0.0
C1444 C 0.29445 0.94636 0.55563 0.0
C1445 C 0.31486 0.95046 0.56944 0.0
C1446 C 0.28866 0.94276 0.49936 0.0
C1447 C 0.28089 0.94383 0.37033 0.0
H1448 H 0.3133 0.92607 0.27893 0.0
C1449 C 0.28457 0.94449 0.12381 0.0
C1450 C 0.28735 0.93424 0.09346 0.0
C1451 C 0.28371 0.94463 0.18375 0.0
C1452 C 0.30386 0.93085 0.30407 0.0
H1453 H 0.34518 0.95424 0.53552 0.0
H1454 H 0.33511 0.948 0.43703 0.0
H1455 H 0.32073 0.92972 0.38104 0.0
H1456 H 0.28999 0.91584 0.10188 0.0
H1457 H 0.28848 0.91609 0.20685 0.0
H1458 H 0.2643 0.94517 0.29298 0.0
C1459 C 0.32361 0.94735 0.46984 0.0
C1460 C 0.30829 0.93306 0.36235 0.0
C1461 C 0.32936 0.95102 0.526 0.0
C1462 C 0.28796 0.9239 0.12406 0.0
C1463 C 0.28721 0.92405 0.18414 0.0
C1464 C 0.27652 0.94166 0.31192 0.0
C1465 C 0.30319 0.9432 0.45594 0.0
C1466 C 0.29714 0.9398 0.39576 0.0
C1467 C 0.28566 0.93452 0.2146 0.0
C1468 C 0.28824 0.93536 0.27794 0.0
H1469 H 0.28288 0.94621 0.58782 0.0
H1470 H 0.27282 0.93963 0.48982 0.0
H1471 H 0.27209 0.94909 0.39499 0.0
H1472 H 0.28389 0.95258 0.10142 0.0
H1473 H 0.28266 0.95286 0.20596 0.0
C1474 C 0.44067 0.80408 0.10233 0.0
C1475 C 0.43631 0.81462 0.08052 0.0
C1476 C 0.44108 0.8024 0.16152 0.0
C1477 C 0.44159 0.81689 0.305 0.0
H1478 H 0.40629 0.78744 0.34477 0.0
C1479 C 0.40737 0.80846 0.53143 0.0
C1480 C 0.40483 0.79692 0.55253 0.0
C1481 C 0.41394 0.81079 0.47513 0.0
C1482 C 0.41651 0.7956 0.33471 0.0
H1483 H 0.43073 0.83208 0.10369 0.0
H1484 H 0.43138 0.82911 0.20725 0.0
H1485 H 0.41468 0.79141 0.24475 0.0
H1486 H 0.40733 0.7788 0.53217 0.0
H1487 H 0.41923 0.78287 0.43437 0.0
H1488 H 0.44327 0.8211 0.39524 0.0
C1489 C 0.43445 0.82215 0.17848 0.0
C1490 C 0.42131 0.79788 0.27726 0.0
C1491 C 0.43401 0.82383 0.11915 0.0
C1492 C 0.40904 0.78777 0.51666 0.0
C1493 C 0.41581 0.7901 0.46065 0.0
C1494 C 0.43691 0.81456 0.36274 0.0
C1495 C 0.4372 0.81124 0.20009 0.0
C1496 C 0.43374 0.80858 0.26172 0.0
C1497 C 0.41817 0.80162 0.43898 0.0
C1498 C 0.42413 0.80393 0.37818 0.0
H1499 H 0.44281 0.79687 0.07371 0.0
H1500 H 0.44362 0.79398 0.1771 0.0
H1501 H 0.45129 0.82519 0.29416 0.0
H1502 H 0.40381 0.81563 0.55789 0.0
H1503 H 0.41519 0.81971 0.45952 0.0
C1504 C 0.07718 0.5801 0.20566 0.0
C1505 C 0.07795 0.57355 0.15427 0.0
C1506 C 0.08027 0.59247 0.20508 0.0
C1507 C 0.07881 0.61761 0.1107 0.0
H1508 H 0.1169 0.63542 0.21994 0.0
C1509 C 0.11061 0.66772 0.08864 0.0
C1510 C 0.11449 0.67464 0.13938 0.0
C1511 C 0.10465 0.6554 0.09128 0.0
C1512 C 0.10595 0.63062 0.18972 0.0
H1513 H 0.08224 0.57486 0.06187 0.0
H1514 H 0.08754 0.5964 0.06106 0.0
H1515 H 0.10887 0.61389 0.22411 0.0
H1516 H 0.11436 0.67411 0.23267 0.0
H1517 H 0.10347 0.65276 0.23723 0.0
H1518 H 0.07578 0.63432 0.07641 0.0
C1519 C 0.08448 0.59197 0.10167 0.0
C1520 C 0.1014 0.61827 0.19211 0.0
C1521 C 0.0816 0.57963 0.10228 0.0
C1522 C 0.11173 0.66903 0.19272 0.0
C1523 C 0.10559 0.65676 0.19536 0.0
C1524 C 0.08322 0.62998 0.1086 0.0
C1525 C 0.08397 0.59852 0.15306 0.0
C1526 C 0.08792 0.61164 0.15234 0.0
C1527 C 0.10227 0.64976 0.14472 0.0
C1528 C 0.09697 0.63663 0.14784 0.0
H1529 H 0.0744 0.57568 0.24641 0.0
H1530 H 0.07968 0.59732 0.24529 0.0
H1531 H 0.06818 0.61271 0.07989 0.0
H1532 H 0.11268 0.67178 0.04688 0.0
H1533 H 0.10245 0.65028 0.0514 0.0
C1534 C 0.8286 0.40932 0.90563 0.0
C1535 C 0.82659 0.41583 0.85615 0.0
C1536 C 0.83608 0.39883 0.90174 0.0
C1537 C 0.8662 0.38292 0.80561 0.0
H1538 H 0.84807 0.35713 0.9096 0.0
C1539 C 0.88954 0.33681 0.79067 0.0
C1540 C 0.89536 0.33244 0.84288 0.0
C1541 C 0.88155 0.34716 0.79009 0.0
C1542 C 0.85335 0.36431 0.88054 0.0
H1543 H 0.83006 0.41614 0.76341 0.0
H1544 H 0.84242 0.39761 0.75633 0.0
H1545 H 0.83184 0.37431 0.91138 0.0
H1546 H 0.89785 0.3357 0.93518 0.0
H1547 H 0.88367 0.35366 0.934 0.0
H1548 H 0.88744 0.37268 0.77412 0.0
C1549 C 0.8388 0.4008 0.79843 0.0
C1550 C 0.8441 0.37417 0.88162 0.0
C1551 C 0.83154 0.41138 0.80242 0.0
C1552 C 0.89353 0.33882 0.89421 0.0
C1553 C 0.88529 0.34905 0.89367 0.0
C1554 C 0.87526 0.37296 0.80403 0.0
C1555 C 0.8415 0.3945 0.84817 0.0
C1556 C 0.85056 0.38368 0.84465 0.0
C1557 C 0.87896 0.35322 0.84175 0.0
C1558 C 0.86907 0.36364 0.84197 0.0
H1559 H 0.82505 0.41253 0.94777 0.0
H1560 H 0.83822 0.39434 0.9411 0.0
H1561 H 0.87182 0.39014 0.77715 0.0
H1562 H 0.89082 0.33212 0.75038 0.0
H1563 H 0.87675 0.3502 0.7495 0.0
C1564 C 0.08272 0.07921 0.59981 0.0
C1565 C 0.07883 0.0734 0.65245 0.0
C1566 C 0.08648 0.09155 0.59797 0.0
C1567 C 0.10451 0.11825 0.68538 0.0
H1568 H 0.07814 0.13392 0.56984 0.0
C1569 C 0.11313 0.16895 0.68496 0.0
C1570 C 0.11533 0.17456 0.63155 0.0
C1571 C 0.10768 0.15665 0.68776 0.0
C1572 C 0.08582 0.12969 0.6019 0.0
H1573 H 0.07598 0.07604 0.74452 0.0
H1574 H 0.08277 0.09768 0.74123 0.0
H1575 H 0.07073 0.11233 0.57464 0.0
H1576 H 0.11334 0.17165 0.5391 0.0
H1577 H 0.10428 0.1501 0.54389 0.0
H1578 H 0.11996 0.13551 0.71197 0.0
C1579 C 0.08288 0.09262 0.70147 0.0
C1580 C 0.08151 0.11733 0.60475 0.0
C1581 C 0.07892 0.08024 0.7033 0.0
C1582 C 0.11167 0.16759 0.58092 0.0
C1583 C 0.10639 0.15524 0.58371 0.0
C1584 C 0.10894 0.13059 0.68225 0.0
C1585 C 0.08661 0.09839 0.64873 0.0
C1586 C 0.09083 0.1115 0.64649 0.0
C1587 C 0.1045 0.14962 0.63721 0.0
C1588 C 0.09964 0.13647 0.6405 0.0
H1589 H 0.08275 0.07422 0.55978 0.0
H1590 H 0.08954 0.09577 0.55681 0.0
H1591 H 0.11212 0.11398 0.71745 0.0
H1592 H 0.11564 0.17406 0.72485 0.0
H1593 H 0.10594 0.15265 0.72969 0.0
C1594 C 0.8374 0.91296 0.32542 0.0
C1595 C 0.83121 0.91725 0.37812 0.0
C1596 C 0.84616 0.9029 0.32338 0.0
C1597 C 0.85253 0.87685 0.4086 0.0
H1598 H 0.89679 0.87599 0.30353 0.0
C1599 C 0.89938 0.84006 0.41503 0.0
C1600 C 0.90135 0.83435 0.36187 0.0
C1601 C 0.89225 0.85069 0.41739 0.0
C1602 C 0.8844 0.87611 0.33292 0.0
H1603 H 0.82928 0.91428 0.47001 0.0
H1604 H 0.84497 0.89695 0.46667 0.0
H1605 H 0.88081 0.89331 0.30676 0.0
H1606 H 0.89839 0.83567 0.26936 0.0
H1607 H 0.8862 0.8543 0.27361 0.0
H1608 H 0.85637 0.8597 0.43521 0.0
C1609 C 0.84268 0.90118 0.42666 0.0
C1610 C 0.87515 0.88599 0.33458 0.0
C1611 C 0.83374 0.91117 0.42861 0.0
C1612 C 0.89699 0.83981 0.31102 0.0
C1613 C 0.89007 0.8505 0.31338 0.0
C1614 C 0.86192 0.86704 0.40734 0.0
C1615 C 0.84912 0.89695 0.37407 0.0
C1616 C 0.85903 0.88646 0.37229 0.0
C1617 C 0.88719 0.8559 0.36665 0.0
C1618 C 0.87789 0.86655 0.36936 0.0
H1619 H 0.83554 0.91741 0.28567 0.0
H1620 H 0.85056 0.89977 0.28199 0.0
H1621 H 0.83995 0.87679 0.43742 0.0
H1622 H 0.90264 0.83612 0.45503 0.0
H1623 H 0.8904 0.85475 0.45899 0.0
C1624 C 0.61401 0.67003 0.68864 0.0
C1625 C 0.6153 0.67549 0.63479 0.0
C1626 C 0.60873 0.65772 0.6924 0.0
C1627 C 0.61044 0.63062 0.61022 0.0
H1628 H 0.57133 0.61537 0.7204 0.0
C1629 C 0.5833 0.58023 0.60654 0.0
C1630 C 0.57986 0.57437 0.6591 0.0
C1631 C 0.58715 0.59257 0.60498 0.0
C1632 C 0.5825 0.61949 0.68999 0.0
H1633 H 0.61175 0.6723 0.54273 0.0
H1634 H 0.60273 0.65075 0.54938 0.0
H1635 H 0.57851 0.63697 0.71453 0.0
H1636 H 0.57776 0.57689 0.75142 0.0
H1637 H 0.58503 0.59854 0.74889 0.0
H1638 H 0.61487 0.61329 0.58635 0.0
C1639 C 0.60584 0.65604 0.58859 0.0
C1640 C 0.58652 0.63185 0.68646 0.0
C1641 C 0.6109 0.66837 0.58482 0.0
C1642 C 0.5803 0.58115 0.71023 0.0
C1643 C 0.58436 0.59355 0.70871 0.0
C1644 C 0.60659 0.6183 0.6141 0.0
C1645 C 0.60484 0.6506 0.64239 0.0
C1646 C 0.60043 0.63752 0.64625 0.0
C1647 C 0.5879 0.5994 0.656 0.0
C1648 C 0.59245 0.61256 0.65368 0.0
H1649 H 0.61724 0.67526 0.72802 0.0
H1650 H 0.60821 0.65375 0.73438 0.0
H1651 H 0.62152 0.63478 0.57958 0.0
H1652 H 0.58283 0.5753 0.56622 0.0
H1653 H 0.58933 0.59674 0.56351 0.0
C1654 C 0.33761 0.41241 0.31561 0.0
C1655 C 0.33211 0.41703 0.36836 0.0
C1656 C 0.34596 0.40218 0.31385 0.0
C1657 C 0.35256 0.37645 0.40141 0.0
H1658 H 0.39583 0.37472 0.29401 0.0
C1659 C 0.39998 0.34003 0.4128 0.0
C1660 C 0.40157 0.3338 0.36086 0.0
C1661 C 0.39264 0.35059 0.41312 0.0
C1662 C 0.3837 0.37508 0.32403 0.0
H1663 H 0.33093 0.41447 0.46062 0.0
H1664 H 0.34591 0.39689 0.45774 0.0
H1665 H 0.37999 0.39211 0.29557 0.0
H1666 H 0.39766 0.33412 0.26824 0.0
H1667 H 0.38513 0.35267 0.26893 0.0
H1668 H 0.35659 0.3595 0.43049 0.0
C1669 C 0.34339 0.40097 0.41749 0.0
C1670 C 0.37453 0.385 0.32475 0.0
C1671 C 0.33486 0.4111 0.41919 0.0
C1672 C 0.39658 0.33868 0.30901 0.0
C1673 C 0.38946 0.34931 0.30932 0.0
C1674 C 0.36189 0.36662 0.40111 0.0
C1675 C 0.34918 0.39641 0.36485 0.0
C1676 C 0.35881 0.3858 0.36344 0.0
C1677 C 0.38698 0.35522 0.36151 0.0
C1678 C 0.37753 0.36583 0.36242 0.0
H1679 H 0.33557 0.41672 0.27562 0.0
H1680 H 0.34987 0.39881 0.27243 0.0
H1681 H 0.34026 0.37663 0.43101 0.0
H1682 H 0.40371 0.33655 0.45352 0.0
H1683 H 0.39111 0.35506 0.45389 0.0
C1684 C 0.62836 0.16737 0.1759 0.0
C1685 C 0.61935 0.17367 0.13539 0.0
C1686 C 0.62371 0.15503 0.17649 0.0
C1687 C 0.58497 0.12947 0.14004 0.0
H1688 H 0.6288 0.11207 0.14306 0.0
C1689 C 0.57459 0.07947 0.19164 0.0
C1690 C 0.58351 0.07265 0.15213 0.0
C1691 C 0.57865 0.09185 0.18909 0.0
C1692 C 0.61643 0.11682 0.14215 0.0
H1693 H 0.59824 0.17194 0.06397 0.0
H1694 H 0.58978 0.15022 0.06585 0.0
H1695 H 0.63631 0.13369 0.13771 0.0
H1696 H 0.604 0.07346 0.07988 0.0
H1697 H 0.61136 0.09503 0.07639 0.0
H1698 H 0.5651 0.11257 0.14529 0.0
C1699 C 0.60053 0.15494 0.09685 0.0
C1700 C 0.62071 0.12916 0.13932 0.0
C1701 C 0.60544 0.16733 0.09564 0.0
C1702 C 0.59684 0.07846 0.11083 0.0
C1703 C 0.60112 0.0908 0.1089 0.0
C1704 C 0.58068 0.11712 0.14378 0.0
C1705 C 0.60975 0.1487 0.1371 0.0
C1706 C 0.60504 0.1356 0.13822 0.0
C1707 C 0.59196 0.09761 0.14768 0.0
C1708 C 0.59639 0.11069 0.14476 0.0
H1709 H 0.63921 0.17196 0.20695 0.0
H1710 H 0.6309 0.15042 0.20821 0.0
H1711 H 0.57264 0.13426 0.13964 0.0
H1712 H 0.5642 0.07525 0.22383 0.0
H1713 H 0.57152 0.09693 0.21975 0.0
C1714 C 0.3918 0.83853 0.7835 0.0
C1715 C 0.39783 0.8344 0.83598 0.0
C1716 C 0.38519 0.84932 0.78146 0.0
C1717 C 0.38371 0.87689 0.86763 0.0
H1718 H 0.33744 0.87828 0.77094 0.0
C1719 C 0.33475 0.91223 0.89953 0.0
C1720 C 0.33116 0.91843 0.85028 0.0
C1721 C 0.34331 0.90213 0.89464 0.0
C1722 C 0.35046 0.87803 0.79776 0.0
H1723 H 0.40196 0.83847 0.92727 0.0
H1724 H 0.38996 0.857 0.92406 0.0
H1725 H 0.35253 0.86062 0.76761 0.0
H1726 H 0.33305 0.91864 0.7571 0.0
H1727 H 0.34765 0.90078 0.74865 0.0
H1728 H 0.38107 0.89415 0.89923 0.0
C1729 C 0.39076 0.85212 0.8841 0.0
C1730 C 0.35921 0.86795 0.79568 0.0
C1731 C 0.39757 0.84142 0.88603 0.0
C1732 C 0.3357 0.91408 0.79587 0.0
C1733 C 0.34399 0.90386 0.79096 0.0
C1734 C 0.37479 0.88687 0.87026 0.0
C1735 C 0.38427 0.85616 0.83194 0.0
C1736 C 0.37583 0.8672 0.83104 0.0
C1737 C 0.34818 0.89792 0.84039 0.0
C1738 C 0.35798 0.88749 0.83577 0.0
H1739 H 0.39196 0.83336 0.74408 0.0
H1740 H 0.38066 0.85225 0.74035 0.0
H1741 H 0.39675 0.87676 0.89451 0.0
H1742 H 0.33146 0.91536 0.94207 0.0
H1743 H 0.34619 0.89762 0.93335 0.0
loop_
_geom_bond_atom_site_label_1
_geom_bond_atom_site_label_2
_geom_bond_distance
_geom_bond_site_symmetry_2
_ccdc_geom_bond_type
Co0 O3 1.970 . S
Co0 N17 1.989 . S
Co0 O25 1.967 . S
Co0 O32 1.920 . S
Co1 O4 1.966 . S
Co1 N10 2.022 . S
Co1 N18 1.993 . S
Co1 O26 1.941 . S
C2 O3 1.258 . S
C2 O4 1.263 . S
O3 Co0 1.970 . S
O3 C2 1.258 . S
O4 Co1 1.966 . S
O4 C2 1.263 . S
C5 O6 1.235 . S
C5 O32 1.289 . S
O6 C5 1.235 . S
C7 C9 1.400 . S
C7 N10 1.351 . S
C7 C12 1.501 . S
C8 C9 1.387 . S
C8 N11 1.341 . S
C9 C7 1.400 . S
C9 C8 1.387 . S
N10 Co1 2.022 . S
N10 C7 1.351 . S
N10 N11 1.365 . S
N11 C8 1.341 . S
N11 N10 1.365 . S
N11 H31 0.862 . S
C12 C7 1.501 . S
C12 H13 0.961 . S
C12 H14 0.961 . S
C12 H15 0.960 . S
H13 C12 0.961 . S
H14 C12 0.961 . S
H15 C12 0.960 . S
C16 N17 1.342 . S
C16 C20 1.401 . S
C16 C21 1.499 . S
N17 Co0 1.989 . S
N17 C16 1.342 . S
N17 N18 1.388 . S
N18 Co1 1.993 . S
N18 N17 1.388 . S
N18 C19 1.346 . S
C19 N18 1.346 . S
C19 C20 1.396 . S
C19 C29 1.510 . S
C20 C16 1.401 . S
C20 C19 1.396 . S
C21 C16 1.499 . S
C21 H22 0.959 . S
C21 H23 0.960 . S
C21 H24 0.961 . S
H22 C21 0.959 . S
H23 C21 0.960 . S
H24 C21 0.961 . S
O25 Co0 1.967 . S
O25 C33 1.258 . S
O26 Co1 1.941 . S
O26 C33 1.266 . S
H27 C29 0.959 . S
H28 C29 0.961 . S
C29 C19 1.510 . S
C29 H27 0.959 . S
C29 H28 0.961 . S
C29 H30 0.960 . S
H30 C29 0.960 . S
H31 N11 0.862 . S
O32 Co0 1.920 . S
O32 C5 1.289 . S
C33 O25 1.258 . S
C33 O26 1.266 . S
Co34 O37 1.970 . S
Co34 N51 1.989 . S
Co34 O59 1.967 . S
Co34 O66 1.920 . S
Co35 O38 1.966 . S
Co35 N44 2.022 1_554 S
Co35 N52 1.993 . S
Co35 O60 1.941 . S
C36 O37 1.258 . S
C36 O38 1.263 . S
O37 Co34 1.970 . S
O37 C36 1.258 . S
O38 Co35 1.966 . S
O38 C36 1.263 . S
C39 O40 1.235 . S
C39 O66 1.289 . S
O40 C39 1.235 . S
C41 C43 1.400 . S
C41 N44 1.351 . S
C41 C46 1.501 . S
C42 C43 1.387 . S
C42 N45 1.341 . S
C43 C41 1.400 . S
C43 C42 1.387 . S
N44 Co35 2.022 1_556 S
N44 C41 1.351 . S
N44 N45 1.365 . S
N45 C42 1.341 . S
N45 N44 1.365 . S
N45 H65 0.862 . S
C46 C41 1.501 . S
C46 H47 0.961 . S
C46 H48 0.961 . S
C46 H49 0.960 . S
H47 C46 0.961 . S
H48 C46 0.961 . S
H49 C46 0.960 . S
C50 N51 1.342 . S
C50 C54 1.401 . S
C50 C55 1.499 . S
N51 Co34 1.989 . S
N51 C50 1.342 . S
N51 N52 1.388 . S
N52 Co35 1.993 . S
N52 N51 1.388 . S
N52 C53 1.346 . S
C53 N52 1.346 . S
C53 C54 1.396 . S
C53 C63 1.510 1_554 S
C54 C50 1.401 . S
C54 C53 1.396 . S
C55 C50 1.499 . S
C55 H56 0.959 . S
C55 H57 0.960 . S
C55 H58 0.961 . S
H56 C55 0.959 . S
H57 C55 0.960 . S
H58 C55 0.961 . S
O59 Co34 1.967 . S
O59 C67 1.258 . S
O60 Co35 1.941 . S
O60 C67 1.266 . S
H61 C63 0.959 . S
H62 C63 0.961 . S
C63 C53 1.510 1_556 S
C63 H61 0.959 . S
C63 H62 0.961 . S
C63 H64 0.960 . S
H64 C63 0.960 . S
H65 N45 0.862 . S
O66 Co34 1.920 . S
O66 C39 1.289 . S
C67 O59 1.258 . S
C67 O60 1.266 . S
Co68 O71 1.970 . S
Co68 N85 1.989 . S
Co68 O93 1.967 . S
Co68 O100 1.920 1_556 S
Co69 O72 1.966 . S
Co69 N78 2.022 . S
Co69 N86 1.993 . S
Co69 O94 1.941 . S
C70 O71 1.258 . S
C70 O72 1.263 . S
O71 Co68 1.970 . S
O71 C70 1.258 . S
O72 Co69 1.966 . S
O72 C70 1.263 . S
C73 O74 1.235 . S
C73 O100 1.289 . S
O74 C73 1.235 . S
C75 C77 1.400 . S
C75 N78 1.351 . S
C75 C80 1.501 . S
C76 C77 1.387 . S
C76 N79 1.341 . S
C77 C75 1.400 . S
C77 C76 1.387 . S
N78 Co69 2.022 . S
N78 C75 1.351 . S
N78 N79 1.365 . S
N79 C76 1.341 . S
N79 N78 1.365 . S
N79 H99 0.862 . S
C80 C75 1.501 . S
C80 H81 0.961 . S
C80 H82 0.961 . S
C80 H83 0.960 . S
H81 C80 0.961 . S
H82 C80 0.961 . S
H83 C80 0.960 . S
C84 N85 1.342 . S
C84 C88 1.401 . S
C84 C89 1.499 . S
N85 Co68 1.989 . S
N85 C84 1.342 . S
N85 N86 1.388 . S
N86 Co69 1.993 . S
N86 N85 1.388 . S
N86 C87 1.346 . S
C87 N86 1.346 . S
C87 C88 1.396 . S
C87 C97 1.510 . S
C88 C84 1.401 . S
C88 C87 1.396 . S
C89 C84 1.499 . S
C89 H90 0.959 . S
C89 H91 0.960 . S
C89 H92 0.961 . S
H90 C89 0.959 . S
H91 C89 0.960 . S
H92 C89 0.961 . S
O93 Co68 1.967 . S
O93 C101 1.258 . S
O94 Co69 1.941 . S
O94 C101 1.266 . S
H95 C97 0.959 . S
H96 C97 0.961 . S
C97 C87 1.510 . S
C97 H95 0.959 . S
C97 H96 0.961 . S
C97 H98 0.960 . S
H98 C97 0.960 . S
H99 N79 0.862 . S
O100 Co68 1.920 1_554 S
O100 C73 1.289 . S
C101 O93 1.258 . S
C101 O94 1.266 . S
Co102 O105 1.970 . S
Co102 N119 1.989 . S
Co102 O127 1.967 . S
Co102 O134 1.920 1_556 S
Co103 O106 1.966 . S
Co103 N112 2.022 . S
Co103 N120 1.993 . S
Co103 O128 1.941 . S
C104 O105 1.258 . S
C104 O106 1.263 . S
O105 Co102 1.970 . S
O105 C104 1.258 . S
O106 Co103 1.966 . S
O106 C104 1.263 . S
C107 O108 1.235 . S
C107 O134 1.289 . S
O108 C107 1.235 . S
C109 C111 1.400 . S
C109 N112 1.351 . S
C109 C114 1.501 . S
C110 C111 1.387 . S
C110 N113 1.341 . S
C111 C109 1.400 . S
C111 C110 1.387 . S
N112 Co103 2.022 . S
N112 C109 1.351 . S
N112 N113 1.365 . S
N113 C110 1.341 . S
N113 N112 1.365 . S
N113 H133 0.862 . S
C114 C109 1.501 . S
C114 H115 0.961 . S
C114 H116 0.961 . S
C114 H117 0.960 . S
H115 C114 0.961 . S
H116 C114 0.961 . S
H117 C114 0.960 . S
C118 N119 1.342 . S
C118 C122 1.401 . S
C118 C123 1.499 . S
N119 Co102 1.989 . S
N119 C118 1.342 . S
N119 N120 1.388 . S
N120 Co103 1.993 . S
N120 N119 1.388 . S
N120 C121 1.346 . S
C121 N120 1.346 . S
C121 C122 1.396 . S
C121 C131 1.510 . S
C122 C118 1.401 . S
C122 C121 1.396 . S
C123 C118 1.499 . S
C123 H124 0.959 . S
C123 H125 0.960 . S
C123 H126 0.961 . S
H124 C123 0.959 . S
H125 C123 0.960 . S
H126 C123 0.961 . S
O127 Co102 1.967 . S
O127 C135 1.258 . S
O128 Co103 1.941 . S
O128 C135 1.266 . S
H129 C131 0.959 . S
H130 C131 0.961 . S
C131 C121 1.510 . S
C131 H129 0.959 . S
C131 H130 0.961 . S
C131 H132 0.960 . S
H132 C131 0.960 . S
H133 N113 0.862 . S
O134 Co102 1.920 1_554 S
O134 C107 1.289 . S
C135 O127 1.258 . S
C135 O128 1.266 . S
Co136 O139 1.970 . S
Co136 N153 1.989 . S
Co136 O161 1.967 . S
Co136 O168 1.920 . S
Co137 O140 1.966 . S
Co137 N146 2.022 . S
Co137 N154 1.993 . S
Co137 O162 1.941 . S
C138 O139 1.258 . S
C138 O140 1.263 . S
O139 Co136 1.970 . S
O139 C138 1.258 . S
O140 Co137 1.966 . S
O140 C138 1.263 . S
C141 O142 1.235 . S
C141 O168 1.289 . S
O142 C141 1.235 . S
C143 C145 1.400 . S
C143 N146 1.351 . S
C143 C148 1.501 . S
C144 C145 1.387 . S
C144 N147 1.341 . S
C145 C143 1.400 . S
C145 C144 1.387 . S
N146 Co137 2.022 . S
N146 C143 1.351 . S
N146 N147 1.365 . S
N147 C144 1.341 . S
N147 N146 1.365 . S
N147 H167 0.862 . S
C148 C143 1.501 . S
C148 H149 0.961 . S
C148 H150 0.961 . S
C148 H151 0.960 . S
H149 C148 0.961 . S
H150 C148 0.961 . S
H151 C148 0.960 . S
C152 N153 1.342 . S
C152 C156 1.401 . S
C152 C157 1.499 . S
N153 Co136 1.989 . S
N153 C152 1.342 . S
N153 N154 1.388 . S
N154 Co137 1.993 . S
N154 N153 1.388 . S
N154 C155 1.346 . S
C155 N154 1.346 . S
C155 C156 1.396 . S
C155 C165 1.510 . S
C156 C152 1.401 . S
C156 C155 1.396 . S
C157 C152 1.499 . S
C157 H158 0.959 . S
C157 H159 0.960 . S
C157 H160 0.961 . S
H158 C157 0.959 . S
H159 C157 0.960 . S
H160 C157 0.961 . S
O161 Co136 1.967 . S
O161 C169 1.258 . S
O162 Co137 1.941 . S
O162 C169 1.266 . S
H163 C165 0.959 . S
H164 C165 0.961 . S
C165 C155 1.510 . S
C165 H163 0.959 . S
C165 H164 0.961 . S
C165 H166 0.960 . S
H166 C165 0.960 . S
H167 N147 0.862 . S
O168 Co136 1.920 . S
O168 C141 1.289 . S
C169 O161 1.258 . S
C169 O162 1.266 . S
Co170 O173 1.970 . S
Co170 N187 1.989 . S
Co170 O195 1.967 . S
Co170 O202 1.920 . S
Co171 O174 1.966 . S
Co171 N180 2.022 . S
Co171 N188 1.993 . S
Co171 O196 1.941 . S
C172 O173 1.258 . S
C172 O174 1.263 . S
O173 Co170 1.970 . S
O173 C172 1.258 . S
O174 Co171 1.966 . S
O174 C172 1.263 . S
C175 O176 1.235 . S
C175 O202 1.289 . S
O176 C175 1.235 . S
C177 C179 1.400 . S
C177 N180 1.351 . S
C177 C182 1.501 . S
C178 C179 1.387 . S
C178 N181 1.341 . S
C179 C177 1.400 . S
C179 C178 1.387 . S
N180 Co171 2.022 . S
N180 C177 1.351 . S
N180 N181 1.365 . S
N181 C178 1.341 . S
N181 N180 1.365 . S
N181 H201 0.862 . S
C182 C177 1.501 . S
C182 H183 0.961 . S
C182 H184 0.961 . S
C182 H185 0.960 . S
H183 C182 0.961 . S
H184 C182 0.961 . S
H185 C182 0.960 . S
C186 N187 1.342 . S
C186 C190 1.401 . S
C186 C191 1.499 . S
N187 Co170 1.989 . S
N187 C186 1.342 . S
N187 N188 1.388 . S
N188 Co171 1.993 . S
N188 N187 1.388 . S
N188 C189 1.346 . S
C189 N188 1.346 . S
C189 C190 1.396 . S
C189 C199 1.510 . S
C190 C186 1.401 . S
C190 C189 1.396 . S
C191 C186 1.499 . S
C191 H192 0.959 . S
C191 H193 0.960 . S
C191 H194 0.961 . S
H192 C191 0.959 . S
H193 C191 0.960 . S
H194 C191 0.961 . S
O195 Co170 1.967 . S
O195 C203 1.258 . S
O196 Co171 1.941 . S
O196 C203 1.266 . S
H197 C199 0.959 . S
H198 C199 0.961 . S
C199 C189 1.510 . S
C199 H197 0.959 . S
C199 H198 0.961 . S
C199 H200 0.960 . S
H200 C199 0.960 . S
H201 N181 0.862 . S
O202 Co170 1.920 . S
O202 C175 1.289 . S
C203 O195 1.258 . S
C203 O196 1.266 . S
Co204 O207 1.970 . S
Co204 N221 1.989 . S
Co204 O229 1.967 . S
Co204 O236 1.920 . S
Co205 O208 1.966 . S
Co205 N214 2.022 . S
Co205 N222 1.993 . S
Co205 O230 1.941 . S
C206 O207 1.258 . S
C206 O208 1.263 . S
O207 Co204 1.970 . S
O207 C206 1.258 . S
O208 Co205 1.966 . S
O208 C206 1.263 . S
C209 O210 1.235 . S
C209 O236 1.289 . S
O210 C209 1.235 . S
C211 C213 1.400 . S
C211 N214 1.351 . S
C211 C216 1.501 . S
C212 C213 1.387 . S
C212 N215 1.341 . S
C213 C211 1.400 . S
C213 C212 1.387 . S
N214 Co205 2.022 . S
N214 C211 1.351 . S
N214 N215 1.365 . S
N215 C212 1.341 . S
N215 N214 1.365 . S
N215 H235 0.862 . S
C216 C211 1.501 . S
C216 H217 0.961 . S
C216 H218 0.961 . S
C216 H219 0.960 . S
H217 C216 0.961 . S
H218 C216 0.961 . S
H219 C216 0.960 . S
C220 N221 1.342 . S
C220 C224 1.401 . S
C220 C225 1.499 . S
N221 Co204 1.989 . S
N221 C220 1.342 . S
N221 N222 1.388 . S
N222 Co205 1.993 . S
N222 N221 1.388 . S
N222 C223 1.346 . S
C223 N222 1.346 . S
C223 C224 1.396 . S
C223 C233 1.510 . S
C224 C220 1.401 . S
C224 C223 1.396 . S
C225 C220 1.499 . S
C225 H226 0.959 . S
C225 H227 0.960 . S
C225 H228 0.961 . S
H226 C225 0.959 . S
H227 C225 0.960 . S
H228 C225 0.961 . S
O229 Co204 1.967 . S
O229 C237 1.258 . S
O230 Co205 1.941 . S
O230 C237 1.266 . S
H231 C233 0.959 . S
H232 C233 0.961 . S
C233 C223 1.510 . S
C233 H231 0.959 . S
C233 H232 0.961 . S
C233 H234 0.960 . S
H234 C233 0.960 . S
H235 N215 0.862 . S
O236 Co204 1.920 . S
O236 C209 1.289 . S
C237 O229 1.258 . S
C237 O230 1.266 . S
Co238 O241 1.970 . S
Co238 N255 1.989 . S
Co238 O263 1.967 . S
Co238 O270 1.920 . S
Co239 O242 1.966 . S
Co239 N248 2.022 . S
Co239 N256 1.993 . S
Co239 O264 1.941 . S
C240 O241 1.258 . S
C240 O242 1.263 . S
O241 Co238 1.970 . S
O241 C240 1.258 . S
O242 Co239 1.966 . S
O242 C240 1.263 . S
C243 O244 1.235 . S
C243 O270 1.289 . S
O244 C243 1.235 . S
C245 C247 1.400 . S
C245 N248 1.351 . S
C245 C250 1.501 . S
C246 C247 1.387 . S
C246 N249 1.341 . S
C247 C245 1.400 . S
C247 C246 1.387 . S
N248 Co239 2.022 . S
N248 C245 1.351 . S
N248 N249 1.365 . S
N249 C246 1.341 . S
N249 N248 1.365 . S
N249 H269 0.862 . S
C250 C245 1.501 . S
C250 H251 0.961 . S
C250 H252 0.961 . S
C250 H253 0.960 . S
H251 C250 0.961 . S
H252 C250 0.961 . S
H253 C250 0.960 . S
C254 N255 1.342 . S
C254 C258 1.401 . S
C254 C259 1.499 . S
N255 Co238 1.989 . S
N255 C254 1.342 . S
N255 N256 1.388 . S
N256 Co239 1.993 . S
N256 N255 1.388 . S
N256 C257 1.346 . S
C257 N256 1.346 . S
C257 C258 1.396 . S
C257 C267 1.510 . S
C258 C254 1.401 . S
C258 C257 1.396 . S
C259 C254 1.499 . S
C259 H260 0.959 . S
C259 H261 0.960 . S
C259 H262 0.961 . S
H260 C259 0.959 . S
H261 C259 0.960 . S
H262 C259 0.961 . S
O263 Co238 1.967 . S
O263 C271 1.258 . S
O264 Co239 1.941 . S
O264 C271 1.266 . S
H265 C267 0.959 . S
H266 C267 0.961 . S
C267 C257 1.510 . S
C267 H265 0.959 . S
C267 H266 0.961 . S
C267 H268 0.960 . S
H268 C267 0.960 . S
H269 N249 0.862 . S
O270 Co238 1.920 . S
O270 C243 1.289 . S
C271 O263 1.258 . S
C271 O264 1.266 . S
Co272 O275 1.970 . S
Co272 N289 1.989 . S
Co272 O297 1.967 . S
Co272 O304 1.920 . S
Co273 O276 1.966 . S
Co273 N282 2.022 . S
Co273 N290 1.993 . S
Co273 O298 1.941 . S
C274 O275 1.258 . S
C274 O276 1.263 . S
O275 Co272 1.970 . S
O275 C274 1.258 . S
O276 Co273 1.966 . S
O276 C274 1.263 . S
C277 O278 1.235 . S
C277 O304 1.289 . S
O278 C277 1.235 . S
C279 C281 1.400 . S
C279 N282 1.351 . S
C279 C284 1.501 . S
C280 C281 1.387 . S
C280 N283 1.341 . S
C281 C279 1.400 . S
C281 C280 1.387 . S
N282 Co273 2.022 . S
N282 C279 1.351 . S
N282 N283 1.365 . S
N283 C280 1.341 . S
N283 N282 1.365 . S
N283 H303 0.862 . S
C284 C279 1.501 . S
C284 H285 0.961 . S
C284 H286 0.961 . S
C284 H287 0.960 . S
H285 C284 0.961 . S
H286 C284 0.961 . S
H287 C284 0.960 . S
C288 N289 1.342 . S
C288 C292 1.401 . S
C288 C293 1.499 . S
N289 Co272 1.989 . S
N289 C288 1.342 . S
N289 N290 1.388 . S
N290 Co273 1.993 . S
N290 N289 1.388 . S
N290 C291 1.346 . S
C291 N290 1.346 . S
C291 C292 1.396 . S
C291 C301 1.510 . S
C292 C288 1.401 . S
C292 C291 1.396 . S
C293 C288 1.499 . S
C293 H294 0.959 . S
C293 H295 0.960 . S
C293 H296 0.961 . S
H294 C293 0.959 . S
H295 C293 0.960 . S
H296 C293 0.961 . S
O297 Co272 1.967 . S
O297 C305 1.258 . S
O298 Co273 1.941 . S
O298 C305 1.266 . S
H299 C301 0.959 . S
H300 C301 0.961 . S
C301 C291 1.510 . S
C301 H299 0.959 . S
C301 H300 0.961 . S
C301 H302 0.960 . S
H302 C301 0.960 . S
H303 N283 0.862 . S
O304 Co272 1.920 . S
O304 C277 1.289 . S
C305 O297 1.258 . S
C305 O298 1.266 . S
Co306 O309 1.970 . S
Co306 N323 1.989 . S
Co306 O331 1.967 . S
Co306 O338 1.920 . S
Co307 O310 1.966 . S
Co307 N316 2.022 . S
Co307 N324 1.993 . S
Co307 O332 1.941 . S
C308 O309 1.258 . S
C308 O310 1.263 . S
O309 Co306 1.970 . S
O309 C308 1.258 . S
O310 Co307 1.966 . S
O310 C308 1.263 . S
C311 O312 1.235 . S
C311 O338 1.289 . S
O312 C311 1.235 . S
C313 C315 1.400 . S
C313 N316 1.351 . S
C313 C318 1.501 . S
C314 C315 1.387 . S
C314 N317 1.341 . S
C315 C313 1.400 . S
C315 C314 1.387 . S
N316 Co307 2.022 . S
N316 C313 1.351 . S
N316 N317 1.365 . S
N317 C314 1.341 . S
N317 N316 1.365 . S
N317 H337 0.862 . S
C318 C313 1.501 . S
C318 H319 0.961 . S
C318 H320 0.961 . S
C318 H321 0.960 . S
H319 C318 0.961 . S
H320 C318 0.961 . S
H321 C318 0.960 . S
C322 N323 1.342 . S
C322 C326 1.401 . S
C322 C327 1.499 . S
N323 Co306 1.989 . S
N323 C322 1.342 . S
N323 N324 1.388 . S
N324 Co307 1.993 . S
N324 N323 1.388 . S
N324 C325 1.346 . S
C325 N324 1.346 . S
C325 C326 1.396 . S
C325 C335 1.510 . S
C326 C322 1.401 . S
C326 C325 1.396 . S
C327 C322 1.499 . S
C327 H328 0.959 . S
C327 H329 0.960 . S
C327 H330 0.961 . S
H328 C327 0.959 . S
H329 C327 0.960 . S
H330 C327 0.961 . S
O331 Co306 1.967 . S
O331 C339 1.258 . S
O332 Co307 1.941 . S
O332 C339 1.266 . S
H333 C335 0.959 . S
H334 C335 0.961 . S
C335 C325 1.510 . S
C335 H333 0.959 . S
C335 H334 0.961 . S
C335 H336 0.960 . S
H336 C335 0.960 . S
H337 N317 0.862 . S
O338 Co306 1.920 . S
O338 C311 1.289 . S
C339 O331 1.258 . S
C339 O332 1.266 . S
Co340 O343 1.970 . S
Co340 N357 1.989 . S
Co340 O365 1.967 . S
Co340 O372 1.920 . S
Co341 O344 1.966 . S
Co341 N350 2.022 . S
Co341 N358 1.993 . S
Co341 O366 1.941 . S
C342 O343 1.258 . S
C342 O344 1.263 . S
O343 Co340 1.970 . S
O343 C342 1.258 . S
O344 Co341 1.966 . S
O344 C342 1.263 . S
C345 O346 1.235 . S
C345 O372 1.289 . S
O346 C345 1.235 . S
C347 C349 1.400 . S
C347 N350 1.351 . S
C347 C352 1.501 . S
C348 C349 1.387 . S
C348 N351 1.341 . S
C349 C347 1.400 . S
C349 C348 1.387 . S
N350 Co341 2.022 . S
N350 C347 1.351 . S
N350 N351 1.365 . S
N351 C348 1.341 . S
N351 N350 1.365 . S
N351 H371 0.862 . S
C352 C347 1.501 . S
C352 H353 0.961 . S
C352 H354 0.961 . S
C352 H355 0.960 . S
H353 C352 0.961 . S
H354 C352 0.961 . S
H355 C352 0.960 . S
C356 N357 1.342 . S
C356 C360 1.401 . S
C356 C361 1.499 . S
N357 Co340 1.989 . S
N357 C356 1.342 . S
N357 N358 1.388 . S
N358 Co341 1.993 . S
N358 N357 1.388 . S
N358 C359 1.346 . S
C359 N358 1.346 . S
C359 C360 1.396 . S
C359 C369 1.510 . S
C360 C356 1.401 . S
C360 C359 1.396 . S
C361 C356 1.499 . S
C361 H362 0.959 . S
C361 H363 0.960 . S
C361 H364 0.961 . S
H362 C361 0.959 . S
H363 C361 0.960 . S
H364 C361 0.961 . S
O365 Co340 1.967 . S
O365 C373 1.258 . S
O366 Co341 1.941 . S
O366 C373 1.266 . S
H367 C369 0.959 . S
H368 C369 0.961 . S
C369 C359 1.510 . S
C369 H367 0.959 . S
C369 H368 0.961 . S
C369 H370 0.960 . S
H370 C369 0.960 . S
H371 N351 0.862 . S
O372 Co340 1.920 . S
O372 C345 1.289 . S
C373 O365 1.258 . S
C373 O366 1.266 . S
Co374 O377 1.970 . S
Co374 N391 1.989 . S
Co374 O399 1.967 . S
Co374 O406 1.920 . S
Co375 O378 1.966 . S
Co375 N384 2.022 . S
Co375 N392 1.993 . S
Co375 O400 1.941 . S
C376 O377 1.258 . S
C376 O378 1.263 . S
O377 Co374 1.970 . S
O377 C376 1.258 . S
O378 Co375 1.966 . S
O378 C376 1.263 . S
C379 O380 1.235 . S
C379 O406 1.289 . S
O380 C379 1.235 . S
C381 C383 1.400 . S
C381 N384 1.351 . S
C381 C386 1.501 . S
C382 C383 1.387 . S
C382 N385 1.341 . S
C383 C381 1.400 . S
C383 C382 1.387 . S
N384 Co375 2.022 . S
N384 C381 1.351 . S
N384 N385 1.365 . S
N385 C382 1.341 . S
N385 N384 1.365 . S
N385 H405 0.862 . S
C386 C381 1.501 . S
C386 H387 0.961 . S
C386 H388 0.961 . S
C386 H389 0.960 . S
H387 C386 0.961 . S
H388 C386 0.961 . S
H389 C386 0.960 . S
C390 N391 1.342 . S
C390 C394 1.401 . S
C390 C395 1.499 . S
N391 Co374 1.989 . S
N391 C390 1.342 . S
N391 N392 1.388 . S
N392 Co375 1.993 . S
N392 N391 1.388 . S
N392 C393 1.346 . S
C393 N392 1.346 . S
C393 C394 1.396 . S
C393 C403 1.510 . S
C394 C390 1.401 . S
C394 C393 1.396 . S
C395 C390 1.499 . S
C395 H396 0.959 . S
C395 H397 0.960 . S
C395 H398 0.961 . S
H396 C395 0.959 . S
H397 C395 0.960 . S
H398 C395 0.961 . S
O399 Co374 1.967 . S
O399 C407 1.258 . S
O400 Co375 1.941 . S
O400 C407 1.266 . S
H401 C403 0.959 . S
H402 C403 0.961 . S
C403 C393 1.510 . S
C403 H401 0.959 . S
C403 H402 0.961 . S
C403 H404 0.960 . S
H404 C403 0.960 . S
H405 N385 0.862 . S
O406 Co374 1.920 . S
O406 C379 1.289 . S
C407 O399 1.258 . S
C407 O400 1.266 . S
Co408 O411 1.970 . S
Co408 N425 1.989 . S
Co408 O433 1.967 . S
Co408 O440 1.920 . S
Co409 O412 1.966 . S
Co409 N418 2.022 . S
Co409 N426 1.993 . S
Co409 O434 1.941 . S
C410 O411 1.258 . S
C410 O412 1.263 . S
O411 Co408 1.970 . S
O411 C410 1.258 . S
O412 Co409 1.966 . S
O412 C410 1.263 . S
C413 O414 1.235 . S
C413 O440 1.289 . S
O414 C413 1.235 . S
C415 C417 1.400 . S
C415 N418 1.351 . S
C415 C420 1.501 . S
C416 C417 1.387 . S
C416 N419 1.341 . S
C417 C415 1.400 . S
C417 C416 1.387 . S
N418 Co409 2.022 . S
N418 C415 1.351 . S
N418 N419 1.365 . S
N419 C416 1.341 . S
N419 N418 1.365 . S
N419 H439 0.862 . S
C420 C415 1.501 . S
C420 H421 0.961 . S
C420 H422 0.961 . S
C420 H423 0.960 . S
H421 C420 0.961 . S
H422 C420 0.961 . S
H423 C420 0.960 . S
C424 N425 1.342 . S
C424 C428 1.401 . S
C424 C429 1.499 . S
N425 Co408 1.989 . S
N425 C424 1.342 . S
N425 N426 1.388 . S
N426 Co409 1.993 . S
N426 N425 1.388 . S
N426 C427 1.346 . S
C427 N426 1.346 . S
C427 C428 1.396 . S
C427 C437 1.510 . S
C428 C424 1.401 . S
C428 C427 1.396 . S
C429 C424 1.499 . S
C429 H430 0.959 . S
C429 H431 0.960 . S
C429 H432 0.961 . S
H430 C429 0.959 . S
H431 C429 0.960 . S
H432 C429 0.961 . S
O433 Co408 1.967 . S
O433 C441 1.258 . S
O434 Co409 1.941 . S
O434 C441 1.266 . S
H435 C437 0.959 . S
H436 C437 0.961 . S
C437 C427 1.510 . S
C437 H435 0.959 . S
C437 H436 0.961 . S
C437 H438 0.960 . S
H438 C437 0.960 . S
H439 N419 0.862 . S
O440 Co408 1.920 . S
O440 C413 1.289 . S
C441 O433 1.258 . S
C441 O434 1.266 . S
Co442 O445 1.970 . S
Co442 N459 1.989 . S
Co442 O467 1.967 . S
Co442 O474 1.920 . S
Co443 O446 1.966 . S
Co443 N452 2.022 1_554 S
Co443 N460 1.993 . S
Co443 O468 1.941 . S
C444 O445 1.258 . S
C444 O446 1.263 . S
O445 Co442 1.970 . S
O445 C444 1.258 . S
O446 Co443 1.966 . S
O446 C444 1.263 . S
C447 O448 1.235 . S
C447 O474 1.289 . S
O448 C447 1.235 . S
C449 C451 1.400 . S
C449 N452 1.351 . S
C449 C454 1.501 . S
C450 C451 1.387 . S
C450 N453 1.341 . S
C451 C449 1.400 . S
C451 C450 1.387 . S
N452 Co443 2.022 1_556 S
N452 C449 1.351 . S
N452 N453 1.365 . S
N453 C450 1.341 . S
N453 N452 1.365 . S
N453 H473 0.862 . S
C454 C449 1.501 . S
C454 H455 0.961 . S
C454 H456 0.961 . S
C454 H457 0.960 . S
H455 C454 0.961 . S
H456 C454 0.961 . S
H457 C454 0.960 . S
C458 N459 1.342 . S
C458 C462 1.401 . S
C458 C463 1.499 . S
N459 Co442 1.989 . S
N459 C458 1.342 . S
N459 N460 1.388 . S
N460 Co443 1.993 . S
N460 N459 1.388 . S
N460 C461 1.346 . S
C461 N460 1.346 . S
C461 C462 1.396 . S
C461 C471 1.510 1_554 S
C462 C458 1.401 . S
C462 C461 1.396 . S
C463 C458 1.499 . S
C463 H464 0.959 . S
C463 H465 0.960 . S
C463 H466 0.961 . S
H464 C463 0.959 . S
H465 C463 0.960 . S
H466 C463 0.961 . S
O467 Co442 1.967 . S
O467 C475 1.258 . S
O468 Co443 1.941 . S
O468 C475 1.266 . S
H469 C471 0.959 . S
H470 C471 0.961 . S
C471 C461 1.510 1_556 S
C471 H469 0.959 . S
C471 H470 0.961 . S
C471 H472 0.960 . S
H472 C471 0.960 . S
H473 N453 0.862 . S
O474 Co442 1.920 . S
O474 C447 1.289 . S
C475 O467 1.258 . S
C475 O468 1.266 . S
Co476 O479 1.970 . S
Co476 N493 1.989 . S
Co476 O501 1.967 . S
Co476 O508 1.920 1_556 S
Co477 O480 1.966 . S
Co477 N486 2.022 . S
Co477 N494 1.993 . S
Co477 O502 1.941 . S
C478 O479 1.258 . S
C478 O480 1.263 . S
O479 Co476 1.970 . S
O479 C478 1.258 . S
O480 Co477 1.966 . S
O480 C478 1.263 . S
C481 O482 1.235 . S
C481 O508 1.289 . S
O482 C481 1.235 . S
C483 C485 1.400 . S
C483 N486 1.351 . S
C483 C488 1.501 . S
C484 C485 1.387 . S
C484 N487 1.341 . S
C485 C483 1.400 . S
C485 C484 1.387 . S
N486 Co477 2.022 . S
N486 C483 1.351 . S
N486 N487 1.365 . S
N487 C484 1.341 . S
N487 N486 1.365 . S
N487 H507 0.862 . S
C488 C483 1.501 . S
C488 H489 0.961 . S
C488 H490 0.961 . S
C488 H491 0.960 . S
H489 C488 0.961 . S
H490 C488 0.961 . S
H491 C488 0.960 . S
C492 N493 1.342 . S
C492 C496 1.401 . S
C492 C497 1.499 . S
N493 Co476 1.989 . S
N493 C492 1.342 . S
N493 N494 1.388 . S
N494 Co477 1.993 . S
N494 N493 1.388 . S
N494 C495 1.346 . S
C495 N494 1.346 . S
C495 C496 1.396 . S
C495 C505 1.510 . S
C496 C492 1.401 . S
C496 C495 1.396 . S
C497 C492 1.499 . S
C497 H498 0.959 . S
C497 H499 0.960 . S
C497 H500 0.961 . S
H498 C497 0.959 . S
H499 C497 0.960 . S
H500 C497 0.961 . S
O501 Co476 1.967 . S
O501 C509 1.258 . S
O502 Co477 1.941 . S
O502 C509 1.266 . S
H503 C505 0.959 . S
H504 C505 0.961 . S
C505 C495 1.510 . S
C505 H503 0.959 . S
C505 H504 0.961 . S
C505 H506 0.960 . S
H506 C505 0.960 . S
H507 N487 0.862 . S
O508 Co476 1.920 1_554 S
O508 C481 1.289 . S
C509 O501 1.258 . S
C509 O502 1.266 . S
Co510 O513 1.970 . S
Co510 N527 1.989 . S
Co510 O535 1.967 . S
Co510 O542 1.920 1_556 S
Co511 O514 1.966 . S
Co511 N520 2.022 . S
Co511 N528 1.993 . S
Co511 O536 1.941 . S
C512 O513 1.258 . S
C512 O514 1.263 . S
O513 Co510 1.970 . S
O513 C512 1.258 . S
O514 Co511 1.966 . S
O514 C512 1.263 . S
C515 O516 1.235 . S
C515 O542 1.289 . S
O516 C515 1.235 . S
C517 C519 1.400 . S
C517 N520 1.351 . S
C517 C522 1.501 . S
C518 C519 1.387 . S
C518 N521 1.341 . S
C519 C517 1.400 . S
C519 C518 1.387 . S
N520 Co511 2.022 . S
N520 C517 1.351 . S
N520 N521 1.365 . S
N521 C518 1.341 . S
N521 N520 1.365 . S
N521 H541 0.862 . S
C522 C517 1.501 . S
C522 H523 0.961 . S
C522 H524 0.961 . S
C522 H525 0.960 . S
H523 C522 0.961 . S
H524 C522 0.961 . S
H525 C522 0.960 . S
C526 N527 1.342 . S
C526 C530 1.401 . S
C526 C531 1.499 . S
N527 Co510 1.989 . S
N527 C526 1.342 . S
N527 N528 1.388 . S
N528 Co511 1.993 . S
N528 N527 1.388 . S
N528 C529 1.346 . S
C529 N528 1.346 . S
C529 C530 1.396 . S
C529 C539 1.510 . S
C530 C526 1.401 . S
C530 C529 1.396 . S
C531 C526 1.499 . S
C531 H532 0.959 . S
C531 H533 0.960 . S
C531 H534 0.961 . S
H532 C531 0.959 . S
H533 C531 0.960 . S
H534 C531 0.961 . S
O535 Co510 1.967 . S
O535 C543 1.258 . S
O536 Co511 1.941 . S
O536 C543 1.266 . S
H537 C539 0.959 . S
H538 C539 0.961 . S
C539 C529 1.510 . S
C539 H537 0.959 . S
C539 H538 0.961 . S
C539 H540 0.960 . S
H540 C539 0.960 . S
H541 N521 0.862 . S
O542 Co510 1.920 1_554 S
O542 C515 1.289 . S
C543 O535 1.258 . S
C543 O536 1.266 . S
C544 C545 1.349 . S
C544 C546 1.327 . S
C544 H569 0.950 . S
C545 C544 1.349 . S
C545 C561 1.349 . S
C546 C544 1.327 . S
C546 C565 1.429 . S
C546 H570 0.950 . S
C547 C564 1.574 . S
C547 C566 1.368 . S
C547 H571 0.949 . S
H548 C552 0.949 . S
C549 C550 1.349 . S
C549 C551 1.327 . S
C549 H572 0.950 . S
C550 C549 1.349 . S
C550 C562 1.349 . S
C551 C549 1.327 . S
C551 C567 1.429 . S
C551 H573 0.950 . S
C552 H548 0.949 . S
C552 C560 1.574 . S
C552 C568 1.368 . S
H553 C561 0.950 . S
H554 C559 0.950 . S
H555 C560 0.949 . S
H556 C562 0.950 . S
H557 C563 0.950 . S
H558 C564 0.949 . S
C559 H554 0.950 . S
C559 C561 1.327 . S
C559 C565 1.429 . S
C560 C552 1.574 . S
C560 H555 0.949 . S
C560 C566 1.368 . S
C561 C545 1.349 . S
C561 H553 0.950 . S
C561 C559 1.327 . S
C562 C550 1.349 . S
C562 H556 0.950 . S
C562 C563 1.327 . S
C563 H557 0.950 . S
C563 C562 1.327 . S
C563 C567 1.429 . S
C564 C547 1.574 . S
C564 H558 0.949 . S
C564 C568 1.368 . S
C565 C546 1.429 . S
C565 C559 1.429 . S
C565 C566 1.523 . S
C566 C547 1.368 . S
C566 C560 1.368 . S
C566 C565 1.523 . S
C567 C551 1.429 . S
C567 C563 1.429 . S
C567 C568 1.523 . S
C568 C552 1.368 . S
C568 C564 1.368 . S
C568 C567 1.523 . S
H569 C544 0.950 . S
H570 C546 0.950 . S
H571 C547 0.949 . S
H572 C549 0.950 . S
H573 C551 0.950 . S
C574 C575 1.349 . S
C574 C576 1.327 . S
C574 H599 0.950 . S
C575 C574 1.349 . S
C575 C591 1.349 . S
C576 C574 1.327 . S
C576 C595 1.429 . S
C576 H600 0.950 . S
C577 C594 1.574 . S
C577 C596 1.368 . S
C577 H601 0.949 . S
H578 C582 0.972 . S
C579 C580 1.349 . S
C579 C581 1.327 . S
C579 H602 0.950 . S
C580 C579 1.349 . S
C580 C592 1.349 . S
C581 C579 1.327 . S
C581 C597 1.429 . S
C581 H603 0.950 1_655 S
C582 H578 0.972 . S
C582 C590 1.574 . S
C582 C598 1.368 . S
H583 C591 0.950 . S
H584 C589 0.950 . S
H585 C590 0.949 . S
H586 C592 0.950 . S
H587 C593 0.950 . S
H588 C594 0.949 . S
C589 H584 0.950 . S
C589 C591 1.327 . S
C589 C595 1.429 . S
C590 C582 1.574 . S
C590 H585 0.949 . S
C590 C596 1.368 . S
C591 C575 1.349 . S
C591 H583 0.950 . S
C591 C589 1.327 . S
C592 C580 1.349 . S
C592 H586 0.950 . S
C592 C593 1.327 . S
C593 H587 0.950 . S
C593 C592 1.327 . S
C593 C597 1.429 . S
C594 C577 1.574 . S
C594 H588 0.949 . S
C594 C598 1.368 . S
C595 C576 1.429 . S
C595 C589 1.429 . S
C595 C596 1.523 . S
C596 C577 1.368 . S
C596 C590 1.368 . S
C596 C595 1.523 . S
C597 C581 1.429 . S
C597 C593 1.429 . S
C597 C598 1.523 1_655 S
C598 C582 1.368 . S
C598 C594 1.368 . S
C598 C597 1.523 1_455 S
H599 C574 0.950 . S
H600 C576 0.950 . S
H601 C577 0.949 . S
H602 C579 0.950 . S
H603 C581 0.950 1_455 S
C604 C605 1.349 . S
C604 C606 1.327 . S
C604 H629 0.950 . S
C605 C604 1.349 . S
C605 C621 1.349 . S
C606 C604 1.327 . S
C606 C625 1.429 . S
C606 H630 0.950 . S
C607 C624 1.574 1_556 S
C607 C626 1.368 . S
C607 H631 0.949 . S
H608 C612 0.949 . S
C609 C610 1.349 . S
C609 C611 1.327 . S
C609 H632 0.950 . S
C610 C609 1.349 . S
C610 C622 1.349 . S
C611 C609 1.327 . S
C611 C627 1.429 . S
C611 H633 0.950 . S
C612 H608 0.949 . S
C612 C620 1.574 . S
C612 C628 1.368 . S
H613 C621 0.950 . S
H614 C619 0.950 . S
H615 C620 0.949 . S
H616 C622 0.950 . S
H617 C623 0.950 . S
H618 C624 0.949 . S
C619 H614 0.950 . S
C619 C621 1.327 . S
C619 C625 1.429 . S
C620 C612 1.574 . S
C620 H615 0.949 . S
C620 C626 1.368 . S
C621 C605 1.349 . S
C621 H613 0.950 . S
C621 C619 1.327 . S
C622 C610 1.349 . S
C622 H616 0.950 . S
C622 C623 1.327 . S
C623 H617 0.950 . S
C623 C622 1.327 . S
C623 C627 1.429 . S
C624 C607 1.574 1_554 S
C624 H618 0.949 . S
C624 C628 1.368 1_554 S
C625 C606 1.429 . S
C625 C619 1.429 . S
C625 C626 1.523 . S
C626 C607 1.368 . S
C626 C620 1.368 . S
C626 C625 1.523 . S
C627 C611 1.429 . S
C627 C623 1.429 . S
C627 C628 1.523 1_554 S
C628 C612 1.368 . S
C628 C624 1.368 1_556 S
C628 C627 1.523 1_556 S
H629 C604 0.950 . S
H630 C606 0.950 . S
H631 C607 0.949 . S
H632 C609 0.950 . S
H633 C611 0.950 . S
C634 C635 1.349 . S
C634 C636 1.327 . S
C634 H659 0.950 . S
C635 C634 1.349 . S
C635 C651 1.349 . S
C636 C634 1.327 . S
C636 C655 1.429 . S
C636 H660 0.950 . S
C637 C654 1.574 . S
C637 C656 1.368 . S
C637 H661 0.949 . S
H638 C642 0.949 . S
C639 C640 1.349 . S
C639 C641 1.323 1_455 S
C639 H662 0.950 . S
C640 C639 1.349 . S
C640 C652 1.349 . S
C641 C639 1.323 1_655 S
C641 C657 1.433 . S
C641 H663 0.949 . S
C642 H638 0.949 . S
C642 C650 1.574 . S
C642 C658 1.368 . S
H643 C651 0.950 . S
H644 C649 0.950 . S
H645 C650 0.949 1_556 S
H646 C652 0.950 . S
H647 C653 0.950 . S
H648 C654 0.949 . S
C649 H644 0.950 . S
C649 C651 1.327 . S
C649 C655 1.429 . S
C650 C642 1.574 . S
C650 H645 0.949 1_554 S
C650 C656 1.368 . S
C651 C635 1.349 . S
C651 H643 0.950 . S
C651 C649 1.327 . S
C652 C640 1.349 . S
C652 H646 0.950 . S
C652 C653 1.327 1_455 S
C653 H647 0.950 . S
C653 C652 1.327 1_655 S
C653 C657 1.429 . S
C654 C637 1.574 . S
C654 H648 0.949 . S
C654 C658 1.368 . S
C655 C636 1.429 . S
C655 C649 1.429 . S
C655 C656 1.523 1_556 S
C656 C637 1.368 . S
C656 C650 1.368 . S
C656 C655 1.523 1_554 S
C657 C641 1.433 . S
C657 C653 1.429 . S
C657 C658 1.523 . S
C658 C642 1.368 . S
C658 C654 1.368 . S
C658 C657 1.523 . S
H659 C634 0.950 . S
H660 C636 0.950 . S
H661 C637 0.949 . S
H662 C639 0.950 . S
H663 C641 0.949 . S
C664 C665 1.349 . S
C664 C666 1.327 . S
C664 H689 0.950 . S
C665 C664 1.349 . S
C665 C681 1.349 . S
C666 C664 1.327 . S
C666 C685 1.429 . S
C666 H690 0.950 . S
C667 C684 1.574 . S
C667 C686 1.368 . S
C667 H691 0.949 . S
H668 C672 0.949 . S
C669 C670 1.349 . S
C669 C671 1.327 . S
C669 H692 0.950 . S
C670 C669 1.349 . S
C670 C682 1.349 . S
C671 C669 1.327 . S
C671 C687 1.429 . S
C671 H693 0.950 . S
C672 H668 0.949 . S
C672 C680 1.574 . S
C672 C688 1.368 . S
H673 C681 0.950 . S
H674 C679 0.950 . S
H675 C680 0.949 . S
H676 C682 0.950 . S
H677 C683 0.950 . S
H678 C684 0.949 . S
C679 H674 0.950 . S
C679 C681 1.327 . S
C679 C685 1.429 . S
C680 C672 1.574 . S
C680 H675 0.949 . S
C680 C686 1.368 . S
C681 C665 1.349 . S
C681 H673 0.950 . S
C681 C679 1.327 . S
C682 C670 1.349 . S
C682 H676 0.950 . S
C682 C683 1.327 . S
C683 H677 0.950 . S
C683 C682 1.327 . S
C683 C687 1.429 . S
C684 C667 1.574 . S
C684 H678 0.949 . S
C684 C688 1.368 . S
C685 C666 1.429 . S
C685 C679 1.429 . S
C685 C686 1.523 . S
C686 C667 1.368 . S
C686 C680 1.368 . S
C686 C685 1.523 . S
C687 C671 1.429 . S
C687 C683 1.429 . S
C687 C688 1.523 . S
C688 C672 1.368 . S
C688 C684 1.368 . S
C688 C687 1.523 . S
H689 C664 0.950 . S
H690 C666 0.950 . S
H691 C667 0.949 . S
H692 C669 0.950 . S
H693 C671 0.950 . S
C694 C695 1.349 . S
C694 C696 1.327 . S
C694 H719 0.950 . S
C695 C694 1.349 . S
C695 C711 1.349 . S
C696 C694 1.327 . S
C696 C715 1.429 . S
C696 H720 0.950 . S
C697 C714 1.574 . S
C697 C716 1.368 . S
C697 H721 0.949 . S
H698 C702 0.949 . S
C699 C700 1.349 . S
C699 C701 1.327 . S
C699 H722 0.950 . S
C700 C699 1.349 . S
C700 C712 1.349 . S
C701 C699 1.327 . S
C701 C717 1.429 . S
C701 H723 0.940 1_655 S
C702 H698 0.949 . S
C702 C710 1.574 . S
C702 C718 1.368 . S
H703 C711 0.950 . S
H704 C709 0.950 . S
H705 C710 0.949 . S
H706 C712 0.950 . S
H707 C713 0.950 . S
H708 C714 0.949 . S
C709 H704 0.950 . S
C709 C711 1.327 . S
C709 C715 1.429 . S
C710 C702 1.574 . S
C710 H705 0.949 . S
C710 C716 1.368 . S
C711 C695 1.349 . S
C711 H703 0.950 . S
C711 C709 1.327 . S
C712 C700 1.349 . S
C712 H706 0.950 . S
C712 C713 1.327 . S
C713 H707 0.950 . S
C713 C712 1.327 . S
C713 C717 1.429 . S
C714 C697 1.574 . S
C714 H708 0.949 . S
C714 C718 1.368 . S
C715 C696 1.429 . S
C715 C709 1.429 . S
C715 C716 1.523 . S
C716 C697 1.368 . S
C716 C710 1.368 . S
C716 C715 1.523 . S
C717 C701 1.429 . S
C717 C713 1.429 . S
C717 C718 1.523 1_655 S
C718 C702 1.368 . S
C718 C714 1.368 . S
C718 C717 1.523 1_455 S
H719 C694 0.950 . S
H720 C696 0.950 . S
H721 C697 0.949 . S
H722 C699 0.950 . S
H723 C701 0.940 1_455 S
C724 C725 1.349 . S
C724 C726 1.327 . S
C724 H749 0.950 . S
C725 C724 1.349 . S
C725 C741 1.349 . S
C726 C724 1.327 . S
C726 C745 1.429 . S
C726 H750 0.950 1_554 S
C727 C744 1.574 1_554 S
C727 C746 1.368 1_554 S
C727 H751 0.949 . S
H728 C732 0.949 . S
C729 C730 1.349 . S
C729 C731 1.327 . S
C729 H752 0.950 . S
C730 C729 1.349 . S
C730 C742 1.349 . S
C731 C729 1.327 . S
C731 C747 1.429 . S
C731 H753 0.950 . S
C732 H728 0.949 . S
C732 C740 1.574 . S
C732 C748 1.368 . S
H733 C741 0.950 . S
H734 C739 0.950 . S
H735 C740 0.949 . S
H736 C742 0.950 . S
H737 C743 0.950 . S
H738 C744 0.949 1_554 S
C739 H734 0.950 . S
C739 C741 1.327 . S
C739 C745 1.429 . S
C740 C732 1.574 . S
C740 H735 0.949 . S
C740 C746 1.368 . S
C741 C725 1.349 . S
C741 H733 0.950 . S
C741 C739 1.327 . S
C742 C730 1.349 . S
C742 H736 0.950 . S
C742 C743 1.327 . S
C743 H737 0.950 . S
C743 C742 1.327 . S
C743 C747 1.429 . S
C744 C727 1.574 1_556 S
C744 H738 0.949 1_556 S
C744 C748 1.368 . S
C745 C726 1.429 . S
C745 C739 1.429 . S
C745 C746 1.523 1_554 S
C746 C727 1.368 1_556 S
C746 C740 1.368 . S
C746 C745 1.523 1_556 S
C747 C731 1.429 . S
C747 C743 1.429 . S
C747 C748 1.523 . S
C748 C732 1.368 . S
C748 C744 1.368 . S
C748 C747 1.523 . S
H749 C724 0.950 . S
H750 C726 0.950 1_556 S
H751 C727 0.949 . S
H752 C729 0.950 . S
H753 C731 0.950 . S
C754 C755 1.349 . S
C754 C756 1.327 . S
C754 H779 0.950 . S
C755 C754 1.349 . S
C755 C771 1.349 . S
C756 C754 1.327 . S
C756 C775 1.429 . S
C756 H780 0.950 . S
C757 C774 1.574 . S
C757 C776 1.368 . S
C757 H781 0.949 . S
H758 C762 0.949 . S
C759 C760 1.349 . S
C759 C761 1.327 1_545 S
C759 H782 0.962 . S
C760 C759 1.349 . S
C760 C772 1.349 . S
C761 C759 1.327 1_565 S
C761 C777 1.429 1_565 S
C761 H783 0.950 . S
C762 H758 0.949 . S
C762 C770 1.574 1_545 S
C762 C778 1.368 1_545 S
H763 C771 0.950 . S
H764 C769 0.950 . S
H765 C770 0.937 1_545 S
H766 C772 0.950 . S
H767 C773 0.950 . S
H768 C774 0.949 . S
C769 H764 0.950 . S
C769 C771 1.327 . S
C769 C775 1.429 . S
C770 C762 1.574 1_565 S
C770 H765 0.937 1_565 S
C770 C776 1.368 . S
C771 C755 1.349 . S
C771 H763 0.950 . S
C771 C769 1.327 . S
C772 C760 1.349 . S
C772 H766 0.950 . S
C772 C773 1.327 . S
C773 H767 0.950 . S
C773 C772 1.327 . S
C773 C777 1.429 . S
C774 C757 1.574 . S
C774 H768 0.949 . S
C774 C778 1.368 . S
C775 C756 1.429 . S
C775 C769 1.429 . S
C775 C776 1.523 . S
C776 C757 1.368 . S
C776 C770 1.368 . S
C776 C775 1.523 . S
C777 C761 1.429 1_545 S
C777 C773 1.429 . S
C777 C778 1.523 1_545 S
C778 C762 1.368 1_565 S
C778 C774 1.368 . S
C778 C777 1.523 1_565 S
H779 C754 0.950 . S
H780 C756 0.950 . S
H781 C757 0.949 . S
H782 C759 0.962 . S
H783 C761 0.950 . S
C784 C785 1.349 . S
C784 C786 1.327 . S
C784 H809 0.950 . S
C785 C784 1.349 . S
C785 C801 1.349 . S
C786 C784 1.327 . S
C786 C805 1.429 . S
C786 H810 0.950 . S
C787 C804 1.574 . S
C787 C806 1.368 . S
C787 H811 0.949 . S
H788 C792 0.949 . S
C789 C790 1.349 . S
C789 C791 1.327 . S
C789 H812 0.950 . S
C790 C789 1.349 . S
C790 C802 1.349 . S
C791 C789 1.327 . S
C791 C807 1.429 . S
C791 H813 0.950 . S
C792 H788 0.949 . S
C792 C800 1.574 . S
C792 C808 1.368 . S
H793 C801 0.950 . S
H794 C799 0.950 . S
H795 C800 0.949 . S
H796 C802 0.950 . S
H797 C803 0.950 . S
H798 C804 0.949 . S
C799 H794 0.950 . S
C799 C801 1.327 . S
C799 C805 1.429 . S
C800 C792 1.574 . S
C800 H795 0.949 . S
C800 C806 1.368 . S
C801 C785 1.349 . S
C801 H793 0.950 . S
C801 C799 1.327 . S
C802 C790 1.349 . S
C802 H796 0.950 . S
C802 C803 1.327 . S
C803 H797 0.950 . S
C803 C802 1.327 . S
C803 C807 1.429 . S
C804 C787 1.574 . S
C804 H798 0.949 . S
C804 C808 1.368 . S
C805 C786 1.429 . S
C805 C799 1.429 . S
C805 C806 1.523 . S
C806 C787 1.368 . S
C806 C800 1.368 . S
C806 C805 1.523 . S
C807 C791 1.429 . S
C807 C803 1.429 . S
C807 C808 1.523 . S
C808 C792 1.368 . S
C808 C804 1.368 . S
C808 C807 1.523 . S
H809 C784 0.950 . S
H810 C786 0.950 . S
H811 C787 0.949 . S
H812 C789 0.950 . S
H813 C791 0.950 . S
C814 C815 1.349 . S
C814 C816 1.327 . S
C814 H839 0.950 . S
C815 C814 1.349 . S
C815 C831 1.349 . S
C816 C814 1.327 . S
C816 C835 1.429 . S
C816 H840 0.950 . S
C817 C834 1.574 . S
C817 C836 1.368 . S
C817 H841 0.949 . S
H818 C822 0.949 . S
C819 C820 1.349 . S
C819 C821 1.327 1_455 S
C819 H842 0.950 . S
C820 C819 1.349 . S
C820 C832 1.349 . S
C821 C819 1.327 1_655 S
C821 C837 1.429 . S
C821 H843 0.950 1_545 S
C822 H818 0.949 . S
C822 C830 1.574 . S
C822 C838 1.368 . S
H823 C831 0.950 . S
H824 C829 0.950 . S
H825 C830 0.949 . S
H826 C832 0.950 . S
H827 C833 0.950 . S
H828 C834 0.949 . S
C829 H824 0.950 . S
C829 C831 1.327 . S
C829 C835 1.429 . S
C830 C822 1.574 . S
C830 H825 0.949 . S
C830 C836 1.368 1_545 S
C831 C815 1.349 . S
C831 H823 0.950 . S
C831 C829 1.327 . S
C832 C820 1.349 . S
C832 H826 0.950 . S
C832 C833 1.327 1_455 S
C833 H827 0.950 . S
C833 C832 1.327 1_655 S
C833 C837 1.429 . S
C834 C817 1.574 . S
C834 H828 0.949 . S
C834 C838 1.368 1_565 S
C835 C816 1.429 . S
C835 C829 1.429 . S
C835 C836 1.523 . S
C836 C817 1.368 . S
C836 C830 1.368 1_565 S
C836 C835 1.523 . S
C837 C821 1.429 . S
C837 C833 1.429 . S
C837 C838 1.523 . S
C838 C822 1.368 . S
C838 C834 1.368 1_545 S
C838 C837 1.523 . S
H839 C814 0.950 . S
H840 C816 0.950 . S
H841 C817 0.949 . S
H842 C819 0.950 . S
H843 C821 0.950 1_565 S
C844 C845 1.349 . S
C844 C846 1.327 . S
C844 H869 0.950 . S
C845 C844 1.349 . S
C845 C861 1.349 . S
C846 C844 1.327 . S
C846 C865 1.429 . S
C846 H870 0.950 1_545 S
C847 C864 1.546 1_545 S
C847 C866 1.361 1_545 S
C847 H871 0.983 . S
H848 C852 0.949 . S
C849 C850 1.349 . S
C849 C851 1.327 . S
C849 H872 0.950 . S
C850 C849 1.349 . S
C850 C862 1.349 . S
C851 C849 1.327 . S
C851 C867 1.429 . S
C851 H873 0.950 . S
C852 H848 0.949 . S
C852 C860 1.574 . S
C852 C868 1.368 . S
H853 C861 0.950 . S
H854 C859 0.950 . S
H855 C860 0.949 . S
H856 C862 0.950 . S
H857 C863 0.950 . S
H858 C864 0.949 . S
C859 H854 0.950 . S
C859 C861 1.327 . S
C859 C865 1.429 . S
C860 C852 1.574 . S
C860 H855 0.949 . S
C860 C866 1.368 . S
C861 C845 1.349 . S
C861 H853 0.950 . S
C861 C859 1.327 . S
C862 C850 1.349 . S
C862 H856 0.950 . S
C862 C863 1.327 . S
C863 H857 0.950 . S
C863 C862 1.327 . S
C863 C867 1.429 . S
C864 C847 1.546 1_565 S
C864 H858 0.949 . S
C864 C868 1.368 . S
C865 C846 1.429 . S
C865 C859 1.429 . S
C865 C866 1.523 1_545 S
C866 C847 1.361 1_565 S
C866 C860 1.368 . S
C866 C865 1.523 1_565 S
C867 C851 1.429 . S
C867 C863 1.429 . S
C867 C868 1.523 . S
C868 C852 1.368 . S
C868 C864 1.368 . S
C868 C867 1.523 . S
H869 C844 0.950 . S
H870 C846 0.950 1_565 S
H871 C847 0.983 . S
H872 C849 0.950 . S
H873 C851 0.950 . S
C874 C875 1.349 . S
C874 C876 1.327 . S
C874 H899 0.950 . S
C875 C874 1.349 . S
C875 C891 1.349 . S
C876 C874 1.327 . S
C876 C895 1.429 . S
C876 H900 0.950 . S
C877 C894 1.574 . S
C877 C896 1.368 . S
C877 H901 0.949 . S
H878 C882 0.949 . S
C879 C880 1.349 . S
C879 C881 1.327 . S
C879 H902 0.950 . S
C880 C879 1.349 . S
C880 C892 1.349 . S
C881 C879 1.327 . S
C881 C897 1.429 . S
C881 H903 0.950 . S
C882 H878 0.949 . S
C882 C890 1.574 . S
C882 C898 1.368 . S
H883 C891 0.950 . S
H884 C889 0.950 . S
H885 C890 0.949 . S
H886 C892 0.950 . S
H887 C893 0.950 . S
H888 C894 0.949 . S
C889 H884 0.950 . S
C889 C891 1.327 . S
C889 C895 1.429 . S
C890 C882 1.574 . S
C890 H885 0.949 . S
C890 C896 1.368 . S
C891 C875 1.349 . S
C891 H883 0.950 . S
C891 C889 1.327 . S
C892 C880 1.349 . S
C892 H886 0.950 . S
C892 C893 1.327 . S
C893 H887 0.950 . S
C893 C892 1.327 . S
C893 C897 1.429 . S
C894 C877 1.574 . S
C894 H888 0.949 . S
C894 C898 1.368 . S
C895 C876 1.429 . S
C895 C889 1.429 . S
C895 C896 1.523 . S
C896 C877 1.368 . S
C896 C890 1.368 . S
C896 C895 1.523 . S
C897 C881 1.429 . S
C897 C893 1.429 . S
C897 C898 1.523 . S
C898 C882 1.368 . S
C898 C894 1.368 . S
C898 C897 1.523 . S
H899 C874 0.950 . S
H900 C876 0.950 . S
H901 C877 0.949 . S
H902 C879 0.950 . S
H903 C881 0.950 . S
C904 C905 1.349 . S
C904 C906 1.327 . S
C904 H929 0.950 . S
C905 C904 1.349 . S
C905 C921 1.349 . S
C906 C904 1.327 . S
C906 C925 1.429 . S
C906 H930 0.950 . S
C907 C924 1.574 . S
C907 C926 1.368 . S
C907 H931 0.949 . S
H908 C912 0.949 . S
C909 C910 1.349 . S
C909 C911 1.327 . S
C909 H932 0.950 . S
C910 C909 1.349 . S
C910 C922 1.349 . S
C911 C909 1.327 . S
C911 C927 1.429 . S
C911 H933 0.950 . S
C912 H908 0.949 . S
C912 C920 1.574 . S
C912 C928 1.368 . S
H913 C921 0.950 . S
H914 C919 0.950 . S
H915 C920 0.949 . S
H916 C922 0.950 . S
H917 C923 0.950 . S
H918 C924 0.949 . S
C919 H914 0.950 . S
C919 C921 1.327 . S
C919 C925 1.429 . S
C920 C912 1.574 . S
C920 H915 0.949 . S
C920 C926 1.368 . S
C921 C905 1.349 . S
C921 H913 0.950 . S
C921 C919 1.327 . S
C922 C910 1.349 . S
C922 H916 0.950 . S
C922 C923 1.327 . S
C923 H917 0.950 . S
C923 C922 1.327 . S
C923 C927 1.429 . S
C924 C907 1.574 . S
C924 H918 0.949 . S
C924 C928 1.368 . S
C925 C906 1.429 . S
C925 C919 1.429 . S
C925 C926 1.523 . S
C926 C907 1.368 . S
C926 C920 1.368 . S
C926 C925 1.523 . S
C927 C911 1.429 . S
C927 C923 1.429 . S
C927 C928 1.523 . S
C928 C912 1.368 . S
C928 C924 1.368 . S
C928 C927 1.523 . S
H929 C904 0.950 . S
H930 C906 0.950 . S
H931 C907 0.949 . S
H932 C909 0.950 . S
H933 C911 0.950 . S
C934 C935 1.349 . S
C934 C936 1.327 . S
C934 H959 0.950 . S
C935 C934 1.349 . S
C935 C951 1.349 . S
C936 C934 1.327 . S
C936 C955 1.429 . S
C936 H960 0.950 . S
C937 C954 1.574 . S
C937 C956 1.368 . S
C937 H961 0.949 . S
H938 C942 0.949 . S
C939 C940 1.349 . S
C939 C941 1.327 . S
C939 H962 0.950 . S
C940 C939 1.349 . S
C940 C952 1.349 . S
C941 C939 1.327 . S
C941 C957 1.429 . S
C941 H963 0.950 . S
C942 H938 0.949 . S
C942 C950 1.574 . S
C942 C958 1.368 . S
H943 C951 0.950 . S
H944 C949 0.950 . S
H945 C950 0.949 . S
H946 C952 0.950 . S
H947 C953 0.950 . S
H948 C954 0.949 . S
C949 H944 0.950 . S
C949 C951 1.327 . S
C949 C955 1.429 . S
C950 C942 1.574 . S
C950 H945 0.949 . S
C950 C956 1.368 . S
C951 C935 1.349 . S
C951 H943 0.950 . S
C951 C949 1.327 . S
C952 C940 1.349 . S
C952 H946 0.950 . S
C952 C953 1.327 . S
C953 H947 0.950 . S
C953 C952 1.327 . S
C953 C957 1.429 . S
C954 C937 1.574 . S
C954 H948 0.949 . S
C954 C958 1.368 . S
C955 C936 1.429 . S
C955 C949 1.429 . S
C955 C956 1.523 . S
C956 C937 1.368 . S
C956 C950 1.368 . S
C956 C955 1.523 . S
C957 C941 1.429 . S
C957 C953 1.429 . S
C957 C958 1.523 . S
C958 C942 1.368 . S
C958 C954 1.368 . S
C958 C957 1.523 . S
H959 C934 0.950 . S
H960 C936 0.950 . S
H961 C937 0.949 . S
H962 C939 0.950 . S
H963 C941 0.950 . S
C964 C965 1.349 . S
C964 C966 1.327 . S
C964 H989 0.950 . S
C965 C964 1.349 . S
C965 C981 1.349 . S
C966 C964 1.327 . S
C966 C985 1.429 . S
C966 H990 0.950 . S
C967 C984 1.574 . S
C967 C986 1.368 . S
C967 H991 0.949 . S
H968 C972 0.949 . S
C969 C970 1.349 . S
C969 C971 1.327 . S
C969 H992 0.950 . S
C970 C969 1.349 . S
C970 C982 1.349 . S
C971 C969 1.327 . S
C971 C987 1.429 . S
C971 H993 0.950 . S
C972 H968 0.949 . S
C972 C980 1.574 . S
C972 C988 1.368 . S
H973 C981 0.950 . S
H974 C979 0.950 . S
H975 C980 0.949 . S
H976 C982 0.950 . S
H977 C983 0.950 . S
H978 C984 0.949 . S
C979 H974 0.950 . S
C979 C981 1.327 . S
C979 C985 1.429 . S
C980 C972 1.574 . S
C980 H975 0.949 . S
C980 C986 1.368 . S
C981 C965 1.349 . S
C981 H973 0.950 . S
C981 C979 1.327 . S
C982 C970 1.349 . S
C982 H976 0.950 . S
C982 C983 1.327 . S
C983 H977 0.950 . S
C983 C982 1.327 . S
C983 C987 1.429 . S
C984 C967 1.574 . S
C984 H978 0.949 . S
C984 C988 1.368 . S
C985 C966 1.429 . S
C985 C979 1.429 . S
C985 C986 1.523 . S
C986 C967 1.368 . S
C986 C980 1.368 . S
C986 C985 1.523 . S
C987 C971 1.429 . S
C987 C983 1.429 . S
C987 C988 1.523 . S
C988 C972 1.368 . S
C988 C984 1.368 . S
C988 C987 1.523 . S
H989 C964 0.950 . S
H990 C966 0.950 . S
H991 C967 0.949 . S
H992 C969 0.950 . S
H993 C971 0.950 . S
C994 C995 1.349 . S
C994 C996 1.327 . S
C994 H1019 0.950 . S
C995 C994 1.349 . S
C995 C1011 1.349 . S
C996 C994 1.327 . S
C996 C1015 1.429 . S
C996 H1020 0.950 . S
C997 C1014 1.574 . S
C997 C1016 1.368 . S
C997 H1021 0.949 . S
H998 C1002 0.949 1_556 S
C999 C1000 1.349 . S
C999 C1001 1.327 . S
C999 H1022 0.950 . S
C1000 C999 1.349 . S
C1000 C1012 1.349 . S
C1001 C999 1.327 . S
C1001 C1017 1.429 . S
C1001 H1023 0.883 1_545 S
C1002 H998 0.949 1_554 S
C1002 C1010 1.574 1_554 S
C1002 C1018 1.368 . S
H1003 C1011 0.950 . S
H1004 C1009 0.950 1_554 S
H1005 C1010 0.949 . S
H1006 C1012 0.950 . S
H1007 C1013 0.950 . S
H1008 C1014 0.949 . S
C1009 H1004 0.950 1_556 S
C1009 C1011 1.327 . S
C1009 C1015 1.429 . S
C1010 C1002 1.574 1_556 S
C1010 H1005 0.949 . S
C1010 C1016 1.368 1_546 S
C1011 C995 1.349 . S
C1011 H1003 0.950 . S
C1011 C1009 1.327 . S
C1012 C1000 1.349 . S
C1012 H1006 0.950 . S
C1012 C1013 1.327 . S
C1013 H1007 0.950 . S
C1013 C1012 1.327 . S
C1013 C1017 1.429 . S
C1014 C997 1.574 . S
C1014 H1008 0.949 . S
C1014 C1018 1.368 1_565 S
C1015 C996 1.429 . S
C1015 C1009 1.429 . S
C1015 C1016 1.523 1_556 S
C1016 C997 1.368 . S
C1016 C1010 1.368 1_564 S
C1016 C1015 1.523 1_554 S
C1017 C1001 1.429 . S
C1017 C1013 1.429 . S
C1017 C1018 1.523 . S
C1018 C1002 1.368 . S
C1018 C1014 1.368 1_545 S
C1018 C1017 1.523 . S
H1019 C994 0.950 . S
H1020 C996 0.950 . S
H1021 C997 0.949 . S
H1022 C999 0.950 . S
H1023 C1001 0.883 1_565 S
C1024 C1025 1.349 . S
C1024 C1026 1.327 . S
C1024 H1049 0.950 . S
C1025 C1024 1.349 . S
C1025 C1041 1.349 . S
C1026 C1024 1.327 . S
C1026 C1045 1.429 . S
C1026 H1050 0.950 . S
C1027 C1044 1.574 . S
C1027 C1046 1.368 . S
C1027 H1051 0.949 . S
H1028 C1032 0.949 . S
C1029 C1030 1.349 . S
C1029 C1031 1.327 . S
C1029 H1052 0.950 . S
C1030 C1029 1.349 . S
C1030 C1042 1.349 . S
C1031 C1029 1.327 . S
C1031 C1047 1.429 . S
C1031 H1053 0.950 . S
C1032 H1028 0.949 . S
C1032 C1040 1.574 . S
C1032 C1048 1.368 . S
H1033 C1041 0.950 . S
H1034 C1039 0.950 . S
H1035 C1040 0.949 . S
H1036 C1042 0.950 . S
H1037 C1043 0.950 . S
H1038 C1044 0.949 . S
C1039 H1034 0.950 . S
C1039 C1041 1.327 . S
C1039 C1045 1.429 . S
C1040 C1032 1.574 . S
C1040 H1035 0.949 . S
C1040 C1046 1.368 . S
C1041 C1025 1.349 . S
C1041 H1033 0.950 . S
C1041 C1039 1.327 . S
C1042 C1030 1.349 . S
C1042 H1036 0.950 . S
C1042 C1043 1.327 . S
C1043 H1037 0.950 . S
C1043 C1042 1.327 . S
C1043 C1047 1.429 . S
C1044 C1027 1.574 . S
C1044 H1038 0.949 . S
C1044 C1048 1.368 . S
C1045 C1026 1.429 . S
C1045 C1039 1.429 . S
C1045 C1046 1.523 . S
C1046 C1027 1.368 . S
C1046 C1040 1.368 . S
C1046 C1045 1.523 . S
C1047 C1031 1.429 . S
C1047 C1043 1.429 . S
C1047 C1048 1.523 . S
C1048 C1032 1.368 . S
C1048 C1044 1.368 . S
C1048 C1047 1.523 . S
H1049 C1024 0.950 . S
H1050 C1026 0.950 . S
H1051 C1027 0.949 . S
H1052 C1029 0.950 . S
H1053 C1031 0.950 . S
C1054 C1055 1.349 . S
C1054 C1056 1.327 . S
C1054 H1079 0.950 . S
C1055 C1054 1.349 . S
C1055 C1071 1.349 . S
C1056 C1054 1.327 . S
C1056 C1075 1.429 . S
C1056 H1080 0.950 . S
C1057 C1074 1.574 . S
C1057 C1076 1.368 . S
C1057 H1081 0.949 . S
H1058 C1062 0.949 . S
C1059 C1060 1.349 . S
C1059 C1061 1.327 . S
C1059 H1082 0.950 . S
C1060 C1059 1.349 . S
C1060 C1072 1.349 . S
C1061 C1059 1.327 . S
C1061 C1077 1.429 . S
C1061 H1083 0.950 . S
C1062 H1058 0.949 . S
C1062 C1070 1.574 . S
C1062 C1078 1.368 . S
H1063 C1071 0.950 . S
H1064 C1069 0.950 . S
H1065 C1070 0.949 . S
H1066 C1072 0.950 . S
H1067 C1073 0.950 . S
H1068 C1074 0.949 . S
C1069 H1064 0.950 . S
C1069 C1071 1.327 . S
C1069 C1075 1.429 . S
C1070 C1062 1.574 . S
C1070 H1065 0.949 . S
C1070 C1076 1.368 . S
C1071 C1055 1.349 . S
C1071 H1063 0.950 . S
C1071 C1069 1.327 . S
C1072 C1060 1.349 . S
C1072 H1066 0.950 . S
C1072 C1073 1.327 . S
C1073 H1067 0.950 . S
C1073 C1072 1.327 . S
C1073 C1077 1.429 . S
C1074 C1057 1.574 . S
C1074 H1068 0.949 . S
C1074 C1078 1.368 . S
C1075 C1056 1.429 . S
C1075 C1069 1.429 . S
C1075 C1076 1.523 . S
C1076 C1057 1.368 . S
C1076 C1070 1.368 . S
C1076 C1075 1.523 . S
C1077 C1061 1.429 . S
C1077 C1073 1.429 . S
C1077 C1078 1.523 . S
C1078 C1062 1.368 . S
C1078 C1074 1.368 . S
C1078 C1077 1.523 . S
H1079 C1054 0.950 . S
H1080 C1056 0.950 . S
H1081 C1057 0.949 . S
H1082 C1059 0.950 . S
H1083 C1061 0.950 . S
C1084 C1085 1.349 . S
C1084 C1086 1.327 . S
C1084 H1109 0.950 . S
C1085 C1084 1.349 . S
C1085 C1101 1.349 . S
C1086 C1084 1.327 . S
C1086 C1105 1.429 . S
C1086 H1110 0.950 . S
C1087 C1104 1.574 . S
C1087 C1106 1.368 . S
C1087 H1111 0.949 . S
H1088 C1092 0.949 . S
C1089 C1090 1.349 . S
C1089 C1091 1.327 . S
C1089 H1112 0.950 . S
C1090 C1089 1.349 . S
C1090 C1102 1.349 . S
C1091 C1089 1.327 . S
C1091 C1107 1.429 . S
C1091 H1113 0.950 . S
C1092 H1088 0.949 . S
C1092 C1100 1.574 . S
C1092 C1108 1.368 . S
H1093 C1101 0.950 . S
H1094 C1099 0.950 . S
H1095 C1100 0.949 . S
H1096 C1102 0.950 . S
H1097 C1103 0.950 . S
H1098 C1104 0.949 . S
C1099 H1094 0.950 . S
C1099 C1101 1.327 . S
C1099 C1105 1.429 . S
C1100 C1092 1.574 . S
C1100 H1095 0.949 . S
C1100 C1106 1.368 . S
C1101 C1085 1.349 . S
C1101 H1093 0.950 . S
C1101 C1099 1.327 . S
C1102 C1090 1.349 . S
C1102 H1096 0.950 . S
C1102 C1103 1.327 . S
C1103 H1097 0.950 . S
C1103 C1102 1.327 . S
C1103 C1107 1.429 . S
C1104 C1087 1.574 . S
C1104 H1098 0.949 . S
C1104 C1108 1.368 . S
C1105 C1086 1.429 . S
C1105 C1099 1.429 . S
C1105 C1106 1.523 . S
C1106 C1087 1.368 . S
C1106 C1100 1.368 . S
C1106 C1105 1.523 . S
C1107 C1091 1.429 . S
C1107 C1103 1.429 . S
C1107 C1108 1.523 . S
C1108 C1092 1.368 . S
C1108 C1104 1.368 . S
C1108 C1107 1.523 . S
H1109 C1084 0.950 . S
H1110 C1086 0.950 . S
H1111 C1087 0.949 . S
H1112 C1089 0.950 . S
H1113 C1091 0.950 . S
C1114 C1115 1.349 . S
C1114 C1116 1.327 . S
C1114 H1139 0.950 . S
C1115 C1114 1.349 . S
C1115 C1131 1.349 . S
C1116 C1114 1.327 . S
C1116 C1135 1.429 . S
C1116 H1140 0.950 . S
C1117 C1134 1.574 . S
C1117 C1136 1.368 . S
C1117 H1141 0.949 . S
H1118 C1122 0.949 . S
C1119 C1120 1.349 . S
C1119 C1121 1.327 . S
C1119 H1142 0.950 . S
C1120 C1119 1.349 . S
C1120 C1132 1.349 . S
C1121 C1119 1.327 . S
C1121 C1137 1.429 . S
C1121 H1143 0.950 . S
C1122 H1118 0.949 . S
C1122 C1130 1.574 . S
C1122 C1138 1.368 . S
H1123 C1131 0.950 . S
H1124 C1129 0.950 . S
H1125 C1130 0.949 . S
H1126 C1132 0.950 . S
H1127 C1133 0.950 . S
H1128 C1134 0.949 . S
C1129 H1124 0.950 . S
C1129 C1131 1.327 . S
C1129 C1135 1.429 . S
C1130 C1122 1.574 . S
C1130 H1125 0.949 . S
C1130 C1136 1.368 . S
C1131 C1115 1.349 . S
C1131 H1123 0.950 . S
C1131 C1129 1.327 . S
C1132 C1120 1.349 . S
C1132 H1126 0.950 . S
C1132 C1133 1.327 . S
C1133 H1127 0.950 . S
C1133 C1132 1.327 . S
C1133 C1137 1.429 . S
C1134 C1117 1.574 . S
C1134 H1128 0.949 . S
C1134 C1138 1.368 . S
C1135 C1116 1.429 . S
C1135 C1129 1.429 . S
C1135 C1136 1.523 . S
C1136 C1117 1.368 . S
C1136 C1130 1.368 . S
C1136 C1135 1.523 . S
C1137 C1121 1.429 . S
C1137 C1133 1.429 . S
C1137 C1138 1.523 . S
C1138 C1122 1.368 . S
C1138 C1134 1.368 . S
C1138 C1137 1.523 . S
H1139 C1114 0.950 . S
H1140 C1116 0.950 . S
H1141 C1117 0.949 . S
H1142 C1119 0.950 . S
H1143 C1121 0.950 . S
C1144 C1145 1.349 . S
C1144 C1146 1.327 . S
C1144 H1169 0.950 . S
C1145 C1144 1.349 . S
C1145 C1161 1.349 . S
C1146 C1144 1.327 . S
C1146 C1165 1.429 . S
C1146 H1170 0.950 . S
C1147 C1164 1.574 . S
C1147 C1166 1.368 . S
C1147 H1171 0.949 . S
H1148 C1152 0.949 . S
C1149 C1150 1.340 1_554 S
C1149 C1151 1.345 . S
C1149 H1172 0.941 1_554 S
C1150 C1149 1.340 1_556 S
C1150 C1162 1.349 1_556 S
C1151 C1149 1.345 . S
C1151 C1167 1.429 . S
C1151 H1173 0.950 . S
C1152 H1148 0.949 . S
C1152 C1160 1.574 . S
C1152 C1168 1.368 . S
H1153 C1161 0.950 . S
H1154 C1159 0.950 . S
H1155 C1160 0.949 . S
H1156 C1162 0.950 1_556 S
H1157 C1163 0.950 . S
H1158 C1164 0.949 . S
C1159 H1154 0.950 . S
C1159 C1161 1.327 . S
C1159 C1165 1.429 . S
C1160 C1152 1.574 . S
C1160 H1155 0.949 . S
C1160 C1166 1.368 . S
C1161 C1145 1.349 . S
C1161 H1153 0.950 . S
C1161 C1159 1.327 . S
C1162 C1150 1.349 1_554 S
C1162 H1156 0.950 1_554 S
C1162 C1163 1.327 . S
C1163 H1157 0.950 . S
C1163 C1162 1.327 . S
C1163 C1167 1.429 . S
C1164 C1147 1.574 . S
C1164 H1158 0.949 . S
C1164 C1168 1.368 . S
C1165 C1146 1.429 . S
C1165 C1159 1.429 . S
C1165 C1166 1.523 . S
C1166 C1147 1.368 . S
C1166 C1160 1.368 . S
C1166 C1165 1.523 . S
C1167 C1151 1.429 . S
C1167 C1163 1.429 . S
C1167 C1168 1.523 . S
C1168 C1152 1.368 . S
C1168 C1164 1.368 . S
C1168 C1167 1.523 . S
H1169 C1144 0.950 . S
H1170 C1146 0.950 . S
H1171 C1147 0.949 . S
H1172 C1149 0.941 1_556 S
H1173 C1151 0.950 . S
C1174 C1175 1.349 . S
C1174 C1176 1.327 . S
C1174 H1199 0.950 . S
C1175 C1174 1.349 . S
C1175 C1191 1.349 . S
C1176 C1174 1.327 . S
C1176 C1195 1.429 . S
C1176 H1200 0.950 . S
C1177 C1194 1.574 . S
C1177 C1196 1.368 . S
C1177 H1201 0.949 . S
H1178 C1182 0.949 . S
C1179 C1180 1.349 . S
C1179 C1181 1.327 . S
C1179 H1202 0.950 . S
C1180 C1179 1.349 . S
C1180 C1192 1.349 . S
C1181 C1179 1.327 . S
C1181 C1197 1.429 . S
C1181 H1203 0.950 . S
C1182 H1178 0.949 . S
C1182 C1190 1.574 . S
C1182 C1198 1.368 . S
H1183 C1191 0.950 . S
H1184 C1189 0.950 . S
H1185 C1190 0.949 . S
H1186 C1192 0.950 . S
H1187 C1193 0.950 . S
H1188 C1194 0.949 . S
C1189 H1184 0.950 . S
C1189 C1191 1.327 . S
C1189 C1195 1.429 . S
C1190 C1182 1.574 . S
C1190 H1185 0.949 . S
C1190 C1196 1.368 . S
C1191 C1175 1.349 . S
C1191 H1183 0.950 . S
C1191 C1189 1.327 . S
C1192 C1180 1.349 . S
C1192 H1186 0.950 . S
C1192 C1193 1.327 . S
C1193 H1187 0.950 . S
C1193 C1192 1.327 . S
C1193 C1197 1.429 . S
C1194 C1177 1.574 . S
C1194 H1188 0.949 . S
C1194 C1198 1.368 . S
C1195 C1176 1.429 . S
C1195 C1189 1.429 . S
C1195 C1196 1.523 . S
C1196 C1177 1.368 . S
C1196 C1190 1.368 . S
C1196 C1195 1.523 . S
C1197 C1181 1.429 . S
C1197 C1193 1.429 . S
C1197 C1198 1.523 1_556 S
C1198 C1182 1.368 . S
C1198 C1194 1.368 . S
C1198 C1197 1.523 1_554 S
H1199 C1174 0.950 . S
H1200 C1176 0.950 . S
H1201 C1177 0.949 . S
H1202 C1179 0.950 . S
H1203 C1181 0.950 . S
C1204 C1205 1.349 . S
C1204 C1206 1.327 . S
C1204 H1229 0.950 . S
C1205 C1204 1.349 . S
C1205 C1221 1.349 . S
C1206 C1204 1.327 . S
C1206 C1225 1.429 1_554 S
C1206 H1230 0.950 1_554 S
C1207 C1224 1.574 . S
C1207 C1226 1.368 . S
C1207 H1231 0.949 . S
H1208 C1212 0.949 . S
C1209 C1210 1.349 . S
C1209 C1211 1.327 . S
C1209 H1232 0.950 . S
C1210 C1209 1.349 . S
C1210 C1222 1.349 . S
C1211 C1209 1.327 . S
C1211 C1227 1.429 . S
C1211 H1233 0.950 . S
C1212 H1208 0.949 . S
C1212 C1220 1.574 . S
C1212 C1228 1.368 . S
H1213 C1221 0.950 . S
H1214 C1219 0.950 . S
H1215 C1220 0.949 . S
H1216 C1222 0.950 . S
H1217 C1223 0.950 . S
H1218 C1224 0.949 . S
C1219 H1214 0.950 . S
C1219 C1221 1.327 1_556 S
C1219 C1225 1.429 . S
C1220 C1212 1.574 . S
C1220 H1215 0.949 . S
C1220 C1226 1.368 . S
C1221 C1205 1.349 . S
C1221 H1213 0.950 . S
C1221 C1219 1.327 1_554 S
C1222 C1210 1.349 . S
C1222 H1216 0.950 . S
C1222 C1223 1.327 . S
C1223 H1217 0.950 . S
C1223 C1222 1.327 . S
C1223 C1227 1.429 . S
C1224 C1207 1.574 . S
C1224 H1218 0.949 . S
C1224 C1228 1.368 . S
C1225 C1206 1.429 1_556 S
C1225 C1219 1.429 . S
C1225 C1226 1.523 . S
C1226 C1207 1.368 . S
C1226 C1220 1.368 . S
C1226 C1225 1.523 . S
C1227 C1211 1.429 . S
C1227 C1223 1.429 . S
C1227 C1228 1.523 . S
C1228 C1212 1.368 . S
C1228 C1224 1.368 . S
C1228 C1227 1.523 . S
H1229 C1204 0.950 . S
H1230 C1206 0.950 1_556 S
H1231 C1207 0.949 . S
H1232 C1209 0.950 . S
H1233 C1211 0.950 . S
C1234 C1235 1.349 . S
C1234 C1236 1.327 1_554 S
C1234 H1259 0.950 . S
C1235 C1234 1.349 . S
C1235 C1251 1.349 . S
C1236 C1234 1.327 1_556 S
C1236 C1255 1.429 . S
C1236 H1260 0.950 . S
C1237 C1254 1.574 . S
C1237 C1256 1.368 . S
C1237 H1261 0.949 . S
H1238 C1242 0.949 . S
C1239 C1240 1.349 . S
C1239 C1241 1.327 . S
C1239 H1262 0.950 . S
C1240 C1239 1.349 . S
C1240 C1252 1.349 . S
C1241 C1239 1.327 . S
C1241 C1257 1.429 . S
C1241 H1263 0.950 . S
C1242 H1238 0.949 . S
C1242 C1250 1.574 . S
C1242 C1258 1.368 . S
H1243 C1251 0.950 . S
H1244 C1249 0.950 . S
H1245 C1250 0.949 . S
H1246 C1252 0.950 . S
H1247 C1253 0.950 . S
H1248 C1254 0.949 . S
C1249 H1244 0.950 . S
C1249 C1251 1.327 1_556 S
C1249 C1255 1.429 . S
C1250 C1242 1.574 . S
C1250 H1245 0.949 . S
C1250 C1256 1.368 . S
C1251 C1235 1.349 . S
C1251 H1243 0.950 . S
C1251 C1249 1.327 1_554 S
C1252 C1240 1.349 . S
C1252 H1246 0.950 . S
C1252 C1253 1.327 . S
C1253 H1247 0.950 . S
C1253 C1252 1.327 . S
C1253 C1257 1.429 . S
C1254 C1237 1.574 . S
C1254 H1248 0.949 . S
C1254 C1258 1.368 . S
C1255 C1236 1.429 . S
C1255 C1249 1.429 . S
C1255 C1256 1.523 . S
C1256 C1237 1.368 . S
C1256 C1250 1.368 . S
C1256 C1255 1.523 . S
C1257 C1241 1.429 . S
C1257 C1253 1.429 . S
C1257 C1258 1.523 . S
C1258 C1242 1.368 . S
C1258 C1254 1.368 . S
C1258 C1257 1.523 . S
H1259 C1234 0.950 . S
H1260 C1236 0.950 . S
H1261 C1237 0.949 . S
H1262 C1239 0.950 . S
H1263 C1241 0.950 . S
C1264 C1265 1.349 1_554 S
C1264 C1266 1.327 . S
C1264 H1289 0.950 1_554 S
C1265 C1264 1.349 1_556 S
C1265 C1281 1.349 . S
C1266 C1264 1.327 . S
C1266 C1285 1.429 . S
C1266 H1290 0.950 . S
C1267 C1284 1.574 . S
C1267 C1286 1.368 . S
C1267 H1291 0.949 . S
H1268 C1272 0.949 . S
C1269 C1270 1.349 . S
C1269 C1271 1.327 . S
C1269 H1292 0.950 . S
C1270 C1269 1.349 . S
C1270 C1282 1.349 . S
C1271 C1269 1.327 . S
C1271 C1287 1.429 . S
C1271 H1293 0.950 . S
C1272 H1268 0.949 . S
C1272 C1280 1.574 . S
C1272 C1288 1.368 . S
H1273 C1281 0.950 . S
H1274 C1279 0.950 . S
H1275 C1280 0.949 . S
H1276 C1282 0.950 . S
H1277 C1283 0.950 . S
H1278 C1284 0.949 . S
C1279 H1274 0.950 . S
C1279 C1281 1.327 1_554 S
C1279 C1285 1.429 . S
C1280 C1272 1.574 . S
C1280 H1275 0.949 . S
C1280 C1286 1.368 . S
C1281 C1265 1.349 . S
C1281 H1273 0.950 . S
C1281 C1279 1.327 1_556 S
C1282 C1270 1.349 . S
C1282 H1276 0.950 . S
C1282 C1283 1.327 . S
C1283 H1277 0.950 . S
C1283 C1282 1.327 . S
C1283 C1287 1.429 . S
C1284 C1267 1.574 . S
C1284 H1278 0.949 . S
C1284 C1288 1.368 . S
C1285 C1266 1.429 . S
C1285 C1279 1.429 . S
C1285 C1286 1.523 . S
C1286 C1267 1.368 . S
C1286 C1280 1.368 . S
C1286 C1285 1.523 . S
C1287 C1271 1.429 . S
C1287 C1283 1.429 . S
C1287 C1288 1.523 . S
C1288 C1272 1.368 . S
C1288 C1284 1.368 . S
C1288 C1287 1.523 . S
H1289 C1264 0.950 1_556 S
H1290 C1266 0.950 . S
H1291 C1267 0.949 . S
H1292 C1269 0.950 . S
H1293 C1271 0.950 . S
C1294 C1295 1.349 . S
C1294 C1296 1.327 . S
C1294 H1319 0.950 . S
C1295 C1294 1.349 . S
C1295 C1311 1.349 . S
C1296 C1294 1.327 . S
C1296 C1315 1.429 . S
C1296 H1320 0.950 . S
C1297 C1314 1.574 . S
C1297 C1316 1.368 . S
C1297 H1321 0.949 . S
H1298 C1302 0.949 . S
C1299 C1300 1.349 . S
C1299 C1301 1.327 . S
C1299 H1322 0.950 . S
C1300 C1299 1.349 . S
C1300 C1312 1.349 . S
C1301 C1299 1.327 . S
C1301 C1317 1.429 . S
C1301 H1323 0.950 . S
C1302 H1298 0.949 . S
C1302 C1310 1.574 . S
C1302 C1318 1.368 . S
H1303 C1311 0.950 . S
H1304 C1309 0.950 . S
H1305 C1310 0.949 . S
H1306 C1312 0.950 . S
H1307 C1313 0.950 . S
H1308 C1314 0.949 . S
C1309 H1304 0.950 . S
C1309 C1311 1.327 . S
C1309 C1315 1.429 . S
C1310 C1302 1.574 . S
C1310 H1305 0.949 . S
C1310 C1316 1.368 . S
C1311 C1295 1.349 . S
C1311 H1303 0.950 . S
C1311 C1309 1.327 . S
C1312 C1300 1.349 . S
C1312 H1306 0.950 . S
C1312 C1313 1.327 . S
C1313 H1307 0.950 . S
C1313 C1312 1.327 . S
C1313 C1317 1.429 . S
C1314 C1297 1.574 . S
C1314 H1308 0.949 . S
C1314 C1318 1.368 . S
C1315 C1296 1.429 . S
C1315 C1309 1.429 . S
C1315 C1316 1.523 1_556 S
C1316 C1297 1.368 . S
C1316 C1310 1.368 . S
C1316 C1315 1.523 1_554 S
C1317 C1301 1.429 . S
C1317 C1313 1.429 . S
C1317 C1318 1.523 . S
C1318 C1302 1.368 . S
C1318 C1314 1.368 . S
C1318 C1317 1.523 . S
H1319 C1294 0.950 . S
H1320 C1296 0.950 . S
H1321 C1297 0.949 . S
H1322 C1299 0.950 . S
H1323 C1301 0.950 . S
C1324 C1325 1.349 . S
C1324 C1326 1.327 1_554 S
C1324 H1349 0.950 . S
C1325 C1324 1.349 . S
C1325 C1341 1.349 . S
C1326 C1324 1.327 1_556 S
C1326 C1345 1.429 . S
C1326 H1350 0.950 . S
C1327 C1344 1.574 . S
C1327 C1346 1.368 . S
C1327 H1351 0.949 . S
H1328 C1332 0.949 . S
C1329 C1330 1.349 . S
C1329 C1331 1.327 . S
C1329 H1352 0.950 . S
C1330 C1329 1.349 . S
C1330 C1342 1.349 . S
C1331 C1329 1.327 . S
C1331 C1347 1.429 . S
C1331 H1353 0.950 . S
C1332 H1328 0.949 . S
C1332 C1340 1.574 . S
C1332 C1348 1.368 . S
H1333 C1341 0.950 . S
H1334 C1339 0.950 1_556 S
H1335 C1340 0.949 . S
H1336 C1342 0.950 . S
H1337 C1343 0.950 . S
H1338 C1344 0.949 . S
C1339 H1334 0.950 1_554 S
C1339 C1341 1.327 . S
C1339 C1345 1.429 1_554 S
C1340 C1332 1.574 . S
C1340 H1335 0.949 . S
C1340 C1346 1.368 . S
C1341 C1325 1.349 . S
C1341 H1333 0.950 . S
C1341 C1339 1.327 . S
C1342 C1330 1.349 . S
C1342 H1336 0.950 . S
C1342 C1343 1.327 . S
C1343 H1337 0.950 . S
C1343 C1342 1.327 . S
C1343 C1347 1.429 . S
C1344 C1327 1.574 . S
C1344 H1338 0.949 . S
C1344 C1348 1.368 . S
C1345 C1326 1.429 . S
C1345 C1339 1.429 1_556 S
C1345 C1346 1.523 . S
C1346 C1327 1.368 . S
C1346 C1340 1.368 . S
C1346 C1345 1.523 . S
C1347 C1331 1.429 . S
C1347 C1343 1.429 . S
C1347 C1348 1.523 . S
C1348 C1332 1.368 . S
C1348 C1344 1.368 . S
C1348 C1347 1.523 . S
H1349 C1324 0.950 . S
H1350 C1326 0.950 . S
H1351 C1327 0.949 . S
H1352 C1329 0.950 . S
H1353 C1331 0.950 . S
C1354 C1355 1.349 . S
C1354 C1356 1.327 1_554 S
C1354 H1379 0.950 . S
C1355 C1354 1.349 . S
C1355 C1371 1.349 . S
C1356 C1354 1.327 1_556 S
C1356 C1375 1.429 . S
C1356 H1380 0.950 . S
C1357 C1374 1.574 . S
C1357 C1376 1.368 . S
C1357 H1381 0.949 . S
H1358 C1362 0.949 . S
C1359 C1360 1.349 . S
C1359 C1361 1.327 . S
C1359 H1382 0.950 . S
C1360 C1359 1.349 . S
C1360 C1372 1.349 . S
C1361 C1359 1.327 . S
C1361 C1377 1.429 . S
C1361 H1383 0.950 . S
C1362 H1358 0.949 . S
C1362 C1370 1.574 . S
C1362 C1378 1.368 . S
H1363 C1371 0.950 . S
H1364 C1369 0.950 . S
H1365 C1370 0.949 . S
H1366 C1372 0.950 . S
H1367 C1373 0.950 . S
H1368 C1374 0.949 . S
C1369 H1364 0.950 . S
C1369 C1371 1.327 1_556 S
C1369 C1375 1.429 . S
C1370 C1362 1.574 . S
C1370 H1365 0.949 . S
C1370 C1376 1.368 . S
C1371 C1355 1.349 . S
C1371 H1363 0.950 . S
C1371 C1369 1.327 1_554 S
C1372 C1360 1.349 . S
C1372 H1366 0.950 . S
C1372 C1373 1.327 . S
C1373 H1367 0.950 . S
C1373 C1372 1.327 . S
C1373 C1377 1.429 . S
C1374 C1357 1.574 . S
C1374 H1368 0.949 . S
C1374 C1378 1.368 . S
C1375 C1356 1.429 . S
C1375 C1369 1.429 . S
C1375 C1376 1.523 . S
C1376 C1357 1.368 . S
C1376 C1370 1.368 . S
C1376 C1375 1.523 . S
C1377 C1361 1.429 . S
C1377 C1373 1.429 . S
C1377 C1378 1.523 . S
C1378 C1362 1.368 . S
C1378 C1374 1.368 . S
C1378 C1377 1.523 . S
H1379 C1354 0.950 . S
H1380 C1356 0.950 . S
H1381 C1357 0.949 . S
H1382 C1359 0.950 . S
H1383 C1361 0.950 . S
C1384 C1385 1.349 . S
C1384 C1386 1.327 . S
C1384 H1409 0.950 . S
C1385 C1384 1.349 . S
C1385 C1401 1.349 . S
C1386 C1384 1.327 . S
C1386 C1405 1.429 . S
C1386 H1410 0.950 . S
C1387 C1404 1.574 . S
C1387 C1406 1.368 . S
C1387 H1411 0.949 . S
H1388 C1392 0.949 . S
C1389 C1390 1.349 . S
C1389 C1391 1.327 . S
C1389 H1412 0.950 . S
C1390 C1389 1.349 . S
C1390 C1402 1.349 . S
C1391 C1389 1.327 . S
C1391 C1407 1.429 . S
C1391 H1413 0.950 . S
C1392 H1388 0.949 . S
C1392 C1400 1.574 . S
C1392 C1408 1.368 . S
H1393 C1401 0.950 . S
H1394 C1399 0.950 . S
H1395 C1400 0.949 . S
H1396 C1402 0.950 . S
H1397 C1403 0.950 . S
H1398 C1404 0.949 . S
C1399 H1394 0.950 . S
C1399 C1401 1.327 . S
C1399 C1405 1.429 . S
C1400 C1392 1.574 . S
C1400 H1395 0.949 . S
C1400 C1406 1.368 . S
C1401 C1385 1.349 . S
C1401 H1393 0.950 . S
C1401 C1399 1.327 . S
C1402 C1390 1.349 . S
C1402 H1396 0.950 . S
C1402 C1403 1.327 . S
C1403 H1397 0.950 . S
C1403 C1402 1.327 . S
C1403 C1407 1.429 . S
C1404 C1387 1.574 . S
C1404 H1398 0.949 . S
C1404 C1408 1.368 . S
C1405 C1386 1.429 . S
C1405 C1399 1.429 . S
C1405 C1406 1.523 . S
C1406 C1387 1.368 . S
C1406 C1400 1.368 . S
C1406 C1405 1.523 . S
C1407 C1391 1.429 . S
C1407 C1403 1.429 . S
C1407 C1408 1.523 . S
C1408 C1392 1.368 . S
C1408 C1404 1.368 . S
C1408 C1407 1.523 . S
H1409 C1384 0.950 . S
H1410 C1386 0.950 . S
H1411 C1387 0.949 . S
H1412 C1389 0.950 . S
H1413 C1391 0.950 . S
C1414 C1415 1.349 . S
C1414 C1416 1.327 . S
C1414 H1439 0.950 . S
C1415 C1414 1.349 . S
C1415 C1431 1.349 . S
C1416 C1414 1.327 . S
C1416 C1435 1.429 . S
C1416 H1440 0.950 . S
C1417 C1434 1.574 . S
C1417 C1436 1.368 . S
C1417 H1441 0.949 . S
H1418 C1422 0.949 . S
C1419 C1420 1.349 . S
C1419 C1421 1.327 . S
C1419 H1442 0.950 . S
C1420 C1419 1.349 . S
C1420 C1432 1.349 . S
C1421 C1419 1.327 . S
C1421 C1437 1.429 . S
C1421 H1443 0.950 . S
C1422 H1418 0.949 . S
C1422 C1430 1.574 . S
C1422 C1438 1.368 . S
H1423 C1431 0.950 . S
H1424 C1429 0.950 . S
H1425 C1430 0.949 . S
H1426 C1432 0.950 . S
H1427 C1433 0.950 . S
H1428 C1434 0.949 . S
C1429 H1424 0.950 . S
C1429 C1431 1.327 . S
C1429 C1435 1.429 . S
C1430 C1422 1.574 . S
C1430 H1425 0.949 . S
C1430 C1436 1.368 . S
C1431 C1415 1.349 . S
C1431 H1423 0.950 . S
C1431 C1429 1.327 . S
C1432 C1420 1.349 . S
C1432 H1426 0.950 . S
C1432 C1433 1.327 . S
C1433 H1427 0.950 . S
C1433 C1432 1.327 . S
C1433 C1437 1.429 . S
C1434 C1417 1.574 . S
C1434 H1428 0.949 . S
C1434 C1438 1.368 . S
C1435 C1416 1.429 . S
C1435 C1429 1.429 . S
C1435 C1436 1.523 . S
C1436 C1417 1.368 . S
C1436 C1430 1.368 . S
C1436 C1435 1.523 . S
C1437 C1421 1.429 . S
C1437 C1433 1.429 . S
C1437 C1438 1.523 . S
C1438 C1422 1.368 . S
C1438 C1434 1.368 . S
C1438 C1437 1.523 . S
H1439 C1414 0.950 . S
H1440 C1416 0.950 . S
H1441 C1417 0.949 . S
H1442 C1419 0.950 . S
H1443 C1421 0.950 . S
C1444 C1445 1.349 . S
C1444 C1446 1.327 . S
C1444 H1469 0.950 . S
C1445 C1444 1.349 . S
C1445 C1461 1.349 . S
C1446 C1444 1.327 . S
C1446 C1465 1.429 . S
C1446 H1470 0.950 . S
C1447 C1464 1.574 . S
C1447 C1466 1.368 . S
C1447 H1471 0.949 . S
H1448 C1452 0.949 . S
C1449 C1450 1.349 . S
C1449 C1451 1.327 . S
C1449 H1472 0.950 . S
C1450 C1449 1.349 . S
C1450 C1462 1.349 . S
C1451 C1449 1.327 . S
C1451 C1467 1.429 . S
C1451 H1473 0.950 . S
C1452 H1448 0.949 . S
C1452 C1460 1.574 . S
C1452 C1468 1.368 . S
H1453 C1461 0.950 . S
H1454 C1459 0.950 . S
H1455 C1460 0.949 . S
H1456 C1462 0.950 . S
H1457 C1463 0.950 . S
H1458 C1464 0.949 . S
C1459 H1454 0.950 . S
C1459 C1461 1.327 . S
C1459 C1465 1.429 . S
C1460 C1452 1.574 . S
C1460 H1455 0.949 . S
C1460 C1466 1.368 . S
C1461 C1445 1.349 . S
C1461 H1453 0.950 . S
C1461 C1459 1.327 . S
C1462 C1450 1.349 . S
C1462 H1456 0.950 . S
C1462 C1463 1.327 . S
C1463 H1457 0.950 . S
C1463 C1462 1.327 . S
C1463 C1467 1.429 . S
C1464 C1447 1.574 . S
C1464 H1458 0.949 . S
C1464 C1468 1.368 . S
C1465 C1446 1.429 . S
C1465 C1459 1.429 . S
C1465 C1466 1.523 . S
C1466 C1447 1.368 . S
C1466 C1460 1.368 . S
C1466 C1465 1.523 . S
C1467 C1451 1.429 . S
C1467 C1463 1.429 . S
C1467 C1468 1.523 . S
C1468 C1452 1.368 . S
C1468 C1464 1.368 . S
C1468 C1467 1.523 . S
H1469 C1444 0.950 . S
H1470 C1446 0.950 . S
H1471 C1447 0.949 . S
H1472 C1449 0.950 . S
H1473 C1451 0.950 . S
C1474 C1475 1.349 . S
C1474 C1476 1.327 . S
C1474 H1499 0.950 . S
C1475 C1474 1.349 . S
C1475 C1491 1.349 . S
C1476 C1474 1.327 . S
C1476 C1495 1.429 . S
C1476 H1500 0.950 . S
C1477 C1494 1.574 . S
C1477 C1496 1.368 . S
C1477 H1501 0.949 . S
H1478 C1482 0.949 . S
C1479 C1480 1.349 . S
C1479 C1481 1.327 . S
C1479 H1502 0.950 . S
C1480 C1479 1.349 . S
C1480 C1492 1.349 . S
C1481 C1479 1.327 . S
C1481 C1497 1.429 . S
C1481 H1503 0.950 . S
C1482 H1478 0.949 . S
C1482 C1490 1.574 . S
C1482 C1498 1.368 . S
H1483 C1491 0.950 . S
H1484 C1489 0.950 . S
H1485 C1490 0.949 . S
H1486 C1492 0.950 . S
H1487 C1493 0.950 . S
H1488 C1494 0.949 . S
C1489 H1484 0.950 . S
C1489 C1491 1.327 . S
C1489 C1495 1.429 . S
C1490 C1482 1.574 . S
C1490 H1485 0.949 . S
C1490 C1496 1.368 . S
C1491 C1475 1.349 . S
C1491 H1483 0.950 . S
C1491 C1489 1.327 . S
C1492 C1480 1.349 . S
C1492 H1486 0.950 . S
C1492 C1493 1.327 . S
C1493 H1487 0.950 . S
C1493 C1492 1.327 . S
C1493 C1497 1.429 . S
C1494 C1477 1.574 . S
C1494 H1488 0.949 . S
C1494 C1498 1.368 . S
C1495 C1476 1.429 . S
C1495 C1489 1.429 . S
C1495 C1496 1.523 . S
C1496 C1477 1.368 . S
C1496 C1490 1.368 . S
C1496 C1495 1.523 . S
C1497 C1481 1.429 . S
C1497 C1493 1.429 . S
C1497 C1498 1.523 . S
C1498 C1482 1.368 . S
C1498 C1494 1.368 . S
C1498 C1497 1.523 . S
H1499 C1474 0.950 . S
H1500 C1476 0.950 . S
H1501 C1477 0.949 . S
H1502 C1479 0.950 . S
H1503 C1481 0.950 . S
C1504 C1505 1.349 . S
C1504 C1506 1.327 . S
C1504 H1529 0.950 . S
C1505 C1504 1.349 . S
C1505 C1521 1.349 . S
C1506 C1504 1.327 . S
C1506 C1525 1.429 . S
C1506 H1530 0.950 . S
C1507 C1524 1.574 . S
C1507 C1526 1.368 . S
C1507 H1531 0.949 . S
H1508 C1512 0.949 . S
C1509 C1510 1.349 . S
C1509 C1511 1.327 . S
C1509 H1532 0.950 . S
C1510 C1509 1.349 . S
C1510 C1522 1.349 . S
C1511 C1509 1.327 . S
C1511 C1527 1.429 . S
C1511 H1533 0.950 . S
C1512 H1508 0.949 . S
C1512 C1520 1.574 . S
C1512 C1528 1.368 . S
H1513 C1521 0.950 . S
H1514 C1519 0.950 . S
H1515 C1520 0.949 . S
H1516 C1522 0.950 . S
H1517 C1523 0.950 . S
H1518 C1524 0.949 . S
C1519 H1514 0.950 . S
C1519 C1521 1.327 . S
C1519 C1525 1.429 . S
C1520 C1512 1.574 . S
C1520 H1515 0.949 . S
C1520 C1526 1.368 . S
C1521 C1505 1.349 . S
C1521 H1513 0.950 . S
C1521 C1519 1.327 . S
C1522 C1510 1.349 . S
C1522 H1516 0.950 . S
C1522 C1523 1.327 . S
C1523 H1517 0.950 . S
C1523 C1522 1.327 . S
C1523 C1527 1.429 . S
C1524 C1507 1.574 . S
C1524 H1518 0.949 . S
C1524 C1528 1.368 . S
C1525 C1506 1.429 . S
C1525 C1519 1.429 . S
C1525 C1526 1.523 . S
C1526 C1507 1.368 . S
C1526 C1520 1.368 . S
C1526 C1525 1.523 . S
C1527 C1511 1.429 . S
C1527 C1523 1.429 . S
C1527 C1528 1.523 . S
C1528 C1512 1.368 . S
C1528 C1524 1.368 . S
C1528 C1527 1.523 . S
H1529 C1504 0.950 . S
H1530 C1506 0.950 . S
H1531 C1507 0.949 . S
H1532 C1509 0.950 . S
H1533 C1511 0.950 . S
C1534 C1535 1.349 . S
C1534 C1536 1.327 . S
C1534 H1559 0.950 . S
C1535 C1534 1.349 . S
C1535 C1551 1.349 . S
C1536 C1534 1.327 . S
C1536 C1555 1.429 . S
C1536 H1560 0.950 . S
C1537 C1554 1.574 . S
C1537 C1556 1.368 . S
C1537 H1561 0.949 . S
H1538 C1542 0.949 . S
C1539 C1540 1.349 . S
C1539 C1541 1.327 . S
C1539 H1562 0.950 . S
C1540 C1539 1.349 . S
C1540 C1552 1.349 . S
C1541 C1539 1.327 . S
C1541 C1557 1.429 . S
C1541 H1563 0.950 . S
C1542 H1538 0.949 . S
C1542 C1550 1.574 . S
C1542 C1558 1.368 . S
H1543 C1551 0.950 . S
H1544 C1549 0.950 . S
H1545 C1550 0.949 . S
H1546 C1552 0.950 . S
H1547 C1553 0.950 . S
H1548 C1554 0.949 . S
C1549 H1544 0.950 . S
C1549 C1551 1.327 . S
C1549 C1555 1.429 . S
C1550 C1542 1.574 . S
C1550 H1545 0.949 . S
C1550 C1556 1.368 . S
C1551 C1535 1.349 . S
C1551 H1543 0.950 . S
C1551 C1549 1.327 . S
C1552 C1540 1.349 . S
C1552 H1546 0.950 . S
C1552 C1553 1.327 . S
C1553 H1547 0.950 . S
C1553 C1552 1.327 . S
C1553 C1557 1.429 . S
C1554 C1537 1.574 . S
C1554 H1548 0.949 . S
C1554 C1558 1.368 . S
C1555 C1536 1.429 . S
C1555 C1549 1.429 . S
C1555 C1556 1.523 . S
C1556 C1537 1.368 . S
C1556 C1550 1.368 . S
C1556 C1555 1.523 . S
C1557 C1541 1.429 . S
C1557 C1553 1.429 . S
C1557 C1558 1.523 . S
C1558 C1542 1.368 . S
C1558 C1554 1.368 . S
C1558 C1557 1.523 . S
H1559 C1534 0.950 . S
H1560 C1536 0.950 . S
H1561 C1537 0.949 . S
H1562 C1539 0.950 . S
H1563 C1541 0.950 . S
C1564 C1565 1.349 . S
C1564 C1566 1.327 . S
C1564 H1589 0.950 . S
C1565 C1564 1.349 . S
C1565 C1581 1.349 . S
C1566 C1564 1.327 . S
C1566 C1585 1.429 . S
C1566 H1590 0.950 . S
C1567 C1584 1.574 . S
C1567 C1586 1.368 . S
C1567 H1591 0.949 . S
H1568 C1572 0.949 . S
C1569 C1570 1.349 . S
C1569 C1571 1.327 . S
C1569 H1592 0.950 . S
C1570 C1569 1.349 . S
C1570 C1582 1.349 . S
C1571 C1569 1.327 . S
C1571 C1587 1.429 . S
C1571 H1593 0.950 . S
C1572 H1568 0.949 . S
C1572 C1580 1.574 . S
C1572 C1588 1.368 . S
H1573 C1581 0.950 . S
H1574 C1579 0.950 . S
H1575 C1580 0.949 . S
H1576 C1582 0.950 . S
H1577 C1583 0.950 . S
H1578 C1584 0.949 . S
C1579 H1574 0.950 . S
C1579 C1581 1.327 . S
C1579 C1585 1.429 . S
C1580 C1572 1.574 . S
C1580 H1575 0.949 . S
C1580 C1586 1.368 . S
C1581 C1565 1.349 . S
C1581 H1573 0.950 . S
C1581 C1579 1.327 . S
C1582 C1570 1.349 . S
C1582 H1576 0.950 . S
C1582 C1583 1.327 . S
C1583 H1577 0.950 . S
C1583 C1582 1.327 . S
C1583 C1587 1.429 . S
C1584 C1567 1.574 . S
C1584 H1578 0.949 . S
C1584 C1588 1.368 . S
C1585 C1566 1.429 . S
C1585 C1579 1.429 . S
C1585 C1586 1.523 . S
C1586 C1567 1.368 . S
C1586 C1580 1.368 . S
C1586 C1585 1.523 . S
C1587 C1571 1.429 . S
C1587 C1583 1.429 . S
C1587 C1588 1.523 . S
C1588 C1572 1.368 . S
C1588 C1584 1.368 . S
C1588 C1587 1.523 . S
H1589 C1564 0.950 . S
H1590 C1566 0.950 . S
H1591 C1567 0.949 . S
H1592 C1569 0.950 . S
H1593 C1571 0.950 . S
C1594 C1595 1.349 . S
C1594 C1596 1.327 . S
C1594 H1619 0.950 . S
C1595 C1594 1.349 . S
C1595 C1611 1.349 . S
C1596 C1594 1.327 . S
C1596 C1615 1.429 . S
C1596 H1620 0.950 . S
C1597 C1614 1.574 . S
C1597 C1616 1.368 . S
C1597 H1621 0.949 . S
H1598 C1602 0.949 . S
C1599 C1600 1.349 . S
C1599 C1601 1.327 . S
C1599 H1622 0.950 . S
C1600 C1599 1.349 . S
C1600 C1612 1.349 . S
C1601 C1599 1.327 . S
C1601 C1617 1.429 . S
C1601 H1623 0.950 . S
C1602 H1598 0.949 . S
C1602 C1610 1.574 . S
C1602 C1618 1.368 . S
H1603 C1611 0.950 . S
H1604 C1609 0.950 . S
H1605 C1610 0.949 . S
H1606 C1612 0.950 . S
H1607 C1613 0.950 . S
H1608 C1614 0.949 . S
C1609 H1604 0.950 . S
C1609 C1611 1.327 . S
C1609 C1615 1.429 . S
C1610 C1602 1.574 . S
C1610 H1605 0.949 . S
C1610 C1616 1.368 . S
C1611 C1595 1.349 . S
C1611 H1603 0.950 . S
C1611 C1609 1.327 . S
C1612 C1600 1.349 . S
C1612 H1606 0.950 . S
C1612 C1613 1.327 . S
C1613 H1607 0.950 . S
C1613 C1612 1.327 . S
C1613 C1617 1.429 . S
C1614 C1597 1.574 . S
C1614 H1608 0.949 . S
C1614 C1618 1.368 . S
C1615 C1596 1.429 . S
C1615 C1609 1.429 . S
C1615 C1616 1.523 . S
C1616 C1597 1.368 . S
C1616 C1610 1.368 . S
C1616 C1615 1.523 . S
C1617 C1601 1.429 . S
C1617 C1613 1.429 . S
C1617 C1618 1.523 . S
C1618 C1602 1.368 . S
C1618 C1614 1.368 . S
C1618 C1617 1.523 . S
H1619 C1594 0.950 . S
H1620 C1596 0.950 . S
H1621 C1597 0.949 . S
H1622 C1599 0.950 . S
H1623 C1601 0.950 . S
C1624 C1625 1.349 . S
C1624 C1626 1.327 . S
C1624 H1649 0.950 . S
C1625 C1624 1.349 . S
C1625 C1641 1.349 . S
C1626 C1624 1.327 . S
C1626 C1645 1.429 . S
C1626 H1650 0.950 . S
C1627 C1644 1.574 . S
C1627 C1646 1.368 . S
C1627 H1651 0.949 . S
H1628 C1632 0.949 . S
C1629 C1630 1.349 . S
C1629 C1631 1.327 . S
C1629 H1652 0.950 . S
C1630 C1629 1.349 . S
C1630 C1642 1.349 . S
C1631 C1629 1.327 . S
C1631 C1647 1.429 . S
C1631 H1653 0.950 . S
C1632 H1628 0.949 . S
C1632 C1640 1.574 . S
C1632 C1648 1.368 . S
H1633 C1641 0.950 . S
H1634 C1639 0.950 . S
H1635 C1640 0.949 . S
H1636 C1642 0.950 . S
H1637 C1643 0.950 . S
H1638 C1644 0.949 . S
C1639 H1634 0.950 . S
C1639 C1641 1.327 . S
C1639 C1645 1.429 . S
C1640 C1632 1.574 . S
C1640 H1635 0.949 . S
C1640 C1646 1.368 . S
C1641 C1625 1.349 . S
C1641 H1633 0.950 . S
C1641 C1639 1.327 . S
C1642 C1630 1.349 . S
C1642 H1636 0.950 . S
C1642 C1643 1.327 . S
C1643 H1637 0.950 . S
C1643 C1642 1.327 . S
C1643 C1647 1.429 . S
C1644 C1627 1.574 . S
C1644 H1638 0.949 . S
C1644 C1648 1.368 . S
C1645 C1626 1.429 . S
C1645 C1639 1.429 . S
C1645 C1646 1.523 . S
C1646 C1627 1.368 . S
C1646 C1640 1.368 . S
C1646 C1645 1.523 . S
C1647 C1631 1.429 . S
C1647 C1643 1.429 . S
C1647 C1648 1.523 . S
C1648 C1632 1.368 . S
C1648 C1644 1.368 . S
C1648 C1647 1.523 . S
H1649 C1624 0.950 . S
H1650 C1626 0.950 . S
H1651 C1627 0.949 . S
H1652 C1629 0.950 . S
H1653 C1631 0.950 . S
C1654 C1655 1.349 . S
C1654 C1656 1.327 . S
C1654 H1679 0.950 . S
C1655 C1654 1.349 . S
C1655 C1671 1.349 . S
C1656 C1654 1.327 . S
C1656 C1675 1.429 . S
C1656 H1680 0.950 . S
C1657 C1674 1.574 . S
C1657 C1676 1.368 . S
C1657 H1681 0.949 . S
H1658 C1662 0.949 . S
C1659 C1660 1.349 . S
C1659 C1661 1.327 . S
C1659 H1682 0.950 . S
C1660 C1659 1.349 . S
C1660 C1672 1.349 . S
C1661 C1659 1.327 . S
C1661 C1677 1.429 . S
C1661 H1683 0.950 . S
C1662 H1658 0.949 . S
C1662 C1670 1.574 . S
C1662 C1678 1.368 . S
H1663 C1671 0.950 . S
H1664 C1669 0.950 . S
H1665 C1670 0.949 . S
H1666 C1672 0.950 . S
H1667 C1673 0.950 . S
H1668 C1674 0.949 . S
C1669 H1664 0.950 . S
C1669 C1671 1.327 . S
C1669 C1675 1.429 . S
C1670 C1662 1.574 . S
C1670 H1665 0.949 . S
C1670 C1676 1.368 . S
C1671 C1655 1.349 . S
C1671 H1663 0.950 . S
C1671 C1669 1.327 . S
C1672 C1660 1.349 . S
C1672 H1666 0.950 . S
C1672 C1673 1.327 . S
C1673 H1667 0.950 . S
C1673 C1672 1.327 . S
C1673 C1677 1.429 . S
C1674 C1657 1.574 . S
C1674 H1668 0.949 . S
C1674 C1678 1.368 . S
C1675 C1656 1.429 . S
C1675 C1669 1.429 . S
C1675 C1676 1.523 . S
C1676 C1657 1.368 . S
C1676 C1670 1.368 . S
C1676 C1675 1.523 . S
C1677 C1661 1.429 . S
C1677 C1673 1.429 . S
C1677 C1678 1.523 . S
C1678 C1662 1.368 . S
C1678 C1674 1.368 . S
C1678 C1677 1.523 . S
H1679 C1654 0.950 . S
H1680 C1656 0.950 . S
H1681 C1657 0.949 . S
H1682 C1659 0.950 . S
H1683 C1661 0.950 . S
C1684 C1685 1.349 . S
C1684 C1686 1.327 . S
C1684 H1709 0.950 . S
C1685 C1684 1.349 . S
C1685 C1701 1.349 . S
C1686 C1684 1.327 . S
C1686 C1705 1.429 . S
C1686 H1710 0.950 . S
C1687 C1704 1.574 . S
C1687 C1706 1.368 . S
C1687 H1711 0.949 . S
H1688 C1692 0.949 . S
C1689 C1690 1.349 . S
C1689 C1691 1.327 . S
C1689 H1712 0.950 . S
C1690 C1689 1.349 . S
C1690 C1702 1.349 . S
C1691 C1689 1.327 . S
C1691 C1707 1.429 . S
C1691 H1713 0.950 . S
C1692 H1688 0.949 . S
C1692 C1700 1.574 . S
C1692 C1708 1.368 . S
H1693 C1701 0.950 . S
H1694 C1699 0.950 . S
H1695 C1700 0.949 . S
H1696 C1702 0.950 . S
H1697 C1703 0.950 . S
H1698 C1704 0.949 . S
C1699 H1694 0.950 . S
C1699 C1701 1.327 . S
C1699 C1705 1.429 . S
C1700 C1692 1.574 . S
C1700 H1695 0.949 . S
C1700 C1706 1.368 . S
C1701 C1685 1.349 . S
C1701 H1693 0.950 . S
C1701 C1699 1.327 . S
C1702 C1690 1.349 . S
C1702 H1696 0.950 . S
C1702 C1703 1.327 . S
C1703 H1697 0.950 . S
C1703 C1702 1.327 . S
C1703 C1707 1.429 . S
C1704 C1687 1.574 . S
C1704 H1698 0.949 . S
C1704 C1708 1.368 . S
C1705 C1686 1.429 . S
C1705 C1699 1.429 . S
C1705 C1706 1.523 . S
C1706 C1687 1.368 . S
C1706 C1700 1.368 . S
C1706 C1705 1.523 . S
C1707 C1691 1.429 . S
C1707 C1703 1.429 . S
C1707 C1708 1.523 . S
C1708 C1692 1.368 . S
C1708 C1704 1.368 . S
C1708 C1707 1.523 . S
H1709 C1684 0.950 . S
H1710 C1686 0.950 . S
H1711 C1687 0.949 . S
H1712 C1689 0.950 . S
H1713 C1691 0.950 . S
C1714 C1715 1.349 . S
C1714 C1716 1.327 . S
C1714 H1739 0.950 . S
C1715 C1714 1.349 . S
C1715 C1731 1.349 . S
C1716 C1714 1.327 . S
C1716 C1735 1.429 . S
C1716 H1740 0.950 . S
C1717 C1734 1.574 . S
C1717 C1736 1.368 . S
C1717 H1741 0.949 . S
H1718 C1722 0.949 . S
C1719 C1720 1.349 . S
C1719 C1721 1.327 . S
C1719 H1742 0.950 . S
C1720 C1719 1.349 . S
C1720 C1732 1.349 . S
C1721 C1719 1.327 . S
C1721 C1737 1.429 . S
C1721 H1743 0.950 . S
C1722 H1718 0.949 . S
C1722 C1730 1.574 . S
C1722 C1738 1.368 . S
H1723 C1731 0.950 . S
H1724 C1729 0.950 . S
H1725 C1730 0.949 . S
H1726 C1732 0.950 . S
H1727 C1733 0.950 . S
H1728 C1734 0.949 . S
C1729 H1724 0.950 . S
C1729 C1731 1.327 . S
C1729 C1735 1.429 . S
C1730 C1722 1.574 . S
C1730 H1725 0.949 . S
C1730 C1736 1.368 . S
C1731 C1715 1.349 . S
C1731 H1723 0.950 . S
C1731 C1729 1.327 . S
C1732 C1720 1.349 . S
C1732 H1726 0.950 . S
C1732 C1733 1.327 . S
C1733 H1727 0.950 . S
C1733 C1732 1.327 . S
C1733 C1737 1.429 . S
C1734 C1717 1.574 . S
C1734 H1728 0.949 . S
C1734 C1738 1.368 . S
C1735 C1716 1.429 . S
C1735 C1729 1.429 . S
C1735 C1736 1.523 . S
C1736 C1717 1.368 . S
C1736 C1730 1.368 . S
C1736 C1735 1.523 . S
C1737 C1721 1.429 . S
C1737 C1733 1.429 . S
C1737 C1738 1.523 . S
C1738 C1722 1.368 . S
C1738 C1734 1.368 . S
C1738 C1737 1.523 . S
H1739 C1714 0.950 . S
H1740 C1716 0.950 . S
H1741 C1717 0.949 . S
H1742 C1719 0.950 . S
H1743 C1721 0.950 . S
C545 C360 1.554 . S
C550 C20 1.545 . S
C575 C67 1.569 . S
C580 C258 1.566 . S
C605 C543 1.528 . S
C610 C54 1.515 . S
C635 C101 1.552 . S
C640 C33 1.547 . S
C665 C88 1.554 . S
C670 C292 1.545 . S
C695 C203 1.569 . S
C700 C122 1.566 . S
C725 C462 1.516 . S
C730 C135 1.529 . S
C755 C496 1.554 . S
C760 C156 1.545 . S
C785 C190 1.515 . S
C790 C407 1.528 . S
C815 C237 1.552 . S
C820 C169 1.547 . S
C845 C428 1.545 . S
C850 C224 1.554 . S
C875 C326 1.516 . S
C880 C271 1.529 . S
C905 C530 1.567 . S
C910 C339 1.570 . S
C935 C305 1.547 . S
C940 C373 1.553 . S
C965 C394 1.567 . S
C970 C475 1.570 . S
C995 C509 1.553 . S
C1000 C441 1.547 . S
C1025 C9 1.136 . S
C1030 C5 1.181 1_556 S
C1055 C43 1.141 . S
C1060 C39 1.192 . S
C1085 C77 1.137 . S
C1090 C73 1.172 . S
C1115 C107 1.164 . S
C1120 C111 1.124 . S
C1145 C141 1.181 . S
C1150 C145 1.136 . S
C1175 C179 1.141 . S
C1180 C175 1.192 . S
C1205 C213 1.137 . S
C1210 C209 1.172 . S
C1235 C247 1.124 . S
C1240 C243 1.164 . S
C1265 C281 1.136 . S
C1270 C277 1.181 . S
C1295 C311 1.192 . S
C1300 C315 1.141 . S
C1325 C349 1.137 . S
C1330 C345 1.172 . S
C1355 C383 1.124 . S
C1360 C379 1.164 . S
C1385 C417 1.136 . S
C1390 C413 1.181 1_556 S
C1415 C451 1.141 . S
C1420 C447 1.192 . S
C1445 C485 1.137 . S
C1450 C481 1.172 . S
C1475 C515 1.164 . S
C1480 C519 1.124 . S
C1505 C2 1.557 . S
C1510 C36 1.560 . S
C1535 C70 1.525 . S
C1540 C104 1.525 . S
C1565 C138 1.556 . S
C1570 C172 1.560 . S
C1595 C206 1.525 . S
C1600 C240 1.525 . S
C1625 C308 1.560 . S
C1630 C274 1.557 . S
C1655 C342 1.524 . S
C1660 C376 1.524 . S
C1685 C444 1.560 . S
C1690 C410 1.556 . S
C1715 C512 1.524 . S
C1720 C478 1.524 . S
