# Generated by pormake.
# Topology snp, (6)-cn, num edge types: 1
# Building blocks:
#     Node 0, Type 0, BuildingBlock: INOVEN_clean_sbu_0, # of connection points: 6
#     Node 1, Type 0, BuildingBlock: INOVEN_clean_sbu_0, # of connection points: 6
#     Node 2, Type 0, BuildingBlock: INOVEN_clean_sbu_0, # of connection points: 6
#     Node 3, Type 0, BuildingBlock: INOVEN_clean_sbu_0, # of connection points: 6
#     Edge 4, Type (0, 0), BuildingBlock: XUDNAN_clean_linker_2, # of connection points: 2
#     Edge 5, Type (0, 0), BuildingBlock: XUDNAN_clean_linker_2, # of connection points: 2
#     Edge 6, Type (0, 0), BuildingBlock: XUDNAN_clean_linker_2, # of connection points: 2
#     Edge 7, Type (0, 0), BuildingBlock: XUDNAN_clean_linker_2, # of connection points: 2
#     Edge 8, Type (0, 0), BuildingBlock: XUDNAN_clean_linker_2, # of connection points: 2
#     Edge 9, Type (0, 0), BuildingBlock: XUDNAN_clean_linker_2, # of connection points: 2
#     Edge 10, Type (0, 0), BuildingBlock: XUDNAN_clean_linker_2, # of connection points: 2
#     Edge 11, Type (0, 0), BuildingBlock: XUDNAN_clean_linker_2, # of connection points: 2
#     Edge 12, Type (0, 0), BuildingBlock: XUDNAN_clean_linker_2, # of connection points: 2
#     Edge 13, Type (0, 0), BuildingBlock: XUDNAN_clean_linker_2, # of connection points: 2
#     Edge 14, Type (0, 0), BuildingBlock: XUDNAN_clean_linker_2, # of connection points: 2
#     Edge 15, Type (0, 0), BuildingBlock: XUDNAN_clean_linker_2, # of connection points: 2
# Relax obj value: 0.201
# Max RMSD: 0.222
# Mean RMSD: 0.213
data_MOF--net-snp--node1-INOVEN_clean_sbu_0--edge1-XUDNAN_clean_linker_2
_symmetry_space_group_name_H-M    P1
_symmetry_Int_Tables_number       1
_symmetry_cell_setting            triclinic
loop_
_symmetry_equiv_pos_as_xyz
'x, y, z'
_cell_length_a     25.702082
_cell_length_b     24.978243
_cell_length_c     35.803453
_cell_angle_alpha  85.454425
_cell_angle_beta   104.48595
_cell_angle_gamma 96.79801
loop_
_atom_site_label
_atom_site_type_symbol
_atom_site_fract_x
_atom_site_fract_y
_atom_site_fract_z
_atom_type_partial_charge
Gd0 Gd 0.2401 0.11633 0.12775 0.0
Gd1 Gd 0.2776 0.02309 0.09313 0.0
C2 C 0.24434 -0.00112 0.17275 0.0
C3 C 0.19296 0.17293 0.16469 0.0
C4 C 0.19509 0.17692 0.20617 0.0
C5 C 0.24379 0.17372 0.2344 0.0
C6 C 0.14792 0.18236 0.21798 0.0
C7 C 0.19812 0.18105 0.28576 0.0
C8 C 0.14937 0.18448 0.25733 0.0
C9 C 0.24535 0.17611 0.27359 0.0
C10 C 0.34778 0.10946 0.14628 0.0
C11 C 0.26307 0.14195 0.04566 0.0
C12 C 0.32246 0.96241 0.05803 0.0
C13 C 0.30765 0.94907 1.01707 0.0
C14 C 0.25485 0.95407 0.9948 0.0
C15 C 0.34565 0.932 0.99976 0.0
C16 C 0.278 0.92477 0.93833 0.0
C17 C 0.33101 0.9201 0.96065 0.0
C18 C 0.24008 0.9417 0.95594 0.0
C19 C 0.17048 0.02931 0.07261 0.0
O20 O 0.21885 0.04246 0.16268 0.0
O21 O 0.2791 0.98666 0.15364 0.0
O22 O 0.23675 0.19121 0.15339 0.0
O23 O 0.17052 0.12727 0.14958 0.0
O24 O 0.3265 0.1547 0.14174 0.0
O25 O 0.31185 0.07053 0.14381 0.0
O26 O 0.28907 0.09768 0.05257 0.0
O27 O 0.23309 0.1536 0.06842 0.0
O28 O 0.2869 0.94358 0.07757 0.0
O29 O 0.34143 0.01261 0.0651 0.0
O30 O 0.19159 0.98401 0.07755 0.0
O31 O 0.20681 0.06786 0.07687 0.0
H32 H 0.28077 0.16908 0.22621 0.0
H33 H 0.10974 0.18431 0.19678 0.0
H34 H 0.11202 0.18737 0.26547 0.0
H35 H 0.28384 0.17415 0.29437 0.0
H36 H 0.22499 0.96786 1.00745 0.0
H37 H 0.3866 0.92809 1.01642 0.0
H38 H 0.36108 0.90704 0.94788 0.0
H39 H 0.19929 0.94666 0.93943 0.0
Gd40 Gd 0.00272 0.306 0.73626 0.0
Gd41 Gd 0.09555 0.28519 0.69901 0.0
C42 C 0.12313 0.30205 0.79026 0.0
C43 C 0.92227 0.29871 0.76862 0.0
C44 C 0.91292 0.2836 0.80745 0.0
C45 C 0.94508 0.24875 0.83373 0.0
C46 C 0.87143 0.30504 0.81859 0.0
C47 C 0.89392 0.25705 0.88179 0.0
C48 C 0.86204 0.29201 0.85528 0.0
C49 C 0.93551 0.23541 0.87047 0.0
C50 C 0.05577 0.39441 0.70877 0.0
C51 C 0.976 0.27913 0.64412 0.0
C52 C 0.17206 0.28633 0.66403 0.0
C53 C 0.17385 0.26874 0.6256 0.0
C54 C 0.1727 0.2137 0.61914 0.0
C55 C 0.17646 0.30686 0.59482 0.0
C56 C 0.17832 0.23544 0.5525 0.0
C57 C 0.17844 0.2904 0.55866 0.0
C58 C 0.17484 0.19733 0.58313 0.0
C59 C 0.03793 0.19725 0.72117 0.0
O60 O 0.07072 0.29309 0.78843 0.0
O61 O 0.14173 0.3094 0.75871 0.0
O62 O 0.95305 0.34365 0.76547 0.0
O63 O 0.93192 0.25997 0.74942 0.0
O64 O 0.03618 0.39426 0.73888 0.0
O65 O 0.04301 0.34952 0.69391 0.0
O66 O 0.02827 0.28332 0.64626 0.0
O67 O 0.95656 0.28538 0.67455 0.0
O68 O 0.16296 0.24825 0.68971 0.0
O69 O 0.14646 0.32875 0.66415 0.0
O70 O 0.05879 0.19961 0.69158 0.0
O71 O 0.05171 0.23973 0.7392 0.0
H72 H 0.9777 0.23204 0.82592 0.0
H73 H 0.84615 0.332 0.79883 0.0
H74 H 0.82925 0.3089 0.86271 0.0
H75 H 0.96122 0.20884 0.89023 0.0
H76 H 0.17037 0.18302 0.64196 0.0
H77 H 0.17745 0.34955 0.59878 0.0
H78 H 0.18162 0.32088 0.53585 0.0
H79 H 0.1739 0.15462 0.57929 0.0
Gd80 Gd 0.80928 0.07429 0.21451 0.0
Gd81 Gd 0.80496 0.97307 0.16497 0.0
C82 C 0.813 0.95085 0.25588 0.0
C83 C 0.78082 0.13881 0.25718 0.0
C84 C 0.792 0.14833 0.29872 0.0
C85 C 0.83427 0.1254 0.32562 0.0
C86 C 0.76024 0.18124 0.31164 0.0
C87 C 0.81396 0.16998 0.37787 0.0
C88 C 0.77101 0.19192 0.3508 0.0
C89 C 0.84526 0.13624 0.36482 0.0
C90 C 0.90621 0.05203 0.20984 0.0
C91 C 0.81997 0.09515 0.12673 0.0
C92 C 0.81647 0.902 0.11908 0.0
C93 C 0.83496 0.89394 0.08401 0.0
C94 C 0.85743 0.84603 0.0821 0.0
C95 C 0.82966 0.93171 0.05227 0.0
C96 C 0.87155 0.87434 1.01819 0.0
C97 C 0.84761 0.92186 1.01958 0.0
C98 C 0.87576 0.83647 0.0498 0.0
C99 C 0.71056 0.0068 0.16928 0.0
O100 O 0.80805 0.00287 0.25761 0.0
O101 O 0.81495 0.92944 0.22355 0.0
O102 O 0.82132 0.15125 0.24086 0.0
O103 O 0.7525 0.09312 0.24612 0.0
O104 O 0.89748 0.09732 0.22169 0.0
O105 O 0.86569 0.01781 0.20973 0.0
O106 O 0.8293 0.04391 0.12774 0.0
O107 O 0.80335 0.115 0.15473 0.0
O108 O 0.77246 0.92582 0.11454 0.0
O109 O 0.85327 0.9156 0.15034 0.0
O110 O 0.71685 0.95604 0.16849 0.0
O111 O 0.75275 0.03533 0.16632 0.0
H112 H 0.85897 0.09945 0.31625 0.0
H113 H 0.72738 0.19921 0.29133 0.0
H114 H 0.74647 0.21846 0.35972 0.0
H115 H 0.87814 0.11808 0.38493 0.0
H116 H 0.86139 0.81601 0.10594 0.0
H117 H 0.81198 0.96879 0.05283 0.0
H118 H 0.84389 0.95184 0.99577 0.0
H119 H 0.89313 0.7991 0.04955 0.0
Gd120 Gd 0.99233 0.8001 0.60967 0.0
Gd121 Gd 0.07535 0.86206 0.57702 0.0
C122 C 0.1039 0.85467 0.66649 0.0
C123 C 0.94181 0.74437 0.65605 0.0
C124 C 0.93835 0.75727 0.69527 0.0
C125 C 0.92393 0.80778 0.70198 0.0
C126 C 0.95259 0.72039 0.72688 0.0
C127 C 0.93828 0.7841 0.77104 0.0
C128 C 0.95285 0.73371 0.76431 0.0
C129 C 0.92342 0.82077 0.7393 0.0
C130 C 0.97895 0.9062 0.60153 0.0
C131 C 0.96118 0.82001 0.52013 0.0
C132 C 0.13272 0.9219 0.53633 0.0
C133 C 0.14693 0.91865 0.49918 0.0
C134 C 0.15039 0.86864 0.48497 0.0
C135 C 0.15771 0.96626 0.47776 0.0
C136 C 0.17538 0.91414 0.42826 0.0
C137 C 0.1717 0.96408 0.44262 0.0
C138 C 0.1648 0.86643 0.44991 0.0
C139 C 0.08646 0.75524 0.58881 0.0
O140 O 0.06484 0.81432 0.66172 0.0
O141 O 0.10996 0.88754 0.63698 0.0
O142 O 0.91779 0.77503 0.62709 0.0
O143 O 0.98915 0.73385 0.6528 0.0
O144 O 0.94087 0.86794 0.59113 0.0
O145 O 0.02363 0.88646 0.61258 0.0
O146 O 0.00166 0.85834 0.5274 0.0
O147 O 0.95368 0.78265 0.54718 0.0
O148 O 0.15262 0.88732 0.56398 0.0
O149 O 0.08241 0.92822 0.53462 0.0
O150 O 0.12608 0.79249 0.59706 0.0
O151 O 0.04301 0.77542 0.57461 0.0
H152 H 0.91364 0.83772 0.67847 0.0
H153 H 0.96407 0.68137 0.72271 0.0
H154 H 0.96414 0.70429 0.78801 0.0
H155 H 0.9126 0.8601 0.74342 0.0
H156 H 0.14192 0.83131 0.50095 0.0
H157 H 0.15543 0.00522 0.48826 0.0
H158 H 0.18015 0.0016 0.42685 0.0
H159 H 0.16673 0.82739 0.43942 0.0
H160 H 0.94992 0.96866 0.18684 0.0
H161 H 0.93645 0.14101 0.16947 0.0
H162 H 0.98313 0.14625 0.11755 0.0
H163 H 0.08359 0.98023 0.1795 0.0
H164 H 0.07735 0.9173 0.15683 0.0
H165 H 0.03322 0.92642 0.18706 0.0
H166 H 0.95222 0.90153 0.12879 0.0
H167 H 0.99768 0.89607 0.09853 0.0
H168 H 0.94605 0.9415 0.08379 0.0
H169 H 0.04057 0.13819 0.07564 0.0
H170 H 0.11931 0.11941 0.05353 0.0
H171 H 0.10112 0.9534 0.09771 0.0
C172 C 0.95612 0.00704 0.17145 0.0
C173 C 0.93875 0.05402 0.18151 0.0
C174 C 0.94932 0.10429 0.16213 0.0
C175 C 0.97491 0.10764 0.13203 0.0
C176 C 0.99091 0.06065 0.12221 0.0
C177 C 0.98328 0.01146 0.14184 0.0
C178 C 0.01378 0.9698 0.13035 0.0
C179 C 0.05436 0.94709 0.16556 0.0
C180 C 0.97503 0.92448 0.10909 0.0
C181 C 0.04189 0.00428 0.10313 0.0
C182 C 0.02631 0.05601 0.09772 0.0
C183 C 0.05202 0.09748 0.07849 0.0
C184 C 0.09676 0.08658 0.0662 0.0
C185 C 0.11552 0.03506 0.07408 0.0
C186 C 0.08625 -0.00734 0.09065 0.0
H187 H 0.02965 0.92825 0.67493 0.0
H188 H 0.89868 0.97293 0.57976 0.0
H189 H 0.87581 0.03783 0.62054 0.0
H190 H 0.9567 0.95928 0.75542 0.0
H191 H 0.02246 0.97885 0.78569 0.0
H192 H 0.01322 0.92433 0.75357 0.0
H193 H 0.09011 0.97369 0.72448 0.0
H194 H 0.0976 0.02755 0.75579 0.0
H195 H 0.08389 0.04182 0.70419 0.0
H196 H 0.88144 0.10956 0.66344 0.0
H197 H 0.92937 0.19222 0.69174 0.0
H198 H 0.05742 0.10367 0.7602 0.0
C199 C 0.99595 0.95156 0.6628 0.0
C200 C 0.96682 0.94728 0.62406 0.0
C201 C 0.92201 0.97687 0.60931 0.0
C202 C 0.908 0.01257 0.6326 0.0
C203 C 0.93811 0.0165 0.67085 0.0
C204 C 0.9812 0.98648 0.68579 0.0
C205 C 0.01343 0.00473 0.72477 0.0
C206 C 0.00071 0.96443 0.75679 0.0
C207 C 0.07478 0.01255 0.72732 0.0
C208 C 0.98925 0.05694 0.72537 0.0
C209 C 0.94208 0.05977 0.69628 0.0
C210 C 0.91746 0.10737 0.68667 0.0
C211 C 0.94518 0.1546 0.70303 0.0
C212 C 0.99745 0.15377 0.72748 0.0
C213 C 0.01685 0.10421 0.74206 0.0
H214 H 0.60886 0.95437 0.16687 0.0
H215 H 0.69982 0.11269 0.17076 0.0
H216 H 0.61781 0.15521 0.16866 0.0
H217 H 0.49092 -0.00475 0.09899 0.0
H218 H 0.44363 0.95249 0.12057 0.0
H219 H 0.51037 0.9332 0.1252 0.0
H220 H 0.526 0.92618 0.19978 0.0
H221 H 0.45924 0.94547 0.19528 0.0
H222 H 0.51716 0.98338 0.22445 0.0
H223 H 0.52683 0.18178 0.16326 0.0
H224 H 0.42966 0.1905 0.15421 0.0
H225 H 0.39573 0.01616 0.15245 0.0
C226 C 0.6114 -0.00215 0.16778 0.0
C227 C 0.66077 0.03017 0.16961 0.0
C228 C 0.66255 0.08705 0.16996 0.0
C229 C 0.61618 0.11171 0.1687 0.0
C230 C 0.56809 0.07901 0.16672 0.0
C231 C 0.56505 0.02339 0.16612 0.0
C232 C 0.50737 -0.00171 0.162 0.0
C233 C 0.48689 0.96803 0.12446 0.0
C234 C 0.50216 0.96114 0.1975 0.0
C235 C 0.4789 0.04857 0.16019 0.0
C236 C 0.51482 0.09461 0.16311 0.0
C237 C 0.49818 0.14607 0.16118 0.0
C238 C 0.44307 0.15066 0.15601 0.0
C239 C 0.40561 0.10406 0.15281 0.0
C240 C 0.42376 0.05242 0.15509 0.0
H241 H 0.0789 0.49815 0.73285 0.0
H242 H 0.06658 0.40115 0.63503 0.0
H243 H 0.08069 0.48354 0.59483 0.0
H244 H 0.00862 0.60293 0.68269 0.0
H245 H 0.05126 0.65653 0.70958 0.0
H246 H 0.0455 0.5897 0.73185 0.0
H247 H 0.14973 0.58982 0.74723 0.0
H248 H 0.15516 0.65677 0.72478 0.0
H249 H 0.18383 0.60302 0.70864 0.0
H250 H 0.08144 0.57541 0.56275 0.0
H251 H 0.07969 0.67267 0.54274 0.0
H252 H 0.09909 0.71085 0.66166 0.0
C253 C 0.08042 0.49439 0.70322 0.0
C254 C 0.07164 0.44347 0.687 0.0
C255 C 0.0735 0.43985 0.64808 0.0
C256 C 0.0814 0.4864 0.62496 0.0
C257 C 0.08837 0.53615 0.64141 0.0
C258 C 0.08909 0.54057 0.67982 0.0
C259 C 0.09549 0.59919 0.68979 0.0
C260 C 0.04732 0.61282 0.70431 0.0
C261 C 0.14926 0.613 0.71936 0.0
C262 C 0.09589 0.62676 0.65063 0.0
C263 C 0.09172 0.58962 0.62312 0.0
C264 C 0.08615 0.60504 0.58413 0.0
C265 C 0.08495 0.66002 0.57299 0.0
C266 C 0.09003 0.69838 0.60087 0.0
C267 C 0.09616 0.68183 0.64011 0.0
H268 H 0.12998 0.2712 0.47796 0.0
H269 H 0.24215 0.16037 0.54245 0.0
H270 H 0.25601 0.13232 0.48152 0.0
H271 H 0.07061 0.18511 0.39663 0.0
H272 H 0.06435 0.24092 0.3612 0.0
H273 H 0.06103 0.25074 0.40986 0.0
H274 H 0.13898 0.32784 0.4153 0.0
H275 H 0.14263 0.31818 0.36674 0.0
H276 H 0.202 0.31483 0.406 0.0
H277 H 0.26258 0.12017 0.41452 0.0
H278 H 0.25892 0.12177 0.3453 0.0
H279 H 0.14167 0.23951 0.32251 0.0
C280 C 0.15745 0.24103 0.47923 0.0
C281 C 0.18483 0.21788 0.51516 0.0
C282 C 0.22006 0.17816 0.51543 0.0
C283 C 0.22845 0.16212 0.48092 0.0
C284 C 0.2012 0.18591 0.44614 0.0
C285 C 0.16612 0.22424 0.4449 0.0
C286 C 0.14253 0.24376 0.40347 0.0
C287 C 0.08098 0.22926 0.39213 0.0
C288 C 0.15745 0.30477 0.39755 0.0
C289 C 0.17085 0.21132 0.3818 0.0
C290 C 0.20435 0.17816 0.40709 0.0
C291 C 0.23619 0.1457 0.39438 0.0
C292 C 0.23394 0.14713 0.35481 0.0
C293 C 0.19969 0.18045 0.32793 0.0
C294 C 0.16761 0.21284 0.34193 0.0
H295 H 0.89345 0.15798 0.9221 0.0
H296 H 0.87071 0.32564 0.93033 0.0
H297 H 0.85002 0.30342 0.99387 0.0
H298 H 0.7865 0.10135 0.96449 0.0
H299 H 0.82139 0.04625 0.99059 0.0
H300 H 0.83682 0.07438 0.94625 0.0
H301 H 0.93741 0.09275 0.98064 0.0
H302 H 0.92383 0.06444 1.02553 0.0
H303 H 0.95669 0.13209 1.02288 0.0
H304 H 0.82958 0.26197 0.05673 0.0
H305 H 0.81244 0.20482 0.1131 0.0
H306 H 0.85004 0.06522 0.06371 0.0
C307 C 0.88479 0.19019 0.93745 0.0
C308 C 0.88363 0.24363 0.92099 0.0
C309 C 0.87122 0.28429 0.94196 0.0
C310 C 0.85966 0.27212 0.97823 0.0
C311 C 0.86057 0.21899 0.9934 0.0
C312 C 0.87292 0.1787 0.97366 0.0
C313 C 0.87002 0.12463 0.99592 0.0
C314 C 0.82608 0.08428 0.97292 0.0
C315 C 0.92528 0.1021 1.0069 0.0
C316 C 0.85442 0.14086 1.03126 0.0
C317 C 0.84898 0.19538 1.02934 0.0
C318 C 0.83387 0.2192 0.05853 0.0
C319 C 0.82407 0.18641 0.09044 0.0
C320 C 0.82949 0.13037 0.09298 0.0
C321 C 0.84513 0.10777 0.06285 0.0
H322 H 0.92408 0.91039 0.4823 0.0
H323 H 0.91686 0.73845 0.46998 0.0
H324 H 0.86984 0.75111 0.40053 0.0
H325 H 0.79239 0.93247 0.41414 0.0
H326 H 0.81914 -0.00258 0.39741 0.0
H327 H 0.84514 0.97253 0.44638 0.0
H328 H 0.94193 0.98513 0.43549 0.0
H329 H 0.91605 0.00935 0.38649 0.0
H330 H 0.95562 0.9526 0.39628 0.0
H331 H 0.83548 0.78688 0.32955 0.0
H332 H 0.81134 0.83969 0.26709 0.0
H333 H 0.83915 0.98699 0.32891 0.0
C334 C 0.91122 0.87511 0.46524 0.0
C335 C 0.92362 0.82337 0.48141 0.0
C336 C 0.90684 0.77826 0.45821 0.0
C337 C 0.88048 0.78527 0.41873 0.0
C338 C 0.87053 0.83745 0.40332 0.0
C339 C 0.8846 0.88138 0.4263 0.0
C340 C 0.87272 0.93373 0.40307 0.0
C341 C 0.82977 0.9606 0.41602 0.0
C342 C 0.92467 0.97243 0.40548 0.0
C343 C 0.85096 0.91293 0.36305 0.0
C344 C 0.84986 0.85739 0.36348 0.0
C345 C 0.8352 0.83021 0.32915 0.0
C346 C 0.82166 0.86056 0.29375 0.0
C347 C 0.82258 0.91752 0.2929 0.0
C348 C 0.83682 0.94349 0.32827 0.0
H349 H 0.08333 0.82595 0.73802 0.0
H350 H 0.20371 0.90965 0.68215 0.0
H351 H 0.26262 0.93236 0.74568 0.0
H352 H 0.10082 0.92082 0.81087 0.0
H353 H 0.09152 0.87113 0.84859 0.0
H354 H 0.05968 0.85781 0.79899 0.0
H355 H 0.10528 0.76971 0.80586 0.0
H356 H 0.13706 0.78237 0.85566 0.0
H357 H 0.17767 0.77182 0.823 0.0
H358 H 0.30807 0.94781 0.81442 0.0
H359 H 0.33531 0.95935 0.8847 0.0
H360 H 0.18549 0.86808 0.89712 0.0
C361 C 0.12243 0.84836 0.7393 0.0
C362 C 0.13923 0.86564 0.70516 0.0
C363 C 0.19009 0.89595 0.70791 0.0
C364 C 0.22394 0.90893 0.74387 0.0
C365 C 0.20628 0.89167 0.77695 0.0
C366 C 0.15665 0.86233 0.77513 0.0
C367 C 0.1467 0.85112 0.81521 0.0
C368 C 0.09669 0.8768 0.81859 0.0
C369 C 0.14139 0.79012 0.82554 0.0
C370 C 0.19824 0.87919 0.8396 0.0
C371 C 0.23223 0.90173 0.8169 0.0
C372 C 0.28195 0.93016 0.83258 0.0
C373 C 0.29722 0.93627 0.87256 0.0
C374 C 0.2627 0.91452 0.89643 0.0
C375 C 0.21266 0.88535 0.87959 0.0
H376 H 0.82402 0.88726 0.93979 0.0
H377 H 0.9683 0.83746 1.02058 0.0
H378 H 0.00244 0.81305 0.96629 0.0
H379 H 0.80804 0.78234 0.87554 0.0
H380 H 0.7855 0.82344 0.83206 0.0
H381 H 0.77374 0.84082 0.87691 0.0
H382 H 0.82295 0.93629 0.8696 0.0
H383 H 0.83465 0.91925 0.8246 0.0
H384 H 0.89069 0.94314 0.86289 0.0
H385 H 0.01882 0.78855 0.90371 0.0
H386 H 0.01686 0.76746 0.83713 0.0
H387 H 0.86274 0.83346 0.7958 0.0
C388 C 0.8632 0.87209 0.94597 0.0
C389 C 0.89331 0.86402 0.98462 0.0
C390 C 0.94411 0.84335 0.99138 0.0
C391 C 0.96402 0.82962 0.96066 0.0
C392 C 0.93291 0.83687 0.92306 0.0
C393 C 0.88372 0.85792 0.9155 0.0
C394 C 0.85751 0.8596 0.87238 0.0
C395 C 0.80297 0.82445 0.86373 0.0
C396 C 0.85109 0.91805 0.85643 0.0
C397 C 0.89924 0.83549 0.85705 0.0
C398 C 0.9425 0.82288 0.88682 0.0
C399 C 0.98521 0.79847 0.88017 0.0
C400 C 0.98357 0.78628 0.84223 0.0
C401 C 0.93965 0.79858 0.8111 0.0
C402 C 0.89721 0.82404 0.81881 0.0
H403 H 0.17228 0.01632 0.21317 0.0
H404 H 0.29895 0.91505 0.21477 0.0
H405 H 0.29022 0.87541 0.27916 0.0
H406 H 0.21709 0.0495 0.30602 0.0
H407 H 0.15187 0.05161 0.31594 0.0
H408 H 0.15991 0.06455 0.26747 0.0
H409 H 0.0847 -0.00845 0.24387 0.0
H410 H 0.07524 0.97251 0.29123 0.0
H411 H 0.08974 0.92255 0.2626 0.0
H412 H 0.27144 0.85329 0.34686 0.0
H413 H 0.24656 0.85247 0.40957 0.0
H414 H 0.13513 0.97173 0.3614 0.0
C415 C 0.19729 0.98457 0.22619 0.0
C416 C 0.23602 0.96839 0.20853 0.0
C417 C 0.26863 0.9277 0.22747 0.0
C418 C 0.26387 0.90503 0.26404 0.0
C419 C 0.22607 0.92329 0.28096 0.0
C420 C 0.19302 0.96188 0.26222 0.0
C421 C 0.15953 0.97934 0.28746 0.0
C422 C 0.17288 0.03985 0.29471 0.0
C423 C 0.09875 0.96553 0.27022 0.0
C424 C 0.1791 0.94508 0.32374 0.0
C425 C 0.21695 0.91241 0.31957 0.0
C426 C 0.2415 0.87843 0.35011 0.0
C427 C 0.22707 0.87815 0.3856 0.0
C428 C 0.18903 0.91221 0.39039 0.0
C429 C 0.16467 0.94561 0.3588 0.0
H430 H 0.10289 0.30126 0.86164 0.0
H431 H 0.22822 0.27851 0.80439 0.0
H432 H 0.28367 0.24334 0.86614 0.0
H433 H 0.19554 0.33803 0.957 0.0
H434 H 0.14916 0.30237 0.98296 0.0
H435 H 0.12384 0.33368 0.93578 0.0
H436 H 0.07249 0.24208 0.91247 0.0
H437 H 0.09806 0.21031 0.95924 0.0
H438 H 0.10939 0.18391 0.91685 0.0
H439 H 0.31756 0.19515 0.93152 0.0
H440 H 0.33052 0.14739 0.99613 0.0
H441 H 0.18478 0.20619 1.01036 0.0
C442 C 0.14275 0.29057 0.8623 0.0
C443 C 0.16124 0.29283 0.82818 0.0
C444 C 0.21339 0.27777 0.83021 0.0
C445 C 0.24513 0.25749 0.86517 0.0
C446 C 0.22459 0.2535 0.89795 0.0
C447 C 0.17503 0.27079 0.89693 0.0
C448 C 0.16014 0.25883 0.93523 0.0
C449 C 0.15701 0.31136 0.95384 0.0
C450 C 0.1069 0.22157 0.93065 0.0
C451 C 0.20801 0.23024 0.95755 0.0
C452 C 0.24495 0.22756 0.93575 0.0
C453 C 0.28965 0.19829 0.94922 0.0
C454 C 0.29662 0.17112 0.98584 0.0
C455 C 0.25927 0.17382 1.00857 0.0
C456 C 0.21495 0.20445 0.99422 0.0
H457 H 0.91398 0.19601 0.42575 0.0
H458 H 0.74328 0.17576 0.42352 0.0
H459 H 0.76482 0.20246 0.49123 0.0
H460 H 0.96204 0.14489 0.52458 0.0
H461 H 0.02139 0.19289 0.53349 0.0
H462 H 0.99192 0.17078 0.48541 0.0
H463 H 0.98429 0.2703 0.46014 0.0
H464 H 0.01326 0.29255 0.50822 0.0
H465 H 0.94849 0.31237 0.48161 0.0
H466 H 0.80638 0.23197 0.56049 0.0
H467 H 0.86406 0.26109 0.62366 0.0
H468 H 0.00597 0.26304 0.57821 0.0
C469 C 0.88111 0.19645 0.43961 0.0
C470 C 0.8269 0.18366 0.41924 0.0
C471 C 0.7851 0.18582 0.43837 0.0
C472 C 0.79696 0.20075 0.4769 0.0
C473 C 0.85084 0.21364 0.496 0.0
C474 C 0.89219 0.21153 0.4779 0.0
C475 C 0.94666 0.22814 0.50433 0.0
C476 C 0.98259 0.18137 0.51244 0.0
C477 C 0.97479 0.27886 0.48757 0.0
C478 C 0.92955 0.24007 0.54008 0.0
C479 C 0.87426 0.23134 0.53501 0.0
C480 C 0.84975 0.23913 0.56466 0.0
C481 C 0.88276 0.25588 0.60042 0.0
C482 C 0.93958 0.26491 0.60608 0.0
C483 C 0.96271 0.25704 0.57515 0.0
loop_
_geom_bond_atom_site_label_1
_geom_bond_atom_site_label_2
_geom_bond_distance
_geom_bond_site_symmetry_2
_ccdc_geom_bond_type
Gd0 C3 2.818 . S
Gd0 O20 2.377 . S
Gd0 O22 2.448 . S
Gd0 O23 2.506 . S
Gd0 O24 2.435 . S
Gd0 O25 2.717 . S
Gd0 O27 2.395 . S
Gd0 O31 2.327 . S
Gd1 C12 2.800 1_544 S
Gd1 O21 2.395 . S
Gd1 O25 2.327 . S
Gd1 O26 2.377 . S
Gd1 O28 2.448 1_545 S
Gd1 O29 2.506 . S
Gd1 O30 2.435 . S
Gd1 O31 2.717 . S
C2 O20 1.240 . S
C2 O21 1.240 . S
C3 Gd0 2.818 . S
C3 C4 1.510 . S
C3 O22 1.249 . S
C3 O23 1.252 . S
C4 C3 1.510 . S
C4 C5 1.404 . S
C4 C6 1.352 . S
C5 C4 1.404 . S
C5 C9 1.389 . S
C5 H32 0.930 . S
C6 C4 1.352 . S
C6 C8 1.374 . S
C6 H33 0.931 . S
C7 C8 1.359 . S
C7 C9 1.364 . S
C8 C6 1.374 . S
C8 C7 1.359 . S
C8 H34 0.931 . S
C9 C5 1.389 . S
C9 C7 1.364 . S
C9 H35 0.931 . S
C10 O24 1.256 . S
C10 O25 1.257 . S
C11 O26 1.240 . S
C11 O27 1.240 . S
C12 Gd1 2.800 1_566 S
C12 C13 1.529 . S
C12 O28 1.239 1_556 S
C12 O29 1.245 1_566 S
C13 C12 1.529 . S
C13 C14 1.404 . S
C13 C15 1.352 . S
C14 C13 1.404 . S
C14 C18 1.389 . S
C14 H36 0.930 . S
C15 C13 1.352 . S
C15 C17 1.374 . S
C15 H37 0.931 1_565 S
C16 C17 1.359 . S
C16 C18 1.364 . S
C17 C15 1.374 . S
C17 C16 1.359 . S
C17 H38 0.931 . S
C18 C14 1.389 . S
C18 C16 1.364 . S
C18 H39 0.931 . S
C19 O30 1.256 . S
C19 O31 1.257 . S
O20 Gd0 2.377 . S
O20 C2 1.240 . S
O21 Gd1 2.395 . S
O21 C2 1.240 . S
O22 Gd0 2.448 . S
O22 C3 1.249 . S
O23 Gd0 2.506 . S
O23 C3 1.252 . S
O24 Gd0 2.435 . S
O24 C10 1.256 . S
O25 Gd0 2.717 . S
O25 Gd1 2.327 . S
O25 C10 1.257 . S
O26 Gd1 2.377 . S
O26 C11 1.240 . S
O27 Gd0 2.395 . S
O27 C11 1.240 . S
O28 Gd1 2.448 1_565 S
O28 C12 1.239 1_554 S
O29 Gd1 2.506 . S
O29 C12 1.245 1_544 S
O30 Gd1 2.435 . S
O30 C19 1.256 . S
O31 Gd0 2.327 . S
O31 Gd1 2.717 . S
O31 C19 1.257 . S
H32 C5 0.930 . S
H33 C6 0.931 . S
H34 C8 0.931 . S
H35 C9 0.931 . S
H36 C14 0.930 . S
H37 C15 0.931 1_545 S
H38 C17 0.931 . S
H39 C18 0.931 . S
Gd40 C43 2.818 . S
Gd40 O60 2.377 1_655 S
Gd40 O62 2.448 . S
Gd40 O63 2.506 . S
Gd40 O64 2.435 . S
Gd40 O65 2.717 1_655 S
Gd40 O67 2.395 . S
Gd40 O71 2.327 1_655 S
Gd41 C52 2.818 . S
Gd41 O61 2.395 . S
Gd41 O65 2.327 . S
Gd41 O66 2.377 . S
Gd41 O68 2.448 . S
Gd41 O69 2.506 . S
Gd41 O70 2.435 . S
Gd41 O71 2.717 . S
C42 O60 1.240 . S
C42 O61 1.240 . S
C43 Gd40 2.818 . S
C43 C44 1.510 . S
C43 O62 1.249 . S
C43 O63 1.252 . S
C44 C43 1.510 . S
C44 C45 1.404 . S
C44 C46 1.352 . S
C45 C44 1.404 . S
C45 C49 1.389 . S
C45 H72 0.930 . S
C46 C44 1.352 . S
C46 C48 1.374 . S
C46 H73 0.931 . S
C47 C48 1.359 . S
C47 C49 1.364 . S
C48 C46 1.374 . S
C48 C47 1.359 . S
C48 H74 0.931 . S
C49 C45 1.389 . S
C49 C47 1.364 . S
C49 H75 0.931 . S
C50 O64 1.256 1_455 S
C50 O65 1.257 . S
C51 O66 1.240 1_655 S
C51 O67 1.240 . S
C52 Gd41 2.818 . S
C52 C53 1.510 . S
C52 O68 1.249 . S
C52 O69 1.252 . S
C53 C52 1.510 . S
C53 C54 1.404 . S
C53 C55 1.352 . S
C54 C53 1.404 . S
C54 C58 1.389 . S
C54 H76 0.930 . S
C55 C53 1.352 . S
C55 C57 1.374 . S
C55 H77 0.931 . S
C56 C57 1.359 . S
C56 C58 1.364 . S
C57 C55 1.374 . S
C57 C56 1.359 . S
C57 H78 0.931 . S
C58 C54 1.389 . S
C58 C56 1.364 . S
C58 H79 0.931 . S
C59 O70 1.256 . S
C59 O71 1.257 . S
O60 Gd40 2.377 1_455 S
O60 C42 1.240 . S
O61 Gd41 2.395 . S
O61 C42 1.240 . S
O62 Gd40 2.448 . S
O62 C43 1.249 . S
O63 Gd40 2.506 . S
O63 C43 1.252 . S
O64 Gd40 2.435 . S
O64 C50 1.256 1_655 S
O65 Gd40 2.717 1_455 S
O65 Gd41 2.327 . S
O65 C50 1.257 . S
O66 Gd41 2.377 . S
O66 C51 1.240 1_455 S
O67 Gd40 2.395 . S
O67 C51 1.240 . S
O68 Gd41 2.448 . S
O68 C52 1.249 . S
O69 Gd41 2.506 . S
O69 C52 1.252 . S
O70 Gd41 2.435 . S
O70 C59 1.256 . S
O71 Gd40 2.327 1_455 S
O71 Gd41 2.717 . S
O71 C59 1.257 . S
H72 C45 0.930 . S
H73 C46 0.931 . S
H74 C48 0.931 . S
H75 C49 0.931 . S
H76 C54 0.930 . S
H77 C55 0.931 . S
H78 C57 0.931 . S
H79 C58 0.931 . S
Gd80 C83 2.818 . S
Gd80 O100 2.377 . S
Gd80 O102 2.448 . S
Gd80 O103 2.506 . S
Gd80 O104 2.435 . S
Gd80 O105 2.717 . S
Gd80 O107 2.395 . S
Gd80 O111 2.327 . S
Gd81 C92 2.818 . S
Gd81 O101 2.395 . S
Gd81 O105 2.327 1_565 S
Gd81 O106 2.377 1_565 S
Gd81 O108 2.448 . S
Gd81 O109 2.506 . S
Gd81 O110 2.435 . S
Gd81 O111 2.717 1_565 S
C82 O100 1.240 1_565 S
C82 O101 1.240 . S
C83 Gd80 2.818 . S
C83 C84 1.510 . S
C83 O102 1.249 . S
C83 O103 1.252 . S
C84 C83 1.510 . S
C84 C85 1.404 . S
C84 C86 1.352 . S
C85 C84 1.404 . S
C85 C89 1.389 . S
C85 H112 0.930 . S
C86 C84 1.352 . S
C86 C88 1.374 . S
C86 H113 0.931 . S
C87 C88 1.359 . S
C87 C89 1.364 . S
C88 C86 1.374 . S
C88 C87 1.359 . S
C88 H114 0.931 . S
C89 C85 1.389 . S
C89 C87 1.364 . S
C89 H115 0.931 . S
C90 O104 1.256 . S
C90 O105 1.257 . S
C91 O106 1.240 . S
C91 O107 1.240 . S
C92 Gd81 2.818 . S
C92 C93 1.510 . S
C92 O108 1.249 . S
C92 O109 1.252 . S
C93 C92 1.510 . S
C93 C94 1.404 . S
C93 C95 1.352 . S
C94 C93 1.404 . S
C94 C98 1.389 1_554 S
C94 H116 0.930 . S
C95 C93 1.352 . S
C95 C97 1.374 1_554 S
C95 H117 0.931 . S
C96 C97 1.359 . S
C96 C98 1.364 . S
C97 C95 1.374 1_556 S
C97 C96 1.359 . S
C97 H118 0.931 . S
C98 C94 1.389 1_556 S
C98 C96 1.364 . S
C98 H119 0.931 . S
C99 O110 1.259 . S
C99 O111 1.256 1_565 S
O100 Gd80 2.377 . S
O100 C82 1.240 1_545 S
O101 Gd81 2.395 . S
O101 C82 1.240 . S
O102 Gd80 2.448 . S
O102 C83 1.249 . S
O103 Gd80 2.506 . S
O103 C83 1.252 . S
O104 Gd80 2.435 . S
O104 C90 1.256 . S
O105 Gd80 2.717 . S
O105 Gd81 2.327 1_545 S
O105 C90 1.257 . S
O106 Gd81 2.377 1_545 S
O106 C91 1.240 . S
O107 Gd80 2.395 . S
O107 C91 1.240 . S
O108 Gd81 2.448 . S
O108 C92 1.249 . S
O109 Gd81 2.506 . S
O109 C92 1.252 . S
O110 Gd81 2.435 . S
O110 C99 1.259 . S
O111 Gd80 2.327 . S
O111 Gd81 2.717 1_545 S
O111 C99 1.256 1_545 S
H112 C85 0.930 . S
H113 C86 0.931 . S
H114 C88 0.931 . S
H115 C89 0.931 . S
H116 C94 0.930 . S
H117 C95 0.931 . S
H118 C97 0.931 . S
H119 C98 0.931 . S
Gd120 C123 2.818 . S
Gd120 O140 2.377 1_655 S
Gd120 O142 2.448 . S
Gd120 O143 2.506 . S
Gd120 O144 2.435 . S
Gd120 O145 2.717 1_655 S
Gd120 O147 2.395 . S
Gd120 O151 2.327 1_655 S
Gd121 C132 2.818 . S
Gd121 O141 2.395 . S
Gd121 O145 2.327 . S
Gd121 O146 2.377 . S
Gd121 O148 2.448 . S
Gd121 O149 2.506 . S
Gd121 O150 2.435 . S
Gd121 O151 2.717 . S
C122 O140 1.240 . S
C122 O141 1.240 . S
C123 Gd120 2.818 . S
C123 C124 1.510 . S
C123 O142 1.249 . S
C123 O143 1.252 . S
C124 C123 1.510 . S
C124 C125 1.404 . S
C124 C126 1.352 . S
C125 C124 1.404 . S
C125 C129 1.389 . S
C125 H152 0.930 . S
C126 C124 1.352 . S
C126 C128 1.374 . S
C126 H153 0.931 . S
C127 C128 1.359 . S
C127 C129 1.364 . S
C128 C126 1.374 . S
C128 C127 1.359 . S
C128 H154 0.931 . S
C129 C125 1.389 . S
C129 C127 1.364 . S
C129 H155 0.931 . S
C130 O144 1.256 1_455 S
C130 O145 1.257 . S
C131 O146 1.240 1_655 S
C131 O147 1.240 . S
C132 Gd121 2.818 . S
C132 C133 1.510 . S
C132 O148 1.249 . S
C132 O149 1.252 . S
C133 C132 1.510 . S
C133 C134 1.404 . S
C133 C135 1.352 . S
C134 C133 1.404 . S
C134 C138 1.389 . S
C134 H156 0.930 . S
C135 C133 1.352 . S
C135 C137 1.374 . S
C135 H157 0.931 . S
C136 C137 1.359 . S
C136 C138 1.364 . S
C137 C135 1.374 . S
C137 C136 1.359 . S
C137 H158 0.931 . S
C138 C134 1.389 . S
C138 C136 1.364 . S
C138 H159 0.931 . S
C139 O150 1.256 . S
C139 O151 1.257 . S
O140 Gd120 2.377 1_455 S
O140 C122 1.240 . S
O141 Gd121 2.395 . S
O141 C122 1.240 . S
O142 Gd120 2.448 . S
O142 C123 1.249 . S
O143 Gd120 2.506 . S
O143 C123 1.252 . S
O144 Gd120 2.435 . S
O144 C130 1.256 1_655 S
O145 Gd120 2.717 1_455 S
O145 Gd121 2.327 . S
O145 C130 1.257 . S
O146 Gd121 2.377 . S
O146 C131 1.240 1_455 S
O147 Gd120 2.395 . S
O147 C131 1.240 . S
O148 Gd121 2.448 . S
O148 C132 1.249 . S
O149 Gd121 2.506 . S
O149 C132 1.252 . S
O150 Gd121 2.435 . S
O150 C139 1.256 . S
O151 Gd120 2.327 1_455 S
O151 Gd121 2.717 . S
O151 C139 1.257 . S
H152 C125 0.930 . S
H153 C126 0.931 . S
H154 C128 0.931 . S
H155 C129 0.931 . S
H156 C134 0.930 . S
H157 C135 0.931 . S
H158 C137 0.931 . S
H159 C138 0.931 . S
H160 C172 0.930 . S
H161 C174 0.930 . S
H162 C175 0.930 . S
H163 C179 0.959 1_545 S
H164 C179 0.959 . S
H165 C179 0.961 . S
H166 C180 0.960 . S
H167 C180 0.961 . S
H168 C180 0.959 . S
H169 C183 0.929 . S
H170 C184 0.931 . S
H171 C186 0.930 . S
C172 H160 0.930 . S
C172 C173 1.399 1_565 S
C172 C177 1.399 1_665 S
C173 C172 1.399 1_545 S
C173 C174 1.376 . S
C174 H161 0.930 . S
C174 C173 1.376 . S
C174 C175 1.388 . S
C175 H162 0.930 . S
C175 C174 1.388 . S
C175 C176 1.397 . S
C176 C175 1.397 . S
C176 C177 1.393 1_655 S
C176 C182 1.459 1_655 S
C177 C172 1.399 1_445 S
C177 C176 1.393 1_455 S
C177 C178 1.516 1_545 S
C178 C177 1.516 1_565 S
C178 C179 1.502 . S
C178 C180 1.561 . S
C178 C181 1.526 1_565 S
C179 H163 0.959 1_565 S
C179 H164 0.959 . S
C179 H165 0.961 . S
C179 C178 1.502 . S
C180 H166 0.960 . S
C180 H167 0.961 . S
C180 H168 0.959 . S
C180 C178 1.561 . S
C181 C178 1.526 1_545 S
C181 C182 1.396 . S
C181 C186 1.390 . S
C182 C176 1.459 1_455 S
C182 C181 1.396 . S
C182 C183 1.399 . S
C183 H169 0.929 . S
C183 C182 1.399 . S
C183 C184 1.385 . S
C184 H170 0.931 . S
C184 C183 1.385 . S
C184 C185 1.389 . S
C185 C184 1.389 . S
C185 C186 1.387 . S
C186 H171 0.930 . S
C186 C181 1.390 . S
C186 C185 1.387 . S
H187 C199 0.930 . S
H188 C201 0.930 . S
H189 C202 0.930 . S
H190 C206 0.951 1_655 S
H191 C206 0.958 . S
H192 C206 0.960 . S
H193 C207 0.960 . S
H194 C207 0.961 1_545 S
H195 C207 0.959 1_545 S
H196 C210 0.929 . S
H197 C211 0.931 . S
H198 C213 0.930 . S
C199 H187 0.930 . S
C199 C200 1.399 . S
C199 C204 1.399 1_565 S
C200 C199 1.399 . S
C200 C201 1.376 1_565 S
C201 H188 0.930 . S
C201 C200 1.376 1_545 S
C201 C202 1.388 . S
C202 H189 0.930 . S
C202 C201 1.388 . S
C202 C203 1.390 . S
C203 C202 1.390 . S
C203 C204 1.394 . S
C203 C209 1.465 . S
C204 C199 1.399 1_545 S
C204 C203 1.394 . S
C204 C205 1.516 . S
C205 C204 1.516 . S
C205 C206 1.510 1_545 S
C205 C207 1.561 1_545 S
C205 C208 1.526 . S
C206 H190 0.951 1_455 S
C206 H191 0.958 . S
C206 H192 0.960 . S
C206 C205 1.510 1_565 S
C207 H193 0.960 . S
C207 H194 0.961 1_565 S
C207 H195 0.959 1_565 S
C207 C205 1.561 1_565 S
C208 C205 1.526 . S
C208 C209 1.396 . S
C208 C213 1.390 . S
C209 C203 1.465 . S
C209 C208 1.396 . S
C209 C210 1.399 . S
C210 H196 0.929 . S
C210 C209 1.399 . S
C210 C211 1.385 . S
C211 H197 0.931 . S
C211 C210 1.385 . S
C211 C212 1.389 . S
C212 C211 1.389 . S
C212 C213 1.387 . S
C213 H198 0.930 . S
C213 C208 1.390 . S
C213 C212 1.387 . S
H214 C226 0.930 1_565 S
H215 C228 0.930 . S
H216 C229 0.930 . S
H217 C233 0.959 . S
H218 C233 0.959 . S
H219 C233 0.961 . S
H220 C234 0.960 . S
H221 C234 0.961 . S
H222 C234 0.959 . S
H223 C237 0.929 . S
H224 C238 0.931 . S
H225 C240 0.930 . S
C226 H214 0.930 1_545 S
C226 C227 1.399 . S
C226 C231 1.399 . S
C227 C226 1.399 . S
C227 C228 1.376 . S
C228 H215 0.930 . S
C228 C227 1.376 . S
C228 C229 1.388 . S
C229 H216 0.930 . S
C229 C228 1.388 . S
C229 C230 1.390 . S
C230 C229 1.390 . S
C230 C231 1.394 . S
C230 C236 1.465 . S
C231 C226 1.399 . S
C231 C230 1.394 . S
C231 C232 1.516 . S
C232 C231 1.516 . S
C232 C233 1.502 1_545 S
C232 C234 1.561 . S
C232 C235 1.526 . S
C233 H217 0.959 . S
C233 H218 0.959 . S
C233 H219 0.961 . S
C233 C232 1.502 1_565 S
C234 H220 0.960 . S
C234 H221 0.961 . S
C234 H222 0.959 . S
C234 C232 1.561 . S
C235 C232 1.526 . S
C235 C236 1.396 . S
C235 C240 1.390 . S
C236 C230 1.465 . S
C236 C235 1.396 . S
C236 C237 1.399 . S
C237 H223 0.929 . S
C237 C236 1.399 . S
C237 C238 1.385 . S
C238 H224 0.931 . S
C238 C237 1.385 . S
C238 C239 1.389 . S
C239 C238 1.389 . S
C239 C240 1.387 . S
C240 H225 0.930 . S
C240 C235 1.390 . S
C240 C239 1.387 . S
H241 C253 0.930 . S
H242 C255 0.930 . S
H243 C256 0.930 . S
H244 C260 0.959 . S
H245 C260 0.959 . S
H246 C260 0.961 . S
H247 C261 0.960 . S
H248 C261 0.961 . S
H249 C261 0.959 . S
H250 C264 0.929 . S
H251 C265 0.931 . S
H252 C267 0.930 . S
C253 H241 0.930 . S
C253 C254 1.399 . S
C253 C258 1.399 . S
C254 C253 1.399 . S
C254 C255 1.376 1_455 S
C255 H242 0.930 . S
C255 C254 1.376 1_655 S
C255 C256 1.388 . S
C256 H243 0.930 . S
C256 C255 1.388 . S
C256 C257 1.390 1_655 S
C257 C256 1.390 1_455 S
C257 C258 1.394 . S
C257 C263 1.465 . S
C258 C253 1.399 . S
C258 C257 1.394 . S
C258 C259 1.516 . S
C259 C258 1.516 . S
C259 C260 1.502 . S
C259 C261 1.561 . S
C259 C262 1.526 . S
C260 H244 0.959 . S
C260 H245 0.959 . S
C260 H246 0.961 . S
C260 C259 1.502 . S
C261 H247 0.960 . S
C261 H248 0.961 . S
C261 H249 0.959 . S
C261 C259 1.561 . S
C262 C259 1.526 . S
C262 C263 1.396 . S
C262 C267 1.390 . S
C263 C257 1.465 . S
C263 C262 1.396 . S
C263 C264 1.399 1_455 S
C264 H250 0.929 . S
C264 C263 1.399 1_655 S
C264 C265 1.385 . S
C265 H251 0.931 . S
C265 C264 1.385 . S
C265 C266 1.389 1_655 S
C266 C265 1.389 1_455 S
C266 C267 1.387 . S
C267 H252 0.930 . S
C267 C262 1.390 . S
C267 C266 1.387 . S
H268 C280 0.930 . S
H269 C282 0.930 . S
H270 C283 0.930 . S
H271 C287 0.959 . S
H272 C287 0.959 . S
H273 C287 0.961 . S
H274 C288 0.960 . S
H275 C288 0.961 . S
H276 C288 0.959 . S
H277 C291 0.929 . S
H278 C292 0.931 . S
H279 C294 0.930 . S
C280 H268 0.930 . S
C280 C281 1.399 . S
C280 C285 1.399 . S
C281 C280 1.399 . S
C281 C282 1.376 . S
C282 H269 0.930 . S
C282 C281 1.376 . S
C282 C283 1.388 . S
C283 H270 0.930 . S
C283 C282 1.388 . S
C283 C284 1.390 . S
C284 C283 1.390 . S
C284 C285 1.394 . S
C284 C290 1.465 . S
C285 C280 1.399 . S
C285 C284 1.394 . S
C285 C286 1.516 . S
C286 C285 1.516 . S
C286 C287 1.502 . S
C286 C288 1.561 . S
C286 C289 1.526 . S
C287 H271 0.959 . S
C287 H272 0.959 . S
C287 H273 0.961 . S
C287 C286 1.502 . S
C288 H274 0.960 . S
C288 H275 0.961 . S
C288 H276 0.959 . S
C288 C286 1.561 . S
C289 C286 1.526 . S
C289 C290 1.396 . S
C289 C294 1.390 . S
C290 C284 1.465 . S
C290 C289 1.396 . S
C290 C291 1.399 . S
C291 H277 0.929 . S
C291 C290 1.399 . S
C291 C292 1.385 . S
C292 H278 0.931 . S
C292 C291 1.385 . S
C292 C293 1.389 . S
C293 C292 1.389 . S
C293 C294 1.387 . S
C294 H279 0.930 . S
C294 C289 1.390 . S
C294 C293 1.387 . S
H295 C307 0.930 . S
H296 C309 0.930 . S
H297 C310 0.930 . S
H298 C314 0.959 . S
H299 C314 0.959 1_554 S
H300 C314 0.961 . S
H301 C315 0.960 . S
H302 C315 0.961 . S
H303 C315 0.959 . S
H304 C318 0.929 . S
H305 C319 0.931 . S
H306 C321 0.930 . S
C307 H295 0.930 . S
C307 C308 1.399 . S
C307 C312 1.399 . S
C308 C307 1.399 . S
C308 C309 1.376 . S
C309 H296 0.930 . S
C309 C308 1.376 . S
C309 C310 1.388 . S
C310 H297 0.930 . S
C310 C309 1.388 . S
C310 C311 1.390 . S
C311 C310 1.390 . S
C311 C312 1.394 . S
C311 C317 1.465 . S
C312 C307 1.399 . S
C312 C311 1.394 . S
C312 C313 1.516 . S
C313 C312 1.516 . S
C313 C314 1.502 . S
C313 C315 1.561 . S
C313 C316 1.526 . S
C314 H298 0.959 . S
C314 H299 0.959 1_556 S
C314 H300 0.961 . S
C314 C313 1.502 . S
C315 H301 0.960 . S
C315 H302 0.961 . S
C315 H303 0.959 . S
C315 C313 1.561 . S
C316 C313 1.526 . S
C316 C317 1.396 . S
C316 C321 1.390 1_556 S
C317 C311 1.465 . S
C317 C316 1.396 . S
C317 C318 1.399 . S
C318 H304 0.929 . S
C318 C317 1.399 . S
C318 C319 1.385 1_556 S
C319 H305 0.931 . S
C319 C318 1.385 1_554 S
C319 C320 1.389 . S
C320 C319 1.389 . S
C320 C321 1.387 . S
C321 H306 0.930 . S
C321 C316 1.390 1_554 S
C321 C320 1.387 . S
H322 C334 0.930 . S
H323 C336 0.930 . S
H324 C337 0.930 . S
H325 C341 0.959 . S
H326 C341 0.972 . S
H327 C341 0.961 . S
H328 C342 0.960 . S
H329 C342 0.961 . S
H330 C342 0.959 1_565 S
H331 C345 0.929 . S
H332 C346 0.931 . S
H333 C348 0.930 . S
C334 H322 0.930 . S
C334 C335 1.399 . S
C334 C339 1.399 . S
C335 C334 1.399 . S
C335 C336 1.376 . S
C336 H323 0.930 . S
C336 C335 1.376 . S
C336 C337 1.388 . S
C337 H324 0.930 . S
C337 C336 1.388 . S
C337 C338 1.390 . S
C338 C337 1.390 . S
C338 C339 1.394 . S
C338 C344 1.465 . S
C339 C334 1.399 . S
C339 C338 1.394 . S
C339 C340 1.516 . S
C340 C339 1.516 . S
C340 C341 1.502 . S
C340 C342 1.561 1_565 S
C340 C343 1.526 . S
C341 H325 0.959 . S
C341 H326 0.972 . S
C341 H327 0.961 . S
C341 C340 1.502 . S
C342 H328 0.960 . S
C342 H329 0.961 . S
C342 H330 0.959 1_545 S
C342 C340 1.561 1_545 S
C343 C340 1.526 . S
C343 C344 1.396 . S
C343 C348 1.390 . S
C344 C338 1.465 . S
C344 C343 1.396 . S
C344 C345 1.399 . S
C345 H331 0.929 . S
C345 C344 1.399 . S
C345 C346 1.385 . S
C346 H332 0.931 . S
C346 C345 1.385 . S
C346 C347 1.389 . S
C347 C346 1.389 . S
C347 C348 1.387 . S
C348 H333 0.930 . S
C348 C343 1.390 . S
C348 C347 1.387 . S
H349 C361 0.930 . S
H350 C363 0.930 . S
H351 C364 0.930 . S
H352 C368 0.959 . S
H353 C368 0.959 . S
H354 C368 0.961 . S
H355 C369 0.960 . S
H356 C369 0.961 . S
H357 C369 0.959 . S
H358 C372 0.929 . S
H359 C373 0.931 1_545 S
H360 C375 0.930 . S
C361 H349 0.930 . S
C361 C362 1.399 . S
C361 C366 1.399 . S
C362 C361 1.399 . S
C362 C363 1.376 . S
C363 H350 0.930 . S
C363 C362 1.376 . S
C363 C364 1.388 . S
C364 H351 0.930 . S
C364 C363 1.388 . S
C364 C365 1.390 . S
C365 C364 1.390 . S
C365 C366 1.394 . S
C365 C371 1.465 . S
C366 C361 1.399 . S
C366 C365 1.394 . S
C366 C367 1.516 . S
C367 C366 1.516 . S
C367 C368 1.502 . S
C367 C369 1.561 . S
C367 C370 1.526 . S
C368 H352 0.959 . S
C368 H353 0.959 . S
C368 H354 0.961 . S
C368 C367 1.502 . S
C369 H355 0.960 . S
C369 H356 0.961 . S
C369 H357 0.959 . S
C369 C367 1.561 . S
C370 C367 1.526 . S
C370 C371 1.396 . S
C370 C375 1.390 . S
C371 C365 1.465 . S
C371 C370 1.396 . S
C371 C372 1.399 . S
C372 H358 0.929 . S
C372 C371 1.399 . S
C372 C373 1.385 . S
C373 H359 0.931 1_565 S
C373 C372 1.385 . S
C373 C374 1.389 . S
C374 C373 1.389 . S
C374 C375 1.387 . S
C375 H360 0.930 . S
C375 C370 1.390 . S
C375 C374 1.387 . S
H376 C388 0.930 . S
H377 C390 0.930 . S
H378 C391 0.930 . S
H379 C395 0.959 . S
H380 C395 0.959 . S
H381 C395 0.961 . S
H382 C396 0.960 . S
H383 C396 0.961 . S
H384 C396 0.959 . S
H385 C399 0.929 . S
H386 C400 0.931 . S
H387 C402 0.930 . S
C388 H376 0.930 . S
C388 C389 1.399 . S
C388 C393 1.399 . S
C389 C388 1.399 . S
C389 C390 1.376 . S
C390 H377 0.930 . S
C390 C389 1.376 . S
C390 C391 1.388 . S
C391 H378 0.930 . S
C391 C390 1.388 . S
C391 C392 1.390 . S
C392 C391 1.390 . S
C392 C393 1.394 . S
C392 C398 1.465 . S
C393 C388 1.399 . S
C393 C392 1.394 . S
C393 C394 1.516 . S
C394 C393 1.516 . S
C394 C395 1.502 . S
C394 C396 1.561 . S
C394 C397 1.526 . S
C395 H379 0.959 . S
C395 H380 0.959 . S
C395 H381 0.961 . S
C395 C394 1.502 . S
C396 H382 0.960 . S
C396 H383 0.961 . S
C396 H384 0.959 . S
C396 C394 1.561 . S
C397 C394 1.526 . S
C397 C398 1.396 . S
C397 C402 1.390 . S
C398 C392 1.465 . S
C398 C397 1.396 . S
C398 C399 1.399 . S
C399 H385 0.929 . S
C399 C398 1.399 . S
C399 C400 1.385 . S
C400 H386 0.931 . S
C400 C399 1.385 . S
C400 C401 1.389 . S
C401 C400 1.389 . S
C401 C402 1.387 . S
C402 H387 0.930 . S
C402 C397 1.390 . S
C402 C401 1.387 . S
H403 C415 0.930 . S
H404 C417 0.930 . S
H405 C418 0.930 . S
H406 C422 0.959 . S
H407 C422 0.959 . S
H408 C422 0.961 . S
H409 C423 0.960 . S
H410 C423 0.961 . S
H411 C423 0.959 . S
H412 C426 0.929 . S
H413 C427 0.931 . S
H414 C429 0.930 . S
C415 H403 0.930 . S
C415 C416 1.399 . S
C415 C420 1.399 1_545 S
C416 C415 1.399 . S
C416 C417 1.376 1_545 S
C417 H404 0.930 . S
C417 C416 1.376 1_565 S
C417 C418 1.388 . S
C418 H405 0.930 . S
C418 C417 1.388 . S
C418 C419 1.390 . S
C419 C418 1.390 . S
C419 C420 1.394 . S
C419 C425 1.465 . S
C420 C415 1.399 1_565 S
C420 C419 1.394 . S
C420 C421 1.516 . S
C421 C420 1.516 . S
C421 C422 1.502 1_565 S
C421 C423 1.561 . S
C421 C424 1.526 . S
C422 H406 0.959 . S
C422 H407 0.959 . S
C422 H408 0.961 . S
C422 C421 1.502 1_545 S
C423 H409 0.960 . S
C423 H410 0.961 . S
C423 H411 0.959 . S
C423 C421 1.561 . S
C424 C421 1.526 . S
C424 C425 1.396 . S
C424 C429 1.390 . S
C425 C419 1.465 . S
C425 C424 1.396 . S
C425 C426 1.399 . S
C426 H412 0.929 . S
C426 C425 1.399 . S
C426 C427 1.385 . S
C427 H413 0.931 . S
C427 C426 1.385 . S
C427 C428 1.389 . S
C428 C427 1.389 . S
C428 C429 1.387 . S
C429 H414 0.930 . S
C429 C424 1.390 . S
C429 C428 1.387 . S
H430 C442 0.930 . S
H431 C444 0.930 . S
H432 C445 0.930 . S
H433 C449 0.959 . S
H434 C449 0.959 . S
H435 C449 0.961 . S
H436 C450 0.960 . S
H437 C450 0.961 . S
H438 C450 0.959 . S
H439 C453 0.929 . S
H440 C454 0.931 . S
H441 C456 0.930 . S
C442 H430 0.930 . S
C442 C443 1.399 . S
C442 C447 1.399 . S
C443 C442 1.399 . S
C443 C444 1.376 . S
C444 H431 0.930 . S
C444 C443 1.376 . S
C444 C445 1.388 . S
C445 H432 0.930 . S
C445 C444 1.388 . S
C445 C446 1.390 . S
C446 C445 1.390 . S
C446 C447 1.394 . S
C446 C452 1.465 . S
C447 C442 1.399 . S
C447 C446 1.394 . S
C447 C448 1.516 . S
C448 C447 1.516 . S
C448 C449 1.502 . S
C448 C450 1.561 . S
C448 C451 1.526 . S
C449 H433 0.959 . S
C449 H434 0.959 . S
C449 H435 0.961 . S
C449 C448 1.502 . S
C450 H436 0.960 . S
C450 H437 0.961 . S
C450 H438 0.959 . S
C450 C448 1.561 . S
C451 C448 1.526 . S
C451 C452 1.396 . S
C451 C456 1.390 . S
C452 C446 1.465 . S
C452 C451 1.396 . S
C452 C453 1.399 . S
C453 H439 0.929 . S
C453 C452 1.399 . S
C453 C454 1.385 . S
C454 H440 0.931 . S
C454 C453 1.385 . S
C454 C455 1.389 . S
C455 C454 1.389 . S
C455 C456 1.387 . S
C456 H441 0.930 . S
C456 C451 1.390 . S
C456 C455 1.387 . S
H457 C469 0.930 . S
H458 C471 0.930 . S
H459 C472 0.930 . S
H460 C476 0.959 . S
H461 C476 0.959 . S
H462 C476 0.961 . S
H463 C477 0.960 . S
H464 C477 0.961 . S
H465 C477 0.959 . S
H466 C480 0.929 . S
H467 C481 0.931 . S
H468 C483 0.930 . S
C469 H457 0.930 . S
C469 C470 1.399 . S
C469 C474 1.399 . S
C470 C469 1.399 . S
C470 C471 1.376 . S
C471 H458 0.930 . S
C471 C470 1.376 . S
C471 C472 1.388 . S
C472 H459 0.930 . S
C472 C471 1.388 . S
C472 C473 1.390 . S
C473 C472 1.390 . S
C473 C474 1.394 . S
C473 C479 1.465 . S
C474 C469 1.399 . S
C474 C473 1.394 . S
C474 C475 1.516 . S
C475 C474 1.516 . S
C475 C476 1.502 . S
C475 C477 1.561 . S
C475 C478 1.526 . S
C476 H460 0.959 . S
C476 H461 0.959 . S
C476 H462 0.961 . S
C476 C475 1.502 . S
C477 H463 0.960 . S
C477 H464 0.961 . S
C477 H465 0.959 . S
C477 C475 1.561 . S
C478 C475 1.526 . S
C478 C479 1.396 . S
C478 C483 1.390 . S
C479 C473 1.465 . S
C479 C478 1.396 . S
C479 C480 1.399 . S
C480 H466 0.929 . S
C480 C479 1.399 . S
C480 C481 1.385 . S
C481 H467 0.931 . S
C481 C480 1.385 . S
C481 C482 1.389 . S
C482 C481 1.389 . S
C482 C483 1.387 . S
C483 H468 0.930 . S
C483 C478 1.390 . S
C483 C482 1.387 . S
C173 C90 0.405 . S
C185 C19 0.659 . S
C200 C130 0.829 . S
C212 C59 0.546 . S
C227 C99 1.094 1_545 S
C239 C10 1.143 . S
C254 C50 1.027 . S
C266 C139 1.084 . S
C281 C56 1.034 . S
C293 C7 1.056 . S
C308 C47 1.693 . S
C320 C91 1.729 . S
C335 C131 2.140 . S
C347 C82 2.081 . S
C362 C122 1.306 . S
C374 C16 1.349 . S
C389 C96 1.011 . S
C401 C127 1.068 . S
C416 C2 1.737 . S
C428 C136 1.726 . S
C443 C42 2.134 . S
C455 C11 2.064 1_556 S
C470 C87 1.346 . S
C482 C51 1.289 . S
