# Generated by pormake.
# Topology snp, (6)-cn, num edge types: 1
# Building blocks:
#     Node 0, Type 0, BuildingBlock: CUWYAW_clean_sbu_0, # of connection points: 6
#     Node 1, Type 0, BuildingBlock: CUWYAW_clean_sbu_0, # of connection points: 6
#     Node 2, Type 0, BuildingBlock: CUWYAW_clean_sbu_0, # of connection points: 6
#     Node 3, Type 0, BuildingBlock: CUWYAW_clean_sbu_0, # of connection points: 6
#     Edge 4, Type (0, 0), BuildingBlock: ZUJKAS_clean_linker_0, # of connection points: 2
#     Edge 5, Type (0, 0), BuildingBlock: ZUJKAS_clean_linker_0, # of connection points: 2
#     Edge 6, Type (0, 0), BuildingBlock: ZUJKAS_clean_linker_0, # of connection points: 2
#     Edge 7, Type (0, 0), BuildingBlock: ZUJKAS_clean_linker_0, # of connection points: 2
#     Edge 8, Type (0, 0), BuildingBlock: ZUJKAS_clean_linker_0, # of connection points: 2
#     Edge 9, Type (0, 0), BuildingBlock: ZUJKAS_clean_linker_0, # of connection points: 2
#     Edge 10, Type (0, 0), BuildingBlock: ZUJKAS_clean_linker_0, # of connection points: 2
#     Edge 11, Type (0, 0), BuildingBlock: ZUJKAS_clean_linker_0, # of connection points: 2
#     Edge 12, Type (0, 0), BuildingBlock: ZUJKAS_clean_linker_0, # of connection points: 2
#     Edge 13, Type (0, 0), BuildingBlock: ZUJKAS_clean_linker_0, # of connection points: 2
#     Edge 14, Type (0, 0), BuildingBlock: ZUJKAS_clean_linker_0, # of connection points: 2
#     Edge 15, Type (0, 0), BuildingBlock: ZUJKAS_clean_linker_0, # of connection points: 2
# Relax obj value: 0.295
# Max RMSD: 0.215
# Mean RMSD: 0.201
data_MOF--net-snp--node1-CUWYAW_clean_sbu_0--edge1-ZUJKAS_clean_linker_0
_symmetry_space_group_name_H-M    P1
_symmetry_Int_Tables_number       1
_symmetry_cell_setting            triclinic
loop_
_symmetry_equiv_pos_as_xyz
'x, y, z'
_cell_length_a     31.730004
_cell_length_b     31.460681
_cell_length_c     42.559863
_cell_angle_alpha  93.24153
_cell_angle_beta   81.807371
_cell_angle_gamma 121.8298
loop_
_atom_site_label
_atom_site_type_symbol
_atom_site_fract_x
_atom_site_fract_y
_atom_site_fract_z
_atom_type_partial_charge
C0 C 0.25982 0.94526 0.14267 0.0
Eu1 Eu 0.27469 0.0282 0.16814 0.0
C2 C 0.25808 0.92776 0.11013 0.0
C3 C 0.24222 0.94567 0.08786 0.0
C4 C 0.24662 0.93419 0.05602 0.0
C5 C 0.26718 0.90485 0.04595 0.0
C6 C 0.28125 0.88532 0.06846 0.0
C7 C 0.27687 0.89692 0.10044 0.0
C8 C 0.20872 0.04372 0.20479 0.0
C9 C 0.28103 0.10757 0.11643 0.0
C10 C 0.34941 0.22119 0.21016 0.0
Eu11 Eu 0.3189 0.13449 0.18444 0.0
C12 C 0.34606 0.23646 0.24305 0.0
C13 C 0.38489 0.28218 0.25259 0.0
C14 C 0.38497 0.29445 0.28462 0.0
C15 C 0.34629 0.26091 0.30749 0.0
C16 C 0.30686 0.21556 0.29768 0.0
C17 C 0.30676 0.20341 0.26569 0.0
C18 C 0.3846 0.10986 0.15401 0.0
C19 C 0.28991 0.05304 0.2407 0.0
O20 O 0.30385 0.982 0.1485 0.0
O21 O 0.22348 0.95196 0.15473 0.0
O22 O 0.20874 0.00256 0.20505 0.0
O23 O 0.23991 0.07346 0.18239 0.0
O24 O 0.27478 0.06308 0.12148 0.0
O25 O 0.29494 0.14146 0.1387 0.0
O26 O 0.30725 0.19566 0.19814 0.0
O27 O 0.37761 0.20227 0.20362 0.0
O28 O 0.38389 0.14876 0.14641 0.0
O29 O 0.35069 0.0861 0.17653 0.0
O30 O 0.29768 0.09723 0.23351 0.0
O31 O 0.28801 0.02175 0.21804 0.0
H32 H 0.22768 0.96963 0.09492 0.0
H33 H 0.23476 0.94902 1.03916 0.0
H34 H 0.29742 0.86283 0.06117 0.0
H35 H 0.28964 0.88324 0.11741 0.0
H36 H 0.41578 0.30774 0.23538 0.0
H37 H 0.41597 0.32949 0.29159 0.0
H38 H 0.2762 0.18938 0.31475 0.0
H39 H 0.27653 0.16774 0.25877 0.0
C40 C 0.15615 0.289 0.73513 0.0
Eu41 Eu 0.14265 0.31172 0.68055 0.0
C42 C 0.16372 0.27573 0.7665 0.0
C43 C 0.20658 0.30874 0.781 0.0
C44 C 0.21569 0.29478 0.80904 0.0
C45 C 0.18238 0.24712 0.82363 0.0
C46 C 0.13921 0.21432 0.80916 0.0
C47 C 0.13008 0.22837 0.78116 0.0
C48 C 0.16337 0.39947 0.65441 0.0
C49 C 0.0317 0.29649 0.6743 0.0
C50 C 0.09741 0.30164 0.55236 0.0
Eu51 Eu 0.10445 0.30033 0.61315 0.0
C52 C 0.07219 0.27718 0.52349 0.0
C53 C 0.0682 0.23266 0.51148 0.0
C54 C 0.05154 0.21447 0.48179 0.0
C55 C 0.03866 0.24034 0.46283 0.0
C56 C 0.04177 0.28434 0.47535 0.0
C57 C 0.0582 0.30233 0.50506 0.0
C58 C 0.07552 0.21487 0.64521 0.0
C59 C 0.21666 0.33406 0.61823 0.0
O60 O 0.11548 0.26047 0.7218 0.0
O61 O 0.18835 0.33117 0.71951 0.0
O62 O 0.18911 0.3968 0.67471 0.0
O63 O 0.12603 0.35641 0.65149 0.0
O64 O 0.06375 0.29801 0.6923 0.0
O65 O 0.0399 0.30021 0.64284 0.0
O66 O 0.12148 0.28426 0.56416 0.0
O67 O 0.0779 0.31991 0.5742 0.0
O68 O 0.0491 0.21887 0.62635 0.0
O69 O 0.11766 0.25479 0.64381 0.0
O70 O 0.18874 0.34715 0.60656 0.0
O71 O 0.20119 0.30879 0.64536 0.0
H72 H 0.23375 0.3453 0.77036 0.0
H73 H 0.24973 0.32115 0.81881 0.0
H74 H 0.11205 0.1776 0.81954 0.0
H75 H 0.09685 0.20163 0.7707 0.0
H76 H 0.07907 0.21231 0.52468 0.0
H77 H 0.04908 0.18009 0.4737 0.0
H78 H 0.03325 0.30625 0.46173 0.0
H79 H 0.0617 0.3372 0.51313 0.0
C80 C 0.93328 0.17914 0.04014 0.0
Eu81 Eu 0.91032 0.09747 0.0682 0.0
C82 C 0.91456 0.1861 1.0125 0.0
C83 C 0.94824 0.21967 0.98807 0.0
C84 C 0.93149 0.22183 0.95995 0.0
C85 C 0.88065 0.19058 0.95593 0.0
C86 C 0.84677 0.15805 0.98092 0.0
C87 C 0.8636 0.15557 1.00886 0.0
C88 C 0.96546 0.06302 0.08574 0.0
C89 C 0.88293 0.00632 1.01699 0.0
C90 C 0.80158 0.90288 0.12196 0.0
Eu91 Eu 0.84711 0.98943 0.09205 0.0
C92 C 0.80416 0.88781 0.15326 0.0
C93 C 0.77247 0.83837 0.16467 0.0
C94 C 0.77423 0.82547 0.19525 0.0
C95 C 0.80757 0.86209 0.21466 0.0
C96 C 0.83949 0.91124 0.20274 0.0
C97 C 0.8376 0.92381 0.17248 0.0
C98 C 0.79497 0.02928 0.07536 0.0
C99 C 0.89891 0.08147 0.14328 0.0
O100 O 0.90055 0.1604 0.06572 0.0
O101 O 0.96036 0.15872 1.03427 0.0
O102 O 0.97977 0.11018 0.08569 0.0
O103 O 0.92632 0.03821 0.0725 0.0
O104 O 0.89328 0.05282 1.02194 0.0
O105 O 0.86776 0.97461 0.04116 0.0
O106 O 0.84188 0.91912 0.1014 0.0
O107 O 0.783 0.93139 0.12249 0.0
O108 O 0.7854 0.9848 0.06782 0.0
O109 O 0.83193 0.05033 0.09059 0.0
O110 O 0.87679 0.03304 0.13707 0.0
O111 O 0.91258 0.11507 0.12056 0.0
H112 H 0.98775 0.24293 0.9903 0.0
H113 H 0.95878 0.24665 0.94094 0.0
H114 H 0.80735 0.13392 0.97873 0.0
H115 H 0.83686 0.12879 1.02726 0.0
H116 H 0.74614 0.81003 0.15016 0.0
H117 H 0.74891 0.78727 0.2039 0.0
H118 H 0.8662 0.94014 0.21677 0.0
H119 H 0.86268 0.96177 0.16408 0.0
C120 C 0.19721 0.95873 0.6542 0.0
Eu121 Eu 0.10781 0.90739 0.638 0.0
C122 C 0.21664 0.94991 0.68052 0.0
C123 C 0.26653 0.98191 0.68558 0.0
C124 C 0.28472 0.9712 0.71013 0.0
C125 C 0.25312 0.92822 0.72961 0.0
C126 C 0.20313 0.89642 0.72429 0.0
C127 C 0.18512 0.90712 0.6999 0.0
C128 C 0.05066 0.93574 0.61567 0.0
C129 C 0.02063 0.87266 0.69965 0.0
C130 C 0.91731 0.7597 0.61264 0.0
Eu131 Eu 0.00336 0.82281 0.63121 0.0
C132 C 0.89697 0.75867 0.58324 0.0
C133 C 0.91118 0.74144 0.55494 0.0
C134 C 0.89747 0.74639 0.52633 0.0
C135 C 0.86897 0.76836 0.52534 0.0
C136 C 0.85315 0.78396 0.55375 0.0
C137 C 0.86679 0.77889 0.58248 0.0
C138 C 0.0612 0.79357 0.65291 0.0
C139 C 0.08658 0.87658 0.56746 0.0
O140 O 0.18404 0.92393 0.63292 0.0
O141 O 0.16371 0.97107 0.66219 0.0
O142 O 0.09918 0.96147 0.60942 0.0
O143 O 0.03708 0.90297 0.63658 0.0
O144 O 0.06881 0.89094 0.68958 0.0
O145 O 0.98673 0.84786 0.68009 0.0
O146 O 0.92402 0.79567 0.63224 0.0
O147 O 0.95471 0.7525 0.6093 0.0
O148 O 0.0149 0.77699 0.66413 0.0
O149 O 0.07494 0.82554 0.63107 0.0
O150 O 0.03839 0.85111 0.57939 0.0
O151 O 0.12163 0.89619 0.58624 0.0
H152 H 0.29132 0.0148 0.67051 0.0
H153 H 0.32344 -0.00378 0.71375 0.0
H154 H 0.17761 0.86365 0.7393 0.0
H155 H 0.14657 0.88175 0.69602 0.0
H156 H 0.93432 0.72555 0.5546 0.0
H157 H 0.91071 0.73452 0.50479 0.0
H158 H 0.83059 0.80045 0.55373 0.0
H159 H 0.85496 0.79217 0.60393 0.0
H160 H 0.02759 0.1139 0.12962 0.0
H161 H 0.03 0.07968 0.17834 0.0
H162 H 0.93093 0.92988 0.14724 0.0
H163 H 0.93308 0.96486 0.09669 0.0
H164 H 0.95579 0.0346 0.22292 0.0
H165 H 0.0111 0.89583 0.18598 0.0
H166 H 0.01504 0.93697 0.15648 0.0
H167 H 0.95488 0.88742 0.17464 0.0
C168 C 0.00748 0.0736 0.13274 0.0
C169 C 0.97789 0.04179 0.11021 0.0
C170 C 0.00806 0.05392 0.16093 0.0
C171 C 0.97868 0.00206 0.16741 0.0
C172 C 0.95332 0.96996 0.14339 0.0
H173 H 0.16314 -0.00251 0.26174 0.0
H174 H 0.0805 0.97833 0.28565 0.0
C175 C 0.95373 0.98986 0.11468 0.0
C176 C 0.97604 0.98403 0.19955 0.0
H177 H 0.03199 0.93515 0.23363 0.0
C178 C 0.97121 0.0117 0.22551 0.0
C179 C 0.99201 0.95081 0.20428 0.0
C180 C -0.00643 0.9159 0.179 0.0
C181 C -0.0043 0.01844 0.25188 0.0
C182 C 0.02446 -0.00349 0.25168 0.0
C183 C 0.01351 0.95557 0.23187 0.0
C184 C 0.07825 0.02906 0.25478 0.0
C185 C -0.00012 0.05699 0.27587 0.0
C186 C 0.10709 0.06874 0.23221 0.0
C187 C 0.15388 0.07874 0.21774 0.0
C188 C 0.17224 0.05003 0.22654 0.0
C189 C 0.14847 0.01871 0.25379 0.0
C190 C 0.10161 0.00842 0.26804 0.0
H191 H 0.96373 0.05533 0.28131 0.0
H192 H 0.01108 0.05144 0.29813 0.0
H193 H 0.02862 0.09484 0.26587 0.0
H194 H 0.09022 0.08584 0.22174 0.0
H195 H 0.17223 0.10395 0.19726 0.0
H196 H 0.95755 0.87275 0.60147 0.0
H197 H 0.88925 0.88618 0.62126 0.0
H198 H -0.00262 0.0439 0.62736 0.0
H199 H 0.06526 0.02899 0.61159 0.0
H200 H 0.92036 0.92973 0.68597 0.0
H201 H 0.85455 0.02961 0.62652 0.0
H202 H 0.86298 0.981 0.60749 0.0
H203 H 0.91494 0.04485 0.60679 0.0
C204 C 0.96615 0.91033 0.60627 0.0
C205 C 0.01595 0.94921 0.6073 0.0
C206 C 0.92716 0.91809 0.61687 0.0
C207 C 0.93838 0.96565 0.62671 0.0
C208 C 0.98799 0.00662 0.62019 0.0
H209 H 0.09106 0.14116 0.65884 0.0
H210 H 0.02676 0.06323 0.68636 0.0
C211 C 0.02703 -0.0017 0.61106 0.0
C212 C 0.90678 0.97057 0.65374 0.0
H213 H 0.90321 0.07439 0.67189 0.0
C214 C 0.9141 0.96006 0.68353 0.0
C215 C 0.89421 0.00687 0.65174 0.0
C216 C 0.88052 0.01575 0.6214 0.0
C217 C 0.92742 -0.00366 0.70706 0.0
C218 C 0.93068 0.0414 0.70033 0.0
C219 C 0.90482 0.0416 0.67603 0.0
C220 C 0.97718 0.08983 0.7043 0.0
C221 C 0.94699 0.99056 0.73569 0.0
C222 C 0.97411 0.13256 0.70855 0.0
C223 C 0.01012 0.17637 0.6917 0.0
C224 C 0.0512 0.17911 0.67225 0.0
C225 C 0.05964 0.13995 0.67361 0.0
C226 C 0.02285 0.09542 0.68985 0.0
H227 H 0.919 0.95414 0.74783 0.0
H228 H 0.98171 0.99007 0.72811 0.0
H229 H 0.95492 0.02113 0.75277 0.0
H230 H 0.93973 0.12952 0.71981 0.0
H231 H 0.0022 0.20543 0.69102 0.0
H232 H 0.71347 0.99082 0.04371 0.0
H233 H 0.64526 0.00719 0.05315 0.0
H234 H 0.71831 0.11021 0.12653 0.0
H235 H 0.78761 0.09618 0.11581 0.0
H236 H 0.57962 0.98854 0.10143 0.0
H237 H 0.68543 0.19354 0.08275 0.0
H238 H 0.71394 0.15709 0.07258 0.0
H239 H 0.70837 0.17663 0.11284 0.0
C240 C 0.7154 0.01781 0.06133 0.0
C241 C 0.75612 0.04257 0.07876 0.0
C242 C 0.67625 0.02697 0.06689 0.0
C243 C 0.67667 0.06069 0.09024 0.0
C244 C 0.71753 0.08539 0.10764 0.0
H245 H 0.40624 0.04891 0.18174 0.0
H246 H 0.47623 0.03689 0.16586 0.0
C247 C 0.75714 0.07706 0.10162 0.0
C248 C 0.63328 0.06791 0.09752 0.0
H249 H 0.60219 0.15693 0.11031 0.0
C250 C 0.58465 0.02544 0.103 0.0
C251 C 0.63925 0.11592 0.09924 0.0
C252 C 0.68953 0.16329 0.09119 0.0
C253 C 0.54227 0.02953 0.11055 0.0
C254 C 0.54853 0.07757 0.11403 0.0
C255 C 0.59707 0.12003 0.10805 0.0
C256 C 0.50552 0.08481 0.12379 0.0
C257 C 0.49124 0.98208 0.11393 0.0
C258 C 0.49929 0.11741 0.10634 0.0
C259 C 0.45992 0.12547 0.11598 0.0
C260 C 0.42563 0.10072 0.14309 0.0
C261 C 0.4317 0.06806 0.16049 0.0
C262 C 0.47157 0.06079 0.15123 0.0
H263 H 0.49187 0.95139 0.10002 0.0
H264 H 0.47957 0.9696 0.13922 0.0
H265 H 0.46278 0.98784 0.10591 0.0
H266 H 0.52496 0.1367 0.08519 0.0
H267 H 0.45625 0.15096 0.10217 0.0
H268 H 0.21368 0.49021 0.68264 0.0
H269 H 0.20105 0.56022 0.68023 0.0
H270 H 0.09969 0.4827 0.61091 0.0
H271 H 0.11052 0.41166 0.61437 0.0
H272 H 0.21568 0.62453 0.63721 0.0
H273 H 0.01151 0.50741 0.67536 0.0
H274 H 0.05243 0.48391 0.67545 0.0
H275 H 0.03074 0.48663 0.63916 0.0
C276 C 0.18912 0.48833 0.66663 0.0
C277 C 0.16273 0.44524 0.64891 0.0
C278 C 0.1818 0.52837 0.66531 0.0
C279 C 0.14826 0.52637 0.64608 0.0
C280 C 0.1244 0.48462 0.62679 0.0
H281 H 0.12829 0.78652 0.60814 0.0
H282 H 0.15113 0.72318 0.60591 0.0
C283 C 0.13111 0.44425 0.62847 0.0
C284 C 0.13759 0.56741 0.64689 0.0
H285 H 0.04294 0.59095 0.65923 0.0
C286 C 0.17788 0.61716 0.64212 0.0
C287 C 0.08833 0.55812 0.65382 0.0
C288 C 0.04334 0.5062 0.66157 0.0
C289 C 0.17043 0.65762 0.64399 0.0
C290 C 0.12109 0.6482 0.64982 0.0
C291 C 0.0808 0.59843 0.65458 0.0
C292 C 0.11009 0.6891 0.65179 0.0
C293 C 0.21577 0.71007 0.6407 0.0
C294 C 0.07882 0.69107 0.67805 0.0
C295 C 0.06494 0.72667 0.67904 0.0
C296 C 0.08232 0.76147 0.65392 0.0
C297 C 0.11495 0.76073 0.62812 0.0
C298 C 0.12817 0.72452 0.62688 0.0
H299 H 0.24941 0.71134 0.6466 0.0
H300 H 0.22389 0.72343 0.61572 0.0
H301 H 0.20948 0.73622 0.65632 0.0
H302 H 0.06427 0.66432 0.6976 0.0
H303 H 0.03949 0.72615 0.69913 0.0
H304 H 0.2855 0.41348 0.58054 0.0
H305 H 0.32991 0.40792 0.53017 0.0
H306 H 0.28285 0.25656 0.55445 0.0
H307 H 0.2394 0.26244 0.60536 0.0
H308 H 0.38075 0.31597 0.51104 0.0
H309 H 0.21556 0.30988 0.47548 0.0
H310 H 0.25462 0.36407 0.49733 0.0
H311 H 0.22107 0.3032 0.51625 0.0
C312 C 0.28706 0.38008 0.57587 0.0
C313 C 0.25885 0.33821 0.59647 0.0
C314 C 0.31219 0.37686 0.54709 0.0
C315 C 0.3085 0.33147 0.53849 0.0
C316 C 0.28592 0.29183 0.5608 0.0
H317 H 0.32591 0.19898 0.35727 0.0
H318 H 0.32221 0.2176 0.4139 0.0
C319 C 0.26135 0.29532 0.5899 0.0
C320 C 0.31804 0.32209 0.50472 0.0
H321 H 0.27334 0.30926 0.43429 0.0
C322 C 0.35747 0.31454 0.49417 0.0
C323 C 0.28674 0.31936 0.48306 0.0
C324 C 0.24182 0.32406 0.49353 0.0
C325 C 0.36728 0.30562 0.46204 0.0
C326 C 0.33668 0.30411 0.44038 0.0
C327 C 0.297 0.31111 0.45106 0.0
C328 C 0.34419 0.29446 0.40643 0.0
C329 C 0.41046 0.29845 0.45131 0.0
C330 C 0.35732 0.3315 0.38374 0.0
C331 C 0.35902 0.32092 0.35149 0.0
C332 C 0.3471 0.27294 0.34153 0.0
C333 C 0.33478 0.23614 0.36435 0.0
C334 C 0.33328 0.24684 0.3966 0.0
H335 H 0.43595 0.30986 0.46965 0.0
H336 H 0.39571 0.25833 0.44631 0.0
H337 H 0.43225 0.32027 0.42904 0.0
H338 H 0.36519 0.36827 0.39105 0.0
H339 H 0.36811 0.34978 0.33443 0.0
H340 H 0.93985 0.22095 0.66307 0.0
H341 H 0.86518 0.18437 0.70294 0.0
H342 H 0.94146 0.31079 0.76281 0.0
H343 H 0.01613 0.34604 0.72374 0.0
H344 H 0.88953 0.16457 0.75886 0.0
H345 H 0.79434 0.2688 0.7877 0.0
H346 H 0.82497 0.26936 0.74827 0.0
H347 H 0.8606 0.3107 0.77806 0.0
C348 C 0.93941 0.2421 0.68399 0.0
C349 C 0.98336 0.28594 0.69074 0.0
C350 C 0.89681 0.22121 0.70669 0.0
C351 C 0.89765 0.24502 0.73571 0.0
C352 C 0.93955 0.29225 0.74034 0.0
H353 H 0.91056 0.27043 0.91709 0.0
H354 H 0.89284 0.26842 0.86307 0.0
C355 C 0.98239 0.3123 0.71814 0.0
C356 C 0.86392 0.21606 0.76422 0.0
H357 H 0.81007 0.23675 0.83357 0.0
C358 C 0.87002 0.17853 0.77496 0.0
C359 C 0.83846 0.23429 0.78493 0.0
C360 C 0.82878 0.27271 0.77398 0.0
C361 C 0.85869 0.16468 0.80718 0.0
C362 C 0.83875 0.18766 0.82874 0.0
C363 C 0.82591 0.21966 0.81706 0.0
C364 C 0.84184 0.18806 0.86309 0.0
C365 C 0.87402 0.13052 0.8182 0.0
C366 C 0.81797 0.14371 0.88137 0.0
C367 C 0.82921 0.14462 0.91206 0.0
C368 C 0.86381 0.19007 0.92509 0.0
C369 C 0.88473 0.23473 0.90748 0.0
C370 C 0.87404 0.23368 0.87675 0.0
H371 H 0.8947 0.12105 0.79863 0.0
H372 H 0.89821 0.14828 0.83726 0.0
H373 H 0.84021 0.09508 0.82794 0.0
H374 H 0.79235 0.10823 0.87145 0.0
H375 H 0.81256 0.10947 0.92494 0.0
H376 H 0.87419 0.85179 0.5044 0.0
H377 H 0.85963 0.86646 0.45218 0.0
H378 H 0.82632 0.71915 0.42395 0.0
H379 H 0.83906 0.70354 0.47633 0.0
H380 H 0.9109 0.86534 0.39348 0.0
H381 H 0.70806 0.72261 0.40026 0.0
H382 H 0.74037 0.74299 0.43484 0.0
H383 H 0.74504 0.69806 0.40893 0.0
C384 C 0.86274 0.82217 0.48728 0.0
C385 C 0.85748 0.7764 0.49448 0.0
C386 C 0.85486 0.83076 0.45743 0.0
C387 C 0.84132 0.79364 0.43444 0.0
C388 C 0.83586 0.7479 0.4416 0.0
H389 H 0.80346 0.77908 0.23567 0.0
H390 H 0.81184 0.76238 0.28933 0.0
C391 C 0.84363 0.73925 0.4714 0.0
C392 C 0.83473 0.80329 0.4025 0.0
H393 H 0.75047 0.75999 0.34941 0.0
C394 C 0.87577 0.84258 0.38388 0.0
C395 C 0.78883 0.77337 0.39015 0.0
C396 C 0.7429 0.73219 0.40967 0.0
C397 C 0.87233 0.85218 0.35288 0.0
C398 C 0.82657 0.82191 0.34051 0.0
C399 C 0.78553 0.78277 0.35908 0.0
C400 C 0.8202 0.83119 0.30851 0.0
C401 C 0.91776 0.89404 0.33338 0.0
C402 C 0.82096 0.87473 0.30207 0.0
C403 C 0.81559 0.88404 0.27175 0.0
C404 C 0.80955 0.84999 0.24731 0.0
C405 C 0.80762 0.80574 0.25408 0.0
C406 C 0.81275 0.79634 0.28456 0.0
H407 H 0.95266 0.90671 0.34378 0.0
H408 H 0.92207 0.88213 0.30867 0.0
H409 H 0.91306 0.92646 0.33232 0.0
H410 H 0.82574 0.90152 0.32052 0.0
H411 H 0.81624 0.918 0.26745 0.0
H412 H 0.30911 0.99411 0.77255 0.0
H413 H 0.32541 0.9741 0.82226 0.0
H414 H 0.2514 0.81805 0.7983 0.0
H415 H 0.23545 0.83789 0.74816 0.0
H416 H 0.21037 0.8381 0.85502 0.0
H417 H 0.4154 0.93074 0.85079 0.0
H418 H 0.39765 0.97151 0.83747 0.0
H419 H 0.38518 0.91642 0.8154 0.0
C420 C 0.29795 0.95583 0.7773 0.0
C421 C 0.27077 0.91751 0.75665 0.0
C422 C 0.30738 0.94445 0.80566 0.0
C423 C 0.29012 0.8947 0.81365 0.0
C424 C 0.26533 0.85669 0.79232 0.0
H425 H 0.24555 0.81729 1.01658 0.0
H426 H 0.25542 0.80447 0.95914 0.0
C427 C 0.25598 0.86805 0.7639 0.0
C428 C 0.2909 0.88209 0.84624 0.0
H429 H 0.36795 0.91805 0.90319 0.0
C430 C 0.24478 0.85413 0.86548 0.0
C431 C 0.3359 0.90326 0.8596 0.0
C432 C 0.38634 0.93176 0.83963 0.0
C433 C 0.24238 0.85057 0.89838 0.0
C434 C 0.2874 0.87478 0.912 0.0
C435 C 0.33359 0.89949 0.89249 0.0
C436 C 0.28695 0.88214 0.94641 0.0
C437 C 0.19183 0.82474 0.91855 0.0
C438 C 0.30275 0.93018 0.95789 0.0
C439 C 0.2973 0.93754 0.99034 0.0
C440 C 0.27593 0.89693 1.01182 0.0
C441 C 0.26206 0.84911 1.00039 0.0
C442 C 0.2675 0.84173 0.96775 0.0
H443 H 0.16068 0.81253 0.90433 0.0
H444 H 0.18591 0.79126 0.93056 0.0
H445 H 0.19016 0.85013 0.93723 0.0
H446 H 0.31781 0.96174 0.94165 0.0
H447 H 0.30918 0.97495 0.99863 0.0
H448 H 0.90294 0.05479 0.9595 0.0
H449 H 0.92279 0.03074 0.90619 0.0
H450 H 0.90917 0.90052 0.9462 0.0
H451 H 0.88715 0.92309 0.99907 0.0
H452 H -0.00498 0.02286 0.87786 0.0
H453 H 0.82831 0.83271 0.8773 0.0
H454 H 0.83315 0.87591 0.90829 0.0
H455 H 0.86118 0.83902 0.90983 0.0
C456 C 0.90332 0.02054 0.95693 0.0
C457 C 0.89255 0.99064 0.9839 0.0
C458 C 0.91501 0.00684 0.92626 0.0
C459 C 0.91664 0.96293 0.92145 0.0
C460 C 0.90657 0.93352 0.94851 0.0
H461 H 0.07811 0.91754 0.7483 0.0
H462 H 0.05354 0.93898 0.80106 0.0
C463 C 0.89419 0.94678 0.97906 0.0
C464 C 0.93049 0.94896 0.88855 0.0
H465 H 0.89688 0.85145 0.83708 0.0
C466 C 0.97319 0.98536 0.86901 0.0
C467 C 0.90204 0.90034 0.87608 0.0
C468 C 0.85336 0.85998 0.89384 0.0
C469 C 0.98847 0.97456 0.83824 0.0
C470 C 0.9616 0.92521 0.82654 0.0
C471 C 0.91838 0.88909 0.8458 0.0
C472 C 0.97673 0.91049 0.7943 0.0
C473 C 0.03254 0.01692 0.81826 0.0
C474 C 0.94167 0.88485 0.77278 0.0
C475 C 0.95554 0.87176 0.74255 0.0
C476 C 0.00497 0.88348 0.7328 0.0
C477 C 0.03978 0.90802 0.75463 0.0
C478 C 0.0258 0.92092 0.78491 0.0
H479 H 0.03826 0.05377 0.8259 0.0
H480 H 0.06701 0.01736 0.82103 0.0
H481 H 0.02755 0.01263 0.79274 0.0
H482 H 0.90347 0.87575 0.77909 0.0
H483 H 0.92753 0.85317 0.72659 0.0
H484 H 0.28881 0.10551 0.29455 0.0
H485 H 0.25153 0.07244 0.34876 0.0
H486 H 0.21035 0.92435 0.31723 0.0
H487 H 0.24871 0.95727 0.26337 0.0
H488 H 0.1571 0.0053 0.3736 0.0
H489 H 0.27709 0.93246 0.39205 0.0
H490 H 0.291 0.97282 0.35877 0.0
H491 H 0.24539 0.90682 0.35782 0.0
C492 C 0.27274 0.06606 0.29923 0.0
C493 C 0.27278 0.03437 0.27446 0.0
C494 C 0.25096 0.04704 0.3303 0.0
C495 C 0.22858 -0.00418 0.33749 0.0
C496 C 0.22846 0.96416 0.31276 0.0
H497 H 0.02916 0.85185 0.51808 0.0
H498 H 0.0594 0.87784 0.4618 0.0
C499 C 0.25057 0.98318 0.28179 0.0
C500 C 0.20491 0.97543 0.37063 0.0
H501 H 0.20595 0.90793 0.4305 0.0
C502 C 0.16789 0.98409 0.38606 0.0
C503 C 0.21903 0.94803 0.38724 0.0
C504 C 0.26064 0.93988 0.37327 0.0
C505 C 0.14484 0.96628 0.41737 0.0
C506 C 0.15817 0.93785 0.43366 0.0
C507 C 0.19504 0.9291 0.41811 0.0
C508 C 0.13806 0.92049 0.46768 0.0
C509 C 0.1077 0.97963 0.43302 0.0
C510 C 0.17175 0.93407 0.48978 0.0
C511 C 0.15468 0.91856 0.52161 0.0
C512 C 0.10312 0.88891 0.53268 0.0
C513 C 0.06908 0.87457 0.51054 0.0
C514 C 0.08639 0.88997 0.47834 0.0
H515 H 0.11099 0.01159 0.42061 0.0
H516 H 0.06919 0.94699 0.43238 0.0
H517 H 0.11296 0.98943 0.45823 0.0
H518 H 0.21169 0.95744 0.48247 0.0
H519 H 0.18237 0.93068 0.53767 0.0
H520 H 0.22777 0.30526 0.87419 0.0
H521 H 0.24515 0.28037 0.92185 0.0
H522 H 0.17648 0.12854 0.88989 0.0
H523 H 0.16057 0.15335 0.84164 0.0
H524 H 0.1837 0.21556 0.97019 0.0
H525 H 0.3049 0.14853 0.91194 0.0
H526 H 0.2876 0.18386 0.89067 0.0
H527 H 0.24466 0.1179 0.89847 0.0
C528 C 0.21693 0.26664 0.87687 0.0
C529 C 0.1928 0.23165 0.85344 0.0
C530 C 0.22665 0.25229 0.9045 0.0
C531 C 0.21307 0.20253 0.90969 0.0
C532 C 0.18859 0.1674 0.88652 0.0
H533 H 0.24079 0.04649 0.06547 0.0
H534 H 0.22335 0.06846 1.01636 0.0
C535 C 0.17877 0.18168 0.8589 0.0
C536 C 0.22314 0.18734 0.93963 0.0
H537 H 0.27944 0.13146 0.9673 0.0
C538 C 0.20485 0.19737 0.96943 0.0
C539 C 0.25055 0.16324 0.93918 0.0
C540 C 0.2735 0.15313 0.90838 0.0
C541 C 0.2122 0.18344 0.9983 0.0
C542 C 0.23994 0.15965 0.9979 0.0
C543 C 0.2581 0.14945 0.96808 0.0
C544 C 0.25124 0.146 1.02797 0.0
C545 C 0.1887 0.19327 1.02899 0.0
C546 C 0.27392 0.18202 0.05105 0.0
C547 C 0.28358 0.1694 0.07928 0.0
C548 C 0.27172 0.12038 0.08542 0.0
C549 C 0.25037 0.08454 0.06191 0.0
C550 C 0.24036 0.09718 1.03364 0.0
H551 H 0.15602 0.19566 1.02535 0.0
H552 H 0.1762 0.16355 0.04716 0.0
H553 H 0.21658 0.22966 1.03832 0.0
H554 H 0.28454 0.22035 0.04724 0.0
H555 H 0.3006 0.19849 0.09635 0.0
H556 H 0.86178 0.02491 0.19874 0.0
H557 H 0.88472 0.05092 0.25191 0.0
H558 H 0.98692 0.20245 0.21696 0.0
H559 H 0.96493 0.17615 0.16333 0.0
H560 H 0.0304 0.18161 0.25562 0.0
H561 H 0.84094 0.11829 0.31746 0.0
H562 H 0.84382 0.06764 0.29811 0.0
H563 H 0.85379 0.11905 0.2748 0.0
C564 C 0.88906 0.06384 0.20222 0.0
C565 C 0.91122 0.09827 0.17638 0.0
C566 C 0.90174 0.07898 0.23302 0.0
C567 C 0.93706 0.12913 0.23917 0.0
C568 C 0.95945 0.16356 0.21331 0.0
H569 H 0.97285 0.24971 0.43146 0.0
H570 H 0.95138 0.22465 0.37795 0.0
C571 C 0.94656 0.14847 0.18249 0.0
C572 C 0.95157 0.14536 0.27214 0.0
H573 H 0.90389 0.14009 0.35045 0.0
C574 C 0.00258 0.17271 0.27627 0.0
C575 C 0.91583 0.13457 0.2995 0.0
C576 C 0.86062 0.10876 0.29725 0.0
C577 C 0.0186 0.18868 0.30647 0.0
C578 C 0.98274 0.17627 0.334 0.0
C579 C 0.93178 0.14945 0.32978 0.0
C580 C -0.00305 0.19199 0.36711 0.0
C581 C 0.07408 0.21995 0.30823 0.0
C582 C 0.02945 0.18181 0.37985 0.0
C583 C 0.04274 0.19712 0.41058 0.0
C584 C 0.02338 0.22253 0.43003 0.0
C585 C 0.98979 0.23144 0.41744 0.0
C586 C 0.97692 0.21653 0.38664 0.0
H587 H 0.09544 0.23917 0.28515 0.0
H588 H 0.08295 0.24866 0.32677 0.0
H589 H 0.08721 0.19525 0.31406 0.0
H590 H 0.04459 0.16172 0.36609 0.0
H591 H 0.06894 0.18957 0.4188 0.0
loop_
_geom_bond_atom_site_label_1
_geom_bond_atom_site_label_2
_geom_bond_distance
_geom_bond_site_symmetry_2
_ccdc_geom_bond_type
C0 Eu1 2.835 . S
C0 C2 1.500 . S
C0 O20 1.257 . S
C0 O21 1.260 . S
Eu1 C0 2.835 . S
Eu1 O20 2.473 . S
Eu1 O21 2.480 . S
Eu1 O22 2.430 . S
Eu1 O23 2.670 . S
Eu1 O24 2.394 . S
Eu1 O29 2.355 . S
Eu1 O31 2.374 . S
C2 C0 1.500 . S
C2 C3 1.377 1_545 S
C2 C7 1.377 . S
C3 C2 1.377 1_565 S
C3 C4 1.395 1_554 S
C3 H32 0.931 . S
C4 C3 1.395 1_556 S
C4 C5 1.383 . S
C4 H33 0.931 . S
C5 C4 1.383 . S
C5 C6 1.394 1_565 S
C6 C5 1.394 1_545 S
C6 C7 1.378 1_556 S
C6 H34 0.931 . S
C7 C2 1.377 . S
C7 C6 1.378 1_554 S
C7 H35 0.931 . S
C8 O22 1.259 . S
C8 O23 1.270 . S
C9 O24 1.251 . S
C9 O25 1.251 . S
C10 Eu11 2.835 . S
C10 C12 1.500 . S
C10 O26 1.257 . S
C10 O27 1.260 . S
Eu11 C10 2.835 . S
Eu11 O23 2.355 . S
Eu11 O25 2.374 . S
Eu11 O26 2.473 . S
Eu11 O27 2.480 . S
Eu11 O28 2.430 . S
Eu11 O29 2.670 . S
Eu11 O30 2.394 . S
C12 C10 1.500 . S
C12 C13 1.377 . S
C12 C17 1.377 . S
C13 C12 1.377 . S
C13 C14 1.395 . S
C13 H36 0.931 . S
C14 C13 1.395 . S
C14 C15 1.383 . S
C14 H37 0.931 . S
C15 C14 1.383 . S
C15 C16 1.394 . S
C16 C15 1.394 . S
C16 C17 1.378 . S
C16 H38 0.931 . S
C17 C12 1.377 . S
C17 C16 1.378 . S
C17 H39 0.931 . S
C18 O28 1.259 . S
C18 O29 1.270 . S
C19 O30 1.251 . S
C19 O31 1.251 . S
O20 C0 1.257 . S
O20 Eu1 2.473 . S
O21 C0 1.260 . S
O21 Eu1 2.480 . S
O22 Eu1 2.430 . S
O22 C8 1.259 . S
O23 Eu1 2.670 . S
O23 C8 1.270 . S
O23 Eu11 2.355 . S
O24 Eu1 2.394 . S
O24 C9 1.251 . S
O25 C9 1.251 . S
O25 Eu11 2.374 . S
O26 C10 1.257 . S
O26 Eu11 2.473 . S
O27 C10 1.260 . S
O27 Eu11 2.480 . S
O28 Eu11 2.430 . S
O28 C18 1.259 . S
O29 Eu1 2.355 . S
O29 Eu11 2.670 . S
O29 C18 1.270 . S
O30 Eu11 2.394 . S
O30 C19 1.251 . S
O31 Eu1 2.374 . S
O31 C19 1.251 . S
H32 C3 0.931 . S
H33 C4 0.931 . S
H34 C6 0.931 . S
H35 C7 0.931 . S
H36 C13 0.931 . S
H37 C14 0.931 . S
H38 C16 0.931 . S
H39 C17 0.931 . S
C40 Eu41 2.835 . S
C40 C42 1.500 . S
C40 O60 1.257 . S
C40 O61 1.260 . S
Eu41 C40 2.835 . S
Eu41 O60 2.473 . S
Eu41 O61 2.480 . S
Eu41 O62 2.430 . S
Eu41 O63 2.670 . S
Eu41 O64 2.394 . S
Eu41 O69 2.355 . S
Eu41 O71 2.374 . S
C42 C40 1.500 . S
C42 C43 1.377 . S
C42 C47 1.377 . S
C43 C42 1.377 . S
C43 C44 1.395 . S
C43 H72 0.931 . S
C44 C43 1.395 . S
C44 C45 1.383 . S
C44 H73 0.931 . S
C45 C44 1.383 . S
C45 C46 1.394 . S
C46 C45 1.394 . S
C46 C47 1.378 . S
C46 H74 0.931 . S
C47 C42 1.377 . S
C47 C46 1.378 . S
C47 H75 0.931 . S
C48 O62 1.259 . S
C48 O63 1.270 . S
C49 O64 1.251 . S
C49 O65 1.251 . S
C50 Eu51 2.835 . S
C50 C52 1.500 . S
C50 O66 1.257 . S
C50 O67 1.260 . S
Eu51 C50 2.835 . S
Eu51 O63 2.355 . S
Eu51 O65 2.374 . S
Eu51 O66 2.473 . S
Eu51 O67 2.480 . S
Eu51 O68 2.430 . S
Eu51 O69 2.670 . S
Eu51 O70 2.394 . S
C52 C50 1.500 . S
C52 C53 1.377 . S
C52 C57 1.377 . S
C53 C52 1.377 . S
C53 C54 1.395 . S
C53 H76 0.931 . S
C54 C53 1.395 . S
C54 C55 1.383 . S
C54 H77 0.931 1_455 S
C55 C54 1.383 . S
C55 C56 1.394 . S
C56 C55 1.394 . S
C56 C57 1.378 . S
C56 H78 0.931 . S
C57 C52 1.377 . S
C57 C56 1.378 . S
C57 H79 0.931 . S
C58 O68 1.259 . S
C58 O69 1.270 . S
C59 O70 1.251 . S
C59 O71 1.251 . S
O60 C40 1.257 . S
O60 Eu41 2.473 . S
O61 C40 1.260 . S
O61 Eu41 2.480 . S
O62 Eu41 2.430 . S
O62 C48 1.259 . S
O63 Eu41 2.670 . S
O63 C48 1.270 . S
O63 Eu51 2.355 . S
O64 Eu41 2.394 . S
O64 C49 1.251 . S
O65 C49 1.251 . S
O65 Eu51 2.374 . S
O66 C50 1.257 . S
O66 Eu51 2.473 . S
O67 C50 1.260 . S
O67 Eu51 2.480 . S
O68 Eu51 2.430 . S
O68 C58 1.259 . S
O69 Eu41 2.355 . S
O69 Eu51 2.670 . S
O69 C58 1.270 . S
O70 Eu51 2.394 . S
O70 C59 1.251 . S
O71 Eu41 2.374 . S
O71 C59 1.251 . S
H72 C43 0.931 . S
H73 C44 0.931 . S
H74 C46 0.931 . S
H75 C47 0.931 . S
H76 C53 0.931 . S
H77 C54 0.931 1_655 S
H78 C56 0.931 . S
H79 C57 0.931 . S
C80 Eu81 2.835 1_556 S
C80 C82 1.500 . S
C80 O100 1.257 1_556 S
C80 O101 1.263 . S
Eu81 C80 2.835 1_554 S
Eu81 O100 2.473 . S
Eu81 O101 2.474 1_554 S
Eu81 O102 2.430 . S
Eu81 O103 2.671 1_545 S
Eu81 O104 2.394 1_545 S
Eu81 O109 2.355 . S
Eu81 O111 2.374 . S
C82 C80 1.500 . S
C82 C83 1.377 . S
C82 C87 1.377 . S
C83 C82 1.377 . S
C83 C84 1.395 . S
C83 H112 0.931 . S
C84 C83 1.395 . S
C84 C85 1.383 . S
C84 H113 0.931 . S
C85 C84 1.383 . S
C85 C86 1.394 . S
C86 C85 1.394 . S
C86 C87 1.378 . S
C86 H114 0.931 . S
C87 C82 1.377 . S
C87 C86 1.378 . S
C87 H115 0.931 . S
C88 O102 1.259 . S
C88 O103 1.270 1_545 S
C89 O104 1.251 . S
C89 O105 1.251 . S
C90 Eu91 2.835 . S
C90 C92 1.500 . S
C90 O106 1.257 . S
C90 O107 1.260 . S
Eu91 C90 2.835 . S
Eu91 O103 2.355 . S
Eu91 O105 2.374 . S
Eu91 O106 2.473 . S
Eu91 O107 2.480 . S
Eu91 O108 2.430 . S
Eu91 O109 2.670 1_565 S
Eu91 O110 2.394 1_565 S
C92 C90 1.500 . S
C92 C93 1.377 . S
C92 C97 1.377 . S
C93 C92 1.377 . S
C93 C94 1.395 . S
C93 H116 0.931 . S
C94 C93 1.395 . S
C94 C95 1.383 . S
C94 H117 0.931 . S
C95 C94 1.383 . S
C95 C96 1.394 . S
C96 C95 1.394 . S
C96 C97 1.378 . S
C96 H118 0.931 . S
C97 C92 1.377 . S
C97 C96 1.378 . S
C97 H119 0.931 . S
C98 O108 1.259 . S
C98 O109 1.270 1_565 S
C99 O110 1.251 . S
C99 O111 1.251 . S
O100 C80 1.257 1_554 S
O100 Eu81 2.473 . S
O101 C80 1.263 . S
O101 Eu81 2.474 1_556 S
O102 Eu81 2.430 . S
O102 C88 1.259 . S
O103 Eu81 2.671 1_565 S
O103 C88 1.270 1_565 S
O103 Eu91 2.355 . S
O104 Eu81 2.394 1_565 S
O104 C89 1.251 . S
O105 C89 1.251 . S
O105 Eu91 2.374 . S
O106 C90 1.257 . S
O106 Eu91 2.473 . S
O107 C90 1.260 . S
O107 Eu91 2.480 . S
O108 Eu91 2.430 . S
O108 C98 1.259 . S
O109 Eu81 2.355 . S
O109 Eu91 2.670 1_545 S
O109 C98 1.270 1_545 S
O110 Eu91 2.394 1_545 S
O110 C99 1.251 . S
O111 Eu81 2.374 . S
O111 C99 1.251 . S
H112 C83 0.931 . S
H113 C84 0.931 . S
H114 C86 0.931 . S
H115 C87 0.931 . S
H116 C93 0.931 . S
H117 C94 0.931 . S
H118 C96 0.931 . S
H119 C97 0.931 . S
C120 Eu121 2.835 . S
C120 C122 1.500 . S
C120 O140 1.257 . S
C120 O141 1.260 . S
Eu121 C120 2.835 . S
Eu121 O140 2.473 . S
Eu121 O141 2.480 . S
Eu121 O142 2.430 . S
Eu121 O143 2.670 . S
Eu121 O144 2.380 1_455 S
Eu121 O149 2.355 . S
Eu121 O151 2.374 . S
C122 C120 1.500 . S
C122 C123 1.377 . S
C122 C127 1.377 . S
C123 C122 1.377 . S
C123 C124 1.395 . S
C123 H152 0.931 . S
C124 C123 1.395 . S
C124 C125 1.383 . S
C124 H153 0.931 . S
C125 C124 1.383 . S
C125 C126 1.394 . S
C126 C125 1.394 . S
C126 C127 1.378 . S
C126 H154 0.931 . S
C127 C122 1.377 . S
C127 C126 1.378 . S
C127 H155 0.931 . S
C128 O142 1.259 . S
C128 O143 1.270 . S
C129 O144 1.264 . S
C129 O145 1.251 . S
C130 Eu131 2.835 . S
C130 C132 1.500 . S
C130 O146 1.257 . S
C130 O147 1.260 . S
Eu131 C130 2.835 . S
Eu131 O143 2.355 1_655 S
Eu131 O145 2.374 . S
Eu131 O146 2.473 . S
Eu131 O147 2.480 . S
Eu131 O148 2.430 . S
Eu131 O149 2.670 1_655 S
Eu131 O150 2.394 1_655 S
C132 C130 1.500 . S
C132 C133 1.377 . S
C132 C137 1.377 . S
C133 C132 1.377 . S
C133 C134 1.395 . S
C133 H156 0.931 . S
C134 C133 1.395 . S
C134 C135 1.383 . S
C134 H157 0.931 . S
C135 C134 1.383 . S
C135 C136 1.394 . S
C136 C135 1.394 . S
C136 C137 1.378 . S
C136 H158 0.931 . S
C137 C132 1.377 . S
C137 C136 1.378 . S
C137 H159 0.931 . S
C138 O148 1.259 . S
C138 O149 1.270 1_655 S
C139 O150 1.251 . S
C139 O151 1.251 . S
O140 C120 1.257 . S
O140 Eu121 2.473 . S
O141 C120 1.260 . S
O141 Eu121 2.480 . S
O142 Eu121 2.430 . S
O142 C128 1.259 . S
O143 Eu121 2.670 . S
O143 C128 1.270 . S
O143 Eu131 2.355 1_455 S
O144 Eu121 2.380 1_655 S
O144 C129 1.264 . S
O145 C129 1.251 . S
O145 Eu131 2.374 . S
O146 C130 1.257 . S
O146 Eu131 2.473 . S
O147 C130 1.260 . S
O147 Eu131 2.480 . S
O148 Eu131 2.430 . S
O148 C138 1.259 . S
O149 Eu121 2.355 . S
O149 Eu131 2.670 1_455 S
O149 C138 1.270 1_455 S
O150 Eu131 2.394 1_455 S
O150 C139 1.251 . S
O151 Eu121 2.374 . S
O151 C139 1.251 . S
H152 C123 0.931 . S
H153 C124 0.931 . S
H154 C126 0.931 . S
H155 C127 0.931 . S
H156 C133 0.931 . S
H157 C134 0.931 . S
H158 C136 0.931 . S
H159 C137 0.931 . S
H160 C168 0.929 . S
H161 C170 0.930 . S
H162 C172 0.930 . S
H163 C175 0.929 . S
H164 C178 0.930 . S
H165 C180 0.960 . S
H166 C180 0.960 . S
H167 C180 0.960 . S
C168 H160 0.929 . S
C168 C169 1.377 1_545 S
C168 C170 1.384 . S
C169 C168 1.377 1_565 S
C169 C175 1.390 . S
C170 H161 0.930 . S
C170 C168 1.384 . S
C170 C171 1.372 . S
C171 C170 1.372 . S
C171 C172 1.400 1_545 S
C171 C176 1.490 1_655 S
C172 H162 0.930 . S
C172 C171 1.400 1_565 S
C172 C175 1.386 . S
H173 C189 0.930 . S
H174 C190 0.931 . S
C175 H163 0.929 . S
C175 C169 1.390 . S
C175 C172 1.386 . S
C176 C171 1.490 1_455 S
C176 C178 1.395 . S
C176 C179 1.403 . S
H177 C183 0.930 . S
C178 H164 0.930 . S
C178 C176 1.395 . S
C178 C181 1.403 . S
C179 C176 1.403 . S
C179 C180 1.524 . S
C179 C183 1.400 . S
C180 H165 0.960 . S
C180 H166 0.960 . S
C180 H167 0.960 . S
C180 C179 1.524 . S
C181 C178 1.403 . S
C181 C182 1.392 . S
C181 C185 1.495 . S
C182 C181 1.392 . S
C182 C183 1.385 . S
C182 C184 1.478 . S
C183 H177 0.930 . S
C183 C179 1.400 . S
C183 C182 1.385 . S
C184 C182 1.478 . S
C184 C186 1.381 . S
C184 C190 1.383 . S
C185 C181 1.495 . S
C185 H191 0.959 . S
C185 H192 0.961 . S
C185 H193 0.960 . S
C186 C184 1.381 . S
C186 C187 1.394 . S
C186 H194 0.930 . S
C187 C186 1.394 . S
C187 C188 1.383 . S
C187 H195 0.929 . S
C188 C187 1.383 . S
C188 C189 1.377 . S
C189 H173 0.930 . S
C189 C188 1.377 . S
C189 C190 1.379 . S
C190 H174 0.931 . S
C190 C184 1.383 . S
C190 C189 1.379 . S
H191 C185 0.959 . S
H192 C185 0.961 . S
H193 C185 0.960 . S
H194 C186 0.930 . S
H195 C187 0.929 . S
H196 C204 0.929 . S
H197 C206 0.930 . S
H198 C208 0.930 . S
H199 C211 0.929 . S
H200 C214 0.930 . S
H201 C216 0.960 . S
H202 C216 0.960 1_565 S
H203 C216 0.978 . S
C204 H196 0.929 . S
C204 C205 1.377 . S
C204 C206 1.384 . S
C205 C204 1.377 . S
C205 C211 1.390 1_655 S
C206 H197 0.930 . S
C206 C204 1.384 . S
C206 C207 1.372 1_655 S
C207 C206 1.372 1_455 S
C207 C208 1.400 . S
C207 C212 1.490 1_565 S
C208 H198 0.930 . S
C208 C207 1.400 . S
C208 C211 1.386 . S
H209 C225 0.930 . S
H210 C226 0.931 . S
C211 H199 0.929 . S
C211 C205 1.390 1_455 S
C211 C208 1.386 . S
C212 C207 1.490 1_545 S
C212 C214 1.395 . S
C212 C215 1.403 . S
H213 C219 0.930 . S
C214 H200 0.930 . S
C214 C212 1.395 . S
C214 C217 1.403 . S
C215 C212 1.403 . S
C215 C216 1.524 . S
C215 C219 1.400 . S
C216 H201 0.960 . S
C216 H202 0.960 1_545 S
C216 H203 0.978 . S
C216 C215 1.524 . S
C217 C214 1.403 . S
C217 C218 1.392 . S
C217 C221 1.495 . S
C218 C217 1.392 . S
C218 C219 1.385 . S
C218 C220 1.478 . S
C219 H213 0.930 . S
C219 C215 1.400 . S
C219 C218 1.385 . S
C220 C218 1.478 . S
C220 C222 1.381 . S
C220 C226 1.383 . S
C221 C217 1.495 . S
C221 H227 0.959 . S
C221 H228 0.961 . S
C221 H229 0.960 . S
C222 C220 1.381 . S
C222 C223 1.394 . S
C222 H230 0.930 . S
C223 C222 1.394 . S
C223 C224 1.383 . S
C223 H231 0.929 . S
C224 C223 1.383 . S
C224 C225 1.377 . S
C225 H209 0.930 . S
C225 C224 1.377 . S
C225 C226 1.379 . S
C226 H210 0.931 . S
C226 C220 1.383 . S
C226 C225 1.379 . S
H227 C221 0.959 . S
H228 C221 0.961 . S
H229 C221 0.960 . S
H230 C222 0.930 . S
H231 C223 0.929 . S
H232 C240 0.929 . S
H233 C242 0.930 . S
H234 C244 0.930 1_565 S
H235 C247 0.929 . S
H236 C250 0.930 . S
H237 C252 0.960 . S
H238 C252 0.960 . S
H239 C252 0.960 . S
C240 H232 0.929 . S
C240 C241 1.377 1_545 S
C240 C242 1.384 . S
C241 C240 1.377 1_565 S
C241 C247 1.390 . S
C242 H233 0.930 . S
C242 C240 1.384 . S
C242 C243 1.372 . S
C243 C242 1.372 . S
C243 C244 1.400 . S
C243 C248 1.490 . S
C244 H234 0.930 1_545 S
C244 C243 1.400 . S
C244 C247 1.386 1_545 S
H245 C261 0.930 . S
H246 C262 0.931 . S
C247 H235 0.929 . S
C247 C241 1.390 . S
C247 C244 1.386 1_565 S
C248 C243 1.490 . S
C248 C250 1.395 . S
C248 C251 1.403 . S
H249 C255 0.930 . S
C250 H236 0.930 . S
C250 C248 1.395 . S
C250 C253 1.403 . S
C251 C248 1.403 . S
C251 C252 1.524 . S
C251 C255 1.400 . S
C252 H237 0.960 . S
C252 H238 0.960 . S
C252 H239 0.960 . S
C252 C251 1.524 . S
C253 C250 1.403 . S
C253 C254 1.392 . S
C253 C257 1.495 . S
C254 C253 1.392 . S
C254 C255 1.385 . S
C254 C256 1.478 . S
C255 H249 0.930 . S
C255 C251 1.400 . S
C255 C254 1.385 . S
C256 C254 1.478 . S
C256 C258 1.381 . S
C256 C262 1.383 . S
C257 C253 1.495 . S
C257 H263 0.959 . S
C257 H264 0.961 . S
C257 H265 0.960 . S
C258 C256 1.381 . S
C258 C259 1.394 . S
C258 H266 0.930 . S
C259 C258 1.394 . S
C259 C260 1.383 . S
C259 H267 0.929 . S
C260 C259 1.383 . S
C260 C261 1.377 . S
C261 H245 0.930 . S
C261 C260 1.377 . S
C261 C262 1.379 . S
C262 H246 0.931 . S
C262 C256 1.383 . S
C262 C261 1.379 . S
H263 C257 0.959 . S
H264 C257 0.961 . S
H265 C257 0.960 . S
H266 C258 0.930 . S
H267 C259 0.929 . S
H268 C276 0.929 . S
H269 C278 0.930 . S
H270 C280 0.930 . S
H271 C283 0.929 . S
H272 C286 0.930 . S
H273 C288 0.960 1_655 S
H274 C288 0.960 . S
H275 C288 0.960 . S
C276 H268 0.929 . S
C276 C277 1.377 . S
C276 C278 1.384 . S
C277 C276 1.377 . S
C277 C283 1.390 . S
C278 H269 0.930 . S
C278 C276 1.384 . S
C278 C279 1.372 . S
C279 C278 1.372 . S
C279 C280 1.400 . S
C279 C284 1.490 . S
C280 H270 0.930 . S
C280 C279 1.400 . S
C280 C283 1.386 . S
H281 C297 0.930 . S
H282 C298 0.931 . S
C283 H271 0.929 . S
C283 C277 1.390 . S
C283 C280 1.386 . S
C284 C279 1.490 . S
C284 C286 1.395 . S
C284 C287 1.403 . S
H285 C291 0.930 . S
C286 H272 0.930 . S
C286 C284 1.395 . S
C286 C289 1.403 . S
C287 C284 1.403 . S
C287 C288 1.524 . S
C287 C291 1.400 . S
C288 H273 0.960 1_455 S
C288 H274 0.960 . S
C288 H275 0.960 . S
C288 C287 1.524 . S
C289 C286 1.403 . S
C289 C290 1.392 . S
C289 C293 1.495 . S
C290 C289 1.392 . S
C290 C291 1.385 . S
C290 C292 1.478 . S
C291 H285 0.930 . S
C291 C287 1.400 . S
C291 C290 1.385 . S
C292 C290 1.478 . S
C292 C294 1.381 . S
C292 C298 1.383 . S
C293 C289 1.495 . S
C293 H299 0.959 . S
C293 H300 0.961 . S
C293 H301 0.960 . S
C294 C292 1.381 . S
C294 C295 1.394 . S
C294 H302 0.930 . S
C295 C294 1.394 . S
C295 C296 1.383 . S
C295 H303 0.929 . S
C296 C295 1.383 . S
C296 C297 1.377 1_455 S
C297 H281 0.930 . S
C297 C296 1.377 1_655 S
C297 C298 1.379 1_655 S
C298 H282 0.931 . S
C298 C292 1.383 . S
C298 C297 1.379 1_455 S
H299 C293 0.959 . S
H300 C293 0.961 . S
H301 C293 0.960 . S
H302 C294 0.930 . S
H303 C295 0.929 . S
H304 C312 0.929 . S
H305 C314 0.930 . S
H306 C316 0.930 . S
H307 C319 0.929 . S
H308 C322 0.930 . S
H309 C324 0.960 . S
H310 C324 0.960 . S
H311 C324 0.960 . S
C312 H304 0.929 . S
C312 C313 1.377 . S
C312 C314 1.384 . S
C313 C312 1.377 . S
C313 C319 1.390 . S
C314 H305 0.930 . S
C314 C312 1.384 . S
C314 C315 1.372 . S
C315 C314 1.372 . S
C315 C316 1.400 . S
C315 C320 1.490 . S
C316 H306 0.930 . S
C316 C315 1.400 . S
C316 C319 1.386 . S
H317 C333 0.930 . S
H318 C334 0.931 . S
C319 H307 0.929 . S
C319 C313 1.390 . S
C319 C316 1.386 . S
C320 C315 1.490 . S
C320 C322 1.395 . S
C320 C323 1.403 . S
H321 C327 0.930 . S
C322 H308 0.930 . S
C322 C320 1.395 . S
C322 C325 1.403 . S
C323 C320 1.403 . S
C323 C324 1.524 . S
C323 C327 1.400 . S
C324 H309 0.960 . S
C324 H310 0.960 . S
C324 H311 0.960 . S
C324 C323 1.524 . S
C325 C322 1.403 . S
C325 C326 1.392 . S
C325 C329 1.495 . S
C326 C325 1.392 . S
C326 C327 1.385 . S
C326 C328 1.478 . S
C327 H321 0.930 . S
C327 C323 1.400 . S
C327 C326 1.385 . S
C328 C326 1.478 . S
C328 C330 1.381 . S
C328 C334 1.383 . S
C329 C325 1.495 . S
C329 H335 0.959 . S
C329 H336 0.961 . S
C329 H337 0.960 . S
C330 C328 1.381 . S
C330 C331 1.394 . S
C330 H338 0.930 . S
C331 C330 1.394 . S
C331 C332 1.383 . S
C331 H339 0.929 . S
C332 C331 1.383 . S
C332 C333 1.377 . S
C333 H317 0.930 . S
C333 C332 1.377 . S
C333 C334 1.379 . S
C334 H318 0.931 . S
C334 C328 1.383 . S
C334 C333 1.379 . S
H335 C329 0.959 . S
H336 C329 0.961 . S
H337 C329 0.960 . S
H338 C330 0.930 . S
H339 C331 0.929 . S
H340 C348 0.929 . S
H341 C350 0.930 . S
H342 C352 0.930 . S
H343 C355 0.929 . S
H344 C358 0.930 . S
H345 C360 0.960 . S
H346 C360 0.960 . S
H347 C360 0.960 . S
C348 H340 0.929 . S
C348 C349 1.377 . S
C348 C350 1.384 . S
C349 C348 1.377 . S
C349 C355 1.390 . S
C350 H341 0.930 . S
C350 C348 1.384 . S
C350 C351 1.372 . S
C351 C350 1.372 . S
C351 C352 1.400 . S
C351 C356 1.490 . S
C352 H342 0.930 . S
C352 C351 1.400 . S
C352 C355 1.386 . S
H353 C369 0.930 . S
H354 C370 0.931 . S
C355 H343 0.929 . S
C355 C349 1.390 . S
C355 C352 1.386 . S
C356 C351 1.490 . S
C356 C358 1.395 . S
C356 C359 1.403 1_455 S
H357 C363 0.930 . S
C358 H344 0.930 . S
C358 C356 1.395 . S
C358 C361 1.403 . S
C359 C356 1.403 1_655 S
C359 C360 1.524 . S
C359 C363 1.400 . S
C360 H345 0.960 . S
C360 H346 0.960 . S
C360 H347 0.960 . S
C360 C359 1.524 . S
C361 C358 1.403 . S
C361 C362 1.392 1_455 S
C361 C365 1.495 . S
C362 C361 1.392 1_655 S
C362 C363 1.385 . S
C362 C364 1.478 . S
C363 H357 0.930 . S
C363 C359 1.400 . S
C363 C362 1.385 . S
C364 C362 1.478 . S
C364 C366 1.381 . S
C364 C370 1.383 . S
C365 C361 1.495 . S
C365 H371 0.959 . S
C365 H372 0.961 . S
C365 H373 0.960 . S
C366 C364 1.381 . S
C366 C367 1.394 . S
C366 H374 0.930 . S
C367 C366 1.394 . S
C367 C368 1.383 . S
C367 H375 0.929 . S
C368 C367 1.383 . S
C368 C369 1.377 . S
C369 H353 0.930 . S
C369 C368 1.377 . S
C369 C370 1.379 . S
C370 H354 0.931 . S
C370 C364 1.383 . S
C370 C369 1.379 . S
H371 C365 0.959 . S
H372 C365 0.961 . S
H373 C365 0.960 . S
H374 C366 0.930 . S
H375 C367 0.929 . S
H376 C384 0.929 . S
H377 C386 0.930 . S
H378 C388 0.930 . S
H379 C391 0.929 . S
H380 C394 0.930 . S
H381 C396 0.960 . S
H382 C396 0.960 . S
H383 C396 0.960 . S
C384 H376 0.929 . S
C384 C385 1.377 . S
C384 C386 1.384 . S
C385 C384 1.377 . S
C385 C391 1.390 . S
C386 H377 0.930 . S
C386 C384 1.384 . S
C386 C387 1.372 . S
C387 C386 1.372 . S
C387 C388 1.400 . S
C387 C392 1.490 . S
C388 H378 0.930 . S
C388 C387 1.400 . S
C388 C391 1.386 . S
H389 C405 0.930 . S
H390 C406 0.931 . S
C391 H379 0.929 . S
C391 C385 1.390 . S
C391 C388 1.386 . S
C392 C387 1.490 . S
C392 C394 1.395 . S
C392 C395 1.403 . S
H393 C399 0.930 . S
C394 H380 0.930 . S
C394 C392 1.395 . S
C394 C397 1.403 . S
C395 C392 1.403 . S
C395 C396 1.524 . S
C395 C399 1.400 . S
C396 H381 0.960 . S
C396 H382 0.960 . S
C396 H383 0.960 . S
C396 C395 1.524 . S
C397 C394 1.403 . S
C397 C398 1.392 . S
C397 C401 1.495 . S
C398 C397 1.392 . S
C398 C399 1.385 . S
C398 C400 1.478 . S
C399 H393 0.930 . S
C399 C395 1.400 . S
C399 C398 1.385 . S
C400 C398 1.478 . S
C400 C402 1.381 . S
C400 C406 1.383 . S
C401 C397 1.495 . S
C401 H407 0.959 . S
C401 H408 0.961 . S
C401 H409 0.960 . S
C402 C400 1.381 . S
C402 C403 1.394 . S
C402 H410 0.930 . S
C403 C402 1.394 . S
C403 C404 1.383 . S
C403 H411 0.929 . S
C404 C403 1.383 . S
C404 C405 1.377 . S
C405 H389 0.930 . S
C405 C404 1.377 . S
C405 C406 1.379 . S
C406 H390 0.931 . S
C406 C400 1.383 . S
C406 C405 1.379 . S
H407 C401 0.959 . S
H408 C401 0.961 . S
H409 C401 0.960 . S
H410 C402 0.930 . S
H411 C403 0.929 . S
H412 C420 0.929 . S
H413 C422 0.930 . S
H414 C424 0.930 . S
H415 C427 0.929 . S
H416 C430 0.930 . S
H417 C432 0.960 . S
H418 C432 0.960 . S
H419 C432 0.960 . S
C420 H412 0.929 . S
C420 C421 1.377 . S
C420 C422 1.384 . S
C421 C420 1.377 . S
C421 C427 1.390 . S
C422 H413 0.930 . S
C422 C420 1.384 . S
C422 C423 1.372 . S
C423 C422 1.372 . S
C423 C424 1.400 . S
C423 C428 1.490 . S
C424 H414 0.930 . S
C424 C423 1.400 . S
C424 C427 1.386 . S
H425 C441 0.930 . S
H426 C442 0.931 . S
C427 H415 0.929 . S
C427 C421 1.390 . S
C427 C424 1.386 . S
C428 C423 1.490 . S
C428 C430 1.395 . S
C428 C431 1.403 . S
H429 C435 0.930 . S
C430 H416 0.930 . S
C430 C428 1.395 . S
C430 C433 1.403 . S
C431 C428 1.403 . S
C431 C432 1.524 . S
C431 C435 1.400 . S
C432 H417 0.960 . S
C432 H418 0.960 . S
C432 H419 0.960 . S
C432 C431 1.524 . S
C433 C430 1.403 . S
C433 C434 1.392 . S
C433 C437 1.495 . S
C434 C433 1.392 . S
C434 C435 1.385 . S
C434 C436 1.478 . S
C435 H429 0.930 . S
C435 C431 1.400 . S
C435 C434 1.385 . S
C436 C434 1.478 . S
C436 C438 1.381 . S
C436 C442 1.383 . S
C437 C433 1.495 . S
C437 H443 0.959 . S
C437 H444 0.961 . S
C437 H445 0.960 . S
C438 C436 1.381 . S
C438 C439 1.394 1_565 S
C438 H446 0.930 1_565 S
C439 C438 1.394 1_545 S
C439 C440 1.383 1_545 S
C439 H447 0.929 . S
C440 C439 1.383 1_565 S
C440 C441 1.377 . S
C441 H425 0.930 . S
C441 C440 1.377 . S
C441 C442 1.379 . S
C442 H426 0.931 . S
C442 C436 1.383 . S
C442 C441 1.379 . S
H443 C437 0.959 . S
H444 C437 0.961 . S
H445 C437 0.960 . S
H446 C438 0.930 1_545 S
H447 C439 0.929 . S
H448 C456 0.929 . S
H449 C458 0.930 . S
H450 C460 0.930 . S
H451 C463 0.929 . S
H452 C466 0.930 . S
H453 C468 0.960 . S
H454 C468 0.960 . S
H455 C468 0.960 . S
C456 H448 0.929 . S
C456 C457 1.377 . S
C456 C458 1.384 . S
C457 C456 1.377 . S
C457 C463 1.390 . S
C458 H449 0.930 . S
C458 C456 1.384 . S
C458 C459 1.372 . S
C459 C458 1.372 . S
C459 C460 1.400 . S
C459 C464 1.490 . S
C460 H450 0.930 . S
C460 C459 1.400 . S
C460 C463 1.386 . S
H461 C477 0.930 . S
H462 C478 0.931 . S
C463 H451 0.929 . S
C463 C457 1.390 . S
C463 C460 1.386 . S
C464 C459 1.490 . S
C464 C466 1.395 . S
C464 C467 1.403 . S
H465 C471 0.930 . S
C466 H452 0.930 . S
C466 C464 1.395 . S
C466 C469 1.403 . S
C467 C464 1.403 . S
C467 C468 1.524 . S
C467 C471 1.400 . S
C468 H453 0.960 . S
C468 H454 0.960 . S
C468 H455 0.960 . S
C468 C467 1.524 . S
C469 C466 1.403 . S
C469 C470 1.392 . S
C469 C473 1.495 . S
C470 C469 1.392 . S
C470 C471 1.385 . S
C470 C472 1.478 . S
C471 H465 0.930 . S
C471 C467 1.400 . S
C471 C470 1.385 . S
C472 C470 1.478 . S
C472 C474 1.381 . S
C472 C478 1.383 . S
C473 C469 1.495 . S
C473 H479 0.959 . S
C473 H480 0.961 . S
C473 H481 0.960 . S
C474 C472 1.381 . S
C474 C475 1.394 . S
C474 H482 0.930 . S
C475 C474 1.394 . S
C475 C476 1.383 . S
C475 H483 0.929 . S
C476 C475 1.383 . S
C476 C477 1.377 . S
C477 H461 0.930 . S
C477 C476 1.377 . S
C477 C478 1.379 . S
C478 H462 0.931 . S
C478 C472 1.383 . S
C478 C477 1.379 . S
H479 C473 0.959 . S
H480 C473 0.961 . S
H481 C473 0.960 . S
H482 C474 0.930 . S
H483 C475 0.929 . S
H484 C492 0.929 . S
H485 C494 0.930 . S
H486 C496 0.930 . S
H487 C499 0.929 . S
H488 C502 0.930 1_545 S
H489 C504 0.960 . S
H490 C504 0.960 . S
H491 C504 0.960 . S
C492 H484 0.929 . S
C492 C493 1.377 . S
C492 C494 1.384 . S
C493 C492 1.377 . S
C493 C499 1.390 1_545 S
C494 H485 0.930 . S
C494 C492 1.384 . S
C494 C495 1.372 1_545 S
C495 C494 1.372 1_565 S
C495 C496 1.400 . S
C495 C500 1.490 . S
C496 H486 0.930 . S
C496 C495 1.400 . S
C496 C499 1.386 . S
H497 C513 0.930 . S
H498 C514 0.931 . S
C499 H487 0.929 . S
C499 C493 1.390 1_565 S
C499 C496 1.386 . S
C500 C495 1.490 . S
C500 C502 1.395 . S
C500 C503 1.403 . S
H501 C507 0.930 . S
C502 H488 0.930 1_565 S
C502 C500 1.395 . S
C502 C505 1.403 . S
C503 C500 1.403 . S
C503 C504 1.524 . S
C503 C507 1.400 . S
C504 H489 0.960 . S
C504 H490 0.960 . S
C504 H491 0.960 . S
C504 C503 1.524 . S
C505 C502 1.403 . S
C505 C506 1.392 . S
C505 C509 1.495 . S
C506 C505 1.392 . S
C506 C507 1.385 . S
C506 C508 1.478 . S
C507 H501 0.930 . S
C507 C503 1.400 . S
C507 C506 1.385 . S
C508 C506 1.478 . S
C508 C510 1.381 . S
C508 C514 1.383 . S
C509 C505 1.495 . S
C509 H515 0.959 1_565 S
C509 H516 0.961 . S
C509 H517 0.960 1_565 S
C510 C508 1.381 . S
C510 C511 1.394 . S
C510 H518 0.930 . S
C511 C510 1.394 . S
C511 C512 1.383 . S
C511 H519 0.929 . S
C512 C511 1.383 . S
C512 C513 1.377 . S
C513 H497 0.930 . S
C513 C512 1.377 . S
C513 C514 1.379 . S
C514 H498 0.931 . S
C514 C508 1.383 . S
C514 C513 1.379 . S
H515 C509 0.959 1_545 S
H516 C509 0.961 . S
H517 C509 0.960 1_545 S
H518 C510 0.930 . S
H519 C511 0.929 . S
H520 C528 0.929 . S
H521 C530 0.930 . S
H522 C532 0.930 . S
H523 C535 0.929 . S
H524 C538 0.930 . S
H525 C540 0.960 . S
H526 C540 0.960 . S
H527 C540 0.960 . S
C528 H520 0.929 . S
C528 C529 1.377 . S
C528 C530 1.384 . S
C529 C528 1.377 . S
C529 C535 1.390 . S
C530 H521 0.930 . S
C530 C528 1.384 . S
C530 C531 1.372 . S
C531 C530 1.372 . S
C531 C532 1.400 . S
C531 C536 1.490 . S
C532 H522 0.930 . S
C532 C531 1.400 . S
C532 C535 1.386 . S
H533 C549 0.930 . S
H534 C550 0.931 . S
C535 H523 0.929 . S
C535 C529 1.390 . S
C535 C532 1.386 . S
C536 C531 1.490 . S
C536 C538 1.395 . S
C536 C539 1.403 . S
H537 C543 0.930 . S
C538 H524 0.930 . S
C538 C536 1.395 . S
C538 C541 1.403 . S
C539 C536 1.403 . S
C539 C540 1.524 . S
C539 C543 1.400 . S
C540 H525 0.960 . S
C540 H526 0.960 . S
C540 H527 0.960 . S
C540 C539 1.524 . S
C541 C538 1.403 . S
C541 C542 1.392 . S
C541 C545 1.495 . S
C542 C541 1.392 . S
C542 C543 1.385 . S
C542 C544 1.478 . S
C543 H537 0.930 . S
C543 C539 1.400 . S
C543 C542 1.385 . S
C544 C542 1.478 . S
C544 C546 1.381 . S
C544 C550 1.383 . S
C545 C541 1.495 . S
C545 H551 0.959 . S
C545 H552 0.961 . S
C545 H553 0.960 . S
C546 C544 1.381 . S
C546 C547 1.394 1_556 S
C546 H554 0.930 . S
C547 C546 1.394 1_554 S
C547 C548 1.383 . S
C547 H555 0.929 . S
C548 C547 1.383 . S
C548 C549 1.377 1_554 S
C549 H533 0.930 . S
C549 C548 1.377 1_556 S
C549 C550 1.379 . S
C550 H534 0.931 . S
C550 C544 1.383 . S
C550 C549 1.379 . S
H551 C545 0.959 . S
H552 C545 0.961 . S
H553 C545 0.960 . S
H554 C546 0.930 . S
H555 C547 0.929 . S
H556 C564 0.929 . S
H557 C566 0.930 . S
H558 C568 0.930 . S
H559 C571 0.929 . S
H560 C574 0.930 . S
H561 C576 0.960 . S
H562 C576 0.960 . S
H563 C576 0.960 . S
C564 H556 0.929 . S
C564 C565 1.377 . S
C564 C566 1.384 . S
C565 C564 1.377 . S
C565 C571 1.390 . S
C566 H557 0.930 . S
C566 C564 1.384 . S
C566 C567 1.372 . S
C567 C566 1.372 . S
C567 C568 1.400 . S
C567 C572 1.490 . S
C568 H558 0.930 . S
C568 C567 1.400 . S
C568 C571 1.386 . S
H569 C585 0.930 . S
H570 C586 0.931 . S
C571 H559 0.929 . S
C571 C565 1.390 . S
C571 C568 1.386 . S
C572 C567 1.490 . S
C572 C574 1.395 . S
C572 C575 1.403 . S
H573 C579 0.930 . S
C574 H560 0.930 . S
C574 C572 1.395 . S
C574 C577 1.403 . S
C575 C572 1.403 . S
C575 C576 1.524 . S
C575 C579 1.400 . S
C576 H561 0.960 . S
C576 H562 0.960 . S
C576 H563 0.960 . S
C576 C575 1.524 . S
C577 C574 1.403 . S
C577 C578 1.392 . S
C577 C581 1.495 1_655 S
C578 C577 1.392 . S
C578 C579 1.385 . S
C578 C580 1.478 . S
C579 H573 0.930 . S
C579 C575 1.400 . S
C579 C578 1.385 . S
C580 C578 1.478 . S
C580 C582 1.362 1_655 S
C580 C586 1.383 . S
C581 C577 1.495 1_455 S
C581 H587 0.959 . S
C581 H588 0.961 . S
C581 H589 0.960 . S
C582 C580 1.362 1_455 S
C582 C583 1.398 . S
C582 H590 0.946 . S
C583 C582 1.398 . S
C583 C584 1.383 1_455 S
C583 H591 0.929 . S
C584 C583 1.383 1_655 S
C584 C585 1.377 . S
C585 H569 0.930 . S
C585 C584 1.377 . S
C585 C586 1.379 . S
C586 H570 0.931 . S
C586 C580 1.383 . S
C586 C585 1.379 . S
H587 C581 0.959 . S
H588 C581 0.961 . S
H589 C581 0.960 . S
H590 C582 0.946 . S
H591 C583 0.929 . S
C169 C88 0.781 1_565 S
C188 C8 0.993 . S
C205 C128 1.046 1_655 S
C224 C58 1.038 . S
C241 C98 1.104 . S
C260 C18 1.118 . S
C277 C48 1.072 . S
C296 C138 1.073 1_455 S
C313 C59 0.592 . S
C332 C15 0.581 . S
C349 C49 0.515 . S
C368 C85 0.491 . S
C385 C135 0.288 . S
C404 C95 0.222 . S
C421 C125 0.333 . S
C440 C5 0.395 . S
C457 C89 3.318 1_556 S
C476 C129 3.265 . S
C493 C19 3.362 . S
C512 C139 3.351 . S
C529 C45 2.849 . S
C548 C9 2.796 . S
C565 C99 2.481 . S
C584 C55 2.424 1_655 S
