# Generated by pormake.
# Topology pcu-i, (5)-cn, num edge types: 1
# Building blocks:
#     Node 0, Type 0, BuildingBlock: XOMCOT_clean_sbu_1, # of connection points: 5
#     Node 1, Type 0, BuildingBlock: XOMCOT_clean_sbu_1, # of connection points: 5
#     Node 2, Type 0, BuildingBlock: XOMCOT_clean_sbu_1, # of connection points: 5
#     Node 3, Type 0, BuildingBlock: XOMCOT_clean_sbu_1, # of connection points: 5
#     Node 4, Type 0, BuildingBlock: XOMCOT_clean_sbu_1, # of connection points: 5
#     Node 5, Type 0, BuildingBlock: XOMCOT_clean_sbu_1, # of connection points: 5
#     Node 6, Type 0, BuildingBlock: XOMCOT_clean_sbu_1, # of connection points: 5
#     Node 7, Type 0, BuildingBlock: XOMCOT_clean_sbu_1, # of connection points: 5
#     Node 8, Type 0, BuildingBlock: XOMCOT_clean_sbu_1, # of connection points: 5
#     Node 9, Type 0, BuildingBlock: XOMCOT_clean_sbu_1, # of connection points: 5
#     Node 10, Type 0, BuildingBlock: XOMCOT_clean_sbu_1, # of connection points: 5
#     Node 11, Type 0, BuildingBlock: XOMCOT_clean_sbu_1, # of connection points: 5
#     Node 12, Type 0, BuildingBlock: XOMCOT_clean_sbu_1, # of connection points: 5
#     Node 13, Type 0, BuildingBlock: XOMCOT_clean_sbu_1, # of connection points: 5
#     Node 14, Type 0, BuildingBlock: XOMCOT_clean_sbu_1, # of connection points: 5
#     Node 15, Type 0, BuildingBlock: XOMCOT_clean_sbu_1, # of connection points: 5
#     Node 16, Type 0, BuildingBlock: XOMCOT_clean_sbu_1, # of connection points: 5
#     Node 17, Type 0, BuildingBlock: XOMCOT_clean_sbu_1, # of connection points: 5
#     Node 18, Type 0, BuildingBlock: XOMCOT_clean_sbu_1, # of connection points: 5
#     Node 19, Type 0, BuildingBlock: XOMCOT_clean_sbu_1, # of connection points: 5
#     Node 20, Type 0, BuildingBlock: XOMCOT_clean_sbu_1, # of connection points: 5
#     Node 21, Type 0, BuildingBlock: XOMCOT_clean_sbu_1, # of connection points: 5
#     Node 22, Type 0, BuildingBlock: XOMCOT_clean_sbu_1, # of connection points: 5
#     Node 23, Type 0, BuildingBlock: XOMCOT_clean_sbu_1, # of connection points: 5
#     Edge 24, Type (0, 0), BuildingBlock: KIFKEQ_clean_linker_1, # of connection points: 2
#     Edge 25, Type (0, 0), BuildingBlock: KIFKEQ_clean_linker_1, # of connection points: 2
#     Edge 26, Type (0, 0), BuildingBlock: KIFKEQ_clean_linker_1, # of connection points: 2
#     Edge 27, Type (0, 0), BuildingBlock: KIFKEQ_clean_linker_1, # of connection points: 2
#     Edge 28, Type (0, 0), BuildingBlock: KIFKEQ_clean_linker_1, # of connection points: 2
#     Edge 29, Type (0, 0), BuildingBlock: KIFKEQ_clean_linker_1, # of connection points: 2
#     Edge 30, Type (0, 0), BuildingBlock: KIFKEQ_clean_linker_1, # of connection points: 2
#     Edge 31, Type (0, 0), BuildingBlock: KIFKEQ_clean_linker_1, # of connection points: 2
#     Edge 32, Type (0, 0), BuildingBlock: KIFKEQ_clean_linker_1, # of connection points: 2
#     Edge 33, Type (0, 0), BuildingBlock: KIFKEQ_clean_linker_1, # of connection points: 2
#     Edge 34, Type (0, 0), BuildingBlock: KIFKEQ_clean_linker_1, # of connection points: 2
#     Edge 35, Type (0, 0), BuildingBlock: KIFKEQ_clean_linker_1, # of connection points: 2
#     Edge 36, Type (0, 0), BuildingBlock: KIFKEQ_clean_linker_1, # of connection points: 2
#     Edge 37, Type (0, 0), BuildingBlock: KIFKEQ_clean_linker_1, # of connection points: 2
#     Edge 38, Type (0, 0), BuildingBlock: KIFKEQ_clean_linker_1, # of connection points: 2
#     Edge 39, Type (0, 0), BuildingBlock: KIFKEQ_clean_linker_1, # of connection points: 2
#     Edge 40, Type (0, 0), BuildingBlock: KIFKEQ_clean_linker_1, # of connection points: 2
#     Edge 41, Type (0, 0), BuildingBlock: KIFKEQ_clean_linker_1, # of connection points: 2
#     Edge 42, Type (0, 0), BuildingBlock: KIFKEQ_clean_linker_1, # of connection points: 2
#     Edge 43, Type (0, 0), BuildingBlock: KIFKEQ_clean_linker_1, # of connection points: 2
#     Edge 44, Type (0, 0), BuildingBlock: KIFKEQ_clean_linker_1, # of connection points: 2
#     Edge 45, Type (0, 0), BuildingBlock: KIFKEQ_clean_linker_1, # of connection points: 2
#     Edge 46, Type (0, 0), BuildingBlock: KIFKEQ_clean_linker_1, # of connection points: 2
#     Edge 47, Type (0, 0), BuildingBlock: KIFKEQ_clean_linker_1, # of connection points: 2
#     Edge 48, Type (0, 0), BuildingBlock: KIFKEQ_clean_linker_1, # of connection points: 2
#     Edge 49, Type (0, 0), BuildingBlock: KIFKEQ_clean_linker_1, # of connection points: 2
#     Edge 50, Type (0, 0), BuildingBlock: KIFKEQ_clean_linker_1, # of connection points: 2
#     Edge 51, Type (0, 0), BuildingBlock: KIFKEQ_clean_linker_1, # of connection points: 2
#     Edge 52, Type (0, 0), BuildingBlock: KIFKEQ_clean_linker_1, # of connection points: 2
#     Edge 53, Type (0, 0), BuildingBlock: KIFKEQ_clean_linker_1, # of connection points: 2
#     Edge 54, Type (0, 0), BuildingBlock: KIFKEQ_clean_linker_1, # of connection points: 2
#     Edge 55, Type (0, 0), BuildingBlock: KIFKEQ_clean_linker_1, # of connection points: 2
#     Edge 56, Type (0, 0), BuildingBlock: KIFKEQ_clean_linker_1, # of connection points: 2
#     Edge 57, Type (0, 0), BuildingBlock: KIFKEQ_clean_linker_1, # of connection points: 2
#     Edge 58, Type (0, 0), BuildingBlock: KIFKEQ_clean_linker_1, # of connection points: 2
#     Edge 59, Type (0, 0), BuildingBlock: KIFKEQ_clean_linker_1, # of connection points: 2
#     Edge 60, Type (0, 0), BuildingBlock: KIFKEQ_clean_linker_1, # of connection points: 2
#     Edge 61, Type (0, 0), BuildingBlock: KIFKEQ_clean_linker_1, # of connection points: 2
#     Edge 62, Type (0, 0), BuildingBlock: KIFKEQ_clean_linker_1, # of connection points: 2
#     Edge 63, Type (0, 0), BuildingBlock: KIFKEQ_clean_linker_1, # of connection points: 2
#     Edge 64, Type (0, 0), BuildingBlock: KIFKEQ_clean_linker_1, # of connection points: 2
#     Edge 65, Type (0, 0), BuildingBlock: KIFKEQ_clean_linker_1, # of connection points: 2
#     Edge 66, Type (0, 0), BuildingBlock: KIFKEQ_clean_linker_1, # of connection points: 2
#     Edge 67, Type (0, 0), BuildingBlock: KIFKEQ_clean_linker_1, # of connection points: 2
#     Edge 68, Type (0, 0), BuildingBlock: KIFKEQ_clean_linker_1, # of connection points: 2
#     Edge 69, Type (0, 0), BuildingBlock: KIFKEQ_clean_linker_1, # of connection points: 2
#     Edge 70, Type (0, 0), BuildingBlock: KIFKEQ_clean_linker_1, # of connection points: 2
#     Edge 71, Type (0, 0), BuildingBlock: KIFKEQ_clean_linker_1, # of connection points: 2
#     Edge 72, Type (0, 0), BuildingBlock: KIFKEQ_clean_linker_1, # of connection points: 2
#     Edge 73, Type (0, 0), BuildingBlock: KIFKEQ_clean_linker_1, # of connection points: 2
#     Edge 74, Type (0, 0), BuildingBlock: KIFKEQ_clean_linker_1, # of connection points: 2
#     Edge 75, Type (0, 0), BuildingBlock: KIFKEQ_clean_linker_1, # of connection points: 2
#     Edge 76, Type (0, 0), BuildingBlock: KIFKEQ_clean_linker_1, # of connection points: 2
#     Edge 77, Type (0, 0), BuildingBlock: KIFKEQ_clean_linker_1, # of connection points: 2
#     Edge 78, Type (0, 0), BuildingBlock: KIFKEQ_clean_linker_1, # of connection points: 2
#     Edge 79, Type (0, 0), BuildingBlock: KIFKEQ_clean_linker_1, # of connection points: 2
#     Edge 80, Type (0, 0), BuildingBlock: KIFKEQ_clean_linker_1, # of connection points: 2
#     Edge 81, Type (0, 0), BuildingBlock: KIFKEQ_clean_linker_1, # of connection points: 2
#     Edge 82, Type (0, 0), BuildingBlock: KIFKEQ_clean_linker_1, # of connection points: 2
#     Edge 83, Type (0, 0), BuildingBlock: KIFKEQ_clean_linker_1, # of connection points: 2
# Relax obj value: 0.242
# Max RMSD: 0.244
# Mean RMSD: 0.244
data_MOF--net-pcu-i--node1-XOMCOT_clean_sbu_1--edge1-KIFKEQ_clean_linker_1
_symmetry_space_group_name_H-M    P1
_symmetry_Int_Tables_number       1
_symmetry_cell_setting            triclinic
loop_
_symmetry_equiv_pos_as_xyz
'x, y, z'
_cell_length_a     57.66042
_cell_length_b     57.721965
_cell_length_c     57.677347
_cell_angle_alpha  90.02946
_cell_angle_beta   90.020199
_cell_angle_gamma 89.99448
loop_
_atom_site_label
_atom_site_type_symbol
_atom_site_fract_x
_atom_site_fract_y
_atom_site_fract_z
_atom_type_partial_charge
C0 C 0.07694 0.17108 0.36192 0.0
C1 C 0.05412 0.16431 0.36194 0.0
N2 N 0.05056 0.15073 0.34332 0.0
N3 N 0.08782 0.16144 0.34359 0.0
C4 C 0.07117 0.14939 0.33234 0.0
H5 H 0.08501 0.18245 0.37443 0.0
Co6 Co 0.11899 0.16477 0.33614 0.0
C7 C 0.13669 0.11718 0.32982 0.0
O8 O 0.15615 0.12316 0.34008 0.0
N9 N 0.15044 0.16874 0.32781 0.0
C10 C 0.1876 0.17865 0.32419 0.0
C11 C 0.16803 0.18071 0.33767 0.0
C12 C 0.1597 0.16041 0.30791 0.0
N13 N 0.18231 0.16575 0.30549 0.0
O14 O 0.11117 0.17252 0.30515 0.0
H15 H 0.16711 0.19059 0.35348 0.0
H16 H 0.15012 0.14977 0.29579 0.0
O17 O 0.12029 0.13192 0.32754 0.0
C18 C 0.10461 0.19318 0.30137 0.0
O19 O 0.09939 0.20644 0.31915 0.0
N20 N 0.12657 0.15843 0.36731 0.0
C21 C 0.13388 0.15458 0.41503 0.0
C22 C 0.12643 0.13545 0.402 0.0
C23 C 0.12243 0.13784 0.37826 0.0
C24 C 0.13254 0.17747 0.37995 0.0
C25 C 0.1368 0.17586 0.40369 0.0
H26 H 0.11492 0.12339 0.36909 0.0
H27 H 0.13318 0.19425 0.37166 0.0
H28 H 0.07408 0.13983 0.31644 0.0
H29 H 0.04095 0.16954 0.37425 0.0
H30 H 0.20438 0.18619 0.32787 0.0
H31 H 0.12281 0.11898 0.41023 0.0
H32 H 0.14203 0.19124 0.41308 0.0
C33 C 0.83155 0.07862 0.36245 0.0
C34 C 0.838 0.05572 0.36294 0.0
N35 N 0.85021 0.0512 0.34358 0.0
N36 N 0.84002 0.08856 0.34305 0.0
C37 C 0.85109 0.07131 0.33174 0.0
H38 H 0.82108 0.08735 0.37531 0.0
Co39 Co 0.83635 0.11916 0.3338 0.0
C40 C 0.88379 0.13673 0.32643 0.0
O41 O 0.87744 0.15645 0.33591 0.0
N42 N 0.83208 0.14987 0.32352 0.0
C43 C 0.82131 0.18627 0.31623 0.0
C44 C 0.81939 0.16795 0.33145 0.0
C45 C 0.84073 0.1575 0.30311 0.0
N46 N 0.83496 0.17958 0.29858 0.0
O47 O 0.82754 0.10936 0.30351 0.0
H48 H 0.80913 0.16815 0.34704 0.0
H49 H 0.85134 0.14701 0.29173 0.0
O50 O 0.86923 0.12008 0.32462 0.0
C51 C 0.80657 0.10272 0.30203 0.0
O52 O 0.79493 0.09918 0.3213 0.0
N53 N 0.84337 0.12864 0.36433 0.0
C54 C 0.84761 0.13626 0.41194 0.0
C55 C 0.86645 0.128 0.39902 0.0
C56 C 0.86387 0.12394 0.3753 0.0
C57 C 0.82469 0.13588 0.37687 0.0
C58 C 0.82655 0.14035 0.40057 0.0
H59 H 0.87798 0.11565 0.36626 0.0
H60 H 0.80782 0.13672 0.36876 0.0
H61 H 0.85944 0.07341 0.31507 0.0
H62 H 0.83334 0.04312 0.37604 0.0
H63 H 0.81371 0.2033 0.31824 0.0
H64 H 0.88284 0.12404 0.40729 0.0
H65 H 0.8113 0.14571 0.41013 0.0
C66 C 0.92001 0.83271 0.36062 0.0
C67 C 0.94282 0.83953 0.36061 0.0
N68 N 0.94673 0.85175 0.34115 0.0
N69 N 0.90947 0.84096 0.34142 0.0
C70 C 0.92633 0.85225 0.32971 0.0
H71 H 0.91179 0.82214 0.37369 0.0
Co72 Co 0.87851 0.83682 0.33305 0.0
C73 C 0.86024 0.88395 0.32564 0.0
O74 O 0.84063 0.87761 0.33534 0.0
N75 N 0.84735 0.83221 0.32378 0.0
C76 C 0.80995 0.8233 0.3201 0.0
C77 C 0.82936 0.82101 0.33378 0.0
C78 C 0.83852 0.84016 0.30351 0.0
N79 N 0.81571 0.83559 0.30114 0.0
O80 O 0.88752 0.82806 0.30258 0.0
H81 H 0.82976 0.81184 0.35001 0.0
H82 H 0.84843 0.85036 0.29129 0.0
O83 O 0.87697 0.8695 0.32383 0.0
C84 C 0.89538 0.80752 0.30127 0.0
O85 O 0.89998 0.79638 0.32061 0.0
N86 N 0.86991 0.84369 0.36383 0.0
C87 C 0.86324 0.84736 0.41168 0.0
C88 C 0.87008 0.86666 0.39857 0.0
C89 C 0.87374 0.86438 0.37475 0.0
C90 C 0.86417 0.82462 0.37647 0.0
C91 C 0.86019 0.82614 0.40026 0.0
H92 H 0.88104 0.87891 0.36557 0.0
H93 H 0.86375 0.80781 0.3682 0.0
H94 H 0.92374 0.86055 0.31308 0.0
H95 H 0.95578 0.83515 0.37348 0.0
H96 H 0.79285 0.81665 0.32402 0.0
H97 H 0.87373 0.88313 0.4068 0.0
H98 H 0.8553 0.81065 0.40964 0.0
C99 C 0.16629 0.92396 0.35737 0.0
C100 C 0.15923 0.94664 0.35755 0.0
N101 N 0.14579 0.95017 0.33884 0.0
N102 N 0.15696 0.91312 0.33885 0.0
C103 C 0.14483 0.9297 0.3276 0.0
H104 H 0.17772 0.91599 0.36989 0.0
Co105 Co 0.16096 0.88204 0.33148 0.0
C106 C 0.11392 0.86346 0.32367 0.0
O107 O 0.12024 0.84409 0.33383 0.0
N108 N 0.16575 0.85069 0.32334 0.0
C109 C 0.17575 0.81353 0.32068 0.0
C110 C 0.17703 0.83319 0.33409 0.0
C111 C 0.15866 0.84131 0.30301 0.0
N112 N 0.16403 0.81867 0.30118 0.0
O113 O 0.17005 0.89 0.30086 0.0
H114 H 0.18574 0.83414 0.35056 0.0
H115 H 0.14868 0.85074 0.29023 0.0
O116 O 0.12833 0.88022 0.32177 0.0
C117 C 0.19112 0.89628 0.29925 0.0
O118 O 0.20258 0.90082 0.31843 0.0
N119 N 0.15356 0.8745 0.36238 0.0
C120 C 0.14899 0.87026 0.4104 0.0
C121 C 0.1299 0.87633 0.39662 0.0
C122 C 0.13263 0.8788 0.3727 0.0
C123 C 0.1724 0.86932 0.37566 0.0
C124 C 0.17043 0.86658 0.39957 0.0
H125 H 0.11826 0.88565 0.36292 0.0
H126 H 0.18938 0.86855 0.36776 0.0
H127 H 0.13556 0.92686 0.31152 0.0
H128 H 0.16421 0.95978 0.37001 0.0
H129 H 0.1828 0.79672 0.32507 0.0
H130 H 0.11326 0.88035 0.40435 0.0
H131 H 0.18576 0.86223 0.40951 0.0
C132 C 0.0875 0.81979 0.63821 0.0
C133 C 0.06374 0.8205 0.63852 0.0
N134 N 0.057 0.83504 0.65552 0.0
N135 N 0.09582 0.83397 0.65478 0.0
C136 C 0.07684 0.84307 0.66511 0.0
H137 H 0.09807 0.80921 0.62692 0.0
Co138 Co 0.1271 0.83671 0.66164 0.0
C139 C 0.13571 0.88563 0.6721 0.0
O140 O 0.15517 0.88379 0.6604 0.0
N141 N 0.15906 0.83847 0.66924 0.0
C142 C 0.19758 0.83645 0.67069 0.0
C143 C 0.17825 0.83174 0.65758 0.0
C144 C 0.16733 0.84627 0.68981 0.0
N145 N 0.19071 0.84584 0.69092 0.0
O146 O 0.12185 0.82331 0.69128 0.0
H147 H 0.17868 0.82375 0.64073 0.0
H148 H 0.1563 0.85304 0.70338 0.0
O149 O 0.12203 0.86824 0.67383 0.0
C150 C 0.12477 0.8016 0.6887 0.0
O151 O 0.1285 0.79371 0.66764 0.0
N152 N 0.13201 0.84773 0.63137 0.0
C153 C 0.13631 0.85672 0.58408 0.0
C154 C 0.12552 0.8728 0.59877 0.0
C155 C 0.12314 0.86778 0.62235 0.0
C156 C 0.14107 0.83136 0.61698 0.0
C157 C 0.14396 0.83569 0.59343 0.0
H158 H 0.11329 0.87959 0.63297 0.0
H159 H 0.14527 0.8144 0.62371 0.0
H160 H 0.07755 0.85461 0.67989 0.0
H161 H 0.05231 0.81086 0.62718 0.0
H162 H 0.21534 0.83307 0.66565 0.0
H163 H 0.11866 0.88892 0.59204 0.0
H164 H 0.15126 0.8223 0.58247 0.0
C165 C 0.16448 0.07574 0.63848 0.0
C166 C 0.15667 0.05326 0.63808 0.0
N167 N 0.14356 0.04975 0.65707 0.0
N168 N 0.15603 0.08644 0.65748 0.0
C169 C 0.14356 0.07007 0.66862 0.0
H170 H 0.1758 0.08368 0.62584 0.0
Co171 Co 0.16103 0.11695 0.6664 0.0
C172 C 0.11418 0.13651 0.67286 0.0
O173 O 0.12133 0.15596 0.66341 0.0
N174 N 0.1665 0.1476 0.67641 0.0
C175 C 0.1784 0.18374 0.68326 0.0
C176 C 0.18007 0.16502 0.66848 0.0
C177 C 0.15765 0.15598 0.69644 0.0
N178 N 0.16404 0.17795 0.70065 0.0
O179 O 0.169 0.10721 0.69688 0.0
H180 H 0.19069 0.16452 0.65313 0.0
H181 H 0.1463 0.14617 0.70771 0.0
O182 O 0.12815 0.11942 0.67505 0.0
C183 C 0.18991 0.10037 0.69852 0.0
O184 O 0.20144 0.09617 0.67932 0.0
N185 N 0.15488 0.12637 0.63571 0.0
C186 C 0.15135 0.13558 0.58829 0.0
C187 C 0.13204 0.12788 0.60091 0.0
C188 C 0.13428 0.12292 0.62448 0.0
C189 C 0.17404 0.13272 0.62345 0.0
C190 C 0.17259 0.13793 0.59989 0.0
H191 H 0.11972 0.11511 0.63323 0.0
H192 H 0.19083 0.13268 0.63177 0.0
H193 H 0.13476 0.07297 0.68494 0.0
H194 H 0.16099 0.04023 0.62528 0.0
H195 H 0.18656 0.20049 0.68104 0.0
H196 H 0.11559 0.12466 0.59244 0.0
H197 H 0.18811 0.14331 0.59079 0.0
C198 C 0.91865 0.16668 0.63437 0.0
C199 C 0.94165 0.16048 0.63379 0.0
N200 N 0.94649 0.14872 0.65334 0.0
N201 N 0.90898 0.15851 0.65405 0.0
C202 C 0.92648 0.14786 0.66538 0.0
H203 H 0.90966 0.17675 0.62138 0.0
Co204 Co 0.87843 0.16182 0.66373 0.0
C205 C 0.86203 0.11399 0.67176 0.0
O206 O 0.84193 0.11969 0.66264 0.0
N207 N 0.84778 0.16563 0.67443 0.0
C208 C 0.81129 0.17591 0.68209 0.0
C209 C 0.82944 0.17807 0.6667 0.0
C210 C 0.84047 0.15688 0.69491 0.0
N211 N 0.81833 0.16236 0.69967 0.0
O212 O 0.88854 0.17116 0.69378 0.0
H213 H 0.82894 0.18833 0.65111 0.0
H214 H 0.85123 0.14643 0.70619 0.0
O215 O 0.87827 0.12904 0.67316 0.0
C216 C 0.89515 0.19217 0.69461 0.0
O217 O 0.89846 0.20326 0.675 0.0
N218 N 0.86857 0.1545 0.63344 0.0
C219 C 0.85992 0.15041 0.58591 0.0
C220 C 0.86841 0.13153 0.59868 0.0
C221 C 0.873 0.13403 0.62233 0.0
C222 C 0.8611 0.17318 0.62111 0.0
C223 C 0.8561 0.17141 0.59754 0.0
H224 H 0.88152 0.11994 0.63117 0.0
H225 H 0.86033 0.18998 0.62933 0.0
H226 H 0.92461 0.13977 0.68221 0.0
H227 H 0.95407 0.16498 0.62046 0.0
H228 H 0.79412 0.18327 0.68025 0.0
H229 H 0.87269 0.11531 0.59027 0.0
H230 H 0.84994 0.1866 0.58842 0.0
C231 C 0.84073 0.91952 0.63596 0.0
C232 C 0.84778 0.94222 0.63593 0.0
N233 N 0.85911 0.94635 0.65589 0.0
N234 N 0.84797 0.90919 0.65567 0.0
C235 C 0.85888 0.92614 0.66766 0.0
H236 H 0.83048 0.91131 0.6226 0.0
Co237 Co 0.8423 0.8786 0.66451 0.0
C238 C 0.88808 0.85729 0.67134 0.0
O239 O 0.87994 0.8386 0.66119 0.0
N240 N 0.83599 0.84795 0.67429 0.0
C241 C 0.82547 0.81111 0.67894 0.0
C242 C 0.82394 0.83022 0.66477 0.0
C243 C 0.84364 0.83932 0.69473 0.0
N244 N 0.83812 0.81684 0.6977 0.0
O245 O 0.83401 0.88855 0.69488 0.0
H246 H 0.81477 0.83057 0.64852 0.0
H247 H 0.85442 0.84907 0.7066 0.0
O248 O 0.87516 0.87521 0.67366 0.0
C249 C 0.81312 0.8956 0.6955 0.0
O250 O 0.80195 0.8982 0.6758 0.0
N251 N 0.84853 0.86915 0.63382 0.0
C252 C 0.85149 0.86154 0.58605 0.0
C253 C 0.87117 0.86792 0.59888 0.0
C254 C 0.86925 0.87207 0.62266 0.0
C255 C 0.82912 0.86387 0.62143 0.0
C256 C 0.83027 0.85942 0.59771 0.0
H257 H 0.88413 0.87899 0.63162 0.0
H258 H 0.81236 0.86426 0.62983 0.0
H259 H 0.86614 0.92381 0.68481 0.0
H260 H 0.84392 0.95502 0.62277 0.0
H261 H 0.81816 0.7942 0.67544 0.0
H262 H 0.88769 0.87085 0.59044 0.0
H263 H 0.81451 0.85494 0.58854 0.0
C264 C 0.35708 0.08125 0.17525 0.0
C265 C 0.35704 0.05756 0.17404 0.0
N266 N 0.33957 0.05091 0.16002 0.0
N267 N 0.33988 0.08968 0.16188 0.0
C268 C 0.32946 0.07077 0.15273 0.0
H269 H 0.36851 0.09165 0.18586 0.0
Co270 Co 0.33209 0.12093 0.16058 0.0
C271 C 0.3246 0.13209 0.11155 0.0
O272 O 0.33549 0.15175 0.11524 0.0
N273 N 0.32351 0.15262 0.1602 0.0
C274 C 0.32058 0.19091 0.16384 0.0
C275 C 0.33405 0.17183 0.16849 0.0
C276 C 0.30316 0.16057 0.15152 0.0
N277 N 0.30121 0.18382 0.15294 0.0
O278 O 0.30163 0.11414 0.17131 0.0
H279 H 0.35042 0.17246 0.17743 0.0
H280 H 0.29044 0.1495 0.1433 0.0
O281 O 0.32222 0.1174 0.12802 0.0
C282 C 0.30122 0.11093 0.19312 0.0
O283 O 0.32104 0.10965 0.20431 0.0
N284 N 0.36293 0.12745 0.15191 0.0
C285 C 0.41068 0.13277 0.14608 0.0
C286 C 0.39715 0.12256 0.12865 0.0
C287 C 0.37335 0.11965 0.13208 0.0
C288 C 0.37612 0.1362 0.16946 0.0
C289 C 0.39989 0.13958 0.16672 0.0
H290 H 0.3637 0.1101 0.11924 0.0
H291 H 0.3683 0.13952 0.18616 0.0
H292 H 0.31414 0.07151 0.1419 0.0
H293 H 0.36874 0.04607 0.18316 0.0
H294 H 0.3248 0.20866 0.16819 0.0
H295 H 0.40496 0.11642 0.11272 0.0
H296 H 0.40989 0.14646 0.18106 0.0
C297 C 0.9145 0.3586 0.17016 0.0
C298 C 0.93814 0.3587 0.16836 0.0
N299 N 0.94461 0.34039 0.15542 0.0
N300 N 0.90588 0.34053 0.1581 0.0
C301 C 0.92469 0.32969 0.14923 0.0
H302 H 0.90437 0.37044 0.18054 0.0
Co303 Co 0.8748 0.33193 0.15881 0.0
C304 C 0.85994 0.32578 0.11063 0.0
O305 O 0.84062 0.33649 0.11624 0.0
N306 N 0.84341 0.32257 0.16059 0.0
C307 C 0.80568 0.31822 0.16764 0.0
C308 C 0.82474 0.33207 0.17115 0.0
C309 C 0.83524 0.30242 0.15171 0.0
N310 N 0.81232 0.29962 0.15526 0.0
O311 O 0.88304 0.30131 0.16761 0.0
H312 H 0.82448 0.3479 0.18099 0.0
H313 H 0.84585 0.29042 0.14194 0.0
O314 O 0.87602 0.3231 0.12572 0.0
C315 C 0.88943 0.2986 0.18853 0.0
O316 O 0.89373 0.31703 0.2012 0.0
N317 N 0.86681 0.36277 0.15165 0.0
C318 C 0.85982 0.41039 0.14725 0.0
C319 C 0.86912 0.3975 0.12887 0.0
C320 C 0.87298 0.3738 0.1316 0.0
C321 C 0.85883 0.3753 0.17001 0.0
C322 C 0.85466 0.39898 0.16806 0.0
H323 H 0.88208 0.36476 0.118 0.0
H324 H 0.85689 0.36708 0.18673 0.0
H325 H 0.92386 0.31355 0.13971 0.0
H326 H 0.94975 0.37092 0.17663 0.0
H327 H 0.78828 0.32158 0.17381 0.0
H328 H 0.87445 0.40583 0.11292 0.0
H329 H 0.84802 0.40833 0.18292 0.0
C330 C 0.63446 0.91603 0.16464 0.0
C331 C 0.63421 0.93843 0.15669 0.0
N332 N 0.65388 0.94211 0.1447 0.0
N333 N 0.65402 0.90547 0.15731 0.0
C334 C 0.66567 0.92193 0.14542 0.0
H335 H 0.62143 0.90815 0.17555 0.0
Co336 Co 0.66332 0.87538 0.16414 0.0
C337 C 0.66891 0.85178 0.11944 0.0
O338 O 0.65838 0.83391 0.12885 0.0
N339 N 0.6738 0.84526 0.17159 0.0
C340 C 0.68151 0.80948 0.18407 0.0
C341 C 0.6661 0.82777 0.18519 0.0
C342 C 0.69425 0.83738 0.16329 0.0
N343 N 0.69903 0.81564 0.16999 0.0
O344 O 0.6938 0.88602 0.17126 0.0
H345 H 0.65035 0.82779 0.19523 0.0
H346 H 0.70529 0.8473 0.15182 0.0
O347 O 0.67194 0.87036 0.13127 0.0
C348 C 0.69594 0.89393 0.19173 0.0
O349 O 0.677 0.89863 0.20351 0.0
N350 N 0.63262 0.86526 0.15872 0.0
C351 C 0.58495 0.85685 0.15544 0.0
C352 C 0.59768 0.86412 0.13604 0.0
C353 C 0.62135 0.86857 0.13811 0.0
C354 C 0.62035 0.85916 0.17795 0.0
C355 C 0.59667 0.85429 0.17662 0.0
H356 H 0.6302 0.87607 0.12343 0.0
H357 H 0.62868 0.85934 0.19472 0.0
H358 H 0.68267 0.91933 0.1379 0.0
H359 H 0.62116 0.9514 0.16042 0.0
H360 H 0.67953 0.79271 0.19222 0.0
H361 H 0.58926 0.86753 0.11961 0.0
H362 H 0.58757 0.84918 0.19221 0.0
C363 C 0.0812 0.63942 0.18001 0.0
C364 C 0.05758 0.64025 0.17759 0.0
N365 N 0.0524 0.65624 0.16139 0.0
N366 N 0.09098 0.65471 0.16532 0.0
C367 C 0.07299 0.66472 0.1541 0.0
H368 H 0.09065 0.62889 0.1923 0.0
Co369 Co 0.12246 0.66148 0.16496 0.0
C370 C 0.13633 0.66131 0.11638 0.0
O371 O 0.1549 0.65002 0.12329 0.0
N372 N 0.15438 0.66928 0.16532 0.0
C373 C 0.19246 0.67286 0.17085 0.0
C374 C 0.17316 0.65968 0.17559 0.0
C375 C 0.16281 0.68868 0.15511 0.0
N376 N 0.1859 0.6911 0.1579 0.0
O377 O 0.11598 0.69309 0.17197 0.0
H378 H 0.17329 0.64431 0.18613 0.0
H379 H 0.15218 0.70054 0.14521 0.0
O380 O 0.12115 0.6677 0.13129 0.0
C381 C 0.11128 0.69581 0.19335 0.0
O382 O 0.10875 0.67731 0.20637 0.0
N383 N 0.1284 0.62959 0.16002 0.0
C384 C 0.13431 0.5816 0.15765 0.0
C385 C 0.12366 0.59368 0.13947 0.0
C386 C 0.12026 0.61754 0.14128 0.0
C387 C 0.137 0.61782 0.17861 0.0
C388 C 0.14064 0.59392 0.17763 0.0
H389 H 0.11036 0.62607 0.12789 0.0
H390 H 0.14034 0.62692 0.19465 0.0
H391 H 0.07489 0.67871 0.14175 0.0
H392 H 0.04511 0.63018 0.18734 0.0
H393 H 0.20994 0.66941 0.17677 0.0
H394 H 0.11725 0.58467 0.12428 0.0
H395 H 0.14819 0.5852 0.19244 0.0
C396 C 0.36785 0.91737 0.83414 0.0
C397 C 0.36834 0.94032 0.84046 0.0
N398 N 0.34843 0.9452 0.85159 0.0
N399 N 0.34786 0.90778 0.84163 0.0
C400 C 0.33627 0.92527 0.85199 0.0
H401 H 0.38108 0.90844 0.82434 0.0
Co402 Co 0.33796 0.87742 0.83752 0.0
C403 C 0.32827 0.86016 0.88478 0.0
O404 O 0.33714 0.84001 0.87893 0.0
N405 N 0.32711 0.847 0.83289 0.0
C406 C 0.31985 0.81042 0.82279 0.0
C407 C 0.33541 0.82849 0.82111 0.0
C408 C 0.30619 0.83989 0.84072 0.0
N409 N 0.30165 0.8177 0.83538 0.0
O410 O 0.30816 0.888 0.82787 0.0
H411 H 0.35163 0.82777 0.81188 0.0
H412 H 0.29459 0.85073 0.85072 0.0
O413 O 0.32773 0.87674 0.87006 0.0
C414 C 0.30714 0.89591 0.80732 0.0
O415 O 0.32663 0.89999 0.79623 0.0
N416 N 0.36801 0.86717 0.84536 0.0
C417 C 0.41555 0.85939 0.85039 0.0
C418 C 0.4021 0.86653 0.86932 0.0
C419 C 0.37847 0.87085 0.86633 0.0
C420 C 0.38094 0.8605 0.82674 0.0
C421 C 0.40463 0.85617 0.82892 0.0
H422 H 0.36919 0.87871 0.88052 0.0
H423 H 0.37312 0.86004 0.80971 0.0
H424 H 0.31912 0.92349 0.85941 0.0
H425 H 0.38181 0.95271 0.83632 0.0
H426 H 0.3221 0.79308 0.81598 0.0
H427 H 0.41004 0.8702 0.88594 0.0
H428 H 0.41446 0.85114 0.81372 0.0
C429 C 0.0835 0.36203 0.82239 0.0
C430 C 0.05985 0.36321 0.82446 0.0
N431 N 0.05284 0.34599 0.83858 0.0
N432 N 0.09146 0.34429 0.83531 0.0
C433 C 0.07238 0.33481 0.84504 0.0
H434 H 0.09413 0.37294 0.81149 0.0
Co435 Co 0.12202 0.33436 0.83547 0.0
C436 C 0.13448 0.32771 0.88441 0.0
O437 O 0.15471 0.33717 0.87986 0.0
N438 N 0.15285 0.32346 0.83464 0.0
C439 C 0.18943 0.31471 0.82563 0.0
C440 C 0.17159 0.33025 0.82228 0.0
C441 C 0.15963 0.30334 0.84461 0.0
N442 N 0.18179 0.29794 0.83985 0.0
O443 O 0.11267 0.30414 0.8264 0.0
H444 H 0.17243 0.34498 0.81088 0.0
H445 H 0.14832 0.29251 0.85493 0.0
O446 O 0.11923 0.32572 0.86838 0.0
C447 C 0.10749 0.30149 0.80514 0.0
O448 O 0.10472 0.31995 0.79213 0.0
N449 N 0.13121 0.36482 0.84304 0.0
C450 C 0.14052 0.41196 0.8487 0.0
C451 C 0.12945 0.39935 0.86624 0.0
C452 C 0.12445 0.37596 0.86286 0.0
C453 C 0.14095 0.37712 0.8254 0.0
C454 C 0.14622 0.40057 0.828 0.0
H455 H 0.11404 0.36729 0.87574 0.0
H456 H 0.14339 0.36908 0.80868 0.0
H457 H 0.07272 0.3193 0.85559 0.0
H458 H 0.04861 0.37547 0.81577 0.0
H459 H 0.20666 0.3157 0.81825 0.0
H460 H 0.12363 0.40773 0.88201 0.0
H461 H 0.15415 0.4098 0.81371 0.0
C462 C 0.63889 0.08061 0.82384 0.0
C463 C 0.63865 0.05743 0.82921 0.0
N464 N 0.65479 0.05353 0.84567 0.0
N465 N 0.65501 0.09129 0.83695 0.0
C466 C 0.66443 0.07438 0.85007 0.0
H467 H 0.62833 0.08908 0.81087 0.0
Co468 Co 0.66348 0.12211 0.83479 0.0
C469 C 0.66821 0.13844 0.8831 0.0
O470 O 0.65844 0.15814 0.87713 0.0
N471 N 0.67299 0.15322 0.83189 0.0
C472 C 0.68042 0.18942 0.82061 0.0
C473 C 0.66562 0.17081 0.81824 0.0
C474 C 0.69264 0.16147 0.84172 0.0
N475 N 0.69727 0.18344 0.83555 0.0
O476 O 0.69445 0.11347 0.82766 0.0
H477 H 0.65097 0.17029 0.80667 0.0
H478 H 0.70371 0.15133 0.85297 0.0
O479 O 0.67098 0.12239 0.86804 0.0
C480 C 0.69814 0.10637 0.80713 0.0
O481 O 0.6803 0.10152 0.79381 0.0
N482 N 0.63239 0.13042 0.84036 0.0
C483 C 0.58477 0.13886 0.84324 0.0
C484 C 0.59699 0.12998 0.86229 0.0
C485 C 0.62067 0.1254 0.86034 0.0
C486 C 0.62051 0.13778 0.82132 0.0
C487 C 0.59683 0.14261 0.82247 0.0
H488 H 0.62916 0.11679 0.8746 0.0
H489 H 0.62925 0.13892 0.8048 0.0
H490 H 0.67871 0.07717 0.86194 0.0
H491 H 0.62754 0.04444 0.82146 0.0
H492 H 0.67888 0.20605 0.81207 0.0
H493 H 0.58816 0.12565 0.87828 0.0
H494 H 0.58803 0.14886 0.80712 0.0
C495 C 0.92133 0.63926 0.83723 0.0
C496 C 0.9439 0.6387 0.84473 0.0
N497 N 0.94828 0.65856 0.85612 0.0
N498 N 0.91135 0.65923 0.84424 0.0
C499 C 0.92836 0.67082 0.85545 0.0
H500 H 0.91294 0.62608 0.8269 0.0
Co501 Co 0.88104 0.66858 0.8382 0.0
C502 C 0.8599 0.6775 0.88369 0.0
O503 O 0.84073 0.66788 0.87597 0.0
N504 N 0.85065 0.67888 0.83136 0.0
C505 C 0.81481 0.68471 0.81821 0.0
C506 C 0.83351 0.66992 0.8181 0.0
C507 C 0.84213 0.6996 0.83839 0.0
N508 N 0.82021 0.70334 0.83118 0.0
O509 O 0.89154 0.69852 0.82952 0.0
H510 H 0.83415 0.65385 0.80866 0.0
H511 H 0.85163 0.71134 0.84952 0.0
O512 O 0.87781 0.67868 0.87064 0.0
C513 C 0.89867 0.69974 0.80871 0.0
O514 O 0.90279 0.68033 0.79752 0.0
N515 N 0.87087 0.63827 0.84528 0.0
C516 C 0.86214 0.59095 0.85029 0.0
C517 C 0.86897 0.60435 0.86937 0.0
C518 C 0.87361 0.6279 0.86644 0.0
C519 C 0.86519 0.6252 0.82642 0.0
C520 C 0.86017 0.60166 0.82861 0.0
H521 H 0.88075 0.63729 0.88095 0.0
H522 H 0.86599 0.63275 0.80931 0.0
H523 H 0.92628 0.68801 0.86267 0.0
H524 H 0.95648 0.62522 0.84119 0.0
H525 H 0.79847 0.68187 0.80942 0.0
H526 H 0.87134 0.59656 0.88629 0.0
H527 H 0.85604 0.59168 0.81324 0.0
C528 C 0.1601 0.36113 0.07749 0.0
C529 C 0.15196 0.36207 0.05513 0.0
N530 N 0.13976 0.34263 0.05097 0.0
N531 N 0.15274 0.34132 0.0875 0.0
C532 C 0.14057 0.33029 0.07081 0.0
H533 H 0.1711 0.37387 0.0857 0.0
Co534 Co 0.15921 0.3311 0.11737 0.0
C535 C 0.11366 0.32374 0.13921 0.0
O536 O 0.12204 0.33288 0.15834 0.0
N537 N 0.16622 0.31983 0.1473 0.0
C538 C 0.17872 0.31212 0.18307 0.0
C539 C 0.17987 0.32748 0.16479 0.0
C540 C 0.1579 0.29938 0.15512 0.0
N541 N 0.16462 0.29463 0.17693 0.0
O542 O 0.16662 0.30102 0.10593 0.0
H543 H 0.18994 0.34319 0.16478 0.0
H544 H 0.1464 0.28838 0.14517 0.0
O545 O 0.12643 0.32219 0.12112 0.0
C546 C 0.18681 0.29923 0.09722 0.0
O547 O 0.19826 0.31832 0.09241 0.0
N548 N 0.1536 0.36137 0.12843 0.0
C549 C 0.15084 0.40848 0.13927 0.0
C550 C 0.13103 0.39614 0.13247 0.0
C551 C 0.13286 0.37273 0.12662 0.0
C552 C 0.17315 0.37336 0.13412 0.0
C553 C 0.17213 0.39677 0.14006 0.0
H554 H 0.11782 0.36427 0.11941 0.0
H555 H 0.18986 0.36498 0.1329 0.0
H556 H 0.13282 0.31335 0.07303 0.0
H557 H 0.15567 0.37547 0.04253 0.0
H558 H 0.18682 0.31417 0.19988 0.0
H559 H 0.11446 0.40475 0.13051 0.0
H560 H 0.18798 0.4057 0.14469 0.0
C561 C 0.17466 0.64376 0.92391 0.0
C562 C 0.16742 0.64282 0.94653 0.0
N563 N 0.1497 0.65773 0.94906 0.0
N564 N 0.1613 0.65894 0.91218 0.0
C565 C 0.14637 0.6675 0.92811 0.0
H566 H 0.18867 0.63382 0.91642 0.0
Co567 Co 0.16398 0.6643 0.88063 0.0
C568 C 0.11617 0.66989 0.86288 0.0
O569 O 0.12203 0.659 0.84375 0.0
N570 N 0.16734 0.67022 0.8486 0.0
C571 C 0.17311 0.66888 0.81042 0.0
C572 C 0.17584 0.6572 0.831 0.0
C573 C 0.1604 0.69007 0.83818 0.0
N574 N 0.16339 0.6895 0.81507 0.0
O575 O 0.17189 0.69575 0.88631 0.0
H576 H 0.18316 0.64011 0.83245 0.0
H577 H 0.15182 0.70411 0.84719 0.0
O578 O 0.13101 0.67266 0.87914 0.0
C579 C 0.19249 0.69943 0.89324 0.0
O580 O 0.20534 0.68168 0.89943 0.0
N581 N 0.15782 0.63274 0.87549 0.0
C582 C 0.15489 0.58475 0.87066 0.0
C583 C 0.13523 0.59783 0.87651 0.0
C584 C 0.13716 0.62179 0.87936 0.0
C585 C 0.17731 0.62008 0.87129 0.0
C586 C 0.1762 0.59616 0.86833 0.0
H587 H 0.12222 0.63118 0.88548 0.0
H588 H 0.19392 0.62874 0.87021 0.0
H589 H 0.13309 0.68022 0.92439 0.0
H590 H 0.17461 0.6321 0.96015 0.0
H591 H 0.17755 0.66257 0.79331 0.0
H592 H 0.11865 0.58956 0.87954 0.0
H593 H 0.1919 0.58674 0.86417 0.0
C594 C 0.3595 0.16487 0.9204 0.0
C595 C 0.35988 0.15726 0.94296 0.0
N596 N 0.34136 0.14348 0.9463 0.0
N597 N 0.341 0.15561 0.90946 0.0
C598 C 0.3301 0.14286 0.9258 0.0
H599 H 0.37182 0.17662 0.9126 0.0
Co600 Co 0.33254 0.16006 0.87865 0.0
C601 C 0.32756 0.11298 0.85925 0.0
O602 O 0.33675 0.12013 0.83967 0.0
N603 N 0.32312 0.16491 0.84762 0.0
C604 C 0.31856 0.1747 0.81054 0.0
C605 C 0.33239 0.17706 0.82985 0.0
C606 C 0.30318 0.15622 0.83876 0.0
N607 N 0.30024 0.16143 0.81619 0.0
O608 O 0.30152 0.16659 0.88769 0.0
H609 H 0.34817 0.18702 0.83039 0.0
H610 H 0.29158 0.14515 0.84848 0.0
O611 O 0.32516 0.12702 0.87624 0.0
C612 C 0.29778 0.18651 0.89631 0.0
O613 O 0.31563 0.19923 0.90256 0.0
N614 N 0.36367 0.15515 0.86997 0.0
C615 C 0.41129 0.15344 0.86122 0.0
C616 C 0.39922 0.13353 0.8682 0.0
C617 C 0.37552 0.13485 0.87295 0.0
C618 C 0.3754 0.17488 0.86445 0.0
C619 C 0.39907 0.17437 0.8595 0.0
H620 H 0.36716 0.11977 0.88013 0.0
H621 H 0.36642 0.19132 0.86461 0.0
H622 H 0.31416 0.13343 0.92276 0.0
H623 H 0.37232 0.16215 0.95614 0.0
H624 H 0.32187 0.18205 0.7936 0.0
H625 H 0.40817 0.11727 0.87092 0.0
H626 H 0.40772 0.19029 0.85467 0.0
C627 C 0.82449 0.36205 0.91487 0.0
C628 C 0.82699 0.36121 0.93846 0.0
N629 N 0.84149 0.3437 0.9437 0.0
N630 N 0.83751 0.34526 0.90513 0.0
C631 C 0.84778 0.33434 0.92315 0.0
H632 H 0.81305 0.37353 0.90548 0.0
Co633 Co 0.83645 0.33784 0.87381 0.0
C634 C 0.88436 0.33355 0.85796 0.0
O635 O 0.87808 0.34514 0.83938 0.0
N636 N 0.83451 0.32945 0.84208 0.0
C637 C 0.82784 0.32582 0.80419 0.0
C638 C 0.82418 0.33934 0.8235 0.0
C639 C 0.8435 0.30949 0.83357 0.0
N640 N 0.84014 0.30707 0.81058 0.0
O641 O 0.82825 0.30674 0.8811 0.0
H642 H 0.81447 0.35526 0.82347 0.0
H643 H 0.85325 0.29734 0.84402 0.0
O644 O 0.8697 0.32964 0.87417 0.0
C645 C 0.80741 0.30365 0.88764 0.0
O646 O 0.79454 0.32184 0.89231 0.0
N647 N 0.84289 0.36917 0.86692 0.0
C648 C 0.84655 0.41717 0.86148 0.0
C649 C 0.86498 0.40426 0.87075 0.0
C650 C 0.86264 0.38038 0.87376 0.0
C651 C 0.82439 0.38164 0.85918 0.0
C652 C 0.82601 0.4055 0.85572 0.0
H653 H 0.87632 0.37124 0.88265 0.0
H654 H 0.80787 0.37317 0.85666 0.0
H655 H 0.85843 0.319 0.92134 0.0
H656 H 0.81819 0.37218 0.9509 0.0
H657 H 0.82181 0.32953 0.78682 0.0
H658 H 0.88073 0.41264 0.87662 0.0
H659 H 0.8111 0.41471 0.849 0.0
C660 C 0.64462 0.82427 0.91698 0.0
C661 C 0.64557 0.82032 0.94043 0.0
N662 N 0.66463 0.83084 0.94892 0.0
N663 N 0.66278 0.83757 0.91067 0.0
C664 C 0.67503 0.84068 0.9304 0.0
H665 H 0.63125 0.81813 0.90536 0.0
Co666 Co 0.66908 0.84834 0.88071 0.0
C667 C 0.67583 0.89428 0.90767 0.0
O668 O 0.66782 0.88881 0.92826 0.0
N669 N 0.6756 0.85969 0.85067 0.0
C670 C 0.67635 0.88466 0.82125 0.0
C671 C 0.66394 0.87702 0.84 0.0
C672 C 0.69509 0.85712 0.83779 0.0
N673 N 0.69611 0.87235 0.82003 0.0
O674 O 0.70081 0.83903 0.88419 0.0
H675 H 0.64823 0.88501 0.84633 0.0
H676 H 0.70916 0.84564 0.84227 0.0
O677 O 0.67587 0.87938 0.89134 0.0
C678 C 0.70145 0.81705 0.88211 0.0
O679 O 0.68182 0.80586 0.87906 0.0
N680 N 0.63754 0.855 0.87666 0.0
C681 C 0.58972 0.85711 0.86963 0.0
C682 C 0.6007 0.87228 0.8852 0.0
C683 C 0.62465 0.87083 0.88862 0.0
C684 C 0.62722 0.84023 0.86139 0.0
C685 C 0.60337 0.84101 0.85755 0.0
H686 H 0.63251 0.88201 0.90129 0.0
H687 H 0.63761 0.82737 0.85254 0.0
H688 H 0.69114 0.85026 0.93119 0.0
H689 H 0.6327 0.81115 0.95053 0.0
H690 H 0.67169 0.89898 0.81008 0.0
H691 H 0.59088 0.88506 0.89482 0.0
H692 H 0.59565 0.82862 0.84575 0.0
C693 C 0.82387 0.63965 0.08022 0.0
C694 C 0.82549 0.64087 0.05658 0.0
N695 N 0.8397 0.65855 0.05111 0.0
N696 N 0.8372 0.65631 0.08975 0.0
C697 C 0.84673 0.66759 0.07156 0.0
H698 H 0.81288 0.62792 0.08982 0.0
Co699 Co 0.83748 0.66301 0.12122 0.0
C700 C 0.88608 0.66745 0.13504 0.0
O701 O 0.88087 0.65536 0.15361 0.0
N702 N 0.83684 0.67055 0.15314 0.0
C703 C 0.83137 0.67337 0.19127 0.0
C704 C 0.82723 0.66018 0.17184 0.0
C705 C 0.84596 0.6904 0.16174 0.0
N706 N 0.84326 0.69235 0.18485 0.0
O707 O 0.82869 0.6941 0.11506 0.0
H708 H 0.81758 0.64422 0.17184 0.0
H709 H 0.85517 0.70288 0.15121 0.0
O710 O 0.87063 0.67157 0.11963 0.0
C711 C 0.80738 0.69684 0.1101 0.0
O712 O 0.79463 0.67845 0.10587 0.0
N713 N 0.8444 0.63173 0.12709 0.0
C714 C 0.84826 0.58387 0.13206 0.0
C715 C 0.86646 0.59677 0.12244 0.0
C716 C 0.86399 0.62065 0.11963 0.0
C717 C 0.82606 0.61919 0.13507 0.0
C718 C 0.82778 0.59534 0.13825 0.0
H719 H 0.87748 0.62994 0.11061 0.0
H720 H 0.80959 0.62764 0.13802 0.0
H721 H 0.85747 0.68287 0.07326 0.0
H722 H 0.81639 0.62995 0.04433 0.0
H723 H 0.82586 0.66934 0.20875 0.0
H724 H 0.88232 0.58845 0.11679 0.0
H725 H 0.81287 0.58585 0.14461 0.0
C726 C 0.36113 0.833 0.07886 0.0
C727 C 0.36143 0.84019 0.0562 0.0
N728 N 0.34195 0.85235 0.05217 0.0
N729 N 0.34172 0.84096 0.08924 0.0
C730 C 0.33017 0.85244 0.07239 0.0
H731 H 0.37413 0.82232 0.0871 0.0
Co732 Co 0.33313 0.83585 0.11993 0.0
C733 C 0.32597 0.88204 0.14025 0.0
O734 O 0.33641 0.87451 0.15906 0.0
N735 N 0.32361 0.83008 0.15078 0.0
C736 C 0.31913 0.81987 0.18775 0.0
C737 C 0.33315 0.81809 0.16853 0.0
C738 C 0.30327 0.83791 0.1595 0.0
N739 N 0.30041 0.83256 0.18205 0.0
O740 O 0.30269 0.82711 0.11042 0.0
H741 H 0.34928 0.80872 0.16811 0.0
H742 H 0.29134 0.84861 0.14973 0.0
O743 O 0.32363 0.86865 0.12269 0.0
C744 C 0.30157 0.80637 0.103 0.0
O745 O 0.32105 0.79538 0.09861 0.0
N746 N 0.36384 0.84266 0.12905 0.0
C747 C 0.41129 0.84687 0.13755 0.0
C748 C 0.39836 0.86597 0.12997 0.0
C749 C 0.37469 0.86343 0.12546 0.0
C750 C 0.37654 0.82368 0.1351 0.0
C751 C 0.40012 0.8255 0.14009 0.0
H752 H 0.36552 0.8779 0.11798 0.0
H753 H 0.36852 0.80676 0.13495 0.0
H754 H 0.31339 0.86049 0.07483 0.0
H755 H 0.37449 0.83601 0.04337 0.0
H756 H 0.32267 0.81263 0.20469 0.0
H757 H 0.40657 0.8826 0.12706 0.0
H758 H 0.40976 0.81009 0.14479 0.0
C759 C 0.6355 0.16114 0.07835 0.0
C760 C 0.63513 0.15472 0.05545 0.0
N761 N 0.65447 0.14248 0.05103 0.0
N762 N 0.65482 0.15261 0.08847 0.0
C763 C 0.66624 0.14158 0.07123 0.0
H764 H 0.62262 0.17169 0.08692 0.0
Co765 Co 0.66345 0.15635 0.11938 0.0
C766 C 0.67129 0.10901 0.13697 0.0
O767 O 0.66175 0.11503 0.15676 0.0
N768 N 0.67291 0.1607 0.1505 0.0
C769 C 0.67683 0.17007 0.18775 0.0
C770 C 0.66305 0.17216 0.16842 0.0
C771 C 0.69321 0.15278 0.1593 0.0
N772 N 0.69573 0.15765 0.18203 0.0
O773 O 0.69388 0.16519 0.11026 0.0
H774 H 0.64691 0.18151 0.16798 0.0
H775 H 0.70541 0.14253 0.1494 0.0
O776 O 0.67284 0.1237 0.12044 0.0
C777 C 0.69541 0.18571 0.10242 0.0
O778 O 0.6762 0.1971 0.09788 0.0
N779 N 0.63274 0.14928 0.12813 0.0
C780 C 0.58485 0.14539 0.13454 0.0
C781 C 0.59808 0.12618 0.12766 0.0
C782 C 0.62192 0.12858 0.12413 0.0
C783 C 0.61999 0.16825 0.13405 0.0
C784 C 0.59619 0.16661 0.1379 0.0
H785 H 0.63117 0.11414 0.11672 0.0
H786 H 0.62815 0.1851 0.13454 0.0
H787 H 0.68292 0.13324 0.07339 0.0
H788 H 0.62212 0.15946 0.04276 0.0
H789 H 0.67308 0.17705 0.20476 0.0
H790 H 0.58992 0.10972 0.1238 0.0
H791 H 0.58671 0.18204 0.14284 0.0
H792 H 0.11579 0.15605 0.56443 0.0
H793 H 0.18287 0.12408 0.55467 0.0
H794 H 0.11203 0.16083 0.52263 0.0
H795 H 0.17963 0.12994 0.51303 0.0
H796 H 0.15361 0.11871 0.43896 0.0
H797 H 0.15798 0.11476 0.48077 0.0
H798 H 0.12739 0.18243 0.49042 0.0
H799 H 0.12192 0.18587 0.44872 0.0
C800 C 0.12978 0.15015 0.55338 0.0
C801 C 0.14961 0.13966 0.56292 0.0
C802 C 0.12775 0.15314 0.52943 0.0
C803 C 0.14553 0.14576 0.51447 0.0
C804 C 0.16549 0.13557 0.52404 0.0
C805 C 0.16749 0.1325 0.54796 0.0
C806 C 0.14765 0.13267 0.45001 0.0
C807 C 0.1374 0.15259 0.44047 0.0
C808 C 0.15042 0.13053 0.47397 0.0
C809 C 0.14306 0.14829 0.48896 0.0
C810 C 0.13301 0.16831 0.4794 0.0
C811 C 0.13017 0.17042 0.45545 0.0
H812 H 0.83254 0.17237 0.43859 0.0
H813 H 0.86614 0.10564 0.44278 0.0
H814 H 0.8344 0.17592 0.48085 0.0
H815 H 0.86819 0.10927 0.48492 0.0
H816 H 0.8434 0.11359 0.56072 0.0
H817 H 0.84016 0.11033 0.51863 0.0
H818 H 0.86585 0.18017 0.51118 0.0
H819 H 0.86976 0.18331 0.55307 0.0
C820 C 0.84033 0.15851 0.44856 0.0
C821 C 0.84931 0.1388 0.43744 0.0
C822 C 0.8415 0.16058 0.47268 0.0
C823 C 0.8514 0.14284 0.48612 0.0
C824 C 0.86028 0.12311 0.47499 0.0
C825 C 0.85935 0.12115 0.45088 0.0
C826 C 0.8485 0.12821 0.55012 0.0
C827 C 0.8568 0.14872 0.56036 0.0
C828 C 0.84659 0.12634 0.52604 0.0
C829 C 0.85275 0.14501 0.51168 0.0
C830 C 0.86069 0.16562 0.52186 0.0
C831 C 0.86281 0.16742 0.5459 0.0
H832 H 0.87648 0.81554 0.44434 0.0
H833 H 0.84481 0.88302 0.43707 0.0
H834 H 0.8727 0.81824 0.48621 0.0
H835 H 0.84228 0.8863 0.47909 0.0
H836 H 0.81975 0.87541 0.55354 0.0
H837 H 0.82187 0.87103 0.5117 0.0
H838 H 0.889 0.83841 0.51853 0.0
H839 H 0.88625 0.84156 0.56055 0.0
C840 C 0.86859 0.83092 0.45164 0.0
C841 C 0.8608 0.84901 0.43728 0.0
C842 C 0.86676 0.83261 0.47572 0.0
C843 C 0.85725 0.85251 0.48606 0.0
C844 C 0.84944 0.8706 0.47171 0.0
C845 C 0.85114 0.86885 0.44761 0.0
C846 C 0.83479 0.86691 0.54619 0.0
C847 C 0.85278 0.8587 0.56047 0.0
C848 C 0.83616 0.86473 0.52213 0.0
C849 C 0.85563 0.85445 0.51171 0.0
C850 C 0.87361 0.84618 0.52597 0.0
C851 C 0.87218 0.84824 0.55007 0.0
H852 H 0.10319 0.87337 0.55453 0.0
H853 H 0.1741 0.84934 0.55678 0.0
H854 H 0.10609 0.87789 0.51246 0.0
H855 H 0.17687 0.85346 0.51477 0.0
H856 H 0.17996 0.88611 0.44265 0.0
H857 H 0.17684 0.88431 0.48471 0.0
H858 H 0.10999 0.85117 0.47838 0.0
H859 H 0.11322 0.85261 0.43618 0.0
C860 C 0.11945 0.86931 0.54605 0.0
C861 C 0.13843 0.86101 0.55887 0.0
C862 C 0.12102 0.87166 0.52199 0.0
C863 C 0.14167 0.86594 0.51037 0.0
C864 C 0.1608 0.85816 0.52329 0.0
C865 C 0.15917 0.85565 0.54728 0.0
C866 C 0.16471 0.87816 0.45018 0.0
C867 C 0.14693 0.86929 0.43604 0.0
C868 C 0.1629 0.87725 0.47428 0.0
C869 C 0.14319 0.86758 0.48479 0.0
C870 C 0.12525 0.85898 0.47072 0.0
C871 C 0.12712 0.85978 0.44658 0.0
H872 H 0.44111 0.10031 0.1299 0.0
H873 H 0.43769 0.17006 0.15683 0.0
H874 H 0.48328 0.10345 0.12708 0.0
H875 H 0.47989 0.17307 0.15436 0.0
H876 H 0.55243 0.17726 0.12089 0.0
H877 H 0.5104 0.17437 0.12358 0.0
H878 H 0.51697 0.10659 0.15453 0.0
H879 H 0.55915 0.10961 0.15233 0.0
C880 C 0.44937 0.11637 0.13502 0.0
C881 C 0.43614 0.13498 0.1435 0.0
C882 C 0.4735 0.11806 0.13366 0.0
C883 C 0.48484 0.13847 0.14057 0.0
C884 C 0.47158 0.15719 0.14877 0.0
C885 C 0.44748 0.15542 0.15032 0.0
C886 C 0.54499 0.16188 0.12864 0.0
C887 C 0.55921 0.14372 0.13655 0.0
C888 C 0.52089 0.16021 0.13007 0.0
C889 C 0.51044 0.14026 0.13925 0.0
C890 C 0.52457 0.12206 0.14711 0.0
C891 C 0.54871 0.12379 0.14584 0.0
H892 H 0.86532 0.55286 0.10062 0.0
H893 H 0.8349 0.55749 0.16891 0.0
H894 H 0.86765 0.51082 0.10449 0.0
H895 H 0.83668 0.51539 0.17254 0.0
H896 H 0.87016 0.44321 0.17983 0.0
H897 H 0.86692 0.48511 0.17625 0.0
H898 H 0.8408 0.47718 0.10649 0.0
H899 H 0.8438 0.43514 0.11013 0.0
C900 C 0.85925 0.54489 0.11649 0.0
C901 C 0.85002 0.55843 0.13452 0.0
C902 C 0.86032 0.52083 0.11859 0.0
C903 C 0.85229 0.50987 0.13878 0.0
C904 C 0.84316 0.52341 0.15685 0.0
C905 C 0.84198 0.54746 0.15471 0.0
C906 C 0.86337 0.45036 0.16386 0.0
C907 C 0.85714 0.43585 0.14528 0.0
C908 C 0.86158 0.47436 0.1618 0.0
C909 C 0.85364 0.48438 0.14109 0.0
C910 C 0.84728 0.46992 0.12255 0.0
C911 C 0.84898 0.44588 0.12463 0.0
H912 H 0.55986 0.83891 0.11922 0.0
H913 H 0.55188 0.86799 0.1879 0.0
H914 H 0.5178 0.83673 0.11539 0.0
H915 H 0.50989 0.86487 0.18425 0.0
H916 H 0.44314 0.86599 0.10843 0.0
H917 H 0.48525 0.86739 0.11339 0.0
H918 H 0.4787 0.83287 0.17946 0.0
H919 H 0.43651 0.8314 0.17445 0.0
C920 C 0.54921 0.84481 0.13351 0.0
C921 C 0.55937 0.85372 0.15383 0.0
C922 C 0.52513 0.84348 0.13131 0.0
C923 C 0.51067 0.85073 0.14949 0.0
C924 C 0.5207 0.85899 0.17005 0.0
C925 C 0.54479 0.86063 0.17216 0.0
C926 C 0.45071 0.8589 0.12409 0.0
C927 C 0.43664 0.84866 0.14111 0.0
C928 C 0.47476 0.8595 0.12682 0.0
C929 C 0.48516 0.85015 0.14675 0.0
C930 C 0.47107 0.84026 0.16397 0.0
C931 C 0.44702 0.83935 0.16108 0.0
H932 H 0.18126 0.44199 0.12522 0.0
H933 H 0.11739 0.43224 0.16314 0.0
H934 H 0.17841 0.48366 0.13111 0.0
H935 H 0.1141 0.4741 0.16831 0.0
H936 H 0.12703 0.54886 0.1913 0.0
H937 H 0.1323 0.50701 0.1882 0.0
H938 H 0.15395 0.51503 0.11694 0.0
H939 H 0.14946 0.55687 0.12029 0.0
C940 C 0.16672 0.44871 0.13501 0.0
C941 C 0.14956 0.43378 0.14375 0.0
C942 C 0.16494 0.47263 0.13813 0.0
C943 C 0.14598 0.4822 0.15007 0.0
C944 C 0.12903 0.46725 0.1592 0.0
C945 C 0.13079 0.4433 0.15604 0.0
C946 C 0.13322 0.54171 0.17508 0.0
C947 C 0.13786 0.55618 0.15604 0.0
C948 C 0.13598 0.51771 0.17323 0.0
C949 C 0.14353 0.5077 0.15233 0.0
C950 C 0.14836 0.52221 0.13337 0.0
C951 C 0.14555 0.54616 0.1352 0.0
H952 H 0.44828 0.87616 0.82072 0.0
H953 H 0.44048 0.83895 0.88518 0.0
H954 H 0.49023 0.8754 0.82525 0.0
H955 H 0.48259 0.8378 0.88959 0.0
H956 H 0.55636 0.8633 0.90288 0.0
H957 H 0.51444 0.86339 0.89785 0.0
H958 H 0.52319 0.85025 0.8246 0.0
H959 H 0.5651 0.85143 0.8294 0.0
C960 C 0.45558 0.86743 0.83566 0.0
C961 C 0.4411 0.85753 0.85255 0.0
C962 C 0.47964 0.86701 0.83827 0.0
C963 C 0.48981 0.85657 0.8578 0.0
C964 C 0.47532 0.84633 0.87454 0.0
C965 C 0.45122 0.84689 0.87198 0.0
C966 C 0.54936 0.86078 0.88563 0.0
C967 C 0.56413 0.85745 0.86653 0.0
C968 C 0.5253 0.86047 0.88281 0.0
C969 C 0.51542 0.85672 0.86084 0.0
C970 C 0.53019 0.85341 0.84173 0.0
C971 C 0.55425 0.85384 0.84454 0.0
H972 H 0.1561 0.43504 0.88705 0.0
H973 H 0.13327 0.44599 0.81653 0.0
H974 H 0.15978 0.47682 0.89234 0.0
H975 H 0.13779 0.48765 0.82155 0.0
H976 H 0.12097 0.56044 0.84826 0.0
H977 H 0.11836 0.51861 0.8429 0.0
H978 H 0.18304 0.50985 0.87972 0.0
H979 H 0.18521 0.55158 0.88584 0.0
C980 C 0.15201 0.44637 0.87265 0.0
C981 C 0.14437 0.43722 0.85139 0.0
C982 C 0.15432 0.47027 0.87561 0.0
C983 C 0.149 0.48553 0.85738 0.0
C984 C 0.14175 0.47635 0.83601 0.0
C985 C 0.13946 0.45246 0.83304 0.0
C986 C 0.13451 0.54955 0.8554 0.0
C987 C 0.15329 0.55931 0.86746 0.0
C988 C 0.13316 0.52563 0.85208 0.0
C989 C 0.15055 0.51094 0.86079 0.0
C990 C 0.16929 0.52069 0.87294 0.0
C991 C 0.17065 0.54462 0.87624 0.0
H992 H 0.43603 0.1195 0.83923 0.0
H993 H 0.44406 0.18534 0.87401 0.0
H994 H 0.47792 0.11705 0.83428 0.0
H995 H 0.48582 0.18341 0.86808 0.0
H996 H 0.56024 0.15733 0.87936 0.0
H997 H 0.51835 0.16152 0.88276 0.0
H998 H 0.50996 0.13422 0.81348 0.0
H999 H 0.55177 0.12901 0.8105 0.0
C1000 C 0.44672 0.1335 0.84572 0.0
C1001 C 0.43669 0.15258 0.85707 0.0
C1002 C 0.47071 0.13224 0.84262 0.0
C1003 C 0.48522 0.15004 0.85079 0.0
C1004 C 0.47515 0.16929 0.86182 0.0
C1005 C 0.45117 0.17053 0.86495 0.0
C1006 C 0.54945 0.15212 0.8649 0.0
C1007 C 0.55936 0.14277 0.8447 0.0
C1008 C 0.52545 0.15478 0.86673 0.0
C1009 C 0.5108 0.14819 0.84839 0.0
C1010 C 0.52074 0.13922 0.82803 0.0
C1011 C 0.54474 0.13652 0.82621 0.0
H1012 H 0.82691 0.56442 0.83304 0.0
H1013 H 0.89064 0.56028 0.87217 0.0
H1014 H 0.82282 0.52225 0.83528 0.0
H1015 H 0.88648 0.51823 0.87453 0.0
H1016 H 0.88441 0.44271 0.84836 0.0
H1017 H 0.88775 0.48477 0.84603 0.0
H1018 H 0.81609 0.49175 0.86646 0.0
H1019 H 0.8128 0.44978 0.86952 0.0
C1020 C 0.83997 0.55448 0.84216 0.0
C1021 C 0.85903 0.56558 0.85251 0.0
C1022 C 0.83758 0.53042 0.84355 0.0
C1023 C 0.85438 0.51702 0.85502 0.0
C1024 C 0.87339 0.52814 0.86541 0.0
C1025 C 0.87563 0.55219 0.86427 0.0
C1026 C 0.8694 0.45318 0.85257 0.0
C1027 C 0.84834 0.44278 0.85914 0.0
C1028 C 0.87133 0.47726 0.85118 0.0
C1029 C 0.85218 0.49148 0.8561 0.0
C1030 C 0.83104 0.48117 0.86232 0.0
C1031 C 0.82917 0.45709 0.86396 0.0
H1032 H 0.1213 0.97968 0.36497 0.0
H1033 H 0.15097 0.97035 0.29708 0.0
H1034 H 0.11346 0.02039 0.35617 0.0
H1035 H 0.14367 0.01139 0.28827 0.0
H1036 H 0.09644 0.09229 0.33149 0.0
H1037 H 0.09266 0.05006 0.32795 0.0
H1038 H 0.1653 0.04512 0.31049 0.0
H1039 H 0.16918 0.08703 0.31455 0.0
C1040 C 0.12547 0.98631 0.34791 0.0
C1041 C 0.13673 0.97214 0.33169 0.0
C1042 C 0.12091 0.00948 0.34281 0.0
C1043 C 0.12802 0.01897 0.32156 0.0
C1044 C 0.13798 0.0044 0.30474 0.0
C1045 C 0.14207 0.98103 0.3097 0.0
C1046 C 0.11141 0.08217 0.32632 0.0
C1047 C 0.13316 0.09274 0.32352 0.0
C1048 C 0.10924 0.0581 0.32432 0.0
C1049 C 0.12868 0.04443 0.3189 0.0
C1050 C 0.14999 0.05529 0.31441 0.0
C1051 C 0.15226 0.07921 0.31693 0.0
H1052 H 0.90968 0.09762 0.33275 0.0
H1053 H 0.91355 0.16842 0.30902 0.0
H1054 H 0.95221 0.09517 0.33205 0.0
H1055 H 0.95577 0.16579 0.30772 0.0
H1056 H 0.03215 0.15232 0.30035 0.0
H1057 H 0.99174 0.14347 0.29002 0.0
H1058 H 0.97927 0.11984 0.35991 0.0
H1059 H 0.01936 0.12916 0.3702 0.0
C1060 C 0.9196 0.11233 0.32661 0.0
C1061 C 0.90849 0.13327 0.32109 0.0
C1062 C 0.94384 0.11095 0.32627 0.0
C1063 C 0.95719 0.1303 0.31983 0.0
C1064 C 0.9459 0.15056 0.31251 0.0
C1065 C 0.92178 0.15211 0.31338 0.0
C1066 C 0.02086 0.14462 0.31322 0.0
C1067 C 0.02862 0.14152 0.33607 0.0
C1068 C 0.99783 0.13963 0.30736 0.0
C1069 C 0.98247 0.13095 0.32418 0.0
C1070 C 0.99081 0.12625 0.34656 0.0
C1071 C 0.01362 0.13172 0.3525 0.0
H1072 H 0.82832 0.91424 0.30953 0.0
H1073 H 0.89982 0.9093 0.3312 0.0
H1074 H 0.83142 0.95641 0.30864 0.0
H1075 H 0.90276 0.95173 0.33088 0.0
H1076 H 0.84648 0.03255 0.30085 0.0
H1077 H 0.85394 0.99198 0.29038 0.0
H1078 H 0.87923 0.97898 0.35962 0.0
H1079 H 0.87137 0.01931 0.37008 0.0
C1080 C 0.84485 0.92222 0.31355 0.0
C1081 C 0.86378 0.90866 0.32055 0.0
C1082 C 0.84667 0.9463 0.31291 0.0
C1083 C 0.86731 0.95724 0.31976 0.0
C1084 C 0.88669 0.94363 0.3255 0.0
C1085 C 0.88502 0.91944 0.32561 0.0
C1086 C 0.85421 0.0211 0.31355 0.0
C1087 C 0.85823 0.02883 0.33628 0.0
C1088 C 0.85841 0.99797 0.30762 0.0
C1089 C 0.86719 0.98246 0.3242 0.0
C1090 C 0.87271 0.99067 0.34645 0.0
C1091 C 0.86806 0.01361 0.35249 0.0
H1092 H 0.97814 0.87443 0.36694 0.0
H1093 H 0.96538 0.84734 0.29848 0.0
H1094 H 0.01838 0.88266 0.35635 0.0
H1095 H 0.00591 0.85514 0.28786 0.0
H1096 H 0.08814 0.90291 0.32821 0.0
H1097 H 0.04564 0.90547 0.32748 0.0
H1098 H 0.04175 0.83378 0.3065 0.0
H1099 H 0.08398 0.83107 0.30778 0.0
C1100 C 0.98392 0.87075 0.34946 0.0
C1101 C 0.96887 0.86018 0.33354 0.0
C1102 C 0.00682 0.87559 0.34333 0.0
C1103 C 0.0152 0.86952 0.32129 0.0
C1104 C -0.0002 0.86003 0.30494 0.0
C1105 C 0.9767 0.85565 0.31095 0.0
C1106 C 0.07817 0.88795 0.32279 0.0
C1107 C 0.08919 0.86674 0.31822 0.0
C1108 C 0.05393 0.88939 0.32245 0.0
C1109 C 0.04049 0.86981 0.31696 0.0
C1110 C 0.05169 0.84918 0.31057 0.0
C1111 C 0.07582 0.84759 0.31143 0.0
H1112 H 0.14232 0.03262 0.70066 0.0
H1113 H 0.12347 0.01764 0.62987 0.0
H1114 H 0.13271 0.99273 0.71165 0.0
H1115 H 0.11375 0.97794 0.64074 0.0
H1116 H 0.09482 0.90796 0.66402 0.0
H1117 H 0.08922 0.95011 0.66566 0.0
H1118 H 0.15625 0.95753 0.69829 0.0
H1119 H 0.16194 0.91576 0.69611 0.0
C1120 C 0.13542 0.02099 0.68764 0.0
C1121 C 0.1339 0.028 0.66437 0.0
C1122 C 0.12997 0.99821 0.6939 0.0
C1123 C 0.12251 0.98226 0.67705 0.0
C1124 C 0.11919 0.9899 0.65416 0.0
C1125 C 0.125 0.01251 0.64786 0.0
C1126 C 0.10784 0.9186 0.6724 0.0
C1127 C 0.12884 0.90885 0.67985 0.0
C1128 C 0.10472 0.94266 0.67322 0.0
C1129 C 0.12238 0.95707 0.68195 0.0
C1130 C 0.14226 0.94689 0.69166 0.0
C1131 C 0.14557 0.923 0.69037 0.0
H1132 H 0.08797 0.09756 0.66715 0.0
H1133 H 0.08427 0.16935 0.68787 0.0
H1134 H 0.04544 0.09559 0.66676 0.0
H1135 H 0.04198 0.1672 0.68809 0.0
H1136 H 0.96529 0.15282 0.69598 0.0
H1137 H 0.00585 0.14521 0.70651 0.0
H1138 H 0.01883 0.11962 0.63739 0.0
H1139 H 0.97851 0.12765 0.62684 0.0
C1140 C 0.07807 0.11264 0.67236 0.0
C1141 C 0.08925 0.13366 0.67739 0.0
C1142 C 0.05382 0.11153 0.67206 0.0
C1143 C 0.04055 0.13125 0.67738 0.0
C1144 C 0.05184 0.15171 0.68414 0.0
C1145 C 0.07598 0.15297 0.6839 0.0
C1146 C 0.97674 0.14505 0.6833 0.0
C1147 C 0.96899 0.14094 0.66058 0.0
C1148 C -0.00015 0.14075 0.68928 0.0
C1149 C 0.01535 0.13179 0.67276 0.0
C1150 C 0.00715 0.12629 0.6505 0.0
C1151 C 0.98422 0.13104 0.64441 0.0
H1152 H 0.85196 0.96538 0.69806 0.0
H1153 H 0.88247 0.97796 0.63105 0.0
H1154 H 0.85751 0.00631 0.70829 0.0
H1155 H 0.88835 0.01865 0.64122 0.0
H1156 H 0.83088 0.08243 0.6871 0.0
H1157 H 0.83579 0.04051 0.68897 0.0
H1158 H 0.90767 0.04793 0.6694 0.0
H1159 H 0.90283 0.09015 0.66791 0.0
C1160 C 0.86057 0.97676 0.68588 0.0
C1161 C 0.86669 0.96871 0.66374 0.0
C1162 C 0.86364 0.00013 0.69165 0.0
C1163 C 0.87331 0.01562 0.67552 0.0
C1164 C 0.88107 0.00707 0.65408 0.0
C1165 C 0.87759 0.98388 0.64818 0.0
C1166 C 0.84788 0.07514 0.6838 0.0
C1167 C 0.86642 0.08943 0.67718 0.0
C1168 C 0.85074 0.05117 0.68504 0.0
C1169 C 0.8721 0.041 0.67927 0.0
C1170 C 0.89103 0.05539 0.67392 0.0
C1171 C 0.88829 0.07948 0.67314 0.0
H1172 H 0.02069 0.80584 0.65205 0.0
H1173 H 0.03981 0.87442 0.67503 0.0
H1174 H 0.98054 0.81375 0.66109 0.0
H1175 H 0.99914 0.88223 0.68503 0.0
H1176 H 0.91938 0.89223 0.66413 0.0
H1177 H 0.96174 0.88828 0.66477 0.0
H1178 H 0.95461 0.81925 0.69288 0.0
H1179 H 0.91257 0.82292 0.69121 0.0
C1180 C 0.01631 0.82264 0.65915 0.0
C1181 C 0.03344 0.83958 0.66257 0.0
C1182 C 0.99325 0.82707 0.66472 0.0
C1183 C 0.98657 0.84858 0.67402 0.0
C1184 C 0.00372 0.86551 0.67785 0.0
C1185 C 0.02699 0.86099 0.67229 0.0
C1186 C 0.927 0.87652 0.67104 0.0
C1187 C 0.91288 0.85774 0.67733 0.0
C1188 C 0.95123 0.87423 0.67142 0.0
C1189 C 0.96154 0.85322 0.67835 0.0
C1190 C 0.94723 0.8354 0.6868 0.0
C1191 C 0.92318 0.83754 0.68603 0.0
H1192 H 0.36884 0.1235 0.97818 0.0
H1193 H 0.29788 0.14201 0.96365 0.0
H1194 H 0.35823 0.1135 0.01794 0.0
H1195 H 0.28716 0.13225 0.00366 0.0
H1196 H 0.3025 0.15994 0.08138 0.0
H1197 H 0.30119 0.15562 0.03935 0.0
H1198 H 0.33283 0.08807 0.04527 0.0
H1199 H 0.33357 0.09226 0.08768 0.0
C1200 C 0.35087 0.12489 0.98343 0.0
C1201 C 0.33421 0.13371 0.96805 0.0
C1202 C 0.34473 0.11896 0.00607 0.0
C1203 C 0.32186 0.12212 0.01386 0.0
C1204 C 0.30489 0.12961 0.99804 0.0
C1205 C 0.31098 0.13514 0.97521 0.0
C1206 C 0.30831 0.1438 0.07371 0.0
C1207 C 0.31817 0.12645 0.08758 0.0
C1208 C 0.30749 0.14128 0.04969 0.0
C1209 C 0.31703 0.12156 0.03907 0.0
C1210 C 0.32537 0.10343 0.05308 0.0
C1211 C 0.32569 0.10575 0.07726 0.0
H1212 H 0.89541 0.33681 0.08124 0.0
H1213 H 0.83037 0.30021 0.08539 0.0
H1214 H 0.89338 0.3355 0.03875 0.0
H1215 H 0.8287 0.29797 0.04322 0.0
H1216 H 0.81169 0.34215 0.97936 0.0
H1217 H 0.81987 0.33124 0.01905 0.0
H1218 H 0.89047 0.31458 0.0002 0.0
H1219 H 0.88209 0.32608 0.95989 0.0
C1220 C 0.88127 0.32757 0.07302 0.0
C1221 C 0.86292 0.31879 0.08635 0.0
C1222 C 0.88007 0.3268 0.04873 0.0
C1223 C 0.86059 0.3171 0.03766 0.0
C1224 C 0.84364 0.30605 0.05124 0.0
C1225 C 0.84465 0.30717 0.07535 0.0
C1226 C 0.82894 0.3361 0.98362 0.0
C1227 C 0.84632 0.33521 0.96664 0.0
C1228 C 0.83359 0.32951 0.00633 0.0
C1229 C 0.8558 0.32183 0.01278 0.0
C1230 C 0.8732 0.32043 0.99572 0.0
C1231 C 0.86841 0.32687 0.97272 0.0
H1232 H 0.6542 0.80125 0.98364 0.0
H1233 H 0.68866 0.86605 0.96912 0.0
H1234 H 0.65987 0.80738 0.02481 0.0
H1235 H 0.69537 0.87177 0.01056 0.0
H1236 H 0.6693 0.88633 0.08681 0.0
H1237 H 0.67278 0.8812 0.04477 0.0
H1238 H 0.68753 0.80849 0.05504 0.0
H1239 H 0.68294 0.81348 0.09662 0.0
C1240 C 0.66325 0.81669 0.98923 0.0
C1241 C 0.67076 0.83323 0.97305 0.0
C1242 C 0.6668 0.82011 0.01289 0.0
C1243 C 0.67814 0.84009 0.02107 0.0
C1244 C 0.68639 0.8563 0.00486 0.0
C1245 C 0.68278 0.85288 0.98109 0.0
C1246 C 0.67374 0.86941 0.07999 0.0
C1247 C 0.67552 0.85023 0.09483 0.0
C1248 C 0.6758 0.86644 0.05594 0.0
C1249 C 0.67996 0.8443 0.04648 0.0
C1250 C 0.68363 0.82562 0.06165 0.0
C1251 C 0.68118 0.8285 0.0855 0.0
H1252 H 0.15018 0.63034 0.08452 0.0
H1253 H 0.1118 0.6942 0.09171 0.0
H1254 H 0.14529 0.63172 0.04295 0.0
H1255 H 0.10698 0.69574 0.04917 0.0
H1256 H 0.14768 0.6974 0.97356 0.0
H1257 H 0.13698 0.7002 0.01474 0.0
H1258 H 0.11369 0.62911 0.01311 0.0
H1259 H 0.12508 0.62636 0.97238 0.0
C1260 C 0.14057 0.64469 0.07716 0.0
C1261 C 0.13156 0.66229 0.0913 0.0
C1262 C 0.13751 0.64533 0.0533 0.0
C1263 C 0.12553 0.66371 0.04282 0.0
C1264 C 0.11618 0.68132 0.05689 0.0
C1265 C 0.1189 0.68044 0.0811 0.0
C1266 C 0.13938 0.6828 0.98192 0.0
C1267 C 0.1373 0.66162 0.97018 0.0
C1268 C 0.13322 0.68437 0.00538 0.0
C1269 C 0.12487 0.66474 0.01716 0.0
C1270 C 0.12038 0.6444 0.00452 0.0
C1271 C 0.12679 0.6428 0.98129 0.0
H1272 H 0.29961 0.84751 0.0328 0.0
H1273 H 0.36797 0.87538 0.0213 0.0
H1274 H 0.28982 0.85462 0.99196 0.0
H1275 H 0.35824 0.88285 0.98073 0.0
H1276 H 0.31119 0.8289 0.91528 0.0
H1277 H 0.30876 0.83291 0.9573 0.0
H1278 H 0.33082 0.90418 0.95189 0.0
H1279 H 0.33284 0.90027 0.90957 0.0
C1280 C 0.31221 0.85588 0.02169 0.0
C1281 C 0.33456 0.86078 0.02997 0.0
C1282 C 0.30667 0.85986 0.99839 0.0
C1283 C 0.32329 0.86926 0.98323 0.0
C1284 C 0.34502 0.87582 0.99207 0.0
C1285 C 0.35066 0.87142 0.01517 0.0
C1286 C 0.31489 0.8456 0.92303 0.0
C1287 C 0.32238 0.86421 0.90929 0.0
C1288 C 0.31333 0.84795 0.94705 0.0
C1289 C 0.31967 0.86883 0.95782 0.0
C1290 C 0.32584 0.8879 0.94397 0.0
C1291 C 0.32693 0.88569 0.91981 0.0
H1292 H 0.16353 0.30893 0.91582 0.0
H1293 H 0.09367 0.33445 0.90752 0.0
H1294 H 0.15804 0.30699 0.95765 0.0
H1295 H 0.08826 0.33304 0.94977 0.0
H1296 H 0.11821 0.36945 0.01951 0.0
H1297 H 0.11039 0.3595 0.97907 0.0
H1298 H 0.13445 0.28978 0.99163 0.0
H1299 H 0.14209 0.29981 0.03222 0.0
C1300 C 0.14678 0.31354 0.92298 0.0
C1301 C 0.12907 0.32196 0.90861 0.0
C1302 C 0.14357 0.31229 0.94689 0.0
C1303 C 0.12274 0.31993 0.95691 0.0
C1304 C 0.10447 0.32704 0.9424 0.0
C1305 C 0.10752 0.32777 0.91832 0.0
C1306 C 0.12121 0.35186 0.01371 0.0
C1307 C 0.13096 0.33546 0.0288 0.0
C1308 C 0.11655 0.34608 0.99068 0.0
C1309 C 0.1219 0.32389 0.98225 0.0
C1310 C 0.13018 0.30701 0.99774 0.0
C1311 C 0.13448 0.31271 0.02092 0.0
H1312 H 0.69649 0.14854 0.03147 0.0
H1313 H 0.6285 0.11984 0.0198 0.0
H1314 H 0.70597 0.14275 0.99033 0.0
H1315 H 0.63797 0.11358 0.97893 0.0
H1316 H 0.6828 0.17005 0.9145 0.0
H1317 H 0.68514 0.16533 0.95648 0.0
H1318 H 0.66662 0.09319 0.94944 0.0
H1319 H 0.66481 0.09781 0.90715 0.0
C1320 C 0.68394 0.14025 0.02023 0.0
C1321 C 0.66176 0.13472 0.02856 0.0
C1322 C 0.68929 0.13702 0.99678 0.0
C1323 C 0.67268 0.12773 0.98153 0.0
C1324 C 0.65117 0.12053 0.99036 0.0
C1325 C 0.64568 0.12423 0.01363 0.0
C1326 C 0.6798 0.15306 0.9219 0.0
C1327 C 0.67345 0.13434 0.90772 0.0
C1328 C 0.68132 0.15031 0.94587 0.0
C1329 C 0.67605 0.1289 0.95614 0.0
C1330 C 0.67081 0.10985 0.94187 0.0
C1331 C 0.66982 0.11248 0.91776 0.0
H1332 H 0.82685 0.69929 0.90846 0.0
H1333 H 0.8951 0.66926 0.91433 0.0
H1334 H 0.824 0.70144 0.95054 0.0
H1335 H 0.8919 0.67028 0.95669 0.0
H1336 H 0.87925 0.67831 0.03479 0.0
H1337 H 0.88695 0.69008 0.99452 0.0
H1338 H 0.81746 0.66921 0.97565 0.0
H1339 H 0.8098 0.65834 0.01537 0.0
C1340 C 0.84143 0.69359 0.91886 0.0
C1341 C 0.86104 0.68385 0.90833 0.0
C1342 C 0.83978 0.69467 0.94293 0.0
C1343 C 0.85744 0.68542 0.95697 0.0
C1344 C 0.87799 0.67757 0.94638 0.0
C1345 C 0.87984 0.67693 0.92216 0.0
C1346 C 0.86562 0.67668 0.02198 0.0
C1347 C 0.84404 0.66716 0.0281 0.0
C1348 C 0.87004 0.68327 0.99898 0.0
C1349 C 0.85279 0.68072 0.98188 0.0
C1350 C 0.83104 0.67186 0.98836 0.0
C1351 C 0.82673 0.66524 0.01112 0.0
H1352 H 0.97997 0.34504 0.18542 0.0
H1353 H 0.9624 0.31813 0.11784 0.0
H1354 H 0.0202 0.33537 0.17918 0.0
H1355 H 0.0033 0.30748 0.11168 0.0
H1356 H 0.08332 0.329 0.10305 0.0
H1357 H 0.04088 0.32781 0.10559 0.0
H1358 H 0.04611 0.30334 0.17621 0.0
H1359 H 0.08812 0.30584 0.17401 0.0
C1360 C 0.98475 0.33691 0.1692 0.0
C1361 C 0.96809 0.33265 0.15198 0.0
C1362 C 0.00783 0.33098 0.16574 0.0
C1363 C 0.01501 0.32042 0.14499 0.0
C1364 C 0.9983 0.31563 0.12783 0.0
C1365 C 0.97494 0.32157 0.13138 0.0
C1366 C 0.07529 0.32284 0.11887 0.0
C1367 C 0.08885 0.31786 0.13847 0.0
C1368 C 0.05102 0.32208 0.12032 0.0
C1369 C 0.04013 0.31601 0.1413 0.0
C1370 C 0.05394 0.30874 0.16002 0.0
C1371 C 0.07801 0.31001 0.15873 0.0
H1372 H 0.9786 0.63322 0.88063 0.0
H1373 H 0.96857 0.70002 0.84885 0.0
H1374 H 0.01946 0.64237 0.8874 0.0
H1375 H 0.00969 0.70918 0.85521 0.0
H1376 H 0.0914 0.66834 0.90325 0.0
H1377 H 0.04907 0.67105 0.90708 0.0
H1378 H 0.0436 0.6873 0.83422 0.0
H1379 H 0.08561 0.68411 0.83031 0.0
C1380 C 0.98511 0.6501 0.87568 0.0
C1381 C 0.97064 0.66589 0.86416 0.0
C1382 C 0.00838 0.65541 0.87966 0.0
C1383 C 0.01768 0.67646 0.87177 0.0
C1384 C 0.00287 0.69286 0.86148 0.0
C1385 C 0.97942 0.68769 0.85793 0.0
C1386 C 0.08114 0.67309 0.88825 0.0
C1387 C 0.09162 0.67585 0.86644 0.0
C1388 C 0.057 0.67458 0.89042 0.0
C1389 C 0.04315 0.67941 0.87095 0.0
C1390 C 0.05388 0.68382 0.84956 0.0
C1391 C 0.07788 0.68183 0.84728 0.0
H1392 H 0.33274 0.08769 0.89889 0.0
H1393 H 0.31416 0.08209 0.82656 0.0
H1394 H 0.33336 0.04529 0.9019 0.0
H1395 H 0.31426 0.03991 0.82973 0.0
H1396 H 0.37412 0.97757 0.8731 0.0
H1397 H 0.36335 0.01804 0.87977 0.0
H1398 H 0.29519 0.00448 0.8519 0.0
H1399 H 0.30594 0.96382 0.84562 0.0
C1400 C 0.3281 0.0774 0.88387 0.0
C1401 C 0.32358 0.08802 0.86244 0.0
C1402 C 0.32853 0.05323 0.88559 0.0
C1403 C 0.32386 0.03945 0.86605 0.0
C1404 C 0.3177 0.05016 0.84509 0.0
C1405 C 0.31779 0.07425 0.84324 0.0
C1406 C 0.35669 0.9832 0.86893 0.0
C1407 C 0.34088 0.96777 0.85876 0.0
C1408 C 0.35046 0.00622 0.8729 0.0
C1409 C 0.32845 0.01428 0.86634 0.0
C1410 C 0.31224 0.99859 0.85715 0.0
C1411 C 0.31834 0.97542 0.85363 0.0
H1412 H 0.91449 0.34106 0.89382 0.0
H1413 H 0.90896 0.31105 0.82556 0.0
H1414 H 0.95699 0.33927 0.89111 0.0
H1415 H 0.95106 0.30839 0.8231 0.0
H1416 H 0.01651 0.3507 0.8097 0.0
H1417 H 0.97626 0.34183 0.81754 0.0
H1418 H 0.99473 0.31702 0.88575 0.0
H1419 H 0.0356 0.32653 0.87788 0.0
C1420 C 0.9224 0.33318 0.87871 0.0
C1421 C 0.90871 0.32641 0.85977 0.0
C1422 C 0.94666 0.33216 0.87712 0.0
C1423 C 0.95732 0.32419 0.85665 0.0
C1424 C 0.94335 0.31515 0.83885 0.0
C1425 C 0.91929 0.31651 0.84029 0.0
C1426 C 0.01207 0.34343 0.82641 0.0
C1427 C 0.02918 0.33952 0.84325 0.0
C1428 C 0.989 0.338 0.83081 0.0
C1429 C 0.98232 0.32846 0.85219 0.0
C1430 C 0.9994 0.32432 0.86911 0.0
C1431 C 0.02273 0.32963 0.86458 0.0
H1432 H 0.67251 0.0454 0.88849 0.0
H1433 H 0.65167 0.01165 0.82498 0.0
H1434 H 0.68261 0.00772 0.90515 0.0
H1435 H 0.66104 0.97421 0.8417 0.0
H1436 H 0.6955 0.91133 0.86827 0.0
H1437 H 0.69408 0.95104 0.85423 0.0
H1438 H 0.66174 0.97262 0.91825 0.0
H1439 H 0.66346 0.93286 0.93252 0.0
C1440 C 0.67023 0.02998 0.87806 0.0
C1441 C 0.66119 0.03149 0.85546 0.0
C1442 C 0.67586 0.00842 0.88764 0.0
C1443 C 0.67274 0.988 0.87471 0.0
C1444 C 0.664 0.98962 0.85201 0.0
C1445 C 0.65829 0.01107 0.84252 0.0
C1446 C 0.68847 0.9246 0.87955 0.0
C1447 C 0.67923 0.91888 0.90137 0.0
C1448 C 0.68756 0.94734 0.87145 0.0
C1449 C 0.67737 0.96487 0.88495 0.0
C1450 C 0.66973 0.9595 0.90746 0.0
C1451 C 0.67068 0.9367 0.91562 0.0
H1452 H 0.03723 0.67007 0.119 0.0
H1453 H 0.01569 0.65964 0.18984 0.0
H1454 H 0.99706 0.67989 0.10835 0.0
H1455 H 0.97606 0.66886 0.17942 0.0
H1456 H 0.9089 0.69615 0.16365 0.0
H1457 H 0.9509 0.69997 0.16704 0.0
H1458 H 0.95957 0.65794 0.10562 0.0
H1459 H 0.91729 0.65503 0.10183 0.0
C1460 C 0.02397 0.67017 0.13228 0.0
C1461 C 0.02946 0.66386 0.15518 0.0
C1462 C 0.00103 0.67566 0.12621 0.0
C1463 C 0.98338 0.67531 0.14306 0.0
C1464 C 0.98922 0.66974 0.16605 0.0
C1465 C 0.01191 0.6641 0.172 0.0
C1466 C 0.91984 0.68859 0.15036 0.0
C1467 C 0.9101 0.67534 0.1325 0.0
C1468 C 0.94385 0.69056 0.15239 0.0
C1469 C 0.95857 0.67878 0.13693 0.0
C1470 C 0.94872 0.66728 0.11777 0.0
C1471 C 0.92456 0.66561 0.11555 0.0
H1472 H 0.31991 0.03332 0.12088 0.0
H1473 H 0.34288 0.01515 0.18973 0.0
H1474 H 0.31019 0.99246 0.11348 0.0
H1475 H 0.33404 0.9749 0.18232 0.0
H1476 H 0.30517 0.90661 0.17401 0.0
H1477 H 0.30249 0.94861 0.17694 0.0
H1478 H 0.33118 0.9552 0.10804 0.0
H1479 H 0.33281 0.91283 0.10482 0.0
C1480 C 0.32267 0.02066 0.13445 0.0
C1481 C 0.33237 0.02738 0.1558 0.0
C1482 C 0.31727 0.99731 0.13019 0.0
C1483 C 0.32119 0.9804 0.14735 0.0
C1484 C 0.33036 0.98741 0.16882 0.0
C1485 C 0.3358 0.01052 0.17298 0.0
C1486 C 0.31025 0.91707 0.15925 0.0
C1487 C 0.31941 0.90664 0.13931 0.0
C1488 C 0.30888 0.94111 0.16096 0.0
C1489 C 0.31723 0.95529 0.14298 0.0
C1490 C 0.3246 0.94479 0.1222 0.0
C1491 C 0.32556 0.92056 0.12033 0.0
H1492 H 0.68689 0.07815 0.16861 0.0
H1493 H 0.6669 0.08438 0.09674 0.0
H1494 H 0.68836 0.0361 0.16463 0.0
H1495 H 0.66789 0.04205 0.09286 0.0
H1496 H 0.69654 0.96062 0.14988 0.0
H1497 H 0.70721 0.00118 0.14283 0.0
H1498 H 0.63924 0.01385 0.11406 0.0
H1499 H 0.62861 0.97351 0.12145 0.0
C1500 C 0.68335 0.07049 0.15182 0.0
C1501 C 0.67663 0.08439 0.13304 0.0
C1502 C 0.68434 0.04646 0.14949 0.0
C1503 C 0.67818 0.03587 0.12845 0.0
C1504 C 0.67274 0.04985 0.10925 0.0
C1505 C 0.67224 0.074 0.11145 0.0
C1506 C 0.68422 0.97196 0.14139 0.0
C1507 C 0.66173 0.96415 0.13631 0.0
C1508 C 0.69026 0.99511 0.13745 0.0
C1509 C 0.67403 0.01058 0.12793 0.0
C1510 C 0.65217 0.00223 0.12118 0.0
C1511 C 0.64601 0.97926 0.12554 0.0
H1512 H 0.08622 0.23324 0.28452 0.0
H1513 H 0.13376 0.17799 0.26725 0.0
H1514 H 0.09993 0.2553 0.25102 0.0
H1515 H 0.148 0.20049 0.23433 0.0
H1516 H 0.18727 0.27096 0.21043 0.0
H1517 H 0.17034 0.24269 0.23737 0.0
H1518 H 0.10382 0.25065 0.20402 0.0
H1519 H 0.1208 0.27837 0.17687 0.0
C1520 C 0.09923 0.22562 0.27332 0.0
C1521 C 0.10903 0.20399 0.27861 0.0
C1522 C 0.10707 0.23823 0.25421 0.0
C1523 C 0.12516 0.22962 0.24039 0.0
C1524 C 0.13414 0.2075 0.2449 0.0
C1525 C 0.12588 0.19462 0.26367 0.0
C1526 C 0.16913 0.26641 0.20876 0.0
C1527 C 0.15533 0.27682 0.19165 0.0
C1528 C 0.15951 0.2502 0.22398 0.0
C1529 C 0.13583 0.24458 0.22262 0.0
C1530 C 0.12212 0.25471 0.20531 0.0
C1531 C 0.13185 0.27048 0.18979 0.0
H1532 H 0.69098 0.14883 0.2278 0.0
H1533 H 0.74015 0.14591 0.17139 0.0
H1534 H 0.71968 0.13242 0.25377 0.0
H1535 H 0.76891 0.12866 0.19747 0.0
H1536 H 0.81871 0.12748 0.26331 0.0
H1537 H 0.79274 0.13927 0.23198 0.0
H1538 H 0.73902 0.09529 0.25999 0.0
H1539 H 0.76471 0.08395 0.29151 0.0
C1540 C 0.70797 0.14482 0.22094 0.0
C1541 C 0.71324 0.14875 0.1975 0.0
C1542 C 0.72435 0.13503 0.23577 0.0
C1543 C 0.74647 0.12888 0.2276 0.0
C1544 C 0.75199 0.13315 0.20425 0.0
C1545 C 0.73548 0.1429 0.18931 0.0
C1546 C 0.80158 0.11984 0.2624 0.0
C1547 C 0.79361 0.10504 0.28005 0.0
C1548 C 0.78668 0.12663 0.24445 0.0
C1549 C 0.76365 0.11863 0.24384 0.0
C1550 C 0.75647 0.10224 0.26035 0.0
C1551 C 0.77125 0.09558 0.2783 0.0
H1552 H 0.9172 0.76721 0.2908 0.0
H1553 H 0.86892 0.81728 0.26306 0.0
H1554 H 0.90706 0.7403 0.25988 0.0
H1555 H 0.85833 0.79009 0.2324 0.0
H1556 H 0.85239 0.73705 0.17328 0.0
H1557 H 0.86932 0.76687 0.19817 0.0
H1558 H 0.87156 0.71803 0.25486 0.0
H1559 H 0.85546 0.6882 0.2299 0.0
C1560 C 0.90477 0.77265 0.27779 0.0
C1561 C 0.89364 0.7942 0.27951 0.0
C1562 C 0.89882 0.75716 0.26021 0.0
C1563 C 0.88147 0.76285 0.24407 0.0
C1564 C 0.87176 0.7852 0.24459 0.0
C1565 C 0.87785 0.8008 0.26214 0.0
C1566 C 0.85672 0.73265 0.19099 0.0
C1567 C 0.85256 0.71022 0.19961 0.0
C1568 C 0.86628 0.74977 0.20527 0.0
C1569 C 0.87201 0.74476 0.2284 0.0
C1570 C 0.86777 0.72236 0.23698 0.0
C1571 C 0.85818 0.70532 0.22278 0.0
H1572 H 0.30505 0.8412 0.2279 0.0
H1573 H 0.25643 0.84535 0.17106 0.0
H1574 H 0.2769 0.85939 0.25336 0.0
H1575 H 0.22834 0.86436 0.19655 0.0
H1576 H 0.1781 0.87066 0.26135 0.0
H1577 H 0.20376 0.85603 0.23102 0.0
H1578 H 0.25963 0.89787 0.25819 0.0
H1579 H 0.23421 0.91206 0.28875 0.0
C1580 C 0.28828 0.8458 0.22086 0.0
C1581 C 0.28302 0.84181 0.19742 0.0
C1582 C 0.27226 0.85661 0.23538 0.0
C1583 C 0.25054 0.86369 0.22686 0.0
C1584 C 0.24497 0.85917 0.20358 0.0
C1585 C 0.26109 0.84841 0.18898 0.0
C1586 C 0.19569 0.87719 0.26048 0.0
C1587 C 0.20427 0.89223 0.27766 0.0
C1588 C 0.2104 0.86878 0.24311 0.0
C1589 C 0.23386 0.87538 0.24259 0.0
C1590 C 0.2418 0.89198 0.25855 0.0
C1591 C 0.22718 0.90027 0.27593 0.0
H1592 H 0.13587 0.75614 0.68691 0.0
H1593 H 0.1193 0.81085 0.73534 0.0
H1594 H 0.14333 0.73004 0.71857 0.0
H1595 H 0.12574 0.78396 0.76761 0.0
H1596 H 0.16824 0.73594 0.8171 0.0
H1597 H 0.1561 0.76399 0.78759 0.0
H1598 H 0.12606 0.70816 0.74748 0.0
H1599 H 0.13944 0.68042 0.7763 0.0
C1600 C 0.13337 0.76253 0.7044 0.0
C1601 C 0.12697 0.78562 0.70858 0.0
C1602 C 0.13749 0.74739 0.72267 0.0
C1603 C 0.13495 0.75473 0.74575 0.0
C1604 C 0.12807 0.77777 0.75004 0.0
C1605 C 0.12419 0.79313 0.73159 0.0
C1606 C 0.15899 0.72989 0.80191 0.0
C1607 C 0.15514 0.70612 0.79856 0.0
C1608 C 0.15186 0.74589 0.78512 0.0
C1609 C 0.14037 0.73835 0.76493 0.0
C1610 C 0.13549 0.71458 0.7624 0.0
C1611 C 0.14308 0.69865 0.77887 0.0
H1612 H 0.17738 0.12575 0.73678 0.0
H1613 H 0.23257 0.0834 0.70898 0.0
H1614 H 0.20336 0.13945 0.76731 0.0
H1615 H 0.25831 0.09675 0.73967 0.0
H1616 H 0.30475 0.15276 0.77035 0.0
H1617 H 0.27632 0.13499 0.74482 0.0
H1618 H 0.2279 0.13014 0.80173 0.0
H1619 H 0.25631 0.14862 0.82729 0.0
C1620 C 0.1948 0.11879 0.73761 0.0
C1621 C 0.20305 0.10374 0.72027 0.0
C1622 C 0.2097 0.12669 0.75508 0.0
C1623 C 0.23303 0.1196 0.75554 0.0
C1624 C 0.2406 0.103 0.73939 0.0
C1625 C 0.22578 0.09519 0.72194 0.0
C1626 C 0.28797 0.14821 0.7774 0.0
C1627 C 0.28282 0.15211 0.80087 0.0
C1628 C 0.27177 0.13768 0.76284 0.0
C1629 C 0.24998 0.13081 0.77135 0.0
C1630 C 0.24457 0.13517 0.7947 0.0
C1631 C 0.26087 0.14563 0.80934 0.0
H1632 H 0.85095 0.31094 0.76512 0.0
H1633 H 0.8509 0.26275 0.82239 0.0
H1634 H 0.86753 0.28139 0.74017 0.0
H1635 H 0.86834 0.23322 0.79746 0.0
H1636 H 0.86974 0.18177 0.7334 0.0
H1637 H 0.85814 0.20893 0.76374 0.0
H1638 H 0.90376 0.26069 0.73467 0.0
H1639 H 0.91486 0.23378 0.70409 0.0
C1640 C 0.85441 0.29402 0.77239 0.0
C1641 C 0.84953 0.28925 0.79576 0.0
C1642 C 0.86428 0.27714 0.75817 0.0
C1643 C 0.86957 0.25502 0.76691 0.0
C1644 C 0.8645 0.2501 0.79022 0.0
C1645 C 0.85465 0.26707 0.80452 0.0
C1646 C 0.87778 0.19871 0.7339 0.0
C1647 C 0.89298 0.20578 0.7162 0.0
C1648 C 0.8711 0.21431 0.75126 0.0
C1649 C 0.87961 0.23715 0.75127 0.0
C1650 C 0.8964 0.24342 0.73476 0.0
C1651 C 0.90293 0.22794 0.71737 0.0
H1652 H 0.70912 0.91406 0.80321 0.0
H1653 H 0.72778 0.84164 0.80376 0.0
H1654 H 0.74065 0.92213 0.77646 0.0
H1655 H 0.75942 0.84966 0.7766 0.0
H1656 H 0.82298 0.87381 0.73665 0.0
H1657 H 0.79686 0.86947 0.7699 0.0
H1658 H 0.74675 0.91369 0.73604 0.0
H1659 H 0.77279 0.91826 0.70331 0.0
C1660 C 0.71987 0.8998 0.79747 0.0
C1661 C 0.71562 0.8771 0.80517 0.0
C1662 C 0.73805 0.90446 0.78222 0.0
C1663 C 0.7524 0.88651 0.77417 0.0
C1664 C 0.74879 0.86392 0.78261 0.0
C1665 C 0.73061 0.85927 0.79804 0.0
C1666 C 0.80664 0.88309 0.73668 0.0
C1667 C 0.79989 0.89638 0.7174 0.0
C1668 C 0.79158 0.88037 0.75556 0.0
C1669 C 0.76966 0.8911 0.75556 0.0
C1670 C 0.76357 0.90536 0.73677 0.0
C1671 C 0.77848 0.90793 0.71793 0.0
H1672 H 0.22855 0.15902 0.30952 0.0
H1673 H 0.17147 0.15328 0.26132 0.0
H1674 H 0.25464 0.14318 0.28055 0.0
H1675 H 0.1976 0.13655 0.23244 0.0
H1676 H 0.26192 0.13481 0.18115 0.0
H1677 H 0.23111 0.14715 0.2076 0.0
H1678 H 0.2616 0.10589 0.26215 0.0
H1679 H 0.29253 0.09408 0.23599 0.0
C1680 C 0.22156 0.15451 0.2927 0.0
C1681 C 0.19789 0.1574 0.28781 0.0
C1682 C 0.23647 0.14507 0.27618 0.0
C1683 C 0.22811 0.13823 0.25432 0.0
C1684 C 0.20454 0.14159 0.24915 0.0
C1685 C 0.18956 0.15102 0.26576 0.0
C1686 C 0.26161 0.12789 0.1986 0.0
C1687 C 0.27971 0.11368 0.20664 0.0
C1688 C 0.24402 0.13501 0.21377 0.0
C1689 C 0.24426 0.12793 0.23712 0.0
C1690 C 0.26132 0.11217 0.24446 0.0
C1691 C 0.2789 0.10522 0.22942 0.0
H1692 H 0.91078 0.2832 0.22758 0.0
H1693 H 0.85945 0.26404 0.17647 0.0
H1694 H 0.89861 0.25071 0.2519 0.0
H1695 H 0.84688 0.23198 0.20115 0.0
H1696 H 0.81146 0.2118 0.27413 0.0
H1697 H 0.82715 0.23689 0.24357 0.0
H1698 H 0.89411 0.20431 0.25108 0.0
H1699 H 0.87832 0.17901 0.28128 0.0
C1700 C 0.89732 0.2717 0.22131 0.0
C1701 C 0.88601 0.27617 0.20022 0.0
C1702 C 0.89036 0.25316 0.2352 0.0
C1703 C 0.87168 0.23911 0.22842 0.0
C1704 C 0.86125 0.24273 0.20674 0.0
C1705 C 0.86857 0.26095 0.19258 0.0
C1706 C 0.82944 0.20993 0.26903 0.0
C1707 C 0.84371 0.19357 0.27996 0.0
C1708 C 0.83834 0.22406 0.2515 0.0
C1709 C 0.86177 0.22235 0.24499 0.0
C1710 C 0.87598 0.20583 0.25577 0.0
C1711 C 0.86695 0.19139 0.27293 0.0
H1712 H 0.73431 0.86873 0.17905 0.0
H1713 H 0.70724 0.91232 0.23362 0.0
H1714 H 0.76547 0.85601 0.20472 0.0
H1715 H 0.73866 0.90006 0.25902 0.0
H1716 H 0.77013 0.84536 0.30635 0.0
H1717 H 0.74429 0.86268 0.27804 0.0
H1718 H 0.80027 0.8655 0.22837 0.0
H1719 H 0.82616 0.84736 0.25672 0.0
C1720 C 0.7354 0.87616 0.19626 0.0
C1721 C 0.71805 0.89122 0.20446 0.0
C1722 C 0.75328 0.86885 0.21098 0.0
C1723 C 0.75418 0.87659 0.23409 0.0
C1724 C 0.73805 0.89328 0.24151 0.0
C1725 C 0.72017 0.90047 0.22688 0.0
C1726 C 0.77693 0.84935 0.28934 0.0
C1727 C 0.80023 0.8449 0.28383 0.0
C1728 C 0.76219 0.85967 0.27319 0.0
C1729 C 0.77031 0.86582 0.25106 0.0
C1730 C 0.79351 0.86102 0.24531 0.0
C1731 C 0.80836 0.85075 0.26157 0.0
H1732 H 0.09065 0.70948 0.23308 0.0
H1733 H 0.13807 0.73273 0.18005 0.0
H1734 H 0.10199 0.74189 0.2576 0.0
H1735 H 0.14984 0.76512 0.2049 0.0
H1736 H 0.15492 0.77313 0.30664 0.0
H1737 H 0.13941 0.7466 0.27792 0.0
H1738 H 0.13862 0.80151 0.22708 0.0
H1739 H 0.15485 0.82818 0.25595 0.0
C1740 C 0.10312 0.72187 0.22647 0.0
C1741 C 0.11366 0.71849 0.20482 0.0
C1742 C 0.10975 0.74031 0.24057 0.0
C1743 C 0.12724 0.75565 0.2334 0.0
C1744 C 0.13635 0.75351 0.21088 0.0
C1745 C 0.12956 0.73503 0.19663 0.0
C1746 C 0.15177 0.77954 0.2893 0.0
C1747 C 0.15611 0.80278 0.28362 0.0
C1748 C 0.14254 0.76441 0.2729 0.0
C1749 C 0.13741 0.77209 0.25036 0.0
C1750 C 0.14229 0.79517 0.24437 0.0
C1751 C 0.15145 0.81042 0.26091 0.0
H1752 H 0.26882 0.86944 0.81641 0.0
H1753 H 0.29667 0.91876 0.76752 0.0
H1754 H 0.23814 0.85959 0.78905 0.0
H1755 H 0.2655 0.90963 0.7405 0.0
H1756 H 0.23504 0.86073 0.68665 0.0
H1757 H 0.2598 0.87629 0.71672 0.0
H1758 H 0.20417 0.86939 0.76641 0.0
H1759 H 0.17955 0.85262 0.73632 0.0
C1760 C 0.26791 0.87878 0.80015 0.0
C1761 C 0.28535 0.89462 0.79393 0.0
C1762 C 0.2503 0.87312 0.78443 0.0
C1763 C 0.24969 0.88341 0.76233 0.0
C1764 C 0.26588 0.90086 0.7571 0.0
C1765 C 0.28361 0.90628 0.77266 0.0
C1766 C 0.22806 0.86224 0.70398 0.0
C1767 C 0.20528 0.85521 0.70899 0.0
C1768 C 0.24218 0.87161 0.72122 0.0
C1769 C 0.23392 0.87439 0.74398 0.0
C1770 C 0.21111 0.86746 0.74908 0.0
C1771 C 0.19693 0.85799 0.73176 0.0
H1772 H 0.08838 0.28642 0.76478 0.0
H1773 H 0.13551 0.26612 0.81936 0.0
H1774 H 0.10094 0.25316 0.74165 0.0
H1775 H 0.14854 0.23333 0.79587 0.0
H1776 H 0.1874 0.21009 0.72538 0.0
H1777 H 0.17103 0.23673 0.7543 0.0
H1778 H 0.1034 0.20634 0.74407 0.0
H1779 H 0.11985 0.17948 0.71559 0.0
C1780 C 0.101 0.27454 0.77203 0.0
C1781 C 0.111 0.27887 0.7938 0.0
C1782 C 0.10819 0.25558 0.75882 0.0
C1783 C 0.12584 0.24095 0.76697 0.0
C1784 C 0.13499 0.24452 0.78923 0.0
C1785 C 0.12739 0.26316 0.8027 0.0
C1786 C 0.16912 0.20904 0.72955 0.0
C1787 C 0.15487 0.19282 0.71838 0.0
C1788 C 0.15981 0.22406 0.74614 0.0
C1789 C 0.13601 0.2234 0.75138 0.0
C1790 C 0.12181 0.20706 0.74034 0.0
C1791 C 0.13121 0.19172 0.72417 0.0
H1792 H 0.73207 0.13665 0.82029 0.0
H1793 H 0.71524 0.08485 0.76886 0.0
H1794 H 0.76476 0.1495 0.7966 0.0
H1795 H 0.74835 0.09733 0.74555 0.0
H1796 H 0.81956 0.119 0.71684 0.0
H1797 H 0.79428 0.10272 0.74682 0.0
H1798 H 0.76082 0.16917 0.75461 0.0
H1799 H 0.78592 0.18534 0.72433 0.0
C1800 C 0.7358 0.12749 0.80434 0.0
C1801 C 0.72102 0.10986 0.79628 0.0
C1802 C 0.75441 0.13496 0.79075 0.0
C1803 C 0.75884 0.12451 0.76923 0.0
C1804 C 0.74528 0.1056 0.76213 0.0
C1805 C 0.72637 0.09847 0.77545 0.0
C1806 C 0.80703 0.13016 0.72524 0.0
C1807 C 0.80457 0.15339 0.71835 0.0
C1808 C 0.79258 0.12085 0.74228 0.0
C1809 C 0.77579 0.13476 0.75303 0.0
C1810 C 0.77386 0.1582 0.74672 0.0
C1811 C 0.78799 0.16738 0.72933 0.0
H1812 H 0.91511 0.70917 0.76559 0.0
H1813 H 0.87434 0.73869 0.82108 0.0
H1814 H 0.9019 0.73971 0.73965 0.0
H1815 H 0.86065 0.76893 0.79491 0.0
H1816 H 0.85108 0.82808 0.74157 0.0
H1817 H 0.86962 0.80264 0.76996 0.0
H1818 H 0.86382 0.74542 0.72201 0.0
H1819 H 0.84613 0.77084 0.69354 0.0
C1820 C 0.90369 0.72245 0.77238 0.0
C1821 C 0.8955 0.7213 0.79527 0.0
C1822 C 0.89594 0.73981 0.75746 0.0
C1823 C 0.87975 0.75635 0.76506 0.0
C1824 C 0.87308 0.7564 0.78851 0.0
C1825 C 0.88095 0.73906 0.80352 0.0
C1826 C 0.85387 0.81009 0.73709 0.0
C1827 C 0.84716 0.80152 0.71524 0.0
C1828 C 0.86437 0.79551 0.7534 0.0
C1829 C 0.8685 0.77211 0.7481 0.0
C1830 C 0.86135 0.76348 0.72645 0.0
C1831 C 0.85082 0.77799 0.71024 0.0
H1832 H 0.3056 0.22814 0.13841 0.0
H1833 H 0.25633 0.17209 0.14426 0.0
H1834 H 0.27596 0.25247 0.12126 0.0
H1835 H 0.22664 0.19634 0.12611 0.0
H1836 H 0.17648 0.26125 0.12383 0.0
H1837 H 0.2034 0.2307 0.13511 0.0
H1838 H 0.25367 0.25693 0.08618 0.0
H1839 H 0.22706 0.2879 0.07549 0.0
C1840 C 0.28842 0.22098 0.13608 0.0
C1841 C 0.28336 0.19817 0.14287 0.0
C1842 C 0.27147 0.23483 0.12583 0.0
C1843 C 0.24896 0.22627 0.122 0.0
C1844 C 0.2438 0.20345 0.12881 0.0
C1845 C 0.26085 0.18952 0.13908 0.0
C1846 C 0.19302 0.26012 0.11502 0.0
C1847 C 0.19983 0.27724 0.09907 0.0
C1848 C 0.20848 0.24258 0.1215 0.0
C1849 C 0.23092 0.24174 0.11198 0.0
C1850 C 0.23676 0.25751 0.09435 0.0
C1851 C 0.22143 0.27513 0.08805 0.0
H1852 H 0.23094 0.71668 0.91431 0.0
H1853 H 0.18022 0.73231 0.86143 0.0
H1854 H 0.25478 0.74903 0.90096 0.0
H1855 H 0.2045 0.76418 0.84764 0.0
H1856 H 0.27789 0.78439 0.81266 0.0
H1857 H 0.24732 0.75954 0.82877 0.0
H1858 H 0.25312 0.79495 0.89445 0.0
H1859 H 0.28332 0.81994 0.87826 0.0
C1860 C 0.22465 0.72735 0.90019 0.0
C1861 C 0.20383 0.72188 0.8888 0.0
C1862 C 0.23827 0.74582 0.89257 0.0
C1863 C 0.23152 0.75881 0.87314 0.0
C1864 C 0.21009 0.75424 0.86257 0.0
C1865 C 0.19617 0.7361 0.87056 0.0
C1866 C 0.27238 0.78694 0.83042 0.0
C1867 C 0.28285 0.804 0.84422 0.0
C1868 C 0.25485 0.77294 0.83956 0.0
C1869 C 0.24789 0.77551 0.86278 0.0
C1870 C 0.25815 0.79276 0.87648 0.0
C1871 C 0.27532 0.80705 0.86721 0.0
H1872 H 0.2813 0.22476 0.91845 0.0
H1873 H 0.26344 0.1744 0.86594 0.0
H1874 H 0.24892 0.24906 0.906 0.0
H1875 H 0.2315 0.19907 0.85314 0.0
H1876 H 0.21342 0.27191 0.81727 0.0
H1877 H 0.23704 0.24068 0.83374 0.0
H1878 H 0.20322 0.2499 0.89986 0.0
H1879 H 0.17935 0.28088 0.88324 0.0
C1880 C 0.27009 0.2186 0.90468 0.0
C1881 C 0.27507 0.19783 0.89301 0.0
C1882 C 0.25158 0.2325 0.89757 0.0
C1883 C 0.238 0.22601 0.87843 0.0
C1884 C 0.2419 0.20448 0.86782 0.0
C1885 C 0.26011 0.19034 0.87525 0.0
C1886 C 0.21095 0.26707 0.83524 0.0
C1887 C 0.19472 0.27877 0.84904 0.0
C1888 C 0.22423 0.24911 0.84459 0.0
C1889 C 0.2218 0.24289 0.86802 0.0
C1890 C 0.20531 0.25436 0.88174 0.0
C1891 C 0.19169 0.27198 0.87225 0.0
H1892 H 0.71436 0.18409 0.87902 0.0
H1893 H 0.72223 0.21465 0.81124 0.0
H1894 H 0.74487 0.20947 0.89414 0.0
H1895 H 0.75294 0.23991 0.82627 0.0
H1896 H 0.81916 0.26936 0.85718 0.0
H1897 H 0.79466 0.23683 0.8453 0.0
H1898 H 0.74507 0.25478 0.8984 0.0
H1899 H 0.76923 0.28758 0.90995 0.0
C1900 C 0.72289 0.19602 0.86732 0.0
C1901 C 0.71595 0.19756 0.84401 0.0
C1902 C 0.74025 0.21052 0.87596 0.0
C1903 C 0.75128 0.2265 0.86132 0.0
C1904 C 0.74486 0.22753 0.83783 0.0
C1905 C 0.72718 0.21332 0.8293 0.0
C1906 C 0.80336 0.26596 0.86674 0.0
C1907 C 0.79599 0.28104 0.88441 0.0
C1908 C 0.78929 0.24749 0.85981 0.0
C1909 C 0.76794 0.2435 0.87082 0.0
C1910 C 0.7615 0.25746 0.88969 0.0
C1911 C 0.7753 0.2762 0.89629 0.0
H1912 H 0.7429 0.83005 0.86223 0.0
H1913 H 0.70869 0.77382 0.89773 0.0
H1914 H 0.77401 0.80352 0.85037 0.0
H1915 H 0.73987 0.74771 0.88675 0.0
H1916 H 0.77339 0.70192 0.83362 0.0
H1917 H 0.74771 0.7316 0.84851 0.0
H1918 H 0.80635 0.77633 0.8614 0.0
H1919 H 0.83226 0.7467 0.84552 0.0
C1920 C 0.74243 0.81225 0.86812 0.0
C1921 C 0.72323 0.80381 0.8805 0.0
C1922 C 0.76019 0.79705 0.86132 0.0
C1923 C 0.75899 0.77337 0.86704 0.0
C1924 C 0.7409 0.76567 0.88141 0.0
C1925 C 0.72316 0.78067 0.8879 0.0
C1926 C 0.78089 0.71816 0.83922 0.0
C1927 C 0.80495 0.72179 0.83845 0.0
C1928 C 0.76616 0.7351 0.84813 0.0
C1929 C 0.77505 0.75614 0.85662 0.0
C1930 C 0.79901 0.76023 0.85513 0.0
C1931 C 0.81384 0.74318 0.84619 0.0
H1932 H 0.71578 0.81608 0.12641 0.0
H1933 H 0.72321 0.78263 0.19291 0.0
H1934 H 0.74529 0.79057 0.11006 0.0
H1935 H 0.75316 0.75713 0.17651 0.0
H1936 H 0.81987 0.72978 0.14168 0.0
H1937 H 0.79539 0.76125 0.15621 0.0
H1938 H 0.74372 0.74486 0.10459 0.0
H1939 H 0.76782 0.713 0.09049 0.0
C1940 C 0.72401 0.80349 0.13761 0.0
C1941 C 0.71724 0.80125 0.16093 0.0
C1942 C 0.74082 0.78889 0.12823 0.0
C1943 C 0.7515 0.77206 0.14208 0.0
C1944 C 0.74528 0.7702 0.16558 0.0
C1945 C 0.72808 0.78456 0.17488 0.0
C1946 C 0.80357 0.73328 0.13306 0.0
C1947 C 0.79566 0.71896 0.11499 0.0
C1948 C 0.78952 0.75112 0.14152 0.0
C1949 C 0.76767 0.75523 0.13161 0.0
C1950 C 0.76054 0.742 0.11247 0.0
C1951 C 0.77432 0.72385 0.10438 0.0
H1952 H 0.17395 0.7354 0.14729 0.0
H1953 H 0.2311 0.68707 0.1462 0.0
H1954 H 0.1988 0.76507 0.12998 0.0
H1955 H 0.25599 0.71672 0.12964 0.0
H1956 H 0.29173 0.7651 0.08268 0.0
H1957 H 0.26122 0.73808 0.09363 0.0
H1958 H 0.23281 0.78904 0.14058 0.0
H1959 H 0.26313 0.81633 0.12921 0.0
C1960 C 0.19176 0.73107 0.14328 0.0
C1961 C 0.20055 0.70884 0.14812 0.0
C1962 C 0.20603 0.74812 0.13352 0.0
C1963 C 0.22931 0.74321 0.12822 0.0
C1964 C 0.23802 0.72098 0.1331 0.0
C1965 C 0.22385 0.70404 0.14293 0.0
C1966 C 0.27863 0.77076 0.0949 0.0
C1967 C 0.27999 0.79273 0.10527 0.0
C1968 C 0.26127 0.7552 0.10134 0.0
C1969 C 0.24494 0.7612 0.1184 0.0
C1970 C 0.24514 0.78387 0.12739 0.0
C1971 C 0.2625 0.79954 0.12084 0.0
H1972 H 0.7063 0.22596 0.08073 0.0
H1973 H 0.73373 0.17524 0.12849 0.0
H1974 H 0.73761 0.25241 0.09087 0.0
H1975 H 0.76483 0.20197 0.13904 0.0
H1976 H 0.82429 0.25523 0.14515 0.0
H1977 H 0.79941 0.22546 0.12788 0.0
H1978 H 0.74232 0.27392 0.12713 0.0
H1979 H 0.76716 0.30359 0.14363 0.0
C1980 C 0.71933 0.22027 0.09302 0.0
C1981 C 0.71739 0.1987 0.10406 0.0
C1982 C 0.73715 0.23548 0.09896 0.0
C1983 C 0.75331 0.22949 0.11618 0.0
C1984 C 0.75261 0.20709 0.12572 0.0
C1985 C 0.7348 0.19176 0.11965 0.0
C1986 C 0.80648 0.25951 0.14109 0.0
C1987 C 0.79767 0.28176 0.1458 0.0
C1988 C 0.79223 0.24245 0.13133 0.0
C1989 C 0.76899 0.24742 0.12589 0.0
C1990 C 0.76026 0.26965 0.13068 0.0
C1991 C 0.77441 0.28658 0.14051 0.0
loop_
_geom_bond_atom_site_label_1
_geom_bond_atom_site_label_2
_geom_bond_distance
_geom_bond_site_symmetry_2
_ccdc_geom_bond_type
C0 C1 1.351 . S
C0 N3 1.368 . S
C0 H5 0.931 . S
C1 C0 1.351 . S
C1 N2 1.373 . S
C1 H29 0.930 . S
N2 C1 1.373 . S
N2 C4 1.340 . S
N3 C0 1.368 . S
N3 C4 1.321 . S
N3 Co6 2.135 . S
C4 N2 1.340 . S
C4 N3 1.321 . S
C4 H28 0.930 . S
H5 C0 0.931 . S
Co6 N3 2.135 . S
Co6 N9 2.121 . S
Co6 O14 2.055 . S
Co6 O17 2.039 . S
Co6 N20 2.140 . S
C7 O8 1.227 . S
C7 O17 1.265 . S
O8 C7 1.227 . S
N9 Co6 2.121 . S
N9 C11 1.375 . S
N9 C12 1.313 . S
C10 C11 1.338 . S
C10 N13 1.377 . S
C10 H30 0.930 . S
C11 N9 1.375 . S
C11 C10 1.338 . S
C11 H15 0.931 . S
C12 N9 1.313 . S
C12 N13 1.344 . S
C12 H16 0.930 . S
N13 C10 1.377 . S
N13 C12 1.344 . S
O14 Co6 2.055 . S
O14 C18 1.253 . S
H15 C11 0.931 . S
H16 C12 0.930 . S
O17 Co6 2.039 . S
O17 C7 1.265 . S
C18 O14 1.253 . S
C18 O19 1.227 . S
O19 C18 1.227 . S
N20 Co6 2.140 . S
N20 C23 1.346 . S
N20 C24 1.345 . S
C21 C22 1.387 . S
C21 C25 1.391 . S
C22 C21 1.387 . S
C22 C23 1.369 . S
C22 H31 0.929 . S
C23 N20 1.346 . S
C23 C22 1.369 . S
C23 H26 0.928 . S
C24 N20 1.345 . S
C24 C25 1.371 . S
C24 H27 0.931 . S
C25 C21 1.391 . S
C25 C24 1.371 . S
C25 H32 0.930 . S
H26 C23 0.928 . S
H27 C24 0.931 . S
H28 C4 0.930 . S
H29 C1 0.930 . S
H30 C10 0.930 . S
H31 C22 0.929 . S
H32 C25 0.930 . S
C33 C34 1.351 . S
C33 N36 1.368 . S
C33 H38 0.931 . S
C34 C33 1.351 . S
C34 N35 1.373 . S
C34 H62 0.930 . S
N35 C34 1.373 . S
N35 C37 1.340 . S
N36 C33 1.368 . S
N36 C37 1.321 . S
N36 Co39 2.135 . S
C37 N35 1.340 . S
C37 N36 1.321 . S
C37 H61 0.930 . S
H38 C33 0.931 . S
Co39 N36 2.135 . S
Co39 N42 2.121 . S
Co39 O47 2.055 . S
Co39 O50 2.039 . S
Co39 N53 2.140 . S
C40 O41 1.227 . S
C40 O50 1.265 . S
O41 C40 1.227 . S
N42 Co39 2.121 . S
N42 C44 1.375 . S
N42 C45 1.313 . S
C43 C44 1.338 . S
C43 N46 1.377 . S
C43 H63 0.930 . S
C44 N42 1.375 . S
C44 C43 1.338 . S
C44 H48 0.931 . S
C45 N42 1.313 . S
C45 N46 1.344 . S
C45 H49 0.930 . S
N46 C43 1.377 . S
N46 C45 1.344 . S
O47 Co39 2.055 . S
O47 C51 1.253 . S
H48 C44 0.931 . S
H49 C45 0.930 . S
O50 Co39 2.039 . S
O50 C40 1.265 . S
C51 O47 1.253 . S
C51 O52 1.227 . S
O52 C51 1.227 . S
N53 Co39 2.140 . S
N53 C56 1.346 . S
N53 C57 1.345 . S
C54 C55 1.387 . S
C54 C58 1.391 . S
C55 C54 1.387 . S
C55 C56 1.369 . S
C55 H64 0.929 . S
C56 N53 1.346 . S
C56 C55 1.369 . S
C56 H59 0.928 . S
C57 N53 1.345 . S
C57 C58 1.371 . S
C57 H60 0.931 . S
C58 C54 1.391 . S
C58 C57 1.371 . S
C58 H65 0.930 . S
H59 C56 0.928 . S
H60 C57 0.931 . S
H61 C37 0.930 . S
H62 C34 0.930 . S
H63 C43 0.930 . S
H64 C55 0.929 . S
H65 C58 0.930 . S
C66 C67 1.351 . S
C66 N69 1.368 . S
C66 H71 0.931 . S
C67 C66 1.351 . S
C67 N68 1.373 . S
C67 H95 0.930 . S
N68 C67 1.373 . S
N68 C70 1.340 . S
N69 C66 1.368 . S
N69 C70 1.321 . S
N69 Co72 2.135 . S
C70 N68 1.340 . S
C70 N69 1.321 . S
C70 H94 0.930 . S
H71 C66 0.931 . S
Co72 N69 2.135 . S
Co72 N75 2.121 . S
Co72 O80 2.055 . S
Co72 O83 2.039 . S
Co72 N86 2.140 . S
C73 O74 1.227 . S
C73 O83 1.265 . S
O74 C73 1.227 . S
N75 Co72 2.121 . S
N75 C77 1.375 . S
N75 C78 1.313 . S
C76 C77 1.338 . S
C76 N79 1.377 . S
C76 H96 0.930 . S
C77 N75 1.375 . S
C77 C76 1.338 . S
C77 H81 0.931 . S
C78 N75 1.313 . S
C78 N79 1.344 . S
C78 H82 0.930 . S
N79 C76 1.377 . S
N79 C78 1.344 . S
O80 Co72 2.055 . S
O80 C84 1.253 . S
H81 C77 0.931 . S
H82 C78 0.930 . S
O83 Co72 2.039 . S
O83 C73 1.265 . S
C84 O80 1.253 . S
C84 O85 1.227 . S
O85 C84 1.227 . S
N86 Co72 2.140 . S
N86 C89 1.346 . S
N86 C90 1.345 . S
C87 C88 1.387 . S
C87 C91 1.391 . S
C88 C87 1.387 . S
C88 C89 1.369 . S
C88 H97 0.929 . S
C89 N86 1.346 . S
C89 C88 1.369 . S
C89 H92 0.928 . S
C90 N86 1.345 . S
C90 C91 1.371 . S
C90 H93 0.931 . S
C91 C87 1.391 . S
C91 C90 1.371 . S
C91 H98 0.930 . S
H92 C89 0.928 . S
H93 C90 0.931 . S
H94 C70 0.930 . S
H95 C67 0.930 . S
H96 C76 0.930 . S
H97 C88 0.929 . S
H98 C91 0.930 . S
C99 C100 1.351 . S
C99 N102 1.368 . S
C99 H104 0.931 . S
C100 C99 1.351 . S
C100 N101 1.373 . S
C100 H128 0.930 . S
N101 C100 1.373 . S
N101 C103 1.340 . S
N102 C99 1.368 . S
N102 C103 1.321 . S
N102 Co105 2.135 . S
C103 N101 1.340 . S
C103 N102 1.321 . S
C103 H127 0.930 . S
H104 C99 0.931 . S
Co105 N102 2.135 . S
Co105 N108 2.121 . S
Co105 O113 2.055 . S
Co105 O116 2.039 . S
Co105 N119 2.140 . S
C106 O107 1.227 . S
C106 O116 1.265 . S
O107 C106 1.227 . S
N108 Co105 2.121 . S
N108 C110 1.375 . S
N108 C111 1.313 . S
C109 C110 1.338 . S
C109 N112 1.377 . S
C109 H129 0.930 . S
C110 N108 1.375 . S
C110 C109 1.338 . S
C110 H114 0.931 . S
C111 N108 1.313 . S
C111 N112 1.344 . S
C111 H115 0.930 . S
N112 C109 1.377 . S
N112 C111 1.344 . S
O113 Co105 2.055 . S
O113 C117 1.253 . S
H114 C110 0.931 . S
H115 C111 0.930 . S
O116 Co105 2.039 . S
O116 C106 1.265 . S
C117 O113 1.253 . S
C117 O118 1.227 . S
O118 C117 1.227 . S
N119 Co105 2.140 . S
N119 C122 1.346 . S
N119 C123 1.345 . S
C120 C121 1.387 . S
C120 C124 1.391 . S
C121 C120 1.387 . S
C121 C122 1.369 . S
C121 H130 0.929 . S
C122 N119 1.346 . S
C122 C121 1.369 . S
C122 H125 0.928 . S
C123 N119 1.345 . S
C123 C124 1.371 . S
C123 H126 0.931 . S
C124 C120 1.391 . S
C124 C123 1.371 . S
C124 H131 0.930 . S
H125 C122 0.928 . S
H126 C123 0.931 . S
H127 C103 0.930 . S
H128 C100 0.930 . S
H129 C109 0.930 . S
H130 C121 0.929 . S
H131 C124 0.930 . S
C132 C133 1.351 . S
C132 N135 1.368 . S
C132 H137 0.931 . S
C133 C132 1.351 . S
C133 N134 1.373 . S
C133 H161 0.930 . S
N134 C133 1.373 . S
N134 C136 1.340 . S
N135 C132 1.368 . S
N135 C136 1.321 . S
N135 Co138 2.135 . S
C136 N134 1.340 . S
C136 N135 1.321 . S
C136 H160 0.930 . S
H137 C132 0.931 . S
Co138 N135 2.135 . S
Co138 N141 2.121 . S
Co138 O146 2.055 . S
Co138 O149 2.039 . S
Co138 N152 2.140 . S
C139 O140 1.227 . S
C139 O149 1.265 . S
O140 C139 1.227 . S
N141 Co138 2.121 . S
N141 C143 1.375 . S
N141 C144 1.313 . S
C142 C143 1.338 . S
C142 N145 1.377 . S
C142 H162 0.930 . S
C143 N141 1.375 . S
C143 C142 1.338 . S
C143 H147 0.931 . S
C144 N141 1.313 . S
C144 N145 1.344 . S
C144 H148 0.930 . S
N145 C142 1.377 . S
N145 C144 1.344 . S
O146 Co138 2.055 . S
O146 C150 1.253 . S
H147 C143 0.931 . S
H148 C144 0.930 . S
O149 Co138 2.039 . S
O149 C139 1.265 . S
C150 O146 1.253 . S
C150 O151 1.227 . S
O151 C150 1.227 . S
N152 Co138 2.140 . S
N152 C155 1.346 . S
N152 C156 1.345 . S
C153 C154 1.387 . S
C153 C157 1.391 . S
C154 C153 1.387 . S
C154 C155 1.369 . S
C154 H163 0.929 . S
C155 N152 1.346 . S
C155 C154 1.369 . S
C155 H158 0.928 . S
C156 N152 1.345 . S
C156 C157 1.371 . S
C156 H159 0.931 . S
C157 C153 1.391 . S
C157 C156 1.371 . S
C157 H164 0.930 . S
H158 C155 0.928 . S
H159 C156 0.931 . S
H160 C136 0.930 . S
H161 C133 0.930 . S
H162 C142 0.930 . S
H163 C154 0.929 . S
H164 C157 0.930 . S
C165 C166 1.351 . S
C165 N168 1.368 . S
C165 H170 0.931 . S
C166 C165 1.351 . S
C166 N167 1.373 . S
C166 H194 0.930 . S
N167 C166 1.373 . S
N167 C169 1.340 . S
N168 C165 1.368 . S
N168 C169 1.321 . S
N168 Co171 2.135 . S
C169 N167 1.340 . S
C169 N168 1.321 . S
C169 H193 0.930 . S
H170 C165 0.931 . S
Co171 N168 2.135 . S
Co171 N174 2.121 . S
Co171 O179 2.055 . S
Co171 O182 2.039 . S
Co171 N185 2.140 . S
C172 O173 1.227 . S
C172 O182 1.265 . S
O173 C172 1.227 . S
N174 Co171 2.121 . S
N174 C176 1.375 . S
N174 C177 1.313 . S
C175 C176 1.338 . S
C175 N178 1.377 . S
C175 H195 0.930 . S
C176 N174 1.375 . S
C176 C175 1.338 . S
C176 H180 0.931 . S
C177 N174 1.313 . S
C177 N178 1.344 . S
C177 H181 0.930 . S
N178 C175 1.377 . S
N178 C177 1.344 . S
O179 Co171 2.055 . S
O179 C183 1.253 . S
H180 C176 0.931 . S
H181 C177 0.930 . S
O182 Co171 2.039 . S
O182 C172 1.265 . S
C183 O179 1.253 . S
C183 O184 1.227 . S
O184 C183 1.227 . S
N185 Co171 2.140 . S
N185 C188 1.346 . S
N185 C189 1.345 . S
C186 C187 1.387 . S
C186 C190 1.391 . S
C187 C186 1.387 . S
C187 C188 1.369 . S
C187 H196 0.929 . S
C188 N185 1.346 . S
C188 C187 1.369 . S
C188 H191 0.928 . S
C189 N185 1.345 . S
C189 C190 1.371 . S
C189 H192 0.931 . S
C190 C186 1.391 . S
C190 C189 1.371 . S
C190 H197 0.930 . S
H191 C188 0.928 . S
H192 C189 0.931 . S
H193 C169 0.930 . S
H194 C166 0.930 . S
H195 C175 0.930 . S
H196 C187 0.929 . S
H197 C190 0.930 . S
C198 C199 1.351 . S
C198 N201 1.368 . S
C198 H203 0.931 . S
C199 C198 1.351 . S
C199 N200 1.373 . S
C199 H227 0.930 . S
N200 C199 1.373 . S
N200 C202 1.340 . S
N201 C198 1.368 . S
N201 C202 1.321 . S
N201 Co204 2.135 . S
C202 N200 1.340 . S
C202 N201 1.321 . S
C202 H226 0.930 . S
H203 C198 0.931 . S
Co204 N201 2.135 . S
Co204 N207 2.121 . S
Co204 O212 2.055 . S
Co204 O215 2.039 . S
Co204 N218 2.140 . S
C205 O206 1.227 . S
C205 O215 1.265 . S
O206 C205 1.227 . S
N207 Co204 2.121 . S
N207 C209 1.375 . S
N207 C210 1.313 . S
C208 C209 1.338 . S
C208 N211 1.377 . S
C208 H228 0.930 . S
C209 N207 1.375 . S
C209 C208 1.338 . S
C209 H213 0.931 . S
C210 N207 1.313 . S
C210 N211 1.344 . S
C210 H214 0.930 . S
N211 C208 1.377 . S
N211 C210 1.344 . S
O212 Co204 2.055 . S
O212 C216 1.253 . S
H213 C209 0.931 . S
H214 C210 0.930 . S
O215 Co204 2.039 . S
O215 C205 1.265 . S
C216 O212 1.253 . S
C216 O217 1.227 . S
O217 C216 1.227 . S
N218 Co204 2.140 . S
N218 C221 1.346 . S
N218 C222 1.345 . S
C219 C220 1.387 . S
C219 C223 1.391 . S
C220 C219 1.387 . S
C220 C221 1.369 . S
C220 H229 0.929 . S
C221 N218 1.346 . S
C221 C220 1.369 . S
C221 H224 0.928 . S
C222 N218 1.345 . S
C222 C223 1.371 . S
C222 H225 0.931 . S
C223 C219 1.391 . S
C223 C222 1.371 . S
C223 H230 0.930 . S
H224 C221 0.928 . S
H225 C222 0.931 . S
H226 C202 0.930 . S
H227 C199 0.930 . S
H228 C208 0.930 . S
H229 C220 0.929 . S
H230 C223 0.930 . S
C231 C232 1.351 . S
C231 N234 1.368 . S
C231 H236 0.931 . S
C232 C231 1.351 . S
C232 N233 1.373 . S
C232 H260 0.930 . S
N233 C232 1.373 . S
N233 C235 1.340 . S
N234 C231 1.368 . S
N234 C235 1.321 . S
N234 Co237 2.135 . S
C235 N233 1.340 . S
C235 N234 1.321 . S
C235 H259 0.930 . S
H236 C231 0.931 . S
Co237 N234 2.135 . S
Co237 N240 2.121 . S
Co237 O245 2.055 . S
Co237 O248 2.039 . S
Co237 N251 2.140 . S
C238 O239 1.227 . S
C238 O248 1.265 . S
O239 C238 1.227 . S
N240 Co237 2.121 . S
N240 C242 1.375 . S
N240 C243 1.313 . S
C241 C242 1.338 . S
C241 N244 1.377 . S
C241 H261 0.930 . S
C242 N240 1.375 . S
C242 C241 1.338 . S
C242 H246 0.931 . S
C243 N240 1.313 . S
C243 N244 1.344 . S
C243 H247 0.930 . S
N244 C241 1.377 . S
N244 C243 1.344 . S
O245 Co237 2.055 . S
O245 C249 1.253 . S
H246 C242 0.931 . S
H247 C243 0.930 . S
O248 Co237 2.039 . S
O248 C238 1.265 . S
C249 O245 1.253 . S
C249 O250 1.227 . S
O250 C249 1.227 . S
N251 Co237 2.140 . S
N251 C254 1.346 . S
N251 C255 1.345 . S
C252 C253 1.387 . S
C252 C256 1.391 . S
C253 C252 1.387 . S
C253 C254 1.369 . S
C253 H262 0.929 . S
C254 N251 1.346 . S
C254 C253 1.369 . S
C254 H257 0.928 . S
C255 N251 1.345 . S
C255 C256 1.371 . S
C255 H258 0.931 . S
C256 C252 1.391 . S
C256 C255 1.371 . S
C256 H263 0.930 . S
H257 C254 0.928 . S
H258 C255 0.931 . S
H259 C235 0.930 . S
H260 C232 0.930 . S
H261 C241 0.930 . S
H262 C253 0.929 . S
H263 C256 0.930 . S
C264 C265 1.351 . S
C264 N267 1.368 . S
C264 H269 0.931 . S
C265 C264 1.351 . S
C265 N266 1.373 . S
C265 H293 0.930 . S
N266 C265 1.373 . S
N266 C268 1.340 . S
N267 C264 1.368 . S
N267 C268 1.321 . S
N267 Co270 2.135 . S
C268 N266 1.340 . S
C268 N267 1.321 . S
C268 H292 0.930 . S
H269 C264 0.931 . S
Co270 N267 2.135 . S
Co270 N273 2.121 . S
Co270 O278 2.055 . S
Co270 O281 2.039 . S
Co270 N284 2.140 . S
C271 O272 1.227 . S
C271 O281 1.265 . S
O272 C271 1.227 . S
N273 Co270 2.121 . S
N273 C275 1.375 . S
N273 C276 1.313 . S
C274 C275 1.338 . S
C274 N277 1.377 . S
C274 H294 0.930 . S
C275 N273 1.375 . S
C275 C274 1.338 . S
C275 H279 0.931 . S
C276 N273 1.313 . S
C276 N277 1.344 . S
C276 H280 0.930 . S
N277 C274 1.377 . S
N277 C276 1.344 . S
O278 Co270 2.055 . S
O278 C282 1.253 . S
H279 C275 0.931 . S
H280 C276 0.930 . S
O281 Co270 2.039 . S
O281 C271 1.265 . S
C282 O278 1.253 . S
C282 O283 1.227 . S
O283 C282 1.227 . S
N284 Co270 2.140 . S
N284 C287 1.346 . S
N284 C288 1.345 . S
C285 C286 1.387 . S
C285 C289 1.391 . S
C286 C285 1.387 . S
C286 C287 1.369 . S
C286 H295 0.929 . S
C287 N284 1.346 . S
C287 C286 1.369 . S
C287 H290 0.928 . S
C288 N284 1.345 . S
C288 C289 1.371 . S
C288 H291 0.931 . S
C289 C285 1.391 . S
C289 C288 1.371 . S
C289 H296 0.930 . S
H290 C287 0.928 . S
H291 C288 0.931 . S
H292 C268 0.930 . S
H293 C265 0.930 . S
H294 C274 0.930 . S
H295 C286 0.929 . S
H296 C289 0.930 . S
C297 C298 1.351 . S
C297 N300 1.368 . S
C297 H302 0.931 . S
C298 C297 1.351 . S
C298 N299 1.373 . S
C298 H326 0.930 . S
N299 C298 1.373 . S
N299 C301 1.340 . S
N300 C297 1.368 . S
N300 C301 1.321 . S
N300 Co303 2.135 . S
C301 N299 1.340 . S
C301 N300 1.321 . S
C301 H325 0.930 . S
H302 C297 0.931 . S
Co303 N300 2.135 . S
Co303 N306 2.121 . S
Co303 O311 2.055 . S
Co303 O314 2.039 . S
Co303 N317 2.140 . S
C304 O305 1.227 . S
C304 O314 1.265 . S
O305 C304 1.227 . S
N306 Co303 2.121 . S
N306 C308 1.375 . S
N306 C309 1.313 . S
C307 C308 1.338 . S
C307 N310 1.377 . S
C307 H327 0.930 . S
C308 N306 1.375 . S
C308 C307 1.338 . S
C308 H312 0.931 . S
C309 N306 1.313 . S
C309 N310 1.344 . S
C309 H313 0.930 . S
N310 C307 1.377 . S
N310 C309 1.344 . S
O311 Co303 2.055 . S
O311 C315 1.253 . S
H312 C308 0.931 . S
H313 C309 0.930 . S
O314 Co303 2.039 . S
O314 C304 1.265 . S
C315 O311 1.253 . S
C315 O316 1.227 . S
O316 C315 1.227 . S
N317 Co303 2.140 . S
N317 C320 1.346 . S
N317 C321 1.345 . S
C318 C319 1.387 . S
C318 C322 1.391 . S
C319 C318 1.387 . S
C319 C320 1.369 . S
C319 H328 0.929 . S
C320 N317 1.346 . S
C320 C319 1.369 . S
C320 H323 0.928 . S
C321 N317 1.345 . S
C321 C322 1.371 . S
C321 H324 0.931 . S
C322 C318 1.391 . S
C322 C321 1.371 . S
C322 H329 0.930 . S
H323 C320 0.928 . S
H324 C321 0.931 . S
H325 C301 0.930 . S
H326 C298 0.930 . S
H327 C307 0.930 . S
H328 C319 0.929 . S
H329 C322 0.930 . S
C330 C331 1.351 . S
C330 N333 1.368 . S
C330 H335 0.931 . S
C331 C330 1.351 . S
C331 N332 1.373 . S
C331 H359 0.930 . S
N332 C331 1.373 . S
N332 C334 1.340 . S
N333 C330 1.368 . S
N333 C334 1.321 . S
N333 Co336 2.135 . S
C334 N332 1.340 . S
C334 N333 1.321 . S
C334 H358 0.930 . S
H335 C330 0.931 . S
Co336 N333 2.135 . S
Co336 N339 2.121 . S
Co336 O344 2.055 . S
Co336 O347 2.039 . S
Co336 N350 2.140 . S
C337 O338 1.227 . S
C337 O347 1.265 . S
O338 C337 1.227 . S
N339 Co336 2.121 . S
N339 C341 1.375 . S
N339 C342 1.313 . S
C340 C341 1.338 . S
C340 N343 1.377 . S
C340 H360 0.930 . S
C341 N339 1.375 . S
C341 C340 1.338 . S
C341 H345 0.931 . S
C342 N339 1.313 . S
C342 N343 1.344 . S
C342 H346 0.930 . S
N343 C340 1.377 . S
N343 C342 1.344 . S
O344 Co336 2.055 . S
O344 C348 1.253 . S
H345 C341 0.931 . S
H346 C342 0.930 . S
O347 Co336 2.039 . S
O347 C337 1.265 . S
C348 O344 1.253 . S
C348 O349 1.227 . S
O349 C348 1.227 . S
N350 Co336 2.140 . S
N350 C353 1.346 . S
N350 C354 1.345 . S
C351 C352 1.387 . S
C351 C355 1.391 . S
C352 C351 1.387 . S
C352 C353 1.369 . S
C352 H361 0.929 . S
C353 N350 1.346 . S
C353 C352 1.369 . S
C353 H356 0.928 . S
C354 N350 1.345 . S
C354 C355 1.371 . S
C354 H357 0.931 . S
C355 C351 1.391 . S
C355 C354 1.371 . S
C355 H362 0.930 . S
H356 C353 0.928 . S
H357 C354 0.931 . S
H358 C334 0.930 . S
H359 C331 0.930 . S
H360 C340 0.930 . S
H361 C352 0.929 . S
H362 C355 0.930 . S
C363 C364 1.351 . S
C363 N366 1.368 . S
C363 H368 0.931 . S
C364 C363 1.351 . S
C364 N365 1.373 . S
C364 H392 0.930 . S
N365 C364 1.373 . S
N365 C367 1.340 . S
N366 C363 1.368 . S
N366 C367 1.321 . S
N366 Co369 2.135 . S
C367 N365 1.340 . S
C367 N366 1.321 . S
C367 H391 0.930 . S
H368 C363 0.931 . S
Co369 N366 2.135 . S
Co369 N372 2.121 . S
Co369 O377 2.055 . S
Co369 O380 2.039 . S
Co369 N383 2.140 . S
C370 O371 1.227 . S
C370 O380 1.265 . S
O371 C370 1.227 . S
N372 Co369 2.121 . S
N372 C374 1.375 . S
N372 C375 1.313 . S
C373 C374 1.338 . S
C373 N376 1.377 . S
C373 H393 0.930 . S
C374 N372 1.375 . S
C374 C373 1.338 . S
C374 H378 0.931 . S
C375 N372 1.313 . S
C375 N376 1.344 . S
C375 H379 0.930 . S
N376 C373 1.377 . S
N376 C375 1.344 . S
O377 Co369 2.055 . S
O377 C381 1.253 . S
H378 C374 0.931 . S
H379 C375 0.930 . S
O380 Co369 2.039 . S
O380 C370 1.265 . S
C381 O377 1.253 . S
C381 O382 1.227 . S
O382 C381 1.227 . S
N383 Co369 2.140 . S
N383 C386 1.346 . S
N383 C387 1.345 . S
C384 C385 1.387 . S
C384 C388 1.391 . S
C385 C384 1.387 . S
C385 C386 1.369 . S
C385 H394 0.929 . S
C386 N383 1.346 . S
C386 C385 1.369 . S
C386 H389 0.928 . S
C387 N383 1.345 . S
C387 C388 1.371 . S
C387 H390 0.931 . S
C388 C384 1.391 . S
C388 C387 1.371 . S
C388 H395 0.930 . S
H389 C386 0.928 . S
H390 C387 0.931 . S
H391 C367 0.930 . S
H392 C364 0.930 . S
H393 C373 0.930 . S
H394 C385 0.929 . S
H395 C388 0.930 . S
C396 C397 1.351 . S
C396 N399 1.368 . S
C396 H401 0.931 . S
C397 C396 1.351 . S
C397 N398 1.373 . S
C397 H425 0.930 . S
N398 C397 1.373 . S
N398 C400 1.340 . S
N399 C396 1.368 . S
N399 C400 1.321 . S
N399 Co402 2.135 . S
C400 N398 1.340 . S
C400 N399 1.321 . S
C400 H424 0.930 . S
H401 C396 0.931 . S
Co402 N399 2.135 . S
Co402 N405 2.121 . S
Co402 O410 2.055 . S
Co402 O413 2.039 . S
Co402 N416 2.140 . S
C403 O404 1.227 . S
C403 O413 1.265 . S
O404 C403 1.227 . S
N405 Co402 2.121 . S
N405 C407 1.375 . S
N405 C408 1.313 . S
C406 C407 1.338 . S
C406 N409 1.377 . S
C406 H426 0.930 . S
C407 N405 1.375 . S
C407 C406 1.338 . S
C407 H411 0.931 . S
C408 N405 1.313 . S
C408 N409 1.344 . S
C408 H412 0.930 . S
N409 C406 1.377 . S
N409 C408 1.344 . S
O410 Co402 2.055 . S
O410 C414 1.253 . S
H411 C407 0.931 . S
H412 C408 0.930 . S
O413 Co402 2.039 . S
O413 C403 1.265 . S
C414 O410 1.253 . S
C414 O415 1.227 . S
O415 C414 1.227 . S
N416 Co402 2.140 . S
N416 C419 1.346 . S
N416 C420 1.345 . S
C417 C418 1.387 . S
C417 C421 1.391 . S
C418 C417 1.387 . S
C418 C419 1.369 . S
C418 H427 0.929 . S
C419 N416 1.346 . S
C419 C418 1.369 . S
C419 H422 0.928 . S
C420 N416 1.345 . S
C420 C421 1.371 . S
C420 H423 0.931 . S
C421 C417 1.391 . S
C421 C420 1.371 . S
C421 H428 0.930 . S
H422 C419 0.928 . S
H423 C420 0.931 . S
H424 C400 0.930 . S
H425 C397 0.930 . S
H426 C406 0.930 . S
H427 C418 0.929 . S
H428 C421 0.930 . S
C429 C430 1.351 . S
C429 N432 1.368 . S
C429 H434 0.931 . S
C430 C429 1.351 . S
C430 N431 1.373 . S
C430 H458 0.930 . S
N431 C430 1.373 . S
N431 C433 1.340 . S
N432 C429 1.368 . S
N432 C433 1.321 . S
N432 Co435 2.135 . S
C433 N431 1.340 . S
C433 N432 1.321 . S
C433 H457 0.930 . S
H434 C429 0.931 . S
Co435 N432 2.135 . S
Co435 N438 2.121 . S
Co435 O443 2.055 . S
Co435 O446 2.039 . S
Co435 N449 2.140 . S
C436 O437 1.227 . S
C436 O446 1.265 . S
O437 C436 1.227 . S
N438 Co435 2.121 . S
N438 C440 1.375 . S
N438 C441 1.313 . S
C439 C440 1.338 . S
C439 N442 1.377 . S
C439 H459 0.930 . S
C440 N438 1.375 . S
C440 C439 1.338 . S
C440 H444 0.931 . S
C441 N438 1.313 . S
C441 N442 1.344 . S
C441 H445 0.930 . S
N442 C439 1.377 . S
N442 C441 1.344 . S
O443 Co435 2.055 . S
O443 C447 1.253 . S
H444 C440 0.931 . S
H445 C441 0.930 . S
O446 Co435 2.039 . S
O446 C436 1.265 . S
C447 O443 1.253 . S
C447 O448 1.227 . S
O448 C447 1.227 . S
N449 Co435 2.140 . S
N449 C452 1.346 . S
N449 C453 1.345 . S
C450 C451 1.387 . S
C450 C454 1.391 . S
C451 C450 1.387 . S
C451 C452 1.369 . S
C451 H460 0.929 . S
C452 N449 1.346 . S
C452 C451 1.369 . S
C452 H455 0.928 . S
C453 N449 1.345 . S
C453 C454 1.371 . S
C453 H456 0.931 . S
C454 C450 1.391 . S
C454 C453 1.371 . S
C454 H461 0.930 . S
H455 C452 0.928 . S
H456 C453 0.931 . S
H457 C433 0.930 . S
H458 C430 0.930 . S
H459 C439 0.930 . S
H460 C451 0.929 . S
H461 C454 0.930 . S
C462 C463 1.351 . S
C462 N465 1.368 . S
C462 H467 0.931 . S
C463 C462 1.351 . S
C463 N464 1.373 . S
C463 H491 0.930 . S
N464 C463 1.373 . S
N464 C466 1.340 . S
N465 C462 1.368 . S
N465 C466 1.321 . S
N465 Co468 2.135 . S
C466 N464 1.340 . S
C466 N465 1.321 . S
C466 H490 0.930 . S
H467 C462 0.931 . S
Co468 N465 2.135 . S
Co468 N471 2.121 . S
Co468 O476 2.055 . S
Co468 O479 2.039 . S
Co468 N482 2.140 . S
C469 O470 1.227 . S
C469 O479 1.265 . S
O470 C469 1.227 . S
N471 Co468 2.121 . S
N471 C473 1.375 . S
N471 C474 1.313 . S
C472 C473 1.338 . S
C472 N475 1.377 . S
C472 H492 0.930 . S
C473 N471 1.375 . S
C473 C472 1.338 . S
C473 H477 0.931 . S
C474 N471 1.313 . S
C474 N475 1.344 . S
C474 H478 0.930 . S
N475 C472 1.377 . S
N475 C474 1.344 . S
O476 Co468 2.055 . S
O476 C480 1.253 . S
H477 C473 0.931 . S
H478 C474 0.930 . S
O479 Co468 2.039 . S
O479 C469 1.265 . S
C480 O476 1.253 . S
C480 O481 1.227 . S
O481 C480 1.227 . S
N482 Co468 2.140 . S
N482 C485 1.346 . S
N482 C486 1.345 . S
C483 C484 1.387 . S
C483 C487 1.391 . S
C484 C483 1.387 . S
C484 C485 1.369 . S
C484 H493 0.929 . S
C485 N482 1.346 . S
C485 C484 1.369 . S
C485 H488 0.928 . S
C486 N482 1.345 . S
C486 C487 1.371 . S
C486 H489 0.931 . S
C487 C483 1.391 . S
C487 C486 1.371 . S
C487 H494 0.930 . S
H488 C485 0.928 . S
H489 C486 0.931 . S
H490 C466 0.930 . S
H491 C463 0.930 . S
H492 C472 0.930 . S
H493 C484 0.929 . S
H494 C487 0.930 . S
C495 C496 1.351 . S
C495 N498 1.368 . S
C495 H500 0.931 . S
C496 C495 1.351 . S
C496 N497 1.373 . S
C496 H524 0.930 . S
N497 C496 1.373 . S
N497 C499 1.340 . S
N498 C495 1.368 . S
N498 C499 1.321 . S
N498 Co501 2.135 . S
C499 N497 1.340 . S
C499 N498 1.321 . S
C499 H523 0.930 . S
H500 C495 0.931 . S
Co501 N498 2.135 . S
Co501 N504 2.121 . S
Co501 O509 2.055 . S
Co501 O512 2.039 . S
Co501 N515 2.140 . S
C502 O503 1.227 . S
C502 O512 1.265 . S
O503 C502 1.227 . S
N504 Co501 2.121 . S
N504 C506 1.375 . S
N504 C507 1.313 . S
C505 C506 1.338 . S
C505 N508 1.377 . S
C505 H525 0.930 . S
C506 N504 1.375 . S
C506 C505 1.338 . S
C506 H510 0.931 . S
C507 N504 1.313 . S
C507 N508 1.344 . S
C507 H511 0.930 . S
N508 C505 1.377 . S
N508 C507 1.344 . S
O509 Co501 2.055 . S
O509 C513 1.253 . S
H510 C506 0.931 . S
H511 C507 0.930 . S
O512 Co501 2.039 . S
O512 C502 1.265 . S
C513 O509 1.253 . S
C513 O514 1.227 . S
O514 C513 1.227 . S
N515 Co501 2.140 . S
N515 C518 1.346 . S
N515 C519 1.345 . S
C516 C517 1.387 . S
C516 C520 1.391 . S
C517 C516 1.387 . S
C517 C518 1.369 . S
C517 H526 0.929 . S
C518 N515 1.346 . S
C518 C517 1.369 . S
C518 H521 0.928 . S
C519 N515 1.345 . S
C519 C520 1.371 . S
C519 H522 0.931 . S
C520 C516 1.391 . S
C520 C519 1.371 . S
C520 H527 0.930 . S
H521 C518 0.928 . S
H522 C519 0.931 . S
H523 C499 0.930 . S
H524 C496 0.930 . S
H525 C505 0.930 . S
H526 C517 0.929 . S
H527 C520 0.930 . S
C528 C529 1.351 . S
C528 N531 1.368 . S
C528 H533 0.931 . S
C529 C528 1.351 . S
C529 N530 1.373 . S
C529 H557 0.930 . S
N530 C529 1.373 . S
N530 C532 1.340 . S
N531 C528 1.368 . S
N531 C532 1.321 . S
N531 Co534 2.135 . S
C532 N530 1.340 . S
C532 N531 1.321 . S
C532 H556 0.930 . S
H533 C528 0.931 . S
Co534 N531 2.135 . S
Co534 N537 2.121 . S
Co534 O542 2.055 . S
Co534 O545 2.039 . S
Co534 N548 2.140 . S
C535 O536 1.227 . S
C535 O545 1.265 . S
O536 C535 1.227 . S
N537 Co534 2.121 . S
N537 C539 1.375 . S
N537 C540 1.313 . S
C538 C539 1.338 . S
C538 N541 1.377 . S
C538 H558 0.930 . S
C539 N537 1.375 . S
C539 C538 1.338 . S
C539 H543 0.931 . S
C540 N537 1.313 . S
C540 N541 1.344 . S
C540 H544 0.930 . S
N541 C538 1.377 . S
N541 C540 1.344 . S
O542 Co534 2.055 . S
O542 C546 1.253 . S
H543 C539 0.931 . S
H544 C540 0.930 . S
O545 Co534 2.039 . S
O545 C535 1.265 . S
C546 O542 1.253 . S
C546 O547 1.227 . S
O547 C546 1.227 . S
N548 Co534 2.140 . S
N548 C551 1.346 . S
N548 C552 1.345 . S
C549 C550 1.387 . S
C549 C553 1.391 . S
C550 C549 1.387 . S
C550 C551 1.369 . S
C550 H559 0.929 . S
C551 N548 1.346 . S
C551 C550 1.369 . S
C551 H554 0.928 . S
C552 N548 1.345 . S
C552 C553 1.371 . S
C552 H555 0.931 . S
C553 C549 1.391 . S
C553 C552 1.371 . S
C553 H560 0.930 . S
H554 C551 0.928 . S
H555 C552 0.931 . S
H556 C532 0.930 . S
H557 C529 0.930 . S
H558 C538 0.930 . S
H559 C550 0.929 . S
H560 C553 0.930 . S
C561 C562 1.351 . S
C561 N564 1.368 . S
C561 H566 0.931 . S
C562 C561 1.351 . S
C562 N563 1.373 . S
C562 H590 0.930 . S
N563 C562 1.373 . S
N563 C565 1.340 . S
N564 C561 1.368 . S
N564 C565 1.321 . S
N564 Co567 2.135 . S
C565 N563 1.340 . S
C565 N564 1.321 . S
C565 H589 0.930 . S
H566 C561 0.931 . S
Co567 N564 2.135 . S
Co567 N570 2.121 . S
Co567 O575 2.055 . S
Co567 O578 2.039 . S
Co567 N581 2.140 . S
C568 O569 1.227 . S
C568 O578 1.265 . S
O569 C568 1.227 . S
N570 Co567 2.121 . S
N570 C572 1.375 . S
N570 C573 1.313 . S
C571 C572 1.338 . S
C571 N574 1.377 . S
C571 H591 0.930 . S
C572 N570 1.375 . S
C572 C571 1.338 . S
C572 H576 0.931 . S
C573 N570 1.313 . S
C573 N574 1.344 . S
C573 H577 0.930 . S
N574 C571 1.377 . S
N574 C573 1.344 . S
O575 Co567 2.055 . S
O575 C579 1.253 . S
H576 C572 0.931 . S
H577 C573 0.930 . S
O578 Co567 2.039 . S
O578 C568 1.265 . S
C579 O575 1.253 . S
C579 O580 1.227 . S
O580 C579 1.227 . S
N581 Co567 2.140 . S
N581 C584 1.346 . S
N581 C585 1.345 . S
C582 C583 1.387 . S
C582 C586 1.391 . S
C583 C582 1.387 . S
C583 C584 1.369 . S
C583 H592 0.929 . S
C584 N581 1.346 . S
C584 C583 1.369 . S
C584 H587 0.928 . S
C585 N581 1.345 . S
C585 C586 1.371 . S
C585 H588 0.931 . S
C586 C582 1.391 . S
C586 C585 1.371 . S
C586 H593 0.930 . S
H587 C584 0.928 . S
H588 C585 0.931 . S
H589 C565 0.930 . S
H590 C562 0.930 . S
H591 C571 0.930 . S
H592 C583 0.929 . S
H593 C586 0.930 . S
C594 C595 1.351 . S
C594 N597 1.368 . S
C594 H599 0.931 . S
C595 C594 1.351 . S
C595 N596 1.373 . S
C595 H623 0.930 . S
N596 C595 1.373 . S
N596 C598 1.340 . S
N597 C594 1.368 . S
N597 C598 1.321 . S
N597 Co600 2.135 . S
C598 N596 1.340 . S
C598 N597 1.321 . S
C598 H622 0.930 . S
H599 C594 0.931 . S
Co600 N597 2.135 . S
Co600 N603 2.121 . S
Co600 O608 2.055 . S
Co600 O611 2.039 . S
Co600 N614 2.140 . S
C601 O602 1.227 . S
C601 O611 1.265 . S
O602 C601 1.227 . S
N603 Co600 2.121 . S
N603 C605 1.375 . S
N603 C606 1.313 . S
C604 C605 1.338 . S
C604 N607 1.377 . S
C604 H624 0.930 . S
C605 N603 1.375 . S
C605 C604 1.338 . S
C605 H609 0.931 . S
C606 N603 1.313 . S
C606 N607 1.344 . S
C606 H610 0.930 . S
N607 C604 1.377 . S
N607 C606 1.344 . S
O608 Co600 2.055 . S
O608 C612 1.253 . S
H609 C605 0.931 . S
H610 C606 0.930 . S
O611 Co600 2.039 . S
O611 C601 1.265 . S
C612 O608 1.253 . S
C612 O613 1.227 . S
O613 C612 1.227 . S
N614 Co600 2.140 . S
N614 C617 1.346 . S
N614 C618 1.345 . S
C615 C616 1.387 . S
C615 C619 1.391 . S
C616 C615 1.387 . S
C616 C617 1.369 . S
C616 H625 0.929 . S
C617 N614 1.346 . S
C617 C616 1.369 . S
C617 H620 0.928 . S
C618 N614 1.345 . S
C618 C619 1.371 . S
C618 H621 0.931 . S
C619 C615 1.391 . S
C619 C618 1.371 . S
C619 H626 0.930 . S
H620 C617 0.928 . S
H621 C618 0.931 . S
H622 C598 0.930 . S
H623 C595 0.930 . S
H624 C604 0.930 . S
H625 C616 0.929 . S
H626 C619 0.930 . S
C627 C628 1.351 . S
C627 N630 1.368 . S
C627 H632 0.931 . S
C628 C627 1.351 . S
C628 N629 1.373 . S
C628 H656 0.930 . S
N629 C628 1.373 . S
N629 C631 1.340 . S
N630 C627 1.368 . S
N630 C631 1.321 . S
N630 Co633 2.135 . S
C631 N629 1.340 . S
C631 N630 1.321 . S
C631 H655 0.930 . S
H632 C627 0.931 . S
Co633 N630 2.135 . S
Co633 N636 2.121 . S
Co633 O641 2.055 . S
Co633 O644 2.039 . S
Co633 N647 2.140 . S
C634 O635 1.227 . S
C634 O644 1.265 . S
O635 C634 1.227 . S
N636 Co633 2.121 . S
N636 C638 1.375 . S
N636 C639 1.313 . S
C637 C638 1.338 . S
C637 N640 1.377 . S
C637 H657 0.930 . S
C638 N636 1.375 . S
C638 C637 1.338 . S
C638 H642 0.931 . S
C639 N636 1.313 . S
C639 N640 1.344 . S
C639 H643 0.930 . S
N640 C637 1.377 . S
N640 C639 1.344 . S
O641 Co633 2.055 . S
O641 C645 1.253 . S
H642 C638 0.931 . S
H643 C639 0.930 . S
O644 Co633 2.039 . S
O644 C634 1.265 . S
C645 O641 1.253 . S
C645 O646 1.227 . S
O646 C645 1.227 . S
N647 Co633 2.140 . S
N647 C650 1.346 . S
N647 C651 1.345 . S
C648 C649 1.387 . S
C648 C652 1.391 . S
C649 C648 1.387 . S
C649 C650 1.369 . S
C649 H658 0.929 . S
C650 N647 1.346 . S
C650 C649 1.369 . S
C650 H653 0.928 . S
C651 N647 1.345 . S
C651 C652 1.371 . S
C651 H654 0.931 . S
C652 C648 1.391 . S
C652 C651 1.371 . S
C652 H659 0.930 . S
H653 C650 0.928 . S
H654 C651 0.931 . S
H655 C631 0.930 . S
H656 C628 0.930 . S
H657 C637 0.930 . S
H658 C649 0.929 . S
H659 C652 0.930 . S
C660 C661 1.351 . S
C660 N663 1.368 . S
C660 H665 0.931 . S
C661 C660 1.351 . S
C661 N662 1.373 . S
C661 H689 0.930 . S
N662 C661 1.373 . S
N662 C664 1.340 . S
N663 C660 1.368 . S
N663 C664 1.321 . S
N663 Co666 2.135 . S
C664 N662 1.340 . S
C664 N663 1.321 . S
C664 H688 0.930 . S
H665 C660 0.931 . S
Co666 N663 2.135 . S
Co666 N669 2.121 . S
Co666 O674 2.055 . S
Co666 O677 2.039 . S
Co666 N680 2.140 . S
C667 O668 1.227 . S
C667 O677 1.265 . S
O668 C667 1.227 . S
N669 Co666 2.121 . S
N669 C671 1.375 . S
N669 C672 1.313 . S
C670 C671 1.338 . S
C670 N673 1.377 . S
C670 H690 0.930 . S
C671 N669 1.375 . S
C671 C670 1.338 . S
C671 H675 0.931 . S
C672 N669 1.313 . S
C672 N673 1.344 . S
C672 H676 0.930 . S
N673 C670 1.377 . S
N673 C672 1.344 . S
O674 Co666 2.055 . S
O674 C678 1.253 . S
H675 C671 0.931 . S
H676 C672 0.930 . S
O677 Co666 2.039 . S
O677 C667 1.265 . S
C678 O674 1.253 . S
C678 O679 1.227 . S
O679 C678 1.227 . S
N680 Co666 2.140 . S
N680 C683 1.346 . S
N680 C684 1.345 . S
C681 C682 1.387 . S
C681 C685 1.391 . S
C682 C681 1.387 . S
C682 C683 1.369 . S
C682 H691 0.929 . S
C683 N680 1.346 . S
C683 C682 1.369 . S
C683 H686 0.928 . S
C684 N680 1.345 . S
C684 C685 1.371 . S
C684 H687 0.931 . S
C685 C681 1.391 . S
C685 C684 1.371 . S
C685 H692 0.930 . S
H686 C683 0.928 . S
H687 C684 0.931 . S
H688 C664 0.930 . S
H689 C661 0.930 . S
H690 C670 0.930 . S
H691 C682 0.929 . S
H692 C685 0.930 . S
C693 C694 1.351 . S
C693 N696 1.368 . S
C693 H698 0.931 . S
C694 C693 1.351 . S
C694 N695 1.373 . S
C694 H722 0.930 . S
N695 C694 1.373 . S
N695 C697 1.340 . S
N696 C693 1.368 . S
N696 C697 1.321 . S
N696 Co699 2.135 . S
C697 N695 1.340 . S
C697 N696 1.321 . S
C697 H721 0.930 . S
H698 C693 0.931 . S
Co699 N696 2.135 . S
Co699 N702 2.121 . S
Co699 O707 2.055 . S
Co699 O710 2.039 . S
Co699 N713 2.140 . S
C700 O701 1.227 . S
C700 O710 1.265 . S
O701 C700 1.227 . S
N702 Co699 2.121 . S
N702 C704 1.375 . S
N702 C705 1.313 . S
C703 C704 1.338 . S
C703 N706 1.377 . S
C703 H723 0.930 . S
C704 N702 1.375 . S
C704 C703 1.338 . S
C704 H708 0.931 . S
C705 N702 1.313 . S
C705 N706 1.344 . S
C705 H709 0.930 . S
N706 C703 1.377 . S
N706 C705 1.344 . S
O707 Co699 2.055 . S
O707 C711 1.253 . S
H708 C704 0.931 . S
H709 C705 0.930 . S
O710 Co699 2.039 . S
O710 C700 1.265 . S
C711 O707 1.253 . S
C711 O712 1.227 . S
O712 C711 1.227 . S
N713 Co699 2.140 . S
N713 C716 1.346 . S
N713 C717 1.345 . S
C714 C715 1.387 . S
C714 C718 1.391 . S
C715 C714 1.387 . S
C715 C716 1.369 . S
C715 H724 0.929 . S
C716 N713 1.346 . S
C716 C715 1.369 . S
C716 H719 0.928 . S
C717 N713 1.345 . S
C717 C718 1.371 . S
C717 H720 0.931 . S
C718 C714 1.391 . S
C718 C717 1.371 . S
C718 H725 0.930 . S
H719 C716 0.928 . S
H720 C717 0.931 . S
H721 C697 0.930 . S
H722 C694 0.930 . S
H723 C703 0.930 . S
H724 C715 0.929 . S
H725 C718 0.930 . S
C726 C727 1.351 . S
C726 N729 1.368 . S
C726 H731 0.931 . S
C727 C726 1.351 . S
C727 N728 1.373 . S
C727 H755 0.930 . S
N728 C727 1.373 . S
N728 C730 1.340 . S
N729 C726 1.368 . S
N729 C730 1.321 . S
N729 Co732 2.135 . S
C730 N728 1.340 . S
C730 N729 1.321 . S
C730 H754 0.930 . S
H731 C726 0.931 . S
Co732 N729 2.135 . S
Co732 N735 2.121 . S
Co732 O740 2.055 . S
Co732 O743 2.039 . S
Co732 N746 2.140 . S
C733 O734 1.227 . S
C733 O743 1.265 . S
O734 C733 1.227 . S
N735 Co732 2.121 . S
N735 C737 1.375 . S
N735 C738 1.313 . S
C736 C737 1.338 . S
C736 N739 1.377 . S
C736 H756 0.930 . S
C737 N735 1.375 . S
C737 C736 1.338 . S
C737 H741 0.931 . S
C738 N735 1.313 . S
C738 N739 1.344 . S
C738 H742 0.930 . S
N739 C736 1.377 . S
N739 C738 1.344 . S
O740 Co732 2.055 . S
O740 C744 1.253 . S
H741 C737 0.931 . S
H742 C738 0.930 . S
O743 Co732 2.039 . S
O743 C733 1.265 . S
C744 O740 1.253 . S
C744 O745 1.227 . S
O745 C744 1.227 . S
N746 Co732 2.140 . S
N746 C749 1.346 . S
N746 C750 1.345 . S
C747 C748 1.387 . S
C747 C751 1.391 . S
C748 C747 1.387 . S
C748 C749 1.369 . S
C748 H757 0.929 . S
C749 N746 1.346 . S
C749 C748 1.369 . S
C749 H752 0.928 . S
C750 N746 1.345 . S
C750 C751 1.371 . S
C750 H753 0.931 . S
C751 C747 1.391 . S
C751 C750 1.371 . S
C751 H758 0.930 . S
H752 C749 0.928 . S
H753 C750 0.931 . S
H754 C730 0.930 . S
H755 C727 0.930 . S
H756 C736 0.930 . S
H757 C748 0.929 . S
H758 C751 0.930 . S
C759 C760 1.351 . S
C759 N762 1.368 . S
C759 H764 0.931 . S
C760 C759 1.351 . S
C760 N761 1.373 . S
C760 H788 0.930 . S
N761 C760 1.373 . S
N761 C763 1.340 . S
N762 C759 1.368 . S
N762 C763 1.321 . S
N762 Co765 2.135 . S
C763 N761 1.340 . S
C763 N762 1.321 . S
C763 H787 0.930 . S
H764 C759 0.931 . S
Co765 N762 2.135 . S
Co765 N768 2.121 . S
Co765 O773 2.055 . S
Co765 O776 2.039 . S
Co765 N779 2.140 . S
C766 O767 1.227 . S
C766 O776 1.265 . S
O767 C766 1.227 . S
N768 Co765 2.121 . S
N768 C770 1.375 . S
N768 C771 1.313 . S
C769 C770 1.338 . S
C769 N772 1.377 . S
C769 H789 0.930 . S
C770 N768 1.375 . S
C770 C769 1.338 . S
C770 H774 0.931 . S
C771 N768 1.313 . S
C771 N772 1.344 . S
C771 H775 0.930 . S
N772 C769 1.377 . S
N772 C771 1.344 . S
O773 Co765 2.055 . S
O773 C777 1.253 . S
H774 C770 0.931 . S
H775 C771 0.930 . S
O776 Co765 2.039 . S
O776 C766 1.265 . S
C777 O773 1.253 . S
C777 O778 1.227 . S
O778 C777 1.227 . S
N779 Co765 2.140 . S
N779 C782 1.346 . S
N779 C783 1.345 . S
C780 C781 1.387 . S
C780 C784 1.391 . S
C781 C780 1.387 . S
C781 C782 1.369 . S
C781 H790 0.929 . S
C782 N779 1.346 . S
C782 C781 1.369 . S
C782 H785 0.928 . S
C783 N779 1.345 . S
C783 C784 1.371 . S
C783 H786 0.931 . S
C784 C780 1.391 . S
C784 C783 1.371 . S
C784 H791 0.930 . S
H785 C782 0.928 . S
H786 C783 0.931 . S
H787 C763 0.930 . S
H788 C760 0.930 . S
H789 C769 0.930 . S
H790 C781 0.929 . S
H791 C784 0.930 . S
H792 C800 0.950 . S
H793 C805 0.950 . S
H794 C802 0.950 . S
H795 C804 0.950 . S
H796 C806 0.950 . S
H797 C808 0.950 . S
H798 C810 0.950 . S
H799 C811 0.950 . S
C800 H792 0.950 . S
C800 C801 1.386 . S
C800 C802 1.391 . S
C801 C800 1.386 . S
C801 C805 1.393 . S
C802 H794 0.950 . S
C802 C800 1.391 . S
C802 C803 1.400 . S
C803 C802 1.400 . S
C803 C804 1.398 . S
C803 C809 1.491 . S
C804 H795 0.950 . S
C804 C803 1.398 . S
C804 C805 1.391 . S
C805 H793 0.950 . S
C805 C801 1.393 . S
C805 C804 1.391 . S
C806 H796 0.950 . S
C806 C807 1.386 . S
C806 C808 1.391 . S
C807 C806 1.386 . S
C807 C811 1.393 . S
C808 H797 0.950 . S
C808 C806 1.391 . S
C808 C809 1.400 . S
C809 C803 1.491 . S
C809 C808 1.400 . S
C809 C810 1.398 . S
C810 H798 0.950 . S
C810 C809 1.398 . S
C810 C811 1.391 . S
C811 H799 0.950 . S
C811 C807 1.393 . S
C811 C810 1.391 . S
H812 C820 0.950 . S
H813 C825 0.950 . S
H814 C822 0.950 . S
H815 C824 0.950 . S
H816 C826 0.950 . S
H817 C828 0.950 . S
H818 C830 0.950 . S
H819 C831 0.950 . S
C820 H812 0.950 . S
C820 C821 1.386 . S
C820 C822 1.391 . S
C821 C820 1.386 . S
C821 C825 1.393 . S
C822 H814 0.950 . S
C822 C820 1.391 . S
C822 C823 1.400 . S
C823 C822 1.400 . S
C823 C824 1.398 . S
C823 C829 1.491 . S
C824 H815 0.950 . S
C824 C823 1.398 . S
C824 C825 1.391 . S
C825 H813 0.950 . S
C825 C821 1.393 . S
C825 C824 1.391 . S
C826 H816 0.950 . S
C826 C827 1.386 . S
C826 C828 1.391 . S
C827 C826 1.386 . S
C827 C831 1.393 . S
C828 H817 0.950 . S
C828 C826 1.391 . S
C828 C829 1.400 . S
C829 C823 1.491 . S
C829 C828 1.400 . S
C829 C830 1.398 . S
C830 H818 0.950 . S
C830 C829 1.398 . S
C830 C831 1.391 . S
C831 H819 0.950 . S
C831 C827 1.393 . S
C831 C830 1.391 . S
H832 C840 0.950 . S
H833 C845 0.950 . S
H834 C842 0.950 . S
H835 C844 0.950 . S
H836 C846 0.950 . S
H837 C848 0.950 . S
H838 C850 0.950 . S
H839 C851 0.950 . S
C840 H832 0.950 . S
C840 C841 1.386 . S
C840 C842 1.391 . S
C841 C840 1.386 . S
C841 C845 1.393 . S
C842 H834 0.950 . S
C842 C840 1.391 . S
C842 C843 1.400 . S
C843 C842 1.400 . S
C843 C844 1.398 . S
C843 C849 1.491 . S
C844 H835 0.950 . S
C844 C843 1.398 . S
C844 C845 1.391 . S
C845 H833 0.950 . S
C845 C841 1.393 . S
C845 C844 1.391 . S
C846 H836 0.950 . S
C846 C847 1.386 . S
C846 C848 1.391 . S
C847 C846 1.386 . S
C847 C851 1.393 . S
C848 H837 0.950 . S
C848 C846 1.391 . S
C848 C849 1.400 . S
C849 C843 1.491 . S
C849 C848 1.400 . S
C849 C850 1.398 . S
C850 H838 0.950 . S
C850 C849 1.398 . S
C850 C851 1.391 . S
C851 H839 0.950 . S
C851 C847 1.393 . S
C851 C850 1.391 . S
H852 C860 0.950 . S
H853 C865 0.950 . S
H854 C862 0.950 . S
H855 C864 0.950 . S
H856 C866 0.950 . S
H857 C868 0.950 . S
H858 C870 0.950 . S
H859 C871 0.950 . S
C860 H852 0.950 . S
C860 C861 1.386 . S
C860 C862 1.391 . S
C861 C860 1.386 . S
C861 C865 1.393 . S
C862 H854 0.950 . S
C862 C860 1.391 . S
C862 C863 1.400 . S
C863 C862 1.400 . S
C863 C864 1.398 . S
C863 C869 1.491 . S
C864 H855 0.950 . S
C864 C863 1.398 . S
C864 C865 1.391 . S
C865 H853 0.950 . S
C865 C861 1.393 . S
C865 C864 1.391 . S
C866 H856 0.950 . S
C866 C867 1.386 . S
C866 C868 1.391 . S
C867 C866 1.386 . S
C867 C871 1.393 . S
C868 H857 0.950 . S
C868 C866 1.391 . S
C868 C869 1.400 . S
C869 C863 1.491 . S
C869 C868 1.400 . S
C869 C870 1.398 . S
C870 H858 0.950 . S
C870 C869 1.398 . S
C870 C871 1.391 . S
C871 H859 0.950 . S
C871 C867 1.393 . S
C871 C870 1.391 . S
H872 C880 0.950 . S
H873 C885 0.950 . S
H874 C882 0.950 . S
H875 C884 0.950 . S
H876 C886 0.950 . S
H877 C888 0.950 . S
H878 C890 0.950 . S
H879 C891 0.950 . S
C880 H872 0.950 . S
C880 C881 1.386 . S
C880 C882 1.391 . S
C881 C880 1.386 . S
C881 C885 1.393 . S
C882 H874 0.950 . S
C882 C880 1.391 . S
C882 C883 1.400 . S
C883 C882 1.400 . S
C883 C884 1.398 . S
C883 C889 1.491 . S
C884 H875 0.950 . S
C884 C883 1.398 . S
C884 C885 1.391 . S
C885 H873 0.950 . S
C885 C881 1.393 . S
C885 C884 1.391 . S
C886 H876 0.950 . S
C886 C887 1.386 . S
C886 C888 1.391 . S
C887 C886 1.386 . S
C887 C891 1.393 . S
C888 H877 0.950 . S
C888 C886 1.391 . S
C888 C889 1.400 . S
C889 C883 1.491 . S
C889 C888 1.400 . S
C889 C890 1.398 . S
C890 H878 0.950 . S
C890 C889 1.398 . S
C890 C891 1.391 . S
C891 H879 0.950 . S
C891 C887 1.393 . S
C891 C890 1.391 . S
H892 C900 0.950 . S
H893 C905 0.950 . S
H894 C902 0.950 . S
H895 C904 0.950 . S
H896 C906 0.950 . S
H897 C908 0.950 . S
H898 C910 0.950 . S
H899 C911 0.950 . S
C900 H892 0.950 . S
C900 C901 1.386 . S
C900 C902 1.391 . S
C901 C900 1.386 . S
C901 C905 1.393 . S
C902 H894 0.950 . S
C902 C900 1.391 . S
C902 C903 1.400 . S
C903 C902 1.400 . S
C903 C904 1.398 . S
C903 C909 1.491 . S
C904 H895 0.950 . S
C904 C903 1.398 . S
C904 C905 1.391 . S
C905 H893 0.950 . S
C905 C901 1.393 . S
C905 C904 1.391 . S
C906 H896 0.950 . S
C906 C907 1.386 . S
C906 C908 1.391 . S
C907 C906 1.386 . S
C907 C911 1.393 . S
C908 H897 0.950 . S
C908 C906 1.391 . S
C908 C909 1.400 . S
C909 C903 1.491 . S
C909 C908 1.400 . S
C909 C910 1.398 . S
C910 H898 0.950 . S
C910 C909 1.398 . S
C910 C911 1.391 . S
C911 H899 0.950 . S
C911 C907 1.393 . S
C911 C910 1.391 . S
H912 C920 0.950 . S
H913 C925 0.950 . S
H914 C922 0.950 . S
H915 C924 0.950 . S
H916 C926 0.950 . S
H917 C928 0.950 . S
H918 C930 0.950 . S
H919 C931 0.950 . S
C920 H912 0.950 . S
C920 C921 1.386 . S
C920 C922 1.391 . S
C921 C920 1.386 . S
C921 C925 1.393 . S
C922 H914 0.950 . S
C922 C920 1.391 . S
C922 C923 1.400 . S
C923 C922 1.400 . S
C923 C924 1.398 . S
C923 C929 1.491 . S
C924 H915 0.950 . S
C924 C923 1.398 . S
C924 C925 1.391 . S
C925 H913 0.950 . S
C925 C921 1.393 . S
C925 C924 1.391 . S
C926 H916 0.950 . S
C926 C927 1.386 . S
C926 C928 1.391 . S
C927 C926 1.386 . S
C927 C931 1.393 . S
C928 H917 0.950 . S
C928 C926 1.391 . S
C928 C929 1.400 . S
C929 C923 1.491 . S
C929 C928 1.400 . S
C929 C930 1.398 . S
C930 H918 0.950 . S
C930 C929 1.398 . S
C930 C931 1.391 . S
C931 H919 0.950 . S
C931 C927 1.393 . S
C931 C930 1.391 . S
H932 C940 0.950 . S
H933 C945 0.950 . S
H934 C942 0.950 . S
H935 C944 0.950 . S
H936 C946 0.950 . S
H937 C948 0.950 . S
H938 C950 0.950 . S
H939 C951 0.950 . S
C940 H932 0.950 . S
C940 C941 1.386 . S
C940 C942 1.391 . S
C941 C940 1.386 . S
C941 C945 1.393 . S
C942 H934 0.950 . S
C942 C940 1.391 . S
C942 C943 1.400 . S
C943 C942 1.400 . S
C943 C944 1.398 . S
C943 C949 1.491 . S
C944 H935 0.950 . S
C944 C943 1.398 . S
C944 C945 1.391 . S
C945 H933 0.950 . S
C945 C941 1.393 . S
C945 C944 1.391 . S
C946 H936 0.950 . S
C946 C947 1.386 . S
C946 C948 1.391 . S
C947 C946 1.386 . S
C947 C951 1.393 . S
C948 H937 0.950 . S
C948 C946 1.391 . S
C948 C949 1.400 . S
C949 C943 1.491 . S
C949 C948 1.400 . S
C949 C950 1.398 . S
C950 H938 0.950 . S
C950 C949 1.398 . S
C950 C951 1.391 . S
C951 H939 0.950 . S
C951 C947 1.393 . S
C951 C950 1.391 . S
H952 C960 0.950 . S
H953 C965 0.950 . S
H954 C962 0.950 . S
H955 C964 0.950 . S
H956 C966 0.950 . S
H957 C968 0.950 . S
H958 C970 0.950 . S
H959 C971 0.950 . S
C960 H952 0.950 . S
C960 C961 1.386 . S
C960 C962 1.391 . S
C961 C960 1.386 . S
C961 C965 1.393 . S
C962 H954 0.950 . S
C962 C960 1.391 . S
C962 C963 1.400 . S
C963 C962 1.400 . S
C963 C964 1.398 . S
C963 C969 1.491 . S
C964 H955 0.950 . S
C964 C963 1.398 . S
C964 C965 1.391 . S
C965 H953 0.950 . S
C965 C961 1.393 . S
C965 C964 1.391 . S
C966 H956 0.950 . S
C966 C967 1.386 . S
C966 C968 1.391 . S
C967 C966 1.386 . S
C967 C971 1.393 . S
C968 H957 0.950 . S
C968 C966 1.391 . S
C968 C969 1.400 . S
C969 C963 1.491 . S
C969 C968 1.400 . S
C969 C970 1.398 . S
C970 H958 0.950 . S
C970 C969 1.398 . S
C970 C971 1.391 . S
C971 H959 0.950 . S
C971 C967 1.393 . S
C971 C970 1.391 . S
H972 C980 0.950 . S
H973 C985 0.950 . S
H974 C982 0.950 . S
H975 C984 0.950 . S
H976 C986 0.950 . S
H977 C988 0.950 . S
H978 C990 0.950 . S
H979 C991 0.950 . S
C980 H972 0.950 . S
C980 C981 1.386 . S
C980 C982 1.391 . S
C981 C980 1.386 . S
C981 C985 1.393 . S
C982 H974 0.950 . S
C982 C980 1.391 . S
C982 C983 1.400 . S
C983 C982 1.400 . S
C983 C984 1.398 . S
C983 C989 1.491 . S
C984 H975 0.950 . S
C984 C983 1.398 . S
C984 C985 1.391 . S
C985 H973 0.950 . S
C985 C981 1.393 . S
C985 C984 1.391 . S
C986 H976 0.950 . S
C986 C987 1.386 . S
C986 C988 1.391 . S
C987 C986 1.386 . S
C987 C991 1.393 . S
C988 H977 0.950 . S
C988 C986 1.391 . S
C988 C989 1.400 . S
C989 C983 1.491 . S
C989 C988 1.400 . S
C989 C990 1.398 . S
C990 H978 0.950 . S
C990 C989 1.398 . S
C990 C991 1.391 . S
C991 H979 0.950 . S
C991 C987 1.393 . S
C991 C990 1.391 . S
H992 C1000 0.950 . S
H993 C1005 0.950 . S
H994 C1002 0.950 . S
H995 C1004 0.950 . S
H996 C1006 0.950 . S
H997 C1008 0.950 . S
H998 C1010 0.950 . S
H999 C1011 0.950 . S
C1000 H992 0.950 . S
C1000 C1001 1.386 . S
C1000 C1002 1.391 . S
C1001 C1000 1.386 . S
C1001 C1005 1.393 . S
C1002 H994 0.950 . S
C1002 C1000 1.391 . S
C1002 C1003 1.400 . S
C1003 C1002 1.400 . S
C1003 C1004 1.398 . S
C1003 C1009 1.491 . S
C1004 H995 0.950 . S
C1004 C1003 1.398 . S
C1004 C1005 1.391 . S
C1005 H993 0.950 . S
C1005 C1001 1.393 . S
C1005 C1004 1.391 . S
C1006 H996 0.950 . S
C1006 C1007 1.386 . S
C1006 C1008 1.391 . S
C1007 C1006 1.386 . S
C1007 C1011 1.393 . S
C1008 H997 0.950 . S
C1008 C1006 1.391 . S
C1008 C1009 1.400 . S
C1009 C1003 1.491 . S
C1009 C1008 1.400 . S
C1009 C1010 1.398 . S
C1010 H998 0.950 . S
C1010 C1009 1.398 . S
C1010 C1011 1.391 . S
C1011 H999 0.950 . S
C1011 C1007 1.393 . S
C1011 C1010 1.391 . S
H1012 C1020 0.950 . S
H1013 C1025 0.950 . S
H1014 C1022 0.950 . S
H1015 C1024 0.950 . S
H1016 C1026 0.950 . S
H1017 C1028 0.950 . S
H1018 C1030 0.950 . S
H1019 C1031 0.950 . S
C1020 H1012 0.950 . S
C1020 C1021 1.386 . S
C1020 C1022 1.391 . S
C1021 C1020 1.386 . S
C1021 C1025 1.393 . S
C1022 H1014 0.950 . S
C1022 C1020 1.391 . S
C1022 C1023 1.400 . S
C1023 C1022 1.400 . S
C1023 C1024 1.398 . S
C1023 C1029 1.491 . S
C1024 H1015 0.950 . S
C1024 C1023 1.398 . S
C1024 C1025 1.391 . S
C1025 H1013 0.950 . S
C1025 C1021 1.393 . S
C1025 C1024 1.391 . S
C1026 H1016 0.950 . S
C1026 C1027 1.386 . S
C1026 C1028 1.391 . S
C1027 C1026 1.386 . S
C1027 C1031 1.393 . S
C1028 H1017 0.950 . S
C1028 C1026 1.391 . S
C1028 C1029 1.400 . S
C1029 C1023 1.491 . S
C1029 C1028 1.400 . S
C1029 C1030 1.398 . S
C1030 H1018 0.950 . S
C1030 C1029 1.398 . S
C1030 C1031 1.391 . S
C1031 H1019 0.950 . S
C1031 C1027 1.393 . S
C1031 C1030 1.391 . S
H1032 C1040 0.950 . S
H1033 C1045 0.950 . S
H1034 C1042 0.950 1_545 S
H1035 C1044 0.950 . S
H1036 C1046 0.950 . S
H1037 C1048 0.950 . S
H1038 C1050 0.950 . S
H1039 C1051 0.950 . S
C1040 H1032 0.950 . S
C1040 C1041 1.386 . S
C1040 C1042 1.391 . S
C1041 C1040 1.386 . S
C1041 C1045 1.393 . S
C1042 H1034 0.950 1_565 S
C1042 C1040 1.391 . S
C1042 C1043 1.400 1_565 S
C1043 C1042 1.400 1_545 S
C1043 C1044 1.398 1_545 S
C1043 C1049 1.491 . S
C1044 H1035 0.950 . S
C1044 C1043 1.398 1_565 S
C1044 C1045 1.391 . S
C1045 H1033 0.950 . S
C1045 C1041 1.393 . S
C1045 C1044 1.391 . S
C1046 H1036 0.950 . S
C1046 C1047 1.386 . S
C1046 C1048 1.391 . S
C1047 C1046 1.386 . S
C1047 C1051 1.393 . S
C1048 H1037 0.950 . S
C1048 C1046 1.391 . S
C1048 C1049 1.400 . S
C1049 C1043 1.491 . S
C1049 C1048 1.400 . S
C1049 C1050 1.398 . S
C1050 H1038 0.950 . S
C1050 C1049 1.398 . S
C1050 C1051 1.391 . S
C1051 H1039 0.950 . S
C1051 C1047 1.393 . S
C1051 C1050 1.391 . S
H1052 C1060 0.950 . S
H1053 C1065 0.950 . S
H1054 C1062 0.950 . S
H1055 C1064 0.950 . S
H1056 C1066 0.950 . S
H1057 C1068 0.950 . S
H1058 C1070 0.950 1_655 S
H1059 C1071 0.950 . S
C1060 H1052 0.950 . S
C1060 C1061 1.386 . S
C1060 C1062 1.391 . S
C1061 C1060 1.386 . S
C1061 C1065 1.393 . S
C1062 H1054 0.950 . S
C1062 C1060 1.391 . S
C1062 C1063 1.400 . S
C1063 C1062 1.400 . S
C1063 C1064 1.398 . S
C1063 C1069 1.491 . S
C1064 H1055 0.950 . S
C1064 C1063 1.398 . S
C1064 C1065 1.391 . S
C1065 H1053 0.950 . S
C1065 C1061 1.393 . S
C1065 C1064 1.391 . S
C1066 H1056 0.950 . S
C1066 C1067 1.386 . S
C1066 C1068 1.391 . S
C1067 C1066 1.386 . S
C1067 C1071 1.393 . S
C1068 H1057 0.950 . S
C1068 C1066 1.391 . S
C1068 C1069 1.400 1_455 S
C1069 C1063 1.491 . S
C1069 C1068 1.400 1_655 S
C1069 C1070 1.398 1_655 S
C1070 H1058 0.950 1_455 S
C1070 C1069 1.398 1_455 S
C1070 C1071 1.391 . S
C1071 H1059 0.950 . S
C1071 C1067 1.393 . S
C1071 C1070 1.391 . S
H1072 C1080 0.950 . S
H1073 C1085 0.950 . S
H1074 C1082 0.950 . S
H1075 C1084 0.950 . S
H1076 C1086 0.950 . S
H1077 C1088 0.950 . S
H1078 C1090 0.950 1_565 S
H1079 C1091 0.950 . S
C1080 H1072 0.950 . S
C1080 C1081 1.386 . S
C1080 C1082 1.391 . S
C1081 C1080 1.386 . S
C1081 C1085 1.393 . S
C1082 H1074 0.950 . S
C1082 C1080 1.391 . S
C1082 C1083 1.400 . S
C1083 C1082 1.400 . S
C1083 C1084 1.398 . S
C1083 C1089 1.491 . S
C1084 H1075 0.950 . S
C1084 C1083 1.398 . S
C1084 C1085 1.391 . S
C1085 H1073 0.950 . S
C1085 C1081 1.393 . S
C1085 C1084 1.391 . S
C1086 H1076 0.950 . S
C1086 C1087 1.386 . S
C1086 C1088 1.391 . S
C1087 C1086 1.386 . S
C1087 C1091 1.393 . S
C1088 H1077 0.950 . S
C1088 C1086 1.391 . S
C1088 C1089 1.400 1_545 S
C1089 C1083 1.491 . S
C1089 C1088 1.400 1_565 S
C1089 C1090 1.398 1_565 S
C1090 H1078 0.950 1_545 S
C1090 C1089 1.398 1_545 S
C1090 C1091 1.391 . S
C1091 H1079 0.950 . S
C1091 C1087 1.393 . S
C1091 C1090 1.391 . S
H1092 C1100 0.950 . S
H1093 C1105 0.950 . S
H1094 C1102 0.950 1_455 S
H1095 C1104 0.950 . S
H1096 C1106 0.950 . S
H1097 C1108 0.950 . S
H1098 C1110 0.950 . S
H1099 C1111 0.950 . S
C1100 H1092 0.950 . S
C1100 C1101 1.386 . S
C1100 C1102 1.391 . S
C1101 C1100 1.386 . S
C1101 C1105 1.393 . S
C1102 H1094 0.950 1_655 S
C1102 C1100 1.391 . S
C1102 C1103 1.400 1_655 S
C1103 C1102 1.400 1_455 S
C1103 C1104 1.398 1_455 S
C1103 C1109 1.491 . S
C1104 H1095 0.950 . S
C1104 C1103 1.398 1_655 S
C1104 C1105 1.391 . S
C1105 H1093 0.950 . S
C1105 C1101 1.393 . S
C1105 C1104 1.391 . S
C1106 H1096 0.950 . S
C1106 C1107 1.386 . S
C1106 C1108 1.391 . S
C1107 C1106 1.386 . S
C1107 C1111 1.393 . S
C1108 H1097 0.950 . S
C1108 C1106 1.391 . S
C1108 C1109 1.400 . S
C1109 C1103 1.491 . S
C1109 C1108 1.400 . S
C1109 C1110 1.398 . S
C1110 H1098 0.950 . S
C1110 C1109 1.398 . S
C1110 C1111 1.391 . S
C1111 H1099 0.950 . S
C1111 C1107 1.393 . S
C1111 C1110 1.391 . S
H1112 C1120 0.950 . S
H1113 C1125 0.950 . S
H1114 C1122 0.950 . S
H1115 C1124 0.946 1_565 S
H1116 C1126 0.950 . S
H1117 C1128 0.950 . S
H1118 C1130 0.950 . S
H1119 C1131 0.950 . S
C1120 H1112 0.950 . S
C1120 C1121 1.386 . S
C1120 C1122 1.391 . S
C1121 C1120 1.386 . S
C1121 C1125 1.393 . S
C1122 H1114 0.950 . S
C1122 C1120 1.391 . S
C1122 C1123 1.400 1_545 S
C1123 C1122 1.400 1_565 S
C1123 C1124 1.398 1_565 S
C1123 C1129 1.491 . S
C1124 H1115 0.946 1_545 S
C1124 C1123 1.398 1_545 S
C1124 C1125 1.391 . S
C1125 H1113 0.950 . S
C1125 C1121 1.393 . S
C1125 C1124 1.391 . S
C1126 H1116 0.950 . S
C1126 C1127 1.386 . S
C1126 C1128 1.391 . S
C1127 C1126 1.386 . S
C1127 C1131 1.393 . S
C1128 H1117 0.950 . S
C1128 C1126 1.391 . S
C1128 C1129 1.400 . S
C1129 C1123 1.491 . S
C1129 C1128 1.400 . S
C1129 C1130 1.398 . S
C1130 H1118 0.950 . S
C1130 C1129 1.398 . S
C1130 C1131 1.391 . S
C1131 H1119 0.950 . S
C1131 C1127 1.393 . S
C1131 C1130 1.391 . S
H1132 C1140 0.950 . S
H1133 C1145 0.950 . S
H1134 C1142 0.950 . S
H1135 C1144 0.950 . S
H1136 C1146 0.950 . S
H1137 C1148 0.950 . S
H1138 C1150 0.950 1_455 S
H1139 C1151 0.950 . S
C1140 H1132 0.950 . S
C1140 C1141 1.386 . S
C1140 C1142 1.391 . S
C1141 C1140 1.386 . S
C1141 C1145 1.393 . S
C1142 H1134 0.950 . S
C1142 C1140 1.391 . S
C1142 C1143 1.400 . S
C1143 C1142 1.400 . S
C1143 C1144 1.398 . S
C1143 C1149 1.491 . S
C1144 H1135 0.950 . S
C1144 C1143 1.398 . S
C1144 C1145 1.391 . S
C1145 H1133 0.950 . S
C1145 C1141 1.393 . S
C1145 C1144 1.391 . S
C1146 H1136 0.950 . S
C1146 C1147 1.386 . S
C1146 C1148 1.391 . S
C1147 C1146 1.386 . S
C1147 C1151 1.393 . S
C1148 H1137 0.950 . S
C1148 C1146 1.391 . S
C1148 C1149 1.400 1_655 S
C1149 C1143 1.491 . S
C1149 C1148 1.400 1_455 S
C1149 C1150 1.398 1_455 S
C1150 H1138 0.950 1_655 S
C1150 C1149 1.398 1_655 S
C1150 C1151 1.391 . S
C1151 H1139 0.950 . S
C1151 C1147 1.393 . S
C1151 C1150 1.391 . S
H1152 C1160 0.950 . S
H1153 C1165 0.950 . S
H1154 C1162 0.950 . S
H1155 C1164 0.950 1_545 S
H1156 C1166 0.950 . S
H1157 C1168 0.950 . S
H1158 C1170 0.950 . S
H1159 C1171 0.950 . S
C1160 H1152 0.950 . S
C1160 C1161 1.386 . S
C1160 C1162 1.391 . S
C1161 C1160 1.386 . S
C1161 C1165 1.393 . S
C1162 H1154 0.950 . S
C1162 C1160 1.391 . S
C1162 C1163 1.400 1_565 S
C1163 C1162 1.400 1_545 S
C1163 C1164 1.398 1_545 S
C1163 C1169 1.491 . S
C1164 H1155 0.950 1_565 S
C1164 C1163 1.398 1_565 S
C1164 C1165 1.391 . S
C1165 H1153 0.950 . S
C1165 C1161 1.393 . S
C1165 C1164 1.391 . S
C1166 H1156 0.950 . S
C1166 C1167 1.386 . S
C1166 C1168 1.391 . S
C1167 C1166 1.386 . S
C1167 C1171 1.393 . S
C1168 H1157 0.950 . S
C1168 C1166 1.391 . S
C1168 C1169 1.400 . S
C1169 C1163 1.491 . S
C1169 C1168 1.400 . S
C1169 C1170 1.398 . S
C1170 H1158 0.950 . S
C1170 C1169 1.398 . S
C1170 C1171 1.391 . S
C1171 H1159 0.950 . S
C1171 C1167 1.393 . S
C1171 C1170 1.391 . S
H1172 C1180 0.950 . S
H1173 C1185 0.950 . S
H1174 C1182 0.950 1_655 S
H1175 C1184 0.950 . S
H1176 C1186 0.950 . S
H1177 C1188 0.950 . S
H1178 C1190 0.950 . S
H1179 C1191 0.950 . S
C1180 H1172 0.950 . S
C1180 C1181 1.386 . S
C1180 C1182 1.391 . S
C1181 C1180 1.386 . S
C1181 C1185 1.393 . S
C1182 H1174 0.950 1_455 S
C1182 C1180 1.391 . S
C1182 C1183 1.400 1_455 S
C1183 C1182 1.400 1_655 S
C1183 C1184 1.398 1_655 S
C1183 C1189 1.491 . S
C1184 H1175 0.950 . S
C1184 C1183 1.398 1_455 S
C1184 C1185 1.391 . S
C1185 H1173 0.950 . S
C1185 C1181 1.393 . S
C1185 C1184 1.391 . S
C1186 H1176 0.950 . S
C1186 C1187 1.386 . S
C1186 C1188 1.391 . S
C1187 C1186 1.386 . S
C1187 C1191 1.393 . S
C1188 H1177 0.950 . S
C1188 C1186 1.391 . S
C1188 C1189 1.400 . S
C1189 C1183 1.491 . S
C1189 C1188 1.400 . S
C1189 C1190 1.398 . S
C1190 H1178 0.950 . S
C1190 C1189 1.398 . S
C1190 C1191 1.391 . S
C1191 H1179 0.950 . S
C1191 C1187 1.393 . S
C1191 C1190 1.391 . S
H1192 C1200 0.950 . S
H1193 C1205 0.950 . S
H1194 C1202 0.950 1_554 S
H1195 C1204 0.950 . S
H1196 C1206 0.950 . S
H1197 C1208 0.950 . S
H1198 C1210 0.950 . S
H1199 C1211 0.950 . S
C1200 H1192 0.950 . S
C1200 C1201 1.386 . S
C1200 C1202 1.391 . S
C1201 C1200 1.386 . S
C1201 C1205 1.393 . S
C1202 H1194 0.950 1_556 S
C1202 C1200 1.391 . S
C1202 C1203 1.400 1_556 S
C1203 C1202 1.400 1_554 S
C1203 C1204 1.398 1_554 S
C1203 C1209 1.491 . S
C1204 H1195 0.950 . S
C1204 C1203 1.398 1_556 S
C1204 C1205 1.391 . S
C1205 H1193 0.950 . S
C1205 C1201 1.393 . S
C1205 C1204 1.391 . S
C1206 H1196 0.950 . S
C1206 C1207 1.386 . S
C1206 C1208 1.391 . S
C1207 C1206 1.386 . S
C1207 C1211 1.393 . S
C1208 H1197 0.950 . S
C1208 C1206 1.391 . S
C1208 C1209 1.400 . S
C1209 C1203 1.491 . S
C1209 C1208 1.400 . S
C1209 C1210 1.398 . S
C1210 H1198 0.950 . S
C1210 C1209 1.398 . S
C1210 C1211 1.391 . S
C1211 H1199 0.950 . S
C1211 C1207 1.393 . S
C1211 C1210 1.391 . S
H1212 C1220 0.950 . S
H1213 C1225 0.950 . S
H1214 C1222 0.950 . S
H1215 C1224 0.950 . S
H1216 C1226 0.950 . S
H1217 C1228 0.950 1_554 S
H1218 C1230 0.950 . S
H1219 C1231 0.950 . S
C1220 H1212 0.950 . S
C1220 C1221 1.386 . S
C1220 C1222 1.391 . S
C1221 C1220 1.386 . S
C1221 C1225 1.393 . S
C1222 H1214 0.950 . S
C1222 C1220 1.391 . S
C1222 C1223 1.400 . S
C1223 C1222 1.400 . S
C1223 C1224 1.398 . S
C1223 C1229 1.491 . S
C1224 H1215 0.950 . S
C1224 C1223 1.398 . S
C1224 C1225 1.391 . S
C1225 H1213 0.950 . S
C1225 C1221 1.393 . S
C1225 C1224 1.391 . S
C1226 H1216 0.950 . S
C1226 C1227 1.386 . S
C1226 C1228 1.391 . S
C1227 C1226 1.386 . S
C1227 C1231 1.393 . S
C1228 H1217 0.950 1_556 S
C1228 C1226 1.391 . S
C1228 C1229 1.400 1_556 S
C1229 C1223 1.491 . S
C1229 C1228 1.400 1_554 S
C1229 C1230 1.398 1_554 S
C1230 H1218 0.950 . S
C1230 C1229 1.398 1_556 S
C1230 C1231 1.391 . S
C1231 H1219 0.950 . S
C1231 C1227 1.393 . S
C1231 C1230 1.391 . S
H1232 C1240 0.950 . S
H1233 C1245 0.950 . S
H1234 C1242 0.950 . S
H1235 C1244 0.957 . S
H1236 C1246 0.950 . S
H1237 C1248 0.950 . S
H1238 C1250 0.950 . S
H1239 C1251 0.950 . S
C1240 H1232 0.950 . S
C1240 C1241 1.386 . S
C1240 C1242 1.391 . S
C1241 C1240 1.386 . S
C1241 C1245 1.393 . S
C1242 H1234 0.950 . S
C1242 C1240 1.391 . S
C1242 C1243 1.400 1_556 S
C1243 C1242 1.400 1_554 S
C1243 C1244 1.398 1_554 S
C1243 C1249 1.491 . S
C1244 H1235 0.957 . S
C1244 C1243 1.398 1_556 S
C1244 C1245 1.391 . S
C1245 H1233 0.950 . S
C1245 C1241 1.393 . S
C1245 C1244 1.391 . S
C1246 H1236 0.950 . S
C1246 C1247 1.386 . S
C1246 C1248 1.391 . S
C1247 C1246 1.386 . S
C1247 C1251 1.393 . S
C1248 H1237 0.950 . S
C1248 C1246 1.391 . S
C1248 C1249 1.400 . S
C1249 C1243 1.491 . S
C1249 C1248 1.400 . S
C1249 C1250 1.398 . S
C1250 H1238 0.950 . S
C1250 C1249 1.398 . S
C1250 C1251 1.391 . S
C1251 H1239 0.950 . S
C1251 C1247 1.393 . S
C1251 C1250 1.391 . S
H1252 C1260 0.950 . S
H1253 C1265 0.950 . S
H1254 C1262 0.950 . S
H1255 C1264 0.950 . S
H1256 C1266 0.950 . S
H1257 C1268 0.928 1_554 S
H1258 C1270 0.950 . S
H1259 C1271 0.950 . S
C1260 H1252 0.950 . S
C1260 C1261 1.386 . S
C1260 C1262 1.391 . S
C1261 C1260 1.386 . S
C1261 C1265 1.393 . S
C1262 H1254 0.950 . S
C1262 C1260 1.391 . S
C1262 C1263 1.400 . S
C1263 C1262 1.400 . S
C1263 C1264 1.398 . S
C1263 C1269 1.491 . S
C1264 H1255 0.950 . S
C1264 C1263 1.398 . S
C1264 C1265 1.391 . S
C1265 H1253 0.950 . S
C1265 C1261 1.393 . S
C1265 C1264 1.391 . S
C1266 H1256 0.950 . S
C1266 C1267 1.386 . S
C1266 C1268 1.391 . S
C1267 C1266 1.386 . S
C1267 C1271 1.393 . S
C1268 H1257 0.928 1_556 S
C1268 C1266 1.391 . S
C1268 C1269 1.400 1_556 S
C1269 C1263 1.491 . S
C1269 C1268 1.400 1_554 S
C1269 C1270 1.398 1_554 S
C1270 H1258 0.950 . S
C1270 C1269 1.398 1_556 S
C1270 C1271 1.391 . S
C1271 H1259 0.950 . S
C1271 C1267 1.393 . S
C1271 C1270 1.391 . S
H1272 C1280 0.950 . S
H1273 C1285 0.950 . S
H1274 C1282 0.950 . S
H1275 C1284 0.950 1_556 S
H1276 C1286 0.950 . S
H1277 C1288 0.950 . S
H1278 C1290 0.950 . S
H1279 C1291 0.950 . S
C1280 H1272 0.950 . S
C1280 C1281 1.386 . S
C1280 C1282 1.391 . S
C1281 C1280 1.386 . S
C1281 C1285 1.393 . S
C1282 H1274 0.950 . S
C1282 C1280 1.391 . S
C1282 C1283 1.400 1_554 S
C1283 C1282 1.400 1_556 S
C1283 C1284 1.398 1_556 S
C1283 C1289 1.491 . S
C1284 H1275 0.950 1_554 S
C1284 C1283 1.398 1_554 S
C1284 C1285 1.391 . S
C1285 H1273 0.950 . S
C1285 C1281 1.393 . S
C1285 C1284 1.391 . S
C1286 H1276 0.950 . S
C1286 C1287 1.386 . S
C1286 C1288 1.391 . S
C1287 C1286 1.386 . S
C1287 C1291 1.393 . S
C1288 H1277 0.950 . S
C1288 C1286 1.391 . S
C1288 C1289 1.400 . S
C1289 C1283 1.491 . S
C1289 C1288 1.400 . S
C1289 C1290 1.398 . S
C1290 H1278 0.950 . S
C1290 C1289 1.398 . S
C1290 C1291 1.391 . S
C1291 H1279 0.950 . S
C1291 C1287 1.393 . S
C1291 C1290 1.391 . S
H1292 C1300 0.950 . S
H1293 C1305 0.950 . S
H1294 C1302 0.950 . S
H1295 C1304 0.950 . S
H1296 C1306 0.950 . S
H1297 C1308 0.950 1_556 S
H1298 C1310 0.950 . S
H1299 C1311 0.950 . S
C1300 H1292 0.950 . S
C1300 C1301 1.386 . S
C1300 C1302 1.391 . S
C1301 C1300 1.386 . S
C1301 C1305 1.393 . S
C1302 H1294 0.950 . S
C1302 C1300 1.391 . S
C1302 C1303 1.400 . S
C1303 C1302 1.400 . S
C1303 C1304 1.398 . S
C1303 C1309 1.491 . S
C1304 H1295 0.950 . S
C1304 C1303 1.398 . S
C1304 C1305 1.391 . S
C1305 H1293 0.950 . S
C1305 C1301 1.393 . S
C1305 C1304 1.391 . S
C1306 H1296 0.950 . S
C1306 C1307 1.386 . S
C1306 C1308 1.391 . S
C1307 C1306 1.386 . S
C1307 C1311 1.393 . S
C1308 H1297 0.950 1_554 S
C1308 C1306 1.391 . S
C1308 C1309 1.400 1_554 S
C1309 C1303 1.491 . S
C1309 C1308 1.400 1_556 S
C1309 C1310 1.398 1_556 S
C1310 H1298 0.950 . S
C1310 C1309 1.398 1_554 S
C1310 C1311 1.391 . S
C1311 H1299 0.950 . S
C1311 C1307 1.393 . S
C1311 C1310 1.391 . S
H1312 C1320 0.950 . S
H1313 C1325 0.950 . S
H1314 C1322 0.950 . S
H1315 C1324 0.950 1_556 S
H1316 C1326 0.950 . S
H1317 C1328 0.950 . S
H1318 C1330 0.950 . S
H1319 C1331 0.950 . S
C1320 H1312 0.950 . S
C1320 C1321 1.386 . S
C1320 C1322 1.391 . S
C1321 C1320 1.386 . S
C1321 C1325 1.393 . S
C1322 H1314 0.950 . S
C1322 C1320 1.391 . S
C1322 C1323 1.400 1_554 S
C1323 C1322 1.400 1_556 S
C1323 C1324 1.398 1_556 S
C1323 C1329 1.491 . S
C1324 H1315 0.950 1_554 S
C1324 C1323 1.398 1_554 S
C1324 C1325 1.391 . S
C1325 H1313 0.950 . S
C1325 C1321 1.393 . S
C1325 C1324 1.391 . S
C1326 H1316 0.950 . S
C1326 C1327 1.386 . S
C1326 C1328 1.391 . S
C1327 C1326 1.386 . S
C1327 C1331 1.393 . S
C1328 H1317 0.950 . S
C1328 C1326 1.391 . S
C1328 C1329 1.400 . S
C1329 C1323 1.491 . S
C1329 C1328 1.400 . S
C1329 C1330 1.398 . S
C1330 H1318 0.950 . S
C1330 C1329 1.398 . S
C1330 C1331 1.391 . S
C1331 H1319 0.950 . S
C1331 C1327 1.393 . S
C1331 C1330 1.391 . S
H1332 C1340 0.950 . S
H1333 C1345 0.950 . S
H1334 C1342 0.950 . S
H1335 C1344 0.950 . S
H1336 C1346 0.950 . S
H1337 C1348 0.950 . S
H1338 C1350 0.950 . S
H1339 C1351 0.950 . S
C1340 H1332 0.950 . S
C1340 C1341 1.386 . S
C1340 C1342 1.391 . S
C1341 C1340 1.386 . S
C1341 C1345 1.393 . S
C1342 H1334 0.950 . S
C1342 C1340 1.391 . S
C1342 C1343 1.400 . S
C1343 C1342 1.400 . S
C1343 C1344 1.398 . S
C1343 C1349 1.491 . S
C1344 H1335 0.950 . S
C1344 C1343 1.398 . S
C1344 C1345 1.391 . S
C1345 H1333 0.950 . S
C1345 C1341 1.393 . S
C1345 C1344 1.391 . S
C1346 H1336 0.950 . S
C1346 C1347 1.386 . S
C1346 C1348 1.391 . S
C1347 C1346 1.386 . S
C1347 C1351 1.393 . S
C1348 H1337 0.950 . S
C1348 C1346 1.391 . S
C1348 C1349 1.400 1_554 S
C1349 C1343 1.491 . S
C1349 C1348 1.400 1_556 S
C1349 C1350 1.398 1_556 S
C1350 H1338 0.950 . S
C1350 C1349 1.398 1_554 S
C1350 C1351 1.391 . S
C1351 H1339 0.950 . S
C1351 C1347 1.393 . S
C1351 C1350 1.391 . S
H1352 C1360 0.950 . S
H1353 C1365 0.950 . S
H1354 C1362 0.970 . S
H1355 C1364 0.950 . S
H1356 C1366 0.950 . S
H1357 C1368 0.950 . S
H1358 C1370 0.950 . S
H1359 C1371 0.950 . S
C1360 H1352 0.950 . S
C1360 C1361 1.386 . S
C1360 C1362 1.391 . S
C1361 C1360 1.386 . S
C1361 C1365 1.393 . S
C1362 H1354 0.970 . S
C1362 C1360 1.391 . S
C1362 C1363 1.400 1_655 S
C1363 C1362 1.400 1_455 S
C1363 C1364 1.398 1_455 S
C1363 C1369 1.491 . S
C1364 H1355 0.950 . S
C1364 C1363 1.398 1_655 S
C1364 C1365 1.391 . S
C1365 H1353 0.950 . S
C1365 C1361 1.393 . S
C1365 C1364 1.391 . S
C1366 H1356 0.950 . S
C1366 C1367 1.386 . S
C1366 C1368 1.391 . S
C1367 C1366 1.386 . S
C1367 C1371 1.393 . S
C1368 H1357 0.950 . S
C1368 C1366 1.391 . S
C1368 C1369 1.400 . S
C1369 C1363 1.491 . S
C1369 C1368 1.400 . S
C1369 C1370 1.398 . S
C1370 H1358 0.950 . S
C1370 C1369 1.398 . S
C1370 C1371 1.391 . S
C1371 H1359 0.950 . S
C1371 C1367 1.393 . S
C1371 C1370 1.391 . S
H1372 C1380 0.950 . S
H1373 C1385 0.950 . S
H1374 C1382 0.950 1_455 S
H1375 C1384 0.950 . S
H1376 C1386 0.950 . S
H1377 C1388 0.950 . S
H1378 C1390 0.950 . S
H1379 C1391 0.950 . S
C1380 H1372 0.950 . S
C1380 C1381 1.386 . S
C1380 C1382 1.391 . S
C1381 C1380 1.386 . S
C1381 C1385 1.393 . S
C1382 H1374 0.950 1_655 S
C1382 C1380 1.391 . S
C1382 C1383 1.400 1_655 S
C1383 C1382 1.400 1_455 S
C1383 C1384 1.398 1_455 S
C1383 C1389 1.491 . S
C1384 H1375 0.950 . S
C1384 C1383 1.398 1_655 S
C1384 C1385 1.391 . S
C1385 H1373 0.950 . S
C1385 C1381 1.393 . S
C1385 C1384 1.391 . S
C1386 H1376 0.950 . S
C1386 C1387 1.386 . S
C1386 C1388 1.391 . S
C1387 C1386 1.386 . S
C1387 C1391 1.393 . S
C1388 H1377 0.950 . S
C1388 C1386 1.391 . S
C1388 C1389 1.400 . S
C1389 C1383 1.491 . S
C1389 C1388 1.400 . S
C1389 C1390 1.398 . S
C1390 H1378 0.950 . S
C1390 C1389 1.398 . S
C1390 C1391 1.391 . S
C1391 H1379 0.950 . S
C1391 C1387 1.393 . S
C1391 C1390 1.391 . S
H1392 C1400 0.950 . S
H1393 C1405 0.950 . S
H1394 C1402 0.950 . S
H1395 C1404 0.950 . S
H1396 C1406 0.950 . S
H1397 C1408 0.950 1_545 S
H1398 C1410 0.950 . S
H1399 C1411 0.950 . S
C1400 H1392 0.950 . S
C1400 C1401 1.386 . S
C1400 C1402 1.391 . S
C1401 C1400 1.386 . S
C1401 C1405 1.393 . S
C1402 H1394 0.950 . S
C1402 C1400 1.391 . S
C1402 C1403 1.400 . S
C1403 C1402 1.400 . S
C1403 C1404 1.398 . S
C1403 C1409 1.491 . S
C1404 H1395 0.950 . S
C1404 C1403 1.398 . S
C1404 C1405 1.391 . S
C1405 H1393 0.950 . S
C1405 C1401 1.393 . S
C1405 C1404 1.391 . S
C1406 H1396 0.950 . S
C1406 C1407 1.386 . S
C1406 C1408 1.391 . S
C1407 C1406 1.386 . S
C1407 C1411 1.393 . S
C1408 H1397 0.950 1_565 S
C1408 C1406 1.391 . S
C1408 C1409 1.400 1_565 S
C1409 C1403 1.491 . S
C1409 C1408 1.400 1_545 S
C1409 C1410 1.398 1_545 S
C1410 H1398 0.950 . S
C1410 C1409 1.398 1_565 S
C1410 C1411 1.391 . S
C1411 H1399 0.950 . S
C1411 C1407 1.393 . S
C1411 C1410 1.391 . S
H1412 C1420 0.950 . S
H1413 C1425 0.950 . S
H1414 C1422 0.950 . S
H1415 C1424 0.950 . S
H1416 C1426 0.950 . S
H1417 C1428 0.950 . S
H1418 C1430 0.928 1_655 S
H1419 C1431 0.950 . S
C1420 H1412 0.950 . S
C1420 C1421 1.386 . S
C1420 C1422 1.391 . S
C1421 C1420 1.386 . S
C1421 C1425 1.393 . S
C1422 H1414 0.950 . S
C1422 C1420 1.391 . S
C1422 C1423 1.400 . S
C1423 C1422 1.400 . S
C1423 C1424 1.398 . S
C1423 C1429 1.491 . S
C1424 H1415 0.950 . S
C1424 C1423 1.398 . S
C1424 C1425 1.391 . S
C1425 H1413 0.950 . S
C1425 C1421 1.393 . S
C1425 C1424 1.391 . S
C1426 H1416 0.950 . S
C1426 C1427 1.386 . S
C1426 C1428 1.391 . S
C1427 C1426 1.386 . S
C1427 C1431 1.393 . S
C1428 H1417 0.950 . S
C1428 C1426 1.391 . S
C1428 C1429 1.400 1_455 S
C1429 C1423 1.491 . S
C1429 C1428 1.400 1_655 S
C1429 C1430 1.398 1_655 S
C1430 H1418 0.928 1_455 S
C1430 C1429 1.398 1_455 S
C1430 C1431 1.391 . S
C1431 H1419 0.950 . S
C1431 C1427 1.393 . S
C1431 C1430 1.391 . S
H1432 C1440 0.950 . S
H1433 C1445 0.950 . S
H1434 C1442 0.950 . S
H1435 C1444 0.950 1_565 S
H1436 C1446 0.950 . S
H1437 C1448 0.950 . S
H1438 C1450 0.950 . S
H1439 C1451 0.950 . S
C1440 H1432 0.950 . S
C1440 C1441 1.386 . S
C1440 C1442 1.391 . S
C1441 C1440 1.386 . S
C1441 C1445 1.393 . S
C1442 H1434 0.950 . S
C1442 C1440 1.391 . S
C1442 C1443 1.400 1_545 S
C1443 C1442 1.400 1_565 S
C1443 C1444 1.398 1_565 S
C1443 C1449 1.491 . S
C1444 H1435 0.950 1_545 S
C1444 C1443 1.398 1_545 S
C1444 C1445 1.391 . S
C1445 H1433 0.950 . S
C1445 C1441 1.393 . S
C1445 C1444 1.391 . S
C1446 H1436 0.950 . S
C1446 C1447 1.386 . S
C1446 C1448 1.391 . S
C1447 C1446 1.386 . S
C1447 C1451 1.393 . S
C1448 H1437 0.950 . S
C1448 C1446 1.391 . S
C1448 C1449 1.400 . S
C1449 C1443 1.491 . S
C1449 C1448 1.400 . S
C1449 C1450 1.398 . S
C1450 H1438 0.950 . S
C1450 C1449 1.398 . S
C1450 C1451 1.391 . S
C1451 H1439 0.950 . S
C1451 C1447 1.393 . S
C1451 C1450 1.391 . S
H1452 C1460 0.950 . S
H1453 C1465 0.950 . S
H1454 C1462 0.950 . S
H1455 C1464 0.950 1_655 S
H1456 C1466 0.950 . S
H1457 C1468 0.950 . S
H1458 C1470 0.950 . S
H1459 C1471 0.950 . S
C1460 H1452 0.950 . S
C1460 C1461 1.386 . S
C1460 C1462 1.391 . S
C1461 C1460 1.386 . S
C1461 C1465 1.393 . S
C1462 H1454 0.950 . S
C1462 C1460 1.391 . S
C1462 C1463 1.400 1_455 S
C1463 C1462 1.400 1_655 S
C1463 C1464 1.398 1_655 S
C1463 C1469 1.491 . S
C1464 H1455 0.950 1_455 S
C1464 C1463 1.398 1_455 S
C1464 C1465 1.391 . S
C1465 H1453 0.950 . S
C1465 C1461 1.393 . S
C1465 C1464 1.391 . S
C1466 H1456 0.950 . S
C1466 C1467 1.386 . S
C1466 C1468 1.391 . S
C1467 C1466 1.386 . S
C1467 C1471 1.393 . S
C1468 H1457 0.950 . S
C1468 C1466 1.391 . S
C1468 C1469 1.400 . S
C1469 C1463 1.491 . S
C1469 C1468 1.400 . S
C1469 C1470 1.398 . S
C1470 H1458 0.950 . S
C1470 C1469 1.398 . S
C1470 C1471 1.391 . S
C1471 H1459 0.950 . S
C1471 C1467 1.393 . S
C1471 C1470 1.391 . S
H1472 C1480 0.950 . S
H1473 C1485 0.950 . S
H1474 C1482 0.950 1_565 S
H1475 C1484 0.950 . S
H1476 C1486 0.950 . S
H1477 C1488 0.950 . S
H1478 C1490 0.950 . S
H1479 C1491 0.950 . S
C1480 H1472 0.950 . S
C1480 C1481 1.386 . S
C1480 C1482 1.391 . S
C1481 C1480 1.386 . S
C1481 C1485 1.393 . S
C1482 H1474 0.950 1_545 S
C1482 C1480 1.391 . S
C1482 C1483 1.400 1_545 S
C1483 C1482 1.400 1_565 S
C1483 C1484 1.398 1_565 S
C1483 C1489 1.491 . S
C1484 H1475 0.950 . S
C1484 C1483 1.398 1_545 S
C1484 C1485 1.391 . S
C1485 H1473 0.950 . S
C1485 C1481 1.393 . S
C1485 C1484 1.391 . S
C1486 H1476 0.950 . S
C1486 C1487 1.386 . S
C1486 C1488 1.391 . S
C1487 C1486 1.386 . S
C1487 C1491 1.393 . S
C1488 H1477 0.950 . S
C1488 C1486 1.391 . S
C1488 C1489 1.400 . S
C1489 C1483 1.491 . S
C1489 C1488 1.400 . S
C1489 C1490 1.398 . S
C1490 H1478 0.950 . S
C1490 C1489 1.398 . S
C1490 C1491 1.391 . S
C1491 H1479 0.950 . S
C1491 C1487 1.393 . S
C1491 C1490 1.391 . S
H1492 C1500 0.950 . S
H1493 C1505 0.950 . S
H1494 C1502 0.950 . S
H1495 C1504 0.950 . S
H1496 C1506 0.950 . S
H1497 C1508 0.950 . S
H1498 C1510 0.950 1_545 S
H1499 C1511 0.950 . S
C1500 H1492 0.950 . S
C1500 C1501 1.386 . S
C1500 C1502 1.391 . S
C1501 C1500 1.386 . S
C1501 C1505 1.393 . S
C1502 H1494 0.950 . S
C1502 C1500 1.391 . S
C1502 C1503 1.400 . S
C1503 C1502 1.400 . S
C1503 C1504 1.398 . S
C1503 C1509 1.491 . S
C1504 H1495 0.950 . S
C1504 C1503 1.398 . S
C1504 C1505 1.391 . S
C1505 H1493 0.950 . S
C1505 C1501 1.393 . S
C1505 C1504 1.391 . S
C1506 H1496 0.950 . S
C1506 C1507 1.386 . S
C1506 C1508 1.391 . S
C1507 C1506 1.386 . S
C1507 C1511 1.393 . S
C1508 H1497 0.950 . S
C1508 C1506 1.391 . S
C1508 C1509 1.400 1_565 S
C1509 C1503 1.491 . S
C1509 C1508 1.400 1_545 S
C1509 C1510 1.398 1_545 S
C1510 H1498 0.950 1_565 S
C1510 C1509 1.398 1_565 S
C1510 C1511 1.391 . S
C1511 H1499 0.950 . S
C1511 C1507 1.393 . S
C1511 C1510 1.391 . S
H1512 C1520 0.950 . S
H1513 C1525 0.950 . S
H1514 C1522 0.950 . S
H1515 C1524 0.950 . S
H1516 C1526 0.950 . S
H1517 C1528 0.950 . S
H1518 C1530 0.950 . S
H1519 C1531 0.950 . S
C1520 H1512 0.950 . S
C1520 C1521 1.386 . S
C1520 C1522 1.391 . S
C1521 C1520 1.386 . S
C1521 C1525 1.393 . S
C1522 H1514 0.950 . S
C1522 C1520 1.391 . S
C1522 C1523 1.400 . S
C1523 C1522 1.400 . S
C1523 C1524 1.398 . S
C1523 C1529 1.491 . S
C1524 H1515 0.950 . S
C1524 C1523 1.398 . S
C1524 C1525 1.391 . S
C1525 H1513 0.950 . S
C1525 C1521 1.393 . S
C1525 C1524 1.391 . S
C1526 H1516 0.950 . S
C1526 C1527 1.386 . S
C1526 C1528 1.391 . S
C1527 C1526 1.386 . S
C1527 C1531 1.393 . S
C1528 H1517 0.950 . S
C1528 C1526 1.391 . S
C1528 C1529 1.400 . S
C1529 C1523 1.491 . S
C1529 C1528 1.400 . S
C1529 C1530 1.398 . S
C1530 H1518 0.950 . S
C1530 C1529 1.398 . S
C1530 C1531 1.391 . S
C1531 H1519 0.950 . S
C1531 C1527 1.393 . S
C1531 C1530 1.391 . S
H1532 C1540 0.950 . S
H1533 C1545 0.950 . S
H1534 C1542 0.950 . S
H1535 C1544 0.950 . S
H1536 C1546 0.950 . S
H1537 C1548 0.950 . S
H1538 C1550 0.950 . S
H1539 C1551 0.950 . S
C1540 H1532 0.950 . S
C1540 C1541 1.386 . S
C1540 C1542 1.391 . S
C1541 C1540 1.386 . S
C1541 C1545 1.393 . S
C1542 H1534 0.950 . S
C1542 C1540 1.391 . S
C1542 C1543 1.400 . S
C1543 C1542 1.400 . S
C1543 C1544 1.398 . S
C1543 C1549 1.491 . S
C1544 H1535 0.950 . S
C1544 C1543 1.398 . S
C1544 C1545 1.391 . S
C1545 H1533 0.950 . S
C1545 C1541 1.393 . S
C1545 C1544 1.391 . S
C1546 H1536 0.950 . S
C1546 C1547 1.386 . S
C1546 C1548 1.391 . S
C1547 C1546 1.386 . S
C1547 C1551 1.393 . S
C1548 H1537 0.950 . S
C1548 C1546 1.391 . S
C1548 C1549 1.400 . S
C1549 C1543 1.491 . S
C1549 C1548 1.400 . S
C1549 C1550 1.398 . S
C1550 H1538 0.950 . S
C1550 C1549 1.398 . S
C1550 C1551 1.391 . S
C1551 H1539 0.950 . S
C1551 C1547 1.393 . S
C1551 C1550 1.391 . S
H1552 C1560 0.950 . S
H1553 C1565 0.950 . S
H1554 C1562 0.950 . S
H1555 C1564 0.950 . S
H1556 C1566 0.950 . S
H1557 C1568 0.950 . S
H1558 C1570 0.950 . S
H1559 C1571 0.950 . S
C1560 H1552 0.950 . S
C1560 C1561 1.386 . S
C1560 C1562 1.391 . S
C1561 C1560 1.386 . S
C1561 C1565 1.393 . S
C1562 H1554 0.950 . S
C1562 C1560 1.391 . S
C1562 C1563 1.400 . S
C1563 C1562 1.400 . S
C1563 C1564 1.398 . S
C1563 C1569 1.491 . S
C1564 H1555 0.950 . S
C1564 C1563 1.398 . S
C1564 C1565 1.391 . S
C1565 H1553 0.950 . S
C1565 C1561 1.393 . S
C1565 C1564 1.391 . S
C1566 H1556 0.950 . S
C1566 C1567 1.386 . S
C1566 C1568 1.391 . S
C1567 C1566 1.386 . S
C1567 C1571 1.393 . S
C1568 H1557 0.950 . S
C1568 C1566 1.391 . S
C1568 C1569 1.400 . S
C1569 C1563 1.491 . S
C1569 C1568 1.400 . S
C1569 C1570 1.398 . S
C1570 H1558 0.950 . S
C1570 C1569 1.398 . S
C1570 C1571 1.391 . S
C1571 H1559 0.950 . S
C1571 C1567 1.393 . S
C1571 C1570 1.391 . S
H1572 C1580 0.950 . S
H1573 C1585 0.950 . S
H1574 C1582 0.950 . S
H1575 C1584 0.950 . S
H1576 C1586 0.950 . S
H1577 C1588 0.950 . S
H1578 C1590 0.950 . S
H1579 C1591 0.950 . S
C1580 H1572 0.950 . S
C1580 C1581 1.386 . S
C1580 C1582 1.391 . S
C1581 C1580 1.386 . S
C1581 C1585 1.393 . S
C1582 H1574 0.950 . S
C1582 C1580 1.391 . S
C1582 C1583 1.400 . S
C1583 C1582 1.400 . S
C1583 C1584 1.398 . S
C1583 C1589 1.491 . S
C1584 H1575 0.950 . S
C1584 C1583 1.398 . S
C1584 C1585 1.391 . S
C1585 H1573 0.950 . S
C1585 C1581 1.393 . S
C1585 C1584 1.391 . S
C1586 H1576 0.950 . S
C1586 C1587 1.386 . S
C1586 C1588 1.391 . S
C1587 C1586 1.386 . S
C1587 C1591 1.393 . S
C1588 H1577 0.950 . S
C1588 C1586 1.391 . S
C1588 C1589 1.400 . S
C1589 C1583 1.491 . S
C1589 C1588 1.400 . S
C1589 C1590 1.398 . S
C1590 H1578 0.950 . S
C1590 C1589 1.398 . S
C1590 C1591 1.391 . S
C1591 H1579 0.950 . S
C1591 C1587 1.393 . S
C1591 C1590 1.391 . S
H1592 C1600 0.950 . S
H1593 C1605 0.950 . S
H1594 C1602 0.950 . S
H1595 C1604 0.950 . S
H1596 C1606 0.950 . S
H1597 C1608 0.950 . S
H1598 C1610 0.950 . S
H1599 C1611 0.950 . S
C1600 H1592 0.950 . S
C1600 C1601 1.386 . S
C1600 C1602 1.391 . S
C1601 C1600 1.386 . S
C1601 C1605 1.393 . S
C1602 H1594 0.950 . S
C1602 C1600 1.391 . S
C1602 C1603 1.400 . S
C1603 C1602 1.400 . S
C1603 C1604 1.398 . S
C1603 C1609 1.491 . S
C1604 H1595 0.950 . S
C1604 C1603 1.398 . S
C1604 C1605 1.391 . S
C1605 H1593 0.950 . S
C1605 C1601 1.393 . S
C1605 C1604 1.391 . S
C1606 H1596 0.950 . S
C1606 C1607 1.386 . S
C1606 C1608 1.391 . S
C1607 C1606 1.386 . S
C1607 C1611 1.393 . S
C1608 H1597 0.950 . S
C1608 C1606 1.391 . S
C1608 C1609 1.400 . S
C1609 C1603 1.491 . S
C1609 C1608 1.400 . S
C1609 C1610 1.398 . S
C1610 H1598 0.950 . S
C1610 C1609 1.398 . S
C1610 C1611 1.391 . S
C1611 H1599 0.950 . S
C1611 C1607 1.393 . S
C1611 C1610 1.391 . S
H1612 C1620 0.950 . S
H1613 C1625 0.950 . S
H1614 C1622 0.950 . S
H1615 C1624 0.950 . S
H1616 C1626 0.950 . S
H1617 C1628 0.950 . S
H1618 C1630 0.950 . S
H1619 C1631 0.950 . S
C1620 H1612 0.950 . S
C1620 C1621 1.386 . S
C1620 C1622 1.391 . S
C1621 C1620 1.386 . S
C1621 C1625 1.393 . S
C1622 H1614 0.950 . S
C1622 C1620 1.391 . S
C1622 C1623 1.400 . S
C1623 C1622 1.400 . S
C1623 C1624 1.398 . S
C1623 C1629 1.491 . S
C1624 H1615 0.950 . S
C1624 C1623 1.398 . S
C1624 C1625 1.391 . S
C1625 H1613 0.950 . S
C1625 C1621 1.393 . S
C1625 C1624 1.391 . S
C1626 H1616 0.950 . S
C1626 C1627 1.386 . S
C1626 C1628 1.391 . S
C1627 C1626 1.386 . S
C1627 C1631 1.393 . S
C1628 H1617 0.950 . S
C1628 C1626 1.391 . S
C1628 C1629 1.400 . S
C1629 C1623 1.491 . S
C1629 C1628 1.400 . S
C1629 C1630 1.398 . S
C1630 H1618 0.950 . S
C1630 C1629 1.398 . S
C1630 C1631 1.391 . S
C1631 H1619 0.950 . S
C1631 C1627 1.393 . S
C1631 C1630 1.391 . S
H1632 C1640 0.950 . S
H1633 C1645 0.950 . S
H1634 C1642 0.950 . S
H1635 C1644 0.950 . S
H1636 C1646 0.950 . S
H1637 C1648 0.950 . S
H1638 C1650 0.950 . S
H1639 C1651 0.950 . S
C1640 H1632 0.950 . S
C1640 C1641 1.386 . S
C1640 C1642 1.391 . S
C1641 C1640 1.386 . S
C1641 C1645 1.393 . S
C1642 H1634 0.950 . S
C1642 C1640 1.391 . S
C1642 C1643 1.400 . S
C1643 C1642 1.400 . S
C1643 C1644 1.398 . S
C1643 C1649 1.491 . S
C1644 H1635 0.950 . S
C1644 C1643 1.398 . S
C1644 C1645 1.391 . S
C1645 H1633 0.950 . S
C1645 C1641 1.393 . S
C1645 C1644 1.391 . S
C1646 H1636 0.950 . S
C1646 C1647 1.386 . S
C1646 C1648 1.391 . S
C1647 C1646 1.386 . S
C1647 C1651 1.393 . S
C1648 H1637 0.950 . S
C1648 C1646 1.391 . S
C1648 C1649 1.400 . S
C1649 C1643 1.491 . S
C1649 C1648 1.400 . S
C1649 C1650 1.398 . S
C1650 H1638 0.950 . S
C1650 C1649 1.398 . S
C1650 C1651 1.391 . S
C1651 H1639 0.950 . S
C1651 C1647 1.393 . S
C1651 C1650 1.391 . S
H1652 C1660 0.950 . S
H1653 C1665 0.950 . S
H1654 C1662 0.950 . S
H1655 C1664 0.950 . S
H1656 C1666 0.950 . S
H1657 C1668 0.950 . S
H1658 C1670 0.950 . S
H1659 C1671 0.950 . S
C1660 H1652 0.950 . S
C1660 C1661 1.386 . S
C1660 C1662 1.391 . S
C1661 C1660 1.386 . S
C1661 C1665 1.393 . S
C1662 H1654 0.950 . S
C1662 C1660 1.391 . S
C1662 C1663 1.400 . S
C1663 C1662 1.400 . S
C1663 C1664 1.398 . S
C1663 C1669 1.491 . S
C1664 H1655 0.950 . S
C1664 C1663 1.398 . S
C1664 C1665 1.391 . S
C1665 H1653 0.950 . S
C1665 C1661 1.393 . S
C1665 C1664 1.391 . S
C1666 H1656 0.950 . S
C1666 C1667 1.386 . S
C1666 C1668 1.391 . S
C1667 C1666 1.386 . S
C1667 C1671 1.393 . S
C1668 H1657 0.950 . S
C1668 C1666 1.391 . S
C1668 C1669 1.400 . S
C1669 C1663 1.491 . S
C1669 C1668 1.400 . S
C1669 C1670 1.398 . S
C1670 H1658 0.950 . S
C1670 C1669 1.398 . S
C1670 C1671 1.391 . S
C1671 H1659 0.950 . S
C1671 C1667 1.393 . S
C1671 C1670 1.391 . S
H1672 C1680 0.950 . S
H1673 C1685 0.950 . S
H1674 C1682 0.950 . S
H1675 C1684 0.950 . S
H1676 C1686 0.950 . S
H1677 C1688 0.950 . S
H1678 C1690 0.950 . S
H1679 C1691 0.950 . S
C1680 H1672 0.950 . S
C1680 C1681 1.386 . S
C1680 C1682 1.391 . S
C1681 C1680 1.386 . S
C1681 C1685 1.393 . S
C1682 H1674 0.950 . S
C1682 C1680 1.391 . S
C1682 C1683 1.400 . S
C1683 C1682 1.400 . S
C1683 C1684 1.398 . S
C1683 C1689 1.491 . S
C1684 H1675 0.950 . S
C1684 C1683 1.398 . S
C1684 C1685 1.391 . S
C1685 H1673 0.950 . S
C1685 C1681 1.393 . S
C1685 C1684 1.391 . S
C1686 H1676 0.950 . S
C1686 C1687 1.386 . S
C1686 C1688 1.391 . S
C1687 C1686 1.386 . S
C1687 C1691 1.393 . S
C1688 H1677 0.950 . S
C1688 C1686 1.391 . S
C1688 C1689 1.400 . S
C1689 C1683 1.491 . S
C1689 C1688 1.400 . S
C1689 C1690 1.398 . S
C1690 H1678 0.950 . S
C1690 C1689 1.398 . S
C1690 C1691 1.391 . S
C1691 H1679 0.950 . S
C1691 C1687 1.393 . S
C1691 C1690 1.391 . S
H1692 C1700 0.950 . S
H1693 C1705 0.950 . S
H1694 C1702 0.950 . S
H1695 C1704 0.950 . S
H1696 C1706 0.950 . S
H1697 C1708 0.950 . S
H1698 C1710 0.950 . S
H1699 C1711 0.950 . S
C1700 H1692 0.950 . S
C1700 C1701 1.386 . S
C1700 C1702 1.391 . S
C1701 C1700 1.386 . S
C1701 C1705 1.393 . S
C1702 H1694 0.950 . S
C1702 C1700 1.391 . S
C1702 C1703 1.400 . S
C1703 C1702 1.400 . S
C1703 C1704 1.398 . S
C1703 C1709 1.491 . S
C1704 H1695 0.950 . S
C1704 C1703 1.398 . S
C1704 C1705 1.391 . S
C1705 H1693 0.950 . S
C1705 C1701 1.393 . S
C1705 C1704 1.391 . S
C1706 H1696 0.950 . S
C1706 C1707 1.386 . S
C1706 C1708 1.391 . S
C1707 C1706 1.386 . S
C1707 C1711 1.393 . S
C1708 H1697 0.950 . S
C1708 C1706 1.391 . S
C1708 C1709 1.400 . S
C1709 C1703 1.491 . S
C1709 C1708 1.400 . S
C1709 C1710 1.398 . S
C1710 H1698 0.950 . S
C1710 C1709 1.398 . S
C1710 C1711 1.391 . S
C1711 H1699 0.950 . S
C1711 C1707 1.393 . S
C1711 C1710 1.391 . S
H1712 C1720 0.950 . S
H1713 C1725 0.950 . S
H1714 C1722 0.950 . S
H1715 C1724 0.950 . S
H1716 C1726 0.950 . S
H1717 C1728 0.950 . S
H1718 C1730 0.950 . S
H1719 C1731 0.950 . S
C1720 H1712 0.950 . S
C1720 C1721 1.386 . S
C1720 C1722 1.391 . S
C1721 C1720 1.386 . S
C1721 C1725 1.393 . S
C1722 H1714 0.950 . S
C1722 C1720 1.391 . S
C1722 C1723 1.400 . S
C1723 C1722 1.400 . S
C1723 C1724 1.398 . S
C1723 C1729 1.491 . S
C1724 H1715 0.950 . S
C1724 C1723 1.398 . S
C1724 C1725 1.391 . S
C1725 H1713 0.950 . S
C1725 C1721 1.393 . S
C1725 C1724 1.391 . S
C1726 H1716 0.950 . S
C1726 C1727 1.386 . S
C1726 C1728 1.391 . S
C1727 C1726 1.386 . S
C1727 C1731 1.393 . S
C1728 H1717 0.950 . S
C1728 C1726 1.391 . S
C1728 C1729 1.400 . S
C1729 C1723 1.491 . S
C1729 C1728 1.400 . S
C1729 C1730 1.398 . S
C1730 H1718 0.950 . S
C1730 C1729 1.398 . S
C1730 C1731 1.391 . S
C1731 H1719 0.950 . S
C1731 C1727 1.393 . S
C1731 C1730 1.391 . S
H1732 C1740 0.950 . S
H1733 C1745 0.950 . S
H1734 C1742 0.950 . S
H1735 C1744 0.950 . S
H1736 C1746 0.950 . S
H1737 C1748 0.950 . S
H1738 C1750 0.950 . S
H1739 C1751 0.950 . S
C1740 H1732 0.950 . S
C1740 C1741 1.386 . S
C1740 C1742 1.391 . S
C1741 C1740 1.386 . S
C1741 C1745 1.393 . S
C1742 H1734 0.950 . S
C1742 C1740 1.391 . S
C1742 C1743 1.400 . S
C1743 C1742 1.400 . S
C1743 C1744 1.398 . S
C1743 C1749 1.491 . S
C1744 H1735 0.950 . S
C1744 C1743 1.398 . S
C1744 C1745 1.391 . S
C1745 H1733 0.950 . S
C1745 C1741 1.393 . S
C1745 C1744 1.391 . S
C1746 H1736 0.950 . S
C1746 C1747 1.386 . S
C1746 C1748 1.391 . S
C1747 C1746 1.386 . S
C1747 C1751 1.393 . S
C1748 H1737 0.950 . S
C1748 C1746 1.391 . S
C1748 C1749 1.400 . S
C1749 C1743 1.491 . S
C1749 C1748 1.400 . S
C1749 C1750 1.398 . S
C1750 H1738 0.950 . S
C1750 C1749 1.398 . S
C1750 C1751 1.391 . S
C1751 H1739 0.950 . S
C1751 C1747 1.393 . S
C1751 C1750 1.391 . S
H1752 C1760 0.950 . S
H1753 C1765 0.950 . S
H1754 C1762 0.950 . S
H1755 C1764 0.950 . S
H1756 C1766 0.950 . S
H1757 C1768 0.950 . S
H1758 C1770 0.950 . S
H1759 C1771 0.950 . S
C1760 H1752 0.950 . S
C1760 C1761 1.386 . S
C1760 C1762 1.391 . S
C1761 C1760 1.386 . S
C1761 C1765 1.393 . S
C1762 H1754 0.950 . S
C1762 C1760 1.391 . S
C1762 C1763 1.400 . S
C1763 C1762 1.400 . S
C1763 C1764 1.398 . S
C1763 C1769 1.491 . S
C1764 H1755 0.950 . S
C1764 C1763 1.398 . S
C1764 C1765 1.391 . S
C1765 H1753 0.950 . S
C1765 C1761 1.393 . S
C1765 C1764 1.391 . S
C1766 H1756 0.950 . S
C1766 C1767 1.386 . S
C1766 C1768 1.391 . S
C1767 C1766 1.386 . S
C1767 C1771 1.393 . S
C1768 H1757 0.950 . S
C1768 C1766 1.391 . S
C1768 C1769 1.400 . S
C1769 C1763 1.491 . S
C1769 C1768 1.400 . S
C1769 C1770 1.398 . S
C1770 H1758 0.950 . S
C1770 C1769 1.398 . S
C1770 C1771 1.391 . S
C1771 H1759 0.950 . S
C1771 C1767 1.393 . S
C1771 C1770 1.391 . S
H1772 C1780 0.950 . S
H1773 C1785 0.950 . S
H1774 C1782 0.950 . S
H1775 C1784 0.950 . S
H1776 C1786 0.950 . S
H1777 C1788 0.950 . S
H1778 C1790 0.950 . S
H1779 C1791 0.950 . S
C1780 H1772 0.950 . S
C1780 C1781 1.386 . S
C1780 C1782 1.391 . S
C1781 C1780 1.386 . S
C1781 C1785 1.393 . S
C1782 H1774 0.950 . S
C1782 C1780 1.391 . S
C1782 C1783 1.400 . S
C1783 C1782 1.400 . S
C1783 C1784 1.398 . S
C1783 C1789 1.491 . S
C1784 H1775 0.950 . S
C1784 C1783 1.398 . S
C1784 C1785 1.391 . S
C1785 H1773 0.950 . S
C1785 C1781 1.393 . S
C1785 C1784 1.391 . S
C1786 H1776 0.950 . S
C1786 C1787 1.386 . S
C1786 C1788 1.391 . S
C1787 C1786 1.386 . S
C1787 C1791 1.393 . S
C1788 H1777 0.950 . S
C1788 C1786 1.391 . S
C1788 C1789 1.400 . S
C1789 C1783 1.491 . S
C1789 C1788 1.400 . S
C1789 C1790 1.398 . S
C1790 H1778 0.950 . S
C1790 C1789 1.398 . S
C1790 C1791 1.391 . S
C1791 H1779 0.950 . S
C1791 C1787 1.393 . S
C1791 C1790 1.391 . S
H1792 C1800 0.950 . S
H1793 C1805 0.950 . S
H1794 C1802 0.950 . S
H1795 C1804 0.950 . S
H1796 C1806 0.950 . S
H1797 C1808 0.950 . S
H1798 C1810 0.950 . S
H1799 C1811 0.950 . S
C1800 H1792 0.950 . S
C1800 C1801 1.386 . S
C1800 C1802 1.391 . S
C1801 C1800 1.386 . S
C1801 C1805 1.393 . S
C1802 H1794 0.950 . S
C1802 C1800 1.391 . S
C1802 C1803 1.400 . S
C1803 C1802 1.400 . S
C1803 C1804 1.398 . S
C1803 C1809 1.491 . S
C1804 H1795 0.950 . S
C1804 C1803 1.398 . S
C1804 C1805 1.391 . S
C1805 H1793 0.950 . S
C1805 C1801 1.393 . S
C1805 C1804 1.391 . S
C1806 H1796 0.950 . S
C1806 C1807 1.386 . S
C1806 C1808 1.391 . S
C1807 C1806 1.386 . S
C1807 C1811 1.393 . S
C1808 H1797 0.950 . S
C1808 C1806 1.391 . S
C1808 C1809 1.400 . S
C1809 C1803 1.491 . S
C1809 C1808 1.400 . S
C1809 C1810 1.398 . S
C1810 H1798 0.950 . S
C1810 C1809 1.398 . S
C1810 C1811 1.391 . S
C1811 H1799 0.950 . S
C1811 C1807 1.393 . S
C1811 C1810 1.391 . S
H1812 C1820 0.950 . S
H1813 C1825 0.950 . S
H1814 C1822 0.950 . S
H1815 C1824 0.950 . S
H1816 C1826 0.950 . S
H1817 C1828 0.950 . S
H1818 C1830 0.950 . S
H1819 C1831 0.950 . S
C1820 H1812 0.950 . S
C1820 C1821 1.386 . S
C1820 C1822 1.391 . S
C1821 C1820 1.386 . S
C1821 C1825 1.393 . S
C1822 H1814 0.950 . S
C1822 C1820 1.391 . S
C1822 C1823 1.400 . S
C1823 C1822 1.400 . S
C1823 C1824 1.398 . S
C1823 C1829 1.491 . S
C1824 H1815 0.950 . S
C1824 C1823 1.398 . S
C1824 C1825 1.391 . S
C1825 H1813 0.950 . S
C1825 C1821 1.393 . S
C1825 C1824 1.391 . S
C1826 H1816 0.950 . S
C1826 C1827 1.386 . S
C1826 C1828 1.391 . S
C1827 C1826 1.386 . S
C1827 C1831 1.393 . S
C1828 H1817 0.950 . S
C1828 C1826 1.391 . S
C1828 C1829 1.400 . S
C1829 C1823 1.491 . S
C1829 C1828 1.400 . S
C1829 C1830 1.398 . S
C1830 H1818 0.950 . S
C1830 C1829 1.398 . S
C1830 C1831 1.391 . S
C1831 H1819 0.950 . S
C1831 C1827 1.393 . S
C1831 C1830 1.391 . S
H1832 C1840 0.950 . S
H1833 C1845 0.950 . S
H1834 C1842 0.950 . S
H1835 C1844 0.950 . S
H1836 C1846 0.950 . S
H1837 C1848 0.950 . S
H1838 C1850 0.950 . S
H1839 C1851 0.950 . S
C1840 H1832 0.950 . S
C1840 C1841 1.386 . S
C1840 C1842 1.391 . S
C1841 C1840 1.386 . S
C1841 C1845 1.393 . S
C1842 H1834 0.950 . S
C1842 C1840 1.391 . S
C1842 C1843 1.400 . S
C1843 C1842 1.400 . S
C1843 C1844 1.398 . S
C1843 C1849 1.491 . S
C1844 H1835 0.950 . S
C1844 C1843 1.398 . S
C1844 C1845 1.391 . S
C1845 H1833 0.950 . S
C1845 C1841 1.393 . S
C1845 C1844 1.391 . S
C1846 H1836 0.950 . S
C1846 C1847 1.386 . S
C1846 C1848 1.391 . S
C1847 C1846 1.386 . S
C1847 C1851 1.393 . S
C1848 H1837 0.950 . S
C1848 C1846 1.391 . S
C1848 C1849 1.400 . S
C1849 C1843 1.491 . S
C1849 C1848 1.400 . S
C1849 C1850 1.398 . S
C1850 H1838 0.950 . S
C1850 C1849 1.398 . S
C1850 C1851 1.391 . S
C1851 H1839 0.950 . S
C1851 C1847 1.393 . S
C1851 C1850 1.391 . S
H1852 C1860 0.950 . S
H1853 C1865 0.950 . S
H1854 C1862 0.950 . S
H1855 C1864 0.950 . S
H1856 C1866 0.950 . S
H1857 C1868 0.950 . S
H1858 C1870 0.950 . S
H1859 C1871 0.950 . S
C1860 H1852 0.950 . S
C1860 C1861 1.386 . S
C1860 C1862 1.391 . S
C1861 C1860 1.386 . S
C1861 C1865 1.393 . S
C1862 H1854 0.950 . S
C1862 C1860 1.391 . S
C1862 C1863 1.400 . S
C1863 C1862 1.400 . S
C1863 C1864 1.398 . S
C1863 C1869 1.491 . S
C1864 H1855 0.950 . S
C1864 C1863 1.398 . S
C1864 C1865 1.391 . S
C1865 H1853 0.950 . S
C1865 C1861 1.393 . S
C1865 C1864 1.391 . S
C1866 H1856 0.950 . S
C1866 C1867 1.386 . S
C1866 C1868 1.391 . S
C1867 C1866 1.386 . S
C1867 C1871 1.393 . S
C1868 H1857 0.950 . S
C1868 C1866 1.391 . S
C1868 C1869 1.400 . S
C1869 C1863 1.491 . S
C1869 C1868 1.400 . S
C1869 C1870 1.398 . S
C1870 H1858 0.950 . S
C1870 C1869 1.398 . S
C1870 C1871 1.391 . S
C1871 H1859 0.950 . S
C1871 C1867 1.393 . S
C1871 C1870 1.391 . S
H1872 C1880 0.950 . S
H1873 C1885 0.950 . S
H1874 C1882 0.950 . S
H1875 C1884 0.950 . S
H1876 C1886 0.950 . S
H1877 C1888 0.950 . S
H1878 C1890 0.950 . S
H1879 C1891 0.950 . S
C1880 H1872 0.950 . S
C1880 C1881 1.386 . S
C1880 C1882 1.391 . S
C1881 C1880 1.386 . S
C1881 C1885 1.393 . S
C1882 H1874 0.950 . S
C1882 C1880 1.391 . S
C1882 C1883 1.400 . S
C1883 C1882 1.400 . S
C1883 C1884 1.398 . S
C1883 C1889 1.491 . S
C1884 H1875 0.950 . S
C1884 C1883 1.398 . S
C1884 C1885 1.391 . S
C1885 H1873 0.950 . S
C1885 C1881 1.393 . S
C1885 C1884 1.391 . S
C1886 H1876 0.950 . S
C1886 C1887 1.386 . S
C1886 C1888 1.391 . S
C1887 C1886 1.386 . S
C1887 C1891 1.393 . S
C1888 H1877 0.950 . S
C1888 C1886 1.391 . S
C1888 C1889 1.400 . S
C1889 C1883 1.491 . S
C1889 C1888 1.400 . S
C1889 C1890 1.398 . S
C1890 H1878 0.950 . S
C1890 C1889 1.398 . S
C1890 C1891 1.391 . S
C1891 H1879 0.950 . S
C1891 C1887 1.393 . S
C1891 C1890 1.391 . S
H1892 C1900 0.950 . S
H1893 C1905 0.950 . S
H1894 C1902 0.950 . S
H1895 C1904 0.950 . S
H1896 C1906 0.950 . S
H1897 C1908 0.950 . S
H1898 C1910 0.950 . S
H1899 C1911 0.950 . S
C1900 H1892 0.950 . S
C1900 C1901 1.386 . S
C1900 C1902 1.391 . S
C1901 C1900 1.386 . S
C1901 C1905 1.393 . S
C1902 H1894 0.950 . S
C1902 C1900 1.391 . S
C1902 C1903 1.400 . S
C1903 C1902 1.400 . S
C1903 C1904 1.398 . S
C1903 C1909 1.491 . S
C1904 H1895 0.950 . S
C1904 C1903 1.398 . S
C1904 C1905 1.391 . S
C1905 H1893 0.950 . S
C1905 C1901 1.393 . S
C1905 C1904 1.391 . S
C1906 H1896 0.950 . S
C1906 C1907 1.386 . S
C1906 C1908 1.391 . S
C1907 C1906 1.386 . S
C1907 C1911 1.393 . S
C1908 H1897 0.950 . S
C1908 C1906 1.391 . S
C1908 C1909 1.400 . S
C1909 C1903 1.491 . S
C1909 C1908 1.400 . S
C1909 C1910 1.398 . S
C1910 H1898 0.950 . S
C1910 C1909 1.398 . S
C1910 C1911 1.391 . S
C1911 H1899 0.950 . S
C1911 C1907 1.393 . S
C1911 C1910 1.391 . S
H1912 C1920 0.950 . S
H1913 C1925 0.950 . S
H1914 C1922 0.950 . S
H1915 C1924 0.950 . S
H1916 C1926 0.950 . S
H1917 C1928 0.950 . S
H1918 C1930 0.950 . S
H1919 C1931 0.950 . S
C1920 H1912 0.950 . S
C1920 C1921 1.386 . S
C1920 C1922 1.391 . S
C1921 C1920 1.386 . S
C1921 C1925 1.393 . S
C1922 H1914 0.950 . S
C1922 C1920 1.391 . S
C1922 C1923 1.400 . S
C1923 C1922 1.400 . S
C1923 C1924 1.398 . S
C1923 C1929 1.491 . S
C1924 H1915 0.950 . S
C1924 C1923 1.398 . S
C1924 C1925 1.391 . S
C1925 H1913 0.950 . S
C1925 C1921 1.393 . S
C1925 C1924 1.391 . S
C1926 H1916 0.950 . S
C1926 C1927 1.386 . S
C1926 C1928 1.391 . S
C1927 C1926 1.386 . S
C1927 C1931 1.393 . S
C1928 H1917 0.950 . S
C1928 C1926 1.391 . S
C1928 C1929 1.400 . S
C1929 C1923 1.491 . S
C1929 C1928 1.400 . S
C1929 C1930 1.398 . S
C1930 H1918 0.950 . S
C1930 C1929 1.398 . S
C1930 C1931 1.391 . S
C1931 H1919 0.950 . S
C1931 C1927 1.393 . S
C1931 C1930 1.391 . S
H1932 C1940 0.950 . S
H1933 C1945 0.950 . S
H1934 C1942 0.950 . S
H1935 C1944 0.950 . S
H1936 C1946 0.950 . S
H1937 C1948 0.950 . S
H1938 C1950 0.950 . S
H1939 C1951 0.950 . S
C1940 H1932 0.950 . S
C1940 C1941 1.386 . S
C1940 C1942 1.391 . S
C1941 C1940 1.386 . S
C1941 C1945 1.393 . S
C1942 H1934 0.950 . S
C1942 C1940 1.391 . S
C1942 C1943 1.400 . S
C1943 C1942 1.400 . S
C1943 C1944 1.398 . S
C1943 C1949 1.491 . S
C1944 H1935 0.950 . S
C1944 C1943 1.398 . S
C1944 C1945 1.391 . S
C1945 H1933 0.950 . S
C1945 C1941 1.393 . S
C1945 C1944 1.391 . S
C1946 H1936 0.950 . S
C1946 C1947 1.386 . S
C1946 C1948 1.391 . S
C1947 C1946 1.386 . S
C1947 C1951 1.393 . S
C1948 H1937 0.950 . S
C1948 C1946 1.391 . S
C1948 C1949 1.400 . S
C1949 C1943 1.491 . S
C1949 C1948 1.400 . S
C1949 C1950 1.398 . S
C1950 H1938 0.950 . S
C1950 C1949 1.398 . S
C1950 C1951 1.391 . S
C1951 H1939 0.950 . S
C1951 C1947 1.393 . S
C1951 C1950 1.391 . S
H1952 C1960 0.950 . S
H1953 C1965 0.950 . S
H1954 C1962 0.950 . S
H1955 C1964 0.950 . S
H1956 C1966 0.950 . S
H1957 C1968 0.950 . S
H1958 C1970 0.950 . S
H1959 C1971 0.950 . S
C1960 H1952 0.950 . S
C1960 C1961 1.386 . S
C1960 C1962 1.391 . S
C1961 C1960 1.386 . S
C1961 C1965 1.393 . S
C1962 H1954 0.950 . S
C1962 C1960 1.391 . S
C1962 C1963 1.400 . S
C1963 C1962 1.400 . S
C1963 C1964 1.398 . S
C1963 C1969 1.491 . S
C1964 H1955 0.950 . S
C1964 C1963 1.398 . S
C1964 C1965 1.391 . S
C1965 H1953 0.950 . S
C1965 C1961 1.393 . S
C1965 C1964 1.391 . S
C1966 H1956 0.950 . S
C1966 C1967 1.386 . S
C1966 C1968 1.391 . S
C1967 C1966 1.386 . S
C1967 C1971 1.393 . S
C1968 H1957 0.950 . S
C1968 C1966 1.391 . S
C1968 C1969 1.400 . S
C1969 C1963 1.491 . S
C1969 C1968 1.400 . S
C1969 C1970 1.398 . S
C1970 H1958 0.950 . S
C1970 C1969 1.398 . S
C1970 C1971 1.391 . S
C1971 H1959 0.950 . S
C1971 C1967 1.393 . S
C1971 C1970 1.391 . S
H1972 C1980 0.950 . S
H1973 C1985 0.950 . S
H1974 C1982 0.950 . S
H1975 C1984 0.950 . S
H1976 C1986 0.950 . S
H1977 C1988 0.950 . S
H1978 C1990 0.950 . S
H1979 C1991 0.950 . S
C1980 H1972 0.950 . S
C1980 C1981 1.386 . S
C1980 C1982 1.391 . S
C1981 C1980 1.386 . S
C1981 C1985 1.393 . S
C1982 H1974 0.950 . S
C1982 C1980 1.391 . S
C1982 C1983 1.400 . S
C1983 C1982 1.400 . S
C1983 C1984 1.398 . S
C1983 C1989 1.491 . S
C1984 H1975 0.950 . S
C1984 C1983 1.398 . S
C1984 C1985 1.391 . S
C1985 H1973 0.950 . S
C1985 C1981 1.393 . S
C1985 C1984 1.391 . S
C1986 H1976 0.950 . S
C1986 C1987 1.386 . S
C1986 C1988 1.391 . S
C1987 C1986 1.386 . S
C1987 C1991 1.393 . S
C1988 H1977 0.950 . S
C1988 C1986 1.391 . S
C1988 C1989 1.400 . S
C1989 C1983 1.491 . S
C1989 C1988 1.400 . S
C1989 C1990 1.398 . S
C1990 H1978 0.950 . S
C1990 C1989 1.398 . S
C1990 C1991 1.391 . S
C1991 H1979 0.950 . S
C1991 C1987 1.393 . S
C1991 C1990 1.391 . S
C801 C186 0.967 . S
C807 C21 0.947 . S
C821 C54 0.967 . S
C827 C219 0.946 . S
C841 C87 0.945 . S
C847 C252 0.967 . S
C861 C153 0.941 . S
C867 C120 0.959 . S
C881 C285 0.941 . S
C887 C780 0.965 . S
C901 C714 0.940 . S
C907 C318 0.961 . S
C921 C351 0.957 . S
C927 C747 0.961 . S
C941 C549 0.944 . S
C947 C384 0.967 . S
C961 C417 0.942 . S
C967 C681 0.965 . S
C981 C450 0.960 . S
C987 C582 0.958 . S
C1001 C615 0.966 . S
C1007 C483 0.949 . S
C1021 C516 0.967 . S
C1027 C648 0.944 . S
C1041 N101 1.625 . S
C1047 C7 1.690 . S
C1061 C40 1.701 . S
C1067 N2 1.641 . S
C1081 C73 1.685 . S
C1087 N35 1.625 . S
C1101 N68 1.625 . S
C1107 C106 1.690 . S
C1121 N167 1.637 . S
C1127 C139 1.686 . S
C1141 C172 1.696 . S
C1147 N200 1.631 . S
C1161 N233 1.652 . S
C1167 C205 1.701 . S
C1181 N134 1.628 . S
C1187 C238 1.684 . S
C1201 N596 1.631 . S
C1207 C271 1.696 . S
C1221 C304 1.703 . S
C1227 N629 1.650 . S
C1241 N662 1.635 . S
C1247 C337 1.686 . S
C1261 C370 1.703 . S
C1267 N563 1.649 . S
C1281 N728 1.652 . S
C1287 C403 1.698 . S
C1301 C436 1.691 . S
C1307 N530 1.645 . S
C1321 N761 1.652 . S
C1327 C469 1.700 . S
C1341 C502 1.684 . S
C1347 N695 1.630 . S
C1361 N299 1.633 . S
C1367 C535 1.685 . S
C1381 N497 1.626 . S
C1387 C568 1.691 . S
C1401 C601 1.700 . S
C1407 N398 1.652 . S
C1421 C634 1.702 . S
C1427 N431 1.643 . S
C1441 N464 1.651 . S
C1447 C667 1.696 . S
C1461 N365 1.649 . S
C1467 C700 1.703 . S
C1481 N266 1.638 . S
C1487 C733 1.700 . S
C1501 C766 1.692 . S
C1507 N332 1.627 . S
C1521 C18 1.250 . S
C1527 N541 1.163 . S
C1541 N772 1.166 . S
C1547 C51 1.251 . S
C1561 C84 1.254 . S
C1567 N706 1.173 . S
C1581 N739 1.167 . S
C1587 C117 1.252 . S
C1601 C150 1.255 . S
C1607 N574 1.175 . S
C1621 C183 1.261 . S
C1627 N607 1.189 . S
C1641 N640 1.177 . S
C1647 C216 1.256 . S
C1661 N673 1.162 . S
C1667 C249 1.250 . S
C1681 N13 1.161 . S
C1687 C282 1.249 . S
C1701 C315 1.252 . S
C1707 N46 1.167 . S
C1721 C348 1.264 . S
C1727 N79 1.199 . S
C1741 C381 1.259 . S
C1747 N112 1.186 . S
C1761 C414 1.266 . S
C1767 N145 1.204 . S
C1781 C447 1.257 . S
C1787 N178 1.180 . S
C1801 C480 1.256 . S
C1807 N211 1.177 . S
C1821 C513 1.250 . S
C1827 N244 1.162 . S
C1841 N277 1.161 . S
C1847 C546 1.250 . S
C1861 C579 1.261 . S
C1867 N409 1.191 . S
C1881 C612 1.260 . S
C1887 N442 1.187 . S
C1901 N475 1.161 . S
C1907 C645 1.249 . S
C1921 C678 1.266 . S
C1927 N508 1.204 . S
C1941 N343 1.162 . S
C1947 C711 1.250 . S
C1961 N376 1.194 . S
C1967 C744 1.262 . S
C1981 C777 1.254 . S
C1987 N310 1.173 . S
