# Generated by pormake.
# Topology umg, (4)-cn, num edge types: 1
# Building blocks:
#     Node 0, Type 0, BuildingBlock: GALJAG_clean_sbu_0, # of connection points: 4
#     Node 1, Type 0, BuildingBlock: GALJAG_clean_sbu_0, # of connection points: 4
#     Node 2, Type 0, BuildingBlock: GALJAG_clean_sbu_0, # of connection points: 4
#     Node 3, Type 0, BuildingBlock: GALJAG_clean_sbu_0, # of connection points: 4
#     Node 4, Type 0, BuildingBlock: GALJAG_clean_sbu_0, # of connection points: 4
#     Node 5, Type 0, BuildingBlock: GALJAG_clean_sbu_0, # of connection points: 4
#     Node 6, Type 0, BuildingBlock: GALJAG_clean_sbu_0, # of connection points: 4
#     Node 7, Type 0, BuildingBlock: GALJAG_clean_sbu_0, # of connection points: 4
#     Node 8, Type 0, BuildingBlock: GALJAG_clean_sbu_0, # of connection points: 4
#     Node 9, Type 0, BuildingBlock: GALJAG_clean_sbu_0, # of connection points: 4
#     Node 10, Type 0, BuildingBlock: GALJAG_clean_sbu_0, # of connection points: 4
#     Node 11, Type 0, BuildingBlock: GALJAG_clean_sbu_0, # of connection points: 4
#     Edge 12, Type (0, 0), BuildingBlock: CIFDUS_clean_linker_0, # of connection points: 2
#     Edge 13, Type (0, 0), BuildingBlock: CIFDUS_clean_linker_0, # of connection points: 2
#     Edge 14, Type (0, 0), BuildingBlock: CIFDUS_clean_linker_0, # of connection points: 2
#     Edge 15, Type (0, 0), BuildingBlock: CIFDUS_clean_linker_0, # of connection points: 2
#     Edge 16, Type (0, 0), BuildingBlock: CIFDUS_clean_linker_0, # of connection points: 2
#     Edge 17, Type (0, 0), BuildingBlock: CIFDUS_clean_linker_0, # of connection points: 2
#     Edge 18, Type (0, 0), BuildingBlock: CIFDUS_clean_linker_0, # of connection points: 2
#     Edge 19, Type (0, 0), BuildingBlock: CIFDUS_clean_linker_0, # of connection points: 2
#     Edge 20, Type (0, 0), BuildingBlock: CIFDUS_clean_linker_0, # of connection points: 2
#     Edge 21, Type (0, 0), BuildingBlock: CIFDUS_clean_linker_0, # of connection points: 2
#     Edge 22, Type (0, 0), BuildingBlock: CIFDUS_clean_linker_0, # of connection points: 2
#     Edge 23, Type (0, 0), BuildingBlock: CIFDUS_clean_linker_0, # of connection points: 2
#     Edge 24, Type (0, 0), BuildingBlock: CIFDUS_clean_linker_0, # of connection points: 2
#     Edge 25, Type (0, 0), BuildingBlock: CIFDUS_clean_linker_0, # of connection points: 2
#     Edge 26, Type (0, 0), BuildingBlock: CIFDUS_clean_linker_0, # of connection points: 2
#     Edge 27, Type (0, 0), BuildingBlock: CIFDUS_clean_linker_0, # of connection points: 2
#     Edge 28, Type (0, 0), BuildingBlock: CIFDUS_clean_linker_0, # of connection points: 2
#     Edge 29, Type (0, 0), BuildingBlock: CIFDUS_clean_linker_0, # of connection points: 2
#     Edge 30, Type (0, 0), BuildingBlock: CIFDUS_clean_linker_0, # of connection points: 2
#     Edge 31, Type (0, 0), BuildingBlock: CIFDUS_clean_linker_0, # of connection points: 2
#     Edge 32, Type (0, 0), BuildingBlock: CIFDUS_clean_linker_0, # of connection points: 2
#     Edge 33, Type (0, 0), BuildingBlock: CIFDUS_clean_linker_0, # of connection points: 2
#     Edge 34, Type (0, 0), BuildingBlock: CIFDUS_clean_linker_0, # of connection points: 2
#     Edge 35, Type (0, 0), BuildingBlock: CIFDUS_clean_linker_0, # of connection points: 2
# Relax obj value: 0.078
# Max RMSD: 0.206
# Mean RMSD: 0.205
data_MOF--net-umg--node1-GALJAG_clean_sbu_0--edge1-CIFDUS_clean_linker_0
_symmetry_space_group_name_H-M    P1
_symmetry_Int_Tables_number       1
_symmetry_cell_setting            triclinic
loop_
_symmetry_equiv_pos_as_xyz
'x, y, z'
_cell_length_a     25.068028
_cell_length_b     25.087349
_cell_length_c     76.399305
_cell_angle_alpha  90.081541
_cell_angle_beta   89.68439
_cell_angle_gamma 120.03709
loop_
_atom_site_label
_atom_site_type_symbol
_atom_site_fract_x
_atom_site_fract_y
_atom_site_fract_z
_atom_type_partial_charge
In0 In 0.32638 0.59464 0.07595 0.0
O1 O 0.36925 0.68567 0.06049 0.0
O2 O 0.30945 0.60084 0.04748 0.0
C3 C 0.34354 0.6172 0.11035 0.0
C4 C 0.41315 0.5634 0.06987 0.0
C5 C 0.20256 0.54005 0.07684 0.0
O6 O 0.35411 0.65934 0.09939 0.0
O7 O 0.32489 0.56455 0.10384 0.0
O8 O 0.2298 0.50969 0.07396 0.0
O9 O 0.23789 0.59699 0.07939 0.0
C10 C 0.34284 0.65859 0.04646 0.0
O11 O 0.35615 0.52374 0.06941 0.0
O12 O 0.42522 0.61757 0.0732 0.0
In13 In 0.7138 0.30633 0.40937 0.0
O14 O 0.81508 0.33289 0.41201 0.0
O15 O 0.79185 0.40413 0.40987 0.0
C16 C 0.62881 0.18556 0.40992 0.0
C17 C 0.71309 0.32666 0.37516 0.0
C18 C 0.69166 0.333 0.44136 0.0
O19 O 0.686 0.20416 0.41135 0.0
O20 O 0.61567 0.22779 0.40818 0.0
O21 O 0.66947 0.34463 0.42792 0.0
O22 O 0.72334 0.30743 0.43844 0.0
C23 C 0.83376 0.39033 0.4114 0.0
O24 O 0.68514 0.34331 0.38585 0.0
O25 O 0.7383 0.29873 0.38185 0.0
In26 In 0.39086 0.67305 0.74496 0.0
O27 O 0.3118 0.62593 0.72504 0.0
O28 O 0.4037 0.6879 0.71613 0.0
C29 C 0.35053 0.65738 0.77808 0.0
C30 C 0.42416 0.79264 0.74375 0.0
C31 C 0.44445 0.60278 0.74536 0.0
O32 O 0.31413 0.62891 0.76556 0.0
O33 O 0.40617 0.69211 0.77374 0.0
O34 O 0.4758 0.6611 0.74554 0.0
O35 O 0.38684 0.58071 0.7449 0.0
C36 C 0.34777 0.65337 0.71226 0.0
O37 O 0.46379 0.7752 0.74332 0.0
O38 O 0.36869 0.74978 0.74495 0.0
In39 In 0.72407 0.3923 0.0701 0.0
O40 O 0.68929 0.31144 0.05076 0.0
O41 O 0.75406 0.40278 0.04213 0.0
C42 C 0.68884 0.35238 0.10291 0.0
C43 C 0.64103 0.42819 0.06403 0.0
C44 C 0.84667 0.44493 0.07459 0.0
O45 O 0.68587 0.31619 0.09084 0.0
O46 O 0.70983 0.40762 0.09829 0.0
O47 O 0.82078 0.47667 0.07206 0.0
O48 O 0.81046 0.38738 0.07519 0.0
C49 C 0.72197 0.34639 0.03839 0.0
O50 O 0.69735 0.46686 0.0668 0.0
O51 O 0.6279 0.37261 0.06394 0.0
In52 In 0.31944 0.69853 0.41032 0.0
O53 O 0.21775 0.67092 0.41203 0.0
O54 O 0.24203 0.60025 0.41034 0.0
C55 C 0.40427 0.81925 0.41093 0.0
C56 C 0.32653 0.67963 0.37628 0.0
C57 C 0.33604 0.67334 0.44295 0.0
O58 O 0.34687 0.8007 0.41146 0.0
O59 O 0.4177 0.77697 0.41009 0.0
O60 O 0.36008 0.66059 0.43007 0.0
O61 O 0.30529 0.69914 0.43915 0.0
C62 C 0.19961 0.61359 0.41146 0.0
O63 O 0.35345 0.66357 0.3874 0.0
O64 O 0.29871 0.70586 0.38249 0.0
In65 In 0.59775 0.27619 0.7426 0.0
O66 O 0.52391 0.17451 0.74003 0.0
O67 O 0.61865 0.19932 0.73845 0.0
C68 C 0.54218 0.34416 0.7451 0.0
C69 C 0.6486 0.31683 0.71102 0.0
C70 C 0.63293 0.28663 0.77601 0.0
O71 O 0.51184 0.2865 0.74245 0.0
O72 O 0.59959 0.3664 0.74675 0.0
O73 O 0.66966 0.32139 0.76422 0.0
O74 O 0.57986 0.24746 0.77081 0.0
C75 C 0.56299 0.15673 0.7384 0.0
O76 O 0.68165 0.3204 0.72397 0.0
O77 O 0.59168 0.29266 0.71416 0.0
In78 In 0.40712 0.71483 0.57811 0.0
O79 O 0.49277 0.70473 0.57872 0.0
O80 O 0.40422 0.62432 0.58187 0.0
C81 C 0.441 0.83394 0.57376 0.0
C82 C 0.36876 0.706 0.6113 0.0
C83 C 0.36303 0.67828 0.54586 0.0
O84 O 0.48031 0.81675 0.5759 0.0
O85 O 0.38549 0.79094 0.5735 0.0
O86 O 0.32725 0.66976 0.55872 0.0
O87 O 0.41965 0.70477 0.54949 0.0
C88 C 0.46186 0.64677 0.58074 0.0
O89 O 0.33248 0.67049 0.59964 0.0
O90 O 0.42255 0.74379 0.6061 0.0
In91 In 0.70224 0.41142 0.90974 0.0
O92 O 0.79734 0.49679 0.91331 0.0
O93 O 0.79105 0.4093 0.9097 0.0
C94 C 0.61549 0.44473 0.91244 0.0
C95 C 0.68051 0.34833 0.93959 0.0
C96 C 0.69904 0.38817 0.87541 0.0
O97 O 0.67237 0.48347 0.91394 0.0
O98 O 0.6032 0.39021 0.90958 0.0
O99 O 0.67681 0.34519 0.88666 0.0
O100 O 0.72124 0.44179 0.88156 0.0
C101 C 0.82532 0.46648 0.91209 0.0
O102 O 0.66003 0.32044 0.92521 0.0
O103 O 0.71003 0.40632 0.93873 0.0
In104 In 0.28724 0.71526 0.24073 0.0
O105 O 0.31658 0.81708 0.2422 0.0
O106 O 0.3844 0.7903 0.24616 0.0
C107 C 0.16604 0.64561 0.23473 0.0
C108 C 0.28223 0.68198 0.27417 0.0
C109 C 0.32531 0.70637 0.20874 0.0
O110 O 0.19192 0.70362 0.23646 0.0
O111 O 0.20171 0.62371 0.2357 0.0
O112 O 0.3252 0.67278 0.2212 0.0
O113 O 0.3061 0.74279 0.21261 0.0
C114 C 0.37256 0.83363 0.24514 0.0
O115 O 0.3134 0.67102 0.26305 0.0
O116 O 0.25522 0.70914 0.26824 0.0
In117 In 0.61048 0.31798 0.57641 0.0
O118 O 0.68408 0.36172 0.59794 0.0
O119 O 0.58813 0.31375 0.60479 0.0
C120 C 0.65574 0.34634 0.54386 0.0
C121 C 0.55776 0.38797 0.57628 0.0
C122 C 0.5777 0.19811 0.57617 0.0
O123 O 0.69117 0.36026 0.55697 0.0
O124 O 0.59886 0.31878 0.54738 0.0
O125 O 0.53822 0.21535 0.57478 0.0
O126 O 0.63269 0.2412 0.5778 0.0
C127 C 0.64323 0.34473 0.60985 0.0
O128 O 0.52596 0.32955 0.57607 0.0
O129 O 0.61556 0.41022 0.57623 0.0
In130 In 0.30431 0.61826 0.91518 0.0
O131 O 0.20815 0.53359 0.91594 0.0
O132 O 0.21665 0.62264 0.91398 0.0
C133 C 0.3904 0.58421 0.91727 0.0
C134 C 0.31397 0.66497 0.94718 0.0
C135 C 0.31973 0.65179 0.88147 0.0
O136 O 0.33336 0.54501 0.91671 0.0
O137 O 0.4032 0.63968 0.91694 0.0
O138 O 0.34178 0.69168 0.89358 0.0
O139 O 0.29093 0.59649 0.88654 0.0
C140 C 0.18124 0.56496 0.91493 0.0
O141 O 0.33656 0.70036 0.93403 0.0
O142 O 0.28864 0.60807 0.94404 0.0
In143 In 0.68939 0.31448 0.23895 0.0
O144 O 0.65784 0.21239 0.24092 0.0
O145 O 0.59008 0.24052 0.24218 0.0
C146 C 0.81153 0.38468 0.23464 0.0
C147 C 0.6878 0.34355 0.27249 0.0
C148 C 0.66289 0.32721 0.20605 0.0
O149 O 0.78534 0.32645 0.2359 0.0
O150 O 0.7758 0.40662 0.23543 0.0
O151 O 0.6576 0.3586 0.21833 0.0
O152 O 0.68061 0.29025 0.21065 0.0
C153 C 0.60134 0.19667 0.24236 0.0
O154 O 0.65968 0.35703 0.26108 0.0
O155 O 0.71524 0.31641 0.26674 0.0
H156 H 0.41115 0.73194 0.96869 0.0
H157 H 0.21318 0.63982 0.96558 0.0
H158 H 0.20531 0.64154 -0.00261 0.0
H159 H 0.25327 0.6481 0.02562 0.0
H160 H 0.45054 0.7352 0.02946 0.0
H161 H 0.4609 0.75782 -0.00205 0.0
C162 C 0.36672 0.71484 0.97504 0.0
C163 C 0.31273 0.68589 0.965 0.0
C164 C 0.36254 0.71397 -0.00655 0.0
C165 C 0.25513 0.66255 0.9732 0.0
C166 C 0.25063 0.66304 0.99136 0.0
C167 C 0.29855 0.67408 0.01961 0.0
C168 C 0.35103 0.68977 0.0296 0.0
C169 C 0.30375 0.68546 0.00158 0.0
C170 C 0.40963 0.72321 0.02189 0.0
C171 C 0.41541 0.73546 0.00387 0.0
H172 H 0.63731 0.34684 0.35345 0.0
H173 H 0.80508 0.33821 0.35455 0.0
H174 H 0.8155 0.35103 0.32304 0.0
H175 H 0.77297 0.3544 0.2951 0.0
H176 H 0.60318 0.35795 0.29229 0.0
H177 H 0.59799 0.35877 0.32449 0.0
C178 C 0.67636 0.34856 0.34673 0.0
C179 C 0.71987 0.34066 0.35626 0.0
C180 C 0.68162 0.35484 0.32834 0.0
C181 C 0.77041 0.3431 0.34747 0.0
C182 C 0.7766 0.35064 0.32945 0.0
C183 C 0.73505 0.35604 0.30151 0.0
C184 C 0.68816 0.35535 0.29143 0.0
C185 C 0.73178 0.3549 0.31976 0.0
C186 C 0.63987 0.35849 0.29985 0.0
C187 C 0.63671 0.35843 0.31823 0.0
H188 H 0.38025 0.74937 0.69152 0.0
H189 H 0.27213 0.55152 0.69248 0.0
H190 H 0.26021 0.54999 0.66046 0.0
H191 H 0.29531 0.60584 0.63191 0.0
H192 H 0.40737 0.80394 0.63223 0.0
H193 H 0.40205 0.80488 0.66401 0.0
C194 C 0.35291 0.706 0.68471 0.0
C195 C 0.32761 0.65068 0.6941 0.0
C196 C 0.3474 0.70573 0.66653 0.0
C197 C 0.29182 0.59464 0.68537 0.0
C198 C 0.28552 0.59386 0.6671 0.0
C199 C 0.3169 0.64906 0.639 0.0
C200 C 0.35221 0.70474 0.62986 0.0
C201 C 0.31511 0.64915 0.65746 0.0
C202 C 0.3805 0.76058 0.63907 0.0
C203 C 0.37764 0.76117 0.65723 0.0
H204 H 0.62271 0.2773 0.01781 0.0
H205 H 0.82121 0.37341 0.01873 0.0
H206 H 0.82479 0.36963 0.98687 0.0
H207 H 0.77271 0.36019 0.95923 0.0
H208 H 0.57497 0.27181 0.95761 0.0
H209 H 0.56907 0.2502 0.98915 0.0
C210 C 0.6664 0.29499 0.01098 0.0
C211 C 0.72168 0.32574 0.02041 0.0
C212 C 0.66807 0.29508 0.99255 0.0
C213 C 0.77827 0.34962 0.01158 0.0
C214 C 0.78032 0.34787 -0.0066 0.0
C215 C 0.72832 0.33413 0.96574 0.0
C216 C 0.6744 0.31758 0.95637 0.0
C217 C 0.72574 0.32389 0.98378 0.0
C218 C 0.61693 0.28431 0.9647 0.0
C219 C 0.61372 0.27266 0.98273 0.0
H220 H 0.36507 0.66967 0.29482 0.0
H221 H 0.18873 0.66119 0.29561 0.0
H222 H 0.18496 0.65369 0.32731 0.0
H223 H 0.23581 0.66109 0.35475 0.0
H224 H 0.41255 0.67144 0.35547 0.0
H225 H 0.41207 0.66591 0.32327 0.0
C226 C 0.32543 0.66487 0.30199 0.0
C227 C 0.27758 0.66671 0.29294 0.0
C228 C 0.32398 0.66168 0.32044 0.0
C229 C 0.22646 0.66065 0.30231 0.0
C230 C 0.22422 0.65642 0.32044 0.0
C231 C 0.27408 0.66161 0.34788 0.0
C232 C 0.32459 0.66772 0.35733 0.0
C233 C 0.27349 0.6589 0.32962 0.0
C234 C 0.37328 0.66703 0.34836 0.0
C235 C 0.37305 0.66415 0.32999 0.0
H236 H 0.61112 0.37337 0.68908 0.0
H237 H 0.73743 0.3049 0.69311 0.0
H238 H 0.75604 0.31734 0.66133 0.0
H239 H 0.72166 0.33148 0.63192 0.0
H240 H 0.59089 0.39511 0.62903 0.0
H241 H 0.58953 0.40218 0.6608 0.0
C242 C 0.64386 0.36257 0.68302 0.0
C243 C 0.67234 0.33764 0.6932 0.0
C244 C 0.65309 0.36869 0.66491 0.0
C245 C 0.71513 0.3243 0.6854 0.0
C246 C 0.72528 0.33092 0.66725 0.0
C247 C 0.69459 0.34869 0.63833 0.0
C248 C 0.65614 0.36249 0.62832 0.0
C249 C 0.69252 0.35076 0.65676 0.0
C250 C 0.62052 0.38404 0.63661 0.0
C251 C 0.61952 0.38784 0.65474 0.0
H252 H 0.32399 0.60867 0.19268 0.0
H253 H 0.36528 0.79545 0.1841 0.0
H254 H 0.38046 0.78638 0.15294 0.0
H255 H 0.37185 0.72237 0.12772 0.0
H256 H 0.32562 0.53383 0.13583 0.0
H257 H 0.32284 0.54656 0.16745 0.0
C258 C 0.33744 0.64758 0.184 0.0
C259 C 0.34314 0.70242 0.19059 0.0
C260 C 0.34448 0.64153 0.16596 0.0
C261 C 0.36012 0.75252 0.17925 0.0
C262 C 0.36872 0.74739 0.16143 0.0
C263 C 0.36192 0.68433 0.13643 0.0
C264 C 0.34845 0.62721 0.12946 0.0
C265 C 0.35935 0.69161 0.15456 0.0
C266 C 0.33578 0.57828 0.14088 0.0
C267 C 0.33412 0.58546 0.15898 0.0
H268 H 0.76422 0.35194 0.46926 0.0
H269 H 0.59517 0.34391 0.45376 0.0
H270 H 0.57161 0.35267 0.48445 0.0
H271 H 0.59478 0.35264 0.51568 0.0
H272 H 0.76505 0.36313 0.53111 0.0
H273 H 0.79318 0.36426 0.5003 0.0
C274 C 0.7225 0.35272 0.47261 0.0
C275 C 0.6809 0.34637 0.45939 0.0
C276 C 0.70961 0.35804 0.49019 0.0
C277 C 0.62764 0.34855 0.46378 0.0
C278 C 0.61412 0.3533 0.48129 0.0
C279 C 0.63842 0.35596 0.51227 0.0
C280 C 0.67754 0.35699 0.52557 0.0
C281 C 0.65409 0.35657 0.49461 0.0
C282 C 0.73429 0.36222 0.52106 0.0
C283 C 0.75013 0.36249 0.50348 0.0
H284 H 0.40889 0.73772 0.80426 0.0
H285 H 0.24848 0.56192 0.79321 0.0
H286 H 0.22269 0.54664 0.82446 0.0
H287 H 0.25041 0.5801 0.85493 0.0
H288 H 0.40912 0.75719 0.86595 0.0
H289 H 0.43079 0.77574 0.83454 0.0
C290 C 0.36803 0.69625 0.80871 0.0
C291 C 0.33098 0.65053 0.79655 0.0
C292 C 0.35342 0.68814 0.8266 0.0
C293 C 0.27767 0.59755 0.80237 0.0
C294 C 0.26311 0.58878 0.82021 0.0
C295 C 0.28943 0.62302 0.85043 0.0
C296 C 0.32865 0.66701 0.86267 0.0
C297 C 0.30133 0.63326 0.83244 0.0
C298 C 0.37844 0.72274 0.85674 0.0
C299 C 0.39094 0.73315 0.83881 0.0
H300 H 0.6746 0.41768 0.12886 0.0
H301 H 0.66581 0.24448 0.11817 0.0
H302 H 0.65014 0.21873 0.14935 0.0
H303 H 0.64918 0.25006 0.17968 0.0
H304 H 0.6592 0.42365 0.19054 0.0
H305 H 0.66315 0.4444 0.15909 0.0
C306 C 0.66869 0.37402 0.13334 0.0
C307 C 0.67223 0.33333 0.12131 0.0
C308 C 0.66006 0.35979 0.15125 0.0
C309 C 0.6636 0.27661 0.12722 0.0
C310 C 0.65481 0.262 0.14503 0.0
C311 C 0.65144 0.29212 0.17516 0.0
C312 C 0.65468 0.3357 0.18736 0.0
C313 C 0.65448 0.30392 0.15716 0.0
C314 C 0.65674 0.38953 0.18137 0.0
C315 C 0.65939 0.40152 0.16342 0.0
H316 H 0.42452 0.66363 0.51893 0.0
H317 H 0.25524 0.66042 0.53192 0.0
H318 H 0.22945 0.65319 0.50081 0.0
H319 H 0.26088 0.6593 0.47004 0.0
H320 H 0.42945 0.66121 0.45699 0.0
H321 H 0.44968 0.65682 0.48815 0.0
C322 C 0.38156 0.6605 0.51494 0.0
C323 C 0.34214 0.66343 0.5276 0.0
C324 C 0.36734 0.65662 0.4971 0.0
C325 C 0.28626 0.65839 0.52237 0.0
C326 C 0.27175 0.65463 0.50461 0.0
C327 C 0.30172 0.65806 0.47403 0.0
C328 C 0.34423 0.66157 0.46134 0.0
C329 C 0.31284 0.65553 0.49188 0.0
C330 C 0.39631 0.65879 0.46658 0.0
C331 C 0.40795 0.65657 0.48436 0.0
H332 H 0.63637 0.27948 0.85811 0.0
H333 H 0.76247 0.47338 0.85022 0.0
H334 H 0.75922 0.45788 0.81862 0.0
H335 H 0.71432 0.39052 0.79306 0.0
H336 H 0.58266 0.19814 0.80093 0.0
H337 H 0.59496 0.21137 0.83261 0.0
C338 C 0.66348 0.31815 0.84946 0.0
C339 C 0.6992 0.37743 0.85644 0.0
C340 C 0.66047 0.30915 0.83127 0.0
C341 C 0.73412 0.42728 0.84511 0.0
C342 C 0.73243 0.41849 0.82705 0.0
C343 C 0.68935 0.35141 0.80174 0.0
C344 C 0.6478 0.29354 0.79477 0.0
C345 C 0.69499 0.35981 0.81995 0.0
C346 C 0.61487 0.24322 0.80609 0.0
C347 C 0.6217 0.25076 0.82418 0.0
H348 H 0.91146 0.38466 0.0747 0.0
H349 H 0.93403 0.56667 0.07724 0.0
H350 H 0.04595 0.61176 0.07857 0.0
H351 H 0.13732 0.59958 0.07849 0.0
H352 H 0.11513 0.4179 0.07498 0.0
H353 H 1.00301 0.3725 0.07455 0.0
C354 C 0.94084 0.4342 0.07564 0.0
C355 C 0.91439 0.47228 0.07593 0.0
C356 C 1.00517 0.45981 0.07618 0.0
C357 C 0.95317 0.53636 0.07701 0.0
C358 C 0.01717 0.56215 0.07776 0.0
C359 C 0.10798 0.55 0.0777 0.0
C360 C 0.13459 0.51213 0.07681 0.0
C361 C 0.04366 0.52434 0.07728 0.0
C362 C 0.09587 0.44805 0.07568 0.0
C363 C 0.03176 0.42209 0.07544 0.0
H364 H 0.64264 0.08416 0.41167 0.0
H365 H 0.50477 0.13875 0.40887 0.0
H366 H 0.42322 0.03112 0.4092 0.0
H367 H 0.39034 0.92066 0.41004 0.0
H368 H 0.52824 0.86604 0.41241 0.0
H369 H 0.60976 0.9737 0.41252 0.0
C370 C 0.59476 0.07246 0.41115 0.0
C371 C 0.58004 0.11961 0.41024 0.0
C372 C 0.54776 0.01015 0.41127 0.0
C373 C 0.51762 0.10352 0.40956 0.0
C374 C 0.47077 0.04185 0.40975 0.0
C375 C 0.43821 0.93237 0.41061 0.0
C376 C 0.45297 0.88521 0.41121 0.0
C377 C 0.4852 0.99467 0.41057 0.0
C378 C 0.51538 0.90129 0.41191 0.0
C379 C 0.5622 0.96297 0.41198 0.0
H380 H 0.60091 0.46869 0.74765 0.0
H381 H 0.41979 0.30854 0.74329 0.0
H382 H 0.37373 0.37457 0.74313 0.0
H383 H 0.38514 0.47784 0.74385 0.0
H384 H 0.5665 0.63796 0.74774 0.0
H385 H 0.61231 0.57181 0.74843 0.0
C386 C 0.5513 0.44814 0.74673 0.0
C387 C 0.51379 0.3837 0.74552 0.0
C388 C 0.52526 0.48641 0.7465 0.0
C389 C 0.44967 0.35793 0.74426 0.0
C390 C 0.42334 0.39569 0.74414 0.0
C391 C 0.43472 0.49832 0.74486 0.0
C392 C 0.47238 0.56283 0.74573 0.0
C393 C 0.46071 0.45999 0.74519 0.0
C394 C 0.5365 0.58853 0.74702 0.0
C395 C 0.5627 0.5507 0.74743 0.0
H396 H 0.4649 0.09674 0.57084 0.0
H397 H 0.65525 0.1529 0.58062 0.0
H398 H 0.63055 0.04572 0.58013 0.0
H399 H 0.55459 0.9355 0.57745 0.0
H400 H 0.36414 0.87916 0.56777 0.0
H401 H 0.38922 0.98651 0.56757 0.0
C402 C 0.50091 0.08546 0.57286 0.0
C403 C 0.56172 0.13275 0.57582 0.0
C404 C 0.48644 0.02357 0.57253 0.0
C405 C 0.60797 0.1174 0.57835 0.0
C406 C 0.59394 0.05607 0.57806 0.0
C407 C 0.5187 0.94678 0.57518 0.0
C408 C 0.45765 0.89939 0.57264 0.0
C409 C 0.53332 0.00871 0.57521 0.0
C410 C 0.41158 0.91475 0.56978 0.0
C411 C 0.42581 0.97618 0.56969 0.0
H412 H 0.37685 0.46974 0.91452 0.0
H413 H 0.51384 0.66131 0.92086 0.0
H414 H 0.59558 0.63539 0.92033 0.0
H415 H 0.62873 0.55854 0.91728 0.0
H416 H 0.49169 0.36718 0.9105 0.0
H417 H 0.40985 0.39274 0.91198 0.0
C418 C 0.42456 0.50572 0.91587 0.0
C419 C 0.43915 0.56731 0.9177 0.0
C420 C 0.47154 0.49059 0.91541 0.0
C421 C 0.50127 0.61347 0.9194 0.0
C422 C 0.54815 0.59874 0.91908 0.0
C423 C 0.58095 0.52248 0.91618 0.0
C424 C 0.56645 0.46112 0.91374 0.0
C425 C 0.53391 0.5375 0.91696 0.0
C426 C 0.50424 0.41487 0.91234 0.0
C427 C 0.45729 0.4294 0.91319 0.0
H428 H 0.10202 0.52093 0.2329 0.0
H429 H 0.07868 0.68008 0.23256 0.0
H430 H 0.96675 0.61303 0.23166 0.0
H431 H 0.87571 0.50935 0.23245 0.0
H432 H 0.89908 0.35023 0.23342 0.0
H433 H 0.01104 0.41724 0.23254 0.0
C434 C 0.07249 0.541 0.2325 0.0
C435 C 0.09862 0.60543 0.23286 0.0
C436 C 0.00826 0.50219 0.23219 0.0
C437 C 0.05972 0.63067 0.23232 0.0
C438 C 0.99573 0.59234 0.23185 0.0
C439 C 0.90527 0.48927 0.23237 0.0
C440 C 0.87912 0.42487 0.23309 0.0
C441 C 0.96952 0.52807 0.23201 0.0
C442 C 0.91805 0.39963 0.23293 0.0
C443 C 0.98205 0.43793 0.23244 0.0
H444 H 0.65364 0.5422 0.06716 0.0
H445 H 0.51917 0.35182 0.05753 0.0
H446 H 0.43677 0.37674 0.05773 0.0
H447 H 0.40182 0.45167 0.06236 0.0
H448 H 0.53653 0.64193 0.07211 0.0
H449 H 0.61937 0.61805 0.0701 0.0
C450 C 0.60639 0.50634 0.06492 0.0
C451 C 0.59263 0.44527 0.06243 0.0
C452 C 0.55897 0.52085 0.0652 0.0
C453 C 0.5311 0.39927 0.05955 0.0
C454 C 0.48381 0.4134 0.0597 0.0
C455 C 0.44933 0.48789 0.06393 0.0
C456 C 0.46281 0.54833 0.0675 0.0
C457 C 0.49703 0.47386 0.0628 0.0
C458 C 0.52471 0.59488 0.06942 0.0
C459 C 0.57226 0.58132 0.06828 0.0
H460 H 0.93474 0.37577 0.41179 0.0
H461 H 0.88055 0.51415 0.41258 0.0
H462 H 0.98831 0.59535 0.41297 0.0
H463 H 0.09855 0.62774 0.41255 0.0
H464 H 0.15298 0.48957 0.41142 0.0
H465 H 0.04517 0.40821 0.41171 0.0
C466 C 0.94658 0.42368 0.41211 0.0
C467 C 0.8996 0.43873 0.41214 0.0
C468 C 0.00891 0.47046 0.41223 0.0
C469 C 0.91575 0.50114 0.41252 0.0
C470 C 0.97745 0.54776 0.41274 0.0
C471 C 0.08677 0.57984 0.41241 0.0
C472 C 0.13381 0.56489 0.41194 0.0
C473 C 0.02449 0.53305 0.4125 0.0
C474 C 0.11773 0.5025 0.41175 0.0
C475 C 0.056 0.4558 0.41192 0.0
H476 H 0.44863 0.0558 0.74188 0.0
H477 H 0.63971 0.11049 0.73361 0.0
H478 H 0.61406 1.00301 0.73448 0.0
H479 H 0.5377 0.89323 0.73839 0.0
H480 H 0.34666 0.83865 0.74673 0.0
H481 H 0.37194 0.94589 0.74509 0.0
C482 C 0.48452 0.04411 0.74013 0.0
C483 C 0.54592 0.0911 0.73769 0.0
C484 C 0.46956 0.98211 0.74079 0.0
C485 C 0.592 0.07522 0.73552 0.0
C486 C 0.57744 0.01373 0.73605 0.0
C487 C 0.50168 0.90487 0.73986 0.0
C488 C 0.4405 0.85803 0.74275 0.0
C489 C 0.51647 0.96678 0.73885 0.0
C490 C 0.39423 0.87382 0.74453 0.0
C491 C 0.40858 0.93519 0.74358 0.0
H492 H 0.40226 0.52218 0.58105 0.0
H493 H 0.58433 0.6824 0.57997 0.0
H494 H 0.62994 0.61608 0.57845 0.0
H495 H 0.6178 0.51275 0.57699 0.0
H496 H 0.43555 0.3527 0.57763 0.0
H497 H 0.39013 0.419 0.57967 0.0
C498 C 0.45196 0.54265 0.58058 0.0
C499 C 0.48992 0.60712 0.58067 0.0
C500 C 0.47771 0.50432 0.57952 0.0
C501 C 0.55417 0.63291 0.57995 0.0
C502 C 0.58022 0.59502 0.57905 0.0
C503 C 0.56811 0.49234 0.57755 0.0
C504 C 0.53004 0.42788 0.57712 0.0
C505 C 0.5424 0.53071 0.57872 0.0
C506 C 0.46581 0.40216 0.57788 0.0
C507 C 0.43985 0.44004 0.57908 0.0
H508 H 0.1156 0.62416 0.91548 0.0
H509 H 0.09479 0.4427 0.91415 0.0
H510 H 0.98274 0.39651 0.91336 0.0
H511 H 0.89111 0.40777 0.9126 0.0
H512 H 0.9114 0.58897 0.91423 0.0
H513 H 0.02356 0.63533 0.9154 0.0
C514 C 0.08654 0.57448 0.91502 0.0
C515 C 0.11345 0.53687 0.91479 0.0
C516 C 0.02223 0.5483 0.91462 0.0
C517 C 0.07521 0.47262 0.91431 0.0
C518 C 0.01118 0.44622 0.91385 0.0
C519 C 0.92003 0.45744 0.91322 0.0
C520 C 0.89303 0.49495 0.91325 0.0
C521 C 0.98426 0.48362 0.91392 0.0
C522 C 0.9311 0.55915 0.91417 0.0
C523 C 0.99518 0.58563 0.91482 0.0
H524 H 0.3604 0.93543 0.24364 0.0
H525 H 0.49546 0.87785 0.24895 0.0
H526 H 0.57822 0.98499 0.24885 0.0
H527 H 0.61275 0.09516 0.24626 0.0
H528 H 0.4778 0.15297 0.2413 0.0
H529 H 0.39474 0.04591 0.24229 0.0
C530 C 0.40791 0.94641 0.24489 0.0
C531 C 0.42173 0.89879 0.24624 0.0
C532 C 0.45542 0.00821 0.24482 0.0
C533 C 0.48353 0.91368 0.24788 0.0
C534 C 0.53098 0.97496 0.24779 0.0
C535 C 0.56515 0.08427 0.24545 0.0
C536 C 0.55149 0.13184 0.24363 0.0
C537 C 0.51753 0.02259 0.24609 0.0
C538 C 0.48958 0.11713 0.2427 0.0
C539 C 0.442 0.05591 0.24324 0.0
loop_
_geom_bond_atom_site_label_1
_geom_bond_atom_site_label_2
_geom_bond_distance
_geom_bond_site_symmetry_2
_ccdc_geom_bond_type
In0 O1 2.294 . S
In0 O2 2.326 . S
In0 O6 2.266 . S
In0 O7 2.326 . S
In0 O8 2.266 . S
In0 O9 2.326 . S
In0 O11 2.294 . S
In0 O12 2.326 . S
O1 In0 2.294 . S
O1 C10 1.240 . S
O2 In0 2.326 . S
O2 C10 1.252 . S
C3 O6 1.252 . S
C3 O7 1.260 . S
C4 O11 1.240 . S
C4 O12 1.252 . S
C5 O8 1.252 . S
C5 O9 1.260 . S
O6 In0 2.266 . S
O6 C3 1.252 . S
O7 In0 2.326 . S
O7 C3 1.260 . S
O8 In0 2.266 . S
O8 C5 1.252 . S
O9 In0 2.326 . S
O9 C5 1.260 . S
C10 O1 1.240 . S
C10 O2 1.252 . S
O11 In0 2.294 . S
O11 C4 1.240 . S
O12 In0 2.326 . S
O12 C4 1.252 . S
In13 O14 2.294 . S
In13 O15 2.326 . S
In13 O19 2.266 . S
In13 O20 2.326 . S
In13 O21 2.266 . S
In13 O22 2.326 . S
In13 O24 2.294 . S
In13 O25 2.326 . S
O14 In13 2.294 . S
O14 C23 1.240 . S
O15 In13 2.326 . S
O15 C23 1.252 . S
C16 O19 1.252 . S
C16 O20 1.260 . S
C17 O24 1.240 . S
C17 O25 1.252 . S
C18 O21 1.252 . S
C18 O22 1.260 . S
O19 In13 2.266 . S
O19 C16 1.252 . S
O20 In13 2.326 . S
O20 C16 1.260 . S
O21 In13 2.266 . S
O21 C18 1.252 . S
O22 In13 2.326 . S
O22 C18 1.260 . S
C23 O14 1.240 . S
C23 O15 1.252 . S
O24 In13 2.294 . S
O24 C17 1.240 . S
O25 In13 2.326 . S
O25 C17 1.252 . S
In26 O27 2.294 . S
In26 O28 2.326 . S
In26 O32 2.266 . S
In26 O33 2.326 . S
In26 O34 2.266 . S
In26 O35 2.326 . S
In26 O37 2.294 . S
In26 O38 2.326 . S
O27 In26 2.294 . S
O27 C36 1.240 . S
O28 In26 2.326 . S
O28 C36 1.252 . S
C29 O32 1.252 . S
C29 O33 1.260 . S
C30 O37 1.240 . S
C30 O38 1.252 . S
C31 O34 1.252 . S
C31 O35 1.260 . S
O32 In26 2.266 . S
O32 C29 1.252 . S
O33 In26 2.326 . S
O33 C29 1.260 . S
O34 In26 2.266 . S
O34 C31 1.252 . S
O35 In26 2.326 . S
O35 C31 1.260 . S
C36 O27 1.240 . S
C36 O28 1.252 . S
O37 In26 2.294 . S
O37 C30 1.240 . S
O38 In26 2.326 . S
O38 C30 1.252 . S
In39 O40 2.294 . S
In39 O41 2.326 . S
In39 O45 2.266 . S
In39 O46 2.326 . S
In39 O47 2.266 . S
In39 O48 2.326 . S
In39 O50 2.294 . S
In39 O51 2.326 . S
O40 In39 2.294 . S
O40 C49 1.240 . S
O41 In39 2.326 . S
O41 C49 1.252 . S
C42 O45 1.252 . S
C42 O46 1.260 . S
C43 O50 1.240 . S
C43 O51 1.252 . S
C44 O47 1.252 . S
C44 O48 1.260 . S
O45 In39 2.266 . S
O45 C42 1.252 . S
O46 In39 2.326 . S
O46 C42 1.260 . S
O47 In39 2.266 . S
O47 C44 1.252 . S
O48 In39 2.326 . S
O48 C44 1.260 . S
C49 O40 1.240 . S
C49 O41 1.252 . S
O50 In39 2.294 . S
O50 C43 1.240 . S
O51 In39 2.326 . S
O51 C43 1.252 . S
In52 O53 2.294 . S
In52 O54 2.326 . S
In52 O58 2.266 . S
In52 O59 2.326 . S
In52 O60 2.266 . S
In52 O61 2.326 . S
In52 O63 2.294 . S
In52 O64 2.326 . S
O53 In52 2.294 . S
O53 C62 1.240 . S
O54 In52 2.326 . S
O54 C62 1.252 . S
C55 O58 1.252 . S
C55 O59 1.260 . S
C56 O63 1.240 . S
C56 O64 1.252 . S
C57 O60 1.252 . S
C57 O61 1.260 . S
O58 In52 2.266 . S
O58 C55 1.252 . S
O59 In52 2.326 . S
O59 C55 1.260 . S
O60 In52 2.266 . S
O60 C57 1.252 . S
O61 In52 2.326 . S
O61 C57 1.260 . S
C62 O53 1.240 . S
C62 O54 1.252 . S
O63 In52 2.294 . S
O63 C56 1.240 . S
O64 In52 2.326 . S
O64 C56 1.252 . S
In65 O66 2.294 . S
In65 O67 2.326 . S
In65 O71 2.266 . S
In65 O72 2.326 . S
In65 O73 2.266 . S
In65 O74 2.326 . S
In65 O76 2.294 . S
In65 O77 2.326 . S
O66 In65 2.294 . S
O66 C75 1.240 . S
O67 In65 2.326 . S
O67 C75 1.252 . S
C68 O71 1.252 . S
C68 O72 1.260 . S
C69 O76 1.240 . S
C69 O77 1.252 . S
C70 O73 1.252 . S
C70 O74 1.260 . S
O71 In65 2.266 . S
O71 C68 1.252 . S
O72 In65 2.326 . S
O72 C68 1.260 . S
O73 In65 2.266 . S
O73 C70 1.252 . S
O74 In65 2.326 . S
O74 C70 1.260 . S
C75 O66 1.240 . S
C75 O67 1.252 . S
O76 In65 2.294 . S
O76 C69 1.240 . S
O77 In65 2.326 . S
O77 C69 1.252 . S
In78 O79 2.294 . S
In78 O80 2.326 . S
In78 O84 2.266 . S
In78 O85 2.326 . S
In78 O86 2.266 . S
In78 O87 2.326 . S
In78 O89 2.294 . S
In78 O90 2.326 . S
O79 In78 2.294 . S
O79 C88 1.240 . S
O80 In78 2.326 . S
O80 C88 1.252 . S
C81 O84 1.252 . S
C81 O85 1.260 . S
C82 O89 1.240 . S
C82 O90 1.252 . S
C83 O86 1.252 . S
C83 O87 1.260 . S
O84 In78 2.266 . S
O84 C81 1.252 . S
O85 In78 2.326 . S
O85 C81 1.260 . S
O86 In78 2.266 . S
O86 C83 1.252 . S
O87 In78 2.326 . S
O87 C83 1.260 . S
C88 O79 1.240 . S
C88 O80 1.252 . S
O89 In78 2.294 . S
O89 C82 1.240 . S
O90 In78 2.326 . S
O90 C82 1.252 . S
In91 O92 2.294 . S
In91 O93 2.326 . S
In91 O97 2.266 . S
In91 O98 2.326 . S
In91 O99 2.266 . S
In91 O100 2.326 . S
In91 O102 2.294 . S
In91 O103 2.326 . S
O92 In91 2.294 . S
O92 C101 1.240 . S
O93 In91 2.326 . S
O93 C101 1.252 . S
C94 O97 1.252 . S
C94 O98 1.260 . S
C95 O102 1.240 . S
C95 O103 1.252 . S
C96 O99 1.252 . S
C96 O100 1.260 . S
O97 In91 2.266 . S
O97 C94 1.252 . S
O98 In91 2.326 . S
O98 C94 1.260 . S
O99 In91 2.266 . S
O99 C96 1.252 . S
O100 In91 2.326 . S
O100 C96 1.260 . S
C101 O92 1.240 . S
C101 O93 1.252 . S
O102 In91 2.294 . S
O102 C95 1.240 . S
O103 In91 2.326 . S
O103 C95 1.252 . S
In104 O105 2.294 . S
In104 O106 2.326 . S
In104 O110 2.266 . S
In104 O111 2.326 . S
In104 O112 2.266 . S
In104 O113 2.326 . S
In104 O115 2.294 . S
In104 O116 2.326 . S
O105 In104 2.294 . S
O105 C114 1.240 . S
O106 In104 2.326 . S
O106 C114 1.252 . S
C107 O110 1.252 . S
C107 O111 1.260 . S
C108 O115 1.240 . S
C108 O116 1.252 . S
C109 O112 1.252 . S
C109 O113 1.260 . S
O110 In104 2.266 . S
O110 C107 1.252 . S
O111 In104 2.326 . S
O111 C107 1.260 . S
O112 In104 2.266 . S
O112 C109 1.252 . S
O113 In104 2.326 . S
O113 C109 1.260 . S
C114 O105 1.240 . S
C114 O106 1.252 . S
O115 In104 2.294 . S
O115 C108 1.240 . S
O116 In104 2.326 . S
O116 C108 1.252 . S
In117 O118 2.294 . S
In117 O119 2.326 . S
In117 O123 2.266 . S
In117 O124 2.326 . S
In117 O125 2.266 . S
In117 O126 2.326 . S
In117 O128 2.294 . S
In117 O129 2.326 . S
O118 In117 2.294 . S
O118 C127 1.240 . S
O119 In117 2.326 . S
O119 C127 1.252 . S
C120 O123 1.252 . S
C120 O124 1.260 . S
C121 O128 1.240 . S
C121 O129 1.252 . S
C122 O125 1.252 . S
C122 O126 1.260 . S
O123 In117 2.266 . S
O123 C120 1.252 . S
O124 In117 2.326 . S
O124 C120 1.260 . S
O125 In117 2.266 . S
O125 C122 1.252 . S
O126 In117 2.326 . S
O126 C122 1.260 . S
C127 O118 1.240 . S
C127 O119 1.252 . S
O128 In117 2.294 . S
O128 C121 1.240 . S
O129 In117 2.326 . S
O129 C121 1.252 . S
In130 O131 2.294 . S
In130 O132 2.326 . S
In130 O136 2.266 . S
In130 O137 2.326 . S
In130 O138 2.266 . S
In130 O139 2.326 . S
In130 O141 2.294 . S
In130 O142 2.326 . S
O131 In130 2.294 . S
O131 C140 1.240 . S
O132 In130 2.326 . S
O132 C140 1.252 . S
C133 O136 1.252 . S
C133 O137 1.260 . S
C134 O141 1.240 . S
C134 O142 1.252 . S
C135 O138 1.252 . S
C135 O139 1.260 . S
O136 In130 2.266 . S
O136 C133 1.252 . S
O137 In130 2.326 . S
O137 C133 1.260 . S
O138 In130 2.266 . S
O138 C135 1.252 . S
O139 In130 2.326 . S
O139 C135 1.260 . S
C140 O131 1.240 . S
C140 O132 1.252 . S
O141 In130 2.294 . S
O141 C134 1.240 . S
O142 In130 2.326 . S
O142 C134 1.252 . S
In143 O144 2.294 . S
In143 O145 2.326 . S
In143 O149 2.266 . S
In143 O150 2.326 . S
In143 O151 2.266 . S
In143 O152 2.326 . S
In143 O154 2.294 . S
In143 O155 2.326 . S
O144 In143 2.294 . S
O144 C153 1.240 . S
O145 In143 2.326 . S
O145 C153 1.252 . S
C146 O149 1.252 . S
C146 O150 1.260 . S
C147 O154 1.240 . S
C147 O155 1.252 . S
C148 O151 1.252 . S
C148 O152 1.260 . S
O149 In143 2.266 . S
O149 C146 1.252 . S
O150 In143 2.326 . S
O150 C146 1.260 . S
O151 In143 2.266 . S
O151 C148 1.252 . S
O152 In143 2.326 . S
O152 C148 1.260 . S
C153 O144 1.240 . S
C153 O145 1.252 . S
O154 In143 2.294 . S
O154 C147 1.240 . S
O155 In143 2.326 . S
O155 C147 1.252 . S
H156 C162 0.930 . S
H157 C165 0.930 . S
H158 C166 0.930 . S
H159 C167 0.930 . S
H160 C170 0.930 . S
H161 C171 0.930 . S
C162 H156 0.930 . S
C162 C163 1.355 . S
C162 C164 1.415 . S
C163 C162 1.355 . S
C163 C165 1.419 . S
C164 C162 1.415 . S
C164 C169 1.425 1_556 S
C164 C171 1.409 1_556 S
C165 H157 0.930 . S
C165 C163 1.419 . S
C165 C166 1.362 . S
C166 H158 0.930 . S
C166 C165 1.362 . S
C166 C169 1.409 1_556 S
C167 H159 0.930 . S
C167 C168 1.355 . S
C167 C169 1.415 . S
C168 C167 1.355 . S
C168 C170 1.419 . S
C169 C164 1.425 1_554 S
C169 C166 1.409 1_554 S
C169 C167 1.415 . S
C170 H160 0.930 . S
C170 C168 1.419 . S
C170 C171 1.362 . S
C171 H161 0.930 . S
C171 C164 1.409 1_554 S
C171 C170 1.362 . S
H172 C178 0.930 . S
H173 C181 0.930 . S
H174 C182 0.930 . S
H175 C183 0.930 . S
H176 C186 0.930 . S
H177 C187 0.930 . S
C178 H172 0.930 . S
C178 C179 1.355 . S
C178 C180 1.415 . S
C179 C178 1.355 . S
C179 C181 1.419 . S
C180 C178 1.415 . S
C180 C185 1.425 . S
C180 C187 1.409 . S
C181 H173 0.930 . S
C181 C179 1.419 . S
C181 C182 1.362 . S
C182 H174 0.930 . S
C182 C181 1.362 . S
C182 C185 1.409 . S
C183 H175 0.930 . S
C183 C184 1.355 . S
C183 C185 1.415 . S
C184 C183 1.355 . S
C184 C186 1.419 . S
C185 C180 1.425 . S
C185 C182 1.409 . S
C185 C183 1.415 . S
C186 H176 0.930 . S
C186 C184 1.419 . S
C186 C187 1.362 . S
C187 H177 0.930 . S
C187 C180 1.409 . S
C187 C186 1.362 . S
H188 C194 0.930 . S
H189 C197 0.930 . S
H190 C198 0.930 . S
H191 C199 0.930 . S
H192 C202 0.930 . S
H193 C203 0.930 . S
C194 H188 0.930 . S
C194 C195 1.355 . S
C194 C196 1.415 . S
C195 C194 1.355 . S
C195 C197 1.419 . S
C196 C194 1.415 . S
C196 C201 1.425 . S
C196 C203 1.409 . S
C197 H189 0.930 . S
C197 C195 1.419 . S
C197 C198 1.362 . S
C198 H190 0.930 . S
C198 C197 1.362 . S
C198 C201 1.409 . S
C199 H191 0.930 . S
C199 C200 1.355 . S
C199 C201 1.415 . S
C200 C199 1.355 . S
C200 C202 1.419 . S
C201 C196 1.425 . S
C201 C198 1.409 . S
C201 C199 1.415 . S
C202 H192 0.930 . S
C202 C200 1.419 . S
C202 C203 1.362 . S
C203 H193 0.930 . S
C203 C196 1.409 . S
C203 C202 1.362 . S
H204 C210 0.930 . S
H205 C213 0.930 . S
H206 C214 0.930 . S
H207 C215 0.930 . S
H208 C218 0.930 . S
H209 C219 0.930 . S
C210 H204 0.930 . S
C210 C211 1.355 . S
C210 C212 1.415 . S
C211 C210 1.355 . S
C211 C213 1.419 . S
C212 C210 1.415 . S
C212 C217 1.425 1_554 S
C212 C219 1.409 1_554 S
C213 H205 0.930 . S
C213 C211 1.419 . S
C213 C214 1.362 . S
C214 H206 0.930 . S
C214 C213 1.362 . S
C214 C217 1.409 1_554 S
C215 H207 0.930 . S
C215 C216 1.355 . S
C215 C217 1.415 . S
C216 C215 1.355 . S
C216 C218 1.419 . S
C217 C212 1.425 1_556 S
C217 C214 1.409 1_556 S
C217 C215 1.415 . S
C218 H208 0.930 . S
C218 C216 1.419 . S
C218 C219 1.362 . S
C219 H209 0.930 . S
C219 C212 1.409 1_556 S
C219 C218 1.362 . S
H220 C226 0.930 . S
H221 C229 0.930 . S
H222 C230 0.930 . S
H223 C231 0.930 . S
H224 C234 0.930 . S
H225 C235 0.930 . S
C226 H220 0.930 . S
C226 C227 1.355 . S
C226 C228 1.415 . S
C227 C226 1.355 . S
C227 C229 1.419 . S
C228 C226 1.415 . S
C228 C233 1.425 . S
C228 C235 1.409 . S
C229 H221 0.930 . S
C229 C227 1.419 . S
C229 C230 1.362 . S
C230 H222 0.930 . S
C230 C229 1.362 . S
C230 C233 1.409 . S
C231 H223 0.930 . S
C231 C232 1.355 . S
C231 C233 1.415 . S
C232 C231 1.355 . S
C232 C234 1.419 . S
C233 C228 1.425 . S
C233 C230 1.409 . S
C233 C231 1.415 . S
C234 H224 0.930 . S
C234 C232 1.419 . S
C234 C235 1.362 . S
C235 H225 0.930 . S
C235 C228 1.409 . S
C235 C234 1.362 . S
H236 C242 0.930 . S
H237 C245 0.930 . S
H238 C246 0.930 . S
H239 C247 0.930 . S
H240 C250 0.930 . S
H241 C251 0.930 . S
C242 H236 0.930 . S
C242 C243 1.355 . S
C242 C244 1.415 . S
C243 C242 1.355 . S
C243 C245 1.419 . S
C244 C242 1.415 . S
C244 C249 1.425 . S
C244 C251 1.409 . S
C245 H237 0.930 . S
C245 C243 1.419 . S
C245 C246 1.362 . S
C246 H238 0.930 . S
C246 C245 1.362 . S
C246 C249 1.409 . S
C247 H239 0.930 . S
C247 C248 1.355 . S
C247 C249 1.415 . S
C248 C247 1.355 . S
C248 C250 1.419 . S
C249 C244 1.425 . S
C249 C246 1.409 . S
C249 C247 1.415 . S
C250 H240 0.930 . S
C250 C248 1.419 . S
C250 C251 1.362 . S
C251 H241 0.930 . S
C251 C244 1.409 . S
C251 C250 1.362 . S
H252 C258 0.930 . S
H253 C261 0.930 . S
H254 C262 0.930 . S
H255 C263 0.930 . S
H256 C266 0.930 . S
H257 C267 0.930 . S
C258 H252 0.930 . S
C258 C259 1.355 . S
C258 C260 1.415 . S
C259 C258 1.355 . S
C259 C261 1.419 . S
C260 C258 1.415 . S
C260 C265 1.425 . S
C260 C267 1.409 . S
C261 H253 0.930 . S
C261 C259 1.419 . S
C261 C262 1.362 . S
C262 H254 0.930 . S
C262 C261 1.362 . S
C262 C265 1.409 . S
C263 H255 0.930 . S
C263 C264 1.355 . S
C263 C265 1.415 . S
C264 C263 1.355 . S
C264 C266 1.419 . S
C265 C260 1.425 . S
C265 C262 1.409 . S
C265 C263 1.415 . S
C266 H256 0.930 . S
C266 C264 1.419 . S
C266 C267 1.362 . S
C267 H257 0.930 . S
C267 C260 1.409 . S
C267 C266 1.362 . S
H268 C274 0.930 . S
H269 C277 0.930 . S
H270 C278 0.930 . S
H271 C279 0.930 . S
H272 C282 0.930 . S
H273 C283 0.930 . S
C274 H268 0.930 . S
C274 C275 1.355 . S
C274 C276 1.415 . S
C275 C274 1.355 . S
C275 C277 1.419 . S
C276 C274 1.415 . S
C276 C281 1.425 . S
C276 C283 1.409 . S
C277 H269 0.930 . S
C277 C275 1.419 . S
C277 C278 1.362 . S
C278 H270 0.930 . S
C278 C277 1.362 . S
C278 C281 1.409 . S
C279 H271 0.930 . S
C279 C280 1.355 . S
C279 C281 1.415 . S
C280 C279 1.355 . S
C280 C282 1.419 . S
C281 C276 1.425 . S
C281 C278 1.409 . S
C281 C279 1.415 . S
C282 H272 0.930 . S
C282 C280 1.419 . S
C282 C283 1.362 . S
C283 H273 0.930 . S
C283 C276 1.409 . S
C283 C282 1.362 . S
H284 C290 0.930 . S
H285 C293 0.930 . S
H286 C294 0.930 . S
H287 C295 0.930 . S
H288 C298 0.930 . S
H289 C299 0.930 . S
C290 H284 0.930 . S
C290 C291 1.355 . S
C290 C292 1.415 . S
C291 C290 1.355 . S
C291 C293 1.419 . S
C292 C290 1.415 . S
C292 C297 1.425 . S
C292 C299 1.409 . S
C293 H285 0.930 . S
C293 C291 1.419 . S
C293 C294 1.362 . S
C294 H286 0.930 . S
C294 C293 1.362 . S
C294 C297 1.409 . S
C295 H287 0.930 . S
C295 C296 1.355 . S
C295 C297 1.415 . S
C296 C295 1.355 . S
C296 C298 1.419 . S
C297 C292 1.425 . S
C297 C294 1.409 . S
C297 C295 1.415 . S
C298 H288 0.930 . S
C298 C296 1.419 . S
C298 C299 1.362 . S
C299 H289 0.930 . S
C299 C292 1.409 . S
C299 C298 1.362 . S
H300 C306 0.930 . S
H301 C309 0.930 . S
H302 C310 0.930 . S
H303 C311 0.930 . S
H304 C314 0.930 . S
H305 C315 0.930 . S
C306 H300 0.930 . S
C306 C307 1.355 . S
C306 C308 1.415 . S
C307 C306 1.355 . S
C307 C309 1.419 . S
C308 C306 1.415 . S
C308 C313 1.425 . S
C308 C315 1.409 . S
C309 H301 0.930 . S
C309 C307 1.419 . S
C309 C310 1.362 . S
C310 H302 0.930 . S
C310 C309 1.362 . S
C310 C313 1.409 . S
C311 H303 0.930 . S
C311 C312 1.355 . S
C311 C313 1.415 . S
C312 C311 1.355 . S
C312 C314 1.419 . S
C313 C308 1.425 . S
C313 C310 1.409 . S
C313 C311 1.415 . S
C314 H304 0.930 . S
C314 C312 1.419 . S
C314 C315 1.362 . S
C315 H305 0.930 . S
C315 C308 1.409 . S
C315 C314 1.362 . S
H316 C322 0.930 . S
H317 C325 0.930 . S
H318 C326 0.930 . S
H319 C327 0.930 . S
H320 C330 0.930 . S
H321 C331 0.930 . S
C322 H316 0.930 . S
C322 C323 1.355 . S
C322 C324 1.415 . S
C323 C322 1.355 . S
C323 C325 1.419 . S
C324 C322 1.415 . S
C324 C329 1.425 . S
C324 C331 1.409 . S
C325 H317 0.930 . S
C325 C323 1.419 . S
C325 C326 1.362 . S
C326 H318 0.930 . S
C326 C325 1.362 . S
C326 C329 1.409 . S
C327 H319 0.930 . S
C327 C328 1.355 . S
C327 C329 1.415 . S
C328 C327 1.355 . S
C328 C330 1.419 . S
C329 C324 1.425 . S
C329 C326 1.409 . S
C329 C327 1.415 . S
C330 H320 0.930 . S
C330 C328 1.419 . S
C330 C331 1.362 . S
C331 H321 0.930 . S
C331 C324 1.409 . S
C331 C330 1.362 . S
H332 C338 0.930 . S
H333 C341 0.930 . S
H334 C342 0.930 . S
H335 C343 0.930 . S
H336 C346 0.930 . S
H337 C347 0.930 . S
C338 H332 0.930 . S
C338 C339 1.355 . S
C338 C340 1.415 . S
C339 C338 1.355 . S
C339 C341 1.419 . S
C340 C338 1.415 . S
C340 C345 1.425 . S
C340 C347 1.409 . S
C341 H333 0.930 . S
C341 C339 1.419 . S
C341 C342 1.362 . S
C342 H334 0.930 . S
C342 C341 1.362 . S
C342 C345 1.409 . S
C343 H335 0.930 . S
C343 C344 1.355 . S
C343 C345 1.415 . S
C344 C343 1.355 . S
C344 C346 1.419 . S
C345 C340 1.425 . S
C345 C342 1.409 . S
C345 C343 1.415 . S
C346 H336 0.930 . S
C346 C344 1.419 . S
C346 C347 1.362 . S
C347 H337 0.930 . S
C347 C340 1.409 . S
C347 C346 1.362 . S
H348 C354 0.930 . S
H349 C357 0.930 . S
H350 C358 0.930 1_455 S
H351 C359 0.930 . S
H352 C362 0.930 . S
H353 C363 0.930 1_655 S
C354 H348 0.930 . S
C354 C355 1.355 . S
C354 C356 1.415 . S
C355 C354 1.355 . S
C355 C357 1.419 . S
C356 C354 1.415 . S
C356 C361 1.425 1_655 S
C356 C363 1.409 1_655 S
C357 H349 0.930 . S
C357 C355 1.419 . S
C357 C358 1.362 . S
C358 H350 0.930 1_655 S
C358 C357 1.362 . S
C358 C361 1.409 1_655 S
C359 H351 0.930 . S
C359 C360 1.355 . S
C359 C361 1.415 . S
C360 C359 1.355 . S
C360 C362 1.419 . S
C361 C356 1.425 1_455 S
C361 C358 1.409 1_455 S
C361 C359 1.415 . S
C362 H352 0.930 . S
C362 C360 1.419 . S
C362 C363 1.362 . S
C363 H353 0.930 1_455 S
C363 C356 1.409 1_455 S
C363 C362 1.362 . S
H364 C370 0.930 . S
H365 C373 0.930 . S
H366 C374 0.930 . S
H367 C375 0.930 . S
H368 C378 0.930 . S
H369 C379 0.930 . S
C370 H364 0.930 . S
C370 C371 1.355 . S
C370 C372 1.415 . S
C371 C370 1.355 . S
C371 C373 1.419 . S
C372 C370 1.415 . S
C372 C377 1.425 1_545 S
C372 C379 1.409 1_545 S
C373 H365 0.930 . S
C373 C371 1.419 . S
C373 C374 1.362 . S
C374 H366 0.930 . S
C374 C373 1.362 . S
C374 C377 1.409 1_545 S
C375 H367 0.930 . S
C375 C376 1.355 . S
C375 C377 1.415 . S
C376 C375 1.355 . S
C376 C378 1.419 . S
C377 C372 1.425 1_565 S
C377 C374 1.409 1_565 S
C377 C375 1.415 . S
C378 H368 0.930 . S
C378 C376 1.419 . S
C378 C379 1.362 . S
C379 H369 0.930 . S
C379 C372 1.409 1_565 S
C379 C378 1.362 . S
H380 C386 0.930 . S
H381 C389 0.930 . S
H382 C390 0.930 . S
H383 C391 0.930 . S
H384 C394 0.930 . S
H385 C395 0.930 . S
C386 H380 0.930 . S
C386 C387 1.355 . S
C386 C388 1.415 . S
C387 C386 1.355 . S
C387 C389 1.419 . S
C388 C386 1.415 . S
C388 C393 1.425 . S
C388 C395 1.409 . S
C389 H381 0.930 . S
C389 C387 1.419 . S
C389 C390 1.362 . S
C390 H382 0.930 . S
C390 C389 1.362 . S
C390 C393 1.409 . S
C391 H383 0.930 . S
C391 C392 1.355 . S
C391 C393 1.415 . S
C392 C391 1.355 . S
C392 C394 1.419 . S
C393 C388 1.425 . S
C393 C390 1.409 . S
C393 C391 1.415 . S
C394 H384 0.930 . S
C394 C392 1.419 . S
C394 C395 1.362 . S
C395 H385 0.930 . S
C395 C388 1.409 . S
C395 C394 1.362 . S
H396 C402 0.930 . S
H397 C405 0.930 . S
H398 C406 0.930 . S
H399 C407 0.930 . S
H400 C410 0.930 . S
H401 C411 0.930 . S
C402 H396 0.930 . S
C402 C403 1.355 . S
C402 C404 1.415 . S
C403 C402 1.355 . S
C403 C405 1.419 . S
C404 C402 1.415 . S
C404 C409 1.425 1_545 S
C404 C411 1.409 1_545 S
C405 H397 0.930 . S
C405 C403 1.419 . S
C405 C406 1.362 . S
C406 H398 0.930 . S
C406 C405 1.362 . S
C406 C409 1.409 1_545 S
C407 H399 0.930 . S
C407 C408 1.355 . S
C407 C409 1.415 . S
C408 C407 1.355 . S
C408 C410 1.419 . S
C409 C404 1.425 1_565 S
C409 C406 1.409 1_565 S
C409 C407 1.415 . S
C410 H400 0.930 . S
C410 C408 1.419 . S
C410 C411 1.362 . S
C411 H401 0.930 . S
C411 C404 1.409 1_565 S
C411 C410 1.362 . S
H412 C418 0.930 . S
H413 C421 0.930 . S
H414 C422 0.930 . S
H415 C423 0.930 . S
H416 C426 0.930 . S
H417 C427 0.930 . S
C418 H412 0.930 . S
C418 C419 1.355 . S
C418 C420 1.415 . S
C419 C418 1.355 . S
C419 C421 1.419 . S
C420 C418 1.415 . S
C420 C425 1.425 . S
C420 C427 1.409 . S
C421 H413 0.930 . S
C421 C419 1.419 . S
C421 C422 1.362 . S
C422 H414 0.930 . S
C422 C421 1.362 . S
C422 C425 1.409 . S
C423 H415 0.930 . S
C423 C424 1.355 . S
C423 C425 1.415 . S
C424 C423 1.355 . S
C424 C426 1.419 . S
C425 C420 1.425 . S
C425 C422 1.409 . S
C425 C423 1.415 . S
C426 H416 0.930 . S
C426 C424 1.419 . S
C426 C427 1.362 . S
C427 H417 0.930 . S
C427 C420 1.409 . S
C427 C426 1.362 . S
H428 C434 0.930 . S
H429 C437 0.930 . S
H430 C438 0.914 1_655 S
H431 C439 0.930 . S
H432 C442 0.930 . S
H433 C443 0.912 1_455 S
C434 H428 0.930 . S
C434 C435 1.355 . S
C434 C436 1.415 . S
C435 C434 1.355 . S
C435 C437 1.419 . S
C436 C434 1.415 . S
C436 C441 1.425 1_455 S
C436 C443 1.413 1_455 S
C437 H429 0.930 . S
C437 C435 1.419 . S
C437 C438 1.375 . S
C438 H430 0.914 1_455 S
C438 C437 1.375 . S
C438 C441 1.412 1_455 S
C439 H431 0.930 . S
C439 C440 1.355 . S
C439 C441 1.415 . S
C440 C439 1.355 . S
C440 C442 1.419 . S
C441 C436 1.425 1_655 S
C441 C438 1.412 1_655 S
C441 C439 1.415 . S
C442 H432 0.930 . S
C442 C440 1.419 . S
C442 C443 1.377 . S
C443 H433 0.912 1_655 S
C443 C436 1.413 1_655 S
C443 C442 1.377 . S
H444 C450 0.930 . S
H445 C453 0.930 . S
H446 C454 0.930 . S
H447 C455 0.930 . S
H448 C458 0.930 . S
H449 C459 0.930 . S
C450 H444 0.930 . S
C450 C451 1.355 . S
C450 C452 1.415 . S
C451 C450 1.355 . S
C451 C453 1.419 . S
C452 C450 1.415 . S
C452 C457 1.425 . S
C452 C459 1.409 . S
C453 H445 0.930 . S
C453 C451 1.419 . S
C453 C454 1.362 . S
C454 H446 0.930 . S
C454 C453 1.362 . S
C454 C457 1.409 . S
C455 H447 0.930 . S
C455 C456 1.355 . S
C455 C457 1.415 . S
C456 C455 1.355 . S
C456 C458 1.419 . S
C457 C452 1.425 . S
C457 C454 1.409 . S
C457 C455 1.415 . S
C458 H448 0.930 . S
C458 C456 1.419 . S
C458 C459 1.362 . S
C459 H449 0.930 . S
C459 C452 1.409 . S
C459 C458 1.362 . S
H460 C466 0.930 . S
H461 C469 0.930 . S
H462 C470 0.930 . S
H463 C471 0.930 . S
H464 C474 0.930 . S
H465 C475 0.930 . S
C466 H460 0.930 . S
C466 C467 1.355 . S
C466 C468 1.404 1_655 S
C467 C466 1.355 . S
C467 C469 1.419 . S
C468 C466 1.404 1_455 S
C468 C473 1.406 1_455 S
C468 C475 1.431 . S
C469 H461 0.930 . S
C469 C467 1.419 . S
C469 C470 1.362 . S
C470 H462 0.930 . S
C470 C469 1.362 . S
C470 C473 1.424 . S
C471 H463 0.930 . S
C471 C472 1.355 . S
C471 C473 1.407 1_455 S
C472 C471 1.355 . S
C472 C474 1.419 . S
C473 C468 1.406 1_655 S
C473 C470 1.424 . S
C473 C471 1.407 1_655 S
C474 H464 0.930 . S
C474 C472 1.419 . S
C474 C475 1.362 . S
C475 H465 0.930 . S
C475 C468 1.431 . S
C475 C474 1.362 . S
H476 C482 0.930 . S
H477 C485 0.930 . S
H478 C486 0.930 . S
H479 C487 0.930 . S
H480 C490 0.930 . S
H481 C491 0.930 . S
C482 H476 0.930 . S
C482 C483 1.355 . S
C482 C484 1.415 . S
C483 C482 1.355 . S
C483 C485 1.419 . S
C484 C482 1.415 . S
C484 C489 1.425 1_545 S
C484 C491 1.409 1_545 S
C485 H477 0.930 . S
C485 C483 1.419 . S
C485 C486 1.362 . S
C486 H478 0.930 . S
C486 C485 1.362 . S
C486 C489 1.409 1_545 S
C487 H479 0.930 . S
C487 C488 1.355 . S
C487 C489 1.415 . S
C488 C487 1.355 . S
C488 C490 1.419 . S
C489 C484 1.425 1_565 S
C489 C486 1.409 1_565 S
C489 C487 1.415 . S
C490 H480 0.930 . S
C490 C488 1.419 . S
C490 C491 1.362 . S
C491 H481 0.930 . S
C491 C484 1.409 1_565 S
C491 C490 1.362 . S
H492 C498 0.930 . S
H493 C501 0.930 . S
H494 C502 0.930 . S
H495 C503 0.930 . S
H496 C506 0.930 . S
H497 C507 0.930 . S
C498 H492 0.930 . S
C498 C499 1.355 . S
C498 C500 1.415 . S
C499 C498 1.355 . S
C499 C501 1.419 . S
C500 C498 1.415 . S
C500 C505 1.425 . S
C500 C507 1.409 . S
C501 H493 0.930 . S
C501 C499 1.419 . S
C501 C502 1.362 . S
C502 H494 0.930 . S
C502 C501 1.362 . S
C502 C505 1.409 . S
C503 H495 0.930 . S
C503 C504 1.355 . S
C503 C505 1.415 . S
C504 C503 1.355 . S
C504 C506 1.419 . S
C505 C500 1.425 . S
C505 C502 1.409 . S
C505 C503 1.415 . S
C506 H496 0.930 . S
C506 C504 1.419 . S
C506 C507 1.362 . S
C507 H497 0.930 . S
C507 C500 1.409 . S
C507 C506 1.362 . S
H508 C514 0.930 . S
H509 C517 0.930 . S
H510 C518 0.930 1_655 S
H511 C519 0.930 . S
H512 C522 0.930 . S
H513 C523 0.930 1_455 S
C514 H508 0.930 . S
C514 C515 1.355 . S
C514 C516 1.415 . S
C515 C514 1.355 . S
C515 C517 1.419 . S
C516 C514 1.415 . S
C516 C521 1.425 1_455 S
C516 C523 1.409 1_455 S
C517 H509 0.930 . S
C517 C515 1.419 . S
C517 C518 1.362 . S
C518 H510 0.930 1_455 S
C518 C517 1.362 . S
C518 C521 1.409 1_455 S
C519 H511 0.930 . S
C519 C520 1.355 . S
C519 C521 1.415 . S
C520 C519 1.355 . S
C520 C522 1.419 . S
C521 C516 1.425 1_655 S
C521 C518 1.409 1_655 S
C521 C519 1.415 . S
C522 H512 0.930 . S
C522 C520 1.419 . S
C522 C523 1.362 . S
C523 H513 0.930 1_655 S
C523 C516 1.409 1_655 S
C523 C522 1.362 . S
H524 C530 0.930 . S
H525 C533 0.930 . S
H526 C534 0.930 . S
H527 C535 0.930 . S
H528 C538 0.930 . S
H529 C539 0.930 . S
C530 H524 0.930 . S
C530 C531 1.355 . S
C530 C532 1.415 . S
C531 C530 1.355 . S
C531 C533 1.419 . S
C532 C530 1.415 . S
C532 C537 1.425 1_565 S
C532 C539 1.409 1_565 S
C533 H525 0.930 . S
C533 C531 1.419 . S
C533 C534 1.362 . S
C534 H526 0.930 . S
C534 C533 1.362 . S
C534 C537 1.409 1_565 S
C535 H527 0.930 . S
C535 C536 1.355 . S
C535 C537 1.415 . S
C536 C535 1.355 . S
C536 C538 1.419 . S
C537 C532 1.425 1_545 S
C537 C534 1.409 1_545 S
C537 C535 1.415 . S
C538 H528 0.930 . S
C538 C536 1.419 . S
C538 C539 1.362 . S
C539 H529 0.930 . S
C539 C532 1.409 1_545 S
C539 C538 1.362 . S
C163 C134 1.360 . S
C168 C10 1.386 . S
C179 C17 1.355 . S
C184 C147 1.388 . S
C195 C36 1.373 . S
C200 C82 1.343 . S
C211 C49 1.342 . S
C216 C95 1.374 . S
C227 C108 1.341 . S
C232 C56 1.384 . S
C243 C69 1.389 . S
C248 C127 1.350 . S
C259 C109 1.356 . S
C264 C3 1.339 . S
C275 C18 1.411 . S
C280 C120 1.406 . S
C291 C29 1.356 . S
C296 C135 1.377 . S
C307 C42 1.378 . S
C312 C148 1.397 . S
C323 C83 1.377 . S
C328 C57 1.396 . S
C339 C96 1.336 . S
C344 C70 1.331 . S
C355 C44 1.273 . S
C360 C5 1.282 . S
C371 C16 1.242 . S
C376 C55 1.236 . S
C387 C68 1.258 . S
C392 C31 1.272 . S
C403 C122 1.245 . S
C408 C81 1.237 . S
C419 C133 1.237 . S
C424 C94 1.246 . S
C435 C107 1.284 . S
C440 C146 1.280 . S
C451 C43 1.587 . S
C456 C4 1.592 . S
C467 C23 1.580 . S
C472 C62 1.579 . S
C483 C75 1.591 . S
C488 C30 1.587 . S
C499 C88 1.607 . S
C504 C121 1.609 . S
C515 C140 1.609 . S
C520 C101 1.609 . S
C531 C114 1.586 . S
C536 C153 1.590 . S
