# Generated by pormake.
# Topology smm, (6)-cn, num edge types: 1
# Building blocks:
#     Node 0, Type 0, BuildingBlock: CUWYAW_clean_sbu_0, # of connection points: 6
#     Node 1, Type 0, BuildingBlock: CUWYAW_clean_sbu_0, # of connection points: 6
#     Node 2, Type 0, BuildingBlock: CUWYAW_clean_sbu_0, # of connection points: 6
#     Node 3, Type 0, BuildingBlock: CUWYAW_clean_sbu_0, # of connection points: 6
#     Node 4, Type 0, BuildingBlock: CUWYAW_clean_sbu_0, # of connection points: 6
#     Node 5, Type 0, BuildingBlock: CUWYAW_clean_sbu_0, # of connection points: 6
#     Node 6, Type 0, BuildingBlock: CUWYAW_clean_sbu_0, # of connection points: 6
#     Node 7, Type 0, BuildingBlock: CUWYAW_clean_sbu_0, # of connection points: 6
#     Node 8, Type 0, BuildingBlock: CUWYAW_clean_sbu_0, # of connection points: 6
#     Edge 9, Type (0, 0), BuildingBlock: XIVTED_clean_linker_0, # of connection points: 2
#     Edge 10, Type (0, 0), BuildingBlock: XIVTED_clean_linker_0, # of connection points: 2
#     Edge 11, Type (0, 0), BuildingBlock: XIVTED_clean_linker_0, # of connection points: 2
#     Edge 12, Type (0, 0), BuildingBlock: XIVTED_clean_linker_0, # of connection points: 2
#     Edge 13, Type (0, 0), BuildingBlock: XIVTED_clean_linker_0, # of connection points: 2
#     Edge 14, Type (0, 0), BuildingBlock: XIVTED_clean_linker_0, # of connection points: 2
#     Edge 15, Type (0, 0), BuildingBlock: XIVTED_clean_linker_0, # of connection points: 2
#     Edge 16, Type (0, 0), BuildingBlock: XIVTED_clean_linker_0, # of connection points: 2
#     Edge 17, Type (0, 0), BuildingBlock: XIVTED_clean_linker_0, # of connection points: 2
#     Edge 18, Type (0, 0), BuildingBlock: XIVTED_clean_linker_0, # of connection points: 2
#     Edge 19, Type (0, 0), BuildingBlock: XIVTED_clean_linker_0, # of connection points: 2
#     Edge 20, Type (0, 0), BuildingBlock: XIVTED_clean_linker_0, # of connection points: 2
#     Edge 21, Type (0, 0), BuildingBlock: XIVTED_clean_linker_0, # of connection points: 2
#     Edge 22, Type (0, 0), BuildingBlock: XIVTED_clean_linker_0, # of connection points: 2
#     Edge 23, Type (0, 0), BuildingBlock: XIVTED_clean_linker_0, # of connection points: 2
#     Edge 24, Type (0, 0), BuildingBlock: XIVTED_clean_linker_0, # of connection points: 2
#     Edge 25, Type (0, 0), BuildingBlock: XIVTED_clean_linker_0, # of connection points: 2
#     Edge 26, Type (0, 0), BuildingBlock: XIVTED_clean_linker_0, # of connection points: 2
#     Edge 27, Type (0, 0), BuildingBlock: XIVTED_clean_linker_0, # of connection points: 2
#     Edge 28, Type (0, 0), BuildingBlock: XIVTED_clean_linker_0, # of connection points: 2
#     Edge 29, Type (0, 0), BuildingBlock: XIVTED_clean_linker_0, # of connection points: 2
#     Edge 30, Type (0, 0), BuildingBlock: XIVTED_clean_linker_0, # of connection points: 2
#     Edge 31, Type (0, 0), BuildingBlock: XIVTED_clean_linker_0, # of connection points: 2
#     Edge 32, Type (0, 0), BuildingBlock: XIVTED_clean_linker_0, # of connection points: 2
#     Edge 33, Type (0, 0), BuildingBlock: XIVTED_clean_linker_0, # of connection points: 2
#     Edge 34, Type (0, 0), BuildingBlock: XIVTED_clean_linker_0, # of connection points: 2
#     Edge 35, Type (0, 0), BuildingBlock: XIVTED_clean_linker_0, # of connection points: 2
# Relax obj value: 0.027
# Max RMSD: 0.101
# Mean RMSD: 0.101
data_MOF--net-smm--node1-CUWYAW_clean_sbu_0--edge1-XIVTED_clean_linker_0
_symmetry_space_group_name_H-M    P1
_symmetry_Int_Tables_number       1
_symmetry_cell_setting            triclinic
loop_
_symmetry_equiv_pos_as_xyz
'x, y, z'
_cell_length_a     71.082292
_cell_length_b     71.115601
_cell_length_c     14.451974
_cell_angle_alpha  90.087193
_cell_angle_beta   89.94182
_cell_angle_gamma 119.97989
loop_
_atom_site_label
_atom_site_type_symbol
_atom_site_fract_x
_atom_site_fract_y
_atom_site_fract_z
_atom_type_partial_charge
C0 C 0.09076 0.18853 0.88219 0.0
Eu1 Eu 0.0613 0.19635 0.95007 0.0
C2 C 0.09917 0.17352 0.89577 0.0
C3 C 0.12129 0.18111 0.88053 0.0
C4 C 0.12992 0.16745 0.89397 0.0
C5 C 0.11658 0.14584 0.9229 0.0
C6 C 0.09433 0.13823 0.9378 0.0
C7 C 0.08571 0.15198 0.92471 0.0
C8 C 0.0542 0.19857 0.13318 0.0
C9 C 1.01443 0.15167 0.97357 0.0
C10 C 0.99247 0.20689 0.07941 0.0
Eu11 Eu 1.02061 0.19913 -0.0027 0.0
C12 C 0.98606 0.22356 0.09451 0.0
C13 C 0.9761 0.22919 0.02429 0.0
C14 C 0.96766 0.24285 0.04334 0.0
C15 C 0.96894 0.25118 0.13301 0.0
C16 C 0.97959 0.24615 0.20229 0.0
C17 C 0.98796 0.23243 0.18331 0.0
C18 C 1.02673 0.19553 0.81461 0.0
C19 C 0.06643 0.24373 0.95269 0.0
O20 O 0.07121 0.18049 0.84741 0.0
O21 O 0.09456 0.2024 0.949 0.0
O22 O 0.07338 0.20727 0.09675 0.0
O23 O 0.04002 0.18795 0.07332 0.0
O24 O 0.03418 0.16121 0.93729 0.0
O25 O 1.00657 0.163 0.014 0.0
O26 O 1.0104 0.21001 0.11883 0.0
O27 O 0.98944 0.19803 -0.00279 0.0
O28 O 1.00763 0.18755 0.85209 0.0
O29 O 0.04126 0.20653 0.87283 0.0
O30 O 0.04746 0.23491 -0.00377 0.0
O31 O 0.07366 0.2315 0.91579 0.0
H32 H 0.13194 0.19767 0.85816 0.0
H33 H 0.14703 0.17377 0.88052 0.0
H34 H 0.08365 0.12176 0.96096 0.0
H35 H 0.0686 0.14583 0.93758 0.0
H36 H 0.97429 0.22261 0.95513 0.0
H37 H 0.95983 0.24664 -0.01198 0.0
H38 H 0.98067 0.25206 0.2723 0.0
H39 H 0.99531 0.22817 0.2391 0.0
C40 C 0.87857 0.92074 0.87767 0.0
Eu41 Eu 0.86964 0.88315 0.94492 0.0
C42 C 0.89415 0.94406 0.89301 0.0
C43 C 0.89687 0.95369 0.98071 0.0
C44 C 0.91081 0.97602 -0.00763 0.0
C45 C 0.92243 0.98919 0.91681 0.0
C46 C 0.91999 0.97942 0.82956 0.0
C47 C 0.90594 0.95711 0.81782 0.0
C48 C 0.86673 0.87377 0.12807 0.0
C49 C 0.91415 0.88068 0.97128 0.0
C50 C 0.8582 0.80362 0.07351 0.0
Eu51 Eu 0.86645 0.83969 -0.00803 0.0
C52 C 0.8413 0.78065 0.08903 0.0
C53 C 0.83627 0.76475 0.0206 0.0
C54 C 0.82248 0.74275 0.04053 0.0
C55 C 0.81343 0.7361 0.12937 0.0
C56 C 0.81785 0.75208 0.19671 0.0
C57 C 0.8317 0.77407 0.17686 0.0
C58 C 0.87074 0.84952 0.8093 0.0
C59 C 0.8221 0.84128 0.94508 0.0
O60 O 0.88633 0.90899 0.84283 0.0
O61 O 0.86403 0.91053 0.94212 0.0
O62 O 0.85821 0.8843 0.09058 0.0
O63 O 0.87755 0.87017 0.06918 0.0
O64 O 0.90478 0.89104 0.93507 0.0
O65 O 0.90262 0.86138 0.01024 0.0
O66 O 0.8555 0.81867 0.1134 0.0
O67 O 0.8669 0.80928 -0.00897 0.0
O68 O 0.87863 0.83845 0.84786 0.0
O69 O 0.85951 0.85303 0.86653 0.0
O70 O 0.83071 0.83098 -0.01116 0.0
O71 O 0.83453 0.86074 0.90883 0.0
H72 H 0.8881 0.94403 0.04023 0.0
H73 H 0.91254 0.98298 0.0607 0.0
H74 H 0.92852 0.9891 0.76973 0.0
H75 H 0.90405 0.95008 0.7495 0.0
H76 H 0.84344 0.7692 0.9523 0.0
H77 H 0.81917 0.7309 -0.01336 0.0
H78 H 0.81138 0.74755 0.26609 0.0
H79 H 0.83549 0.78591 0.23142 0.0
C80 C 0.14519 0.97446 0.88361 0.0
Eu81 Eu 0.18226 1.0042 0.95156 0.0
C82 C 0.12172 0.96585 0.89695 0.0
C83 C 0.10735 0.94376 0.88057 0.0
C84 C 0.08503 0.93495 0.89384 0.0
C85 C 0.07657 0.94808 0.92373 0.0
C86 C 0.09106 0.9703 0.93991 0.0
C87 C 0.11346 0.9791 0.92699 0.0
C88 C 0.19156 1.01138 0.13454 0.0
C89 C 0.18391 0.05086 0.97562 0.0
C90 C 0.26143 0.07353 0.07944 0.0
Eu91 Eu 0.22551 0.04511 -0.00156 0.0
C92 C 0.28453 0.07995 0.09434 0.0
C93 C 0.30026 0.09073 0.02524 0.0
C94 C 0.32234 0.09908 0.0443 0.0
C95 C 0.32925 0.09693 0.13291 0.0
C96 C 0.31345 0.08552 0.20101 0.0
C97 C 0.29137 0.07723 0.18204 0.0
C98 C 0.2158 0.03882 0.81587 0.0
C99 C 0.22471 0.99942 0.95516 0.0
O100 O 0.15654 0.99399 0.84863 0.0
O101 O 0.15529 0.97087 0.95075 0.0
O102 O 0.18121 0.9922 0.09811 0.0
O103 O 0.19498 0.02552 0.0748 0.0
O104 O 0.17378 0.03105 0.93983 0.0
O105 O 0.20321 0.05893 0.01516 0.0
O106 O 0.24662 0.05575 0.11973 0.0
O107 O 0.25555 0.0763 -0.003 0.0
O108 O 0.2267 0.05795 0.85332 0.0
O109 O 0.21245 0.02437 0.87408 0.0
O110 O 0.23469 1.01845 -0.00177 0.0
O111 O 0.20527 0.99202 0.91796 0.0
H112 H 0.11342 0.93328 0.8574 0.0
H113 H 0.07436 0.91787 0.87943 0.0
H114 H 0.08512 0.98082 0.96386 0.0
H115 H 0.1243 0.99618 0.94082 0.0
H116 H 0.29561 0.09322 0.95701 0.0
H117 H 0.33404 0.10751 -0.01018 0.0
H118 H 0.31817 0.08377 0.27026 0.0
H119 H 0.27969 0.06926 0.2371 0.0
C120 C 0.75748 0.52207 0.21712 0.0
Eu121 Eu 0.72789 0.52966 0.28526 0.0
C122 C 0.76587 0.50704 0.23067 0.0
C123 C 0.78796 0.51457 0.2152 0.0
C124 C 0.79656 0.50089 0.22884 0.0
C125 C 0.78321 0.47932 0.25821 0.0
C126 C 0.76097 0.47177 0.27329 0.0
C127 C 0.75239 0.48554 0.26002 0.0
C128 C 0.72127 0.53229 0.46872 0.0
C129 C 0.68158 0.48473 0.31171 0.0
C130 C 0.65824 0.53853 0.41578 0.0
Eu131 Eu 0.68714 0.53196 0.3334 0.0
C132 C 0.6498 0.55356 0.4282 0.0
C133 C 0.66347 0.57616 0.43489 0.0
C134 C 0.65468 0.58966 0.45214 0.0
C135 C 0.63209 0.58077 0.46263 0.0
C136 C 0.61858 0.55813 0.45525 0.0
C137 C 0.62734 0.54474 0.43819 0.0
C138 C 0.69286 0.52816 0.15022 0.0
C139 C 0.73254 0.57684 0.28724 0.0
O140 O 0.73796 0.51405 0.18209 0.0
O141 O 0.7612 0.53586 0.28419 0.0
O142 O 0.74032 0.54114 0.43101 0.0
O143 O 0.70693 0.52131 0.4099 0.0
O144 O 0.70111 0.49438 0.27344 0.0
O145 O 0.67382 0.49602 0.35324 0.0
O146 O 0.67722 0.54397 0.45167 0.0
O147 O 0.65493 0.52873 0.33573 0.0
O148 O 0.67388 0.52006 0.18884 0.0
O149 O 0.7075 0.53941 0.20764 0.0
O150 O 0.71353 0.5679 0.33048 0.0
O151 O 0.73996 0.56473 0.25077 0.0
H152 H 0.79862 0.53111 0.19253 0.0
H153 H 0.81366 0.50716 0.21527 0.0
H154 H 0.75028 0.45532 0.2968 0.0
H155 H 0.73529 0.47944 0.27311 0.0
H156 H 0.68089 0.58334 0.42746 0.0
H157 H 0.66553 0.60703 0.45659 0.0
H158 H 0.60118 0.55063 0.46459 0.0
H159 H 0.61653 0.52734 0.4342 0.0
C160 C 0.54543 0.2539 0.21433 0.0
Eu161 Eu 0.53655 0.21633 0.28154 0.0
C162 C 0.56106 0.27721 0.22984 0.0
C163 C 0.56392 0.28675 0.3178 0.0
C164 C 0.57793 0.30907 0.32975 0.0
C165 C 0.58949 0.32229 0.25423 0.0
C166 C 0.5869 0.3126 0.16671 0.0
C167 C 0.57278 0.29031 0.15467 0.0
C168 C 0.53377 0.20703 0.46474 0.0
C169 C 0.58118 0.21404 0.30779 0.0
C170 C 0.52546 0.13691 0.40979 0.0
Eu171 Eu 0.53355 0.17297 0.32869 0.0
C172 C 0.50868 0.11387 0.42478 0.0
C173 C 0.50369 0.0981 0.35578 0.0
C174 C 0.48997 0.07605 0.37512 0.0
C175 C 0.48097 0.06922 0.46392 0.0
C176 C 0.48538 0.08508 0.53188 0.0
C177 C 0.49915 0.10712 0.51262 0.0
C178 C 0.53767 0.18272 0.14595 0.0
C179 C 0.48907 0.17444 0.28299 0.0
O180 O 0.55315 0.24213 0.17924 0.0
O181 O 0.53092 0.24369 0.27887 0.0
O182 O 0.52518 0.21749 0.42726 0.0
O183 O 0.5446 0.20345 0.40584 0.0
O184 O 0.57174 0.22432 0.2714 0.0
O185 O 0.5697 0.19477 0.34704 0.0
O186 O 0.52258 0.15183 0.44976 0.0
O187 O 0.53425 0.1427 0.32751 0.0
O188 O 0.54569 0.17175 0.18447 0.0
O189 O 0.52644 0.18619 0.20326 0.0
O190 O 0.49781 0.16422 0.32643 0.0
O191 O 0.50138 0.19387 0.24631 0.0
H192 H 0.55521 0.27705 0.37731 0.0
H193 H 0.57976 0.31596 0.39828 0.0
H194 H 0.59538 0.32233 0.1069 0.0
H195 H 0.5708 0.28335 0.08618 0.0
H196 H 0.51081 0.10268 0.28745 0.0
H197 H 0.48667 0.0643 0.32076 0.0
H198 H 0.47894 0.08042 0.60125 0.0
H199 H 0.50292 0.11885 0.56759 0.0
C200 C 0.81233 0.30812 0.2208 0.0
Eu201 Eu 0.84932 0.33803 0.2887 0.0
C202 C 0.78884 0.29947 0.23391 0.0
C203 C 0.7745 0.27737 0.2175 0.0
C204 C 0.75217 0.26853 0.2305 0.0
C205 C 0.74366 0.28164 0.26015 0.0
C206 C 0.75812 0.30387 0.27634 0.0
C207 C 0.78053 0.31269 0.26369 0.0
C208 C 0.85864 0.34525 0.47169 0.0
C209 C 0.85048 0.38435 0.31346 0.0
C210 C 0.92794 0.40827 0.41685 0.0
Eu211 Eu 0.89244 0.37916 0.33566 0.0
C212 C 0.95142 0.41657 0.42866 0.0
C213 C 0.96531 0.43907 0.43424 0.0
C214 C 0.98748 0.44773 0.4507 0.0
C215 C 0.99636 0.43408 0.46195 0.0
C216 C 0.9824 0.41145 0.45578 0.0
C217 C 0.9601 0.40275 0.43911 0.0
C218 C 0.88281 0.3728 0.15293 0.0
C219 C 0.89211 0.33372 0.29195 0.0
O220 O 0.82365 0.32761 0.18545 0.0
O221 O 0.82245 0.30464 0.28827 0.0
O222 O 0.84836 0.32606 0.43524 0.0
O223 O 0.86196 0.35937 0.41201 0.0
O224 O 0.84058 0.36467 0.27653 0.0
O225 O 0.86965 0.39237 0.35406 0.0
O226 O 0.91435 0.38947 0.4539 0.0
O227 O 0.92141 0.41135 0.33654 0.0
O228 O 0.89375 0.39193 0.19024 0.0
O229 O 0.87948 0.35839 0.21127 0.0
O230 O 0.90208 0.35282 0.33452 0.0
O231 O 0.87258 0.32612 0.25539 0.0
H232 H 0.78061 0.2669 0.19452 0.0
H233 H 0.74152 0.25144 0.21609 0.0
H234 H 0.75214 0.31437 0.30011 0.0
H235 H 0.79135 0.32978 0.27753 0.0
H236 H 0.95893 0.45001 0.42728 0.0
H237 H 0.99759 0.46518 0.45662 0.0
H238 H 0.98871 0.40047 0.46324 0.0
H239 H 0.94968 0.3853 0.4351 0.0
C240 C 0.42353 0.8544 0.54654 0.0
Eu241 Eu 0.39418 0.86228 0.61512 0.0
C242 C 0.43193 0.83941 0.56013 0.0
C243 C 0.4187 0.81822 0.59351 0.0
C244 C 0.42734 0.8045 0.60704 0.0
C245 C 0.44938 0.81182 0.58822 0.0
C246 C 0.46248 0.83307 0.55477 0.0
C247 C 0.45383 0.84669 0.54086 0.0
C248 C 0.38765 0.8651 0.79846 0.0
C249 C 0.34746 0.81759 0.6421 0.0
C250 C 0.32559 0.87299 0.74464 0.0
Eu251 Eu 0.35372 0.86515 0.66291 0.0
C252 C 0.31909 0.8896 0.75944 0.0
C253 C 0.30907 0.89512 0.68908 0.0
C254 C 0.30052 0.90869 0.70793 0.0
C255 C 0.30174 0.91702 0.79753 0.0
C256 C 0.31245 0.91211 0.86694 0.0
C257 C 0.32094 0.89848 0.84816 0.0
C258 C 0.35937 0.86107 0.48001 0.0
C259 C 0.39946 0.90968 0.61708 0.0
O260 O 0.40393 0.84631 0.51232 0.0
O261 O 0.42741 0.86831 0.61325 0.0
O262 O 0.4067 0.87374 0.76077 0.0
O263 O 0.37327 0.85422 0.73967 0.0
O264 O 0.36716 0.827 0.60534 0.0
O265 O 0.33967 0.82909 0.68147 0.0
O266 O 0.34354 0.87618 0.78407 0.0
O267 O 0.32255 0.86405 0.66262 0.0
O268 O 0.34039 0.85303 0.51869 0.0
O269 O 0.37406 0.87231 0.53728 0.0
O270 O 0.38052 0.90091 0.66074 0.0
O271 O 0.40662 0.89741 0.58018 0.0
H272 H 0.40177 0.81234 0.60957 0.0
H273 H 0.41686 0.78831 0.6337 0.0
H274 H 0.47942 0.83913 0.53828 0.0
H275 H 0.46429 0.86298 0.51509 0.0
H276 H 0.3073 0.88852 0.61999 0.0
H277 H 0.29264 0.91239 0.65252 0.0
H278 H 0.31348 0.91803 0.93689 0.0
H279 H 0.32833 0.8943 0.90405 0.0
C280 C 0.21061 0.58679 0.54901 0.0
Eu281 Eu 0.20297 0.54965 0.61708 0.0
C282 C 0.22578 0.61019 0.56196 0.0
C283 C 0.24696 0.61802 0.59539 0.0
C284 C 0.2609 0.64037 0.6079 0.0
C285 C 0.25383 0.65523 0.58792 0.0
C286 C 0.23257 0.6472 0.55453 0.0
C287 C 0.21873 0.62492 0.54168 0.0
C288 C 0.2001 0.54024 0.80028 0.0
C289 C 0.24787 0.54817 0.64492 0.0
C290 C 0.19385 0.47099 0.7458 0.0
Eu291 Eu 0.2005 0.50652 0.66442 0.0
C292 C 0.17877 0.44751 0.7576 0.0
C293 C 0.1875 0.43371 0.76216 0.0
C294 C 0.17414 0.41157 0.77918 0.0
C295 C 0.15164 0.40263 0.79201 0.0
C296 C 0.14284 0.4165 0.78671 0.0
C297 C 0.15629 0.43877 0.76949 0.0
C298 C 0.20449 0.51619 0.48147 0.0
C299 C 0.15569 0.50711 0.61772 0.0
O300 O 0.21849 0.57519 0.51362 0.0
O301 O 0.19699 0.57689 0.61669 0.0
O302 O 0.19131 0.55049 0.76264 0.0
O303 O 0.21113 0.53691 0.74155 0.0
O304 O 0.23835 0.55822 0.60706 0.0
O305 O 0.23643 0.52902 0.68514 0.0
O306 O 0.18845 0.48453 0.7822 0.0
O307 O 0.20368 0.47752 0.6659 0.0
O308 O 0.21252 0.50524 0.5199 0.0
O309 O 0.19322 0.51957 0.5389 0.0
O310 O 0.16456 0.49703 0.66129 0.0
O311 O 0.16788 0.52665 0.58168 0.0
H312 H 0.25267 0.60688 0.6122 0.0
H313 H 0.27708 0.64598 0.63458 0.0
H314 H 0.22668 0.65816 0.53717 0.0
H315 H 0.20244 0.61919 0.51582 0.0
H316 H 0.20481 0.44015 0.75414 0.0
H317 H 0.18159 0.40153 0.78441 0.0
H318 H 0.12557 0.41013 0.7954 0.0
H319 H 0.14918 0.44913 0.76631 0.0
C320 C 0.47857 0.64111 0.55007 0.0
Eu321 Eu 0.51566 0.6708 0.61808 0.0
C322 C 0.45519 0.63304 0.56262 0.0
C323 C 0.44748 0.64653 0.59565 0.0
C324 C 0.42514 0.63827 0.60814 0.0
C325 C 0.41018 0.61635 0.5886 0.0
C326 C 0.41808 0.60298 0.55553 0.0
C327 C 0.44034 0.61126 0.54267 0.0
C328 C 0.52505 0.67798 0.801 0.0
C329 C 0.51691 0.71714 0.64314 0.0
C330 C 0.59416 0.74095 0.74713 0.0
Eu331 Eu 0.55883 0.71186 0.66499 0.0
C332 C 0.61759 0.74934 0.76029 0.0
C333 C 0.62661 0.73571 0.76236 0.0
C334 C 0.64887 0.74439 0.77993 0.0
C335 C 0.66242 0.76683 0.79535 0.0
C336 C 0.65318 0.7803 0.79264 0.0
C337 C 0.63106 0.77165 0.77523 0.0
C338 C 0.54915 0.70558 0.48231 0.0
C339 C 0.55845 0.66641 0.62028 0.0
O340 O 0.49024 0.66044 0.51373 0.0
O341 O 0.48842 0.6376 0.61859 0.0
O342 O 0.51478 0.65879 0.7645 0.0
O343 O 0.52836 0.69211 0.74136 0.0
O344 O 0.50694 0.69744 0.60647 0.0
O345 O 0.53613 0.72517 0.68327 0.0
O346 O 0.58058 0.72209 0.78372 0.0
O347 O 0.58783 0.74402 0.66633 0.0
O348 O 0.56016 0.72469 0.51965 0.0
O349 O 0.5458 0.69114 0.54059 0.0
O350 O 0.56851 0.68553 0.66275 0.0
O351 O 0.53882 0.65881 0.58454 0.0
H352 H 0.4587 0.66338 0.61226 0.0
H353 H 0.41963 0.64896 0.63456 0.0
H354 H 0.40703 0.58612 0.53853 0.0
H355 H 0.44599 0.6006 0.51715 0.0
H356 H 0.61648 0.71841 0.75102 0.0
H357 H 0.65548 0.73358 0.78072 0.0
H358 H 0.66296 0.79756 0.80584 0.0
H359 H 0.62437 0.78241 0.77476 0.0
H360 H 0.05744 0.27534 0.01248 0.0
H361 H 0.15413 0.36873 0.71497 0.0
H362 H 0.10319 0.26626 0.84906 0.0
H363 H 0.11739 0.38251 0.91453 0.0
H364 H 0.13331 0.33047 0.75609 0.0
H365 H 0.07724 0.31408 0.97223 0.0
C366 C 0.07166 0.28145 0.9686 0.0
C367 C 0.07863 0.26744 0.93421 0.0
C368 C 0.12975 0.34182 0.79106 0.0
C369 C 0.10116 0.31165 0.88718 0.0
C370 C 0.14171 0.36374 0.76773 0.0
C371 C 0.13773 0.379 0.81201 0.0
C372 C 0.11352 0.33488 0.85912 0.0
C373 C 0.12098 0.37135 0.87817 0.0
C374 C 0.08292 0.30356 0.94557 0.0
C375 C 0.09715 0.27633 0.87747 0.0
N376 N 0.10954 0.34984 0.90001 0.0
N377 N 0.10766 0.29775 0.85561 0.0
H378 H 0.79971 0.85691 0.84965 0.0
H379 H 0.68278 0.75038 0.90389 0.0
H380 H 0.79031 0.80007 -0.00297 0.0
H381 H 0.69612 0.80523 0.73181 0.0
H382 H 0.72157 0.76787 0.94184 0.0
H383 H 0.76127 0.8382 0.81206 0.0
C384 C 0.78956 0.84049 0.87457 0.0
C385 C 0.79838 0.83009 0.92664 0.0
C386 C 0.71597 0.77602 0.89564 0.0
C387 C 0.75397 0.80836 0.88306 0.0
C388 C 0.69384 0.76598 0.87341 0.0
C389 C 0.68607 0.7764 0.81506 0.0
C390 C 0.73043 0.79663 0.85933 0.0
C391 C 0.7012 0.79673 0.77851 0.0
C392 C 0.76753 0.82975 0.85268 0.0
C393 C 0.78426 0.80875 0.95675 0.0
N394 N 0.72254 0.80615 0.80148 0.0
N395 N 0.76274 0.79858 0.9345 0.0
H396 H 0.26598 1.00981 0.01003 0.0
H397 H 0.26188 0.90932 0.73905 0.0
H398 H 0.21008 0.96131 0.86057 0.0
H399 H 0.31629 0.95332 0.90816 0.0
H400 H 0.24341 0.92928 0.77954 0.0
H401 H 0.28516 0.99012 0.97255 0.0
C402 C 0.25768 0.995 0.96984 0.0
C403 C 0.23635 0.98726 0.93838 0.0
C404 C 0.25941 0.93464 0.80783 0.0
C405 C 0.25829 0.96475 0.89468 0.0
C406 C 0.27007 0.92333 0.78401 0.0
C407 C 0.29075 0.92968 0.81981 0.0
C408 C 0.26944 0.95254 0.86792 0.0
C409 C 0.3003 0.94773 0.87945 0.0
C410 C 0.26867 0.98379 0.94834 0.0
C411 C 0.22649 0.96797 0.88639 0.0
N412 N 0.28959 0.95855 0.90149 0.0
N413 N 0.23754 0.95748 0.86603 0.0
H414 H 0.46608 0.19004 0.19152 0.0
H415 H 0.35063 0.08115 0.23847 0.0
H416 H 0.45773 0.13305 0.33419 0.0
H417 H 0.3617 0.13724 0.08058 0.0
H418 H 0.3893 0.09984 0.27894 0.0
H419 H 0.42747 0.17103 0.15605 0.0
C420 C 0.45613 0.17353 0.21585 0.0
C421 C 0.46529 0.16315 0.26589 0.0
C422 C 0.38325 0.10801 0.23524 0.0
C423 C 0.42073 0.14113 0.22482 0.0
C424 C 0.36116 0.09738 0.21234 0.0
C425 C 0.35284 0.10758 0.15566 0.0
C426 C 0.39715 0.12907 0.20178 0.0
C427 C 0.36735 0.12856 0.12318 0.0
C428 C 0.43401 0.16264 0.19525 0.0
C429 C 0.45143 0.14172 0.29543 0.0
N430 N 0.3887 0.13858 0.14686 0.0
N431 N 0.42985 0.1314 0.27433 0.0
H432 H 0.9336 0.34439 0.34517 0.0
H433 H 0.92913 0.24365 0.07483 0.0
H434 H 0.87743 0.29549 0.19843 0.0
H435 H 0.98365 0.28748 0.24382 0.0
H436 H 0.9108 0.26371 0.11555 0.0
H437 H 0.9528 0.32471 0.30737 0.0
C438 C 0.92525 0.3295 0.30551 0.0
C439 C 0.90384 0.32164 0.27491 0.0
C440 C 0.92679 0.26901 0.14378 0.0
C441 C 0.92578 0.29915 0.23084 0.0
C442 C 0.93737 0.25765 0.1198 0.0
C443 C 0.95805 0.26391 0.15549 0.0
C444 C 0.93689 0.28691 0.20389 0.0
C445 C 0.96766 0.28196 0.21518 0.0
C446 C 0.93624 0.31829 0.28383 0.0
C447 C 0.8939 0.30226 0.22357 0.0
N448 N 0.95703 0.29284 0.23736 0.0
N449 N 0.90495 0.29178 0.20302 0.0
H450 H 0.77629 0.71489 0.23549 0.0
H451 H 0.77131 0.60005 0.19758 0.0
H452 H 0.82157 0.7037 0.07937 0.0
H453 H 0.72171 0.60788 0.33534 0.0
H454 H 0.7905 0.63851 0.16043 0.0
H455 H 0.75658 0.67636 0.27821 0.0
C456 C 0.7821 0.70436 0.21018 0.0
C457 C 0.8006 0.71259 0.15332 0.0
C458 C 0.77544 0.6319 0.1989 0.0
C459 C 0.77812 0.66848 0.20209 0.0
C460 C 0.76444 0.60986 0.22048 0.0
C461 C 0.74477 0.60059 0.26959 0.0
C462 C 0.76683 0.645 0.22653 0.0
C463 C 0.73681 0.61428 0.29735 0.0
C464 C 0.77079 0.68235 0.23438 0.0
C465 C 0.80723 0.6981 0.12201 0.0
N466 N 0.74785 0.6358 0.27528 0.0
N467 N 0.79606 0.67686 0.14697 0.0
H468 H 0.12408 0.46646 0.67671 0.0
H469 H 0.03023 0.47052 0.38532 0.0
H470 H 0.13311 0.52132 0.51453 0.0
H471 H 1.01668 0.41962 0.58174 0.0
H472 H 0.06859 0.4877 0.42468 0.0
H473 H 0.08525 0.44764 0.63739 0.0
C474 C 0.11794 0.47459 0.63323 0.0
C475 C 0.13196 0.49556 0.59902 0.0
C476 C 0.05727 0.47276 0.45934 0.0
C477 C 0.08764 0.47403 0.55312 0.0
C478 C 0.03529 0.46295 0.43704 0.0
C479 C 1.02005 0.44368 0.48097 0.0
C480 C 0.06432 0.46329 0.52604 0.0
C481 C 1.0278 0.4344 0.54572 0.0
C482 C 0.09578 0.46382 0.61074 0.0
C483 C 0.12304 0.50523 0.54281 0.0
N484 N 0.04938 0.44433 0.56659 0.0
N485 N 0.10156 0.49439 0.52155 0.0
H486 H 0.59973 0.67643 0.67468 0.0
H487 H 0.59465 0.57696 0.39146 0.0
H488 H 0.54381 0.62879 0.52255 0.0
H489 H 0.64728 0.61651 0.57765 0.0
H490 H 0.57733 0.59796 0.43171 0.0
H491 H 0.61871 0.65657 0.63497 0.0
C492 C 0.5914 0.6618 0.6334 0.0
C493 C 0.5701 0.65431 0.602 0.0
C494 C 0.59268 0.60211 0.46395 0.0
C495 C 0.59179 0.63169 0.55563 0.0
C496 C 0.60257 0.59004 0.44113 0.0
C497 C 0.62237 0.59475 0.48197 0.0
C498 C 0.60259 0.61919 0.52805 0.0
C499 C 0.63208 0.61233 0.54408 0.0
C500 C 0.60226 0.6505 0.61065 0.0
C501 C 0.56018 0.63526 0.54854 0.0
N502 N 0.62205 0.62386 0.56555 0.0
N503 N 0.5711 0.62472 0.52696 0.0
H504 H 0.44389 0.04788 0.57024 0.0
H505 H 0.43801 0.9327 0.52527 0.0
H506 H 0.48897 0.03683 0.41181 0.0
H507 H 0.3892 0.94094 0.66797 0.0
H508 H 0.45742 0.97125 0.48907 0.0
H509 H 0.42412 1.00929 0.61158 0.0
C510 C 0.44965 0.03737 0.54415 0.0
C511 C 0.46812 0.04567 0.48707 0.0
C512 C 0.44249 0.9647 0.52844 0.0
C513 C 0.44553 1.00145 0.5342 0.0
C514 C 0.43137 0.94261 0.54946 0.0
C515 C 0.41185 0.93344 0.59971 0.0
C516 C 0.43415 0.97792 0.55778 0.0
C517 C 0.40417 0.94725 0.62906 0.0
C518 C 0.4383 1.01532 0.56756 0.0
C519 C 0.47466 0.03118 0.4547 0.0
N520 N 0.41531 0.96879 0.60753 0.0
N521 N 0.46344 1.00988 0.47887 0.0
H522 H 0.14383 0.03965 0.90452 0.0
H523 H 0.15546 0.15593 0.00349 0.0
H524 H 0.19939 0.09248 0.03883 0.0
H525 H 0.09918 0.10288 0.87454 0.0
H526 H 0.17139 0.13263 0.01981 0.0
H527 H 0.12684 0.06216 0.89611 0.0
C528 C 0.15247 0.05595 0.93252 0.0
C529 C 0.17314 0.06415 0.97234 0.0
C530 C 0.15553 0.12604 -0.01187 0.0
C531 C 0.1537 0.0901 0.96264 0.0
C532 C 0.14646 0.13939 0.97833 0.0
C533 C 0.12597 0.13143 0.937 0.0
C534 C 0.14413 0.1045 0.95617 0.0
C535 C 0.11492 0.10969 0.90744 0.0
C536 C 0.14272 0.06881 0.92766 0.0
C537 C 0.18346 0.08543 0.00744 0.0
N538 N 0.12418 0.09704 0.91718 0.0
N539 N 0.17367 0.09765 0.00154 0.0
H540 H 0.96289 1.01556 0.84279 0.0
H541 H 0.97375 0.12549 0.0465 0.0
H542 H 0.91443 1.01731 0.01684 0.0
H543 H 1.0244 0.12292 0.8916 0.0
H544 H 0.95171 0.08596 0.03593 0.0
H545 H 0.98551 0.05494 0.8589 0.0
C546 C 0.95698 0.02423 0.88424 0.0
C547 C 0.93669 1.01307 0.92838 0.0
C548 C 0.96767 0.09405 0.00447 0.0
C549 C 0.96259 0.05825 0.94751 0.0
C550 C 0.98029 0.11666 0.01043 0.0
C551 C 1.001 0.12764 0.96979 0.0
C552 C 0.97575 0.08227 0.95722 0.0
C553 C 1.00855 0.11523 0.92401 0.0
C554 C 0.96995 0.04671 0.89381 0.0
C555 C 0.93004 0.02517 0.98234 0.0
N556 N 0.99593 0.09327 0.91877 0.0
N557 N 0.94289 0.04707 -0.00996 0.0
H558 H 0.94328 0.92083 0.90271 0.0
H559 H 0.04771 0.90886 0.00163 0.0
H560 H 0.94002 0.86478 0.03403 0.0
H561 H 0.05097 0.96547 0.87646 0.0
H562 H 1.0084 0.89276 0.01682 0.0
H563 H 0.98274 0.93769 0.89564 0.0
C564 C 0.95083 0.91205 0.93032 0.0
C565 C 0.93821 0.89128 0.96892 0.0
C566 C 1.0177 0.90873 -0.01376 0.0
C567 C 0.98359 0.9106 0.96077 0.0
C568 C 0.04016 0.9179 0.97709 0.0
C569 C 0.05272 0.93854 0.93719 0.0
C570 C 1.00758 0.92019 0.95504 0.0
C571 C 0.04203 0.94962 0.90832 0.0
C572 C 0.97342 0.92173 0.92624 0.0
C573 C 0.94902 0.88078 0.00359 0.0
N574 N 1.0201 0.94028 0.91741 0.0
N575 N 0.97105 0.89052 -0.00153 0.0
H576 H 0.82206 0.48943 0.33906 0.0
H577 H 0.81049 0.37313 0.2412 0.0
H578 H 0.76575 0.43631 0.21054 0.0
H579 H 0.86572 0.42584 0.37778 0.0
H580 H 0.79348 0.39563 0.23225 0.0
H581 H 0.83792 0.46609 0.35625 0.0
C582 C 0.81303 0.47286 0.31417 0.0
C583 C 0.79257 0.46489 0.27271 0.0
C584 C 0.80929 0.40225 0.26445 0.0
C585 C 0.81064 0.43793 0.29287 0.0
C586 C 0.81904 0.3894 0.26962 0.0
C587 C 0.83963 0.39758 0.3102 0.0
C588 C 0.82019 0.4235 0.29984 0.0
C589 C 0.84986 0.41881 0.3458 0.0
C590 C 0.82207 0.45949 0.32448 0.0
C591 C 0.78149 0.44313 0.24351 0.0
N592 N 0.84007 0.43102 0.33953 0.0
N593 N 0.79071 0.43045 0.25372 0.0
H594 H 0.64124 0.45847 0.38733 0.0
H595 H 0.62987 0.34866 0.17948 0.0
H596 H 0.69146 0.45604 0.22839 0.0
H597 H 0.58173 0.35037 0.35584 0.0
H598 H 0.6526 0.38801 0.19625 0.0
H599 H 0.61923 0.41895 0.37685 0.0
C600 C 0.6477 0.44966 0.35045 0.0
C601 C 0.66827 0.46068 0.30858 0.0
C602 C 0.63709 0.37979 0.23153 0.0
C603 C 0.64304 0.41531 0.29606 0.0
C604 C 0.62405 0.35732 0.22158 0.0
C605 C 0.60382 0.34615 0.26617 0.0
C606 C 0.62984 0.3913 0.28606 0.0
C607 C 0.59729 0.35823 0.32097 0.0
C608 C 0.6351 0.42706 0.34452 0.0
C609 C 0.67572 0.44831 0.26176 0.0
N610 N 0.6102 0.38012 0.32902 0.0
N611 N 0.66311 0.42635 0.25655 0.0
H612 H 0.61025 0.25418 0.23873 0.0
H613 H 0.7148 0.2424 0.33791 0.0
H614 H 0.60712 0.19825 0.3707 0.0
H615 H 0.71801 0.29897 0.21262 0.0
H616 H 0.67548 0.22626 0.35298 0.0
H617 H 0.64972 0.27108 0.23146 0.0
C618 C 0.61783 0.24543 0.26644 0.0
C619 C 0.60525 0.22468 0.30529 0.0
C620 C 0.68477 0.24223 0.32239 0.0
C621 C 0.65064 0.24406 0.29692 0.0
C622 C 0.70724 0.25142 0.3133 0.0
C623 C 0.71979 0.27206 0.27342 0.0
C624 C 0.67464 0.25367 0.29115 0.0
C625 C 0.70908 0.28312 0.24447 0.0
C626 C 0.64043 0.25514 0.26225 0.0
C627 C 0.61609 0.21423 0.34008 0.0
N628 N 0.68715 0.27376 0.25351 0.0
N629 N 0.63812 0.224 0.33484 0.0
H630 H 0.47658 0.70565 0.57418 0.0
H631 H 0.4889 0.8225 0.66353 0.0
H632 H 0.53247 0.75887 0.70491 0.0
H633 H 0.43141 0.76844 0.54677 0.0
H634 H 0.50485 0.79924 0.68094 0.0
H635 H 0.45952 0.72809 0.56572 0.0
C636 C 0.48527 0.72202 0.60142 0.0
C637 C 0.50606 0.73036 0.64022 0.0
C638 C 0.48872 0.79241 0.65175 0.0
C639 C 0.48656 0.75623 0.63035 0.0
C640 C 0.47963 0.80573 0.64131 0.0
C641 C 0.45881 0.79747 0.60304 0.0
C642 C 0.47699 0.77062 0.62342 0.0
C643 C 0.44743 0.77548 0.57719 0.0
C644 C 0.47548 0.73484 0.59655 0.0
C645 C 0.51646 0.75172 0.67435 0.0
N646 N 0.45671 0.76287 0.58737 0.0
N647 N 0.50664 0.76391 0.66833 0.0
H648 H 0.2973 0.67996 0.54652 0.0
H649 H 0.30574 0.7921 0.70503 0.0
H650 H 0.24371 0.68481 0.66009 0.0
H651 H 0.35827 0.78813 0.57408 0.0
H652 H 0.28345 0.75261 0.69673 0.0
H653 H 0.32057 0.71926 0.56449 0.0
C654 C 0.29045 0.68924 0.57591 0.0
C655 C 0.26845 0.67902 0.60139 0.0
C656 C 0.29987 0.76036 0.66996 0.0
C657 C 0.29499 0.72412 0.6215 0.0
C658 C 0.31264 0.78296 0.67478 0.0
C659 C 0.33395 0.79355 0.64002 0.0
C660 C 0.3084 0.74816 0.6302 0.0
C661 C 0.34195 0.78074 0.60162 0.0
C662 C 0.30372 0.71172 0.58563 0.0
C663 C 0.26046 0.69198 0.63811 0.0
N664 N 0.32917 0.75876 0.59764 0.0
N665 N 0.27369 0.7138 0.64694 0.0
H666 H 0.38554 0.63515 0.54656 0.0
H667 H 0.27343 0.53227 0.71003 0.0
H668 H 0.38057 0.57693 0.66225 0.0
H669 H 0.27728 0.58822 0.57505 0.0
H670 H 0.31292 0.5494 0.70133 0.0
H671 H 0.34626 0.61933 0.56532 0.0
C672 C 0.37623 0.61911 0.57656 0.0
C673 C 0.38641 0.60733 0.60241 0.0
C674 C 0.30514 0.55796 0.67378 0.0
C675 C 0.34135 0.58903 0.62348 0.0
C676 C 0.28255 0.54819 0.67885 0.0
C677 C 0.27193 0.55876 0.64302 0.0
C678 C 0.31732 0.57851 0.63269 0.0
C679 C 0.28471 0.5794 0.60343 0.0
C680 C 0.35377 0.61004 0.58674 0.0
C681 C 0.37343 0.5865 0.63996 0.0
N682 N 0.30669 0.58857 0.59921 0.0
N683 N 0.35163 0.57804 0.64925 0.0
H684 H 0.0659 0.21458 0.72708 0.0
H685 H 1.01488 0.17748 0.22027 0.0
H686 H 0.99705 0.17619 0.67555 0.0
H687 H 0.08341 0.2184 0.27276 0.0
H688 H 1.00793 0.17628 0.38663 0.0
H689 H 0.07262 0.21534 0.56099 0.0
C690 C 0.05219 0.20627 0.68064 0.0
C691 C 0.03088 0.19537 0.71479 0.0
C692 C 1.02449 0.18554 0.36185 0.0
C693 C 0.03843 0.19619 0.52461 0.0
C694 C 0.02846 0.18626 0.26694 0.0
C695 C 0.04975 0.19808 0.23301 0.0
C696 C 0.04197 0.19667 0.42321 0.0
C697 C 0.06675 0.2091 0.29625 0.0
C698 C 0.05603 0.20673 0.58581 0.0
C699 C 1.01372 0.18482 0.65181 0.0
N700 N 0.0625 0.2081 0.38836 0.0
N701 N 1.01786 0.18551 0.5596 0.0
H702 H 0.89065 0.83915 0.67267 0.0
H703 H 0.84648 0.88334 0.26529 0.0
H704 H 0.85151 0.86906 0.71846 0.0
H705 H 0.88772 0.85584 0.21842 0.0
H706 H 0.84782 0.87781 0.43166 0.0
H707 H 0.88976 0.84495 0.50598 0.0
C708 C 0.88192 0.84698 0.64753 0.0
C709 C 0.87107 0.85357 0.70912 0.0
C710 C 0.85657 0.87296 0.38509 0.0
C711 C 0.86991 0.86021 0.51898 0.0
C712 C 0.85578 0.87609 0.29015 0.0
C713 C 0.867 0.87003 0.22828 0.0
C714 C 0.86867 0.86367 0.41836 0.0
C715 C 0.87881 0.8607 0.26395 0.0
C716 C 0.88139 0.85027 0.55249 0.0
C717 C 0.86003 0.86367 0.67318 0.0
N718 N 0.87934 0.85781 0.35669 0.0
N719 N 0.8597 0.86664 0.58048 0.0
H720 H 0.19613 0.99967 0.72813 0.0
H721 H 0.20942 0.05064 0.22194 0.0
H722 H 0.22577 0.06844 0.67714 0.0
H723 H 0.18248 0.98221 0.27375 0.0
H724 H 0.21513 0.05757 0.38832 0.0
H725 H 0.19022 0.99295 0.56201 0.0
C726 C 0.20136 1.01336 0.68181 0.0
C727 C 0.21153 0.03465 0.71609 0.0
C728 C 0.20799 0.04104 0.36338 0.0
C729 C 0.20485 0.02711 0.52593 0.0
C730 C 0.20477 0.03709 0.26846 0.0
C731 C 0.19549 1.01583 0.23436 0.0
C732 C 0.20181 0.02358 0.42455 0.0
C733 C 0.18968 0.99884 0.2974 0.0
C734 C 0.19801 1.00952 0.58697 0.0
C735 C 0.21791 0.05178 0.65328 0.0
N736 N 0.19291 1.00308 0.38952 0.0
N737 N 0.2145 0.04764 0.56108 0.0
H738 H 0.75103 0.55273 0.60574 0.0
H739 H 0.66268 0.50805 0.01373 0.0
H740 H 0.68234 0.51118 0.55928 0.0
H741 H 0.73164 0.54785 0.05907 0.0
H742 H 0.66939 0.509 0.847 0.0
H743 H 0.74414 0.55143 0.77213 0.0
C744 C 0.73449 0.54336 0.6307 0.0
C745 C 0.71723 0.53203 0.56894 0.0
C746 C 0.68306 0.51751 0.8934 0.0
C747 C 0.70918 0.53041 0.75908 0.0
C748 C 0.67923 0.51695 -0.01152 0.0
C749 C 0.69663 0.52795 0.04996 0.0
C750 C 0.70446 0.52917 0.85974 0.0
C751 C 0.71776 0.5392 0.01387 0.0
C752 C 0.73055 0.5426 0.72566 0.0
C753 C 0.69611 0.52016 0.60474 0.0
N754 N 0.72108 0.53956 0.92113 0.0
N755 N 0.69267 0.51964 0.69751 0.0
H756 H 0.51344 0.21653 0.60186 0.0
H757 H 0.5577 0.17249 0.00941 0.0
H758 H 0.5548 0.18914 0.55517 0.0
H759 H 0.51829 0.2021 0.05503 0.0
H760 H 0.55684 0.1783 0.84274 0.0
H761 H 0.51474 0.21098 0.76822 0.0
C762 C 0.52276 0.20931 0.62676 0.0
C763 C 0.53403 0.20328 0.56494 0.0
C764 C 0.5484 0.18356 0.88919 0.0
C765 C 0.53564 0.1969 0.75502 0.0
C766 C 0.54891 0.18026 0.98423 0.0
C767 C 0.53799 0.18676 0.04577 0.0
C768 C 0.53686 0.19342 0.85564 0.0
C769 C 0.52688 0.19679 0.00979 0.0
C770 C 0.52353 0.20616 0.72169 0.0
C771 C 0.54585 0.19398 0.60067 0.0
N772 N 0.52656 0.19976 0.91709 0.0
N773 N 0.54636 0.19108 0.69341 0.0
H774 H 0.87677 0.38454 0.55884 0.0
H775 H 0.86314 0.33363 0.06537 0.0
H776 H 0.84938 0.31607 0.61103 0.0
H777 H 0.89285 0.40238 0.01405 0.0
H778 H 0.85727 0.32687 0.89924 0.0
H779 H 0.88245 0.39149 0.72522 0.0
C780 C 0.87201 0.37098 0.60546 0.0
C781 C 0.8626 0.3497 0.57147 0.0
C782 C 0.86506 0.34345 0.92413 0.0
C783 C 0.86892 0.35748 0.76163 0.0
C784 C 0.86839 0.3473 0.01897 0.0
C785 C 0.87856 0.3686 0.05316 0.0
C786 C 0.87194 0.36102 0.86301 0.0
C787 C 0.88499 0.38572 -0.00974 0.0
C788 C 0.87521 0.37494 0.70037 0.0
C789 C 0.85668 0.33271 0.63459 0.0
N790 N 0.8816 0.38157 0.89807 0.0
N791 N 0.85991 0.33697 0.72671 0.0
H792 H 0.32914 0.84101 0.3436 0.0
H793 H 0.41745 0.88554 0.9354 0.0
H794 H 0.39813 0.88058 0.38881 0.0
H795 H 0.34875 0.84398 0.88916 0.0
H796 H 0.41058 0.88424 0.10183 0.0
H797 H 0.33583 0.84193 0.17685 0.0
C798 C 0.34569 0.84984 0.31832 0.0
C799 C 0.36311 0.8608 0.37976 0.0
C800 C 0.39699 0.87541 0.05539 0.0
C801 C 0.37091 0.86199 0.18953 0.0
C802 C 0.40091 0.87618 0.96042 0.0
C803 C 0.38364 0.86485 0.8987 0.0
C804 C 0.37562 0.86323 0.08886 0.0
C805 C 0.36252 0.85297 0.93457 0.0
C806 C 0.34951 0.85039 0.22323 0.0
C807 C 0.38424 0.87197 0.34364 0.0
N808 N 0.3591 0.85246 0.02734 0.0
N809 N 0.38755 0.87232 0.2509 0.0
H810 H 0.1797 0.54963 0.93753 0.0
H811 H 0.22453 0.50605 0.34469 0.0
H812 H 0.22115 0.52238 0.89051 0.0
H813 H 0.1848 0.5353 0.39074 0.0
H814 H 0.22349 0.51175 0.17802 0.0
H815 H 0.18106 0.5441 0.10389 0.0
C816 C 0.18905 0.54244 0.96236 0.0
C817 C 0.20034 0.53647 0.90046 0.0
C818 C 0.21502 0.51695 0.22457 0.0
C819 C 0.20204 0.53011 0.09052 0.0
C820 C 0.21564 0.51372 0.31961 0.0
C821 C 0.20468 0.52015 0.38126 0.0
C822 C 0.20335 0.52668 0.19113 0.0
C823 C 0.19342 0.53004 0.3454 0.0
C824 C 0.18986 0.53931 0.05729 0.0
C825 C 0.21221 0.5272 0.93608 0.0
N826 N 0.19301 0.53296 0.25269 0.0
N827 N 0.21276 0.52431 0.02881 0.0
H828 H 0.52948 0.6664 0.39477 0.0
H829 H 0.5431 0.71726 0.88816 0.0
H830 H 0.5592 0.73516 0.34336 0.0
H831 H 0.51584 0.64881 0.9404 0.0
H832 H 0.54876 0.72423 0.05452 0.0
H833 H 0.52362 0.65963 0.22865 0.0
C834 C 0.53474 0.68008 0.34835 0.0
C835 C 0.54491 0.70138 0.38252 0.0
C836 C 0.54156 0.70768 0.02969 0.0
C837 C 0.5383 0.69378 0.19236 0.0
C838 C 0.53836 0.70371 0.93478 0.0
C839 C 0.529 0.68243 0.9008 0.0
C840 C 0.5353 0.69022 0.09098 0.0
C841 C 0.52311 0.66545 0.96395 0.0
C842 C 0.53142 0.67621 0.25352 0.0
C843 C 0.55134 0.71849 0.31959 0.0
N844 N 0.52633 0.66971 0.05607 0.0
N845 N 0.54796 0.71433 0.22739 0.0
loop_
_geom_bond_atom_site_label_1
_geom_bond_atom_site_label_2
_geom_bond_distance
_geom_bond_site_symmetry_2
_ccdc_geom_bond_type
C0 Eu1 2.835 1_556 S
C0 C2 1.500 . S
C0 O20 1.257 . S
C0 O21 1.260 1_556 S
Eu1 C0 2.835 1_554 S
Eu1 O20 2.473 1_554 S
Eu1 O21 2.480 . S
Eu1 O22 2.430 . S
Eu1 O23 2.670 . S
Eu1 O24 2.394 . S
Eu1 O29 2.355 1_554 S
Eu1 O31 2.374 1_554 S
C2 C0 1.500 . S
C2 C3 1.377 1_556 S
C2 C7 1.377 . S
C3 C2 1.377 1_554 S
C3 C4 1.395 . S
C3 H32 0.931 . S
C4 C3 1.395 . S
C4 C5 1.383 1_554 S
C4 H33 0.931 . S
C5 C4 1.383 1_556 S
C5 C6 1.394 . S
C6 C5 1.394 . S
C6 C7 1.378 . S
C6 H34 0.931 . S
C7 C2 1.377 . S
C7 C6 1.378 . S
C7 H35 0.931 . S
C8 O22 1.259 . S
C8 O23 1.270 . S
C9 O24 1.251 1_655 S
C9 O25 1.251 . S
C10 Eu11 2.835 1_554 S
C10 C12 1.500 . S
C10 O26 1.257 . S
C10 O27 1.260 1_554 S
Eu11 C10 2.835 1_556 S
Eu11 O23 2.355 1_656 S
Eu11 O25 2.374 1_556 S
Eu11 O26 2.473 1_556 S
Eu11 O27 2.480 . S
Eu11 O28 2.430 . S
Eu11 O29 2.670 1_655 S
Eu11 O30 2.394 1_655 S
C12 C10 1.500 . S
C12 C13 1.377 1_554 S
C12 C17 1.377 . S
C13 C12 1.377 1_556 S
C13 C14 1.395 . S
C13 H36 0.931 . S
C14 C13 1.395 . S
C14 C15 1.383 1_556 S
C14 H37 0.931 . S
C15 C14 1.383 1_554 S
C15 C16 1.394 . S
C16 C15 1.394 . S
C16 C17 1.378 . S
C16 H38 0.931 . S
C17 C12 1.377 . S
C17 C16 1.378 . S
C17 H39 0.931 . S
C18 O28 1.259 1_455 S
C18 O29 1.270 . S
C19 O30 1.251 . S
C19 O31 1.251 . S
O20 C0 1.257 . S
O20 Eu1 2.473 1_556 S
O21 C0 1.260 1_554 S
O21 Eu1 2.480 . S
O22 Eu1 2.430 . S
O22 C8 1.259 . S
O23 Eu1 2.670 . S
O23 C8 1.270 . S
O23 Eu11 2.355 1_454 S
O24 Eu1 2.394 . S
O24 C9 1.251 1_455 S
O25 C9 1.251 . S
O25 Eu11 2.374 1_554 S
O26 C10 1.257 . S
O26 Eu11 2.473 1_554 S
O27 C10 1.260 1_556 S
O27 Eu11 2.480 . S
O28 Eu11 2.430 . S
O28 C18 1.259 1_655 S
O29 Eu1 2.355 1_556 S
O29 Eu11 2.670 1_455 S
O29 C18 1.270 . S
O30 Eu11 2.394 1_455 S
O30 C19 1.251 . S
O31 Eu1 2.374 1_556 S
O31 C19 1.251 . S
H32 C3 0.931 . S
H33 C4 0.931 . S
H34 C6 0.931 . S
H35 C7 0.931 . S
H36 C13 0.931 . S
H37 C14 0.931 . S
H38 C16 0.931 . S
H39 C17 0.931 . S
C40 Eu41 2.835 1_556 S
C40 C42 1.500 . S
C40 O60 1.257 . S
C40 O61 1.260 1_556 S
Eu41 C40 2.835 1_554 S
Eu41 O60 2.473 1_554 S
Eu41 O61 2.480 . S
Eu41 O62 2.430 . S
Eu41 O63 2.670 . S
Eu41 O64 2.394 . S
Eu41 O69 2.355 1_554 S
Eu41 O71 2.374 1_554 S
C42 C40 1.500 . S
C42 C43 1.377 1_556 S
C42 C47 1.377 . S
C43 C42 1.377 1_554 S
C43 C44 1.395 . S
C43 H72 0.931 . S
C44 C43 1.395 . S
C44 C45 1.383 1_554 S
C44 H73 0.931 . S
C45 C44 1.383 1_556 S
C45 C46 1.394 . S
C46 C45 1.394 . S
C46 C47 1.378 . S
C46 H74 0.931 . S
C47 C42 1.377 . S
C47 C46 1.378 . S
C47 H75 0.931 . S
C48 O62 1.259 . S
C48 O63 1.270 . S
C49 O64 1.251 . S
C49 O65 1.251 . S
C50 Eu51 2.835 1_554 S
C50 C52 1.500 . S
C50 O66 1.257 . S
C50 O67 1.260 1_554 S
Eu51 C50 2.835 1_556 S
Eu51 O63 2.355 1_556 S
Eu51 O65 2.374 1_556 S
Eu51 O66 2.473 1_556 S
Eu51 O67 2.480 . S
Eu51 O68 2.430 . S
Eu51 O69 2.670 . S
Eu51 O70 2.394 . S
C52 C50 1.500 . S
C52 C53 1.377 1_554 S
C52 C57 1.377 . S
C53 C52 1.377 1_556 S
C53 C54 1.395 . S
C53 H76 0.931 . S
C54 C53 1.395 . S
C54 C55 1.383 1_556 S
C54 H77 0.931 . S
C55 C54 1.383 1_554 S
C55 C56 1.394 . S
C56 C55 1.394 . S
C56 C57 1.378 . S
C56 H78 0.931 . S
C57 C52 1.377 . S
C57 C56 1.378 . S
C57 H79 0.931 . S
C58 O68 1.259 . S
C58 O69 1.270 . S
C59 O70 1.251 . S
C59 O71 1.251 . S
O60 C40 1.257 . S
O60 Eu41 2.473 1_556 S
O61 C40 1.260 1_554 S
O61 Eu41 2.480 . S
O62 Eu41 2.430 . S
O62 C48 1.259 . S
O63 Eu41 2.670 . S
O63 C48 1.270 . S
O63 Eu51 2.355 1_554 S
O64 Eu41 2.394 . S
O64 C49 1.251 . S
O65 C49 1.251 . S
O65 Eu51 2.374 1_554 S
O66 C50 1.257 . S
O66 Eu51 2.473 1_554 S
O67 C50 1.260 1_556 S
O67 Eu51 2.480 . S
O68 Eu51 2.430 . S
O68 C58 1.259 . S
O69 Eu41 2.355 1_556 S
O69 Eu51 2.670 . S
O69 C58 1.270 . S
O70 Eu51 2.394 . S
O70 C59 1.251 . S
O71 Eu41 2.374 1_556 S
O71 C59 1.251 . S
H72 C43 0.931 . S
H73 C44 0.931 . S
H74 C46 0.931 . S
H75 C47 0.931 . S
H76 C53 0.931 . S
H77 C54 0.931 . S
H78 C56 0.931 . S
H79 C57 0.931 . S
C80 Eu81 2.835 1_556 S
C80 C82 1.500 . S
C80 O100 1.257 . S
C80 O101 1.260 1_556 S
Eu81 C80 2.835 1_554 S
Eu81 O100 2.473 1_554 S
Eu81 O101 2.480 . S
Eu81 O102 2.430 . S
Eu81 O103 2.670 1_565 S
Eu81 O104 2.394 1_565 S
Eu81 O109 2.355 1_564 S
Eu81 O111 2.374 1_554 S
C82 C80 1.500 . S
C82 C83 1.377 1_556 S
C82 C87 1.377 . S
C83 C82 1.377 1_554 S
C83 C84 1.395 . S
C83 H112 0.931 . S
C84 C83 1.395 . S
C84 C85 1.383 1_554 S
C84 H113 0.931 . S
C85 C84 1.383 1_556 S
C85 C86 1.394 . S
C86 C85 1.394 . S
C86 C87 1.378 . S
C86 H114 0.931 . S
C87 C82 1.377 . S
C87 C86 1.378 . S
C87 H115 0.931 . S
C88 O102 1.259 1_545 S
C88 O103 1.270 . S
C89 O104 1.251 . S
C89 O105 1.251 . S
C90 Eu91 2.835 1_554 S
C90 C92 1.500 . S
C90 O106 1.257 . S
C90 O107 1.260 1_554 S
Eu91 C90 2.835 1_556 S
Eu91 O103 2.355 1_556 S
Eu91 O105 2.374 1_556 S
Eu91 O106 2.473 1_556 S
Eu91 O107 2.480 . S
Eu91 O108 2.430 . S
Eu91 O109 2.670 . S
Eu91 O110 2.394 . S
C92 C90 1.500 . S
C92 C93 1.377 1_554 S
C92 C97 1.377 . S
C93 C92 1.377 1_556 S
C93 C94 1.395 . S
C93 H116 0.931 . S
C94 C93 1.395 . S
C94 C95 1.383 1_556 S
C94 H117 0.931 . S
C95 C94 1.383 1_554 S
C95 C96 1.394 . S
C96 C95 1.394 . S
C96 C97 1.378 . S
C96 H118 0.931 . S
C97 C92 1.377 . S
C97 C96 1.378 . S
C97 H119 0.931 . S
C98 O108 1.259 . S
C98 O109 1.270 . S
C99 O110 1.251 1_565 S
C99 O111 1.251 . S
O100 C80 1.257 . S
O100 Eu81 2.473 1_556 S
O101 C80 1.260 1_554 S
O101 Eu81 2.480 . S
O102 Eu81 2.430 . S
O102 C88 1.259 1_565 S
O103 Eu81 2.670 1_545 S
O103 C88 1.270 . S
O103 Eu91 2.355 1_554 S
O104 Eu81 2.394 1_545 S
O104 C89 1.251 . S
O105 C89 1.251 . S
O105 Eu91 2.374 1_554 S
O106 C90 1.257 . S
O106 Eu91 2.473 1_554 S
O107 C90 1.260 1_556 S
O107 Eu91 2.480 . S
O108 Eu91 2.430 . S
O108 C98 1.259 . S
O109 Eu81 2.355 1_546 S
O109 Eu91 2.670 . S
O109 C98 1.270 . S
O110 Eu91 2.394 . S
O110 C99 1.251 1_545 S
O111 Eu81 2.374 1_556 S
O111 C99 1.251 . S
H112 C83 0.931 . S
H113 C84 0.931 . S
H114 C86 0.931 . S
H115 C87 0.931 . S
H116 C93 0.931 . S
H117 C94 0.931 . S
H118 C96 0.931 . S
H119 C97 0.931 . S
C120 Eu121 2.835 . S
C120 C122 1.500 . S
C120 O140 1.257 . S
C120 O141 1.260 . S
Eu121 C120 2.835 . S
Eu121 O140 2.473 . S
Eu121 O141 2.480 . S
Eu121 O142 2.430 . S
Eu121 O143 2.670 . S
Eu121 O144 2.394 . S
Eu121 O149 2.355 . S
Eu121 O151 2.374 . S
C122 C120 1.500 . S
C122 C123 1.377 . S
C122 C127 1.377 . S
C123 C122 1.377 . S
C123 C124 1.395 . S
C123 H152 0.931 . S
C124 C123 1.395 . S
C124 C125 1.383 . S
C124 H153 0.931 . S
C125 C124 1.383 . S
C125 C126 1.394 . S
C126 C125 1.394 . S
C126 C127 1.378 . S
C126 H154 0.931 . S
C127 C122 1.377 . S
C127 C126 1.378 . S
C127 H155 0.931 . S
C128 O142 1.259 . S
C128 O143 1.270 . S
C129 O144 1.251 . S
C129 O145 1.251 . S
C130 Eu131 2.835 . S
C130 C132 1.500 . S
C130 O146 1.257 . S
C130 O147 1.260 . S
Eu131 C130 2.835 . S
Eu131 O143 2.355 . S
Eu131 O145 2.374 . S
Eu131 O146 2.473 . S
Eu131 O147 2.480 . S
Eu131 O148 2.430 . S
Eu131 O149 2.670 . S
Eu131 O150 2.394 . S
C132 C130 1.500 . S
C132 C133 1.377 . S
C132 C137 1.377 . S
C133 C132 1.377 . S
C133 C134 1.395 . S
C133 H156 0.931 . S
C134 C133 1.395 . S
C134 C135 1.383 . S
C134 H157 0.931 . S
C135 C134 1.383 . S
C135 C136 1.394 . S
C136 C135 1.394 . S
C136 C137 1.378 . S
C136 H158 0.931 . S
C137 C132 1.377 . S
C137 C136 1.378 . S
C137 H159 0.931 . S
C138 O148 1.259 . S
C138 O149 1.270 . S
C139 O150 1.251 . S
C139 O151 1.251 . S
O140 C120 1.257 . S
O140 Eu121 2.473 . S
O141 C120 1.260 . S
O141 Eu121 2.480 . S
O142 Eu121 2.430 . S
O142 C128 1.259 . S
O143 Eu121 2.670 . S
O143 C128 1.270 . S
O143 Eu131 2.355 . S
O144 Eu121 2.394 . S
O144 C129 1.251 . S
O145 C129 1.251 . S
O145 Eu131 2.374 . S
O146 C130 1.257 . S
O146 Eu131 2.473 . S
O147 C130 1.260 . S
O147 Eu131 2.480 . S
O148 Eu131 2.430 . S
O148 C138 1.259 . S
O149 Eu121 2.355 . S
O149 Eu131 2.670 . S
O149 C138 1.270 . S
O150 Eu131 2.394 . S
O150 C139 1.251 . S
O151 Eu121 2.374 . S
O151 C139 1.251 . S
H152 C123 0.931 . S
H153 C124 0.931 . S
H154 C126 0.931 . S
H155 C127 0.931 . S
H156 C133 0.931 . S
H157 C134 0.931 . S
H158 C136 0.931 . S
H159 C137 0.931 . S
C160 Eu161 2.835 . S
C160 C162 1.500 . S
C160 O180 1.257 . S
C160 O181 1.260 . S
Eu161 C160 2.835 . S
Eu161 O180 2.473 . S
Eu161 O181 2.480 . S
Eu161 O182 2.430 . S
Eu161 O183 2.670 . S
Eu161 O184 2.394 . S
Eu161 O189 2.355 . S
Eu161 O191 2.374 . S
C162 C160 1.500 . S
C162 C163 1.377 . S
C162 C167 1.377 . S
C163 C162 1.377 . S
C163 C164 1.395 . S
C163 H192 0.931 . S
C164 C163 1.395 . S
C164 C165 1.383 . S
C164 H193 0.931 . S
C165 C164 1.383 . S
C165 C166 1.394 . S
C166 C165 1.394 . S
C166 C167 1.378 . S
C166 H194 0.931 . S
C167 C162 1.377 . S
C167 C166 1.378 . S
C167 H195 0.931 . S
C168 O182 1.259 . S
C168 O183 1.270 . S
C169 O184 1.251 . S
C169 O185 1.251 . S
C170 Eu171 2.835 . S
C170 C172 1.500 . S
C170 O186 1.257 . S
C170 O187 1.260 . S
Eu171 C170 2.835 . S
Eu171 O183 2.355 . S
Eu171 O185 2.374 . S
Eu171 O186 2.473 . S
Eu171 O187 2.480 . S
Eu171 O188 2.430 . S
Eu171 O189 2.670 . S
Eu171 O190 2.394 . S
C172 C170 1.500 . S
C172 C173 1.377 . S
C172 C177 1.377 . S
C173 C172 1.377 . S
C173 C174 1.395 . S
C173 H196 0.931 . S
C174 C173 1.395 . S
C174 C175 1.383 . S
C174 H197 0.931 . S
C175 C174 1.383 . S
C175 C176 1.394 . S
C176 C175 1.394 . S
C176 C177 1.378 . S
C176 H198 0.931 . S
C177 C172 1.377 . S
C177 C176 1.378 . S
C177 H199 0.931 . S
C178 O188 1.259 . S
C178 O189 1.270 . S
C179 O190 1.251 . S
C179 O191 1.251 . S
O180 C160 1.257 . S
O180 Eu161 2.473 . S
O181 C160 1.260 . S
O181 Eu161 2.480 . S
O182 Eu161 2.430 . S
O182 C168 1.259 . S
O183 Eu161 2.670 . S
O183 C168 1.270 . S
O183 Eu171 2.355 . S
O184 Eu161 2.394 . S
O184 C169 1.251 . S
O185 C169 1.251 . S
O185 Eu171 2.374 . S
O186 C170 1.257 . S
O186 Eu171 2.473 . S
O187 C170 1.260 . S
O187 Eu171 2.480 . S
O188 Eu171 2.430 . S
O188 C178 1.259 . S
O189 Eu161 2.355 . S
O189 Eu171 2.670 . S
O189 C178 1.270 . S
O190 Eu171 2.394 . S
O190 C179 1.251 . S
O191 Eu161 2.374 . S
O191 C179 1.251 . S
H192 C163 0.931 . S
H193 C164 0.931 . S
H194 C166 0.931 . S
H195 C167 0.931 . S
H196 C173 0.931 . S
H197 C174 0.931 . S
H198 C176 0.931 . S
H199 C177 0.931 . S
C200 Eu201 2.835 . S
C200 C202 1.500 . S
C200 O220 1.257 . S
C200 O221 1.260 . S
Eu201 C200 2.835 . S
Eu201 O220 2.473 . S
Eu201 O221 2.480 . S
Eu201 O222 2.430 . S
Eu201 O223 2.670 . S
Eu201 O224 2.394 . S
Eu201 O229 2.355 . S
Eu201 O231 2.374 . S
C202 C200 1.500 . S
C202 C203 1.377 . S
C202 C207 1.377 . S
C203 C202 1.377 . S
C203 C204 1.395 . S
C203 H232 0.931 . S
C204 C203 1.395 . S
C204 C205 1.383 . S
C204 H233 0.931 . S
C205 C204 1.383 . S
C205 C206 1.394 . S
C206 C205 1.394 . S
C206 C207 1.378 . S
C206 H234 0.931 . S
C207 C202 1.377 . S
C207 C206 1.378 . S
C207 H235 0.931 . S
C208 O222 1.259 . S
C208 O223 1.270 . S
C209 O224 1.251 . S
C209 O225 1.251 . S
C210 Eu211 2.835 . S
C210 C212 1.500 . S
C210 O226 1.257 . S
C210 O227 1.260 . S
Eu211 C210 2.835 . S
Eu211 O223 2.355 . S
Eu211 O225 2.374 . S
Eu211 O226 2.473 . S
Eu211 O227 2.480 . S
Eu211 O228 2.430 . S
Eu211 O229 2.670 . S
Eu211 O230 2.394 . S
C212 C210 1.500 . S
C212 C213 1.377 . S
C212 C217 1.377 . S
C213 C212 1.377 . S
C213 C214 1.395 . S
C213 H236 0.931 . S
C214 C213 1.395 . S
C214 C215 1.383 . S
C214 H237 0.931 . S
C215 C214 1.383 . S
C215 C216 1.394 . S
C216 C215 1.394 . S
C216 C217 1.378 . S
C216 H238 0.931 . S
C217 C212 1.377 . S
C217 C216 1.378 . S
C217 H239 0.931 . S
C218 O228 1.259 . S
C218 O229 1.270 . S
C219 O230 1.251 . S
C219 O231 1.251 . S
O220 C200 1.257 . S
O220 Eu201 2.473 . S
O221 C200 1.260 . S
O221 Eu201 2.480 . S
O222 Eu201 2.430 . S
O222 C208 1.259 . S
O223 Eu201 2.670 . S
O223 C208 1.270 . S
O223 Eu211 2.355 . S
O224 Eu201 2.394 . S
O224 C209 1.251 . S
O225 C209 1.251 . S
O225 Eu211 2.374 . S
O226 C210 1.257 . S
O226 Eu211 2.473 . S
O227 C210 1.260 . S
O227 Eu211 2.480 . S
O228 Eu211 2.430 . S
O228 C218 1.259 . S
O229 Eu201 2.355 . S
O229 Eu211 2.670 . S
O229 C218 1.270 . S
O230 Eu211 2.394 . S
O230 C219 1.251 . S
O231 Eu201 2.374 . S
O231 C219 1.251 . S
H232 C203 0.931 . S
H233 C204 0.931 . S
H234 C206 0.931 . S
H235 C207 0.931 . S
H236 C213 0.931 . S
H237 C214 0.931 . S
H238 C216 0.931 . S
H239 C217 0.931 . S
C240 Eu241 2.835 . S
C240 C242 1.500 . S
C240 O260 1.257 . S
C240 O261 1.260 . S
Eu241 C240 2.835 . S
Eu241 O260 2.473 . S
Eu241 O261 2.480 . S
Eu241 O262 2.430 . S
Eu241 O263 2.670 . S
Eu241 O264 2.394 . S
Eu241 O269 2.355 . S
Eu241 O271 2.374 . S
C242 C240 1.500 . S
C242 C243 1.377 . S
C242 C247 1.377 . S
C243 C242 1.377 . S
C243 C244 1.395 . S
C243 H272 0.931 . S
C244 C243 1.395 . S
C244 C245 1.383 . S
C244 H273 0.931 . S
C245 C244 1.383 . S
C245 C246 1.394 . S
C246 C245 1.394 . S
C246 C247 1.378 . S
C246 H274 0.931 . S
C247 C242 1.377 . S
C247 C246 1.378 . S
C247 H275 0.931 . S
C248 O262 1.259 . S
C248 O263 1.270 . S
C249 O264 1.251 . S
C249 O265 1.251 . S
C250 Eu251 2.835 . S
C250 C252 1.500 . S
C250 O266 1.257 . S
C250 O267 1.260 . S
Eu251 C250 2.835 . S
Eu251 O263 2.355 . S
Eu251 O265 2.374 . S
Eu251 O266 2.473 . S
Eu251 O267 2.480 . S
Eu251 O268 2.430 . S
Eu251 O269 2.670 . S
Eu251 O270 2.394 . S
C252 C250 1.500 . S
C252 C253 1.377 . S
C252 C257 1.377 . S
C253 C252 1.377 . S
C253 C254 1.395 . S
C253 H276 0.931 . S
C254 C253 1.395 . S
C254 C255 1.383 . S
C254 H277 0.931 . S
C255 C254 1.383 . S
C255 C256 1.394 . S
C256 C255 1.394 . S
C256 C257 1.378 . S
C256 H278 0.931 . S
C257 C252 1.377 . S
C257 C256 1.378 . S
C257 H279 0.931 . S
C258 O268 1.259 . S
C258 O269 1.270 . S
C259 O270 1.251 . S
C259 O271 1.251 . S
O260 C240 1.257 . S
O260 Eu241 2.473 . S
O261 C240 1.260 . S
O261 Eu241 2.480 . S
O262 Eu241 2.430 . S
O262 C248 1.259 . S
O263 Eu241 2.670 . S
O263 C248 1.270 . S
O263 Eu251 2.355 . S
O264 Eu241 2.394 . S
O264 C249 1.251 . S
O265 C249 1.251 . S
O265 Eu251 2.374 . S
O266 C250 1.257 . S
O266 Eu251 2.473 . S
O267 C250 1.260 . S
O267 Eu251 2.480 . S
O268 Eu251 2.430 . S
O268 C258 1.259 . S
O269 Eu241 2.355 . S
O269 Eu251 2.670 . S
O269 C258 1.270 . S
O270 Eu251 2.394 . S
O270 C259 1.251 . S
O271 Eu241 2.374 . S
O271 C259 1.251 . S
H272 C243 0.931 . S
H273 C244 0.931 . S
H274 C246 0.931 . S
H275 C247 0.931 . S
H276 C253 0.931 . S
H277 C254 0.931 . S
H278 C256 0.931 . S
H279 C257 0.931 . S
C280 Eu281 2.835 . S
C280 C282 1.500 . S
C280 O300 1.257 . S
C280 O301 1.260 . S
Eu281 C280 2.835 . S
Eu281 O300 2.473 . S
Eu281 O301 2.480 . S
Eu281 O302 2.430 . S
Eu281 O303 2.670 . S
Eu281 O304 2.394 . S
Eu281 O309 2.355 . S
Eu281 O311 2.374 . S
C282 C280 1.500 . S
C282 C283 1.377 . S
C282 C287 1.377 . S
C283 C282 1.377 . S
C283 C284 1.395 . S
C283 H312 0.931 . S
C284 C283 1.395 . S
C284 C285 1.383 . S
C284 H313 0.931 . S
C285 C284 1.383 . S
C285 C286 1.394 . S
C286 C285 1.394 . S
C286 C287 1.378 . S
C286 H314 0.931 . S
C287 C282 1.377 . S
C287 C286 1.378 . S
C287 H315 0.931 . S
C288 O302 1.259 . S
C288 O303 1.270 . S
C289 O304 1.251 . S
C289 O305 1.251 . S
C290 Eu291 2.835 . S
C290 C292 1.500 . S
C290 O306 1.257 . S
C290 O307 1.260 . S
Eu291 C290 2.835 . S
Eu291 O303 2.355 . S
Eu291 O305 2.374 . S
Eu291 O306 2.473 . S
Eu291 O307 2.480 . S
Eu291 O308 2.430 . S
Eu291 O309 2.670 . S
Eu291 O310 2.394 . S
C292 C290 1.500 . S
C292 C293 1.377 . S
C292 C297 1.377 . S
C293 C292 1.377 . S
C293 C294 1.395 . S
C293 H316 0.931 . S
C294 C293 1.395 . S
C294 C295 1.383 . S
C294 H317 0.931 . S
C295 C294 1.383 . S
C295 C296 1.394 . S
C296 C295 1.394 . S
C296 C297 1.378 . S
C296 H318 0.931 . S
C297 C292 1.377 . S
C297 C296 1.378 . S
C297 H319 0.931 . S
C298 O308 1.259 . S
C298 O309 1.270 . S
C299 O310 1.251 . S
C299 O311 1.251 . S
O300 C280 1.257 . S
O300 Eu281 2.473 . S
O301 C280 1.260 . S
O301 Eu281 2.480 . S
O302 Eu281 2.430 . S
O302 C288 1.259 . S
O303 Eu281 2.670 . S
O303 C288 1.270 . S
O303 Eu291 2.355 . S
O304 Eu281 2.394 . S
O304 C289 1.251 . S
O305 C289 1.251 . S
O305 Eu291 2.374 . S
O306 C290 1.257 . S
O306 Eu291 2.473 . S
O307 C290 1.260 . S
O307 Eu291 2.480 . S
O308 Eu291 2.430 . S
O308 C298 1.259 . S
O309 Eu281 2.355 . S
O309 Eu291 2.670 . S
O309 C298 1.270 . S
O310 Eu291 2.394 . S
O310 C299 1.251 . S
O311 Eu281 2.374 . S
O311 C299 1.251 . S
H312 C283 0.931 . S
H313 C284 0.931 . S
H314 C286 0.931 . S
H315 C287 0.931 . S
H316 C293 0.931 . S
H317 C294 0.931 . S
H318 C296 0.931 . S
H319 C297 0.931 . S
C320 Eu321 2.835 . S
C320 C322 1.500 . S
C320 O340 1.257 . S
C320 O341 1.260 . S
Eu321 C320 2.835 . S
Eu321 O340 2.473 . S
Eu321 O341 2.480 . S
Eu321 O342 2.430 . S
Eu321 O343 2.670 . S
Eu321 O344 2.394 . S
Eu321 O349 2.355 . S
Eu321 O351 2.374 . S
C322 C320 1.500 . S
C322 C323 1.377 . S
C322 C327 1.377 . S
C323 C322 1.377 . S
C323 C324 1.395 . S
C323 H352 0.931 . S
C324 C323 1.395 . S
C324 C325 1.383 . S
C324 H353 0.931 . S
C325 C324 1.383 . S
C325 C326 1.394 . S
C326 C325 1.394 . S
C326 C327 1.378 . S
C326 H354 0.931 . S
C327 C322 1.377 . S
C327 C326 1.378 . S
C327 H355 0.931 . S
C328 O342 1.259 . S
C328 O343 1.270 . S
C329 O344 1.251 . S
C329 O345 1.251 . S
C330 Eu331 2.835 . S
C330 C332 1.500 . S
C330 O346 1.257 . S
C330 O347 1.260 . S
Eu331 C330 2.835 . S
Eu331 O343 2.355 . S
Eu331 O345 2.374 . S
Eu331 O346 2.473 . S
Eu331 O347 2.480 . S
Eu331 O348 2.430 . S
Eu331 O349 2.670 . S
Eu331 O350 2.394 . S
C332 C330 1.500 . S
C332 C333 1.377 . S
C332 C337 1.377 . S
C333 C332 1.377 . S
C333 C334 1.395 . S
C333 H356 0.931 . S
C334 C333 1.395 . S
C334 C335 1.383 . S
C334 H357 0.931 . S
C335 C334 1.383 . S
C335 C336 1.394 . S
C336 C335 1.394 . S
C336 C337 1.378 . S
C336 H358 0.931 . S
C337 C332 1.377 . S
C337 C336 1.378 . S
C337 H359 0.931 . S
C338 O348 1.259 . S
C338 O349 1.270 . S
C339 O350 1.251 . S
C339 O351 1.251 . S
O340 C320 1.257 . S
O340 Eu321 2.473 . S
O341 C320 1.260 . S
O341 Eu321 2.480 . S
O342 Eu321 2.430 . S
O342 C328 1.259 . S
O343 Eu321 2.670 . S
O343 C328 1.270 . S
O343 Eu331 2.355 . S
O344 Eu321 2.394 . S
O344 C329 1.251 . S
O345 C329 1.251 . S
O345 Eu331 2.374 . S
O346 C330 1.257 . S
O346 Eu331 2.473 . S
O347 C330 1.260 . S
O347 Eu331 2.480 . S
O348 Eu331 2.430 . S
O348 C338 1.259 . S
O349 Eu321 2.355 . S
O349 Eu331 2.670 . S
O349 C338 1.270 . S
O350 Eu331 2.394 . S
O350 C339 1.251 . S
O351 Eu321 2.374 . S
O351 C339 1.251 . S
H352 C323 0.931 . S
H353 C324 0.931 . S
H354 C326 0.931 . S
H355 C327 0.931 . S
H356 C333 0.931 . S
H357 C334 0.931 . S
H358 C336 0.931 . S
H359 C337 0.931 . S
H360 C366 0.930 . S
H361 C370 0.930 . S
H362 C375 0.929 . S
H363 C373 0.929 . S
H364 C368 0.929 . S
H365 C374 0.929 1_554 S
C366 H360 0.930 . S
C366 C367 1.367 1_554 S
C366 C374 1.378 1_554 S
C367 C366 1.367 1_556 S
C367 C375 1.433 . S
C368 H364 0.929 . S
C368 C370 1.378 . S
C368 C372 1.350 . S
C369 C372 1.463 . S
C369 C374 1.350 . S
C369 N377 1.427 . S
C370 H361 0.930 . S
C370 C368 1.378 . S
C370 C371 1.367 . S
C371 C370 1.367 . S
C371 C373 1.433 . S
C372 C368 1.350 . S
C372 C369 1.463 . S
C372 N376 1.427 . S
C373 H363 0.929 . S
C373 C371 1.433 . S
C373 N376 1.384 . S
C374 H365 0.929 1_556 S
C374 C366 1.378 1_556 S
C374 C369 1.350 . S
C375 H362 0.929 . S
C375 C367 1.433 . S
C375 N377 1.384 . S
N376 C372 1.427 . S
N376 C373 1.384 . S
N377 C369 1.427 . S
N377 C375 1.384 . S
H378 C384 0.930 . S
H379 C388 0.930 . S
H380 C393 0.929 . S
H381 C391 0.929 . S
H382 C386 0.929 . S
H383 C392 0.930 . S
C384 H378 0.930 . S
C384 C385 1.367 1_554 S
C384 C392 1.378 1_554 S
C385 C384 1.367 1_556 S
C385 C393 1.433 . S
C386 H382 0.929 . S
C386 C388 1.378 . S
C386 C390 1.350 . S
C387 C390 1.463 . S
C387 C392 1.350 . S
C387 N395 1.427 . S
C388 H379 0.930 . S
C388 C386 1.378 . S
C388 C389 1.367 . S
C389 C388 1.367 . S
C389 C391 1.433 . S
C390 C386 1.350 . S
C390 C387 1.463 . S
C390 N394 1.427 . S
C391 H381 0.929 . S
C391 C389 1.433 . S
C391 N394 1.384 . S
C392 H383 0.930 . S
C392 C384 1.378 1_556 S
C392 C387 1.350 . S
C393 H380 0.929 . S
C393 C385 1.433 . S
C393 N395 1.384 . S
N394 C390 1.427 . S
N394 C391 1.384 . S
N395 C387 1.427 . S
N395 C393 1.384 . S
H396 C402 0.930 1_545 S
H397 C406 0.930 . S
H398 C411 0.929 . S
H399 C409 0.929 . S
H400 C404 0.929 . S
H401 C410 0.929 . S
C402 H396 0.930 1_565 S
C402 C403 1.367 . S
C402 C410 1.378 . S
C403 C402 1.367 . S
C403 C411 1.433 . S
C404 H400 0.929 . S
C404 C406 1.378 . S
C404 C408 1.350 . S
C405 C408 1.463 . S
C405 C410 1.350 . S
C405 N413 1.427 . S
C406 H397 0.930 . S
C406 C404 1.378 . S
C406 C407 1.367 . S
C407 C406 1.367 . S
C407 C409 1.433 . S
C408 C404 1.350 . S
C408 C405 1.463 . S
C408 N412 1.427 . S
C409 H399 0.929 . S
C409 C407 1.433 . S
C409 N412 1.384 . S
C410 H401 0.929 . S
C410 C402 1.378 . S
C410 C405 1.350 . S
C411 H398 0.929 . S
C411 C403 1.433 . S
C411 N413 1.384 . S
N412 C408 1.427 . S
N412 C409 1.384 . S
N413 C405 1.427 . S
N413 C411 1.384 . S
H414 C420 0.930 . S
H415 C424 0.930 . S
H416 C429 0.929 . S
H417 C427 0.920 1_556 S
H418 C422 0.929 . S
H419 C428 0.929 . S
C420 H414 0.930 . S
C420 C421 1.367 . S
C420 C428 1.378 . S
C421 C420 1.367 . S
C421 C429 1.433 . S
C422 H418 0.929 . S
C422 C424 1.378 . S
C422 C426 1.350 . S
C423 C426 1.463 . S
C423 C428 1.350 . S
C423 N431 1.427 . S
C424 H415 0.930 . S
C424 C422 1.378 . S
C424 C425 1.367 . S
C425 C424 1.367 . S
C425 C427 1.433 . S
C426 C422 1.350 . S
C426 C423 1.463 . S
C426 N430 1.427 . S
C427 H417 0.920 1_554 S
C427 C425 1.433 . S
C427 N430 1.384 . S
C428 H419 0.929 . S
C428 C420 1.378 . S
C428 C423 1.350 . S
C429 H416 0.929 . S
C429 C421 1.433 . S
C429 N431 1.384 . S
N430 C426 1.427 . S
N430 C427 1.384 . S
N431 C423 1.427 . S
N431 C429 1.384 . S
H432 C438 0.930 . S
H433 C442 0.924 1_556 S
H434 C447 0.929 . S
H435 C445 0.929 . S
H436 C440 0.929 . S
H437 C446 0.929 . S
C438 H432 0.930 . S
C438 C439 1.367 . S
C438 C446 1.378 . S
C439 C438 1.367 . S
C439 C447 1.433 . S
C440 H436 0.929 . S
C440 C442 1.378 . S
C440 C444 1.350 . S
C441 C444 1.463 . S
C441 C446 1.350 . S
C441 N449 1.427 . S
C442 H433 0.924 1_554 S
C442 C440 1.378 . S
C442 C443 1.367 . S
C443 C442 1.367 . S
C443 C445 1.433 . S
C444 C440 1.350 . S
C444 C441 1.463 . S
C444 N448 1.427 . S
C445 H435 0.929 . S
C445 C443 1.433 . S
C445 N448 1.384 . S
C446 H437 0.929 . S
C446 C438 1.378 . S
C446 C441 1.350 . S
C447 H434 0.929 . S
C447 C439 1.433 . S
C447 N449 1.384 . S
N448 C444 1.427 . S
N448 C445 1.384 . S
N449 C441 1.427 . S
N449 C447 1.384 . S
H450 C456 0.930 . S
H451 C460 0.930 . S
H452 C465 0.929 . S
H453 C463 0.929 . S
H454 C458 0.929 . S
H455 C464 0.929 . S
C456 H450 0.930 . S
C456 C457 1.367 . S
C456 C464 1.378 . S
C457 C456 1.367 . S
C457 C465 1.433 . S
C458 H454 0.929 . S
C458 C460 1.378 . S
C458 C462 1.350 . S
C459 C462 1.463 . S
C459 C464 1.350 . S
C459 N467 1.427 . S
C460 H451 0.930 . S
C460 C458 1.378 . S
C460 C461 1.367 . S
C461 C460 1.367 . S
C461 C463 1.433 . S
C462 C458 1.350 . S
C462 C459 1.463 . S
C462 N466 1.427 . S
C463 H453 0.929 . S
C463 C461 1.433 . S
C463 N466 1.384 . S
C464 H455 0.929 . S
C464 C456 1.378 . S
C464 C459 1.350 . S
C465 H452 0.929 . S
C465 C457 1.433 . S
C465 N467 1.384 . S
N466 C462 1.427 . S
N466 C463 1.384 . S
N467 C459 1.427 . S
N467 C465 1.384 . S
H468 C474 0.930 . S
H469 C478 0.930 . S
H470 C483 0.929 . S
H471 C481 0.929 1_655 S
H472 C476 0.929 . S
H473 C482 0.929 . S
C474 H468 0.930 . S
C474 C475 1.367 . S
C474 C482 1.378 . S
C475 C474 1.367 . S
C475 C483 1.433 . S
C476 H472 0.929 . S
C476 C478 1.378 . S
C476 C480 1.350 . S
C477 C480 1.463 . S
C477 C482 1.350 . S
C477 N485 1.427 . S
C478 H469 0.930 . S
C478 C476 1.378 . S
C478 C479 1.367 . S
C479 C478 1.367 . S
C479 C481 1.433 . S
C480 C476 1.350 . S
C480 C477 1.463 . S
C480 N484 1.427 . S
C481 H471 0.929 1_455 S
C481 C479 1.433 . S
C481 N484 1.384 . S
C482 H473 0.929 . S
C482 C474 1.378 . S
C482 C477 1.350 . S
C483 H470 0.929 . S
C483 C475 1.433 . S
C483 N485 1.384 . S
N484 C480 1.427 . S
N484 C481 1.384 . S
N485 C477 1.427 . S
N485 C483 1.384 . S
H486 C492 0.930 . S
H487 C496 0.930 . S
H488 C501 0.929 . S
H489 C499 0.929 . S
H490 C494 0.929 . S
H491 C500 0.929 . S
C492 H486 0.930 . S
C492 C493 1.367 . S
C492 C500 1.378 . S
C493 C492 1.367 . S
C493 C501 1.433 . S
C494 H490 0.929 . S
C494 C496 1.378 . S
C494 C498 1.350 . S
C495 C498 1.463 . S
C495 C500 1.350 . S
C495 N503 1.427 . S
C496 H487 0.930 . S
C496 C494 1.378 . S
C496 C497 1.367 . S
C497 C496 1.367 . S
C497 C499 1.433 . S
C498 C494 1.350 . S
C498 C495 1.463 . S
C498 N502 1.427 . S
C499 H489 0.929 . S
C499 C497 1.433 . S
C499 N502 1.384 . S
C500 H491 0.929 . S
C500 C492 1.378 . S
C500 C495 1.350 . S
C501 H488 0.929 . S
C501 C493 1.433 . S
C501 N503 1.384 . S
N502 C498 1.427 . S
N502 C499 1.384 . S
N503 C495 1.427 . S
N503 C501 1.384 . S
H504 C510 0.930 . S
H505 C514 0.930 . S
H506 C519 0.931 1_545 S
H507 C517 0.929 . S
H508 C512 0.929 . S
H509 C518 0.929 . S
C510 H504 0.930 . S
C510 C511 1.367 . S
C510 C518 1.378 1_545 S
C511 C510 1.367 . S
C511 C519 1.433 1_545 S
C512 H508 0.929 . S
C512 C514 1.378 . S
C512 C516 1.350 . S
C513 C516 1.463 . S
C513 C518 1.350 . S
C513 N521 1.427 . S
C514 H505 0.930 . S
C514 C512 1.378 . S
C514 C515 1.367 . S
C515 C514 1.367 . S
C515 C517 1.433 . S
C516 C512 1.350 . S
C516 C513 1.463 . S
C516 N520 1.427 . S
C517 H507 0.929 . S
C517 C515 1.433 . S
C517 N520 1.384 . S
C518 H509 0.929 . S
C518 C510 1.378 1_565 S
C518 C513 1.350 . S
C519 H506 0.931 1_565 S
C519 C511 1.433 1_565 S
C519 N521 1.384 . S
N520 C516 1.427 . S
N520 C517 1.384 . S
N521 C513 1.427 . S
N521 C519 1.384 . S
H522 C528 0.930 . S
H523 C532 0.930 . S
H524 C537 0.929 . S
H525 C535 0.929 . S
H526 C530 0.929 . S
H527 C536 0.929 . S
C528 H522 0.930 . S
C528 C529 1.367 1_556 S
C528 C536 1.378 . S
C529 C528 1.367 1_554 S
C529 C537 1.433 . S
C530 H526 0.929 . S
C530 C532 1.378 . S
C530 C534 1.350 1_554 S
C531 C534 1.463 . S
C531 C536 1.350 . S
C531 N539 1.427 1_556 S
C532 H523 0.930 . S
C532 C530 1.378 . S
C532 C533 1.367 1_554 S
C533 C532 1.367 1_556 S
C533 C535 1.433 . S
C534 C530 1.350 1_556 S
C534 C531 1.463 . S
C534 N538 1.427 . S
C535 H525 0.929 . S
C535 C533 1.433 . S
C535 N538 1.384 . S
C536 H527 0.929 . S
C536 C528 1.378 . S
C536 C531 1.350 . S
C537 H524 0.929 . S
C537 C529 1.433 . S
C537 N539 1.384 . S
N538 C534 1.427 . S
N538 C535 1.384 . S
N539 C531 1.427 1_554 S
N539 C537 1.384 . S
H540 C546 0.930 . S
H541 C550 0.930 . S
H542 C555 0.941 . S
H543 C553 0.929 . S
H544 C548 0.929 . S
H545 C554 0.929 . S
C546 H540 0.930 . S
C546 C547 1.367 . S
C546 C554 1.378 . S
C547 C546 1.367 . S
C547 C555 1.433 1_556 S
C548 H544 0.929 . S
C548 C550 1.378 . S
C548 C552 1.350 1_554 S
C549 C552 1.463 . S
C549 C554 1.350 . S
C549 N557 1.427 1_556 S
C550 H541 0.930 . S
C550 C548 1.378 . S
C550 C551 1.367 . S
C551 C550 1.367 . S
C551 C553 1.433 1_554 S
C552 C548 1.350 1_556 S
C552 C549 1.463 . S
C552 N556 1.427 . S
C553 H543 0.929 . S
C553 C551 1.433 1_556 S
C553 N556 1.384 . S
C554 H545 0.929 . S
C554 C546 1.378 . S
C554 C549 1.350 . S
C555 H542 0.941 . S
C555 C547 1.433 1_554 S
C555 N557 1.384 . S
N556 C552 1.427 . S
N556 C553 1.384 . S
N557 C549 1.427 1_554 S
N557 C555 1.384 . S
H558 C564 0.930 . S
H559 C568 0.930 . S
H560 C573 0.929 . S
H561 C571 0.929 . S
H562 C566 0.929 . S
H563 C572 0.929 . S
C564 H558 0.930 . S
C564 C565 1.367 1_556 S
C564 C572 1.378 . S
C565 C564 1.367 1_554 S
C565 C573 1.433 . S
C566 H562 0.929 . S
C566 C568 1.378 1_655 S
C566 C570 1.350 1_554 S
C567 C570 1.463 . S
C567 C572 1.350 . S
C567 N575 1.427 1_556 S
C568 H559 0.930 . S
C568 C566 1.378 1_455 S
C568 C569 1.367 1_554 S
C569 C568 1.367 1_556 S
C569 C571 1.433 . S
C570 C566 1.350 1_556 S
C570 C567 1.463 . S
C570 N574 1.427 . S
C571 H561 0.929 . S
C571 C569 1.433 . S
C571 N574 1.384 1_455 S
C572 H563 0.929 . S
C572 C564 1.378 . S
C572 C567 1.350 . S
C573 H560 0.929 . S
C573 C565 1.433 . S
C573 N575 1.384 . S
N574 C570 1.427 . S
N574 C571 1.384 1_655 S
N575 C567 1.427 1_554 S
N575 C573 1.384 . S
H576 C582 0.930 . S
H577 C586 0.930 . S
H578 C591 0.929 . S
H579 C589 0.929 . S
H580 C584 0.929 . S
H581 C590 0.929 . S
C582 H576 0.930 . S
C582 C583 1.367 . S
C582 C590 1.378 . S
C583 C582 1.367 . S
C583 C591 1.433 . S
C584 H580 0.929 . S
C584 C586 1.378 . S
C584 C588 1.350 . S
C585 C588 1.463 . S
C585 C590 1.350 . S
C585 N593 1.427 . S
C586 H577 0.930 . S
C586 C584 1.378 . S
C586 C587 1.367 . S
C587 C586 1.367 . S
C587 C589 1.433 . S
C588 C584 1.350 . S
C588 C585 1.463 . S
C588 N592 1.427 . S
C589 H579 0.929 . S
C589 C587 1.433 . S
C589 N592 1.384 . S
C590 H581 0.929 . S
C590 C582 1.378 . S
C590 C585 1.350 . S
C591 H578 0.929 . S
C591 C583 1.433 . S
C591 N593 1.384 . S
N592 C588 1.427 . S
N592 C589 1.384 . S
N593 C585 1.427 . S
N593 C591 1.384 . S
H594 C600 0.930 . S
H595 C604 0.930 . S
H596 C609 0.929 . S
H597 C607 0.929 . S
H598 C602 0.929 . S
H599 C608 0.929 . S
C600 H594 0.930 . S
C600 C601 1.367 . S
C600 C608 1.378 . S
C601 C600 1.367 . S
C601 C609 1.433 . S
C602 H598 0.929 . S
C602 C604 1.378 . S
C602 C606 1.350 . S
C603 C606 1.463 . S
C603 C608 1.350 . S
C603 N611 1.427 . S
C604 H595 0.930 . S
C604 C602 1.378 . S
C604 C605 1.367 . S
C605 C604 1.367 . S
C605 C607 1.433 . S
C606 C602 1.350 . S
C606 C603 1.463 . S
C606 N610 1.427 . S
C607 H597 0.929 . S
C607 C605 1.433 . S
C607 N610 1.384 . S
C608 H599 0.929 . S
C608 C600 1.378 . S
C608 C603 1.350 . S
C609 H596 0.929 . S
C609 C601 1.433 . S
C609 N611 1.384 . S
N610 C606 1.427 . S
N610 C607 1.384 . S
N611 C603 1.427 . S
N611 C609 1.384 . S
H612 C618 0.930 . S
H613 C622 0.930 . S
H614 C627 0.929 . S
H615 C625 0.929 . S
H616 C620 0.929 . S
H617 C626 0.929 . S
C618 H612 0.930 . S
C618 C619 1.367 . S
C618 C626 1.378 . S
C619 C618 1.367 . S
C619 C627 1.433 . S
C620 H616 0.929 . S
C620 C622 1.378 . S
C620 C624 1.350 . S
C621 C624 1.463 . S
C621 C626 1.350 . S
C621 N629 1.427 . S
C622 H613 0.930 . S
C622 C620 1.378 . S
C622 C623 1.367 . S
C623 C622 1.367 . S
C623 C625 1.433 . S
C624 C620 1.350 . S
C624 C621 1.463 . S
C624 N628 1.427 . S
C625 H615 0.929 . S
C625 C623 1.433 . S
C625 N628 1.384 . S
C626 H617 0.929 . S
C626 C618 1.378 . S
C626 C621 1.350 . S
C627 H614 0.929 . S
C627 C619 1.433 . S
C627 N629 1.384 . S
N628 C624 1.427 . S
N628 C625 1.384 . S
N629 C621 1.427 . S
N629 C627 1.384 . S
H630 C636 0.930 . S
H631 C640 0.930 . S
H632 C645 0.929 . S
H633 C643 0.929 . S
H634 C638 0.929 . S
H635 C644 0.929 . S
C636 H630 0.930 . S
C636 C637 1.367 . S
C636 C644 1.378 . S
C637 C636 1.367 . S
C637 C645 1.433 . S
C638 H634 0.929 . S
C638 C640 1.378 . S
C638 C642 1.350 . S
C639 C642 1.463 . S
C639 C644 1.350 . S
C639 N647 1.427 . S
C640 H631 0.930 . S
C640 C638 1.378 . S
C640 C641 1.367 . S
C641 C640 1.367 . S
C641 C643 1.433 . S
C642 C638 1.350 . S
C642 C639 1.463 . S
C642 N646 1.427 . S
C643 H633 0.929 . S
C643 C641 1.433 . S
C643 N646 1.384 . S
C644 H635 0.929 . S
C644 C636 1.378 . S
C644 C639 1.350 . S
C645 H632 0.929 . S
C645 C637 1.433 . S
C645 N647 1.384 . S
N646 C642 1.427 . S
N646 C643 1.384 . S
N647 C639 1.427 . S
N647 C645 1.384 . S
H648 C654 0.930 . S
H649 C658 0.930 . S
H650 C663 0.929 . S
H651 C661 0.929 . S
H652 C656 0.929 . S
H653 C662 0.929 . S
C654 H648 0.930 . S
C654 C655 1.367 . S
C654 C662 1.378 . S
C655 C654 1.367 . S
C655 C663 1.433 . S
C656 H652 0.929 . S
C656 C658 1.378 . S
C656 C660 1.350 . S
C657 C660 1.463 . S
C657 C662 1.350 . S
C657 N665 1.427 . S
C658 H649 0.930 . S
C658 C656 1.378 . S
C658 C659 1.367 . S
C659 C658 1.367 . S
C659 C661 1.433 . S
C660 C656 1.350 . S
C660 C657 1.463 . S
C660 N664 1.427 . S
C661 H651 0.929 . S
C661 C659 1.433 . S
C661 N664 1.384 . S
C662 H653 0.929 . S
C662 C654 1.378 . S
C662 C657 1.350 . S
C663 H650 0.929 . S
C663 C655 1.433 . S
C663 N665 1.384 . S
N664 C660 1.427 . S
N664 C661 1.384 . S
N665 C657 1.427 . S
N665 C663 1.384 . S
H666 C672 0.930 . S
H667 C676 0.930 . S
H668 C681 0.929 . S
H669 C679 0.929 . S
H670 C674 0.929 . S
H671 C680 0.929 . S
C672 H666 0.930 . S
C672 C673 1.367 . S
C672 C680 1.378 . S
C673 C672 1.367 . S
C673 C681 1.433 . S
C674 H670 0.929 . S
C674 C676 1.378 . S
C674 C678 1.350 . S
C675 C678 1.463 . S
C675 C680 1.350 . S
C675 N683 1.427 . S
C676 H667 0.930 . S
C676 C674 1.378 . S
C676 C677 1.367 . S
C677 C676 1.367 . S
C677 C679 1.433 . S
C678 C674 1.350 . S
C678 C675 1.463 . S
C678 N682 1.427 . S
C679 H669 0.929 . S
C679 C677 1.433 . S
C679 N682 1.384 . S
C680 H671 0.929 . S
C680 C672 1.378 . S
C680 C675 1.350 . S
C681 H668 0.929 . S
C681 C673 1.433 . S
C681 N683 1.384 . S
N682 C678 1.427 . S
N682 C679 1.384 . S
N683 C675 1.427 . S
N683 C681 1.384 . S
H684 C690 0.930 . S
H685 C694 0.930 . S
H686 C699 0.929 . S
H687 C697 0.929 . S
H688 C692 0.929 . S
H689 C698 0.929 . S
C690 H684 0.930 . S
C690 C691 1.367 . S
C690 C698 1.378 . S
C691 C690 1.367 . S
C691 C699 1.433 1_455 S
C692 H688 0.929 . S
C692 C694 1.378 . S
C692 C696 1.350 1_655 S
C693 C696 1.463 . S
C693 C698 1.350 . S
C693 N701 1.427 1_455 S
C694 H685 0.930 . S
C694 C692 1.378 . S
C694 C695 1.367 1_655 S
C695 C694 1.367 1_455 S
C695 C697 1.433 . S
C696 C692 1.350 1_455 S
C696 C693 1.463 . S
C696 N700 1.427 . S
C697 H687 0.929 . S
C697 C695 1.433 . S
C697 N700 1.384 . S
C698 H689 0.929 . S
C698 C690 1.378 . S
C698 C693 1.350 . S
C699 H686 0.929 . S
C699 C691 1.433 1_655 S
C699 N701 1.384 . S
N700 C696 1.427 . S
N700 C697 1.384 . S
N701 C693 1.427 1_655 S
N701 C699 1.384 . S
H702 C708 0.930 . S
H703 C712 0.930 . S
H704 C717 0.929 . S
H705 C715 0.929 . S
H706 C710 0.929 . S
H707 C716 0.929 . S
C708 H702 0.930 . S
C708 C709 1.367 . S
C708 C716 1.378 . S
C709 C708 1.367 . S
C709 C717 1.433 . S
C710 H706 0.929 . S
C710 C712 1.378 . S
C710 C714 1.350 . S
C711 C714 1.463 . S
C711 C716 1.350 . S
C711 N719 1.427 . S
C712 H703 0.930 . S
C712 C710 1.378 . S
C712 C713 1.367 . S
C713 C712 1.367 . S
C713 C715 1.433 . S
C714 C710 1.350 . S
C714 C711 1.463 . S
C714 N718 1.427 . S
C715 H705 0.929 . S
C715 C713 1.433 . S
C715 N718 1.384 . S
C716 H707 0.929 . S
C716 C708 1.378 . S
C716 C711 1.350 . S
C717 H704 0.929 . S
C717 C709 1.433 . S
C717 N719 1.384 . S
N718 C714 1.427 . S
N718 C715 1.384 . S
N719 C711 1.427 . S
N719 C717 1.384 . S
H720 C726 0.930 . S
H721 C730 0.930 . S
H722 C735 0.929 . S
H723 C733 0.929 . S
H724 C728 0.929 . S
H725 C734 0.929 . S
C726 H720 0.930 . S
C726 C727 1.367 1_565 S
C726 C734 1.378 . S
C727 C726 1.367 1_545 S
C727 C735 1.433 . S
C728 H724 0.929 . S
C728 C730 1.378 . S
C728 C732 1.350 . S
C729 C732 1.463 . S
C729 C734 1.350 1_545 S
C729 N737 1.427 . S
C730 H721 0.930 . S
C730 C728 1.378 . S
C730 C731 1.367 . S
C731 C730 1.367 . S
C731 C733 1.433 1_545 S
C732 C728 1.350 . S
C732 C729 1.463 . S
C732 N736 1.427 1_545 S
C733 H723 0.929 . S
C733 C731 1.433 1_565 S
C733 N736 1.384 . S
C734 H725 0.929 . S
C734 C726 1.378 . S
C734 C729 1.350 1_565 S
C735 H722 0.929 . S
C735 C727 1.433 . S
C735 N737 1.384 . S
N736 C732 1.427 1_565 S
N736 C733 1.384 . S
N737 C729 1.427 . S
N737 C735 1.384 . S
H738 C744 0.930 . S
H739 C748 0.930 . S
H740 C753 0.929 . S
H741 C751 0.929 . S
H742 C746 0.929 . S
H743 C752 0.929 . S
C744 H738 0.930 . S
C744 C745 1.367 . S
C744 C752 1.378 . S
C745 C744 1.367 . S
C745 C753 1.433 . S
C746 H742 0.929 . S
C746 C748 1.378 1_556 S
C746 C750 1.350 . S
C747 C750 1.463 . S
C747 C752 1.350 . S
C747 N755 1.427 . S
C748 H739 0.930 . S
C748 C746 1.378 1_554 S
C748 C749 1.367 . S
C749 C748 1.367 . S
C749 C751 1.433 . S
C750 C746 1.350 . S
C750 C747 1.463 . S
C750 N754 1.427 . S
C751 H741 0.929 . S
C751 C749 1.433 . S
C751 N754 1.384 1_554 S
C752 H743 0.929 . S
C752 C744 1.378 . S
C752 C747 1.350 . S
C753 H740 0.929 . S
C753 C745 1.433 . S
C753 N755 1.384 . S
N754 C750 1.427 . S
N754 C751 1.384 1_556 S
N755 C747 1.427 . S
N755 C753 1.384 . S
H756 C762 0.930 . S
H757 C766 0.930 . S
H758 C771 0.929 . S
H759 C769 0.929 . S
H760 C764 0.929 . S
H761 C770 0.929 . S
C762 H756 0.930 . S
C762 C763 1.367 . S
C762 C770 1.378 . S
C763 C762 1.367 . S
C763 C771 1.433 . S
C764 H760 0.929 . S
C764 C766 1.378 1_556 S
C764 C768 1.350 . S
C765 C768 1.463 . S
C765 C770 1.350 . S
C765 N773 1.427 . S
C766 H757 0.930 . S
C766 C764 1.378 1_554 S
C766 C767 1.367 . S
C767 C766 1.367 . S
C767 C769 1.433 . S
C768 C764 1.350 . S
C768 C765 1.463 . S
C768 N772 1.427 . S
C769 H759 0.929 . S
C769 C767 1.433 . S
C769 N772 1.384 1_554 S
C770 H761 0.929 . S
C770 C762 1.378 . S
C770 C765 1.350 . S
C771 H758 0.929 . S
C771 C763 1.433 . S
C771 N773 1.384 . S
N772 C768 1.427 . S
N772 C769 1.384 1_556 S
N773 C765 1.427 . S
N773 C771 1.384 . S
H774 C780 0.930 . S
H775 C784 0.930 . S
H776 C789 0.929 . S
H777 C787 0.929 . S
H778 C782 0.929 . S
H779 C788 0.929 . S
C780 H774 0.930 . S
C780 C781 1.367 . S
C780 C788 1.378 . S
C781 C780 1.367 . S
C781 C789 1.433 . S
C782 H778 0.929 . S
C782 C784 1.378 1_556 S
C782 C786 1.350 . S
C783 C786 1.463 . S
C783 C788 1.350 . S
C783 N791 1.427 . S
C784 H775 0.930 . S
C784 C782 1.378 1_554 S
C784 C785 1.367 . S
C785 C784 1.367 . S
C785 C787 1.433 . S
C786 C782 1.350 . S
C786 C783 1.463 . S
C786 N790 1.427 . S
C787 H777 0.929 . S
C787 C785 1.433 . S
C787 N790 1.384 1_554 S
C788 H779 0.929 . S
C788 C780 1.378 . S
C788 C783 1.350 . S
C789 H776 0.929 . S
C789 C781 1.433 . S
C789 N791 1.384 . S
N790 C786 1.427 . S
N790 C787 1.384 1_556 S
N791 C783 1.427 . S
N791 C789 1.384 . S
H792 C798 0.930 . S
H793 C802 0.930 . S
H794 C807 0.929 . S
H795 C805 0.929 . S
H796 C800 0.929 . S
H797 C806 0.929 . S
C798 H792 0.930 . S
C798 C799 1.367 . S
C798 C806 1.378 . S
C799 C798 1.367 . S
C799 C807 1.433 . S
C800 H796 0.929 . S
C800 C802 1.378 1_554 S
C800 C804 1.350 . S
C801 C804 1.463 . S
C801 C806 1.350 . S
C801 N809 1.427 . S
C802 H793 0.930 . S
C802 C800 1.378 1_556 S
C802 C803 1.367 . S
C803 C802 1.367 . S
C803 C805 1.433 . S
C804 C800 1.350 . S
C804 C801 1.463 . S
C804 N808 1.427 . S
C805 H795 0.929 . S
C805 C803 1.433 . S
C805 N808 1.384 1_556 S
C806 H797 0.929 . S
C806 C798 1.378 . S
C806 C801 1.350 . S
C807 H794 0.929 . S
C807 C799 1.433 . S
C807 N809 1.384 . S
N808 C804 1.427 . S
N808 C805 1.384 1_554 S
N809 C801 1.427 . S
N809 C807 1.384 . S
H810 C816 0.930 . S
H811 C820 0.930 . S
H812 C825 0.929 . S
H813 C823 0.929 . S
H814 C818 0.929 . S
H815 C824 0.929 . S
C816 H810 0.930 . S
C816 C817 1.367 . S
C816 C824 1.378 1_556 S
C817 C816 1.367 . S
C817 C825 1.433 . S
C818 H814 0.929 . S
C818 C820 1.378 . S
C818 C822 1.350 . S
C819 C822 1.463 . S
C819 C824 1.350 . S
C819 N827 1.427 . S
C820 H811 0.930 . S
C820 C818 1.378 . S
C820 C821 1.367 . S
C821 C820 1.367 . S
C821 C823 1.433 . S
C822 C818 1.350 . S
C822 C819 1.463 . S
C822 N826 1.427 . S
C823 H813 0.929 . S
C823 C821 1.433 . S
C823 N826 1.384 . S
C824 H815 0.929 . S
C824 C816 1.378 1_554 S
C824 C819 1.350 . S
C825 H812 0.929 . S
C825 C817 1.433 . S
C825 N827 1.384 1_556 S
N826 C822 1.427 . S
N826 C823 1.384 . S
N827 C819 1.427 . S
N827 C825 1.384 1_554 S
H828 C834 0.930 . S
H829 C838 0.930 . S
H830 C843 0.929 . S
H831 C841 0.929 . S
H832 C836 0.929 . S
H833 C842 0.929 . S
C834 H828 0.930 . S
C834 C835 1.367 . S
C834 C842 1.378 . S
C835 C834 1.367 . S
C835 C843 1.433 . S
C836 H832 0.929 . S
C836 C838 1.378 1_554 S
C836 C840 1.350 . S
C837 C840 1.463 . S
C837 C842 1.350 . S
C837 N845 1.427 . S
C838 H829 0.930 . S
C838 C836 1.378 1_556 S
C838 C839 1.367 . S
C839 C838 1.367 . S
C839 C841 1.433 . S
C840 C836 1.350 . S
C840 C837 1.463 . S
C840 N844 1.427 . S
C841 H831 0.929 . S
C841 C839 1.433 . S
C841 N844 1.384 1_556 S
C842 H833 0.929 . S
C842 C834 1.378 . S
C842 C837 1.350 . S
C843 H830 0.929 . S
C843 C835 1.433 . S
C843 N845 1.384 . S
N844 C840 1.427 . S
N844 C841 1.384 1_554 S
N845 C837 1.427 . S
N845 C843 1.384 . S
C367 C19 1.756 . S
C371 C295 1.812 . S
C385 C59 1.755 . S
C389 C335 1.812 . S
C403 C99 1.751 . S
C407 C255 1.808 . S
C421 C179 1.745 . S
C425 C95 1.808 . S
C439 C219 1.757 . S
C443 C15 1.811 . S
C457 C55 1.809 . S
C461 C139 1.746 . S
C475 C299 1.757 . S
C479 C215 1.812 1_455 S
C493 C339 1.748 . S
C497 C135 1.807 . S
C511 C175 1.807 . S
C515 C259 1.744 . S
C529 C89 1.691 . S
C533 C5 1.669 . S
C547 C45 1.678 1_545 S
C551 C9 1.692 . S
C565 C49 1.692 . S
C569 C85 1.670 . S
C583 C125 1.669 . S
C587 C209 1.692 . S
C601 C129 1.691 . S
C605 C165 1.675 . S
C619 C169 1.693 . S
C623 C205 1.670 . S
C637 C329 1.692 . S
C641 C245 1.676 . S
C655 C285 1.671 . S
C659 C249 1.692 . S
C673 C325 1.671 . S
C677 C289 1.691 . S
C691 C18 1.105 . S
C695 C8 1.105 . S
C709 C58 1.103 . S
C713 C48 1.103 . S
C727 C98 1.111 . S
C731 C88 1.111 . S
C745 C128 1.096 . S
C749 C138 1.096 . S
C763 C168 1.093 . S
C767 C178 1.093 . S
C781 C208 1.109 . S
C785 C218 1.109 . S
C799 C258 1.093 . S
C803 C248 1.093 . S
C817 C288 1.093 . S
C821 C298 1.093 . S
C835 C338 1.111 . S
C839 C328 1.111 . S
