# Generated by pormake.
# Topology qtz-e, (6)-cn, num edge types: 1
# Building blocks:
#     Node 0, Type 0, BuildingBlock: KUMBOL_clean_sbu_1, # of connection points: 6
#     Node 1, Type 0, BuildingBlock: KUMBOL_clean_sbu_1, # of connection points: 6
#     Node 2, Type 0, BuildingBlock: KUMBOL_clean_sbu_1, # of connection points: 6
#     Node 3, Type 0, BuildingBlock: KUMBOL_clean_sbu_1, # of connection points: 6
#     Node 4, Type 0, BuildingBlock: KUMBOL_clean_sbu_1, # of connection points: 6
#     Node 5, Type 0, BuildingBlock: KUMBOL_clean_sbu_1, # of connection points: 6
#     Edge 6, Type (0, 0), BuildingBlock: XIVTED_clean_linker_0, # of connection points: 2
#     Edge 7, Type (0, 0), BuildingBlock: XIVTED_clean_linker_0, # of connection points: 2
#     Edge 8, Type (0, 0), BuildingBlock: XIVTED_clean_linker_0, # of connection points: 2
#     Edge 9, Type (0, 0), BuildingBlock: XIVTED_clean_linker_0, # of connection points: 2
#     Edge 10, Type (0, 0), BuildingBlock: XIVTED_clean_linker_0, # of connection points: 2
#     Edge 11, Type (0, 0), BuildingBlock: XIVTED_clean_linker_0, # of connection points: 2
#     Edge 12, Type (0, 0), BuildingBlock: XIVTED_clean_linker_0, # of connection points: 2
#     Edge 13, Type (0, 0), BuildingBlock: XIVTED_clean_linker_0, # of connection points: 2
#     Edge 14, Type (0, 0), BuildingBlock: XIVTED_clean_linker_0, # of connection points: 2
#     Edge 15, Type (0, 0), BuildingBlock: XIVTED_clean_linker_0, # of connection points: 2
#     Edge 16, Type (0, 0), BuildingBlock: XIVTED_clean_linker_0, # of connection points: 2
#     Edge 17, Type (0, 0), BuildingBlock: XIVTED_clean_linker_0, # of connection points: 2
#     Edge 18, Type (0, 0), BuildingBlock: XIVTED_clean_linker_0, # of connection points: 2
#     Edge 19, Type (0, 0), BuildingBlock: XIVTED_clean_linker_0, # of connection points: 2
#     Edge 20, Type (0, 0), BuildingBlock: XIVTED_clean_linker_0, # of connection points: 2
#     Edge 21, Type (0, 0), BuildingBlock: XIVTED_clean_linker_0, # of connection points: 2
#     Edge 22, Type (0, 0), BuildingBlock: XIVTED_clean_linker_0, # of connection points: 2
#     Edge 23, Type (0, 0), BuildingBlock: XIVTED_clean_linker_0, # of connection points: 2
# Relax obj value: 0.147
# Max RMSD: 0.210
# Mean RMSD: 0.210
data_MOF--net-qtz-e--node1-KUMBOL_clean_sbu_1--edge1-XIVTED_clean_linker_0
_symmetry_space_group_name_H-M    P1
_symmetry_Int_Tables_number       1
_symmetry_cell_setting            triclinic
loop_
_symmetry_equiv_pos_as_xyz
'x, y, z'
_cell_length_a     28.086048
_cell_length_b     28.079303
_cell_length_c     49.265354
_cell_angle_alpha  89.811807
_cell_angle_beta   90.127392
_cell_angle_gamma 119.93939
loop_
_atom_site_label
_atom_site_type_symbol
_atom_site_fract_x
_atom_site_fract_y
_atom_site_fract_z
_atom_type_partial_charge
C0 C 0.37204 0.59315 0.04325 0.0
C1 C 0.35884 0.66802 0.02769 0.0
C2 C 0.33746 0.61211 0.03418 0.0
C3 C 0.41558 0.70454 0.03003 0.0
C4 C 0.42878 0.63003 0.04634 0.0
C5 C 0.45044 0.6856 0.0393 0.0
N6 N 0.34991 0.5392 0.05006 0.0
C7 C 0.38111 0.5205 0.06214 0.0
C8 C 0.4618 0.6102 0.05708 0.0
C9 C 0.43767 0.55542 0.06547 0.0
Gd10 Gd 0.1776 0.35571 0.98149 0.0
Gd11 Gd 0.25508 0.48455 0.04383 0.0
N12 N 0.28278 0.57549 0.03148 0.0
C13 C 0.32242 0.68559 0.01925 0.0
C14 C 0.24674 0.59272 0.02445 0.0
C15 C 0.26612 0.64789 0.01788 0.0
H16 H 0.2032 0.56386 0.02357 0.0
H17 H 0.23763 0.66134 0.01183 0.0
H18 H 0.27538 0.31732 0.98717 0.0
H19 H 0.36187 0.4789 0.06978 0.0
H20 H 0.28137 0.23806 0.00313 0.0
H21 H 0.33724 0.72828 0.01412 0.0
H22 H 0.43283 0.74765 0.02502 0.0
H23 H 0.04519 0.31543 0.98008 0.0
H24 H 0.50558 0.63719 0.05979 0.0
H25 H 0.46246 0.54026 0.0748 0.0
H26 H 0.09532 0.10193 0.02326 0.0
H27 H 0.49399 0.71447 0.0414 0.0
H28 H 0.95454 0.14767 0.00658 0.0
H29 H 0.95623 0.23205 0.99037 0.0
N30 N 0.09251 0.27818 0.99052 0.0
C31 C 0.09259 0.23222 -0.00105 0.0
C32 C 0.04452 0.27862 0.98714 0.0
C33 C 0.99351 0.18402 0.00206 0.0
C34 C 0.99428 0.23159 0.99293 0.0
C35 C 0.04302 0.18386 0.00513 0.0
H36 H 0.00685 0.09956 0.01905 0.0
N37 N 0.18943 0.28138 -0.00486 0.0
C38 C 0.14256 0.23401 0.0016 0.0
C39 C 0.19482 0.18886 0.01129 0.0
C40 C 0.14406 0.18672 0.0101 0.0
C41 C 0.23859 0.28232 -0.0053 0.0
C42 C 0.24215 0.23664 0.00321 0.0
O43 O 0.28158 0.52418 0.00247 0.0
O44 O 0.2251 0.44054 0.99388 0.0
O45 O 0.21155 0.34865 0.94316 0.0
O46 O 0.13474 0.34854 0.94348 0.0
O47 O 0.17011 0.46303 0.0279 0.0
O48 O 0.13691 0.40877 0.98763 0.0
O49 O 0.13861 0.33542 0.02287 0.0
O50 O 0.21849 0.39221 0.04433 0.0
O51 O 0.1977 0.4801 0.07491 0.0
O52 O 0.28306 0.50906 0.08485 0.0
O53 O 0.27072 0.3979 0.98826 0.0
O54 O 0.28255 0.42195 0.034 0.0
C55 C 0.25795 0.48846 0.98365 0.0
C56 C 0.13415 0.43965 0.00766 0.0
C57 C 0.14445 0.2891 0.91245 0.0
C58 C 0.15564 0.23545 0.87651 0.0
C59 C 0.0738 0.19421 0.90481 0.0
C60 C 0.09353 0.24323 0.91918 0.0
C61 C 0.10468 0.19012 0.88373 0.0
C62 C 0.17509 0.28511 0.89088 0.0
C63 C 0.16837 0.33931 0.92927 0.0
C64 C 0.09487 0.13853 0.01659 0.0
C65 C 0.04447 0.13711 0.01412 0.0
H66 H 0.19772 0.15343 0.01768 0.0
C67 C 0.16524 0.35817 0.04532 0.0
C68 C 0.30206 0.41697 0.01029 0.0
C69 C 0.22046 0.47342 0.12078 0.0
C70 C 0.20369 0.48613 0.1679 0.0
C71 C 0.22052 0.41205 0.15544 0.0
C72 C 0.22827 0.42973 0.12844 0.0
C73 C 0.20879 0.44037 0.1752 0.0
C74 C 0.20684 0.5004 0.14036 0.0
C75 C 0.23525 0.4982 0.09378 0.0
H76 H 0.03461 0.15904 0.9102 0.0
H77 H 0.06924 0.24485 0.93578 0.0
H78 H 0.08847 0.15161 0.87288 0.0
H79 H 0.21484 0.32006 0.88589 0.0
H80 H 0.22632 0.3781 0.16129 0.0
H81 H 0.2423 0.41088 0.1138 0.0
H82 H 0.20674 0.42828 0.19625 0.0
H83 H 0.20214 0.53498 0.13426 0.0
C84 C 0.77158 0.36167 0.35176 0.0
C85 C 0.68384 0.32929 0.32922 0.0
C86 C 0.7216 0.3184 0.3429 0.0
C87 C 0.69763 0.38387 0.3239 0.0
C88 C 0.78506 0.41655 0.34694 0.0
C89 C 0.74806 0.42736 0.33274 0.0
N90 N 0.80735 0.35004 0.36475 0.0
C91 C 0.85531 0.39109 0.37513 0.0
C92 C 0.83544 0.45896 0.3565 0.0
C93 C 0.87039 0.44613 0.37097 0.0
Gd94 Gd 0.83056 0.18301 0.31513 0.0
Gd95 Gd 0.77981 0.2567 0.36969 0.0
N96 N 0.70993 0.26581 0.34771 0.0
C97 C 0.63299 0.28499 0.3216 0.0
C98 C 0.65865 0.22299 0.34234 0.0
C99 C 0.61996 0.2317 0.32867 0.0
H100 H 0.64625 0.18226 0.34932 0.0
H101 H 0.57974 0.19733 0.32403 0.0
H102 H 0.96487 0.2653 0.33334 0.0
H103 H 0.88102 0.38109 0.38731 0.0
H104 H 0.03624 0.25613 0.35739 0.0
H105 H 0.60285 0.29161 0.31108 0.0
H106 H 0.66929 0.3929 0.31321 0.0
H107 H 0.72681 0.05554 0.30624 0.0
H108 H 0.8473 0.50164 0.35322 0.0
H109 H 0.9087 0.47859 0.37912 0.0
H110 H 0.95553 0.06266 0.37325 0.0
H111 H 0.75791 0.46924 0.32866 0.0
H112 H 0.77286 0.94388 0.3405 0.0
H113 H 0.70448 0.96047 0.31703 0.0
N114 N 0.80656 0.0918 0.32365 0.0
C115 C 0.84504 0.08373 0.33631 0.0
C116 C 0.75672 0.04853 0.3166 0.0
C117 C 0.78286 0.98559 0.33581 0.0
C118 C 0.74409 0.99478 0.32259 0.0
C119 C 0.83405 0.03029 0.34285 0.0
H120 H 0.86644 0.98239 0.36155 0.0
N121 N 0.90405 0.18066 0.33718 0.0
C122 C 0.89502 0.1294 0.34338 0.0
C123 C 0.98642 0.1685 0.36222 0.0
C124 C 0.93567 0.12212 0.35649 0.0
C125 C 0.9549 0.22549 0.34099 0.0
C126 C 0.99632 0.22027 0.35405 0.0
O127 O 0.80065 0.29157 0.32696 0.0
O128 O 0.77646 0.21581 0.30035 0.0
O129 O 0.88822 0.22069 0.28191 0.0
O130 O 0.81986 0.13814 0.2776 0.0
O131 O 0.72233 0.1669 0.3597 0.0
O132 O 0.73901 0.1515 0.31523 0.0
O133 O 0.80404 0.14519 0.35693 0.0
O134 O 0.83251 0.22107 0.38362 0.0
O135 O 0.71828 0.21964 0.40144 0.0
O136 O 0.79041 0.29897 0.40787 0.0
O137 O 0.88525 0.27402 0.32379 0.0
O138 O 0.86965 0.28263 0.36879 0.0
C139 C 0.7858 0.26613 0.3035 0.0
C140 C 0.70719 0.13853 0.33686 0.0
C141 C 0.90214 0.16097 0.25401 0.0
C142 C 0.96713 0.17492 0.21769 0.0
C143 C 0.94784 0.10707 0.25319 0.0
C144 C 0.91125 0.1204 0.26545 0.0
C145 C 0.97562 0.13402 0.22949 0.0
C146 C 0.93018 0.18811 0.23024 0.0
C147 C 0.8649 0.17693 0.26683 0.0
C148 C 0.92482 0.0689 0.36308 0.0
C149 C 0.87415 0.02315 0.35633 0.0
H150 H 0.01874 0.16463 0.37221 0.0
C151 C 0.81847 0.16928 0.38061 0.0
C152 C 0.89934 0.30188 0.34669 0.0
C153 C 0.75199 0.2426 0.44603 0.0
C154 C 0.72191 0.22506 0.49299 0.0
C155 C 0.79562 0.21024 0.47794 0.0
C156 C 0.79175 0.2278 0.45187 0.0
C157 C 0.76046 0.20837 0.49844 0.0
C158 C 0.71762 0.24189 0.46671 0.0
C159 C 0.74613 0.25925 0.41859 0.0
H160 H 0.95461 0.07562 0.26206 0.0
H161 H 0.89022 0.09908 0.28378 0.0
H162 H 0.00315 0.12227 0.22022 0.0
H163 H 0.92373 0.22016 0.22178 0.0
H164 H 0.82618 0.19855 0.48232 0.0
H165 H 0.81988 0.23041 0.4363 0.0
H166 H 0.7641 0.19514 0.51864 0.0
H167 H 0.6874 0.25421 0.46238 0.0
C168 C 0.39723 0.70546 0.69211 0.0
C169 C 0.36024 0.60767 0.68607 0.0
C170 C 0.40426 0.66004 0.69289 0.0
C171 C 0.31033 0.60239 0.67704 0.0
C172 C 0.34644 0.70006 0.6843 0.0
C173 C 0.30342 0.64849 0.67619 0.0
N174 N 0.43971 0.75484 0.69988 0.0
C175 C 0.43273 0.79927 0.70269 0.0
C176 C 0.34014 0.74646 0.68544 0.0
C177 C 0.38326 0.79612 0.69507 0.0
Gd178 Gd 0.65824 0.82685 0.65136 0.0
Gd179 Gd 0.52202 0.75727 0.71134 0.0
N180 N 0.45269 0.66641 0.7022 0.0
C181 C 0.36696 0.56189 0.6896 0.0
C182 C 0.45727 0.62137 0.70821 0.0
C183 C 0.41532 0.56868 0.70125 0.0
H184 H 0.49278 0.6257 0.71885 0.0
H185 H 0.4199 0.53329 0.70537 0.0
H186 H 0.71239 0.9577 0.67114 0.0
H187 H 0.46558 0.83697 0.71066 0.0
H188 H 0.8036 0.03505 0.68372 0.0
H189 H 0.33419 0.52096 0.68458 0.0
H190 H 0.27627 0.56257 0.67146 0.0
H191 H 0.67529 0.7173 0.64123 0.0
H192 H 0.30176 0.74401 0.67962 0.0
H193 H 0.37835 0.83185 0.69678 0.0
H194 H 0.92322 0.95891 0.67924 0.0
H195 H 0.26425 0.64357 0.66985 0.0
H196 H 0.84419 0.76863 0.65593 0.0
H197 H 0.75034 0.69617 0.64343 0.0
N198 N 0.72505 0.80012 0.65424 0.0
C199 C 0.77674 0.841 0.6606 0.0
C200 C 0.71544 0.74888 0.64771 0.0
C201 C 0.81117 0.77803 0.65549 0.0
C202 C 0.75817 0.73693 0.64852 0.0
C203 C 0.82112 0.83092 0.66147 0.0
H204 H 0.90851 0.86688 0.66881 0.0
N205 N 0.74121 0.90122 0.66627 0.0
C206 C 0.78531 0.89331 0.66627 0.0
C207 C 0.84445 0.98774 0.67962 0.0
C208 C 0.83802 0.93626 0.67327 0.0
C209 C 0.74723 0.95136 0.67208 0.0
C210 C 0.79888 0.9953 0.679 0.0
O211 O 0.5 0.77811 0.67099 0.0
O212 O 0.56549 0.77043 0.64754 0.0
O213 O 0.67587 0.88636 0.6189 0.0
O214 O 0.6735 0.80992 0.61033 0.0
O215 O 0.5656 0.70964 0.69975 0.0
O216 O 0.60179 0.73264 0.6552 0.0
O217 O 0.69317 0.83507 0.69394 0.0
O218 O 0.60733 0.79189 0.70011 0.0
O219 O 0.50654 0.71839 0.75107 0.0
O220 O 0.5248 0.80251 0.7474 0.0
O221 O 0.61812 0.87728 0.66363 0.0
O222 O 0.58141 0.84942 0.70722 0.0
C223 C 0.52657 0.78358 0.64827 0.0
C224 C 0.57933 0.69754 0.67594 0.0
C225 C 0.73635 0.88798 0.58505 0.0
C226 C 0.78818 0.95105 0.54806 0.0
C227 C 0.83094 0.91197 0.57654 0.0
C228 C 0.78238 0.88278 0.59124 0.0
C229 C 0.834 0.94599 0.55515 0.0
C230 C 0.73932 0.92192 0.56325 0.0
C231 C 0.68518 0.85796 0.601 0.0
C232 C 0.88233 0.92635 0.67398 0.0
C233 C 0.87391 0.87387 0.66811 0.0
H234 H 0.88435 0.02185 0.68507 0.0
C235 C 0.65497 0.8119 0.71169 0.0
C236 C 0.59207 0.88082 0.68539 0.0
C237 C 0.45572 0.74547 0.77863 0.0
C238 C 0.38612 0.68594 0.81145 0.0
C239 C 0.3784 0.75871 0.78865 0.0
C240 C 0.42717 0.77427 0.7747 0.0
C241 C 0.3579 0.71487 0.80693 0.0
C242 C 0.43488 0.70136 0.797 0.0
C243 C 0.50576 0.75934 0.76295 0.0
H244 H 0.86618 0.9077 0.58156 0.0
H245 H 0.78078 0.8557 0.60721 0.0
H246 H 0.87188 0.9673 0.54369 0.0
H247 H 0.7038 0.9258 0.55823 0.0
H248 H 0.35669 0.78107 0.78549 0.0
H249 H 0.44223 0.8087 0.76081 0.0
H250 H 0.32084 0.70475 0.81809 0.0
H251 H 0.45661 0.67887 0.79989 0.0
C252 C 0.68025 0.41333 0.00823 0.0
C253 C 0.74234 0.37677 0.00686 0.0
C254 C 0.73094 0.41846 0.01458 0.0
C255 C 0.70462 0.333 0.99066 0.0
C256 C 0.64051 0.367 0.99387 0.0
C257 C 0.65379 0.3281 0.98421 0.0
N258 N 0.66825 0.45153 0.01784 0.0
C259 C 0.61549 0.44202 0.01696 0.0
C260 C 0.5877 0.35974 0.99077 0.0
C261 C 0.57477 0.39667 0.00298 0.0
Gd262 Gd 0.83212 0.66523 0.98777 0.0
Gd263 Gd 0.74139 0.52798 0.03933 0.0
N264 N 0.76621 0.46051 0.03086 0.0
C265 C 0.7896 0.37833 0.0171 0.0
C266 C 0.80778 0.45755 0.04383 0.0
C267 C 0.82149 0.4179 0.03635 0.0
H268 H 0.83121 0.48647 0.05964 0.0
H269 H 0.85617 0.41746 0.04571 0.0
H270 H 0.75371 0.71936 0.01083 0.0
H271 H 0.6054 0.47035 0.02631 0.0
H272 H 0.76774 0.80055 0.03548 0.0
H273 H 0.79983 0.34715 0.01163 0.0
H274 H 0.7132 0.30121 0.98417 0.0
H275 H 0.95609 0.67858 0.98211 0.0
H276 H 0.55605 0.3246 0.97994 0.0
H277 H 0.53356 0.39039 0.00153 0.0
H278 H 0.96232 0.90632 0.04903 0.0
H279 H 0.6241 0.29275 0.97275 0.0
H280 H 0.07351 0.83324 0.01666 0.0
H281 H 0.05232 0.74653 0.99376 0.0
N282 N 0.92387 0.72675 -0.0018 0.0
C283 C 0.93438 0.77403 0.01077 0.0
C284 C 0.96516 0.71637 0.99215 0.0
C285 C 0.03134 0.80372 0.0115 0.0
C286 C 0.01955 0.75475 -0.00136 0.0
C287 C 0.98855 0.81375 0.01788 0.0
H288 H 0.03957 0.89256 0.03716 0.0
N289 N 0.83819 0.74092 0.01168 0.0
C290 C 0.89037 0.78121 0.01783 0.0
C291 C 0.85537 0.83566 0.03837 0.0
C292 C 0.90015 0.82922 0.03167 0.0
C293 C 0.79468 0.74834 0.01726 0.0
C294 C 0.80253 0.79528 0.03094 0.0
O295 O 0.70959 0.52103 -0.00374 0.0
O296 O 0.79275 0.57571 0.97758 0.0
O297 O 0.80668 0.69709 0.95317 0.0
O298 O 0.88173 0.69199 0.95129 0.0
O299 O 0.83353 0.56137 0.03361 0.0
O300 O 0.8552 0.59791 0.98972 0.0
O301 O 0.86312 0.6716 0.03111 0.0
O302 O 0.78457 0.61556 0.05547 0.0
O303 O 0.74485 0.49913 0.08023 0.0
O304 O 0.67306 0.50412 0.0669 0.0
O305 O 0.74127 0.63685 0.99131 0.0
O306 O 0.73506 0.60417 0.03356 0.0
C307 C 0.73996 0.54368 0.97473 0.0
C308 C 0.86443 0.57556 0.01147 0.0
C309 C 0.86126 0.72925 0.91122 0.0
C310 C 0.83702 0.76294 0.87048 0.0
C311 C 0.92605 0.76851 0.87388 0.0
C312 C 0.91255 0.74448 0.89954 0.0
C313 C 0.88881 0.77795 0.8595 0.0
C314 C 0.82306 0.73799 0.89639 0.0
C315 C 0.84943 0.70585 0.93902 0.0
C316 C 0.95418 0.86927 0.0384 0.0
C317 C 0.99821 0.86153 0.03157 0.0
H318 H 0.86119 0.87197 0.04895 0.0
C319 C 0.83717 0.653 0.05435 0.0
C320 C 0.71138 0.61281 0.01282 0.0
C321 C 0.67017 0.47197 0.11294 0.0
C322 C 0.66811 0.43385 0.15778 0.0
C323 C 0.60047 0.46012 0.14568 0.0
C324 C 0.62408 0.47641 0.12 0.0
C325 C 0.6225 0.43927 0.16457 0.0
C326 C 0.69172 0.45011 0.13186 0.0
C327 C 0.69664 0.49205 0.08631 0.0
H328 H 0.96574 0.78017 0.86514 0.0
H329 H 0.94268 0.73832 0.91037 0.0
H330 H 0.90035 0.79671 0.83957 0.0
H331 H 0.78334 0.72652 0.90508 0.0
H332 H 0.56515 0.46392 0.15101 0.0
H333 H 0.6067 0.49317 0.10581 0.0
H334 H 0.60353 0.42677 0.18439 0.0
H335 H 0.72734 0.44661 0.12666 0.0
C336 C 0.22601 0.64489 0.37922 0.0
C337 C 0.29716 0.64935 0.34964 0.0
C338 C 0.27042 0.67472 0.36208 0.0
C339 C 0.27782 0.59322 0.35423 0.0
C340 C 0.20716 0.58884 0.38433 0.0
C341 C 0.23289 0.56303 0.3715 0.0
N342 N 0.20193 0.67093 0.3913 0.0
C343 C 0.16069 0.64431 0.40968 0.0
C344 C 0.16341 0.56059 0.40243 0.0
C345 C 0.1405 0.58864 0.41539 0.0
Gd346 Gd 0.17919 0.82987 0.32315 0.0
Gd347 Gd 0.23654 0.76306 0.37935 0.0
N348 N 0.2872 0.7286 0.35743 0.0
C349 C 0.34275 0.6813 0.33311 0.0
C350 C 0.33327 0.76061 0.3425 0.0
C351 C 0.36125 0.73731 0.32978 0.0
H352 H 0.34787 0.8038 0.34005 0.0
H353 H 0.39708 0.76256 0.31746 0.0
H354 H 0.04982 0.7481 0.34719 0.0
H355 H 0.14319 0.66617 0.41977 0.0
H356 H 0.97944 0.75926 0.37109 0.0
H357 H 0.36443 0.66334 0.32317 0.0
H358 H 0.2976 0.5729 0.34471 0.0
H359 H 0.28392 0.95674 0.31231 0.0
H360 H 0.14758 0.51744 0.40682 0.0
H361 H 0.10718 0.56736 0.42969 0.0
H362 H 0.05784 0.95434 0.37929 0.0
H363 H 0.21878 0.5199 0.37505 0.0
H364 H 0.23836 0.07068 0.34344 0.0
H365 H 0.30619 0.05246 0.32078 0.0
N366 N 0.20484 0.92169 0.33034 0.0
C367 C 0.16661 0.93061 0.3426 0.0
C368 C 0.25433 0.9644 0.32243 0.0
C369 C 0.22839 0.02866 0.3398 0.0
C370 C 0.26688 0.01855 0.32707 0.0
C371 C 0.17758 0.98449 0.34778 0.0
H372 H 0.14569 0.03371 0.36519 0.0
N373 N 0.10809 0.83374 0.34623 0.0
C374 C 0.11699 0.88546 0.35082 0.0
C375 C 0.0276 0.84761 0.37176 0.0
C376 C 0.07719 0.89365 0.36405 0.0
C377 C 0.05885 0.78883 0.35263 0.0
C378 C 0.01824 0.79505 0.36581 0.0
O379 O 0.2204 0.7264 0.33751 0.0
O380 O 0.22831 0.79248 0.30672 0.0
O381 O 0.11604 0.79076 0.29236 0.0
O382 O 0.18522 0.87179 0.28496 0.0
O383 O 0.28426 0.85113 0.3649 0.0
O384 O 0.27063 0.86152 0.31999 0.0
O385 O 0.20181 0.8653 0.36597 0.0
O386 O 0.1779 0.79046 0.39331 0.0
O387 O 0.31457 0.81565 0.39855 0.0
O388 O 0.24789 0.75159 0.42209 0.0
O389 O 0.12809 0.739 0.33238 0.0
O390 O 0.14517 0.7302 0.37727 0.0
C391 C 0.22331 0.74445 0.3126 0.0
C392 C 0.30379 0.86995 0.34065 0.0
C393 C 0.10072 0.84835 0.26327 0.0
C394 C 0.03589 0.83526 0.22692 0.0
C395 C 0.05077 0.89815 0.26406 0.0
C396 C 0.08883 0.88602 0.27574 0.0
C397 C 0.02422 0.87282 0.23988 0.0
C398 C 0.07446 0.82337 0.23878 0.0
C399 C 0.13842 0.8326 0.27588 0.0
C400 C 0.08796 0.94735 0.3691 0.0
C401 C 0.13797 0.99258 0.36102 0.0
H402 H 0.99597 0.8522 0.38194 0.0
C403 C 0.18676 0.84052 0.3897 0.0
C404 C 0.11732 0.70944 0.3547 0.0
C405 C 0.31189 0.83192 0.44513 0.0
C406 C 0.35117 0.85959 0.49025 0.0
C407 C 0.32545 0.9172 0.46447 0.0
C408 C 0.30797 0.87972 0.44301 0.0
C409 C 0.34759 0.90757 0.48794 0.0
C410 C 0.3328 0.82177 0.46884 0.0
C411 C 0.29762 0.79355 0.42245 0.0
H412 H 0.0417 0.92719 0.27382 0.0
H413 H 0.10867 0.90584 0.29449 0.0
H414 H 0.99502 0.88306 0.23116 0.0
H415 H 0.08319 0.79376 0.2293 0.0
H416 H 0.32249 0.95408 0.46277 0.0
H417 H 0.29239 0.88843 0.42467 0.0
H418 H 0.36159 0.93725 0.50428 0.0
H419 H 0.33645 0.78514 0.47028 0.0
C420 C 0.57719 0.20511 0.69792 0.0
C421 C 0.64628 0.29088 0.67761 0.0
C422 C 0.59295 0.2572 0.68798 0.0
C423 C 0.68264 0.27029 0.67609 0.0
C424 C 0.61459 0.18543 0.69775 0.0
C425 C 0.66678 0.21762 0.68607 0.0
N426 N 0.52711 0.17584 0.70989 0.0
C427 C 0.51359 0.12882 0.72386 0.0
C428 C 0.59939 0.13525 0.71053 0.0
C429 C 0.54921 0.1075 0.72418 0.0
Gd430 Gd 0.34541 0.167 0.65292 0.0
Gd431 Gd 0.4703 0.21498 0.7084 0.0
N432 N 0.55658 0.27572 0.68957 0.0
C433 C 0.662 0.34482 0.66996 0.0
C434 C 0.57242 0.32891 0.6833 0.0
C435 C 0.6252 0.3642 0.67327 0.0
H436 H 0.54475 0.34448 0.68633 0.0
H437 H 0.63742 0.40625 0.66808 0.0
H438 H 0.30581 0.03137 0.66223 0.0
H439 H 0.47532 0.10801 0.73494 0.0
H440 H 0.23442 0.95219 0.68697 0.0
H441 H 0.70279 0.37218 0.6621 0.0
H442 H 0.72364 0.29534 0.66792 0.0
H443 H 0.30672 0.2612 0.65271 0.0
H444 H 0.62696 0.11871 0.71092 0.0
H445 H 0.53807 0.06989 0.73509 0.0
H446 H 0.11433 0.01402 0.71997 0.0
H447 H 0.69588 0.20296 0.68553 0.0
H448 H 0.15385 0.19545 0.69551 0.0
H449 H 0.22963 0.27166 0.6701 0.0
N450 N 0.27409 0.18014 0.66813 0.0
C451 C 0.23244 0.13727 0.68157 0.0
C452 C 0.27335 0.22774 0.66362 0.0
C453 C 0.18728 0.19059 0.68781 0.0
C454 C 0.22999 0.23373 0.67347 0.0
C455 C 0.18804 0.14158 0.69198 0.0
H456 H 0.11159 0.09966 0.71438 0.0
N457 N 0.27821 0.08628 0.67474 0.0
C458 C 0.23489 0.08934 0.68522 0.0
C459 C 0.19274 0.9948 0.70015 0.0
C460 C 0.19157 0.04395 0.69866 0.0
C461 C 0.27647 0.03678 0.67388 0.0
C462 C 0.23477 0.99091 0.68721 0.0
O463 O 0.49285 0.21318 0.66438 0.0
O464 O 0.42936 0.21592 0.63455 0.0
O465 O 0.31829 0.11271 0.61811 0.0
O466 O 0.30787 0.18376 0.61814 0.0
O467 O 0.44419 0.27621 0.69621 0.0
O468 O 0.40424 0.25925 0.653 0.0
O469 O 0.3404 0.19872 0.69434 0.0
O470 O 0.38135 0.16211 0.71994 0.0
O471 O 0.48867 0.27965 0.73774 0.0
O472 O 0.49383 0.20802 0.7495 0.0
O473 O 0.38936 0.11811 0.65765 0.0
O474 O 0.40706 0.12605 0.70313 0.0
C475 C 0.47665 0.21913 0.64012 0.0
C476 C 0.43275 0.29255 0.67317 0.0
C477 C 0.24327 0.10502 0.59354 0.0
C478 C 0.18708 0.04176 0.55773 0.0
C479 C 0.14388 0.06038 0.59585 0.0
C480 C 0.19547 0.09611 0.60694 0.0
C481 C 0.13957 0.03307 0.57148 0.0
C482 C 0.23884 0.0781 0.56892 0.0
C483 C 0.29811 0.13928 0.60543 0.0
C484 C 0.14767 0.04838 0.70943 0.0
C485 C 0.14596 0.09707 0.70614 0.0
H486 H 0.1602 0.95899 0.71023 0.0
C487 C 0.34805 0.18188 0.7179 0.0
C488 C 0.40358 0.10221 0.67983 0.0
C489 C 0.56 0.29333 0.76754 0.0
C490 C 0.61982 0.36712 0.79821 0.0
C491 C 0.6577 0.32467 0.76903 0.0
C492 C 0.60546 0.2894 0.7588 0.0
C493 C 0.66499 0.36332 0.78864 0.0
C494 C 0.56736 0.33231 0.78725 0.0
C495 C 0.50506 0.2574 0.75607 0.0
H496 H 0.10709 0.0535 0.60629 0.0
H497 H 0.19792 0.11626 0.62598 0.0
H498 H 0.09916 0.00548 0.5633 0.0
H499 H 0.27584 0.08425 0.55887 0.0
H500 H 0.69245 0.32128 0.76212 0.0
H501 H 0.60074 0.25874 0.74435 0.0
H502 H 0.70569 0.3888 0.79702 0.0
H503 H 0.53224 0.33515 0.79417 0.0
H504 H 0.24701 0.76896 0.2585 0.0
H505 H 0.14868 0.45853 0.21681 0.0
H506 H 0.19175 0.63585 0.3164 0.0
H507 H 0.25602 0.59841 0.16703 0.0
H508 H 0.15187 0.52183 0.25181 0.0
H509 H 0.23847 0.70515 0.22246 0.0
C510 C 0.23334 0.72653 0.26365 0.0
C511 C 0.22064 0.70791 0.29051 0.0
C512 C 0.17438 0.53842 0.23309 0.0
C513 C 0.21002 0.63487 0.24955 0.0
C514 C 0.17268 0.50237 0.21316 0.0
C515 C 0.20179 0.52302 0.18884 0.0
C516 C 0.20517 0.5954 0.22855 0.0
C517 C 0.23179 0.58036 0.18513 0.0
C518 C 0.22844 0.69019 0.24313 0.0
C519 C 0.2028 0.65235 0.29605 0.0
N520 N 0.23266 0.61447 0.20475 0.0
N521 N 0.19782 0.61777 0.27574 0.0
H522 H 0.45054 0.14403 0.60054 0.0
H523 H 0.72215 0.3142 0.51423 0.0
H524 H 0.57929 0.30217 0.62724 0.0
H525 H 0.64156 0.1377 0.52038 0.0
H526 H 0.66129 0.31474 0.5499 0.0
H527 H 0.51095 0.14524 0.56425 0.0
C528 C 0.49158 0.17911 0.5986 0.0
C529 C 0.51088 0.22267 0.61703 0.0
C530 C 0.65713 0.276 0.54344 0.0
C531 C 0.5792 0.22481 0.57572 0.0
C532 C 0.69155 0.27568 0.52319 0.0
C533 C 0.68656 0.22584 0.5147 0.0
C534 C 0.61682 0.22601 0.55463 0.0
C535 C 0.64653 0.17685 0.52667 0.0
C536 C 0.52593 0.17963 0.57811 0.0
C537 C 0.56389 0.26741 0.61377 0.0
N538 N 0.61267 0.17806 0.54595 0.0
N539 N 0.5964 0.26757 0.59335 0.0
H540 H 0.19393 0.45522 0.93772 0.0
H541 H 0.44853 0.66644 0.84751 0.0
H542 H 0.36053 0.55407 0.96585 0.0
H543 H 0.27991 0.60654 0.82379 0.0
H544 H 0.41658 0.60325 0.88574 0.0
H545 H 0.22486 0.48987 0.89132 0.0
C546 C 0.23717 0.48251 0.93388 0.0
C547 C 0.27503 0.50108 0.95527 0.0
C548 C 0.38651 0.60345 0.87201 0.0
C549 C 0.31034 0.54154 0.90306 0.0
C550 C 0.40475 0.63929 0.84999 0.0
C551 C 0.36685 0.64248 0.83259 0.0
C552 C 0.32993 0.57085 0.87693 0.0
C553 C 0.31054 0.60644 0.83712 0.0
C554 C 0.25469 0.50278 0.9076 0.0
C555 C 0.33023 0.53848 0.94973 0.0
N556 N 0.29368 0.57254 0.85911 0.0
N557 N 0.34622 0.55751 0.92419 0.0
H558 H 0.81457 0.37443 0.29901 0.0
H559 H 0.68943 0.34973 0.15102 0.0
H560 H 0.73374 0.22088 0.25538 0.0
H561 H 0.69838 0.467 0.21004 0.0
H562 H 0.72308 0.31023 0.18552 0.0
H563 H 0.78899 0.41716 0.26289 0.0
C564 C 0.79107 0.34955 0.28197 0.0
C565 C 0.77476 0.29354 0.28066 0.0
C566 C 0.71782 0.34473 0.19082 0.0
C567 C 0.74755 0.34285 0.2387 0.0
C568 C 0.69897 0.36737 0.17118 0.0
C569 C 0.69094 0.41136 0.17785 0.0
C570 C 0.72961 0.36701 0.21708 0.0
C571 C 0.70358 0.4327 0.20425 0.0
C572 C 0.77691 0.37412 0.26127 0.0
C573 C 0.74661 0.26402 0.25741 0.0
N574 N 0.72248 0.41042 0.22291 0.0
N575 N 0.7338 0.28904 0.23733 0.0
H576 H 0.57928 0.84809 0.60426 0.0
H577 H 0.30523 0.76875 0.52244 0.0
H578 H 0.41836 0.73677 0.63584 0.0
H579 H 0.45275 0.92548 0.51215 0.0
H580 H 0.34888 0.74795 0.56021 0.0
H581 H 0.53676 0.8678 0.56553 0.0
C582 C 0.53518 0.82716 0.60279 0.0
C583 C 0.5024 0.79091 0.62319 0.0
C584 C 0.37158 0.78701 0.54978 0.0
C585 C 0.45338 0.81309 0.57936 0.0
C586 C 0.34673 0.79885 0.52834 0.0
C587 C 0.37549 0.84896 0.51445 0.0
C588 C 0.4259 0.82513 0.55699 0.0
C589 C 0.42919 0.88665 0.52266 0.0
C590 C 0.51088 0.83885 0.58093 0.0
C591 C 0.44512 0.7654 0.62063 0.0
N592 N 0.45299 0.87378 0.54332 0.0
N593 N 0.42237 0.77681 0.59907 0.0
H594 H 0.79208 0.58424 0.92643 0.0
H595 H 0.55334 0.34528 0.84249 0.0
H596 H 0.63347 0.47105 0.9604 0.0
H597 H 0.70356 0.47248 0.80658 0.0
H598 H 0.57538 0.3991 0.88404 0.0
H599 H 0.75509 0.55263 0.88117 0.0
C600 C 0.7493 0.55289 0.92439 0.0
C601 C 0.71616 0.52897 0.9473 0.0
C602 C 0.60309 0.41574 0.86692 0.0
C603 C 0.67361 0.49228 0.89551 0.0
C604 C 0.59034 0.38516 0.84309 0.0
C605 C 0.62726 0.40396 0.82123 0.0
C606 C 0.65335 0.46513 0.86896 0.0
C607 C 0.67471 0.45578 0.82325 0.0
C608 C 0.72813 0.53496 0.89849 0.0
C609 C 0.66084 0.48935 0.94338 0.0
N610 N 0.68687 0.48416 0.84688 0.0
N611 N 0.64147 0.47152 0.91797 0.0
H612 H 0.36848 0.46811 0.96693 0.0
H613 H 0.64011 0.58134 0.05537 0.0
H614 H 0.36998 0.40819 0.04731 0.0
H615 H 0.64536 0.58461 0.96783 0.0
H616 H 0.53969 0.52797 0.05335 0.0
H617 H 0.46921 0.51702 0.9666 0.0
C618 C 0.39012 0.46521 0.98448 0.0
C619 C 0.36132 0.43674 0.00778 0.0
C620 C 0.56285 0.54038 0.0346 0.0
C621 C 0.47587 0.49183 0.00752 0.0
C622 C 0.62006 0.57103 0.03574 0.0
C623 C 0.65096 0.58647 0.01173 0.0
C624 C 0.53642 0.5256 0.00927 0.0
C625 C 0.62299 0.57304 0.98681 0.0
C626 C 0.44748 0.49302 0.98428 0.0
C627 C 0.391 0.43198 0.02947 0.0
N628 N 0.56718 0.54308 0.9862 0.0
N629 N 0.44682 0.46021 0.02907 0.0
H630 H 0.09601 0.64802 0.30885 0.0
H631 H 0.9675 0.36318 0.3879 0.0
H632 H 0.05847 0.63377 0.39435 0.0
H633 H 0.92739 0.37334 0.30429 0.0
H634 H 0.02243 0.46398 0.38935 0.0
H635 H 0.05029 0.54799 0.30581 0.0
C636 C 0.07797 0.62386 0.32701 0.0
C637 C 0.08263 0.64925 0.35216 0.0
C638 C 0.00207 0.44391 0.37064 0.0
C639 C 0.03105 0.53501 0.34877 0.0
C640 C 0.97135 0.38663 0.36971 0.0
C641 C 0.9422 0.36027 0.34611 0.0
C642 C 0.00435 0.47456 0.34763 0.0
C643 C 0.94891 0.39221 0.32295 0.0
C644 C 0.05223 0.56683 0.32524 0.0
C645 C 0.05768 0.61581 0.37484 0.0
N646 N 0.9789 0.44788 0.32436 0.0
N647 N 0.03353 0.56026 0.37272 0.0
H648 H 0.4683 0.09807 0.63998 0.0
H649 H 0.5602 0.92134 0.72786 0.0
H650 H 0.38798 0.02011 0.71489 0.0
H651 H 0.57327 0.92679 0.64048 0.0
H652 H 0.50903 0.97066 0.72494 0.0
H653 H 0.51593 0.04499 0.6404 0.0
C654 C 0.45989 0.06893 0.65621 0.0
C655 C 0.4249 0.0639 0.67763 0.0
C656 C 0.52346 0.96132 0.70645 0.0
C657 C 0.47979 0.00406 0.67855 0.0
C658 C 0.55309 0.93365 0.70809 0.0
C659 C 0.57021 0.91906 0.68436 0.0
C660 C 0.51236 0.976 0.68094 0.0
C661 C 0.56044 0.93672 0.6593 0.0
C662 C 0.48732 0.03897 0.65654 0.0
C663 C 0.41535 0.0256 0.69823 0.0
N664 N 0.53203 0.9642 0.65824 0.0
N665 N 0.44335 0.99766 0.69842 0.0
H666 H 0.5921 0.63402 0.71326 0.0
H667 H 0.44453 0.35518 0.62744 0.0
H668 H 0.53758 0.6314 0.63114 0.0
H669 H 0.46403 0.36574 0.71459 0.0
H670 H 0.4854 0.45592 0.62569 0.0
H671 H 0.55666 0.53537 0.71092 0.0
C672 C 0.57323 0.61254 0.69457 0.0
C673 C 0.56706 0.64046 0.67249 0.0
C674 C 0.4804 0.43581 0.64512 0.0
C675 C 0.52559 0.52725 0.66967 0.0
C676 C 0.45681 0.37843 0.64615 0.0
C677 C 0.45125 0.35193 0.67115 0.0
C678 C 0.49867 0.46644 0.66924 0.0
C679 C 0.46804 0.38413 0.69477 0.0
C680 C 0.5526 0.55617 0.69327 0.0
C681 C 0.54291 0.61102 0.64861 0.0
N682 N 0.49118 0.4394 0.69317 0.0
N683 N 0.52239 0.55562 0.64788 0.0
H684 H 0.073 0.44123 0.96377 0.0
H685 H 0.92699 0.57162 0.05262 0.0
H686 H 0.0952 0.47199 0.04996 0.0
H687 H 0.89767 0.54147 0.9668 0.0
H688 H 0.98986 0.53548 0.0511 0.0
H689 H 0.00756 0.47551 0.9636 0.0
C690 C 0.06378 0.4546 0.98265 0.0
C691 C 0.09013 0.45423 0.00685 0.0
C692 C 0.96992 0.53679 0.0325 0.0
C693 C 0.01602 0.49384 0.00676 0.0
C694 C 0.93409 0.55756 0.0334 0.0
C695 C 0.90678 0.55904 0.00988 0.0
C696 C 0.97887 0.51738 0.00784 0.0
C697 C 0.91801 0.54102 0.98541 0.0
C698 C 0.02676 0.4745 0.98251 0.0
C699 C 0.07668 0.47222 0.0307 0.0
N700 N 0.95299 0.52057 0.98502 0.0
N701 N 0.04095 0.49137 0.03 0.0
H702 H 0.36574 0.91119 0.29404 0.0
H703 H 0.64484 0.0771 0.37899 0.0
H704 H 0.37814 0.91786 0.38148 0.0
H705 H 0.6399 0.09494 0.29218 0.0
H706 H 0.54748 0.0098 0.37862 0.0
H707 H 0.46597 0.97246 0.29136 0.0
C708 C 0.38936 0.92558 0.31261 0.0
C709 C 0.36345 0.90901 0.33801 0.0
C710 C 0.56744 0.02806 0.35955 0.0
C711 C 0.47754 0.9781 0.3351 0.0
C712 C 0.6232 0.06643 0.35976 0.0
C713 C 0.65029 0.09201 0.33562 0.0
C714 C 0.53803 0.01512 0.33502 0.0
C715 C 0.62038 0.07606 0.31124 0.0
C716 C 0.44648 0.96024 0.31107 0.0
C717 C 0.39606 0.92867 0.36142 0.0
N718 N 0.5655 0.0389 0.31156 0.0
N719 N 0.45112 0.96192 0.35936 0.0
H720 H 0.33219 0.13299 0.76804 0.0
H721 H 0.20615 0.30633 0.83412 0.0
H722 H 0.30674 0.25096 0.72345 0.0
H723 H 0.17918 0.15299 0.86799 0.0
H724 H 0.25589 0.29478 0.79622 0.0
H725 H 0.28804 0.14745 0.80773 0.0
C726 C 0.31754 0.16203 0.76664 0.0
C727 C 0.32288 0.19058 0.74238 0.0
C728 C 0.23918 0.26372 0.81199 0.0
C729 C 0.27296 0.20764 0.7876 0.0
C730 C 0.21113 0.27049 0.83368 0.0
C731 C 0.18828 0.23043 0.85413 0.0
C732 C 0.24513 0.21693 0.81091 0.0
C733 C 0.19562 0.18453 0.85246 0.0
C734 C 0.29221 0.17011 0.78922 0.0
C735 C 0.30304 0.22764 0.74164 0.0
N736 N 0.22349 0.17907 0.83126 0.0
N737 N 0.27918 0.23522 0.76391 0.0
H738 H 0.92706 0.20518 0.17402 0.0
H739 H 0.20458 0.32435 0.08727 0.0
H740 H 0.07428 0.20996 0.20345 0.0
H741 H 0.06297 0.33367 0.06124 0.0
H742 H 0.15705 0.28092 0.12971 0.0
H743 H 0.97577 0.25153 0.13253 0.0
C744 C 0.96974 0.21629 0.17188 0.0
C745 C 0.9965 0.20352 0.19235 0.0
C746 C 0.13641 0.29277 0.11485 0.0
C747 C 0.05244 0.25608 0.14456 0.0
C748 C 0.16367 0.31783 0.09075 0.0
C749 C 0.13802 0.33375 0.07124 0.0
C750 C 0.08287 0.2831 0.11927 0.0
C751 C 0.08433 0.32269 0.07611 0.0
C752 C 0.99747 0.24252 0.14807 0.0
C753 C 0.05165 0.21819 0.18811 0.0
N754 N 0.05855 0.29823 0.09971 0.0
N755 N 0.07771 0.2436 0.16472 0.0
H756 H 0.87147 0.05403 0.53481 0.0
H757 H 0.74178 0.063 0.39115 0.0
H758 H 0.71316 0.92611 0.50704 0.0
H759 H 0.88839 0.19997 0.42401 0.0
H760 H 0.73324 0.01001 0.43229 0.0
H761 H 0.88003 0.10682 0.49374 0.0
C762 C 0.83843 0.03711 0.52007 0.0
C763 C 0.79159 0.98547 0.52433 0.0
C764 C 0.76726 0.05167 0.43056 0.0
C765 C 0.80126 0.04562 0.47711 0.0
C766 C 0.77229 0.08176 0.40705 0.0
C767 C 0.81526 0.13617 0.40455 0.0
C768 C 0.80599 0.07596 0.45154 0.0
C769 C 0.85405 0.15844 0.42549 0.0
C770 C 0.84331 0.06731 0.49664 0.0
C771 C 0.74977 0.9659 0.5047 0.0
N772 N 0.84844 0.1283 0.44817 0.0
N773 N 0.75575 0.99581 0.48187 0.0
H774 H 0.60186 0.72558 0.74781 0.0
H775 H 0.8575 0.86088 0.84939 0.0
H776 H 0.73888 0.89033 0.74075 0.0
H777 H 0.73128 0.69058 0.85396 0.0
H778 H 0.80332 0.87672 0.81553 0.0
H779 H 0.63694 0.71657 0.79196 0.0
C780 C 0.63803 0.76064 0.75597 0.0
C781 C 0.66701 0.80913 0.74073 0.0
C782 C 0.78686 0.83596 0.82412 0.0
C783 C 0.70856 0.79848 0.79086 0.0
C784 C 0.81777 0.82699 0.84354 0.0
C785 C 0.79903 0.77427 0.85429 0.0
C786 C 0.73692 0.79174 0.81498 0.0
C787 C 0.74713 0.73185 0.84614 0.0
C788 C 0.65858 0.75517 0.78106 0.0
C789 C 0.71509 0.85234 0.75192 0.0
N790 N 0.7182 0.74128 0.82663 0.0
N791 N 0.73449 0.84587 0.77612 0.0
H792 H 0.08067 0.82099 0.18037 0.0
H793 H 0.7924 0.64645 0.10454 0.0
H794 H 0.92623 0.78781 0.21513 0.0
H795 H 0.94783 0.72077 0.06238 0.0
H796 H 0.8408 0.69065 0.14642 0.0
H797 H 0.03269 0.77685 0.13815 0.0
C798 C 0.03664 0.80419 0.17914 0.0
C799 C 0.0074 0.80818 0.20126 0.0
C800 C 0.86429 0.69747 0.12798 0.0
C801 C 0.95228 0.75761 0.1531 0.0
C802 C 0.8367 0.67214 0.10404 0.0
C803 C 0.86603 0.68016 0.07981 0.0
C804 C 0.92177 0.73056 0.12787 0.0
C805 C 0.92346 0.71384 0.0805 0.0
C806 C 0.00935 0.77933 0.15501 0.0
C807 C 0.95045 0.78614 0.19848 0.0
N808 N 0.94947 0.73761 0.10415 0.0
N809 N 0.92474 0.76161 0.17491 0.0
H810 H 0.11969 0.93244 0.54677 0.0
H811 H 0.22797 0.95151 0.39473 0.0
H812 H 0.24546 0.08317 0.51068 0.0
H813 H 0.1384 0.79882 0.43883 0.0
H814 H 0.22509 1.00097 0.43489 0.0
H815 H 0.11642 0.8834 0.50516 0.0
C816 C 0.14625 0.95528 0.52999 0.0
C817 C 0.18298 0.01194 0.53219 0.0
C818 C 0.20591 0.95662 0.43573 0.0
C819 C 0.17958 0.95612 0.48458 0.0
C820 C 0.20715 0.9283 0.41274 0.0
C821 C 0.18318 0.87088 0.41337 0.0
C822 C 0.18016 0.92731 0.45948 0.0
C823 C 0.15752 0.84309 0.43744 0.0
C824 C 0.14464 0.92723 0.50633 0.0
C825 C 0.21693 0.03938 0.50992 0.0
N826 N 0.15663 0.87155 0.45952 0.0
N827 N 0.21435 0.01125 0.48703 0.0
loop_
_geom_bond_atom_site_label_1
_geom_bond_atom_site_label_2
_geom_bond_distance
_geom_bond_site_symmetry_2
_ccdc_geom_bond_type
C0 C2 1.422 . S
C0 C4 1.415 . S
C0 N6 1.369 . S
C1 C2 1.421 . S
C1 C3 1.417 . S
C1 C13 1.420 1_554 S
C2 C0 1.422 . S
C2 C1 1.421 . S
C2 N12 1.359 . S
C3 C1 1.417 . S
C3 C5 1.329 . S
C3 H22 0.930 1_554 S
C4 C0 1.415 . S
C4 C5 1.437 . S
C4 C8 1.413 . S
C5 C3 1.329 . S
C5 C4 1.437 . S
C5 H27 0.929 . S
N6 C0 1.369 . S
N6 C7 1.338 . S
N6 Gd11 2.622 . S
C7 N6 1.338 . S
C7 C9 1.378 . S
C7 H19 0.929 . S
C8 C4 1.413 . S
C8 C9 1.348 . S
C8 H24 0.931 . S
C9 C7 1.378 . S
C9 C8 1.348 . S
C9 H25 0.930 . S
Gd10 N30 2.622 . S
Gd10 N37 2.570 1_556 S
Gd10 O44 2.353 . S
Gd10 O45 2.468 . S
Gd10 O46 2.427 . S
Gd10 O48 2.388 . S
Gd10 O49 2.386 1_556 S
Gd10 O53 2.307 1_556 S
Gd10 C63 2.805 . S
Gd11 N6 2.622 . S
Gd11 N12 2.570 . S
Gd11 O43 2.386 1_554 S
Gd11 O47 2.307 . S
Gd11 O50 2.353 . S
Gd11 O51 2.468 . S
Gd11 O52 2.427 . S
Gd11 O54 2.388 . S
Gd11 C75 2.805 . S
N12 C2 1.359 . S
N12 Gd11 2.570 . S
N12 C14 1.343 . S
C13 C1 1.420 1_556 S
C13 C15 1.320 1_556 S
C13 H21 0.934 . S
C14 N12 1.343 . S
C14 C15 1.390 . S
C14 H16 0.931 . S
C15 C13 1.320 1_554 S
C15 C14 1.390 . S
C15 H17 0.925 1_554 S
H16 C14 0.931 . S
H17 C15 0.925 1_556 S
H18 C41 0.931 . S
H19 C7 0.929 . S
H20 C42 0.930 . S
H21 C13 0.934 . S
H22 C3 0.930 1_556 S
H23 C32 0.929 . S
H24 C8 0.931 . S
H25 C9 0.930 . S
H26 C64 0.930 . S
H27 C5 0.929 . S
H28 C33 0.931 . S
H29 C34 0.930 . S
N30 Gd10 2.622 . S
N30 C31 1.368 1_556 S
N30 C32 1.338 . S
C31 N30 1.368 1_554 S
C31 C35 1.415 . S
C31 C38 1.422 . S
C32 H23 0.929 . S
C32 N30 1.338 . S
C32 C34 1.378 1_455 S
C33 H28 0.931 . S
C33 C34 1.348 1_554 S
C33 C35 1.413 1_655 S
C34 H29 0.930 . S
C34 C32 1.378 1_655 S
C34 C33 1.348 1_556 S
C35 C31 1.415 . S
C35 C33 1.413 1_455 S
C35 C65 1.437 1_455 S
H36 C65 0.929 . S
N37 Gd10 2.570 1_554 S
N37 C38 1.359 . S
N37 C41 1.343 . S
C38 C31 1.422 . S
C38 N37 1.359 . S
C38 C40 1.421 . S
C39 C40 1.422 . S
C39 C42 1.321 . S
C39 H66 0.931 . S
C40 C38 1.421 . S
C40 C39 1.422 . S
C40 C64 1.417 . S
C41 H18 0.931 . S
C41 N37 1.343 . S
C41 C42 1.390 . S
C42 H20 0.930 . S
C42 C39 1.321 . S
C42 C41 1.390 . S
O43 Gd11 2.386 1_556 S
O43 C55 1.265 . S
O44 Gd10 2.353 . S
O44 C55 1.242 . S
O45 Gd10 2.468 . S
O45 C63 1.263 . S
O46 Gd10 2.427 . S
O46 C63 1.252 . S
O47 Gd11 2.307 . S
O47 C56 1.261 . S
O48 Gd10 2.388 . S
O48 C56 1.252 1_556 S
O49 Gd10 2.386 1_554 S
O49 C67 1.265 . S
O50 Gd11 2.353 . S
O50 C67 1.242 . S
O51 Gd11 2.468 . S
O51 C75 1.263 . S
O52 Gd11 2.427 . S
O52 C75 1.252 . S
O53 Gd10 2.307 1_554 S
O53 C68 1.261 . S
O54 Gd11 2.388 . S
O54 C68 1.252 . S
C55 O43 1.265 . S
C55 O44 1.242 . S
C56 O47 1.261 . S
C56 O48 1.252 1_554 S
C57 C60 1.394 . S
C57 C62 1.370 . S
C57 C63 1.500 . S
C58 C61 1.383 . S
C58 C62 1.395 . S
C59 C60 1.396 . S
C59 C61 1.365 . S
C59 H76 0.929 . S
C60 C57 1.394 . S
C60 C59 1.396 . S
C60 H77 0.930 . S
C61 C58 1.383 . S
C61 C59 1.365 . S
C61 H78 0.931 . S
C62 C57 1.370 . S
C62 C58 1.395 . S
C62 H79 0.930 . S
C63 Gd10 2.805 . S
C63 O45 1.263 . S
C63 O46 1.252 . S
C63 C57 1.500 . S
C64 H26 0.930 . S
C64 C40 1.417 . S
C64 C65 1.329 1_455 S
C65 C35 1.437 1_655 S
C65 H36 0.929 . S
C65 C64 1.329 1_655 S
H66 C39 0.931 . S
C67 O49 1.265 . S
C67 O50 1.242 . S
C68 O53 1.261 . S
C68 O54 1.252 . S
C69 C72 1.394 . S
C69 C74 1.370 . S
C69 C75 1.500 . S
C70 C73 1.383 . S
C70 C74 1.395 . S
C71 C72 1.396 . S
C71 C73 1.365 . S
C71 H80 0.929 . S
C72 C69 1.394 . S
C72 C71 1.396 . S
C72 H81 0.930 . S
C73 C70 1.383 . S
C73 C71 1.365 . S
C73 H82 0.931 . S
C74 C69 1.370 . S
C74 C70 1.395 . S
C74 H83 0.930 . S
C75 Gd11 2.805 . S
C75 O51 1.263 . S
C75 O52 1.252 . S
C75 C69 1.500 . S
H76 C59 0.929 . S
H77 C60 0.930 . S
H78 C61 0.931 . S
H79 C62 0.930 . S
H80 C71 0.929 . S
H81 C72 0.930 . S
H82 C73 0.931 . S
H83 C74 0.930 . S
C84 C86 1.422 . S
C84 C88 1.415 . S
C84 N90 1.369 . S
C85 C86 1.421 . S
C85 C87 1.417 . S
C85 C97 1.422 . S
C86 C84 1.422 . S
C86 C85 1.421 . S
C86 N96 1.359 . S
C87 C85 1.417 . S
C87 C89 1.329 . S
C87 H106 0.930 . S
C88 C84 1.415 . S
C88 C89 1.437 . S
C88 C92 1.413 . S
C89 C87 1.329 . S
C89 C88 1.437 . S
C89 H111 0.929 . S
N90 C84 1.369 . S
N90 C91 1.338 . S
N90 Gd95 2.622 . S
C91 N90 1.338 . S
C91 C93 1.378 . S
C91 H103 0.929 . S
C92 C88 1.413 . S
C92 C93 1.348 . S
C92 H108 0.931 . S
C93 C91 1.378 . S
C93 C92 1.348 . S
C93 H109 0.930 . S
Gd94 N114 2.622 . S
Gd94 N121 2.570 . S
Gd94 O128 2.353 . S
Gd94 O129 2.468 . S
Gd94 O130 2.427 . S
Gd94 O132 2.388 . S
Gd94 O133 2.386 . S
Gd94 O137 2.307 . S
Gd94 C147 2.805 . S
Gd95 N90 2.622 . S
Gd95 N96 2.570 . S
Gd95 O127 2.386 . S
Gd95 O131 2.307 . S
Gd95 O134 2.353 . S
Gd95 O135 2.468 . S
Gd95 O136 2.427 . S
Gd95 O138 2.388 . S
Gd95 C159 2.805 . S
N96 C86 1.359 . S
N96 Gd95 2.570 . S
N96 C98 1.343 . S
C97 C85 1.422 . S
C97 C99 1.321 . S
C97 H105 0.931 . S
C98 N96 1.343 . S
C98 C99 1.390 . S
C98 H100 0.931 . S
C99 C97 1.321 . S
C99 C98 1.390 . S
C99 H101 0.930 . S
H100 C98 0.931 . S
H101 C99 0.930 . S
H102 C125 0.931 . S
H103 C91 0.929 . S
H104 C126 0.930 1_455 S
H105 C97 0.931 . S
H106 C87 0.930 . S
H107 C116 0.929 . S
H108 C92 0.931 . S
H109 C93 0.930 . S
H110 C148 0.930 . S
H111 C89 0.929 . S
H112 C117 0.931 . S
H113 C118 0.930 . S
N114 Gd94 2.622 . S
N114 C115 1.369 . S
N114 C116 1.338 . S
C115 N114 1.369 . S
C115 C119 1.415 . S
C115 C122 1.422 . S
C116 H107 0.929 . S
C116 N114 1.338 . S
C116 C118 1.378 1_545 S
C117 H112 0.931 . S
C117 C118 1.348 . S
C117 C119 1.413 1_565 S
C118 H113 0.930 . S
C118 C116 1.378 1_565 S
C118 C117 1.348 . S
C119 C115 1.415 . S
C119 C117 1.413 1_545 S
C119 C149 1.437 1_545 S
H120 C149 0.929 . S
N121 Gd94 2.570 . S
N121 C122 1.359 . S
N121 C125 1.343 . S
C122 C115 1.422 . S
C122 N121 1.359 . S
C122 C124 1.421 . S
C123 C124 1.422 . S
C123 C126 1.321 . S
C123 H150 0.931 1_655 S
C124 C122 1.421 . S
C124 C123 1.422 . S
C124 C148 1.417 . S
C125 H102 0.931 . S
C125 N121 1.343 . S
C125 C126 1.390 . S
C126 H104 0.930 1_655 S
C126 C123 1.321 . S
C126 C125 1.390 . S
O127 Gd95 2.386 . S
O127 C139 1.265 . S
O128 Gd94 2.353 . S
O128 C139 1.242 . S
O129 Gd94 2.468 . S
O129 C147 1.263 . S
O130 Gd94 2.427 . S
O130 C147 1.252 . S
O131 Gd95 2.307 . S
O131 C140 1.261 . S
O132 Gd94 2.388 . S
O132 C140 1.252 . S
O133 Gd94 2.386 . S
O133 C151 1.265 . S
O134 Gd95 2.353 . S
O134 C151 1.242 . S
O135 Gd95 2.468 . S
O135 C159 1.263 . S
O136 Gd95 2.427 . S
O136 C159 1.252 . S
O137 Gd94 2.307 . S
O137 C152 1.261 . S
O138 Gd95 2.388 . S
O138 C152 1.252 . S
C139 O127 1.265 . S
C139 O128 1.242 . S
C140 O131 1.261 . S
C140 O132 1.252 . S
C141 C144 1.394 . S
C141 C146 1.370 . S
C141 C147 1.500 . S
C142 C145 1.383 . S
C142 C146 1.395 . S
C143 C144 1.396 . S
C143 C145 1.365 . S
C143 H160 0.929 . S
C144 C141 1.394 . S
C144 C143 1.396 . S
C144 H161 0.930 . S
C145 C142 1.383 . S
C145 C143 1.365 . S
C145 H162 0.931 . S
C146 C141 1.370 . S
C146 C142 1.395 . S
C146 H163 0.930 . S
C147 Gd94 2.805 . S
C147 O129 1.263 . S
C147 O130 1.252 . S
C147 C141 1.500 . S
C148 H110 0.930 . S
C148 C124 1.417 . S
C148 C149 1.329 1_545 S
C149 C119 1.437 1_565 S
C149 H120 0.929 . S
C149 C148 1.329 1_565 S
H150 C123 0.931 1_455 S
C151 O133 1.265 . S
C151 O134 1.242 . S
C152 O137 1.261 . S
C152 O138 1.252 . S
C153 C156 1.394 . S
C153 C158 1.370 . S
C153 C159 1.500 . S
C154 C157 1.383 . S
C154 C158 1.395 . S
C155 C156 1.396 . S
C155 C157 1.365 . S
C155 H164 0.929 . S
C156 C153 1.394 . S
C156 C155 1.396 . S
C156 H165 0.930 . S
C157 C154 1.383 . S
C157 C155 1.365 . S
C157 H166 0.931 . S
C158 C153 1.370 . S
C158 C154 1.395 . S
C158 H167 0.930 . S
C159 Gd95 2.805 . S
C159 O135 1.263 . S
C159 O136 1.252 . S
C159 C153 1.500 . S
H160 C143 0.929 . S
H161 C144 0.930 . S
H162 C145 0.931 . S
H163 C146 0.930 . S
H164 C155 0.929 . S
H165 C156 0.930 . S
H166 C157 0.931 . S
H167 C158 0.930 . S
C168 C170 1.422 . S
C168 C172 1.415 . S
C168 N174 1.369 . S
C169 C170 1.421 . S
C169 C171 1.417 . S
C169 C181 1.422 . S
C170 C168 1.422 . S
C170 C169 1.421 . S
C170 N180 1.359 . S
C171 C169 1.417 . S
C171 C173 1.329 . S
C171 H190 0.930 . S
C172 C168 1.415 . S
C172 C173 1.437 . S
C172 C176 1.413 . S
C173 C171 1.329 . S
C173 C172 1.437 . S
C173 H195 0.929 . S
N174 C168 1.369 . S
N174 C175 1.338 . S
N174 Gd179 2.622 . S
C175 N174 1.338 . S
C175 C177 1.378 . S
C175 H187 0.929 . S
C176 C172 1.413 . S
C176 C177 1.348 . S
C176 H192 0.931 . S
C177 C175 1.378 . S
C177 C176 1.348 . S
C177 H193 0.930 . S
Gd178 N198 2.622 . S
Gd178 N205 2.570 . S
Gd178 O212 2.353 . S
Gd178 O213 2.468 . S
Gd178 O214 2.427 . S
Gd178 O216 2.388 . S
Gd178 O217 2.386 . S
Gd178 O221 2.307 . S
Gd178 C231 2.805 . S
Gd179 N174 2.622 . S
Gd179 N180 2.570 . S
Gd179 O211 2.386 . S
Gd179 O215 2.307 . S
Gd179 O218 2.353 . S
Gd179 O219 2.468 . S
Gd179 O220 2.427 . S
Gd179 O222 2.388 . S
Gd179 C243 2.805 . S
N180 C170 1.359 . S
N180 Gd179 2.570 . S
N180 C182 1.343 . S
C181 C169 1.422 . S
C181 C183 1.321 . S
C181 H189 0.931 . S
C182 N180 1.343 . S
C182 C183 1.390 . S
C182 H184 0.931 . S
C183 C181 1.321 . S
C183 C182 1.390 . S
C183 H185 0.930 . S
H184 C182 0.931 . S
H185 C183 0.930 . S
H186 C209 0.931 . S
H187 C175 0.929 . S
H188 C210 0.930 1_545 S
H189 C181 0.931 . S
H190 C171 0.930 . S
H191 C200 0.929 . S
H192 C176 0.931 . S
H193 C177 0.930 . S
H194 C232 0.930 . S
H195 C173 0.929 . S
H196 C201 0.931 . S
H197 C202 0.930 . S
N198 Gd178 2.622 . S
N198 C199 1.369 . S
N198 C200 1.338 . S
C199 N198 1.369 . S
C199 C203 1.415 . S
C199 C206 1.422 . S
C200 H191 0.929 . S
C200 N198 1.338 . S
C200 C202 1.378 . S
C201 H196 0.931 . S
C201 C202 1.348 . S
C201 C203 1.413 . S
C202 H197 0.930 . S
C202 C200 1.378 . S
C202 C201 1.348 . S
C203 C199 1.415 . S
C203 C201 1.413 . S
C203 C233 1.437 . S
H204 C233 0.929 . S
N205 Gd178 2.570 . S
N205 C206 1.359 . S
N205 C209 1.343 . S
C206 C199 1.422 . S
C206 N205 1.359 . S
C206 C208 1.421 . S
C207 C208 1.422 . S
C207 C210 1.321 . S
C207 H234 0.931 1_565 S
C208 C206 1.421 . S
C208 C207 1.422 . S
C208 C232 1.417 . S
C209 H186 0.931 . S
C209 N205 1.343 . S
C209 C210 1.390 . S
C210 H188 0.930 1_565 S
C210 C207 1.321 . S
C210 C209 1.390 . S
O211 Gd179 2.386 . S
O211 C223 1.265 . S
O212 Gd178 2.353 . S
O212 C223 1.242 . S
O213 Gd178 2.468 . S
O213 C231 1.263 . S
O214 Gd178 2.427 . S
O214 C231 1.252 . S
O215 Gd179 2.307 . S
O215 C224 1.261 . S
O216 Gd178 2.388 . S
O216 C224 1.252 . S
O217 Gd178 2.386 . S
O217 C235 1.265 . S
O218 Gd179 2.353 . S
O218 C235 1.242 . S
O219 Gd179 2.468 . S
O219 C243 1.263 . S
O220 Gd179 2.427 . S
O220 C243 1.252 . S
O221 Gd178 2.307 . S
O221 C236 1.261 . S
O222 Gd179 2.388 . S
O222 C236 1.252 . S
C223 O211 1.265 . S
C223 O212 1.242 . S
C224 O215 1.261 . S
C224 O216 1.252 . S
C225 C228 1.394 . S
C225 C230 1.370 . S
C225 C231 1.500 . S
C226 C229 1.383 . S
C226 C230 1.395 . S
C227 C228 1.396 . S
C227 C229 1.365 . S
C227 H244 0.929 . S
C228 C225 1.394 . S
C228 C227 1.396 . S
C228 H245 0.930 . S
C229 C226 1.383 . S
C229 C227 1.365 . S
C229 H246 0.931 . S
C230 C225 1.370 . S
C230 C226 1.395 . S
C230 H247 0.930 . S
C231 Gd178 2.805 . S
C231 O213 1.263 . S
C231 O214 1.252 . S
C231 C225 1.500 . S
C232 H194 0.930 . S
C232 C208 1.417 . S
C232 C233 1.329 . S
C233 C203 1.437 . S
C233 H204 0.929 . S
C233 C232 1.329 . S
H234 C207 0.931 1_545 S
C235 O217 1.265 . S
C235 O218 1.242 . S
C236 O221 1.261 . S
C236 O222 1.252 . S
C237 C240 1.394 . S
C237 C242 1.370 . S
C237 C243 1.500 . S
C238 C241 1.383 . S
C238 C242 1.395 . S
C239 C240 1.396 . S
C239 C241 1.365 . S
C239 H248 0.929 . S
C240 C237 1.394 . S
C240 C239 1.396 . S
C240 H249 0.930 . S
C241 C238 1.383 . S
C241 C239 1.365 . S
C241 H250 0.931 . S
C242 C237 1.370 . S
C242 C238 1.395 . S
C242 H251 0.930 . S
C243 Gd179 2.805 . S
C243 O219 1.263 . S
C243 O220 1.252 . S
C243 C237 1.500 . S
H244 C227 0.929 . S
H245 C228 0.930 . S
H246 C229 0.931 . S
H247 C230 0.930 . S
H248 C239 0.929 . S
H249 C240 0.930 . S
H250 C241 0.931 . S
H251 C242 0.930 . S
C252 C254 1.422 . S
C252 C256 1.415 . S
C252 N258 1.369 . S
C253 C254 1.421 . S
C253 C255 1.417 . S
C253 C265 1.420 1_554 S
C254 C252 1.422 . S
C254 C253 1.421 . S
C254 N264 1.359 . S
C255 C253 1.417 . S
C255 C257 1.329 . S
C255 H274 0.930 1_554 S
C256 C252 1.415 . S
C256 C257 1.437 . S
C256 C260 1.413 . S
C257 C255 1.329 . S
C257 C256 1.437 . S
C257 H279 0.929 . S
N258 C252 1.369 . S
N258 C259 1.338 . S
N258 Gd263 2.622 . S
C259 N258 1.338 . S
C259 C261 1.378 . S
C259 H271 0.929 . S
C260 C256 1.413 . S
C260 C261 1.348 . S
C260 H276 0.931 . S
C261 C259 1.378 . S
C261 C260 1.348 . S
C261 H277 0.930 . S
Gd262 N282 2.622 . S
Gd262 N289 2.570 1_556 S
Gd262 O296 2.353 . S
Gd262 O297 2.468 . S
Gd262 O298 2.427 . S
Gd262 O300 2.388 . S
Gd262 O301 2.386 1_556 S
Gd262 O305 2.307 1_556 S
Gd262 C315 2.805 . S
Gd263 N258 2.622 . S
Gd263 N264 2.570 . S
Gd263 O295 2.386 1_554 S
Gd263 O299 2.307 . S
Gd263 O302 2.353 . S
Gd263 O303 2.468 . S
Gd263 O304 2.427 . S
Gd263 O306 2.388 . S
Gd263 C327 2.805 . S
N264 C254 1.359 . S
N264 Gd263 2.570 . S
N264 C266 1.343 . S
C265 C253 1.420 1_556 S
C265 C267 1.320 1_556 S
C265 H273 0.934 . S
C266 N264 1.343 . S
C266 C267 1.390 . S
C266 H268 0.931 . S
C267 C265 1.320 1_554 S
C267 C266 1.390 . S
C267 H269 0.925 1_554 S
H268 C266 0.931 . S
H269 C267 0.925 1_556 S
H270 C293 0.931 . S
H271 C259 0.929 . S
H272 C294 0.930 . S
H273 C265 0.934 . S
H274 C255 0.930 1_556 S
H275 C284 0.929 . S
H276 C260 0.931 . S
H277 C261 0.930 . S
H278 C316 0.930 . S
H279 C257 0.929 . S
H280 C285 0.931 . S
H281 C286 0.930 . S
N282 Gd262 2.622 . S
N282 C283 1.368 1_556 S
N282 C284 1.338 . S
C283 N282 1.368 1_554 S
C283 C287 1.415 . S
C283 C290 1.422 . S
C284 H275 0.929 . S
C284 N282 1.338 . S
C284 C286 1.378 1_655 S
C285 H280 0.931 . S
C285 C286 1.348 1_554 S
C285 C287 1.413 1_455 S
C286 H281 0.930 . S
C286 C284 1.378 1_455 S
C286 C285 1.348 1_556 S
C287 C283 1.415 . S
C287 C285 1.413 1_655 S
C287 C317 1.437 1_655 S
H288 C317 0.929 . S
N289 Gd262 2.570 1_554 S
N289 C290 1.359 . S
N289 C293 1.343 . S
C290 C283 1.422 . S
C290 N289 1.359 . S
C290 C292 1.421 . S
C291 C292 1.422 . S
C291 C294 1.321 . S
C291 H318 0.931 . S
C292 C290 1.421 . S
C292 C291 1.422 . S
C292 C316 1.417 . S
C293 H270 0.931 . S
C293 N289 1.343 . S
C293 C294 1.390 . S
C294 H272 0.930 . S
C294 C291 1.321 . S
C294 C293 1.390 . S
O295 Gd263 2.386 1_556 S
O295 C307 1.265 . S
O296 Gd262 2.353 . S
O296 C307 1.242 . S
O297 Gd262 2.468 . S
O297 C315 1.263 . S
O298 Gd262 2.427 . S
O298 C315 1.252 . S
O299 Gd263 2.307 . S
O299 C308 1.261 . S
O300 Gd262 2.388 . S
O300 C308 1.252 1_556 S
O301 Gd262 2.386 1_554 S
O301 C319 1.265 . S
O302 Gd263 2.353 . S
O302 C319 1.242 . S
O303 Gd263 2.468 . S
O303 C327 1.263 . S
O304 Gd263 2.427 . S
O304 C327 1.252 . S
O305 Gd262 2.307 1_554 S
O305 C320 1.261 . S
O306 Gd263 2.388 . S
O306 C320 1.252 . S
C307 O295 1.265 . S
C307 O296 1.242 . S
C308 O299 1.261 . S
C308 O300 1.252 1_554 S
C309 C312 1.394 . S
C309 C314 1.370 . S
C309 C315 1.500 . S
C310 C313 1.383 . S
C310 C314 1.395 . S
C311 C312 1.396 . S
C311 C313 1.365 . S
C311 H328 0.929 . S
C312 C309 1.394 . S
C312 C311 1.396 . S
C312 H329 0.930 . S
C313 C310 1.383 . S
C313 C311 1.365 . S
C313 H330 0.931 . S
C314 C309 1.370 . S
C314 C310 1.395 . S
C314 H331 0.930 . S
C315 Gd262 2.805 . S
C315 O297 1.263 . S
C315 O298 1.252 . S
C315 C309 1.500 . S
C316 H278 0.930 . S
C316 C292 1.417 . S
C316 C317 1.329 1_655 S
C317 C287 1.437 1_455 S
C317 H288 0.929 . S
C317 C316 1.329 1_455 S
H318 C291 0.931 . S
C319 O301 1.265 . S
C319 O302 1.242 . S
C320 O305 1.261 . S
C320 O306 1.252 . S
C321 C324 1.394 . S
C321 C326 1.370 . S
C321 C327 1.500 . S
C322 C325 1.383 . S
C322 C326 1.395 . S
C323 C324 1.396 . S
C323 C325 1.365 . S
C323 H332 0.929 . S
C324 C321 1.394 . S
C324 C323 1.396 . S
C324 H333 0.930 . S
C325 C322 1.383 . S
C325 C323 1.365 . S
C325 H334 0.931 . S
C326 C321 1.370 . S
C326 C322 1.395 . S
C326 H335 0.930 . S
C327 Gd263 2.805 . S
C327 O303 1.263 . S
C327 O304 1.252 . S
C327 C321 1.500 . S
H328 C311 0.929 . S
H329 C312 0.930 . S
H330 C313 0.931 . S
H331 C314 0.930 . S
H332 C323 0.929 . S
H333 C324 0.930 . S
H334 C325 0.931 . S
H335 C326 0.930 . S
C336 C338 1.422 . S
C336 C340 1.415 . S
C336 N342 1.369 . S
C337 C338 1.421 . S
C337 C339 1.417 . S
C337 C349 1.422 . S
C338 C336 1.422 . S
C338 C337 1.421 . S
C338 N348 1.359 . S
C339 C337 1.417 . S
C339 C341 1.329 . S
C339 H358 0.930 . S
C340 C336 1.415 . S
C340 C341 1.437 . S
C340 C344 1.413 . S
C341 C339 1.329 . S
C341 C340 1.437 . S
C341 H363 0.929 . S
N342 C336 1.369 . S
N342 C343 1.338 . S
N342 Gd347 2.622 . S
C343 N342 1.338 . S
C343 C345 1.378 . S
C343 H355 0.929 . S
C344 C340 1.413 . S
C344 C345 1.348 . S
C344 H360 0.931 . S
C345 C343 1.378 . S
C345 C344 1.348 . S
C345 H361 0.930 . S
Gd346 N366 2.622 . S
Gd346 N373 2.570 . S
Gd346 O380 2.353 . S
Gd346 O381 2.468 . S
Gd346 O382 2.427 . S
Gd346 O384 2.388 . S
Gd346 O385 2.386 . S
Gd346 O389 2.307 . S
Gd346 C399 2.805 . S
Gd347 N342 2.622 . S
Gd347 N348 2.570 . S
Gd347 O379 2.386 . S
Gd347 O383 2.307 . S
Gd347 O386 2.353 . S
Gd347 O387 2.468 . S
Gd347 O388 2.427 . S
Gd347 O390 2.388 . S
Gd347 C411 2.805 . S
N348 C338 1.359 . S
N348 Gd347 2.570 . S
N348 C350 1.343 . S
C349 C337 1.422 . S
C349 C351 1.321 . S
C349 H357 0.931 . S
C350 N348 1.343 . S
C350 C351 1.390 . S
C350 H352 0.931 . S
C351 C349 1.321 . S
C351 C350 1.390 . S
C351 H353 0.930 . S
H352 C350 0.931 . S
H353 C351 0.930 . S
H354 C377 0.931 . S
H355 C343 0.929 . S
H356 C378 0.930 1_655 S
H357 C349 0.931 . S
H358 C339 0.930 . S
H359 C368 0.929 . S
H360 C344 0.931 . S
H361 C345 0.930 . S
H362 C400 0.930 . S
H363 C341 0.929 . S
H364 C369 0.931 . S
H365 C370 0.930 . S
N366 Gd346 2.622 . S
N366 C367 1.369 . S
N366 C368 1.338 . S
C367 N366 1.369 . S
C367 C371 1.415 . S
C367 C374 1.422 . S
C368 H359 0.929 . S
C368 N366 1.338 . S
C368 C370 1.378 1_565 S
C369 H364 0.931 . S
C369 C370 1.348 . S
C369 C371 1.413 1_545 S
C370 H365 0.930 . S
C370 C368 1.378 1_545 S
C370 C369 1.348 . S
C371 C367 1.415 . S
C371 C369 1.413 1_565 S
C371 C401 1.437 1_565 S
H372 C401 0.929 . S
N373 Gd346 2.570 . S
N373 C374 1.359 . S
N373 C377 1.343 . S
C374 C367 1.422 . S
C374 N373 1.359 . S
C374 C376 1.421 . S
C375 C376 1.422 . S
C375 C378 1.321 . S
C375 H402 0.931 1_455 S
C376 C374 1.421 . S
C376 C375 1.422 . S
C376 C400 1.417 . S
C377 H354 0.931 . S
C377 N373 1.343 . S
C377 C378 1.390 . S
C378 H356 0.930 1_455 S
C378 C375 1.321 . S
C378 C377 1.390 . S
O379 Gd347 2.386 . S
O379 C391 1.265 . S
O380 Gd346 2.353 . S
O380 C391 1.242 . S
O381 Gd346 2.468 . S
O381 C399 1.263 . S
O382 Gd346 2.427 . S
O382 C399 1.252 . S
O383 Gd347 2.307 . S
O383 C392 1.261 . S
O384 Gd346 2.388 . S
O384 C392 1.252 . S
O385 Gd346 2.386 . S
O385 C403 1.265 . S
O386 Gd347 2.353 . S
O386 C403 1.242 . S
O387 Gd347 2.468 . S
O387 C411 1.263 . S
O388 Gd347 2.427 . S
O388 C411 1.252 . S
O389 Gd346 2.307 . S
O389 C404 1.261 . S
O390 Gd347 2.388 . S
O390 C404 1.252 . S
C391 O379 1.265 . S
C391 O380 1.242 . S
C392 O383 1.261 . S
C392 O384 1.252 . S
C393 C396 1.394 . S
C393 C398 1.370 . S
C393 C399 1.500 . S
C394 C397 1.383 . S
C394 C398 1.395 . S
C395 C396 1.396 . S
C395 C397 1.365 . S
C395 H412 0.929 . S
C396 C393 1.394 . S
C396 C395 1.396 . S
C396 H413 0.930 . S
C397 C394 1.383 . S
C397 C395 1.365 . S
C397 H414 0.931 . S
C398 C393 1.370 . S
C398 C394 1.395 . S
C398 H415 0.930 . S
C399 Gd346 2.805 . S
C399 O381 1.263 . S
C399 O382 1.252 . S
C399 C393 1.500 . S
C400 H362 0.930 . S
C400 C376 1.417 . S
C400 C401 1.329 1_565 S
C401 C371 1.437 1_545 S
C401 H372 0.929 . S
C401 C400 1.329 1_545 S
H402 C375 0.931 1_655 S
C403 O385 1.265 . S
C403 O386 1.242 . S
C404 O389 1.261 . S
C404 O390 1.252 . S
C405 C408 1.394 . S
C405 C410 1.370 . S
C405 C411 1.500 . S
C406 C409 1.383 . S
C406 C410 1.395 . S
C407 C408 1.396 . S
C407 C409 1.365 . S
C407 H416 0.929 . S
C408 C405 1.394 . S
C408 C407 1.396 . S
C408 H417 0.930 . S
C409 C406 1.383 . S
C409 C407 1.365 . S
C409 H418 0.931 . S
C410 C405 1.370 . S
C410 C406 1.395 . S
C410 H419 0.930 . S
C411 Gd347 2.805 . S
C411 O387 1.263 . S
C411 O388 1.252 . S
C411 C405 1.500 . S
H412 C395 0.929 . S
H413 C396 0.930 . S
H414 C397 0.931 . S
H415 C398 0.930 . S
H416 C407 0.929 . S
H417 C408 0.930 . S
H418 C409 0.931 . S
H419 C410 0.930 . S
C420 C422 1.422 . S
C420 C424 1.415 . S
C420 N426 1.369 . S
C421 C422 1.421 . S
C421 C423 1.417 . S
C421 C433 1.422 . S
C422 C420 1.422 . S
C422 C421 1.421 . S
C422 N432 1.359 . S
C423 C421 1.417 . S
C423 C425 1.329 . S
C423 H442 0.930 . S
C424 C420 1.415 . S
C424 C425 1.437 . S
C424 C428 1.413 . S
C425 C423 1.329 . S
C425 C424 1.437 . S
C425 H447 0.929 . S
N426 C420 1.369 . S
N426 C427 1.338 . S
N426 Gd431 2.622 . S
C427 N426 1.338 . S
C427 C429 1.378 . S
C427 H439 0.929 . S
C428 C424 1.413 . S
C428 C429 1.348 . S
C428 H444 0.931 . S
C429 C427 1.378 . S
C429 C428 1.348 . S
C429 H445 0.930 . S
Gd430 N450 2.622 . S
Gd430 N457 2.570 . S
Gd430 O464 2.353 . S
Gd430 O465 2.468 . S
Gd430 O466 2.427 . S
Gd430 O468 2.388 . S
Gd430 O469 2.386 . S
Gd430 O473 2.307 . S
Gd430 C483 2.805 . S
Gd431 N426 2.622 . S
Gd431 N432 2.570 . S
Gd431 O463 2.386 . S
Gd431 O467 2.307 . S
Gd431 O470 2.353 . S
Gd431 O471 2.468 . S
Gd431 O472 2.427 . S
Gd431 O474 2.388 . S
Gd431 C495 2.805 . S
N432 C422 1.359 . S
N432 Gd431 2.570 . S
N432 C434 1.343 . S
C433 C421 1.422 . S
C433 C435 1.321 . S
C433 H441 0.931 . S
C434 N432 1.343 . S
C434 C435 1.390 . S
C434 H436 0.931 . S
C435 C433 1.321 . S
C435 C434 1.390 . S
C435 H437 0.930 . S
H436 C434 0.931 . S
H437 C435 0.930 . S
H438 C461 0.931 . S
H439 C427 0.929 . S
H440 C462 0.930 1_565 S
H441 C433 0.931 . S
H442 C423 0.930 . S
H443 C452 0.929 . S
H444 C428 0.931 . S
H445 C429 0.930 . S
H446 C484 0.930 . S
H447 C425 0.929 . S
H448 C453 0.931 . S
H449 C454 0.930 . S
N450 Gd430 2.622 . S
N450 C451 1.369 . S
N450 C452 1.338 . S
C451 N450 1.369 . S
C451 C455 1.415 . S
C451 C458 1.422 . S
C452 H443 0.929 . S
C452 N450 1.338 . S
C452 C454 1.378 . S
C453 H448 0.931 . S
C453 C454 1.348 . S
C453 C455 1.413 . S
C454 H449 0.930 . S
C454 C452 1.378 . S
C454 C453 1.348 . S
C455 C451 1.415 . S
C455 C453 1.413 . S
C455 C485 1.437 . S
H456 C485 0.929 . S
N457 Gd430 2.570 . S
N457 C458 1.359 . S
N457 C461 1.343 . S
C458 C451 1.422 . S
C458 N457 1.359 . S
C458 C460 1.421 . S
C459 C460 1.422 . S
C459 C462 1.321 . S
C459 H486 0.931 1_545 S
C460 C458 1.421 . S
C460 C459 1.422 . S
C460 C484 1.417 . S
C461 H438 0.931 . S
C461 N457 1.343 . S
C461 C462 1.390 . S
C462 H440 0.930 1_545 S
C462 C459 1.321 . S
C462 C461 1.390 . S
O463 Gd431 2.386 . S
O463 C475 1.265 . S
O464 Gd430 2.353 . S
O464 C475 1.242 . S
O465 Gd430 2.468 . S
O465 C483 1.263 . S
O466 Gd430 2.427 . S
O466 C483 1.252 . S
O467 Gd431 2.307 . S
O467 C476 1.261 . S
O468 Gd430 2.388 . S
O468 C476 1.252 . S
O469 Gd430 2.386 . S
O469 C487 1.265 . S
O470 Gd431 2.353 . S
O470 C487 1.242 . S
O471 Gd431 2.468 . S
O471 C495 1.263 . S
O472 Gd431 2.427 . S
O472 C495 1.252 . S
O473 Gd430 2.307 . S
O473 C488 1.261 . S
O474 Gd431 2.388 . S
O474 C488 1.252 . S
C475 O463 1.265 . S
C475 O464 1.242 . S
C476 O467 1.261 . S
C476 O468 1.252 . S
C477 C480 1.394 . S
C477 C482 1.370 . S
C477 C483 1.500 . S
C478 C481 1.383 . S
C478 C482 1.395 . S
C479 C480 1.396 . S
C479 C481 1.365 . S
C479 H496 0.929 . S
C480 C477 1.394 . S
C480 C479 1.396 . S
C480 H497 0.930 . S
C481 C478 1.383 . S
C481 C479 1.365 . S
C481 H498 0.931 . S
C482 C477 1.370 . S
C482 C478 1.395 . S
C482 H499 0.930 . S
C483 Gd430 2.805 . S
C483 O465 1.263 . S
C483 O466 1.252 . S
C483 C477 1.500 . S
C484 H446 0.930 . S
C484 C460 1.417 . S
C484 C485 1.329 . S
C485 C455 1.437 . S
C485 H456 0.929 . S
C485 C484 1.329 . S
H486 C459 0.931 1_565 S
C487 O469 1.265 . S
C487 O470 1.242 . S
C488 O473 1.261 . S
C488 O474 1.252 . S
C489 C492 1.394 . S
C489 C494 1.370 . S
C489 C495 1.500 . S
C490 C493 1.383 . S
C490 C494 1.395 . S
C491 C492 1.396 . S
C491 C493 1.365 . S
C491 H500 0.929 . S
C492 C489 1.394 . S
C492 C491 1.396 . S
C492 H501 0.930 . S
C493 C490 1.383 . S
C493 C491 1.365 . S
C493 H502 0.931 . S
C494 C489 1.370 . S
C494 C490 1.395 . S
C494 H503 0.930 . S
C495 Gd431 2.805 . S
C495 O471 1.263 . S
C495 O472 1.252 . S
C495 C489 1.500 . S
H496 C479 0.929 . S
H497 C480 0.930 . S
H498 C481 0.931 . S
H499 C482 0.930 . S
H500 C491 0.929 . S
H501 C492 0.930 . S
H502 C493 0.931 . S
H503 C494 0.930 . S
H504 C510 0.930 . S
H505 C514 0.930 . S
H506 C519 0.929 . S
H507 C517 0.929 . S
H508 C512 0.929 . S
H509 C518 0.929 . S
C510 H504 0.930 . S
C510 C511 1.367 . S
C510 C518 1.378 . S
C511 C510 1.367 . S
C511 C519 1.433 . S
C512 H508 0.929 . S
C512 C514 1.378 . S
C512 C516 1.350 . S
C513 C516 1.463 . S
C513 C518 1.350 . S
C513 N521 1.427 . S
C514 H505 0.930 . S
C514 C512 1.378 . S
C514 C515 1.367 . S
C515 C514 1.367 . S
C515 C517 1.433 . S
C516 C512 1.350 . S
C516 C513 1.463 . S
C516 N520 1.427 . S
C517 H507 0.929 . S
C517 C515 1.433 . S
C517 N520 1.384 . S
C518 H509 0.929 . S
C518 C510 1.378 . S
C518 C513 1.350 . S
C519 H506 0.929 . S
C519 C511 1.433 . S
C519 N521 1.384 . S
N520 C516 1.427 . S
N520 C517 1.384 . S
N521 C513 1.427 . S
N521 C519 1.384 . S
H522 C528 0.930 . S
H523 C532 0.930 . S
H524 C537 0.929 . S
H525 C535 0.929 . S
H526 C530 0.929 . S
H527 C536 0.929 . S
C528 H522 0.930 . S
C528 C529 1.367 . S
C528 C536 1.378 . S
C529 C528 1.367 . S
C529 C537 1.433 . S
C530 H526 0.929 . S
C530 C532 1.378 . S
C530 C534 1.350 . S
C531 C534 1.463 . S
C531 C536 1.350 . S
C531 N539 1.427 . S
C532 H523 0.930 . S
C532 C530 1.378 . S
C532 C533 1.367 . S
C533 C532 1.367 . S
C533 C535 1.433 . S
C534 C530 1.350 . S
C534 C531 1.463 . S
C534 N538 1.427 . S
C535 H525 0.929 . S
C535 C533 1.433 . S
C535 N538 1.384 . S
C536 H527 0.929 . S
C536 C528 1.378 . S
C536 C531 1.350 . S
C537 H524 0.929 . S
C537 C529 1.433 . S
C537 N539 1.384 . S
N538 C534 1.427 . S
N538 C535 1.384 . S
N539 C531 1.427 . S
N539 C537 1.384 . S
H540 C546 0.930 . S
H541 C550 0.930 . S
H542 C555 0.929 . S
H543 C553 0.929 . S
H544 C548 0.929 . S
H545 C554 0.929 . S
C546 H540 0.930 . S
C546 C547 1.367 . S
C546 C554 1.378 . S
C547 C546 1.367 . S
C547 C555 1.433 . S
C548 H544 0.929 . S
C548 C550 1.378 . S
C548 C552 1.350 . S
C549 C552 1.463 . S
C549 C554 1.350 . S
C549 N557 1.427 . S
C550 H541 0.930 . S
C550 C548 1.378 . S
C550 C551 1.367 . S
C551 C550 1.367 . S
C551 C553 1.433 . S
C552 C548 1.350 . S
C552 C549 1.463 . S
C552 N556 1.427 . S
C553 H543 0.929 . S
C553 C551 1.433 . S
C553 N556 1.384 . S
C554 H545 0.929 . S
C554 C546 1.378 . S
C554 C549 1.350 . S
C555 H542 0.929 . S
C555 C547 1.433 . S
C555 N557 1.384 . S
N556 C552 1.427 . S
N556 C553 1.384 . S
N557 C549 1.427 . S
N557 C555 1.384 . S
H558 C564 0.930 . S
H559 C568 0.930 . S
H560 C573 0.929 . S
H561 C571 0.929 . S
H562 C566 0.929 . S
H563 C572 0.929 . S
C564 H558 0.930 . S
C564 C565 1.367 . S
C564 C572 1.378 . S
C565 C564 1.367 . S
C565 C573 1.433 . S
C566 H562 0.929 . S
C566 C568 1.378 . S
C566 C570 1.350 . S
C567 C570 1.463 . S
C567 C572 1.350 . S
C567 N575 1.427 . S
C568 H559 0.930 . S
C568 C566 1.378 . S
C568 C569 1.367 . S
C569 C568 1.367 . S
C569 C571 1.433 . S
C570 C566 1.350 . S
C570 C567 1.463 . S
C570 N574 1.427 . S
C571 H561 0.929 . S
C571 C569 1.433 . S
C571 N574 1.384 . S
C572 H563 0.929 . S
C572 C564 1.378 . S
C572 C567 1.350 . S
C573 H560 0.929 . S
C573 C565 1.433 . S
C573 N575 1.384 . S
N574 C570 1.427 . S
N574 C571 1.384 . S
N575 C567 1.427 . S
N575 C573 1.384 . S
H576 C582 0.930 . S
H577 C586 0.930 . S
H578 C591 0.929 . S
H579 C589 0.929 . S
H580 C584 0.929 . S
H581 C590 0.929 . S
C582 H576 0.930 . S
C582 C583 1.367 . S
C582 C590 1.378 . S
C583 C582 1.367 . S
C583 C591 1.433 . S
C584 H580 0.929 . S
C584 C586 1.378 . S
C584 C588 1.350 . S
C585 C588 1.463 . S
C585 C590 1.350 . S
C585 N593 1.427 . S
C586 H577 0.930 . S
C586 C584 1.378 . S
C586 C587 1.367 . S
C587 C586 1.367 . S
C587 C589 1.433 . S
C588 C584 1.350 . S
C588 C585 1.463 . S
C588 N592 1.427 . S
C589 H579 0.929 . S
C589 C587 1.433 . S
C589 N592 1.384 . S
C590 H581 0.929 . S
C590 C582 1.378 . S
C590 C585 1.350 . S
C591 H578 0.929 . S
C591 C583 1.433 . S
C591 N593 1.384 . S
N592 C588 1.427 . S
N592 C589 1.384 . S
N593 C585 1.427 . S
N593 C591 1.384 . S
H594 C600 0.930 . S
H595 C604 0.930 . S
H596 C609 0.929 . S
H597 C607 0.929 . S
H598 C602 0.929 . S
H599 C608 0.929 . S
C600 H594 0.930 . S
C600 C601 1.367 . S
C600 C608 1.378 . S
C601 C600 1.367 . S
C601 C609 1.433 . S
C602 H598 0.929 . S
C602 C604 1.378 . S
C602 C606 1.350 . S
C603 C606 1.463 . S
C603 C608 1.350 . S
C603 N611 1.427 . S
C604 H595 0.930 . S
C604 C602 1.378 . S
C604 C605 1.367 . S
C605 C604 1.367 . S
C605 C607 1.433 . S
C606 C602 1.350 . S
C606 C603 1.463 . S
C606 N610 1.427 . S
C607 H597 0.929 . S
C607 C605 1.433 . S
C607 N610 1.384 . S
C608 H599 0.929 . S
C608 C600 1.378 . S
C608 C603 1.350 . S
C609 H596 0.929 . S
C609 C601 1.433 . S
C609 N611 1.384 . S
N610 C606 1.427 . S
N610 C607 1.384 . S
N611 C603 1.427 . S
N611 C609 1.384 . S
H612 C618 0.930 1_556 S
H613 C622 0.930 . S
H614 C627 0.929 . S
H615 C625 0.929 1_556 S
H616 C620 0.929 . S
H617 C626 0.929 1_556 S
C618 H612 0.930 1_554 S
C618 C619 1.367 . S
C618 C626 1.378 . S
C619 C618 1.367 . S
C619 C627 1.433 . S
C620 H616 0.929 . S
C620 C622 1.378 . S
C620 C624 1.350 . S
C621 C624 1.463 . S
C621 C626 1.350 . S
C621 N629 1.427 . S
C622 H613 0.930 . S
C622 C620 1.378 . S
C622 C623 1.367 . S
C623 C622 1.367 . S
C623 C625 1.433 . S
C624 C620 1.350 . S
C624 C621 1.463 . S
C624 N628 1.427 . S
C625 H615 0.929 1_554 S
C625 C623 1.433 . S
C625 N628 1.384 . S
C626 H617 0.929 1_554 S
C626 C618 1.378 . S
C626 C621 1.350 . S
C627 H614 0.929 . S
C627 C619 1.433 . S
C627 N629 1.384 . S
N628 C624 1.427 . S
N628 C625 1.384 . S
N629 C621 1.427 . S
N629 C627 1.384 . S
H630 C636 0.930 . S
H631 C640 0.930 . S
H632 C645 0.929 . S
H633 C643 0.929 . S
H634 C638 0.929 . S
H635 C644 0.929 . S
C636 H630 0.930 . S
C636 C637 1.367 . S
C636 C644 1.378 1_455 S
C637 C636 1.367 . S
C637 C645 1.433 . S
C638 H634 0.929 . S
C638 C640 1.378 1_455 S
C638 C642 1.350 1_455 S
C639 C642 1.463 1_455 S
C639 C644 1.350 1_455 S
C639 N647 1.427 . S
C640 H631 0.930 . S
C640 C638 1.378 1_655 S
C640 C641 1.367 . S
C641 C640 1.367 . S
C641 C643 1.433 . S
C642 C638 1.350 1_655 S
C642 C639 1.463 1_655 S
C642 N646 1.427 . S
C643 H633 0.929 . S
C643 C641 1.433 . S
C643 N646 1.384 . S
C644 H635 0.929 . S
C644 C636 1.378 1_655 S
C644 C639 1.350 1_655 S
C645 H632 0.929 . S
C645 C637 1.433 . S
C645 N647 1.384 . S
N646 C642 1.427 . S
N646 C643 1.384 . S
N647 C639 1.427 . S
N647 C645 1.384 . S
H648 C654 0.930 . S
H649 C658 0.930 . S
H650 C663 0.929 . S
H651 C661 0.929 . S
H652 C656 0.929 . S
H653 C662 0.929 . S
C654 H648 0.930 . S
C654 C655 1.367 . S
C654 C662 1.378 . S
C655 C654 1.367 . S
C655 C663 1.433 . S
C656 H652 0.929 . S
C656 C658 1.378 . S
C656 C660 1.350 . S
C657 C660 1.463 1_545 S
C657 C662 1.350 . S
C657 N665 1.427 . S
C658 H649 0.930 . S
C658 C656 1.378 . S
C658 C659 1.367 . S
C659 C658 1.367 . S
C659 C661 1.433 . S
C660 C656 1.350 . S
C660 C657 1.463 1_565 S
C660 N664 1.427 . S
C661 H651 0.929 . S
C661 C659 1.433 . S
C661 N664 1.384 . S
C662 H653 0.929 . S
C662 C654 1.378 . S
C662 C657 1.350 . S
C663 H650 0.929 . S
C663 C655 1.433 . S
C663 N665 1.384 . S
N664 C660 1.427 . S
N664 C661 1.384 . S
N665 C657 1.427 . S
N665 C663 1.384 . S
H666 C672 0.930 . S
H667 C676 0.930 . S
H668 C681 0.929 . S
H669 C679 0.929 . S
H670 C674 0.929 . S
H671 C680 0.929 . S
C672 H666 0.930 . S
C672 C673 1.367 . S
C672 C680 1.378 . S
C673 C672 1.367 . S
C673 C681 1.433 . S
C674 H670 0.929 . S
C674 C676 1.378 . S
C674 C678 1.350 . S
C675 C678 1.463 . S
C675 C680 1.350 . S
C675 N683 1.427 . S
C676 H667 0.930 . S
C676 C674 1.378 . S
C676 C677 1.367 . S
C677 C676 1.367 . S
C677 C679 1.433 . S
C678 C674 1.350 . S
C678 C675 1.463 . S
C678 N682 1.427 . S
C679 H669 0.929 . S
C679 C677 1.433 . S
C679 N682 1.384 . S
C680 H671 0.929 . S
C680 C672 1.378 . S
C680 C675 1.350 . S
C681 H668 0.929 . S
C681 C673 1.433 . S
C681 N683 1.384 . S
N682 C678 1.427 . S
N682 C679 1.384 . S
N683 C675 1.427 . S
N683 C681 1.384 . S
H684 C690 0.929 . S
H685 C694 0.930 . S
H686 C699 0.929 . S
H687 C697 0.936 . S
H688 C692 0.929 . S
H689 C698 0.927 . S
C690 H684 0.929 . S
C690 C691 1.368 1_556 S
C690 C698 1.378 . S
C691 C690 1.368 1_554 S
C691 C699 1.433 . S
C692 H688 0.929 . S
C692 C694 1.378 . S
C692 C696 1.350 . S
C693 C696 1.463 1_455 S
C693 C698 1.351 1_554 S
C693 N701 1.427 . S
C694 H685 0.930 . S
C694 C692 1.378 . S
C694 C695 1.367 . S
C695 C694 1.367 . S
C695 C697 1.427 1_554 S
C696 C692 1.350 . S
C696 C693 1.463 1_655 S
C696 N700 1.427 1_554 S
C697 H687 0.936 . S
C697 C695 1.427 1_556 S
C697 N700 1.384 . S
C698 H689 0.927 . S
C698 C690 1.378 . S
C698 C693 1.351 1_556 S
C699 H686 0.929 . S
C699 C691 1.433 . S
C699 N701 1.384 . S
N700 C696 1.427 1_556 S
N700 C697 1.384 . S
N701 C693 1.427 . S
N701 C699 1.384 . S
H702 C708 0.930 . S
H703 C712 0.930 . S
H704 C717 0.929 . S
H705 C715 0.929 . S
H706 C710 0.929 . S
H707 C716 0.929 . S
C708 H702 0.930 . S
C708 C709 1.367 . S
C708 C716 1.378 1_565 S
C709 C708 1.367 . S
C709 C717 1.433 . S
C710 H706 0.929 . S
C710 C712 1.378 1_565 S
C710 C714 1.350 1_565 S
C711 C714 1.463 1_565 S
C711 C716 1.350 1_565 S
C711 N719 1.427 . S
C712 H703 0.930 . S
C712 C710 1.378 1_545 S
C712 C713 1.367 . S
C713 C712 1.367 . S
C713 C715 1.433 . S
C714 C710 1.350 1_545 S
C714 C711 1.463 1_545 S
C714 N718 1.427 . S
C715 H705 0.929 . S
C715 C713 1.433 . S
C715 N718 1.384 . S
C716 H707 0.929 . S
C716 C708 1.378 1_545 S
C716 C711 1.350 1_545 S
C717 H704 0.929 . S
C717 C709 1.433 . S
C717 N719 1.384 . S
N718 C714 1.427 . S
N718 C715 1.384 . S
N719 C711 1.427 . S
N719 C717 1.384 . S
H720 C726 0.930 . S
H721 C730 0.930 . S
H722 C735 0.929 . S
H723 C733 0.929 . S
H724 C728 0.929 . S
H725 C734 0.929 . S
C726 H720 0.930 . S
C726 C727 1.367 . S
C726 C734 1.378 . S
C727 C726 1.367 . S
C727 C735 1.433 . S
C728 H724 0.929 . S
C728 C730 1.378 . S
C728 C732 1.350 . S
C729 C732 1.463 . S
C729 C734 1.350 . S
C729 N737 1.427 . S
C730 H721 0.930 . S
C730 C728 1.378 . S
C730 C731 1.367 . S
C731 C730 1.367 . S
C731 C733 1.433 . S
C732 C728 1.350 . S
C732 C729 1.463 . S
C732 N736 1.427 . S
C733 H723 0.929 . S
C733 C731 1.433 . S
C733 N736 1.384 . S
C734 H725 0.929 . S
C734 C726 1.378 . S
C734 C729 1.350 . S
C735 H722 0.929 . S
C735 C727 1.433 . S
C735 N737 1.384 . S
N736 C732 1.427 . S
N736 C733 1.384 . S
N737 C729 1.427 . S
N737 C735 1.384 . S
H738 C744 0.930 . S
H739 C748 0.930 . S
H740 C753 0.929 . S
H741 C751 0.929 . S
H742 C746 0.929 . S
H743 C752 0.929 . S
C744 H738 0.930 . S
C744 C745 1.367 1_655 S
C744 C752 1.378 1_655 S
C745 C744 1.367 1_455 S
C745 C753 1.433 . S
C746 H742 0.929 . S
C746 C748 1.378 . S
C746 C750 1.350 . S
C747 C750 1.463 . S
C747 C752 1.350 . S
C747 N755 1.427 . S
C748 H739 0.930 . S
C748 C746 1.378 . S
C748 C749 1.367 . S
C749 C748 1.367 . S
C749 C751 1.433 . S
C750 C746 1.350 . S
C750 C747 1.463 . S
C750 N754 1.427 . S
C751 H741 0.929 . S
C751 C749 1.433 . S
C751 N754 1.384 . S
C752 H743 0.929 . S
C752 C744 1.378 1_455 S
C752 C747 1.350 . S
C753 H740 0.929 . S
C753 C745 1.433 . S
C753 N755 1.384 . S
N754 C750 1.427 . S
N754 C751 1.384 . S
N755 C747 1.427 . S
N755 C753 1.384 . S
H756 C762 0.930 . S
H757 C766 0.930 . S
H758 C771 0.929 1_565 S
H759 C769 0.929 . S
H760 C764 0.929 . S
H761 C770 0.929 . S
C762 H756 0.930 . S
C762 C763 1.367 . S
C762 C770 1.378 . S
C763 C762 1.367 . S
C763 C771 1.433 . S
C764 H760 0.929 . S
C764 C766 1.378 . S
C764 C768 1.350 . S
C765 C768 1.463 . S
C765 C770 1.350 . S
C765 N773 1.427 . S
C766 H757 0.930 . S
C766 C764 1.378 . S
C766 C767 1.367 . S
C767 C766 1.367 . S
C767 C769 1.433 . S
C768 C764 1.350 . S
C768 C765 1.463 . S
C768 N772 1.427 . S
C769 H759 0.929 . S
C769 C767 1.433 . S
C769 N772 1.384 . S
C770 H761 0.929 . S
C770 C762 1.378 . S
C770 C765 1.350 . S
C771 H758 0.929 1_545 S
C771 C763 1.433 . S
C771 N773 1.384 . S
N772 C768 1.427 . S
N772 C769 1.384 . S
N773 C765 1.427 . S
N773 C771 1.384 . S
H774 C780 0.930 . S
H775 C784 0.930 . S
H776 C789 0.929 . S
H777 C787 0.929 . S
H778 C782 0.929 . S
H779 C788 0.929 . S
C780 H774 0.930 . S
C780 C781 1.367 . S
C780 C788 1.378 . S
C781 C780 1.367 . S
C781 C789 1.433 . S
C782 H778 0.929 . S
C782 C784 1.378 . S
C782 C786 1.350 . S
C783 C786 1.463 . S
C783 C788 1.350 . S
C783 N791 1.427 . S
C784 H775 0.930 . S
C784 C782 1.378 . S
C784 C785 1.367 . S
C785 C784 1.367 . S
C785 C787 1.433 . S
C786 C782 1.350 . S
C786 C783 1.463 . S
C786 N790 1.427 . S
C787 H777 0.929 . S
C787 C785 1.433 . S
C787 N790 1.384 . S
C788 H779 0.929 . S
C788 C780 1.378 . S
C788 C783 1.350 . S
C789 H776 0.929 . S
C789 C781 1.433 . S
C789 N791 1.384 . S
N790 C786 1.427 . S
N790 C787 1.384 . S
N791 C783 1.427 . S
N791 C789 1.384 . S
H792 C798 0.930 . S
H793 C802 0.930 . S
H794 C807 0.929 . S
H795 C805 0.929 . S
H796 C800 0.929 . S
H797 C806 0.929 . S
C798 H792 0.930 . S
C798 C799 1.367 1_455 S
C798 C806 1.378 1_455 S
C799 C798 1.367 1_655 S
C799 C807 1.433 . S
C800 H796 0.929 . S
C800 C802 1.378 . S
C800 C804 1.350 . S
C801 C804 1.463 . S
C801 C806 1.350 . S
C801 N809 1.427 . S
C802 H793 0.930 . S
C802 C800 1.378 . S
C802 C803 1.367 . S
C803 C802 1.367 . S
C803 C805 1.433 . S
C804 C800 1.350 . S
C804 C801 1.463 . S
C804 N808 1.427 . S
C805 H795 0.929 . S
C805 C803 1.433 . S
C805 N808 1.384 . S
C806 H797 0.929 . S
C806 C798 1.378 1_655 S
C806 C801 1.350 . S
C807 H794 0.929 . S
C807 C799 1.433 . S
C807 N809 1.384 . S
N808 C804 1.427 . S
N808 C805 1.384 . S
N809 C801 1.427 . S
N809 C807 1.384 . S
H810 C816 0.930 . S
H811 C820 0.930 . S
H812 C825 0.930 1_545 S
H813 C823 0.929 . S
H814 C818 0.929 . S
H815 C824 0.929 . S
C816 H810 0.930 . S
C816 C817 1.367 . S
C816 C824 1.378 . S
C817 C816 1.367 . S
C817 C825 1.433 . S
C818 H814 0.929 . S
C818 C820 1.378 . S
C818 C822 1.350 . S
C819 C822 1.463 . S
C819 C824 1.350 . S
C819 N827 1.427 . S
C820 H811 0.930 . S
C820 C818 1.378 . S
C820 C821 1.367 . S
C821 C820 1.367 . S
C821 C823 1.433 . S
C822 C818 1.350 . S
C822 C819 1.463 . S
C822 N826 1.427 . S
C823 H813 0.929 . S
C823 C821 1.433 . S
C823 N826 1.384 . S
C824 H815 0.929 . S
C824 C816 1.378 . S
C824 C819 1.350 . S
C825 H812 0.930 1_565 S
C825 C817 1.433 . S
C825 N827 1.383 . S
N826 C822 1.427 . S
N826 C823 1.384 . S
N827 C819 1.427 . S
N827 C825 1.383 . S
C511 C391 1.160 . S
C515 C70 0.999 . S
C529 C475 1.146 . S
C533 C154 0.959 . S
C547 C55 1.156 . S
C551 C238 0.980 . S
C565 C139 1.154 . S
C569 C322 0.990 . S
C583 C223 1.145 . S
C587 C406 0.958 . S
C601 C307 1.146 . S
C605 C490 0.959 . S
C619 C68 1.479 . S
C623 C320 1.473 . S
C637 C404 1.485 . S
C641 C152 1.480 . S
C655 C488 1.475 . S
C659 C236 1.469 . S
C673 C224 1.672 . S
C677 C476 1.667 . S
C691 C56 1.666 . S
C695 C308 1.670 . S
C709 C392 1.673 . S
C713 C140 1.675 . S
C727 C487 1.091 . S
C731 C58 0.997 . S
C745 C142 0.998 1_455 S
C749 C67 1.092 . S
C763 C226 1.018 1_545 S
C767 C151 1.080 . S
C781 C235 1.079 . S
C785 C310 1.003 . S
C799 C394 0.995 1_655 S
C803 C319 1.088 . S
C817 C478 1.020 1_565 S
C821 C403 1.081 . S
