# Generated by pormake.
# Topology bsn, (6)-cn, num edge types: 1
# Building blocks:
#     Node 0, Type 0, BuildingBlock: PAMTOO_clean_sbu_0, # of connection points: 6
#     Node 1, Type 0, BuildingBlock: PAMTOO_clean_sbu_0, # of connection points: 6
#     Node 2, Type 0, BuildingBlock: PAMTOO_clean_sbu_0, # of connection points: 6
#     Node 3, Type 0, BuildingBlock: PAMTOO_clean_sbu_0, # of connection points: 6
#     Edge 4, Type (0, 0), BuildingBlock: CIFDUS_clean_linker_0, # of connection points: 2
#     Edge 5, Type (0, 0), BuildingBlock: CIFDUS_clean_linker_0, # of connection points: 2
#     Edge 6, Type (0, 0), BuildingBlock: CIFDUS_clean_linker_0, # of connection points: 2
#     Edge 7, Type (0, 0), BuildingBlock: CIFDUS_clean_linker_0, # of connection points: 2
#     Edge 8, Type (0, 0), BuildingBlock: CIFDUS_clean_linker_0, # of connection points: 2
#     Edge 9, Type (0, 0), BuildingBlock: CIFDUS_clean_linker_0, # of connection points: 2
#     Edge 10, Type (0, 0), BuildingBlock: CIFDUS_clean_linker_0, # of connection points: 2
#     Edge 11, Type (0, 0), BuildingBlock: CIFDUS_clean_linker_0, # of connection points: 2
#     Edge 12, Type (0, 0), BuildingBlock: CIFDUS_clean_linker_0, # of connection points: 2
#     Edge 13, Type (0, 0), BuildingBlock: CIFDUS_clean_linker_0, # of connection points: 2
#     Edge 14, Type (0, 0), BuildingBlock: CIFDUS_clean_linker_0, # of connection points: 2
#     Edge 15, Type (0, 0), BuildingBlock: CIFDUS_clean_linker_0, # of connection points: 2
# Relax obj value: 0.031
# Max RMSD: 0.145
# Mean RMSD: 0.145
data_MOF--net-bsn--node1-PAMTOO_clean_sbu_0--edge1-CIFDUS_clean_linker_0
_symmetry_space_group_name_H-M    P1
_symmetry_Int_Tables_number       1
_symmetry_cell_setting            triclinic
loop_
_symmetry_equiv_pos_as_xyz
'x, y, z'
_cell_length_a     48.29752
_cell_length_b     25.503272
_cell_length_c     12.498764
_cell_angle_alpha  83.690241
_cell_angle_beta   97.788494
_cell_angle_gamma 117.39118
loop_
_atom_site_label
_atom_site_type_symbol
_atom_site_fract_x
_atom_site_fract_y
_atom_site_fract_z
_atom_type_partial_charge
Dy0 Dy 0.13082 0.29232 0.39119 0.0
Dy1 Dy 0.05122 0.24407 0.36492 0.0
C2 C 0.08594 0.22194 0.19382 0.0
O3 O 0.12185 0.37091 0.39277 0.0
O4 O 0.07428 0.33585 0.29085 0.0
O5 O 0.17532 0.34369 0.3237 0.0
O6 O 0.17354 0.29674 0.47995 0.0
O7 O 0.07092 0.29531 0.51089 0.0
O8 O 0.11449 0.27982 0.55277 0.0
O9 O 0.05991 0.17259 0.45916 0.0
O10 O 0.10906 0.19369 0.41319 0.0
O11 O 1.00685 0.20741 0.43391 0.0
O12 O 1.00911 0.22864 0.26091 0.0
C13 C 0.09871 0.37932 0.33851 0.0
O14 O 0.11134 0.26916 0.2238 0.0
O15 O 0.06113 0.1983 0.24676 0.0
C16 C 0.21514 0.31138 0.37729 0.0
C17 C 0.26618 0.29206 0.33515 0.0
C18 C 0.24655 0.30178 0.24956 0.0
C19 C 0.22141 0.31155 0.27034 0.0
C20 C 0.23416 0.29994 0.46236 0.0
C21 C 0.25919 0.29023 0.44172 0.0
C22 C 0.191 0.32796 0.40307 0.0
C23 C 0.09171 0.2882 0.58125 0.0
C24 C 0.08256 0.15792 0.45492 0.0
C25 C 0.96769 0.23175 0.33989 0.0
C26 C 0.9177 0.26196 0.32225 0.0
C27 C 0.91679 0.21314 0.38896 0.0
C28 C 0.94147 0.19816 0.39734 0.0
C29 C 0.96933 0.28194 0.27639 0.0
C30 C 0.94456 0.29686 0.26762 0.0
C31 C 0.99148 0.21051 0.34103 0.0
H32 H 0.25125 0.30392 0.1665 0.0
H33 H 0.20739 0.32058 0.20266 0.0
H34 H 0.23012 0.29979 0.5456 0.0
H35 H 0.2733 0.28181 0.50985 0.0
H36 H 0.89682 0.18598 0.43393 0.0
H37 H 0.93972 0.15932 0.44692 0.0
H38 H 0.98932 0.30872 0.23122 0.0
H39 H 0.94601 0.33453 0.21496 0.0
Dy40 Dy 0.1087 0.75407 0.58285 0.0
Dy41 Dy 0.02909 0.70681 0.57513 0.0
C42 C 0.06573 0.77 0.36989 0.0
O43 O 0.10296 0.83568 0.5613 0.0
O44 O 0.05349 0.80238 0.61799 0.0
O45 O 0.14762 0.7582 0.5082 0.0
O46 O 0.15567 0.79701 0.6624 0.0
O47 O 0.04864 0.67189 0.71899 0.0
O48 O 0.0956 0.75184 0.74603 0.0
O49 O 0.03665 0.63915 0.49629 0.0
O50 O 0.08416 0.65623 0.59009 0.0
O51 O 0.99206 0.68451 0.67656 0.0
O52 O 0.98064 0.67359 0.50423 0.0
C53 C 0.08082 0.84527 0.59223 0.0
O54 O 0.09012 0.76236 0.41297 0.0
O55 O 0.0413 0.75844 0.42032 0.0
C56 C 0.19317 0.76727 0.62126 0.0
C57 C 0.24465 0.74239 0.68464 0.0
C58 C 0.24169 0.76936 0.58227 0.0
C59 C 0.21628 0.78164 0.55115 0.0
C60 C 0.19553 0.73915 0.72282 0.0
C61 C 0.22102 0.72671 0.75412 0.0
C62 C 0.16815 0.78539 0.58756 0.0
C63 C 0.07048 0.70937 0.78399 0.0
C64 C 0.06 0.62517 0.52301 0.0
C65 C 0.9471 0.69546 0.59769 0.0
C66 C 0.90057 0.73232 0.61779 0.0
C67 C 0.93193 0.7651 0.66071 0.0
C68 C 0.95485 0.74701 0.65067 0.0
C69 C 0.91605 0.66322 0.55315 0.0
C70 C 0.89311 0.68137 0.56283 0.0
C71 C 0.97014 0.6719 0.5962 0.0
H72 H 0.25905 0.78102 0.52589 0.0
H73 H 0.21492 0.80329 0.47239 0.0
H74 H 0.178 0.72766 0.77849 0.0
H75 H 0.22264 0.70617 0.83374 0.0
H76 H 0.93872 0.80409 0.70482 0.0
H77 H 0.97852 0.77274 0.68648 0.0
H78 H 0.90936 0.6232 0.51226 0.0
H79 H 0.8695 0.65537 0.52697 0.0
Dy80 Dy 0.6273 0.80084 0.83326 0.0
Dy81 Dy 0.54796 0.74109 0.86132 0.0
C82 C 0.57592 0.78422 0.64354 0.0
O83 O 0.61739 0.87985 0.82573 0.0
O84 O 0.56562 0.83765 0.86893 0.0
O85 O 0.66485 0.84073 0.72789 0.0
O86 O 0.67435 0.81643 0.89554 0.0
O87 O 0.57639 0.74316 0.01683 0.0
O88 O 0.62283 0.82577 -0.01023 0.0
O89 O 0.55913 0.66941 0.82822 0.0
O90 O 0.61045 0.7076 0.90058 0.0
O91 O 0.51092 0.72677 0.9583 0.0
O92 O 0.49997 0.68305 0.80761 0.0
C93 C 0.59232 0.8837 0.84861 0.0
O94 O 0.59609 0.76488 0.68572 0.0
O95 O 0.55543 0.78532 0.69979 0.0
C96 C 0.70827 0.81796 0.77255 0.0
C97 C 0.75301 0.78298 0.72233 0.0
C98 C 0.72101 0.75197 0.68445 0.0
C99 C 0.69889 0.76926 0.70928 0.0
C100 C 0.74005 0.84895 0.81006 0.0
C101 C 0.76211 0.83181 0.7854 0.0
C102 C 0.68578 0.83731 0.80271 0.0
C103 C 0.60086 0.79111 0.051 0.0
C104 C 0.58317 0.66232 0.87616 0.0
C105 C 0.46207 0.70785 0.85937 0.0
C106 C 0.4094 0.73023 0.80695 0.0
C107 C 0.4129 0.70021 0.90534 0.0
C108 C 0.43892 0.68912 0.93107 0.0
C109 C 0.45895 0.7384 0.76162 0.0
C110 C 0.43286 0.74931 0.73555 0.0
C111 C 0.48884 0.69412 0.88737 0.0
H112 H 0.71302 0.71452 0.63484 0.0
H113 H 0.67451 0.74451 0.6794 0.0
H114 H 0.74787 0.88645 0.85955 0.0
H115 H 0.78625 0.85627 0.8179 0.0
H116 H 0.39568 0.68575 0.96318 0.0
H117 H 0.44095 0.66571 0.00716 0.0
H118 H 0.47654 0.75343 0.70497 0.0
H119 H 0.43085 0.7719 0.65853 0.0
Dy120 Dy 0.61656 0.2774 0.10778 0.0
Dy121 Dy 0.53666 0.22216 0.10951 0.0
C122 C 0.57002 0.28451 0.89609 0.0
O123 O 0.608 0.35582 0.08411 0.0
O124 O 0.55823 0.31868 0.14106 0.0
O125 O 0.65652 0.28832 0.03089 0.0
O126 O 0.66331 0.32523 0.18601 0.0
O127 O 0.55963 0.1896 0.2466 0.0
O128 O 0.60416 0.27351 0.27291 0.0
O129 O 0.54496 0.15635 0.0301 0.0
O130 O 0.59545 0.17951 0.1052 0.0
O131 O 0.50159 0.19763 0.22056 0.0
O132 O 0.48727 0.18273 0.05013 0.0
C133 C 0.58474 0.36273 0.11232 0.0
O134 O 0.59681 0.28624 0.93965 0.0
O135 O 0.54479 0.26622 0.94665 0.0
C136 C 0.70274 0.30233 0.14271 0.0
C137 C 0.75426 0.27773 0.20287 0.0
C138 C 0.75657 0.32413 0.12673 0.0
C139 C 0.73109 0.33625 0.09713 0.0
C140 C 0.70003 0.25569 0.2183 0.0
C141 C 0.72562 0.24346 0.24817 0.0
C142 C 0.67667 0.31718 0.10965 0.0
C143 C 0.58037 0.22828 0.31199 0.0
C144 C 0.56949 0.14544 0.04786 0.0
C145 C 0.45349 0.2 0.15276 0.0
C146 C 0.40255 0.22459 0.17327 0.0
C147 C 0.42038 0.21516 0.26526 0.0
C148 C 0.44535 0.20291 0.25512 0.0
C149 C 0.43601 0.21014 0.06048 0.0
C150 C 0.41093 0.22238 0.07062 0.0
C151 C 0.47825 0.18133 0.1449 0.0
H152 H 0.77799 0.35065 0.08861 0.0
H153 H 0.73352 0.37224 0.03818 0.0
H154 H 0.67826 0.22898 0.25426 0.0
H155 H 0.72309 0.20766 0.30754 0.0
H156 H 0.41446 0.21536 0.34567 0.0
H157 H 0.45789 0.1943 0.32802 0.0
H158 H 0.44135 0.20774 -0.01971 0.0
H159 H 0.39805 0.22996 -0.00223 0.0
H160 H 0.0464 0.3968 0.3192 0.0
H161 H 0.14675 0.48497 0.39645 0.0
H162 H 0.14316 0.56919 0.45663 0.0
H163 H 0.11161 0.61383 0.50154 0.0
H164 H 1.01121 0.52761 0.4281 0.0
H165 H 1.01472 0.4462 0.35191 0.0
C166 C 0.06757 0.43502 0.34681 0.0
C167 C 0.09688 0.43449 0.35341 0.0
C168 C 0.06525 0.48297 0.38382 0.0
C169 C 0.12396 0.48413 0.39064 0.0
C170 C 0.1219 0.53218 0.4257 0.0
C171 C 0.09035 0.57719 0.46929 0.0
C172 C 0.06107 0.57613 0.47276 0.0
C173 C 0.09264 0.53125 0.42549 0.0
C174 C 0.03398 0.52913 0.42759 0.0
C175 C 0.03603 0.48271 0.38393 0.0
H176 H 0.81403 0.85263 0.67702 0.0
H177 H 0.74575 0.66987 0.71547 0.0
H178 H 0.78451 0.63833 0.68405 0.0
H179 H 0.83853 0.66221 0.65255 0.0
H180 H 0.90662 0.84516 0.61304 0.0
H181 H 0.86758 0.87647 0.64096 0.0
C182 C 0.80757 0.80583 0.6793 0.0
C183 C 0.77673 0.76389 0.69898 0.0
C184 C 0.83017 0.78779 0.66197 0.0
C185 C 0.76898 0.70344 0.69932 0.0
C186 C 0.7913 0.68524 0.6821 0.0
C187 C 0.84485 0.70898 0.64859 0.0
C188 C 0.87588 0.75103 0.6312 0.0
C189 C 0.82205 0.72698 0.66389 0.0
C190 C 0.88333 0.81146 0.62818 0.0
C191 C 0.86085 0.82957 0.64342 0.0
H192 H 0.5404 0.39329 0.01801 0.0
H193 H 0.63586 0.46525 0.16261 0.0
H194 H 0.64393 0.5653 0.10152 0.0
H195 H 0.62488 0.63095 -0.00324 0.0
H196 H 0.53006 0.55833 0.84351 0.0
H197 H 0.52087 0.45964 0.91657 0.0
C198 C 0.56265 0.43117 0.03843 0.0
C199 C 0.58739 0.42254 0.09574 0.0
C200 C 0.56747 0.48807 -0.00087 0.0
C201 C 0.61645 0.47139 0.11936 0.0
C202 C 0.62114 0.52835 0.08363 0.0
C203 C 0.60223 0.59358 -0.0212 0.0
C204 C 0.57831 0.60207 0.91411 0.0
C205 C 0.59704 0.537 0.0212 0.0
C206 C 0.54902 0.55309 0.89245 0.0
C207 C 0.54363 0.49662 0.93475 0.0
H208 H 0.85574 0.18294 0.3005 0.0
H209 H 0.91776 0.37016 0.3072 0.0
H210 H 0.87278 0.3913 0.27337 0.0
H211 H 0.8159 0.35675 0.23976 0.0
H212 H 0.754 0.16953 0.23275 0.0
H213 H 0.79887 0.14832 0.27271 0.0
C214 C 0.85948 0.22839 0.29631 0.0
C215 C 0.89021 0.27486 0.30635 0.0
C216 C 0.83349 0.24025 0.2774 0.0
C217 C 0.89447 0.3335 0.29842 0.0
C218 C 0.86873 0.34564 0.27967 0.0
C219 C 0.8122 0.31128 0.24643 0.0
C220 C 0.78154 0.26484 0.23276 0.0
C221 C 0.83815 0.29939 0.26824 0.0
C222 C 0.77723 0.20616 0.24389 0.0
C223 C 0.80292 0.19398 0.26597 0.0
H224 H 0.39651 0.2892 0.32226 0.0
H225 H 0.34554 0.18188 0.05106 0.0
H226 H 0.29956 0.19445 0.07417 0.0
H227 H 0.2728 0.23284 0.17603 0.0
H228 H 0.32416 0.33945 0.44789 0.0
H229 H 0.37036 0.32898 0.42115 0.0
C230 C 0.37533 0.26817 0.26842 0.0
C231 C 0.37477 0.23452 0.18499 0.0
C232 C 0.34871 0.27497 0.2829 0.0
C233 C 0.34706 0.2087 0.11513 0.0
C234 C 0.32055 0.21548 0.12881 0.0
C235 C 0.29415 0.25421 0.22893 0.0
C236 C 0.29461 0.28636 0.31481 0.0
C237 C 0.32098 0.24822 0.21289 0.0
C238 C 0.32265 0.31333 0.38262 0.0
C239 C 0.34929 0.30775 0.36695 0.0
H240 H 0.34838 0.65708 0.84503 0.0
H241 H 0.40752 0.82965 0.70596 0.0
H242 H 0.3621 0.84824 0.65631 0.0
H243 H 0.30566 0.81608 0.65266 0.0
H244 H 0.24638 0.64427 0.79332 0.0
H245 H 0.29191 0.62572 0.84489 0.0
C246 C 0.35146 0.69907 0.80498 0.0
C247 C 0.3815 0.74171 0.77894 0.0
C248 C 0.3252 0.70983 0.77744 0.0
C249 C 0.38474 0.79549 0.72549 0.0
C250 C 0.35876 0.80639 0.69765 0.0
C251 C 0.30261 0.77433 0.69386 0.0
C252 C 0.27251 0.73154 0.71849 0.0
C253 C 0.32887 0.76383 0.72281 0.0
C254 C 0.26922 0.67824 0.77403 0.0
C255 C 0.29526 0.66744 0.80301 0.0
H256 H 0.5441 0.91062 0.8428 0.0
H257 H 0.64493 0.98703 0.897 0.0
H258 H 0.64659 0.07568 0.96211 0.0
H259 H 0.61898 0.1271 0.01808 0.0
H260 H 0.51803 0.04934 0.96581 0.0
H261 H 0.51685 0.96473 0.88679 0.0
C262 C 0.56654 0.94692 0.86763 0.0
C263 C 0.59438 0.94197 0.86591 0.0
C264 C 0.56722 0.99683 0.90728 0.0
C265 C 0.62321 0.98978 0.89692 0.0
C266 C 0.62411 0.04015 0.93535 0.0
C267 C 0.59666 0.09155 -0.01012 0.0
C268 C 0.56854 0.09403 -0.00022 0.0
C269 C 0.59619 0.04334 0.94369 0.0
C270 C 0.53995 0.04827 0.96029 0.0
C271 C 0.53928 0.99999 0.91478 0.0
H272 H 0.03764 0.88702 0.58439 0.0
H273 H 0.13693 0.94349 0.58926 0.0
H274 H 0.14635 0.04566 0.55246 0.0
H275 H 0.12618 0.11787 0.50329 0.0
H276 H 0.02703 0.06261 0.49694 0.0
H277 H 1.01791 0.96141 0.55048 0.0
C278 C 0.06138 0.92181 0.57935 0.0
C279 C 0.08645 0.90747 0.58817 0.0
C280 C 0.06669 0.98071 0.55655 0.0
C281 C 0.1171 0.95313 0.58138 0.0
C282 C 0.12257 0.01167 0.56013 0.0
C283 C 0.10258 0.08377 0.51394 0.0
C284 C 0.07733 0.09764 0.49461 0.0
C285 C 0.09746 0.02573 0.5446 0.0
C286 C 0.04694 0.05311 0.51071 0.0
C287 C 0.04165 0.99514 0.54125 0.0
H288 H 0.04579 0.23455 0.04198 0.0
H289 H 0.12026 0.18351 0.10326 0.0
H290 H 0.12783 0.19812 0.91059 0.0
H291 H 0.11896 0.24075 0.73518 0.0
H292 H 0.04835 0.30288 0.67672 0.0
H293 H 0.0342 0.27076 0.86131 0.0
C294 C 0.0627 0.22435 0.01157 0.0
C295 C 0.0823 0.20756 0.0835 0.0
C296 C 0.06855 0.23764 0.90374 0.0
C297 C 0.1048 0.19567 0.04672 0.0
C298 C 0.10946 0.20513 0.9378 0.0
C299 C 0.1006 0.24777 0.76262 0.0
C300 C 0.08511 0.27512 0.69378 0.0
C301 C 0.09261 0.22918 0.86729 0.0
C302 C 0.06095 0.28277 0.72961 0.0
C303 C 0.05259 0.26381 0.8342 0.0
H304 H 0.10114 0.80248 0.90861 0.0
H305 H 1.02192 0.62887 0.89418 0.0
H306 H 1.00846 0.6403 0.06882 0.0
H307 H 1.0231 0.69496 0.23295 0.0
H308 H 0.1052 0.86353 0.25296 0.0
H309 H 0.11286 0.86057 0.06453 0.0
C310 C 0.08097 0.76696 0.94362 0.0
C311 C 0.06293 0.71438 0.89039 0.0
C312 C 0.07347 0.77385 0.04295 0.0
C313 C 0.03645 0.66934 0.93524 0.0
C314 C 0.02858 0.67606 0.03419 0.0
C315 C 0.0418 0.73199 0.19386 0.0
C316 C 0.06342 0.77967 0.25389 0.0
C317 C 0.04728 0.7277 0.08937 0.0
C318 C 0.08819 0.82702 0.20579 0.0
C319 C 0.09282 0.82474 0.09944 0.0
H320 H 0.55227 0.77581 0.15027 0.0
H321 H 0.65302 0.84754 0.18676 0.0
H322 H 0.65424 0.86475 0.37647 0.0
H323 H 0.62567 0.84144 0.53497 0.0
H324 H 0.52476 0.76386 0.50092 0.0
H325 H 0.52431 0.76861 0.30394 0.0
C326 C 0.57443 0.79548 0.20009 0.0
C327 C 0.6024 0.8082 0.15848 0.0
C328 C 0.57479 0.80436 0.30769 0.0
C329 C 0.63125 0.83621 0.22001 0.0
C330 C 0.63193 0.84611 0.3275 0.0
C331 C 0.6037 0.82667 0.48371 0.0
C332 C 0.57527 0.80044 0.52963 0.0
C333 C 0.60371 0.82764 0.37285 0.0
C334 C 0.54679 0.78325 0.46508 0.0
C335 C 0.54657 0.78558 0.35341 0.0
H336 H 0.60611 0.32298 0.43384 0.0
H337 H 0.53439 0.14168 0.42417 0.0
H338 H 0.51914 0.14918 0.59835 0.0
H339 H 0.53058 0.20379 0.76103 0.0
H340 H 0.60538 0.38142 0.77589 0.0
H341 H 0.61413 0.38029 0.588 0.0
C342 C 0.5872 0.28497 0.46983 0.0
C343 C 0.57183 0.23144 0.41804 0.0
C344 C 0.57863 0.28966 0.56891 0.0
C345 C 0.54689 0.18303 0.46409 0.0
C346 C 0.53799 0.18744 0.56282 0.0
C347 C 0.54782 0.24295 0.72095 0.0
C348 C 0.56716 0.29282 0.77961 0.0
C349 C 0.55409 0.24023 0.61661 0.0
C350 C 0.59009 0.34307 0.72998 0.0
C351 C 0.5954 0.34195 0.62388 0.0
loop_
_geom_bond_atom_site_label_1
_geom_bond_atom_site_label_2
_geom_bond_distance
_geom_bond_site_symmetry_2
_ccdc_geom_bond_type
Dy0 O3 2.307 . S
Dy0 O5 2.395 . S
Dy0 O6 2.379 . S
Dy0 O8 2.339 . S
Dy0 O10 2.298 . S
Dy0 O14 2.275 . S
Dy0 C22 2.738 . S
Dy1 O4 2.298 . S
Dy1 O7 2.275 . S
Dy1 O9 2.307 . S
Dy1 O11 2.395 1_455 S
Dy1 O12 2.379 1_455 S
Dy1 O15 2.339 . S
Dy1 C31 2.738 1_455 S
C2 O14 1.254 . S
C2 O15 1.257 . S
O3 Dy0 2.307 . S
O3 C13 1.266 . S
O4 Dy1 2.298 . S
O4 C13 1.236 . S
O5 Dy0 2.395 . S
O5 C22 1.255 . S
O6 Dy0 2.379 . S
O6 C22 1.249 . S
O7 Dy1 2.275 . S
O7 C23 1.254 . S
O8 Dy0 2.339 . S
O8 C23 1.257 . S
O9 Dy1 2.307 . S
O9 C24 1.266 . S
O10 Dy0 2.298 . S
O10 C24 1.236 . S
O11 Dy1 2.395 1_655 S
O11 C31 1.255 . S
O12 Dy1 2.379 1_655 S
O12 C31 1.249 . S
C13 O3 1.266 . S
C13 O4 1.236 . S
O14 Dy0 2.275 . S
O14 C2 1.254 . S
O15 Dy1 2.339 . S
O15 C2 1.257 . S
C16 C19 1.344 . S
C16 C20 1.328 . S
C16 C22 1.516 . S
C17 C18 1.304 . S
C17 C21 1.323 . S
C18 C17 1.304 . S
C18 C19 1.371 . S
C18 H32 0.930 . S
C19 C16 1.344 . S
C19 C18 1.371 . S
C19 H33 0.931 . S
C20 C16 1.328 . S
C20 C21 1.433 . S
C20 H34 0.931 . S
C21 C17 1.323 . S
C21 C20 1.433 . S
C21 H35 0.933 . S
C22 Dy0 2.738 . S
C22 O5 1.255 . S
C22 O6 1.249 . S
C22 C16 1.516 . S
C23 O7 1.254 . S
C23 O8 1.257 . S
C24 O9 1.266 . S
C24 O10 1.236 . S
C25 C28 1.344 . S
C25 C29 1.328 . S
C25 C31 1.516 . S
C26 C27 1.304 . S
C26 C30 1.323 . S
C27 C26 1.304 . S
C27 C28 1.371 . S
C27 H36 0.930 . S
C28 C25 1.344 . S
C28 C27 1.371 . S
C28 H37 0.931 . S
C29 C25 1.328 . S
C29 C30 1.433 . S
C29 H38 0.931 . S
C30 C26 1.323 . S
C30 C29 1.433 . S
C30 H39 0.933 . S
C31 Dy1 2.738 1_655 S
C31 O11 1.255 . S
C31 O12 1.249 . S
C31 C25 1.516 . S
H32 C18 0.930 . S
H33 C19 0.931 . S
H34 C20 0.931 . S
H35 C21 0.933 . S
H36 C27 0.930 . S
H37 C28 0.931 . S
H38 C29 0.931 . S
H39 C30 0.933 . S
Dy40 O43 2.307 . S
Dy40 O45 2.395 . S
Dy40 O46 2.379 . S
Dy40 O48 2.339 . S
Dy40 O50 2.298 . S
Dy40 O54 2.275 . S
Dy40 C62 2.738 . S
Dy41 O44 2.298 . S
Dy41 O47 2.275 . S
Dy41 O49 2.307 . S
Dy41 O51 2.395 1_455 S
Dy41 O52 2.379 1_455 S
Dy41 O55 2.339 . S
Dy41 C71 2.738 1_455 S
C42 O54 1.254 . S
C42 O55 1.257 . S
O43 Dy40 2.307 . S
O43 C53 1.266 . S
O44 Dy41 2.298 . S
O44 C53 1.236 . S
O45 Dy40 2.395 . S
O45 C62 1.255 . S
O46 Dy40 2.379 . S
O46 C62 1.249 . S
O47 Dy41 2.275 . S
O47 C63 1.254 . S
O48 Dy40 2.339 . S
O48 C63 1.257 . S
O49 Dy41 2.307 . S
O49 C64 1.266 . S
O50 Dy40 2.298 . S
O50 C64 1.236 . S
O51 Dy41 2.395 1_655 S
O51 C71 1.255 . S
O52 Dy41 2.379 1_655 S
O52 C71 1.249 . S
C53 O43 1.266 . S
C53 O44 1.236 . S
O54 Dy40 2.275 . S
O54 C42 1.254 . S
O55 Dy41 2.339 . S
O55 C42 1.257 . S
C56 C59 1.344 . S
C56 C60 1.328 . S
C56 C62 1.516 . S
C57 C58 1.304 . S
C57 C61 1.323 . S
C58 C57 1.304 . S
C58 C59 1.371 . S
C58 H72 0.930 . S
C59 C56 1.344 . S
C59 C58 1.371 . S
C59 H73 0.931 . S
C60 C56 1.328 . S
C60 C61 1.433 . S
C60 H74 0.931 . S
C61 C57 1.323 . S
C61 C60 1.433 . S
C61 H75 0.933 . S
C62 Dy40 2.738 . S
C62 O45 1.255 . S
C62 O46 1.249 . S
C62 C56 1.516 . S
C63 O47 1.254 . S
C63 O48 1.257 . S
C64 O49 1.266 . S
C64 O50 1.236 . S
C65 C68 1.344 . S
C65 C69 1.328 . S
C65 C71 1.516 . S
C66 C67 1.304 . S
C66 C70 1.323 . S
C67 C66 1.304 . S
C67 C68 1.371 . S
C67 H76 0.930 . S
C68 C65 1.344 . S
C68 C67 1.371 . S
C68 H77 0.931 . S
C69 C65 1.328 . S
C69 C70 1.433 . S
C69 H78 0.931 . S
C70 C66 1.323 . S
C70 C69 1.433 . S
C70 H79 0.933 . S
C71 Dy41 2.738 1_655 S
C71 O51 1.255 . S
C71 O52 1.249 . S
C71 C65 1.516 . S
H72 C58 0.930 . S
H73 C59 0.931 . S
H74 C60 0.931 . S
H75 C61 0.933 . S
H76 C67 0.930 . S
H77 C68 0.931 . S
H78 C69 0.931 . S
H79 C70 0.933 . S
Dy80 O83 2.307 . S
Dy80 O85 2.395 . S
Dy80 O86 2.379 . S
Dy80 O88 2.339 1_556 S
Dy80 O90 2.298 . S
Dy80 O94 2.275 . S
Dy80 C102 2.738 . S
Dy81 O84 2.298 . S
Dy81 O87 2.275 1_556 S
Dy81 O89 2.307 . S
Dy81 O91 2.395 . S
Dy81 O92 2.379 . S
Dy81 O95 2.339 . S
Dy81 C111 2.738 . S
C82 O94 1.254 . S
C82 O95 1.257 . S
O83 Dy80 2.307 . S
O83 C93 1.266 . S
O84 Dy81 2.298 . S
O84 C93 1.236 . S
O85 Dy80 2.395 . S
O85 C102 1.255 . S
O86 Dy80 2.379 . S
O86 C102 1.249 . S
O87 Dy81 2.275 1_554 S
O87 C103 1.254 . S
O88 Dy80 2.339 1_554 S
O88 C103 1.257 . S
O89 Dy81 2.307 . S
O89 C104 1.266 . S
O90 Dy80 2.298 . S
O90 C104 1.236 . S
O91 Dy81 2.395 . S
O91 C111 1.255 . S
O92 Dy81 2.379 . S
O92 C111 1.249 . S
C93 O83 1.266 . S
C93 O84 1.236 . S
O94 Dy80 2.275 . S
O94 C82 1.254 . S
O95 Dy81 2.339 . S
O95 C82 1.257 . S
C96 C99 1.344 . S
C96 C100 1.328 . S
C96 C102 1.516 . S
C97 C98 1.304 . S
C97 C101 1.323 . S
C98 C97 1.304 . S
C98 C99 1.371 . S
C98 H112 0.930 . S
C99 C96 1.344 . S
C99 C98 1.371 . S
C99 H113 0.931 . S
C100 C96 1.328 . S
C100 C101 1.433 . S
C100 H114 0.931 1_556 S
C101 C97 1.323 . S
C101 C100 1.433 . S
C101 H115 0.933 1_556 S
C102 Dy80 2.738 . S
C102 O85 1.255 . S
C102 O86 1.249 . S
C102 C96 1.516 . S
C103 O87 1.254 . S
C103 O88 1.257 . S
C104 O89 1.266 . S
C104 O90 1.236 . S
C105 C108 1.344 . S
C105 C109 1.328 . S
C105 C111 1.516 . S
C106 C107 1.304 . S
C106 C110 1.323 . S
C107 C106 1.304 . S
C107 C108 1.371 . S
C107 H116 0.930 1_556 S
C108 C105 1.344 . S
C108 C107 1.371 . S
C108 H117 0.931 1_556 S
C109 C105 1.328 . S
C109 C110 1.433 . S
C109 H118 0.931 . S
C110 C106 1.323 . S
C110 C109 1.433 . S
C110 H119 0.933 . S
C111 Dy81 2.738 . S
C111 O91 1.255 . S
C111 O92 1.249 . S
C111 C105 1.516 . S
H112 C98 0.930 . S
H113 C99 0.931 . S
H114 C100 0.931 1_554 S
H115 C101 0.933 1_554 S
H116 C107 0.930 1_554 S
H117 C108 0.931 1_554 S
H118 C109 0.931 . S
H119 C110 0.933 . S
Dy120 O123 2.307 . S
Dy120 O125 2.395 . S
Dy120 O126 2.379 . S
Dy120 O128 2.339 . S
Dy120 O130 2.298 . S
Dy120 O134 2.275 1_554 S
Dy120 C142 2.738 . S
Dy121 O124 2.298 . S
Dy121 O127 2.275 . S
Dy121 O129 2.307 . S
Dy121 O131 2.395 . S
Dy121 O132 2.379 . S
Dy121 O135 2.339 1_554 S
Dy121 C151 2.738 . S
C122 O134 1.254 . S
C122 O135 1.257 . S
O123 Dy120 2.307 . S
O123 C133 1.266 . S
O124 Dy121 2.298 . S
O124 C133 1.236 . S
O125 Dy120 2.395 . S
O125 C142 1.255 . S
O126 Dy120 2.379 . S
O126 C142 1.249 . S
O127 Dy121 2.275 . S
O127 C143 1.254 . S
O128 Dy120 2.339 . S
O128 C143 1.257 . S
O129 Dy121 2.307 . S
O129 C144 1.266 . S
O130 Dy120 2.298 . S
O130 C144 1.236 . S
O131 Dy121 2.395 . S
O131 C151 1.255 . S
O132 Dy121 2.379 . S
O132 C151 1.249 . S
C133 O123 1.266 . S
C133 O124 1.236 . S
O134 Dy120 2.275 1_556 S
O134 C122 1.254 . S
O135 Dy121 2.339 1_556 S
O135 C122 1.257 . S
C136 C139 1.344 . S
C136 C140 1.328 . S
C136 C142 1.516 . S
C137 C138 1.304 . S
C137 C141 1.323 . S
C138 C137 1.304 . S
C138 C139 1.371 . S
C138 H152 0.930 1_554 S
C139 C136 1.344 . S
C139 C138 1.371 . S
C139 H153 0.931 1_554 S
C140 C136 1.328 . S
C140 C141 1.433 . S
C140 H154 0.931 . S
C141 C137 1.323 . S
C141 C140 1.433 . S
C141 H155 0.933 . S
C142 Dy120 2.738 . S
C142 O125 1.255 . S
C142 O126 1.249 . S
C142 C136 1.516 . S
C143 O127 1.254 . S
C143 O128 1.257 . S
C144 O129 1.266 . S
C144 O130 1.236 . S
C145 C148 1.344 . S
C145 C149 1.328 . S
C145 C151 1.516 . S
C146 C147 1.304 . S
C146 C150 1.323 . S
C147 C146 1.304 . S
C147 C148 1.371 . S
C147 H156 0.930 . S
C148 C145 1.344 . S
C148 C147 1.371 . S
C148 H157 0.931 . S
C149 C145 1.328 . S
C149 C150 1.433 . S
C149 H158 0.931 1_554 S
C150 C146 1.323 . S
C150 C149 1.433 . S
C150 H159 0.933 1_554 S
C151 Dy121 2.738 . S
C151 O131 1.255 . S
C151 O132 1.249 . S
C151 C145 1.516 . S
H152 C138 0.930 1_556 S
H153 C139 0.931 1_556 S
H154 C140 0.931 . S
H155 C141 0.933 . S
H156 C147 0.930 . S
H157 C148 0.931 . S
H158 C149 0.931 1_556 S
H159 C150 0.933 1_556 S
H160 C166 0.930 . S
H161 C169 0.930 . S
H162 C170 0.927 1_655 S
H163 C171 0.930 . S
H164 C174 0.930 . S
H165 C175 0.930 . S
C166 H160 0.930 . S
C166 C167 1.355 . S
C166 C168 1.415 . S
C167 C166 1.355 . S
C167 C169 1.419 . S
C168 C166 1.415 . S
C168 C173 1.425 . S
C168 C175 1.409 . S
C169 H161 0.930 . S
C169 C167 1.419 . S
C169 C170 1.362 . S
C170 H162 0.927 1_455 S
C170 C169 1.362 . S
C170 C173 1.409 . S
C171 H163 0.930 . S
C171 C172 1.355 . S
C171 C173 1.415 . S
C172 C171 1.355 . S
C172 C174 1.419 . S
C173 C168 1.425 . S
C173 C170 1.409 . S
C173 C171 1.415 . S
C174 H164 0.930 . S
C174 C172 1.419 . S
C174 C175 1.362 . S
C175 H165 0.930 . S
C175 C168 1.409 . S
C175 C174 1.362 . S
H176 C182 0.930 . S
H177 C185 0.930 . S
H178 C186 0.930 . S
H179 C187 0.930 . S
H180 C190 0.930 . S
H181 C191 0.930 . S
C182 H176 0.930 . S
C182 C183 1.355 . S
C182 C184 1.415 . S
C183 C182 1.355 . S
C183 C185 1.419 . S
C184 C182 1.415 . S
C184 C189 1.425 . S
C184 C191 1.409 . S
C185 H177 0.930 . S
C185 C183 1.419 . S
C185 C186 1.362 . S
C186 H178 0.930 . S
C186 C185 1.362 . S
C186 C189 1.409 . S
C187 H179 0.930 . S
C187 C188 1.355 . S
C187 C189 1.415 . S
C188 C187 1.355 . S
C188 C190 1.419 . S
C189 C184 1.425 . S
C189 C186 1.409 . S
C189 C187 1.415 . S
C190 H180 0.930 . S
C190 C188 1.419 . S
C190 C191 1.362 . S
C191 H181 0.930 . S
C191 C184 1.409 . S
C191 C190 1.362 . S
H192 C198 0.930 1_556 S
H193 C201 0.930 . S
H194 C202 0.930 . S
H195 C203 0.930 1_554 S
H196 C206 0.930 . S
H197 C207 0.930 . S
C198 H192 0.930 1_554 S
C198 C199 1.355 . S
C198 C200 1.415 1_554 S
C199 C198 1.355 . S
C199 C201 1.419 . S
C200 C198 1.415 1_556 S
C200 C205 1.425 1_556 S
C200 C207 1.409 . S
C201 H193 0.930 . S
C201 C199 1.419 . S
C201 C202 1.362 . S
C202 H194 0.930 . S
C202 C201 1.362 . S
C202 C205 1.409 . S
C203 H195 0.930 1_556 S
C203 C204 1.355 . S
C203 C205 1.415 1_556 S
C204 C203 1.355 . S
C204 C206 1.419 . S
C205 C200 1.425 1_554 S
C205 C202 1.409 . S
C205 C203 1.415 1_554 S
C206 H196 0.930 . S
C206 C204 1.419 . S
C206 C207 1.362 . S
C207 H197 0.930 . S
C207 C200 1.409 . S
C207 C206 1.362 . S
H208 C214 0.930 . S
H209 C217 0.930 . S
H210 C218 0.930 . S
H211 C219 0.930 . S
H212 C222 0.930 . S
H213 C223 0.930 . S
C214 H208 0.930 . S
C214 C215 1.355 . S
C214 C216 1.415 . S
C215 C214 1.355 . S
C215 C217 1.419 . S
C216 C214 1.415 . S
C216 C221 1.425 . S
C216 C223 1.409 . S
C217 H209 0.930 . S
C217 C215 1.419 . S
C217 C218 1.362 . S
C218 H210 0.930 . S
C218 C217 1.362 . S
C218 C221 1.409 . S
C219 H211 0.930 . S
C219 C220 1.355 . S
C219 C221 1.415 . S
C220 C219 1.355 . S
C220 C222 1.419 . S
C221 C216 1.425 . S
C221 C218 1.409 . S
C221 C219 1.415 . S
C222 H212 0.930 . S
C222 C220 1.419 . S
C222 C223 1.362 . S
C223 H213 0.930 . S
C223 C216 1.409 . S
C223 C222 1.362 . S
H224 C230 0.930 . S
H225 C233 0.930 . S
H226 C234 0.930 . S
H227 C235 0.930 . S
H228 C238 0.930 . S
H229 C239 0.930 . S
C230 H224 0.930 . S
C230 C231 1.355 . S
C230 C232 1.415 . S
C231 C230 1.355 . S
C231 C233 1.419 . S
C232 C230 1.415 . S
C232 C237 1.425 . S
C232 C239 1.409 . S
C233 H225 0.930 . S
C233 C231 1.419 . S
C233 C234 1.362 . S
C234 H226 0.930 . S
C234 C233 1.362 . S
C234 C237 1.409 . S
C235 H227 0.930 . S
C235 C236 1.355 . S
C235 C237 1.415 . S
C236 C235 1.355 . S
C236 C238 1.419 . S
C237 C232 1.425 . S
C237 C234 1.409 . S
C237 C235 1.415 . S
C238 H228 0.930 . S
C238 C236 1.419 . S
C238 C239 1.362 . S
C239 H229 0.930 . S
C239 C232 1.409 . S
C239 C238 1.362 . S
H240 C246 0.930 . S
H241 C249 0.930 . S
H242 C250 0.930 . S
H243 C251 0.930 . S
H244 C254 0.930 . S
H245 C255 0.930 . S
C246 H240 0.930 . S
C246 C247 1.355 . S
C246 C248 1.415 . S
C247 C246 1.355 . S
C247 C249 1.419 . S
C248 C246 1.415 . S
C248 C253 1.425 . S
C248 C255 1.409 . S
C249 H241 0.930 . S
C249 C247 1.419 . S
C249 C250 1.362 . S
C250 H242 0.930 . S
C250 C249 1.362 . S
C250 C253 1.409 . S
C251 H243 0.930 . S
C251 C252 1.355 . S
C251 C253 1.415 . S
C252 C251 1.355 . S
C252 C254 1.419 . S
C253 C248 1.425 . S
C253 C250 1.409 . S
C253 C251 1.415 . S
C254 H244 0.930 . S
C254 C252 1.419 . S
C254 C255 1.362 . S
C255 H245 0.930 . S
C255 C248 1.409 . S
C255 C254 1.362 . S
H256 C262 0.930 . S
H257 C265 0.930 . S
H258 C266 0.930 . S
H259 C267 0.930 . S
H260 C270 0.930 . S
H261 C271 0.930 . S
C262 H256 0.930 . S
C262 C263 1.355 . S
C262 C264 1.415 1_565 S
C263 C262 1.355 . S
C263 C265 1.419 1_556 S
C264 C262 1.415 1_545 S
C264 C269 1.425 1_546 S
C264 C271 1.409 . S
C265 H257 0.930 . S
C265 C263 1.419 1_554 S
C265 C266 1.362 . S
C266 H258 0.930 . S
C266 C265 1.362 . S
C266 C269 1.409 . S
C267 H259 0.930 . S
C267 C268 1.355 . S
C267 C269 1.415 1_545 S
C268 C267 1.355 . S
C268 C270 1.419 1_554 S
C269 C264 1.425 1_564 S
C269 C266 1.409 . S
C269 C267 1.415 1_565 S
C270 H260 0.930 . S
C270 C268 1.419 1_556 S
C270 C271 1.362 . S
C271 H261 0.930 . S
C271 C264 1.409 . S
C271 C270 1.362 . S
H272 C278 0.930 . S
H273 C281 0.930 . S
H274 C282 0.934 . S
H275 C283 0.930 . S
H276 C286 0.930 . S
H277 C287 0.934 1_655 S
C278 H272 0.930 . S
C278 C279 1.355 . S
C278 C280 1.415 . S
C279 C278 1.355 . S
C279 C281 1.419 . S
C280 C278 1.415 . S
C280 C285 1.425 1_565 S
C280 C287 1.425 . S
C281 H273 0.930 . S
C281 C279 1.419 . S
C281 C282 1.344 1_565 S
C282 H274 0.934 . S
C282 C281 1.344 1_545 S
C282 C285 1.424 . S
C283 H275 0.930 . S
C283 C284 1.355 . S
C283 C285 1.415 . S
C284 C283 1.355 . S
C284 C286 1.419 . S
C285 C280 1.425 1_545 S
C285 C282 1.424 . S
C285 C283 1.415 . S
C286 H276 0.930 . S
C286 C284 1.419 . S
C286 C287 1.344 1_545 S
C287 H277 0.934 1_455 S
C287 C280 1.425 . S
C287 C286 1.344 1_565 S
H288 C294 0.930 . S
H289 C297 0.930 . S
H290 C298 0.930 . S
H291 C299 0.930 . S
H292 C302 0.930 . S
H293 C303 0.930 . S
C294 H288 0.930 . S
C294 C295 1.355 . S
C294 C296 1.415 1_554 S
C295 C294 1.355 . S
C295 C297 1.419 . S
C296 C294 1.415 1_556 S
C296 C301 1.425 . S
C296 C303 1.409 . S
C297 H289 0.930 . S
C297 C295 1.419 . S
C297 C298 1.362 1_554 S
C298 H290 0.930 . S
C298 C297 1.362 1_556 S
C298 C301 1.409 . S
C299 H291 0.930 . S
C299 C300 1.355 . S
C299 C301 1.415 . S
C300 C299 1.355 . S
C300 C302 1.419 . S
C301 C296 1.425 . S
C301 C298 1.409 . S
C301 C299 1.415 . S
C302 H292 0.930 . S
C302 C300 1.419 . S
C302 C303 1.362 . S
C303 H293 0.930 . S
C303 C296 1.409 . S
C303 C302 1.362 . S
H304 C310 0.930 . S
H305 C313 0.930 . S
H306 C314 0.930 . S
H307 C315 0.930 . S
H308 C318 0.930 . S
H309 C319 0.930 . S
C310 H304 0.930 . S
C310 C311 1.355 . S
C310 C312 1.415 1_556 S
C311 C310 1.355 . S
C311 C313 1.419 . S
C312 C310 1.415 1_554 S
C312 C317 1.425 . S
C312 C319 1.409 . S
C313 H305 0.930 . S
C313 C311 1.419 . S
C313 C314 1.362 1_556 S
C314 H306 0.930 . S
C314 C313 1.362 1_554 S
C314 C317 1.409 . S
C315 H307 0.930 . S
C315 C316 1.355 . S
C315 C317 1.415 . S
C316 C315 1.355 . S
C316 C318 1.419 . S
C317 C312 1.425 . S
C317 C314 1.409 . S
C317 C315 1.415 . S
C318 H308 0.930 . S
C318 C316 1.419 . S
C318 C319 1.362 . S
C319 H309 0.930 . S
C319 C312 1.409 . S
C319 C318 1.362 . S
H320 C326 0.930 . S
H321 C329 0.930 . S
H322 C330 0.930 . S
H323 C331 0.930 . S
H324 C334 0.930 . S
H325 C335 0.930 . S
C326 H320 0.930 . S
C326 C327 1.355 . S
C326 C328 1.415 . S
C327 C326 1.355 . S
C327 C329 1.419 . S
C328 C326 1.415 . S
C328 C333 1.425 . S
C328 C335 1.409 . S
C329 H321 0.930 . S
C329 C327 1.419 . S
C329 C330 1.362 . S
C330 H322 0.930 . S
C330 C329 1.362 . S
C330 C333 1.409 . S
C331 H323 0.930 . S
C331 C332 1.355 . S
C331 C333 1.415 . S
C332 C331 1.355 . S
C332 C334 1.419 . S
C333 C328 1.425 . S
C333 C330 1.409 . S
C333 C331 1.415 . S
C334 H324 0.930 . S
C334 C332 1.419 . S
C334 C335 1.362 . S
C335 H325 0.930 . S
C335 C328 1.409 . S
C335 C334 1.362 . S
H336 C342 0.930 . S
H337 C345 0.930 . S
H338 C346 0.930 . S
H339 C347 0.930 . S
H340 C350 0.930 . S
H341 C351 0.930 . S
C342 H336 0.930 . S
C342 C343 1.355 . S
C342 C344 1.415 . S
C343 C342 1.355 . S
C343 C345 1.419 . S
C344 C342 1.415 . S
C344 C349 1.425 . S
C344 C351 1.409 . S
C345 H337 0.930 . S
C345 C343 1.419 . S
C345 C346 1.362 . S
C346 H338 0.930 . S
C346 C345 1.362 . S
C346 C349 1.409 . S
C347 H339 0.930 . S
C347 C348 1.355 . S
C347 C349 1.415 . S
C348 C347 1.355 . S
C348 C350 1.419 . S
C349 C344 1.425 . S
C349 C346 1.409 . S
C349 C347 1.415 . S
C350 H340 0.930 . S
C350 C348 1.419 . S
C350 C351 1.362 . S
C351 H341 0.930 . S
C351 C344 1.409 . S
C351 C350 1.362 . S
C167 C13 1.850 . S
C172 C64 1.850 . S
C183 C97 1.847 . S
C188 C66 1.847 . S
C199 C133 1.597 . S
C204 C104 1.597 . S
C215 C26 1.620 . S
C220 C137 1.620 . S
C231 C146 1.853 . S
C236 C17 1.853 . S
C247 C106 1.618 . S
C252 C57 1.618 . S
C263 C93 1.846 . S
C268 C144 1.846 . S
C279 C53 1.569 . S
C284 C24 1.569 . S
C295 C2 0.968 . S
C300 C23 0.968 . S
C311 C63 1.001 . S
C316 C42 1.001 . S
C327 C103 0.984 . S
C332 C82 0.984 . S
C343 C143 1.012 . S
C348 C122 1.012 . S
