# Generated by pormake.
# Topology wjb, (6)-cn, num edge types: 1
# Building blocks:
#     Node 0, Type 0, BuildingBlock: OJICUG_clean_sbu_0, # of connection points: 6
#     Node 1, Type 0, BuildingBlock: OJICUG_clean_sbu_0, # of connection points: 6
#     Node 2, Type 0, BuildingBlock: OJICUG_clean_sbu_0, # of connection points: 6
#     Node 3, Type 0, BuildingBlock: OJICUG_clean_sbu_0, # of connection points: 6
#     Node 4, Type 0, BuildingBlock: OJICUG_clean_sbu_0, # of connection points: 6
#     Node 5, Type 0, BuildingBlock: OJICUG_clean_sbu_0, # of connection points: 6
#     Node 6, Type 0, BuildingBlock: OJICUG_clean_sbu_0, # of connection points: 6
#     Node 7, Type 0, BuildingBlock: OJICUG_clean_sbu_0, # of connection points: 6
#     Node 8, Type 0, BuildingBlock: OJICUG_clean_sbu_0, # of connection points: 6
#     Node 9, Type 0, BuildingBlock: OJICUG_clean_sbu_0, # of connection points: 6
#     Node 10, Type 0, BuildingBlock: OJICUG_clean_sbu_0, # of connection points: 6
#     Node 11, Type 0, BuildingBlock: OJICUG_clean_sbu_0, # of connection points: 6
#     Node 12, Type 0, BuildingBlock: OJICUG_clean_sbu_0, # of connection points: 6
#     Node 13, Type 0, BuildingBlock: OJICUG_clean_sbu_0, # of connection points: 6
#     Node 14, Type 0, BuildingBlock: OJICUG_clean_sbu_0, # of connection points: 6
#     Node 15, Type 0, BuildingBlock: OJICUG_clean_sbu_0, # of connection points: 6
#     Node 16, Type 0, BuildingBlock: OJICUG_clean_sbu_0, # of connection points: 6
#     Node 17, Type 0, BuildingBlock: OJICUG_clean_sbu_0, # of connection points: 6
#     Node 18, Type 0, BuildingBlock: OJICUG_clean_sbu_0, # of connection points: 6
#     Node 19, Type 0, BuildingBlock: OJICUG_clean_sbu_0, # of connection points: 6
#     Node 20, Type 0, BuildingBlock: OJICUG_clean_sbu_0, # of connection points: 6
#     Node 21, Type 0, BuildingBlock: OJICUG_clean_sbu_0, # of connection points: 6
#     Node 22, Type 0, BuildingBlock: OJICUG_clean_sbu_0, # of connection points: 6
#     Node 23, Type 0, BuildingBlock: OJICUG_clean_sbu_0, # of connection points: 6
#     Edge 24, Type (0, 0), BuildingBlock: OJICUG_clean_linker_0, # of connection points: 2
#     Edge 25, Type (0, 0), BuildingBlock: OJICUG_clean_linker_0, # of connection points: 2
#     Edge 26, Type (0, 0), BuildingBlock: OJICUG_clean_linker_0, # of connection points: 2
#     Edge 27, Type (0, 0), BuildingBlock: OJICUG_clean_linker_0, # of connection points: 2
#     Edge 28, Type (0, 0), BuildingBlock: OJICUG_clean_linker_0, # of connection points: 2
#     Edge 29, Type (0, 0), BuildingBlock: OJICUG_clean_linker_0, # of connection points: 2
#     Edge 30, Type (0, 0), BuildingBlock: OJICUG_clean_linker_0, # of connection points: 2
#     Edge 31, Type (0, 0), BuildingBlock: OJICUG_clean_linker_0, # of connection points: 2
#     Edge 32, Type (0, 0), BuildingBlock: OJICUG_clean_linker_0, # of connection points: 2
#     Edge 33, Type (0, 0), BuildingBlock: OJICUG_clean_linker_0, # of connection points: 2
#     Edge 34, Type (0, 0), BuildingBlock: OJICUG_clean_linker_0, # of connection points: 2
#     Edge 35, Type (0, 0), BuildingBlock: OJICUG_clean_linker_0, # of connection points: 2
#     Edge 36, Type (0, 0), BuildingBlock: OJICUG_clean_linker_0, # of connection points: 2
#     Edge 37, Type (0, 0), BuildingBlock: OJICUG_clean_linker_0, # of connection points: 2
#     Edge 38, Type (0, 0), BuildingBlock: OJICUG_clean_linker_0, # of connection points: 2
#     Edge 39, Type (0, 0), BuildingBlock: OJICUG_clean_linker_0, # of connection points: 2
#     Edge 40, Type (0, 0), BuildingBlock: OJICUG_clean_linker_0, # of connection points: 2
#     Edge 41, Type (0, 0), BuildingBlock: OJICUG_clean_linker_0, # of connection points: 2
#     Edge 42, Type (0, 0), BuildingBlock: OJICUG_clean_linker_0, # of connection points: 2
#     Edge 43, Type (0, 0), BuildingBlock: OJICUG_clean_linker_0, # of connection points: 2
#     Edge 44, Type (0, 0), BuildingBlock: OJICUG_clean_linker_0, # of connection points: 2
#     Edge 45, Type (0, 0), BuildingBlock: OJICUG_clean_linker_0, # of connection points: 2
#     Edge 46, Type (0, 0), BuildingBlock: OJICUG_clean_linker_0, # of connection points: 2
#     Edge 47, Type (0, 0), BuildingBlock: OJICUG_clean_linker_0, # of connection points: 2
#     Edge 48, Type (0, 0), BuildingBlock: OJICUG_clean_linker_0, # of connection points: 2
#     Edge 49, Type (0, 0), BuildingBlock: OJICUG_clean_linker_0, # of connection points: 2
#     Edge 50, Type (0, 0), BuildingBlock: OJICUG_clean_linker_0, # of connection points: 2
#     Edge 51, Type (0, 0), BuildingBlock: OJICUG_clean_linker_0, # of connection points: 2
#     Edge 52, Type (0, 0), BuildingBlock: OJICUG_clean_linker_0, # of connection points: 2
#     Edge 53, Type (0, 0), BuildingBlock: OJICUG_clean_linker_0, # of connection points: 2
#     Edge 54, Type (0, 0), BuildingBlock: OJICUG_clean_linker_0, # of connection points: 2
#     Edge 55, Type (0, 0), BuildingBlock: OJICUG_clean_linker_0, # of connection points: 2
#     Edge 56, Type (0, 0), BuildingBlock: OJICUG_clean_linker_0, # of connection points: 2
#     Edge 57, Type (0, 0), BuildingBlock: OJICUG_clean_linker_0, # of connection points: 2
#     Edge 58, Type (0, 0), BuildingBlock: OJICUG_clean_linker_0, # of connection points: 2
#     Edge 59, Type (0, 0), BuildingBlock: OJICUG_clean_linker_0, # of connection points: 2
#     Edge 60, Type (0, 0), BuildingBlock: OJICUG_clean_linker_0, # of connection points: 2
#     Edge 61, Type (0, 0), BuildingBlock: OJICUG_clean_linker_0, # of connection points: 2
#     Edge 62, Type (0, 0), BuildingBlock: OJICUG_clean_linker_0, # of connection points: 2
#     Edge 63, Type (0, 0), BuildingBlock: OJICUG_clean_linker_0, # of connection points: 2
#     Edge 64, Type (0, 0), BuildingBlock: OJICUG_clean_linker_0, # of connection points: 2
#     Edge 65, Type (0, 0), BuildingBlock: OJICUG_clean_linker_0, # of connection points: 2
#     Edge 66, Type (0, 0), BuildingBlock: OJICUG_clean_linker_0, # of connection points: 2
#     Edge 67, Type (0, 0), BuildingBlock: OJICUG_clean_linker_0, # of connection points: 2
#     Edge 68, Type (0, 0), BuildingBlock: OJICUG_clean_linker_0, # of connection points: 2
#     Edge 69, Type (0, 0), BuildingBlock: OJICUG_clean_linker_0, # of connection points: 2
#     Edge 70, Type (0, 0), BuildingBlock: OJICUG_clean_linker_0, # of connection points: 2
#     Edge 71, Type (0, 0), BuildingBlock: OJICUG_clean_linker_0, # of connection points: 2
#     Edge 72, Type (0, 0), BuildingBlock: OJICUG_clean_linker_0, # of connection points: 2
#     Edge 73, Type (0, 0), BuildingBlock: OJICUG_clean_linker_0, # of connection points: 2
#     Edge 74, Type (0, 0), BuildingBlock: OJICUG_clean_linker_0, # of connection points: 2
#     Edge 75, Type (0, 0), BuildingBlock: OJICUG_clean_linker_0, # of connection points: 2
#     Edge 76, Type (0, 0), BuildingBlock: OJICUG_clean_linker_0, # of connection points: 2
#     Edge 77, Type (0, 0), BuildingBlock: OJICUG_clean_linker_0, # of connection points: 2
#     Edge 78, Type (0, 0), BuildingBlock: OJICUG_clean_linker_0, # of connection points: 2
#     Edge 79, Type (0, 0), BuildingBlock: OJICUG_clean_linker_0, # of connection points: 2
#     Edge 80, Type (0, 0), BuildingBlock: OJICUG_clean_linker_0, # of connection points: 2
#     Edge 81, Type (0, 0), BuildingBlock: OJICUG_clean_linker_0, # of connection points: 2
#     Edge 82, Type (0, 0), BuildingBlock: OJICUG_clean_linker_0, # of connection points: 2
#     Edge 83, Type (0, 0), BuildingBlock: OJICUG_clean_linker_0, # of connection points: 2
#     Edge 84, Type (0, 0), BuildingBlock: OJICUG_clean_linker_0, # of connection points: 2
#     Edge 85, Type (0, 0), BuildingBlock: OJICUG_clean_linker_0, # of connection points: 2
#     Edge 86, Type (0, 0), BuildingBlock: OJICUG_clean_linker_0, # of connection points: 2
#     Edge 87, Type (0, 0), BuildingBlock: OJICUG_clean_linker_0, # of connection points: 2
#     Edge 88, Type (0, 0), BuildingBlock: OJICUG_clean_linker_0, # of connection points: 2
#     Edge 89, Type (0, 0), BuildingBlock: OJICUG_clean_linker_0, # of connection points: 2
#     Edge 90, Type (0, 0), BuildingBlock: OJICUG_clean_linker_0, # of connection points: 2
#     Edge 91, Type (0, 0), BuildingBlock: OJICUG_clean_linker_0, # of connection points: 2
#     Edge 92, Type (0, 0), BuildingBlock: OJICUG_clean_linker_0, # of connection points: 2
#     Edge 93, Type (0, 0), BuildingBlock: OJICUG_clean_linker_0, # of connection points: 2
#     Edge 94, Type (0, 0), BuildingBlock: OJICUG_clean_linker_0, # of connection points: 2
#     Edge 95, Type (0, 0), BuildingBlock: OJICUG_clean_linker_0, # of connection points: 2
# Relax obj value: 0.482
# Max RMSD: 0.212
# Mean RMSD: 0.212
data_MOF--net-wjb--node1-OJICUG_clean_sbu_0--edge1-OJICUG_clean_linker_0
_symmetry_space_group_name_H-M    P1
_symmetry_Int_Tables_number       1
_symmetry_cell_setting            triclinic
loop_
_symmetry_equiv_pos_as_xyz
'x, y, z'
_cell_length_a     39.044999
_cell_length_b     39.043746
_cell_length_c     43.223085
_cell_angle_alpha  90.024071
_cell_angle_beta   89.983663
_cell_angle_gamma 119.93322
loop_
_atom_site_label
_atom_site_type_symbol
_atom_site_fract_x
_atom_site_fract_y
_atom_site_fract_z
_atom_type_partial_charge
Sc0 Sc 0.1083 0.4961 0.12099 0.0
Sc1 Sc 0.16235 0.4452 0.12177 0.0
Sc2 Sc 0.20662 0.54236 0.09849 0.0
O3 O 0.15854 0.49441 0.11396 0.0
C4 C 0.13845 0.53524 0.05462 0.0
C5 C 0.07374 0.40758 0.09844 0.0
C6 C 0.20896 0.4735 0.06069 0.0
C7 C 0.11992 0.45425 0.18122 0.0
C8 C 0.16963 0.58372 0.1397 0.0
C9 C 0.24691 0.51479 0.14469 0.0
O10 O 0.11156 0.52131 0.07537 0.0
O11 O 0.10206 0.40359 0.10847 0.0
O12 O 0.22543 0.50864 0.07109 0.0
O13 O 0.10317 0.47051 0.16664 0.0
O14 O 0.19645 0.58367 0.12335 0.0
O15 O 0.22448 0.47891 0.13649 0.0
O16 O 0.13565 0.55363 0.14279 0.0
O17 O 0.14359 0.44476 0.16853 0.0
O18 O 0.23946 0.54182 0.13745 0.0
O19 O 0.07356 0.43986 0.0998 0.0
O20 O 0.17396 0.54357 0.0594 0.0
O21 O 0.18011 0.4448 0.07442 0.0
Sc22 Sc 0.61835 0.11672 0.61842 0.0
Sc23 Sc 0.72241 0.16674 0.62342 0.0
Sc24 Sc 0.67439 0.21773 0.60696 0.0
O25 O 0.67104 0.16639 0.61605 0.0
C26 C 0.61158 0.1595 0.55768 0.0
C27 C 0.67004 0.08041 0.59635 0.0
C28 C 0.74161 0.21695 0.56477 0.0
C29 C 0.66806 0.12124 0.68001 0.0
C30 C 0.594 0.17703 0.64539 0.0
C31 C 0.74398 0.25117 0.6502 0.0
O32 O 0.59981 0.12802 0.57369 0.0
O33 O 0.70091 0.10596 0.61014 0.0
O34 O 0.72585 0.23518 0.57774 0.0
O35 O 0.63622 0.10537 0.6637 0.0
O36 O 0.62403 0.20673 0.63402 0.0
O37 O 0.75541 0.22874 0.63834 0.0
O38 O 0.58746 0.14201 0.64216 0.0
O39 O 0.70208 0.14657 0.66944 0.0
O40 O 0.70851 0.24298 0.64766 0.0
O41 O 0.63963 0.0838 0.59365 0.0
O42 O 0.63846 0.19341 0.5668 0.0
O43 O 0.73983 0.18611 0.57645 0.0
Sc44 Sc 0.4947 0.6188 0.12031 0.0
Sc45 Sc 0.55198 0.72423 0.12265 0.0
Sc46 Sc 0.45302 0.67569 0.0992 0.0
O47 O 0.50015 0.67291 0.11418 0.0
C48 C 0.45128 0.60791 0.05648 0.0
C49 C 0.58453 0.66891 0.09852 0.0
C50 C 0.52498 0.74004 0.05815 0.0
C51 C 0.53822 0.66919 0.18131 0.0
C52 C 0.40932 0.6008 0.14238 0.0
C53 C 0.48847 0.74823 0.14469 0.0
O54 O 0.47215 0.59911 0.0738 0.0
O55 O 0.59006 0.70256 0.10638 0.0
O56 O 0.48856 0.71879 0.065 0.0
O57 O 0.5177 0.63649 0.16685 0.0
O58 O 0.41306 0.63246 0.13115 0.0
O59 O 0.52414 0.75669 0.14093 0.0
O60 O 0.43521 0.59052 0.13886 0.0
O61 O 0.55234 0.70314 0.16858 0.0
O62 O 0.45973 0.71836 0.13246 0.0
O63 O 0.55186 0.63735 0.10193 0.0
O64 O 0.44081 0.63265 0.06434 0.0
O65 O 0.553 0.74538 0.0762 0.0
Sc66 Sc 0.8826 0.50013 0.61964 0.0
Sc67 Sc 0.83025 0.55249 0.62035 0.0
Sc68 Sc 0.78369 0.45479 0.59941 0.0
O69 O 0.83282 0.50254 0.61343 0.0
C70 C 0.84946 0.45905 0.55407 0.0
C71 C 0.91866 0.58856 0.59699 0.0
C72 C 0.78496 0.52221 0.559 0.0
C73 C 0.87223 0.54332 0.67989 0.0
C74 C 0.82108 0.41317 0.63977 0.0
C75 C 0.74591 0.48509 0.64493 0.0
O76 O 0.87718 0.47344 0.57419 0.0
O77 O 0.89107 0.59326 0.60774 0.0
O78 O 0.76497 0.48918 0.57266 0.0
O79 O 0.88888 0.52701 0.66511 0.0
O80 O 0.79382 0.41324 0.62403 0.0
O81 O 0.76785 0.52011 0.63469 0.0
O82 O 0.85529 0.44311 0.64213 0.0
O83 O 0.84847 0.5529 0.66736 0.0
O84 O 0.75347 0.45772 0.63933 0.0
O85 O 0.91762 0.55567 0.59744 0.0
O86 O 0.81431 0.45155 0.55958 0.0
O87 O 0.81375 0.55155 0.57229 0.0
Sc88 Sc 0.37767 0.88047 0.12078 0.0
Sc89 Sc 0.27337 0.83025 0.12391 0.0
Sc90 Sc 0.32234 0.7795 0.108 0.0
O91 O 0.32502 0.83065 0.11731 0.0
C92 C 0.38759 0.83909 0.06062 0.0
C93 C 0.32625 0.91658 0.09702 0.0
C94 C 0.25502 0.77986 0.06514 0.0
C95 C 0.32649 0.87566 0.1813 0.0
C96 C 0.40111 0.81959 0.1484 0.0
C97 C 0.25075 0.74526 0.15025 0.0
O98 O 0.3978 0.87029 0.07656 0.0
O99 O 0.2948 0.8907 0.10992 0.0
O100 O 0.27246 0.76281 0.07727 0.0
O101 O 0.35872 0.8913 0.16557 0.0
O102 O 0.37124 0.78997 0.13673 0.0
O103 O 0.24012 0.7686 0.13905 0.0
O104 O 0.4079 0.85469 0.14491 0.0
O105 O 0.2927 0.85068 0.17015 0.0
O106 O 0.28585 0.75228 0.14737 0.0
O107 O 0.3572 0.91393 0.09586 0.0
O108 O 0.36071 0.8048 0.06902 0.0
O109 O 0.25603 0.81025 0.07703 0.0
Sc110 Sc 0.49995 0.37661 0.61838 0.0
Sc111 Sc 0.44368 0.2723 0.62092 0.0
Sc112 Sc 0.54238 0.31877 0.60397 0.0
O113 O 0.49532 0.32327 0.61442 0.0
C114 C 0.54693 0.38261 0.55606 0.0
C115 C 0.41183 0.32738 0.59523 0.0
C116 C 0.47503 0.25603 0.56079 0.0
C117 C 0.45367 0.32536 0.67907 0.0
C118 C 0.58442 0.39819 0.64355 0.0
C119 C 0.50575 0.24985 0.64816 0.0
O120 O 0.52947 0.3957 0.57349 0.0
O121 O 0.4055 0.29534 0.60765 0.0
O122 O 0.50737 0.26728 0.57529 0.0
O123 O 0.4709 0.35783 0.6636 0.0
O124 O 0.58329 0.36865 0.63047 0.0
O125 O 0.47207 0.23848 0.6359 0.0
O126 O 0.55618 0.40533 0.6421 0.0
O127 O 0.44352 0.29139 0.66747 0.0
O128 O 0.53383 0.28474 0.64451 0.0
O129 O 0.44581 0.35777 0.59421 0.0
O130 O 0.55286 0.35457 0.564 0.0
O131 O 0.4458 0.25674 0.57325 0.0
Sc132 Sc 0.45581 0.77606 0.89376 0.0
Sc133 Sc 0.55265 0.82929 0.87124 0.0
Sc134 Sc 0.49479 0.87536 0.87697 0.0
O135 O 0.50103 0.8275 0.88057 0.0
C136 C 0.40992 0.81061 0.85522 0.0
C137 C 0.48931 0.74325 0.84681 0.0
C138 C 0.53917 0.87161 0.81467 0.0
C139 C 0.52852 0.78241 0.93177 0.0
C140 C 0.45253 0.83599 0.94134 0.0
C141 C 0.58371 0.9156 0.8977 0.0
O142 O 0.41221 0.78351 0.86953 0.0
O143 O 0.52415 0.76673 0.85669 0.0
O144 O 0.52237 0.88657 0.83103 0.0
O145 O 0.49397 0.76134 0.92042 0.0
O146 O 0.46673 0.86523 0.92253 0.0
O147 O 0.59028 0.89078 0.8839 0.0
O148 O 0.44832 0.80243 0.93438 0.0
O149 O 0.55522 0.81304 0.91826 0.0
O150 O 0.54945 0.91116 0.90018 0.0
O151 O 0.46103 0.74912 0.85281 0.0
O152 O 0.43803 0.84603 0.85434 0.0
O153 O 0.54948 0.84752 0.82528 0.0
Sc154 Sc 0.67539 0.45468 0.38783 0.0
Sc155 Sc 0.7235 0.55373 0.37156 0.0
Sc156 Sc 0.61929 0.49942 0.37544 0.0
O157 O 0.67205 0.50261 0.37845 0.0
C158 C 0.59559 0.41486 0.34865 0.0
C159 C 0.74502 0.49111 0.34423 0.0
C160 C 0.66999 0.54513 0.31437 0.0
C161 C 0.74043 0.52187 0.43109 0.0
C162 C 0.61151 0.44948 0.43617 0.0
C163 C 0.67026 0.58718 0.39823 0.0
O164 O 0.62536 0.41519 0.3606 0.0
O165 O 0.75664 0.52479 0.3565 0.0
O166 O 0.63797 0.52904 0.33045 0.0
O167 O 0.72657 0.48864 0.41723 0.0
O168 O 0.59991 0.46914 0.41989 0.0
O169 O 0.70153 0.59279 0.38487 0.0
O170 O 0.63894 0.44288 0.42769 0.0
O171 O 0.73993 0.55136 0.41887 0.0
O172 O 0.63983 0.55335 0.40038 0.0
O173 O 0.70978 0.46357 0.34733 0.0
O174 O 0.58904 0.44342 0.35135 0.0
O175 O 0.70395 0.554 0.32526 0.0
Sc176 Sc 0.20392 0.65717 0.89707 0.0
Sc177 Sc 0.16283 0.71611 0.87663 0.0
Sc178 Sc 0.10715 0.61086 0.87293 0.0
O179 O 0.1578 0.66173 0.88224 0.0
C180 C 0.17127 0.58832 0.84971 0.0
C181 C 0.24923 0.73544 0.857 0.0
C182 C 0.1215 0.66717 0.81485 0.0
C183 C 0.20145 0.72072 0.94254 0.0
C184 C 0.1319 0.58704 0.93372 0.0
C185 C 0.0731 0.66558 0.89678 0.0
O186 O 0.20033 0.62022 0.85939 0.0
O187 O 0.22238 0.74468 0.85788 0.0
O188 O 0.10821 0.63307 0.82717 0.0
O189 O 0.21024 0.69432 0.93559 0.0
O190 O 0.10426 0.58784 0.91883 0.0
O191 O 0.10446 0.69862 0.89391 0.0
O192 O 0.16802 0.60725 0.92598 0.0
O193 O 0.18513 0.73342 0.92364 0.0
O194 O 0.07058 0.63305 0.88939 0.0
O195 O 0.24592 0.70508 0.87016 0.0
O196 O 0.13569 0.5787 0.8557 0.0
O197 O 0.14058 0.6997 0.82979 0.0
Sc198 Sc 0.54443 0.22082 0.38856 0.0
Sc199 Sc 0.44558 0.16902 0.37173 0.0
Sc200 Sc 0.50151 0.12045 0.37454 0.0
O201 O 0.49714 0.1694 0.37831 0.0
C202 C 0.58583 0.18266 0.34891 0.0
C203 C 0.50794 0.25357 0.34449 0.0
C204 C 0.45485 0.12486 0.31389 0.0
C205 C 0.47696 0.21746 0.43162 0.0
C206 C 0.54913 0.16162 0.43655 0.0
C207 C 0.41367 0.08255 0.39827 0.0
O208 O 0.58483 0.2113 0.36174 0.0
O209 O 0.47407 0.23107 0.35635 0.0
O210 O 0.47231 0.10982 0.32933 0.0
O211 O 0.50993 0.23766 0.41767 0.0
O212 O 0.53115 0.13091 0.41939 0.0
O213 O 0.40729 0.10817 0.38572 0.0
O214 O 0.55521 0.19556 0.42843 0.0
O215 O 0.44782 0.18755 0.41911 0.0
O216 O 0.44752 0.08576 0.39889 0.0
O217 O 0.53595 0.2466 0.34815 0.0
O218 O 0.5576 0.14737 0.35072 0.0
O219 O 0.44496 0.14894 0.32539 0.0
Sc220 Sc 0.32578 0.54312 0.89177 0.0
Sc221 Sc 0.27285 0.44264 0.87331 0.0
Sc222 Sc 0.37828 0.49587 0.87453 0.0
O223 O 0.3256 0.49355 0.87986 0.0
C224 C 0.40076 0.58151 0.84899 0.0
C225 C 0.25034 0.50658 0.84959 0.0
C226 C 0.32587 0.45179 0.81437 0.0
C227 C 0.26142 0.47561 0.93648 0.0
C228 C 0.39374 0.54547 0.93503 0.0
C229 C 0.32545 0.40708 0.89761 0.0
O230 O 0.36867 0.57912 0.85781 0.0
O231 O 0.24094 0.4711 0.85552 0.0
O232 O 0.35891 0.47125 0.82865 0.0
O233 O 0.28327 0.51125 0.92756 0.0
O234 O 0.39886 0.5201 0.92035 0.0
O235 O 0.2924 0.4029 0.88961 0.0
O236 O 0.37037 0.55713 0.9258 0.0
O237 O 0.2544 0.44566 0.92001 0.0
O238 O 0.35769 0.43904 0.89419 0.0
O239 O 0.28229 0.53567 0.85885 0.0
O240 O 0.40953 0.55499 0.85504 0.0
O241 O 0.29213 0.43968 0.82712 0.0
Sc242 Sc 0.78708 0.33416 0.39423 0.0
Sc243 Sc 0.83136 0.27765 0.37527 0.0
Sc244 Sc 0.88509 0.38296 0.37309 0.0
O245 O 0.8347 0.33129 0.38092 0.0
C246 C 0.82113 0.40482 0.34846 0.0
C247 C 0.74511 0.25654 0.35326 0.0
C248 C 0.87325 0.32804 0.31425 0.0
C249 C 0.79014 0.2711 0.44015 0.0
C250 C 0.85631 0.40406 0.43339 0.0
C251 C 0.92038 0.3295 0.39708 0.0
O252 O 0.79184 0.37243 0.35714 0.0
O253 O 0.77202 0.24757 0.35604 0.0
O254 O 0.88624 0.36184 0.32713 0.0
O255 O 0.77954 0.29591 0.43234 0.0
O256 O 0.88515 0.40477 0.41912 0.0
O257 O 0.88984 0.29615 0.39287 0.0
O258 O 0.82065 0.38307 0.42468 0.0
O259 O 0.80875 0.26 0.42213 0.0
O260 O 0.92204 0.36183 0.3905 0.0
O261 O 0.74743 0.287 0.36545 0.0
O262 O 0.85649 0.41452 0.35525 0.0
O263 O 0.85403 0.29512 0.32868 0.0
Sc264 Sc 0.88219 0.49842 0.87345 0.0
Sc265 Sc 0.8277 0.54896 0.8727 0.0
Sc266 Sc 0.78401 0.45191 0.89653 0.0
O267 O 0.83182 0.49992 0.88069 0.0
C268 C 0.82105 0.41046 0.85537 0.0
C269 C 0.87054 0.54033 0.81316 0.0
C270 C 0.74299 0.47877 0.85037 0.0
C271 C 0.91635 0.58697 0.89609 0.0
C272 C 0.85268 0.45967 0.94012 0.0
C273 C 0.78071 0.52085 0.93372 0.0
O274 O 0.85489 0.44067 0.85194 0.0
O275 O 0.84683 0.54973 0.82593 0.0
O276 O 0.75062 0.45189 0.85775 0.0
O277 O 0.91686 0.55487 0.89439 0.0
O278 O 0.8171 0.45122 0.93549 0.0
O279 O 0.80947 0.54955 0.91991 0.0
O280 O 0.87939 0.47354 0.91922 0.0
O281 O 0.88781 0.59078 0.8863 0.0
O282 O 0.76503 0.48548 0.92394 0.0
O283 O 0.88709 0.52381 0.82766 0.0
O284 O 0.7943 0.41055 0.8718 0.0
O285 O 0.76565 0.51484 0.85797 0.0
Sc286 Sc 0.38465 0.88445 0.3731 0.0
Sc287 Sc 0.27985 0.83504 0.37356 0.0
Sc288 Sc 0.32926 0.78446 0.3905 0.0
O289 O 0.33168 0.83519 0.37927 0.0
C290 C 0.40628 0.82089 0.34823 0.0
C291 C 0.33094 0.87775 0.31401 0.0
C292 C 0.25613 0.74864 0.34877 0.0
C293 C 0.33484 0.92265 0.39794 0.0
C294 C 0.39695 0.84742 0.43469 0.0
C295 C 0.2622 0.78585 0.43323 0.0
O296 O 0.41364 0.85633 0.35033 0.0
O297 O 0.29764 0.85492 0.32688 0.0
O298 O 0.29052 0.75406 0.35295 0.0
O299 O 0.36621 0.92083 0.39605 0.0
O300 O 0.36983 0.81253 0.42789 0.0
O301 O 0.26252 0.81548 0.42057 0.0
O302 O 0.40633 0.87751 0.41762 0.0
O303 O 0.30182 0.89553 0.38804 0.0
O304 O 0.28094 0.76958 0.42222 0.0
O305 O 0.36423 0.89239 0.32813 0.0
O306 O 0.37649 0.79233 0.36091 0.0
O307 O 0.24629 0.77332 0.35843 0.0
Sc308 Sc 0.4939 0.37722 0.87399 0.0
Sc309 Sc 0.43689 0.27168 0.87155 0.0
Sc310 Sc 0.53414 0.32039 0.8996 0.0
O311 O 0.48811 0.32308 0.88156 0.0
C312 C 0.58019 0.3947 0.85571 0.0
C313 C 0.45267 0.32701 0.8124 0.0
C314 C 0.50235 0.24893 0.85272 0.0
C315 C 0.40336 0.32668 0.89433 0.0
C316 C 0.53311 0.38842 0.94011 0.0
C317 C 0.45988 0.25424 0.93749 0.0
O318 O 0.55402 0.40489 0.85687 0.0
O319 O 0.43787 0.2932 0.82544 0.0
O320 O 0.52976 0.27769 0.86716 0.0
O321 O 0.43587 0.35842 0.89069 0.0
O322 O 0.54346 0.36307 0.93412 0.0
O323 O 0.43331 0.24867 0.91783 0.0
O324 O 0.51436 0.39773 0.92091 0.0
O325 O 0.39823 0.29292 0.88728 0.0
O326 O 0.49661 0.27706 0.93284 0.0
O327 O 0.47306 0.35968 0.82686 0.0
O328 O 0.57617 0.36386 0.86879 0.0
O329 O 0.46651 0.24077 0.85377 0.0
Sc330 Sc 0.11165 0.49896 0.37467 0.0
Sc331 Sc 0.16615 0.44851 0.3733 0.0
Sc332 Sc 0.20958 0.54506 0.39816 0.0
O333 O 0.16193 0.49736 0.38181 0.0
C334 C 0.17283 0.5871 0.35743 0.0
C335 C 0.12313 0.45735 0.3142 0.0
C336 C 0.25099 0.5193 0.35167 0.0
C337 C 0.07746 0.41027 0.39676 0.0
C338 C 0.14073 0.53662 0.44161 0.0
C339 C 0.213 0.47559 0.43425 0.0
O340 O 0.13927 0.55675 0.35317 0.0
O341 O 0.14726 0.44833 0.32664 0.0
O342 O 0.24301 0.54591 0.35913 0.0
O343 O 0.07704 0.44246 0.39561 0.0
O344 O 0.17622 0.54463 0.4373 0.0
O345 O 0.18405 0.44716 0.4204 0.0
O346 O 0.11445 0.52377 0.42039 0.0
O347 O 0.1059 0.40654 0.38655 0.0
O348 O 0.22877 0.51108 0.42478 0.0
O349 O 0.10642 0.47351 0.32895 0.0
O350 O 0.19916 0.58688 0.37431 0.0
O351 O 0.22837 0.48308 0.35892 0.0
Sc352 Sc 0.61134 0.11355 0.87252 0.0
Sc353 Sc 0.71605 0.16294 0.8716 0.0
Sc354 Sc 0.66715 0.21367 0.88929 0.0
O355 O 0.66439 0.16283 0.87801 0.0
C356 C 0.58974 0.17687 0.84738 0.0
C357 C 0.66398 0.11969 0.81271 0.0
C358 C 0.73942 0.24908 0.84682 0.0
C359 C 0.66159 0.07575 0.89667 0.0
C360 C 0.60005 0.15147 0.93423 0.0
C361 C 0.73439 0.21194 0.93141 0.0
O362 O 0.58239 0.14144 0.84946 0.0
O363 O 0.6975 0.14311 0.82503 0.0
O364 O 0.70499 0.24344 0.85117 0.0
O365 O 0.63029 0.0778 0.89584 0.0
O366 O 0.62741 0.18616 0.92723 0.0
O367 O 0.73373 0.18222 0.91861 0.0
O368 O 0.59011 0.12125 0.91714 0.0
O369 O 0.69414 0.10244 0.88573 0.0
O370 O 0.71608 0.22869 0.92047 0.0
O371 O 0.63104 0.10476 0.8274 0.0
O372 O 0.6194 0.20543 0.86021 0.0
O373 O 0.74956 0.22469 0.85658 0.0
Sc374 Sc 0.50024 0.61949 0.37603 0.0
Sc375 Sc 0.55866 0.72487 0.37345 0.0
Sc376 Sc 0.46181 0.6778 0.40211 0.0
O377 O 0.50709 0.67403 0.38373 0.0
C378 C 0.41418 0.6031 0.35859 0.0
C379 C 0.54129 0.66941 0.31443 0.0
C380 C 0.49371 0.74869 0.35501 0.0
C381 C 0.59109 0.66848 0.39546 0.0
C382 C 0.46242 0.60965 0.44253 0.0
C383 C 0.53711 0.74358 0.43928 0.0
O384 O 0.44025 0.59277 0.3589 0.0
O385 O 0.55639 0.70334 0.32726 0.0
O386 O 0.466 0.71975 0.36906 0.0
O387 O 0.55804 0.63717 0.39258 0.0
O388 O 0.45314 0.6359 0.43707 0.0
O389 O 0.56339 0.74769 0.41986 0.0
O390 O 0.47966 0.59916 0.42282 0.0
O391 O 0.59684 0.70242 0.38815 0.0
O392 O 0.50022 0.72192 0.43457 0.0
O393 O 0.5211 0.63687 0.32904 0.0
O394 O 0.4186 0.63378 0.37224 0.0
O395 O 0.52955 0.7568 0.35649 0.0
Sc396 Sc 0.53158 0.21629 0.09855 0.0
Sc397 Sc 0.43545 0.1635 0.12373 0.0
Sc398 Sc 0.49371 0.11777 0.11815 0.0
O399 O 0.48698 0.16535 0.11362 0.0
C400 C 0.53355 0.15425 0.05246 0.0
C401 C 0.4571 0.20845 0.06198 0.0
C402 C 0.40424 0.07669 0.09836 0.0
C403 C 0.49939 0.25052 0.14604 0.0
C404 C 0.57901 0.18382 0.13775 0.0
C405 C 0.45102 0.12327 0.18093 0.0
O406 O 0.53774 0.18799 0.05861 0.0
O407 O 0.43111 0.17854 0.07665 0.0
O408 O 0.43841 0.08084 0.09622 0.0
O409 O 0.52791 0.24562 0.13858 0.0
O410 O 0.5511 0.1484 0.13963 0.0
O411 O 0.43987 0.14653 0.16995 0.0
O412 O 0.57613 0.2102 0.12279 0.0
O413 O 0.46407 0.22622 0.13762 0.0
O414 O 0.46767 0.10813 0.16461 0.0
O415 O 0.49249 0.2296 0.07168 0.0
O416 O 0.52035 0.12595 0.0721 0.0
O417 O 0.39772 0.10181 0.11171 0.0
Sc418 Sc 0.33496 0.54481 0.601 0.0
Sc419 Sc 0.28 0.44422 0.62046 0.0
Sc420 Sc 0.38543 0.49735 0.62308 0.0
O421 O 0.33317 0.495 0.61486 0.0
C422 C 0.40581 0.54617 0.56244 0.0
C423 C 0.27203 0.47769 0.55563 0.0
C424 C 0.3335 0.40855 0.59887 0.0
C425 C 0.25693 0.50861 0.64163 0.0
C426 C 0.40605 0.58345 0.64652 0.0
C427 C 0.33065 0.45324 0.68149 0.0
O428 O 0.3839 0.56002 0.57072 0.0
O429 O 0.26142 0.44836 0.57386 0.0
O430 O 0.36542 0.43936 0.60592 0.0
O431 O 0.28721 0.53697 0.62943 0.0
O432 O 0.41603 0.55776 0.64048 0.0
O433 O 0.29786 0.43913 0.66684 0.0
O434 O 0.37332 0.57961 0.63778 0.0
O435 O 0.24903 0.47295 0.63952 0.0
O436 O 0.36447 0.47508 0.66901 0.0
O437 O 0.29685 0.51323 0.56302 0.0
O438 O 0.40743 0.5188 0.5771 0.0
O439 O 0.29979 0.40522 0.60259 0.0
Sc440 Sc 0.78577 0.33661 0.0967 0.0
Sc441 Sc 0.82704 0.27864 0.11965 0.0
Sc442 Sc 0.88188 0.38402 0.12263 0.0
O443 O 0.83171 0.33274 0.11306 0.0
C444 C 0.85817 0.40727 0.06094 0.0
C445 C 0.78955 0.27268 0.05286 0.0
C446 C 0.9167 0.32958 0.09953 0.0
C447 C 0.74012 0.25896 0.13758 0.0
C448 C 0.81608 0.40523 0.14417 0.0
C449 C 0.86853 0.32868 0.18114 0.0
O450 O 0.82189 0.38668 0.06805 0.0
O451 O 0.80464 0.25981 0.07276 0.0
O452 O 0.91903 0.36208 0.10683 0.0
O453 O 0.74326 0.28839 0.12301 0.0
O454 O 0.85204 0.41537 0.13913 0.0
O455 O 0.84969 0.296 0.16636 0.0
O456 O 0.78765 0.37327 0.13391 0.0
O457 O 0.76751 0.25047 0.13853 0.0
O458 O 0.88097 0.36255 0.16867 0.0
O459 O 0.78127 0.29971 0.05865 0.0
O460 O 0.88554 0.40689 0.07651 0.0
O461 O 0.88542 0.29643 0.1023 0.0
Sc462 Sc 0.46263 0.78089 0.59844 0.0
Sc463 Sc 0.55809 0.83298 0.62541 0.0
Sc464 Sc 0.50028 0.87918 0.61903 0.0
O465 O 0.50694 0.83148 0.61449 0.0
C466 C 0.46227 0.84395 0.55273 0.0
C467 C 0.53797 0.78853 0.56338 0.0
C468 C 0.59014 0.92003 0.60018 0.0
C469 C 0.49306 0.74565 0.64669 0.0
C470 C 0.41453 0.81295 0.63732 0.0
C471 C 0.54183 0.8734 0.68214 0.0
O472 O 0.45798 0.8101 0.55851 0.0
O473 O 0.5636 0.81808 0.57858 0.0
O474 O 0.5561 0.91622 0.59783 0.0
O475 O 0.46479 0.7505 0.63831 0.0
O476 O 0.44249 0.84828 0.63988 0.0
O477 O 0.55295 0.85 0.67142 0.0
O478 O 0.41762 0.78688 0.62206 0.0
O479 O 0.52875 0.77016 0.63928 0.0
O480 O 0.52541 0.88856 0.66566 0.0
O481 O 0.50216 0.76763 0.57218 0.0
O482 O 0.47464 0.8717 0.57279 0.0
O483 O 0.59627 0.89465 0.6135 0.0
Sc484 Sc 0.65822 0.45061 0.10071 0.0
Sc485 Sc 0.71362 0.55096 0.12058 0.0
Sc486 Sc 0.60816 0.49876 0.12223 0.0
O487 O 0.66027 0.50055 0.11452 0.0
C488 C 0.5885 0.45031 0.06117 0.0
C489 C 0.72211 0.51766 0.05577 0.0
C490 C 0.66135 0.58765 0.09857 0.0
C491 C 0.73561 0.48595 0.14198 0.0
C492 C 0.58634 0.4124 0.1456 0.0
C493 C 0.66223 0.54197 0.18136 0.0
O494 O 0.61006 0.43619 0.06978 0.0
O495 O 0.73258 0.54698 0.07401 0.0
O496 O 0.6291 0.55697 0.10522 0.0
O497 O 0.70523 0.45774 0.12975 0.0
O498 O 0.57677 0.43833 0.13941 0.0
O499 O 0.69516 0.55579 0.16689 0.0
O500 O 0.61898 0.41584 0.13707 0.0
O501 O 0.74392 0.5217 0.13971 0.0
O502 O 0.62848 0.52058 0.16858 0.0
O503 O 0.69717 0.48213 0.0631 0.0
O504 O 0.58674 0.47761 0.07589 0.0
O505 O 0.69479 0.59058 0.10276 0.0
Sc506 Sc 0.20716 0.65844 0.59776 0.0
Sc507 Sc 0.16622 0.71688 0.62025 0.0
Sc508 Sc 0.11118 0.61156 0.6238 0.0
O509 O 0.16138 0.66267 0.61397 0.0
C510 C 0.13435 0.58779 0.56233 0.0
C511 C 0.20394 0.72241 0.55362 0.0
C512 C 0.0764 0.66596 0.60055 0.0
C513 C 0.25313 0.73653 0.63816 0.0
C514 C 0.17675 0.58986 0.64504 0.0
C515 C 0.12503 0.66734 0.68195 0.0
O516 O 0.17066 0.60805 0.56947 0.0
O517 O 0.1889 0.73545 0.57343 0.0
O518 O 0.07397 0.63357 0.60835 0.0
O519 O 0.24989 0.70693 0.62375 0.0
O520 O 0.14084 0.57984 0.63986 0.0
O521 O 0.14353 0.69989 0.66697 0.0
O522 O 0.20524 0.62208 0.63525 0.0
O523 O 0.22575 0.74504 0.63913 0.0
O524 O 0.11273 0.63336 0.66974 0.0
O525 O 0.21183 0.69512 0.55948 0.0
O526 O 0.10714 0.5887 0.57773 0.0
O527 O 0.10788 0.69906 0.60268 0.0
C528 C 0.14606 0.54586 0.9685 0.0
C529 C 0.1237 0.56412 0.96239 0.0
H530 H 0.16772 0.52208 0.00261 0.0
C531 C 0.10066 0.56712 0.98609 0.0
H532 H 0.16381 0.54297 0.9505 0.0
C533 C 0.10307 0.55528 0.0163 0.0
C534 C 0.1287 0.54067 0.02278 0.0
H535 H 0.08348 0.58148 0.98184 0.0
H536 H 0.08728 0.56017 0.0348 0.0
C537 C 0.14855 0.53427 -0.00164 0.0
C538 C 0.60147 0.19374 0.5133 0.0
C539 C 0.59382 0.15802 0.52703 0.0
H540 H 0.59397 0.22278 0.47477 0.0
C541 C 0.57063 0.12248 0.51078 0.0
H542 H 0.61891 0.22177 0.52502 0.0
C543 C 0.55597 0.12305 0.48114 0.0
C544 C 0.56415 0.15914 0.46753 0.0
H545 H 0.56426 0.09446 0.52073 0.0
H546 H 0.53829 0.09541 0.46899 0.0
C547 C 0.58696 0.1943 0.48419 0.0
C548 C 0.42641 0.54236 0.98484 0.0
C549 C 0.41421 0.56245 0.96457 0.0
H550 H 0.44804 0.54096 0.0305 0.0
C551 C 0.41757 0.59832 0.97406 0.0
H552 H 0.42407 0.51456 0.97805 0.0
C553 C 0.4299 0.61248 0.00364 0.0
C554 C 0.44046 0.59194 0.0247 0.0
H555 H 0.40922 0.61507 0.95892 0.0
H556 H 0.43038 0.63954 0.01004 0.0
C557 C 0.43976 0.55723 0.01482 0.0
C558 C 0.83503 0.45403 0.49802 0.0
C559 C 0.8577 0.4516 0.52221 0.0
H560 H 0.81796 0.44195 0.45067 0.0
C561 C 0.88552 0.43974 0.51557 0.0
H562 H 0.81413 0.46411 0.50221 0.0
C563 C 0.8879 0.42712 0.4856 0.0
C564 C 0.86259 0.42652 0.4622 0.0
H565 H 0.90358 0.43795 0.53381 0.0
H566 H 0.90735 0.4153 0.48132 0.0
C567 C 0.83744 0.44166 0.46841 0.0
C568 C 0.43823 0.87362 0.98243 0.0
C569 C 0.43928 0.83971 0.97272 0.0
H570 H 0.42118 0.90041 0.01837 0.0
C571 C 0.42614 0.80763 0.99326 0.0
H572 H 0.44839 0.89894 0.96727 0.0
C573 C 0.41063 0.80844 0.02194 0.0
C574 C 0.40801 0.84144 0.03127 0.0
H575 H 0.42702 0.78119 0.98707 0.0
H576 H 0.40013 0.78273 0.03674 0.0
C577 C 0.42283 0.87455 0.01164 0.0
C578 C 0.57241 0.44708 0.48373 0.0
C579 C 0.59236 0.43212 0.46612 0.0
H580 H 0.54247 0.44349 0.52649 0.0
C581 C 0.59566 0.4004 0.47788 0.0
H582 H 0.56942 0.47153 0.4752 0.0
C583 C 0.58049 0.38458 0.50669 0.0
C584 C 0.56151 0.39995 0.52498 0.0
H585 H 0.61028 0.38766 0.46484 0.0
H586 H 0.58416 0.36029 0.51464 0.0
C587 C 0.55719 0.43117 0.51309 0.0
C588 C 0.84319 0.46133 0.99641 0.0
C589 C 0.86262 0.45438 0.97195 0.0
H590 H 0.82782 0.45273 0.04426 0.0
C591 C 0.88756 0.43896 0.97841 0.0
H592 H 0.82449 0.47406 0.99216 0.0
C593 C 0.88967 0.42689 0.00862 0.0
C594 C 0.86698 0.43045 0.03234 0.0
H595 H 0.90296 0.43356 0.95988 0.0
H596 H 0.90624 0.41189 0.01285 0.0
C597 C 0.84534 0.44948 0.02626 0.0
C598 C 0.44512 0.8217 0.49826 0.0
C599 C 0.45103 0.84967 0.52123 0.0
H600 H 0.42364 0.79956 0.45305 0.0
C601 C 0.44348 0.88045 0.51401 0.0
H602 H 0.45148 0.7981 0.50258 0.0
C603 C 0.42784 0.88152 0.48496 0.0
C604 C 0.41939 0.85163 0.46313 0.0
H605 H 0.448 0.90257 0.53114 0.0
H606 H 0.42042 0.90428 0.48022 0.0
C607 C 0.42926 0.82253 0.46974 0.0
C608 C 0.5548 0.39464 0.02505 0.0
C609 C 0.56618 0.43387 0.03224 0.0
H610 H 0.53687 0.35054 0.99053 0.0
C611 C 0.56177 0.45746 0.00972 0.0
H612 H 0.55732 0.37554 0.042 0.0
C613 C 0.5489 0.44251 0.97966 0.0
C614 C 0.54097 0.40419 0.97204 0.0
H615 H 0.57058 0.48795 0.01471 0.0
H616 H 0.54743 0.46152 0.9621 0.0
C617 C 0.54292 0.38024 0.9954 0.0
C618 C 0.14884 0.53345 0.49791 0.0
C619 C 0.13028 0.54137 0.47337 0.0
H620 H 0.16338 0.5411 0.54592 0.0
C621 C 0.10573 0.55728 0.47971 0.0
H622 H 0.16718 0.52031 0.4937 0.0
C623 C 0.10334 0.56902 0.50996 0.0
C624 C 0.12534 0.56462 0.53378 0.0
H625 H 0.09098 0.56339 0.4611 0.0
H626 H 0.08722 0.5845 0.51413 0.0
C627 C 0.1464 0.54497 0.52781 0.0
C628 C 0.57061 0.17836 0.97043 0.0
C629 C 0.57802 0.14777 0.96291 0.0
H630 H 0.55004 0.20373 0.00378 0.0
C631 C 0.56709 0.11651 0.98393 0.0
H632 H 0.5781 0.20247 0.95443 0.0
C633 C 0.55122 0.11739 0.01297 0.0
C634 C 0.54585 0.14937 0.02102 0.0
H635 H 0.57253 0.09254 0.97853 0.0
H636 H 0.54454 0.09394 0.02939 0.0
C637 C 0.55454 0.17904 -0.00111 0.0
C638 C 0.4416 0.60269 0.52756 0.0
C639 C 0.42881 0.56296 0.53398 0.0
H640 H 0.46112 0.64778 0.49373 0.0
C641 C 0.43223 0.53927 0.51101 0.0
H642 H 0.43976 0.62175 0.54494 0.0
C643 C 0.44539 0.55466 0.48117 0.0
C644 C 0.45464 0.59355 0.47426 0.0
H645 H 0.42228 0.5084 0.51548 0.0
H646 H 0.44593 0.53559 0.4632 0.0
C647 C 0.45391 0.61762 0.49811 0.0
C648 C 0.30743 0.56494 0.1715 0.0
C649 C 0.28727 0.52829 0.15624 0.0
H650 H 0.36318 0.61704 0.17936 0.0
C651 C 0.30902 0.51119 0.14483 0.0
H652 H 0.29137 0.57855 0.18094 0.0
C653 C 0.35041 0.53324 0.14425 0.0
C654 C 0.37013 0.57248 0.15494 0.0
H655 H 0.29427 0.48298 0.13298 0.0
H656 H 0.36644 0.5214 0.132 0.0
C657 C 0.34856 0.587 0.17064 0.0
C658 C 0.77881 0.35554 0.67242 0.0
C659 C 0.81218 0.37518 0.65342 0.0
H660 H 0.7317 0.29983 0.68768 0.0
C661 C 0.829 0.35393 0.64057 0.0
H662 H 0.76533 0.37144 0.68243 0.0
C663 C 0.8094 0.31265 0.64316 0.0
C664 C 0.77285 0.29248 0.65858 0.0
H665 H 0.85452 0.36856 0.62553 0.0
H666 H 0.8204 0.29651 0.63002 0.0
C667 C 0.75954 0.31453 0.6753 0.0
C668 C 0.44387 0.75997 0.17755 0.0
C669 C 0.47841 0.77603 0.15952 0.0
H670 H 0.39162 0.76221 0.18854 0.0
C671 C 0.49318 0.81395 0.14689 0.0
H672 H 0.43198 0.73077 0.18758 0.0
C673 C 0.47005 0.83222 0.14767 0.0
C674 C 0.43208 0.81243 0.16091 0.0
H675 H 0.51955 0.8268 0.13267 0.0
H676 H 0.47942 0.85882 0.13417 0.0
C677 C 0.42068 0.7779 0.17804 0.0
C678 C 0.68594 0.43692 0.67346 0.0
C679 C 0.7057 0.47232 0.65653 0.0
H680 H 0.63046 0.38521 0.68297 0.0
C681 C 0.68361 0.4884 0.64391 0.0
H682 H 0.70227 0.42414 0.68385 0.0
C683 C 0.64222 0.46616 0.64382 0.0
C684 C 0.62289 0.4278 0.65625 0.0
H685 H 0.69804 0.51566 0.63079 0.0
H686 H 0.62586 0.47679 0.63056 0.0
C687 C 0.64481 0.41465 0.67309 0.0
C688 C 0.16348 0.6439 0.14088 0.0
C689 C 0.17914 0.62166 0.15376 0.0
H690 H 0.17411 0.70202 0.13027 0.0
C691 C 0.21256 0.64042 0.17282 0.0
H692 H 0.13798 0.62996 0.12575 0.0
C693 C 0.23313 0.68147 0.17557 0.0
C694 C 0.22093 0.70437 0.15881 0.0
H695 H 0.2252 0.62374 0.18283 0.0
H696 H 0.26103 0.69542 0.18789 0.0
C697 C 0.18427 0.6852 0.14346 0.0
C698 C 0.57396 0.21688 0.67696 0.0
C699 C 0.56295 0.18405 0.65779 0.0
H700 H 0.56235 0.26276 0.69028 0.0
C701 C 0.52576 0.16613 0.64332 0.0
H702 H 0.60246 0.23107 0.68841 0.0
C703 C 0.50293 0.1847 0.64391 0.0
C704 C 0.51721 0.22113 0.65913 0.0
H705 H 0.5168 0.14088 0.62825 0.0
H706 H 0.47702 0.17328 0.62925 0.0
C707 C 0.55097 0.23501 0.67794 0.0
C708 C 0.46901 0.63943 0.85099 0.0
C709 C 0.43142 0.62025 0.83707 0.0
H710 H 0.51828 0.69519 0.86461 0.0
C711 C 0.42009 0.64226 0.8184 0.0
H712 H 0.47836 0.62309 0.86563 0.0
C713 C 0.44325 0.68336 0.81735 0.0
C714 C 0.47762 0.70313 0.83553 0.0
H715 H 0.39139 0.62813 0.80727 0.0
H716 H 0.43166 0.69986 0.80546 0.0
C717 C 0.49202 0.68081 0.85032 0.0
C718 C 0.8105 0.49454 0.34873 0.0
C719 C 0.77362 0.47907 0.33401 0.0
H720 H 0.85561 0.48258 0.36433 0.0
C721 C 0.75975 0.44453 0.31614 0.0
H722 H 0.82199 0.52112 0.36262 0.0
C723 C 0.77867 0.42229 0.31744 0.0
C724 C 0.81217 0.43466 0.33613 0.0
H725 H 0.73171 0.43225 0.30412 0.0
H726 H 0.76477 0.39346 0.30652 0.0
C727 C 0.82979 0.47241 0.34971 0.0
C728 C 0.31031 0.80118 0.85448 0.0
C729 C 0.2882 0.76223 0.84355 0.0
H730 H 0.36829 0.84827 0.86618 0.0
C731 C 0.30762 0.74523 0.82794 0.0
H732 H 0.29594 0.8147 0.86684 0.0
C733 C 0.34871 0.7641 0.82785 0.0
C734 C 0.37085 0.8004 0.84304 0.0
H735 H 0.29107 0.71523 0.81924 0.0
H736 H 0.36294 0.74831 0.81904 0.0
C737 C 0.3517 0.82033 0.85416 0.0
C738 C 0.57647 0.35533 0.31689 0.0
C739 C 0.56492 0.37681 0.33597 0.0
H740 H 0.56546 0.29816 0.30325 0.0
C741 C 0.52752 0.35719 0.35011 0.0
H742 H 0.60516 0.36988 0.30574 0.0
C743 C 0.5049 0.31581 0.34917 0.0
C744 C 0.51958 0.29398 0.33394 0.0
H745 H 0.51816 0.37319 0.36515 0.0
H746 H 0.47874 0.30106 0.36354 0.0
C747 C 0.55371 0.31424 0.31556 0.0
C748 C 0.16318 0.52092 0.85034 0.0
C749 C 0.18073 0.55888 0.83715 0.0
H750 H 0.17204 0.47311 0.86411 0.0
C751 C 0.21518 0.57218 0.81942 0.0
H752 H 0.13669 0.51007 0.86426 0.0
C753 C 0.2352 0.55095 0.81916 0.0
C754 C 0.22119 0.51632 0.83684 0.0
H755 H 0.22912 0.60122 0.80885 0.0
H756 H 0.26413 0.56423 0.80844 0.0
C757 C 0.18342 0.49967 0.85022 0.0
C758 C 0.64706 0.2265 0.32041 0.0
C759 C 0.62434 0.19106 0.33658 0.0
H760 H 0.70503 0.275 0.31212 0.0
C761 C 0.64304 0.1715 0.34932 0.0
H762 H 0.63322 0.24201 0.31033 0.0
C763 C 0.6844 0.1906 0.35055 0.0
C764 C 0.70693 0.22912 0.33889 0.0
H765 H 0.62606 0.14422 0.36209 0.0
H766 H 0.69825 0.17761 0.36424 0.0
C767 C 0.68816 0.24536 0.32145 0.0
C768 C 0.63992 0.46159 0.85219 0.0
C769 C 0.61944 0.42187 0.84273 0.0
H770 H 0.69671 0.51196 0.86159 0.0
C771 C 0.6401 0.40602 0.82748 0.0
H772 H 0.62453 0.47439 0.86409 0.0
C773 C 0.68119 0.42759 0.82565 0.0
C774 C 0.70226 0.46503 0.83961 0.0
H775 H 0.62483 0.37555 0.81972 0.0
H776 H 0.69659 0.41314 0.8165 0.0
C777 C 0.68129 0.48314 0.8507 0.0
C778 C 0.18914 0.68931 0.35525 0.0
C779 C 0.22565 0.70822 0.33967 0.0
H780 H 0.14245 0.63414 0.3727 0.0
C781 C 0.23717 0.68514 0.32237 0.0
H782 H 0.17963 0.70629 0.36894 0.0
C783 C 0.21596 0.64402 0.32461 0.0
C784 C 0.18264 0.62536 0.34379 0.0
H785 H 0.26503 0.69892 0.31 0.0
H786 H 0.22809 0.62714 0.31414 0.0
C787 C 0.16777 0.64795 0.35739 0.0
C788 C 0.54941 0.23974 0.82088 0.0
C789 C 0.51379 0.22236 0.83757 0.0
H790 H 0.6019 0.23779 0.81029 0.0
C791 C 0.49813 0.18349 0.84839 0.0
H792 H 0.56203 0.26973 0.81232 0.0
C793 C 0.52102 0.16499 0.84706 0.0
C794 C 0.55965 0.18548 0.83508 0.0
H795 H 0.47091 0.16966 0.8616 0.0
H796 H 0.51071 0.13727 0.8592 0.0
C797 C 0.57229 0.22149 0.81976 0.0
C798 C 0.31278 0.51502 0.35227 0.0
C799 C 0.29204 0.53348 0.34145 0.0
H800 H 0.36928 0.52324 0.36584 0.0
C801 C 0.31342 0.5714 0.32832 0.0
H802 H 0.29712 0.48584 0.36254 0.0
C803 C 0.35446 0.59288 0.33066 0.0
C804 C 0.37482 0.57647 0.34554 0.0
H805 H 0.29822 0.58616 0.31938 0.0
H806 H 0.36991 0.62357 0.32348 0.0
C807 C 0.35413 0.53647 0.35424 0.0
C808 C 0.77828 0.35333 0.82255 0.0
C809 C 0.81163 0.37233 0.84166 0.0
H810 H 0.72964 0.29813 0.80799 0.0
C811 C 0.82709 0.35017 0.85507 0.0
H812 H 0.76576 0.36991 0.81218 0.0
C813 C 0.80617 0.30882 0.85294 0.0
C814 C 0.76957 0.28951 0.83752 0.0
H815 H 0.85249 0.36428 0.87028 0.0
H816 H 0.81607 0.29211 0.86656 0.0
C817 C 0.75757 0.31222 0.82027 0.0
C818 C 0.475 0.83268 0.34893 0.0
C819 C 0.43664 0.8123 0.3364 0.0
H820 H 0.52478 0.82793 0.36427 0.0
C821 C 0.42433 0.77635 0.32107 0.0
H822 H 0.48503 0.86033 0.36112 0.0
C823 C 0.44721 0.7581 0.3226 0.0
C824 C 0.4825 0.77538 0.33973 0.0
H825 H 0.39493 0.76011 0.31121 0.0
H826 H 0.43478 0.72817 0.31393 0.0
C827 C 0.49787 0.81417 0.35069 0.0
C828 C 0.49578 0.31247 0.14376 0.0
C829 C 0.51073 0.29027 0.15792 0.0
H830 H 0.50859 0.37021 0.12925 0.0
C831 C 0.5453 0.31003 0.17585 0.0
H832 H 0.46936 0.29804 0.12964 0.0
C833 C 0.56804 0.35117 0.1752 0.0
C834 C 0.55615 0.3732 0.15711 0.0
H835 H 0.55731 0.29357 0.18721 0.0
H836 H 0.59685 0.36538 0.18616 0.0
C837 C 0.5184 0.35388 0.14345 0.0
C838 C 0.24302 0.5536 0.67233 0.0
C839 C 0.2283 0.51868 0.65494 0.0
H840 H 0.23688 0.60357 0.68366 0.0
C841 C 0.19 0.50174 0.64256 0.0
H842 H 0.27248 0.56719 0.68213 0.0
C843 C 0.16945 0.52271 0.64345 0.0
C844 C 0.18723 0.56071 0.65664 0.0
H845 H 0.17819 0.47503 0.6288 0.0
H846 H 0.1423 0.51154 0.63034 0.0
C847 C 0.22264 0.57446 0.67319 0.0
C848 C 0.68131 0.2501 0.16531 0.0
C849 C 0.70093 0.23254 0.15083 0.0
H850 H 0.62594 0.24758 0.17264 0.0
C851 C 0.67889 0.1934 0.14029 0.0
H852 H 0.6978 0.28029 0.17362 0.0
C853 C 0.6375 0.17447 0.13994 0.0
C854 C 0.61828 0.19481 0.14997 0.0
H855 H 0.69342 0.17948 0.12873 0.0
H856 H 0.62104 0.1462 0.12836 0.0
C857 C 0.64023 0.23149 0.16465 0.0
C858 C 0.49661 0.6836 0.64524 0.0
C859 C 0.48129 0.70587 0.65875 0.0
H860 H 0.48425 0.6258 0.63128 0.0
C861 C 0.44618 0.68614 0.67608 0.0
H862 H 0.52343 0.69799 0.63157 0.0
C863 C 0.42349 0.64499 0.6755 0.0
C864 C 0.4359 0.62286 0.65805 0.0
H865 H 0.43385 0.70264 0.68691 0.0
H866 H 0.3944 0.63081 0.68598 0.0
C867 C 0.47402 0.64217 0.64499 0.0
C868 C 0.82333 0.47234 0.14381 0.0
C869 C 0.80547 0.43402 0.15637 0.0
H870 H 0.81456 0.52019 0.12987 0.0
C871 C 0.76985 0.41974 0.17273 0.0
H872 H 0.85067 0.48392 0.1309 0.0
C873 C 0.74929 0.44042 0.17213 0.0
C874 C 0.76411 0.4757 0.15523 0.0
H875 H 0.75559 0.39038 0.18275 0.0
H876 H 0.71969 0.42648 0.18168 0.0
C877 C 0.80264 0.49315 0.14322 0.0
C878 C 0.35363 0.76494 0.66435 0.0
C879 C 0.37518 0.80159 0.64957 0.0
H880 H 0.29639 0.71588 0.67374 0.0
C881 C 0.35556 0.82156 0.63963 0.0
H882 H 0.36825 0.74914 0.67225 0.0
C883 C 0.31415 0.80233 0.64029 0.0
C884 C 0.29249 0.76324 0.65101 0.0
H885 H 0.37172 0.84979 0.62796 0.0
H886 H 0.2993 0.81598 0.62885 0.0
C887 C 0.31255 0.74603 0.66531 0.0
C888 C 0.09637 0.467 0.23169 0.0
C889 C 0.11466 0.44943 0.21516 0.0
H890 H 0.08451 0.48321 0.27601 0.0
C891 C 0.13149 0.43048 0.2317 0.0
H892 H 0.08294 0.48169 0.2197 0.0
C893 C 0.13244 0.43141 0.26392 0.0
C894 C 0.11656 0.45128 0.28044 0.0
H895 H 0.14539 0.41619 0.21978 0.0
H896 H 0.14698 0.41773 0.27579 0.0
C897 C 0.09731 0.4679 0.26402 0.0
C898 C 0.62814 0.09774 0.76183 0.0
C899 C 0.66335 0.11252 0.77898 0.0
H900 H 0.60184 0.08861 0.71687 0.0
C901 C 0.69897 0.12448 0.7631 0.0
H902 H 0.60014 0.0881 0.77333 0.0
C903 C 0.69993 0.12472 0.73088 0.0
C904 C 0.66528 0.113 0.71365 0.0
H905 H 0.72658 0.13539 0.77553 0.0
H906 H 0.72824 0.13585 0.71949 0.0
C907 C 0.6291 0.09797 0.72944 0.0
C908 C 0.56726 0.70312 0.23152 0.0
C909 C 0.54346 0.66798 0.21513 0.0
H910 H 0.58563 0.73109 0.27556 0.0
C911 C 0.52231 0.63243 0.2317 0.0
H912 H 0.58436 0.73099 0.21954 0.0
C913 C 0.52304 0.63249 0.26403 0.0
C914 C 0.54494 0.66809 0.28042 0.0
H915 H 0.50383 0.60477 0.21982 0.0
H916 H 0.50511 0.60486 0.27612 0.0
C917 C 0.56799 0.70318 0.26375 0.0
C918 C 0.86095 0.56688 0.7307 0.0
C919 C 0.87775 0.54809 0.71388 0.0
H920 H 0.8459 0.5796 0.77502 0.0
C921 C 0.8963 0.53063 0.73019 0.0
H922 H 0.8468 0.58105 0.71899 0.0
C923 C 0.89576 0.52975 0.76256 0.0
C924 C 0.87664 0.54632 0.77928 0.0
H925 H 0.90969 0.51602 0.71802 0.0
H926 H 0.90879 0.51456 0.77436 0.0
C927 C 0.8604 0.56601 0.76296 0.0
C928 C 0.36616 0.90082 0.26304 0.0
C929 C 0.3309 0.88443 0.28026 0.0
H930 H 0.39256 0.91124 0.21811 0.0
C931 C 0.2949 0.87059 0.26446 0.0
H932 H 0.39446 0.91199 0.27445 0.0
C933 C 0.29382 0.87017 0.23223 0.0
C934 C 0.32872 0.88362 0.21496 0.0
H935 H 0.26719 0.85836 0.27693 0.0
H936 H 0.26533 0.8576 0.2209 0.0
C937 C 0.36508 0.90043 0.23069 0.0
C938 C 0.46912 0.36303 0.72918 0.0
C939 C 0.4483 0.32719 0.71289 0.0
H940 H 0.48689 0.39125 0.77342 0.0
C941 C 0.42541 0.29216 0.72969 0.0
H942 H 0.48702 0.39059 0.71699 0.0
C943 C 0.42535 0.29252 0.76195 0.0
C944 C 0.44823 0.32792 0.77834 0.0
H945 H 0.40859 0.26405 0.71795 0.0
H946 H 0.40843 0.26467 0.77399 0.0
C947 C 0.46913 0.36339 0.76158 0.0
C948 C 0.52097 0.89117 0.7645 0.0
C949 C 0.54485 0.88006 0.78112 0.0
H950 H 0.50124 0.89792 0.71974 0.0
C951 C 0.57154 0.87252 0.76484 0.0
H952 H 0.50015 0.89723 0.77642 0.0
C953 C 0.57214 0.87288 0.73266 0.0
C954 C 0.54608 0.88081 0.71587 0.0
H955 H 0.5909 0.8646 0.77694 0.0
H956 H 0.59195 0.86525 0.72093 0.0
C957 C 0.52158 0.89155 0.73205 0.0
C958 C 0.62871 0.53026 0.23309 0.0
C959 C 0.66354 0.54833 0.21529 0.0
H960 H 0.60328 0.51537 0.27838 0.0
C961 C 0.70003 0.5697 0.23058 0.0
H962 H 0.60003 0.51381 0.22213 0.0
C963 C 0.70187 0.5706 0.26283 0.0
C964 C 0.66727 0.55023 0.28064 0.0
H965 H 0.72747 0.58441 0.21771 0.0
H966 H 0.73067 0.58597 0.27374 0.0
C967 C 0.63055 0.53125 0.26542 0.0
C968 C 0.0943 0.63373 0.76423 0.0
C969 C 0.11751 0.66876 0.78093 0.0
H970 H 0.07812 0.6059 0.72002 0.0
C971 C 0.13972 0.70434 0.76459 0.0
H972 H 0.07638 0.60586 0.77602 0.0
C973 C 0.14073 0.70436 0.73225 0.0
C974 C 0.11959 0.66879 0.71569 0.0
H975 H 0.15782 0.73189 0.77672 0.0
H976 H 0.15953 0.73193 0.72036 0.0
C977 C 0.09535 0.63375 0.73203 0.0
C978 C 0.47049 0.10362 0.26327 0.0
C979 C 0.44857 0.11694 0.2802 0.0
H980 H 0.48848 0.095 0.21838 0.0
C981 C 0.42355 0.12696 0.2641 0.0
H982 H 0.49002 0.0956 0.27496 0.0
C983 C 0.42267 0.12661 0.23187 0.0
C984 C 0.44682 0.11625 0.2148 0.0
H985 H 0.40574 0.13673 0.27636 0.0
H986 H 0.40418 0.13608 0.22035 0.0
C987 C 0.46963 0.10329 0.23082 0.0
C988 C 0.29288 0.42821 0.73104 0.0
C989 C 0.32926 0.44691 0.71533 0.0
H990 H 0.26318 0.41473 0.77461 0.0
C991 C 0.3644 0.46273 0.73263 0.0
H992 H 0.2652 0.41537 0.71849 0.0
C993 C 0.36325 0.46234 0.76488 0.0
C994 C 0.32693 0.44616 0.78059 0.0
H995 H 0.39297 0.47695 0.72132 0.0
H996 H 0.39097 0.47632 0.77741 0.0
C997 C 0.29172 0.42786 0.76331 0.0
C998 C 0.85495 0.29168 0.23135 0.0
C999 C 0.87433 0.3275 0.21491 0.0
H1000 H 0.83963 0.26359 0.27566 0.0
C1001 C 0.89724 0.3628 0.23141 0.0
H1002 H 0.83725 0.2639 0.21938 0.0
C1003 C 0.8987 0.36263 0.26363 0.0
C1004 C 0.87725 0.32715 0.28021 0.0
H1005 H 0.91307 0.39091 0.21954 0.0
H1006 H 0.91547 0.39062 0.27554 0.0
C1007 C 0.85639 0.2915 0.26367 0.0
C1008 C 0.97409 0.35675 0.06503 0.0
C1009 C 0.95369 0.33184 0.08989 0.0
H1010 H 0.03046 0.40026 0.04768 0.0
C1011 C 0.97443 0.32224 0.11147 0.0
H1012 H 0.95854 0.36462 0.04826 0.0
C1013 C 0.01581 0.34278 0.1112 0.0
C1014 C 0.03618 0.37295 0.08943 0.0
H1015 H 0.95914 0.30337 0.13102 0.0
H1016 H 0.03139 0.33924 0.13056 0.0
C1017 C 0.01524 0.37716 0.06473 0.0
C1018 C 0.61846 0.97843 0.56603 0.0
C1019 C 0.6234 0.95874 0.5913 0.0
H1020 H 0.63126 0.03419 0.54727 0.0
C1021 C 0.6541 0.98022 0.61243 0.0
H1022 H 0.59526 0.96232 0.54922 0.0
C1023 C 0.67488 0.02158 0.61126 0.0
C1024 C 0.66483 0.04132 0.58901 0.0
H1025 H 0.65843 0.9656 0.6321 0.0
H1026 H 0.69466 0.03778 0.63013 0.0
C1027 C 0.63911 0.01954 0.56487 0.0
C1028 C 0.66971 0.65351 0.10928 0.0
C1029 C 0.65827 0.62186 0.08865 0.0
H1030 H 0.65469 0.69514 0.12814 0.0
C1031 C 0.63155 0.61613 0.06485 0.0
H1032 H 0.69001 0.65808 0.12801 0.0
C1033 C 0.6114 0.63717 0.06493 0.0
C1034 C 0.61784 0.66402 0.08886 0.0
H1035 H 0.6223 0.59175 0.04878 0.0
H1036 H 0.58716 0.62861 0.04886 0.0
C1037 C 0.64947 0.67469 0.10936 0.0
C1038 C 0.01959 0.63876 0.56544 0.0
C1039 C 0.03949 0.66358 0.5905 0.0
H1040 H 0.96357 0.59563 0.54725 0.0
C1041 C 0.01831 0.67312 0.61171 0.0
H1042 H 0.03548 0.6309 0.54897 0.0
C1043 C 0.97694 0.65281 0.61077 0.0
C1044 C 0.95695 0.62284 0.58875 0.0
H1045 H 0.03319 0.69186 0.63142 0.0
H1046 H 0.96095 0.65644 0.6298 0.0
C1047 C 0.97845 0.61855 0.56451 0.0
C1048 C 0.34031 0.01651 0.11055 0.0
C1049 C 0.3713 0.03773 0.08958 0.0
H1050 H 0.30006 0.95925 0.1289 0.0
C1051 C 0.37695 0.01761 0.06496 0.0
H1052 H 0.33539 0.03145 0.12971 0.0
C1053 C 0.3569 0.97649 0.06453 0.0
C1054 C 0.33095 0.95516 0.08866 0.0
H1055 H 0.40036 0.0335 0.04826 0.0
H1056 H 0.36536 0.96161 0.04757 0.0
C1057 C 0.32005 0.97514 0.11006 0.0
C1058 C 0.38434 0.3606 0.56353 0.0
C1059 C 0.37862 0.3334 0.58699 0.0
H1060 H 0.37253 0.40584 0.54851 0.0
C1061 C 0.34731 0.32223 0.60799 0.0
H1062 H 0.40811 0.36945 0.54694 0.0
C1063 C 0.32673 0.34309 0.60878 0.0
C1064 C 0.33736 0.3749 0.58849 0.0
H1065 H 0.34242 0.30141 0.62637 0.0
H1066 H 0.30665 0.33798 0.6278 0.0
C1067 C 0.36386 0.38132 0.56433 0.0
C1068 C 0.64771 0.97557 0.88514 0.0
C1069 C 0.61661 0.9548 0.90614 0.0
H1070 H 0.68797 0.03243 0.86607 0.0
C1071 C 0.61077 0.97552 0.9302 0.0
H1072 H 0.6528 0.9602 0.8664 0.0
C1073 C 0.63069 0.01664 0.92994 0.0
C1074 C 0.65683 0.03739 0.90575 0.0
H1075 H 0.5873 0.96003 0.94693 0.0
H1076 H 0.62206 0.03193 0.94638 0.0
C1077 C 0.66788 0.01695 0.88497 0.0
C1078 C 0.65526 0.67261 0.3838 0.0
C1079 C 0.62422 0.66301 0.40467 0.0
H1080 H 0.69583 0.65566 0.36581 0.0
C1081 C 0.61823 0.63711 0.42921 0.0
H1082 H 0.66013 0.69233 0.36456 0.0
C1083 C 0.63852 0.61623 0.42996 0.0
C1084 C 0.66486 0.62088 0.40607 0.0
H1085 H 0.59447 0.62943 0.44561 0.0
H1086 H 0.63 0.59299 0.44699 0.0
C1087 C 0.67567 0.65157 0.38452 0.0
C1088 C 0.97424 0.65218 0.88412 0.0
C1089 C 0.95362 0.62165 0.90556 0.0
H1090 H 0.03119 0.69222 0.86508 0.0
C1091 C 0.97415 0.61737 0.93052 0.0
H1092 H 0.95895 0.65577 0.86457 0.0
C1093 C 0.01531 0.63818 0.93082 0.0
C1094 C 0.03611 0.66346 0.90623 0.0
H1095 H 0.95872 0.594 0.94733 0.0
H1096 H 0.03064 0.63025 0.94776 0.0
C1097 C 0.01562 0.67309 0.88443 0.0
C1098 C 0.36663 0.9819 0.43106 0.0
C1099 C 0.33984 0.96108 0.40723 0.0
H1100 H 0.41081 0.0385 0.4475 0.0
C1101 C 0.32853 0.98158 0.38674 0.0
H1102 H 0.37555 0.96659 0.44723 0.0
C1103 C 0.34893 0.02299 0.3868 0.0
C1104 C 0.38058 0.04376 0.40736 0.0
H1105 H 0.308 0.96607 0.3681 0.0
H1106 H 0.3436 0.03833 0.36819 0.0
C1107 C 0.38681 0.02305 0.43118 0.0
C1108 C 0.3177 0.3418 0.88512 0.0
C1109 C 0.32894 0.37271 0.90649 0.0
H1110 H 0.33326 0.3013 0.86475 0.0
C1111 C 0.35569 0.37772 0.93009 0.0
H1112 H 0.29731 0.33768 0.86658 0.0
C1113 C 0.3762 0.35708 0.929 0.0
C1114 C 0.36998 0.33121 0.90438 0.0
H1115 H 0.36469 0.4014 0.9468 0.0
H1116 H 0.40046 0.36519 0.94499 0.0
C1117 C 0.33833 0.32102 0.88403 0.0
C1118 C 0.97862 0.32311 0.38503 0.0
C1119 C 0.9577 0.33243 0.40668 0.0
H1120 H 0.03553 0.34117 0.36529 0.0
C1121 C 0.97818 0.35806 0.43119 0.0
H1122 H 0.96329 0.30369 0.36575 0.0
C1123 C 0.01932 0.37949 0.4309 0.0
C1124 C 0.04019 0.37544 0.40607 0.0
H1125 H 0.96252 0.36572 0.44803 0.0
H1126 H 0.03442 0.403 0.44767 0.0
C1127 C 0.01999 0.34464 0.38474 0.0
C1128 C 0.27387 0.49751 0.99089 0.0
C1129 C 0.24825 0.4702 0.969 0.0
H1130 H 0.282 0.51879 0.03714 0.0
C1131 C 0.211 0.43975 0.97862 0.0
H1132 H 0.30325 0.5206 0.98438 0.0
C1133 C 0.19855 0.43876 0.00933 0.0
C1134 C 0.2235 0.46795 0.03058 0.0
H1135 H 0.19093 0.4181 0.96217 0.0
H1136 H 0.16883 0.41665 0.01591 0.0
C1137 C 0.26177 0.49628 0.02125 0.0
C1138 C 0.77574 0.22016 0.48186 0.0
C1139 C 0.78251 0.25757 0.47268 0.0
H1140 H 0.75735 0.17755 0.51872 0.0
C1141 C 0.78073 0.28278 0.49502 0.0
H1142 H 0.77732 0.20031 0.46515 0.0
C1143 C 0.76996 0.27019 0.52532 0.0
C1144 C 0.76039 0.23187 0.53424 0.0
H1145 H 0.78689 0.31226 0.48894 0.0
H1146 H 0.76776 0.29019 0.54152 0.0
C1147 C 0.76457 0.20729 0.5125 0.0
C1148 C 0.55716 0.7912 0.01619 0.0
C1149 C 0.53349 0.75179 0.02552 0.0
H1150 H 0.57459 0.83208 0.9782 0.0
C1151 C 0.514 0.72235 0.00309 0.0
H1152 H 0.57259 0.81429 0.03319 0.0
C1153 C 0.51492 0.73221 0.97211 0.0
C1154 C 0.53584 0.77184 0.96282 0.0
H1155 H 0.49668 0.69166 0.00982 0.0
H1156 H 0.4977 0.70894 0.95563 0.0
C1157 C 0.55838 0.80122 0.98483 0.0
C1158 C 0.78646 0.56016 0.51073 0.0
C1159 C 0.77471 0.5243 0.52627 0.0
H1160 H 0.78455 0.58787 0.46815 0.0
C1161 C 0.75345 0.48871 0.50983 0.0
H1162 H 0.80312 0.58807 0.52275 0.0
C1163 C 0.74384 0.48861 0.47894 0.0
C1164 C 0.75456 0.52409 0.46331 0.0
H1165 H 0.74439 0.46047 0.52074 0.0
H1166 H 0.72707 0.46026 0.46753 0.0
C1167 C 0.77599 0.56003 0.47952 0.0
C1168 C 0.21838 0.77382 0.98282 0.0
C1169 C 0.20969 0.73541 0.97476 0.0
H1170 H 0.23969 0.81842 0.01831 0.0
C1171 C 0.2109 0.71066 -0.0022 0.0
H1172 H 0.21736 0.79338 0.96555 0.0
C1173 C 0.22323 0.72467 0.02761 0.0
C1174 C 0.23478 0.76388 0.0353 0.0
H1175 H 0.20333 0.68053 0.99259 0.0
H1176 H 0.22509 0.70505 0.04439 0.0
C1177 C 0.23096 0.78804 0.01298 0.0
C1178 C 0.5095 0.26 0.51159 0.0
C1179 C 0.47368 0.24496 0.52782 0.0
H1180 H 0.53839 0.26392 0.469 0.0
C1181 C 0.43803 0.22169 0.5118 0.0
H1182 H 0.53754 0.27863 0.52294 0.0
C1183 C 0.43851 0.21284 0.48028 0.0
C1184 C 0.4746 0.22805 0.46423 0.0
H1185 H 0.40996 0.20998 0.52366 0.0
H1186 H 0.41079 0.19416 0.46855 0.0
C1187 C 0.50995 0.25194 0.48034 0.0
C1188 C 0.77543 0.55328 0.01551 0.0
C1189 C 0.7368 0.52415 0.02358 0.0
H1190 H 0.82014 0.57542 0.98001 0.0
C1191 C 0.71168 0.49863 0.00053 0.0
H1192 H 0.79526 0.57349 0.03284 0.0
C1193 C 0.72552 0.50002 0.97071 0.0
C1194 C 0.76495 0.52684 0.96305 0.0
H1195 H 0.6814 0.47656 0.00579 0.0
H1196 H 0.70568 0.4787 0.95393 0.0
C1197 C 0.78953 0.55454 0.98533 0.0
C1198 C 0.21229 0.7139 0.49788 0.0
C1199 C 0.2125 0.73837 0.52181 0.0
H1200 H 0.22701 0.70973 0.4511 0.0
C1201 C 0.22386 0.77788 0.5151 0.0
H1202 H 0.20273 0.68304 0.50206 0.0
C1203 C 0.23782 0.79331 0.48543 0.0
C1204 C 0.24044 0.76928 0.46236 0.0
H1205 H 0.22407 0.79728 0.53311 0.0
H1206 H 0.24871 0.8244 0.48114 0.0
C1207 C 0.22609 0.72915 0.4686 0.0
C1208 C 0.43199 0.18886 0.00801 0.0
C1209 C 0.4477 0.21789 0.03133 0.0
H1210 H 0.42366 0.17769 0.95897 0.0
C1211 C 0.46081 0.25737 0.0237 0.0
H1212 H 0.42216 0.15824 0.01343 0.0
C1213 C 0.46074 0.2681 0.993 0.0
C1214 C 0.4487 0.23984 0.96932 0.0
H1215 H 0.47295 0.2802 0.04129 0.0
H1216 H 0.47224 0.29895 0.98745 0.0
C1217 C 0.4328 0.19986 0.97697 0.0
C1218 C 0.2685 0.49542 0.47069 0.0
C1219 C 0.22886 0.46909 0.46326 0.0
H1220 H 0.31293 0.51828 0.50557 0.0
C1221 C 0.20423 0.44147 0.48554 0.0
H1222 H 0.28835 0.51663 0.45387 0.0
C1223 C 0.21849 0.44245 0.51559 0.0
C1224 C 0.25733 0.47119 0.52348 0.0
H1225 H 0.17348 0.42098 0.48037 0.0
H1226 H 0.19862 0.42242 0.53298 0.0
C1227 C 0.28251 0.49651 0.50039 0.0
C1228 C 0.78353 0.28247 0.99701 0.0
C1229 C 0.78194 0.25729 0.02087 0.0
H1230 H 0.77059 0.28787 0.94997 0.0
C1231 C 0.77018 0.21777 0.01384 0.0
H1232 H 0.79346 0.31336 0.00147 0.0
C1233 C 0.75707 0.20304 0.98387 0.0
C1234 C 0.75573 0.2278 0.96081 0.0
H1235 H 0.76894 0.19784 0.0318 0.0
H1236 H 0.74573 0.17194 0.9793 0.0
C1237 C 0.77057 0.26792 0.96742 0.0
C1238 C 0.53712 0.72983 0.49467 0.0
C1239 C 0.54851 0.75805 0.47103 0.0
H1240 H 0.52465 0.71749 0.54292 0.0
C1241 C 0.56317 0.79785 0.47868 0.0
H1242 H 0.52632 0.69909 0.48908 0.0
C1243 C 0.56345 0.80865 0.50968 0.0
C1244 C 0.54832 0.77956 0.53295 0.0
H1245 H 0.57164 0.81992 0.46068 0.0
H1246 H 0.57225 0.83905 0.5151 0.0
C1247 C 0.53643 0.74034 0.52536 0.0
loop_
_geom_bond_atom_site_label_1
_geom_bond_atom_site_label_2
_geom_bond_distance
_geom_bond_site_symmetry_2
_ccdc_geom_bond_type
Sc0 O3 2.025 . S
Sc0 O10 2.105 . S
Sc0 O13 2.105 . S
Sc0 O16 2.105 . S
Sc0 O19 2.105 . S
Sc1 O3 2.025 . S
Sc1 O11 2.105 . S
Sc1 O15 2.105 . S
Sc1 O17 2.105 . S
Sc1 O21 2.105 . S
Sc2 O3 2.025 . S
Sc2 O12 2.105 . S
Sc2 O14 2.105 . S
Sc2 O18 2.105 . S
Sc2 O20 2.105 . S
O3 Sc0 2.025 . S
O3 Sc1 2.025 . S
O3 Sc2 2.025 . S
C4 O10 1.268 . S
C4 O20 1.268 . S
C5 O11 1.268 . S
C5 O19 1.268 . S
C6 O12 1.268 . S
C6 O21 1.268 . S
C7 O13 1.268 . S
C7 O17 1.268 . S
C8 O14 1.268 . S
C8 O16 1.268 . S
C9 O15 1.268 . S
C9 O18 1.268 . S
O10 Sc0 2.105 . S
O10 C4 1.268 . S
O11 Sc1 2.105 . S
O11 C5 1.268 . S
O12 Sc2 2.105 . S
O12 C6 1.268 . S
O13 Sc0 2.105 . S
O13 C7 1.268 . S
O14 Sc2 2.105 . S
O14 C8 1.268 . S
O15 Sc1 2.105 . S
O15 C9 1.268 . S
O16 Sc0 2.105 . S
O16 C8 1.268 . S
O17 Sc1 2.105 . S
O17 C7 1.268 . S
O18 Sc2 2.105 . S
O18 C9 1.268 . S
O19 Sc0 2.105 . S
O19 C5 1.268 . S
O20 Sc2 2.105 . S
O20 C4 1.268 . S
O21 Sc1 2.105 . S
O21 C6 1.268 . S
Sc22 O25 2.025 . S
Sc22 O32 2.105 . S
Sc22 O35 2.105 . S
Sc22 O38 2.105 . S
Sc22 O41 2.105 . S
Sc23 O25 2.025 . S
Sc23 O33 2.105 . S
Sc23 O37 2.105 . S
Sc23 O39 2.105 . S
Sc23 O43 2.105 . S
Sc24 O25 2.025 . S
Sc24 O34 2.105 . S
Sc24 O36 2.105 . S
Sc24 O40 2.105 . S
Sc24 O42 2.105 . S
O25 Sc22 2.025 . S
O25 Sc23 2.025 . S
O25 Sc24 2.025 . S
C26 O32 1.268 . S
C26 O42 1.268 . S
C27 O33 1.268 . S
C27 O41 1.268 . S
C28 O34 1.268 . S
C28 O43 1.268 . S
C29 O35 1.268 . S
C29 O39 1.268 . S
C30 O36 1.268 . S
C30 O38 1.268 . S
C31 O37 1.268 . S
C31 O40 1.268 . S
O32 Sc22 2.105 . S
O32 C26 1.268 . S
O33 Sc23 2.105 . S
O33 C27 1.268 . S
O34 Sc24 2.105 . S
O34 C28 1.268 . S
O35 Sc22 2.105 . S
O35 C29 1.268 . S
O36 Sc24 2.105 . S
O36 C30 1.268 . S
O37 Sc23 2.105 . S
O37 C31 1.268 . S
O38 Sc22 2.105 . S
O38 C30 1.268 . S
O39 Sc23 2.105 . S
O39 C29 1.268 . S
O40 Sc24 2.105 . S
O40 C31 1.268 . S
O41 Sc22 2.105 . S
O41 C27 1.268 . S
O42 Sc24 2.105 . S
O42 C26 1.268 . S
O43 Sc23 2.105 . S
O43 C28 1.268 . S
Sc44 O47 2.025 . S
Sc44 O54 2.105 . S
Sc44 O57 2.105 . S
Sc44 O60 2.105 . S
Sc44 O63 2.105 . S
Sc45 O47 2.025 . S
Sc45 O55 2.105 . S
Sc45 O59 2.105 . S
Sc45 O61 2.105 . S
Sc45 O65 2.105 . S
Sc46 O47 2.025 . S
Sc46 O56 2.105 . S
Sc46 O58 2.105 . S
Sc46 O62 2.105 . S
Sc46 O64 2.105 . S
O47 Sc44 2.025 . S
O47 Sc45 2.025 . S
O47 Sc46 2.025 . S
C48 O54 1.268 . S
C48 O64 1.268 . S
C49 O55 1.268 . S
C49 O63 1.268 . S
C50 O56 1.268 . S
C50 O65 1.268 . S
C51 O57 1.268 . S
C51 O61 1.268 . S
C52 O58 1.268 . S
C52 O60 1.268 . S
C53 O59 1.268 . S
C53 O62 1.268 . S
O54 Sc44 2.105 . S
O54 C48 1.268 . S
O55 Sc45 2.105 . S
O55 C49 1.268 . S
O56 Sc46 2.105 . S
O56 C50 1.268 . S
O57 Sc44 2.105 . S
O57 C51 1.268 . S
O58 Sc46 2.105 . S
O58 C52 1.268 . S
O59 Sc45 2.105 . S
O59 C53 1.268 . S
O60 Sc44 2.105 . S
O60 C52 1.268 . S
O61 Sc45 2.105 . S
O61 C51 1.268 . S
O62 Sc46 2.105 . S
O62 C53 1.268 . S
O63 Sc44 2.105 . S
O63 C49 1.268 . S
O64 Sc46 2.105 . S
O64 C48 1.268 . S
O65 Sc45 2.105 . S
O65 C50 1.268 . S
Sc66 O69 2.025 . S
Sc66 O76 2.105 . S
Sc66 O79 2.105 . S
Sc66 O82 2.105 . S
Sc66 O85 2.105 . S
Sc67 O69 2.025 . S
Sc67 O77 2.105 . S
Sc67 O81 2.105 . S
Sc67 O83 2.105 . S
Sc67 O87 2.105 . S
Sc68 O69 2.025 . S
Sc68 O78 2.105 . S
Sc68 O80 2.105 . S
Sc68 O84 2.105 . S
Sc68 O86 2.105 . S
O69 Sc66 2.025 . S
O69 Sc67 2.025 . S
O69 Sc68 2.025 . S
C70 O76 1.268 . S
C70 O86 1.268 . S
C71 O77 1.268 . S
C71 O85 1.268 . S
C72 O78 1.268 . S
C72 O87 1.268 . S
C73 O79 1.268 . S
C73 O83 1.268 . S
C74 O80 1.268 . S
C74 O82 1.268 . S
C75 O81 1.268 . S
C75 O84 1.268 . S
O76 Sc66 2.105 . S
O76 C70 1.268 . S
O77 Sc67 2.105 . S
O77 C71 1.268 . S
O78 Sc68 2.105 . S
O78 C72 1.268 . S
O79 Sc66 2.105 . S
O79 C73 1.268 . S
O80 Sc68 2.105 . S
O80 C74 1.268 . S
O81 Sc67 2.105 . S
O81 C75 1.268 . S
O82 Sc66 2.105 . S
O82 C74 1.268 . S
O83 Sc67 2.105 . S
O83 C73 1.268 . S
O84 Sc68 2.105 . S
O84 C75 1.268 . S
O85 Sc66 2.105 . S
O85 C71 1.268 . S
O86 Sc68 2.105 . S
O86 C70 1.268 . S
O87 Sc67 2.105 . S
O87 C72 1.268 . S
Sc88 O91 2.025 . S
Sc88 O98 2.105 . S
Sc88 O101 2.105 . S
Sc88 O104 2.105 . S
Sc88 O107 2.105 . S
Sc89 O91 2.025 . S
Sc89 O99 2.105 . S
Sc89 O103 2.105 . S
Sc89 O105 2.105 . S
Sc89 O109 2.105 . S
Sc90 O91 2.025 . S
Sc90 O100 2.105 . S
Sc90 O102 2.105 . S
Sc90 O106 2.105 . S
Sc90 O108 2.105 . S
O91 Sc88 2.025 . S
O91 Sc89 2.025 . S
O91 Sc90 2.025 . S
C92 O98 1.268 . S
C92 O108 1.268 . S
C93 O99 1.268 . S
C93 O107 1.268 . S
C94 O100 1.268 . S
C94 O109 1.268 . S
C95 O101 1.268 . S
C95 O105 1.268 . S
C96 O102 1.268 . S
C96 O104 1.268 . S
C97 O103 1.268 . S
C97 O106 1.268 . S
O98 Sc88 2.105 . S
O98 C92 1.268 . S
O99 Sc89 2.105 . S
O99 C93 1.268 . S
O100 Sc90 2.105 . S
O100 C94 1.268 . S
O101 Sc88 2.105 . S
O101 C95 1.268 . S
O102 Sc90 2.105 . S
O102 C96 1.268 . S
O103 Sc89 2.105 . S
O103 C97 1.268 . S
O104 Sc88 2.105 . S
O104 C96 1.268 . S
O105 Sc89 2.105 . S
O105 C95 1.268 . S
O106 Sc90 2.105 . S
O106 C97 1.268 . S
O107 Sc88 2.105 . S
O107 C93 1.268 . S
O108 Sc90 2.105 . S
O108 C92 1.268 . S
O109 Sc89 2.105 . S
O109 C94 1.268 . S
Sc110 O113 2.025 . S
Sc110 O120 2.105 . S
Sc110 O123 2.105 . S
Sc110 O126 2.105 . S
Sc110 O129 2.105 . S
Sc111 O113 2.025 . S
Sc111 O121 2.105 . S
Sc111 O125 2.105 . S
Sc111 O127 2.105 . S
Sc111 O131 2.105 . S
Sc112 O113 2.025 . S
Sc112 O122 2.105 . S
Sc112 O124 2.105 . S
Sc112 O128 2.105 . S
Sc112 O130 2.105 . S
O113 Sc110 2.025 . S
O113 Sc111 2.025 . S
O113 Sc112 2.025 . S
C114 O120 1.268 . S
C114 O130 1.268 . S
C115 O121 1.268 . S
C115 O129 1.268 . S
C116 O122 1.268 . S
C116 O131 1.268 . S
C117 O123 1.268 . S
C117 O127 1.268 . S
C118 O124 1.268 . S
C118 O126 1.268 . S
C119 O125 1.268 . S
C119 O128 1.268 . S
O120 Sc110 2.105 . S
O120 C114 1.268 . S
O121 Sc111 2.105 . S
O121 C115 1.268 . S
O122 Sc112 2.105 . S
O122 C116 1.268 . S
O123 Sc110 2.105 . S
O123 C117 1.268 . S
O124 Sc112 2.105 . S
O124 C118 1.268 . S
O125 Sc111 2.105 . S
O125 C119 1.268 . S
O126 Sc110 2.105 . S
O126 C118 1.268 . S
O127 Sc111 2.105 . S
O127 C117 1.268 . S
O128 Sc112 2.105 . S
O128 C119 1.268 . S
O129 Sc110 2.105 . S
O129 C115 1.268 . S
O130 Sc112 2.105 . S
O130 C114 1.268 . S
O131 Sc111 2.105 . S
O131 C116 1.268 . S
Sc132 O135 2.025 . S
Sc132 O142 2.105 . S
Sc132 O145 2.105 . S
Sc132 O148 2.105 . S
Sc132 O151 2.105 . S
Sc133 O135 2.025 . S
Sc133 O143 2.105 . S
Sc133 O147 2.105 . S
Sc133 O149 2.105 . S
Sc133 O153 2.105 . S
Sc134 O135 2.025 . S
Sc134 O144 2.105 . S
Sc134 O146 2.105 . S
Sc134 O150 2.105 . S
Sc134 O152 2.105 . S
O135 Sc132 2.025 . S
O135 Sc133 2.025 . S
O135 Sc134 2.025 . S
C136 O142 1.268 . S
C136 O152 1.268 . S
C137 O143 1.268 . S
C137 O151 1.268 . S
C138 O144 1.268 . S
C138 O153 1.268 . S
C139 O145 1.268 . S
C139 O149 1.268 . S
C140 O146 1.268 . S
C140 O148 1.268 . S
C141 O147 1.268 . S
C141 O150 1.268 . S
O142 Sc132 2.105 . S
O142 C136 1.268 . S
O143 Sc133 2.105 . S
O143 C137 1.268 . S
O144 Sc134 2.105 . S
O144 C138 1.268 . S
O145 Sc132 2.105 . S
O145 C139 1.268 . S
O146 Sc134 2.105 . S
O146 C140 1.268 . S
O147 Sc133 2.105 . S
O147 C141 1.268 . S
O148 Sc132 2.105 . S
O148 C140 1.268 . S
O149 Sc133 2.105 . S
O149 C139 1.268 . S
O150 Sc134 2.105 . S
O150 C141 1.268 . S
O151 Sc132 2.105 . S
O151 C137 1.268 . S
O152 Sc134 2.105 . S
O152 C136 1.268 . S
O153 Sc133 2.105 . S
O153 C138 1.268 . S
Sc154 O157 2.025 . S
Sc154 O164 2.105 . S
Sc154 O167 2.105 . S
Sc154 O170 2.105 . S
Sc154 O173 2.105 . S
Sc155 O157 2.025 . S
Sc155 O165 2.105 . S
Sc155 O169 2.105 . S
Sc155 O171 2.105 . S
Sc155 O175 2.105 . S
Sc156 O157 2.025 . S
Sc156 O166 2.105 . S
Sc156 O168 2.105 . S
Sc156 O172 2.105 . S
Sc156 O174 2.105 . S
O157 Sc154 2.025 . S
O157 Sc155 2.025 . S
O157 Sc156 2.025 . S
C158 O164 1.268 . S
C158 O174 1.268 . S
C159 O165 1.268 . S
C159 O173 1.268 . S
C160 O166 1.268 . S
C160 O175 1.268 . S
C161 O167 1.268 . S
C161 O171 1.268 . S
C162 O168 1.268 . S
C162 O170 1.268 . S
C163 O169 1.268 . S
C163 O172 1.268 . S
O164 Sc154 2.105 . S
O164 C158 1.268 . S
O165 Sc155 2.105 . S
O165 C159 1.268 . S
O166 Sc156 2.105 . S
O166 C160 1.268 . S
O167 Sc154 2.105 . S
O167 C161 1.268 . S
O168 Sc156 2.105 . S
O168 C162 1.268 . S
O169 Sc155 2.105 . S
O169 C163 1.268 . S
O170 Sc154 2.105 . S
O170 C162 1.268 . S
O171 Sc155 2.105 . S
O171 C161 1.268 . S
O172 Sc156 2.105 . S
O172 C163 1.268 . S
O173 Sc154 2.105 . S
O173 C159 1.268 . S
O174 Sc156 2.105 . S
O174 C158 1.268 . S
O175 Sc155 2.105 . S
O175 C160 1.268 . S
Sc176 O179 2.025 . S
Sc176 O186 2.105 . S
Sc176 O189 2.105 . S
Sc176 O192 2.105 . S
Sc176 O195 2.105 . S
Sc177 O179 2.025 . S
Sc177 O187 2.105 . S
Sc177 O191 2.105 . S
Sc177 O193 2.105 . S
Sc177 O197 2.105 . S
Sc178 O179 2.025 . S
Sc178 O188 2.105 . S
Sc178 O190 2.105 . S
Sc178 O194 2.105 . S
Sc178 O196 2.105 . S
O179 Sc176 2.025 . S
O179 Sc177 2.025 . S
O179 Sc178 2.025 . S
C180 O186 1.268 . S
C180 O196 1.268 . S
C181 O187 1.268 . S
C181 O195 1.268 . S
C182 O188 1.268 . S
C182 O197 1.268 . S
C183 O189 1.268 . S
C183 O193 1.268 . S
C184 O190 1.268 . S
C184 O192 1.268 . S
C185 O191 1.268 . S
C185 O194 1.268 . S
O186 Sc176 2.105 . S
O186 C180 1.268 . S
O187 Sc177 2.105 . S
O187 C181 1.268 . S
O188 Sc178 2.105 . S
O188 C182 1.268 . S
O189 Sc176 2.105 . S
O189 C183 1.268 . S
O190 Sc178 2.105 . S
O190 C184 1.268 . S
O191 Sc177 2.105 . S
O191 C185 1.268 . S
O192 Sc176 2.105 . S
O192 C184 1.268 . S
O193 Sc177 2.105 . S
O193 C183 1.268 . S
O194 Sc178 2.105 . S
O194 C185 1.268 . S
O195 Sc176 2.105 . S
O195 C181 1.268 . S
O196 Sc178 2.105 . S
O196 C180 1.268 . S
O197 Sc177 2.105 . S
O197 C182 1.268 . S
Sc198 O201 2.025 . S
Sc198 O208 2.105 . S
Sc198 O211 2.105 . S
Sc198 O214 2.105 . S
Sc198 O217 2.105 . S
Sc199 O201 2.025 . S
Sc199 O209 2.105 . S
Sc199 O213 2.105 . S
Sc199 O215 2.105 . S
Sc199 O219 2.105 . S
Sc200 O201 2.025 . S
Sc200 O210 2.105 . S
Sc200 O212 2.105 . S
Sc200 O216 2.105 . S
Sc200 O218 2.105 . S
O201 Sc198 2.025 . S
O201 Sc199 2.025 . S
O201 Sc200 2.025 . S
C202 O208 1.268 . S
C202 O218 1.268 . S
C203 O209 1.268 . S
C203 O217 1.268 . S
C204 O210 1.268 . S
C204 O219 1.268 . S
C205 O211 1.268 . S
C205 O215 1.268 . S
C206 O212 1.268 . S
C206 O214 1.268 . S
C207 O213 1.268 . S
C207 O216 1.268 . S
O208 Sc198 2.105 . S
O208 C202 1.268 . S
O209 Sc199 2.105 . S
O209 C203 1.268 . S
O210 Sc200 2.105 . S
O210 C204 1.268 . S
O211 Sc198 2.105 . S
O211 C205 1.268 . S
O212 Sc200 2.105 . S
O212 C206 1.268 . S
O213 Sc199 2.105 . S
O213 C207 1.268 . S
O214 Sc198 2.105 . S
O214 C206 1.268 . S
O215 Sc199 2.105 . S
O215 C205 1.268 . S
O216 Sc200 2.105 . S
O216 C207 1.268 . S
O217 Sc198 2.105 . S
O217 C203 1.268 . S
O218 Sc200 2.105 . S
O218 C202 1.268 . S
O219 Sc199 2.105 . S
O219 C204 1.268 . S
Sc220 O223 2.025 . S
Sc220 O230 2.105 . S
Sc220 O233 2.105 . S
Sc220 O236 2.105 . S
Sc220 O239 2.105 . S
Sc221 O223 2.025 . S
Sc221 O231 2.105 . S
Sc221 O235 2.105 . S
Sc221 O237 2.105 . S
Sc221 O241 2.105 . S
Sc222 O223 2.025 . S
Sc222 O232 2.105 . S
Sc222 O234 2.105 . S
Sc222 O238 2.105 . S
Sc222 O240 2.105 . S
O223 Sc220 2.025 . S
O223 Sc221 2.025 . S
O223 Sc222 2.025 . S
C224 O230 1.268 . S
C224 O240 1.268 . S
C225 O231 1.268 . S
C225 O239 1.268 . S
C226 O232 1.268 . S
C226 O241 1.268 . S
C227 O233 1.268 . S
C227 O237 1.268 . S
C228 O234 1.268 . S
C228 O236 1.268 . S
C229 O235 1.268 . S
C229 O238 1.268 . S
O230 Sc220 2.105 . S
O230 C224 1.268 . S
O231 Sc221 2.105 . S
O231 C225 1.268 . S
O232 Sc222 2.105 . S
O232 C226 1.268 . S
O233 Sc220 2.105 . S
O233 C227 1.268 . S
O234 Sc222 2.105 . S
O234 C228 1.268 . S
O235 Sc221 2.105 . S
O235 C229 1.268 . S
O236 Sc220 2.105 . S
O236 C228 1.268 . S
O237 Sc221 2.105 . S
O237 C227 1.268 . S
O238 Sc222 2.105 . S
O238 C229 1.268 . S
O239 Sc220 2.105 . S
O239 C225 1.268 . S
O240 Sc222 2.105 . S
O240 C224 1.268 . S
O241 Sc221 2.105 . S
O241 C226 1.268 . S
Sc242 O245 2.025 . S
Sc242 O252 2.105 . S
Sc242 O255 2.105 . S
Sc242 O258 2.105 . S
Sc242 O261 2.105 . S
Sc243 O245 2.025 . S
Sc243 O253 2.105 . S
Sc243 O257 2.105 . S
Sc243 O259 2.105 . S
Sc243 O263 2.105 . S
Sc244 O245 2.025 . S
Sc244 O254 2.105 . S
Sc244 O256 2.105 . S
Sc244 O260 2.105 . S
Sc244 O262 2.105 . S
O245 Sc242 2.025 . S
O245 Sc243 2.025 . S
O245 Sc244 2.025 . S
C246 O252 1.268 . S
C246 O262 1.268 . S
C247 O253 1.268 . S
C247 O261 1.268 . S
C248 O254 1.268 . S
C248 O263 1.268 . S
C249 O255 1.268 . S
C249 O259 1.268 . S
C250 O256 1.268 . S
C250 O258 1.268 . S
C251 O257 1.268 . S
C251 O260 1.268 . S
O252 Sc242 2.105 . S
O252 C246 1.268 . S
O253 Sc243 2.105 . S
O253 C247 1.268 . S
O254 Sc244 2.105 . S
O254 C248 1.268 . S
O255 Sc242 2.105 . S
O255 C249 1.268 . S
O256 Sc244 2.105 . S
O256 C250 1.268 . S
O257 Sc243 2.105 . S
O257 C251 1.268 . S
O258 Sc242 2.105 . S
O258 C250 1.268 . S
O259 Sc243 2.105 . S
O259 C249 1.268 . S
O260 Sc244 2.105 . S
O260 C251 1.268 . S
O261 Sc242 2.105 . S
O261 C247 1.268 . S
O262 Sc244 2.105 . S
O262 C246 1.268 . S
O263 Sc243 2.105 . S
O263 C248 1.268 . S
Sc264 O267 2.025 . S
Sc264 O274 2.105 . S
Sc264 O277 2.105 . S
Sc264 O280 2.105 . S
Sc264 O283 2.105 . S
Sc265 O267 2.025 . S
Sc265 O275 2.105 . S
Sc265 O279 2.105 . S
Sc265 O281 2.105 . S
Sc265 O285 2.105 . S
Sc266 O267 2.025 . S
Sc266 O276 2.105 . S
Sc266 O278 2.105 . S
Sc266 O282 2.105 . S
Sc266 O284 2.105 . S
O267 Sc264 2.025 . S
O267 Sc265 2.025 . S
O267 Sc266 2.025 . S
C268 O274 1.268 . S
C268 O284 1.268 . S
C269 O275 1.268 . S
C269 O283 1.268 . S
C270 O276 1.268 . S
C270 O285 1.268 . S
C271 O277 1.268 . S
C271 O281 1.268 . S
C272 O278 1.268 . S
C272 O280 1.268 . S
C273 O279 1.268 . S
C273 O282 1.268 . S
O274 Sc264 2.105 . S
O274 C268 1.268 . S
O275 Sc265 2.105 . S
O275 C269 1.268 . S
O276 Sc266 2.105 . S
O276 C270 1.268 . S
O277 Sc264 2.105 . S
O277 C271 1.268 . S
O278 Sc266 2.105 . S
O278 C272 1.268 . S
O279 Sc265 2.105 . S
O279 C273 1.268 . S
O280 Sc264 2.105 . S
O280 C272 1.268 . S
O281 Sc265 2.105 . S
O281 C271 1.268 . S
O282 Sc266 2.105 . S
O282 C273 1.268 . S
O283 Sc264 2.105 . S
O283 C269 1.268 . S
O284 Sc266 2.105 . S
O284 C268 1.268 . S
O285 Sc265 2.105 . S
O285 C270 1.268 . S
Sc286 O289 2.025 . S
Sc286 O296 2.105 . S
Sc286 O299 2.105 . S
Sc286 O302 2.105 . S
Sc286 O305 2.105 . S
Sc287 O289 2.025 . S
Sc287 O297 2.105 . S
Sc287 O301 2.105 . S
Sc287 O303 2.105 . S
Sc287 O307 2.105 . S
Sc288 O289 2.025 . S
Sc288 O298 2.105 . S
Sc288 O300 2.105 . S
Sc288 O304 2.105 . S
Sc288 O306 2.105 . S
O289 Sc286 2.025 . S
O289 Sc287 2.025 . S
O289 Sc288 2.025 . S
C290 O296 1.268 . S
C290 O306 1.268 . S
C291 O297 1.268 . S
C291 O305 1.268 . S
C292 O298 1.268 . S
C292 O307 1.268 . S
C293 O299 1.268 . S
C293 O303 1.268 . S
C294 O300 1.268 . S
C294 O302 1.268 . S
C295 O301 1.268 . S
C295 O304 1.268 . S
O296 Sc286 2.105 . S
O296 C290 1.268 . S
O297 Sc287 2.105 . S
O297 C291 1.268 . S
O298 Sc288 2.105 . S
O298 C292 1.268 . S
O299 Sc286 2.105 . S
O299 C293 1.268 . S
O300 Sc288 2.105 . S
O300 C294 1.268 . S
O301 Sc287 2.105 . S
O301 C295 1.268 . S
O302 Sc286 2.105 . S
O302 C294 1.268 . S
O303 Sc287 2.105 . S
O303 C293 1.268 . S
O304 Sc288 2.105 . S
O304 C295 1.268 . S
O305 Sc286 2.105 . S
O305 C291 1.268 . S
O306 Sc288 2.105 . S
O306 C290 1.268 . S
O307 Sc287 2.105 . S
O307 C292 1.268 . S
Sc308 O311 2.025 . S
Sc308 O318 2.105 . S
Sc308 O321 2.105 . S
Sc308 O324 2.105 . S
Sc308 O327 2.105 . S
Sc309 O311 2.025 . S
Sc309 O319 2.105 . S
Sc309 O323 2.105 . S
Sc309 O325 2.105 . S
Sc309 O329 2.105 . S
Sc310 O311 2.025 . S
Sc310 O320 2.105 . S
Sc310 O322 2.105 . S
Sc310 O326 2.105 . S
Sc310 O328 2.105 . S
O311 Sc308 2.025 . S
O311 Sc309 2.025 . S
O311 Sc310 2.025 . S
C312 O318 1.268 . S
C312 O328 1.268 . S
C313 O319 1.268 . S
C313 O327 1.268 . S
C314 O320 1.268 . S
C314 O329 1.268 . S
C315 O321 1.268 . S
C315 O325 1.268 . S
C316 O322 1.268 . S
C316 O324 1.268 . S
C317 O323 1.268 . S
C317 O326 1.268 . S
O318 Sc308 2.105 . S
O318 C312 1.268 . S
O319 Sc309 2.105 . S
O319 C313 1.268 . S
O320 Sc310 2.105 . S
O320 C314 1.268 . S
O321 Sc308 2.105 . S
O321 C315 1.268 . S
O322 Sc310 2.105 . S
O322 C316 1.268 . S
O323 Sc309 2.105 . S
O323 C317 1.268 . S
O324 Sc308 2.105 . S
O324 C316 1.268 . S
O325 Sc309 2.105 . S
O325 C315 1.268 . S
O326 Sc310 2.105 . S
O326 C317 1.268 . S
O327 Sc308 2.105 . S
O327 C313 1.268 . S
O328 Sc310 2.105 . S
O328 C312 1.268 . S
O329 Sc309 2.105 . S
O329 C314 1.268 . S
Sc330 O333 2.025 . S
Sc330 O340 2.105 . S
Sc330 O343 2.105 . S
Sc330 O346 2.105 . S
Sc330 O349 2.105 . S
Sc331 O333 2.025 . S
Sc331 O341 2.105 . S
Sc331 O345 2.105 . S
Sc331 O347 2.105 . S
Sc331 O351 2.105 . S
Sc332 O333 2.025 . S
Sc332 O342 2.105 . S
Sc332 O344 2.105 . S
Sc332 O348 2.105 . S
Sc332 O350 2.105 . S
O333 Sc330 2.025 . S
O333 Sc331 2.025 . S
O333 Sc332 2.025 . S
C334 O340 1.268 . S
C334 O350 1.268 . S
C335 O341 1.268 . S
C335 O349 1.268 . S
C336 O342 1.268 . S
C336 O351 1.268 . S
C337 O343 1.268 . S
C337 O347 1.268 . S
C338 O344 1.268 . S
C338 O346 1.268 . S
C339 O345 1.268 . S
C339 O348 1.268 . S
O340 Sc330 2.105 . S
O340 C334 1.268 . S
O341 Sc331 2.105 . S
O341 C335 1.268 . S
O342 Sc332 2.105 . S
O342 C336 1.268 . S
O343 Sc330 2.105 . S
O343 C337 1.268 . S
O344 Sc332 2.105 . S
O344 C338 1.268 . S
O345 Sc331 2.105 . S
O345 C339 1.268 . S
O346 Sc330 2.105 . S
O346 C338 1.268 . S
O347 Sc331 2.105 . S
O347 C337 1.268 . S
O348 Sc332 2.105 . S
O348 C339 1.268 . S
O349 Sc330 2.105 . S
O349 C335 1.268 . S
O350 Sc332 2.105 . S
O350 C334 1.268 . S
O351 Sc331 2.105 . S
O351 C336 1.268 . S
Sc352 O355 2.025 . S
Sc352 O362 2.105 . S
Sc352 O365 2.105 . S
Sc352 O368 2.105 . S
Sc352 O371 2.105 . S
Sc353 O355 2.025 . S
Sc353 O363 2.105 . S
Sc353 O367 2.105 . S
Sc353 O369 2.105 . S
Sc353 O373 2.105 . S
Sc354 O355 2.025 . S
Sc354 O364 2.105 . S
Sc354 O366 2.105 . S
Sc354 O370 2.105 . S
Sc354 O372 2.105 . S
O355 Sc352 2.025 . S
O355 Sc353 2.025 . S
O355 Sc354 2.025 . S
C356 O362 1.268 . S
C356 O372 1.268 . S
C357 O363 1.268 . S
C357 O371 1.268 . S
C358 O364 1.268 . S
C358 O373 1.268 . S
C359 O365 1.268 . S
C359 O369 1.268 . S
C360 O366 1.268 . S
C360 O368 1.268 . S
C361 O367 1.268 . S
C361 O370 1.268 . S
O362 Sc352 2.105 . S
O362 C356 1.268 . S
O363 Sc353 2.105 . S
O363 C357 1.268 . S
O364 Sc354 2.105 . S
O364 C358 1.268 . S
O365 Sc352 2.105 . S
O365 C359 1.268 . S
O366 Sc354 2.105 . S
O366 C360 1.268 . S
O367 Sc353 2.105 . S
O367 C361 1.268 . S
O368 Sc352 2.105 . S
O368 C360 1.268 . S
O369 Sc353 2.105 . S
O369 C359 1.268 . S
O370 Sc354 2.105 . S
O370 C361 1.268 . S
O371 Sc352 2.105 . S
O371 C357 1.268 . S
O372 Sc354 2.105 . S
O372 C356 1.268 . S
O373 Sc353 2.105 . S
O373 C358 1.268 . S
Sc374 O377 2.025 . S
Sc374 O384 2.105 . S
Sc374 O387 2.105 . S
Sc374 O390 2.105 . S
Sc374 O393 2.105 . S
Sc375 O377 2.025 . S
Sc375 O385 2.105 . S
Sc375 O389 2.105 . S
Sc375 O391 2.105 . S
Sc375 O395 2.105 . S
Sc376 O377 2.025 . S
Sc376 O386 2.105 . S
Sc376 O388 2.105 . S
Sc376 O392 2.105 . S
Sc376 O394 2.105 . S
O377 Sc374 2.025 . S
O377 Sc375 2.025 . S
O377 Sc376 2.025 . S
C378 O384 1.268 . S
C378 O394 1.268 . S
C379 O385 1.268 . S
C379 O393 1.268 . S
C380 O386 1.268 . S
C380 O395 1.268 . S
C381 O387 1.268 . S
C381 O391 1.268 . S
C382 O388 1.268 . S
C382 O390 1.268 . S
C383 O389 1.268 . S
C383 O392 1.268 . S
O384 Sc374 2.105 . S
O384 C378 1.268 . S
O385 Sc375 2.105 . S
O385 C379 1.268 . S
O386 Sc376 2.105 . S
O386 C380 1.268 . S
O387 Sc374 2.105 . S
O387 C381 1.268 . S
O388 Sc376 2.105 . S
O388 C382 1.268 . S
O389 Sc375 2.105 . S
O389 C383 1.268 . S
O390 Sc374 2.105 . S
O390 C382 1.268 . S
O391 Sc375 2.105 . S
O391 C381 1.268 . S
O392 Sc376 2.105 . S
O392 C383 1.268 . S
O393 Sc374 2.105 . S
O393 C379 1.268 . S
O394 Sc376 2.105 . S
O394 C378 1.268 . S
O395 Sc375 2.105 . S
O395 C380 1.268 . S
Sc396 O399 2.025 . S
Sc396 O406 2.105 . S
Sc396 O409 2.105 . S
Sc396 O412 2.105 . S
Sc396 O415 2.105 . S
Sc397 O399 2.025 . S
Sc397 O407 2.105 . S
Sc397 O411 2.105 . S
Sc397 O413 2.105 . S
Sc397 O417 2.105 . S
Sc398 O399 2.025 . S
Sc398 O408 2.105 . S
Sc398 O410 2.105 . S
Sc398 O414 2.105 . S
Sc398 O416 2.105 . S
O399 Sc396 2.025 . S
O399 Sc397 2.025 . S
O399 Sc398 2.025 . S
C400 O406 1.268 . S
C400 O416 1.268 . S
C401 O407 1.268 . S
C401 O415 1.268 . S
C402 O408 1.268 . S
C402 O417 1.268 . S
C403 O409 1.268 . S
C403 O413 1.268 . S
C404 O410 1.268 . S
C404 O412 1.268 . S
C405 O411 1.268 . S
C405 O414 1.268 . S
O406 Sc396 2.105 . S
O406 C400 1.268 . S
O407 Sc397 2.105 . S
O407 C401 1.268 . S
O408 Sc398 2.105 . S
O408 C402 1.268 . S
O409 Sc396 2.105 . S
O409 C403 1.268 . S
O410 Sc398 2.105 . S
O410 C404 1.268 . S
O411 Sc397 2.105 . S
O411 C405 1.268 . S
O412 Sc396 2.105 . S
O412 C404 1.268 . S
O413 Sc397 2.105 . S
O413 C403 1.268 . S
O414 Sc398 2.105 . S
O414 C405 1.268 . S
O415 Sc396 2.105 . S
O415 C401 1.268 . S
O416 Sc398 2.105 . S
O416 C400 1.268 . S
O417 Sc397 2.105 . S
O417 C402 1.268 . S
Sc418 O421 2.025 . S
Sc418 O428 2.105 . S
Sc418 O431 2.105 . S
Sc418 O434 2.105 . S
Sc418 O437 2.105 . S
Sc419 O421 2.025 . S
Sc419 O429 2.105 . S
Sc419 O433 2.105 . S
Sc419 O435 2.105 . S
Sc419 O439 2.105 . S
Sc420 O421 2.025 . S
Sc420 O430 2.105 . S
Sc420 O432 2.105 . S
Sc420 O436 2.105 . S
Sc420 O438 2.105 . S
O421 Sc418 2.025 . S
O421 Sc419 2.025 . S
O421 Sc420 2.025 . S
C422 O428 1.268 . S
C422 O438 1.268 . S
C423 O429 1.268 . S
C423 O437 1.268 . S
C424 O430 1.268 . S
C424 O439 1.268 . S
C425 O431 1.268 . S
C425 O435 1.268 . S
C426 O432 1.268 . S
C426 O434 1.268 . S
C427 O433 1.268 . S
C427 O436 1.268 . S
O428 Sc418 2.105 . S
O428 C422 1.268 . S
O429 Sc419 2.105 . S
O429 C423 1.268 . S
O430 Sc420 2.105 . S
O430 C424 1.268 . S
O431 Sc418 2.105 . S
O431 C425 1.268 . S
O432 Sc420 2.105 . S
O432 C426 1.268 . S
O433 Sc419 2.105 . S
O433 C427 1.268 . S
O434 Sc418 2.105 . S
O434 C426 1.268 . S
O435 Sc419 2.105 . S
O435 C425 1.268 . S
O436 Sc420 2.105 . S
O436 C427 1.268 . S
O437 Sc418 2.105 . S
O437 C423 1.268 . S
O438 Sc420 2.105 . S
O438 C422 1.268 . S
O439 Sc419 2.105 . S
O439 C424 1.268 . S
Sc440 O443 2.025 . S
Sc440 O450 2.105 . S
Sc440 O453 2.105 . S
Sc440 O456 2.105 . S
Sc440 O459 2.105 . S
Sc441 O443 2.025 . S
Sc441 O451 2.105 . S
Sc441 O455 2.105 . S
Sc441 O457 2.105 . S
Sc441 O461 2.105 . S
Sc442 O443 2.025 . S
Sc442 O452 2.105 . S
Sc442 O454 2.105 . S
Sc442 O458 2.105 . S
Sc442 O460 2.105 . S
O443 Sc440 2.025 . S
O443 Sc441 2.025 . S
O443 Sc442 2.025 . S
C444 O450 1.268 . S
C444 O460 1.268 . S
C445 O451 1.268 . S
C445 O459 1.268 . S
C446 O452 1.268 . S
C446 O461 1.268 . S
C447 O453 1.268 . S
C447 O457 1.268 . S
C448 O454 1.268 . S
C448 O456 1.268 . S
C449 O455 1.268 . S
C449 O458 1.268 . S
O450 Sc440 2.105 . S
O450 C444 1.268 . S
O451 Sc441 2.105 . S
O451 C445 1.268 . S
O452 Sc442 2.105 . S
O452 C446 1.268 . S
O453 Sc440 2.105 . S
O453 C447 1.268 . S
O454 Sc442 2.105 . S
O454 C448 1.268 . S
O455 Sc441 2.105 . S
O455 C449 1.268 . S
O456 Sc440 2.105 . S
O456 C448 1.268 . S
O457 Sc441 2.105 . S
O457 C447 1.268 . S
O458 Sc442 2.105 . S
O458 C449 1.268 . S
O459 Sc440 2.105 . S
O459 C445 1.268 . S
O460 Sc442 2.105 . S
O460 C444 1.268 . S
O461 Sc441 2.105 . S
O461 C446 1.268 . S
Sc462 O465 2.025 . S
Sc462 O472 2.105 . S
Sc462 O475 2.105 . S
Sc462 O478 2.105 . S
Sc462 O481 2.105 . S
Sc463 O465 2.025 . S
Sc463 O473 2.105 . S
Sc463 O477 2.105 . S
Sc463 O479 2.105 . S
Sc463 O483 2.105 . S
Sc464 O465 2.025 . S
Sc464 O474 2.105 . S
Sc464 O476 2.105 . S
Sc464 O480 2.105 . S
Sc464 O482 2.105 . S
O465 Sc462 2.025 . S
O465 Sc463 2.025 . S
O465 Sc464 2.025 . S
C466 O472 1.268 . S
C466 O482 1.268 . S
C467 O473 1.268 . S
C467 O481 1.268 . S
C468 O474 1.268 . S
C468 O483 1.268 . S
C469 O475 1.268 . S
C469 O479 1.268 . S
C470 O476 1.268 . S
C470 O478 1.268 . S
C471 O477 1.268 . S
C471 O480 1.268 . S
O472 Sc462 2.105 . S
O472 C466 1.268 . S
O473 Sc463 2.105 . S
O473 C467 1.268 . S
O474 Sc464 2.105 . S
O474 C468 1.268 . S
O475 Sc462 2.105 . S
O475 C469 1.268 . S
O476 Sc464 2.105 . S
O476 C470 1.268 . S
O477 Sc463 2.105 . S
O477 C471 1.268 . S
O478 Sc462 2.105 . S
O478 C470 1.268 . S
O479 Sc463 2.105 . S
O479 C469 1.268 . S
O480 Sc464 2.105 . S
O480 C471 1.268 . S
O481 Sc462 2.105 . S
O481 C467 1.268 . S
O482 Sc464 2.105 . S
O482 C466 1.268 . S
O483 Sc463 2.105 . S
O483 C468 1.268 . S
Sc484 O487 2.025 . S
Sc484 O494 2.105 . S
Sc484 O497 2.105 . S
Sc484 O500 2.105 . S
Sc484 O503 2.105 . S
Sc485 O487 2.025 . S
Sc485 O495 2.105 . S
Sc485 O499 2.105 . S
Sc485 O501 2.105 . S
Sc485 O505 2.105 . S
Sc486 O487 2.025 . S
Sc486 O496 2.105 . S
Sc486 O498 2.105 . S
Sc486 O502 2.105 . S
Sc486 O504 2.105 . S
O487 Sc484 2.025 . S
O487 Sc485 2.025 . S
O487 Sc486 2.025 . S
C488 O494 1.268 . S
C488 O504 1.268 . S
C489 O495 1.268 . S
C489 O503 1.268 . S
C490 O496 1.268 . S
C490 O505 1.268 . S
C491 O497 1.268 . S
C491 O501 1.268 . S
C492 O498 1.268 . S
C492 O500 1.268 . S
C493 O499 1.268 . S
C493 O502 1.268 . S
O494 Sc484 2.105 . S
O494 C488 1.268 . S
O495 Sc485 2.105 . S
O495 C489 1.268 . S
O496 Sc486 2.105 . S
O496 C490 1.268 . S
O497 Sc484 2.105 . S
O497 C491 1.268 . S
O498 Sc486 2.105 . S
O498 C492 1.268 . S
O499 Sc485 2.105 . S
O499 C493 1.268 . S
O500 Sc484 2.105 . S
O500 C492 1.268 . S
O501 Sc485 2.105 . S
O501 C491 1.268 . S
O502 Sc486 2.105 . S
O502 C493 1.268 . S
O503 Sc484 2.105 . S
O503 C489 1.268 . S
O504 Sc486 2.105 . S
O504 C488 1.268 . S
O505 Sc485 2.105 . S
O505 C490 1.268 . S
Sc506 O509 2.025 . S
Sc506 O516 2.105 . S
Sc506 O519 2.105 . S
Sc506 O522 2.105 . S
Sc506 O525 2.105 . S
Sc507 O509 2.025 . S
Sc507 O517 2.105 . S
Sc507 O521 2.105 . S
Sc507 O523 2.105 . S
Sc507 O527 2.105 . S
Sc508 O509 2.025 . S
Sc508 O518 2.105 . S
Sc508 O520 2.105 . S
Sc508 O524 2.105 . S
Sc508 O526 2.105 . S
O509 Sc506 2.025 . S
O509 Sc507 2.025 . S
O509 Sc508 2.025 . S
C510 O516 1.268 . S
C510 O526 1.268 . S
C511 O517 1.268 . S
C511 O525 1.268 . S
C512 O518 1.268 . S
C512 O527 1.268 . S
C513 O519 1.268 . S
C513 O523 1.268 . S
C514 O520 1.268 . S
C514 O522 1.268 . S
C515 O521 1.268 . S
C515 O524 1.268 . S
O516 Sc506 2.105 . S
O516 C510 1.268 . S
O517 Sc507 2.105 . S
O517 C511 1.268 . S
O518 Sc508 2.105 . S
O518 C512 1.268 . S
O519 Sc506 2.105 . S
O519 C513 1.268 . S
O520 Sc508 2.105 . S
O520 C514 1.268 . S
O521 Sc507 2.105 . S
O521 C515 1.268 . S
O522 Sc506 2.105 . S
O522 C514 1.268 . S
O523 Sc507 2.105 . S
O523 C513 1.268 . S
O524 Sc508 2.105 . S
O524 C515 1.268 . S
O525 Sc506 2.105 . S
O525 C511 1.268 . S
O526 Sc508 2.105 . S
O526 C510 1.268 . S
O527 Sc507 2.105 . S
O527 C512 1.268 . S
C528 C529 1.387 . S
C528 H532 0.950 . S
C528 C537 1.390 . S
C529 C528 1.387 . S
C529 C531 1.387 1_556 S
H530 C537 0.950 . S
C531 C529 1.387 1_554 S
C531 C533 1.390 . S
C531 H535 0.950 . S
H532 C528 0.950 . S
C533 C531 1.390 . S
C533 C534 1.387 . S
C533 H536 0.950 . S
C534 C533 1.387 . S
C534 C537 1.387 1_554 S
H535 C531 0.950 . S
H536 C533 0.950 . S
C537 C528 1.390 . S
C537 H530 0.950 . S
C537 C534 1.387 1_556 S
C538 C539 1.387 . S
C538 H542 0.950 . S
C538 C547 1.390 . S
C539 C538 1.387 . S
C539 C541 1.387 . S
H540 C547 0.950 . S
C541 C539 1.387 . S
C541 C543 1.390 . S
C541 H545 0.950 . S
H542 C538 0.950 . S
C543 C541 1.390 . S
C543 C544 1.387 . S
C543 H546 0.950 . S
C544 C543 1.387 . S
C544 C547 1.387 . S
H545 C541 0.950 . S
H546 C543 0.950 . S
C547 C538 1.390 . S
C547 H540 0.950 . S
C547 C544 1.387 . S
C548 C549 1.387 . S
C548 H552 0.950 . S
C548 C557 1.390 1_556 S
C549 C548 1.387 . S
C549 C551 1.387 . S
H550 C557 0.950 . S
C551 C549 1.387 . S
C551 C553 1.390 1_556 S
C551 H555 0.950 . S
H552 C548 0.950 . S
C553 C551 1.390 1_554 S
C553 C554 1.387 . S
C553 H556 0.950 . S
C554 C553 1.387 . S
C554 C557 1.387 . S
H555 C551 0.950 . S
H556 C553 0.950 . S
C557 C548 1.390 1_554 S
C557 H550 0.950 . S
C557 C554 1.387 . S
C558 C559 1.387 . S
C558 H562 0.950 . S
C558 C567 1.390 . S
C559 C558 1.387 . S
C559 C561 1.387 . S
H560 C567 0.950 . S
C561 C559 1.387 . S
C561 C563 1.390 . S
C561 H565 0.950 . S
H562 C558 0.950 . S
C563 C561 1.390 . S
C563 C564 1.387 . S
C563 H566 0.950 . S
C564 C563 1.387 . S
C564 C567 1.387 . S
H565 C561 0.950 . S
H566 C563 0.950 . S
C567 C558 1.390 . S
C567 H560 0.950 . S
C567 C564 1.387 . S
C568 C569 1.387 . S
C568 H572 0.950 . S
C568 C577 1.390 1_556 S
C569 C568 1.387 . S
C569 C571 1.387 . S
H570 C577 0.950 . S
C571 C569 1.387 . S
C571 C573 1.390 1_556 S
C571 H575 0.950 . S
H572 C568 0.950 . S
C573 C571 1.390 1_554 S
C573 C574 1.387 . S
C573 H576 0.950 . S
C574 C573 1.387 . S
C574 C577 1.387 . S
H575 C571 0.950 . S
H576 C573 0.950 . S
C577 C568 1.390 1_554 S
C577 H570 0.950 . S
C577 C574 1.387 . S
C578 C579 1.387 . S
C578 H582 0.950 . S
C578 C587 1.390 . S
C579 C578 1.387 . S
C579 C581 1.387 . S
H580 C587 0.950 . S
C581 C579 1.387 . S
C581 C583 1.390 . S
C581 H585 0.950 . S
H582 C578 0.950 . S
C583 C581 1.390 . S
C583 C584 1.387 . S
C583 H586 0.950 . S
C584 C583 1.387 . S
C584 C587 1.387 . S
H585 C581 0.950 . S
H586 C583 0.950 . S
C587 C578 1.390 . S
C587 H580 0.950 . S
C587 C584 1.387 . S
C588 C589 1.387 1_554 S
C588 H592 0.950 . S
C588 C597 1.390 . S
C589 C588 1.387 1_556 S
C589 C591 1.387 . S
H590 C597 0.950 . S
C591 C589 1.387 . S
C591 C593 1.390 . S
C591 H595 0.950 . S
H592 C588 0.950 . S
C593 C591 1.390 . S
C593 C594 1.387 1_556 S
C593 H596 0.950 . S
C594 C593 1.387 1_554 S
C594 C597 1.387 . S
H595 C591 0.950 . S
H596 C593 0.950 . S
C597 C588 1.390 . S
C597 H590 0.950 . S
C597 C594 1.387 . S
C598 C599 1.387 . S
C598 H602 0.950 . S
C598 C607 1.390 . S
C599 C598 1.387 . S
C599 C601 1.387 . S
H600 C607 0.950 . S
C601 C599 1.387 . S
C601 C603 1.390 . S
C601 H605 0.950 . S
H602 C598 0.950 . S
C603 C601 1.390 . S
C603 C604 1.387 . S
C603 H606 0.950 . S
C604 C603 1.387 . S
C604 C607 1.387 . S
H605 C601 0.950 . S
H606 C603 0.950 . S
C607 C598 1.390 . S
C607 H600 0.950 . S
C607 C604 1.387 . S
C608 C609 1.387 . S
C608 H612 0.950 . S
C608 C617 1.390 1_554 S
C609 C608 1.387 . S
C609 C611 1.387 . S
H610 C617 0.950 . S
C611 C609 1.387 . S
C611 C613 1.390 1_554 S
C611 H615 0.950 . S
H612 C608 0.950 . S
C613 C611 1.390 1_556 S
C613 C614 1.387 . S
C613 H616 0.950 . S
C614 C613 1.387 . S
C614 C617 1.387 . S
H615 C611 0.950 . S
H616 C613 0.950 . S
C617 C608 1.390 1_556 S
C617 H610 0.950 . S
C617 C614 1.387 . S
C618 C619 1.387 . S
C618 H622 0.950 . S
C618 C627 1.390 . S
C619 C618 1.387 . S
C619 C621 1.387 . S
H620 C627 0.950 . S
C621 C619 1.387 . S
C621 C623 1.390 . S
C621 H625 0.950 . S
H622 C618 0.950 . S
C623 C621 1.390 . S
C623 C624 1.387 . S
C623 H626 0.950 . S
C624 C623 1.387 . S
C624 C627 1.387 . S
H625 C621 0.950 . S
H626 C623 0.950 . S
C627 C618 1.390 . S
C627 H620 0.950 . S
C627 C624 1.387 . S
C628 C629 1.387 . S
C628 H632 0.950 . S
C628 C637 1.390 1_556 S
C629 C628 1.387 . S
C629 C631 1.387 . S
H630 C637 0.950 . S
C631 C629 1.387 . S
C631 C633 1.390 1_556 S
C631 H635 0.950 . S
H632 C628 0.950 . S
C633 C631 1.390 1_554 S
C633 C634 1.387 . S
C633 H636 0.950 . S
C634 C633 1.387 . S
C634 C637 1.387 . S
H635 C631 0.950 . S
H636 C633 0.950 . S
C637 C628 1.390 1_554 S
C637 H630 0.950 . S
C637 C634 1.387 . S
C638 C639 1.387 . S
C638 H642 0.950 . S
C638 C647 1.390 . S
C639 C638 1.387 . S
C639 C641 1.387 . S
H640 C647 0.950 . S
C641 C639 1.387 . S
C641 C643 1.390 . S
C641 H645 0.950 . S
H642 C638 0.950 . S
C643 C641 1.390 . S
C643 C644 1.387 . S
C643 H646 0.950 . S
C644 C643 1.387 . S
C644 C647 1.387 . S
H645 C641 0.950 . S
H646 C643 0.950 . S
C647 C638 1.390 . S
C647 H640 0.950 . S
C647 C644 1.387 . S
C648 C649 1.387 . S
C648 H652 0.950 . S
C648 C657 1.390 . S
C649 C648 1.387 . S
C649 C651 1.387 . S
H650 C657 0.950 . S
C651 C649 1.387 . S
C651 C653 1.390 . S
C651 H655 0.950 . S
H652 C648 0.950 . S
C653 C651 1.390 . S
C653 C654 1.387 . S
C653 H656 0.950 . S
C654 C653 1.387 . S
C654 C657 1.387 . S
H655 C651 0.950 . S
H656 C653 0.950 . S
C657 C648 1.390 . S
C657 H650 0.950 . S
C657 C654 1.387 . S
C658 C659 1.387 . S
C658 H662 0.950 . S
C658 C667 1.390 . S
C659 C658 1.387 . S
C659 C661 1.387 . S
H660 C667 0.950 . S
C661 C659 1.387 . S
C661 C663 1.390 . S
C661 H665 0.950 . S
H662 C658 0.950 . S
C663 C661 1.390 . S
C663 C664 1.387 . S
C663 H666 0.950 . S
C664 C663 1.387 . S
C664 C667 1.387 . S
H665 C661 0.950 . S
H666 C663 0.950 . S
C667 C658 1.390 . S
C667 H660 0.950 . S
C667 C664 1.387 . S
C668 C669 1.387 . S
C668 H672 0.950 . S
C668 C677 1.390 . S
C669 C668 1.387 . S
C669 C671 1.387 . S
H670 C677 0.950 . S
C671 C669 1.387 . S
C671 C673 1.390 . S
C671 H675 0.950 . S
H672 C668 0.950 . S
C673 C671 1.390 . S
C673 C674 1.387 . S
C673 H676 0.950 . S
C674 C673 1.387 . S
C674 C677 1.387 . S
H675 C671 0.950 . S
H676 C673 0.950 . S
C677 C668 1.390 . S
C677 H670 0.950 . S
C677 C674 1.387 . S
C678 C679 1.387 . S
C678 H682 0.950 . S
C678 C687 1.390 . S
C679 C678 1.387 . S
C679 C681 1.387 . S
H680 C687 0.950 . S
C681 C679 1.387 . S
C681 C683 1.390 . S
C681 H685 0.950 . S
H682 C678 0.950 . S
C683 C681 1.390 . S
C683 C684 1.387 . S
C683 H686 0.950 . S
C684 C683 1.387 . S
C684 C687 1.387 . S
H685 C681 0.950 . S
H686 C683 0.950 . S
C687 C678 1.390 . S
C687 H680 0.950 . S
C687 C684 1.387 . S
C688 C689 1.387 . S
C688 H692 0.950 . S
C688 C697 1.390 . S
C689 C688 1.387 . S
C689 C691 1.387 . S
H690 C697 0.950 . S
C691 C689 1.387 . S
C691 C693 1.390 . S
C691 H695 0.950 . S
H692 C688 0.950 . S
C693 C691 1.390 . S
C693 C694 1.387 . S
C693 H696 0.950 . S
C694 C693 1.387 . S
C694 C697 1.387 . S
H695 C691 0.950 . S
H696 C693 0.950 . S
C697 C688 1.390 . S
C697 H690 0.950 . S
C697 C694 1.387 . S
C698 C699 1.387 . S
C698 H702 0.950 . S
C698 C707 1.390 . S
C699 C698 1.387 . S
C699 C701 1.387 . S
H700 C707 0.950 . S
C701 C699 1.387 . S
C701 C703 1.390 . S
C701 H705 0.950 . S
H702 C698 0.950 . S
C703 C701 1.390 . S
C703 C704 1.387 . S
C703 H706 0.950 . S
C704 C703 1.387 . S
C704 C707 1.387 . S
H705 C701 0.950 . S
H706 C703 0.950 . S
C707 C698 1.390 . S
C707 H700 0.950 . S
C707 C704 1.387 . S
C708 C709 1.387 . S
C708 H712 0.950 . S
C708 C717 1.390 . S
C709 C708 1.387 . S
C709 C711 1.387 . S
H710 C717 0.950 . S
C711 C709 1.387 . S
C711 C713 1.390 . S
C711 H715 0.950 . S
H712 C708 0.950 . S
C713 C711 1.390 . S
C713 C714 1.387 . S
C713 H716 0.950 . S
C714 C713 1.387 . S
C714 C717 1.387 . S
H715 C711 0.950 . S
H716 C713 0.950 . S
C717 C708 1.390 . S
C717 H710 0.950 . S
C717 C714 1.387 . S
C718 C719 1.387 . S
C718 H722 0.950 . S
C718 C727 1.390 . S
C719 C718 1.387 . S
C719 C721 1.387 . S
H720 C727 0.950 . S
C721 C719 1.387 . S
C721 C723 1.390 . S
C721 H725 0.950 . S
H722 C718 0.950 . S
C723 C721 1.390 . S
C723 C724 1.387 . S
C723 H726 0.950 . S
C724 C723 1.387 . S
C724 C727 1.387 . S
H725 C721 0.950 . S
H726 C723 0.950 . S
C727 C718 1.390 . S
C727 H720 0.950 . S
C727 C724 1.387 . S
C728 C729 1.387 . S
C728 H732 0.950 . S
C728 C737 1.390 . S
C729 C728 1.387 . S
C729 C731 1.387 . S
H730 C737 0.950 . S
C731 C729 1.387 . S
C731 C733 1.390 . S
C731 H735 0.950 . S
H732 C728 0.950 . S
C733 C731 1.390 . S
C733 C734 1.387 . S
C733 H736 0.950 . S
C734 C733 1.387 . S
C734 C737 1.387 . S
H735 C731 0.950 . S
H736 C733 0.950 . S
C737 C728 1.390 . S
C737 H730 0.950 . S
C737 C734 1.387 . S
C738 C739 1.387 . S
C738 H742 0.950 . S
C738 C747 1.390 . S
C739 C738 1.387 . S
C739 C741 1.387 . S
H740 C747 0.950 . S
C741 C739 1.387 . S
C741 C743 1.390 . S
C741 H745 0.950 . S
H742 C738 0.950 . S
C743 C741 1.390 . S
C743 C744 1.387 . S
C743 H746 0.950 . S
C744 C743 1.387 . S
C744 C747 1.387 . S
H745 C741 0.950 . S
H746 C743 0.950 . S
C747 C738 1.390 . S
C747 H740 0.950 . S
C747 C744 1.387 . S
C748 C749 1.387 . S
C748 H752 0.950 . S
C748 C757 1.390 . S
C749 C748 1.387 . S
C749 C751 1.387 . S
H750 C757 0.950 . S
C751 C749 1.387 . S
C751 C753 1.390 . S
C751 H755 0.950 . S
H752 C748 0.950 . S
C753 C751 1.390 . S
C753 C754 1.387 . S
C753 H756 0.950 . S
C754 C753 1.387 . S
C754 C757 1.387 . S
H755 C751 0.950 . S
H756 C753 0.950 . S
C757 C748 1.390 . S
C757 H750 0.950 . S
C757 C754 1.387 . S
C758 C759 1.387 . S
C758 H762 0.950 . S
C758 C767 1.390 . S
C759 C758 1.387 . S
C759 C761 1.387 . S
H760 C767 0.950 . S
C761 C759 1.387 . S
C761 C763 1.390 . S
C761 H765 0.950 . S
H762 C758 0.950 . S
C763 C761 1.390 . S
C763 C764 1.387 . S
C763 H766 0.950 . S
C764 C763 1.387 . S
C764 C767 1.387 . S
H765 C761 0.950 . S
H766 C763 0.950 . S
C767 C758 1.390 . S
C767 H760 0.950 . S
C767 C764 1.387 . S
C768 C769 1.387 . S
C768 H772 0.950 . S
C768 C777 1.390 . S
C769 C768 1.387 . S
C769 C771 1.387 . S
H770 C777 0.950 . S
C771 C769 1.387 . S
C771 C773 1.390 . S
C771 H775 0.950 . S
H772 C768 0.950 . S
C773 C771 1.390 . S
C773 C774 1.387 . S
C773 H776 0.950 . S
C774 C773 1.387 . S
C774 C777 1.387 . S
H775 C771 0.950 . S
H776 C773 0.950 . S
C777 C768 1.390 . S
C777 H770 0.950 . S
C777 C774 1.387 . S
C778 C779 1.387 . S
C778 H782 0.950 . S
C778 C787 1.390 . S
C779 C778 1.387 . S
C779 C781 1.387 . S
H780 C787 0.950 . S
C781 C779 1.387 . S
C781 C783 1.390 . S
C781 H785 0.950 . S
H782 C778 0.950 . S
C783 C781 1.390 . S
C783 C784 1.387 . S
C783 H786 0.950 . S
C784 C783 1.387 . S
C784 C787 1.387 . S
H785 C781 0.950 . S
H786 C783 0.950 . S
C787 C778 1.390 . S
C787 H780 0.950 . S
C787 C784 1.387 . S
C788 C789 1.387 . S
C788 H792 0.950 . S
C788 C797 1.390 . S
C789 C788 1.387 . S
C789 C791 1.387 . S
H790 C797 0.950 . S
C791 C789 1.387 . S
C791 C793 1.390 . S
C791 H795 0.950 . S
H792 C788 0.950 . S
C793 C791 1.390 . S
C793 C794 1.387 . S
C793 H796 0.950 . S
C794 C793 1.387 . S
C794 C797 1.387 . S
H795 C791 0.950 . S
H796 C793 0.950 . S
C797 C788 1.390 . S
C797 H790 0.950 . S
C797 C794 1.387 . S
C798 C799 1.387 . S
C798 H802 0.950 . S
C798 C807 1.390 . S
C799 C798 1.387 . S
C799 C801 1.387 . S
H800 C807 0.950 . S
C801 C799 1.387 . S
C801 C803 1.390 . S
C801 H805 0.950 . S
H802 C798 0.950 . S
C803 C801 1.390 . S
C803 C804 1.387 . S
C803 H806 0.950 . S
C804 C803 1.387 . S
C804 C807 1.387 . S
H805 C801 0.950 . S
H806 C803 0.950 . S
C807 C798 1.390 . S
C807 H800 0.950 . S
C807 C804 1.387 . S
C808 C809 1.387 . S
C808 H812 0.950 . S
C808 C817 1.390 . S
C809 C808 1.387 . S
C809 C811 1.387 . S
H810 C817 0.950 . S
C811 C809 1.387 . S
C811 C813 1.390 . S
C811 H815 0.950 . S
H812 C808 0.950 . S
C813 C811 1.390 . S
C813 C814 1.387 . S
C813 H816 0.950 . S
C814 C813 1.387 . S
C814 C817 1.387 . S
H815 C811 0.950 . S
H816 C813 0.950 . S
C817 C808 1.390 . S
C817 H810 0.950 . S
C817 C814 1.387 . S
C818 C819 1.387 . S
C818 H822 0.950 . S
C818 C827 1.390 . S
C819 C818 1.387 . S
C819 C821 1.387 . S
H820 C827 0.950 . S
C821 C819 1.387 . S
C821 C823 1.390 . S
C821 H825 0.950 . S
H822 C818 0.950 . S
C823 C821 1.390 . S
C823 C824 1.387 . S
C823 H826 0.950 . S
C824 C823 1.387 . S
C824 C827 1.387 . S
H825 C821 0.950 . S
H826 C823 0.950 . S
C827 C818 1.390 . S
C827 H820 0.950 . S
C827 C824 1.387 . S
C828 C829 1.387 . S
C828 H832 0.950 . S
C828 C837 1.390 . S
C829 C828 1.387 . S
C829 C831 1.387 . S
H830 C837 0.950 . S
C831 C829 1.387 . S
C831 C833 1.390 . S
C831 H835 0.950 . S
H832 C828 0.950 . S
C833 C831 1.390 . S
C833 C834 1.387 . S
C833 H836 0.950 . S
C834 C833 1.387 . S
C834 C837 1.387 . S
H835 C831 0.950 . S
H836 C833 0.950 . S
C837 C828 1.390 . S
C837 H830 0.950 . S
C837 C834 1.387 . S
C838 C839 1.387 . S
C838 H842 0.950 . S
C838 C847 1.390 . S
C839 C838 1.387 . S
C839 C841 1.387 . S
H840 C847 0.950 . S
C841 C839 1.387 . S
C841 C843 1.390 . S
C841 H845 0.950 . S
H842 C838 0.950 . S
C843 C841 1.390 . S
C843 C844 1.387 . S
C843 H846 0.950 . S
C844 C843 1.387 . S
C844 C847 1.387 . S
H845 C841 0.950 . S
H846 C843 0.950 . S
C847 C838 1.390 . S
C847 H840 0.950 . S
C847 C844 1.387 . S
C848 C849 1.387 . S
C848 H852 0.950 . S
C848 C857 1.390 . S
C849 C848 1.387 . S
C849 C851 1.387 . S
H850 C857 0.950 . S
C851 C849 1.387 . S
C851 C853 1.390 . S
C851 H855 0.950 . S
H852 C848 0.950 . S
C853 C851 1.390 . S
C853 C854 1.387 . S
C853 H856 0.950 . S
C854 C853 1.387 . S
C854 C857 1.387 . S
H855 C851 0.950 . S
H856 C853 0.950 . S
C857 C848 1.390 . S
C857 H850 0.950 . S
C857 C854 1.387 . S
C858 C859 1.387 . S
C858 H862 0.950 . S
C858 C867 1.390 . S
C859 C858 1.387 . S
C859 C861 1.387 . S
H860 C867 0.950 . S
C861 C859 1.387 . S
C861 C863 1.390 . S
C861 H865 0.950 . S
H862 C858 0.950 . S
C863 C861 1.390 . S
C863 C864 1.387 . S
C863 H866 0.950 . S
C864 C863 1.387 . S
C864 C867 1.387 . S
H865 C861 0.950 . S
H866 C863 0.950 . S
C867 C858 1.390 . S
C867 H860 0.950 . S
C867 C864 1.387 . S
C868 C869 1.387 . S
C868 H872 0.950 . S
C868 C877 1.390 . S
C869 C868 1.387 . S
C869 C871 1.387 . S
H870 C877 0.950 . S
C871 C869 1.387 . S
C871 C873 1.390 . S
C871 H875 0.950 . S
H872 C868 0.950 . S
C873 C871 1.390 . S
C873 C874 1.387 . S
C873 H876 0.950 . S
C874 C873 1.387 . S
C874 C877 1.387 . S
H875 C871 0.950 . S
H876 C873 0.950 . S
C877 C868 1.390 . S
C877 H870 0.950 . S
C877 C874 1.387 . S
C878 C879 1.387 . S
C878 H882 0.950 . S
C878 C887 1.390 . S
C879 C878 1.387 . S
C879 C881 1.387 . S
H880 C887 0.950 . S
C881 C879 1.387 . S
C881 C883 1.390 . S
C881 H885 0.950 . S
H882 C878 0.950 . S
C883 C881 1.390 . S
C883 C884 1.387 . S
C883 H886 0.950 . S
C884 C883 1.387 . S
C884 C887 1.387 . S
H885 C881 0.950 . S
H886 C883 0.950 . S
C887 C878 1.390 . S
C887 H880 0.950 . S
C887 C884 1.387 . S
C888 C889 1.387 . S
C888 H892 0.950 . S
C888 C897 1.390 . S
C889 C888 1.387 . S
C889 C891 1.387 . S
H890 C897 0.950 . S
C891 C889 1.387 . S
C891 C893 1.390 . S
C891 H895 0.950 . S
H892 C888 0.950 . S
C893 C891 1.390 . S
C893 C894 1.387 . S
C893 H896 0.950 . S
C894 C893 1.387 . S
C894 C897 1.387 . S
H895 C891 0.950 . S
H896 C893 0.950 . S
C897 C888 1.390 . S
C897 H890 0.950 . S
C897 C894 1.387 . S
C898 C899 1.387 . S
C898 H902 0.950 . S
C898 C907 1.390 . S
C899 C898 1.387 . S
C899 C901 1.387 . S
H900 C907 0.950 . S
C901 C899 1.387 . S
C901 C903 1.390 . S
C901 H905 0.950 . S
H902 C898 0.950 . S
C903 C901 1.390 . S
C903 C904 1.387 . S
C903 H906 0.950 . S
C904 C903 1.387 . S
C904 C907 1.387 . S
H905 C901 0.950 . S
H906 C903 0.950 . S
C907 C898 1.390 . S
C907 H900 0.950 . S
C907 C904 1.387 . S
C908 C909 1.387 . S
C908 H912 0.950 . S
C908 C917 1.390 . S
C909 C908 1.387 . S
C909 C911 1.387 . S
H910 C917 0.950 . S
C911 C909 1.387 . S
C911 C913 1.390 . S
C911 H915 0.950 . S
H912 C908 0.950 . S
C913 C911 1.390 . S
C913 C914 1.387 . S
C913 H916 0.950 . S
C914 C913 1.387 . S
C914 C917 1.387 . S
H915 C911 0.950 . S
H916 C913 0.950 . S
C917 C908 1.390 . S
C917 H910 0.950 . S
C917 C914 1.387 . S
C918 C919 1.387 . S
C918 H922 0.950 . S
C918 C927 1.390 . S
C919 C918 1.387 . S
C919 C921 1.387 . S
H920 C927 0.950 . S
C921 C919 1.387 . S
C921 C923 1.390 . S
C921 H925 0.950 . S
H922 C918 0.950 . S
C923 C921 1.390 . S
C923 C924 1.387 . S
C923 H926 0.950 . S
C924 C923 1.387 . S
C924 C927 1.387 . S
H925 C921 0.950 . S
H926 C923 0.950 . S
C927 C918 1.390 . S
C927 H920 0.950 . S
C927 C924 1.387 . S
C928 C929 1.387 . S
C928 H932 0.950 . S
C928 C937 1.390 . S
C929 C928 1.387 . S
C929 C931 1.387 . S
H930 C937 0.950 . S
C931 C929 1.387 . S
C931 C933 1.390 . S
C931 H935 0.950 . S
H932 C928 0.950 . S
C933 C931 1.390 . S
C933 C934 1.387 . S
C933 H936 0.950 . S
C934 C933 1.387 . S
C934 C937 1.387 . S
H935 C931 0.950 . S
H936 C933 0.950 . S
C937 C928 1.390 . S
C937 H930 0.950 . S
C937 C934 1.387 . S
C938 C939 1.387 . S
C938 H942 0.950 . S
C938 C947 1.390 . S
C939 C938 1.387 . S
C939 C941 1.387 . S
H940 C947 0.950 . S
C941 C939 1.387 . S
C941 C943 1.390 . S
C941 H945 0.950 . S
H942 C938 0.950 . S
C943 C941 1.390 . S
C943 C944 1.387 . S
C943 H946 0.950 . S
C944 C943 1.387 . S
C944 C947 1.387 . S
H945 C941 0.950 . S
H946 C943 0.950 . S
C947 C938 1.390 . S
C947 H940 0.950 . S
C947 C944 1.387 . S
C948 C949 1.387 . S
C948 H952 0.950 . S
C948 C957 1.390 . S
C949 C948 1.387 . S
C949 C951 1.387 . S
H950 C957 0.950 . S
C951 C949 1.387 . S
C951 C953 1.390 . S
C951 H955 0.950 . S
H952 C948 0.950 . S
C953 C951 1.390 . S
C953 C954 1.387 . S
C953 H956 0.950 . S
C954 C953 1.387 . S
C954 C957 1.387 . S
H955 C951 0.950 . S
H956 C953 0.950 . S
C957 C948 1.390 . S
C957 H950 0.950 . S
C957 C954 1.387 . S
C958 C959 1.387 . S
C958 H962 0.950 . S
C958 C967 1.390 . S
C959 C958 1.387 . S
C959 C961 1.387 . S
H960 C967 0.950 . S
C961 C959 1.387 . S
C961 C963 1.390 . S
C961 H965 0.950 . S
H962 C958 0.950 . S
C963 C961 1.390 . S
C963 C964 1.387 . S
C963 H966 0.950 . S
C964 C963 1.387 . S
C964 C967 1.387 . S
H965 C961 0.950 . S
H966 C963 0.950 . S
C967 C958 1.390 . S
C967 H960 0.950 . S
C967 C964 1.387 . S
C968 C969 1.387 . S
C968 H972 0.950 . S
C968 C977 1.390 . S
C969 C968 1.387 . S
C969 C971 1.387 . S
H970 C977 0.950 . S
C971 C969 1.387 . S
C971 C973 1.390 . S
C971 H975 0.950 . S
H972 C968 0.950 . S
C973 C971 1.390 . S
C973 C974 1.387 . S
C973 H976 0.950 . S
C974 C973 1.387 . S
C974 C977 1.387 . S
H975 C971 0.950 . S
H976 C973 0.950 . S
C977 C968 1.390 . S
C977 H970 0.950 . S
C977 C974 1.387 . S
C978 C979 1.387 . S
C978 H982 0.950 . S
C978 C987 1.390 . S
C979 C978 1.387 . S
C979 C981 1.387 . S
H980 C987 0.950 . S
C981 C979 1.387 . S
C981 C983 1.390 . S
C981 H985 0.950 . S
H982 C978 0.950 . S
C983 C981 1.390 . S
C983 C984 1.387 . S
C983 H986 0.950 . S
C984 C983 1.387 . S
C984 C987 1.387 . S
H985 C981 0.950 . S
H986 C983 0.950 . S
C987 C978 1.390 . S
C987 H980 0.950 . S
C987 C984 1.387 . S
C988 C989 1.387 . S
C988 H992 0.950 . S
C988 C997 1.390 . S
C989 C988 1.387 . S
C989 C991 1.387 . S
H990 C997 0.950 . S
C991 C989 1.387 . S
C991 C993 1.390 . S
C991 H995 0.950 . S
H992 C988 0.950 . S
C993 C991 1.390 . S
C993 C994 1.387 . S
C993 H996 0.950 . S
C994 C993 1.387 . S
C994 C997 1.387 . S
H995 C991 0.950 . S
H996 C993 0.950 . S
C997 C988 1.390 . S
C997 H990 0.950 . S
C997 C994 1.387 . S
C998 C999 1.387 . S
C998 H1002 0.950 . S
C998 C1007 1.390 . S
C999 C998 1.387 . S
C999 C1001 1.387 . S
H1000 C1007 0.950 . S
C1001 C999 1.387 . S
C1001 C1003 1.390 . S
C1001 H1005 0.950 . S
H1002 C998 0.950 . S
C1003 C1001 1.390 . S
C1003 C1004 1.387 . S
C1003 H1006 0.950 . S
C1004 C1003 1.387 . S
C1004 C1007 1.387 . S
H1005 C1001 0.950 . S
H1006 C1003 0.950 . S
C1007 C998 1.390 . S
C1007 H1000 0.950 . S
C1007 C1004 1.387 . S
C1008 C1009 1.387 . S
C1008 H1012 0.950 . S
C1008 C1017 1.390 1_655 S
C1009 C1008 1.387 . S
C1009 C1011 1.387 . S
H1010 C1017 0.950 . S
C1011 C1009 1.387 . S
C1011 C1013 1.390 1_655 S
C1011 H1015 0.950 . S
H1012 C1008 0.950 . S
C1013 C1011 1.390 1_455 S
C1013 C1014 1.387 . S
C1013 H1016 0.950 . S
C1014 C1013 1.387 . S
C1014 C1017 1.387 . S
H1015 C1011 0.950 . S
H1016 C1013 0.950 . S
C1017 C1008 1.390 1_455 S
C1017 H1010 0.950 . S
C1017 C1014 1.387 . S
C1018 C1019 1.387 . S
C1018 H1022 0.950 . S
C1018 C1027 1.390 1_565 S
C1019 C1018 1.387 . S
C1019 C1021 1.387 . S
H1020 C1027 0.950 . S
C1021 C1019 1.387 . S
C1021 C1023 1.390 1_565 S
C1021 H1025 0.950 . S
H1022 C1018 0.950 . S
C1023 C1021 1.390 1_545 S
C1023 C1024 1.387 . S
C1023 H1026 0.950 . S
C1024 C1023 1.387 . S
C1024 C1027 1.387 . S
H1025 C1021 0.950 . S
H1026 C1023 0.950 . S
C1027 C1018 1.390 1_545 S
C1027 H1020 0.950 . S
C1027 C1024 1.387 . S
C1028 C1029 1.387 . S
C1028 H1032 0.950 . S
C1028 C1037 1.390 . S
C1029 C1028 1.387 . S
C1029 C1031 1.387 . S
H1030 C1037 0.950 . S
C1031 C1029 1.387 . S
C1031 C1033 1.390 . S
C1031 H1035 0.950 . S
H1032 C1028 0.950 . S
C1033 C1031 1.390 . S
C1033 C1034 1.387 . S
C1033 H1036 0.950 . S
C1034 C1033 1.387 . S
C1034 C1037 1.387 . S
H1035 C1031 0.950 . S
H1036 C1033 0.950 . S
C1037 C1028 1.390 . S
C1037 H1030 0.950 . S
C1037 C1034 1.387 . S
C1038 C1039 1.387 . S
C1038 H1042 0.950 . S
C1038 C1047 1.390 1_455 S
C1039 C1038 1.387 . S
C1039 C1041 1.387 . S
H1040 C1047 0.950 . S
C1041 C1039 1.387 . S
C1041 C1043 1.390 1_455 S
C1041 H1045 0.950 . S
H1042 C1038 0.950 . S
C1043 C1041 1.390 1_655 S
C1043 C1044 1.387 . S
C1043 H1046 0.950 . S
C1044 C1043 1.387 . S
C1044 C1047 1.387 . S
H1045 C1041 0.950 . S
H1046 C1043 0.950 . S
C1047 C1038 1.390 1_655 S
C1047 H1040 0.950 . S
C1047 C1044 1.387 . S
C1048 C1049 1.387 . S
C1048 H1052 0.950 . S
C1048 C1057 1.390 1_545 S
C1049 C1048 1.387 . S
C1049 C1051 1.387 . S
H1050 C1057 0.950 . S
C1051 C1049 1.387 . S
C1051 C1053 1.390 1_545 S
C1051 H1055 0.950 . S
H1052 C1048 0.950 . S
C1053 C1051 1.390 1_565 S
C1053 C1054 1.387 . S
C1053 H1056 0.950 . S
C1054 C1053 1.387 . S
C1054 C1057 1.387 . S
H1055 C1051 0.950 . S
H1056 C1053 0.950 . S
C1057 C1048 1.390 1_565 S
C1057 H1050 0.950 . S
C1057 C1054 1.387 . S
C1058 C1059 1.387 . S
C1058 H1062 0.950 . S
C1058 C1067 1.390 . S
C1059 C1058 1.387 . S
C1059 C1061 1.387 . S
H1060 C1067 0.950 . S
C1061 C1059 1.387 . S
C1061 C1063 1.390 . S
C1061 H1065 0.950 . S
H1062 C1058 0.950 . S
C1063 C1061 1.390 . S
C1063 C1064 1.387 . S
C1063 H1066 0.950 . S
C1064 C1063 1.387 . S
C1064 C1067 1.387 . S
H1065 C1061 0.950 . S
H1066 C1063 0.950 . S
C1067 C1058 1.390 . S
C1067 H1060 0.950 . S
C1067 C1064 1.387 . S
C1068 C1069 1.387 . S
C1068 H1072 0.950 . S
C1068 C1077 1.390 1_565 S
C1069 C1068 1.387 . S
C1069 C1071 1.387 . S
H1070 C1077 0.950 . S
C1071 C1069 1.387 . S
C1071 C1073 1.390 1_565 S
C1071 H1075 0.950 . S
H1072 C1068 0.950 . S
C1073 C1071 1.390 1_545 S
C1073 C1074 1.387 . S
C1073 H1076 0.950 . S
C1074 C1073 1.387 . S
C1074 C1077 1.387 . S
H1075 C1071 0.950 . S
H1076 C1073 0.950 . S
C1077 C1068 1.390 1_545 S
C1077 H1070 0.950 . S
C1077 C1074 1.387 . S
C1078 C1079 1.387 . S
C1078 H1082 0.950 . S
C1078 C1087 1.390 . S
C1079 C1078 1.387 . S
C1079 C1081 1.387 . S
H1080 C1087 0.950 . S
C1081 C1079 1.387 . S
C1081 C1083 1.390 . S
C1081 H1085 0.950 . S
H1082 C1078 0.950 . S
C1083 C1081 1.390 . S
C1083 C1084 1.387 . S
C1083 H1086 0.950 . S
C1084 C1083 1.387 . S
C1084 C1087 1.387 . S
H1085 C1081 0.950 . S
H1086 C1083 0.950 . S
C1087 C1078 1.390 . S
C1087 H1080 0.950 . S
C1087 C1084 1.387 . S
C1088 C1089 1.387 . S
C1088 H1092 0.950 . S
C1088 C1097 1.390 1_655 S
C1089 C1088 1.387 . S
C1089 C1091 1.387 . S
H1090 C1097 0.950 . S
C1091 C1089 1.387 . S
C1091 C1093 1.390 1_655 S
C1091 H1095 0.950 . S
H1092 C1088 0.950 . S
C1093 C1091 1.390 1_455 S
C1093 C1094 1.387 . S
C1093 H1096 0.950 . S
C1094 C1093 1.387 . S
C1094 C1097 1.387 . S
H1095 C1091 0.950 . S
H1096 C1093 0.950 . S
C1097 C1088 1.390 1_455 S
C1097 H1090 0.950 . S
C1097 C1094 1.387 . S
C1098 C1099 1.387 . S
C1098 H1102 0.950 . S
C1098 C1107 1.390 1_565 S
C1099 C1098 1.387 . S
C1099 C1101 1.387 . S
H1100 C1107 0.950 . S
C1101 C1099 1.387 . S
C1101 C1103 1.390 1_565 S
C1101 H1105 0.950 . S
H1102 C1098 0.950 . S
C1103 C1101 1.390 1_545 S
C1103 C1104 1.387 . S
C1103 H1106 0.950 . S
C1104 C1103 1.387 . S
C1104 C1107 1.387 . S
H1105 C1101 0.950 . S
H1106 C1103 0.950 . S
C1107 C1098 1.390 1_545 S
C1107 H1100 0.950 . S
C1107 C1104 1.387 . S
C1108 C1109 1.387 . S
C1108 H1112 0.950 . S
C1108 C1117 1.390 . S
C1109 C1108 1.387 . S
C1109 C1111 1.387 . S
H1110 C1117 0.950 . S
C1111 C1109 1.387 . S
C1111 C1113 1.390 . S
C1111 H1115 0.950 . S
H1112 C1108 0.950 . S
C1113 C1111 1.390 . S
C1113 C1114 1.387 . S
C1113 H1116 0.950 . S
C1114 C1113 1.387 . S
C1114 C1117 1.387 . S
H1115 C1111 0.950 . S
H1116 C1113 0.950 . S
C1117 C1108 1.390 . S
C1117 H1110 0.950 . S
C1117 C1114 1.387 . S
C1118 C1119 1.387 . S
C1118 H1122 0.950 . S
C1118 C1127 1.390 1_655 S
C1119 C1118 1.387 . S
C1119 C1121 1.387 . S
H1120 C1127 0.950 . S
C1121 C1119 1.387 . S
C1121 C1123 1.390 1_655 S
C1121 H1125 0.950 . S
H1122 C1118 0.950 . S
C1123 C1121 1.390 1_455 S
C1123 C1124 1.387 . S
C1123 H1126 0.950 . S
C1124 C1123 1.387 . S
C1124 C1127 1.387 . S
H1125 C1121 0.950 . S
H1126 C1123 0.950 . S
C1127 C1118 1.390 1_455 S
C1127 H1120 0.950 . S
C1127 C1124 1.387 . S
C1128 C1129 1.387 . S
C1128 H1132 0.950 . S
C1128 C1137 1.390 1_556 S
C1129 C1128 1.387 . S
C1129 C1131 1.387 . S
H1130 C1137 0.950 . S
C1131 C1129 1.387 . S
C1131 C1133 1.390 1_556 S
C1131 H1135 0.950 . S
H1132 C1128 0.950 . S
C1133 C1131 1.390 1_554 S
C1133 C1134 1.387 . S
C1133 H1136 0.950 . S
C1134 C1133 1.387 . S
C1134 C1137 1.387 . S
H1135 C1131 0.950 . S
H1136 C1133 0.950 . S
C1137 C1128 1.390 1_554 S
C1137 H1130 0.950 . S
C1137 C1134 1.387 . S
C1138 C1139 1.387 . S
C1138 H1142 0.950 . S
C1138 C1147 1.390 . S
C1139 C1138 1.387 . S
C1139 C1141 1.387 . S
H1140 C1147 0.950 . S
C1141 C1139 1.387 . S
C1141 C1143 1.390 . S
C1141 H1145 0.950 . S
H1142 C1138 0.950 . S
C1143 C1141 1.390 . S
C1143 C1144 1.387 . S
C1143 H1146 0.950 . S
C1144 C1143 1.387 . S
C1144 C1147 1.387 . S
H1145 C1141 0.950 . S
H1146 C1143 0.950 . S
C1147 C1138 1.390 . S
C1147 H1140 0.950 . S
C1147 C1144 1.387 . S
C1148 C1149 1.387 . S
C1148 H1152 0.950 . S
C1148 C1157 1.390 . S
C1149 C1148 1.387 . S
C1149 C1151 1.387 1_554 S
H1150 C1157 0.950 . S
C1151 C1149 1.387 1_556 S
C1151 C1153 1.390 . S
C1151 H1155 0.950 . S
H1152 C1148 0.950 . S
C1153 C1151 1.390 . S
C1153 C1154 1.387 . S
C1153 H1156 0.950 . S
C1154 C1153 1.387 . S
C1154 C1157 1.387 1_556 S
H1155 C1151 0.950 . S
H1156 C1153 0.950 . S
C1157 C1148 1.390 . S
C1157 H1150 0.950 . S
C1157 C1154 1.387 1_554 S
C1158 C1159 1.387 . S
C1158 H1162 0.950 . S
C1158 C1167 1.390 . S
C1159 C1158 1.387 . S
C1159 C1161 1.387 . S
H1160 C1167 0.950 . S
C1161 C1159 1.387 . S
C1161 C1163 1.390 . S
C1161 H1165 0.950 . S
H1162 C1158 0.950 . S
C1163 C1161 1.390 . S
C1163 C1164 1.387 . S
C1163 H1166 0.950 . S
C1164 C1163 1.387 . S
C1164 C1167 1.387 . S
H1165 C1161 0.950 . S
H1166 C1163 0.950 . S
C1167 C1158 1.390 . S
C1167 H1160 0.950 . S
C1167 C1164 1.387 . S
C1168 C1169 1.387 . S
C1168 H1172 0.950 . S
C1168 C1177 1.390 . S
C1169 C1168 1.387 . S
C1169 C1171 1.387 1_556 S
H1170 C1177 0.950 . S
C1171 C1169 1.387 1_554 S
C1171 C1173 1.390 . S
C1171 H1175 0.950 . S
H1172 C1168 0.950 . S
C1173 C1171 1.390 . S
C1173 C1174 1.387 . S
C1173 H1176 0.950 . S
C1174 C1173 1.387 . S
C1174 C1177 1.387 1_554 S
H1175 C1171 0.950 . S
H1176 C1173 0.950 . S
C1177 C1168 1.390 . S
C1177 H1170 0.950 . S
C1177 C1174 1.387 1_556 S
C1178 C1179 1.387 . S
C1178 H1182 0.950 . S
C1178 C1187 1.390 . S
C1179 C1178 1.387 . S
C1179 C1181 1.387 . S
H1180 C1187 0.950 . S
C1181 C1179 1.387 . S
C1181 C1183 1.390 . S
C1181 H1185 0.950 . S
H1182 C1178 0.950 . S
C1183 C1181 1.390 . S
C1183 C1184 1.387 . S
C1183 H1186 0.950 . S
C1184 C1183 1.387 . S
C1184 C1187 1.387 . S
H1185 C1181 0.950 . S
H1186 C1183 0.950 . S
C1187 C1178 1.390 . S
C1187 H1180 0.950 . S
C1187 C1184 1.387 . S
C1188 C1189 1.387 . S
C1188 H1192 0.950 . S
C1188 C1197 1.390 1_554 S
C1189 C1188 1.387 . S
C1189 C1191 1.387 . S
H1190 C1197 0.950 . S
C1191 C1189 1.387 . S
C1191 C1193 1.390 1_554 S
C1191 H1195 0.950 . S
H1192 C1188 0.950 . S
C1193 C1191 1.390 1_556 S
C1193 C1194 1.387 . S
C1193 H1196 0.950 . S
C1194 C1193 1.387 . S
C1194 C1197 1.387 . S
H1195 C1191 0.950 . S
H1196 C1193 0.950 . S
C1197 C1188 1.390 1_556 S
C1197 H1190 0.950 . S
C1197 C1194 1.387 . S
C1198 C1199 1.387 . S
C1198 H1202 0.950 . S
C1198 C1207 1.390 . S
C1199 C1198 1.387 . S
C1199 C1201 1.387 . S
H1200 C1207 0.950 . S
C1201 C1199 1.387 . S
C1201 C1203 1.390 . S
C1201 H1205 0.950 . S
H1202 C1198 0.950 . S
C1203 C1201 1.390 . S
C1203 C1204 1.387 . S
C1203 H1206 0.950 . S
C1204 C1203 1.387 . S
C1204 C1207 1.387 . S
H1205 C1201 0.950 . S
H1206 C1203 0.950 . S
C1207 C1198 1.390 . S
C1207 H1200 0.950 . S
C1207 C1204 1.387 . S
C1208 C1209 1.387 . S
C1208 H1212 0.950 . S
C1208 C1217 1.390 1_554 S
C1209 C1208 1.387 . S
C1209 C1211 1.387 . S
H1210 C1217 0.950 . S
C1211 C1209 1.387 . S
C1211 C1213 1.390 1_554 S
C1211 H1215 0.950 . S
H1212 C1208 0.950 . S
C1213 C1211 1.390 1_556 S
C1213 C1214 1.387 . S
C1213 H1216 0.950 . S
C1214 C1213 1.387 . S
C1214 C1217 1.387 . S
H1215 C1211 0.950 . S
H1216 C1213 0.950 . S
C1217 C1208 1.390 1_556 S
C1217 H1210 0.950 . S
C1217 C1214 1.387 . S
C1218 C1219 1.387 . S
C1218 H1222 0.950 . S
C1218 C1227 1.390 . S
C1219 C1218 1.387 . S
C1219 C1221 1.387 . S
H1220 C1227 0.950 . S
C1221 C1219 1.387 . S
C1221 C1223 1.390 . S
C1221 H1225 0.950 . S
H1222 C1218 0.950 . S
C1223 C1221 1.390 . S
C1223 C1224 1.387 . S
C1223 H1226 0.950 . S
C1224 C1223 1.387 . S
C1224 C1227 1.387 . S
H1225 C1221 0.950 . S
H1226 C1223 0.950 . S
C1227 C1218 1.390 . S
C1227 H1220 0.950 . S
C1227 C1224 1.387 . S
C1228 C1229 1.387 1_556 S
C1228 H1232 0.950 . S
C1228 C1237 1.390 . S
C1229 C1228 1.387 1_554 S
C1229 C1231 1.387 . S
H1230 C1237 0.950 . S
C1231 C1229 1.387 . S
C1231 C1233 1.390 . S
C1231 H1235 0.950 . S
H1232 C1228 0.950 . S
C1233 C1231 1.390 . S
C1233 C1234 1.387 1_554 S
C1233 H1236 0.950 . S
C1234 C1233 1.387 1_556 S
C1234 C1237 1.387 . S
H1235 C1231 0.950 . S
H1236 C1233 0.950 . S
C1237 C1228 1.390 . S
C1237 H1230 0.950 . S
C1237 C1234 1.387 . S
C1238 C1239 1.387 . S
C1238 H1242 0.950 . S
C1238 C1247 1.390 . S
C1239 C1238 1.387 . S
C1239 C1241 1.387 . S
H1240 C1247 0.950 . S
C1241 C1239 1.387 . S
C1241 C1243 1.390 . S
C1241 H1245 0.950 . S
H1242 C1238 0.950 . S
C1243 C1241 1.390 . S
C1243 C1244 1.387 . S
C1243 H1246 0.950 . S
C1244 C1243 1.387 . S
C1244 C1247 1.387 . S
H1245 C1241 0.950 . S
H1246 C1243 0.950 . S
C1247 C1238 1.390 . S
C1247 H1240 0.950 . S
C1247 C1244 1.387 . S
C529 C184 1.310 . S
C534 C4 1.307 . S
C539 C26 1.308 . S
C544 C206 1.308 . S
C549 C228 1.309 . S
C554 C48 1.310 . S
C559 C70 1.309 . S
C564 C250 1.310 . S
C569 C140 1.310 . S
C574 C92 1.310 . S
C579 C162 1.309 . S
C584 C114 1.310 . S
C589 C272 1.310 . S
C594 C444 1.307 . S
C599 C466 1.310 . S
C604 C294 1.310 . S
C609 C488 1.307 . S
C614 C316 1.309 . S
C619 C338 1.311 . S
C624 C510 1.307 . S
C629 C360 1.310 . S
C634 C400 1.310 . S
C639 C422 1.307 . S
C644 C382 1.309 . S
C649 C9 1.181 . S
C654 C52 1.186 . S
C659 C74 1.185 . S
C664 C31 1.182 . S
C669 C53 1.181 . S
C674 C96 1.185 . S
C679 C75 1.181 . S
C684 C118 1.186 . S
C689 C8 1.189 . S
C694 C97 1.184 . S
C699 C30 1.185 . S
C704 C119 1.181 . S
C709 C224 1.188 . S
C714 C137 1.184 . S
C719 C159 1.184 . S
C724 C246 1.189 . S
C729 C181 1.184 . S
C734 C136 1.189 . S
C739 C158 1.185 . S
C744 C203 1.181 . S
C749 C180 1.189 . S
C754 C225 1.184 . S
C759 C202 1.186 . S
C764 C247 1.181 . S
C769 C312 1.186 . S
C774 C270 1.181 . S
C779 C292 1.182 . S
C784 C334 1.185 . S
C789 C314 1.184 . S
C794 C356 1.189 . S
C799 C336 1.181 . S
C804 C378 1.186 . S
C809 C268 1.189 . S
C814 C358 1.184 . S
C819 C290 1.185 . S
C824 C380 1.181 . S
C829 C403 1.181 . S
C834 C492 1.186 . S
C839 C425 1.184 . S
C844 C514 1.189 . S
C849 C447 1.184 . S
C854 C404 1.189 . S
C859 C469 1.181 . S
C864 C426 1.186 . S
C869 C448 1.186 . S
C874 C491 1.181 . S
C879 C470 1.189 . S
C884 C513 1.184 . S
C889 C7 1.473 . S
C894 C335 1.473 . S
C899 C357 1.473 . S
C904 C29 1.473 . S
C909 C51 1.473 . S
C914 C379 1.473 . S
C919 C73 1.473 . S
C924 C269 1.473 . S
C929 C291 1.473 . S
C934 C95 1.473 . S
C939 C117 1.474 . S
C944 C313 1.473 . S
C949 C138 1.474 . S
C954 C471 1.473 . S
C959 C493 1.473 . S
C964 C160 1.473 . S
C969 C182 1.474 . S
C974 C515 1.473 . S
C979 C204 1.474 . S
C984 C405 1.473 . S
C989 C427 1.474 . S
C994 C226 1.473 . S
C999 C449 1.474 . S
C1004 C248 1.473 . S
C1009 C446 1.397 . S
C1014 C5 1.394 . S
C1019 C468 1.397 . S
C1024 C27 1.394 . S
C1029 C490 1.394 . S
C1034 C49 1.396 . S
C1039 C512 1.397 . S
C1044 C71 1.394 . S
C1049 C402 1.394 . S
C1054 C93 1.397 . S
C1059 C115 1.394 . S
C1064 C424 1.396 . S
C1069 C141 1.397 . S
C1074 C359 1.394 . S
C1079 C381 1.394 . S
C1084 C163 1.396 . S
C1089 C271 1.394 . S
C1094 C185 1.397 . S
C1099 C293 1.397 . S
C1104 C207 1.394 . S
C1109 C229 1.396 . S
C1114 C315 1.394 . S
C1119 C251 1.397 . S
C1124 C337 1.394 . S
C1129 C227 1.360 . S
C1134 C6 1.360 . S
C1139 C249 1.357 . S
C1144 C28 1.361 . S
C1149 C50 1.357 . S
C1154 C139 1.360 . S
C1159 C72 1.357 . S
C1164 C161 1.357 . S
C1169 C183 1.357 . S
C1174 C94 1.361 . S
C1179 C116 1.360 . S
C1184 C205 1.359 . S
C1189 C489 1.360 . S
C1194 C273 1.360 . S
C1199 C511 1.357 . S
C1204 C295 1.359 . S
C1209 C401 1.357 . S
C1214 C317 1.357 . S
C1219 C339 1.357 . S
C1224 C423 1.357 . S
C1229 C445 1.357 . S
C1234 C361 1.361 . S
C1239 C383 1.358 . S
C1244 C467 1.361 . S
