# Generated by pormake.
# Topology vby, (6)-cn, num edge types: 1
# Building blocks:
#     Node 0, Type 0, BuildingBlock: JUFBIX_clean_sbu_0, # of connection points: 6
#     Node 1, Type 0, BuildingBlock: JUFBIX_clean_sbu_0, # of connection points: 6
#     Node 2, Type 0, BuildingBlock: JUFBIX_clean_sbu_0, # of connection points: 6
#     Node 3, Type 0, BuildingBlock: JUFBIX_clean_sbu_0, # of connection points: 6
#     Node 4, Type 0, BuildingBlock: JUFBIX_clean_sbu_0, # of connection points: 6
#     Node 5, Type 0, BuildingBlock: JUFBIX_clean_sbu_0, # of connection points: 6
#     Node 6, Type 0, BuildingBlock: JUFBIX_clean_sbu_0, # of connection points: 6
#     Node 7, Type 0, BuildingBlock: JUFBIX_clean_sbu_0, # of connection points: 6
#     Edge 8, Type (0, 0), BuildingBlock: KIFKEQ_clean_linker_1, # of connection points: 2
#     Edge 9, Type (0, 0), BuildingBlock: KIFKEQ_clean_linker_1, # of connection points: 2
#     Edge 10, Type (0, 0), BuildingBlock: KIFKEQ_clean_linker_1, # of connection points: 2
#     Edge 11, Type (0, 0), BuildingBlock: KIFKEQ_clean_linker_1, # of connection points: 2
#     Edge 12, Type (0, 0), BuildingBlock: KIFKEQ_clean_linker_1, # of connection points: 2
#     Edge 13, Type (0, 0), BuildingBlock: KIFKEQ_clean_linker_1, # of connection points: 2
#     Edge 14, Type (0, 0), BuildingBlock: KIFKEQ_clean_linker_1, # of connection points: 2
#     Edge 15, Type (0, 0), BuildingBlock: KIFKEQ_clean_linker_1, # of connection points: 2
#     Edge 16, Type (0, 0), BuildingBlock: KIFKEQ_clean_linker_1, # of connection points: 2
#     Edge 17, Type (0, 0), BuildingBlock: KIFKEQ_clean_linker_1, # of connection points: 2
#     Edge 18, Type (0, 0), BuildingBlock: KIFKEQ_clean_linker_1, # of connection points: 2
#     Edge 19, Type (0, 0), BuildingBlock: KIFKEQ_clean_linker_1, # of connection points: 2
#     Edge 20, Type (0, 0), BuildingBlock: KIFKEQ_clean_linker_1, # of connection points: 2
#     Edge 21, Type (0, 0), BuildingBlock: KIFKEQ_clean_linker_1, # of connection points: 2
#     Edge 22, Type (0, 0), BuildingBlock: KIFKEQ_clean_linker_1, # of connection points: 2
#     Edge 23, Type (0, 0), BuildingBlock: KIFKEQ_clean_linker_1, # of connection points: 2
#     Edge 24, Type (0, 0), BuildingBlock: KIFKEQ_clean_linker_1, # of connection points: 2
#     Edge 25, Type (0, 0), BuildingBlock: KIFKEQ_clean_linker_1, # of connection points: 2
#     Edge 26, Type (0, 0), BuildingBlock: KIFKEQ_clean_linker_1, # of connection points: 2
#     Edge 27, Type (0, 0), BuildingBlock: KIFKEQ_clean_linker_1, # of connection points: 2
#     Edge 28, Type (0, 0), BuildingBlock: KIFKEQ_clean_linker_1, # of connection points: 2
#     Edge 29, Type (0, 0), BuildingBlock: KIFKEQ_clean_linker_1, # of connection points: 2
#     Edge 30, Type (0, 0), BuildingBlock: KIFKEQ_clean_linker_1, # of connection points: 2
#     Edge 31, Type (0, 0), BuildingBlock: KIFKEQ_clean_linker_1, # of connection points: 2
# Relax obj value: 0.150
# Max RMSD: 0.157
# Mean RMSD: 0.157
data_MOF--net-vby--node1-JUFBIX_clean_sbu_0--edge1-KIFKEQ_clean_linker_1
_symmetry_space_group_name_H-M    P1
_symmetry_Int_Tables_number       1
_symmetry_cell_setting            triclinic
loop_
_symmetry_equiv_pos_as_xyz
'x, y, z'
_cell_length_a     19.660937
_cell_length_b     56.399058
_cell_length_c     29.448109
_cell_angle_alpha  89.920106
_cell_angle_beta   93.752268
_cell_angle_gamma 89.946779
loop_
_atom_site_label
_atom_site_type_symbol
_atom_site_fract_x
_atom_site_fract_y
_atom_site_fract_z
_atom_type_partial_charge
Co0 Co 0.03416 0.37421 0.02079 0.0
C1 C 0.0985 0.37774 0.94073 0.0
Co2 Co 0.1399 0.38689 0.03118 0.0
C3 C 0.88817 0.37275 0.02439 0.0
C4 C 0.92588 0.34417 0.98543 0.0
N5 N 0.94613 0.36316 1.01051 0.0
N6 N 0.83229 0.36056 1.00878 0.0
C7 C 0.85603 0.34252 0.9843 0.0
H8 H 0.88726 0.38842 0.04549 0.0
H9 H 0.95968 0.33257 0.96822 0.0
C10 C 0.06813 0.3834 0.11076 0.0
N11 N 0.22802 0.39803 0.04154 0.0
C12 C 0.28652 0.38828 0.02885 0.0
C13 C 0.24757 0.41739 0.0658 0.0
N14 N 0.34197 0.40071 0.04444 0.0
C15 C 0.3174 0.41912 0.06755 0.0
C16 C 0.04872 0.42336 1.01511 0.0
O17 O 0.02203 0.37576 0.08259 0.0
O18 O 0.12566 0.3893 0.09631 0.0
O19 O 0.11033 0.41748 0.02256 0.0
O20 O 1.00294 0.40726 1.01371 0.0
O21 O 0.1507 0.38453 0.96549 0.0
H22 H 0.21323 0.42933 0.08171 0.0
H23 H 0.28828 0.37196 1.0097 0.0
O24 O 0.0443 0.37259 0.95917 0.0
O25 O 0.06857 0.34162 0.02769 0.0
O26 O 0.17142 0.3561 0.03978 0.0
C27 C 0.13245 0.33831 0.03622 0.0
H28 H 0.82518 0.32944 0.96569 0.0
H29 H 0.34753 0.4329 0.08461 0.0
Co30 Co 0.90161 0.6344 0.02257 0.0
C31 C 0.96597 0.64325 0.94127 0.0
Co32 Co 1.00501 0.64992 0.03144 0.0
C33 C 0.75469 0.63203 0.02758 0.0
C34 C 0.79294 0.60405 0.98743 0.0
N35 N 0.81309 0.62273 1.01344 0.0
N36 N 0.69873 0.62013 1.01094 0.0
C37 C 0.72303 0.60237 0.98592 0.0
H38 H 0.75328 0.64782 0.04828 0.0
H39 H 0.82679 0.59275 0.96963 0.0
C40 C 0.94859 0.64074 0.1131 0.0
N41 N 0.0933 0.66158 0.04034 0.0
C42 C 0.1511 0.65202 0.02586 0.0
C43 C 0.11429 0.68028 0.06598 0.0
N44 N 0.20757 0.66384 0.0418 0.0
C45 C 0.18428 0.68174 0.06691 0.0
C46 C 0.90201 0.68381 0.02519 0.0
O47 O 0.8969 0.63316 0.08874 0.0
O48 O 0.99917 0.64898 0.09393 0.0
O49 O 0.9669 0.68206 0.02995 0.0
O50 O 0.86693 0.66508 0.02104 0.0
O51 O 1.01239 0.65089 0.96923 0.0
H52 H 0.08102 0.69165 0.08412 0.0
H53 H 0.15156 0.63645 1.00448 0.0
O54 O 0.91072 0.63542 0.95645 0.0
O55 O 0.93477 0.60391 0.02449 0.0
O56 O 0.03968 0.61727 0.03276 0.0
C57 C 0.99793 0.59993 0.0295 0.0
H58 H 0.69267 0.58918 0.96727 0.0
H59 H 0.21555 0.69445 0.08618 0.0
Co60 Co 0.1515 0.63086 0.53208 0.0
C61 C 0.08342 0.64211 0.61104 0.0
Co62 Co 0.0454 0.64305 0.52014 0.0
C63 C 0.29813 0.62838 0.52846 0.0
C64 C 0.26007 0.60371 0.57584 0.0
N65 N 0.23994 0.62034 0.54488 0.0
N66 N 0.35393 0.61755 0.5482 0.0
C67 C 0.32985 0.60189 0.57784 0.0
H68 H 0.29945 0.64253 0.50371 0.0
H69 H 0.22624 0.59392 0.59648 0.0
C70 C 0.10537 0.6308 0.441 0.0
N71 N 0.95707 0.65345 0.5075 0.0
C72 C 0.89937 0.64504 0.52393 0.0
C73 C 0.93625 0.67027 0.47713 0.0
N74 N 0.84311 0.65582 0.50478 0.0
C75 C 0.86634 0.67178 0.47539 0.0
C76 C 0.14422 0.67902 0.51952 0.0
O77 O 0.15914 0.62654 0.4665 0.0
O78 O 0.05273 0.63845 0.45852 0.0
O79 O 0.07987 0.67561 0.51523 0.0
O80 O 0.18318 0.66153 0.52794 0.0
O81 O 0.03576 0.64739 0.58182 0.0
H82 H 0.96967 0.68031 0.45658 0.0
H83 H 0.89888 0.63111 0.54921 0.0
O84 O 0.14026 0.63494 0.5973 0.0
O85 O 0.12174 0.60029 0.53604 0.0
O86 O 1.01429 0.61011 0.52518 0.0
C87 C 0.05999 0.59419 0.53255 0.0
H88 H 0.36029 0.59006 0.59982 0.0
H89 H 0.83512 0.68316 0.45295 0.0
Co90 Co 0.99347 0.36827 0.52926 0.0
C91 C 0.93749 0.37299 0.61215 0.0
Co92 Co 0.88945 0.38315 0.52305 0.0
C93 C 0.14021 0.36738 0.52719 0.0
C94 C 0.10137 0.33491 0.55274 0.0
N95 N 0.08163 0.35631 0.53606 0.0
N96 N 0.19555 0.35377 0.5377 0.0
C97 C 0.17131 0.33326 0.55355 0.0
H98 H 0.14236 0.38511 0.51326 0.0
H99 H 0.06731 0.32151 0.56448 0.0
C100 C 0.95377 0.37844 0.44056 0.0
N101 N 0.80143 0.395 0.51581 0.0
C102 C 0.7439 0.38597 0.53157 0.0
C103 C 0.78037 0.41334 0.48912 0.0
N104 N 0.68736 0.39773 0.51529 0.0
C105 C 0.71062 0.41506 0.48869 0.0
C106 C 0.98414 0.41793 0.53555 0.0
O107 O 1.00094 0.37018 0.46724 0.0
O108 O 0.89818 0.38506 0.45697 0.0
O109 O 0.92157 0.41328 0.52948 0.0
O110 O 0.02745 0.40099 0.53614 0.0
O111 O 0.88505 0.38136 0.58952 0.0
H112 H 0.81344 0.4242 0.46978 0.0
H113 H 0.74385 0.37063 0.55364 0.0
O114 O 0.98809 0.3662 0.59125 0.0
O115 O 0.95548 0.33616 0.52256 0.0
O116 O 0.85489 0.35284 0.5168 0.0
C117 C 0.89065 0.33423 0.51782 0.0
H118 H 0.20206 0.31842 0.56616 0.0
H119 H 0.67963 0.42755 0.46856 0.0
Co120 Co 0.53901 0.87349 0.01886 0.0
C121 C 0.60357 0.87706 0.93901 0.0
Co122 Co 0.64459 0.88638 0.02946 0.0
C123 C 0.39302 0.87198 0.02265 0.0
C124 C 0.43057 0.8434 0.98361 0.0
N125 N 0.45093 0.8624 1.00865 0.0
N126 N 0.33706 0.85981 1.00715 0.0
C127 C 0.36071 0.84176 0.98262 0.0
H128 H 0.39221 0.88766 0.04375 0.0
H129 H 0.46429 0.8318 0.96635 0.0
C130 C 0.57279 0.88292 0.10885 0.0
N131 N 0.7327 0.89757 0.0398 0.0
C132 C 0.79121 0.88777 0.02724 0.0
C133 C 0.75227 0.91697 0.06394 0.0
N134 N 0.8467 0.90019 0.04281 0.0
C135 C 0.82213 0.91865 0.06577 0.0
C136 C 0.55302 0.92266 1.01309 0.0
O137 O 0.52688 0.87508 0.08073 0.0
O138 O 0.63023 0.88891 0.09441 0.0
O139 O 0.61475 0.91694 0.02064 0.0
O140 O 0.50761 0.90644 1.01166 0.0
O141 O 0.65553 0.88393 0.96388 0.0
H142 H 0.71794 0.92895 0.07975 0.0
H143 H 0.79296 0.8714 1.00821 0.0
O144 O 0.54925 0.87184 0.95727 0.0
O145 O 0.57361 0.84099 0.02573 0.0
O146 O 0.67627 0.85561 0.03829 0.0
C147 C 0.63748 0.83778 0.03448 0.0
H148 H 0.32978 0.82867 0.96408 0.0
H149 H 0.85229 0.93244 0.08279 0.0
Co150 Co 0.38893 0.13348 0.02508 0.0
C151 C 0.44802 0.14347 0.942 0.0
Co152 Co 0.49294 0.14848 0.0311 0.0
C153 C 0.24364 0.12986 0.03454 0.0
C154 C 0.27968 0.10436 0.98808 0.0
N155 N 0.301 0.12158 1.01725 0.0
N156 N 0.18696 0.11876 1.01676 0.0
C157 C 0.20994 0.10258 0.98768 0.0
H158 H 0.2437 0.14428 0.05871 0.0
H159 H 0.31248 0.09445 0.96689 0.0
C160 C 0.44249 0.13752 0.1142 0.0
N161 N 0.5813 0.16047 0.03842 0.0
C162 C 0.63994 0.1497 0.02849 0.0
C163 C 0.60121 0.18141 0.05707 0.0
N164 N 0.69534 0.16298 0.04031 0.0
C165 C 0.67117 0.18304 0.05804 0.0
C166 C 0.38908 0.18252 0.03013 0.0
O167 O 0.38739 0.1318 0.09135 0.0
O168 O 0.49223 0.14549 0.09373 0.0
O169 O 0.45393 0.18047 0.03383 0.0
O170 O 0.35333 0.16399 0.02509 0.0
O171 O 0.49582 0.15124 0.96873 0.0
H172 H 0.56738 0.19446 0.07025 0.0
H173 H 0.64225 0.13236 1.01299 0.0
O174 O 0.39483 0.13494 0.95876 0.0
O175 O 0.4225 0.10301 0.02552 0.0
O176 O 0.52775 0.11602 0.02809 0.0
C177 C 0.4856 0.09881 0.02681 0.0
H178 H 0.17871 0.091 0.96577 0.0
H179 H 0.70197 0.19748 0.07218 0.0
Co180 Co 0.63879 0.13219 0.53452 0.0
C181 C 0.56496 0.13742 0.61252 0.0
Co182 Co 0.53272 0.14416 0.52113 0.0
C183 C 0.78542 0.13087 0.53277 0.0
C184 C 0.7471 0.10313 0.5736 0.0
N185 N 0.72715 0.1216 0.54681 0.0
N186 N 0.84113 0.11901 0.5499 0.0
C187 C 0.81696 0.10146 0.57549 0.0
H188 H 0.78679 0.14645 0.51135 0.0
H189 H 0.71299 0.09173 0.591 0.0
C190 C 0.5996 0.13886 0.44261 0.0
N191 N 0.44441 0.15464 0.50892 0.0
C192 C 0.38658 0.14544 0.52372 0.0
C193 C 0.42388 0.17285 0.48165 0.0
N194 N 0.3305 0.1571 0.50664 0.0
C195 C 0.35398 0.17441 0.48017 0.0
C196 C 0.6291 0.18065 0.53414 0.0
O197 O 0.65087 0.1326 0.46885 0.0
O198 O 0.5446 0.14453 0.45956 0.0
O199 O 0.5655 0.17691 0.52544 0.0
O200 O 0.66895 0.16317 0.53985 0.0
O201 O 0.51893 0.14388 0.58305 0.0
H202 H 0.45756 0.184 0.46335 0.0
H203 H 0.38592 0.13045 0.54667 0.0
O204 O 0.62343 0.13166 0.59945 0.0
O205 O 0.61057 0.1014 0.52924 0.0
O206 O 0.50313 0.1109 0.51645 0.0
C207 C 0.54961 0.09506 0.52081 0.0
H208 H 0.84737 0.08827 0.59424 0.0
H209 H 0.32295 0.18694 0.46013 0.0
Co210 Co 0.50056 0.86882 0.52697 0.0
C211 C 0.44482 0.87349 0.61026 0.0
Co212 Co 0.39644 0.88377 0.5217 0.0
C213 C 0.64648 0.86689 0.52065 0.0
C214 C 0.6092 0.83715 0.55667 0.0
N215 N 0.58859 0.85687 0.5338 0.0
N216 N 0.70263 0.85435 0.53476 0.0
C217 C 0.67909 0.83553 0.55728 0.0
H218 H 0.64728 0.8833 0.50161 0.0
H219 H 0.57576 0.82515 0.57325 0.0
C220 C 0.46016 0.87916 0.43876 0.0
N221 N 0.30825 0.89579 0.51476 0.0
C222 C 0.24959 0.88562 0.52632 0.0
C223 C 0.28867 0.91604 0.49331 0.0
N224 N 0.1941 0.8986 0.51255 0.0
C225 C 0.21883 0.91785 0.49202 0.0
C226 C 0.49258 0.91836 0.53326 0.0
O227 O 0.50682 0.87016 0.46492 0.0
O228 O 0.40552 0.88639 0.4557 0.0
O229 O 0.42953 0.91407 0.52964 0.0
O230 O 0.53507 0.90128 0.5321 0.0
O231 O 0.39148 0.88129 0.58785 0.0
H232 H 0.32287 0.92845 0.47851 0.0
H233 H 0.24762 0.86853 0.54292 0.0
O234 O 0.49594 0.86739 0.58919 0.0
O235 O 0.46293 0.83686 0.52158 0.0
O236 O 0.36186 0.85324 0.51392 0.0
C237 C 0.39832 0.83475 0.51553 0.0
H238 H 0.71016 0.82205 0.57466 0.0
H239 H 0.18878 0.93219 0.47665 0.0
H240 H 0.39346 0.37361 0.97858 0.0
H241 H 0.45157 0.41462 0.0988 0.0
H242 H 0.51268 0.36361 0.97065 0.0
H243 H 0.57055 0.40486 0.09038 0.0
H244 H 0.77966 0.4036 0.02871 0.0
H245 H 0.66062 0.41323 0.03762 0.0
H246 H 0.60522 0.34024 1.01112 0.0
H247 H 0.72442 0.33046 1.00278 0.0
C248 C 0.43139 0.38038 1.00349 0.0
C249 C 0.4126 0.39497 0.0393 0.0
C250 C 0.49976 0.37466 0.9989 0.0
C251 C 0.55095 0.38347 0.02987 0.0
C252 C 0.53233 0.39808 0.06559 0.0
C253 C 0.464 0.40372 0.07032 0.0
C254 C 0.74243 0.3895 0.02535 0.0
C255 C 0.76192 0.36622 1.015 0.0
C256 C 0.67409 0.39506 0.03036 0.0
C257 C 0.62358 0.3775 0.02495 0.0
C258 C 0.64291 0.35423 1.0148 0.0
C259 C 0.71129 0.34864 1.01 0.0
H260 H 0.25827 0.62066 0.02013 0.0
H261 H 0.31798 0.69288 0.05104 0.0
H262 H 0.37704 0.61011 1.01288 0.0
H263 H 0.43695 0.68218 0.04421 0.0
H264 H 0.6468 0.64745 0.07669 0.0
H265 H 0.52789 0.65825 0.08356 0.0
H266 H 0.47015 0.61744 0.96327 0.0
H267 H 0.58862 0.60684 0.95595 0.0
C268 C 0.2964 0.63439 0.02491 0.0
C269 C 0.27802 0.65768 0.03618 0.0
C270 C 0.36473 0.62829 0.02085 0.0
C271 C 0.41662 0.64527 0.02808 0.0
C272 C 0.39838 0.66857 0.03913 0.0
C273 C 0.33 0.6747 0.04302 0.0
C274 C 0.60903 0.64088 0.05147 0.0
C275 C 0.62795 0.62617 1.0158 0.0
C276 C 0.54069 0.64711 0.05543 0.0
C277 C 0.48941 0.6387 0.02398 0.0
C278 C 0.50817 0.62394 0.98849 0.0
C279 C 0.57642 0.61781 0.98439 0.0
H280 H 0.73352 0.68469 0.48894 0.0
H281 H 0.79244 0.6146 0.53647 0.0
H282 H 0.61452 0.67515 0.49864 0.0
H283 H 0.67363 0.60529 0.54678 0.0
H284 H 0.46364 0.60854 0.60668 0.0
H285 H 0.58215 0.61773 0.59599 0.0
H286 H 0.52417 0.64823 0.46456 0.0
H287 H 0.40524 0.63869 0.47474 0.0
C288 C 0.72126 0.66722 0.50122 0.0
C289 C 0.77286 0.65043 0.51189 0.0
C290 C 0.65301 0.66177 0.50677 0.0
C291 C 0.6348 0.63947 0.52339 0.0
C292 C 0.68625 0.62274 0.53442 0.0
C293 C 0.75445 0.62813 0.52864 0.0
C294 C 0.47586 0.61689 0.57517 0.0
C295 C 0.42445 0.62277 0.54151 0.0
C296 C 0.54397 0.62222 0.56914 0.0
C297 C 0.56242 0.6337 0.52947 0.0
C298 C 0.51131 0.63964 0.49578 0.0
C299 C 0.44311 0.63417 0.50166 0.0
H300 H 0.57541 0.42526 0.49512 0.0
H301 H 0.63714 0.35663 0.54924 0.0
H302 H 0.45717 0.4144 0.49978 0.0
H303 H 0.5188 0.34649 0.55694 0.0
H304 H 0.29945 0.32497 0.51809 0.0
H305 H 0.41889 0.3358 0.51376 0.0
H306 H 0.37064 0.40802 0.54915 0.0
H307 H 0.25103 0.39718 0.55163 0.0
C308 C 0.56424 0.40789 0.50825 0.0
C309 C 0.61682 0.39183 0.52133 0.0
C310 C 0.49591 0.40176 0.51155 0.0
C311 C 0.47794 0.37951 0.52867 0.0
C312 C 0.53041 0.36364 0.54279 0.0
C313 C 0.59881 0.36965 0.53897 0.0
C314 C 0.31465 0.34313 0.52496 0.0
C315 C 0.26599 0.36025 0.53497 0.0
C316 C 0.38317 0.34936 0.52276 0.0
C317 C 0.40487 0.37282 0.53119 0.0
C318 C 0.35593 0.38989 0.54156 0.0
C319 C 0.28728 0.38371 0.54309 0.0
H320 H 0.89821 0.87291 0.9772 0.0
H321 H 0.95631 0.91412 0.09716 0.0
H322 H 1.0174 0.86283 0.96941 0.0
H323 H 0.07528 0.90427 0.0889 0.0
H324 H 0.28453 0.90284 0.02731 0.0
H325 H 0.16554 0.91249 0.03635 0.0
H326 H 0.10994 0.83953 1.00973 0.0
H327 H 0.2291 0.82973 1.00124 0.0
C328 C 0.93613 0.87971 1.00209 0.0
C329 C 0.91734 0.89439 0.03778 0.0
C330 C 1.0045 0.87394 0.99758 0.0
C331 C 0.05571 0.88278 0.02852 0.0
C332 C 0.03707 0.89746 0.06413 0.0
C333 C 0.96874 0.90315 0.06877 0.0
C334 C 0.24728 0.88875 0.02396 0.0
C335 C 0.26671 0.86547 1.01351 0.0
C336 C 0.17895 0.89432 0.02904 0.0
C337 C 0.12837 0.87678 0.02363 0.0
C338 C 0.14766 0.8535 1.01341 0.0
C339 C 0.21602 0.8479 1.00853 0.0
H340 H 0.07487 0.09188 0.99407 0.0
H341 H 0.13719 0.15895 0.05445 0.0
H342 H 0.95663 0.10282 0.99913 0.0
H343 H 0.01883 0.16911 0.06246 0.0
H344 H 0.80019 0.19204 0.02398 0.0
H345 H 0.91963 0.18109 0.01964 0.0
H346 H 0.86943 0.10818 0.04839 0.0
H347 H 0.74993 0.11918 0.05091 0.0
C348 C 0.06377 0.10891 1.00868 0.0
C349 C 0.11649 0.12454 0.02337 0.0
C350 C 0.99547 0.11508 1.01219 0.0
C351 C 0.97768 0.13692 0.03111 0.0
C352 C 0.0303 0.15231 0.04692 0.0
C353 C 0.09868 0.14627 0.04291 0.0
C354 C 0.81496 0.17371 0.02938 0.0
C355 C 0.76578 0.15645 0.03751 0.0
C356 C 0.88348 0.1674 0.02718 0.0
C357 C 0.90463 0.14371 0.03373 0.0
C358 C 0.85517 0.1265 0.04224 0.0
C359 C 0.78656 0.13278 0.04379 0.0
H360 H 0.2784 0.11482 0.53182 0.0
H361 H 0.22238 0.18709 0.49737 0.0
H362 H 0.15956 0.10567 0.54251 0.0
H363 H 0.10342 0.17776 0.5075 0.0
H364 H 0.89159 0.14378 0.48037 0.0
H365 H 1.01056 0.15325 0.47044 0.0
H366 H 0.07025 0.11593 0.59485 0.0
H367 H 0.9515 0.10671 0.60526 0.0
C368 C 0.24104 0.12884 0.52693 0.0
C369 C 0.26024 0.15172 0.5137 0.0
C370 C 0.17283 0.12355 0.53297 0.0
C371 C 0.12218 0.14098 0.52574 0.0
C372 C 0.14122 0.16386 0.51266 0.0
C373 C 0.20946 0.16919 0.50682 0.0
C374 C 0.92985 0.13777 0.50587 0.0
C375 C 0.91163 0.12444 0.54361 0.0
C376 C 0.99809 0.14319 0.50013 0.0
C377 C 0.04971 0.13531 0.53185 0.0
C378 C 0.03167 0.12195 0.56948 0.0
C379 C 0.96347 0.11663 0.57536 0.0
H380 H 0.75421 0.89831 0.52086 0.0
H381 H 0.81195 0.82476 0.53851 0.0
H382 H 0.87328 0.90898 0.51554 0.0
H383 H 0.93122 0.83554 0.53362 0.0
H384 H 0.14138 0.86828 0.57301 0.0
H385 H 0.02211 0.85735 0.57764 0.0
H386 H 0.96619 0.90383 0.46466 0.0
H387 H 0.08507 0.91459 0.45962 0.0
C388 C 0.792 0.88434 0.52309 0.0
C389 C 0.77309 0.86063 0.53011 0.0
C390 C 0.86044 0.8905 0.52015 0.0
C391 C 0.91179 0.87312 0.52429 0.0
C392 C 0.893 0.8494 0.53103 0.0
C393 C 0.82452 0.84323 0.5338 0.0
C394 C 0.10387 0.87606 0.54891 0.0
C395 C 0.12328 0.89239 0.51601 0.0
C396 C 0.0354 0.86977 0.55158 0.0
C397 C 0.98463 0.87973 0.52153 0.0
C398 C 1.0039 0.8961 0.48877 0.0
C399 C 0.07229 0.90232 0.48597 0.0
H400 H 0.07557 0.57669 0.97059 0.0
H401 H 0.96075 0.56703 0.08892 0.0
H402 H 0.08093 0.53369 0.96078 0.0
H403 H 0.96833 0.52411 0.08087 0.0
H404 H 0.93287 0.44893 0.03284 0.0
H405 H 0.92346 0.49237 0.03523 0.0
H406 H 0.12741 0.49845 0.98963 0.0
H407 H 0.13497 0.45589 0.98509 0.0
C408 C 0.05411 0.56526 0.99557 0.0
C409 C 0.0192 0.57499 0.03105 0.0
C410 C 0.05634 0.54062 0.9898 0.0
C411 C 0.02413 0.52528 0.01971 0.0
C412 C 0.9921 0.53524 0.05647 0.0
C413 C 0.98914 0.55981 0.06178 0.0
C414 C 0.97461 0.45969 0.0222 0.0
C415 C 0.03472 0.449 1.0092 0.0
C416 C 0.9699 0.48454 0.02422 0.0
C417 C 0.02525 0.49903 1.01332 0.0
C418 C 0.08354 0.48812 0.99797 0.0
C419 C 0.08798 0.46355 0.99569 0.0
H420 H 0.10119 0.44127 0.51367 0.0
H421 H 0.90599 0.45165 0.57013 0.0
H422 H 0.11776 0.4845 0.51304 0.0
H423 H 0.92235 0.49421 0.56955 0.0
H424 H 0.94031 0.56967 0.51018 0.0
H425 H 0.92502 0.52641 0.51232 0.0
H426 H 0.13326 0.51808 0.56632 0.0
H427 H 0.1486 0.56048 0.56418 0.0
C428 C 0.06268 0.45271 0.52668 0.0
C429 C 1.0023 0.44314 0.54161 0.0
C430 C 0.07171 0.47739 0.52606 0.0
C431 C 0.0205 0.49273 0.54042 0.0
C432 C 0.96175 0.48296 0.55712 0.0
C433 C 0.95287 0.45852 0.55783 0.0
C434 C 0.98235 0.55855 0.52281 0.0
C435 C 0.04556 0.56856 0.53668 0.0
C436 C 0.97385 0.53384 0.52397 0.0
C437 C 0.02846 0.51886 0.53895 0.0
C438 C 0.09083 0.52903 0.55364 0.0
C439 C 0.0992 0.55347 0.55267 0.0
H440 H 0.64167 0.95646 0.99071 0.0
H441 H 0.43217 0.94689 0.02296 0.0
H442 H 0.62865 0.99888 0.99388 0.0
H443 H 0.41778 0.99015 0.02398 0.0
H444 H 0.44072 0.06475 0.08089 0.0
H445 H 0.45296 0.02208 0.07255 0.0
H446 H 0.58234 0.0336 0.96128 0.0
H447 H 0.57192 0.07654 0.97137 0.0
C448 C 0.5921 0.96347 0.99773 0.0
C449 C 0.53808 0.94825 1.00732 0.0
C450 C 0.58457 0.98796 0.99911 0.0
C451 C 0.52249 0.9981 1.00967 0.0
C452 C 0.46692 0.98292 1.01671 0.0
C453 C 0.47466 0.95816 1.01558 0.0
C454 C 0.47316 0.05806 0.05541 0.0
C455 C 0.50634 0.07379 0.02721 0.0
C456 C 0.47905 0.03362 0.04998 0.0
C457 C 0.51748 0.02427 1.01567 0.0
C458 C 0.55262 0.04012 0.98832 0.0
C459 C 0.54736 0.06471 0.99423 0.0
H460 H 0.42959 0.06978 0.528 0.0
H461 H 0.64316 0.06177 0.50464 0.0
H462 H 0.41861 0.02638 0.53028 0.0
H463 H 0.63331 0.01937 0.50918 0.0
H464 H 0.58401 0.9416 0.48343 0.0
H465 H 0.59263 0.98461 0.47469 0.0
H466 H 0.45153 0.99437 0.57987 0.0
H467 H 0.4411 0.95152 0.58677 0.0
C468 C 0.47376 0.05883 0.52295 0.0
C469 C 0.53718 0.06924 0.51666 0.0
C470 C 0.46792 0.03401 0.52481 0.0
C471 C 0.52542 0.01929 0.52043 0.0
C472 C 0.58778 0.02991 0.51223 0.0
C473 C 0.59343 0.05442 0.51009 0.0
C474 C 0.5566 0.95305 0.50545 0.0
C475 C 0.51275 0.9434 0.53616 0.0
C476 C 0.5608 0.97769 0.50025 0.0
C477 C 0.52185 0.99307 0.52614 0.0
C478 C 0.48071 0.98319 0.55846 0.0
C479 C 0.47585 0.95866 0.56313 0.0
H480 H 0.08562 0.29598 0.99928 0.0
H481 H 0.25351 0.32708 0.08012 0.0
H482 H 0.14895 0.25862 0.99691 0.0
H483 H 0.31558 0.28992 0.07906 0.0
H484 H 0.44126 0.22815 0.02873 0.0
H485 H 0.37698 0.26538 0.0306 0.0
H486 H 0.19035 0.22578 0.0402 0.0
H487 H 0.25336 0.18914 0.03679 0.0
C488 C 0.13527 0.29467 1.01735 0.0
C489 C 0.16441 0.31448 0.03983 0.0
C490 C 0.17187 0.2733 1.01595 0.0
C491 C 0.2381 0.27123 0.03738 0.0
C492 C 0.26576 0.2909 0.06117 0.0
C493 C 0.22961 0.31218 0.06222 0.0
C494 C 0.38657 0.22749 0.03119 0.0
C495 C 0.35277 0.20561 0.0324 0.0
C496 C 0.34956 0.24881 0.03248 0.0
C497 C 0.27805 0.24869 0.03538 0.0
C498 C 0.24483 0.22674 0.037 0.0
C499 C 0.28147 0.2056 0.03538 0.0
H500 H 0.75443 0.82589 0.08268 0.0
H501 H 0.59581 0.79653 0.99139 0.0
H502 H 0.81884 0.78922 0.07984 0.0
H503 H 0.66159 0.75984 0.98696 0.0
H504 H 0.76485 0.68985 0.02214 0.0
H505 H 0.70009 0.72593 0.02642 0.0
H506 H 0.88672 0.76658 0.0325 0.0
H507 H 0.95284 0.72973 0.03021 0.0
C508 C 0.73305 0.81144 0.06218 0.0
C509 C 0.66974 0.81403 0.03746 0.0
C510 C 0.77059 0.79048 0.06004 0.0
C511 C 0.74631 0.77154 0.03268 0.0
C512 C 0.68187 0.77391 1.00883 0.0
C513 C 0.6438 0.79489 1.01142 0.0
C514 C 0.79271 0.7064 0.02438 0.0
C515 C 0.86457 0.70676 0.02595 0.0
C516 C 0.75502 0.72726 0.02643 0.0
C517 C 0.78763 0.74935 0.02964 0.0
C518 C 0.85965 0.74987 0.0307 0.0
C519 C 0.89774 0.72879 0.02905 0.0
H520 H 0.27131 0.68699 0.4937 0.0
H521 H 0.0918 0.72389 0.53288 0.0
H522 H 0.33239 0.7241 0.49063 0.0
H523 H 0.15424 0.76154 0.53109 0.0
H524 H 0.26757 0.82667 0.48414 0.0
H525 H 0.20445 0.78974 0.48289 0.0
H526 H 0.38401 0.75324 0.53944 0.0
H527 H 0.44817 0.79042 0.53946 0.0
C528 C 0.24479 0.70313 0.50182 0.0
C529 C 0.17669 0.70247 0.51393 0.0
C530 C 0.28024 0.72446 0.50039 0.0
C531 C 0.24897 0.74587 0.51135 0.0
C532 C 0.17998 0.74539 0.52219 0.0
C533 C 0.14403 0.72387 0.52325 0.0
C534 C 0.29397 0.81074 0.49608 0.0
C535 C 0.36317 0.8115 0.51188 0.0
C536 C 0.25733 0.78956 0.49573 0.0
C537 C 0.28863 0.76845 0.51137 0.0
C538 C 0.35828 0.7691 0.52659 0.0
C539 C 0.39524 0.79038 0.52666 0.0
H540 H 0.75405 0.32781 0.50592 0.0
H541 H 0.94256 0.28856 0.52654 0.0
H542 H 0.68955 0.29175 0.51081 0.0
H543 H 0.87689 0.25168 0.52935 0.0
H544 H 0.74149 0.19469 0.58454 0.0
H545 H 0.80563 0.23118 0.57793 0.0
H546 H 0.65483 0.25631 0.47552 0.0
H547 H 0.58918 0.21987 0.48372 0.0
C548 C 0.78212 0.31136 0.51084 0.0
C549 C 0.85395 0.31119 0.51613 0.0
C550 C 0.74463 0.29052 0.51327 0.0
C551 C 0.77753 0.26866 0.52059 0.0
C552 C 0.8496 0.26826 0.52448 0.0
C553 C 0.88746 0.28934 0.52242 0.0
C554 C 0.72142 0.20822 0.56116 0.0
C555 C 0.65999 0.20454 0.53488 0.0
C556 C 0.75885 0.22902 0.55683 0.0
C557 C 0.73638 0.24665 0.52565 0.0
C558 C 0.67366 0.24324 0.50022 0.0
C559 C 0.63562 0.22244 0.50501 0.0
H560 H 0.15338 0.39545 0.18562 0.0
H561 H 0.94526 0.37625 0.14568 0.0
H562 H 0.12393 0.39715 0.26523 0.0
H563 H 0.91663 0.3775 0.22433 0.0
H564 H 0.87228 0.39801 0.36967 0.0
H565 H 0.90075 0.40244 0.29008 0.0
H566 H 0.09519 0.36864 0.32235 0.0
H567 H 0.06774 0.36454 0.40068 0.0
C568 C 0.10154 0.39166 0.19372 0.0
C569 C 0.0521 0.38548 0.15923 0.0
C570 C 0.08457 0.39256 0.23929 0.0
C571 C 1.01777 0.3874 0.25126 0.0
C572 C 0.9682 0.38188 0.2165 0.0
C573 C 0.98508 0.38092 0.17126 0.0
C574 C 0.92093 0.39154 0.3596 0.0
C575 C 0.96737 0.38086 0.39167 0.0
C576 C 0.93739 0.39407 0.31407 0.0
C577 C 1.00068 0.38607 0.29984 0.0
C578 C 0.04675 0.37548 0.33209 0.0
C579 C 0.03039 0.3729 0.37715 0.0
H580 H 0.93104 0.60111 0.16473 0.0
H581 H 0.99153 0.67448 0.17278 0.0
H582 H 0.97921 0.59477 0.2427 0.0
H583 H 0.03741 0.66862 0.25075 0.0
H584 H 0.17414 0.65025 0.37176 0.0
H585 H 0.13268 0.651 0.29134 0.0
H586 H 0.97091 0.60263 0.32097 0.0
H587 H 1.01406 0.60137 0.40016 0.0
C588 C 0.95198 0.61608 0.18392 0.0
C589 C 0.95645 0.63837 0.1631 0.0
C590 C 0.98055 0.61244 0.2284 0.0
C591 C 1.01393 0.63106 0.25292 0.0
C592 C 1.01435 0.65365 0.23268 0.0
C593 C 0.98651 0.65718 0.18832 0.0
C594 C 0.1318 0.63898 0.36041 0.0
C595 C 0.09792 0.6255 0.3919 0.0
C596 C 0.10685 0.63978 0.3146 0.0
C597 C 0.04719 0.62729 0.29962 0.0
C598 C 1.01687 0.61242 0.3308 0.0
C599 C 0.04189 0.61158 0.37627 0.0
H600 H 0.08382 0.65602 0.9048 0.0
H601 H 0.8824 0.62905 0.86665 0.0
H602 H 0.11237 0.65489 0.82626 0.0
H603 H 0.91186 0.62778 0.78683 0.0
H604 H 0.96622 0.65669 0.64673 0.0
H605 H 0.93654 0.65561 0.72536 0.0
H606 H 0.13539 0.62711 0.76553 0.0
H607 H 0.16574 0.62832 0.68611 0.0
C608 C 0.0453 0.6498 0.87964 0.0
C609 C 0.98037 0.64272 0.89227 0.0
C610 C 0.06222 0.64896 0.83444 0.0
C611 C 1.01479 0.6411 0.80017 0.0
C612 C 0.94956 0.63406 0.81246 0.0
C613 C 0.93259 0.63476 0.85813 0.0
C614 C 1.00407 0.65026 0.6722 0.0
C615 C 0.06878 0.6427 0.65996 0.0
C616 C 0.98652 0.64941 0.71736 0.0
C617 C 0.03319 0.64111 0.75179 0.0
C618 C 0.09828 0.63375 0.73981 0.0
C619 C 0.11584 0.63448 0.69435 0.0
H620 H 0.91172 0.4076 0.6748 0.0
H621 H 0.98931 0.33661 0.66151 0.0
H622 H 0.95937 0.40869 0.75414 0.0
H623 H 0.03919 0.33789 0.73872 0.0
H624 H 0.06757 0.33871 0.89264 0.0
H625 H 0.0194 0.33729 0.81489 0.0
H626 H 0.06732 0.41147 0.79806 0.0
H627 H 0.11325 0.41288 0.8777 0.0
C628 C 0.93684 0.39198 0.68934 0.0
C629 C 0.94566 0.37185 0.66234 0.0
C630 C 0.96579 0.39278 0.73435 0.0
C631 C 1.00415 0.37349 0.75298 0.0
C632 C 1.00958 0.35302 0.72625 0.0
C633 C 0.98054 0.3522 0.68183 0.0
C634 C 0.07039 0.35447 0.87172 0.0
C635 C 0.09587 0.37572 0.89079 0.0
C636 C 0.04205 0.35377 0.82708 0.0
C637 C 0.03862 0.37432 0.79987 0.0
C638 C 0.06788 0.39538 0.81816 0.0
C639 C 0.09606 0.39608 0.86332 0.0
H640 H 0.65734 0.8962 0.18311 0.0
H641 H 0.45043 0.8751 0.14416 0.0
H642 H 0.62801 0.89848 0.26264 0.0
H643 H 0.4219 0.87696 0.22285 0.0
H644 H 0.37742 0.89827 0.36791 0.0
H645 H 0.40508 0.9025 0.28808 0.0
H646 H 0.60133 0.86998 0.32036 0.0
H647 H 0.57473 0.86606 0.39881 0.0
C648 C 0.60579 0.8921 0.19141 0.0
C649 C 0.55668 0.88522 0.15725 0.0
C650 C 0.58888 0.89336 0.23694 0.0
C651 C 0.52247 0.88784 0.24919 0.0
C652 C 0.47315 0.88163 0.21475 0.0
C653 C 0.48998 0.88031 0.16952 0.0
C654 C 0.42633 0.89207 0.35779 0.0
C655 C 0.47345 0.88173 0.38986 0.0
C656 C 0.4423 0.89448 0.31214 0.0
C657 C 0.50582 0.88675 0.29785 0.0
C658 C 0.55266 0.87659 0.33013 0.0
C659 C 0.53677 0.8741 0.37528 0.0
H660 H 0.54081 0.10939 0.15107 0.0
H661 H 0.37847 0.15578 0.18681 0.0
H662 H 0.58726 0.10903 0.22975 0.0
H663 H 0.42395 0.15509 0.26654 0.0
H664 H 0.56613 0.17515 0.38646 0.0
H665 H 0.52274 0.17213 0.30728 0.0
H666 H 0.57571 0.09775 0.30775 0.0
H667 H 0.62057 0.10113 0.38717 0.0
C668 C 0.51369 0.11885 0.17635 0.0
C669 C 0.45566 0.13241 0.1631 0.0
C670 C 0.5405 0.11872 0.22145 0.0
C671 C 0.51022 0.13233 0.25452 0.0
C672 C 0.44947 0.14478 0.24173 0.0
C673 C 0.42246 0.14485 0.19634 0.0
C674 C 0.57102 0.15839 0.36896 0.0
C675 C 0.59815 0.1385 0.39254 0.0
C676 C 0.54455 0.15649 0.32393 0.0
C677 C 0.54385 0.13455 0.30136 0.0
C678 C 0.57526 0.11494 0.32403 0.0
C679 C 0.60209 0.1169 0.36929 0.0
H680 H 0.37226 0.12096 0.87218 0.0
H681 H 0.55109 0.16441 0.89993 0.0
H682 H 0.40112 0.1174 0.79255 0.0
H683 H 0.57928 0.16091 0.82143 0.0
H684 H 0.65109 0.13095 0.6895 0.0
H685 H 0.62009 0.13112 0.76884 0.0
H686 H 0.40891 0.14191 0.72369 0.0
H687 H 0.43931 0.1415 0.64517 0.0
C688 C 0.41706 0.12995 0.86129 0.0
C689 C 0.4592 0.14294 0.89256 0.0
C690 C 0.43383 0.12785 0.81577 0.0
C691 C 0.49322 0.13858 0.80078 0.0
C692 C 0.5342 0.15194 0.83194 0.0
C693 C 0.5174 0.15413 0.87701 0.0
C694 C 0.59811 0.13322 0.6966 0.0
C695 C 0.54799 0.13644 0.66094 0.0
C696 C 0.58027 0.13341 0.742 0.0
C697 C 0.5119 0.13662 0.75264 0.0
C698 C 0.4618 0.13917 0.71684 0.0
C699 C 0.47958 0.13915 0.67171 0.0
H700 H 0.41717 0.90746 0.67365 0.0
H701 H 0.49834 0.83708 0.65868 0.0
H702 H 0.46435 0.90823 0.75312 0.0
H703 H 0.54753 0.83804 0.73614 0.0
H704 H 0.57336 0.83811 0.89043 0.0
H705 H 0.52596 0.83688 0.81242 0.0
H706 H 0.57308 0.9112 0.79679 0.0
H707 H 0.61847 0.91239 0.87654 0.0
C708 C 0.44299 0.89189 0.68784 0.0
C709 C 0.45297 0.87203 0.66037 0.0
C710 C 0.47161 0.89252 0.73292 0.0
C711 C 0.51074 0.87331 0.75112 0.0
C712 C 0.51734 0.85308 0.72391 0.0
C713 C 0.4887 0.85245 0.6794 0.0
C714 C 0.57619 0.85394 0.86971 0.0
C715 C 0.60129 0.87516 0.8891 0.0
C716 C 0.54828 0.85335 0.82496 0.0
C717 C 0.54483 0.87401 0.79806 0.0
C718 C 0.57371 0.89504 0.81669 0.0
C719 C 0.60155 0.89562 0.86191 0.0
loop_
_geom_bond_atom_site_label_1
_geom_bond_atom_site_label_2
_geom_bond_distance
_geom_bond_site_symmetry_2
_ccdc_geom_bond_type
Co0 N5 2.057 1_554 S
Co0 O17 2.021 . S
Co0 O20 2.062 . S
Co0 O24 2.117 1_654 S
Co0 O25 2.020 1_655 S
C1 O21 1.259 . S
C1 O24 1.258 . S
Co2 N11 2.057 . S
Co2 O18 2.117 . S
Co2 O19 2.020 . S
Co2 O21 2.021 1_554 S
Co2 O26 2.062 . S
C3 N5 1.316 1_554 S
C3 N6 1.347 1_554 S
C3 H8 0.931 . S
C4 N5 1.375 . S
C4 C7 1.350 . S
C4 H9 0.930 . S
N5 Co0 2.057 1_556 S
N5 C3 1.316 1_556 S
N5 C4 1.375 . S
N6 C3 1.347 1_556 S
N6 C7 1.373 . S
C7 C4 1.350 . S
C7 N6 1.373 . S
C7 H28 0.931 . S
H8 C3 0.931 . S
H9 C4 0.930 . S
C10 O17 1.255 1_455 S
C10 O18 1.258 . S
N11 Co2 2.057 . S
N11 C12 1.316 1_554 S
N11 C13 1.375 . S
C12 N11 1.316 1_556 S
C12 N14 1.347 1_556 S
C12 H23 0.931 . S
C13 N11 1.375 . S
C13 C15 1.350 . S
C13 H22 0.930 . S
N14 C12 1.347 1_554 S
N14 C15 1.373 . S
C15 C13 1.350 . S
C15 N14 1.373 . S
C15 H29 0.931 . S
C16 O19 1.256 . S
C16 O20 1.255 1_455 S
O17 Co0 2.021 . S
O17 C10 1.255 1_655 S
O18 Co2 2.117 . S
O18 C10 1.258 . S
O19 Co2 2.020 . S
O19 C16 1.256 . S
O20 Co0 2.062 . S
O20 C16 1.255 1_655 S
O21 C1 1.259 . S
O21 Co2 2.021 1_556 S
H22 C13 0.930 . S
H23 C12 0.931 . S
O24 Co0 2.117 1_456 S
O24 C1 1.258 . S
O25 Co0 2.020 1_455 S
O25 C27 1.256 . S
O26 Co2 2.062 . S
O26 C27 1.255 . S
C27 O25 1.256 . S
C27 O26 1.255 . S
H28 C7 0.931 . S
H29 C15 0.931 . S
Co30 N35 2.057 1_554 S
Co30 O47 2.021 . S
Co30 O50 2.062 . S
Co30 O54 2.117 1_554 S
Co30 O55 2.020 . S
C31 O51 1.255 1_655 S
C31 O54 1.258 . S
Co32 N41 2.057 . S
Co32 O48 2.117 1_455 S
Co32 O49 2.020 1_455 S
Co32 O51 2.021 1_554 S
Co32 O56 2.062 . S
C33 N35 1.316 1_554 S
C33 N36 1.347 1_554 S
C33 H38 0.931 . S
C34 N35 1.375 . S
C34 C37 1.350 . S
C34 H39 0.930 . S
N35 Co30 2.057 1_556 S
N35 C33 1.316 1_556 S
N35 C34 1.375 . S
N36 C33 1.347 1_556 S
N36 C37 1.373 . S
C37 C34 1.350 . S
C37 N36 1.373 . S
C37 H58 0.931 . S
H38 C33 0.931 . S
H39 C34 0.930 . S
C40 O47 1.259 . S
C40 O48 1.258 . S
N41 Co32 2.057 . S
N41 C42 1.316 1_554 S
N41 C43 1.375 . S
C42 N41 1.316 1_556 S
C42 N44 1.347 1_556 S
C42 H53 0.931 . S
C43 N41 1.375 . S
C43 C45 1.350 . S
C43 H52 0.930 . S
N44 C42 1.347 1_554 S
N44 C45 1.373 . S
C45 C43 1.350 . S
C45 N44 1.373 . S
C45 H59 0.931 . S
C46 O49 1.256 . S
C46 O50 1.255 . S
O47 Co30 2.021 . S
O47 C40 1.259 . S
O48 Co32 2.117 1_655 S
O48 C40 1.258 . S
O49 Co32 2.020 1_655 S
O49 C46 1.256 . S
O50 Co30 2.062 . S
O50 C46 1.255 . S
O51 C31 1.255 1_455 S
O51 Co32 2.021 1_556 S
H52 C43 0.930 . S
H53 C42 0.931 . S
O54 Co30 2.117 1_556 S
O54 C31 1.258 . S
O55 Co30 2.020 . S
O55 C57 1.256 . S
O56 Co32 2.062 . S
O56 C57 1.255 1_455 S
C57 O55 1.256 . S
C57 O56 1.255 1_655 S
H58 C37 0.931 . S
H59 C45 0.931 . S
Co60 N65 2.057 . S
Co60 O77 2.021 . S
Co60 O80 2.062 . S
Co60 O84 2.117 . S
Co60 O85 2.020 . S
C61 O81 1.255 1_455 S
C61 O84 1.258 . S
Co62 N71 2.057 . S
Co62 O78 2.117 1_655 S
Co62 O79 2.020 1_655 S
Co62 O81 2.021 . S
Co62 O86 2.062 . S
C63 N65 1.316 . S
C63 N66 1.347 . S
C63 H68 0.931 . S
C64 N65 1.375 . S
C64 C67 1.350 . S
C64 H69 0.930 . S
N65 Co60 2.057 . S
N65 C63 1.316 . S
N65 C64 1.375 . S
N66 C63 1.347 . S
N66 C67 1.373 . S
C67 C64 1.350 . S
C67 N66 1.373 . S
C67 H88 0.931 . S
H68 C63 0.931 . S
H69 C64 0.930 . S
C70 O77 1.259 . S
C70 O78 1.258 . S
N71 Co62 2.057 . S
N71 C72 1.316 . S
N71 C73 1.375 . S
C72 N71 1.316 . S
C72 N74 1.347 . S
C72 H83 0.931 . S
C73 N71 1.375 . S
C73 C75 1.350 . S
C73 H82 0.930 . S
N74 C72 1.347 . S
N74 C75 1.373 . S
C75 C73 1.350 . S
C75 N74 1.373 . S
C75 H89 0.931 . S
C76 O79 1.256 . S
C76 O80 1.255 . S
O77 Co60 2.021 . S
O77 C70 1.259 . S
O78 Co62 2.117 1_455 S
O78 C70 1.258 . S
O79 Co62 2.020 1_455 S
O79 C76 1.256 . S
O80 Co60 2.062 . S
O80 C76 1.255 . S
O81 C61 1.255 1_655 S
O81 Co62 2.021 . S
H82 C73 0.930 . S
H83 C72 0.931 . S
O84 Co60 2.117 . S
O84 C61 1.258 . S
O85 Co60 2.020 . S
O85 C87 1.256 . S
O86 Co62 2.062 . S
O86 C87 1.255 1_655 S
C87 O85 1.256 . S
C87 O86 1.255 1_455 S
H88 C67 0.931 . S
H89 C75 0.931 . S
Co90 N95 2.057 . S
Co90 O107 2.021 . S
Co90 O110 2.062 . S
Co90 O114 2.117 1_455 S
Co90 O115 2.020 1_455 S
C91 O111 1.259 . S
C91 O114 1.258 . S
Co92 N101 2.057 . S
Co92 O108 2.117 . S
Co92 O109 2.020 . S
Co92 O111 2.021 . S
Co92 O116 2.062 . S
C93 N95 1.316 . S
C93 N96 1.347 . S
C93 H98 0.931 . S
C94 N95 1.375 . S
C94 C97 1.350 . S
C94 H99 0.930 . S
N95 Co90 2.057 . S
N95 C93 1.316 . S
N95 C94 1.375 . S
N96 C93 1.347 . S
N96 C97 1.373 . S
C97 C94 1.350 . S
C97 N96 1.373 . S
C97 H118 0.931 . S
H98 C93 0.931 . S
H99 C94 0.930 . S
C100 O107 1.255 1_655 S
C100 O108 1.258 . S
N101 Co92 2.057 . S
N101 C102 1.316 . S
N101 C103 1.375 . S
C102 N101 1.316 . S
C102 N104 1.347 . S
C102 H113 0.931 . S
C103 N101 1.375 . S
C103 C105 1.350 . S
C103 H112 0.930 . S
N104 C102 1.347 . S
N104 C105 1.373 . S
C105 C103 1.350 . S
C105 N104 1.373 . S
C105 H119 0.931 . S
C106 O109 1.256 . S
C106 O110 1.255 1_655 S
O107 Co90 2.021 . S
O107 C100 1.255 1_455 S
O108 Co92 2.117 . S
O108 C100 1.258 . S
O109 Co92 2.020 . S
O109 C106 1.256 . S
O110 Co90 2.062 . S
O110 C106 1.255 1_455 S
O111 C91 1.259 . S
O111 Co92 2.021 . S
H112 C103 0.930 . S
H113 C102 0.931 . S
O114 Co90 2.117 1_655 S
O114 C91 1.258 . S
O115 Co90 2.020 1_655 S
O115 C117 1.256 . S
O116 Co92 2.062 . S
O116 C117 1.255 . S
C117 O115 1.256 . S
C117 O116 1.255 . S
H118 C97 0.931 . S
H119 C105 0.931 . S
Co120 N125 2.057 1_554 S
Co120 O137 2.021 . S
Co120 O140 2.062 . S
Co120 O144 2.117 1_554 S
Co120 O145 2.020 . S
C121 O141 1.259 . S
C121 O144 1.258 . S
Co122 N131 2.057 . S
Co122 O138 2.117 . S
Co122 O139 2.020 . S
Co122 O141 2.021 1_554 S
Co122 O146 2.062 . S
C123 N125 1.316 1_554 S
C123 N126 1.347 1_554 S
C123 H128 0.931 . S
C124 N125 1.375 . S
C124 C127 1.350 . S
C124 H129 0.930 . S
N125 Co120 2.057 1_556 S
N125 C123 1.316 1_556 S
N125 C124 1.375 . S
N126 C123 1.347 1_556 S
N126 C127 1.373 . S
C127 C124 1.350 . S
C127 N126 1.373 . S
C127 H148 0.931 . S
H128 C123 0.931 . S
H129 C124 0.930 . S
C130 O137 1.259 . S
C130 O138 1.258 . S
N131 Co122 2.057 . S
N131 C132 1.316 1_554 S
N131 C133 1.375 . S
C132 N131 1.316 1_556 S
C132 N134 1.347 1_556 S
C132 H143 0.931 . S
C133 N131 1.375 . S
C133 C135 1.350 . S
C133 H142 0.930 . S
N134 C132 1.347 1_554 S
N134 C135 1.373 . S
C135 C133 1.350 . S
C135 N134 1.373 . S
C135 H149 0.931 . S
C136 O139 1.256 . S
C136 O140 1.255 . S
O137 Co120 2.021 . S
O137 C130 1.259 . S
O138 Co122 2.117 . S
O138 C130 1.258 . S
O139 Co122 2.020 . S
O139 C136 1.256 . S
O140 Co120 2.062 . S
O140 C136 1.255 . S
O141 C121 1.259 . S
O141 Co122 2.021 1_556 S
H142 C133 0.930 . S
H143 C132 0.931 . S
O144 Co120 2.117 1_556 S
O144 C121 1.258 . S
O145 Co120 2.020 . S
O145 C147 1.256 . S
O146 Co122 2.062 . S
O146 C147 1.255 . S
C147 O145 1.256 . S
C147 O146 1.255 . S
H148 C127 0.931 . S
H149 C135 0.931 . S
Co150 N155 2.057 1_554 S
Co150 O167 2.021 . S
Co150 O170 2.062 . S
Co150 O174 2.117 1_554 S
Co150 O175 2.020 . S
C151 O171 1.259 . S
C151 O174 1.258 . S
Co152 N161 2.057 . S
Co152 O168 2.117 . S
Co152 O169 2.020 . S
Co152 O171 2.021 1_554 S
Co152 O176 2.062 . S
C153 N155 1.316 1_554 S
C153 N156 1.347 1_554 S
C153 H158 0.931 . S
C154 N155 1.375 . S
C154 C157 1.350 . S
C154 H159 0.930 . S
N155 Co150 2.057 1_556 S
N155 C153 1.316 1_556 S
N155 C154 1.375 . S
N156 C153 1.347 1_556 S
N156 C157 1.373 . S
C157 C154 1.350 . S
C157 N156 1.373 . S
C157 H178 0.931 . S
H158 C153 0.931 . S
H159 C154 0.930 . S
C160 O167 1.259 . S
C160 O168 1.258 . S
N161 Co152 2.057 . S
N161 C162 1.316 1_554 S
N161 C163 1.375 . S
C162 N161 1.316 1_556 S
C162 N164 1.347 1_556 S
C162 H173 0.931 . S
C163 N161 1.375 . S
C163 C165 1.350 . S
C163 H172 0.930 . S
N164 C162 1.347 1_554 S
N164 C165 1.373 . S
C165 C163 1.350 . S
C165 N164 1.373 . S
C165 H179 0.931 . S
C166 O169 1.256 . S
C166 O170 1.255 . S
O167 Co150 2.021 . S
O167 C160 1.259 . S
O168 Co152 2.117 . S
O168 C160 1.258 . S
O169 Co152 2.020 . S
O169 C166 1.256 . S
O170 Co150 2.062 . S
O170 C166 1.255 . S
O171 C151 1.259 . S
O171 Co152 2.021 1_556 S
H172 C163 0.930 . S
H173 C162 0.931 . S
O174 Co150 2.117 1_556 S
O174 C151 1.258 . S
O175 Co150 2.020 . S
O175 C177 1.256 . S
O176 Co152 2.062 . S
O176 C177 1.255 . S
C177 O175 1.256 . S
C177 O176 1.255 . S
H178 C157 0.931 . S
H179 C165 0.931 . S
Co180 N185 2.057 . S
Co180 O197 2.021 . S
Co180 O200 2.062 . S
Co180 O204 2.117 . S
Co180 O205 2.020 . S
C181 O201 1.259 . S
C181 O204 1.258 . S
Co182 N191 2.057 . S
Co182 O198 2.117 . S
Co182 O199 2.020 . S
Co182 O201 2.021 . S
Co182 O206 2.062 . S
C183 N185 1.316 . S
C183 N186 1.347 . S
C183 H188 0.931 . S
C184 N185 1.375 . S
C184 C187 1.350 . S
C184 H189 0.930 . S
N185 Co180 2.057 . S
N185 C183 1.316 . S
N185 C184 1.375 . S
N186 C183 1.347 . S
N186 C187 1.373 . S
C187 C184 1.350 . S
C187 N186 1.373 . S
C187 H208 0.931 . S
H188 C183 0.931 . S
H189 C184 0.930 . S
C190 O197 1.259 . S
C190 O198 1.258 . S
N191 Co182 2.057 . S
N191 C192 1.316 . S
N191 C193 1.375 . S
C192 N191 1.316 . S
C192 N194 1.347 . S
C192 H203 0.931 . S
C193 N191 1.375 . S
C193 C195 1.350 . S
C193 H202 0.930 . S
N194 C192 1.347 . S
N194 C195 1.373 . S
C195 C193 1.350 . S
C195 N194 1.373 . S
C195 H209 0.931 . S
C196 O199 1.256 . S
C196 O200 1.255 . S
O197 Co180 2.021 . S
O197 C190 1.259 . S
O198 Co182 2.117 . S
O198 C190 1.258 . S
O199 Co182 2.020 . S
O199 C196 1.256 . S
O200 Co180 2.062 . S
O200 C196 1.255 . S
O201 C181 1.259 . S
O201 Co182 2.021 . S
H202 C193 0.930 . S
H203 C192 0.931 . S
O204 Co180 2.117 . S
O204 C181 1.258 . S
O205 Co180 2.020 . S
O205 C207 1.256 . S
O206 Co182 2.062 . S
O206 C207 1.255 . S
C207 O205 1.256 . S
C207 O206 1.255 . S
H208 C187 0.931 . S
H209 C195 0.931 . S
Co210 N215 2.057 . S
Co210 O227 2.021 . S
Co210 O230 2.062 . S
Co210 O234 2.117 . S
Co210 O235 2.020 . S
C211 O231 1.259 . S
C211 O234 1.258 . S
Co212 N221 2.057 . S
Co212 O228 2.117 . S
Co212 O229 2.020 . S
Co212 O231 2.021 . S
Co212 O236 2.062 . S
C213 N215 1.316 . S
C213 N216 1.347 . S
C213 H218 0.931 . S
C214 N215 1.375 . S
C214 C217 1.350 . S
C214 H219 0.930 . S
N215 Co210 2.057 . S
N215 C213 1.316 . S
N215 C214 1.375 . S
N216 C213 1.347 . S
N216 C217 1.373 . S
C217 C214 1.350 . S
C217 N216 1.373 . S
C217 H238 0.931 . S
H218 C213 0.931 . S
H219 C214 0.930 . S
C220 O227 1.259 . S
C220 O228 1.258 . S
N221 Co212 2.057 . S
N221 C222 1.316 . S
N221 C223 1.375 . S
C222 N221 1.316 . S
C222 N224 1.347 . S
C222 H233 0.931 . S
C223 N221 1.375 . S
C223 C225 1.350 . S
C223 H232 0.930 . S
N224 C222 1.347 . S
N224 C225 1.373 . S
C225 C223 1.350 . S
C225 N224 1.373 . S
C225 H239 0.931 . S
C226 O229 1.256 . S
C226 O230 1.255 . S
O227 Co210 2.021 . S
O227 C220 1.259 . S
O228 Co212 2.117 . S
O228 C220 1.258 . S
O229 Co212 2.020 . S
O229 C226 1.256 . S
O230 Co210 2.062 . S
O230 C226 1.255 . S
O231 C211 1.259 . S
O231 Co212 2.021 . S
H232 C223 0.930 . S
H233 C222 0.931 . S
O234 Co210 2.117 . S
O234 C211 1.258 . S
O235 Co210 2.020 . S
O235 C237 1.256 . S
O236 Co212 2.062 . S
O236 C237 1.255 . S
C237 O235 1.256 . S
C237 O236 1.255 . S
H238 C217 0.931 . S
H239 C225 0.931 . S
H240 C248 0.950 . S
H241 C253 0.950 . S
H242 C250 0.950 . S
H243 C252 0.950 . S
H244 C254 0.950 . S
H245 C256 0.950 . S
H246 C258 0.950 . S
H247 C259 0.950 . S
C248 H240 0.950 . S
C248 C249 1.386 1_556 S
C248 C250 1.391 . S
C249 C248 1.386 1_554 S
C249 C253 1.393 . S
C250 H242 0.950 . S
C250 C248 1.391 . S
C250 C251 1.400 1_556 S
C251 C250 1.400 1_554 S
C251 C252 1.398 . S
C251 C257 1.491 . S
C252 H243 0.950 . S
C252 C251 1.398 . S
C252 C253 1.391 . S
C253 H241 0.950 . S
C253 C249 1.393 . S
C253 C252 1.391 . S
C254 H244 0.950 . S
C254 C255 1.386 . S
C254 C256 1.391 . S
C255 C254 1.386 . S
C255 C259 1.393 1_554 S
C256 H245 0.950 . S
C256 C254 1.391 . S
C256 C257 1.400 . S
C257 C251 1.491 . S
C257 C256 1.400 . S
C257 C258 1.398 1_554 S
C258 H246 0.950 . S
C258 C257 1.398 1_556 S
C258 C259 1.391 . S
C259 H247 0.950 . S
C259 C255 1.393 1_556 S
C259 C258 1.391 . S
H260 C268 0.950 . S
H261 C273 0.950 . S
H262 C270 0.950 . S
H263 C272 0.950 . S
H264 C274 0.950 . S
H265 C276 0.950 . S
H266 C278 0.950 . S
H267 C279 0.950 . S
C268 H260 0.950 . S
C268 C269 1.386 1_556 S
C268 C270 1.391 . S
C269 C268 1.386 1_554 S
C269 C273 1.393 . S
C270 H262 0.950 . S
C270 C268 1.391 . S
C270 C271 1.400 1_556 S
C271 C270 1.400 1_554 S
C271 C272 1.398 . S
C271 C277 1.491 . S
C272 H263 0.950 . S
C272 C271 1.398 . S
C272 C273 1.391 . S
C273 H261 0.950 . S
C273 C269 1.393 . S
C273 C272 1.391 . S
C274 H264 0.950 . S
C274 C275 1.386 . S
C274 C276 1.391 . S
C275 C274 1.386 . S
C275 C279 1.393 1_554 S
C276 H265 0.950 . S
C276 C274 1.391 . S
C276 C277 1.400 . S
C277 C271 1.491 . S
C277 C276 1.400 . S
C277 C278 1.398 1_554 S
C278 H266 0.950 . S
C278 C277 1.398 1_556 S
C278 C279 1.391 . S
C279 H267 0.950 . S
C279 C275 1.393 1_556 S
C279 C278 1.391 . S
H280 C288 0.950 . S
H281 C293 0.950 . S
H282 C290 0.950 . S
H283 C292 0.950 . S
H284 C294 0.950 . S
H285 C296 0.950 . S
H286 C298 0.950 . S
H287 C299 0.950 . S
C288 H280 0.950 . S
C288 C289 1.386 . S
C288 C290 1.391 . S
C289 C288 1.386 . S
C289 C293 1.393 . S
C290 H282 0.950 . S
C290 C288 1.391 . S
C290 C291 1.400 . S
C291 C290 1.400 . S
C291 C292 1.398 . S
C291 C297 1.491 . S
C292 H283 0.950 . S
C292 C291 1.398 . S
C292 C293 1.391 . S
C293 H281 0.950 . S
C293 C289 1.393 . S
C293 C292 1.391 . S
C294 H284 0.950 . S
C294 C295 1.386 . S
C294 C296 1.391 . S
C295 C294 1.386 . S
C295 C299 1.393 . S
C296 H285 0.950 . S
C296 C294 1.391 . S
C296 C297 1.400 . S
C297 C291 1.491 . S
C297 C296 1.400 . S
C297 C298 1.398 . S
C298 H286 0.950 . S
C298 C297 1.398 . S
C298 C299 1.391 . S
C299 H287 0.950 . S
C299 C295 1.393 . S
C299 C298 1.391 . S
H300 C308 0.950 . S
H301 C313 0.950 . S
H302 C310 0.950 . S
H303 C312 0.950 . S
H304 C314 0.950 . S
H305 C316 0.950 . S
H306 C318 0.950 . S
H307 C319 0.950 . S
C308 H300 0.950 . S
C308 C309 1.386 . S
C308 C310 1.391 . S
C309 C308 1.386 . S
C309 C313 1.393 . S
C310 H302 0.950 . S
C310 C308 1.391 . S
C310 C311 1.400 . S
C311 C310 1.400 . S
C311 C312 1.398 . S
C311 C317 1.491 . S
C312 H303 0.950 . S
C312 C311 1.398 . S
C312 C313 1.391 . S
C313 H301 0.950 . S
C313 C309 1.393 . S
C313 C312 1.391 . S
C314 H304 0.950 . S
C314 C315 1.386 . S
C314 C316 1.391 . S
C315 C314 1.386 . S
C315 C319 1.393 . S
C316 H305 0.950 . S
C316 C314 1.391 . S
C316 C317 1.400 . S
C317 C311 1.491 . S
C317 C316 1.400 . S
C317 C318 1.398 . S
C318 H306 0.950 . S
C318 C317 1.398 . S
C318 C319 1.391 . S
C319 H307 0.950 . S
C319 C315 1.393 . S
C319 C318 1.391 . S
H320 C328 0.950 . S
H321 C333 0.950 . S
H322 C330 0.950 1_455 S
H323 C332 0.950 1_455 S
H324 C334 0.950 . S
H325 C336 0.950 . S
H326 C338 0.950 . S
H327 C339 0.950 . S
C328 H320 0.950 . S
C328 C329 1.386 1_556 S
C328 C330 1.391 . S
C329 C328 1.386 1_554 S
C329 C333 1.393 . S
C330 H322 0.950 1_655 S
C330 C328 1.391 . S
C330 C331 1.400 1_656 S
C331 C330 1.400 1_454 S
C331 C332 1.398 1_455 S
C331 C337 1.491 . S
C332 H323 0.950 1_655 S
C332 C331 1.398 1_655 S
C332 C333 1.391 . S
C333 H321 0.950 . S
C333 C329 1.393 . S
C333 C332 1.391 . S
C334 H324 0.950 . S
C334 C335 1.386 . S
C334 C336 1.391 . S
C335 C334 1.386 . S
C335 C339 1.393 1_554 S
C336 H325 0.950 . S
C336 C334 1.391 . S
C336 C337 1.400 . S
C337 C331 1.491 . S
C337 C336 1.400 . S
C337 C338 1.398 1_554 S
C338 H326 0.950 . S
C338 C337 1.398 1_556 S
C338 C339 1.391 . S
C339 H327 0.950 . S
C339 C335 1.393 1_556 S
C339 C338 1.391 . S
H340 C348 0.950 . S
H341 C353 0.950 . S
H342 C350 0.950 1_655 S
H343 C352 0.950 1_655 S
H344 C354 0.950 . S
H345 C356 0.950 . S
H346 C358 0.950 . S
H347 C359 0.950 . S
C348 H340 0.950 . S
C348 C349 1.386 . S
C348 C350 1.391 . S
C349 C348 1.386 . S
C349 C353 1.393 1_554 S
C350 H342 0.950 1_455 S
C350 C348 1.391 . S
C350 C351 1.400 1_455 S
C351 C350 1.400 1_655 S
C351 C352 1.398 1_654 S
C351 C357 1.491 . S
C352 H343 0.950 1_455 S
C352 C351 1.398 1_456 S
C352 C353 1.391 . S
C353 H341 0.950 . S
C353 C349 1.393 1_556 S
C353 C352 1.391 . S
C354 H344 0.950 . S
C354 C355 1.386 1_556 S
C354 C356 1.391 . S
C355 C354 1.386 1_554 S
C355 C359 1.393 . S
C356 H345 0.950 . S
C356 C354 1.391 . S
C356 C357 1.400 1_556 S
C357 C351 1.491 . S
C357 C356 1.400 1_554 S
C357 C358 1.398 . S
C358 H346 0.950 . S
C358 C357 1.398 . S
C358 C359 1.391 . S
C359 H347 0.950 . S
C359 C355 1.393 . S
C359 C358 1.391 . S
H360 C368 0.950 . S
H361 C373 0.950 . S
H362 C370 0.950 . S
H363 C372 0.950 . S
H364 C374 0.950 . S
H365 C376 0.950 . S
H366 C378 0.950 1_455 S
H367 C379 0.950 . S
C368 H360 0.950 . S
C368 C369 1.386 . S
C368 C370 1.391 . S
C369 C368 1.386 . S
C369 C373 1.393 . S
C370 H362 0.950 . S
C370 C368 1.391 . S
C370 C371 1.400 . S
C371 C370 1.400 . S
C371 C372 1.398 . S
C371 C377 1.491 . S
C372 H363 0.950 . S
C372 C371 1.398 . S
C372 C373 1.391 . S
C373 H361 0.950 . S
C373 C369 1.393 . S
C373 C372 1.391 . S
C374 H364 0.950 . S
C374 C375 1.386 . S
C374 C376 1.391 . S
C375 C374 1.386 . S
C375 C379 1.393 . S
C376 H365 0.950 . S
C376 C374 1.391 . S
C376 C377 1.400 1_655 S
C377 C371 1.491 . S
C377 C376 1.400 1_455 S
C377 C378 1.398 1_455 S
C378 H366 0.950 1_655 S
C378 C377 1.398 1_655 S
C378 C379 1.391 . S
C379 H367 0.950 . S
C379 C375 1.393 . S
C379 C378 1.391 . S
H380 C388 0.950 . S
H381 C393 0.950 . S
H382 C390 0.950 . S
H383 C392 0.950 . S
H384 C394 0.950 . S
H385 C396 0.950 1_655 S
H386 C398 0.950 1_655 S
H387 C399 0.950 . S
C388 H380 0.950 . S
C388 C389 1.386 . S
C388 C390 1.391 . S
C389 C388 1.386 . S
C389 C393 1.393 . S
C390 H382 0.950 . S
C390 C388 1.391 . S
C390 C391 1.400 . S
C391 C390 1.400 . S
C391 C392 1.398 . S
C391 C397 1.491 . S
C392 H383 0.950 . S
C392 C391 1.398 . S
C392 C393 1.391 . S
C393 H381 0.950 . S
C393 C389 1.393 . S
C393 C392 1.391 . S
C394 H384 0.950 . S
C394 C395 1.386 . S
C394 C396 1.391 . S
C395 C394 1.386 . S
C395 C399 1.393 . S
C396 H385 0.950 1_455 S
C396 C394 1.391 . S
C396 C397 1.400 1_455 S
C397 C391 1.491 . S
C397 C396 1.400 1_655 S
C397 C398 1.398 1_655 S
C398 H386 0.950 1_455 S
C398 C397 1.398 1_455 S
C398 C399 1.391 . S
C399 H387 0.950 . S
C399 C395 1.393 . S
C399 C398 1.391 . S
H400 C408 0.950 . S
H401 C413 0.950 . S
H402 C410 0.950 . S
H403 C412 0.950 . S
H404 C414 0.950 . S
H405 C416 0.950 . S
H406 C418 0.950 . S
H407 C419 0.950 . S
C408 H400 0.950 . S
C408 C409 1.386 1_455 S
C408 C410 1.391 . S
C409 C408 1.386 1_655 S
C409 C413 1.393 . S
C410 H402 0.950 . S
C410 C408 1.391 . S
C410 C411 1.400 1_455 S
C411 C410 1.400 1_655 S
C411 C412 1.398 . S
C411 C417 1.491 1_655 S
C412 H403 0.950 . S
C412 C411 1.398 . S
C412 C413 1.391 . S
C413 H401 0.950 . S
C413 C409 1.393 . S
C413 C412 1.391 . S
C414 H404 0.950 . S
C414 C415 1.386 1_655 S
C414 C416 1.391 . S
C415 C414 1.386 1_455 S
C415 C419 1.393 . S
C416 H405 0.950 . S
C416 C414 1.391 . S
C416 C417 1.400 1_655 S
C417 C411 1.491 1_455 S
C417 C416 1.400 1_455 S
C417 C418 1.398 . S
C418 H406 0.950 . S
C418 C417 1.398 . S
C418 C419 1.391 . S
C419 H407 0.950 . S
C419 C415 1.393 . S
C419 C418 1.391 . S
H420 C428 0.950 1_455 S
H421 C433 0.950 . S
H422 C430 0.950 . S
H423 C432 0.950 . S
H424 C434 0.950 1_655 S
H425 C436 0.950 . S
H426 C438 0.950 . S
H427 C439 0.950 . S
C428 H420 0.950 1_655 S
C428 C429 1.386 . S
C428 C430 1.391 1_655 S
C429 C428 1.386 . S
C429 C433 1.393 . S
C430 H422 0.950 . S
C430 C428 1.391 1_455 S
C430 C431 1.400 1_455 S
C431 C430 1.400 1_655 S
C431 C432 1.398 . S
C431 C437 1.491 1_655 S
C432 H423 0.950 . S
C432 C431 1.398 . S
C432 C433 1.391 . S
C433 H421 0.950 . S
C433 C429 1.393 . S
C433 C432 1.391 . S
C434 H424 0.950 1_455 S
C434 C435 1.386 . S
C434 C436 1.391 1_455 S
C435 C434 1.386 . S
C435 C439 1.393 . S
C436 H425 0.950 . S
C436 C434 1.391 1_655 S
C436 C437 1.400 1_655 S
C437 C431 1.491 1_455 S
C437 C436 1.400 1_455 S
C437 C438 1.398 . S
C438 H426 0.950 . S
C438 C437 1.398 . S
C438 C439 1.391 . S
C439 H427 0.950 . S
C439 C435 1.393 . S
C439 C438 1.391 . S
H440 C448 0.950 . S
H441 C453 0.950 . S
H442 C450 0.950 . S
H443 C452 0.950 . S
H444 C454 0.950 . S
H445 C456 0.950 . S
H446 C458 0.950 . S
H447 C459 0.950 . S
C448 H440 0.950 . S
C448 C449 1.386 . S
C448 C450 1.391 . S
C449 C448 1.386 . S
C449 C453 1.393 . S
C450 H442 0.950 . S
C450 C448 1.391 . S
C450 C451 1.400 . S
C451 C450 1.400 . S
C451 C452 1.398 . S
C451 C457 1.491 1_565 S
C452 H443 0.950 . S
C452 C451 1.398 . S
C452 C453 1.391 . S
C453 H441 0.950 . S
C453 C449 1.393 . S
C453 C452 1.391 . S
C454 H444 0.950 . S
C454 C455 1.386 . S
C454 C456 1.391 . S
C455 C454 1.386 . S
C455 C459 1.393 . S
C456 H445 0.950 . S
C456 C454 1.391 . S
C456 C457 1.400 . S
C457 C451 1.491 1_545 S
C457 C456 1.400 . S
C457 C458 1.398 . S
C458 H446 0.950 . S
C458 C457 1.398 . S
C458 C459 1.391 . S
C459 H447 0.950 . S
C459 C455 1.393 . S
C459 C458 1.391 . S
H460 C468 0.950 . S
H461 C473 0.950 . S
H462 C470 0.950 . S
H463 C472 0.950 . S
H464 C474 0.950 . S
H465 C476 0.950 . S
H466 C478 0.950 . S
H467 C479 0.950 . S
C468 H460 0.950 . S
C468 C469 1.386 . S
C468 C470 1.391 . S
C469 C468 1.386 . S
C469 C473 1.393 . S
C470 H462 0.950 . S
C470 C468 1.391 . S
C470 C471 1.400 . S
C471 C470 1.400 . S
C471 C472 1.398 . S
C471 C477 1.491 1_545 S
C472 H463 0.950 . S
C472 C471 1.398 . S
C472 C473 1.391 . S
C473 H461 0.950 . S
C473 C469 1.393 . S
C473 C472 1.391 . S
C474 H464 0.950 . S
C474 C475 1.386 . S
C474 C476 1.391 . S
C475 C474 1.386 . S
C475 C479 1.393 . S
C476 H465 0.950 . S
C476 C474 1.391 . S
C476 C477 1.400 . S
C477 C471 1.491 1_565 S
C477 C476 1.400 . S
C477 C478 1.398 . S
C478 H466 0.950 . S
C478 C477 1.398 . S
C478 C479 1.391 . S
C479 H467 0.950 . S
C479 C475 1.393 . S
C479 C478 1.391 . S
H480 C488 0.950 1_556 S
H481 C493 0.950 . S
H482 C490 0.950 . S
H483 C492 0.950 . S
H484 C494 0.950 . S
H485 C496 0.950 . S
H486 C498 0.950 . S
H487 C499 0.950 . S
C488 H480 0.950 1_554 S
C488 C489 1.386 . S
C488 C490 1.391 . S
C489 C488 1.386 . S
C489 C493 1.393 . S
C490 H482 0.950 . S
C490 C488 1.391 . S
C490 C491 1.400 . S
C491 C490 1.400 . S
C491 C492 1.398 . S
C491 C497 1.491 . S
C492 H483 0.950 . S
C492 C491 1.398 . S
C492 C493 1.391 . S
C493 H481 0.950 . S
C493 C489 1.393 . S
C493 C492 1.391 . S
C494 H484 0.950 . S
C494 C495 1.386 . S
C494 C496 1.391 . S
C495 C494 1.386 . S
C495 C499 1.393 . S
C496 H485 0.950 . S
C496 C494 1.391 . S
C496 C497 1.400 . S
C497 C491 1.491 . S
C497 C496 1.400 . S
C497 C498 1.398 . S
C498 H486 0.950 . S
C498 C497 1.398 . S
C498 C499 1.391 . S
C499 H487 0.950 . S
C499 C495 1.393 . S
C499 C498 1.391 . S
H500 C508 0.950 . S
H501 C513 0.950 . S
H502 C510 0.950 . S
H503 C512 0.950 . S
H504 C514 0.950 . S
H505 C516 0.950 . S
H506 C518 0.950 . S
H507 C519 0.950 . S
C508 H500 0.950 . S
C508 C509 1.386 . S
C508 C510 1.391 . S
C509 C508 1.386 . S
C509 C513 1.393 1_554 S
C510 H502 0.950 . S
C510 C508 1.391 . S
C510 C511 1.400 . S
C511 C510 1.400 . S
C511 C512 1.398 1_554 S
C511 C517 1.491 . S
C512 H503 0.950 . S
C512 C511 1.398 1_556 S
C512 C513 1.391 . S
C513 H501 0.950 . S
C513 C509 1.393 1_556 S
C513 C512 1.391 . S
C514 H504 0.950 . S
C514 C515 1.386 1_556 S
C514 C516 1.391 . S
C515 C514 1.386 1_554 S
C515 C519 1.393 . S
C516 H505 0.950 . S
C516 C514 1.391 . S
C516 C517 1.400 1_556 S
C517 C511 1.491 . S
C517 C516 1.400 1_554 S
C517 C518 1.398 . S
C518 H506 0.950 . S
C518 C517 1.398 . S
C518 C519 1.391 . S
C519 H507 0.950 . S
C519 C515 1.393 . S
C519 C518 1.391 . S
H520 C528 0.950 . S
H521 C533 0.950 . S
H522 C530 0.950 . S
H523 C532 0.950 . S
H524 C534 0.950 . S
H525 C536 0.950 . S
H526 C538 0.950 . S
H527 C539 0.950 . S
C528 H520 0.950 . S
C528 C529 1.386 . S
C528 C530 1.391 . S
C529 C528 1.386 . S
C529 C533 1.393 . S
C530 H522 0.950 . S
C530 C528 1.391 . S
C530 C531 1.400 . S
C531 C530 1.400 . S
C531 C532 1.398 . S
C531 C537 1.491 . S
C532 H523 0.950 . S
C532 C531 1.398 . S
C532 C533 1.391 . S
C533 H521 0.950 . S
C533 C529 1.393 . S
C533 C532 1.391 . S
C534 H524 0.950 . S
C534 C535 1.386 . S
C534 C536 1.391 . S
C535 C534 1.386 . S
C535 C539 1.393 . S
C536 H525 0.950 . S
C536 C534 1.391 . S
C536 C537 1.400 . S
C537 C531 1.491 . S
C537 C536 1.400 . S
C537 C538 1.398 . S
C538 H526 0.950 . S
C538 C537 1.398 . S
C538 C539 1.391 . S
C539 H527 0.950 . S
C539 C535 1.393 . S
C539 C538 1.391 . S
H540 C548 0.950 . S
H541 C553 0.950 . S
H542 C550 0.950 . S
H543 C552 0.950 . S
H544 C554 0.950 . S
H545 C556 0.950 . S
H546 C558 0.950 . S
H547 C559 0.950 . S
C548 H540 0.950 . S
C548 C549 1.386 . S
C548 C550 1.391 . S
C549 C548 1.386 . S
C549 C553 1.393 . S
C550 H542 0.950 . S
C550 C548 1.391 . S
C550 C551 1.400 . S
C551 C550 1.400 . S
C551 C552 1.398 . S
C551 C557 1.491 . S
C552 H543 0.950 . S
C552 C551 1.398 . S
C552 C553 1.391 . S
C553 H541 0.950 . S
C553 C549 1.393 . S
C553 C552 1.391 . S
C554 H544 0.950 . S
C554 C555 1.386 . S
C554 C556 1.391 . S
C555 C554 1.386 . S
C555 C559 1.393 . S
C556 H545 0.950 . S
C556 C554 1.391 . S
C556 C557 1.400 . S
C557 C551 1.491 . S
C557 C556 1.400 . S
C557 C558 1.398 . S
C558 H546 0.950 . S
C558 C557 1.398 . S
C558 C559 1.391 . S
C559 H547 0.950 . S
C559 C555 1.393 . S
C559 C558 1.391 . S
H560 C568 0.950 . S
H561 C573 0.950 . S
H562 C570 0.950 . S
H563 C572 0.950 . S
H564 C574 0.950 . S
H565 C576 0.950 . S
H566 C578 0.950 . S
H567 C579 0.950 . S
C568 H560 0.950 . S
C568 C569 1.386 . S
C568 C570 1.391 . S
C569 C568 1.386 . S
C569 C573 1.393 1_455 S
C570 H562 0.950 . S
C570 C568 1.391 . S
C570 C571 1.400 . S
C571 C570 1.400 . S
C571 C572 1.398 1_455 S
C571 C577 1.491 1_455 S
C572 H563 0.950 . S
C572 C571 1.398 1_655 S
C572 C573 1.391 . S
C573 H561 0.950 . S
C573 C569 1.393 1_655 S
C573 C572 1.391 . S
C574 H564 0.950 . S
C574 C575 1.386 . S
C574 C576 1.391 . S
C575 C574 1.386 . S
C575 C579 1.393 1_655 S
C576 H565 0.950 . S
C576 C574 1.391 . S
C576 C577 1.400 . S
C577 C571 1.491 1_655 S
C577 C576 1.400 . S
C577 C578 1.398 1_655 S
C578 H566 0.950 . S
C578 C577 1.398 1_455 S
C578 C579 1.391 . S
C579 H567 0.950 . S
C579 C575 1.393 1_455 S
C579 C578 1.391 . S
H580 C588 0.950 . S
H581 C593 0.950 1_455 S
H582 C590 0.950 . S
H583 C592 0.950 . S
H584 C594 0.950 . S
H585 C596 0.950 . S
H586 C598 0.950 . S
H587 C599 0.950 1_655 S
C588 H580 0.950 . S
C588 C589 1.386 . S
C588 C590 1.391 . S
C589 C588 1.386 . S
C589 C593 1.393 . S
C590 H582 0.950 . S
C590 C588 1.391 . S
C590 C591 1.400 . S
C591 C590 1.400 . S
C591 C592 1.398 1_655 S
C591 C597 1.491 1_655 S
C592 H583 0.950 . S
C592 C591 1.398 1_455 S
C592 C593 1.391 1_455 S
C593 H581 0.950 1_655 S
C593 C589 1.393 . S
C593 C592 1.391 1_655 S
C594 H584 0.950 . S
C594 C595 1.386 . S
C594 C596 1.391 . S
C595 C594 1.386 . S
C595 C599 1.393 . S
C596 H585 0.950 . S
C596 C594 1.391 . S
C596 C597 1.400 . S
C597 C591 1.491 1_455 S
C597 C596 1.400 . S
C597 C598 1.398 1_455 S
C598 H586 0.950 . S
C598 C597 1.398 1_655 S
C598 C599 1.391 1_655 S
C599 H587 0.950 1_455 S
C599 C595 1.393 . S
C599 C598 1.391 1_455 S
H600 C608 0.956 . S
H601 C613 0.950 . S
H602 C610 0.950 . S
H603 C612 0.950 . S
H604 C614 0.956 . S
H605 C616 0.950 . S
H606 C618 0.950 . S
H607 C619 0.950 . S
C608 H600 0.956 . S
C608 C609 1.374 1_455 S
C608 C610 1.396 . S
C609 C608 1.374 1_655 S
C609 C613 1.393 . S
C610 H602 0.950 . S
C610 C608 1.396 . S
C610 C611 1.400 1_455 S
C611 C610 1.400 1_655 S
C611 C612 1.398 . S
C611 C617 1.491 1_655 S
C612 H603 0.950 . S
C612 C611 1.398 . S
C612 C613 1.391 . S
C613 H601 0.950 . S
C613 C609 1.393 . S
C613 C612 1.391 . S
C614 H604 0.956 . S
C614 C615 1.374 1_655 S
C614 C616 1.396 . S
C615 C614 1.374 1_455 S
C615 C619 1.393 . S
C616 H605 0.950 . S
C616 C614 1.396 . S
C616 C617 1.400 1_655 S
C617 C611 1.491 1_455 S
C617 C616 1.400 1_455 S
C617 C618 1.398 . S
C618 H606 0.950 . S
C618 C617 1.398 . S
C618 C619 1.391 . S
C619 H607 0.950 . S
C619 C615 1.393 . S
C619 C618 1.391 . S
H620 C628 0.950 . S
H621 C633 0.950 . S
H622 C630 0.950 . S
H623 C632 0.950 1_455 S
H624 C634 0.950 . S
H625 C636 0.950 . S
H626 C638 0.950 1_655 S
H627 C639 0.950 . S
C628 H620 0.950 . S
C628 C629 1.386 . S
C628 C630 1.391 . S
C629 C628 1.386 . S
C629 C633 1.393 . S
C630 H622 0.950 . S
C630 C628 1.391 . S
C630 C631 1.400 . S
C631 C630 1.400 . S
C631 C632 1.398 . S
C631 C637 1.491 1_655 S
C632 H623 0.950 1_655 S
C632 C631 1.398 . S
C632 C633 1.391 . S
C633 H621 0.950 . S
C633 C629 1.393 . S
C633 C632 1.391 . S
C634 H624 0.950 . S
C634 C635 1.386 . S
C634 C636 1.391 . S
C635 C634 1.386 . S
C635 C639 1.393 . S
C636 H625 0.950 . S
C636 C634 1.391 . S
C636 C637 1.400 . S
C637 C631 1.491 1_455 S
C637 C636 1.400 . S
C637 C638 1.398 . S
C638 H626 0.950 1_455 S
C638 C637 1.398 . S
C638 C639 1.391 . S
C639 H627 0.950 . S
C639 C635 1.393 . S
C639 C638 1.391 . S
H640 C648 0.950 . S
H641 C653 0.950 . S
H642 C650 0.950 . S
H643 C652 0.950 . S
H644 C654 0.950 . S
H645 C656 0.950 . S
H646 C658 0.950 . S
H647 C659 0.950 . S
C648 H640 0.950 . S
C648 C649 1.386 . S
C648 C650 1.391 . S
C649 C648 1.386 . S
C649 C653 1.393 . S
C650 H642 0.950 . S
C650 C648 1.391 . S
C650 C651 1.400 . S
C651 C650 1.400 . S
C651 C652 1.398 . S
C651 C657 1.491 . S
C652 H643 0.950 . S
C652 C651 1.398 . S
C652 C653 1.391 . S
C653 H641 0.950 . S
C653 C649 1.393 . S
C653 C652 1.391 . S
C654 H644 0.950 . S
C654 C655 1.386 . S
C654 C656 1.391 . S
C655 C654 1.386 . S
C655 C659 1.393 . S
C656 H645 0.950 . S
C656 C654 1.391 . S
C656 C657 1.400 . S
C657 C651 1.491 . S
C657 C656 1.400 . S
C657 C658 1.398 . S
C658 H646 0.950 . S
C658 C657 1.398 . S
C658 C659 1.391 . S
C659 H647 0.950 . S
C659 C655 1.393 . S
C659 C658 1.391 . S
H660 C668 0.950 . S
H661 C673 0.950 . S
H662 C670 0.950 . S
H663 C672 0.950 . S
H664 C674 0.950 . S
H665 C676 0.950 . S
H666 C678 0.950 . S
H667 C679 0.950 . S
C668 H660 0.950 . S
C668 C669 1.386 . S
C668 C670 1.391 . S
C669 C668 1.386 . S
C669 C673 1.393 . S
C670 H662 0.950 . S
C670 C668 1.391 . S
C670 C671 1.400 . S
C671 C670 1.400 . S
C671 C672 1.398 . S
C671 C677 1.491 . S
C672 H663 0.950 . S
C672 C671 1.398 . S
C672 C673 1.391 . S
C673 H661 0.950 . S
C673 C669 1.393 . S
C673 C672 1.391 . S
C674 H664 0.950 . S
C674 C675 1.386 . S
C674 C676 1.391 . S
C675 C674 1.386 . S
C675 C679 1.393 . S
C676 H665 0.950 . S
C676 C674 1.391 . S
C676 C677 1.400 . S
C677 C671 1.491 . S
C677 C676 1.400 . S
C677 C678 1.398 . S
C678 H666 0.950 . S
C678 C677 1.398 . S
C678 C679 1.391 . S
C679 H667 0.950 . S
C679 C675 1.393 . S
C679 C678 1.391 . S
H680 C688 0.950 . S
H681 C693 0.950 . S
H682 C690 0.950 . S
H683 C692 0.950 . S
H684 C694 0.950 . S
H685 C696 0.950 . S
H686 C698 0.950 . S
H687 C699 0.950 . S
C688 H680 0.950 . S
C688 C689 1.386 . S
C688 C690 1.391 . S
C689 C688 1.386 . S
C689 C693 1.393 . S
C690 H682 0.950 . S
C690 C688 1.391 . S
C690 C691 1.400 . S
C691 C690 1.400 . S
C691 C692 1.398 . S
C691 C697 1.491 . S
C692 H683 0.950 . S
C692 C691 1.398 . S
C692 C693 1.391 . S
C693 H681 0.950 . S
C693 C689 1.393 . S
C693 C692 1.391 . S
C694 H684 0.950 . S
C694 C695 1.386 . S
C694 C696 1.391 . S
C695 C694 1.386 . S
C695 C699 1.393 . S
C696 H685 0.950 . S
C696 C694 1.391 . S
C696 C697 1.400 . S
C697 C691 1.491 . S
C697 C696 1.400 . S
C697 C698 1.398 . S
C698 H686 0.950 . S
C698 C697 1.398 . S
C698 C699 1.391 . S
C699 H687 0.950 . S
C699 C695 1.393 . S
C699 C698 1.391 . S
H700 C708 0.950 . S
H701 C713 0.950 . S
H702 C710 0.950 . S
H703 C712 0.950 . S
H704 C714 0.950 . S
H705 C716 0.950 . S
H706 C718 0.950 . S
H707 C719 0.950 . S
C708 H700 0.950 . S
C708 C709 1.386 . S
C708 C710 1.391 . S
C709 C708 1.386 . S
C709 C713 1.393 . S
C710 H702 0.950 . S
C710 C708 1.391 . S
C710 C711 1.400 . S
C711 C710 1.400 . S
C711 C712 1.398 . S
C711 C717 1.491 . S
C712 H703 0.950 . S
C712 C711 1.398 . S
C712 C713 1.391 . S
C713 H701 0.950 . S
C713 C709 1.393 . S
C713 C712 1.391 . S
C714 H704 0.950 . S
C714 C715 1.386 . S
C714 C716 1.391 . S
C715 C714 1.386 . S
C715 C719 1.393 . S
C716 H705 0.950 . S
C716 C714 1.391 . S
C716 C717 1.400 . S
C717 C711 1.491 . S
C717 C716 1.400 . S
C717 C718 1.398 . S
C718 H706 0.950 . S
C718 C717 1.398 . S
C718 C719 1.391 . S
C719 H707 0.950 . S
C719 C715 1.393 . S
C719 C718 1.391 . S
C249 N14 1.127 . S
C255 N6 1.127 1_554 S
C269 N44 1.125 . S
C275 N36 1.125 1_554 S
C289 N74 1.122 . S
C295 N66 1.122 . S
C309 N104 1.107 . S
C315 N96 1.107 . S
C329 N134 1.122 . S
C335 N126 1.122 1_554 S
C349 N156 1.125 1_554 S
C355 N164 1.125 . S
C369 N194 1.128 . S
C375 N186 1.128 . S
C389 N216 1.120 . S
C395 N224 1.120 . S
C409 C57 1.588 . S
C415 C16 1.588 . S
C429 C106 1.592 . S
C435 C87 1.592 . S
C449 C136 1.589 . S
C455 C177 1.589 . S
C469 C207 1.590 . S
C475 C226 1.590 . S
C489 C27 1.759 . S
C495 C166 1.759 . S
C509 C147 1.768 . S
C515 C46 1.768 . S
C529 C76 1.767 . S
C535 C237 1.767 . S
C549 C117 1.770 . S
C555 C196 1.770 . S
C569 C10 1.654 . S
C575 C100 1.650 . S
C589 C40 1.585 . S
C595 C70 1.587 . S
C609 C31 1.646 . S
C615 C61 1.643 . S
C629 C91 1.594 . S
C635 C1 1.592 . S
C649 C130 1.658 . S
C655 C220 1.655 . S
C669 C160 1.589 . S
C675 C190 1.585 . S
C689 C151 1.646 . S
C695 C181 1.650 . S
C709 C211 1.594 . S
C715 C121 1.592 . S
