# Generated by pormake.
# Topology ubt, (5)-cn, num edge types: 1
# Building blocks:
#     Node 0, Type 0, BuildingBlock: BEQFEK_clean_sbu_0, # of connection points: 5
#     Node 1, Type 0, BuildingBlock: BEQFEK_clean_sbu_0, # of connection points: 5
#     Node 2, Type 0, BuildingBlock: BEQFEK_clean_sbu_0, # of connection points: 5
#     Node 3, Type 0, BuildingBlock: BEQFEK_clean_sbu_0, # of connection points: 5
#     Node 4, Type 0, BuildingBlock: BEQFEK_clean_sbu_0, # of connection points: 5
#     Node 5, Type 0, BuildingBlock: BEQFEK_clean_sbu_0, # of connection points: 5
#     Node 6, Type 0, BuildingBlock: BEQFEK_clean_sbu_0, # of connection points: 5
#     Node 7, Type 0, BuildingBlock: BEQFEK_clean_sbu_0, # of connection points: 5
#     Node 8, Type 0, BuildingBlock: BEQFEK_clean_sbu_0, # of connection points: 5
#     Node 9, Type 0, BuildingBlock: BEQFEK_clean_sbu_0, # of connection points: 5
#     Node 10, Type 0, BuildingBlock: BEQFEK_clean_sbu_0, # of connection points: 5
#     Node 11, Type 0, BuildingBlock: BEQFEK_clean_sbu_0, # of connection points: 5
#     Node 12, Type 0, BuildingBlock: BEQFEK_clean_sbu_0, # of connection points: 5
#     Node 13, Type 0, BuildingBlock: BEQFEK_clean_sbu_0, # of connection points: 5
#     Node 14, Type 0, BuildingBlock: BEQFEK_clean_sbu_0, # of connection points: 5
#     Node 15, Type 0, BuildingBlock: BEQFEK_clean_sbu_0, # of connection points: 5
#     Node 16, Type 0, BuildingBlock: BEQFEK_clean_sbu_0, # of connection points: 5
#     Node 17, Type 0, BuildingBlock: BEQFEK_clean_sbu_0, # of connection points: 5
#     Node 18, Type 0, BuildingBlock: BEQFEK_clean_sbu_0, # of connection points: 5
#     Node 19, Type 0, BuildingBlock: BEQFEK_clean_sbu_0, # of connection points: 5
#     Node 20, Type 0, BuildingBlock: BEQFEK_clean_sbu_0, # of connection points: 5
#     Node 21, Type 0, BuildingBlock: BEQFEK_clean_sbu_0, # of connection points: 5
#     Node 22, Type 0, BuildingBlock: BEQFEK_clean_sbu_0, # of connection points: 5
#     Node 23, Type 0, BuildingBlock: BEQFEK_clean_sbu_0, # of connection points: 5
#     Node 24, Type 0, BuildingBlock: BEQFEK_clean_sbu_0, # of connection points: 5
#     Node 25, Type 0, BuildingBlock: BEQFEK_clean_sbu_0, # of connection points: 5
#     Node 26, Type 0, BuildingBlock: BEQFEK_clean_sbu_0, # of connection points: 5
#     Node 27, Type 0, BuildingBlock: BEQFEK_clean_sbu_0, # of connection points: 5
#     Node 28, Type 0, BuildingBlock: BEQFEK_clean_sbu_0, # of connection points: 5
#     Node 29, Type 0, BuildingBlock: BEQFEK_clean_sbu_0, # of connection points: 5
#     Node 30, Type 0, BuildingBlock: BEQFEK_clean_sbu_0, # of connection points: 5
#     Node 31, Type 0, BuildingBlock: BEQFEK_clean_sbu_0, # of connection points: 5
#     Node 32, Type 0, BuildingBlock: BEQFEK_clean_sbu_0, # of connection points: 5
#     Node 33, Type 0, BuildingBlock: BEQFEK_clean_sbu_0, # of connection points: 5
#     Node 34, Type 0, BuildingBlock: BEQFEK_clean_sbu_0, # of connection points: 5
#     Node 35, Type 0, BuildingBlock: BEQFEK_clean_sbu_0, # of connection points: 5
#     Node 36, Type 0, BuildingBlock: BEQFEK_clean_sbu_0, # of connection points: 5
#     Node 37, Type 0, BuildingBlock: BEQFEK_clean_sbu_0, # of connection points: 5
#     Node 38, Type 0, BuildingBlock: BEQFEK_clean_sbu_0, # of connection points: 5
#     Node 39, Type 0, BuildingBlock: BEQFEK_clean_sbu_0, # of connection points: 5
#     Node 40, Type 0, BuildingBlock: BEQFEK_clean_sbu_0, # of connection points: 5
#     Node 41, Type 0, BuildingBlock: BEQFEK_clean_sbu_0, # of connection points: 5
#     Node 42, Type 0, BuildingBlock: BEQFEK_clean_sbu_0, # of connection points: 5
#     Node 43, Type 0, BuildingBlock: BEQFEK_clean_sbu_0, # of connection points: 5
#     Node 44, Type 0, BuildingBlock: BEQFEK_clean_sbu_0, # of connection points: 5
#     Node 45, Type 0, BuildingBlock: BEQFEK_clean_sbu_0, # of connection points: 5
#     Node 46, Type 0, BuildingBlock: BEQFEK_clean_sbu_0, # of connection points: 5
#     Node 47, Type 0, BuildingBlock: BEQFEK_clean_sbu_0, # of connection points: 5
#     Edge 48, Type (0, 0), None
#     Edge 49, Type (0, 0), None
#     Edge 50, Type (0, 0), None
#     Edge 51, Type (0, 0), None
#     Edge 52, Type (0, 0), None
#     Edge 53, Type (0, 0), None
#     Edge 54, Type (0, 0), None
#     Edge 55, Type (0, 0), None
#     Edge 56, Type (0, 0), None
#     Edge 57, Type (0, 0), None
#     Edge 58, Type (0, 0), None
#     Edge 59, Type (0, 0), None
#     Edge 60, Type (0, 0), None
#     Edge 61, Type (0, 0), None
#     Edge 62, Type (0, 0), None
#     Edge 63, Type (0, 0), None
#     Edge 64, Type (0, 0), None
#     Edge 65, Type (0, 0), None
#     Edge 66, Type (0, 0), None
#     Edge 67, Type (0, 0), None
#     Edge 68, Type (0, 0), None
#     Edge 69, Type (0, 0), None
#     Edge 70, Type (0, 0), None
#     Edge 71, Type (0, 0), None
#     Edge 72, Type (0, 0), None
#     Edge 73, Type (0, 0), None
#     Edge 74, Type (0, 0), None
#     Edge 75, Type (0, 0), None
#     Edge 76, Type (0, 0), None
#     Edge 77, Type (0, 0), None
#     Edge 78, Type (0, 0), None
#     Edge 79, Type (0, 0), None
#     Edge 80, Type (0, 0), None
#     Edge 81, Type (0, 0), None
#     Edge 82, Type (0, 0), None
#     Edge 83, Type (0, 0), None
#     Edge 84, Type (0, 0), None
#     Edge 85, Type (0, 0), None
#     Edge 86, Type (0, 0), None
#     Edge 87, Type (0, 0), None
#     Edge 88, Type (0, 0), None
#     Edge 89, Type (0, 0), None
#     Edge 90, Type (0, 0), None
#     Edge 91, Type (0, 0), None
#     Edge 92, Type (0, 0), None
#     Edge 93, Type (0, 0), None
#     Edge 94, Type (0, 0), None
#     Edge 95, Type (0, 0), None
#     Edge 96, Type (0, 0), None
#     Edge 97, Type (0, 0), None
#     Edge 98, Type (0, 0), None
#     Edge 99, Type (0, 0), None
#     Edge 100, Type (0, 0), None
#     Edge 101, Type (0, 0), None
#     Edge 102, Type (0, 0), None
#     Edge 103, Type (0, 0), None
#     Edge 104, Type (0, 0), None
#     Edge 105, Type (0, 0), None
#     Edge 106, Type (0, 0), None
#     Edge 107, Type (0, 0), None
#     Edge 108, Type (0, 0), None
#     Edge 109, Type (0, 0), None
#     Edge 110, Type (0, 0), None
#     Edge 111, Type (0, 0), None
#     Edge 112, Type (0, 0), None
#     Edge 113, Type (0, 0), None
#     Edge 114, Type (0, 0), None
#     Edge 115, Type (0, 0), None
#     Edge 116, Type (0, 0), None
#     Edge 117, Type (0, 0), None
#     Edge 118, Type (0, 0), None
#     Edge 119, Type (0, 0), None
#     Edge 120, Type (0, 0), None
#     Edge 121, Type (0, 0), None
#     Edge 122, Type (0, 0), None
#     Edge 123, Type (0, 0), None
#     Edge 124, Type (0, 0), None
#     Edge 125, Type (0, 0), None
#     Edge 126, Type (0, 0), None
#     Edge 127, Type (0, 0), None
#     Edge 128, Type (0, 0), None
#     Edge 129, Type (0, 0), None
#     Edge 130, Type (0, 0), None
#     Edge 131, Type (0, 0), None
#     Edge 132, Type (0, 0), None
#     Edge 133, Type (0, 0), None
#     Edge 134, Type (0, 0), None
#     Edge 135, Type (0, 0), None
#     Edge 136, Type (0, 0), None
#     Edge 137, Type (0, 0), None
#     Edge 138, Type (0, 0), None
#     Edge 139, Type (0, 0), None
#     Edge 140, Type (0, 0), None
#     Edge 141, Type (0, 0), None
#     Edge 142, Type (0, 0), None
#     Edge 143, Type (0, 0), None
#     Edge 144, Type (0, 0), None
#     Edge 145, Type (0, 0), None
#     Edge 146, Type (0, 0), None
#     Edge 147, Type (0, 0), None
#     Edge 148, Type (0, 0), None
#     Edge 149, Type (0, 0), None
#     Edge 150, Type (0, 0), None
#     Edge 151, Type (0, 0), None
#     Edge 152, Type (0, 0), None
#     Edge 153, Type (0, 0), None
#     Edge 154, Type (0, 0), None
#     Edge 155, Type (0, 0), None
#     Edge 156, Type (0, 0), None
#     Edge 157, Type (0, 0), None
#     Edge 158, Type (0, 0), None
#     Edge 159, Type (0, 0), None
#     Edge 160, Type (0, 0), None
#     Edge 161, Type (0, 0), None
#     Edge 162, Type (0, 0), None
#     Edge 163, Type (0, 0), None
#     Edge 164, Type (0, 0), None
#     Edge 165, Type (0, 0), None
#     Edge 166, Type (0, 0), None
#     Edge 167, Type (0, 0), None
# Relax obj value: 0.505
# Max RMSD: 0.208
# Mean RMSD: 0.179
data_MOF--net-ubt--node1-BEQFEK_clean_sbu_0--edge1-none
_symmetry_space_group_name_H-M    P1
_symmetry_Int_Tables_number       1
_symmetry_cell_setting            triclinic
loop_
_symmetry_equiv_pos_as_xyz
'x, y, z'
_cell_length_a     34.564361
_cell_length_b     34.468914
_cell_length_c     34.555054
_cell_angle_alpha  94.939002
_cell_angle_beta   90.872065
_cell_angle_gamma 91.624041
loop_
_atom_site_label
_atom_site_type_symbol
_atom_site_fract_x
_atom_site_fract_y
_atom_site_fract_z
_atom_type_partial_charge
Co0 Co 0.98749 0.19672 0.24269 0.0
Co1 Co 0.05131 0.24942 0.20958 0.0
C2 C 0.97261 0.24418 0.17546 0.0
O3 O 0.96131 0.22066 0.19949 0.0
O4 O 0.00746 0.25592 0.17456 0.0
C5 C 0.94831 0.12935 0.22414 0.0
O6 O 0.96594 0.13642 0.192 0.0
C7 C 0.1017 0.25574 0.14854 0.0
C8 C 0.15062 0.29385 0.17166 0.0
C9 C 0.13773 0.2695 0.13977 0.0
N10 N 0.09328 0.27057 0.18429 0.0
N11 N 0.12205 0.29424 0.1979 0.0
C12 C 0.07781 0.22471 0.12535 0.0
H13 H 0.05859 0.20882 0.14437 0.0
H14 H 0.0965 0.20368 0.10892 0.0
H15 H 0.05956 0.23863 0.10409 0.0
C16 C 0.05352 0.14636 0.25031 0.0
N17 N 0.03675 0.17591 0.23373 0.0
N18 N 0.06387 0.19868 0.22088 0.0
C19 C 0.09876 0.18484 0.22958 0.0
C20 C 0.09327 0.15141 0.24842 0.0
C21 C 0.0325 0.11828 0.27387 0.0
H22 H 0.01245 0.13421 0.29387 0.0
H23 H 0.01522 0.09718 0.25411 0.0
H24 H 0.05284 0.10186 0.29099 0.0
O25 O 0.99418 0.2393 0.28412 0.0
O26 O 0.03929 0.27741 0.25835 0.0
H27 H 0.13498 0.23596 0.24031 0.0
H28 H 0.16124 0.19162 0.23758 0.0
C29 C 0.13642 0.20633 0.22532 0.0
H30 H 0.14151 0.20858 0.1941 0.0
H31 H 0.12335 0.30837 0.22587 0.0
O32 O 0.95244 0.15347 0.25397 0.0
C33 C 0.01605 0.2699 0.28514 0.0
Co34 Co 0.83944 0.07582 0.19078 0.0
Co35 Co 0.88847 0.02196 0.24319 0.0
C36 C 0.9182 0.09909 0.22251 0.0
O37 O 0.88807 0.10412 0.20268 0.0
O38 O 0.92286 0.06848 0.2397 0.0
C39 C 0.83789 0.10626 0.11758 0.0
O40 O 0.86742 0.0832 0.1138 0.0
C41 C 0.94957 0.965 0.23992 0.0
C42 C 0.94083 0.93395 0.29236 0.0
C43 C 0.96235 0.93386 0.25883 0.0
N44 N 0.92133 0.98249 0.26088 0.0
N45 N 0.91677 0.96417 0.29265 0.0
C46 C 0.96261 0.97651 0.20133 0.0
H47 H 0.94602 0.00139 0.19226 0.0
H48 H 0.95912 0.95134 0.17914 0.0
H49 H 0.9939 0.98475 0.20332 0.0
C50 C 0.82974 0.00115 0.1432 0.0
N51 N 0.84659 0.0237 0.17287 0.0
N52 N 0.8646 0.00124 0.19587 0.0
C53 C 0.85814 0.96383 0.18215 0.0
C54 C 0.83653 0.96273 0.14837 0.0
C55 C 0.80352 0.01506 0.11281 0.0
H56 H 0.78793 0.04098 0.12458 0.0
H57 H 0.82087 0.02259 0.08763 0.0
H58 H 0.782 0.99182 0.10253 0.0
O59 O 0.80947 0.07376 0.24008 0.0
O60 O 0.84462 0.0366 0.27728 0.0
H61 H 0.86692 0.93521 0.23441 0.0
H62 H 0.84787 0.904 0.19384 0.0
C63 C 0.8683 0.92876 0.20255 0.0
H64 H 0.89762 0.9194 0.19421 0.0
H65 H 0.89597 0.97104 0.31352 0.0
O66 O 0.81827 0.10692 0.14868 0.0
C67 C 0.81514 0.05717 0.27151 0.0
Co68 Co 0.99213 0.82274 0.19989 0.0
Co69 Co 0.06212 0.86145 0.25076 0.0
C70 C 0.98735 0.90226 0.2438 0.0
O71 O 0.97313 0.87487 0.22048 0.0
O72 O 0.02124 0.90059 0.25783 0.0
C73 C 0.95191 0.83003 0.12903 0.0
O74 O 0.97739 0.8591 0.1301 0.0
C75 C 0.11783 0.92453 0.25633 0.0
C76 C 0.16805 0.90275 0.28715 0.0
C77 C 0.15595 0.93335 0.26684 0.0
N78 N 0.10775 0.89006 0.26932 0.0
N79 N 0.13751 0.87764 0.2888 0.0
C80 C 0.0934 0.94521 0.22888 0.0
H81 H 0.07558 0.92388 0.20986 0.0
H82 H 0.11139 0.96338 0.21068 0.0
H83 H 0.07354 0.96449 0.24595 0.0
C84 C 0.05667 0.81052 0.14216 0.0
N85 N 0.04252 0.82483 0.17678 0.0
N86 N 0.07147 0.84079 0.19834 0.0
C87 C 0.10462 0.8365 0.17818 0.0
C88 C 0.09643 0.81732 0.14202 0.0
C89 C 0.03355 0.78829 0.1102 0.0
H90 H 0.00897 0.77215 0.12223 0.0
H91 H 0.02239 0.80884 0.09001 0.0
H92 H 0.05205 0.76744 0.09325 0.0
O93 O -0.0044 0.7893 0.24716 0.0
O94 O 0.04624 0.81743 0.28157 0.0
H95 H 0.14903 0.84112 0.22218 0.0
H96 H 0.16716 0.83851 0.17376 0.0
C97 C 0.14401 0.85044 0.19275 0.0
H98 H 0.14609 0.88261 0.19357 0.0
H99 H 0.13799 0.85071 0.30047 0.0
O100 O 0.95181 0.80775 0.15687 0.0
C101 C 0.01871 0.79169 0.27706 0.0
Co102 Co 0.24417 0.98258 0.19678 0.0
Co103 Co 0.2022 0.0465 0.24756 0.0
C104 C 0.18068 0.96348 0.25144 0.0
O105 O 0.20786 0.95339 0.22889 0.0
O106 O 0.17292 0.99895 0.25883 0.0
C107 C 0.22449 0.9325 0.13701 0.0
O108 O 0.19154 0.94488 0.15101 0.0
C109 C 0.13607 0.09357 0.2508 0.0
C110 C 0.15108 0.14302 0.29358 0.0
C111 C 0.12324 0.1289 0.26616 0.0
N112 N 0.17029 0.08708 0.26756 0.0
N113 N 0.17875 0.11619 0.29403 0.0
C114 C 0.11878 0.06922 0.21656 0.0
H115 H 0.13265 0.04059 0.21252 0.0
H116 H 0.12275 0.08478 0.19001 0.0
H117 H 0.0872 0.06485 0.22053 0.0
C118 C 0.23974 0.04007 0.14095 0.0
N119 N 0.22535 0.02533 0.17287 0.0
N120 N 0.2098 0.05337 0.19495 0.0
C121 C 0.21507 0.08714 0.17855 0.0
C122 C 0.23345 0.07957 0.14355 0.0
C123 C 0.26665 0.01905 0.11336 0.0
H124 H 0.29021 0.00639 0.12993 0.0
H125 H 0.25044 0.99499 0.0963 0.0
H126 H 0.27948 0.03863 0.09281 0.0
O127 O 0.28725 0.00313 0.23142 0.0
O128 O 0.25511 0.04598 0.2707 0.0
H129 H 0.22151 0.12492 0.23107 0.0
H130 H 0.23135 0.14849 0.18808 0.0
C131 C 0.21246 0.12636 0.20038 0.0
H132 H 0.18212 0.13569 0.19909 0.0
H133 H 0.20446 0.119 0.31039 0.0
O134 O 0.25622 0.94439 0.15373 0.0
C135 C 0.28626 0.02903 0.26017 0.0
Co136 Co 0.9896 0.85501 0.80549 0.0
Co137 Co 0.06198 0.79831 0.85179 0.0
C138 C 0.98008 0.81786 0.88777 0.0
O139 O 0.96823 0.83723 0.85946 0.0
O140 O 0.01344 0.80188 0.88844 0.0
C141 C 0.95853 0.92896 0.82145 0.0
O142 O 0.98348 0.92696 0.85014 0.0
C143 C 0.10916 0.79785 0.91803 0.0
C144 C 0.1611 0.76614 0.8992 0.0
C145 C 0.1454 0.78854 0.93 0.0
N146 N 0.10314 0.78198 0.88169 0.0
N147 N 0.13386 0.76221 0.87058 0.0
C148 C 0.08316 0.82668 0.93852 0.0
H149 H 0.0693 0.84473 0.91755 0.0
H150 H 0.09896 0.84618 0.96101 0.0
H151 H 0.0603 0.81034 0.95297 0.0
C152 C 0.06241 0.90882 0.81004 0.0
N153 N 0.04418 0.87834 0.8247 0.0
N154 N 0.07095 0.85745 0.842 0.0
C155 C 0.10598 0.87492 0.83824 0.0
C156 C 0.10155 0.90755 0.81807 0.0
C157 C 0.04441 0.93368 0.78167 0.0
H158 H 0.01973 0.9179 0.76595 0.0
H159 H 0.03405 0.96043 0.79784 0.0
H160 H 0.06581 0.94266 0.76028 0.0
O161 O 0.99341 0.79383 0.76007 0.0
O162 O 0.04332 0.75571 0.79496 0.0
H163 H 0.14444 0.82742 0.83327 0.0
H164 H 0.16883 0.87452 0.83921 0.0
C165 C 0.14347 0.85721 0.84804 0.0
H166 H 0.14534 0.85532 0.8798 0.0
H167 H 0.13737 0.74866 0.84271 0.0
O168 O 0.95465 0.89999 0.79565 0.0
C169 C 0.00994 0.77633 0.79069 0.0
Co170 Co 0.24447 0.09654 0.87052 0.0
Co171 Co 0.20231 0.02721 0.82077 0.0
C172 C 0.17078 0.10572 0.82393 0.0
O173 O 0.19955 0.11916 0.84457 0.0
O174 O 0.1659 0.06953 0.81487 0.0
C175 C 0.22912 0.14496 0.93394 0.0
O176 O 0.19574 0.12743 0.92426 0.0
C177 C 0.14075 0.97053 0.81665 0.0
C178 C 0.16139 0.92136 0.77806 0.0
C179 C 0.13209 0.93252 0.80326 0.0
N180 N 0.1742 0.98149 0.80103 0.0
N181 N 0.18605 0.95236 0.77713 0.0
C182 C 0.1201 0.99432 0.84778 0.0
H183 H 0.13897 0.01859 0.86101 0.0
H184 H 0.11021 0.97576 0.87063 0.0
H185 H 0.09412 0.00667 0.83479 0.0
C186 C 0.25045 0.03574 0.92618 0.0
N187 N 0.23516 0.04895 0.89366 0.0
N188 N 0.21803 0.01965 0.87264 0.0
C189 C 0.22214 0.98689 0.89107 0.0
C190 C 0.2421 0.99607 0.92587 0.0
C191 C 0.2762 0.05966 0.95475 0.0
H192 H 0.29718 0.07727 0.93908 0.0
H193 H 0.25827 0.07995 0.97297 0.0
H194 H 0.29199 0.04114 0.97403 0.0
O195 O 0.28214 0.08682 0.82793 0.0
O196 O 0.24944 0.03955 0.79088 0.0
H197 H 0.22276 0.94463 0.8419 0.0
H198 H 0.23127 0.92487 0.88723 0.0
C199 C 0.21441 0.94648 0.87272 0.0
H200 H 0.18321 0.93891 0.87497 0.0
H201 H 0.21216 0.95268 0.76237 0.0
O202 O 0.25878 0.13674 0.91369 0.0
C203 C 0.27826 0.06359 0.79703 0.0
Co204 Co 0.9874 0.23517 0.88695 0.0
Co205 Co 0.05027 0.19877 0.83175 0.0
C206 C 0.97647 0.15498 0.84472 0.0
O207 O 0.96594 0.18262 0.86847 0.0
O208 O 0.00877 0.15686 0.82808 0.0
C209 C 0.94808 0.22791 0.95528 0.0
O210 O 0.97093 0.19808 0.95429 0.0
C211 C 0.10635 0.13944 0.82367 0.0
C212 C 0.15153 0.16318 0.78718 0.0
C213 C 0.14302 0.13289 0.8099 0.0
N214 N 0.09377 0.17246 0.8103 0.0
N215 N 0.12039 0.18597 0.78748 0.0
C216 C 0.08598 0.11801 0.85372 0.0
H217 H 0.06502 0.09647 0.8389 0.0
H218 H 0.0696 0.13849 0.87334 0.0
H219 H 0.10667 0.10215 0.87101 0.0
C220 C 0.05671 0.25011 0.93985 0.0
N221 N 0.03894 0.23402 0.90694 0.0
N222 N 0.06538 0.21967 0.88317 0.0
C223 C 0.10066 0.22737 0.89999 0.0
C224 C 0.09644 0.24694 0.93621 0.0
C225 C 0.03648 0.27002 0.97361 0.0
H226 H 0.0113 0.28575 0.96334 0.0
H227 H 0.02608 0.24791 0.99285 0.0
H228 H 0.05646 0.29095 0.99068 0.0
O229 O 0.98884 0.27068 0.84381 0.0
O230 O 0.03419 0.2446 0.80453 0.0
H231 H 0.139 0.22579 0.85193 0.0
H232 H 0.16324 0.23215 0.89839 0.0
C233 C 0.13852 0.21709 0.88197 0.0
H234 H 0.14243 0.18532 0.88186 0.0
H235 H 0.11862 0.21222 0.77469 0.0
O236 O 0.95056 0.25127 0.92875 0.0
C237 C 0.00948 0.27077 0.81337 0.0
Co238 Co 0.88836 0.07111 0.83131 0.0
Co239 Co 0.8365 0.01336 0.87429 0.0
C240 C 0.85143 0.09418 0.90832 0.0
O241 O 0.87256 0.10094 0.87997 0.0
O242 O 0.83639 0.06074 0.91086 0.0
C243 C 0.95385 0.11807 0.84253 0.0
O244 O 0.95212 0.09943 0.87404 0.0
C245 C 0.83773 0.96947 0.9386 0.0
C246 C 0.79417 0.92184 0.92638 0.0
C247 C 0.82308 0.93613 0.9525 0.0
N248 N 0.81882 0.97492 0.90549 0.0
N249 N 0.79217 0.94684 0.89846 0.0
C250 C 0.87066 0.99505 0.95548 0.0
H251 H 0.88938 0.00449 0.93206 0.0
H252 H 0.88816 0.98025 0.97667 0.0
H253 H 0.85872 0.02149 0.97093 0.0
C254 C 0.93785 0.00052 0.82211 0.0
N255 N 0.90834 0.02084 0.83831 0.0
N256 N 0.88417 0.99621 0.85311 0.0
C257 C 0.89621 0.95957 0.84464 0.0
C258 C 0.93076 0.96085 0.8251 0.0
C259 C 0.97032 0.01814 0.80083 0.0
H260 H 0.96095 0.04487 0.78819 0.0
H261 H -0.00527 0.02605 0.82151 0.0
H262 H 0.98051 0.99707 0.77737 0.0
O263 O 0.84046 0.06094 0.79652 0.0
O264 O 0.80368 0.02119 0.8303 0.0
H265 H 0.84269 0.9271 0.83633 0.0
H266 H 0.88496 0.89726 0.83429 0.0
C267 C 0.87196 0.92357 0.84894 0.0
H268 H 0.86855 0.91925 0.87988 0.0
H269 H 0.77422 0.94362 0.87377 0.0
O270 O 0.92947 0.1087 0.81491 0.0
C271 C 0.80951 0.04028 0.80087 0.0
Co272 Co 0.19862 0.2501 3e-05 0.0
Co273 Co 0.24453 0.19524 0.05121 0.0
C274 C 0.23055 0.17432 0.96702 0.0
O275 O 0.21203 0.20507 0.96443 0.0
O276 O 0.24433 0.16597 -0.00073 0.0
C277 C 0.12544 0.24777 0.96771 0.0
O278 O 0.12535 0.21771 0.98856 0.0
C279 C 0.23564 0.12785 0.09263 0.0
C280 C 0.28758 0.1282 0.13052 0.0
C281 C 0.25265 0.10857 0.12124 0.0
N282 N 0.25903 0.15787 0.08513 0.0
N283 N 0.29052 0.15765 0.1073 0.0
C284 C 0.19624 0.11957 0.0748 0.0
H285 H 0.19202 0.13614 0.04901 0.0
H286 H 0.17399 0.12787 0.09657 0.0
H287 H 0.19227 0.08787 0.06642 0.0
C288 C 0.15413 0.26086 0.06875 0.0
N289 N 0.17775 0.23808 0.04678 0.0
N290 N 0.19744 0.2164 0.0691 0.0
C291 C 0.18728 0.22549 0.10625 0.0
C292 C 0.15987 0.25384 0.10684 0.0
C293 C 0.13247 0.29426 0.05503 0.0
H294 H 0.14989 0.30927 0.03382 0.0
H295 H 0.10501 0.28297 0.04079 0.0
H296 H 0.12531 0.31562 0.07958 0.0
O297 O 0.24601 0.28246 0.01887 0.0
O298 O 0.2791 0.24122 0.05357 0.0
H299 H 0.23927 0.21247 0.13652 0.0
H300 H 0.20163 0.23095 0.16773 0.0
C301 C 0.20762 0.2122 0.14094 0.0
H302 H 0.19727 0.18216 0.14474 0.0
H303 H 0.31311 0.17843 0.10774 0.0
O304 O 0.15548 0.27044 0.96859 0.0
C305 C 0.27452 0.27464 0.0411 0.0
Co306 Co 0.1952 0.8239 0.07512 0.0
Co307 Co 0.24428 0.87924 0.02294 0.0
C308 C 0.22369 0.90337 0.10423 0.0
O309 O 0.20462 0.87212 0.10728 0.0
O310 O 0.24027 0.91034 0.07311 0.0
C311 C 0.12171 0.81755 0.10791 0.0
O312 O 0.11627 0.84463 0.08407 0.0
C313 C 0.23642 0.94411 0.97445 0.0
C314 C 0.29476 0.95373 0.95172 0.0
C315 C 0.25756 0.96778 0.95165 0.0
N316 N 0.25979 0.91742 0.9878 0.0
N317 N 0.29486 0.92364 0.97438 0.0
C318 C 0.19444 0.94731 0.98369 0.0
H319 H 0.18695 0.93031 0.00852 0.0
H320 H 0.1767 0.93613 0.95787 0.0
H321 H 0.18743 0.97835 0.99054 0.0
C322 C 0.1559 0.80429 0.00239 0.0
N323 N 0.17754 0.83052 0.02503 0.0
N324 N 0.19912 0.85134 0.00287 0.0
C325 C 0.19243 0.83806 0.96547 0.0
C326 C 0.16531 0.80778 0.96423 0.0
C327 C 0.13182 0.77205 0.01704 0.0
H328 H 0.14764 0.75908 0.04067 0.0
H329 H 0.10456 0.78402 0.02888 0.0
H330 H 0.12437 0.74895 0.99349 0.0
O331 O 0.24575 0.7973 0.06614 0.0
O332 O 0.28084 0.83732 0.03061 0.0
H333 H 0.24618 0.85499 0.94056 0.0
H334 H 0.21263 0.82899 0.90638 0.0
C335 C 0.21523 0.85058 0.93204 0.0
H336 H 0.204 0.87847 0.92379 0.0
H337 H 0.31879 0.90726 0.98048 0.0
O338 O 0.15385 0.80004 0.1071 0.0
C339 C 0.27644 0.80597 0.04772 0.0
Co340 Co 0.83536 0.18939 0.98792 0.0
Co341 Co 0.87557 0.24258 0.05524 0.0
C342 C 0.91397 0.22722 0.97966 0.0
O343 O 0.88447 0.20774 0.96639 0.0
O344 O 0.91594 0.24106 0.01476 0.0
C345 C 0.85043 0.12346 0.9415 0.0
O346 O 0.88188 0.12965 0.96316 0.0
C347 C 0.936 0.24576 0.11169 0.0
C348 C 0.91625 0.2862 0.15986 0.0
C349 C 0.94446 0.25966 0.1494 0.0
N350 N 0.90368 0.26259 0.10023 0.0
N351 N 0.89243 0.28758 0.12872 0.0
C352 C 0.95543 0.21325 0.08865 0.0
H353 H 0.97635 0.2259 0.06882 0.0
H354 H 0.93389 0.19496 0.07069 0.0
H355 H 0.9715 0.19483 0.10784 0.0
C356 C 0.82981 0.13471 0.05142 0.0
N357 N 0.84085 0.16876 0.03739 0.0
N358 N 0.85456 0.1927 0.06635 0.0
C359 C 0.85081 0.1752 0.09977 0.0
C360 C 0.83547 0.13787 0.09149 0.0
C361 C 0.8135 0.09982 0.02727 0.0
H362 H 0.79325 0.10902 0.00484 0.0
H363 H 0.83747 0.08419 0.01245 0.0
H364 H 0.79818 0.07957 0.04557 0.0
O365 O 0.80037 0.23597 0.9939 0.0
O366 O 0.83219 0.27534 0.03968 0.0
H367 H 0.85434 0.22442 0.14217 0.0
H368 H 0.84583 0.1787 0.16222 0.0
C369 C 0.86158 0.1933 0.13952 0.0
H370 H 0.89295 0.19006 0.1449 0.0
H371 H 0.8671 0.30328 0.12795 0.0
O372 O 0.82174 0.14569 0.94746 0.0
C373 C 0.80429 0.26846 0.01504 0.0
Co374 Co 0.84141 0.86087 0.08147 0.0
Co375 Co 0.89274 0.82198 0.01694 0.0
C376 C 0.92067 0.82857 0.09924 0.0
O377 O 0.88911 0.84461 0.10864 0.0
O378 O 0.92804 0.81888 0.06368 0.0
C379 C 0.83961 0.93203 0.11754 0.0
O380 O 0.87009 0.93323 0.09548 0.0
C381 C 0.95207 0.81324 0.95619 0.0
C382 C 0.91436 0.79257 0.90587 0.0
C383 C 0.95127 0.8068 0.91593 0.0
N384 N 0.91649 0.80469 0.96907 0.0
N385 N 0.89457 0.7912 0.93893 0.0
C386 C 0.98364 0.83315 0.98123 0.0
H387 H 0.9712 0.85033 0.00644 0.0
H388 H 0.0019 0.8524 0.96436 0.0
H389 H 0.00207 0.81071 0.99259 0.0
C390 C 0.82536 0.90823 0.01806 0.0
N391 N 0.84869 0.88409 0.03532 0.0
N392 N 0.87679 0.87357 0.01197 0.0
C393 C 0.87397 0.89367 0.98028 0.0
C394 C 0.8408 0.91528 0.98292 0.0
C395 C 0.78682 0.92073 0.03281 0.0
H396 H 0.77728 0.90333 0.05664 0.0
H397 H 0.78901 0.95201 0.04337 0.0
H398 H 0.76485 0.91756 0.00889 0.0
O399 O 0.80677 0.81834 0.0667 0.0
O400 O 0.84268 0.78985 0.01952 0.0
H401 H 0.89182 0.86997 0.92444 0.0
H402 H 0.90415 0.92069 0.93531 0.0
C403 C 0.90191 0.8922 0.94772 0.0
H404 H 0.93104 0.88578 0.95843 0.0
H405 H 0.86511 0.78416 0.94056 0.0
O406 O 0.8198 0.90053 0.11801 0.0
C407 C 0.81124 0.79276 0.03856 0.0
Co408 Co 0.97942 0.72597 0.76428 0.0
Co409 Co 0.05142 0.7795 0.7311 0.0
C410 C 0.97306 0.76863 0.68914 0.0
O411 O 0.95858 0.74726 0.71427 0.0
O412 O 0.00734 0.7834 0.69228 0.0
C413 C 0.93818 0.65663 0.7446 0.0
O414 O 0.95655 0.66236 0.71252 0.0
C415 C 0.10069 0.77948 0.66443 0.0
C416 C 0.15295 0.8135 0.68509 0.0
C417 C 0.13742 0.79027 0.65349 0.0
N418 N 0.09459 0.79516 0.70086 0.0
N419 N 0.12566 0.8164 0.71273 0.0
C420 C 0.07363 0.75085 0.6419 0.0
H421 H 0.05563 0.73447 0.66149 0.0
H422 H 0.08967 0.73001 0.62232 0.0
H423 H 0.05411 0.76706 0.62372 0.0
C424 C 0.04245 0.66864 0.76122 0.0
N425 N 0.02773 0.70089 0.74769 0.0
N426 N 0.05648 0.72213 0.73428 0.0
C427 C 0.08999 0.70395 0.73957 0.0
C428 C 0.08208 0.66964 0.75646 0.0
C429 C 0.02116 0.64287 0.78707 0.0
H430 H 0.0023 0.66049 0.80691 0.0
H431 H 0.00302 0.62116 0.76889 0.0
H432 H 0.04125 0.62668 0.80468 0.0
O433 O 0.9899 0.77552 0.816 0.0
O434 O 0.04495 0.81684 0.78855 0.0
H435 H 0.12864 0.75305 0.7528 0.0
H436 H 0.1522 0.70718 0.75079 0.0
C437 C 0.12905 0.72346 0.73752 0.0
H438 H 0.13606 0.72582 0.70668 0.0
H439 H 0.12926 0.83065 0.74051 0.0
O440 O 0.94185 0.68209 0.77366 0.0
C441 C 0.01771 0.80537 0.81391 0.0
Co442 Co 0.83427 0.59331 0.70699 0.0
Co443 Co 0.88444 0.5443 0.7623 0.0
C444 C 0.90985 0.62411 0.74383 0.0
O445 O 0.87974 0.62617 0.72306 0.0
O446 O 0.91734 0.5932 0.75974 0.0
C447 C 0.84123 0.62021 0.63339 0.0
O448 O 0.87138 0.59822 0.63602 0.0
C449 C 0.94427 0.48658 0.76319 0.0
C450 C 0.93222 0.45729 0.81614 0.0
C451 C 0.95443 0.45509 0.78302 0.0
N452 N 0.91668 0.50617 0.78311 0.0
N453 N 0.91026 0.48899 0.81528 0.0
C454 C 0.95841 0.49598 0.72426 0.0
H455 H 0.94483 0.52259 0.71511 0.0
H456 H 0.95193 0.47109 0.70236 0.0
H457 H 0.99035 0.50045 0.72575 0.0
C458 C 0.82757 0.51711 0.66178 0.0
N459 N 0.84483 0.54124 0.69017 0.0
N460 N 0.86265 0.52025 0.71465 0.0
C461 C 0.85557 0.48218 0.70315 0.0
C462 C 0.83337 0.479 0.66949 0.0
C463 C 0.80218 0.52973 0.63005 0.0
H464 H 0.78514 0.55501 0.64098 0.0
H465 H 0.82045 0.53833 0.60592 0.0
H466 H 0.78208 0.50562 0.61867 0.0
O467 O 0.80078 0.58863 0.75436 0.0
O468 O 0.83858 0.55682 0.79417 0.0
H469 H 0.86217 0.45744 0.75787 0.0
H470 H 0.84301 0.42405 0.719 0.0
C471 C 0.86404 0.44862 0.72643 0.0
H472 H 0.89317 0.43777 0.71946 0.0
H473 H 0.88907 0.49729 0.83528 0.0
O474 O 0.81694 0.62191 0.66108 0.0
C475 C 0.80715 0.57369 0.78672 0.0
Co476 Co 0.97827 0.34345 0.7215 0.0
Co477 Co 0.05006 0.37774 0.77097 0.0
C478 C 0.97671 0.42131 0.76839 0.0
O479 O 0.96101 0.39543 0.74433 0.0
O480 O 0.01058 0.41757 0.7816 0.0
C481 C 0.93647 0.35035 0.65463 0.0
O482 O 0.96234 0.37901 0.65493 0.0
C483 C 0.10734 0.43873 0.77211 0.0
C484 C 0.15737 0.41823 0.8042 0.0
C485 C 0.14554 0.44748 0.78192 0.0
N486 N 0.09688 0.40539 0.78718 0.0
N487 N 0.1266 0.39369 0.80725 0.0
C488 C 0.0826 0.45909 0.74469 0.0
H489 H 0.06142 0.43836 0.7291 0.0
H490 H 0.10057 0.47343 0.72336 0.0
H491 H 0.06633 0.48189 0.7616 0.0
C492 C 0.0405 0.32493 0.66443 0.0
N493 N 0.0271 0.34502 0.69668 0.0
N494 N 0.05681 0.35884 0.71835 0.0
C495 C 0.0898 0.34709 0.70126 0.0
C496 C 0.08062 0.32578 0.66646 0.0
C497 C 0.01587 0.30018 0.6355 0.0
H498 H 0.99228 0.28533 0.65047 0.0
H499 H 0.00274 0.319 0.6147 0.0
H500 H 0.03325 0.27811 0.61883 0.0
O501 O 0.98421 0.3063 0.76327 0.0
O502 O 0.03647 0.33066 0.79777 0.0
H503 H 0.12575 0.33906 0.75054 0.0
H504 H 0.15029 0.33169 0.70541 0.0
C505 C 0.12859 0.34953 0.72129 0.0
H506 H 0.13946 0.38016 0.72403 0.0
H507 H 0.12668 0.3678 0.82085 0.0
O508 O 0.93699 0.32769 0.68181 0.0
C509 C 0.00926 0.30485 0.79085 0.0
Co510 Co 0.24061 0.49999 0.723 0.0
Co511 Co 0.18873 0.56252 0.76734 0.0
C512 C 0.16984 0.47857 0.76769 0.0
O513 O 0.20009 0.46987 0.74894 0.0
O514 O 0.15997 0.51358 0.77424 0.0
C515 C 0.23352 0.45803 0.65274 0.0
O516 O 0.20093 0.47648 0.65668 0.0
C517 C 0.12308 0.61048 0.7622 0.0
C518 C 0.13435 0.65908 0.80715 0.0
C519 C 0.11011 0.64631 0.77601 0.0
N520 N 0.15441 0.60262 0.78324 0.0
N521 N 0.16047 0.63123 0.81087 0.0
C522 C 0.10885 0.58646 0.72642 0.0
H523 H 0.1229 0.55784 0.72356 0.0
H524 H 0.11517 0.60227 0.70048 0.0
H525 H 0.07696 0.58206 0.72757 0.0
C526 C 0.24609 0.55997 0.67099 0.0
N527 N 0.22585 0.54369 0.69872 0.0
N528 N 0.20435 0.57014 0.71677 0.0
C529 C 0.21043 0.60418 0.70096 0.0
C530 C 0.23631 0.59821 0.67129 0.0
C531 C 0.27992 0.5421 0.65052 0.0
H532 H 0.29571 0.52359 0.66974 0.0
H533 H 0.269 0.52409 0.62444 0.0
H534 H 0.30034 0.56454 0.64078 0.0
O535 O 0.27681 0.52256 0.76432 0.0
O536 O 0.23778 0.56434 0.79767 0.0
H537 H 0.20534 0.64361 0.752 0.0
H538 H 0.22065 0.66654 0.71039 0.0
C539 C 0.20131 0.6433 0.7202 0.0
H540 H 0.17104 0.64993 0.71296 0.0
H541 H 0.1839 0.63304 0.8304 0.0
O542 O 0.2587 0.46206 0.68031 0.0
C543 C 0.27064 0.54882 0.79196 0.0
Co544 Co 0.98978 0.37312 0.3482 0.0
Co545 Co 0.05441 0.33162 0.3921 0.0
C546 C 0.97918 0.33654 0.42456 0.0
O547 O 0.96846 0.35325 0.39511 0.0
O548 O 0.01401 0.3281 0.43014 0.0
C549 C 0.9608 0.44779 0.35142 0.0
O550 O 0.99257 0.45471 0.37242 0.0
C551 C 0.11191 0.32107 0.44997 0.0
C552 C 0.16199 0.30174 0.4149 0.0
C553 C 0.15109 0.31488 0.452 0.0
N554 N 0.1002 0.31297 0.41294 0.0
N555 N 0.12985 0.30031 0.39222 0.0
C556 C 0.08798 0.34241 0.48025 0.0
H557 H 0.07107 0.36489 0.46698 0.0
H558 H 0.10609 0.35677 0.50437 0.0
H559 H 0.06728 0.3215 0.49214 0.0
C560 C 0.05927 0.41438 0.32574 0.0
N561 N 0.04039 0.39375 0.35135 0.0
N562 N 0.06533 0.38181 0.37645 0.0
C563 C 0.10056 0.39678 0.36898 0.0
C564 C 0.09803 0.41624 0.33577 0.0
C565 C 0.04109 0.42905 0.29052 0.0
H566 H 0.01256 0.41425 0.28379 0.0
H567 H 0.03701 0.46084 0.29606 0.0
H568 H 0.06042 0.42443 0.26527 0.0
O569 O 0.99198 0.32761 0.31255 0.0
O570 O 0.03798 0.29807 0.34499 0.0
H571 H 0.15628 0.37534 0.3822 0.0
H572 H 0.14963 0.42554 0.39836 0.0
C573 C 0.13532 0.39627 0.3951 0.0
H574 H 0.127 0.3891 0.42439 0.0
H575 H 0.12891 0.29408 0.36212 0.0
O576 O 0.95364 0.4138 0.33505 0.0
C577 C 0.01363 0.29896 0.31697 0.0
Co578 Co 0.23876 0.58389 0.39798 0.0
Co579 Co 0.21312 0.51709 0.33797 0.0
C580 C 0.17065 0.59289 0.3475 0.0
O581 O 0.18977 0.60456 0.3779 0.0
O582 O 0.17828 0.56093 0.32897 0.0
C583 C 0.21947 0.63171 0.46288 0.0
O584 O 0.1867 0.61231 0.45496 0.0
C585 C 0.14567 0.47149 0.33132 0.0
C586 C 0.15763 0.41864 0.2936 0.0
C587 C 0.12978 0.43613 0.31726 0.0
N588 N 0.18114 0.47542 0.31668 0.0
N589 N 0.18807 0.44413 0.29327 0.0
C590 C 0.12903 0.49927 0.36212 0.0
H591 H 0.15228 0.51454 0.38043 0.0
H592 H 0.10878 0.4842 0.38087 0.0
H593 H 0.11247 0.52135 0.34782 0.0
C594 C 0.24314 0.51736 0.45047 0.0
N595 N 0.23473 0.53277 0.41658 0.0
N596 N 0.22771 0.50417 0.38966 0.0
C597 C 0.23362 0.46981 0.40508 0.0
C598 C 0.24331 0.47662 0.44449 0.0
C599 C 0.25248 0.54119 0.48782 0.0
H600 H 0.27231 0.56592 0.48241 0.0
H601 H 0.22543 0.55329 0.50005 0.0
H602 H 0.26614 0.52338 0.50918 0.0
O603 O 0.27797 0.58308 0.3527 0.0
O604 O 0.2597 0.53167 0.31118 0.0
H605 H 0.25725 0.4312 0.36063 0.0
H606 H 0.23736 0.40688 0.40055 0.0
C607 C 0.23347 0.43112 0.38184 0.0
H608 H 0.20624 0.42618 0.36499 0.0
H609 H 0.21431 0.43899 0.27948 0.0
O610 O 0.24934 0.62349 0.44278 0.0
C611 C 0.28201 0.56125 0.32083 0.0
Co612 Co 0.98845 0.7424 0.38753 0.0
Co613 Co 0.05328 0.69473 0.3406 0.0
C614 C 0.97523 0.65954 0.35448 0.0
O615 O 0.96477 0.69085 0.37249 0.0
O616 O 0.00932 0.65607 0.34193 0.0
C617 C 0.94503 0.73857 0.45586 0.0
O618 O 0.96712 0.70824 0.45606 0.0
C619 C 0.11122 0.63615 0.34968 0.0
C620 C 0.14482 0.63475 0.29598 0.0
C621 C 0.1423 0.61867 0.33134 0.0
N622 N 0.09619 0.66188 0.32669 0.0
N623 N 0.11623 0.66056 0.29434 0.0
C624 C 0.09525 0.62729 0.38807 0.0
H625 H 0.06922 0.64442 0.3951 0.0
H626 H 0.11766 0.63369 0.41124 0.0
H627 H 0.08762 0.59572 0.38723 0.0
C628 C 0.0557 0.75604 0.44423 0.0
N629 N 0.03911 0.73957 0.41081 0.0
N630 N 0.06634 0.72324 0.38927 0.0
C631 C 0.10104 0.73119 0.40724 0.0
C632 C 0.0955 0.75145 0.44294 0.0
C633 C 0.03446 0.7775 0.47641 0.0
H634 H 0.01097 0.79434 0.46434 0.0
H635 H 0.0215 0.75624 0.49518 0.0
H636 H 0.05444 0.79753 0.49458 0.0
O637 O -0.00481 0.77007 0.33695 0.0
O638 O 0.03973 0.73476 0.30388 0.0
H639 H 0.13761 0.71898 0.35794 0.0
H640 H 0.16128 0.74526 0.39931 0.0
C641 C 0.13955 0.72184 0.39006 0.0
H642 H 0.15002 0.69454 0.40075 0.0
H643 H 0.1108 0.67762 0.27144 0.0
O644 O 0.94916 0.76139 0.42865 0.0
C645 C 0.01606 0.76288 0.30659 0.0
Co646 Co 0.88231 0.58192 0.34695 0.0
Co647 Co 0.83083 0.52591 0.39209 0.0
C648 C 0.84437 0.60838 0.42212 0.0
O649 O 0.86538 0.61413 0.39338 0.0
O650 O 0.82944 0.57511 0.42604 0.0
C651 C 0.94937 0.62538 0.35511 0.0
O652 O 0.94643 0.60916 0.38798 0.0
C653 C 0.83066 0.48489 0.45906 0.0
C654 C 0.78758 0.43674 0.44717 0.0
C655 C 0.8155 0.45217 0.47387 0.0
N656 N 0.81297 0.48883 0.42491 0.0
N657 N 0.78665 0.46042 0.41805 0.0
C658 C 0.86307 0.51109 0.47604 0.0
H659 H 0.88355 0.51806 0.45308 0.0
H660 H 0.87873 0.49796 0.49971 0.0
H661 H 0.85089 0.53881 0.48827 0.0
C662 C 0.93595 0.51627 0.34768 0.0
N663 N 0.90393 0.53496 0.35969 0.0
N664 N 0.88014 0.51007 0.3746 0.0
C665 C 0.89494 0.47425 0.36997 0.0
C666 C 0.93114 0.47729 0.35375 0.0
C667 C 0.96832 0.53386 0.32609 0.0
H668 H 0.95655 0.55265 0.30455 0.0
H669 H 0.98743 0.55199 0.34693 0.0
H670 H 0.9859 0.51102 0.31087 0.0
O671 O 0.83687 0.56613 0.31032 0.0
O672 O 0.79943 0.52866 0.3457 0.0
H673 H 0.84422 0.4381 0.35786 0.0
H674 H 0.88766 0.41104 0.36364 0.0
C675 C 0.87202 0.43737 0.37423 0.0
H676 H 0.86489 0.43519 0.40484 0.0
H677 H 0.76959 0.4561 0.39279 0.0
O678 O 0.92386 0.61693 0.3284 0.0
C679 C 0.80658 0.54449 0.31451 0.0
Co680 Co 0.19644 0.74852 0.50986 0.0
Co681 Co 0.24168 0.70272 0.56879 0.0
C682 C 0.21964 0.66552 0.49138 0.0
O683 O 0.20207 0.69563 0.48334 0.0
O684 O 0.236 0.66376 0.52401 0.0
C685 C 0.12302 0.75304 0.47609 0.0
O686 O 0.11629 0.72934 0.50314 0.0
C687 C 0.23447 0.64445 0.61963 0.0
C688 C 0.28882 0.64715 0.65431 0.0
C689 C 0.25329 0.6277 0.64862 0.0
N690 N 0.25741 0.67289 0.60812 0.0
N691 N 0.29017 0.67442 0.62852 0.0
C692 C 0.1947 0.63394 0.60358 0.0
H693 H 0.18656 0.65268 0.58044 0.0
H694 H 0.17341 0.637 0.6273 0.0
H695 H 0.19364 0.60295 0.59172 0.0
C696 C 0.1534 0.77428 0.58132 0.0
N697 N 0.17766 0.75005 0.56137 0.0
N698 N 0.19771 0.73147 0.58621 0.0
C699 C 0.18735 0.74389 0.62263 0.0
C700 C 0.15882 0.7711 0.62074 0.0
C701 C 0.12939 0.80389 0.56376 0.0
H702 H 0.14365 0.81407 0.53779 0.0
H703 H 0.10073 0.79044 0.55491 0.0
H704 H 0.12458 0.82916 0.58512 0.0
O705 O 0.24974 0.77502 0.51512 0.0
O706 O 0.28113 0.74004 0.55699 0.0
H707 H 0.23824 0.73173 0.6552 0.0
H708 H 0.20003 0.75212 0.68456 0.0
C709 C 0.20647 0.73221 0.65874 0.0
H710 H 0.19551 0.70268 0.6638 0.0
H711 H 0.31305 0.69418 0.62517 0.0
O712 O 0.15673 0.76889 0.47425 0.0
C713 C 0.28014 0.7675 0.53477 0.0
Co714 Co 0.24873 0.37457 0.51176 0.0
Co715 Co 0.19685 0.32349 0.56683 0.0
C716 C 0.17701 0.32749 0.48453 0.0
O717 O 0.20659 0.34867 0.47898 0.0
O718 O 0.16859 0.31785 0.51782 0.0
C719 C 0.24073 0.44778 0.4747 0.0
O720 O 0.21101 0.44973 0.4979 0.0
C721 C 0.12612 0.32307 0.60987 0.0
C722 C 0.13238 0.27645 0.64892 0.0
C723 C 0.10823 0.30604 0.63984 0.0
N724 N 0.15944 0.30507 0.6018 0.0
N725 N 0.1625 0.2763 0.62448 0.0
C726 C 0.11353 0.35888 0.59214 0.0
H727 H 0.13514 0.36854 0.57135 0.0
H728 H 0.10903 0.3827 0.61521 0.0
H729 H 0.08529 0.35254 0.57686 0.0
C730 C 0.24715 0.42853 0.5836 0.0
N731 N 0.23357 0.39642 0.56183 0.0
N732 N 0.21331 0.37476 0.58429 0.0
C733 C 0.21395 0.39225 0.6207 0.0
C734 C 0.23514 0.42666 0.62153 0.0
C735 C 0.27486 0.45809 0.56973 0.0
H736 H 0.29018 0.44594 0.5437 0.0
H737 H 0.25856 0.48377 0.56238 0.0
H738 H 0.29644 0.46767 0.59296 0.0
O739 O 0.28355 0.32897 0.524 0.0
O740 O 0.24459 0.29332 0.56036 0.0
H741 H 0.21172 0.38878 0.68279 0.0
H742 H 0.16667 0.38008 0.65677 0.0
C743 C 0.19808 0.37495 0.65554 0.0
H744 H 0.20314 0.34329 0.65378 0.0
H745 H 0.18612 0.25813 0.62485 0.0
O746 O 0.2637 0.41911 0.47635 0.0
C747 C 0.27677 0.29915 0.54357 0.0
Co748 Co 0.83544 0.7021 0.50311 0.0
Co749 Co 0.88381 0.75289 0.56425 0.0
C750 C 0.91296 0.7413 0.48393 0.0
O751 O 0.88122 0.72328 0.47439 0.0
O752 O 0.92026 0.75228 0.51938 0.0
C753 C 0.84566 0.63787 0.4551 0.0
O754 O 0.87903 0.64529 0.47324 0.0
C755 C 0.94352 0.76469 0.62186 0.0
C756 C 0.91703 0.8057 0.66588 0.0
C757 C 0.94789 0.78148 0.65926 0.0
N758 N 0.91072 0.77751 0.60713 0.0
N759 N 0.89556 0.80301 0.63292 0.0
C760 C 0.96668 0.73272 0.60244 0.0
H761 H 0.94798 0.71317 0.58244 0.0
H762 H 0.98102 0.71568 0.62412 0.0
H763 H 0.98944 0.74588 0.58496 0.0
C764 C 0.83384 0.64765 0.56629 0.0
N765 N 0.84757 0.67991 0.55063 0.0
N766 N 0.8662 0.70252 0.57777 0.0
C767 C 0.86397 0.68561 0.61169 0.0
C768 C 0.84337 0.65052 0.60566 0.0
C769 C 0.80977 0.61592 0.5447 0.0
H770 H 0.78725 0.62878 0.52696 0.0
H771 H 0.82853 0.59833 0.52473 0.0
H772 H 0.79589 0.59659 0.56488 0.0
O773 O 0.79811 0.74459 0.51791 0.0
O774 O 0.8375 0.78348 0.55692 0.0
H775 H 0.871 0.73435 0.65424 0.0
H776 H 0.86593 0.68833 0.67453 0.0
C777 C 0.87863 0.70336 0.65038 0.0
H778 H 0.91044 0.70077 0.65212 0.0
H779 H 0.86891 0.81585 0.62931 0.0
O780 O 0.81692 0.65893 0.46437 0.0
C781 C 0.80474 0.7757 0.5404 0.0
Co782 Co 0.8262 0.37531 0.60283 0.0
Co783 Co 0.88345 0.33955 0.54299 0.0
C784 C 0.90661 0.3469 0.62406 0.0
O785 O 0.87323 0.35954 0.63199 0.0
O786 O 0.91667 0.33896 0.58926 0.0
C787 C 0.83354 0.44527 0.64095 0.0
O788 O 0.86545 0.43976 0.6214 0.0
C789 C 0.94674 0.33038 0.48933 0.0
C790 C 0.9137 0.30792 0.43624 0.0
C791 C 0.94944 0.32282 0.44963 0.0
N792 N 0.91016 0.32181 0.49872 0.0
N793 N 0.89097 0.30706 0.46726 0.0
C794 C 0.97578 0.35176 0.51656 0.0
H795 H 0.99137 0.33029 0.53265 0.0
H796 H 0.96097 0.37168 0.53809 0.0
H797 H -0.00273 0.36854 0.50063 0.0
C798 C 0.81416 0.42448 0.53955 0.0
N799 N 0.83595 0.39954 0.55754 0.0
N800 N 0.86558 0.38974 0.536 0.0
C801 C 0.86515 0.4106 0.50477 0.0
C802 C 0.83205 0.43242 0.50574 0.0
C803 C 0.77459 0.43641 0.55168 0.0
H804 H 0.7659 0.42328 0.57851 0.0
H805 H 0.77405 0.46864 0.55615 0.0
H806 H 0.75335 0.42703 0.52807 0.0
O807 O 0.79295 0.33003 0.58401 0.0
O808 O 0.83672 0.30462 0.54274 0.0
H809 H 0.88534 0.38596 0.45015 0.0
H810 H 0.89801 0.43681 0.46113 0.0
C811 C 0.89459 0.40843 0.47358 0.0
H812 H 0.92304 0.40161 0.48572 0.0
H813 H 0.86145 0.29974 0.4664 0.0
O814 O 0.80729 0.41829 0.63925 0.0
C815 C 0.80324 0.30427 0.55758 0.0
Co816 Co 0.48055 0.19851 0.73769 0.0
Co817 Co 0.54083 0.24948 0.69845 0.0
C818 C 0.4649 0.22938 0.66081 0.0
O819 O 0.45586 0.20922 0.68835 0.0
O820 O 0.49775 0.24628 0.65988 0.0
C821 C 0.44731 0.12807 0.72883 0.0
O822 O 0.47112 0.1286 0.69964 0.0
C823 C 0.59379 0.25132 0.63845 0.0
C824 C 0.63706 0.29774 0.65726 0.0
C825 C 0.62815 0.26812 0.62855 0.0
N826 N 0.58243 0.26967 0.6718 0.0
N827 N 0.60787 0.29801 0.68281 0.0
C828 C 0.57415 0.21549 0.61868 0.0
H829 H 0.5564 0.22392 0.5939 0.0
H830 H 0.55498 0.20113 0.63891 0.0
H831 H 0.5958 0.19457 0.607 0.0
C832 C 0.5491 0.15391 0.75371 0.0
N833 N 0.53101 0.1804 0.73392 0.0
N834 N 0.5569 0.20238 0.71802 0.0
C835 C 0.59247 0.19094 0.72789 0.0
C836 C 0.58853 0.15992 0.75055 0.0
C837 C 0.52953 0.12772 0.78027 0.0
H838 H 0.50639 0.14346 0.79635 0.0
H839 H 0.5162 0.1022 0.76275 0.0
H840 H 0.55043 0.11699 0.80131 0.0
O841 O 0.48312 0.24626 0.77285 0.0
O842 O 0.52626 0.28315 0.7432 0.0
H843 H 0.6274 0.2432 0.72918 0.0
H844 H 0.6548 0.20012 0.73383 0.0
C845 C 0.62938 0.21187 0.71941 0.0
H846 H 0.63363 0.20872 0.6877 0.0
H847 H 0.60641 0.31596 0.70862 0.0
O848 O 0.44656 0.15728 0.75381 0.0
C849 C 0.50308 0.27765 0.77061 0.0
Co850 Co 0.33594 0.08587 0.68951 0.0
Co851 Co 0.37987 0.02443 0.73867 0.0
C852 C 0.41481 0.10086 0.72522 0.0
O853 O 0.38533 0.11032 0.7065 0.0
O854 O 0.41752 0.06782 0.73816 0.0
C855 C 0.34066 0.12689 0.62149 0.0
O856 O 0.37168 0.10579 0.61883 0.0
C857 C 0.44016 0.96669 0.73714 0.0
C858 C 0.4261 0.93221 0.78615 0.0
C859 C 0.45131 0.93468 0.75558 0.0
N860 N 0.40961 0.98251 0.75573 0.0
N861 N 0.40174 0.96207 0.78545 0.0
C862 C 0.45701 0.9806 0.70102 0.0
H863 H 0.43932 0.00374 0.6899 0.0
H864 H 0.45895 0.95582 0.67844 0.0
H865 H 0.48688 0.99225 0.70756 0.0
C866 C 0.32859 0.01479 0.63419 0.0
N867 N 0.34228 0.03416 0.66737 0.0
N868 N 0.35695 0.00878 0.68958 0.0
C869 C 0.35073 0.97262 0.67233 0.0
C870 C 0.33347 0.97535 0.63651 0.0
C871 C 0.30896 0.03304 0.60172 0.0
H872 H 0.29067 0.05702 0.6135 0.0
H873 H 0.33119 0.04515 0.58293 0.0
H874 H 0.29081 0.01115 0.58363 0.0
O875 O 0.30407 0.08132 0.73774 0.0
O876 O 0.33688 0.04038 0.77279 0.0
H877 H 0.35647 0.93995 0.72227 0.0
H878 H 0.339 0.91169 0.67962 0.0
C879 C 0.35937 0.93573 0.69039 0.0
H880 H 0.38906 0.92675 0.6829 0.0
H881 H 0.37885 0.96757 0.80431 0.0
O882 O 0.31787 0.12287 0.64983 0.0
C883 C 0.30861 0.06275 0.76814 0.0
Co884 Co 0.48904 0.82487 0.70086 0.0
Co885 Co 0.55499 0.86845 0.75383 0.0
C886 C 0.47894 0.90489 0.74235 0.0
O887 O 0.4668 0.87545 0.72055 0.0
O888 O 0.51294 0.90665 0.7567 0.0
C889 C 0.45098 0.83329 0.62991 0.0
O890 O 0.47438 0.86407 0.63429 0.0
C891 C 0.6101 0.9323 0.76102 0.0
C892 C 0.65852 0.91154 0.79525 0.0
C893 C 0.64764 0.94151 0.77346 0.0
N894 N 0.59924 0.89819 0.77433 0.0
N895 N 0.62787 0.88642 0.79583 0.0
C896 C 0.5872 0.95211 0.73167 0.0
H897 H 0.57085 0.93021 0.7119 0.0
H898 H 0.60612 0.97035 0.71439 0.0
H899 H 0.566 0.97118 0.74708 0.0
C900 C 0.55641 0.81431 0.64664 0.0
N901 N 0.54035 0.82888 0.68021 0.0
N902 N 0.56785 0.8462 0.70276 0.0
C903 C 0.60206 0.84233 0.68435 0.0
C904 C 0.5961 0.82197 0.64832 0.0
C905 C 0.53482 0.79208 0.61362 0.0
H906 H 0.51068 0.77453 0.62465 0.0
H907 H 0.52292 0.81285 0.59406 0.0
H908 H 0.55445 0.7726 0.59644 0.0
O909 O 0.49162 0.79254 0.74869 0.0
O910 O 0.53785 0.82546 0.78563 0.0
H911 H 0.64442 0.84964 0.73029 0.0
H912 H 0.66467 0.8461 0.68266 0.0
C913 C 0.64044 0.85787 0.70031 0.0
H914 H 0.64163 0.88998 0.70019 0.0
H915 H 0.62768 0.85983 0.80817 0.0
O916 O 0.45135 0.80889 0.65588 0.0
C917 C 0.51209 0.79798 0.78036 0.0
Co918 Co 0.74033 0.98756 0.70639 0.0
Co919 Co 0.69631 0.0537 0.75353 0.0
C920 C 0.67348 0.97095 0.75841 0.0
O921 O 0.70135 0.95997 0.73707 0.0
O922 O 0.66621 0.00667 0.7651 0.0
C923 C 0.72565 0.93323 0.64685 0.0
O924 O 0.69141 0.94445 0.65836 0.0
C925 C 0.63081 0.10195 0.75492 0.0
C926 C 0.64819 0.15377 0.79389 0.0
C927 C 0.6194 0.13856 0.7681 0.0
N928 N 0.66517 0.09569 0.77142 0.0
N929 N 0.67507 0.1263 0.7956 0.0
C930 C 0.61216 0.07591 0.72261 0.0
H931 H 0.62767 0.04827 0.71762 0.0
H932 H 0.61213 0.0911 0.69555 0.0
H933 H 0.58155 0.06954 0.72971 0.0
C934 C 0.73698 0.04267 0.64762 0.0
N935 N 0.72246 0.02944 0.68022 0.0
N936 N 0.70589 0.05816 0.70052 0.0
C937 C 0.71031 0.09081 0.68203 0.0
C938 C 0.72944 0.08181 0.64769 0.0
C939 C 0.76475 0.02093 0.62157 0.0
H940 H 0.78816 0.00947 0.6393 0.0
H941 H 0.74918 0.99598 0.60525 0.0
H942 H 0.77772 0.03965 0.60032 0.0
O943 O 0.78115 0.00991 0.74371 0.0
O944 O 0.74761 0.05433 0.77967 0.0
H945 H 0.71589 0.13215 0.73196 0.0
H946 H 0.7232 0.15305 0.687 0.0
C947 C 0.70595 0.131 0.70129 0.0
H948 H 0.67507 0.1386 0.70005 0.0
H949 H 0.70127 0.12954 0.81111 0.0
O950 O 0.75581 0.94766 0.66494 0.0
C951 C 0.77896 0.03684 0.77148 0.0
Co952 Co 0.49725 0.84739 0.30853 0.0
Co953 Co 0.56877 0.79145 0.35703 0.0
C954 C 0.48568 0.81083 0.39081 0.0
O955 O 0.47452 0.83012 0.36218 0.0
O956 O 0.519 0.7949 0.3922 0.0
C957 C 0.46747 0.92338 0.32079 0.0
O958 O 0.49353 0.92399 0.34883 0.0
C959 C 0.61285 0.79446 0.4253 0.0
C960 C 0.66724 0.7655 0.40985 0.0
C961 C 0.64927 0.7882 0.43902 0.0
N962 N 0.60894 0.77679 0.38937 0.0
N963 N 0.64116 0.75857 0.38036 0.0
C964 C 0.58472 0.82259 0.44348 0.0
H965 H 0.57207 0.84012 0.42137 0.0
H966 H 0.59826 0.84274 0.4669 0.0
H967 H 0.5612 0.80568 0.45631 0.0
C968 C 0.57036 0.90065 0.31259 0.0
N969 N 0.55161 0.87098 0.32819 0.0
N970 N 0.57796 0.85044 0.34648 0.0
C971 C 0.61314 0.8677 0.34292 0.0
C972 C 0.6093 0.89954 0.32156 0.0
C973 C 0.55345 0.92364 0.28197 0.0
H974 H 0.5284 0.90764 0.26715 0.0
H975 H 0.54406 0.95189 0.29586 0.0
H976 H 0.57534 0.92995 0.26 0.0
O977 O 0.50161 0.78572 0.26394 0.0
O978 O 0.5514 0.74828 0.29969 0.0
H979 H 0.65208 0.82063 0.33986 0.0
H980 H 0.67596 0.86798 0.34616 0.0
C981 C 0.65041 0.85051 0.35424 0.0
H982 H 0.65118 0.84912 0.38607 0.0
H983 H 0.64651 0.74439 0.35314 0.0
O984 O 0.46289 0.89251 0.29741 0.0
C985 C 0.51805 0.76878 0.29495 0.0
Co986 Co 0.74628 0.09314 0.37031 0.0
Co987 Co 0.70873 0.02007 0.32213 0.0
C988 C 0.67322 0.09699 0.32127 0.0
O989 O 0.69995 0.11274 0.34345 0.0
O990 O 0.67164 0.06065 0.31212 0.0
C991 C 0.7326 0.14187 0.43425 0.0
O992 O 0.70041 0.12088 0.42868 0.0
C993 C 0.64817 0.96247 0.31867 0.0
C994 C 0.67056 0.91205 0.28311 0.0
C995 C 0.64026 0.92396 0.30671 0.0
N996 N 0.6821 0.97304 0.30378 0.0
N997 N 0.69504 0.94312 0.28166 0.0
C998 C 0.62617 0.98735 0.34789 0.0
H999 H 0.64435 0.01232 0.36072 0.0
H1000 H 0.61555 0.96984 0.37128 0.0
H1001 H 0.60058 0.99871 0.33325 0.0
C1002 C 0.75241 0.03515 0.42945 0.0
N1003 N 0.73812 0.04647 0.39562 0.0
N1004 N 0.72256 0.01588 0.37519 0.0
C1005 C 0.72674 0.98424 0.39527 0.0
C1006 C 0.7449 0.99549 0.43059 0.0
C1007 C 0.77685 0.06058 0.45799 0.0
H1008 H 0.79631 0.07987 0.44245 0.0
H1009 H 0.75773 0.07904 0.4768 0.0
H1010 H 0.79433 0.04301 0.47683 0.0
O1011 O 0.78523 0.08285 0.32891 0.0
O1012 O 0.75672 0.03173 0.29366 0.0
H1013 H 0.73084 0.94042 0.34778 0.0
H1014 H 0.73838 0.92284 0.39427 0.0
C1015 C 0.72121 0.94306 0.37821 0.0
H1016 H 0.69021 0.93426 0.37945 0.0
H1017 H 0.72165 0.9431 0.26778 0.0
O1018 O 0.7605 0.13579 0.4111 0.0
C1019 C 0.78417 0.05735 0.29968 0.0
Co1020 Co 0.49673 0.23454 0.38188 0.0
Co1021 Co 0.55347 0.19044 0.32536 0.0
C1022 C 0.47855 0.15251 0.34565 0.0
O1023 O 0.47206 0.18221 0.36861 0.0
O1024 O 0.5092 0.15097 0.32594 0.0
C1025 C 0.46847 0.23239 0.45543 0.0
O1026 O 0.49421 0.20506 0.45396 0.0
C1027 C 0.60813 0.12956 0.31937 0.0
C1028 C 0.65155 0.1491 0.27861 0.0
C1029 C 0.6443 0.12162 0.30485 0.0
N1030 N 0.5948 0.16087 0.30324 0.0
N1031 N 0.62033 0.17173 0.27789 0.0
C1032 C 0.58914 0.11143 0.35238 0.0
H1033 H 0.56974 0.08697 0.34039 0.0
H1034 H 0.57135 0.1329 0.36929 0.0
H1035 H 0.61093 0.09963 0.37181 0.0
C1036 C 0.56929 0.25225 0.42791 0.0
N1037 N 0.54903 0.23322 0.39796 0.0
N1038 N 0.57302 0.21389 0.37485 0.0
C1039 C 0.60929 0.22036 0.38988 0.0
C1040 C 0.60815 0.2448 0.42372 0.0
C1041 C 0.55253 0.27956 0.45876 0.0
H1042 H 0.52643 0.29315 0.44757 0.0
H1043 H 0.54462 0.26325 0.48393 0.0
H1044 H 0.57414 0.30281 0.46888 0.0
O1045 O 0.49582 0.26669 0.3363 0.0
O1046 O 0.53767 0.23569 0.29616 0.0
H1047 H 0.64601 0.21004 0.34103 0.0
H1048 H 0.6717 0.22011 0.38639 0.0
C1049 C 0.64568 0.20514 0.37218 0.0
H1050 H 0.64744 0.1737 0.37603 0.0
H1051 H 0.61803 0.19651 0.26274 0.0
O1052 O 0.465 0.25302 0.42675 0.0
C1053 C 0.51446 0.26349 0.30448 0.0
Co1054 Co 0.39184 0.06299 0.32647 0.0
Co1055 Co 0.33878 0.00071 0.36325 0.0
C1056 C 0.34206 0.0819 0.39656 0.0
O1057 O 0.36435 0.09173 0.37009 0.0
O1058 O 0.33238 0.04676 0.39927 0.0
C1059 C 0.45185 0.11831 0.34613 0.0
O1060 O 0.44136 0.10756 0.38004 0.0
C1061 C 0.33589 0.95694 0.42673 0.0
C1062 C 0.29807 0.90545 0.4099 0.0
C1063 C 0.32304 0.92219 0.43884 0.0
N1064 N 0.31982 0.96098 0.39192 0.0
N1065 N 0.29643 0.93061 0.38208 0.0
C1066 C 0.36534 0.98492 0.44673 0.0
H1067 H 0.38473 0.99704 0.42523 0.0
H1068 H 0.38279 0.97105 0.46864 0.0
H1069 H 0.35002 0.00943 0.46202 0.0
C1070 C 0.44492 0.99465 0.32255 0.0
N1071 N 0.41303 0.01324 0.33574 0.0
N1072 N 0.38838 0.98691 0.34691 0.0
C1073 C 0.40233 0.95104 0.33866 0.0
C1074 C 0.43881 0.95447 0.32346 0.0
C1075 C 0.47901 0.01436 0.3057 0.0
H1076 H 0.46998 0.04055 0.29189 0.0
H1077 H 0.50027 0.02359 0.32933 0.0
H1078 H 0.49315 0.99422 0.28386 0.0
O1079 O 0.34792 0.05131 0.28676 0.0
O1080 O 0.31009 0.0094 0.31724 0.0
H1081 H 0.35032 0.91731 0.32491 0.0
H1082 H 0.39334 0.88879 0.3243 0.0
C1083 C 0.3788 0.91396 0.33928 0.0
H1084 H 0.37358 0.90766 0.3695 0.0
H1085 H 0.2814 0.92594 0.35559 0.0
O1086 O 0.43492 0.10214 0.31543 0.0
C1087 C 0.31707 0.02979 0.28898 0.0
Co1088 Co 0.7037 0.24973 0.49568 0.0
Co1089 Co 0.74306 0.19445 0.55103 0.0
C1090 C 0.73469 0.17235 0.46633 0.0
O1091 O 0.71998 0.20468 0.46119 0.0
O1092 O 0.74352 0.16352 0.50006 0.0
C1093 C 0.63687 0.24463 0.45529 0.0
O1094 O 0.63898 0.21252 0.47295 0.0
C1095 C 0.73212 0.12835 0.59496 0.0
C1096 C 0.78348 0.13001 0.6338 0.0
C1097 C 0.74877 0.10999 0.62449 0.0
N1098 N 0.75561 0.15813 0.58691 0.0
N1099 N 0.7867 0.15867 0.60972 0.0
C1100 C 0.69329 0.119 0.57624 0.0
H1101 H 0.68903 0.13571 0.55054 0.0
H1102 H 0.67032 0.12612 0.59757 0.0
H1103 H 0.69056 0.08729 0.56742 0.0
C1104 C 0.65151 0.25952 0.55944 0.0
N1105 N 0.67792 0.23757 0.54034 0.0
N1106 N 0.69518 0.21612 0.56473 0.0
C1107 C 0.68085 0.22469 0.6004 0.0
C1108 C 0.65285 0.25211 0.59779 0.0
C1109 C 0.6307 0.29215 0.54324 0.0
H1110 H 0.65046 0.30863 0.52523 0.0
H1111 H 0.60617 0.27969 0.52484 0.0
H1112 H 0.619 0.31241 0.56662 0.0
O1113 O 0.7491 0.28212 0.51834 0.0
O1114 O 0.77869 0.24017 0.55488 0.0
H1115 H 0.7303 0.21179 0.63488 0.0
H1116 H 0.69175 0.23392 0.66227 0.0
C1117 C 0.69846 0.21304 0.63721 0.0
H1118 H 0.68642 0.18395 0.64256 0.0
H1119 H 0.80933 0.17938 0.60982 0.0
O1120 O 0.66394 0.27064 0.46088 0.0
C1121 C 0.77564 0.27384 0.54252 0.0
Co1122 Co 0.69652 0.82524 0.5822 0.0
Co1123 Co 0.74491 0.88175 0.53112 0.0
C1124 C 0.72764 0.90382 0.61406 0.0
O1125 O 0.70917 0.87203 0.61629 0.0
O1126 O 0.74252 0.91231 0.58249 0.0
C1127 C 0.62294 0.82259 0.61541 0.0
O1128 O 0.61989 0.85115 0.59286 0.0
C1129 C 0.73813 0.94635 0.48174 0.0
C1130 C 0.79681 0.95439 0.4592 0.0
C1131 C 0.75985 0.96893 0.45837 0.0
N1132 N 0.76099 0.91983 0.49614 0.0
N1133 N 0.79628 0.92517 0.4829 0.0
C1134 C 0.69597 0.94995 0.48996 0.0
H1135 H 0.68818 0.93485 0.51597 0.0
H1136 H 0.67873 0.93682 0.46456 0.0
H1137 H 0.68868 0.98117 0.49442 0.0
C1138 C 0.65631 0.80787 0.51111 0.0
N1139 N 0.67706 0.83496 0.53363 0.0
N1140 N 0.69877 0.8556 0.51141 0.0
C1141 C 0.69333 0.84106 0.47416 0.0
C1142 C 0.66682 0.81025 0.47312 0.0
C1143 C 0.6333 0.77504 0.52611 0.0
H1144 H 0.65056 0.7615 0.54837 0.0
H1145 H 0.6067 0.78658 0.53981 0.0
H1146 H 0.62474 0.7524 0.5025 0.0
O1147 O 0.74489 0.79548 0.56756 0.0
O1148 O 0.77982 0.83753 0.5342 0.0
H1149 H 0.74844 0.85621 0.45097 0.0
H1150 H 0.71601 0.82962 0.41622 0.0
C1151 C 0.7178 0.85199 0.44126 0.0
H1152 H 0.70745 0.87964 0.43153 0.0
H1153 H 0.81984 0.90852 0.48954 0.0
O1154 O 0.65386 0.80293 0.61425 0.0
C1155 C 0.77452 0.8042 0.54743 0.0
Co1156 Co 0.37614 0.23778 0.58295 0.0
Co1157 Co 0.33129 0.18797 0.51701 0.0
C1158 C 0.33817 0.15955 0.59645 0.0
O1159 O 0.35474 0.19169 0.60851 0.0
O1160 O 0.32916 0.15267 0.56071 0.0
C1161 C 0.43863 0.22831 0.62745 0.0
O1162 O 0.43334 0.19506 0.60627 0.0
C1163 C 0.33336 0.12205 0.46104 0.0
C1164 C 0.29913 0.13968 0.41137 0.0
C1165 C 0.32427 0.11189 0.42247 0.0
N1166 N 0.31549 0.15523 0.47215 0.0
N1167 N 0.29404 0.16504 0.44273 0.0
C1168 C 0.36296 0.10382 0.48527 0.0
H1169 H 0.34791 0.08393 0.50412 0.0
H1170 H 0.37907 0.12645 0.50437 0.0
H1171 H 0.38353 0.08667 0.46686 0.0
C1172 C 0.4358 0.23915 0.52179 0.0
N1173 N 0.40211 0.22552 0.53563 0.0
N1174 N 0.38218 0.2065 0.50694 0.0
C1175 C 0.40211 0.20858 0.4738 0.0
C1176 C 0.43649 0.22898 0.48225 0.0
C1177 C 0.46512 0.26459 0.5449 0.0
H1178 H 0.4504 0.28597 0.56501 0.0
H1179 H 0.4833 0.24626 0.56226 0.0
H1180 H 0.48427 0.28034 0.52561 0.0
O1181 O 0.33409 0.2745 0.57042 0.0
O1182 O 0.29972 0.23616 0.52581 0.0
H1183 H 0.35724 0.20183 0.43018 0.0
H1184 H 0.40463 0.20757 0.41105 0.0
C1185 C 0.38784 0.19429 0.43385 0.0
H1186 H 0.39107 0.16238 0.42942 0.0
H1187 H 0.27867 0.19069 0.44302 0.0
O1188 O 0.4164 0.25641 0.62226 0.0
C1189 C 0.30579 0.26887 0.54592 0.0
Co1190 Co 0.34371 0.86685 0.57718 0.0
Co1191 Co 0.39435 0.82036 0.51649 0.0
C1192 C 0.42079 0.83212 0.5991 0.0
O1193 O 0.3905 0.85135 0.60626 0.0
O1194 O 0.4281 0.81857 0.56454 0.0
C1195 C 0.33404 0.94516 0.60448 0.0
O1196 O 0.35644 0.95141 0.57524 0.0
C1197 C 0.45538 0.80854 0.4585 0.0
C1198 C 0.42017 0.78373 0.4079 0.0
C1199 C 0.45631 0.79978 0.41852 0.0
N1200 N 0.4196 0.79949 0.47058 0.0
N1201 N 0.39917 0.78357 0.44035 0.0
C1202 C 0.48527 0.8312 0.48357 0.0
H1203 H 0.47118 0.84965 0.50688 0.0
H1204 H 0.50378 0.84963 0.4661 0.0
H1205 H 0.50379 0.81051 0.49763 0.0
C1206 C 0.32602 0.90214 0.50747 0.0
N1207 N 0.35169 0.884 0.52873 0.0
N1208 N 0.38025 0.87157 0.50683 0.0
C1209 C 0.37514 0.88494 0.47158 0.0
C1210 C 0.34008 0.90322 0.47078 0.0
C1211 C 0.28701 0.91471 0.52094 0.0
H1212 H 0.27828 0.8997 0.5467 0.0
H1213 H 0.28807 0.94665 0.52865 0.0
H1214 H 0.26507 0.90844 0.49726 0.0
O1215 O 0.30805 0.82379 0.56588 0.0
O1216 O 0.34309 0.79062 0.52076 0.0
H1217 H 0.3971 0.8613 0.41732 0.0
H1218 H 0.4059 0.91261 0.42751 0.0
C1219 C 0.40485 0.88442 0.44062 0.0
H1220 H 0.43391 0.88027 0.45293 0.0
H1221 H 0.36982 0.77581 0.44125 0.0
O1222 O 0.32289 0.91061 0.60999 0.0
C1223 C 0.31178 0.79598 0.53966 0.0
Co1224 Co 0.48608 0.71962 0.26786 0.0
Co1225 Co 0.55785 0.77329 0.23432 0.0
C1226 C 0.47837 0.7638 0.19336 0.0
O1227 O 0.46429 0.74188 0.21829 0.0
O1228 O 0.51286 0.77818 0.1961 0.0
C1229 C 0.44489 0.64984 0.24889 0.0
O1230 O 0.46364 0.65471 0.21683 0.0
C1231 C 0.60525 0.77439 0.16661 0.0
C1232 C 0.65824 0.80765 0.18638 0.0
C1233 C 0.6416 0.7853 0.15476 0.0
N1234 N 0.60038 0.78921 0.20354 0.0
N1235 N 0.63188 0.81 0.21493 0.0
C1236 C 0.57743 0.74631 0.14435 0.0
H1237 H 0.56056 0.72906 0.16414 0.0
H1238 H 0.59269 0.72621 0.12332 0.0
H1239 H 0.55693 0.76304 0.12778 0.0
C1240 C 0.54917 0.66178 0.2628 0.0
N1241 N 0.53431 0.69467 0.25073 0.0
N1242 N 0.56282 0.71603 0.2371 0.0
C1243 C 0.59623 0.69712 0.24045 0.0
C1244 C 0.58859 0.66226 0.25644 0.0
C1245 C 0.52852 0.63538 0.28848 0.0
H1246 H 0.50934 0.65239 0.30851 0.0
H1247 H 0.51081 0.61338 0.27018 0.0
H1248 H 0.5491 0.61952 0.30589 0.0
O1249 O 0.49761 0.76833 0.32006 0.0
O1250 O 0.55265 0.80953 0.29251 0.0
H1251 H 0.63644 0.74512 0.25268 0.0
H1252 H 0.65888 0.69857 0.24818 0.0
C1253 C 0.63544 0.71581 0.23671 0.0
H1254 H 0.64084 0.71875 0.20562 0.0
H1255 H 0.63637 0.82361 0.24288 0.0
O1256 O 0.4484 0.6759 0.27744 0.0
C1257 C 0.52557 0.79802 0.31799 0.0
Co1258 Co 0.33817 0.59069 0.21399 0.0
Co1259 Co 0.38951 0.53763 0.26476 0.0
C1260 C 0.41571 0.6181 0.2483 0.0
O1261 O 0.38479 0.62194 0.22929 0.0
O1262 O 0.42313 0.58616 0.26235 0.0
C1263 C 0.34331 0.62137 0.14129 0.0
O1264 O 0.37325 0.59881 0.14164 0.0
C1265 C 0.44892 0.47875 0.25902 0.0
C1266 C 0.44069 0.44762 0.3115 0.0
C1267 C 0.46063 0.44653 0.27694 0.0
N1268 N 0.42262 0.4977 0.28143 0.0
N1269 N 0.41846 0.47931 0.31323 0.0
C1270 C 0.46075 0.48978 0.21987 0.0
H1271 H 0.44687 0.51701 0.21283 0.0
H1272 H 0.45275 0.46584 0.19738 0.0
H1273 H 0.49272 0.49387 0.21953 0.0
C1274 C 0.32949 0.51606 0.16528 0.0
N1275 N 0.34725 0.53874 0.1945 0.0
N1276 N 0.36526 0.51624 0.21738 0.0
C1277 C 0.3576 0.47868 0.20426 0.0
C1278 C 0.33507 0.47733 0.1709 0.0
C1279 C 0.30413 0.53056 0.13452 0.0
H1280 H 0.28788 0.55594 0.14658 0.0
H1281 H 0.32237 0.53957 0.11053 0.0
H1282 H 0.28334 0.5073 0.12258 0.0
O1283 O 0.30678 0.58496 0.26316 0.0
O1284 O 0.34508 0.54979 0.29939 0.0
H1285 H 0.36601 0.45136 0.25737 0.0
H1286 H 0.34429 0.42008 0.21817 0.0
C1287 C 0.36624 0.44381 0.22561 0.0
H1288 H 0.39468 0.43238 0.21674 0.0
H1289 H 0.39877 0.48699 0.33497 0.0
O1290 O 0.32005 0.62204 0.16991 0.0
C1291 C 0.31399 0.5683 0.29445 0.0
Co1292 Co 0.48343 0.3362 0.21174 0.0
Co1293 Co 0.55613 0.36914 0.26019 0.0
C1294 C 0.48293 0.41346 0.2602 0.0
O1295 O 0.4667 0.38804 0.236 0.0
O1296 O 0.51707 0.40927 0.2725 0.0
C1297 C 0.44053 0.34549 0.14584 0.0
O1298 O 0.46706 0.37352 0.14605 0.0
C1299 C 0.61377 0.42961 0.26208 0.0
C1300 C 0.66415 0.40763 0.2925 0.0
C1301 C 0.65216 0.43773 0.27143 0.0
N1302 N 0.60332 0.39585 0.27627 0.0
N1303 N 0.63326 0.38321 0.29534 0.0
C1304 C 0.58876 0.451 0.23575 0.0
H1305 H 0.56741 0.43075 0.21977 0.0
H1306 H 0.6065 0.46607 0.21476 0.0
H1307 H 0.57269 0.47329 0.25359 0.0
C1308 C 0.54453 0.31868 0.15268 0.0
N1309 N 0.53187 0.33772 0.18587 0.0
N1310 N 0.56207 0.35097 0.20711 0.0
C1311 C 0.59466 0.33987 0.18876 0.0
C1312 C 0.58471 0.31961 0.15357 0.0
C1313 C 0.51921 0.29496 0.12355 0.0
H1314 H 0.49553 0.28015 0.13842 0.0
H1315 H 0.50623 0.31453 0.10338 0.0
H1316 H 0.53608 0.27294 0.1062 0.0
O1317 O 0.4896 0.29825 0.25318 0.0
O1318 O 0.54253 0.32209 0.28688 0.0
H1319 H 0.63233 0.33111 0.23655 0.0
H1320 H 0.65534 0.32487 0.19048 0.0
C1321 C 0.63406 0.34225 0.2075 0.0
H1322 H 0.64469 0.37296 0.21057 0.0
H1323 H 0.63334 0.35682 0.30806 0.0
O1324 O 0.44115 0.32219 0.1725 0.0
C1325 C 0.5151 0.2965 0.28037 0.0
Co1326 Co 0.74698 0.49096 0.21281 0.0
Co1327 Co 0.69541 0.55307 0.2596 0.0
C1328 C 0.67637 0.46917 0.25783 0.0
O1329 O 0.70649 0.46083 0.2387 0.0
O1330 O 0.6665 0.50407 0.26525 0.0
C1331 C 0.73779 0.4515 0.13945 0.0
O1332 O 0.70633 0.47182 0.14325 0.0
C1333 C 0.62963 0.60228 0.25797 0.0
C1334 C 0.64257 0.64908 0.30437 0.0
C1335 C 0.61717 0.63771 0.27378 0.0
N1336 N 0.66164 0.59332 0.27747 0.0
N1337 N 0.6687 0.62088 0.30593 0.0
C1338 C 0.61397 0.57962 0.22199 0.0
H1339 H 0.62862 0.55146 0.21684 0.0
H1340 H 0.61819 0.59693 0.19667 0.0
H1341 H 0.58235 0.57428 0.22482 0.0
C1342 C 0.75164 0.55269 0.16268 0.0
N1343 N 0.73208 0.53578 0.19045 0.0
N1344 N 0.71046 0.56172 0.20915 0.0
C1345 C 0.71569 0.59603 0.19363 0.0
C1346 C 0.74111 0.59075 0.16346 0.0
C1347 C 0.78541 0.53551 0.1415 0.0
H1348 H 0.80045 0.51515 0.15933 0.0
H1349 H 0.77461 0.51966 0.11414 0.0
H1350 H 0.80644 0.55839 0.13384 0.0
O1351 O 0.78409 0.51224 0.25497 0.0
O1352 O 0.74491 0.55322 0.28925 0.0
H1353 H 0.71118 0.63472 0.24531 0.0
H1354 H 0.72556 0.65836 0.20386 0.0
C1355 C 0.70654 0.63484 0.21362 0.0
H1356 H 0.6761 0.64143 0.20709 0.0
H1357 H 0.69271 0.62174 0.32469 0.0
O1358 O 0.76253 0.45346 0.16756 0.0
C1359 C 0.77778 0.53769 0.28345 0.0
Co1360 Co 0.4808 0.37993 0.83657 0.0
Co1361 Co 0.54552 0.33692 0.87812 0.0
C1362 C 0.47121 0.34152 0.91236 0.0
O1363 O 0.45987 0.35843 0.88324 0.0
O1364 O 0.50623 0.33344 0.91725 0.0
C1365 C 0.45369 0.45419 0.84541 0.0
O1366 O 0.48532 0.45825 0.86699 0.0
C1367 C 0.60404 0.32436 0.93479 0.0
C1368 C 0.65337 0.30594 0.89826 0.0
C1369 C 0.64328 0.31821 0.93587 0.0
N1370 N 0.59154 0.31719 0.89782 0.0
N1371 N 0.62079 0.30502 0.87625 0.0
C1372 C 0.5807 0.34466 0.96621 0.0
H1373 H 0.56491 0.3688 0.9545 0.0
H1374 H 0.59904 0.35659 0.99126 0.0
H1375 H 0.559 0.32367 0.97638 0.0
C1376 C 0.55031 0.42119 0.81387 0.0
N1377 N 0.53174 0.39989 0.83912 0.0
N1378 N 0.55692 0.38728 0.86355 0.0
C1379 C 0.59212 0.40224 0.8559 0.0
C1380 C 0.58921 0.42259 0.82329 0.0
C1381 C 0.53156 0.43734 0.77972 0.0
H1382 H 0.50293 0.42277 0.77293 0.0
H1383 H 0.52753 0.46897 0.78665 0.0
H1384 H 0.55048 0.43377 0.75405 0.0
O1385 O 0.48126 0.33637 0.79869 0.0
O1386 O 0.52683 0.30515 0.83013 0.0
H1387 H 0.64793 0.38028 0.86778 0.0
H1388 H 0.6416 0.43018 0.88531 0.0
C1389 C 0.62718 0.40097 0.88148 0.0
H1390 H 0.61921 0.39304 0.91062 0.0
H1391 H 0.61929 0.29958 0.84608 0.0
O1392 O 0.44553 0.42178 0.82623 0.0
C1393 C 0.50251 0.30729 0.80216 0.0
Co1394 Co 0.73248 0.5874 0.88953 0.0
Co1395 Co 0.70488 0.5229 0.82738 0.0
C1396 C 0.66418 0.59896 0.84039 0.0
O1397 O 0.68418 0.60961 0.8705 0.0
O1398 O 0.67059 0.56726 0.82086 0.0
C1399 C 0.71502 0.63245 0.9563 0.0
O1400 O 0.68178 0.61412 0.94785 0.0
C1401 C 0.63697 0.47795 0.81988 0.0
C1402 C 0.64828 0.42607 0.78052 0.0
C1403 C 0.62075 0.44301 0.80497 0.0
N1404 N 0.67231 0.48215 0.80502 0.0
N1405 N 0.67883 0.45147 0.78063 0.0
C1406 C 0.62078 0.50492 0.85166 0.0
H1407 H 0.64427 0.5191 0.87046 0.0
H1408 H 0.60021 0.48948 0.86979 0.0
H1409 H 0.60471 0.52794 0.83831 0.0
C1410 C 0.73631 0.51929 0.93896 0.0
N1411 N 0.72739 0.53589 0.90593 0.0
N1412 N 0.71974 0.50825 0.87817 0.0
C1413 C 0.7257 0.47326 0.89215 0.0
C1414 C 0.73606 0.4788 0.93142 0.0
C1415 C 0.74709 0.54174 0.97672 0.0
H1416 H 0.76807 0.56563 0.97166 0.0
H1417 H 0.72082 0.55493 0.98964 0.0
H1418 H 0.76002 0.5227 0.99739 0.0
O1419 O 0.77141 0.58716 0.84483 0.0
O1420 O 0.75128 0.53838 0.80094 0.0
H1421 H 0.7487 0.43618 0.84607 0.0
H1422 H 0.72942 0.41032 0.88527 0.0
C1423 C 0.72525 0.43531 0.86759 0.0
H1424 H 0.69778 0.43095 0.85106 0.0
H1425 H 0.70492 0.44657 0.76646 0.0
O1426 O 0.74444 0.62473 0.93543 0.0
C1427 C 0.77448 0.56688 0.81196 0.0
Co1428 Co 0.48555 0.74829 0.89185 0.0
Co1429 Co 0.54795 0.70097 0.84192 0.0
C1430 C 0.4709 0.66589 0.85774 0.0
O1431 O 0.46109 0.69717 0.87626 0.0
O1432 O 0.5046 0.6622 0.84434 0.0
C1433 C 0.44553 0.74185 0.96201 0.0
O1434 O 0.46806 0.71175 0.96027 0.0
C1435 C 0.60506 0.6418 0.84593 0.0
C1436 C 0.63777 0.64353 0.79184 0.0
C1437 C 0.63569 0.62539 0.82608 0.0
N1438 N 0.5898 0.66891 0.82489 0.0
N1439 N 0.60921 0.66952 0.79226 0.0
C1440 C 0.58995 0.63098 0.88404 0.0
H1441 H 0.58055 0.59979 0.88119 0.0
H1442 H 0.5652 0.64906 0.89342 0.0
H1443 H 0.61335 0.63444 0.9065 0.0
C1444 C 0.55449 0.76027 0.94648 0.0
N1445 N 0.53682 0.74473 0.91324 0.0
N1446 N 0.56319 0.72838 0.8906 0.0
C1447 C 0.5984 0.73519 0.90786 0.0
C1448 C 0.59408 0.75488 0.94407 0.0
C1449 C 0.53448 0.78151 0.97965 0.0
H1450 H 0.51056 0.79855 0.96869 0.0
H1451 H 0.52233 0.76011 -0.00126 0.0
H1452 H 0.55514 0.80133 0.99722 0.0
O1453 O 0.49078 0.77713 0.84159 0.0
O1454 O 0.53298 0.7409 0.80627 0.0
H1455 H 0.63391 0.72328 0.85773 0.0
H1456 H 0.65905 0.747 0.89959 0.0
C1457 C 0.63628 0.72483 0.8898 0.0
H1458 H 0.6456 0.69657 0.8992 0.0
H1459 H 0.60345 0.68807 0.77069 0.0
O1460 O 0.44795 0.76549 0.93529 0.0
C1461 C 0.51011 0.76953 0.81021 0.0
Co1462 Co 0.37717 0.58965 0.85208 0.0
Co1463 Co 0.32706 0.53177 0.89657 0.0
C1464 C 0.34338 0.61217 0.92962 0.0
O1465 O 0.36324 0.61942 0.90057 0.0
O1466 O 0.32787 0.57901 0.9323 0.0
C1467 C 0.44485 0.63197 0.85843 0.0
O1468 O 0.44382 0.61405 0.89042 0.0
C1469 C 0.32717 0.48898 0.96196 0.0
C1470 C 0.28391 0.44116 0.94915 0.0
C1471 C 0.31198 0.45592 0.976 0.0
N1472 N 0.30931 0.49382 0.92815 0.0
N1473 N 0.28281 0.46567 0.92077 0.0
C1474 C 0.36011 0.51441 0.97906 0.0
H1475 H 0.37998 0.52227 0.95591 0.0
H1476 H 0.37632 0.50024 0.00167 0.0
H1477 H 0.34834 0.54169 0.99283 0.0
C1478 C 0.4295 0.52314 0.84633 0.0
N1479 N 0.39844 0.54161 0.86109 0.0
N1480 N 0.37535 0.51621 0.87624 0.0
C1481 C 0.38973 0.48041 0.86935 0.0
C1482 C 0.42471 0.48393 0.85096 0.0
C1483 C 0.46065 0.54138 0.82366 0.0
H1484 H 0.44783 0.56139 0.80387 0.0
H1485 H 0.48117 0.55834 0.84401 0.0
H1486 H 0.47701 0.51894 0.80634 0.0
O1487 O 0.33 0.57671 0.81769 0.0
O1488 O 0.29384 0.5377 0.8527 0.0
H1489 H 0.34017 0.44288 0.85644 0.0
H1490 H 0.38397 0.41712 0.8648 0.0
C1491 C 0.36738 0.44328 0.87396 0.0
H1492 H 0.35914 0.44185 0.90436 0.0
H1493 H 0.26559 0.46206 0.89557 0.0
O1494 O 0.41778 0.6251 0.83306 0.0
C1495 C 0.29958 0.55556 0.82252 0.0
Co1496 Co 0.69573 0.74788 0.00847 0.0
Co1497 Co 0.74152 0.69844 0.06386 0.0
C1498 C 0.71632 0.66483 0.98628 0.0
O1499 O 0.69974 0.69596 0.97987 0.0
O1500 O 0.73331 0.66114 0.01824 0.0
C1501 C 0.62212 0.75481 0.9766 0.0
O1502 O 0.61574 0.72981 0.00254 0.0
C1503 C 0.7364 0.63855 0.11339 0.0
C1504 C 0.79264 0.63983 0.14475 0.0
C1505 C 0.75683 0.62072 0.1406 0.0
N1506 N 0.75872 0.66723 0.10144 0.0
N1507 N 0.79258 0.66791 0.11986 0.0
C1508 C 0.6959 0.62861 0.09916 0.0
H1509 H 0.68657 0.64824 0.07725 0.0
H1510 H 0.67587 0.63082 0.12401 0.0
H1511 H 0.69427 0.59797 0.08625 0.0
C1512 C 0.65518 0.77158 0.08182 0.0
N1513 N 0.67835 0.74751 0.06031 0.0
N1514 N 0.69872 0.72755 0.08374 0.0
C1515 C 0.68969 0.73895 0.1208 0.0
C1516 C 0.66173 0.76692 0.1208 0.0
C1517 C 0.63115 0.80227 0.06611 0.0
H1518 H 0.6451 0.81349 0.04046 0.0
H1519 H 0.60229 0.78938 0.05714 0.0
H1520 H 0.62687 0.82671 0.08857 0.0
O1521 O 0.74931 0.77329 0.0134 0.0
O1522 O 0.78119 0.73538 0.05201 0.0
H1523 H 0.74113 0.72437 0.15116 0.0
H1524 H 0.70431 0.74483 0.18235 0.0
C1525 C 0.70954 0.72555 0.15574 0.0
H1526 H 0.69802 0.69605 0.16011 0.0
H1527 H 0.8153 0.68763 0.11572 0.0
O1528 O 0.65586 0.77059 0.97486 0.0
C1529 C 0.78012 0.76408 0.0314 0.0
Co1530 Co 0.74384 0.37499 0.99308 0.0
Co1531 Co 0.696 0.32082 0.04781 0.0
C1532 C 0.67019 0.33012 0.96791 0.0
O1533 O 0.69952 0.35142 0.96186 0.0
O1534 O 0.66377 0.31856 0.00093 0.0
C1535 C 0.73483 0.44896 0.96037 0.0
O1536 O 0.70626 0.44993 0.98498 0.0
C1537 C 0.62801 0.31899 0.09498 0.0
C1538 C 0.63628 0.27104 0.13202 0.0
C1539 C 0.61173 0.30108 0.12532 0.0
N1540 N 0.66072 0.30095 0.08434 0.0
N1541 N 0.66497 0.27146 0.10591 0.0
C1542 C 0.61472 0.35567 0.07941 0.0
H1543 H 0.63522 0.36602 0.05793 0.0
H1544 H 0.61161 0.37869 0.10357 0.0
H1545 H 0.5857 0.35011 0.06549 0.0
C1546 C 0.7477 0.42528 0.06831 0.0
N1547 N 0.73301 0.39419 0.04561 0.0
N1548 N 0.7145 0.37102 0.06795 0.0
C1549 C 0.71758 0.38644 0.10517 0.0
C1550 C 0.73857 0.42114 0.10681 0.0
C1551 C 0.77337 0.45649 0.0543 0.0
H1552 H 0.78637 0.44659 0.0262 0.0
H1553 H 0.756 0.48252 0.05071 0.0
H1554 H 0.79684 0.46472 0.07597 0.0
O1555 O 0.77901 0.32884 -0.00173 0.0
O1556 O 0.74302 0.29018 0.03438 0.0
H1557 H 0.7179 0.3799 0.1668 0.0
H1558 H 0.6718 0.3727 0.14243 0.0
C1559 C 0.70309 0.36745 0.13961 0.0
H1560 H 0.70788 0.33574 0.13601 0.0
H1561 H 0.68851 0.25311 0.10438 0.0
O1562 O 0.75786 0.42028 0.95956 0.0
C1563 C 0.77345 0.29705 0.01491 0.0
Co1564 Co 0.33741 0.70342 0.01073 0.0
Co1565 Co 0.38496 0.75464 0.07154 0.0
C1566 C 0.41407 0.74276 0.99078 0.0
O1567 O 0.38285 0.72378 0.98154 0.0
O1568 O 0.42127 0.7542 0.02616 0.0
C1569 C 0.34537 0.64 0.96351 0.0
O1570 O 0.37883 0.64616 0.98179 0.0
C1571 C 0.44601 0.76273 0.1274 0.0
C1572 C 0.42326 0.80429 0.1732 0.0
C1573 C 0.45248 0.77837 0.16492 0.0
N1574 N 0.4136 0.77781 0.11416 0.0
N1575 N 0.40064 0.80358 0.14106 0.0
C1576 C 0.46685 0.72986 0.1065 0.0
H1577 H 0.44704 0.71251 0.08573 0.0
H1578 H 0.47964 0.71076 0.12728 0.0
H1579 H 0.49071 0.74217 0.08978 0.0
C1580 C 0.33495 0.64918 0.07443 0.0
N1581 N 0.34842 0.68152 0.05868 0.0
N1582 N 0.36661 0.70446 0.08582 0.0
C1583 C 0.36421 0.68767 0.11987 0.0
C1584 C 0.34406 0.65226 0.11393 0.0
C1585 C 0.31181 0.61685 0.05267 0.0
H1586 H 0.2895 0.62907 0.03418 0.0
H1587 H 0.33132 0.59934 0.03345 0.0
H1588 H 0.29771 0.59761 0.07279 0.0
O1589 O 0.30128 0.74618 0.02293 0.0
O1590 O 0.33891 0.78607 0.06291 0.0
H1591 H 0.37212 0.73669 0.16199 0.0
H1592 H 0.36538 0.691 0.18268 0.0
C1593 C 0.37885 0.70545 0.15853 0.0
H1594 H 0.41052 0.70187 0.16069 0.0
H1595 H 0.37467 0.81798 0.13876 0.0
O1596 O 0.31724 0.66166 0.97282 0.0
C1597 C 0.30713 0.77792 0.04439 0.0
Co1598 Co 0.32819 0.37464 0.10117 0.0
Co1599 Co 0.38215 0.34031 0.03667 0.0
C1600 C 0.40928 0.34417 0.11673 0.0
O1601 O 0.37673 0.35762 0.12683 0.0
O1602 O 0.4174 0.3369 0.08122 0.0
C1603 C 0.33498 0.44494 0.14074 0.0
O1604 O 0.36573 0.44189 0.11903 0.0
C1605 C 0.4421 0.33299 0.97852 0.0
C1606 C 0.40551 0.3144 0.92665 0.0
C1607 C 0.4422 0.32789 0.93844 0.0
N1608 N 0.40607 0.32451 0.9898 0.0
N1609 N 0.38476 0.31208 0.9589 0.0
C1610 C 0.47315 0.35213 0.0049 0.0
H1611 H 0.46016 0.36949 0.02965 0.0
H1612 H 0.49264 0.37116 0.98905 0.0
H1613 H 0.49065 0.32923 0.01673 0.0
C1614 C 0.31312 0.42562 0.04031 0.0
N1615 N 0.33581 0.40017 0.05644 0.0
N1616 N 0.36458 0.39121 0.0334 0.0
C1617 C 0.36277 0.41324 0.00312 0.0
C1618 C 0.32957 0.4348 0.00621 0.0
C1619 C 0.27411 0.43711 0.05459 0.0
H1620 H 0.26627 0.42225 0.08068 0.0
H1621 H 0.27404 0.46916 0.06122 0.0
H1622 H 0.25201 0.42948 0.03133 0.0
O1623 O 0.29405 0.33004 0.08256 0.0
O1624 O 0.33502 0.30598 0.03759 0.0
H1625 H 0.3811 0.39143 0.94682 0.0
H1626 H 0.39416 0.44173 0.95988 0.0
C1627 C 0.39116 0.41268 0.97099 0.0
H1628 H 0.41998 0.40526 0.98175 0.0
H1629 H 0.35517 0.30536 0.95955 0.0
O1630 O 0.31046 0.41641 0.1399 0.0
C1631 C 0.30249 0.30536 0.05438 0.0
loop_
_geom_bond_atom_site_label_1
_geom_bond_atom_site_label_2
_geom_bond_distance
_geom_bond_site_symmetry_2
_ccdc_geom_bond_type
Co0 O3 1.970 . S
Co0 N17 1.989 1_655 S
Co0 O25 1.967 . S
Co0 O32 1.920 . S
Co1 O4 1.966 . S
Co1 N10 2.022 . S
Co1 N18 1.993 . S
Co1 O26 1.941 . S
C2 O3 1.258 . S
C2 O4 1.263 1_655 S
O3 Co0 1.970 . S
O3 C2 1.258 . S
O4 Co1 1.966 . S
O4 C2 1.263 1_455 S
C5 O6 1.235 . S
C5 O32 1.289 . S
O6 C5 1.235 . S
C7 C9 1.400 . S
C7 N10 1.351 . S
C7 C12 1.501 . S
C8 C9 1.387 . S
C8 N11 1.341 . S
C9 C7 1.400 . S
C9 C8 1.387 . S
N10 Co1 2.022 . S
N10 C7 1.351 . S
N10 N11 1.365 . S
N11 C8 1.341 . S
N11 N10 1.365 . S
N11 H31 0.862 . S
C12 C7 1.501 . S
C12 H13 0.961 . S
C12 H14 0.961 . S
C12 H15 0.960 . S
H13 C12 0.961 . S
H14 C12 0.961 . S
H15 C12 0.960 . S
C16 N17 1.342 . S
C16 C20 1.401 . S
C16 C21 1.499 . S
N17 Co0 1.989 1_455 S
N17 C16 1.342 . S
N17 N18 1.388 . S
N18 Co1 1.993 . S
N18 N17 1.388 . S
N18 C19 1.346 . S
C19 N18 1.346 . S
C19 C20 1.396 . S
C19 C29 1.510 . S
C20 C16 1.401 . S
C20 C19 1.396 . S
C21 C16 1.499 . S
C21 H22 0.959 . S
C21 H23 0.960 . S
C21 H24 0.961 . S
H22 C21 0.959 . S
H23 C21 0.960 . S
H24 C21 0.961 . S
O25 Co0 1.967 . S
O25 C33 1.258 1_655 S
O26 Co1 1.941 . S
O26 C33 1.266 . S
H27 C29 0.959 . S
H28 C29 0.961 . S
C29 C19 1.510 . S
C29 H27 0.959 . S
C29 H28 0.961 . S
C29 H30 0.960 . S
H30 C29 0.960 . S
H31 N11 0.862 . S
O32 Co0 1.920 . S
O32 C5 1.289 . S
C33 O25 1.258 1_455 S
C33 O26 1.266 . S
Co34 O37 1.970 . S
Co34 N51 1.989 . S
Co34 O59 1.967 . S
Co34 O66 1.920 . S
Co35 O38 1.966 . S
Co35 N44 2.022 1_545 S
Co35 N52 1.993 1_545 S
Co35 O60 1.941 . S
C36 O37 1.258 . S
C36 O38 1.263 . S
O37 Co34 1.970 . S
O37 C36 1.258 . S
O38 Co35 1.966 . S
O38 C36 1.263 . S
C39 O40 1.235 . S
C39 O66 1.289 . S
O40 C39 1.235 . S
C41 C43 1.400 . S
C41 N44 1.351 . S
C41 C46 1.501 . S
C42 C43 1.387 . S
C42 N45 1.341 . S
C43 C41 1.400 . S
C43 C42 1.387 . S
N44 Co35 2.022 1_565 S
N44 C41 1.351 . S
N44 N45 1.365 . S
N45 C42 1.341 . S
N45 N44 1.365 . S
N45 H65 0.862 . S
C46 C41 1.501 . S
C46 H47 0.961 1_565 S
C46 H48 0.961 . S
C46 H49 0.960 . S
H47 C46 0.961 1_545 S
H48 C46 0.961 . S
H49 C46 0.960 . S
C50 N51 1.332 1_565 S
C50 C54 1.426 . S
C50 C55 1.486 1_565 S
N51 Co34 1.989 . S
N51 C50 1.332 1_545 S
N51 N52 1.388 1_545 S
N52 Co35 1.993 1_565 S
N52 N51 1.388 1_565 S
N52 C53 1.346 . S
C53 N52 1.346 . S
C53 C54 1.396 . S
C53 C63 1.510 . S
C54 C50 1.426 . S
C54 C53 1.396 . S
C55 C50 1.486 1_545 S
C55 H56 0.959 . S
C55 H57 0.960 . S
C55 H58 0.961 . S
H56 C55 0.959 . S
H57 C55 0.960 . S
H58 C55 0.961 . S
O59 Co34 1.967 . S
O59 C67 1.258 . S
O60 Co35 1.941 . S
O60 C67 1.266 . S
H61 C63 0.959 . S
H62 C63 0.961 . S
C63 C53 1.510 . S
C63 H61 0.959 . S
C63 H62 0.961 . S
C63 H64 0.960 . S
H64 C63 0.960 . S
H65 N45 0.862 . S
O66 Co34 1.920 . S
O66 C39 1.289 . S
C67 O59 1.258 . S
C67 O60 1.266 . S
Co68 O71 1.962 1_455 S
Co68 N85 2.005 . S
Co68 O93 1.968 . S
Co68 O100 1.910 1_455 S
Co69 O72 1.966 . S
Co69 N78 2.022 . S
Co69 N86 1.993 . S
Co69 O94 1.941 . S
C70 O71 1.258 . S
C70 O72 1.263 1_655 S
O71 Co68 1.962 1_655 S
O71 C70 1.258 . S
O72 Co69 1.966 . S
O72 C70 1.263 1_455 S
C73 O74 1.235 . S
C73 O100 1.289 . S
O74 C73 1.235 . S
C75 C77 1.400 . S
C75 N78 1.351 . S
C75 C80 1.501 . S
C76 C77 1.387 . S
C76 N79 1.341 . S
C77 C75 1.400 . S
C77 C76 1.387 . S
N78 Co69 2.022 . S
N78 C75 1.351 . S
N78 N79 1.365 . S
N79 C76 1.341 . S
N79 N78 1.365 . S
N79 H99 0.862 . S
C80 C75 1.501 . S
C80 H81 0.961 . S
C80 H82 0.961 . S
C80 H83 0.960 . S
H81 C80 0.961 . S
H82 C80 0.961 . S
H83 C80 0.960 . S
C84 N85 1.342 . S
C84 C88 1.401 . S
C84 C89 1.499 . S
N85 Co68 2.005 . S
N85 C84 1.342 . S
N85 N86 1.388 . S
N86 Co69 1.993 . S
N86 N85 1.388 . S
N86 C87 1.346 . S
C87 N86 1.346 . S
C87 C88 1.396 . S
C87 C97 1.510 . S
C88 C84 1.401 . S
C88 C87 1.396 . S
C89 C84 1.499 . S
C89 H90 0.959 . S
C89 H91 0.960 . S
C89 H92 0.961 . S
H90 C89 0.959 . S
H91 C89 0.960 . S
H92 C89 0.961 . S
O93 Co68 1.968 . S
O93 C101 1.258 . S
O94 Co69 1.941 . S
O94 C101 1.266 . S
H95 C97 0.959 . S
H96 C97 0.961 . S
C97 C87 1.510 . S
C97 H95 0.959 . S
C97 H96 0.961 . S
C97 H98 0.960 . S
H98 C97 0.960 . S
H99 N79 0.862 . S
O100 Co68 1.910 1_655 S
O100 C73 1.289 . S
C101 O93 1.258 . S
C101 O94 1.266 . S
Co102 O105 1.970 . S
Co102 N119 1.989 1_565 S
Co102 O127 1.967 . S
Co102 O134 1.920 . S
Co103 O106 1.966 . S
Co103 N112 2.022 . S
Co103 N120 1.993 . S
Co103 O128 1.941 . S
C104 O105 1.258 . S
C104 O106 1.263 1_565 S
O105 Co102 1.970 . S
O105 C104 1.258 . S
O106 Co103 1.966 . S
O106 C104 1.263 1_545 S
C107 O108 1.235 . S
C107 O134 1.289 . S
O108 C107 1.235 . S
C109 C111 1.400 . S
C109 N112 1.351 . S
C109 C114 1.501 . S
C110 C111 1.387 . S
C110 N113 1.341 . S
C111 C109 1.400 . S
C111 C110 1.387 . S
N112 Co103 2.022 . S
N112 C109 1.351 . S
N112 N113 1.365 . S
N113 C110 1.341 . S
N113 N112 1.365 . S
N113 H133 0.862 . S
C114 C109 1.501 . S
C114 H115 0.961 . S
C114 H116 0.961 . S
C114 H117 0.960 . S
H115 C114 0.961 . S
H116 C114 0.961 . S
H117 C114 0.960 . S
C118 N119 1.342 . S
C118 C122 1.401 . S
C118 C123 1.499 . S
N119 Co102 1.989 1_545 S
N119 C118 1.342 . S
N119 N120 1.388 . S
N120 Co103 1.993 . S
N120 N119 1.388 . S
N120 C121 1.346 . S
C121 N120 1.346 . S
C121 C122 1.396 . S
C121 C131 1.510 . S
C122 C118 1.401 . S
C122 C121 1.396 . S
C123 C118 1.499 . S
C123 H124 0.959 . S
C123 H125 0.960 . S
C123 H126 0.961 . S
H124 C123 0.959 . S
H125 C123 0.960 . S
H126 C123 0.961 . S
O127 Co102 1.967 . S
O127 C135 1.258 1_565 S
O128 Co103 1.941 . S
O128 C135 1.266 . S
H129 C131 0.959 . S
H130 C131 0.961 . S
C131 C121 1.510 . S
C131 H129 0.959 . S
C131 H130 0.961 . S
C131 H132 0.960 . S
H132 C131 0.960 . S
H133 N113 0.862 . S
O134 Co102 1.920 . S
O134 C107 1.289 . S
C135 O127 1.258 1_545 S
C135 O128 1.266 . S
Co136 O139 1.970 . S
Co136 N153 1.989 1_655 S
Co136 O161 1.967 . S
Co136 O168 1.920 . S
Co137 O140 1.966 . S
Co137 N146 2.022 . S
Co137 N154 1.993 . S
Co137 O162 1.941 . S
C138 O139 1.258 . S
C138 O140 1.263 1_655 S
O139 Co136 1.970 . S
O139 C138 1.258 . S
O140 Co137 1.966 . S
O140 C138 1.263 1_455 S
C141 O142 1.235 . S
C141 O168 1.289 . S
O142 C141 1.235 . S
C143 C145 1.400 . S
C143 N146 1.351 . S
C143 C148 1.501 . S
C144 C145 1.387 . S
C144 N147 1.341 . S
C145 C143 1.400 . S
C145 C144 1.387 . S
N146 Co137 2.022 . S
N146 C143 1.351 . S
N146 N147 1.365 . S
N147 C144 1.341 . S
N147 N146 1.365 . S
N147 H167 0.862 . S
C148 C143 1.501 . S
C148 H149 0.961 . S
C148 H150 0.961 . S
C148 H151 0.960 . S
H149 C148 0.961 . S
H150 C148 0.961 . S
H151 C148 0.960 . S
C152 N153 1.342 . S
C152 C156 1.401 . S
C152 C157 1.499 . S
N153 Co136 1.989 1_455 S
N153 C152 1.342 . S
N153 N154 1.388 . S
N154 Co137 1.993 . S
N154 N153 1.388 . S
N154 C155 1.346 . S
C155 N154 1.346 . S
C155 C156 1.396 . S
C155 C165 1.510 . S
C156 C152 1.401 . S
C156 C155 1.396 . S
C157 C152 1.499 . S
C157 H158 0.959 . S
C157 H159 0.960 . S
C157 H160 0.961 . S
H158 C157 0.959 . S
H159 C157 0.960 . S
H160 C157 0.961 . S
O161 Co136 1.967 . S
O161 C169 1.258 1_655 S
O162 Co137 1.941 . S
O162 C169 1.266 . S
H163 C165 0.959 . S
H164 C165 0.961 . S
C165 C155 1.510 . S
C165 H163 0.959 . S
C165 H164 0.961 . S
C165 H166 0.960 . S
H166 C165 0.960 . S
H167 N147 0.862 . S
O168 Co136 1.920 . S
O168 C141 1.289 . S
C169 O161 1.258 1_455 S
C169 O162 1.266 . S
Co170 O173 1.970 . S
Co170 N187 1.989 . S
Co170 O195 1.967 . S
Co170 O202 1.920 . S
Co171 O174 1.966 . S
Co171 N180 2.022 1_545 S
Co171 N188 1.993 . S
Co171 O196 1.941 . S
C172 O173 1.258 . S
C172 O174 1.263 . S
O173 Co170 1.970 . S
O173 C172 1.258 . S
O174 Co171 1.966 . S
O174 C172 1.263 . S
C175 O176 1.235 . S
C175 O202 1.289 . S
O176 C175 1.235 . S
C177 C179 1.400 . S
C177 N180 1.351 . S
C177 C182 1.501 1_565 S
C178 C179 1.387 . S
C178 N181 1.341 . S
C179 C177 1.400 . S
C179 C178 1.387 . S
N180 Co171 2.022 1_565 S
N180 C177 1.351 . S
N180 N181 1.365 . S
N181 C178 1.341 . S
N181 N180 1.365 . S
N181 H201 0.862 . S
C182 C177 1.501 1_545 S
C182 H183 0.961 . S
C182 H184 0.961 . S
C182 H185 0.960 . S
H183 C182 0.961 . S
H184 C182 0.961 . S
H185 C182 0.960 . S
C186 N187 1.342 . S
C186 C190 1.376 1_545 S
C186 C191 1.499 . S
N187 Co170 1.989 . S
N187 C186 1.342 . S
N187 N188 1.388 . S
N188 Co171 1.993 . S
N188 N187 1.388 . S
N188 C189 1.346 1_545 S
C189 N188 1.346 1_565 S
C189 C190 1.398 . S
C189 C199 1.510 . S
C190 C186 1.376 1_565 S
C190 C189 1.398 . S
C191 C186 1.499 . S
C191 H192 0.959 . S
C191 H193 0.960 . S
C191 H194 0.961 . S
H192 C191 0.959 . S
H193 C191 0.960 . S
H194 C191 0.961 . S
O195 Co170 1.967 . S
O195 C203 1.258 . S
O196 Co171 1.941 . S
O196 C203 1.266 . S
H197 C199 0.959 . S
H198 C199 0.961 . S
C199 C189 1.510 . S
C199 H197 0.959 . S
C199 H198 0.961 . S
C199 H200 0.960 . S
H200 C199 0.960 . S
H201 N181 0.862 . S
O202 Co170 1.920 . S
O202 C175 1.289 . S
C203 O195 1.258 . S
C203 O196 1.266 . S
Co204 O207 1.970 . S
Co204 N221 1.989 1_655 S
Co204 O229 1.967 . S
Co204 O236 1.920 . S
Co205 O208 1.966 . S
Co205 N214 2.022 . S
Co205 N222 1.993 . S
Co205 O230 1.941 . S
C206 O207 1.258 . S
C206 O208 1.263 1_655 S
O207 Co204 1.970 . S
O207 C206 1.258 . S
O208 Co205 1.966 . S
O208 C206 1.263 1_455 S
C209 O210 1.235 . S
C209 O236 1.289 . S
O210 C209 1.235 . S
C211 C213 1.400 . S
C211 N214 1.351 . S
C211 C216 1.501 . S
C212 C213 1.387 . S
C212 N215 1.341 . S
C213 C211 1.400 . S
C213 C212 1.387 . S
N214 Co205 2.022 . S
N214 C211 1.351 . S
N214 N215 1.365 . S
N215 C212 1.341 . S
N215 N214 1.365 . S
N215 H235 0.862 . S
C216 C211 1.501 . S
C216 H217 0.961 . S
C216 H218 0.961 . S
C216 H219 0.960 . S
H217 C216 0.961 . S
H218 C216 0.961 . S
H219 C216 0.960 . S
C220 N221 1.342 . S
C220 C224 1.401 . S
C220 C225 1.499 . S
N221 Co204 1.989 1_455 S
N221 C220 1.342 . S
N221 N222 1.388 . S
N222 Co205 1.993 . S
N222 N221 1.388 . S
N222 C223 1.346 . S
C223 N222 1.346 . S
C223 C224 1.396 . S
C223 C233 1.510 . S
C224 C220 1.401 . S
C224 C223 1.396 . S
C225 C220 1.499 . S
C225 H226 0.959 . S
C225 H227 0.960 . S
C225 H228 0.961 . S
H226 C225 0.959 . S
H227 C225 0.960 . S
H228 C225 0.961 . S
O229 Co204 1.967 . S
O229 C237 1.258 1_655 S
O230 Co205 1.941 . S
O230 C237 1.266 . S
H231 C233 0.959 . S
H232 C233 0.961 . S
C233 C223 1.510 . S
C233 H231 0.959 . S
C233 H232 0.961 . S
C233 H234 0.960 . S
H234 C233 0.960 . S
H235 N215 0.862 . S
O236 Co204 1.920 . S
O236 C209 1.289 . S
C237 O229 1.258 1_455 S
C237 O230 1.266 . S
Co238 O241 1.970 . S
Co238 N255 1.989 . S
Co238 O263 1.967 . S
Co238 O270 1.920 . S
Co239 O242 1.966 . S
Co239 N248 2.022 1_545 S
Co239 N256 1.992 1_545 S
Co239 O264 1.941 . S
C240 O241 1.258 . S
C240 O242 1.263 . S
O241 Co238 1.970 . S
O241 C240 1.258 . S
O242 Co239 1.966 . S
O242 C240 1.263 . S
C243 O244 1.235 . S
C243 O270 1.289 . S
O244 C243 1.235 . S
C245 C247 1.400 . S
C245 N248 1.351 . S
C245 C250 1.501 . S
C246 C247 1.387 . S
C246 N249 1.341 . S
C247 C245 1.400 . S
C247 C246 1.387 . S
N248 Co239 2.022 1_565 S
N248 C245 1.351 . S
N248 N249 1.365 . S
N249 C246 1.341 . S
N249 N248 1.365 . S
N249 H269 0.862 . S
C250 C245 1.501 . S
C250 H251 0.961 1_565 S
C250 H252 0.961 . S
C250 H253 0.960 . S
H251 C250 0.961 1_545 S
H252 C250 0.961 . S
H253 C250 0.960 . S
C254 N255 1.342 . S
C254 C258 1.401 1_545 S
C254 C259 1.499 . S
N255 Co238 1.989 . S
N255 C254 1.342 . S
N255 N256 1.383 1_545 S
N256 Co239 1.992 1_565 S
N256 N255 1.383 1_565 S
N256 C257 1.352 . S
C257 N256 1.352 . S
C257 C258 1.396 . S
C257 C267 1.510 . S
C258 C254 1.401 1_565 S
C258 C257 1.396 . S
C259 C254 1.499 . S
C259 H260 0.959 . S
C259 H261 0.960 . S
C259 H262 0.961 . S
H260 C259 0.959 . S
H261 C259 0.960 . S
H262 C259 0.961 . S
O263 Co238 1.967 . S
O263 C271 1.258 . S
O264 Co239 1.941 . S
O264 C271 1.266 . S
H265 C267 0.959 . S
H266 C267 0.961 . S
C267 C257 1.510 . S
C267 H265 0.959 . S
C267 H266 0.961 . S
C267 H268 0.960 . S
H268 C267 0.960 . S
H269 N249 0.862 . S
O270 Co238 1.920 . S
O270 C243 1.289 . S
C271 O263 1.258 . S
C271 O264 1.266 . S
Co272 O275 1.970 1_554 S
Co272 N289 1.989 . S
Co272 O297 1.967 . S
Co272 O304 1.920 1_554 S
Co273 O276 1.966 . S
Co273 N282 2.022 . S
Co273 N290 1.993 . S
Co273 O298 1.941 . S
C274 O275 1.258 . S
C274 O276 1.263 1_556 S
O275 Co272 1.970 1_556 S
O275 C274 1.258 . S
O276 Co273 1.966 . S
O276 C274 1.263 1_554 S
C277 O278 1.235 . S
C277 O304 1.289 . S
O278 C277 1.235 . S
C279 C281 1.400 . S
C279 N282 1.351 . S
C279 C284 1.501 . S
C280 C281 1.387 . S
C280 N283 1.341 . S
C281 C279 1.400 . S
C281 C280 1.387 . S
N282 Co273 2.022 . S
N282 C279 1.351 . S
N282 N283 1.365 . S
N283 C280 1.341 . S
N283 N282 1.365 . S
N283 H303 0.862 . S
C284 C279 1.501 . S
C284 H285 0.961 . S
C284 H286 0.961 . S
C284 H287 0.960 . S
H285 C284 0.961 . S
H286 C284 0.961 . S
H287 C284 0.960 . S
C288 N289 1.342 . S
C288 C292 1.401 . S
C288 C293 1.499 . S
N289 Co272 1.989 . S
N289 C288 1.342 . S
N289 N290 1.388 . S
N290 Co273 1.993 . S
N290 N289 1.388 . S
N290 C291 1.346 . S
C291 N290 1.346 . S
C291 C292 1.396 . S
C291 C301 1.510 . S
C292 C288 1.401 . S
C292 C291 1.396 . S
C293 C288 1.499 . S
C293 H294 0.959 . S
C293 H295 0.960 . S
C293 H296 0.961 . S
H294 C293 0.959 . S
H295 C293 0.960 . S
H296 C293 0.961 . S
O297 Co272 1.967 . S
O297 C305 1.258 . S
O298 Co273 1.941 . S
O298 C305 1.266 . S
H299 C301 0.959 . S
H300 C301 0.961 . S
C301 C291 1.510 . S
C301 H299 0.959 . S
C301 H300 0.961 . S
C301 H302 0.960 . S
H302 C301 0.960 . S
H303 N283 0.862 . S
O304 Co272 1.920 1_556 S
O304 C277 1.289 . S
C305 O297 1.258 . S
C305 O298 1.266 . S
Co306 O309 1.970 . S
Co306 N323 1.989 . S
Co306 O331 1.967 . S
Co306 O338 1.920 . S
Co307 O310 1.966 . S
Co307 N316 2.022 1_554 S
Co307 N324 1.993 1_554 S
Co307 O332 1.941 . S
C308 O309 1.258 . S
C308 O310 1.263 . S
O309 Co306 1.970 . S
O309 C308 1.258 . S
O310 Co307 1.966 . S
O310 C308 1.263 . S
C311 O312 1.235 . S
C311 O338 1.289 . S
O312 C311 1.235 . S
C313 C315 1.400 . S
C313 N316 1.351 . S
C313 C318 1.501 1_556 S
C314 C315 1.387 . S
C314 N317 1.341 . S
C315 C313 1.400 . S
C315 C314 1.387 . S
N316 Co307 2.022 1_556 S
N316 C313 1.351 . S
N316 N317 1.365 . S
N317 C314 1.341 . S
N317 N316 1.365 . S
N317 H337 0.862 . S
C318 C313 1.501 1_554 S
C318 H319 0.961 . S
C318 H320 0.960 1_554 S
C318 H321 0.960 . S
H319 C318 0.961 . S
H320 C318 0.960 1_556 S
H321 C318 0.960 . S
C322 N323 1.354 . S
C322 C326 1.374 1_554 S
C322 C327 1.514 . S
N323 Co306 1.989 . S
N323 C322 1.354 . S
N323 N324 1.388 1_554 S
N324 Co307 1.993 1_556 S
N324 N323 1.388 1_556 S
N324 C325 1.346 . S
C325 N324 1.346 . S
C325 C326 1.396 . S
C325 C335 1.510 . S
C326 C322 1.374 1_556 S
C326 C325 1.396 . S
C327 C322 1.514 . S
C327 H328 0.959 . S
C327 H329 0.960 . S
C327 H330 0.961 . S
H328 C327 0.959 . S
H329 C327 0.960 . S
H330 C327 0.961 . S
O331 Co306 1.967 . S
O331 C339 1.258 . S
O332 Co307 1.941 . S
O332 C339 1.266 . S
H333 C335 0.959 . S
H334 C335 0.961 . S
C335 C325 1.510 . S
C335 H333 0.959 . S
C335 H334 0.961 . S
C335 H336 0.960 . S
H336 C335 0.960 . S
H337 N317 0.862 . S
O338 Co306 1.920 . S
O338 C311 1.289 . S
C339 O331 1.258 . S
C339 O332 1.266 . S
Co340 O343 1.970 . S
Co340 N357 1.989 1_556 S
Co340 O365 1.967 1_556 S
Co340 O372 1.920 . S
Co341 O344 1.966 . S
Co341 N350 2.022 . S
Co341 N358 1.993 . S
Co341 O366 1.941 . S
C342 O343 1.258 . S
C342 O344 1.263 1_556 S
O343 Co340 1.970 . S
O343 C342 1.258 . S
O344 Co341 1.966 . S
O344 C342 1.263 1_554 S
C345 O346 1.235 . S
C345 O372 1.289 . S
O346 C345 1.235 . S
C347 C349 1.400 . S
C347 N350 1.351 . S
C347 C352 1.501 . S
C348 C349 1.387 . S
C348 N351 1.341 . S
C349 C347 1.400 . S
C349 C348 1.387 . S
N350 Co341 2.022 . S
N350 C347 1.351 . S
N350 N351 1.365 . S
N351 C348 1.341 . S
N351 N350 1.365 . S
N351 H371 0.862 . S
C352 C347 1.501 . S
C352 H353 0.961 . S
C352 H354 0.961 . S
C352 H355 0.960 . S
H353 C352 0.961 . S
H354 C352 0.961 . S
H355 C352 0.960 . S
C356 N357 1.342 . S
C356 C360 1.401 . S
C356 C361 1.499 . S
N357 Co340 1.989 1_554 S
N357 C356 1.342 . S
N357 N358 1.388 . S
N358 Co341 1.993 . S
N358 N357 1.388 . S
N358 C359 1.346 . S
C359 N358 1.346 . S
C359 C360 1.396 . S
C359 C369 1.510 . S
C360 C356 1.401 . S
C360 C359 1.396 . S
C361 C356 1.499 . S
C361 H362 0.959 . S
C361 H363 0.960 . S
C361 H364 0.961 . S
H362 C361 0.959 . S
H363 C361 0.960 . S
H364 C361 0.961 . S
O365 Co340 1.967 1_554 S
O365 C373 1.258 . S
O366 Co341 1.941 . S
O366 C373 1.266 . S
H367 C369 0.959 . S
H368 C369 0.961 . S
C369 C359 1.510 . S
C369 H367 0.959 . S
C369 H368 0.961 . S
C369 H370 0.960 . S
H370 C369 0.960 . S
H371 N351 0.862 . S
O372 Co340 1.920 . S
O372 C345 1.289 . S
C373 O365 1.258 . S
C373 O366 1.266 . S
Co374 O377 1.970 . S
Co374 N391 1.989 . S
Co374 O399 1.967 . S
Co374 O406 1.920 . S
Co375 O378 1.966 1_556 S
Co375 N384 2.022 . S
Co375 N392 1.993 . S
Co375 O400 1.941 1_556 S
C376 O377 1.258 . S
C376 O378 1.263 . S
O377 Co374 1.970 . S
O377 C376 1.258 . S
O378 Co375 1.966 1_554 S
O378 C376 1.263 . S
C379 O380 1.235 . S
C379 O406 1.289 . S
O380 C379 1.235 . S
C381 C383 1.400 . S
C381 N384 1.351 . S
C381 C386 1.501 . S
C382 C383 1.387 . S
C382 N385 1.341 . S
C383 C381 1.400 . S
C383 C382 1.387 . S
N384 Co375 2.022 . S
N384 C381 1.351 . S
N384 N385 1.365 . S
N385 C382 1.341 . S
N385 N384 1.365 . S
N385 H405 0.862 . S
C386 C381 1.501 . S
C386 H387 0.957 1_556 S
C386 H388 0.961 . S
C386 H389 0.960 . S
H387 C386 0.957 1_554 S
H388 C386 0.961 . S
H389 C386 0.960 . S
C390 N391 1.342 . S
C390 C394 1.401 1_554 S
C390 C395 1.499 . S
N391 Co374 1.989 . S
N391 C390 1.342 . S
N391 N392 1.388 1_554 S
N392 Co375 1.993 . S
N392 N391 1.388 1_556 S
N392 C393 1.346 . S
C393 N392 1.346 . S
C393 C394 1.396 . S
C393 C403 1.510 . S
C394 C390 1.401 1_556 S
C394 C393 1.396 . S
C395 C390 1.499 . S
C395 H396 0.959 . S
C395 H397 0.960 . S
C395 H398 0.961 . S
H396 C395 0.959 . S
H397 C395 0.960 . S
H398 C395 0.961 . S
O399 Co374 1.967 . S
O399 C407 1.258 . S
O400 Co375 1.941 1_554 S
O400 C407 1.266 . S
H401 C403 0.959 . S
H402 C403 0.961 . S
C403 C393 1.510 . S
C403 H401 0.959 . S
C403 H402 0.961 . S
C403 H404 0.960 . S
H404 C403 0.960 . S
H405 N385 0.862 . S
O406 Co374 1.920 . S
O406 C379 1.289 . S
C407 O399 1.258 . S
C407 O400 1.266 . S
Co408 O411 1.970 . S
Co408 N425 1.989 1_655 S
Co408 O433 1.967 . S
Co408 O440 1.920 . S
Co409 O412 1.987 . S
Co409 N418 2.022 . S
Co409 N426 1.993 . S
Co409 O434 1.941 . S
C410 O411 1.258 . S
C410 O412 1.239 1_655 S
O411 Co408 1.970 . S
O411 C410 1.258 . S
O412 Co409 1.987 . S
O412 C410 1.239 1_455 S
C413 O414 1.235 . S
C413 O440 1.289 . S
O414 C413 1.235 . S
C415 C417 1.400 . S
C415 N418 1.351 . S
C415 C420 1.501 . S
C416 C417 1.387 . S
C416 N419 1.341 . S
C417 C415 1.400 . S
C417 C416 1.387 . S
N418 Co409 2.022 . S
N418 C415 1.351 . S
N418 N419 1.365 . S
N419 C416 1.341 . S
N419 N418 1.365 . S
N419 H439 0.862 . S
C420 C415 1.501 . S
C420 H421 0.961 . S
C420 H422 0.961 . S
C420 H423 0.960 . S
H421 C420 0.961 . S
H422 C420 0.961 . S
H423 C420 0.960 . S
C424 N425 1.342 . S
C424 C428 1.401 . S
C424 C429 1.499 . S
N425 Co408 1.989 1_455 S
N425 C424 1.342 . S
N425 N426 1.388 . S
N426 Co409 1.993 . S
N426 N425 1.388 . S
N426 C427 1.346 . S
C427 N426 1.346 . S
C427 C428 1.396 . S
C427 C437 1.510 . S
C428 C424 1.401 . S
C428 C427 1.396 . S
C429 C424 1.499 . S
C429 H430 0.959 1_455 S
C429 H431 0.960 . S
C429 H432 0.961 . S
H430 C429 0.959 1_655 S
H431 C429 0.960 . S
H432 C429 0.961 . S
O433 Co408 1.967 . S
O433 C441 1.258 1_655 S
O434 Co409 1.941 . S
O434 C441 1.266 . S
H435 C437 0.959 . S
H436 C437 0.961 . S
C437 C427 1.510 . S
C437 H435 0.959 . S
C437 H436 0.961 . S
C437 H438 0.960 . S
H438 C437 0.960 . S
H439 N419 0.862 . S
O440 Co408 1.920 . S
O440 C413 1.289 . S
C441 O433 1.258 1_455 S
C441 O434 1.266 . S
Co442 O445 1.970 . S
Co442 N459 1.989 . S
Co442 O467 1.967 . S
Co442 O474 1.920 . S
Co443 O446 1.966 . S
Co443 N452 2.022 . S
Co443 N460 1.993 . S
Co443 O468 1.941 . S
C444 O445 1.258 . S
C444 O446 1.263 . S
O445 Co442 1.970 . S
O445 C444 1.258 . S
O446 Co443 1.966 . S
O446 C444 1.263 . S
C447 O448 1.235 . S
C447 O474 1.289 . S
O448 C447 1.235 . S
C449 C451 1.400 . S
C449 N452 1.351 . S
C449 C454 1.501 . S
C450 C451 1.387 . S
C450 N453 1.341 . S
C451 C449 1.400 . S
C451 C450 1.387 . S
N452 Co443 2.022 . S
N452 C449 1.351 . S
N452 N453 1.365 . S
N453 C450 1.341 . S
N453 N452 1.365 . S
N453 H473 0.862 . S
C454 C449 1.501 . S
C454 H455 0.961 . S
C454 H456 0.961 . S
C454 H457 0.960 . S
H455 C454 0.961 . S
H456 C454 0.961 . S
H457 C454 0.960 . S
C458 N459 1.342 . S
C458 C462 1.401 . S
C458 C463 1.499 . S
N459 Co442 1.989 . S
N459 C458 1.342 . S
N459 N460 1.388 . S
N460 Co443 1.993 . S
N460 N459 1.388 . S
N460 C461 1.346 . S
C461 N460 1.346 . S
C461 C462 1.396 . S
C461 C471 1.510 . S
C462 C458 1.401 . S
C462 C461 1.396 . S
C463 C458 1.499 . S
C463 H464 0.959 . S
C463 H465 0.960 . S
C463 H466 0.961 . S
H464 C463 0.959 . S
H465 C463 0.960 . S
H466 C463 0.961 . S
O467 Co442 1.967 . S
O467 C475 1.258 . S
O468 Co443 1.941 . S
O468 C475 1.266 . S
H469 C471 0.959 . S
H470 C471 0.961 . S
C471 C461 1.510 . S
C471 H469 0.959 . S
C471 H470 0.961 . S
C471 H472 0.960 . S
H472 C471 0.960 . S
H473 N453 0.862 . S
O474 Co442 1.920 . S
O474 C447 1.289 . S
C475 O467 1.258 . S
C475 O468 1.266 . S
Co476 O479 1.970 . S
Co476 N493 1.989 1_655 S
Co476 O501 1.967 . S
Co476 O508 1.920 . S
Co477 O480 1.966 . S
Co477 N486 2.022 . S
Co477 N494 1.993 . S
Co477 O502 1.941 . S
C478 O479 1.258 . S
C478 O480 1.263 1_655 S
O479 Co476 1.970 . S
O479 C478 1.258 . S
O480 Co477 1.966 . S
O480 C478 1.263 1_455 S
C481 O482 1.235 . S
C481 O508 1.289 . S
O482 C481 1.235 . S
C483 C485 1.400 . S
C483 N486 1.351 . S
C483 C488 1.501 . S
C484 C485 1.387 . S
C484 N487 1.341 . S
C485 C483 1.400 . S
C485 C484 1.387 . S
N486 Co477 2.022 . S
N486 C483 1.351 . S
N486 N487 1.365 . S
N487 C484 1.341 . S
N487 N486 1.365 . S
N487 H507 0.862 . S
C488 C483 1.501 . S
C488 H489 0.961 . S
C488 H490 0.961 . S
C488 H491 0.960 . S
H489 C488 0.961 . S
H490 C488 0.961 . S
H491 C488 0.960 . S
C492 N493 1.342 . S
C492 C496 1.401 . S
C492 C497 1.499 . S
N493 Co476 1.989 1_455 S
N493 C492 1.342 . S
N493 N494 1.388 . S
N494 Co477 1.993 . S
N494 N493 1.388 . S
N494 C495 1.346 . S
C495 N494 1.346 . S
C495 C496 1.396 . S
C495 C505 1.510 . S
C496 C492 1.401 . S
C496 C495 1.396 . S
C497 C492 1.499 . S
C497 H498 0.959 . S
C497 H499 0.960 . S
C497 H500 0.961 . S
H498 C497 0.959 . S
H499 C497 0.960 . S
H500 C497 0.961 . S
O501 Co476 1.967 . S
O501 C509 1.258 1_655 S
O502 Co477 1.941 . S
O502 C509 1.266 . S
H503 C505 0.959 . S
H504 C505 0.961 . S
C505 C495 1.510 . S
C505 H503 0.959 . S
C505 H504 0.961 . S
C505 H506 0.960 . S
H506 C505 0.960 . S
H507 N487 0.862 . S
O508 Co476 1.920 . S
O508 C481 1.289 . S
C509 O501 1.258 1_455 S
C509 O502 1.266 . S
Co510 O513 1.970 . S
Co510 N527 1.989 . S
Co510 O535 1.967 . S
Co510 O542 1.920 . S
Co511 O514 1.966 . S
Co511 N520 2.022 . S
Co511 N528 1.993 . S
Co511 O536 1.941 . S
C512 O513 1.258 . S
C512 O514 1.263 . S
O513 Co510 1.970 . S
O513 C512 1.258 . S
O514 Co511 1.966 . S
O514 C512 1.263 . S
C515 O516 1.235 . S
C515 O542 1.289 . S
O516 C515 1.235 . S
C517 C519 1.400 . S
C517 N520 1.351 . S
C517 C522 1.501 . S
C518 C519 1.387 . S
C518 N521 1.341 . S
C519 C517 1.400 . S
C519 C518 1.387 . S
N520 Co511 2.022 . S
N520 C517 1.351 . S
N520 N521 1.365 . S
N521 C518 1.341 . S
N521 N520 1.365 . S
N521 H541 0.862 . S
C522 C517 1.501 . S
C522 H523 0.961 . S
C522 H524 0.961 . S
C522 H525 0.960 . S
H523 C522 0.961 . S
H524 C522 0.961 . S
H525 C522 0.960 . S
C526 N527 1.342 . S
C526 C530 1.401 . S
C526 C531 1.499 . S
N527 Co510 1.989 . S
N527 C526 1.342 . S
N527 N528 1.388 . S
N528 Co511 1.993 . S
N528 N527 1.388 . S
N528 C529 1.346 . S
C529 N528 1.346 . S
C529 C530 1.396 . S
C529 C539 1.510 . S
C530 C526 1.401 . S
C530 C529 1.396 . S
C531 C526 1.499 . S
C531 H532 0.959 . S
C531 H533 0.960 . S
C531 H534 0.961 . S
H532 C531 0.959 . S
H533 C531 0.960 . S
H534 C531 0.961 . S
O535 Co510 1.967 . S
O535 C543 1.258 . S
O536 Co511 1.941 . S
O536 C543 1.266 . S
H537 C539 0.959 . S
H538 C539 0.961 . S
C539 C529 1.510 . S
C539 H537 0.959 . S
C539 H538 0.961 . S
C539 H540 0.960 . S
H540 C539 0.960 . S
H541 N521 0.862 . S
O542 Co510 1.920 . S
O542 C515 1.289 . S
C543 O535 1.258 . S
C543 O536 1.266 . S
Co544 O547 1.970 1_455 S
Co544 N561 1.989 . S
Co544 O569 1.967 . S
Co544 O576 1.920 1_455 S
Co545 O548 1.966 . S
Co545 N554 2.022 . S
Co545 N562 1.993 . S
Co545 O570 1.941 . S
C546 O547 1.258 . S
C546 O548 1.263 1_655 S
O547 Co544 1.970 1_655 S
O547 C546 1.258 . S
O548 Co545 1.966 . S
O548 C546 1.263 1_455 S
C549 O550 1.235 . S
C549 O576 1.289 . S
O550 C549 1.235 . S
C551 C553 1.400 . S
C551 N554 1.351 . S
C551 C556 1.501 . S
C552 C553 1.387 . S
C552 N555 1.341 . S
C553 C551 1.400 . S
C553 C552 1.387 . S
N554 Co545 2.022 . S
N554 C551 1.351 . S
N554 N555 1.365 . S
N555 C552 1.341 . S
N555 N554 1.365 . S
N555 H575 0.862 . S
C556 C551 1.501 . S
C556 H557 0.961 . S
C556 H558 0.961 . S
C556 H559 0.960 . S
H557 C556 0.961 . S
H558 C556 0.961 . S
H559 C556 0.960 . S
C560 N561 1.342 . S
C560 C564 1.401 . S
C560 C565 1.499 . S
N561 Co544 1.989 . S
N561 C560 1.342 . S
N561 N562 1.388 . S
N562 Co545 1.993 . S
N562 N561 1.388 . S
N562 C563 1.346 . S
C563 N562 1.346 . S
C563 C564 1.396 . S
C563 C573 1.510 . S
C564 C560 1.401 . S
C564 C563 1.396 . S
C565 C560 1.499 . S
C565 H566 0.959 . S
C565 H567 0.960 . S
C565 H568 0.961 . S
H566 C565 0.959 . S
H567 C565 0.960 . S
H568 C565 0.961 . S
O569 Co544 1.967 . S
O569 C577 1.258 . S
O570 Co545 1.941 . S
O570 C577 1.266 . S
H571 C573 0.959 . S
H572 C573 0.961 . S
C573 C563 1.510 . S
C573 H571 0.959 . S
C573 H572 0.961 . S
C573 H574 0.960 . S
H574 C573 0.960 . S
H575 N555 0.862 . S
O576 Co544 1.920 1_655 S
O576 C549 1.289 . S
C577 O569 1.258 . S
C577 O570 1.266 . S
Co578 O581 1.970 . S
Co578 N595 1.989 . S
Co578 O603 1.967 . S
Co578 O610 1.920 . S
Co579 O582 1.966 . S
Co579 N588 2.022 . S
Co579 N596 1.993 . S
Co579 O604 1.941 . S
C580 O581 1.258 . S
C580 O582 1.263 . S
O581 Co578 1.970 . S
O581 C580 1.258 . S
O582 Co579 1.966 . S
O582 C580 1.263 . S
C583 O584 1.235 . S
C583 O610 1.289 . S
O584 C583 1.235 . S
C585 C587 1.400 . S
C585 N588 1.351 . S
C585 C590 1.501 . S
C586 C587 1.387 . S
C586 N589 1.341 . S
C587 C585 1.400 . S
C587 C586 1.387 . S
N588 Co579 2.022 . S
N588 C585 1.351 . S
N588 N589 1.365 . S
N589 C586 1.341 . S
N589 N588 1.365 . S
N589 H609 0.862 . S
C590 C585 1.501 . S
C590 H591 0.961 . S
C590 H592 0.961 . S
C590 H593 0.960 . S
H591 C590 0.961 . S
H592 C590 0.961 . S
H593 C590 0.960 . S
C594 N595 1.342 . S
C594 C598 1.401 . S
C594 C599 1.499 . S
N595 Co578 1.989 . S
N595 C594 1.342 . S
N595 N596 1.388 . S
N596 Co579 1.993 . S
N596 N595 1.388 . S
N596 C597 1.346 . S
C597 N596 1.346 . S
C597 C598 1.396 . S
C597 C607 1.510 . S
C598 C594 1.401 . S
C598 C597 1.396 . S
C599 C594 1.499 . S
C599 H600 0.959 . S
C599 H601 0.960 . S
C599 H602 0.961 . S
H600 C599 0.959 . S
H601 C599 0.960 . S
H602 C599 0.961 . S
O603 Co578 1.967 . S
O603 C611 1.258 . S
O604 Co579 1.941 . S
O604 C611 1.266 . S
H605 C607 0.959 . S
H606 C607 0.961 . S
C607 C597 1.510 . S
C607 H605 0.959 . S
C607 H606 0.961 . S
C607 H608 0.960 . S
H608 C607 0.960 . S
H609 N589 0.862 . S
O610 Co578 1.920 . S
O610 C583 1.289 . S
C611 O603 1.258 . S
C611 O604 1.266 . S
Co612 O615 1.970 . S
Co612 N629 1.989 1_655 S
Co612 O637 1.967 1_655 S
Co612 O644 1.920 . S
Co613 O616 1.966 . S
Co613 N622 2.022 . S
Co613 N630 1.993 . S
Co613 O638 1.941 . S
C614 O615 1.258 . S
C614 O616 1.263 1_655 S
O615 Co612 1.970 . S
O615 C614 1.258 . S
O616 Co613 1.966 . S
O616 C614 1.263 1_455 S
C617 O618 1.235 . S
C617 O644 1.289 . S
O618 C617 1.235 . S
C619 C621 1.400 . S
C619 N622 1.351 . S
C619 C624 1.501 . S
C620 C621 1.387 . S
C620 N623 1.341 . S
C621 C619 1.400 . S
C621 C620 1.387 . S
N622 Co613 2.022 . S
N622 C619 1.351 . S
N622 N623 1.365 . S
N623 C620 1.341 . S
N623 N622 1.365 . S
N623 H643 0.862 . S
C624 C619 1.501 . S
C624 H625 0.961 . S
C624 H626 0.961 . S
C624 H627 0.960 . S
H625 C624 0.961 . S
H626 C624 0.961 . S
H627 C624 0.960 . S
C628 N629 1.342 . S
C628 C632 1.401 . S
C628 C633 1.499 . S
N629 Co612 1.989 1_455 S
N629 C628 1.342 . S
N629 N630 1.388 . S
N630 Co613 1.993 . S
N630 N629 1.388 . S
N630 C631 1.346 . S
C631 N630 1.346 . S
C631 C632 1.396 . S
C631 C641 1.510 . S
C632 C628 1.401 . S
C632 C631 1.396 . S
C633 C628 1.499 . S
C633 H634 0.959 . S
C633 H635 0.960 . S
C633 H636 0.961 . S
H634 C633 0.959 . S
H635 C633 0.960 . S
H636 C633 0.961 . S
O637 Co612 1.967 1_455 S
O637 C645 1.258 . S
O638 Co613 1.941 . S
O638 C645 1.266 . S
H639 C641 0.959 . S
H640 C641 0.961 . S
C641 C631 1.510 . S
C641 H639 0.959 . S
C641 H640 0.961 . S
C641 H642 0.960 . S
H642 C641 0.960 . S
H643 N623 0.862 . S
O644 Co612 1.920 . S
O644 C617 1.289 . S
C645 O637 1.258 . S
C645 O638 1.266 . S
Co646 O649 1.970 . S
Co646 N663 1.989 . S
Co646 O671 1.967 . S
Co646 O678 1.920 . S
Co647 O650 1.966 . S
Co647 N656 2.022 . S
Co647 N664 1.993 . S
Co647 O672 1.941 . S
C648 O649 1.258 . S
C648 O650 1.263 . S
O649 Co646 1.970 . S
O649 C648 1.258 . S
O650 Co647 1.966 . S
O650 C648 1.263 . S
C651 O652 1.235 . S
C651 O678 1.289 . S
O652 C651 1.235 . S
C653 C655 1.400 . S
C653 N656 1.351 . S
C653 C658 1.501 . S
C654 C655 1.387 . S
C654 N657 1.341 . S
C655 C653 1.400 . S
C655 C654 1.387 . S
N656 Co647 2.022 . S
N656 C653 1.351 . S
N656 N657 1.365 . S
N657 C654 1.341 . S
N657 N656 1.365 . S
N657 H677 0.862 . S
C658 C653 1.501 . S
C658 H659 0.961 . S
C658 H660 0.961 . S
C658 H661 0.960 . S
H659 C658 0.961 . S
H660 C658 0.961 . S
H661 C658 0.960 . S
C662 N663 1.342 . S
C662 C666 1.401 . S
C662 C667 1.499 . S
N663 Co646 1.989 . S
N663 C662 1.342 . S
N663 N664 1.388 . S
N664 Co647 1.993 . S
N664 N663 1.388 . S
N664 C665 1.346 . S
C665 N664 1.346 . S
C665 C666 1.396 . S
C665 C675 1.510 . S
C666 C662 1.401 . S
C666 C665 1.396 . S
C667 C662 1.499 . S
C667 H668 0.959 . S
C667 H669 0.960 . S
C667 H670 0.961 . S
H668 C667 0.959 . S
H669 C667 0.960 . S
H670 C667 0.961 . S
O671 Co646 1.967 . S
O671 C679 1.258 . S
O672 Co647 1.941 . S
O672 C679 1.266 . S
H673 C675 0.959 . S
H674 C675 0.961 . S
C675 C665 1.510 . S
C675 H673 0.959 . S
C675 H674 0.961 . S
C675 H676 0.960 . S
H676 C675 0.960 . S
H677 N657 0.862 . S
O678 Co646 1.920 . S
O678 C651 1.289 . S
C679 O671 1.258 . S
C679 O672 1.266 . S
Co680 O683 1.970 . S
Co680 N697 1.989 . S
Co680 O705 1.967 . S
Co680 O712 1.920 . S
Co681 O684 1.966 . S
Co681 N690 2.022 . S
Co681 N698 1.993 . S
Co681 O706 1.941 . S
C682 O683 1.258 . S
C682 O684 1.263 . S
O683 Co680 1.970 . S
O683 C682 1.258 . S
O684 Co681 1.966 . S
O684 C682 1.263 . S
C685 O686 1.235 . S
C685 O712 1.289 . S
O686 C685 1.235 . S
C687 C689 1.400 . S
C687 N690 1.351 . S
C687 C692 1.501 . S
C688 C689 1.387 . S
C688 N691 1.341 . S
C689 C687 1.400 . S
C689 C688 1.387 . S
N690 Co681 2.022 . S
N690 C687 1.351 . S
N690 N691 1.365 . S
N691 C688 1.341 . S
N691 N690 1.365 . S
N691 H711 0.862 . S
C692 C687 1.501 . S
C692 H693 0.961 . S
C692 H694 0.961 . S
C692 H695 0.960 . S
H693 C692 0.961 . S
H694 C692 0.961 . S
H695 C692 0.960 . S
C696 N697 1.342 . S
C696 C700 1.401 . S
C696 C701 1.499 . S
N697 Co680 1.989 . S
N697 C696 1.342 . S
N697 N698 1.388 . S
N698 Co681 1.993 . S
N698 N697 1.388 . S
N698 C699 1.346 . S
C699 N698 1.346 . S
C699 C700 1.396 . S
C699 C709 1.510 . S
C700 C696 1.401 . S
C700 C699 1.396 . S
C701 C696 1.499 . S
C701 H702 0.959 . S
C701 H703 0.960 . S
C701 H704 0.961 . S
H702 C701 0.959 . S
H703 C701 0.960 . S
H704 C701 0.961 . S
O705 Co680 1.967 . S
O705 C713 1.258 . S
O706 Co681 1.941 . S
O706 C713 1.266 . S
H707 C709 0.959 . S
H708 C709 0.961 . S
C709 C699 1.510 . S
C709 H707 0.959 . S
C709 H708 0.961 . S
C709 H710 0.960 . S
H710 C709 0.960 . S
H711 N691 0.862 . S
O712 Co680 1.920 . S
O712 C685 1.289 . S
C713 O705 1.258 . S
C713 O706 1.266 . S
Co714 O717 1.970 . S
Co714 N731 1.989 . S
Co714 O739 1.967 . S
Co714 O746 1.920 . S
Co715 O718 1.966 . S
Co715 N724 2.022 . S
Co715 N732 1.993 . S
Co715 O740 1.941 . S
C716 O717 1.258 . S
C716 O718 1.263 . S
O717 Co714 1.970 . S
O717 C716 1.258 . S
O718 Co715 1.966 . S
O718 C716 1.263 . S
C719 O720 1.235 . S
C719 O746 1.289 . S
O720 C719 1.235 . S
C721 C723 1.400 . S
C721 N724 1.351 . S
C721 C726 1.501 . S
C722 C723 1.387 . S
C722 N725 1.341 . S
C723 C721 1.400 . S
C723 C722 1.387 . S
N724 Co715 2.022 . S
N724 C721 1.351 . S
N724 N725 1.365 . S
N725 C722 1.341 . S
N725 N724 1.365 . S
N725 H745 0.862 . S
C726 C721 1.501 . S
C726 H727 0.961 . S
C726 H728 0.961 . S
C726 H729 0.960 . S
H727 C726 0.961 . S
H728 C726 0.961 . S
H729 C726 0.960 . S
C730 N731 1.342 . S
C730 C734 1.401 . S
C730 C735 1.499 . S
N731 Co714 1.989 . S
N731 C730 1.342 . S
N731 N732 1.388 . S
N732 Co715 1.993 . S
N732 N731 1.388 . S
N732 C733 1.346 . S
C733 N732 1.346 . S
C733 C734 1.396 . S
C733 C743 1.510 . S
C734 C730 1.401 . S
C734 C733 1.396 . S
C735 C730 1.499 . S
C735 H736 0.959 . S
C735 H737 0.960 . S
C735 H738 0.961 . S
H736 C735 0.959 . S
H737 C735 0.960 . S
H738 C735 0.961 . S
O739 Co714 1.967 . S
O739 C747 1.258 . S
O740 Co715 1.941 . S
O740 C747 1.266 . S
H741 C743 0.959 . S
H742 C743 0.961 . S
C743 C733 1.510 . S
C743 H741 0.959 . S
C743 H742 0.961 . S
C743 H744 0.960 . S
H744 C743 0.960 . S
H745 N725 0.862 . S
O746 Co714 1.920 . S
O746 C719 1.289 . S
C747 O739 1.258 . S
C747 O740 1.266 . S
Co748 O751 1.970 . S
Co748 N765 1.989 . S
Co748 O773 1.967 . S
Co748 O780 1.920 . S
Co749 O752 1.966 . S
Co749 N758 2.022 . S
Co749 N766 1.993 . S
Co749 O774 1.941 . S
C750 O751 1.258 . S
C750 O752 1.263 . S
O751 Co748 1.970 . S
O751 C750 1.258 . S
O752 Co749 1.966 . S
O752 C750 1.263 . S
C753 O754 1.235 . S
C753 O780 1.289 . S
O754 C753 1.235 . S
C755 C757 1.400 . S
C755 N758 1.351 . S
C755 C760 1.501 . S
C756 C757 1.387 . S
C756 N759 1.341 . S
C757 C755 1.400 . S
C757 C756 1.387 . S
N758 Co749 2.022 . S
N758 C755 1.351 . S
N758 N759 1.365 . S
N759 C756 1.341 . S
N759 N758 1.365 . S
N759 H779 0.862 . S
C760 C755 1.501 . S
C760 H761 0.961 . S
C760 H762 0.961 . S
C760 H763 0.960 . S
H761 C760 0.961 . S
H762 C760 0.961 . S
H763 C760 0.960 . S
C764 N765 1.342 . S
C764 C768 1.401 . S
C764 C769 1.499 . S
N765 Co748 1.989 . S
N765 C764 1.342 . S
N765 N766 1.388 . S
N766 Co749 1.993 . S
N766 N765 1.388 . S
N766 C767 1.346 . S
C767 N766 1.346 . S
C767 C768 1.396 . S
C767 C777 1.510 . S
C768 C764 1.401 . S
C768 C767 1.396 . S
C769 C764 1.499 . S
C769 H770 0.959 . S
C769 H771 0.960 . S
C769 H772 0.961 . S
H770 C769 0.959 . S
H771 C769 0.960 . S
H772 C769 0.961 . S
O773 Co748 1.967 . S
O773 C781 1.258 . S
O774 Co749 1.941 . S
O774 C781 1.266 . S
H775 C777 0.959 . S
H776 C777 0.961 . S
C777 C767 1.510 . S
C777 H775 0.959 . S
C777 H776 0.961 . S
C777 H778 0.960 . S
H778 C777 0.960 . S
H779 N759 0.862 . S
O780 Co748 1.920 . S
O780 C753 1.289 . S
C781 O773 1.258 . S
C781 O774 1.266 . S
Co782 O785 1.970 . S
Co782 N799 1.989 . S
Co782 O807 1.967 . S
Co782 O814 1.920 . S
Co783 O786 1.966 . S
Co783 N792 2.022 . S
Co783 N800 1.993 . S
Co783 O808 1.941 . S
C784 O785 1.258 . S
C784 O786 1.263 . S
O785 Co782 1.970 . S
O785 C784 1.258 . S
O786 Co783 1.966 . S
O786 C784 1.263 . S
C787 O788 1.235 . S
C787 O814 1.289 . S
O788 C787 1.235 . S
C789 C791 1.400 . S
C789 N792 1.351 . S
C789 C794 1.501 . S
C790 C791 1.387 . S
C790 N793 1.341 . S
C791 C789 1.400 . S
C791 C790 1.387 . S
N792 Co783 2.022 . S
N792 C789 1.351 . S
N792 N793 1.365 . S
N793 C790 1.341 . S
N793 N792 1.365 . S
N793 H813 0.862 . S
C794 C789 1.501 . S
C794 H795 0.961 . S
C794 H796 0.961 . S
C794 H797 0.960 . S
H795 C794 0.961 . S
H796 C794 0.961 . S
H797 C794 0.960 . S
C798 N799 1.342 . S
C798 C802 1.401 . S
C798 C803 1.499 . S
N799 Co782 1.989 . S
N799 C798 1.342 . S
N799 N800 1.388 . S
N800 Co783 1.993 . S
N800 N799 1.388 . S
N800 C801 1.346 . S
C801 N800 1.346 . S
C801 C802 1.396 . S
C801 C811 1.510 . S
C802 C798 1.401 . S
C802 C801 1.396 . S
C803 C798 1.499 . S
C803 H804 0.959 . S
C803 H805 0.960 . S
C803 H806 0.961 . S
H804 C803 0.959 . S
H805 C803 0.960 . S
H806 C803 0.961 . S
O807 Co782 1.967 . S
O807 C815 1.258 . S
O808 Co783 1.941 . S
O808 C815 1.266 . S
H809 C811 0.959 . S
H810 C811 0.961 . S
C811 C801 1.510 . S
C811 H809 0.959 . S
C811 H810 0.961 . S
C811 H812 0.960 . S
H812 C811 0.960 . S
H813 N793 0.862 . S
O814 Co782 1.920 . S
O814 C787 1.289 . S
C815 O807 1.258 . S
C815 O808 1.266 . S
Co816 O819 1.970 . S
Co816 N833 1.989 . S
Co816 O841 1.967 . S
Co816 O848 1.920 . S
Co817 O820 1.966 . S
Co817 N826 2.022 . S
Co817 N834 1.993 . S
Co817 O842 1.941 . S
C818 O819 1.258 . S
C818 O820 1.263 . S
O819 Co816 1.970 . S
O819 C818 1.258 . S
O820 Co817 1.966 . S
O820 C818 1.263 . S
C821 O822 1.235 . S
C821 O848 1.289 . S
O822 C821 1.235 . S
C823 C825 1.400 . S
C823 N826 1.351 . S
C823 C828 1.501 . S
C824 C825 1.387 . S
C824 N827 1.341 . S
C825 C823 1.400 . S
C825 C824 1.387 . S
N826 Co817 2.022 . S
N826 C823 1.351 . S
N826 N827 1.365 . S
N827 C824 1.341 . S
N827 N826 1.365 . S
N827 H847 0.862 . S
C828 C823 1.501 . S
C828 H829 0.961 . S
C828 H830 0.961 . S
C828 H831 0.960 . S
H829 C828 0.961 . S
H830 C828 0.961 . S
H831 C828 0.960 . S
C832 N833 1.342 . S
C832 C836 1.401 . S
C832 C837 1.499 . S
N833 Co816 1.989 . S
N833 C832 1.342 . S
N833 N834 1.388 . S
N834 Co817 1.993 . S
N834 N833 1.388 . S
N834 C835 1.346 . S
C835 N834 1.346 . S
C835 C836 1.396 . S
C835 C845 1.510 . S
C836 C832 1.401 . S
C836 C835 1.396 . S
C837 C832 1.499 . S
C837 H838 0.959 . S
C837 H839 0.960 . S
C837 H840 0.961 . S
H838 C837 0.959 . S
H839 C837 0.960 . S
H840 C837 0.961 . S
O841 Co816 1.967 . S
O841 C849 1.258 . S
O842 Co817 1.941 . S
O842 C849 1.266 . S
H843 C845 0.959 . S
H844 C845 0.961 . S
C845 C835 1.510 . S
C845 H843 0.959 . S
C845 H844 0.961 . S
C845 H846 0.960 . S
H846 C845 0.960 . S
H847 N827 0.862 . S
O848 Co816 1.920 . S
O848 C821 1.289 . S
C849 O841 1.258 . S
C849 O842 1.266 . S
Co850 O853 1.970 . S
Co850 N867 1.989 . S
Co850 O875 1.967 . S
Co850 O882 1.920 . S
Co851 O854 1.966 . S
Co851 N860 2.022 1_545 S
Co851 N868 1.993 . S
Co851 O876 1.941 . S
C852 O853 1.258 . S
C852 O854 1.263 . S
O853 Co850 1.970 . S
O853 C852 1.258 . S
O854 Co851 1.966 . S
O854 C852 1.263 . S
C855 O856 1.235 . S
C855 O882 1.289 . S
O856 C855 1.235 . S
C857 C859 1.400 . S
C857 N860 1.351 . S
C857 C862 1.501 1_565 S
C858 C859 1.387 . S
C858 N861 1.341 . S
C859 C857 1.400 . S
C859 C858 1.387 . S
N860 Co851 2.022 1_565 S
N860 C857 1.351 . S
N860 N861 1.365 . S
N861 C858 1.341 . S
N861 N860 1.365 . S
N861 H881 0.862 . S
C862 C857 1.501 1_545 S
C862 H863 0.961 . S
C862 H864 0.961 . S
C862 H865 0.960 . S
H863 C862 0.961 . S
H864 C862 0.961 . S
H865 C862 0.960 . S
C866 N867 1.342 . S
C866 C870 1.401 1_545 S
C866 C871 1.499 . S
N867 Co850 1.989 . S
N867 C866 1.342 . S
N867 N868 1.388 . S
N868 Co851 1.993 . S
N868 N867 1.388 . S
N868 C869 1.346 1_545 S
C869 N868 1.346 1_565 S
C869 C870 1.396 . S
C869 C879 1.510 . S
C870 C866 1.401 1_565 S
C870 C869 1.396 . S
C871 C866 1.499 . S
C871 H872 0.959 . S
C871 H873 0.960 . S
C871 H874 0.961 . S
H872 C871 0.959 . S
H873 C871 0.960 . S
H874 C871 0.961 . S
O875 Co850 1.967 . S
O875 C883 1.258 . S
O876 Co851 1.941 . S
O876 C883 1.266 . S
H877 C879 0.959 . S
H878 C879 0.961 . S
C879 C869 1.510 . S
C879 H877 0.959 . S
C879 H878 0.961 . S
C879 H880 0.960 . S
H880 C879 0.960 . S
H881 N861 0.862 . S
O882 Co850 1.920 . S
O882 C855 1.289 . S
C883 O875 1.258 . S
C883 O876 1.266 . S
Co884 O887 1.970 . S
Co884 N901 1.989 . S
Co884 O909 1.967 . S
Co884 O916 1.920 . S
Co885 O888 1.966 . S
Co885 N894 2.022 . S
Co885 N902 1.993 . S
Co885 O910 1.941 . S
C886 O887 1.258 . S
C886 O888 1.263 . S
O887 Co884 1.970 . S
O887 C886 1.258 . S
O888 Co885 1.966 . S
O888 C886 1.263 . S
C889 O890 1.235 . S
C889 O916 1.289 . S
O890 C889 1.235 . S
C891 C893 1.400 . S
C891 N894 1.351 . S
C891 C896 1.501 . S
C892 C893 1.387 . S
C892 N895 1.341 . S
C893 C891 1.400 . S
C893 C892 1.387 . S
N894 Co885 2.022 . S
N894 C891 1.351 . S
N894 N895 1.365 . S
N895 C892 1.341 . S
N895 N894 1.365 . S
N895 H915 0.862 . S
C896 C891 1.501 . S
C896 H897 0.961 . S
C896 H898 0.961 . S
C896 H899 0.960 . S
H897 C896 0.961 . S
H898 C896 0.961 . S
H899 C896 0.960 . S
C900 N901 1.342 . S
C900 C904 1.401 . S
C900 C905 1.499 . S
N901 Co884 1.989 . S
N901 C900 1.342 . S
N901 N902 1.388 . S
N902 Co885 1.993 . S
N902 N901 1.388 . S
N902 C903 1.346 . S
C903 N902 1.346 . S
C903 C904 1.396 . S
C903 C913 1.510 . S
C904 C900 1.401 . S
C904 C903 1.396 . S
C905 C900 1.499 . S
C905 H906 0.959 . S
C905 H907 0.960 . S
C905 H908 0.961 . S
H906 C905 0.959 . S
H907 C905 0.960 . S
H908 C905 0.961 . S
O909 Co884 1.967 . S
O909 C917 1.258 . S
O910 Co885 1.941 . S
O910 C917 1.266 . S
H911 C913 0.959 . S
H912 C913 0.961 . S
C913 C903 1.510 . S
C913 H911 0.959 . S
C913 H912 0.961 . S
C913 H914 0.960 . S
H914 C913 0.960 . S
H915 N895 0.862 . S
O916 Co884 1.920 . S
O916 C889 1.289 . S
C917 O909 1.258 . S
C917 O910 1.266 . S
Co918 O921 1.970 . S
Co918 N935 1.989 1_565 S
Co918 O943 1.967 1_565 S
Co918 O950 1.920 . S
Co919 O922 1.966 . S
Co919 N928 2.022 . S
Co919 N936 1.993 . S
Co919 O944 1.941 . S
C920 O921 1.258 . S
C920 O922 1.263 1_565 S
O921 Co918 1.970 . S
O921 C920 1.258 . S
O922 Co919 1.966 . S
O922 C920 1.263 1_545 S
C923 O924 1.235 . S
C923 O950 1.289 . S
O924 C923 1.235 . S
C925 C927 1.400 . S
C925 N928 1.351 . S
C925 C930 1.501 . S
C926 C927 1.387 . S
C926 N929 1.341 . S
C927 C925 1.400 . S
C927 C926 1.387 . S
N928 Co919 2.022 . S
N928 C925 1.351 . S
N928 N929 1.365 . S
N929 C926 1.341 . S
N929 N928 1.365 . S
N929 H949 0.862 . S
C930 C925 1.501 . S
C930 H931 0.961 . S
C930 H932 0.961 . S
C930 H933 0.960 . S
H931 C930 0.961 . S
H932 C930 0.961 . S
H933 C930 0.960 . S
C934 N935 1.342 . S
C934 C938 1.401 . S
C934 C939 1.499 . S
N935 Co918 1.989 1_545 S
N935 C934 1.342 . S
N935 N936 1.388 . S
N936 Co919 1.993 . S
N936 N935 1.388 . S
N936 C937 1.346 . S
C937 N936 1.346 . S
C937 C938 1.396 . S
C937 C947 1.510 . S
C938 C934 1.401 . S
C938 C937 1.396 . S
C939 C934 1.499 . S
C939 H940 0.959 . S
C939 H941 0.960 . S
C939 H942 0.961 . S
H940 C939 0.959 . S
H941 C939 0.960 . S
H942 C939 0.961 . S
O943 Co918 1.967 1_545 S
O943 C951 1.258 . S
O944 Co919 1.941 . S
O944 C951 1.266 . S
H945 C947 0.959 . S
H946 C947 0.961 . S
C947 C937 1.510 . S
C947 H945 0.959 . S
C947 H946 0.961 . S
C947 H948 0.960 . S
H948 C947 0.960 . S
H949 N929 0.862 . S
O950 Co918 1.920 . S
O950 C923 1.289 . S
C951 O943 1.258 . S
C951 O944 1.266 . S
Co952 O955 1.970 . S
Co952 N969 1.989 . S
Co952 O977 1.967 . S
Co952 O984 1.920 . S
Co953 O956 1.966 . S
Co953 N962 2.022 . S
Co953 N970 1.993 . S
Co953 O978 1.941 . S
C954 O955 1.258 . S
C954 O956 1.263 . S
O955 Co952 1.970 . S
O955 C954 1.258 . S
O956 Co953 1.966 . S
O956 C954 1.263 . S
C957 O958 1.235 . S
C957 O984 1.289 . S
O958 C957 1.235 . S
C959 C961 1.400 . S
C959 N962 1.351 . S
C959 C964 1.501 . S
C960 C961 1.387 . S
C960 N963 1.341 . S
C961 C959 1.400 . S
C961 C960 1.387 . S
N962 Co953 2.022 . S
N962 C959 1.351 . S
N962 N963 1.365 . S
N963 C960 1.341 . S
N963 N962 1.365 . S
N963 H983 0.862 . S
C964 C959 1.501 . S
C964 H965 0.961 . S
C964 H966 0.961 . S
C964 H967 0.960 . S
H965 C964 0.961 . S
H966 C964 0.961 . S
H967 C964 0.960 . S
C968 N969 1.342 . S
C968 C972 1.401 . S
C968 C973 1.499 . S
N969 Co952 1.989 . S
N969 C968 1.342 . S
N969 N970 1.388 . S
N970 Co953 1.993 . S
N970 N969 1.388 . S
N970 C971 1.346 . S
C971 N970 1.346 . S
C971 C972 1.396 . S
C971 C981 1.510 . S
C972 C968 1.401 . S
C972 C971 1.396 . S
C973 C968 1.499 . S
C973 H974 0.959 . S
C973 H975 0.960 . S
C973 H976 0.961 . S
H974 C973 0.959 . S
H975 C973 0.960 . S
H976 C973 0.961 . S
O977 Co952 1.967 . S
O977 C985 1.258 . S
O978 Co953 1.941 . S
O978 C985 1.266 . S
H979 C981 0.959 . S
H980 C981 0.961 . S
C981 C971 1.510 . S
C981 H979 0.959 . S
C981 H980 0.961 . S
C981 H982 0.960 . S
H982 C981 0.960 . S
H983 N963 0.862 . S
O984 Co952 1.920 . S
O984 C957 1.289 . S
C985 O977 1.258 . S
C985 O978 1.266 . S
Co986 O989 1.970 . S
Co986 N1003 1.989 . S
Co986 O1011 1.967 . S
Co986 O1018 1.920 . S
Co987 O990 1.966 . S
Co987 N996 2.022 1_545 S
Co987 N1004 1.993 . S
Co987 O1012 1.941 . S
C988 O989 1.258 . S
C988 O990 1.263 . S
O989 Co986 1.970 . S
O989 C988 1.258 . S
O990 Co987 1.966 . S
O990 C988 1.263 . S
C991 O992 1.235 . S
C991 O1018 1.289 . S
O992 C991 1.235 . S
C993 C995 1.400 . S
C993 N996 1.351 . S
C993 C998 1.501 . S
C994 C995 1.387 . S
C994 N997 1.341 . S
C995 C993 1.400 . S
C995 C994 1.387 . S
N996 Co987 2.022 1_565 S
N996 C993 1.351 . S
N996 N997 1.365 . S
N997 C994 1.341 . S
N997 N996 1.365 . S
N997 H1017 0.862 . S
C998 C993 1.501 . S
C998 H999 0.961 1_565 S
C998 H1000 0.961 . S
C998 H1001 0.960 . S
H999 C998 0.961 1_545 S
H1000 C998 0.961 . S
H1001 C998 0.960 . S
C1002 N1003 1.342 . S
C1002 C1006 1.401 1_545 S
C1002 C1007 1.499 . S
N1003 Co986 1.989 . S
N1003 C1002 1.342 . S
N1003 N1004 1.388 . S
N1004 Co987 1.993 . S
N1004 N1003 1.388 . S
N1004 C1005 1.346 1_545 S
C1005 N1004 1.346 1_565 S
C1005 C1006 1.396 . S
C1005 C1015 1.510 . S
C1006 C1002 1.401 1_565 S
C1006 C1005 1.396 . S
C1007 C1002 1.499 . S
C1007 H1008 0.959 . S
C1007 H1009 0.960 . S
C1007 H1010 0.961 . S
H1008 C1007 0.959 . S
H1009 C1007 0.960 . S
H1010 C1007 0.961 . S
O1011 Co986 1.967 . S
O1011 C1019 1.258 . S
O1012 Co987 1.941 . S
O1012 C1019 1.266 . S
H1013 C1015 0.959 . S
H1014 C1015 0.961 . S
C1015 C1005 1.510 . S
C1015 H1013 0.959 . S
C1015 H1014 0.961 . S
C1015 H1016 0.960 . S
H1016 C1015 0.960 . S
H1017 N997 0.862 . S
O1018 Co986 1.920 . S
O1018 C991 1.289 . S
C1019 O1011 1.258 . S
C1019 O1012 1.266 . S
Co1020 O1023 1.970 . S
Co1020 N1037 1.989 . S
Co1020 O1045 1.967 . S
Co1020 O1052 1.920 . S
Co1021 O1024 1.966 . S
Co1021 N1030 2.022 . S
Co1021 N1038 1.993 . S
Co1021 O1046 1.941 . S
C1022 O1023 1.258 . S
C1022 O1024 1.263 . S
O1023 Co1020 1.970 . S
O1023 C1022 1.258 . S
O1024 Co1021 1.966 . S
O1024 C1022 1.263 . S
C1025 O1026 1.235 . S
C1025 O1052 1.289 . S
O1026 C1025 1.235 . S
C1027 C1029 1.400 . S
C1027 N1030 1.351 . S
C1027 C1032 1.501 . S
C1028 C1029 1.387 . S
C1028 N1031 1.341 . S
C1029 C1027 1.400 . S
C1029 C1028 1.387 . S
N1030 Co1021 2.022 . S
N1030 C1027 1.351 . S
N1030 N1031 1.365 . S
N1031 C1028 1.341 . S
N1031 N1030 1.365 . S
N1031 H1051 0.862 . S
C1032 C1027 1.501 . S
C1032 H1033 0.961 . S
C1032 H1034 0.961 . S
C1032 H1035 0.960 . S
H1033 C1032 0.961 . S
H1034 C1032 0.961 . S
H1035 C1032 0.960 . S
C1036 N1037 1.342 . S
C1036 C1040 1.401 . S
C1036 C1041 1.499 . S
N1037 Co1020 1.989 . S
N1037 C1036 1.342 . S
N1037 N1038 1.388 . S
N1038 Co1021 1.993 . S
N1038 N1037 1.388 . S
N1038 C1039 1.346 . S
C1039 N1038 1.346 . S
C1039 C1040 1.396 . S
C1039 C1049 1.510 . S
C1040 C1036 1.401 . S
C1040 C1039 1.396 . S
C1041 C1036 1.499 . S
C1041 H1042 0.959 . S
C1041 H1043 0.960 . S
C1041 H1044 0.961 . S
H1042 C1041 0.959 . S
H1043 C1041 0.960 . S
H1044 C1041 0.961 . S
O1045 Co1020 1.967 . S
O1045 C1053 1.258 . S
O1046 Co1021 1.941 . S
O1046 C1053 1.266 . S
H1047 C1049 0.959 . S
H1048 C1049 0.961 . S
C1049 C1039 1.510 . S
C1049 H1047 0.959 . S
C1049 H1048 0.961 . S
C1049 H1050 0.960 . S
H1050 C1049 0.960 . S
H1051 N1031 0.862 . S
O1052 Co1020 1.920 . S
O1052 C1025 1.289 . S
C1053 O1045 1.258 . S
C1053 O1046 1.266 . S
Co1054 O1057 1.970 . S
Co1054 N1071 1.989 . S
Co1054 O1079 1.967 . S
Co1054 O1086 1.920 . S
Co1055 O1058 1.966 1_565 S
Co1055 N1064 2.022 . S
Co1055 N1072 1.993 . S
Co1055 O1080 1.941 1_565 S
C1056 O1057 1.258 . S
C1056 O1058 1.263 . S
O1057 Co1054 1.970 . S
O1057 C1056 1.258 . S
O1058 Co1055 1.966 1_545 S
O1058 C1056 1.263 . S
C1059 O1060 1.235 . S
C1059 O1086 1.289 . S
O1060 C1059 1.235 . S
C1061 C1063 1.400 . S
C1061 N1064 1.351 . S
C1061 C1066 1.501 . S
C1062 C1063 1.387 . S
C1062 N1065 1.341 . S
C1063 C1061 1.400 . S
C1063 C1062 1.387 . S
N1064 Co1055 2.022 . S
N1064 C1061 1.351 . S
N1064 N1065 1.365 . S
N1065 C1062 1.341 . S
N1065 N1064 1.365 . S
N1065 H1085 0.862 . S
C1066 C1061 1.501 . S
C1066 H1067 0.961 1_565 S
C1066 H1068 0.961 . S
C1066 H1069 0.960 . S
H1067 C1066 0.961 1_545 S
H1068 C1066 0.961 . S
H1069 C1066 0.960 . S
C1070 N1071 1.342 1_565 S
C1070 C1074 1.401 . S
C1070 C1075 1.499 1_565 S
N1071 Co1054 1.989 . S
N1071 C1070 1.342 1_545 S
N1071 N1072 1.388 1_545 S
N1072 Co1055 1.993 . S
N1072 N1071 1.388 1_565 S
N1072 C1073 1.346 . S
C1073 N1072 1.346 . S
C1073 C1074 1.396 . S
C1073 C1083 1.510 . S
C1074 C1070 1.401 . S
C1074 C1073 1.396 . S
C1075 C1070 1.499 1_545 S
C1075 H1076 0.959 . S
C1075 H1077 0.960 . S
C1075 H1078 0.961 . S
H1076 C1075 0.959 . S
H1077 C1075 0.960 . S
H1078 C1075 0.961 . S
O1079 Co1054 1.967 . S
O1079 C1087 1.258 . S
O1080 Co1055 1.941 1_545 S
O1080 C1087 1.266 . S
H1081 C1083 0.959 . S
H1082 C1083 0.961 . S
C1083 C1073 1.510 . S
C1083 H1081 0.959 . S
C1083 H1082 0.961 . S
C1083 H1084 0.960 . S
H1084 C1083 0.960 . S
H1085 N1065 0.862 . S
O1086 Co1054 1.920 . S
O1086 C1059 1.289 . S
C1087 O1079 1.258 . S
C1087 O1080 1.266 . S
Co1088 O1091 1.970 . S
Co1088 N1105 1.989 . S
Co1088 O1113 1.967 . S
Co1088 O1120 1.920 . S
Co1089 O1092 1.966 . S
Co1089 N1098 2.022 . S
Co1089 N1106 1.993 . S
Co1089 O1114 1.941 . S
C1090 O1091 1.258 . S
C1090 O1092 1.263 . S
O1091 Co1088 1.970 . S
O1091 C1090 1.258 . S
O1092 Co1089 1.966 . S
O1092 C1090 1.263 . S
C1093 O1094 1.235 . S
C1093 O1120 1.289 . S
O1094 C1093 1.235 . S
C1095 C1097 1.400 . S
C1095 N1098 1.351 . S
C1095 C1100 1.501 . S
C1096 C1097 1.387 . S
C1096 N1099 1.341 . S
C1097 C1095 1.400 . S
C1097 C1096 1.387 . S
N1098 Co1089 2.022 . S
N1098 C1095 1.351 . S
N1098 N1099 1.365 . S
N1099 C1096 1.341 . S
N1099 N1098 1.365 . S
N1099 H1119 0.862 . S
C1100 C1095 1.501 . S
C1100 H1101 0.961 . S
C1100 H1102 0.961 . S
C1100 H1103 0.960 . S
H1101 C1100 0.961 . S
H1102 C1100 0.961 . S
H1103 C1100 0.960 . S
C1104 N1105 1.342 . S
C1104 C1108 1.401 . S
C1104 C1109 1.499 . S
N1105 Co1088 1.989 . S
N1105 C1104 1.342 . S
N1105 N1106 1.388 . S
N1106 Co1089 1.993 . S
N1106 N1105 1.388 . S
N1106 C1107 1.346 . S
C1107 N1106 1.346 . S
C1107 C1108 1.396 . S
C1107 C1117 1.510 . S
C1108 C1104 1.401 . S
C1108 C1107 1.396 . S
C1109 C1104 1.499 . S
C1109 H1110 0.959 . S
C1109 H1111 0.960 . S
C1109 H1112 0.961 . S
H1110 C1109 0.959 . S
H1111 C1109 0.960 . S
H1112 C1109 0.961 . S
O1113 Co1088 1.967 . S
O1113 C1121 1.258 . S
O1114 Co1089 1.941 . S
O1114 C1121 1.266 . S
H1115 C1117 0.959 . S
H1116 C1117 0.961 . S
C1117 C1107 1.510 . S
C1117 H1115 0.959 . S
C1117 H1116 0.961 . S
C1117 H1118 0.960 . S
H1118 C1117 0.960 . S
H1119 N1099 0.862 . S
O1120 Co1088 1.920 . S
O1120 C1093 1.289 . S
C1121 O1113 1.258 . S
C1121 O1114 1.266 . S
Co1122 O1125 1.970 . S
Co1122 N1139 1.989 . S
Co1122 O1147 1.967 . S
Co1122 O1154 1.920 . S
Co1123 O1126 1.966 . S
Co1123 N1132 2.022 . S
Co1123 N1140 1.993 . S
Co1123 O1148 1.941 . S
C1124 O1125 1.258 . S
C1124 O1126 1.263 . S
O1125 Co1122 1.970 . S
O1125 C1124 1.258 . S
O1126 Co1123 1.966 . S
O1126 C1124 1.263 . S
C1127 O1128 1.235 . S
C1127 O1154 1.289 . S
O1128 C1127 1.235 . S
C1129 C1131 1.400 . S
C1129 N1132 1.351 . S
C1129 C1134 1.501 . S
C1130 C1131 1.387 . S
C1130 N1133 1.341 . S
C1131 C1129 1.400 . S
C1131 C1130 1.387 . S
N1132 Co1123 2.022 . S
N1132 C1129 1.351 . S
N1132 N1133 1.365 . S
N1133 C1130 1.341 . S
N1133 N1132 1.365 . S
N1133 H1153 0.862 . S
C1134 C1129 1.501 . S
C1134 H1135 0.961 . S
C1134 H1136 0.961 . S
C1134 H1137 0.960 . S
H1135 C1134 0.961 . S
H1136 C1134 0.961 . S
H1137 C1134 0.960 . S
C1138 N1139 1.342 . S
C1138 C1142 1.401 . S
C1138 C1143 1.499 . S
N1139 Co1122 1.989 . S
N1139 C1138 1.342 . S
N1139 N1140 1.388 . S
N1140 Co1123 1.993 . S
N1140 N1139 1.388 . S
N1140 C1141 1.346 . S
C1141 N1140 1.346 . S
C1141 C1142 1.396 . S
C1141 C1151 1.510 . S
C1142 C1138 1.401 . S
C1142 C1141 1.396 . S
C1143 C1138 1.499 . S
C1143 H1144 0.959 . S
C1143 H1145 0.960 . S
C1143 H1146 0.961 . S
H1144 C1143 0.959 . S
H1145 C1143 0.960 . S
H1146 C1143 0.961 . S
O1147 Co1122 1.967 . S
O1147 C1155 1.258 . S
O1148 Co1123 1.941 . S
O1148 C1155 1.266 . S
H1149 C1151 0.959 . S
H1150 C1151 0.961 . S
C1151 C1141 1.510 . S
C1151 H1149 0.959 . S
C1151 H1150 0.961 . S
C1151 H1152 0.960 . S
H1152 C1151 0.960 . S
H1153 N1133 0.862 . S
O1154 Co1122 1.920 . S
O1154 C1127 1.289 . S
C1155 O1147 1.258 . S
C1155 O1148 1.266 . S
Co1156 O1159 1.970 . S
Co1156 N1173 1.989 . S
Co1156 O1181 1.967 . S
Co1156 O1188 1.920 . S
Co1157 O1160 1.966 . S
Co1157 N1166 2.022 . S
Co1157 N1174 1.993 . S
Co1157 O1182 1.941 . S
C1158 O1159 1.258 . S
C1158 O1160 1.263 . S
O1159 Co1156 1.970 . S
O1159 C1158 1.258 . S
O1160 Co1157 1.966 . S
O1160 C1158 1.263 . S
C1161 O1162 1.235 . S
C1161 O1188 1.289 . S
O1162 C1161 1.235 . S
C1163 C1165 1.400 . S
C1163 N1166 1.351 . S
C1163 C1168 1.501 . S
C1164 C1165 1.387 . S
C1164 N1167 1.341 . S
C1165 C1163 1.400 . S
C1165 C1164 1.387 . S
N1166 Co1157 2.022 . S
N1166 C1163 1.351 . S
N1166 N1167 1.365 . S
N1167 C1164 1.341 . S
N1167 N1166 1.365 . S
N1167 H1187 0.862 . S
C1168 C1163 1.501 . S
C1168 H1169 0.961 . S
C1168 H1170 0.961 . S
C1168 H1171 0.960 . S
H1169 C1168 0.961 . S
H1170 C1168 0.961 . S
H1171 C1168 0.960 . S
C1172 N1173 1.342 . S
C1172 C1176 1.401 . S
C1172 C1177 1.499 . S
N1173 Co1156 1.989 . S
N1173 C1172 1.342 . S
N1173 N1174 1.388 . S
N1174 Co1157 1.993 . S
N1174 N1173 1.388 . S
N1174 C1175 1.346 . S
C1175 N1174 1.346 . S
C1175 C1176 1.396 . S
C1175 C1185 1.510 . S
C1176 C1172 1.401 . S
C1176 C1175 1.396 . S
C1177 C1172 1.499 . S
C1177 H1178 0.959 . S
C1177 H1179 0.960 . S
C1177 H1180 0.961 . S
H1178 C1177 0.959 . S
H1179 C1177 0.960 . S
H1180 C1177 0.961 . S
O1181 Co1156 1.967 . S
O1181 C1189 1.258 . S
O1182 Co1157 1.941 . S
O1182 C1189 1.266 . S
H1183 C1185 0.959 . S
H1184 C1185 0.961 . S
C1185 C1175 1.510 . S
C1185 H1183 0.959 . S
C1185 H1184 0.961 . S
C1185 H1186 0.960 . S
H1186 C1185 0.960 . S
H1187 N1167 0.862 . S
O1188 Co1156 1.920 . S
O1188 C1161 1.289 . S
C1189 O1181 1.258 . S
C1189 O1182 1.266 . S
Co1190 O1193 1.970 . S
Co1190 N1207 1.989 . S
Co1190 O1215 1.967 . S
Co1190 O1222 1.920 . S
Co1191 O1194 1.966 . S
Co1191 N1200 2.022 . S
Co1191 N1208 1.993 . S
Co1191 O1216 1.941 . S
C1192 O1193 1.258 . S
C1192 O1194 1.263 . S
O1193 Co1190 1.970 . S
O1193 C1192 1.258 . S
O1194 Co1191 1.966 . S
O1194 C1192 1.263 . S
C1195 O1196 1.235 . S
C1195 O1222 1.289 . S
O1196 C1195 1.235 . S
C1197 C1199 1.400 . S
C1197 N1200 1.351 . S
C1197 C1202 1.501 . S
C1198 C1199 1.387 . S
C1198 N1201 1.341 . S
C1199 C1197 1.400 . S
C1199 C1198 1.387 . S
N1200 Co1191 2.022 . S
N1200 C1197 1.351 . S
N1200 N1201 1.365 . S
N1201 C1198 1.341 . S
N1201 N1200 1.365 . S
N1201 H1221 0.862 . S
C1202 C1197 1.501 . S
C1202 H1203 0.961 . S
C1202 H1204 0.961 . S
C1202 H1205 0.960 . S
H1203 C1202 0.961 . S
H1204 C1202 0.961 . S
H1205 C1202 0.960 . S
C1206 N1207 1.342 . S
C1206 C1210 1.401 . S
C1206 C1211 1.499 . S
N1207 Co1190 1.989 . S
N1207 C1206 1.342 . S
N1207 N1208 1.388 . S
N1208 Co1191 1.993 . S
N1208 N1207 1.388 . S
N1208 C1209 1.346 . S
C1209 N1208 1.346 . S
C1209 C1210 1.396 . S
C1209 C1219 1.510 . S
C1210 C1206 1.401 . S
C1210 C1209 1.396 . S
C1211 C1206 1.499 . S
C1211 H1212 0.959 . S
C1211 H1213 0.960 . S
C1211 H1214 0.961 . S
H1212 C1211 0.959 . S
H1213 C1211 0.960 . S
H1214 C1211 0.961 . S
O1215 Co1190 1.967 . S
O1215 C1223 1.258 . S
O1216 Co1191 1.941 . S
O1216 C1223 1.266 . S
H1217 C1219 0.959 . S
H1218 C1219 0.961 . S
C1219 C1209 1.510 . S
C1219 H1217 0.959 . S
C1219 H1218 0.961 . S
C1219 H1220 0.960 . S
H1220 C1219 0.960 . S
H1221 N1201 0.862 . S
O1222 Co1190 1.920 . S
O1222 C1195 1.289 . S
C1223 O1215 1.258 . S
C1223 O1216 1.266 . S
Co1224 O1227 1.970 . S
Co1224 N1241 1.989 . S
Co1224 O1249 1.967 . S
Co1224 O1256 1.920 . S
Co1225 O1228 1.966 . S
Co1225 N1234 2.022 . S
Co1225 N1242 1.993 . S
Co1225 O1250 1.941 . S
C1226 O1227 1.258 . S
C1226 O1228 1.263 . S
O1227 Co1224 1.970 . S
O1227 C1226 1.258 . S
O1228 Co1225 1.966 . S
O1228 C1226 1.263 . S
C1229 O1230 1.235 . S
C1229 O1256 1.289 . S
O1230 C1229 1.235 . S
C1231 C1233 1.400 . S
C1231 N1234 1.351 . S
C1231 C1236 1.501 . S
C1232 C1233 1.387 . S
C1232 N1235 1.341 . S
C1233 C1231 1.400 . S
C1233 C1232 1.387 . S
N1234 Co1225 2.022 . S
N1234 C1231 1.351 . S
N1234 N1235 1.365 . S
N1235 C1232 1.341 . S
N1235 N1234 1.365 . S
N1235 H1255 0.862 . S
C1236 C1231 1.501 . S
C1236 H1237 0.961 . S
C1236 H1238 0.961 . S
C1236 H1239 0.960 . S
H1237 C1236 0.961 . S
H1238 C1236 0.961 . S
H1239 C1236 0.960 . S
C1240 N1241 1.342 . S
C1240 C1244 1.401 . S
C1240 C1245 1.499 . S
N1241 Co1224 1.989 . S
N1241 C1240 1.342 . S
N1241 N1242 1.388 . S
N1242 Co1225 1.993 . S
N1242 N1241 1.388 . S
N1242 C1243 1.346 . S
C1243 N1242 1.346 . S
C1243 C1244 1.396 . S
C1243 C1253 1.510 . S
C1244 C1240 1.401 . S
C1244 C1243 1.396 . S
C1245 C1240 1.499 . S
C1245 H1246 0.959 . S
C1245 H1247 0.960 . S
C1245 H1248 0.961 . S
H1246 C1245 0.959 . S
H1247 C1245 0.960 . S
H1248 C1245 0.961 . S
O1249 Co1224 1.967 . S
O1249 C1257 1.258 . S
O1250 Co1225 1.941 . S
O1250 C1257 1.266 . S
H1251 C1253 0.959 . S
H1252 C1253 0.961 . S
C1253 C1243 1.510 . S
C1253 H1251 0.959 . S
C1253 H1252 0.961 . S
C1253 H1254 0.960 . S
H1254 C1253 0.960 . S
H1255 N1235 0.862 . S
O1256 Co1224 1.920 . S
O1256 C1229 1.289 . S
C1257 O1249 1.258 . S
C1257 O1250 1.266 . S
Co1258 O1261 1.970 . S
Co1258 N1275 1.989 . S
Co1258 O1283 1.967 . S
Co1258 O1290 1.920 . S
Co1259 O1262 1.966 . S
Co1259 N1268 2.022 . S
Co1259 N1276 1.993 . S
Co1259 O1284 1.941 . S
C1260 O1261 1.258 . S
C1260 O1262 1.263 . S
O1261 Co1258 1.970 . S
O1261 C1260 1.258 . S
O1262 Co1259 1.966 . S
O1262 C1260 1.263 . S
C1263 O1264 1.235 . S
C1263 O1290 1.289 . S
O1264 C1263 1.235 . S
C1265 C1267 1.400 . S
C1265 N1268 1.351 . S
C1265 C1270 1.501 . S
C1266 C1267 1.387 . S
C1266 N1269 1.341 . S
C1267 C1265 1.400 . S
C1267 C1266 1.387 . S
N1268 Co1259 2.022 . S
N1268 C1265 1.351 . S
N1268 N1269 1.365 . S
N1269 C1266 1.341 . S
N1269 N1268 1.365 . S
N1269 H1289 0.862 . S
C1270 C1265 1.501 . S
C1270 H1271 0.961 . S
C1270 H1272 0.961 . S
C1270 H1273 0.960 . S
H1271 C1270 0.961 . S
H1272 C1270 0.961 . S
H1273 C1270 0.960 . S
C1274 N1275 1.342 . S
C1274 C1278 1.401 . S
C1274 C1279 1.499 . S
N1275 Co1258 1.989 . S
N1275 C1274 1.342 . S
N1275 N1276 1.388 . S
N1276 Co1259 1.993 . S
N1276 N1275 1.388 . S
N1276 C1277 1.346 . S
C1277 N1276 1.346 . S
C1277 C1278 1.396 . S
C1277 C1287 1.510 . S
C1278 C1274 1.401 . S
C1278 C1277 1.396 . S
C1279 C1274 1.499 . S
C1279 H1280 0.959 . S
C1279 H1281 0.960 . S
C1279 H1282 0.961 . S
H1280 C1279 0.959 . S
H1281 C1279 0.960 . S
H1282 C1279 0.961 . S
O1283 Co1258 1.967 . S
O1283 C1291 1.258 . S
O1284 Co1259 1.941 . S
O1284 C1291 1.266 . S
H1285 C1287 0.959 . S
H1286 C1287 0.961 . S
C1287 C1277 1.510 . S
C1287 H1285 0.959 . S
C1287 H1286 0.961 . S
C1287 H1288 0.960 . S
H1288 C1287 0.960 . S
H1289 N1269 0.862 . S
O1290 Co1258 1.920 . S
O1290 C1263 1.289 . S
C1291 O1283 1.258 . S
C1291 O1284 1.266 . S
Co1292 O1295 1.970 . S
Co1292 N1309 1.989 . S
Co1292 O1317 1.967 . S
Co1292 O1324 1.920 . S
Co1293 O1296 1.966 . S
Co1293 N1302 2.022 . S
Co1293 N1310 1.993 . S
Co1293 O1318 1.941 . S
C1294 O1295 1.258 . S
C1294 O1296 1.263 . S
O1295 Co1292 1.970 . S
O1295 C1294 1.258 . S
O1296 Co1293 1.966 . S
O1296 C1294 1.263 . S
C1297 O1298 1.235 . S
C1297 O1324 1.289 . S
O1298 C1297 1.235 . S
C1299 C1301 1.400 . S
C1299 N1302 1.351 . S
C1299 C1304 1.501 . S
C1300 C1301 1.387 . S
C1300 N1303 1.341 . S
C1301 C1299 1.400 . S
C1301 C1300 1.387 . S
N1302 Co1293 2.022 . S
N1302 C1299 1.351 . S
N1302 N1303 1.365 . S
N1303 C1300 1.341 . S
N1303 N1302 1.365 . S
N1303 H1323 0.862 . S
C1304 C1299 1.501 . S
C1304 H1305 0.961 . S
C1304 H1306 0.961 . S
C1304 H1307 0.960 . S
H1305 C1304 0.961 . S
H1306 C1304 0.961 . S
H1307 C1304 0.960 . S
C1308 N1309 1.342 . S
C1308 C1312 1.401 . S
C1308 C1313 1.499 . S
N1309 Co1292 1.989 . S
N1309 C1308 1.342 . S
N1309 N1310 1.388 . S
N1310 Co1293 1.993 . S
N1310 N1309 1.388 . S
N1310 C1311 1.346 . S
C1311 N1310 1.346 . S
C1311 C1312 1.396 . S
C1311 C1321 1.510 . S
C1312 C1308 1.401 . S
C1312 C1311 1.396 . S
C1313 C1308 1.499 . S
C1313 H1314 0.959 . S
C1313 H1315 0.960 . S
C1313 H1316 0.961 . S
H1314 C1313 0.959 . S
H1315 C1313 0.960 . S
H1316 C1313 0.961 . S
O1317 Co1292 1.967 . S
O1317 C1325 1.258 . S
O1318 Co1293 1.941 . S
O1318 C1325 1.266 . S
H1319 C1321 0.959 . S
H1320 C1321 0.961 . S
C1321 C1311 1.510 . S
C1321 H1319 0.959 . S
C1321 H1320 0.961 . S
C1321 H1322 0.960 . S
H1322 C1321 0.960 . S
H1323 N1303 0.862 . S
O1324 Co1292 1.920 . S
O1324 C1297 1.289 . S
C1325 O1317 1.258 . S
C1325 O1318 1.266 . S
Co1326 O1329 1.970 . S
Co1326 N1343 1.989 . S
Co1326 O1351 1.967 . S
Co1326 O1358 1.920 . S
Co1327 O1330 1.966 . S
Co1327 N1336 2.022 . S
Co1327 N1344 1.993 . S
Co1327 O1352 1.941 . S
C1328 O1329 1.258 . S
C1328 O1330 1.263 . S
O1329 Co1326 1.970 . S
O1329 C1328 1.258 . S
O1330 Co1327 1.966 . S
O1330 C1328 1.263 . S
C1331 O1332 1.235 . S
C1331 O1358 1.289 . S
O1332 C1331 1.235 . S
C1333 C1335 1.400 . S
C1333 N1336 1.351 . S
C1333 C1338 1.501 . S
C1334 C1335 1.387 . S
C1334 N1337 1.341 . S
C1335 C1333 1.400 . S
C1335 C1334 1.387 . S
N1336 Co1327 2.022 . S
N1336 C1333 1.351 . S
N1336 N1337 1.365 . S
N1337 C1334 1.341 . S
N1337 N1336 1.365 . S
N1337 H1357 0.862 . S
C1338 C1333 1.501 . S
C1338 H1339 0.961 . S
C1338 H1340 0.961 . S
C1338 H1341 0.960 . S
H1339 C1338 0.961 . S
H1340 C1338 0.961 . S
H1341 C1338 0.960 . S
C1342 N1343 1.342 . S
C1342 C1346 1.401 . S
C1342 C1347 1.499 . S
N1343 Co1326 1.989 . S
N1343 C1342 1.342 . S
N1343 N1344 1.388 . S
N1344 Co1327 1.993 . S
N1344 N1343 1.388 . S
N1344 C1345 1.346 . S
C1345 N1344 1.346 . S
C1345 C1346 1.396 . S
C1345 C1355 1.510 . S
C1346 C1342 1.401 . S
C1346 C1345 1.396 . S
C1347 C1342 1.499 . S
C1347 H1348 0.959 . S
C1347 H1349 0.960 . S
C1347 H1350 0.961 . S
H1348 C1347 0.959 . S
H1349 C1347 0.960 . S
H1350 C1347 0.961 . S
O1351 Co1326 1.967 . S
O1351 C1359 1.258 . S
O1352 Co1327 1.941 . S
O1352 C1359 1.266 . S
H1353 C1355 0.959 . S
H1354 C1355 0.961 . S
C1355 C1345 1.510 . S
C1355 H1353 0.959 . S
C1355 H1354 0.961 . S
C1355 H1356 0.960 . S
H1356 C1355 0.960 . S
H1357 N1337 0.862 . S
O1358 Co1326 1.920 . S
O1358 C1331 1.289 . S
C1359 O1351 1.258 . S
C1359 O1352 1.266 . S
Co1360 O1363 1.970 . S
Co1360 N1377 1.989 . S
Co1360 O1385 1.967 . S
Co1360 O1392 1.920 . S
Co1361 O1364 1.966 . S
Co1361 N1370 2.022 . S
Co1361 N1378 1.993 . S
Co1361 O1386 1.941 . S
C1362 O1363 1.258 . S
C1362 O1364 1.263 . S
O1363 Co1360 1.970 . S
O1363 C1362 1.258 . S
O1364 Co1361 1.966 . S
O1364 C1362 1.263 . S
C1365 O1366 1.235 . S
C1365 O1392 1.289 . S
O1366 C1365 1.235 . S
C1367 C1369 1.400 . S
C1367 N1370 1.351 . S
C1367 C1372 1.501 . S
C1368 C1369 1.387 . S
C1368 N1371 1.341 . S
C1369 C1367 1.400 . S
C1369 C1368 1.387 . S
N1370 Co1361 2.022 . S
N1370 C1367 1.351 . S
N1370 N1371 1.365 . S
N1371 C1368 1.341 . S
N1371 N1370 1.365 . S
N1371 H1391 0.862 . S
C1372 C1367 1.501 . S
C1372 H1373 0.961 . S
C1372 H1374 0.961 . S
C1372 H1375 0.960 . S
H1373 C1372 0.961 . S
H1374 C1372 0.961 . S
H1375 C1372 0.960 . S
C1376 N1377 1.342 . S
C1376 C1380 1.401 . S
C1376 C1381 1.499 . S
N1377 Co1360 1.989 . S
N1377 C1376 1.342 . S
N1377 N1378 1.388 . S
N1378 Co1361 1.993 . S
N1378 N1377 1.388 . S
N1378 C1379 1.346 . S
C1379 N1378 1.346 . S
C1379 C1380 1.396 . S
C1379 C1389 1.510 . S
C1380 C1376 1.401 . S
C1380 C1379 1.396 . S
C1381 C1376 1.499 . S
C1381 H1382 0.959 . S
C1381 H1383 0.960 . S
C1381 H1384 0.961 . S
H1382 C1381 0.959 . S
H1383 C1381 0.960 . S
H1384 C1381 0.961 . S
O1385 Co1360 1.967 . S
O1385 C1393 1.258 . S
O1386 Co1361 1.941 . S
O1386 C1393 1.266 . S
H1387 C1389 0.959 . S
H1388 C1389 0.961 . S
C1389 C1379 1.510 . S
C1389 H1387 0.959 . S
C1389 H1388 0.961 . S
C1389 H1390 0.960 . S
H1390 C1389 0.960 . S
H1391 N1371 0.862 . S
O1392 Co1360 1.920 . S
O1392 C1365 1.289 . S
C1393 O1385 1.258 . S
C1393 O1386 1.266 . S
Co1394 O1397 1.970 . S
Co1394 N1411 1.989 . S
Co1394 O1419 1.967 . S
Co1394 O1426 1.920 . S
Co1395 O1398 1.966 . S
Co1395 N1404 2.022 . S
Co1395 N1412 1.993 . S
Co1395 O1420 1.941 . S
C1396 O1397 1.258 . S
C1396 O1398 1.263 . S
O1397 Co1394 1.970 . S
O1397 C1396 1.258 . S
O1398 Co1395 1.966 . S
O1398 C1396 1.263 . S
C1399 O1400 1.235 . S
C1399 O1426 1.289 . S
O1400 C1399 1.235 . S
C1401 C1403 1.400 . S
C1401 N1404 1.351 . S
C1401 C1406 1.501 . S
C1402 C1403 1.387 . S
C1402 N1405 1.341 . S
C1403 C1401 1.400 . S
C1403 C1402 1.387 . S
N1404 Co1395 2.022 . S
N1404 C1401 1.351 . S
N1404 N1405 1.365 . S
N1405 C1402 1.341 . S
N1405 N1404 1.365 . S
N1405 H1425 0.862 . S
C1406 C1401 1.501 . S
C1406 H1407 0.961 . S
C1406 H1408 0.961 . S
C1406 H1409 0.960 . S
H1407 C1406 0.961 . S
H1408 C1406 0.961 . S
H1409 C1406 0.960 . S
C1410 N1411 1.342 . S
C1410 C1414 1.401 . S
C1410 C1415 1.499 . S
N1411 Co1394 1.989 . S
N1411 C1410 1.342 . S
N1411 N1412 1.388 . S
N1412 Co1395 1.993 . S
N1412 N1411 1.388 . S
N1412 C1413 1.346 . S
C1413 N1412 1.346 . S
C1413 C1414 1.396 . S
C1413 C1423 1.510 . S
C1414 C1410 1.401 . S
C1414 C1413 1.396 . S
C1415 C1410 1.499 . S
C1415 H1416 0.959 . S
C1415 H1417 0.960 . S
C1415 H1418 0.961 . S
H1416 C1415 0.959 . S
H1417 C1415 0.960 . S
H1418 C1415 0.961 . S
O1419 Co1394 1.967 . S
O1419 C1427 1.258 . S
O1420 Co1395 1.941 . S
O1420 C1427 1.266 . S
H1421 C1423 0.959 . S
H1422 C1423 0.961 . S
C1423 C1413 1.510 . S
C1423 H1421 0.959 . S
C1423 H1422 0.961 . S
C1423 H1424 0.960 . S
H1424 C1423 0.960 . S
H1425 N1405 0.862 . S
O1426 Co1394 1.920 . S
O1426 C1399 1.289 . S
C1427 O1419 1.258 . S
C1427 O1420 1.266 . S
Co1428 O1431 1.970 . S
Co1428 N1445 1.989 . S
Co1428 O1453 1.967 . S
Co1428 O1460 1.920 . S
Co1429 O1432 1.966 . S
Co1429 N1438 2.022 . S
Co1429 N1446 1.993 . S
Co1429 O1454 1.941 . S
C1430 O1431 1.258 . S
C1430 O1432 1.263 . S
O1431 Co1428 1.970 . S
O1431 C1430 1.258 . S
O1432 Co1429 1.966 . S
O1432 C1430 1.263 . S
C1433 O1434 1.235 . S
C1433 O1460 1.289 . S
O1434 C1433 1.235 . S
C1435 C1437 1.400 . S
C1435 N1438 1.351 . S
C1435 C1440 1.501 . S
C1436 C1437 1.387 . S
C1436 N1439 1.341 . S
C1437 C1435 1.400 . S
C1437 C1436 1.387 . S
N1438 Co1429 2.022 . S
N1438 C1435 1.351 . S
N1438 N1439 1.365 . S
N1439 C1436 1.341 . S
N1439 N1438 1.365 . S
N1439 H1459 0.862 . S
C1440 C1435 1.501 . S
C1440 H1441 0.961 . S
C1440 H1442 0.961 . S
C1440 H1443 0.960 . S
H1441 C1440 0.961 . S
H1442 C1440 0.961 . S
H1443 C1440 0.960 . S
C1444 N1445 1.342 . S
C1444 C1448 1.401 . S
C1444 C1449 1.499 . S
N1445 Co1428 1.989 . S
N1445 C1444 1.342 . S
N1445 N1446 1.388 . S
N1446 Co1429 1.993 . S
N1446 N1445 1.388 . S
N1446 C1447 1.346 . S
C1447 N1446 1.346 . S
C1447 C1448 1.396 . S
C1447 C1457 1.510 . S
C1448 C1444 1.401 . S
C1448 C1447 1.396 . S
C1449 C1444 1.499 . S
C1449 H1450 0.959 . S
C1449 H1451 0.977 . S
C1449 H1452 0.961 . S
H1450 C1449 0.959 . S
H1451 C1449 0.977 . S
H1452 C1449 0.961 . S
O1453 Co1428 1.967 . S
O1453 C1461 1.258 . S
O1454 Co1429 1.941 . S
O1454 C1461 1.266 . S
H1455 C1457 0.959 . S
H1456 C1457 0.961 . S
C1457 C1447 1.510 . S
C1457 H1455 0.959 . S
C1457 H1456 0.961 . S
C1457 H1458 0.960 . S
H1458 C1457 0.960 . S
H1459 N1439 0.862 . S
O1460 Co1428 1.920 . S
O1460 C1433 1.289 . S
C1461 O1453 1.258 . S
C1461 O1454 1.266 . S
Co1462 O1465 1.970 . S
Co1462 N1479 1.989 . S
Co1462 O1487 1.967 . S
Co1462 O1494 1.920 . S
Co1463 O1466 1.966 . S
Co1463 N1472 2.022 . S
Co1463 N1480 1.993 . S
Co1463 O1488 1.941 . S
C1464 O1465 1.258 . S
C1464 O1466 1.263 . S
O1465 Co1462 1.970 . S
O1465 C1464 1.258 . S
O1466 Co1463 1.966 . S
O1466 C1464 1.263 . S
C1467 O1468 1.235 . S
C1467 O1494 1.289 . S
O1468 C1467 1.235 . S
C1469 C1471 1.400 . S
C1469 N1472 1.351 . S
C1469 C1474 1.501 . S
C1470 C1471 1.387 . S
C1470 N1473 1.341 . S
C1471 C1469 1.400 . S
C1471 C1470 1.387 . S
N1472 Co1463 2.022 . S
N1472 C1469 1.351 . S
N1472 N1473 1.365 . S
N1473 C1470 1.341 . S
N1473 N1472 1.365 . S
N1473 H1493 0.862 . S
C1474 C1469 1.501 . S
C1474 H1475 0.961 . S
C1474 H1476 0.961 . S
C1474 H1477 0.960 . S
H1475 C1474 0.961 . S
H1476 C1474 0.961 . S
H1477 C1474 0.960 . S
C1478 N1479 1.342 . S
C1478 C1482 1.401 . S
C1478 C1483 1.499 . S
N1479 Co1462 1.989 . S
N1479 C1478 1.342 . S
N1479 N1480 1.388 . S
N1480 Co1463 1.993 . S
N1480 N1479 1.388 . S
N1480 C1481 1.346 . S
C1481 N1480 1.346 . S
C1481 C1482 1.396 . S
C1481 C1491 1.510 . S
C1482 C1478 1.401 . S
C1482 C1481 1.396 . S
C1483 C1478 1.499 . S
C1483 H1484 0.959 . S
C1483 H1485 0.960 . S
C1483 H1486 0.961 . S
H1484 C1483 0.959 . S
H1485 C1483 0.960 . S
H1486 C1483 0.961 . S
O1487 Co1462 1.967 . S
O1487 C1495 1.258 . S
O1488 Co1463 1.941 . S
O1488 C1495 1.266 . S
H1489 C1491 0.959 . S
H1490 C1491 0.961 . S
C1491 C1481 1.510 . S
C1491 H1489 0.959 . S
C1491 H1490 0.961 . S
C1491 H1492 0.960 . S
H1492 C1491 0.960 . S
H1493 N1473 0.862 . S
O1494 Co1462 1.920 . S
O1494 C1467 1.289 . S
C1495 O1487 1.258 . S
C1495 O1488 1.266 . S
Co1496 O1499 1.970 1_554 S
Co1496 N1513 1.989 . S
Co1496 O1521 1.967 . S
Co1496 O1528 1.920 1_554 S
Co1497 O1500 1.966 . S
Co1497 N1506 2.022 . S
Co1497 N1514 1.993 . S
Co1497 O1522 1.941 . S
C1498 O1499 1.258 1_554 S
C1498 O1500 1.263 . S
O1499 Co1496 1.970 1_556 S
O1499 C1498 1.258 1_556 S
O1500 Co1497 1.966 . S
O1500 C1498 1.263 . S
C1501 O1502 1.235 . S
C1501 O1528 1.289 . S
O1502 C1501 1.235 . S
C1503 C1505 1.400 . S
C1503 N1506 1.351 . S
C1503 C1508 1.501 . S
C1504 C1505 1.387 . S
C1504 N1507 1.341 . S
C1505 C1503 1.400 . S
C1505 C1504 1.387 . S
N1506 Co1497 2.022 . S
N1506 C1503 1.351 . S
N1506 N1507 1.365 . S
N1507 C1504 1.341 . S
N1507 N1506 1.365 . S
N1507 H1527 0.862 . S
C1508 C1503 1.501 . S
C1508 H1509 0.961 . S
C1508 H1510 0.961 . S
C1508 H1511 0.960 . S
H1509 C1508 0.961 . S
H1510 C1508 0.961 . S
H1511 C1508 0.960 . S
C1512 N1513 1.342 . S
C1512 C1516 1.401 . S
C1512 C1517 1.499 . S
N1513 Co1496 1.989 . S
N1513 C1512 1.342 . S
N1513 N1514 1.388 . S
N1514 Co1497 1.993 . S
N1514 N1513 1.388 . S
N1514 C1515 1.346 . S
C1515 N1514 1.346 . S
C1515 C1516 1.396 . S
C1515 C1525 1.510 . S
C1516 C1512 1.401 . S
C1516 C1515 1.396 . S
C1517 C1512 1.499 . S
C1517 H1518 0.959 . S
C1517 H1519 0.960 . S
C1517 H1520 0.961 . S
H1518 C1517 0.959 . S
H1519 C1517 0.960 . S
H1520 C1517 0.961 . S
O1521 Co1496 1.967 . S
O1521 C1529 1.258 . S
O1522 Co1497 1.941 . S
O1522 C1529 1.266 . S
H1523 C1525 0.959 . S
H1524 C1525 0.961 . S
C1525 C1515 1.510 . S
C1525 H1523 0.959 . S
C1525 H1524 0.961 . S
C1525 H1526 0.960 . S
H1526 C1525 0.960 . S
H1527 N1507 0.862 . S
O1528 Co1496 1.920 1_556 S
O1528 C1501 1.289 . S
C1529 O1521 1.258 . S
C1529 O1522 1.266 . S
Co1530 O1533 1.970 1_554 S
Co1530 N1547 1.989 . S
Co1530 O1555 1.967 . S
Co1530 O1562 1.920 1_554 S
Co1531 O1534 1.966 . S
Co1531 N1540 2.022 . S
Co1531 N1548 1.993 . S
Co1531 O1556 1.941 . S
C1532 O1533 1.258 . S
C1532 O1534 1.263 1_556 S
O1533 Co1530 1.970 1_556 S
O1533 C1532 1.258 . S
O1534 Co1531 1.966 . S
O1534 C1532 1.263 1_554 S
C1535 O1536 1.235 . S
C1535 O1562 1.289 . S
O1536 C1535 1.235 . S
C1537 C1539 1.400 . S
C1537 N1540 1.351 . S
C1537 C1542 1.501 . S
C1538 C1539 1.387 . S
C1538 N1541 1.341 . S
C1539 C1537 1.400 . S
C1539 C1538 1.387 . S
N1540 Co1531 2.022 . S
N1540 C1537 1.351 . S
N1540 N1541 1.365 . S
N1541 C1538 1.341 . S
N1541 N1540 1.365 . S
N1541 H1561 0.862 . S
C1542 C1537 1.501 . S
C1542 H1543 0.961 . S
C1542 H1544 0.961 . S
C1542 H1545 0.960 . S
H1543 C1542 0.961 . S
H1544 C1542 0.961 . S
H1545 C1542 0.960 . S
C1546 N1547 1.342 . S
C1546 C1550 1.401 . S
C1546 C1551 1.499 . S
N1547 Co1530 1.989 . S
N1547 C1546 1.342 . S
N1547 N1548 1.388 . S
N1548 Co1531 1.993 . S
N1548 N1547 1.388 . S
N1548 C1549 1.346 . S
C1549 N1548 1.346 . S
C1549 C1550 1.396 . S
C1549 C1559 1.510 . S
C1550 C1546 1.401 . S
C1550 C1549 1.396 . S
C1551 C1546 1.499 . S
C1551 H1552 0.959 . S
C1551 H1553 0.960 . S
C1551 H1554 0.961 . S
H1552 C1551 0.959 . S
H1553 C1551 0.960 . S
H1554 C1551 0.961 . S
O1555 Co1530 1.967 . S
O1555 C1563 1.258 . S
O1556 Co1531 1.941 . S
O1556 C1563 1.266 . S
H1557 C1559 0.959 . S
H1558 C1559 0.961 . S
C1559 C1549 1.510 . S
C1559 H1557 0.959 . S
C1559 H1558 0.961 . S
C1559 H1560 0.960 . S
H1560 C1559 0.960 . S
H1561 N1541 0.862 . S
O1562 Co1530 1.920 1_556 S
O1562 C1535 1.289 . S
C1563 O1555 1.258 . S
C1563 O1556 1.266 . S
Co1564 O1567 1.970 1_554 S
Co1564 N1581 1.989 . S
Co1564 O1589 1.967 . S
Co1564 O1596 1.920 1_554 S
Co1565 O1568 1.966 . S
Co1565 N1574 2.022 . S
Co1565 N1582 1.993 . S
Co1565 O1590 1.941 . S
C1566 O1567 1.258 1_554 S
C1566 O1568 1.263 . S
O1567 Co1564 1.970 1_556 S
O1567 C1566 1.258 1_556 S
O1568 Co1565 1.966 . S
O1568 C1566 1.263 . S
C1569 O1570 1.235 . S
C1569 O1596 1.289 . S
O1570 C1569 1.235 . S
C1571 C1573 1.400 . S
C1571 N1574 1.351 . S
C1571 C1576 1.501 . S
C1572 C1573 1.387 . S
C1572 N1575 1.341 . S
C1573 C1571 1.400 . S
C1573 C1572 1.387 . S
N1574 Co1565 2.022 . S
N1574 C1571 1.351 . S
N1574 N1575 1.365 . S
N1575 C1572 1.341 . S
N1575 N1574 1.365 . S
N1575 H1595 0.862 . S
C1576 C1571 1.501 . S
C1576 H1577 0.961 . S
C1576 H1578 0.961 . S
C1576 H1579 0.960 . S
H1577 C1576 0.961 . S
H1578 C1576 0.961 . S
H1579 C1576 0.960 . S
C1580 N1581 1.342 . S
C1580 C1584 1.401 . S
C1580 C1585 1.499 . S
N1581 Co1564 1.989 . S
N1581 C1580 1.342 . S
N1581 N1582 1.388 . S
N1582 Co1565 1.993 . S
N1582 N1581 1.388 . S
N1582 C1583 1.346 . S
C1583 N1582 1.346 . S
C1583 C1584 1.396 . S
C1583 C1593 1.510 . S
C1584 C1580 1.401 . S
C1584 C1583 1.396 . S
C1585 C1580 1.499 . S
C1585 H1586 0.959 . S
C1585 H1587 0.960 . S
C1585 H1588 0.961 . S
H1586 C1585 0.959 . S
H1587 C1585 0.960 . S
H1588 C1585 0.961 . S
O1589 Co1564 1.967 . S
O1589 C1597 1.258 . S
O1590 Co1565 1.941 . S
O1590 C1597 1.266 . S
H1591 C1593 0.959 . S
H1592 C1593 0.961 . S
C1593 C1583 1.510 . S
C1593 H1591 0.959 . S
C1593 H1592 0.961 . S
C1593 H1594 0.960 . S
H1594 C1593 0.960 . S
H1595 N1575 0.862 . S
O1596 Co1564 1.920 1_556 S
O1596 C1569 1.289 . S
C1597 O1589 1.258 . S
C1597 O1590 1.266 . S
Co1598 O1601 1.970 . S
Co1598 N1615 1.989 . S
Co1598 O1623 1.967 . S
Co1598 O1630 1.920 . S
Co1599 O1602 1.966 . S
Co1599 N1608 2.022 1_554 S
Co1599 N1616 1.993 1_554 S
Co1599 O1624 1.941 . S
C1600 O1601 1.258 . S
C1600 O1602 1.263 . S
O1601 Co1598 1.970 . S
O1601 C1600 1.258 . S
O1602 Co1599 1.966 . S
O1602 C1600 1.263 . S
C1603 O1604 1.235 . S
C1603 O1630 1.289 . S
O1604 C1603 1.235 . S
C1605 C1607 1.400 . S
C1605 N1608 1.351 . S
C1605 C1610 1.501 . S
C1606 C1607 1.387 . S
C1606 N1609 1.341 . S
C1607 C1605 1.400 . S
C1607 C1606 1.387 . S
N1608 Co1599 2.022 1_556 S
N1608 C1605 1.351 . S
N1608 N1609 1.365 . S
N1609 C1606 1.341 . S
N1609 N1608 1.365 . S
N1609 H1629 0.862 . S
C1610 C1605 1.501 . S
C1610 H1611 0.961 1_556 S
C1610 H1612 0.961 . S
C1610 H1613 0.960 . S
H1611 C1610 0.961 1_554 S
H1612 C1610 0.961 . S
H1613 C1610 0.960 . S
C1614 N1615 1.342 . S
C1614 C1618 1.401 1_554 S
C1614 C1619 1.499 . S
N1615 Co1598 1.989 . S
N1615 C1614 1.342 . S
N1615 N1616 1.388 1_554 S
N1616 Co1599 1.993 1_556 S
N1616 N1615 1.388 1_556 S
N1616 C1617 1.346 . S
C1617 N1616 1.346 . S
C1617 C1618 1.396 . S
C1617 C1627 1.510 . S
C1618 C1614 1.401 1_556 S
C1618 C1617 1.396 . S
C1619 C1614 1.499 . S
C1619 H1620 0.959 . S
C1619 H1621 0.960 . S
C1619 H1622 0.961 . S
H1620 C1619 0.959 . S
H1621 C1619 0.960 . S
H1622 C1619 0.961 . S
O1623 Co1598 1.967 . S
O1623 C1631 1.258 . S
O1624 Co1599 1.941 . S
O1624 C1631 1.266 . S
H1625 C1627 0.959 . S
H1626 C1627 0.961 . S
C1627 C1617 1.510 . S
C1627 H1625 0.959 . S
C1627 H1626 0.961 . S
C1627 H1628 0.960 . S
H1628 C1627 0.960 . S
H1629 N1609 0.862 . S
O1630 Co1598 1.920 . S
O1630 C1603 1.289 . S
C1631 O1623 1.258 . S
C1631 O1624 1.266 . S
C577 C33 0.681 . S
C67 C1019 0.529 . S
C645 C101 1.210 . S
C1087 C135 0.866 . S
C169 C441 1.420 . S
C883 C203 0.612 . S
C509 C237 0.455 . S
C271 C951 0.703 . S
C305 C1631 0.739 . S
C339 C1597 0.692 . S
C373 C1563 0.656 . S
C1529 C407 0.988 . S
C1427 C475 0.743 . S
C543 C1495 1.019 . S
C1291 C611 0.916 . S
C679 C1359 0.722 . S
C713 C1223 0.933 . S
C1189 C747 0.861 . S
C1155 C781 1.039 . S
C815 C1121 0.706 . S
C849 C1393 0.854 . S
C917 C1461 1.199 . S
C985 C1257 1.477 . S
C1053 C1325 0.677 . S
C111 C20 2.533 . S
C36 C5 2.318 . S
C43 C70 2.656 . S
C104 C77 2.435 . S
C156 C179 2.140 . S
C213 C172 2.566 . S
C206 C243 2.465 . S
C258 C141 2.163 . S
C122 C281 2.300 . S
C349 C2 2.459 . S
C379 C54 1.775 . S
C311 C88 2.104 . S
C315 C190 2.716 . S
C277 C224 2.198 . S
C240 C345 2.365 . S
C138 C383 2.876 . S
C9 C292 1.934 . S
C145 C326 1.967 . S
C274 C175 2.478 . S
C209 C342 2.580 . S
C394 C247 2.342 . S
C73 C376 2.768 . S
C308 C107 2.290 . S
C39 C360 2.320 . S
C519 C428 2.599 . S
C413 C444 2.558 . S
C478 C451 2.377 . S
C512 C485 2.672 . S
C564 C587 1.904 . S
C580 C621 2.678 . S
C614 C651 2.330 . S
C549 C666 2.170 . S
C689 C530 2.443 . S
C757 C410 2.284 . S
C462 C787 1.943 . S
C723 C496 2.234 . S
C719 C598 2.481 . S
C632 C685 1.996 . S
C753 C648 2.574 . S
C791 C546 2.610 . S
C700 C417 1.972 . S
C553 C716 2.604 . S
C682 C583 2.593 . S
C750 C617 2.838 . S
C802 C655 2.156 . S
C784 C481 2.652 . S
C515 C734 1.770 . S
C768 C447 2.270 . S
C836 C927 2.614 . S
C852 C821 2.176 . S
C886 C859 2.672 . S
C893 C920 2.388 . S
C972 C995 2.241 . S
C988 C1029 2.597 . S
C1022 C1059 2.599 . S
C957 C1074 1.991 . S
C938 C1097 2.250 . S
C818 C1161 2.306 . S
C1195 C870 1.923 . S
C1127 C904 2.225 . S
C1131 C1006 2.517 . S
C1093 C1040 2.093 . S
C1165 C1056 2.708 . S
C1199 C954 2.893 . S
C1108 C825 2.033 . S
C961 C1142 2.062 . S
C1090 C991 2.556 . S
C1025 C1176 2.199 . S
C1210 C1063 2.232 . S
C1192 C889 2.642 . S
C1124 C923 2.336 . S
C1158 C855 2.733 . S
C1244 C1335 2.537 . S
C1260 C1229 2.515 . S
C1294 C1267 2.425 . S
C1328 C1301 2.646 . S
C1380 C1403 1.961 . S
C1396 C1437 2.640 . S
C1430 C1467 2.369 . S
C1482 C1365 2.129 . S
C1346 C1505 2.315 . S
C1226 C1573 2.387 . S
C1278 C1603 1.893 . S
C1312 C1539 2.115 . S
C1535 C1414 2.518 . S
C1501 C1448 2.054 . S
C1464 C1569 2.491 . S
C1362 C1607 2.696 . S
C1233 C1516 1.972 . S
C1532 C1369 2.579 . S
C1399 C1498 2.580 1_556 S
C1566 C1433 2.809 1_554 S
C1471 C1618 2.131 . S
C1297 C1600 2.611 . S
C1550 C1331 1.945 . S
C1263 C1584 2.326 . S
