# Generated by pormake.
# Topology wln, (5)-cn, num edge types: 1
# Building blocks:
#     Node 0, Type 0, BuildingBlock: BEQFEK_clean_sbu_0, # of connection points: 5
#     Node 1, Type 0, BuildingBlock: BEQFEK_clean_sbu_0, # of connection points: 5
#     Node 2, Type 0, BuildingBlock: BEQFEK_clean_sbu_0, # of connection points: 5
#     Node 3, Type 0, BuildingBlock: BEQFEK_clean_sbu_0, # of connection points: 5
#     Node 4, Type 0, BuildingBlock: BEQFEK_clean_sbu_0, # of connection points: 5
#     Node 5, Type 0, BuildingBlock: BEQFEK_clean_sbu_0, # of connection points: 5
#     Node 6, Type 0, BuildingBlock: BEQFEK_clean_sbu_0, # of connection points: 5
#     Node 7, Type 0, BuildingBlock: BEQFEK_clean_sbu_0, # of connection points: 5
#     Node 8, Type 0, BuildingBlock: BEQFEK_clean_sbu_0, # of connection points: 5
#     Node 9, Type 0, BuildingBlock: BEQFEK_clean_sbu_0, # of connection points: 5
#     Node 10, Type 0, BuildingBlock: BEQFEK_clean_sbu_0, # of connection points: 5
#     Node 11, Type 0, BuildingBlock: BEQFEK_clean_sbu_0, # of connection points: 5
#     Node 12, Type 0, BuildingBlock: BEQFEK_clean_sbu_0, # of connection points: 5
#     Node 13, Type 0, BuildingBlock: BEQFEK_clean_sbu_0, # of connection points: 5
#     Node 14, Type 0, BuildingBlock: BEQFEK_clean_sbu_0, # of connection points: 5
#     Node 15, Type 0, BuildingBlock: BEQFEK_clean_sbu_0, # of connection points: 5
#     Node 16, Type 0, BuildingBlock: BEQFEK_clean_sbu_0, # of connection points: 5
#     Node 17, Type 0, BuildingBlock: BEQFEK_clean_sbu_0, # of connection points: 5
#     Node 18, Type 0, BuildingBlock: BEQFEK_clean_sbu_0, # of connection points: 5
#     Node 19, Type 0, BuildingBlock: BEQFEK_clean_sbu_0, # of connection points: 5
#     Node 20, Type 0, BuildingBlock: BEQFEK_clean_sbu_0, # of connection points: 5
#     Node 21, Type 0, BuildingBlock: BEQFEK_clean_sbu_0, # of connection points: 5
#     Node 22, Type 0, BuildingBlock: BEQFEK_clean_sbu_0, # of connection points: 5
#     Node 23, Type 0, BuildingBlock: BEQFEK_clean_sbu_0, # of connection points: 5
#     Node 24, Type 0, BuildingBlock: BEQFEK_clean_sbu_0, # of connection points: 5
#     Node 25, Type 0, BuildingBlock: BEQFEK_clean_sbu_0, # of connection points: 5
#     Node 26, Type 0, BuildingBlock: BEQFEK_clean_sbu_0, # of connection points: 5
#     Node 27, Type 0, BuildingBlock: BEQFEK_clean_sbu_0, # of connection points: 5
#     Node 28, Type 0, BuildingBlock: BEQFEK_clean_sbu_0, # of connection points: 5
#     Node 29, Type 0, BuildingBlock: BEQFEK_clean_sbu_0, # of connection points: 5
#     Node 30, Type 0, BuildingBlock: BEQFEK_clean_sbu_0, # of connection points: 5
#     Node 31, Type 0, BuildingBlock: BEQFEK_clean_sbu_0, # of connection points: 5
#     Node 32, Type 0, BuildingBlock: BEQFEK_clean_sbu_0, # of connection points: 5
#     Node 33, Type 0, BuildingBlock: BEQFEK_clean_sbu_0, # of connection points: 5
#     Node 34, Type 0, BuildingBlock: BEQFEK_clean_sbu_0, # of connection points: 5
#     Node 35, Type 0, BuildingBlock: BEQFEK_clean_sbu_0, # of connection points: 5
#     Edge 36, Type (0, 0), BuildingBlock: OJICUG_clean_linker_0, # of connection points: 2
#     Edge 37, Type (0, 0), BuildingBlock: OJICUG_clean_linker_0, # of connection points: 2
#     Edge 38, Type (0, 0), BuildingBlock: OJICUG_clean_linker_0, # of connection points: 2
#     Edge 39, Type (0, 0), BuildingBlock: OJICUG_clean_linker_0, # of connection points: 2
#     Edge 40, Type (0, 0), BuildingBlock: OJICUG_clean_linker_0, # of connection points: 2
#     Edge 41, Type (0, 0), BuildingBlock: OJICUG_clean_linker_0, # of connection points: 2
#     Edge 42, Type (0, 0), BuildingBlock: OJICUG_clean_linker_0, # of connection points: 2
#     Edge 43, Type (0, 0), BuildingBlock: OJICUG_clean_linker_0, # of connection points: 2
#     Edge 44, Type (0, 0), BuildingBlock: OJICUG_clean_linker_0, # of connection points: 2
#     Edge 45, Type (0, 0), BuildingBlock: OJICUG_clean_linker_0, # of connection points: 2
#     Edge 46, Type (0, 0), BuildingBlock: OJICUG_clean_linker_0, # of connection points: 2
#     Edge 47, Type (0, 0), BuildingBlock: OJICUG_clean_linker_0, # of connection points: 2
#     Edge 48, Type (0, 0), BuildingBlock: OJICUG_clean_linker_0, # of connection points: 2
#     Edge 49, Type (0, 0), BuildingBlock: OJICUG_clean_linker_0, # of connection points: 2
#     Edge 50, Type (0, 0), BuildingBlock: OJICUG_clean_linker_0, # of connection points: 2
#     Edge 51, Type (0, 0), BuildingBlock: OJICUG_clean_linker_0, # of connection points: 2
#     Edge 52, Type (0, 0), BuildingBlock: OJICUG_clean_linker_0, # of connection points: 2
#     Edge 53, Type (0, 0), BuildingBlock: OJICUG_clean_linker_0, # of connection points: 2
#     Edge 54, Type (0, 0), BuildingBlock: OJICUG_clean_linker_0, # of connection points: 2
#     Edge 55, Type (0, 0), BuildingBlock: OJICUG_clean_linker_0, # of connection points: 2
#     Edge 56, Type (0, 0), BuildingBlock: OJICUG_clean_linker_0, # of connection points: 2
#     Edge 57, Type (0, 0), BuildingBlock: OJICUG_clean_linker_0, # of connection points: 2
#     Edge 58, Type (0, 0), BuildingBlock: OJICUG_clean_linker_0, # of connection points: 2
#     Edge 59, Type (0, 0), BuildingBlock: OJICUG_clean_linker_0, # of connection points: 2
#     Edge 60, Type (0, 0), BuildingBlock: OJICUG_clean_linker_0, # of connection points: 2
#     Edge 61, Type (0, 0), BuildingBlock: OJICUG_clean_linker_0, # of connection points: 2
#     Edge 62, Type (0, 0), BuildingBlock: OJICUG_clean_linker_0, # of connection points: 2
#     Edge 63, Type (0, 0), BuildingBlock: OJICUG_clean_linker_0, # of connection points: 2
#     Edge 64, Type (0, 0), BuildingBlock: OJICUG_clean_linker_0, # of connection points: 2
#     Edge 65, Type (0, 0), BuildingBlock: OJICUG_clean_linker_0, # of connection points: 2
#     Edge 66, Type (0, 0), BuildingBlock: OJICUG_clean_linker_0, # of connection points: 2
#     Edge 67, Type (0, 0), BuildingBlock: OJICUG_clean_linker_0, # of connection points: 2
#     Edge 68, Type (0, 0), BuildingBlock: OJICUG_clean_linker_0, # of connection points: 2
#     Edge 69, Type (0, 0), BuildingBlock: OJICUG_clean_linker_0, # of connection points: 2
#     Edge 70, Type (0, 0), BuildingBlock: OJICUG_clean_linker_0, # of connection points: 2
#     Edge 71, Type (0, 0), BuildingBlock: OJICUG_clean_linker_0, # of connection points: 2
#     Edge 72, Type (0, 0), BuildingBlock: OJICUG_clean_linker_0, # of connection points: 2
#     Edge 73, Type (0, 0), BuildingBlock: OJICUG_clean_linker_0, # of connection points: 2
#     Edge 74, Type (0, 0), BuildingBlock: OJICUG_clean_linker_0, # of connection points: 2
#     Edge 75, Type (0, 0), BuildingBlock: OJICUG_clean_linker_0, # of connection points: 2
#     Edge 76, Type (0, 0), BuildingBlock: OJICUG_clean_linker_0, # of connection points: 2
#     Edge 77, Type (0, 0), BuildingBlock: OJICUG_clean_linker_0, # of connection points: 2
#     Edge 78, Type (0, 0), BuildingBlock: OJICUG_clean_linker_0, # of connection points: 2
#     Edge 79, Type (0, 0), BuildingBlock: OJICUG_clean_linker_0, # of connection points: 2
#     Edge 80, Type (0, 0), BuildingBlock: OJICUG_clean_linker_0, # of connection points: 2
#     Edge 81, Type (0, 0), BuildingBlock: OJICUG_clean_linker_0, # of connection points: 2
#     Edge 82, Type (0, 0), BuildingBlock: OJICUG_clean_linker_0, # of connection points: 2
#     Edge 83, Type (0, 0), BuildingBlock: OJICUG_clean_linker_0, # of connection points: 2
#     Edge 84, Type (0, 0), BuildingBlock: OJICUG_clean_linker_0, # of connection points: 2
#     Edge 85, Type (0, 0), BuildingBlock: OJICUG_clean_linker_0, # of connection points: 2
#     Edge 86, Type (0, 0), BuildingBlock: OJICUG_clean_linker_0, # of connection points: 2
#     Edge 87, Type (0, 0), BuildingBlock: OJICUG_clean_linker_0, # of connection points: 2
#     Edge 88, Type (0, 0), BuildingBlock: OJICUG_clean_linker_0, # of connection points: 2
#     Edge 89, Type (0, 0), BuildingBlock: OJICUG_clean_linker_0, # of connection points: 2
#     Edge 90, Type (0, 0), BuildingBlock: OJICUG_clean_linker_0, # of connection points: 2
#     Edge 91, Type (0, 0), BuildingBlock: OJICUG_clean_linker_0, # of connection points: 2
#     Edge 92, Type (0, 0), BuildingBlock: OJICUG_clean_linker_0, # of connection points: 2
#     Edge 93, Type (0, 0), BuildingBlock: OJICUG_clean_linker_0, # of connection points: 2
#     Edge 94, Type (0, 0), BuildingBlock: OJICUG_clean_linker_0, # of connection points: 2
#     Edge 95, Type (0, 0), BuildingBlock: OJICUG_clean_linker_0, # of connection points: 2
#     Edge 96, Type (0, 0), BuildingBlock: OJICUG_clean_linker_0, # of connection points: 2
#     Edge 97, Type (0, 0), BuildingBlock: OJICUG_clean_linker_0, # of connection points: 2
#     Edge 98, Type (0, 0), BuildingBlock: OJICUG_clean_linker_0, # of connection points: 2
#     Edge 99, Type (0, 0), BuildingBlock: OJICUG_clean_linker_0, # of connection points: 2
#     Edge 100, Type (0, 0), BuildingBlock: OJICUG_clean_linker_0, # of connection points: 2
#     Edge 101, Type (0, 0), BuildingBlock: OJICUG_clean_linker_0, # of connection points: 2
#     Edge 102, Type (0, 0), BuildingBlock: OJICUG_clean_linker_0, # of connection points: 2
#     Edge 103, Type (0, 0), BuildingBlock: OJICUG_clean_linker_0, # of connection points: 2
#     Edge 104, Type (0, 0), BuildingBlock: OJICUG_clean_linker_0, # of connection points: 2
#     Edge 105, Type (0, 0), BuildingBlock: OJICUG_clean_linker_0, # of connection points: 2
#     Edge 106, Type (0, 0), BuildingBlock: OJICUG_clean_linker_0, # of connection points: 2
#     Edge 107, Type (0, 0), BuildingBlock: OJICUG_clean_linker_0, # of connection points: 2
#     Edge 108, Type (0, 0), BuildingBlock: OJICUG_clean_linker_0, # of connection points: 2
#     Edge 109, Type (0, 0), BuildingBlock: OJICUG_clean_linker_0, # of connection points: 2
#     Edge 110, Type (0, 0), BuildingBlock: OJICUG_clean_linker_0, # of connection points: 2
#     Edge 111, Type (0, 0), BuildingBlock: OJICUG_clean_linker_0, # of connection points: 2
#     Edge 112, Type (0, 0), BuildingBlock: OJICUG_clean_linker_0, # of connection points: 2
#     Edge 113, Type (0, 0), BuildingBlock: OJICUG_clean_linker_0, # of connection points: 2
#     Edge 114, Type (0, 0), BuildingBlock: OJICUG_clean_linker_0, # of connection points: 2
#     Edge 115, Type (0, 0), BuildingBlock: OJICUG_clean_linker_0, # of connection points: 2
#     Edge 116, Type (0, 0), BuildingBlock: OJICUG_clean_linker_0, # of connection points: 2
#     Edge 117, Type (0, 0), BuildingBlock: OJICUG_clean_linker_0, # of connection points: 2
#     Edge 118, Type (0, 0), BuildingBlock: OJICUG_clean_linker_0, # of connection points: 2
#     Edge 119, Type (0, 0), BuildingBlock: OJICUG_clean_linker_0, # of connection points: 2
#     Edge 120, Type (0, 0), BuildingBlock: OJICUG_clean_linker_0, # of connection points: 2
#     Edge 121, Type (0, 0), BuildingBlock: OJICUG_clean_linker_0, # of connection points: 2
#     Edge 122, Type (0, 0), BuildingBlock: OJICUG_clean_linker_0, # of connection points: 2
#     Edge 123, Type (0, 0), BuildingBlock: OJICUG_clean_linker_0, # of connection points: 2
#     Edge 124, Type (0, 0), BuildingBlock: OJICUG_clean_linker_0, # of connection points: 2
#     Edge 125, Type (0, 0), BuildingBlock: OJICUG_clean_linker_0, # of connection points: 2
# Relax obj value: 0.237
# Max RMSD: 0.195
# Mean RMSD: 0.195
data_MOF--net-wln--node1-BEQFEK_clean_sbu_0--edge1-OJICUG_clean_linker_0
_symmetry_space_group_name_H-M    P1
_symmetry_Int_Tables_number       1
_symmetry_cell_setting            triclinic
loop_
_symmetry_equiv_pos_as_xyz
'x, y, z'
_cell_length_a     91.923975
_cell_length_b     91.950272
_cell_length_c     14.644301
_cell_angle_alpha  89.974997
_cell_angle_beta   90.045034
_cell_angle_gamma 119.98659
loop_
_atom_site_label
_atom_site_type_symbol
_atom_site_fract_x
_atom_site_fract_y
_atom_site_fract_z
_atom_type_partial_charge
Co0 Co 0.14311 0.40272 0.92128 0.0
Co1 Co 0.13678 0.38481 0.10955 0.0
C2 C 0.17106 0.40258 0.01297 0.0
O3 O 0.16654 0.40853 0.94744 0.0
O4 O 0.1606 0.39333 0.07369 0.0
C5 C 0.15214 0.41549 0.74129 0.0
O6 O 0.1676 0.42039 0.7669 0.0
C7 C 0.14467 0.38967 0.303 0.0
C8 C 0.12123 0.36983 0.36484 0.0
C9 C 0.13617 0.38438 0.3858 0.0
N10 N 0.13474 0.3794 0.23652 0.0
N11 N 0.121 0.36721 0.2743 0.0
C12 C 0.16175 0.40444 0.28572 0.0
H13 H 0.1678 0.40196 0.22776 0.0
H14 H 0.1606 0.4156 0.26898 0.0
H15 H 0.17005 0.40707 0.34579 0.0
C16 C 0.12861 0.42098 0.01778 0.0
N17 N 0.1338 0.40961 0.01501 0.0
N18 N 0.13033 0.40153 0.09322 0.0
C19 C 0.12247 0.40731 0.1477 0.0
C20 C 0.12122 0.41987 0.10212 0.0
C21 C 0.12965 0.43172 0.93858 0.0
H22 H 0.14236 0.43746 0.9077 0.0
H23 H 0.12686 0.44168 0.95928 0.0
H24 H 0.12046 0.42371 0.88582 0.0
O25 O 0.12973 0.37808 0.90236 0.0
O26 O 0.12267 0.36443 0.03405 0.0
H27 H 0.10801 0.40569 0.26869 0.0
H28 H 0.12707 0.40563 0.28882 0.0
C29 C 0.11621 0.40105 0.24201 0.0
H30 H 0.10911 0.38716 0.24208 0.0
H31 H 0.11089 0.35791 0.23758 0.0
O32 O 0.14073 0.41077 0.8013 0.0
C33 C 0.1222 0.3644 0.947 0.0
Co34 Co 0.59883 0.74181 0.92303 0.0
Co35 Co 0.61775 0.75208 0.10922 0.0
C36 C 0.59907 0.76886 0.02986 0.0
O37 O 0.59306 0.7589 0.96235 0.0
O38 O 0.6088 0.76753 0.08689 0.0
C39 C 0.59187 0.7451 0.74449 0.0
O40 O 0.59388 0.75915 0.77931 0.0
C41 C 0.61314 0.75406 0.30118 0.0
C42 C 0.63495 0.75412 0.36487 0.0
C43 C 0.61987 0.75346 0.38465 0.0
N44 N 0.62359 0.75481 0.23503 0.0
N45 N 0.6368 0.75519 0.27329 0.0
C46 C 0.59592 0.7514 0.2833 0.0
H47 H 0.59135 0.74567 0.21513 0.0
H48 H 0.5869 0.74319 0.33622 0.0
H49 H 0.59645 0.76372 0.28471 0.0
C50 C 0.5814 0.70814 0.01375 0.0
N51 N 0.59263 0.72474 0.01197 0.0
N52 N 0.60121 0.72904 0.08883 0.0
C53 C 0.596 0.71521 0.14101 0.0
C54 C 0.58319 0.70155 0.09577 0.0
C55 C 0.57004 0.69878 0.93585 0.0
H56 H 0.5777 0.69833 0.87856 0.0
H57 H 0.5637 0.70563 0.9113 0.0
H58 H 0.56056 0.68577 0.95554 0.0
O59 O 0.62326 0.75293 0.90002 0.0
O60 O 0.63771 0.75913 0.02903 0.0
H61 H 0.61691 0.72281 0.23154 0.0
H62 H 0.59954 0.70221 0.2557 0.0
C63 C 0.60305 0.71504 0.23304 0.0
H64 H 0.59801 0.72022 0.28417 0.0
H65 H 0.6466 0.75526 0.23693 0.0
O66 O 0.5905 0.73364 0.79848 0.0
C67 C 0.63718 0.75886 0.94196 0.0
Co68 Co 0.26007 0.85616 0.92336 0.0
Co69 Co 0.25004 0.86513 0.10918 0.0
C70 C 0.23279 0.82964 0.02996 0.0
O71 O 0.24272 0.83346 0.9624 0.0
O72 O 0.2343 0.84076 0.08703 0.0
C73 C 0.25677 0.84597 0.74466 0.0
O74 O 0.24263 0.83402 0.77904 0.0
C75 C 0.24841 0.85871 0.30107 0.0
C76 C 0.24828 0.88039 0.3649 0.0
C77 C 0.24902 0.86601 0.38455 0.0
N78 N 0.24753 0.86835 0.23501 0.0
N79 N 0.24715 0.88117 0.27334 0.0
C80 C 0.25101 0.84412 0.2831 0.0
H81 H 0.25654 0.84517 0.21449 0.0
H82 H 0.25935 0.84338 0.33546 0.0
H83 H 0.23869 0.83235 0.28552 0.0
C84 C 0.29355 0.87128 0.01597 0.0
N85 N 0.27711 0.8666 0.01274 0.0
N86 N 0.27296 0.87122 0.08894 0.0
C87 C 0.28678 0.87944 0.14171 0.0
C88 C 0.30015 0.8795 0.09813 0.0
C89 C 0.30284 0.86867 0.94 0.0
H90 H 0.29448 0.85669 0.90429 0.0
H91 H 0.31419 0.86868 0.96606 0.0
H92 H 0.30684 0.87906 0.89 0.0
O93 O 0.24929 0.86981 0.90043 0.0
O94 O 0.24322 0.87823 0.02911 0.0
H95 H 0.30044 0.89741 0.24892 0.0
H96 H 0.28286 0.87805 0.28594 0.0
C97 C 0.28744 0.88764 0.23115 0.0
H98 H 0.27944 0.89348 0.22834 0.0
H99 H 0.24697 0.89085 0.23703 0.0
O100 O 0.26824 0.85594 0.79897 0.0
C101 C 0.2435 0.87795 0.94207 0.0
Co102 Co 0.40452 0.14514 0.07659 0.0
Co103 Co 0.38546 0.13592 0.89074 0.0
C104 C 0.40341 0.17146 0.96941 0.0
O105 O 0.40962 0.16777 0.03711 0.0
O106 O 0.39385 0.16025 0.91254 0.0
C107 C 0.41122 0.15534 0.25527 0.0
O108 O 0.40872 0.16709 0.22072 0.0
C109 C 0.39019 0.14235 0.69882 0.0
C110 C 0.36853 0.12052 0.63487 0.0
C111 C 0.38356 0.13501 0.6153 0.0
N112 N 0.37972 0.13263 0.76483 0.0
N113 N 0.36661 0.11972 0.72643 0.0
C114 C 0.4073 0.15706 0.71687 0.0
H115 H 0.41184 0.15607 0.78546 0.0
H116 H 0.41642 0.15793 0.66449 0.0
H117 H 0.40659 0.16875 0.71453 0.0
C118 C 0.42304 0.13015 0.98451 0.0
N119 N 0.41124 0.13477 0.98744 0.0
N120 N 0.40248 0.1301 0.91117 0.0
C121 C 0.40813 0.12191 0.85861 0.0
C122 C 0.42148 0.12194 0.9024 0.0
C123 C 0.43492 0.13277 0.06075 0.0
H124 H 0.43849 0.14474 0.09645 0.0
H125 H 0.44628 0.1328 0.03495 0.0
H126 H 0.42853 0.12238 0.11067 0.0
O127 O 0.38011 0.13131 0.09969 0.0
O128 O 0.36561 0.12267 0.97102 0.0
H129 H 0.40393 0.10392 0.75173 0.0
H130 H 0.40544 0.12315 0.71439 0.0
C131 C 0.40058 0.11361 0.76939 0.0
H132 H 0.38673 0.10763 0.77247 0.0
H133 H 0.35683 0.10997 0.76268 0.0
O134 O 0.41297 0.14551 0.20108 0.0
C135 C 0.3662 0.12301 0.05807 0.0
Co136 Co 0.85828 0.25931 0.07011 0.0
Co137 Co 0.86717 0.24899 0.88472 0.0
C138 C 0.83155 0.23245 0.96196 0.0
O139 O 0.83545 0.24241 0.02952 0.0
O140 O 0.84269 0.23368 0.90592 0.0
C141 C 0.84823 0.25575 0.24859 0.0
O142 O 0.83649 0.24157 0.21338 0.0
C143 C 0.86069 0.2471 0.69246 0.0
C144 C 0.88239 0.24695 0.62908 0.0
C145 C 0.868 0.24766 0.60906 0.0
N146 N 0.87035 0.24629 0.7588 0.0
N147 N 0.88316 0.24587 0.7207 0.0
C148 C 0.84615 0.24981 0.71004 0.0
H149 H 0.84738 0.25566 0.7779 0.0
H150 H 0.8453 0.25792 0.65667 0.0
H151 H 0.83436 0.23749 0.70924 0.0
C152 C 0.87466 0.29296 0.97927 0.0
N153 N 0.86937 0.27638 0.9815 0.0
N154 N 0.87378 0.27208 0.90514 0.0
C155 C 0.88243 0.2859 0.85293 0.0
C156 C 0.88314 0.29954 0.89753 0.0
C157 C 0.8724 0.3023 0.05632 0.0
H158 H 0.88029 0.3027 0.11476 0.0
H159 H 0.85912 0.29546 0.07933 0.0
H160 H 0.87602 0.31533 0.03643 0.0
O161 O 0.8714 0.24804 0.09391 0.0
O162 O 0.87989 0.24179 0.96606 0.0
H163 H 0.89573 0.27819 0.76308 0.0
H164 H 0.89913 0.29885 0.73889 0.0
C165 C 0.88972 0.28605 0.76123 0.0
H166 H 0.87955 0.28095 0.70968 0.0
H167 H 0.89285 0.24574 0.75719 0.0
O168 O 0.8581 0.26742 0.19486 0.0
C169 C 0.87943 0.24205 0.05311 0.0
Co170 Co 0.74149 0.59779 0.08665 0.0
Co171 Co 0.75205 0.61634 0.8996 0.0
C172 C 0.76866 0.59774 0.98212 0.0
O173 O 0.75873 0.59203 0.0499 0.0
O174 O 0.76731 0.60724 0.92357 0.0
C175 C 0.7438 0.58957 0.26543 0.0
O176 O 0.75731 0.59015 0.23158 0.0
C177 C 0.75394 0.61147 0.70796 0.0
C178 C 0.75458 0.63353 0.64378 0.0
C179 C 0.75353 0.61825 0.62434 0.0
N180 N 0.75497 0.62209 0.77384 0.0
N181 N 0.7557 0.63544 0.7353 0.0
C182 C 0.75083 0.59411 0.72624 0.0
H183 H 0.74542 0.58983 0.79527 0.0
H184 H 0.74218 0.58511 0.67458 0.0
H185 H 0.76294 0.59421 0.72274 0.0
C186 C 0.70791 0.5803 0.99411 0.0
N187 N 0.72453 0.59146 0.99646 0.0
N188 N 0.72896 0.59997 0.91941 0.0
C189 C 0.71519 0.59481 0.86665 0.0
C190 C 0.70145 0.58207 0.91158 0.0
C191 C 0.69838 0.56904 0.07198 0.0
H192 H 0.69702 0.57666 0.12648 0.0
H193 H 0.70557 0.56338 0.10101 0.0
H194 H 0.68571 0.55904 0.05042 0.0
O195 O 0.75263 0.62228 0.10886 0.0
O196 O 0.75911 0.63639 0.97863 0.0
H197 H 0.72321 0.61573 0.7757 0.0
H198 H 0.70239 0.5987 0.75221 0.0
C199 C 0.71515 0.60189 0.77454 0.0
H200 H 0.72005 0.59657 0.72333 0.0
H201 H 0.75603 0.64538 0.77145 0.0
O202 O 0.73299 0.58947 0.21075 0.0
C203 C 0.7587 0.6361 0.06569 0.0
Co204 Co 0.85959 0.59921 0.08104 0.0
Co205 Co 0.86659 0.61699 0.89049 0.0
C206 C 0.83172 0.59872 0.97643 0.0
O207 O 0.83656 0.59379 0.0454 0.0
O208 O 0.84205 0.60774 0.91428 0.0
C209 C 0.84963 0.58952 0.26193 0.0
O210 O 0.8355 0.5883 0.23379 0.0
C211 C 0.8611 0.61809 0.69504 0.0
C212 C 0.88704 0.63054 0.64276 0.0
C213 C 0.8704 0.621 0.61534 0.0
N214 N 0.87173 0.62439 0.76607 0.0
N215 N 0.88722 0.63251 0.73396 0.0
C216 C 0.84253 0.61041 0.70457 0.0
H217 H 0.84 0.61791 0.75443 0.0
H218 H 0.83705 0.59738 0.73067 0.0
H219 H 0.83655 0.61052 0.63899 0.0
C220 C 0.87512 0.58135 0.9906 0.0
N221 N 0.8698 0.59264 0.99068 0.0
N222 N 0.87234 0.59968 0.90954 0.0
C223 C 0.87897 0.59266 0.8547 0.0
C224 C 0.88124 0.58111 0.90427 0.0
C225 C 0.87489 0.57161 0.07288 0.0
H226 H 0.88132 0.58039 0.13028 0.0
H227 H 0.86167 0.56312 0.09382 0.0
H228 H 0.88111 0.56414 0.05953 0.0
O229 O 0.87285 0.62338 0.10416 0.0
O230 O 0.87967 0.63694 0.97256 0.0
H231 H 0.8934 0.6077 0.74222 0.0
H232 H 0.88318 0.58554 0.72052 0.0
C233 C 0.88177 0.59557 0.75421 0.0
H234 H 0.87087 0.59561 0.72279 0.0
H235 H 0.89795 0.63799 0.77491 0.0
O236 O 0.86035 0.59075 0.20324 0.0
C237 C 0.88024 0.63701 0.05957 0.0
Co238 Co 0.40238 0.26052 0.07297 0.0
Co239 Co 0.38361 0.25012 0.88648 0.0
C240 C 0.40236 0.2335 0.96669 0.0
O241 O 0.40825 0.2435 0.0341 0.0
O242 O 0.39263 0.23473 0.9092 0.0
C243 C 0.40966 0.25743 0.25147 0.0
O244 O 0.40797 0.2435 0.21678 0.0
C245 C 0.38826 0.24813 0.69462 0.0
C246 C 0.36642 0.24801 0.63086 0.0
C247 C 0.38152 0.24871 0.61114 0.0
N248 N 0.37778 0.24734 0.76071 0.0
N249 N 0.36456 0.24692 0.72242 0.0
C250 C 0.40549 0.25083 0.71258 0.0
H251 H 0.41004 0.25655 0.7808 0.0
H252 H 0.41451 0.25906 0.65976 0.0
H253 H 0.405 0.23853 0.71113 0.0
C254 C 0.41991 0.29411 0.9818 0.0
N255 N 0.40861 0.27754 0.98381 0.0
N256 N 0.40009 0.27321 0.90675 0.0
C257 C 0.40541 0.28701 0.85422 0.0
C258 C 0.41823 0.30067 0.89942 0.0
C259 C 0.4313 0.30347 0.05962 0.0
H260 H 0.42363 0.30351 0.11798 0.0
H261 H 0.43799 0.29685 0.0823 0.0
H262 H 0.4405 0.31661 0.04066 0.0
O263 O 0.37793 0.24933 0.09568 0.0
O264 O 0.3636 0.24302 0.96624 0.0
H265 H 0.38461 0.27934 0.76265 0.0
H266 H 0.40197 0.29997 0.73903 0.0
C267 C 0.39848 0.28716 0.76178 0.0
H268 H 0.40364 0.28202 0.71107 0.0
H269 H 0.35475 0.24682 0.75876 0.0
O270 O 0.41072 0.26875 0.19741 0.0
C271 C 0.36404 0.24333 0.05331 0.0
Co272 Co 0.74209 0.14413 0.07168 0.0
Co273 Co 0.7516 0.13453 0.88687 0.0
C274 C 0.76854 0.17043 0.96012 0.0
O275 O 0.75865 0.16677 0.02764 0.0
O276 O 0.76718 0.1591 0.90511 0.0
C277 C 0.74965 0.15259 0.24408 0.0
O278 O 0.76375 0.16045 0.19785 0.0
C279 C 0.75109 0.1388 0.69284 0.0
C280 C 0.75857 0.12132 0.63518 0.0
C281 C 0.75363 0.13282 0.61168 0.0
N282 N 0.75395 0.13093 0.76176 0.0
N283 N 0.75846 0.1205 0.72716 0.0
C284 C 0.74681 0.15239 0.70504 0.0
H285 H 0.75744 0.16446 0.68052 0.0
H286 H 0.74429 0.15366 0.77778 0.0
H287 H 0.73564 0.14967 0.66351 0.0
C288 C 0.70786 0.12745 0.98357 0.0
N289 N 0.72445 0.1327 0.98571 0.0
N290 N 0.72854 0.12778 0.91032 0.0
C291 C 0.71458 0.11863 0.85992 0.0
C292 C 0.70108 0.11835 0.90369 0.0
C293 C 0.69855 0.13036 0.05826 0.0
H294 H 0.68963 0.11816 0.09037 0.0
H295 H 0.70735 0.13897 0.11067 0.0
H296 H 0.69107 0.13572 0.02942 0.0
O297 O 0.7533 0.13076 0.09342 0.0
O298 O 0.75916 0.12199 0.96577 0.0
H299 H 0.72365 0.10625 0.77121 0.0
H300 H 0.70168 0.09914 0.75806 0.0
C301 C 0.71413 0.11027 0.77123 0.0
H302 H 0.71668 0.11919 0.71444 0.0
H303 H 0.76148 0.11287 0.76617 0.0
O304 O 0.73586 0.14547 0.19975 0.0
C305 C 0.75914 0.12261 0.05264 0.0
Co306 Co 0.5991 0.85839 0.92343 0.0
Co307 Co 0.61811 0.86694 0.10942 0.0
C308 C 0.59923 0.83149 0.03 0.0
O309 O 0.59323 0.8355 0.9626 0.0
O310 O 0.60902 0.84252 0.08694 0.0
C311 C 0.5921 0.84818 0.74479 0.0
O312 O 0.59397 0.83606 0.77966 0.0
C313 C 0.61347 0.86032 0.30144 0.0
C314 C 0.63537 0.88195 0.36516 0.0
C315 C 0.62022 0.86761 0.38494 0.0
N316 N 0.62397 0.86996 0.2353 0.0
N317 N 0.63724 0.88272 0.27359 0.0
C318 C 0.5962 0.84586 0.28353 0.0
H319 H 0.59168 0.84706 0.21526 0.0
H320 H 0.5872 0.84515 0.33631 0.0
H321 H 0.59662 0.83402 0.28517 0.0
C322 C 0.58164 0.8745 0.01533 0.0
N323 N 0.59298 0.86928 0.01271 0.0
N324 N 0.60165 0.87358 0.08929 0.0
C325 C 0.59641 0.88211 0.14198 0.0
C326 C 0.58346 0.88284 0.09753 0.0
C327 C 0.57004 0.87231 0.9383 0.0
H328 H 0.56392 0.85917 0.91332 0.0
H329 H 0.56038 0.87553 0.95908 0.0
H330 H 0.57748 0.88058 0.88097 0.0
O331 O 0.62353 0.87156 0.90031 0.0
O332 O 0.63807 0.87976 0.02905 0.0
H333 H 0.60019 0.89876 0.25634 0.0
H334 H 0.59832 0.87909 0.28525 0.0
C335 C 0.60351 0.88929 0.23396 0.0
H336 H 0.61736 0.89521 0.23255 0.0
H337 H 0.64708 0.89239 0.23724 0.0
O338 O 0.59081 0.85832 0.79875 0.0
C339 C 0.63749 0.87948 0.94198 0.0
Co340 Co 0.14289 0.74076 0.92168 0.0
Co341 Co 0.13429 0.75132 0.10724 0.0
C342 C 0.16981 0.76758 0.02892 0.0
O343 O 0.1658 0.75757 0.9616 0.0
O344 O 0.15875 0.76645 0.08528 0.0
C345 C 0.15301 0.74413 0.74314 0.0
O346 O 0.165 0.75817 0.77828 0.0
C347 C 0.14086 0.75326 0.29943 0.0
C348 C 0.1193 0.75368 0.3629 0.0
C349 C 0.1336 0.75279 0.38287 0.0
N350 N 0.13125 0.75416 0.23314 0.0
N351 N 0.11853 0.75475 0.27129 0.0
C352 C 0.15527 0.75035 0.28179 0.0
H353 H 0.15401 0.74454 0.21377 0.0
H354 H 0.15598 0.74212 0.33494 0.0
H355 H 0.16715 0.76259 0.28297 0.0
C356 C 0.12636 0.70716 0.01329 0.0
N357 N 0.13176 0.72376 0.0107 0.0
N358 N 0.12747 0.72817 0.08709 0.0
C359 C 0.11879 0.71441 0.13968 0.0
C360 C 0.11794 0.70069 0.09531 0.0
C361 C 0.12856 0.69772 0.93657 0.0
H362 H 0.12216 0.69881 0.87485 0.0
H363 H 0.14212 0.70353 0.92009 0.0
H364 H 0.12337 0.68426 0.9537 0.0
O365 O 0.12997 0.75225 0.8981 0.0
O366 O 0.12168 0.75867 0.02616 0.0
H367 H 0.10577 0.72238 0.22996 0.0
H368 H 0.10216 0.70165 0.25427 0.0
C369 C 0.11164 0.7144 0.23161 0.0
H370 H 0.12187 0.71943 0.28285 0.0
H371 H 0.10889 0.75498 0.23483 0.0
O372 O 0.14295 0.73259 0.79691 0.0
C373 C 0.12209 0.75839 0.93911 0.0
Co374 Co 0.26146 0.40363 0.90147 0.0
Co375 Co 0.2512 0.38515 0.08873 0.0
C376 C 0.23406 0.40318 0.00627 0.0
O377 O 0.24398 0.4091 0.93858 0.0
O378 O 0.23564 0.3938 0.06454 0.0
C379 C 0.25891 0.41174 0.72289 0.0
O380 O 0.24528 0.41085 0.75693 0.0
C381 C 0.24901 0.38983 0.28034 0.0
C382 C 0.24898 0.36807 0.34448 0.0
C383 C 0.24962 0.38315 0.36396 0.0
N384 N 0.2483 0.37936 0.21445 0.0
N385 N 0.24791 0.36617 0.25296 0.0
C386 C 0.25169 0.40704 0.26207 0.0
H387 H 0.25722 0.41147 0.19339 0.0
H388 H 0.26008 0.41613 0.31421 0.0
H389 H 0.2394 0.40657 0.26455 0.0
C390 C 0.29511 0.42148 0.99391 0.0
N391 N 0.27851 0.41019 0.99164 0.0
N392 N 0.27417 0.40176 0.06894 0.0
C393 C 0.28794 0.40711 0.12184 0.0
C394 C 0.30163 0.41987 0.07668 0.0
C395 C 0.30457 0.43271 0.9158 0.0
H396 H 0.30582 0.42505 0.8611 0.0
H397 H 0.29738 0.4384 0.88719 0.0
H398 H 0.31728 0.44268 0.93697 0.0
O399 O 0.25057 0.37912 0.87873 0.0
O400 O 0.24445 0.36523 0.00966 0.0
H401 H 0.28029 0.38632 0.21328 0.0
H402 H 0.30084 0.40373 0.23767 0.0
C403 C 0.28804 0.40018 0.21435 0.0
H404 H 0.28281 0.40529 0.26484 0.0
H405 H 0.24788 0.35637 0.21679 0.0
O406 O 0.26986 0.41209 0.77742 0.0
C407 C 0.24473 0.36539 0.92259 0.0
Co408 Co 0.81029 0.73595 0.25695 0.0
Co409 Co 0.80224 0.71743 0.44386 0.0
C410 C 0.8375 0.73616 0.36268 0.0
O411 O 0.83325 0.74192 0.29518 0.0
O412 O 0.82666 0.72652 0.42075 0.0
C413 C 0.82077 0.7437 0.07852 0.0
O414 O 0.83332 0.74251 0.11297 0.0
C415 C 0.8089 0.72217 0.63558 0.0
C416 C 0.7873 0.70024 0.69929 0.0
C417 C 0.80162 0.71541 0.71902 0.0
N418 N 0.79927 0.71165 0.56951 0.0
N419 N 0.78653 0.69837 0.60775 0.0
C420 C 0.82332 0.73946 0.61758 0.0
H421 H 0.82213 0.74391 0.54911 0.0
H422 H 0.82396 0.74846 0.67006 0.0
H423 H 0.8352 0.7391 0.61967 0.0
C424 C 0.79412 0.7534 0.34785 0.0
N425 N 0.79955 0.74222 0.34618 0.0
N426 N 0.79548 0.73379 0.42348 0.0
C427 C 0.78692 0.73904 0.47584 0.0
C428 C 0.78591 0.75173 0.43026 0.0
C429 C 0.79593 0.76463 0.26961 0.0
H430 H 0.80907 0.77098 0.2445 0.0
H431 H 0.79237 0.7741 0.28918 0.0
H432 H 0.78774 0.75687 0.21277 0.0
O433 O 0.79708 0.71147 0.23458 0.0
O434 O 0.78933 0.69737 0.36477 0.0
H435 H 0.77048 0.73553 0.59077 0.0
H436 H 0.79019 0.7374 0.61909 0.0
C437 C 0.77989 0.73214 0.56831 0.0
H438 H 0.77395 0.71828 0.56764 0.0
H439 H 0.77687 0.68851 0.57137 0.0
O440 O 0.81027 0.74429 0.13273 0.0
C441 C 0.78932 0.69765 0.2777 0.0
Co442 Co 0.26714 0.07474 0.25822 0.0
Co443 Co 0.28603 0.08544 0.44452 0.0
C444 C 0.26705 0.10178 0.36389 0.0
O445 O 0.26114 0.09169 0.29688 0.0
O446 O 0.27687 0.1007 0.42132 0.0
C447 C 0.25983 0.07778 0.0796 0.0
O448 O 0.26134 0.09163 0.11443 0.0
C449 C 0.28141 0.08755 0.63648 0.0
C450 C 0.30331 0.08778 0.70022 0.0
C451 C 0.28817 0.087 0.72 0.0
N452 N 0.2919 0.08837 0.57035 0.0
N453 N 0.30517 0.08887 0.60865 0.0
C454 C 0.26413 0.08472 0.61853 0.0
H455 H 0.25962 0.079 0.55029 0.0
H456 H 0.25514 0.07644 0.67131 0.0
H457 H 0.26454 0.09698 0.62006 0.0
C458 C 0.25 0.04118 0.35006 0.0
N459 N 0.2611 0.0578 0.34778 0.0
N460 N 0.26963 0.06228 0.42482 0.0
C461 C 0.26449 0.04854 0.47769 0.0
C462 C 0.2518 0.03475 0.43266 0.0
C463 C 0.23867 0.03166 0.27231 0.0
H464 H 0.24642 0.0328 0.21172 0.0
H465 H 0.23091 0.03737 0.25411 0.0
H466 H 0.23043 0.01819 0.28923 0.0
O467 O 0.29156 0.08605 0.23532 0.0
O468 O 0.30603 0.09257 0.36435 0.0
H469 H 0.2853 0.05644 0.56939 0.0
H470 H 0.26798 0.03586 0.59423 0.0
C471 C 0.27143 0.0486 0.5704 0.0
H472 H 0.26625 0.05381 0.62049 0.0
H473 H 0.315 0.08901 0.57231 0.0
O474 O 0.25886 0.06648 0.13359 0.0
C475 C 0.3055 0.09217 0.27728 0.0
Co476 Co 0.92701 0.19104 0.2603 0.0
Co477 Co 0.9163 0.19959 0.44573 0.0
C478 C 0.89984 0.16415 0.36602 0.0
O479 O 0.90995 0.16815 0.29917 0.0
O480 O 0.90101 0.17518 0.4227 0.0
C481 C 0.92379 0.18088 0.08146 0.0
O482 O 0.90984 0.16873 0.11636 0.0
C483 C 0.91421 0.19288 0.63791 0.0
C484 C 0.91388 0.21447 0.70161 0.0
C485 C 0.91473 0.20015 0.72146 0.0
N486 N 0.91333 0.20252 0.57171 0.0
N487 N 0.91278 0.21525 0.61002 0.0
C488 C 0.91708 0.17845 0.62003 0.0
H489 H 0.92276 0.17965 0.55172 0.0
H490 H 0.9254 0.17779 0.67274 0.0
H491 H 0.90483 0.16658 0.6218 0.0
C492 C 0.96049 0.20715 0.35397 0.0
N493 N 0.94392 0.20194 0.35034 0.0
N494 N 0.93945 0.20623 0.42654 0.0
C495 C 0.95314 0.21473 0.47996 0.0
C496 C 0.96688 0.21544 0.43646 0.0
C497 C 0.96999 0.2049 0.27774 0.0
H498 H 0.96959 0.21192 0.21703 0.0
H499 H 0.96374 0.19142 0.2586 0.0
H500 H 0.98326 0.20943 0.29673 0.0
O501 O 0.91575 0.20417 0.2367 0.0
O502 O 0.90923 0.21242 0.36456 0.0
H503 H 0.94509 0.22772 0.57003 0.0
H504 H 0.9658 0.23133 0.59491 0.0
C505 C 0.95307 0.22185 0.57189 0.0
H506 H 0.94804 0.21161 0.62303 0.0
H507 H 0.9126 0.22492 0.57368 0.0
O508 O 0.93524 0.19103 0.13545 0.0
C509 C 0.90964 0.2121 0.27752 0.0
Co510 Co 0.07048 0.47745 0.41154 0.0
Co511 Co 0.05194 0.46878 0.22465 0.0
C512 C 0.06995 0.50415 0.3048 0.0
O513 O 0.07591 0.50023 0.37268 0.0
O514 O 0.06048 0.49311 0.24704 0.0
C515 C 0.07796 0.48798 0.58997 0.0
O516 O 0.0762 0.5002 0.55567 0.0
C517 C 0.05668 0.47538 0.03303 0.0
C518 C 0.03502 0.45354 0.969 0.0
C519 C 0.05003 0.46806 0.94951 0.0
N520 N 0.04623 0.46561 0.09895 0.0
N521 N 0.03311 0.45272 0.06053 0.0
C522 C 0.07381 0.49005 0.05122 0.0
H523 H 0.07834 0.48897 0.11967 0.0
H524 H 0.08292 0.49095 -0.00129 0.0
H525 H 0.07313 0.50176 0.04936 0.0
C526 C 0.08856 0.46182 0.32197 0.0
N527 N 0.07713 0.46693 0.323 0.0
N528 N 0.06867 0.46258 0.24576 0.0
C529 C 0.07416 0.45414 0.19412 0.0
C530 C 0.08703 0.45351 0.2401 0.0
C531 C 0.09986 0.46393 0.40043 0.0
H532 H 0.09235 0.45493 0.45507 0.0
H533 H 0.10521 0.47679 0.4289 0.0
H534 H 0.11011 0.46157 0.37967 0.0
O535 O 0.04601 0.46379 0.43387 0.0
O536 O 0.03193 0.4556 0.30366 0.0
H537 H 0.05336 0.44056 0.10325 0.0
H538 H 0.0709 0.43748 0.08078 0.0
C539 C 0.06724 0.44675 0.10222 0.0
H540 H 0.07224 0.45691 0.05059 0.0
H541 H 0.02335 0.44294 0.09676 0.0
O542 O 0.07896 0.47772 0.53566 0.0
C543 C 0.03222 0.45572 0.39073 0.0
Co544 Co 0.52525 0.59353 0.40854 0.0
Co545 Co 0.5341 0.58339 0.22268 0.0
C546 C 0.49854 0.5666 0.30066 0.0
O547 O 0.50241 0.5765 0.36843 0.0
O548 O 0.50967 0.56797 0.24418 0.0
C549 C 0.51507 0.59003 0.58692 0.0
O550 O 0.50325 0.57588 0.55187 0.0
C551 C 0.52757 0.58144 0.03057 0.0
C552 C 0.54936 0.58144 0.96721 0.0
C553 C 0.53491 0.58204 0.94721 0.0
N554 N 0.53728 0.58073 0.09689 0.0
N555 N 0.55015 0.5804 0.05883 0.0
C556 C 0.51297 0.58404 0.04812 0.0
H557 H 0.51414 0.58983 0.11607 0.0
H558 H 0.51209 0.59215 0.99487 0.0
H559 H 0.50121 0.57168 0.04704 0.0
C560 C 0.54143 0.62722 0.31818 0.0
N561 N 0.53619 0.61066 0.32 0.0
N562 N 0.54058 0.60642 0.24333 0.0
C563 C 0.54913 0.62027 0.19123 0.0
C564 C 0.54983 0.63387 0.23632 0.0
C565 C 0.53918 0.63649 0.39568 0.0
H566 H 0.54654 0.63625 0.4552 0.0
H567 H 0.52577 0.62997 0.41633 0.0
H568 H 0.54338 0.64972 0.37735 0.0
O569 O 0.5385 0.58236 0.43194 0.0
O570 O 0.54693 0.57628 0.30331 0.0
H571 H 0.56249 0.61275 0.10064 0.0
H572 H 0.56564 0.63333 0.07666 0.0
C573 C 0.55636 0.6205 0.09921 0.0
H574 H 0.54612 0.6153 0.04802 0.0
H575 H 0.55988 0.58035 0.09534 0.0
O576 O 0.52501 0.60163 0.53311 0.0
C577 C 0.54655 0.57647 0.39037 0.0
Co578 Co 0.40726 0.93145 0.42011 0.0
Co579 Co 0.41798 0.9491 0.22918 0.0
C580 C 0.43469 0.93101 0.31535 0.0
O581 O 0.42501 0.92618 0.38466 0.0
O582 O 0.43328 0.9399 0.25281 0.0
C583 C 0.40754 0.92167 0.60079 0.0
O584 O 0.42049 0.92052 0.57272 0.0
C585 C 0.42461 0.9503 0.03379 0.0
C586 C 0.41104 0.96266 0.9814 0.0
C587 C 0.4182 0.95319 0.95403 0.0
N588 N 0.42022 0.95654 0.1048 0.0
N589 N 0.4128 0.96461 0.07263 0.0
C590 C 0.43555 0.94267 0.04338 0.0
H591 H 0.44559 0.95019 0.09333 0.0
H592 H 0.42803 0.92963 0.06936 0.0
H593 H 0.44165 0.94281 0.97781 0.0
C594 C 0.37384 0.91356 0.32928 0.0
N595 N 0.39046 0.92479 0.32939 0.0
N596 N 0.39497 0.93175 0.24809 0.0
C597 C 0.38133 0.92473 0.19314 0.0
C598 C 0.3675 0.91328 0.24276 0.0
C599 C 0.36428 0.90394 0.41171 0.0
H600 H 0.36657 0.91283 0.46848 0.0
H601 H 0.36903 0.89552 0.43378 0.0
H602 H 0.3506 0.89641 0.398 0.0
O603 O 0.41799 0.95562 0.44381 0.0
O604 O 0.42473 0.96896 0.31151 0.0
H605 H 0.38188 0.9397 0.08039 0.0
H606 H 0.37001 0.91754 0.05894 0.0
C607 C 0.38144 0.92761 0.0926 0.0
H608 H 0.3924 0.92768 0.06135 0.0
H609 H 0.4075 0.97004 0.11353 0.0
O610 O 0.39803 0.92287 0.54206 0.0
C611 C 0.42418 0.96916 0.39851 0.0
Co612 Co 0.52474 0.93115 0.42042 0.0
Co613 Co 0.53196 0.94936 0.23257 0.0
C614 C 0.49703 0.93058 0.31764 0.0
O615 O 0.5016 0.92519 0.38545 0.0
O616 O 0.5076 0.93998 0.25782 0.0
C617 C 0.51405 0.92181 0.59916 0.0
O618 O 0.50043 0.92104 0.56572 0.0
C619 C 0.52503 0.94427 0.0411 0.0
C620 C 0.54613 0.96654 0.97659 0.0
C621 C 0.53213 0.95109 0.95737 0.0
N622 N 0.5345 0.95503 0.10678 0.0
N623 N 0.54692 0.96851 0.06805 0.0
C624 C 0.51105 0.92678 0.05975 0.0
H625 H 0.51222 0.9227 0.12927 0.0
H626 H 0.51102 0.91782 0.0089 0.0
H627 H 0.49888 0.92654 0.05518 0.0
C628 C 0.54086 0.91383 0.32684 0.0
N629 N 0.53524 0.92486 0.32942 0.0
N630 N 0.53905 0.93326 0.25205 0.0
C631 C 0.54765 0.92817 0.19886 0.0
C632 C 0.54894 0.91559 0.24383 0.0
C633 C 0.53944 0.90271 0.40489 0.0
H634 H 0.54831 0.9105 0.45946 0.0
H635 H 0.52657 0.89677 0.43374 0.0
H636 H 0.54245 0.89293 0.3836 0.0
O637 O 0.53794 0.95569 0.44187 0.0
O638 O 0.54492 0.96953 0.31071 0.0
H639 H 0.56004 0.94901 0.10685 0.0
H640 H 0.56431 0.93229 0.0841 0.0
C641 C 0.55456 0.93521 0.10637 0.0
H642 H 0.54429 0.92959 0.05548 0.0
H643 H 0.55642 0.97857 0.10405 0.0
O644 O 0.52525 0.92288 0.54421 0.0
C645 C 0.54535 0.96943 0.39773 0.0
Co646 Co 0.06859 0.59303 0.41234 0.0
Co647 Co 0.04994 0.58266 0.22566 0.0
C648 C 0.06875 0.56611 0.30585 0.0
O649 O 0.07455 0.57604 0.37362 0.0
O650 O 0.05906 0.56736 0.24825 0.0
C651 C 0.07618 0.59016 0.59089 0.0
O652 O 0.07475 0.57632 0.55648 0.0
C653 C 0.05472 0.58078 0.03396 0.0
C654 C 0.03281 0.58048 0.96991 0.0
C655 C 0.04798 0.58131 0.9504 0.0
N656 N 0.04418 0.57989 0.09989 0.0
N657 N 0.03091 0.57937 0.06144 0.0
C658 C 0.072 0.58362 0.05214 0.0
H659 H 0.07647 0.58931 0.12048 0.0
H660 H 0.08101 0.59193 -0.00049 0.0
H661 H 0.07162 0.57137 0.0505 0.0
C662 C 0.08607 0.62667 0.32134 0.0
N663 N 0.07484 0.61008 0.32323 0.0
N664 N 0.06634 0.60574 0.24613 0.0
C665 C 0.07158 0.61955 0.19373 0.0
C666 C 0.08435 0.63323 0.23902 0.0
C667 C 0.09741 0.63607 0.39925 0.0
H668 H 0.08978 0.63693 0.45544 0.0
H669 H 0.10343 0.62904 0.42564 0.0
H670 H 0.10714 0.64893 0.37878 0.0
O671 O 0.0441 0.58178 0.43498 0.0
O672 O 0.0299 0.5755 0.30507 0.0
H673 H 0.05075 0.61178 0.10232 0.0
H674 H 0.06799 0.63249 0.07898 0.0
C675 C 0.06461 0.61969 0.10142 0.0
H676 H 0.06984 0.61466 0.05046 0.0
H677 H 0.02104 0.57918 0.09765 0.0
O678 O 0.07696 0.60134 0.53662 0.0
C679 C 0.03025 0.57577 0.39215 0.0
Co680 Co 0.40867 0.47719 0.40081 0.0
Co681 Co 0.4194 0.46882 0.21501 0.0
C682 C 0.43591 0.50416 0.29571 0.0
O683 O 0.4258 0.50009 0.36254 0.0
O684 O 0.43474 0.4932 0.23851 0.0
C685 C 0.41169 0.48745 0.57966 0.0
O686 O 0.42553 0.4998 0.54498 0.0
C687 C 0.42149 0.47557 0.02298 0.0
C688 C 0.42183 0.45398 0.95922 0.0
C689 C 0.42096 0.46829 0.93943 0.0
N690 N 0.42238 0.46593 0.08912 0.0
N691 N 0.42294 0.4532 0.0508 0.0
C692 C 0.41862 0.48998 0.04095 0.0
H693 H 0.413 0.48881 0.10942 0.0
H694 H 0.41023 0.49061 0.98847 0.0
H695 H 0.43085 0.50186 0.03883 0.0
C696 C 0.37522 0.46123 0.30699 0.0
N697 N 0.39178 0.46643 0.31054 0.0
N698 N 0.39627 0.46221 0.23413 0.0
C699 C 0.38258 0.45375 0.18068 0.0
C700 C 0.36884 0.45299 0.22438 0.0
C701 C 0.36567 0.46327 0.38367 0.0
H702 H 0.37315 0.47599 0.41378 0.0
H703 H 0.35328 0.46118 0.36053 0.0
H704 H 0.36367 0.454 0.43783 0.0
O705 O 0.41986 0.46395 0.42404 0.0
O706 O 0.42639 0.45588 0.29561 0.0
H707 H 0.36988 0.43712 0.0659 0.0
H708 H 0.38764 0.45683 0.03756 0.0
C709 C 0.38262 0.44661 0.08876 0.0
H710 H 0.3906 0.44074 0.09056 0.0
H711 H 0.42312 0.44353 0.08712 0.0
O712 O 0.40038 0.47715 0.52552 0.0
C713 C 0.42594 0.45606 0.38266 0.0
Co714 Co 0.26477 0.18998 0.25082 0.0
Co715 Co 0.28365 0.19934 0.43692 0.0
C716 C 0.26588 0.16376 0.35886 0.0
O717 O 0.2597 0.16739 0.29074 0.0
O718 O 0.27536 0.17501 0.41573 0.0
C719 C 0.25816 0.17975 0.07233 0.0
O720 O 0.26088 0.16815 0.1069 0.0
C721 C 0.27894 0.19297 0.62876 0.0
C722 C 0.30052 0.21491 0.69259 0.0
C723 C 0.28557 0.20034 0.71221 0.0
N724 N 0.28936 0.20274 0.56272 0.0
N725 N 0.30241 0.21572 0.60103 0.0
C726 C 0.2619 0.17816 0.61083 0.0
H727 H 0.25728 0.17914 0.54245 0.0
H728 H 0.25277 0.17715 0.66352 0.0
H729 H 0.26276 0.16654 0.61269 0.0
C730 C 0.2461 0.20494 0.34124 0.0
N731 N 0.25793 0.20035 0.33923 0.0
N732 N 0.26661 0.20508 0.41573 0.0
C733 C 0.26088 0.21329 0.46756 0.0
C734 C 0.24758 0.21324 0.42294 0.0
C735 C 0.23431 0.20223 0.26441 0.0
H736 H 0.24086 0.21237 0.21329 0.0
H737 H 0.23052 0.19006 0.23041 0.0
H738 H 0.22305 0.20255 0.2891 0.0
O739 O 0.28919 0.20391 0.2279 0.0
O740 O 0.30353 0.21261 0.35705 0.0
H741 H 0.28213 0.22766 0.55457 0.0
H742 H 0.26473 0.23108 0.57504 0.0
C743 C 0.26826 0.22154 0.55717 0.0
H744 H 0.26344 0.21192 0.6118 0.0
H745 H 0.31215 0.22551 0.56471 0.0
O746 O 0.25627 0.1895 0.12647 0.0
C747 C 0.30305 0.21226 0.27 0.0
Co748 Co 0.81035 0.07493 0.25565 0.0
Co749 Co 0.80163 0.08519 0.4415 0.0
C750 C 0.83717 0.10177 0.36332 0.0
O751 O 0.83323 0.09184 0.29565 0.0
O752 O 0.82608 0.10049 0.41988 0.0
C753 C 0.82048 0.07837 0.07724 0.0
O754 O 0.83236 0.09249 0.11231 0.0
C755 C 0.80812 0.08709 0.6336 0.0
C756 C 0.78642 0.08728 0.69687 0.0
C757 C 0.80081 0.08656 0.71693 0.0
N758 N 0.79847 0.08789 0.56725 0.0
N759 N 0.78566 0.08834 0.60525 0.0
C760 C 0.82265 0.08436 0.6161 0.0
H761 H 0.82144 0.07855 0.54814 0.0
H762 H 0.82346 0.07621 0.66936 0.0
H763 H 0.83445 0.09667 0.61719 0.0
C764 C 0.79398 0.04123 0.34598 0.0
N765 N 0.79931 0.05782 0.34416 0.0
N766 N 0.79497 0.0621 0.42082 0.0
C767 C 0.78634 0.04826 0.47289 0.0
C768 C 0.78556 0.03462 0.42782 0.0
C769 C 0.79618 0.03193 0.26854 0.0
H770 H 0.78925 0.03261 0.20811 0.0
H771 H 0.80967 0.03813 0.24973 0.0
H772 H 0.79152 0.01857 0.28605 0.0
O773 O 0.79724 0.08625 0.23244 0.0
O774 O 0.78893 0.09247 0.361 0.0
H775 H 0.77313 0.05593 0.56362 0.0
H776 H 0.7698 0.03528 0.58744 0.0
C777 C 0.77916 0.04809 0.56496 0.0
H778 H 0.78939 0.05321 0.61612 0.0
H779 H 0.77598 0.08847 0.56869 0.0
O780 O 0.8105 0.0668 0.13103 0.0
C781 C 0.7893 0.09226 0.27396 0.0
Co782 Co 0.92741 0.73707 0.24995 0.0
Co783 Co 0.91752 0.71843 0.43669 0.0
C784 C 0.90033 0.73669 0.35792 0.0
O785 O 0.91014 0.74261 0.28973 0.0
O786 O 0.90188 0.72714 0.4152 0.0
C787 C 0.92396 0.744 0.0718 0.0
O788 O 0.9098 0.7417 0.10665 0.0
C789 C 0.91548 0.72291 0.62859 0.0
C790 C 0.91582 0.70128 0.69196 0.0
C791 C 0.91617 0.71621 0.71192 0.0
N792 N 0.91493 0.71258 0.56231 0.0
N793 N 0.9148 0.69947 0.60035 0.0
C794 C 0.91786 0.74002 0.61102 0.0
H795 H 0.92365 0.74472 0.54312 0.0
H796 H 0.9259 0.74906 0.66432 0.0
H797 H 0.90543 0.73926 0.61197 0.0
C798 C 0.96122 0.75479 0.33951 0.0
N799 N 0.94463 0.74352 0.33847 0.0
N800 N 0.94047 0.73509 0.41578 0.0
C801 C 0.95437 0.74047 0.46759 0.0
C802 C 0.96794 0.7532 0.42156 0.0
C803 C 0.97046 0.766 0.26091 0.0
H804 H 0.9708 0.75822 0.20392 0.0
H805 H 0.96359 0.77231 0.2363 0.0
H806 H 0.98351 0.7755 0.27989 0.0
O807 O 0.91652 0.71263 0.22641 0.0
O808 O 0.9106 0.69854 0.35655 0.0
H809 H 0.94716 0.71972 0.55879 0.0
H810 H 0.96758 0.73742 0.58292 0.0
C811 C 0.95469 0.73361 0.55994 0.0
H812 H 0.94929 0.7385 0.61066 0.0
H813 H 0.91491 0.68979 0.56383 0.0
O814 O 0.93551 0.74556 0.12572 0.0
C815 C 0.91077 0.69884 0.26946 0.0
Co816 Co 0.47605 0.06948 0.58029 0.0
Co817 Co 0.46917 0.05184 0.77127 0.0
C818 C 0.50395 0.06996 0.6854 0.0
O819 O 0.49908 0.07476 0.61599 0.0
O820 O 0.49366 0.06106 0.74791 0.0
C821 C 0.48611 0.07921 0.39964 0.0
O822 O 0.50019 0.08035 0.42794 0.0
C823 C 0.47456 0.05054 0.96671 0.0
C824 C 0.44862 0.03827 0.01879 0.0
C825 C 0.46526 0.04767 0.04637 0.0
N826 N 0.46394 0.04436 0.89557 0.0
N827 N 0.44844 0.03635 0.92756 0.0
C828 C 0.49312 0.05813 0.95732 0.0
H829 H 0.49564 0.05063 0.90722 0.0
H830 H 0.49867 0.07119 0.93159 0.0
H831 H 0.49906 0.05793 0.02292 0.0
C832 C 0.46054 0.08738 0.67117 0.0
N833 N 0.4659 0.07613 0.67094 0.0
N834 N 0.46351 0.06919 0.7523 0.0
C835 C 0.45699 0.07627 0.80743 0.0
C836 C 0.45459 0.08773 0.75785 0.0
C837 C 0.46058 0.09701 0.58878 0.0
H838 H 0.45426 0.08817 0.53142 0.0
H839 H 0.47375 0.10568 0.56788 0.0
H840 H 0.45414 0.10428 0.60207 0.0
O841 O 0.46265 0.04531 0.55653 0.0
O842 O 0.45608 0.03197 0.68883 0.0
H843 H 0.44277 0.06152 0.92118 0.0
H844 H 0.45329 0.08371 0.94183 0.0
C845 C 0.45446 0.07354 0.90817 0.0
H846 H 0.46536 0.0734 0.93875 0.0
H847 H 0.43772 0.03099 0.88652 0.0
O848 O 0.4754 0.07805 0.45822 0.0
C849 C 0.45533 0.03177 0.60184 0.0
Co850 Co 0.93233 0.40726 0.58172 0.0
Co851 Co 0.95087 0.4177 0.7687 0.0
C852 C 0.93207 0.43418 0.68771 0.0
O853 O 0.92635 0.42427 0.61987 0.0
O854 O 0.94171 0.43294 0.74567 0.0
C855 C 0.92434 0.40982 0.40308 0.0
O856 O 0.92529 0.42347 0.43719 0.0
C857 C 0.94601 0.41956 0.96026 0.0
C858 C 0.96801 0.42007 0.02454 0.0
C859 C 0.95277 0.4191 0.0439 0.0
N860 N 0.95661 0.42052 0.89445 0.0
N861 N 0.96992 0.42118 0.93303 0.0
C862 C 0.92868 0.41656 0.94189 0.0
H863 H 0.9243 0.41095 0.87332 0.0
H864 H 0.91968 0.40813 0.99417 0.0
H865 H 0.92893 0.42875 0.94402 0.0
C866 C 0.91492 0.37363 0.67281 0.0
N867 N 0.92608 0.39024 0.67103 0.0
N868 N 0.93455 0.3946 0.74826 0.0
C869 C 0.92933 0.3808 0.80067 0.0
C870 C 0.91663 0.3671 0.75521 0.0
C871 C 0.90367 0.3642 0.59464 0.0
H872 H 0.9114 0.36353 0.5384 0.0
H873 H 0.8975 0.37111 0.56849 0.0
H874 H 0.89406 0.35127 0.61473 0.0
O875 O 0.95683 0.41854 0.55939 0.0
O876 O 0.97094 0.4249 0.68964 0.0
H877 H 0.95013 0.38869 0.89246 0.0
H878 H 0.93297 0.36792 0.91557 0.0
C879 C 0.93628 0.3807 0.89312 0.0
H880 H 0.93097 0.38567 0.94395 0.0
H881 H 0.97984 0.42146 0.89692 0.0
O882 O 0.92397 0.39886 0.45756 0.0
C883 C 0.97065 0.42459 0.60258 0.0
Co884 Co 0.59398 0.52485 0.59197 0.0
Co885 Co 0.58348 0.53335 0.77791 0.0
C886 C 0.56681 0.49795 0.69786 0.0
O887 O 0.57687 0.50198 0.63078 0.0
O888 O 0.56806 0.50895 0.75499 0.0
C889 C 0.59079 0.51458 0.41335 0.0
O890 O 0.57682 0.50242 0.44813 0.0
C891 C 0.58142 0.52668 0.96993 0.0
C892 C 0.58129 0.54838 0.03353 0.0
C893 C 0.582 0.53399 0.0534 0.0
N894 N 0.58063 0.53636 0.90373 0.0
N895 N 0.5802 0.54916 0.94195 0.0
C896 C 0.58415 0.51216 0.95211 0.0
H897 H 0.58983 0.51332 0.88384 0.0
H898 H 0.59241 0.51141 0.0049 0.0
H899 H 0.57185 0.50035 0.95378 0.0
C900 C 0.62753 0.54089 0.68425 0.0
N901 N 0.61096 0.53565 0.68154 0.0
N902 N 0.60658 0.5399 0.7582 0.0
C903 C 0.62035 0.54839 0.81109 0.0
C904 C 0.63403 0.54915 0.76665 0.0
C905 C 0.63694 0.53873 0.60718 0.0
H906 H 0.63641 0.54577 0.54689 0.0
H907 H 0.63071 0.52528 0.58777 0.0
H908 H 0.65026 0.54331 0.62541 0.0
O909 O 0.58283 0.53813 0.56876 0.0
O910 O 0.57647 0.54629 0.69748 0.0
H911 H 0.61256 0.5615 0.90186 0.0
H912 H 0.6332 0.56486 0.92619 0.0
C913 C 0.62041 0.55549 0.90327 0.0
H914 H 0.61529 0.54522 0.95419 0.0
H915 H 0.5801 0.55887 0.90555 0.0
O916 O 0.60219 0.52476 0.46737 0.0
C917 C 0.57683 0.54607 0.61043 0.0
Co918 Co 0.73632 0.8102 0.74231 0.0
Co919 Co 0.71741 0.80152 0.55617 0.0
C920 C 0.73618 0.83702 0.63494 0.0
O921 O 0.74218 0.83306 0.70257 0.0
O922 O 0.72643 0.82595 0.57806 0.0
C923 C 0.74315 0.8204 0.92073 0.0
O924 O 0.74098 0.83233 0.88576 0.0
C925 C 0.72202 0.80804 0.36416 0.0
C926 C 0.70019 0.78631 0.30064 0.0
C927 C 0.71527 0.80071 0.28076 0.0
N928 N 0.71157 0.79837 0.43038 0.0
N929 N 0.69835 0.78554 0.39222 0.0
C930 C 0.73924 0.82259 0.3819 0.0
H931 H 0.74384 0.82141 0.44999 0.0
H932 H 0.74824 0.82341 0.32885 0.0
H933 H 0.7387 0.83437 0.38064 0.0
C934 C 0.75373 0.79391 0.65216 0.0
N935 N 0.74249 0.79926 0.65375 0.0
N936 N 0.7339 0.79494 0.57692 0.0
C937 C 0.73913 0.78631 0.52496 0.0
C938 C 0.75195 0.7855 0.5703 0.0
C939 C 0.76517 0.79603 0.72994 0.0
H940 H 0.75752 0.78842 0.78867 0.0
H941 H 0.7719 0.80936 0.75194 0.0
H942 H 0.77433 0.79201 0.71126 0.0
O943 O 0.71189 0.797 0.76536 0.0
O944 O 0.69744 0.78871 0.63638 0.0
H945 H 0.71823 0.77302 0.4343 0.0
H946 H 0.73559 0.76973 0.41064 0.0
C947 C 0.7321 0.77908 0.43295 0.0
H948 H 0.73717 0.78929 0.38169 0.0
H949 H 0.68855 0.77584 0.42867 0.0
O950 O 0.74465 0.81037 0.86688 0.0
C951 C 0.69797 0.78902 0.72345 0.0
Co952 Co 0.19236 0.92602 0.74106 0.0
Co953 Co 0.20191 0.91653 0.55613 0.0
C954 C 0.16596 0.89986 0.62847 0.0
O955 O 0.16968 0.90966 0.69646 0.0
O956 O 0.17728 0.90115 0.57358 0.0
C957 C 0.18378 0.91841 0.91338 0.0
O958 O 0.17589 0.90432 0.86707 0.0
C959 C 0.19769 0.91713 0.36214 0.0
C960 C 0.21498 0.9094 0.30445 0.0
C961 C 0.20357 0.91446 0.28098 0.0
N962 N 0.20552 0.91421 0.43104 0.0
N963 N 0.21584 0.90955 0.39643 0.0
C964 C 0.18419 0.92154 0.37439 0.0
H965 H 0.18306 0.92423 0.44702 0.0
H966 H 0.1869 0.93264 0.33223 0.0
H967 H 0.17205 0.9109 0.35069 0.0
C968 C 0.20937 0.96033 0.65389 0.0
N969 N 0.20398 0.94372 0.65568 0.0
N970 N 0.20888 0.93961 0.58023 0.0
C971 C 0.21813 0.95359 0.53015 0.0
C972 C 0.21851 0.96711 0.57422 0.0
C973 C 0.20633 0.96966 0.72799 0.0
H974 H 0.20032 0.96145 0.78794 0.0
H975 H 0.19804 0.97427 0.7017 0.0
H976 H 0.2184 0.9808 0.74839 0.0
O977 O 0.20556 0.91462 0.76272 0.0
O978 O 0.21427 0.90873 0.63489 0.0
H979 H 0.23037 0.94443 0.44099 0.0
H980 H 0.23758 0.96641 0.42797 0.0
C981 C 0.22642 0.954 0.44127 0.0
H982 H 0.21746 0.95149 0.38467 0.0
H983 H 0.2234 0.90644 0.43543 0.0
O984 O 0.19099 0.93219 0.86913 0.0
C985 C 0.21364 0.9087 0.72175 0.0
Co986 Co 0.07417 0.264 0.76018 0.0
Co987 Co 0.08456 0.28249 0.57289 0.0
C988 C 0.10136 0.26407 0.65446 0.0
O989 O 0.09158 0.25842 0.72291 0.0
O990 O 0.09984 0.27346 0.59599 0.0
C991 C 0.07661 0.25581 0.93875 0.0
O992 O 0.09021 0.25661 0.90481 0.0
C993 C 0.08651 0.27771 0.3812 0.0
C994 C 0.08705 0.29971 0.31706 0.0
C995 C 0.08608 0.28448 0.29759 0.0
N996 N 0.08746 0.28828 0.44712 0.0
N997 N 0.08813 0.3016 0.4086 0.0
C998 C 0.08346 0.26035 0.39936 0.0
H999 H 0.07802 0.25603 0.46829 0.0
H1000 H 0.07484 0.25136 0.34755 0.0
H1001 H 0.09559 0.2605 0.39596 0.0
C1002 C 0.04052 0.24638 0.66758 0.0
N1003 N 0.05714 0.25758 0.66997 0.0
N1004 N 0.06153 0.26608 0.59288 0.0
C1005 C 0.04777 0.26088 0.54007 0.0
C1006 C 0.03404 0.24813 0.58499 0.0
C1007 C 0.031 0.23511 0.74541 0.0
H1008 H 0.02956 0.2427 0.79976 0.0
H1009 H 0.03824 0.22951 0.77467 0.0
H1010 H 0.01836 0.22505 0.7237 0.0
O1011 O 0.08512 0.28849 0.78332 0.0
O1012 O 0.09162 0.30245 0.65252 0.0
H1013 H 0.0557 0.28178 0.4491 0.0
H1014 H 0.03495 0.26467 0.42528 0.0
C1015 C 0.04772 0.26794 0.4479 0.0
H1016 H 0.05268 0.26268 0.39681 0.0
H1017 H 0.08839 0.31151 0.44476 0.0
O1018 O 0.06571 0.25553 0.88412 0.0
C1019 C 0.09117 0.30225 0.7396 0.0
Co1020 Co 0.19248 0.26524 0.74171 0.0
Co1021 Co 0.19884 0.28268 0.55072 0.0
C1022 C 0.16431 0.26482 0.64075 0.0
O1023 O 0.16939 0.25997 0.70904 0.0
O1024 O 0.1744 0.27363 0.57725 0.0
C1025 C 0.18253 0.25468 0.92234 0.0
O1026 O 0.16796 0.25243 0.89471 0.0
C1027 C 0.19297 0.28313 0.35537 0.0
C1028 C 0.21887 0.29661 0.30247 0.0
C1029 C 0.20229 0.28641 0.27549 0.0
N1030 N 0.20359 0.2899 0.42607 0.0
N1031 N 0.21902 0.29859 0.39361 0.0
C1032 C 0.17433 0.27449 0.3655 0.0
H1033 H 0.17129 0.28172 0.41459 0.0
H1034 H 0.16959 0.26165 0.39292 0.0
H1035 H 0.16805 0.27401 0.29996 0.0
C1036 C 0.20762 0.24717 0.64985 0.0
N1037 N 0.20223 0.2584 0.65019 0.0
N1038 N 0.20464 0.26539 0.56901 0.0
C1039 C 0.21134 0.25846 0.51398 0.0
C1040 C 0.21368 0.24695 0.56336 0.0
C1041 C 0.20768 0.23761 0.73232 0.0
H1042 H 0.21481 0.24658 0.7879 0.0
H1043 H 0.19459 0.22959 0.75662 0.0
H1044 H 0.21338 0.2297 0.71778 0.0
O1045 O 0.20602 0.28947 0.76361 0.0
O1046 O 0.21232 0.30273 0.6311 0.0
H1047 H 0.22573 0.27417 0.40335 0.0
H1048 H 0.21659 0.25213 0.38008 0.0
C1049 C 0.21445 0.2617 0.41387 0.0
H1050 H 0.20338 0.26121 0.38137 0.0
H1051 H 0.22977 0.30454 0.43431 0.0
O1052 O 0.19353 0.2568 0.86338 0.0
C1053 C 0.21329 0.30299 0.71799 0.0
Co1054 Co 0.73651 0.92667 0.74101 0.0
Co1055 Co 0.71755 0.91637 0.55494 0.0
C1056 C 0.73627 0.89961 0.6342 0.0
O1057 O 0.74229 0.9096 0.70163 0.0
O1058 O 0.72652 0.90092 0.57723 0.0
C1059 C 0.74342 0.92334 0.91956 0.0
O1060 O 0.74136 0.90928 0.88471 0.0
C1061 C 0.72216 0.91442 0.36294 0.0
C1062 C 0.70034 0.91433 0.29924 0.0
C1063 C 0.71543 0.915 0.27946 0.0
N1064 N 0.7117 0.91365 0.42909 0.0
N1065 N 0.69849 0.91326 0.39083 0.0
C1066 C 0.73939 0.91709 0.3808 0.0
H1067 H 0.74395 0.92282 0.44897 0.0
H1068 H 0.7484 0.9253 0.32788 0.0
H1069 H 0.73886 0.90477 0.3794 0.0
C1070 C 0.75391 0.96033 0.65025 0.0
N1071 N 0.74268 0.94373 0.65208 0.0
N1072 N 0.73408 0.93943 0.57529 0.0
C1073 C 0.73928 0.95326 0.52313 0.0
C1074 C 0.75211 0.96692 0.56829 0.0
C1075 C 0.76531 0.96969 0.72806 0.0
H1076 H 0.75769 0.97032 0.78503 0.0
H1077 H 0.77151 0.96275 0.75318 0.0
H1078 H 0.77489 0.98263 0.70801 0.0
O1079 O 0.71209 0.91553 0.76409 0.0
O1080 O 0.69759 0.90931 0.63526 0.0
H1081 H 0.71834 0.94564 0.43277 0.0
H1082 H 0.73569 0.96626 0.40868 0.0
C1083 C 0.7322 0.95344 0.43119 0.0
H1084 H 0.73725 0.94827 0.37993 0.0
H1085 H 0.68868 0.91316 0.42719 0.0
O1086 O 0.74483 0.93483 0.86559 0.0
C1087 C 0.69815 0.90959 0.72233 0.0
Co1088 Co 0.07605 0.81097 0.73339 0.0
Co1089 Co 0.0862 0.80198 0.5478 0.0
C1090 C 0.10324 0.83754 0.62596 0.0
O1091 O 0.09325 0.83372 0.69327 0.0
O1092 O 0.10185 0.82638 0.56953 0.0
C1093 C 0.0797 0.82109 0.91187 0.0
O1094 O 0.09392 0.83277 0.87674 0.0
C1095 C 0.08824 0.80851 0.35562 0.0
C1096 C 0.08798 0.7866 0.29227 0.0
C1097 C 0.08754 0.80113 0.27223 0.0
N1098 N 0.08886 0.79876 0.42196 0.0
N1099 N 0.08903 0.78581 0.38389 0.0
C1100 C 0.08583 0.82322 0.3732 0.0
H1101 H 0.08003 0.82211 0.44111 0.0
H1102 H 0.07778 0.82421 0.3199 0.0
H1103 H 0.09825 0.8349 0.37228 0.0
C1104 C 0.04241 0.795 0.64249 0.0
N1105 N 0.05896 0.80015 0.64457 0.0
N1106 N 0.06319 0.79572 0.568 0.0
C1107 C 0.04934 0.78723 0.51573 0.0
C1108 C 0.03576 0.78662 0.56058 0.0
C1109 C 0.03315 0.79726 0.71997 0.0
H1110 H 0.03297 0.78952 0.7786 0.0
H1111 H 0.03993 0.81057 0.74236 0.0
H1112 H 0.02005 0.79349 0.70079 0.0
O1113 O 0.08698 0.79753 0.75699 0.0
O1114 O 0.09308 0.78898 0.62886 0.0
H1115 H 0.05673 0.77369 0.42572 0.0
H1116 H 0.03623 0.77072 0.4012 0.0
C1117 C 0.04909 0.77992 0.42389 0.0
H1118 H 0.05439 0.79013 0.3726 0.0
H1119 H 0.08897 0.77603 0.4204 0.0
O1120 O 0.06801 0.81128 0.85809 0.0
C1121 C 0.0928 0.78937 0.71591 0.0
Co1122 Co 0.9305 0.52312 0.5847 0.0
Co1123 Co 0.94917 0.53146 0.77152 0.0
C1124 C 0.93107 0.49623 0.68921 0.0
O1125 O 0.92517 0.50028 0.62147 0.0
O1126 O 0.94049 0.50716 0.74759 0.0
C1127 C 0.92179 0.51246 0.40564 0.0
O1128 O 0.92212 0.49935 0.43866 0.0
C1129 C 0.94383 0.52472 0.96282 0.0
C1130 C 0.96591 0.54587 0.02839 0.0
C1131 C 0.95049 0.53176 0.04689 0.0
N1132 N 0.95466 0.53426 0.89763 0.0
N1133 N 0.96801 0.54674 0.937 0.0
C1134 C 0.92647 0.51055 0.94341 0.0
H1135 H 0.92243 0.51164 0.87363 0.0
H1136 H 0.91735 0.51035 0.9938 0.0
H1137 H 0.92644 0.4985 0.94811 0.0
C1138 C 0.91223 0.53824 0.678 0.0
N1139 N 0.92383 0.53334 0.67495 0.0
N1140 N 0.9325 0.53775 0.7515 0.0
C1141 C 0.92703 0.54606 0.80434 0.0
C1142 C 0.91386 0.54637 0.76047 0.0
C1143 C 0.90055 0.536 0.60141 0.0
H1144 H 0.8965 0.52386 0.56644 0.0
H1145 H 0.88945 0.53655 0.62661 0.0
H1146 H 0.9073 0.54623 0.55098 0.0
O1147 O 0.95501 0.53683 0.56267 0.0
O1148 O 0.9692 0.54472 0.69267 0.0
H1149 H 0.93181 0.5643 0.9106 0.0
H1150 H 0.92932 0.54471 0.94887 0.0
C1151 C 0.93464 0.55422 0.89378 0.0
H1152 H 0.94844 0.55966 0.89162 0.0
H1153 H 0.97812 0.55629 0.90148 0.0
O1154 O 0.92203 0.52323 0.46093 0.0
C1155 C 0.96884 0.54478 0.6056 0.0
Co1156 Co 0.47739 0.40863 0.5863 0.0
Co1157 Co 0.46857 0.41887 0.77202 0.0
C1158 C 0.50414 0.43555 0.69405 0.0
O1159 O 0.50024 0.42561 0.62642 0.0
O1160 O 0.49301 0.43423 0.75046 0.0
C1161 C 0.48753 0.4121 0.40787 0.0
O1162 O 0.49937 0.42623 0.44293 0.0
C1163 C 0.47509 0.42077 0.96417 0.0
C1164 C 0.45336 0.42089 0.02757 0.0
C1165 C 0.46777 0.42021 0.04755 0.0
N1166 N 0.46541 0.42155 0.89786 0.0
N1167 N 0.45259 0.42196 0.93596 0.0
C1168 C 0.48963 0.41808 0.94657 0.0
H1169 H 0.48844 0.41229 0.87856 0.0
H1170 H 0.49046 0.40992 -0.00025 0.0
H1171 H 0.50142 0.4304 0.94772 0.0
C1172 C 0.46098 0.37493 0.67667 0.0
N1173 N 0.46637 0.39152 0.67489 0.0
N1174 N 0.462 0.39581 0.75147 0.0
C1175 C 0.45332 0.38197 0.80344 0.0
C1176 C 0.45251 0.36832 0.75839 0.0
C1177 C 0.4631 0.36558 0.59912 0.0
H1178 H 0.4554 0.36551 0.54051 0.0
H1179 H 0.47642 0.37223 0.57676 0.0
H1180 H 0.45918 0.35245 0.61823 0.0
O1181 O 0.46421 0.41985 0.56281 0.0
O1182 O 0.45579 0.42602 0.6912 0.0
H1183 H 0.43997 0.3896 0.8934 0.0
H1184 H 0.43667 0.36897 0.91762 0.0
C1185 C 0.44603 0.38179 0.8952 0.0
H1186 H 0.45622 0.38694 0.94667 0.0
H1187 H 0.44288 0.42206 0.89948 0.0
O1188 O 0.47758 0.4005 0.46168 0.0
C1189 C 0.45618 0.4258 0.60414 0.0
Co1190 Co 0.59389 0.06983 0.58173 0.0
Co1191 Co 0.58286 0.05167 0.76971 0.0
C1192 C 0.56671 0.07039 0.68405 0.0
O1193 O 0.57668 0.07577 0.61639 0.0
O1194 O 0.56786 0.061 0.74405 0.0
C1195 C 0.59252 0.07919 0.40296 0.0
O1196 O 0.57972 0.08003 0.43642 0.0
C1197 C 0.58082 0.05663 0.96119 0.0
C1198 C 0.57987 0.03444 0.02559 0.0
C1199 C 0.58116 0.04982 0.04491 0.0
N1200 N 0.57967 0.04594 0.89544 0.0
N1201 N 0.57872 0.0325 0.93411 0.0
C1202 C 0.58421 0.07408 0.94264 0.0
H1203 H 0.58949 0.07822 0.87326 0.0
H1204 H 0.59307 0.08306 0.9937 0.0
H1205 H 0.57223 0.07423 0.94693 0.0
C1206 C 0.62734 0.08711 0.67551 0.0
N1207 N 0.61067 0.07613 0.67297 0.0
N1208 N 0.60606 0.06781 0.7506 0.0
C1209 C 0.61973 0.07294 0.8041 0.0
C1210 C 0.63363 0.08544 0.7589 0.0
C1211 C 0.63703 0.0981 0.59709 0.0
H1212 H 0.63674 0.09009 0.53964 0.0
H1213 H 0.63088 0.10516 0.57312 0.0
H1214 H 0.65028 0.10695 0.61598 0.0
O1215 O 0.5826 0.0453 0.56031 0.0
O1216 O 0.57572 0.03149 0.69156 0.0
H1217 H 0.61135 0.05229 0.89732 0.0
H1218 H 0.63217 0.06924 0.92112 0.0
C1219 C 0.61952 0.06611 0.89734 0.0
H1220 H 0.61463 0.07169 0.94699 0.0
H1221 H 0.57827 0.0225 0.89806 0.0
O1222 O 0.60266 0.0781 0.45792 0.0
C1223 C 0.57629 0.03158 0.60454 0.0
C1224 C 0.1215 0.44615 0.1507 0.0
C1225 C 0.11256 0.42877 0.13481 0.0
H1226 H 0.12033 0.46768 0.19857 0.0
C1227 C 0.0954 0.41959 0.15614 0.0
H1228 H 0.13478 0.45342 0.13538 0.0
C1229 C 0.08729 0.42761 0.19345 0.0
C1230 C 0.09615 0.44498 0.20905 0.0
H1231 H 0.0883 0.40616 0.14457 0.0
H1232 H 0.07402 0.42028 0.2091 0.0
C1233 C 0.11333 0.45422 0.1878 0.0
C1234 C 0.57554 0.65979 0.18485 0.0
C1235 C 0.55828 0.65145 0.20388 0.0
H1236 H 0.59678 0.68199 0.13214 0.0
C1237 C 0.54906 0.65951 0.18506 0.0
H1238 H 0.58289 0.65379 0.19884 0.0
C1239 C 0.55703 0.67569 0.14717 0.0
C1240 C 0.5743 0.68395 0.12788 0.0
H1241 H 0.53569 0.65321 0.19854 0.0
H1242 H 0.54979 0.68183 0.13415 0.0
C1243 C 0.58344 0.67582 0.14639 0.0
C1244 C 0.32728 0.90536 0.12961 0.0
C1245 C 0.31766 0.88781 0.13086 0.0
H1246 H 0.35051 0.92713 0.16638 0.0
C1247 C 0.32419 0.8785 0.17209 0.0
H1248 H 0.32231 0.91275 0.09945 0.0
C1249 C 0.34027 0.88671 0.21141 0.0
C1250 C 0.34993 0.90431 0.20967 0.0
H1251 H 0.31678 0.86492 0.17485 0.0
H1252 H 0.34525 0.87936 0.24175 0.0
C1253 C 0.34327 0.91354 0.1686 0.0
C1254 C 0.45405 0.1144 0.78801 0.0
C1255 C 0.44613 0.09681 0.79132 0.0
H1256 H 0.45245 0.13629 0.8232 0.0
C1257 C 0.43039 0.08771 0.83405 0.0
H1258 H 0.46627 0.12166 0.75635 0.0
C1259 C 0.42272 0.096 0.87312 0.0
C1260 C 0.43062 0.11354 0.87024 0.0
H1261 H 0.42405 0.07413 0.83739 0.0
H1262 H 0.41046 0.08871 0.90445 0.0
C1263 C 0.44632 0.12273 0.82734 0.0
C1264 C 0.91685 0.34141 0.80718 0.0
C1265 C 0.90772 0.34952 0.78769 0.0
H1266 H 0.91624 0.31943 0.86085 0.0
C1267 C 0.89043 0.34127 0.80646 0.0
H1268 H 0.9302 0.34757 0.79332 0.0
C1269 C 0.88242 0.32513 0.8448 0.0
C1270 C 0.89164 0.31709 0.86464 0.0
H1271 H 0.8832 0.3474 0.79268 0.0
H1272 H 0.86904 0.31884 0.85783 0.0
C1273 C 0.90891 0.32542 0.84612 0.0
C1274 C 0.67562 0.55605 0.85831 0.0
C1275 C 0.68388 0.57327 0.87874 0.0
H1276 H 0.65323 0.53486 0.80489 0.0
C1277 C 0.67583 0.58249 0.86014 0.0
H1278 H 0.68171 0.54876 0.87129 0.0
C1279 C 0.65989 0.57472 0.82045 0.0
C1280 C 0.65155 0.5575 0.80032 0.0
H1281 H 0.68201 0.5958 0.87514 0.0
H1282 H 0.65396 0.58212 0.80636 0.0
C1283 C 0.65952 0.5482 0.81924 0.0
C1284 C 0.90545 0.58092 0.8296 0.0
C1285 C 0.8896 0.57191 0.87111 0.0
H1286 H 0.92538 0.57972 0.76038 0.0
C1287 C 0.88146 0.55431 0.87361 0.0
H1288 H 0.91195 0.59451 0.82687 0.0
C1289 C 0.8891 0.54586 0.83461 0.0
C1290 C 0.90491 0.55494 0.7929 0.0
H1291 H 0.86915 0.54712 0.90434 0.0
H1292 H 0.88279 0.53228 0.83799 0.0
C1293 C 0.91304 0.57251 0.79089 0.0
C1294 C 0.45283 0.34249 0.81037 0.0
C1295 C 0.4438 0.35072 0.79052 0.0
H1296 H 0.45171 0.32005 0.86231 0.0
C1297 C 0.42651 0.34255 0.80852 0.0
H1298 H 0.46622 0.34866 0.79773 0.0
C1299 C 0.41838 0.32653 0.84703 0.0
C1300 C 0.42733 0.31823 0.86669 0.0
H1301 H 0.41933 0.3487 0.79382 0.0
H1302 H 0.40503 0.3205 0.86062 0.0
C1303 C 0.44462 0.32632 0.84835 0.0
C1304 C 0.67589 0.11945 0.84712 0.0
C1305 C 0.68351 0.11001 0.87089 0.0
H1306 H 0.65399 0.11899 0.79125 0.0
C1307 C 0.6748 0.09263 0.85574 0.0
H1308 H 0.68249 0.13292 0.8573 0.0
C1309 C 0.65888 0.08482 0.8158 0.0
C1310 C 0.65117 0.09417 0.79244 0.0
H1311 H 0.68042 0.0851 0.87386 0.0
H1312 H 0.65247 0.07139 0.8042 0.0
C1313 C 0.65979 0.11157 0.80812 0.0
C1314 C 0.54882 0.8896 0.19077 0.0
C1315 C 0.55773 0.90686 0.21042 0.0
H1316 H 0.55006 0.86842 0.13772 0.0
C1317 C 0.57495 0.91614 0.19066 0.0
H1318 H 0.53548 0.88226 0.20471 0.0
C1319 C 0.58311 0.9084 0.15062 0.0
C1320 C 0.57428 0.89115 0.13124 0.0
H1321 H 0.58205 0.92948 0.20513 0.0
H1322 H 0.5964 0.91585 0.13574 0.0
C1323 C 0.55706 0.88179 0.15135 0.0
C1324 C 0.09219 0.67495 0.14827 0.0
C1325 C 0.10943 0.68317 0.12876 0.0
H1326 H 0.07092 0.65291 0.20209 0.0
C1327 C 0.11858 0.67505 0.14793 0.0
H1328 H 0.08489 0.68099 0.13395 0.0
C1329 C 0.11057 0.65894 0.18666 0.0
C1330 C 0.09332 0.6508 0.20643 0.0
H1331 H 0.13193 0.68125 0.13404 0.0
H1332 H 0.11774 0.65274 0.19989 0.0
C1333 C 0.08425 0.65899 0.18756 0.0
C1334 C 0.34343 0.4539 0.16945 0.0
C1335 C 0.35137 0.44461 0.18995 0.0
H1336 H 0.32133 0.45326 0.11555 0.0
C1337 C 0.34308 0.42739 0.17019 0.0
H1338 H 0.34971 0.46725 0.18331 0.0
C1339 C 0.32724 0.41958 0.12944 0.0
C1340 C 0.31919 0.42876 0.10957 0.0
H1341 H 0.34899 0.42 0.18536 0.0
H1342 H 0.3211 0.40625 0.11485 0.0
C1343 C 0.32741 0.446 0.1295 0.0
C1344 C 0.78636 0.77799 0.4812 0.0
C1345 C 0.77728 0.7607 0.46257 0.0
H1346 H 0.78536 0.79945 0.53185 0.0
C1347 C 0.76003 0.75164 0.48164 0.0
H1348 H 0.79972 0.78516 0.46772 0.0
C1349 C 0.75198 0.75965 0.5198 0.0
C1350 C 0.76098 0.77693 0.53815 0.0
H1351 H 0.75281 0.73828 0.46789 0.0
H1352 H 0.73865 0.75238 0.53405 0.0
C1353 C 0.77824 0.78606 0.51891 0.0
C1354 C 0.22559 0.00869 0.48197 0.0
C1355 C 0.24296 0.01719 0.4656 0.0
H1356 H 0.20417 0.98604 0.531 0.0
C1357 C 0.25221 0.00929 0.48736 0.0
H1358 H 0.21825 0.01464 0.46635 0.0
C1359 C 0.24432 0.9933 0.52623 0.0
C1360 C 0.22695 0.9847 0.54196 0.0
H1361 H 0.26563 0.01562 0.4753 0.0
H1362 H 0.25178 0.98754 0.54322 0.0
C1363 C 0.21762 0.99253 0.52007 0.0
C1364 C 0.00848 0.24859 0.53289 0.0
C1365 C 0.01648 0.23934 0.55198 0.0
H1366 H 0.9868 0.24836 0.47732 0.0
C1367 C 0.00823 0.22213 0.53101 0.0
H1368 H 0.01465 0.26189 0.54821 0.0
C1369 C 0.99222 0.21435 0.49087 0.0
C1370 C 0.98432 0.22371 0.47127 0.0
H1371 H 0.01428 0.21482 0.54427 0.0
H1372 H 0.98593 0.20103 0.47613 0.0
C1373 C 0.99265 0.2409 0.49197 0.0
C1374 C 0.23836 0.24727 0.49141 0.0
C1375 C 0.22232 0.23801 0.53057 0.0
H1376 H 0.25876 0.24652 0.425 0.0
C1377 C 0.21432 0.22041 0.53144 0.0
H1378 H 0.24475 0.26086 0.4899 0.0
C1379 C 0.22229 0.21221 0.49329 0.0
C1380 C 0.23831 0.22155 0.45418 0.0
H1381 H 0.20188 0.21303 0.56038 0.0
H1382 H 0.21608 0.19863 0.49546 0.0
C1383 C 0.24628 0.23911 0.45362 0.0
C1384 C 0.7519 0.9927 0.51796 0.0
C1385 C 0.76101 0.98452 0.53615 0.0
H1386 H 0.7525 0.01477 0.4659 0.0
C1387 C 0.77827 0.99275 0.51658 0.0
H1388 H 0.73857 0.98655 0.53239 0.0
C1389 C 0.78626 0.00893 0.47879 0.0
C1390 C 0.77707 0.01704 0.46037 0.0
H1391 H 0.78548 0.98657 0.52933 0.0
H1392 H 0.79962 0.0152 0.46506 0.0
C1393 C 0.75982 0.00874 0.47964 0.0
C1394 C 0.99373 0.75298 0.47149 0.0
C1395 C 0.9856 0.76212 0.45283 0.0
H1396 H 0.01578 0.75354 0.52381 0.0
C1397 C 0.99391 0.77941 0.47152 0.0
H1398 H 0.98752 0.73962 0.45776 0.0
C1399 C 0.01013 0.7874 0.50908 0.0
C1400 C 0.01817 0.77817 0.52816 0.0
H1401 H 0.98777 0.78665 0.45839 0.0
H1402 H 0.01646 0.80078 0.52218 0.0
C1403 C 0.00979 0.76089 0.50961 0.0
C1404 C 0.19952 0.41256 0.94254 0.0
C1405 C 0.18835 0.4052 0.0161 0.0
H1406 H 0.22288 0.41784 0.88167 0.0
C1407 C 0.19333 0.399 0.0904 0.0
H1408 H 0.19611 0.4175 0.88431 0.0
C1409 C 0.20862 0.39927 0.08914 0.0
C1410 C 0.21935 0.40566 0.01327 0.0
H1411 H 0.18513 0.39329 0.14847 0.0
H1412 H 0.21169 0.39382 0.14635 0.0
C1413 C 0.21488 0.41277 0.9411 0.0
C1414 C 0.60288 0.79443 0.11184 0.0
C1415 C 0.5963 0.78338 0.03723 0.0
H1416 H 0.60875 0.81815 0.16871 0.0
C1417 C 0.58865 0.78735 0.9657 0.0
H1418 H 0.60868 0.79169 0.16865 0.0
C1419 C 0.58869 0.80259 0.96574 0.0
C1420 C 0.59638 0.81417 0.0373 0.0
H1421 H 0.58337 0.77909 0.90739 0.0
H1422 H 0.58344 0.80563 0.90746 0.0
C1423 C 0.60292 0.80963 0.11188 0.0
C1424 C 0.20699 0.80812 0.11131 0.0
C1425 C 0.21813 0.81244 0.03726 0.0
H1426 H 0.18312 0.79048 0.1674 0.0
C1427 C 0.21416 0.80078 0.96609 0.0
H1428 H 0.20973 0.81671 0.16784 0.0
C1429 C 0.19884 0.78567 0.96584 0.0
C1430 C 0.18718 0.78193 0.03675 0.0
H1431 H 0.22249 0.80365 0.90824 0.0
H1432 H 0.19581 0.77735 0.9078 0.0
C1433 C 0.1917 0.79305 0.11106 0.0
C1434 C 0.41324 0.21546 0.03143 0.0
C1435 C 0.40531 0.21909 0.96003 0.0
H1436 H 0.419 0.19761 0.09025 0.0
C1437 C 0.39868 0.20784 0.88629 0.0
H1438 H 0.41857 0.22389 0.08905 0.0
C1439 C 0.39892 0.19277 0.88698 0.0
C1440 C 0.4058 0.18859 0.96142 0.0
H1441 H 0.39264 0.21031 0.82962 0.0
H1442 H 0.39307 0.18409 0.8308 0.0
C1443 C 0.41349 0.20037 0.03212 0.0
C1444 C 0.78695 0.19948 0.02203 0.0
C1445 C 0.78315 0.18765 0.95192 0.0
H1446 H 0.80518 0.22298 0.08007 0.0
C1447 C 0.79451 0.19178 0.87909 0.0
H1448 H 0.77846 0.19675 0.07899 0.0
C1449 C 0.80985 0.20683 0.87976 0.0
C1450 C 0.81419 0.2181 0.95329 0.0
H1451 H 0.79192 0.18306 0.82346 0.0
H1452 H 0.8186 0.20926 0.8245 0.0
C1453 C 0.80231 0.21454 0.02272 0.0
C1454 C 0.78835 0.58927 0.05157 0.0
C1455 C 0.78315 0.59492 0.97571 0.0
H1456 H 0.80778 0.58597 0.1114 0.0
C1457 C 0.79302 0.59963 0.8963 0.0
H1458 H 0.781 0.58549 0.11377 0.0
C1459 C 0.8083 0.59984 0.89487 0.0
C1460 C 0.81419 0.59547 0.97285 0.0
H1461 H 0.78929 0.60381 0.83612 0.0
H1462 H 0.81574 0.60407 0.83349 0.0
C1463 C 0.80373 0.58956 0.0502 0.0
C1464 C 0.85968 0.73276 0.44297 0.0
C1465 C 0.85488 0.73911 0.36866 0.0
H1466 H 0.87787 0.72722 0.49845 0.0
C1467 C 0.86624 0.7467 0.29608 0.0
H1468 H 0.85134 0.72701 0.50054 0.0
C1469 C 0.88152 0.74681 0.29484 0.0
C1470 C 0.88575 0.73936 0.36618 0.0
H1471 H 0.863 0.75181 0.23797 0.0
H1472 H 0.88961 0.75201 0.23584 0.0
C1473 C 0.87493 0.73289 0.44175 0.0
C1474 C 0.25584 0.1348 0.29701 0.0
C1475 C 0.26351 0.14664 0.36742 0.0
H1476 H 0.2508 0.11123 0.24087 0.0
C1477 C 0.27039 0.14254 0.44219 0.0
H1478 H 0.25033 0.13749 0.23865 0.0
C1479 C 0.27066 0.12749 0.44347 0.0
C1480 C 0.26405 0.11617 0.37001 0.0
H1481 H 0.27622 0.15127 0.49817 0.0
H1482 H 0.2767 0.12508 0.50037 0.0
C1483 C 0.25611 0.11971 0.2983 0.0
C1484 C 0.87417 0.14233 0.44695 0.0
C1485 C 0.88532 0.14686 0.37281 0.0
H1486 H 0.85036 0.12447 0.50273 0.0
C1487 C 0.88144 0.13532 0.30108 0.0
H1488 H 0.87684 0.15082 0.5039 0.0
C1489 C 0.86618 0.12013 0.30039 0.0
C1490 C 0.8545 0.11619 0.37144 0.0
H1491 H 0.88978 0.13835 0.24312 0.0
H1492 H 0.86321 0.11191 0.24193 0.0
C1493 C 0.85895 0.12719 0.44627 0.0
C1494 C 0.07984 0.53287 0.36991 0.0
C1495 C 0.07243 0.52134 0.2979 0.0
H1496 H 0.08462 0.55617 0.42879 0.0
C1497 C 0.0658 0.52575 0.22324 0.0
H1498 H 0.08515 0.52993 0.42827 0.0
C1499 C 0.06549 0.54078 0.22356 0.0
C1500 C 0.07181 0.55177 0.29853 0.0
H1501 H 0.06016 0.51726 0.16608 0.0
H1502 H 0.05964 0.54342 0.16661 0.0
C1503 C 0.07953 0.54794 0.37022 0.0
C1504 C 0.4695 0.54811 0.36293 0.0
C1505 C 0.48124 0.55214 0.29213 0.0
H1506 H 0.44586 0.52983 0.41942 0.0
C1507 C 0.47687 0.54122 0.21698 0.0
H1508 H 0.47242 0.55628 0.4216 0.0
C1509 C 0.46166 0.52607 0.21572 0.0
C1510 C 0.45044 0.52146 0.28958 0.0
H1511 H 0.48551 0.54401 0.1607 0.0
H1512 H 0.45904 0.51764 0.15852 0.0
C1513 C 0.45425 0.53292 0.36166 0.0
C1514 C 0.45879 0.93157 0.23209 0.0
C1515 C 0.44899 0.92779 0.31155 0.0
H1516 H 0.48151 0.93526 0.17124 0.0
C1517 C 0.45404 0.92256 0.38974 0.0
H1518 H 0.45514 0.93521 0.17002 0.0
C1519 C 0.46921 0.9224 0.39026 0.0
C1520 C 0.47962 0.92752 0.31269 0.0
H1521 H 0.44676 0.91943 0.45209 0.0
H1522 H 0.47318 0.91917 0.45299 0.0
C1523 C 0.47394 0.93152 0.23268 0.0
C1524 C 0.53173 0.07836 0.61115 0.0
C1525 C 0.52147 0.07319 0.68935 0.0
H1526 H 0.55423 0.08169 0.54814 0.0
C1527 C 0.52751 0.06947 0.76903 0.0
H1528 H 0.52755 0.08144 0.54865 0.0
C1529 C 0.54271 0.06952 0.76865 0.0
C1530 C 0.55236 0.07345 0.68867 0.0
H1531 H 0.52024 0.06589 0.8311 0.0
H1532 H 0.54655 0.06583 0.83026 0.0
C1533 C 0.54705 0.07852 0.61086 0.0
C1534 C 0.92138 0.46765 0.62253 0.0
C1535 C 0.92851 0.47901 0.69552 0.0
H1536 H 0.91678 0.44447 0.56291 0.0
C1537 C 0.9348 0.4744 0.77093 0.0
H1538 H 0.91635 0.47076 0.56357 0.0
C1539 C 0.93505 0.45934 0.77054 0.0
C1540 C 0.92902 0.44852 0.69474 0.0
H1541 H 0.9402 0.48274 0.82885 0.0
H1542 H 0.94064 0.45654 0.82817 0.0
C1543 C 0.92163 0.45255 0.62215 0.0
C1544 C 0.53317 0.45396 0.63159 0.0
C1545 C 0.52145 0.45 0.7024 0.0
H1546 H 0.55681 0.47219 0.57479 0.0
C1547 C 0.52585 0.46097 0.77729 0.0
H1548 H 0.53024 0.44575 0.57311 0.0
C1549 C 0.54107 0.47612 0.77826 0.0
C1550 C 0.55227 0.48067 0.70436 0.0
H1551 H 0.51721 0.45824 0.83358 0.0
H1552 H 0.5437 0.48459 0.83525 0.0
C1553 C 0.54843 0.46914 0.63257 0.0
C1554 C 0.74677 0.8812 0.69836 0.0
C1555 C 0.73905 0.8851 0.62694 0.0
H1556 H 0.75206 0.86299 0.75676 0.0
C1557 C 0.73241 0.87399 0.55261 0.0
H1558 H 0.75209 0.88951 0.75644 0.0
C1559 C 0.73239 0.85879 0.55279 0.0
C1560 C 0.73901 0.85433 0.62731 0.0
H1561 H 0.72654 0.87667 0.49589 0.0
H1562 H 0.7265 0.85022 0.4962 0.0
C1563 C 0.74675 0.86597 0.69854 0.0
C1564 C 0.14444 0.87418 0.5459 0.0
C1565 C 0.14864 0.88545 0.61924 0.0
H1566 H 0.12671 0.85032 0.48981 0.0
C1567 C 0.13673 0.88177 0.68871 0.0
H1568 H 0.15323 0.87669 0.49072 0.0
C1569 C 0.12148 0.86659 0.68825 0.0
C1570 C 0.11782 0.85478 0.6183 0.0
H1571 H 0.13951 0.8902 0.74602 0.0
H1572 H 0.11296 0.86379 0.74514 0.0
C1573 C 0.1292 0.85903 0.54542 0.0
C1574 C 0.12128 0.25563 0.72136 0.0
C1575 C 0.11584 0.26126 0.64645 0.0
H1576 H 0.14087 0.25226 0.7784 0.0
C1577 C 0.12545 0.26593 0.56606 0.0
H1578 H 0.11414 0.25189 0.78428 0.0
C1579 C 0.1407 0.26611 0.56266 0.0
C1580 C 0.14682 0.2617 0.63952 0.0
H1581 H 0.12154 0.27011 0.50658 0.0
H1582 H 0.14795 0.27033 0.50061 0.0
C1583 C 0.13663 0.25586 0.71796 0.0
C1584 C 0.09657 0.3179 0.88824 0.0
C1585 C 0.09829 0.31815 0.79239 0.0
H1586 H 0.1026 0.33219 0.01237 0.0
C1587 C 0.10749 0.3337 0.74846 0.0
H1588 H 0.08955 0.30611 0.92455 0.0
C1589 C 0.11505 0.34857 0.79901 0.0
C1590 C 0.11348 0.34839 0.8948 0.0
H1591 H 0.10921 0.33441 0.67508 0.0
H1592 H 0.12247 0.36022 0.76272 0.0
C1593 C 0.10405 0.33284 0.93884 0.0
C1594 C 0.66867 0.77359 0.92827 0.0
C1595 C 0.65279 0.76583 0.88665 0.0
H1596 H 0.69528 0.78689 0.90972 0.0
C1597 C 0.65188 0.7652 0.7904 0.0
H1598 H 0.66986 0.7743 0.00196 0.0
C1599 C 0.66647 0.77243 0.73717 0.0
C1600 C 0.68235 0.78049 0.77878 0.0
H1601 H 0.63986 0.75927 0.75571 0.0
H1602 H 0.66528 0.7719 0.66348 0.0
C1603 C 0.68326 0.78083 0.87504 0.0
C1604 C 0.22847 0.89442 0.92762 0.0
C1605 C 0.2366 0.88664 0.88647 0.0
H1606 H 0.2149 0.90745 0.90819 0.0
C1607 C 0.2376 0.88666 0.79031 0.0
H1608 H 0.22744 0.89463 0.00123 0.0
C1609 C 0.2304 0.894 0.73666 0.0
C1610 C 0.22199 0.9015 0.77774 0.0
H1611 H 0.2438 0.88081 0.75599 0.0
H1612 H 0.23124 0.8936 0.66302 0.0
C1613 C 0.22125 0.90175 0.87394 0.0
C1614 C 0.32017 0.09847 0.12567 0.0
C1615 C 0.32111 0.09925 0.2219 0.0
H1616 H 0.33352 0.10523 -0.00141 0.0
C1617 C 0.33701 0.10727 0.26334 0.0
H1618 H 0.30814 0.09234 0.0911 0.0
C1619 C 0.35158 0.11467 0.20992 0.0
C1620 C 0.35063 0.11422 0.11367 0.0
H1621 H 0.33822 0.10809 0.33701 0.0
H1622 H 0.36361 0.12096 0.24445 0.0
C1623 C 0.33474 0.10586 0.07227 0.0
C1624 C 0.89617 0.22732 0.06986 0.0
C1625 C 0.88792 0.23507 0.1099 0.0
H1626 H 0.9095 0.21411 0.09102 0.0
C1627 C 0.8874 0.23575 0.2061 0.0
H1628 H 0.89684 0.22659 0.9963 0.0
C1629 C 0.89466 0.22859 0.26078 0.0
C1630 C 0.90262 0.22055 0.22074 0.0
H1631 H 0.88119 0.24167 0.23963 0.0
H1632 H 0.89382 0.22916 0.33434 0.0
C1633 C 0.90342 0.22015 0.12455 0.0
C1634 C 0.7735 0.66762 0.07607 0.0
C1635 C 0.76577 0.6519 0.11939 0.0
H1636 H 0.78688 0.69429 0.09172 0.0
C1637 C 0.76529 0.65135 0.21568 0.0
H1638 H 0.77408 0.66853 0.00227 0.0
C1639 C 0.77265 0.66613 0.26729 0.0
C1640 C 0.78067 0.68185 0.22397 0.0
H1641 H 0.7594 0.63946 0.25164 0.0
H1642 H 0.77224 0.66522 0.34109 0.0
C1643 C 0.78085 0.6824 0.12767 0.0
C1644 C 0.89585 0.66738 0.25951 0.0
C1645 C 0.90379 0.68304 0.21579 0.0
H1646 H 0.88216 0.64079 0.24482 0.0
C1647 C 0.90449 0.6835 0.11946 0.0
H1648 H 0.89502 0.66653 0.3333 0.0
C1649 C 0.89716 0.66864 0.06822 0.0
C1650 C 0.88893 0.65297 0.1121 0.0
H1651 H 0.91054 0.69536 0.08326 0.0
H1652 H 0.89774 0.66944 0.9944 0.0
C1653 C 0.88849 0.65258 0.20839 0.0
C1654 C 0.33252 0.22823 0.06598 0.0
C1655 C 0.34836 0.23623 0.10809 0.0
H1656 H 0.30589 0.21449 0.08375 0.0
C1657 C 0.34916 0.23693 0.20434 0.0
H1658 H 0.33141 0.22747 0.99227 0.0
C1659 C 0.33452 0.22949 0.25711 0.0
C1660 C 0.31869 0.22113 0.21503 0.0
H1661 H 0.36115 0.24305 0.23939 0.0
H1662 H 0.33564 0.23005 0.33083 0.0
C1663 C 0.31788 0.22077 0.11876 0.0
C1664 C 0.77314 0.10761 0.259 0.0
C1665 C 0.78084 0.09938 0.21811 0.0
H1666 H 0.76027 0.12133 0.23912 0.0
C1667 C 0.78089 0.0984 0.12194 0.0
H1668 H 0.77287 0.10862 0.33261 0.0
C1669 C 0.77367 0.10569 0.06805 0.0
C1670 C 0.76623 0.11417 0.10888 0.0
H1671 H 0.78667 0.09212 0.08781 0.0
H1672 H 0.77411 0.10485 0.99443 0.0
C1673 C 0.76593 0.11492 0.20508 0.0
C1674 C 0.66666 0.89487 0.73659 0.0
C1675 C 0.68256 0.90262 0.77791 0.0
H1676 H 0.64006 0.88159 0.75564 0.0
C1677 C 0.68353 0.90325 0.87415 0.0
H1678 H 0.66543 0.89416 0.66292 0.0
C1679 C 0.66898 0.89604 0.92766 0.0
C1680 C 0.65308 0.88799 0.88635 0.0
H1681 H 0.69558 0.90917 0.90863 0.0
H1682 H 0.67021 0.89657 0.00132 0.0
C1683 C 0.65211 0.88765 0.7901 0.0
C1684 C 0.09885 0.78107 0.86857 0.0
C1685 C 0.09957 0.78066 0.77237 0.0
H1686 H 0.10526 0.7744 0.99655 0.0
C1687 C 0.10721 0.77233 0.732 0.0
H1688 H 0.09301 0.78734 0.90234 0.0
C1689 C 0.11423 0.76489 0.78639 0.0
C1690 C 0.11379 0.76559 0.8826 0.0
H1691 H 0.10798 0.77174 0.65841 0.0
H1692 H 0.1202 0.75876 0.75264 0.0
C1693 C 0.10586 0.77363 0.92296 0.0
C1694 C 0.23046 0.33463 0.72382 0.0
C1695 C 0.22228 0.3191 0.76908 0.0
H1696 H 0.24402 0.3614 0.73656 0.0
C1697 C 0.22216 0.31898 0.86536 0.0
H1698 H 0.2308 0.33521 0.64992 0.0
C1699 C 0.22974 0.33393 0.91517 0.0
C1700 C 0.23762 0.34946 0.8701 0.0
H1701 H 0.21589 0.3073 0.90283 0.0
H1702 H 0.22914 0.33328 0.98904 0.0
C1703 C 0.23804 0.34964 0.77375 0.0
C1704 C 0.01698 0.44708 0.54072 0.0
C1705 C 0.01642 0.44688 0.44442 0.0
H1706 H 0.0031 0.44023 0.66608 0.0
C1707 C 1.0007 0.4387 0.40106 0.0
H1708 H 0.02887 0.45323 0.5767 0.0
C1709 C 0.98591 0.43123 0.45262 0.0
C1710 C 0.98647 0.43175 0.54891 0.0
H1711 H 0.99979 0.43827 0.32726 0.0
H1712 H 0.97402 0.42524 0.41664 0.0
C1713 C 0.00219 0.43961 0.59228 0.0
C1714 C 0.57054 0.55442 0.45852 0.0
C1715 C 0.56983 0.55467 0.55475 0.0
H1716 H 0.56387 0.56107 0.33125 0.0
C1717 C 0.56197 0.56271 0.59596 0.0
H1718 H 0.57655 0.54838 0.42413 0.0
C1719 C 0.55469 0.56999 0.54235 0.0
C1720 C 0.55511 0.56944 0.44611 0.0
H1721 H 0.5612 0.56317 0.66961 0.0
H1722 H 0.54855 0.57589 0.57673 0.0
C1723 C 0.56328 0.56171 0.40491 0.0
C1724 C 0.43892 0.00074 0.40444 0.0
C1725 C 0.43135 0.98524 0.44988 0.0
H1726 H 0.45242 0.02743 0.4165 0.0
C1727 C 0.43124 0.98518 0.54626 0.0
H1728 H 0.43931 0.00131 0.33053 0.0
C1729 C 0.43867 1.00019 0.5959 0.0
C1730 C 0.44649 0.01568 0.55046 0.0
H1731 H 0.42566 0.9735 0.58384 0.0
H1732 H 0.43852 0.99962 0.66981 0.0
C1733 C 0.44641 0.01575 0.45408 0.0
C1734 C 0.562 0.00097 0.40553 0.0
C1735 C 0.55407 0.98538 0.45018 0.0
H1736 H 0.57526 0.02769 0.41889 0.0
C1737 C 0.55405 0.9851 0.5465 0.0
H1738 H 0.56229 0.00167 0.33166 0.0
C1739 C 0.56147 1.00003 0.59682 0.0
C1740 C 0.56912 0.01563 0.55216 0.0
H1741 H 0.54809 0.97331 0.58344 0.0
H1742 H 0.56101 0.99933 0.67069 0.0
C1743 C 0.56944 0.0159 0.45585 0.0
C1744 C 0.01511 0.56904 0.54256 0.0
C1745 C 0.01448 0.56864 0.44626 0.0
H1746 H 0.00135 0.56194 0.66829 0.0
C1747 C 0.99872 0.56096 0.40332 0.0
H1748 H 0.02704 0.57489 0.57824 0.0
C1749 C 0.98397 0.55354 0.45528 0.0
C1750 C 0.98461 0.55361 0.55156 0.0
H1751 H 0.99774 0.56045 0.32954 0.0
H1752 H 0.97205 0.54753 0.41959 0.0
C1753 C 1.00037 0.56162 0.59451 0.0
C1754 C 0.43217 0.44778 0.53491 0.0
C1755 C 0.43294 0.4475 0.4387 0.0
H1756 H 0.4388 0.44119 0.66251 0.0
C1757 C 0.44085 0.43949 0.39787 0.0
H1758 H 0.42613 0.45381 0.56902 0.0
C1759 C 0.44812 0.43224 0.45183 0.0
C1760 C 0.44765 0.43282 0.54806 0.0
H1761 H 0.44166 0.43901 0.32425 0.0
H1762 H 0.4543 0.42635 0.41772 0.0
C1763 C 0.43943 0.44053 0.58888 0.0
C1764 C 0.15173 0.4104 0.48572 0.0
C1765 C 0.14006 0.39309 0.4758 0.0
H1766 H 0.16522 0.43101 0.57845 0.0
C1767 C 0.13112 0.38407 0.55337 0.0
H1768 H 0.1578 0.41841 0.42806 0.0
C1769 C 0.1343 0.39186 0.6384 0.0
C1770 C 0.14699 0.40865 0.64886 0.0
H1771 H 0.12169 0.37089 0.54882 0.0
H1772 H 0.1273 0.38456 0.6969 0.0
C1773 C 0.15561 0.41793 0.57195 0.0
C1774 C 0.6036 0.7593 0.50097 0.0
C1775 C 0.61174 0.75049 0.47487 0.0
H1776 H 0.59052 0.76415 0.60659 0.0
C1777 C 0.6119 0.73869 0.53506 0.0
H1778 H 0.60345 0.76858 0.45609 0.0
C1779 C 0.60425 0.73592 0.62074 0.0
C1780 C 0.5966 0.74517 0.64816 0.0
H1781 H 0.618 0.73166 0.51601 0.0
H1782 H 0.60507 0.72717 0.66704 0.0
C1783 C 0.59614 0.7567 0.58689 0.0
C1784 C 0.24296 0.84379 0.50051 0.0
C1785 C 0.25187 0.86075 0.4748 0.0
H1786 H 0.23786 0.82575 0.60595 0.0
C1787 C 0.26361 0.87262 0.53552 0.0
H1788 H 0.2337 0.83442 0.45525 0.0
C1789 C 0.26622 0.86763 0.62132 0.0
C1790 C 0.25687 0.85072 0.64833 0.0
H1791 H 0.27071 0.88577 0.51679 0.0
H1792 H 0.27493 0.87714 0.66803 0.0
C1793 C 0.24539 0.83882 0.58656 0.0
C1794 C 0.40685 0.16235 0.41333 0.0
C1795 C 0.40661 0.15055 0.3516 0.0
H1796 H 0.39945 0.1666 0.5446 0.0
C1797 C 0.39927 0.13365 0.37862 0.0
H1798 H 0.41222 0.17541 0.39392 0.0
C1799 C 0.3917 0.12858 0.4644 0.0
C1800 C 0.39165 0.14036 0.52508 0.0
H1801 H 0.39862 0.12421 0.33193 0.0
H1802 H 0.38582 0.11544 0.48313 0.0
C1803 C 0.39949 0.15731 0.49937 0.0
C1804 C 0.84588 0.24169 0.49241 0.0
C1805 C 0.86282 0.25057 0.51864 0.0
H1806 H 0.82792 0.23669 0.38651 0.0
C1807 C 0.87474 0.26238 0.45835 0.0
H1808 H 0.83647 0.2324 0.53736 0.0
C1809 C 0.86982 0.26507 0.37251 0.0
C1810 C 0.85292 0.25575 0.34501 0.0
H1811 H 0.88788 0.26946 0.47746 0.0
H1812 H 0.87936 0.27383 0.32614 0.0
C1813 C 0.84098 0.2442 0.40631 0.0
C1814 C 0.73555 0.60285 0.38877 0.0
C1815 C 0.74419 0.59454 0.36161 0.0
H1816 H 0.73209 0.61722 0.49303 0.0
C1817 C 0.75543 0.59358 0.42298 0.0
H1818 H 0.72701 0.60405 0.34251 0.0
C1819 C 0.7584 0.60121 0.50858 0.0
C1820 C 0.75021 0.60998 0.53439 0.0
H1821 H 0.76241 0.58743 0.40358 0.0
H1822 H 0.7675 0.60069 0.5534 0.0
C1823 C 0.73866 0.61063 0.47419 0.0
C1824 C 0.84961 0.59727 0.51451 0.0
C1825 C 0.86489 0.61249 0.52517 0.0
H1826 H 0.83259 0.57821 0.42196 0.0
C1827 C 0.87581 0.6188 0.44998 0.0
H1828 H 0.84138 0.59106 0.57143 0.0
C1829 C 0.8713 0.61052 0.36598 0.0
C1830 C 0.85552 0.59607 0.35435 0.0
H1831 H 0.88787 0.63021 0.45582 0.0
H1832 H 0.87988 0.61585 0.30901 0.0
C1833 C 0.84474 0.58946 0.42928 0.0
C1834 C 0.40543 0.24577 0.40894 0.0
C1835 C 0.40489 0.25728 0.34781 0.0
H1836 H 0.39815 0.23381 0.53954 0.0
C1837 C 0.39713 0.26641 0.37535 0.0
H1838 H 0.41115 0.23842 0.38917 0.0
C1839 C 0.38945 0.26356 0.46098 0.0
C1840 C 0.38969 0.25178 0.521 0.0
H1841 H 0.39625 0.27515 0.32919 0.0
H1842 H 0.38326 0.27051 0.48012 0.0
C1843 C 0.39794 0.24308 0.4948 0.0
C1844 C 0.7657 0.15054 0.37518 0.0
C1845 C 0.75049 0.14857 0.34087 0.0
H1846 H 0.77838 0.14667 0.48719 0.0
C1847 C 0.73624 0.14149 0.39729 0.0
H1848 H 0.7769 0.15574 0.3333 0.0
C1849 C 0.73725 0.13651 0.48638 0.0
C1850 C 0.75242 0.13824 0.5191 0.0
H1851 H 0.72434 0.13968 0.37236 0.0
H1852 H 0.72613 0.13094 0.5289 0.0
C1853 C 0.76658 0.14523 0.46295 0.0
C1854 C 0.61236 0.87454 0.53529 0.0
C1855 C 0.61206 0.86252 0.47515 0.0
H1856 H 0.60561 0.87934 0.66722 0.0
C1857 C 0.60377 0.84557 0.50133 0.0
H1858 H 0.61859 0.88768 0.51621 0.0
C1859 C 0.59628 0.84078 0.58723 0.0
C1860 C 0.59687 0.85282 0.64844 0.0
H1861 H 0.60351 0.83609 0.45652 0.0
H1862 H 0.59054 0.8277 0.60697 0.0
C1863 C 0.60468 0.86972 0.62096 0.0
C1864 C 0.15562 0.75838 0.49951 0.0
C1865 C 0.13868 0.74973 0.47323 0.0
H1866 H 0.1735 0.76304 0.60536 0.0
C1867 C 0.12664 0.73802 0.53342 0.0
H1868 H 0.16512 0.7676 0.45466 0.0
C1869 C 0.13146 0.73517 0.61919 0.0
C1870 C 0.14837 0.74426 0.64674 0.0
H1871 H 0.1135 0.73112 0.51427 0.0
H1872 H 0.12184 0.72649 0.66547 0.0
C1873 C 0.16042 0.75571 0.58554 0.0
C1874 C 0.24715 0.40747 0.56554 0.0
C1875 C 0.2586 0.40682 0.62667 0.0
H1876 H 0.23504 0.40012 0.43529 0.0
C1877 C 0.26755 0.39886 0.59925 0.0
H1878 H 0.23993 0.41335 0.58512 0.0
C1879 C 0.26456 0.39109 0.51384 0.0
C1880 C 0.25281 0.39141 0.4539 0.0
H1881 H 0.27627 0.39791 0.6453 0.0
H1882 H 0.27138 0.38476 0.49481 0.0
C1883 C 0.2443 0.39985 0.47994 0.0
C1884 C 0.79928 0.73091 0.95457 0.0
C1885 C 0.81619 0.73888 0.98219 0.0
H1886 H 0.78139 0.71686 0.84978 0.0
C1887 C 0.82832 0.7396 0.92114 0.0
H1888 H 0.7896 0.7299 0.00063 0.0
C1889 C 0.82359 0.73207 0.83534 0.0
C1890 C 0.80664 0.72361 0.80909 0.0
H1891 H 0.84141 0.74549 0.94094 0.0
H1892 H 0.83314 0.73241 0.79069 0.0
C1893 C 0.79453 0.72321 0.86898 0.0
C1894 C 0.26401 0.0895 0.92229 0.0
C1895 C 0.26467 0.07804 0.98327 0.0
H1896 H 0.27123 0.10156 0.79189 0.0
C1897 C 0.27262 0.06909 0.95561 0.0
H1898 H 0.25815 0.09673 0.94214 0.0
C1899 C 0.28033 0.07207 0.87003 0.0
C1900 C 0.27997 0.08381 0.81015 0.0
H1901 H 0.2736 0.0604 0.00166 0.0
H1902 H 0.28665 0.06525 0.85081 0.0
C1903 C 0.27155 0.09232 0.83649 0.0
C1904 C 0.92959 0.20719 0.8719 0.0
C1905 C 0.9179 0.19511 0.81174 0.0
H1906 H 0.94119 0.21208 0.00384 0.0
C1907 C 0.90938 0.17817 0.83798 0.0
H1908 H 0.9364 0.22033 0.85283 0.0
C1909 C 0.91216 0.17342 0.92388 0.0
C1910 C 0.92359 0.18551 0.98509 0.0
H1911 H 0.90017 0.16864 0.79322 0.0
H1912 H 0.90493 0.16034 0.94363 0.0
C1913 C 0.93254 0.20242 0.95759 0.0
C1914 C 0.06578 0.4664 0.71363 0.0
C1915 C 0.07328 0.48329 0.68629 0.0
H1916 H 0.05215 0.4483 0.81824 0.0
C1917 C 0.07364 0.4952 0.74768 0.0
H1918 H 0.06505 0.45687 0.66731 0.0
C1919 C 0.0662 0.49026 0.83357 0.0
C1920 C 0.05819 0.47331 0.85949 0.0
H1921 H 0.07917 0.50827 0.7281 0.0
H1922 H 0.06625 0.49963 0.87852 0.0
C1923 C 0.05815 0.46143 0.79926 0.0
C1924 C 0.53665 0.59943 0.71085 0.0
C1925 C 0.51976 0.59004 0.68332 0.0
H1926 H 0.55472 0.6039 0.81579 0.0
C1927 C 0.50784 0.57845 0.74456 0.0
H1928 H 0.54617 0.60823 0.66454 0.0
C1929 C 0.51276 0.57596 0.83061 0.0
C1930 C 0.5297 0.58491 0.85684 0.0
H1931 H 0.49478 0.57089 0.72475 0.0
H1932 H 0.50337 0.56663 0.87553 0.0
C1933 C 0.54159 0.59676 0.79664 0.0
C1934 C 0.4153 0.92946 0.85341 0.0
C1935 C 0.41524 0.94469 0.86387 0.0
H1936 H 0.41327 0.91039 0.76106 0.0
C1937 C 0.41065 0.951 0.78852 0.0
H1938 H 0.4173 0.92325 0.91045 0.0
C1939 C 0.40691 0.94272 0.70453 0.0
C1940 C 0.40821 0.92824 0.69313 0.0
H1941 H 0.41 0.96241 0.79421 0.0
H1942 H 0.40368 0.94805 0.64741 0.0
C1943 C 0.41236 0.92164 0.76822 0.0
C1944 C 0.53543 0.9359 0.72266 0.0
C1945 C 0.5185 0.92701 0.69528 0.0
H1946 H 0.55299 0.95081 0.82682 0.0
C1947 C 0.50606 0.92558 0.75633 0.0
H1948 H 0.54534 0.93744 0.67678 0.0
C1949 C 0.51048 0.93335 0.84168 0.0
C1950 C 0.52742 0.94269 0.86766 0.0
H1951 H 0.49294 0.91897 0.73686 0.0
H1952 H 0.50067 0.93247 0.88614 0.0
C1953 C 0.53985 0.94379 0.80785 0.0
C1954 C 0.05586 0.59616 0.80028 0.0
C1955 C 0.05619 0.58444 0.86037 0.0
H1956 H 0.06258 0.60773 0.66846 0.0
C1957 C 0.06456 0.57585 0.83434 0.0
H1958 H 0.04958 0.60302 0.81932 0.0
C1959 C 0.07207 0.57858 0.7485 0.0
C1960 C 0.07141 0.59 0.68723 0.0
H1961 H 0.06485 0.56663 0.87917 0.0
H1962 H 0.07787 0.5713 0.72885 0.0
C1963 C 0.06354 0.59904 0.71468 0.0
C1964 C 0.42618 0.49024 0.82299 0.0
C1965 C 0.41774 0.4733 0.84923 0.0
H1966 H 0.43052 0.50805 0.71743 0.0
C1967 C 0.40607 0.46119 0.78914 0.0
H1968 H 0.43538 0.4998 0.86769 0.0
C1969 C 0.40307 0.46592 0.70351 0.0
C1970 C 0.41195 0.48284 0.676 0.0
H1971 H 0.39932 0.44805 0.80823 0.0
H1972 H 0.39444 0.45625 0.65732 0.0
C1973 C 0.42335 0.49496 0.73716 0.0
C1974 C 0.26978 0.20144 0.94898 0.0
C1975 C 0.26269 0.18456 0.976 0.0
H1976 H 0.283 0.21971 0.8444 0.0
C1977 C 0.26263 0.17285 0.91424 0.0
H1978 H 0.27029 0.21081 0.99569 0.0
C1979 C 0.26993 0.17797 0.82815 0.0
C1980 C 0.27754 0.19491 0.80245 0.0
H1981 H 0.25744 0.15981 0.93367 0.0
H1982 H 0.27011 0.16876 0.78282 0.0
C1983 C 0.2773 0.20659 0.86316 0.0
C1984 C 0.79892 0.06911 0.95331 0.0
C1985 C 0.81582 0.07841 0.98085 0.0
H1986 H 0.78089 0.06477 0.84833 0.0
C1987 C 0.82778 0.08994 0.91962 0.0
H1988 H 0.78936 0.06036 -0.00039 0.0
C1989 C 0.82291 0.09249 0.83356 0.0
C1990 C 0.80597 0.08363 0.80731 0.0
H1991 H 0.84085 0.09743 0.93945 0.0
H1992 H 0.83233 0.10177 0.78865 0.0
C1993 C 0.79402 0.07183 0.8675 0.0
C1994 C 0.93355 0.73203 0.94798 0.0
C1995 C 0.92399 0.73934 0.97547 0.0
H1996 H 0.93821 0.71857 0.84316 0.0
C1997 C 0.9123 0.7395 0.91427 0.0
H1998 H 0.94245 0.73145 0.99423 0.0
C1999 C 0.90985 0.73208 0.82834 0.0
C2000 C 0.91897 0.72428 0.80219 0.0
H2001 H 0.90461 0.74486 0.93403 0.0
H2002 H 0.90044 0.732 0.78345 0.0
C2003 C 0.93094 0.72441 0.8623 0.0
C2004 C 0.46442 0.05818 0.29574 0.0
C2005 C 0.48021 0.07263 0.30727 0.0
H2006 H 0.44781 0.0385 0.20598 0.0
C2007 C 0.49099 0.0792 0.23233 0.0
H2008 H 0.45585 0.05288 0.35275 0.0
C2009 C 0.48611 0.07137 0.14715 0.0
C2010 C 0.4708 0.05617 0.13656 0.0
H2011 H 0.50316 0.09043 0.23959 0.0
H2012 H 0.49435 0.07755 0.09022 0.0
C2013 C 0.45988 0.04989 0.21177 0.0
C2014 C 0.93732 0.40128 0.27955 0.0
C2015 C 0.9292 0.41009 0.30681 0.0
H2016 H 0.95151 0.39758 0.17516 0.0
C2017 C 0.92834 0.42138 0.24542 0.0
H2018 H 0.93843 0.39269 0.32583 0.0
C2019 C 0.9359 0.42422 0.15969 0.0
C2020 C 0.94451 0.41587 0.13384 0.0
H2021 H 0.92233 0.42848 0.2649 0.0
H2022 H 0.93546 0.43336 0.1148 0.0
C2023 C 0.94505 0.40427 0.19405 0.0
C2024 C 0.57643 0.51196 0.16991 0.0
C2025 C 0.58509 0.5289 0.14365 0.0
H2026 H 0.5718 0.49409 0.27561 0.0
C2027 C 0.59686 0.54093 0.20373 0.0
H2028 H 0.56717 0.50248 0.12516 0.0
C2029 C 0.59973 0.53611 0.28942 0.0
C2030 C 0.59063 0.51921 0.31698 0.0
H2031 H 0.60378 0.55406 0.18459 0.0
H2032 H 0.60845 0.54573 0.33562 0.0
C2033 C 0.57914 0.50717 0.25582 0.0
C2034 C 0.73144 0.82282 0.1643 0.0
C2035 C 0.72337 0.80588 0.19049 0.0
H2036 H 0.74444 0.84076 0.05854 0.0
C2037 C 0.72325 0.79394 0.13032 0.0
H2038 H 0.73156 0.83223 0.20919 0.0
C2039 C 0.73087 0.79885 0.04459 0.0
C2040 C 0.73846 0.81574 0.01709 0.0
H2041 H 0.71719 0.78082 0.14944 0.0
H2042 H 0.73008 0.78929 0.9983 0.0
C2043 C 0.73887 0.82769 0.07832 0.0
C2044 C 0.19997 0.93084 0.15548 0.0
C2045 C 0.19812 0.91565 0.18844 0.0
H2046 H 0.19689 0.94376 0.04129 0.0
C2047 C 0.19097 0.90145 0.13258 0.0
H2048 H 0.20565 0.942 0.19778 0.0
C2049 C 0.18565 0.90232 0.04481 0.0
C2050 C 0.18777 0.91756 0.01024 0.0
H2051 H 0.18943 0.88963 0.15703 0.0
H2052 H 0.18035 0.89109 0.00312 0.0
C2053 C 0.19497 0.93185 0.06641 0.0
C2054 C 0.09115 0.26757 0.18188 0.0
C2055 C 0.08284 0.27622 0.20762 0.0
H2056 H 0.09532 0.25388 0.07696 0.0
C2057 C 0.07123 0.27675 0.14738 0.0
H2058 H 0.1003 0.26713 0.22676 0.0
C2059 C 0.06819 0.26896 0.06199 0.0
C2060 C 0.07694 0.26077 0.03491 0.0
H2061 H 0.06457 0.28324 0.16616 0.0
H2062 H 0.05959 0.27006 0.0157 0.0
C2063 C 0.08825 0.25994 0.09631 0.0
C2064 C 0.20779 0.28467 0.10992 0.0
C2065 C 0.19704 0.27784 0.18545 0.0
H2066 H 0.212 0.2821 0.96875 0.0
C2067 C 0.18227 0.26213 0.17519 0.0
H2068 H 0.21948 0.29647 0.11548 0.0
C2069 C 0.17764 0.25429 0.08995 0.0
C2070 C 0.18823 0.2614 0.01467 0.0
H2071 H 0.17429 0.25559 0.23242 0.0
H2072 H 0.16585 0.24263 0.08291 0.0
C2073 C 0.20356 0.27639 0.02594 0.0
C2074 C 0.72339 0.92977 0.12899 0.0
C2075 C 0.72356 0.91798 0.18922 0.0
H2076 H 0.7302 0.94127 0.99697 0.0
C2077 C 0.7317 0.90917 0.16312 0.0
H2078 H 0.71727 0.93679 0.14803 0.0
C2079 C 0.73915 0.91176 0.07718 0.0
C2080 C 0.73869 0.92328 0.01589 0.0
H2081 H 0.73185 0.89989 0.20802 0.0
H2082 H 0.74477 0.90431 0.05749 0.0
C2083 C 0.73103 0.93253 0.0433 0.0
C2084 C 0.09132 0.82825 0.06951 0.0
C2085 C 0.07966 0.81639 0.00827 0.0
H2086 H 0.10315 0.83265 0.20046 0.0
C2087 C 0.07017 0.79951 0.0358 0.0
H2088 H 0.09896 0.84129 0.0497 0.0
C2089 C 0.07279 0.79453 0.12161 0.0
C2090 C 0.08471 0.80638 0.18183 0.0
H2091 H 0.06132 0.79002 0.98948 0.0
H2092 H 0.06557 0.78141 0.14075 0.0
C2093 C 0.09377 0.8233 0.15557 0.0
C2094 C 0.94305 0.53889 0.19782 0.0
C2095 C 0.9421 0.52671 0.13657 0.0
H2096 H 0.93675 0.54388 0.33029 0.0
C2097 C 0.93304 0.5097 0.1614 0.0
H2098 H 0.94988 0.55208 0.17985 0.0
C2099 C 0.92544 0.50497 0.24707 0.0
C2100 C 0.92673 0.51716 0.30948 0.0
H2101 H 0.9323 0.50008 0.11589 0.0
H2102 H 0.91908 0.49181 0.26571 0.0
C2103 C 0.9353 0.53415 0.28326 0.0
C2104 C 0.4899 0.42618 0.16413 0.0
C2105 C 0.47295 0.41729 0.13792 0.0
H2106 H 0.50786 0.43116 0.26998 0.0
C2107 C 0.46103 0.40548 0.19817 0.0
H2108 H 0.49931 0.43547 0.11919 0.0
C2109 C 0.46595 0.40278 0.28397 0.0
C2110 C 0.48285 0.41211 0.31147 0.0
H2111 H 0.4479 0.3984 0.17905 0.0
H2112 H 0.45641 0.39402 0.33031 0.0
C2113 C 0.49479 0.42365 0.25019 0.0
C2114 C 0.59978 0.06511 0.2794 0.0
C2115 C 0.59171 0.07396 0.30688 0.0
H2116 H 0.60243 0.05022 0.17522 0.0
C2117 C 0.58061 0.0753 0.24599 0.0
H2118 H 0.60822 0.06363 0.32515 0.0
C2119 C 0.57722 0.06751 0.16072 0.0
C2120 C 0.58486 0.05822 0.13463 0.0
H2121 H 0.57407 0.08188 0.26552 0.0
H2122 H 0.56823 0.06833 0.11638 0.0
C2123 C 0.59627 0.05719 0.19427 0.0
loop_
_geom_bond_atom_site_label_1
_geom_bond_atom_site_label_2
_geom_bond_distance
_geom_bond_site_symmetry_2
_ccdc_geom_bond_type
Co0 O3 1.970 . S
Co0 N17 1.989 . S
Co0 O25 1.967 . S
Co0 O32 1.920 . S
Co1 O4 1.966 . S
Co1 N10 2.022 . S
Co1 N18 1.993 . S
Co1 O26 1.941 . S
C2 O3 1.258 1_554 S
C2 O4 1.263 . S
O3 Co0 1.970 . S
O3 C2 1.258 1_556 S
O4 Co1 1.966 . S
O4 C2 1.263 . S
C5 O6 1.235 . S
C5 O32 1.289 . S
O6 C5 1.235 . S
C7 C9 1.400 . S
C7 N10 1.351 . S
C7 C12 1.501 . S
C8 C9 1.387 . S
C8 N11 1.341 . S
C9 C7 1.400 . S
C9 C8 1.387 . S
N10 Co1 2.022 . S
N10 C7 1.351 . S
N10 N11 1.365 . S
N11 C8 1.341 . S
N11 N10 1.365 . S
N11 H31 0.862 . S
C12 C7 1.501 . S
C12 H13 0.961 . S
C12 H14 0.961 . S
C12 H15 0.960 . S
H13 C12 0.961 . S
H14 C12 0.961 . S
H15 C12 0.960 . S
C16 N17 1.342 . S
C16 C20 1.401 1_556 S
C16 C21 1.499 . S
N17 Co0 1.989 . S
N17 C16 1.342 . S
N17 N18 1.388 1_556 S
N18 Co1 1.993 . S
N18 N17 1.388 1_554 S
N18 C19 1.346 . S
C19 N18 1.346 . S
C19 C20 1.396 . S
C19 C29 1.510 . S
C20 C16 1.401 1_554 S
C20 C19 1.396 . S
C21 C16 1.499 . S
C21 H22 0.959 . S
C21 H23 0.960 . S
C21 H24 0.961 . S
H22 C21 0.959 . S
H23 C21 0.960 . S
H24 C21 0.961 . S
O25 Co0 1.967 . S
O25 C33 1.258 . S
O26 Co1 1.941 . S
O26 C33 1.266 1_554 S
H27 C29 0.959 . S
H28 C29 0.961 . S
C29 C19 1.510 . S
C29 H27 0.959 . S
C29 H28 0.961 . S
C29 H30 0.960 . S
H30 C29 0.960 . S
H31 N11 0.862 . S
O32 Co0 1.920 . S
O32 C5 1.289 . S
C33 O25 1.258 . S
C33 O26 1.266 1_556 S
Co34 O37 1.970 . S
Co34 N51 1.989 . S
Co34 O59 1.967 . S
Co34 O66 1.920 . S
Co35 O38 1.966 . S
Co35 N44 2.022 . S
Co35 N52 1.993 . S
Co35 O60 1.941 . S
C36 O37 1.258 1_554 S
C36 O38 1.263 . S
O37 Co34 1.970 . S
O37 C36 1.258 1_556 S
O38 Co35 1.966 . S
O38 C36 1.263 . S
C39 O40 1.235 . S
C39 O66 1.289 . S
O40 C39 1.235 . S
C41 C43 1.400 . S
C41 N44 1.351 . S
C41 C46 1.501 . S
C42 C43 1.387 . S
C42 N45 1.341 . S
C43 C41 1.400 . S
C43 C42 1.387 . S
N44 Co35 2.022 . S
N44 C41 1.351 . S
N44 N45 1.365 . S
N45 C42 1.341 . S
N45 N44 1.365 . S
N45 H65 0.862 . S
C46 C41 1.501 . S
C46 H47 0.961 . S
C46 H48 0.961 . S
C46 H49 0.960 . S
H47 C46 0.961 . S
H48 C46 0.961 . S
H49 C46 0.960 . S
C50 N51 1.342 . S
C50 C54 1.401 1_556 S
C50 C55 1.499 . S
N51 Co34 1.989 . S
N51 C50 1.342 . S
N51 N52 1.388 1_556 S
N52 Co35 1.993 . S
N52 N51 1.388 1_554 S
N52 C53 1.346 . S
C53 N52 1.346 . S
C53 C54 1.396 . S
C53 C63 1.510 . S
C54 C50 1.401 1_554 S
C54 C53 1.396 . S
C55 C50 1.499 . S
C55 H56 0.959 . S
C55 H57 0.960 . S
C55 H58 0.961 . S
H56 C55 0.959 . S
H57 C55 0.960 . S
H58 C55 0.961 . S
O59 Co34 1.967 . S
O59 C67 1.258 . S
O60 Co35 1.941 . S
O60 C67 1.266 1_554 S
H61 C63 0.959 . S
H62 C63 0.961 . S
C63 C53 1.510 . S
C63 H61 0.959 . S
C63 H62 0.961 . S
C63 H64 0.960 . S
H64 C63 0.960 . S
H65 N45 0.862 . S
O66 Co34 1.920 . S
O66 C39 1.289 . S
C67 O59 1.258 . S
C67 O60 1.266 1_556 S
Co68 O71 1.970 . S
Co68 N85 1.989 . S
Co68 O93 1.967 . S
Co68 O100 1.920 . S
Co69 O72 1.966 . S
Co69 N78 2.022 . S
Co69 N86 1.993 . S
Co69 O94 1.941 . S
C70 O71 1.258 1_554 S
C70 O72 1.263 . S
O71 Co68 1.970 . S
O71 C70 1.258 1_556 S
O72 Co69 1.966 . S
O72 C70 1.263 . S
C73 O74 1.235 . S
C73 O100 1.289 . S
O74 C73 1.235 . S
C75 C77 1.400 . S
C75 N78 1.351 . S
C75 C80 1.501 . S
C76 C77 1.387 . S
C76 N79 1.341 . S
C77 C75 1.400 . S
C77 C76 1.387 . S
N78 Co69 2.022 . S
N78 C75 1.351 . S
N78 N79 1.365 . S
N79 C76 1.341 . S
N79 N78 1.365 . S
N79 H99 0.862 . S
C80 C75 1.501 . S
C80 H81 0.961 . S
C80 H82 0.961 . S
C80 H83 0.960 . S
H81 C80 0.961 . S
H82 C80 0.961 . S
H83 C80 0.960 . S
C84 N85 1.342 . S
C84 C88 1.401 1_556 S
C84 C89 1.499 . S
N85 Co68 1.989 . S
N85 C84 1.342 . S
N85 N86 1.388 1_556 S
N86 Co69 1.993 . S
N86 N85 1.388 1_554 S
N86 C87 1.346 . S
C87 N86 1.346 . S
C87 C88 1.396 . S
C87 C97 1.510 . S
C88 C84 1.401 1_554 S
C88 C87 1.396 . S
C89 C84 1.499 . S
C89 H90 0.959 . S
C89 H91 0.960 . S
C89 H92 0.961 . S
H90 C89 0.959 . S
H91 C89 0.960 . S
H92 C89 0.961 . S
O93 Co68 1.967 . S
O93 C101 1.258 . S
O94 Co69 1.941 . S
O94 C101 1.266 1_554 S
H95 C97 0.959 . S
H96 C97 0.961 . S
C97 C87 1.510 . S
C97 H95 0.959 . S
C97 H96 0.961 . S
C97 H98 0.960 . S
H98 C97 0.960 . S
H99 N79 0.862 . S
O100 Co68 1.920 . S
O100 C73 1.289 . S
C101 O93 1.258 . S
C101 O94 1.266 1_556 S
Co102 O105 1.970 . S
Co102 N119 1.989 . S
Co102 O127 1.967 . S
Co102 O134 1.920 . S
Co103 O106 1.966 . S
Co103 N112 2.022 . S
Co103 N120 1.993 . S
Co103 O128 1.941 . S
C104 O105 1.258 1_556 S
C104 O106 1.263 . S
O105 Co102 1.970 . S
O105 C104 1.258 1_554 S
O106 Co103 1.966 . S
O106 C104 1.263 . S
C107 O108 1.235 . S
C107 O134 1.289 . S
O108 C107 1.235 . S
C109 C111 1.400 . S
C109 N112 1.351 . S
C109 C114 1.501 . S
C110 C111 1.387 . S
C110 N113 1.341 . S
C111 C109 1.400 . S
C111 C110 1.387 . S
N112 Co103 2.022 . S
N112 C109 1.351 . S
N112 N113 1.365 . S
N113 C110 1.341 . S
N113 N112 1.365 . S
N113 H133 0.862 . S
C114 C109 1.501 . S
C114 H115 0.961 . S
C114 H116 0.961 . S
C114 H117 0.960 . S
H115 C114 0.961 . S
H116 C114 0.961 . S
H117 C114 0.960 . S
C118 N119 1.342 . S
C118 C122 1.401 1_554 S
C118 C123 1.499 . S
N119 Co102 1.989 . S
N119 C118 1.342 . S
N119 N120 1.388 1_554 S
N120 Co103 1.993 . S
N120 N119 1.388 1_556 S
N120 C121 1.346 . S
C121 N120 1.346 . S
C121 C122 1.396 . S
C121 C131 1.510 . S
C122 C118 1.401 1_556 S
C122 C121 1.396 . S
C123 C118 1.499 . S
C123 H124 0.959 . S
C123 H125 0.960 . S
C123 H126 0.961 . S
H124 C123 0.959 . S
H125 C123 0.960 . S
H126 C123 0.961 . S
O127 Co102 1.967 . S
O127 C135 1.258 . S
O128 Co103 1.941 . S
O128 C135 1.266 1_556 S
H129 C131 0.959 . S
H130 C131 0.961 . S
C131 C121 1.510 . S
C131 H129 0.959 . S
C131 H130 0.961 . S
C131 H132 0.960 . S
H132 C131 0.960 . S
H133 N113 0.862 . S
O134 Co102 1.920 . S
O134 C107 1.289 . S
C135 O127 1.258 . S
C135 O128 1.266 1_554 S
Co136 O139 1.970 . S
Co136 N153 1.989 . S
Co136 O161 1.967 . S
Co136 O168 1.920 . S
Co137 O140 1.966 . S
Co137 N146 2.022 . S
Co137 N154 1.993 . S
Co137 O162 1.941 . S
C138 O139 1.258 1_556 S
C138 O140 1.263 . S
O139 Co136 1.970 . S
O139 C138 1.258 1_554 S
O140 Co137 1.966 . S
O140 C138 1.263 . S
C141 O142 1.235 . S
C141 O168 1.289 . S
O142 C141 1.235 . S
C143 C145 1.400 . S
C143 N146 1.351 . S
C143 C148 1.501 . S
C144 C145 1.387 . S
C144 N147 1.341 . S
C145 C143 1.400 . S
C145 C144 1.387 . S
N146 Co137 2.022 . S
N146 C143 1.351 . S
N146 N147 1.365 . S
N147 C144 1.341 . S
N147 N146 1.365 . S
N147 H167 0.862 . S
C148 C143 1.501 . S
C148 H149 0.961 . S
C148 H150 0.961 . S
C148 H151 0.960 . S
H149 C148 0.961 . S
H150 C148 0.961 . S
H151 C148 0.960 . S
C152 N153 1.342 . S
C152 C156 1.401 1_554 S
C152 C157 1.499 . S
N153 Co136 1.989 . S
N153 C152 1.342 . S
N153 N154 1.388 1_554 S
N154 Co137 1.993 . S
N154 N153 1.388 1_556 S
N154 C155 1.346 . S
C155 N154 1.346 . S
C155 C156 1.396 . S
C155 C165 1.510 . S
C156 C152 1.401 1_556 S
C156 C155 1.396 . S
C157 C152 1.499 . S
C157 H158 0.959 . S
C157 H159 0.960 . S
C157 H160 0.961 . S
H158 C157 0.959 . S
H159 C157 0.960 . S
H160 C157 0.961 . S
O161 Co136 1.967 . S
O161 C169 1.258 . S
O162 Co137 1.941 . S
O162 C169 1.266 1_556 S
H163 C165 0.959 . S
H164 C165 0.961 . S
C165 C155 1.510 . S
C165 H163 0.959 . S
C165 H164 0.961 . S
C165 H166 0.960 . S
H166 C165 0.960 . S
H167 N147 0.862 . S
O168 Co136 1.920 . S
O168 C141 1.289 . S
C169 O161 1.258 . S
C169 O162 1.266 1_554 S
Co170 O173 1.970 . S
Co170 N187 1.989 . S
Co170 O195 1.967 . S
Co170 O202 1.920 . S
Co171 O174 1.966 . S
Co171 N180 2.022 . S
Co171 N188 1.993 . S
Co171 O196 1.941 . S
C172 O173 1.258 1_556 S
C172 O174 1.263 . S
O173 Co170 1.970 . S
O173 C172 1.258 1_554 S
O174 Co171 1.966 . S
O174 C172 1.263 . S
C175 O176 1.235 . S
C175 O202 1.289 . S
O176 C175 1.235 . S
C177 C179 1.400 . S
C177 N180 1.351 . S
C177 C182 1.501 . S
C178 C179 1.387 . S
C178 N181 1.341 . S
C179 C177 1.400 . S
C179 C178 1.387 . S
N180 Co171 2.022 . S
N180 C177 1.351 . S
N180 N181 1.365 . S
N181 C178 1.341 . S
N181 N180 1.365 . S
N181 H201 0.862 . S
C182 C177 1.501 . S
C182 H183 0.961 . S
C182 H184 0.961 . S
C182 H185 0.960 . S
H183 C182 0.961 . S
H184 C182 0.961 . S
H185 C182 0.960 . S
C186 N187 1.342 . S
C186 C190 1.401 1_554 S
C186 C191 1.499 . S
N187 Co170 1.989 . S
N187 C186 1.342 . S
N187 N188 1.388 1_554 S
N188 Co171 1.993 . S
N188 N187 1.388 1_556 S
N188 C189 1.346 . S
C189 N188 1.346 . S
C189 C190 1.396 . S
C189 C199 1.510 . S
C190 C186 1.401 1_556 S
C190 C189 1.396 . S
C191 C186 1.499 . S
C191 H192 0.959 . S
C191 H193 0.960 . S
C191 H194 0.961 . S
H192 C191 0.959 . S
H193 C191 0.960 . S
H194 C191 0.961 . S
O195 Co170 1.967 . S
O195 C203 1.258 . S
O196 Co171 1.941 . S
O196 C203 1.266 1_556 S
H197 C199 0.959 . S
H198 C199 0.961 . S
C199 C189 1.510 . S
C199 H197 0.959 . S
C199 H198 0.961 . S
C199 H200 0.960 . S
H200 C199 0.960 . S
H201 N181 0.862 . S
O202 Co170 1.920 . S
O202 C175 1.289 . S
C203 O195 1.258 . S
C203 O196 1.266 1_554 S
Co204 O207 1.970 . S
Co204 N221 1.989 . S
Co204 O229 1.967 . S
Co204 O236 1.920 . S
Co205 O208 1.966 . S
Co205 N214 2.022 . S
Co205 N222 1.993 . S
Co205 O230 1.941 . S
C206 O207 1.258 1_556 S
C206 O208 1.263 . S
O207 Co204 1.970 . S
O207 C206 1.258 1_554 S
O208 Co205 1.966 . S
O208 C206 1.263 . S
C209 O210 1.235 . S
C209 O236 1.289 . S
O210 C209 1.235 . S
C211 C213 1.400 . S
C211 N214 1.351 . S
C211 C216 1.501 . S
C212 C213 1.387 . S
C212 N215 1.341 . S
C213 C211 1.400 . S
C213 C212 1.387 . S
N214 Co205 2.022 . S
N214 C211 1.351 . S
N214 N215 1.365 . S
N215 C212 1.341 . S
N215 N214 1.365 . S
N215 H235 0.862 . S
C216 C211 1.501 . S
C216 H217 0.961 . S
C216 H218 0.961 . S
C216 H219 0.960 . S
H217 C216 0.961 . S
H218 C216 0.961 . S
H219 C216 0.960 . S
C220 N221 1.342 . S
C220 C224 1.401 1_554 S
C220 C225 1.499 . S
N221 Co204 1.989 . S
N221 C220 1.342 . S
N221 N222 1.388 1_554 S
N222 Co205 1.993 . S
N222 N221 1.388 1_556 S
N222 C223 1.346 . S
C223 N222 1.346 . S
C223 C224 1.396 . S
C223 C233 1.510 . S
C224 C220 1.401 1_556 S
C224 C223 1.396 . S
C225 C220 1.499 . S
C225 H226 0.959 . S
C225 H227 0.960 . S
C225 H228 0.961 . S
H226 C225 0.959 . S
H227 C225 0.960 . S
H228 C225 0.961 . S
O229 Co204 1.967 . S
O229 C237 1.258 . S
O230 Co205 1.941 . S
O230 C237 1.266 1_556 S
H231 C233 0.959 . S
H232 C233 0.961 . S
C233 C223 1.510 . S
C233 H231 0.959 . S
C233 H232 0.961 . S
C233 H234 0.960 . S
H234 C233 0.960 . S
H235 N215 0.862 . S
O236 Co204 1.920 . S
O236 C209 1.289 . S
C237 O229 1.258 . S
C237 O230 1.266 1_554 S
Co238 O241 1.970 . S
Co238 N255 1.989 . S
Co238 O263 1.967 . S
Co238 O270 1.920 . S
Co239 O242 1.966 . S
Co239 N248 2.022 . S
Co239 N256 1.993 . S
Co239 O264 1.941 . S
C240 O241 1.258 1_556 S
C240 O242 1.263 . S
O241 Co238 1.970 . S
O241 C240 1.258 1_554 S
O242 Co239 1.966 . S
O242 C240 1.263 . S
C243 O244 1.235 . S
C243 O270 1.289 . S
O244 C243 1.235 . S
C245 C247 1.400 . S
C245 N248 1.351 . S
C245 C250 1.501 . S
C246 C247 1.387 . S
C246 N249 1.341 . S
C247 C245 1.400 . S
C247 C246 1.387 . S
N248 Co239 2.022 . S
N248 C245 1.351 . S
N248 N249 1.365 . S
N249 C246 1.341 . S
N249 N248 1.365 . S
N249 H269 0.862 . S
C250 C245 1.501 . S
C250 H251 0.961 . S
C250 H252 0.961 . S
C250 H253 0.960 . S
H251 C250 0.961 . S
H252 C250 0.961 . S
H253 C250 0.960 . S
C254 N255 1.342 . S
C254 C258 1.401 1_554 S
C254 C259 1.499 . S
N255 Co238 1.989 . S
N255 C254 1.342 . S
N255 N256 1.388 1_554 S
N256 Co239 1.993 . S
N256 N255 1.388 1_556 S
N256 C257 1.346 . S
C257 N256 1.346 . S
C257 C258 1.396 . S
C257 C267 1.510 . S
C258 C254 1.401 1_556 S
C258 C257 1.396 . S
C259 C254 1.499 . S
C259 H260 0.959 . S
C259 H261 0.960 . S
C259 H262 0.961 . S
H260 C259 0.959 . S
H261 C259 0.960 . S
H262 C259 0.961 . S
O263 Co238 1.967 . S
O263 C271 1.258 . S
O264 Co239 1.941 . S
O264 C271 1.266 1_556 S
H265 C267 0.959 . S
H266 C267 0.961 . S
C267 C257 1.510 . S
C267 H265 0.959 . S
C267 H266 0.961 . S
C267 H268 0.960 . S
H268 C267 0.960 . S
H269 N249 0.862 . S
O270 Co238 1.920 . S
O270 C243 1.289 . S
C271 O263 1.258 . S
C271 O264 1.266 1_554 S
Co272 O275 1.970 . S
Co272 N289 1.989 . S
Co272 O297 1.967 . S
Co272 O304 1.920 . S
Co273 O276 1.966 . S
Co273 N282 2.022 . S
Co273 N290 1.993 . S
Co273 O298 1.941 . S
C274 O275 1.258 1_556 S
C274 O276 1.263 . S
O275 Co272 1.970 . S
O275 C274 1.258 1_554 S
O276 Co273 1.966 . S
O276 C274 1.263 . S
C277 O278 1.235 . S
C277 O304 1.289 . S
O278 C277 1.235 . S
C279 C281 1.400 . S
C279 N282 1.351 . S
C279 C284 1.501 . S
C280 C281 1.387 . S
C280 N283 1.341 . S
C281 C279 1.400 . S
C281 C280 1.387 . S
N282 Co273 2.022 . S
N282 C279 1.351 . S
N282 N283 1.365 . S
N283 C280 1.341 . S
N283 N282 1.365 . S
N283 H303 0.862 . S
C284 C279 1.501 . S
C284 H285 0.961 . S
C284 H286 0.961 . S
C284 H287 0.960 . S
H285 C284 0.961 . S
H286 C284 0.961 . S
H287 C284 0.960 . S
C288 N289 1.342 . S
C288 C292 1.401 1_554 S
C288 C293 1.499 . S
N289 Co272 1.989 . S
N289 C288 1.342 . S
N289 N290 1.388 1_554 S
N290 Co273 1.993 . S
N290 N289 1.388 1_556 S
N290 C291 1.346 . S
C291 N290 1.346 . S
C291 C292 1.396 . S
C291 C301 1.510 . S
C292 C288 1.401 1_556 S
C292 C291 1.396 . S
C293 C288 1.499 . S
C293 H294 0.959 . S
C293 H295 0.960 . S
C293 H296 0.961 . S
H294 C293 0.959 . S
H295 C293 0.960 . S
H296 C293 0.961 . S
O297 Co272 1.967 . S
O297 C305 1.258 . S
O298 Co273 1.941 . S
O298 C305 1.266 1_556 S
H299 C301 0.959 . S
H300 C301 0.961 . S
C301 C291 1.510 . S
C301 H299 0.959 . S
C301 H300 0.961 . S
C301 H302 0.960 . S
H302 C301 0.960 . S
H303 N283 0.862 . S
O304 Co272 1.920 . S
O304 C277 1.289 . S
C305 O297 1.258 . S
C305 O298 1.266 1_554 S
Co306 O309 1.970 . S
Co306 N323 1.989 . S
Co306 O331 1.967 . S
Co306 O338 1.920 . S
Co307 O310 1.966 . S
Co307 N316 2.022 . S
Co307 N324 1.993 . S
Co307 O332 1.941 . S
C308 O309 1.258 1_554 S
C308 O310 1.263 . S
O309 Co306 1.970 . S
O309 C308 1.258 1_556 S
O310 Co307 1.966 . S
O310 C308 1.263 . S
C311 O312 1.235 . S
C311 O338 1.289 . S
O312 C311 1.235 . S
C313 C315 1.400 . S
C313 N316 1.351 . S
C313 C318 1.501 . S
C314 C315 1.387 . S
C314 N317 1.341 . S
C315 C313 1.400 . S
C315 C314 1.387 . S
N316 Co307 2.022 . S
N316 C313 1.351 . S
N316 N317 1.365 . S
N317 C314 1.341 . S
N317 N316 1.365 . S
N317 H337 0.862 . S
C318 C313 1.501 . S
C318 H319 0.961 . S
C318 H320 0.961 . S
C318 H321 0.960 . S
H319 C318 0.961 . S
H320 C318 0.961 . S
H321 C318 0.960 . S
C322 N323 1.342 . S
C322 C326 1.401 1_556 S
C322 C327 1.499 . S
N323 Co306 1.989 . S
N323 C322 1.342 . S
N323 N324 1.388 1_556 S
N324 Co307 1.993 . S
N324 N323 1.388 1_554 S
N324 C325 1.346 . S
C325 N324 1.346 . S
C325 C326 1.396 . S
C325 C335 1.510 . S
C326 C322 1.401 1_554 S
C326 C325 1.396 . S
C327 C322 1.499 . S
C327 H328 0.959 . S
C327 H329 0.960 . S
C327 H330 0.961 . S
H328 C327 0.959 . S
H329 C327 0.960 . S
H330 C327 0.961 . S
O331 Co306 1.967 . S
O331 C339 1.258 . S
O332 Co307 1.941 . S
O332 C339 1.266 1_554 S
H333 C335 0.959 . S
H334 C335 0.961 . S
C335 C325 1.510 . S
C335 H333 0.959 . S
C335 H334 0.961 . S
C335 H336 0.960 . S
H336 C335 0.960 . S
H337 N317 0.862 . S
O338 Co306 1.920 . S
O338 C311 1.289 . S
C339 O331 1.258 . S
C339 O332 1.266 1_556 S
Co340 O343 1.970 . S
Co340 N357 1.989 . S
Co340 O365 1.967 . S
Co340 O372 1.920 . S
Co341 O344 1.966 . S
Co341 N350 2.022 . S
Co341 N358 1.993 . S
Co341 O366 1.941 . S
C342 O343 1.258 1_554 S
C342 O344 1.263 . S
O343 Co340 1.970 . S
O343 C342 1.258 1_556 S
O344 Co341 1.966 . S
O344 C342 1.263 . S
C345 O346 1.235 . S
C345 O372 1.289 . S
O346 C345 1.235 . S
C347 C349 1.400 . S
C347 N350 1.351 . S
C347 C352 1.501 . S
C348 C349 1.387 . S
C348 N351 1.341 . S
C349 C347 1.400 . S
C349 C348 1.387 . S
N350 Co341 2.022 . S
N350 C347 1.351 . S
N350 N351 1.365 . S
N351 C348 1.341 . S
N351 N350 1.365 . S
N351 H371 0.862 . S
C352 C347 1.501 . S
C352 H353 0.961 . S
C352 H354 0.961 . S
C352 H355 0.960 . S
H353 C352 0.961 . S
H354 C352 0.961 . S
H355 C352 0.960 . S
C356 N357 1.342 . S
C356 C360 1.401 1_556 S
C356 C361 1.499 . S
N357 Co340 1.989 . S
N357 C356 1.342 . S
N357 N358 1.388 1_556 S
N358 Co341 1.993 . S
N358 N357 1.388 1_554 S
N358 C359 1.346 . S
C359 N358 1.346 . S
C359 C360 1.396 . S
C359 C369 1.510 . S
C360 C356 1.401 1_554 S
C360 C359 1.396 . S
C361 C356 1.499 . S
C361 H362 0.959 . S
C361 H363 0.960 . S
C361 H364 0.961 . S
H362 C361 0.959 . S
H363 C361 0.960 . S
H364 C361 0.961 . S
O365 Co340 1.967 . S
O365 C373 1.258 . S
O366 Co341 1.941 . S
O366 C373 1.266 1_554 S
H367 C369 0.959 . S
H368 C369 0.961 . S
C369 C359 1.510 . S
C369 H367 0.959 . S
C369 H368 0.961 . S
C369 H370 0.960 . S
H370 C369 0.960 . S
H371 N351 0.862 . S
O372 Co340 1.920 . S
O372 C345 1.289 . S
C373 O365 1.258 . S
C373 O366 1.266 1_556 S
Co374 O377 1.970 . S
Co374 N391 1.989 . S
Co374 O399 1.967 . S
Co374 O406 1.920 . S
Co375 O378 1.966 . S
Co375 N384 2.022 . S
Co375 N392 1.993 . S
Co375 O400 1.941 . S
C376 O377 1.258 1_554 S
C376 O378 1.263 . S
O377 Co374 1.970 . S
O377 C376 1.258 1_556 S
O378 Co375 1.966 . S
O378 C376 1.263 . S
C379 O380 1.235 . S
C379 O406 1.289 . S
O380 C379 1.235 . S
C381 C383 1.400 . S
C381 N384 1.351 . S
C381 C386 1.501 . S
C382 C383 1.387 . S
C382 N385 1.341 . S
C383 C381 1.400 . S
C383 C382 1.387 . S
N384 Co375 2.022 . S
N384 C381 1.351 . S
N384 N385 1.365 . S
N385 C382 1.341 . S
N385 N384 1.365 . S
N385 H405 0.862 . S
C386 C381 1.501 . S
C386 H387 0.961 . S
C386 H388 0.961 . S
C386 H389 0.960 . S
H387 C386 0.961 . S
H388 C386 0.961 . S
H389 C386 0.960 . S
C390 N391 1.342 . S
C390 C394 1.401 1_556 S
C390 C395 1.499 . S
N391 Co374 1.989 . S
N391 C390 1.342 . S
N391 N392 1.388 1_556 S
N392 Co375 1.993 . S
N392 N391 1.388 1_554 S
N392 C393 1.346 . S
C393 N392 1.346 . S
C393 C394 1.396 . S
C393 C403 1.510 . S
C394 C390 1.401 1_554 S
C394 C393 1.396 . S
C395 C390 1.499 . S
C395 H396 0.959 . S
C395 H397 0.960 . S
C395 H398 0.961 . S
H396 C395 0.959 . S
H397 C395 0.960 . S
H398 C395 0.961 . S
O399 Co374 1.967 . S
O399 C407 1.258 . S
O400 Co375 1.941 . S
O400 C407 1.266 1_554 S
H401 C403 0.959 . S
H402 C403 0.961 . S
C403 C393 1.510 . S
C403 H401 0.959 . S
C403 H402 0.961 . S
C403 H404 0.960 . S
H404 C403 0.960 . S
H405 N385 0.862 . S
O406 Co374 1.920 . S
O406 C379 1.289 . S
C407 O399 1.258 . S
C407 O400 1.266 1_556 S
Co408 O411 1.970 . S
Co408 N425 1.989 . S
Co408 O433 1.967 . S
Co408 O440 1.920 . S
Co409 O412 1.966 . S
Co409 N418 2.022 . S
Co409 N426 1.993 . S
Co409 O434 1.941 . S
C410 O411 1.258 . S
C410 O412 1.263 . S
O411 Co408 1.970 . S
O411 C410 1.258 . S
O412 Co409 1.966 . S
O412 C410 1.263 . S
C413 O414 1.235 . S
C413 O440 1.289 . S
O414 C413 1.235 . S
C415 C417 1.400 . S
C415 N418 1.351 . S
C415 C420 1.501 . S
C416 C417 1.387 . S
C416 N419 1.341 . S
C417 C415 1.400 . S
C417 C416 1.387 . S
N418 Co409 2.022 . S
N418 C415 1.351 . S
N418 N419 1.365 . S
N419 C416 1.341 . S
N419 N418 1.365 . S
N419 H439 0.862 . S
C420 C415 1.501 . S
C420 H421 0.961 . S
C420 H422 0.961 . S
C420 H423 0.960 . S
H421 C420 0.961 . S
H422 C420 0.961 . S
H423 C420 0.960 . S
C424 N425 1.342 . S
C424 C428 1.401 . S
C424 C429 1.499 . S
N425 Co408 1.989 . S
N425 C424 1.342 . S
N425 N426 1.388 . S
N426 Co409 1.993 . S
N426 N425 1.388 . S
N426 C427 1.346 . S
C427 N426 1.346 . S
C427 C428 1.396 . S
C427 C437 1.510 . S
C428 C424 1.401 . S
C428 C427 1.396 . S
C429 C424 1.499 . S
C429 H430 0.959 . S
C429 H431 0.960 . S
C429 H432 0.961 . S
H430 C429 0.959 . S
H431 C429 0.960 . S
H432 C429 0.961 . S
O433 Co408 1.967 . S
O433 C441 1.258 . S
O434 Co409 1.941 . S
O434 C441 1.266 . S
H435 C437 0.959 . S
H436 C437 0.961 . S
C437 C427 1.510 . S
C437 H435 0.959 . S
C437 H436 0.961 . S
C437 H438 0.960 . S
H438 C437 0.960 . S
H439 N419 0.862 . S
O440 Co408 1.920 . S
O440 C413 1.289 . S
C441 O433 1.258 . S
C441 O434 1.266 . S
Co442 O445 1.970 . S
Co442 N459 1.989 . S
Co442 O467 1.967 . S
Co442 O474 1.920 . S
Co443 O446 1.966 . S
Co443 N452 2.022 . S
Co443 N460 1.993 . S
Co443 O468 1.941 . S
C444 O445 1.258 . S
C444 O446 1.263 . S
O445 Co442 1.970 . S
O445 C444 1.258 . S
O446 Co443 1.966 . S
O446 C444 1.263 . S
C447 O448 1.235 . S
C447 O474 1.289 . S
O448 C447 1.235 . S
C449 C451 1.400 . S
C449 N452 1.351 . S
C449 C454 1.501 . S
C450 C451 1.387 . S
C450 N453 1.341 . S
C451 C449 1.400 . S
C451 C450 1.387 . S
N452 Co443 2.022 . S
N452 C449 1.351 . S
N452 N453 1.365 . S
N453 C450 1.341 . S
N453 N452 1.365 . S
N453 H473 0.862 . S
C454 C449 1.501 . S
C454 H455 0.961 . S
C454 H456 0.961 . S
C454 H457 0.960 . S
H455 C454 0.961 . S
H456 C454 0.961 . S
H457 C454 0.960 . S
C458 N459 1.342 . S
C458 C462 1.401 . S
C458 C463 1.499 . S
N459 Co442 1.989 . S
N459 C458 1.342 . S
N459 N460 1.388 . S
N460 Co443 1.993 . S
N460 N459 1.388 . S
N460 C461 1.346 . S
C461 N460 1.346 . S
C461 C462 1.396 . S
C461 C471 1.510 . S
C462 C458 1.401 . S
C462 C461 1.396 . S
C463 C458 1.499 . S
C463 H464 0.959 . S
C463 H465 0.960 . S
C463 H466 0.961 . S
H464 C463 0.959 . S
H465 C463 0.960 . S
H466 C463 0.961 . S
O467 Co442 1.967 . S
O467 C475 1.258 . S
O468 Co443 1.941 . S
O468 C475 1.266 . S
H469 C471 0.959 . S
H470 C471 0.961 . S
C471 C461 1.510 . S
C471 H469 0.959 . S
C471 H470 0.961 . S
C471 H472 0.960 . S
H472 C471 0.960 . S
H473 N453 0.862 . S
O474 Co442 1.920 . S
O474 C447 1.289 . S
C475 O467 1.258 . S
C475 O468 1.266 . S
Co476 O479 1.970 . S
Co476 N493 1.989 . S
Co476 O501 1.967 . S
Co476 O508 1.920 . S
Co477 O480 1.966 . S
Co477 N486 2.022 . S
Co477 N494 1.993 . S
Co477 O502 1.941 . S
C478 O479 1.258 . S
C478 O480 1.263 . S
O479 Co476 1.970 . S
O479 C478 1.258 . S
O480 Co477 1.966 . S
O480 C478 1.263 . S
C481 O482 1.235 . S
C481 O508 1.289 . S
O482 C481 1.235 . S
C483 C485 1.400 . S
C483 N486 1.351 . S
C483 C488 1.501 . S
C484 C485 1.387 . S
C484 N487 1.341 . S
C485 C483 1.400 . S
C485 C484 1.387 . S
N486 Co477 2.022 . S
N486 C483 1.351 . S
N486 N487 1.365 . S
N487 C484 1.341 . S
N487 N486 1.365 . S
N487 H507 0.862 . S
C488 C483 1.501 . S
C488 H489 0.961 . S
C488 H490 0.961 . S
C488 H491 0.960 . S
H489 C488 0.961 . S
H490 C488 0.961 . S
H491 C488 0.960 . S
C492 N493 1.342 . S
C492 C496 1.401 . S
C492 C497 1.499 . S
N493 Co476 1.989 . S
N493 C492 1.342 . S
N493 N494 1.388 . S
N494 Co477 1.993 . S
N494 N493 1.388 . S
N494 C495 1.346 . S
C495 N494 1.346 . S
C495 C496 1.396 . S
C495 C505 1.510 . S
C496 C492 1.401 . S
C496 C495 1.396 . S
C497 C492 1.499 . S
C497 H498 0.959 . S
C497 H499 0.960 . S
C497 H500 0.961 . S
H498 C497 0.959 . S
H499 C497 0.960 . S
H500 C497 0.961 . S
O501 Co476 1.967 . S
O501 C509 1.258 . S
O502 Co477 1.941 . S
O502 C509 1.266 . S
H503 C505 0.959 . S
H504 C505 0.961 . S
C505 C495 1.510 . S
C505 H503 0.959 . S
C505 H504 0.961 . S
C505 H506 0.960 . S
H506 C505 0.960 . S
H507 N487 0.862 . S
O508 Co476 1.920 . S
O508 C481 1.289 . S
C509 O501 1.258 . S
C509 O502 1.266 . S
Co510 O513 1.970 . S
Co510 N527 1.989 . S
Co510 O535 1.967 . S
Co510 O542 1.920 . S
Co511 O514 1.966 . S
Co511 N520 2.022 . S
Co511 N528 1.993 . S
Co511 O536 1.941 . S
C512 O513 1.258 . S
C512 O514 1.263 . S
O513 Co510 1.970 . S
O513 C512 1.258 . S
O514 Co511 1.966 . S
O514 C512 1.263 . S
C515 O516 1.235 . S
C515 O542 1.289 . S
O516 C515 1.235 . S
C517 C519 1.400 1_554 S
C517 N520 1.351 . S
C517 C522 1.501 . S
C518 C519 1.387 . S
C518 N521 1.341 1_556 S
C519 C517 1.400 1_556 S
C519 C518 1.387 . S
N520 Co511 2.022 . S
N520 C517 1.351 . S
N520 N521 1.365 . S
N521 C518 1.341 1_554 S
N521 N520 1.365 . S
N521 H541 0.862 . S
C522 C517 1.501 . S
C522 H523 0.961 . S
C522 H524 0.961 . S
C522 H525 0.960 . S
H523 C522 0.961 . S
H524 C522 0.961 . S
H525 C522 0.960 . S
C526 N527 1.342 . S
C526 C530 1.401 . S
C526 C531 1.499 . S
N527 Co510 1.989 . S
N527 C526 1.342 . S
N527 N528 1.388 . S
N528 Co511 1.993 . S
N528 N527 1.388 . S
N528 C529 1.346 . S
C529 N528 1.346 . S
C529 C530 1.396 . S
C529 C539 1.510 . S
C530 C526 1.401 . S
C530 C529 1.396 . S
C531 C526 1.499 . S
C531 H532 0.959 . S
C531 H533 0.960 . S
C531 H534 0.961 . S
H532 C531 0.959 . S
H533 C531 0.960 . S
H534 C531 0.961 . S
O535 Co510 1.967 . S
O535 C543 1.258 . S
O536 Co511 1.941 . S
O536 C543 1.266 . S
H537 C539 0.959 . S
H538 C539 0.961 . S
C539 C529 1.510 . S
C539 H537 0.959 . S
C539 H538 0.961 . S
C539 H540 0.960 . S
H540 C539 0.960 . S
H541 N521 0.862 . S
O542 Co510 1.920 . S
O542 C515 1.289 . S
C543 O535 1.258 . S
C543 O536 1.266 . S
Co544 O547 1.970 . S
Co544 N561 1.989 . S
Co544 O569 1.967 . S
Co544 O576 1.920 . S
Co545 O548 1.966 . S
Co545 N554 2.022 . S
Co545 N562 1.993 . S
Co545 O570 1.941 . S
C546 O547 1.258 . S
C546 O548 1.263 . S
O547 Co544 1.970 . S
O547 C546 1.258 . S
O548 Co545 1.966 . S
O548 C546 1.263 . S
C549 O550 1.235 . S
C549 O576 1.289 . S
O550 C549 1.235 . S
C551 C553 1.400 1_554 S
C551 N554 1.351 . S
C551 C556 1.501 . S
C552 C553 1.387 . S
C552 N555 1.341 1_556 S
C553 C551 1.400 1_556 S
C553 C552 1.387 . S
N554 Co545 2.022 . S
N554 C551 1.351 . S
N554 N555 1.365 . S
N555 C552 1.341 1_554 S
N555 N554 1.365 . S
N555 H575 0.862 . S
C556 C551 1.501 . S
C556 H557 0.961 . S
C556 H558 0.961 . S
C556 H559 0.960 . S
H557 C556 0.961 . S
H558 C556 0.961 . S
H559 C556 0.960 . S
C560 N561 1.342 . S
C560 C564 1.401 . S
C560 C565 1.499 . S
N561 Co544 1.989 . S
N561 C560 1.342 . S
N561 N562 1.388 . S
N562 Co545 1.993 . S
N562 N561 1.388 . S
N562 C563 1.346 . S
C563 N562 1.346 . S
C563 C564 1.396 . S
C563 C573 1.510 . S
C564 C560 1.401 . S
C564 C563 1.396 . S
C565 C560 1.499 . S
C565 H566 0.959 . S
C565 H567 0.960 . S
C565 H568 0.961 . S
H566 C565 0.959 . S
H567 C565 0.960 . S
H568 C565 0.961 . S
O569 Co544 1.967 . S
O569 C577 1.258 . S
O570 Co545 1.941 . S
O570 C577 1.266 . S
H571 C573 0.959 . S
H572 C573 0.961 . S
C573 C563 1.510 . S
C573 H571 0.959 . S
C573 H572 0.961 . S
C573 H574 0.960 . S
H574 C573 0.960 . S
H575 N555 0.862 . S
O576 Co544 1.920 . S
O576 C549 1.289 . S
C577 O569 1.258 . S
C577 O570 1.266 . S
Co578 O581 1.970 . S
Co578 N595 1.989 . S
Co578 O603 1.967 . S
Co578 O610 1.920 . S
Co579 O582 1.966 . S
Co579 N588 2.022 . S
Co579 N596 1.993 . S
Co579 O604 1.941 . S
C580 O581 1.258 . S
C580 O582 1.263 . S
O581 Co578 1.970 . S
O581 C580 1.258 . S
O582 Co579 1.966 . S
O582 C580 1.263 . S
C583 O584 1.235 . S
C583 O610 1.289 . S
O584 C583 1.235 . S
C585 C587 1.400 1_554 S
C585 N588 1.351 . S
C585 C590 1.501 . S
C586 C587 1.387 . S
C586 N589 1.341 1_556 S
C587 C585 1.400 1_556 S
C587 C586 1.387 . S
N588 Co579 2.022 . S
N588 C585 1.351 . S
N588 N589 1.365 . S
N589 C586 1.341 1_554 S
N589 N588 1.365 . S
N589 H609 0.862 . S
C590 C585 1.501 . S
C590 H591 0.961 . S
C590 H592 0.961 . S
C590 H593 0.960 . S
H591 C590 0.961 . S
H592 C590 0.961 . S
H593 C590 0.960 . S
C594 N595 1.342 . S
C594 C598 1.401 . S
C594 C599 1.499 . S
N595 Co578 1.989 . S
N595 C594 1.342 . S
N595 N596 1.388 . S
N596 Co579 1.993 . S
N596 N595 1.388 . S
N596 C597 1.346 . S
C597 N596 1.346 . S
C597 C598 1.396 . S
C597 C607 1.510 . S
C598 C594 1.401 . S
C598 C597 1.396 . S
C599 C594 1.499 . S
C599 H600 0.959 . S
C599 H601 0.960 . S
C599 H602 0.961 . S
H600 C599 0.959 . S
H601 C599 0.960 . S
H602 C599 0.961 . S
O603 Co578 1.967 . S
O603 C611 1.258 . S
O604 Co579 1.941 . S
O604 C611 1.266 . S
H605 C607 0.959 . S
H606 C607 0.961 . S
C607 C597 1.510 . S
C607 H605 0.959 . S
C607 H606 0.961 . S
C607 H608 0.960 . S
H608 C607 0.960 . S
H609 N589 0.862 . S
O610 Co578 1.920 . S
O610 C583 1.289 . S
C611 O603 1.258 . S
C611 O604 1.266 . S
Co612 O615 1.970 . S
Co612 N629 1.989 . S
Co612 O637 1.967 . S
Co612 O644 1.920 . S
Co613 O616 1.966 . S
Co613 N622 2.022 . S
Co613 N630 1.993 . S
Co613 O638 1.941 . S
C614 O615 1.258 . S
C614 O616 1.263 . S
O615 Co612 1.970 . S
O615 C614 1.258 . S
O616 Co613 1.966 . S
O616 C614 1.263 . S
C617 O618 1.235 . S
C617 O644 1.289 . S
O618 C617 1.235 . S
C619 C621 1.400 1_554 S
C619 N622 1.351 . S
C619 C624 1.501 . S
C620 C621 1.387 . S
C620 N623 1.341 1_556 S
C621 C619 1.400 1_556 S
C621 C620 1.387 . S
N622 Co613 2.022 . S
N622 C619 1.351 . S
N622 N623 1.365 . S
N623 C620 1.341 1_554 S
N623 N622 1.365 . S
N623 H643 0.862 . S
C624 C619 1.501 . S
C624 H625 0.961 . S
C624 H626 0.961 . S
C624 H627 0.960 . S
H625 C624 0.961 . S
H626 C624 0.961 . S
H627 C624 0.960 . S
C628 N629 1.342 . S
C628 C632 1.401 . S
C628 C633 1.499 . S
N629 Co612 1.989 . S
N629 C628 1.342 . S
N629 N630 1.388 . S
N630 Co613 1.993 . S
N630 N629 1.388 . S
N630 C631 1.346 . S
C631 N630 1.346 . S
C631 C632 1.396 . S
C631 C641 1.510 . S
C632 C628 1.401 . S
C632 C631 1.396 . S
C633 C628 1.499 . S
C633 H634 0.959 . S
C633 H635 0.960 . S
C633 H636 0.961 . S
H634 C633 0.959 . S
H635 C633 0.960 . S
H636 C633 0.961 . S
O637 Co612 1.967 . S
O637 C645 1.258 . S
O638 Co613 1.941 . S
O638 C645 1.266 . S
H639 C641 0.959 . S
H640 C641 0.961 . S
C641 C631 1.510 . S
C641 H639 0.959 . S
C641 H640 0.961 . S
C641 H642 0.960 . S
H642 C641 0.960 . S
H643 N623 0.862 . S
O644 Co612 1.920 . S
O644 C617 1.289 . S
C645 O637 1.258 . S
C645 O638 1.266 . S
Co646 O649 1.970 . S
Co646 N663 1.989 . S
Co646 O671 1.967 . S
Co646 O678 1.920 . S
Co647 O650 1.966 . S
Co647 N656 2.022 . S
Co647 N664 1.993 . S
Co647 O672 1.941 . S
C648 O649 1.258 . S
C648 O650 1.263 . S
O649 Co646 1.970 . S
O649 C648 1.258 . S
O650 Co647 1.966 . S
O650 C648 1.263 . S
C651 O652 1.235 . S
C651 O678 1.289 . S
O652 C651 1.235 . S
C653 C655 1.400 1_554 S
C653 N656 1.351 . S
C653 C658 1.501 . S
C654 C655 1.387 . S
C654 N657 1.341 1_556 S
C655 C653 1.400 1_556 S
C655 C654 1.387 . S
N656 Co647 2.022 . S
N656 C653 1.351 . S
N656 N657 1.365 . S
N657 C654 1.341 1_554 S
N657 N656 1.365 . S
N657 H677 0.862 . S
C658 C653 1.501 . S
C658 H659 0.961 . S
C658 H660 0.961 . S
C658 H661 0.960 . S
H659 C658 0.961 . S
H660 C658 0.961 . S
H661 C658 0.960 . S
C662 N663 1.342 . S
C662 C666 1.401 . S
C662 C667 1.499 . S
N663 Co646 1.989 . S
N663 C662 1.342 . S
N663 N664 1.388 . S
N664 Co647 1.993 . S
N664 N663 1.388 . S
N664 C665 1.346 . S
C665 N664 1.346 . S
C665 C666 1.396 . S
C665 C675 1.510 . S
C666 C662 1.401 . S
C666 C665 1.396 . S
C667 C662 1.499 . S
C667 H668 0.959 . S
C667 H669 0.960 . S
C667 H670 0.961 . S
H668 C667 0.959 . S
H669 C667 0.960 . S
H670 C667 0.961 . S
O671 Co646 1.967 . S
O671 C679 1.258 . S
O672 Co647 1.941 . S
O672 C679 1.266 . S
H673 C675 0.959 . S
H674 C675 0.961 . S
C675 C665 1.510 . S
C675 H673 0.959 . S
C675 H674 0.961 . S
C675 H676 0.960 . S
H676 C675 0.960 . S
H677 N657 0.862 . S
O678 Co646 1.920 . S
O678 C651 1.289 . S
C679 O671 1.258 . S
C679 O672 1.266 . S
Co680 O683 1.970 . S
Co680 N697 1.989 . S
Co680 O705 1.967 . S
Co680 O712 1.920 . S
Co681 O684 1.966 . S
Co681 N690 2.022 . S
Co681 N698 1.993 . S
Co681 O706 1.941 . S
C682 O683 1.258 . S
C682 O684 1.263 . S
O683 Co680 1.970 . S
O683 C682 1.258 . S
O684 Co681 1.966 . S
O684 C682 1.263 . S
C685 O686 1.235 . S
C685 O712 1.289 . S
O686 C685 1.235 . S
C687 C689 1.400 1_554 S
C687 N690 1.351 . S
C687 C692 1.501 . S
C688 C689 1.387 . S
C688 N691 1.341 1_556 S
C689 C687 1.400 1_556 S
C689 C688 1.387 . S
N690 Co681 2.022 . S
N690 C687 1.351 . S
N690 N691 1.365 . S
N691 C688 1.341 1_554 S
N691 N690 1.365 . S
N691 H711 0.862 . S
C692 C687 1.501 . S
C692 H693 0.961 . S
C692 H694 0.961 . S
C692 H695 0.960 . S
H693 C692 0.961 . S
H694 C692 0.961 . S
H695 C692 0.960 . S
C696 N697 1.342 . S
C696 C700 1.401 . S
C696 C701 1.499 . S
N697 Co680 1.989 . S
N697 C696 1.342 . S
N697 N698 1.388 . S
N698 Co681 1.993 . S
N698 N697 1.388 . S
N698 C699 1.346 . S
C699 N698 1.346 . S
C699 C700 1.396 . S
C699 C709 1.510 . S
C700 C696 1.401 . S
C700 C699 1.396 . S
C701 C696 1.499 . S
C701 H702 0.959 . S
C701 H703 0.960 . S
C701 H704 0.961 . S
H702 C701 0.959 . S
H703 C701 0.960 . S
H704 C701 0.961 . S
O705 Co680 1.967 . S
O705 C713 1.258 . S
O706 Co681 1.941 . S
O706 C713 1.266 . S
H707 C709 0.959 . S
H708 C709 0.961 . S
C709 C699 1.510 . S
C709 H707 0.959 . S
C709 H708 0.961 . S
C709 H710 0.960 . S
H710 C709 0.960 . S
H711 N691 0.862 . S
O712 Co680 1.920 . S
O712 C685 1.289 . S
C713 O705 1.258 . S
C713 O706 1.266 . S
Co714 O717 1.970 . S
Co714 N731 1.989 . S
Co714 O739 1.967 . S
Co714 O746 1.920 . S
Co715 O718 1.966 . S
Co715 N724 2.022 . S
Co715 N732 1.993 . S
Co715 O740 1.941 . S
C716 O717 1.258 . S
C716 O718 1.263 . S
O717 Co714 1.970 . S
O717 C716 1.258 . S
O718 Co715 1.966 . S
O718 C716 1.263 . S
C719 O720 1.235 . S
C719 O746 1.289 . S
O720 C719 1.235 . S
C721 C723 1.400 . S
C721 N724 1.351 . S
C721 C726 1.501 . S
C722 C723 1.387 . S
C722 N725 1.341 . S
C723 C721 1.400 . S
C723 C722 1.387 . S
N724 Co715 2.022 . S
N724 C721 1.351 . S
N724 N725 1.365 . S
N725 C722 1.341 . S
N725 N724 1.365 . S
N725 H745 0.862 . S
C726 C721 1.501 . S
C726 H727 0.961 . S
C726 H728 0.961 . S
C726 H729 0.960 . S
H727 C726 0.961 . S
H728 C726 0.961 . S
H729 C726 0.960 . S
C730 N731 1.342 . S
C730 C734 1.401 . S
C730 C735 1.499 . S
N731 Co714 1.989 . S
N731 C730 1.342 . S
N731 N732 1.388 . S
N732 Co715 1.993 . S
N732 N731 1.388 . S
N732 C733 1.346 . S
C733 N732 1.346 . S
C733 C734 1.396 . S
C733 C743 1.510 . S
C734 C730 1.401 . S
C734 C733 1.396 . S
C735 C730 1.499 . S
C735 H736 0.959 . S
C735 H737 0.960 . S
C735 H738 0.961 . S
H736 C735 0.959 . S
H737 C735 0.960 . S
H738 C735 0.961 . S
O739 Co714 1.967 . S
O739 C747 1.258 . S
O740 Co715 1.941 . S
O740 C747 1.266 . S
H741 C743 0.959 . S
H742 C743 0.961 . S
C743 C733 1.510 . S
C743 H741 0.959 . S
C743 H742 0.961 . S
C743 H744 0.960 . S
H744 C743 0.960 . S
H745 N725 0.862 . S
O746 Co714 1.920 . S
O746 C719 1.289 . S
C747 O739 1.258 . S
C747 O740 1.266 . S
Co748 O751 1.970 . S
Co748 N765 1.989 . S
Co748 O773 1.967 . S
Co748 O780 1.920 . S
Co749 O752 1.966 . S
Co749 N758 2.022 . S
Co749 N766 1.993 . S
Co749 O774 1.941 . S
C750 O751 1.258 . S
C750 O752 1.263 . S
O751 Co748 1.970 . S
O751 C750 1.258 . S
O752 Co749 1.966 . S
O752 C750 1.263 . S
C753 O754 1.235 . S
C753 O780 1.289 . S
O754 C753 1.235 . S
C755 C757 1.400 . S
C755 N758 1.351 . S
C755 C760 1.501 . S
C756 C757 1.387 . S
C756 N759 1.341 . S
C757 C755 1.400 . S
C757 C756 1.387 . S
N758 Co749 2.022 . S
N758 C755 1.351 . S
N758 N759 1.365 . S
N759 C756 1.341 . S
N759 N758 1.365 . S
N759 H779 0.862 . S
C760 C755 1.501 . S
C760 H761 0.961 . S
C760 H762 0.961 . S
C760 H763 0.960 . S
H761 C760 0.961 . S
H762 C760 0.961 . S
H763 C760 0.960 . S
C764 N765 1.342 . S
C764 C768 1.401 . S
C764 C769 1.499 . S
N765 Co748 1.989 . S
N765 C764 1.342 . S
N765 N766 1.388 . S
N766 Co749 1.993 . S
N766 N765 1.388 . S
N766 C767 1.346 . S
C767 N766 1.346 . S
C767 C768 1.396 . S
C767 C777 1.510 . S
C768 C764 1.401 . S
C768 C767 1.396 . S
C769 C764 1.499 . S
C769 H770 0.959 . S
C769 H771 0.960 . S
C769 H772 0.961 . S
H770 C769 0.959 . S
H771 C769 0.960 . S
H772 C769 0.961 . S
O773 Co748 1.967 . S
O773 C781 1.258 . S
O774 Co749 1.941 . S
O774 C781 1.266 . S
H775 C777 0.959 . S
H776 C777 0.961 . S
C777 C767 1.510 . S
C777 H775 0.959 . S
C777 H776 0.961 . S
C777 H778 0.960 . S
H778 C777 0.960 . S
H779 N759 0.862 . S
O780 Co748 1.920 . S
O780 C753 1.289 . S
C781 O773 1.258 . S
C781 O774 1.266 . S
Co782 O785 1.970 . S
Co782 N799 1.989 . S
Co782 O807 1.967 . S
Co782 O814 1.920 . S
Co783 O786 1.966 . S
Co783 N792 2.022 . S
Co783 N800 1.993 . S
Co783 O808 1.941 . S
C784 O785 1.258 . S
C784 O786 1.263 . S
O785 Co782 1.970 . S
O785 C784 1.258 . S
O786 Co783 1.966 . S
O786 C784 1.263 . S
C787 O788 1.235 . S
C787 O814 1.289 . S
O788 C787 1.235 . S
C789 C791 1.400 . S
C789 N792 1.351 . S
C789 C794 1.501 . S
C790 C791 1.387 . S
C790 N793 1.341 . S
C791 C789 1.400 . S
C791 C790 1.387 . S
N792 Co783 2.022 . S
N792 C789 1.351 . S
N792 N793 1.365 . S
N793 C790 1.341 . S
N793 N792 1.365 . S
N793 H813 0.862 . S
C794 C789 1.501 . S
C794 H795 0.961 . S
C794 H796 0.961 . S
C794 H797 0.960 . S
H795 C794 0.961 . S
H796 C794 0.961 . S
H797 C794 0.960 . S
C798 N799 1.342 . S
C798 C802 1.401 . S
C798 C803 1.499 . S
N799 Co782 1.989 . S
N799 C798 1.342 . S
N799 N800 1.388 . S
N800 Co783 1.993 . S
N800 N799 1.388 . S
N800 C801 1.346 . S
C801 N800 1.346 . S
C801 C802 1.396 . S
C801 C811 1.510 . S
C802 C798 1.401 . S
C802 C801 1.396 . S
C803 C798 1.499 . S
C803 H804 0.959 . S
C803 H805 0.960 . S
C803 H806 0.961 . S
H804 C803 0.959 . S
H805 C803 0.960 . S
H806 C803 0.961 . S
O807 Co782 1.967 . S
O807 C815 1.258 . S
O808 Co783 1.941 . S
O808 C815 1.266 . S
H809 C811 0.959 . S
H810 C811 0.961 . S
C811 C801 1.510 . S
C811 H809 0.959 . S
C811 H810 0.961 . S
C811 H812 0.960 . S
H812 C811 0.960 . S
H813 N793 0.862 . S
O814 Co782 1.920 . S
O814 C787 1.289 . S
C815 O807 1.258 . S
C815 O808 1.266 . S
Co816 O819 1.970 . S
Co816 N833 1.989 . S
Co816 O841 1.967 . S
Co816 O848 1.920 . S
Co817 O820 1.966 . S
Co817 N826 2.022 . S
Co817 N834 1.993 . S
Co817 O842 1.941 . S
C818 O819 1.258 . S
C818 O820 1.263 . S
O819 Co816 1.970 . S
O819 C818 1.258 . S
O820 Co817 1.966 . S
O820 C818 1.263 . S
C821 O822 1.235 . S
C821 O848 1.289 . S
O822 C821 1.235 . S
C823 C825 1.400 1_556 S
C823 N826 1.351 . S
C823 C828 1.501 . S
C824 C825 1.387 . S
C824 N827 1.341 1_554 S
C825 C823 1.400 1_554 S
C825 C824 1.387 . S
N826 Co817 2.022 . S
N826 C823 1.351 . S
N826 N827 1.365 . S
N827 C824 1.341 1_556 S
N827 N826 1.365 . S
N827 H847 0.862 . S
C828 C823 1.501 . S
C828 H829 0.961 . S
C828 H830 0.961 . S
C828 H831 0.960 . S
H829 C828 0.961 . S
H830 C828 0.961 . S
H831 C828 0.960 . S
C832 N833 1.342 . S
C832 C836 1.401 . S
C832 C837 1.499 . S
N833 Co816 1.989 . S
N833 C832 1.342 . S
N833 N834 1.388 . S
N834 Co817 1.993 . S
N834 N833 1.388 . S
N834 C835 1.346 . S
C835 N834 1.346 . S
C835 C836 1.396 . S
C835 C845 1.510 . S
C836 C832 1.401 . S
C836 C835 1.396 . S
C837 C832 1.499 . S
C837 H838 0.959 . S
C837 H839 0.960 . S
C837 H840 0.961 . S
H838 C837 0.959 . S
H839 C837 0.960 . S
H840 C837 0.961 . S
O841 Co816 1.967 . S
O841 C849 1.258 . S
O842 Co817 1.941 . S
O842 C849 1.266 . S
H843 C845 0.959 . S
H844 C845 0.961 . S
C845 C835 1.510 . S
C845 H843 0.959 . S
C845 H844 0.961 . S
C845 H846 0.960 . S
H846 C845 0.960 . S
H847 N827 0.862 . S
O848 Co816 1.920 . S
O848 C821 1.289 . S
C849 O841 1.258 . S
C849 O842 1.266 . S
Co850 O853 1.970 . S
Co850 N867 1.989 . S
Co850 O875 1.967 . S
Co850 O882 1.920 . S
Co851 O854 1.966 . S
Co851 N860 2.022 . S
Co851 N868 1.993 . S
Co851 O876 1.941 . S
C852 O853 1.258 . S
C852 O854 1.263 . S
O853 Co850 1.970 . S
O853 C852 1.258 . S
O854 Co851 1.966 . S
O854 C852 1.263 . S
C855 O856 1.235 . S
C855 O882 1.289 . S
O856 C855 1.235 . S
C857 C859 1.400 1_556 S
C857 N860 1.351 . S
C857 C862 1.501 . S
C858 C859 1.387 . S
C858 N861 1.341 1_554 S
C859 C857 1.400 1_554 S
C859 C858 1.387 . S
N860 Co851 2.022 . S
N860 C857 1.351 . S
N860 N861 1.365 . S
N861 C858 1.341 1_556 S
N861 N860 1.365 . S
N861 H881 0.862 . S
C862 C857 1.501 . S
C862 H863 0.961 . S
C862 H864 0.961 . S
C862 H865 0.960 . S
H863 C862 0.961 . S
H864 C862 0.961 . S
H865 C862 0.960 . S
C866 N867 1.342 . S
C866 C870 1.401 . S
C866 C871 1.499 . S
N867 Co850 1.989 . S
N867 C866 1.342 . S
N867 N868 1.388 . S
N868 Co851 1.993 . S
N868 N867 1.388 . S
N868 C869 1.346 . S
C869 N868 1.346 . S
C869 C870 1.396 . S
C869 C879 1.510 . S
C870 C866 1.401 . S
C870 C869 1.396 . S
C871 C866 1.499 . S
C871 H872 0.959 . S
C871 H873 0.960 . S
C871 H874 0.961 . S
H872 C871 0.959 . S
H873 C871 0.960 . S
H874 C871 0.961 . S
O875 Co850 1.967 . S
O875 C883 1.258 . S
O876 Co851 1.941 . S
O876 C883 1.266 . S
H877 C879 0.959 . S
H878 C879 0.961 . S
C879 C869 1.510 . S
C879 H877 0.959 . S
C879 H878 0.961 . S
C879 H880 0.960 . S
H880 C879 0.960 . S
H881 N861 0.862 . S
O882 Co850 1.920 . S
O882 C855 1.289 . S
C883 O875 1.258 . S
C883 O876 1.266 . S
Co884 O887 1.970 . S
Co884 N901 1.989 . S
Co884 O909 1.967 . S
Co884 O916 1.920 . S
Co885 O888 1.966 . S
Co885 N894 2.022 . S
Co885 N902 1.993 . S
Co885 O910 1.941 . S
C886 O887 1.258 . S
C886 O888 1.263 . S
O887 Co884 1.970 . S
O887 C886 1.258 . S
O888 Co885 1.966 . S
O888 C886 1.263 . S
C889 O890 1.235 . S
C889 O916 1.289 . S
O890 C889 1.235 . S
C891 C893 1.400 1_556 S
C891 N894 1.351 . S
C891 C896 1.501 . S
C892 C893 1.387 . S
C892 N895 1.341 1_554 S
C893 C891 1.400 1_554 S
C893 C892 1.387 . S
N894 Co885 2.022 . S
N894 C891 1.351 . S
N894 N895 1.365 . S
N895 C892 1.341 1_556 S
N895 N894 1.365 . S
N895 H915 0.862 . S
C896 C891 1.501 . S
C896 H897 0.961 . S
C896 H898 0.961 . S
C896 H899 0.960 . S
H897 C896 0.961 . S
H898 C896 0.961 . S
H899 C896 0.960 . S
C900 N901 1.342 . S
C900 C904 1.401 . S
C900 C905 1.499 . S
N901 Co884 1.989 . S
N901 C900 1.342 . S
N901 N902 1.388 . S
N902 Co885 1.993 . S
N902 N901 1.388 . S
N902 C903 1.346 . S
C903 N902 1.346 . S
C903 C904 1.396 . S
C903 C913 1.510 . S
C904 C900 1.401 . S
C904 C903 1.396 . S
C905 C900 1.499 . S
C905 H906 0.959 . S
C905 H907 0.960 . S
C905 H908 0.961 . S
H906 C905 0.959 . S
H907 C905 0.960 . S
H908 C905 0.961 . S
O909 Co884 1.967 . S
O909 C917 1.258 . S
O910 Co885 1.941 . S
O910 C917 1.266 . S
H911 C913 0.959 . S
H912 C913 0.961 . S
C913 C903 1.510 . S
C913 H911 0.959 . S
C913 H912 0.961 . S
C913 H914 0.960 . S
H914 C913 0.960 . S
H915 N895 0.862 . S
O916 Co884 1.920 . S
O916 C889 1.289 . S
C917 O909 1.258 . S
C917 O910 1.266 . S
Co918 O921 1.970 . S
Co918 N935 1.989 . S
Co918 O943 1.967 . S
Co918 O950 1.920 . S
Co919 O922 1.966 . S
Co919 N928 2.022 . S
Co919 N936 1.993 . S
Co919 O944 1.941 . S
C920 O921 1.258 . S
C920 O922 1.263 . S
O921 Co918 1.970 . S
O921 C920 1.258 . S
O922 Co919 1.966 . S
O922 C920 1.263 . S
C923 O924 1.235 . S
C923 O950 1.289 . S
O924 C923 1.235 . S
C925 C927 1.400 . S
C925 N928 1.351 . S
C925 C930 1.501 . S
C926 C927 1.387 . S
C926 N929 1.341 . S
C927 C925 1.400 . S
C927 C926 1.387 . S
N928 Co919 2.022 . S
N928 C925 1.351 . S
N928 N929 1.365 . S
N929 C926 1.341 . S
N929 N928 1.365 . S
N929 H949 0.862 . S
C930 C925 1.501 . S
C930 H931 0.961 . S
C930 H932 0.961 . S
C930 H933 0.960 . S
H931 C930 0.961 . S
H932 C930 0.961 . S
H933 C930 0.960 . S
C934 N935 1.342 . S
C934 C938 1.401 . S
C934 C939 1.499 . S
N935 Co918 1.989 . S
N935 C934 1.342 . S
N935 N936 1.388 . S
N936 Co919 1.993 . S
N936 N935 1.388 . S
N936 C937 1.346 . S
C937 N936 1.346 . S
C937 C938 1.396 . S
C937 C947 1.510 . S
C938 C934 1.401 . S
C938 C937 1.396 . S
C939 C934 1.499 . S
C939 H940 0.959 . S
C939 H941 0.960 . S
C939 H942 0.961 . S
H940 C939 0.959 . S
H941 C939 0.960 . S
H942 C939 0.961 . S
O943 Co918 1.967 . S
O943 C951 1.258 . S
O944 Co919 1.941 . S
O944 C951 1.266 . S
H945 C947 0.959 . S
H946 C947 0.961 . S
C947 C937 1.510 . S
C947 H945 0.959 . S
C947 H946 0.961 . S
C947 H948 0.960 . S
H948 C947 0.960 . S
H949 N929 0.862 . S
O950 Co918 1.920 . S
O950 C923 1.289 . S
C951 O943 1.258 . S
C951 O944 1.266 . S
Co952 O955 1.970 . S
Co952 N969 1.989 . S
Co952 O977 1.967 . S
Co952 O984 1.920 . S
Co953 O956 1.966 . S
Co953 N962 2.022 . S
Co953 N970 1.993 . S
Co953 O978 1.941 . S
C954 O955 1.258 . S
C954 O956 1.263 . S
O955 Co952 1.970 . S
O955 C954 1.258 . S
O956 Co953 1.966 . S
O956 C954 1.263 . S
C957 O958 1.235 . S
C957 O984 1.289 . S
O958 C957 1.235 . S
C959 C961 1.400 . S
C959 N962 1.351 . S
C959 C964 1.501 . S
C960 C961 1.387 . S
C960 N963 1.341 . S
C961 C959 1.400 . S
C961 C960 1.387 . S
N962 Co953 2.022 . S
N962 C959 1.351 . S
N962 N963 1.365 . S
N963 C960 1.341 . S
N963 N962 1.365 . S
N963 H983 0.862 . S
C964 C959 1.501 . S
C964 H965 0.961 . S
C964 H966 0.961 . S
C964 H967 0.960 . S
H965 C964 0.961 . S
H966 C964 0.961 . S
H967 C964 0.960 . S
C968 N969 1.342 . S
C968 C972 1.401 . S
C968 C973 1.499 . S
N969 Co952 1.989 . S
N969 C968 1.342 . S
N969 N970 1.388 . S
N970 Co953 1.993 . S
N970 N969 1.388 . S
N970 C971 1.346 . S
C971 N970 1.346 . S
C971 C972 1.396 . S
C971 C981 1.510 . S
C972 C968 1.401 . S
C972 C971 1.396 . S
C973 C968 1.499 . S
C973 H974 0.959 . S
C973 H975 0.960 . S
C973 H976 0.961 . S
H974 C973 0.959 . S
H975 C973 0.960 . S
H976 C973 0.961 . S
O977 Co952 1.967 . S
O977 C985 1.258 . S
O978 Co953 1.941 . S
O978 C985 1.266 . S
H979 C981 0.959 . S
H980 C981 0.961 . S
C981 C971 1.510 . S
C981 H979 0.959 . S
C981 H980 0.961 . S
C981 H982 0.960 . S
H982 C981 0.960 . S
H983 N963 0.862 . S
O984 Co952 1.920 . S
O984 C957 1.289 . S
C985 O977 1.258 . S
C985 O978 1.266 . S
Co986 O989 1.970 . S
Co986 N1003 1.989 . S
Co986 O1011 1.967 . S
Co986 O1018 1.920 . S
Co987 O990 1.966 . S
Co987 N996 2.022 . S
Co987 N1004 1.993 . S
Co987 O1012 1.941 . S
C988 O989 1.258 . S
C988 O990 1.263 . S
O989 Co986 1.970 . S
O989 C988 1.258 . S
O990 Co987 1.966 . S
O990 C988 1.263 . S
C991 O992 1.235 . S
C991 O1018 1.289 . S
O992 C991 1.235 . S
C993 C995 1.400 . S
C993 N996 1.351 . S
C993 C998 1.501 . S
C994 C995 1.387 . S
C994 N997 1.341 . S
C995 C993 1.400 . S
C995 C994 1.387 . S
N996 Co987 2.022 . S
N996 C993 1.351 . S
N996 N997 1.365 . S
N997 C994 1.341 . S
N997 N996 1.365 . S
N997 H1017 0.862 . S
C998 C993 1.501 . S
C998 H999 0.961 . S
C998 H1000 0.961 . S
C998 H1001 0.960 . S
H999 C998 0.961 . S
H1000 C998 0.961 . S
H1001 C998 0.960 . S
C1002 N1003 1.342 . S
C1002 C1006 1.401 . S
C1002 C1007 1.499 . S
N1003 Co986 1.989 . S
N1003 C1002 1.342 . S
N1003 N1004 1.388 . S
N1004 Co987 1.993 . S
N1004 N1003 1.388 . S
N1004 C1005 1.346 . S
C1005 N1004 1.346 . S
C1005 C1006 1.396 . S
C1005 C1015 1.510 . S
C1006 C1002 1.401 . S
C1006 C1005 1.396 . S
C1007 C1002 1.499 . S
C1007 H1008 0.959 . S
C1007 H1009 0.960 . S
C1007 H1010 0.961 . S
H1008 C1007 0.959 . S
H1009 C1007 0.960 . S
H1010 C1007 0.961 . S
O1011 Co986 1.967 . S
O1011 C1019 1.258 . S
O1012 Co987 1.941 . S
O1012 C1019 1.266 . S
H1013 C1015 0.959 . S
H1014 C1015 0.961 . S
C1015 C1005 1.510 . S
C1015 H1013 0.959 . S
C1015 H1014 0.961 . S
C1015 H1016 0.960 . S
H1016 C1015 0.960 . S
H1017 N997 0.862 . S
O1018 Co986 1.920 . S
O1018 C991 1.289 . S
C1019 O1011 1.258 . S
C1019 O1012 1.266 . S
Co1020 O1023 1.970 . S
Co1020 N1037 1.989 . S
Co1020 O1045 1.967 . S
Co1020 O1052 1.920 . S
Co1021 O1024 1.966 . S
Co1021 N1030 2.022 . S
Co1021 N1038 1.993 . S
Co1021 O1046 1.941 . S
C1022 O1023 1.258 . S
C1022 O1024 1.263 . S
O1023 Co1020 1.970 . S
O1023 C1022 1.258 . S
O1024 Co1021 1.966 . S
O1024 C1022 1.263 . S
C1025 O1026 1.235 . S
C1025 O1052 1.289 . S
O1026 C1025 1.235 . S
C1027 C1029 1.400 . S
C1027 N1030 1.351 . S
C1027 C1032 1.501 . S
C1028 C1029 1.387 . S
C1028 N1031 1.341 . S
C1029 C1027 1.400 . S
C1029 C1028 1.387 . S
N1030 Co1021 2.022 . S
N1030 C1027 1.351 . S
N1030 N1031 1.365 . S
N1031 C1028 1.341 . S
N1031 N1030 1.365 . S
N1031 H1051 0.862 . S
C1032 C1027 1.501 . S
C1032 H1033 0.961 . S
C1032 H1034 0.961 . S
C1032 H1035 0.960 . S
H1033 C1032 0.961 . S
H1034 C1032 0.961 . S
H1035 C1032 0.960 . S
C1036 N1037 1.342 . S
C1036 C1040 1.401 . S
C1036 C1041 1.499 . S
N1037 Co1020 1.989 . S
N1037 C1036 1.342 . S
N1037 N1038 1.388 . S
N1038 Co1021 1.993 . S
N1038 N1037 1.388 . S
N1038 C1039 1.346 . S
C1039 N1038 1.346 . S
C1039 C1040 1.396 . S
C1039 C1049 1.510 . S
C1040 C1036 1.401 . S
C1040 C1039 1.396 . S
C1041 C1036 1.499 . S
C1041 H1042 0.959 . S
C1041 H1043 0.960 . S
C1041 H1044 0.961 . S
H1042 C1041 0.959 . S
H1043 C1041 0.960 . S
H1044 C1041 0.961 . S
O1045 Co1020 1.967 . S
O1045 C1053 1.258 . S
O1046 Co1021 1.941 . S
O1046 C1053 1.266 . S
H1047 C1049 0.959 . S
H1048 C1049 0.961 . S
C1049 C1039 1.510 . S
C1049 H1047 0.959 . S
C1049 H1048 0.961 . S
C1049 H1050 0.960 . S
H1050 C1049 0.960 . S
H1051 N1031 0.862 . S
O1052 Co1020 1.920 . S
O1052 C1025 1.289 . S
C1053 O1045 1.258 . S
C1053 O1046 1.266 . S
Co1054 O1057 1.970 . S
Co1054 N1071 1.989 . S
Co1054 O1079 1.967 . S
Co1054 O1086 1.920 . S
Co1055 O1058 1.966 . S
Co1055 N1064 2.022 . S
Co1055 N1072 1.993 . S
Co1055 O1080 1.941 . S
C1056 O1057 1.258 . S
C1056 O1058 1.263 . S
O1057 Co1054 1.970 . S
O1057 C1056 1.258 . S
O1058 Co1055 1.966 . S
O1058 C1056 1.263 . S
C1059 O1060 1.235 . S
C1059 O1086 1.289 . S
O1060 C1059 1.235 . S
C1061 C1063 1.400 . S
C1061 N1064 1.351 . S
C1061 C1066 1.501 . S
C1062 C1063 1.387 . S
C1062 N1065 1.341 . S
C1063 C1061 1.400 . S
C1063 C1062 1.387 . S
N1064 Co1055 2.022 . S
N1064 C1061 1.351 . S
N1064 N1065 1.365 . S
N1065 C1062 1.341 . S
N1065 N1064 1.365 . S
N1065 H1085 0.862 . S
C1066 C1061 1.501 . S
C1066 H1067 0.961 . S
C1066 H1068 0.961 . S
C1066 H1069 0.960 . S
H1067 C1066 0.961 . S
H1068 C1066 0.961 . S
H1069 C1066 0.960 . S
C1070 N1071 1.342 . S
C1070 C1074 1.401 . S
C1070 C1075 1.499 . S
N1071 Co1054 1.989 . S
N1071 C1070 1.342 . S
N1071 N1072 1.388 . S
N1072 Co1055 1.993 . S
N1072 N1071 1.388 . S
N1072 C1073 1.346 . S
C1073 N1072 1.346 . S
C1073 C1074 1.396 . S
C1073 C1083 1.510 . S
C1074 C1070 1.401 . S
C1074 C1073 1.396 . S
C1075 C1070 1.499 . S
C1075 H1076 0.959 . S
C1075 H1077 0.960 . S
C1075 H1078 0.961 . S
H1076 C1075 0.959 . S
H1077 C1075 0.960 . S
H1078 C1075 0.961 . S
O1079 Co1054 1.967 . S
O1079 C1087 1.258 . S
O1080 Co1055 1.941 . S
O1080 C1087 1.266 . S
H1081 C1083 0.959 . S
H1082 C1083 0.961 . S
C1083 C1073 1.510 . S
C1083 H1081 0.959 . S
C1083 H1082 0.961 . S
C1083 H1084 0.960 . S
H1084 C1083 0.960 . S
H1085 N1065 0.862 . S
O1086 Co1054 1.920 . S
O1086 C1059 1.289 . S
C1087 O1079 1.258 . S
C1087 O1080 1.266 . S
Co1088 O1091 1.970 . S
Co1088 N1105 1.989 . S
Co1088 O1113 1.967 . S
Co1088 O1120 1.920 . S
Co1089 O1092 1.966 . S
Co1089 N1098 2.022 . S
Co1089 N1106 1.993 . S
Co1089 O1114 1.941 . S
C1090 O1091 1.258 . S
C1090 O1092 1.263 . S
O1091 Co1088 1.970 . S
O1091 C1090 1.258 . S
O1092 Co1089 1.966 . S
O1092 C1090 1.263 . S
C1093 O1094 1.235 . S
C1093 O1120 1.289 . S
O1094 C1093 1.235 . S
C1095 C1097 1.400 . S
C1095 N1098 1.351 . S
C1095 C1100 1.501 . S
C1096 C1097 1.387 . S
C1096 N1099 1.341 . S
C1097 C1095 1.400 . S
C1097 C1096 1.387 . S
N1098 Co1089 2.022 . S
N1098 C1095 1.351 . S
N1098 N1099 1.365 . S
N1099 C1096 1.341 . S
N1099 N1098 1.365 . S
N1099 H1119 0.862 . S
C1100 C1095 1.501 . S
C1100 H1101 0.961 . S
C1100 H1102 0.961 . S
C1100 H1103 0.960 . S
H1101 C1100 0.961 . S
H1102 C1100 0.961 . S
H1103 C1100 0.960 . S
C1104 N1105 1.342 . S
C1104 C1108 1.401 . S
C1104 C1109 1.499 . S
N1105 Co1088 1.989 . S
N1105 C1104 1.342 . S
N1105 N1106 1.388 . S
N1106 Co1089 1.993 . S
N1106 N1105 1.388 . S
N1106 C1107 1.346 . S
C1107 N1106 1.346 . S
C1107 C1108 1.396 . S
C1107 C1117 1.510 . S
C1108 C1104 1.401 . S
C1108 C1107 1.396 . S
C1109 C1104 1.499 . S
C1109 H1110 0.959 . S
C1109 H1111 0.960 . S
C1109 H1112 0.961 . S
H1110 C1109 0.959 . S
H1111 C1109 0.960 . S
H1112 C1109 0.961 . S
O1113 Co1088 1.967 . S
O1113 C1121 1.258 . S
O1114 Co1089 1.941 . S
O1114 C1121 1.266 . S
H1115 C1117 0.959 . S
H1116 C1117 0.961 . S
C1117 C1107 1.510 . S
C1117 H1115 0.959 . S
C1117 H1116 0.961 . S
C1117 H1118 0.960 . S
H1118 C1117 0.960 . S
H1119 N1099 0.862 . S
O1120 Co1088 1.920 . S
O1120 C1093 1.289 . S
C1121 O1113 1.258 . S
C1121 O1114 1.266 . S
Co1122 O1125 1.970 . S
Co1122 N1139 1.989 . S
Co1122 O1147 1.967 . S
Co1122 O1154 1.920 . S
Co1123 O1126 1.966 . S
Co1123 N1132 2.022 . S
Co1123 N1140 1.993 . S
Co1123 O1148 1.941 . S
C1124 O1125 1.258 . S
C1124 O1126 1.263 . S
O1125 Co1122 1.970 . S
O1125 C1124 1.258 . S
O1126 Co1123 1.966 . S
O1126 C1124 1.263 . S
C1127 O1128 1.235 . S
C1127 O1154 1.289 . S
O1128 C1127 1.235 . S
C1129 C1131 1.400 1_556 S
C1129 N1132 1.351 . S
C1129 C1134 1.501 . S
C1130 C1131 1.387 . S
C1130 N1133 1.341 1_554 S
C1131 C1129 1.400 1_554 S
C1131 C1130 1.387 . S
N1132 Co1123 2.022 . S
N1132 C1129 1.351 . S
N1132 N1133 1.365 . S
N1133 C1130 1.341 1_556 S
N1133 N1132 1.365 . S
N1133 H1153 0.862 . S
C1134 C1129 1.501 . S
C1134 H1135 0.961 . S
C1134 H1136 0.961 . S
C1134 H1137 0.960 . S
H1135 C1134 0.961 . S
H1136 C1134 0.961 . S
H1137 C1134 0.960 . S
C1138 N1139 1.342 . S
C1138 C1142 1.401 . S
C1138 C1143 1.499 . S
N1139 Co1122 1.989 . S
N1139 C1138 1.342 . S
N1139 N1140 1.388 . S
N1140 Co1123 1.993 . S
N1140 N1139 1.388 . S
N1140 C1141 1.346 . S
C1141 N1140 1.346 . S
C1141 C1142 1.396 . S
C1141 C1151 1.510 . S
C1142 C1138 1.401 . S
C1142 C1141 1.396 . S
C1143 C1138 1.499 . S
C1143 H1144 0.959 . S
C1143 H1145 0.960 . S
C1143 H1146 0.961 . S
H1144 C1143 0.959 . S
H1145 C1143 0.960 . S
H1146 C1143 0.961 . S
O1147 Co1122 1.967 . S
O1147 C1155 1.258 . S
O1148 Co1123 1.941 . S
O1148 C1155 1.266 . S
H1149 C1151 0.959 . S
H1150 C1151 0.961 . S
C1151 C1141 1.510 . S
C1151 H1149 0.959 . S
C1151 H1150 0.961 . S
C1151 H1152 0.960 . S
H1152 C1151 0.960 . S
H1153 N1133 0.862 . S
O1154 Co1122 1.920 . S
O1154 C1127 1.289 . S
C1155 O1147 1.258 . S
C1155 O1148 1.266 . S
Co1156 O1159 1.970 . S
Co1156 N1173 1.989 . S
Co1156 O1181 1.967 . S
Co1156 O1188 1.920 . S
Co1157 O1160 1.966 . S
Co1157 N1166 2.022 . S
Co1157 N1174 1.993 . S
Co1157 O1182 1.941 . S
C1158 O1159 1.258 . S
C1158 O1160 1.263 . S
O1159 Co1156 1.970 . S
O1159 C1158 1.258 . S
O1160 Co1157 1.966 . S
O1160 C1158 1.263 . S
C1161 O1162 1.235 . S
C1161 O1188 1.289 . S
O1162 C1161 1.235 . S
C1163 C1165 1.400 1_556 S
C1163 N1166 1.351 . S
C1163 C1168 1.501 . S
C1164 C1165 1.387 . S
C1164 N1167 1.341 1_554 S
C1165 C1163 1.400 1_554 S
C1165 C1164 1.387 . S
N1166 Co1157 2.022 . S
N1166 C1163 1.351 . S
N1166 N1167 1.365 . S
N1167 C1164 1.341 1_556 S
N1167 N1166 1.365 . S
N1167 H1187 0.862 . S
C1168 C1163 1.501 . S
C1168 H1169 0.961 . S
C1168 H1170 0.961 . S
C1168 H1171 0.960 . S
H1169 C1168 0.961 . S
H1170 C1168 0.961 . S
H1171 C1168 0.960 . S
C1172 N1173 1.342 . S
C1172 C1176 1.401 . S
C1172 C1177 1.499 . S
N1173 Co1156 1.989 . S
N1173 C1172 1.342 . S
N1173 N1174 1.388 . S
N1174 Co1157 1.993 . S
N1174 N1173 1.388 . S
N1174 C1175 1.346 . S
C1175 N1174 1.346 . S
C1175 C1176 1.396 . S
C1175 C1185 1.510 . S
C1176 C1172 1.401 . S
C1176 C1175 1.396 . S
C1177 C1172 1.499 . S
C1177 H1178 0.959 . S
C1177 H1179 0.960 . S
C1177 H1180 0.961 . S
H1178 C1177 0.959 . S
H1179 C1177 0.960 . S
H1180 C1177 0.961 . S
O1181 Co1156 1.967 . S
O1181 C1189 1.258 . S
O1182 Co1157 1.941 . S
O1182 C1189 1.266 . S
H1183 C1185 0.959 . S
H1184 C1185 0.961 . S
C1185 C1175 1.510 . S
C1185 H1183 0.959 . S
C1185 H1184 0.961 . S
C1185 H1186 0.960 . S
H1186 C1185 0.960 . S
H1187 N1167 0.862 . S
O1188 Co1156 1.920 . S
O1188 C1161 1.289 . S
C1189 O1181 1.258 . S
C1189 O1182 1.266 . S
Co1190 O1193 1.970 . S
Co1190 N1207 1.989 . S
Co1190 O1215 1.967 . S
Co1190 O1222 1.920 . S
Co1191 O1194 1.966 . S
Co1191 N1200 2.022 . S
Co1191 N1208 1.993 . S
Co1191 O1216 1.941 . S
C1192 O1193 1.258 . S
C1192 O1194 1.263 . S
O1193 Co1190 1.970 . S
O1193 C1192 1.258 . S
O1194 Co1191 1.966 . S
O1194 C1192 1.263 . S
C1195 O1196 1.235 . S
C1195 O1222 1.289 . S
O1196 C1195 1.235 . S
C1197 C1199 1.400 1_556 S
C1197 N1200 1.351 . S
C1197 C1202 1.501 . S
C1198 C1199 1.387 . S
C1198 N1201 1.341 1_554 S
C1199 C1197 1.400 1_554 S
C1199 C1198 1.387 . S
N1200 Co1191 2.022 . S
N1200 C1197 1.351 . S
N1200 N1201 1.365 . S
N1201 C1198 1.341 1_556 S
N1201 N1200 1.365 . S
N1201 H1221 0.862 . S
C1202 C1197 1.501 . S
C1202 H1203 0.961 . S
C1202 H1204 0.961 . S
C1202 H1205 0.960 . S
H1203 C1202 0.961 . S
H1204 C1202 0.961 . S
H1205 C1202 0.960 . S
C1206 N1207 1.342 . S
C1206 C1210 1.401 . S
C1206 C1211 1.499 . S
N1207 Co1190 1.989 . S
N1207 C1206 1.342 . S
N1207 N1208 1.388 . S
N1208 Co1191 1.993 . S
N1208 N1207 1.388 . S
N1208 C1209 1.346 . S
C1209 N1208 1.346 . S
C1209 C1210 1.396 . S
C1209 C1219 1.510 . S
C1210 C1206 1.401 . S
C1210 C1209 1.396 . S
C1211 C1206 1.499 . S
C1211 H1212 0.959 . S
C1211 H1213 0.960 . S
C1211 H1214 0.961 . S
H1212 C1211 0.959 . S
H1213 C1211 0.960 . S
H1214 C1211 0.961 . S
O1215 Co1190 1.967 . S
O1215 C1223 1.258 . S
O1216 Co1191 1.941 . S
O1216 C1223 1.266 . S
H1217 C1219 0.959 . S
H1218 C1219 0.961 . S
C1219 C1209 1.510 . S
C1219 H1217 0.959 . S
C1219 H1218 0.961 . S
C1219 H1220 0.960 . S
H1220 C1219 0.960 . S
H1221 N1201 0.862 . S
O1222 Co1190 1.920 . S
O1222 C1195 1.289 . S
C1223 O1215 1.258 . S
C1223 O1216 1.266 . S
C1224 C1225 1.387 . S
C1224 H1228 0.950 . S
C1224 C1233 1.390 . S
C1225 C1224 1.387 . S
C1225 C1227 1.387 . S
H1226 C1233 0.950 . S
C1227 C1225 1.387 . S
C1227 C1229 1.390 . S
C1227 H1231 0.950 . S
H1228 C1224 0.950 . S
C1229 C1227 1.390 . S
C1229 C1230 1.387 . S
C1229 H1232 0.950 . S
C1230 C1229 1.387 . S
C1230 C1233 1.387 . S
H1231 C1227 0.950 . S
H1232 C1229 0.950 . S
C1233 C1224 1.390 . S
C1233 H1226 0.950 . S
C1233 C1230 1.387 . S
C1234 C1235 1.387 . S
C1234 H1238 0.950 . S
C1234 C1243 1.390 . S
C1235 C1234 1.387 . S
C1235 C1237 1.387 . S
H1236 C1243 0.950 . S
C1237 C1235 1.387 . S
C1237 C1239 1.390 . S
C1237 H1241 0.950 . S
H1238 C1234 0.950 . S
C1239 C1237 1.390 . S
C1239 C1240 1.387 . S
C1239 H1242 0.950 . S
C1240 C1239 1.387 . S
C1240 C1243 1.387 . S
H1241 C1237 0.950 . S
H1242 C1239 0.950 . S
C1243 C1234 1.390 . S
C1243 H1236 0.950 . S
C1243 C1240 1.387 . S
C1244 C1245 1.387 . S
C1244 H1248 0.950 . S
C1244 C1253 1.390 . S
C1245 C1244 1.387 . S
C1245 C1247 1.387 . S
H1246 C1253 0.950 . S
C1247 C1245 1.387 . S
C1247 C1249 1.390 . S
C1247 H1251 0.950 . S
H1248 C1244 0.950 . S
C1249 C1247 1.390 . S
C1249 C1250 1.387 . S
C1249 H1252 0.950 . S
C1250 C1249 1.387 . S
C1250 C1253 1.387 . S
H1251 C1247 0.950 . S
H1252 C1249 0.950 . S
C1253 C1244 1.390 . S
C1253 H1246 0.950 . S
C1253 C1250 1.387 . S
C1254 C1255 1.387 . S
C1254 H1258 0.950 . S
C1254 C1263 1.390 . S
C1255 C1254 1.387 . S
C1255 C1257 1.387 . S
H1256 C1263 0.950 . S
C1257 C1255 1.387 . S
C1257 C1259 1.390 . S
C1257 H1261 0.950 . S
H1258 C1254 0.950 . S
C1259 C1257 1.390 . S
C1259 C1260 1.387 . S
C1259 H1262 0.950 . S
C1260 C1259 1.387 . S
C1260 C1263 1.387 . S
H1261 C1257 0.950 . S
H1262 C1259 0.950 . S
C1263 C1254 1.390 . S
C1263 H1256 0.950 . S
C1263 C1260 1.387 . S
C1264 C1265 1.387 . S
C1264 H1268 0.950 . S
C1264 C1273 1.390 . S
C1265 C1264 1.387 . S
C1265 C1267 1.387 . S
H1266 C1273 0.950 . S
C1267 C1265 1.387 . S
C1267 C1269 1.390 . S
C1267 H1271 0.950 . S
H1268 C1264 0.950 . S
C1269 C1267 1.390 . S
C1269 C1270 1.387 . S
C1269 H1272 0.950 . S
C1270 C1269 1.387 . S
C1270 C1273 1.387 . S
H1271 C1267 0.950 . S
H1272 C1269 0.950 . S
C1273 C1264 1.390 . S
C1273 H1266 0.950 . S
C1273 C1270 1.387 . S
C1274 C1275 1.387 . S
C1274 H1278 0.950 . S
C1274 C1283 1.390 . S
C1275 C1274 1.387 . S
C1275 C1277 1.387 . S
H1276 C1283 0.950 . S
C1277 C1275 1.387 . S
C1277 C1279 1.390 . S
C1277 H1281 0.950 . S
H1278 C1274 0.950 . S
C1279 C1277 1.390 . S
C1279 C1280 1.387 . S
C1279 H1282 0.950 . S
C1280 C1279 1.387 . S
C1280 C1283 1.387 . S
H1281 C1277 0.950 . S
H1282 C1279 0.950 . S
C1283 C1274 1.390 . S
C1283 H1276 0.950 . S
C1283 C1280 1.387 . S
C1284 C1285 1.387 . S
C1284 H1288 0.950 . S
C1284 C1293 1.390 . S
C1285 C1284 1.387 . S
C1285 C1287 1.387 . S
H1286 C1293 0.950 . S
C1287 C1285 1.387 . S
C1287 C1289 1.390 . S
C1287 H1291 0.950 . S
H1288 C1284 0.950 . S
C1289 C1287 1.390 . S
C1289 C1290 1.387 . S
C1289 H1292 0.950 . S
C1290 C1289 1.387 . S
C1290 C1293 1.387 . S
H1291 C1287 0.950 . S
H1292 C1289 0.950 . S
C1293 C1284 1.390 . S
C1293 H1286 0.950 . S
C1293 C1290 1.387 . S
C1294 C1295 1.387 . S
C1294 H1298 0.950 . S
C1294 C1303 1.390 . S
C1295 C1294 1.387 . S
C1295 C1297 1.387 . S
H1296 C1303 0.950 . S
C1297 C1295 1.387 . S
C1297 C1299 1.390 . S
C1297 H1301 0.950 . S
H1298 C1294 0.950 . S
C1299 C1297 1.390 . S
C1299 C1300 1.387 . S
C1299 H1302 0.950 . S
C1300 C1299 1.387 . S
C1300 C1303 1.387 . S
H1301 C1297 0.950 . S
H1302 C1299 0.950 . S
C1303 C1294 1.390 . S
C1303 H1296 0.950 . S
C1303 C1300 1.387 . S
C1304 C1305 1.387 . S
C1304 H1308 0.950 . S
C1304 C1313 1.390 . S
C1305 C1304 1.387 . S
C1305 C1307 1.387 . S
H1306 C1313 0.950 . S
C1307 C1305 1.387 . S
C1307 C1309 1.390 . S
C1307 H1311 0.950 . S
H1308 C1304 0.950 . S
C1309 C1307 1.390 . S
C1309 C1310 1.387 . S
C1309 H1312 0.950 . S
C1310 C1309 1.387 . S
C1310 C1313 1.387 . S
H1311 C1307 0.950 . S
H1312 C1309 0.950 . S
C1313 C1304 1.390 . S
C1313 H1306 0.950 . S
C1313 C1310 1.387 . S
C1314 C1315 1.387 . S
C1314 H1318 0.950 . S
C1314 C1323 1.390 . S
C1315 C1314 1.387 . S
C1315 C1317 1.387 . S
H1316 C1323 0.950 . S
C1317 C1315 1.387 . S
C1317 C1319 1.390 . S
C1317 H1321 0.950 . S
H1318 C1314 0.950 . S
C1319 C1317 1.390 . S
C1319 C1320 1.387 . S
C1319 H1322 0.950 . S
C1320 C1319 1.387 . S
C1320 C1323 1.387 . S
H1321 C1317 0.950 . S
H1322 C1319 0.950 . S
C1323 C1314 1.390 . S
C1323 H1316 0.950 . S
C1323 C1320 1.387 . S
C1324 C1325 1.387 . S
C1324 H1328 0.950 . S
C1324 C1333 1.390 . S
C1325 C1324 1.387 . S
C1325 C1327 1.387 . S
H1326 C1333 0.950 . S
C1327 C1325 1.387 . S
C1327 C1329 1.390 . S
C1327 H1331 0.950 . S
H1328 C1324 0.950 . S
C1329 C1327 1.390 . S
C1329 C1330 1.387 . S
C1329 H1332 0.950 . S
C1330 C1329 1.387 . S
C1330 C1333 1.387 . S
H1331 C1327 0.950 . S
H1332 C1329 0.950 . S
C1333 C1324 1.390 . S
C1333 H1326 0.950 . S
C1333 C1330 1.387 . S
C1334 C1335 1.387 . S
C1334 H1338 0.950 . S
C1334 C1343 1.390 . S
C1335 C1334 1.387 . S
C1335 C1337 1.387 . S
H1336 C1343 0.950 . S
C1337 C1335 1.387 . S
C1337 C1339 1.390 . S
C1337 H1341 0.950 . S
H1338 C1334 0.950 . S
C1339 C1337 1.390 . S
C1339 C1340 1.387 . S
C1339 H1342 0.950 . S
C1340 C1339 1.387 . S
C1340 C1343 1.387 . S
H1341 C1337 0.950 . S
H1342 C1339 0.950 . S
C1343 C1334 1.390 . S
C1343 H1336 0.950 . S
C1343 C1340 1.387 . S
C1344 C1345 1.387 . S
C1344 H1348 0.950 . S
C1344 C1353 1.390 . S
C1345 C1344 1.387 . S
C1345 C1347 1.387 . S
H1346 C1353 0.950 . S
C1347 C1345 1.387 . S
C1347 C1349 1.390 . S
C1347 H1351 0.950 . S
H1348 C1344 0.950 . S
C1349 C1347 1.390 . S
C1349 C1350 1.387 . S
C1349 H1352 0.950 . S
C1350 C1349 1.387 . S
C1350 C1353 1.387 . S
H1351 C1347 0.950 . S
H1352 C1349 0.950 . S
C1353 C1344 1.390 . S
C1353 H1346 0.950 . S
C1353 C1350 1.387 . S
C1354 C1355 1.387 . S
C1354 H1358 0.950 . S
C1354 C1363 1.390 1_545 S
C1355 C1354 1.387 . S
C1355 C1357 1.387 . S
H1356 C1363 0.950 . S
C1357 C1355 1.387 . S
C1357 C1359 1.390 1_545 S
C1357 H1361 0.950 . S
H1358 C1354 0.950 . S
C1359 C1357 1.390 1_565 S
C1359 C1360 1.387 . S
C1359 H1362 0.950 . S
C1360 C1359 1.387 . S
C1360 C1363 1.387 . S
H1361 C1357 0.950 . S
H1362 C1359 0.950 . S
C1363 C1354 1.390 1_565 S
C1363 H1356 0.950 . S
C1363 C1360 1.387 . S
C1364 C1365 1.387 . S
C1364 H1368 0.950 . S
C1364 C1373 1.390 1_455 S
C1365 C1364 1.387 . S
C1365 C1367 1.387 . S
H1366 C1373 0.950 . S
C1367 C1365 1.387 . S
C1367 C1369 1.390 1_455 S
C1367 H1371 0.950 . S
H1368 C1364 0.950 . S
C1369 C1367 1.390 1_655 S
C1369 C1370 1.387 . S
C1369 H1372 0.950 . S
C1370 C1369 1.387 . S
C1370 C1373 1.387 . S
H1371 C1367 0.950 . S
H1372 C1369 0.950 . S
C1373 C1364 1.390 1_655 S
C1373 H1366 0.950 . S
C1373 C1370 1.387 . S
C1374 C1375 1.387 . S
C1374 H1378 0.950 . S
C1374 C1383 1.390 . S
C1375 C1374 1.387 . S
C1375 C1377 1.387 . S
H1376 C1383 0.950 . S
C1377 C1375 1.387 . S
C1377 C1379 1.390 . S
C1377 H1381 0.950 . S
H1378 C1374 0.950 . S
C1379 C1377 1.390 . S
C1379 C1380 1.387 . S
C1379 H1382 0.950 . S
C1380 C1379 1.387 . S
C1380 C1383 1.387 . S
H1381 C1377 0.950 . S
H1382 C1379 0.950 . S
C1383 C1374 1.390 . S
C1383 H1376 0.950 . S
C1383 C1380 1.387 . S
C1384 C1385 1.387 . S
C1384 H1388 0.950 . S
C1384 C1393 1.390 1_565 S
C1385 C1384 1.387 . S
C1385 C1387 1.387 . S
H1386 C1393 0.950 . S
C1387 C1385 1.387 . S
C1387 C1389 1.390 1_565 S
C1387 H1391 0.950 . S
H1388 C1384 0.950 . S
C1389 C1387 1.390 1_545 S
C1389 C1390 1.387 . S
C1389 H1392 0.950 . S
C1390 C1389 1.387 . S
C1390 C1393 1.387 . S
H1391 C1387 0.950 . S
H1392 C1389 0.950 . S
C1393 C1384 1.390 1_545 S
C1393 H1386 0.950 . S
C1393 C1390 1.387 . S
C1394 C1395 1.387 . S
C1394 H1398 0.950 . S
C1394 C1403 1.362 1_655 S
C1395 C1394 1.387 . S
C1395 C1397 1.402 . S
H1396 C1403 0.937 . S
C1397 C1395 1.402 . S
C1397 C1399 1.362 1_655 S
C1397 H1401 0.937 . S
H1398 C1394 0.950 . S
C1399 C1397 1.362 1_455 S
C1399 C1400 1.387 . S
C1399 H1402 0.950 . S
C1400 C1399 1.387 . S
C1400 C1403 1.402 . S
H1401 C1397 0.937 . S
H1402 C1399 0.950 . S
C1403 C1394 1.362 1_455 S
C1403 H1396 0.937 . S
C1403 C1400 1.402 . S
C1404 C1405 1.387 1_556 S
C1404 H1408 0.950 . S
C1404 C1413 1.390 . S
C1405 C1404 1.387 1_554 S
C1405 C1407 1.387 . S
H1406 C1413 0.950 . S
C1407 C1405 1.387 . S
C1407 C1409 1.390 . S
C1407 H1411 0.950 . S
H1408 C1404 0.950 . S
C1409 C1407 1.390 . S
C1409 C1410 1.387 . S
C1409 H1412 0.950 . S
C1410 C1409 1.387 . S
C1410 C1413 1.387 1_554 S
H1411 C1407 0.950 . S
H1412 C1409 0.950 . S
C1413 C1404 1.390 . S
C1413 H1406 0.950 . S
C1413 C1410 1.387 1_556 S
C1414 C1415 1.387 . S
C1414 H1418 0.950 . S
C1414 C1423 1.390 . S
C1415 C1414 1.387 . S
C1415 C1417 1.387 1_554 S
H1416 C1423 0.950 . S
C1417 C1415 1.387 1_556 S
C1417 C1419 1.390 . S
C1417 H1421 0.950 . S
H1418 C1414 0.950 . S
C1419 C1417 1.390 . S
C1419 C1420 1.387 1_556 S
C1419 H1422 0.950 . S
C1420 C1419 1.387 1_554 S
C1420 C1423 1.387 . S
H1421 C1417 0.950 . S
H1422 C1419 0.950 . S
C1423 C1414 1.390 . S
C1423 H1416 0.950 . S
C1423 C1420 1.387 . S
C1424 C1425 1.387 . S
C1424 H1428 0.950 . S
C1424 C1433 1.390 . S
C1425 C1424 1.387 . S
C1425 C1427 1.387 1_554 S
H1426 C1433 0.950 . S
C1427 C1425 1.387 1_556 S
C1427 C1429 1.390 . S
C1427 H1431 0.950 . S
H1428 C1424 0.950 . S
C1429 C1427 1.390 . S
C1429 C1430 1.387 1_556 S
C1429 H1432 0.950 . S
C1430 C1429 1.387 1_554 S
C1430 C1433 1.387 . S
H1431 C1427 0.950 . S
H1432 C1429 0.950 . S
C1433 C1424 1.390 . S
C1433 H1426 0.950 . S
C1433 C1430 1.387 . S
C1434 C1435 1.387 1_554 S
C1434 H1438 0.950 . S
C1434 C1443 1.390 . S
C1435 C1434 1.387 1_556 S
C1435 C1437 1.387 . S
H1436 C1443 0.950 . S
C1437 C1435 1.387 . S
C1437 C1439 1.390 . S
C1437 H1441 0.950 . S
H1438 C1434 0.950 . S
C1439 C1437 1.390 . S
C1439 C1440 1.387 . S
C1439 H1442 0.950 . S
C1440 C1439 1.387 . S
C1440 C1443 1.387 1_556 S
H1441 C1437 0.950 . S
H1442 C1439 0.950 . S
C1443 C1434 1.390 . S
C1443 H1436 0.950 . S
C1443 C1440 1.387 1_554 S
C1444 C1445 1.387 1_554 S
C1444 H1448 0.950 . S
C1444 C1453 1.390 . S
C1445 C1444 1.387 1_556 S
C1445 C1447 1.387 . S
H1446 C1453 0.950 . S
C1447 C1445 1.387 . S
C1447 C1449 1.390 . S
C1447 H1451 0.950 . S
H1448 C1444 0.950 . S
C1449 C1447 1.390 . S
C1449 C1450 1.387 . S
C1449 H1452 0.950 . S
C1450 C1449 1.387 . S
C1450 C1453 1.387 1_556 S
H1451 C1447 0.950 . S
H1452 C1449 0.950 . S
C1453 C1444 1.390 . S
C1453 H1446 0.950 . S
C1453 C1450 1.387 1_554 S
C1454 C1455 1.387 1_554 S
C1454 H1458 0.950 . S
C1454 C1463 1.390 . S
C1455 C1454 1.387 1_556 S
C1455 C1457 1.387 . S
H1456 C1463 0.950 . S
C1457 C1455 1.387 . S
C1457 C1459 1.390 . S
C1457 H1461 0.950 . S
H1458 C1454 0.950 . S
C1459 C1457 1.390 . S
C1459 C1460 1.387 . S
C1459 H1462 0.950 . S
C1460 C1459 1.387 . S
C1460 C1463 1.387 1_556 S
H1461 C1457 0.950 . S
H1462 C1459 0.950 . S
C1463 C1454 1.390 . S
C1463 H1456 0.950 . S
C1463 C1460 1.387 1_554 S
C1464 C1465 1.387 . S
C1464 H1468 0.950 . S
C1464 C1473 1.390 . S
C1465 C1464 1.387 . S
C1465 C1467 1.387 . S
H1466 C1473 0.950 . S
C1467 C1465 1.387 . S
C1467 C1469 1.390 . S
C1467 H1471 0.950 . S
H1468 C1464 0.950 . S
C1469 C1467 1.390 . S
C1469 C1470 1.387 . S
C1469 H1472 0.950 . S
C1470 C1469 1.387 . S
C1470 C1473 1.387 . S
H1471 C1467 0.950 . S
H1472 C1469 0.950 . S
C1473 C1464 1.390 . S
C1473 H1466 0.950 . S
C1473 C1470 1.387 . S
C1474 C1475 1.387 . S
C1474 H1478 0.950 . S
C1474 C1483 1.390 . S
C1475 C1474 1.387 . S
C1475 C1477 1.387 . S
H1476 C1483 0.950 . S
C1477 C1475 1.387 . S
C1477 C1479 1.390 . S
C1477 H1481 0.950 . S
H1478 C1474 0.950 . S
C1479 C1477 1.390 . S
C1479 C1480 1.387 . S
C1479 H1482 0.950 . S
C1480 C1479 1.387 . S
C1480 C1483 1.387 . S
H1481 C1477 0.950 . S
H1482 C1479 0.950 . S
C1483 C1474 1.390 . S
C1483 H1476 0.950 . S
C1483 C1480 1.387 . S
C1484 C1485 1.387 . S
C1484 H1488 0.950 . S
C1484 C1493 1.390 . S
C1485 C1484 1.387 . S
C1485 C1487 1.387 . S
H1486 C1493 0.950 . S
C1487 C1485 1.387 . S
C1487 C1489 1.390 . S
C1487 H1491 0.950 . S
H1488 C1484 0.950 . S
C1489 C1487 1.390 . S
C1489 C1490 1.387 . S
C1489 H1492 0.950 . S
C1490 C1489 1.387 . S
C1490 C1493 1.387 . S
H1491 C1487 0.950 . S
H1492 C1489 0.950 . S
C1493 C1484 1.390 . S
C1493 H1486 0.950 . S
C1493 C1490 1.387 . S
C1494 C1495 1.387 . S
C1494 H1498 0.950 . S
C1494 C1503 1.390 . S
C1495 C1494 1.387 . S
C1495 C1497 1.387 . S
H1496 C1503 0.950 . S
C1497 C1495 1.387 . S
C1497 C1499 1.390 . S
C1497 H1501 0.950 . S
H1498 C1494 0.950 . S
C1499 C1497 1.390 . S
C1499 C1500 1.387 . S
C1499 H1502 0.950 . S
C1500 C1499 1.387 . S
C1500 C1503 1.387 . S
H1501 C1497 0.950 . S
H1502 C1499 0.950 . S
C1503 C1494 1.390 . S
C1503 H1496 0.950 . S
C1503 C1500 1.387 . S
C1504 C1505 1.387 . S
C1504 H1508 0.950 . S
C1504 C1513 1.390 . S
C1505 C1504 1.387 . S
C1505 C1507 1.387 . S
H1506 C1513 0.950 . S
C1507 C1505 1.387 . S
C1507 C1509 1.390 . S
C1507 H1511 0.950 . S
H1508 C1504 0.950 . S
C1509 C1507 1.390 . S
C1509 C1510 1.387 . S
C1509 H1512 0.950 . S
C1510 C1509 1.387 . S
C1510 C1513 1.387 . S
H1511 C1507 0.950 . S
H1512 C1509 0.950 . S
C1513 C1504 1.390 . S
C1513 H1506 0.950 . S
C1513 C1510 1.387 . S
C1514 C1515 1.387 . S
C1514 H1518 0.950 . S
C1514 C1523 1.390 . S
C1515 C1514 1.387 . S
C1515 C1517 1.387 . S
H1516 C1523 0.950 . S
C1517 C1515 1.387 . S
C1517 C1519 1.390 . S
C1517 H1521 0.950 . S
H1518 C1514 0.950 . S
C1519 C1517 1.390 . S
C1519 C1520 1.387 . S
C1519 H1522 0.950 . S
C1520 C1519 1.387 . S
C1520 C1523 1.387 . S
H1521 C1517 0.950 . S
H1522 C1519 0.950 . S
C1523 C1514 1.390 . S
C1523 H1516 0.950 . S
C1523 C1520 1.387 . S
C1524 C1525 1.387 . S
C1524 H1528 0.950 . S
C1524 C1533 1.390 . S
C1525 C1524 1.387 . S
C1525 C1527 1.387 . S
H1526 C1533 0.950 . S
C1527 C1525 1.387 . S
C1527 C1529 1.390 . S
C1527 H1531 0.950 . S
H1528 C1524 0.950 . S
C1529 C1527 1.390 . S
C1529 C1530 1.387 . S
C1529 H1532 0.950 . S
C1530 C1529 1.387 . S
C1530 C1533 1.387 . S
H1531 C1527 0.950 . S
H1532 C1529 0.950 . S
C1533 C1524 1.390 . S
C1533 H1526 0.950 . S
C1533 C1530 1.387 . S
C1534 C1535 1.387 . S
C1534 H1538 0.950 . S
C1534 C1543 1.390 . S
C1535 C1534 1.387 . S
C1535 C1537 1.387 . S
H1536 C1543 0.950 . S
C1537 C1535 1.387 . S
C1537 C1539 1.390 . S
C1537 H1541 0.950 . S
H1538 C1534 0.950 . S
C1539 C1537 1.390 . S
C1539 C1540 1.387 . S
C1539 H1542 0.950 . S
C1540 C1539 1.387 . S
C1540 C1543 1.387 . S
H1541 C1537 0.950 . S
H1542 C1539 0.950 . S
C1543 C1534 1.390 . S
C1543 H1536 0.950 . S
C1543 C1540 1.387 . S
C1544 C1545 1.387 . S
C1544 H1548 0.950 . S
C1544 C1553 1.390 . S
C1545 C1544 1.387 . S
C1545 C1547 1.387 . S
H1546 C1553 0.950 . S
C1547 C1545 1.387 . S
C1547 C1549 1.390 . S
C1547 H1551 0.950 . S
H1548 C1544 0.950 . S
C1549 C1547 1.390 . S
C1549 C1550 1.387 . S
C1549 H1552 0.950 . S
C1550 C1549 1.387 . S
C1550 C1553 1.387 . S
H1551 C1547 0.950 . S
H1552 C1549 0.950 . S
C1553 C1544 1.390 . S
C1553 H1546 0.950 . S
C1553 C1550 1.387 . S
C1554 C1555 1.387 . S
C1554 H1558 0.950 . S
C1554 C1563 1.390 . S
C1555 C1554 1.387 . S
C1555 C1557 1.387 . S
H1556 C1563 0.950 . S
C1557 C1555 1.387 . S
C1557 C1559 1.390 . S
C1557 H1561 0.950 . S
H1558 C1554 0.950 . S
C1559 C1557 1.390 . S
C1559 C1560 1.387 . S
C1559 H1562 0.950 . S
C1560 C1559 1.387 . S
C1560 C1563 1.387 . S
H1561 C1557 0.950 . S
H1562 C1559 0.950 . S
C1563 C1554 1.390 . S
C1563 H1556 0.950 . S
C1563 C1560 1.387 . S
C1564 C1565 1.387 . S
C1564 H1568 0.950 . S
C1564 C1573 1.390 . S
C1565 C1564 1.387 . S
C1565 C1567 1.387 . S
H1566 C1573 0.950 . S
C1567 C1565 1.387 . S
C1567 C1569 1.390 . S
C1567 H1571 0.950 . S
H1568 C1564 0.950 . S
C1569 C1567 1.390 . S
C1569 C1570 1.387 . S
C1569 H1572 0.950 . S
C1570 C1569 1.387 . S
C1570 C1573 1.387 . S
H1571 C1567 0.950 . S
H1572 C1569 0.950 . S
C1573 C1564 1.390 . S
C1573 H1566 0.950 . S
C1573 C1570 1.387 . S
C1574 C1575 1.387 . S
C1574 H1578 0.950 . S
C1574 C1583 1.390 . S
C1575 C1574 1.387 . S
C1575 C1577 1.387 . S
H1576 C1583 0.950 . S
C1577 C1575 1.387 . S
C1577 C1579 1.390 . S
C1577 H1581 0.950 . S
H1578 C1574 0.950 . S
C1579 C1577 1.390 . S
C1579 C1580 1.387 . S
C1579 H1582 0.950 . S
C1580 C1579 1.387 . S
C1580 C1583 1.387 . S
H1581 C1577 0.950 . S
H1582 C1579 0.950 . S
C1583 C1574 1.390 . S
C1583 H1576 0.950 . S
C1583 C1580 1.387 . S
C1584 C1585 1.387 . S
C1584 H1588 0.950 . S
C1584 C1593 1.390 . S
C1585 C1584 1.387 . S
C1585 C1587 1.387 . S
H1586 C1593 0.950 . S
C1587 C1585 1.387 . S
C1587 C1589 1.390 . S
C1587 H1591 0.950 . S
H1588 C1584 0.950 . S
C1589 C1587 1.390 . S
C1589 C1590 1.387 . S
C1589 H1592 0.950 . S
C1590 C1589 1.387 . S
C1590 C1593 1.387 . S
H1591 C1587 0.950 . S
H1592 C1589 0.950 . S
C1593 C1584 1.390 . S
C1593 H1586 0.950 . S
C1593 C1590 1.387 . S
C1594 C1595 1.387 . S
C1594 H1598 0.950 . S
C1594 C1603 1.390 . S
C1595 C1594 1.387 . S
C1595 C1597 1.387 . S
H1596 C1603 0.950 . S
C1597 C1595 1.387 . S
C1597 C1599 1.390 . S
C1597 H1601 0.950 . S
H1598 C1594 0.950 . S
C1599 C1597 1.390 . S
C1599 C1600 1.387 . S
C1599 H1602 0.950 . S
C1600 C1599 1.387 . S
C1600 C1603 1.387 . S
H1601 C1597 0.950 . S
H1602 C1599 0.950 . S
C1603 C1594 1.390 . S
C1603 H1596 0.950 . S
C1603 C1600 1.387 . S
C1604 C1605 1.387 . S
C1604 H1608 0.950 . S
C1604 C1613 1.390 . S
C1605 C1604 1.387 . S
C1605 C1607 1.387 . S
H1606 C1613 0.950 . S
C1607 C1605 1.387 . S
C1607 C1609 1.390 . S
C1607 H1611 0.950 . S
H1608 C1604 0.950 . S
C1609 C1607 1.390 . S
C1609 C1610 1.387 . S
C1609 H1612 0.950 . S
C1610 C1609 1.387 . S
C1610 C1613 1.387 . S
H1611 C1607 0.950 . S
H1612 C1609 0.950 . S
C1613 C1604 1.390 . S
C1613 H1606 0.950 . S
C1613 C1610 1.387 . S
C1614 C1615 1.387 . S
C1614 H1618 0.950 . S
C1614 C1623 1.390 . S
C1615 C1614 1.387 . S
C1615 C1617 1.387 . S
H1616 C1623 0.950 . S
C1617 C1615 1.387 . S
C1617 C1619 1.390 . S
C1617 H1621 0.950 . S
H1618 C1614 0.950 . S
C1619 C1617 1.390 . S
C1619 C1620 1.387 . S
C1619 H1622 0.950 . S
C1620 C1619 1.387 . S
C1620 C1623 1.387 . S
H1621 C1617 0.950 . S
H1622 C1619 0.950 . S
C1623 C1614 1.390 . S
C1623 H1616 0.950 . S
C1623 C1620 1.387 . S
C1624 C1625 1.387 . S
C1624 H1628 0.950 . S
C1624 C1633 1.390 . S
C1625 C1624 1.387 . S
C1625 C1627 1.387 . S
H1626 C1633 0.950 . S
C1627 C1625 1.387 . S
C1627 C1629 1.390 . S
C1627 H1631 0.950 . S
H1628 C1624 0.950 . S
C1629 C1627 1.390 . S
C1629 C1630 1.387 . S
C1629 H1632 0.950 . S
C1630 C1629 1.387 . S
C1630 C1633 1.387 . S
H1631 C1627 0.950 . S
H1632 C1629 0.950 . S
C1633 C1624 1.390 . S
C1633 H1626 0.950 . S
C1633 C1630 1.387 . S
C1634 C1635 1.387 . S
C1634 H1638 0.950 . S
C1634 C1643 1.390 . S
C1635 C1634 1.387 . S
C1635 C1637 1.387 . S
H1636 C1643 0.950 . S
C1637 C1635 1.387 . S
C1637 C1639 1.390 . S
C1637 H1641 0.950 . S
H1638 C1634 0.950 . S
C1639 C1637 1.390 . S
C1639 C1640 1.387 . S
C1639 H1642 0.950 . S
C1640 C1639 1.387 . S
C1640 C1643 1.387 . S
H1641 C1637 0.950 . S
H1642 C1639 0.950 . S
C1643 C1634 1.390 . S
C1643 H1636 0.950 . S
C1643 C1640 1.387 . S
C1644 C1645 1.387 . S
C1644 H1648 0.950 . S
C1644 C1653 1.390 . S
C1645 C1644 1.387 . S
C1645 C1647 1.387 . S
H1646 C1653 0.950 . S
C1647 C1645 1.387 . S
C1647 C1649 1.390 . S
C1647 H1651 0.950 . S
H1648 C1644 0.950 . S
C1649 C1647 1.390 . S
C1649 C1650 1.387 . S
C1649 H1652 0.950 . S
C1650 C1649 1.387 . S
C1650 C1653 1.387 . S
H1651 C1647 0.950 . S
H1652 C1649 0.950 . S
C1653 C1644 1.390 . S
C1653 H1646 0.950 . S
C1653 C1650 1.387 . S
C1654 C1655 1.387 . S
C1654 H1658 0.950 . S
C1654 C1663 1.390 . S
C1655 C1654 1.387 . S
C1655 C1657 1.387 . S
H1656 C1663 0.950 . S
C1657 C1655 1.387 . S
C1657 C1659 1.390 . S
C1657 H1661 0.950 . S
H1658 C1654 0.950 . S
C1659 C1657 1.390 . S
C1659 C1660 1.387 . S
C1659 H1662 0.950 . S
C1660 C1659 1.387 . S
C1660 C1663 1.387 . S
H1661 C1657 0.950 . S
H1662 C1659 0.950 . S
C1663 C1654 1.390 . S
C1663 H1656 0.950 . S
C1663 C1660 1.387 . S
C1664 C1665 1.387 . S
C1664 H1668 0.950 . S
C1664 C1673 1.390 . S
C1665 C1664 1.387 . S
C1665 C1667 1.387 . S
H1666 C1673 0.950 . S
C1667 C1665 1.387 . S
C1667 C1669 1.390 . S
C1667 H1671 0.950 . S
H1668 C1664 0.950 . S
C1669 C1667 1.390 . S
C1669 C1670 1.387 . S
C1669 H1672 0.950 . S
C1670 C1669 1.387 . S
C1670 C1673 1.387 . S
H1671 C1667 0.950 . S
H1672 C1669 0.950 . S
C1673 C1664 1.390 . S
C1673 H1666 0.950 . S
C1673 C1670 1.387 . S
C1674 C1675 1.387 . S
C1674 H1678 0.950 . S
C1674 C1683 1.390 . S
C1675 C1674 1.387 . S
C1675 C1677 1.387 . S
H1676 C1683 0.950 . S
C1677 C1675 1.387 . S
C1677 C1679 1.390 . S
C1677 H1681 0.950 . S
H1678 C1674 0.950 . S
C1679 C1677 1.390 . S
C1679 C1680 1.387 . S
C1679 H1682 0.950 . S
C1680 C1679 1.387 . S
C1680 C1683 1.387 . S
H1681 C1677 0.950 . S
H1682 C1679 0.950 . S
C1683 C1674 1.390 . S
C1683 H1676 0.950 . S
C1683 C1680 1.387 . S
C1684 C1685 1.387 . S
C1684 H1688 0.950 . S
C1684 C1693 1.390 . S
C1685 C1684 1.387 . S
C1685 C1687 1.387 . S
H1686 C1693 0.950 . S
C1687 C1685 1.387 . S
C1687 C1689 1.390 . S
C1687 H1691 0.950 . S
H1688 C1684 0.950 . S
C1689 C1687 1.390 . S
C1689 C1690 1.387 . S
C1689 H1692 0.950 . S
C1690 C1689 1.387 . S
C1690 C1693 1.387 . S
H1691 C1687 0.950 . S
H1692 C1689 0.950 . S
C1693 C1684 1.390 . S
C1693 H1686 0.950 . S
C1693 C1690 1.387 . S
C1694 C1695 1.387 . S
C1694 H1698 0.950 . S
C1694 C1703 1.390 . S
C1695 C1694 1.387 . S
C1695 C1697 1.387 . S
H1696 C1703 0.950 . S
C1697 C1695 1.387 . S
C1697 C1699 1.390 . S
C1697 H1701 0.950 . S
H1698 C1694 0.950 . S
C1699 C1697 1.390 . S
C1699 C1700 1.387 . S
C1699 H1702 0.950 . S
C1700 C1699 1.387 . S
C1700 C1703 1.387 . S
H1701 C1697 0.950 . S
H1702 C1699 0.950 . S
C1703 C1694 1.390 . S
C1703 H1696 0.950 . S
C1703 C1700 1.387 . S
C1704 C1705 1.387 . S
C1704 H1708 0.950 . S
C1704 C1713 1.390 . S
C1705 C1704 1.387 . S
C1705 C1707 1.387 1_455 S
H1706 C1713 0.950 . S
C1707 C1705 1.387 1_655 S
C1707 C1709 1.390 . S
C1707 H1711 0.950 . S
H1708 C1704 0.950 . S
C1709 C1707 1.390 . S
C1709 C1710 1.387 . S
C1709 H1712 0.950 . S
C1710 C1709 1.387 . S
C1710 C1713 1.387 1_655 S
H1711 C1707 0.950 . S
H1712 C1709 0.950 . S
C1713 C1704 1.390 . S
C1713 H1706 0.950 . S
C1713 C1710 1.387 1_455 S
C1714 C1715 1.387 . S
C1714 H1718 0.950 . S
C1714 C1723 1.390 . S
C1715 C1714 1.387 . S
C1715 C1717 1.387 . S
H1716 C1723 0.950 . S
C1717 C1715 1.387 . S
C1717 C1719 1.390 . S
C1717 H1721 0.950 . S
H1718 C1714 0.950 . S
C1719 C1717 1.390 . S
C1719 C1720 1.387 . S
C1719 H1722 0.950 . S
C1720 C1719 1.387 . S
C1720 C1723 1.387 . S
H1721 C1717 0.950 . S
H1722 C1719 0.950 . S
C1723 C1714 1.390 . S
C1723 H1716 0.950 . S
C1723 C1720 1.387 . S
C1724 C1725 1.387 . S
C1724 H1728 0.950 . S
C1724 C1733 1.390 1_565 S
C1725 C1724 1.387 . S
C1725 C1727 1.387 . S
H1726 C1733 0.950 . S
C1727 C1725 1.387 . S
C1727 C1729 1.390 1_565 S
C1727 H1731 0.950 . S
H1728 C1724 0.950 . S
C1729 C1727 1.390 1_545 S
C1729 C1730 1.387 . S
C1729 H1732 0.950 . S
C1730 C1729 1.387 . S
C1730 C1733 1.387 . S
H1731 C1727 0.950 . S
H1732 C1729 0.950 . S
C1733 C1724 1.390 1_545 S
C1733 H1726 0.950 . S
C1733 C1730 1.387 . S
C1734 C1735 1.387 . S
C1734 H1738 0.950 . S
C1734 C1743 1.390 1_565 S
C1735 C1734 1.387 . S
C1735 C1737 1.387 . S
H1736 C1743 0.950 . S
C1737 C1735 1.387 . S
C1737 C1739 1.390 1_565 S
C1737 H1741 0.950 . S
H1738 C1734 0.950 . S
C1739 C1737 1.390 1_545 S
C1739 C1740 1.387 . S
C1739 H1742 0.950 . S
C1740 C1739 1.387 . S
C1740 C1743 1.387 . S
H1741 C1737 0.950 . S
H1742 C1739 0.950 . S
C1743 C1734 1.390 1_545 S
C1743 H1736 0.950 . S
C1743 C1740 1.387 . S
C1744 C1745 1.387 . S
C1744 H1748 0.950 . S
C1744 C1753 1.390 1_455 S
C1745 C1744 1.387 . S
C1745 C1747 1.387 . S
H1746 C1753 0.950 . S
C1747 C1745 1.387 . S
C1747 C1749 1.390 1_455 S
C1747 H1751 0.950 . S
H1748 C1744 0.950 . S
C1749 C1747 1.390 1_655 S
C1749 C1750 1.387 . S
C1749 H1752 0.950 . S
C1750 C1749 1.387 . S
C1750 C1753 1.387 . S
H1751 C1747 0.950 . S
H1752 C1749 0.950 . S
C1753 C1744 1.390 1_655 S
C1753 H1746 0.950 . S
C1753 C1750 1.387 . S
C1754 C1755 1.387 . S
C1754 H1758 0.950 . S
C1754 C1763 1.390 . S
C1755 C1754 1.387 . S
C1755 C1757 1.387 . S
H1756 C1763 0.950 . S
C1757 C1755 1.387 . S
C1757 C1759 1.390 . S
C1757 H1761 0.950 . S
H1758 C1754 0.950 . S
C1759 C1757 1.390 . S
C1759 C1760 1.387 . S
C1759 H1762 0.950 . S
C1760 C1759 1.387 . S
C1760 C1763 1.387 . S
H1761 C1757 0.950 . S
H1762 C1759 0.950 . S
C1763 C1754 1.390 . S
C1763 H1756 0.950 . S
C1763 C1760 1.387 . S
C1764 C1765 1.387 . S
C1764 H1768 0.950 . S
C1764 C1773 1.390 . S
C1765 C1764 1.387 . S
C1765 C1767 1.387 . S
H1766 C1773 0.950 . S
C1767 C1765 1.387 . S
C1767 C1769 1.390 . S
C1767 H1771 0.950 . S
H1768 C1764 0.950 . S
C1769 C1767 1.390 . S
C1769 C1770 1.387 . S
C1769 H1772 0.950 . S
C1770 C1769 1.387 . S
C1770 C1773 1.387 . S
H1771 C1767 0.950 . S
H1772 C1769 0.950 . S
C1773 C1764 1.390 . S
C1773 H1766 0.950 . S
C1773 C1770 1.387 . S
C1774 C1775 1.387 . S
C1774 H1778 0.950 . S
C1774 C1783 1.390 . S
C1775 C1774 1.387 . S
C1775 C1777 1.387 . S
H1776 C1783 0.950 . S
C1777 C1775 1.387 . S
C1777 C1779 1.390 . S
C1777 H1781 0.950 . S
H1778 C1774 0.950 . S
C1779 C1777 1.390 . S
C1779 C1780 1.387 . S
C1779 H1782 0.950 . S
C1780 C1779 1.387 . S
C1780 C1783 1.387 . S
H1781 C1777 0.950 . S
H1782 C1779 0.950 . S
C1783 C1774 1.390 . S
C1783 H1776 0.950 . S
C1783 C1780 1.387 . S
C1784 C1785 1.387 . S
C1784 H1788 0.950 . S
C1784 C1793 1.390 . S
C1785 C1784 1.387 . S
C1785 C1787 1.387 . S
H1786 C1793 0.950 . S
C1787 C1785 1.387 . S
C1787 C1789 1.390 . S
C1787 H1791 0.950 . S
H1788 C1784 0.950 . S
C1789 C1787 1.390 . S
C1789 C1790 1.387 . S
C1789 H1792 0.950 . S
C1790 C1789 1.387 . S
C1790 C1793 1.387 . S
H1791 C1787 0.950 . S
H1792 C1789 0.950 . S
C1793 C1784 1.390 . S
C1793 H1786 0.950 . S
C1793 C1790 1.387 . S
C1794 C1795 1.387 . S
C1794 H1798 0.950 . S
C1794 C1803 1.390 . S
C1795 C1794 1.387 . S
C1795 C1797 1.387 . S
H1796 C1803 0.950 . S
C1797 C1795 1.387 . S
C1797 C1799 1.390 . S
C1797 H1801 0.950 . S
H1798 C1794 0.950 . S
C1799 C1797 1.390 . S
C1799 C1800 1.387 . S
C1799 H1802 0.950 . S
C1800 C1799 1.387 . S
C1800 C1803 1.387 . S
H1801 C1797 0.950 . S
H1802 C1799 0.950 . S
C1803 C1794 1.390 . S
C1803 H1796 0.950 . S
C1803 C1800 1.387 . S
C1804 C1805 1.387 . S
C1804 H1808 0.950 . S
C1804 C1813 1.390 . S
C1805 C1804 1.387 . S
C1805 C1807 1.387 . S
H1806 C1813 0.950 . S
C1807 C1805 1.387 . S
C1807 C1809 1.390 . S
C1807 H1811 0.950 . S
H1808 C1804 0.950 . S
C1809 C1807 1.390 . S
C1809 C1810 1.387 . S
C1809 H1812 0.950 . S
C1810 C1809 1.387 . S
C1810 C1813 1.387 . S
H1811 C1807 0.950 . S
H1812 C1809 0.950 . S
C1813 C1804 1.390 . S
C1813 H1806 0.950 . S
C1813 C1810 1.387 . S
C1814 C1815 1.387 . S
C1814 H1818 0.950 . S
C1814 C1823 1.390 . S
C1815 C1814 1.387 . S
C1815 C1817 1.387 . S
H1816 C1823 0.950 . S
C1817 C1815 1.387 . S
C1817 C1819 1.390 . S
C1817 H1821 0.950 . S
H1818 C1814 0.950 . S
C1819 C1817 1.390 . S
C1819 C1820 1.387 . S
C1819 H1822 0.950 . S
C1820 C1819 1.387 . S
C1820 C1823 1.387 . S
H1821 C1817 0.950 . S
H1822 C1819 0.950 . S
C1823 C1814 1.390 . S
C1823 H1816 0.950 . S
C1823 C1820 1.387 . S
C1824 C1825 1.387 . S
C1824 H1828 0.950 . S
C1824 C1833 1.390 . S
C1825 C1824 1.387 . S
C1825 C1827 1.387 . S
H1826 C1833 0.950 . S
C1827 C1825 1.387 . S
C1827 C1829 1.390 . S
C1827 H1831 0.950 . S
H1828 C1824 0.950 . S
C1829 C1827 1.390 . S
C1829 C1830 1.387 . S
C1829 H1832 0.950 . S
C1830 C1829 1.387 . S
C1830 C1833 1.387 . S
H1831 C1827 0.950 . S
H1832 C1829 0.950 . S
C1833 C1824 1.390 . S
C1833 H1826 0.950 . S
C1833 C1830 1.387 . S
C1834 C1835 1.387 . S
C1834 H1838 0.950 . S
C1834 C1843 1.390 . S
C1835 C1834 1.387 . S
C1835 C1837 1.387 . S
H1836 C1843 0.950 . S
C1837 C1835 1.387 . S
C1837 C1839 1.390 . S
C1837 H1841 0.950 . S
H1838 C1834 0.950 . S
C1839 C1837 1.390 . S
C1839 C1840 1.387 . S
C1839 H1842 0.950 . S
C1840 C1839 1.387 . S
C1840 C1843 1.387 . S
H1841 C1837 0.950 . S
H1842 C1839 0.950 . S
C1843 C1834 1.390 . S
C1843 H1836 0.950 . S
C1843 C1840 1.387 . S
C1844 C1845 1.387 . S
C1844 H1848 0.950 . S
C1844 C1853 1.390 . S
C1845 C1844 1.387 . S
C1845 C1847 1.387 . S
H1846 C1853 0.950 . S
C1847 C1845 1.387 . S
C1847 C1849 1.390 . S
C1847 H1851 0.950 . S
H1848 C1844 0.950 . S
C1849 C1847 1.390 . S
C1849 C1850 1.387 . S
C1849 H1852 0.950 . S
C1850 C1849 1.387 . S
C1850 C1853 1.387 . S
H1851 C1847 0.950 . S
H1852 C1849 0.950 . S
C1853 C1844 1.390 . S
C1853 H1846 0.950 . S
C1853 C1850 1.387 . S
C1854 C1855 1.387 . S
C1854 H1858 0.950 . S
C1854 C1863 1.390 . S
C1855 C1854 1.387 . S
C1855 C1857 1.387 . S
H1856 C1863 0.950 . S
C1857 C1855 1.387 . S
C1857 C1859 1.390 . S
C1857 H1861 0.950 . S
H1858 C1854 0.950 . S
C1859 C1857 1.390 . S
C1859 C1860 1.387 . S
C1859 H1862 0.950 . S
C1860 C1859 1.387 . S
C1860 C1863 1.387 . S
H1861 C1857 0.950 . S
H1862 C1859 0.950 . S
C1863 C1854 1.390 . S
C1863 H1856 0.950 . S
C1863 C1860 1.387 . S
C1864 C1865 1.387 . S
C1864 H1868 0.950 . S
C1864 C1873 1.390 . S
C1865 C1864 1.387 . S
C1865 C1867 1.387 . S
H1866 C1873 0.950 . S
C1867 C1865 1.387 . S
C1867 C1869 1.390 . S
C1867 H1871 0.950 . S
H1868 C1864 0.950 . S
C1869 C1867 1.390 . S
C1869 C1870 1.387 . S
C1869 H1872 0.950 . S
C1870 C1869 1.387 . S
C1870 C1873 1.387 . S
H1871 C1867 0.950 . S
H1872 C1869 0.950 . S
C1873 C1864 1.390 . S
C1873 H1866 0.950 . S
C1873 C1870 1.387 . S
C1874 C1875 1.387 . S
C1874 H1878 0.950 . S
C1874 C1883 1.390 . S
C1875 C1874 1.387 . S
C1875 C1877 1.387 . S
H1876 C1883 0.950 . S
C1877 C1875 1.387 . S
C1877 C1879 1.390 . S
C1877 H1881 0.950 . S
H1878 C1874 0.950 . S
C1879 C1877 1.390 . S
C1879 C1880 1.387 . S
C1879 H1882 0.950 . S
C1880 C1879 1.387 . S
C1880 C1883 1.387 . S
H1881 C1877 0.950 . S
H1882 C1879 0.950 . S
C1883 C1874 1.390 . S
C1883 H1876 0.950 . S
C1883 C1880 1.387 . S
C1884 C1885 1.387 . S
C1884 H1888 0.950 . S
C1884 C1893 1.390 . S
C1885 C1884 1.387 . S
C1885 C1887 1.387 . S
H1886 C1893 0.950 . S
C1887 C1885 1.387 . S
C1887 C1889 1.390 . S
C1887 H1891 0.950 . S
H1888 C1884 0.950 . S
C1889 C1887 1.390 . S
C1889 C1890 1.387 . S
C1889 H1892 0.950 . S
C1890 C1889 1.387 . S
C1890 C1893 1.387 . S
H1891 C1887 0.950 . S
H1892 C1889 0.950 . S
C1893 C1884 1.390 . S
C1893 H1886 0.950 . S
C1893 C1890 1.387 . S
C1894 C1895 1.387 . S
C1894 H1898 0.950 1_556 S
C1894 C1903 1.390 . S
C1895 C1894 1.387 . S
C1895 C1897 1.387 . S
H1896 C1903 0.950 . S
C1897 C1895 1.387 . S
C1897 C1899 1.390 . S
C1897 H1901 0.950 . S
H1898 C1894 0.950 1_554 S
C1899 C1897 1.390 . S
C1899 C1900 1.387 . S
C1899 H1902 0.950 . S
C1900 C1899 1.387 . S
C1900 C1903 1.387 . S
H1901 C1897 0.950 . S
H1902 C1899 0.950 . S
C1903 C1894 1.390 . S
C1903 H1896 0.950 . S
C1903 C1900 1.387 . S
C1904 C1905 1.387 . S
C1904 H1908 0.950 . S
C1904 C1913 1.390 . S
C1905 C1904 1.387 . S
C1905 C1907 1.387 . S
H1906 C1913 0.950 . S
C1907 C1905 1.387 . S
C1907 C1909 1.390 . S
C1907 H1911 0.950 . S
H1908 C1904 0.950 . S
C1909 C1907 1.390 . S
C1909 C1910 1.387 . S
C1909 H1912 0.950 . S
C1910 C1909 1.387 . S
C1910 C1913 1.387 . S
H1911 C1907 0.950 . S
H1912 C1909 0.950 . S
C1913 C1904 1.390 . S
C1913 H1906 0.950 . S
C1913 C1910 1.387 . S
C1914 C1915 1.387 . S
C1914 H1918 0.950 . S
C1914 C1923 1.390 . S
C1915 C1914 1.387 . S
C1915 C1917 1.387 . S
H1916 C1923 0.950 . S
C1917 C1915 1.387 . S
C1917 C1919 1.390 . S
C1917 H1921 0.950 . S
H1918 C1914 0.950 . S
C1919 C1917 1.390 . S
C1919 C1920 1.387 . S
C1919 H1922 0.950 . S
C1920 C1919 1.387 . S
C1920 C1923 1.387 . S
H1921 C1917 0.950 . S
H1922 C1919 0.950 . S
C1923 C1914 1.390 . S
C1923 H1916 0.950 . S
C1923 C1920 1.387 . S
C1924 C1925 1.387 . S
C1924 H1928 0.950 . S
C1924 C1933 1.390 . S
C1925 C1924 1.387 . S
C1925 C1927 1.387 . S
H1926 C1933 0.950 . S
C1927 C1925 1.387 . S
C1927 C1929 1.390 . S
C1927 H1931 0.950 . S
H1928 C1924 0.950 . S
C1929 C1927 1.390 . S
C1929 C1930 1.387 . S
C1929 H1932 0.950 . S
C1930 C1929 1.387 . S
C1930 C1933 1.387 . S
H1931 C1927 0.950 . S
H1932 C1929 0.950 . S
C1933 C1924 1.390 . S
C1933 H1926 0.950 . S
C1933 C1930 1.387 . S
C1934 C1935 1.387 . S
C1934 H1938 0.950 . S
C1934 C1943 1.390 . S
C1935 C1934 1.387 . S
C1935 C1937 1.387 . S
H1936 C1943 0.950 . S
C1937 C1935 1.387 . S
C1937 C1939 1.390 . S
C1937 H1941 0.950 . S
H1938 C1934 0.950 . S
C1939 C1937 1.390 . S
C1939 C1940 1.387 . S
C1939 H1942 0.950 . S
C1940 C1939 1.387 . S
C1940 C1943 1.387 . S
H1941 C1937 0.950 . S
H1942 C1939 0.950 . S
C1943 C1934 1.390 . S
C1943 H1936 0.950 . S
C1943 C1940 1.387 . S
C1944 C1945 1.387 . S
C1944 H1948 0.950 . S
C1944 C1953 1.390 . S
C1945 C1944 1.387 . S
C1945 C1947 1.387 . S
H1946 C1953 0.950 . S
C1947 C1945 1.387 . S
C1947 C1949 1.390 . S
C1947 H1951 0.950 . S
H1948 C1944 0.950 . S
C1949 C1947 1.390 . S
C1949 C1950 1.387 . S
C1949 H1952 0.950 . S
C1950 C1949 1.387 . S
C1950 C1953 1.387 . S
H1951 C1947 0.950 . S
H1952 C1949 0.950 . S
C1953 C1944 1.390 . S
C1953 H1946 0.950 . S
C1953 C1950 1.387 . S
C1954 C1955 1.387 . S
C1954 H1958 0.950 . S
C1954 C1963 1.390 . S
C1955 C1954 1.387 . S
C1955 C1957 1.387 . S
H1956 C1963 0.950 . S
C1957 C1955 1.387 . S
C1957 C1959 1.390 . S
C1957 H1961 0.950 . S
H1958 C1954 0.950 . S
C1959 C1957 1.390 . S
C1959 C1960 1.387 . S
C1959 H1962 0.950 . S
C1960 C1959 1.387 . S
C1960 C1963 1.387 . S
H1961 C1957 0.950 . S
H1962 C1959 0.950 . S
C1963 C1954 1.390 . S
C1963 H1956 0.950 . S
C1963 C1960 1.387 . S
C1964 C1965 1.387 . S
C1964 H1968 0.950 . S
C1964 C1973 1.390 . S
C1965 C1964 1.387 . S
C1965 C1967 1.387 . S
H1966 C1973 0.950 . S
C1967 C1965 1.387 . S
C1967 C1969 1.390 . S
C1967 H1971 0.950 . S
H1968 C1964 0.950 . S
C1969 C1967 1.390 . S
C1969 C1970 1.387 . S
C1969 H1972 0.950 . S
C1970 C1969 1.387 . S
C1970 C1973 1.387 . S
H1971 C1967 0.950 . S
H1972 C1969 0.950 . S
C1973 C1964 1.390 . S
C1973 H1966 0.950 . S
C1973 C1970 1.387 . S
C1974 C1975 1.387 . S
C1974 H1978 0.950 1_556 S
C1974 C1983 1.390 . S
C1975 C1974 1.387 . S
C1975 C1977 1.387 . S
H1976 C1983 0.950 . S
C1977 C1975 1.387 . S
C1977 C1979 1.390 . S
C1977 H1981 0.950 . S
H1978 C1974 0.950 1_554 S
C1979 C1977 1.390 . S
C1979 C1980 1.387 . S
C1979 H1982 0.950 . S
C1980 C1979 1.387 . S
C1980 C1983 1.387 . S
H1981 C1977 0.950 . S
H1982 C1979 0.950 . S
C1983 C1974 1.390 . S
C1983 H1976 0.950 . S
C1983 C1980 1.387 . S
C1984 C1985 1.387 . S
C1984 H1988 0.950 . S
C1984 C1993 1.390 . S
C1985 C1984 1.387 . S
C1985 C1987 1.387 . S
H1986 C1993 0.950 . S
C1987 C1985 1.387 . S
C1987 C1989 1.390 . S
C1987 H1991 0.950 1_556 S
H1988 C1984 0.950 . S
C1989 C1987 1.390 . S
C1989 C1990 1.387 . S
C1989 H1992 0.950 . S
C1990 C1989 1.387 . S
C1990 C1993 1.387 . S
H1991 C1987 0.950 1_554 S
H1992 C1989 0.950 . S
C1993 C1984 1.390 . S
C1993 H1986 0.950 . S
C1993 C1990 1.387 . S
C1994 C1995 1.387 . S
C1994 H1998 0.950 . S
C1994 C2003 1.390 . S
C1995 C1994 1.387 . S
C1995 C1997 1.387 . S
H1996 C2003 0.950 . S
C1997 C1995 1.387 . S
C1997 C1999 1.390 . S
C1997 H2001 0.950 1_556 S
H1998 C1994 0.950 . S
C1999 C1997 1.390 . S
C1999 C2000 1.387 . S
C1999 H2002 0.950 . S
C2000 C1999 1.387 . S
C2000 C2003 1.387 . S
H2001 C1997 0.950 1_554 S
H2002 C1999 0.950 . S
C2003 C1994 1.390 . S
C2003 H1996 0.950 . S
C2003 C2000 1.387 . S
C2004 C2005 1.387 . S
C2004 H2008 0.950 . S
C2004 C2013 1.390 . S
C2005 C2004 1.387 . S
C2005 C2007 1.387 . S
H2006 C2013 0.950 . S
C2007 C2005 1.387 . S
C2007 C2009 1.390 . S
C2007 H2011 0.950 . S
H2008 C2004 0.950 . S
C2009 C2007 1.390 . S
C2009 C2010 1.387 . S
C2009 H2012 0.950 . S
C2010 C2009 1.387 . S
C2010 C2013 1.387 . S
H2011 C2007 0.950 . S
H2012 C2009 0.950 . S
C2013 C2004 1.390 . S
C2013 H2006 0.950 . S
C2013 C2010 1.387 . S
C2014 C2015 1.387 . S
C2014 H2018 0.950 . S
C2014 C2023 1.390 . S
C2015 C2014 1.387 . S
C2015 C2017 1.387 . S
H2016 C2023 0.950 . S
C2017 C2015 1.387 . S
C2017 C2019 1.390 . S
C2017 H2021 0.950 . S
H2018 C2014 0.950 . S
C2019 C2017 1.390 . S
C2019 C2020 1.387 . S
C2019 H2022 0.950 . S
C2020 C2019 1.387 . S
C2020 C2023 1.387 . S
H2021 C2017 0.950 . S
H2022 C2019 0.950 . S
C2023 C2014 1.390 . S
C2023 H2016 0.950 . S
C2023 C2020 1.387 . S
C2024 C2025 1.387 . S
C2024 H2028 0.950 . S
C2024 C2033 1.390 . S
C2025 C2024 1.387 . S
C2025 C2027 1.387 . S
H2026 C2033 0.950 . S
C2027 C2025 1.387 . S
C2027 C2029 1.390 . S
C2027 H2031 0.950 . S
H2028 C2024 0.950 . S
C2029 C2027 1.390 . S
C2029 C2030 1.387 . S
C2029 H2032 0.950 . S
C2030 C2029 1.387 . S
C2030 C2033 1.387 . S
H2031 C2027 0.950 . S
H2032 C2029 0.950 . S
C2033 C2024 1.390 . S
C2033 H2026 0.950 . S
C2033 C2030 1.387 . S
C2034 C2035 1.387 . S
C2034 H2038 0.950 . S
C2034 C2043 1.390 . S
C2035 C2034 1.387 . S
C2035 C2037 1.387 . S
H2036 C2043 0.950 . S
C2037 C2035 1.387 . S
C2037 C2039 1.390 . S
C2037 H2041 0.950 . S
H2038 C2034 0.950 . S
C2039 C2037 1.390 . S
C2039 C2040 1.387 . S
C2039 H2042 0.951 . S
C2040 C2039 1.387 . S
C2040 C2043 1.387 . S
H2041 C2037 0.950 . S
H2042 C2039 0.951 . S
C2043 C2034 1.390 . S
C2043 H2036 0.950 . S
C2043 C2040 1.387 . S
C2044 C2045 1.387 . S
C2044 H2048 0.950 . S
C2044 C2053 1.390 . S
C2045 C2044 1.387 . S
C2045 C2047 1.387 . S
H2046 C2053 0.950 . S
C2047 C2045 1.387 . S
C2047 C2049 1.390 . S
C2047 H2051 0.950 . S
H2048 C2044 0.950 . S
C2049 C2047 1.390 . S
C2049 C2050 1.387 . S
C2049 H2052 0.950 1_554 S
C2050 C2049 1.387 . S
C2050 C2053 1.387 . S
H2051 C2047 0.950 . S
H2052 C2049 0.950 1_556 S
C2053 C2044 1.390 . S
C2053 H2046 0.950 . S
C2053 C2050 1.387 . S
C2054 C2055 1.387 . S
C2054 H2058 0.950 . S
C2054 C2063 1.390 . S
C2055 C2054 1.387 . S
C2055 C2057 1.387 . S
H2056 C2063 0.945 1_556 S
C2057 C2055 1.387 . S
C2057 C2059 1.390 . S
C2057 H2061 0.950 . S
H2058 C2054 0.950 . S
C2059 C2057 1.390 . S
C2059 C2060 1.387 . S
C2059 H2062 0.950 . S
C2060 C2059 1.387 . S
C2060 C2063 1.387 . S
H2061 C2057 0.950 . S
H2062 C2059 0.950 . S
C2063 C2054 1.390 . S
C2063 H2056 0.945 1_554 S
C2063 C2060 1.387 . S
C2064 C2065 1.387 . S
C2064 H2068 0.950 . S
C2064 C2073 1.390 . S
C2065 C2064 1.387 . S
C2065 C2067 1.387 . S
H2066 C2073 0.950 1_556 S
C2067 C2065 1.387 . S
C2067 C2069 1.390 . S
C2067 H2071 0.950 . S
H2068 C2064 0.950 . S
C2069 C2067 1.390 . S
C2069 C2070 1.387 . S
C2069 H2072 0.950 . S
C2070 C2069 1.387 . S
C2070 C2073 1.387 . S
H2071 C2067 0.950 . S
H2072 C2069 0.950 . S
C2073 C2064 1.390 . S
C2073 H2066 0.950 1_554 S
C2073 C2070 1.387 . S
C2074 C2075 1.387 . S
C2074 H2078 0.950 . S
C2074 C2083 1.390 . S
C2075 C2074 1.387 . S
C2075 C2077 1.387 . S
H2076 C2083 0.950 . S
C2077 C2075 1.387 . S
C2077 C2079 1.390 . S
C2077 H2081 0.950 . S
H2078 C2074 0.950 . S
C2079 C2077 1.390 . S
C2079 C2080 1.387 . S
C2079 H2082 0.950 . S
C2080 C2079 1.387 . S
C2080 C2083 1.387 . S
H2081 C2077 0.950 . S
H2082 C2079 0.950 . S
C2083 C2074 1.390 . S
C2083 H2076 0.950 . S
C2083 C2080 1.387 . S
C2084 C2085 1.387 . S
C2084 H2088 0.950 . S
C2084 C2093 1.390 . S
C2085 C2084 1.387 . S
C2085 C2087 1.387 . S
H2086 C2093 0.950 . S
C2087 C2085 1.387 . S
C2087 C2089 1.390 . S
C2087 H2091 0.950 1_554 S
H2088 C2084 0.950 . S
C2089 C2087 1.390 . S
C2089 C2090 1.387 . S
C2089 H2092 0.950 . S
C2090 C2089 1.387 . S
C2090 C2093 1.387 . S
H2091 C2087 0.950 1_556 S
H2092 C2089 0.950 . S
C2093 C2084 1.390 . S
C2093 H2086 0.950 . S
C2093 C2090 1.387 . S
C2094 C2095 1.387 . S
C2094 H2098 0.950 . S
C2094 C2103 1.390 . S
C2095 C2094 1.387 . S
C2095 C2097 1.387 . S
H2096 C2103 0.950 . S
C2097 C2095 1.387 . S
C2097 C2099 1.390 . S
C2097 H2101 0.950 . S
H2098 C2094 0.950 . S
C2099 C2097 1.390 . S
C2099 C2100 1.387 . S
C2099 H2102 0.950 . S
C2100 C2099 1.387 . S
C2100 C2103 1.387 . S
H2101 C2097 0.950 . S
H2102 C2099 0.950 . S
C2103 C2094 1.390 . S
C2103 H2096 0.950 . S
C2103 C2100 1.387 . S
C2104 C2105 1.387 . S
C2104 H2108 0.950 . S
C2104 C2113 1.390 . S
C2105 C2104 1.387 . S
C2105 C2107 1.387 . S
H2106 C2113 0.950 . S
C2107 C2105 1.387 . S
C2107 C2109 1.390 . S
C2107 H2111 0.950 . S
H2108 C2104 0.950 . S
C2109 C2107 1.390 . S
C2109 C2110 1.387 . S
C2109 H2112 0.950 . S
C2110 C2109 1.387 . S
C2110 C2113 1.387 . S
H2111 C2107 0.950 . S
H2112 C2109 0.950 . S
C2113 C2104 1.390 . S
C2113 H2106 0.950 . S
C2113 C2110 1.387 . S
C2114 C2115 1.387 . S
C2114 H2118 0.950 . S
C2114 C2123 1.390 . S
C2115 C2114 1.387 . S
C2115 C2117 1.387 . S
H2116 C2123 0.950 . S
C2117 C2115 1.387 . S
C2117 C2119 1.390 . S
C2117 H2121 0.950 . S
H2118 C2114 0.950 . S
C2119 C2117 1.390 . S
C2119 C2120 1.387 . S
C2119 H2122 0.950 . S
C2120 C2119 1.387 . S
C2120 C2123 1.387 . S
H2121 C2117 0.950 . S
H2122 C2119 0.950 . S
C2123 C2114 1.390 . S
C2123 H2116 0.950 . S
C2123 C2120 1.387 . S
C1225 C20 1.670 . S
C1230 C530 1.670 . S
C1235 C564 1.672 . S
C1240 C54 1.672 . S
C1245 C88 1.671 . S
C1250 C598 1.671 . S
C1255 C836 1.670 . S
C1260 C122 1.670 . S
C1265 C870 1.672 . S
C1270 C156 1.672 . S
C1275 C190 1.670 . S
C1280 C904 1.670 . S
C1285 C224 1.670 . S
C1290 C1142 1.670 . S
C1295 C1176 1.672 . S
C1300 C258 1.672 . S
C1305 C292 1.672 . S
C1310 C1210 1.672 . S
C1315 C632 1.671 . S
C1320 C326 1.671 . S
C1325 C360 1.670 . S
C1330 C666 1.670 . S
C1335 C700 1.672 . S
C1340 C394 1.672 . S
C1345 C428 1.671 . S
C1350 C938 1.670 . S
C1355 C462 1.670 . S
C1360 C972 1.670 . S
C1365 C1006 1.672 . S
C1370 C496 1.672 . S
C1375 C1040 1.669 . S
C1380 C734 1.670 . S
C1385 C1074 1.670 . S
C1390 C768 1.670 . S
C1395 C802 1.670 . S
C1400 C1108 1.670 . S
C1405 C2 1.540 . S
C1410 C376 1.540 . S
C1415 C36 1.540 . S
C1420 C308 1.540 . S
C1425 C70 1.540 . S
C1430 C342 1.540 . S
C1435 C240 1.540 . S
C1440 C104 1.540 . S
C1445 C274 1.540 . S
C1450 C138 1.540 . S
C1455 C172 1.540 . S
C1460 C206 1.540 . S
C1465 C410 1.540 . S
C1470 C784 1.540 . S
C1475 C716 1.540 . S
C1480 C444 1.540 . S
C1485 C478 1.540 . S
C1490 C750 1.540 . S
C1495 C512 1.540 . S
C1500 C648 1.540 . S
C1505 C546 1.540 . S
C1510 C682 1.541 . S
C1515 C580 1.540 . S
C1520 C614 1.540 . S
C1525 C818 1.540 . S
C1530 C1192 1.540 . S
C1535 C1124 1.540 . S
C1540 C852 1.540 . S
C1545 C1158 1.541 . S
C1550 C886 1.540 . S
C1555 C1056 1.540 . S
C1560 C920 1.540 . S
C1565 C954 1.540 . S
C1570 C1090 1.540 . S
C1575 C988 1.540 . S
C1580 C1022 1.540 . S
C1585 C1019 1.603 . S
C1590 C33 1.603 . S
C1595 C67 1.601 . S
C1600 C951 1.601 . S
C1605 C101 1.603 . S
C1610 C985 1.604 . S
C1615 C475 1.603 . S
C1620 C135 1.603 . S
C1625 C169 1.601 . S
C1630 C509 1.601 . S
C1635 C203 1.603 . S
C1640 C441 1.603 . S
C1645 C815 1.603 . S
C1650 C237 1.603 . S
C1655 C271 1.603 . S
C1660 C747 1.603 . S
C1665 C781 1.601 . S
C1670 C305 1.601 . S
C1675 C1087 1.603 . S
C1680 C339 1.603 . S
C1685 C1121 1.603 . S
C1690 C373 1.603 . S
C1695 C1053 1.601 . S
C1700 C407 1.601 . S
C1705 C543 1.602 . S
C1710 C883 1.602 . S
C1715 C917 1.601 . S
C1720 C577 1.601 . S
C1725 C611 1.600 . S
C1730 C849 1.600 . S
C1735 C645 1.603 . S
C1740 C1223 1.603 . S
C1745 C679 1.600 . S
C1750 C1155 1.600 . S
C1755 C713 1.603 . S
C1760 C1189 1.603 . S
C1765 C9 1.338 . S
C1770 C5 1.315 . S
C1775 C43 1.336 . S
C1780 C39 1.315 . S
C1785 C77 1.338 . S
C1790 C73 1.316 . S
C1795 C107 1.316 . S
C1800 C111 1.338 . S
C1805 C145 1.338 . S
C1810 C141 1.316 . S
C1815 C175 1.312 . S
C1820 C179 1.338 . S
C1825 C213 1.336 . S
C1830 C209 1.313 . S
C1835 C243 1.313 . S
C1840 C247 1.338 . S
C1845 C277 1.315 . S
C1850 C281 1.338 . S
C1855 C315 1.338 . S
C1860 C311 1.315 . S
C1865 C349 1.338 . S
C1870 C345 1.313 . S
C1875 C379 1.312 . S
C1880 C383 1.337 . S
C1885 C413 1.312 1_556 S
C1890 C417 1.337 . S
C1895 C447 1.314 1_556 S
C1900 C451 1.336 . S
C1905 C485 1.337 . S
C1910 C481 1.312 1_556 S
C1915 C515 1.312 . S
C1920 C519 1.337 . S
C1925 C549 1.312 . S
C1930 C553 1.337 . S
C1935 C587 1.339 . S
C1940 C583 1.315 . S
C1945 C617 1.316 . S
C1950 C621 1.338 . S
C1955 C655 1.336 . S
C1960 C651 1.315 . S
C1965 C689 1.336 . S
C1970 C685 1.312 . S
C1975 C719 1.316 1_556 S
C1980 C723 1.338 . S
C1985 C753 1.315 1_556 S
C1990 C757 1.336 . S
C1995 C787 1.315 1_556 S
C2000 C791 1.336 . S
C2005 C821 1.312 . S
C2010 C825 1.336 . S
C2015 C855 1.312 . S
C2020 C859 1.337 . S
C2025 C893 1.338 . S
C2030 C889 1.316 . S
C2035 C927 1.338 . S
C2040 C923 1.316 1_554 S
C2045 C961 1.338 . S
C2050 C957 1.314 1_554 S
C2055 C995 1.337 . S
C2060 C991 1.315 1_554 S
C2065 C1029 1.338 . S
C2070 C1025 1.315 1_554 S
C2075 C1063 1.337 . S
C2080 C1059 1.315 1_554 S
C2085 C1093 1.312 1_554 S
C2090 C1097 1.336 . S
C2095 C1131 1.338 . S
C2100 C1127 1.315 . S
C2105 C1165 1.338 . S
C2110 C1161 1.313 . S
C2115 C1195 1.315 . S
C2120 C1199 1.337 . S
