# Generated by pormake.
# Topology can, (4)-cn, num edge types: 1
# Building blocks:
#     Node 0, Type 0, BuildingBlock: CEKHIL_clean_sbu_0, # of connection points: 4
#     Node 1, Type 0, BuildingBlock: CEKHIL_clean_sbu_0, # of connection points: 4
#     Node 2, Type 0, BuildingBlock: CEKHIL_clean_sbu_0, # of connection points: 4
#     Node 3, Type 0, BuildingBlock: CEKHIL_clean_sbu_0, # of connection points: 4
#     Node 4, Type 0, BuildingBlock: CEKHIL_clean_sbu_0, # of connection points: 4
#     Node 5, Type 0, BuildingBlock: CEKHIL_clean_sbu_0, # of connection points: 4
#     Node 6, Type 0, BuildingBlock: CEKHIL_clean_sbu_0, # of connection points: 4
#     Node 7, Type 0, BuildingBlock: CEKHIL_clean_sbu_0, # of connection points: 4
#     Node 8, Type 0, BuildingBlock: CEKHIL_clean_sbu_0, # of connection points: 4
#     Node 9, Type 0, BuildingBlock: CEKHIL_clean_sbu_0, # of connection points: 4
#     Node 10, Type 0, BuildingBlock: CEKHIL_clean_sbu_0, # of connection points: 4
#     Node 11, Type 0, BuildingBlock: CEKHIL_clean_sbu_0, # of connection points: 4
#     Edge 12, Type (0, 0), BuildingBlock: AJUNOK_clean_linker_0, # of connection points: 2
#     Edge 13, Type (0, 0), BuildingBlock: AJUNOK_clean_linker_0, # of connection points: 2
#     Edge 14, Type (0, 0), BuildingBlock: AJUNOK_clean_linker_0, # of connection points: 2
#     Edge 15, Type (0, 0), BuildingBlock: AJUNOK_clean_linker_0, # of connection points: 2
#     Edge 16, Type (0, 0), BuildingBlock: AJUNOK_clean_linker_0, # of connection points: 2
#     Edge 17, Type (0, 0), BuildingBlock: AJUNOK_clean_linker_0, # of connection points: 2
#     Edge 18, Type (0, 0), BuildingBlock: AJUNOK_clean_linker_0, # of connection points: 2
#     Edge 19, Type (0, 0), BuildingBlock: AJUNOK_clean_linker_0, # of connection points: 2
#     Edge 20, Type (0, 0), BuildingBlock: AJUNOK_clean_linker_0, # of connection points: 2
#     Edge 21, Type (0, 0), BuildingBlock: AJUNOK_clean_linker_0, # of connection points: 2
#     Edge 22, Type (0, 0), BuildingBlock: AJUNOK_clean_linker_0, # of connection points: 2
#     Edge 23, Type (0, 0), BuildingBlock: AJUNOK_clean_linker_0, # of connection points: 2
#     Edge 24, Type (0, 0), BuildingBlock: AJUNOK_clean_linker_0, # of connection points: 2
#     Edge 25, Type (0, 0), BuildingBlock: AJUNOK_clean_linker_0, # of connection points: 2
#     Edge 26, Type (0, 0), BuildingBlock: AJUNOK_clean_linker_0, # of connection points: 2
#     Edge 27, Type (0, 0), BuildingBlock: AJUNOK_clean_linker_0, # of connection points: 2
#     Edge 28, Type (0, 0), BuildingBlock: AJUNOK_clean_linker_0, # of connection points: 2
#     Edge 29, Type (0, 0), BuildingBlock: AJUNOK_clean_linker_0, # of connection points: 2
#     Edge 30, Type (0, 0), BuildingBlock: AJUNOK_clean_linker_0, # of connection points: 2
#     Edge 31, Type (0, 0), BuildingBlock: AJUNOK_clean_linker_0, # of connection points: 2
#     Edge 32, Type (0, 0), BuildingBlock: AJUNOK_clean_linker_0, # of connection points: 2
#     Edge 33, Type (0, 0), BuildingBlock: AJUNOK_clean_linker_0, # of connection points: 2
#     Edge 34, Type (0, 0), BuildingBlock: AJUNOK_clean_linker_0, # of connection points: 2
#     Edge 35, Type (0, 0), BuildingBlock: AJUNOK_clean_linker_0, # of connection points: 2
# Relax obj value: 0.060
# Max RMSD: 0.043
# Mean RMSD: 0.043
data_MOF--net-can--node1-CEKHIL_clean_sbu_0--edge1-AJUNOK_clean_linker_0
_symmetry_space_group_name_H-M    P1
_symmetry_Int_Tables_number       1
_symmetry_cell_setting            triclinic
loop_
_symmetry_equiv_pos_as_xyz
'x, y, z'
_cell_length_a     39.871295
_cell_length_b     39.939998
_cell_length_c     19.773245
_cell_angle_alpha  89.928808
_cell_angle_beta   89.85942
_cell_angle_gamma 120.02649
loop_
_atom_site_label
_atom_site_type_symbol
_atom_site_fract_x
_atom_site_fract_y
_atom_site_fract_z
_atom_type_partial_charge
Co0 Co 0.08024 0.39911 0.27011 0.0
O1 O 0.10295 0.36622 0.27676 0.0
O2 O 0.13344 0.42598 0.2375 0.0
C3 C 0.05475 0.38667 0.3758 0.0
O4 O 0.06788 0.44282 0.25805 0.0
Co5 Co 0.9911 0.36542 0.28246 0.0
O6 O 1.00449 0.42028 0.27833 0.0
C7 C 0.02397 0.35639 0.15418 0.0
C8 C 0.13489 0.39518 0.25395 0.0
C9 C 0.03838 0.44768 0.26376 0.0
O10 O 0.05878 0.37821 0.17664 0.0
O11 O 0.99379 0.34552 0.19095 0.0
O12 O 0.09099 0.4121 0.36595 0.0
O13 O 0.03615 0.36771 0.3229 0.0
Co14 Co 0.68835 0.0716 0.76521 0.0
O15 O 0.7441 0.0953 0.77078 0.0
O16 O 0.71361 0.12553 0.7368 0.0
C17 C 0.67569 0.04333 0.86888 0.0
O18 O 0.63154 0.0578 0.75584 0.0
Co19 Co 0.63527 0.9823 0.77035 0.0
O20 O 0.59305 0.99447 0.77813 0.0
C21 C 0.67721 0.01899 0.6443 0.0
C22 C 0.74632 0.12734 0.75108 0.0
C23 C 0.59773 0.02782 0.7651 0.0
O24 O 0.68842 0.05291 0.66931 0.0
O25 O 0.6589 0.98788 0.67897 0.0
O26 O 0.68576 0.07955 0.86246 0.0
O27 O 0.67698 0.02669 0.81392 0.0
Co28 Co 0.62206 0.681 0.27094 0.0
O29 O 0.65447 0.73665 0.27235 0.0
O30 O 0.59356 0.70579 0.23924 0.0
C31 C 0.63766 0.67113 0.37598 0.0
O32 O 0.57878 0.62417 0.26586 0.0
Co33 Co 0.65805 0.62768 0.28312 0.0
O34 O 0.60348 0.58697 0.29819 0.0
C35 C 0.66226 0.66559 0.15253 0.0
C36 C 0.62464 0.73864 0.25187 0.0
C37 C 0.57475 0.5911 0.28264 0.0
O38 O 0.64057 0.67844 0.1762 0.0
O39 O 0.6746 0.64745 0.18883 0.0
O40 O 0.61164 0.68121 0.36748 0.0
O41 O 0.65553 0.67062 0.32187 0.0
Co42 Co 0.94937 0.61596 0.76755 0.0
O43 O 0.92605 0.64831 0.76967 0.0
O44 O 0.89537 0.58694 0.73976 0.0
C45 C 0.97763 0.6337 0.8706 0.0
O46 O 0.96278 0.57261 0.76215 0.0
Co47 Co 0.03876 0.65159 0.7733 0.0
O48 O 0.02556 0.59738 0.78844 0.0
C49 C 1.0024 0.65428 0.6453 0.0
C50 C 0.89384 0.61821 0.75144 0.0
C51 C 0.99231 0.56861 0.77515 0.0
O52 O 0.96827 0.63268 0.67101 0.0
O53 O 0.03349 0.66746 0.67999 0.0
O54 O 0.94131 0.6075 0.86532 0.0
O55 O 0.99438 0.65031 0.81468 0.0
Co56 Co 0.34057 0.94264 0.27395 0.0
O57 O 0.28478 0.91904 0.27698 0.0
O58 O 0.31581 0.88953 0.2418 0.0
C59 C 0.35084 0.96787 0.3793 0.0
O60 O 0.39742 0.95639 0.26634 0.0
Co61 Co 0.39421 0.03187 0.28684 0.0
O62 O 0.43561 0.01854 0.29587 0.0
C63 C 0.35617 0.99866 0.15626 0.0
C64 C 0.28288 0.88744 0.25561 0.0
C65 C 0.43106 0.98568 0.27929 0.0
O66 O 0.34272 0.96397 0.17961 0.0
O67 O 0.37463 0.02896 0.19271 0.0
O68 O 0.34091 0.93187 0.37043 0.0
O69 O 0.35114 0.98628 0.32551 0.0
Co70 Co 0.40769 0.3347 0.77004 0.0
O71 O 0.37681 0.27875 0.77328 0.0
O72 O 0.43806 0.31144 0.74153 0.0
C73 C 0.39024 0.3453 0.87358 0.0
O74 O 0.45005 0.39184 0.76362 0.0
Co75 Co 0.37018 0.3865 0.7756 0.0
O76 O 0.42398 0.42846 0.79138 0.0
C77 C 0.36737 0.34696 0.64848 0.0
C78 C 0.40769 0.27807 0.75453 0.0
C79 C 0.45328 0.42481 0.77822 0.0
O80 O 0.39 0.33571 0.67381 0.0
O81 O 0.3537 0.36442 0.68324 0.0
O82 O 0.41695 0.33592 0.86749 0.0
O83 O 0.37276 0.34441 0.81824 0.0
Co84 Co 0.62254 0.94084 0.23645 0.0
O85 O 0.65453 0.91718 0.23124 0.0
O86 O 0.59442 0.8877 0.26927 0.0
C87 C 0.63611 0.96594 0.13065 0.0
O88 O 0.57983 0.95495 0.24664 0.0
Co89 Co 0.6591 0.03023 0.22312 0.0
O90 O 0.60439 0.0176 0.21904 0.0
C91 C 0.66489 0.99677 0.35298 0.0
C92 C 0.62506 0.8856 0.25372 0.0
C93 C 0.57597 0.98472 0.23582 0.0
O94 O 0.64305 0.96214 0.3301 0.0
O95 O 0.67675 0.02712 0.31638 0.0
O96 O 0.60997 0.93001 0.14053 0.0
O97 O 0.65515 0.98434 0.18364 0.0
Co98 Co 0.68916 0.61661 0.74042 0.0
O99 O 0.74491 0.64862 0.73468 0.0
O100 O 0.71432 0.58791 0.769 0.0
C101 C 0.67707 0.63255 0.63669 0.0
O102 O 0.63242 0.57364 0.75054 0.0
Co103 Co 0.63575 0.65269 0.73409 0.0
O104 O 0.59326 0.59829 0.73258 0.0
C105 C 0.67682 0.6575 0.86088 0.0
C106 C 0.74707 0.61879 0.75455 0.0
C107 C 0.59849 0.56993 0.745 0.0
O108 O 0.68872 0.63523 0.83615 0.0
O109 O 0.65864 0.67022 0.82579 0.0
O110 O 0.68691 0.60623 0.64306 0.0
O111 O 0.67797 0.65018 0.69174 0.0
Co112 Co 0.08147 0.68227 0.23549 0.0
O113 O 0.10445 0.73791 0.23455 0.0
O114 O 0.13471 0.70727 0.2676 0.0
C115 C 0.05633 0.67291 0.13031 0.0
O116 O 0.06827 0.62555 0.24016 0.0
Co117 Co 0.99219 0.62828 0.2221 0.0
O118 O 1.00654 0.58803 0.20692 0.0
C119 C 0.02503 0.66574 0.35311 0.0
C120 C 0.13633 0.74006 0.25515 0.0
C121 C 0.03946 0.59243 0.22292 0.0
O122 O 0.05982 0.67885 0.33007 0.0
O123 O 0.99486 0.64778 0.31617 0.0
O124 O 0.0925 0.6832 0.13888 0.0
O125 O 0.03773 0.67186 0.18443 0.0
Co126 Co 0.40672 0.07413 0.74296 0.0
O127 O 0.37617 0.09957 0.73982 0.0
O128 O 0.43736 0.12772 0.77109 0.0
C129 C 0.38905 0.04617 0.63957 0.0
O130 O 0.44877 0.05892 0.74948 0.0
Co131 Co 0.36887 0.98479 0.73709 0.0
O132 O 0.42274 0.99607 0.7237 0.0
C133 C 0.366 0.02149 0.86461 0.0
C134 C 0.40716 0.131 0.75823 0.0
C135 C 0.452 0.02894 0.73713 0.0
O136 O 0.38882 0.05543 0.83934 0.0
O137 O 0.35247 0.99046 0.82982 0.0
O138 O 0.4161 0.0821 0.64536 0.0
O139 O 0.37161 0.02967 0.69515 0.0
Co140 Co 0.33992 0.39825 0.24021 0.0
O141 O 0.28418 0.36556 0.23514 0.0
O142 O 0.31413 0.42554 0.27276 0.0
C143 C 0.35213 0.38515 0.13461 0.0
O144 O 0.39629 0.44173 0.25053 0.0
Co145 Co 0.39473 0.36384 0.22719 0.0
O146 O 0.43654 0.41864 0.22942 0.0
C147 C 0.35427 0.35629 0.3567 0.0
C148 C 0.28161 0.39475 0.25742 0.0
C149 C 0.43051 0.44627 0.24395 0.0
O150 O 0.34108 0.37788 0.33398 0.0
O151 O 0.3731 0.345 0.3198 0.0
O152 O 0.34161 0.41075 0.14411 0.0
O153 O 0.3519 0.36639 0.18784 0.0
Co154 Co 0.94879 0.33255 0.74145 0.0
O155 O 0.92534 0.27694 0.7355 0.0
O156 O 0.89479 0.30703 0.77009 0.0
C157 C 0.97712 0.34567 0.63764 0.0
O158 O 0.96226 0.38909 0.75155 0.0
Co159 Co 0.03828 0.38584 0.73619 0.0
O160 O 0.02591 0.42794 0.73118 0.0
C161 C 1.0016 0.34427 0.86251 0.0
C162 C 0.89318 0.27449 0.75556 0.0
C163 C 0.99234 0.42296 0.74387 0.0
O164 O 0.96759 0.33252 0.83724 0.0
O165 O 0.03278 0.36255 0.82777 0.0
O166 O 0.94077 0.33532 0.64425 0.0
O167 O 0.99383 0.3443 0.69244 0.0
C168 C 0.04933 0.36403 0.03551 0.0
C169 C 0.01783 0.34676 0.08059 0.0
C170 C 0.04373 0.36108 0.96536 0.0
C171 C 1.00632 0.34089 0.93669 0.0
H172 H 0.07858 0.3815 0.05427 0.0
H173 H 0.06916 0.37645 0.93357 0.0
S174 S 0.91432 0.28471 0.03203 0.0
N175 N 0.94786 0.30421 0.09103 0.0
N176 N 0.93761 0.2993 0.95925 0.0
C177 C 0.97472 0.32114 0.98097 0.0
C178 C 0.9804 0.3239 0.0527 0.0
C179 C 0.68529 0.03934 0.45553 0.0
C180 C 0.67384 1.00286 0.4266 0.0
C181 C 0.68877 0.04503 0.52571 0.0
C182 C 0.68111 0.01455 0.57024 0.0
H183 H 0.68986 0.06349 0.42405 0.0
H184 H 0.69561 0.07309 0.54513 0.0
S185 S 0.65717 0.9152 0.51989 0.0
N186 N 0.65966 0.93712 0.4477 0.0
N187 N 0.66669 0.94768 0.5794 0.0
C188 C 0.67255 0.97866 0.5417 0.0
C189 C 0.66873 0.97284 0.47011 0.0
C190 C 0.68441 0.64506 0.04972 0.0
C191 C 0.67108 0.66861 0.07871 0.0
C192 C 0.68854 0.6434 0.97954 0.0
C193 C 0.67968 0.66533 0.93505 0.0
H194 H 0.69018 0.6263 0.08115 0.0
H195 H 0.697 0.62335 0.96009 0.0
S196 S 0.64996 0.73661 0.98555 0.0
N197 N 0.65338 0.71771 0.05766 0.0
N198 N 0.66157 0.71522 0.92605 0.0
C199 C 0.66899 0.69114 0.96367 0.0
C200 C 0.66452 0.69258 0.03524 0.0
C201 C 0.05026 0.68083 0.47178 0.0
C202 C 0.01888 0.66799 0.4271 0.0
C203 C 0.04461 0.67787 0.54194 0.0
C204 C 1.00726 0.66176 0.571 0.0
H205 H 0.07942 0.69193 0.45265 0.0
H206 H 0.06989 0.68699 0.57343 0.0
S207 S 0.91572 0.62919 0.47692 0.0
N208 N 0.9492 0.6426 0.4175 0.0
N209 N 0.93884 0.63673 0.54937 0.0
C210 C 0.97583 0.65099 0.52717 0.0
C211 C 0.98156 0.6542 0.45542 0.0
C212 C 0.3816 0.04708 0.98315 0.0
C213 C 0.35815 0.01688 0.93885 0.0
C214 C 0.37942 0.04122 0.05334 0.0
C215 C 0.35379 1.00485 0.0825 0.0
H216 H 0.40317 0.07504 0.96353 0.0
H217 H 0.39938 0.06516 0.08466 0.0
S218 S 0.28141 0.91792 0.9899 0.0
N219 N 0.30475 0.95038 0.93019 0.0
N220 N 0.30128 0.93952 0.06189 0.0
C221 C 0.32843 0.97509 0.03923 0.0
C222 C 0.3304 0.98108 0.96764 0.0
C223 C 0.33818 0.36545 0.47547 0.0
C224 C 0.35174 0.34758 0.43063 0.0
C225 C 0.34172 0.36336 0.54558 0.0
C226 C 0.35916 0.34344 0.57444 0.0
H227 H 0.32621 0.38271 0.45646 0.0
H228 H 0.33206 0.37907 0.57713 0.0
S229 S 0.39373 0.28618 0.48012 0.0
N230 N 0.379 0.30497 0.42085 0.0
N231 N 0.38597 0.30163 0.55261 0.0
C232 C 0.37049 0.32322 0.53055 0.0
C233 C 0.36667 0.32511 0.45885 0.0
C234 C 0.97788 0.62889 0.99672 0.0
C235 C 0.99864 0.64326 0.93591 0.0
C236 C 0.99678 0.63852 0.05937 0.0
C237 C 0.03725 0.66227 0.06355 0.0
H238 H 0.94667 0.61051 0.99614 0.0
H239 H 0.97948 0.62713 0.1048 0.0
S240 S 0.10525 0.70746 0.91979 0.0
N241 N 0.06219 0.68302 0.88432 0.0
N242 N 0.09758 0.69992 1.00187 0.0
C243 C 0.05848 0.67638 1.0033 0.0
C244 C 0.03921 0.66721 0.93955 0.0
C245 C 0.3854 0.02717 0.45071 0.0
C246 C 0.36129 0.98683 0.44622 0.0
C247 C 0.39473 0.04597 0.51349 0.0
C248 C 0.37965 0.02525 0.57412 0.0
H249 H 0.39731 0.04444 0.40541 0.0
H250 H 0.41344 0.07709 0.51431 0.0
S251 S 0.31415 0.91897 0.58931 0.0
N252 N 0.32248 0.92666 0.50738 0.0
N253 N 0.33876 0.96187 0.6251 0.0
C254 C 0.35529 0.98481 0.57013 0.0
C255 C 0.34647 0.96564 0.50628 0.0
C256 C 0.3945 0.34938 0.99975 0.0
C257 C 0.38125 0.35718 0.93915 0.0
C258 C 0.38526 0.35886 0.06269 0.0
C259 C 0.36308 0.37726 0.06746 0.0
H260 H 0.41154 0.33512 0.99876 0.0
H261 H 0.39556 0.35164 0.10794 0.0
S262 S 0.3221 0.40507 0.92432 0.0
N263 N 0.34479 0.38468 0.88834 0.0
N264 N 0.32866 0.40359 0.00639 0.0
C265 C 0.35039 0.38606 0.00739 0.0
C266 C 0.3591 0.3757 0.94333 0.0
C267 C 0.97684 0.35158 0.51162 0.0
C268 C 0.99793 0.35821 0.57189 0.0
C269 C 0.9955 0.36131 0.44846 0.0
C270 C 0.03603 0.37877 0.44318 0.0
H271 H 0.94556 0.33801 0.51299 0.0
H272 H 0.97795 0.35498 0.40343 0.0
S273 S 0.10488 0.40319 0.58529 0.0
N274 N 0.06188 0.38358 0.62183 0.0
N275 N 0.09679 0.40285 0.50342 0.0
C276 C 0.05758 0.38642 0.50294 0.0
C277 C 0.03857 0.37586 0.5672 0.0
C278 C 0.67116 0.04376 0.99508 0.0
C279 C 0.66367 0.02263 0.93468 0.0
C280 C 0.66189 0.02518 0.05824 0.0
C281 C 0.64402 0.98469 0.06339 0.0
H282 H 0.68504 0.07501 0.99377 0.0
H283 H 0.66881 0.04274 0.10334 0.0
S284 S 0.61741 0.91577 0.92094 0.0
N285 N 0.63712 0.9587 0.88449 0.0
N286 N 0.61868 0.92392 1.00295 0.0
C287 C 0.63557 0.96311 1.00354 0.0
C288 C 0.64568 0.98204 0.93926 0.0
C289 C 0.66181 0.636 0.4477 0.0
C290 C 0.64615 0.66061 0.44288 0.0
C291 C 0.67095 0.62644 0.51067 0.0
C292 C 0.66551 0.64175 0.57105 0.0
H293 H 0.66694 0.62389 0.40256 0.0
H294 H 0.68297 0.6074 0.51182 0.0
S295 S 0.6263 0.70861 0.5852 0.0
N296 N 0.62564 0.7002 0.5034 0.0
N297 N 0.64388 0.68341 0.62139 0.0
C298 C 0.64999 0.66658 0.56668 0.0
C299 C 0.64001 0.67568 0.50269 0.0
C300 C 0.0707 0.55515 0.26766 0.0
C301 C 0.04298 0.55697 0.2259 0.0
C302 C 0.07049 0.52005 0.27785 0.0
C303 C 0.04235 0.48567 0.24706 0.0
H304 H 0.09169 0.58057 0.29485 0.0
H305 H 0.09129 0.51948 0.31228 0.0
S306 S 0.96777 0.47586 0.12448 0.0
N307 N 0.98995 0.5218 0.14678 0.0
N308 N 0.9892 0.45637 0.16735 0.0
C309 C 0.01607 0.48758 0.20235 0.0
C310 C 0.01649 0.52307 0.19137 0.0
C311 C 0.49202 0.99675 0.73666 0.0
C312 C 0.49048 0.03112 0.74215 0.0
C313 C 0.5267 0.99645 0.74396 0.0
C314 C 0.56198 0.03053 0.75671 0.0
H315 H 0.46603 0.96932 0.72734 0.0
H316 H 0.52563 0.96891 0.73927 0.0
S317 S 0.57482 0.12882 0.77404 0.0
N318 N 0.52797 0.10071 0.76015 0.0
N319 N 0.59351 0.10008 0.77334 0.0
C320 C 0.56134 0.06542 0.76119 0.0
C321 C 0.52562 0.06572 0.75418 0.0
C322 C 0.50577 0.55382 0.23992 0.0
C323 C 0.53584 0.55543 0.27989 0.0
C324 C 0.47077 0.51874 0.23026 0.0
C325 C 0.46493 0.48414 0.25975 0.0
H326 H 0.50982 0.57945 0.21383 0.0
H327 H 0.44893 0.51839 0.19732 0.0
S328 S 0.53126 0.47357 0.37757 0.0
N329 N 0.55471 0.5197 0.356 0.0
N330 N 0.48981 0.45433 0.3364 0.0
C331 C 0.4937 0.48578 0.30264 0.0
C332 C 0.5289 0.52126 0.31312 0.0
C333 C 0.0227 0.52713 0.78317 0.0
C334 C 0.98932 0.52981 0.77079 0.0
C335 C 0.02282 0.49249 0.77487 0.0
C336 C 0.9895 0.45838 0.75434 0.0
H337 H 0.04958 0.55224 0.79851 0.0
H338 H 0.0496 0.49261 0.78471 0.0
S339 S 0.89364 0.44842 0.71824 0.0
N340 N 0.92125 0.49441 0.73875 0.0
N341 N 0.92152 0.42885 0.72398 0.0
C342 C 0.9554 0.45995 0.74372 0.0
C343 C 0.95531 0.49568 0.75165 0.0
C344 C 0.50313 0.01727 0.27135 0.0
C345 C 0.46687 0.98297 0.2703 0.0
C346 C 0.53762 0.01708 0.26008 0.0
C347 C 0.53797 0.98256 0.24767 0.0
H348 H 0.5052 0.045 0.28008 0.0
H349 H 0.5644 0.04457 0.26156 0.0
S350 S 0.45136 0.88432 0.24104 0.0
N351 N 0.43354 0.91303 0.25661 0.0
N352 N 0.49884 0.91273 0.2361 0.0
C353 C 0.50213 0.94777 0.24749 0.0
C354 C 0.46657 0.94798 0.25847 0.0
C355 C 0.55839 0.49747 0.73103 0.0
C356 C 0.56344 0.53206 0.75902 0.0
C357 C 0.52317 0.46237 0.73926 0.0
C358 C 0.49202 0.46072 0.77624 0.0
H359 H 0.58114 0.49781 0.70045 0.0
H360 H 0.51989 0.43673 0.71454 0.0
S361 S 0.49378 0.54248 0.8692 0.0
N362 N 0.53636 0.56176 0.83127 0.0
N363 N 0.47096 0.49638 0.84791 0.0
C364 C 0.49796 0.49489 0.80785 0.0
C365 C 0.53343 0.53037 0.79892 0.0
C366 C 0.20773 0.42895 0.25355 0.0
C367 C 0.17183 0.39423 0.25278 0.0
C368 C 0.24295 0.42886 0.25714 0.0
C369 C 0.24383 0.39404 0.25897 0.0
H370 H 0.20869 0.45653 0.25247 0.0
H371 H 0.26974 0.45637 0.25728 0.0
S372 S 0.15798 0.29513 0.25753 0.0
N373 N 0.13951 0.324 0.25442 0.0
N374 N 0.20544 0.32383 0.25969 0.0
C375 C 0.20816 0.35912 0.25783 0.0
C376 C 0.17229 0.35921 0.25513 0.0
C377 C 0.82019 0.23556 0.75497 0.0
C378 C 0.85609 0.2367 0.75656 0.0
C379 C 0.78495 0.20024 0.75138 0.0
C380 C 0.78406 0.16452 0.75022 0.0
H381 H 0.81926 0.2622 0.75544 0.0
H382 H 0.75816 0.20097 0.75051 0.0
S383 S 0.86993 0.15139 0.75424 0.0
N384 N 0.88836 0.1987 0.75683 0.0
N385 N 0.82251 0.1327 0.75115 0.0
C386 C 0.81975 0.16527 0.75223 0.0
C387 C 0.85559 0.20119 0.75512 0.0
C388 C 0.59051 0.7774 0.25241 0.0
C389 C 0.62528 0.77633 0.24958 0.0
C390 C 0.59064 0.81272 0.25576 0.0
C391 C 0.62555 0.84847 0.25547 0.0
H392 H 0.5629 0.75073 0.25322 0.0
H393 H 0.56312 0.81196 0.25755 0.0
S394 S 0.72459 0.86174 0.24792 0.0
N395 N 0.69562 0.8144 0.24659 0.0
N396 N 0.69587 0.88037 0.25192 0.0
C397 C 0.66049 0.84776 0.25223 0.0
C398 C 0.66036 0.81187 0.24952 0.0
C399 C 0.82086 0.58427 0.75235 0.0
C400 C 0.85676 0.61895 0.74973 0.0
C401 C 0.78563 0.58444 0.75561 0.0
C402 C 0.78478 0.6193 0.75549 0.0
H403 H 0.8199 0.55668 0.75298 0.0
H404 H 0.75884 0.55697 0.75734 0.0
S405 S 0.8707 0.71815 0.74842 0.0
N406 N 0.88908 0.68919 0.74702 0.0
N407 N 0.82327 0.68951 0.75223 0.0
C408 C 0.82049 0.65417 0.75241 0.0
C409 C 0.85631 0.654 0.74977 0.0
C410 C 0.24449 0.81459 0.25399 0.0
C411 C 0.24525 0.85025 0.25324 0.0
C412 C 0.20929 0.77918 0.25671 0.0
C413 C 0.17332 0.77789 0.25785 0.0
H414 H 0.27134 0.81396 0.25354 0.0
H415 H 0.21032 0.75259 0.2568 0.0
S416 S 0.15917 0.86303 0.25601 0.0
N417 N 0.20664 0.88187 0.25384 0.0
N418 N 0.14085 0.81572 0.25795 0.0
C419 C 0.17369 0.81336 0.25678 0.0
C420 C 0.20949 0.84936 0.25473 0.0
C421 C 0.37378 0.20542 0.75543 0.0
C422 C 0.40864 0.24115 0.75337 0.0
C423 C 0.37365 0.17015 0.7577 0.0
C424 C 0.40838 0.16899 0.75922 0.0
H425 H 0.3462 0.20458 0.75509 0.0
H426 H 0.34598 0.14354 0.75851 0.0
S427 S 0.5077 0.25434 0.75537 0.0
N428 N 0.47899 0.27305 0.753 0.0
N429 N 0.47875 0.207 0.75829 0.0
C430 C 0.44349 0.20451 0.75762 0.0
C431 C 0.44362 0.24045 0.75432 0.0
loop_
_geom_bond_atom_site_label_1
_geom_bond_atom_site_label_2
_geom_bond_distance
_geom_bond_site_symmetry_2
_ccdc_geom_bond_type
Co0 O1 2.216 . S
Co0 O2 2.091 . S
Co0 O4 2.004 . S
Co0 O10 2.021 . S
Co0 O12 2.137 . S
Co0 O13 2.244 . S
O1 Co0 2.216 . S
O1 C8 1.247 . S
O2 Co0 2.091 . S
O2 C8 1.261 . S
C3 O12 1.247 . S
C3 O13 1.272 . S
O4 Co0 2.004 . S
O4 C9 1.259 . S
Co5 O6 2.061 1_655 S
Co5 O11 2.052 . S
Co5 O13 2.135 1_655 S
O6 Co5 2.061 1_455 S
O6 C9 1.235 . S
C7 O10 1.238 . S
C7 O11 1.241 1_455 S
C8 O1 1.247 . S
C8 O2 1.261 . S
C9 O4 1.259 . S
C9 O6 1.235 . S
O10 Co0 2.021 . S
O10 C7 1.238 . S
O11 Co5 2.052 . S
O11 C7 1.241 1_655 S
O12 Co0 2.137 . S
O12 C3 1.247 . S
O13 Co0 2.244 . S
O13 C3 1.272 . S
O13 Co5 2.135 1_455 S
Co14 O15 2.216 . S
Co14 O16 2.091 . S
Co14 O18 2.004 . S
Co14 O24 2.021 . S
Co14 O26 2.137 . S
Co14 O27 2.244 . S
O15 Co14 2.216 . S
O15 C22 1.247 . S
O16 Co14 2.091 . S
O16 C22 1.261 . S
C17 O26 1.247 . S
C17 O27 1.272 . S
O18 Co14 2.004 . S
O18 C23 1.259 . S
Co19 O20 2.061 1_565 S
Co19 O25 2.052 . S
Co19 O27 2.135 1_565 S
O20 Co19 2.061 1_545 S
O20 C23 1.235 . S
C21 O24 1.238 . S
C21 O25 1.241 1_545 S
C22 O15 1.247 . S
C22 O16 1.261 . S
C23 O18 1.259 . S
C23 O20 1.235 . S
O24 Co14 2.021 . S
O24 C21 1.238 . S
O25 Co19 2.052 . S
O25 C21 1.241 1_565 S
O26 Co14 2.137 . S
O26 C17 1.247 . S
O27 Co14 2.244 . S
O27 C17 1.272 . S
O27 Co19 2.135 1_545 S
Co28 O29 2.216 . S
Co28 O30 2.091 . S
Co28 O32 2.004 . S
Co28 O38 2.021 . S
Co28 O40 2.137 . S
Co28 O41 2.244 . S
O29 Co28 2.216 . S
O29 C36 1.247 . S
O30 Co28 2.091 . S
O30 C36 1.261 . S
C31 O40 1.247 . S
C31 O41 1.272 . S
O32 Co28 2.004 . S
O32 C37 1.259 . S
Co33 O34 2.061 . S
Co33 O39 2.052 . S
Co33 O41 2.135 . S
O34 Co33 2.061 . S
O34 C37 1.235 . S
C35 O38 1.238 . S
C35 O39 1.241 . S
C36 O29 1.247 . S
C36 O30 1.261 . S
C37 O32 1.259 . S
C37 O34 1.235 . S
O38 Co28 2.021 . S
O38 C35 1.238 . S
O39 Co33 2.052 . S
O39 C35 1.241 . S
O40 Co28 2.137 . S
O40 C31 1.247 . S
O41 Co28 2.244 . S
O41 C31 1.272 . S
O41 Co33 2.135 . S
Co42 O43 2.216 . S
Co42 O44 2.091 . S
Co42 O46 2.004 . S
Co42 O52 2.021 . S
Co42 O54 2.137 . S
Co42 O55 2.244 . S
O43 Co42 2.216 . S
O43 C50 1.247 . S
O44 Co42 2.091 . S
O44 C50 1.261 . S
C45 O54 1.247 . S
C45 O55 1.272 . S
O46 Co42 2.004 . S
O46 C51 1.259 . S
Co47 O48 2.061 1_455 S
Co47 O53 2.052 . S
Co47 O55 2.135 1_455 S
O48 Co47 2.061 1_655 S
O48 C51 1.235 . S
C49 O52 1.238 . S
C49 O53 1.241 1_655 S
C50 O43 1.247 . S
C50 O44 1.261 . S
C51 O46 1.259 . S
C51 O48 1.235 . S
O52 Co42 2.021 . S
O52 C49 1.238 . S
O53 Co47 2.052 . S
O53 C49 1.241 1_455 S
O54 Co42 2.137 . S
O54 C45 1.247 . S
O55 Co42 2.244 . S
O55 C45 1.272 . S
O55 Co47 2.135 1_655 S
Co56 O57 2.216 . S
Co56 O58 2.091 . S
Co56 O60 2.004 . S
Co56 O66 2.021 . S
Co56 O68 2.137 . S
Co56 O69 2.244 . S
O57 Co56 2.216 . S
O57 C64 1.247 . S
O58 Co56 2.091 . S
O58 C64 1.261 . S
C59 O68 1.247 . S
C59 O69 1.272 . S
O60 Co56 2.004 . S
O60 C65 1.259 . S
Co61 O62 2.061 1_545 S
Co61 O67 2.052 . S
Co61 O69 2.135 1_545 S
O62 Co61 2.061 1_565 S
O62 C65 1.235 . S
C63 O66 1.238 . S
C63 O67 1.241 1_565 S
C64 O57 1.247 . S
C64 O58 1.261 . S
C65 O60 1.259 . S
C65 O62 1.235 . S
O66 Co56 2.021 . S
O66 C63 1.238 . S
O67 Co61 2.052 . S
O67 C63 1.241 1_545 S
O68 Co56 2.137 . S
O68 C59 1.247 . S
O69 Co56 2.244 . S
O69 C59 1.272 . S
O69 Co61 2.135 1_565 S
Co70 O71 2.216 . S
Co70 O72 2.091 . S
Co70 O74 2.004 . S
Co70 O80 2.021 . S
Co70 O82 2.137 . S
Co70 O83 2.244 . S
O71 Co70 2.216 . S
O71 C78 1.247 . S
O72 Co70 2.091 . S
O72 C78 1.261 . S
C73 O82 1.247 . S
C73 O83 1.272 . S
O74 Co70 2.004 . S
O74 C79 1.259 . S
Co75 O76 2.061 . S
Co75 O81 2.052 . S
Co75 O83 2.135 . S
O76 Co75 2.061 . S
O76 C79 1.235 . S
C77 O80 1.238 . S
C77 O81 1.241 . S
C78 O71 1.247 . S
C78 O72 1.261 . S
C79 O74 1.259 . S
C79 O76 1.235 . S
O80 Co70 2.021 . S
O80 C77 1.238 . S
O81 Co75 2.052 . S
O81 C77 1.241 . S
O82 Co70 2.137 . S
O82 C73 1.247 . S
O83 Co70 2.244 . S
O83 C73 1.272 . S
O83 Co75 2.135 . S
Co84 O85 2.216 . S
Co84 O86 2.091 . S
Co84 O88 2.004 . S
Co84 O94 2.021 . S
Co84 O96 2.137 . S
Co84 O97 2.244 . S
O85 Co84 2.216 . S
O85 C92 1.247 . S
O86 Co84 2.091 . S
O86 C92 1.261 . S
C87 O96 1.247 . S
C87 O97 1.272 . S
O88 Co84 2.004 . S
O88 C93 1.259 . S
Co89 O90 2.061 1_545 S
Co89 O95 2.052 . S
Co89 O97 2.135 1_545 S
O90 Co89 2.061 1_565 S
O90 C93 1.235 . S
C91 O94 1.238 . S
C91 O95 1.241 1_565 S
C92 O85 1.247 . S
C92 O86 1.261 . S
C93 O88 1.259 . S
C93 O90 1.235 . S
O94 Co84 2.021 . S
O94 C91 1.238 . S
O95 Co89 2.052 . S
O95 C91 1.241 1_545 S
O96 Co84 2.137 . S
O96 C87 1.247 . S
O97 Co84 2.244 . S
O97 C87 1.272 . S
O97 Co89 2.135 1_565 S
Co98 O99 2.216 . S
Co98 O100 2.091 . S
Co98 O102 2.004 . S
Co98 O108 2.021 . S
Co98 O110 2.137 . S
Co98 O111 2.244 . S
O99 Co98 2.216 . S
O99 C106 1.247 . S
O100 Co98 2.091 . S
O100 C106 1.261 . S
C101 O110 1.247 . S
C101 O111 1.272 . S
O102 Co98 2.004 . S
O102 C107 1.259 . S
Co103 O104 2.061 . S
Co103 O109 2.052 . S
Co103 O111 2.135 . S
O104 Co103 2.061 . S
O104 C107 1.235 . S
C105 O108 1.238 . S
C105 O109 1.241 . S
C106 O99 1.247 . S
C106 O100 1.261 . S
C107 O102 1.259 . S
C107 O104 1.235 . S
O108 Co98 2.021 . S
O108 C105 1.238 . S
O109 Co103 2.052 . S
O109 C105 1.241 . S
O110 Co98 2.137 . S
O110 C101 1.247 . S
O111 Co98 2.244 . S
O111 C101 1.272 . S
O111 Co103 2.135 . S
Co112 O113 2.216 . S
Co112 O114 2.091 . S
Co112 O116 2.004 . S
Co112 O122 2.021 . S
Co112 O124 2.137 . S
Co112 O125 2.244 . S
O113 Co112 2.216 . S
O113 C120 1.247 . S
O114 Co112 2.091 . S
O114 C120 1.261 . S
C115 O124 1.247 . S
C115 O125 1.272 . S
O116 Co112 2.004 . S
O116 C121 1.259 . S
Co117 O118 2.061 1_655 S
Co117 O123 2.052 . S
Co117 O125 2.135 1_655 S
O118 Co117 2.061 1_455 S
O118 C121 1.235 . S
C119 O122 1.238 . S
C119 O123 1.241 1_455 S
C120 O113 1.247 . S
C120 O114 1.261 . S
C121 O116 1.259 . S
C121 O118 1.235 . S
O122 Co112 2.021 . S
O122 C119 1.238 . S
O123 Co117 2.052 . S
O123 C119 1.241 1_655 S
O124 Co112 2.137 . S
O124 C115 1.247 . S
O125 Co112 2.244 . S
O125 C115 1.272 . S
O125 Co117 2.135 1_455 S
Co126 O127 2.216 . S
Co126 O128 2.091 . S
Co126 O130 2.004 . S
Co126 O136 2.021 . S
Co126 O138 2.137 . S
Co126 O139 2.244 . S
O127 Co126 2.216 . S
O127 C134 1.247 . S
O128 Co126 2.091 . S
O128 C134 1.261 . S
C129 O138 1.247 . S
C129 O139 1.272 . S
O130 Co126 2.004 . S
O130 C135 1.259 . S
Co131 O132 2.061 1_565 S
Co131 O137 2.052 . S
Co131 O139 2.135 1_565 S
O132 Co131 2.061 1_545 S
O132 C135 1.235 . S
C133 O136 1.238 . S
C133 O137 1.241 1_545 S
C134 O127 1.247 . S
C134 O128 1.261 . S
C135 O130 1.259 . S
C135 O132 1.235 . S
O136 Co126 2.021 . S
O136 C133 1.238 . S
O137 Co131 2.052 . S
O137 C133 1.241 1_565 S
O138 Co126 2.137 . S
O138 C129 1.247 . S
O139 Co126 2.244 . S
O139 C129 1.272 . S
O139 Co131 2.135 1_545 S
Co140 O141 2.216 . S
Co140 O142 2.091 . S
Co140 O144 2.004 . S
Co140 O150 2.021 . S
Co140 O152 2.137 . S
Co140 O153 2.244 . S
O141 Co140 2.216 . S
O141 C148 1.247 . S
O142 Co140 2.091 . S
O142 C148 1.261 . S
C143 O152 1.247 . S
C143 O153 1.272 . S
O144 Co140 2.004 . S
O144 C149 1.259 . S
Co145 O146 2.061 . S
Co145 O151 2.052 . S
Co145 O153 2.135 . S
O146 Co145 2.061 . S
O146 C149 1.235 . S
C147 O150 1.238 . S
C147 O151 1.241 . S
C148 O141 1.247 . S
C148 O142 1.261 . S
C149 O144 1.259 . S
C149 O146 1.235 . S
O150 Co140 2.021 . S
O150 C147 1.238 . S
O151 Co145 2.052 . S
O151 C147 1.241 . S
O152 Co140 2.137 . S
O152 C143 1.247 . S
O153 Co140 2.244 . S
O153 C143 1.272 . S
O153 Co145 2.135 . S
Co154 O155 2.216 . S
Co154 O156 2.091 . S
Co154 O158 2.004 . S
Co154 O164 2.021 . S
Co154 O166 2.137 . S
Co154 O167 2.244 . S
O155 Co154 2.216 . S
O155 C162 1.247 . S
O156 Co154 2.091 . S
O156 C162 1.261 . S
C157 O166 1.247 . S
C157 O167 1.272 . S
O158 Co154 2.004 . S
O158 C163 1.259 . S
Co159 O160 2.061 1_455 S
Co159 O165 2.052 . S
Co159 O167 2.135 1_455 S
O160 Co159 2.061 1_655 S
O160 C163 1.235 . S
C161 O164 1.238 . S
C161 O165 1.241 1_655 S
C162 O155 1.247 . S
C162 O156 1.261 . S
C163 O158 1.259 . S
C163 O160 1.235 . S
O164 Co154 2.021 . S
O164 C161 1.238 . S
O165 Co159 2.052 . S
O165 C161 1.241 1_455 S
O166 Co154 2.137 . S
O166 C157 1.247 . S
O167 Co154 2.244 . S
O167 C157 1.272 . S
O167 Co159 2.135 1_655 S
C168 C169 1.369 . S
C168 C170 1.419 1_554 S
C168 H172 0.930 . S
C169 C168 1.369 . S
C169 C178 1.429 1_455 S
C170 C168 1.419 1_556 S
C170 C171 1.363 1_455 S
C170 H173 0.929 . S
C171 C170 1.363 1_655 S
C171 C177 1.428 . S
H172 C168 0.930 . S
H173 C170 0.929 . S
S174 N175 1.613 . S
S174 N176 1.610 1_554 S
N175 S174 1.613 . S
N175 C178 1.350 . S
N176 S174 1.610 1_556 S
N176 C177 1.351 . S
C177 C171 1.428 . S
C177 N176 1.351 . S
C177 C178 1.434 1_556 S
C178 C169 1.429 1_655 S
C178 N175 1.350 . S
C178 C177 1.434 1_554 S
C179 C180 1.369 1_545 S
C179 C181 1.419 . S
C179 H183 0.930 . S
C180 C179 1.369 1_565 S
C180 C189 1.429 . S
C181 C179 1.419 . S
C181 C182 1.363 . S
C181 H184 0.929 . S
C182 C181 1.363 . S
C182 C188 1.428 1_545 S
H183 C179 0.930 . S
H184 C181 0.929 . S
S185 N186 1.613 . S
S185 N187 1.610 . S
N186 S185 1.613 . S
N186 C189 1.350 . S
N187 S185 1.610 . S
N187 C188 1.351 . S
C188 C182 1.428 1_565 S
C188 N187 1.351 . S
C188 C189 1.434 . S
C189 C180 1.429 . S
C189 N186 1.350 . S
C189 C188 1.434 . S
C190 C191 1.369 . S
C190 C192 1.419 1_554 S
C190 H194 0.930 . S
C191 C190 1.369 . S
C191 C200 1.429 . S
C192 C190 1.419 1_556 S
C192 C193 1.363 . S
C192 H195 0.929 . S
C193 C192 1.363 . S
C193 C199 1.428 . S
H194 C190 0.930 . S
H195 C192 0.929 . S
S196 N197 1.601 1_556 S
S196 N198 1.623 . S
N197 S196 1.601 1_554 S
N197 C200 1.350 . S
N198 S196 1.623 . S
N198 C199 1.351 . S
C199 C193 1.428 . S
C199 N198 1.351 . S
C199 C200 1.434 1_556 S
C200 C191 1.429 . S
C200 N197 1.350 . S
C200 C199 1.434 1_554 S
C201 C202 1.369 . S
C201 C203 1.419 . S
C201 H205 0.930 . S
C202 C201 1.369 . S
C202 C211 1.429 1_455 S
C203 C201 1.419 . S
C203 C204 1.363 1_455 S
C203 H206 0.929 . S
C204 C203 1.363 1_655 S
C204 C210 1.428 . S
H205 C201 0.930 . S
H206 C203 0.929 . S
S207 N208 1.613 . S
S207 N209 1.610 . S
N208 S207 1.613 . S
N208 C211 1.350 . S
N209 S207 1.610 . S
N209 C210 1.351 . S
C210 C204 1.428 . S
C210 N209 1.351 . S
C210 C211 1.434 . S
C211 C202 1.429 1_655 S
C211 N208 1.350 . S
C211 C210 1.434 . S
C212 C213 1.369 . S
C212 C214 1.419 1_556 S
C212 H216 0.930 . S
C213 C212 1.369 . S
C213 C222 1.429 1_545 S
C214 C212 1.419 1_554 S
C214 C215 1.363 1_545 S
C214 H217 0.929 . S
C215 C214 1.363 1_565 S
C215 C221 1.428 . S
H216 C212 0.930 . S
H217 C214 0.929 . S
S218 N219 1.613 . S
S218 N220 1.610 1_556 S
N219 S218 1.613 . S
N219 C222 1.350 . S
N220 S218 1.610 1_554 S
N220 C221 1.351 . S
C221 C215 1.428 . S
C221 N220 1.351 . S
C221 C222 1.434 1_554 S
C222 C213 1.429 1_565 S
C222 N219 1.350 . S
C222 C221 1.434 1_556 S
C223 C224 1.369 . S
C223 C225 1.419 . S
C223 H227 0.930 . S
C224 C223 1.369 . S
C224 C233 1.429 . S
C225 C223 1.419 . S
C225 C226 1.363 . S
C225 H228 0.929 . S
C226 C225 1.363 . S
C226 C232 1.428 . S
H227 C223 0.930 . S
H228 C225 0.929 . S
S229 N230 1.613 . S
S229 N231 1.610 . S
N230 S229 1.613 . S
N230 C233 1.350 . S
N231 S229 1.610 . S
N231 C232 1.351 . S
C232 C226 1.428 . S
C232 N231 1.351 . S
C232 C233 1.434 . S
C233 C224 1.429 . S
C233 N230 1.350 . S
C233 C232 1.434 . S
C234 C235 1.369 . S
C234 C236 1.419 1_556 S
C234 H238 0.930 . S
C235 C234 1.369 . S
C235 C244 1.429 1_655 S
C236 C234 1.419 1_554 S
C236 C237 1.363 1_655 S
C236 H239 0.929 . S
C237 C236 1.363 1_455 S
C237 C243 1.428 . S
H238 C234 0.930 . S
H239 C236 0.929 . S
S240 N241 1.613 . S
S240 N242 1.610 1_556 S
N241 S240 1.613 . S
N241 C244 1.350 . S
N242 S240 1.610 1_554 S
N242 C243 1.351 . S
C243 C237 1.428 . S
C243 N242 1.351 . S
C243 C244 1.434 1_554 S
C244 C235 1.429 1_455 S
C244 N241 1.350 . S
C244 C243 1.434 1_556 S
C245 C246 1.369 1_545 S
C245 C247 1.419 . S
C245 H249 0.930 . S
C246 C245 1.369 1_565 S
C246 C255 1.429 . S
C247 C245 1.419 . S
C247 C248 1.363 . S
C247 H250 0.929 . S
C248 C247 1.363 . S
C248 C254 1.428 1_545 S
H249 C245 0.930 . S
H250 C247 0.929 . S
S251 N252 1.613 . S
S251 N253 1.610 . S
N252 S251 1.613 . S
N252 C255 1.350 . S
N253 S251 1.610 . S
N253 C254 1.351 . S
C254 C248 1.428 1_565 S
C254 N253 1.351 . S
C254 C255 1.434 . S
C255 C246 1.429 . S
C255 N252 1.350 . S
C255 C254 1.434 . S
C256 C257 1.369 . S
C256 C258 1.419 1_556 S
C256 H260 0.930 . S
C257 C256 1.369 . S
C257 C266 1.429 . S
C258 C256 1.419 1_554 S
C258 C259 1.363 . S
C258 H261 0.929 . S
C259 C258 1.363 . S
C259 C265 1.428 . S
H260 C256 0.930 . S
H261 C258 0.929 . S
S262 N263 1.613 . S
S262 N264 1.610 1_556 S
N263 S262 1.613 . S
N263 C266 1.350 . S
N264 S262 1.610 1_554 S
N264 C265 1.351 . S
C265 C259 1.428 . S
C265 N264 1.351 . S
C265 C266 1.434 1_554 S
C266 C257 1.429 . S
C266 N263 1.350 . S
C266 C265 1.434 1_556 S
C267 C268 1.369 . S
C267 C269 1.419 . S
C267 H271 0.930 . S
C268 C267 1.369 . S
C268 C277 1.429 1_655 S
C269 C267 1.419 . S
C269 C270 1.363 1_655 S
C269 H272 0.929 . S
C270 C269 1.363 1_455 S
C270 C276 1.428 . S
H271 C267 0.930 . S
H272 C269 0.929 . S
S273 N274 1.613 . S
S273 N275 1.610 . S
N274 S273 1.613 . S
N274 C277 1.350 . S
N275 S273 1.610 . S
N275 C276 1.351 . S
C276 C270 1.428 . S
C276 N275 1.351 . S
C276 C277 1.434 . S
C277 C268 1.429 1_455 S
C277 N274 1.350 . S
C277 C276 1.434 . S
C278 C279 1.369 . S
C278 C280 1.419 1_556 S
C278 H282 0.930 . S
C279 C278 1.369 . S
C279 C288 1.429 1_545 S
C280 C278 1.419 1_554 S
C280 C281 1.363 1_545 S
C280 H283 0.929 . S
C281 C280 1.363 1_565 S
C281 C287 1.428 . S
H282 C278 0.930 . S
H283 C280 0.929 . S
S284 N285 1.613 . S
S284 N286 1.610 1_556 S
N285 S284 1.613 . S
N285 C288 1.350 . S
N286 S284 1.610 1_554 S
N286 C287 1.351 . S
C287 C281 1.428 . S
C287 N286 1.351 . S
C287 C288 1.434 1_554 S
C288 C279 1.429 1_565 S
C288 N285 1.350 . S
C288 C287 1.434 1_556 S
C289 C290 1.369 . S
C289 C291 1.419 . S
C289 H293 0.930 . S
C290 C289 1.369 . S
C290 C299 1.429 . S
C291 C289 1.419 . S
C291 C292 1.363 . S
C291 H294 0.929 . S
C292 C291 1.363 . S
C292 C298 1.428 . S
H293 C289 0.930 . S
H294 C291 0.929 . S
S295 N296 1.613 . S
S295 N297 1.610 . S
N296 S295 1.613 . S
N296 C299 1.350 . S
N297 S295 1.610 . S
N297 C298 1.351 . S
C298 C292 1.428 . S
C298 N297 1.351 . S
C298 C299 1.434 . S
C299 C290 1.429 . S
C299 N296 1.350 . S
C299 C298 1.434 . S
C300 C301 1.369 . S
C300 C302 1.419 . S
C300 H304 0.930 . S
C301 C300 1.369 . S
C301 C310 1.429 . S
C302 C300 1.419 . S
C302 C303 1.363 . S
C302 H305 0.929 . S
C303 C302 1.363 . S
C303 C309 1.428 . S
H304 C300 0.930 . S
H305 C302 0.929 . S
S306 N307 1.613 . S
S306 N308 1.610 . S
N307 S306 1.613 . S
N307 C310 1.350 1_655 S
N308 S306 1.610 . S
N308 C309 1.351 1_655 S
C309 C303 1.428 . S
C309 N308 1.351 1_455 S
C309 C310 1.434 . S
C310 C301 1.429 . S
C310 N307 1.350 1_455 S
C310 C309 1.434 . S
C311 C312 1.369 . S
C311 C313 1.419 . S
C311 H315 0.930 . S
C312 C311 1.369 . S
C312 C321 1.429 . S
C313 C311 1.419 . S
C313 C314 1.363 . S
C313 H316 0.929 . S
C314 C313 1.363 . S
C314 C320 1.428 . S
H315 C311 0.930 . S
H316 C313 0.929 . S
S317 N318 1.613 . S
S317 N319 1.610 . S
N318 S317 1.613 . S
N318 C321 1.350 . S
N319 S317 1.610 . S
N319 C320 1.351 . S
C320 C314 1.428 . S
C320 N319 1.351 . S
C320 C321 1.434 . S
C321 C312 1.429 . S
C321 N318 1.350 . S
C321 C320 1.434 . S
C322 C323 1.369 . S
C322 C324 1.419 . S
C322 H326 0.930 . S
C323 C322 1.369 . S
C323 C332 1.429 . S
C324 C322 1.419 . S
C324 C325 1.363 . S
C324 H327 0.929 . S
C325 C324 1.363 . S
C325 C331 1.428 . S
H326 C322 0.930 . S
H327 C324 0.929 . S
S328 N329 1.613 . S
S328 N330 1.610 . S
N329 S328 1.613 . S
N329 C332 1.350 . S
N330 S328 1.610 . S
N330 C331 1.351 . S
C331 C325 1.428 . S
C331 N330 1.351 . S
C331 C332 1.434 . S
C332 C323 1.429 . S
C332 N329 1.350 . S
C332 C331 1.434 . S
C333 C334 1.369 . S
C333 C335 1.419 . S
C333 H337 0.930 . S
C334 C333 1.369 . S
C334 C343 1.429 . S
C335 C333 1.419 . S
C335 C336 1.363 . S
C335 H338 0.929 . S
C336 C335 1.363 . S
C336 C342 1.428 . S
H337 C333 0.930 . S
H338 C335 0.929 . S
S339 N340 1.613 . S
S339 N341 1.610 . S
N340 S339 1.613 . S
N340 C343 1.350 . S
N341 S339 1.610 . S
N341 C342 1.351 . S
C342 C336 1.428 . S
C342 N341 1.351 . S
C342 C343 1.434 . S
C343 C334 1.429 . S
C343 N340 1.350 . S
C343 C342 1.434 . S
C344 C345 1.369 . S
C344 C346 1.419 . S
C344 H348 0.930 1_565 S
C345 C344 1.369 . S
C345 C354 1.429 . S
C346 C344 1.419 . S
C346 C347 1.363 . S
C346 H349 0.929 1_565 S
C347 C346 1.363 . S
C347 C353 1.428 . S
H348 C344 0.930 1_545 S
H349 C346 0.929 1_545 S
S350 N351 1.613 . S
S350 N352 1.610 . S
N351 S350 1.613 . S
N351 C354 1.350 . S
N352 S350 1.610 . S
N352 C353 1.351 . S
C353 C347 1.428 . S
C353 N352 1.351 . S
C353 C354 1.434 . S
C354 C345 1.429 . S
C354 N351 1.350 . S
C354 C353 1.434 . S
C355 C356 1.369 . S
C355 C357 1.419 . S
C355 H359 0.930 . S
C356 C355 1.369 . S
C356 C365 1.429 . S
C357 C355 1.419 . S
C357 C358 1.363 . S
C357 H360 0.929 . S
C358 C357 1.363 . S
C358 C364 1.428 . S
H359 C355 0.930 . S
H360 C357 0.929 . S
S361 N362 1.613 . S
S361 N363 1.610 . S
N362 S361 1.613 . S
N362 C365 1.350 . S
N363 S361 1.610 . S
N363 C364 1.351 . S
C364 C358 1.428 . S
C364 N363 1.351 . S
C364 C365 1.434 . S
C365 C356 1.429 . S
C365 N362 1.350 . S
C365 C364 1.434 . S
C366 C367 1.369 . S
C366 C368 1.419 . S
C366 H370 0.930 . S
C367 C366 1.369 . S
C367 C376 1.429 . S
C368 C366 1.419 . S
C368 C369 1.363 . S
C368 H371 0.929 . S
C369 C368 1.363 . S
C369 C375 1.428 . S
H370 C366 0.930 . S
H371 C368 0.929 . S
S372 N373 1.613 . S
S372 N374 1.610 . S
N373 S372 1.613 . S
N373 C376 1.350 . S
N374 S372 1.610 . S
N374 C375 1.351 . S
C375 C369 1.428 . S
C375 N374 1.351 . S
C375 C376 1.434 . S
C376 C367 1.429 . S
C376 N373 1.350 . S
C376 C375 1.434 . S
C377 C378 1.369 . S
C377 C379 1.419 . S
C377 H381 0.930 . S
C378 C377 1.369 . S
C378 C387 1.429 . S
C379 C377 1.419 . S
C379 C380 1.363 . S
C379 H382 0.929 . S
C380 C379 1.363 . S
C380 C386 1.428 . S
H381 C377 0.930 . S
H382 C379 0.929 . S
S383 N384 1.613 . S
S383 N385 1.610 . S
N384 S383 1.613 . S
N384 C387 1.350 . S
N385 S383 1.610 . S
N385 C386 1.351 . S
C386 C380 1.428 . S
C386 N385 1.351 . S
C386 C387 1.434 . S
C387 C378 1.429 . S
C387 N384 1.350 . S
C387 C386 1.434 . S
C388 C389 1.369 . S
C388 C390 1.419 . S
C388 H392 0.930 . S
C389 C388 1.369 . S
C389 C398 1.429 . S
C390 C388 1.419 . S
C390 C391 1.363 . S
C390 H393 0.929 . S
C391 C390 1.363 . S
C391 C397 1.428 . S
H392 C388 0.930 . S
H393 C390 0.929 . S
S394 N395 1.613 . S
S394 N396 1.610 . S
N395 S394 1.613 . S
N395 C398 1.350 . S
N396 S394 1.610 . S
N396 C397 1.351 . S
C397 C391 1.428 . S
C397 N396 1.351 . S
C397 C398 1.434 . S
C398 C389 1.429 . S
C398 N395 1.350 . S
C398 C397 1.434 . S
C399 C400 1.369 . S
C399 C401 1.419 . S
C399 H403 0.930 . S
C400 C399 1.369 . S
C400 C409 1.429 . S
C401 C399 1.419 . S
C401 C402 1.363 . S
C401 H404 0.929 . S
C402 C401 1.363 . S
C402 C408 1.428 . S
H403 C399 0.930 . S
H404 C401 0.929 . S
S405 N406 1.613 . S
S405 N407 1.610 . S
N406 S405 1.613 . S
N406 C409 1.350 . S
N407 S405 1.610 . S
N407 C408 1.351 . S
C408 C402 1.428 . S
C408 N407 1.351 . S
C408 C409 1.434 . S
C409 C400 1.429 . S
C409 N406 1.350 . S
C409 C408 1.434 . S
C410 C411 1.369 . S
C410 C412 1.419 . S
C410 H414 0.930 . S
C411 C410 1.369 . S
C411 C420 1.429 . S
C412 C410 1.419 . S
C412 C413 1.363 . S
C412 H415 0.929 . S
C413 C412 1.363 . S
C413 C419 1.428 . S
H414 C410 0.930 . S
H415 C412 0.929 . S
S416 N417 1.613 . S
S416 N418 1.610 . S
N417 S416 1.613 . S
N417 C420 1.350 . S
N418 S416 1.610 . S
N418 C419 1.351 . S
C419 C413 1.428 . S
C419 N418 1.351 . S
C419 C420 1.434 . S
C420 C411 1.429 . S
C420 N417 1.350 . S
C420 C419 1.434 . S
C421 C422 1.369 . S
C421 C423 1.419 . S
C421 H425 0.930 . S
C422 C421 1.369 . S
C422 C431 1.429 . S
C423 C421 1.419 . S
C423 C424 1.363 . S
C423 H426 0.929 . S
C424 C423 1.363 . S
C424 C430 1.428 . S
H425 C421 0.930 . S
H426 C423 0.929 . S
S427 N428 1.613 . S
S427 N429 1.610 . S
N428 S427 1.613 . S
N428 C431 1.350 . S
N429 S427 1.610 . S
N429 C430 1.351 . S
C430 C424 1.428 . S
C430 N429 1.351 . S
C430 C431 1.434 . S
C431 C422 1.429 . S
C431 N428 1.350 . S
C431 C430 1.434 . S
C169 C7 1.397 . S
C171 C161 1.398 . S
C180 C91 1.399 . S
C182 C21 1.397 . S
C191 C35 1.393 . S
C193 C105 1.394 . S
C202 C119 1.399 . S
C204 C49 1.399 . S
C213 C133 1.395 . S
C215 C63 1.397 . S
C224 C147 1.399 . S
C226 C77 1.399 . S
C235 C45 1.372 . S
C237 C115 1.372 . S
C246 C59 1.373 . S
C248 C129 1.376 . S
C257 C73 1.371 . S
C259 C143 1.372 . S
C268 C157 1.377 . S
C270 C3 1.372 . S
C279 C17 1.377 . S
C281 C87 1.371 . S
C290 C31 1.374 . S
C292 C101 1.376 . S
C301 C121 1.619 . S
C303 C9 1.620 . S
C312 C135 1.623 . S
C314 C23 1.622 . S
C323 C37 1.619 . S
C325 C149 1.620 . S
C334 C51 1.622 . S
C336 C163 1.621 . S
C345 C65 1.623 . S
C347 C93 1.622 . S
C356 C107 1.620 . S
C358 C79 1.620 . S
C367 C8 1.605 . S
C369 C148 1.605 . S
C378 C162 1.604 . S
C380 C22 1.605 . S
C389 C36 1.604 . S
C391 C92 1.605 . S
C400 C50 1.605 . S
C402 C106 1.605 . S
C411 C64 1.605 . S
C413 C120 1.604 . S
C422 C78 1.602 . S
C424 C134 1.603 . S
