# Generated by pormake.
# Topology zni, (4)-cn, num edge types: 1
# Building blocks:
#     Node 0, Type 0, BuildingBlock: CEKHIL_clean_sbu_0, # of connection points: 4
#     Node 1, Type 0, BuildingBlock: CEKHIL_clean_sbu_0, # of connection points: 4
#     Node 2, Type 0, BuildingBlock: CEKHIL_clean_sbu_0, # of connection points: 4
#     Node 3, Type 0, BuildingBlock: CEKHIL_clean_sbu_0, # of connection points: 4
#     Node 4, Type 0, BuildingBlock: CEKHIL_clean_sbu_0, # of connection points: 4
#     Node 5, Type 0, BuildingBlock: CEKHIL_clean_sbu_0, # of connection points: 4
#     Node 6, Type 0, BuildingBlock: CEKHIL_clean_sbu_0, # of connection points: 4
#     Node 7, Type 0, BuildingBlock: CEKHIL_clean_sbu_0, # of connection points: 4
#     Node 8, Type 0, BuildingBlock: CEKHIL_clean_sbu_0, # of connection points: 4
#     Node 9, Type 0, BuildingBlock: CEKHIL_clean_sbu_0, # of connection points: 4
#     Node 10, Type 0, BuildingBlock: CEKHIL_clean_sbu_0, # of connection points: 4
#     Node 11, Type 0, BuildingBlock: CEKHIL_clean_sbu_0, # of connection points: 4
#     Node 12, Type 0, BuildingBlock: CEKHIL_clean_sbu_0, # of connection points: 4
#     Node 13, Type 0, BuildingBlock: CEKHIL_clean_sbu_0, # of connection points: 4
#     Node 14, Type 0, BuildingBlock: CEKHIL_clean_sbu_0, # of connection points: 4
#     Node 15, Type 0, BuildingBlock: CEKHIL_clean_sbu_0, # of connection points: 4
#     Node 16, Type 0, BuildingBlock: CEKHIL_clean_sbu_0, # of connection points: 4
#     Node 17, Type 0, BuildingBlock: CEKHIL_clean_sbu_0, # of connection points: 4
#     Node 18, Type 0, BuildingBlock: CEKHIL_clean_sbu_0, # of connection points: 4
#     Node 19, Type 0, BuildingBlock: CEKHIL_clean_sbu_0, # of connection points: 4
#     Node 20, Type 0, BuildingBlock: CEKHIL_clean_sbu_0, # of connection points: 4
#     Node 21, Type 0, BuildingBlock: CEKHIL_clean_sbu_0, # of connection points: 4
#     Node 22, Type 0, BuildingBlock: CEKHIL_clean_sbu_0, # of connection points: 4
#     Node 23, Type 0, BuildingBlock: CEKHIL_clean_sbu_0, # of connection points: 4
#     Node 24, Type 0, BuildingBlock: CEKHIL_clean_sbu_0, # of connection points: 4
#     Node 25, Type 0, BuildingBlock: CEKHIL_clean_sbu_0, # of connection points: 4
#     Node 26, Type 0, BuildingBlock: CEKHIL_clean_sbu_0, # of connection points: 4
#     Node 27, Type 0, BuildingBlock: CEKHIL_clean_sbu_0, # of connection points: 4
#     Node 28, Type 0, BuildingBlock: CEKHIL_clean_sbu_0, # of connection points: 4
#     Node 29, Type 0, BuildingBlock: CEKHIL_clean_sbu_0, # of connection points: 4
#     Node 30, Type 0, BuildingBlock: CEKHIL_clean_sbu_0, # of connection points: 4
#     Node 31, Type 0, BuildingBlock: CEKHIL_clean_sbu_0, # of connection points: 4
#     Edge 32, Type (0, 0), BuildingBlock: OJICUG_clean_linker_0, # of connection points: 2
#     Edge 33, Type (0, 0), BuildingBlock: OJICUG_clean_linker_0, # of connection points: 2
#     Edge 34, Type (0, 0), BuildingBlock: OJICUG_clean_linker_0, # of connection points: 2
#     Edge 35, Type (0, 0), BuildingBlock: OJICUG_clean_linker_0, # of connection points: 2
#     Edge 36, Type (0, 0), BuildingBlock: OJICUG_clean_linker_0, # of connection points: 2
#     Edge 37, Type (0, 0), BuildingBlock: OJICUG_clean_linker_0, # of connection points: 2
#     Edge 38, Type (0, 0), BuildingBlock: OJICUG_clean_linker_0, # of connection points: 2
#     Edge 39, Type (0, 0), BuildingBlock: OJICUG_clean_linker_0, # of connection points: 2
#     Edge 40, Type (0, 0), BuildingBlock: OJICUG_clean_linker_0, # of connection points: 2
#     Edge 41, Type (0, 0), BuildingBlock: OJICUG_clean_linker_0, # of connection points: 2
#     Edge 42, Type (0, 0), BuildingBlock: OJICUG_clean_linker_0, # of connection points: 2
#     Edge 43, Type (0, 0), BuildingBlock: OJICUG_clean_linker_0, # of connection points: 2
#     Edge 44, Type (0, 0), BuildingBlock: OJICUG_clean_linker_0, # of connection points: 2
#     Edge 45, Type (0, 0), BuildingBlock: OJICUG_clean_linker_0, # of connection points: 2
#     Edge 46, Type (0, 0), BuildingBlock: OJICUG_clean_linker_0, # of connection points: 2
#     Edge 47, Type (0, 0), BuildingBlock: OJICUG_clean_linker_0, # of connection points: 2
#     Edge 48, Type (0, 0), BuildingBlock: OJICUG_clean_linker_0, # of connection points: 2
#     Edge 49, Type (0, 0), BuildingBlock: OJICUG_clean_linker_0, # of connection points: 2
#     Edge 50, Type (0, 0), BuildingBlock: OJICUG_clean_linker_0, # of connection points: 2
#     Edge 51, Type (0, 0), BuildingBlock: OJICUG_clean_linker_0, # of connection points: 2
#     Edge 52, Type (0, 0), BuildingBlock: OJICUG_clean_linker_0, # of connection points: 2
#     Edge 53, Type (0, 0), BuildingBlock: OJICUG_clean_linker_0, # of connection points: 2
#     Edge 54, Type (0, 0), BuildingBlock: OJICUG_clean_linker_0, # of connection points: 2
#     Edge 55, Type (0, 0), BuildingBlock: OJICUG_clean_linker_0, # of connection points: 2
#     Edge 56, Type (0, 0), BuildingBlock: OJICUG_clean_linker_0, # of connection points: 2
#     Edge 57, Type (0, 0), BuildingBlock: OJICUG_clean_linker_0, # of connection points: 2
#     Edge 58, Type (0, 0), BuildingBlock: OJICUG_clean_linker_0, # of connection points: 2
#     Edge 59, Type (0, 0), BuildingBlock: OJICUG_clean_linker_0, # of connection points: 2
#     Edge 60, Type (0, 0), BuildingBlock: OJICUG_clean_linker_0, # of connection points: 2
#     Edge 61, Type (0, 0), BuildingBlock: OJICUG_clean_linker_0, # of connection points: 2
#     Edge 62, Type (0, 0), BuildingBlock: OJICUG_clean_linker_0, # of connection points: 2
#     Edge 63, Type (0, 0), BuildingBlock: OJICUG_clean_linker_0, # of connection points: 2
#     Edge 64, Type (0, 0), BuildingBlock: OJICUG_clean_linker_0, # of connection points: 2
#     Edge 65, Type (0, 0), BuildingBlock: OJICUG_clean_linker_0, # of connection points: 2
#     Edge 66, Type (0, 0), BuildingBlock: OJICUG_clean_linker_0, # of connection points: 2
#     Edge 67, Type (0, 0), BuildingBlock: OJICUG_clean_linker_0, # of connection points: 2
#     Edge 68, Type (0, 0), BuildingBlock: OJICUG_clean_linker_0, # of connection points: 2
#     Edge 69, Type (0, 0), BuildingBlock: OJICUG_clean_linker_0, # of connection points: 2
#     Edge 70, Type (0, 0), BuildingBlock: OJICUG_clean_linker_0, # of connection points: 2
#     Edge 71, Type (0, 0), BuildingBlock: OJICUG_clean_linker_0, # of connection points: 2
#     Edge 72, Type (0, 0), BuildingBlock: OJICUG_clean_linker_0, # of connection points: 2
#     Edge 73, Type (0, 0), BuildingBlock: OJICUG_clean_linker_0, # of connection points: 2
#     Edge 74, Type (0, 0), BuildingBlock: OJICUG_clean_linker_0, # of connection points: 2
#     Edge 75, Type (0, 0), BuildingBlock: OJICUG_clean_linker_0, # of connection points: 2
#     Edge 76, Type (0, 0), BuildingBlock: OJICUG_clean_linker_0, # of connection points: 2
#     Edge 77, Type (0, 0), BuildingBlock: OJICUG_clean_linker_0, # of connection points: 2
#     Edge 78, Type (0, 0), BuildingBlock: OJICUG_clean_linker_0, # of connection points: 2
#     Edge 79, Type (0, 0), BuildingBlock: OJICUG_clean_linker_0, # of connection points: 2
#     Edge 80, Type (0, 0), BuildingBlock: OJICUG_clean_linker_0, # of connection points: 2
#     Edge 81, Type (0, 0), BuildingBlock: OJICUG_clean_linker_0, # of connection points: 2
#     Edge 82, Type (0, 0), BuildingBlock: OJICUG_clean_linker_0, # of connection points: 2
#     Edge 83, Type (0, 0), BuildingBlock: OJICUG_clean_linker_0, # of connection points: 2
#     Edge 84, Type (0, 0), BuildingBlock: OJICUG_clean_linker_0, # of connection points: 2
#     Edge 85, Type (0, 0), BuildingBlock: OJICUG_clean_linker_0, # of connection points: 2
#     Edge 86, Type (0, 0), BuildingBlock: OJICUG_clean_linker_0, # of connection points: 2
#     Edge 87, Type (0, 0), BuildingBlock: OJICUG_clean_linker_0, # of connection points: 2
#     Edge 88, Type (0, 0), BuildingBlock: OJICUG_clean_linker_0, # of connection points: 2
#     Edge 89, Type (0, 0), BuildingBlock: OJICUG_clean_linker_0, # of connection points: 2
#     Edge 90, Type (0, 0), BuildingBlock: OJICUG_clean_linker_0, # of connection points: 2
#     Edge 91, Type (0, 0), BuildingBlock: OJICUG_clean_linker_0, # of connection points: 2
#     Edge 92, Type (0, 0), BuildingBlock: OJICUG_clean_linker_0, # of connection points: 2
#     Edge 93, Type (0, 0), BuildingBlock: OJICUG_clean_linker_0, # of connection points: 2
#     Edge 94, Type (0, 0), BuildingBlock: OJICUG_clean_linker_0, # of connection points: 2
#     Edge 95, Type (0, 0), BuildingBlock: OJICUG_clean_linker_0, # of connection points: 2
# Relax obj value: 0.222
# Max RMSD: 0.113
# Mean RMSD: 0.113
data_MOF--net-zni--node1-CEKHIL_clean_sbu_0--edge1-OJICUG_clean_linker_0
_symmetry_space_group_name_H-M    P1
_symmetry_Int_Tables_number       1
_symmetry_cell_setting            triclinic
loop_
_symmetry_equiv_pos_as_xyz
'x, y, z'
_cell_length_a     42.376394
_cell_length_b     42.375584
_cell_length_c     21.295887
_cell_angle_alpha  90.00535
_cell_angle_beta   90.001987
_cell_angle_gamma 90.001004
loop_
_atom_site_label
_atom_site_type_symbol
_atom_site_fract_x
_atom_site_fract_y
_atom_site_fract_z
_atom_type_partial_charge
Co0 Co 0.09562 0.08861 0.41598 0.0
O1 O 0.08858 0.04422 0.40185 0.0
O2 O 0.10557 0.07826 0.33031 0.0
C3 C 0.1212 0.08373 0.50817 0.0
O4 O 0.10718 0.13498 0.41157 0.0
Co5 Co 0.06828 0.12534 0.52921 0.0
O6 O 0.09583 0.16064 0.50078 0.0
C7 C 0.02678 0.10825 0.42279 0.0
C8 C 0.09759 0.04952 0.34444 0.0
C9 C 0.10805 0.15981 0.44612 0.0
O10 O 0.05076 0.09852 0.39119 0.0
O11 O 0.02856 0.11717 0.48017 0.0
O12 O 0.13634 0.07991 0.45559 0.0
O13 O 0.09114 0.08786 0.50353 0.0
Co14 Co 0.16173 0.84665 0.66677 0.0
O15 O 0.2062 0.83997 0.65281 0.0
O16 O 0.17202 0.85638 0.58098 0.0
C17 C 0.16631 0.87262 0.75858 0.0
O18 O 0.11526 0.85772 0.66212 0.0
Co19 Co 0.12528 0.81933 0.78038 0.0
O20 O 0.0897 0.84639 0.75146 0.0
C21 C 0.14247 0.77769 0.67425 0.0
C22 C 0.20083 0.84871 0.59526 0.0
C23 C 0.09041 0.85842 0.69663 0.0
O24 O 0.15221 0.80163 0.64255 0.0
O25 O 0.13349 0.77954 0.73158 0.0
O26 O 0.17001 0.8876 0.70579 0.0
O27 O 0.1625 0.84251 0.75439 0.0
Co28 Co 0.40296 0.91181 0.91677 0.0
O29 O 0.40969 0.95622 0.90227 0.0
O30 O 0.39302 0.92189 0.83097 0.0
C31 C 0.37725 0.9167 0.00881 0.0
O32 O 0.39178 0.86534 0.91275 0.0
Co33 Co 0.43045 0.87557 0.03052 0.0
O34 O 0.40331 0.83994 0.00215 0.0
C35 C 0.47191 0.89252 0.92393 0.0
C36 C 0.40076 0.95072 0.84487 0.0
C37 C 0.39113 0.84055 0.94745 0.0
O38 O 0.44791 0.90213 0.89224 0.0
O39 O 0.47014 0.88373 0.9814 0.0
O40 O 0.36213 0.92029 0.95613 0.0
O41 O 0.40734 0.9128 0.00434 0.0
Co42 Co 0.33859 0.15335 0.1652 0.0
O43 O 0.29422 0.16046 0.151 0.0
O44 O 0.32826 0.14345 0.07948 0.0
C45 C 0.33358 0.12773 0.25731 0.0
O46 O 0.38495 0.14174 0.16091 0.0
Co47 Co 0.37523 0.18059 0.27865 0.0
O48 O 0.41049 0.15296 0.25033 0.0
C49 C 0.35833 0.22217 0.17222 0.0
C50 C 0.29953 0.15144 0.09359 0.0
C51 C 0.40972 0.14079 0.19563 0.0
O52 O 0.34858 0.19822 0.14054 0.0
O53 O 0.3672 0.22034 0.22963 0.0
O54 O 0.32981 0.11262 0.20469 0.0
O55 O 0.33776 0.15779 0.25275 0.0
Co56 Co 0.09548 0.91168 0.08641 0.0
O57 O 0.08849 0.95607 0.10072 0.0
O58 O 0.10531 0.92192 0.17221 0.0
C59 C 0.12123 0.91664 0.99442 0.0
O60 O 0.10696 0.86529 0.09062 0.0
Co61 Co 0.06824 0.87519 0.97277 0.0
O62 O 0.0957 0.83982 0.00114 0.0
C63 C 0.02664 0.892 0.07922 0.0
C64 C 0.09742 0.95068 0.15815 0.0
C65 C 0.10784 0.84052 0.05588 0.0
O66 O 0.05058 0.90177 0.11091 0.0
O67 O 0.02847 0.88315 0.0218 0.0
O68 O 0.13628 0.92037 0.04713 0.0
O69 O 0.09115 0.91257 0.99883 0.0
Co70 Co 0.33856 0.8463 0.33702 0.0
O71 O 0.29418 0.83941 0.35148 0.0
O72 O 0.32843 0.8561 0.42289 0.0
C73 C 0.33353 0.87214 0.24516 0.0
O74 O 0.38498 0.85765 0.34105 0.0
Co75 Co 0.37482 0.81908 0.22308 0.0
O76 O 0.41032 0.8464 0.25142 0.0
C77 C 0.35806 0.77742 0.32946 0.0
C78 C 0.29963 0.84831 0.4089 0.0
C79 C 0.40971 0.85849 0.3062 0.0
O80 O 0.34838 0.80135 0.36129 0.0
O81 O 0.36684 0.77929 0.27201 0.0
O82 O 0.32993 0.88716 0.29794 0.0
O83 O 0.33754 0.84206 0.24943 0.0
Co84 Co 0.40284 0.08804 0.58576 0.0
O85 O 0.40952 0.04363 0.60034 0.0
O86 O 0.39297 0.07801 0.67164 0.0
C87 C 0.37703 0.08312 0.49384 0.0
O88 O 0.39172 0.13452 0.58967 0.0
Co89 Co 0.43031 0.12412 0.47181 0.0
O90 O 0.40322 0.15981 0.5001 0.0
C91 C 0.4718 0.10725 0.57837 0.0
C92 C 0.40067 0.04917 0.65776 0.0
C93 C 0.39107 0.15927 0.55484 0.0
O94 O 0.44781 0.09768 0.61013 0.0
O95 O 0.47002 0.116 0.52089 0.0
O96 O 0.36196 0.07959 0.54658 0.0
O97 O 0.40713 0.08697 0.49818 0.0
Co98 Co 0.16146 0.1535 0.83608 0.0
O99 O 0.20592 0.16023 0.85006 0.0
O100 O 0.17175 0.1438 0.92189 0.0
C101 C 0.16611 0.12752 0.7443 0.0
O102 O 0.11501 0.14235 0.84067 0.0
Co103 Co 0.12499 0.18073 0.7224 0.0
O104 O 0.08947 0.15358 0.75125 0.0
C105 C 0.14218 0.22244 0.82844 0.0
C106 C 0.20055 0.15148 0.9076 0.0
C107 C 0.09018 0.14156 0.80609 0.0
O108 O 0.15188 0.19852 0.86023 0.0
O109 O 0.13322 0.22055 0.77109 0.0
O110 O 0.1698 0.11255 0.79711 0.0
O111 O 0.16225 0.15763 0.74846 0.0
Co112 Co 0.90368 0.91107 0.58597 0.0
O113 O 0.9107 0.95545 0.60034 0.0
O114 O 0.89398 0.92123 0.67183 0.0
C115 C 0.87782 0.91606 0.49414 0.0
O116 O 0.89221 0.86469 0.59012 0.0
Co117 Co 0.93082 0.87464 0.47219 0.0
O118 O 0.90336 0.83925 0.50055 0.0
C119 C 0.97252 0.89137 0.57852 0.0
C120 C 0.90187 0.95001 0.65781 0.0
C121 C 0.89127 0.83994 0.55533 0.0
O122 O 0.94861 0.90116 0.61024 0.0
O123 O 0.97064 0.88252 0.52111 0.0
O124 O 0.86284 0.91978 0.54693 0.0
O125 O 0.9079 0.912 0.49837 0.0
Co126 Co 0.83746 0.15253 0.33527 0.0
O127 O 0.79304 0.1593 0.34945 0.0
O128 O 0.82731 0.14309 0.42128 0.0
C129 C 0.83267 0.12624 0.24388 0.0
O130 O 0.88393 0.14143 0.33963 0.0
Co131 Co 0.87366 0.17946 0.22095 0.0
O132 O 0.90928 0.15248 0.24991 0.0
C133 C 0.85686 0.22144 0.32681 0.0
C134 C 0.79849 0.15073 0.40707 0.0
C135 C 0.9087 0.14062 0.30488 0.0
O136 O 0.84709 0.19761 0.35882 0.0
O137 O 0.86572 0.2194 0.26943 0.0
O138 O 0.82906 0.11145 0.2969 0.0
O139 O 0.83651 0.15637 0.24762 0.0
Co140 Co 0.59638 0.08763 0.08552 0.0
O141 O 0.58978 0.0432 0.10001 0.0
O142 O 0.60626 0.07758 0.17138 0.0
C143 C 0.62221 0.08283 0.99359 0.0
O144 O 0.60743 0.13413 0.08951 0.0
Co145 Co 0.56884 0.12372 0.97162 0.0
O146 O 0.59597 0.15938 0.99989 0.0
C147 C 0.52738 0.10674 0.07816 0.0
C148 C 0.59862 0.04873 0.15744 0.0
C149 C 0.60809 0.15886 0.05464 0.0
O150 O 0.55139 0.09718 0.10989 0.0
O151 O 0.52915 0.11553 0.0207 0.0
O152 O 0.63728 0.07928 0.04632 0.0
O153 O 0.5921 0.08661 0.99794 0.0
Co154 Co 0.66075 0.84616 0.83698 0.0
O155 O 0.70512 0.83909 0.85126 0.0
O156 O 0.67101 0.85593 0.92279 0.0
C157 C 0.6658 0.87194 0.74505 0.0
O158 O 0.61438 0.85771 0.8412 0.0
Co159 Co 0.62423 0.81906 0.72324 0.0
O160 O 0.5889 0.84656 0.75167 0.0
C161 C 0.64104 0.77735 0.82951 0.0
C162 C 0.69976 0.848 0.90871 0.0
C163 C 0.58962 0.85866 0.80644 0.0
O164 O 0.65078 0.80125 0.86134 0.0
O165 O 0.63221 0.77925 0.77209 0.0
O166 O 0.66951 0.88697 0.79778 0.0
O167 O 0.66165 0.84187 0.7494 0.0
Co168 Co 0.90379 0.08747 0.91658 0.0
O169 O 0.91108 0.04316 0.90202 0.0
O170 O 0.89401 0.0773 0.83076 0.0
C171 C 0.87807 0.0822 0.00851 0.0
O172 O 0.89202 0.13378 0.91264 0.0
Co173 Co 0.93077 0.12399 0.03043 0.0
O174 O 0.9032 0.1593 0.0021 0.0
C175 C 0.97248 0.10764 0.92388 0.0
C176 C 0.90209 0.04856 0.84464 0.0
C177 C 0.89104 0.15855 0.94738 0.0
O178 O 0.94862 0.09772 0.89216 0.0
O179 O 0.97058 0.1164 0.98134 0.0
O180 O 0.86305 0.07844 0.95577 0.0
O181 O 0.90812 0.08649 0.00416 0.0
Co182 Co 0.66071 0.15344 0.66514 0.0
O183 O 0.7051 0.16039 0.65081 0.0
O184 O 0.67094 0.14346 0.57943 0.0
C185 C 0.66567 0.12782 0.75727 0.0
O186 O 0.61432 0.14197 0.66098 0.0
Co187 Co 0.62423 0.18085 0.7786 0.0
O188 O 0.58884 0.15336 0.75037 0.0
C189 C 0.64108 0.2223 0.67196 0.0
C190 C 0.69971 0.15135 0.59344 0.0
C191 C 0.58955 0.14114 0.69571 0.0
O192 O 0.65082 0.19831 0.64038 0.0
O193 O 0.63224 0.22055 0.72939 0.0
O194 O 0.66939 0.11269 0.70464 0.0
O195 O 0.6616 0.15789 0.75271 0.0
Co196 Co 0.59656 0.91126 0.4163 0.0
O197 O 0.58973 0.95566 0.40181 0.0
O198 O 0.60653 0.9214 0.33052 0.0
C199 C 0.62221 0.91622 0.50842 0.0
O200 O 0.60787 0.86482 0.41228 0.0
Co201 Co 0.56911 0.87494 0.52997 0.0
O202 O 0.59637 0.83939 0.50167 0.0
C203 C 0.52765 0.89189 0.42339 0.0
C204 C 0.59871 0.9502 0.34443 0.0
C205 C 0.60858 0.84004 0.44699 0.0
O206 O 0.55165 0.90149 0.39167 0.0
O207 O 0.52942 0.88311 0.48085 0.0
O208 O 0.63735 0.91984 0.45578 0.0
O209 O 0.59213 0.91223 0.50385 0.0
Co210 Co 0.8377 0.84601 0.16654 0.0
O211 O 0.79328 0.83908 0.1524 0.0
O212 O 0.82742 0.85576 0.08074 0.0
C213 C 0.83286 0.87188 0.25841 0.0
O214 O 0.8841 0.8574 0.16215 0.0
Co215 Co 0.87421 0.81884 0.28023 0.0
O216 O 0.9096 0.84622 0.25164 0.0
C217 C 0.85734 0.77716 0.17394 0.0
C218 C 0.79864 0.84794 0.09491 0.0
C219 C 0.90889 0.85829 0.19684 0.0
O220 O 0.84752 0.80106 0.14222 0.0
O221 O 0.86624 0.77904 0.23132 0.0
O222 O 0.82912 0.88688 0.20565 0.0
O223 O 0.83687 0.84179 0.25413 0.0
Co224 Co 0.59633 0.58791 0.91541 0.0
O225 O 0.58972 0.54348 0.90083 0.0
O226 O 0.60615 0.57788 0.82949 0.0
C227 C 0.62223 0.58308 0.0073 0.0
O228 O 0.60737 0.63441 0.91144 0.0
Co229 Co 0.56889 0.62398 0.02945 0.0
O230 O 0.59594 0.65967 0.00107 0.0
C231 C 0.52734 0.60708 0.92297 0.0
C232 C 0.59852 0.54902 0.84338 0.0
C233 C 0.60803 0.65915 0.94628 0.0
O234 O 0.55131 0.59748 0.89117 0.0
O235 O 0.52916 0.61585 0.98044 0.0
O236 O 0.63726 0.57955 0.95451 0.0
O237 O 0.59212 0.58686 0.00303 0.0
Co238 Co 0.66091 0.34589 0.16386 0.0
O239 O 0.70531 0.33891 0.1497 0.0
O240 O 0.67122 0.35566 0.07804 0.0
C241 C 0.6658 0.37171 0.25583 0.0
O242 O 0.61451 0.35734 0.15952 0.0
Co243 Co 0.62441 0.31871 0.27757 0.0
O244 O 0.58908 0.34622 0.24913 0.0
C245 C 0.64131 0.27703 0.17128 0.0
C246 C 0.69998 0.34779 0.09222 0.0
C247 C 0.58976 0.35829 0.19434 0.0
O248 O 0.65104 0.30095 0.13949 0.0
O249 O 0.63245 0.27892 0.22869 0.0
O250 O 0.66954 0.38674 0.2031 0.0
O251 O 0.66175 0.34163 0.25146 0.0
Co252 Co 0.90333 0.41043 0.41406 0.0
O253 O 0.91022 0.45489 0.40036 0.0
O254 O 0.89358 0.42094 0.32834 0.0
C255 C 0.87745 0.41502 0.506 0.0
O256 O 0.89199 0.36402 0.40921 0.0
Co257 Co 0.93056 0.37372 0.52744 0.0
O258 O 0.90307 0.33844 0.49867 0.0
C259 C 0.97223 0.39097 0.4214 0.0
C260 C 0.90139 0.44968 0.3428 0.0
C261 C 0.89104 0.33922 0.44384 0.0
O262 O 0.9483 0.40074 0.38968 0.0
O263 O 0.97035 0.38196 0.47871 0.0
O264 O 0.86245 0.41886 0.45328 0.0
O265 O 0.90754 0.41106 0.50167 0.0
Co266 Co 0.8382 0.65327 0.66575 0.0
O267 O 0.79375 0.65995 0.65148 0.0
O268 O 0.82798 0.64334 0.57996 0.0
C269 C 0.83345 0.62752 0.75781 0.0
O270 O 0.88467 0.64214 0.6615 0.0
Co271 Co 0.87449 0.6808 0.77941 0.0
O272 O 0.91009 0.65365 0.75093 0.0
C273 C 0.85745 0.72223 0.67284 0.0
C274 C 0.79917 0.65106 0.59403 0.0
C275 C 0.90947 0.6415 0.6962 0.0
O276 O 0.8478 0.69823 0.6412 0.0
O277 O 0.86631 0.72048 0.73027 0.0
O278 O 0.82981 0.61241 0.70513 0.0
O279 O 0.8373 0.65761 0.75333 0.0
Co280 Co 0.59628 0.41151 0.58448 0.0
O281 O 0.58961 0.45596 0.59886 0.0
O282 O 0.6063 0.42169 0.67021 0.0
C283 C 0.62192 0.41625 0.49228 0.0
O284 O 0.60742 0.36504 0.58868 0.0
Co285 Co 0.56864 0.37516 0.47101 0.0
O286 O 0.59576 0.33953 0.49945 0.0
C287 C 0.5273 0.39228 0.57767 0.0
C288 C 0.59856 0.45051 0.65626 0.0
C289 C 0.60799 0.3402 0.5541 0.0
O290 O 0.55134 0.4019 0.60923 0.0
O291 O 0.529 0.38342 0.52024 0.0
O292 O 0.63708 0.41989 0.5449 0.0
O293 O 0.59183 0.41239 0.49689 0.0
Co294 Co 0.83827 0.34508 0.83503 0.0
O295 O 0.79381 0.33826 0.84901 0.0
O296 O 0.82782 0.3553 0.92055 0.0
C297 C 0.83363 0.37044 0.74251 0.0
O298 O 0.88469 0.35643 0.83956 0.0
Co299 Co 0.87498 0.31725 0.72221 0.0
O300 O 0.91037 0.34471 0.75056 0.0
C301 C 0.85763 0.27613 0.82905 0.0
C302 C 0.79907 0.3474 0.90636 0.0
C303 C 0.90956 0.35708 0.80508 0.0
O304 O 0.84798 0.30024 0.86036 0.0
O305 O 0.86657 0.27771 0.77166 0.0
O306 O 0.8298 0.38573 0.79492 0.0
O307 O 0.83761 0.34038 0.7475 0.0
Co308 Co 0.90366 0.58826 0.08624 0.0
O309 O 0.91064 0.54383 0.10011 0.0
O310 O 0.8938 0.57779 0.17193 0.0
C311 C 0.87793 0.5835 0.99415 0.0
O312 O 0.89219 0.63465 0.09087 0.0
Co313 Co 0.93091 0.62498 0.97289 0.0
O314 O 0.9034 0.66026 0.00154 0.0
C315 C 0.9725 0.60796 0.07924 0.0
C316 C 0.90168 0.54906 0.15759 0.0
C317 C 0.89129 0.65947 0.05629 0.0
O318 O 0.94857 0.59811 0.11085 0.0
O319 O 0.97066 0.61692 0.02189 0.0
O320 O 0.86286 0.57967 0.04681 0.0
O321 O 0.908 0.58756 0.99864 0.0
Co322 Co 0.66124 0.65322 0.33606 0.0
O323 O 0.70567 0.66008 0.35028 0.0
O324 O 0.67155 0.64319 0.42174 0.0
C325 C 0.66605 0.62765 0.24379 0.0
O326 O 0.61482 0.64185 0.34036 0.0
Co327 Co 0.6247 0.68076 0.22276 0.0
O328 O 0.58928 0.65335 0.2511 0.0
C329 C 0.64179 0.72213 0.32939 0.0
C330 C 0.70032 0.65106 0.40767 0.0
C331 C 0.59001 0.6411 0.30573 0.0
O332 O 0.65147 0.69811 0.36094 0.0
O333 O 0.63292 0.72041 0.27197 0.0
O334 O 0.66979 0.61247 0.29635 0.0
O335 O 0.66205 0.65772 0.24849 0.0
Co336 Co 0.40294 0.41154 0.08547 0.0
O337 O 0.40964 0.45597 0.09989 0.0
O338 O 0.39323 0.42164 0.17141 0.0
C339 C 0.37694 0.4164 0.99372 0.0
O340 O 0.39183 0.36505 0.08961 0.0
Co341 Co 0.43016 0.37536 0.97137 0.0
O342 O 0.40312 0.33971 0.99999 0.0
C343 C 0.47188 0.39227 0.07758 0.0
C344 C 0.40089 0.45048 0.1574 0.0
C345 C 0.39111 0.34028 0.05484 0.0
O346 O 0.44797 0.40192 0.1095 0.0
O347 O 0.46997 0.38346 0.02015 0.0
O348 O 0.36197 0.41995 0.04656 0.0
O349 O 0.40705 0.41254 0.99786 0.0
Co350 Co 0.33846 0.65374 0.83649 0.0
O351 O 0.29406 0.66076 0.85072 0.0
O352 O 0.32813 0.64377 0.92219 0.0
C353 C 0.33356 0.62816 0.74426 0.0
O354 O 0.38484 0.6422 0.84075 0.0
Co355 Co 0.37504 0.68117 0.72315 0.0
O356 O 0.41034 0.65356 0.75136 0.0
C357 C 0.3581 0.7226 0.82978 0.0
C358 C 0.29939 0.65174 0.90812 0.0
C359 C 0.40961 0.64132 0.806 0.0
O360 O 0.34839 0.6986 0.86134 0.0
O361 O 0.36695 0.72086 0.77235 0.0
O362 O 0.32976 0.61302 0.79684 0.0
O363 O 0.33765 0.65822 0.74893 0.0
Co364 Co 0.09638 0.58877 0.5864 0.0
O365 O 0.08934 0.54436 0.60031 0.0
O366 O 0.10612 0.57835 0.67215 0.0
C367 C 0.12221 0.58397 0.49445 0.0
O368 O 0.10788 0.63515 0.59104 0.0
Co369 Co 0.06928 0.62549 0.47291 0.0
O370 O 0.09678 0.66076 0.50164 0.0
C371 C 0.02756 0.60848 0.57904 0.0
C372 C 0.09821 0.54962 0.65783 0.0
C373 C 0.10884 0.65997 0.55644 0.0
O374 O 0.05146 0.59865 0.61078 0.0
O375 O 0.02946 0.61743 0.5217 0.0
O376 O 0.13722 0.58015 0.54718 0.0
O377 O 0.09214 0.58806 0.4988 0.0
Co378 Co 0.16162 0.34623 0.33506 0.0
O379 O 0.20604 0.33948 0.34937 0.0
O380 O 0.17182 0.35614 0.42086 0.0
C381 C 0.16642 0.37198 0.24303 0.0
O382 O 0.11516 0.35742 0.33921 0.0
Co383 Co 0.12536 0.31869 0.22137 0.0
O384 O 0.08979 0.34592 0.24972 0.0
C385 C 0.14224 0.27729 0.32805 0.0
C386 C 0.20062 0.34837 0.40681 0.0
C387 C 0.09039 0.35809 0.30444 0.0
O388 O 0.15194 0.30129 0.35963 0.0
O389 O 0.13341 0.27902 0.2706 0.0
O390 O 0.17008 0.38707 0.29572 0.0
O391 O 0.16254 0.34189 0.24747 0.0
Co392 Co 0.40325 0.58815 0.41597 0.0
O393 O 0.40993 0.5437 0.40164 0.0
O394 O 0.39337 0.57797 0.33015 0.0
C395 C 0.37741 0.58341 0.50794 0.0
O396 O 0.39211 0.63462 0.41174 0.0
Co397 Co 0.43072 0.62443 0.52969 0.0
O398 O 0.40353 0.66001 0.50125 0.0
C399 C 0.47222 0.60742 0.42322 0.0
C400 C 0.40106 0.54915 0.34418 0.0
C401 C 0.39141 0.6594 0.44649 0.0
O402 O 0.44823 0.59775 0.39154 0.0
O403 O 0.47043 0.61628 0.48064 0.0
O404 O 0.36236 0.57978 0.45521 0.0
O405 O 0.40752 0.58724 0.50358 0.0
Co406 Co 0.16149 0.65396 0.16614 0.0
O407 O 0.2059 0.66091 0.15184 0.0
O408 O 0.17175 0.64408 0.08036 0.0
C409 C 0.16643 0.62825 0.2582 0.0
O410 O 0.11509 0.64252 0.16193 0.0
Co411 Co 0.12502 0.68126 0.27977 0.0
O412 O 0.08961 0.65384 0.25137 0.0
C413 C 0.14184 0.72281 0.17326 0.0
C414 C 0.20052 0.65196 0.09442 0.0
C415 C 0.09031 0.64168 0.19664 0.0
O416 O 0.15161 0.69886 0.14159 0.0
O417 O 0.133 0.72099 0.23068 0.0
O418 O 0.17015 0.61317 0.20553 0.0
O419 O 0.16238 0.65832 0.25372 0.0
Co420 Co 0.09599 0.41142 0.91517 0.0
O421 O 0.08891 0.45581 0.90103 0.0
O422 O 0.10572 0.42175 0.82937 0.0
C423 C 0.12183 0.41636 0.00707 0.0
O424 O 0.10754 0.36505 0.91082 0.0
Co425 Co 0.06892 0.37486 0.02891 0.0
O426 O 0.09649 0.33959 1.00041 0.0
C427 C 0.0272 0.39148 0.92251 0.0
C428 C 0.09782 0.4505 0.84356 0.0
C429 C 0.10854 0.3403 0.9456 0.0
O430 O 0.05107 0.40142 0.89082 0.0
O431 O 0.02911 0.3826 0.9799 0.0
O432 O 0.13682 0.42015 0.95431 0.0
O433 O 0.09176 0.41226 0.00278 0.0
Co434 Co 0.33843 0.34622 0.66499 0.0
O435 O 0.29404 0.33921 0.65064 0.0
O436 O 0.32816 0.3562 0.57927 0.0
C437 C 0.33342 0.37179 0.7572 0.0
O438 O 0.38481 0.35775 0.66082 0.0
Co439 Co 0.37499 0.31888 0.77845 0.0
O440 O 0.41036 0.34636 0.75013 0.0
C441 C 0.35806 0.27738 0.6719 0.0
C442 C 0.2994 0.34825 0.59327 0.0
C443 C 0.40961 0.35858 0.69547 0.0
O444 O 0.34836 0.30135 0.64023 0.0
O445 O 0.36689 0.27917 0.72934 0.0
O446 O 0.32969 0.38694 0.70461 0.0
O447 O 0.33755 0.34173 0.75254 0.0
C448 C 0.09781 0.99239 0.31519 0.0
C449 C 0.09809 0.02422 0.29688 0.0
H450 H 0.09786 0.94411 0.28542 0.0
C451 C 0.09848 0.03171 0.23262 0.0
H452 H 0.09757 0.98596 0.36442 0.0
C453 C 0.09812 0.00779 0.18744 0.0
C454 C 0.098 0.97597 0.20574 0.0
H455 H 0.09858 0.05607 0.21719 0.0
H456 H 0.09814 0.01423 0.13821 0.0
C457 C 0.09808 0.96847 0.27 0.0
C458 C 0.21862 0.84924 0.48344 0.0
C459 C 0.22613 0.84921 0.5477 0.0
H460 H 0.23608 0.84855 0.38903 0.0
C461 C 0.25796 0.84923 0.56599 0.0
H462 H 0.19426 0.8491 0.46802 0.0
C463 C 0.28187 0.84943 0.52079 0.0
C464 C 0.27436 0.84898 0.45653 0.0
H465 H 0.2644 0.84929 0.61522 0.0
H466 H 0.30623 0.84945 0.5362 0.0
C467 C 0.24253 0.84882 0.43825 0.0
C468 C 0.39993 0.03162 0.76977 0.0
C469 C 0.40005 0.02398 0.70556 0.0
H470 H 0.40049 0.01434 0.86432 0.0
C471 C 0.4 0.99212 0.68752 0.0
H472 H 0.40009 0.05601 0.78499 0.0
C473 C 0.39972 0.9683 0.7329 0.0
C474 C 0.4001 0.97593 0.79711 0.0
H475 H 0.40001 0.98557 0.63835 0.0
H476 H 0.3997 0.94391 0.71767 0.0
C477 C 0.40027 0.0078 0.81514 0.0
C478 C 0.25769 0.15066 0.93669 0.0
C479 C 0.22588 0.1509 0.9551 0.0
H480 H 0.30599 0.15015 0.9663 0.0
C481 C 0.21843 0.15097 0.01938 0.0
H482 H 0.26409 0.15052 0.88744 0.0
C483 C 0.24239 0.15128 0.06448 0.0
C484 C 0.2742 0.15089 0.04609 0.0
H485 H 0.19409 0.15128 0.03488 0.0
H486 H 0.23599 0.15163 0.11373 0.0
C487 C 0.28164 0.15034 0.98181 0.0
C488 C 0.90101 0.00707 0.6874 0.0
C489 C 0.90145 0.97522 0.70552 0.0
H490 H 0.90036 0.05529 0.71743 0.0
C491 C 0.90183 0.96763 0.76974 0.0
H492 H 0.90062 0.01357 0.6382 0.0
C493 C 0.90222 0.99148 0.81504 0.0
C494 C 0.90158 0.02333 0.79693 0.0
H495 H 0.90233 0.94325 0.785 0.0
H496 H 0.9028 0.98497 0.86422 0.0
C497 C 0.90076 0.03092 0.73272 0.0
C498 C 0.74139 0.15017 0.43641 0.0
C499 C 0.77322 0.15031 0.45469 0.0
H500 H 0.69312 0.1499 0.4662 0.0
C501 C 0.78074 0.15046 0.51894 0.0
H502 H 0.73494 0.14997 0.38719 0.0
C503 C 0.75683 0.15094 0.56414 0.0
C504 C 0.725 0.15065 0.54587 0.0
H505 H 0.8051 0.1507 0.53434 0.0
H506 H 0.76328 0.15134 0.61335 0.0
C507 C 0.71749 0.15002 0.48162 0.0
C508 C 0.59892 0.00729 0.31476 0.0
C509 C 0.59932 0.97542 0.29669 0.0
H510 H 0.59887 0.05551 0.28468 0.0
C511 C 0.5999 0.96782 0.23247 0.0
H512 H 0.59855 0.01381 0.36394 0.0
C513 C 0.59956 0.99166 0.18712 0.0
C514 C 0.59928 0.02352 0.2052 0.0
H515 H 0.60011 0.94344 0.2172 0.0
H516 H 0.59971 0.98514 0.13794 0.0
C517 C 0.59922 0.03113 0.26942 0.0
C518 C 0.71758 0.84886 0.02055 0.0
C519 C 0.72506 0.84852 0.95628 0.0
H520 H 0.73509 0.84851 0.11495 0.0
C521 C 0.75689 0.84831 0.93795 0.0
H522 H 0.69322 0.8489 0.036 0.0
C523 C 0.78081 0.84861 0.9831 0.0
C524 C 0.77333 0.84848 0.04737 0.0
H525 H 0.76331 0.84813 0.88872 0.0
H526 H 0.80517 0.84846 0.96765 0.0
C527 C 0.74151 0.84853 0.06571 0.0
C528 C 0.59893 0.5076 0.68598 0.0
C529 C 0.5992 0.47574 0.70402 0.0
H530 H 0.59899 0.55583 0.71612 0.0
C531 C 0.59965 0.46813 0.76823 0.0
H532 H 0.59865 0.51414 0.6368 0.0
C533 C 0.59933 0.49196 0.81361 0.0
C534 C 0.59917 0.52382 0.79557 0.0
H535 H 0.59975 0.44374 0.78348 0.0
H536 H 0.59937 0.48542 0.86279 0.0
C537 C 0.59923 0.53144 0.73135 0.0
C538 C 0.74189 0.34782 0.93534 0.0
C539 C 0.7737 0.34811 0.95379 0.0
H540 H 0.69356 0.34799 0.96488 0.0
C541 C 0.7811 0.34867 0.01809 0.0
H542 H 0.73551 0.34746 0.88608 0.0
C543 C 0.75713 0.34844 0.06316 0.0
C544 C 0.72532 0.34829 0.04472 0.0
H545 H 0.80544 0.34878 0.03365 0.0
H546 H 0.76351 0.34858 0.11242 0.0
C547 C 0.71791 0.34823 0.98041 0.0
C548 C 0.90101 0.50689 0.31416 0.0
C549 C 0.90089 0.47511 0.2955 0.0
H550 H 0.90087 0.55526 0.28495 0.0
C551 C 0.90069 0.4678 0.23114 0.0
H552 H 0.9011 0.51319 0.36346 0.0
C553 C 0.90109 0.49185 0.18624 0.0
C554 C 0.90105 0.52363 0.20489 0.0
H555 H 0.90072 0.44349 0.21544 0.0
H556 H 0.90121 0.48555 0.13693 0.0
C557 C 0.90078 0.53094 0.26924 0.0
C558 C 0.71813 0.65003 0.51951 0.0
C559 C 0.72563 0.65043 0.45524 0.0
H560 H 0.73561 0.65033 0.61393 0.0
C561 C 0.75746 0.65064 0.43696 0.0
H562 H 0.69377 0.64997 0.53494 0.0
C563 C 0.78138 0.65032 0.48215 0.0
C564 C 0.77388 0.65042 0.54642 0.0
H565 H 0.7639 0.65088 0.38773 0.0
H566 H 0.80574 0.65051 0.46674 0.0
C567 C 0.74205 0.65034 0.56471 0.0
C568 C 0.40031 0.50758 0.18697 0.0
C569 C 0.40032 0.47572 0.20512 0.0
H570 H 0.40005 0.55582 0.21693 0.0
C571 C 0.4002 0.46816 0.26936 0.0
H572 H 0.40033 0.51407 0.13777 0.0
C573 C 0.40055 0.49203 0.31465 0.0
C574 C 0.40041 0.52389 0.2965 0.0
H575 H 0.40032 0.44378 0.28468 0.0
H576 H 0.40076 0.48554 0.36385 0.0
C577 C 0.40005 0.53144 0.23226 0.0
C578 C 0.21833 0.65122 0.98256 0.0
C579 C 0.22582 0.65135 0.04684 0.0
H580 H 0.23582 0.65168 0.88816 0.0
C581 C 0.25765 0.65125 0.06514 0.0
H582 H 0.19397 0.65141 0.96713 0.0
C583 C 0.28157 0.65088 0.01996 0.0
C584 C 0.27408 0.65122 0.95569 0.0
H585 H 0.26408 0.65127 0.11438 0.0
H586 H 0.30592 0.6508 0.0354 0.0
C587 C 0.24225 0.65147 0.93739 0.0
C588 C 0.09866 0.46845 0.73181 0.0
C589 C 0.09841 0.47586 0.79612 0.0
H590 H 0.09836 0.48608 0.6375 0.0
C591 C 0.09842 0.50766 0.81461 0.0
H592 H 0.09854 0.44412 0.71623 0.0
C593 C 0.09885 0.53164 0.76957 0.0
C594 C 0.09864 0.52425 0.70526 0.0
H595 H 0.09831 0.51403 0.86387 0.0
H596 H 0.09886 0.55598 0.78515 0.0
C597 C 0.09846 0.49244 0.68677 0.0
C598 C 0.25773 0.34908 0.43619 0.0
C599 C 0.22589 0.34896 0.45444 0.0
H600 H 0.30599 0.34946 0.46601 0.0
C601 C 0.21837 0.34896 0.5187 0.0
H602 H 0.26418 0.34916 0.38697 0.0
C603 C 0.24228 0.34861 0.56391 0.0
C604 C 0.27412 0.34887 0.54567 0.0
H605 H 0.19401 0.34874 0.53408 0.0
H606 H 0.23582 0.3483 0.61313 0.0
C607 C 0.28163 0.34936 0.48141 0.0
C608 C 0.1246 0.21679 0.45435 0.0
C609 C 0.12119 0.18914 0.41843 0.0
H610 H 0.13453 0.26642 0.45404 0.0
C611 C 0.12829 0.19025 0.35393 0.0
H612 H 0.11956 0.21672 0.50421 0.0
C613 C 0.13657 0.21866 0.32525 0.0
C614 C 0.13839 0.24662 0.36043 0.0
H615 H 0.12617 0.16943 0.32472 0.0
H616 H 0.14063 0.21887 0.27502 0.0
C617 C 0.13333 0.24524 0.42566 0.0
C618 C 0.00482 0.88313 0.67605 0.0
C619 C 0.00327 0.88761 0.61066 0.0
H620 H 0.0336 0.87019 0.75481 0.0
C621 C 0.03113 0.88548 0.57526 0.0
H622 H 0.98373 0.88458 0.70462 0.0
C623 C 0.05963 0.87755 0.60394 0.0
C624 C 0.06095 0.8711 0.66871 0.0
H625 H 0.03079 0.88909 0.5249 0.0
H626 H 0.08038 0.8752 0.57461 0.0
C627 C 0.03337 0.87473 0.70476 0.0
C628 C 0.37131 0.80977 0.85534 0.0
C629 C 0.37834 0.81105 0.91987 0.0
H630 H 0.35932 0.78095 0.77653 0.0
C631 C 0.37522 0.78339 0.95588 0.0
H632 H 0.37324 0.83058 0.82604 0.0
C633 C 0.3668 0.75482 0.92729 0.0
C634 C 0.36178 0.75332 0.86205 0.0
H635 H 0.38022 0.78358 0.00576 0.0
H636 H 0.36577 0.73366 0.95575 0.0
C637 C 0.36336 0.78125 0.82676 0.0
C638 C 0.46668 0.12421 0.20416 0.0
C639 C 0.43908 0.12764 0.16809 0.0
H640 H 0.51631 0.11431 0.20413 0.0
C641 C 0.44029 0.12056 0.10357 0.0
H642 H 0.46653 0.12921 0.25403 0.0
C643 C 0.46875 0.11232 0.07505 0.0
C644 C 0.49666 0.11051 0.11038 0.0
H645 H 0.41952 0.1227 0.07425 0.0
H646 H 0.46903 0.1083 0.02481 0.0
C647 C 0.49517 0.11551 0.17562 0.0
C648 C 0.13614 0.78142 0.17644 0.0
C649 C 0.13799 0.75352 0.14107 0.0
H650 H 0.12578 0.83065 0.1773 0.0
C651 C 0.13299 0.75502 0.07584 0.0
H652 H 0.14016 0.78112 0.22669 0.0
C653 C 0.12431 0.78353 0.04732 0.0
C654 C 0.1209 0.81113 0.08341 0.0
H655 H 0.13421 0.73389 0.04731 0.0
H656 H 0.11933 0.7837 0.99743 0.0
C657 C 0.12792 0.80988 0.14794 0.0
C658 C 0.46901 0.88655 0.42662 0.0
C659 C 0.49691 0.88819 0.39123 0.0
H660 H 0.41972 0.8765 0.42755 0.0
C661 C 0.49536 0.88315 0.32601 0.0
H662 H 0.46935 0.8906 0.47685 0.0
C663 C 0.4668 0.87463 0.29753 0.0
C664 C 0.43919 0.87141 0.33366 0.0
H665 H 0.51649 0.88423 0.29746 0.0
H666 H 0.46658 0.86961 0.24767 0.0
C667 C 0.44049 0.87848 0.39817 0.0
C668 C 0.37519 0.21643 0.54612 0.0
C669 C 0.37831 0.18882 0.58228 0.0
H670 H 0.36574 0.26616 0.54598 0.0
C671 C 0.37128 0.19017 0.6468 0.0
H672 H 0.38018 0.21617 0.49624 0.0
C673 C 0.36332 0.21873 0.67522 0.0
C674 C 0.36174 0.24662 0.63978 0.0
H675 H 0.37321 0.16941 0.6762 0.0
H676 H 0.35928 0.2191 0.72545 0.0
C677 C 0.36676 0.24504 0.57456 0.0
C678 C 0.0595 0.12198 0.89853 0.0
C679 C 0.06076 0.1287 0.83387 0.0
H680 H 0.03075 0.10997 0.97743 0.0
C681 C 0.03318 0.12509 0.79781 0.0
H682 H 0.08026 0.1243 0.92787 0.0
C683 C 0.00469 0.11644 0.82643 0.0
C684 C 0.00319 0.11167 0.89173 0.0
H685 H 0.03337 0.12984 0.74784 0.0
H686 H 0.98358 0.11501 0.79787 0.0
C687 C 0.03106 0.11379 0.92712 0.0
C688 C 0.86295 0.78086 0.6759 0.0
C689 C 0.8612 0.75294 0.64059 0.0
H690 H 0.87322 0.83011 0.67669 0.0
C691 C 0.86623 0.75441 0.57536 0.0
H692 H 0.85891 0.78057 0.72613 0.0
C693 C 0.87487 0.78292 0.5468 0.0
C694 C 0.87822 0.81054 0.58286 0.0
H695 H 0.86508 0.73326 0.54687 0.0
H696 H 0.87989 0.78308 0.49694 0.0
C697 C 0.87114 0.80932 0.64737 0.0
C698 C 0.93958 0.12139 0.39735 0.0
C699 C 0.93824 0.12802 0.33266 0.0
H700 H 0.96849 0.10985 0.4763 0.0
C701 C 0.96586 0.12469 0.2966 0.0
H702 H 0.9188 0.12348 0.42668 0.0
C703 C 0.99446 0.11645 0.32526 0.0
C704 C 0.99603 0.11182 0.3906 0.0
H705 H 0.96561 0.12938 0.24661 0.0
H706 H 0.01558 0.11525 0.29672 0.0
C707 C 0.96813 0.1136 0.42598 0.0
C708 C 0.63585 0.2184 0.17488 0.0
C709 C 0.63758 0.24624 0.13931 0.0
H710 H 0.62579 0.16911 0.17607 0.0
C711 C 0.63264 0.24458 0.07407 0.0
H712 H 0.63982 0.21883 0.22514 0.0
C713 C 0.62415 0.21597 0.04573 0.0
C714 C 0.62089 0.18841 0.08202 0.0
H715 H 0.63377 0.26566 0.04538 0.0
H716 H 0.61923 0.21566 0.99583 0.0
C717 C 0.62783 0.18983 0.14657 0.0
C718 C 0.559 0.87878 0.89852 0.0
C719 C 0.56023 0.87173 0.834 0.0
H720 H 0.53025 0.89099 0.97729 0.0
C721 C 0.53262 0.87511 0.79793 0.0
H722 H 0.57978 0.87668 0.92784 0.0
C723 C 0.50411 0.88376 0.82648 0.0
C724 C 0.50263 0.88876 0.89172 0.0
H725 H 0.53278 0.87012 0.74805 0.0
H726 H 0.48297 0.88494 0.79797 0.0
C727 C 0.53054 0.88697 0.92705 0.0
C728 C 0.86639 0.24416 0.9268 0.0
C729 C 0.8612 0.24549 0.86161 0.0
H730 H 0.8801 0.21561 0.00537 0.0
C731 C 0.86263 0.21746 0.82659 0.0
H732 H 0.86549 0.2654 0.95505 0.0
C733 C 0.87068 0.18901 0.85534 0.0
C734 C 0.87797 0.18792 0.91977 0.0
H735 H 0.85843 0.21764 0.7764 0.0
H736 H 0.87251 0.16814 0.82622 0.0
C737 C 0.87491 0.21566 0.95557 0.0
C738 C 0.55891 0.12098 0.6037 0.0
C739 C 0.56015 0.12807 0.6682 0.0
H740 H 0.53013 0.10873 0.52497 0.0
C741 C 0.53254 0.12474 0.70429 0.0
H742 H 0.57968 0.12306 0.57436 0.0
C743 C 0.50403 0.11608 0.67578 0.0
C744 C 0.50253 0.11103 0.61056 0.0
H745 H 0.53272 0.12976 0.75416 0.0
H746 H 0.48289 0.11493 0.7043 0.0
C747 C 0.53043 0.11279 0.5752 0.0
C748 C 0.63306 0.75434 0.4269 0.0
C749 C 0.63814 0.75285 0.36168 0.0
H750 H 0.61953 0.78307 0.50532 0.0
C751 C 0.63659 0.78079 0.32641 0.0
H752 H 0.63406 0.73317 0.45535 0.0
C753 C 0.62858 0.80931 0.35496 0.0
C754 C 0.62146 0.81056 0.41946 0.0
H755 H 0.64068 0.7805 0.27619 0.0
H756 H 0.62667 0.83011 0.32568 0.0
C757 C 0.62459 0.7829 0.45547 0.0
C758 C 0.93956 0.8781 0.10458 0.0
C759 C 0.9383 0.87125 0.16919 0.0
H760 H 0.96834 0.89013 0.02574 0.0
C761 C 0.96589 0.87475 0.20527 0.0
H762 H 0.91879 0.87589 0.07524 0.0
C763 C 0.9944 0.88335 0.17668 0.0
C764 C 0.99592 0.88818 0.1114 0.0
H765 H 0.9657 0.86991 0.2552 0.0
H766 H 0.01552 0.88465 0.20523 0.0
C767 C 0.96803 0.88624 0.07602 0.0
C768 C 0.63551 0.71872 0.82588 0.0
C769 C 0.6373 0.74655 0.86147 0.0
H770 H 0.62548 0.66942 0.82473 0.0
C771 C 0.63247 0.74489 0.92674 0.0
H772 H 0.6394 0.71915 0.7756 0.0
C773 C 0.62405 0.71627 0.95511 0.0
C774 C 0.62074 0.68872 0.91883 0.0
H775 H 0.63365 0.76596 0.95543 0.0
H776 H 0.61922 0.71595 0.00505 0.0
C777 C 0.62756 0.69014 0.85422 0.0
C778 C 0.53049 0.38645 0.07395 0.0
C779 C 0.50267 0.38846 0.10954 0.0
H780 H 0.57969 0.37595 0.0728 0.0
C781 C 0.5043 0.38362 0.17481 0.0
H782 H 0.53009 0.39034 0.02367 0.0
C783 C 0.53284 0.37493 0.20317 0.0
C784 C 0.56035 0.37135 0.16688 0.0
H785 H 0.48324 0.38496 0.20351 0.0
H786 H 0.53311 0.37009 0.2531 0.0
C787 C 0.55899 0.37822 0.10229 0.0
C788 C 0.86529 0.2539 0.42404 0.0
C789 C 0.86077 0.25224 0.35867 0.0
H790 H 0.8786 0.2827 0.50251 0.0
C791 C 0.86318 0.28 0.32302 0.0
H792 H 0.86363 0.23289 0.45281 0.0
C793 C 0.87147 0.30848 0.35143 0.0
C794 C 0.87799 0.30985 0.41616 0.0
H795 H 0.85956 0.27958 0.27266 0.0
H796 H 0.87405 0.32914 0.32192 0.0
C797 C 0.87403 0.28241 0.45247 0.0
C798 C 0.96654 0.62533 0.70483 0.0
C799 C 0.93899 0.62875 0.66861 0.0
H800 H 0.01622 0.61565 0.70502 0.0
C801 C 0.94038 0.62203 0.60397 0.0
H802 H 0.96626 0.63009 0.7548 0.0
C803 C 0.96893 0.61407 0.57552 0.0
C804 C 0.99677 0.61218 0.61106 0.0
H805 H 0.91965 0.6242 0.57452 0.0
H806 H 0.96934 0.61027 0.52522 0.0
C807 C 0.99514 0.61691 0.67636 0.0
C808 C 0.63243 0.2545 0.57442 0.0
C809 C 0.63737 0.25302 0.63968 0.0
H810 H 0.61906 0.28323 0.49588 0.0
C811 C 0.63567 0.28095 0.67497 0.0
H812 H 0.63353 0.23334 0.54596 0.0
C813 C 0.6277 0.30946 0.64635 0.0
C814 C 0.62077 0.31071 0.58178 0.0
H815 H 0.63964 0.28066 0.72522 0.0
H816 H 0.62569 0.33026 0.67563 0.0
C817 C 0.62399 0.28305 0.54578 0.0
C818 C 0.96861 0.38544 0.92575 0.0
C819 C 0.99649 0.38746 0.89036 0.0
H820 H 0.91942 0.37486 0.92661 0.0
C821 C 0.99499 0.38249 0.82511 0.0
H822 H 0.96891 0.38941 0.97601 0.0
C823 C 0.96652 0.3737 0.79659 0.0
C824 C 0.93894 0.37016 0.83269 0.0
H825 H 0.01611 0.38383 0.79656 0.0
H826 H 0.96635 0.36876 0.74669 0.0
C827 C 0.94017 0.37712 0.89725 0.0
C828 C 0.86328 0.71855 0.1772 0.0
C829 C 0.86119 0.74642 0.14179 0.0
H830 H 0.87383 0.66936 0.178 0.0
C831 C 0.86594 0.74489 0.07649 0.0
H832 H 0.85947 0.71888 0.22751 0.0
C833 C 0.8746 0.7164 0.0479 0.0
C834 C 0.87825 0.68884 0.084 0.0
H835 H 0.86452 0.76599 0.04792 0.0
H836 H 0.87937 0.71621 0.99794 0.0
C837 C 0.87149 0.6901 0.14864 0.0
C838 C 0.53298 0.62475 0.29723 0.0
C839 C 0.56059 0.62811 0.33331 0.0
H840 H 0.48332 0.61497 0.29725 0.0
C841 C 0.55934 0.62109 0.39784 0.0
H842 H 0.53315 0.62972 0.24735 0.0
C843 C 0.53086 0.61294 0.42636 0.0
C844 C 0.50295 0.61116 0.39101 0.0
H845 H 0.58012 0.62319 0.42717 0.0
H846 H 0.53055 0.60895 0.47661 0.0
C847 C 0.50445 0.61614 0.32577 0.0
C848 C 0.37512 0.28315 0.0463 0.0
C849 C 0.37843 0.31074 0.08246 0.0
H850 H 0.36559 0.23343 0.04622 0.0
C851 C 0.37168 0.30937 0.1471 0.0
H852 H 0.3799 0.28341 0.99635 0.0
C853 C 0.36379 0.28081 0.17559 0.0
C854 C 0.36201 0.25293 0.14012 0.0
H855 H 0.37376 0.33012 0.1765 0.0
H856 H 0.35995 0.28043 0.22588 0.0
C857 C 0.36677 0.25454 0.07483 0.0
C858 C 0.44024 0.621 0.89788 0.0
C859 C 0.43898 0.62815 0.83341 0.0
H860 H 0.46904 0.60861 0.9765 0.0
C861 C 0.46656 0.62476 0.79724 0.0
H862 H 0.41949 0.62311 0.92727 0.0
C863 C 0.49507 0.616 0.82566 0.0
C864 C 0.4966 0.6109 0.89086 0.0
H865 H 0.46637 0.62982 0.7474 0.0
H866 H 0.51619 0.61482 0.79708 0.0
C867 C 0.46871 0.6127 0.92628 0.0
C868 C 0.12554 0.71689 0.54812 0.0
C869 C 0.12184 0.68933 0.58421 0.0
H870 H 0.13556 0.7665 0.54818 0.0
C871 C 0.12852 0.6906 0.64888 0.0
H872 H 0.12084 0.71669 0.49812 0.0
C873 C 0.13665 0.71907 0.67749 0.0
C874 C 0.13876 0.74694 0.64209 0.0
H875 H 0.12615 0.66986 0.67823 0.0
H876 H 0.14038 0.7194 0.72782 0.0
C877 C 0.13413 0.7454 0.57675 0.0
C878 C 0.05945 0.37768 0.39653 0.0
C879 C 0.06086 0.37087 0.33193 0.0
H880 H 0.03046 0.38946 0.47522 0.0
C881 C 0.0333 0.37419 0.29568 0.0
H882 H 0.08018 0.37559 0.426 0.0
C883 C 0.00468 0.38258 0.32411 0.0
C884 C 0.00303 0.38737 0.38939 0.0
H885 H 0.0336 0.36936 0.24574 0.0
H886 H 0.98359 0.38375 0.29544 0.0
C887 C 0.03088 0.38561 0.42493 0.0
C888 C 0.37517 0.71645 0.45519 0.0
C889 C 0.37858 0.68889 0.41896 0.0
H890 H 0.36541 0.76611 0.45541 0.0
C891 C 0.37176 0.69026 0.35436 0.0
H892 H 0.38 0.71618 0.50513 0.0
C893 C 0.3637 0.7188 0.32595 0.0
C894 C 0.36183 0.74664 0.36148 0.0
H895 H 0.37391 0.66953 0.32491 0.0
H896 H 0.35982 0.71919 0.27567 0.0
C897 C 0.36666 0.74503 0.42676 0.0
C898 C 0.00476 0.61666 0.17667 0.0
C899 C 0.00323 0.61174 0.11141 0.0
H900 H 0.03349 0.6302 0.2551 0.0
C901 C 0.03112 0.6136 0.07602 0.0
H902 H 0.98364 0.61543 0.20522 0.0
C903 C 0.05961 0.62175 0.10452 0.0
C904 C 0.06088 0.62869 0.16908 0.0
H905 H 0.03079 0.60965 0.02575 0.0
H906 H 0.08036 0.6239 0.07515 0.0
C907 C 0.03329 0.62527 0.20519 0.0
C908 C 0.13377 0.25483 0.92578 0.0
C909 C 0.13848 0.25323 0.86047 0.0
H910 H 0.12041 0.28363 0.00422 0.0
C911 C 0.13648 0.28107 0.82495 0.0
H912 H 0.13513 0.23376 0.95443 0.0
C913 C 0.12835 0.30957 0.85341 0.0
C914 C 0.12158 0.31091 0.91804 0.0
H915 H 0.14028 0.28068 0.77465 0.0
H916 H 0.12605 0.33029 0.82397 0.0
C917 C 0.12518 0.28338 0.95426 0.0
C918 C 0.46667 0.37488 0.70385 0.0
C919 C 0.439 0.37163 0.66788 0.0
H920 H 0.51635 0.38455 0.70364 0.0
C921 C 0.44018 0.37878 0.6034 0.0
H922 H 0.46655 0.3698 0.75369 0.0
C923 C 0.46864 0.38692 0.57479 0.0
C924 C 0.4966 0.38858 0.61001 0.0
H925 H 0.41937 0.37678 0.57415 0.0
H926 H 0.4689 0.39102 0.52458 0.0
C927 C 0.49517 0.38348 0.67522 0.0
C928 C 0.16247 0.11118 0.57084 0.0
C929 C 0.13728 0.08977 0.5681 0.0
H930 H 0.19113 0.14045 0.63015 0.0
C931 C 0.12444 0.07789 0.62411 0.0
H932 H 0.17232 0.12104 0.52818 0.0
C933 C 0.13587 0.08815 0.68222 0.0
C934 C 0.15951 0.11125 0.68487 0.0
H935 H 0.10473 0.0616 0.62286 0.0
H936 H 0.12466 0.07979 0.72483 0.0
C937 C 0.17312 0.1223 0.62893 0.0
C938 C 0.17295 0.87751 0.8741 0.0
C939 C 0.15971 0.88887 0.81805 0.0
H940 H 0.17182 0.8786 0.97484 0.0
C941 C 0.13643 0.91234 0.82055 0.0
H942 H 0.19068 0.8591 0.87301 0.0
C943 C 0.12495 0.92267 0.87858 0.0
C944 C 0.13742 0.91049 0.93467 0.0
H945 H 0.1255 0.92095 0.77785 0.0
H946 H 0.1055 0.93926 0.87969 0.0
C947 C 0.16228 0.88869 0.93212 0.0
C948 C 0.37315 0.9232 0.12447 0.0
C949 C 0.36115 0.91036 0.06856 0.0
H950 H 0.37263 0.92184 0.22522 0.0
C951 C 0.33711 0.88769 0.07139 0.0
H952 H 0.39201 0.94046 0.12313 0.0
C953 C 0.32683 0.87634 0.12955 0.0
C954 C 0.33965 0.88837 0.18546 0.0
H955 H 0.32798 0.87708 0.0288 0.0
H956 H 0.30977 0.8573 0.13087 0.0
C957 C 0.36204 0.91267 0.18264 0.0
C958 C 0.33744 0.11286 0.43131 0.0
C959 C 0.36088 0.08956 0.4342 0.0
H960 H 0.3107 0.1437 0.3717 0.0
C961 C 0.37233 0.07617 0.37836 0.0
H962 H 0.32876 0.12389 0.47384 0.0
C963 C 0.36129 0.08673 0.32015 0.0
C964 C 0.33954 0.11162 0.31722 0.0
H965 H 0.39073 0.05842 0.37975 0.0
H966 H 0.37147 0.07709 0.27759 0.0
C967 C 0.32725 0.12422 0.3731 0.0
C968 C 0.82644 0.87639 0.37402 0.0
C969 C 0.83933 0.88812 0.31795 0.0
H970 H 0.82785 0.87723 0.47476 0.0
C971 C 0.86218 0.91202 0.32043 0.0
H972 H 0.80905 0.85765 0.37294 0.0
C973 C 0.87362 0.92241 0.37844 0.0
C974 C 0.86154 0.90985 0.43453 0.0
H975 H 0.87282 0.92093 0.27771 0.0
H976 H 0.89278 0.93934 0.37952 0.0
C977 C 0.83707 0.88762 0.43203 0.0
C978 C 0.83653 0.1095 0.07066 0.0
C979 C 0.86181 0.08819 0.06826 0.0
H980 H 0.80769 0.13879 0.12955 0.0
C981 C 0.87458 0.07642 0.12442 0.0
H982 H 0.82674 0.11927 0.02786 0.0
C983 C 0.86301 0.08674 0.18238 0.0
C984 C 0.83931 0.10979 0.18469 0.0
H985 H 0.89434 0.0602 0.12343 0.0
H986 H 0.87418 0.07851 0.22512 0.0
C987 C 0.82574 0.12068 0.12859 0.0
C988 C 0.63797 0.08674 0.81994 0.0
C989 C 0.65965 0.1117 0.81715 0.0
H990 H 0.60861 0.05826 0.87936 0.0
C991 C 0.67187 0.12427 0.87311 0.0
H992 H 0.62785 0.07711 0.77732 0.0
C993 C 0.6617 0.11281 0.93125 0.0
C994 C 0.63835 0.08941 0.934 0.0
H995 H 0.68837 0.1438 0.87182 0.0
H996 H 0.67034 0.12381 0.97385 0.0
C997 C 0.62695 0.07607 0.87808 0.0
C998 C 0.62616 0.92281 0.62409 0.0
C999 C 0.63827 0.90998 0.56825 0.0
H1000 H 0.62657 0.9215 0.72484 0.0
C1001 C 0.66239 0.8874 0.57124 0.0
H1002 H 0.60724 0.93999 0.62263 0.0
C1003 C 0.67265 0.87613 0.62948 0.0
C1004 C 0.65973 0.88814 0.6853 0.0
H1005 H 0.67161 0.8768 0.52871 0.0
H1006 H 0.68977 0.85715 0.63092 0.0
C1007 C 0.63725 0.91236 0.68233 0.0
C1008 C 0.66184 0.61289 0.06971 0.0
C1009 C 0.63841 0.58957 0.0669 0.0
H1010 H 0.68867 0.64371 0.12922 0.0
C1011 C 0.62703 0.57618 0.1228 0.0
H1012 H 0.67047 0.62393 0.02714 0.0
C1013 C 0.63816 0.58673 0.18097 0.0
C1014 C 0.65992 0.61161 0.18383 0.0
H1015 H 0.60864 0.55842 0.12148 0.0
H1016 H 0.62805 0.57706 0.22357 0.0
C1017 C 0.67211 0.62424 0.12789 0.0
C1018 C 0.66206 0.38722 0.42966 0.0
C1019 C 0.63797 0.40985 0.43247 0.0
H1020 H 0.6895 0.3569 0.37019 0.0
C1021 C 0.62596 0.42264 0.37654 0.0
H1022 H 0.67121 0.37664 0.47226 0.0
C1023 C 0.63712 0.41214 0.31836 0.0
C1024 C 0.65959 0.38791 0.31556 0.0
H1025 H 0.60707 0.43987 0.37785 0.0
H1026 H 0.62653 0.42129 0.27577 0.0
C1027 C 0.6724 0.3759 0.37149 0.0
C1028 C 0.82796 0.37336 0.62647 0.0
C1029 C 0.83978 0.38634 0.68242 0.0
H1030 H 0.82988 0.37342 0.52575 0.0
C1031 C 0.86115 0.41156 0.67952 0.0
H1032 H 0.8117 0.35363 0.62783 0.0
C1033 C 0.87226 0.42213 0.62136 0.0
C1034 C 0.86123 0.40842 0.56549 0.0
H1035 H 0.87096 0.42152 0.72213 0.0
H1036 H 0.89036 0.44018 0.62005 0.0
C1037 C 0.8382 0.38471 0.56829 0.0
C1038 C 0.87384 0.57701 0.87846 0.0
C1039 C 0.86177 0.58974 0.93441 0.0
H1040 H 0.87315 0.57829 0.7777 0.0
C1041 C 0.83748 0.61216 0.93164 0.0
H1042 H 0.89287 0.55995 0.87974 0.0
C1043 C 0.82699 0.62335 0.8735 0.0
C1044 C 0.83984 0.61141 0.81754 0.0
H1045 H 0.82828 0.62268 0.97426 0.0
H1046 H 0.80972 0.6422 0.87222 0.0
C1047 C 0.86253 0.58737 0.82031 0.0
C1048 C 0.36082 0.41298 0.82015 0.0
C1049 C 0.33936 0.38785 0.8172 0.0
H1050 H 0.39007 0.44151 0.87974 0.0
C1051 C 0.32733 0.37501 0.8731 0.0
H1052 H 0.37079 0.42282 0.77759 0.0
C1053 C 0.33753 0.38637 0.93132 0.0
C1054 C 0.3607 0.40993 0.93419 0.0
H1055 H 0.311 0.35534 0.87169 0.0
H1056 H 0.32907 0.37514 0.97383 0.0
C1057 C 0.37187 0.42356 0.87836 0.0
C1058 C 0.32753 0.62468 0.62837 0.0
C1059 C 0.3397 0.61209 0.68436 0.0
H1060 H 0.3292 0.62431 0.52764 0.0
C1061 C 0.36148 0.58721 0.68159 0.0
H1062 H 0.31097 0.64415 0.62964 0.0
C1063 C 0.37262 0.57662 0.62346 0.0
C1064 C 0.36124 0.58997 0.56752 0.0
H1065 H 0.37157 0.57758 0.72423 0.0
H1066 H 0.39101 0.55887 0.62221 0.0
C1067 C 0.33782 0.61329 0.57024 0.0
C1068 C 0.12662 0.5773 0.37886 0.0
C1069 C 0.13843 0.59027 0.43481 0.0
H1070 H 0.12742 0.57847 0.27811 0.0
C1071 C 0.16241 0.61302 0.43208 0.0
H1072 H 0.10781 0.55999 0.38013 0.0
C1073 C 0.17282 0.62429 0.37394 0.0
C1074 C 0.1602 0.61211 0.31797 0.0
H1075 H 0.17139 0.62373 0.47469 0.0
H1076 H 0.18982 0.64338 0.37266 0.0
C1077 C 0.13786 0.58775 0.32073 0.0
C1078 C 0.17259 0.37597 0.12725 0.0
C1079 C 0.16005 0.38812 0.18331 0.0
H1080 H 0.17101 0.37658 0.02651 0.0
C1081 C 0.1377 0.41248 0.18072 0.0
H1082 H 0.1896 0.35689 0.12839 0.0
C1083 C 0.12637 0.42295 0.12267 0.0
C1084 C 0.13811 0.41001 0.06663 0.0
H1085 H 0.12733 0.42175 0.22342 0.0
H1086 H 0.10757 0.44027 0.12154 0.0
C1087 C 0.16209 0.38726 0.06919 0.0
loop_
_geom_bond_atom_site_label_1
_geom_bond_atom_site_label_2
_geom_bond_distance
_geom_bond_site_symmetry_2
_ccdc_geom_bond_type
Co0 O1 2.216 . S
Co0 O2 2.091 . S
Co0 O4 2.004 . S
Co0 O10 2.021 . S
Co0 O12 2.137 . S
Co0 O13 2.244 . S
O1 Co0 2.216 . S
O1 C8 1.247 . S
O2 Co0 2.091 . S
O2 C8 1.261 . S
C3 O12 1.247 . S
C3 O13 1.272 . S
O4 Co0 2.004 . S
O4 C9 1.259 . S
Co5 O6 2.061 . S
Co5 O11 2.052 . S
Co5 O13 2.135 . S
O6 Co5 2.061 . S
O6 C9 1.235 . S
C7 O10 1.238 . S
C7 O11 1.241 . S
C8 O1 1.247 . S
C8 O2 1.261 . S
C9 O4 1.259 . S
C9 O6 1.235 . S
O10 Co0 2.021 . S
O10 C7 1.238 . S
O11 Co5 2.052 . S
O11 C7 1.241 . S
O12 Co0 2.137 . S
O12 C3 1.247 . S
O13 Co0 2.244 . S
O13 C3 1.272 . S
O13 Co5 2.135 . S
Co14 O15 2.216 . S
Co14 O16 2.091 . S
Co14 O18 2.004 . S
Co14 O24 2.021 . S
Co14 O26 2.137 . S
Co14 O27 2.244 . S
O15 Co14 2.216 . S
O15 C22 1.247 . S
O16 Co14 2.091 . S
O16 C22 1.261 . S
C17 O26 1.247 . S
C17 O27 1.272 . S
O18 Co14 2.004 . S
O18 C23 1.259 . S
Co19 O20 2.061 . S
Co19 O25 2.052 . S
Co19 O27 2.135 . S
O20 Co19 2.061 . S
O20 C23 1.235 . S
C21 O24 1.238 . S
C21 O25 1.241 . S
C22 O15 1.247 . S
C22 O16 1.261 . S
C23 O18 1.259 . S
C23 O20 1.235 . S
O24 Co14 2.021 . S
O24 C21 1.238 . S
O25 Co19 2.052 . S
O25 C21 1.241 . S
O26 Co14 2.137 . S
O26 C17 1.247 . S
O27 Co14 2.244 . S
O27 C17 1.272 . S
O27 Co19 2.135 . S
Co28 O29 2.216 . S
Co28 O30 2.091 . S
Co28 O32 2.004 . S
Co28 O38 2.021 . S
Co28 O40 2.137 . S
Co28 O41 2.244 . S
O29 Co28 2.216 . S
O29 C36 1.247 . S
O30 Co28 2.091 . S
O30 C36 1.261 . S
C31 O40 1.247 1_554 S
C31 O41 1.272 1_554 S
O32 Co28 2.004 . S
O32 C37 1.259 . S
Co33 O34 2.061 . S
Co33 O39 2.052 . S
Co33 O41 2.135 . S
O34 Co33 2.061 . S
O34 C37 1.235 . S
C35 O38 1.238 . S
C35 O39 1.241 . S
C36 O29 1.247 . S
C36 O30 1.261 . S
C37 O32 1.259 . S
C37 O34 1.235 . S
O38 Co28 2.021 . S
O38 C35 1.238 . S
O39 Co33 2.052 . S
O39 C35 1.241 . S
O40 Co28 2.137 . S
O40 C31 1.247 1_556 S
O41 Co28 2.244 . S
O41 C31 1.272 1_556 S
O41 Co33 2.135 . S
Co42 O43 2.216 . S
Co42 O44 2.091 . S
Co42 O46 2.004 . S
Co42 O52 2.021 . S
Co42 O54 2.137 . S
Co42 O55 2.244 . S
O43 Co42 2.216 . S
O43 C50 1.247 . S
O44 Co42 2.091 . S
O44 C50 1.261 . S
C45 O54 1.247 . S
C45 O55 1.272 . S
O46 Co42 2.004 . S
O46 C51 1.259 . S
Co47 O48 2.061 . S
Co47 O53 2.052 . S
Co47 O55 2.135 . S
O48 Co47 2.061 . S
O48 C51 1.235 . S
C49 O52 1.238 . S
C49 O53 1.241 . S
C50 O43 1.247 . S
C50 O44 1.261 . S
C51 O46 1.259 . S
C51 O48 1.235 . S
O52 Co42 2.021 . S
O52 C49 1.238 . S
O53 Co47 2.052 . S
O53 C49 1.241 . S
O54 Co42 2.137 . S
O54 C45 1.247 . S
O55 Co42 2.244 . S
O55 C45 1.272 . S
O55 Co47 2.135 . S
Co56 O57 2.216 . S
Co56 O58 2.091 . S
Co56 O60 2.004 . S
Co56 O66 2.021 . S
Co56 O68 2.137 . S
Co56 O69 2.244 . S
O57 Co56 2.216 . S
O57 C64 1.247 . S
O58 Co56 2.091 . S
O58 C64 1.261 . S
C59 O68 1.247 1_556 S
C59 O69 1.272 1_556 S
O60 Co56 2.004 . S
O60 C65 1.259 . S
Co61 O62 2.061 . S
Co61 O67 2.052 . S
Co61 O69 2.135 . S
O62 Co61 2.061 . S
O62 C65 1.235 . S
C63 O66 1.238 . S
C63 O67 1.241 . S
C64 O57 1.247 . S
C64 O58 1.261 . S
C65 O60 1.259 . S
C65 O62 1.235 . S
O66 Co56 2.021 . S
O66 C63 1.238 . S
O67 Co61 2.052 . S
O67 C63 1.241 . S
O68 Co56 2.137 . S
O68 C59 1.247 1_554 S
O69 Co56 2.244 . S
O69 C59 1.272 1_554 S
O69 Co61 2.135 . S
Co70 O71 2.216 . S
Co70 O72 2.091 . S
Co70 O74 2.004 . S
Co70 O80 2.021 . S
Co70 O82 2.137 . S
Co70 O83 2.244 . S
O71 Co70 2.216 . S
O71 C78 1.247 . S
O72 Co70 2.091 . S
O72 C78 1.261 . S
C73 O82 1.247 . S
C73 O83 1.272 . S
O74 Co70 2.004 . S
O74 C79 1.259 . S
Co75 O76 2.061 . S
Co75 O81 2.052 . S
Co75 O83 2.135 . S
O76 Co75 2.061 . S
O76 C79 1.235 . S
C77 O80 1.238 . S
C77 O81 1.241 . S
C78 O71 1.247 . S
C78 O72 1.261 . S
C79 O74 1.259 . S
C79 O76 1.235 . S
O80 Co70 2.021 . S
O80 C77 1.238 . S
O81 Co75 2.052 . S
O81 C77 1.241 . S
O82 Co70 2.137 . S
O82 C73 1.247 . S
O83 Co70 2.244 . S
O83 C73 1.272 . S
O83 Co75 2.135 . S
Co84 O85 2.216 . S
Co84 O86 2.091 . S
Co84 O88 2.004 . S
Co84 O94 2.021 . S
Co84 O96 2.137 . S
Co84 O97 2.244 . S
O85 Co84 2.216 . S
O85 C92 1.247 . S
O86 Co84 2.091 . S
O86 C92 1.261 . S
C87 O96 1.247 . S
C87 O97 1.272 . S
O88 Co84 2.004 . S
O88 C93 1.259 . S
Co89 O90 2.061 . S
Co89 O95 2.052 . S
Co89 O97 2.135 . S
O90 Co89 2.061 . S
O90 C93 1.235 . S
C91 O94 1.238 . S
C91 O95 1.241 . S
C92 O85 1.247 . S
C92 O86 1.261 . S
C93 O88 1.259 . S
C93 O90 1.235 . S
O94 Co84 2.021 . S
O94 C91 1.238 . S
O95 Co89 2.052 . S
O95 C91 1.241 . S
O96 Co84 2.137 . S
O96 C87 1.247 . S
O97 Co84 2.244 . S
O97 C87 1.272 . S
O97 Co89 2.135 . S
Co98 O99 2.216 . S
Co98 O100 2.091 . S
Co98 O102 2.004 . S
Co98 O108 2.021 . S
Co98 O110 2.137 . S
Co98 O111 2.244 . S
O99 Co98 2.216 . S
O99 C106 1.247 . S
O100 Co98 2.091 . S
O100 C106 1.261 . S
C101 O110 1.247 . S
C101 O111 1.272 . S
O102 Co98 2.004 . S
O102 C107 1.259 . S
Co103 O104 2.061 . S
Co103 O109 2.052 . S
Co103 O111 2.135 . S
O104 Co103 2.061 . S
O104 C107 1.235 . S
C105 O108 1.238 . S
C105 O109 1.241 . S
C106 O99 1.247 . S
C106 O100 1.261 . S
C107 O102 1.259 . S
C107 O104 1.235 . S
O108 Co98 2.021 . S
O108 C105 1.238 . S
O109 Co103 2.052 . S
O109 C105 1.241 . S
O110 Co98 2.137 . S
O110 C101 1.247 . S
O111 Co98 2.244 . S
O111 C101 1.272 . S
O111 Co103 2.135 . S
Co112 O113 2.216 . S
Co112 O114 2.091 . S
Co112 O116 2.004 . S
Co112 O122 2.021 . S
Co112 O124 2.137 . S
Co112 O125 2.244 . S
O113 Co112 2.216 . S
O113 C120 1.247 . S
O114 Co112 2.091 . S
O114 C120 1.261 . S
C115 O124 1.247 . S
C115 O125 1.272 . S
O116 Co112 2.004 . S
O116 C121 1.259 . S
Co117 O118 2.061 . S
Co117 O123 2.052 . S
Co117 O125 2.135 . S
O118 Co117 2.061 . S
O118 C121 1.235 . S
C119 O122 1.238 . S
C119 O123 1.241 . S
C120 O113 1.247 . S
C120 O114 1.261 . S
C121 O116 1.259 . S
C121 O118 1.235 . S
O122 Co112 2.021 . S
O122 C119 1.238 . S
O123 Co117 2.052 . S
O123 C119 1.241 . S
O124 Co112 2.137 . S
O124 C115 1.247 . S
O125 Co112 2.244 . S
O125 C115 1.272 . S
O125 Co117 2.135 . S
Co126 O127 2.216 . S
Co126 O128 2.091 . S
Co126 O130 2.004 . S
Co126 O136 2.021 . S
Co126 O138 2.137 . S
Co126 O139 2.244 . S
O127 Co126 2.216 . S
O127 C134 1.247 . S
O128 Co126 2.091 . S
O128 C134 1.261 . S
C129 O138 1.247 . S
C129 O139 1.272 . S
O130 Co126 2.004 . S
O130 C135 1.259 . S
Co131 O132 2.061 . S
Co131 O137 2.052 . S
Co131 O139 2.135 . S
O132 Co131 2.061 . S
O132 C135 1.235 . S
C133 O136 1.238 . S
C133 O137 1.241 . S
C134 O127 1.247 . S
C134 O128 1.261 . S
C135 O130 1.259 . S
C135 O132 1.235 . S
O136 Co126 2.021 . S
O136 C133 1.238 . S
O137 Co131 2.052 . S
O137 C133 1.241 . S
O138 Co126 2.137 . S
O138 C129 1.247 . S
O139 Co126 2.244 . S
O139 C129 1.272 . S
O139 Co131 2.135 . S
Co140 O141 2.216 . S
Co140 O142 2.091 . S
Co140 O144 2.004 . S
Co140 O150 2.021 . S
Co140 O152 2.137 . S
Co140 O153 2.244 . S
O141 Co140 2.216 . S
O141 C148 1.247 . S
O142 Co140 2.091 . S
O142 C148 1.261 . S
C143 O152 1.247 1_556 S
C143 O153 1.272 1_556 S
O144 Co140 2.004 . S
O144 C149 1.259 . S
Co145 O146 2.061 . S
Co145 O151 2.052 . S
Co145 O153 2.135 . S
O146 Co145 2.061 . S
O146 C149 1.235 . S
C147 O150 1.238 . S
C147 O151 1.241 . S
C148 O141 1.247 . S
C148 O142 1.261 . S
C149 O144 1.259 . S
C149 O146 1.235 . S
O150 Co140 2.021 . S
O150 C147 1.238 . S
O151 Co145 2.052 . S
O151 C147 1.241 . S
O152 Co140 2.137 . S
O152 C143 1.247 1_554 S
O153 Co140 2.244 . S
O153 C143 1.272 1_554 S
O153 Co145 2.135 . S
Co154 O155 2.216 . S
Co154 O156 2.091 . S
Co154 O158 2.004 . S
Co154 O164 2.021 . S
Co154 O166 2.137 . S
Co154 O167 2.244 . S
O155 Co154 2.216 . S
O155 C162 1.247 . S
O156 Co154 2.091 . S
O156 C162 1.261 . S
C157 O166 1.247 . S
C157 O167 1.272 . S
O158 Co154 2.004 . S
O158 C163 1.259 . S
Co159 O160 2.061 . S
Co159 O165 2.052 . S
Co159 O167 2.135 . S
O160 Co159 2.061 . S
O160 C163 1.235 . S
C161 O164 1.238 . S
C161 O165 1.241 . S
C162 O155 1.247 . S
C162 O156 1.261 . S
C163 O158 1.259 . S
C163 O160 1.235 . S
O164 Co154 2.021 . S
O164 C161 1.238 . S
O165 Co159 2.052 . S
O165 C161 1.241 . S
O166 Co154 2.137 . S
O166 C157 1.247 . S
O167 Co154 2.244 . S
O167 C157 1.272 . S
O167 Co159 2.135 . S
Co168 O169 2.216 . S
Co168 O170 2.091 . S
Co168 O172 2.004 . S
Co168 O178 2.021 . S
Co168 O180 2.137 . S
Co168 O181 2.244 . S
O169 Co168 2.216 . S
O169 C176 1.247 . S
O170 Co168 2.091 . S
O170 C176 1.261 . S
C171 O180 1.247 1_554 S
C171 O181 1.272 1_554 S
O172 Co168 2.004 . S
O172 C177 1.259 . S
Co173 O174 2.061 . S
Co173 O179 2.052 . S
Co173 O181 2.135 . S
O174 Co173 2.061 . S
O174 C177 1.235 . S
C175 O178 1.238 . S
C175 O179 1.241 . S
C176 O169 1.247 . S
C176 O170 1.261 . S
C177 O172 1.259 . S
C177 O174 1.235 . S
O178 Co168 2.021 . S
O178 C175 1.238 . S
O179 Co173 2.052 . S
O179 C175 1.241 . S
O180 Co168 2.137 . S
O180 C171 1.247 1_556 S
O181 Co168 2.244 . S
O181 C171 1.272 1_556 S
O181 Co173 2.135 . S
Co182 O183 2.216 . S
Co182 O184 2.091 . S
Co182 O186 2.004 . S
Co182 O192 2.021 . S
Co182 O194 2.137 . S
Co182 O195 2.244 . S
O183 Co182 2.216 . S
O183 C190 1.247 . S
O184 Co182 2.091 . S
O184 C190 1.261 . S
C185 O194 1.247 . S
C185 O195 1.272 . S
O186 Co182 2.004 . S
O186 C191 1.259 . S
Co187 O188 2.061 . S
Co187 O193 2.052 . S
Co187 O195 2.135 . S
O188 Co187 2.061 . S
O188 C191 1.235 . S
C189 O192 1.238 . S
C189 O193 1.241 . S
C190 O183 1.247 . S
C190 O184 1.261 . S
C191 O186 1.259 . S
C191 O188 1.235 . S
O192 Co182 2.021 . S
O192 C189 1.238 . S
O193 Co187 2.052 . S
O193 C189 1.241 . S
O194 Co182 2.137 . S
O194 C185 1.247 . S
O195 Co182 2.244 . S
O195 C185 1.272 . S
O195 Co187 2.135 . S
Co196 O197 2.216 . S
Co196 O198 2.091 . S
Co196 O200 2.004 . S
Co196 O206 2.021 . S
Co196 O208 2.137 . S
Co196 O209 2.244 . S
O197 Co196 2.216 . S
O197 C204 1.247 . S
O198 Co196 2.091 . S
O198 C204 1.261 . S
C199 O208 1.247 . S
C199 O209 1.272 . S
O200 Co196 2.004 . S
O200 C205 1.259 . S
Co201 O202 2.061 . S
Co201 O207 2.052 . S
Co201 O209 2.135 . S
O202 Co201 2.061 . S
O202 C205 1.235 . S
C203 O206 1.238 . S
C203 O207 1.241 . S
C204 O197 1.247 . S
C204 O198 1.261 . S
C205 O200 1.259 . S
C205 O202 1.235 . S
O206 Co196 2.021 . S
O206 C203 1.238 . S
O207 Co201 2.052 . S
O207 C203 1.241 . S
O208 Co196 2.137 . S
O208 C199 1.247 . S
O209 Co196 2.244 . S
O209 C199 1.272 . S
O209 Co201 2.135 . S
Co210 O211 2.216 . S
Co210 O212 2.091 . S
Co210 O214 2.004 . S
Co210 O220 2.021 . S
Co210 O222 2.137 . S
Co210 O223 2.244 . S
O211 Co210 2.216 . S
O211 C218 1.247 . S
O212 Co210 2.091 . S
O212 C218 1.261 . S
C213 O222 1.247 . S
C213 O223 1.272 . S
O214 Co210 2.004 . S
O214 C219 1.259 . S
Co215 O216 2.061 . S
Co215 O221 2.052 . S
Co215 O223 2.135 . S
O216 Co215 2.061 . S
O216 C219 1.235 . S
C217 O220 1.238 . S
C217 O221 1.241 . S
C218 O211 1.247 . S
C218 O212 1.261 . S
C219 O214 1.259 . S
C219 O216 1.235 . S
O220 Co210 2.021 . S
O220 C217 1.238 . S
O221 Co215 2.052 . S
O221 C217 1.241 . S
O222 Co210 2.137 . S
O222 C213 1.247 . S
O223 Co210 2.244 . S
O223 C213 1.272 . S
O223 Co215 2.135 . S
Co224 O225 2.216 . S
Co224 O226 2.091 . S
Co224 O228 2.004 . S
Co224 O234 2.021 . S
Co224 O236 2.137 . S
Co224 O237 2.244 . S
O225 Co224 2.216 . S
O225 C232 1.247 . S
O226 Co224 2.091 . S
O226 C232 1.261 . S
C227 O236 1.247 1_554 S
C227 O237 1.272 1_554 S
O228 Co224 2.004 . S
O228 C233 1.259 . S
Co229 O230 2.061 . S
Co229 O235 2.052 . S
Co229 O237 2.135 . S
O230 Co229 2.061 . S
O230 C233 1.235 . S
C231 O234 1.238 . S
C231 O235 1.241 . S
C232 O225 1.247 . S
C232 O226 1.261 . S
C233 O228 1.259 . S
C233 O230 1.235 . S
O234 Co224 2.021 . S
O234 C231 1.238 . S
O235 Co229 2.052 . S
O235 C231 1.241 . S
O236 Co224 2.137 . S
O236 C227 1.247 1_556 S
O237 Co224 2.244 . S
O237 C227 1.272 1_556 S
O237 Co229 2.135 . S
Co238 O239 2.216 . S
Co238 O240 2.091 . S
Co238 O242 2.004 . S
Co238 O248 2.021 . S
Co238 O250 2.137 . S
Co238 O251 2.244 . S
O239 Co238 2.216 . S
O239 C246 1.247 . S
O240 Co238 2.091 . S
O240 C246 1.261 . S
C241 O250 1.247 . S
C241 O251 1.272 . S
O242 Co238 2.004 . S
O242 C247 1.259 . S
Co243 O244 2.061 . S
Co243 O249 2.052 . S
Co243 O251 2.135 . S
O244 Co243 2.061 . S
O244 C247 1.235 . S
C245 O248 1.238 . S
C245 O249 1.241 . S
C246 O239 1.247 . S
C246 O240 1.261 . S
C247 O242 1.259 . S
C247 O244 1.235 . S
O248 Co238 2.021 . S
O248 C245 1.238 . S
O249 Co243 2.052 . S
O249 C245 1.241 . S
O250 Co238 2.137 . S
O250 C241 1.247 . S
O251 Co238 2.244 . S
O251 C241 1.272 . S
O251 Co243 2.135 . S
Co252 O253 2.216 . S
Co252 O254 2.091 . S
Co252 O256 2.004 . S
Co252 O262 2.021 . S
Co252 O264 2.137 . S
Co252 O265 2.244 . S
O253 Co252 2.216 . S
O253 C260 1.247 . S
O254 Co252 2.091 . S
O254 C260 1.261 . S
C255 O264 1.247 . S
C255 O265 1.272 . S
O256 Co252 2.004 . S
O256 C261 1.259 . S
Co257 O258 2.061 . S
Co257 O263 2.052 . S
Co257 O265 2.135 . S
O258 Co257 2.061 . S
O258 C261 1.235 . S
C259 O262 1.238 . S
C259 O263 1.241 . S
C260 O253 1.247 . S
C260 O254 1.261 . S
C261 O256 1.259 . S
C261 O258 1.235 . S
O262 Co252 2.021 . S
O262 C259 1.238 . S
O263 Co257 2.052 . S
O263 C259 1.241 . S
O264 Co252 2.137 . S
O264 C255 1.247 . S
O265 Co252 2.244 . S
O265 C255 1.272 . S
O265 Co257 2.135 . S
Co266 O267 2.216 . S
Co266 O268 2.091 . S
Co266 O270 2.004 . S
Co266 O276 2.021 . S
Co266 O278 2.137 . S
Co266 O279 2.244 . S
O267 Co266 2.216 . S
O267 C274 1.247 . S
O268 Co266 2.091 . S
O268 C274 1.261 . S
C269 O278 1.247 . S
C269 O279 1.272 . S
O270 Co266 2.004 . S
O270 C275 1.259 . S
Co271 O272 2.061 . S
Co271 O277 2.052 . S
Co271 O279 2.135 . S
O272 Co271 2.061 . S
O272 C275 1.235 . S
C273 O276 1.238 . S
C273 O277 1.241 . S
C274 O267 1.247 . S
C274 O268 1.261 . S
C275 O270 1.259 . S
C275 O272 1.235 . S
O276 Co266 2.021 . S
O276 C273 1.238 . S
O277 Co271 2.052 . S
O277 C273 1.241 . S
O278 Co266 2.137 . S
O278 C269 1.247 . S
O279 Co266 2.244 . S
O279 C269 1.272 . S
O279 Co271 2.135 . S
Co280 O281 2.216 . S
Co280 O282 2.091 . S
Co280 O284 2.004 . S
Co280 O290 2.021 . S
Co280 O292 2.137 . S
Co280 O293 2.244 . S
O281 Co280 2.216 . S
O281 C288 1.247 . S
O282 Co280 2.091 . S
O282 C288 1.261 . S
C283 O292 1.247 . S
C283 O293 1.272 . S
O284 Co280 2.004 . S
O284 C289 1.259 . S
Co285 O286 2.061 . S
Co285 O291 2.052 . S
Co285 O293 2.135 . S
O286 Co285 2.061 . S
O286 C289 1.235 . S
C287 O290 1.238 . S
C287 O291 1.241 . S
C288 O281 1.247 . S
C288 O282 1.261 . S
C289 O284 1.259 . S
C289 O286 1.235 . S
O290 Co280 2.021 . S
O290 C287 1.238 . S
O291 Co285 2.052 . S
O291 C287 1.241 . S
O292 Co280 2.137 . S
O292 C283 1.247 . S
O293 Co280 2.244 . S
O293 C283 1.272 . S
O293 Co285 2.135 . S
Co294 O295 2.216 . S
Co294 O296 2.091 . S
Co294 O298 2.004 . S
Co294 O304 2.021 . S
Co294 O306 2.137 . S
Co294 O307 2.244 . S
O295 Co294 2.216 . S
O295 C302 1.247 . S
O296 Co294 2.091 . S
O296 C302 1.261 . S
C297 O306 1.247 . S
C297 O307 1.272 . S
O298 Co294 2.004 . S
O298 C303 1.259 . S
Co299 O300 2.061 . S
Co299 O305 2.052 . S
Co299 O307 2.135 . S
O300 Co299 2.061 . S
O300 C303 1.235 . S
C301 O304 1.238 . S
C301 O305 1.241 . S
C302 O295 1.247 . S
C302 O296 1.261 . S
C303 O298 1.259 . S
C303 O300 1.235 . S
O304 Co294 2.021 . S
O304 C301 1.238 . S
O305 Co299 2.052 . S
O305 C301 1.241 . S
O306 Co294 2.137 . S
O306 C297 1.247 . S
O307 Co294 2.244 . S
O307 C297 1.272 . S
O307 Co299 2.135 . S
Co308 O309 2.216 . S
Co308 O310 2.091 . S
Co308 O312 2.004 . S
Co308 O318 2.021 . S
Co308 O320 2.137 . S
Co308 O321 2.244 . S
O309 Co308 2.216 . S
O309 C316 1.247 . S
O310 Co308 2.091 . S
O310 C316 1.261 . S
C311 O320 1.247 1_556 S
C311 O321 1.272 1_556 S
O312 Co308 2.004 . S
O312 C317 1.259 . S
Co313 O314 2.061 . S
Co313 O319 2.052 . S
Co313 O321 2.135 . S
O314 Co313 2.061 . S
O314 C317 1.235 . S
C315 O318 1.238 . S
C315 O319 1.241 . S
C316 O309 1.247 . S
C316 O310 1.261 . S
C317 O312 1.259 . S
C317 O314 1.235 . S
O318 Co308 2.021 . S
O318 C315 1.238 . S
O319 Co313 2.052 . S
O319 C315 1.241 . S
O320 Co308 2.137 . S
O320 C311 1.247 1_554 S
O321 Co308 2.244 . S
O321 C311 1.272 1_554 S
O321 Co313 2.135 . S
Co322 O323 2.216 . S
Co322 O324 2.091 . S
Co322 O326 2.004 . S
Co322 O332 2.021 . S
Co322 O334 2.137 . S
Co322 O335 2.244 . S
O323 Co322 2.216 . S
O323 C330 1.247 . S
O324 Co322 2.091 . S
O324 C330 1.261 . S
C325 O334 1.247 . S
C325 O335 1.272 . S
O326 Co322 2.004 . S
O326 C331 1.259 . S
Co327 O328 2.061 . S
Co327 O333 2.052 . S
Co327 O335 2.135 . S
O328 Co327 2.061 . S
O328 C331 1.235 . S
C329 O332 1.238 . S
C329 O333 1.241 . S
C330 O323 1.247 . S
C330 O324 1.261 . S
C331 O326 1.259 . S
C331 O328 1.235 . S
O332 Co322 2.021 . S
O332 C329 1.238 . S
O333 Co327 2.052 . S
O333 C329 1.241 . S
O334 Co322 2.137 . S
O334 C325 1.247 . S
O335 Co322 2.244 . S
O335 C325 1.272 . S
O335 Co327 2.135 . S
Co336 O337 2.216 . S
Co336 O338 2.091 . S
Co336 O340 2.004 . S
Co336 O346 2.021 . S
Co336 O348 2.137 . S
Co336 O349 2.244 . S
O337 Co336 2.216 . S
O337 C344 1.247 . S
O338 Co336 2.091 . S
O338 C344 1.261 . S
C339 O348 1.247 1_556 S
C339 O349 1.272 1_556 S
O340 Co336 2.004 . S
O340 C345 1.259 . S
Co341 O342 2.061 . S
Co341 O347 2.052 . S
Co341 O349 2.135 . S
O342 Co341 2.061 . S
O342 C345 1.235 . S
C343 O346 1.238 . S
C343 O347 1.241 . S
C344 O337 1.247 . S
C344 O338 1.261 . S
C345 O340 1.259 . S
C345 O342 1.235 . S
O346 Co336 2.021 . S
O346 C343 1.238 . S
O347 Co341 2.052 . S
O347 C343 1.241 . S
O348 Co336 2.137 . S
O348 C339 1.247 1_554 S
O349 Co336 2.244 . S
O349 C339 1.272 1_554 S
O349 Co341 2.135 . S
Co350 O351 2.216 . S
Co350 O352 2.091 . S
Co350 O354 2.004 . S
Co350 O360 2.021 . S
Co350 O362 2.137 . S
Co350 O363 2.244 . S
O351 Co350 2.216 . S
O351 C358 1.247 . S
O352 Co350 2.091 . S
O352 C358 1.261 . S
C353 O362 1.247 . S
C353 O363 1.272 . S
O354 Co350 2.004 . S
O354 C359 1.259 . S
Co355 O356 2.061 . S
Co355 O361 2.052 . S
Co355 O363 2.135 . S
O356 Co355 2.061 . S
O356 C359 1.235 . S
C357 O360 1.238 . S
C357 O361 1.241 . S
C358 O351 1.247 . S
C358 O352 1.261 . S
C359 O354 1.259 . S
C359 O356 1.235 . S
O360 Co350 2.021 . S
O360 C357 1.238 . S
O361 Co355 2.052 . S
O361 C357 1.241 . S
O362 Co350 2.137 . S
O362 C353 1.247 . S
O363 Co350 2.244 . S
O363 C353 1.272 . S
O363 Co355 2.135 . S
Co364 O365 2.216 . S
Co364 O366 2.091 . S
Co364 O368 2.004 . S
Co364 O374 2.021 . S
Co364 O376 2.137 . S
Co364 O377 2.244 . S
O365 Co364 2.216 . S
O365 C372 1.247 . S
O366 Co364 2.091 . S
O366 C372 1.261 . S
C367 O376 1.247 . S
C367 O377 1.272 . S
O368 Co364 2.004 . S
O368 C373 1.259 . S
Co369 O370 2.061 . S
Co369 O375 2.052 . S
Co369 O377 2.135 . S
O370 Co369 2.061 . S
O370 C373 1.235 . S
C371 O374 1.238 . S
C371 O375 1.241 . S
C372 O365 1.247 . S
C372 O366 1.261 . S
C373 O368 1.259 . S
C373 O370 1.235 . S
O374 Co364 2.021 . S
O374 C371 1.238 . S
O375 Co369 2.052 . S
O375 C371 1.241 . S
O376 Co364 2.137 . S
O376 C367 1.247 . S
O377 Co364 2.244 . S
O377 C367 1.272 . S
O377 Co369 2.135 . S
Co378 O379 2.216 . S
Co378 O380 2.091 . S
Co378 O382 2.004 . S
Co378 O388 2.021 . S
Co378 O390 2.137 . S
Co378 O391 2.244 . S
O379 Co378 2.216 . S
O379 C386 1.247 . S
O380 Co378 2.091 . S
O380 C386 1.261 . S
C381 O390 1.247 . S
C381 O391 1.272 . S
O382 Co378 2.004 . S
O382 C387 1.259 . S
Co383 O384 2.061 . S
Co383 O389 2.052 . S
Co383 O391 2.135 . S
O384 Co383 2.061 . S
O384 C387 1.235 . S
C385 O388 1.238 . S
C385 O389 1.241 . S
C386 O379 1.247 . S
C386 O380 1.261 . S
C387 O382 1.259 . S
C387 O384 1.235 . S
O388 Co378 2.021 . S
O388 C385 1.238 . S
O389 Co383 2.052 . S
O389 C385 1.241 . S
O390 Co378 2.137 . S
O390 C381 1.247 . S
O391 Co378 2.244 . S
O391 C381 1.272 . S
O391 Co383 2.135 . S
Co392 O393 2.216 . S
Co392 O394 2.091 . S
Co392 O396 2.004 . S
Co392 O402 2.021 . S
Co392 O404 2.137 . S
Co392 O405 2.244 . S
O393 Co392 2.216 . S
O393 C400 1.247 . S
O394 Co392 2.091 . S
O394 C400 1.261 . S
C395 O404 1.247 . S
C395 O405 1.272 . S
O396 Co392 2.004 . S
O396 C401 1.259 . S
Co397 O398 2.061 . S
Co397 O403 2.052 . S
Co397 O405 2.135 . S
O398 Co397 2.061 . S
O398 C401 1.235 . S
C399 O402 1.238 . S
C399 O403 1.241 . S
C400 O393 1.247 . S
C400 O394 1.261 . S
C401 O396 1.259 . S
C401 O398 1.235 . S
O402 Co392 2.021 . S
O402 C399 1.238 . S
O403 Co397 2.052 . S
O403 C399 1.241 . S
O404 Co392 2.137 . S
O404 C395 1.247 . S
O405 Co392 2.244 . S
O405 C395 1.272 . S
O405 Co397 2.135 . S
Co406 O407 2.216 . S
Co406 O408 2.091 . S
Co406 O410 2.004 . S
Co406 O416 2.021 . S
Co406 O418 2.137 . S
Co406 O419 2.244 . S
O407 Co406 2.216 . S
O407 C414 1.247 . S
O408 Co406 2.091 . S
O408 C414 1.261 . S
C409 O418 1.247 . S
C409 O419 1.272 . S
O410 Co406 2.004 . S
O410 C415 1.259 . S
Co411 O412 2.061 . S
Co411 O417 2.052 . S
Co411 O419 2.135 . S
O412 Co411 2.061 . S
O412 C415 1.235 . S
C413 O416 1.238 . S
C413 O417 1.241 . S
C414 O407 1.247 . S
C414 O408 1.261 . S
C415 O410 1.259 . S
C415 O412 1.235 . S
O416 Co406 2.021 . S
O416 C413 1.238 . S
O417 Co411 2.052 . S
O417 C413 1.241 . S
O418 Co406 2.137 . S
O418 C409 1.247 . S
O419 Co406 2.244 . S
O419 C409 1.272 . S
O419 Co411 2.135 . S
Co420 O421 2.216 . S
Co420 O422 2.091 . S
Co420 O424 2.004 . S
Co420 O430 2.021 . S
Co420 O432 2.137 . S
Co420 O433 2.244 . S
O421 Co420 2.216 . S
O421 C428 1.247 . S
O422 Co420 2.091 . S
O422 C428 1.261 . S
C423 O432 1.247 1_554 S
C423 O433 1.272 1_554 S
O424 Co420 2.004 . S
O424 C429 1.259 . S
Co425 O426 2.061 . S
Co425 O431 2.052 . S
Co425 O433 2.135 . S
O426 Co425 2.061 . S
O426 C429 1.235 . S
C427 O430 1.238 . S
C427 O431 1.241 . S
C428 O421 1.247 . S
C428 O422 1.261 . S
C429 O424 1.259 . S
C429 O426 1.235 . S
O430 Co420 2.021 . S
O430 C427 1.238 . S
O431 Co425 2.052 . S
O431 C427 1.241 . S
O432 Co420 2.137 . S
O432 C423 1.247 1_556 S
O433 Co420 2.244 . S
O433 C423 1.272 1_556 S
O433 Co425 2.135 . S
Co434 O435 2.216 . S
Co434 O436 2.091 . S
Co434 O438 2.004 . S
Co434 O444 2.021 . S
Co434 O446 2.137 . S
Co434 O447 2.244 . S
O435 Co434 2.216 . S
O435 C442 1.247 . S
O436 Co434 2.091 . S
O436 C442 1.261 . S
C437 O446 1.247 . S
C437 O447 1.272 . S
O438 Co434 2.004 . S
O438 C443 1.259 . S
Co439 O440 2.061 . S
Co439 O445 2.052 . S
Co439 O447 2.135 . S
O440 Co439 2.061 . S
O440 C443 1.235 . S
C441 O444 1.238 . S
C441 O445 1.241 . S
C442 O435 1.247 . S
C442 O436 1.261 . S
C443 O438 1.259 . S
C443 O440 1.235 . S
O444 Co434 2.021 . S
O444 C441 1.238 . S
O445 Co439 2.052 . S
O445 C441 1.241 . S
O446 Co434 2.137 . S
O446 C437 1.247 . S
O447 Co434 2.244 . S
O447 C437 1.272 . S
O447 Co439 2.135 . S
C448 C449 1.387 . S
C448 H452 0.950 . S
C448 C457 1.390 1_545 S
C449 C448 1.387 . S
C449 C451 1.387 . S
H450 C457 0.950 . S
C451 C449 1.387 . S
C451 C453 1.390 1_545 S
C451 H455 0.950 . S
H452 C448 0.950 . S
C453 C451 1.390 1_565 S
C453 C454 1.387 . S
C453 H456 0.950 . S
C454 C453 1.387 . S
C454 C457 1.387 . S
H455 C451 0.950 . S
H456 C453 0.950 . S
C457 C448 1.390 1_565 S
C457 H450 0.950 . S
C457 C454 1.387 . S
C458 C459 1.387 . S
C458 H462 0.950 . S
C458 C467 1.390 . S
C459 C458 1.387 . S
C459 C461 1.387 . S
H460 C467 0.950 . S
C461 C459 1.387 . S
C461 C463 1.390 . S
C461 H465 0.950 . S
H462 C458 0.950 . S
C463 C461 1.390 . S
C463 C464 1.387 . S
C463 H466 0.950 . S
C464 C463 1.387 . S
C464 C467 1.387 . S
H465 C461 0.950 . S
H466 C463 0.950 . S
C467 C458 1.390 . S
C467 H460 0.950 . S
C467 C464 1.387 . S
C468 C469 1.387 . S
C468 H472 0.950 . S
C468 C477 1.390 1_545 S
C469 C468 1.387 . S
C469 C471 1.387 . S
H470 C477 0.950 . S
C471 C469 1.387 . S
C471 C473 1.390 1_545 S
C471 H475 0.950 . S
H472 C468 0.950 . S
C473 C471 1.390 1_565 S
C473 C474 1.387 . S
C473 H476 0.950 . S
C474 C473 1.387 . S
C474 C477 1.387 . S
H475 C471 0.950 . S
H476 C473 0.950 . S
C477 C468 1.390 1_565 S
C477 H470 0.950 . S
C477 C474 1.387 . S
C478 C479 1.387 . S
C478 H482 0.950 . S
C478 C487 1.390 1_556 S
C479 C478 1.387 . S
C479 C481 1.387 . S
H480 C487 0.950 . S
C481 C479 1.387 . S
C481 C483 1.390 1_556 S
C481 H485 0.950 . S
H482 C478 0.950 . S
C483 C481 1.390 1_554 S
C483 C484 1.387 . S
C483 H486 0.950 . S
C484 C483 1.387 . S
C484 C487 1.387 . S
H485 C481 0.950 . S
H486 C483 0.950 . S
C487 C478 1.390 1_554 S
C487 H480 0.950 . S
C487 C484 1.387 . S
C488 C489 1.387 . S
C488 H492 0.950 . S
C488 C497 1.390 1_565 S
C489 C488 1.387 . S
C489 C491 1.387 . S
H490 C497 0.950 . S
C491 C489 1.387 . S
C491 C493 1.390 1_565 S
C491 H495 0.950 . S
H492 C488 0.950 . S
C493 C491 1.390 1_545 S
C493 C494 1.387 . S
C493 H496 0.950 . S
C494 C493 1.387 . S
C494 C497 1.387 . S
H495 C491 0.950 . S
H496 C493 0.950 . S
C497 C488 1.390 1_545 S
C497 H490 0.950 . S
C497 C494 1.387 . S
C498 C499 1.387 . S
C498 H502 0.950 . S
C498 C507 1.390 . S
C499 C498 1.387 . S
C499 C501 1.387 . S
H500 C507 0.950 . S
C501 C499 1.387 . S
C501 C503 1.390 . S
C501 H505 0.950 . S
H502 C498 0.950 . S
C503 C501 1.390 . S
C503 C504 1.387 . S
C503 H506 0.950 . S
C504 C503 1.387 . S
C504 C507 1.387 . S
H505 C501 0.950 . S
H506 C503 0.950 . S
C507 C498 1.390 . S
C507 H500 0.950 . S
C507 C504 1.387 . S
C508 C509 1.387 . S
C508 H512 0.950 . S
C508 C517 1.390 1_565 S
C509 C508 1.387 . S
C509 C511 1.387 . S
H510 C517 0.950 . S
C511 C509 1.387 . S
C511 C513 1.390 1_565 S
C511 H515 0.950 . S
H512 C508 0.950 . S
C513 C511 1.390 1_545 S
C513 C514 1.387 . S
C513 H516 0.950 . S
C514 C513 1.387 . S
C514 C517 1.387 . S
H515 C511 0.950 . S
H516 C513 0.950 . S
C517 C508 1.390 1_545 S
C517 H510 0.950 . S
C517 C514 1.387 . S
C518 C519 1.387 . S
C518 H522 0.950 . S
C518 C527 1.390 1_556 S
C519 C518 1.387 . S
C519 C521 1.387 . S
H520 C527 0.950 . S
C521 C519 1.387 . S
C521 C523 1.390 1_556 S
C521 H525 0.950 . S
H522 C518 0.950 . S
C523 C521 1.390 1_554 S
C523 C524 1.387 . S
C523 H526 0.950 . S
C524 C523 1.387 . S
C524 C527 1.387 . S
H525 C521 0.950 . S
H526 C523 0.950 . S
C527 C518 1.390 1_554 S
C527 H520 0.950 . S
C527 C524 1.387 . S
C528 C529 1.387 . S
C528 H532 0.950 . S
C528 C537 1.390 . S
C529 C528 1.387 . S
C529 C531 1.387 . S
H530 C537 0.950 . S
C531 C529 1.387 . S
C531 C533 1.390 . S
C531 H535 0.950 . S
H532 C528 0.950 . S
C533 C531 1.390 . S
C533 C534 1.387 . S
C533 H536 0.950 . S
C534 C533 1.387 . S
C534 C537 1.387 . S
H535 C531 0.950 . S
H536 C533 0.950 . S
C537 C528 1.390 . S
C537 H530 0.950 . S
C537 C534 1.387 . S
C538 C539 1.387 . S
C538 H542 0.950 . S
C538 C547 1.390 1_556 S
C539 C538 1.387 . S
C539 C541 1.387 . S
H540 C547 0.950 . S
C541 C539 1.387 . S
C541 C543 1.390 1_556 S
C541 H545 0.950 . S
H542 C538 0.950 . S
C543 C541 1.390 1_554 S
C543 C544 1.387 . S
C543 H546 0.950 . S
C544 C543 1.387 . S
C544 C547 1.387 . S
H545 C541 0.950 . S
H546 C543 0.950 . S
C547 C538 1.390 1_554 S
C547 H540 0.950 . S
C547 C544 1.387 . S
C548 C549 1.387 . S
C548 H552 0.950 . S
C548 C557 1.390 . S
C549 C548 1.387 . S
C549 C551 1.387 . S
H550 C557 0.950 . S
C551 C549 1.387 . S
C551 C553 1.390 . S
C551 H555 0.950 . S
H552 C548 0.950 . S
C553 C551 1.390 . S
C553 C554 1.387 . S
C553 H556 0.950 . S
C554 C553 1.387 . S
C554 C557 1.387 . S
H555 C551 0.950 . S
H556 C553 0.950 . S
C557 C548 1.390 . S
C557 H550 0.950 . S
C557 C554 1.387 . S
C558 C559 1.387 . S
C558 H562 0.950 . S
C558 C567 1.390 . S
C559 C558 1.387 . S
C559 C561 1.387 . S
H560 C567 0.950 . S
C561 C559 1.387 . S
C561 C563 1.390 . S
C561 H565 0.950 . S
H562 C558 0.950 . S
C563 C561 1.390 . S
C563 C564 1.387 . S
C563 H566 0.950 . S
C564 C563 1.387 . S
C564 C567 1.387 . S
H565 C561 0.950 . S
H566 C563 0.950 . S
C567 C558 1.390 . S
C567 H560 0.950 . S
C567 C564 1.387 . S
C568 C569 1.387 . S
C568 H572 0.950 . S
C568 C577 1.390 . S
C569 C568 1.387 . S
C569 C571 1.387 . S
H570 C577 0.950 . S
C571 C569 1.387 . S
C571 C573 1.390 . S
C571 H575 0.950 . S
H572 C568 0.950 . S
C573 C571 1.390 . S
C573 C574 1.387 . S
C573 H576 0.950 . S
C574 C573 1.387 . S
C574 C577 1.387 . S
H575 C571 0.950 . S
H576 C573 0.950 . S
C577 C568 1.390 . S
C577 H570 0.950 . S
C577 C574 1.387 . S
C578 C579 1.387 . S
C578 H582 0.950 . S
C578 C587 1.390 1_554 S
C579 C578 1.387 . S
C579 C581 1.387 . S
H580 C587 0.950 . S
C581 C579 1.387 . S
C581 C583 1.390 1_554 S
C581 H585 0.950 . S
H582 C578 0.950 . S
C583 C581 1.390 1_556 S
C583 C584 1.387 . S
C583 H586 0.950 . S
C584 C583 1.387 . S
C584 C587 1.387 . S
H585 C581 0.950 . S
H586 C583 0.950 . S
C587 C578 1.390 1_556 S
C587 H580 0.950 . S
C587 C584 1.387 . S
C588 C589 1.387 . S
C588 H592 0.950 . S
C588 C597 1.390 . S
C589 C588 1.387 . S
C589 C591 1.387 . S
H590 C597 0.950 . S
C591 C589 1.387 . S
C591 C593 1.390 . S
C591 H595 0.950 . S
H592 C588 0.950 . S
C593 C591 1.390 . S
C593 C594 1.387 . S
C593 H596 0.950 . S
C594 C593 1.387 . S
C594 C597 1.387 . S
H595 C591 0.950 . S
H596 C593 0.950 . S
C597 C588 1.390 . S
C597 H590 0.950 . S
C597 C594 1.387 . S
C598 C599 1.387 . S
C598 H602 0.950 . S
C598 C607 1.390 . S
C599 C598 1.387 . S
C599 C601 1.387 . S
H600 C607 0.950 . S
C601 C599 1.387 . S
C601 C603 1.390 . S
C601 H605 0.950 . S
H602 C598 0.950 . S
C603 C601 1.390 . S
C603 C604 1.387 . S
C603 H606 0.950 . S
C604 C603 1.387 . S
C604 C607 1.387 . S
H605 C601 0.950 . S
H606 C603 0.950 . S
C607 C598 1.390 . S
C607 H600 0.950 . S
C607 C604 1.387 . S
C608 C609 1.387 . S
C608 H612 0.950 . S
C608 C617 1.390 . S
C609 C608 1.387 . S
C609 C611 1.387 . S
H610 C617 0.950 . S
C611 C609 1.387 . S
C611 C613 1.390 . S
C611 H615 0.950 . S
H612 C608 0.950 . S
C613 C611 1.390 . S
C613 C614 1.387 . S
C613 H616 0.950 . S
C614 C613 1.387 . S
C614 C617 1.387 . S
H615 C611 0.950 . S
H616 C613 0.950 . S
C617 C608 1.390 . S
C617 H610 0.950 . S
C617 C614 1.387 . S
C618 C619 1.387 . S
C618 H622 0.950 . S
C618 C627 1.390 1_655 S
C619 C618 1.387 . S
C619 C621 1.387 . S
H620 C627 0.950 . S
C621 C619 1.387 . S
C621 C623 1.390 1_655 S
C621 H625 0.950 . S
H622 C618 0.950 . S
C623 C621 1.390 1_455 S
C623 C624 1.387 . S
C623 H626 0.950 . S
C624 C623 1.387 . S
C624 C627 1.387 . S
H625 C621 0.950 . S
H626 C623 0.950 . S
C627 C618 1.390 1_455 S
C627 H620 0.950 . S
C627 C624 1.387 . S
C628 C629 1.387 . S
C628 H632 0.950 . S
C628 C637 1.390 . S
C629 C628 1.387 . S
C629 C631 1.387 . S
H630 C637 0.950 . S
C631 C629 1.387 . S
C631 C633 1.390 . S
C631 H635 0.950 . S
H632 C628 0.950 . S
C633 C631 1.390 . S
C633 C634 1.387 . S
C633 H636 0.950 . S
C634 C633 1.387 . S
C634 C637 1.387 . S
H635 C631 0.950 . S
H636 C633 0.950 . S
C637 C628 1.390 . S
C637 H630 0.950 . S
C637 C634 1.387 . S
C638 C639 1.387 . S
C638 H642 0.950 . S
C638 C647 1.390 . S
C639 C638 1.387 . S
C639 C641 1.387 . S
H640 C647 0.950 . S
C641 C639 1.387 . S
C641 C643 1.390 . S
C641 H645 0.950 . S
H642 C638 0.950 . S
C643 C641 1.390 . S
C643 C644 1.387 . S
C643 H646 0.950 . S
C644 C643 1.387 . S
C644 C647 1.387 . S
H645 C641 0.950 . S
H646 C643 0.950 . S
C647 C638 1.390 . S
C647 H640 0.950 . S
C647 C644 1.387 . S
C648 C649 1.387 . S
C648 H652 0.950 . S
C648 C657 1.390 . S
C649 C648 1.387 . S
C649 C651 1.387 . S
H650 C657 0.950 . S
C651 C649 1.387 . S
C651 C653 1.390 . S
C651 H655 0.950 . S
H652 C648 0.950 . S
C653 C651 1.390 . S
C653 C654 1.387 . S
C653 H656 0.950 . S
C654 C653 1.387 . S
C654 C657 1.387 . S
H655 C651 0.950 . S
H656 C653 0.950 . S
C657 C648 1.390 . S
C657 H650 0.950 . S
C657 C654 1.387 . S
C658 C659 1.387 . S
C658 H662 0.950 . S
C658 C667 1.390 . S
C659 C658 1.387 . S
C659 C661 1.387 . S
H660 C667 0.950 . S
C661 C659 1.387 . S
C661 C663 1.390 . S
C661 H665 0.950 . S
H662 C658 0.950 . S
C663 C661 1.390 . S
C663 C664 1.387 . S
C663 H666 0.950 . S
C664 C663 1.387 . S
C664 C667 1.387 . S
H665 C661 0.950 . S
H666 C663 0.950 . S
C667 C658 1.390 . S
C667 H660 0.950 . S
C667 C664 1.387 . S
C668 C669 1.387 . S
C668 H672 0.950 . S
C668 C677 1.390 . S
C669 C668 1.387 . S
C669 C671 1.387 . S
H670 C677 0.950 . S
C671 C669 1.387 . S
C671 C673 1.390 . S
C671 H675 0.950 . S
H672 C668 0.950 . S
C673 C671 1.390 . S
C673 C674 1.387 . S
C673 H676 0.950 . S
C674 C673 1.387 . S
C674 C677 1.387 . S
H675 C671 0.950 . S
H676 C673 0.950 . S
C677 C668 1.390 . S
C677 H670 0.950 . S
C677 C674 1.387 . S
C678 C679 1.387 . S
C678 H682 0.950 . S
C678 C687 1.390 1_455 S
C679 C678 1.387 . S
C679 C681 1.387 . S
H680 C687 0.950 . S
C681 C679 1.387 . S
C681 C683 1.390 1_455 S
C681 H685 0.950 . S
H682 C678 0.950 . S
C683 C681 1.390 1_655 S
C683 C684 1.387 . S
C683 H686 0.950 . S
C684 C683 1.387 . S
C684 C687 1.387 . S
H685 C681 0.950 . S
H686 C683 0.950 . S
C687 C678 1.390 1_655 S
C687 H680 0.950 . S
C687 C684 1.387 . S
C688 C689 1.387 . S
C688 H692 0.950 . S
C688 C697 1.390 . S
C689 C688 1.387 . S
C689 C691 1.387 . S
H690 C697 0.950 . S
C691 C689 1.387 . S
C691 C693 1.390 . S
C691 H695 0.950 . S
H692 C688 0.950 . S
C693 C691 1.390 . S
C693 C694 1.387 . S
C693 H696 0.950 . S
C694 C693 1.387 . S
C694 C697 1.387 . S
H695 C691 0.950 . S
H696 C693 0.950 . S
C697 C688 1.390 . S
C697 H690 0.950 . S
C697 C694 1.387 . S
C698 C699 1.387 . S
C698 H702 0.950 . S
C698 C707 1.390 1_655 S
C699 C698 1.387 . S
C699 C701 1.387 . S
H700 C707 0.950 . S
C701 C699 1.387 . S
C701 C703 1.390 1_655 S
C701 H705 0.950 . S
H702 C698 0.950 . S
C703 C701 1.390 1_455 S
C703 C704 1.387 . S
C703 H706 0.950 . S
C704 C703 1.387 . S
C704 C707 1.387 . S
H705 C701 0.950 . S
H706 C703 0.950 . S
C707 C698 1.390 1_455 S
C707 H700 0.950 . S
C707 C704 1.387 . S
C708 C709 1.387 . S
C708 H712 0.950 . S
C708 C717 1.390 . S
C709 C708 1.387 . S
C709 C711 1.387 . S
H710 C717 0.950 . S
C711 C709 1.387 . S
C711 C713 1.390 . S
C711 H715 0.950 . S
H712 C708 0.950 . S
C713 C711 1.390 . S
C713 C714 1.387 . S
C713 H716 0.950 . S
C714 C713 1.387 . S
C714 C717 1.387 . S
H715 C711 0.950 . S
H716 C713 0.950 . S
C717 C708 1.390 . S
C717 H710 0.950 . S
C717 C714 1.387 . S
C718 C719 1.387 . S
C718 H722 0.950 . S
C718 C727 1.390 . S
C719 C718 1.387 . S
C719 C721 1.387 . S
H720 C727 0.950 . S
C721 C719 1.387 . S
C721 C723 1.390 . S
C721 H725 0.950 . S
H722 C718 0.950 . S
C723 C721 1.390 . S
C723 C724 1.387 . S
C723 H726 0.950 . S
C724 C723 1.387 . S
C724 C727 1.387 . S
H725 C721 0.950 . S
H726 C723 0.950 . S
C727 C718 1.390 . S
C727 H720 0.950 . S
C727 C724 1.387 . S
C728 C729 1.387 . S
C728 H732 0.950 . S
C728 C737 1.390 . S
C729 C728 1.387 . S
C729 C731 1.387 . S
H730 C737 0.950 . S
C731 C729 1.387 . S
C731 C733 1.390 . S
C731 H735 0.950 . S
H732 C728 0.950 . S
C733 C731 1.390 . S
C733 C734 1.387 . S
C733 H736 0.950 . S
C734 C733 1.387 . S
C734 C737 1.387 . S
H735 C731 0.950 . S
H736 C733 0.950 . S
C737 C728 1.390 . S
C737 H730 0.950 . S
C737 C734 1.387 . S
C738 C739 1.387 . S
C738 H742 0.950 . S
C738 C747 1.390 . S
C739 C738 1.387 . S
C739 C741 1.387 . S
H740 C747 0.950 . S
C741 C739 1.387 . S
C741 C743 1.390 . S
C741 H745 0.950 . S
H742 C738 0.950 . S
C743 C741 1.390 . S
C743 C744 1.387 . S
C743 H746 0.950 . S
C744 C743 1.387 . S
C744 C747 1.387 . S
H745 C741 0.950 . S
H746 C743 0.950 . S
C747 C738 1.390 . S
C747 H740 0.950 . S
C747 C744 1.387 . S
C748 C749 1.387 . S
C748 H752 0.950 . S
C748 C757 1.390 . S
C749 C748 1.387 . S
C749 C751 1.387 . S
H750 C757 0.950 . S
C751 C749 1.387 . S
C751 C753 1.390 . S
C751 H755 0.950 . S
H752 C748 0.950 . S
C753 C751 1.390 . S
C753 C754 1.387 . S
C753 H756 0.950 . S
C754 C753 1.387 . S
C754 C757 1.387 . S
H755 C751 0.950 . S
H756 C753 0.950 . S
C757 C748 1.390 . S
C757 H750 0.950 . S
C757 C754 1.387 . S
C758 C759 1.387 . S
C758 H762 0.950 . S
C758 C767 1.390 1_655 S
C759 C758 1.387 . S
C759 C761 1.387 . S
H760 C767 0.950 . S
C761 C759 1.387 . S
C761 C763 1.390 1_655 S
C761 H765 0.950 . S
H762 C758 0.950 . S
C763 C761 1.390 1_455 S
C763 C764 1.387 . S
C763 H766 0.950 . S
C764 C763 1.387 . S
C764 C767 1.387 . S
H765 C761 0.950 . S
H766 C763 0.950 . S
C767 C758 1.390 1_455 S
C767 H760 0.950 . S
C767 C764 1.387 . S
C768 C769 1.387 . S
C768 H772 0.950 . S
C768 C777 1.390 . S
C769 C768 1.387 . S
C769 C771 1.387 . S
H770 C777 0.950 . S
C771 C769 1.387 . S
C771 C773 1.390 . S
C771 H775 0.950 . S
H772 C768 0.950 . S
C773 C771 1.390 . S
C773 C774 1.387 . S
C773 H776 0.950 . S
C774 C773 1.387 . S
C774 C777 1.387 . S
H775 C771 0.950 . S
H776 C773 0.950 . S
C777 C768 1.390 . S
C777 H770 0.950 . S
C777 C774 1.387 . S
C778 C779 1.387 . S
C778 H782 0.950 . S
C778 C787 1.390 . S
C779 C778 1.387 . S
C779 C781 1.387 . S
H780 C787 0.950 . S
C781 C779 1.387 . S
C781 C783 1.390 . S
C781 H785 0.950 . S
H782 C778 0.950 . S
C783 C781 1.390 . S
C783 C784 1.387 . S
C783 H786 0.950 . S
C784 C783 1.387 . S
C784 C787 1.387 . S
H785 C781 0.950 . S
H786 C783 0.950 . S
C787 C778 1.390 . S
C787 H780 0.950 . S
C787 C784 1.387 . S
C788 C789 1.387 . S
C788 H792 0.950 . S
C788 C797 1.390 . S
C789 C788 1.387 . S
C789 C791 1.387 . S
H790 C797 0.950 . S
C791 C789 1.387 . S
C791 C793 1.390 . S
C791 H795 0.950 . S
H792 C788 0.950 . S
C793 C791 1.390 . S
C793 C794 1.387 . S
C793 H796 0.950 . S
C794 C793 1.387 . S
C794 C797 1.387 . S
H795 C791 0.950 . S
H796 C793 0.950 . S
C797 C788 1.390 . S
C797 H790 0.950 . S
C797 C794 1.387 . S
C798 C799 1.387 . S
C798 H802 0.950 . S
C798 C807 1.390 1_655 S
C799 C798 1.387 . S
C799 C801 1.387 . S
H800 C807 0.950 . S
C801 C799 1.387 . S
C801 C803 1.390 1_655 S
C801 H805 0.950 . S
H802 C798 0.950 . S
C803 C801 1.390 1_455 S
C803 C804 1.387 . S
C803 H806 0.950 . S
C804 C803 1.387 . S
C804 C807 1.387 . S
H805 C801 0.950 . S
H806 C803 0.950 . S
C807 C798 1.390 1_455 S
C807 H800 0.950 . S
C807 C804 1.387 . S
C808 C809 1.387 . S
C808 H812 0.950 . S
C808 C817 1.390 . S
C809 C808 1.387 . S
C809 C811 1.387 . S
H810 C817 0.950 . S
C811 C809 1.387 . S
C811 C813 1.390 . S
C811 H815 0.950 . S
H812 C808 0.950 . S
C813 C811 1.390 . S
C813 C814 1.387 . S
C813 H816 0.950 . S
C814 C813 1.387 . S
C814 C817 1.387 . S
H815 C811 0.950 . S
H816 C813 0.950 . S
C817 C808 1.390 . S
C817 H810 0.950 . S
C817 C814 1.387 . S
C818 C819 1.387 . S
C818 H822 0.950 . S
C818 C827 1.390 1_455 S
C819 C818 1.387 . S
C819 C821 1.387 . S
H820 C827 0.950 . S
C821 C819 1.387 . S
C821 C823 1.390 1_455 S
C821 H825 0.950 . S
H822 C818 0.950 . S
C823 C821 1.390 1_655 S
C823 C824 1.387 . S
C823 H826 0.950 . S
C824 C823 1.387 . S
C824 C827 1.387 . S
H825 C821 0.950 . S
H826 C823 0.950 . S
C827 C818 1.390 1_655 S
C827 H820 0.950 . S
C827 C824 1.387 . S
C828 C829 1.387 . S
C828 H832 0.950 . S
C828 C837 1.390 . S
C829 C828 1.387 . S
C829 C831 1.387 . S
H830 C837 0.950 . S
C831 C829 1.387 . S
C831 C833 1.390 . S
C831 H835 0.950 . S
H832 C828 0.950 . S
C833 C831 1.390 . S
C833 C834 1.387 . S
C833 H836 0.950 . S
C834 C833 1.387 . S
C834 C837 1.387 . S
H835 C831 0.950 . S
H836 C833 0.950 . S
C837 C828 1.390 . S
C837 H830 0.950 . S
C837 C834 1.387 . S
C838 C839 1.387 . S
C838 H842 0.950 . S
C838 C847 1.390 . S
C839 C838 1.387 . S
C839 C841 1.387 . S
H840 C847 0.950 . S
C841 C839 1.387 . S
C841 C843 1.390 . S
C841 H845 0.950 . S
H842 C838 0.950 . S
C843 C841 1.390 . S
C843 C844 1.387 . S
C843 H846 0.950 . S
C844 C843 1.387 . S
C844 C847 1.387 . S
H845 C841 0.950 . S
H846 C843 0.950 . S
C847 C838 1.390 . S
C847 H840 0.950 . S
C847 C844 1.387 . S
C848 C849 1.387 . S
C848 H852 0.950 . S
C848 C857 1.390 . S
C849 C848 1.387 . S
C849 C851 1.387 . S
H850 C857 0.950 . S
C851 C849 1.387 . S
C851 C853 1.390 . S
C851 H855 0.950 . S
H852 C848 0.950 . S
C853 C851 1.390 . S
C853 C854 1.387 . S
C853 H856 0.950 . S
C854 C853 1.387 . S
C854 C857 1.387 . S
H855 C851 0.950 . S
H856 C853 0.950 . S
C857 C848 1.390 . S
C857 H850 0.950 . S
C857 C854 1.387 . S
C858 C859 1.387 . S
C858 H862 0.950 . S
C858 C867 1.390 . S
C859 C858 1.387 . S
C859 C861 1.387 . S
H860 C867 0.950 . S
C861 C859 1.387 . S
C861 C863 1.390 . S
C861 H865 0.950 . S
H862 C858 0.950 . S
C863 C861 1.390 . S
C863 C864 1.387 . S
C863 H866 0.950 . S
C864 C863 1.387 . S
C864 C867 1.387 . S
H865 C861 0.950 . S
H866 C863 0.950 . S
C867 C858 1.390 . S
C867 H860 0.950 . S
C867 C864 1.387 . S
C868 C869 1.387 . S
C868 H872 0.950 . S
C868 C877 1.390 . S
C869 C868 1.387 . S
C869 C871 1.387 . S
H870 C877 0.950 . S
C871 C869 1.387 . S
C871 C873 1.390 . S
C871 H875 0.950 . S
H872 C868 0.950 . S
C873 C871 1.390 . S
C873 C874 1.387 . S
C873 H876 0.950 . S
C874 C873 1.387 . S
C874 C877 1.387 . S
H875 C871 0.950 . S
H876 C873 0.950 . S
C877 C868 1.390 . S
C877 H870 0.950 . S
C877 C874 1.387 . S
C878 C879 1.387 . S
C878 H882 0.950 . S
C878 C887 1.390 1_455 S
C879 C878 1.387 . S
C879 C881 1.387 . S
H880 C887 0.950 . S
C881 C879 1.387 . S
C881 C883 1.390 1_455 S
C881 H885 0.950 . S
H882 C878 0.950 . S
C883 C881 1.390 1_655 S
C883 C884 1.387 . S
C883 H886 0.950 . S
C884 C883 1.387 . S
C884 C887 1.387 . S
H885 C881 0.950 . S
H886 C883 0.950 . S
C887 C878 1.390 1_655 S
C887 H880 0.950 . S
C887 C884 1.387 . S
C888 C889 1.387 . S
C888 H892 0.950 . S
C888 C897 1.390 . S
C889 C888 1.387 . S
C889 C891 1.387 . S
H890 C897 0.950 . S
C891 C889 1.387 . S
C891 C893 1.390 . S
C891 H895 0.950 . S
H892 C888 0.950 . S
C893 C891 1.390 . S
C893 C894 1.387 . S
C893 H896 0.950 . S
C894 C893 1.387 . S
C894 C897 1.387 . S
H895 C891 0.950 . S
H896 C893 0.950 . S
C897 C888 1.390 . S
C897 H890 0.950 . S
C897 C894 1.387 . S
C898 C899 1.387 . S
C898 H902 0.950 . S
C898 C907 1.390 1_655 S
C899 C898 1.387 . S
C899 C901 1.387 . S
H900 C907 0.950 . S
C901 C899 1.387 . S
C901 C903 1.390 1_655 S
C901 H905 0.950 . S
H902 C898 0.950 . S
C903 C901 1.390 1_455 S
C903 C904 1.387 . S
C903 H906 0.950 . S
C904 C903 1.387 . S
C904 C907 1.387 . S
H905 C901 0.950 . S
H906 C903 0.950 . S
C907 C898 1.390 1_455 S
C907 H900 0.950 . S
C907 C904 1.387 . S
C908 C909 1.387 . S
C908 H912 0.950 . S
C908 C917 1.390 . S
C909 C908 1.387 . S
C909 C911 1.387 . S
H910 C917 0.950 . S
C911 C909 1.387 . S
C911 C913 1.390 . S
C911 H915 0.950 . S
H912 C908 0.950 . S
C913 C911 1.390 . S
C913 C914 1.387 . S
C913 H916 0.950 . S
C914 C913 1.387 . S
C914 C917 1.387 . S
H915 C911 0.950 . S
H916 C913 0.950 . S
C917 C908 1.390 . S
C917 H910 0.950 . S
C917 C914 1.387 . S
C918 C919 1.387 . S
C918 H922 0.950 . S
C918 C927 1.390 . S
C919 C918 1.387 . S
C919 C921 1.387 . S
H920 C927 0.950 . S
C921 C919 1.387 . S
C921 C923 1.390 . S
C921 H925 0.950 . S
H922 C918 0.950 . S
C923 C921 1.390 . S
C923 C924 1.387 . S
C923 H926 0.950 . S
C924 C923 1.387 . S
C924 C927 1.387 . S
H925 C921 0.950 . S
H926 C923 0.950 . S
C927 C918 1.390 . S
C927 H920 0.950 . S
C927 C924 1.387 . S
C928 C929 1.387 . S
C928 H932 0.950 . S
C928 C937 1.390 . S
C929 C928 1.387 . S
C929 C931 1.387 . S
H930 C937 0.950 . S
C931 C929 1.387 . S
C931 C933 1.390 . S
C931 H935 0.950 . S
H932 C928 0.950 . S
C933 C931 1.390 . S
C933 C934 1.387 . S
C933 H936 0.950 . S
C934 C933 1.387 . S
C934 C937 1.387 . S
H935 C931 0.950 . S
H936 C933 0.950 . S
C937 C928 1.390 . S
C937 H930 0.950 . S
C937 C934 1.387 . S
C938 C939 1.387 . S
C938 H942 0.950 . S
C938 C947 1.390 . S
C939 C938 1.387 . S
C939 C941 1.387 . S
H940 C947 0.950 . S
C941 C939 1.387 . S
C941 C943 1.390 . S
C941 H945 0.950 . S
H942 C938 0.950 . S
C943 C941 1.390 . S
C943 C944 1.387 . S
C943 H946 0.950 . S
C944 C943 1.387 . S
C944 C947 1.387 . S
H945 C941 0.950 . S
H946 C943 0.950 . S
C947 C938 1.390 . S
C947 H940 0.950 . S
C947 C944 1.387 . S
C948 C949 1.387 . S
C948 H952 0.950 . S
C948 C957 1.390 . S
C949 C948 1.387 . S
C949 C951 1.387 . S
H950 C957 0.950 . S
C951 C949 1.387 . S
C951 C953 1.390 . S
C951 H955 0.950 . S
H952 C948 0.950 . S
C953 C951 1.390 . S
C953 C954 1.387 . S
C953 H956 0.950 . S
C954 C953 1.387 . S
C954 C957 1.387 . S
H955 C951 0.950 . S
H956 C953 0.950 . S
C957 C948 1.390 . S
C957 H950 0.950 . S
C957 C954 1.387 . S
C958 C959 1.387 . S
C958 H962 0.950 . S
C958 C967 1.390 . S
C959 C958 1.387 . S
C959 C961 1.387 . S
H960 C967 0.950 . S
C961 C959 1.387 . S
C961 C963 1.390 . S
C961 H965 0.950 . S
H962 C958 0.950 . S
C963 C961 1.390 . S
C963 C964 1.387 . S
C963 H966 0.950 . S
C964 C963 1.387 . S
C964 C967 1.387 . S
H965 C961 0.950 . S
H966 C963 0.950 . S
C967 C958 1.390 . S
C967 H960 0.950 . S
C967 C964 1.387 . S
C968 C969 1.387 . S
C968 H972 0.950 . S
C968 C977 1.390 . S
C969 C968 1.387 . S
C969 C971 1.387 . S
H970 C977 0.950 . S
C971 C969 1.387 . S
C971 C973 1.390 . S
C971 H975 0.950 . S
H972 C968 0.950 . S
C973 C971 1.390 . S
C973 C974 1.387 . S
C973 H976 0.950 . S
C974 C973 1.387 . S
C974 C977 1.387 . S
H975 C971 0.950 . S
H976 C973 0.950 . S
C977 C968 1.390 . S
C977 H970 0.950 . S
C977 C974 1.387 . S
C978 C979 1.387 . S
C978 H982 0.950 . S
C978 C987 1.390 . S
C979 C978 1.387 . S
C979 C981 1.387 . S
H980 C987 0.950 . S
C981 C979 1.387 . S
C981 C983 1.390 . S
C981 H985 0.950 . S
H982 C978 0.950 . S
C983 C981 1.390 . S
C983 C984 1.387 . S
C983 H986 0.950 . S
C984 C983 1.387 . S
C984 C987 1.387 . S
H985 C981 0.950 . S
H986 C983 0.950 . S
C987 C978 1.390 . S
C987 H980 0.950 . S
C987 C984 1.387 . S
C988 C989 1.387 . S
C988 H992 0.950 . S
C988 C997 1.390 . S
C989 C988 1.387 . S
C989 C991 1.387 . S
H990 C997 0.950 . S
C991 C989 1.387 . S
C991 C993 1.390 . S
C991 H995 0.950 . S
H992 C988 0.950 . S
C993 C991 1.390 . S
C993 C994 1.387 . S
C993 H996 0.950 . S
C994 C993 1.387 . S
C994 C997 1.387 . S
H995 C991 0.950 . S
H996 C993 0.950 . S
C997 C988 1.390 . S
C997 H990 0.950 . S
C997 C994 1.387 . S
C998 C999 1.387 . S
C998 H1002 0.950 . S
C998 C1007 1.390 . S
C999 C998 1.387 . S
C999 C1001 1.387 . S
H1000 C1007 0.950 . S
C1001 C999 1.387 . S
C1001 C1003 1.390 . S
C1001 H1005 0.950 . S
H1002 C998 0.950 . S
C1003 C1001 1.390 . S
C1003 C1004 1.387 . S
C1003 H1006 0.950 . S
C1004 C1003 1.387 . S
C1004 C1007 1.387 . S
H1005 C1001 0.950 . S
H1006 C1003 0.950 . S
C1007 C998 1.390 . S
C1007 H1000 0.950 . S
C1007 C1004 1.387 . S
C1008 C1009 1.387 . S
C1008 H1012 0.950 . S
C1008 C1017 1.390 . S
C1009 C1008 1.387 . S
C1009 C1011 1.387 . S
H1010 C1017 0.950 . S
C1011 C1009 1.387 . S
C1011 C1013 1.390 . S
C1011 H1015 0.950 . S
H1012 C1008 0.950 . S
C1013 C1011 1.390 . S
C1013 C1014 1.387 . S
C1013 H1016 0.950 . S
C1014 C1013 1.387 . S
C1014 C1017 1.387 . S
H1015 C1011 0.950 . S
H1016 C1013 0.950 . S
C1017 C1008 1.390 . S
C1017 H1010 0.950 . S
C1017 C1014 1.387 . S
C1018 C1019 1.387 . S
C1018 H1022 0.950 . S
C1018 C1027 1.390 . S
C1019 C1018 1.387 . S
C1019 C1021 1.387 . S
H1020 C1027 0.950 . S
C1021 C1019 1.387 . S
C1021 C1023 1.390 . S
C1021 H1025 0.950 . S
H1022 C1018 0.950 . S
C1023 C1021 1.390 . S
C1023 C1024 1.387 . S
C1023 H1026 0.950 . S
C1024 C1023 1.387 . S
C1024 C1027 1.387 . S
H1025 C1021 0.950 . S
H1026 C1023 0.950 . S
C1027 C1018 1.390 . S
C1027 H1020 0.950 . S
C1027 C1024 1.387 . S
C1028 C1029 1.387 . S
C1028 H1032 0.950 . S
C1028 C1037 1.390 . S
C1029 C1028 1.387 . S
C1029 C1031 1.387 . S
H1030 C1037 0.950 . S
C1031 C1029 1.387 . S
C1031 C1033 1.390 . S
C1031 H1035 0.950 . S
H1032 C1028 0.950 . S
C1033 C1031 1.390 . S
C1033 C1034 1.387 . S
C1033 H1036 0.950 . S
C1034 C1033 1.387 . S
C1034 C1037 1.387 . S
H1035 C1031 0.950 . S
H1036 C1033 0.950 . S
C1037 C1028 1.390 . S
C1037 H1030 0.950 . S
C1037 C1034 1.387 . S
C1038 C1039 1.387 . S
C1038 H1042 0.950 . S
C1038 C1047 1.390 . S
C1039 C1038 1.387 . S
C1039 C1041 1.387 . S
H1040 C1047 0.950 . S
C1041 C1039 1.387 . S
C1041 C1043 1.390 . S
C1041 H1045 0.950 . S
H1042 C1038 0.950 . S
C1043 C1041 1.390 . S
C1043 C1044 1.387 . S
C1043 H1046 0.950 . S
C1044 C1043 1.387 . S
C1044 C1047 1.387 . S
H1045 C1041 0.950 . S
H1046 C1043 0.950 . S
C1047 C1038 1.390 . S
C1047 H1040 0.950 . S
C1047 C1044 1.387 . S
C1048 C1049 1.387 . S
C1048 H1052 0.950 . S
C1048 C1057 1.390 . S
C1049 C1048 1.387 . S
C1049 C1051 1.387 . S
H1050 C1057 0.950 . S
C1051 C1049 1.387 . S
C1051 C1053 1.390 . S
C1051 H1055 0.950 . S
H1052 C1048 0.950 . S
C1053 C1051 1.390 . S
C1053 C1054 1.387 . S
C1053 H1056 0.950 . S
C1054 C1053 1.387 . S
C1054 C1057 1.387 . S
H1055 C1051 0.950 . S
H1056 C1053 0.950 . S
C1057 C1048 1.390 . S
C1057 H1050 0.950 . S
C1057 C1054 1.387 . S
C1058 C1059 1.387 . S
C1058 H1062 0.950 . S
C1058 C1067 1.390 . S
C1059 C1058 1.387 . S
C1059 C1061 1.387 . S
H1060 C1067 0.950 . S
C1061 C1059 1.387 . S
C1061 C1063 1.390 . S
C1061 H1065 0.950 . S
H1062 C1058 0.950 . S
C1063 C1061 1.390 . S
C1063 C1064 1.387 . S
C1063 H1066 0.950 . S
C1064 C1063 1.387 . S
C1064 C1067 1.387 . S
H1065 C1061 0.950 . S
H1066 C1063 0.950 . S
C1067 C1058 1.390 . S
C1067 H1060 0.950 . S
C1067 C1064 1.387 . S
C1068 C1069 1.387 . S
C1068 H1072 0.950 . S
C1068 C1077 1.390 . S
C1069 C1068 1.387 . S
C1069 C1071 1.387 . S
H1070 C1077 0.950 . S
C1071 C1069 1.387 . S
C1071 C1073 1.390 . S
C1071 H1075 0.950 . S
H1072 C1068 0.950 . S
C1073 C1071 1.390 . S
C1073 C1074 1.387 . S
C1073 H1076 0.950 . S
C1074 C1073 1.387 . S
C1074 C1077 1.387 . S
H1075 C1071 0.950 . S
H1076 C1073 0.950 . S
C1077 C1068 1.390 . S
C1077 H1070 0.950 . S
C1077 C1074 1.387 . S
C1078 C1079 1.387 . S
C1078 H1082 0.950 . S
C1078 C1087 1.390 . S
C1079 C1078 1.387 . S
C1079 C1081 1.387 . S
H1080 C1087 0.950 . S
C1081 C1079 1.387 . S
C1081 C1083 1.390 . S
C1081 H1085 0.950 . S
H1082 C1078 0.950 . S
C1083 C1081 1.390 . S
C1083 C1084 1.387 . S
C1083 H1086 0.950 . S
C1084 C1083 1.387 . S
C1084 C1087 1.387 . S
H1085 C1081 0.950 . S
H1086 C1083 0.950 . S
C1087 C1078 1.390 . S
C1087 H1080 0.950 . S
C1087 C1084 1.387 . S
C449 C8 1.518 . S
C454 C64 1.518 . S
C459 C22 1.518 . S
C464 C78 1.518 . S
C469 C92 1.518 . S
C474 C36 1.518 . S
C479 C106 1.516 . S
C484 C50 1.516 . S
C489 C120 1.518 . S
C494 C176 1.518 . S
C499 C134 1.518 . S
C504 C190 1.518 . S
C509 C204 1.516 . S
C514 C148 1.516 . S
C519 C162 1.518 . S
C524 C218 1.518 . S
C529 C288 1.518 . S
C534 C232 1.518 . S
C539 C302 1.518 . S
C544 C246 1.518 . S
C549 C260 1.518 . S
C554 C316 1.518 . S
C559 C330 1.516 . S
C564 C274 1.516 . S
C569 C344 1.518 . S
C574 C400 1.518 . S
C579 C414 1.516 . S
C584 C358 1.516 . S
C589 C428 1.516 . S
C594 C372 1.516 . S
C599 C386 1.518 . S
C604 C442 1.518 . S
C609 C9 1.495 . S
C614 C385 1.500 . S
C619 C119 1.501 . S
C624 C23 1.497 . S
C629 C37 1.496 . S
C634 C357 1.498 . S
C639 C51 1.497 . S
C644 C147 1.501 . S
C649 C413 1.498 . S
C654 C65 1.497 . S
C659 C203 1.498 . S
C664 C79 1.495 . S
C669 C93 1.496 . S
C674 C441 1.501 . S
C679 C107 1.496 . S
C684 C175 1.498 . S
C689 C273 1.501 . S
C694 C121 1.495 . S
C699 C135 1.497 . S
C704 C7 1.501 . S
C709 C245 1.501 . S
C714 C149 1.496 . S
C719 C163 1.497 . S
C724 C35 1.501 . S
C729 C301 1.498 . S
C734 C177 1.496 . S
C739 C191 1.497 . S
C744 C91 1.501 . S
C749 C329 1.498 . S
C754 C205 1.496 . S
C759 C219 1.496 . S
C764 C63 1.501 . S
C769 C161 1.498 . S
C774 C233 1.496 . S
C779 C343 1.498 . S
C784 C247 1.496 . S
C789 C133 1.501 . S
C794 C261 1.496 . S
C799 C275 1.497 . S
C804 C371 1.501 . S
C809 C189 1.501 . S
C814 C289 1.497 . S
C819 C427 1.498 . S
C824 C303 1.496 . S
C829 C217 1.498 . S
C834 C317 1.495 . S
C839 C331 1.496 . S
C844 C399 1.501 . S
C849 C345 1.496 . S
C854 C49 1.498 . S
C859 C359 1.497 . S
C864 C231 1.501 . S
C869 C373 1.498 . S
C874 C21 1.500 . S
C879 C387 1.497 . S
C884 C259 1.501 . S
C889 C401 1.498 . S
C894 C77 1.500 . S
C899 C315 1.498 . S
C904 C415 1.495 . S
C909 C105 1.498 . S
C914 C429 1.495 . S
C919 C443 1.495 . S
C924 C287 1.498 . S
C929 C3 1.225 . S
C934 C101 1.225 . S
C939 C17 1.225 . S
C944 C59 1.225 . S
C949 C31 1.224 . S
C954 C73 1.226 . S
C959 C87 1.226 . S
C964 C45 1.225 . S
C969 C213 1.226 . S
C974 C115 1.224 . S
C979 C171 1.225 . S
C984 C129 1.226 . S
C989 C185 1.224 . S
C994 C143 1.226 . S
C999 C199 1.226 . S
C1004 C157 1.224 . S
C1009 C227 1.226 . S
C1014 C325 1.225 . S
C1019 C283 1.226 . S
C1024 C241 1.225 . S
C1029 C297 1.225 . S
C1034 C255 1.226 . S
C1039 C311 1.224 . S
C1044 C269 1.226 . S
C1049 C437 1.225 . S
C1054 C339 1.226 . S
C1059 C353 1.226 . S
C1064 C395 1.224 . S
C1069 C367 1.226 . S
C1074 C409 1.225 . S
C1079 C381 1.226 . S
C1084 C423 1.224 . S
