# Generated by pormake.
# Topology wju, (5)-cn, num edge types: 1
# Building blocks:
#     Node 0, Type 0, BuildingBlock: XOMCOT_clean_sbu_0, # of connection points: 5
#     Node 1, Type 0, BuildingBlock: XOMCOT_clean_sbu_0, # of connection points: 5
#     Node 2, Type 0, BuildingBlock: XOMCOT_clean_sbu_0, # of connection points: 5
#     Node 3, Type 0, BuildingBlock: XOMCOT_clean_sbu_0, # of connection points: 5
#     Node 4, Type 0, BuildingBlock: XOMCOT_clean_sbu_0, # of connection points: 5
#     Node 5, Type 0, BuildingBlock: XOMCOT_clean_sbu_0, # of connection points: 5
#     Node 6, Type 0, BuildingBlock: XOMCOT_clean_sbu_0, # of connection points: 5
#     Node 7, Type 0, BuildingBlock: XOMCOT_clean_sbu_0, # of connection points: 5
#     Node 8, Type 0, BuildingBlock: XOMCOT_clean_sbu_0, # of connection points: 5
#     Node 9, Type 0, BuildingBlock: XOMCOT_clean_sbu_0, # of connection points: 5
#     Node 10, Type 0, BuildingBlock: XOMCOT_clean_sbu_0, # of connection points: 5
#     Node 11, Type 0, BuildingBlock: XOMCOT_clean_sbu_0, # of connection points: 5
#     Edge 12, Type (0, 0), BuildingBlock: EYOCIG_clean_linker_4, # of connection points: 2
#     Edge 13, Type (0, 0), BuildingBlock: EYOCIG_clean_linker_4, # of connection points: 2
#     Edge 14, Type (0, 0), BuildingBlock: EYOCIG_clean_linker_4, # of connection points: 2
#     Edge 15, Type (0, 0), BuildingBlock: EYOCIG_clean_linker_4, # of connection points: 2
#     Edge 16, Type (0, 0), BuildingBlock: EYOCIG_clean_linker_4, # of connection points: 2
#     Edge 17, Type (0, 0), BuildingBlock: EYOCIG_clean_linker_4, # of connection points: 2
#     Edge 18, Type (0, 0), BuildingBlock: EYOCIG_clean_linker_4, # of connection points: 2
#     Edge 19, Type (0, 0), BuildingBlock: EYOCIG_clean_linker_4, # of connection points: 2
#     Edge 20, Type (0, 0), BuildingBlock: EYOCIG_clean_linker_4, # of connection points: 2
#     Edge 21, Type (0, 0), BuildingBlock: EYOCIG_clean_linker_4, # of connection points: 2
#     Edge 22, Type (0, 0), BuildingBlock: EYOCIG_clean_linker_4, # of connection points: 2
#     Edge 23, Type (0, 0), BuildingBlock: EYOCIG_clean_linker_4, # of connection points: 2
#     Edge 24, Type (0, 0), BuildingBlock: EYOCIG_clean_linker_4, # of connection points: 2
#     Edge 25, Type (0, 0), BuildingBlock: EYOCIG_clean_linker_4, # of connection points: 2
#     Edge 26, Type (0, 0), BuildingBlock: EYOCIG_clean_linker_4, # of connection points: 2
#     Edge 27, Type (0, 0), BuildingBlock: EYOCIG_clean_linker_4, # of connection points: 2
#     Edge 28, Type (0, 0), BuildingBlock: EYOCIG_clean_linker_4, # of connection points: 2
#     Edge 29, Type (0, 0), BuildingBlock: EYOCIG_clean_linker_4, # of connection points: 2
#     Edge 30, Type (0, 0), BuildingBlock: EYOCIG_clean_linker_4, # of connection points: 2
#     Edge 31, Type (0, 0), BuildingBlock: EYOCIG_clean_linker_4, # of connection points: 2
#     Edge 32, Type (0, 0), BuildingBlock: EYOCIG_clean_linker_4, # of connection points: 2
#     Edge 33, Type (0, 0), BuildingBlock: EYOCIG_clean_linker_4, # of connection points: 2
#     Edge 34, Type (0, 0), BuildingBlock: EYOCIG_clean_linker_4, # of connection points: 2
#     Edge 35, Type (0, 0), BuildingBlock: EYOCIG_clean_linker_4, # of connection points: 2
#     Edge 36, Type (0, 0), BuildingBlock: EYOCIG_clean_linker_4, # of connection points: 2
#     Edge 37, Type (0, 0), BuildingBlock: EYOCIG_clean_linker_4, # of connection points: 2
#     Edge 38, Type (0, 0), BuildingBlock: EYOCIG_clean_linker_4, # of connection points: 2
#     Edge 39, Type (0, 0), BuildingBlock: EYOCIG_clean_linker_4, # of connection points: 2
#     Edge 40, Type (0, 0), BuildingBlock: EYOCIG_clean_linker_4, # of connection points: 2
#     Edge 41, Type (0, 0), BuildingBlock: EYOCIG_clean_linker_4, # of connection points: 2
# Relax obj value: 0.109
# Max RMSD: 0.150
# Mean RMSD: 0.150
data_MOF--net-wju--node1-XOMCOT_clean_sbu_0--edge1-EYOCIG_clean_linker_4
_symmetry_space_group_name_H-M    P1
_symmetry_Int_Tables_number       1
_symmetry_cell_setting            triclinic
loop_
_symmetry_equiv_pos_as_xyz
'x, y, z'
_cell_length_a     22.540624
_cell_length_b     22.539371
_cell_length_c     84.952952
_cell_angle_alpha  90.000876
_cell_angle_beta   89.998475
_cell_angle_gamma 119.99416
loop_
_atom_site_label
_atom_site_type_symbol
_atom_site_fract_x
_atom_site_fract_y
_atom_site_fract_z
_atom_type_partial_charge
Co0 Co 0.32741 0.102 0.1033 0.0
C1 C 0.30687 0.11781 0.13746 0.0
C2 C 0.33707 0.04239 0.13391 0.0
C3 C 0.33012 0.04859 0.14983 0.0
N4 N 0.32346 0.08651 0.12606 0.0
N5 N 0.31148 0.09598 0.15196 0.0
H6 H 0.29311 0.15671 0.13527 0.0
H7 H 0.35176 1.00805 0.12866 0.0
C8 C 0.18174 0.06717 0.09415 0.0
O9 O 0.20115 0.0918 0.07994 0.0
N10 N 0.33191 0.11601 0.0806 0.0
C11 C 0.37467 0.17382 0.07265 0.0
C12 C 0.36914 0.15953 0.05675 0.0
C13 C 0.3031 0.06682 0.06941 0.0
N14 N 0.32419 0.0925 0.05485 0.0
C15 C 0.41289 0.23483 0.11512 0.0
C16 C 0.35204 0.30044 0.10055 0.0
C17 C 0.41559 0.33917 0.10795 0.0
C18 C 0.44497 0.30586 0.11572 0.0
C19 C 0.32112 0.22882 0.1003 0.0
N20 N 0.353 0.19711 0.10705 0.0
H21 H 0.43791 0.21002 0.12065 0.0
H22 H 0.27446 0.20011 0.09378 0.0
H23 H 0.40982 0.22247 0.07801 0.0
H24 H 0.26814 0.01325 0.07189 0.0
O25 O 0.41944 0.11759 0.10233 0.0
O26 O 0.32638 0.01571 0.09957 0.0
O27 O 0.22462 0.0685 0.10428 0.0
C28 C 0.39321 0.05282 0.09973 0.0
H29 H 0.33929 0.02135 0.15915 0.0
H30 H 0.39742 0.19504 0.04737 0.0
H31 H 0.32812 0.32524 0.09444 0.0
H32 H 0.49391 0.33457 0.12164 0.0
Co33 Co 0.23541 0.32296 0.43663 0.0
C34 C 0.19903 0.30236 0.4708 0.0
C35 C 0.30467 0.33268 0.46725 0.0
C36 C 0.29151 0.3257 0.48317 0.0
N37 N 0.24694 0.31901 0.45939 0.0
N38 N 0.22546 0.30699 0.4853 0.0
H39 H 0.14636 0.28854 0.46859 0.0
H40 H 0.35372 0.34743 0.462 0.0
C41 C 0.12456 0.17728 0.42749 0.0
O42 O 0.11934 0.1967 0.41328 0.0
N43 N 0.22589 0.32745 0.41393 0.0
C44 C 0.21085 0.37023 0.40599 0.0
C45 C 0.21958 0.36468 0.39009 0.0
C46 C 0.24624 0.29862 0.40274 0.0
N47 N 0.24164 0.3197 0.38818 0.0
C48 C 0.18805 0.40844 0.44846 0.0
C49 C 0.06162 0.34763 0.43389 0.0
C50 C 0.08644 0.41118 0.44129 0.0
C51 C 0.14912 0.44054 0.44906 0.0
C52 C 0.10232 0.3167 0.43363 0.0
N53 N 0.16589 0.34857 0.44039 0.0
H54 H 0.23788 0.43346 0.45399 0.0
H55 H 0.08436 0.27004 0.42711 0.0
H56 H 0.19737 0.40539 0.41134 0.0
H57 H 0.26484 0.26364 0.40523 0.0
O58 O 0.31184 0.41499 0.43566 0.0
O59 O 0.32065 0.32191 0.4329 0.0
O60 O 0.16612 0.22017 0.43761 0.0
C61 C 0.35038 0.38876 0.43307 0.0
H62 H 0.32792 0.3349 0.49248 0.0
H63 H 0.21234 0.39295 0.3807 0.0
H64 H 1.01291 0.32372 0.42778 0.0
H65 H 0.16934 0.48948 0.45499 0.0
Co66 Co 0.92203 0.23025 0.76996 0.0
C67 C 0.90624 0.19385 0.80412 0.0
C68 C 0.98154 0.29951 0.80058 0.0
C69 C 0.97535 0.28633 0.81649 0.0
N70 N 0.93749 0.24178 0.79272 0.0
N71 N 0.92803 0.22028 0.81862 0.0
H72 H 0.8674 0.14118 0.80191 0.0
H73 H 0.01583 0.34856 0.79533 0.0
C74 C 0.95687 0.11941 0.76081 0.0
O75 O 0.93226 0.1142 0.7466 0.0
N76 N 0.90804 0.22075 0.74726 0.0
C77 C 0.85024 0.20571 0.73931 0.0
C78 C 0.86454 0.21447 0.72341 0.0
C79 C 0.95724 0.24112 0.73607 0.0
N80 N 0.93157 0.23654 0.72151 0.0
C81 C 0.7892 0.1829 0.78178 0.0
C82 C 0.72361 0.05646 0.76721 0.0
C83 C 0.68488 0.08128 0.7746 0.0
C84 C 0.71818 0.14396 0.78238 0.0
C85 C 0.79523 0.09716 0.76695 0.0
N86 N 0.82692 0.16074 0.77371 0.0
H87 H 0.814 0.23273 0.78731 0.0
H88 H 0.82394 0.07921 0.76043 0.0
H89 H 0.80159 0.19222 0.74466 0.0
H90 H 1.01081 0.25973 0.73856 0.0
O91 O 0.90644 0.3067 0.76899 0.0
O92 O 1.00832 0.31549 0.76623 0.0
O93 O 0.95553 0.16096 0.77094 0.0
C94 C 0.97121 0.34523 0.76639 0.0
H95 H 1.00254 0.32274 0.82581 0.0
H96 H 0.82905 0.20724 0.71402 0.0
H97 H 0.69882 1.00775 0.7611 0.0
H98 H 0.68946 0.16418 0.78831 0.0
Co99 Co 0.70121 0.91705 0.10329 0.0
C100 C 0.72188 0.90132 0.13745 0.0
C101 C 0.69143 0.97656 0.13391 0.0
C102 C 0.69844 0.97039 0.14983 0.0
N103 N 0.70516 0.93253 0.12605 0.0
N104 N 0.71724 0.92311 0.15195 0.0
H105 H 0.73575 0.86251 0.13525 0.0
H106 H 0.67662 0.01081 0.12866 0.0
C107 C 0.84688 0.95185 0.09415 0.0
O108 O 0.82747 0.92721 0.07994 0.0
N109 N 0.69672 0.90303 0.08059 0.0
C110 C 0.65394 0.84522 0.07265 0.0
C111 C 0.6595 0.85951 0.05674 0.0
C112 C 0.72556 0.95221 0.0694 0.0
N113 N 0.70448 0.92653 0.05484 0.0
C114 C 0.61575 0.78423 0.11513 0.0
C115 C 0.67653 0.71859 0.10054 0.0
C116 C 0.613 0.67987 0.10794 0.0
C117 C 0.58365 0.7132 0.11573 0.0
C118 C 0.70747 0.79021 0.10029 0.0
N119 N 0.67562 0.82193 0.10705 0.0
H120 H 0.59075 0.80906 0.12066 0.0
H121 H 0.75412 0.8189 0.09376 0.0
H122 H 0.61877 0.79659 0.078 0.0
H123 H 0.76054 1.00578 0.07189 0.0
O124 O 0.60918 0.90145 0.10232 0.0
O125 O 0.70224 1.00333 0.09956 0.0
O126 O 0.804 0.95054 0.10427 0.0
C127 C 0.6354 0.96622 0.09972 0.0
H128 H 0.68921 0.99758 0.15914 0.0
H129 H 0.63123 0.824 0.04736 0.0
H130 H 0.70043 0.69377 0.09443 0.0
H131 H 0.53473 0.6845 0.12166 0.0
Co132 Co 0.7941 0.69676 0.43663 0.0
C133 C 0.83045 0.71735 0.47079 0.0
C134 C 0.72482 0.68706 0.46724 0.0
C135 C 0.73797 0.69404 0.48316 0.0
N136 N 0.78255 0.70071 0.45939 0.0
N137 N 0.80401 0.71274 0.48529 0.0
H138 H 0.88311 0.73115 0.46859 0.0
H139 H 0.67578 0.67233 0.46199 0.0
C140 C 0.90495 0.84243 0.42748 0.0
O141 O 0.91017 0.82302 0.41327 0.0
N142 N 0.80363 0.69225 0.41393 0.0
C143 C 0.81869 0.64948 0.40599 0.0
C144 C 0.80995 0.65502 0.39008 0.0
C145 C 0.78327 0.72107 0.40274 0.0
N146 N 0.78788 0.69998 0.38818 0.0
C147 C 0.84146 0.61128 0.44846 0.0
C148 C 0.9679 0.67211 0.43389 0.0
C149 C 0.94309 0.60856 0.44129 0.0
C150 C 0.8804 0.57919 0.44906 0.0
C151 C 0.9272 0.70303 0.43363 0.0
N152 N 0.86362 0.67116 0.44038 0.0
H153 H 0.79163 0.58626 0.45399 0.0
H154 H 0.94515 0.74969 0.42711 0.0
H155 H 0.83217 0.61432 0.41134 0.0
H156 H 0.76467 0.75604 0.40522 0.0
O157 O 0.71768 0.60472 0.43566 0.0
O158 O 0.70886 0.69779 0.43289 0.0
O159 O 0.86338 0.79955 0.43761 0.0
C160 C 0.67913 0.63095 0.43306 0.0
H161 H 0.70155 0.68486 0.49247 0.0
H162 H 0.81719 0.62674 0.3807 0.0
H163 H 0.01662 0.69602 0.42778 0.0
H164 H 0.86018 0.53025 0.45499 0.0
Co165 Co 0.10702 0.789 0.76996 0.0
C166 C 0.12279 0.82534 0.80413 0.0
C167 C 0.04742 0.71972 0.80058 0.0
C168 C 0.05359 0.73286 0.81649 0.0
N169 N 0.09152 0.77745 0.79272 0.0
N170 N 0.10096 0.79889 0.81863 0.0
H171 H 0.16168 0.878 0.80193 0.0
H172 H 1.01309 0.67069 0.79532 0.0
C173 C 0.07221 0.89986 0.76082 0.0
O174 O 0.09685 0.90509 0.74661 0.0
N175 N 0.12105 0.79852 0.74727 0.0
C176 C 0.17887 0.81356 0.73932 0.0
C177 C 0.16459 0.80484 0.72342 0.0
C178 C 0.07188 0.77818 0.73607 0.0
N179 N 0.09757 0.78279 0.72151 0.0
C180 C 0.23984 0.83632 0.78179 0.0
C181 C 0.30546 0.96277 0.76722 0.0
C182 C 0.34418 0.93793 0.77462 0.0
C183 C 0.31087 0.87524 0.78239 0.0
C184 C 0.23384 0.92208 0.76697 0.0
N185 N 0.20213 0.8585 0.77372 0.0
H186 H 0.21503 0.78648 0.78732 0.0
H187 H 0.20514 0.94005 0.76045 0.0
H188 H 0.2275 0.82704 0.74468 0.0
H189 H 0.01831 0.75959 0.73856 0.0
O190 O 0.12261 0.71255 0.76899 0.0
O191 O 0.02074 0.70377 0.76623 0.0
O192 O 0.07353 0.8583 0.77094 0.0
C193 C 0.05784 0.67402 0.76639 0.0
H194 H 0.02634 0.69645 0.82581 0.0
H195 H 0.2001 0.81208 0.71403 0.0
H196 H 0.33026 0.01149 0.76112 0.0
H197 H 0.33958 0.85501 0.78832 0.0
Co198 Co 0.92215 0.69669 0.60467 0.0
C199 C 0.90641 0.71731 0.57051 0.0
C200 C 0.98173 0.68698 0.57406 0.0
C201 C 0.97557 0.69397 0.55814 0.0
N202 N 0.93766 0.70064 0.58191 0.0
N203 N 0.92823 0.71269 0.55601 0.0
H204 H 0.86755 0.73112 0.57271 0.0
H205 H 0.01603 0.67223 0.57931 0.0
C206 C 0.95698 0.84236 0.61382 0.0
O207 O 0.93234 0.82295 0.62803 0.0
N208 N 0.90812 0.69218 0.62737 0.0
C209 C 0.85031 0.64941 0.63532 0.0
C210 C 0.86459 0.65494 0.65122 0.0
C211 C 0.9573 0.72099 0.63857 0.0
N212 N 0.93161 0.6999 0.65312 0.0
C213 C 0.78934 0.61122 0.59284 0.0
C214 C 0.72372 0.67206 0.60742 0.0
C215 C 0.685 0.60851 0.60002 0.0
C216 C 0.71832 0.57914 0.59224 0.0
C217 C 0.79534 0.70298 0.60767 0.0
N218 N 0.82705 0.6711 0.60092 0.0
H219 H 0.81415 0.58621 0.58731 0.0
H220 H 0.82404 0.74963 0.61419 0.0
H221 H 0.80168 0.61426 0.62996 0.0
H222 H 1.01087 0.75596 0.63608 0.0
O223 O 0.90656 0.60465 0.60564 0.0
O224 O 1.00843 0.69772 0.60841 0.0
O225 O 0.95565 0.79948 0.60369 0.0
C226 C 0.97132 0.63088 0.60824 0.0
H227 H 1.00279 0.68478 0.54883 0.0
H228 H 0.82907 0.62666 0.6606 0.0
H229 H 0.69892 0.69597 0.61353 0.0
H230 H 0.68961 0.5302 0.58632 0.0
Co231 Co 0.23515 0.91702 0.93801 0.0
C232 C 0.19879 0.90126 0.90385 0.0
C233 C 0.30442 0.97658 0.9074 0.0
C234 C 0.29127 0.97041 0.89148 0.0
N235 N 0.24669 0.9325 0.91525 0.0
N236 N 0.22522 0.92308 0.88935 0.0
H237 H 0.14612 0.8624 0.90605 0.0
H238 H 0.35346 0.01087 0.91265 0.0
C239 C 0.12429 0.95184 0.94716 0.0
O240 O 0.11906 0.92721 0.96137 0.0
N241 N 0.22562 0.903 0.96071 0.0
C242 C 0.21057 0.84519 0.96866 0.0
C243 C 0.2193 0.85947 0.98456 0.0
C244 C 0.24596 0.95218 0.9719 0.0
N245 N 0.24135 0.9265 0.98646 0.0
C246 C 0.1878 0.78418 0.92618 0.0
C247 C 0.06136 0.71858 0.94075 0.0
C248 C 0.08619 0.67985 0.93336 0.0
C249 C 0.14887 0.71316 0.92558 0.0
C250 C 0.10206 0.7902 0.94101 0.0
N251 N 0.16564 0.8219 0.93426 0.0
H252 H 0.23764 0.809 0.92066 0.0
H253 H 0.0841 0.8189 0.94753 0.0
H254 H 0.1971 0.79654 0.9633 0.0
H255 H 0.26455 1.00575 0.96942 0.0
O256 O 0.31158 0.90141 0.93898 0.0
O257 O 0.32038 1.0033 0.94175 0.0
O258 O 0.16586 0.95052 0.93703 0.0
C259 C 0.35012 0.96618 0.94158 0.0
H260 H 0.32768 0.99763 0.88217 0.0
H261 H 0.21205 0.82396 0.99395 0.0
H262 H 1.01265 0.69378 0.94686 0.0
H263 H 0.1691 0.68444 0.91965 0.0
Co264 Co 0.32781 0.23041 0.27134 0.0
C265 C 0.30714 0.19401 0.23718 0.0
C266 C 0.33757 0.29968 0.24072 0.0
C267 C 0.33056 0.28651 0.22481 0.0
N268 N 0.32386 0.24194 0.24858 0.0
N269 N 0.31178 0.22044 0.22268 0.0
H270 H 0.29328 0.14133 0.23939 0.0
H271 H 0.35238 0.34875 0.24597 0.0
C272 C 0.18214 0.11957 0.28049 0.0
O273 O 0.20155 0.11435 0.2947 0.0
N274 N 0.33232 0.22089 0.29404 0.0
C275 C 0.37509 0.20585 0.30199 0.0
C276 C 0.36955 0.2146 0.31789 0.0
C277 C 0.30349 0.24126 0.30523 0.0
N278 N 0.32458 0.23666 0.31979 0.0
C279 C 0.41326 0.18303 0.25951 0.0
C280 C 0.35247 0.05661 0.27409 0.0
C281 C 0.41601 0.08142 0.26669 0.0
C282 C 0.44536 0.14409 0.25891 0.0
C283 C 0.32155 0.09731 0.27435 0.0
N284 N 0.3534 0.16088 0.26759 0.0
H285 H 0.43827 0.23285 0.25397 0.0
H286 H 0.2749 0.07937 0.28087 0.0
H287 H 0.41025 0.19237 0.29663 0.0
H288 H 0.26852 0.25986 0.30275 0.0
O289 O 0.41985 0.30683 0.27231 0.0
O290 O 0.32679 0.31567 0.27507 0.0
O291 O 0.22503 0.16113 0.27036 0.0
C292 C 0.39363 0.34539 0.27491 0.0
H293 H 0.33978 0.32292 0.21549 0.0
H294 H 0.39783 0.20737 0.32727 0.0
H295 H 0.32857 1.0079 0.2802 0.0
H296 H 0.49428 0.1643 0.25297 0.0
Co297 Co 0.10715 0.32292 0.60468 0.0
C298 C 0.12295 0.30233 0.57051 0.0
C299 C 0.04761 0.33264 0.57406 0.0
C300 C 0.0538 0.32567 0.55814 0.0
N301 N 0.09168 0.31898 0.58192 0.0
N302 N 0.10115 0.30697 0.55601 0.0
H303 H 0.16181 0.28852 0.57272 0.0
H304 H 1.0133 0.34738 0.57931 0.0
C305 C 0.07234 0.17724 0.61382 0.0
O306 O 0.09697 0.19665 0.62803 0.0
N307 N 0.12114 0.3274 0.62738 0.0
C308 C 0.17894 0.37017 0.63533 0.0
C309 C 0.16465 0.36461 0.65123 0.0
C310 C 0.07196 0.29857 0.63857 0.0
N311 N 0.09762 0.31963 0.65313 0.0
C312 C 0.23997 0.40841 0.59285 0.0
C313 C 0.30559 0.34758 0.60742 0.0
C314 C 0.34431 0.41113 0.60003 0.0
C315 C 0.311 0.4405 0.59225 0.0
C316 C 0.23398 0.31665 0.60768 0.0
N317 N 0.20226 0.34853 0.60093 0.0
H318 H 0.21516 0.43342 0.58732 0.0
H319 H 0.20528 0.26999 0.6142 0.0
H320 H 0.22759 0.40533 0.62997 0.0
H321 H 0.01839 0.26359 0.63608 0.0
O322 O 0.12273 0.41495 0.60565 0.0
O323 O 0.02086 0.32187 0.60841 0.0
O324 O 0.07366 0.22013 0.60369 0.0
C325 C 0.05796 0.38871 0.60824 0.0
H326 H 0.02659 0.33487 0.54882 0.0
H327 H 0.20014 0.39287 0.66061 0.0
H328 H 0.3304 0.32366 0.61353 0.0
H329 H 0.3397 0.48944 0.58633 0.0
Co330 Co 0.79386 0.10196 0.938 0.0
C331 C 0.83022 0.11775 0.90384 0.0
C332 C 0.72461 0.04236 0.90738 0.0
C333 C 0.73776 0.04854 0.89147 0.0
N334 N 0.78233 0.08647 0.91524 0.0
N335 N 0.80379 0.09592 0.88934 0.0
H336 H 0.88287 0.15664 0.90604 0.0
H337 H 0.67558 1.00803 0.91264 0.0
C338 C 0.9047 0.06713 0.94715 0.0
O339 O 0.9099 0.09176 0.96136 0.0
N340 N 0.80337 0.11599 0.9607 0.0
C341 C 0.81841 0.1738 0.96864 0.0
C342 C 0.80965 0.15953 0.98455 0.0
C343 C 0.78299 0.06681 0.97189 0.0
N344 N 0.78759 0.0925 0.98645 0.0
C345 C 0.8412 0.2348 0.92617 0.0
C346 C 0.96764 0.30039 0.94074 0.0
C347 C 0.94282 0.33913 0.93335 0.0
C348 C 0.88013 0.30582 0.92557 0.0
C349 C 0.92694 0.22878 0.941 0.0
N350 N 0.86336 0.19707 0.93425 0.0
H351 H 0.79137 0.20999 0.92065 0.0
H352 H 0.9449 0.20007 0.94752 0.0
H353 H 0.83189 0.22245 0.96328 0.0
H354 H 0.76439 0.01323 0.96941 0.0
O355 O 0.71742 0.11756 0.93897 0.0
O356 O 0.70862 0.01568 0.94173 0.0
O357 O 0.86315 0.06846 0.93702 0.0
C358 C 0.67888 0.05279 0.94157 0.0
H359 H 0.70136 0.0213 0.88215 0.0
H360 H 0.81688 0.19504 0.99393 0.0
H361 H 0.01636 0.32519 0.94685 0.0
H362 H 0.85991 0.33454 0.91965 0.0
Co363 Co 0.70163 0.78913 0.27133 0.0
C364 C 0.72217 0.82546 0.23717 0.0
C365 C 0.69199 0.71985 0.24072 0.0
C366 C 0.69894 0.73298 0.22481 0.0
N367 N 0.70559 0.77758 0.24858 0.0
N368 N 0.71757 0.79901 0.22267 0.0
H369 H 0.73592 0.87811 0.23937 0.0
H370 H 0.67731 0.67082 0.24598 0.0
C371 C 0.8473 0.89998 0.28048 0.0
O372 O 0.82788 0.90521 0.29469 0.0
N373 N 0.69713 0.79866 0.29403 0.0
C374 C 0.65436 0.81371 0.30198 0.0
C375 C 0.6599 0.80498 0.31788 0.0
C376 C 0.72595 0.77831 0.30523 0.0
N377 N 0.70487 0.78292 0.31979 0.0
C378 C 0.61614 0.83647 0.25951 0.0
C379 C 0.67697 0.96293 0.27408 0.0
C380 C 0.61341 0.9381 0.26668 0.0
C381 C 0.58405 0.87541 0.25891 0.0
C382 C 0.7079 0.92223 0.27433 0.0
N383 N 0.67603 0.85864 0.26758 0.0
H384 H 0.59113 0.78664 0.25398 0.0
H385 H 0.75456 0.94019 0.28085 0.0
H386 H 0.6192 0.82719 0.29662 0.0
H387 H 0.76093 0.75971 0.30274 0.0
O388 O 0.6096 0.71269 0.27231 0.0
O389 O 0.70267 0.70388 0.27507 0.0
O390 O 0.80442 0.85842 0.27036 0.0
C391 C 0.63583 0.67415 0.2749 0.0
H392 H 0.68978 0.69656 0.21549 0.0
H393 H 0.63163 0.81223 0.32727 0.0
H394 H 0.70088 0.01165 0.28018 0.0
H395 H 0.53511 0.85518 0.25298 0.0
C396 C 0.29007 0.02664 0.02802 0.0
C397 C 0.3054 0.05645 0.04051 0.0
C398 C 0.27296 0.99235 1.01329 0.0
C399 C 0.25853 0.96254 1.0008 0.0
C400 C 0.2733 0.2855 0.36135 0.0
C401 C 0.25884 0.30086 0.37384 0.0
C402 C 0.29043 0.26835 0.34662 0.0
C403 C 0.30577 0.25388 0.33413 0.0
C404 C 0.99746 0.26826 0.69468 0.0
C405 C 0.96763 0.25378 0.70717 0.0
C406 C 0.03175 0.28542 0.67995 0.0
C407 C 0.06157 0.30079 0.66747 0.0
C408 C 0.75587 0.02665 1.01328 0.0
C409 C 0.77035 0.05646 1.00079 0.0
C410 C 0.7387 0.99237 0.02801 0.0
C411 C 0.72333 0.96257 0.0405 0.0
C412 C 0.73905 0.75127 0.34662 0.0
C413 C 0.7237 0.76572 0.33413 0.0
C414 C 0.7562 0.73414 0.36135 0.0
C415 C 0.77066 0.7188 0.37384 0.0
C416 C 0.03173 0.75115 0.69468 0.0
C417 C 0.06154 0.7656 0.70717 0.0
C418 C 0.99745 0.73403 0.67995 0.0
C419 C 0.96764 0.7187 0.66746 0.0
C420 C 0.54345 1.00528 0.09709 0.0
C421 C 0.59039 0.99392 0.09806 0.0
C422 C 0.48517 0.01376 0.0971 0.0
C423 C 0.43822 0.02511 0.09807 0.0
C424 C 0.48138 0.48071 0.43043 0.0
C425 C 0.42309 0.43377 0.4314 0.0
C426 C 0.54813 0.53899 0.43043 0.0
C427 C 0.60643 0.58593 0.4314 0.0
C428 C 0.01877 0.54301 0.76376 0.0
C429 C 0.03013 0.60131 0.76473 0.0
C430 C 1.01028 0.47625 0.76376 0.0
C431 C 0.99891 0.41794 0.76473 0.0
C432 C 0.01887 0.48065 0.61088 0.0
C433 C 0.03024 0.43371 0.60991 0.0
C434 C 1.01039 0.53892 0.61088 0.0
C435 C 0.99903 0.58586 0.60991 0.0
C436 C 0.54788 0.01373 0.9442 0.0
C437 C 0.60618 0.02509 0.94323 0.0
C438 C 0.48112 1.00524 0.94421 0.0
C439 C 0.42282 0.99388 0.94324 0.0
C440 C 0.4856 0.47639 0.27754 0.0
C441 C 0.43865 0.4181 0.27657 0.0
C442 C 0.54388 0.54314 0.27754 0.0
C443 C 0.59082 0.60144 0.27657 0.0
C444 C 0.3002 0.16447 0.19505 0.0
C445 C 0.30506 0.18848 0.20804 0.0
C446 C 0.30014 0.1405 0.1796 0.0
C447 C 0.30489 0.12129 0.1666 0.0
C448 C 0.16955 0.29552 0.51293 0.0
C449 C 0.19354 0.30033 0.49993 0.0
C450 C 0.14561 0.29552 0.52838 0.0
C451 C 0.12643 0.30031 0.54137 0.0
C452 C 0.88359 0.16434 0.84625 0.0
C453 C 0.90277 0.18833 0.83326 0.0
C454 C 0.85967 0.14039 0.8617 0.0
C455 C 0.8357 0.1212 0.8747 0.0
C456 C 0.72883 0.87874 0.17958 0.0
C457 C 0.72397 0.89789 0.16659 0.0
C458 C 0.7289 0.85484 0.19503 0.0
C459 C 0.72415 0.83089 0.20803 0.0
C460 C 0.85989 0.72418 0.51293 0.0
C461 C 0.83592 0.71938 0.49993 0.0
C462 C 0.88381 0.72417 0.52838 0.0
C463 C 0.90298 0.71936 0.54137 0.0
C464 C 0.16933 0.87866 0.86172 0.0
C465 C 0.1933 0.89783 0.87471 0.0
C466 C 0.1454 0.85476 0.84626 0.0
C467 C 0.12622 0.83079 0.83327 0.0
C468 C 0.53742 0.54512 0.10662 0.0
C469 C 0.57463 0.60638 0.10676 0.0
C470 C 0.49114 0.47392 0.10662 0.0
C471 C 0.45394 0.41266 0.10676 0.0
C472 C 0.02724 0.48673 0.43997 0.0
C473 C 0.0513 0.44954 0.44011 0.0
C474 C 1.0023 0.53301 0.43997 0.0
C475 C 0.97823 0.5702 0.44011 0.0
C476 C 0.47892 0.99713 0.77329 0.0
C477 C 0.41767 0.97306 0.77344 0.0
C478 C 0.55013 0.02206 0.77329 0.0
C479 C 0.61138 0.04613 0.77343 0.0
C480 C 0.55026 0.53296 0.60135 0.0
C481 C 0.61151 0.57015 0.6012 0.0
C482 C 0.47906 0.48668 0.60135 0.0
C483 C 0.4178 0.44949 0.60121 0.0
C484 C 0.02697 0.54509 0.93467 0.0
C485 C 0.05104 0.60635 0.93453 0.0
C486 C 1.00203 0.47388 0.93467 0.0
C487 C 0.97796 0.41262 0.93453 0.0
C488 C 0.53785 0.99729 0.26801 0.0
C489 C 0.57505 0.97323 0.26786 0.0
C490 C 0.49157 0.02222 0.26801 0.0
C491 C 0.45437 0.04628 0.26787 0.0
C492 C 0.05003 0.02087 0.09995 0.0
C493 C 0.11064 0.04087 0.09834 0.0
C494 C 0.97859 0.99816 0.09995 0.0
C495 C 0.91798 0.97816 0.09834 0.0
C496 C 0.03912 0.04557 0.43328 0.0
C497 C 0.07975 0.10619 0.43168 0.0
C498 C 0.99038 0.97414 0.43328 0.0
C499 C 0.94975 0.91353 0.43168 0.0
C500 C 1.00318 0.03399 0.76661 0.0
C501 C 0.98318 0.07461 0.76501 0.0
C502 C 0.02589 0.98527 0.76661 0.0
C503 C 0.0459 0.94465 0.76501 0.0
C504 C 1.0033 0.97408 0.60802 0.0
C505 C 0.98329 0.91346 0.60963 0.0
C506 C 0.02602 0.04552 0.60802 0.0
C507 C 0.04603 0.10614 0.60963 0.0
C508 C 0.99014 0.02084 0.94136 0.0
C509 C 0.94951 0.04084 0.94296 0.0
C510 C 0.03887 0.99814 0.94136 0.0
C511 C 0.07949 0.97814 0.94296 0.0
C512 C 0.05044 0.03414 0.27469 0.0
C513 C 0.11105 0.07476 0.27629 0.0
C514 C 0.97901 0.98541 0.27469 0.0
C515 C 0.91839 0.94478 0.27629 0.0
loop_
_geom_bond_atom_site_label_1
_geom_bond_atom_site_label_2
_geom_bond_distance
_geom_bond_site_symmetry_2
_ccdc_geom_bond_type
Co0 N4 2.148 . S
Co0 N10 2.128 . S
Co0 N20 2.194 . S
Co0 O25 2.351 . S
Co0 O26 2.155 . S
Co0 O27 2.096 . S
C1 N4 1.301 . S
C1 N5 1.328 . S
C1 H6 0.930 . S
C2 C3 1.333 . S
C2 N4 1.317 . S
C2 H7 0.930 . S
C3 C2 1.333 . S
C3 N5 1.350 . S
C3 H29 0.931 . S
N4 Co0 2.148 . S
N4 C1 1.301 . S
N4 C2 1.317 . S
N5 C1 1.328 . S
N5 C3 1.350 . S
H6 C1 0.930 . S
H7 C2 0.930 . S
C8 O9 1.224 . S
C8 O27 1.247 . S
O9 C8 1.224 . S
N10 Co0 2.128 . S
N10 C11 1.355 . S
N10 C13 1.311 . S
C11 N10 1.355 . S
C11 C12 1.363 . S
C11 H23 0.929 . S
C12 C11 1.363 . S
C12 N14 1.375 . S
C12 H30 0.931 . S
C13 N10 1.311 . S
C13 N14 1.347 . S
C13 H24 0.929 . S
N14 C12 1.375 . S
N14 C13 1.347 . S
C15 C18 1.365 . S
C15 N20 1.328 . S
C15 H21 0.929 . S
C16 C17 1.362 . S
C16 C19 1.378 . S
C16 H31 0.929 . S
C17 C16 1.362 . S
C17 C18 1.366 . S
C18 C15 1.365 . S
C18 C17 1.366 . S
C18 H32 0.930 . S
C19 C16 1.378 . S
C19 N20 1.315 . S
C19 H22 0.930 . S
N20 Co0 2.194 . S
N20 C15 1.328 . S
N20 C19 1.315 . S
H21 C15 0.929 . S
H22 C19 0.930 . S
H23 C11 0.929 . S
H24 C13 0.929 . S
O25 Co0 2.351 . S
O25 C28 1.244 . S
O26 Co0 2.155 . S
O26 C28 1.240 . S
O27 Co0 2.096 . S
O27 C8 1.247 . S
C28 O25 1.244 . S
C28 O26 1.240 . S
H29 C3 0.931 . S
H30 C12 0.931 . S
H31 C16 0.929 . S
H32 C18 0.930 . S
Co33 N37 2.148 . S
Co33 N43 2.128 . S
Co33 N53 2.194 . S
Co33 O58 2.351 . S
Co33 O59 2.155 . S
Co33 O60 2.096 . S
C34 N37 1.301 . S
C34 N38 1.328 . S
C34 H39 0.930 . S
C35 C36 1.333 . S
C35 N37 1.317 . S
C35 H40 0.930 . S
C36 C35 1.333 . S
C36 N38 1.350 . S
C36 H62 0.931 . S
N37 Co33 2.148 . S
N37 C34 1.301 . S
N37 C35 1.317 . S
N38 C34 1.328 . S
N38 C36 1.350 . S
H39 C34 0.930 . S
H40 C35 0.930 . S
C41 O42 1.224 . S
C41 O60 1.247 . S
O42 C41 1.224 . S
N43 Co33 2.128 . S
N43 C44 1.355 . S
N43 C46 1.311 . S
C44 N43 1.355 . S
C44 C45 1.363 . S
C44 H56 0.929 . S
C45 C44 1.363 . S
C45 N47 1.375 . S
C45 H63 0.931 . S
C46 N43 1.311 . S
C46 N47 1.347 . S
C46 H57 0.929 . S
N47 C45 1.375 . S
N47 C46 1.347 . S
C48 C51 1.365 . S
C48 N53 1.328 . S
C48 H54 0.929 . S
C49 C50 1.362 . S
C49 C52 1.378 . S
C49 H64 0.929 1_455 S
C50 C49 1.362 . S
C50 C51 1.366 . S
C51 C48 1.365 . S
C51 C50 1.366 . S
C51 H65 0.930 . S
C52 C49 1.378 . S
C52 N53 1.315 . S
C52 H55 0.930 . S
N53 Co33 2.194 . S
N53 C48 1.328 . S
N53 C52 1.315 . S
H54 C48 0.929 . S
H55 C52 0.930 . S
H56 C44 0.929 . S
H57 C46 0.929 . S
O58 Co33 2.351 . S
O58 C61 1.244 . S
O59 Co33 2.155 . S
O59 C61 1.240 . S
O60 Co33 2.096 . S
O60 C41 1.247 . S
C61 O58 1.244 . S
C61 O59 1.240 . S
H62 C36 0.931 . S
H63 C45 0.931 . S
H64 C49 0.929 1_655 S
H65 C51 0.930 . S
Co66 N70 2.148 . S
Co66 N76 2.128 . S
Co66 N86 2.194 . S
Co66 O91 2.351 . S
Co66 O92 2.155 . S
Co66 O93 2.096 . S
C67 N70 1.301 . S
C67 N71 1.328 . S
C67 H72 0.930 . S
C68 C69 1.333 . S
C68 N70 1.317 . S
C68 H73 0.930 . S
C69 C68 1.333 . S
C69 N71 1.350 . S
C69 H95 0.931 . S
N70 Co66 2.148 . S
N70 C67 1.301 . S
N70 C68 1.317 . S
N71 C67 1.328 . S
N71 C69 1.350 . S
H72 C67 0.930 . S
H73 C68 0.930 . S
C74 O75 1.224 . S
C74 O93 1.247 . S
O75 C74 1.224 . S
N76 Co66 2.128 . S
N76 C77 1.355 . S
N76 C79 1.311 . S
C77 N76 1.355 . S
C77 C78 1.363 . S
C77 H89 0.929 . S
C78 C77 1.363 . S
C78 N80 1.375 . S
C78 H96 0.931 . S
C79 N76 1.311 . S
C79 N80 1.347 . S
C79 H90 0.929 . S
N80 C78 1.375 . S
N80 C79 1.347 . S
C81 C84 1.365 . S
C81 N86 1.328 . S
C81 H87 0.929 . S
C82 C83 1.362 . S
C82 C85 1.378 . S
C82 H97 0.929 1_545 S
C83 C82 1.362 . S
C83 C84 1.366 . S
C84 C81 1.365 . S
C84 C83 1.366 . S
C84 H98 0.930 . S
C85 C82 1.378 . S
C85 N86 1.315 . S
C85 H88 0.930 . S
N86 Co66 2.194 . S
N86 C81 1.328 . S
N86 C85 1.315 . S
H87 C81 0.929 . S
H88 C85 0.930 . S
H89 C77 0.929 . S
H90 C79 0.929 . S
O91 Co66 2.351 . S
O91 C94 1.244 . S
O92 Co66 2.155 . S
O92 C94 1.240 . S
O93 Co66 2.096 . S
O93 C74 1.247 . S
C94 O91 1.244 . S
C94 O92 1.240 . S
H95 C69 0.931 . S
H96 C78 0.931 . S
H97 C82 0.929 1_565 S
H98 C84 0.930 . S
Co99 N103 2.148 . S
Co99 N109 2.128 . S
Co99 N119 2.194 . S
Co99 O124 2.351 . S
Co99 O125 2.155 . S
Co99 O126 2.096 . S
C100 N103 1.301 . S
C100 N104 1.328 . S
C100 H105 0.930 . S
C101 C102 1.333 . S
C101 N103 1.317 . S
C101 H106 0.930 . S
C102 C101 1.333 . S
C102 N104 1.350 . S
C102 H128 0.931 . S
N103 Co99 2.148 . S
N103 C100 1.301 . S
N103 C101 1.317 . S
N104 C100 1.328 . S
N104 C102 1.350 . S
H105 C100 0.930 . S
H106 C101 0.930 . S
C107 O108 1.224 . S
C107 O126 1.247 . S
O108 C107 1.224 . S
N109 Co99 2.128 . S
N109 C110 1.355 . S
N109 C112 1.311 . S
C110 N109 1.355 . S
C110 C111 1.363 . S
C110 H122 0.929 . S
C111 C110 1.363 . S
C111 N113 1.375 . S
C111 H129 0.931 . S
C112 N109 1.311 . S
C112 N113 1.347 . S
C112 H123 0.929 . S
N113 C111 1.375 . S
N113 C112 1.347 . S
C114 C117 1.365 . S
C114 N119 1.328 . S
C114 H120 0.929 . S
C115 C116 1.362 . S
C115 C118 1.378 . S
C115 H130 0.929 . S
C116 C115 1.362 . S
C116 C117 1.366 . S
C117 C114 1.365 . S
C117 C116 1.366 . S
C117 H131 0.930 . S
C118 C115 1.378 . S
C118 N119 1.315 . S
C118 H121 0.930 . S
N119 Co99 2.194 . S
N119 C114 1.328 . S
N119 C118 1.315 . S
H120 C114 0.929 . S
H121 C118 0.930 . S
H122 C110 0.929 . S
H123 C112 0.929 . S
O124 Co99 2.351 . S
O124 C127 1.244 . S
O125 Co99 2.155 . S
O125 C127 1.240 . S
O126 Co99 2.096 . S
O126 C107 1.247 . S
C127 O124 1.244 . S
C127 O125 1.240 . S
H128 C102 0.931 . S
H129 C111 0.931 . S
H130 C115 0.929 . S
H131 C117 0.930 . S
Co132 N136 2.148 . S
Co132 N142 2.128 . S
Co132 N152 2.194 . S
Co132 O157 2.351 . S
Co132 O158 2.155 . S
Co132 O159 2.096 . S
C133 N136 1.301 . S
C133 N137 1.328 . S
C133 H138 0.930 . S
C134 C135 1.333 . S
C134 N136 1.317 . S
C134 H139 0.930 . S
C135 C134 1.333 . S
C135 N137 1.350 . S
C135 H161 0.931 . S
N136 Co132 2.148 . S
N136 C133 1.301 . S
N136 C134 1.317 . S
N137 C133 1.328 . S
N137 C135 1.350 . S
H138 C133 0.930 . S
H139 C134 0.930 . S
C140 O141 1.224 . S
C140 O159 1.247 . S
O141 C140 1.224 . S
N142 Co132 2.128 . S
N142 C143 1.355 . S
N142 C145 1.311 . S
C143 N142 1.355 . S
C143 C144 1.363 . S
C143 H155 0.929 . S
C144 C143 1.363 . S
C144 N146 1.375 . S
C144 H162 0.931 . S
C145 N142 1.311 . S
C145 N146 1.347 . S
C145 H156 0.929 . S
N146 C144 1.375 . S
N146 C145 1.347 . S
C147 C150 1.365 . S
C147 N152 1.328 . S
C147 H153 0.929 . S
C148 C149 1.362 . S
C148 C151 1.378 . S
C148 H163 0.929 1_655 S
C149 C148 1.362 . S
C149 C150 1.366 . S
C150 C147 1.365 . S
C150 C149 1.366 . S
C150 H164 0.930 . S
C151 C148 1.378 . S
C151 N152 1.315 . S
C151 H154 0.930 . S
N152 Co132 2.194 . S
N152 C147 1.328 . S
N152 C151 1.315 . S
H153 C147 0.929 . S
H154 C151 0.930 . S
H155 C143 0.929 . S
H156 C145 0.929 . S
O157 Co132 2.351 . S
O157 C160 1.244 . S
O158 Co132 2.155 . S
O158 C160 1.240 . S
O159 Co132 2.096 . S
O159 C140 1.247 . S
C160 O157 1.244 . S
C160 O158 1.240 . S
H161 C135 0.931 . S
H162 C144 0.931 . S
H163 C148 0.929 1_455 S
H164 C150 0.930 . S
Co165 N169 2.148 . S
Co165 N175 2.128 . S
Co165 N185 2.194 . S
Co165 O190 2.351 . S
Co165 O191 2.155 . S
Co165 O192 2.096 . S
C166 N169 1.301 . S
C166 N170 1.328 . S
C166 H171 0.930 . S
C167 C168 1.333 . S
C167 N169 1.317 . S
C167 H172 0.930 . S
C168 C167 1.333 . S
C168 N170 1.350 . S
C168 H194 0.931 . S
N169 Co165 2.148 . S
N169 C166 1.301 . S
N169 C167 1.317 . S
N170 C166 1.328 . S
N170 C168 1.350 . S
H171 C166 0.930 . S
H172 C167 0.930 . S
C173 O174 1.224 . S
C173 O192 1.247 . S
O174 C173 1.224 . S
N175 Co165 2.128 . S
N175 C176 1.355 . S
N175 C178 1.311 . S
C176 N175 1.355 . S
C176 C177 1.363 . S
C176 H188 0.929 . S
C177 C176 1.363 . S
C177 N179 1.375 . S
C177 H195 0.931 . S
C178 N175 1.311 . S
C178 N179 1.347 . S
C178 H189 0.929 . S
N179 C177 1.375 . S
N179 C178 1.347 . S
C180 C183 1.365 . S
C180 N185 1.328 . S
C180 H186 0.929 . S
C181 C182 1.362 . S
C181 C184 1.378 . S
C181 H196 0.929 1_565 S
C182 C181 1.362 . S
C182 C183 1.366 . S
C183 C180 1.365 . S
C183 C182 1.366 . S
C183 H197 0.930 . S
C184 C181 1.378 . S
C184 N185 1.315 . S
C184 H187 0.930 . S
N185 Co165 2.194 . S
N185 C180 1.328 . S
N185 C184 1.315 . S
H186 C180 0.929 . S
H187 C184 0.930 . S
H188 C176 0.929 . S
H189 C178 0.929 . S
O190 Co165 2.351 . S
O190 C193 1.244 . S
O191 Co165 2.155 . S
O191 C193 1.240 . S
O192 Co165 2.096 . S
O192 C173 1.247 . S
C193 O190 1.244 . S
C193 O191 1.240 . S
H194 C168 0.931 . S
H195 C177 0.931 . S
H196 C181 0.929 1_545 S
H197 C183 0.930 . S
Co198 N202 2.148 . S
Co198 N208 2.128 . S
Co198 N218 2.194 . S
Co198 O223 2.351 . S
Co198 O224 2.155 . S
Co198 O225 2.096 . S
C199 N202 1.301 . S
C199 N203 1.328 . S
C199 H204 0.930 . S
C200 C201 1.333 . S
C200 N202 1.317 . S
C200 H205 0.930 . S
C201 C200 1.333 . S
C201 N203 1.350 . S
C201 H227 0.931 . S
N202 Co198 2.148 . S
N202 C199 1.301 . S
N202 C200 1.317 . S
N203 C199 1.328 . S
N203 C201 1.350 . S
H204 C199 0.930 . S
H205 C200 0.930 . S
C206 O207 1.224 . S
C206 O225 1.247 . S
O207 C206 1.224 . S
N208 Co198 2.128 . S
N208 C209 1.355 . S
N208 C211 1.311 . S
C209 N208 1.355 . S
C209 C210 1.363 . S
C209 H221 0.929 . S
C210 C209 1.363 . S
C210 N212 1.375 . S
C210 H228 0.931 . S
C211 N208 1.311 . S
C211 N212 1.347 . S
C211 H222 0.929 . S
N212 C210 1.375 . S
N212 C211 1.347 . S
C213 C216 1.365 . S
C213 N218 1.328 . S
C213 H219 0.929 . S
C214 C215 1.362 . S
C214 C217 1.378 . S
C214 H229 0.929 . S
C215 C214 1.362 . S
C215 C216 1.366 . S
C216 C213 1.365 . S
C216 C215 1.366 . S
C216 H230 0.930 . S
C217 C214 1.378 . S
C217 N218 1.315 . S
C217 H220 0.930 . S
N218 Co198 2.194 . S
N218 C213 1.328 . S
N218 C217 1.315 . S
H219 C213 0.929 . S
H220 C217 0.930 . S
H221 C209 0.929 . S
H222 C211 0.929 . S
O223 Co198 2.351 . S
O223 C226 1.244 . S
O224 Co198 2.155 . S
O224 C226 1.240 . S
O225 Co198 2.096 . S
O225 C206 1.247 . S
C226 O223 1.244 . S
C226 O224 1.240 . S
H227 C201 0.931 . S
H228 C210 0.931 . S
H229 C214 0.929 . S
H230 C216 0.930 . S
Co231 N235 2.148 . S
Co231 N241 2.128 . S
Co231 N251 2.194 . S
Co231 O256 2.351 . S
Co231 O257 2.155 . S
Co231 O258 2.096 . S
C232 N235 1.301 . S
C232 N236 1.328 . S
C232 H237 0.930 . S
C233 C234 1.333 . S
C233 N235 1.317 . S
C233 H238 0.930 . S
C234 C233 1.333 . S
C234 N236 1.350 . S
C234 H260 0.931 . S
N235 Co231 2.148 . S
N235 C232 1.301 . S
N235 C233 1.317 . S
N236 C232 1.328 . S
N236 C234 1.350 . S
H237 C232 0.930 . S
H238 C233 0.930 . S
C239 O240 1.224 . S
C239 O258 1.247 . S
O240 C239 1.224 . S
N241 Co231 2.128 . S
N241 C242 1.355 . S
N241 C244 1.311 . S
C242 N241 1.355 . S
C242 C243 1.363 . S
C242 H254 0.929 . S
C243 C242 1.363 . S
C243 N245 1.375 . S
C243 H261 0.931 . S
C244 N241 1.311 . S
C244 N245 1.347 . S
C244 H255 0.929 . S
N245 C243 1.375 . S
N245 C244 1.347 . S
C246 C249 1.365 . S
C246 N251 1.328 . S
C246 H252 0.929 . S
C247 C248 1.362 . S
C247 C250 1.378 . S
C247 H262 0.929 1_455 S
C248 C247 1.362 . S
C248 C249 1.366 . S
C249 C246 1.365 . S
C249 C248 1.366 . S
C249 H263 0.930 . S
C250 C247 1.378 . S
C250 N251 1.315 . S
C250 H253 0.930 . S
N251 Co231 2.194 . S
N251 C246 1.328 . S
N251 C250 1.315 . S
H252 C246 0.929 . S
H253 C250 0.930 . S
H254 C242 0.929 . S
H255 C244 0.929 . S
O256 Co231 2.351 . S
O256 C259 1.244 . S
O257 Co231 2.155 . S
O257 C259 1.240 . S
O258 Co231 2.096 . S
O258 C239 1.247 . S
C259 O256 1.244 . S
C259 O257 1.240 . S
H260 C234 0.931 . S
H261 C243 0.931 . S
H262 C247 0.929 1_655 S
H263 C249 0.930 . S
Co264 N268 2.148 . S
Co264 N274 2.128 . S
Co264 N284 2.194 . S
Co264 O289 2.351 . S
Co264 O290 2.155 . S
Co264 O291 2.096 . S
C265 N268 1.301 . S
C265 N269 1.328 . S
C265 H270 0.930 . S
C266 C267 1.333 . S
C266 N268 1.317 . S
C266 H271 0.930 . S
C267 C266 1.333 . S
C267 N269 1.350 . S
C267 H293 0.931 . S
N268 Co264 2.148 . S
N268 C265 1.301 . S
N268 C266 1.317 . S
N269 C265 1.328 . S
N269 C267 1.350 . S
H270 C265 0.930 . S
H271 C266 0.930 . S
C272 O273 1.224 . S
C272 O291 1.247 . S
O273 C272 1.224 . S
N274 Co264 2.128 . S
N274 C275 1.355 . S
N274 C277 1.311 . S
C275 N274 1.355 . S
C275 C276 1.363 . S
C275 H287 0.929 . S
C276 C275 1.363 . S
C276 N278 1.375 . S
C276 H294 0.931 . S
C277 N274 1.311 . S
C277 N278 1.347 . S
C277 H288 0.929 . S
N278 C276 1.375 . S
N278 C277 1.347 . S
C279 C282 1.365 . S
C279 N284 1.328 . S
C279 H285 0.929 . S
C280 C281 1.362 . S
C280 C283 1.378 . S
C280 H295 0.929 1_545 S
C281 C280 1.362 . S
C281 C282 1.366 . S
C282 C279 1.365 . S
C282 C281 1.366 . S
C282 H296 0.930 . S
C283 C280 1.378 . S
C283 N284 1.315 . S
C283 H286 0.930 . S
N284 Co264 2.194 . S
N284 C279 1.328 . S
N284 C283 1.315 . S
H285 C279 0.929 . S
H286 C283 0.930 . S
H287 C275 0.929 . S
H288 C277 0.929 . S
O289 Co264 2.351 . S
O289 C292 1.244 . S
O290 Co264 2.155 . S
O290 C292 1.240 . S
O291 Co264 2.096 . S
O291 C272 1.247 . S
C292 O289 1.244 . S
C292 O290 1.240 . S
H293 C267 0.931 . S
H294 C276 0.931 . S
H295 C280 0.929 1_565 S
H296 C282 0.930 . S
Co297 N301 2.148 . S
Co297 N307 2.128 . S
Co297 N317 2.194 . S
Co297 O322 2.351 . S
Co297 O323 2.155 . S
Co297 O324 2.096 . S
C298 N301 1.301 . S
C298 N302 1.328 . S
C298 H303 0.930 . S
C299 C300 1.333 . S
C299 N301 1.317 . S
C299 H304 0.930 . S
C300 C299 1.333 . S
C300 N302 1.350 . S
C300 H326 0.931 . S
N301 Co297 2.148 . S
N301 C298 1.301 . S
N301 C299 1.317 . S
N302 C298 1.328 . S
N302 C300 1.350 . S
H303 C298 0.930 . S
H304 C299 0.930 . S
C305 O306 1.224 . S
C305 O324 1.247 . S
O306 C305 1.224 . S
N307 Co297 2.128 . S
N307 C308 1.355 . S
N307 C310 1.311 . S
C308 N307 1.355 . S
C308 C309 1.363 . S
C308 H320 0.929 . S
C309 C308 1.363 . S
C309 N311 1.375 . S
C309 H327 0.931 . S
C310 N307 1.311 . S
C310 N311 1.347 . S
C310 H321 0.929 . S
N311 C309 1.375 . S
N311 C310 1.347 . S
C312 C315 1.365 . S
C312 N317 1.328 . S
C312 H318 0.929 . S
C313 C314 1.362 . S
C313 C316 1.378 . S
C313 H328 0.929 . S
C314 C313 1.362 . S
C314 C315 1.366 . S
C315 C312 1.365 . S
C315 C314 1.366 . S
C315 H329 0.930 . S
C316 C313 1.378 . S
C316 N317 1.315 . S
C316 H319 0.930 . S
N317 Co297 2.194 . S
N317 C312 1.328 . S
N317 C316 1.315 . S
H318 C312 0.929 . S
H319 C316 0.930 . S
H320 C308 0.929 . S
H321 C310 0.929 . S
O322 Co297 2.351 . S
O322 C325 1.244 . S
O323 Co297 2.155 . S
O323 C325 1.240 . S
O324 Co297 2.096 . S
O324 C305 1.247 . S
C325 O322 1.244 . S
C325 O323 1.240 . S
H326 C300 0.931 . S
H327 C309 0.931 . S
H328 C313 0.929 . S
H329 C315 0.930 . S
Co330 N334 2.148 . S
Co330 N340 2.128 . S
Co330 N350 2.194 . S
Co330 O355 2.351 . S
Co330 O356 2.155 . S
Co330 O357 2.096 . S
C331 N334 1.301 . S
C331 N335 1.328 . S
C331 H336 0.930 . S
C332 C333 1.333 . S
C332 N334 1.317 . S
C332 H337 0.930 . S
C333 C332 1.333 . S
C333 N335 1.350 . S
C333 H359 0.931 . S
N334 Co330 2.148 . S
N334 C331 1.301 . S
N334 C332 1.317 . S
N335 C331 1.328 . S
N335 C333 1.350 . S
H336 C331 0.930 . S
H337 C332 0.930 . S
C338 O339 1.224 . S
C338 O357 1.247 . S
O339 C338 1.224 . S
N340 Co330 2.128 . S
N340 C341 1.355 . S
N340 C343 1.311 . S
C341 N340 1.355 . S
C341 C342 1.363 . S
C341 H353 0.929 . S
C342 C341 1.363 . S
C342 N344 1.375 . S
C342 H360 0.931 . S
C343 N340 1.311 . S
C343 N344 1.347 . S
C343 H354 0.929 . S
N344 C342 1.375 . S
N344 C343 1.347 . S
C345 C348 1.365 . S
C345 N350 1.328 . S
C345 H351 0.929 . S
C346 C347 1.362 . S
C346 C349 1.378 . S
C346 H361 0.929 1_655 S
C347 C346 1.362 . S
C347 C348 1.366 . S
C348 C345 1.365 . S
C348 C347 1.366 . S
C348 H362 0.930 . S
C349 C346 1.378 . S
C349 N350 1.315 . S
C349 H352 0.930 . S
N350 Co330 2.194 . S
N350 C345 1.328 . S
N350 C349 1.315 . S
H351 C345 0.929 . S
H352 C349 0.930 . S
H353 C341 0.929 . S
H354 C343 0.929 . S
O355 Co330 2.351 . S
O355 C358 1.244 . S
O356 Co330 2.155 . S
O356 C358 1.240 . S
O357 Co330 2.096 . S
O357 C338 1.247 . S
C358 O355 1.244 . S
C358 O356 1.240 . S
H359 C333 0.931 . S
H360 C342 0.931 . S
H361 C346 0.929 1_455 S
H362 C348 0.930 . S
Co363 N367 2.148 . S
Co363 N373 2.128 . S
Co363 N383 2.194 . S
Co363 O388 2.351 . S
Co363 O389 2.155 . S
Co363 O390 2.096 . S
C364 N367 1.301 . S
C364 N368 1.328 . S
C364 H369 0.930 . S
C365 C366 1.333 . S
C365 N367 1.317 . S
C365 H370 0.930 . S
C366 C365 1.333 . S
C366 N368 1.350 . S
C366 H392 0.931 . S
N367 Co363 2.148 . S
N367 C364 1.301 . S
N367 C365 1.317 . S
N368 C364 1.328 . S
N368 C366 1.350 . S
H369 C364 0.930 . S
H370 C365 0.930 . S
C371 O372 1.224 . S
C371 O390 1.247 . S
O372 C371 1.224 . S
N373 Co363 2.128 . S
N373 C374 1.355 . S
N373 C376 1.311 . S
C374 N373 1.355 . S
C374 C375 1.363 . S
C374 H386 0.929 . S
C375 C374 1.363 . S
C375 N377 1.375 . S
C375 H393 0.931 . S
C376 N373 1.311 . S
C376 N377 1.347 . S
C376 H387 0.929 . S
N377 C375 1.375 . S
N377 C376 1.347 . S
C378 C381 1.365 . S
C378 N383 1.328 . S
C378 H384 0.929 . S
C379 C380 1.362 . S
C379 C382 1.378 . S
C379 H394 0.929 1_565 S
C380 C379 1.362 . S
C380 C381 1.366 . S
C381 C378 1.365 . S
C381 C380 1.366 . S
C381 H395 0.930 . S
C382 C379 1.378 . S
C382 N383 1.315 . S
C382 H385 0.930 . S
N383 Co363 2.194 . S
N383 C378 1.328 . S
N383 C382 1.315 . S
H384 C378 0.929 . S
H385 C382 0.930 . S
H386 C374 0.929 . S
H387 C376 0.929 . S
O388 Co363 2.351 . S
O388 C391 1.244 . S
O389 Co363 2.155 . S
O389 C391 1.240 . S
O390 Co363 2.096 . S
O390 C371 1.247 . S
C391 O388 1.244 . S
C391 O389 1.240 . S
H392 C366 0.931 . S
H393 C375 0.931 . S
H394 C379 0.929 1_545 S
H395 C381 0.930 . S
C396 C397 1.170 . S
C396 C398 1.380 1_544 S
C397 C396 1.170 . S
C398 C396 1.380 1_566 S
C398 C399 1.170 . S
C399 C398 1.170 . S
C400 C401 1.170 . S
C400 C402 1.380 . S
C401 C400 1.170 . S
C402 C400 1.380 . S
C402 C403 1.170 . S
C403 C402 1.170 . S
C404 C405 1.170 . S
C404 C406 1.380 1_655 S
C405 C404 1.170 . S
C406 C404 1.380 1_455 S
C406 C407 1.170 . S
C407 C406 1.170 . S
C408 C409 1.170 . S
C408 C410 1.380 1_546 S
C409 C408 1.170 . S
C410 C408 1.380 1_564 S
C410 C411 1.170 . S
C411 C410 1.170 . S
C412 C413 1.170 . S
C412 C414 1.380 . S
C413 C412 1.170 . S
C414 C412 1.380 . S
C414 C415 1.170 . S
C415 C414 1.170 . S
C416 C417 1.170 . S
C416 C418 1.380 1_455 S
C417 C416 1.170 . S
C418 C416 1.380 1_655 S
C418 C419 1.170 . S
C419 C418 1.170 . S
C420 C421 1.170 . S
C420 C422 1.380 1_565 S
C421 C420 1.170 . S
C422 C420 1.380 1_545 S
C422 C423 1.170 . S
C423 C422 1.170 . S
C424 C425 1.170 . S
C424 C426 1.380 . S
C425 C424 1.170 . S
C426 C424 1.380 . S
C426 C427 1.170 . S
C427 C426 1.170 . S
C428 C429 1.170 . S
C428 C430 1.380 1_455 S
C429 C428 1.170 . S
C430 C428 1.380 1_655 S
C430 C431 1.170 . S
C431 C430 1.170 . S
C432 C433 1.170 . S
C432 C434 1.380 1_455 S
C433 C432 1.170 . S
C434 C432 1.380 1_655 S
C434 C435 1.170 . S
C435 C434 1.170 . S
C436 C437 1.170 . S
C436 C438 1.380 1_545 S
C437 C436 1.170 . S
C438 C436 1.380 1_565 S
C438 C439 1.170 . S
C439 C438 1.170 . S
C440 C441 1.170 . S
C440 C442 1.380 . S
C441 C440 1.170 . S
C442 C440 1.380 . S
C442 C443 1.170 . S
C443 C442 1.170 . S
C444 C445 1.170 . S
C444 C446 1.380 . S
C445 C444 1.170 . S
C446 C444 1.380 . S
C446 C447 1.170 . S
C447 C446 1.170 . S
C448 C449 1.170 . S
C448 C450 1.380 . S
C449 C448 1.170 . S
C450 C448 1.380 . S
C450 C451 1.170 . S
C451 C450 1.170 . S
C452 C453 1.170 . S
C452 C454 1.380 . S
C453 C452 1.170 . S
C454 C452 1.380 . S
C454 C455 1.170 . S
C455 C454 1.170 . S
C456 C457 1.170 . S
C456 C458 1.380 . S
C457 C456 1.170 . S
C458 C456 1.380 . S
C458 C459 1.170 . S
C459 C458 1.170 . S
C460 C461 1.170 . S
C460 C462 1.380 . S
C461 C460 1.170 . S
C462 C460 1.380 . S
C462 C463 1.170 . S
C463 C462 1.170 . S
C464 C465 1.170 . S
C464 C466 1.380 . S
C465 C464 1.170 . S
C466 C464 1.380 . S
C466 C467 1.170 . S
C467 C466 1.170 . S
C468 C469 1.170 . S
C468 C470 1.380 . S
C469 C468 1.170 . S
C470 C468 1.380 . S
C470 C471 1.170 . S
C471 C470 1.170 . S
C472 C473 1.170 . S
C472 C474 1.380 1_455 S
C473 C472 1.170 . S
C474 C472 1.380 1_655 S
C474 C475 1.170 . S
C475 C474 1.170 . S
C476 C477 1.170 . S
C476 C478 1.380 1_565 S
C477 C476 1.170 . S
C478 C476 1.380 1_545 S
C478 C479 1.170 . S
C479 C478 1.170 . S
C480 C481 1.170 . S
C480 C482 1.380 . S
C481 C480 1.170 . S
C482 C480 1.380 . S
C482 C483 1.170 . S
C483 C482 1.170 . S
C484 C485 1.170 . S
C484 C486 1.380 1_455 S
C485 C484 1.170 . S
C486 C484 1.380 1_655 S
C486 C487 1.170 . S
C487 C486 1.170 . S
C488 C489 1.170 . S
C488 C490 1.380 1_565 S
C489 C488 1.170 . S
C490 C488 1.380 1_545 S
C490 C491 1.170 . S
C491 C490 1.170 . S
C492 C493 1.170 . S
C492 C494 1.380 1_445 S
C493 C492 1.170 . S
C494 C492 1.380 1_665 S
C494 C495 1.170 . S
C495 C494 1.170 . S
C496 C497 1.170 . S
C496 C498 1.380 1_445 S
C497 C496 1.170 . S
C498 C496 1.380 1_665 S
C498 C499 1.170 . S
C499 C498 1.170 . S
C500 C501 1.170 . S
C500 C502 1.380 1_645 S
C501 C500 1.170 . S
C502 C500 1.380 1_465 S
C502 C503 1.170 . S
C503 C502 1.170 . S
C504 C505 1.170 . S
C504 C506 1.380 1_665 S
C505 C504 1.170 . S
C506 C504 1.380 1_445 S
C506 C507 1.170 . S
C507 C506 1.170 . S
C508 C509 1.170 . S
C508 C510 1.380 1_645 S
C509 C508 1.170 . S
C510 C508 1.380 1_465 S
C510 C511 1.170 . S
C511 C510 1.170 . S
C512 C513 1.170 . S
C512 C514 1.380 1_445 S
C513 C512 1.170 . S
C514 C512 1.380 1_665 S
C514 C515 1.170 . S
C515 C514 1.170 . S
C397 N14 1.623 . S
C399 N245 1.626 . S
C401 N47 1.622 . S
C403 N278 1.625 . S
C405 N80 1.624 . S
C407 N311 1.626 . S
C409 N344 1.598 . S
C411 N113 1.600 . S
C413 N377 1.626 . S
C415 N146 1.628 . S
C417 N179 1.626 . S
C419 N212 1.628 . S
C421 C127 1.756 . S
C423 C28 1.755 . S
C425 C61 1.754 . S
C427 C160 1.756 . S
C429 C193 1.756 . S
C431 C94 1.755 . S
C433 C325 1.750 . S
C435 C226 1.754 . S
C437 C358 1.756 . S
C439 C259 1.755 . S
C441 C292 1.753 . S
C443 C391 1.756 . S
C445 N269 1.544 . S
C447 N5 1.523 . S
C449 N38 1.518 . S
C451 N302 1.534 . S
C453 N71 1.537 . S
C455 N335 1.554 . S
C457 N104 1.531 . S
C459 N368 1.551 . S
C461 N137 1.517 . S
C463 N203 1.530 . S
C465 N236 1.544 . S
C467 N170 1.556 . S
C469 C116 1.090 . S
C471 C17 1.096 . S
C473 C50 1.091 . S
C475 C149 1.097 . S
C477 C182 1.090 . S
C479 C83 1.096 . S
C481 C215 1.075 . S
C483 C314 1.072 . S
C485 C248 1.092 . S
C487 C347 1.097 . S
C489 C380 1.072 . S
C491 C281 1.072 . S
C493 C8 1.454 . S
C495 C107 1.442 . S
C497 C41 1.449 . S
C499 C140 1.449 . S
C501 C74 1.446 . S
C503 C173 1.436 . S
C505 C206 1.438 . S
C507 C305 1.455 . S
C509 C338 1.453 . S
C511 C239 1.445 . S
C513 C272 1.449 . S
C515 C371 1.448 . S
