# Generated by pormake.
# Topology smu, (6)-cn, num edge types: 1
# Building blocks:
#     Node 0, Type 0, BuildingBlock: HISSIN_clean_sbu_0, # of connection points: 6
#     Node 1, Type 0, BuildingBlock: HISSIN_clean_sbu_0, # of connection points: 6
#     Node 2, Type 0, BuildingBlock: HISSIN_clean_sbu_0, # of connection points: 6
#     Node 3, Type 0, BuildingBlock: HISSIN_clean_sbu_0, # of connection points: 6
#     Node 4, Type 0, BuildingBlock: HISSIN_clean_sbu_0, # of connection points: 6
#     Node 5, Type 0, BuildingBlock: HISSIN_clean_sbu_0, # of connection points: 6
#     Edge 6, Type (0, 0), BuildingBlock: FUNLAD_clean_linker_0, # of connection points: 2
#     Edge 7, Type (0, 0), BuildingBlock: FUNLAD_clean_linker_0, # of connection points: 2
#     Edge 8, Type (0, 0), BuildingBlock: FUNLAD_clean_linker_0, # of connection points: 2
#     Edge 9, Type (0, 0), BuildingBlock: FUNLAD_clean_linker_0, # of connection points: 2
#     Edge 10, Type (0, 0), BuildingBlock: FUNLAD_clean_linker_0, # of connection points: 2
#     Edge 11, Type (0, 0), BuildingBlock: FUNLAD_clean_linker_0, # of connection points: 2
#     Edge 12, Type (0, 0), BuildingBlock: FUNLAD_clean_linker_0, # of connection points: 2
#     Edge 13, Type (0, 0), BuildingBlock: FUNLAD_clean_linker_0, # of connection points: 2
#     Edge 14, Type (0, 0), BuildingBlock: FUNLAD_clean_linker_0, # of connection points: 2
#     Edge 15, Type (0, 0), BuildingBlock: FUNLAD_clean_linker_0, # of connection points: 2
#     Edge 16, Type (0, 0), BuildingBlock: FUNLAD_clean_linker_0, # of connection points: 2
#     Edge 17, Type (0, 0), BuildingBlock: FUNLAD_clean_linker_0, # of connection points: 2
#     Edge 18, Type (0, 0), BuildingBlock: FUNLAD_clean_linker_0, # of connection points: 2
#     Edge 19, Type (0, 0), BuildingBlock: FUNLAD_clean_linker_0, # of connection points: 2
#     Edge 20, Type (0, 0), BuildingBlock: FUNLAD_clean_linker_0, # of connection points: 2
#     Edge 21, Type (0, 0), BuildingBlock: FUNLAD_clean_linker_0, # of connection points: 2
#     Edge 22, Type (0, 0), BuildingBlock: FUNLAD_clean_linker_0, # of connection points: 2
#     Edge 23, Type (0, 0), BuildingBlock: FUNLAD_clean_linker_0, # of connection points: 2
# Relax obj value: 0.216
# Max RMSD: 0.305
# Mean RMSD: 0.305
data_MOF--net-smu--node1-HISSIN_clean_sbu_0--edge1-FUNLAD_clean_linker_0
_symmetry_space_group_name_H-M    P1
_symmetry_Int_Tables_number       1
_symmetry_cell_setting            triclinic
loop_
_symmetry_equiv_pos_as_xyz
'x, y, z'
_cell_length_a     44.377513
_cell_length_b     44.359972
_cell_length_c     32.49069
_cell_angle_alpha  90.100239
_cell_angle_beta   89.876364
_cell_angle_gamma 119.89348
loop_
_atom_site_label
_atom_site_type_symbol
_atom_site_fract_x
_atom_site_fract_y
_atom_site_fract_z
_atom_type_partial_charge
Eu0 Eu 0.31947 0.11276 0.26022 0.0
Eu1 Eu 0.37888 0.0882 0.25609 0.0
C2 C 0.33196 0.08115 0.17712 0.0
C3 C 0.25061 0.14604 0.27074 0.0
C4 C 0.2233 0.13767 0.24307 0.0
C5 C 0.22951 0.17705 0.31309 0.0
C6 C 0.19995 0.14965 0.24965 0.0
C7 C 0.25305 0.16515 0.30638 0.0
C8 C 0.20342 0.17039 0.28404 0.0
C9 C 0.27899 0.13976 0.25795 0.0
O10 O 0.40661 0.14554 0.27034 0.0
O11 O 0.36929 0.15454 0.23241 0.0
C12 C 0.39931 0.16679 0.25073 0.0
O13 O 0.33046 0.10825 0.3276 0.0
O14 O 0.41634 0.08257 0.21784 0.0
O15 O 0.41215 0.06979 0.28246 0.0
O16 O 0.36247 0.08016 0.32231 0.0
C17 C 0.34526 0.09163 0.3441 0.0
O18 O 0.29127 0.05782 0.28248 0.0
O19 O 0.32649 0.03825 0.2542 0.0
O20 O 0.36342 0.09083 0.19048 0.0
O21 O 0.30796 0.15326 0.27889 0.0
O22 O 0.27172 0.11082 0.2393 0.0
O23 O 0.30905 0.08322 0.2007 0.0
C24 C 0.46797 0.09291 0.25085 0.0
C25 C 0.48619 0.11602 0.28312 0.0
C26 C 0.52311 0.10549 0.22021 0.0
C27 C 0.52263 0.13356 0.28398 0.0
C28 C 0.48678 0.08784 0.21951 0.0
C29 C 0.54154 0.12859 0.25242 0.0
C30 C 0.42958 0.07426 0.2485 0.0
C31 C 0.29712 0.03269 0.27138 0.0
H32 H 0.22101 0.1233 0.21514 0.0
H33 H 0.23291 0.19304 0.33984 0.0
H34 H 0.17978 0.14354 0.22706 0.0
H35 H 0.27403 0.17227 0.32808 0.0
H36 H 0.47234 0.12067 0.30753 0.0
H37 H 0.53677 0.10067 0.19571 0.0
H38 H 0.53602 0.15142 0.30901 0.0
H39 H 0.47329 0.07017 0.19433 0.0
Eu40 Eu 0.81354 0.70818 0.27248 0.0
Eu41 Eu 0.73091 0.64826 0.2641 0.0
C42 C 0.77417 0.69121 0.18523 0.0
C43 C 0.91758 0.77614 0.27933 0.0
C44 C 0.93189 0.80877 0.26015 0.0
C45 C 0.97584 0.78872 0.29759 0.0
C46 C 0.96786 0.83097 0.25918 0.0
C47 C 0.93984 0.76653 0.29855 0.0
C48 C 0.99029 0.82097 0.27733 0.0
C49 C 0.87988 0.75142 0.27693 0.0
O50 O 0.76048 0.62097 0.28142 0.0
O51 O 0.80941 0.65895 0.24732 0.0
C52 C 0.78988 0.62827 0.26372 0.0
O53 O 0.79468 0.69558 0.33857 0.0
O54 O 0.6875 0.61207 0.22547 0.0
O55 O 0.67996 0.61366 0.29093 0.0
O56 O 0.7356 0.66916 0.3281 0.0
C57 C 0.76282 0.6841 0.35233 0.0
O58 O 0.78439 0.73574 0.28837 0.0
O59 O 0.73313 0.70006 0.25408 0.0
O60 O 0.75254 0.66007 0.19953 0.0
O61 O 0.86506 0.72119 0.29526 0.0
O62 O 0.85861 0.75839 0.25692 0.0
O63 O 0.79754 0.71541 0.20913 0.0
C64 C 0.64779 0.55872 0.25753 0.0
C65 C 0.64396 0.54029 0.29419 0.0
C66 C 0.61351 0.50367 0.22179 0.0
C67 C 0.62487 0.50392 0.29465 0.0
C68 C 0.63244 0.54 0.22138 0.0
C69 C 0.60918 0.48514 0.2585 0.0
C70 C 0.66673 0.59724 0.25655 0.0
C71 C 0.75507 0.72991 0.27162 0.0
H72 H 0.91535 0.81693 0.24518 0.0
H73 H 0.99239 0.78011 0.31155 0.0
H74 H 0.97813 0.85588 0.24395 0.0
H75 H 0.92954 0.74146 0.31343 0.0
H76 H 0.65536 0.55391 0.32268 0.0
H77 H 0.60233 0.49011 0.19321 0.0
H78 H 0.62175 0.49056 0.32357 0.0
H79 H 0.63493 0.5535 0.19271 0.0
Eu80 Eu 0.91569 0.21351 0.26086 0.0
Eu81 Eu 0.93845 0.29652 0.26764 0.0
C82 C 0.94459 0.26408 0.18122 0.0
C83 C 0.87909 0.1094 0.25252 0.0
C84 C 0.85987 0.09085 0.21791 0.0
C85 C 0.87032 0.05539 0.28235 0.0
C86 C 0.84599 0.05487 0.21551 0.0
C87 C 0.88447 0.09143 0.28457 0.0
C88 C 0.85078 0.0367 0.24787 0.0
C89 C 0.89242 0.14712 0.25574 0.0
O90 O 0.88133 0.26675 0.25107 0.0
O91 O 0.87002 0.21724 0.28438 0.0
C92 C 0.85917 0.23722 0.2685 0.0
O93 O 0.93784 0.23116 0.32461 0.0
O94 O 0.94805 0.34447 0.23763 0.0
O95 O 0.95257 0.34336 0.3038 0.0
O96 O 0.92458 0.27449 0.33166 0.0
C97 C 0.9351 0.25412 0.34752 0.0
O98 O 0.97266 0.24151 0.2475 0.0
O99 O 0.98795 0.29406 0.27894 0.0
O100 O 0.9572 0.29126 0.20554 0.0
O101 O 0.91777 0.1673 0.28037 0.0
O102 O 0.87991 0.16296 0.23375 0.0
O103 O 0.92317 0.23244 0.19469 0.0
C104 C 0.93384 0.38083 0.27573 0.0
C105 C 0.90203 0.36729 0.29679 0.0
C106 C 0.92974 0.43173 0.25735 0.0
C107 C 0.88425 0.38602 0.29823 0.0
C108 C 0.94753 0.41315 0.25617 0.0
C109 C 0.89781 0.41837 0.27823 0.0
C110 C 0.95257 0.36129 0.27202 0.0
C111 C 0.99592 0.27132 0.26348 0.0
H112 H 0.85538 0.10412 0.19275 0.0
H113 H 0.87478 0.04215 0.30757 0.0
H114 H 0.83083 0.04117 0.18871 0.0
H115 H 0.89913 0.10514 0.31165 0.0
H116 H 0.89078 0.34215 0.3117 0.0
H117 H 0.94114 0.45673 0.2421 0.0
H118 H 0.85958 0.37487 0.31424 0.0
H119 H 0.97197 0.42396 0.23964 0.0
Eu120 Eu 0.09369 0.37046 0.75679 0.0
Eu121 Eu 0.12529 0.31723 0.75821 0.0
C122 C 0.08684 0.32629 0.83837 0.0
C123 C 0.0939 0.45668 0.75922 0.0
C124 C 0.12332 0.47515 0.78429 0.0
C125 C 0.0988 0.51147 0.73792 0.0
C126 C 0.14012 0.51149 0.78649 0.0
C127 C 0.08193 0.47514 0.73593 0.0
C128 C 0.128 0.53015 0.76343 0.0
C129 C 0.07552 0.41833 0.75687 0.0
O130 O 0.06795 0.28085 0.76349 0.0
O131 O 0.04743 0.31725 0.74179 0.0
C132 C 0.04288 0.28612 0.7505 0.0
O133 O 0.10574 0.36514 0.69053 0.0
O134 O 0.16483 0.3067 0.78347 0.0
O135 O 0.13312 0.27658 0.73161 0.0
O136 O 0.10412 0.31279 0.69434 0.0
C137 C 0.10136 0.33645 0.67317 0.0
O138 O 0.14951 0.4006 0.77807 0.0
O139 O 0.16656 0.37032 0.73797 0.0
O140 O 0.11217 0.3213 0.82514 0.0
O141 O 0.08013 0.40491 0.72339 0.0
O142 O 0.07625 0.40189 0.78972 0.0
O143 O 0.0729 0.33999 0.81477 0.0
C144 C 0.16222 0.25207 0.76884 0.0
C145 C 0.15389 0.22531 0.74016 0.0
C146 C 0.18985 0.22787 0.81178 0.0
C147 C 0.16414 0.20064 0.74669 0.0
C148 C 0.17972 0.25273 0.80515 0.0
C149 C 0.18305 0.2022 0.78201 0.0
C150 C 0.15803 0.28192 0.75696 0.0
C151 C 0.17423 0.39837 0.75884 0.0
H152 H 0.13325 0.46151 0.80239 0.0
H153 H 0.08911 0.52492 0.71911 0.0
H154 H 0.16227 0.52488 0.80676 0.0
H155 H 0.05949 0.46144 0.71611 0.0
H156 H 0.14084 0.22435 0.71163 0.0
H157 H 0.20453 0.22981 0.83922 0.0
H158 H 0.15804 0.18083 0.72351 0.0
H159 H 0.18699 0.27332 0.82755 0.0
Eu160 Eu 0.29846 0.92843 0.75549 0.0
Eu161 Eu 0.21522 0.90348 0.76054 0.0
C162 C 0.26241 0.92353 0.84457 0.0
C163 C 0.3847 0.92754 0.75557 0.0
C164 C 0.37155 0.89661 0.7783 0.0
C165 C 0.43804 0.92624 0.7437 0.0
C166 C 0.39154 0.88042 0.78341 0.0
C167 C 0.41816 0.94241 0.73878 0.0
C168 C 0.42479 0.89476 0.76549 0.0
C169 C 0.36294 0.94292 0.74567 0.0
O170 O 0.24135 0.95803 0.784 0.0
O171 O 0.29518 0.97807 0.75356 0.0
C172 C 0.27173 0.98349 0.77205 0.0
O173 O 0.2802 0.92689 0.69017 0.0
O174 O 0.1635 0.8634 0.78139 0.0
O175 O 0.16921 0.90374 0.73841 0.0
O176 O 0.23324 0.93389 0.70156 0.0
C177 C 0.25807 0.93635 0.67746 0.0
O178 O 0.26953 0.8713 0.77151 0.0
O179 O 0.22371 0.86188 0.7327 0.0
O180 O 0.23112 0.9092 0.8279 0.0
O181 O 0.3382 0.92556 0.71922 0.0
O182 O 0.35267 0.95487 0.77609 0.0
O183 O 0.29079 0.93306 0.82288 0.0
C184 C 0.11315 0.87013 0.77031 0.0
C185 C 0.10096 0.8914 0.75397 0.0
C186 C 0.05437 0.82912 0.79289 0.0
C187 C 0.06563 0.88105 0.7559 0.0
C188 C 0.08967 0.83943 0.79087 0.0
C189 C 0.04177 0.84919 0.7741 0.0
C190 C 0.14782 0.87581 0.75881 0.0
C191 C 0.24137 0.84975 0.75156 0.0
H192 H 0.34555 0.88456 0.79111 0.0
H193 H 0.46373 0.93826 0.73008 0.0
H194 H 0.38051 0.8561 0.80012 0.0
H195 H 0.42863 0.96617 0.72097 0.0
H196 H 0.11831 0.91511 0.73765 0.0
H197 H 0.03668 0.80433 0.8069 0.0
H198 H 0.05682 0.89739 0.74178 0.0
H199 H 0.09819 0.82225 0.8032 0.0
Eu200 Eu 0.65395 0.72804 0.76048 0.0
Eu201 Eu 0.71504 0.80952 0.7786 0.0
C202 C 0.68125 0.75416 0.853 0.0
C203 C 0.56543 0.64419 0.74624 0.0
C204 C 0.54564 0.65477 0.76958 0.0
C205 C 0.51223 0.59396 0.72251 0.0
C206 C 0.50923 0.6349 0.76942 0.0
C207 C 0.54848 0.61368 0.72284 0.0
C208 C 0.49211 0.60436 0.74562 0.0
C209 C 0.60364 0.66457 0.74527 0.0
O210 O 0.73714 0.77567 0.79609 0.0
O211 O 0.7058 0.73022 0.75175 0.0
C212 C 0.73338 0.74894 0.77473 0.0
O213 O 0.67033 0.75453 0.69876 0.0
O214 O 0.76901 0.85172 0.77686 0.0
O215 O 0.72922 0.86039 0.80422 0.0
O216 O 0.72535 0.79837 0.71372 0.0
C217 C 0.70223 0.77681 0.68726 0.0
O218 O 0.62715 0.75805 0.77811 0.0
O219 O 0.66853 0.8098 0.75146 0.0
O220 O 0.69347 0.78661 0.84132 0.0
O221 O 0.61744 0.68891 0.71757 0.0
O222 O 0.61958 0.67455 0.78049 0.0
O223 O 0.66898 0.7284 0.8265 0.0
C224 C 0.78109 0.91018 0.78064 0.0
C225 C 0.7656 0.92488 0.75633 0.0
C226 C 0.83405 0.9662 0.78365 0.0
C227 C 0.78428 0.96031 0.7461 0.0
C228 C 0.81544 0.93103 0.79388 0.0
C229 C 0.8187 0.98138 0.75988 0.0
C230 C 0.76206 0.87387 0.79482 0.0
C231 C 0.63648 0.78911 0.76369 0.0
H232 H 0.55831 0.6784 0.78771 0.0
H233 H 0.49996 0.57032 0.70438 0.0
H234 H 0.49449 0.64374 0.78731 0.0
H235 H 0.56333 0.6051 0.7047 0.0
H236 H 0.73906 0.90916 0.74576 0.0
H237 H 0.86023 0.98174 0.79542 0.0
H238 H 0.77185 0.97123 0.7275 0.0
H239 H 0.82772 0.9202 0.81295 0.0
C240 C 0.24427 0.94251 0.90852 0.0
C241 C 0.26718 0.93396 0.88858 0.0
C242 C 0.25255 0.95869 0.9473 0.0
C243 C 0.28391 0.96645 0.967 0.0
C244 C 0.30567 0.95602 0.94796 0.0
C245 C 0.29761 0.94028 0.90918 0.0
C246 C 0.29539 0.98555 1.00698 0.0
C247 C 0.28419 1.00667 0.02203 0.0
C248 C 0.29767 0.027 0.06096 0.0
C249 C 0.27641 0.03635 0.08325 0.0
C250 C 0.28785 0.05474 0.12034 0.0
C251 C 0.32114 0.06475 0.1358 0.0
H252 H 0.34918 0.03253 0.05878 0.0
C253 C 0.34296 0.05659 0.11267 0.0
C254 C 0.33142 0.03799 0.07572 0.0
H255 H 0.36881 0.06397 0.12347 0.0
H256 H 0.22073 0.93823 0.89336 0.0
H257 H 0.23449 0.96529 0.96136 0.0
H258 H 0.32976 0.9612 0.96247 0.0
H259 H 0.31582 0.93399 0.89475 0.0
H260 H 0.31506 0.98297 0.02388 0.0
H261 H 0.26421 1.00915 1.00576 0.0
H262 H 0.2505 0.02873 0.0724 0.0
H263 H 0.27032 0.06062 0.13721 0.0
C264 C 0.68895 0.74975 0.61697 0.0
C265 C 0.71321 0.77397 0.64481 0.0
C266 C 0.69977 0.74296 0.57934 0.0
C267 C 0.73523 0.76009 0.56859 0.0
C268 C 0.75924 0.78571 0.59531 0.0
C269 C 0.74843 0.79246 0.63311 0.0
C270 C 0.74778 0.75189 0.52976 0.0
C271 C 0.73113 0.72016 0.51192 0.0
C272 C 0.74152 0.7108 0.4723 0.0
C273 C 0.71635 0.68139 0.45109 0.0
C274 C 0.72386 0.67204 0.41301 0.0
C275 C 0.75699 0.69153 0.39524 0.0
H276 H 0.79561 0.75207 0.47098 0.0
C277 C 0.78281 0.72012 0.41712 0.0
C278 C 0.77515 0.72978 0.45524 0.0
H279 H 0.80854 0.7358 0.40412 0.0
H280 H 0.66156 0.73522 0.62464 0.0
H281 H 0.68018 0.72413 0.5589 0.0
H282 H 0.78664 0.79974 0.58756 0.0
H283 H 0.76788 0.8113 0.65372 0.0
H284 H 0.77158 0.77241 0.51629 0.0
H285 H 0.70778 0.69979 0.52645 0.0
H286 H 0.69035 0.66601 0.46352 0.0
H287 H 0.70337 0.64981 0.39706 0.0
C288 C 0.96077 0.24434 0.11612 0.0
C289 C 0.95762 0.26991 0.1383 0.0
C290 C 0.97706 0.25207 0.07735 0.0
C291 C 0.99012 0.28542 0.06006 0.0
C292 C 0.98586 0.31038 0.08186 0.0
C293 C 0.97014 0.30287 0.12053 0.0
C294 C 1.00698 0.29528 0.01884 0.0
C295 C 0.02304 0.28008 0.9997 0.0
C296 C 0.03951 0.29177 0.9583 0.0
C297 C 0.06773 0.28749 0.94664 0.0
C298 C 0.08367 0.2989 0.90793 0.0
C299 C 0.07147 0.31462 0.88007 0.0
H300 H 1.00444 0.30926 0.9367 0.0
C301 C 0.04283 0.31821 0.89167 0.0
C302 C 0.02697 0.30676 0.92991 0.0
H303 H 0.03214 0.3296 0.87099 0.0
H304 H 0.95158 0.21878 0.1292 0.0
H305 H 0.97912 0.23189 0.06101 0.0
H306 H 0.99526 0.33614 0.06919 0.0
H307 H 0.96805 0.32313 0.13673 0.0
H308 H 1.00769 0.31774 1.00457 0.0
H309 H 0.0256 0.25983 0.01527 0.0
H310 H 0.07768 0.27561 0.96766 0.0
H311 H 0.10539 0.29535 0.89986 0.0
C312 C 0.30794 0.07357 0.40783 0.0
C313 C 0.3392 0.08129 0.38805 0.0
C314 C 0.29983 0.05772 0.44678 0.0
C315 C 0.32304 0.04954 0.46678 0.0
C316 C 0.355 0.05908 0.44777 0.0
C317 C 0.36285 0.07443 0.40884 0.0
C318 C 0.31533 0.03089 0.507 0.0
C319 C 0.28313 0.01055 0.52253 0.0
C320 C 0.27651 0.9903 0.56144 0.0
C321 C 0.24679 0.98218 0.5849 0.0
C322 C 0.24025 0.96388 0.62201 0.0
C323 C 0.26306 0.9528 0.63628 0.0
H324 H 0.32115 0.98263 0.55714 0.0
C325 C 0.29209 0.95975 0.61199 0.0
C326 C 0.29871 0.97819 0.57503 0.0
H327 H 0.31014 0.95146 0.62179 0.0
H328 H 0.28904 0.07827 0.39243 0.0
H329 H 0.27533 0.0517 0.46076 0.0
H330 H 0.37359 0.05352 0.46247 0.0
H331 H 0.38718 0.08008 0.39448 0.0
H332 H 0.33747 0.03302 0.52373 0.0
H333 H 0.26073 1.00859 0.50668 0.0
H334 H 0.22893 0.99068 0.57494 0.0
H335 H 0.21758 0.95895 0.63982 0.0
C336 C 0.71265 0.77212 0.92069 0.0
C337 C 0.68616 0.74656 0.89609 0.0
C338 C 0.72096 0.76331 0.95877 0.0
C339 C 0.70272 0.72876 0.9731 0.0
C340 C 0.67507 0.70377 0.94946 0.0
C341 C 0.66709 0.71244 0.91126 0.0
C342 C 0.71146 0.71758 1.01237 0.0
C343 C 0.74353 0.73334 0.02918 0.0
C344 C 0.75228 0.72111 0.06772 0.0
C345 C 0.78082 0.74493 0.09126 0.0
C346 C 0.78894 0.73488 0.12855 0.0
C347 C 0.76887 0.70058 0.14303 0.0
H348 H 0.71193 0.66676 0.0633 0.0
C349 C 0.74137 0.67629 0.11847 0.0
C350 C 0.73321 0.68636 0.08123 0.0
H351 H 0.72548 0.64958 0.12844 0.0
H352 H 0.72793 0.79863 0.90981 0.0
H353 H 0.74172 0.78358 0.97667 0.0
H354 H 0.66026 0.67708 0.95993 0.0
H355 H 0.64647 0.69215 0.89314 0.0
H356 H 0.69068 0.69459 0.02696 0.0
H357 H 0.76428 0.75642 1.01466 0.0
H358 H 0.79633 0.77171 0.08137 0.0
H359 H 0.81033 0.75433 0.14658 0.0
C360 C 0.96754 0.24496 0.40487 0.0
C361 C 0.94934 0.26111 0.38996 0.0
C362 C 0.98547 0.25533 0.4423 0.0
C363 C 0.98573 0.28225 0.46567 0.0
C364 C 0.96611 0.2971 0.45169 0.0
C365 C 0.94827 0.28681 0.41426 0.0
C366 C 1.00588 0.29567 0.50463 0.0
C367 C 0.03288 0.29138 0.51536 0.0
C368 C 0.05266 0.30517 0.55437 0.0
C369 C 0.06783 0.28736 0.57282 0.0
C370 C 0.08507 0.29845 0.61053 0.0
C371 C 0.08808 0.32804 0.63038 0.0
H372 H 0.04672 0.3508 0.55927 0.0
C373 C 0.07452 0.34697 0.61084 0.0
C374 C 0.05696 0.33566 0.57327 0.0
H375 H 0.07635 0.36988 0.62521 0.0
H376 H 0.96887 0.225 0.38705 0.0
H377 H 0.99912 0.2422 0.45246 0.0
H378 H 0.96537 0.31753 0.46921 0.0
H379 H 0.93449 0.2998 0.40384 0.0
H380 H 0.99842 0.31035 0.52488 0.0
H381 H 0.04046 0.27644 0.49578 0.0
H382 H 0.06534 0.26409 0.55868 0.0
H383 H 0.09521 0.28323 0.62464 0.0
C384 C 0.59851 0.15047 0.28959 0.0
C385 C 0.5803 0.14715 0.25294 0.0
C386 C 0.63486 0.16655 0.28958 0.0
C387 C 0.65389 0.17966 0.2528 0.0
C388 C 0.6357 0.17729 0.21651 0.0
C389 C 0.59939 0.16109 0.21649 0.0
C390 C 0.69254 0.19602 0.25098 0.0
C391 C 0.71104 0.18853 0.27782 0.0
C392 C 0.74927 0.20233 0.2747 0.0
C393 C 0.76323 0.18388 0.29432 0.0
C394 C 0.79876 0.19534 0.29228 0.0
C395 C 0.82154 0.22591 0.27087 0.0
H396 H 0.76256 0.24878 0.239 0.0
C397 C 0.80782 0.24488 0.25176 0.0
C398 C 0.77205 0.23324 0.25363 0.0
H399 H 0.82466 0.26865 0.23525 0.0
H400 H 0.58464 0.14003 0.31821 0.0
H401 H 0.64783 0.16877 0.31851 0.0
H402 H 0.64958 0.18751 0.18783 0.0
H403 H 0.58625 0.15957 0.18785 0.0
H404 H 0.70565 0.21272 0.22486 0.0
H405 H 0.69735 0.16943 0.30175 0.0
H406 H 0.74648 0.16016 0.31103 0.0
H407 H 0.8083 0.18006 0.30757 0.0
C408 C 0.55692 0.42939 0.23594 0.0
C409 C 0.58766 0.44647 0.25917 0.0
C410 C 0.53656 0.39317 0.23635 0.0
C411 C 0.54614 0.37296 0.26052 0.0
C412 C 0.57705 0.38998 0.28339 0.0
C413 C 0.59751 0.42629 0.28289 0.0
C414 C 0.52518 0.33422 0.26152 0.0
C415 C 0.49092 0.31639 0.25274 0.0
C416 C 0.4691 0.27774 0.25187 0.0
C417 C 0.43661 0.26317 0.23241 0.0
C418 C 0.41446 0.22724 0.23138 0.0
C419 C 0.42407 0.20476 0.25011 0.0
H420 H 0.5034 0.26523 0.28654 0.0
C421 C 0.45664 0.21913 0.26953 0.0
C422 C 0.47897 0.25526 0.27045 0.0
H423 H 0.46472 0.20253 0.28452 0.0
H424 H 0.54833 0.44402 0.21756 0.0
H425 H 0.51369 0.38129 0.21707 0.0
H426 H 0.58535 0.37514 0.30188 0.0
H427 H 0.62129 0.43851 0.30067 0.0
H428 H 0.53861 0.32037 0.27007 0.0
H429 H 0.47772 0.3307 0.24523 0.0
H430 H 0.42817 0.2797 0.21794 0.0
H431 H 0.38952 0.21718 0.21632 0.0
C432 C 0.87678 0.45474 0.24283 0.0
C433 C 0.87891 0.43825 0.27873 0.0
C434 C 0.86062 0.47491 0.24345 0.0
C435 C 0.84646 0.47946 0.28021 0.0
C436 C 0.8475 0.46195 0.31574 0.0
C437 C 0.86358 0.44163 0.31507 0.0
C438 C 0.83044 0.5021 0.28256 0.0
C439 C 0.83903 0.52898 0.25667 0.0
C440 C 0.8252 0.55345 0.25938 0.0
C441 C 0.84364 0.58566 0.23933 0.0
C442 C 0.83205 0.6097 0.24069 0.0
C443 C 0.80142 0.60209 0.26189 0.0
H444 H 0.77869 0.52069 0.29524 0.0
C445 C 0.78252 0.56963 0.28151 0.0
C446 C 0.79423 0.54552 0.28027 0.0
H447 H 0.7587 0.56285 0.29792 0.0
H448 H 0.88751 0.45192 0.21406 0.0
H449 H 0.85912 0.48662 0.21492 0.0
H450 H 0.8365 0.46462 0.34439 0.0
H451 H 0.86481 0.42932 0.34328 0.0
H452 H 0.8129 0.49777 0.30805 0.0
H453 H 0.85888 0.5349 0.23352 0.0
H454 H 0.86739 0.59247 0.22272 0.0
H455 H 0.84726 0.63435 0.22507 0.0
C456 C 0.1259 0.58583 0.76556 0.0
C457 C 0.14554 0.56887 0.76598 0.0
C458 C 0.1422 0.62212 0.76704 0.0
C459 C 0.1787 0.64254 0.76868 0.0
C460 C 0.19827 0.6256 0.7703 0.0
C461 C 0.18196 0.58925 0.76876 0.0
C462 C 0.19706 0.68136 0.76944 0.0
C463 C 0.18333 0.69983 0.75315 0.0
C464 C 0.20041 0.73861 0.75256 0.0
C465 C 0.18434 0.75357 0.72979 0.0
C466 C 0.19809 0.78953 0.72897 0.0
C467 C 0.22842 0.81175 0.75099 0.0
H468 H 0.2442 0.7507 0.79289 0.0
C469 C 0.24493 0.79705 0.77353 0.0
C470 C 0.23106 0.76085 0.77444 0.0
H471 H 0.26823 0.81344 0.79103 0.0
H472 H 0.09778 0.57103 0.76464 0.0
H473 H 0.12595 0.63392 0.76751 0.0
H474 H 0.22638 0.64055 0.77203 0.0
H475 H 0.198 0.57718 0.76896 0.0
H476 H 0.22314 0.6947 0.78201 0.0
H477 H 0.15823 0.68583 0.73806 0.0
H478 H 0.16072 0.73733 0.7127 0.0
H479 H 0.18455 0.79982 0.71135 0.0
C480 C 0.46312 0.87463 0.73328 0.0
C481 C 0.44537 0.87667 0.76811 0.0
C482 C 0.4836 0.8589 0.73561 0.0
C483 C 0.48715 0.84505 0.77304 0.0
C484 C 0.4684 0.84593 0.8075 0.0
C485 C 0.44777 0.86163 0.80513 0.0
C486 C 0.50999 0.82942 0.77695 0.0
C487 C 0.53819 0.83909 0.75291 0.0
C488 C 0.56256 0.8253 0.75678 0.0
C489 C 0.59608 0.84492 0.74011 0.0
C490 C 0.61994 0.83316 0.74241 0.0
C491 C 0.61077 0.80116 0.76109 0.0
H492 H 0.52732 0.77668 0.78749 0.0
C493 C 0.57705 0.78115 0.77734 0.0
C494 C 0.55316 0.79307 0.77524 0.0
H495 H 0.56906 0.75628 0.79173 0.0
H496 H 0.46099 0.88502 0.70397 0.0
H497 H 0.49631 0.85743 0.70784 0.0
H498 H 0.47028 0.8351 0.8366 0.0
H499 H 0.43438 0.86271 0.83251 0.0
H500 H 0.50457 0.81122 0.80196 0.0
H501 H 0.54514 0.85968 0.73053 0.0
H502 H 0.604 0.86968 0.72539 0.0
H503 H 0.64559 0.84921 0.72939 0.0
C504 C 0.2369 0.42331 0.74027 0.0
C505 C 0.21092 0.4269 0.76077 0.0
C506 C 0.2717 0.44938 0.74249 0.0
C507 C 0.28155 0.48001 0.76503 0.0
C508 C 0.25567 0.48351 0.78592 0.0
C509 C 0.22067 0.45733 0.78365 0.0
C510 C 0.31869 0.50785 0.76858 0.0
C511 C 0.34248 0.51339 0.73922 0.0
C512 C 0.38033 0.5392 0.74204 0.0
C513 C 0.40033 0.54733 0.70592 0.0
C514 C 0.43633 0.5691 0.70705 0.0
C515 C 0.45346 0.58326 0.74444 0.0
H516 H 0.38314 0.54789 0.80821 0.0
C517 C 0.43349 0.5759 0.78059 0.0
C518 C 0.39732 0.55398 0.77949 0.0
H519 H 0.44595 0.58609 0.80997 0.0
H520 H 0.23047 0.40007 0.72275 0.0
H521 H 0.29083 0.44494 0.72721 0.0
H522 H 0.26253 0.50663 0.80392 0.0
H523 H 0.20135 0.46084 0.80001 0.0
H524 H 0.32612 0.52453 0.7955 0.0
H525 H 0.33382 0.49849 0.71086 0.0
H526 H 0.38809 0.5364 0.67662 0.0
H527 H 0.45082 0.57465 0.67852 0.0
C528 C 0.1754 0.20203 0.25304 0.0
C529 C 0.18152 0.187 0.28777 0.0
C530 C 0.15507 0.2179 0.25597 0.0
C531 C 0.14046 0.21939 0.29391 0.0
C532 C 0.14642 0.20416 0.32859 0.0
C533 C 0.16694 0.18837 0.32567 0.0
C534 C 0.11707 0.23439 0.29777 0.0
C535 C 0.11667 0.25724 0.2707 0.0
C536 C 0.08926 0.26719 0.27064 0.0
C537 C 0.07781 0.27268 0.23261 0.0
C538 C 0.04873 0.27695 0.23051 0.0
C539 C 0.03135 0.27703 0.26653 0.0
H540 H 0.08175 0.26605 0.33684 0.0
C541 C 0.04429 0.27433 0.30487 0.0
C542 C 0.07302 0.26931 0.30696 0.0
H543 H 0.03076 0.27366 0.33297 0.0
H544 H 0.18652 0.20172 0.22344 0.0
H545 H 0.15033 0.22813 0.22808 0.0
H546 H 0.13509 0.20441 0.35807 0.0
H547 H 0.17092 0.17675 0.3529 0.0
H548 H 0.0986 0.22508 0.32309 0.0
H549 H 0.13498 0.26668 0.24528 0.0
H550 H 0.09 0.27142 0.20422 0.0
H551 H 0.03871 0.27837 0.20062 0.0
C552 C 0.05037 0.84787 0.30735 0.0
C553 C 0.0286 0.84351 0.27384 0.0
C554 C 0.08646 0.86862 0.30372 0.0
C555 C 0.10164 0.88533 0.26624 0.0
C556 C 0.07975 0.88109 0.23293 0.0
C557 C 0.04372 0.86042 0.2366 0.0
C558 C 0.13979 0.90864 0.26077 0.0
C559 C 0.16418 0.91159 0.28772 0.0
C560 C 0.20119 0.93875 0.28322 0.0
C561 C 0.21976 0.95655 0.31849 0.0
C562 C 0.25263 0.98598 0.31482 0.0
C563 C 0.26788 0.99728 0.27594 0.0
H564 H 0.20404 0.93506 0.2168 0.0
C565 C 0.25072 0.97788 0.24089 0.0
C566 C 0.21745 0.94882 0.24446 0.0
H567 H 0.26192 0.98662 0.21057 0.0
H568 H 0.03948 0.83565 0.33666 0.0
H569 H 0.10195 0.87176 0.33068 0.0
H570 H 0.09055 0.89378 0.20378 0.0
H571 H 0.02773 0.85729 0.21001 0.0
H572 H 0.14804 0.92514 0.23362 0.0
H573 H 0.15691 0.89629 0.3157 0.0
H574 H 0.20787 0.94911 0.34867 0.0
H575 H 0.2654 1.00098 0.34213 0.0
C576 C 0.81818 0.97776 0.28057 0.0
C577 C 0.8349 0.9983 0.24595 0.0
C578 C 0.80299 0.9416 0.27881 0.0
C579 C 0.80404 0.92508 0.24218 0.0
C580 C 0.82107 0.94574 0.20773 0.0
C581 C 0.83617 0.9819 0.20948 0.0
C582 C 0.78973 0.88682 0.23931 0.0
C583 C 0.76665 0.86363 0.26617 0.0
C584 C 0.75739 0.82657 0.26623 0.0
C585 C 0.75346 0.80999 0.30422 0.0
C586 C 0.75007 0.77701 0.30589 0.0
C587 C 0.74928 0.7596 0.26953 0.0
H588 H 0.75676 0.82008 0.1999 0.0
C589 C 0.75038 0.77483 0.23137 0.0
C590 C 0.7546 0.80825 0.22968 0.0
H591 H 0.75042 0.76195 0.203 0.0
H592 H 0.81663 0.98963 0.30907 0.0
H593 H 0.79123 0.92704 0.30658 0.0
H594 H 0.82281 0.93386 0.17931 0.0
H595 H 0.84931 0.99708 0.18245 0.0
H596 H 0.79972 0.8776 0.2147 0.0
H597 H 0.75661 0.87223 0.29125 0.0
H598 H 0.75528 0.82349 0.33275 0.0
H599 H 0.74973 0.76577 0.3356 0.0
C600 C 0.21328 0.17194 0.75287 0.0
C601 C 0.19725 0.17836 0.78651 0.0
C602 C 0.22676 0.14956 0.75679 0.0
C603 C 0.22452 0.1331 0.79456 0.0
C604 C 0.2084 0.13944 0.82808 0.0
C605 C 0.19516 0.16205 0.82425 0.0
C606 C 0.23632 0.1073 0.79936 0.0
C607 C 0.26135 0.10684 0.77611 0.0
C608 C 0.26995 0.07843 0.77845 0.0
C609 C 0.28439 0.07123 0.74378 0.0
C610 C 0.28801 0.04161 0.74274 0.0
C611 C 0.27713 0.01881 0.77638 0.0
H612 H 0.25283 0.06265 0.84161 0.0
C613 C 0.26538 0.02743 0.81219 0.0
C614 C 0.26226 0.05717 0.81348 0.0
H615 H 0.25722 0.01031 0.83868 0.0
H616 H 0.21552 0.18435 0.72345 0.0
H617 H 0.23802 0.14459 0.72988 0.0
H618 H 0.20592 0.12676 0.85737 0.0
H619 H 0.18271 0.16628 0.85059 0.0
H620 H 0.22294 0.08751 0.82264 0.0
H621 H 0.27456 0.12663 0.75274 0.0
H622 H 0.29103 0.08742 0.71658 0.0
H623 H 0.29686 0.03525 0.71466 0.0
C624 C 0.98122 0.81772 0.80329 0.0
C625 C 1.00373 0.83542 0.77039 0.0
C626 C 0.94525 0.80278 0.79873 0.0
C627 C 0.93094 0.80493 0.76091 0.0
C628 C 0.95353 0.82334 0.72841 0.0
C629 C 0.98947 0.83828 0.73298 0.0
C630 C 0.89289 0.78994 0.75474 0.0
C631 C 0.86846 0.76439 0.77823 0.0
C632 C 0.83113 0.75373 0.77526 0.0
C633 C 0.81177 0.74647 0.81173 0.0
C634 C 0.77833 0.74195 0.81111 0.0
C635 C 0.76327 0.74339 0.77382 0.0
H636 H 0.8292 0.75764 0.70878 0.0
C637 C 0.7813 0.74758 0.73683 0.0
C638 C 0.81517 0.75293 0.73753 0.0
H639 H 0.77028 0.74937 0.70782 0.0
H640 H 0.99143 0.81559 0.83271 0.0
H641 H 0.929 0.79015 0.82517 0.0
H642 H 0.94332 0.8258 0.69911 0.0
H643 H 1.00602 0.85134 0.70681 0.0
H644 H 0.88482 0.80113 0.73037 0.0
H645 H 0.87601 0.75311 0.80292 0.0
H646 H 0.82341 0.74669 0.8411 0.0
H647 H 0.76494 0.73921 0.84 0.0
C648 C 0.98385 0.23896 0.77062 0.0
C649 C 1.00982 0.25493 0.74066 0.0
C650 C 0.95616 0.20514 0.76435 0.0
C651 C 0.95433 0.1868 0.72803 0.0
C652 C 0.97974 0.20371 0.6975 0.0
C653 C 1.00721 0.23744 0.70374 0.0
C654 C 0.92936 0.14898 0.72301 0.0
C655 C 0.89964 0.13119 0.7446 0.0
C656 C 0.87838 0.09256 0.74374 0.0
C657 C 0.84272 0.07627 0.75281 0.0
C658 C 0.82287 0.04001 0.75617 0.0
C659 C 0.83847 0.01934 0.75121 0.0
H660 H 0.92129 0.08324 0.73162 0.0
C661 C 0.87397 0.03562 0.74111 0.0
C662 C 0.89372 0.07174 0.73753 0.0
H663 H 0.88673 0.02043 0.73688 0.0
H664 H 0.98602 0.25183 0.79975 0.0
H665 H 0.93767 0.19285 0.78909 0.0
H666 H 0.97923 0.19021 0.66945 0.0
H667 H 0.02749 0.24917 0.68065 0.0
H668 H 0.93636 0.13505 0.70094 0.0
H669 H 0.89056 0.14508 0.76384 0.0
H670 H 0.83032 0.09168 0.75809 0.0
H671 H 0.79566 0.02831 0.76441 0.0
loop_
_geom_bond_atom_site_label_1
_geom_bond_atom_site_label_2
_geom_bond_distance
_geom_bond_site_symmetry_2
_ccdc_geom_bond_type
Eu0 C9 2.828 . S
Eu0 O11 2.392 . S
Eu0 O13 2.418 . S
Eu0 O18 2.373 . S
Eu0 O21 2.488 . S
Eu0 O22 2.471 . S
Eu0 O23 2.349 . S
Eu1 O10 2.373 . S
Eu1 O14 2.488 . S
Eu1 O15 2.471 . S
Eu1 O16 2.349 . S
Eu1 O19 2.392 . S
Eu1 O20 2.418 . S
Eu1 C30 2.828 . S
C2 O20 1.244 . S
C2 O23 1.265 . S
C3 C4 1.379 . S
C3 C7 1.373 . S
C3 C9 1.505 . S
C4 C3 1.379 . S
C4 C6 1.369 . S
C4 H32 0.930 . S
C5 C7 1.383 . S
C5 C8 1.382 . S
C5 H33 0.930 . S
C6 C4 1.369 . S
C6 C8 1.392 . S
C6 H34 0.930 . S
C7 C3 1.373 . S
C7 C5 1.383 . S
C7 H35 0.931 . S
C8 C5 1.382 . S
C8 C6 1.392 . S
C9 Eu0 2.828 . S
C9 C3 1.505 . S
C9 O21 1.249 . S
C9 O22 1.244 . S
O10 Eu1 2.373 . S
O10 C12 1.258 . S
O11 Eu0 2.392 . S
O11 C12 1.242 . S
C12 O10 1.258 . S
C12 O11 1.242 . S
O13 Eu0 2.418 . S
O13 C17 1.244 . S
O14 Eu1 2.488 . S
O14 C30 1.249 . S
O15 Eu1 2.471 . S
O15 C30 1.244 . S
O16 Eu1 2.349 . S
O16 C17 1.265 . S
C17 O13 1.244 . S
C17 O16 1.265 . S
O18 Eu0 2.373 . S
O18 C31 1.258 . S
O19 Eu1 2.392 . S
O19 C31 1.242 . S
O20 Eu1 2.418 . S
O20 C2 1.244 . S
O21 Eu0 2.488 . S
O21 C9 1.249 . S
O22 Eu0 2.471 . S
O22 C9 1.244 . S
O23 Eu0 2.349 . S
O23 C2 1.265 . S
C24 C25 1.379 . S
C24 C28 1.373 . S
C24 C30 1.505 . S
C25 C24 1.379 . S
C25 C27 1.369 . S
C25 H36 0.930 . S
C26 C28 1.383 . S
C26 C29 1.382 . S
C26 H37 0.930 . S
C27 C25 1.369 . S
C27 C29 1.392 . S
C27 H38 0.930 . S
C28 C24 1.373 . S
C28 C26 1.383 . S
C28 H39 0.931 . S
C29 C26 1.382 . S
C29 C27 1.392 . S
C30 Eu1 2.828 . S
C30 O14 1.249 . S
C30 O15 1.244 . S
C30 C24 1.505 . S
C31 O18 1.258 . S
C31 O19 1.242 . S
H32 C4 0.930 . S
H33 C5 0.930 . S
H34 C6 0.930 . S
H35 C7 0.931 . S
H36 C25 0.930 . S
H37 C26 0.930 . S
H38 C27 0.930 . S
H39 C28 0.931 . S
Eu40 C49 2.828 . S
Eu40 O51 2.392 . S
Eu40 O53 2.418 . S
Eu40 O58 2.373 . S
Eu40 O61 2.488 . S
Eu40 O62 2.471 . S
Eu40 O63 2.349 . S
Eu41 O50 2.373 . S
Eu41 O54 2.488 . S
Eu41 O55 2.471 . S
Eu41 O56 2.349 . S
Eu41 O59 2.392 . S
Eu41 O60 2.418 . S
Eu41 C70 2.828 . S
C42 O60 1.244 . S
C42 O63 1.265 . S
C43 C44 1.379 . S
C43 C47 1.373 . S
C43 C49 1.505 . S
C44 C43 1.379 . S
C44 C46 1.369 . S
C44 H72 0.930 . S
C45 C47 1.383 . S
C45 C48 1.382 . S
C45 H73 0.930 . S
C46 C44 1.369 . S
C46 C48 1.392 . S
C46 H74 0.930 . S
C47 C43 1.373 . S
C47 C45 1.383 . S
C47 H75 0.931 . S
C48 C45 1.382 . S
C48 C46 1.392 . S
C49 Eu40 2.828 . S
C49 C43 1.505 . S
C49 O61 1.249 . S
C49 O62 1.244 . S
O50 Eu41 2.373 . S
O50 C52 1.258 . S
O51 Eu40 2.392 . S
O51 C52 1.242 . S
C52 O50 1.258 . S
C52 O51 1.242 . S
O53 Eu40 2.418 . S
O53 C57 1.244 . S
O54 Eu41 2.488 . S
O54 C70 1.249 . S
O55 Eu41 2.471 . S
O55 C70 1.244 . S
O56 Eu41 2.349 . S
O56 C57 1.265 . S
C57 O53 1.244 . S
C57 O56 1.265 . S
O58 Eu40 2.373 . S
O58 C71 1.258 . S
O59 Eu41 2.392 . S
O59 C71 1.242 . S
O60 Eu41 2.418 . S
O60 C42 1.244 . S
O61 Eu40 2.488 . S
O61 C49 1.249 . S
O62 Eu40 2.471 . S
O62 C49 1.244 . S
O63 Eu40 2.349 . S
O63 C42 1.265 . S
C64 C65 1.379 . S
C64 C68 1.373 . S
C64 C70 1.505 . S
C65 C64 1.379 . S
C65 C67 1.369 . S
C65 H76 0.930 . S
C66 C68 1.383 . S
C66 C69 1.382 . S
C66 H77 0.930 . S
C67 C65 1.369 . S
C67 C69 1.392 . S
C67 H78 0.930 . S
C68 C64 1.373 . S
C68 C66 1.383 . S
C68 H79 0.931 . S
C69 C66 1.382 . S
C69 C67 1.392 . S
C70 Eu41 2.828 . S
C70 O54 1.249 . S
C70 O55 1.244 . S
C70 C64 1.505 . S
C71 O58 1.258 . S
C71 O59 1.242 . S
H72 C44 0.930 . S
H73 C45 0.930 . S
H74 C46 0.930 . S
H75 C47 0.931 . S
H76 C65 0.930 . S
H77 C66 0.930 . S
H78 C67 0.930 . S
H79 C68 0.931 . S
Eu80 C89 2.828 . S
Eu80 O91 2.392 . S
Eu80 O93 2.418 . S
Eu80 O98 2.373 . S
Eu80 O101 2.488 . S
Eu80 O102 2.471 . S
Eu80 O103 2.349 . S
Eu81 O90 2.373 . S
Eu81 O94 2.488 . S
Eu81 O95 2.471 . S
Eu81 O96 2.349 . S
Eu81 O99 2.392 . S
Eu81 O100 2.418 . S
Eu81 C110 2.828 . S
C82 O100 1.244 . S
C82 O103 1.265 . S
C83 C84 1.379 . S
C83 C87 1.373 . S
C83 C89 1.505 . S
C84 C83 1.379 . S
C84 C86 1.369 . S
C84 H112 0.930 . S
C85 C87 1.383 . S
C85 C88 1.382 . S
C85 H113 0.930 . S
C86 C84 1.369 . S
C86 C88 1.392 . S
C86 H114 0.930 . S
C87 C83 1.373 . S
C87 C85 1.383 . S
C87 H115 0.931 . S
C88 C85 1.382 . S
C88 C86 1.392 . S
C89 Eu80 2.828 . S
C89 C83 1.505 . S
C89 O101 1.249 . S
C89 O102 1.244 . S
O90 Eu81 2.373 . S
O90 C92 1.258 . S
O91 Eu80 2.392 . S
O91 C92 1.242 . S
C92 O90 1.258 . S
C92 O91 1.242 . S
O93 Eu80 2.418 . S
O93 C97 1.244 . S
O94 Eu81 2.488 . S
O94 C110 1.249 . S
O95 Eu81 2.471 . S
O95 C110 1.244 . S
O96 Eu81 2.349 . S
O96 C97 1.265 . S
C97 O93 1.244 . S
C97 O96 1.265 . S
O98 Eu80 2.373 . S
O98 C111 1.258 . S
O99 Eu81 2.392 . S
O99 C111 1.242 . S
O100 Eu81 2.418 . S
O100 C82 1.244 . S
O101 Eu80 2.488 . S
O101 C89 1.249 . S
O102 Eu80 2.471 . S
O102 C89 1.244 . S
O103 Eu80 2.349 . S
O103 C82 1.265 . S
C104 C105 1.379 . S
C104 C108 1.373 . S
C104 C110 1.505 . S
C105 C104 1.379 . S
C105 C107 1.369 . S
C105 H116 0.930 . S
C106 C108 1.383 . S
C106 C109 1.382 . S
C106 H117 0.930 . S
C107 C105 1.369 . S
C107 C109 1.392 . S
C107 H118 0.930 . S
C108 C104 1.373 . S
C108 C106 1.383 . S
C108 H119 0.931 . S
C109 C106 1.382 . S
C109 C107 1.392 . S
C110 Eu81 2.828 . S
C110 O94 1.249 . S
C110 O95 1.244 . S
C110 C104 1.505 . S
C111 O98 1.258 . S
C111 O99 1.242 . S
H112 C84 0.930 . S
H113 C85 0.930 . S
H114 C86 0.930 . S
H115 C87 0.931 . S
H116 C105 0.930 . S
H117 C106 0.930 . S
H118 C107 0.930 . S
H119 C108 0.931 . S
Eu120 C129 2.828 . S
Eu120 O131 2.392 . S
Eu120 O133 2.418 . S
Eu120 O138 2.373 . S
Eu120 O141 2.488 . S
Eu120 O142 2.471 . S
Eu120 O143 2.349 . S
Eu121 O130 2.373 . S
Eu121 O134 2.488 . S
Eu121 O135 2.471 . S
Eu121 O136 2.349 . S
Eu121 O139 2.392 . S
Eu121 O140 2.418 . S
Eu121 C150 2.828 . S
C122 O140 1.244 . S
C122 O143 1.265 . S
C123 C124 1.379 . S
C123 C127 1.373 . S
C123 C129 1.505 . S
C124 C123 1.379 . S
C124 C126 1.369 . S
C124 H152 0.930 . S
C125 C127 1.383 . S
C125 C128 1.382 . S
C125 H153 0.930 . S
C126 C124 1.369 . S
C126 C128 1.392 . S
C126 H154 0.930 . S
C127 C123 1.373 . S
C127 C125 1.383 . S
C127 H155 0.931 . S
C128 C125 1.382 . S
C128 C126 1.392 . S
C129 Eu120 2.828 . S
C129 C123 1.505 . S
C129 O141 1.249 . S
C129 O142 1.244 . S
O130 Eu121 2.373 . S
O130 C132 1.258 . S
O131 Eu120 2.392 . S
O131 C132 1.242 . S
C132 O130 1.258 . S
C132 O131 1.242 . S
O133 Eu120 2.418 . S
O133 C137 1.244 . S
O134 Eu121 2.488 . S
O134 C150 1.249 . S
O135 Eu121 2.471 . S
O135 C150 1.244 . S
O136 Eu121 2.349 . S
O136 C137 1.265 . S
C137 O133 1.244 . S
C137 O136 1.265 . S
O138 Eu120 2.373 . S
O138 C151 1.258 . S
O139 Eu121 2.392 . S
O139 C151 1.242 . S
O140 Eu121 2.418 . S
O140 C122 1.244 . S
O141 Eu120 2.488 . S
O141 C129 1.249 . S
O142 Eu120 2.471 . S
O142 C129 1.244 . S
O143 Eu120 2.349 . S
O143 C122 1.265 . S
C144 C145 1.379 . S
C144 C148 1.373 . S
C144 C150 1.505 . S
C145 C144 1.379 . S
C145 C147 1.369 . S
C145 H156 0.930 . S
C146 C148 1.383 . S
C146 C149 1.382 . S
C146 H157 0.930 . S
C147 C145 1.369 . S
C147 C149 1.392 . S
C147 H158 0.930 . S
C148 C144 1.373 . S
C148 C146 1.383 . S
C148 H159 0.931 . S
C149 C146 1.382 . S
C149 C147 1.392 . S
C150 Eu121 2.828 . S
C150 O134 1.249 . S
C150 O135 1.244 . S
C150 C144 1.505 . S
C151 O138 1.258 . S
C151 O139 1.242 . S
H152 C124 0.930 . S
H153 C125 0.930 . S
H154 C126 0.930 . S
H155 C127 0.931 . S
H156 C145 0.930 . S
H157 C146 0.930 . S
H158 C147 0.930 . S
H159 C148 0.931 . S
Eu160 C169 2.828 . S
Eu160 O171 2.392 . S
Eu160 O173 2.418 . S
Eu160 O178 2.373 . S
Eu160 O181 2.488 . S
Eu160 O182 2.471 . S
Eu160 O183 2.349 . S
Eu161 O170 2.373 . S
Eu161 O174 2.488 . S
Eu161 O175 2.471 . S
Eu161 O176 2.349 . S
Eu161 O179 2.392 . S
Eu161 O180 2.418 . S
Eu161 C190 2.828 . S
C162 O180 1.244 . S
C162 O183 1.265 . S
C163 C164 1.379 . S
C163 C167 1.373 . S
C163 C169 1.505 . S
C164 C163 1.379 . S
C164 C166 1.369 . S
C164 H192 0.930 . S
C165 C167 1.383 . S
C165 C168 1.382 . S
C165 H193 0.930 . S
C166 C164 1.369 . S
C166 C168 1.392 . S
C166 H194 0.930 . S
C167 C163 1.373 . S
C167 C165 1.383 . S
C167 H195 0.931 . S
C168 C165 1.382 . S
C168 C166 1.392 . S
C169 Eu160 2.828 . S
C169 C163 1.505 . S
C169 O181 1.249 . S
C169 O182 1.244 . S
O170 Eu161 2.373 . S
O170 C172 1.258 . S
O171 Eu160 2.392 . S
O171 C172 1.242 . S
C172 O170 1.258 . S
C172 O171 1.242 . S
O173 Eu160 2.418 . S
O173 C177 1.244 . S
O174 Eu161 2.488 . S
O174 C190 1.249 . S
O175 Eu161 2.471 . S
O175 C190 1.244 . S
O176 Eu161 2.349 . S
O176 C177 1.265 . S
C177 O173 1.244 . S
C177 O176 1.265 . S
O178 Eu160 2.373 . S
O178 C191 1.258 . S
O179 Eu161 2.392 . S
O179 C191 1.242 . S
O180 Eu161 2.418 . S
O180 C162 1.244 . S
O181 Eu160 2.488 . S
O181 C169 1.249 . S
O182 Eu160 2.471 . S
O182 C169 1.244 . S
O183 Eu160 2.349 . S
O183 C162 1.265 . S
C184 C185 1.379 . S
C184 C188 1.373 . S
C184 C190 1.505 . S
C185 C184 1.379 . S
C185 C187 1.369 . S
C185 H196 0.930 . S
C186 C188 1.383 . S
C186 C189 1.382 . S
C186 H197 0.930 . S
C187 C185 1.369 . S
C187 C189 1.392 . S
C187 H198 0.930 . S
C188 C184 1.373 . S
C188 C186 1.383 . S
C188 H199 0.931 . S
C189 C186 1.382 . S
C189 C187 1.392 . S
C190 Eu161 2.828 . S
C190 O174 1.249 . S
C190 O175 1.244 . S
C190 C184 1.505 . S
C191 O178 1.258 . S
C191 O179 1.242 . S
H192 C164 0.930 . S
H193 C165 0.930 . S
H194 C166 0.930 . S
H195 C167 0.931 . S
H196 C185 0.930 . S
H197 C186 0.930 . S
H198 C187 0.930 . S
H199 C188 0.931 . S
Eu200 C209 2.828 . S
Eu200 O211 2.392 . S
Eu200 O213 2.418 . S
Eu200 O218 2.373 . S
Eu200 O221 2.488 . S
Eu200 O222 2.471 . S
Eu200 O223 2.349 . S
Eu201 O210 2.373 . S
Eu201 O214 2.488 . S
Eu201 O215 2.471 . S
Eu201 O216 2.349 . S
Eu201 O219 2.392 . S
Eu201 O220 2.418 . S
Eu201 C230 2.828 . S
C202 O220 1.244 . S
C202 O223 1.265 . S
C203 C204 1.379 . S
C203 C207 1.373 . S
C203 C209 1.505 . S
C204 C203 1.379 . S
C204 C206 1.369 . S
C204 H232 0.930 . S
C205 C207 1.383 . S
C205 C208 1.382 . S
C205 H233 0.930 . S
C206 C204 1.369 . S
C206 C208 1.392 . S
C206 H234 0.930 . S
C207 C203 1.373 . S
C207 C205 1.383 . S
C207 H235 0.931 . S
C208 C205 1.382 . S
C208 C206 1.392 . S
C209 Eu200 2.828 . S
C209 C203 1.505 . S
C209 O221 1.249 . S
C209 O222 1.244 . S
O210 Eu201 2.373 . S
O210 C212 1.258 . S
O211 Eu200 2.392 . S
O211 C212 1.242 . S
C212 O210 1.258 . S
C212 O211 1.242 . S
O213 Eu200 2.418 . S
O213 C217 1.244 . S
O214 Eu201 2.488 . S
O214 C230 1.249 . S
O215 Eu201 2.471 . S
O215 C230 1.244 . S
O216 Eu201 2.349 . S
O216 C217 1.265 . S
C217 O213 1.244 . S
C217 O216 1.265 . S
O218 Eu200 2.373 . S
O218 C231 1.258 . S
O219 Eu201 2.392 . S
O219 C231 1.242 . S
O220 Eu201 2.418 . S
O220 C202 1.244 . S
O221 Eu200 2.488 . S
O221 C209 1.249 . S
O222 Eu200 2.471 . S
O222 C209 1.244 . S
O223 Eu200 2.349 . S
O223 C202 1.265 . S
C224 C225 1.379 . S
C224 C228 1.373 . S
C224 C230 1.505 . S
C225 C224 1.379 . S
C225 C227 1.369 . S
C225 H236 0.930 . S
C226 C228 1.383 . S
C226 C229 1.382 . S
C226 H237 0.930 . S
C227 C225 1.369 . S
C227 C229 1.392 . S
C227 H238 0.930 . S
C228 C224 1.373 . S
C228 C226 1.383 . S
C228 H239 0.931 . S
C229 C226 1.382 . S
C229 C227 1.392 . S
C230 Eu201 2.828 . S
C230 O214 1.249 . S
C230 O215 1.244 . S
C230 C224 1.505 . S
C231 O218 1.258 . S
C231 O219 1.242 . S
H232 C204 0.930 . S
H233 C205 0.930 . S
H234 C206 0.930 . S
H235 C207 0.931 . S
H236 C225 0.930 . S
H237 C226 0.930 . S
H238 C227 0.930 . S
H239 C228 0.931 . S
C240 C241 1.386 . S
C240 C242 1.383 . S
C240 H256 0.951 . S
C241 C240 1.386 . S
C241 C245 1.383 . S
C242 C240 1.383 . S
C242 C243 1.402 . S
C242 H257 0.951 . S
C243 C242 1.402 . S
C243 C244 1.375 . S
C243 C246 1.481 1_556 S
C244 C243 1.375 . S
C244 C245 1.367 . S
C244 H258 0.951 . S
C245 C241 1.383 . S
C245 C244 1.367 . S
C245 H259 0.950 . S
C246 C243 1.481 1_554 S
C246 C247 1.293 1_565 S
C246 H260 0.950 . S
C247 C246 1.293 1_545 S
C247 C248 1.482 . S
C247 H261 0.952 1_545 S
C248 C247 1.482 . S
C248 C249 1.375 . S
C248 C254 1.404 . S
C249 C248 1.375 . S
C249 C250 1.369 . S
C249 H262 0.950 . S
C250 C249 1.369 . S
C250 C251 1.392 . S
C250 H263 0.951 . S
C251 C250 1.392 . S
C251 C253 1.384 . S
H252 C254 0.949 . S
C253 C251 1.384 . S
C253 C254 1.385 . S
C253 H255 0.950 . S
C254 C248 1.404 . S
C254 H252 0.949 . S
C254 C253 1.385 . S
H255 C253 0.950 . S
H256 C240 0.951 . S
H257 C242 0.951 . S
H258 C244 0.951 . S
H259 C245 0.950 . S
H260 C246 0.950 . S
H261 C247 0.952 1_565 S
H262 C249 0.950 . S
H263 C250 0.951 . S
C264 C265 1.386 . S
C264 C266 1.383 . S
C264 H280 0.951 . S
C265 C264 1.386 . S
C265 C269 1.383 . S
C266 C264 1.383 . S
C266 C267 1.402 . S
C266 H281 0.951 . S
C267 C266 1.402 . S
C267 C268 1.375 . S
C267 C270 1.481 . S
C268 C267 1.375 . S
C268 C269 1.367 . S
C268 H282 0.951 . S
C269 C265 1.383 . S
C269 C268 1.367 . S
C269 H283 0.950 . S
C270 C267 1.481 . S
C270 C271 1.297 . S
C270 H284 0.950 . S
C271 C270 1.297 . S
C271 C272 1.479 . S
C271 H285 0.950 . S
C272 C271 1.479 . S
C272 C273 1.375 . S
C272 C278 1.404 . S
C273 C272 1.375 . S
C273 C274 1.369 . S
C273 H286 0.950 . S
C274 C273 1.369 . S
C274 C275 1.392 . S
C274 H287 0.951 . S
C275 C274 1.392 . S
C275 C277 1.384 . S
H276 C278 0.949 . S
C277 C275 1.384 . S
C277 C278 1.385 . S
C277 H279 0.950 . S
C278 C272 1.404 . S
C278 H276 0.949 . S
C278 C277 1.385 . S
H279 C277 0.950 . S
H280 C264 0.951 . S
H281 C266 0.951 . S
H282 C268 0.951 . S
H283 C269 0.950 . S
H284 C270 0.950 . S
H285 C271 0.950 . S
H286 C273 0.950 . S
H287 C274 0.951 . S
C288 C289 1.386 . S
C288 C290 1.383 . S
C288 H304 0.951 . S
C289 C288 1.386 . S
C289 C293 1.383 . S
C290 C288 1.383 . S
C290 C291 1.402 . S
C290 H305 0.951 . S
C291 C290 1.402 . S
C291 C292 1.375 . S
C291 C294 1.481 . S
C292 C291 1.375 . S
C292 C293 1.367 . S
C292 H306 0.951 . S
C293 C289 1.383 . S
C293 C292 1.367 . S
C293 H307 0.950 . S
C294 C291 1.481 . S
C294 C295 1.297 1_554 S
C294 H308 0.950 1_655 S
C295 C294 1.297 1_556 S
C295 C296 1.479 1_655 S
C295 H309 0.950 . S
C296 C295 1.479 1_455 S
C296 C297 1.375 . S
C296 C302 1.404 . S
C297 C296 1.375 . S
C297 C298 1.369 . S
C297 H310 0.950 1_455 S
C298 C297 1.369 . S
C298 C299 1.392 . S
C298 H311 0.951 . S
C299 C298 1.392 . S
C299 C301 1.384 . S
H300 C302 0.949 . S
C301 C299 1.384 . S
C301 C302 1.385 . S
C301 H303 0.950 . S
C302 C296 1.404 . S
C302 H300 0.949 . S
C302 C301 1.385 . S
H303 C301 0.950 . S
H304 C288 0.951 . S
H305 C290 0.951 . S
H306 C292 0.951 . S
H307 C293 0.950 . S
H308 C294 0.950 1_455 S
H309 C295 0.950 . S
H310 C297 0.950 1_655 S
H311 C298 0.951 . S
C312 C313 1.386 . S
C312 C314 1.383 . S
C312 H328 0.951 . S
C313 C312 1.386 . S
C313 C317 1.383 . S
C314 C312 1.383 . S
C314 C315 1.402 . S
C314 H329 0.951 . S
C315 C314 1.402 . S
C315 C316 1.375 . S
C315 C318 1.480 . S
C316 C315 1.375 . S
C316 C317 1.367 . S
C316 H330 0.951 . S
C317 C313 1.383 . S
C317 C316 1.367 . S
C317 H331 0.950 . S
C318 C315 1.480 . S
C318 C319 1.297 1_545 S
C318 H332 0.950 . S
C319 C318 1.297 1_565 S
C319 C320 1.479 . S
C319 H333 0.950 . S
C320 C319 1.479 . S
C320 C321 1.375 . S
C320 C326 1.404 . S
C321 C320 1.375 . S
C321 C322 1.369 . S
C321 H334 0.950 . S
C322 C321 1.369 . S
C322 C323 1.392 . S
C322 H335 0.951 . S
C323 C322 1.392 . S
C323 C325 1.384 . S
H324 C326 0.949 . S
C325 C323 1.384 . S
C325 C326 1.385 . S
C325 H327 0.950 . S
C326 C320 1.404 . S
C326 H324 0.949 . S
C326 C325 1.385 . S
H327 C325 0.950 . S
H328 C312 0.951 . S
H329 C314 0.951 . S
H330 C316 0.951 . S
H331 C317 0.950 . S
H332 C318 0.950 . S
H333 C319 0.950 . S
H334 C321 0.950 . S
H335 C322 0.951 . S
C336 C337 1.386 . S
C336 C338 1.383 . S
C336 H352 0.951 . S
C337 C336 1.386 . S
C337 C341 1.383 . S
C338 C336 1.383 . S
C338 C339 1.402 . S
C338 H353 0.951 . S
C339 C338 1.402 . S
C339 C340 1.375 . S
C339 C342 1.481 . S
C340 C339 1.375 . S
C340 C341 1.367 . S
C340 H354 0.951 . S
C341 C337 1.383 . S
C341 C340 1.367 . S
C341 H355 0.950 . S
C342 C339 1.481 . S
C342 C343 1.297 1_556 S
C342 H356 0.950 . S
C343 C342 1.297 1_554 S
C343 C344 1.479 . S
C343 H357 0.950 . S
C344 C343 1.479 . S
C344 C345 1.375 . S
C344 C350 1.404 . S
C345 C344 1.375 . S
C345 C346 1.369 . S
C345 H358 0.950 . S
C346 C345 1.369 . S
C346 C347 1.392 . S
C346 H359 0.951 . S
C347 C346 1.392 . S
C347 C349 1.384 . S
H348 C350 0.949 . S
C349 C347 1.384 . S
C349 C350 1.385 . S
C349 H351 0.950 . S
C350 C344 1.404 . S
C350 H348 0.949 . S
C350 C349 1.385 . S
H351 C349 0.950 . S
H352 C336 0.951 . S
H353 C338 0.951 . S
H354 C340 0.951 . S
H355 C341 0.950 . S
H356 C342 0.950 . S
H357 C343 0.950 . S
H358 C345 0.950 . S
H359 C346 0.951 . S
C360 C361 1.386 . S
C360 C362 1.383 . S
C360 H376 0.951 . S
C361 C360 1.386 . S
C361 C365 1.383 . S
C362 C360 1.383 . S
C362 C363 1.402 . S
C362 H377 0.951 . S
C363 C362 1.402 . S
C363 C364 1.375 . S
C363 C366 1.481 1_655 S
C364 C363 1.375 . S
C364 C365 1.367 . S
C364 H378 0.951 . S
C365 C361 1.383 . S
C365 C364 1.367 . S
C365 H379 0.950 . S
C366 C363 1.481 1_455 S
C366 C367 1.297 . S
C366 H380 0.950 . S
C367 C366 1.297 . S
C367 C368 1.479 . S
C367 H381 0.950 . S
C368 C367 1.479 . S
C368 C369 1.375 . S
C368 C374 1.404 . S
C369 C368 1.375 . S
C369 C370 1.369 . S
C369 H382 0.950 . S
C370 C369 1.369 . S
C370 C371 1.392 . S
C370 H383 0.951 . S
C371 C370 1.392 . S
C371 C373 1.384 . S
H372 C374 0.949 . S
C373 C371 1.384 . S
C373 C374 1.385 . S
C373 H375 0.950 . S
C374 C368 1.404 . S
C374 H372 0.949 . S
C374 C373 1.385 . S
H375 C373 0.950 . S
H376 C360 0.951 . S
H377 C362 0.951 . S
H378 C364 0.951 . S
H379 C365 0.950 . S
H380 C366 0.950 . S
H381 C367 0.950 . S
H382 C369 0.950 . S
H383 C370 0.951 . S
C384 C385 1.386 . S
C384 C386 1.383 . S
C384 H400 0.951 . S
C385 C384 1.386 . S
C385 C389 1.383 . S
C386 C384 1.383 . S
C386 C387 1.402 . S
C386 H401 0.951 . S
C387 C386 1.402 . S
C387 C388 1.375 . S
C387 C390 1.481 . S
C388 C387 1.375 . S
C388 C389 1.367 . S
C388 H402 0.951 . S
C389 C385 1.383 . S
C389 C388 1.367 . S
C389 H403 0.950 . S
C390 C387 1.481 . S
C390 C391 1.297 . S
C390 H404 0.950 . S
C391 C390 1.297 . S
C391 C392 1.479 . S
C391 H405 0.950 . S
C392 C391 1.479 . S
C392 C393 1.375 . S
C392 C398 1.404 . S
C393 C392 1.375 . S
C393 C394 1.369 . S
C393 H406 0.950 . S
C394 C393 1.369 . S
C394 C395 1.392 . S
C394 H407 0.951 . S
C395 C394 1.392 . S
C395 C397 1.384 . S
H396 C398 0.949 . S
C397 C395 1.384 . S
C397 C398 1.385 . S
C397 H399 0.950 . S
C398 C392 1.404 . S
C398 H396 0.949 . S
C398 C397 1.385 . S
H399 C397 0.950 . S
H400 C384 0.951 . S
H401 C386 0.951 . S
H402 C388 0.951 . S
H403 C389 0.950 . S
H404 C390 0.950 . S
H405 C391 0.950 . S
H406 C393 0.950 . S
H407 C394 0.951 . S
C408 C409 1.386 . S
C408 C410 1.383 . S
C408 H424 0.951 . S
C409 C408 1.386 . S
C409 C413 1.383 . S
C410 C408 1.383 . S
C410 C411 1.402 . S
C410 H425 0.951 . S
C411 C410 1.402 . S
C411 C412 1.375 . S
C411 C414 1.481 . S
C412 C411 1.375 . S
C412 C413 1.367 . S
C412 H426 0.951 . S
C413 C409 1.383 . S
C413 C412 1.367 . S
C413 H427 0.950 . S
C414 C411 1.481 . S
C414 C415 1.297 . S
C414 H428 0.950 . S
C415 C414 1.297 . S
C415 C416 1.479 . S
C415 H429 0.950 . S
C416 C415 1.479 . S
C416 C417 1.375 . S
C416 C422 1.404 . S
C417 C416 1.375 . S
C417 C418 1.369 . S
C417 H430 0.950 . S
C418 C417 1.369 . S
C418 C419 1.392 . S
C418 H431 0.951 . S
C419 C418 1.392 . S
C419 C421 1.384 . S
H420 C422 0.949 . S
C421 C419 1.384 . S
C421 C422 1.385 . S
C421 H423 0.950 . S
C422 C416 1.404 . S
C422 H420 0.949 . S
C422 C421 1.385 . S
H423 C421 0.950 . S
H424 C408 0.951 . S
H425 C410 0.951 . S
H426 C412 0.951 . S
H427 C413 0.950 . S
H428 C414 0.950 . S
H429 C415 0.950 . S
H430 C417 0.950 . S
H431 C418 0.951 . S
C432 C433 1.386 . S
C432 C434 1.383 . S
C432 H448 0.951 . S
C433 C432 1.386 . S
C433 C437 1.383 . S
C434 C432 1.383 . S
C434 C435 1.402 . S
C434 H449 0.951 . S
C435 C434 1.402 . S
C435 C436 1.375 . S
C435 C438 1.481 . S
C436 C435 1.375 . S
C436 C437 1.367 . S
C436 H450 0.951 . S
C437 C433 1.383 . S
C437 C436 1.367 . S
C437 H451 0.950 . S
C438 C435 1.481 . S
C438 C439 1.297 . S
C438 H452 0.950 . S
C439 C438 1.297 . S
C439 C440 1.479 . S
C439 H453 0.950 . S
C440 C439 1.479 . S
C440 C441 1.375 . S
C440 C446 1.404 . S
C441 C440 1.375 . S
C441 C442 1.369 . S
C441 H454 0.950 . S
C442 C441 1.369 . S
C442 C443 1.392 . S
C442 H455 0.951 . S
C443 C442 1.392 . S
C443 C445 1.384 . S
H444 C446 0.949 . S
C445 C443 1.384 . S
C445 C446 1.385 . S
C445 H447 0.950 . S
C446 C440 1.404 . S
C446 H444 0.949 . S
C446 C445 1.385 . S
H447 C445 0.950 . S
H448 C432 0.951 . S
H449 C434 0.951 . S
H450 C436 0.951 . S
H451 C437 0.950 . S
H452 C438 0.950 . S
H453 C439 0.950 . S
H454 C441 0.950 . S
H455 C442 0.951 . S
C456 C457 1.386 . S
C456 C458 1.383 . S
C456 H472 0.951 . S
C457 C456 1.386 . S
C457 C461 1.383 . S
C458 C456 1.383 . S
C458 C459 1.402 . S
C458 H473 0.951 . S
C459 C458 1.402 . S
C459 C460 1.375 . S
C459 C462 1.481 . S
C460 C459 1.375 . S
C460 C461 1.367 . S
C460 H474 0.951 . S
C461 C457 1.383 . S
C461 C460 1.367 . S
C461 H475 0.950 . S
C462 C459 1.481 . S
C462 C463 1.297 . S
C462 H476 0.950 . S
C463 C462 1.297 . S
C463 C464 1.479 . S
C463 H477 0.950 . S
C464 C463 1.479 . S
C464 C465 1.375 . S
C464 C470 1.404 . S
C465 C464 1.375 . S
C465 C466 1.369 . S
C465 H478 0.950 . S
C466 C465 1.369 . S
C466 C467 1.392 . S
C466 H479 0.951 . S
C467 C466 1.392 . S
C467 C469 1.384 . S
H468 C470 0.949 . S
C469 C467 1.384 . S
C469 C470 1.385 . S
C469 H471 0.950 . S
C470 C464 1.404 . S
C470 H468 0.949 . S
C470 C469 1.385 . S
H471 C469 0.950 . S
H472 C456 0.951 . S
H473 C458 0.951 . S
H474 C460 0.951 . S
H475 C461 0.950 . S
H476 C462 0.950 . S
H477 C463 0.950 . S
H478 C465 0.950 . S
H479 C466 0.951 . S
C480 C481 1.386 . S
C480 C482 1.383 . S
C480 H496 0.951 . S
C481 C480 1.386 . S
C481 C485 1.383 . S
C482 C480 1.383 . S
C482 C483 1.402 . S
C482 H497 0.951 . S
C483 C482 1.402 . S
C483 C484 1.375 . S
C483 C486 1.481 . S
C484 C483 1.375 . S
C484 C485 1.367 . S
C484 H498 0.951 . S
C485 C481 1.383 . S
C485 C484 1.367 . S
C485 H499 0.950 . S
C486 C483 1.481 . S
C486 C487 1.297 . S
C486 H500 0.950 . S
C487 C486 1.297 . S
C487 C488 1.479 . S
C487 H501 0.950 . S
C488 C487 1.479 . S
C488 C489 1.375 . S
C488 C494 1.404 . S
C489 C488 1.375 . S
C489 C490 1.369 . S
C489 H502 0.950 . S
C490 C489 1.369 . S
C490 C491 1.392 . S
C490 H503 0.951 . S
C491 C490 1.392 . S
C491 C493 1.384 . S
H492 C494 0.949 . S
C493 C491 1.384 . S
C493 C494 1.385 . S
C493 H495 0.950 . S
C494 C488 1.404 . S
C494 H492 0.949 . S
C494 C493 1.385 . S
H495 C493 0.950 . S
H496 C480 0.951 . S
H497 C482 0.951 . S
H498 C484 0.951 . S
H499 C485 0.950 . S
H500 C486 0.950 . S
H501 C487 0.950 . S
H502 C489 0.950 . S
H503 C490 0.951 . S
C504 C505 1.386 . S
C504 C506 1.383 . S
C504 H520 0.951 . S
C505 C504 1.386 . S
C505 C509 1.383 . S
C506 C504 1.383 . S
C506 C507 1.402 . S
C506 H521 0.951 . S
C507 C506 1.402 . S
C507 C508 1.375 . S
C507 C510 1.481 . S
C508 C507 1.375 . S
C508 C509 1.367 . S
C508 H522 0.951 . S
C509 C505 1.383 . S
C509 C508 1.367 . S
C509 H523 0.950 . S
C510 C507 1.481 . S
C510 C511 1.297 . S
C510 H524 0.950 . S
C511 C510 1.297 . S
C511 C512 1.479 . S
C511 H525 0.950 . S
C512 C511 1.479 . S
C512 C513 1.375 . S
C512 C518 1.404 . S
C513 C512 1.375 . S
C513 C514 1.369 . S
C513 H526 0.950 . S
C514 C513 1.369 . S
C514 C515 1.392 . S
C514 H527 0.951 . S
C515 C514 1.392 . S
C515 C517 1.384 . S
H516 C518 0.949 . S
C517 C515 1.384 . S
C517 C518 1.385 . S
C517 H519 0.950 . S
C518 C512 1.404 . S
C518 H516 0.949 . S
C518 C517 1.385 . S
H519 C517 0.950 . S
H520 C504 0.951 . S
H521 C506 0.951 . S
H522 C508 0.951 . S
H523 C509 0.950 . S
H524 C510 0.950 . S
H525 C511 0.950 . S
H526 C513 0.950 . S
H527 C514 0.951 . S
C528 C529 1.386 . S
C528 C530 1.383 . S
C528 H544 0.951 . S
C529 C528 1.386 . S
C529 C533 1.383 . S
C530 C528 1.383 . S
C530 C531 1.402 . S
C530 H545 0.951 . S
C531 C530 1.402 . S
C531 C532 1.375 . S
C531 C534 1.481 . S
C532 C531 1.375 . S
C532 C533 1.367 . S
C532 H546 0.951 . S
C533 C529 1.383 . S
C533 C532 1.367 . S
C533 H547 0.950 . S
C534 C531 1.481 . S
C534 C535 1.297 . S
C534 H548 0.950 . S
C535 C534 1.297 . S
C535 C536 1.479 . S
C535 H549 0.950 . S
C536 C535 1.479 . S
C536 C537 1.375 . S
C536 C542 1.404 1_455 S
C537 C536 1.375 . S
C537 C538 1.369 1_455 S
C537 H550 0.950 . S
C538 C537 1.369 1_655 S
C538 C539 1.392 . S
C538 H551 0.951 . S
C539 C538 1.392 . S
C539 C541 1.384 . S
H540 C542 0.949 . S
C541 C539 1.384 . S
C541 C542 1.385 . S
C541 H543 0.950 . S
C542 C536 1.404 1_655 S
C542 H540 0.949 . S
C542 C541 1.385 . S
H543 C541 0.950 . S
H544 C528 0.951 . S
H545 C530 0.951 . S
H546 C532 0.951 . S
H547 C533 0.950 . S
H548 C534 0.950 . S
H549 C535 0.950 . S
H550 C537 0.950 . S
H551 C538 0.951 . S
C552 C553 1.386 1_455 S
C552 C554 1.383 . S
C552 H568 0.951 . S
C553 C552 1.386 1_655 S
C553 C557 1.383 1_655 S
C554 C552 1.383 . S
C554 C555 1.402 . S
C554 H569 0.951 . S
C555 C554 1.402 . S
C555 C556 1.375 . S
C555 C558 1.481 . S
C556 C555 1.375 . S
C556 C557 1.367 . S
C556 H570 0.951 . S
C557 C553 1.383 1_455 S
C557 C556 1.367 . S
C557 H571 0.950 1_455 S
C558 C555 1.481 . S
C558 C559 1.297 . S
C558 H572 0.950 . S
C559 C558 1.297 . S
C559 C560 1.479 . S
C559 H573 0.950 . S
C560 C559 1.479 . S
C560 C561 1.375 . S
C560 C566 1.404 . S
C561 C560 1.375 . S
C561 C562 1.369 . S
C561 H574 0.950 . S
C562 C561 1.369 . S
C562 C563 1.392 1_565 S
C562 H575 0.954 1_565 S
C563 C562 1.392 1_545 S
C563 C565 1.384 . S
H564 C566 0.949 . S
C565 C563 1.384 . S
C565 C566 1.385 1_545 S
C565 H567 0.950 . S
C566 C560 1.404 . S
C566 H564 0.949 . S
C566 C565 1.385 1_565 S
H567 C565 0.950 . S
H568 C552 0.951 . S
H569 C554 0.951 . S
H570 C556 0.951 . S
H571 C557 0.950 1_655 S
H572 C558 0.950 . S
H573 C559 0.950 . S
H574 C561 0.950 . S
H575 C562 0.954 1_545 S
C576 C577 1.386 1_565 S
C576 C578 1.383 . S
C576 H592 0.951 . S
C577 C576 1.386 1_545 S
C577 C581 1.383 1_545 S
C578 C576 1.383 . S
C578 C579 1.402 . S
C578 H593 0.951 . S
C579 C578 1.402 . S
C579 C580 1.375 . S
C579 C582 1.481 . S
C580 C579 1.375 . S
C580 C581 1.367 . S
C580 H594 0.951 . S
C581 C577 1.383 1_565 S
C581 C580 1.367 . S
C581 H595 0.950 1_565 S
C582 C579 1.481 . S
C582 C583 1.297 . S
C582 H596 0.950 . S
C583 C582 1.297 . S
C583 C584 1.479 . S
C583 H597 0.950 . S
C584 C583 1.479 . S
C584 C585 1.375 . S
C584 C590 1.404 . S
C585 C584 1.375 . S
C585 C586 1.369 . S
C585 H598 0.950 . S
C586 C585 1.369 . S
C586 C587 1.392 . S
C586 H599 0.951 . S
C587 C586 1.392 . S
C587 C589 1.384 . S
H588 C590 0.949 . S
C589 C587 1.384 . S
C589 C590 1.385 . S
C589 H591 0.950 . S
C590 C584 1.404 . S
C590 H588 0.949 . S
C590 C589 1.385 . S
H591 C589 0.950 . S
H592 C576 0.951 . S
H593 C578 0.951 . S
H594 C580 0.951 . S
H595 C581 0.950 1_545 S
H596 C582 0.950 . S
H597 C583 0.950 . S
H598 C585 0.950 . S
H599 C586 0.951 . S
C600 C601 1.386 . S
C600 C602 1.383 . S
C600 H616 0.951 . S
C601 C600 1.386 . S
C601 C605 1.383 . S
C602 C600 1.383 . S
C602 C603 1.402 . S
C602 H617 0.951 . S
C603 C602 1.402 . S
C603 C604 1.375 . S
C603 C606 1.481 . S
C604 C603 1.375 . S
C604 C605 1.367 . S
C604 H618 0.951 . S
C605 C601 1.383 . S
C605 C604 1.367 . S
C605 H619 0.950 . S
C606 C603 1.481 . S
C606 C607 1.297 . S
C606 H620 0.950 . S
C607 C606 1.297 . S
C607 C608 1.479 . S
C607 H621 0.950 . S
C608 C607 1.479 . S
C608 C609 1.375 . S
C608 C614 1.404 . S
C609 C608 1.375 . S
C609 C610 1.369 1_545 S
C609 H622 0.950 . S
C610 C609 1.369 1_565 S
C610 C611 1.392 . S
C610 H623 0.951 . S
C611 C610 1.392 . S
C611 C613 1.384 1_565 S
H612 C614 0.949 . S
C613 C611 1.384 1_545 S
C613 C614 1.385 . S
C613 H615 0.950 . S
C614 C608 1.404 . S
C614 H612 0.949 . S
C614 C613 1.385 . S
H615 C613 0.950 . S
H616 C600 0.951 . S
H617 C602 0.951 . S
H618 C604 0.951 . S
H619 C605 0.950 . S
H620 C606 0.950 . S
H621 C607 0.950 . S
H622 C609 0.950 . S
H623 C610 0.951 . S
C624 C625 1.386 1_655 S
C624 C626 1.383 . S
C624 H640 0.961 . S
C625 C624 1.386 1_455 S
C625 C629 1.383 1_455 S
C626 C624 1.383 . S
C626 C627 1.402 . S
C626 H641 0.951 . S
C627 C626 1.402 . S
C627 C628 1.375 . S
C627 C630 1.481 . S
C628 C627 1.375 . S
C628 C629 1.367 . S
C628 H642 0.951 . S
C629 C625 1.383 1_655 S
C629 C628 1.367 . S
C629 H643 0.926 1_655 S
C630 C627 1.481 . S
C630 C631 1.297 . S
C630 H644 0.950 . S
C631 C630 1.297 . S
C631 C632 1.479 . S
C631 H645 0.950 . S
C632 C631 1.479 . S
C632 C633 1.375 . S
C632 C638 1.404 . S
C633 C632 1.375 . S
C633 C634 1.369 . S
C633 H646 0.950 . S
C634 C633 1.369 . S
C634 C635 1.392 . S
C634 H647 0.951 . S
C635 C634 1.392 . S
C635 C637 1.384 . S
H636 C638 0.949 . S
C637 C635 1.384 . S
C637 C638 1.385 . S
C637 H639 0.950 . S
C638 C632 1.404 . S
C638 H636 0.949 . S
C638 C637 1.385 . S
H639 C637 0.950 . S
H640 C624 0.961 . S
H641 C626 0.951 . S
H642 C628 0.951 . S
H643 C629 0.926 1_455 S
H644 C630 0.950 . S
H645 C631 0.950 . S
H646 C633 0.950 . S
H647 C634 0.951 . S
C648 C649 1.386 1_655 S
C648 C650 1.383 . S
C648 H664 0.951 . S
C649 C648 1.386 1_455 S
C649 C653 1.383 . S
C650 C648 1.383 . S
C650 C651 1.402 . S
C650 H665 0.951 . S
C651 C650 1.402 . S
C651 C652 1.375 1_655 S
C651 C654 1.481 . S
C652 C651 1.375 1_455 S
C652 C653 1.367 . S
C652 H666 0.951 . S
C653 C649 1.383 . S
C653 C652 1.367 . S
C653 H667 0.950 . S
C654 C651 1.481 . S
C654 C655 1.297 . S
C654 H668 0.950 . S
C655 C654 1.297 . S
C655 C656 1.479 . S
C655 H669 0.950 . S
C656 C655 1.479 . S
C656 C657 1.375 . S
C656 C662 1.404 . S
C657 C656 1.375 . S
C657 C658 1.369 . S
C657 H670 0.950 . S
C658 C657 1.369 . S
C658 C659 1.392 1_545 S
C658 H671 0.951 . S
C659 C658 1.392 1_565 S
C659 C661 1.384 1_565 S
H660 C662 0.949 . S
C661 C659 1.384 1_545 S
C661 C662 1.385 . S
C661 H663 0.950 1_545 S
C662 C656 1.404 . S
C662 H660 0.949 . S
C662 C661 1.385 . S
H663 C661 0.950 1_565 S
H664 C648 0.951 . S
H665 C650 0.951 . S
H666 C652 0.951 . S
H667 C653 0.950 . S
H668 C654 0.950 . S
H669 C655 0.950 . S
H670 C657 0.950 . S
H671 C658 0.951 . S
C241 C162 2.497 . S
C251 C2 2.282 . S
C265 C217 2.327 . S
C275 C57 2.436 . S
C289 C82 2.298 . S
C299 C122 2.472 . S
C313 C17 2.489 . S
C323 C177 2.345 . S
C337 C202 2.498 . S
C347 C42 2.262 . S
C361 C97 2.482 . S
C371 C137 2.356 . S
C385 C29 1.895 . S
C395 C92 1.818 . S
C409 C69 1.896 . S
C419 C12 1.883 . S
C433 C109 1.898 . S
C443 C52 1.886 . S
C457 C128 1.906 . S
C467 C191 1.825 . S
C481 C168 1.911 . S
C491 C231 1.815 . S
C505 C151 1.872 . S
C515 C208 1.876 . S
C529 C8 1.099 . S
C539 C111 1.058 . S
C553 C48 1.064 . S
C563 C31 1.149 . S
C577 C88 1.104 . S
C587 C71 1.115 . S
C601 C149 1.015 . S
C611 C172 1.144 . S
C625 C189 1.092 . S
C635 C212 1.057 . S
C649 C132 1.083 . S
C659 C229 1.094 . S
