# Generated by pormake.
# Topology zni, (4)-cn, num edge types: 1
# Building blocks:
#     Node 0, Type 0, BuildingBlock: GALJAG_clean_sbu_0, # of connection points: 4
#     Node 1, Type 0, BuildingBlock: GALJAG_clean_sbu_0, # of connection points: 4
#     Node 2, Type 0, BuildingBlock: GALJAG_clean_sbu_0, # of connection points: 4
#     Node 3, Type 0, BuildingBlock: GALJAG_clean_sbu_0, # of connection points: 4
#     Node 4, Type 0, BuildingBlock: GALJAG_clean_sbu_0, # of connection points: 4
#     Node 5, Type 0, BuildingBlock: GALJAG_clean_sbu_0, # of connection points: 4
#     Node 6, Type 0, BuildingBlock: GALJAG_clean_sbu_0, # of connection points: 4
#     Node 7, Type 0, BuildingBlock: GALJAG_clean_sbu_0, # of connection points: 4
#     Node 8, Type 0, BuildingBlock: GALJAG_clean_sbu_0, # of connection points: 4
#     Node 9, Type 0, BuildingBlock: GALJAG_clean_sbu_0, # of connection points: 4
#     Node 10, Type 0, BuildingBlock: GALJAG_clean_sbu_0, # of connection points: 4
#     Node 11, Type 0, BuildingBlock: GALJAG_clean_sbu_0, # of connection points: 4
#     Node 12, Type 0, BuildingBlock: GALJAG_clean_sbu_0, # of connection points: 4
#     Node 13, Type 0, BuildingBlock: GALJAG_clean_sbu_0, # of connection points: 4
#     Node 14, Type 0, BuildingBlock: GALJAG_clean_sbu_0, # of connection points: 4
#     Node 15, Type 0, BuildingBlock: GALJAG_clean_sbu_0, # of connection points: 4
#     Node 16, Type 0, BuildingBlock: GALJAG_clean_sbu_0, # of connection points: 4
#     Node 17, Type 0, BuildingBlock: GALJAG_clean_sbu_0, # of connection points: 4
#     Node 18, Type 0, BuildingBlock: GALJAG_clean_sbu_0, # of connection points: 4
#     Node 19, Type 0, BuildingBlock: GALJAG_clean_sbu_0, # of connection points: 4
#     Node 20, Type 0, BuildingBlock: GALJAG_clean_sbu_0, # of connection points: 4
#     Node 21, Type 0, BuildingBlock: GALJAG_clean_sbu_0, # of connection points: 4
#     Node 22, Type 0, BuildingBlock: GALJAG_clean_sbu_0, # of connection points: 4
#     Node 23, Type 0, BuildingBlock: GALJAG_clean_sbu_0, # of connection points: 4
#     Node 24, Type 0, BuildingBlock: GALJAG_clean_sbu_0, # of connection points: 4
#     Node 25, Type 0, BuildingBlock: GALJAG_clean_sbu_0, # of connection points: 4
#     Node 26, Type 0, BuildingBlock: GALJAG_clean_sbu_0, # of connection points: 4
#     Node 27, Type 0, BuildingBlock: GALJAG_clean_sbu_0, # of connection points: 4
#     Node 28, Type 0, BuildingBlock: GALJAG_clean_sbu_0, # of connection points: 4
#     Node 29, Type 0, BuildingBlock: GALJAG_clean_sbu_0, # of connection points: 4
#     Node 30, Type 0, BuildingBlock: GALJAG_clean_sbu_0, # of connection points: 4
#     Node 31, Type 0, BuildingBlock: GALJAG_clean_sbu_0, # of connection points: 4
#     Edge 32, Type (0, 0), BuildingBlock: MIFKUJ_clean_linker_0, # of connection points: 2
#     Edge 33, Type (0, 0), BuildingBlock: MIFKUJ_clean_linker_0, # of connection points: 2
#     Edge 34, Type (0, 0), BuildingBlock: MIFKUJ_clean_linker_0, # of connection points: 2
#     Edge 35, Type (0, 0), BuildingBlock: MIFKUJ_clean_linker_0, # of connection points: 2
#     Edge 36, Type (0, 0), BuildingBlock: MIFKUJ_clean_linker_0, # of connection points: 2
#     Edge 37, Type (0, 0), BuildingBlock: MIFKUJ_clean_linker_0, # of connection points: 2
#     Edge 38, Type (0, 0), BuildingBlock: MIFKUJ_clean_linker_0, # of connection points: 2
#     Edge 39, Type (0, 0), BuildingBlock: MIFKUJ_clean_linker_0, # of connection points: 2
#     Edge 40, Type (0, 0), BuildingBlock: MIFKUJ_clean_linker_0, # of connection points: 2
#     Edge 41, Type (0, 0), BuildingBlock: MIFKUJ_clean_linker_0, # of connection points: 2
#     Edge 42, Type (0, 0), BuildingBlock: MIFKUJ_clean_linker_0, # of connection points: 2
#     Edge 43, Type (0, 0), BuildingBlock: MIFKUJ_clean_linker_0, # of connection points: 2
#     Edge 44, Type (0, 0), BuildingBlock: MIFKUJ_clean_linker_0, # of connection points: 2
#     Edge 45, Type (0, 0), BuildingBlock: MIFKUJ_clean_linker_0, # of connection points: 2
#     Edge 46, Type (0, 0), BuildingBlock: MIFKUJ_clean_linker_0, # of connection points: 2
#     Edge 47, Type (0, 0), BuildingBlock: MIFKUJ_clean_linker_0, # of connection points: 2
#     Edge 48, Type (0, 0), BuildingBlock: MIFKUJ_clean_linker_0, # of connection points: 2
#     Edge 49, Type (0, 0), BuildingBlock: MIFKUJ_clean_linker_0, # of connection points: 2
#     Edge 50, Type (0, 0), BuildingBlock: MIFKUJ_clean_linker_0, # of connection points: 2
#     Edge 51, Type (0, 0), BuildingBlock: MIFKUJ_clean_linker_0, # of connection points: 2
#     Edge 52, Type (0, 0), BuildingBlock: MIFKUJ_clean_linker_0, # of connection points: 2
#     Edge 53, Type (0, 0), BuildingBlock: MIFKUJ_clean_linker_0, # of connection points: 2
#     Edge 54, Type (0, 0), BuildingBlock: MIFKUJ_clean_linker_0, # of connection points: 2
#     Edge 55, Type (0, 0), BuildingBlock: MIFKUJ_clean_linker_0, # of connection points: 2
#     Edge 56, Type (0, 0), BuildingBlock: MIFKUJ_clean_linker_0, # of connection points: 2
#     Edge 57, Type (0, 0), BuildingBlock: MIFKUJ_clean_linker_0, # of connection points: 2
#     Edge 58, Type (0, 0), BuildingBlock: MIFKUJ_clean_linker_0, # of connection points: 2
#     Edge 59, Type (0, 0), BuildingBlock: MIFKUJ_clean_linker_0, # of connection points: 2
#     Edge 60, Type (0, 0), BuildingBlock: MIFKUJ_clean_linker_0, # of connection points: 2
#     Edge 61, Type (0, 0), BuildingBlock: MIFKUJ_clean_linker_0, # of connection points: 2
#     Edge 62, Type (0, 0), BuildingBlock: MIFKUJ_clean_linker_0, # of connection points: 2
#     Edge 63, Type (0, 0), BuildingBlock: MIFKUJ_clean_linker_0, # of connection points: 2
#     Edge 64, Type (0, 0), BuildingBlock: MIFKUJ_clean_linker_0, # of connection points: 2
#     Edge 65, Type (0, 0), BuildingBlock: MIFKUJ_clean_linker_0, # of connection points: 2
#     Edge 66, Type (0, 0), BuildingBlock: MIFKUJ_clean_linker_0, # of connection points: 2
#     Edge 67, Type (0, 0), BuildingBlock: MIFKUJ_clean_linker_0, # of connection points: 2
#     Edge 68, Type (0, 0), BuildingBlock: MIFKUJ_clean_linker_0, # of connection points: 2
#     Edge 69, Type (0, 0), BuildingBlock: MIFKUJ_clean_linker_0, # of connection points: 2
#     Edge 70, Type (0, 0), BuildingBlock: MIFKUJ_clean_linker_0, # of connection points: 2
#     Edge 71, Type (0, 0), BuildingBlock: MIFKUJ_clean_linker_0, # of connection points: 2
#     Edge 72, Type (0, 0), BuildingBlock: MIFKUJ_clean_linker_0, # of connection points: 2
#     Edge 73, Type (0, 0), BuildingBlock: MIFKUJ_clean_linker_0, # of connection points: 2
#     Edge 74, Type (0, 0), BuildingBlock: MIFKUJ_clean_linker_0, # of connection points: 2
#     Edge 75, Type (0, 0), BuildingBlock: MIFKUJ_clean_linker_0, # of connection points: 2
#     Edge 76, Type (0, 0), BuildingBlock: MIFKUJ_clean_linker_0, # of connection points: 2
#     Edge 77, Type (0, 0), BuildingBlock: MIFKUJ_clean_linker_0, # of connection points: 2
#     Edge 78, Type (0, 0), BuildingBlock: MIFKUJ_clean_linker_0, # of connection points: 2
#     Edge 79, Type (0, 0), BuildingBlock: MIFKUJ_clean_linker_0, # of connection points: 2
#     Edge 80, Type (0, 0), BuildingBlock: MIFKUJ_clean_linker_0, # of connection points: 2
#     Edge 81, Type (0, 0), BuildingBlock: MIFKUJ_clean_linker_0, # of connection points: 2
#     Edge 82, Type (0, 0), BuildingBlock: MIFKUJ_clean_linker_0, # of connection points: 2
#     Edge 83, Type (0, 0), BuildingBlock: MIFKUJ_clean_linker_0, # of connection points: 2
#     Edge 84, Type (0, 0), BuildingBlock: MIFKUJ_clean_linker_0, # of connection points: 2
#     Edge 85, Type (0, 0), BuildingBlock: MIFKUJ_clean_linker_0, # of connection points: 2
#     Edge 86, Type (0, 0), BuildingBlock: MIFKUJ_clean_linker_0, # of connection points: 2
#     Edge 87, Type (0, 0), BuildingBlock: MIFKUJ_clean_linker_0, # of connection points: 2
#     Edge 88, Type (0, 0), BuildingBlock: MIFKUJ_clean_linker_0, # of connection points: 2
#     Edge 89, Type (0, 0), BuildingBlock: MIFKUJ_clean_linker_0, # of connection points: 2
#     Edge 90, Type (0, 0), BuildingBlock: MIFKUJ_clean_linker_0, # of connection points: 2
#     Edge 91, Type (0, 0), BuildingBlock: MIFKUJ_clean_linker_0, # of connection points: 2
#     Edge 92, Type (0, 0), BuildingBlock: MIFKUJ_clean_linker_0, # of connection points: 2
#     Edge 93, Type (0, 0), BuildingBlock: MIFKUJ_clean_linker_0, # of connection points: 2
#     Edge 94, Type (0, 0), BuildingBlock: MIFKUJ_clean_linker_0, # of connection points: 2
#     Edge 95, Type (0, 0), BuildingBlock: MIFKUJ_clean_linker_0, # of connection points: 2
# Relax obj value: 0.235
# Max RMSD: 0.125
# Mean RMSD: 0.125
data_MOF--net-zni--node1-GALJAG_clean_sbu_0--edge1-MIFKUJ_clean_linker_0
_symmetry_space_group_name_H-M    P1
_symmetry_Int_Tables_number       1
_symmetry_cell_setting            triclinic
loop_
_symmetry_equiv_pos_as_xyz
'x, y, z'
_cell_length_a     75.978308
_cell_length_b     75.983806
_cell_length_c     39.378069
_cell_angle_alpha  90.021354
_cell_angle_beta   89.982222
_cell_angle_gamma 89.981442
loop_
_atom_site_label
_atom_site_type_symbol
_atom_site_fract_x
_atom_site_fract_y
_atom_site_fract_z
_atom_type_partial_charge
In0 In 0.106 0.10368 0.39209 0.0
O1 O 0.11292 0.094 0.3386 0.0
O2 O 0.11843 0.07716 0.38013 0.0
C3 C 0.11754 0.13724 0.38995 0.0
C4 C 0.07087 0.10337 0.38087 0.0
C5 C 0.11587 0.09571 0.45574 0.0
O6 O 0.1234 0.12556 0.3701 0.0
O7 O 0.10604 0.13192 0.41062 0.0
O8 O 0.1 0.09562 0.44629 0.0
O9 O 0.12685 0.09974 0.43293 0.0
C10 C 0.11878 0.07935 0.34847 0.0
O11 O 0.07857 0.09167 0.39801 0.0
O12 O 0.08091 0.11501 0.3689 0.0
In13 In 0.14133 0.86044 0.63005 0.0
O14 O 0.15316 0.86236 0.57695 0.0
O15 O 0.16589 0.87634 0.6164 0.0
C16 C 0.11017 0.87255 0.60713 0.0
C17 C 0.13956 0.82516 0.63809 0.0
C18 C 0.14715 0.8711 0.69434 0.0
O19 O 0.12024 0.88165 0.62559 0.0
O20 O 0.11611 0.85758 0.59926 0.0
O21 O 0.15668 0.85971 0.67998 0.0
O22 O 0.13483 0.87706 0.67627 0.0
C23 C 0.16582 0.87207 0.58552 0.0
O24 O 0.12726 0.83537 0.64671 0.0
O25 O 0.15285 0.83274 0.62572 0.0
In26 In 0.39206 0.89943 0.90429 0.0
O27 O 0.41894 0.90045 0.92981 0.0
O28 O 0.41828 0.89702 0.87628 0.0
C29 C 0.37371 0.9078 0.96064 0.0
C30 C 0.38145 0.92542 0.8624 0.0
C31 C 0.386 0.8649 0.8944 0.0
O32 O 0.38866 0.91416 0.95427 0.0
O33 O 0.36793 0.89732 0.9385 0.0
O34 O 0.38239 0.87633 0.87213 0.0
O35 O 0.39269 0.87094 0.92131 0.0
C36 C 0.42756 0.89848 0.9027 0.0
O37 O 0.37519 0.91007 0.86054 0.0
O38 O 0.39304 0.92746 0.8849 0.0
In39 In 0.35331 0.14522 0.15045 0.0
O40 O 0.34088 0.13319 0.10289 0.0
O41 O 0.32396 0.14205 0.14234 0.0
C42 C 0.38718 0.1353 0.1425 0.0
C43 C 0.35336 0.18056 0.14215 0.0
C44 C 0.34721 0.12931 0.21012 0.0
O45 O 0.37549 0.13157 0.12088 0.0
O46 O 0.38176 0.144 0.16763 0.0
O47 O 0.34934 0.14571 0.20726 0.0
O48 O 0.34808 0.12077 0.18262 0.0
C49 C 0.32531 0.13505 0.11345 0.0
O50 O 0.34787 0.17318 0.16873 0.0
O51 O 0.35871 0.17013 0.1195 0.0
In52 In 0.11254 0.89717 0.10816 0.0
O53 O 0.08792 0.88333 0.0889 0.0
O54 O 0.08445 0.90597 0.11995 0.0
C55 C 0.12542 0.89935 0.04453 0.0
C56 C 0.12206 0.92645 0.14259 0.0
C57 C 0.12381 0.86672 0.1361 0.0
O58 O 0.10962 0.90284 0.05171 0.0
O59 O 0.13478 0.89486 0.06949 0.0
O60 O 0.13331 0.87597 0.11688 0.0
O61 O 0.10885 0.87316 0.14229 0.0
C62 C 0.0773 0.89377 0.10309 0.0
O63 O 0.12105 0.91158 0.15665 0.0
O64 O 0.11841 0.92645 0.11144 0.0
In65 In 0.35093 0.85266 0.35089 0.0
O66 O 0.33694 0.8659 0.39561 0.0
O67 O 0.32185 0.84997 0.36213 0.0
C68 C 0.38425 0.86318 0.36249 0.0
C69 C 0.35511 0.8174 0.35397 0.0
C70 C 0.34237 0.871 0.29488 0.0
O71 O 0.37246 0.86415 0.38503 0.0
O72 O 0.37921 0.85683 0.33456 0.0
O73 O 0.34082 0.85449 0.2967 0.0
O74 O 0.34814 0.87828 0.32143 0.0
C75 C 0.32202 0.85974 0.38799 0.0
O76 O 0.35362 0.82561 0.3263 0.0
O77 O 0.35448 0.82697 0.38013 0.0
In78 In 0.39556 0.09617 0.60326 0.0
O79 O 0.4238 0.08885 0.59044 0.0
O80 O 0.4197 0.10666 0.63137 0.0
C81 C 0.38281 0.08666 0.54209 0.0
C82 C 0.38532 0.06996 0.64498 0.0
C83 C 0.38524 0.13005 0.60877 0.0
O84 O 0.39865 0.09085 0.5469 0.0
O85 O 0.37329 0.08711 0.5683 0.0
O86 O 0.3833 0.11916 0.63271 0.0
O87 O 0.3923 0.12381 0.58242 0.0
C88 C 0.4306 0.09837 0.61316 0.0
O89 O 0.37632 0.08378 0.64123 0.0
O90 O 0.39943 0.06959 0.62822 0.0
In91 In 0.15012 0.14279 0.85728 0.0
O92 O 0.16003 0.13402 0.90932 0.0
O93 O 0.17831 0.13454 0.86859 0.0
C94 C 0.11534 0.13678 0.86485 0.0
C95 C 0.15332 0.17809 0.86134 0.0
C96 C 0.15483 0.12608 0.79777 0.0
O97 O 0.12687 0.12741 0.87919 0.0
O98 O 0.12137 0.14921 0.84718 0.0
O99 O 0.15846 0.14213 0.80207 0.0
O100 O 0.14917 0.11827 0.82386 0.0
C101 C 0.17564 0.13151 0.89961 0.0
O102 O 0.15667 0.16955 0.83464 0.0
O103 O 0.14857 0.16879 0.88625 0.0
In104 In 0.88823 0.89242 0.60647 0.0
O105 O 0.91397 0.88668 0.57918 0.0
O106 O 0.91556 0.90032 0.62609 0.0
C107 C 0.87423 0.89948 0.54521 0.0
C108 C 0.8774 0.918 0.64902 0.0
C109 C 0.87975 0.85916 0.62497 0.0
O110 O 0.88754 0.90741 0.55666 0.0
O111 O 0.86767 0.88819 0.56504 0.0
O112 O 0.87031 0.87216 0.63312 0.0
O113 O 0.89331 0.86305 0.60829 0.0
C114 C 0.92369 0.89374 0.60119 0.0
O115 O 0.88622 0.90491 0.65911 0.0
O116 O 0.87379 0.91793 0.61778 0.0
In117 In 0.85054 0.13918 0.35178 0.0
O118 O 0.84822 0.16574 0.32507 0.0
O119 O 0.84775 0.16562 0.37893 0.0
C120 C 0.84538 0.1233 0.29156 0.0
C121 C 0.82532 0.12668 0.39369 0.0
C122 C 0.88483 0.13252 0.36415 0.0
O123 O 0.83665 0.1366 0.30084 0.0
O124 O 0.85656 0.1179 0.31284 0.0
O125 O 0.8727 0.1226 0.37484 0.0
O126 O 0.87961 0.1458 0.34782 0.0
C127 C 0.8472 0.17461 0.35205 0.0
O128 O 0.83971 0.1327 0.4046 0.0
O129 O 0.82384 0.12672 0.36186 0.0
In130 In 0.60811 0.10367 0.10702 0.0
O131 O 0.61751 0.09343 0.15849 0.0
O132 O 0.61385 0.07498 0.1186 0.0
C133 C 0.61699 0.138 0.11175 0.0
C134 C 0.57272 0.10367 0.11366 0.0
C135 C 0.62395 0.0956 0.04808 0.0
O136 O 0.62434 0.12628 0.12951 0.0
O137 O 0.60519 0.1324 0.09208 0.0
O138 O 0.60771 0.09332 0.05316 0.0
O139 O 0.63235 0.10174 0.07308 0.0
C140 C 0.61818 0.07757 0.14906 0.0
O141 O 0.58037 0.10061 0.08588 0.0
O142 O 0.58292 0.1066 0.13829 0.0
In143 In 0.64461 0.85789 0.87078 0.0
O144 O 0.65787 0.8309 0.87487 0.0
O145 O 0.63001 0.83178 0.87054 0.0
C146 C 0.64784 0.86532 0.80427 0.0
C147 C 0.67206 0.86986 0.90784 0.0
C148 C 0.61371 0.87229 0.8907 0.0
O149 O 0.64521 0.84992 0.81508 0.0
O150 O 0.64868 0.877 0.82699 0.0
O151 O 0.62255 0.87816 0.86612 0.0
O152 O 0.62077 0.85959 0.90611 0.0
C153 C 0.64363 0.8224 0.87339 0.0
O154 O 0.65775 0.86524 0.92137 0.0
O155 O 0.67237 0.86855 0.87602 0.0
In156 In 0.89494 0.0993 0.89109 0.0
O157 O 0.88074 0.08736 0.84504 0.0
O158 O 0.89487 0.0703 0.87781 0.0
C159 C 0.88559 0.13339 0.88606 0.0
C160 C 0.93007 0.10172 0.88179 0.0
C161 C 0.87912 0.09185 0.95043 0.0
O162 O 0.88182 0.12227 0.8633 0.0
O163 O 0.89396 0.12726 0.91106 0.0
O164 O 0.89561 0.09163 0.94668 0.0
O165 O 0.87051 0.09572 0.92406 0.0
C166 C 0.88542 0.07181 0.85174 0.0
O167 O 0.92331 0.09408 0.90701 0.0
O168 O 0.91913 0.10794 0.86093 0.0
In169 In 0.64833 0.14761 0.64358 0.0
O170 O 0.65681 0.1749 0.66065 0.0
O171 O 0.64478 0.17261 0.61215 0.0
C172 C 0.65205 0.13535 0.70731 0.0
C173 C 0.67512 0.13653 0.60432 0.0
C174 C 0.61472 0.13743 0.63264 0.0
O175 O 0.64566 0.15023 0.70061 0.0
O176 O 0.65665 0.12646 0.68175 0.0
O177 O 0.62764 0.12784 0.62466 0.0
O178 O 0.61883 0.15207 0.64534 0.0
C179 C 0.6514 0.18262 0.63432 0.0
O180 O 0.6593 0.13586 0.59455 0.0
O181 O 0.67732 0.14279 0.63368 0.0
In182 In 0.60311 0.8998 0.39874 0.0
O183 O 0.57568 0.90311 0.42111 0.0
O184 O 0.5776 0.89875 0.36801 0.0
C185 C 0.61967 0.90391 0.45843 0.0
C186 C 0.61454 0.92724 0.36138 0.0
C187 C 0.61011 0.86544 0.38847 0.0
O188 O 0.60398 0.90873 0.45352 0.0
O189 O 0.62724 0.89734 0.43284 0.0
O190 O 0.61767 0.87742 0.37168 0.0
O191 O 0.59902 0.87083 0.40988 0.0
C192 C 0.56771 0.90115 0.39332 0.0
O193 O 0.61334 0.91191 0.3493 0.0
O194 O 0.61006 0.92861 0.39204 0.0
In195 In 0.85878 0.85661 0.13212 0.0
O196 O 0.84596 0.86706 0.08327 0.0
O197 O 0.8297 0.86279 0.12615 0.0
C198 C 0.89113 0.86589 0.10976 0.0
C199 C 0.85995 0.8212 0.13503 0.0
C200 C 0.85521 0.87004 0.19505 0.0
O201 O 0.88042 0.87686 0.12201 0.0
O202 O 0.88533 0.85039 0.10782 0.0
O203 O 0.84894 0.85529 0.1867 0.0
O204 O 0.86332 0.87797 0.1717 0.0
C205 C 0.83068 0.86767 0.09572 0.0
O206 O 0.86638 0.8309 0.15793 0.0
O207 O 0.85295 0.82937 0.11059 0.0
In208 In 0.60596 0.60214 0.89063 0.0
O209 O 0.57806 0.59433 0.90496 0.0
O210 O 0.58176 0.60763 0.85795 0.0
C211 C 0.61912 0.59646 0.95325 0.0
C212 C 0.61672 0.57557 0.8504 0.0
C213 C 0.61496 0.63632 0.88328 0.0
O214 O 0.60313 0.59981 0.94788 0.0
O215 O 0.62857 0.59591 0.92696 0.0
O216 O 0.62463 0.62399 0.87258 0.0
O217 O 0.60089 0.63137 0.8972 0.0
C218 C 0.57107 0.60076 0.87867 0.0
O219 O 0.61941 0.59149 0.84283 0.0
O220 O 0.60861 0.57319 0.87792 0.0
In221 In 0.64832 0.35861 0.1347 0.0
O222 O 0.66113 0.36751 0.08483 0.0
O223 O 0.67684 0.3671 0.12929 0.0
C224 C 0.61416 0.36578 0.1226 0.0
C225 C 0.65042 0.32337 0.12787 0.0
C226 C 0.65053 0.37417 0.19588 0.0
O227 O 0.62638 0.37585 0.11282 0.0
O228 O 0.61921 0.35213 0.13792 0.0
O229 O 0.65492 0.35832 0.19111 0.0
O230 O 0.64514 0.38213 0.16978 0.0
C231 C 0.67603 0.37016 0.09794 0.0
O232 O 0.65409 0.33114 0.15531 0.0
O233 O 0.64599 0.33341 0.10381 0.0
In234 In 0.88567 0.39218 0.39022 0.0
O235 O 0.91302 0.40362 0.40057 0.0
O236 O 0.9114 0.37725 0.38307 0.0
C237 C 0.87305 0.40116 0.45169 0.0
C238 C 0.877 0.41702 0.344 0.0
C239 C 0.87271 0.35966 0.37857 0.0
O240 O 0.88912 0.40262 0.444 0.0
O241 O 0.86333 0.39543 0.42818 0.0
O242 O 0.8728 0.37141 0.35591 0.0
O243 O 0.87904 0.36438 0.40671 0.0
C244 C 0.92115 0.38979 0.39227 0.0
O245 O 0.88892 0.40579 0.33898 0.0
O246 O 0.86909 0.41542 0.37191 0.0
In247 In 0.85214 0.63879 0.64865 0.0
O248 O 0.84199 0.66526 0.6689 0.0
O249 O 0.85936 0.66549 0.62674 0.0
C250 C 0.84609 0.62193 0.70737 0.0
C251 C 0.82766 0.62811 0.60318 0.0
C252 C 0.88662 0.63086 0.64342 0.0
O253 O 0.84187 0.63785 0.70284 0.0
O254 O 0.85316 0.6145 0.68211 0.0
O255 O 0.87518 0.62403 0.6242 0.0
O256 O 0.88062 0.64162 0.66488 0.0
C257 C 0.85044 0.67434 0.64762 0.0
O258 O 0.84183 0.63536 0.59432 0.0
O259 O 0.82594 0.62612 0.6347 0.0
In260 In 0.60512 0.40015 0.59888 0.0
O261 O 0.5774 0.40127 0.57711 0.0
O262 O 0.58042 0.39204 0.62779 0.0
C263 C 0.61984 0.40931 0.53913 0.0
C264 C 0.6144 0.42709 0.63994 0.0
C265 C 0.61479 0.36646 0.60836 0.0
O266 O 0.60456 0.4141 0.54753 0.0
O267 O 0.62777 0.40025 0.56109 0.0
O268 O 0.61688 0.37803 0.63109 0.0
O269 O 0.60771 0.37191 0.58137 0.0
C270 C 0.57006 0.39549 0.60362 0.0
O271 O 0.62448 0.41422 0.63455 0.0
O272 O 0.59977 0.42617 0.62513 0.0
In273 In 0.85705 0.35531 0.85769 0.0
O274 O 0.84602 0.3666 0.90738 0.0
O275 O 0.82816 0.36086 0.8675 0.0
C276 C 0.89113 0.36386 0.86644 0.0
C277 C 0.85758 0.31983 0.86345 0.0
C278 C 0.85052 0.37183 0.79858 0.0
O279 O 0.879 0.37069 0.88404 0.0
O280 O 0.88603 0.35269 0.84487 0.0
O281 O 0.84399 0.35704 0.80585 0.0
O282 O 0.86023 0.3784 0.82123 0.0
C283 C 0.83027 0.36652 0.89725 0.0
O284 O 0.85552 0.3276 0.83547 0.0
O285 O 0.85925 0.32994 0.88865 0.0
In286 In 0.89357 0.60148 0.105 0.0
O287 O 0.91972 0.60333 0.07666 0.0
O288 O 0.91942 0.61025 0.12893 0.0
C289 C 0.87694 0.59078 0.04836 0.0
C290 C 0.88747 0.57389 0.14658 0.0
C291 C 0.8827 0.63463 0.11692 0.0
O292 O 0.89289 0.58732 0.05422 0.0
O293 O 0.86925 0.59945 0.07134 0.0
O294 O 0.8856 0.62386 0.14073 0.0
O295 O 0.88508 0.62858 0.08745 0.0
C296 C 0.92832 0.60861 0.10209 0.0
O297 O 0.87729 0.587 0.14555 0.0
O298 O 0.9006 0.57494 0.12724 0.0
In299 In 0.6503 0.64559 0.35268 0.0
O300 O 0.66337 0.62818 0.39292 0.0
O301 O 0.6789 0.6477 0.36868 0.0
C302 C 0.61677 0.63464 0.36139 0.0
C303 C 0.64745 0.68072 0.3618 0.0
C304 C 0.65769 0.6325 0.29092 0.0
O305 O 0.62758 0.63542 0.38569 0.0
O306 O 0.62294 0.63918 0.33303 0.0
O307 O 0.6541 0.64849 0.29611 0.0
O308 O 0.65767 0.62293 0.31716 0.0
C309 C 0.67825 0.63539 0.39005 0.0
O310 O 0.65496 0.67397 0.33643 0.0
O311 O 0.64155 0.66975 0.38296 0.0
In312 In 0.39286 0.3994 0.09407 0.0
O313 O 0.37512 0.41137 0.13496 0.0
O314 O 0.39434 0.42773 0.11168 0.0
C315 C 0.38331 0.36565 0.10483 0.0
C316 C 0.42808 0.39592 0.10075 0.0
C317 C 0.3786 0.40936 0.03445 0.0
O318 O 0.38191 0.37728 0.12759 0.0
O319 O 0.38945 0.3711 0.07703 0.0
O320 O 0.3943 0.41274 0.0425 0.0
O321 O 0.36994 0.40122 0.05681 0.0
C322 C 0.38208 0.42643 0.13309 0.0
O323 O 0.42027 0.39461 0.07265 0.0
O324 O 0.41814 0.39897 0.12572 0.0
In325 In 0.352 0.64442 0.84896 0.0
O326 O 0.34048 0.63291 0.89795 0.0
O327 O 0.32279 0.64141 0.85963 0.0
C328 C 0.38604 0.63473 0.85449 0.0
C329 C 0.35372 0.67959 0.85828 0.0
C330 C 0.34466 0.62912 0.78901 0.0
O331 O 0.37412 0.62812 0.87288 0.0
O332 O 0.38076 0.64618 0.8337 0.0
O333 O 0.34276 0.64539 0.79426 0.0
O334 O 0.35008 0.62044 0.81425 0.0
C335 C 0.32469 0.63476 0.88867 0.0
O336 O 0.34902 0.67269 0.83063 0.0
O337 O 0.35738 0.66876 0.88149 0.0
In338 In 0.10738 0.60405 0.60947 0.0
O339 O 0.1204 0.59202 0.65666 0.0
O340 O 0.11302 0.57494 0.61656 0.0
C341 C 0.11419 0.63838 0.62156 0.0
C342 C 0.07253 0.60147 0.62063 0.0
C343 C 0.12014 0.60109 0.54584 0.0
O344 O 0.12542 0.62648 0.62708 0.0
O345 O 0.09969 0.63295 0.61012 0.0
O346 O 0.10413 0.59881 0.55296 0.0
O347 O 0.12977 0.60493 0.57082 0.0
C348 C 0.11977 0.57646 0.64557 0.0
O349 O 0.07949 0.59805 0.59228 0.0
O350 O 0.08321 0.60596 0.64365 0.0
In351 In 0.14201 0.35816 0.36159 0.0
O352 O 0.14891 0.3308 0.34184 0.0
O353 O 0.14081 0.33307 0.39328 0.0
C354 C 0.14323 0.37189 0.29862 0.0
C355 C 0.16983 0.37058 0.39713 0.0
C356 C 0.10787 0.36455 0.37592 0.0
O357 O 0.14725 0.35613 0.30505 0.0
O358 O 0.13867 0.38089 0.32411 0.0
O359 O 0.11998 0.37497 0.38476 0.0
O360 O 0.11304 0.35108 0.36011 0.0
C361 C 0.14567 0.32307 0.36947 0.0
O362 O 0.15511 0.36762 0.41073 0.0
O363 O 0.17037 0.36762 0.36571 0.0
In364 In 0.39595 0.59794 0.39405 0.0
O365 O 0.37759 0.58502 0.35539 0.0
O366 O 0.39968 0.57044 0.37273 0.0
C367 C 0.38626 0.63179 0.38434 0.0
C368 C 0.43117 0.60194 0.38994 0.0
C369 C 0.3811 0.5875 0.45268 0.0
O370 O 0.38759 0.62099 0.36012 0.0
O371 O 0.38969 0.62548 0.41315 0.0
O372 O 0.39746 0.58663 0.44731 0.0
O373 O 0.37217 0.59336 0.42815 0.0
C374 C 0.38618 0.57082 0.35417 0.0
O375 O 0.42319 0.6001 0.4178 0.0
O376 O 0.42139 0.60169 0.36404 0.0
In377 In 0.14778 0.64658 0.1407 0.0
O378 O 0.15035 0.67208 0.17086 0.0
O379 O 0.15108 0.67394 0.11721 0.0
C380 C 0.15201 0.62862 0.1989 0.0
C381 C 0.17336 0.63449 0.09903 0.0
C382 C 0.11348 0.6415 0.12588 0.0
O383 O 0.16143 0.64166 0.19099 0.0
O384 O 0.14059 0.62437 0.17709 0.0
O385 O 0.12555 0.63264 0.1119 0.0
O386 O 0.11876 0.65279 0.147 0.0
C387 C 0.15151 0.68192 0.14526 0.0
O388 O 0.15928 0.6411 0.08788 0.0
O389 O 0.17434 0.63377 0.13089 0.0
In390 In 0.11146 0.39702 0.88305 0.0
O391 O 0.11649 0.4097 0.83111 0.0
O392 O 0.12769 0.4219 0.87423 0.0
C393 C 0.12043 0.3632 0.87156 0.0
C394 C 0.07601 0.39903 0.87805 0.0
C395 C 0.12226 0.40142 0.94755 0.0
O396 O 0.13055 0.37582 0.8641 0.0
O397 O 0.10595 0.36772 0.88455 0.0
O398 O 0.11055 0.41098 0.93422 0.0
O399 O 0.1286 0.38977 0.92824 0.0
C400 C 0.12549 0.42227 0.84261 0.0
O401 O 0.08426 0.40373 0.90428 0.0
O402 O 0.08563 0.39364 0.85414 0.0
In403 In 0.35092 0.35063 0.63777 0.0
O404 O 0.34423 0.32267 0.65457 0.0
O405 O 0.35736 0.32583 0.60741 0.0
C406 C 0.3455 0.3666 0.69783 0.0
C407 C 0.3237 0.36087 0.59853 0.0
C408 C 0.38499 0.35988 0.6305 0.0
O409 O 0.34624 0.35009 0.69462 0.0
O410 O 0.34723 0.37512 0.67053 0.0
O411 O 0.37302 0.36601 0.61163 0.0
O412 O 0.37974 0.3491 0.65261 0.0
C413 C 0.35095 0.31535 0.62892 0.0
O414 O 0.33948 0.36202 0.58877 0.0
O415 O 0.32172 0.35452 0.62783 0.0
H416 H 0.11998 0.08054 0.27914 0.0
H417 H 0.12544 0.05591 0.24041 0.0
H418 H 0.1347 0.02171 0.32603 0.0
H419 H 0.12964 0.04629 0.36476 0.0
H420 H 0.1566 0.01377 0.27453 0.0
H421 H 0.09443 0.02391 0.28952 0.0
H422 H 0.06719 0.04157 0.28889 0.0
H423 H 0.07363 0.05093 0.18207 0.0
H424 H 0.10106 0.03352 0.18219 0.0
H425 H 0.13017 0.93003 0.20987 0.0
H426 H 0.1344 0.95753 0.24131 0.0
H427 H 0.12726 0.98712 0.14885 0.0
H428 H 0.12295 0.95975 0.11734 0.0
H429 H 0.10622 0.99872 0.19981 0.0
H430 H 0.1672 0.98501 0.18478 0.0
H431 H 0.19377 0.96642 0.18705 0.0
H432 H 0.1889 0.96253 0.29542 0.0
H433 H 0.16214 0.9809 0.29377 0.0
C434 C 0.12346 0.06783 0.28964 0.0
C435 C 0.12418 0.06526 0.32493 0.0
C436 C 0.12654 0.05378 0.26753 0.0
C437 C 0.13018 0.03693 0.2804 0.0
C438 C 0.13188 0.0346 0.31557 0.0
C439 C 0.1289 0.04864 0.33766 0.0
C440 C 0.13074 0.02143 0.25763 0.0
C441 C 0.14557 0.01041 0.25828 0.0
C442 C 0.11643 0.01721 0.23611 0.0
C443 C 0.0999 0.0276 0.23595 0.0
C444 C 0.09011 0.02985 0.26596 0.0
C445 C 0.07463 0.03979 0.26568 0.0
C446 C 0.06871 0.04741 0.23548 0.0
C447 C 0.07824 0.04506 0.20546 0.0
C448 C 0.09376 0.03515 0.20561 0.0
C449 C 0.12973 0.94239 0.19621 0.0
C450 C 0.12615 0.94277 0.16123 0.0
C451 C 0.13223 0.95807 0.21414 0.0
C452 C 0.13123 0.97433 0.19732 0.0
C453 C 0.12809 0.97469 0.16225 0.0
C454 C 0.12565 0.95905 0.14432 0.0
C455 C 0.13205 0.99099 0.21673 0.0
C456 C 0.1174 0.00219 0.2156 0.0
C457 C 0.14644 0.99523 0.23799 0.0
C458 C 0.16257 0.98422 0.2391 0.0
C459 C 0.1717 0.98008 0.20907 0.0
C460 C 0.18682 0.9696 0.21025 0.0
C461 C 0.193 0.96326 0.24135 0.0
C462 C 0.18409 0.96743 0.27135 0.0
C463 C 0.16896 0.9779 0.27031 0.0
H464 H 0.2047 0.95515 0.24221 0.0
H465 H 0.05672 0.0551 0.23531 0.0
H466 H 0.16891 0.8629 0.51897 0.0
H467 H 0.19534 0.86482 0.48382 0.0
H468 H 0.22248 0.89184 0.56465 0.0
H469 H 0.196 0.89009 0.60001 0.0
H470 H 0.23156 0.90416 0.49868 0.0
H471 H 0.22736 0.8499 0.56101 0.0
H472 H 0.21249 0.82296 0.58089 0.0
H473 H 0.20774 0.80484 0.47799 0.0
H474 H 0.22233 0.83184 0.45745 0.0
H475 H 0.31878 0.87968 0.44561 0.0
H476 H 0.29183 0.88527 0.47822 0.0
H477 H 0.2621 0.85431 0.40647 0.0
H478 H 0.28888 0.84849 0.37421 0.0
H479 H 0.25488 0.84494 0.4701 0.0
H480 H 0.25938 0.89914 0.40752 0.0
H481 H 0.2739 0.92626 0.38761 0.0
H482 H 0.27831 0.94453 0.49046 0.0
H483 H 0.26402 0.91739 0.51103 0.0
C484 C 0.18037 0.8696 0.52901 0.0
C485 C 0.18051 0.87613 0.56237 0.0
C486 C 0.19544 0.87067 0.50891 0.0
C487 C 0.21089 0.87821 0.52193 0.0
C488 C 0.21067 0.88594 0.55426 0.0
C489 C 0.19557 0.88487 0.57442 0.0
C490 C 0.22766 0.8762 0.50332 0.0
C491 C 0.23681 0.89125 0.49268 0.0
C492 C 0.23434 0.85932 0.49537 0.0
C493 C 0.22578 0.84296 0.50768 0.0
C494 C 0.22303 0.84023 0.5426 0.0
C495 C 0.21466 0.82495 0.55399 0.0
C496 C 0.20913 0.81222 0.53071 0.0
C497 C 0.21201 0.81473 0.49599 0.0
C498 C 0.22033 0.83001 0.48446 0.0
C499 C 0.30647 0.87413 0.4368 0.0
C500 C 0.30591 0.8636 0.40748 0.0
C501 C 0.29109 0.87741 0.45531 0.0
C502 C 0.27496 0.87029 0.4446 0.0
C503 C 0.27442 0.85991 0.41517 0.0
C504 C 0.28973 0.8566 0.39677 0.0
C505 C 0.25871 0.8729 0.4647 0.0
C506 C 0.24968 0.8579 0.47594 0.0
C507 C 0.25222 0.88982 0.47315 0.0
C508 C 0.2608 0.90614 0.46084 0.0
C509 C 0.26358 0.90887 0.42592 0.0
C510 C 0.27174 0.92426 0.41451 0.0
C511 C 0.27707 0.93708 0.43776 0.0
C512 C 0.2742 0.93457 0.47248 0.0
C513 C 0.26606 0.91919 0.48402 0.0
H514 H 0.28338 0.94899 0.42888 0.0
H515 H 0.20266 0.80039 0.53958 0.0
H516 H 0.40399 0.04045 0.65917 0.0
H517 H 0.39502 0.01549 0.69376 0.0
H518 H 0.345 0.04045 0.71341 0.0
H519 H 0.35414 0.06586 0.67911 0.0
H520 H 0.35785 0.02703 0.76986 0.0
H521 H 0.34686 0.00485 0.66057 0.0
H522 H 0.35221 0.99865 0.59999 0.0
H523 H 0.3966 0.96643 0.6262 0.0
H524 H 0.3917 0.97264 0.68692 0.0
H525 H 0.35671 0.92478 0.81172 0.0
H526 H 0.34839 0.94914 0.77403 0.0
H527 H 0.38563 0.98292 0.82503 0.0
H528 H 0.39368 0.95894 0.86283 0.0
H529 H 0.36758 0.96593 0.7294 0.0
H530 H 0.37313 0.02428 0.8265 0.0
H531 H 0.36518 0.03025 0.8861 0.0
H532 H 0.32601 0.98958 0.88244 0.0
H533 H 0.33352 0.98353 0.82267 0.0
C534 C 0.39106 0.04065 0.67077 0.0
C535 C 0.37974 0.05507 0.66641 0.0
C536 C 0.38588 0.02629 0.69031 0.0
C537 C 0.36919 0.02593 0.70555 0.0
C538 C 0.35788 0.04041 0.70161 0.0
C539 C 0.36312 0.05489 0.68209 0.0
C540 C 0.36417 0.01068 0.72688 0.0
C541 C 0.35975 0.01365 0.76098 0.0
C542 C 0.36593 0.9932 0.71489 0.0
C543 C 0.36892 0.98926 0.67836 0.0
C544 C 0.35782 0.99652 0.65343 0.0
C545 C 0.36077 0.99299 0.61905 0.0
C546 C 0.37474 0.98216 0.60925 0.0
C547 C 0.38577 0.9748 0.63383 0.0
C548 C 0.38289 0.97829 0.66825 0.0
C549 C 0.36296 0.93748 0.81502 0.0
C550 C 0.37585 0.93998 0.84014 0.0
C551 C 0.35819 0.95136 0.79355 0.0
C552 C 0.36617 0.96793 0.79708 0.0
C553 C 0.37895 0.9704 0.82235 0.0
C554 C 0.38368 0.95661 0.84376 0.0
C555 C 0.36245 0.98237 0.77286 0.0
C556 C 0.3652 0.97925 0.73815 0.0
C557 C 0.35869 0.99967 0.78415 0.0
C558 C 0.35395 0.00341 0.82005 0.0
C559 C 0.36273 0.01669 0.8383 0.0
C560 C 0.35832 0.02007 0.87215 0.0
C561 C 0.34512 0.01028 0.88806 0.0
C562 C 0.33627 0.99712 0.87012 0.0
C563 C 0.34062 0.9937 0.83626 0.0
H564 H 0.34174 0.01291 0.91428 0.0
H565 H 0.37701 0.97945 0.58262 0.0
H566 H 0.2098 0.12444 0.88365 0.0
H567 H 0.23421 0.11972 0.92299 0.0
H568 H 0.19831 0.12298 0.00768 0.0
H569 H 0.1738 0.12781 0.96842 0.0
H570 H 0.22584 0.1454 0.01372 0.0
H571 H 0.21782 0.08438 0.98881 0.0
H572 H 0.21432 0.05826 0.95229 0.0
H573 H 0.26546 0.06718 0.90918 0.0
H574 H 0.26917 0.09352 0.94509 0.0
H575 H 0.29156 0.13243 0.13561 0.0
H576 H 0.2653 0.12671 0.10166 0.0
H577 H 0.2975 0.12119 0.01199 0.0
H578 H 0.32396 0.12639 0.04615 0.0
H579 H 0.2707 0.09793 0.01132 0.0
H580 H 0.2775 0.16013 0.03034 0.0
H581 H 0.28138 0.18692 0.06491 0.0
H582 H 0.23269 0.17648 0.11649 0.0
H583 H 0.22865 0.14947 0.08253 0.0
C584 C 0.20707 0.12387 0.91063 0.0
C585 C 0.18995 0.12661 0.92304 0.0
C586 C 0.22101 0.12107 0.93305 0.0
C587 C 0.21803 0.12091 0.96821 0.0
C588 C 0.20084 0.12302 0.9806 0.0
C589 C 0.18688 0.12576 0.95817 0.0
C590 C 0.23309 0.12041 0.99197 0.0
C591 C 0.23544 0.13483 0.01373 0.0
C592 C 0.24588 0.10689 0.99109 0.0
C593 C 0.24371 0.09103 0.96947 0.0
C594 C 0.22826 0.08087 0.97134 0.0
C595 C 0.22625 0.066 0.95079 0.0
C596 C 0.23964 0.06108 0.92838 0.0
C597 C 0.25509 0.07101 0.92653 0.0
C598 C 0.25717 0.0859 0.94702 0.0
C599 C 0.29306 0.12982 0.10872 0.0
C600 C 0.30974 0.13008 0.09336 0.0
C601 C 0.27805 0.12656 0.08937 0.0
C602 C 0.27944 0.12388 0.05421 0.0
C603 C 0.29616 0.12329 0.03908 0.0
C604 C 0.31123 0.12634 0.05855 0.0
C605 C 0.26339 0.12293 0.03297 0.0
C606 C 0.26093 0.10835 0.0116 0.0
C607 C 0.25053 0.13639 0.03387 0.0
C608 C 0.25287 0.15269 0.05416 0.0
C609 C 0.26769 0.16348 0.04923 0.0
C610 C 0.26991 0.17871 0.06868 0.0
C611 C 0.25732 0.18337 0.09294 0.0
C612 C 0.24245 0.17283 0.09773 0.0
C613 C 0.24018 0.15757 0.07837 0.0
H614 H 0.25906 0.19517 0.10798 0.0
H615 H 0.23806 0.04957 0.91249 0.0
H616 H 0.85937 0.94769 0.63186 0.0
H617 H 0.85535 0.97417 0.66629 0.0
H618 H 0.8818 0.949 0.75016 0.0
H619 H 0.88572 0.92237 0.71596 0.0
H620 H 0.85362 0.9691 0.77117 0.0
H621 H 0.90441 0.97523 0.6981 0.0
H622 H 0.91992 0.9754 0.64308 0.0
H623 H 0.88621 0.01688 0.60764 0.0
H624 H 0.87033 0.01677 0.66235 0.0
H625 H 0.89223 0.03745 0.8652 0.0
H626 H 0.88523 0.01193 0.83025 0.0
H627 H 0.86046 0.0457 0.75628 0.0
H628 H 0.86757 0.0715 0.79128 0.0
H629 H 0.88335 0.02264 0.72737 0.0
H630 H 0.83534 0.01922 0.8046 0.0
H631 H 0.8206 0.01909 0.86037 0.0
H632 H 0.84939 0.97276 0.88888 0.0
H633 H 0.86451 0.97275 0.83346 0.0
C634 C 0.8641 0.9477 0.65781 0.0
C635 C 0.87302 0.93304 0.67116 0.0
C636 C 0.86181 0.96284 0.67739 0.0
C637 C 0.8685 0.9636 0.71056 0.0
C638 C 0.87656 0.94866 0.72458 0.0
C639 C 0.87885 0.93349 0.705 0.0
C640 C 0.8683 0.98034 0.72978 0.0
C641 C 0.86017 0.9808 0.76173 0.0
C642 C 0.87647 0.99571 0.71696 0.0
C643 C 0.88605 0.99584 0.68414 0.0
C644 C 0.90021 0.98428 0.67847 0.0
C645 C 0.90908 0.98439 0.64737 0.0
C646 C 0.90401 0.99611 0.62184 0.0
C647 C 0.89009 0.00778 0.62741 0.0
C648 C 0.88115 0.00771 0.65846 0.0
C649 C 0.88518 0.03947 0.84161 0.0
C650 C 0.88047 0.05646 0.8309 0.0
C651 C 0.88108 0.02485 0.82178 0.0
C652 C 0.87212 0.0269 0.7909 0.0
C653 C 0.86729 0.04385 0.78016 0.0
C654 C 0.87134 0.05854 0.80013 0.0
C655 C 0.8689 0.01136 0.7691 0.0
C656 C 0.87647 0.01108 0.73662 0.0
C657 C 0.86026 0.99616 0.78153 0.0
C658 C 0.85115 0.99606 0.8149 0.0
C659 C 0.83863 0.00908 0.82284 0.0
C660 C 0.83019 0.00901 0.85439 0.0
C661 C 0.83408 0.99594 0.87817 0.0
C662 C 0.84639 0.98288 0.87043 0.0
C663 C 0.85489 0.98289 0.83893 0.0
H664 H 0.82752 0.99591 0.90258 0.0
H665 H 0.9109 0.99618 0.59778 0.0
H666 H 0.79404 0.11208 0.37528 0.0
H667 H 0.76811 0.10779 0.41108 0.0
H668 H 0.79728 0.12602 0.49823 0.0
H669 H 0.8234 0.13007 0.46264 0.0
H670 H 0.77441 0.09914 0.51458 0.0
H671 H 0.7729 0.15445 0.45381 0.0
H672 H 0.77386 0.17305 0.40252 0.0
H673 H 0.72878 0.14608 0.3623 0.0
H674 H 0.72772 0.12715 0.41319 0.0
H675 H 0.70993 0.1375 0.62032 0.0
H676 H 0.7348 0.12999 0.58392 0.0
H677 H 0.69901 0.1152 0.50376 0.0
H678 H 0.67397 0.12301 0.54001 0.0
H679 H 0.72388 0.13671 0.48097 0.0
H680 H 0.72307 0.08397 0.54627 0.0
H681 H 0.7222 0.06587 0.59819 0.0
H682 H 0.77133 0.08807 0.63078 0.0
H683 H 0.77239 0.1065 0.57928 0.0
C684 C 0.79502 0.11487 0.40219 0.0
C685 C 0.81064 0.12163 0.41615 0.0
C686 C 0.78021 0.11243 0.42258 0.0
C687 C 0.78072 0.11689 0.45714 0.0
C688 C 0.79663 0.12255 0.47158 0.0
C689 C 0.8115 0.12491 0.45121 0.0
C690 C 0.76433 0.11731 0.47744 0.0
C691 C 0.76337 0.10739 0.50741 0.0
C692 C 0.74981 0.12779 0.46755 0.0
C693 C 0.75035 0.13926 0.4371 0.0
C694 C 0.76327 0.15241 0.43391 0.0
C695 C 0.76383 0.16302 0.40493 0.0
C696 C 0.75142 0.16071 0.37912 0.0
C697 C 0.7384 0.14783 0.38228 0.0
C698 C 0.73781 0.13716 0.41119 0.0
C699 C 0.70734 0.13249 0.59505 0.0
C700 C 0.69002 0.1309 0.58292 0.0
C701 C 0.72157 0.12807 0.57437 0.0
C702 C 0.71875 0.12182 0.54127 0.0
C703 C 0.70145 0.11993 0.52928 0.0
C704 C 0.68719 0.12439 0.54998 0.0
C705 C 0.73393 0.11866 0.51845 0.0
C706 C 0.73474 0.12816 0.48798 0.0
C707 C 0.74828 0.10783 0.528 0.0
C708 C 0.74774 0.09672 0.55899 0.0
C709 C 0.73363 0.0851 0.56462 0.0
C710 C 0.73311 0.07476 0.59396 0.0
C711 C 0.74669 0.07584 0.6178 0.0
C712 C 0.76083 0.08724 0.6123 0.0
C713 C 0.7614 0.09762 0.58301 0.0
H714 H 0.74626 0.06783 0.6405 0.0
H715 H 0.75187 0.16894 0.3567 0.0
H716 H 0.61994 0.96064 0.38378 0.0
H717 H 0.6255 0.98684 0.34953 0.0
H718 H 0.62607 0.95501 0.25878 0.0
H719 H 0.62078 0.92861 0.29306 0.0
H720 H 0.65101 0.98122 0.25668 0.0
H721 H 0.58924 0.97568 0.2809 0.0
H722 H 0.56318 0.97213 0.3176 0.0
H723 H 0.57581 0.02026 0.36933 0.0
H724 H 0.60211 0.02395 0.33323 0.0
H725 H 0.62314 0.04317 0.13251 0.0
H726 H 0.62776 0.0185 0.17125 0.0
H727 H 0.62787 0.05427 0.25637 0.0
H728 H 0.6232 0.07909 0.21766 0.0
H729 H 0.60469 0.02714 0.26417 0.0
H730 H 0.66522 0.03395 0.23425 0.0
H731 H 0.69058 0.03712 0.19566 0.0
H732 H 0.67959 0.98647 0.15223 0.0
H733 H 0.65399 0.98309 0.19022 0.0
C734 C 0.62147 0.95918 0.35657 0.0
C735 C 0.61972 0.94264 0.34098 0.0
C736 C 0.62463 0.97415 0.33707 0.0
C737 C 0.62591 0.97287 0.30162 0.0
C738 C 0.62508 0.95625 0.28612 0.0
C739 C 0.622 0.94122 0.30568 0.0
C740 C 0.62673 0.98898 0.28062 0.0
C741 C 0.64085 0.99123 0.25807 0.0
C742 C 0.6136 0.00213 0.28299 0.0
C743 C 0.59775 -2e-05 0.30463 0.0
C744 C 0.58654 0.98543 0.30029 0.0
C745 C 0.57171 0.9834 0.32095 0.0
C746 C 0.56787 0.99593 0.34585 0.0
C747 C 0.57882 0.01054 0.35008 0.0
C748 C 0.59369 0.01261 0.32952 0.0
C749 C 0.62439 0.04581 0.15944 0.0
C750 C 0.62272 0.06301 0.17215 0.0
C751 C 0.62714 0.03172 0.1815 0.0
C752 C 0.62827 0.0346 0.21661 0.0
C753 C 0.62709 0.05182 0.2293 0.0
C754 C 0.62444 0.06596 0.2072 0.0
C755 C 0.62898 0.01945 0.24013 0.0
C756 C 0.61504 0.0173 0.26306 0.0
C757 C 0.64219 0.00637 0.23781 0.0
C758 C 0.65759 0.00834 0.21492 0.0
C759 C 0.66811 0.02355 0.21628 0.0
C760 C 0.68255 0.02537 0.19454 0.0
C761 C 0.68667 0.01202 0.17146 0.0
C762 C 0.67637 0.9968 0.17011 0.0
C763 C 0.66191 0.99492 0.19177 0.0
H764 H 0.69785 0.01346 0.15466 0.0
H765 H 0.55638 0.99435 0.36181 0.0
H766 H 0.703 0.88233 0.88298 0.0
H767 H 0.73025 0.88747 0.91429 0.0
H768 H 0.70403 0.874 0.00793 0.0
H769 H 0.67655 0.86908 0.97673 0.0
H770 H 0.72777 0.90144 0.01588 0.0
H771 H 0.72654 0.84322 0.96665 0.0
H772 H 0.72341 0.82188 0.91983 0.0
H773 H 0.76703 0.84568 0.86785 0.0
H774 H 0.77024 0.86733 0.91418 0.0
H775 H 0.79684 0.8688 0.11795 0.0
H776 H 0.77047 0.87476 0.08468 0.0
H777 H 0.80249 0.88421 0.996 0.0
H778 H 0.82905 0.87789 0.02918 0.0
H779 H 0.77677 0.86185 0.98236 0.0
H780 H 0.78023 0.91803 0.03573 0.0
H781 H 0.78324 0.93903 0.08312 0.0
H782 H 0.73577 0.91909 0.12807 0.0
H783 H 0.7326 0.8978 0.0812 0.0
C784 C 0.70296 0.88071 0.91031 0.0
C785 C 0.68774 0.87509 0.92742 0.0
C786 C 0.71853 0.88365 0.92813 0.0
C787 C 0.71919 0.88083 0.9633 0.0
C788 C 0.70376 0.87621 0.98076 0.0
C789 C 0.68811 0.87334 0.96292 0.0
C790 C 0.73627 0.8812 0.98131 0.0
C791 C 0.73848 0.89273 0.00878 0.0
C792 C 0.75032 0.87011 0.97141 0.0
C793 C 0.7485 0.857 0.94369 0.0
C794 C 0.73538 0.84398 0.94511 0.0
C795 C 0.7336 0.83182 0.91869 0.0
C796 C 0.74498 0.83246 0.89084 0.0
C797 C 0.7582 0.84522 0.88941 0.0
C798 C 0.76001 0.85743 0.91575 0.0
C799 C 0.7983 0.87236 0.09146 0.0
C800 C 0.81498 0.87281 0.07608 0.0
C801 C 0.78321 0.87589 0.07253 0.0
C802 C 0.78451 0.88013 0.03795 0.0
C803 C 0.80121 0.88103 0.02271 0.0
C804 C 0.81635 0.87743 0.04165 0.0
C805 C 0.76835 0.88204 0.01724 0.0
C806 C 0.76623 0.87082 0.98926 0.0
C807 C 0.75442 0.8934 0.02679 0.0
C808 C 0.75625 0.90622 0.05503 0.0
C809 C 0.7705 0.91803 0.05585 0.0
C810 C 0.77222 0.93 0.0826 0.0
C811 C 0.75972 0.93037 0.10862 0.0
C812 C 0.74545 0.91879 0.1079 0.0
C813 C 0.74367 0.90678 0.08122 0.0
H814 H 0.76108 0.93965 0.12931 0.0
H815 H 0.74359 0.82303 0.8704 0.0
H816 H 0.59352 0.4545 0.65778 0.0
H817 H 0.60144 0.48032 0.69099 0.0
H818 H 0.65432 0.46044 0.70242 0.0
H819 H 0.6463 0.43417 0.66948 0.0
H820 H 0.6427 0.47339 0.7608 0.0
H821 H 0.64689 0.49467 0.64906 0.0
H822 H 0.63836 0.49942 0.58938 0.0
H823 H 0.59259 0.52807 0.62164 0.0
H824 H 0.60068 0.52326 0.68154 0.0
H825 H 0.63759 0.57662 0.79374 0.0
H826 H 0.64563 0.55188 0.75684 0.0
H827 H 0.61561 0.51674 0.8206 0.0
H828 H 0.60812 0.54114 0.85791 0.0
H829 H 0.62617 0.53277 0.71916 0.0
H830 H 0.63004 0.47608 0.82007 0.0
H831 H 0.64146 0.47179 0.87806 0.0
H832 H 0.67718 0.51499 0.86449 0.0
H833 H 0.66618 0.5194 0.80622 0.0
C834 C 0.60684 0.45559 0.66733 0.0
C835 C 0.61932 0.44237 0.66094 0.0
C836 C 0.61139 0.47043 0.68611 0.0
C837 C 0.62858 0.47249 0.69854 0.0
C838 C 0.64103 0.45916 0.69279 0.0
C839 C 0.63644 0.44419 0.67404 0.0
C840 C 0.63308 0.48843 0.71836 0.0
C841 C 0.63929 0.48641 0.75167 0.0
C842 C 0.62932 0.50548 0.70589 0.0
C843 C 0.62438 0.50855 0.66986 0.0
C844 C 0.63495 0.5019 0.64345 0.0
C845 C 0.63019 0.50461 0.60957 0.0
C846 C 0.61493 0.51403 0.60172 0.0
C847 C 0.60441 0.52079 0.62775 0.0
C848 C 0.6091 0.5181 0.66169 0.0
C849 C 0.63292 0.56355 0.80002 0.0
C850 C 0.62223 0.56077 0.82864 0.0
C851 C 0.63753 0.54944 0.77898 0.0
C852 C 0.63147 0.53238 0.78622 0.0
C853 C 0.62088 0.52965 0.81497 0.0
C854 C 0.61645 0.54366 0.83613 0.0
C855 C 0.63473 0.51762 0.76236 0.0
C856 C 0.63001 0.51984 0.72819 0.0
C857 C 0.64036 0.50086 0.7738 0.0
C858 C 0.64721 0.49811 0.80875 0.0
C859 C 0.64042 0.48459 0.82933 0.0
C860 C 0.6468 0.48216 0.8623 0.0
C861 C 0.66001 0.49312 0.87497 0.0
C862 C 0.66691 0.50653 0.85467 0.0
C863 C 0.66059 0.50902 0.82168 0.0
H864 H 0.66492 0.49122 0.90051 0.0
H865 H 0.61127 0.51612 0.57547 0.0
H866 H 0.79579 0.36794 0.87915 0.0
H867 H 0.7706 0.37436 0.91544 0.0
H868 H 0.80549 0.38363 3e-05 0.0
H869 H 0.83088 0.37696 0.96376 0.0
H870 H 0.77965 0.36123 0.01627 0.0
H871 H 0.78282 0.41766 0.96383 0.0
H872 H 0.78498 0.43879 0.91651 0.0
H873 H 0.73593 0.42004 0.87624 0.0
H874 H 0.7336 0.39861 0.92304 0.0
H875 H 0.70787 0.3805 0.12231 0.0
H876 H 0.73481 0.38565 0.08992 0.0
H877 H 0.70665 0.37591 0.99664 0.0
H878 H 0.6795 0.37119 0.02892 0.0
H879 H 0.73062 0.40196 0.98873 0.0
H880 H 0.72962 0.34319 0.03539 0.0
H881 H 0.72728 0.32124 0.08131 0.0
H882 H 0.77232 0.34379 0.13075 0.0
H883 H 0.77478 0.36603 0.08531 0.0
C884 C 0.79814 0.37155 0.90538 0.0
C885 C 0.81528 0.37188 0.91871 0.0
C886 C 0.78372 0.37535 0.92603 0.0
C887 C 0.78618 0.37967 0.96034 0.0
C888 C 0.80333 0.3804 0.97356 0.0
C889 C 0.8178 0.3766 0.95285 0.0
C890 C 0.77072 0.38183 0.98287 0.0
C891 C 0.76912 0.37044 0.01071 0.0
C892 C 0.75679 0.39352 0.97503 0.0
C893 C 0.7581 0.40644 0.94687 0.0
C894 C 0.77256 0.41795 0.94475 0.0
C895 C 0.7738 0.43 0.91804 0.0
C896 C 0.76062 0.43074 0.89336 0.0
C897 C 0.74614 0.41945 0.89538 0.0
C898 C 0.74484 0.40737 0.92203 0.0
C899 C 0.70737 0.3797 0.09486 0.0
C900 C 0.69167 0.37524 0.0781 0.0
C901 C 0.72276 0.38262 0.07642 0.0
C902 C 0.72279 0.38083 0.04095 0.0
C903 C 0.70691 0.37731 0.02402 0.0
C904 C 0.69144 0.37456 0.04246 0.0
C905 C 0.73955 0.38124 0.02178 0.0
C906 C 0.74133 0.39301 0.99457 0.0
C907 C 0.75365 0.36982 0.02999 0.0
C908 C 0.75226 0.35638 0.05718 0.0
C909 C 0.73895 0.34354 0.05618 0.0
C910 C 0.73761 0.33104 0.0821 0.0
C911 C 0.74961 0.33116 0.10898 0.0
C912 C 0.76301 0.34374 0.10994 0.0
C913 C 0.76439 0.35629 0.08412 0.0
H914 H 0.74855 0.32147 0.12902 0.0
H915 H 0.7616 0.44007 0.87269 0.0
H916 H 0.89465 0.42454 0.28565 0.0
H917 H 0.89294 0.45163 0.25242 0.0
H918 H 0.85121 0.47059 0.31709 0.0
H919 H 0.85282 0.44344 0.35059 0.0
H920 H 0.84686 0.4788 0.246 0.0
H921 H 0.88954 0.48409 0.33541 0.0
H922 H 0.91493 0.47445 0.36967 0.0
H923 H 0.94788 0.47565 0.28109 0.0
H924 H 0.9226 0.48503 0.24617 0.0
H925 H 0.86087 0.56844 0.19254 0.0
H926 H 0.856 0.54208 0.22738 0.0
H927 H 0.90181 0.51777 0.18255 0.0
H928 H 0.90691 0.544 0.14848 0.0
H929 H 0.90205 0.5137 0.249 0.0
H930 H 0.85951 0.50657 0.15881 0.0
H931 H 0.8342 0.51531 0.1234 0.0
H932 H 0.80122 0.51722 0.2119 0.0
H933 H 0.82641 0.50871 0.2479 0.0
C934 C 0.88488 0.43432 0.29244 0.0
C935 C 0.874 0.43199 0.32091 0.0
C936 C 0.88394 0.44978 0.27347 0.0
C937 C 0.87212 0.46315 0.28267 0.0
C938 C 0.86043 0.4604 0.30971 0.0
C939 C 0.86141 0.44493 0.32882 0.0
C940 C 0.87318 0.4805 0.26591 0.0
C941 C 0.8588 0.48661 0.24698 0.0
C942 C 0.88884 0.49052 0.26711 0.0
C943 C 0.90414 0.48512 0.28813 0.0
C944 C 0.90217 0.48217 0.32319 0.0
C945 C 0.91654 0.47677 0.34273 0.0
C946 C 0.933 0.4744 0.32755 0.0
C947 C 0.93512 0.47748 0.29281 0.0
C948 C 0.92078 0.48285 0.27313 0.0
C949 C 0.86988 0.55745 0.19024 0.0
C950 C 0.88428 0.55826 0.16789 0.0
C951 C 0.86704 0.54239 0.20998 0.0
C952 C 0.87848 0.52792 0.20736 0.0
C953 C 0.89285 0.52879 0.18505 0.0
C954 C 0.89572 0.54379 0.16555 0.0
C955 C 0.8759 0.51187 0.2281 0.0
C956 C 0.89002 0.50603 0.2481 0.0
C957 C 0.86002 0.50211 0.2277 0.0
C958 C 0.84488 0.50722 0.20608 0.0
C959 C 0.84689 0.50901 0.17075 0.0
C960 C 0.83257 0.51389 0.15057 0.0
C961 C 0.81613 0.51688 0.16541 0.0
C962 C 0.81397 0.51494 0.20045 0.0
C963 C 0.82826 0.51008 0.22075 0.0
H964 H 0.80505 0.52065 0.14974 0.0
H965 H 0.94411 0.47021 0.34273 0.0
H966 H 0.71197 0.6465 0.38199 0.0
H967 H 0.73745 0.63911 0.41688 0.0
H968 H 0.70511 0.60517 0.47866 0.0
H969 H 0.67941 0.61253 0.44365 0.0
H970 H 0.72473 0.62873 0.51601 0.0
H971 H 0.73488 0.58695 0.4278 0.0
H972 H 0.73792 0.57658 0.36876 0.0
H973 H 0.78174 0.61138 0.35374 0.0
H974 H 0.77881 0.62216 0.41255 0.0
H975 H 0.79878 0.60787 0.61526 0.0
H976 H 0.77372 0.60306 0.57746 0.0
H977 H 0.79934 0.63372 0.49957 0.0
H978 H 0.82471 0.63806 0.53689 0.0
H979 H 0.78194 0.60705 0.47177 0.0
H980 H 0.76903 0.65214 0.5547 0.0
H981 H 0.76593 0.6642 0.61256 0.0
H982 H 0.72719 0.6249 0.63595 0.0
H983 H 0.73023 0.61246 0.57833 0.0
C984 C 0.71029 0.63734 0.40282 0.0
C985 C 0.69371 0.63013 0.41022 0.0
C986 C 0.72489 0.63304 0.42257 0.0
C987 C 0.72318 0.62146 0.45009 0.0
C988 C 0.70668 0.61406 0.45737 0.0
C989 C 0.69205 0.61827 0.4374 0.0
C990 C 0.73842 0.61824 0.47261 0.0
C991 C 0.73713 0.62358 0.50658 0.0
C992 C 0.75468 0.61196 0.45994 0.0
C993 C 0.75655 0.60545 0.42457 0.0
C994 C 0.74509 0.59249 0.41184 0.0
C995 C 0.7468 0.58652 0.37842 0.0
C996 C 0.75999 0.59334 0.35749 0.0
C997 C 0.77152 0.60612 0.36997 0.0
C998 C 0.76986 0.61214 0.40337 0.0
C999 C 0.79917 0.61336 0.58988 0.0
C1000 C 0.81357 0.62351 0.57908 0.0
C1001 C 0.78483 0.61064 0.56836 0.0
C1002 C 0.78451 0.61835 0.53597 0.0
C1003 C 0.7993 0.6277 0.5245 0.0
C1004 C 0.81375 0.63022 0.54586 0.0
C1005 C 0.76832 0.61783 0.51501 0.0
C1006 C 0.76944 0.61185 0.48136 0.0
C1007 C 0.75192 0.62373 0.5278 0.0
C1008 C 0.75001 0.63125 0.56237 0.0
C1009 C 0.75994 0.646 0.57227 0.0
C1010 C 0.75819 0.65291 0.605 0.0
C1011 C 0.74641 0.64529 0.62795 0.0
C1012 C 0.73633 0.63076 0.61817 0.0
C1013 C 0.73806 0.62378 0.58549 0.0
H1014 H 0.74507 0.65066 0.65328 0.0
H1015 H 0.7613 0.5887 0.33162 0.0
H1016 H 0.35656 0.42704 0.18224 0.0
H1017 H 0.34915 0.45161 0.2201 0.0
H1018 H 0.38867 0.4836 0.17128 0.0
H1019 H 0.39584 0.45939 0.13323 0.0
H1020 H 0.36882 0.46699 0.26589 0.0
H1021 H 0.37831 0.52574 0.17121 0.0
H1022 H 0.37162 0.53256 0.11139 0.0
H1023 H 0.33057 0.49374 0.11136 0.0
H1024 H 0.33681 0.48686 0.17133 0.0
H1025 H 0.40455 0.54067 0.34335 0.0
H1026 H 0.39635 0.51585 0.30753 0.0
H1027 H 0.34762 0.54178 0.28156 0.0
H1028 H 0.35604 0.56701 0.31685 0.0
H1029 H 0.36181 0.52871 0.22702 0.0
H1030 H 0.3477 0.50557 0.33452 0.0
H1031 H 0.35154 0.49854 0.39517 0.0
H1032 H 0.39586 0.46574 0.37115 0.0
H1033 H 0.39246 0.47277 0.31039 0.0
C1034 C 0.36348 0.43941 0.17938 0.0
C1035 C 0.37678 0.44132 0.15484 0.0
C1036 C 0.35925 0.4534 0.201 0.0
C1037 C 0.36819 0.46951 0.19822 0.0
C1038 C 0.38131 0.47145 0.17341 0.0
C1039 C 0.3855 0.45753 0.15183 0.0
C1040 C 0.36497 0.48397 0.22272 0.0
C1041 C 0.36707 0.48047 0.25746 0.0
C1042 C 0.36207 0.50148 0.21182 0.0
C1043 C 0.3581 0.50573 0.1758 0.0
C1044 C 0.36777 0.51873 0.15854 0.0
C1045 C 0.36407 0.52259 0.12457 0.0
C1046 C 0.3507 0.51356 0.10757 0.0
C1047 C 0.34096 0.50069 0.12453 0.0
C1048 C 0.34459 0.49679 0.1585 0.0
C1049 C 0.39205 0.54107 0.33015 0.0
C1050 C 0.38092 0.55576 0.33288 0.0
C1051 C 0.3873 0.52681 0.30989 0.0
C1052 C 0.37121 0.52679 0.29237 0.0
C1053 C 0.36005 0.54147 0.29503 0.0
C1054 C 0.36487 0.55585 0.31515 0.0
C1055 C 0.3667 0.5118 0.2699 0.0
C1056 C 0.36314 0.51521 0.23556 0.0
C1057 C 0.36778 0.49417 0.2813 0.0
C1058 C 0.36985 0.48976 0.31785 0.0
C1059 C 0.35833 0.49694 0.34217 0.0
C1060 C 0.36042 0.49294 0.37658 0.0
C1061 C 0.37394 0.48171 0.38701 0.0
C1062 C 0.38538 0.47443 0.36303 0.0
C1063 C 0.38336 0.47839 0.32858 0.0
H1064 H 0.37555 0.47864 0.41367 0.0
H1065 H 0.34786 0.51656 0.08127 0.0
H1066 H 0.20461 0.62017 0.11841 0.0
H1067 H 0.23052 0.61499 0.08304 0.0
H1068 H 0.20172 0.6322 0.9947 0.0
H1069 H 0.17562 0.63728 0.02995 0.0
H1070 H 0.22387 0.60378 0.98112 0.0
H1071 H 0.22682 0.66078 0.03519 0.0
H1072 H 0.22633 0.68109 0.08405 0.0
H1073 H 0.27077 0.65445 0.12758 0.0
H1074 H 0.27136 0.63381 0.07916 0.0
H1075 H 0.29 0.63659 0.87211 0.0
H1076 H 0.26476 0.63111 0.9089 0.0
H1077 H 0.29972 0.61712 0.99091 0.0
H1078 H 0.32515 0.62277 0.95416 0.0
H1079 H 0.27553 0.6407 0.01067 0.0
H1080 H 0.27479 0.58579 0.95258 0.0
H1081 H 0.27526 0.56578 0.90331 0.0
H1082 H 0.22703 0.58834 0.86677 0.0
H1083 H 0.2264 0.60869 0.91557 0.0
C1084 C 0.2037 0.62261 0.09137 0.0
C1085 C 0.18817 0.62932 0.07695 0.0
C1086 C 0.21852 0.61965 0.07123 0.0
C1087 C 0.21808 0.62346 0.03639 0.0
C1088 C 0.2023 0.62921 0.02157 0.0
C1089 C 0.18744 0.63216 0.04173 0.0
C1090 C 0.23443 0.62285 0.01602 0.0
C1091 C 0.23515 0.61191 0.98737 0.0
C1092 C 0.24926 0.63316 0.02478 0.0
C1093 C 0.249 0.64563 0.05377 0.0
C1094 C 0.23639 0.65917 0.05532 0.0
C1095 C 0.23611 0.67075 0.0829 0.0
C1096 C 0.24848 0.66903 0.10895 0.0
C1097 C 0.26118 0.65575 0.10741 0.0
C1098 C 0.2615 0.64411 0.0799 0.0
C1099 C 0.29233 0.63217 0.89787 0.0
C1100 C 0.30954 0.63017 0.91034 0.0
C1101 C 0.27788 0.62892 0.9188 0.0
C1102 C 0.28036 0.62353 0.95253 0.0
C1103 C 0.29754 0.6212 0.96489 0.0
C1104 C 0.31203 0.62442 0.94391 0.0
C1105 C 0.265 0.62172 0.97545 0.0
C1106 C 0.26441 0.63231 0.00459 0.0
C1107 C 0.25032 0.6111 0.96705 0.0
C1108 C 0.25062 0.59887 0.93764 0.0
C1109 C 0.26435 0.58659 0.9339 0.0
C1110 C 0.26464 0.57516 0.90607 0.0
C1111 C 0.2512 0.57581 0.88189 0.0
C1112 C 0.23744 0.58786 0.88552 0.0
C1113 C 0.2371 0.59933 0.91329 0.0
H1114 H 0.25144 0.56695 0.86036 0.0
H1115 H 0.24824 0.67801 0.13029 0.0
H1116 H 0.1205 0.42689 0.77458 0.0
H1117 H 0.12661 0.45341 0.74152 0.0
H1118 H 0.14984 0.47777 0.82978 0.0
H1119 H 0.1436 0.45134 0.86309 0.0
H1120 H 0.12473 0.49796 0.80248 0.0
H1121 H 0.1752 0.46738 0.76136 0.0
H1122 H 0.19183 0.44264 0.73661 0.0
H1123 H 0.16121 0.44618 0.64524 0.0
H1124 H 0.1442 0.47077 0.66962 0.0
H1125 H 0.13653 0.57615 0.7071 0.0
H1126 H 0.14436 0.5503 0.74111 0.0
H1127 H 0.12369 0.51635 0.6628 0.0
H1128 H 0.11634 0.542 0.62845 0.0
H1129 H 0.15257 0.50237 0.68885 0.0
H1130 H 0.09903 0.5284 0.73301 0.0
H1131 H 0.08099 0.55234 0.75711 0.0
H1132 H 0.11618 0.55629 0.84208 0.0
H1133 H 0.13456 0.53251 0.81823 0.0
C1134 C 0.12722 0.43777 0.78675 0.0
C1135 C 0.13146 0.43712 0.82144 0.0
C1136 C 0.1308 0.45288 0.7678 0.0
C1137 C 0.13876 0.46753 0.78317 0.0
C1138 C 0.14371 0.46659 0.81744 0.0
C1139 C 0.14014 0.45149 0.83641 0.0
C1140 C 0.14005 0.48441 0.76453 0.0
C1141 C 0.13121 0.49904 0.778 0.0
C1142 C 0.14812 0.48567 0.73225 0.0
C1143 C 0.15834 0.47087 0.71744 0.0
C1144 C 0.17191 0.4628 0.73609 0.0
C1145 C 0.18143 0.44881 0.7221 0.0
C1146 C 0.17756 0.44282 0.68939 0.0
C1147 C 0.16419 0.45083 0.67058 0.0
C1148 C 0.15462 0.46481 0.68446 0.0
C1149 C 0.13384 0.56316 0.69706 0.0
C1150 C 0.12568 0.56107 0.66531 0.0
C1151 C 0.13829 0.54841 0.71649 0.0
C1152 C 0.13438 0.5314 0.70468 0.0
C1153 C 0.12685 0.52933 0.67241 0.0
C1154 C 0.12256 0.54402 0.65289 0.0
C1155 C 0.13697 0.51575 0.72656 0.0
C1156 C 0.14646 0.50135 0.71367 0.0
C1157 C 0.12934 0.51459 0.75927 0.0
C1158 C 0.11828 0.52885 0.77364 0.0
C1159 C 0.10299 0.53448 0.7567 0.0
C1160 C 0.09269 0.548 0.77033 0.0
C1161 C 0.09747 0.55588 0.80105 0.0
C1162 C 0.11252 0.55021 0.81825 0.0
C1163 C 0.12288 0.53671 0.8047 0.0
H1164 H 0.08947 0.56634 0.81156 0.0
H1165 H 0.18495 0.432 0.6786 0.0
H1166 H 0.17316 0.37296 0.466 0.0
H1167 H 0.20034 0.37692 0.49826 0.0
H1168 H 0.22934 0.38319 0.40478 0.0
H1169 H 0.20225 0.37887 0.37239 0.0
H1170 H 0.24421 0.35926 0.44318 0.0
H1171 H 0.22371 0.41778 0.46075 0.0
H1172 H 0.20265 0.44114 0.47621 0.0
H1173 H 0.20017 0.42124 0.57814 0.0
H1174 H 0.22102 0.39759 0.56318 0.0
H1175 H 0.3243 0.37208 0.5326 0.0
H1176 H 0.29896 0.37904 0.49651 0.0
H1177 H 0.26391 0.36844 0.58025 0.0
H1178 H 0.28911 0.36156 0.61644 0.0
H1179 H 0.25379 0.39776 0.54325 0.0
H1180 H 0.27106 0.33735 0.52305 0.0
H1181 H 0.29192 0.31376 0.50779 0.0
H1182 H 0.30018 0.3376 0.41022 0.0
H1183 H 0.27953 0.36148 0.42512 0.0
C1184 C 0.18527 0.37551 0.45237 0.0
C1185 C 0.18563 0.37549 0.41671 0.0
C1186 C 0.2008 0.37786 0.47083 0.0
C1187 C 0.21688 0.38044 0.45393 0.0
C1188 C 0.21709 0.3812 0.41833 0.0
C1189 C 0.2016 0.37875 0.39987 0.0
C1190 C 0.23364 0.38052 0.47321 0.0
C1191 C 0.24645 0.36798 0.46457 0.0
C1192 C 0.2364 0.39161 0.50161 0.0
C1193 C 0.22384 0.40582 0.51075 0.0
C1194 C 0.21857 0.41829 0.48639 0.0
C1195 C 0.20668 0.4316 0.49508 0.0
C1196 C 0.20005 0.43265 0.52812 0.0
C1197 C 0.20531 0.42041 0.55256 0.0
C1198 C 0.21718 0.40706 0.54399 0.0
C1199 C 0.31119 0.37139 0.54336 0.0
C1200 C 0.30864 0.36613 0.5772 0.0
C1201 C 0.29676 0.37536 0.52275 0.0
C1202 C 0.27958 0.37412 0.5357 0.0
C1203 C 0.27706 0.36951 0.56983 0.0
C1204 C 0.29146 0.36548 0.59038 0.0
C1205 C 0.26415 0.37645 0.51325 0.0
C1206 C 0.2516 0.38933 0.52142 0.0
C1207 C 0.26158 0.36569 0.48438 0.0
C1208 C 0.27392 0.35131 0.47535 0.0
C1209 C 0.27744 0.33764 0.49845 0.0
C1210 C 0.2892 0.32421 0.48985 0.0
C1211 C 0.29741 0.32422 0.4581 0.0
C1212 C 0.29383 0.33763 0.43484 0.0
C1213 C 0.2821 0.35112 0.44334 0.0
H1214 H 0.30651 0.3138 0.45148 0.0
H1215 H 0.19085 0.44297 0.5348 0.0
H1216 H 0.13854 0.1533 0.34264 0.0
H1217 H 0.14598 0.18465 0.33927 0.0
H1218 H 0.11677 0.19426 0.43146 0.0
H1219 H 0.10899 0.16317 0.43448 0.0
H1220 H 0.10797 0.2173 0.385 0.0
H1221 H 0.16243 0.1946 0.42902 0.0
H1222 H 0.18866 0.17548 0.42997 0.0
H1223 H 0.20528 0.19646 0.33394 0.0
H1224 H 0.17901 0.21554 0.33219 0.0
H1225 H 0.13485 0.30343 0.42345 0.0
H1226 H 0.13288 0.27135 0.42681 0.0
H1227 H 0.15562 0.26693 0.32681 0.0
H1228 H 0.15758 0.29909 0.32317 0.0
H1229 H 0.1684 0.24145 0.37449 0.0
H1230 H 0.11377 0.26424 0.33134 0.0
H1231 H 0.08782 0.28374 0.33163 0.0
H1232 H 0.07173 0.26244 0.42774 0.0
H1233 H 0.09776 0.24301 0.42827 0.0
C1234 C 0.13384 0.16211 0.36229 0.0
C1235 C 0.12314 0.15583 0.38874 0.0
C1236 C 0.13815 0.17999 0.36043 0.0
C1237 C 0.13201 0.1918 0.38523 0.0
C1238 C 0.12161 0.18542 0.41198 0.0
C1239 C 0.1172 0.16763 0.41371 0.0
C1240 C 0.13561 0.21095 0.38268 0.0
C1241 C 0.12122 0.22254 0.38316 0.0
C1242 C 0.15285 0.21781 0.37931 0.0
C1243 C 0.16865 0.20635 0.3803 0.0
C1244 C 0.1716 0.19502 0.40796 0.0
C1245 C 0.18649 0.18422 0.40867 0.0
C1246 C 0.1986 0.18472 0.38199 0.0
C1247 C 0.19587 0.19606 0.35457 0.0
C1248 C 0.18099 0.20688 0.35371 0.0
C1249 C 0.13964 0.29563 0.40235 0.0
C1250 C 0.14623 0.30374 0.37293 0.0
C1251 C 0.13849 0.27733 0.4043 0.0
C1252 C 0.14396 0.26684 0.37692 0.0
C1253 C 0.15134 0.27484 0.34817 0.0
C1254 C 0.15238 0.29318 0.3461 0.0
C1255 C 0.1408 0.24763 0.37747 0.0
C1256 C 0.1552 0.2361 0.37638 0.0
C1257 C 0.12358 0.24076 0.38042 0.0
C1258 C 0.10781 0.2523 0.38 0.0
C1259 C 0.10477 0.26382 0.35266 0.0
C1260 C 0.09004 0.27484 0.35266 0.0
C1261 C 0.07816 0.27436 0.37973 0.0
C1262 C 0.08096 0.26282 0.40681 0.0
C1263 C 0.09569 0.25179 0.40697 0.0
H1264 H 0.06676 0.28291 0.37969 0.0
H1265 H 0.21012 0.17635 0.38259 0.0
H1266 H 0.9475 0.91166 0.64022 0.0
H1267 H 0.97972 0.91042 0.63629 0.0
H1268 H 0.97566 0.87418 0.55234 0.0
H1269 H 0.94356 0.87549 0.55584 0.0
H1270 H 0.99844 0.86308 0.60457 0.0
H1271 H 0.98735 0.91432 0.5358 0.0
H1272 H 0.97511 0.94373 0.52391 0.0
H1273 H 0.00506 0.96549 0.60628 0.0
H1274 H 0.0173 0.93614 0.61899 0.0
H1275 H 0.0875 0.85721 0.5624 0.0
H1276 H 0.0561 0.86339 0.55587 0.0
H1277 H 0.06025 0.90568 0.62862 0.0
H1278 H 0.09179 0.89996 0.63429 0.0
H1279 H 0.03722 0.91421 0.58113 0.0
H1280 H 0.04718 0.86421 0.65272 0.0
H1281 H 0.05939 0.83518 0.66788 0.0
H1282 H 0.03123 0.81142 0.58521 0.0
H1283 H 0.01905 0.84037 0.56926 0.0
C1284 C 0.9535 0.90354 0.6208 0.0
C1285 C 0.94305 0.89366 0.59836 0.0
C1286 C 0.97186 0.90289 0.61851 0.0
C1287 C 0.98 0.89225 0.59393 0.0
C1288 C 0.96959 0.88247 0.57143 0.0
C1289 C 0.95127 0.88327 0.57344 0.0
C1290 C 0.9994 0.89069 0.59252 0.0
C1291 C 0.00693 0.87419 0.59895 0.0
C1292 C 0.0104 0.90534 0.58623 0.0
C1293 C 0.0031 0.923 0.57856 0.0
C1294 C 0.99121 0.92535 0.55158 0.0
C1295 C 0.98429 0.94201 0.54465 0.0
C1296 C 0.98926 0.95647 0.56439 0.0
C1297 C 0.0012 0.95428 0.59104 0.0
C1298 C 0.00814 0.93764 0.5981 0.0
C1299 C 0.08177 0.86804 0.57647 0.0
C1300 C 0.09201 0.87799 0.59912 0.0
C1301 C 0.06382 0.87151 0.57286 0.0
C1302 C 0.05575 0.88471 0.59241 0.0
C1303 C 0.06618 0.89537 0.61342 0.0
C1304 C 0.08419 0.89207 0.61668 0.0
C1305 C 0.0363 0.88653 0.5929 0.0
C1306 C 0.02875 0.90307 0.58655 0.0
C1307 C 0.02523 0.87196 0.59981 0.0
C1308 C 0.03235 0.85449 0.60959 0.0
C1309 C 0.04368 0.85281 0.63765 0.0
C1310 C 0.05059 0.83637 0.6464 0.0
C1311 C 0.04612 0.82147 0.62746 0.0
C1312 C 0.03469 0.82298 0.59982 0.0
C1313 C 0.02778 0.8394 0.59092 0.0
H1314 H 0.05149 0.80876 0.63426 0.0
H1315 H 0.98389 0.96936 0.55898 0.0
H1316 H 0.37053 0.84865 0.84006 0.0
H1317 H 0.36437 0.81718 0.83334 0.0
H1318 H 0.38717 0.80703 0.93174 0.0
H1319 H 0.39351 0.83835 0.93846 0.0
H1320 H 0.39842 0.78355 0.88539 0.0
H1321 H 0.34299 0.80757 0.92139 0.0
H1322 H 0.31748 0.8276 0.91889 0.0
H1323 H 0.30449 0.80817 0.8196 0.0
H1324 H 0.33009 0.78819 0.82131 0.0
H1325 H 0.36661 0.69728 0.91324 0.0
H1326 H 0.37134 0.72902 0.91871 0.0
H1327 H 0.35 0.73697 0.81837 0.0
H1328 H 0.34516 0.70525 0.81277 0.0
H1329 H 0.33791 0.76155 0.86425 0.0
H1330 H 0.39324 0.73725 0.82877 0.0
H1331 H 0.41857 0.71701 0.83181 0.0
H1332 H 0.43164 0.73694 0.93068 0.0
H1333 H 0.40622 0.75712 0.92844 0.0
C1334 C 0.37424 0.83969 0.86021 0.0
C1335 C 0.38246 0.84595 0.8898 0.0
C1336 C 0.37065 0.82174 0.85641 0.0
C1337 C 0.37516 0.8098 0.8822 0.0
C1338 C 0.38357 0.81602 0.91155 0.0
C1339 C 0.38714 0.83393 0.91537 0.0
C1340 C 0.37122 0.79078 0.87867 0.0
C1341 C 0.38516 0.77873 0.88118 0.0
C1342 C 0.35397 0.78453 0.87242 0.0
C1343 C 0.33857 0.79652 0.87133 0.0
C1344 C 0.33478 0.80768 0.8989 0.0
C1345 C 0.32029 0.819 0.89765 0.0
C1346 C 0.3094 0.81919 0.86906 0.0
C1347 C 0.31296 0.80803 0.8417 0.0
C1348 C 0.32745 0.79669 0.84281 0.0
C1349 C 0.36281 0.70581 0.89245 0.0
C1350 C 0.3556 0.6988 0.86251 0.0
C1351 C 0.36558 0.72391 0.89556 0.0
C1352 C 0.3612 0.73529 0.86878 0.0
C1353 C 0.35349 0.72839 0.83929 0.0
C1354 C 0.35079 0.71028 0.8361 0.0
C1355 C 0.36508 0.75435 0.87121 0.0
C1356 C 0.35116 0.76639 0.86843 0.0
C1357 C 0.38234 0.7606 0.87726 0.0
C1358 C 0.39772 0.74857 0.87857 0.0
C1359 C 0.40143 0.73722 0.85127 0.0
C1360 C 0.41582 0.72577 0.85283 0.0
C1361 C 0.42668 0.72566 0.88146 0.0
C1362 C 0.4232 0.73703 0.90855 0.0
C1363 C 0.40881 0.74848 0.90713 0.0
H1364 H 0.43781 0.71678 0.88262 0.0
H1365 H 0.29819 0.82796 0.86815 0.0
H1366 H 0.40389 0.12256 0.08598 0.0
H1367 H 0.43522 0.11547 0.08009 0.0
H1368 H 0.44352 0.12884 0.18544 0.0
H1369 H 0.41248 0.13648 0.19106 0.0
H1370 H 0.46777 0.14335 0.14864 0.0
H1371 H 0.44278 0.08518 0.15523 0.0
H1372 H 0.42301 0.06098 0.13834 0.0
H1373 H 0.44582 0.06064 0.03855 0.0
H1374 H 0.46558 0.085 0.05473 0.0
H1375 H 0.55334 0.10974 0.17083 0.0
H1376 H 0.5214 0.11313 0.17494 0.0
H1377 H 0.51652 0.10338 0.06742 0.0
H1378 H 0.54845 0.09968 0.06321 0.0
H1379 H 0.49067 0.0869 0.10321 0.0
H1380 H 0.51569 0.14494 0.09709 0.0
H1381 H 0.53561 0.16896 0.11429 0.0
H1382 H 0.51257 0.16933 0.21387 0.0
H1383 H 0.49266 0.14514 0.1974 0.0
C1384 C 0.41242 0.12388 0.10787 0.0
C1385 C 0.4058 0.13012 0.13893 0.0
C1386 C 0.43028 0.11974 0.10455 0.0
C1387 C 0.44171 0.12147 0.13243 0.0
C1388 C 0.43499 0.12745 0.16356 0.0
C1389 C 0.41724 0.13179 0.16675 0.0
C1390 C 0.46083 0.11777 0.1291 0.0
C1391 C 0.47274 0.13089 0.13915 0.0
C1392 C 0.46736 0.10172 0.1158 0.0
C1393 C 0.45553 0.08703 0.1061 0.0
C1394 C 0.44349 0.08003 0.12961 0.0
C1395 C 0.4323 0.06627 0.12018 0.0
C1396 C 0.43312 0.05931 0.08737 0.0
C1397 C 0.44518 0.06606 0.06395 0.0
C1398 C 0.45638 0.07983 0.07324 0.0
C1399 C 0.54545 0.10818 0.14812 0.0
C1400 C 0.55338 0.10458 0.11666 0.0
C1401 C 0.52722 0.11017 0.15048 0.0
C1402 C 0.51663 0.10876 0.12138 0.0
C1403 C 0.52446 0.10455 0.09015 0.0
C1404 C 0.5427 0.10251 0.08779 0.0
C1405 C 0.49749 0.11236 0.1233 0.0
C1406 C 0.48562 0.0993 0.11279 0.0
C1407 C 0.49095 0.12846 0.13625 0.0
C1408 C 0.5028 0.14312 0.14609 0.0
C1409 C 0.51495 0.15007 0.12272 0.0
C1410 C 0.52623 0.16372 0.13233 0.0
C1411 C 0.52538 0.17064 0.16517 0.0
C1412 C 0.51322 0.16395 0.18845 0.0
C1413 C 0.50193 0.15028 0.17898 0.0
H1414 H 0.53413 0.18121 0.17257 0.0
H1415 H 0.42445 0.04866 0.08011 0.0
H1416 H 0.1526 0.70167 0.20306 0.0
H1417 H 0.14991 0.73369 0.20769 0.0
H1418 H 0.14857 0.73785 0.09848 0.0
H1419 H 0.15115 0.70585 0.09363 0.0
H1420 H 0.16897 0.76228 0.18412 0.0
H1421 H 0.11655 0.76736 0.0783 0.0
H1422 H 0.09382 0.74882 0.05141 0.0
H1423 H 0.08896 0.71859 0.14305 0.0
H1424 H 0.11145 0.73711 0.17062 0.0
H1425 H 0.1547 0.84965 0.12327 0.0
H1426 H 0.16118 0.81855 0.133 0.0
H1427 H 0.11085 0.81214 0.18223 0.0
H1428 H 0.10422 0.84322 0.17231 0.0
H1429 H 0.11534 0.78846 0.13295 0.0
H1430 H 0.14855 0.80904 0.22768 0.0
H1431 H 0.17036 0.82727 0.25782 0.0
H1432 H 0.21163 0.80612 0.19546 0.0
H1433 H 0.19002 0.78793 0.16459 0.0
C1434 C 0.15196 0.70944 0.18003 0.0
C1435 C 0.15192 0.70128 0.14798 0.0
C1436 C 0.15049 0.72771 0.18273 0.0
C1437 C 0.14883 0.73808 0.15345 0.0
C1438 C 0.14963 0.73003 0.12139 0.0
C1439 C 0.15114 0.71177 0.11866 0.0
C1440 C 0.1451 0.75714 0.1564 0.0
C1441 C 0.15727 0.76805 0.17294 0.0
C1442 C 0.12961 0.76454 0.14251 0.0
C1443 C 0.11581 0.75353 0.12639 0.0
C1444 C 0.11057 0.75681 0.09275 0.0
C1445 C 0.09773 0.74629 0.07739 0.0
C1446 C 0.08999 0.7325 0.09548 0.0
C1447 C 0.09501 0.72924 0.12903 0.0
C1448 C 0.10781 0.73973 0.14452 0.0
C1449 C 0.14517 0.8417 0.13679 0.0
C1450 C 0.12892 0.84883 0.14687 0.0
C1451 C 0.14891 0.82394 0.14242 0.0
C1452 C 0.1365 0.81304 0.15835 0.0
C1453 C 0.1206 0.82033 0.16983 0.0
C1454 C 0.11685 0.83809 0.16425 0.0
C1455 C 0.13939 0.79377 0.16008 0.0
C1456 C 0.12703 0.78276 0.14429 0.0
C1457 C 0.15458 0.78632 0.17511 0.0
C1458 C 0.16763 0.79722 0.19363 0.0
C1459 C 0.16225 0.80838 0.2202 0.0
C1460 C 0.17459 0.81869 0.23745 0.0
C1461 C 0.19237 0.81788 0.22851 0.0
C1462 C 0.19785 0.80674 0.20234 0.0
C1463 C 0.18557 0.79641 0.18498 0.0
H1464 H 0.2019 0.82587 0.24191 0.0
H1465 H 0.08008 0.72436 0.08352 0.0
H1466 H 0.54409 0.90517 0.44487 0.0
H1467 H 0.51212 0.90175 0.44208 0.0
H1468 H 0.51562 0.89204 0.33432 0.0
H1469 H 0.54761 0.89567 0.33686 0.0
H1470 H 0.48771 0.913 0.34987 0.0
H1471 H 0.51231 0.85821 0.38909 0.0
H1472 H 0.53013 0.8394 0.42677 0.0
H1473 H 0.49866 0.85506 0.51219 0.0
H1474 H 0.48079 0.87418 0.47506 0.0
H1475 H 0.41035 0.86511 0.31544 0.0
H1476 H 0.44068 0.87471 0.32382 0.0
H1477 H 0.42994 0.88432 0.42981 0.0
H1478 H 0.39941 0.87464 0.42159 0.0
H1479 H 0.46069 0.86571 0.41942 0.0
H1480 H 0.43421 0.91849 0.37807 0.0
H1481 H 0.41638 0.93671 0.33936 0.0
H1482 H 0.45127 0.92432 0.25693 0.0
H1483 H 0.46918 0.90581 0.29505 0.0
C1484 C 0.53803 0.90248 0.42052 0.0
C1485 C 0.54833 0.90056 0.3911 0.0
C1486 C 0.51978 0.90048 0.419 0.0
C1487 C 0.51155 0.8964 0.38808 0.0
C1488 C 0.52174 0.89516 0.35844 0.0
C1489 C 0.54 0.89718 0.35994 0.0
C1490 C 0.49243 0.89267 0.38683 0.0
C1491 C 0.48181 0.90259 0.36487 0.0
C1492 C 0.48469 0.87934 0.40705 0.0
C1493 C 0.49535 0.86778 0.42937 0.0
C1494 C 0.50928 0.85775 0.41596 0.0
C1495 C 0.51937 0.84702 0.4372 0.0
C1496 C 0.51557 0.84608 0.47187 0.0
C1497 C 0.50162 0.85583 0.48534 0.0
C1498 C 0.4915 0.86661 0.46421 0.0
C1499 C 0.41441 0.8693 0.34054 0.0
C1500 C 0.40252 0.86914 0.36788 0.0
C1501 C 0.43172 0.87487 0.34523 0.0
C1502 C 0.43748 0.88041 0.37734 0.0
C1503 C 0.4257 0.88016 0.4048 0.0
C1504 C 0.40829 0.87466 0.40007 0.0
C1505 C 0.456 0.88591 0.38215 0.0
C1506 C 0.46653 0.87629 0.40474 0.0
C1507 C 0.46366 0.89945 0.36239 0.0
C1508 C 0.45296 0.91064 0.33939 0.0
C1509 C 0.43801 0.91953 0.35163 0.0
C1510 C 0.4279 0.92994 0.3298 0.0
C1511 C 0.43267 0.93164 0.29569 0.0
C1512 C 0.44758 0.92298 0.28336 0.0
C1513 C 0.45773 0.91254 0.30508 0.0
H1514 H 0.42482 0.9397 0.27883 0.0
H1515 H 0.5234 0.83776 0.48828 0.0
H1516 H 0.3919 0.15603 0.56312 0.0
H1517 H 0.38445 0.1872 0.56771 0.0
H1518 H 0.35953 0.17766 0.66437 0.0
H1519 H 0.36705 0.14629 0.66005 0.0
H1520 H 0.33987 0.19991 0.62014 0.0
H1521 H 0.39805 0.1951 0.66597 0.0
H1522 H 0.4292 0.18602 0.66656 0.0
H1523 H 0.4389 0.21663 0.57686 0.0
H1524 H 0.40772 0.22569 0.57542 0.0
H1525 H 0.33767 0.29031 0.67152 0.0
H1526 H 0.34173 0.25841 0.66788 0.0
H1527 H 0.37122 0.26491 0.57509 0.0
H1528 H 0.36731 0.29682 0.57868 0.0
H1529 H 0.38817 0.24387 0.61978 0.0
H1530 H 0.3301 0.24842 0.57317 0.0
H1531 H 0.29891 0.25737 0.57179 0.0
H1532 H 0.28892 0.22736 0.66214 0.0
H1533 H 0.32013 0.21843 0.66434 0.0
C1534 C 0.38479 0.16053 0.58533 0.0
C1535 C 0.38014 0.14875 0.61134 0.0
C1536 C 0.38057 0.17834 0.58792 0.0
C1537 C 0.37158 0.18472 0.61649 0.0
C1538 C 0.3665 0.17295 0.64214 0.0
C1539 C 0.37085 0.15509 0.63971 0.0
C1540 C 0.36793 0.20379 0.61969 0.0
C1541 C 0.3504 0.20955 0.6206 0.0
C1542 C 0.38172 0.21629 0.61955 0.0
C1543 C 0.4005 0.21093 0.6204 0.0
C1544 C 0.40678 0.19978 0.64619 0.0
C1545 C 0.42445 0.19465 0.64671 0.0
C1546 C 0.43601 0.2007 0.62171 0.0
C1547 C 0.42993 0.21193 0.59618 0.0
C1548 C 0.41226 0.21708 0.59552 0.0
C1549 C 0.34487 0.28492 0.65016 0.0
C1550 C 0.35219 0.29604 0.62539 0.0
C1551 C 0.34713 0.2667 0.64807 0.0
C1552 C 0.35671 0.25929 0.62113 0.0
C1553 C 0.36379 0.27037 0.59609 0.0
C1554 C 0.36149 0.28858 0.59812 0.0
C1555 C 0.36007 0.24009 0.61986 0.0
C1556 C 0.3776 0.23427 0.6194 0.0
C1557 C 0.34627 0.22757 0.62036 0.0
C1558 C 0.3275 0.23292 0.61912 0.0
C1559 C 0.32129 0.24386 0.59292 0.0
C1560 C 0.3036 0.2489 0.59196 0.0
C1561 C 0.29195 0.24298 0.61692 0.0
C1562 C 0.29796 0.23196 0.64285 0.0
C1563 C 0.31565 0.2269 0.64396 0.0
H1564 H 0.27826 0.24689 0.61612 0.0
H1565 H 0.44969 0.19673 0.62217 0.0
H1566 H 0.09921 0.10976 0.89838 0.0
H1567 H 0.06765 0.10334 0.90067 0.0
H1568 H 0.05703 0.14909 0.83913 0.0
H1569 H 0.08851 0.15567 0.83697 0.0
H1570 H 0.03421 0.1466 0.8918 0.0
H1571 H 0.05627 0.10909 0.80395 0.0
H1572 H 0.07589 0.08684 0.77856 0.0
H1573 H 0.05831 0.04863 0.85137 0.0
H1574 H 0.03877 0.07075 0.87756 0.0
H1575 H 0.94721 0.12468 0.84025 0.0
H1576 H 0.97898 0.13 0.83717 0.0
H1577 H 0.98789 0.08923 0.91137 0.0
H1578 H 0.95609 0.08406 0.9151 0.0
H1579 H 0.01137 0.08894 0.85214 0.0
H1580 H 0.98982 0.12708 0.94043 0.0
H1581 H 0.97011 0.14951 0.96499 0.0
H1582 H 0.9866 0.18668 0.8893 0.0
H1583 H 0.00626 0.16436 0.86398 0.0
C1584 C 0.09013 0.11848 0.88547 0.0
C1585 C 0.0963 0.13318 0.86744 0.0
C1586 C 0.07213 0.11476 0.88667 0.0
C1587 C 0.06004 0.12565 0.86976 0.0
C1588 C 0.06615 0.14053 0.85232 0.0
C1589 C 0.08414 0.14423 0.85105 0.0
C1590 C 0.041 0.12146 0.87005 0.0
C1591 C 0.02921 0.13408 0.88273 0.0
C1592 C 0.03452 0.105 0.85872 0.0
C1593 C 0.04619 0.09164 0.84294 0.0
C1594 C 0.05669 0.09599 0.81474 0.0
C1595 C 0.06778 0.08339 0.80017 0.0
C1596 C 0.06838 0.06634 0.8134 0.0
C1597 C 0.05785 0.06185 0.84118 0.0
C1598 C 0.04676 0.07441 0.85589 0.0
C1599 C 0.95596 0.11675 0.85568 0.0
C1600 C 0.94923 0.104 0.878 0.0
C1601 C 0.97405 0.11983 0.85394 0.0
C1602 C 0.98569 0.11004 0.87415 0.0
C1603 C 0.97907 0.09689 0.89558 0.0
C1604 C 0.96094 0.094 0.89775 0.0
C1605 C 0.00471 0.11406 0.87389 0.0
C1606 C 0.01644 0.10143 0.86118 0.0
C1607 C 0.01115 0.13053 0.88499 0.0
C1608 C 0.99937 0.144 0.90011 0.0
C1609 C 0.98912 0.13998 0.92882 0.0
C1610 C 0.97799 0.15268 0.94293 0.0
C1611 C 0.97708 0.16949 0.92868 0.0
C1612 C 0.98731 0.17364 0.90029 0.0
C1613 C 0.99847 0.16098 0.88607 0.0
H1614 H 0.9685 0.17931 0.93976 0.0
H1615 H 0.07697 0.05661 0.80208 0.0
H1616 H 0.83135 0.69674 0.68802 0.0
H1617 H 0.83383 0.72895 0.69089 0.0
H1618 H 0.87317 0.72776 0.61193 0.0
H1619 H 0.87071 0.69579 0.60877 0.0
H1620 H 0.88311 0.74712 0.66948 0.0
H1621 H 0.83288 0.74083 0.59361 0.0
H1622 H 0.80297 0.73079 0.57891 0.0
H1623 H 0.78176 0.76002 0.66283 0.0
H1624 H 0.8116 0.77004 0.6783 0.0
H1625 H 0.89581 0.8299 0.60091 0.0
H1626 H 0.88844 0.79933 0.61216 0.0
H1627 H 0.84628 0.81581 0.67844 0.0
H1628 H 0.85333 0.84677 0.66624 0.0
H1629 H 0.83575 0.7893 0.63941 0.0
H1630 H 0.88483 0.79888 0.71137 0.0
H1631 H 0.91447 0.80907 0.72756 0.0
H1632 H 0.93761 0.77368 0.65519 0.0
H1633 H 0.90811 0.76344 0.6382 0.0
C1634 C 0.84041 0.7034 0.67111 0.0
C1635 C 0.85086 0.69377 0.6482 0.0
C1636 C 0.84179 0.72176 0.67276 0.0
C1637 C 0.85371 0.73068 0.65166 0.0
C1638 C 0.86395 0.72109 0.62851 0.0
C1639 C 0.86247 0.70283 0.62666 0.0
C1640 C 0.8561 0.74997 0.65403 0.0
C1641 C 0.87279 0.75637 0.66279 0.0
C1642 C 0.8424 0.76199 0.64674 0.0
C1643 C 0.82449 0.756 0.63736 0.0
C1644 C 0.82186 0.74498 0.60911 0.0
C1645 C 0.80492 0.73933 0.6006 0.0
C1646 C 0.79048 0.74472 0.61999 0.0
C1647 C 0.79296 0.75582 0.64788 0.0
C1648 C 0.80988 0.7615 0.65651 0.0
C1649 C 0.88501 0.82707 0.61803 0.0
C1650 C 0.87523 0.84072 0.63291 0.0
C1651 C 0.88086 0.80956 0.62459 0.0
C1652 C 0.86705 0.80525 0.64675 0.0
C1653 C 0.85708 0.81884 0.66145 0.0
C1654 C 0.86114 0.83648 0.65456 0.0
C1655 C 0.86301 0.78646 0.65358 0.0
C1656 C 0.84601 0.78013 0.64674 0.0
C1657 C 0.8764 0.77445 0.66306 0.0
C1658 C 0.89422 0.78045 0.67341 0.0
C1659 C 0.89623 0.79333 0.69877 0.0
C1660 C 0.91301 0.79912 0.7081 0.0
C1661 C 0.92791 0.79204 0.69239 0.0
C1662 C 0.92606 0.77914 0.66735 0.0
C1663 C 0.90931 0.77332 0.6579 0.0
H1664 H 0.94089 0.79655 0.69963 0.0
H1665 H 0.77738 0.74033 0.61336 0.0
H1666 H 0.91265 0.15195 0.34221 0.0
H1667 H 0.94384 0.14446 0.34547 0.0
H1668 H 0.93101 0.0964 0.39826 0.0
H1669 H 0.89963 0.10392 0.39534 0.0
H1670 H 0.95962 0.11337 0.42617 0.0
H1671 H 0.94094 0.09446 0.31618 0.0
H1672 H 0.92657 0.09748 0.26036 0.0
H1673 H 0.96231 0.13903 0.23384 0.0
H1674 H 0.97673 0.13644 0.28974 0.0
H1675 H 0.04657 0.08007 0.40521 0.0
H1676 H 0.01447 0.08247 0.40201 0.0
H1677 H 0.01957 0.13077 0.34525 0.0
H1678 H 0.05161 0.12829 0.34786 0.0
H1679 H 0.99412 0.11041 0.31925 0.0
H1680 H 0.01106 0.13104 0.43058 0.0
H1681 H 0.02525 0.12859 0.4867 0.0
H1682 H 0.99272 0.08409 0.51069 0.0
H1683 H 0.9785 0.08613 0.45449 0.0
C1684 C 0.91645 0.13983 0.3547 0.0
C1685 C 0.9037 0.12846 0.36835 0.0
C1686 C 0.93427 0.13553 0.35641 0.0
C1687 C 0.93969 0.11974 0.3716 0.0
C1688 C 0.92706 0.10861 0.38628 0.0
C1689 C 0.90917 0.11291 0.38456 0.0
C1690 C 0.95856 0.11485 0.3716 0.0
C1691 C 0.96712 0.1124 0.40279 0.0
C1692 C 0.96836 0.11386 0.34108 0.0
C1693 C 0.95983 0.11534 0.30727 0.0
C1694 C 0.94566 0.10432 0.29855 0.0
C1695 C 0.93751 0.10595 0.26687 0.0
C1696 C 0.9435 0.11846 0.24359 0.0
C1697 C 0.95768 0.12935 0.25191 0.0
C1698 C 0.96585 0.1278 0.28357 0.0
C1699 C 0.04083 0.09111 0.3918 0.0
C1700 C 0.05157 0.10404 0.37693 0.0
C1701 C 0.0225 0.09251 0.39013 0.0
C1702 C 0.01464 0.10693 0.37381 0.0
C1703 C 0.02537 0.11955 0.35802 0.0
C1704 C 0.04367 0.11813 0.35959 0.0
C1705 C 0.99527 0.10924 0.37385 0.0
C1706 C 0.9866 0.11119 0.34263 0.0
C1707 C 0.98539 0.10979 0.40435 0.0
C1708 C 0.99386 0.10862 0.4382 0.0
C1709 C 0.00703 0.12065 0.44773 0.0
C1710 C 0.01506 0.11935 0.47956 0.0
C1711 C 0.00993 0.10616 0.50221 0.0
C1712 C 0.99671 0.09427 0.4931 0.0
C1713 C 0.98865 0.0955 0.46127 0.0
H1714 H 0.01616 0.10517 0.52685 0.0
H1715 H 0.93717 0.1197 0.21909 0.0
H1716 H 0.63625 0.30404 0.07652 0.0
H1717 H 0.63269 0.27207 0.07417 0.0
H1718 H 0.65988 0.26697 0.16976 0.0
H1719 H 0.66328 0.29906 0.1726 0.0
H1720 H 0.66933 0.24107 0.11619 0.0
H1721 H 0.61932 0.26541 0.17564 0.0
H1722 H 0.59439 0.28588 0.18266 0.0
H1723 H 0.57075 0.2659 0.09143 0.0
H1724 H 0.5957 0.2455 0.08357 0.0
H1725 H 0.6406 0.1538 0.15449 0.0
H1726 H 0.64818 0.18511 0.15716 0.0
H1727 H 0.61217 0.19574 0.07494 0.0
H1728 H 0.60431 0.16462 0.07262 0.0
H1729 H 0.60795 0.21905 0.12368 0.0
H1730 H 0.6569 0.19508 0.06264 0.0
H1731 H 0.68192 0.1751 0.05235 0.0
H1732 H 0.70759 0.19437 0.14208 0.0
H1733 H 0.6826 0.21431 0.15318 0.0
C1734 C 0.64167 0.29611 0.09684 0.0
C1735 C 0.64995 0.30402 0.12485 0.0
C1736 C 0.63961 0.27787 0.09546 0.0
C1737 C 0.64594 0.26724 0.12189 0.0
C1738 C 0.65493 0.275 0.14914 0.0
C1739 C 0.6568 0.2933 0.15077 0.0
C1740 C 0.64208 0.24818 0.122 0.0
C1741 C 0.65596 0.23617 0.11831 0.0
C1742 C 0.62458 0.24194 0.12396 0.0
C1743 C 0.60947 0.25406 0.12884 0.0
C1744 C 0.60888 0.26549 0.15692 0.0
C1745 C 0.59473 0.27706 0.16108 0.0
C1746 C 0.58102 0.27723 0.13745 0.0
C1747 C 0.5814 0.26578 0.10968 0.0
C1748 C 0.59553 0.2542 0.10537 0.0
C1749 C 0.63433 0.16283 0.13698 0.0
C1750 C 0.62185 0.15679 0.11339 0.0
C1751 C 0.63873 0.18069 0.13841 0.0
C1752 C 0.63085 0.19275 0.11604 0.0
C1753 C 0.6184 0.18669 0.09247 0.0
C1754 C 0.61394 0.16889 0.09115 0.0
C1755 C 0.6352 0.21176 0.1176 0.0
C1756 C 0.62137 0.22383 0.12166 0.0
C1757 C 0.65273 0.21802 0.11557 0.0
C1758 C 0.66778 0.20606 0.10895 0.0
C1759 C 0.66781 0.19495 0.08034 0.0
C1760 C 0.682 0.18366 0.07433 0.0
C1761 C 0.69631 0.18343 0.0966 0.0
C1762 C 0.69648 0.19454 0.12488 0.0
C1763 C 0.68231 0.20585 0.13104 0.0
H1764 H 0.70728 0.17468 0.09189 0.0
H1765 H 0.57008 0.2862 0.14071 0.0
H1766 H 0.58999 0.8576 0.93425 0.0
H1767 H 0.55862 0.86452 0.93888 0.0
H1768 H 0.56503 0.90708 0.86752 0.0
H1769 H 0.59642 0.90021 0.86264 0.0
H1770 H 0.54157 0.91509 0.92107 0.0
H1771 H 0.55191 0.87001 0.83745 0.0
H1772 H 0.56389 0.84182 0.81675 0.0
H1773 H 0.53359 0.81392 0.89141 0.0
H1774 H 0.52163 0.84201 0.9129 0.0
H1775 H 0.44881 0.892 0.84822 0.0
H1776 H 0.48097 0.88998 0.84764 0.0
H1777 H 0.48226 0.90091 0.95512 0.0
H1778 H 0.45012 0.90302 0.95587 0.0
H1779 H 0.50216 0.86724 0.88125 0.0
H1780 H 0.52005 0.92447 0.97196 0.0
H1781 H 0.50834 0.95342 0.98919 0.0
H1782 H 0.48208 0.95847 0.89314 0.0
H1783 H 0.49382 0.92968 0.87516 0.0
C1784 C 0.5848 0.86866 0.92009 0.0
C1785 C 0.5956 0.87829 0.89787 0.0
C1786 C 0.56688 0.87256 0.92269 0.0
C1787 C 0.55952 0.88617 0.90323 0.0
C1788 C 0.57049 0.89652 0.88271 0.0
C1789 C 0.58839 0.89255 0.8799 0.0
C1790 C 0.5402 0.88858 0.90196 0.0
C1791 C 0.53292 0.90463 0.91253 0.0
C1792 C 0.529 0.87503 0.8901 0.0
C1793 C 0.53602 0.85812 0.877 0.0
C1794 C 0.54791 0.85788 0.84962 0.0
C1795 C 0.55468 0.84192 0.83772 0.0
C1796 C 0.54954 0.82609 0.85281 0.0
C1797 C 0.53758 0.8262 0.87978 0.0
C1798 C 0.53079 0.84213 0.89182 0.0
C1799 C 0.45596 0.89406 0.87169 0.0
C1800 C 0.44698 0.89768 0.90209 0.0
C1801 C 0.47431 0.89285 0.87133 0.0
C1802 C 0.48399 0.8954 0.90128 0.0
C1803 C 0.47505 0.89911 0.93165 0.0
C1804 C 0.4567 0.90024 0.93205 0.0
C1805 C 0.50342 0.89367 0.90093 0.0
C1806 C 0.51075 0.87771 0.88999 0.0
C1807 C 0.51464 0.9074 0.91201 0.0
C1808 C 0.50768 0.92483 0.92238 0.0
C1809 C 0.51183 0.93179 0.95448 0.0
C1810 C 0.50518 0.94817 0.96438 0.0
C1811 C 0.49443 0.95775 0.94232 0.0
C1812 C 0.49035 0.95101 0.91026 0.0
C1813 C 0.49698 0.93464 0.90022 0.0
H1814 H 0.48928 0.97042 0.95004 0.0
H1815 H 0.5548 0.81375 0.84357 0.0
H1816 H 0.85114 0.29555 0.81392 0.0
H1817 H 0.85422 0.26354 0.81788 0.0
H1818 H 0.86964 0.26844 0.92287 0.0
H1819 H 0.86652 0.30047 0.91915 0.0
H1820 H 0.8922 0.24738 0.88467 0.0
H1821 H 0.82994 0.25337 0.90477 0.0
H1822 H 0.7998 0.26331 0.89169 0.0
H1823 H 0.80076 0.23411 0.79832 0.0
H1824 H 0.83102 0.22419 0.81062 0.0
H1825 H 0.89043 0.15865 0.93411 0.0
H1826 H 0.88423 0.19007 0.92952 0.0
H1827 H 0.86458 0.18234 0.82781 0.0
H1828 H 0.8705 0.15069 0.83248 0.0
H1829 H 0.844 0.20485 0.86246 0.0
H1830 H 0.90535 0.19884 0.8403 0.0
H1831 H 0.936 0.18944 0.84996 0.0
H1832 H 0.9375 0.21901 0.94284 0.0
H1833 H 0.90674 0.22839 0.93401 0.0
C1834 C 0.85506 0.28979 0.83792 0.0
C1835 C 0.8586 0.30049 0.86624 0.0
C1836 C 0.85676 0.27152 0.84016 0.0
C1837 C 0.86207 0.26365 0.87071 0.0
C1838 C 0.86551 0.27429 0.89908 0.0
C1839 C 0.86367 0.29255 0.89694 0.0
C1840 C 0.86472 0.24437 0.87275 0.0
C1841 C 0.88162 0.23807 0.88033 0.0
C1842 C 0.85103 0.23228 0.86583 0.0
C1843 C 0.83281 0.23818 0.85846 0.0
C1844 C 0.82378 0.24919 0.88131 0.0
C1845 C 0.80666 0.2548 0.87406 0.0
C1846 C 0.79839 0.24938 0.84415 0.0
C1847 C 0.8072 0.23831 0.82146 0.0
C1848 C 0.82432 0.23268 0.82857 0.0
C1849 C 0.88474 0.16361 0.91078 0.0
C1850 C 0.88107 0.15225 0.88353 0.0
C1851 C 0.88125 0.18159 0.90816 0.0
C1852 C 0.87421 0.18859 0.87811 0.0
C1853 C 0.87007 0.17721 0.85117 0.0
C1854 C 0.8735 0.15916 0.85384 0.0
C1855 C 0.87146 0.20784 0.87481 0.0
C1856 C 0.85459 0.21415 0.86686 0.0
C1857 C 0.88524 0.21998 0.88098 0.0
C1858 C 0.90368 0.21419 0.88664 0.0
C1859 C 0.91215 0.20321 0.86296 0.0
C1860 C 0.92956 0.19791 0.86825 0.0
C1861 C 0.93868 0.20362 0.897 0.0
C1862 C 0.93041 0.2146 0.92058 0.0
C1863 C 0.91299 0.21992 0.91544 0.0
H1864 H 0.95219 0.19961 0.90091 0.0
H1865 H 0.78513 0.25374 0.83859 0.0
H1866 H 0.58573 0.15462 0.65556 0.0
H1867 H 0.55511 0.14512 0.6522 0.0
H1868 H 0.57102 0.09829 0.5984 0.0
H1869 H 0.60191 0.1077 0.60185 0.0
H1870 H 0.5413 0.11603 0.56995 0.0
H1871 H 0.56077 0.09358 0.67717 0.0
H1872 H 0.57503 0.09528 0.73331 0.0
H1873 H 0.53753 0.13425 0.76503 0.0
H1874 H 0.5232 0.13299 0.70887 0.0
H1875 H 0.45614 0.07862 0.58301 0.0
H1876 H 0.48801 0.0826 0.58688 0.0
H1877 H 0.48031 0.12649 0.65489 0.0
H1878 H 0.44843 0.1222 0.65194 0.0
H1879 H 0.50694 0.10724 0.67582 0.0
H1880 H 0.48914 0.13206 0.56871 0.0
H1881 H 0.47508 0.13195 0.51226 0.0
H1882 H 0.50939 0.09023 0.4801 0.0
H1883 H 0.52351 0.08994 0.53654 0.0
C1884 C 0.58274 0.14232 0.64289 0.0
C1885 C 0.59621 0.13186 0.62904 0.0
C1886 C 0.56525 0.13689 0.64112 0.0
C1887 C 0.56086 0.12093 0.6254 0.0
C1888 C 0.5742 0.11063 0.61076 0.0
C1889 C 0.59179 0.116 0.61278 0.0
C1890 C 0.54228 0.11514 0.62453 0.0
C1891 C 0.53383 0.11376 0.59302 0.0
C1892 C 0.53253 0.11262 0.65474 0.0
C1893 C 0.54099 0.11328 0.6887 0.0
C1894 C 0.55564 0.1026 0.69602 0.0
C1895 C 0.56372 0.10348 0.72787 0.0
C1896 C 0.55721 0.11489 0.7527 0.0
C1897 C 0.54257 0.12542 0.74576 0.0
C1898 C 0.53445 0.12462 0.71394 0.0
C1899 C 0.46126 0.08904 0.59896 0.0
C1900 C 0.44983 0.10017 0.61704 0.0
C1901 C 0.47946 0.09135 0.60103 0.0
C1902 C 0.48655 0.10504 0.6207 0.0
C1903 C 0.47515 0.11586 0.6395 0.0
C1904 C 0.45694 0.11343 0.63775 0.0
C1905 C 0.5058 0.10836 0.62119 0.0
C1906 C 0.5144 0.1093 0.65267 0.0
C1907 C 0.51566 0.11064 0.59094 0.0
C1908 C 0.50724 0.11085 0.55695 0.0
C1909 C 0.49359 0.12277 0.54968 0.0
C1910 C 0.48563 0.1228 0.51768 0.0
C1911 C 0.4913 0.11105 0.49264 0.0
C1912 C 0.50499 0.0993 0.49953 0.0
C1913 C 0.51299 0.0992 0.53151 0.0
H1914 H 0.48512 0.11109 0.46789 0.0
H1915 H 0.56349 0.11555 0.77733 0.0
H1916 H 0.62962 0.69814 0.41173 0.0
H1917 H 0.62413 0.72982 0.41567 0.0
H1918 H 0.65411 0.73817 0.32402 0.0
H1919 H 0.65976 0.70653 0.32004 0.0
H1920 H 0.66157 0.76278 0.37315 0.0
H1921 H 0.61033 0.73776 0.32016 0.0
H1922 H 0.58531 0.71724 0.31534 0.0
H1923 H 0.56375 0.73718 0.40853 0.0
H1924 H 0.58878 0.75766 0.41416 0.0
H1925 H 0.63149 0.84999 0.3411 0.0
H1926 H 0.6385 0.81864 0.33561 0.0
H1927 H 0.60542 0.80719 0.42196 0.0
H1928 H 0.59804 0.83834 0.42697 0.0
H1929 H 0.59982 0.78406 0.3737 0.0
H1930 H 0.65094 0.80855 0.42795 0.0
H1931 H 0.67606 0.82884 0.43411 0.0
H1932 H 0.69794 0.80985 0.34043 0.0
H1933 H 0.6728 0.78961 0.33348 0.0
C1934 C 0.63514 0.70675 0.39257 0.0
C1935 C 0.64504 0.69988 0.36548 0.0
C1936 C 0.63195 0.72481 0.39478 0.0
C1937 C 0.63854 0.73628 0.36989 0.0
C1938 C 0.64888 0.72952 0.34342 0.0
C1939 C 0.65205 0.71146 0.34115 0.0
C1940 C 0.63426 0.75528 0.37099 0.0
C1941 C 0.64808 0.76748 0.37284 0.0
C1942 C 0.61665 0.76133 0.37121 0.0
C1943 C 0.60152 0.74912 0.36774 0.0
C1944 C 0.60032 0.73768 0.33975 0.0
C1945 C 0.58613 0.72607 0.33685 0.0
C1946 C 0.57297 0.72588 0.36165 0.0
C1947 C 0.57396 0.73733 0.38936 0.0
C1948 C 0.58814 0.74895 0.3924 0.0
C1949 C 0.6257 0.84076 0.35882 0.0
C1950 C 0.61424 0.84658 0.38447 0.0
C1951 C 0.62978 0.82288 0.35578 0.0
C1952 C 0.62265 0.8106 0.37866 0.0
C1953 C 0.61107 0.81642 0.40403 0.0
C1954 C 0.60689 0.83423 0.4069 0.0
C1955 C 0.62712 0.79164 0.3762 0.0
C1956 C 0.61332 0.77941 0.37399 0.0
C1957 C 0.64475 0.78558 0.37584 0.0
C1958 C 0.6599 0.7977 0.38002 0.0
C1959 C 0.66104 0.8088 0.40853 0.0
C1960 C 0.67529 0.82027 0.41219 0.0
C1961 C 0.68856 0.82067 0.38763 0.0
C1962 C 0.68763 0.80955 0.35941 0.0
C1963 C 0.67339 0.79807 0.35561 0.0
H1964 H 0.69959 0.82956 0.39051 0.0
H1965 H 0.56199 0.71688 0.35937 0.0
H1966 H 0.91576 0.84485 0.08004 0.0
H1967 H 0.9472 0.8508 0.07377 0.0
H1968 H 0.93977 0.90261 0.11634 0.0
H1969 H 0.90819 0.89687 0.12196 0.0
H1970 H 0.96372 0.90339 0.06599 0.0
H1971 H 0.95357 0.86902 0.16603 0.0
H1972 H 0.94196 0.84404 0.1991 0.0
H1973 H 0.97271 0.80812 0.13931 0.0
H1974 H 0.98433 0.83289 0.10555 0.0
H1975 H 0.05187 0.91648 0.12519 0.0
H1976 H 0.0199 0.91272 0.12139 0.0
H1977 H 0.02731 0.86276 0.07134 0.0
H1978 H 0.05925 0.86644 0.07493 0.0
H1979 H 0.00344 0.86132 0.12451 0.0
H1980 H 0.01447 0.89701 0.02594 0.0
H1981 H 0.02606 0.92272 0.99501 0.0
H1982 H 0.9938 0.95709 0.05522 0.0
H1983 H 0.98219 0.93159 0.08686 0.0
C1984 C 0.92078 0.85761 0.08756 0.0
C1985 C 0.90957 0.87034 0.10178 0.0
C1986 C 0.93875 0.86097 0.0841 0.0
C1987 C 0.94587 0.87701 0.09525 0.0
C1988 C 0.93456 0.89011 0.10772 0.0
C1989 C 0.91653 0.88681 0.11096 0.0
C1990 C 0.9652 0.87968 0.09584 0.0
C1991 C 0.9724 0.89429 0.07906 0.0
C1992 C 0.97653 0.86771 0.11263 0.0
C1993 C 0.96968 0.85279 0.13304 0.0
C1994 C 0.95776 0.85578 0.15978 0.0
C1995 C 0.95119 0.84166 0.17867 0.0
C1996 C 0.95656 0.8245 0.17125 0.0
C1997 C 0.96855 0.82142 0.14499 0.0
C1998 C 0.97514 0.83549 0.12598 0.0
C1999 C 0.04667 0.90473 0.11327 0.0
C2000 C 0.05803 0.89174 0.10036 0.0
C2001 C 0.02843 0.90264 0.11099 0.0
C2002 C 0.02127 0.88752 0.09588 0.0
C2003 C 0.03259 0.87453 0.08303 0.0
C2004 C 0.05082 0.87667 0.08506 0.0
C2005 C 0.00197 0.88493 0.09446 0.0
C2006 C 0.99477 0.87036 0.11127 0.0
C2007 C 0.99067 0.89705 0.07806 0.0
C2008 C 0.9976 0.9124 0.059 0.0
C2009 C 0.00996 0.91006 0.03279 0.0
C2010 C 0.01651 0.9246 0.01509 0.0
C2011 C 0.01071 0.94154 0.0232 0.0
C2012 C 0.9983 0.94397 0.04899 0.0
C2013 C 0.99172 0.92948 0.06679 0.0
H2014 H 0.01579 0.95277 0.00946 0.0
H2015 H 0.95145 0.81358 0.1859 0.0
H2016 H 0.61444 0.80206 0.88049 0.0
H2017 H 0.61286 0.76997 0.88267 0.0
H2018 H 0.66919 0.76673 0.87066 0.0
H2019 H 0.67092 0.799 0.86879 0.0
H2020 H 0.64912 0.74321 0.82785 0.0
H2021 H 0.65479 0.75925 0.94496 0.0
H2022 H 0.64764 0.77595 0.99686 0.0
H2023 H 0.59484 0.75583 0.99461 0.0
H2024 H 0.6016 0.73921 0.94238 0.0
H2025 H 0.64665 0.65056 0.86464 0.0
H2026 H 0.65455 0.68186 0.86315 0.0
H2027 H 0.60173 0.69554 0.89382 0.0
H2028 H 0.59399 0.66444 0.8963 0.0
H2029 H 0.62428 0.71359 0.92939 0.0
H2030 H 0.61702 0.70017 0.81038 0.0
H2031 H 0.62293 0.68418 0.75707 0.0
H2032 H 0.67721 0.69974 0.7614 0.0
H2033 H 0.67166 0.71565 0.815 0.0
C2034 C 0.6265 0.79454 0.87833 0.0
C2035 C 0.64282 0.80301 0.8746 0.0
C2036 C 0.62558 0.77622 0.87964 0.0
C2037 C 0.64092 0.76604 0.87703 0.0
C2038 C 0.65722 0.77441 0.87276 0.0
C2039 C 0.65819 0.7928 0.87183 0.0
C2040 C 0.63973 0.74664 0.87901 0.0
C2041 C 0.64401 0.73663 0.85023 0.0
C2042 C 0.63276 0.73821 0.90802 0.0
C2043 C 0.62867 0.74808 0.9396 0.0
C2044 C 0.64161 0.75849 0.95538 0.0
C2045 C 0.63764 0.76792 0.98489 0.0
C2046 C 0.62079 0.76698 -0.00101 0.0
C2047 C 0.60789 0.75656 0.98365 0.0
C2048 C 0.61179 0.74711 0.95411 0.0
C2049 C 0.63674 0.66029 0.87089 0.0
C2050 C 0.61972 0.6551 0.8806 0.0
C2051 C 0.64124 0.67815 0.86994 0.0
C2052 C 0.6287 0.69107 0.87818 0.0
C2053 C 0.61166 0.68583 0.88752 0.0
C2054 C 0.60723 0.66804 0.88881 0.0
C2055 C 0.6332 0.71008 0.87785 0.0
C2056 C 0.62959 0.72005 0.90706 0.0
C2057 C 0.64062 0.71847 0.8491 0.0
C2058 C 0.64397 0.70892 0.8169 0.0
C2059 C 0.63025 0.70006 0.80011 0.0
C2060 C 0.63353 0.69103 0.76982 0.0
C2061 C 0.65045 0.69089 0.75592 0.0
C2062 C 0.66412 0.69983 0.77223 0.0
C2063 C 0.66091 0.70886 0.80256 0.0
H2064 H 0.65296 0.6839 0.73245 0.0
H2065 H 0.61773 0.77429 0.02183 0.0
H2066 H 0.44859 0.40376 0.15568 0.0
H2067 H 0.48064 0.40124 0.16015 0.0
H2068 H 0.48286 0.38077 0.05795 0.0
H2069 H 0.45099 0.38389 0.05298 0.0
H2070 H 0.50192 0.37506 0.15911 0.0
H2071 H 0.52023 0.39177 0.01889 0.0
H2072 H 0.50948 0.41079 0.97255 0.0
H2073 H 0.48508 0.44512 0.0453 0.0
H2074 H 0.49589 0.42646 0.09208 0.0
H2075 H 0.58654 0.34318 0.12637 0.0
H2076 H 0.55524 0.35025 0.12286 0.0
H2077 H 0.56801 0.40504 0.10751 0.0
H2078 H 0.59943 0.39783 0.1094 0.0
H2079 H 0.54196 0.39739 0.06937 0.0
H2080 H 0.55393 0.3885 0.1865 0.0
H2081 H 0.56526 0.37317 0.23718 0.0
H2082 H 0.53 0.33007 0.21866 0.0
H2083 H 0.51862 0.34504 0.16759 0.0
C2084 C 0.45596 0.3988 0.13415 0.0
C2085 C 0.44734 0.39412 0.10392 0.0
C2086 C 0.47425 0.39733 0.13674 0.0
C2087 C 0.48422 0.39107 0.10921 0.0
C2088 C 0.47554 0.38606 0.07924 0.0
C2089 C 0.4573 0.38774 0.0765 0.0
C2090 C 0.50364 0.38934 0.11197 0.0
C2091 C 0.51067 0.38 0.13954 0.0
C2092 C 0.51515 0.39621 0.08696 0.0
C2093 C 0.50875 0.40762 0.05897 0.0
C2094 C 0.51264 0.40342 0.025 0.0
C2095 C 0.50652 0.41413 -0.00134 0.0
C2096 C 0.49656 0.42912 0.00597 0.0
C2097 C 0.49274 0.43347 0.03966 0.0
C2098 C 0.49884 0.42282 0.06609 0.0
C2099 C 0.58265 0.35671 0.122 0.0
C2100 C 0.59536 0.36999 0.11831 0.0
C2101 C 0.56477 0.36077 0.12025 0.0
C2102 C 0.55923 0.37826 0.11575 0.0
C2103 C 0.57195 0.39147 0.11115 0.0
C2104 C 0.58988 0.38735 0.11224 0.0
C2105 C 0.54018 0.38269 0.11603 0.0
C2106 C 0.53322 0.39254 0.08904 0.0
C2107 C 0.52881 0.37686 0.14223 0.0
C2108 C 0.53552 0.36784 0.17307 0.0
C2109 C 0.54867 0.3757 0.19312 0.0
C2110 C 0.55509 0.36708 0.22193 0.0
C2111 C 0.54838 0.35064 0.2311 0.0
C2112 C 0.53519 0.3428 0.21152 0.0
C2113 C 0.52874 0.35136 0.18266 0.0
H2114 H 0.55337 0.34398 0.2534 0.0
H2115 H 0.49182 0.43739 0.98554 0.0
H2116 H 0.84525 0.19654 0.2973 0.0
H2117 H 0.84565 0.22874 0.29744 0.0
H2118 H 0.84789 0.22865 0.40694 0.0
H2119 H 0.84715 0.19648 0.40698 0.0
H2120 H 0.8262 0.25397 0.38452 0.0
H2121 H 0.88499 0.23396 0.35908 0.0
H2122 H 0.9075 0.21747 0.32704 0.0
H2123 H 0.89411 0.24591 0.23644 0.0
H2124 H 0.87133 0.2624 0.26787 0.0
H2125 H 0.86771 0.33412 0.42583 0.0
H2126 H 0.85918 0.30357 0.41633 0.0
H2127 H 0.85511 0.31348 0.30876 0.0
H2128 H 0.86368 0.34426 0.31813 0.0
H2129 H 0.8749 0.28402 0.32381 0.0
H2130 H 0.81841 0.30686 0.35292 0.0
H2131 H 0.79687 0.32356 0.38691 0.0
H2132 H 0.8068 0.2901 0.47264 0.0
H2133 H 0.8286 0.27334 0.43932 0.0
C2134 C 0.84568 0.2034 0.3214 0.0
C2135 C 0.8463 0.19402 0.35213 0.0
C2136 C 0.84596 0.22179 0.32144 0.0
C2137 C 0.84704 0.23109 0.35218 0.0
C2138 C 0.84706 0.22174 0.38292 0.0
C2139 C 0.84671 0.20336 0.38291 0.0
C2140 C 0.8489 0.25052 0.35243 0.0
C2141 C 0.8369 0.26054 0.37141 0.0
C2142 C 0.86261 0.25912 0.33462 0.0
C2143 C 0.87632 0.24925 0.31572 0.0
C2144 C 0.88675 0.23659 0.33226 0.0
C2145 C 0.89957 0.22726 0.31422 0.0
C2146 C 0.90219 0.2306 0.2797 0.0
C2147 C 0.89203 0.24331 0.26316 0.0
C2148 C 0.87917 0.25265 0.28107 0.0
C2149 C 0.86483 0.32986 0.40017 0.0
C2150 C 0.86638 0.34155 0.37269 0.0
C2151 C 0.85987 0.31242 0.39481 0.0
C2152 C 0.85636 0.30631 0.36188 0.0
C2153 C 0.8577 0.31799 0.33438 0.0
C2154 C 0.86254 0.33554 0.33976 0.0
C2155 C 0.85237 0.28745 0.35634 0.0
C2156 C 0.86401 0.2775 0.33643 0.0
C2157 C 0.83842 0.27892 0.37353 0.0
C2158 C 0.82524 0.28891 0.39365 0.0
C2159 C 0.8161 0.30314 0.37909 0.0
C2160 C 0.80383 0.3126 0.39823 0.0
C2161 C 0.80049 0.30791 0.43193 0.0
C2162 C 0.8094 0.29372 0.44653 0.0
C2163 C 0.8217 0.28422 0.42751 0.0
H2164 H 0.79098 0.31526 0.44671 0.0
H2165 H 0.91213 0.22337 0.26578 0.0
H2166 H 0.90321 0.60898 0.59836 0.0
H2167 H 0.93473 0.60229 0.59543 0.0
H2168 H 0.94409 0.63621 0.68146 0.0
H2169 H 0.91276 0.64318 0.68411 0.0
H2170 H 0.96758 0.64223 0.63346 0.0
H2171 H 0.94438 0.59128 0.68934 0.0
H2172 H 0.92488 0.56564 0.69673 0.0
H2173 H 0.94513 0.54276 0.60496 0.0
H2174 H 0.96459 0.56841 0.59676 0.0
H2175 H 0.05413 0.61528 0.67381 0.0
H2176 H 0.02214 0.61839 0.67864 0.0
H2177 H 0.01552 0.59119 0.58336 0.0
H2178 H 0.04751 0.58818 0.57816 0.0
H2179 H 0.99085 0.5812 0.63545 0.0
H2180 H 0.01397 0.63288 0.58032 0.0
H2181 H 0.03384 0.65838 0.57489 0.0
H2182 H 0.0137 0.67977 0.66807 0.0
H2183 H 0.9939 0.65423 0.67434 0.0
C2184 C 0.91201 0.61498 0.61663 0.0
C2185 C 0.90555 0.62659 0.64145 0.0
C2186 C 0.92999 0.61109 0.61505 0.0
C2187 C 0.94174 0.61863 0.63845 0.0
C2188 C 0.93527 0.63026 0.66315 0.0
C2189 C 0.91736 0.63419 0.66467 0.0
C2190 C 0.96086 0.61473 0.63691 0.0
C2191 C 0.97265 0.62889 0.63435 0.0
C2192 C 0.96747 0.5973 0.63739 0.0
C2193 C 0.9558 0.58186 0.64225 0.0
C2194 C 0.94457 0.58086 0.67058 0.0
C2195 C 0.93354 0.56631 0.67494 0.0
C2196 C 0.93373 0.5526 0.65128 0.0
C2197 C 0.94498 0.5534 0.62324 0.0
C2198 C 0.95602 0.56794 0.61873 0.0
C2199 C 0.04585 0.60975 0.65414 0.0
C2200 C 0.05328 0.60159 0.62551 0.0
C2201 C 0.02761 0.61157 0.65689 0.0
C2202 C 0.01654 0.60513 0.6312 0.0
C2203 C 0.02388 0.59623 0.60341 0.0
C2204 C 0.04213 0.59459 0.60044 0.0
C2205 C 0.99742 0.6087 0.63229 0.0
C2206 C 0.98569 0.59451 0.63463 0.0
C2207 C 0.99083 0.62609 0.63186 0.0
C2208 C 0.00259 0.64155 0.62798 0.0
C2209 C 0.01389 0.64294 0.5998 0.0
C2210 C 0.02512 0.65742 0.59655 0.0
C2211 C 0.02507 0.67066 0.62117 0.0
C2212 C 0.01374 0.66948 0.64905 0.0
C2213 C 0.00251 0.65502 0.65246 0.0
H2214 H 0.03377 0.68185 0.61861 0.0
H2215 H 0.92519 0.54134 0.65471 0.0
H2216 H 0.64083 0.20225 0.57999 0.0
H2217 H 0.63823 0.23431 0.57702 0.0
H2218 H 0.65929 0.23868 0.67841 0.0
H2219 H 0.66186 0.20662 0.68161 0.0
H2220 H 0.62894 0.25721 0.6708 0.0
H2221 H 0.68369 0.25169 0.61233 0.0
H2222 H 0.7044 0.23999 0.56971 0.0
H2223 H 0.67126 0.25905 0.48944 0.0
H2224 H 0.65021 0.27066 0.53158 0.0
H2225 H 0.63036 0.35117 0.66369 0.0
H2226 H 0.63974 0.32045 0.66961 0.0
H2227 H 0.62122 0.30948 0.56822 0.0
H2228 H 0.61203 0.34009 0.56201 0.0
H2229 H 0.65307 0.29491 0.57911 0.0
H2230 H 0.59717 0.29773 0.6369 0.0
H2231 H 0.57591 0.309 0.67895 0.0
H2232 H 0.61087 0.29458 0.75996 0.0
H2233 H 0.63246 0.28344 0.71833 0.0
C2234 C 0.64513 0.21006 0.60145 0.0
C2235 C 0.65151 0.20196 0.63104 0.0
C2236 C 0.64369 0.22837 0.5997 0.0
C2237 C 0.64865 0.23885 0.62746 0.0
C2238 C 0.65541 0.2308 0.65673 0.0
C2239 C 0.65692 0.21251 0.65845 0.0
C2240 C 0.6457 0.25811 0.62668 0.0
C2241 C 0.6345 0.26553 0.65115 0.0
C2242 C 0.65265 0.26885 0.6006 0.0
C2243 C 0.6653 0.26192 0.57514 0.0
C2244 C 0.68074 0.25326 0.58559 0.0
C2245 C 0.69256 0.24667 0.56151 0.0
C2246 C 0.68913 0.24874 0.52689 0.0
C2247 C 0.67389 0.25745 0.51627 0.0
C2248 C 0.66202 0.26405 0.54024 0.0
C2249 C 0.6283 0.34219 0.64271 0.0
C2250 C 0.6204 0.34799 0.61246 0.0
C2251 C 0.63364 0.32466 0.64613 0.0
C2252 C 0.63107 0.31267 0.61941 0.0
C2253 C 0.62336 0.31852 0.5891 0.0
C2254 C 0.61804 0.33599 0.58567 0.0
C2255 C 0.63614 0.29394 0.62297 0.0
C2256 C 0.6477 0.28662 0.599 0.0
C2257 C 0.62947 0.28326 0.64944 0.0
C2258 C 0.61651 0.28995 0.67449 0.0
C2259 C 0.60039 0.29711 0.66367 0.0
C2260 C 0.58827 0.30344 0.68742 0.0
C2261 C 0.59206 0.30256 0.7221 0.0
C2262 C 0.60796 0.29529 0.73309 0.0
C2263 C 0.62014 0.28896 0.70943 0.0
H2264 H 0.58265 0.30746 0.74046 0.0
H2265 H 0.69829 0.24363 0.50829 0.0
H2266 H 0.05264 0.41272 0.9237 0.0
H2267 H 0.02054 0.41003 0.92289 0.0
H2268 H 0.02361 0.38122 0.82859 0.0
H2269 H 0.0556 0.38437 0.82874 0.0
H2270 H 0.99675 0.40282 0.82671 0.0
H2271 H 0.01898 0.36047 0.90727 0.0
H2272 H 0.03554 0.35075 0.95775 0.0
H2273 H 0.0036 0.38384 0.02119 0.0
H2274 H 0.98699 0.39393 0.97098 0.0
H2275 H 0.91844 0.35333 0.82666 0.0
H2276 H 0.94919 0.36246 0.83037 0.0
H2277 H 0.93689 0.39511 0.91681 0.0
H2278 H 0.90594 0.38601 0.91324 0.0
H2279 H 0.96735 0.37476 0.92536 0.0
H2280 H 0.94308 0.41448 0.84348 0.0
H2281 H 0.92631 0.42261 0.79225 0.0
H2282 H 0.96209 0.39286 0.73032 0.0
H2283 H 0.97894 0.38432 0.78126 0.0
C2284 C 0.04643 0.40597 0.90264 0.0
C2285 C 0.0566 0.39866 0.87638 0.0
C2286 C 0.02811 0.40436 0.90229 0.0
C2287 C 0.01968 0.39514 0.87599 0.0
C2288 C 0.02981 0.38836 0.84917 0.0
C2289 C 0.0481 0.39013 0.84932 0.0
C2290 C 0.0004 0.39199 0.87678 0.0
C2291 C 0.99036 0.39658 0.84819 0.0
C2292 C 0.99195 0.38421 0.90513 0.0
C2293 C 0.00188 0.3781 0.93534 0.0
C2294 C 0.01557 0.36577 0.93195 0.0
C2295 C 0.02496 0.36018 0.96052 0.0
C2296 C 0.02066 0.36671 0.99264 0.0
C2297 C 0.00694 0.37882 0.99628 0.0
C2298 C 0.99753 0.38447 0.96778 0.0
C2299 C 0.92226 0.36243 0.84653 0.0
C2300 C 0.90979 0.36901 0.86962 0.0
C2301 C 0.93982 0.36768 0.8485 0.0
C2302 C 0.94524 0.37961 0.8736 0.0
C2303 C 0.93291 0.38594 0.89718 0.0
C2304 C 0.91527 0.38076 0.89508 0.0
C2305 C 0.96385 0.38531 0.8751 0.0
C2306 C 0.97374 0.3812 0.90409 0.0
C2307 C 0.97219 0.39337 0.847 0.0
C2308 C 0.9622 0.39865 0.81624 0.0
C2309 C 0.94731 0.40957 0.81897 0.0
C2310 C 0.93779 0.41427 0.78997 0.0
C2311 C 0.94311 0.40823 0.75806 0.0
C2312 C 0.95798 0.39752 0.75506 0.0
C2313 C 0.96753 0.39276 0.78399 0.0
H2314 H 0.93572 0.41188 0.73564 0.0
H2315 H 0.02794 0.36237 0.01472 0.0
H2316 H 0.84883 0.79777 0.08713 0.0
H2317 H 0.85105 0.7657 0.08889 0.0
H2318 H 0.87517 0.76871 0.18792 0.0
H2319 H 0.87331 0.80086 0.186 0.0
H2320 H 0.89254 0.74628 0.14875 0.0
H2321 H 0.83234 0.75523 0.17853 0.0
H2322 H 0.80228 0.76709 0.17287 0.0
H2323 H 0.79642 0.74072 0.07709 0.0
H2324 H 0.82655 0.72889 0.08194 0.0
H2325 H 0.8855 0.65349 0.17577 0.0
H2326 H 0.87987 0.68506 0.18344 0.0
H2327 H 0.86325 0.68896 0.07899 0.0
H2328 H 0.86907 0.65757 0.07101 0.0
H2329 H 0.84133 0.70745 0.1263 0.0
H2330 H 0.90254 0.70049 0.09551 0.0
H2331 H 0.93242 0.68829 0.10214 0.0
H2332 H 0.93598 0.71091 0.20186 0.0
H2333 H 0.90596 0.72298 0.19604 0.0
C2334 C 0.85454 0.7916 0.10934 0.0
C2335 C 0.86087 0.8018 0.13646 0.0
C2336 C 0.85572 0.77326 0.11039 0.0
C2337 C 0.86306 0.76479 0.13874 0.0
C2338 C 0.86941 0.77497 0.16584 0.0
C2339 C 0.86831 0.79332 0.16474 0.0
C2340 C 0.86458 0.74532 0.13957 0.0
C2341 C 0.88127 0.7378 0.14447 0.0
C2342 C 0.84993 0.73424 0.13348 0.0
C2343 C 0.83177 0.74129 0.13048 0.0
C2344 C 0.82469 0.75207 0.15613 0.0
C2345 C 0.80763 0.75877 0.15309 0.0
C2346 C 0.79746 0.7547 0.1246 0.0
C2347 C 0.80432 0.74388 0.09913 0.0
C2348 C 0.82138 0.73715 0.10203 0.0
C2349 C 0.88045 0.66106 0.1546 0.0
C2350 C 0.87779 0.65315 0.12276 0.0
C2351 C 0.87729 0.67905 0.15899 0.0
C2352 C 0.87124 0.68929 0.13171 0.0
C2353 C 0.8679 0.68125 0.10032 0.0
C2354 C 0.87129 0.66336 0.09579 0.0
C2355 C 0.86925 0.70856 0.13518 0.0
C2356 C 0.8525 0.716 0.13099 0.0
C2357 C 0.88382 0.71956 0.1421 0.0
C2358 C 0.90192 0.71245 0.14551 0.0
C2359 C 0.90963 0.70272 0.11898 0.0
C2360 C 0.9266 0.69586 0.12257 0.0
C2361 C 0.93607 0.69878 0.15245 0.0
C2362 C 0.92861 0.70862 0.17875 0.0
C2363 C 0.91162 0.71548 0.17533 0.0
H2364 H 0.94921 0.69345 0.15519 0.0
H2365 H 0.78425 0.75989 0.12229 0.0
H2366 H 0.59884 0.6289 0.42067 0.0
H2367 H 0.56742 0.6224 0.42712 0.0
H2368 H 0.56143 0.62227 0.31814 0.0
H2369 H 0.59263 0.62912 0.31159 0.0
H2370 H 0.53643 0.64135 0.34679 0.0
H2371 H 0.56131 0.58381 0.36552 0.0
H2372 H 0.58071 0.56209 0.39316 0.0
H2373 H 0.55624 0.57271 0.48933 0.0
H2374 H 0.53684 0.59467 0.46232 0.0
H2375 H 0.45137 0.60469 0.33289 0.0
H2376 H 0.48317 0.60938 0.3297 0.0
H2377 H 0.48615 0.60982 0.43912 0.0
H2378 H 0.45439 0.60479 0.44248 0.0
H2379 H 0.5126 0.59101 0.41248 0.0
H2380 H 0.48741 0.64806 0.39395 0.0
H2381 H 0.46802 0.66992 0.36672 0.0
H2382 H 0.49317 0.66053 0.27075 0.0
H2383 H 0.51255 0.63841 0.2973 0.0
C2384 C 0.59083 0.62734 0.39813 0.0
C2385 C 0.59815 0.62954 0.36564 0.0
C2386 C 0.5729 0.62357 0.40183 0.0
C2387 C 0.56209 0.62174 0.37309 0.0
C2388 C 0.5695 0.62368 0.34066 0.0
C2389 C 0.58734 0.62754 0.33696 0.0
C2390 C 0.54292 0.61848 0.37659 0.0
C2391 C 0.53123 0.6302 0.36078 0.0
C2392 C 0.53613 0.60425 0.39571 0.0
C2393 C 0.54775 0.59101 0.41195 0.0
C2394 C 0.56016 0.58162 0.3926 0.0
C2395 C 0.57114 0.56924 0.40815 0.0
C2396 C 0.56974 0.56606 0.44299 0.0
C2397 C 0.55732 0.5752 0.46235 0.0
C2398 C 0.54632 0.5876 0.44693 0.0
C2399 C 0.45881 0.60576 0.35626 0.0
C2400 C 0.4504 0.60446 0.38793 0.0
C2401 C 0.47696 0.6085 0.35441 0.0
C2402 C 0.48699 0.61019 0.38419 0.0
C2403 C 0.47866 0.60859 0.41584 0.0
C2404 C 0.46052 0.60576 0.41771 0.0
C2405 C 0.50616 0.61375 0.38228 0.0
C2406 C 0.51782 0.60215 0.39849 0.0
C2407 C 0.51296 0.62813 0.36358 0.0
C2408 C 0.50133 0.64146 0.34757 0.0
C2409 C 0.48872 0.65055 0.36699 0.0
C2410 C 0.47774 0.66301 0.35168 0.0
C2411 C 0.47934 0.66658 0.31702 0.0
C2412 C 0.49193 0.65773 0.29759 0.0
C2413 C 0.50293 0.64525 0.31276 0.0
H2414 H 0.47086 0.67625 0.30523 0.0
H2415 H 0.57825 0.55647 0.45498 0.0
H2416 H 0.38625 0.33883 0.05949 0.0
H2417 H 0.37855 0.30798 0.06775 0.0
H2418 H 0.36127 0.31948 0.16977 0.0
H2419 H 0.36927 0.35049 0.16182 0.0
H2420 H 0.3813 0.2904 0.16804 0.0
H2421 H 0.33139 0.31159 0.10696 0.0
H2422 H 0.31564 0.32697 0.06097 0.0
H2423 H 0.33774 0.29139 0.98771 0.0
H2424 H 0.35382 0.27594 0.03321 0.0
H2425 H 0.34398 0.20532 0.18892 0.0
H2426 H 0.34663 0.2373 0.18392 0.0
H2427 H 0.36721 0.23139 0.08243 0.0
H2428 H 0.36446 0.19939 0.08715 0.0
H2429 H 0.34313 0.25817 0.08686 0.0
H2430 H 0.39468 0.23861 0.14758 0.0
H2431 H 0.41054 0.22331 0.19352 0.0
H2432 H 0.38507 0.25605 0.26763 0.0
H2433 H 0.36886 0.2714 0.22212 0.0
C2434 C 0.38075 0.33483 0.08366 0.0
C2435 C 0.37832 0.34707 0.11 0.0
C2436 C 0.37627 0.3172 0.08828 0.0
C2437 C 0.36909 0.31147 0.11919 0.0
C2438 C 0.36672 0.32365 0.14565 0.0
C2439 C 0.37126 0.34134 0.14107 0.0
C2440 C 0.36462 0.29265 0.12401 0.0
C2441 C 0.37268 0.28343 0.15068 0.0
C2442 C 0.35365 0.28348 0.10094 0.0
C2443 C 0.34392 0.29269 0.07349 0.0
C2444 C 0.33299 0.30712 0.08101 0.0
C2445 C 0.32399 0.31584 0.05503 0.0
C2446 C 0.32572 0.31019 0.02143 0.0
C2447 C 0.33642 0.29577 0.01375 0.0
C2448 C 0.34547 0.28701 0.03963 0.0
C2449 C 0.34897 0.21084 0.16546 0.0
C2450 C 0.35411 0.19987 0.13847 0.0
C2451 C 0.35052 0.2291 0.1627 0.0
C2452 C 0.3573 0.23668 0.13295 0.0
C2453 C 0.36197 0.22578 0.10561 0.0
C2454 C 0.36044 0.20752 0.10838 0.0
C2455 C 0.35997 0.25595 0.1306 0.0
C2456 C 0.35159 0.26522 0.1044 0.0
C2457 C 0.37062 0.26518 0.15411 0.0
C2458 C 0.38041 0.25602 0.18148 0.0
C2459 C 0.39235 0.24245 0.17369 0.0
C2460 C 0.40143 0.23379 0.19965 0.0
C2461 C 0.39878 0.23867 0.23348 0.0
C2462 C 0.38709 0.25226 0.24142 0.0
C2463 C 0.37796 0.26096 0.21555 0.0
H2464 H 0.40582 0.23195 0.25354 0.0
H2465 H 0.31874 0.31696 0.00135 0.0
H2466 H 0.40106 0.61119 0.89839 0.0
H2467 H 0.43218 0.60283 0.90184 0.0
H2468 H 0.44418 0.63809 0.81917 0.0
H2469 H 0.41318 0.64639 0.81543 0.0
H2470 H 0.46057 0.60642 0.81171 0.0
H2471 H 0.45283 0.64996 0.89973 0.0
H2472 H 0.43911 0.66265 0.95095 0.0
H2473 H 0.45366 0.61686 0.00835 0.0
H2474 H 0.46727 0.60379 0.95731 0.0
H2475 H 0.55273 0.6179 0.82911 0.0
H2476 H 0.5208 0.6209 0.82426 0.0
H2477 H 0.51399 0.58772 0.91221 0.0
H2478 H 0.54594 0.58505 0.91769 0.0
H2479 H 0.49438 0.61599 0.91787 0.0
H2480 H 0.504 0.5732 0.83083 0.0
H2481 H 0.51779 0.56052 0.77968 0.0
H2482 H 0.49976 0.60439 0.72043 0.0
H2483 H 0.48607 0.61746 0.77134 0.0
C2484 C 0.41035 0.61713 0.88096 0.0
C2485 C 0.40472 0.62949 0.85674 0.0
C2486 C 0.4281 0.61238 0.88298 0.0
C2487 C 0.44049 0.61994 0.86089 0.0
C2488 C 0.43483 0.63208 0.83641 0.0
C2489 C 0.41713 0.63686 0.83442 0.0
C2490 C 0.45943 0.61547 0.86349 0.0
C2491 C 0.46802 0.60863 0.83481 0.0
C2492 C 0.46901 0.61794 0.89391 0.0
C2493 C 0.46089 0.62581 0.92462 0.0
C2494 C 0.45298 0.64253 0.9232 0.0
C2495 C 0.44525 0.64981 0.95221 0.0
C2496 C 0.44547 0.64055 0.98286 0.0
C2497 C 0.45347 0.62401 0.98458 0.0
C2498 C 0.4612 0.61666 0.95563 0.0
C2499 C 0.54442 0.61108 0.84716 0.0
C2500 C 0.55181 0.60125 0.87378 0.0
C2501 C 0.52616 0.61274 0.84429 0.0
C2502 C 0.51497 0.6044 0.86769 0.0
C2503 C 0.52236 0.59428 0.89388 0.0
C2504 C 0.54061 0.59272 0.89691 0.0
C2505 C 0.49563 0.60704 0.86596 0.0
C2506 C 0.48694 0.61357 0.89482 0.0
C2507 C 0.48596 0.60424 0.8357 0.0
C2508 C 0.49413 0.59638 0.80498 0.0
C2509 C 0.50308 0.58021 0.80695 0.0
C2510 C 0.51087 0.57294 0.77799 0.0
C2511 C 0.50968 0.58166 0.74684 0.0
C2512 C 0.50068 0.59765 0.74458 0.0
C2513 C 0.49289 0.60499 0.77347 0.0
H2514 H 0.51572 0.57601 0.72445 0.0
H2515 H 0.43948 0.6462 0.00529 0.0
H2516 H 0.14607 0.65471 0.62792 0.0
H2517 H 0.15158 0.68633 0.63359 0.0
H2518 H 0.09557 0.696 0.63492 0.0
H2519 H 0.09009 0.66458 0.62761 0.0
H2520 H 0.10971 0.71823 0.59537 0.0
H2521 H 0.12326 0.69861 0.70817 0.0
H2522 H 0.13809 0.68072 0.75187 0.0
H2523 H 0.18828 0.70058 0.71958 0.0
H2524 H 0.17376 0.71843 0.67537 0.0
H2525 H 0.11049 0.80599 0.65449 0.0
H2526 H 0.10754 0.77392 0.65492 0.0
H2527 H 0.16235 0.7686 0.62829 0.0
H2528 H 0.16539 0.80073 0.62753 0.0
H2529 H 0.15003 0.74457 0.68046 0.0
H2530 H 0.13505 0.7645 0.5676 0.0
H2531 H 0.11908 0.78309 0.52656 0.0
H2532 H 0.0698 0.76282 0.56292 0.0
H2533 H 0.08549 0.74428 0.60451 0.0
C2534 C 0.13497 0.66361 0.62966 0.0
C2535 C 0.11767 0.65724 0.62728 0.0
C2536 C 0.13811 0.68167 0.63309 0.0
C2537 C 0.12399 0.6936 0.63508 0.0
C2538 C 0.1067 0.68712 0.63333 0.0
C2539 C 0.10357 0.66915 0.62924 0.0
C2540 C 0.12708 0.71288 0.63747 0.0
C2541 C 0.11835 0.72393 0.61435 0.0
C2542 C 0.13867 0.72042 0.66166 0.0
C2543 C 0.14743 0.70971 0.68824 0.0
C2544 C 0.13747 0.69906 0.71022 0.0
C2545 C 0.14582 0.68894 0.73511 0.0
C2546 C 0.16412 0.68947 0.73844 0.0
C2547 C 0.17411 0.70016 0.71694 0.0
C2548 C 0.16582 0.71029 0.69198 0.0
C2549 C 0.12195 0.798 0.64902 0.0
C2550 C 0.13814 0.80584 0.64078 0.0
C2551 C 0.12024 0.7797 0.64925 0.0
C2552 C 0.1347 0.76896 0.64142 0.0
C2553 C 0.15105 0.77671 0.63442 0.0
C2554 C 0.15274 0.79503 0.63386 0.0
C2555 C 0.13245 0.74967 0.63879 0.0
C2556 C 0.14139 0.73871 0.66164 0.0
C2557 C 0.12087 0.74219 0.61471 0.0
C2558 C 0.11144 0.75312 0.58936 0.0
C2559 C 0.1208 0.7641 0.567 0.0
C2560 C 0.1118 0.77461 0.54361 0.0
C2561 C 0.09343 0.77417 0.54218 0.0
C2562 C 0.08403 0.76316 0.56407 0.0
C2563 C 0.09297 0.75264 0.58753 0.0
H2564 H 0.08649 0.78232 0.52408 0.0
H2565 H 0.17056 0.68163 0.75772 0.0
H2566 H 0.08051 0.34237 0.36425 0.0
H2567 H 0.04917 0.3485 0.37054 0.0
H2568 H 0.06112 0.4006 0.40752 0.0
H2569 H 0.09271 0.3944 0.40183 0.0
H2570 H 0.03368 0.38546 0.44253 0.0
H2571 H 0.05002 0.39499 0.32741 0.0
H2572 H 0.06393 0.38746 0.27288 0.0
H2573 H 0.02821 0.34415 0.26046 0.0
H2574 H 0.01451 0.351 0.3157 0.0
H2575 H 0.94501 0.41477 0.41188 0.0
H2576 H 0.97719 0.41227 0.41183 0.0
H2577 H 0.97307 0.3591 0.37417 0.0
H2578 H 0.94102 0.36156 0.37389 0.0
H2579 H 0.99711 0.37807 0.33908 0.0
H2580 H 0.98274 0.36723 0.45685 0.0
H2581 H 0.96957 0.37441 0.5124 0.0
H2582 H 0.00136 0.42101 0.51872 0.0
H2583 H 0.01456 0.41423 0.46296 0.0
C2584 C 0.0765 0.3551 0.37397 0.0
C2585 C 0.08903 0.36799 0.38221 0.0
C2586 C 0.05858 0.35859 0.37751 0.0
C2587 C 0.05282 0.37511 0.38893 0.0
C2588 C 0.06531 0.38779 0.39853 0.0
C2589 C 0.08331 0.38426 0.39517 0.0
C2590 C 0.03377 0.37928 0.38915 0.0
C2591 C 0.02571 0.38412 0.41982 0.0
C2592 C 0.02338 0.37739 0.35952 0.0
C2593 C 0.03132 0.37344 0.32589 0.0
C2594 C 0.04521 0.38377 0.31321 0.0
C2595 C 0.05306 0.37962 0.28213 0.0
C2596 C 0.04692 0.36537 0.26311 0.0
C2597 C 0.03294 0.35519 0.27521 0.0
C2598 C 0.02516 0.35918 0.30646 0.0
C2599 C 0.95099 0.40255 0.40369 0.0
C2600 C 0.94052 0.38835 0.3929 0.0
C2601 C 0.96935 0.40112 0.40378 0.0
C2602 C 0.9775 0.38546 0.3932 0.0
C2603 C 0.96704 0.37131 0.3824 0.0
C2604 C 0.94873 0.37271 0.38234 0.0
C2605 C 0.99693 0.38378 0.39264 0.0
C2606 C 0.00509 0.37951 0.36176 0.0
C2607 C 0.00738 0.38628 0.42202 0.0
C2608 C 0.99949 0.39033 0.45557 0.0
C2609 C 0.98681 0.37909 0.46996 0.0
C2610 C 0.97937 0.38307 0.50151 0.0
C2611 C 0.98458 0.39818 0.51903 0.0
C2612 C 0.99731 0.40932 0.50509 0.0
C2613 C 0.00478 0.40541 0.47352 0.0
H2614 H 0.9788 0.40124 0.54346 0.0
H2615 H 0.05297 0.3622 0.239 0.0
H2616 H 0.38125 0.64937 0.32452 0.0
H2617 H 0.37465 0.68072 0.3171 0.0
H2618 H 0.37425 0.68763 0.42586 0.0
H2619 H 0.38071 0.65638 0.43345 0.0
H2620 H 0.34685 0.70467 0.39534 0.0
H2621 H 0.40964 0.69943 0.38044 0.0
H2622 H 0.43678 0.68764 0.35459 0.0
H2623 H 0.42035 0.70656 0.25688 0.0
H2624 H 0.39298 0.71823 0.28206 0.0
H2625 H 0.35735 0.79687 0.41061 0.0
H2626 H 0.36131 0.76495 0.41323 0.0
H2627 H 0.36203 0.76248 0.30378 0.0
H2628 H 0.35821 0.79444 0.30097 0.0
H2629 H 0.38818 0.7429 0.33149 0.0
H2630 H 0.3261 0.74936 0.3464 0.0
H2631 H 0.29889 0.76115 0.37183 0.0
H2632 H 0.31367 0.73997 0.46879 0.0
H2633 H 0.34112 0.72825 0.44404 0.0
C2634 C 0.37966 0.65757 0.34682 0.0
C2635 C 0.38157 0.65047 0.37955 0.0
C2636 C 0.37596 0.67547 0.34255 0.0
C2637 C 0.37413 0.68651 0.37094 0.0
C2638 C 0.37562 0.67934 0.40363 0.0
C2639 C 0.37937 0.66149 0.4079 0.0
C2640 C 0.371 0.70563 0.36675 0.0
C2641 C 0.35596 0.71307 0.38166 0.0
C2642 C 0.38269 0.71648 0.34818 0.0
C2643 C 0.39918 0.70953 0.33307 0.0
C2644 C 0.41175 0.70094 0.35339 0.0
C2645 C 0.42718 0.6943 0.33887 0.0
C2646 C 0.43025 0.6963 0.3041 0.0
C2647 C 0.41793 0.70499 0.2838 0.0
C2648 C 0.40246 0.71163 0.29818 0.0
C2649 C 0.35832 0.78952 0.38711 0.0
C2650 C 0.35743 0.79813 0.35559 0.0
C2651 C 0.36051 0.77129 0.38864 0.0
C2652 C 0.36177 0.76133 0.35869 0.0
C2653 C 0.36105 0.76992 0.32718 0.0
C2654 C 0.35882 0.78816 0.32563 0.0
C2655 C 0.36411 0.74198 0.36034 0.0
C2656 C 0.379 0.73449 0.34498 0.0
C2657 C 0.35227 0.73109 0.37845 0.0
C2658 C 0.33575 0.73807 0.39342 0.0
C2659 C 0.32362 0.74733 0.37321 0.0
C2660 C 0.30814 0.75399 0.38749 0.0
C2661 C 0.30457 0.75135 0.42192 0.0
C2662 C 0.31646 0.74202 0.44213 0.0
C2663 C 0.33198 0.73535 0.42798 0.0
H2664 H 0.29258 0.75651 0.43293 0.0
H2665 H 0.44219 0.69116 0.29288 0.0
H2666 H 0.94798 0.62583 0.14935 0.0
H2667 H 0.97957 0.63203 0.14738 0.0
H2668 H 0.98321 0.60615 0.05013 0.0
H2669 H 0.9515 0.60008 0.05171 0.0
H2670 H 0.00918 0.59561 0.099 0.0
H2671 H 0.98527 0.6482 0.04952 0.0
H2672 H 0.96547 0.67389 0.047 0.0
H2673 H 0.98753 0.69375 0.13976 0.0
H2674 H 0.0073 0.66804 0.14313 0.0
H2675 H 0.09851 0.62115 0.07629 0.0
H2676 H 0.06706 0.61617 0.06641 0.0
H2677 H 0.05455 0.64998 0.15118 0.0
H2678 H 0.08581 0.65546 0.16031 0.0
H2679 H 0.03279 0.65646 0.10228 0.0
H2680 H 0.05402 0.60389 0.15652 0.0
H2681 H 0.07303 0.57784 0.16361 0.0
H2682 H 0.0554 0.55758 0.06766 0.0
H2683 H 0.03645 0.58365 0.0598 0.0
C2684 C 0.9555 0.6215 0.12751 0.0
C2685 C 0.94732 0.61248 0.10067 0.0
C2686 C 0.97351 0.6251 0.12638 0.0
C2687 C 0.98364 0.61962 0.09853 0.0
C2688 C 0.97555 0.6105 0.07179 0.0
C2689 C 0.95748 0.60709 0.0727 0.0
C2690 C 0.00277 0.62319 0.09782 0.0
C2691 C 0.01442 0.6089 0.09907 0.0
C2692 C 0.00944 0.64054 0.09881 0.0
C2693 C 0.99769 0.65612 0.09669 0.0
C2694 C 0.98581 0.65798 0.06952 0.0
C2695 C 0.97461 0.67256 0.06791 0.0
C2696 C 0.97524 0.68544 0.09321 0.0
C2697 C 0.98707 0.68377 0.12017 0.0
C2698 C 0.99829 0.6692 0.12192 0.0
C2699 C 0.08902 0.62755 0.09268 0.0
C2700 C 0.09459 0.63863 0.11914 0.0
C2701 C 0.07106 0.62465 0.08712 0.0
C2702 C 0.05842 0.63251 0.10835 0.0
C2703 C 0.06402 0.64379 0.13443 0.0
C2704 C 0.08191 0.64686 0.13971 0.0
C2705 C 0.03934 0.62886 0.104 0.0
C2706 C 0.02765 0.64315 0.10182 0.0
C2707 C 0.0326 0.61149 0.10273 0.0
C2708 C 0.04399 0.59582 0.10738 0.0
C2709 C 0.05431 0.59395 0.13681 0.0
C2710 C 0.06505 0.57917 0.14099 0.0
C2711 C 0.06547 0.56609 0.11605 0.0
C2712 C 0.0551 0.56774 0.08692 0.0
C2713 C 0.04435 0.58251 0.08259 0.0
H2714 H 0.07378 0.55465 0.11934 0.0
H2715 H 0.96658 0.69673 0.09189 0.0
H2716 H 0.14598 0.19935 0.91541 0.0
H2717 H 0.14334 0.23146 0.91531 0.0
H2718 H 0.15868 0.23272 0.80986 0.0
H2719 H 0.16123 0.20062 0.80968 0.0
H2720 H 0.16547 0.2593 0.90119 0.0
H2721 H 0.13186 0.26265 0.77029 0.0
H2722 H 0.11461 0.2436 0.73196 0.0
H2723 H 0.09547 0.21423 0.81748 0.0
H2724 H 0.1124 0.23325 0.85631 0.0
H2725 H 0.15262 0.3496 0.8545 0.0
H2726 H 0.16073 0.31839 0.85055 0.0
H2727 H 0.10735 0.3037 0.87478 0.0
H2728 H 0.09919 0.33471 0.8788 0.0
H2729 H 0.12081 0.28409 0.82259 0.0
H2730 H 0.13751 0.30277 0.93509 0.0
H2731 H 0.15299 0.32145 0.97667 0.0
H2732 H 0.20273 0.3062 0.93404 0.0
H2733 H 0.18751 0.28761 0.89184 0.0
C2734 C 0.14901 0.2065 0.89233 0.0
C2735 C 0.15364 0.19749 0.86246 0.0
C2736 C 0.14757 0.22483 0.89236 0.0
C2737 C 0.15063 0.23441 0.86249 0.0
C2738 C 0.15608 0.22552 0.83307 0.0
C2739 C 0.15754 0.2072 0.83303 0.0
C2740 C 0.14684 0.25352 0.8615 0.0
C2741 C 0.15582 0.26476 0.88383 0.0
C2742 C 0.13406 0.26057 0.83917 0.0
C2743 C 0.12356 0.24925 0.81613 0.0
C2744 C 0.12392 0.25216 0.78089 0.0
C2745 C 0.1142 0.24137 0.75909 0.0
C2746 C 0.104 0.22767 0.77227 0.0
C2747 C 0.10343 0.2248 0.80729 0.0
C2748 C 0.1131 0.23557 0.82921 0.0
C2749 C 0.14262 0.33969 0.85871 0.0
C2750 C 0.1253 0.34455 0.86707 0.0
C2751 C 0.14727 0.32191 0.85656 0.0
C2752 C 0.13465 0.30878 0.86259 0.0
C2753 C 0.11727 0.31364 0.87001 0.0
C2754 C 0.11265 0.33136 0.8724 0.0
C2755 C 0.1395 0.28991 0.86214 0.0
C2756 C 0.13069 0.27869 0.83955 0.0
C2757 C 0.1522 0.28287 0.88463 0.0
C2758 C 0.16137 0.29396 0.91008 0.0
C2759 C 0.15174 0.30351 0.9344 0.0
C2760 C 0.16046 0.31407 0.95811 0.0
C2761 C 0.17883 0.31506 0.95793 0.0
C2762 C 0.18851 0.30545 0.9341 0.0
C2763 C 0.17984 0.2949 0.91029 0.0
H2764 H 0.18556 0.32323 0.97632 0.0
H2765 H 0.09651 0.21932 0.75534 0.0
H2766 H 0.4 0.38161 0.58325 0.0
H2767 H 0.43119 0.38943 0.57804 0.0
H2768 H 0.44324 0.35717 0.66513 0.0
H2769 H 0.41217 0.34945 0.67067 0.0
H2770 H 0.45992 0.38876 0.66792 0.0
H2771 H 0.4512 0.34238 0.58548 0.0
H2772 H 0.437 0.32841 0.53603 0.0
H2773 H 0.45208 0.37207 0.47325 0.0
H2774 H 0.46617 0.38642 0.52246 0.0
H2775 H 0.55192 0.37835 0.65335 0.0
H2776 H 0.52012 0.37389 0.65709 0.0
H2777 H 0.51302 0.40289 0.56385 0.0
H2778 H 0.5449 0.40684 0.5594 0.0
H2779 H 0.49325 0.375 0.56284 0.0
H2780 H 0.5033 0.4209 0.64359 0.0
H2781 H 0.51731 0.43543 0.69262 0.0
H2782 H 0.4995 0.39392 0.75811 0.0
H2783 H 0.48559 0.37901 0.70938 0.0
C2784 C 0.40932 0.37622 0.60128 0.0
C2785 C 0.40369 0.36485 0.62725 0.0
C2786 C 0.42711 0.38065 0.59823 0.0
C2787 C 0.43954 0.37374 0.62103 0.0
C2788 C 0.43387 0.36263 0.64728 0.0
C2789 C 0.41613 0.35818 0.6503 0.0
C2790 C 0.45851 0.37788 0.6175 0.0
C2791 C 0.46727 0.38562 0.64508 0.0
C2792 C 0.46794 0.37423 0.58734 0.0
C2793 C 0.45957 0.36556 0.55772 0.0
C2794 C 0.45137 0.34906 0.56118 0.0
C2795 C 0.44336 0.34106 0.53319 0.0
C2796 C 0.44359 0.34937 0.50154 0.0
C2797 C 0.45188 0.36567 0.49779 0.0
C2798 C 0.45989 0.37373 0.52571 0.0
C2799 C 0.54356 0.3838 0.6337 0.0
C2800 C 0.55085 0.39299 0.60614 0.0
C2801 C 0.52538 0.38134 0.63596 0.0
C2802 C 0.51413 0.38832 0.61105 0.0
C2803 C 0.52143 0.39743 0.58341 0.0
C2804 C 0.53963 0.39971 0.58093 0.0
C2805 C 0.49479 0.38574 0.61343 0.0
C2806 C 0.48593 0.37829 0.58564 0.0
C2807 C 0.48524 0.38978 0.64334 0.0
C2808 C 0.49352 0.39876 0.67276 0.0
C2809 C 0.50247 0.41481 0.6684 0.0
C2810 C 0.51038 0.42312 0.69615 0.0
C2811 C 0.50933 0.41559 0.72845 0.0
C2812 C 0.50032 0.39974 0.73308 0.0
C2813 C 0.4924 0.39136 0.7054 0.0
H2814 H 0.51546 0.42204 0.7499 0.0
H2815 H 0.43739 0.34315 0.4799 0.0
H2816 H 0.14874 0.09787 0.4834 0.0
H2817 H 0.15647 0.09612 0.54358 0.0
H2818 H 0.10237 0.08451 0.56836 0.0
H2819 H 0.09452 0.08649 0.50832 0.0
H2820 H 0.11401 0.11137 0.60419 0.0
H2821 H 0.13436 0.05358 0.5796 0.0
H2822 H 0.15068 0.03054 0.54874 0.0
H2823 H 0.19958 0.05566 0.57393 0.0
H2824 H 0.18354 0.07901 0.60454 0.0
H2825 H 0.14606 0.09224 0.78109 0.0
H2826 H 0.1415 0.08055 0.72366 0.0
H2827 H 0.15937 0.12966 0.6811 0.0
H2828 H 0.1641 0.14138 0.73807 0.0
H2829 H 0.1635 0.07915 0.6582 0.0
H2830 H 0.12418 0.14228 0.63296 0.0
H2831 H 0.10754 0.16462 0.66524 0.0
H2832 H 0.09451 0.12602 0.7408 0.0
H2833 H 0.11082 0.10341 0.70867 0.0
C2834 C 0.13856 0.09465 0.50164 0.0
C2835 C 0.12101 0.09248 0.49128 0.0
C2836 C 0.14301 0.09354 0.53598 0.0
C2837 C 0.13 0.09011 0.56041 0.0
C2838 C 0.1126 0.08716 0.54989 0.0
C2839 C 0.10814 0.08832 0.51561 0.0
C2840 C 0.13412 0.09166 0.59701 0.0
C2841 C 0.1247 0.10413 0.61599 0.0
C2842 C 0.148 0.08216 0.61253 0.0
C2843 C 0.15772 0.06813 0.59418 0.0
C2844 C 0.14859 0.05428 0.57834 0.0
C2845 C 0.15779 0.04114 0.56093 0.0
C2846 C 0.17615 0.04165 0.55932 0.0
C2847 C 0.18535 0.05528 0.57518 0.0
C2848 C 0.17621 0.06846 0.59261 0.0
C2849 C 0.14946 0.10036 0.75945 0.0
C2850 C 0.15521 0.1178 0.76397 0.0
C2851 C 0.14693 0.09363 0.72676 0.0
C2852 C 0.14999 0.10433 0.6984 0.0
C2853 C 0.15693 0.12126 0.70284 0.0
C2854 C 0.15956 0.12794 0.73538 0.0
C2855 C 0.14362 0.09904 0.66457 0.0
C2856 C 0.15264 0.08606 0.64626 0.0
C2857 C 0.12919 0.10784 0.64964 0.0
C2858 C 0.11885 0.12121 0.66856 0.0
C2859 C 0.11767 0.13855 0.65635 0.0
C2860 C 0.10831 0.15126 0.67464 0.0
C2861 C 0.10002 0.14676 0.70511 0.0
C2862 C 0.10099 0.12951 0.71726 0.0
C2863 C 0.1103 0.11675 0.69904 0.0
H2864 H 0.09281 0.15662 0.71926 0.0
H2865 H 0.18325 0.03146 0.54583 0.0
H2866 H 0.12649 0.89325 0.73101 0.0
H2867 H 0.12925 0.90083 0.79085 0.0
H2868 H 0.17638 0.86929 0.79794 0.0
H2869 H 0.17338 0.86124 0.73792 0.0
H2870 H 0.15503 0.86179 0.84797 0.0
H2871 H 0.17817 0.91483 0.80351 0.0
H2872 H 0.1799 0.94093 0.76648 0.0
H2873 H 0.13133 0.96032 0.80787 0.0
H2874 H 0.12916 0.93422 0.84481 0.0
H2875 H 0.15746 0.88814 0.02174 0.0
H2876 H 0.16738 0.88627 0.96261 0.0
H2877 H 0.11841 0.90926 0.92931 0.0
H2878 H 0.10844 0.91118 0.98819 0.0
H2879 H 0.14772 0.92215 0.89408 0.0
H2880 H 0.12269 0.86596 0.92956 0.0
H2881 H 0.12107 0.83976 0.96639 0.0
H2882 H 0.1745 0.82663 0.94127 0.0
H2883 H 0.17649 0.85292 0.90463 0.0
C2884 C 0.13756 0.88807 0.74518 0.0
C2885 C 0.1497 0.87662 0.72987 0.0
C2886 C 0.13921 0.89253 0.77935 0.0
C2887 C 0.15319 0.88586 0.79878 0.0
C2888 C 0.16555 0.87466 0.78336 0.0
C2889 C 0.16383 0.87009 0.74913 0.0
C2890 C 0.15386 0.88944 0.83574 0.0
C2891 C 0.15392 0.87504 0.85805 0.0
C2892 C 0.15221 0.9067 0.84894 0.0
C2893 C 0.15347 0.9225 0.82685 0.0
C2894 C 0.16779 0.9246 0.80457 0.0
C2895 C 0.16886 0.93941 0.78361 0.0
C2896 C 0.15573 0.95226 0.78479 0.0
C2897 C 0.1415 0.95035 0.80699 0.0
C2898 C 0.14036 0.93557 0.82799 0.0
C2899 C 0.14892 0.893 0.00181 0.0
C2900 C 0.13212 0.89967 0.00945 0.0
C2901 C 0.1546 0.89191 0.96813 0.0
C2902 C 0.14356 0.89752 0.9417 0.0
C2903 C 0.12712 0.90491 0.94942 0.0
C2904 C 0.12141 0.9059 0.98301 0.0
C2905 C 0.14839 0.8945 0.90583 0.0
C2906 C 0.14933 0.90898 0.88386 0.0
C2907 C 0.15106 0.87734 0.89291 0.0
C2908 C 0.14981 0.8615 0.91473 0.0
C2909 C 0.13413 0.85756 0.93212 0.0
C2910 C 0.13314 0.84268 0.95292 0.0
C2911 C 0.14769 0.83157 0.95626 0.0
C2912 C 0.16325 0.83528 0.93872 0.0
C2913 C 0.16432 0.85015 0.91793 0.0
H2914 H 0.1469 0.82006 0.97237 0.0
H2915 H 0.15658 0.96371 0.76854 0.0
H2916 H 0.37931 0.9345 0.00559 0.0
H2917 H 0.36765 0.9368 0.06337 0.0
H2918 H 0.3368 0.88985 0.04703 0.0
H2919 H 0.34773 0.88804 0.98885 0.0
H2920 H 0.31991 0.91073 0.08906 0.0
H2921 H 0.37964 0.88852 0.07949 0.0
H2922 H 0.41091 0.89011 0.0629 0.0
H2923 H 0.41755 0.93639 0.12419 0.0
H2924 H 0.38623 0.93519 0.14079 0.0
H2925 H 0.32746 0.85867 0.2367 0.0
H2926 H 0.32644 0.8734 0.18163 0.0
H2927 H 0.34938 0.91995 0.22608 0.0
H2928 H 0.35042 0.90527 0.2814 0.0
H2929 H 0.36838 0.90683 0.17312 0.0
H2930 H 0.30881 0.92262 0.19353 0.0
H2931 H 0.27793 0.91806 0.21061 0.0
H2932 H 0.27117 0.88062 0.12999 0.0
H2933 H 0.30208 0.88474 0.11269 0.0
C2934 C 0.36972 0.92494 0.01415 0.0
C2935 C 0.36462 0.91092 0.99308 0.0
C2936 C 0.36309 0.92624 0.04712 0.0
C2937 C 0.35171 0.91323 0.0598 0.0
C2938 C 0.3456 0.90001 0.03786 0.0
C2939 C 0.35193 0.89892 0.00467 0.0
C2940 C 0.34797 0.91194 0.09665 0.0
C2941 C 0.33048 0.90991 0.10752 0.0
C2942 C 0.36175 0.91122 0.12083 0.0
C2943 C 0.38057 0.9119 0.11101 0.0
C2944 C 0.38775 0.8991 0.08924 0.0
C2945 C 0.40548 0.89992 0.07985 0.0
C2946 C 0.4162 0.91338 0.09239 0.0
C2947 C 0.40922 0.92601 0.11443 0.0
C2948 C 0.39149 0.92527 0.12383 0.0
C2949 C 0.33192 0.87218 0.2349 0.0
C2950 C 0.33919 0.88078 0.26317 0.0
C2951 C 0.33119 0.88064 0.2035 0.0
C2952 C 0.33775 0.8978 0.19987 0.0
C2953 C 0.34417 0.90674 0.22847 0.0
C2954 C 0.34478 0.89833 0.25998 0.0
C2955 C 0.34036 0.90514 0.16548 0.0
C2956 C 0.35772 0.90822 0.15498 0.0
C2957 C 0.32648 0.90643 0.1417 0.0
C2958 C 0.30783 0.90395 0.1519 0.0
C2959 C 0.30079 0.91332 0.17957 0.0
C2960 C 0.28326 0.91083 0.18927 0.0
C2961 C 0.2726 0.89904 0.17142 0.0
C2962 C 0.27944 0.88975 0.14378 0.0
C2963 C 0.29696 0.89218 0.13398 0.0
H2964 H 0.25904 0.89713 0.17897 0.0
H2965 H 0.42992 0.914 0.0851 0.0
H2966 H 0.40063 0.08791 0.48244 0.0
H2967 H 0.3883 0.08727 0.42548 0.0
H2968 H 0.3368 0.07662 0.46701 0.0
H2969 H 0.34907 0.07781 0.52454 0.0
H2970 H 0.37123 0.06637 0.38416 0.0
H2971 H 0.30707 0.10068 0.42132 0.0
H2972 H 0.29449 0.11826 0.46819 0.0
H2973 H 0.3459 0.13804 0.49259 0.0
H2974 H 0.35871 0.12074 0.44564 0.0
H2975 H 0.33863 0.09497 0.22354 0.0
H2976 H 0.33733 0.08077 0.27946 0.0
H2977 H 0.35021 0.13032 0.32708 0.0
H2978 H 0.35079 0.14456 0.27187 0.0
H2979 H 0.32786 0.11414 0.3648 0.0
H2980 H 0.38202 0.09774 0.30542 0.0
H2981 H 0.39874 0.08404 0.2586 0.0
H2982 H 0.37385 0.0344 0.27889 0.0
H2983 H 0.35685 0.04789 0.32562 0.0
C2984 C 0.38673 0.08514 0.47948 0.0
C2985 C 0.37574 0.08322 0.50789 0.0
C2986 C 0.3797 0.08464 0.44685 0.0
C2987 C 0.36158 0.08214 0.44199 0.0
C2988 C 0.35078 0.07882 0.47024 0.0
C2989 C 0.3578 0.07949 0.50304 0.0
C2990 C 0.35404 0.0853 0.40785 0.0
C2991 C 0.36148 0.07658 0.3799 0.0
C2992 C 0.34141 0.09869 0.40226 0.0
C2993 C 0.33384 0.10923 0.43036 0.0
C2994 C 0.31566 0.10879 0.43671 0.0
C2995 C 0.3085 0.11871 0.46325 0.0
C2996 C 0.3194 0.1292 0.48345 0.0
C2997 C 0.33748 0.12986 0.47703 0.0
C2998 C 0.3447 0.12 0.45047 0.0
C2999 C 0.34093 0.10282 0.24607 0.0
C3000 C 0.34496 0.12081 0.24344 0.0
C3001 C 0.34021 0.0947 0.27794 0.0
C3002 C 0.34388 0.10443 0.30745 0.0
C3003 C 0.34723 0.12254 0.30475 0.0
C3004 C 0.34768 0.13066 0.27311 0.0
C3005 C 0.34575 0.09587 0.34108 0.0
C3006 C 0.33709 0.10345 0.36896 0.0
C3007 C 0.3578 0.08194 0.34661 0.0
C3008 C 0.36802 0.07385 0.31864 0.0
C3009 C 0.38005 0.08393 0.29972 0.0
C3010 C 0.38958 0.0762 0.27324 0.0
C3011 C 0.38731 0.05837 0.2657 0.0
C3012 C 0.37555 0.04822 0.2847 0.0
C3013 C 0.36597 0.05589 0.31117 0.0
H3014 H 0.3947 0.05242 0.24519 0.0
H3015 H 0.31384 0.13685 0.504 0.0
H3016 H 0.87019 0.89993 0.22005 0.0
H3017 H 0.8699 0.91027 0.2789 0.0
H3018 H 0.83679 0.86654 0.30713 0.0
H3019 H 0.83698 0.85613 0.2483 0.0
H3020 H 0.82751 0.89838 0.3397 0.0
H3021 H 0.87892 0.86245 0.31806 0.0
H3022 H 0.90591 0.8542 0.28709 0.0
H3023 H 0.92868 0.90454 0.31001 0.0
H3024 H 0.90169 0.91318 0.34071 0.0
H3025 H 0.8482 0.88148 0.51248 0.0
H3026 H 0.84141 0.88237 0.45185 0.0
H3027 H 0.87951 0.92387 0.43802 0.0
H3028 H 0.88654 0.92286 0.49854 0.0
H3029 H 0.88578 0.8972 0.39654 0.0
H3030 H 0.83571 0.93158 0.42553 0.0
H3031 H 0.80873 0.93961 0.45665 0.0
H3032 H 0.78335 0.89264 0.42092 0.0
H3033 H 0.81028 0.88419 0.38996 0.0
C3034 C 0.86267 0.89265 0.23871 0.0
C3035 C 0.85377 0.87713 0.22976 0.0
C3036 C 0.8625 0.89858 0.27225 0.0
C3037 C 0.85343 0.88908 0.29728 0.0
C3038 C 0.84383 0.87406 0.28809 0.0
C3039 C 0.84405 0.86807 0.25457 0.0
C3040 C 0.85529 0.89381 0.33347 0.0
C3041 C 0.8402 0.89807 0.3523 0.0
C3042 C 0.87193 0.89377 0.3495 0.0
C3043 C 0.88822 0.88854 0.3313 0.0
C3044 C 0.88963 0.87181 0.31625 0.0
C3045 C 0.90493 0.86705 0.29879 0.0
C3046 C 0.91898 0.87886 0.29649 0.0
C3047 C 0.91777 0.89542 0.31175 0.0
C3048 C 0.90248 0.90026 0.32919 0.0
C3049 C 0.85485 0.89105 0.49664 0.0
C3050 C 0.86801 0.90198 0.5101 0.0
C3051 C 0.85089 0.89162 0.46203 0.0
C3052 C 0.85994 0.90322 0.44045 0.0
C3053 C 0.8724 0.91481 0.45425 0.0
C3054 C 0.87639 0.91422 0.48881 0.0
C3055 C 0.85796 0.90171 0.40318 0.0
C3056 C 0.87307 0.8979 0.38404 0.0
C3057 C 0.84133 0.90217 0.38702 0.0
C3058 C 0.82509 0.90718 0.40562 0.0
C3059 C 0.82443 0.92288 0.42453 0.0
C3060 C 0.80913 0.92753 0.4421 0.0
C3061 C 0.79434 0.91662 0.44082 0.0
C3062 C 0.79482 0.90107 0.42191 0.0
C3063 C 0.81009 0.89636 0.4043 0.0
H3064 H 0.78251 0.92025 0.45444 0.0
H3065 H 0.93082 0.87515 0.28296 0.0
H3066 H 0.84485 0.09791 0.96786 0.0
H3067 H 0.83239 0.0979 0.02527 0.0
H3068 H 0.88213 0.08016 0.06551 0.0
H3069 H 0.89465 0.08016 0.00837 0.0
H3070 H 0.85268 0.06517 0.09869 0.0
H3071 H 0.87478 0.12243 0.06187 0.0
H3072 H 0.87566 0.14778 0.02277 0.0
H3073 H 0.82064 0.15716 0.04 0.0
H3074 H 0.81939 0.13167 0.07881 0.0
H3075 H 0.86722 0.09966 0.26132 0.0
H3076 H 0.86622 0.08941 0.20272 0.0
H3077 H 0.81817 0.11859 0.18655 0.0
H3078 H 0.81952 0.12945 0.24502 0.0
H3079 H 0.83995 0.12575 0.13888 0.0
H3080 H 0.81949 0.07209 0.18584 0.0
H3081 H 0.81876 0.04677 0.22494 0.0
H3082 H 0.86959 0.03021 0.18955 0.0
H3083 H 0.87076 0.05557 0.15057 0.0
C3084 C 0.853 0.09366 0.98888 0.0
C3085 C 0.87078 0.08927 0.98382 0.0
C3086 C 0.84587 0.09363 0.02158 0.0
C3087 C 0.85641 0.08917 0.04954 0.0
C3088 C 0.87379 0.0836 0.0442 0.0
C3089 C 0.88095 0.08373 0.01161 0.0
C3090 C 0.85028 0.09241 0.08458 0.0
C3091 C 0.84983 0.07837 0.10765 0.0
C3092 C 0.84613 0.10959 0.09582 0.0
C3093 C 0.84694 0.12504 0.07287 0.0
C3094 C 0.86285 0.12983 0.05711 0.0
C3095 C 0.86342 0.14422 0.03503 0.0
C3096 C 0.8482 0.15404 0.02882 0.0
C3097 C 0.8324 0.14952 0.04477 0.0
C3098 C 0.83176 0.1351 0.0668 0.0
C3099 C 0.85628 0.10365 0.24544 0.0
C3100 C 0.8435 0.11542 0.25759 0.0
C3101 C 0.85563 0.09766 0.21199 0.0
C3102 C 0.84198 0.10303 0.19027 0.0
C3103 C 0.8288 0.11424 0.20285 0.0
C3104 C 0.82958 0.12043 0.23621 0.0
C3105 C 0.84266 0.09853 0.15363 0.0
C3106 C 0.84221 0.11241 0.1301 0.0
C3107 C 0.8459 0.08117 0.14207 0.0
C3108 C 0.84523 0.06581 0.16535 0.0
C3109 C 0.83056 0.06312 0.18653 0.0
C3110 C 0.83006 0.04874 0.20866 0.0
C3111 C 0.84412 0.0369 0.20975 0.0
C3112 C 0.8587 0.03939 0.18866 0.0
C3113 C 0.85927 0.05375 0.16649 0.0
H3114 H 0.84372 0.02579 0.22692 0.0
H3115 H 0.84866 0.16518 0.01172 0.0
H3116 H 0.67068 0.10687 0.7302 0.0
H3117 H 0.67271 0.09624 0.78892 0.0
H3118 H 0.6384 0.13833 0.82144 0.0
H3119 H 0.63694 0.1493 0.76347 0.0
H3120 H 0.66312 0.13486 0.86531 0.0
H3121 H 0.62374 0.09494 0.80626 0.0
H3122 H 0.61578 0.07341 0.76194 0.0
H3123 H 0.65705 0.039 0.7958 0.0
H3124 H 0.66536 0.06044 0.84011 0.0
H3125 H 0.60751 0.08547 0.99007 0.0
H3126 H 0.61912 0.08712 0.93255 0.0
H3127 H 0.67013 0.10146 0.97204 0.0
H3128 H 0.65838 0.10034 0.02993 0.0
H3129 H 0.64389 0.07412 0.8929 0.0
H3130 H 0.68588 0.13491 0.92357 0.0
H3131 H 0.68836 0.158 0.9675 0.0
H3132 H 0.63317 0.15324 0.98923 0.0
H3133 H 0.63035 0.13033 0.94516 0.0
C3134 C 0.66368 0.11385 0.75002 0.0
C3135 C 0.65362 0.12886 0.74239 0.0
C3136 C 0.66481 0.10777 0.78347 0.0
C3137 C 0.65561 0.11642 0.80955 0.0
C3138 C 0.64573 0.13151 0.80183 0.0
C3139 C 0.64482 0.13772 0.76864 0.0
C3140 C 0.65554 0.10965 0.84484 0.0
C3141 C 0.65917 0.12149 0.8713 0.0
C3142 C 0.65029 0.09225 0.85274 0.0
C3143 C 0.64531 0.07937 0.82616 0.0
C3144 C 0.63119 0.08284 0.80407 0.0
C3145 C 0.6266 0.07065 0.779 0.0
C3146 C 0.63594 0.05488 0.77598 0.0
C3147 C 0.64985 0.05124 0.79811 0.0
C3148 C 0.65451 0.0634 0.82321 0.0
C3149 C 0.62129 0.08863 0.98659 0.0
C3150 C 0.63196 0.09314 0.01437 0.0
C3151 C 0.62796 0.08944 0.95368 0.0
C3152 C 0.64541 0.09471 0.948 0.0
C3153 C 0.65655 0.09763 0.9759 0.0
C3154 C 0.64982 0.09699 0.00891 0.0
C3155 C 0.65089 0.09951 0.91315 0.0
C3156 C 0.64839 0.0873 0.88684 0.0
C3157 C 0.65646 0.11681 0.90525 0.0
C3158 C 0.65798 0.13075 0.93144 0.0
C3159 C 0.67429 0.13883 0.9377 0.0
C3160 C 0.67574 0.15188 0.9626 0.0
C3161 C 0.66094 0.15703 0.98123 0.0
C3162 C 0.64464 0.1492 0.97488 0.0
C3163 C 0.6431 0.13619 0.94995 0.0
H3164 H 0.6621 0.16712 0.0005 0.0
H3165 H 0.63237 0.04545 0.75656 0.0
H3166 H 0.6512 0.88974 0.47772 0.0
H3167 H 0.66117 0.88464 0.5361 0.0
H3168 H 0.61603 0.9129 0.57409 0.0
H3169 H 0.60595 0.91797 0.51608 0.0
H3170 H 0.66765 0.90519 0.59725 0.0
H3171 H 0.59645 0.88523 0.62986 0.0
H3172 H 0.56984 0.87456 0.6004 0.0
H3173 H 0.60197 0.85063 0.52344 0.0
H3174 H 0.62875 0.86088 0.55275 0.0
H3175 H 0.65208 0.89758 0.77506 0.0
H3176 H 0.65253 0.90447 0.71441 0.0
H3177 H 0.64765 0.84923 0.69073 0.0
H3178 H 0.64692 0.84228 0.75132 0.0
H3179 H 0.62403 0.86786 0.65747 0.0
H3180 H 0.68593 0.87114 0.67525 0.0
H3181 H 0.71345 0.88057 0.70295 0.0
H3182 H 0.70228 0.93436 0.67737 0.0
H3183 H 0.67455 0.92528 0.64993 0.0
C3184 C 0.64366 0.89526 0.49852 0.0
C3185 C 0.62765 0.90398 0.49249 0.0
C3186 C 0.64942 0.8924 0.53178 0.0
C3187 C 0.63918 0.89819 0.55921 0.0
C3188 C 0.624 0.90821 0.55312 0.0
C3189 C 0.61825 0.91105 0.52 0.0
C3190 C 0.64279 0.89175 0.59383 0.0
C3191 C 0.65818 0.89703 0.61056 0.0
C3192 C 0.6306 0.88069 0.61059 0.0
C3193 C 0.61458 0.87397 0.59335 0.0
C3194 C 0.59782 0.8776 0.60677 0.0
C3195 C 0.58272 0.87163 0.59008 0.0
C3196 C 0.58421 0.86197 0.56001 0.0
C3197 C 0.60082 0.85816 0.54667 0.0
C3198 C 0.61597 0.86405 0.5633 0.0
C3199 C 0.65128 0.8869 0.7569 0.0
C3200 C 0.64934 0.86941 0.76783 0.0
C3201 C 0.65167 0.89084 0.72228 0.0
C3202 C 0.65025 0.87734 0.6981 0.0
C3203 C 0.64877 0.85983 0.70902 0.0
C3204 C 0.64834 0.85588 0.7436 0.0
C3205 C 0.64876 0.88162 0.66158 0.0
C3206 C 0.63365 0.87592 0.64434 0.0
C3207 C 0.66139 0.892 0.64433 0.0
C3208 C 0.67807 0.89753 0.66077 0.0
C3209 C 0.68926 0.885 0.67577 0.0
C3210 C 0.70492 0.89028 0.69138 0.0
C3211 C 0.70959 0.90806 0.69198 0.0
C3212 C 0.69864 0.92059 0.6769 0.0
C3213 C 0.68296 0.91538 0.66128 0.0
H3214 H 0.72172 0.91212 0.70407 0.0
H3215 H 0.5725 0.8574 0.54709 0.0
H3216 H 0.60161 0.60033 0.01288 0.0
H3217 H 0.61395 0.60018 0.06995 0.0
H3218 H 0.66508 0.58732 0.02902 0.0
H3219 H 0.65282 0.58795 0.97145 0.0
H3220 H 0.62983 0.57788 0.11051 0.0
H3221 H 0.69591 0.60954 0.07609 0.0
H3222 H 0.70942 0.62721 0.03036 0.0
H3223 H 0.659 0.64951 0.00629 0.0
H3224 H 0.64526 0.63214 0.05211 0.0
H3225 H 0.66571 0.59868 0.27213 0.0
H3226 H 0.66616 0.58676 0.21421 0.0
H3227 H 0.65495 0.63852 0.1745 0.0
H3228 H 0.65507 0.65049 0.23173 0.0
H3229 H 0.67615 0.62238 0.13308 0.0
H3230 H 0.6219 0.60773 0.19319 0.0
H3231 H 0.60486 0.59383 0.23932 0.0
H3232 H 0.62595 0.54328 0.2122 0.0
H3233 H 0.64326 0.55696 0.16615 0.0
C3234 C 0.61544 0.59729 0.01602 0.0
C3235 C 0.62631 0.59438 0.98775 0.0
C3236 C 0.62247 0.59709 0.04868 0.0
C3237 C 0.64047 0.59391 0.05373 0.0
C3238 C 0.65119 0.59003 0.02565 0.0
C3239 C 0.64418 0.59038 0.99283 0.0
C3240 C 0.64801 0.59628 0.0881 0.0
C3241 C 0.64018 0.58738 0.11543 0.0
C3242 C 0.66143 0.60876 0.09456 0.0
C3243 C 0.66956 0.61936 0.06715 0.0
C3244 C 0.68774 0.61823 0.06103 0.0
C3245 C 0.69543 0.6282 0.03512 0.0
C3246 C 0.68506 0.63941 0.01534 0.0
C3247 C 0.667 0.64076 0.02153 0.0
C3248 C 0.65926 0.63085 0.04744 0.0
C3249 C 0.66367 0.60752 0.25092 0.0
C3250 C 0.66014 0.62546 0.25638 0.0
C3251 C 0.6639 0.6007 0.21791 0.0
C3252 C 0.66034 0.6117 0.19007 0.0
C3253 C 0.65778 0.62977 0.19553 0.0
C3254 C 0.65774 0.63659 0.22833 0.0
C3255 C 0.65747 0.6045 0.15554 0.0
C3256 C 0.66626 0.6124 0.12815 0.0
C3257 C 0.64447 0.59159 0.14906 0.0
C3258 C 0.63402 0.58337 0.17658 0.0
C3259 C 0.62297 0.59367 0.19724 0.0
C3260 C 0.61326 0.58583 0.22333 0.0
C3261 C 0.61437 0.56769 0.22876 0.0
C3262 C 0.62514 0.55734 0.20803 0.0
C3263 C 0.63491 0.56512 0.18194 0.0
H3264 H 0.60684 0.56165 0.24897 0.0
H3265 H 0.69104 0.6471 0.99528 0.0
H3266 H 0.60837 0.43257 0.49117 0.0
H3267 H 0.61733 0.43374 0.43148 0.0
H3268 H 0.65558 0.39281 0.44988 0.0
H3269 H 0.64729 0.39224 0.50969 0.0
H3270 H 0.66782 0.4138 0.40357 0.0
H3271 H 0.61249 0.38395 0.42248 0.0
H3272 H 0.58182 0.38141 0.44245 0.0
H3273 H 0.5665 0.42379 0.37667 0.0
H3274 H 0.59715 0.42672 0.35664 0.0
H3275 H 0.66533 0.36136 0.2539 0.0
H3276 H 0.66372 0.37418 0.31084 0.0
H3277 H 0.63469 0.41839 0.27108 0.0
H3278 H 0.63636 0.40573 0.21398 0.0
H3279 H 0.61828 0.40119 0.32519 0.0
H3280 H 0.67459 0.42572 0.2988 0.0
H3281 H 0.70534 0.42519 0.27879 0.0
H3282 H 0.71898 0.38915 0.35851 0.0
H3283 H 0.68826 0.38925 0.37872 0.0
C3284 C 0.61896 0.42413 0.48255 0.0
C3285 C 0.62698 0.41214 0.50483 0.0
C3286 C 0.62403 0.42476 0.44847 0.0
C3287 C 0.6368 0.41303 0.43602 0.0
C3288 C 0.64565 0.40193 0.45883 0.0
C3289 C 0.64085 0.40157 0.49301 0.0
C3290 C 0.63971 0.41088 0.39902 0.0
C3291 C 0.657 0.41103 0.38642 0.0
C3292 C 0.62556 0.4075 0.37651 0.0
C3293 C 0.60713 0.4057 0.3884 0.0
C3294 C 0.60259 0.3928 0.41245 0.0
C3295 C 0.58522 0.39128 0.42376 0.0
C3296 C 0.57223 0.40247 0.41092 0.0
C3297 C 0.57658 0.41516 0.38666 0.0
C3298 C 0.59395 0.41676 0.37532 0.0
C3299 C 0.65882 0.37393 0.25724 0.0
C3300 C 0.65089 0.38252 0.22963 0.0
C3301 C 0.65801 0.38128 0.28969 0.0
C3302 C 0.64919 0.39727 0.29501 0.0
C3303 C 0.64163 0.40608 0.26736 0.0
C3304 C 0.64259 0.39883 0.23483 0.0
C3305 C 0.64638 0.40381 0.32992 0.0
C3306 C 0.62907 0.40439 0.34215 0.0
C3307 C 0.66054 0.40744 0.35211 0.0
C3308 C 0.67907 0.40742 0.34014 0.0
C3309 C 0.68411 0.41758 0.31192 0.0
C3310 C 0.70155 0.41737 0.30056 0.0
C3311 C 0.7141 0.40712 0.31733 0.0
C3312 C 0.70924 0.39708 0.34554 0.0
C3313 C 0.69182 0.39723 0.35699 0.0
H3314 H 0.72759 0.40698 0.3085 0.0
H3315 H 0.55878 0.40127 0.4197 0.0
H3316 H 0.82392 0.36618 0.75363 0.0
H3317 H 0.82205 0.37689 0.69516 0.0
H3318 H 0.87047 0.40575 0.70908 0.0
H3319 H 0.87182 0.39584 0.76808 0.0
H3320 H 0.85023 0.42332 0.66782 0.0
H3321 H 0.86939 0.36296 0.67577 0.0
H3322 H 0.86713 0.33178 0.69263 0.0
H3323 H 0.8193 0.32665 0.63541 0.0
H3324 H 0.82117 0.35788 0.61857 0.0
H3325 H 0.89111 0.4147 0.50552 0.0
H3326 H 0.88158 0.41548 0.56481 0.0
H3327 H 0.83081 0.39505 0.53564 0.0
H3328 H 0.84025 0.39426 0.47625 0.0
H3329 H 0.84782 0.3749 0.58338 0.0
H3330 H 0.83322 0.43556 0.56756 0.0
H3331 H 0.83837 0.46625 0.54992 0.0
H3332 H 0.88116 0.47033 0.62066 0.0
H3333 H 0.87645 0.43957 0.6384 0.0
C3334 C 0.83396 0.37508 0.74432 0.0
C3335 C 0.84814 0.38002 0.76507 0.0
C3336 C 0.83292 0.38115 0.71094 0.0
C3337 C 0.84637 0.39174 0.69746 0.0
C3338 C 0.85997 0.39754 0.71886 0.0
C3339 C 0.86078 0.39182 0.75251 0.0
C3340 C 0.84725 0.39536 0.6605 0.0
C3341 C 0.84976 0.41274 0.64933 0.0
C3342 C 0.84641 0.38159 0.63631 0.0
C3343 C 0.8453 0.36279 0.64626 0.0
C3344 C 0.85833 0.3552 0.66698 0.0
C3345 C 0.85713 0.33752 0.67651 0.0
C3346 C 0.84305 0.32725 0.66519 0.0
C3347 C 0.83017 0.33463 0.64422 0.0
C3348 C 0.8313 0.35232 0.63468 0.0
C3349 C 0.87779 0.41074 0.51165 0.0
C3350 C 0.86647 0.40426 0.48638 0.0
C3351 C 0.87233 0.4113 0.54549 0.0
C3352 C 0.85547 0.40537 0.55452 0.0
C3353 C 0.84385 0.39973 0.52909 0.0
C3354 C 0.84926 0.39928 0.49523 0.0
C3355 C 0.85096 0.40281 0.59069 0.0
C3356 C 0.8479 0.38556 0.60175 0.0
C3357 C 0.85171 0.41665 0.61466 0.0
C3358 C 0.85454 0.43519 0.60416 0.0
C3359 C 0.84381 0.44295 0.57918 0.0
C3360 C 0.84664 0.46037 0.56919 0.0
C3361 C 0.8601 0.47023 0.58412 0.0
C3362 C 0.87074 0.46268 0.60912 0.0
C3363 C 0.86798 0.44526 0.61919 0.0
H3364 H 0.86227 0.48371 0.57635 0.0
H3365 H 0.84214 0.31357 0.67259 0.0
H3366 H 0.88731 0.56655 0.00152 0.0
H3367 H 0.87714 0.5642 0.94277 0.0
H3368 H 0.83862 0.60483 0.96157 0.0
H3369 H 0.84819 0.60661 0.02071 0.0
H3370 H 0.82634 0.58276 0.91539 0.0
H3371 H 0.88038 0.61473 0.93304 0.0
H3372 H 0.91088 0.61873 0.95306 0.0
H3373 H 0.92806 0.57638 0.88885 0.0
H3374 H 0.89759 0.57197 0.86881 0.0
H3375 H 0.82868 0.63388 0.76339 0.0
H3376 H 0.82911 0.62107 0.82038 0.0
H3377 H 0.86007 0.57752 0.78325 0.0
H3378 H 0.85958 0.59018 0.72613 0.0
H3379 H 0.87546 0.59604 0.83638 0.0
H3380 H 0.82021 0.56915 0.81101 0.0
H3381 H 0.7895 0.56818 0.79089 0.0
H3382 H 0.77427 0.60459 0.86896 0.0
H3383 H 0.80494 0.60599 0.88926 0.0
C3384 C 0.87636 0.57463 0.99329 0.0
C3385 C 0.86871 0.58696 0.01536 0.0
C3386 C 0.87059 0.57331 0.95976 0.0
C3387 C 0.85746 0.58469 0.94757 0.0
C3388 C 0.84883 0.59598 0.97037 0.0
C3389 C 0.85435 0.59704 0.00412 0.0
C3390 C 0.85434 0.58654 0.9106 0.0
C3391 C 0.83705 0.58567 0.89807 0.0
C3392 C 0.86836 0.59018 0.88794 0.0
C3393 C 0.8867 0.59288 0.89977 0.0
C3394 C 0.89065 0.6062 0.92337 0.0
C3395 C 0.90793 0.60855 0.9347 0.0
C3396 C 0.92139 0.59778 0.92232 0.0
C3397 C 0.91761 0.58468 0.89849 0.0
C3398 C 0.90034 0.58225 0.88714 0.0
C3399 C 0.83526 0.6214 0.76725 0.0
C3400 C 0.84423 0.61309 0.74047 0.0
C3401 C 0.8354 0.61404 0.79973 0.0
C3402 C 0.84456 0.59833 0.8059 0.0
C3403 C 0.85286 0.58962 0.77888 0.0
C3404 C 0.85258 0.59687 0.74633 0.0
C3405 C 0.84747 0.59238 0.84116 0.0
C3406 C 0.86476 0.59266 0.85346 0.0
C3407 C 0.83342 0.58861 0.86355 0.0
C3408 C 0.81492 0.58776 0.85152 0.0
C3409 C 0.81034 0.57706 0.82373 0.0
C3410 C 0.79293 0.57641 0.81233 0.0
C3411 C 0.77995 0.58634 0.8286 0.0
C3412 C 0.78434 0.59691 0.85637 0.0
C3413 C 0.80174 0.59761 0.86787 0.0
H3414 H 0.76648 0.58582 0.81973 0.0
H3415 H 0.93476 0.59961 0.93111 0.0
H3416 H 0.34328 0.40184 0.71161 0.0
H3417 H 0.34553 0.41592 0.76758 0.0
H3418 H 0.3477 0.36485 0.81508 0.0
H3419 H 0.34531 0.35071 0.75961 0.0
H3420 H 0.32589 0.4113 0.83435 0.0
H3421 H 0.38554 0.36688 0.86203 0.0
H3422 H 0.40877 0.35113 0.83044 0.0
H3423 H 0.40582 0.38935 0.75034 0.0
H3424 H 0.38282 0.40548 0.78174 0.0
H3425 H 0.34725 0.39859 0.0079 0.0
H3426 H 0.33861 0.39917 0.94819 0.0
H3427 H 0.38572 0.42823 0.92366 0.0
H3428 H 0.3946 0.42739 0.98328 0.0
H3429 H 0.38387 0.39939 0.88765 0.0
H3430 H 0.34472 0.44644 0.91159 0.0
H3431 H 0.32151 0.4626 0.94231 0.0
H3432 H 0.28429 0.42194 0.91847 0.0
H3433 H 0.30733 0.40539 0.88801 0.0
C3434 C 0.34388 0.39364 0.73408 0.0
C3435 C 0.34432 0.37519 0.7313 0.0
C3436 C 0.34507 0.4017 0.76594 0.0
C3437 C 0.34689 0.39138 0.79521 0.0
C3438 C 0.34633 0.37299 0.79263 0.0
C3439 C 0.34501 0.36495 0.76094 0.0
C3440 C 0.35142 0.3995 0.82807 0.0
C3441 C 0.33857 0.40888 0.84609 0.0
C3442 C 0.36814 0.39663 0.84273 0.0
C3443 C 0.38235 0.38729 0.82412 0.0
C3444 C 0.38993 0.37198 0.83778 0.0
C3445 C 0.40305 0.36298 0.8199 0.0
C3446 C 0.40873 0.36921 0.78836 0.0
C3447 C 0.40137 0.38451 0.77472 0.0
C3448 C 0.38828 0.39357 0.79254 0.0
C3449 C 0.35554 0.40549 0.98992 0.0
C3450 C 0.3717 0.41274 0.0001 0.0
C3451 C 0.35053 0.40592 0.95581 0.0
C3452 C 0.36152 0.41376 0.93146 0.0
C3453 C 0.37707 0.42208 0.94204 0.0
C3454 C 0.38212 0.42158 0.97609 0.0
C3455 C 0.35816 0.41089 0.89483 0.0
C3456 C 0.37127 0.40228 0.87596 0.0
C3457 C 0.34175 0.4147 0.87944 0.0
C3458 C 0.3278 0.42462 0.89765 0.0
C3459 C 0.33162 0.44087 0.91309 0.0
C3460 C 0.31848 0.45012 0.93043 0.0
C3461 C 0.30144 0.44329 0.93238 0.0
C3462 C 0.29749 0.42721 0.91693 0.0
C3463 C 0.31058 0.41791 0.89957 0.0
H3464 H 0.29129 0.45047 0.94582 0.0
H3465 H 0.41886 0.36221 0.77452 0.0
H3466 H 0.33176 0.64509 0.73248 0.0
H3467 H 0.33182 0.63362 0.67456 0.0
H3468 H 0.35263 0.58422 0.71077 0.0
H3469 H 0.35236 0.59556 0.76896 0.0
H3470 H 0.36147 0.62523 0.64299 0.0
H3471 H 0.34179 0.55157 0.65305 0.0
H3472 H 0.32151 0.53286 0.68602 0.0
H3473 H 0.28756 0.57718 0.70308 0.0
H3474 H 0.3075 0.5961 0.66982 0.0
H3475 H 0.3985 0.57907 0.51079 0.0
H3476 H 0.38689 0.58073 0.56851 0.0
H3477 H 0.33491 0.59063 0.52904 0.0
H3478 H 0.34645 0.58915 0.47099 0.0
H3479 H 0.3382 0.56925 0.59587 0.0
H3480 H 0.35313 0.62453 0.53992 0.0
H3481 H 0.37293 0.64306 0.50549 0.0
H3482 H 0.4138 0.63696 0.57988 0.0
H3483 H 0.39432 0.61809 0.61441 0.0
C3484 C 0.33601 0.63166 0.7282 0.0
C3485 C 0.34224 0.62127 0.75512 0.0
C3486 C 0.33602 0.62513 0.69512 0.0
C3487 C 0.34224 0.60809 0.68838 0.0
C3488 C 0.34758 0.59733 0.71546 0.0
C3489 C 0.34751 0.60386 0.74865 0.0
C3490 C 0.34524 0.6025 0.65286 0.0
C3491 C 0.35621 0.61306 0.63273 0.0
C3492 C 0.33844 0.5866 0.63943 0.0
C3493 C 0.32624 0.57529 0.65918 0.0
C3494 C 0.32996 0.55731 0.66371 0.0
C3495 C 0.31853 0.54667 0.68247 0.0
C3496 C 0.30328 0.55384 0.69672 0.0
C3497 C 0.29941 0.57166 0.69215 0.0
C3498 C 0.31079 0.58235 0.67339 0.0
C3499 C 0.38451 0.58106 0.51431 0.0
C3500 C 0.37342 0.58432 0.48648 0.0
C3501 C 0.37789 0.58191 0.54729 0.0
C3502 C 0.36011 0.58592 0.55283 0.0
C3503 C 0.34865 0.58743 0.5251 0.0
C3504 C 0.3553 0.58672 0.49203 0.0
C3505 C 0.35446 0.59193 0.5867 0.0
C3506 C 0.3432 0.58147 0.60635 0.0
C3507 C 0.36078 0.60805 0.59978 0.0
C3508 C 0.37234 0.61978 0.57956 0.0
C3509 C 0.36638 0.62704 0.5488 0.0
C3510 C 0.37754 0.63761 0.52928 0.0
C3511 C 0.39463 0.64116 0.54045 0.0
C3512 C 0.40057 0.63419 0.57123 0.0
C3513 C 0.38947 0.62356 0.59079 0.0
H3514 H 0.40325 0.64933 0.5253 0.0
H3515 H 0.29445 0.54558 0.71125 0.0
H3516 H 0.10236 0.59025 0.48962 0.0
H3517 H 0.11286 0.59007 0.43098 0.0
H3518 H 0.16355 0.60894 0.46425 0.0
H3519 H 0.1531 0.60918 0.52313 0.0
H3520 H 0.14943 0.62872 0.41311 0.0
H3521 H 0.16014 0.56784 0.43461 0.0
H3522 H 0.15301 0.53785 0.4541 0.0
H3523 H 0.11166 0.53442 0.38011 0.0
H3524 H 0.11836 0.5645 0.36048 0.0
H3525 H 0.17858 0.63145 0.24493 0.0
H3526 H 0.17824 0.62157 0.30402 0.0
H3527 H 0.1273 0.59783 0.28824 0.0
H3528 H 0.12787 0.60711 0.22881 0.0
H3529 H 0.14601 0.57876 0.33216 0.0
H3530 H 0.13134 0.64017 0.31779 0.0
H3531 H 0.13651 0.67062 0.29852 0.0
H3532 H 0.18314 0.67342 0.3599 0.0
H3533 H 0.17836 0.64288 0.37917 0.0
C3534 C 0.1158 0.59418 0.48449 0.0
C3535 C 0.1269 0.59982 0.51085 0.0
C3536 C 0.12182 0.59394 0.45103 0.0
C3537 C 0.13903 0.59933 0.44337 0.0
C3538 C 0.15026 0.60464 0.46973 0.0
C3539 C 0.14427 0.60478 0.50328 0.0
C3540 C 0.14465 0.60093 0.40756 0.0
C3541 C 0.14912 0.61771 0.39556 0.0
C3542 C 0.14372 0.58664 0.3846 0.0
C3543 C 0.13969 0.56849 0.39622 0.0
C3544 C 0.14944 0.56075 0.42266 0.0
C3545 C 0.14549 0.54372 0.4337 0.0
C3546 C 0.13187 0.53425 0.41839 0.0
C3547 C 0.1222 0.54178 0.39195 0.0
C3548 C 0.12609 0.55881 0.38082 0.0
C3549 C 0.16749 0.62379 0.25392 0.0
C3550 C 0.15313 0.62025 0.23254 0.0
C3551 C 0.1673 0.61819 0.28765 0.0
C3552 C 0.15256 0.60934 0.3007 0.0
C3553 C 0.13877 0.6047 0.27872 0.0
C3554 C 0.13909 0.61006 0.24481 0.0
C3555 C 0.1506 0.60658 0.33774 0.0
C3556 C 0.14671 0.58966 0.3499 0.0
C3557 C 0.1518 0.62079 0.36092 0.0
C3558 C 0.15461 0.63919 0.34959 0.0
C3559 C 0.14276 0.64725 0.32699 0.0
C3560 C 0.14561 0.66452 0.31609 0.0
C3561 C 0.16018 0.67393 0.3279 0.0
C3562 C 0.17189 0.6661 0.35072 0.0
C3563 C 0.16911 0.64882 0.36164 0.0
H3564 H 0.16237 0.6873 0.31943 0.0
H3565 H 0.12883 0.52107 0.42699 0.0
H3566 H 0.13169 0.4041 0.2769 0.0
H3567 H 0.13064 0.41491 0.21822 0.0
H3568 H 0.15402 0.3664 0.18337 0.0
H3569 H 0.15517 0.3556 0.24167 0.0
H3570 H 0.16832 0.39524 0.15194 0.0
H3571 H 0.11011 0.37271 0.18034 0.0
H3572 H 0.08199 0.37153 0.21151 0.0
H3573 H 0.07169 0.42548 0.18581 0.0
H3574 H 0.09992 0.42706 0.15494 0.0
H3575 H 0.14335 0.37935 0.98358 0.0
H3576 H 0.14973 0.3804 0.04419 0.0
H3577 H 0.11964 0.42838 0.05324 0.0
H3578 H 0.11273 0.42706 0.99256 0.0
H3579 H 0.10999 0.40647 0.09978 0.0
H3580 H 0.16543 0.4278 0.06343 0.0
H3581 H 0.19268 0.4289 0.02951 0.0
H3582 H 0.20823 0.37853 0.06873 0.0
H3583 H 0.18095 0.37699 0.10253 0.0
C3584 C 0.13673 0.39583 0.25671 0.0
C3585 C 0.14343 0.37897 0.26377 0.0
C3586 C 0.13609 0.402 0.22327 0.0
C3587 C 0.14215 0.3914 0.1965 0.0
C3588 C 0.14932 0.3748 0.20369 0.0
C3589 C 0.14989 0.36861 0.23699 0.0
C3590 C 0.14041 0.39706 0.16071 0.0
C3591 C 0.15559 0.39769 0.14043 0.0
C3592 C 0.12385 0.40088 0.14608 0.0
C3593 C 0.10722 0.40007 0.16573 0.0
C3594 C 0.10197 0.38439 0.18174 0.0
C3595 C 0.08598 0.38364 0.19926 0.0
C3596 C 0.07506 0.39843 0.20063 0.0
C3597 C 0.08017 0.41404 0.18474 0.0
C3598 C 0.09616 0.41488 0.16727 0.0
C3599 C 0.13829 0.39026 0.99838 0.0
C3600 C 0.12749 0.40309 0.98343 0.0
C3601 C 0.14207 0.39093 0.03301 0.0
C3602 C 0.13538 0.40461 0.05324 0.0
C3603 C 0.12499 0.41774 0.03811 0.0
C3604 C 0.12106 0.41697 0.00348 0.0
C3605 C 0.13786 0.40417 0.09058 0.0
C3606 C 0.12282 0.4045 0.11126 0.0
C3607 C 0.15456 0.40136 0.10555 0.0
C3608 C 0.17107 0.40225 0.08541 0.0
C3609 C 0.1746 0.4169 0.06467 0.0
C3610 C 0.19007 0.41761 0.04548 0.0
C3611 C 0.20217 0.40379 0.04693 0.0
C3612 C 0.19885 0.38923 0.06764 0.0
C3613 C 0.1834 0.38845 0.08687 0.0
H3614 H 0.21413 0.40436 0.03205 0.0
H3615 H 0.06258 0.39778 0.21382 0.0
loop_
_geom_bond_atom_site_label_1
_geom_bond_atom_site_label_2
_geom_bond_distance
_geom_bond_site_symmetry_2
_ccdc_geom_bond_type
In0 O1 2.294 . S
In0 O2 2.326 . S
In0 O6 2.266 . S
In0 O7 2.326 . S
In0 O8 2.266 . S
In0 O9 2.326 . S
In0 O11 2.294 . S
In0 O12 2.326 . S
O1 In0 2.294 . S
O1 C10 1.240 . S
O2 In0 2.326 . S
O2 C10 1.252 . S
C3 O6 1.252 . S
C3 O7 1.260 . S
C4 O11 1.240 . S
C4 O12 1.252 . S
C5 O8 1.252 . S
C5 O9 1.260 . S
O6 In0 2.266 . S
O6 C3 1.252 . S
O7 In0 2.326 . S
O7 C3 1.260 . S
O8 In0 2.266 . S
O8 C5 1.252 . S
O9 In0 2.326 . S
O9 C5 1.260 . S
C10 O1 1.240 . S
C10 O2 1.252 . S
O11 In0 2.294 . S
O11 C4 1.240 . S
O12 In0 2.326 . S
O12 C4 1.252 . S
In13 O14 2.294 . S
In13 O15 2.326 . S
In13 O19 2.266 . S
In13 O20 2.326 . S
In13 O21 2.266 . S
In13 O22 2.326 . S
In13 O24 2.294 . S
In13 O25 2.326 . S
O14 In13 2.294 . S
O14 C23 1.240 . S
O15 In13 2.326 . S
O15 C23 1.252 . S
C16 O19 1.252 . S
C16 O20 1.260 . S
C17 O24 1.240 . S
C17 O25 1.252 . S
C18 O21 1.252 . S
C18 O22 1.260 . S
O19 In13 2.266 . S
O19 C16 1.252 . S
O20 In13 2.326 . S
O20 C16 1.260 . S
O21 In13 2.266 . S
O21 C18 1.252 . S
O22 In13 2.326 . S
O22 C18 1.260 . S
C23 O14 1.240 . S
C23 O15 1.252 . S
O24 In13 2.294 . S
O24 C17 1.240 . S
O25 In13 2.326 . S
O25 C17 1.252 . S
In26 O27 2.294 . S
In26 O28 2.326 . S
In26 O32 2.266 . S
In26 O33 2.326 . S
In26 O34 2.266 . S
In26 O35 2.326 . S
In26 O37 2.294 . S
In26 O38 2.326 . S
O27 In26 2.294 . S
O27 C36 1.240 . S
O28 In26 2.326 . S
O28 C36 1.252 . S
C29 O32 1.252 . S
C29 O33 1.260 . S
C30 O37 1.240 . S
C30 O38 1.252 . S
C31 O34 1.252 . S
C31 O35 1.260 . S
O32 In26 2.266 . S
O32 C29 1.252 . S
O33 In26 2.326 . S
O33 C29 1.260 . S
O34 In26 2.266 . S
O34 C31 1.252 . S
O35 In26 2.326 . S
O35 C31 1.260 . S
C36 O27 1.240 . S
C36 O28 1.252 . S
O37 In26 2.294 . S
O37 C30 1.240 . S
O38 In26 2.326 . S
O38 C30 1.252 . S
In39 O40 2.294 . S
In39 O41 2.326 . S
In39 O45 2.266 . S
In39 O46 2.326 . S
In39 O47 2.266 . S
In39 O48 2.326 . S
In39 O50 2.294 . S
In39 O51 2.326 . S
O40 In39 2.294 . S
O40 C49 1.240 . S
O41 In39 2.326 . S
O41 C49 1.252 . S
C42 O45 1.252 . S
C42 O46 1.260 . S
C43 O50 1.240 . S
C43 O51 1.252 . S
C44 O47 1.252 . S
C44 O48 1.260 . S
O45 In39 2.266 . S
O45 C42 1.252 . S
O46 In39 2.326 . S
O46 C42 1.260 . S
O47 In39 2.266 . S
O47 C44 1.252 . S
O48 In39 2.326 . S
O48 C44 1.260 . S
C49 O40 1.240 . S
C49 O41 1.252 . S
O50 In39 2.294 . S
O50 C43 1.240 . S
O51 In39 2.326 . S
O51 C43 1.252 . S
In52 O53 2.294 . S
In52 O54 2.326 . S
In52 O58 2.266 . S
In52 O59 2.326 . S
In52 O60 2.266 . S
In52 O61 2.326 . S
In52 O63 2.294 . S
In52 O64 2.326 . S
O53 In52 2.294 . S
O53 C62 1.240 . S
O54 In52 2.326 . S
O54 C62 1.252 . S
C55 O58 1.252 . S
C55 O59 1.260 . S
C56 O63 1.240 . S
C56 O64 1.252 . S
C57 O60 1.252 . S
C57 O61 1.260 . S
O58 In52 2.266 . S
O58 C55 1.252 . S
O59 In52 2.326 . S
O59 C55 1.260 . S
O60 In52 2.266 . S
O60 C57 1.252 . S
O61 In52 2.326 . S
O61 C57 1.260 . S
C62 O53 1.240 . S
C62 O54 1.252 . S
O63 In52 2.294 . S
O63 C56 1.240 . S
O64 In52 2.326 . S
O64 C56 1.252 . S
In65 O66 2.294 . S
In65 O67 2.326 . S
In65 O71 2.266 . S
In65 O72 2.326 . S
In65 O73 2.266 . S
In65 O74 2.326 . S
In65 O76 2.294 . S
In65 O77 2.326 . S
O66 In65 2.294 . S
O66 C75 1.240 . S
O67 In65 2.326 . S
O67 C75 1.252 . S
C68 O71 1.252 . S
C68 O72 1.260 . S
C69 O76 1.240 . S
C69 O77 1.252 . S
C70 O73 1.252 . S
C70 O74 1.260 . S
O71 In65 2.266 . S
O71 C68 1.252 . S
O72 In65 2.326 . S
O72 C68 1.260 . S
O73 In65 2.266 . S
O73 C70 1.252 . S
O74 In65 2.326 . S
O74 C70 1.260 . S
C75 O66 1.240 . S
C75 O67 1.252 . S
O76 In65 2.294 . S
O76 C69 1.240 . S
O77 In65 2.326 . S
O77 C69 1.252 . S
In78 O79 2.294 . S
In78 O80 2.326 . S
In78 O84 2.266 . S
In78 O85 2.326 . S
In78 O86 2.266 . S
In78 O87 2.326 . S
In78 O89 2.294 . S
In78 O90 2.326 . S
O79 In78 2.294 . S
O79 C88 1.240 . S
O80 In78 2.326 . S
O80 C88 1.252 . S
C81 O84 1.252 . S
C81 O85 1.260 . S
C82 O89 1.240 . S
C82 O90 1.252 . S
C83 O86 1.252 . S
C83 O87 1.260 . S
O84 In78 2.266 . S
O84 C81 1.252 . S
O85 In78 2.326 . S
O85 C81 1.260 . S
O86 In78 2.266 . S
O86 C83 1.252 . S
O87 In78 2.326 . S
O87 C83 1.260 . S
C88 O79 1.240 . S
C88 O80 1.252 . S
O89 In78 2.294 . S
O89 C82 1.240 . S
O90 In78 2.326 . S
O90 C82 1.252 . S
In91 O92 2.294 . S
In91 O93 2.326 . S
In91 O97 2.266 . S
In91 O98 2.326 . S
In91 O99 2.266 . S
In91 O100 2.326 . S
In91 O102 2.294 . S
In91 O103 2.326 . S
O92 In91 2.294 . S
O92 C101 1.240 . S
O93 In91 2.326 . S
O93 C101 1.252 . S
C94 O97 1.252 . S
C94 O98 1.260 . S
C95 O102 1.240 . S
C95 O103 1.252 . S
C96 O99 1.252 . S
C96 O100 1.260 . S
O97 In91 2.266 . S
O97 C94 1.252 . S
O98 In91 2.326 . S
O98 C94 1.260 . S
O99 In91 2.266 . S
O99 C96 1.252 . S
O100 In91 2.326 . S
O100 C96 1.260 . S
C101 O92 1.240 . S
C101 O93 1.252 . S
O102 In91 2.294 . S
O102 C95 1.240 . S
O103 In91 2.326 . S
O103 C95 1.252 . S
In104 O105 2.294 . S
In104 O106 2.326 . S
In104 O110 2.266 . S
In104 O111 2.326 . S
In104 O112 2.266 . S
In104 O113 2.326 . S
In104 O115 2.294 . S
In104 O116 2.326 . S
O105 In104 2.294 . S
O105 C114 1.240 . S
O106 In104 2.326 . S
O106 C114 1.252 . S
C107 O110 1.252 . S
C107 O111 1.260 . S
C108 O115 1.240 . S
C108 O116 1.252 . S
C109 O112 1.252 . S
C109 O113 1.260 . S
O110 In104 2.266 . S
O110 C107 1.252 . S
O111 In104 2.326 . S
O111 C107 1.260 . S
O112 In104 2.266 . S
O112 C109 1.252 . S
O113 In104 2.326 . S
O113 C109 1.260 . S
C114 O105 1.240 . S
C114 O106 1.252 . S
O115 In104 2.294 . S
O115 C108 1.240 . S
O116 In104 2.326 . S
O116 C108 1.252 . S
In117 O118 2.294 . S
In117 O119 2.326 . S
In117 O123 2.266 . S
In117 O124 2.326 . S
In117 O125 2.266 . S
In117 O126 2.326 . S
In117 O128 2.294 . S
In117 O129 2.326 . S
O118 In117 2.294 . S
O118 C127 1.240 . S
O119 In117 2.326 . S
O119 C127 1.252 . S
C120 O123 1.252 . S
C120 O124 1.260 . S
C121 O128 1.240 . S
C121 O129 1.252 . S
C122 O125 1.252 . S
C122 O126 1.260 . S
O123 In117 2.266 . S
O123 C120 1.252 . S
O124 In117 2.326 . S
O124 C120 1.260 . S
O125 In117 2.266 . S
O125 C122 1.252 . S
O126 In117 2.326 . S
O126 C122 1.260 . S
C127 O118 1.240 . S
C127 O119 1.252 . S
O128 In117 2.294 . S
O128 C121 1.240 . S
O129 In117 2.326 . S
O129 C121 1.252 . S
In130 O131 2.294 . S
In130 O132 2.326 . S
In130 O136 2.266 . S
In130 O137 2.326 . S
In130 O138 2.266 . S
In130 O139 2.326 . S
In130 O141 2.294 . S
In130 O142 2.326 . S
O131 In130 2.294 . S
O131 C140 1.240 . S
O132 In130 2.326 . S
O132 C140 1.252 . S
C133 O136 1.252 . S
C133 O137 1.260 . S
C134 O141 1.240 . S
C134 O142 1.252 . S
C135 O138 1.252 . S
C135 O139 1.260 . S
O136 In130 2.266 . S
O136 C133 1.252 . S
O137 In130 2.326 . S
O137 C133 1.260 . S
O138 In130 2.266 . S
O138 C135 1.252 . S
O139 In130 2.326 . S
O139 C135 1.260 . S
C140 O131 1.240 . S
C140 O132 1.252 . S
O141 In130 2.294 . S
O141 C134 1.240 . S
O142 In130 2.326 . S
O142 C134 1.252 . S
In143 O144 2.294 . S
In143 O145 2.326 . S
In143 O149 2.266 . S
In143 O150 2.326 . S
In143 O151 2.266 . S
In143 O152 2.326 . S
In143 O154 2.294 . S
In143 O155 2.326 . S
O144 In143 2.294 . S
O144 C153 1.240 . S
O145 In143 2.326 . S
O145 C153 1.252 . S
C146 O149 1.252 . S
C146 O150 1.260 . S
C147 O154 1.240 . S
C147 O155 1.252 . S
C148 O151 1.252 . S
C148 O152 1.260 . S
O149 In143 2.266 . S
O149 C146 1.252 . S
O150 In143 2.326 . S
O150 C146 1.260 . S
O151 In143 2.266 . S
O151 C148 1.252 . S
O152 In143 2.326 . S
O152 C148 1.260 . S
C153 O144 1.240 . S
C153 O145 1.252 . S
O154 In143 2.294 . S
O154 C147 1.240 . S
O155 In143 2.326 . S
O155 C147 1.252 . S
In156 O157 2.294 . S
In156 O158 2.326 . S
In156 O162 2.266 . S
In156 O163 2.326 . S
In156 O164 2.266 . S
In156 O165 2.326 . S
In156 O167 2.294 . S
In156 O168 2.326 . S
O157 In156 2.294 . S
O157 C166 1.240 . S
O158 In156 2.326 . S
O158 C166 1.252 . S
C159 O162 1.252 . S
C159 O163 1.260 . S
C160 O167 1.240 . S
C160 O168 1.252 . S
C161 O164 1.252 . S
C161 O165 1.260 . S
O162 In156 2.266 . S
O162 C159 1.252 . S
O163 In156 2.326 . S
O163 C159 1.260 . S
O164 In156 2.266 . S
O164 C161 1.252 . S
O165 In156 2.326 . S
O165 C161 1.260 . S
C166 O157 1.240 . S
C166 O158 1.252 . S
O167 In156 2.294 . S
O167 C160 1.240 . S
O168 In156 2.326 . S
O168 C160 1.252 . S
In169 O170 2.294 . S
In169 O171 2.326 . S
In169 O175 2.266 . S
In169 O176 2.326 . S
In169 O177 2.266 . S
In169 O178 2.326 . S
In169 O180 2.294 . S
In169 O181 2.326 . S
O170 In169 2.294 . S
O170 C179 1.240 . S
O171 In169 2.326 . S
O171 C179 1.252 . S
C172 O175 1.252 . S
C172 O176 1.260 . S
C173 O180 1.240 . S
C173 O181 1.252 . S
C174 O177 1.252 . S
C174 O178 1.260 . S
O175 In169 2.266 . S
O175 C172 1.252 . S
O176 In169 2.326 . S
O176 C172 1.260 . S
O177 In169 2.266 . S
O177 C174 1.252 . S
O178 In169 2.326 . S
O178 C174 1.260 . S
C179 O170 1.240 . S
C179 O171 1.252 . S
O180 In169 2.294 . S
O180 C173 1.240 . S
O181 In169 2.326 . S
O181 C173 1.252 . S
In182 O183 2.294 . S
In182 O184 2.326 . S
In182 O188 2.266 . S
In182 O189 2.326 . S
In182 O190 2.266 . S
In182 O191 2.326 . S
In182 O193 2.294 . S
In182 O194 2.326 . S
O183 In182 2.294 . S
O183 C192 1.240 . S
O184 In182 2.326 . S
O184 C192 1.252 . S
C185 O188 1.252 . S
C185 O189 1.260 . S
C186 O193 1.240 . S
C186 O194 1.252 . S
C187 O190 1.252 . S
C187 O191 1.260 . S
O188 In182 2.266 . S
O188 C185 1.252 . S
O189 In182 2.326 . S
O189 C185 1.260 . S
O190 In182 2.266 . S
O190 C187 1.252 . S
O191 In182 2.326 . S
O191 C187 1.260 . S
C192 O183 1.240 . S
C192 O184 1.252 . S
O193 In182 2.294 . S
O193 C186 1.240 . S
O194 In182 2.326 . S
O194 C186 1.252 . S
In195 O196 2.294 . S
In195 O197 2.326 . S
In195 O201 2.266 . S
In195 O202 2.326 . S
In195 O203 2.266 . S
In195 O204 2.326 . S
In195 O206 2.294 . S
In195 O207 2.326 . S
O196 In195 2.294 . S
O196 C205 1.240 . S
O197 In195 2.326 . S
O197 C205 1.252 . S
C198 O201 1.252 . S
C198 O202 1.260 . S
C199 O206 1.240 . S
C199 O207 1.252 . S
C200 O203 1.252 . S
C200 O204 1.260 . S
O201 In195 2.266 . S
O201 C198 1.252 . S
O202 In195 2.326 . S
O202 C198 1.260 . S
O203 In195 2.266 . S
O203 C200 1.252 . S
O204 In195 2.326 . S
O204 C200 1.260 . S
C205 O196 1.240 . S
C205 O197 1.252 . S
O206 In195 2.294 . S
O206 C199 1.240 . S
O207 In195 2.326 . S
O207 C199 1.252 . S
In208 O209 2.294 . S
In208 O210 2.326 . S
In208 O214 2.266 . S
In208 O215 2.326 . S
In208 O216 2.266 . S
In208 O217 2.326 . S
In208 O219 2.294 . S
In208 O220 2.326 . S
O209 In208 2.294 . S
O209 C218 1.240 . S
O210 In208 2.326 . S
O210 C218 1.252 . S
C211 O214 1.252 . S
C211 O215 1.260 . S
C212 O219 1.240 . S
C212 O220 1.252 . S
C213 O216 1.252 . S
C213 O217 1.260 . S
O214 In208 2.266 . S
O214 C211 1.252 . S
O215 In208 2.326 . S
O215 C211 1.260 . S
O216 In208 2.266 . S
O216 C213 1.252 . S
O217 In208 2.326 . S
O217 C213 1.260 . S
C218 O209 1.240 . S
C218 O210 1.252 . S
O219 In208 2.294 . S
O219 C212 1.240 . S
O220 In208 2.326 . S
O220 C212 1.252 . S
In221 O222 2.294 . S
In221 O223 2.326 . S
In221 O227 2.266 . S
In221 O228 2.326 . S
In221 O229 2.266 . S
In221 O230 2.326 . S
In221 O232 2.294 . S
In221 O233 2.326 . S
O222 In221 2.294 . S
O222 C231 1.240 . S
O223 In221 2.326 . S
O223 C231 1.252 . S
C224 O227 1.252 . S
C224 O228 1.260 . S
C225 O232 1.240 . S
C225 O233 1.252 . S
C226 O229 1.252 . S
C226 O230 1.260 . S
O227 In221 2.266 . S
O227 C224 1.252 . S
O228 In221 2.326 . S
O228 C224 1.260 . S
O229 In221 2.266 . S
O229 C226 1.252 . S
O230 In221 2.326 . S
O230 C226 1.260 . S
C231 O222 1.240 . S
C231 O223 1.252 . S
O232 In221 2.294 . S
O232 C225 1.240 . S
O233 In221 2.326 . S
O233 C225 1.252 . S
In234 O235 2.294 . S
In234 O236 2.326 . S
In234 O240 2.266 . S
In234 O241 2.326 . S
In234 O242 2.266 . S
In234 O243 2.326 . S
In234 O245 2.294 . S
In234 O246 2.326 . S
O235 In234 2.294 . S
O235 C244 1.240 . S
O236 In234 2.326 . S
O236 C244 1.252 . S
C237 O240 1.252 . S
C237 O241 1.260 . S
C238 O245 1.240 . S
C238 O246 1.252 . S
C239 O242 1.252 . S
C239 O243 1.260 . S
O240 In234 2.266 . S
O240 C237 1.252 . S
O241 In234 2.326 . S
O241 C237 1.260 . S
O242 In234 2.266 . S
O242 C239 1.252 . S
O243 In234 2.326 . S
O243 C239 1.260 . S
C244 O235 1.240 . S
C244 O236 1.252 . S
O245 In234 2.294 . S
O245 C238 1.240 . S
O246 In234 2.326 . S
O246 C238 1.252 . S
In247 O248 2.294 . S
In247 O249 2.326 . S
In247 O253 2.266 . S
In247 O254 2.326 . S
In247 O255 2.266 . S
In247 O256 2.326 . S
In247 O258 2.294 . S
In247 O259 2.326 . S
O248 In247 2.294 . S
O248 C257 1.240 . S
O249 In247 2.326 . S
O249 C257 1.252 . S
C250 O253 1.252 . S
C250 O254 1.260 . S
C251 O258 1.240 . S
C251 O259 1.252 . S
C252 O255 1.252 . S
C252 O256 1.260 . S
O253 In247 2.266 . S
O253 C250 1.252 . S
O254 In247 2.326 . S
O254 C250 1.260 . S
O255 In247 2.266 . S
O255 C252 1.252 . S
O256 In247 2.326 . S
O256 C252 1.260 . S
C257 O248 1.240 . S
C257 O249 1.252 . S
O258 In247 2.294 . S
O258 C251 1.240 . S
O259 In247 2.326 . S
O259 C251 1.252 . S
In260 O261 2.294 . S
In260 O262 2.326 . S
In260 O266 2.266 . S
In260 O267 2.326 . S
In260 O268 2.266 . S
In260 O269 2.326 . S
In260 O271 2.294 . S
In260 O272 2.326 . S
O261 In260 2.294 . S
O261 C270 1.240 . S
O262 In260 2.326 . S
O262 C270 1.252 . S
C263 O266 1.252 . S
C263 O267 1.260 . S
C264 O271 1.240 . S
C264 O272 1.252 . S
C265 O268 1.252 . S
C265 O269 1.260 . S
O266 In260 2.266 . S
O266 C263 1.252 . S
O267 In260 2.326 . S
O267 C263 1.260 . S
O268 In260 2.266 . S
O268 C265 1.252 . S
O269 In260 2.326 . S
O269 C265 1.260 . S
C270 O261 1.240 . S
C270 O262 1.252 . S
O271 In260 2.294 . S
O271 C264 1.240 . S
O272 In260 2.326 . S
O272 C264 1.252 . S
In273 O274 2.294 . S
In273 O275 2.326 . S
In273 O279 2.266 . S
In273 O280 2.326 . S
In273 O281 2.266 . S
In273 O282 2.326 . S
In273 O284 2.294 . S
In273 O285 2.326 . S
O274 In273 2.294 . S
O274 C283 1.240 . S
O275 In273 2.326 . S
O275 C283 1.252 . S
C276 O279 1.252 . S
C276 O280 1.260 . S
C277 O284 1.240 . S
C277 O285 1.252 . S
C278 O281 1.252 . S
C278 O282 1.260 . S
O279 In273 2.266 . S
O279 C276 1.252 . S
O280 In273 2.326 . S
O280 C276 1.260 . S
O281 In273 2.266 . S
O281 C278 1.252 . S
O282 In273 2.326 . S
O282 C278 1.260 . S
C283 O274 1.240 . S
C283 O275 1.252 . S
O284 In273 2.294 . S
O284 C277 1.240 . S
O285 In273 2.326 . S
O285 C277 1.252 . S
In286 O287 2.294 . S
In286 O288 2.326 . S
In286 O292 2.266 . S
In286 O293 2.326 . S
In286 O294 2.266 . S
In286 O295 2.326 . S
In286 O297 2.294 . S
In286 O298 2.326 . S
O287 In286 2.294 . S
O287 C296 1.240 . S
O288 In286 2.326 . S
O288 C296 1.252 . S
C289 O292 1.252 . S
C289 O293 1.260 . S
C290 O297 1.240 . S
C290 O298 1.252 . S
C291 O294 1.252 . S
C291 O295 1.260 . S
O292 In286 2.266 . S
O292 C289 1.252 . S
O293 In286 2.326 . S
O293 C289 1.260 . S
O294 In286 2.266 . S
O294 C291 1.252 . S
O295 In286 2.326 . S
O295 C291 1.260 . S
C296 O287 1.240 . S
C296 O288 1.252 . S
O297 In286 2.294 . S
O297 C290 1.240 . S
O298 In286 2.326 . S
O298 C290 1.252 . S
In299 O300 2.294 . S
In299 O301 2.326 . S
In299 O305 2.266 . S
In299 O306 2.326 . S
In299 O307 2.266 . S
In299 O308 2.326 . S
In299 O310 2.294 . S
In299 O311 2.326 . S
O300 In299 2.294 . S
O300 C309 1.240 . S
O301 In299 2.326 . S
O301 C309 1.252 . S
C302 O305 1.252 . S
C302 O306 1.260 . S
C303 O310 1.240 . S
C303 O311 1.252 . S
C304 O307 1.252 . S
C304 O308 1.260 . S
O305 In299 2.266 . S
O305 C302 1.252 . S
O306 In299 2.326 . S
O306 C302 1.260 . S
O307 In299 2.266 . S
O307 C304 1.252 . S
O308 In299 2.326 . S
O308 C304 1.260 . S
C309 O300 1.240 . S
C309 O301 1.252 . S
O310 In299 2.294 . S
O310 C303 1.240 . S
O311 In299 2.326 . S
O311 C303 1.252 . S
In312 O313 2.294 . S
In312 O314 2.326 . S
In312 O318 2.266 . S
In312 O319 2.326 . S
In312 O320 2.266 . S
In312 O321 2.326 . S
In312 O323 2.294 . S
In312 O324 2.326 . S
O313 In312 2.294 . S
O313 C322 1.240 . S
O314 In312 2.326 . S
O314 C322 1.252 . S
C315 O318 1.252 . S
C315 O319 1.260 . S
C316 O323 1.240 . S
C316 O324 1.252 . S
C317 O320 1.252 . S
C317 O321 1.260 . S
O318 In312 2.266 . S
O318 C315 1.252 . S
O319 In312 2.326 . S
O319 C315 1.260 . S
O320 In312 2.266 . S
O320 C317 1.252 . S
O321 In312 2.326 . S
O321 C317 1.260 . S
C322 O313 1.240 . S
C322 O314 1.252 . S
O323 In312 2.294 . S
O323 C316 1.240 . S
O324 In312 2.326 . S
O324 C316 1.252 . S
In325 O326 2.294 . S
In325 O327 2.326 . S
In325 O331 2.266 . S
In325 O332 2.326 . S
In325 O333 2.266 . S
In325 O334 2.326 . S
In325 O336 2.294 . S
In325 O337 2.326 . S
O326 In325 2.294 . S
O326 C335 1.240 . S
O327 In325 2.326 . S
O327 C335 1.252 . S
C328 O331 1.252 . S
C328 O332 1.260 . S
C329 O336 1.240 . S
C329 O337 1.252 . S
C330 O333 1.252 . S
C330 O334 1.260 . S
O331 In325 2.266 . S
O331 C328 1.252 . S
O332 In325 2.326 . S
O332 C328 1.260 . S
O333 In325 2.266 . S
O333 C330 1.252 . S
O334 In325 2.326 . S
O334 C330 1.260 . S
C335 O326 1.240 . S
C335 O327 1.252 . S
O336 In325 2.294 . S
O336 C329 1.240 . S
O337 In325 2.326 . S
O337 C329 1.252 . S
In338 O339 2.294 . S
In338 O340 2.326 . S
In338 O344 2.266 . S
In338 O345 2.326 . S
In338 O346 2.266 . S
In338 O347 2.326 . S
In338 O349 2.294 . S
In338 O350 2.326 . S
O339 In338 2.294 . S
O339 C348 1.240 . S
O340 In338 2.326 . S
O340 C348 1.252 . S
C341 O344 1.252 . S
C341 O345 1.260 . S
C342 O349 1.240 . S
C342 O350 1.252 . S
C343 O346 1.252 . S
C343 O347 1.260 . S
O344 In338 2.266 . S
O344 C341 1.252 . S
O345 In338 2.326 . S
O345 C341 1.260 . S
O346 In338 2.266 . S
O346 C343 1.252 . S
O347 In338 2.326 . S
O347 C343 1.260 . S
C348 O339 1.240 . S
C348 O340 1.252 . S
O349 In338 2.294 . S
O349 C342 1.240 . S
O350 In338 2.326 . S
O350 C342 1.252 . S
In351 O352 2.294 . S
In351 O353 2.326 . S
In351 O357 2.266 . S
In351 O358 2.326 . S
In351 O359 2.266 . S
In351 O360 2.326 . S
In351 O362 2.294 . S
In351 O363 2.326 . S
O352 In351 2.294 . S
O352 C361 1.240 . S
O353 In351 2.326 . S
O353 C361 1.252 . S
C354 O357 1.252 . S
C354 O358 1.260 . S
C355 O362 1.240 . S
C355 O363 1.252 . S
C356 O359 1.252 . S
C356 O360 1.260 . S
O357 In351 2.266 . S
O357 C354 1.252 . S
O358 In351 2.326 . S
O358 C354 1.260 . S
O359 In351 2.266 . S
O359 C356 1.252 . S
O360 In351 2.326 . S
O360 C356 1.260 . S
C361 O352 1.240 . S
C361 O353 1.252 . S
O362 In351 2.294 . S
O362 C355 1.240 . S
O363 In351 2.326 . S
O363 C355 1.252 . S
In364 O365 2.294 . S
In364 O366 2.326 . S
In364 O370 2.266 . S
In364 O371 2.326 . S
In364 O372 2.266 . S
In364 O373 2.326 . S
In364 O375 2.294 . S
In364 O376 2.326 . S
O365 In364 2.294 . S
O365 C374 1.240 . S
O366 In364 2.326 . S
O366 C374 1.252 . S
C367 O370 1.252 . S
C367 O371 1.260 . S
C368 O375 1.240 . S
C368 O376 1.252 . S
C369 O372 1.252 . S
C369 O373 1.260 . S
O370 In364 2.266 . S
O370 C367 1.252 . S
O371 In364 2.326 . S
O371 C367 1.260 . S
O372 In364 2.266 . S
O372 C369 1.252 . S
O373 In364 2.326 . S
O373 C369 1.260 . S
C374 O365 1.240 . S
C374 O366 1.252 . S
O375 In364 2.294 . S
O375 C368 1.240 . S
O376 In364 2.326 . S
O376 C368 1.252 . S
In377 O378 2.294 . S
In377 O379 2.326 . S
In377 O383 2.266 . S
In377 O384 2.326 . S
In377 O385 2.266 . S
In377 O386 2.326 . S
In377 O388 2.294 . S
In377 O389 2.326 . S
O378 In377 2.294 . S
O378 C387 1.240 . S
O379 In377 2.326 . S
O379 C387 1.252 . S
C380 O383 1.252 . S
C380 O384 1.260 . S
C381 O388 1.240 . S
C381 O389 1.252 . S
C382 O385 1.252 . S
C382 O386 1.260 . S
O383 In377 2.266 . S
O383 C380 1.252 . S
O384 In377 2.326 . S
O384 C380 1.260 . S
O385 In377 2.266 . S
O385 C382 1.252 . S
O386 In377 2.326 . S
O386 C382 1.260 . S
C387 O378 1.240 . S
C387 O379 1.252 . S
O388 In377 2.294 . S
O388 C381 1.240 . S
O389 In377 2.326 . S
O389 C381 1.252 . S
In390 O391 2.294 . S
In390 O392 2.326 . S
In390 O396 2.266 . S
In390 O397 2.326 . S
In390 O398 2.266 . S
In390 O399 2.326 . S
In390 O401 2.294 . S
In390 O402 2.326 . S
O391 In390 2.294 . S
O391 C400 1.240 . S
O392 In390 2.326 . S
O392 C400 1.252 . S
C393 O396 1.252 . S
C393 O397 1.260 . S
C394 O401 1.240 . S
C394 O402 1.252 . S
C395 O398 1.252 . S
C395 O399 1.260 . S
O396 In390 2.266 . S
O396 C393 1.252 . S
O397 In390 2.326 . S
O397 C393 1.260 . S
O398 In390 2.266 . S
O398 C395 1.252 . S
O399 In390 2.326 . S
O399 C395 1.260 . S
C400 O391 1.240 . S
C400 O392 1.252 . S
O401 In390 2.294 . S
O401 C394 1.240 . S
O402 In390 2.326 . S
O402 C394 1.252 . S
In403 O404 2.294 . S
In403 O405 2.326 . S
In403 O409 2.266 . S
In403 O410 2.326 . S
In403 O411 2.266 . S
In403 O412 2.326 . S
In403 O414 2.294 . S
In403 O415 2.326 . S
O404 In403 2.294 . S
O404 C413 1.240 . S
O405 In403 2.326 . S
O405 C413 1.252 . S
C406 O409 1.252 . S
C406 O410 1.260 . S
C407 O414 1.240 . S
C407 O415 1.252 . S
C408 O411 1.252 . S
C408 O412 1.260 . S
O409 In403 2.266 . S
O409 C406 1.252 . S
O410 In403 2.326 . S
O410 C406 1.260 . S
O411 In403 2.266 . S
O411 C408 1.252 . S
O412 In403 2.326 . S
O412 C408 1.260 . S
C413 O404 1.240 . S
C413 O405 1.252 . S
O414 In403 2.294 . S
O414 C407 1.240 . S
O415 In403 2.326 . S
O415 C407 1.252 . S
H416 C434 0.951 . S
H417 C436 0.951 . S
H418 C438 0.950 . S
H419 C439 0.950 . S
H420 C441 0.950 . S
H421 C444 0.950 . S
H422 C445 0.950 . S
H423 C447 0.950 . S
H424 C448 0.950 . S
H425 C449 0.951 . S
H426 C451 0.951 . S
H427 C453 0.950 . S
H428 C454 0.950 . S
H429 C456 0.950 . S
H430 C459 0.950 . S
H431 C460 0.950 . S
H432 C462 0.950 . S
H433 C463 0.950 . S
C434 H416 0.951 . S
C434 C435 1.366 . S
C434 C436 1.388 . S
C435 C434 1.366 . S
C435 C439 1.385 . S
C436 H417 0.951 . S
C436 C434 1.388 . S
C436 C437 1.366 . S
C437 C436 1.366 . S
C437 C438 1.414 . S
C437 C440 1.499 . S
C438 H418 0.950 . S
C438 C437 1.414 . S
C438 C439 1.374 . S
C439 H419 0.950 . S
C439 C435 1.385 . S
C439 C438 1.374 . S
C440 C437 1.499 . S
C440 C441 1.373 . S
C440 C442 1.389 . S
C441 H420 0.950 . S
C441 C440 1.373 . S
C441 C457 1.377 1_545 S
C442 C440 1.389 . S
C442 C443 1.524 . S
C442 C456 1.377 1_545 S
C443 C442 1.524 . S
C443 C444 1.397 . S
C443 C448 1.363 . S
C444 H421 0.950 . S
C444 C443 1.397 . S
C444 C445 1.334 . S
C445 H422 0.950 . S
C445 C444 1.334 . S
C445 C446 1.287 . S
C446 C445 1.287 . S
C446 C447 1.524 . S
C446 H465 0.913 . S
C447 H423 0.950 . S
C447 C446 1.524 . S
C447 C448 1.415 . S
C448 H424 0.950 . S
C448 C443 1.363 . S
C448 C447 1.415 . S
C449 H425 0.951 . S
C449 C450 1.366 . S
C449 C451 1.388 . S
C450 C449 1.366 . S
C450 C454 1.385 . S
C451 H426 0.951 . S
C451 C449 1.388 . S
C451 C452 1.366 . S
C452 C451 1.366 . S
C452 C453 1.414 . S
C452 C455 1.499 . S
C453 H427 0.950 . S
C453 C452 1.414 . S
C453 C454 1.374 . S
C454 H428 0.950 . S
C454 C450 1.385 . S
C454 C453 1.374 . S
C455 C452 1.499 . S
C455 C456 1.373 . S
C455 C457 1.389 . S
C456 H429 0.950 . S
C456 C442 1.377 1_565 S
C456 C455 1.373 . S
C457 C441 1.377 1_565 S
C457 C455 1.389 . S
C457 C458 1.524 . S
C458 C457 1.524 . S
C458 C459 1.397 . S
C458 C463 1.363 . S
C459 H430 0.950 . S
C459 C458 1.397 . S
C459 C460 1.334 . S
C460 H431 0.950 . S
C460 C459 1.334 . S
C460 C461 1.287 . S
C461 C460 1.287 . S
C461 C462 1.524 . S
C461 H464 0.999 . S
C462 H432 0.950 . S
C462 C461 1.524 . S
C462 C463 1.415 . S
C463 H433 0.950 . S
C463 C458 1.363 . S
C463 C462 1.415 . S
H464 C461 0.999 . S
H465 C446 0.913 . S
H466 C484 0.951 . S
H467 C486 0.951 . S
H468 C488 0.950 . S
H469 C489 0.950 . S
H470 C491 0.950 . S
H471 C494 0.950 . S
H472 C495 0.950 . S
H473 C497 0.950 . S
H474 C498 0.950 . S
H475 C499 0.951 . S
H476 C501 0.951 . S
H477 C503 0.950 . S
H478 C504 0.950 . S
H479 C506 0.950 . S
H480 C509 0.950 . S
H481 C510 0.950 . S
H482 C512 0.950 . S
H483 C513 0.950 . S
C484 H466 0.951 . S
C484 C485 1.366 . S
C484 C486 1.388 . S
C485 C484 1.366 . S
C485 C489 1.385 . S
C486 H467 0.951 . S
C486 C484 1.388 . S
C486 C487 1.366 . S
C487 C486 1.366 . S
C487 C488 1.414 . S
C487 C490 1.499 . S
C488 H468 0.950 . S
C488 C487 1.414 . S
C488 C489 1.374 . S
C489 H469 0.950 . S
C489 C485 1.385 . S
C489 C488 1.374 . S
C490 C487 1.499 . S
C490 C491 1.373 . S
C490 C492 1.389 . S
C491 H470 0.950 . S
C491 C490 1.373 . S
C491 C507 1.377 . S
C492 C490 1.389 . S
C492 C493 1.524 . S
C492 C506 1.377 . S
C493 C492 1.524 . S
C493 C494 1.397 . S
C493 C498 1.363 . S
C494 H471 0.950 . S
C494 C493 1.397 . S
C494 C495 1.334 . S
C495 H472 0.950 . S
C495 C494 1.334 . S
C495 C496 1.287 . S
C496 C495 1.287 . S
C496 C497 1.524 . S
C496 H515 0.913 . S
C497 H473 0.950 . S
C497 C496 1.524 . S
C497 C498 1.415 . S
C498 H474 0.950 . S
C498 C493 1.363 . S
C498 C497 1.415 . S
C499 H475 0.951 . S
C499 C500 1.366 . S
C499 C501 1.388 . S
C500 C499 1.366 . S
C500 C504 1.385 . S
C501 H476 0.951 . S
C501 C499 1.388 . S
C501 C502 1.366 . S
C502 C501 1.366 . S
C502 C503 1.414 . S
C502 C505 1.499 . S
C503 H477 0.950 . S
C503 C502 1.414 . S
C503 C504 1.374 . S
C504 H478 0.950 . S
C504 C500 1.385 . S
C504 C503 1.374 . S
C505 C502 1.499 . S
C505 C506 1.373 . S
C505 C507 1.389 . S
C506 H479 0.950 . S
C506 C492 1.377 . S
C506 C505 1.373 . S
C507 C491 1.377 . S
C507 C505 1.389 . S
C507 C508 1.524 . S
C508 C507 1.524 . S
C508 C509 1.397 . S
C508 C513 1.363 . S
C509 H480 0.950 . S
C509 C508 1.397 . S
C509 C510 1.334 . S
C510 H481 0.950 . S
C510 C509 1.334 . S
C510 C511 1.287 . S
C511 C510 1.287 . S
C511 C512 1.524 . S
C511 H514 0.999 . S
C512 H482 0.950 . S
C512 C511 1.524 . S
C512 C513 1.415 . S
C513 H483 0.950 . S
C513 C508 1.363 . S
C513 C512 1.415 . S
H514 C511 0.999 . S
H515 C496 0.913 . S
H516 C534 0.951 . S
H517 C536 0.951 . S
H518 C538 0.950 . S
H519 C539 0.950 . S
H520 C541 0.950 . S
H521 C544 0.950 . S
H522 C545 0.950 . S
H523 C547 0.950 . S
H524 C548 0.950 . S
H525 C549 0.951 . S
H526 C551 0.951 . S
H527 C553 0.950 . S
H528 C554 0.950 . S
H529 C556 0.950 . S
H530 C559 0.950 . S
H531 C560 0.950 . S
H532 C562 0.950 . S
H533 C563 0.950 . S
C534 H516 0.951 . S
C534 C535 1.366 . S
C534 C536 1.388 . S
C535 C534 1.366 . S
C535 C539 1.385 . S
C536 H517 0.951 . S
C536 C534 1.388 . S
C536 C537 1.366 . S
C537 C536 1.366 . S
C537 C538 1.414 . S
C537 C540 1.499 . S
C538 H518 0.950 . S
C538 C537 1.414 . S
C538 C539 1.374 . S
C539 H519 0.950 . S
C539 C535 1.385 . S
C539 C538 1.374 . S
C540 C537 1.499 . S
C540 C541 1.373 . S
C540 C542 1.389 1_545 S
C541 H520 0.950 . S
C541 C540 1.373 . S
C541 C557 1.377 . S
C542 C540 1.389 1_565 S
C542 C543 1.524 . S
C542 C556 1.377 . S
C543 C542 1.524 . S
C543 C544 1.397 . S
C543 C548 1.363 . S
C544 H521 0.950 . S
C544 C543 1.397 . S
C544 C545 1.334 . S
C545 H522 0.950 . S
C545 C544 1.334 . S
C545 C546 1.287 . S
C546 C545 1.287 . S
C546 C547 1.524 . S
C546 H565 0.913 . S
C547 H523 0.950 . S
C547 C546 1.524 . S
C547 C548 1.415 . S
C548 H524 0.950 . S
C548 C543 1.363 . S
C548 C547 1.415 . S
C549 H525 0.951 . S
C549 C550 1.366 . S
C549 C551 1.388 . S
C550 C549 1.366 . S
C550 C554 1.385 . S
C551 H526 0.951 . S
C551 C549 1.388 . S
C551 C552 1.366 . S
C552 C551 1.366 . S
C552 C553 1.414 . S
C552 C555 1.499 . S
C553 H527 0.950 . S
C553 C552 1.414 . S
C553 C554 1.374 . S
C554 H528 0.950 . S
C554 C550 1.385 . S
C554 C553 1.374 . S
C555 C552 1.499 . S
C555 C556 1.373 . S
C555 C557 1.389 1_565 S
C556 H529 0.950 . S
C556 C542 1.377 . S
C556 C555 1.373 . S
C557 C541 1.377 . S
C557 C555 1.389 1_545 S
C557 C558 1.524 . S
C558 C557 1.524 . S
C558 C559 1.397 . S
C558 C563 1.363 . S
C559 H530 0.950 . S
C559 C558 1.397 . S
C559 C560 1.334 . S
C560 H531 0.950 . S
C560 C559 1.334 . S
C560 C561 1.287 . S
C561 C560 1.287 . S
C561 C562 1.524 . S
C561 H564 0.999 . S
C562 H532 0.950 . S
C562 C561 1.524 . S
C562 C563 1.415 . S
C563 H533 0.950 . S
C563 C558 1.363 . S
C563 C562 1.415 . S
H564 C561 0.999 . S
H565 C546 0.913 . S
H566 C584 0.951 . S
H567 C586 0.951 . S
H568 C588 0.950 . S
H569 C589 0.950 . S
H570 C591 0.950 . S
H571 C594 0.950 . S
H572 C595 0.950 . S
H573 C597 0.950 . S
H574 C598 0.950 . S
H575 C599 0.951 . S
H576 C601 0.951 . S
H577 C603 0.950 . S
H578 C604 0.950 . S
H579 C606 0.950 . S
H580 C609 0.950 . S
H581 C610 0.950 . S
H582 C612 0.950 . S
H583 C613 0.950 . S
C584 H566 0.951 . S
C584 C585 1.366 . S
C584 C586 1.388 . S
C585 C584 1.366 . S
C585 C589 1.385 . S
C586 H567 0.951 . S
C586 C584 1.388 . S
C586 C587 1.366 . S
C587 C586 1.366 . S
C587 C588 1.414 . S
C587 C590 1.499 . S
C588 H568 0.950 . S
C588 C587 1.414 . S
C588 C589 1.374 . S
C589 H569 0.950 . S
C589 C585 1.385 . S
C589 C588 1.374 . S
C590 C587 1.499 . S
C590 C591 1.373 1_556 S
C590 C592 1.389 . S
C591 H570 0.950 . S
C591 C590 1.373 1_554 S
C591 C607 1.377 . S
C592 C590 1.389 . S
C592 C593 1.524 . S
C592 C606 1.377 . S
C593 C592 1.524 . S
C593 C594 1.397 . S
C593 C598 1.363 . S
C594 H571 0.950 . S
C594 C593 1.397 . S
C594 C595 1.334 . S
C595 H572 0.950 . S
C595 C594 1.334 . S
C595 C596 1.287 . S
C596 C595 1.287 . S
C596 C597 1.524 . S
C596 H615 0.913 . S
C597 H573 0.950 . S
C597 C596 1.524 . S
C597 C598 1.415 . S
C598 H574 0.950 . S
C598 C593 1.363 . S
C598 C597 1.415 . S
C599 H575 0.951 . S
C599 C600 1.366 . S
C599 C601 1.388 . S
C600 C599 1.366 . S
C600 C604 1.385 . S
C601 H576 0.951 . S
C601 C599 1.388 . S
C601 C602 1.366 . S
C602 C601 1.366 . S
C602 C603 1.414 . S
C602 C605 1.499 . S
C603 H577 0.950 . S
C603 C602 1.414 . S
C603 C604 1.374 . S
C604 H578 0.950 . S
C604 C600 1.385 . S
C604 C603 1.374 . S
C605 C602 1.499 . S
C605 C606 1.373 1_554 S
C605 C607 1.389 . S
C606 H579 0.950 . S
C606 C592 1.377 . S
C606 C605 1.373 1_556 S
C607 C591 1.377 . S
C607 C605 1.389 . S
C607 C608 1.524 . S
C608 C607 1.524 . S
C608 C609 1.397 . S
C608 C613 1.363 . S
C609 H580 0.950 . S
C609 C608 1.397 . S
C609 C610 1.334 . S
C610 H581 0.950 . S
C610 C609 1.334 . S
C610 C611 1.287 . S
C611 C610 1.287 . S
C611 C612 1.524 . S
C611 H614 0.999 . S
C612 H582 0.950 . S
C612 C611 1.524 . S
C612 C613 1.415 . S
C613 H583 0.950 . S
C613 C608 1.363 . S
C613 C612 1.415 . S
H614 C611 0.999 . S
H615 C596 0.913 . S
H616 C634 0.951 . S
H617 C636 0.951 . S
H618 C638 0.950 . S
H619 C639 0.950 . S
H620 C641 0.950 . S
H621 C644 0.950 . S
H622 C645 0.950 1_565 S
H623 C647 0.950 . S
H624 C648 0.950 . S
H625 C649 0.951 . S
H626 C651 0.951 . S
H627 C653 0.950 . S
H628 C654 0.950 . S
H629 C656 0.950 . S
H630 C659 0.950 . S
H631 C660 0.950 1_545 S
H632 C662 0.950 . S
H633 C663 0.950 . S
C634 H616 0.951 . S
C634 C635 1.366 . S
C634 C636 1.388 . S
C635 C634 1.366 . S
C635 C639 1.385 . S
C636 H617 0.951 . S
C636 C634 1.388 . S
C636 C637 1.366 . S
C637 C636 1.366 . S
C637 C638 1.414 . S
C637 C640 1.499 . S
C638 H618 0.950 . S
C638 C637 1.414 . S
C638 C639 1.374 . S
C639 H619 0.950 . S
C639 C635 1.385 . S
C639 C638 1.374 . S
C640 C637 1.499 . S
C640 C641 1.373 . S
C640 C642 1.389 1_565 S
C641 H620 0.950 . S
C641 C640 1.373 . S
C641 C657 1.377 . S
C642 C640 1.389 1_545 S
C642 C643 1.524 . S
C642 C656 1.377 . S
C643 C642 1.524 . S
C643 C644 1.397 1_545 S
C643 C648 1.363 . S
C644 H621 0.950 . S
C644 C643 1.397 1_565 S
C644 C645 1.334 1_565 S
C645 H622 0.950 1_545 S
C645 C644 1.334 1_545 S
C645 C646 1.287 . S
C646 C645 1.287 . S
C646 C647 1.524 . S
C646 H665 0.913 . S
C647 H623 0.950 . S
C647 C646 1.524 . S
C647 C648 1.415 . S
C648 H624 0.950 . S
C648 C643 1.363 . S
C648 C647 1.415 . S
C649 H625 0.951 . S
C649 C650 1.366 . S
C649 C651 1.388 . S
C650 C649 1.366 . S
C650 C654 1.385 . S
C651 H626 0.951 . S
C651 C649 1.388 . S
C651 C652 1.366 . S
C652 C651 1.366 . S
C652 C653 1.414 . S
C652 C655 1.499 . S
C653 H627 0.950 . S
C653 C652 1.414 . S
C653 C654 1.374 . S
C654 H628 0.950 . S
C654 C650 1.385 . S
C654 C653 1.374 . S
C655 C652 1.499 . S
C655 C656 1.373 . S
C655 C657 1.389 1_545 S
C656 H629 0.950 . S
C656 C642 1.377 . S
C656 C655 1.373 . S
C657 C641 1.377 . S
C657 C655 1.389 1_565 S
C657 C658 1.524 . S
C658 C657 1.524 . S
C658 C659 1.397 1_565 S
C658 C663 1.363 . S
C659 H630 0.950 . S
C659 C658 1.397 1_545 S
C659 C660 1.334 1_545 S
C660 H631 0.950 1_565 S
C660 C659 1.334 1_565 S
C660 C661 1.287 . S
C661 C660 1.287 . S
C661 C662 1.524 . S
C661 H664 0.999 . S
C662 H632 0.950 . S
C662 C661 1.524 . S
C662 C663 1.415 . S
C663 H633 0.950 . S
C663 C658 1.363 . S
C663 C662 1.415 . S
H664 C661 0.999 . S
H665 C646 0.913 . S
H666 C684 0.951 . S
H667 C686 0.951 . S
H668 C688 0.950 . S
H669 C689 0.950 . S
H670 C691 0.950 . S
H671 C694 0.950 . S
H672 C695 0.950 . S
H673 C697 0.950 . S
H674 C698 0.950 . S
H675 C699 0.951 . S
H676 C701 0.951 . S
H677 C703 0.950 . S
H678 C704 0.950 . S
H679 C706 0.950 . S
H680 C709 0.950 . S
H681 C710 0.950 . S
H682 C712 0.950 . S
H683 C713 0.950 . S
C684 H666 0.951 . S
C684 C685 1.366 . S
C684 C686 1.388 . S
C685 C684 1.366 . S
C685 C689 1.385 . S
C686 H667 0.951 . S
C686 C684 1.388 . S
C686 C687 1.366 . S
C687 C686 1.366 . S
C687 C688 1.414 . S
C687 C690 1.499 . S
C688 H668 0.950 . S
C688 C687 1.414 . S
C688 C689 1.374 . S
C689 H669 0.950 . S
C689 C685 1.385 . S
C689 C688 1.374 . S
C690 C687 1.499 . S
C690 C691 1.373 . S
C690 C692 1.389 . S
C691 H670 0.950 . S
C691 C690 1.373 . S
C691 C707 1.377 . S
C692 C690 1.389 . S
C692 C693 1.524 . S
C692 C706 1.377 . S
C693 C692 1.524 . S
C693 C694 1.397 . S
C693 C698 1.363 . S
C694 H671 0.950 . S
C694 C693 1.397 . S
C694 C695 1.334 . S
C695 H672 0.950 . S
C695 C694 1.334 . S
C695 C696 1.287 . S
C696 C695 1.287 . S
C696 C697 1.524 . S
C696 H715 0.913 . S
C697 H673 0.950 . S
C697 C696 1.524 . S
C697 C698 1.415 . S
C698 H674 0.950 . S
C698 C693 1.363 . S
C698 C697 1.415 . S
C699 H675 0.951 . S
C699 C700 1.366 . S
C699 C701 1.388 . S
C700 C699 1.366 . S
C700 C704 1.385 . S
C701 H676 0.951 . S
C701 C699 1.388 . S
C701 C702 1.366 . S
C702 C701 1.366 . S
C702 C703 1.414 . S
C702 C705 1.499 . S
C703 H677 0.950 . S
C703 C702 1.414 . S
C703 C704 1.374 . S
C704 H678 0.950 . S
C704 C700 1.385 . S
C704 C703 1.374 . S
C705 C702 1.499 . S
C705 C706 1.373 . S
C705 C707 1.389 . S
C706 H679 0.950 . S
C706 C692 1.377 . S
C706 C705 1.373 . S
C707 C691 1.377 . S
C707 C705 1.389 . S
C707 C708 1.524 . S
C708 C707 1.524 . S
C708 C709 1.397 . S
C708 C713 1.363 . S
C709 H680 0.950 . S
C709 C708 1.397 . S
C709 C710 1.334 . S
C710 H681 0.950 . S
C710 C709 1.334 . S
C710 C711 1.287 . S
C711 C710 1.287 . S
C711 C712 1.524 . S
C711 H714 0.999 . S
C712 H682 0.950 . S
C712 C711 1.524 . S
C712 C713 1.415 . S
C713 H683 0.950 . S
C713 C708 1.363 . S
C713 C712 1.415 . S
H714 C711 0.999 . S
H715 C696 0.913 . S
H716 C734 0.951 . S
H717 C736 0.951 . S
H718 C738 0.950 . S
H719 C739 0.950 . S
H720 C741 0.950 . S
H721 C744 0.950 . S
H722 C745 0.950 . S
H723 C747 0.988 . S
H724 C748 0.950 . S
H725 C749 0.951 . S
H726 C751 0.951 . S
H727 C753 0.950 . S
H728 C754 0.950 . S
H729 C756 0.950 . S
H730 C759 0.950 . S
H731 C760 0.950 . S
H732 C762 0.988 . S
H733 C763 0.950 . S
C734 H716 0.951 . S
C734 C735 1.366 . S
C734 C736 1.388 . S
C735 C734 1.366 . S
C735 C739 1.385 . S
C736 H717 0.951 . S
C736 C734 1.388 . S
C736 C737 1.366 . S
C737 C736 1.366 . S
C737 C738 1.414 . S
C737 C740 1.499 . S
C738 H718 0.950 . S
C738 C737 1.414 . S
C738 C739 1.374 . S
C739 H719 0.950 . S
C739 C735 1.385 . S
C739 C738 1.374 . S
C740 C737 1.499 . S
C740 C741 1.373 . S
C740 C742 1.389 . S
C741 H720 0.950 . S
C741 C740 1.373 . S
C741 C757 1.377 1_565 S
C742 C740 1.389 . S
C742 C743 1.524 . S
C742 C756 1.377 1_565 S
C743 C742 1.524 . S
C743 C744 1.397 . S
C743 C748 1.363 1_565 S
C744 H721 0.950 . S
C744 C743 1.397 . S
C744 C745 1.334 . S
C745 H722 0.950 . S
C745 C744 1.334 . S
C745 C746 1.287 . S
C746 C745 1.287 . S
C746 C747 1.469 1_565 S
C746 H765 0.913 . S
C747 H723 0.988 . S
C747 C746 1.469 1_545 S
C747 C748 1.428 . S
C748 H724 0.950 . S
C748 C743 1.363 1_545 S
C748 C747 1.428 . S
C749 H725 0.951 . S
C749 C750 1.366 . S
C749 C751 1.388 . S
C750 C749 1.366 . S
C750 C754 1.385 . S
C751 H726 0.951 . S
C751 C749 1.388 . S
C751 C752 1.366 . S
C752 C751 1.366 . S
C752 C753 1.414 . S
C752 C755 1.499 . S
C753 H727 0.950 . S
C753 C752 1.414 . S
C753 C754 1.374 . S
C754 H728 0.950 . S
C754 C750 1.385 . S
C754 C753 1.374 . S
C755 C752 1.499 . S
C755 C756 1.373 . S
C755 C757 1.389 . S
C756 H729 0.950 . S
C756 C742 1.377 1_545 S
C756 C755 1.373 . S
C757 C741 1.377 1_545 S
C757 C755 1.389 . S
C757 C758 1.524 . S
C758 C757 1.524 . S
C758 C759 1.397 . S
C758 C763 1.363 1_545 S
C759 H730 0.950 . S
C759 C758 1.397 . S
C759 C760 1.334 . S
C760 H731 0.950 . S
C760 C759 1.334 . S
C760 C761 1.287 . S
C761 C760 1.287 . S
C761 C762 1.469 1_545 S
C761 H764 0.999 . S
C762 H732 0.988 . S
C762 C761 1.469 1_565 S
C762 C763 1.428 . S
C763 H733 0.950 . S
C763 C758 1.363 1_565 S
C763 C762 1.428 . S
H764 C761 0.999 . S
H765 C746 0.913 . S
H766 C784 0.951 . S
H767 C786 0.951 . S
H768 C788 0.950 . S
H769 C789 0.950 . S
H770 C791 0.950 . S
H771 C794 0.950 . S
H772 C795 0.950 . S
H773 C797 0.950 . S
H774 C798 0.950 . S
H775 C799 0.951 . S
H776 C801 0.951 . S
H777 C803 0.950 . S
H778 C804 0.950 . S
H779 C806 0.950 . S
H780 C809 0.950 . S
H781 C810 0.950 . S
H782 C812 0.950 . S
H783 C813 0.950 . S
C784 H766 0.951 . S
C784 C785 1.366 . S
C784 C786 1.388 . S
C785 C784 1.366 . S
C785 C789 1.385 . S
C786 H767 0.951 . S
C786 C784 1.388 . S
C786 C787 1.366 . S
C787 C786 1.366 . S
C787 C788 1.414 . S
C787 C790 1.499 . S
C788 H768 0.950 . S
C788 C787 1.414 . S
C788 C789 1.374 . S
C789 H769 0.950 . S
C789 C785 1.385 . S
C789 C788 1.374 . S
C790 C787 1.499 . S
C790 C791 1.373 1_556 S
C790 C792 1.389 . S
C791 H770 0.950 . S
C791 C790 1.373 1_554 S
C791 C807 1.377 . S
C792 C790 1.389 . S
C792 C793 1.524 . S
C792 C806 1.377 . S
C793 C792 1.524 . S
C793 C794 1.397 . S
C793 C798 1.363 . S
C794 H771 0.950 . S
C794 C793 1.397 . S
C794 C795 1.334 . S
C795 H772 0.950 . S
C795 C794 1.334 . S
C795 C796 1.287 . S
C796 C795 1.287 . S
C796 C797 1.524 . S
C796 H815 0.913 . S
C797 H773 0.950 . S
C797 C796 1.524 . S
C797 C798 1.415 . S
C798 H774 0.950 . S
C798 C793 1.363 . S
C798 C797 1.415 . S
C799 H775 0.951 . S
C799 C800 1.366 . S
C799 C801 1.388 . S
C800 C799 1.366 . S
C800 C804 1.385 . S
C801 H776 0.951 . S
C801 C799 1.388 . S
C801 C802 1.366 . S
C802 C801 1.366 . S
C802 C803 1.414 . S
C802 C805 1.499 . S
C803 H777 0.950 . S
C803 C802 1.414 . S
C803 C804 1.374 . S
C804 H778 0.950 . S
C804 C800 1.385 . S
C804 C803 1.374 . S
C805 C802 1.499 . S
C805 C806 1.373 1_554 S
C805 C807 1.389 . S
C806 H779 0.950 . S
C806 C792 1.377 . S
C806 C805 1.373 1_556 S
C807 C791 1.377 . S
C807 C805 1.389 . S
C807 C808 1.524 . S
C808 C807 1.524 . S
C808 C809 1.397 . S
C808 C813 1.363 . S
C809 H780 0.950 . S
C809 C808 1.397 . S
C809 C810 1.334 . S
C810 H781 0.950 . S
C810 C809 1.334 . S
C810 C811 1.287 . S
C811 C810 1.287 . S
C811 C812 1.524 . S
C811 H814 0.999 . S
C812 H782 0.950 . S
C812 C811 1.524 . S
C812 C813 1.415 . S
C813 H783 0.950 . S
C813 C808 1.363 . S
C813 C812 1.415 . S
H814 C811 0.999 . S
H815 C796 0.913 . S
H816 C834 0.951 . S
H817 C836 0.951 . S
H818 C838 0.950 . S
H819 C839 0.950 . S
H820 C841 0.950 . S
H821 C844 0.950 . S
H822 C845 0.950 . S
H823 C847 0.950 . S
H824 C848 0.950 . S
H825 C849 0.951 . S
H826 C851 0.951 . S
H827 C853 0.950 . S
H828 C854 0.950 . S
H829 C856 0.950 . S
H830 C859 0.950 . S
H831 C860 0.950 . S
H832 C862 0.950 . S
H833 C863 0.950 . S
C834 H816 0.951 . S
C834 C835 1.366 . S
C834 C836 1.388 . S
C835 C834 1.366 . S
C835 C839 1.385 . S
C836 H817 0.951 . S
C836 C834 1.388 . S
C836 C837 1.366 . S
C837 C836 1.366 . S
C837 C838 1.414 . S
C837 C840 1.499 . S
C838 H818 0.950 . S
C838 C837 1.414 . S
C838 C839 1.374 . S
C839 H819 0.950 . S
C839 C835 1.385 . S
C839 C838 1.374 . S
C840 C837 1.499 . S
C840 C841 1.373 . S
C840 C842 1.389 . S
C841 H820 0.950 . S
C841 C840 1.373 . S
C841 C857 1.377 . S
C842 C840 1.389 . S
C842 C843 1.524 . S
C842 C856 1.377 . S
C843 C842 1.524 . S
C843 C844 1.397 . S
C843 C848 1.363 . S
C844 H821 0.950 . S
C844 C843 1.397 . S
C844 C845 1.334 . S
C845 H822 0.950 . S
C845 C844 1.334 . S
C845 C846 1.287 . S
C846 C845 1.287 . S
C846 C847 1.524 . S
C846 H865 0.913 . S
C847 H823 0.950 . S
C847 C846 1.524 . S
C847 C848 1.415 . S
C848 H824 0.950 . S
C848 C843 1.363 . S
C848 C847 1.415 . S
C849 H825 0.951 . S
C849 C850 1.366 . S
C849 C851 1.388 . S
C850 C849 1.366 . S
C850 C854 1.385 . S
C851 H826 0.951 . S
C851 C849 1.388 . S
C851 C852 1.366 . S
C852 C851 1.366 . S
C852 C853 1.414 . S
C852 C855 1.499 . S
C853 H827 0.950 . S
C853 C852 1.414 . S
C853 C854 1.374 . S
C854 H828 0.950 . S
C854 C850 1.385 . S
C854 C853 1.374 . S
C855 C852 1.499 . S
C855 C856 1.373 . S
C855 C857 1.389 . S
C856 H829 0.950 . S
C856 C842 1.377 . S
C856 C855 1.373 . S
C857 C841 1.377 . S
C857 C855 1.389 . S
C857 C858 1.524 . S
C858 C857 1.524 . S
C858 C859 1.397 . S
C858 C863 1.363 . S
C859 H830 0.950 . S
C859 C858 1.397 . S
C859 C860 1.334 . S
C860 H831 0.950 . S
C860 C859 1.334 . S
C860 C861 1.287 . S
C861 C860 1.287 . S
C861 C862 1.524 . S
C861 H864 0.999 . S
C862 H832 0.950 . S
C862 C861 1.524 . S
C862 C863 1.415 . S
C863 H833 0.950 . S
C863 C858 1.363 . S
C863 C862 1.415 . S
H864 C861 0.999 . S
H865 C846 0.913 . S
H866 C884 0.951 . S
H867 C886 0.951 . S
H868 C888 0.950 . S
H869 C889 0.950 . S
H870 C891 0.950 . S
H871 C894 0.950 . S
H872 C895 0.950 . S
H873 C897 0.950 . S
H874 C898 0.950 . S
H875 C899 0.951 . S
H876 C901 0.951 . S
H877 C903 0.950 . S
H878 C904 0.950 . S
H879 C906 0.950 . S
H880 C909 0.950 . S
H881 C910 0.950 . S
H882 C912 0.950 . S
H883 C913 0.950 . S
C884 H866 0.951 . S
C884 C885 1.366 . S
C884 C886 1.388 . S
C885 C884 1.366 . S
C885 C889 1.385 . S
C886 H867 0.951 . S
C886 C884 1.388 . S
C886 C887 1.366 . S
C887 C886 1.366 . S
C887 C888 1.414 . S
C887 C890 1.499 . S
C888 H868 0.950 . S
C888 C887 1.414 . S
C888 C889 1.374 . S
C889 H869 0.950 . S
C889 C885 1.385 . S
C889 C888 1.374 . S
C890 C887 1.499 . S
C890 C891 1.373 1_556 S
C890 C892 1.389 . S
C891 H870 0.950 . S
C891 C890 1.373 1_554 S
C891 C907 1.377 . S
C892 C890 1.389 . S
C892 C893 1.524 . S
C892 C906 1.377 . S
C893 C892 1.524 . S
C893 C894 1.397 . S
C893 C898 1.363 . S
C894 H871 0.950 . S
C894 C893 1.397 . S
C894 C895 1.334 . S
C895 H872 0.950 . S
C895 C894 1.334 . S
C895 C896 1.287 . S
C896 C895 1.287 . S
C896 C897 1.524 . S
C896 H915 0.913 . S
C897 H873 0.950 . S
C897 C896 1.524 . S
C897 C898 1.415 . S
C898 H874 0.950 . S
C898 C893 1.363 . S
C898 C897 1.415 . S
C899 H875 0.951 . S
C899 C900 1.366 . S
C899 C901 1.388 . S
C900 C899 1.366 . S
C900 C904 1.385 . S
C901 H876 0.951 . S
C901 C899 1.388 . S
C901 C902 1.366 . S
C902 C901 1.366 . S
C902 C903 1.414 . S
C902 C905 1.499 . S
C903 H877 0.950 . S
C903 C902 1.414 . S
C903 C904 1.374 . S
C904 H878 0.950 . S
C904 C900 1.385 . S
C904 C903 1.374 . S
C905 C902 1.499 . S
C905 C906 1.373 1_554 S
C905 C907 1.389 . S
C906 H879 0.950 . S
C906 C892 1.377 . S
C906 C905 1.373 1_556 S
C907 C891 1.377 . S
C907 C905 1.389 . S
C907 C908 1.524 . S
C908 C907 1.524 . S
C908 C909 1.397 . S
C908 C913 1.363 . S
C909 H880 0.950 . S
C909 C908 1.397 . S
C909 C910 1.334 . S
C910 H881 0.950 . S
C910 C909 1.334 . S
C910 C911 1.287 . S
C911 C910 1.287 . S
C911 C912 1.524 . S
C911 H914 0.999 . S
C912 H882 0.950 . S
C912 C911 1.524 . S
C912 C913 1.415 . S
C913 H883 0.950 . S
C913 C908 1.363 . S
C913 C912 1.415 . S
H914 C911 0.999 . S
H915 C896 0.913 . S
H916 C934 0.951 . S
H917 C936 0.951 . S
H918 C938 0.950 . S
H919 C939 0.950 . S
H920 C941 0.950 . S
H921 C944 0.950 . S
H922 C945 0.950 . S
H923 C947 0.950 . S
H924 C948 0.950 . S
H925 C949 0.951 . S
H926 C951 0.951 . S
H927 C953 0.950 . S
H928 C954 0.950 . S
H929 C956 0.950 . S
H930 C959 0.950 . S
H931 C960 0.950 . S
H932 C962 0.950 . S
H933 C963 0.950 . S
C934 H916 0.951 . S
C934 C935 1.366 . S
C934 C936 1.388 . S
C935 C934 1.366 . S
C935 C939 1.385 . S
C936 H917 0.951 . S
C936 C934 1.388 . S
C936 C937 1.366 . S
C937 C936 1.366 . S
C937 C938 1.414 . S
C937 C940 1.499 . S
C938 H918 0.950 . S
C938 C937 1.414 . S
C938 C939 1.374 . S
C939 H919 0.950 . S
C939 C935 1.385 . S
C939 C938 1.374 . S
C940 C937 1.499 . S
C940 C941 1.373 . S
C940 C942 1.389 . S
C941 H920 0.950 . S
C941 C940 1.373 . S
C941 C957 1.377 . S
C942 C940 1.389 . S
C942 C943 1.524 . S
C942 C956 1.377 . S
C943 C942 1.524 . S
C943 C944 1.397 . S
C943 C948 1.363 . S
C944 H921 0.950 . S
C944 C943 1.397 . S
C944 C945 1.334 . S
C945 H922 0.950 . S
C945 C944 1.334 . S
C945 C946 1.287 . S
C946 C945 1.287 . S
C946 C947 1.524 . S
C946 H965 0.913 . S
C947 H923 0.950 . S
C947 C946 1.524 . S
C947 C948 1.415 . S
C948 H924 0.950 . S
C948 C943 1.363 . S
C948 C947 1.415 . S
C949 H925 0.951 . S
C949 C950 1.366 . S
C949 C951 1.388 . S
C950 C949 1.366 . S
C950 C954 1.385 . S
C951 H926 0.951 . S
C951 C949 1.388 . S
C951 C952 1.366 . S
C952 C951 1.366 . S
C952 C953 1.414 . S
C952 C955 1.499 . S
C953 H927 0.950 . S
C953 C952 1.414 . S
C953 C954 1.374 . S
C954 H928 0.950 . S
C954 C950 1.385 . S
C954 C953 1.374 . S
C955 C952 1.499 . S
C955 C956 1.373 . S
C955 C957 1.389 . S
C956 H929 0.950 . S
C956 C942 1.377 . S
C956 C955 1.373 . S
C957 C941 1.377 . S
C957 C955 1.389 . S
C957 C958 1.524 . S
C958 C957 1.524 . S
C958 C959 1.397 . S
C958 C963 1.363 . S
C959 H930 0.950 . S
C959 C958 1.397 . S
C959 C960 1.334 . S
C960 H931 0.950 . S
C960 C959 1.334 . S
C960 C961 1.287 . S
C961 C960 1.287 . S
C961 C962 1.524 . S
C961 H964 0.999 . S
C962 H932 0.950 . S
C962 C961 1.524 . S
C962 C963 1.415 . S
C963 H933 0.950 . S
C963 C958 1.363 . S
C963 C962 1.415 . S
H964 C961 0.999 . S
H965 C946 0.913 . S
H966 C984 0.951 . S
H967 C986 0.951 . S
H968 C988 0.950 . S
H969 C989 0.950 . S
H970 C991 0.950 . S
H971 C994 0.950 . S
H972 C995 0.950 . S
H973 C997 0.950 . S
H974 C998 0.950 . S
H975 C999 0.951 . S
H976 C1001 0.951 . S
H977 C1003 0.950 . S
H978 C1004 0.950 . S
H979 C1006 0.950 . S
H980 C1009 0.950 . S
H981 C1010 0.950 . S
H982 C1012 0.950 . S
H983 C1013 0.950 . S
C984 H966 0.951 . S
C984 C985 1.366 . S
C984 C986 1.388 . S
C985 C984 1.366 . S
C985 C989 1.385 . S
C986 H967 0.951 . S
C986 C984 1.388 . S
C986 C987 1.366 . S
C987 C986 1.366 . S
C987 C988 1.414 . S
C987 C990 1.499 . S
C988 H968 0.950 . S
C988 C987 1.414 . S
C988 C989 1.374 . S
C989 H969 0.950 . S
C989 C985 1.385 . S
C989 C988 1.374 . S
C990 C987 1.499 . S
C990 C991 1.373 . S
C990 C992 1.389 . S
C991 H970 0.950 . S
C991 C990 1.373 . S
C991 C1007 1.377 . S
C992 C990 1.389 . S
C992 C993 1.524 . S
C992 C1006 1.377 . S
C993 C992 1.524 . S
C993 C994 1.397 . S
C993 C998 1.363 . S
C994 H971 0.950 . S
C994 C993 1.397 . S
C994 C995 1.334 . S
C995 H972 0.950 . S
C995 C994 1.334 . S
C995 C996 1.287 . S
C996 C995 1.287 . S
C996 C997 1.524 . S
C996 H1015 0.913 . S
C997 H973 0.950 . S
C997 C996 1.524 . S
C997 C998 1.415 . S
C998 H974 0.950 . S
C998 C993 1.363 . S
C998 C997 1.415 . S
C999 H975 0.951 . S
C999 C1000 1.366 . S
C999 C1001 1.388 . S
C1000 C999 1.366 . S
C1000 C1004 1.385 . S
C1001 H976 0.951 . S
C1001 C999 1.388 . S
C1001 C1002 1.366 . S
C1002 C1001 1.366 . S
C1002 C1003 1.414 . S
C1002 C1005 1.499 . S
C1003 H977 0.950 . S
C1003 C1002 1.414 . S
C1003 C1004 1.374 . S
C1004 H978 0.950 . S
C1004 C1000 1.385 . S
C1004 C1003 1.374 . S
C1005 C1002 1.499 . S
C1005 C1006 1.373 . S
C1005 C1007 1.389 . S
C1006 H979 0.950 . S
C1006 C992 1.377 . S
C1006 C1005 1.373 . S
C1007 C991 1.377 . S
C1007 C1005 1.389 . S
C1007 C1008 1.524 . S
C1008 C1007 1.524 . S
C1008 C1009 1.397 . S
C1008 C1013 1.363 . S
C1009 H980 0.950 . S
C1009 C1008 1.397 . S
C1009 C1010 1.334 . S
C1010 H981 0.950 . S
C1010 C1009 1.334 . S
C1010 C1011 1.287 . S
C1011 C1010 1.287 . S
C1011 C1012 1.524 . S
C1011 H1014 0.999 . S
C1012 H982 0.950 . S
C1012 C1011 1.524 . S
C1012 C1013 1.415 . S
C1013 H983 0.950 . S
C1013 C1008 1.363 . S
C1013 C1012 1.415 . S
H1014 C1011 0.999 . S
H1015 C996 0.913 . S
H1016 C1034 0.951 . S
H1017 C1036 0.951 . S
H1018 C1038 0.950 . S
H1019 C1039 0.950 . S
H1020 C1041 0.950 . S
H1021 C1044 0.950 . S
H1022 C1045 0.950 . S
H1023 C1047 0.950 . S
H1024 C1048 0.950 . S
H1025 C1049 0.951 . S
H1026 C1051 0.951 . S
H1027 C1053 0.950 . S
H1028 C1054 0.950 . S
H1029 C1056 0.950 . S
H1030 C1059 0.950 . S
H1031 C1060 0.950 . S
H1032 C1062 0.950 . S
H1033 C1063 0.950 . S
C1034 H1016 0.951 . S
C1034 C1035 1.366 . S
C1034 C1036 1.388 . S
C1035 C1034 1.366 . S
C1035 C1039 1.385 . S
C1036 H1017 0.951 . S
C1036 C1034 1.388 . S
C1036 C1037 1.366 . S
C1037 C1036 1.366 . S
C1037 C1038 1.414 . S
C1037 C1040 1.499 . S
C1038 H1018 0.950 . S
C1038 C1037 1.414 . S
C1038 C1039 1.374 . S
C1039 H1019 0.950 . S
C1039 C1035 1.385 . S
C1039 C1038 1.374 . S
C1040 C1037 1.499 . S
C1040 C1041 1.373 . S
C1040 C1042 1.389 . S
C1041 H1020 0.950 . S
C1041 C1040 1.373 . S
C1041 C1057 1.377 . S
C1042 C1040 1.389 . S
C1042 C1043 1.524 . S
C1042 C1056 1.377 . S
C1043 C1042 1.524 . S
C1043 C1044 1.397 . S
C1043 C1048 1.363 . S
C1044 H1021 0.950 . S
C1044 C1043 1.397 . S
C1044 C1045 1.334 . S
C1045 H1022 0.950 . S
C1045 C1044 1.334 . S
C1045 C1046 1.287 . S
C1046 C1045 1.287 . S
C1046 C1047 1.524 . S
C1046 H1065 0.913 . S
C1047 H1023 0.950 . S
C1047 C1046 1.524 . S
C1047 C1048 1.415 . S
C1048 H1024 0.950 . S
C1048 C1043 1.363 . S
C1048 C1047 1.415 . S
C1049 H1025 0.951 . S
C1049 C1050 1.366 . S
C1049 C1051 1.388 . S
C1050 C1049 1.366 . S
C1050 C1054 1.385 . S
C1051 H1026 0.951 . S
C1051 C1049 1.388 . S
C1051 C1052 1.366 . S
C1052 C1051 1.366 . S
C1052 C1053 1.414 . S
C1052 C1055 1.499 . S
C1053 H1027 0.950 . S
C1053 C1052 1.414 . S
C1053 C1054 1.374 . S
C1054 H1028 0.950 . S
C1054 C1050 1.385 . S
C1054 C1053 1.374 . S
C1055 C1052 1.499 . S
C1055 C1056 1.373 . S
C1055 C1057 1.389 . S
C1056 H1029 0.950 . S
C1056 C1042 1.377 . S
C1056 C1055 1.373 . S
C1057 C1041 1.377 . S
C1057 C1055 1.389 . S
C1057 C1058 1.524 . S
C1058 C1057 1.524 . S
C1058 C1059 1.397 . S
C1058 C1063 1.363 . S
C1059 H1030 0.950 . S
C1059 C1058 1.397 . S
C1059 C1060 1.334 . S
C1060 H1031 0.950 . S
C1060 C1059 1.334 . S
C1060 C1061 1.287 . S
C1061 C1060 1.287 . S
C1061 C1062 1.524 . S
C1061 H1064 0.999 . S
C1062 H1032 0.950 . S
C1062 C1061 1.524 . S
C1062 C1063 1.415 . S
C1063 H1033 0.950 . S
C1063 C1058 1.363 . S
C1063 C1062 1.415 . S
H1064 C1061 0.999 . S
H1065 C1046 0.913 . S
H1066 C1084 0.951 . S
H1067 C1086 0.951 . S
H1068 C1088 0.950 . S
H1069 C1089 0.950 . S
H1070 C1091 0.952 . S
H1071 C1094 0.950 . S
H1072 C1095 0.950 . S
H1073 C1097 0.950 . S
H1074 C1098 0.950 . S
H1075 C1099 0.951 . S
H1076 C1101 0.951 . S
H1077 C1103 0.950 . S
H1078 C1104 0.950 . S
H1079 C1106 0.952 . S
H1080 C1109 0.950 . S
H1081 C1110 0.950 . S
H1082 C1112 0.950 . S
H1083 C1113 0.950 . S
C1084 H1066 0.951 . S
C1084 C1085 1.366 . S
C1084 C1086 1.388 . S
C1085 C1084 1.366 . S
C1085 C1089 1.385 . S
C1086 H1067 0.951 . S
C1086 C1084 1.388 . S
C1086 C1087 1.366 . S
C1087 C1086 1.366 . S
C1087 C1088 1.414 . S
C1087 C1090 1.499 . S
C1088 H1068 0.950 . S
C1088 C1087 1.414 . S
C1088 C1089 1.374 . S
C1089 H1069 0.950 . S
C1089 C1085 1.385 . S
C1089 C1088 1.374 . S
C1090 C1087 1.499 . S
C1090 C1091 1.354 1_554 S
C1090 C1092 1.389 . S
C1091 H1070 0.952 . S
C1091 C1090 1.354 1_556 S
C1091 C1107 1.395 . S
C1092 C1090 1.389 . S
C1092 C1093 1.524 . S
C1092 C1106 1.395 . S
C1093 C1092 1.524 . S
C1093 C1094 1.397 . S
C1093 C1098 1.363 . S
C1094 H1071 0.950 . S
C1094 C1093 1.397 . S
C1094 C1095 1.334 . S
C1095 H1072 0.950 . S
C1095 C1094 1.334 . S
C1095 C1096 1.287 . S
C1096 C1095 1.287 . S
C1096 C1097 1.524 . S
C1096 H1115 0.913 . S
C1097 H1073 0.950 . S
C1097 C1096 1.524 . S
C1097 C1098 1.415 . S
C1098 H1074 0.950 . S
C1098 C1093 1.363 . S
C1098 C1097 1.415 . S
C1099 H1075 0.951 . S
C1099 C1100 1.366 . S
C1099 C1101 1.388 . S
C1100 C1099 1.366 . S
C1100 C1104 1.385 . S
C1101 H1076 0.951 . S
C1101 C1099 1.388 . S
C1101 C1102 1.366 . S
C1102 C1101 1.366 . S
C1102 C1103 1.414 . S
C1102 C1105 1.499 . S
C1103 H1077 0.950 . S
C1103 C1102 1.414 . S
C1103 C1104 1.374 . S
C1104 H1078 0.950 . S
C1104 C1100 1.385 . S
C1104 C1103 1.374 . S
C1105 C1102 1.499 . S
C1105 C1106 1.354 1_556 S
C1105 C1107 1.389 . S
C1106 H1079 0.952 . S
C1106 C1092 1.395 . S
C1106 C1105 1.354 1_554 S
C1107 C1091 1.395 . S
C1107 C1105 1.389 . S
C1107 C1108 1.524 . S
C1108 C1107 1.524 . S
C1108 C1109 1.397 . S
C1108 C1113 1.363 . S
C1109 H1080 0.950 . S
C1109 C1108 1.397 . S
C1109 C1110 1.334 . S
C1110 H1081 0.950 . S
C1110 C1109 1.334 . S
C1110 C1111 1.287 . S
C1111 C1110 1.287 . S
C1111 C1112 1.524 . S
C1111 H1114 0.999 . S
C1112 H1082 0.950 . S
C1112 C1111 1.524 . S
C1112 C1113 1.415 . S
C1113 H1083 0.950 . S
C1113 C1108 1.363 . S
C1113 C1112 1.415 . S
H1114 C1111 0.999 . S
H1115 C1096 0.913 . S
H1116 C1134 0.951 . S
H1117 C1136 0.951 . S
H1118 C1138 0.950 . S
H1119 C1139 0.950 . S
H1120 C1141 0.950 . S
H1121 C1144 0.950 . S
H1122 C1145 0.950 . S
H1123 C1147 0.950 . S
H1124 C1148 0.950 . S
H1125 C1149 0.951 . S
H1126 C1151 0.951 . S
H1127 C1153 0.950 . S
H1128 C1154 0.950 . S
H1129 C1156 0.950 . S
H1130 C1159 0.950 . S
H1131 C1160 0.950 . S
H1132 C1162 0.950 . S
H1133 C1163 0.950 . S
C1134 H1116 0.951 . S
C1134 C1135 1.366 . S
C1134 C1136 1.388 . S
C1135 C1134 1.366 . S
C1135 C1139 1.385 . S
C1136 H1117 0.951 . S
C1136 C1134 1.388 . S
C1136 C1137 1.366 . S
C1137 C1136 1.366 . S
C1137 C1138 1.414 . S
C1137 C1140 1.499 . S
C1138 H1118 0.950 . S
C1138 C1137 1.414 . S
C1138 C1139 1.374 . S
C1139 H1119 0.950 . S
C1139 C1135 1.385 . S
C1139 C1138 1.374 . S
C1140 C1137 1.499 . S
C1140 C1141 1.373 . S
C1140 C1142 1.389 . S
C1141 H1120 0.950 . S
C1141 C1140 1.373 . S
C1141 C1157 1.377 . S
C1142 C1140 1.389 . S
C1142 C1143 1.524 . S
C1142 C1156 1.377 . S
C1143 C1142 1.524 . S
C1143 C1144 1.397 . S
C1143 C1148 1.363 . S
C1144 H1121 0.950 . S
C1144 C1143 1.397 . S
C1144 C1145 1.334 . S
C1145 H1122 0.950 . S
C1145 C1144 1.334 . S
C1145 C1146 1.287 . S
C1146 C1145 1.287 . S
C1146 C1147 1.524 . S
C1146 H1165 0.913 . S
C1147 H1123 0.950 . S
C1147 C1146 1.524 . S
C1147 C1148 1.415 . S
C1148 H1124 0.950 . S
C1148 C1143 1.363 . S
C1148 C1147 1.415 . S
C1149 H1125 0.951 . S
C1149 C1150 1.366 . S
C1149 C1151 1.388 . S
C1150 C1149 1.366 . S
C1150 C1154 1.385 . S
C1151 H1126 0.951 . S
C1151 C1149 1.388 . S
C1151 C1152 1.366 . S
C1152 C1151 1.366 . S
C1152 C1153 1.414 . S
C1152 C1155 1.499 . S
C1153 H1127 0.950 . S
C1153 C1152 1.414 . S
C1153 C1154 1.374 . S
C1154 H1128 0.950 . S
C1154 C1150 1.385 . S
C1154 C1153 1.374 . S
C1155 C1152 1.499 . S
C1155 C1156 1.373 . S
C1155 C1157 1.389 . S
C1156 H1129 0.950 . S
C1156 C1142 1.377 . S
C1156 C1155 1.373 . S
C1157 C1141 1.377 . S
C1157 C1155 1.389 . S
C1157 C1158 1.524 . S
C1158 C1157 1.524 . S
C1158 C1159 1.397 . S
C1158 C1163 1.363 . S
C1159 H1130 0.950 . S
C1159 C1158 1.397 . S
C1159 C1160 1.334 . S
C1160 H1131 0.950 . S
C1160 C1159 1.334 . S
C1160 C1161 1.287 . S
C1161 C1160 1.287 . S
C1161 C1162 1.524 . S
C1161 H1164 0.999 . S
C1162 H1132 0.950 . S
C1162 C1161 1.524 . S
C1162 C1163 1.415 . S
C1163 H1133 0.950 . S
C1163 C1158 1.363 . S
C1163 C1162 1.415 . S
H1164 C1161 0.999 . S
H1165 C1146 0.913 . S
H1166 C1184 0.951 . S
H1167 C1186 0.951 . S
H1168 C1188 0.950 . S
H1169 C1189 0.950 . S
H1170 C1191 0.950 . S
H1171 C1194 0.950 . S
H1172 C1195 0.950 . S
H1173 C1197 0.950 . S
H1174 C1198 0.950 . S
H1175 C1199 0.951 . S
H1176 C1201 0.951 . S
H1177 C1203 0.950 . S
H1178 C1204 0.950 . S
H1179 C1206 0.950 . S
H1180 C1209 0.950 . S
H1181 C1210 0.950 . S
H1182 C1212 0.950 . S
H1183 C1213 0.950 . S
C1184 H1166 0.951 . S
C1184 C1185 1.366 . S
C1184 C1186 1.388 . S
C1185 C1184 1.366 . S
C1185 C1189 1.385 . S
C1186 H1167 0.951 . S
C1186 C1184 1.388 . S
C1186 C1187 1.366 . S
C1187 C1186 1.366 . S
C1187 C1188 1.414 . S
C1187 C1190 1.499 . S
C1188 H1168 0.950 . S
C1188 C1187 1.414 . S
C1188 C1189 1.374 . S
C1189 H1169 0.950 . S
C1189 C1185 1.385 . S
C1189 C1188 1.374 . S
C1190 C1187 1.499 . S
C1190 C1191 1.373 . S
C1190 C1192 1.389 . S
C1191 H1170 0.950 . S
C1191 C1190 1.373 . S
C1191 C1207 1.377 . S
C1192 C1190 1.389 . S
C1192 C1193 1.524 . S
C1192 C1206 1.377 . S
C1193 C1192 1.524 . S
C1193 C1194 1.397 . S
C1193 C1198 1.363 . S
C1194 H1171 0.950 . S
C1194 C1193 1.397 . S
C1194 C1195 1.334 . S
C1195 H1172 0.950 . S
C1195 C1194 1.334 . S
C1195 C1196 1.287 . S
C1196 C1195 1.287 . S
C1196 C1197 1.524 . S
C1196 H1215 0.913 . S
C1197 H1173 0.950 . S
C1197 C1196 1.524 . S
C1197 C1198 1.415 . S
C1198 H1174 0.950 . S
C1198 C1193 1.363 . S
C1198 C1197 1.415 . S
C1199 H1175 0.951 . S
C1199 C1200 1.366 . S
C1199 C1201 1.388 . S
C1200 C1199 1.366 . S
C1200 C1204 1.385 . S
C1201 H1176 0.951 . S
C1201 C1199 1.388 . S
C1201 C1202 1.366 . S
C1202 C1201 1.366 . S
C1202 C1203 1.414 . S
C1202 C1205 1.499 . S
C1203 H1177 0.950 . S
C1203 C1202 1.414 . S
C1203 C1204 1.374 . S
C1204 H1178 0.950 . S
C1204 C1200 1.385 . S
C1204 C1203 1.374 . S
C1205 C1202 1.499 . S
C1205 C1206 1.373 . S
C1205 C1207 1.389 . S
C1206 H1179 0.950 . S
C1206 C1192 1.377 . S
C1206 C1205 1.373 . S
C1207 C1191 1.377 . S
C1207 C1205 1.389 . S
C1207 C1208 1.524 . S
C1208 C1207 1.524 . S
C1208 C1209 1.397 . S
C1208 C1213 1.363 . S
C1209 H1180 0.950 . S
C1209 C1208 1.397 . S
C1209 C1210 1.334 . S
C1210 H1181 0.950 . S
C1210 C1209 1.334 . S
C1210 C1211 1.287 . S
C1211 C1210 1.287 . S
C1211 C1212 1.524 . S
C1211 H1214 0.999 . S
C1212 H1182 0.950 . S
C1212 C1211 1.524 . S
C1212 C1213 1.415 . S
C1213 H1183 0.950 . S
C1213 C1208 1.363 . S
C1213 C1212 1.415 . S
H1214 C1211 0.999 . S
H1215 C1196 0.913 . S
H1216 C1234 0.951 . S
H1217 C1236 0.951 . S
H1218 C1238 0.950 . S
H1219 C1239 0.950 . S
H1220 C1241 0.950 . S
H1221 C1244 0.950 . S
H1222 C1245 0.950 . S
H1223 C1247 0.950 . S
H1224 C1248 0.950 . S
H1225 C1249 0.951 . S
H1226 C1251 0.951 . S
H1227 C1253 0.950 . S
H1228 C1254 0.950 . S
H1229 C1256 0.950 . S
H1230 C1259 0.950 . S
H1231 C1260 0.950 . S
H1232 C1262 0.950 . S
H1233 C1263 0.950 . S
C1234 H1216 0.951 . S
C1234 C1235 1.366 . S
C1234 C1236 1.388 . S
C1235 C1234 1.366 . S
C1235 C1239 1.385 . S
C1236 H1217 0.951 . S
C1236 C1234 1.388 . S
C1236 C1237 1.366 . S
C1237 C1236 1.366 . S
C1237 C1238 1.414 . S
C1237 C1240 1.499 . S
C1238 H1218 0.950 . S
C1238 C1237 1.414 . S
C1238 C1239 1.374 . S
C1239 H1219 0.950 . S
C1239 C1235 1.385 . S
C1239 C1238 1.374 . S
C1240 C1237 1.499 . S
C1240 C1241 1.373 . S
C1240 C1242 1.389 . S
C1241 H1220 0.950 . S
C1241 C1240 1.373 . S
C1241 C1257 1.377 . S
C1242 C1240 1.389 . S
C1242 C1243 1.524 . S
C1242 C1256 1.377 . S
C1243 C1242 1.524 . S
C1243 C1244 1.397 . S
C1243 C1248 1.363 . S
C1244 H1221 0.950 . S
C1244 C1243 1.397 . S
C1244 C1245 1.334 . S
C1245 H1222 0.950 . S
C1245 C1244 1.334 . S
C1245 C1246 1.287 . S
C1246 C1245 1.287 . S
C1246 C1247 1.524 . S
C1246 H1265 0.913 . S
C1247 H1223 0.950 . S
C1247 C1246 1.524 . S
C1247 C1248 1.415 . S
C1248 H1224 0.950 . S
C1248 C1243 1.363 . S
C1248 C1247 1.415 . S
C1249 H1225 0.951 . S
C1249 C1250 1.366 . S
C1249 C1251 1.388 . S
C1250 C1249 1.366 . S
C1250 C1254 1.385 . S
C1251 H1226 0.951 . S
C1251 C1249 1.388 . S
C1251 C1252 1.366 . S
C1252 C1251 1.366 . S
C1252 C1253 1.414 . S
C1252 C1255 1.499 . S
C1253 H1227 0.950 . S
C1253 C1252 1.414 . S
C1253 C1254 1.374 . S
C1254 H1228 0.950 . S
C1254 C1250 1.385 . S
C1254 C1253 1.374 . S
C1255 C1252 1.499 . S
C1255 C1256 1.373 . S
C1255 C1257 1.389 . S
C1256 H1229 0.950 . S
C1256 C1242 1.377 . S
C1256 C1255 1.373 . S
C1257 C1241 1.377 . S
C1257 C1255 1.389 . S
C1257 C1258 1.524 . S
C1258 C1257 1.524 . S
C1258 C1259 1.397 . S
C1258 C1263 1.363 . S
C1259 H1230 0.950 . S
C1259 C1258 1.397 . S
C1259 C1260 1.334 . S
C1260 H1231 0.950 . S
C1260 C1259 1.334 . S
C1260 C1261 1.287 . S
C1261 C1260 1.287 . S
C1261 C1262 1.524 . S
C1261 H1264 0.999 . S
C1262 H1232 0.950 . S
C1262 C1261 1.524 . S
C1262 C1263 1.415 . S
C1263 H1233 0.950 . S
C1263 C1258 1.363 . S
C1263 C1262 1.415 . S
H1264 C1261 0.999 . S
H1265 C1246 0.913 . S
H1266 C1284 0.951 . S
H1267 C1286 0.951 . S
H1268 C1288 0.950 . S
H1269 C1289 0.950 . S
H1270 C1291 0.950 . S
H1271 C1294 0.950 1_655 S
H1272 C1295 0.950 . S
H1273 C1297 0.950 . S
H1274 C1298 0.950 . S
H1275 C1299 0.951 . S
H1276 C1301 0.951 . S
H1277 C1303 0.950 . S
H1278 C1304 0.950 . S
H1279 C1306 0.950 . S
H1280 C1309 0.950 . S
H1281 C1310 0.950 . S
H1282 C1312 0.950 . S
H1283 C1313 0.950 . S
C1284 H1266 0.951 . S
C1284 C1285 1.366 . S
C1284 C1286 1.388 . S
C1285 C1284 1.366 . S
C1285 C1289 1.385 . S
C1286 H1267 0.951 . S
C1286 C1284 1.388 . S
C1286 C1287 1.366 . S
C1287 C1286 1.366 . S
C1287 C1288 1.414 . S
C1287 C1290 1.499 1_655 S
C1288 H1268 0.950 . S
C1288 C1287 1.414 . S
C1288 C1289 1.374 . S
C1289 H1269 0.950 . S
C1289 C1285 1.385 . S
C1289 C1288 1.374 . S
C1290 C1287 1.499 1_455 S
C1290 C1291 1.373 . S
C1290 C1292 1.389 . S
C1291 H1270 0.950 . S
C1291 C1290 1.373 . S
C1291 C1307 1.377 . S
C1292 C1290 1.389 . S
C1292 C1293 1.524 . S
C1292 C1306 1.377 . S
C1293 C1292 1.524 . S
C1293 C1294 1.397 . S
C1293 C1298 1.363 . S
C1294 H1271 0.950 1_455 S
C1294 C1293 1.397 . S
C1294 C1295 1.334 1_455 S
C1295 H1272 0.950 . S
C1295 C1294 1.334 1_655 S
C1295 C1296 1.287 1_655 S
C1296 C1295 1.287 1_455 S
C1296 C1297 1.524 . S
C1296 H1315 0.931 . S
C1297 H1273 0.950 . S
C1297 C1296 1.524 . S
C1297 C1298 1.415 . S
C1298 H1274 0.950 . S
C1298 C1293 1.363 . S
C1298 C1297 1.415 . S
C1299 H1275 0.951 . S
C1299 C1300 1.366 . S
C1299 C1301 1.388 . S
C1300 C1299 1.366 . S
C1300 C1304 1.385 . S
C1301 H1276 0.951 . S
C1301 C1299 1.388 . S
C1301 C1302 1.366 . S
C1302 C1301 1.366 . S
C1302 C1303 1.414 . S
C1302 C1305 1.499 . S
C1303 H1277 0.950 . S
C1303 C1302 1.414 . S
C1303 C1304 1.374 . S
C1304 H1278 0.950 . S
C1304 C1300 1.385 . S
C1304 C1303 1.374 . S
C1305 C1302 1.499 . S
C1305 C1306 1.373 . S
C1305 C1307 1.389 . S
C1306 H1279 0.950 . S
C1306 C1292 1.377 . S
C1306 C1305 1.373 . S
C1307 C1291 1.377 . S
C1307 C1305 1.389 . S
C1307 C1308 1.524 . S
C1308 C1307 1.524 . S
C1308 C1309 1.397 . S
C1308 C1313 1.363 . S
C1309 H1280 0.950 . S
C1309 C1308 1.397 . S
C1309 C1310 1.334 . S
C1310 H1281 0.950 . S
C1310 C1309 1.334 . S
C1310 C1311 1.287 . S
C1311 C1310 1.287 . S
C1311 C1312 1.524 . S
C1311 H1314 0.999 . S
C1312 H1282 0.950 . S
C1312 C1311 1.524 . S
C1312 C1313 1.415 . S
C1313 H1283 0.950 . S
C1313 C1308 1.363 . S
C1313 C1312 1.415 . S
H1314 C1311 0.999 . S
H1315 C1296 0.931 . S
H1316 C1334 0.951 . S
H1317 C1336 0.951 . S
H1318 C1338 0.950 . S
H1319 C1339 0.950 . S
H1320 C1341 0.950 . S
H1321 C1344 0.950 . S
H1322 C1345 0.950 . S
H1323 C1347 0.950 . S
H1324 C1348 0.950 . S
H1325 C1349 0.951 . S
H1326 C1351 0.951 . S
H1327 C1353 0.950 . S
H1328 C1354 0.950 . S
H1329 C1356 0.950 . S
H1330 C1359 0.950 . S
H1331 C1360 0.950 . S
H1332 C1362 0.950 . S
H1333 C1363 0.950 . S
C1334 H1316 0.951 . S
C1334 C1335 1.366 . S
C1334 C1336 1.388 . S
C1335 C1334 1.366 . S
C1335 C1339 1.385 . S
C1336 H1317 0.951 . S
C1336 C1334 1.388 . S
C1336 C1337 1.366 . S
C1337 C1336 1.366 . S
C1337 C1338 1.414 . S
C1337 C1340 1.499 . S
C1338 H1318 0.950 . S
C1338 C1337 1.414 . S
C1338 C1339 1.374 . S
C1339 H1319 0.950 . S
C1339 C1335 1.385 . S
C1339 C1338 1.374 . S
C1340 C1337 1.499 . S
C1340 C1341 1.373 . S
C1340 C1342 1.389 . S
C1341 H1320 0.950 . S
C1341 C1340 1.373 . S
C1341 C1357 1.377 . S
C1342 C1340 1.389 . S
C1342 C1343 1.524 . S
C1342 C1356 1.377 . S
C1343 C1342 1.524 . S
C1343 C1344 1.397 . S
C1343 C1348 1.363 . S
C1344 H1321 0.950 . S
C1344 C1343 1.397 . S
C1344 C1345 1.334 . S
C1345 H1322 0.950 . S
C1345 C1344 1.334 . S
C1345 C1346 1.287 . S
C1346 C1345 1.287 . S
C1346 C1347 1.524 . S
C1346 H1365 0.913 . S
C1347 H1323 0.950 . S
C1347 C1346 1.524 . S
C1347 C1348 1.415 . S
C1348 H1324 0.950 . S
C1348 C1343 1.363 . S
C1348 C1347 1.415 . S
C1349 H1325 0.951 . S
C1349 C1350 1.366 . S
C1349 C1351 1.388 . S
C1350 C1349 1.366 . S
C1350 C1354 1.385 . S
C1351 H1326 0.951 . S
C1351 C1349 1.388 . S
C1351 C1352 1.366 . S
C1352 C1351 1.366 . S
C1352 C1353 1.414 . S
C1352 C1355 1.499 . S
C1353 H1327 0.950 . S
C1353 C1352 1.414 . S
C1353 C1354 1.374 . S
C1354 H1328 0.950 . S
C1354 C1350 1.385 . S
C1354 C1353 1.374 . S
C1355 C1352 1.499 . S
C1355 C1356 1.373 . S
C1355 C1357 1.389 . S
C1356 H1329 0.950 . S
C1356 C1342 1.377 . S
C1356 C1355 1.373 . S
C1357 C1341 1.377 . S
C1357 C1355 1.389 . S
C1357 C1358 1.524 . S
C1358 C1357 1.524 . S
C1358 C1359 1.397 . S
C1358 C1363 1.363 . S
C1359 H1330 0.950 . S
C1359 C1358 1.397 . S
C1359 C1360 1.334 . S
C1360 H1331 0.950 . S
C1360 C1359 1.334 . S
C1360 C1361 1.287 . S
C1361 C1360 1.287 . S
C1361 C1362 1.524 . S
C1361 H1364 0.999 . S
C1362 H1332 0.950 . S
C1362 C1361 1.524 . S
C1362 C1363 1.415 . S
C1363 H1333 0.950 . S
C1363 C1358 1.363 . S
C1363 C1362 1.415 . S
H1364 C1361 0.999 . S
H1365 C1346 0.913 . S
H1366 C1384 0.951 . S
H1367 C1386 0.951 . S
H1368 C1388 0.950 . S
H1369 C1389 0.950 . S
H1370 C1391 0.950 . S
H1371 C1394 0.950 . S
H1372 C1395 0.950 . S
H1373 C1397 0.950 1_556 S
H1374 C1398 0.950 . S
H1375 C1399 0.951 . S
H1376 C1401 0.951 . S
H1377 C1403 0.950 . S
H1378 C1404 0.950 . S
H1379 C1406 0.950 . S
H1380 C1409 0.950 . S
H1381 C1410 0.950 . S
H1382 C1412 0.950 . S
H1383 C1413 0.950 . S
C1384 H1366 0.951 . S
C1384 C1385 1.366 . S
C1384 C1386 1.388 . S
C1385 C1384 1.366 . S
C1385 C1389 1.385 . S
C1386 H1367 0.951 . S
C1386 C1384 1.388 . S
C1386 C1387 1.366 . S
C1387 C1386 1.366 . S
C1387 C1388 1.414 . S
C1387 C1390 1.499 . S
C1388 H1368 0.950 . S
C1388 C1387 1.414 . S
C1388 C1389 1.374 . S
C1389 H1369 0.950 . S
C1389 C1385 1.385 . S
C1389 C1388 1.374 . S
C1390 C1387 1.499 . S
C1390 C1391 1.373 . S
C1390 C1392 1.389 . S
C1391 H1370 0.950 . S
C1391 C1390 1.373 . S
C1391 C1407 1.377 . S
C1392 C1390 1.389 . S
C1392 C1393 1.524 . S
C1392 C1406 1.377 . S
C1393 C1392 1.524 . S
C1393 C1394 1.397 . S
C1393 C1398 1.363 . S
C1394 H1371 0.950 . S
C1394 C1393 1.397 . S
C1394 C1395 1.334 . S
C1395 H1372 0.950 . S
C1395 C1394 1.334 . S
C1395 C1396 1.287 . S
C1396 C1395 1.287 . S
C1396 C1397 1.524 . S
C1396 H1415 0.913 . S
C1397 H1373 0.950 1_554 S
C1397 C1396 1.524 . S
C1397 C1398 1.415 . S
C1398 H1374 0.950 . S
C1398 C1393 1.363 . S
C1398 C1397 1.415 . S
C1399 H1375 0.951 . S
C1399 C1400 1.366 . S
C1399 C1401 1.388 . S
C1400 C1399 1.366 . S
C1400 C1404 1.385 . S
C1401 H1376 0.951 . S
C1401 C1399 1.388 . S
C1401 C1402 1.366 . S
C1402 C1401 1.366 . S
C1402 C1403 1.414 . S
C1402 C1405 1.499 . S
C1403 H1377 0.950 . S
C1403 C1402 1.414 . S
C1403 C1404 1.374 . S
C1404 H1378 0.950 . S
C1404 C1400 1.385 . S
C1404 C1403 1.374 . S
C1405 C1402 1.499 . S
C1405 C1406 1.373 . S
C1405 C1407 1.389 . S
C1406 H1379 0.950 . S
C1406 C1392 1.377 . S
C1406 C1405 1.373 . S
C1407 C1391 1.377 . S
C1407 C1405 1.389 . S
C1407 C1408 1.524 . S
C1408 C1407 1.524 . S
C1408 C1409 1.397 . S
C1408 C1413 1.363 . S
C1409 H1380 0.950 . S
C1409 C1408 1.397 . S
C1409 C1410 1.334 . S
C1410 H1381 0.950 . S
C1410 C1409 1.334 . S
C1410 C1411 1.287 . S
C1411 C1410 1.287 . S
C1411 C1412 1.524 . S
C1411 H1414 0.999 . S
C1412 H1382 0.950 . S
C1412 C1411 1.524 . S
C1412 C1413 1.415 . S
C1413 H1383 0.950 . S
C1413 C1408 1.363 . S
C1413 C1412 1.415 . S
H1414 C1411 0.999 . S
H1415 C1396 0.913 . S
H1416 C1434 0.951 . S
H1417 C1436 0.951 . S
H1418 C1438 0.950 . S
H1419 C1439 0.950 . S
H1420 C1441 0.950 . S
H1421 C1444 0.950 . S
H1422 C1445 0.950 . S
H1423 C1447 0.950 . S
H1424 C1448 0.950 . S
H1425 C1449 0.951 . S
H1426 C1451 0.951 . S
H1427 C1453 0.950 . S
H1428 C1454 0.950 . S
H1429 C1456 0.950 . S
H1430 C1459 0.950 . S
H1431 C1460 0.950 . S
H1432 C1462 0.950 . S
H1433 C1463 0.950 . S
C1434 H1416 0.951 . S
C1434 C1435 1.366 . S
C1434 C1436 1.388 . S
C1435 C1434 1.366 . S
C1435 C1439 1.385 . S
C1436 H1417 0.951 . S
C1436 C1434 1.388 . S
C1436 C1437 1.366 . S
C1437 C1436 1.366 . S
C1437 C1438 1.414 . S
C1437 C1440 1.499 . S
C1438 H1418 0.950 . S
C1438 C1437 1.414 . S
C1438 C1439 1.374 . S
C1439 H1419 0.950 . S
C1439 C1435 1.385 . S
C1439 C1438 1.374 . S
C1440 C1437 1.499 . S
C1440 C1441 1.373 . S
C1440 C1442 1.389 . S
C1441 H1420 0.950 . S
C1441 C1440 1.373 . S
C1441 C1457 1.377 . S
C1442 C1440 1.389 . S
C1442 C1443 1.524 . S
C1442 C1456 1.377 . S
C1443 C1442 1.524 . S
C1443 C1444 1.397 . S
C1443 C1448 1.363 . S
C1444 H1421 0.950 . S
C1444 C1443 1.397 . S
C1444 C1445 1.334 . S
C1445 H1422 0.950 . S
C1445 C1444 1.334 . S
C1445 C1446 1.287 . S
C1446 C1445 1.287 . S
C1446 C1447 1.524 . S
C1446 H1465 0.913 . S
C1447 H1423 0.950 . S
C1447 C1446 1.524 . S
C1447 C1448 1.415 . S
C1448 H1424 0.950 . S
C1448 C1443 1.363 . S
C1448 C1447 1.415 . S
C1449 H1425 0.951 . S
C1449 C1450 1.366 . S
C1449 C1451 1.388 . S
C1450 C1449 1.366 . S
C1450 C1454 1.385 . S
C1451 H1426 0.951 . S
C1451 C1449 1.388 . S
C1451 C1452 1.366 . S
C1452 C1451 1.366 . S
C1452 C1453 1.414 . S
C1452 C1455 1.499 . S
C1453 H1427 0.950 . S
C1453 C1452 1.414 . S
C1453 C1454 1.374 . S
C1454 H1428 0.950 . S
C1454 C1450 1.385 . S
C1454 C1453 1.374 . S
C1455 C1452 1.499 . S
C1455 C1456 1.373 . S
C1455 C1457 1.389 . S
C1456 H1429 0.950 . S
C1456 C1442 1.377 . S
C1456 C1455 1.373 . S
C1457 C1441 1.377 . S
C1457 C1455 1.389 . S
C1457 C1458 1.524 . S
C1458 C1457 1.524 . S
C1458 C1459 1.397 . S
C1458 C1463 1.363 . S
C1459 H1430 0.950 . S
C1459 C1458 1.397 . S
C1459 C1460 1.334 . S
C1460 H1431 0.950 . S
C1460 C1459 1.334 . S
C1460 C1461 1.287 . S
C1461 C1460 1.287 . S
C1461 C1462 1.524 . S
C1461 H1464 0.999 . S
C1462 H1432 0.950 . S
C1462 C1461 1.524 . S
C1462 C1463 1.415 . S
C1463 H1433 0.950 . S
C1463 C1458 1.363 . S
C1463 C1462 1.415 . S
H1464 C1461 0.999 . S
H1465 C1446 0.913 . S
H1466 C1484 0.951 . S
H1467 C1486 0.951 . S
H1468 C1488 0.950 . S
H1469 C1489 0.950 . S
H1470 C1491 0.950 . S
H1471 C1494 0.950 . S
H1472 C1495 0.950 . S
H1473 C1497 0.950 . S
H1474 C1498 0.950 . S
H1475 C1499 0.951 . S
H1476 C1501 0.951 . S
H1477 C1503 0.950 . S
H1478 C1504 0.950 . S
H1479 C1506 0.950 . S
H1480 C1509 0.950 . S
H1481 C1510 0.950 . S
H1482 C1512 0.950 . S
H1483 C1513 0.950 . S
C1484 H1466 0.951 . S
C1484 C1485 1.366 . S
C1484 C1486 1.388 . S
C1485 C1484 1.366 . S
C1485 C1489 1.385 . S
C1486 H1467 0.951 . S
C1486 C1484 1.388 . S
C1486 C1487 1.366 . S
C1487 C1486 1.366 . S
C1487 C1488 1.414 . S
C1487 C1490 1.499 . S
C1488 H1468 0.950 . S
C1488 C1487 1.414 . S
C1488 C1489 1.374 . S
C1489 H1469 0.950 . S
C1489 C1485 1.385 . S
C1489 C1488 1.374 . S
C1490 C1487 1.499 . S
C1490 C1491 1.373 . S
C1490 C1492 1.389 . S
C1491 H1470 0.950 . S
C1491 C1490 1.373 . S
C1491 C1507 1.377 . S
C1492 C1490 1.389 . S
C1492 C1493 1.524 . S
C1492 C1506 1.377 . S
C1493 C1492 1.524 . S
C1493 C1494 1.397 . S
C1493 C1498 1.363 . S
C1494 H1471 0.950 . S
C1494 C1493 1.397 . S
C1494 C1495 1.334 . S
C1495 H1472 0.950 . S
C1495 C1494 1.334 . S
C1495 C1496 1.287 . S
C1496 C1495 1.287 . S
C1496 C1497 1.524 . S
C1496 H1515 0.913 . S
C1497 H1473 0.950 . S
C1497 C1496 1.524 . S
C1497 C1498 1.415 . S
C1498 H1474 0.950 . S
C1498 C1493 1.363 . S
C1498 C1497 1.415 . S
C1499 H1475 0.951 . S
C1499 C1500 1.366 . S
C1499 C1501 1.388 . S
C1500 C1499 1.366 . S
C1500 C1504 1.385 . S
C1501 H1476 0.951 . S
C1501 C1499 1.388 . S
C1501 C1502 1.366 . S
C1502 C1501 1.366 . S
C1502 C1503 1.414 . S
C1502 C1505 1.499 . S
C1503 H1477 0.950 . S
C1503 C1502 1.414 . S
C1503 C1504 1.374 . S
C1504 H1478 0.950 . S
C1504 C1500 1.385 . S
C1504 C1503 1.374 . S
C1505 C1502 1.499 . S
C1505 C1506 1.373 . S
C1505 C1507 1.389 . S
C1506 H1479 0.950 . S
C1506 C1492 1.377 . S
C1506 C1505 1.373 . S
C1507 C1491 1.377 . S
C1507 C1505 1.389 . S
C1507 C1508 1.524 . S
C1508 C1507 1.524 . S
C1508 C1509 1.397 . S
C1508 C1513 1.363 . S
C1509 H1480 0.950 . S
C1509 C1508 1.397 . S
C1509 C1510 1.334 . S
C1510 H1481 0.950 . S
C1510 C1509 1.334 . S
C1510 C1511 1.287 . S
C1511 C1510 1.287 . S
C1511 C1512 1.524 . S
C1511 H1514 0.999 . S
C1512 H1482 0.950 . S
C1512 C1511 1.524 . S
C1512 C1513 1.415 . S
C1513 H1483 0.950 . S
C1513 C1508 1.363 . S
C1513 C1512 1.415 . S
H1514 C1511 0.999 . S
H1515 C1496 0.913 . S
H1516 C1534 0.951 . S
H1517 C1536 0.951 . S
H1518 C1538 0.950 . S
H1519 C1539 0.950 . S
H1520 C1541 0.950 . S
H1521 C1544 0.950 . S
H1522 C1545 0.950 . S
H1523 C1547 0.950 . S
H1524 C1548 0.950 . S
H1525 C1549 0.951 . S
H1526 C1551 0.951 . S
H1527 C1553 0.950 . S
H1528 C1554 0.950 . S
H1529 C1556 0.950 . S
H1530 C1559 0.950 . S
H1531 C1560 0.950 . S
H1532 C1562 0.950 . S
H1533 C1563 0.950 . S
C1534 H1516 0.951 . S
C1534 C1535 1.366 . S
C1534 C1536 1.388 . S
C1535 C1534 1.366 . S
C1535 C1539 1.385 . S
C1536 H1517 0.951 . S
C1536 C1534 1.388 . S
C1536 C1537 1.366 . S
C1537 C1536 1.366 . S
C1537 C1538 1.414 . S
C1537 C1540 1.499 . S
C1538 H1518 0.950 . S
C1538 C1537 1.414 . S
C1538 C1539 1.374 . S
C1539 H1519 0.950 . S
C1539 C1535 1.385 . S
C1539 C1538 1.374 . S
C1540 C1537 1.499 . S
C1540 C1541 1.373 . S
C1540 C1542 1.389 . S
C1541 H1520 0.950 . S
C1541 C1540 1.373 . S
C1541 C1557 1.377 . S
C1542 C1540 1.389 . S
C1542 C1543 1.524 . S
C1542 C1556 1.377 . S
C1543 C1542 1.524 . S
C1543 C1544 1.397 . S
C1543 C1548 1.363 . S
C1544 H1521 0.950 . S
C1544 C1543 1.397 . S
C1544 C1545 1.334 . S
C1545 H1522 0.950 . S
C1545 C1544 1.334 . S
C1545 C1546 1.287 . S
C1546 C1545 1.287 . S
C1546 C1547 1.524 . S
C1546 H1565 0.913 . S
C1547 H1523 0.950 . S
C1547 C1546 1.524 . S
C1547 C1548 1.415 . S
C1548 H1524 0.950 . S
C1548 C1543 1.363 . S
C1548 C1547 1.415 . S
C1549 H1525 0.951 . S
C1549 C1550 1.366 . S
C1549 C1551 1.388 . S
C1550 C1549 1.366 . S
C1550 C1554 1.385 . S
C1551 H1526 0.951 . S
C1551 C1549 1.388 . S
C1551 C1552 1.366 . S
C1552 C1551 1.366 . S
C1552 C1553 1.414 . S
C1552 C1555 1.499 . S
C1553 H1527 0.950 . S
C1553 C1552 1.414 . S
C1553 C1554 1.374 . S
C1554 H1528 0.950 . S
C1554 C1550 1.385 . S
C1554 C1553 1.374 . S
C1555 C1552 1.499 . S
C1555 C1556 1.373 . S
C1555 C1557 1.389 . S
C1556 H1529 0.950 . S
C1556 C1542 1.377 . S
C1556 C1555 1.373 . S
C1557 C1541 1.377 . S
C1557 C1555 1.389 . S
C1557 C1558 1.524 . S
C1558 C1557 1.524 . S
C1558 C1559 1.397 . S
C1558 C1563 1.363 . S
C1559 H1530 0.950 . S
C1559 C1558 1.397 . S
C1559 C1560 1.334 . S
C1560 H1531 0.950 . S
C1560 C1559 1.334 . S
C1560 C1561 1.287 . S
C1561 C1560 1.287 . S
C1561 C1562 1.524 . S
C1561 H1564 0.999 . S
C1562 H1532 0.950 . S
C1562 C1561 1.524 . S
C1562 C1563 1.415 . S
C1563 H1533 0.950 . S
C1563 C1558 1.363 . S
C1563 C1562 1.415 . S
H1564 C1561 0.999 . S
H1565 C1546 0.913 . S
H1566 C1584 0.951 . S
H1567 C1586 0.951 . S
H1568 C1588 0.950 . S
H1569 C1589 0.950 . S
H1570 C1591 0.950 . S
H1571 C1594 0.950 . S
H1572 C1595 0.950 . S
H1573 C1597 0.950 . S
H1574 C1598 0.950 . S
H1575 C1599 0.951 . S
H1576 C1601 0.951 . S
H1577 C1603 0.950 . S
H1578 C1604 0.950 . S
H1579 C1606 0.950 . S
H1580 C1609 0.950 . S
H1581 C1610 0.950 . S
H1582 C1612 0.950 . S
H1583 C1613 0.950 . S
C1584 H1566 0.951 . S
C1584 C1585 1.366 . S
C1584 C1586 1.388 . S
C1585 C1584 1.366 . S
C1585 C1589 1.385 . S
C1586 H1567 0.951 . S
C1586 C1584 1.388 . S
C1586 C1587 1.366 . S
C1587 C1586 1.366 . S
C1587 C1588 1.414 . S
C1587 C1590 1.499 . S
C1588 H1568 0.950 . S
C1588 C1587 1.414 . S
C1588 C1589 1.374 . S
C1589 H1569 0.950 . S
C1589 C1585 1.385 . S
C1589 C1588 1.374 . S
C1590 C1587 1.499 . S
C1590 C1591 1.373 . S
C1590 C1592 1.389 . S
C1591 H1570 0.950 . S
C1591 C1590 1.373 . S
C1591 C1607 1.377 . S
C1592 C1590 1.389 . S
C1592 C1593 1.524 . S
C1592 C1606 1.377 . S
C1593 C1592 1.524 . S
C1593 C1594 1.397 . S
C1593 C1598 1.363 . S
C1594 H1571 0.950 . S
C1594 C1593 1.397 . S
C1594 C1595 1.334 . S
C1595 H1572 0.950 . S
C1595 C1594 1.334 . S
C1595 C1596 1.287 . S
C1596 C1595 1.287 . S
C1596 C1597 1.524 . S
C1596 H1615 0.913 . S
C1597 H1573 0.950 . S
C1597 C1596 1.524 . S
C1597 C1598 1.415 . S
C1598 H1574 0.950 . S
C1598 C1593 1.363 . S
C1598 C1597 1.415 . S
C1599 H1575 0.951 . S
C1599 C1600 1.366 . S
C1599 C1601 1.388 . S
C1600 C1599 1.366 . S
C1600 C1604 1.385 . S
C1601 H1576 0.951 . S
C1601 C1599 1.388 . S
C1601 C1602 1.366 . S
C1602 C1601 1.366 . S
C1602 C1603 1.414 . S
C1602 C1605 1.499 1_655 S
C1603 H1577 0.950 . S
C1603 C1602 1.414 . S
C1603 C1604 1.374 . S
C1604 H1578 0.950 . S
C1604 C1600 1.385 . S
C1604 C1603 1.374 . S
C1605 C1602 1.499 1_455 S
C1605 C1606 1.373 . S
C1605 C1607 1.389 . S
C1606 H1579 0.950 . S
C1606 C1592 1.377 . S
C1606 C1605 1.373 . S
C1607 C1591 1.377 . S
C1607 C1605 1.389 . S
C1607 C1608 1.524 . S
C1608 C1607 1.524 . S
C1608 C1609 1.397 1_455 S
C1608 C1613 1.363 . S
C1609 H1580 0.950 . S
C1609 C1608 1.397 1_655 S
C1609 C1610 1.334 . S
C1610 H1581 0.950 . S
C1610 C1609 1.334 . S
C1610 C1611 1.287 . S
C1611 C1610 1.287 . S
C1611 C1612 1.524 1_655 S
C1611 H1614 0.999 1_556 S
C1612 H1582 0.950 . S
C1612 C1611 1.524 1_455 S
C1612 C1613 1.415 . S
C1613 H1583 0.950 . S
C1613 C1608 1.363 . S
C1613 C1612 1.415 . S
H1614 C1611 0.999 1_554 S
H1615 C1596 0.913 . S
H1616 C1634 0.951 . S
H1617 C1636 0.951 . S
H1618 C1638 0.950 . S
H1619 C1639 0.950 . S
H1620 C1641 0.950 . S
H1621 C1644 0.950 . S
H1622 C1645 0.950 . S
H1623 C1647 0.950 . S
H1624 C1648 0.950 . S
H1625 C1649 0.951 . S
H1626 C1651 0.951 . S
H1627 C1653 0.950 . S
H1628 C1654 0.950 . S
H1629 C1656 0.950 . S
H1630 C1659 0.950 . S
H1631 C1660 0.950 . S
H1632 C1662 0.950 . S
H1633 C1663 0.950 . S
C1634 H1616 0.951 . S
C1634 C1635 1.366 . S
C1634 C1636 1.388 . S
C1635 C1634 1.366 . S
C1635 C1639 1.385 . S
C1636 H1617 0.951 . S
C1636 C1634 1.388 . S
C1636 C1637 1.366 . S
C1637 C1636 1.366 . S
C1637 C1638 1.414 . S
C1637 C1640 1.499 . S
C1638 H1618 0.950 . S
C1638 C1637 1.414 . S
C1638 C1639 1.374 . S
C1639 H1619 0.950 . S
C1639 C1635 1.385 . S
C1639 C1638 1.374 . S
C1640 C1637 1.499 . S
C1640 C1641 1.373 . S
C1640 C1642 1.389 . S
C1641 H1620 0.950 . S
C1641 C1640 1.373 . S
C1641 C1657 1.377 . S
C1642 C1640 1.389 . S
C1642 C1643 1.524 . S
C1642 C1656 1.377 . S
C1643 C1642 1.524 . S
C1643 C1644 1.397 . S
C1643 C1648 1.363 . S
C1644 H1621 0.950 . S
C1644 C1643 1.397 . S
C1644 C1645 1.334 . S
C1645 H1622 0.950 . S
C1645 C1644 1.334 . S
C1645 C1646 1.287 . S
C1646 C1645 1.287 . S
C1646 C1647 1.524 . S
C1646 H1665 0.913 . S
C1647 H1623 0.950 . S
C1647 C1646 1.524 . S
C1647 C1648 1.415 . S
C1648 H1624 0.950 . S
C1648 C1643 1.363 . S
C1648 C1647 1.415 . S
C1649 H1625 0.951 . S
C1649 C1650 1.366 . S
C1649 C1651 1.388 . S
C1650 C1649 1.366 . S
C1650 C1654 1.385 . S
C1651 H1626 0.951 . S
C1651 C1649 1.388 . S
C1651 C1652 1.366 . S
C1652 C1651 1.366 . S
C1652 C1653 1.414 . S
C1652 C1655 1.499 . S
C1653 H1627 0.950 . S
C1653 C1652 1.414 . S
C1653 C1654 1.374 . S
C1654 H1628 0.950 . S
C1654 C1650 1.385 . S
C1654 C1653 1.374 . S
C1655 C1652 1.499 . S
C1655 C1656 1.373 . S
C1655 C1657 1.389 . S
C1656 H1629 0.950 . S
C1656 C1642 1.377 . S
C1656 C1655 1.373 . S
C1657 C1641 1.377 . S
C1657 C1655 1.389 . S
C1657 C1658 1.524 . S
C1658 C1657 1.524 . S
C1658 C1659 1.397 . S
C1658 C1663 1.363 . S
C1659 H1630 0.950 . S
C1659 C1658 1.397 . S
C1659 C1660 1.334 . S
C1660 H1631 0.950 . S
C1660 C1659 1.334 . S
C1660 C1661 1.287 . S
C1661 C1660 1.287 . S
C1661 C1662 1.524 . S
C1661 H1664 0.999 . S
C1662 H1632 0.950 . S
C1662 C1661 1.524 . S
C1662 C1663 1.415 . S
C1663 H1633 0.950 . S
C1663 C1658 1.363 . S
C1663 C1662 1.415 . S
H1664 C1661 0.999 . S
H1665 C1646 0.913 . S
H1666 C1684 0.951 . S
H1667 C1686 0.951 . S
H1668 C1688 0.950 . S
H1669 C1689 0.950 . S
H1670 C1691 0.950 . S
H1671 C1694 0.950 . S
H1672 C1695 0.950 . S
H1673 C1697 0.950 . S
H1674 C1698 0.950 . S
H1675 C1699 0.951 . S
H1676 C1701 0.951 . S
H1677 C1703 0.950 . S
H1678 C1704 0.950 . S
H1679 C1706 0.950 . S
H1680 C1709 0.950 . S
H1681 C1710 0.950 . S
H1682 C1712 0.950 . S
H1683 C1713 0.950 . S
C1684 H1666 0.951 . S
C1684 C1685 1.366 . S
C1684 C1686 1.388 . S
C1685 C1684 1.366 . S
C1685 C1689 1.385 . S
C1686 H1667 0.951 . S
C1686 C1684 1.388 . S
C1686 C1687 1.366 . S
C1687 C1686 1.366 . S
C1687 C1688 1.414 . S
C1687 C1690 1.499 . S
C1688 H1668 0.950 . S
C1688 C1687 1.414 . S
C1688 C1689 1.374 . S
C1689 H1669 0.950 . S
C1689 C1685 1.385 . S
C1689 C1688 1.374 . S
C1690 C1687 1.499 . S
C1690 C1691 1.373 . S
C1690 C1692 1.389 . S
C1691 H1670 0.950 . S
C1691 C1690 1.373 . S
C1691 C1707 1.377 . S
C1692 C1690 1.389 . S
C1692 C1693 1.524 . S
C1692 C1706 1.377 . S
C1693 C1692 1.524 . S
C1693 C1694 1.397 . S
C1693 C1698 1.363 . S
C1694 H1671 0.950 . S
C1694 C1693 1.397 . S
C1694 C1695 1.334 . S
C1695 H1672 0.950 . S
C1695 C1694 1.334 . S
C1695 C1696 1.287 . S
C1696 C1695 1.287 . S
C1696 C1697 1.524 . S
C1696 H1715 0.913 . S
C1697 H1673 0.950 . S
C1697 C1696 1.524 . S
C1697 C1698 1.415 . S
C1698 H1674 0.950 . S
C1698 C1693 1.363 . S
C1698 C1697 1.415 . S
C1699 H1675 0.951 . S
C1699 C1700 1.366 . S
C1699 C1701 1.388 . S
C1700 C1699 1.366 . S
C1700 C1704 1.385 . S
C1701 H1676 0.951 . S
C1701 C1699 1.388 . S
C1701 C1702 1.366 . S
C1702 C1701 1.366 . S
C1702 C1703 1.414 . S
C1702 C1705 1.499 1_455 S
C1703 H1677 0.950 . S
C1703 C1702 1.414 . S
C1703 C1704 1.374 . S
C1704 H1678 0.950 . S
C1704 C1700 1.385 . S
C1704 C1703 1.374 . S
C1705 C1702 1.499 1_655 S
C1705 C1706 1.373 . S
C1705 C1707 1.389 . S
C1706 H1679 0.950 . S
C1706 C1692 1.377 . S
C1706 C1705 1.373 . S
C1707 C1691 1.377 . S
C1707 C1705 1.389 . S
C1707 C1708 1.524 . S
C1708 C1707 1.524 . S
C1708 C1709 1.397 1_655 S
C1708 C1713 1.363 . S
C1709 H1680 0.950 . S
C1709 C1708 1.397 1_455 S
C1709 C1710 1.334 . S
C1710 H1681 0.950 . S
C1710 C1709 1.334 . S
C1710 C1711 1.275 1_455 S
C1711 C1710 1.275 1_655 S
C1711 C1712 1.542 . S
C1711 H1714 0.992 1_655 S
C1712 H1682 0.950 . S
C1712 C1711 1.542 . S
C1712 C1713 1.415 . S
C1713 H1683 0.950 . S
C1713 C1708 1.363 . S
C1713 C1712 1.415 . S
H1714 C1711 0.992 1_455 S
H1715 C1696 0.913 . S
H1716 C1734 0.951 . S
H1717 C1736 0.951 . S
H1718 C1738 0.950 . S
H1719 C1739 0.950 . S
H1720 C1741 0.950 . S
H1721 C1744 0.950 . S
H1722 C1745 0.950 . S
H1723 C1747 0.950 . S
H1724 C1748 0.950 . S
H1725 C1749 0.951 . S
H1726 C1751 0.951 . S
H1727 C1753 0.950 . S
H1728 C1754 0.950 . S
H1729 C1756 0.950 . S
H1730 C1759 0.950 . S
H1731 C1760 0.950 . S
H1732 C1762 0.950 . S
H1733 C1763 0.950 . S
C1734 H1716 0.951 . S
C1734 C1735 1.366 . S
C1734 C1736 1.388 . S
C1735 C1734 1.366 . S
C1735 C1739 1.385 . S
C1736 H1717 0.951 . S
C1736 C1734 1.388 . S
C1736 C1737 1.366 . S
C1737 C1736 1.366 . S
C1737 C1738 1.414 . S
C1737 C1740 1.499 . S
C1738 H1718 0.950 . S
C1738 C1737 1.414 . S
C1738 C1739 1.374 . S
C1739 H1719 0.950 . S
C1739 C1735 1.385 . S
C1739 C1738 1.374 . S
C1740 C1737 1.499 . S
C1740 C1741 1.373 . S
C1740 C1742 1.389 . S
C1741 H1720 0.950 . S
C1741 C1740 1.373 . S
C1741 C1757 1.377 . S
C1742 C1740 1.389 . S
C1742 C1743 1.524 . S
C1742 C1756 1.377 . S
C1743 C1742 1.524 . S
C1743 C1744 1.397 . S
C1743 C1748 1.363 . S
C1744 H1721 0.950 . S
C1744 C1743 1.397 . S
C1744 C1745 1.334 . S
C1745 H1722 0.950 . S
C1745 C1744 1.334 . S
C1745 C1746 1.287 . S
C1746 C1745 1.287 . S
C1746 C1747 1.524 . S
C1746 H1765 0.913 . S
C1747 H1723 0.950 . S
C1747 C1746 1.524 . S
C1747 C1748 1.415 . S
C1748 H1724 0.950 . S
C1748 C1743 1.363 . S
C1748 C1747 1.415 . S
C1749 H1725 0.951 . S
C1749 C1750 1.366 . S
C1749 C1751 1.388 . S
C1750 C1749 1.366 . S
C1750 C1754 1.385 . S
C1751 H1726 0.951 . S
C1751 C1749 1.388 . S
C1751 C1752 1.366 . S
C1752 C1751 1.366 . S
C1752 C1753 1.414 . S
C1752 C1755 1.499 . S
C1753 H1727 0.950 . S
C1753 C1752 1.414 . S
C1753 C1754 1.374 . S
C1754 H1728 0.950 . S
C1754 C1750 1.385 . S
C1754 C1753 1.374 . S
C1755 C1752 1.499 . S
C1755 C1756 1.373 . S
C1755 C1757 1.389 . S
C1756 H1729 0.950 . S
C1756 C1742 1.377 . S
C1756 C1755 1.373 . S
C1757 C1741 1.377 . S
C1757 C1755 1.389 . S
C1757 C1758 1.524 . S
C1758 C1757 1.524 . S
C1758 C1759 1.397 . S
C1758 C1763 1.363 . S
C1759 H1730 0.950 . S
C1759 C1758 1.397 . S
C1759 C1760 1.334 . S
C1760 H1731 0.950 . S
C1760 C1759 1.334 . S
C1760 C1761 1.287 . S
C1761 C1760 1.287 . S
C1761 C1762 1.524 . S
C1761 H1764 0.999 . S
C1762 H1732 0.950 . S
C1762 C1761 1.524 . S
C1762 C1763 1.415 . S
C1763 H1733 0.950 . S
C1763 C1758 1.363 . S
C1763 C1762 1.415 . S
H1764 C1761 0.999 . S
H1765 C1746 0.913 . S
H1766 C1784 0.951 . S
H1767 C1786 0.951 . S
H1768 C1788 0.950 . S
H1769 C1789 0.950 . S
H1770 C1791 0.950 . S
H1771 C1794 0.950 . S
H1772 C1795 0.950 . S
H1773 C1797 0.950 . S
H1774 C1798 0.950 . S
H1775 C1799 0.951 . S
H1776 C1801 0.951 . S
H1777 C1803 0.950 . S
H1778 C1804 0.950 . S
H1779 C1806 0.950 . S
H1780 C1809 0.950 . S
H1781 C1810 0.950 . S
H1782 C1812 0.950 . S
H1783 C1813 0.950 . S
C1784 H1766 0.951 . S
C1784 C1785 1.366 . S
C1784 C1786 1.388 . S
C1785 C1784 1.366 . S
C1785 C1789 1.385 . S
C1786 H1767 0.951 . S
C1786 C1784 1.388 . S
C1786 C1787 1.366 . S
C1787 C1786 1.366 . S
C1787 C1788 1.414 . S
C1787 C1790 1.499 . S
C1788 H1768 0.950 . S
C1788 C1787 1.414 . S
C1788 C1789 1.374 . S
C1789 H1769 0.950 . S
C1789 C1785 1.385 . S
C1789 C1788 1.374 . S
C1790 C1787 1.499 . S
C1790 C1791 1.373 . S
C1790 C1792 1.389 . S
C1791 H1770 0.950 . S
C1791 C1790 1.373 . S
C1791 C1807 1.377 . S
C1792 C1790 1.389 . S
C1792 C1793 1.524 . S
C1792 C1806 1.377 . S
C1793 C1792 1.524 . S
C1793 C1794 1.397 . S
C1793 C1798 1.363 . S
C1794 H1771 0.950 . S
C1794 C1793 1.397 . S
C1794 C1795 1.334 . S
C1795 H1772 0.950 . S
C1795 C1794 1.334 . S
C1795 C1796 1.287 . S
C1796 C1795 1.287 . S
C1796 C1797 1.524 . S
C1796 H1815 0.913 . S
C1797 H1773 0.950 . S
C1797 C1796 1.524 . S
C1797 C1798 1.415 . S
C1798 H1774 0.950 . S
C1798 C1793 1.363 . S
C1798 C1797 1.415 . S
C1799 H1775 0.951 . S
C1799 C1800 1.366 . S
C1799 C1801 1.388 . S
C1800 C1799 1.366 . S
C1800 C1804 1.385 . S
C1801 H1776 0.951 . S
C1801 C1799 1.388 . S
C1801 C1802 1.366 . S
C1802 C1801 1.366 . S
C1802 C1803 1.414 . S
C1802 C1805 1.499 . S
C1803 H1777 0.950 . S
C1803 C1802 1.414 . S
C1803 C1804 1.374 . S
C1804 H1778 0.950 . S
C1804 C1800 1.385 . S
C1804 C1803 1.374 . S
C1805 C1802 1.499 . S
C1805 C1806 1.373 . S
C1805 C1807 1.389 . S
C1806 H1779 0.950 . S
C1806 C1792 1.377 . S
C1806 C1805 1.373 . S
C1807 C1791 1.377 . S
C1807 C1805 1.389 . S
C1807 C1808 1.524 . S
C1808 C1807 1.524 . S
C1808 C1809 1.397 . S
C1808 C1813 1.363 . S
C1809 H1780 0.950 . S
C1809 C1808 1.397 . S
C1809 C1810 1.334 . S
C1810 H1781 0.950 . S
C1810 C1809 1.334 . S
C1810 C1811 1.287 . S
C1811 C1810 1.287 . S
C1811 C1812 1.524 . S
C1811 H1814 0.999 . S
C1812 H1782 0.950 . S
C1812 C1811 1.524 . S
C1812 C1813 1.415 . S
C1813 H1783 0.950 . S
C1813 C1808 1.363 . S
C1813 C1812 1.415 . S
H1814 C1811 0.999 . S
H1815 C1796 0.913 . S
H1816 C1834 0.951 . S
H1817 C1836 0.951 . S
H1818 C1838 0.950 . S
H1819 C1839 0.950 . S
H1820 C1841 0.950 . S
H1821 C1844 0.950 . S
H1822 C1845 0.950 . S
H1823 C1847 0.950 . S
H1824 C1848 0.950 . S
H1825 C1849 0.951 . S
H1826 C1851 0.951 . S
H1827 C1853 0.950 . S
H1828 C1854 0.950 . S
H1829 C1856 0.950 . S
H1830 C1859 0.950 . S
H1831 C1860 0.950 . S
H1832 C1862 0.950 . S
H1833 C1863 0.950 . S
C1834 H1816 0.951 . S
C1834 C1835 1.366 . S
C1834 C1836 1.388 . S
C1835 C1834 1.366 . S
C1835 C1839 1.385 . S
C1836 H1817 0.951 . S
C1836 C1834 1.388 . S
C1836 C1837 1.366 . S
C1837 C1836 1.366 . S
C1837 C1838 1.414 . S
C1837 C1840 1.499 . S
C1838 H1818 0.950 . S
C1838 C1837 1.414 . S
C1838 C1839 1.374 . S
C1839 H1819 0.950 . S
C1839 C1835 1.385 . S
C1839 C1838 1.374 . S
C1840 C1837 1.499 . S
C1840 C1841 1.373 . S
C1840 C1842 1.389 . S
C1841 H1820 0.950 . S
C1841 C1840 1.373 . S
C1841 C1857 1.377 . S
C1842 C1840 1.389 . S
C1842 C1843 1.524 . S
C1842 C1856 1.377 . S
C1843 C1842 1.524 . S
C1843 C1844 1.397 . S
C1843 C1848 1.363 . S
C1844 H1821 0.950 . S
C1844 C1843 1.397 . S
C1844 C1845 1.334 . S
C1845 H1822 0.950 . S
C1845 C1844 1.334 . S
C1845 C1846 1.287 . S
C1846 C1845 1.287 . S
C1846 C1847 1.524 . S
C1846 H1865 0.913 . S
C1847 H1823 0.950 . S
C1847 C1846 1.524 . S
C1847 C1848 1.415 . S
C1848 H1824 0.950 . S
C1848 C1843 1.363 . S
C1848 C1847 1.415 . S
C1849 H1825 0.951 . S
C1849 C1850 1.366 . S
C1849 C1851 1.388 . S
C1850 C1849 1.366 . S
C1850 C1854 1.385 . S
C1851 H1826 0.951 . S
C1851 C1849 1.388 . S
C1851 C1852 1.366 . S
C1852 C1851 1.366 . S
C1852 C1853 1.414 . S
C1852 C1855 1.499 . S
C1853 H1827 0.950 . S
C1853 C1852 1.414 . S
C1853 C1854 1.374 . S
C1854 H1828 0.950 . S
C1854 C1850 1.385 . S
C1854 C1853 1.374 . S
C1855 C1852 1.499 . S
C1855 C1856 1.373 . S
C1855 C1857 1.389 . S
C1856 H1829 0.950 . S
C1856 C1842 1.377 . S
C1856 C1855 1.373 . S
C1857 C1841 1.377 . S
C1857 C1855 1.389 . S
C1857 C1858 1.524 . S
C1858 C1857 1.524 . S
C1858 C1859 1.397 . S
C1858 C1863 1.363 . S
C1859 H1830 0.950 . S
C1859 C1858 1.397 . S
C1859 C1860 1.334 . S
C1860 H1831 0.950 . S
C1860 C1859 1.334 . S
C1860 C1861 1.287 . S
C1861 C1860 1.287 . S
C1861 C1862 1.524 . S
C1861 H1864 0.999 . S
C1862 H1832 0.950 . S
C1862 C1861 1.524 . S
C1862 C1863 1.415 . S
C1863 H1833 0.950 . S
C1863 C1858 1.363 . S
C1863 C1862 1.415 . S
H1864 C1861 0.999 . S
H1865 C1846 0.913 . S
H1866 C1884 0.951 . S
H1867 C1886 0.951 . S
H1868 C1888 0.950 . S
H1869 C1889 0.950 . S
H1870 C1891 0.950 . S
H1871 C1894 0.950 . S
H1872 C1895 0.950 . S
H1873 C1897 0.950 . S
H1874 C1898 0.950 . S
H1875 C1899 0.951 . S
H1876 C1901 0.951 . S
H1877 C1903 0.950 . S
H1878 C1904 0.950 . S
H1879 C1906 0.950 . S
H1880 C1909 0.950 . S
H1881 C1910 0.950 . S
H1882 C1912 0.950 . S
H1883 C1913 0.950 . S
C1884 H1866 0.951 . S
C1884 C1885 1.366 . S
C1884 C1886 1.388 . S
C1885 C1884 1.366 . S
C1885 C1889 1.385 . S
C1886 H1867 0.951 . S
C1886 C1884 1.388 . S
C1886 C1887 1.366 . S
C1887 C1886 1.366 . S
C1887 C1888 1.414 . S
C1887 C1890 1.499 . S
C1888 H1868 0.950 . S
C1888 C1887 1.414 . S
C1888 C1889 1.374 . S
C1889 H1869 0.950 . S
C1889 C1885 1.385 . S
C1889 C1888 1.374 . S
C1890 C1887 1.499 . S
C1890 C1891 1.373 . S
C1890 C1892 1.389 . S
C1891 H1870 0.950 . S
C1891 C1890 1.373 . S
C1891 C1907 1.377 . S
C1892 C1890 1.389 . S
C1892 C1893 1.524 . S
C1892 C1906 1.377 . S
C1893 C1892 1.524 . S
C1893 C1894 1.397 . S
C1893 C1898 1.363 . S
C1894 H1871 0.950 . S
C1894 C1893 1.397 . S
C1894 C1895 1.334 . S
C1895 H1872 0.950 . S
C1895 C1894 1.334 . S
C1895 C1896 1.287 . S
C1896 C1895 1.287 . S
C1896 C1897 1.524 . S
C1896 H1915 0.913 . S
C1897 H1873 0.950 . S
C1897 C1896 1.524 . S
C1897 C1898 1.415 . S
C1898 H1874 0.950 . S
C1898 C1893 1.363 . S
C1898 C1897 1.415 . S
C1899 H1875 0.951 . S
C1899 C1900 1.366 . S
C1899 C1901 1.388 . S
C1900 C1899 1.366 . S
C1900 C1904 1.385 . S
C1901 H1876 0.951 . S
C1901 C1899 1.388 . S
C1901 C1902 1.366 . S
C1902 C1901 1.366 . S
C1902 C1903 1.414 . S
C1902 C1905 1.499 . S
C1903 H1877 0.950 . S
C1903 C1902 1.414 . S
C1903 C1904 1.374 . S
C1904 H1878 0.950 . S
C1904 C1900 1.385 . S
C1904 C1903 1.374 . S
C1905 C1902 1.499 . S
C1905 C1906 1.373 . S
C1905 C1907 1.389 . S
C1906 H1879 0.950 . S
C1906 C1892 1.377 . S
C1906 C1905 1.373 . S
C1907 C1891 1.377 . S
C1907 C1905 1.389 . S
C1907 C1908 1.524 . S
C1908 C1907 1.524 . S
C1908 C1909 1.397 . S
C1908 C1913 1.363 . S
C1909 H1880 0.950 . S
C1909 C1908 1.397 . S
C1909 C1910 1.334 . S
C1910 H1881 0.950 . S
C1910 C1909 1.334 . S
C1910 C1911 1.287 . S
C1911 C1910 1.287 . S
C1911 C1912 1.524 . S
C1911 H1914 0.999 . S
C1912 H1882 0.950 . S
C1912 C1911 1.524 . S
C1912 C1913 1.415 . S
C1913 H1883 0.950 . S
C1913 C1908 1.363 . S
C1913 C1912 1.415 . S
H1914 C1911 0.999 . S
H1915 C1896 0.913 . S
H1916 C1934 0.951 . S
H1917 C1936 0.951 . S
H1918 C1938 0.950 . S
H1919 C1939 0.950 . S
H1920 C1941 0.950 . S
H1921 C1944 0.950 . S
H1922 C1945 0.950 . S
H1923 C1947 0.950 . S
H1924 C1948 0.950 . S
H1925 C1949 0.951 . S
H1926 C1951 0.951 . S
H1927 C1953 0.950 . S
H1928 C1954 0.950 . S
H1929 C1956 0.950 . S
H1930 C1959 0.950 . S
H1931 C1960 0.950 . S
H1932 C1962 0.950 . S
H1933 C1963 0.950 . S
C1934 H1916 0.951 . S
C1934 C1935 1.366 . S
C1934 C1936 1.388 . S
C1935 C1934 1.366 . S
C1935 C1939 1.385 . S
C1936 H1917 0.951 . S
C1936 C1934 1.388 . S
C1936 C1937 1.366 . S
C1937 C1936 1.366 . S
C1937 C1938 1.414 . S
C1937 C1940 1.499 . S
C1938 H1918 0.950 . S
C1938 C1937 1.414 . S
C1938 C1939 1.374 . S
C1939 H1919 0.950 . S
C1939 C1935 1.385 . S
C1939 C1938 1.374 . S
C1940 C1937 1.499 . S
C1940 C1941 1.373 . S
C1940 C1942 1.389 . S
C1941 H1920 0.950 . S
C1941 C1940 1.373 . S
C1941 C1957 1.377 . S
C1942 C1940 1.389 . S
C1942 C1943 1.524 . S
C1942 C1956 1.377 . S
C1943 C1942 1.524 . S
C1943 C1944 1.397 . S
C1943 C1948 1.363 . S
C1944 H1921 0.950 . S
C1944 C1943 1.397 . S
C1944 C1945 1.334 . S
C1945 H1922 0.950 . S
C1945 C1944 1.334 . S
C1945 C1946 1.287 . S
C1946 C1945 1.287 . S
C1946 C1947 1.524 . S
C1946 H1965 0.913 . S
C1947 H1923 0.950 . S
C1947 C1946 1.524 . S
C1947 C1948 1.415 . S
C1948 H1924 0.950 . S
C1948 C1943 1.363 . S
C1948 C1947 1.415 . S
C1949 H1925 0.951 . S
C1949 C1950 1.366 . S
C1949 C1951 1.388 . S
C1950 C1949 1.366 . S
C1950 C1954 1.385 . S
C1951 H1926 0.951 . S
C1951 C1949 1.388 . S
C1951 C1952 1.366 . S
C1952 C1951 1.366 . S
C1952 C1953 1.414 . S
C1952 C1955 1.499 . S
C1953 H1927 0.950 . S
C1953 C1952 1.414 . S
C1953 C1954 1.374 . S
C1954 H1928 0.950 . S
C1954 C1950 1.385 . S
C1954 C1953 1.374 . S
C1955 C1952 1.499 . S
C1955 C1956 1.373 . S
C1955 C1957 1.389 . S
C1956 H1929 0.950 . S
C1956 C1942 1.377 . S
C1956 C1955 1.373 . S
C1957 C1941 1.377 . S
C1957 C1955 1.389 . S
C1957 C1958 1.524 . S
C1958 C1957 1.524 . S
C1958 C1959 1.397 . S
C1958 C1963 1.363 . S
C1959 H1930 0.950 . S
C1959 C1958 1.397 . S
C1959 C1960 1.334 . S
C1960 H1931 0.950 . S
C1960 C1959 1.334 . S
C1960 C1961 1.287 . S
C1961 C1960 1.287 . S
C1961 C1962 1.524 . S
C1961 H1964 0.999 . S
C1962 H1932 0.950 . S
C1962 C1961 1.524 . S
C1962 C1963 1.415 . S
C1963 H1933 0.950 . S
C1963 C1958 1.363 . S
C1963 C1962 1.415 . S
H1964 C1961 0.999 . S
H1965 C1946 0.913 . S
H1966 C1984 0.951 . S
H1967 C1986 0.951 . S
H1968 C1988 0.950 . S
H1969 C1989 0.950 . S
H1970 C1991 0.950 . S
H1971 C1994 0.950 . S
H1972 C1995 0.950 . S
H1973 C1997 0.950 . S
H1974 C1998 0.950 . S
H1975 C1999 0.951 . S
H1976 C2001 0.951 . S
H1977 C2003 0.950 . S
H1978 C2004 0.950 . S
H1979 C2006 0.950 . S
H1980 C2009 0.950 1_455 S
H1981 C2010 0.950 . S
H1982 C2012 0.950 . S
H1983 C2013 0.950 . S
C1984 H1966 0.951 . S
C1984 C1985 1.366 . S
C1984 C1986 1.388 . S
C1985 C1984 1.366 . S
C1985 C1989 1.385 . S
C1986 H1967 0.951 . S
C1986 C1984 1.388 . S
C1986 C1987 1.366 . S
C1987 C1986 1.366 . S
C1987 C1988 1.414 . S
C1987 C1990 1.499 . S
C1988 H1968 0.950 . S
C1988 C1987 1.414 . S
C1988 C1989 1.374 . S
C1989 H1969 0.950 . S
C1989 C1985 1.385 . S
C1989 C1988 1.374 . S
C1990 C1987 1.499 . S
C1990 C1991 1.373 . S
C1990 C1992 1.389 . S
C1991 H1970 0.950 . S
C1991 C1990 1.373 . S
C1991 C2007 1.377 . S
C1992 C1990 1.389 . S
C1992 C1993 1.524 . S
C1992 C2006 1.377 . S
C1993 C1992 1.524 . S
C1993 C1994 1.397 . S
C1993 C1998 1.363 . S
C1994 H1971 0.950 . S
C1994 C1993 1.397 . S
C1994 C1995 1.334 . S
C1995 H1972 0.950 . S
C1995 C1994 1.334 . S
C1995 C1996 1.287 . S
C1996 C1995 1.287 . S
C1996 C1997 1.524 . S
C1996 H2015 0.913 . S
C1997 H1973 0.950 . S
C1997 C1996 1.524 . S
C1997 C1998 1.415 . S
C1998 H1974 0.950 . S
C1998 C1993 1.363 . S
C1998 C1997 1.415 . S
C1999 H1975 0.951 . S
C1999 C2000 1.366 . S
C1999 C2001 1.388 . S
C2000 C1999 1.366 . S
C2000 C2004 1.385 . S
C2001 H1976 0.951 . S
C2001 C1999 1.388 . S
C2001 C2002 1.366 . S
C2002 C2001 1.366 . S
C2002 C2003 1.414 . S
C2002 C2005 1.499 1_455 S
C2003 H1977 0.950 . S
C2003 C2002 1.414 . S
C2003 C2004 1.374 . S
C2004 H1978 0.950 . S
C2004 C2000 1.385 . S
C2004 C2003 1.374 . S
C2005 C2002 1.499 1_655 S
C2005 C2006 1.373 . S
C2005 C2007 1.389 . S
C2006 H1979 0.950 . S
C2006 C1992 1.377 . S
C2006 C2005 1.373 . S
C2007 C1991 1.377 . S
C2007 C2005 1.389 . S
C2007 C2008 1.524 . S
C2008 C2007 1.524 . S
C2008 C2009 1.397 . S
C2008 C2013 1.363 . S
C2009 H1980 0.950 1_655 S
C2009 C2008 1.397 . S
C2009 C2010 1.334 1_655 S
C2010 H1981 0.950 . S
C2010 C2009 1.334 1_455 S
C2010 C2011 1.287 1_455 S
C2011 C2010 1.287 1_655 S
C2011 C2012 1.524 . S
C2011 H2014 1.016 . S
C2012 H1982 0.950 . S
C2012 C2011 1.524 . S
C2012 C2013 1.415 . S
C2013 H1983 0.950 . S
C2013 C2008 1.363 . S
C2013 C2012 1.415 . S
H2014 C2011 1.016 . S
H2015 C1996 0.913 . S
H2016 C2034 0.951 . S
H2017 C2036 0.951 . S
H2018 C2038 0.950 . S
H2019 C2039 0.950 . S
H2020 C2041 0.950 . S
H2021 C2044 0.950 . S
H2022 C2045 0.950 . S
H2023 C2047 0.950 . S
H2024 C2048 0.950 . S
H2025 C2049 0.951 . S
H2026 C2051 0.951 . S
H2027 C2053 0.950 . S
H2028 C2054 0.950 . S
H2029 C2056 0.950 . S
H2030 C2059 0.950 . S
H2031 C2060 0.950 . S
H2032 C2062 0.950 . S
H2033 C2063 0.950 . S
C2034 H2016 0.951 . S
C2034 C2035 1.366 . S
C2034 C2036 1.388 . S
C2035 C2034 1.366 . S
C2035 C2039 1.385 . S
C2036 H2017 0.951 . S
C2036 C2034 1.388 . S
C2036 C2037 1.366 . S
C2037 C2036 1.366 . S
C2037 C2038 1.414 . S
C2037 C2040 1.499 . S
C2038 H2018 0.950 . S
C2038 C2037 1.414 . S
C2038 C2039 1.374 . S
C2039 H2019 0.950 . S
C2039 C2035 1.385 . S
C2039 C2038 1.374 . S
C2040 C2037 1.499 . S
C2040 C2041 1.373 . S
C2040 C2042 1.389 . S
C2041 H2020 0.950 . S
C2041 C2040 1.373 . S
C2041 C2057 1.377 . S
C2042 C2040 1.389 . S
C2042 C2043 1.524 . S
C2042 C2056 1.377 . S
C2043 C2042 1.524 . S
C2043 C2044 1.397 . S
C2043 C2048 1.363 . S
C2044 H2021 0.950 . S
C2044 C2043 1.397 . S
C2044 C2045 1.334 . S
C2045 H2022 0.950 . S
C2045 C2044 1.334 . S
C2045 C2046 1.287 . S
C2046 C2045 1.287 . S
C2046 C2047 1.524 . S
C2046 H2065 0.913 1_556 S
C2047 H2023 0.950 . S
C2047 C2046 1.524 . S
C2047 C2048 1.415 . S
C2048 H2024 0.950 . S
C2048 C2043 1.363 . S
C2048 C2047 1.415 . S
C2049 H2025 0.951 . S
C2049 C2050 1.366 . S
C2049 C2051 1.388 . S
C2050 C2049 1.366 . S
C2050 C2054 1.385 . S
C2051 H2026 0.951 . S
C2051 C2049 1.388 . S
C2051 C2052 1.366 . S
C2052 C2051 1.366 . S
C2052 C2053 1.414 . S
C2052 C2055 1.499 . S
C2053 H2027 0.950 . S
C2053 C2052 1.414 . S
C2053 C2054 1.374 . S
C2054 H2028 0.950 . S
C2054 C2050 1.385 . S
C2054 C2053 1.374 . S
C2055 C2052 1.499 . S
C2055 C2056 1.373 . S
C2055 C2057 1.389 . S
C2056 H2029 0.950 . S
C2056 C2042 1.377 . S
C2056 C2055 1.373 . S
C2057 C2041 1.377 . S
C2057 C2055 1.389 . S
C2057 C2058 1.524 . S
C2058 C2057 1.524 . S
C2058 C2059 1.397 . S
C2058 C2063 1.363 . S
C2059 H2030 0.950 . S
C2059 C2058 1.397 . S
C2059 C2060 1.334 . S
C2060 H2031 0.950 . S
C2060 C2059 1.334 . S
C2060 C2061 1.287 . S
C2061 C2060 1.287 . S
C2061 C2062 1.524 . S
C2061 H2064 0.999 . S
C2062 H2032 0.950 . S
C2062 C2061 1.524 . S
C2062 C2063 1.415 . S
C2063 H2033 0.950 . S
C2063 C2058 1.363 . S
C2063 C2062 1.415 . S
H2064 C2061 0.999 . S
H2065 C2046 0.913 1_554 S
H2066 C2084 0.951 . S
H2067 C2086 0.951 . S
H2068 C2088 0.950 . S
H2069 C2089 0.950 . S
H2070 C2091 0.950 . S
H2071 C2094 0.950 . S
H2072 C2095 0.950 . S
H2073 C2097 0.950 . S
H2074 C2098 0.950 . S
H2075 C2099 0.951 . S
H2076 C2101 0.951 . S
H2077 C2103 0.950 . S
H2078 C2104 0.950 . S
H2079 C2106 0.950 . S
H2080 C2109 0.950 . S
H2081 C2110 0.950 . S
H2082 C2112 0.950 . S
H2083 C2113 0.950 . S
C2084 H2066 0.951 . S
C2084 C2085 1.366 . S
C2084 C2086 1.388 . S
C2085 C2084 1.366 . S
C2085 C2089 1.385 . S
C2086 H2067 0.951 . S
C2086 C2084 1.388 . S
C2086 C2087 1.366 . S
C2087 C2086 1.366 . S
C2087 C2088 1.414 . S
C2087 C2090 1.499 . S
C2088 H2068 0.950 . S
C2088 C2087 1.414 . S
C2088 C2089 1.374 . S
C2089 H2069 0.950 . S
C2089 C2085 1.385 . S
C2089 C2088 1.374 . S
C2090 C2087 1.499 . S
C2090 C2091 1.373 . S
C2090 C2092 1.389 . S
C2091 H2070 0.950 . S
C2091 C2090 1.373 . S
C2091 C2107 1.377 . S
C2092 C2090 1.389 . S
C2092 C2093 1.524 . S
C2092 C2106 1.377 . S
C2093 C2092 1.524 . S
C2093 C2094 1.397 . S
C2093 C2098 1.363 . S
C2094 H2071 0.950 . S
C2094 C2093 1.397 . S
C2094 C2095 1.334 . S
C2095 H2072 0.950 . S
C2095 C2094 1.334 . S
C2095 C2096 1.287 . S
C2096 C2095 1.287 . S
C2096 C2097 1.524 . S
C2096 H2115 0.913 . S
C2097 H2073 0.950 . S
C2097 C2096 1.524 . S
C2097 C2098 1.415 . S
C2098 H2074 0.950 . S
C2098 C2093 1.363 . S
C2098 C2097 1.415 . S
C2099 H2075 0.951 . S
C2099 C2100 1.366 . S
C2099 C2101 1.388 . S
C2100 C2099 1.366 . S
C2100 C2104 1.385 . S
C2101 H2076 0.951 . S
C2101 C2099 1.388 . S
C2101 C2102 1.366 . S
C2102 C2101 1.366 . S
C2102 C2103 1.414 . S
C2102 C2105 1.499 . S
C2103 H2077 0.950 . S
C2103 C2102 1.414 . S
C2103 C2104 1.374 . S
C2104 H2078 0.950 . S
C2104 C2100 1.385 . S
C2104 C2103 1.374 . S
C2105 C2102 1.499 . S
C2105 C2106 1.373 . S
C2105 C2107 1.389 . S
C2106 H2079 0.950 . S
C2106 C2092 1.377 . S
C2106 C2105 1.373 . S
C2107 C2091 1.377 . S
C2107 C2105 1.389 . S
C2107 C2108 1.524 . S
C2108 C2107 1.524 . S
C2108 C2109 1.397 . S
C2108 C2113 1.363 . S
C2109 H2080 0.950 . S
C2109 C2108 1.397 . S
C2109 C2110 1.334 . S
C2110 H2081 0.950 . S
C2110 C2109 1.334 . S
C2110 C2111 1.287 . S
C2111 C2110 1.287 . S
C2111 C2112 1.524 . S
C2111 H2114 0.999 . S
C2112 H2082 0.950 . S
C2112 C2111 1.524 . S
C2112 C2113 1.415 . S
C2113 H2083 0.950 . S
C2113 C2108 1.363 . S
C2113 C2112 1.415 . S
H2114 C2111 0.999 . S
H2115 C2096 0.913 . S
H2116 C2134 0.951 . S
H2117 C2136 0.951 . S
H2118 C2138 0.950 . S
H2119 C2139 0.950 . S
H2120 C2141 0.950 . S
H2121 C2144 0.950 . S
H2122 C2145 0.950 . S
H2123 C2147 0.950 . S
H2124 C2148 0.950 . S
H2125 C2149 0.951 . S
H2126 C2151 0.951 . S
H2127 C2153 0.950 . S
H2128 C2154 0.950 . S
H2129 C2156 0.950 . S
H2130 C2159 0.950 . S
H2131 C2160 0.950 . S
H2132 C2162 0.950 . S
H2133 C2163 0.950 . S
C2134 H2116 0.951 . S
C2134 C2135 1.366 . S
C2134 C2136 1.388 . S
C2135 C2134 1.366 . S
C2135 C2139 1.385 . S
C2136 H2117 0.951 . S
C2136 C2134 1.388 . S
C2136 C2137 1.366 . S
C2137 C2136 1.366 . S
C2137 C2138 1.414 . S
C2137 C2140 1.499 . S
C2138 H2118 0.950 . S
C2138 C2137 1.414 . S
C2138 C2139 1.374 . S
C2139 H2119 0.950 . S
C2139 C2135 1.385 . S
C2139 C2138 1.374 . S
C2140 C2137 1.499 . S
C2140 C2141 1.373 . S
C2140 C2142 1.389 . S
C2141 H2120 0.950 . S
C2141 C2140 1.373 . S
C2141 C2157 1.377 . S
C2142 C2140 1.389 . S
C2142 C2143 1.524 . S
C2142 C2156 1.377 . S
C2143 C2142 1.524 . S
C2143 C2144 1.397 . S
C2143 C2148 1.363 . S
C2144 H2121 0.950 . S
C2144 C2143 1.397 . S
C2144 C2145 1.334 . S
C2145 H2122 0.950 . S
C2145 C2144 1.334 . S
C2145 C2146 1.287 . S
C2146 C2145 1.287 . S
C2146 C2147 1.524 . S
C2146 H2165 0.913 . S
C2147 H2123 0.950 . S
C2147 C2146 1.524 . S
C2147 C2148 1.415 . S
C2148 H2124 0.950 . S
C2148 C2143 1.363 . S
C2148 C2147 1.415 . S
C2149 H2125 0.951 . S
C2149 C2150 1.366 . S
C2149 C2151 1.388 . S
C2150 C2149 1.366 . S
C2150 C2154 1.385 . S
C2151 H2126 0.951 . S
C2151 C2149 1.388 . S
C2151 C2152 1.366 . S
C2152 C2151 1.366 . S
C2152 C2153 1.414 . S
C2152 C2155 1.499 . S
C2153 H2127 0.950 . S
C2153 C2152 1.414 . S
C2153 C2154 1.374 . S
C2154 H2128 0.950 . S
C2154 C2150 1.385 . S
C2154 C2153 1.374 . S
C2155 C2152 1.499 . S
C2155 C2156 1.373 . S
C2155 C2157 1.389 . S
C2156 H2129 0.950 . S
C2156 C2142 1.377 . S
C2156 C2155 1.373 . S
C2157 C2141 1.377 . S
C2157 C2155 1.389 . S
C2157 C2158 1.524 . S
C2158 C2157 1.524 . S
C2158 C2159 1.397 . S
C2158 C2163 1.363 . S
C2159 H2130 0.950 . S
C2159 C2158 1.397 . S
C2159 C2160 1.334 . S
C2160 H2131 0.950 . S
C2160 C2159 1.334 . S
C2160 C2161 1.287 . S
C2161 C2160 1.287 . S
C2161 C2162 1.524 . S
C2161 H2164 0.999 . S
C2162 H2132 0.950 . S
C2162 C2161 1.524 . S
C2162 C2163 1.415 . S
C2163 H2133 0.950 . S
C2163 C2158 1.363 . S
C2163 C2162 1.415 . S
H2164 C2161 0.999 . S
H2165 C2146 0.913 . S
H2166 C2184 0.951 . S
H2167 C2186 0.951 . S
H2168 C2188 0.950 . S
H2169 C2189 0.950 . S
H2170 C2191 0.950 . S
H2171 C2194 0.950 . S
H2172 C2195 0.950 . S
H2173 C2197 0.950 . S
H2174 C2198 0.950 . S
H2175 C2199 0.951 . S
H2176 C2201 0.951 . S
H2177 C2203 0.950 . S
H2178 C2204 0.950 . S
H2179 C2206 0.950 . S
H2180 C2209 0.950 . S
H2181 C2210 0.950 . S
H2182 C2212 0.950 . S
H2183 C2213 0.950 . S
C2184 H2166 0.951 . S
C2184 C2185 1.366 . S
C2184 C2186 1.388 . S
C2185 C2184 1.366 . S
C2185 C2189 1.385 . S
C2186 H2167 0.951 . S
C2186 C2184 1.388 . S
C2186 C2187 1.366 . S
C2187 C2186 1.366 . S
C2187 C2188 1.414 . S
C2187 C2190 1.499 . S
C2188 H2168 0.950 . S
C2188 C2187 1.414 . S
C2188 C2189 1.374 . S
C2189 H2169 0.950 . S
C2189 C2185 1.385 . S
C2189 C2188 1.374 . S
C2190 C2187 1.499 . S
C2190 C2191 1.373 . S
C2190 C2192 1.389 . S
C2191 H2170 0.950 . S
C2191 C2190 1.373 . S
C2191 C2207 1.377 . S
C2192 C2190 1.389 . S
C2192 C2193 1.524 . S
C2192 C2206 1.377 . S
C2193 C2192 1.524 . S
C2193 C2194 1.397 . S
C2193 C2198 1.363 . S
C2194 H2171 0.950 . S
C2194 C2193 1.397 . S
C2194 C2195 1.334 . S
C2195 H2172 0.950 . S
C2195 C2194 1.334 . S
C2195 C2196 1.287 . S
C2196 C2195 1.287 . S
C2196 C2197 1.524 . S
C2196 H2215 0.913 . S
C2197 H2173 0.950 . S
C2197 C2196 1.524 . S
C2197 C2198 1.415 . S
C2198 H2174 0.950 . S
C2198 C2193 1.363 . S
C2198 C2197 1.415 . S
C2199 H2175 0.951 . S
C2199 C2200 1.366 . S
C2199 C2201 1.388 . S
C2200 C2199 1.366 . S
C2200 C2204 1.385 . S
C2201 H2176 0.951 . S
C2201 C2199 1.388 . S
C2201 C2202 1.366 . S
C2202 C2201 1.366 . S
C2202 C2203 1.414 . S
C2202 C2205 1.499 1_455 S
C2203 H2177 0.950 . S
C2203 C2202 1.414 . S
C2203 C2204 1.374 . S
C2204 H2178 0.950 . S
C2204 C2200 1.385 . S
C2204 C2203 1.374 . S
C2205 C2202 1.499 1_655 S
C2205 C2206 1.373 . S
C2205 C2207 1.389 . S
C2206 H2179 0.950 . S
C2206 C2192 1.377 . S
C2206 C2205 1.373 . S
C2207 C2191 1.377 . S
C2207 C2205 1.389 . S
C2207 C2208 1.524 . S
C2208 C2207 1.524 . S
C2208 C2209 1.397 1_655 S
C2208 C2213 1.363 . S
C2209 H2180 0.950 . S
C2209 C2208 1.397 1_455 S
C2209 C2210 1.334 . S
C2210 H2181 0.950 . S
C2210 C2209 1.334 . S
C2210 C2211 1.287 . S
C2211 C2210 1.287 . S
C2211 C2212 1.524 . S
C2211 H2214 0.999 . S
C2212 H2182 0.950 . S
C2212 C2211 1.524 . S
C2212 C2213 1.415 1_455 S
C2213 H2183 0.950 . S
C2213 C2208 1.363 . S
C2213 C2212 1.415 1_655 S
H2214 C2211 0.999 . S
H2215 C2196 0.913 . S
H2216 C2234 0.951 . S
H2217 C2236 0.951 . S
H2218 C2238 0.950 . S
H2219 C2239 0.950 . S
H2220 C2241 0.950 . S
H2221 C2244 0.950 . S
H2222 C2245 0.950 . S
H2223 C2247 0.950 . S
H2224 C2248 0.950 . S
H2225 C2249 0.951 . S
H2226 C2251 0.951 . S
H2227 C2253 0.950 . S
H2228 C2254 0.950 . S
H2229 C2256 0.950 . S
H2230 C2259 0.950 . S
H2231 C2260 0.950 . S
H2232 C2262 0.950 . S
H2233 C2263 0.950 . S
C2234 H2216 0.951 . S
C2234 C2235 1.366 . S
C2234 C2236 1.388 . S
C2235 C2234 1.366 . S
C2235 C2239 1.385 . S
C2236 H2217 0.951 . S
C2236 C2234 1.388 . S
C2236 C2237 1.366 . S
C2237 C2236 1.366 . S
C2237 C2238 1.414 . S
C2237 C2240 1.499 . S
C2238 H2218 0.950 . S
C2238 C2237 1.414 . S
C2238 C2239 1.374 . S
C2239 H2219 0.950 . S
C2239 C2235 1.385 . S
C2239 C2238 1.374 . S
C2240 C2237 1.499 . S
C2240 C2241 1.373 . S
C2240 C2242 1.389 . S
C2241 H2220 0.950 . S
C2241 C2240 1.373 . S
C2241 C2257 1.377 . S
C2242 C2240 1.389 . S
C2242 C2243 1.524 . S
C2242 C2256 1.377 . S
C2243 C2242 1.524 . S
C2243 C2244 1.397 . S
C2243 C2248 1.363 . S
C2244 H2221 0.950 . S
C2244 C2243 1.397 . S
C2244 C2245 1.334 . S
C2245 H2222 0.950 . S
C2245 C2244 1.334 . S
C2245 C2246 1.287 . S
C2246 C2245 1.287 . S
C2246 C2247 1.524 . S
C2246 H2265 0.913 . S
C2247 H2223 0.950 . S
C2247 C2246 1.524 . S
C2247 C2248 1.415 . S
C2248 H2224 0.950 . S
C2248 C2243 1.363 . S
C2248 C2247 1.415 . S
C2249 H2225 0.951 . S
C2249 C2250 1.366 . S
C2249 C2251 1.388 . S
C2250 C2249 1.366 . S
C2250 C2254 1.385 . S
C2251 H2226 0.951 . S
C2251 C2249 1.388 . S
C2251 C2252 1.366 . S
C2252 C2251 1.366 . S
C2252 C2253 1.414 . S
C2252 C2255 1.499 . S
C2253 H2227 0.950 . S
C2253 C2252 1.414 . S
C2253 C2254 1.374 . S
C2254 H2228 0.950 . S
C2254 C2250 1.385 . S
C2254 C2253 1.374 . S
C2255 C2252 1.499 . S
C2255 C2256 1.373 . S
C2255 C2257 1.389 . S
C2256 H2229 0.950 . S
C2256 C2242 1.377 . S
C2256 C2255 1.373 . S
C2257 C2241 1.377 . S
C2257 C2255 1.389 . S
C2257 C2258 1.524 . S
C2258 C2257 1.524 . S
C2258 C2259 1.397 . S
C2258 C2263 1.363 . S
C2259 H2230 0.950 . S
C2259 C2258 1.397 . S
C2259 C2260 1.334 . S
C2260 H2231 0.950 . S
C2260 C2259 1.334 . S
C2260 C2261 1.287 . S
C2261 C2260 1.287 . S
C2261 C2262 1.524 . S
C2261 H2264 0.999 . S
C2262 H2232 0.950 . S
C2262 C2261 1.524 . S
C2262 C2263 1.415 . S
C2263 H2233 0.950 . S
C2263 C2258 1.363 . S
C2263 C2262 1.415 . S
H2264 C2261 0.999 . S
H2265 C2246 0.913 . S
H2266 C2284 0.951 . S
H2267 C2286 0.951 . S
H2268 C2288 0.950 . S
H2269 C2289 0.950 . S
H2270 C2291 0.950 . S
H2271 C2294 0.950 . S
H2272 C2295 0.950 . S
H2273 C2297 0.950 1_554 S
H2274 C2298 0.950 . S
H2275 C2299 0.951 . S
H2276 C2301 0.951 . S
H2277 C2303 0.950 . S
H2278 C2304 0.950 . S
H2279 C2306 0.950 . S
H2280 C2309 0.950 . S
H2281 C2310 0.950 . S
H2282 C2312 0.950 . S
H2283 C2313 0.950 . S
C2284 H2266 0.951 . S
C2284 C2285 1.366 . S
C2284 C2286 1.388 . S
C2285 C2284 1.366 . S
C2285 C2289 1.385 . S
C2286 H2267 0.951 . S
C2286 C2284 1.388 . S
C2286 C2287 1.366 . S
C2287 C2286 1.366 . S
C2287 C2288 1.414 . S
C2287 C2290 1.499 1_455 S
C2288 H2268 0.950 . S
C2288 C2287 1.414 . S
C2288 C2289 1.374 . S
C2289 H2269 0.950 . S
C2289 C2285 1.385 . S
C2289 C2288 1.374 . S
C2290 C2287 1.499 1_655 S
C2290 C2291 1.373 . S
C2290 C2292 1.389 . S
C2291 H2270 0.950 . S
C2291 C2290 1.373 . S
C2291 C2307 1.377 . S
C2292 C2290 1.389 . S
C2292 C2293 1.524 . S
C2292 C2306 1.377 . S
C2293 C2292 1.524 . S
C2293 C2294 1.397 1_655 S
C2293 C2298 1.363 . S
C2294 H2271 0.950 . S
C2294 C2293 1.397 1_455 S
C2294 C2295 1.334 . S
C2295 H2272 0.950 . S
C2295 C2294 1.334 . S
C2295 C2296 1.287 . S
C2296 C2295 1.287 . S
C2296 C2297 1.524 1_455 S
C2296 H2315 0.913 1_556 S
C2297 H2273 0.950 1_556 S
C2297 C2296 1.524 1_655 S
C2297 C2298 1.415 . S
C2298 H2274 0.950 . S
C2298 C2293 1.363 . S
C2298 C2297 1.415 . S
C2299 H2275 0.951 . S
C2299 C2300 1.366 . S
C2299 C2301 1.388 . S
C2300 C2299 1.366 . S
C2300 C2304 1.385 . S
C2301 H2276 0.951 . S
C2301 C2299 1.388 . S
C2301 C2302 1.366 . S
C2302 C2301 1.366 . S
C2302 C2303 1.414 . S
C2302 C2305 1.499 . S
C2303 H2277 0.950 . S
C2303 C2302 1.414 . S
C2303 C2304 1.374 . S
C2304 H2278 0.950 . S
C2304 C2300 1.385 . S
C2304 C2303 1.374 . S
C2305 C2302 1.499 . S
C2305 C2306 1.373 . S
C2305 C2307 1.389 . S
C2306 H2279 0.950 . S
C2306 C2292 1.377 . S
C2306 C2305 1.373 . S
C2307 C2291 1.377 . S
C2307 C2305 1.389 . S
C2307 C2308 1.524 . S
C2308 C2307 1.524 . S
C2308 C2309 1.397 . S
C2308 C2313 1.363 . S
C2309 H2280 0.950 . S
C2309 C2308 1.397 . S
C2309 C2310 1.334 . S
C2310 H2281 0.950 . S
C2310 C2309 1.334 . S
C2310 C2311 1.287 . S
C2311 C2310 1.287 . S
C2311 C2312 1.524 . S
C2311 H2314 0.999 . S
C2312 H2282 0.950 . S
C2312 C2311 1.524 . S
C2312 C2313 1.415 . S
C2313 H2283 0.950 . S
C2313 C2308 1.363 . S
C2313 C2312 1.415 . S
H2314 C2311 0.999 . S
H2315 C2296 0.913 1_554 S
H2316 C2334 0.951 . S
H2317 C2336 0.951 . S
H2318 C2338 0.950 . S
H2319 C2339 0.950 . S
H2320 C2341 0.950 . S
H2321 C2344 0.950 . S
H2322 C2345 0.950 . S
H2323 C2347 0.950 . S
H2324 C2348 0.950 . S
H2325 C2349 0.951 . S
H2326 C2351 0.951 . S
H2327 C2353 0.950 . S
H2328 C2354 0.950 . S
H2329 C2356 0.950 . S
H2330 C2359 0.950 . S
H2331 C2360 0.950 . S
H2332 C2362 0.950 . S
H2333 C2363 0.950 . S
C2334 H2316 0.951 . S
C2334 C2335 1.366 . S
C2334 C2336 1.388 . S
C2335 C2334 1.366 . S
C2335 C2339 1.385 . S
C2336 H2317 0.951 . S
C2336 C2334 1.388 . S
C2336 C2337 1.366 . S
C2337 C2336 1.366 . S
C2337 C2338 1.414 . S
C2337 C2340 1.499 . S
C2338 H2318 0.950 . S
C2338 C2337 1.414 . S
C2338 C2339 1.374 . S
C2339 H2319 0.950 . S
C2339 C2335 1.385 . S
C2339 C2338 1.374 . S
C2340 C2337 1.499 . S
C2340 C2341 1.373 . S
C2340 C2342 1.389 . S
C2341 H2320 0.950 . S
C2341 C2340 1.373 . S
C2341 C2357 1.377 . S
C2342 C2340 1.389 . S
C2342 C2343 1.524 . S
C2342 C2356 1.377 . S
C2343 C2342 1.524 . S
C2343 C2344 1.397 . S
C2343 C2348 1.363 . S
C2344 H2321 0.950 . S
C2344 C2343 1.397 . S
C2344 C2345 1.334 . S
C2345 H2322 0.950 . S
C2345 C2344 1.334 . S
C2345 C2346 1.287 . S
C2346 C2345 1.287 . S
C2346 C2347 1.524 . S
C2346 H2365 0.913 . S
C2347 H2323 0.950 . S
C2347 C2346 1.524 . S
C2347 C2348 1.415 . S
C2348 H2324 0.950 . S
C2348 C2343 1.363 . S
C2348 C2347 1.415 . S
C2349 H2325 0.951 . S
C2349 C2350 1.366 . S
C2349 C2351 1.388 . S
C2350 C2349 1.366 . S
C2350 C2354 1.385 . S
C2351 H2326 0.951 . S
C2351 C2349 1.388 . S
C2351 C2352 1.366 . S
C2352 C2351 1.366 . S
C2352 C2353 1.414 . S
C2352 C2355 1.499 . S
C2353 H2327 0.950 . S
C2353 C2352 1.414 . S
C2353 C2354 1.374 . S
C2354 H2328 0.950 . S
C2354 C2350 1.385 . S
C2354 C2353 1.374 . S
C2355 C2352 1.499 . S
C2355 C2356 1.373 . S
C2355 C2357 1.389 . S
C2356 H2329 0.950 . S
C2356 C2342 1.377 . S
C2356 C2355 1.373 . S
C2357 C2341 1.377 . S
C2357 C2355 1.389 . S
C2357 C2358 1.524 . S
C2358 C2357 1.524 . S
C2358 C2359 1.397 . S
C2358 C2363 1.363 . S
C2359 H2330 0.950 . S
C2359 C2358 1.397 . S
C2359 C2360 1.334 . S
C2360 H2331 0.950 . S
C2360 C2359 1.334 . S
C2360 C2361 1.287 . S
C2361 C2360 1.287 . S
C2361 C2362 1.524 . S
C2361 H2364 0.999 . S
C2362 H2332 0.950 . S
C2362 C2361 1.524 . S
C2362 C2363 1.415 . S
C2363 H2333 0.950 . S
C2363 C2358 1.363 . S
C2363 C2362 1.415 . S
H2364 C2361 0.999 . S
H2365 C2346 0.913 . S
H2366 C2384 0.951 . S
H2367 C2386 0.951 . S
H2368 C2388 0.950 . S
H2369 C2389 0.950 . S
H2370 C2391 0.950 . S
H2371 C2394 0.950 . S
H2372 C2395 0.950 . S
H2373 C2397 0.950 . S
H2374 C2398 0.950 . S
H2375 C2399 0.951 . S
H2376 C2401 0.951 . S
H2377 C2403 0.950 . S
H2378 C2404 0.950 . S
H2379 C2406 0.950 . S
H2380 C2409 0.950 . S
H2381 C2410 0.950 . S
H2382 C2412 0.950 . S
H2383 C2413 0.950 . S
C2384 H2366 0.951 . S
C2384 C2385 1.366 . S
C2384 C2386 1.388 . S
C2385 C2384 1.366 . S
C2385 C2389 1.385 . S
C2386 H2367 0.951 . S
C2386 C2384 1.388 . S
C2386 C2387 1.366 . S
C2387 C2386 1.366 . S
C2387 C2388 1.414 . S
C2387 C2390 1.499 . S
C2388 H2368 0.950 . S
C2388 C2387 1.414 . S
C2388 C2389 1.374 . S
C2389 H2369 0.950 . S
C2389 C2385 1.385 . S
C2389 C2388 1.374 . S
C2390 C2387 1.499 . S
C2390 C2391 1.373 . S
C2390 C2392 1.389 . S
C2391 H2370 0.950 . S
C2391 C2390 1.373 . S
C2391 C2407 1.377 . S
C2392 C2390 1.389 . S
C2392 C2393 1.524 . S
C2392 C2406 1.377 . S
C2393 C2392 1.524 . S
C2393 C2394 1.397 . S
C2393 C2398 1.363 . S
C2394 H2371 0.950 . S
C2394 C2393 1.397 . S
C2394 C2395 1.334 . S
C2395 H2372 0.950 . S
C2395 C2394 1.334 . S
C2395 C2396 1.287 . S
C2396 C2395 1.287 . S
C2396 C2397 1.524 . S
C2396 H2415 0.913 . S
C2397 H2373 0.950 . S
C2397 C2396 1.524 . S
C2397 C2398 1.415 . S
C2398 H2374 0.950 . S
C2398 C2393 1.363 . S
C2398 C2397 1.415 . S
C2399 H2375 0.951 . S
C2399 C2400 1.366 . S
C2399 C2401 1.388 . S
C2400 C2399 1.366 . S
C2400 C2404 1.385 . S
C2401 H2376 0.951 . S
C2401 C2399 1.388 . S
C2401 C2402 1.366 . S
C2402 C2401 1.366 . S
C2402 C2403 1.414 . S
C2402 C2405 1.499 . S
C2403 H2377 0.950 . S
C2403 C2402 1.414 . S
C2403 C2404 1.374 . S
C2404 H2378 0.950 . S
C2404 C2400 1.385 . S
C2404 C2403 1.374 . S
C2405 C2402 1.499 . S
C2405 C2406 1.373 . S
C2405 C2407 1.389 . S
C2406 H2379 0.950 . S
C2406 C2392 1.377 . S
C2406 C2405 1.373 . S
C2407 C2391 1.377 . S
C2407 C2405 1.389 . S
C2407 C2408 1.524 . S
C2408 C2407 1.524 . S
C2408 C2409 1.397 . S
C2408 C2413 1.363 . S
C2409 H2380 0.950 . S
C2409 C2408 1.397 . S
C2409 C2410 1.334 . S
C2410 H2381 0.950 . S
C2410 C2409 1.334 . S
C2410 C2411 1.287 . S
C2411 C2410 1.287 . S
C2411 C2412 1.524 . S
C2411 H2414 0.999 . S
C2412 H2382 0.950 . S
C2412 C2411 1.524 . S
C2412 C2413 1.415 . S
C2413 H2383 0.950 . S
C2413 C2408 1.363 . S
C2413 C2412 1.415 . S
H2414 C2411 0.999 . S
H2415 C2396 0.913 . S
H2416 C2434 0.951 . S
H2417 C2436 0.951 . S
H2418 C2438 0.950 . S
H2419 C2439 0.950 . S
H2420 C2441 0.950 . S
H2421 C2444 0.950 . S
H2422 C2445 0.950 . S
H2423 C2447 0.950 1_556 S
H2424 C2448 0.950 . S
H2425 C2449 0.951 . S
H2426 C2451 0.951 . S
H2427 C2453 0.950 . S
H2428 C2454 0.950 . S
H2429 C2456 0.950 . S
H2430 C2459 0.950 . S
H2431 C2460 0.950 . S
H2432 C2462 0.950 . S
H2433 C2463 0.950 . S
C2434 H2416 0.951 . S
C2434 C2435 1.366 . S
C2434 C2436 1.388 . S
C2435 C2434 1.366 . S
C2435 C2439 1.385 . S
C2436 H2417 0.951 . S
C2436 C2434 1.388 . S
C2436 C2437 1.366 . S
C2437 C2436 1.366 . S
C2437 C2438 1.414 . S
C2437 C2440 1.499 . S
C2438 H2418 0.950 . S
C2438 C2437 1.414 . S
C2438 C2439 1.374 . S
C2439 H2419 0.950 . S
C2439 C2435 1.385 . S
C2439 C2438 1.374 . S
C2440 C2437 1.499 . S
C2440 C2441 1.373 . S
C2440 C2442 1.389 . S
C2441 H2420 0.950 . S
C2441 C2440 1.373 . S
C2441 C2457 1.377 . S
C2442 C2440 1.389 . S
C2442 C2443 1.524 . S
C2442 C2456 1.377 . S
C2443 C2442 1.524 . S
C2443 C2444 1.397 . S
C2443 C2448 1.363 . S
C2444 H2421 0.950 . S
C2444 C2443 1.397 . S
C2444 C2445 1.334 . S
C2445 H2422 0.950 . S
C2445 C2444 1.334 . S
C2445 C2446 1.287 . S
C2446 C2445 1.287 . S
C2446 C2447 1.524 . S
C2446 H2465 0.913 . S
C2447 H2423 0.950 1_554 S
C2447 C2446 1.524 . S
C2447 C2448 1.415 . S
C2448 H2424 0.950 . S
C2448 C2443 1.363 . S
C2448 C2447 1.415 . S
C2449 H2425 0.951 . S
C2449 C2450 1.366 . S
C2449 C2451 1.388 . S
C2450 C2449 1.366 . S
C2450 C2454 1.385 . S
C2451 H2426 0.951 . S
C2451 C2449 1.388 . S
C2451 C2452 1.366 . S
C2452 C2451 1.366 . S
C2452 C2453 1.414 . S
C2452 C2455 1.499 . S
C2453 H2427 0.950 . S
C2453 C2452 1.414 . S
C2453 C2454 1.374 . S
C2454 H2428 0.950 . S
C2454 C2450 1.385 . S
C2454 C2453 1.374 . S
C2455 C2452 1.499 . S
C2455 C2456 1.373 . S
C2455 C2457 1.389 . S
C2456 H2429 0.950 . S
C2456 C2442 1.377 . S
C2456 C2455 1.373 . S
C2457 C2441 1.377 . S
C2457 C2455 1.389 . S
C2457 C2458 1.524 . S
C2458 C2457 1.524 . S
C2458 C2459 1.397 . S
C2458 C2463 1.363 . S
C2459 H2430 0.950 . S
C2459 C2458 1.397 . S
C2459 C2460 1.334 . S
C2460 H2431 0.950 . S
C2460 C2459 1.334 . S
C2460 C2461 1.287 . S
C2461 C2460 1.287 . S
C2461 C2462 1.524 . S
C2461 H2464 0.999 . S
C2462 H2432 0.950 . S
C2462 C2461 1.524 . S
C2462 C2463 1.415 . S
C2463 H2433 0.950 . S
C2463 C2458 1.363 . S
C2463 C2462 1.415 . S
H2464 C2461 0.999 . S
H2465 C2446 0.913 . S
H2466 C2484 0.951 . S
H2467 C2486 0.951 . S
H2468 C2488 0.950 . S
H2469 C2489 0.950 . S
H2470 C2491 0.950 . S
H2471 C2494 0.950 . S
H2472 C2495 0.950 . S
H2473 C2497 0.950 . S
H2474 C2498 0.950 . S
H2475 C2499 0.951 . S
H2476 C2501 0.951 . S
H2477 C2503 0.950 . S
H2478 C2504 0.950 . S
H2479 C2506 0.950 . S
H2480 C2509 0.950 . S
H2481 C2510 0.950 . S
H2482 C2512 0.950 . S
H2483 C2513 0.950 . S
C2484 H2466 0.951 . S
C2484 C2485 1.366 . S
C2484 C2486 1.388 . S
C2485 C2484 1.366 . S
C2485 C2489 1.385 . S
C2486 H2467 0.951 . S
C2486 C2484 1.388 . S
C2486 C2487 1.366 . S
C2487 C2486 1.366 . S
C2487 C2488 1.414 . S
C2487 C2490 1.499 . S
C2488 H2468 0.950 . S
C2488 C2487 1.414 . S
C2488 C2489 1.374 . S
C2489 H2469 0.950 . S
C2489 C2485 1.385 . S
C2489 C2488 1.374 . S
C2490 C2487 1.499 . S
C2490 C2491 1.373 . S
C2490 C2492 1.389 . S
C2491 H2470 0.950 . S
C2491 C2490 1.373 . S
C2491 C2507 1.377 . S
C2492 C2490 1.389 . S
C2492 C2493 1.524 . S
C2492 C2506 1.377 . S
C2493 C2492 1.524 . S
C2493 C2494 1.397 . S
C2493 C2498 1.363 . S
C2494 H2471 0.950 . S
C2494 C2493 1.397 . S
C2494 C2495 1.334 . S
C2495 H2472 0.950 . S
C2495 C2494 1.334 . S
C2495 C2496 1.287 . S
C2496 C2495 1.287 . S
C2496 C2497 1.524 . S
C2496 H2515 0.913 1_556 S
C2497 H2473 0.950 . S
C2497 C2496 1.524 . S
C2497 C2498 1.415 . S
C2498 H2474 0.950 . S
C2498 C2493 1.363 . S
C2498 C2497 1.415 . S
C2499 H2475 0.951 . S
C2499 C2500 1.366 . S
C2499 C2501 1.388 . S
C2500 C2499 1.366 . S
C2500 C2504 1.385 . S
C2501 H2476 0.951 . S
C2501 C2499 1.388 . S
C2501 C2502 1.366 . S
C2502 C2501 1.366 . S
C2502 C2503 1.414 . S
C2502 C2505 1.499 . S
C2503 H2477 0.950 . S
C2503 C2502 1.414 . S
C2503 C2504 1.374 . S
C2504 H2478 0.950 . S
C2504 C2500 1.385 . S
C2504 C2503 1.374 . S
C2505 C2502 1.499 . S
C2505 C2506 1.373 . S
C2505 C2507 1.389 . S
C2506 H2479 0.950 . S
C2506 C2492 1.377 . S
C2506 C2505 1.373 . S
C2507 C2491 1.377 . S
C2507 C2505 1.389 . S
C2507 C2508 1.524 . S
C2508 C2507 1.524 . S
C2508 C2509 1.397 . S
C2508 C2513 1.363 . S
C2509 H2480 0.950 . S
C2509 C2508 1.397 . S
C2509 C2510 1.334 . S
C2510 H2481 0.950 . S
C2510 C2509 1.334 . S
C2510 C2511 1.287 . S
C2511 C2510 1.287 . S
C2511 C2512 1.524 . S
C2511 H2514 0.999 . S
C2512 H2482 0.950 . S
C2512 C2511 1.524 . S
C2512 C2513 1.415 . S
C2513 H2483 0.950 . S
C2513 C2508 1.363 . S
C2513 C2512 1.415 . S
H2514 C2511 0.999 . S
H2515 C2496 0.913 1_554 S
H2516 C2534 0.951 . S
H2517 C2536 0.951 . S
H2518 C2538 0.950 . S
H2519 C2539 0.950 . S
H2520 C2541 0.950 . S
H2521 C2544 0.950 . S
H2522 C2545 0.950 . S
H2523 C2547 0.950 . S
H2524 C2548 0.950 . S
H2525 C2549 0.951 . S
H2526 C2551 0.951 . S
H2527 C2553 0.950 . S
H2528 C2554 0.950 . S
H2529 C2556 0.950 . S
H2530 C2559 0.950 . S
H2531 C2560 0.950 . S
H2532 C2562 0.950 . S
H2533 C2563 0.950 . S
C2534 H2516 0.951 . S
C2534 C2535 1.366 . S
C2534 C2536 1.388 . S
C2535 C2534 1.366 . S
C2535 C2539 1.385 . S
C2536 H2517 0.951 . S
C2536 C2534 1.388 . S
C2536 C2537 1.366 . S
C2537 C2536 1.366 . S
C2537 C2538 1.414 . S
C2537 C2540 1.499 . S
C2538 H2518 0.950 . S
C2538 C2537 1.414 . S
C2538 C2539 1.374 . S
C2539 H2519 0.950 . S
C2539 C2535 1.385 . S
C2539 C2538 1.374 . S
C2540 C2537 1.499 . S
C2540 C2541 1.373 . S
C2540 C2542 1.389 . S
C2541 H2520 0.950 . S
C2541 C2540 1.373 . S
C2541 C2557 1.377 . S
C2542 C2540 1.389 . S
C2542 C2543 1.524 . S
C2542 C2556 1.377 . S
C2543 C2542 1.524 . S
C2543 C2544 1.397 . S
C2543 C2548 1.363 . S
C2544 H2521 0.950 . S
C2544 C2543 1.397 . S
C2544 C2545 1.334 . S
C2545 H2522 0.950 . S
C2545 C2544 1.334 . S
C2545 C2546 1.287 . S
C2546 C2545 1.287 . S
C2546 C2547 1.524 . S
C2546 H2565 0.913 . S
C2547 H2523 0.950 . S
C2547 C2546 1.524 . S
C2547 C2548 1.415 . S
C2548 H2524 0.950 . S
C2548 C2543 1.363 . S
C2548 C2547 1.415 . S
C2549 H2525 0.951 . S
C2549 C2550 1.366 . S
C2549 C2551 1.388 . S
C2550 C2549 1.366 . S
C2550 C2554 1.385 . S
C2551 H2526 0.951 . S
C2551 C2549 1.388 . S
C2551 C2552 1.366 . S
C2552 C2551 1.366 . S
C2552 C2553 1.414 . S
C2552 C2555 1.499 . S
C2553 H2527 0.950 . S
C2553 C2552 1.414 . S
C2553 C2554 1.374 . S
C2554 H2528 0.950 . S
C2554 C2550 1.385 . S
C2554 C2553 1.374 . S
C2555 C2552 1.499 . S
C2555 C2556 1.373 . S
C2555 C2557 1.389 . S
C2556 H2529 0.950 . S
C2556 C2542 1.377 . S
C2556 C2555 1.373 . S
C2557 C2541 1.377 . S
C2557 C2555 1.389 . S
C2557 C2558 1.524 . S
C2558 C2557 1.524 . S
C2558 C2559 1.397 . S
C2558 C2563 1.363 . S
C2559 H2530 0.950 . S
C2559 C2558 1.397 . S
C2559 C2560 1.334 . S
C2560 H2531 0.950 . S
C2560 C2559 1.334 . S
C2560 C2561 1.287 . S
C2561 C2560 1.287 . S
C2561 C2562 1.524 . S
C2561 H2564 0.999 . S
C2562 H2532 0.950 . S
C2562 C2561 1.524 . S
C2562 C2563 1.415 . S
C2563 H2533 0.950 . S
C2563 C2558 1.363 . S
C2563 C2562 1.415 . S
H2564 C2561 0.999 . S
H2565 C2546 0.913 . S
H2566 C2584 0.951 . S
H2567 C2586 0.951 . S
H2568 C2588 0.950 . S
H2569 C2589 0.950 . S
H2570 C2591 0.950 . S
H2571 C2594 0.950 . S
H2572 C2595 0.950 . S
H2573 C2597 0.950 . S
H2574 C2598 0.950 . S
H2575 C2599 0.951 . S
H2576 C2601 0.951 . S
H2577 C2603 0.950 . S
H2578 C2604 0.950 . S
H2579 C2606 0.950 . S
H2580 C2609 0.950 . S
H2581 C2610 0.950 . S
H2582 C2612 0.950 . S
H2583 C2613 0.950 . S
C2584 H2566 0.951 . S
C2584 C2585 1.366 . S
C2584 C2586 1.388 . S
C2585 C2584 1.366 . S
C2585 C2589 1.385 . S
C2586 H2567 0.951 . S
C2586 C2584 1.388 . S
C2586 C2587 1.366 . S
C2587 C2586 1.366 . S
C2587 C2588 1.414 . S
C2587 C2590 1.499 . S
C2588 H2568 0.950 . S
C2588 C2587 1.414 . S
C2588 C2589 1.374 . S
C2589 H2569 0.950 . S
C2589 C2585 1.385 . S
C2589 C2588 1.374 . S
C2590 C2587 1.499 . S
C2590 C2591 1.373 . S
C2590 C2592 1.389 . S
C2591 H2570 0.950 . S
C2591 C2590 1.373 . S
C2591 C2607 1.377 . S
C2592 C2590 1.389 . S
C2592 C2593 1.524 . S
C2592 C2606 1.377 . S
C2593 C2592 1.524 . S
C2593 C2594 1.397 . S
C2593 C2598 1.363 . S
C2594 H2571 0.950 . S
C2594 C2593 1.397 . S
C2594 C2595 1.334 . S
C2595 H2572 0.950 . S
C2595 C2594 1.334 . S
C2595 C2596 1.287 . S
C2596 C2595 1.287 . S
C2596 C2597 1.524 . S
C2596 H2615 0.913 . S
C2597 H2573 0.950 . S
C2597 C2596 1.524 . S
C2597 C2598 1.415 . S
C2598 H2574 0.950 . S
C2598 C2593 1.363 . S
C2598 C2597 1.415 . S
C2599 H2575 0.951 . S
C2599 C2600 1.366 . S
C2599 C2601 1.388 . S
C2600 C2599 1.366 . S
C2600 C2604 1.385 . S
C2601 H2576 0.951 . S
C2601 C2599 1.388 . S
C2601 C2602 1.366 . S
C2602 C2601 1.366 . S
C2602 C2603 1.414 . S
C2602 C2605 1.499 1_655 S
C2603 H2577 0.950 . S
C2603 C2602 1.414 . S
C2603 C2604 1.374 . S
C2604 H2578 0.950 . S
C2604 C2600 1.385 . S
C2604 C2603 1.374 . S
C2605 C2602 1.499 1_455 S
C2605 C2606 1.373 . S
C2605 C2607 1.389 . S
C2606 H2579 0.950 . S
C2606 C2592 1.377 . S
C2606 C2605 1.373 . S
C2607 C2591 1.377 . S
C2607 C2605 1.389 . S
C2607 C2608 1.524 . S
C2608 C2607 1.524 . S
C2608 C2609 1.397 1_455 S
C2608 C2613 1.363 . S
C2609 H2580 0.950 . S
C2609 C2608 1.397 1_655 S
C2609 C2610 1.334 . S
C2610 H2581 0.950 . S
C2610 C2609 1.334 . S
C2610 C2611 1.284 1_655 S
C2611 C2610 1.284 1_455 S
C2611 C2612 1.529 . S
C2611 H2614 0.997 1_455 S
C2612 H2582 0.950 . S
C2612 C2611 1.529 . S
C2612 C2613 1.415 . S
C2613 H2583 0.950 . S
C2613 C2608 1.363 . S
C2613 C2612 1.415 . S
H2614 C2611 0.997 1_655 S
H2615 C2596 0.913 . S
H2616 C2634 0.951 . S
H2617 C2636 0.951 . S
H2618 C2638 0.950 . S
H2619 C2639 0.950 . S
H2620 C2641 0.950 . S
H2621 C2644 0.950 . S
H2622 C2645 0.950 . S
H2623 C2647 0.950 . S
H2624 C2648 0.950 . S
H2625 C2649 0.951 . S
H2626 C2651 0.951 . S
H2627 C2653 0.950 . S
H2628 C2654 0.950 . S
H2629 C2656 0.950 . S
H2630 C2659 0.950 . S
H2631 C2660 0.950 . S
H2632 C2662 0.950 . S
H2633 C2663 0.950 . S
C2634 H2616 0.951 . S
C2634 C2635 1.366 . S
C2634 C2636 1.388 . S
C2635 C2634 1.366 . S
C2635 C2639 1.385 . S
C2636 H2617 0.951 . S
C2636 C2634 1.388 . S
C2636 C2637 1.366 . S
C2637 C2636 1.366 . S
C2637 C2638 1.414 . S
C2637 C2640 1.499 . S
C2638 H2618 0.950 . S
C2638 C2637 1.414 . S
C2638 C2639 1.374 . S
C2639 H2619 0.950 . S
C2639 C2635 1.385 . S
C2639 C2638 1.374 . S
C2640 C2637 1.499 . S
C2640 C2641 1.373 . S
C2640 C2642 1.389 . S
C2641 H2620 0.950 . S
C2641 C2640 1.373 . S
C2641 C2657 1.377 . S
C2642 C2640 1.389 . S
C2642 C2643 1.524 . S
C2642 C2656 1.377 . S
C2643 C2642 1.524 . S
C2643 C2644 1.397 . S
C2643 C2648 1.363 . S
C2644 H2621 0.950 . S
C2644 C2643 1.397 . S
C2644 C2645 1.334 . S
C2645 H2622 0.950 . S
C2645 C2644 1.334 . S
C2645 C2646 1.287 . S
C2646 C2645 1.287 . S
C2646 C2647 1.524 . S
C2646 H2665 0.913 . S
C2647 H2623 0.950 . S
C2647 C2646 1.524 . S
C2647 C2648 1.415 . S
C2648 H2624 0.950 . S
C2648 C2643 1.363 . S
C2648 C2647 1.415 . S
C2649 H2625 0.951 . S
C2649 C2650 1.366 . S
C2649 C2651 1.388 . S
C2650 C2649 1.366 . S
C2650 C2654 1.385 . S
C2651 H2626 0.951 . S
C2651 C2649 1.388 . S
C2651 C2652 1.366 . S
C2652 C2651 1.366 . S
C2652 C2653 1.414 . S
C2652 C2655 1.499 . S
C2653 H2627 0.950 . S
C2653 C2652 1.414 . S
C2653 C2654 1.374 . S
C2654 H2628 0.950 . S
C2654 C2650 1.385 . S
C2654 C2653 1.374 . S
C2655 C2652 1.499 . S
C2655 C2656 1.373 . S
C2655 C2657 1.389 . S
C2656 H2629 0.950 . S
C2656 C2642 1.377 . S
C2656 C2655 1.373 . S
C2657 C2641 1.377 . S
C2657 C2655 1.389 . S
C2657 C2658 1.524 . S
C2658 C2657 1.524 . S
C2658 C2659 1.397 . S
C2658 C2663 1.363 . S
C2659 H2630 0.950 . S
C2659 C2658 1.397 . S
C2659 C2660 1.334 . S
C2660 H2631 0.950 . S
C2660 C2659 1.334 . S
C2660 C2661 1.287 . S
C2661 C2660 1.287 . S
C2661 C2662 1.524 . S
C2661 H2664 0.999 . S
C2662 H2632 0.950 . S
C2662 C2661 1.524 . S
C2662 C2663 1.415 . S
C2663 H2633 0.950 . S
C2663 C2658 1.363 . S
C2663 C2662 1.415 . S
H2664 C2661 0.999 . S
H2665 C2646 0.913 . S
H2666 C2684 0.951 . S
H2667 C2686 0.951 . S
H2668 C2688 0.950 . S
H2669 C2689 0.950 . S
H2670 C2691 0.950 . S
H2671 C2694 0.950 . S
H2672 C2695 0.950 . S
H2673 C2697 0.950 . S
H2674 C2698 0.950 . S
H2675 C2699 0.951 . S
H2676 C2701 0.951 . S
H2677 C2703 0.950 . S
H2678 C2704 0.950 . S
H2679 C2706 0.950 . S
H2680 C2709 0.950 . S
H2681 C2710 0.950 . S
H2682 C2712 0.950 . S
H2683 C2713 0.950 . S
C2684 H2666 0.951 . S
C2684 C2685 1.366 . S
C2684 C2686 1.388 . S
C2685 C2684 1.366 . S
C2685 C2689 1.385 . S
C2686 H2667 0.951 . S
C2686 C2684 1.388 . S
C2686 C2687 1.366 . S
C2687 C2686 1.366 . S
C2687 C2688 1.414 . S
C2687 C2690 1.499 1_655 S
C2688 H2668 0.950 . S
C2688 C2687 1.414 . S
C2688 C2689 1.374 . S
C2689 H2669 0.950 . S
C2689 C2685 1.385 . S
C2689 C2688 1.374 . S
C2690 C2687 1.499 1_455 S
C2690 C2691 1.373 . S
C2690 C2692 1.389 . S
C2691 H2670 0.950 . S
C2691 C2690 1.373 . S
C2691 C2707 1.377 . S
C2692 C2690 1.389 . S
C2692 C2693 1.524 . S
C2692 C2706 1.377 . S
C2693 C2692 1.524 . S
C2693 C2694 1.397 1_455 S
C2693 C2698 1.363 . S
C2694 H2671 0.950 . S
C2694 C2693 1.397 1_655 S
C2694 C2695 1.334 . S
C2695 H2672 0.950 . S
C2695 C2694 1.334 . S
C2695 C2696 1.287 . S
C2696 C2695 1.287 . S
C2696 C2697 1.524 . S
C2696 H2715 0.913 . S
C2697 H2673 0.950 . S
C2697 C2696 1.524 . S
C2697 C2698 1.415 1_655 S
C2698 H2674 0.950 . S
C2698 C2693 1.363 . S
C2698 C2697 1.415 1_455 S
C2699 H2675 0.951 . S
C2699 C2700 1.366 . S
C2699 C2701 1.388 . S
C2700 C2699 1.366 . S
C2700 C2704 1.385 . S
C2701 H2676 0.951 . S
C2701 C2699 1.388 . S
C2701 C2702 1.366 . S
C2702 C2701 1.366 . S
C2702 C2703 1.414 . S
C2702 C2705 1.499 . S
C2703 H2677 0.950 . S
C2703 C2702 1.414 . S
C2703 C2704 1.374 . S
C2704 H2678 0.950 . S
C2704 C2700 1.385 . S
C2704 C2703 1.374 . S
C2705 C2702 1.499 . S
C2705 C2706 1.373 . S
C2705 C2707 1.389 . S
C2706 H2679 0.950 . S
C2706 C2692 1.377 . S
C2706 C2705 1.373 . S
C2707 C2691 1.377 . S
C2707 C2705 1.389 . S
C2707 C2708 1.524 . S
C2708 C2707 1.524 . S
C2708 C2709 1.397 . S
C2708 C2713 1.363 . S
C2709 H2680 0.950 . S
C2709 C2708 1.397 . S
C2709 C2710 1.334 . S
C2710 H2681 0.950 . S
C2710 C2709 1.334 . S
C2710 C2711 1.287 . S
C2711 C2710 1.287 . S
C2711 C2712 1.524 . S
C2711 H2714 0.999 . S
C2712 H2682 0.950 . S
C2712 C2711 1.524 . S
C2712 C2713 1.415 . S
C2713 H2683 0.950 . S
C2713 C2708 1.363 . S
C2713 C2712 1.415 . S
H2714 C2711 0.999 . S
H2715 C2696 0.913 . S
H2716 C2734 0.951 . S
H2717 C2736 0.951 . S
H2718 C2738 0.950 . S
H2719 C2739 0.950 . S
H2720 C2741 0.950 . S
H2721 C2744 0.950 . S
H2722 C2745 0.950 . S
H2723 C2747 0.950 . S
H2724 C2748 0.950 . S
H2725 C2749 0.951 . S
H2726 C2751 0.951 . S
H2727 C2753 0.950 . S
H2728 C2754 0.950 . S
H2729 C2756 0.950 . S
H2730 C2759 0.950 . S
H2731 C2760 0.950 1_554 S
H2732 C2762 0.936 1_554 S
H2733 C2763 0.950 . S
C2734 H2716 0.951 . S
C2734 C2735 1.366 . S
C2734 C2736 1.388 . S
C2735 C2734 1.366 . S
C2735 C2739 1.385 . S
C2736 H2717 0.951 . S
C2736 C2734 1.388 . S
C2736 C2737 1.366 . S
C2737 C2736 1.366 . S
C2737 C2738 1.414 . S
C2737 C2740 1.499 . S
C2738 H2718 0.950 . S
C2738 C2737 1.414 . S
C2738 C2739 1.374 . S
C2739 H2719 0.950 . S
C2739 C2735 1.385 . S
C2739 C2738 1.374 . S
C2740 C2737 1.499 . S
C2740 C2741 1.373 . S
C2740 C2742 1.389 . S
C2741 H2720 0.950 . S
C2741 C2740 1.373 . S
C2741 C2757 1.377 . S
C2742 C2740 1.389 . S
C2742 C2743 1.524 . S
C2742 C2756 1.377 . S
C2743 C2742 1.524 . S
C2743 C2744 1.397 . S
C2743 C2748 1.363 . S
C2744 H2721 0.950 . S
C2744 C2743 1.397 . S
C2744 C2745 1.334 . S
C2745 H2722 0.950 . S
C2745 C2744 1.334 . S
C2745 C2746 1.287 . S
C2746 C2745 1.287 . S
C2746 C2747 1.524 . S
C2746 H2765 0.913 . S
C2747 H2723 0.950 . S
C2747 C2746 1.524 . S
C2747 C2748 1.415 . S
C2748 H2724 0.950 . S
C2748 C2743 1.363 . S
C2748 C2747 1.415 . S
C2749 H2725 0.951 . S
C2749 C2750 1.366 . S
C2749 C2751 1.388 . S
C2750 C2749 1.366 . S
C2750 C2754 1.385 . S
C2751 H2726 0.951 . S
C2751 C2749 1.388 . S
C2751 C2752 1.366 . S
C2752 C2751 1.366 . S
C2752 C2753 1.414 . S
C2752 C2755 1.499 . S
C2753 H2727 0.950 . S
C2753 C2752 1.414 . S
C2753 C2754 1.374 . S
C2754 H2728 0.950 . S
C2754 C2750 1.385 . S
C2754 C2753 1.374 . S
C2755 C2752 1.499 . S
C2755 C2756 1.373 . S
C2755 C2757 1.389 . S
C2756 H2729 0.950 . S
C2756 C2742 1.377 . S
C2756 C2755 1.373 . S
C2757 C2741 1.377 . S
C2757 C2755 1.389 . S
C2757 C2758 1.524 . S
C2758 C2757 1.524 . S
C2758 C2759 1.397 . S
C2758 C2763 1.363 . S
C2759 H2730 0.950 . S
C2759 C2758 1.397 . S
C2759 C2760 1.334 . S
C2760 H2731 0.950 1_556 S
C2760 C2759 1.334 . S
C2760 C2761 1.287 1_556 S
C2761 C2760 1.287 1_554 S
C2761 C2762 1.524 1_554 S
C2761 H2764 0.999 . S
C2762 H2732 0.936 1_556 S
C2762 C2761 1.524 1_556 S
C2762 C2763 1.415 . S
C2763 H2733 0.950 . S
C2763 C2758 1.363 . S
C2763 C2762 1.415 . S
H2764 C2761 0.999 . S
H2765 C2746 0.913 . S
H2766 C2784 0.951 . S
H2767 C2786 0.951 . S
H2768 C2788 0.950 . S
H2769 C2789 0.950 . S
H2770 C2791 0.950 . S
H2771 C2794 0.950 . S
H2772 C2795 0.950 . S
H2773 C2797 0.950 . S
H2774 C2798 0.950 . S
H2775 C2799 0.951 . S
H2776 C2801 0.951 . S
H2777 C2803 0.950 . S
H2778 C2804 0.950 . S
H2779 C2806 0.950 . S
H2780 C2809 0.950 . S
H2781 C2810 0.950 . S
H2782 C2812 0.950 . S
H2783 C2813 0.950 . S
C2784 H2766 0.951 . S
C2784 C2785 1.366 . S
C2784 C2786 1.388 . S
C2785 C2784 1.366 . S
C2785 C2789 1.385 . S
C2786 H2767 0.951 . S
C2786 C2784 1.388 . S
C2786 C2787 1.366 . S
C2787 C2786 1.366 . S
C2787 C2788 1.414 . S
C2787 C2790 1.499 . S
C2788 H2768 0.950 . S
C2788 C2787 1.414 . S
C2788 C2789 1.374 . S
C2789 H2769 0.950 . S
C2789 C2785 1.385 . S
C2789 C2788 1.374 . S
C2790 C2787 1.499 . S
C2790 C2791 1.373 . S
C2790 C2792 1.389 . S
C2791 H2770 0.950 . S
C2791 C2790 1.373 . S
C2791 C2807 1.377 . S
C2792 C2790 1.389 . S
C2792 C2793 1.524 . S
C2792 C2806 1.377 . S
C2793 C2792 1.524 . S
C2793 C2794 1.397 . S
C2793 C2798 1.363 . S
C2794 H2771 0.950 . S
C2794 C2793 1.397 . S
C2794 C2795 1.334 . S
C2795 H2772 0.950 . S
C2795 C2794 1.334 . S
C2795 C2796 1.287 . S
C2796 C2795 1.287 . S
C2796 C2797 1.524 . S
C2796 H2815 0.913 . S
C2797 H2773 0.950 . S
C2797 C2796 1.524 . S
C2797 C2798 1.415 . S
C2798 H2774 0.950 . S
C2798 C2793 1.363 . S
C2798 C2797 1.415 . S
C2799 H2775 0.951 . S
C2799 C2800 1.366 . S
C2799 C2801 1.388 . S
C2800 C2799 1.366 . S
C2800 C2804 1.385 . S
C2801 H2776 0.951 . S
C2801 C2799 1.388 . S
C2801 C2802 1.366 . S
C2802 C2801 1.366 . S
C2802 C2803 1.414 . S
C2802 C2805 1.499 . S
C2803 H2777 0.950 . S
C2803 C2802 1.414 . S
C2803 C2804 1.374 . S
C2804 H2778 0.950 . S
C2804 C2800 1.385 . S
C2804 C2803 1.374 . S
C2805 C2802 1.499 . S
C2805 C2806 1.373 . S
C2805 C2807 1.389 . S
C2806 H2779 0.950 . S
C2806 C2792 1.377 . S
C2806 C2805 1.373 . S
C2807 C2791 1.377 . S
C2807 C2805 1.389 . S
C2807 C2808 1.524 . S
C2808 C2807 1.524 . S
C2808 C2809 1.397 . S
C2808 C2813 1.363 . S
C2809 H2780 0.950 . S
C2809 C2808 1.397 . S
C2809 C2810 1.334 . S
C2810 H2781 0.950 . S
C2810 C2809 1.334 . S
C2810 C2811 1.287 . S
C2811 C2810 1.287 . S
C2811 C2812 1.524 . S
C2811 H2814 0.999 . S
C2812 H2782 0.950 . S
C2812 C2811 1.524 . S
C2812 C2813 1.415 . S
C2813 H2783 0.950 . S
C2813 C2808 1.363 . S
C2813 C2812 1.415 . S
H2814 C2811 0.999 . S
H2815 C2796 0.913 . S
H2816 C2834 0.951 . S
H2817 C2836 0.951 . S
H2818 C2838 0.950 . S
H2819 C2839 0.950 . S
H2820 C2841 0.950 . S
H2821 C2844 0.950 . S
H2822 C2845 0.950 . S
H2823 C2847 0.950 . S
H2824 C2848 0.950 . S
H2825 C2849 0.951 . S
H2826 C2851 0.951 . S
H2827 C2853 0.950 . S
H2828 C2854 0.950 . S
H2829 C2856 0.950 . S
H2830 C2859 0.950 . S
H2831 C2860 0.950 . S
H2832 C2862 0.950 . S
H2833 C2863 0.950 . S
C2834 H2816 0.951 . S
C2834 C2835 1.366 . S
C2834 C2836 1.388 . S
C2835 C2834 1.366 . S
C2835 C2839 1.385 . S
C2836 H2817 0.951 . S
C2836 C2834 1.388 . S
C2836 C2837 1.366 . S
C2837 C2836 1.366 . S
C2837 C2838 1.414 . S
C2837 C2840 1.499 . S
C2838 H2818 0.950 . S
C2838 C2837 1.414 . S
C2838 C2839 1.374 . S
C2839 H2819 0.950 . S
C2839 C2835 1.385 . S
C2839 C2838 1.374 . S
C2840 C2837 1.499 . S
C2840 C2841 1.373 . S
C2840 C2842 1.389 . S
C2841 H2820 0.950 . S
C2841 C2840 1.373 . S
C2841 C2857 1.377 . S
C2842 C2840 1.389 . S
C2842 C2843 1.524 . S
C2842 C2856 1.377 . S
C2843 C2842 1.524 . S
C2843 C2844 1.397 . S
C2843 C2848 1.363 . S
C2844 H2821 0.950 . S
C2844 C2843 1.397 . S
C2844 C2845 1.334 . S
C2845 H2822 0.950 . S
C2845 C2844 1.334 . S
C2845 C2846 1.287 . S
C2846 C2845 1.287 . S
C2846 C2847 1.524 . S
C2846 H2865 0.913 . S
C2847 H2823 0.950 . S
C2847 C2846 1.524 . S
C2847 C2848 1.415 . S
C2848 H2824 0.950 . S
C2848 C2843 1.363 . S
C2848 C2847 1.415 . S
C2849 H2825 0.951 . S
C2849 C2850 1.366 . S
C2849 C2851 1.388 . S
C2850 C2849 1.366 . S
C2850 C2854 1.385 . S
C2851 H2826 0.951 . S
C2851 C2849 1.388 . S
C2851 C2852 1.366 . S
C2852 C2851 1.366 . S
C2852 C2853 1.414 . S
C2852 C2855 1.499 . S
C2853 H2827 0.950 . S
C2853 C2852 1.414 . S
C2853 C2854 1.374 . S
C2854 H2828 0.950 . S
C2854 C2850 1.385 . S
C2854 C2853 1.374 . S
C2855 C2852 1.499 . S
C2855 C2856 1.373 . S
C2855 C2857 1.389 . S
C2856 H2829 0.950 . S
C2856 C2842 1.377 . S
C2856 C2855 1.373 . S
C2857 C2841 1.377 . S
C2857 C2855 1.389 . S
C2857 C2858 1.524 . S
C2858 C2857 1.524 . S
C2858 C2859 1.397 . S
C2858 C2863 1.363 . S
C2859 H2830 0.950 . S
C2859 C2858 1.397 . S
C2859 C2860 1.334 . S
C2860 H2831 0.950 . S
C2860 C2859 1.334 . S
C2860 C2861 1.287 . S
C2861 C2860 1.287 . S
C2861 C2862 1.524 . S
C2861 H2864 0.999 . S
C2862 H2832 0.950 . S
C2862 C2861 1.524 . S
C2862 C2863 1.415 . S
C2863 H2833 0.950 . S
C2863 C2858 1.363 . S
C2863 C2862 1.415 . S
H2864 C2861 0.999 . S
H2865 C2846 0.913 . S
H2866 C2884 0.951 . S
H2867 C2886 0.951 . S
H2868 C2888 0.950 . S
H2869 C2889 0.950 . S
H2870 C2891 0.950 . S
H2871 C2894 0.950 . S
H2872 C2895 0.950 . S
H2873 C2897 0.950 . S
H2874 C2898 0.950 . S
H2875 C2899 0.951 . S
H2876 C2901 0.951 . S
H2877 C2903 0.950 . S
H2878 C2904 0.946 1_554 S
H2879 C2906 0.950 . S
H2880 C2909 0.950 . S
H2881 C2910 0.950 . S
H2882 C2912 0.950 . S
H2883 C2913 0.950 . S
C2884 H2866 0.951 . S
C2884 C2885 1.366 . S
C2884 C2886 1.388 . S
C2885 C2884 1.366 . S
C2885 C2889 1.385 . S
C2886 H2867 0.951 . S
C2886 C2884 1.388 . S
C2886 C2887 1.366 . S
C2887 C2886 1.366 . S
C2887 C2888 1.414 . S
C2887 C2890 1.499 . S
C2888 H2868 0.950 . S
C2888 C2887 1.414 . S
C2888 C2889 1.374 . S
C2889 H2869 0.950 . S
C2889 C2885 1.385 . S
C2889 C2888 1.374 . S
C2890 C2887 1.499 . S
C2890 C2891 1.373 . S
C2890 C2892 1.389 . S
C2891 H2870 0.950 . S
C2891 C2890 1.373 . S
C2891 C2907 1.377 . S
C2892 C2890 1.389 . S
C2892 C2893 1.524 . S
C2892 C2906 1.377 . S
C2893 C2892 1.524 . S
C2893 C2894 1.397 . S
C2893 C2898 1.363 . S
C2894 H2871 0.950 . S
C2894 C2893 1.397 . S
C2894 C2895 1.334 . S
C2895 H2872 0.950 . S
C2895 C2894 1.334 . S
C2895 C2896 1.287 . S
C2896 C2895 1.287 . S
C2896 C2897 1.524 . S
C2896 H2915 0.913 . S
C2897 H2873 0.950 . S
C2897 C2896 1.524 . S
C2897 C2898 1.415 . S
C2898 H2874 0.950 . S
C2898 C2893 1.363 . S
C2898 C2897 1.415 . S
C2899 H2875 0.951 . S
C2899 C2900 1.366 . S
C2899 C2901 1.388 1_554 S
C2900 C2899 1.366 . S
C2900 C2904 1.385 1_554 S
C2901 H2876 0.951 . S
C2901 C2899 1.388 1_556 S
C2901 C2902 1.366 . S
C2902 C2901 1.366 . S
C2902 C2903 1.414 . S
C2902 C2905 1.499 . S
C2903 H2877 0.950 . S
C2903 C2902 1.414 . S
C2903 C2904 1.374 . S
C2904 H2878 0.946 1_556 S
C2904 C2900 1.385 1_556 S
C2904 C2903 1.374 . S
C2905 C2902 1.499 . S
C2905 C2906 1.373 . S
C2905 C2907 1.389 . S
C2906 H2879 0.950 . S
C2906 C2892 1.377 . S
C2906 C2905 1.373 . S
C2907 C2891 1.377 . S
C2907 C2905 1.389 . S
C2907 C2908 1.524 . S
C2908 C2907 1.524 . S
C2908 C2909 1.397 . S
C2908 C2913 1.363 . S
C2909 H2880 0.950 . S
C2909 C2908 1.397 . S
C2909 C2910 1.334 . S
C2910 H2881 0.950 . S
C2910 C2909 1.334 . S
C2910 C2911 1.287 . S
C2911 C2910 1.287 . S
C2911 C2912 1.524 . S
C2911 H2914 0.999 . S
C2912 H2882 0.950 . S
C2912 C2911 1.524 . S
C2912 C2913 1.415 . S
C2913 H2883 0.950 . S
C2913 C2908 1.363 . S
C2913 C2912 1.415 . S
H2914 C2911 0.999 . S
H2915 C2896 0.913 . S
H2916 C2934 0.951 1_556 S
H2917 C2936 0.951 . S
H2918 C2938 0.950 . S
H2919 C2939 0.950 . S
H2920 C2941 0.950 . S
H2921 C2944 0.950 . S
H2922 C2945 0.950 . S
H2923 C2947 0.950 . S
H2924 C2948 0.950 . S
H2925 C2949 0.951 . S
H2926 C2951 0.951 . S
H2927 C2953 0.950 . S
H2928 C2954 0.950 . S
H2929 C2956 0.950 . S
H2930 C2959 0.950 . S
H2931 C2960 0.950 . S
H2932 C2962 0.950 . S
H2933 C2963 0.950 . S
C2934 H2916 0.951 1_554 S
C2934 C2935 1.366 1_554 S
C2934 C2936 1.388 . S
C2935 C2934 1.366 1_556 S
C2935 C2939 1.385 . S
C2936 H2917 0.951 . S
C2936 C2934 1.388 . S
C2936 C2937 1.366 . S
C2937 C2936 1.366 . S
C2937 C2938 1.414 . S
C2937 C2940 1.499 . S
C2938 H2918 0.950 . S
C2938 C2937 1.414 . S
C2938 C2939 1.374 1_554 S
C2939 H2919 0.950 . S
C2939 C2935 1.385 . S
C2939 C2938 1.374 1_556 S
C2940 C2937 1.499 . S
C2940 C2941 1.373 . S
C2940 C2942 1.389 . S
C2941 H2920 0.950 . S
C2941 C2940 1.373 . S
C2941 C2957 1.377 . S
C2942 C2940 1.389 . S
C2942 C2943 1.524 . S
C2942 C2956 1.377 . S
C2943 C2942 1.524 . S
C2943 C2944 1.397 . S
C2943 C2948 1.363 . S
C2944 H2921 0.950 . S
C2944 C2943 1.397 . S
C2944 C2945 1.334 . S
C2945 H2922 0.950 . S
C2945 C2944 1.334 . S
C2945 C2946 1.287 . S
C2946 C2945 1.287 . S
C2946 C2947 1.524 . S
C2946 H2965 0.913 . S
C2947 H2923 0.950 . S
C2947 C2946 1.524 . S
C2947 C2948 1.415 . S
C2948 H2924 0.950 . S
C2948 C2943 1.363 . S
C2948 C2947 1.415 . S
C2949 H2925 0.951 . S
C2949 C2950 1.366 . S
C2949 C2951 1.388 . S
C2950 C2949 1.366 . S
C2950 C2954 1.385 . S
C2951 H2926 0.951 . S
C2951 C2949 1.388 . S
C2951 C2952 1.366 . S
C2952 C2951 1.366 . S
C2952 C2953 1.414 . S
C2952 C2955 1.499 . S
C2953 H2927 0.950 . S
C2953 C2952 1.414 . S
C2953 C2954 1.374 . S
C2954 H2928 0.950 . S
C2954 C2950 1.385 . S
C2954 C2953 1.374 . S
C2955 C2952 1.499 . S
C2955 C2956 1.373 . S
C2955 C2957 1.389 . S
C2956 H2929 0.950 . S
C2956 C2942 1.377 . S
C2956 C2955 1.373 . S
C2957 C2941 1.377 . S
C2957 C2955 1.389 . S
C2957 C2958 1.524 . S
C2958 C2957 1.524 . S
C2958 C2959 1.397 . S
C2958 C2963 1.363 . S
C2959 H2930 0.950 . S
C2959 C2958 1.397 . S
C2959 C2960 1.334 . S
C2960 H2931 0.950 . S
C2960 C2959 1.334 . S
C2960 C2961 1.287 . S
C2961 C2960 1.287 . S
C2961 C2962 1.524 . S
C2961 H2964 0.999 . S
C2962 H2932 0.950 . S
C2962 C2961 1.524 . S
C2962 C2963 1.415 . S
C2963 H2933 0.950 . S
C2963 C2958 1.363 . S
C2963 C2962 1.415 . S
H2964 C2961 0.999 . S
H2965 C2946 0.913 . S
H2966 C2984 0.951 . S
H2967 C2986 0.951 . S
H2968 C2988 0.950 . S
H2969 C2989 0.950 . S
H2970 C2991 0.950 . S
H2971 C2994 0.950 . S
H2972 C2995 0.950 . S
H2973 C2997 0.950 . S
H2974 C2998 0.950 . S
H2975 C2999 0.951 . S
H2976 C3001 0.951 . S
H2977 C3003 0.950 . S
H2978 C3004 0.950 . S
H2979 C3006 0.950 . S
H2980 C3009 0.950 . S
H2981 C3010 0.950 . S
H2982 C3012 0.950 . S
H2983 C3013 0.950 . S
C2984 H2966 0.951 . S
C2984 C2985 1.366 . S
C2984 C2986 1.388 . S
C2985 C2984 1.366 . S
C2985 C2989 1.385 . S
C2986 H2967 0.951 . S
C2986 C2984 1.388 . S
C2986 C2987 1.366 . S
C2987 C2986 1.366 . S
C2987 C2988 1.414 . S
C2987 C2990 1.499 . S
C2988 H2968 0.950 . S
C2988 C2987 1.414 . S
C2988 C2989 1.374 . S
C2989 H2969 0.950 . S
C2989 C2985 1.385 . S
C2989 C2988 1.374 . S
C2990 C2987 1.499 . S
C2990 C2991 1.373 . S
C2990 C2992 1.389 . S
C2991 H2970 0.950 . S
C2991 C2990 1.373 . S
C2991 C3007 1.377 . S
C2992 C2990 1.389 . S
C2992 C2993 1.524 . S
C2992 C3006 1.377 . S
C2993 C2992 1.524 . S
C2993 C2994 1.397 . S
C2993 C2998 1.363 . S
C2994 H2971 0.950 . S
C2994 C2993 1.397 . S
C2994 C2995 1.334 . S
C2995 H2972 0.950 . S
C2995 C2994 1.334 . S
C2995 C2996 1.287 . S
C2996 C2995 1.287 . S
C2996 C2997 1.524 . S
C2996 H3015 0.913 . S
C2997 H2973 0.950 . S
C2997 C2996 1.524 . S
C2997 C2998 1.415 . S
C2998 H2974 0.950 . S
C2998 C2993 1.363 . S
C2998 C2997 1.415 . S
C2999 H2975 0.951 . S
C2999 C3000 1.366 . S
C2999 C3001 1.388 . S
C3000 C2999 1.366 . S
C3000 C3004 1.385 . S
C3001 H2976 0.951 . S
C3001 C2999 1.388 . S
C3001 C3002 1.366 . S
C3002 C3001 1.366 . S
C3002 C3003 1.414 . S
C3002 C3005 1.499 . S
C3003 H2977 0.950 . S
C3003 C3002 1.414 . S
C3003 C3004 1.374 . S
C3004 H2978 0.950 . S
C3004 C3000 1.385 . S
C3004 C3003 1.374 . S
C3005 C3002 1.499 . S
C3005 C3006 1.373 . S
C3005 C3007 1.389 . S
C3006 H2979 0.950 . S
C3006 C2992 1.377 . S
C3006 C3005 1.373 . S
C3007 C2991 1.377 . S
C3007 C3005 1.389 . S
C3007 C3008 1.524 . S
C3008 C3007 1.524 . S
C3008 C3009 1.397 . S
C3008 C3013 1.363 . S
C3009 H2980 0.950 . S
C3009 C3008 1.397 . S
C3009 C3010 1.334 . S
C3010 H2981 0.950 . S
C3010 C3009 1.334 . S
C3010 C3011 1.287 . S
C3011 C3010 1.287 . S
C3011 C3012 1.524 . S
C3011 H3014 0.999 . S
C3012 H2982 0.950 . S
C3012 C3011 1.524 . S
C3012 C3013 1.415 . S
C3013 H2983 0.950 . S
C3013 C3008 1.363 . S
C3013 C3012 1.415 . S
H3014 C3011 0.999 . S
H3015 C2996 0.913 . S
H3016 C3034 0.951 . S
H3017 C3036 0.951 . S
H3018 C3038 0.950 . S
H3019 C3039 0.950 . S
H3020 C3041 0.950 . S
H3021 C3044 0.950 . S
H3022 C3045 0.950 . S
H3023 C3047 0.950 . S
H3024 C3048 0.950 . S
H3025 C3049 0.951 . S
H3026 C3051 0.951 . S
H3027 C3053 0.950 . S
H3028 C3054 0.950 . S
H3029 C3056 0.950 . S
H3030 C3059 0.950 . S
H3031 C3060 0.950 . S
H3032 C3062 0.950 . S
H3033 C3063 0.950 . S
C3034 H3016 0.951 . S
C3034 C3035 1.366 . S
C3034 C3036 1.388 . S
C3035 C3034 1.366 . S
C3035 C3039 1.385 . S
C3036 H3017 0.951 . S
C3036 C3034 1.388 . S
C3036 C3037 1.366 . S
C3037 C3036 1.366 . S
C3037 C3038 1.414 . S
C3037 C3040 1.499 . S
C3038 H3018 0.950 . S
C3038 C3037 1.414 . S
C3038 C3039 1.374 . S
C3039 H3019 0.950 . S
C3039 C3035 1.385 . S
C3039 C3038 1.374 . S
C3040 C3037 1.499 . S
C3040 C3041 1.373 . S
C3040 C3042 1.389 . S
C3041 H3020 0.950 . S
C3041 C3040 1.373 . S
C3041 C3057 1.377 . S
C3042 C3040 1.389 . S
C3042 C3043 1.524 . S
C3042 C3056 1.377 . S
C3043 C3042 1.524 . S
C3043 C3044 1.397 . S
C3043 C3048 1.363 . S
C3044 H3021 0.950 . S
C3044 C3043 1.397 . S
C3044 C3045 1.334 . S
C3045 H3022 0.950 . S
C3045 C3044 1.334 . S
C3045 C3046 1.287 . S
C3046 C3045 1.287 . S
C3046 C3047 1.524 . S
C3046 H3065 0.913 . S
C3047 H3023 0.950 . S
C3047 C3046 1.524 . S
C3047 C3048 1.415 . S
C3048 H3024 0.950 . S
C3048 C3043 1.363 . S
C3048 C3047 1.415 . S
C3049 H3025 0.951 . S
C3049 C3050 1.366 . S
C3049 C3051 1.388 . S
C3050 C3049 1.366 . S
C3050 C3054 1.385 . S
C3051 H3026 0.951 . S
C3051 C3049 1.388 . S
C3051 C3052 1.366 . S
C3052 C3051 1.366 . S
C3052 C3053 1.414 . S
C3052 C3055 1.499 . S
C3053 H3027 0.950 . S
C3053 C3052 1.414 . S
C3053 C3054 1.374 . S
C3054 H3028 0.950 . S
C3054 C3050 1.385 . S
C3054 C3053 1.374 . S
C3055 C3052 1.499 . S
C3055 C3056 1.373 . S
C3055 C3057 1.389 . S
C3056 H3029 0.950 . S
C3056 C3042 1.377 . S
C3056 C3055 1.373 . S
C3057 C3041 1.377 . S
C3057 C3055 1.389 . S
C3057 C3058 1.524 . S
C3058 C3057 1.524 . S
C3058 C3059 1.397 . S
C3058 C3063 1.363 . S
C3059 H3030 0.950 . S
C3059 C3058 1.397 . S
C3059 C3060 1.334 . S
C3060 H3031 0.950 . S
C3060 C3059 1.334 . S
C3060 C3061 1.287 . S
C3061 C3060 1.287 . S
C3061 C3062 1.524 . S
C3061 H3064 0.999 . S
C3062 H3032 0.950 . S
C3062 C3061 1.524 . S
C3062 C3063 1.415 . S
C3063 H3033 0.950 . S
C3063 C3058 1.363 . S
C3063 C3062 1.415 . S
H3064 C3061 0.999 . S
H3065 C3046 0.913 . S
H3066 C3084 0.951 . S
H3067 C3086 0.951 . S
H3068 C3088 0.950 . S
H3069 C3089 0.950 1_556 S
H3070 C3091 0.950 . S
H3071 C3094 0.950 . S
H3072 C3095 0.950 . S
H3073 C3097 0.950 . S
H3074 C3098 0.950 . S
H3075 C3099 0.951 . S
H3076 C3101 0.951 . S
H3077 C3103 0.950 . S
H3078 C3104 0.950 . S
H3079 C3106 0.950 . S
H3080 C3109 0.950 . S
H3081 C3110 0.950 . S
H3082 C3112 0.950 . S
H3083 C3113 0.950 . S
C3084 H3066 0.951 . S
C3084 C3085 1.366 . S
C3084 C3086 1.388 1_556 S
C3085 C3084 1.366 . S
C3085 C3089 1.385 1_556 S
C3086 H3067 0.951 . S
C3086 C3084 1.388 1_554 S
C3086 C3087 1.366 . S
C3087 C3086 1.366 . S
C3087 C3088 1.414 . S
C3087 C3090 1.499 . S
C3088 H3068 0.950 . S
C3088 C3087 1.414 . S
C3088 C3089 1.374 . S
C3089 H3069 0.950 1_554 S
C3089 C3085 1.385 1_554 S
C3089 C3088 1.374 . S
C3090 C3087 1.499 . S
C3090 C3091 1.373 . S
C3090 C3092 1.389 . S
C3091 H3070 0.950 . S
C3091 C3090 1.373 . S
C3091 C3107 1.377 . S
C3092 C3090 1.389 . S
C3092 C3093 1.524 . S
C3092 C3106 1.377 . S
C3093 C3092 1.524 . S
C3093 C3094 1.397 . S
C3093 C3098 1.363 . S
C3094 H3071 0.950 . S
C3094 C3093 1.397 . S
C3094 C3095 1.334 . S
C3095 H3072 0.950 . S
C3095 C3094 1.334 . S
C3095 C3096 1.287 . S
C3096 C3095 1.287 . S
C3096 C3097 1.524 . S
C3096 H3115 0.913 . S
C3097 H3073 0.950 . S
C3097 C3096 1.524 . S
C3097 C3098 1.415 . S
C3098 H3074 0.950 . S
C3098 C3093 1.363 . S
C3098 C3097 1.415 . S
C3099 H3075 0.951 . S
C3099 C3100 1.366 . S
C3099 C3101 1.388 . S
C3100 C3099 1.366 . S
C3100 C3104 1.385 . S
C3101 H3076 0.951 . S
C3101 C3099 1.388 . S
C3101 C3102 1.366 . S
C3102 C3101 1.366 . S
C3102 C3103 1.414 . S
C3102 C3105 1.499 . S
C3103 H3077 0.950 . S
C3103 C3102 1.414 . S
C3103 C3104 1.374 . S
C3104 H3078 0.950 . S
C3104 C3100 1.385 . S
C3104 C3103 1.374 . S
C3105 C3102 1.499 . S
C3105 C3106 1.373 . S
C3105 C3107 1.389 . S
C3106 H3079 0.950 . S
C3106 C3092 1.377 . S
C3106 C3105 1.373 . S
C3107 C3091 1.377 . S
C3107 C3105 1.389 . S
C3107 C3108 1.524 . S
C3108 C3107 1.524 . S
C3108 C3109 1.397 . S
C3108 C3113 1.363 . S
C3109 H3080 0.950 . S
C3109 C3108 1.397 . S
C3109 C3110 1.334 . S
C3110 H3081 0.950 . S
C3110 C3109 1.334 . S
C3110 C3111 1.287 . S
C3111 C3110 1.287 . S
C3111 C3112 1.524 . S
C3111 H3114 0.999 . S
C3112 H3082 0.950 . S
C3112 C3111 1.524 . S
C3112 C3113 1.415 . S
C3113 H3083 0.950 . S
C3113 C3108 1.363 . S
C3113 C3112 1.415 . S
H3114 C3111 0.999 . S
H3115 C3096 0.913 . S
H3116 C3134 0.951 . S
H3117 C3136 0.951 . S
H3118 C3138 0.950 . S
H3119 C3139 0.950 . S
H3120 C3141 0.950 . S
H3121 C3144 0.950 . S
H3122 C3145 0.950 . S
H3123 C3147 0.950 . S
H3124 C3148 0.950 . S
H3125 C3149 0.951 1_554 S
H3126 C3151 0.951 . S
H3127 C3153 0.950 . S
H3128 C3154 0.964 . S
H3129 C3156 0.950 . S
H3130 C3159 0.950 . S
H3131 C3160 0.950 . S
H3132 C3162 0.950 . S
H3133 C3163 0.950 . S
C3134 H3116 0.951 . S
C3134 C3135 1.366 . S
C3134 C3136 1.388 . S
C3135 C3134 1.366 . S
C3135 C3139 1.385 . S
C3136 H3117 0.951 . S
C3136 C3134 1.388 . S
C3136 C3137 1.366 . S
C3137 C3136 1.366 . S
C3137 C3138 1.414 . S
C3137 C3140 1.499 . S
C3138 H3118 0.950 . S
C3138 C3137 1.414 . S
C3138 C3139 1.374 . S
C3139 H3119 0.950 . S
C3139 C3135 1.385 . S
C3139 C3138 1.374 . S
C3140 C3137 1.499 . S
C3140 C3141 1.373 . S
C3140 C3142 1.389 . S
C3141 H3120 0.950 . S
C3141 C3140 1.373 . S
C3141 C3157 1.377 . S
C3142 C3140 1.389 . S
C3142 C3143 1.524 . S
C3142 C3156 1.377 . S
C3143 C3142 1.524 . S
C3143 C3144 1.397 . S
C3143 C3148 1.363 . S
C3144 H3121 0.950 . S
C3144 C3143 1.397 . S
C3144 C3145 1.334 . S
C3145 H3122 0.950 . S
C3145 C3144 1.334 . S
C3145 C3146 1.287 . S
C3146 C3145 1.287 . S
C3146 C3147 1.524 . S
C3146 H3165 0.913 . S
C3147 H3123 0.950 . S
C3147 C3146 1.524 . S
C3147 C3148 1.415 . S
C3148 H3124 0.950 . S
C3148 C3143 1.363 . S
C3148 C3147 1.415 . S
C3149 H3125 0.951 1_556 S
C3149 C3150 1.366 1_556 S
C3149 C3151 1.388 . S
C3150 C3149 1.366 1_554 S
C3150 C3154 1.396 . S
C3151 H3126 0.951 . S
C3151 C3149 1.388 . S
C3151 C3152 1.366 . S
C3152 C3151 1.366 . S
C3152 C3153 1.414 . S
C3152 C3155 1.499 . S
C3153 H3127 0.950 . S
C3153 C3152 1.414 . S
C3153 C3154 1.350 1_556 S
C3154 H3128 0.964 . S
C3154 C3150 1.396 . S
C3154 C3153 1.350 1_554 S
C3155 C3152 1.499 . S
C3155 C3156 1.373 . S
C3155 C3157 1.389 . S
C3156 H3129 0.950 . S
C3156 C3142 1.377 . S
C3156 C3155 1.373 . S
C3157 C3141 1.377 . S
C3157 C3155 1.389 . S
C3157 C3158 1.524 . S
C3158 C3157 1.524 . S
C3158 C3159 1.397 . S
C3158 C3163 1.363 . S
C3159 H3130 0.950 . S
C3159 C3158 1.397 . S
C3159 C3160 1.334 . S
C3160 H3131 0.950 . S
C3160 C3159 1.334 . S
C3160 C3161 1.287 . S
C3161 C3160 1.287 . S
C3161 C3162 1.524 . S
C3161 H3164 0.999 . S
C3162 H3132 0.950 . S
C3162 C3161 1.524 . S
C3162 C3163 1.415 . S
C3163 H3133 0.950 . S
C3163 C3158 1.363 . S
C3163 C3162 1.415 . S
H3164 C3161 0.999 . S
H3165 C3146 0.913 . S
H3166 C3184 0.951 . S
H3167 C3186 0.951 . S
H3168 C3188 0.950 . S
H3169 C3189 0.950 . S
H3170 C3191 0.950 . S
H3171 C3194 0.950 . S
H3172 C3195 0.950 . S
H3173 C3197 0.950 . S
H3174 C3198 0.950 . S
H3175 C3199 0.951 . S
H3176 C3201 0.951 . S
H3177 C3203 0.950 . S
H3178 C3204 0.950 . S
H3179 C3206 0.950 . S
H3180 C3209 0.950 . S
H3181 C3210 0.950 . S
H3182 C3212 0.950 . S
H3183 C3213 0.950 . S
C3184 H3166 0.951 . S
C3184 C3185 1.366 . S
C3184 C3186 1.388 . S
C3185 C3184 1.366 . S
C3185 C3189 1.385 . S
C3186 H3167 0.951 . S
C3186 C3184 1.388 . S
C3186 C3187 1.366 . S
C3187 C3186 1.366 . S
C3187 C3188 1.414 . S
C3187 C3190 1.499 . S
C3188 H3168 0.950 . S
C3188 C3187 1.414 . S
C3188 C3189 1.374 . S
C3189 H3169 0.950 . S
C3189 C3185 1.385 . S
C3189 C3188 1.374 . S
C3190 C3187 1.499 . S
C3190 C3191 1.373 . S
C3190 C3192 1.389 . S
C3191 H3170 0.950 . S
C3191 C3190 1.373 . S
C3191 C3207 1.377 . S
C3192 C3190 1.389 . S
C3192 C3193 1.524 . S
C3192 C3206 1.377 . S
C3193 C3192 1.524 . S
C3193 C3194 1.397 . S
C3193 C3198 1.363 . S
C3194 H3171 0.950 . S
C3194 C3193 1.397 . S
C3194 C3195 1.334 . S
C3195 H3172 0.950 . S
C3195 C3194 1.334 . S
C3195 C3196 1.287 . S
C3196 C3195 1.287 . S
C3196 C3197 1.524 . S
C3196 H3215 0.913 . S
C3197 H3173 0.950 . S
C3197 C3196 1.524 . S
C3197 C3198 1.415 . S
C3198 H3174 0.950 . S
C3198 C3193 1.363 . S
C3198 C3197 1.415 . S
C3199 H3175 0.951 . S
C3199 C3200 1.366 . S
C3199 C3201 1.388 . S
C3200 C3199 1.366 . S
C3200 C3204 1.385 . S
C3201 H3176 0.951 . S
C3201 C3199 1.388 . S
C3201 C3202 1.366 . S
C3202 C3201 1.366 . S
C3202 C3203 1.414 . S
C3202 C3205 1.499 . S
C3203 H3177 0.950 . S
C3203 C3202 1.414 . S
C3203 C3204 1.374 . S
C3204 H3178 0.950 . S
C3204 C3200 1.385 . S
C3204 C3203 1.374 . S
C3205 C3202 1.499 . S
C3205 C3206 1.373 . S
C3205 C3207 1.389 . S
C3206 H3179 0.950 . S
C3206 C3192 1.377 . S
C3206 C3205 1.373 . S
C3207 C3191 1.377 . S
C3207 C3205 1.389 . S
C3207 C3208 1.524 . S
C3208 C3207 1.524 . S
C3208 C3209 1.397 . S
C3208 C3213 1.363 . S
C3209 H3180 0.950 . S
C3209 C3208 1.397 . S
C3209 C3210 1.334 . S
C3210 H3181 0.950 . S
C3210 C3209 1.334 . S
C3210 C3211 1.287 . S
C3211 C3210 1.287 . S
C3211 C3212 1.524 . S
C3211 H3214 0.999 . S
C3212 H3182 0.950 . S
C3212 C3211 1.524 . S
C3212 C3213 1.415 . S
C3213 H3183 0.950 . S
C3213 C3208 1.363 . S
C3213 C3212 1.415 . S
H3214 C3211 0.999 . S
H3215 C3196 0.913 . S
H3216 C3234 0.942 1_556 S
H3217 C3236 0.951 . S
H3218 C3238 0.950 . S
H3219 C3239 0.950 1_556 S
H3220 C3241 0.950 . S
H3221 C3244 0.950 . S
H3222 C3245 0.950 . S
H3223 C3247 0.950 . S
H3224 C3248 0.950 . S
H3225 C3249 0.951 . S
H3226 C3251 0.951 . S
H3227 C3253 0.950 . S
H3228 C3254 0.950 . S
H3229 C3256 0.950 . S
H3230 C3259 0.950 . S
H3231 C3260 0.950 . S
H3232 C3262 0.950 . S
H3233 C3263 0.950 . S
C3234 H3216 0.942 1_554 S
C3234 C3235 1.357 1_554 S
C3234 C3236 1.406 . S
C3235 C3234 1.357 1_556 S
C3235 C3239 1.385 1_556 S
C3236 H3217 0.951 . S
C3236 C3234 1.406 . S
C3236 C3237 1.366 . S
C3237 C3236 1.366 . S
C3237 C3238 1.414 . S
C3237 C3240 1.499 . S
C3238 H3218 0.950 . S
C3238 C3237 1.414 . S
C3238 C3239 1.374 . S
C3239 H3219 0.950 1_554 S
C3239 C3235 1.385 1_554 S
C3239 C3238 1.374 . S
C3240 C3237 1.499 . S
C3240 C3241 1.373 . S
C3240 C3242 1.389 . S
C3241 H3220 0.950 . S
C3241 C3240 1.373 . S
C3241 C3257 1.377 . S
C3242 C3240 1.389 . S
C3242 C3243 1.524 . S
C3242 C3256 1.377 . S
C3243 C3242 1.524 . S
C3243 C3244 1.397 . S
C3243 C3248 1.363 . S
C3244 H3221 0.950 . S
C3244 C3243 1.397 . S
C3244 C3245 1.334 . S
C3245 H3222 0.950 . S
C3245 C3244 1.334 . S
C3245 C3246 1.287 . S
C3246 C3245 1.287 . S
C3246 C3247 1.524 . S
C3246 H3265 0.913 . S
C3247 H3223 0.950 . S
C3247 C3246 1.524 . S
C3247 C3248 1.415 . S
C3248 H3224 0.950 . S
C3248 C3243 1.363 . S
C3248 C3247 1.415 . S
C3249 H3225 0.951 . S
C3249 C3250 1.366 . S
C3249 C3251 1.388 . S
C3250 C3249 1.366 . S
C3250 C3254 1.385 . S
C3251 H3226 0.951 . S
C3251 C3249 1.388 . S
C3251 C3252 1.366 . S
C3252 C3251 1.366 . S
C3252 C3253 1.414 . S
C3252 C3255 1.499 . S
C3253 H3227 0.950 . S
C3253 C3252 1.414 . S
C3253 C3254 1.374 . S
C3254 H3228 0.950 . S
C3254 C3250 1.385 . S
C3254 C3253 1.374 . S
C3255 C3252 1.499 . S
C3255 C3256 1.373 . S
C3255 C3257 1.389 . S
C3256 H3229 0.950 . S
C3256 C3242 1.377 . S
C3256 C3255 1.373 . S
C3257 C3241 1.377 . S
C3257 C3255 1.389 . S
C3257 C3258 1.524 . S
C3258 C3257 1.524 . S
C3258 C3259 1.397 . S
C3258 C3263 1.363 . S
C3259 H3230 0.950 . S
C3259 C3258 1.397 . S
C3259 C3260 1.334 . S
C3260 H3231 0.950 . S
C3260 C3259 1.334 . S
C3260 C3261 1.287 . S
C3261 C3260 1.287 . S
C3261 C3262 1.524 . S
C3261 H3264 0.999 . S
C3262 H3232 0.950 . S
C3262 C3261 1.524 . S
C3262 C3263 1.415 . S
C3263 H3233 0.950 . S
C3263 C3258 1.363 . S
C3263 C3262 1.415 . S
H3264 C3261 0.999 . S
H3265 C3246 0.913 . S
H3266 C3284 0.951 . S
H3267 C3286 0.951 . S
H3268 C3288 0.950 . S
H3269 C3289 0.950 . S
H3270 C3291 0.950 . S
H3271 C3294 0.950 . S
H3272 C3295 0.950 . S
H3273 C3297 0.950 . S
H3274 C3298 0.950 . S
H3275 C3299 0.951 . S
H3276 C3301 0.951 . S
H3277 C3303 0.950 . S
H3278 C3304 0.950 . S
H3279 C3306 0.950 . S
H3280 C3309 0.950 . S
H3281 C3310 0.950 . S
H3282 C3312 0.950 . S
H3283 C3313 0.950 . S
C3284 H3266 0.951 . S
C3284 C3285 1.366 . S
C3284 C3286 1.388 . S
C3285 C3284 1.366 . S
C3285 C3289 1.385 . S
C3286 H3267 0.951 . S
C3286 C3284 1.388 . S
C3286 C3287 1.366 . S
C3287 C3286 1.366 . S
C3287 C3288 1.414 . S
C3287 C3290 1.499 . S
C3288 H3268 0.950 . S
C3288 C3287 1.414 . S
C3288 C3289 1.374 . S
C3289 H3269 0.950 . S
C3289 C3285 1.385 . S
C3289 C3288 1.374 . S
C3290 C3287 1.499 . S
C3290 C3291 1.373 . S
C3290 C3292 1.389 . S
C3291 H3270 0.950 . S
C3291 C3290 1.373 . S
C3291 C3307 1.377 . S
C3292 C3290 1.389 . S
C3292 C3293 1.524 . S
C3292 C3306 1.377 . S
C3293 C3292 1.524 . S
C3293 C3294 1.397 . S
C3293 C3298 1.363 . S
C3294 H3271 0.950 . S
C3294 C3293 1.397 . S
C3294 C3295 1.334 . S
C3295 H3272 0.950 . S
C3295 C3294 1.334 . S
C3295 C3296 1.287 . S
C3296 C3295 1.287 . S
C3296 C3297 1.524 . S
C3296 H3315 0.913 . S
C3297 H3273 0.950 . S
C3297 C3296 1.524 . S
C3297 C3298 1.415 . S
C3298 H3274 0.950 . S
C3298 C3293 1.363 . S
C3298 C3297 1.415 . S
C3299 H3275 0.951 . S
C3299 C3300 1.366 . S
C3299 C3301 1.388 . S
C3300 C3299 1.366 . S
C3300 C3304 1.385 . S
C3301 H3276 0.951 . S
C3301 C3299 1.388 . S
C3301 C3302 1.366 . S
C3302 C3301 1.366 . S
C3302 C3303 1.414 . S
C3302 C3305 1.499 . S
C3303 H3277 0.950 . S
C3303 C3302 1.414 . S
C3303 C3304 1.374 . S
C3304 H3278 0.950 . S
C3304 C3300 1.385 . S
C3304 C3303 1.374 . S
C3305 C3302 1.499 . S
C3305 C3306 1.373 . S
C3305 C3307 1.389 . S
C3306 H3279 0.950 . S
C3306 C3292 1.377 . S
C3306 C3305 1.373 . S
C3307 C3291 1.377 . S
C3307 C3305 1.389 . S
C3307 C3308 1.524 . S
C3308 C3307 1.524 . S
C3308 C3309 1.397 . S
C3308 C3313 1.363 . S
C3309 H3280 0.950 . S
C3309 C3308 1.397 . S
C3309 C3310 1.334 . S
C3310 H3281 0.950 . S
C3310 C3309 1.334 . S
C3310 C3311 1.287 . S
C3311 C3310 1.287 . S
C3311 C3312 1.524 . S
C3311 H3314 0.999 . S
C3312 H3282 0.950 . S
C3312 C3311 1.524 . S
C3312 C3313 1.415 . S
C3313 H3283 0.950 . S
C3313 C3308 1.363 . S
C3313 C3312 1.415 . S
H3314 C3311 0.999 . S
H3315 C3296 0.913 . S
H3316 C3334 0.951 . S
H3317 C3336 0.951 . S
H3318 C3338 0.950 . S
H3319 C3339 0.950 . S
H3320 C3341 0.950 . S
H3321 C3344 0.950 . S
H3322 C3345 0.950 . S
H3323 C3347 0.950 . S
H3324 C3348 0.950 . S
H3325 C3349 0.951 . S
H3326 C3351 0.951 . S
H3327 C3353 0.950 . S
H3328 C3354 0.950 . S
H3329 C3356 0.950 . S
H3330 C3359 0.950 . S
H3331 C3360 0.950 . S
H3332 C3362 0.950 . S
H3333 C3363 0.950 . S
C3334 H3316 0.951 . S
C3334 C3335 1.366 . S
C3334 C3336 1.388 . S
C3335 C3334 1.366 . S
C3335 C3339 1.385 . S
C3336 H3317 0.951 . S
C3336 C3334 1.388 . S
C3336 C3337 1.366 . S
C3337 C3336 1.366 . S
C3337 C3338 1.414 . S
C3337 C3340 1.499 . S
C3338 H3318 0.950 . S
C3338 C3337 1.414 . S
C3338 C3339 1.374 . S
C3339 H3319 0.950 . S
C3339 C3335 1.385 . S
C3339 C3338 1.374 . S
C3340 C3337 1.499 . S
C3340 C3341 1.373 . S
C3340 C3342 1.389 . S
C3341 H3320 0.950 . S
C3341 C3340 1.373 . S
C3341 C3357 1.377 . S
C3342 C3340 1.389 . S
C3342 C3343 1.524 . S
C3342 C3356 1.377 . S
C3343 C3342 1.524 . S
C3343 C3344 1.397 . S
C3343 C3348 1.363 . S
C3344 H3321 0.950 . S
C3344 C3343 1.397 . S
C3344 C3345 1.334 . S
C3345 H3322 0.950 . S
C3345 C3344 1.334 . S
C3345 C3346 1.287 . S
C3346 C3345 1.287 . S
C3346 C3347 1.524 . S
C3346 H3365 0.913 . S
C3347 H3323 0.950 . S
C3347 C3346 1.524 . S
C3347 C3348 1.415 . S
C3348 H3324 0.950 . S
C3348 C3343 1.363 . S
C3348 C3347 1.415 . S
C3349 H3325 0.951 . S
C3349 C3350 1.366 . S
C3349 C3351 1.388 . S
C3350 C3349 1.366 . S
C3350 C3354 1.385 . S
C3351 H3326 0.951 . S
C3351 C3349 1.388 . S
C3351 C3352 1.366 . S
C3352 C3351 1.366 . S
C3352 C3353 1.414 . S
C3352 C3355 1.499 . S
C3353 H3327 0.950 . S
C3353 C3352 1.414 . S
C3353 C3354 1.374 . S
C3354 H3328 0.950 . S
C3354 C3350 1.385 . S
C3354 C3353 1.374 . S
C3355 C3352 1.499 . S
C3355 C3356 1.373 . S
C3355 C3357 1.389 . S
C3356 H3329 0.950 . S
C3356 C3342 1.377 . S
C3356 C3355 1.373 . S
C3357 C3341 1.377 . S
C3357 C3355 1.389 . S
C3357 C3358 1.524 . S
C3358 C3357 1.524 . S
C3358 C3359 1.397 . S
C3358 C3363 1.363 . S
C3359 H3330 0.950 . S
C3359 C3358 1.397 . S
C3359 C3360 1.334 . S
C3360 H3331 0.950 . S
C3360 C3359 1.334 . S
C3360 C3361 1.287 . S
C3361 C3360 1.287 . S
C3361 C3362 1.524 . S
C3361 H3364 0.999 . S
C3362 H3332 0.950 . S
C3362 C3361 1.524 . S
C3362 C3363 1.415 . S
C3363 H3333 0.950 . S
C3363 C3358 1.363 . S
C3363 C3362 1.415 . S
H3364 C3361 0.999 . S
H3365 C3346 0.913 . S
H3366 C3384 0.959 . S
H3367 C3386 0.951 . S
H3368 C3388 0.950 . S
H3369 C3389 0.950 . S
H3370 C3391 0.950 . S
H3371 C3394 0.950 . S
H3372 C3395 0.950 . S
H3373 C3397 0.950 . S
H3374 C3398 0.950 . S
H3375 C3399 0.951 . S
H3376 C3401 0.951 . S
H3377 C3403 0.950 . S
H3378 C3404 0.950 . S
H3379 C3406 0.950 . S
H3380 C3409 0.950 . S
H3381 C3410 0.950 . S
H3382 C3412 0.950 . S
H3383 C3413 0.950 . S
C3384 H3366 0.959 . S
C3384 C3385 1.366 1_556 S
C3384 C3386 1.388 . S
C3385 C3384 1.366 1_554 S
C3385 C3389 1.385 . S
C3386 H3367 0.951 . S
C3386 C3384 1.388 . S
C3386 C3387 1.366 . S
C3387 C3386 1.366 . S
C3387 C3388 1.414 . S
C3387 C3390 1.499 . S
C3388 H3368 0.950 . S
C3388 C3387 1.414 . S
C3388 C3389 1.374 1_556 S
C3389 H3369 0.950 . S
C3389 C3385 1.385 . S
C3389 C3388 1.374 1_554 S
C3390 C3387 1.499 . S
C3390 C3391 1.373 . S
C3390 C3392 1.389 . S
C3391 H3370 0.950 . S
C3391 C3390 1.373 . S
C3391 C3407 1.377 . S
C3392 C3390 1.389 . S
C3392 C3393 1.524 . S
C3392 C3406 1.377 . S
C3393 C3392 1.524 . S
C3393 C3394 1.397 . S
C3393 C3398 1.363 . S
C3394 H3371 0.950 . S
C3394 C3393 1.397 . S
C3394 C3395 1.334 . S
C3395 H3372 0.950 . S
C3395 C3394 1.334 . S
C3395 C3396 1.287 . S
C3396 C3395 1.287 . S
C3396 C3397 1.524 . S
C3396 H3415 0.913 . S
C3397 H3373 0.950 . S
C3397 C3396 1.524 . S
C3397 C3398 1.415 . S
C3398 H3374 0.950 . S
C3398 C3393 1.363 . S
C3398 C3397 1.415 . S
C3399 H3375 0.951 . S
C3399 C3400 1.366 . S
C3399 C3401 1.388 . S
C3400 C3399 1.366 . S
C3400 C3404 1.385 . S
C3401 H3376 0.951 . S
C3401 C3399 1.388 . S
C3401 C3402 1.366 . S
C3402 C3401 1.366 . S
C3402 C3403 1.414 . S
C3402 C3405 1.499 . S
C3403 H3377 0.950 . S
C3403 C3402 1.414 . S
C3403 C3404 1.374 . S
C3404 H3378 0.950 . S
C3404 C3400 1.385 . S
C3404 C3403 1.374 . S
C3405 C3402 1.499 . S
C3405 C3406 1.373 . S
C3405 C3407 1.389 . S
C3406 H3379 0.950 . S
C3406 C3392 1.377 . S
C3406 C3405 1.373 . S
C3407 C3391 1.377 . S
C3407 C3405 1.389 . S
C3407 C3408 1.524 . S
C3408 C3407 1.524 . S
C3408 C3409 1.397 . S
C3408 C3413 1.363 . S
C3409 H3380 0.950 . S
C3409 C3408 1.397 . S
C3409 C3410 1.334 . S
C3410 H3381 0.950 . S
C3410 C3409 1.334 . S
C3410 C3411 1.287 . S
C3411 C3410 1.287 . S
C3411 C3412 1.524 . S
C3411 H3414 0.999 . S
C3412 H3382 0.950 . S
C3412 C3411 1.524 . S
C3412 C3413 1.415 . S
C3413 H3383 0.950 . S
C3413 C3408 1.363 . S
C3413 C3412 1.415 . S
H3414 C3411 0.999 . S
H3415 C3396 0.913 . S
H3416 C3434 0.951 . S
H3417 C3436 0.951 . S
H3418 C3438 0.950 . S
H3419 C3439 0.950 . S
H3420 C3441 0.950 . S
H3421 C3444 0.950 . S
H3422 C3445 0.950 . S
H3423 C3447 0.950 . S
H3424 C3448 0.950 . S
H3425 C3449 0.951 . S
H3426 C3451 0.951 . S
H3427 C3453 0.950 . S
H3428 C3454 0.950 1_554 S
H3429 C3456 0.950 . S
H3430 C3459 0.950 . S
H3431 C3460 0.950 . S
H3432 C3462 0.950 . S
H3433 C3463 0.950 . S
C3434 H3416 0.951 . S
C3434 C3435 1.366 . S
C3434 C3436 1.388 . S
C3435 C3434 1.366 . S
C3435 C3439 1.385 . S
C3436 H3417 0.951 . S
C3436 C3434 1.388 . S
C3436 C3437 1.366 . S
C3437 C3436 1.366 . S
C3437 C3438 1.414 . S
C3437 C3440 1.499 . S
C3438 H3418 0.950 . S
C3438 C3437 1.414 . S
C3438 C3439 1.374 . S
C3439 H3419 0.950 . S
C3439 C3435 1.385 . S
C3439 C3438 1.374 . S
C3440 C3437 1.499 . S
C3440 C3441 1.373 . S
C3440 C3442 1.389 . S
C3441 H3420 0.950 . S
C3441 C3440 1.373 . S
C3441 C3457 1.377 . S
C3442 C3440 1.389 . S
C3442 C3443 1.524 . S
C3442 C3456 1.377 . S
C3443 C3442 1.524 . S
C3443 C3444 1.397 . S
C3443 C3448 1.363 . S
C3444 H3421 0.950 . S
C3444 C3443 1.397 . S
C3444 C3445 1.334 . S
C3445 H3422 0.950 . S
C3445 C3444 1.334 . S
C3445 C3446 1.287 . S
C3446 C3445 1.287 . S
C3446 C3447 1.524 . S
C3446 H3465 0.913 . S
C3447 H3423 0.950 . S
C3447 C3446 1.524 . S
C3447 C3448 1.415 . S
C3448 H3424 0.950 . S
C3448 C3443 1.363 . S
C3448 C3447 1.415 . S
C3449 H3425 0.951 . S
C3449 C3450 1.366 . S
C3449 C3451 1.388 1_554 S
C3450 C3449 1.366 . S
C3450 C3454 1.385 1_554 S
C3451 H3426 0.951 . S
C3451 C3449 1.388 1_556 S
C3451 C3452 1.366 . S
C3452 C3451 1.366 . S
C3452 C3453 1.414 . S
C3452 C3455 1.499 . S
C3453 H3427 0.950 . S
C3453 C3452 1.414 . S
C3453 C3454 1.374 . S
C3454 H3428 0.950 1_556 S
C3454 C3450 1.385 1_556 S
C3454 C3453 1.374 . S
C3455 C3452 1.499 . S
C3455 C3456 1.373 . S
C3455 C3457 1.389 . S
C3456 H3429 0.950 . S
C3456 C3442 1.377 . S
C3456 C3455 1.373 . S
C3457 C3441 1.377 . S
C3457 C3455 1.389 . S
C3457 C3458 1.524 . S
C3458 C3457 1.524 . S
C3458 C3459 1.397 . S
C3458 C3463 1.363 . S
C3459 H3430 0.950 . S
C3459 C3458 1.397 . S
C3459 C3460 1.334 . S
C3460 H3431 0.950 . S
C3460 C3459 1.334 . S
C3460 C3461 1.287 . S
C3461 C3460 1.287 . S
C3461 C3462 1.524 . S
C3461 H3464 0.999 . S
C3462 H3432 0.950 . S
C3462 C3461 1.524 . S
C3462 C3463 1.415 . S
C3463 H3433 0.950 . S
C3463 C3458 1.363 . S
C3463 C3462 1.415 . S
H3464 C3461 0.999 . S
H3465 C3446 0.913 . S
H3466 C3484 0.951 . S
H3467 C3486 0.951 . S
H3468 C3488 0.950 . S
H3469 C3489 0.950 . S
H3470 C3491 0.950 . S
H3471 C3494 0.950 . S
H3472 C3495 0.950 . S
H3473 C3497 0.950 . S
H3474 C3498 0.950 . S
H3475 C3499 0.951 . S
H3476 C3501 0.951 . S
H3477 C3503 0.950 . S
H3478 C3504 0.950 . S
H3479 C3506 0.950 . S
H3480 C3509 0.950 . S
H3481 C3510 0.950 . S
H3482 C3512 0.950 . S
H3483 C3513 0.950 . S
C3484 H3466 0.951 . S
C3484 C3485 1.366 . S
C3484 C3486 1.388 . S
C3485 C3484 1.366 . S
C3485 C3489 1.385 . S
C3486 H3467 0.951 . S
C3486 C3484 1.388 . S
C3486 C3487 1.366 . S
C3487 C3486 1.366 . S
C3487 C3488 1.414 . S
C3487 C3490 1.499 . S
C3488 H3468 0.950 . S
C3488 C3487 1.414 . S
C3488 C3489 1.374 . S
C3489 H3469 0.950 . S
C3489 C3485 1.385 . S
C3489 C3488 1.374 . S
C3490 C3487 1.499 . S
C3490 C3491 1.373 . S
C3490 C3492 1.389 . S
C3491 H3470 0.950 . S
C3491 C3490 1.373 . S
C3491 C3507 1.377 . S
C3492 C3490 1.389 . S
C3492 C3493 1.524 . S
C3492 C3506 1.377 . S
C3493 C3492 1.524 . S
C3493 C3494 1.397 . S
C3493 C3498 1.363 . S
C3494 H3471 0.950 . S
C3494 C3493 1.397 . S
C3494 C3495 1.334 . S
C3495 H3472 0.950 . S
C3495 C3494 1.334 . S
C3495 C3496 1.287 . S
C3496 C3495 1.287 . S
C3496 C3497 1.524 . S
C3496 H3515 0.913 . S
C3497 H3473 0.950 . S
C3497 C3496 1.524 . S
C3497 C3498 1.415 . S
C3498 H3474 0.950 . S
C3498 C3493 1.363 . S
C3498 C3497 1.415 . S
C3499 H3475 0.951 . S
C3499 C3500 1.366 . S
C3499 C3501 1.388 . S
C3500 C3499 1.366 . S
C3500 C3504 1.385 . S
C3501 H3476 0.951 . S
C3501 C3499 1.388 . S
C3501 C3502 1.366 . S
C3502 C3501 1.366 . S
C3502 C3503 1.414 . S
C3502 C3505 1.499 . S
C3503 H3477 0.950 . S
C3503 C3502 1.414 . S
C3503 C3504 1.374 . S
C3504 H3478 0.950 . S
C3504 C3500 1.385 . S
C3504 C3503 1.374 . S
C3505 C3502 1.499 . S
C3505 C3506 1.373 . S
C3505 C3507 1.389 . S
C3506 H3479 0.950 . S
C3506 C3492 1.377 . S
C3506 C3505 1.373 . S
C3507 C3491 1.377 . S
C3507 C3505 1.389 . S
C3507 C3508 1.524 . S
C3508 C3507 1.524 . S
C3508 C3509 1.397 . S
C3508 C3513 1.363 . S
C3509 H3480 0.950 . S
C3509 C3508 1.397 . S
C3509 C3510 1.334 . S
C3510 H3481 0.950 . S
C3510 C3509 1.334 . S
C3510 C3511 1.287 . S
C3511 C3510 1.287 . S
C3511 C3512 1.524 . S
C3511 H3514 0.999 . S
C3512 H3482 0.950 . S
C3512 C3511 1.524 . S
C3512 C3513 1.415 . S
C3513 H3483 0.950 . S
C3513 C3508 1.363 . S
C3513 C3512 1.415 . S
H3514 C3511 0.999 . S
H3515 C3496 0.913 . S
H3516 C3534 0.951 . S
H3517 C3536 0.951 . S
H3518 C3538 0.950 . S
H3519 C3539 0.950 . S
H3520 C3541 0.950 . S
H3521 C3544 0.950 . S
H3522 C3545 0.950 . S
H3523 C3547 0.950 . S
H3524 C3548 0.950 . S
H3525 C3549 0.951 . S
H3526 C3551 0.951 . S
H3527 C3553 0.950 . S
H3528 C3554 0.950 . S
H3529 C3556 0.950 . S
H3530 C3559 0.950 . S
H3531 C3560 0.950 . S
H3532 C3562 0.950 . S
H3533 C3563 0.950 . S
C3534 H3516 0.951 . S
C3534 C3535 1.366 . S
C3534 C3536 1.388 . S
C3535 C3534 1.366 . S
C3535 C3539 1.385 . S
C3536 H3517 0.951 . S
C3536 C3534 1.388 . S
C3536 C3537 1.366 . S
C3537 C3536 1.366 . S
C3537 C3538 1.414 . S
C3537 C3540 1.499 . S
C3538 H3518 0.950 . S
C3538 C3537 1.414 . S
C3538 C3539 1.374 . S
C3539 H3519 0.950 . S
C3539 C3535 1.385 . S
C3539 C3538 1.374 . S
C3540 C3537 1.499 . S
C3540 C3541 1.373 . S
C3540 C3542 1.389 . S
C3541 H3520 0.950 . S
C3541 C3540 1.373 . S
C3541 C3557 1.377 . S
C3542 C3540 1.389 . S
C3542 C3543 1.524 . S
C3542 C3556 1.377 . S
C3543 C3542 1.524 . S
C3543 C3544 1.397 . S
C3543 C3548 1.363 . S
C3544 H3521 0.950 . S
C3544 C3543 1.397 . S
C3544 C3545 1.334 . S
C3545 H3522 0.950 . S
C3545 C3544 1.334 . S
C3545 C3546 1.287 . S
C3546 C3545 1.287 . S
C3546 C3547 1.524 . S
C3546 H3565 0.913 . S
C3547 H3523 0.950 . S
C3547 C3546 1.524 . S
C3547 C3548 1.415 . S
C3548 H3524 0.950 . S
C3548 C3543 1.363 . S
C3548 C3547 1.415 . S
C3549 H3525 0.951 . S
C3549 C3550 1.366 . S
C3549 C3551 1.388 . S
C3550 C3549 1.366 . S
C3550 C3554 1.385 . S
C3551 H3526 0.951 . S
C3551 C3549 1.388 . S
C3551 C3552 1.366 . S
C3552 C3551 1.366 . S
C3552 C3553 1.414 . S
C3552 C3555 1.499 . S
C3553 H3527 0.950 . S
C3553 C3552 1.414 . S
C3553 C3554 1.374 . S
C3554 H3528 0.950 . S
C3554 C3550 1.385 . S
C3554 C3553 1.374 . S
C3555 C3552 1.499 . S
C3555 C3556 1.373 . S
C3555 C3557 1.389 . S
C3556 H3529 0.950 . S
C3556 C3542 1.377 . S
C3556 C3555 1.373 . S
C3557 C3541 1.377 . S
C3557 C3555 1.389 . S
C3557 C3558 1.524 . S
C3558 C3557 1.524 . S
C3558 C3559 1.397 . S
C3558 C3563 1.363 . S
C3559 H3530 0.950 . S
C3559 C3558 1.397 . S
C3559 C3560 1.334 . S
C3560 H3531 0.950 . S
C3560 C3559 1.334 . S
C3560 C3561 1.287 . S
C3561 C3560 1.287 . S
C3561 C3562 1.524 . S
C3561 H3564 0.999 . S
C3562 H3532 0.950 . S
C3562 C3561 1.524 . S
C3562 C3563 1.415 . S
C3563 H3533 0.950 . S
C3563 C3558 1.363 . S
C3563 C3562 1.415 . S
H3564 C3561 0.999 . S
H3565 C3546 0.913 . S
H3566 C3584 0.951 . S
H3567 C3586 0.951 . S
H3568 C3588 0.950 . S
H3569 C3589 0.950 . S
H3570 C3591 0.950 . S
H3571 C3594 0.950 . S
H3572 C3595 0.950 . S
H3573 C3597 0.950 . S
H3574 C3598 0.950 . S
H3575 C3599 0.951 . S
H3576 C3601 0.951 . S
H3577 C3603 0.950 . S
H3578 C3604 0.948 1_556 S
H3579 C3606 0.950 . S
H3580 C3609 0.950 . S
H3581 C3610 0.950 . S
H3582 C3612 0.950 . S
H3583 C3613 0.950 . S
C3584 H3566 0.951 . S
C3584 C3585 1.366 . S
C3584 C3586 1.388 . S
C3585 C3584 1.366 . S
C3585 C3589 1.385 . S
C3586 H3567 0.951 . S
C3586 C3584 1.388 . S
C3586 C3587 1.366 . S
C3587 C3586 1.366 . S
C3587 C3588 1.414 . S
C3587 C3590 1.499 . S
C3588 H3568 0.950 . S
C3588 C3587 1.414 . S
C3588 C3589 1.374 . S
C3589 H3569 0.950 . S
C3589 C3585 1.385 . S
C3589 C3588 1.374 . S
C3590 C3587 1.499 . S
C3590 C3591 1.373 . S
C3590 C3592 1.389 . S
C3591 H3570 0.950 . S
C3591 C3590 1.373 . S
C3591 C3607 1.377 . S
C3592 C3590 1.389 . S
C3592 C3593 1.524 . S
C3592 C3606 1.377 . S
C3593 C3592 1.524 . S
C3593 C3594 1.397 . S
C3593 C3598 1.363 . S
C3594 H3571 0.950 . S
C3594 C3593 1.397 . S
C3594 C3595 1.334 . S
C3595 H3572 0.950 . S
C3595 C3594 1.334 . S
C3595 C3596 1.287 . S
C3596 C3595 1.287 . S
C3596 C3597 1.524 . S
C3596 H3615 0.913 . S
C3597 H3573 0.950 . S
C3597 C3596 1.524 . S
C3597 C3598 1.415 . S
C3598 H3574 0.950 . S
C3598 C3593 1.363 . S
C3598 C3597 1.415 . S
C3599 H3575 0.951 . S
C3599 C3600 1.366 . S
C3599 C3601 1.388 1_556 S
C3600 C3599 1.366 . S
C3600 C3604 1.385 1_556 S
C3601 H3576 0.951 . S
C3601 C3599 1.388 1_554 S
C3601 C3602 1.366 . S
C3602 C3601 1.366 . S
C3602 C3603 1.414 . S
C3602 C3605 1.499 . S
C3603 H3577 0.950 . S
C3603 C3602 1.414 . S
C3603 C3604 1.374 . S
C3604 H3578 0.948 1_554 S
C3604 C3600 1.385 1_554 S
C3604 C3603 1.374 . S
C3605 C3602 1.499 . S
C3605 C3606 1.373 . S
C3605 C3607 1.389 . S
C3606 H3579 0.950 . S
C3606 C3592 1.377 . S
C3606 C3605 1.373 . S
C3607 C3591 1.377 . S
C3607 C3605 1.389 . S
C3607 C3608 1.524 . S
C3608 C3607 1.524 . S
C3608 C3609 1.397 . S
C3608 C3613 1.363 . S
C3609 H3580 0.950 . S
C3609 C3608 1.397 . S
C3609 C3610 1.334 . S
C3610 H3581 0.950 . S
C3610 C3609 1.334 . S
C3610 C3611 1.287 . S
C3611 C3610 1.287 . S
C3611 C3612 1.524 . S
C3611 H3614 0.999 . S
C3612 H3582 0.950 . S
C3612 C3611 1.524 . S
C3612 C3613 1.415 . S
C3613 H3583 0.950 . S
C3613 C3608 1.363 . S
C3613 C3612 1.415 . S
H3614 C3611 0.999 . S
H3615 C3596 0.913 . S
C435 C10 1.441 . S
C450 C56 1.440 . S
C485 C23 1.441 . S
C500 C75 1.440 . S
C535 C82 1.440 . S
C550 C30 1.440 . S
C585 C101 1.440 . S
C600 C49 1.441 . S
C635 C108 1.440 . S
C650 C166 1.440 . S
C685 C121 1.440 . S
C700 C173 1.440 . S
C735 C186 1.441 . S
C750 C140 1.440 . S
C785 C147 1.440 . S
C800 C205 1.440 . S
C835 C264 1.440 . S
C850 C212 1.440 . S
C885 C283 1.440 . S
C900 C231 1.440 . S
C935 C238 1.440 . S
C950 C290 1.440 . S
C985 C309 1.440 . S
C1000 C251 1.440 . S
C1035 C322 1.440 . S
C1050 C374 1.440 . S
C1085 C381 1.441 . S
C1100 C335 1.440 . S
C1135 C400 1.441 . S
C1150 C348 1.441 . S
C1185 C355 1.440 . S
C1200 C407 1.441 . S
C1235 C3 1.697 . S
C1250 C361 1.696 . S
C1285 C114 1.696 . S
C1300 C16 1.698 . S
C1335 C31 1.697 . S
C1350 C329 1.696 . S
C1385 C42 1.697 . S
C1400 C134 1.696 . S
C1435 C387 1.696 . S
C1450 C57 1.697 . S
C1485 C192 1.696 . S
C1500 C68 1.697 . S
C1535 C83 1.697 . S
C1550 C413 1.696 . S
C1585 C94 1.698 . S
C1600 C160 1.696 . S
C1635 C257 1.696 . S
C1650 C109 1.698 . S
C1685 C122 1.698 . S
C1700 C4 1.696 . S
C1735 C225 1.697 . S
C1750 C133 1.697 . S
C1785 C148 1.698 . S
C1800 C36 1.696 . S
C1835 C277 1.696 . S
C1850 C159 1.698 . S
C1885 C174 1.698 . S
C1900 C88 1.696 . S
C1935 C303 1.696 . S
C1950 C187 1.697 . S
C1985 C198 1.698 . S
C2000 C62 1.696 . S
C2035 C153 1.696 . S
C2050 C213 1.697 . S
C2085 C316 1.696 . S
C2100 C224 1.698 . S
C2135 C127 1.696 . S
C2150 C239 1.697 . S
C2185 C252 1.697 . S
C2200 C342 1.697 . S
C2235 C179 1.696 . S
C2250 C265 1.698 . S
C2285 C394 1.697 . S
C2300 C276 1.697 . S
C2335 C199 1.696 . S
C2350 C291 1.698 . S
C2385 C302 1.697 . S
C2400 C368 1.696 . S
C2435 C315 1.697 . S
C2450 C43 1.696 . S
C2485 C328 1.697 . S
C2500 C218 1.696 . S
C2535 C341 1.697 . S
C2550 C17 1.696 . S
C2585 C356 1.698 . S
C2600 C244 1.696 . S
C2635 C367 1.698 . S
C2650 C69 1.696 . S
C2685 C296 1.697 . S
C2700 C382 1.697 . S
C2735 C95 1.696 . S
C2750 C393 1.698 . S
C2785 C408 1.697 . S
C2800 C270 1.696 . S
C2835 C5 0.902 . S
C2850 C96 0.903 . S
C2885 C18 0.901 . S
C2900 C55 0.902 . S
C2935 C29 0.902 . S
C2950 C70 0.902 . S
C2985 C81 0.902 . S
C3000 C44 0.902 . S
C3035 C200 0.903 . S
C3050 C107 0.901 . S
C3085 C161 0.902 . S
C3100 C120 0.902 . S
C3135 C172 0.901 . S
C3150 C135 0.902 . S
C3185 C185 0.903 . S
C3200 C146 0.902 . S
C3235 C211 0.902 . S
C3250 C304 0.902 . S
C3285 C263 0.902 . S
C3300 C226 0.902 . S
C3335 C278 0.902 . S
C3350 C237 0.902 . S
C3385 C289 0.903 . S
C3400 C250 0.901 . S
C3435 C406 0.903 . S
C3450 C317 0.901 . S
C3485 C330 0.901 . S
C3500 C369 0.903 . S
C3535 C343 0.902 . S
C3550 C380 0.903 . S
C3585 C354 0.902 . S
C3600 C395 0.901 . S
