# Generated by pormake.
# Topology zfi, (5)-cn, num edge types: 1
# Building blocks:
#     Node 0, Type 0, BuildingBlock: XOMCOT_clean_sbu_0, # of connection points: 5
#     Node 1, Type 0, BuildingBlock: XOMCOT_clean_sbu_0, # of connection points: 5
#     Node 2, Type 0, BuildingBlock: XOMCOT_clean_sbu_0, # of connection points: 5
#     Node 3, Type 0, BuildingBlock: XOMCOT_clean_sbu_0, # of connection points: 5
#     Node 4, Type 0, BuildingBlock: XOMCOT_clean_sbu_0, # of connection points: 5
#     Node 5, Type 0, BuildingBlock: XOMCOT_clean_sbu_0, # of connection points: 5
#     Node 6, Type 0, BuildingBlock: XOMCOT_clean_sbu_0, # of connection points: 5
#     Node 7, Type 0, BuildingBlock: XOMCOT_clean_sbu_0, # of connection points: 5
#     Node 8, Type 0, BuildingBlock: XOMCOT_clean_sbu_0, # of connection points: 5
#     Node 9, Type 0, BuildingBlock: XOMCOT_clean_sbu_0, # of connection points: 5
#     Node 10, Type 0, BuildingBlock: XOMCOT_clean_sbu_0, # of connection points: 5
#     Node 11, Type 0, BuildingBlock: XOMCOT_clean_sbu_0, # of connection points: 5
#     Node 12, Type 0, BuildingBlock: XOMCOT_clean_sbu_0, # of connection points: 5
#     Node 13, Type 0, BuildingBlock: XOMCOT_clean_sbu_0, # of connection points: 5
#     Node 14, Type 0, BuildingBlock: XOMCOT_clean_sbu_0, # of connection points: 5
#     Node 15, Type 0, BuildingBlock: XOMCOT_clean_sbu_0, # of connection points: 5
#     Edge 16, Type (0, 0), BuildingBlock: ZUJKAS_clean_linker_0, # of connection points: 2
#     Edge 17, Type (0, 0), BuildingBlock: ZUJKAS_clean_linker_0, # of connection points: 2
#     Edge 18, Type (0, 0), BuildingBlock: ZUJKAS_clean_linker_0, # of connection points: 2
#     Edge 19, Type (0, 0), BuildingBlock: ZUJKAS_clean_linker_0, # of connection points: 2
#     Edge 20, Type (0, 0), BuildingBlock: ZUJKAS_clean_linker_0, # of connection points: 2
#     Edge 21, Type (0, 0), BuildingBlock: ZUJKAS_clean_linker_0, # of connection points: 2
#     Edge 22, Type (0, 0), BuildingBlock: ZUJKAS_clean_linker_0, # of connection points: 2
#     Edge 23, Type (0, 0), BuildingBlock: ZUJKAS_clean_linker_0, # of connection points: 2
#     Edge 24, Type (0, 0), BuildingBlock: ZUJKAS_clean_linker_0, # of connection points: 2
#     Edge 25, Type (0, 0), BuildingBlock: ZUJKAS_clean_linker_0, # of connection points: 2
#     Edge 26, Type (0, 0), BuildingBlock: ZUJKAS_clean_linker_0, # of connection points: 2
#     Edge 27, Type (0, 0), BuildingBlock: ZUJKAS_clean_linker_0, # of connection points: 2
#     Edge 28, Type (0, 0), BuildingBlock: ZUJKAS_clean_linker_0, # of connection points: 2
#     Edge 29, Type (0, 0), BuildingBlock: ZUJKAS_clean_linker_0, # of connection points: 2
#     Edge 30, Type (0, 0), BuildingBlock: ZUJKAS_clean_linker_0, # of connection points: 2
#     Edge 31, Type (0, 0), BuildingBlock: ZUJKAS_clean_linker_0, # of connection points: 2
#     Edge 32, Type (0, 0), BuildingBlock: ZUJKAS_clean_linker_0, # of connection points: 2
#     Edge 33, Type (0, 0), BuildingBlock: ZUJKAS_clean_linker_0, # of connection points: 2
#     Edge 34, Type (0, 0), BuildingBlock: ZUJKAS_clean_linker_0, # of connection points: 2
#     Edge 35, Type (0, 0), BuildingBlock: ZUJKAS_clean_linker_0, # of connection points: 2
#     Edge 36, Type (0, 0), BuildingBlock: ZUJKAS_clean_linker_0, # of connection points: 2
#     Edge 37, Type (0, 0), BuildingBlock: ZUJKAS_clean_linker_0, # of connection points: 2
#     Edge 38, Type (0, 0), BuildingBlock: ZUJKAS_clean_linker_0, # of connection points: 2
#     Edge 39, Type (0, 0), BuildingBlock: ZUJKAS_clean_linker_0, # of connection points: 2
#     Edge 40, Type (0, 0), BuildingBlock: ZUJKAS_clean_linker_0, # of connection points: 2
#     Edge 41, Type (0, 0), BuildingBlock: ZUJKAS_clean_linker_0, # of connection points: 2
#     Edge 42, Type (0, 0), BuildingBlock: ZUJKAS_clean_linker_0, # of connection points: 2
#     Edge 43, Type (0, 0), BuildingBlock: ZUJKAS_clean_linker_0, # of connection points: 2
#     Edge 44, Type (0, 0), BuildingBlock: ZUJKAS_clean_linker_0, # of connection points: 2
#     Edge 45, Type (0, 0), BuildingBlock: ZUJKAS_clean_linker_0, # of connection points: 2
#     Edge 46, Type (0, 0), BuildingBlock: ZUJKAS_clean_linker_0, # of connection points: 2
#     Edge 47, Type (0, 0), BuildingBlock: ZUJKAS_clean_linker_0, # of connection points: 2
#     Edge 48, Type (0, 0), BuildingBlock: ZUJKAS_clean_linker_0, # of connection points: 2
#     Edge 49, Type (0, 0), BuildingBlock: ZUJKAS_clean_linker_0, # of connection points: 2
#     Edge 50, Type (0, 0), BuildingBlock: ZUJKAS_clean_linker_0, # of connection points: 2
#     Edge 51, Type (0, 0), BuildingBlock: ZUJKAS_clean_linker_0, # of connection points: 2
#     Edge 52, Type (0, 0), BuildingBlock: ZUJKAS_clean_linker_0, # of connection points: 2
#     Edge 53, Type (0, 0), BuildingBlock: ZUJKAS_clean_linker_0, # of connection points: 2
#     Edge 54, Type (0, 0), BuildingBlock: ZUJKAS_clean_linker_0, # of connection points: 2
#     Edge 55, Type (0, 0), BuildingBlock: ZUJKAS_clean_linker_0, # of connection points: 2
# Relax obj value: 0.084
# Max RMSD: 0.116
# Mean RMSD: 0.116
data_MOF--net-zfi--node1-XOMCOT_clean_sbu_0--edge1-ZUJKAS_clean_linker_0
_symmetry_space_group_name_H-M    P1
_symmetry_Int_Tables_number       1
_symmetry_cell_setting            triclinic
loop_
_symmetry_equiv_pos_as_xyz
'x, y, z'
_cell_length_a     49.039687
_cell_length_b     49.049622
_cell_length_c     62.33247
_cell_angle_alpha  89.928434
_cell_angle_beta   89.94184
_cell_angle_gamma 90.064197
loop_
_atom_site_label
_atom_site_type_symbol
_atom_site_fract_x
_atom_site_fract_y
_atom_site_fract_z
_atom_type_partial_charge
Co0 Co 0.6507 0.06662 0.11207 0.0
C1 C 0.67242 0.12326 0.10646 0.0
C2 C 0.63941 0.11554 0.08494 0.0
C3 C 0.64884 0.14166 0.08145 0.0
N4 N 0.65485 0.10345 0.10013 0.0
N5 N 0.66979 0.14648 0.09491 0.0
H6 H 0.6866 0.12106 0.11956 0.0
H7 H 0.62189 0.10658 0.07722 0.0
C8 C 0.62815 0.05466 0.06731 0.0
O9 O 0.65055 0.06329 0.05789 0.0
N10 N 0.64637 0.03041 0.12423 0.0
C11 C 0.66392 0.01789 0.13762 0.0
C12 C 0.65633 0.99097 0.13969 0.0
C13 C 0.62818 1.01101 0.11855 0.0
N14 N 0.63398 0.9866 0.12754 0.0
C15 C 0.70781 0.06609 0.10322 0.0
C16 C 0.70911 0.01568 0.08359 0.0
C17 C 0.73368 0.02752 0.09039 0.0
C18 C 0.73279 0.05371 0.09923 0.0
C19 C 0.68435 0.02918 0.08747 0.0
N20 N 0.68383 0.05379 0.09783 0.0
H21 H 0.70808 0.08431 0.11261 0.0
H22 H 0.66559 0.01861 0.08387 0.0
H23 H 0.68186 0.02729 0.14447 0.0
H24 H 0.61207 0.01415 0.10703 0.0
O25 O 0.66686 0.07874 0.13869 0.0
O26 O 0.6227 0.07997 0.13119 0.0
O27 O 0.62592 0.05546 0.08771 0.0
C28 C 0.64219 0.08439 0.14493 0.0
H29 H 0.64043 0.15616 0.07016 0.0
H30 H 0.66702 0.97565 0.14891 0.0
H31 H 0.70877 0.99535 0.07685 0.0
H32 H 0.75123 0.06386 0.10449 0.0
Co33 Co 0.4596 0.65175 0.1143 0.0
C34 C 0.40418 0.67618 0.10839 0.0
C35 C 0.40886 0.63958 0.09017 0.0
C36 C 0.38286 0.64943 0.08703 0.0
N37 N 0.4227 0.65683 0.10304 0.0
N38 N 0.37993 0.67256 0.09846 0.0
H39 H 0.40783 0.69209 0.11992 0.0
H40 H 0.41657 0.6205 0.08405 0.0
C41 C 0.46772 0.62773 0.06952 0.0
O42 O 0.45814 0.64978 0.06021 0.0
N43 N 0.496 0.64647 0.1257 0.0
C44 C 0.50946 0.66382 0.13867 0.0
C45 C 0.53634 0.65585 0.13987 0.0
C46 C 0.51481 0.62805 0.11937 0.0
N47 N 0.53972 0.63348 0.12756 0.0
C48 C 0.46335 0.70886 0.10582 0.0
C49 C 0.51029 0.70707 0.08141 0.0
C50 C 0.50046 0.73248 0.08825 0.0
C51 C 0.47623 0.7331 0.10009 0.0
C52 C 0.4964 0.68315 0.08721 0.0
N53 N 0.47322 0.68415 0.09946 0.0
H54 H 0.44695 0.71017 0.11713 0.0
H55 H 0.50556 0.66381 0.08321 0.0
H56 H 0.50074 0.68194 0.14576 0.0
H57 H 0.5109 0.61209 0.10785 0.0
O58 O 0.44883 0.66863 0.14102 0.0
O59 O 0.44566 0.6245 0.13392 0.0
O60 O 0.46903 0.62623 0.08994 0.0
C61 C 0.44229 0.6443 0.14756 0.0
H62 H 0.36707 0.63971 0.07763 0.0
H63 H 0.55231 0.66635 0.14853 0.0
H64 H 0.52919 0.70559 0.07248 0.0
H65 H 0.46842 0.75208 0.10649 0.0
Co66 Co 0.87172 0.4572 0.11264 0.0
C67 C 0.8458 0.40289 0.10469 0.0
C68 C 0.88631 0.40492 0.09204 0.0
C69 C 0.87617 0.37904 0.08863 0.0
N70 N 0.86703 0.42019 0.1017 0.0
N71 N 0.85064 0.37776 0.09664 0.0
H72 H 0.82746 0.40804 0.11318 0.0
H73 H 0.90674 0.41181 0.08835 0.0
C74 C 0.8966 0.46234 0.06782 0.0
O75 O 0.87599 0.44953 0.05889 0.0
N76 N 0.87648 0.49382 0.12368 0.0
C77 C 0.85904 0.50724 0.13661 0.0
C78 C 0.86703 0.53413 0.13783 0.0
C79 C 0.8949 0.51266 0.11734 0.0
N80 N 0.8895 0.53755 0.12558 0.0
C81 C 0.81435 0.46226 0.10662 0.0
C82 C 0.81579 0.50478 0.07761 0.0
C83 C 0.79059 0.49676 0.08626 0.0
C84 C 0.79012 0.47478 0.10055 0.0
C85 C 0.83971 0.49123 0.08384 0.0
N86 N 0.83884 0.47006 0.09817 0.0
H87 H 0.81333 0.448 0.11968 0.0
H88 H 0.85896 0.49932 0.0784 0.0
H89 H 0.84098 0.49842 0.14379 0.0
H90 H 0.91101 0.50872 0.10596 0.0
O91 O 0.85568 0.44612 0.13967 0.0
O92 O 0.8997 0.44419 0.13196 0.0
O93 O 0.89676 0.46676 0.08799 0.0
C94 C 0.88029 0.4403 0.14588 0.0
H95 H 0.88721 0.36221 0.08154 0.0
H96 H 0.8566 0.55005 0.14659 0.0
H97 H 0.81717 0.52212 0.06689 0.0
H98 H 0.77139 0.46867 0.10845 0.0
Co99 Co 0.06675 0.8704 0.11352 0.0
C100 C 0.1223 0.84603 0.108 0.0
C101 C 0.11815 0.88335 0.09055 0.0
C102 C 0.14424 0.87364 0.08763 0.0
N103 N 0.10395 0.86559 0.10278 0.0
N104 N 0.14685 0.85006 0.09857 0.0
H105 H 0.11833 0.82969 0.1191 0.0
H106 H 0.11057 0.90265 0.08473 0.0
C107 C 0.06001 0.89448 0.06859 0.0
O108 O 0.07052 0.87273 0.05951 0.0
N109 N 0.03008 0.87547 0.12438 0.0
C110 C 0.01583 0.85765 0.13646 0.0
C111 C 0.98906 0.86612 0.1374 0.0
C112 C 0.0119 0.89462 0.11832 0.0
N113 N 0.98659 0.88923 0.12578 0.0
C114 C 0.06334 0.81326 0.10528 0.0
C115 C 0.01746 0.81492 0.0797 0.0
C116 C 0.02717 0.78956 0.08675 0.0
C117 C 0.05085 0.78899 0.09921 0.0
C118 C 0.03103 0.83889 0.0858 0.0
N119 N 0.05371 0.83793 0.09857 0.0
H120 H 0.07915 0.812 0.11708 0.0
H121 H 0.02193 0.85819 0.0816 0.0
H122 H 0.02393 0.8389 0.14298 0.0
H123 H 0.01679 0.91163 0.108 0.0
O124 O 0.07695 0.85367 0.14046 0.0
O125 O 0.07999 0.8978 0.1332 0.0
O126 O 0.05771 0.89578 0.08897 0.0
C127 C 0.08317 0.87808 0.14697 0.0
H128 H 0.1603 0.88374 0.07873 0.0
H129 H 0.97244 0.85517 0.14493 0.0
H130 H 0.99889 0.81632 0.07037 0.0
H131 H 0.05845 0.77001 0.1058 0.0
Co132 Co 0.14968 0.9589 0.40042 0.0
C133 C 0.17379 0.90334 0.40592 0.0
C134 C 0.14026 0.90945 0.42733 0.0
C135 C 0.15073 0.88375 0.43078 0.0
N136 N 0.15533 0.92229 0.41225 0.0
N137 N 0.1719 0.87997 0.41733 0.0
H138 H 0.18813 0.90622 0.39297 0.0
H139 H 0.1223 0.91757 0.43499 0.0
C140 C 0.12618 0.96958 0.44519 0.0
O141 O 0.14863 0.96147 0.45473 0.0
N142 N 0.14391 0.99493 0.3884 0.0
C143 C 0.16125 1.00853 0.37544 0.0
C144 C 0.15272 0.03521 0.37382 0.0
C145 C 0.12492 0.01342 0.39422 0.0
N146 N 0.13 0.0383 0.38581 0.0
C147 C 0.20669 0.96212 0.40932 0.0
C148 C 0.20547 1.01104 0.43116 0.0
C149 C 0.23078 1.00019 0.42504 0.0
C150 C 0.2311 0.975 0.41455 0.0
C151 C 0.18136 0.99718 0.42588 0.0
N152 N 0.1821 0.97308 0.41482 0.0
H153 H 0.20783 0.94461 0.39912 0.0
H154 H 0.16213 1.00691 0.42933 0.0
H155 H 0.17973 1.0001 0.36871 0.0
H156 H 0.1088 1.00936 0.40558 0.0
O157 O 0.16649 0.94778 0.37378 0.0
O158 O 0.12242 0.94427 0.38121 0.0
O159 O 0.12426 0.96886 0.42476 0.0
C160 C 0.14216 0.9409 0.36748 0.0
H161 H 0.14289 0.86876 0.44196 0.0
H162 H 0.16311 0.05128 0.36514 0.0
H163 H 0.20423 0.03061 0.43912 0.0
H164 H 0.25001 0.96624 0.40879 0.0
Co165 Co 0.5654 0.15129 0.39928 0.0
C166 C 0.62186 0.17371 0.40442 0.0
C167 C 0.61466 0.1406 0.42601 0.0
C168 C 0.64073 0.15026 0.42929 0.0
N169 N 0.60229 0.15595 0.41092 0.0
N170 N 0.64522 0.1713 0.4158 0.0
H171 H 0.6194 0.18783 0.3913 0.0
H172 H 0.60594 0.12299 0.43381 0.0
C173 C 0.55402 0.12885 0.44425 0.0
O174 O 0.56222 0.15147 0.45351 0.0
N175 N 0.52915 0.14628 0.38749 0.0
C176 C 0.51576 0.16369 0.3745 0.0
C177 C 0.48902 0.15526 0.37279 0.0
C178 C 0.51049 0.1274 0.3933 0.0
N179 N 0.4857 0.1326 0.38482 0.0
C180 C 0.56432 0.20839 0.40792 0.0
C181 C 0.51401 0.20934 0.42782 0.0
C182 C 0.52563 0.23398 0.42087 0.0
C183 C 0.55177 0.23326 0.4119 0.0
C184 C 0.52769 0.18467 0.42395 0.0
N185 N 0.55226 0.18431 0.41347 0.0
H186 H 0.58246 0.20879 0.39841 0.0
H187 H 0.51729 0.16582 0.42766 0.0
H188 H 0.52439 0.18215 0.36782 0.0
H189 H 0.51461 0.11074 0.40414 0.0
O190 O 0.57697 0.16752 0.37251 0.0
O191 O 0.57897 0.12341 0.38017 0.0
O192 O 0.55486 0.12649 0.42386 0.0
C193 C 0.58295 0.14292 0.36632 0.0
H194 H 0.65539 0.14191 0.44047 0.0
H195 H 0.47292 0.16598 0.36444 0.0
H196 H 0.49372 0.20887 0.43468 0.0
H197 H 0.56175 0.25176 0.40651 0.0
Co198 Co 0.37124 0.56865 0.40154 0.0
C199 C 0.34883 0.62512 0.4061 0.0
C200 C 0.38024 0.61756 0.42912 0.0
C201 C 0.37029 0.64349 0.43231 0.0
N202 N 0.3661 0.60546 0.41316 0.0
N203 N 0.3504 0.64818 0.41789 0.0
H204 H 0.3353 0.62278 0.39256 0.0
H205 H 0.39719 0.60876 0.43766 0.0
C206 C 0.39358 0.55669 0.4464 0.0
O207 O 0.37062 0.5639 0.45567 0.0
N208 N 0.37667 0.53247 0.38973 0.0
C209 C 0.35917 0.51876 0.37705 0.0
C210 C 0.3677 0.49206 0.37553 0.0
C211 C 0.39577 0.51407 0.39548 0.0
N212 N 0.39056 0.48908 0.38735 0.0
C213 C 0.31424 0.56733 0.41107 0.0
C214 C 0.31375 0.51617 0.4296 0.0
C215 C 0.28893 0.5279 0.42324 0.0
C216 C 0.28943 0.55447 0.41503 0.0
C217 C 0.33828 0.53013 0.42582 0.0
N218 N 0.33842 0.55505 0.41589 0.0
H219 H 0.31369 0.58602 0.40221 0.0
H220 H 0.3572 0.51971 0.42913 0.0
H221 H 0.34051 0.52709 0.37055 0.0
H222 H 0.41255 0.51851 0.40611 0.0
O223 O 0.35476 0.57976 0.37479 0.0
O224 O 0.39884 0.58273 0.38231 0.0
O225 O 0.39624 0.55844 0.42606 0.0
C226 C 0.37924 0.58617 0.36848 0.0
H227 H 0.37752 0.65796 0.44411 0.0
H228 H 0.35687 0.47576 0.36751 0.0
H229 H 0.31446 0.49559 0.43587 0.0
H230 H 0.27081 0.56464 0.41022 0.0
Co231 Co 0.9565 0.37108 0.40027 0.0
C232 C 0.90097 0.34738 0.40669 0.0
C233 C 0.90465 0.38638 0.42171 0.0
C234 C 0.87842 0.3769 0.42476 0.0
N235 N 0.91914 0.3675 0.41088 0.0
N236 N 0.87612 0.35231 0.41527 0.0
H237 H 0.90529 0.32986 0.39696 0.0
H238 H 0.91225 0.40614 0.42652 0.0
C239 C 0.96244 0.39606 0.44495 0.0
O240 O 0.94988 0.37542 0.4541 0.0
N241 N 0.9934 0.3746 0.38951 0.0
C242 C 1.00661 0.35605 0.37743 0.0
C243 C 0.0338 0.36298 0.37651 0.0
C244 C 0.01266 0.3927 0.39558 0.0
N245 N 0.03759 0.38594 0.38804 0.0
C246 C 0.95926 0.31373 0.40757 0.0
C247 C 1.00262 0.31448 0.43575 0.0
C248 C 0.99359 0.28935 0.42766 0.0
C249 C 0.97115 0.28925 0.41384 0.0
C250 C 0.98973 0.33866 0.42931 0.0
N251 N 0.9682 0.33816 0.41533 0.0
H252 H 0.94467 0.31285 0.39479 0.0
H253 H 0.99864 0.35777 0.43422 0.0
H254 H 0.99741 0.33788 0.37079 0.0
H255 H 1.00899 0.40951 0.40638 0.0
O256 O 0.94554 0.35481 0.37333 0.0
O257 O 0.94457 0.39901 0.3805 0.0
O258 O 0.96633 0.3963 0.4247 0.0
C259 C 0.94046 0.37946 0.36678 0.0
H260 H 0.86207 0.38775 0.43269 0.0
H261 H 0.04968 0.3515 0.36854 0.0
H262 H 0.02028 0.31557 0.44612 0.0
H263 H 0.96422 0.27056 0.40637 0.0
Co264 Co 0.37182 0.95558 0.8998 0.0
C265 C 0.34608 0.90093 0.90774 0.0
C266 C 0.38711 0.90293 0.91926 0.0
C267 C 0.37721 0.877 0.92285 0.0
N268 N 0.36741 0.91823 0.91018 0.0
N269 N 0.35132 0.87577 0.91563 0.0
H270 H 0.3276 0.90583 0.89933 0.0
H271 H 0.40758 0.90992 0.92264 0.0
C272 C 0.39673 0.95949 0.94456 0.0
O273 O 0.37596 0.94668 0.95332 0.0
N274 N 0.37644 0.99257 0.88943 0.0
C275 C 0.35865 1.00658 0.87721 0.0
C276 C 0.36652 0.03356 0.87669 0.0
C277 C 0.39492 1.01115 0.89607 0.0
N278 N 0.3892 0.03645 0.88873 0.0
C279 C 0.31452 0.96004 0.9065 0.0
C280 C 0.31604 1.00207 0.93587 0.0
C281 C 0.29078 0.99404 0.92738 0.0
C282 C 0.29028 0.97229 0.9129 0.0
C283 C 0.33997 0.98882 0.92928 0.0
N284 N 0.33907 0.9679 0.91477 0.0
H285 H 0.31344 0.94598 0.89334 0.0
H286 H 0.35925 0.99695 0.9346 0.0
H287 H 0.34032 0.99812 0.87025 0.0
H288 H 0.41172 1.00651 0.90663 0.0
O289 O 0.35546 0.9455 0.8727 0.0
O290 O 0.39955 0.9431 0.87998 0.0
O291 O 0.39704 0.96434 0.92444 0.0
C292 C 0.37996 0.9398 0.86615 0.0
H293 H 0.38834 0.86036 0.93013 0.0
H294 H 0.35541 0.05 0.8691 0.0
H295 H 0.31744 0.01922 0.94674 0.0
H296 H 0.2715 0.96619 0.90513 0.0
Co297 Co 0.5682 0.37171 0.90209 0.0
C298 C 0.62454 0.34865 0.9064 0.0
C299 C 0.61796 0.38139 0.92839 0.0
C300 C 0.64405 0.37166 0.93121 0.0
N301 N 0.60519 0.36635 0.91332 0.0
N302 N 0.64817 0.35084 0.91748 0.0
H303 H 0.6217 0.33475 0.89319 0.0
H304 H 0.60954 0.39892 0.93642 0.0
C305 C 0.55766 0.39391 0.9472 0.0
O306 O 0.56519 0.37096 0.95631 0.0
N307 N 0.53184 0.3775 0.8907 0.0
C308 C 0.51813 0.36074 0.87739 0.0
C309 C 0.4915 0.36952 0.87597 0.0
C310 C 0.51345 0.39633 0.89701 0.0
N311 N 0.48855 0.39173 0.88852 0.0
C312 C 0.56645 0.31463 0.91087 0.0
C313 C 0.51609 0.3141 0.93069 0.0
C314 C 0.52745 0.28933 0.92382 0.0
C315 C 0.55362 0.28985 0.91488 0.0
C316 C 0.53004 0.33865 0.92679 0.0
N317 N 0.55463 0.33881 0.91633 0.0
H318 H 0.58467 0.31408 0.90145 0.0
H319 H 0.5199 0.35758 0.93055 0.0
H320 H 0.52646 0.34247 0.87025 0.0
H321 H 0.5178 0.41252 0.90823 0.0
O322 O 0.57884 0.35542 0.87516 0.0
O323 O 0.58214 0.3994 0.88284 0.0
O324 O 0.5586 0.39653 0.92683 0.0
C325 C 0.5853 0.37989 0.8689 0.0
H326 H 0.659 0.37985 0.94221 0.0
H327 H 0.4752 0.35933 0.86745 0.0
H328 H 0.49581 0.31475 0.93756 0.0
H329 H 0.56348 0.27127 0.90961 0.0
Co330 Co 0.15114 0.56439 0.89902 0.0
C331 C 0.17719 0.61818 0.90891 0.0
C332 C 0.13536 0.61664 0.91869 0.0
C333 C 0.1453 0.64247 0.92264 0.0
N334 N 0.15547 0.60119 0.91036 0.0
N335 N 0.17166 0.64342 0.91647 0.0
H336 H 0.19624 0.61296 0.90145 0.0
H337 H 0.11462 0.60981 0.9212 0.0
C338 C 0.12716 0.55918 0.94412 0.0
O339 O 0.1471 0.57337 0.95269 0.0
N340 N 0.14672 0.52791 0.88765 0.0
C341 C 0.16371 0.51521 0.87392 0.0
C342 C 0.15639 0.48813 0.87266 0.0
C343 C 0.12922 0.50843 0.89443 0.0
N344 N 0.13478 0.48387 0.88568 0.0
C345 C 0.20866 0.55915 0.90249 0.0
C346 C 0.20923 0.51705 0.93194 0.0
C347 C 0.23331 0.5238 0.92104 0.0
C348 C 0.23298 0.54566 0.90672 0.0
C349 C 0.18506 0.53117 0.92719 0.0
N350 N 0.18489 0.55192 0.91244 0.0
H351 H 0.20881 0.57373 0.88959 0.0
H352 H 0.16629 0.52366 0.93399 0.0
H353 H 0.18108 0.52465 0.86619 0.0
H354 H 0.11373 0.51167 0.90646 0.0
O355 O 0.16588 0.5764 0.8718 0.0
O356 O 0.12214 0.5772 0.88046 0.0
O357 O 0.1272 0.5539 0.92408 0.0
C358 C 0.14097 0.58178 0.86618 0.0
H359 H 0.13383 0.65928 0.9293 0.0
H360 H 0.16671 0.47266 0.86333 0.0
H361 H 0.20864 0.49974 0.94274 0.0
H362 H 0.25111 0.55115 0.89772 0.0
Co363 Co 0.95969 0.15036 0.90062 0.0
C364 C 0.90461 0.17558 0.90657 0.0
C365 C 0.90795 0.13749 0.92309 0.0
C366 C 0.88197 0.1475 0.92605 0.0
N367 N 0.92256 0.15549 0.91139 0.0
N368 N 0.87986 0.17155 0.91567 0.0
H369 H 0.909 0.19233 0.89598 0.0
H370 H 0.91522 0.11788 0.9285 0.0
C371 C 0.96581 0.1263 0.9456 0.0
O372 O 0.95492 0.14794 0.95458 0.0
N373 N 0.99635 0.14509 0.88972 0.0
C374 C 1.01008 0.16243 0.87686 0.0
C375 C 0.03697 0.15441 0.87594 0.0
C376 C 0.01501 0.12664 0.89628 0.0
N377 N 0.04007 0.13202 0.8883 0.0
C378 C 0.96414 0.20758 0.90803 0.0
C379 C 1.00916 0.20562 0.93452 0.0
C380 C 1.00032 0.231 0.9268 0.0
C381 C 0.97705 0.23173 0.91386 0.0
C382 C 0.99525 0.1818 0.92856 0.0
N383 N 0.97297 0.1829 0.91536 0.0
H384 H 0.94875 0.20888 0.89588 0.0
H385 H 1.00384 0.16244 0.9332 0.0
H386 H 1.00152 0.18055 0.86963 0.0
H387 H 1.01085 0.11065 0.90775 0.0
O388 O 0.94945 0.1669 0.87363 0.0
O389 O 0.94627 0.12285 0.88108 0.0
O390 O 0.96861 0.1251 0.92526 0.0
C391 C 0.94317 0.14248 0.86722 0.0
H392 H 0.86563 0.1373 0.93455 0.0
H393 H 0.05311 0.16485 0.86738 0.0
H394 H 0.02737 0.20405 0.94425 0.0
H395 H 0.97013 0.25065 0.90673 0.0
Co396 Co 0.87045 0.06652 0.61337 0.0
C397 C 0.84465 0.12102 0.60495 0.0
C398 C 0.88658 0.11968 0.59546 0.0
C399 C 0.87689 0.1457 0.59205 0.0
N400 N 0.86626 0.10397 0.60326 0.0
N401 N 0.85046 0.14651 0.59801 0.0
H402 H 0.82544 0.11569 0.61213 0.0
H403 H 0.90729 0.11285 0.59291 0.0
C404 C 0.8947 0.06374 0.56829 0.0
O405 O 0.87453 0.0779 0.56006 0.0
N406 N 0.87499 0.02945 0.62345 0.0
C407 C 0.85741 0.0152 0.63574 0.0
C408 C 0.86579 0.98838 0.63643 0.0
C409 C 0.89383 1.01121 0.61694 0.0
N410 N 0.88857 0.98589 0.62442 0.0
C411 C 0.81295 0.06233 0.60815 0.0
C412 C 0.81288 0.02178 0.5775 0.0
C413 C 0.78802 0.02988 0.58666 0.0
C414 C 0.78833 0.05079 0.60186 0.0
C415 C 0.83724 0.03444 0.58395 0.0
N416 N 0.83709 0.05469 0.59904 0.0
H417 H 0.81251 0.07589 0.62169 0.0
H418 H 0.85623 0.02644 0.57791 0.0
H419 H 0.83901 0.02341 0.64279 0.0
H420 H 0.91069 0.01613 0.60648 0.0
O421 O 0.85509 0.07659 0.64083 0.0
O422 O 0.89896 0.07856 0.63266 0.0
O423 O 0.89479 0.05769 0.58821 0.0
C424 C 0.87984 0.08203 0.64689 0.0
H425 H 0.88852 0.16273 0.58582 0.0
H426 H 0.85509 0.97177 0.64421 0.0
H427 H 0.81361 1.00517 0.56609 0.0
H428 H 0.76985 0.05684 0.61012 0.0
Co429 Co 0.45688 0.87111 0.61184 0.0
C430 C 0.40187 0.84534 0.60581 0.0
C431 C 0.4054 0.88317 0.58895 0.0
C432 C 0.37958 0.87289 0.58569 0.0
N433 N 0.41983 0.8655 0.60103 0.0
N434 N 0.37736 0.849 0.59627 0.0
H435 H 0.40606 0.82875 0.61661 0.0
H436 H 0.41268 0.90275 0.5834 0.0
C437 C 0.46334 0.89487 0.56672 0.0
O438 O 0.45312 0.87291 0.55771 0.0
N439 N 0.49342 0.87705 0.62268 0.0
C440 C 0.50794 0.85973 0.63497 0.0
C441 C 0.5345 0.8689 0.63597 0.0
C442 C 0.51124 0.89655 0.61654 0.0
N443 N 0.53658 0.89191 0.62419 0.0
C444 C 0.46152 0.8139 0.60446 0.0
C445 C 0.50683 0.81596 0.57821 0.0
C446 C 0.49775 0.79053 0.58572 0.0
C447 C 0.47437 0.78975 0.59856 0.0
C448 C 0.49296 0.83977 0.58421 0.0
N449 N 0.47049 0.83861 0.59725 0.0
H450 H 0.44598 0.81257 0.61652 0.0
H451 H 0.50164 0.85917 0.57969 0.0
H452 H 0.50018 0.8409 0.64165 0.0
H453 H 0.50607 0.91334 0.60609 0.0
O454 O 0.44675 0.85465 0.63892 0.0
O455 O 0.44309 0.89859 0.63124 0.0
O456 O 0.46566 0.8963 0.58708 0.0
C457 C 0.44015 0.87904 0.6452 0.0
H458 H 0.36343 0.88277 0.5768 0.0
H459 H 0.55128 0.85849 0.6437 0.0
H460 H 0.52516 0.81755 0.56858 0.0
H461 H 0.46727 0.77078 0.60554 0.0
Co462 Co 0.65019 0.4579 0.61402 0.0
C463 C 0.67527 0.40292 0.60698 0.0
C464 C 0.6362 0.40626 0.59202 0.0
C465 C 0.64607 0.38032 0.5886 0.0
N466 N 0.65484 0.42083 0.60307 0.0
N467 N 0.67076 0.37827 0.59796 0.0
H468 H 0.69234 0.40694 0.61734 0.0
H469 H 0.61636 0.41363 0.58723 0.0
C470 C 0.62582 0.46403 0.56929 0.0
O471 O 0.64734 0.45283 0.56034 0.0
N472 N 0.64539 0.49453 0.62507 0.0
C473 C 0.66276 0.50776 0.63817 0.0
C474 C 0.65516 0.53474 0.63928 0.0
C475 C 0.62736 0.51361 0.61851 0.0
N476 N 0.63302 0.53845 0.62677 0.0
C477 C 0.70737 0.46196 0.60615 0.0
C478 C 0.70551 0.5067 0.5793 0.0
C479 C 0.73092 0.49746 0.58663 0.0
C480 C 0.73158 0.47438 0.5998 0.0
C481 C 0.68161 0.49321 0.58572 0.0
N482 N 0.68267 0.47099 0.59902 0.0
H483 H 0.70868 0.44673 0.61845 0.0
H484 H 0.66227 0.502 0.58126 0.0
H485 H 0.68061 0.49879 0.64549 0.0
H486 H 0.61146 0.5099 0.60689 0.0
O487 O 0.66699 0.44724 0.64081 0.0
O488 O 0.62281 0.44454 0.63382 0.0
O489 O 0.62473 0.46714 0.58961 0.0
C490 C 0.64261 0.4411 0.64745 0.0
H491 H 0.63572 0.36421 0.57999 0.0
H492 H 0.6657 0.55054 0.64811 0.0
H493 H 0.70404 0.52485 0.56946 0.0
H494 H 0.75057 0.46724 0.60666 0.0
Co495 Co 0.06316 0.65216 0.61227 0.0
C496 C 0.1187 0.67633 0.60579 0.0
C497 C 0.11476 0.6376 0.59038 0.0
C498 C 0.14091 0.64711 0.58715 0.0
N499 N 0.10044 0.65628 0.60155 0.0
N500 N 0.14338 0.67154 0.59686 0.0
H501 H 0.11457 0.6937 0.61576 0.0
H502 H 0.1071 0.61791 0.58544 0.0
C503 C 0.05702 0.62817 0.56725 0.0
O504 O 0.06906 0.64924 0.55827 0.0
N505 N 0.02636 0.64785 0.62308 0.0
C506 C 0.01281 0.66553 0.63571 0.0
C507 C 0.98592 0.65747 0.63699 0.0
C508 C 1.00763 0.62923 0.617 0.0
N509 N 0.98265 0.63472 0.62508 0.0
C510 C 0.0601 0.70959 0.6055 0.0
C511 C 0.01617 0.70916 0.57785 0.0
C512 C 0.02549 0.73421 0.58588 0.0
C513 C 0.04815 0.73415 0.59948 0.0
C514 C 0.02916 0.68489 0.584 0.0
N515 N 0.05099 0.68525 0.59768 0.0
H516 H 0.07497 0.71032 0.61808 0.0
H517 H 0.02021 0.66582 0.57905 0.0
H518 H 0.02156 0.68372 0.64267 0.0
H519 H 1.01177 0.61283 0.60594 0.0
O520 O 0.07401 0.66805 0.63935 0.0
O521 O 0.07549 0.624 0.63168 0.0
O522 O 0.0535 0.62737 0.58753 0.0
C523 C 0.07935 0.64334 0.64563 0.0
H524 H 0.1571 0.63639 0.57891 0.0
H525 H 0.96994 0.66801 0.6456 0.0
H526 H 0.99833 0.70821 0.56765 0.0
H527 H 0.05531 0.75279 0.60689 0.0
H528 H 0.58197 0.97799 0.11407 0.0
H529 H 0.561 0.93429 0.10474 0.0
H530 H 0.63583 0.89283 0.12045 0.0
H531 H 0.65698 0.93628 0.12967 0.0
H532 H 0.57706 0.89592 0.07377 0.0
H533 H 0.57912 0.85106 0.15557 0.0
H534 H 0.58442 0.88696 0.15069 0.0
H535 H 0.61164 0.86309 0.14626 0.0
C536 C 0.594 0.9596 0.11554 0.0
C537 C 0.62115 0.96074 0.12282 0.0
C538 C 0.58195 0.93462 0.11023 0.0
C539 C 0.59672 0.91025 0.11218 0.0
C540 C 0.62384 0.9113 0.11928 0.0
H541 H 0.55526 0.73918 0.09455 0.0
H542 H 0.58024 0.78225 0.09742 0.0
C543 C 0.63589 0.93623 0.12462 0.0
C544 C 0.58391 0.88375 0.10653 0.0
H545 H 0.56644 0.82163 0.12721 0.0
C546 C 0.57467 0.87968 0.08545 0.0
C547 C 0.58087 0.86257 0.12178 0.0
C548 C 0.58929 0.86612 0.14489 0.0
C549 C 0.56275 0.85485 0.07915 0.0
C550 C 0.55966 0.83371 0.09442 0.0
C551 C 0.56902 0.83777 0.11546 0.0
C552 C 0.54566 0.80761 0.08936 0.0
C553 C 0.55395 0.85135 0.05614 0.0
C554 C 0.51808 0.8075 0.08336 0.0
C555 C 0.50381 0.78292 0.08156 0.0
C556 C 0.51677 0.75791 0.08586 0.0
C557 C 0.54475 0.75801 0.09082 0.0
C558 C 0.55901 0.78263 0.09266 0.0
H559 H 0.56469 0.86583 0.04532 0.0
H560 H 0.55779 0.83024 0.05048 0.0
H561 H 0.53175 0.85541 0.05489 0.0
H562 H 0.50721 0.82649 0.08109 0.0
H563 H 0.4823 0.78352 0.07765 0.0
H564 H 0.78516 0.55226 0.08745 0.0
H565 H 0.74261 0.57813 0.09016 0.0
H566 H 0.69641 0.50401 0.08217 0.0
H567 H 0.73884 0.4781 0.07892 0.0
H568 H 0.6733 0.5505 0.06115 0.0
H569 H 0.69895 0.57047 0.14659 0.0
H570 H 0.72414 0.58136 0.12745 0.0
H571 H 0.71695 0.54566 0.13062 0.0
C572 C 0.76596 0.54159 0.08557 0.0
C573 C 0.76536 0.51308 0.08316 0.0
C574 C 0.74166 0.55636 0.08739 0.0
C575 C 0.71639 0.54288 0.08687 0.0
C576 C 0.7157 0.51477 0.08281 0.0
H577 H 0.54696 0.58129 0.11425 0.0
H578 H 0.58978 0.55989 0.10326 0.0
C579 C 0.73995 0.5 0.08101 0.0
C580 C 0.69083 0.5575 0.0923 0.0
H581 H 0.65818 0.58962 0.13356 0.0
C582 C 0.66998 0.55915 0.07694 0.0
C583 C 0.6865 0.56857 0.11299 0.0
C584 C 0.70767 0.5663 0.13047 0.0
C585 C 0.64501 0.57192 0.08164 0.0
C586 C 0.64064 0.58282 0.10239 0.0
C587 C 0.66158 0.58129 0.11767 0.0
C588 C 0.6145 0.5958 0.10872 0.0
C589 C 0.62372 0.57398 0.06426 0.0
C590 C 0.61424 0.62283 0.11606 0.0
C591 C 0.58983 0.63506 0.12248 0.0
C592 C 0.56511 0.62047 0.12181 0.0
C593 C 0.56551 0.59324 0.11469 0.0
C594 C 0.58997 0.58101 0.10831 0.0
H595 H 0.6328 0.57156 0.04804 0.0
H596 H 0.60841 0.55755 0.06652 0.0
H597 H 0.61296 0.59388 0.06496 0.0
H598 H 0.63294 0.63459 0.11661 0.0
H599 H 0.59031 0.65613 0.12755 0.0
H600 H 0.9724 0.78211 0.09273 0.0
H601 H 0.94818 0.73855 0.09573 0.0
H602 H 0.02164 0.69571 0.07832 0.0
H603 H 0.046 0.73915 0.07535 0.0
H604 H 0.93951 0.69267 0.0682 0.0
H605 H 1.00361 0.66694 0.13883 0.0
H606 H 1.00237 0.7008 0.12752 0.0
H607 H 0.02237 0.67471 0.11482 0.0
C608 C 0.98319 0.76347 0.08893 0.0
C609 C 1.01118 0.76404 0.08398 0.0
C610 C 0.96937 0.73858 0.0908 0.0
C611 C 0.98329 0.7139 0.08774 0.0
C612 C 1.01068 0.71451 0.08122 0.0
H613 H 0.94188 0.54423 0.11238 0.0
H614 H 0.96413 0.58688 0.10194 0.0
C615 C 0.02453 0.73933 0.07944 0.0
C616 C 0.96978 0.68758 0.09285 0.0
H617 H 0.97291 0.63307 0.12694 0.0
C618 C 0.94677 0.67962 0.08104 0.0
C619 C 0.97925 0.67065 0.10968 0.0
C620 C 1.0031 0.67873 0.1236 0.0
C621 C 0.93323 0.65492 0.08539 0.0
C622 C 0.9427 0.63803 0.10224 0.0
C623 C 0.96575 0.646 0.114 0.0
C624 C 0.92887 0.61215 0.10818 0.0
C625 C 0.90921 0.64688 0.07168 0.0
C626 C 0.9018 0.61222 0.11548 0.0
C627 C 0.88899 0.58785 0.12141 0.0
C628 C 0.90303 0.56287 0.12026 0.0
C629 C 0.93031 0.56298 0.11321 0.0
C630 C 0.94311 0.58737 0.10731 0.0
H631 H 0.90904 0.65811 0.05618 0.0
H632 H 0.90935 0.62466 0.06831 0.0
H633 H 0.89006 0.65178 0.08034 0.0
H634 H 0.89059 0.63117 0.1167 0.0
H635 H 0.86793 0.5886 0.12655 0.0
H636 H 0.97629 0.91839 0.08956 0.0
H637 H 0.93363 0.94081 0.07979 0.0
H638 H 0.89712 0.9135 0.13899 0.0
H639 H 0.93983 0.89106 0.14897 0.0
H640 H 0.86379 0.90536 0.10275 0.0
H641 H 0.90398 1.01133 0.10607 0.0
H642 H 0.92256 0.98847 0.08897 0.0
H643 H 0.92211 0.98276 0.11744 0.0
C644 C 0.95937 0.91746 0.10069 0.0
C645 C 0.96162 0.9031 0.1202 0.0
C646 C 0.93493 0.93022 0.09501 0.0
C647 C 0.91229 0.92907 0.10876 0.0
C648 C 0.91435 0.91462 0.12814 0.0
H649 H 0.77074 0.02599 0.12282 0.0
H650 H 0.81369 1.0014 0.12436 0.0
C651 C 0.93877 0.90179 0.13382 0.0
C652 C 0.88642 0.94299 0.10306 0.0
H653 H 0.85836 1.00586 0.09503 0.0
C654 C 0.86259 0.92732 0.10091 0.0
C655 C 0.88495 0.97165 0.10073 0.0
C656 C 0.90967 0.98964 0.10358 0.0
C657 C 0.83722 0.93959 0.09685 0.0
C658 C 0.83573 0.96825 0.09473 0.0
C659 C 0.85964 0.98386 0.09646 0.0
C660 C 0.8093 0.98276 0.09315 0.0
C661 C 0.81201 0.922 0.09573 0.0
C662 C 0.79243 0.98041 0.07502 0.0
C663 C 0.76771 0.99477 0.07396 0.0
C664 C 0.75966 0.01182 0.09097 0.0
C665 C 0.77658 0.0137 0.10915 0.0
C666 C 0.80111 0.99949 0.11015 0.0
H667 H 0.81609 0.90065 0.10074 0.0
H668 H 0.79568 0.9305 0.1061 0.0
H669 H 0.80429 0.92175 0.079 0.0
H670 H 0.79853 0.96775 0.06163 0.0
H671 H 0.75515 0.9929 0.05976 0.0
H672 H 0.04897 0.28276 0.42599 0.0
H673 H 0.07393 0.23976 0.4231 0.0
H674 H 0.99901 0.19501 0.43177 0.0
H675 H 0.97399 0.23792 0.43532 0.0
H676 H 0.04488 0.17055 0.45204 0.0
H677 H 0.06506 0.19691 0.36675 0.0
H678 H 0.07679 0.22172 0.3858 0.0
H679 H 0.04087 0.21535 0.383 0.0
C680 C 0.03791 0.2638 0.42799 0.0
C681 C 1.00943 0.26377 0.43067 0.0
C682 C 0.05217 0.23923 0.42607 0.0
C683 C 0.0382 0.21423 0.42669 0.0
C684 C 1.01014 0.21408 0.43103 0.0
H685 H 0.07744 0.04469 0.39861 0.0
H686 H 0.05523 0.08709 0.40953 0.0
C687 C 0.99587 0.23862 0.43299 0.0
C688 C 0.05229 0.18845 0.42103 0.0
H689 H 0.08456 0.15618 0.37967 0.0
C690 C 0.05361 0.16737 0.43625 0.0
C691 C 0.0634 0.18428 0.40033 0.0
C692 C 0.06131 0.20562 0.38293 0.0
C693 C 0.06627 0.14238 0.43143 0.0
C694 C 0.07746 0.13829 0.41073 0.0
C695 C 0.07608 0.15939 0.39555 0.0
C696 C 0.09085 0.11237 0.40437 0.0
C697 C 0.06794 0.1208 0.44865 0.0
C698 C 0.11798 0.11256 0.39719 0.0
C699 C 0.13066 0.0884 0.39078 0.0
C700 C 0.11644 0.06347 0.39134 0.0
C701 C 0.08911 0.06342 0.39826 0.0
C702 C 0.07641 0.08764 0.40462 0.0
H703 H 0.06513 0.12958 0.46493 0.0
H704 H 0.05155 0.10555 0.44604 0.0
H705 H 0.08784 0.11004 0.44811 0.0
H706 H 0.12947 0.13143 0.39677 0.0
H707 H 0.1518 0.08923 0.38587 0.0
H708 H 0.23865 0.0545 0.41673 0.0
H709 H 0.28231 0.0783 0.41282 0.0
H710 H 0.32492 1.00563 0.43242 0.0
H711 H 0.28138 0.98176 0.43667 0.0
H712 H 0.32959 0.08644 0.44159 0.0
H713 H 0.35174 0.02288 0.36985 0.0
H714 H 0.31798 0.02572 0.38122 0.0
H715 H 0.34306 1.00446 0.39387 0.0
C716 C 0.25724 0.0438 0.42084 0.0
C717 C 0.25653 0.01613 0.42684 0.0
C718 C 0.28218 0.0574 0.41845 0.0
C719 C 0.30681 0.04355 0.42194 0.0
C720 C 0.30613 0.01652 0.4293 0.0
H721 H 0.47291 0.10584 0.4217 0.0
H722 H 0.42937 0.08454 0.43085 0.0
C723 C 0.28124 1.00294 0.43173 0.0
C724 C 0.33316 0.05667 0.41644 0.0
H725 H 0.38647 0.05297 0.38123 0.0
C726 C 0.34208 0.07915 0.42843 0.0
C727 C 0.34917 0.04731 0.39904 0.0
C728 C 0.34001 0.02391 0.38509 0.0
C729 C 0.36688 0.09227 0.42368 0.0
C730 C 0.38318 0.0825 0.40659 0.0
C731 C 0.37403 0.06028 0.39441 0.0
C732 C 0.40973 0.09518 0.40094 0.0
C733 C 0.37528 0.11673 0.43676 0.0
C734 C 0.41338 0.1076 0.38084 0.0
C735 C 0.43836 0.11963 0.37546 0.0
C736 C 0.46028 0.11921 0.38999 0.0
C737 C 0.45664 0.10629 0.40999 0.0
C738 C 0.43162 0.09439 0.41539 0.0
H739 H 0.35788 0.12537 0.44592 0.0
H740 H 0.39123 0.11054 0.4484 0.0
H741 H 0.38397 0.1329 0.4263 0.0
H742 H 0.39679 0.10821 0.36939 0.0
H743 H 0.44057 0.12916 0.35989 0.0
H744 H 0.4914 0.25553 0.45178 0.0
H745 H 0.46655 0.29911 0.45014 0.0
H746 H 0.4992 0.31396 0.38695 0.0
H747 H 0.52346 0.2708 0.38826 0.0
H748 H 0.50508 0.3584 0.41674 0.0
H749 H 0.39904 0.31812 0.41146 0.0
H750 H 0.42036 0.30547 0.43277 0.0
H751 H 0.42845 0.29732 0.40546 0.0
C752 C 0.49308 0.26805 0.43752 0.0
C753 C 0.50981 0.25988 0.42033 0.0
C754 C 0.4789 0.29289 0.43659 0.0
C755 C 0.48112 0.30975 0.41842 0.0
C756 C 0.49741 0.30139 0.40119 0.0
H757 H 0.39229 0.44291 0.36348 0.0
H758 H 0.41395 0.39966 0.37308 0.0
C759 C 0.51143 0.27674 0.40207 0.0
C760 C 0.46706 0.33645 0.41705 0.0
H761 H 0.40465 0.36572 0.40939 0.0
C762 C 0.48309 0.36009 0.41541 0.0
C763 C 0.43843 0.33847 0.41505 0.0
C764 C 0.42042 0.31356 0.41613 0.0
C765 C 0.47132 0.38566 0.41134 0.0
C766 C 0.44269 0.38767 0.4091 0.0
C767 C 0.42659 0.3641 0.41117 0.0
C768 C 0.42924 0.41387 0.40363 0.0
C769 C 0.48971 0.41012 0.40861 0.0
C770 C 0.43052 0.43615 0.41767 0.0
C771 C 0.41817 0.4609 0.41223 0.0
C772 C 0.40414 0.46383 0.39265 0.0
C773 C 0.40276 0.44134 0.37871 0.0
C774 C 0.41514 0.41661 0.38417 0.0
H775 H 0.51135 0.40413 0.40621 0.0
H776 H 0.48315 0.42271 0.39473 0.0
H777 H 0.48857 0.42297 0.42322 0.0
H778 H 0.44088 0.43434 0.43295 0.0
H779 H 0.41916 0.4775 0.42361 0.0
H780 H 0.08675 0.36123 0.39193 0.0
H781 H 0.13005 0.38253 0.40163 0.0
H782 H 0.09013 0.46065 0.40607 0.0
H783 H 0.04662 0.4393 0.39668 0.0
H784 H 0.15845 0.42026 0.38119 0.0
H785 H 0.13183 0.45985 0.46159 0.0
H786 H 0.11051 0.43584 0.44745 0.0
H787 H 0.10874 0.47169 0.44134 0.0
C788 C 0.08718 0.38296 0.39489 0.0
C789 C 0.06323 0.3986 0.39348 0.0
C790 C 0.11194 0.39509 0.4006 0.0
C791 C 0.11333 0.42312 0.40499 0.0
C792 C 0.08948 0.43885 0.4034 0.0
H793 H 0.25061 0.52818 0.39157 0.0
H794 H 0.20905 0.50147 0.38911 0.0
C795 C 0.06464 0.42668 0.39788 0.0
C796 C 0.14 0.4361 0.40998 0.0
H797 H 0.17241 0.47826 0.44541 0.0
C798 C 0.16154 0.43268 0.39537 0.0
C799 C 0.14431 0.45192 0.42868 0.0
C800 C 0.1227 0.45482 0.44577 0.0
C801 C 0.18681 0.4455 0.39848 0.0
C802 C 0.19051 0.46276 0.41642 0.0
C803 C 0.16944 0.46528 0.43153 0.0
C804 C 0.21543 0.47969 0.41886 0.0
C805 C 0.2093 0.44051 0.38241 0.0
C806 C 0.23247 0.47706 0.43686 0.0
C807 C 0.25629 0.49282 0.43857 0.0
C808 C 0.26323 0.51167 0.4224 0.0
C809 C 0.24576 0.51437 0.40459 0.0
C810 C 0.2221 0.49876 0.40296 0.0
H811 H 0.20646 0.42077 0.37396 0.0
H812 H 0.20904 0.45694 0.37016 0.0
H813 H 0.22963 0.44048 0.39026 0.0
H814 H 0.22755 0.46257 0.44941 0.0
H815 H 0.26918 0.49033 0.45252 0.0
H816 H 0.41851 0.04675 0.92492 0.0
H817 H 0.43985 0.0898 0.93516 0.0
H818 H 0.41117 0.12684 0.87664 0.0
H819 H 0.38991 0.08378 0.86615 0.0
H820 H 0.47976 0.11893 0.91433 0.0
H821 H 0.38621 0.18134 0.92209 0.0
H822 H 0.38539 0.14457 0.92076 0.0
H823 H 0.38881 0.16447 0.89664 0.0
C824 C 0.41687 0.06393 0.91409 0.0
C825 C 0.40242 0.06171 0.89465 0.0
C826 C 0.42893 0.08863 0.92009 0.0
C827 C 0.42666 0.11171 0.90689 0.0
C828 C 0.41256 0.10952 0.88737 0.0
H829 H 0.52544 0.25183 0.89169 0.0
H830 H 0.50086 0.20879 0.89078 0.0
C831 C 0.40049 0.08483 0.88135 0.0
C832 C 0.44012 0.13772 0.91301 0.0
H833 H 0.42856 0.20582 0.92027 0.0
C834 C 0.4685 0.13785 0.91589 0.0
C835 C 0.4254 0.16236 0.91541 0.0
C836 C 0.39473 0.16322 0.91378 0.0
C837 C 0.48269 0.16215 0.92003 0.0
C838 C 0.46817 0.18702 0.9211 0.0
C839 C 0.43966 0.18675 0.91929 0.0
C840 C 0.48259 0.21358 0.92211 0.0
C841 C 0.51323 0.1611 0.92286 0.0
C842 C 0.47988 0.23103 0.93986 0.0
C843 C 0.49424 0.25581 0.94056 0.0
C844 C 0.51142 0.26349 0.92347 0.0
C845 C 0.5132 0.24623 0.90548 0.0
C846 C 0.49903 0.22161 0.90485 0.0
H847 H 0.5202 0.14038 0.92753 0.0
H848 H 0.52323 0.16653 0.90746 0.0
H849 H 0.52007 0.17589 0.93522 0.0
H850 H 0.46703 0.22527 0.95326 0.0
H851 H 0.4923 0.26868 0.95458 0.0
H852 H 0.44384 0.39745 0.8635 0.0
H853 H 0.40037 0.41847 0.87346 0.0
H854 H 0.43227 0.43658 0.93632 0.0
H855 H 0.47577 0.41588 0.92639 0.0
H856 H 0.36499 0.40403 0.90536 0.0
H857 H 0.40184 0.50983 0.91872 0.0
H858 H 0.42234 0.48434 0.90552 0.0
H859 H 0.41916 0.48435 0.93426 0.0
C860 C 0.44161 0.40602 0.8794 0.0
C861 C 0.46335 0.40519 0.89406 0.0
C862 C 0.41678 0.41804 0.88508 0.0
C863 C 0.41314 0.42946 0.90555 0.0
C864 C 0.43477 0.42855 0.92026 0.0
H865 H 0.2659 0.51194 0.95567 0.0
H866 H 0.30938 0.48658 0.95508 0.0
C867 C 0.45968 0.4167 0.91454 0.0
C868 C 0.38642 0.44157 0.91154 0.0
H869 H 0.35551 0.50104 0.9265 0.0
C870 C 0.36296 0.42522 0.91007 0.0
C871 C 0.38378 0.46917 0.91787 0.0
C872 C 0.40805 0.48806 0.91904 0.0
C873 C 0.33694 0.43583 0.91431 0.0
C874 C 0.33424 0.46357 0.92002 0.0
C875 C 0.3577 0.47971 0.92226 0.0
C876 C 0.30719 0.47695 0.92124 0.0
C877 C 0.31242 0.4174 0.91235 0.0
C878 C 0.29169 0.47978 0.90249 0.0
C879 C 0.26726 0.49428 0.90279 0.0
C880 C 0.25776 0.50619 0.92186 0.0
C881 C 0.27279 0.50274 0.94084 0.0
C882 C 0.29756 0.48841 0.94048 0.0
H883 H 0.31818 0.39556 0.91368 0.0
H884 H 0.29703 0.42215 0.92488 0.0
H885 H 0.30282 0.42057 0.89643 0.0
H886 H 0.29891 0.47144 0.88744 0.0
H887 H 0.25599 0.49669 0.88797 0.0
H888 H 0.98243 0.28264 0.93566 0.0
H889 H 1.00828 0.3251 0.93196 0.0
H890 H 0.0815 0.27906 0.91978 0.0
H891 H 0.05566 0.23651 0.9229 0.0
H892 H 0.0559 0.34728 0.95153 0.0
H893 H 0.0711 0.32493 0.8649 0.0
H894 H 0.04716 0.30627 0.88132 0.0
H895 H 0.08301 0.29903 0.88301 0.0
C896 C 1.00413 0.28155 0.93251 0.0
C897 C 0.01692 0.2562 0.92935 0.0
C898 C 0.01887 0.30583 0.93045 0.0
C899 C 0.04666 0.30523 0.92513 0.0
C900 C 0.05995 0.27996 0.92351 0.0
H901 H 0.1578 0.43354 0.88365 0.0
H902 H 0.13709 0.39024 0.89418 0.0
C903 C 0.04521 0.25564 0.92557 0.0
C904 C 0.06111 0.33096 0.91976 0.0
H905 H 0.09116 0.36514 0.87819 0.0
C906 C 0.0637 0.35119 0.93553 0.0
C907 C 0.07111 0.33605 0.89882 0.0
C908 C 0.06781 0.31557 0.88094 0.0
C909 C 0.07631 0.37631 0.93097 0.0
C910 C 0.08609 0.38148 0.90997 0.0
C911 C 0.08369 0.36113 0.89428 0.0
C912 C 0.09859 0.40795 0.90379 0.0
C913 C 0.07938 0.39692 0.94875 0.0
C914 C 0.08367 0.43228 0.90528 0.0
C915 C 0.09541 0.4571 0.89914 0.0
C916 C 0.12228 0.4581 0.89121 0.0
C917 C 0.13699 0.43358 0.88941 0.0
C918 C 0.12524 0.40879 0.89559 0.0
H919 H 0.07788 0.38721 0.96483 0.0
H920 H 0.09922 0.40776 0.94757 0.0
H921 H 0.06283 0.41225 0.94747 0.0
H922 H 0.06281 0.43205 0.91101 0.0
H923 H 0.08332 0.47547 0.90042 0.0
H924 H 0.23909 0.975 0.93465 0.0
H925 H 0.19657 1.00084 0.93192 0.0
H926 H 0.24249 0.07534 0.92497 0.0
H927 H 0.28512 0.04956 0.92709 0.0
H928 H 0.17316 0.04639 0.9536 0.0
H929 H 0.19892 0.06941 0.8686 0.0
H930 H 0.2171 0.04425 0.88411 0.0
H931 H 0.22402 0.07991 0.88787 0.0
C932 C 0.24013 0.99695 0.93288 0.0
C933 C 0.26549 1.01018 0.93083 0.0
C934 C 0.21582 0.01169 0.93139 0.0
C935 C 0.2164 0.03991 0.92777 0.0
C936 C 0.24162 0.05349 0.92738 0.0
H937 H 0.09072 0.15446 0.88891 0.0
H938 H 0.13316 0.13245 0.89969 0.0
C939 C 0.26598 0.03876 0.92887 0.0
C940 C 0.19077 0.05459 0.92262 0.0
H941 H 0.1582 0.08821 0.88206 0.0
C942 C 0.16987 0.05562 0.938 0.0
C943 C 0.18647 0.06641 0.90217 0.0
C944 C 0.20767 0.06481 0.88463 0.0
C945 C 0.14489 0.06853 0.93357 0.0
C946 C 0.14058 0.08024 0.91308 0.0
C947 C 0.16156 0.07929 0.89777 0.0
C948 C 0.11449 0.09355 0.90702 0.0
C949 C 0.12355 0.06988 0.95099 0.0
C950 C 0.08987 0.0789 0.90722 0.0
C951 C 0.06551 0.09143 0.90095 0.0
C952 C 0.06531 0.1188 0.89415 0.0
C953 C 0.0901 0.13328 0.89374 0.0
C954 C 0.11439 0.12078 0.90007 0.0
H955 H 0.13261 0.06693 0.96716 0.0
H956 H 0.11269 0.08973 0.9507 0.0
H957 H 0.10834 0.05344 0.94842 0.0
H958 H 0.08953 0.05766 0.91197 0.0
H959 H 0.04689 0.07957 0.90119 0.0
H960 H 0.97031 0.74199 0.58856 0.0
H961 H 0.94625 0.78559 0.59088 0.0
H962 H 0.02175 0.82843 0.57963 0.0
H963 H 0.04591 0.78493 0.57719 0.0
H964 H 0.99515 0.84421 0.61705 0.0
H965 H 0.92402 0.84519 0.54784 0.0
H966 H 0.92282 0.81464 0.56376 0.0
H967 H 0.95329 0.82292 0.5491 0.0
C968 C 0.98163 0.76065 0.58583 0.0
C969 C 1.01004 0.76 0.58275 0.0
C970 C 0.96785 0.78559 0.58722 0.0
C971 C 0.98219 0.81028 0.58538 0.0
C972 C 1.01029 0.80963 0.58112 0.0
H973 H 0.91696 0.9754 0.58788 0.0
H974 H 0.94009 0.93298 0.57832 0.0
C975 C 0.02405 0.78476 0.57974 0.0
C976 C 0.96864 0.83665 0.59018 0.0
H977 H 0.9169 0.87894 0.57475 0.0
C978 C 0.97813 0.85187 0.60772 0.0
C979 C 0.94654 0.84667 0.57794 0.0
C980 C 0.93615 0.83167 0.55848 0.0
C981 C 0.96587 0.87661 0.61358 0.0
C982 C 0.94329 0.88626 0.60173 0.0
C983 C 0.93408 0.87135 0.58392 0.0
C984 C 0.92911 0.91191 0.60757 0.0
C985 C 0.97732 0.89237 0.6323 0.0
C986 C 0.91514 0.91408 0.62716 0.0
C987 C 0.90199 0.93837 0.63275 0.0
C988 C 0.90257 0.96098 0.61885 0.0
C989 C 0.9165 0.95862 0.59916 0.0
C990 C 0.92952 0.93429 0.59356 0.0
H991 H 0.99823 0.88552 0.63653 0.0
H992 H 0.97789 0.91454 0.62871 0.0
H993 H 0.96404 0.88924 0.64652 0.0
H994 H 0.91432 0.89694 0.63811 0.0
H995 H 0.89157 0.93952 0.64803 0.0
H996 H 0.77997 0.97467 0.5867 0.0
H997 H 0.73617 0.95074 0.58865 0.0
H998 H 0.6938 0.02714 0.58113 0.0
H999 H 0.73749 0.05115 0.57923 0.0
H1000 H 0.67841 0.99901 0.61739 0.0
H1001 H 0.67538 0.93097 0.5464 0.0
H1002 H 0.70615 0.9284 0.56188 0.0
H1003 H 0.69829 0.95973 0.54826 0.0
C1004 C 0.76133 0.98623 0.58469 0.0
C1005 C 0.76216 0.0148 0.58286 0.0
C1006 C 0.73629 0.97253 0.58586 0.0
C1007 C 0.71168 0.98714 0.58499 0.0
C1008 C 0.71252 0.01547 0.58186 0.0
H1009 H 0.54671 0.92088 0.58781 0.0
H1010 H 0.58891 0.94453 0.57825 0.0
C1011 C 0.73748 0.02915 0.58076 0.0
C1012 C 0.68529 0.97352 0.58979 0.0
H1013 H 0.64238 0.92254 0.57379 0.0
C1014 C 0.67046 0.9824 0.60776 0.0
C1015 C 0.67486 0.95196 0.57718 0.0
C1016 C 0.68933 0.94231 0.55723 0.0
C1017 C 0.64574 0.97004 0.61367 0.0
C1018 C 0.63573 0.94791 0.60147 0.0
C1019 C 0.65024 0.93934 0.58324 0.0
C1020 C 0.61015 0.93353 0.60738 0.0
C1021 C 0.63039 0.98096 0.63281 0.0
C1022 C 0.60811 0.91938 0.62691 0.0
C1023 C 0.58393 0.90598 0.63252 0.0
C1024 C 0.56128 0.90641 0.61869 0.0
C1025 C 0.56349 0.92053 0.59906 0.0
C1026 C 0.58772 0.93385 0.59345 0.0
H1027 H 0.63715 1.00187 0.63712 0.0
H1028 H 0.6081 0.98133 0.62968 0.0
H1029 H 0.63409 0.9675 0.64683 0.0
H1030 H 0.62531 0.91858 0.63778 0.0
H1031 H 0.58291 0.8954 0.64774 0.0
H1032 H 0.65613 0.5888 0.62715 0.0
H1033 H 0.63482 0.63185 0.61708 0.0
H1034 H 0.55977 0.58965 0.60308 0.0
H1035 H 0.58097 0.54633 0.61321 0.0
H1036 H 0.57471 0.62741 0.57137 0.0
H1037 H 0.57904 0.67411 0.65236 0.0
H1038 H 0.61137 0.66216 0.64269 0.0
H1039 H 0.58443 0.63816 0.64796 0.0
C1040 C 0.63498 0.58862 0.62226 0.0
C1041 C 0.62021 0.56403 0.62124 0.0
C1042 C 0.62283 0.61331 0.61644 0.0
C1043 C 0.59558 0.61405 0.60963 0.0
C1044 C 0.58082 0.58956 0.60834 0.0
H1045 H 0.47948 0.73924 0.57607 0.0
H1046 H 0.50483 0.69654 0.57924 0.0
C1047 C 0.59299 0.56481 0.61412 0.0
C1048 C 0.58256 0.64036 0.60378 0.0
H1049 H 0.56558 0.70287 0.62377 0.0
C1050 C 0.57265 0.64391 0.58282 0.0
C1051 C 0.57993 0.66188 0.61873 0.0
C1052 C 0.58901 0.6589 0.64175 0.0
C1053 C 0.56047 0.66853 0.57636 0.0
C1054 C 0.55782 0.69001 0.59133 0.0
C1055 C 0.56785 0.68648 0.61224 0.0
C1056 C 0.54351 0.71588 0.58617 0.0
C1057 C 0.55087 0.67146 0.55349 0.0
C1058 C 0.55684 0.74102 0.58876 0.0
C1059 C 0.54234 0.7655 0.58706 0.0
C1060 C 0.51415 0.76526 0.58296 0.0
C1061 C 0.50116 0.74009 0.5793 0.0
C1062 C 0.51568 0.71566 0.58095 0.0
H1063 H 0.56124 0.65674 0.54269 0.0
H1064 H 0.52863 0.66734 0.55279 0.0
H1065 H 0.55451 0.69244 0.5474 0.0
H1066 H 0.57828 0.74166 0.59292 0.0
H1067 H 0.55288 0.78448 0.59028 0.0
H1068 H 0.93134 0.65573 0.62638 0.0
H1069 H 0.88892 0.63259 0.61691 0.0
H1070 H 0.93397 0.55975 0.60156 0.0
H1071 H 0.9764 0.58235 0.61174 0.0
H1072 H 0.87357 0.60927 0.57775 0.0
H1073 H 0.87553 0.53181 0.64276 0.0
H1074 H 0.89716 0.5616 0.64297 0.0
H1075 H 0.90586 0.53271 0.62662 0.0
C1076 C 0.93228 0.63465 0.62136 0.0
C1077 C 0.95742 0.6209 0.62001 0.0
C1078 C 0.90798 0.62154 0.61573 0.0
C1079 C 0.90823 0.59436 0.60875 0.0
C1080 C 0.93323 0.5806 0.60723 0.0
H1081 H 0.78144 0.47825 0.57598 0.0
H1082 H 0.82478 0.50283 0.57834 0.0
C1083 C 0.95754 0.59367 0.61288 0.0
C1084 C 0.88235 0.58049 0.60293 0.0
H1085 H 0.84154 0.52661 0.61618 0.0
C1086 C 0.86651 0.59122 0.58616 0.0
C1087 C 0.87318 0.55696 0.61393 0.0
C1088 C 0.88865 0.54518 0.6327 0.0
C1089 C 0.84191 0.5788 0.5799 0.0
C1090 C 0.83278 0.55527 0.59091 0.0
C1091 C 0.84867 0.54454 0.60764 0.0
C1092 C 0.80643 0.54173 0.58596 0.0
C1093 C 0.82615 0.5907 0.56136 0.0
C1094 C 0.78165 0.5556 0.58885 0.0
C1095 C 0.75682 0.54159 0.58744 0.0
C1096 C 0.75638 0.5134 0.58333 0.0
C1097 C 0.78115 0.49993 0.57928 0.0
C1098 C 0.80592 0.51394 0.58063 0.0
H1099 H 0.83927 0.60371 0.55102 0.0
H1100 H 0.81698 0.57437 0.55136 0.0
H1101 H 0.80939 0.60358 0.5677 0.0
H1102 H 0.78154 0.5769 0.59338 0.0
H1103 H 0.73814 0.55245 0.59099 0.0
H1104 H 0.70054 0.16401 0.1287 0.0
H1105 H 0.73068 0.20369 0.1297 0.0
H1106 H 0.70796 0.22402 0.06486 0.0
H1107 H 0.67802 0.18427 0.06358 0.0
H1108 H 0.77538 0.21552 0.10351 0.0
H1109 H 0.69667 0.29616 0.09658 0.0
H1110 H 0.68841 0.26129 0.10325 0.0
H1111 H 0.69501 0.2708 0.07587 0.0
C1112 C 0.7019 0.17681 0.1146 0.0
C1113 C 0.68663 0.17077 0.09605 0.0
C1114 C 0.71913 0.19962 0.11524 0.0
C1115 C 0.72138 0.21708 0.09746 0.0
C1116 C 0.70616 0.21122 0.07897 0.0
H1117 H 0.85109 0.33396 0.0699 0.0
H1118 H 0.8203 0.29471 0.07053 0.0
C1119 C 0.68895 0.18841 0.07828 0.0
C1120 C 0.7403 0.2409 0.098 0.0
H1121 H 0.74284 0.3103 0.09297 0.0
C1122 C 0.76825 0.23625 0.10128 0.0
C1123 C 0.731 0.26801 0.09532 0.0
C1124 C 0.70111 0.2745 0.09276 0.0
C1125 C 0.78716 0.25786 0.10155 0.0
C1126 C 0.77797 0.28489 0.0982 0.0
C1127 C 0.74995 0.28959 0.09532 0.0
C1128 C 0.79701 0.30861 0.09791 0.0
C1129 C 0.81679 0.25159 0.10577 0.0
C1130 C 0.79397 0.32981 0.11282 0.0
C1131 C 0.8116 0.35231 0.11253 0.0
C1132 C 0.83263 0.35429 0.09717 0.0
C1133 C 0.83551 0.33302 0.08217 0.0
C1134 C 0.81787 0.3105 0.0825 0.0
H1135 H 0.81943 0.23127 0.11338 0.0
H1136 H 0.82806 0.25153 0.09032 0.0
H1137 H 0.82611 0.26728 0.1163 0.0
H1138 H 0.77805 0.32884 0.12486 0.0
H1139 H 0.80885 0.36795 0.12454 0.0
H1140 H 0.366 0.70761 0.13063 0.0
H1141 H 0.32621 0.7375 0.13204 0.0
H1142 H 0.29936 0.7068 0.07084 0.0
H1143 H 0.3392 0.67706 0.06914 0.0
H1144 H 0.31079 0.77864 0.10363 0.0
H1145 H 0.23116 0.69847 0.10822 0.0
H1146 H 0.26678 0.69149 0.113 0.0
H1147 H 0.2542 0.69453 0.08602 0.0
C1148 C 0.35177 0.70721 0.11739 0.0
C1149 C 0.35594 0.68972 0.09977 0.0
C1150 C 0.3289 0.72428 0.11829 0.0
C1151 C 0.30955 0.72416 0.1017 0.0
C1152 C 0.31365 0.70683 0.08408 0.0
H1153 H 0.18876 0.84711 0.07008 0.0
H1154 H 0.22854 0.8173 0.07178 0.0
C1155 C 0.3365 0.68978 0.08315 0.0
C1156 C 0.28555 0.74274 0.10249 0.0
H1157 H 0.21583 0.74377 0.10176 0.0
C1158 C 0.29003 0.77101 0.10332 0.0
C1159 C 0.25843 0.7328 0.10236 0.0
C1160 C 0.25225 0.70266 0.10256 0.0
C1161 C 0.26819 0.78959 0.1035 0.0
C1162 C 0.24109 0.77967 0.10257 0.0
C1163 C 0.23659 0.75139 0.10227 0.0
C1164 C 0.21713 0.7983 0.10181 0.0
C1165 C 0.27432 0.81968 0.10493 0.0
C1166 C 0.19714 0.7973 0.11794 0.0
C1167 C 0.17431 0.81443 0.11706 0.0
C1168 C 0.17081 0.83284 0.0999 0.0
C1169 C 0.1909 0.83366 0.08374 0.0
C1170 C 0.21373 0.81656 0.08467 0.0
H1171 H 0.29517 0.82352 0.1112 0.0
H1172 H 0.27298 0.82882 0.08867 0.0
H1173 H 0.25937 0.83018 0.11544 0.0
H1174 H 0.19929 0.78335 0.13131 0.0
H1175 H 0.15958 0.81331 0.12995 0.0
H1176 H 0.33566 0.6821 0.45014 0.0
H1177 H 0.30534 0.72148 0.44795 0.0
H1178 H 0.29615 0.70849 0.37993 0.0
H1179 H 0.32619 0.66872 0.38211 0.0
H1180 H 0.309 0.76865 0.42667 0.0
H1181 H 0.21761 0.71277 0.39803 0.0
H1182 H 0.24759 0.69548 0.40777 0.0
H1183 H 0.24675 0.7089 0.38089 0.0
C1184 C 0.32735 0.68769 0.43467 0.0
C1185 C 0.3333 0.67212 0.41631 0.0
C1186 C 0.30989 0.71019 0.43346 0.0
C1187 C 0.29796 0.71776 0.41386 0.0
C1188 C 0.3044 0.70267 0.39537 0.0
H1189 H 0.19887 0.8611 0.38219 0.0
H1190 H 0.22983 0.82185 0.38052 0.0
C1191 C 0.32169 0.67996 0.39661 0.0
C1192 C 0.27912 0.74161 0.41291 0.0
H1193 H 0.21432 0.76102 0.39933 0.0
C1194 C 0.28832 0.76691 0.42068 0.0
C1195 C 0.252 0.73944 0.40518 0.0
C1196 C 0.24026 0.71265 0.39769 0.0
C1197 C 0.27125 0.78993 0.42091 0.0
C1198 C 0.24431 0.78772 0.41314 0.0
C1199 C 0.23509 0.76263 0.40515 0.0
C1200 C 0.22514 0.8111 0.41396 0.0
C1201 C 0.282 0.81658 0.42951 0.0
C1202 C 0.2121 0.81786 0.43326 0.0
C1203 C 0.19436 0.84017 0.43426 0.0
C1204 C 0.18942 0.85631 0.41599 0.0
C1205 C 0.20243 0.84932 0.39661 0.0
C1206 C 0.22001 0.82683 0.39559 0.0
H1207 H 0.30422 0.81575 0.4329 0.0
H1208 H 0.27803 0.83325 0.41786 0.0
H1209 H 0.27111 0.82171 0.4446 0.0
H1210 H 0.21582 0.80596 0.44762 0.0
H1211 H 0.18498 0.84514 0.44948 0.0
H1212 H 0.86429 0.31387 0.38512 0.0
H1213 H 0.82491 0.28342 0.38431 0.0
H1214 H 0.79385 0.32053 0.44199 0.0
H1215 H 0.8334 0.35095 0.4431 0.0
H1216 H 0.80845 0.24542 0.41499 0.0
H1217 H 0.72795 0.32301 0.40161 0.0
H1218 H 0.76373 0.33019 0.39767 0.0
H1219 H 0.74953 0.32974 0.42426 0.0
C1220 C 0.84924 0.31557 0.39773 0.0
C1221 C 0.8522 0.33498 0.41422 0.0
C1222 C 0.82659 0.29817 0.39716 0.0
C1223 C 0.80622 0.29984 0.41294 0.0
C1224 C 0.809 0.3192 0.42938 0.0
H1225 H 0.68413 0.17845 0.44643 0.0
H1226 H 0.72356 0.20873 0.44498 0.0
C1227 C 0.83167 0.33663 0.42998 0.0
C1228 C 0.78258 0.28072 0.41252 0.0
H1229 H 0.71298 0.27805 0.40969 0.0
C1230 C 0.78758 0.25256 0.41377 0.0
C1231 C 0.75535 0.28998 0.41067 0.0
C1232 C 0.74872 0.31986 0.40827 0.0
C1233 C 0.76612 0.2335 0.41365 0.0
C1234 C 0.73886 0.24281 0.41245 0.0
C1235 C 0.73387 0.27092 0.41077 0.0
C1236 C 0.71523 0.2237 0.41301 0.0
C1237 C 0.77283 0.20351 0.41452 0.0
C1238 C 0.69716 0.22214 0.3956 0.0
C1239 C 0.67457 0.20463 0.3963 0.0
C1240 C 0.66933 0.18842 0.41454 0.0
C1241 C 0.6876 0.19009 0.43194 0.0
C1242 C 0.71022 0.20752 0.43118 0.0
H1243 H 0.79437 0.19952 0.40999 0.0
H1244 H 0.76968 0.19593 0.43112 0.0
H1245 H 0.7593 0.19168 0.40369 0.0
H1246 H 0.70061 0.23444 0.38141 0.0
H1247 H 0.66132 0.20383 0.38246 0.0
H1248 H 0.15766 0.69715 0.91594 0.0
H1249 H 0.18842 0.73641 0.91583 0.0
H1250 H 0.25767 0.68242 0.91755 0.0
H1251 H 0.22708 0.64305 0.91775 0.0
H1252 H 0.22743 0.75248 0.94538 0.0
H1253 H 0.27594 0.73137 0.86671 0.0
H1254 H 0.24514 0.71446 0.87539 0.0
H1255 H 0.27776 0.70345 0.8853 0.0
C1256 C 0.1794 0.69354 0.91642 0.0
C1257 C 0.18979 0.66678 0.9167 0.0
C1258 C 0.197 0.71608 0.91626 0.0
C1259 C 0.22541 0.71244 0.91629 0.0
C1260 C 0.23586 0.6858 0.91696 0.0
H1261 H 0.36538 0.82207 0.9167 0.0
H1262 H 0.33464 0.78278 0.91753 0.0
C1263 C 0.21829 0.66325 0.91708 0.0
C1264 C 0.24404 0.7365 0.91601 0.0
H1265 H 0.29566 0.76667 0.88761 0.0
C1266 C 0.24225 0.75565 0.93269 0.0
C1267 C 0.26345 0.74066 0.89947 0.0
C1268 C 0.2656 0.72156 0.88059 0.0
C1269 C 0.25962 0.77849 0.93351 0.0
C1270 C 0.27904 0.78263 0.91699 0.0
C1271 C 0.28083 0.76349 0.9003 0.0
C1272 C 0.29764 0.80671 0.91667 0.0
C1273 C 0.25743 0.79766 0.95235 0.0
C1274 C 0.28715 0.83331 0.91566 0.0
C1275 C 0.3047 0.85588 0.9153 0.0
C1276 C 0.3332 0.85239 0.91581 0.0
C1277 C 0.34362 0.82566 0.9166 0.0
C1278 C 0.32604 0.8031 0.91693 0.0
H1279 H 0.24697 0.78793 0.96621 0.0
H1280 H 0.27789 0.80469 0.95759 0.0
H1281 H 0.24539 0.81581 0.94755 0.0
H1282 H 0.26534 0.83666 0.91505 0.0
H1283 H 0.29586 0.87607 0.91487 0.0
H1284 H 0.68811 0.34372 0.94728 0.0
H1285 H 0.72776 0.31398 0.94488 0.0
H1286 H 0.7029 0.28851 0.88173 0.0
H1287 H 0.66333 0.31861 0.88373 0.0
H1288 H 0.71674 0.24487 0.90958 0.0
H1289 H 0.79731 0.32435 0.90853 0.0
H1290 H 0.7733 0.32762 0.93015 0.0
H1291 H 0.76197 0.3318 0.90294 0.0
C1292 C 0.69117 0.33227 0.93267 0.0
C1293 C 0.6723 0.33388 0.91567 0.0
C1294 C 0.71395 0.31515 0.93137 0.0
C1295 C 0.71852 0.29922 0.91304 0.0
C1296 C 0.69982 0.30066 0.89603 0.0
H1297 H 0.86822 0.20948 0.88491 0.0
H1298 H 0.82884 0.23986 0.88358 0.0
C1299 C 0.67706 0.31787 0.89727 0.0
C1300 C 0.74232 0.28042 0.91196 0.0
H1301 H 0.81198 0.27861 0.9138 0.0
C1302 C 0.73757 0.25224 0.91039 0.0
C1303 C 0.76952 0.29005 0.91279 0.0
C1304 C 0.77596 0.32011 0.9135 0.0
C1305 C 0.75922 0.23344 0.91016 0.0
C1306 C 0.7864 0.24302 0.91177 0.0
C1307 C 0.79117 0.27123 0.91278 0.0
C1308 C 0.81015 0.22412 0.9125 0.0
C1309 C 0.75283 0.20348 0.908 0.0
C1310 C 0.81298 0.20525 0.92931 0.0
C1311 C 0.83563 0.18791 0.93022 0.0
C1312 C 0.85612 0.18908 0.91439 0.0
C1313 C 0.85318 0.20808 0.89757 0.0
C1314 C 0.83054 0.22545 0.8967 0.0
H1315 H 0.73209 0.20006 0.90136 0.0
H1316 H 0.76793 0.19319 0.89748 0.0
H1317 H 0.75371 0.19376 0.92407 0.0
H1318 H 0.79784 0.20422 0.94195 0.0
H1319 H 0.83732 0.17398 0.94362 0.0
H1320 H 0.79519 0.14623 0.59496 0.0
H1321 H 0.76472 0.1857 0.5948 0.0
H1322 H 0.83398 0.23935 0.60076 0.0
H1323 H 0.86456 0.20003 0.60086 0.0
H1324 H 0.75648 0.22513 0.62516 0.0
H1325 H 0.79447 0.27269 0.55011 0.0
H1326 H 0.80312 0.23828 0.55776 0.0
H1327 H 0.82072 0.26673 0.56958 0.0
C1328 C 0.80398 0.16641 0.59631 0.0
C1329 C 0.83242 0.16987 0.59783 0.0
C1330 C 0.7865 0.18899 0.59613 0.0
C1331 C 0.79702 0.21559 0.59739 0.0
C1332 C 0.82537 0.21912 0.59918 0.0
H1333 H 0.72582 0.37793 0.60279 0.0
H1334 H 0.75592 0.33822 0.60335 0.0
C1335 C 0.84287 0.19655 0.59927 0.0
C1336 C 0.77829 0.23954 0.59737 0.0
H1337 H 0.76395 0.29913 0.57115 0.0
C1338 C 0.75802 0.24123 0.61327 0.0
C1339 C 0.78026 0.26061 0.58187 0.0
C1340 C 0.80063 0.25944 0.56374 0.0
C1341 C 0.7401 0.26358 0.61435 0.0
C1342 C 0.74217 0.28469 0.59893 0.0
C1343 C 0.7624 0.283 0.58301 0.0
C1344 C 0.72359 0.30872 0.59901 0.0
C1345 C 0.71949 0.2647 0.63232 0.0
C1346 C 0.69535 0.30546 0.59621 0.0
C1347 C 0.67802 0.32816 0.59599 0.0
C1348 C 0.68854 0.3547 0.59849 0.0
C1349 C 0.71689 0.35785 0.60118 0.0
C1350 C 0.73419 0.33515 0.60134 0.0
H1351 H 0.72501 0.25082 0.64573 0.0
H1352 H 0.71754 0.28574 0.63869 0.0
H1353 H 0.69927 0.2583 0.62611 0.0
H1354 H 0.68671 0.28533 0.594 0.0
H1355 H 0.65636 0.32485 0.59399 0.0
H1356 H 0.36418 0.81227 0.62753 0.0
H1357 H 0.3248 0.78169 0.62833 0.0
H1358 H 0.29718 0.81458 0.56801 0.0
H1359 H 0.33655 0.84511 0.56699 0.0
H1360 H 0.25561 0.80995 0.59762 0.0
H1361 H 0.31356 0.71308 0.59241 0.0
H1362 H 0.32377 0.7348 0.61414 0.0
H1363 H 0.32889 0.74582 0.58691 0.0
C1364 C 0.34995 0.81287 0.6143 0.0
C1365 C 0.35377 0.8312 0.59713 0.0
C1366 C 0.32738 0.7953 0.61479 0.0
C1367 C 0.30819 0.79548 0.59806 0.0
C1368 C 0.31171 0.81399 0.58108 0.0
H1369 H 0.1851 0.67346 0.56817 0.0
H1370 H 0.2249 0.70353 0.56894 0.0
C1371 C 0.33423 0.83157 0.58058 0.0
C1372 C 0.28423 0.77673 0.59833 0.0
H1373 H 0.26602 0.70938 0.59888 0.0
C1374 C 0.25789 0.78796 0.5979 0.0
C1375 C 0.28716 0.748 0.59841 0.0
C1376 C 0.31484 0.73463 0.59779 0.0
C1377 C 0.23449 0.77134 0.59775 0.0
C1378 C 0.23741 0.74262 0.59839 0.0
C1379 C 0.26374 0.73137 0.5986 0.0
C1380 C 0.2134 0.72391 0.59834 0.0
C1381 C 0.20684 0.7847 0.5964 0.0
C1382 C 0.19386 0.72492 0.61481 0.0
C1383 C 0.17106 0.70767 0.61444 0.0
C1384 C 0.16735 0.68882 0.59765 0.0
C1385 C 0.18731 0.68748 0.58143 0.0
C1386 C 0.21007 0.70478 0.5818 0.0
H1387 H 0.20829 0.80601 0.59042 0.0
H1388 H 0.19301 0.77307 0.58568 0.0
H1389 H 0.19755 0.78526 0.61263 0.0
H1390 H 0.19629 0.739 0.62804 0.0
H1391 H 0.15652 0.70896 0.62746 0.0
H1392 H 0.6235 0.05062 0.02334 0.0
H1393 H 0.58399 0.03458 1.00273 0.0
H1394 H 0.5403 0.01937 0.06159 0.0
H1395 H 0.57912 0.03583 0.08218 0.0
H1396 H 0.55781 0.98455 1.0029 0.0
H1397 H 0.48593 0.06529 0.02864 0.0
H1398 H 0.52222 0.06771 0.03304 0.0
H1399 H 0.50131 0.04746 0.05067 0.0
C1400 C 0.60544 0.04398 0.03189 0.0
C1401 C 0.60456 0.04469 0.05445 0.0
C1402 C 0.58286 0.03478 0.02008 0.0
C1403 C 0.55892 0.02623 0.03058 0.0
C1404 C 0.55821 0.02648 0.05307 0.0
H1405 H 0.40237 0.95858 0.98858 0.0
H1406 H 0.44177 0.97397 0.00972 0.0
C1407 C 0.58064 0.03572 0.06485 0.0
C1408 C 0.53484 0.01651 0.01813 0.0
H1409 H 0.46671 0.02753 0.01006 0.0
C1410 C 0.53794 0.99406 1.00437 0.0
C1411 C 0.50882 0.02883 0.02009 0.0
C1412 C 0.50435 0.05381 0.03374 0.0
C1413 C 0.51572 0.98336 0.99284 0.0
C1414 C 0.48972 0.99562 0.99487 0.0
C1415 C 0.48658 0.01802 0.00863 0.0
C1416 C 0.46581 0.98614 0.98219 0.0
C1417 C 0.52015 0.95871 0.97881 0.0
C1418 C 0.46607 0.9882 0.95976 0.0
C1419 C 0.44366 0.97954 0.9477 0.0
C1420 C 0.42032 0.96864 0.95776 0.0
C1421 C 0.42 0.96676 0.98029 0.0
C1422 C 0.44248 0.97558 0.99239 0.0
H1423 H 0.53913 0.94766 0.98315 0.0
H1424 H 0.50266 0.94438 0.98002 0.0
H1425 H 0.52194 0.96536 0.96185 0.0
H1426 H 0.4836 0.9967 0.95154 0.0
H1427 H 0.44477 0.98134 0.9304 0.0
H1428 H 0.4842 0.57781 0.08414 0.0
H1429 H 0.4997 0.5387 0.0633 0.0
H1430 H 0.48753 0.58392 1.00476 0.0
H1431 H 0.47209 0.62347 0.02556 0.0
H1432 H 0.4711 0.50944 0.03118 0.0
H1433 H 0.56666 0.55537 0.99957 0.0
H1434 H 0.5483 0.56961 0.02204 0.0
H1435 H 0.53628 0.57506 0.99517 0.0
C1436 C 0.48488 0.57961 0.06683 0.0
C1437 C 0.47696 0.60396 0.05656 0.0
C1438 C 0.49372 0.55712 0.05493 0.0
C1439 C 0.49509 0.55841 0.03248 0.0
C1440 C 0.48706 0.58258 0.0221 0.0
H1441 H 0.54317 0.44469 0.93308 0.0
H1442 H 0.52771 0.48353 0.95417 0.0
C1443 C 0.47809 0.60514 0.03401 0.0
C1444 C 0.50448 0.53424 0.02006 0.0
H1445 H 0.55461 0.51184 0.98626 0.0
C1446 C 0.4894 0.50992 0.0214 0.0
C1447 C 0.5284 0.53486 0.00734 0.0
C1448 C 0.54605 0.56001 1.006 0.0
C1449 C 0.49726 0.48641 0.01005 0.0
C1450 C 0.52119 0.48701 0.99733 0.0
C1451 C 0.5363 0.51133 0.99603 0.0
C1452 C 0.53052 0.4629 0.98476 0.0
C1453 C 0.47948 0.46134 0.01134 0.0
C1454 C 0.53753 0.43826 0.9949 0.0
C1455 C 0.54638 0.41578 0.98283 0.0
C1456 C 0.54851 0.41755 0.96035 0.0
C1457 C 0.54169 0.44239 0.95033 0.0
C1458 C 0.53288 0.46475 0.96238 0.0
H1459 H 0.4587 0.4662 0.01734 0.0
H1460 H 0.47763 0.45143 0.99539 0.0
H1461 H 0.48882 0.44648 0.02256 0.0
H1462 H 0.53639 0.43646 0.0122 0.0
H1463 H 0.55155 0.39707 0.9911 0.0
H1464 H 0.90335 0.46056 0.02388 0.0
H1465 H 0.94283 0.47644 1.003 0.0
H1466 H 0.98239 0.50221 0.06128 0.0
H1467 H 0.94363 0.48608 0.08216 0.0
H1468 H 0.96575 0.52879 1.00026 0.0
H1469 H 0.04107 0.45563 0.03312 0.0
H1470 H 1.00477 0.45125 0.03654 0.0
H1471 H 0.02326 0.47461 0.05335 0.0
C1472 C 0.92051 0.46949 0.03225 0.0
C1473 C 0.92021 0.47196 0.05475 0.0
C1474 C 0.94306 0.4786 0.02029 0.0
C1475 C 0.96583 0.49012 0.03059 0.0
C1476 C 0.96539 0.49288 0.05298 0.0
H1477 H 0.12047 0.56189 0.98805 0.0
H1478 H 0.0813 0.54578 0.00922 0.0
C1479 C 0.94298 0.48382 0.0649 0.0
C1480 C 0.98982 0.49989 0.01801 0.0
H1481 H 0.05882 0.49226 0.0123 0.0
C1482 C 0.98606 0.52067 1.00279 0.0
C1483 C 0.01641 0.48944 0.0214 0.0
C1484 C 0.02167 0.46633 0.03684 0.0
C1485 C 1.00815 0.53158 0.99116 0.0
C1486 C 0.03472 0.52114 0.99455 0.0
C1487 C 0.0385 0.50038 0.00978 0.0
C1488 C 0.05864 0.53082 0.98187 0.0
C1489 C 1.0029 0.55459 0.97562 0.0
C1490 C 0.05917 0.52739 0.95955 0.0
C1491 C 0.08141 0.53652 0.94748 0.0
C1492 C 0.1039 0.54919 0.95741 0.0
C1493 C 0.10353 0.55231 0.97985 0.0
C1494 C 0.08116 0.54308 0.99197 0.0
H1495 H 0.98336 0.56513 0.97912 0.0
H1496 H 0.01968 0.56981 0.97606 0.0
H1497 H 1.00168 0.54625 0.95911 0.0
H1498 H 0.04233 0.51753 0.95142 0.0
H1499 H 0.08079 0.53377 0.93026 0.0
H1500 H 0.98603 0.07762 0.93144 0.0
H1501 H 1.00167 0.03892 0.95262 0.0
H1502 H 0.98297 0.08243 0.01085 0.0
H1503 H 0.96694 0.12144 0.98967 0.0
H1504 H 0.04316 0.03577 0.9821 0.0
H1505 H 0.94423 1.00985 0.02043 0.0
H1506 H 0.94676 0.03283 0.99788 0.0
H1507 H 0.95504 0.04446 0.02443 0.0
C1508 C 0.98517 0.0791 0.94876 0.0
C1509 C 0.97513 0.10277 0.95881 0.0
C1510 C 0.99415 0.05684 0.96086 0.0
C1511 C 0.9932 0.05752 0.98334 0.0
C1512 C 0.9834 0.08116 0.99351 0.0
H1513 H 0.04009 0.94323 0.08291 0.0
H1514 H 0.02458 0.98209 0.06186 0.0
C1515 C 0.97436 0.10353 0.98137 0.0
C1516 C 1.00298 0.0336 0.99594 0.0
H1517 H 0.98296 0.9854 0.0324 0.0
C1518 C 0.02997 0.02471 0.99306 0.0
C1519 C 0.98577 0.0191 0.01022 0.0
C1520 C 0.95626 0.02683 0.01334 0.0
C1521 C 0.04035 1.00208 1.00428 0.0
C1522 C 0.02314 0.98757 0.01854 0.0
C1523 C 0.99616 0.99647 0.02145 0.0
C1524 C 0.03287 0.96356 0.03108 0.0
C1525 C 0.06986 0.99434 1.00116 0.0
C1526 C 0.04251 0.93992 0.02083 0.0
C1527 C 0.05144 0.91744 0.0329 0.0
C1528 C 0.05075 0.91811 0.05546 0.0
C1529 C 0.04088 0.9418 0.06559 0.0
C1530 C 0.03199 0.96416 0.05356 0.0
H1531 H 0.0819 1.01132 0.99407 0.0
H1532 H 0.07935 0.98833 0.01662 0.0
H1533 H 0.07108 0.97671 0.99008 0.0
H1534 H 0.04289 0.93872 1.00349 0.0
H1535 H 0.05874 0.89953 0.02454 0.0
H1536 H 0.90104 0.06778 0.52437 0.0
H1537 H 0.9397 0.05167 0.5027 0.0
H1538 H 0.9798 0.02335 0.56005 0.0
H1539 H 0.94159 0.03899 0.58161 0.0
H1540 H 0.9945 0.0657 0.50391 0.0
H1541 H 0.98242 0.95595 0.52266 0.0
H1542 H 0.95622 0.98069 0.52844 0.0
H1543 H 0.98475 0.97666 0.54629 0.0
C1544 C 0.91804 0.05799 0.53234 0.0
C1545 C 0.91792 0.05438 0.55474 0.0
C1546 C 0.94014 0.04882 0.51994 0.0
C1547 C 0.96246 0.03574 0.52968 0.0
C1548 C 0.96256 0.03265 0.55205 0.0
H1549 H 0.12085 0.97324 0.48912 0.0
H1550 H 0.08137 0.98999 0.50949 0.0
C1551 C 0.94059 0.04173 0.56439 0.0
C1552 C 0.986 0.0258 0.51672 0.0
H1553 H 0.02451 0.96916 0.50638 0.0
C1554 C 1.00091 0.04455 0.5043 0.0
C1555 C 0.99444 0.99817 0.51722 0.0
C1556 C 0.97847 0.97665 0.52919 0.0
C1557 C 0.02433 0.03657 0.49285 0.0
C1558 C 0.03301 1.00908 0.49371 0.0
C1559 C 0.01801 0.99029 0.50595 0.0
C1560 C 0.05711 0.99925 0.48145 0.0
C1561 C 0.04001 0.05769 0.48023 0.0
C1562 C 0.05641 0.99852 0.45899 0.0
C1563 C 0.07874 0.98874 0.44735 0.0
C1564 C 0.10245 0.97957 0.45789 0.0
C1565 C 0.10304 0.9802 0.48046 0.0
C1566 C 0.0805 0.98979 0.49212 0.0
H1567 H 0.03402 0.07879 0.48466 0.0
H1568 H 0.06228 0.05531 0.4828 0.0
H1569 H 0.03593 0.05487 0.46286 0.0
H1570 H 0.03842 1.00527 0.45042 0.0
H1571 H 0.07726 0.9883 0.43003 0.0
H1572 H 0.53763 0.07884 0.42976 0.0
H1573 H 0.52162 0.03993 0.4506 0.0
H1574 H 0.5331 0.0854 0.50904 0.0
H1575 H 0.54876 0.12489 0.48819 0.0
H1576 H 0.54849 1.01019 0.48152 0.0
H1577 H 0.45515 0.05726 0.5156 0.0
H1578 H 0.47376 0.07232 0.49356 0.0
H1579 H 0.48593 0.07607 0.5206 0.0
C1580 C 0.53661 0.08079 0.44704 0.0
C1581 C 0.54438 0.10521 0.45725 0.0
C1582 C 0.5275 0.05838 0.45895 0.0
C1583 C 0.52578 0.05976 0.48139 0.0
C1584 C 0.53371 0.08399 0.49172 0.0
H1585 H 0.48094 0.94458 0.5809 0.0
H1586 H 0.49617 0.98354 0.55974 0.0
C1587 C 0.54284 0.10652 0.47977 0.0
C1588 C 0.51627 0.03555 0.49383 0.0
H1589 H 0.46714 0.01351 0.52878 0.0
C1590 C 0.53063 1.01089 0.49179 0.0
C1591 C 0.49292 0.0364 0.50719 0.0
C1592 C 0.47585 0.06183 0.50928 0.0
C1593 C 0.52262 0.9873 0.50302 0.0
C1594 C 0.49935 0.98819 0.51644 0.0
C1595 C 0.48496 0.01281 0.51847 0.0
C1596 C 0.49005 0.96405 0.52903 0.0
C1597 C 0.53955 0.96177 0.50087 0.0
C1598 C 0.48126 0.94003 0.51883 0.0
C1599 C 0.47249 0.9175 0.53095 0.0
C1600 C 0.47232 0.91858 0.55351 0.0
C1601 C 0.48094 0.94281 0.56359 0.0
C1602 C 0.4896 0.96524 0.5515 0.0
H1603 H 0.55999 0.9661 0.49395 0.0
H1604 H 0.54224 0.95171 0.5167 0.0
H1605 H 0.52894 0.94725 0.49009 0.0
H1606 H 0.48099 0.93877 0.50149 0.0
H1607 H 0.46591 0.89927 0.52265 0.0
H1608 H 0.44387 0.541 0.43195 0.0
H1609 H 0.4825 0.52448 0.45277 0.0
H1610 H 0.43629 0.53447 0.5111 0.0
H1611 H 0.39706 0.55049 0.49025 0.0
H1612 H 0.51211 0.55007 0.48382 0.0
H1613 H 0.46397 0.45678 0.51719 0.0
H1614 H 0.44903 0.47592 0.49544 0.0
H1615 H 0.44537 0.48751 0.52265 0.0
C1616 C 0.44171 0.53954 0.44919 0.0
C1617 C 0.41714 0.54695 0.45937 0.0
C1618 C 0.46395 0.53013 0.4611 0.0
C1619 C 0.46227 0.52782 0.4835 0.0
C1620 C 0.43792 0.53548 0.4938 0.0
H1621 H 0.5767 0.48331 0.58341 0.0
H1622 H 0.53795 0.4987 0.56211 0.0
C1623 C 0.41554 0.54484 0.48186 0.0
C1624 C 0.4863 0.518 0.49596 0.0
H1625 H 0.50752 0.46866 0.53097 0.0
C1626 C 0.51112 0.53219 0.49405 0.0
C1627 C 0.4851 0.49461 0.50927 0.0
C1628 C 0.45953 0.47763 0.51115 0.0
C1629 C 0.53453 0.52396 0.50537 0.0
C1630 C 0.53325 0.5007 0.51878 0.0
C1631 C 0.50848 0.48648 0.52068 0.0
C1632 C 0.55717 0.49124 0.53146 0.0
C1633 C 0.5603 0.54058 0.50329 0.0
C1634 C 0.58092 0.48165 0.52132 0.0
C1635 C 0.60327 0.47272 0.5335 0.0
C1636 C 0.60229 0.47323 0.55606 0.0
C1637 C 0.57835 0.48272 0.56609 0.0
C1638 C 0.55606 0.49149 0.55393 0.0
H1639 H 0.55639 0.56091 0.49604 0.0
H1640 H 0.57003 0.5435 0.51921 0.0
H1641 H 0.57496 0.52958 0.49286 0.0
H1642 H 0.5821 0.4809 0.50398 0.0
H1643 H 0.6213 0.46549 0.52524 0.0
H1644 H 0.03474 0.58037 0.58159 0.0
H1645 H 0.01916 0.54152 0.56064 0.0
H1646 H 0.04244 0.58268 0.50229 0.0
H1647 H 0.0578 0.62221 0.52324 0.0
H1648 H 0.99046 0.55826 0.50038 0.0
H1649 H 0.06696 0.48479 0.53104 0.0
H1650 H 0.04818 0.50179 0.55181 0.0
H1651 H 0.07038 0.52116 0.53458 0.0
C1652 C 0.03658 0.58135 0.5643 0.0
C1653 C 0.04761 0.60457 0.55414 0.0
C1654 C 0.02783 0.5589 0.55233 0.0
C1655 C 0.03006 0.5589 0.5299 0.0
C1656 C 0.04071 0.58212 0.51961 0.0
H1657 H 0.98566 0.44321 0.4302 0.0
H1658 H 1.00167 0.48221 0.45082 0.0
C1659 C 0.04952 0.6047 0.53161 0.0
C1660 C 0.02066 0.53483 0.51731 0.0
H1661 H 0.03012 0.4662 0.51099 0.0
C1662 C 0.99926 0.53817 0.50259 0.0
C1663 C 0.03203 0.50855 0.52026 0.0
C1664 C 0.05582 0.50381 0.53513 0.0
C1665 C 0.9886 0.51591 0.49108 0.0
C1666 C 0.99991 0.48962 0.49409 0.0
C1667 C 0.02134 0.48629 0.50877 0.0
C1668 C 0.99029 0.4655 0.48168 0.0
C1669 C 0.96487 0.52064 0.47614 0.0
C1670 C 0.97918 0.44263 0.49216 0.0
C1671 C 0.97008 0.42 0.48036 0.0
C1672 C 0.97216 0.41973 0.45784 0.0
C1673 C 0.98367 0.44258 0.44749 0.0
C1674 C 0.99268 0.46509 0.45926 0.0
H1675 H 0.95397 0.53989 0.47995 0.0
H1676 H 0.97254 0.52216 0.45943 0.0
H1677 H 0.95011 0.50348 0.47693 0.0
H1678 H 0.97732 0.44239 0.50948 0.0
H1679 H 0.96144 0.40278 0.48887 0.0
H1680 H 0.60108 0.17963 0.33661 0.0
H1681 H 0.61284 0.17099 0.29909 0.0
H1682 H 0.596 0.08537 0.30806 0.0
H1683 H 0.58514 0.09377 0.34582 0.0
H1684 H 0.64058 0.09233 0.28435 0.0
H1685 H 0.55853 0.15815 0.25207 0.0
H1686 H 0.58151 0.17627 0.2693 0.0
H1687 H 0.5607 0.14926 0.28009 0.0
C1688 C 0.60003 0.15893 0.33061 0.0
C1689 C 0.59201 0.13739 0.34411 0.0
C1690 C 0.60654 0.15406 0.3091 0.0
C1691 C 0.60461 0.12764 0.30057 0.0
C1692 C 0.59744 0.10597 0.31423 0.0
H1693 H 0.59303 0.08594 0.16553 0.0
H1694 H 0.5845 0.09674 0.20327 0.0
C1695 C 0.59127 0.11078 0.33581 0.0
C1696 C 0.61 0.12253 0.27743 0.0
H1697 H 0.59078 0.14139 0.22686 0.0
C1698 C 0.62965 0.10302 0.27178 0.0
C1699 C 0.5954 0.13613 0.261 0.0
C1700 C 0.57266 0.1559 0.26588 0.0
C1701 C 0.63528 0.09689 0.25022 0.0
C1702 C 0.62147 0.11128 0.23378 0.0
C1703 C 0.60164 0.13062 0.23943 0.0
C1704 C 0.62665 0.10597 0.21064 0.0
C1705 C 0.65542 0.07448 0.24533 0.0
C1706 C 0.65303 0.10828 0.20204 0.0
C1707 C 0.65799 0.10182 0.18054 0.0
C1708 C 0.63655 0.09347 0.16711 0.0
C1709 C 0.60996 0.09234 0.17547 0.0
C1710 C 0.60507 0.09847 0.19705 0.0
H1711 H 0.65789 0.06038 0.25916 0.0
H1712 H 0.64896 0.06241 0.23115 0.0
H1713 H 0.67564 0.08364 0.24185 0.0
H1714 H 0.66988 0.11484 0.212 0.0
H1715 H 0.67867 0.10315 0.17449 0.0
H1716 H 0.34311 0.58857 0.33528 0.0
H1717 H 0.3527 0.59933 0.29772 0.0
H1718 H 0.43683 0.61511 0.31361 0.0
H1719 H 0.42754 0.60365 0.35116 0.0
H1720 H 0.3713 0.64446 0.27766 0.0
H1721 H 0.44447 0.55965 0.2661 0.0
H1722 H 0.42316 0.56236 0.2896 0.0
H1723 H 0.45391 0.58224 0.28746 0.0
C1724 C 0.36365 0.59444 0.33081 0.0
C1725 C 0.38463 0.59504 0.34617 0.0
C1726 C 0.36909 0.60059 0.30932 0.0
C1727 C 0.3956 0.60748 0.30274 0.0
C1728 C 0.41637 0.60914 0.3182 0.0
H1729 H 0.44023 0.68074 0.18055 0.0
H1730 H 0.42774 0.67195 0.21787 0.0
C1731 C 0.41099 0.60279 0.33969 0.0
C1732 C 0.40144 0.61266 0.27968 0.0
H1733 H 0.44115 0.59185 0.23774 0.0
C1734 C 0.38652 0.63291 0.26891 0.0
C1735 C 0.42093 0.59723 0.26814 0.0
C1736 C 0.43635 0.57397 0.27833 0.0
C1737 C 0.39088 0.63847 0.24705 0.0
C1738 C 0.41117 0.6238 0.23574 0.0
C1739 C 0.42577 0.60326 0.24643 0.0
C1740 C 0.41774 0.62943 0.21286 0.0
C1741 C 0.3733 0.65961 0.2362 0.0
C1742 C 0.41686 0.60834 0.19764 0.0
C1743 C 0.42437 0.61323 0.17631 0.0
C1744 C 0.43289 0.63933 0.1698 0.0
C1745 C 0.4335 0.66047 0.185 0.0
C1746 C 0.4262 0.65552 0.20635 0.0
H1747 H 0.35378 0.66267 0.24494 0.0
H1748 H 0.38428 0.67939 0.23598 0.0
H1749 H 0.36863 0.65377 0.2194 0.0
H1750 H 0.41052 0.58801 0.20231 0.0
H1751 H 0.42374 0.59651 0.16499 0.0
H1752 H 0.84376 0.42239 0.17581 0.0
H1753 H 0.85278 0.41019 0.21319 0.0
H1754 H 0.93838 0.42669 0.20372 0.0
H1755 H 0.92961 0.43797 0.1661 0.0
H1756 H 0.93153 0.38183 0.22704 0.0
H1757 H 0.86646 0.46364 0.2606 0.0
H1758 H 0.84803 0.44096 0.24333 0.0
H1759 H 0.87494 0.46185 0.23248 0.0
C1760 C 0.86452 0.42329 0.18168 0.0
C1761 C 0.88596 0.43131 0.16807 0.0
C1762 C 0.86962 0.41653 0.2031 0.0
C1763 C 0.89616 0.41819 0.21145 0.0
C1764 C 0.9177 0.42544 0.1977 0.0
H1765 H 0.93945 0.42854 0.34609 0.0
H1766 H 0.92858 0.43716 0.3084 0.0
C1767 C 0.91267 0.43187 0.17619 0.0
C1768 C 0.90155 0.41243 0.23449 0.0
H1769 H 0.88358 0.43107 0.28537 0.0
C1770 C 0.92109 0.39264 0.2398 0.0
C1771 C 0.88826 0.42686 0.25116 0.0
C1772 C 0.86847 0.4497 0.24665 0.0
C1773 C 0.92757 0.38673 0.26125 0.0
C1774 C 0.91351 0.40041 0.27793 0.0
C1775 C 0.89411 0.42034 0.27262 0.0
C1776 C 0.91926 0.39506 0.30097 0.0
C1777 C 0.94999 0.36647 0.26576 0.0
C1778 C 0.91707 0.36863 0.30952 0.0
C1779 C 0.9236 0.36361 0.331 0.0
C1780 C 0.93192 0.38502 0.34446 0.0
C1781 C 0.9331 0.41162 0.33612 0.0
C1782 C 0.9269 0.41657 0.31457 0.0
H1783 H 0.96383 0.36408 0.25176 0.0
H1784 H 0.96234 0.37273 0.27984 0.0
H1785 H 0.94081 0.34625 0.26922 0.0
H1786 H 0.91042 0.35183 0.29955 0.0
H1787 H 0.92223 0.34293 0.33704 0.0
H1788 H 0.17855 0.93834 0.33443 0.0
H1789 H 0.16943 0.92637 0.29706 0.0
H1790 H 0.08549 0.90949 0.31303 0.0
H1791 H 0.0943 0.92215 0.35038 0.0
H1792 H 0.1516 0.88025 0.27782 0.0
H1793 H 0.07737 0.96379 0.26458 0.0
H1794 H 0.0986 0.96199 0.28815 0.0
H1795 H 0.06819 0.94156 0.2863 0.0
C1796 C 0.15816 0.93198 0.33002 0.0
C1797 C 0.13708 0.93142 0.34532 0.0
C1798 C 0.15299 0.92513 0.30864 0.0
C1799 C 0.12665 0.91757 0.30213 0.0
C1800 C 0.1058 0.91595 0.31756 0.0
H1801 H 0.08468 0.8419 0.18025 0.0
H1802 H 0.09627 0.85113 0.21767 0.0
C1803 C 0.11091 0.923 0.33893 0.0
C1804 C 0.12107 0.91172 0.27916 0.0
H1805 H 0.08168 0.9312 0.23668 0.0
C1806 C 0.13635 0.89142 0.2688 0.0
C1807 C 0.10152 0.92665 0.26729 0.0
C1808 C 0.08566 0.9499 0.27706 0.0
C1809 C 0.13235 0.88537 0.24699 0.0
C1810 C 0.11208 0.8996 0.23534 0.0
C1811 C 0.09706 0.92014 0.24564 0.0
C1812 C 0.10609 0.89366 0.21245 0.0
C1813 C 0.15031 0.86421 0.23657 0.0
C1814 C 0.1072 0.91461 0.19707 0.0
C1815 C 0.10023 0.90947 0.1757 0.0
C1816 C 0.09202 0.88326 0.16928 0.0
C1817 C 0.09118 0.86225 0.18464 0.0
C1818 C 0.09796 0.86746 0.20604 0.0
H1819 H 0.16964 0.86135 0.24557 0.0
H1820 H 0.13943 0.84436 0.23637 0.0
H1821 H 0.15532 0.8699 0.21977 0.0
H1822 H 0.11331 0.93502 0.20165 0.0
H1823 H 0.10103 0.92609 0.16426 0.0
H1824 H 0.4283 0.92316 0.8485 0.0
H1825 H 0.43729 0.91164 0.81094 0.0
H1826 H 0.35294 0.92683 0.79548 0.0
H1827 H 0.34367 0.93767 0.83305 0.0
H1828 H 0.37137 0.88134 0.77598 0.0
H1829 H 0.44431 0.9661 0.76254 0.0
H1830 H 0.45404 0.94398 0.78415 0.0
H1831 H 0.42331 0.96383 0.78625 0.0
C1832 C 0.41166 0.92394 0.83711 0.0
C1833 C 0.38531 0.93147 0.84372 0.0
C1834 C 0.41686 0.91755 0.81561 0.0
C1835 C 0.39592 0.91893 0.80028 0.0
C1836 C 0.36946 0.92577 0.80698 0.0
H1837 H 0.42175 0.92705 0.66214 0.0
H1838 H 0.40927 0.93626 0.69949 0.0
C1839 C 0.3642 0.93197 0.82848 0.0
C1840 C 0.40147 0.91329 0.77725 0.0
H1841 H 0.44062 0.93329 0.73468 0.0
C1842 C 0.38646 0.89275 0.76693 0.0
C1843 C 0.42081 0.92851 0.76533 0.0
C1844 C 0.43635 0.95202 0.77505 0.0
C1845 C 0.39055 0.88671 0.74512 0.0
C1846 C 0.41066 0.90119 0.73343 0.0
C1847 C 0.42537 0.92202 0.74368 0.0
C1848 C 0.41687 0.89513 0.71057 0.0
C1849 C 0.37287 0.86525 0.73476 0.0
C1850 C 0.42532 0.86896 0.70435 0.0
C1851 C 0.43221 0.86359 0.68299 0.0
C1852 C 0.43118 0.8844 0.66748 0.0
C1853 C 0.42269 0.91058 0.67371 0.0
C1854 C 0.41561 0.91588 0.69505 0.0
H1855 H 0.35351 0.86224 0.74373 0.0
H1856 H 0.36791 0.87074 0.71792 0.0
H1857 H 0.38394 0.84553 0.7347 0.0
H1858 H 0.42715 0.85278 0.71609 0.0
H1859 H 0.43894 0.84327 0.67875 0.0
H1860 H 0.67916 0.43921 0.68037 0.0
H1861 H 0.67044 0.42734 0.71781 0.0
H1862 H 0.58624 0.41075 0.70266 0.0
H1863 H 0.59468 0.42336 0.66519 0.0
H1864 H 0.59062 0.44168 0.73795 0.0
H1865 H 0.66066 0.35369 0.74528 0.0
H1866 H 0.6776 0.38396 0.73609 0.0
H1867 H 0.6517 0.36842 0.7197 0.0
C1868 C 0.65884 0.43276 0.68494 0.0
C1869 C 0.63762 0.43212 0.66979 0.0
C1870 C 0.65392 0.42582 0.70636 0.0
C1871 C 0.62779 0.41769 0.71303 0.0
C1872 C 0.6066 0.41684 0.69788 0.0
H1873 H 0.58715 0.34388 0.83564 0.0
H1874 H 0.59769 0.35344 0.79806 0.0
C1875 C 0.61146 0.42398 0.67646 0.0
C1876 C 0.62226 0.41138 0.73596 0.0
H1877 H 0.64281 0.3716 0.77797 0.0
C1878 C 0.60194 0.42626 0.74667 0.0
C1879 C 0.63681 0.39104 0.7473 0.0
C1880 C 0.65771 0.37317 0.73646 0.0
C1881 C 0.596 0.42162 0.76842 0.0
C1882 C 0.6113 0.40204 0.77998 0.0
C1883 C 0.63136 0.38688 0.7692 0.0
C1884 C 0.60613 0.39628 0.80306 0.0
C1885 C 0.57295 0.43733 0.77864 0.0
C1886 C 0.60799 0.41703 0.81852 0.0
C1887 C 0.60176 0.41166 0.84004 0.0
C1888 C 0.59393 0.38534 0.84653 0.0
C1889 C 0.59309 0.36439 0.83117 0.0
C1890 C 0.59911 0.36982 0.80966 0.0
H1891 H 0.55867 0.44557 0.76642 0.0
H1892 H 0.56125 0.42431 0.78997 0.0
H1893 H 0.58146 0.45482 0.78771 0.0
H1894 H 0.61406 0.43745 0.81391 0.0
H1895 H 0.60279 0.42818 0.85152 0.0
H1896 H 0.08091 0.59388 0.66574 0.0
H1897 H 0.09124 0.58474 0.70346 0.0
H1898 H 0.10777 0.67019 0.71348 0.0
H1899 H 0.09654 0.67958 0.67596 0.0
H1900 H 0.13575 0.59121 0.727 0.0
H1901 H 0.05383 0.65606 0.76063 0.0
H1902 H 0.05586 0.64792 0.73247 0.0
H1903 H 0.07665 0.67471 0.74354 0.0
C1904 C 0.08681 0.61071 0.67598 0.0
C1905 C 0.08771 0.63747 0.66794 0.0
C1906 C 0.09268 0.60547 0.69754 0.0
C1907 C 0.09968 0.62686 0.71147 0.0
C1908 C 0.1016 0.65347 0.70324 0.0
H1909 H 0.17621 0.60115 0.83595 0.0
H1910 H 0.16614 0.61309 0.79871 0.0
C1911 C 0.09541 0.65877 0.68174 0.0
C1912 C 0.10518 0.6212 0.7345 0.0
H1913 H 0.08654 0.63902 0.78543 0.0
C1914 C 0.12492 0.60161 0.73977 0.0
C1915 C 0.09071 0.63441 0.7512 0.0
C1916 C 0.06789 0.65423 0.74671 0.0
C1917 C 0.13084 0.59509 0.76121 0.0
C1918 C 0.11724 0.60917 0.77791 0.0
C1919 C 0.09723 0.6285 0.77265 0.0
C1920 C 0.12308 0.60372 0.80092 0.0
C1921 C 0.15111 0.57265 0.76568 0.0
C1922 C 0.10199 0.59586 0.81492 0.0
C1923 C 0.10761 0.58957 0.83637 0.0
C1924 C 0.13445 0.5909 0.84417 0.0
C1925 C 0.15537 0.59964 0.83034 0.0
C1926 C 0.14968 0.60625 0.80899 0.0
H1927 H 0.15326 0.5587 0.75175 0.0
H1928 H 0.17141 0.58181 0.76885 0.0
H1929 H 0.14502 0.56044 0.77992 0.0
H1930 H 0.08126 0.59397 0.80911 0.0
H1931 H 0.09107 0.58289 0.84665 0.0
H1932 H 0.92514 0.09447 0.84994 0.0
H1933 H 0.9135 0.08543 0.81241 0.0
H1934 H 0.93103 0.16922 0.79638 0.0
H1935 H 0.94195 0.17856 0.83391 0.0
H1936 H 0.88531 0.15186 0.77685 0.0
H1937 H 0.96791 0.07649 0.76428 0.0
H1938 H 0.94542 0.0675 0.78588 0.0
H1939 H 0.96611 0.09772 0.78784 0.0
C1940 C 0.92639 0.11099 0.83842 0.0
C1941 C 0.9346 0.13719 0.84485 0.0
C1942 C 0.91995 0.10574 0.81695 0.0
C1943 C 0.92198 0.1265 0.80147 0.0
C1944 C 0.92948 0.15284 0.808 0.0
H1945 H 0.9288 0.09859 0.66343 0.0
H1946 H 0.93885 0.11109 0.70065 0.0
C1947 C 0.9357 0.15815 0.82947 0.0
C1948 C 0.91631 0.12086 0.77848 0.0
H1949 H 0.93515 0.08056 0.73636 0.0
C1950 C 0.89627 0.13633 0.76797 0.0
C1951 C 0.93097 0.10095 0.76678 0.0
C1952 C 0.95399 0.0849 0.77669 0.0
C1953 C 0.89015 0.13211 0.74621 0.0
C1954 C 0.90399 0.11139 0.73477 0.0
C1955 C 0.92436 0.09626 0.74518 0.0
C1956 C 0.89758 0.10491 0.71203 0.0
C1957 C 0.86928 0.15027 0.73563 0.0
C1958 C 0.87109 0.09717 0.70606 0.0
C1959 C 0.86526 0.09028 0.6848 0.0
C1960 C 0.88591 0.09059 0.66913 0.0
C1961 C 0.91245 0.09823 0.67513 0.0
C1962 C 0.91823 0.10532 0.69639 0.0
H1963 H 0.86698 0.16989 0.74433 0.0
H1964 H 0.87488 0.15472 0.71872 0.0
H1965 H 0.84918 0.13986 0.73576 0.0
H1966 H 0.85498 0.09598 0.71791 0.0
H1967 H 0.84466 0.08421 0.68074 0.0
loop_
_geom_bond_atom_site_label_1
_geom_bond_atom_site_label_2
_geom_bond_distance
_geom_bond_site_symmetry_2
_ccdc_geom_bond_type
Co0 N4 2.148 . S
Co0 N10 2.086 1_545 S
Co0 N20 2.194 . S
Co0 O25 2.351 . S
Co0 O26 2.155 . S
Co0 O27 2.096 . S
C1 N4 1.301 . S
C1 N5 1.328 . S
C1 H6 0.930 . S
C2 C3 1.333 . S
C2 N4 1.317 . S
C2 H7 0.930 . S
C3 C2 1.333 . S
C3 N5 1.350 . S
C3 H29 0.931 . S
N4 Co0 2.148 . S
N4 C1 1.301 . S
N4 C2 1.317 . S
N5 C1 1.328 . S
N5 C3 1.350 . S
H6 C1 0.930 . S
H7 C2 0.930 . S
C8 O9 1.224 . S
C8 O27 1.247 . S
O9 C8 1.224 . S
N10 Co0 2.086 1_565 S
N10 C11 1.384 . S
N10 C13 1.336 . S
C11 N10 1.384 . S
C11 C12 1.363 . S
C11 H23 0.929 . S
C12 C11 1.363 . S
C12 N14 1.375 . S
C12 H30 0.931 . S
C13 N10 1.336 . S
C13 N14 1.347 . S
C13 H24 0.929 . S
N14 C12 1.375 . S
N14 C13 1.347 . S
C15 C18 1.365 . S
C15 N20 1.328 . S
C15 H21 0.929 . S
C16 C17 1.362 . S
C16 C19 1.378 . S
C16 H31 0.929 1_545 S
C17 C16 1.362 . S
C17 C18 1.366 . S
C18 C15 1.365 . S
C18 C17 1.366 . S
C18 H32 0.930 . S
C19 C16 1.378 . S
C19 N20 1.315 . S
C19 H22 0.930 . S
N20 Co0 2.194 . S
N20 C15 1.328 . S
N20 C19 1.315 . S
H21 C15 0.929 . S
H22 C19 0.930 . S
H23 C11 0.929 . S
H24 C13 0.929 . S
O25 Co0 2.351 . S
O25 C28 1.244 . S
O26 Co0 2.155 . S
O26 C28 1.240 . S
O27 Co0 2.096 . S
O27 C8 1.247 . S
C28 O25 1.244 . S
C28 O26 1.240 . S
H29 C3 0.931 . S
H30 C12 0.931 . S
H31 C16 0.929 1_565 S
H32 C18 0.930 . S
Co33 N37 2.148 . S
Co33 N43 2.128 . S
Co33 N53 2.194 . S
Co33 O58 2.351 . S
Co33 O59 2.155 . S
Co33 O60 2.096 . S
C34 N37 1.301 . S
C34 N38 1.328 . S
C34 H39 0.930 . S
C35 C36 1.333 . S
C35 N37 1.317 . S
C35 H40 0.930 . S
C36 C35 1.333 . S
C36 N38 1.350 . S
C36 H62 0.931 . S
N37 Co33 2.148 . S
N37 C34 1.301 . S
N37 C35 1.317 . S
N38 C34 1.328 . S
N38 C36 1.350 . S
H39 C34 0.930 . S
H40 C35 0.930 . S
C41 O42 1.224 . S
C41 O60 1.247 . S
O42 C41 1.224 . S
N43 Co33 2.128 . S
N43 C44 1.355 . S
N43 C46 1.311 . S
C44 N43 1.355 . S
C44 C45 1.363 . S
C44 H56 0.929 . S
C45 C44 1.363 . S
C45 N47 1.375 . S
C45 H63 0.931 . S
C46 N43 1.311 . S
C46 N47 1.347 . S
C46 H57 0.929 . S
N47 C45 1.375 . S
N47 C46 1.347 . S
C48 C51 1.365 . S
C48 N53 1.328 . S
C48 H54 0.929 . S
C49 C50 1.362 . S
C49 C52 1.378 . S
C49 H64 0.929 . S
C50 C49 1.362 . S
C50 C51 1.366 . S
C51 C48 1.365 . S
C51 C50 1.366 . S
C51 H65 0.930 . S
C52 C49 1.378 . S
C52 N53 1.315 . S
C52 H55 0.930 . S
N53 Co33 2.194 . S
N53 C48 1.328 . S
N53 C52 1.315 . S
H54 C48 0.929 . S
H55 C52 0.930 . S
H56 C44 0.929 . S
H57 C46 0.929 . S
O58 Co33 2.351 . S
O58 C61 1.244 . S
O59 Co33 2.155 . S
O59 C61 1.240 . S
O60 Co33 2.096 . S
O60 C41 1.247 . S
C61 O58 1.244 . S
C61 O59 1.240 . S
H62 C36 0.931 . S
H63 C45 0.931 . S
H64 C49 0.929 . S
H65 C51 0.930 . S
Co66 N70 2.148 . S
Co66 N76 2.128 . S
Co66 N86 2.194 . S
Co66 O91 2.351 . S
Co66 O92 2.155 . S
Co66 O93 2.096 . S
C67 N70 1.301 . S
C67 N71 1.328 . S
C67 H72 0.930 . S
C68 C69 1.333 . S
C68 N70 1.317 . S
C68 H73 0.930 . S
C69 C68 1.333 . S
C69 N71 1.350 . S
C69 H95 0.931 . S
N70 Co66 2.148 . S
N70 C67 1.301 . S
N70 C68 1.317 . S
N71 C67 1.328 . S
N71 C69 1.350 . S
H72 C67 0.930 . S
H73 C68 0.930 . S
C74 O75 1.224 . S
C74 O93 1.247 . S
O75 C74 1.224 . S
N76 Co66 2.128 . S
N76 C77 1.355 . S
N76 C79 1.311 . S
C77 N76 1.355 . S
C77 C78 1.363 . S
C77 H89 0.929 . S
C78 C77 1.363 . S
C78 N80 1.375 . S
C78 H96 0.931 . S
C79 N76 1.311 . S
C79 N80 1.347 . S
C79 H90 0.929 . S
N80 C78 1.375 . S
N80 C79 1.347 . S
C81 C84 1.365 . S
C81 N86 1.328 . S
C81 H87 0.929 . S
C82 C83 1.362 . S
C82 C85 1.378 . S
C82 H97 0.929 . S
C83 C82 1.362 . S
C83 C84 1.366 . S
C84 C81 1.365 . S
C84 C83 1.366 . S
C84 H98 0.930 . S
C85 C82 1.378 . S
C85 N86 1.315 . S
C85 H88 0.930 . S
N86 Co66 2.194 . S
N86 C81 1.328 . S
N86 C85 1.315 . S
H87 C81 0.929 . S
H88 C85 0.930 . S
H89 C77 0.929 . S
H90 C79 0.929 . S
O91 Co66 2.351 . S
O91 C94 1.244 . S
O92 Co66 2.155 . S
O92 C94 1.240 . S
O93 Co66 2.096 . S
O93 C74 1.247 . S
C94 O91 1.244 . S
C94 O92 1.240 . S
H95 C69 0.931 . S
H96 C78 0.931 . S
H97 C82 0.929 . S
H98 C84 0.930 . S
Co99 N103 2.148 . S
Co99 N109 2.086 1_455 S
Co99 N119 2.194 . S
Co99 O124 2.351 . S
Co99 O125 2.155 . S
Co99 O126 2.096 . S
C100 N103 1.301 . S
C100 N104 1.328 . S
C100 H105 0.930 . S
C101 C102 1.333 . S
C101 N103 1.317 . S
C101 H106 0.930 . S
C102 C101 1.333 . S
C102 N104 1.350 . S
C102 H128 0.931 . S
N103 Co99 2.148 . S
N103 C100 1.301 . S
N103 C101 1.317 . S
N104 C100 1.328 . S
N104 C102 1.350 . S
H105 C100 0.930 . S
H106 C101 0.930 . S
C107 O108 1.224 . S
C107 O126 1.247 . S
O108 C107 1.224 . S
N109 Co99 2.086 1_655 S
N109 C110 1.384 . S
N109 C112 1.336 . S
C110 N109 1.384 . S
C110 C111 1.363 . S
C110 H122 0.929 . S
C111 C110 1.363 . S
C111 N113 1.375 . S
C111 H129 0.931 . S
C112 N109 1.336 . S
C112 N113 1.347 . S
C112 H123 0.929 . S
N113 C111 1.375 . S
N113 C112 1.347 . S
C114 C117 1.365 . S
C114 N119 1.328 . S
C114 H120 0.929 . S
C115 C116 1.362 . S
C115 C118 1.378 . S
C115 H130 0.929 1_455 S
C116 C115 1.362 . S
C116 C117 1.366 . S
C117 C114 1.365 . S
C117 C116 1.366 . S
C117 H131 0.930 . S
C118 C115 1.378 . S
C118 N119 1.315 . S
C118 H121 0.930 . S
N119 Co99 2.194 . S
N119 C114 1.328 . S
N119 C118 1.315 . S
H120 C114 0.929 . S
H121 C118 0.930 . S
H122 C110 0.929 . S
H123 C112 0.929 . S
O124 Co99 2.351 . S
O124 C127 1.244 . S
O125 Co99 2.155 . S
O125 C127 1.240 . S
O126 Co99 2.096 . S
O126 C107 1.247 . S
C127 O124 1.244 . S
C127 O125 1.240 . S
H128 C102 0.931 . S
H129 C111 0.931 . S
H130 C115 0.929 1_655 S
H131 C117 0.930 . S
Co132 N136 2.148 . S
Co132 N142 2.086 1_565 S
Co132 N152 2.194 . S
Co132 O157 2.351 . S
Co132 O158 2.155 . S
Co132 O159 2.096 . S
C133 N136 1.301 . S
C133 N137 1.328 . S
C133 H138 0.930 . S
C134 C135 1.333 . S
C134 N136 1.317 . S
C134 H139 0.930 . S
C135 C134 1.333 . S
C135 N137 1.350 . S
C135 H161 0.931 . S
N136 Co132 2.148 . S
N136 C133 1.301 . S
N136 C134 1.317 . S
N137 C133 1.328 . S
N137 C135 1.350 . S
H138 C133 0.930 . S
H139 C134 0.930 . S
C140 O141 1.224 . S
C140 O159 1.247 . S
O141 C140 1.224 . S
N142 Co132 2.086 1_545 S
N142 C143 1.384 . S
N142 C145 1.336 . S
C143 N142 1.384 . S
C143 C144 1.363 . S
C143 H155 0.929 . S
C144 C143 1.363 . S
C144 N146 1.375 . S
C144 H162 0.931 . S
C145 N142 1.336 . S
C145 N146 1.347 . S
C145 H156 0.929 . S
N146 C144 1.375 . S
N146 C145 1.347 . S
C147 C150 1.365 . S
C147 N152 1.328 . S
C147 H153 0.929 . S
C148 C149 1.362 . S
C148 C151 1.378 . S
C148 H163 0.929 1_565 S
C149 C148 1.362 . S
C149 C150 1.366 . S
C150 C147 1.365 . S
C150 C149 1.366 . S
C150 H164 0.930 . S
C151 C148 1.378 . S
C151 N152 1.315 . S
C151 H154 0.930 . S
N152 Co132 2.194 . S
N152 C147 1.328 . S
N152 C151 1.315 . S
H153 C147 0.929 . S
H154 C151 0.930 . S
H155 C143 0.929 . S
H156 C145 0.929 . S
O157 Co132 2.351 . S
O157 C160 1.244 . S
O158 Co132 2.155 . S
O158 C160 1.240 . S
O159 Co132 2.096 . S
O159 C140 1.247 . S
C160 O157 1.244 . S
C160 O158 1.240 . S
H161 C135 0.931 . S
H162 C144 0.931 . S
H163 C148 0.929 1_545 S
H164 C150 0.930 . S
Co165 N169 2.148 . S
Co165 N175 2.128 . S
Co165 N185 2.194 . S
Co165 O190 2.351 . S
Co165 O191 2.155 . S
Co165 O192 2.096 . S
C166 N169 1.301 . S
C166 N170 1.328 . S
C166 H171 0.930 . S
C167 C168 1.333 . S
C167 N169 1.317 . S
C167 H172 0.930 . S
C168 C167 1.333 . S
C168 N170 1.350 . S
C168 H194 0.931 . S
N169 Co165 2.148 . S
N169 C166 1.301 . S
N169 C167 1.317 . S
N170 C166 1.328 . S
N170 C168 1.350 . S
H171 C166 0.930 . S
H172 C167 0.930 . S
C173 O174 1.224 . S
C173 O192 1.247 . S
O174 C173 1.224 . S
N175 Co165 2.128 . S
N175 C176 1.355 . S
N175 C178 1.311 . S
C176 N175 1.355 . S
C176 C177 1.363 . S
C176 H188 0.929 . S
C177 C176 1.363 . S
C177 N179 1.375 . S
C177 H195 0.931 . S
C178 N175 1.311 . S
C178 N179 1.347 . S
C178 H189 0.929 . S
N179 C177 1.375 . S
N179 C178 1.347 . S
C180 C183 1.365 . S
C180 N185 1.328 . S
C180 H186 0.929 . S
C181 C182 1.362 . S
C181 C184 1.378 . S
C181 H196 0.929 . S
C182 C181 1.362 . S
C182 C183 1.366 . S
C183 C180 1.365 . S
C183 C182 1.366 . S
C183 H197 0.930 . S
C184 C181 1.378 . S
C184 N185 1.315 . S
C184 H187 0.930 . S
N185 Co165 2.194 . S
N185 C180 1.328 . S
N185 C184 1.315 . S
H186 C180 0.929 . S
H187 C184 0.930 . S
H188 C176 0.929 . S
H189 C178 0.929 . S
O190 Co165 2.351 . S
O190 C193 1.244 . S
O191 Co165 2.155 . S
O191 C193 1.240 . S
O192 Co165 2.096 . S
O192 C173 1.247 . S
C193 O190 1.244 . S
C193 O191 1.240 . S
H194 C168 0.931 . S
H195 C177 0.931 . S
H196 C181 0.929 . S
H197 C183 0.930 . S
Co198 N202 2.148 . S
Co198 N208 2.128 . S
Co198 N218 2.194 . S
Co198 O223 2.351 . S
Co198 O224 2.155 . S
Co198 O225 2.096 . S
C199 N202 1.301 . S
C199 N203 1.328 . S
C199 H204 0.930 . S
C200 C201 1.333 . S
C200 N202 1.317 . S
C200 H205 0.930 . S
C201 C200 1.333 . S
C201 N203 1.350 . S
C201 H227 0.931 . S
N202 Co198 2.148 . S
N202 C199 1.301 . S
N202 C200 1.317 . S
N203 C199 1.328 . S
N203 C201 1.350 . S
H204 C199 0.930 . S
H205 C200 0.930 . S
C206 O207 1.224 . S
C206 O225 1.247 . S
O207 C206 1.224 . S
N208 Co198 2.128 . S
N208 C209 1.355 . S
N208 C211 1.311 . S
C209 N208 1.355 . S
C209 C210 1.363 . S
C209 H221 0.929 . S
C210 C209 1.363 . S
C210 N212 1.375 . S
C210 H228 0.931 . S
C211 N208 1.311 . S
C211 N212 1.347 . S
C211 H222 0.929 . S
N212 C210 1.375 . S
N212 C211 1.347 . S
C213 C216 1.365 . S
C213 N218 1.328 . S
C213 H219 0.929 . S
C214 C215 1.362 . S
C214 C217 1.378 . S
C214 H229 0.929 . S
C215 C214 1.362 . S
C215 C216 1.366 . S
C216 C213 1.365 . S
C216 C215 1.366 . S
C216 H230 0.930 . S
C217 C214 1.378 . S
C217 N218 1.315 . S
C217 H220 0.930 . S
N218 Co198 2.194 . S
N218 C213 1.328 . S
N218 C217 1.315 . S
H219 C213 0.929 . S
H220 C217 0.930 . S
H221 C209 0.929 . S
H222 C211 0.929 . S
O223 Co198 2.351 . S
O223 C226 1.244 . S
O224 Co198 2.155 . S
O224 C226 1.240 . S
O225 Co198 2.096 . S
O225 C206 1.247 . S
C226 O223 1.244 . S
C226 O224 1.240 . S
H227 C201 0.931 . S
H228 C210 0.931 . S
H229 C214 0.929 . S
H230 C216 0.930 . S
Co231 N235 2.148 . S
Co231 N241 2.086 1_655 S
Co231 N251 2.194 . S
Co231 O256 2.351 . S
Co231 O257 2.155 . S
Co231 O258 2.096 . S
C232 N235 1.301 . S
C232 N236 1.328 . S
C232 H237 0.930 . S
C233 C234 1.333 . S
C233 N235 1.317 . S
C233 H238 0.930 . S
C234 C233 1.333 . S
C234 N236 1.350 . S
C234 H260 0.931 . S
N235 Co231 2.148 . S
N235 C232 1.301 . S
N235 C233 1.317 . S
N236 C232 1.328 . S
N236 C234 1.350 . S
H237 C232 0.930 . S
H238 C233 0.930 . S
C239 O240 1.224 . S
C239 O258 1.247 . S
O240 C239 1.224 . S
N241 Co231 2.086 1_455 S
N241 C242 1.384 . S
N241 C244 1.336 . S
C242 N241 1.384 . S
C242 C243 1.363 . S
C242 H254 0.929 . S
C243 C242 1.363 . S
C243 N245 1.375 . S
C243 H261 0.931 . S
C244 N241 1.336 . S
C244 N245 1.347 . S
C244 H255 0.929 . S
N245 C243 1.375 . S
N245 C244 1.347 . S
C246 C249 1.365 . S
C246 N251 1.328 . S
C246 H252 0.929 . S
C247 C248 1.362 . S
C247 C250 1.378 . S
C247 H262 0.929 1_655 S
C248 C247 1.362 . S
C248 C249 1.366 . S
C249 C246 1.365 . S
C249 C248 1.366 . S
C249 H263 0.930 . S
C250 C247 1.378 . S
C250 N251 1.315 . S
C250 H253 0.930 . S
N251 Co231 2.194 . S
N251 C246 1.328 . S
N251 C250 1.315 . S
H252 C246 0.929 . S
H253 C250 0.930 . S
H254 C242 0.929 . S
H255 C244 0.929 . S
O256 Co231 2.351 . S
O256 C259 1.244 . S
O257 Co231 2.155 . S
O257 C259 1.240 . S
O258 Co231 2.096 . S
O258 C239 1.247 . S
C259 O256 1.244 . S
C259 O257 1.240 . S
H260 C234 0.931 . S
H261 C243 0.931 . S
H262 C247 0.929 1_455 S
H263 C249 0.930 . S
Co264 N268 2.148 . S
Co264 N274 2.086 1_565 S
Co264 N284 2.194 . S
Co264 O289 2.351 . S
Co264 O290 2.155 . S
Co264 O291 2.096 . S
C265 N268 1.301 . S
C265 N269 1.328 . S
C265 H270 0.930 . S
C266 C267 1.333 . S
C266 N268 1.317 . S
C266 H271 0.930 . S
C267 C266 1.333 . S
C267 N269 1.350 . S
C267 H293 0.931 . S
N268 Co264 2.148 . S
N268 C265 1.301 . S
N268 C266 1.317 . S
N269 C265 1.328 . S
N269 C267 1.350 . S
H270 C265 0.930 . S
H271 C266 0.930 . S
C272 O273 1.224 . S
C272 O291 1.247 . S
O273 C272 1.224 . S
N274 Co264 2.086 1_545 S
N274 C275 1.384 . S
N274 C277 1.336 . S
C275 N274 1.384 . S
C275 C276 1.363 . S
C275 H287 0.929 . S
C276 C275 1.363 . S
C276 N278 1.375 . S
C276 H294 0.931 . S
C277 N274 1.336 . S
C277 N278 1.347 . S
C277 H288 0.929 . S
N278 C276 1.375 . S
N278 C277 1.347 . S
C279 C282 1.365 . S
C279 N284 1.328 . S
C279 H285 0.929 . S
C280 C281 1.362 . S
C280 C283 1.378 . S
C280 H295 0.929 1_565 S
C281 C280 1.362 . S
C281 C282 1.366 . S
C282 C279 1.365 . S
C282 C281 1.366 . S
C282 H296 0.930 . S
C283 C280 1.378 . S
C283 N284 1.315 . S
C283 H286 0.930 . S
N284 Co264 2.194 . S
N284 C279 1.328 . S
N284 C283 1.315 . S
H285 C279 0.929 . S
H286 C283 0.930 . S
H287 C275 0.929 . S
H288 C277 0.929 . S
O289 Co264 2.351 . S
O289 C292 1.244 . S
O290 Co264 2.155 . S
O290 C292 1.240 . S
O291 Co264 2.096 . S
O291 C272 1.247 . S
C292 O289 1.244 . S
C292 O290 1.240 . S
H293 C267 0.931 . S
H294 C276 0.931 . S
H295 C280 0.929 1_545 S
H296 C282 0.930 . S
Co297 N301 2.148 . S
Co297 N307 2.128 . S
Co297 N317 2.194 . S
Co297 O322 2.351 . S
Co297 O323 2.155 . S
Co297 O324 2.096 . S
C298 N301 1.301 . S
C298 N302 1.328 . S
C298 H303 0.930 . S
C299 C300 1.333 . S
C299 N301 1.317 . S
C299 H304 0.930 . S
C300 C299 1.333 . S
C300 N302 1.350 . S
C300 H326 0.931 . S
N301 Co297 2.148 . S
N301 C298 1.301 . S
N301 C299 1.317 . S
N302 C298 1.328 . S
N302 C300 1.350 . S
H303 C298 0.930 . S
H304 C299 0.930 . S
C305 O306 1.224 . S
C305 O324 1.247 . S
O306 C305 1.224 . S
N307 Co297 2.128 . S
N307 C308 1.355 . S
N307 C310 1.311 . S
C308 N307 1.355 . S
C308 C309 1.363 . S
C308 H320 0.929 . S
C309 C308 1.363 . S
C309 N311 1.375 . S
C309 H327 0.931 . S
C310 N307 1.311 . S
C310 N311 1.347 . S
C310 H321 0.929 . S
N311 C309 1.375 . S
N311 C310 1.347 . S
C312 C315 1.365 . S
C312 N317 1.328 . S
C312 H318 0.929 . S
C313 C314 1.362 . S
C313 C316 1.378 . S
C313 H328 0.929 . S
C314 C313 1.362 . S
C314 C315 1.366 . S
C315 C312 1.365 . S
C315 C314 1.366 . S
C315 H329 0.930 . S
C316 C313 1.378 . S
C316 N317 1.315 . S
C316 H319 0.930 . S
N317 Co297 2.194 . S
N317 C312 1.328 . S
N317 C316 1.315 . S
H318 C312 0.929 . S
H319 C316 0.930 . S
H320 C308 0.929 . S
H321 C310 0.929 . S
O322 Co297 2.351 . S
O322 C325 1.244 . S
O323 Co297 2.155 . S
O323 C325 1.240 . S
O324 Co297 2.096 . S
O324 C305 1.247 . S
C325 O322 1.244 . S
C325 O323 1.240 . S
H326 C300 0.931 . S
H327 C309 0.931 . S
H328 C313 0.929 . S
H329 C315 0.930 . S
Co330 N334 2.148 . S
Co330 N340 2.128 . S
Co330 N350 2.194 . S
Co330 O355 2.351 . S
Co330 O356 2.155 . S
Co330 O357 2.096 . S
C331 N334 1.301 . S
C331 N335 1.328 . S
C331 H336 0.930 . S
C332 C333 1.333 . S
C332 N334 1.317 . S
C332 H337 0.930 . S
C333 C332 1.333 . S
C333 N335 1.350 . S
C333 H359 0.931 . S
N334 Co330 2.148 . S
N334 C331 1.301 . S
N334 C332 1.317 . S
N335 C331 1.328 . S
N335 C333 1.350 . S
H336 C331 0.930 . S
H337 C332 0.930 . S
C338 O339 1.224 . S
C338 O357 1.247 . S
O339 C338 1.224 . S
N340 Co330 2.128 . S
N340 C341 1.355 . S
N340 C343 1.311 . S
C341 N340 1.355 . S
C341 C342 1.363 . S
C341 H353 0.929 . S
C342 C341 1.363 . S
C342 N344 1.375 . S
C342 H360 0.931 . S
C343 N340 1.311 . S
C343 N344 1.347 . S
C343 H354 0.929 . S
N344 C342 1.375 . S
N344 C343 1.347 . S
C345 C348 1.365 . S
C345 N350 1.328 . S
C345 H351 0.929 . S
C346 C347 1.362 . S
C346 C349 1.378 . S
C346 H361 0.929 . S
C347 C346 1.362 . S
C347 C348 1.366 . S
C348 C345 1.365 . S
C348 C347 1.366 . S
C348 H362 0.930 . S
C349 C346 1.378 . S
C349 N350 1.315 . S
C349 H352 0.930 . S
N350 Co330 2.194 . S
N350 C345 1.328 . S
N350 C349 1.315 . S
H351 C345 0.929 . S
H352 C349 0.930 . S
H353 C341 0.929 . S
H354 C343 0.929 . S
O355 Co330 2.351 . S
O355 C358 1.244 . S
O356 Co330 2.155 . S
O356 C358 1.240 . S
O357 Co330 2.096 . S
O357 C338 1.247 . S
C358 O355 1.244 . S
C358 O356 1.240 . S
H359 C333 0.931 . S
H360 C342 0.931 . S
H361 C346 0.929 . S
H362 C348 0.930 . S
Co363 N367 2.148 . S
Co363 N373 2.086 1_655 S
Co363 N383 2.194 . S
Co363 O388 2.351 . S
Co363 O389 2.155 . S
Co363 O390 2.096 . S
C364 N367 1.301 . S
C364 N368 1.328 . S
C364 H369 0.930 . S
C365 C366 1.333 . S
C365 N367 1.317 . S
C365 H370 0.930 . S
C366 C365 1.333 . S
C366 N368 1.350 . S
C366 H392 0.931 . S
N367 Co363 2.148 . S
N367 C364 1.301 . S
N367 C365 1.317 . S
N368 C364 1.328 . S
N368 C366 1.350 . S
H369 C364 0.930 . S
H370 C365 0.930 . S
C371 O372 1.224 . S
C371 O390 1.247 . S
O372 C371 1.224 . S
N373 Co363 2.086 1_455 S
N373 C374 1.384 . S
N373 C376 1.336 . S
C374 N373 1.384 . S
C374 C375 1.363 . S
C374 H386 0.929 . S
C375 C374 1.363 . S
C375 N377 1.375 . S
C375 H393 0.931 . S
C376 N373 1.336 . S
C376 N377 1.347 . S
C376 H387 0.929 . S
N377 C375 1.375 . S
N377 C376 1.347 . S
C378 C381 1.365 . S
C378 N383 1.328 . S
C378 H384 0.929 . S
C379 C380 1.362 . S
C379 C382 1.378 . S
C379 H394 0.929 1_655 S
C380 C379 1.362 . S
C380 C381 1.366 . S
C381 C378 1.365 . S
C381 C380 1.366 . S
C381 H395 0.930 . S
C382 C379 1.378 . S
C382 N383 1.315 . S
C382 H385 0.930 . S
N383 Co363 2.194 . S
N383 C378 1.328 . S
N383 C382 1.315 . S
H384 C378 0.929 . S
H385 C382 0.930 . S
H386 C374 0.929 . S
H387 C376 0.929 . S
O388 Co363 2.351 . S
O388 C391 1.244 . S
O389 Co363 2.155 . S
O389 C391 1.240 . S
O390 Co363 2.096 . S
O390 C371 1.247 . S
C391 O388 1.244 . S
C391 O389 1.240 . S
H392 C366 0.931 . S
H393 C375 0.931 . S
H394 C379 0.929 1_455 S
H395 C381 0.930 . S
Co396 N400 2.148 . S
Co396 N406 2.086 1_545 S
Co396 N416 2.194 . S
Co396 O421 2.351 . S
Co396 O422 2.155 . S
Co396 O423 2.096 . S
C397 N400 1.301 . S
C397 N401 1.328 . S
C397 H402 0.930 . S
C398 C399 1.333 . S
C398 N400 1.317 . S
C398 H403 0.930 . S
C399 C398 1.333 . S
C399 N401 1.350 . S
C399 H425 0.931 . S
N400 Co396 2.148 . S
N400 C397 1.301 . S
N400 C398 1.317 . S
N401 C397 1.328 . S
N401 C399 1.350 . S
H402 C397 0.930 . S
H403 C398 0.930 . S
C404 O405 1.224 . S
C404 O423 1.247 . S
O405 C404 1.224 . S
N406 Co396 2.086 1_565 S
N406 C407 1.384 . S
N406 C409 1.336 . S
C407 N406 1.384 . S
C407 C408 1.363 . S
C407 H419 0.929 . S
C408 C407 1.363 . S
C408 N410 1.375 . S
C408 H426 0.931 . S
C409 N406 1.336 . S
C409 N410 1.347 . S
C409 H420 0.929 . S
N410 C408 1.375 . S
N410 C409 1.347 . S
C411 C414 1.365 . S
C411 N416 1.328 . S
C411 H417 0.929 . S
C412 C413 1.362 . S
C412 C415 1.378 . S
C412 H427 0.929 1_545 S
C413 C412 1.362 . S
C413 C414 1.366 . S
C414 C411 1.365 . S
C414 C413 1.366 . S
C414 H428 0.930 . S
C415 C412 1.378 . S
C415 N416 1.315 . S
C415 H418 0.930 . S
N416 Co396 2.194 . S
N416 C411 1.328 . S
N416 C415 1.315 . S
H417 C411 0.929 . S
H418 C415 0.930 . S
H419 C407 0.929 . S
H420 C409 0.929 . S
O421 Co396 2.351 . S
O421 C424 1.244 . S
O422 Co396 2.155 . S
O422 C424 1.240 . S
O423 Co396 2.096 . S
O423 C404 1.247 . S
C424 O421 1.244 . S
C424 O422 1.240 . S
H425 C399 0.931 . S
H426 C408 0.931 . S
H427 C412 0.929 1_565 S
H428 C414 0.930 . S
Co429 N433 2.148 . S
Co429 N439 2.128 . S
Co429 N449 2.194 . S
Co429 O454 2.351 . S
Co429 O455 2.155 . S
Co429 O456 2.096 . S
C430 N433 1.301 . S
C430 N434 1.328 . S
C430 H435 0.930 . S
C431 C432 1.333 . S
C431 N433 1.317 . S
C431 H436 0.930 . S
C432 C431 1.333 . S
C432 N434 1.350 . S
C432 H458 0.931 . S
N433 Co429 2.148 . S
N433 C430 1.301 . S
N433 C431 1.317 . S
N434 C430 1.328 . S
N434 C432 1.350 . S
H435 C430 0.930 . S
H436 C431 0.930 . S
C437 O438 1.224 . S
C437 O456 1.247 . S
O438 C437 1.224 . S
N439 Co429 2.128 . S
N439 C440 1.355 . S
N439 C442 1.311 . S
C440 N439 1.355 . S
C440 C441 1.363 . S
C440 H452 0.929 . S
C441 C440 1.363 . S
C441 N443 1.375 . S
C441 H459 0.931 . S
C442 N439 1.311 . S
C442 N443 1.347 . S
C442 H453 0.929 . S
N443 C441 1.375 . S
N443 C442 1.347 . S
C444 C447 1.365 . S
C444 N449 1.328 . S
C444 H450 0.929 . S
C445 C446 1.362 . S
C445 C448 1.378 . S
C445 H460 0.929 . S
C446 C445 1.362 . S
C446 C447 1.366 . S
C447 C444 1.365 . S
C447 C446 1.366 . S
C447 H461 0.930 . S
C448 C445 1.378 . S
C448 N449 1.315 . S
C448 H451 0.930 . S
N449 Co429 2.194 . S
N449 C444 1.328 . S
N449 C448 1.315 . S
H450 C444 0.929 . S
H451 C448 0.930 . S
H452 C440 0.929 . S
H453 C442 0.929 . S
O454 Co429 2.351 . S
O454 C457 1.244 . S
O455 Co429 2.155 . S
O455 C457 1.240 . S
O456 Co429 2.096 . S
O456 C437 1.247 . S
C457 O454 1.244 . S
C457 O455 1.240 . S
H458 C432 0.931 . S
H459 C441 0.931 . S
H460 C445 0.929 . S
H461 C447 0.930 . S
Co462 N466 2.148 . S
Co462 N472 2.128 . S
Co462 N482 2.194 . S
Co462 O487 2.351 . S
Co462 O488 2.155 . S
Co462 O489 2.096 . S
C463 N466 1.301 . S
C463 N467 1.328 . S
C463 H468 0.930 . S
C464 C465 1.333 . S
C464 N466 1.317 . S
C464 H469 0.930 . S
C465 C464 1.333 . S
C465 N467 1.350 . S
C465 H491 0.931 . S
N466 Co462 2.148 . S
N466 C463 1.301 . S
N466 C464 1.317 . S
N467 C463 1.328 . S
N467 C465 1.350 . S
H468 C463 0.930 . S
H469 C464 0.930 . S
C470 O471 1.224 . S
C470 O489 1.247 . S
O471 C470 1.224 . S
N472 Co462 2.128 . S
N472 C473 1.355 . S
N472 C475 1.311 . S
C473 N472 1.355 . S
C473 C474 1.363 . S
C473 H485 0.929 . S
C474 C473 1.363 . S
C474 N476 1.375 . S
C474 H492 0.931 . S
C475 N472 1.311 . S
C475 N476 1.347 . S
C475 H486 0.929 . S
N476 C474 1.375 . S
N476 C475 1.347 . S
C477 C480 1.365 . S
C477 N482 1.328 . S
C477 H483 0.929 . S
C478 C479 1.362 . S
C478 C481 1.378 . S
C478 H493 0.929 . S
C479 C478 1.362 . S
C479 C480 1.366 . S
C480 C477 1.365 . S
C480 C479 1.366 . S
C480 H494 0.930 . S
C481 C478 1.378 . S
C481 N482 1.315 . S
C481 H484 0.930 . S
N482 Co462 2.194 . S
N482 C477 1.328 . S
N482 C481 1.315 . S
H483 C477 0.929 . S
H484 C481 0.930 . S
H485 C473 0.929 . S
H486 C475 0.929 . S
O487 Co462 2.351 . S
O487 C490 1.244 . S
O488 Co462 2.155 . S
O488 C490 1.240 . S
O489 Co462 2.096 . S
O489 C470 1.247 . S
C490 O487 1.244 . S
C490 O488 1.240 . S
H491 C465 0.931 . S
H492 C474 0.931 . S
H493 C478 0.929 . S
H494 C480 0.930 . S
Co495 N499 2.148 . S
Co495 N505 2.086 1_455 S
Co495 N515 2.194 . S
Co495 O520 2.351 . S
Co495 O521 2.155 . S
Co495 O522 2.096 . S
C496 N499 1.301 . S
C496 N500 1.328 . S
C496 H501 0.930 . S
C497 C498 1.333 . S
C497 N499 1.317 . S
C497 H502 0.930 . S
C498 C497 1.333 . S
C498 N500 1.350 . S
C498 H524 0.931 . S
N499 Co495 2.148 . S
N499 C496 1.301 . S
N499 C497 1.317 . S
N500 C496 1.328 . S
N500 C498 1.350 . S
H501 C496 0.930 . S
H502 C497 0.930 . S
C503 O504 1.224 . S
C503 O522 1.247 . S
O504 C503 1.224 . S
N505 Co495 2.086 1_655 S
N505 C506 1.384 . S
N505 C508 1.336 . S
C506 N505 1.384 . S
C506 C507 1.363 . S
C506 H518 0.929 . S
C507 C506 1.363 . S
C507 N509 1.375 . S
C507 H525 0.931 . S
C508 N505 1.336 . S
C508 N509 1.347 . S
C508 H519 0.929 . S
N509 C507 1.375 . S
N509 C508 1.347 . S
C510 C513 1.365 . S
C510 N515 1.328 . S
C510 H516 0.929 . S
C511 C512 1.362 . S
C511 C514 1.378 . S
C511 H526 0.929 1_455 S
C512 C511 1.362 . S
C512 C513 1.366 . S
C513 C510 1.365 . S
C513 C512 1.366 . S
C513 H527 0.930 . S
C514 C511 1.378 . S
C514 N515 1.315 . S
C514 H517 0.930 . S
N515 Co495 2.194 . S
N515 C510 1.328 . S
N515 C514 1.315 . S
H516 C510 0.929 . S
H517 C514 0.930 . S
H518 C506 0.929 . S
H519 C508 0.929 . S
O520 Co495 2.351 . S
O520 C523 1.244 . S
O521 Co495 2.155 . S
O521 C523 1.240 . S
O522 Co495 2.096 . S
O522 C503 1.247 . S
C523 O520 1.244 . S
C523 O521 1.240 . S
H524 C498 0.931 . S
H525 C507 0.931 . S
H526 C511 0.929 1_655 S
H527 C513 0.930 . S
H528 C536 0.929 . S
H529 C538 0.930 . S
H530 C540 0.930 . S
H531 C543 0.929 . S
H532 C546 0.930 . S
H533 C548 0.960 . S
H534 C548 0.960 . S
H535 C548 0.960 . S
C536 H528 0.929 . S
C536 C537 1.377 . S
C536 C538 1.384 . S
C537 C536 1.377 . S
C537 C543 1.390 . S
C538 H529 0.930 . S
C538 C536 1.384 . S
C538 C539 1.372 . S
C539 C538 1.372 . S
C539 C540 1.400 . S
C539 C544 1.490 . S
C540 H530 0.930 . S
C540 C539 1.400 . S
C540 C543 1.386 . S
H541 C557 0.930 . S
H542 C558 0.931 . S
C543 H531 0.929 . S
C543 C537 1.390 . S
C543 C540 1.386 . S
C544 C539 1.490 . S
C544 C546 1.395 . S
C544 C547 1.403 . S
H545 C551 0.930 . S
C546 H532 0.930 . S
C546 C544 1.395 . S
C546 C549 1.403 . S
C547 C544 1.403 . S
C547 C548 1.524 . S
C547 C551 1.400 . S
C548 H533 0.960 . S
C548 H534 0.960 . S
C548 H535 0.960 . S
C548 C547 1.524 . S
C549 C546 1.403 . S
C549 C550 1.392 . S
C549 C553 1.495 . S
C550 C549 1.392 . S
C550 C551 1.385 . S
C550 C552 1.478 . S
C551 H545 0.930 . S
C551 C547 1.400 . S
C551 C550 1.385 . S
C552 C550 1.478 . S
C552 C554 1.381 . S
C552 C558 1.383 . S
C553 C549 1.495 . S
C553 H559 0.959 . S
C553 H560 0.961 . S
C553 H561 0.960 . S
C554 C552 1.381 . S
C554 C555 1.394 . S
C554 H562 0.930 . S
C555 C554 1.394 . S
C555 C556 1.383 . S
C555 H563 0.929 . S
C556 C555 1.383 . S
C556 C557 1.377 . S
C557 H541 0.930 . S
C557 C556 1.377 . S
C557 C558 1.379 . S
C558 H542 0.931 . S
C558 C552 1.383 . S
C558 C557 1.379 . S
H559 C553 0.959 . S
H560 C553 0.961 . S
H561 C553 0.960 . S
H562 C554 0.930 . S
H563 C555 0.929 . S
H564 C572 0.929 . S
H565 C574 0.930 . S
H566 C576 0.930 . S
H567 C579 0.929 . S
H568 C582 0.930 . S
H569 C584 0.960 . S
H570 C584 0.960 . S
H571 C584 0.960 . S
C572 H564 0.929 . S
C572 C573 1.377 . S
C572 C574 1.384 . S
C573 C572 1.377 . S
C573 C579 1.390 . S
C574 H565 0.930 . S
C574 C572 1.384 . S
C574 C575 1.372 . S
C575 C574 1.372 . S
C575 C576 1.400 . S
C575 C580 1.490 . S
C576 H566 0.930 . S
C576 C575 1.400 . S
C576 C579 1.386 . S
H577 C593 0.930 . S
H578 C594 0.931 . S
C579 H567 0.929 . S
C579 C573 1.390 . S
C579 C576 1.386 . S
C580 C575 1.490 . S
C580 C582 1.395 . S
C580 C583 1.403 . S
H581 C587 0.930 . S
C582 H568 0.930 . S
C582 C580 1.395 . S
C582 C585 1.403 . S
C583 C580 1.403 . S
C583 C584 1.524 . S
C583 C587 1.400 . S
C584 H569 0.960 . S
C584 H570 0.960 . S
C584 H571 0.960 . S
C584 C583 1.524 . S
C585 C582 1.403 . S
C585 C586 1.392 . S
C585 C589 1.495 . S
C586 C585 1.392 . S
C586 C587 1.385 . S
C586 C588 1.478 . S
C587 H581 0.930 . S
C587 C583 1.400 . S
C587 C586 1.385 . S
C588 C586 1.478 . S
C588 C590 1.381 . S
C588 C594 1.383 . S
C589 C585 1.495 . S
C589 H595 0.959 . S
C589 H596 0.961 . S
C589 H597 0.960 . S
C590 C588 1.381 . S
C590 C591 1.394 . S
C590 H598 0.930 . S
C591 C590 1.394 . S
C591 C592 1.383 . S
C591 H599 0.929 . S
C592 C591 1.383 . S
C592 C593 1.377 . S
C593 H577 0.930 . S
C593 C592 1.377 . S
C593 C594 1.379 . S
C594 H578 0.931 . S
C594 C588 1.383 . S
C594 C593 1.379 . S
H595 C589 0.959 . S
H596 C589 0.961 . S
H597 C589 0.960 . S
H598 C590 0.930 . S
H599 C591 0.929 . S
H600 C608 0.929 . S
H601 C610 0.930 . S
H602 C612 0.930 . S
H603 C615 0.929 . S
H604 C618 0.930 . S
H605 C620 0.960 1_455 S
H606 C620 0.962 . S
H607 C620 0.960 1_455 S
C608 H600 0.929 . S
C608 C609 1.377 . S
C608 C610 1.384 . S
C609 C608 1.377 . S
C609 C615 1.390 1_655 S
C610 H601 0.930 . S
C610 C608 1.384 . S
C610 C611 1.372 . S
C611 C610 1.372 . S
C611 C612 1.400 . S
C611 C616 1.490 . S
C612 H602 0.930 . S
C612 C611 1.400 . S
C612 C615 1.386 1_655 S
H613 C629 0.930 . S
H614 C630 0.931 . S
C615 H603 0.929 . S
C615 C609 1.390 1_455 S
C615 C612 1.386 1_455 S
C616 C611 1.490 . S
C616 C618 1.395 . S
C616 C619 1.403 . S
H617 C623 0.930 . S
C618 H604 0.930 . S
C618 C616 1.395 . S
C618 C621 1.403 . S
C619 C616 1.403 . S
C619 C620 1.524 . S
C619 C623 1.400 . S
C620 H605 0.960 1_655 S
C620 H606 0.962 . S
C620 H607 0.960 1_655 S
C620 C619 1.524 . S
C621 C618 1.403 . S
C621 C622 1.392 . S
C621 C625 1.495 . S
C622 C621 1.392 . S
C622 C623 1.385 . S
C622 C624 1.478 . S
C623 H617 0.930 . S
C623 C619 1.400 . S
C623 C622 1.385 . S
C624 C622 1.478 . S
C624 C626 1.381 . S
C624 C630 1.383 . S
C625 C621 1.495 . S
C625 H631 0.959 . S
C625 H632 0.961 . S
C625 H633 0.960 . S
C626 C624 1.381 . S
C626 C627 1.394 . S
C626 H634 0.930 . S
C627 C626 1.394 . S
C627 C628 1.383 . S
C627 H635 0.929 . S
C628 C627 1.383 . S
C628 C629 1.377 . S
C629 H613 0.930 . S
C629 C628 1.377 . S
C629 C630 1.379 . S
C630 H614 0.931 . S
C630 C624 1.383 . S
C630 C629 1.379 . S
H631 C625 0.959 . S
H632 C625 0.961 . S
H633 C625 0.960 . S
H634 C626 0.930 . S
H635 C627 0.929 . S
H636 C644 0.929 . S
H637 C646 0.930 . S
H638 C648 0.930 . S
H639 C651 0.929 . S
H640 C654 0.930 . S
H641 C656 0.960 . S
H642 C656 0.960 . S
H643 C656 0.960 . S
C644 H636 0.929 . S
C644 C645 1.377 . S
C644 C646 1.384 . S
C645 C644 1.377 . S
C645 C651 1.390 . S
C646 H637 0.930 . S
C646 C644 1.384 . S
C646 C647 1.372 . S
C647 C646 1.372 . S
C647 C648 1.400 . S
C647 C652 1.490 . S
C648 H638 0.930 . S
C648 C647 1.400 . S
C648 C651 1.386 . S
H649 C665 0.930 1_545 S
H650 C666 0.931 . S
C651 H639 0.929 . S
C651 C645 1.390 . S
C651 C648 1.386 . S
C652 C647 1.490 . S
C652 C654 1.395 . S
C652 C655 1.403 . S
H653 C659 0.930 . S
C654 H640 0.930 . S
C654 C652 1.395 . S
C654 C657 1.403 . S
C655 C652 1.403 . S
C655 C656 1.524 . S
C655 C659 1.400 . S
C656 H641 0.960 . S
C656 H642 0.960 . S
C656 H643 0.960 . S
C656 C655 1.524 . S
C657 C654 1.403 . S
C657 C658 1.392 . S
C657 C661 1.495 . S
C658 C657 1.392 . S
C658 C659 1.385 . S
C658 C660 1.478 . S
C659 H653 0.930 . S
C659 C655 1.400 . S
C659 C658 1.385 . S
C660 C658 1.478 . S
C660 C662 1.381 . S
C660 C666 1.383 . S
C661 C657 1.495 . S
C661 H667 0.959 . S
C661 H668 0.961 . S
C661 H669 0.960 . S
C662 C660 1.381 . S
C662 C663 1.394 . S
C662 H670 0.930 . S
C663 C662 1.394 . S
C663 C664 1.383 . S
C663 H671 0.929 . S
C664 C663 1.383 . S
C664 C665 1.377 . S
C665 H649 0.930 1_565 S
C665 C664 1.377 . S
C665 C666 1.379 . S
C666 H650 0.931 . S
C666 C660 1.383 . S
C666 C665 1.379 . S
H667 C661 0.959 . S
H668 C661 0.961 . S
H669 C661 0.960 . S
H670 C662 0.930 . S
H671 C663 0.929 . S
H672 C680 0.929 . S
H673 C682 0.930 . S
H674 C684 0.930 . S
H675 C687 0.929 . S
H676 C690 0.930 . S
H677 C692 0.960 . S
H678 C692 0.960 . S
H679 C692 0.960 . S
C680 H672 0.929 . S
C680 C681 1.377 . S
C680 C682 1.384 . S
C681 C680 1.377 . S
C681 C687 1.390 1_455 S
C682 H673 0.930 . S
C682 C680 1.384 . S
C682 C683 1.372 . S
C683 C682 1.372 . S
C683 C684 1.400 . S
C683 C688 1.490 . S
C684 H674 0.930 . S
C684 C683 1.400 . S
C684 C687 1.386 1_455 S
H685 C701 0.930 . S
H686 C702 0.931 . S
C687 H675 0.929 . S
C687 C681 1.390 1_655 S
C687 C684 1.386 1_655 S
C688 C683 1.490 . S
C688 C690 1.395 . S
C688 C691 1.403 . S
H689 C695 0.930 . S
C690 H676 0.930 . S
C690 C688 1.395 . S
C690 C693 1.403 . S
C691 C688 1.403 . S
C691 C692 1.524 . S
C691 C695 1.400 . S
C692 H677 0.960 . S
C692 H678 0.960 . S
C692 H679 0.960 . S
C692 C691 1.524 . S
C693 C690 1.403 . S
C693 C694 1.392 . S
C693 C697 1.495 . S
C694 C693 1.392 . S
C694 C695 1.385 . S
C694 C696 1.478 . S
C695 H689 0.930 . S
C695 C691 1.400 . S
C695 C694 1.385 . S
C696 C694 1.478 . S
C696 C698 1.381 . S
C696 C702 1.383 . S
C697 C693 1.495 . S
C697 H703 0.959 . S
C697 H704 0.961 . S
C697 H705 0.960 . S
C698 C696 1.381 . S
C698 C699 1.394 . S
C698 H706 0.930 . S
C699 C698 1.394 . S
C699 C700 1.383 . S
C699 H707 0.929 . S
C700 C699 1.383 . S
C700 C701 1.377 . S
C701 H685 0.930 . S
C701 C700 1.377 . S
C701 C702 1.379 . S
C702 H686 0.931 . S
C702 C696 1.383 . S
C702 C701 1.379 . S
H703 C697 0.959 . S
H704 C697 0.961 . S
H705 C697 0.960 . S
H706 C698 0.930 . S
H707 C699 0.929 . S
H708 C716 0.929 . S
H709 C718 0.930 . S
H710 C720 0.930 . S
H711 C723 0.929 . S
H712 C726 0.930 . S
H713 C728 0.960 1_565 S
H714 C728 0.960 1_565 S
H715 C728 0.960 1_565 S
C716 H708 0.929 . S
C716 C717 1.377 . S
C716 C718 1.384 . S
C717 C716 1.377 . S
C717 C723 1.390 1_545 S
C718 H709 0.930 . S
C718 C716 1.384 . S
C718 C719 1.372 . S
C719 C718 1.372 . S
C719 C720 1.400 . S
C719 C724 1.490 . S
C720 H710 0.930 . S
C720 C719 1.400 . S
C720 C723 1.386 1_545 S
H721 C737 0.930 . S
H722 C738 0.931 . S
C723 H711 0.929 . S
C723 C717 1.390 1_565 S
C723 C720 1.386 1_565 S
C724 C719 1.490 . S
C724 C726 1.395 . S
C724 C727 1.403 . S
H725 C731 0.930 . S
C726 H712 0.930 . S
C726 C724 1.395 . S
C726 C729 1.403 . S
C727 C724 1.403 . S
C727 C728 1.524 . S
C727 C731 1.400 . S
C728 H713 0.960 1_545 S
C728 H714 0.960 1_545 S
C728 H715 0.960 1_545 S
C728 C727 1.524 . S
C729 C726 1.403 . S
C729 C730 1.392 . S
C729 C733 1.495 . S
C730 C729 1.392 . S
C730 C731 1.385 . S
C730 C732 1.478 . S
C731 H725 0.930 . S
C731 C727 1.400 . S
C731 C730 1.385 . S
C732 C730 1.478 . S
C732 C734 1.381 . S
C732 C738 1.383 . S
C733 C729 1.495 . S
C733 H739 0.959 . S
C733 H740 0.961 . S
C733 H741 0.960 . S
C734 C732 1.381 . S
C734 C735 1.394 . S
C734 H742 0.930 . S
C735 C734 1.394 . S
C735 C736 1.383 . S
C735 H743 0.929 . S
C736 C735 1.383 . S
C736 C737 1.377 . S
C737 H721 0.930 . S
C737 C736 1.377 . S
C737 C738 1.379 . S
C738 H722 0.931 . S
C738 C732 1.383 . S
C738 C737 1.379 . S
H739 C733 0.959 . S
H740 C733 0.961 . S
H741 C733 0.960 . S
H742 C734 0.930 . S
H743 C735 0.929 . S
H744 C752 0.929 . S
H745 C754 0.930 . S
H746 C756 0.930 . S
H747 C759 0.929 . S
H748 C762 0.930 . S
H749 C764 0.960 . S
H750 C764 0.960 . S
H751 C764 0.960 . S
C752 H744 0.929 . S
C752 C753 1.377 . S
C752 C754 1.384 . S
C753 C752 1.377 . S
C753 C759 1.390 . S
C754 H745 0.930 . S
C754 C752 1.384 . S
C754 C755 1.372 . S
C755 C754 1.372 . S
C755 C756 1.400 . S
C755 C760 1.490 . S
C756 H746 0.930 . S
C756 C755 1.400 . S
C756 C759 1.386 . S
H757 C773 0.930 . S
H758 C774 0.931 . S
C759 H747 0.929 . S
C759 C753 1.390 . S
C759 C756 1.386 . S
C760 C755 1.490 . S
C760 C762 1.395 . S
C760 C763 1.403 . S
H761 C767 0.930 . S
C762 H748 0.930 . S
C762 C760 1.395 . S
C762 C765 1.403 . S
C763 C760 1.403 . S
C763 C764 1.524 . S
C763 C767 1.400 . S
C764 H749 0.960 . S
C764 H750 0.960 . S
C764 H751 0.960 . S
C764 C763 1.524 . S
C765 C762 1.403 . S
C765 C766 1.392 . S
C765 C769 1.495 . S
C766 C765 1.392 . S
C766 C767 1.385 . S
C766 C768 1.478 . S
C767 H761 0.930 . S
C767 C763 1.400 . S
C767 C766 1.385 . S
C768 C766 1.478 . S
C768 C770 1.381 . S
C768 C774 1.383 . S
C769 C765 1.495 . S
C769 H775 0.959 . S
C769 H776 0.961 . S
C769 H777 0.960 . S
C770 C768 1.381 . S
C770 C771 1.394 . S
C770 H778 0.930 . S
C771 C770 1.394 . S
C771 C772 1.383 . S
C771 H779 0.929 . S
C772 C771 1.383 . S
C772 C773 1.377 . S
C773 H757 0.930 . S
C773 C772 1.377 . S
C773 C774 1.379 . S
C774 H758 0.931 . S
C774 C768 1.383 . S
C774 C773 1.379 . S
H775 C769 0.959 . S
H776 C769 0.961 . S
H777 C769 0.960 . S
H778 C770 0.930 . S
H779 C771 0.929 . S
H780 C788 0.929 . S
H781 C790 0.930 . S
H782 C792 0.930 . S
H783 C795 0.929 . S
H784 C798 0.930 . S
H785 C800 0.960 . S
H786 C800 0.960 . S
H787 C800 0.960 . S
C788 H780 0.929 . S
C788 C789 1.377 . S
C788 C790 1.384 . S
C789 C788 1.377 . S
C789 C795 1.390 . S
C790 H781 0.930 . S
C790 C788 1.384 . S
C790 C791 1.372 . S
C791 C790 1.372 . S
C791 C792 1.400 . S
C791 C796 1.490 . S
C792 H782 0.930 . S
C792 C791 1.400 . S
C792 C795 1.386 . S
H793 C809 0.930 . S
H794 C810 0.931 . S
C795 H783 0.929 . S
C795 C789 1.390 . S
C795 C792 1.386 . S
C796 C791 1.490 . S
C796 C798 1.395 . S
C796 C799 1.403 . S
H797 C803 0.930 . S
C798 H784 0.930 . S
C798 C796 1.395 . S
C798 C801 1.403 . S
C799 C796 1.403 . S
C799 C800 1.524 . S
C799 C803 1.400 . S
C800 H785 0.960 . S
C800 H786 0.960 . S
C800 H787 0.960 . S
C800 C799 1.524 . S
C801 C798 1.403 . S
C801 C802 1.392 . S
C801 C805 1.495 . S
C802 C801 1.392 . S
C802 C803 1.385 . S
C802 C804 1.478 . S
C803 H797 0.930 . S
C803 C799 1.400 . S
C803 C802 1.385 . S
C804 C802 1.478 . S
C804 C806 1.381 . S
C804 C810 1.383 . S
C805 C801 1.495 . S
C805 H811 0.959 . S
C805 H812 0.961 . S
C805 H813 0.960 . S
C806 C804 1.381 . S
C806 C807 1.394 . S
C806 H814 0.930 . S
C807 C806 1.394 . S
C807 C808 1.383 . S
C807 H815 0.929 . S
C808 C807 1.383 . S
C808 C809 1.377 . S
C809 H793 0.930 . S
C809 C808 1.377 . S
C809 C810 1.379 . S
C810 H794 0.931 . S
C810 C804 1.383 . S
C810 C809 1.379 . S
H811 C805 0.959 . S
H812 C805 0.961 . S
H813 C805 0.960 . S
H814 C806 0.930 . S
H815 C807 0.929 . S
H816 C824 0.929 . S
H817 C826 0.930 . S
H818 C828 0.930 . S
H819 C831 0.929 . S
H820 C834 0.930 . S
H821 C836 0.960 . S
H822 C836 0.960 . S
H823 C836 0.960 . S
C824 H816 0.929 . S
C824 C825 1.377 . S
C824 C826 1.384 . S
C825 C824 1.377 . S
C825 C831 1.390 . S
C826 H817 0.930 . S
C826 C824 1.384 . S
C826 C827 1.372 . S
C827 C826 1.372 . S
C827 C828 1.400 . S
C827 C832 1.490 . S
C828 H818 0.930 . S
C828 C827 1.400 . S
C828 C831 1.386 . S
H829 C845 0.930 . S
H830 C846 0.931 . S
C831 H819 0.929 . S
C831 C825 1.390 . S
C831 C828 1.386 . S
C832 C827 1.490 . S
C832 C834 1.395 . S
C832 C835 1.403 . S
H833 C839 0.930 . S
C834 H820 0.930 . S
C834 C832 1.395 . S
C834 C837 1.403 . S
C835 C832 1.403 . S
C835 C836 1.524 . S
C835 C839 1.400 . S
C836 H821 0.960 . S
C836 H822 0.960 . S
C836 H823 0.960 . S
C836 C835 1.524 . S
C837 C834 1.403 . S
C837 C838 1.392 . S
C837 C841 1.495 . S
C838 C837 1.392 . S
C838 C839 1.385 . S
C838 C840 1.478 . S
C839 H833 0.930 . S
C839 C835 1.400 . S
C839 C838 1.385 . S
C840 C838 1.478 . S
C840 C842 1.381 . S
C840 C846 1.383 . S
C841 C837 1.495 . S
C841 H847 0.959 . S
C841 H848 0.961 . S
C841 H849 0.960 . S
C842 C840 1.381 . S
C842 C843 1.394 . S
C842 H850 0.930 . S
C843 C842 1.394 . S
C843 C844 1.383 . S
C843 H851 0.929 . S
C844 C843 1.383 . S
C844 C845 1.377 . S
C845 H829 0.930 . S
C845 C844 1.377 . S
C845 C846 1.379 . S
C846 H830 0.931 . S
C846 C840 1.383 . S
C846 C845 1.379 . S
H847 C841 0.959 . S
H848 C841 0.961 . S
H849 C841 0.960 . S
H850 C842 0.930 . S
H851 C843 0.929 . S
H852 C860 0.929 . S
H853 C862 0.930 . S
H854 C864 0.930 . S
H855 C867 0.929 . S
H856 C870 0.930 . S
H857 C872 0.960 . S
H858 C872 0.960 . S
H859 C872 0.960 . S
C860 H852 0.929 . S
C860 C861 1.377 . S
C860 C862 1.384 . S
C861 C860 1.377 . S
C861 C867 1.390 . S
C862 H853 0.930 . S
C862 C860 1.384 . S
C862 C863 1.372 . S
C863 C862 1.372 . S
C863 C864 1.400 . S
C863 C868 1.490 . S
C864 H854 0.930 . S
C864 C863 1.400 . S
C864 C867 1.386 . S
H865 C881 0.930 . S
H866 C882 0.931 . S
C867 H855 0.929 . S
C867 C861 1.390 . S
C867 C864 1.386 . S
C868 C863 1.490 . S
C868 C870 1.395 . S
C868 C871 1.403 . S
H869 C875 0.930 . S
C870 H856 0.930 . S
C870 C868 1.395 . S
C870 C873 1.403 . S
C871 C868 1.403 . S
C871 C872 1.524 . S
C871 C875 1.400 . S
C872 H857 0.960 . S
C872 H858 0.960 . S
C872 H859 0.960 . S
C872 C871 1.524 . S
C873 C870 1.403 . S
C873 C874 1.392 . S
C873 C877 1.495 . S
C874 C873 1.392 . S
C874 C875 1.385 . S
C874 C876 1.478 . S
C875 H869 0.930 . S
C875 C871 1.400 . S
C875 C874 1.385 . S
C876 C874 1.478 . S
C876 C878 1.381 . S
C876 C882 1.383 . S
C877 C873 1.495 . S
C877 H883 0.959 . S
C877 H884 0.961 . S
C877 H885 0.960 . S
C878 C876 1.381 . S
C878 C879 1.394 . S
C878 H886 0.930 . S
C879 C878 1.394 . S
C879 C880 1.383 . S
C879 H887 0.929 . S
C880 C879 1.383 . S
C880 C881 1.377 . S
C881 H865 0.930 . S
C881 C880 1.377 . S
C881 C882 1.379 . S
C882 H866 0.931 . S
C882 C876 1.383 . S
C882 C881 1.379 . S
H883 C877 0.959 . S
H884 C877 0.961 . S
H885 C877 0.960 . S
H886 C878 0.930 . S
H887 C879 0.929 . S
H888 C896 0.929 . S
H889 C898 0.930 1_655 S
H890 C900 0.930 . S
H891 C903 0.929 . S
H892 C906 0.930 . S
H893 C908 0.960 . S
H894 C908 0.960 . S
H895 C908 0.960 . S
C896 H888 0.929 . S
C896 C897 1.377 1_655 S
C896 C898 1.384 1_655 S
C897 C896 1.377 1_455 S
C897 C903 1.390 . S
C898 H889 0.930 1_455 S
C898 C896 1.384 1_455 S
C898 C899 1.372 . S
C899 C898 1.372 . S
C899 C900 1.400 . S
C899 C904 1.490 . S
C900 H890 0.930 . S
C900 C899 1.400 . S
C900 C903 1.386 . S
H901 C917 0.930 . S
H902 C918 0.931 . S
C903 H891 0.929 . S
C903 C897 1.390 . S
C903 C900 1.386 . S
C904 C899 1.490 . S
C904 C906 1.395 . S
C904 C907 1.403 . S
H905 C911 0.930 . S
C906 H892 0.930 . S
C906 C904 1.395 . S
C906 C909 1.403 . S
C907 C904 1.403 . S
C907 C908 1.524 . S
C907 C911 1.400 . S
C908 H893 0.960 . S
C908 H894 0.960 . S
C908 H895 0.960 . S
C908 C907 1.524 . S
C909 C906 1.403 . S
C909 C910 1.392 . S
C909 C913 1.495 . S
C910 C909 1.392 . S
C910 C911 1.385 . S
C910 C912 1.478 . S
C911 H905 0.930 . S
C911 C907 1.400 . S
C911 C910 1.385 . S
C912 C910 1.478 . S
C912 C914 1.381 . S
C912 C918 1.383 . S
C913 C909 1.495 . S
C913 H919 0.959 . S
C913 H920 0.961 . S
C913 H921 0.960 . S
C914 C912 1.381 . S
C914 C915 1.394 . S
C914 H922 0.930 . S
C915 C914 1.394 . S
C915 C916 1.383 . S
C915 H923 0.929 . S
C916 C915 1.383 . S
C916 C917 1.377 . S
C917 H901 0.930 . S
C917 C916 1.377 . S
C917 C918 1.379 . S
C918 H902 0.931 . S
C918 C912 1.383 . S
C918 C917 1.379 . S
H919 C913 0.959 . S
H920 C913 0.961 . S
H921 C913 0.960 . S
H922 C914 0.930 . S
H923 C915 0.929 . S
H924 C932 0.929 . S
H925 C934 0.942 . S
H926 C936 0.930 . S
H927 C939 0.929 . S
H928 C942 0.930 . S
H929 C944 0.960 . S
H930 C944 0.960 . S
H931 C944 0.960 . S
C932 H924 0.929 . S
C932 C933 1.377 1_565 S
C932 C934 1.384 1_565 S
C933 C932 1.377 1_545 S
C933 C939 1.390 . S
C934 H925 0.942 . S
C934 C932 1.384 1_545 S
C934 C935 1.372 . S
C935 C934 1.372 . S
C935 C936 1.400 . S
C935 C940 1.490 . S
C936 H926 0.930 . S
C936 C935 1.400 . S
C936 C939 1.386 . S
H937 C953 0.930 . S
H938 C954 0.931 . S
C939 H927 0.929 . S
C939 C933 1.390 . S
C939 C936 1.386 . S
C940 C935 1.490 . S
C940 C942 1.395 . S
C940 C943 1.403 . S
H941 C947 0.930 . S
C942 H928 0.930 . S
C942 C940 1.395 . S
C942 C945 1.403 . S
C943 C940 1.403 . S
C943 C944 1.524 . S
C943 C947 1.400 . S
C944 H929 0.960 . S
C944 H930 0.960 . S
C944 H931 0.960 . S
C944 C943 1.524 . S
C945 C942 1.403 . S
C945 C946 1.392 . S
C945 C949 1.495 . S
C946 C945 1.392 . S
C946 C947 1.385 . S
C946 C948 1.478 . S
C947 H941 0.930 . S
C947 C943 1.400 . S
C947 C946 1.385 . S
C948 C946 1.478 . S
C948 C950 1.381 . S
C948 C954 1.383 . S
C949 C945 1.495 . S
C949 H955 0.959 . S
C949 H956 0.961 . S
C949 H957 0.960 . S
C950 C948 1.381 . S
C950 C951 1.394 . S
C950 H958 0.930 . S
C951 C950 1.394 . S
C951 C952 1.383 . S
C951 H959 0.929 . S
C952 C951 1.383 . S
C952 C953 1.377 . S
C953 H937 0.930 . S
C953 C952 1.377 . S
C953 C954 1.379 . S
C954 H938 0.931 . S
C954 C948 1.383 . S
C954 C953 1.379 . S
H955 C949 0.959 . S
H956 C949 0.961 . S
H957 C949 0.960 . S
H958 C950 0.930 . S
H959 C951 0.929 . S
H960 C968 0.929 . S
H961 C970 0.930 . S
H962 C972 0.930 . S
H963 C975 0.929 . S
H964 C978 0.930 . S
H965 C980 0.960 . S
H966 C980 0.960 . S
H967 C980 0.960 . S
C968 H960 0.929 . S
C968 C969 1.377 . S
C968 C970 1.384 . S
C969 C968 1.377 . S
C969 C975 1.390 1_655 S
C970 H961 0.930 . S
C970 C968 1.384 . S
C970 C971 1.372 . S
C971 C970 1.372 . S
C971 C972 1.400 . S
C971 C976 1.490 . S
C972 H962 0.930 . S
C972 C971 1.400 . S
C972 C975 1.386 1_655 S
H973 C989 0.930 . S
H974 C990 0.931 . S
C975 H963 0.929 . S
C975 C969 1.390 1_455 S
C975 C972 1.386 1_455 S
C976 C971 1.490 . S
C976 C978 1.395 . S
C976 C979 1.403 . S
H977 C983 0.930 . S
C978 H964 0.930 . S
C978 C976 1.395 . S
C978 C981 1.403 . S
C979 C976 1.403 . S
C979 C980 1.524 . S
C979 C983 1.400 . S
C980 H965 0.960 . S
C980 H966 0.960 . S
C980 H967 0.960 . S
C980 C979 1.524 . S
C981 C978 1.403 . S
C981 C982 1.392 . S
C981 C985 1.495 . S
C982 C981 1.392 . S
C982 C983 1.385 . S
C982 C984 1.478 . S
C983 H977 0.930 . S
C983 C979 1.400 . S
C983 C982 1.385 . S
C984 C982 1.478 . S
C984 C986 1.381 . S
C984 C990 1.383 . S
C985 C981 1.495 . S
C985 H991 0.959 . S
C985 H992 0.961 . S
C985 H993 0.960 . S
C986 C984 1.381 . S
C986 C987 1.394 . S
C986 H994 0.930 . S
C987 C986 1.394 . S
C987 C988 1.383 . S
C987 H995 0.929 . S
C988 C987 1.383 . S
C988 C989 1.377 . S
C989 H973 0.930 . S
C989 C988 1.377 . S
C989 C990 1.379 . S
C990 H974 0.931 . S
C990 C984 1.383 . S
C990 C989 1.379 . S
H991 C985 0.959 . S
H992 C985 0.961 . S
H993 C985 0.960 . S
H994 C986 0.930 . S
H995 C987 0.929 . S
H996 C1004 0.929 . S
H997 C1006 0.930 . S
H998 C1008 0.930 . S
H999 C1011 0.929 . S
H1000 C1014 0.930 . S
H1001 C1016 0.960 . S
H1002 C1016 0.960 . S
H1003 C1016 0.960 . S
C1004 H996 0.929 . S
C1004 C1005 1.377 . S
C1004 C1006 1.384 . S
C1005 C1004 1.377 . S
C1005 C1011 1.390 1_565 S
C1006 H997 0.930 . S
C1006 C1004 1.384 . S
C1006 C1007 1.372 . S
C1007 C1006 1.372 . S
C1007 C1008 1.400 . S
C1007 C1012 1.490 . S
C1008 H998 0.930 . S
C1008 C1007 1.400 . S
C1008 C1011 1.386 1_565 S
H1009 C1025 0.930 . S
H1010 C1026 0.931 . S
C1011 H999 0.929 . S
C1011 C1005 1.390 1_545 S
C1011 C1008 1.386 1_545 S
C1012 C1007 1.490 . S
C1012 C1014 1.395 . S
C1012 C1015 1.403 . S
H1013 C1019 0.930 . S
C1014 H1000 0.930 . S
C1014 C1012 1.395 . S
C1014 C1017 1.403 . S
C1015 C1012 1.403 . S
C1015 C1016 1.524 . S
C1015 C1019 1.400 . S
C1016 H1001 0.960 . S
C1016 H1002 0.960 . S
C1016 H1003 0.960 . S
C1016 C1015 1.524 . S
C1017 C1014 1.403 . S
C1017 C1018 1.392 . S
C1017 C1021 1.495 . S
C1018 C1017 1.392 . S
C1018 C1019 1.385 . S
C1018 C1020 1.478 . S
C1019 H1013 0.930 . S
C1019 C1015 1.400 . S
C1019 C1018 1.385 . S
C1020 C1018 1.478 . S
C1020 C1022 1.381 . S
C1020 C1026 1.383 . S
C1021 C1017 1.495 . S
C1021 H1027 0.959 . S
C1021 H1028 0.961 . S
C1021 H1029 0.960 . S
C1022 C1020 1.381 . S
C1022 C1023 1.394 . S
C1022 H1030 0.930 . S
C1023 C1022 1.394 . S
C1023 C1024 1.383 . S
C1023 H1031 0.929 . S
C1024 C1023 1.383 . S
C1024 C1025 1.377 . S
C1025 H1009 0.930 . S
C1025 C1024 1.377 . S
C1025 C1026 1.379 . S
C1026 H1010 0.931 . S
C1026 C1020 1.383 . S
C1026 C1025 1.379 . S
H1027 C1021 0.959 . S
H1028 C1021 0.961 . S
H1029 C1021 0.960 . S
H1030 C1022 0.930 . S
H1031 C1023 0.929 . S
H1032 C1040 0.929 . S
H1033 C1042 0.930 . S
H1034 C1044 0.930 . S
H1035 C1047 0.929 . S
H1036 C1050 0.930 . S
H1037 C1052 0.960 . S
H1038 C1052 0.960 . S
H1039 C1052 0.960 . S
C1040 H1032 0.929 . S
C1040 C1041 1.377 . S
C1040 C1042 1.384 . S
C1041 C1040 1.377 . S
C1041 C1047 1.390 . S
C1042 H1033 0.930 . S
C1042 C1040 1.384 . S
C1042 C1043 1.372 . S
C1043 C1042 1.372 . S
C1043 C1044 1.400 . S
C1043 C1048 1.490 . S
C1044 H1034 0.930 . S
C1044 C1043 1.400 . S
C1044 C1047 1.386 . S
H1045 C1061 0.930 . S
H1046 C1062 0.931 . S
C1047 H1035 0.929 . S
C1047 C1041 1.390 . S
C1047 C1044 1.386 . S
C1048 C1043 1.490 . S
C1048 C1050 1.395 . S
C1048 C1051 1.403 . S
H1049 C1055 0.930 . S
C1050 H1036 0.930 . S
C1050 C1048 1.395 . S
C1050 C1053 1.403 . S
C1051 C1048 1.403 . S
C1051 C1052 1.524 . S
C1051 C1055 1.400 . S
C1052 H1037 0.960 . S
C1052 H1038 0.960 . S
C1052 H1039 0.960 . S
C1052 C1051 1.524 . S
C1053 C1050 1.403 . S
C1053 C1054 1.392 . S
C1053 C1057 1.495 . S
C1054 C1053 1.392 . S
C1054 C1055 1.385 . S
C1054 C1056 1.478 . S
C1055 H1049 0.930 . S
C1055 C1051 1.400 . S
C1055 C1054 1.385 . S
C1056 C1054 1.478 . S
C1056 C1058 1.381 . S
C1056 C1062 1.383 . S
C1057 C1053 1.495 . S
C1057 H1063 0.959 . S
C1057 H1064 0.961 . S
C1057 H1065 0.960 . S
C1058 C1056 1.381 . S
C1058 C1059 1.394 . S
C1058 H1066 0.930 . S
C1059 C1058 1.394 . S
C1059 C1060 1.383 . S
C1059 H1067 0.929 . S
C1060 C1059 1.383 . S
C1060 C1061 1.377 . S
C1061 H1045 0.930 . S
C1061 C1060 1.377 . S
C1061 C1062 1.379 . S
C1062 H1046 0.931 . S
C1062 C1056 1.383 . S
C1062 C1061 1.379 . S
H1063 C1057 0.959 . S
H1064 C1057 0.961 . S
H1065 C1057 0.960 . S
H1066 C1058 0.930 . S
H1067 C1059 0.929 . S
H1068 C1076 0.929 . S
H1069 C1078 0.930 . S
H1070 C1080 0.930 . S
H1071 C1083 0.929 . S
H1072 C1086 0.930 . S
H1073 C1088 0.960 . S
H1074 C1088 0.960 . S
H1075 C1088 0.960 . S
C1076 H1068 0.929 . S
C1076 C1077 1.377 . S
C1076 C1078 1.384 . S
C1077 C1076 1.377 . S
C1077 C1083 1.390 . S
C1078 H1069 0.930 . S
C1078 C1076 1.384 . S
C1078 C1079 1.372 . S
C1079 C1078 1.372 . S
C1079 C1080 1.400 . S
C1079 C1084 1.490 . S
C1080 H1070 0.930 . S
C1080 C1079 1.400 . S
C1080 C1083 1.386 . S
H1081 C1097 0.930 . S
H1082 C1098 0.931 . S
C1083 H1071 0.929 . S
C1083 C1077 1.390 . S
C1083 C1080 1.386 . S
C1084 C1079 1.490 . S
C1084 C1086 1.395 . S
C1084 C1087 1.403 . S
H1085 C1091 0.930 . S
C1086 H1072 0.930 . S
C1086 C1084 1.395 . S
C1086 C1089 1.403 . S
C1087 C1084 1.403 . S
C1087 C1088 1.524 . S
C1087 C1091 1.400 . S
C1088 H1073 0.960 . S
C1088 H1074 0.960 . S
C1088 H1075 0.960 . S
C1088 C1087 1.524 . S
C1089 C1086 1.403 . S
C1089 C1090 1.392 . S
C1089 C1093 1.495 . S
C1090 C1089 1.392 . S
C1090 C1091 1.385 . S
C1090 C1092 1.478 . S
C1091 H1085 0.930 . S
C1091 C1087 1.400 . S
C1091 C1090 1.385 . S
C1092 C1090 1.478 . S
C1092 C1094 1.381 . S
C1092 C1098 1.383 . S
C1093 C1089 1.495 . S
C1093 H1099 0.959 . S
C1093 H1100 0.961 . S
C1093 H1101 0.960 . S
C1094 C1092 1.381 . S
C1094 C1095 1.394 . S
C1094 H1102 0.930 . S
C1095 C1094 1.394 . S
C1095 C1096 1.383 . S
C1095 H1103 0.929 . S
C1096 C1095 1.383 . S
C1096 C1097 1.377 . S
C1097 H1081 0.930 . S
C1097 C1096 1.377 . S
C1097 C1098 1.379 . S
C1098 H1082 0.931 . S
C1098 C1092 1.383 . S
C1098 C1097 1.379 . S
H1099 C1093 0.959 . S
H1100 C1093 0.961 . S
H1101 C1093 0.960 . S
H1102 C1094 0.930 . S
H1103 C1095 0.929 . S
H1104 C1112 0.929 . S
H1105 C1114 0.930 . S
H1106 C1116 0.930 . S
H1107 C1119 0.929 . S
H1108 C1122 0.930 . S
H1109 C1124 0.960 . S
H1110 C1124 0.960 . S
H1111 C1124 0.960 . S
C1112 H1104 0.929 . S
C1112 C1113 1.377 . S
C1112 C1114 1.384 . S
C1113 C1112 1.377 . S
C1113 C1119 1.390 . S
C1114 H1105 0.930 . S
C1114 C1112 1.384 . S
C1114 C1115 1.372 . S
C1115 C1114 1.372 . S
C1115 C1116 1.400 . S
C1115 C1120 1.490 . S
C1116 H1106 0.930 . S
C1116 C1115 1.400 . S
C1116 C1119 1.386 . S
H1117 C1133 0.930 . S
H1118 C1134 0.931 . S
C1119 H1107 0.929 . S
C1119 C1113 1.390 . S
C1119 C1116 1.386 . S
C1120 C1115 1.490 . S
C1120 C1122 1.395 . S
C1120 C1123 1.403 . S
H1121 C1127 0.930 . S
C1122 H1108 0.930 . S
C1122 C1120 1.395 . S
C1122 C1125 1.403 . S
C1123 C1120 1.403 . S
C1123 C1124 1.524 . S
C1123 C1127 1.400 . S
C1124 H1109 0.960 . S
C1124 H1110 0.960 . S
C1124 H1111 0.960 . S
C1124 C1123 1.524 . S
C1125 C1122 1.403 . S
C1125 C1126 1.392 . S
C1125 C1129 1.495 . S
C1126 C1125 1.392 . S
C1126 C1127 1.385 . S
C1126 C1128 1.478 . S
C1127 H1121 0.930 . S
C1127 C1123 1.400 . S
C1127 C1126 1.385 . S
C1128 C1126 1.478 . S
C1128 C1130 1.381 . S
C1128 C1134 1.383 . S
C1129 C1125 1.495 . S
C1129 H1135 0.959 . S
C1129 H1136 0.961 . S
C1129 H1137 0.960 . S
C1130 C1128 1.381 . S
C1130 C1131 1.394 . S
C1130 H1138 0.930 . S
C1131 C1130 1.394 . S
C1131 C1132 1.383 . S
C1131 H1139 0.929 . S
C1132 C1131 1.383 . S
C1132 C1133 1.377 . S
C1133 H1117 0.930 . S
C1133 C1132 1.377 . S
C1133 C1134 1.379 . S
C1134 H1118 0.931 . S
C1134 C1128 1.383 . S
C1134 C1133 1.379 . S
H1135 C1129 0.959 . S
H1136 C1129 0.961 . S
H1137 C1129 0.960 . S
H1138 C1130 0.930 . S
H1139 C1131 0.929 . S
H1140 C1148 0.929 . S
H1141 C1150 0.930 . S
H1142 C1152 0.930 . S
H1143 C1155 0.929 . S
H1144 C1158 0.930 . S
H1145 C1160 0.960 . S
H1146 C1160 0.960 . S
H1147 C1160 0.960 . S
C1148 H1140 0.929 . S
C1148 C1149 1.377 . S
C1148 C1150 1.384 . S
C1149 C1148 1.377 . S
C1149 C1155 1.390 . S
C1150 H1141 0.930 . S
C1150 C1148 1.384 . S
C1150 C1151 1.372 . S
C1151 C1150 1.372 . S
C1151 C1152 1.400 . S
C1151 C1156 1.490 . S
C1152 H1142 0.930 . S
C1152 C1151 1.400 . S
C1152 C1155 1.386 . S
H1153 C1169 0.930 . S
H1154 C1170 0.931 . S
C1155 H1143 0.929 . S
C1155 C1149 1.390 . S
C1155 C1152 1.386 . S
C1156 C1151 1.490 . S
C1156 C1158 1.395 . S
C1156 C1159 1.403 . S
H1157 C1163 0.930 . S
C1158 H1144 0.930 . S
C1158 C1156 1.395 . S
C1158 C1161 1.403 . S
C1159 C1156 1.403 . S
C1159 C1160 1.524 . S
C1159 C1163 1.400 . S
C1160 H1145 0.960 . S
C1160 H1146 0.960 . S
C1160 H1147 0.960 . S
C1160 C1159 1.524 . S
C1161 C1158 1.403 . S
C1161 C1162 1.392 . S
C1161 C1165 1.495 . S
C1162 C1161 1.392 . S
C1162 C1163 1.385 . S
C1162 C1164 1.478 . S
C1163 H1157 0.930 . S
C1163 C1159 1.400 . S
C1163 C1162 1.385 . S
C1164 C1162 1.478 . S
C1164 C1166 1.381 . S
C1164 C1170 1.383 . S
C1165 C1161 1.495 . S
C1165 H1171 0.959 . S
C1165 H1172 0.961 . S
C1165 H1173 0.960 . S
C1166 C1164 1.381 . S
C1166 C1167 1.394 . S
C1166 H1174 0.930 . S
C1167 C1166 1.394 . S
C1167 C1168 1.383 . S
C1167 H1175 0.929 . S
C1168 C1167 1.383 . S
C1168 C1169 1.377 . S
C1169 H1153 0.930 . S
C1169 C1168 1.377 . S
C1169 C1170 1.379 . S
C1170 H1154 0.931 . S
C1170 C1164 1.383 . S
C1170 C1169 1.379 . S
H1171 C1165 0.959 . S
H1172 C1165 0.961 . S
H1173 C1165 0.960 . S
H1174 C1166 0.930 . S
H1175 C1167 0.929 . S
H1176 C1184 0.929 . S
H1177 C1186 0.930 . S
H1178 C1188 0.930 . S
H1179 C1191 0.929 . S
H1180 C1194 0.930 . S
H1181 C1196 0.960 . S
H1182 C1196 0.960 . S
H1183 C1196 0.960 . S
C1184 H1176 0.929 . S
C1184 C1185 1.377 . S
C1184 C1186 1.384 . S
C1185 C1184 1.377 . S
C1185 C1191 1.390 . S
C1186 H1177 0.930 . S
C1186 C1184 1.384 . S
C1186 C1187 1.372 . S
C1187 C1186 1.372 . S
C1187 C1188 1.400 . S
C1187 C1192 1.490 . S
C1188 H1178 0.930 . S
C1188 C1187 1.400 . S
C1188 C1191 1.386 . S
H1189 C1205 0.930 . S
H1190 C1206 0.931 . S
C1191 H1179 0.929 . S
C1191 C1185 1.390 . S
C1191 C1188 1.386 . S
C1192 C1187 1.490 . S
C1192 C1194 1.395 . S
C1192 C1195 1.403 . S
H1193 C1199 0.930 . S
C1194 H1180 0.930 . S
C1194 C1192 1.395 . S
C1194 C1197 1.403 . S
C1195 C1192 1.403 . S
C1195 C1196 1.524 . S
C1195 C1199 1.400 . S
C1196 H1181 0.960 . S
C1196 H1182 0.960 . S
C1196 H1183 0.960 . S
C1196 C1195 1.524 . S
C1197 C1194 1.403 . S
C1197 C1198 1.392 . S
C1197 C1201 1.495 . S
C1198 C1197 1.392 . S
C1198 C1199 1.385 . S
C1198 C1200 1.478 . S
C1199 H1193 0.930 . S
C1199 C1195 1.400 . S
C1199 C1198 1.385 . S
C1200 C1198 1.478 . S
C1200 C1202 1.381 . S
C1200 C1206 1.383 . S
C1201 C1197 1.495 . S
C1201 H1207 0.959 . S
C1201 H1208 0.961 . S
C1201 H1209 0.960 . S
C1202 C1200 1.381 . S
C1202 C1203 1.394 . S
C1202 H1210 0.930 . S
C1203 C1202 1.394 . S
C1203 C1204 1.383 . S
C1203 H1211 0.929 . S
C1204 C1203 1.383 . S
C1204 C1205 1.377 . S
C1205 H1189 0.930 . S
C1205 C1204 1.377 . S
C1205 C1206 1.379 . S
C1206 H1190 0.931 . S
C1206 C1200 1.383 . S
C1206 C1205 1.379 . S
H1207 C1201 0.959 . S
H1208 C1201 0.961 . S
H1209 C1201 0.960 . S
H1210 C1202 0.930 . S
H1211 C1203 0.929 . S
H1212 C1220 0.929 . S
H1213 C1222 0.930 . S
H1214 C1224 0.930 . S
H1215 C1227 0.929 . S
H1216 C1230 0.930 . S
H1217 C1232 0.960 . S
H1218 C1232 0.960 . S
H1219 C1232 0.960 . S
C1220 H1212 0.929 . S
C1220 C1221 1.377 . S
C1220 C1222 1.384 . S
C1221 C1220 1.377 . S
C1221 C1227 1.390 . S
C1222 H1213 0.930 . S
C1222 C1220 1.384 . S
C1222 C1223 1.372 . S
C1223 C1222 1.372 . S
C1223 C1224 1.400 . S
C1223 C1228 1.490 . S
C1224 H1214 0.930 . S
C1224 C1223 1.400 . S
C1224 C1227 1.386 . S
H1225 C1241 0.930 . S
H1226 C1242 0.931 . S
C1227 H1215 0.929 . S
C1227 C1221 1.390 . S
C1227 C1224 1.386 . S
C1228 C1223 1.490 . S
C1228 C1230 1.395 . S
C1228 C1231 1.403 . S
H1229 C1235 0.930 . S
C1230 H1216 0.930 . S
C1230 C1228 1.395 . S
C1230 C1233 1.403 . S
C1231 C1228 1.403 . S
C1231 C1232 1.524 . S
C1231 C1235 1.400 . S
C1232 H1217 0.960 . S
C1232 H1218 0.960 . S
C1232 H1219 0.960 . S
C1232 C1231 1.524 . S
C1233 C1230 1.403 . S
C1233 C1234 1.392 . S
C1233 C1237 1.495 . S
C1234 C1233 1.392 . S
C1234 C1235 1.385 . S
C1234 C1236 1.478 . S
C1235 H1229 0.930 . S
C1235 C1231 1.400 . S
C1235 C1234 1.385 . S
C1236 C1234 1.478 . S
C1236 C1238 1.381 . S
C1236 C1242 1.383 . S
C1237 C1233 1.495 . S
C1237 H1243 0.959 . S
C1237 H1244 0.961 . S
C1237 H1245 0.960 . S
C1238 C1236 1.381 . S
C1238 C1239 1.394 . S
C1238 H1246 0.930 . S
C1239 C1238 1.394 . S
C1239 C1240 1.383 . S
C1239 H1247 0.929 . S
C1240 C1239 1.383 . S
C1240 C1241 1.377 . S
C1241 H1225 0.930 . S
C1241 C1240 1.377 . S
C1241 C1242 1.379 . S
C1242 H1226 0.931 . S
C1242 C1236 1.383 . S
C1242 C1241 1.379 . S
H1243 C1237 0.959 . S
H1244 C1237 0.961 . S
H1245 C1237 0.960 . S
H1246 C1238 0.930 . S
H1247 C1239 0.929 . S
H1248 C1256 0.929 . S
H1249 C1258 0.930 . S
H1250 C1260 0.930 . S
H1251 C1263 0.929 . S
H1252 C1266 0.930 . S
H1253 C1268 0.960 . S
H1254 C1268 0.960 . S
H1255 C1268 0.960 . S
C1256 H1248 0.929 . S
C1256 C1257 1.377 . S
C1256 C1258 1.384 . S
C1257 C1256 1.377 . S
C1257 C1263 1.390 . S
C1258 H1249 0.930 . S
C1258 C1256 1.384 . S
C1258 C1259 1.372 . S
C1259 C1258 1.372 . S
C1259 C1260 1.400 . S
C1259 C1264 1.490 . S
C1260 H1250 0.930 . S
C1260 C1259 1.400 . S
C1260 C1263 1.386 . S
H1261 C1277 0.930 . S
H1262 C1278 0.931 . S
C1263 H1251 0.929 . S
C1263 C1257 1.390 . S
C1263 C1260 1.386 . S
C1264 C1259 1.490 . S
C1264 C1266 1.395 . S
C1264 C1267 1.403 . S
H1265 C1271 0.930 . S
C1266 H1252 0.930 . S
C1266 C1264 1.395 . S
C1266 C1269 1.403 . S
C1267 C1264 1.403 . S
C1267 C1268 1.524 . S
C1267 C1271 1.400 . S
C1268 H1253 0.960 . S
C1268 H1254 0.960 . S
C1268 H1255 0.960 . S
C1268 C1267 1.524 . S
C1269 C1266 1.403 . S
C1269 C1270 1.392 . S
C1269 C1273 1.495 . S
C1270 C1269 1.392 . S
C1270 C1271 1.385 . S
C1270 C1272 1.478 . S
C1271 H1265 0.930 . S
C1271 C1267 1.400 . S
C1271 C1270 1.385 . S
C1272 C1270 1.478 . S
C1272 C1274 1.381 . S
C1272 C1278 1.383 . S
C1273 C1269 1.495 . S
C1273 H1279 0.959 . S
C1273 H1280 0.961 . S
C1273 H1281 0.960 . S
C1274 C1272 1.381 . S
C1274 C1275 1.394 . S
C1274 H1282 0.930 . S
C1275 C1274 1.394 . S
C1275 C1276 1.383 . S
C1275 H1283 0.929 . S
C1276 C1275 1.383 . S
C1276 C1277 1.377 . S
C1277 H1261 0.930 . S
C1277 C1276 1.377 . S
C1277 C1278 1.379 . S
C1278 H1262 0.931 . S
C1278 C1272 1.383 . S
C1278 C1277 1.379 . S
H1279 C1273 0.959 . S
H1280 C1273 0.961 . S
H1281 C1273 0.960 . S
H1282 C1274 0.930 . S
H1283 C1275 0.929 . S
H1284 C1292 0.929 . S
H1285 C1294 0.930 . S
H1286 C1296 0.930 . S
H1287 C1299 0.929 . S
H1288 C1302 0.930 . S
H1289 C1304 0.960 . S
H1290 C1304 0.960 . S
H1291 C1304 0.960 . S
C1292 H1284 0.929 . S
C1292 C1293 1.377 . S
C1292 C1294 1.384 . S
C1293 C1292 1.377 . S
C1293 C1299 1.390 . S
C1294 H1285 0.930 . S
C1294 C1292 1.384 . S
C1294 C1295 1.372 . S
C1295 C1294 1.372 . S
C1295 C1296 1.400 . S
C1295 C1300 1.490 . S
C1296 H1286 0.930 . S
C1296 C1295 1.400 . S
C1296 C1299 1.386 . S
H1297 C1313 0.930 . S
H1298 C1314 0.931 . S
C1299 H1287 0.929 . S
C1299 C1293 1.390 . S
C1299 C1296 1.386 . S
C1300 C1295 1.490 . S
C1300 C1302 1.395 . S
C1300 C1303 1.403 . S
H1301 C1307 0.930 . S
C1302 H1288 0.930 . S
C1302 C1300 1.395 . S
C1302 C1305 1.403 . S
C1303 C1300 1.403 . S
C1303 C1304 1.524 . S
C1303 C1307 1.400 . S
C1304 H1289 0.960 . S
C1304 H1290 0.960 . S
C1304 H1291 0.960 . S
C1304 C1303 1.524 . S
C1305 C1302 1.403 . S
C1305 C1306 1.392 . S
C1305 C1309 1.495 . S
C1306 C1305 1.392 . S
C1306 C1307 1.385 . S
C1306 C1308 1.478 . S
C1307 H1301 0.930 . S
C1307 C1303 1.400 . S
C1307 C1306 1.385 . S
C1308 C1306 1.478 . S
C1308 C1310 1.381 . S
C1308 C1314 1.383 . S
C1309 C1305 1.495 . S
C1309 H1315 0.959 . S
C1309 H1316 0.961 . S
C1309 H1317 0.960 . S
C1310 C1308 1.381 . S
C1310 C1311 1.394 . S
C1310 H1318 0.930 . S
C1311 C1310 1.394 . S
C1311 C1312 1.383 . S
C1311 H1319 0.929 . S
C1312 C1311 1.383 . S
C1312 C1313 1.377 . S
C1313 H1297 0.930 . S
C1313 C1312 1.377 . S
C1313 C1314 1.379 . S
C1314 H1298 0.931 . S
C1314 C1308 1.383 . S
C1314 C1313 1.379 . S
H1315 C1309 0.959 . S
H1316 C1309 0.961 . S
H1317 C1309 0.960 . S
H1318 C1310 0.930 . S
H1319 C1311 0.929 . S
H1320 C1328 0.929 . S
H1321 C1330 0.930 . S
H1322 C1332 0.930 . S
H1323 C1335 0.929 . S
H1324 C1338 0.930 . S
H1325 C1340 0.960 . S
H1326 C1340 0.960 . S
H1327 C1340 0.960 . S
C1328 H1320 0.929 . S
C1328 C1329 1.377 . S
C1328 C1330 1.384 . S
C1329 C1328 1.377 . S
C1329 C1335 1.390 . S
C1330 H1321 0.930 . S
C1330 C1328 1.384 . S
C1330 C1331 1.372 . S
C1331 C1330 1.372 . S
C1331 C1332 1.400 . S
C1331 C1336 1.490 . S
C1332 H1322 0.930 . S
C1332 C1331 1.400 . S
C1332 C1335 1.386 . S
H1333 C1349 0.930 . S
H1334 C1350 0.931 . S
C1335 H1323 0.929 . S
C1335 C1329 1.390 . S
C1335 C1332 1.386 . S
C1336 C1331 1.490 . S
C1336 C1338 1.395 . S
C1336 C1339 1.403 . S
H1337 C1343 0.930 . S
C1338 H1324 0.930 . S
C1338 C1336 1.395 . S
C1338 C1341 1.403 . S
C1339 C1336 1.403 . S
C1339 C1340 1.524 . S
C1339 C1343 1.400 . S
C1340 H1325 0.960 . S
C1340 H1326 0.960 . S
C1340 H1327 0.960 . S
C1340 C1339 1.524 . S
C1341 C1338 1.403 . S
C1341 C1342 1.392 . S
C1341 C1345 1.495 . S
C1342 C1341 1.392 . S
C1342 C1343 1.385 . S
C1342 C1344 1.478 . S
C1343 H1337 0.930 . S
C1343 C1339 1.400 . S
C1343 C1342 1.385 . S
C1344 C1342 1.478 . S
C1344 C1346 1.381 . S
C1344 C1350 1.383 . S
C1345 C1341 1.495 . S
C1345 H1351 0.959 . S
C1345 H1352 0.961 . S
C1345 H1353 0.960 . S
C1346 C1344 1.381 . S
C1346 C1347 1.394 . S
C1346 H1354 0.930 . S
C1347 C1346 1.394 . S
C1347 C1348 1.383 . S
C1347 H1355 0.929 . S
C1348 C1347 1.383 . S
C1348 C1349 1.377 . S
C1349 H1333 0.930 . S
C1349 C1348 1.377 . S
C1349 C1350 1.379 . S
C1350 H1334 0.931 . S
C1350 C1344 1.383 . S
C1350 C1349 1.379 . S
H1351 C1345 0.959 . S
H1352 C1345 0.961 . S
H1353 C1345 0.960 . S
H1354 C1346 0.930 . S
H1355 C1347 0.929 . S
H1356 C1364 0.929 . S
H1357 C1366 0.930 . S
H1358 C1368 0.930 . S
H1359 C1371 0.929 . S
H1360 C1374 0.930 . S
H1361 C1376 0.960 . S
H1362 C1376 0.960 . S
H1363 C1376 0.960 . S
C1364 H1356 0.929 . S
C1364 C1365 1.377 . S
C1364 C1366 1.384 . S
C1365 C1364 1.377 . S
C1365 C1371 1.390 . S
C1366 H1357 0.930 . S
C1366 C1364 1.384 . S
C1366 C1367 1.372 . S
C1367 C1366 1.372 . S
C1367 C1368 1.400 . S
C1367 C1372 1.490 . S
C1368 H1358 0.930 . S
C1368 C1367 1.400 . S
C1368 C1371 1.386 . S
H1369 C1385 0.930 . S
H1370 C1386 0.931 . S
C1371 H1359 0.929 . S
C1371 C1365 1.390 . S
C1371 C1368 1.386 . S
C1372 C1367 1.490 . S
C1372 C1374 1.395 . S
C1372 C1375 1.403 . S
H1373 C1379 0.930 . S
C1374 H1360 0.930 . S
C1374 C1372 1.395 . S
C1374 C1377 1.403 . S
C1375 C1372 1.403 . S
C1375 C1376 1.524 . S
C1375 C1379 1.400 . S
C1376 H1361 0.960 . S
C1376 H1362 0.960 . S
C1376 H1363 0.960 . S
C1376 C1375 1.524 . S
C1377 C1374 1.403 . S
C1377 C1378 1.392 . S
C1377 C1381 1.495 . S
C1378 C1377 1.392 . S
C1378 C1379 1.385 . S
C1378 C1380 1.478 . S
C1379 H1373 0.930 . S
C1379 C1375 1.400 . S
C1379 C1378 1.385 . S
C1380 C1378 1.478 . S
C1380 C1382 1.381 . S
C1380 C1386 1.383 . S
C1381 C1377 1.495 . S
C1381 H1387 0.959 . S
C1381 H1388 0.961 . S
C1381 H1389 0.960 . S
C1382 C1380 1.381 . S
C1382 C1383 1.394 . S
C1382 H1390 0.930 . S
C1383 C1382 1.394 . S
C1383 C1384 1.383 . S
C1383 H1391 0.929 . S
C1384 C1383 1.383 . S
C1384 C1385 1.377 . S
C1385 H1369 0.930 . S
C1385 C1384 1.377 . S
C1385 C1386 1.379 . S
C1386 H1370 0.931 . S
C1386 C1380 1.383 . S
C1386 C1385 1.379 . S
H1387 C1381 0.959 . S
H1388 C1381 0.961 . S
H1389 C1381 0.960 . S
H1390 C1382 0.930 . S
H1391 C1383 0.929 . S
H1392 C1400 0.929 . S
H1393 C1402 0.930 . S
H1394 C1404 0.930 . S
H1395 C1407 0.929 1_565 S
H1396 C1410 0.930 . S
H1397 C1412 0.960 . S
H1398 C1412 0.960 1_545 S
H1399 C1412 0.960 . S
C1400 H1392 0.929 . S
C1400 C1401 1.377 . S
C1400 C1402 1.384 . S
C1401 C1400 1.377 . S
C1401 C1407 1.390 . S
C1402 H1393 0.930 . S
C1402 C1400 1.384 . S
C1402 C1403 1.372 . S
C1403 C1402 1.372 . S
C1403 C1404 1.400 1_545 S
C1403 C1408 1.490 . S
C1404 H1394 0.930 . S
C1404 C1403 1.400 1_565 S
C1404 C1407 1.386 1_565 S
H1405 C1421 0.930 . S
H1406 C1422 0.931 . S
C1407 H1395 0.929 1_545 S
C1407 C1401 1.390 . S
C1407 C1404 1.386 1_545 S
C1408 C1403 1.490 . S
C1408 C1410 1.395 1_554 S
C1408 C1411 1.403 1_545 S
H1409 C1415 0.930 . S
C1410 H1396 0.930 . S
C1410 C1408 1.395 1_556 S
C1410 C1413 1.403 . S
C1411 C1408 1.403 1_565 S
C1411 C1412 1.524 . S
C1411 C1415 1.400 . S
C1412 H1397 0.960 . S
C1412 H1398 0.960 1_565 S
C1412 H1399 0.960 . S
C1412 C1411 1.524 . S
C1413 C1410 1.403 . S
C1413 C1414 1.392 1_545 S
C1413 C1417 1.495 . S
C1414 C1413 1.392 1_565 S
C1414 C1415 1.385 1_556 S
C1414 C1416 1.478 . S
C1415 H1409 0.930 . S
C1415 C1411 1.400 . S
C1415 C1414 1.385 1_554 S
C1416 C1414 1.478 . S
C1416 C1418 1.381 1_565 S
C1416 C1422 1.383 . S
C1417 C1413 1.495 . S
C1417 H1423 0.959 . S
C1417 H1424 0.961 1_545 S
C1417 H1425 0.960 . S
C1418 C1416 1.381 1_545 S
C1418 C1419 1.394 1_545 S
C1418 H1426 0.930 . S
C1419 C1418 1.394 1_565 S
C1419 C1420 1.383 . S
C1419 H1427 0.929 1_565 S
C1420 C1419 1.383 . S
C1420 C1421 1.377 . S
C1421 H1405 0.930 . S
C1421 C1420 1.377 . S
C1421 C1422 1.379 . S
C1422 H1406 0.931 . S
C1422 C1416 1.383 . S
C1422 C1421 1.379 . S
H1423 C1417 0.959 . S
H1424 C1417 0.961 1_565 S
H1425 C1417 0.960 . S
H1426 C1418 0.930 . S
H1427 C1419 0.929 1_545 S
H1428 C1436 0.929 . S
H1429 C1438 0.930 . S
H1430 C1440 0.930 . S
H1431 C1443 0.929 . S
H1432 C1446 0.930 . S
H1433 C1448 0.960 1_556 S
H1434 C1448 0.960 . S
H1435 C1448 0.960 1_556 S
C1436 H1428 0.929 . S
C1436 C1437 1.377 . S
C1436 C1438 1.384 . S
C1437 C1436 1.377 . S
C1437 C1443 1.390 . S
C1438 H1429 0.930 . S
C1438 C1436 1.384 . S
C1438 C1439 1.372 . S
C1439 C1438 1.372 . S
C1439 C1440 1.400 . S
C1439 C1444 1.490 . S
C1440 H1430 0.930 . S
C1440 C1439 1.400 . S
C1440 C1443 1.386 . S
H1441 C1457 0.930 . S
H1442 C1458 0.931 . S
C1443 H1431 0.929 . S
C1443 C1437 1.390 . S
C1443 C1440 1.386 . S
C1444 C1439 1.490 . S
C1444 C1446 1.395 . S
C1444 C1447 1.403 . S
H1445 C1451 0.930 . S
C1446 H1432 0.930 . S
C1446 C1444 1.395 . S
C1446 C1449 1.407 . S
C1447 C1444 1.403 . S
C1447 C1448 1.524 . S
C1447 C1451 1.400 1_554 S
C1448 H1433 0.960 1_554 S
C1448 H1434 0.960 . S
C1448 H1435 0.960 1_554 S
C1448 C1447 1.524 . S
C1449 C1446 1.407 . S
C1449 C1450 1.389 1_554 S
C1449 C1453 1.494 1_554 S
C1450 C1449 1.389 1_556 S
C1450 C1451 1.385 . S
C1450 C1452 1.478 . S
C1451 H1445 0.930 . S
C1451 C1447 1.400 1_556 S
C1451 C1450 1.385 . S
C1452 C1450 1.478 . S
C1452 C1454 1.381 . S
C1452 C1458 1.383 . S
C1453 C1449 1.494 1_556 S
C1453 H1459 0.941 1_556 S
C1453 H1460 0.992 . S
C1453 H1461 0.949 1_556 S
C1454 C1452 1.381 . S
C1454 C1455 1.394 . S
C1454 H1462 0.966 . S
C1455 C1454 1.394 . S
C1455 C1456 1.383 . S
C1455 H1463 0.929 . S
C1456 C1455 1.383 . S
C1456 C1457 1.377 . S
C1457 H1441 0.930 . S
C1457 C1456 1.377 . S
C1457 C1458 1.379 . S
C1458 H1442 0.931 . S
C1458 C1452 1.383 . S
C1458 C1457 1.379 . S
H1459 C1453 0.941 1_554 S
H1460 C1453 0.992 . S
H1461 C1453 0.949 1_554 S
H1462 C1454 0.966 . S
H1463 C1455 0.929 . S
H1464 C1472 0.929 . S
H1465 C1474 0.930 . S
H1466 C1476 0.930 . S
H1467 C1479 0.929 . S
H1468 C1482 0.930 . S
H1469 C1484 0.960 . S
H1470 C1484 0.960 . S
H1471 C1484 0.960 1_655 S
C1472 H1464 0.929 . S
C1472 C1473 1.377 . S
C1472 C1474 1.384 . S
C1473 C1472 1.377 . S
C1473 C1479 1.390 . S
C1474 H1465 0.930 . S
C1474 C1472 1.384 . S
C1474 C1475 1.372 . S
C1475 C1474 1.372 . S
C1475 C1476 1.400 . S
C1475 C1480 1.490 . S
C1476 H1466 0.930 . S
C1476 C1475 1.400 . S
C1476 C1479 1.386 . S
H1477 C1493 0.930 . S
H1478 C1494 0.931 . S
C1479 H1467 0.929 . S
C1479 C1473 1.390 . S
C1479 C1476 1.386 . S
C1480 C1475 1.490 . S
C1480 C1482 1.395 1_554 S
C1480 C1483 1.395 1_655 S
H1481 C1487 0.930 . S
C1482 H1468 0.930 . S
C1482 C1480 1.395 1_556 S
C1482 C1485 1.403 . S
C1483 C1480 1.395 1_455 S
C1483 C1484 1.525 . S
C1483 C1487 1.407 . S
C1484 H1469 0.960 . S
C1484 H1470 0.960 . S
C1484 H1471 0.960 1_455 S
C1484 C1483 1.525 . S
C1485 C1482 1.403 . S
C1485 C1486 1.392 1_655 S
C1485 C1489 1.495 . S
C1486 C1485 1.392 1_455 S
C1486 C1487 1.385 1_556 S
C1486 C1488 1.478 . S
C1487 H1481 0.930 . S
C1487 C1483 1.407 . S
C1487 C1486 1.385 1_554 S
C1488 C1486 1.478 . S
C1488 C1490 1.381 . S
C1488 C1494 1.383 . S
C1489 C1485 1.495 . S
C1489 H1495 0.959 . S
C1489 H1496 0.961 . S
C1489 H1497 0.960 1_655 S
C1490 C1488 1.381 . S
C1490 C1491 1.394 . S
C1490 H1498 0.930 . S
C1491 C1490 1.394 . S
C1491 C1492 1.383 . S
C1491 H1499 0.929 . S
C1492 C1491 1.383 . S
C1492 C1493 1.377 . S
C1493 H1477 0.930 . S
C1493 C1492 1.377 . S
C1493 C1494 1.379 . S
C1494 H1478 0.931 . S
C1494 C1488 1.383 . S
C1494 C1493 1.379 . S
H1495 C1489 0.959 . S
H1496 C1489 0.961 . S
H1497 C1489 0.960 1_455 S
H1498 C1490 0.930 . S
H1499 C1491 0.929 . S
H1500 C1508 0.929 . S
H1501 C1510 0.930 . S
H1502 C1512 0.930 . S
H1503 C1515 0.929 . S
H1504 C1518 0.930 . S
H1505 C1520 0.960 . S
H1506 C1520 0.960 1_556 S
H1507 C1520 0.960 . S
C1508 H1500 0.929 . S
C1508 C1509 1.377 . S
C1508 C1510 1.384 . S
C1509 C1508 1.377 . S
C1509 C1515 1.390 . S
C1510 H1501 0.930 . S
C1510 C1508 1.384 . S
C1510 C1511 1.372 . S
C1511 C1510 1.372 . S
C1511 C1512 1.400 . S
C1511 C1516 1.490 . S
C1512 H1502 0.930 . S
C1512 C1511 1.400 . S
C1512 C1515 1.386 . S
H1513 C1529 0.930 . S
H1514 C1530 0.931 . S
C1515 H1503 0.929 . S
C1515 C1509 1.390 . S
C1515 C1512 1.386 . S
C1516 C1511 1.490 . S
C1516 C1518 1.395 1_655 S
C1516 C1519 1.403 1_556 S
H1517 C1523 0.930 . S
C1518 H1504 0.930 . S
C1518 C1516 1.395 1_455 S
C1518 C1521 1.403 1_545 S
C1519 C1516 1.403 1_554 S
C1519 C1520 1.524 . S
C1519 C1523 1.400 1_545 S
C1520 H1505 0.960 . S
C1520 H1506 0.960 1_554 S
C1520 H1507 0.960 . S
C1520 C1519 1.524 . S
C1521 C1518 1.403 1_565 S
C1521 C1522 1.392 1_556 S
C1521 C1525 1.495 . S
C1522 C1521 1.392 1_554 S
C1522 C1523 1.385 1_455 S
C1522 C1524 1.478 . S
C1523 H1517 0.930 . S
C1523 C1519 1.400 1_565 S
C1523 C1522 1.385 1_655 S
C1524 C1522 1.478 . S
C1524 C1526 1.381 . S
C1524 C1530 1.383 . S
C1525 C1521 1.495 . S
C1525 H1531 0.959 . S
C1525 H1532 0.961 . S
C1525 H1533 0.960 . S
C1526 C1524 1.381 . S
C1526 C1527 1.394 . S
C1526 H1534 0.952 . S
C1527 C1526 1.394 . S
C1527 C1528 1.383 . S
C1527 H1535 0.929 . S
C1528 C1527 1.383 . S
C1528 C1529 1.377 . S
C1529 H1513 0.930 . S
C1529 C1528 1.377 . S
C1529 C1530 1.379 . S
C1530 H1514 0.931 . S
C1530 C1524 1.383 . S
C1530 C1529 1.379 . S
H1531 C1525 0.959 . S
H1532 C1525 0.961 . S
H1533 C1525 0.960 . S
H1534 C1526 0.952 . S
H1535 C1527 0.929 . S
H1536 C1544 0.929 . S
H1537 C1546 0.930 . S
H1538 C1548 0.930 . S
H1539 C1551 0.929 1_565 S
H1540 C1554 0.930 . S
H1541 C1556 0.960 . S
H1542 C1556 0.960 . S
H1543 C1556 0.960 . S
C1544 H1536 0.929 . S
C1544 C1545 1.377 . S
C1544 C1546 1.384 . S
C1545 C1544 1.377 . S
C1545 C1551 1.390 . S
C1546 H1537 0.930 . S
C1546 C1544 1.384 . S
C1546 C1547 1.372 . S
C1547 C1546 1.372 . S
C1547 C1548 1.400 1_545 S
C1547 C1552 1.490 . S
C1548 H1538 0.930 . S
C1548 C1547 1.400 1_565 S
C1548 C1551 1.386 1_565 S
H1549 C1565 0.930 . S
H1550 C1566 0.931 . S
C1551 H1539 0.929 1_545 S
C1551 C1545 1.390 . S
C1551 C1548 1.386 1_545 S
C1552 C1547 1.490 . S
C1552 C1554 1.395 1_655 S
C1552 C1555 1.403 1_545 S
H1553 C1559 0.930 . S
C1554 H1540 0.930 . S
C1554 C1552 1.395 1_455 S
C1554 C1557 1.403 . S
C1555 C1552 1.403 1_565 S
C1555 C1556 1.524 . S
C1555 C1559 1.364 1_655 S
C1556 H1541 0.960 . S
C1556 H1542 0.960 . S
C1556 H1543 0.960 . S
C1556 C1555 1.524 . S
C1557 C1554 1.403 . S
C1557 C1558 1.392 1_545 S
C1557 C1561 1.495 . S
C1558 C1557 1.392 1_565 S
C1558 C1559 1.423 . S
C1558 C1560 1.478 . S
C1559 H1553 0.930 . S
C1559 C1555 1.364 1_455 S
C1559 C1558 1.423 . S
C1560 C1558 1.478 . S
C1560 C1562 1.381 1_565 S
C1560 C1566 1.383 . S
C1561 C1557 1.495 . S
C1561 H1567 0.959 . S
C1561 H1568 0.961 . S
C1561 H1569 0.960 . S
C1562 C1560 1.381 1_545 S
C1562 C1563 1.394 1_545 S
C1562 H1570 0.930 . S
C1563 C1562 1.394 1_565 S
C1563 C1564 1.383 . S
C1563 H1571 0.929 1_565 S
C1564 C1563 1.383 . S
C1564 C1565 1.377 . S
C1565 H1549 0.930 . S
C1565 C1564 1.377 . S
C1565 C1566 1.379 . S
C1566 H1550 0.931 . S
C1566 C1560 1.383 . S
C1566 C1565 1.379 . S
H1567 C1561 0.959 . S
H1568 C1561 0.961 . S
H1569 C1561 0.960 . S
H1570 C1562 0.930 . S
H1571 C1563 0.929 1_545 S
H1572 C1580 0.929 . S
H1573 C1582 0.930 . S
H1574 C1584 0.930 . S
H1575 C1587 0.929 . S
H1576 C1590 0.930 . S
H1577 C1592 0.960 . S
H1578 C1592 0.960 . S
H1579 C1592 0.960 . S
C1580 H1572 0.929 . S
C1580 C1581 1.377 . S
C1580 C1582 1.384 . S
C1581 C1580 1.377 . S
C1581 C1587 1.390 . S
C1582 H1573 0.930 . S
C1582 C1580 1.384 . S
C1582 C1583 1.372 . S
C1583 C1582 1.372 . S
C1583 C1584 1.400 . S
C1583 C1588 1.490 . S
C1584 H1574 0.930 . S
C1584 C1583 1.400 . S
C1584 C1587 1.386 . S
H1585 C1601 0.930 . S
H1586 C1602 0.931 . S
C1587 H1575 0.929 . S
C1587 C1581 1.390 . S
C1587 C1584 1.386 . S
C1588 C1583 1.490 . S
C1588 C1590 1.395 1_545 S
C1588 C1591 1.403 . S
H1589 C1595 0.930 . S
C1590 H1576 0.930 . S
C1590 C1588 1.395 1_565 S
C1590 C1593 1.403 . S
C1591 C1588 1.403 . S
C1591 C1592 1.524 . S
C1591 C1595 1.366 1_545 S
C1592 H1577 0.960 . S
C1592 H1578 0.960 . S
C1592 H1579 0.960 . S
C1592 C1591 1.524 . S
C1593 C1590 1.403 . S
C1593 C1594 1.392 . S
C1593 C1597 1.495 . S
C1594 C1593 1.392 . S
C1594 C1595 1.421 . S
C1594 C1596 1.478 . S
C1595 H1589 0.930 . S
C1595 C1591 1.366 1_565 S
C1595 C1594 1.421 . S
C1596 C1594 1.478 . S
C1596 C1598 1.381 . S
C1596 C1602 1.383 . S
C1597 C1593 1.495 . S
C1597 H1603 0.959 . S
C1597 H1604 0.961 . S
C1597 H1605 0.960 . S
C1598 C1596 1.381 . S
C1598 C1599 1.394 . S
C1598 H1606 0.930 . S
C1599 C1598 1.394 . S
C1599 C1600 1.383 . S
C1599 H1607 0.929 . S
C1600 C1599 1.383 . S
C1600 C1601 1.377 . S
C1601 H1585 0.930 . S
C1601 C1600 1.377 . S
C1601 C1602 1.379 . S
C1602 H1586 0.931 . S
C1602 C1596 1.383 . S
C1602 C1601 1.379 . S
H1603 C1597 0.959 . S
H1604 C1597 0.961 . S
H1605 C1597 0.960 . S
H1606 C1598 0.930 . S
H1607 C1599 0.929 . S
H1608 C1616 0.929 . S
H1609 C1618 0.930 . S
H1610 C1620 0.930 . S
H1611 C1623 0.929 . S
H1612 C1626 0.930 . S
H1613 C1628 0.960 . S
H1614 C1628 0.960 . S
H1615 C1628 0.960 . S
C1616 H1608 0.929 . S
C1616 C1617 1.377 . S
C1616 C1618 1.384 . S
C1617 C1616 1.377 . S
C1617 C1623 1.390 . S
C1618 H1609 0.930 . S
C1618 C1616 1.384 . S
C1618 C1619 1.372 . S
C1619 C1618 1.372 . S
C1619 C1620 1.400 . S
C1619 C1624 1.490 . S
C1620 H1610 0.930 . S
C1620 C1619 1.400 . S
C1620 C1623 1.386 . S
H1621 C1637 0.930 . S
H1622 C1638 0.931 . S
C1623 H1611 0.929 . S
C1623 C1617 1.390 . S
C1623 C1620 1.386 . S
C1624 C1619 1.490 . S
C1624 C1626 1.395 . S
C1624 C1627 1.403 . S
H1625 C1631 0.930 . S
C1626 H1612 0.930 . S
C1626 C1624 1.395 . S
C1626 C1629 1.403 . S
C1627 C1624 1.403 . S
C1627 C1628 1.524 . S
C1627 C1631 1.400 . S
C1628 H1613 0.960 . S
C1628 H1614 0.960 . S
C1628 H1615 0.960 . S
C1628 C1627 1.524 . S
C1629 C1626 1.403 . S
C1629 C1630 1.392 . S
C1629 C1633 1.495 . S
C1630 C1629 1.392 . S
C1630 C1631 1.385 . S
C1630 C1632 1.478 . S
C1631 H1625 0.930 . S
C1631 C1627 1.400 . S
C1631 C1630 1.385 . S
C1632 C1630 1.478 . S
C1632 C1634 1.381 . S
C1632 C1638 1.383 . S
C1633 C1629 1.495 . S
C1633 H1639 0.959 . S
C1633 H1640 0.961 . S
C1633 H1641 0.960 . S
C1634 C1632 1.381 . S
C1634 C1635 1.394 . S
C1634 H1642 0.930 . S
C1635 C1634 1.394 . S
C1635 C1636 1.383 . S
C1635 H1643 0.929 . S
C1636 C1635 1.383 . S
C1636 C1637 1.377 . S
C1637 H1621 0.930 . S
C1637 C1636 1.377 . S
C1637 C1638 1.379 . S
C1638 H1622 0.931 . S
C1638 C1632 1.383 . S
C1638 C1637 1.379 . S
H1639 C1633 0.959 . S
H1640 C1633 0.961 . S
H1641 C1633 0.960 . S
H1642 C1634 0.930 . S
H1643 C1635 0.929 . S
H1644 C1652 0.929 1_655 S
H1645 C1654 0.930 . S
H1646 C1656 0.930 . S
H1647 C1659 0.929 . S
H1648 C1662 0.930 . S
H1649 C1664 0.960 . S
H1650 C1664 0.960 . S
H1651 C1664 0.960 . S
C1652 H1644 0.929 1_455 S
C1652 C1653 1.377 . S
C1652 C1654 1.384 1_455 S
C1653 C1652 1.377 . S
C1653 C1659 1.390 . S
C1654 H1645 0.930 . S
C1654 C1652 1.384 1_655 S
C1654 C1655 1.372 1_655 S
C1655 C1654 1.372 1_455 S
C1655 C1656 1.400 . S
C1655 C1660 1.490 . S
C1656 H1646 0.930 . S
C1656 C1655 1.400 . S
C1656 C1659 1.386 . S
H1657 C1673 0.930 1_455 S
H1658 C1674 0.931 . S
C1659 H1647 0.929 . S
C1659 C1653 1.390 . S
C1659 C1656 1.386 . S
C1660 C1655 1.490 . S
C1660 C1662 1.395 1_455 S
C1660 C1663 1.403 . S
H1661 C1667 0.930 . S
C1662 H1648 0.930 . S
C1662 C1660 1.395 1_655 S
C1662 C1665 1.403 . S
C1663 C1660 1.403 . S
C1663 C1664 1.524 . S
C1663 C1667 1.400 . S
C1664 H1649 0.960 . S
C1664 H1650 0.960 . S
C1664 H1651 0.960 . S
C1664 C1663 1.524 . S
C1665 C1662 1.403 . S
C1665 C1666 1.392 . S
C1665 C1669 1.495 . S
C1666 C1665 1.392 . S
C1666 C1667 1.385 1_655 S
C1666 C1668 1.478 . S
C1667 H1661 0.930 . S
C1667 C1663 1.400 . S
C1667 C1666 1.385 1_455 S
C1668 C1666 1.478 . S
C1668 C1670 1.381 . S
C1668 C1674 1.383 1_655 S
C1669 C1665 1.495 . S
C1669 H1675 0.959 . S
C1669 H1676 0.961 . S
C1669 H1677 0.960 . S
C1670 C1668 1.381 . S
C1670 C1671 1.394 . S
C1670 H1678 0.930 . S
C1671 C1670 1.394 . S
C1671 C1672 1.383 . S
C1671 H1679 0.929 . S
C1672 C1671 1.383 . S
C1672 C1673 1.377 . S
C1673 H1657 0.930 1_655 S
C1673 C1672 1.377 . S
C1673 C1674 1.379 1_655 S
C1674 H1658 0.931 . S
C1674 C1668 1.383 1_455 S
C1674 C1673 1.379 1_455 S
H1675 C1669 0.959 . S
H1676 C1669 0.961 . S
H1677 C1669 0.960 . S
H1678 C1670 0.930 . S
H1679 C1671 0.929 . S
H1680 C1688 0.929 . S
H1681 C1690 0.930 . S
H1682 C1692 0.930 . S
H1683 C1695 0.929 . S
H1684 C1698 0.930 . S
H1685 C1700 0.960 . S
H1686 C1700 0.960 . S
H1687 C1700 0.960 . S
C1688 H1680 0.929 . S
C1688 C1689 1.377 . S
C1688 C1690 1.384 . S
C1689 C1688 1.377 . S
C1689 C1695 1.390 . S
C1690 H1681 0.930 . S
C1690 C1688 1.384 . S
C1690 C1691 1.372 . S
C1691 C1690 1.372 . S
C1691 C1692 1.400 . S
C1691 C1696 1.490 . S
C1692 H1682 0.930 . S
C1692 C1691 1.400 . S
C1692 C1695 1.386 . S
H1693 C1709 0.930 . S
H1694 C1710 0.931 . S
C1695 H1683 0.929 . S
C1695 C1689 1.390 . S
C1695 C1692 1.386 . S
C1696 C1691 1.490 . S
C1696 C1698 1.395 . S
C1696 C1699 1.403 . S
H1697 C1703 0.930 . S
C1698 H1684 0.930 . S
C1698 C1696 1.395 . S
C1698 C1701 1.403 . S
C1699 C1696 1.403 . S
C1699 C1700 1.524 . S
C1699 C1703 1.400 . S
C1700 H1685 0.960 . S
C1700 H1686 0.960 . S
C1700 H1687 0.960 . S
C1700 C1699 1.524 . S
C1701 C1698 1.403 . S
C1701 C1702 1.392 . S
C1701 C1705 1.495 . S
C1702 C1701 1.392 . S
C1702 C1703 1.385 . S
C1702 C1704 1.478 . S
C1703 H1697 0.930 . S
C1703 C1699 1.400 . S
C1703 C1702 1.385 . S
C1704 C1702 1.478 . S
C1704 C1706 1.381 . S
C1704 C1710 1.383 . S
C1705 C1701 1.495 . S
C1705 H1711 0.959 . S
C1705 H1712 0.961 . S
C1705 H1713 0.960 . S
C1706 C1704 1.381 . S
C1706 C1707 1.394 . S
C1706 H1714 0.930 . S
C1707 C1706 1.394 . S
C1707 C1708 1.383 . S
C1707 H1715 0.929 . S
C1708 C1707 1.383 . S
C1708 C1709 1.377 . S
C1709 H1693 0.930 . S
C1709 C1708 1.377 . S
C1709 C1710 1.379 . S
C1710 H1694 0.931 . S
C1710 C1704 1.383 . S
C1710 C1709 1.379 . S
H1711 C1705 0.959 . S
H1712 C1705 0.961 . S
H1713 C1705 0.960 . S
H1714 C1706 0.930 . S
H1715 C1707 0.929 . S
H1716 C1724 0.929 . S
H1717 C1726 0.930 . S
H1718 C1728 0.930 . S
H1719 C1731 0.929 . S
H1720 C1734 0.930 . S
H1721 C1736 0.960 . S
H1722 C1736 0.960 . S
H1723 C1736 0.960 . S
C1724 H1716 0.929 . S
C1724 C1725 1.377 . S
C1724 C1726 1.384 . S
C1725 C1724 1.377 . S
C1725 C1731 1.390 . S
C1726 H1717 0.930 . S
C1726 C1724 1.384 . S
C1726 C1727 1.372 . S
C1727 C1726 1.372 . S
C1727 C1728 1.400 . S
C1727 C1732 1.490 . S
C1728 H1718 0.930 . S
C1728 C1727 1.400 . S
C1728 C1731 1.386 . S
H1729 C1745 0.930 . S
H1730 C1746 0.931 . S
C1731 H1719 0.929 . S
C1731 C1725 1.390 . S
C1731 C1728 1.386 . S
C1732 C1727 1.490 . S
C1732 C1734 1.395 . S
C1732 C1735 1.403 . S
H1733 C1739 0.930 . S
C1734 H1720 0.930 . S
C1734 C1732 1.395 . S
C1734 C1737 1.403 . S
C1735 C1732 1.403 . S
C1735 C1736 1.524 . S
C1735 C1739 1.400 . S
C1736 H1721 0.960 . S
C1736 H1722 0.960 . S
C1736 H1723 0.960 . S
C1736 C1735 1.524 . S
C1737 C1734 1.403 . S
C1737 C1738 1.392 . S
C1737 C1741 1.495 . S
C1738 C1737 1.392 . S
C1738 C1739 1.385 . S
C1738 C1740 1.478 . S
C1739 H1733 0.930 . S
C1739 C1735 1.400 . S
C1739 C1738 1.385 . S
C1740 C1738 1.478 . S
C1740 C1742 1.381 . S
C1740 C1746 1.383 . S
C1741 C1737 1.495 . S
C1741 H1747 0.959 . S
C1741 H1748 0.961 . S
C1741 H1749 0.960 . S
C1742 C1740 1.381 . S
C1742 C1743 1.394 . S
C1742 H1750 0.930 . S
C1743 C1742 1.394 . S
C1743 C1744 1.383 . S
C1743 H1751 0.929 . S
C1744 C1743 1.383 . S
C1744 C1745 1.377 . S
C1745 H1729 0.930 . S
C1745 C1744 1.377 . S
C1745 C1746 1.379 . S
C1746 H1730 0.931 . S
C1746 C1740 1.383 . S
C1746 C1745 1.379 . S
H1747 C1741 0.959 . S
H1748 C1741 0.961 . S
H1749 C1741 0.960 . S
H1750 C1742 0.930 . S
H1751 C1743 0.929 . S
H1752 C1760 0.929 . S
H1753 C1762 0.930 . S
H1754 C1764 0.930 . S
H1755 C1767 0.929 . S
H1756 C1770 0.930 . S
H1757 C1772 0.960 . S
H1758 C1772 0.960 . S
H1759 C1772 0.960 . S
C1760 H1752 0.929 . S
C1760 C1761 1.377 . S
C1760 C1762 1.384 . S
C1761 C1760 1.377 . S
C1761 C1767 1.390 . S
C1762 H1753 0.930 . S
C1762 C1760 1.384 . S
C1762 C1763 1.372 . S
C1763 C1762 1.372 . S
C1763 C1764 1.400 . S
C1763 C1768 1.490 . S
C1764 H1754 0.930 . S
C1764 C1763 1.400 . S
C1764 C1767 1.386 . S
H1765 C1781 0.930 . S
H1766 C1782 0.931 . S
C1767 H1755 0.929 . S
C1767 C1761 1.390 . S
C1767 C1764 1.386 . S
C1768 C1763 1.490 . S
C1768 C1770 1.395 . S
C1768 C1771 1.403 . S
H1769 C1775 0.930 . S
C1770 H1756 0.930 . S
C1770 C1768 1.395 . S
C1770 C1773 1.403 . S
C1771 C1768 1.403 . S
C1771 C1772 1.524 . S
C1771 C1775 1.400 . S
C1772 H1757 0.960 . S
C1772 H1758 0.960 . S
C1772 H1759 0.960 . S
C1772 C1771 1.524 . S
C1773 C1770 1.403 . S
C1773 C1774 1.392 . S
C1773 C1777 1.495 . S
C1774 C1773 1.392 . S
C1774 C1775 1.385 . S
C1774 C1776 1.478 . S
C1775 H1769 0.930 . S
C1775 C1771 1.400 . S
C1775 C1774 1.385 . S
C1776 C1774 1.478 . S
C1776 C1778 1.381 . S
C1776 C1782 1.383 . S
C1777 C1773 1.495 . S
C1777 H1783 0.959 . S
C1777 H1784 0.961 . S
C1777 H1785 0.960 . S
C1778 C1776 1.381 . S
C1778 C1779 1.394 . S
C1778 H1786 0.930 . S
C1779 C1778 1.394 . S
C1779 C1780 1.383 . S
C1779 H1787 0.929 . S
C1780 C1779 1.383 . S
C1780 C1781 1.377 . S
C1781 H1765 0.930 . S
C1781 C1780 1.377 . S
C1781 C1782 1.379 . S
C1782 H1766 0.931 . S
C1782 C1776 1.383 . S
C1782 C1781 1.379 . S
H1783 C1777 0.959 . S
H1784 C1777 0.961 . S
H1785 C1777 0.960 . S
H1786 C1778 0.930 . S
H1787 C1779 0.929 . S
H1788 C1796 0.929 . S
H1789 C1798 0.930 . S
H1790 C1800 0.930 . S
H1791 C1803 0.929 . S
H1792 C1806 0.930 . S
H1793 C1808 0.960 . S
H1794 C1808 0.960 . S
H1795 C1808 0.960 . S
C1796 H1788 0.929 . S
C1796 C1797 1.377 . S
C1796 C1798 1.384 . S
C1797 C1796 1.377 . S
C1797 C1803 1.390 . S
C1798 H1789 0.930 . S
C1798 C1796 1.384 . S
C1798 C1799 1.372 . S
C1799 C1798 1.372 . S
C1799 C1800 1.400 . S
C1799 C1804 1.490 . S
C1800 H1790 0.930 . S
C1800 C1799 1.400 . S
C1800 C1803 1.386 . S
H1801 C1817 0.930 . S
H1802 C1818 0.931 . S
C1803 H1791 0.929 . S
C1803 C1797 1.390 . S
C1803 C1800 1.386 . S
C1804 C1799 1.490 . S
C1804 C1806 1.395 . S
C1804 C1807 1.403 . S
H1805 C1811 0.930 . S
C1806 H1792 0.930 . S
C1806 C1804 1.395 . S
C1806 C1809 1.403 . S
C1807 C1804 1.403 . S
C1807 C1808 1.524 . S
C1807 C1811 1.400 . S
C1808 H1793 0.960 . S
C1808 H1794 0.960 . S
C1808 H1795 0.960 . S
C1808 C1807 1.524 . S
C1809 C1806 1.403 . S
C1809 C1810 1.392 . S
C1809 C1813 1.495 . S
C1810 C1809 1.392 . S
C1810 C1811 1.385 . S
C1810 C1812 1.478 . S
C1811 H1805 0.930 . S
C1811 C1807 1.400 . S
C1811 C1810 1.385 . S
C1812 C1810 1.478 . S
C1812 C1814 1.381 . S
C1812 C1818 1.383 . S
C1813 C1809 1.495 . S
C1813 H1819 0.959 . S
C1813 H1820 0.961 . S
C1813 H1821 0.960 . S
C1814 C1812 1.381 . S
C1814 C1815 1.394 . S
C1814 H1822 0.930 . S
C1815 C1814 1.394 . S
C1815 C1816 1.383 . S
C1815 H1823 0.929 . S
C1816 C1815 1.383 . S
C1816 C1817 1.377 . S
C1817 H1801 0.930 . S
C1817 C1816 1.377 . S
C1817 C1818 1.379 . S
C1818 H1802 0.931 . S
C1818 C1812 1.383 . S
C1818 C1817 1.379 . S
H1819 C1813 0.959 . S
H1820 C1813 0.961 . S
H1821 C1813 0.960 . S
H1822 C1814 0.930 . S
H1823 C1815 0.929 . S
H1824 C1832 0.929 . S
H1825 C1834 0.930 . S
H1826 C1836 0.930 . S
H1827 C1839 0.929 . S
H1828 C1842 0.930 . S
H1829 C1844 0.960 . S
H1830 C1844 0.960 . S
H1831 C1844 0.960 . S
C1832 H1824 0.929 . S
C1832 C1833 1.377 . S
C1832 C1834 1.384 . S
C1833 C1832 1.377 . S
C1833 C1839 1.390 . S
C1834 H1825 0.930 . S
C1834 C1832 1.384 . S
C1834 C1835 1.372 . S
C1835 C1834 1.372 . S
C1835 C1836 1.400 . S
C1835 C1840 1.490 . S
C1836 H1826 0.930 . S
C1836 C1835 1.400 . S
C1836 C1839 1.386 . S
H1837 C1853 0.930 . S
H1838 C1854 0.931 . S
C1839 H1827 0.929 . S
C1839 C1833 1.390 . S
C1839 C1836 1.386 . S
C1840 C1835 1.490 . S
C1840 C1842 1.395 . S
C1840 C1843 1.403 . S
H1841 C1847 0.930 . S
C1842 H1828 0.930 . S
C1842 C1840 1.395 . S
C1842 C1845 1.403 . S
C1843 C1840 1.403 . S
C1843 C1844 1.524 . S
C1843 C1847 1.400 . S
C1844 H1829 0.960 . S
C1844 H1830 0.960 . S
C1844 H1831 0.960 . S
C1844 C1843 1.524 . S
C1845 C1842 1.403 . S
C1845 C1846 1.392 . S
C1845 C1849 1.495 . S
C1846 C1845 1.392 . S
C1846 C1847 1.385 . S
C1846 C1848 1.478 . S
C1847 H1841 0.930 . S
C1847 C1843 1.400 . S
C1847 C1846 1.385 . S
C1848 C1846 1.478 . S
C1848 C1850 1.381 . S
C1848 C1854 1.383 . S
C1849 C1845 1.495 . S
C1849 H1855 0.959 . S
C1849 H1856 0.961 . S
C1849 H1857 0.960 . S
C1850 C1848 1.381 . S
C1850 C1851 1.394 . S
C1850 H1858 0.930 . S
C1851 C1850 1.394 . S
C1851 C1852 1.383 . S
C1851 H1859 0.929 . S
C1852 C1851 1.383 . S
C1852 C1853 1.377 . S
C1853 H1837 0.930 . S
C1853 C1852 1.377 . S
C1853 C1854 1.379 . S
C1854 H1838 0.931 . S
C1854 C1848 1.383 . S
C1854 C1853 1.379 . S
H1855 C1849 0.959 . S
H1856 C1849 0.961 . S
H1857 C1849 0.960 . S
H1858 C1850 0.930 . S
H1859 C1851 0.929 . S
H1860 C1868 0.929 . S
H1861 C1870 0.930 . S
H1862 C1872 0.930 . S
H1863 C1875 0.929 . S
H1864 C1878 0.930 . S
H1865 C1880 0.960 . S
H1866 C1880 0.960 . S
H1867 C1880 0.960 . S
C1868 H1860 0.929 . S
C1868 C1869 1.377 . S
C1868 C1870 1.384 . S
C1869 C1868 1.377 . S
C1869 C1875 1.390 . S
C1870 H1861 0.930 . S
C1870 C1868 1.384 . S
C1870 C1871 1.372 . S
C1871 C1870 1.372 . S
C1871 C1872 1.400 . S
C1871 C1876 1.490 . S
C1872 H1862 0.930 . S
C1872 C1871 1.400 . S
C1872 C1875 1.386 . S
H1873 C1889 0.930 . S
H1874 C1890 0.931 . S
C1875 H1863 0.929 . S
C1875 C1869 1.390 . S
C1875 C1872 1.386 . S
C1876 C1871 1.490 . S
C1876 C1878 1.395 . S
C1876 C1879 1.403 . S
H1877 C1883 0.930 . S
C1878 H1864 0.930 . S
C1878 C1876 1.395 . S
C1878 C1881 1.403 . S
C1879 C1876 1.403 . S
C1879 C1880 1.524 . S
C1879 C1883 1.400 . S
C1880 H1865 0.960 . S
C1880 H1866 0.960 . S
C1880 H1867 0.960 . S
C1880 C1879 1.524 . S
C1881 C1878 1.403 . S
C1881 C1882 1.392 . S
C1881 C1885 1.495 . S
C1882 C1881 1.392 . S
C1882 C1883 1.385 . S
C1882 C1884 1.478 . S
C1883 H1877 0.930 . S
C1883 C1879 1.400 . S
C1883 C1882 1.385 . S
C1884 C1882 1.478 . S
C1884 C1886 1.381 . S
C1884 C1890 1.383 . S
C1885 C1881 1.495 . S
C1885 H1891 0.959 . S
C1885 H1892 0.961 . S
C1885 H1893 0.960 . S
C1886 C1884 1.381 . S
C1886 C1887 1.394 . S
C1886 H1894 0.930 . S
C1887 C1886 1.394 . S
C1887 C1888 1.383 . S
C1887 H1895 0.929 . S
C1888 C1887 1.383 . S
C1888 C1889 1.377 . S
C1889 H1873 0.930 . S
C1889 C1888 1.377 . S
C1889 C1890 1.379 . S
C1890 H1874 0.931 . S
C1890 C1884 1.383 . S
C1890 C1889 1.379 . S
H1891 C1885 0.959 . S
H1892 C1885 0.961 . S
H1893 C1885 0.960 . S
H1894 C1886 0.930 . S
H1895 C1887 0.929 . S
H1896 C1904 0.929 . S
H1897 C1906 0.930 . S
H1898 C1908 0.930 . S
H1899 C1911 0.929 . S
H1900 C1914 0.930 . S
H1901 C1916 0.960 . S
H1902 C1916 0.960 . S
H1903 C1916 0.960 . S
C1904 H1896 0.929 . S
C1904 C1905 1.377 . S
C1904 C1906 1.384 . S
C1905 C1904 1.377 . S
C1905 C1911 1.390 . S
C1906 H1897 0.930 . S
C1906 C1904 1.384 . S
C1906 C1907 1.372 . S
C1907 C1906 1.372 . S
C1907 C1908 1.400 . S
C1907 C1912 1.490 . S
C1908 H1898 0.930 . S
C1908 C1907 1.400 . S
C1908 C1911 1.386 . S
H1909 C1925 0.930 . S
H1910 C1926 0.931 . S
C1911 H1899 0.929 . S
C1911 C1905 1.390 . S
C1911 C1908 1.386 . S
C1912 C1907 1.490 . S
C1912 C1914 1.395 . S
C1912 C1915 1.403 . S
H1913 C1919 0.930 . S
C1914 H1900 0.930 . S
C1914 C1912 1.395 . S
C1914 C1917 1.403 . S
C1915 C1912 1.403 . S
C1915 C1916 1.524 . S
C1915 C1919 1.400 . S
C1916 H1901 0.960 . S
C1916 H1902 0.960 . S
C1916 H1903 0.960 . S
C1916 C1915 1.524 . S
C1917 C1914 1.403 . S
C1917 C1918 1.392 . S
C1917 C1921 1.495 . S
C1918 C1917 1.392 . S
C1918 C1919 1.385 . S
C1918 C1920 1.478 . S
C1919 H1913 0.930 . S
C1919 C1915 1.400 . S
C1919 C1918 1.385 . S
C1920 C1918 1.478 . S
C1920 C1922 1.381 . S
C1920 C1926 1.383 . S
C1921 C1917 1.495 . S
C1921 H1927 0.959 . S
C1921 H1928 0.961 . S
C1921 H1929 0.960 . S
C1922 C1920 1.381 . S
C1922 C1923 1.394 . S
C1922 H1930 0.930 . S
C1923 C1922 1.394 . S
C1923 C1924 1.383 . S
C1923 H1931 0.929 . S
C1924 C1923 1.383 . S
C1924 C1925 1.377 . S
C1925 H1909 0.930 . S
C1925 C1924 1.377 . S
C1925 C1926 1.379 . S
C1926 H1910 0.931 . S
C1926 C1920 1.383 . S
C1926 C1925 1.379 . S
H1927 C1921 0.959 . S
H1928 C1921 0.961 . S
H1929 C1921 0.960 . S
H1930 C1922 0.930 . S
H1931 C1923 0.929 . S
H1932 C1940 0.929 . S
H1933 C1942 0.930 . S
H1934 C1944 0.930 . S
H1935 C1947 0.929 . S
H1936 C1950 0.930 . S
H1937 C1952 0.960 . S
H1938 C1952 0.960 . S
H1939 C1952 0.960 . S
C1940 H1932 0.929 . S
C1940 C1941 1.377 . S
C1940 C1942 1.384 . S
C1941 C1940 1.377 . S
C1941 C1947 1.390 . S
C1942 H1933 0.930 . S
C1942 C1940 1.384 . S
C1942 C1943 1.372 . S
C1943 C1942 1.372 . S
C1943 C1944 1.400 . S
C1943 C1948 1.490 . S
C1944 H1934 0.930 . S
C1944 C1943 1.400 . S
C1944 C1947 1.386 . S
H1945 C1961 0.930 . S
H1946 C1962 0.931 . S
C1947 H1935 0.929 . S
C1947 C1941 1.390 . S
C1947 C1944 1.386 . S
C1948 C1943 1.490 . S
C1948 C1950 1.395 . S
C1948 C1951 1.403 . S
H1949 C1955 0.930 . S
C1950 H1936 0.930 . S
C1950 C1948 1.395 . S
C1950 C1953 1.403 . S
C1951 C1948 1.403 . S
C1951 C1952 1.524 . S
C1951 C1955 1.400 . S
C1952 H1937 0.960 . S
C1952 H1938 0.960 . S
C1952 H1939 0.960 . S
C1952 C1951 1.524 . S
C1953 C1950 1.403 . S
C1953 C1954 1.392 . S
C1953 C1957 1.495 . S
C1954 C1953 1.392 . S
C1954 C1955 1.385 . S
C1954 C1956 1.478 . S
C1955 H1949 0.930 . S
C1955 C1951 1.400 . S
C1955 C1954 1.385 . S
C1956 C1954 1.478 . S
C1956 C1958 1.381 . S
C1956 C1962 1.383 . S
C1957 C1953 1.495 . S
C1957 H1963 0.959 . S
C1957 H1964 0.961 . S
C1957 H1965 0.960 . S
C1958 C1956 1.381 . S
C1958 C1959 1.394 . S
C1958 H1966 0.930 . S
C1959 C1958 1.394 . S
C1959 C1960 1.383 . S
C1959 H1967 0.929 . S
C1960 C1959 1.383 . S
C1960 C1961 1.377 . S
C1961 H1945 0.930 . S
C1961 C1960 1.377 . S
C1961 C1962 1.379 . S
C1962 H1946 0.931 . S
C1962 C1956 1.383 . S
C1962 C1961 1.379 . S
H1963 C1957 0.959 . S
H1964 C1957 0.961 . S
H1965 C1957 0.960 . S
H1966 C1958 0.930 . S
H1967 C1959 0.929 . S
C537 N14 0.730 . S
C556 C50 0.746 . S
C573 C83 0.731 . S
C592 N47 0.754 . S
C609 C116 0.728 1_655 S
C628 N80 0.722 . S
C645 N113 0.738 . S
C664 C17 0.735 1_565 S
C681 C248 0.732 1_455 S
C700 N146 0.757 . S
C717 C149 0.728 1_545 S
C736 N179 0.720 . S
C753 C182 0.737 . S
C772 N212 0.755 . S
C789 N245 0.737 . S
C808 C215 0.729 . S
C825 N278 0.732 . S
C844 C314 0.737 . S
C861 N311 0.731 . S
C880 C347 0.735 . S
C897 C380 0.728 1_455 S
C916 N344 0.760 . S
C933 C281 0.728 1_545 S
C952 N377 0.759 . S
C969 C512 0.734 1_655 S
C988 N410 0.721 . S
C1005 C413 0.733 1_565 S
C1024 N443 0.724 . S
C1041 N476 0.728 . S
C1060 C446 0.751 . S
C1077 N509 0.729 . S
C1096 C479 0.744 . S
C1113 N5 1.961 . S
C1132 N71 1.961 . S
C1149 N38 1.960 . S
C1168 N104 1.962 . S
C1185 N203 1.961 . S
C1204 N137 1.953 . S
C1221 N236 1.961 . S
C1240 N170 1.959 . S
C1257 N335 1.962 . S
C1276 N269 1.948 . S
C1293 N302 1.959 . S
C1312 N368 1.954 . S
C1329 N401 1.959 . S
C1348 N467 1.961 . S
C1365 N434 1.963 . S
C1384 N500 1.963 . S
C1401 C8 1.774 . S
C1420 C272 1.757 . S
C1437 C41 1.770 . S
C1456 C305 1.762 . S
C1473 C74 1.774 . S
C1492 C338 1.756 . S
C1509 C371 1.774 . S
C1528 C107 1.785 . S
C1545 C404 1.777 . S
C1564 C140 1.773 . S
C1581 C173 1.772 . S
C1600 C437 1.777 . S
C1617 C206 1.771 . S
C1636 C470 1.754 . S
C1653 C503 1.770 . S
C1672 C239 1.767 . S
C1689 C193 1.590 . S
C1708 C28 1.584 . S
C1725 C226 1.589 . S
C1744 C61 1.592 . S
C1761 C94 1.590 . S
C1780 C259 1.587 . S
C1797 C160 1.589 . S
C1816 C127 1.593 . S
C1833 C292 1.589 . S
C1852 C457 1.592 . S
C1869 C490 1.590 . S
C1888 C325 1.580 . S
C1905 C523 1.589 . S
C1924 C358 1.580 . S
C1941 C391 1.588 . S
C1960 C424 1.586 . S
