# Generated by pormake.
# Topology uow, (4)-cn, num edge types: 1
# Building blocks:
#     Node 0, Type 0, BuildingBlock: CEKHIL_clean_sbu_0, # of connection points: 4
#     Node 1, Type 0, BuildingBlock: CEKHIL_clean_sbu_0, # of connection points: 4
#     Node 2, Type 0, BuildingBlock: CEKHIL_clean_sbu_0, # of connection points: 4
#     Node 3, Type 0, BuildingBlock: CEKHIL_clean_sbu_0, # of connection points: 4
#     Node 4, Type 0, BuildingBlock: CEKHIL_clean_sbu_0, # of connection points: 4
#     Node 5, Type 0, BuildingBlock: CEKHIL_clean_sbu_0, # of connection points: 4
#     Node 6, Type 0, BuildingBlock: CEKHIL_clean_sbu_0, # of connection points: 4
#     Node 7, Type 0, BuildingBlock: CEKHIL_clean_sbu_0, # of connection points: 4
#     Node 8, Type 0, BuildingBlock: CEKHIL_clean_sbu_0, # of connection points: 4
#     Node 9, Type 0, BuildingBlock: CEKHIL_clean_sbu_0, # of connection points: 4
#     Node 10, Type 0, BuildingBlock: CEKHIL_clean_sbu_0, # of connection points: 4
#     Node 11, Type 0, BuildingBlock: CEKHIL_clean_sbu_0, # of connection points: 4
#     Node 12, Type 0, BuildingBlock: CEKHIL_clean_sbu_0, # of connection points: 4
#     Node 13, Type 0, BuildingBlock: CEKHIL_clean_sbu_0, # of connection points: 4
#     Node 14, Type 0, BuildingBlock: CEKHIL_clean_sbu_0, # of connection points: 4
#     Node 15, Type 0, BuildingBlock: CEKHIL_clean_sbu_0, # of connection points: 4
#     Node 16, Type 0, BuildingBlock: CEKHIL_clean_sbu_0, # of connection points: 4
#     Node 17, Type 0, BuildingBlock: CEKHIL_clean_sbu_0, # of connection points: 4
#     Node 18, Type 0, BuildingBlock: CEKHIL_clean_sbu_0, # of connection points: 4
#     Node 19, Type 0, BuildingBlock: CEKHIL_clean_sbu_0, # of connection points: 4
#     Node 20, Type 0, BuildingBlock: CEKHIL_clean_sbu_0, # of connection points: 4
#     Node 21, Type 0, BuildingBlock: CEKHIL_clean_sbu_0, # of connection points: 4
#     Node 22, Type 0, BuildingBlock: CEKHIL_clean_sbu_0, # of connection points: 4
#     Node 23, Type 0, BuildingBlock: CEKHIL_clean_sbu_0, # of connection points: 4
#     Node 24, Type 0, BuildingBlock: CEKHIL_clean_sbu_0, # of connection points: 4
#     Node 25, Type 0, BuildingBlock: CEKHIL_clean_sbu_0, # of connection points: 4
#     Node 26, Type 0, BuildingBlock: CEKHIL_clean_sbu_0, # of connection points: 4
#     Node 27, Type 0, BuildingBlock: CEKHIL_clean_sbu_0, # of connection points: 4
#     Node 28, Type 0, BuildingBlock: CEKHIL_clean_sbu_0, # of connection points: 4
#     Node 29, Type 0, BuildingBlock: CEKHIL_clean_sbu_0, # of connection points: 4
#     Node 30, Type 0, BuildingBlock: CEKHIL_clean_sbu_0, # of connection points: 4
#     Node 31, Type 0, BuildingBlock: CEKHIL_clean_sbu_0, # of connection points: 4
#     Edge 32, Type (0, 0), BuildingBlock: AJUNOK_clean_linker_0, # of connection points: 2
#     Edge 33, Type (0, 0), BuildingBlock: AJUNOK_clean_linker_0, # of connection points: 2
#     Edge 34, Type (0, 0), BuildingBlock: AJUNOK_clean_linker_0, # of connection points: 2
#     Edge 35, Type (0, 0), BuildingBlock: AJUNOK_clean_linker_0, # of connection points: 2
#     Edge 36, Type (0, 0), BuildingBlock: AJUNOK_clean_linker_0, # of connection points: 2
#     Edge 37, Type (0, 0), BuildingBlock: AJUNOK_clean_linker_0, # of connection points: 2
#     Edge 38, Type (0, 0), BuildingBlock: AJUNOK_clean_linker_0, # of connection points: 2
#     Edge 39, Type (0, 0), BuildingBlock: AJUNOK_clean_linker_0, # of connection points: 2
#     Edge 40, Type (0, 0), BuildingBlock: AJUNOK_clean_linker_0, # of connection points: 2
#     Edge 41, Type (0, 0), BuildingBlock: AJUNOK_clean_linker_0, # of connection points: 2
#     Edge 42, Type (0, 0), BuildingBlock: AJUNOK_clean_linker_0, # of connection points: 2
#     Edge 43, Type (0, 0), BuildingBlock: AJUNOK_clean_linker_0, # of connection points: 2
#     Edge 44, Type (0, 0), BuildingBlock: AJUNOK_clean_linker_0, # of connection points: 2
#     Edge 45, Type (0, 0), BuildingBlock: AJUNOK_clean_linker_0, # of connection points: 2
#     Edge 46, Type (0, 0), BuildingBlock: AJUNOK_clean_linker_0, # of connection points: 2
#     Edge 47, Type (0, 0), BuildingBlock: AJUNOK_clean_linker_0, # of connection points: 2
#     Edge 48, Type (0, 0), BuildingBlock: AJUNOK_clean_linker_0, # of connection points: 2
#     Edge 49, Type (0, 0), BuildingBlock: AJUNOK_clean_linker_0, # of connection points: 2
#     Edge 50, Type (0, 0), BuildingBlock: AJUNOK_clean_linker_0, # of connection points: 2
#     Edge 51, Type (0, 0), BuildingBlock: AJUNOK_clean_linker_0, # of connection points: 2
#     Edge 52, Type (0, 0), BuildingBlock: AJUNOK_clean_linker_0, # of connection points: 2
#     Edge 53, Type (0, 0), BuildingBlock: AJUNOK_clean_linker_0, # of connection points: 2
#     Edge 54, Type (0, 0), BuildingBlock: AJUNOK_clean_linker_0, # of connection points: 2
#     Edge 55, Type (0, 0), BuildingBlock: AJUNOK_clean_linker_0, # of connection points: 2
#     Edge 56, Type (0, 0), BuildingBlock: AJUNOK_clean_linker_0, # of connection points: 2
#     Edge 57, Type (0, 0), BuildingBlock: AJUNOK_clean_linker_0, # of connection points: 2
#     Edge 58, Type (0, 0), BuildingBlock: AJUNOK_clean_linker_0, # of connection points: 2
#     Edge 59, Type (0, 0), BuildingBlock: AJUNOK_clean_linker_0, # of connection points: 2
#     Edge 60, Type (0, 0), BuildingBlock: AJUNOK_clean_linker_0, # of connection points: 2
#     Edge 61, Type (0, 0), BuildingBlock: AJUNOK_clean_linker_0, # of connection points: 2
#     Edge 62, Type (0, 0), BuildingBlock: AJUNOK_clean_linker_0, # of connection points: 2
#     Edge 63, Type (0, 0), BuildingBlock: AJUNOK_clean_linker_0, # of connection points: 2
#     Edge 64, Type (0, 0), BuildingBlock: AJUNOK_clean_linker_0, # of connection points: 2
#     Edge 65, Type (0, 0), BuildingBlock: AJUNOK_clean_linker_0, # of connection points: 2
#     Edge 66, Type (0, 0), BuildingBlock: AJUNOK_clean_linker_0, # of connection points: 2
#     Edge 67, Type (0, 0), BuildingBlock: AJUNOK_clean_linker_0, # of connection points: 2
#     Edge 68, Type (0, 0), BuildingBlock: AJUNOK_clean_linker_0, # of connection points: 2
#     Edge 69, Type (0, 0), BuildingBlock: AJUNOK_clean_linker_0, # of connection points: 2
#     Edge 70, Type (0, 0), BuildingBlock: AJUNOK_clean_linker_0, # of connection points: 2
#     Edge 71, Type (0, 0), BuildingBlock: AJUNOK_clean_linker_0, # of connection points: 2
#     Edge 72, Type (0, 0), BuildingBlock: AJUNOK_clean_linker_0, # of connection points: 2
#     Edge 73, Type (0, 0), BuildingBlock: AJUNOK_clean_linker_0, # of connection points: 2
#     Edge 74, Type (0, 0), BuildingBlock: AJUNOK_clean_linker_0, # of connection points: 2
#     Edge 75, Type (0, 0), BuildingBlock: AJUNOK_clean_linker_0, # of connection points: 2
#     Edge 76, Type (0, 0), BuildingBlock: AJUNOK_clean_linker_0, # of connection points: 2
#     Edge 77, Type (0, 0), BuildingBlock: AJUNOK_clean_linker_0, # of connection points: 2
#     Edge 78, Type (0, 0), BuildingBlock: AJUNOK_clean_linker_0, # of connection points: 2
#     Edge 79, Type (0, 0), BuildingBlock: AJUNOK_clean_linker_0, # of connection points: 2
#     Edge 80, Type (0, 0), BuildingBlock: AJUNOK_clean_linker_0, # of connection points: 2
#     Edge 81, Type (0, 0), BuildingBlock: AJUNOK_clean_linker_0, # of connection points: 2
#     Edge 82, Type (0, 0), BuildingBlock: AJUNOK_clean_linker_0, # of connection points: 2
#     Edge 83, Type (0, 0), BuildingBlock: AJUNOK_clean_linker_0, # of connection points: 2
#     Edge 84, Type (0, 0), BuildingBlock: AJUNOK_clean_linker_0, # of connection points: 2
#     Edge 85, Type (0, 0), BuildingBlock: AJUNOK_clean_linker_0, # of connection points: 2
#     Edge 86, Type (0, 0), BuildingBlock: AJUNOK_clean_linker_0, # of connection points: 2
#     Edge 87, Type (0, 0), BuildingBlock: AJUNOK_clean_linker_0, # of connection points: 2
#     Edge 88, Type (0, 0), BuildingBlock: AJUNOK_clean_linker_0, # of connection points: 2
#     Edge 89, Type (0, 0), BuildingBlock: AJUNOK_clean_linker_0, # of connection points: 2
#     Edge 90, Type (0, 0), BuildingBlock: AJUNOK_clean_linker_0, # of connection points: 2
#     Edge 91, Type (0, 0), BuildingBlock: AJUNOK_clean_linker_0, # of connection points: 2
#     Edge 92, Type (0, 0), BuildingBlock: AJUNOK_clean_linker_0, # of connection points: 2
#     Edge 93, Type (0, 0), BuildingBlock: AJUNOK_clean_linker_0, # of connection points: 2
#     Edge 94, Type (0, 0), BuildingBlock: AJUNOK_clean_linker_0, # of connection points: 2
#     Edge 95, Type (0, 0), BuildingBlock: AJUNOK_clean_linker_0, # of connection points: 2
# Relax obj value: 0.097
# Max RMSD: 0.128
# Mean RMSD: 0.128
data_MOF--net-uow--node1-CEKHIL_clean_sbu_0--edge1-AJUNOK_clean_linker_0
_symmetry_space_group_name_H-M    P1
_symmetry_Int_Tables_number       1
_symmetry_cell_setting            triclinic
loop_
_symmetry_equiv_pos_as_xyz
'x, y, z'
_cell_length_a     45.663283
_cell_length_b     45.702596
_cell_length_c     29.404068
_cell_angle_alpha  89.946013
_cell_angle_beta   90.005874
_cell_angle_gamma 90.00077
loop_
_atom_site_label
_atom_site_type_symbol
_atom_site_fract_x
_atom_site_fract_y
_atom_site_fract_z
_atom_type_partial_charge
Co0 Co 0.03644 0.38904 0.2758 0.0
O1 O 0.02126 0.42027 0.23912 0.0
O2 O 0.06338 0.42203 0.27609 0.0
C3 C 0.99411 0.38042 0.31379 0.0
O4 O 0.05852 0.36127 0.318 0.0
Co5 Co 0.00938 0.32624 0.27127 0.0
O6 O 0.03073 0.3212 0.32937 0.0
C7 C 0.05655 0.34425 0.20675 0.0
C8 C 0.044 0.43539 0.25108 0.0
C9 C 0.05289 0.33703 0.3386 0.0
O10 O 0.05721 0.37062 0.22222 0.0
O11 O 0.03861 0.32462 0.22061 0.0
O12 O 0.0115 0.40136 0.32641 0.0
O13 O 1.00142 0.36735 0.27667 0.0
Co14 Co 0.86513 0.78447 0.53472 0.0
O15 O 0.83046 0.76671 0.51057 0.0
O16 O 0.83221 0.81131 0.53981 0.0
C17 C 0.87995 0.74525 0.57537 0.0
O18 O 0.89706 0.80907 0.56446 0.0
Co19 Co 0.92617 0.75721 0.51047 0.0
O20 O 0.94096 0.78739 0.55309 0.0
C21 C 0.89421 0.79273 0.44323 0.0
C22 C 0.81673 0.79052 0.5214 0.0
C23 C 0.92501 0.80755 0.56992 0.0
O24 O 0.87558 0.80114 0.47329 0.0
O25 O 0.91342 0.77284 0.45014 0.0
O26 O 0.86039 0.76293 0.59196 0.0
O27 O 0.88745 0.75023 0.53392 0.0
Co28 Co 0.4626 0.61557 0.76759 0.0
O29 O 0.47818 0.58502 0.72984 0.0
O30 O 0.43606 0.58229 0.76661 0.0
C31 C 0.50496 0.62398 0.80572 0.0
O32 O 0.44007 0.64218 0.81106 0.0
Co33 Co 0.4887 0.67881 0.76595 0.0
O34 O 0.46717 0.6825 0.82409 0.0
C35 C 0.44299 0.66101 0.69884 0.0
C36 C 0.45557 0.56948 0.7412 0.0
C37 C 0.44545 0.66598 0.8329 0.0
O38 O 0.44185 0.63463 0.71436 0.0
O39 O 0.46065 0.68055 0.71377 0.0
O40 O 0.4877 0.6028 0.81787 0.0
O41 O 0.49732 0.6377 0.76931 0.0
Co42 Co 0.64191 0.22303 0.02233 0.0
O43 O 0.67855 0.23415 0.99493 0.0
O44 O 0.67259 0.19635 0.04139 0.0
C45 C 0.62765 0.26788 0.04691 0.0
O46 O 0.60746 0.20536 0.05698 0.0
Co47 Co 0.58416 0.24801 0.98066 0.0
O48 O 0.56546 0.22446 0.0292 0.0
C49 C 0.61502 0.20048 0.93455 0.0
C50 C 0.69 0.21217 0.01645 0.0
C51 C 0.57931 0.20739 0.05596 0.0
O52 O 0.63209 0.19707 0.96888 0.0
O53 O 0.59722 0.22188 0.93028 0.0
O54 O 0.64655 0.25258 0.06984 0.0
O55 O 0.62148 0.25745 0.00729 0.0
Co56 Co 0.03136 0.60966 0.21314 0.0
O57 O 0.01544 0.57422 0.23785 0.0
O58 O 0.05981 0.57813 0.20816 0.0
C59 C 0.99123 0.62203 0.17207 0.0
O60 O 0.05448 0.64238 0.18275 0.0
Co61 Co 1.00142 0.66989 0.23369 0.0
O62 O 0.02697 0.68341 0.18326 0.0
C63 C 0.04028 0.64205 0.30195 0.0
C64 C 0.03977 0.5616 0.22638 0.0
C65 C 0.04939 0.66896 0.1706 0.0
O66 O 0.04777 0.62164 0.27415 0.0
O67 O 0.0205 0.66115 0.29349 0.0
O68 O 0.01 0.60326 0.15619 0.0
O69 O 0.99586 0.63032 0.21327 0.0
Co70 Co 0.64407 0.78358 0.46644 0.0
O71 O 0.67636 0.76802 0.50038 0.0
O72 O 0.67766 0.80959 0.46186 0.0
C73 C 0.63217 0.74107 0.43181 0.0
O74 O 0.615 0.80588 0.42647 0.0
Co75 Co 0.58069 0.75879 0.48 0.0
O76 O 0.57328 0.77966 0.42209 0.0
C77 C 0.60428 0.80488 0.54143 0.0
C78 C 0.69135 0.79052 0.48701 0.0
C79 C 0.58947 0.80086 0.40949 0.0
O80 O 0.6292 0.80548 0.52112 0.0
O81 O 0.58336 0.78744 0.5312 0.0
O82 O 0.65298 0.75742 0.4156 0.0
O83 O 0.62123 0.74956 0.46992 0.0
Co84 Co 0.46815 0.39492 0.7046 0.0
O85 O 0.48465 0.43084 0.72674 0.0
O86 O 0.44013 0.42669 0.69772 0.0
C87 C 0.50793 0.38065 0.66427 0.0
O88 O 0.44444 0.36179 0.67653 0.0
Co89 Co 0.49705 0.33518 0.731 0.0
O90 O 0.46614 0.31844 0.69141 0.0
C91 C 0.46001 0.36646 0.79701 0.0
C92 C 0.46036 0.44343 0.71491 0.0
C93 C 0.44585 0.33372 0.67342 0.0
O94 O 0.45169 0.38497 0.76662 0.0
O95 O 0.48033 0.34762 0.7907 0.0
O96 O 0.48946 0.39926 0.64707 0.0
O97 O 0.5033 0.37369 0.70609 0.0
Co98 Co 0.86202 0.22059 0.97571 0.0
O99 O 0.8295 0.23088 0.01446 0.0
O100 O 0.82976 0.19391 0.96582 0.0
C101 C 0.87131 0.26665 0.95032 0.0
O102 O 0.89079 0.20319 0.92998 0.0
Co103 Co 0.92489 0.24654 0.98819 0.0
O104 O 0.93221 0.22978 0.9272 0.0
C105 C 0.90538 0.19445 0.04178 0.0
C106 C 0.8155 0.20935 0.99559 0.0
C107 C 0.91595 0.20923 0.91255 0.0
O108 O 0.8795 0.19456 0.02426 0.0
O109 O 0.92508 0.21356 0.03287 0.0
O110 O 0.85067 0.25104 0.93204 0.0
O111 O 0.8837 0.25498 0.98526 0.0
Co112 Co 0.97515 0.60978 0.71471 0.0
O113 O 0.98925 0.57346 0.73905 0.0
O114 O 0.94871 0.57825 0.69815 0.0
C115 C 0.01848 0.62601 0.68664 0.0
O116 O 0.95468 0.64373 0.68314 0.0
Co117 Co 0.99946 0.66818 0.75551 0.0
O118 O 0.97274 0.68628 0.71031 0.0
C119 C 0.95425 0.63527 0.80455 0.0
C120 C 0.96674 0.56127 0.72001 0.0
C121 C 0.95547 0.67189 0.6846 0.0
O122 O 0.95099 0.61776 0.77079 0.0
O123 O 0.9747 0.6543 0.80721 0.0
O124 O 0.00298 0.60707 0.66415 0.0
O125 O 0.00913 0.63146 0.72713 0.0
Co126 Co 0.14273 0.21595 0.4659 0.0
O127 O 0.1783 0.22916 0.49414 0.0
O128 O 0.17453 0.18932 0.4515 0.0
C129 C 0.12883 0.26012 0.43799 0.0
O130 O 0.10977 0.19629 0.43028 0.0
Co131 Co 0.08269 0.24126 0.4994 0.0
O132 O 0.06636 0.21577 0.45121 0.0
C133 C 0.11208 0.19451 0.55135 0.0
C134 C 0.19088 0.20677 0.4755 0.0
C135 C 0.08163 0.19799 0.42771 0.0
O136 O 0.13202 0.19157 0.52081 0.0
O137 O 0.09266 0.21466 0.55097 0.0
O138 O 0.14804 0.24434 0.41654 0.0
O139 O 0.12133 0.25019 0.47731 0.0
Co140 Co 0.53594 0.3882 0.22162 0.0
O141 O 0.52469 0.41931 0.26231 0.0
O142 O 0.56267 0.42078 0.21571 0.0
C143 C 0.49026 0.37959 0.1942 0.0
O144 O 0.55444 0.36148 0.17424 0.0
Co145 Co 0.51036 0.3248 0.22639 0.0
O146 O 0.52788 0.32049 0.16517 0.0
C147 C 0.56092 0.34258 0.28482 0.0
C148 C 0.54646 0.43411 0.24553 0.0
C149 C 0.54857 0.33751 0.1533 0.0
O150 O 0.56112 0.36908 0.26974 0.0
O151 O 0.54204 0.32326 0.27319 0.0
O152 O 0.50602 0.40082 0.17782 0.0
O153 O 0.50171 0.36594 0.22808 0.0
Co154 Co 0.36147 0.78364 0.97095 0.0
O155 O 0.32934 0.77156 0.00907 0.0
O156 O 0.32827 0.80909 0.96144 0.0
C157 C 0.37306 0.73828 0.94485 0.0
O158 O 0.38951 0.80277 0.92597 0.0
Co159 Co 0.42541 0.76078 0.9844 0.0
O160 O 0.43224 0.77831 0.92381 0.0
C161 C 0.4031 0.81163 0.03772 0.0
C162 C 0.31454 0.79282 0.99078 0.0
C163 C 0.41501 0.798 0.90897 0.0
O164 O 0.37736 0.81011 0.02 0.0
O165 O 0.4239 0.79371 0.029 0.0
O166 O 0.35175 0.75308 0.92665 0.0
O167 O 0.38474 0.75021 0.98013 0.0
Co168 Co 0.96494 0.39033 0.77918 0.0
O169 O 0.98231 0.41942 0.74072 0.0
O170 O 0.9402 0.42495 0.77659 0.0
C171 C 0.00644 0.38006 0.81799 0.0
O172 O 0.94077 0.36508 0.82261 0.0
Co173 Co 0.988 0.32587 0.77877 0.0
O174 O 0.96594 0.32363 0.83656 0.0
C175 C 0.94349 0.34562 0.71113 0.0
C176 C 0.96039 0.43623 0.75063 0.0
C177 C 0.94482 0.34104 0.84463 0.0
O178 O 0.9437 0.37207 0.72615 0.0
O179 O 0.95995 0.32519 0.72654 0.0
O180 O 0.99031 0.40222 0.82963 0.0
O181 O 0.99839 0.36655 0.78169 0.0
Co182 Co 0.36235 0.21766 0.52917 0.0
O183 O 0.32993 0.23142 0.49328 0.0
O184 O 0.33032 0.18983 0.53171 0.0
C185 C 0.37092 0.26053 0.56524 0.0
O186 O 0.39116 0.19651 0.57066 0.0
Co187 Co 0.4247 0.24591 0.52169 0.0
O188 O 0.43281 0.22265 0.57714 0.0
C189 C 0.40589 0.19917 0.45724 0.0
C190 C 0.31597 0.20807 0.50602 0.0
C191 C 0.41644 0.20131 0.58847 0.0
O192 O 0.38022 0.19702 0.47513 0.0
O193 O 0.42519 0.21787 0.46961 0.0
O194 O 0.35066 0.24293 0.57986 0.0
O195 O 0.38339 0.25292 0.52785 0.0
Co196 Co 0.53748 0.6068 0.28782 0.0
O197 O 0.52315 0.57097 0.26181 0.0
O198 O 0.56486 0.57533 0.29997 0.0
C199 C 0.495 0.62109 0.32064 0.0
O200 O 0.55864 0.63987 0.32056 0.0
Co201 Co 0.51053 0.66666 0.25653 0.0
O202 O 0.53811 0.68319 0.30174 0.0
C203 C 0.55594 0.63772 0.20082 0.0
C204 C 0.54649 0.55873 0.27817 0.0
C205 C 0.55694 0.66794 0.32325 0.0
O206 O 0.55924 0.61707 0.23011 0.0
O207 O 0.53644 0.65772 0.20367 0.0
O208 O 0.51176 0.60201 0.34056 0.0
O209 O 0.50268 0.62808 0.27989 0.0
Co210 Co 0.14169 0.7859 0.03351 0.0
O211 O 0.17713 0.77041 0.00779 0.0
O212 O 0.17376 0.8126 0.04487 0.0
C213 C 0.12616 0.74421 0.06741 0.0
O214 O 0.10915 0.8082 0.06563 0.0
Co215 Co 0.08132 0.76067 0.00181 0.0
O216 O 0.06527 0.78938 0.04566 0.0
C217 C 0.11435 0.80034 0.94241 0.0
C218 C 0.18988 0.79367 0.02338 0.0
C219 C 0.08099 0.80759 0.06757 0.0
O220 O 0.13211 0.80685 0.97479 0.0
O221 O 0.09532 0.77988 0.94487 0.0
O222 O 0.14582 0.7605 0.08691 0.0
O223 O 0.1194 0.75186 0.02655 0.0
Co224 Co 0.53259 0.88806 0.77604 0.0
O225 O 0.51956 0.92279 0.74487 0.0
O226 O 0.5589 0.92021 0.78902 0.0
C227 C 0.4884 0.87448 0.80411 0.0
O228 O 0.55251 0.85638 0.81413 0.0
Co229 Co 0.50859 0.82634 0.74917 0.0
O230 O 0.52781 0.81395 0.80644 0.0
C231 C 0.5524 0.85635 0.69169 0.0
C232 C 0.54196 0.93578 0.76298 0.0
C233 C 0.5475 0.82955 0.8252 0.0
O234 O 0.5566 0.87639 0.72157 0.0
O235 O 0.53273 0.83652 0.69473 0.0
O236 O 0.50388 0.89438 0.82459 0.0
O237 O 0.49873 0.86591 0.7656 0.0
Co238 Co 0.36366 0.29267 0.02012 0.0
O239 O 0.33229 0.27741 0.98366 0.0
O240 O 0.3305 0.31934 0.02094 0.0
C241 C 0.37286 0.25026 0.0578 0.0
O242 O 0.39118 0.3149 0.06242 0.0
Co243 Co 0.4268 0.26606 0.01457 0.0
O244 O 0.43289 0.28901 0.07079 0.0
C245 C 0.40782 0.31248 0.9495 0.0
C246 C 0.3171 0.30004 0.99595 0.0
C247 C 0.41617 0.31024 0.08131 0.0
O248 O 0.38176 0.31364 0.96629 0.0
O249 O 0.42754 0.29451 0.96294 0.0
O250 O 0.35178 0.26737 0.07075 0.0
O251 O 0.38572 0.2579 0.02064 0.0
Co252 Co 0.9702 0.10765 0.27743 0.0
O253 O 0.98549 0.07139 0.25501 0.0
O254 O 0.94137 0.0767 0.28528 0.0
C255 C 0.01064 0.121 0.31678 0.0
O256 O 0.94799 0.14168 0.30587 0.0
Co257 Co 1.00077 0.16645 0.25011 0.0
O258 O 0.9767 0.18177 0.30105 0.0
C259 C 0.9605 0.13691 0.18605 0.0
C260 C 0.96104 0.05949 0.26764 0.0
C261 C 0.95411 0.16841 0.31584 0.0
O262 O 0.95317 0.11784 0.21614 0.0
O263 O 0.98076 0.15593 0.19177 0.0
O264 O 0.99196 0.10274 0.3343 0.0
O265 O 0.00592 0.12783 0.27491 0.0
Co266 Co 0.13941 0.72222 0.51604 0.0
O267 O 0.16948 0.73646 0.47603 0.0
O268 O 0.17331 0.69643 0.51758 0.0
C269 C 0.13031 0.76632 0.54868 0.0
O270 O 0.11334 0.7011 0.56204 0.0
Co271 Co 0.07552 0.747 0.51399 0.0
O272 O 0.07234 0.72736 0.57382 0.0
C273 C 0.09377 0.69897 0.45091 0.0
C274 C 0.18561 0.7148 0.48962 0.0
C275 C 0.0893 0.70616 0.58359 0.0
O276 O 0.12038 0.69877 0.46571 0.0
O277 O 0.07415 0.71695 0.46463 0.0
O278 O 0.15188 0.75017 0.56288 0.0
O279 O 0.1165 0.75629 0.51389 0.0
Co280 Co 0.53128 0.10838 0.7217 0.0
O281 O 0.51863 0.07337 0.75195 0.0
O282 O 0.55777 0.07637 0.70767 0.0
C283 C 0.48725 0.12217 0.69347 0.0
O284 O 0.55041 0.14133 0.68521 0.0
Co285 Co 0.50556 0.16784 0.75658 0.0
O286 O 0.52979 0.18412 0.7067 0.0
C287 C 0.55241 0.13845 0.80776 0.0
C288 C 0.54092 0.06047 0.73352 0.0
C289 C 0.54795 0.16943 0.68293 0.0
O290 O 0.55598 0.11967 0.77577 0.0
O291 O 0.53155 0.1571 0.80878 0.0
O292 O 0.50283 0.10248 0.67276 0.0
O293 O 0.49695 0.1296 0.73296 0.0
Co294 Co 0.14218 0.28798 0.96278 0.0
O295 O 0.17807 0.27148 0.98504 0.0
O296 O 0.17368 0.31648 0.958 0.0
C297 C 0.12864 0.24934 0.91969 0.0
O298 O 0.10891 0.3116 0.93478 0.0
Co299 Co 0.08278 0.25738 0.98693 0.0
O300 O 0.06612 0.28796 0.94664 0.0
C301 C 0.11288 0.29362 0.05513 0.0
C302 C 0.19053 0.29603 0.97434 0.0
C303 C 0.08098 0.30909 0.9302 0.0
O304 O 0.13129 0.30298 0.02531 0.0
O305 O 0.09446 0.27309 0.04767 0.0
O306 O 0.14755 0.26817 0.9044 0.0
O307 O 0.12142 0.25258 0.96172 0.0
Co308 Co 0.96523 0.88741 0.21762 0.0
O309 O 0.97973 0.91866 0.25471 0.0
O310 O 0.9382 0.92032 0.21619 0.0
C311 C 0.00819 0.87889 0.18184 0.0
O312 O 0.94392 0.85942 0.17468 0.0
Co313 Co 0.99244 0.82467 0.22339 0.0
O314 O 0.97223 0.81962 0.16436 0.0
C315 C 0.94551 0.84325 0.28781 0.0
C316 C 0.95705 0.93368 0.24215 0.0
C317 C 0.95013 0.8353 0.15417 0.0
O318 O 0.94405 0.86919 0.2708 0.0
O319 O 0.96368 0.82367 0.27464 0.0
O320 O 0.99092 0.89959 0.16779 0.0
O321 O 1.00015 0.86586 0.2186 0.0
Co322 Co 0.36056 0.72304 0.45407 0.0
O323 O 0.32493 0.73991 0.47679 0.0
O324 O 0.32831 0.69548 0.44732 0.0
C325 C 0.37498 0.7628 0.41376 0.0
O326 O 0.39336 0.69914 0.42523 0.0
Co327 Co 0.42082 0.75147 0.47955 0.0
O328 O 0.43683 0.72129 0.43805 0.0
C329 C 0.38984 0.71408 0.54575 0.0
C330 C 0.31193 0.71599 0.46446 0.0
C331 C 0.42136 0.70094 0.42071 0.0
O332 O 0.37077 0.70626 0.51584 0.0
O333 O 0.40896 0.7341 0.53915 0.0
O334 O 0.35604 0.74461 0.39681 0.0
O335 O 0.38217 0.75793 0.45541 0.0
Co336 Co 0.46782 0.11848 0.21225 0.0
O337 O 0.48773 0.08572 0.23869 0.0
O338 O 0.44325 0.08355 0.20925 0.0
C339 C 0.50592 0.13449 0.17002 0.0
O340 O 0.44147 0.1483 0.18035 0.0
Co341 Co 0.49196 0.1813 0.23332 0.0
O342 O 0.46191 0.19311 0.18832 0.0
C343 C 0.45726 0.14948 0.30181 0.0
C344 C 0.46519 0.06995 0.22817 0.0
C345 C 0.44228 0.17608 0.17257 0.0
O346 O 0.45044 0.12947 0.273 0.0
O347 O 0.4758 0.16985 0.29395 0.0
O348 O 0.48945 0.11332 0.15537 0.0
O349 O 0.5009 0.14272 0.21115 0.0
Co350 Co 0.63712 0.71238 0.96723 0.0
O351 O 0.67089 0.72933 0.99587 0.0
O352 O 0.67144 0.68806 0.95658 0.0
C353 C 0.62015 0.75417 0.93509 0.0
O354 O 0.60634 0.68932 0.93168 0.0
Co355 Co 0.57504 0.73372 -0.00152 0.0
O356 O 0.56144 0.70605 0.95119 0.0
C357 C 0.60823 0.69248 0.05514 0.0
C358 C 0.68585 0.70756 0.97985 0.0
C359 C 0.57815 0.68912 0.92853 0.0
O360 O 0.62755 0.68908 0.02379 0.0
O361 O 0.58769 0.71145 0.05349 0.0
O362 O 0.64112 0.7395 0.91586 0.0
O363 O 0.61276 0.74501 0.97495 0.0
Co364 Co 0.0397 0.89352 0.71845 0.0
O365 O 0.02259 0.92469 0.75315 0.0
O366 O 0.06483 0.92789 0.71675 0.0
C367 C 0.99828 0.88119 0.68054 0.0
O368 O 0.06343 0.86593 0.67804 0.0
Co369 Co 0.0156 0.82954 0.72978 0.0
O370 O 0.04173 0.82147 0.6777 0.0
C371 C 0.06081 0.85273 0.79299 0.0
C372 C 0.04484 0.94059 0.74139 0.0
C373 C 0.06133 0.83928 0.66412 0.0
O374 O 0.06118 0.87797 0.77351 0.0
O375 O 0.04361 0.83185 0.78178 0.0
O376 O 0.0143 0.9029 0.66666 0.0
O377 O 0.00607 0.86988 0.71881 0.0
Co378 Co 0.86403 0.28259 0.46571 0.0
O379 O 0.83119 0.26292 0.49239 0.0
O380 O 0.8289 0.30658 0.46014 0.0
C381 C 0.88141 0.24354 0.42668 0.0
O382 O 0.89386 0.30869 0.43344 0.0
Co383 Co 0.9269 0.26027 0.4914 0.0
O384 O 0.93923 0.29117 0.44823 0.0
C385 C 0.89274 0.29465 0.55658 0.0
C386 C 0.81532 0.2851 0.48027 0.0
C387 C 0.92198 0.30945 0.42935 0.0
O388 O 0.87399 0.30163 0.52578 0.0
O389 O 0.91282 0.2755 0.55102 0.0
O390 O 0.86001 0.25899 0.41013 0.0
O391 O 0.889 0.25027 0.46749 0.0
Co392 Co 0.47507 0.89481 0.26944 0.0
O393 O 0.49243 0.92891 0.24274 0.0
O394 O 0.4504 0.929 0.2799 0.0
C395 C 0.51639 0.87748 0.30283 0.0
O396 O 0.4513 0.86328 0.30224 0.0
Co397 Co 0.49769 0.83361 0.23657 0.0
O398 O 0.46847 0.81894 0.28088 0.0
C399 C 0.45911 0.86857 0.17833 0.0
C400 C 0.47032 0.94372 0.2579 0.0
C401 C 0.45093 0.83504 0.3035 0.0
O402 O 0.45326 0.88605 0.2113 0.0
O403 O 0.47916 0.84906 0.17994 0.0
O404 O 0.5012 0.89795 0.32239 0.0
O405 O 0.50796 0.87088 0.26235 0.0
Co406 Co 0.86066 0.71729 0.01788 0.0
O407 O 0.82635 0.73215 0.98802 0.0
O408 O 0.82731 0.69186 0.02978 0.0
C409 C 0.87568 0.76061 0.04757 0.0
O410 O 0.89229 0.69616 0.05457 0.0
Co411 Co 0.92188 0.74084 0.98621 0.0
O412 O 0.93652 0.71411 0.03418 0.0
C413 C 0.89178 0.69537 0.93303 0.0
C414 C 0.81221 0.71021 0.00529 0.0
C415 C 0.92049 0.69679 0.05735 0.0
O416 O 0.87158 0.69288 0.96321 0.0
O417 O 0.91166 0.71506 0.93379 0.0
O418 O 0.85538 0.74543 0.06759 0.0
O419 O 0.88353 0.75082 0.00835 0.0
Co420 Co 0.03233 0.11488 0.77891 0.0
O421 O 0.01684 0.07908 0.75478 0.0
O422 O 0.05819 0.08242 0.7938 0.0
C423 C 0.98986 0.132 0.80872 0.0
O424 O 0.0542 0.14836 0.80977 0.0
Co425 Co 0.00843 0.17382 0.73881 0.0
O426 O 0.03573 0.19112 0.78383 0.0
C427 C 0.05173 0.13962 0.68772 0.0
C428 C 0.03943 0.06607 0.77221 0.0
C429 C 0.05354 0.17657 0.80845 0.0
O430 O 0.05553 0.12234 0.72168 0.0
O431 O 0.0317 0.15914 0.68595 0.0
O432 O 0.00527 0.11267 0.83062 0.0
O433 O 0.99872 0.13737 0.76796 0.0
Co434 Co 0.64042 0.27774 0.52649 0.0
O435 O 0.67442 0.25866 0.50264 0.0
O436 O 0.67449 0.3034 0.5309 0.0
C437 C 0.62403 0.23987 0.5689 0.0
O438 O 0.60886 0.30349 0.5553 0.0
Co439 Co 0.57934 0.25167 0.50011 0.0
O440 O 0.56474 0.28305 0.54076 0.0
C441 C 0.61237 0.28679 0.434 0.0
C442 C 0.68921 0.28192 0.51279 0.0
C443 C 0.58068 0.30284 0.55872 0.0
O444 O 0.63077 0.29445 0.4648 0.0
O445 O 0.59257 0.26736 0.43996 0.0
O446 O 0.64451 0.25692 0.58429 0.0
O447 O 0.61704 0.24399 0.52693 0.0
C448 C 0.08362 0.35131 0.13317 0.0
C449 C 0.0782 0.33474 0.17256 0.0
C450 C 0.09866 0.33891 0.09612 0.0
C451 C 0.10868 0.30978 0.09781 0.0
H452 H 0.07416 0.37293 0.12952 0.0
H453 H 0.09993 0.35117 0.06461 0.0
S454 S 0.10569 0.25994 0.19697 0.0
N455 N 0.08851 0.28978 0.21397 0.0
N456 N 0.11622 0.26656 0.14422 0.0
C457 C 0.10611 0.29432 0.13873 0.0
C458 C 0.09098 0.30682 0.17622 0.0
C459 C 0.91398 0.80538 0.32227 0.0
C460 C 0.9248 0.8342 0.3235 0.0
C461 C 0.90048 0.79293 0.36018 0.0
C462 C 0.89712 0.80896 0.40045 0.0
H463 H 0.91777 0.79167 0.29279 0.0
H464 H 0.89482 0.76991 0.35922 0.0
S465 S 0.91786 0.88641 0.41906 0.0
N466 N 0.92822 0.87952 0.36628 0.0
N467 N 0.9026 0.85597 0.43807 0.0
C468 C 0.90504 0.83869 0.40069 0.0
C469 C 0.91897 0.85141 0.36194 0.0
C470 C 0.4117 0.69973 0.66561 0.0
C471 C 0.42226 0.67082 0.66336 0.0
C472 C 0.39763 0.7127 0.62859 0.0
C473 C 0.39335 0.69719 0.58801 0.0
H474 H 0.41598 0.71311 0.6953 0.0
H475 H 0.39214 0.73574 0.63045 0.0
S476 S 0.41312 0.61974 0.56673 0.0
N477 N 0.42447 0.62597 0.61922 0.0
N478 N 0.39786 0.65052 0.54908 0.0
C479 C 0.40114 0.66741 0.58673 0.0
C480 C 0.41565 0.65413 0.62464 0.0
C481 C 0.57137 0.13998 0.88649 0.0
C482 C 0.57637 0.1437 0.8398 0.0
C483 C 0.58802 0.15546 0.91844 0.0
C484 C 0.60942 0.17569 0.90435 0.0
H485 H 0.55277 0.1273 0.89816 0.0
H486 H 0.58166 0.15429 0.95391 0.0
S487 S 0.63312 0.19027 0.78628 0.0
N488 N 0.60662 0.16586 0.7812 0.0
N489 N 0.6369 0.19615 0.84142 0.0
C490 C 0.61643 0.17745 0.85812 0.0
C491 C 0.60007 0.16108 0.82568 0.0
C492 C 0.04148 0.65245 0.38406 0.0
C493 C 0.05705 0.64667 0.344 0.0
C494 C 0.05467 0.66718 0.42018 0.0
C495 C 0.08383 0.67707 0.41737 0.0
H496 H 0.01828 0.64756 0.38609 0.0
H497 H 0.04126 0.67261 0.4494 0.0
S498 S 0.13525 0.6634 0.32238 0.0
N499 N 0.10411 0.64852 0.30547 0.0
N500 N 0.12902 0.67665 0.37377 0.0
C501 C 0.10056 0.66883 0.37943 0.0
C502 C 0.08708 0.65353 0.34252 0.0
C503 C 0.61115 0.82497 0.61929 0.0
C504 C 0.59771 0.82663 0.57644 0.0
C505 C 0.59824 0.83861 0.65706 0.0
C506 C 0.57183 0.85418 0.65245 0.0
H507 H 0.62988 0.81081 0.62446 0.0
H508 H 0.60721 0.83439 0.69055 0.0
S509 S 0.53142 0.869 0.54592 0.0
N510 N 0.55927 0.84826 0.53029 0.0
N511 N 0.53511 0.87382 0.6013 0.0
C512 C 0.5602 0.85859 0.60899 0.0
C513 C 0.57318 0.84475 0.57081 0.0
C514 C 0.44605 0.3445 0.91683 0.0
C515 C 0.41721 0.33369 0.91452 0.0
C516 C 0.45885 0.35878 0.87986 0.0
C517 C 0.44322 0.36299 0.83935 0.0
H518 H 0.45954 0.34016 0.94641 0.0
H519 H 0.48188 0.36439 0.88168 0.0
S520 S 0.36575 0.34288 0.81829 0.0
N521 N 0.37221 0.33136 0.87065 0.0
N522 N 0.39641 0.35839 0.80061 0.0
C523 C 0.41344 0.35509 0.83815 0.0
C524 C 0.40034 0.34036 0.876 0.0
C525 C 0.94282 0.15939 0.06776 0.0
C526 C 0.91444 0.17094 0.07298 0.0
C527 C 0.95666 0.14465 0.10337 0.0
C528 C 0.94243 0.14064 0.14515 0.0
H529 H 0.95536 0.164 0.03727 0.0
H530 H 0.9795 0.1387 0.09959 0.0
S531 S 0.86626 0.16207 0.17318 0.0
N532 N 0.87112 0.17391 0.12059 0.0
N533 N 0.89712 0.14569 0.18786 0.0
C534 C 0.91285 0.14892 0.14896 0.0
C535 C 0.89877 0.16422 0.11262 0.0
C536 C 0.93424 0.63471 0.88263 0.0
C537 C 0.92983 0.63961 0.83607 0.0
C538 C 0.91778 0.65004 0.91499 0.0
C539 C 0.89714 0.67121 0.90152 0.0
H540 H 0.95239 0.62131 0.89403 0.0
H541 H 0.92375 0.64792 0.95053 0.0
S542 S 0.87525 0.68928 0.78378 0.0
N543 N 0.90092 0.66407 0.77803 0.0
N544 N 0.87098 0.69395 0.83911 0.0
C545 C 0.89058 0.67415 0.85529 0.0
C546 C 0.90675 0.65798 0.82237 0.0
C547 C 0.08381 0.15131 0.57315 0.0
C548 C 0.10668 0.17078 0.5837 0.0
C549 C 0.06783 0.13749 0.60764 0.0
C550 C 0.07483 0.14223 0.65346 0.0
H551 H 0.07596 0.14956 0.53845 0.0
H552 H 0.04819 0.12551 0.59865 0.0
S553 S 0.13577 0.18731 0.69815 0.0
N554 N 0.13768 0.19143 0.64237 0.0
N555 N 0.10842 0.16439 0.70745 0.0
C556 C 0.09992 0.15868 0.66405 0.0
C557 C 0.11575 0.1733 0.62898 0.0
C558 C 0.60143 0.33369 0.39526 0.0
C559 C 0.6101 0.30417 0.39222 0.0
C560 C 0.58809 0.34779 0.35815 0.0
C561 C 0.5833 0.33262 0.31733 0.0
H562 H 0.60215 0.3449 0.4277 0.0
H563 H 0.579 0.36947 0.3629 0.0
S564 S 0.60838 0.25755 0.28954 0.0
N565 N 0.61743 0.26208 0.34347 0.0
N566 N 0.59319 0.28866 0.27335 0.0
C567 C 0.59527 0.30443 0.31242 0.0
C568 C 0.60845 0.29011 0.35009 0.0
C569 C 0.45125 0.86555 0.09587 0.0
C570 C 0.43906 0.8664 0.13959 0.0
C571 C 0.43721 0.85048 0.06084 0.0
C572 C 0.41065 0.83571 0.06857 0.0
H573 H 0.47318 0.87381 0.09003 0.0
H574 H 0.44864 0.84792 0.02878 0.0
S575 S 0.36748 0.83573 0.17495 0.0
N576 N 0.39708 0.85499 0.18722 0.0
N577 N 0.37063 0.82638 0.12088 0.0
C578 C 0.39648 0.83945 0.11041 0.0
C579 C 0.41078 0.85497 0.1462 0.0
C580 C 0.90986 0.3092 0.67762 0.0
C581 C 0.92282 0.33709 0.67508 0.0
C582 C 0.89624 0.29674 0.63983 0.0
C583 C 0.89489 0.31187 0.59841 0.0
H584 H 0.9121 0.29605 0.70813 0.0
H585 H 0.88904 0.27418 0.64187 0.0
S586 S 0.92166 0.38701 0.57588 0.0
N587 N 0.93038 0.38085 0.6296 0.0
N588 N 0.90458 0.35726 0.55808 0.0
C589 C 0.90495 0.34091 0.5967 0.0
C590 C 0.919 0.35364 0.6353 0.0
C591 C 0.41166 0.16154 0.34348 0.0
C592 C 0.44095 0.15191 0.34451 0.0
C593 C 0.39886 0.17463 0.38191 0.0
C594 C 0.41522 0.17839 0.42193 0.0
H595 H 0.39959 0.16151 0.31175 0.0
H596 H 0.37719 0.18409 0.37899 0.0
S597 S 0.49053 0.15151 0.44396 0.0
N598 N 0.48425 0.14317 0.39019 0.0
N599 N 0.46025 0.1672 0.46257 0.0
C600 C 0.44334 0.16596 0.42454 0.0
C601 C 0.45626 0.15286 0.38566 0.0
C602 C 0.598 0.66586 0.17325 0.0
C603 C 0.57841 0.64257 0.16611 0.0
C604 C 0.61141 0.68005 0.13655 0.0
C605 C 0.60592 0.67095 0.09184 0.0
H606 H 0.60045 0.67521 0.20693 0.0
H607 H 0.62367 0.69993 0.14284 0.0
S608 S 0.55988 0.60841 0.0559 0.0
N609 N 0.55674 0.60902 0.1119 0.0
N610 N 0.58262 0.63522 0.04263 0.0
C611 C 0.58908 0.64565 0.08474 0.0
C612 C 0.57506 0.63148 0.12207 0.0
C613 C 0.09836 0.81917 0.82261 0.0
C614 C 0.08279 0.84551 0.82769 0.0
C615 C 0.11263 0.80626 0.8595 0.0
C616 C 0.11192 0.8194 0.90253 0.0
H617 H 0.09743 0.80721 0.79081 0.0
H618 H 0.1218 0.78454 0.85538 0.0
S619 S 0.07801 0.89058 0.93181 0.0
N620 N 0.07056 0.88615 0.87722 0.0
N621 N 0.09759 0.86179 0.94713 0.0
C622 C 0.09928 0.84731 0.90687 0.0
C623 C 0.08458 0.86047 0.86916 0.0
C624 C 0.06731 0.31288 0.41076 0.0
C625 C 0.07526 0.3237 0.36788 0.0
C626 C 0.08584 0.29388 0.43464 0.0
C627 C 0.11247 0.28417 0.41567 0.0
H628 H 0.04608 0.31817 0.42505 0.0
H629 H 0.07836 0.2856 0.46709 0.0
S630 S 0.14389 0.30803 0.30529 0.0
N631 N 0.11222 0.32535 0.3086 0.0
N632 N 0.14676 0.2888 0.35269 0.0
C633 C 0.12128 0.29609 0.3737 0.0
C634 C 0.1027 0.31604 0.34996 0.0
C635 C 0.93753 0.82985 0.6444 0.0
C636 C 0.93993 0.83007 0.59688 0.0
C637 C 0.95573 0.84756 0.67117 0.0
C638 C 0.97658 0.86634 0.65121 0.0
H639 H 0.92259 0.81482 0.66101 0.0
H640 H 0.95408 0.84586 0.70784 0.0
S641 S 0.98946 0.87619 0.52754 0.0
N642 N 0.9634 0.85119 0.53055 0.0
N643 N 0.99714 0.88518 0.58063 0.0
C644 C 0.97799 0.86779 0.60348 0.0
C645 C 0.9598 0.84938 0.57635 0.0
C646 C 0.37972 0.70702 0.87559 0.0
C647 C 0.38811 0.71423 0.92029 0.0
C648 C 0.39725 0.68883 0.84842 0.0
C649 C 0.42374 0.67745 0.86505 0.0
H650 H 0.36042 0.71683 0.8605 0.0
H651 H 0.39112 0.68541 0.81322 0.0
S652 S 0.45335 0.68545 0.98142 0.0
N653 N 0.42274 0.7047 0.98176 0.0
N654 N 0.45616 0.67184 0.92961 0.0
C655 C 0.43135 0.68266 0.91039 0.0
C656 C 0.41332 0.70065 0.93838 0.0
C657 C 0.56785 0.18379 0.13079 0.0
C658 C 0.56163 0.18754 0.08438 0.0
C659 C 0.54983 0.16624 0.15829 0.0
C660 C 0.52562 0.15123 0.13991 0.0
H661 H 0.58616 0.19516 0.14614 0.0
H662 H 0.5548 0.16449 0.19422 0.0
S663 S 0.50119 0.15278 0.01966 0.0
N664 N 0.53021 0.17431 0.02089 0.0
N665 N 0.49694 0.14075 0.07221 0.0
C666 C 0.51981 0.15413 0.09325 0.0
C667 C 0.53768 0.17246 0.06558 0.0
C668 C 0.06352 0.69375 0.09896 0.0
C669 C 0.07109 0.68442 0.14279 0.0
C670 C 0.08227 0.71188 0.07397 0.0
C671 C 0.10882 0.7221 0.09258 0.0
H672 H 0.04268 0.68744 0.08427 0.0
H673 H 0.07526 0.71872 0.04048 0.0
S674 S 0.13877 0.70267 0.206 0.0
N675 N 0.10713 0.68521 0.20337 0.0
N676 N 0.14219 0.72018 0.1571 0.0
C677 C 0.11693 0.71216 0.13611 0.0
C678 C 0.09806 0.69313 0.16111 0.0
C679 C 0.54455 0.83107 0.31292 0.0
C680 C 0.53855 0.85983 0.32739 0.0
C681 C 0.56257 0.81248 0.33845 0.0
C682 C 0.57609 0.82229 0.37846 0.0
H683 H 0.53422 0.82224 0.28285 0.0
H684 H 0.5652 0.78997 0.32761 0.0
S685 S 0.57002 0.89631 0.42889 0.0
N686 N 0.54906 0.89769 0.38312 0.0
N687 N 0.58393 0.86295 0.43014 0.0
C688 C 0.57183 0.85145 0.39191 0.0
C689 C 0.55279 0.87019 0.3666 0.0
C690 C 0.39069 0.27573 0.64051 0.0
C691 C 0.38504 0.28242 0.59471 0.0
C692 C 0.40981 0.29307 0.66634 0.0
C693 C 0.42316 0.31805 0.64752 0.0
H694 H 0.38184 0.25599 0.65561 0.0
H695 H 0.41478 0.28648 0.70089 0.0
S696 S 0.4137 0.34603 0.53024 0.0
N697 N 0.39324 0.31623 0.53217 0.0
N698 N 0.42821 0.3495 0.58142 0.0
C699 C 0.41634 0.32589 0.60266 0.0
C700 C 0.39751 0.30785 0.57602 0.0
C701 C 0.96224 0.179 0.81715 0.0
C702 C 0.96725 0.15 0.8315 0.0
C703 C 0.94417 0.19788 0.84217 0.0
C704 C 0.92959 0.18807 0.88134 0.0
H705 H 0.97352 0.18776 0.78783 0.0
H706 H 0.94233 0.22054 0.83169 0.0
S707 S 0.93322 0.1136 0.93112 0.0
N708 N 0.95487 0.11204 0.88618 0.0
N709 N 0.92002 0.14723 0.93215 0.0
C710 C 0.93295 0.15869 0.89449 0.0
C711 C 0.952 0.13971 0.86981 0.0
C712 C 0.92096 0.71363 0.6756 0.0
C713 C 0.9346 0.6888 0.65682 0.0
C714 C 0.902 0.73102 0.64966 0.0
C715 C 0.89661 0.72453 0.60376 0.0
H716 H 0.92511 0.71977 0.71061 0.0
H717 H 0.89248 0.75031 0.66514 0.0
S718 S 0.92626 0.66151 0.53898 0.0
N719 N 0.94054 0.65793 0.5903 0.0
N720 N 0.9056 0.69116 0.5409 0.0
C721 C 0.90969 0.69948 0.5848 0.0
C722 C 0.92848 0.68142 0.61154 0.0
C723 C 0.02398 0.14353 0.39104 0.0
C724 C 0.03095 0.13826 0.34524 0.0
C725 C 0.04077 0.16276 0.41736 0.0
C726 C 0.06553 0.17689 0.39919 0.0
H727 H 0.00476 0.13365 0.40624 0.0
H728 H 0.03423 0.16672 0.45224 0.0
S729 S 0.09384 0.16957 0.28177 0.0
N730 N 0.06461 0.14826 0.283 0.0
N731 N 0.09678 0.18371 0.33327 0.0
C732 C 0.07338 0.17107 0.354 0.0
C733 C 0.05589 0.15197 0.32679 0.0
C734 C 0.61669 0.29911 0.11429 0.0
C735 C 0.60975 0.29082 0.06945 0.0
C736 C 0.59751 0.31631 0.14006 0.0
C737 C 0.57057 0.32552 0.12212 0.0
H738 H 0.63646 0.29115 0.13048 0.0
H739 H 0.60298 0.32087 0.17523 0.0
S740 S 0.54371 0.31414 0.00487 0.0
N741 N 0.57566 0.2972 0.0063 0.0
N742 N 0.53886 0.32792 0.05622 0.0
C743 C 0.564 0.31907 0.07677 0.0
C744 C 0.58388 0.30221 0.04997 0.0
C745 C 0.4385 0.81142 0.83568 0.0
C746 C 0.42775 0.81987 0.87827 0.0
C747 C 0.45628 0.83032 0.81028 0.0
C748 C 0.46505 0.85775 0.82762 0.0
H749 H 0.43399 0.78971 0.82268 0.0
H750 H 0.46436 0.82258 0.77791 0.0
S751 S 0.44054 0.89058 0.9365 0.0
N752 N 0.42473 0.85809 0.93534 0.0
N753 N 0.45935 0.8932 0.88867 0.0
C754 C 0.45314 0.86693 0.86931 0.0
C755 C 0.43427 0.84802 0.89447 0.0
C756 C 0.91103 0.30393 0.94531 0.0
C757 C 0.88554 0.29146 0.92638 0.0
C758 C 0.92914 0.32237 0.91976 0.0
C759 C 0.92187 0.3299 0.87497 0.0
H760 H 0.91821 0.29791 0.97915 0.0
H761 H 0.9498 0.32941 0.93418 0.0
S762 S 0.85579 0.30685 0.81135 0.0
N763 N 0.8526 0.29053 0.86127 0.0
N764 N 0.88642 0.32602 0.8138 0.0
C765 C 0.89523 0.3199 0.85693 0.0
C766 C 0.87701 0.30055 0.88258 0.0
C767 C 0.46101 0.13569 0.62199 0.0
C768 C 0.46482 0.13961 0.66912 0.0
C769 C 0.44367 0.15495 0.59652 0.0
C770 C 0.42955 0.17869 0.61729 0.0
H771 H 0.47256 0.11847 0.60417 0.0
H772 H 0.44243 0.15207 0.55998 0.0
S773 S 0.42914 0.19678 0.73979 0.0
N774 N 0.45022 0.16749 0.73605 0.0
N775 N 0.41831 0.20408 0.6874 0.0
C776 C 0.43176 0.18209 0.66442 0.0
C777 C 0.44918 0.16235 0.69058 0.0
C778 C 0.61366 0.72401 0.35674 0.0
C779 C 0.61657 0.71939 0.40377 0.0
C780 C 0.59466 0.70672 0.33074 0.0
C781 C 0.5786 0.68382 0.35071 0.0
H782 H 0.62489 0.74205 0.34036 0.0
H783 H 0.59212 0.7116 0.29488 0.0
S784 S 0.57987 0.66161 0.47172 0.0
N785 N 0.60262 0.68968 0.46895 0.0
N786 N 0.5677 0.6565 0.41941 0.0
C787 C 0.58234 0.67805 0.39712 0.0
C788 C 0.60114 0.69607 0.42386 0.0
C789 C 0.0419 0.84478 0.0777 0.0
C790 C 0.06566 0.82911 0.09598 0.0
C791 C 0.02463 0.8629 0.10517 0.0
C792 C 0.03016 0.86526 0.15202 0.0
H793 H 0.03619 0.84241 0.04211 0.0
H794 H 0.00579 0.87362 0.09018 0.0
S795 S 0.09061 0.82979 0.21574 0.0
N796 N 0.09493 0.8184 0.16285 0.0
N797 N 0.06178 0.85164 0.21511 0.0
C798 C 0.05448 0.85051 0.17034 0.0
C799 C 0.07246 0.83263 0.14212 0.0
C800 C 0.57312 0.78054 0.9205 0.0
C801 C 0.60297 0.77652 0.91026 0.0
C802 C 0.55544 0.79888 0.89394 0.0
C803 C 0.56722 0.81466 0.85729 0.0
H804 H 0.56291 0.76844 0.94784 0.0
H805 H 0.53222 0.80017 0.90137 0.0
S806 S 0.64438 0.8138 0.81845 0.0
N807 N 0.64376 0.79096 0.86203 0.0
N808 N 0.61061 0.82636 0.81321 0.0
C809 C 0.59727 0.81213 0.84812 0.0
C810 C 0.61514 0.79282 0.87435 0.0
C811 C 0.46069 0.37385 0.12296 0.0
C812 C 0.46568 0.36623 0.16869 0.0
C813 C 0.4422 0.35688 0.09542 0.0
C814 C 0.42817 0.33192 0.11286 0.0
H815 H 0.47257 0.39179 0.10749 0.0
H816 H 0.44049 0.36212 0.05956 0.0
S817 S 0.43027 0.30505 0.2314 0.0
N818 N 0.45178 0.33411 0.2314 0.0
N819 N 0.41799 0.30189 0.17882 0.0
C820 C 0.43121 0.32529 0.159 0.0
C821 C 0.44967 0.34265 0.18722 0.0
C822 C 0.92782 0.21665 0.41116 0.0
C823 C 0.89858 0.22262 0.39912 0.0
C824 C 0.94544 0.19852 0.38439 0.0
C825 C 0.9342 0.18494 0.3454 0.0
H826 H 0.93762 0.22666 0.44076 0.0
H827 H 0.96812 0.19527 0.39406 0.0
S828 S 0.85885 0.19182 0.30007 0.0
N829 N 0.859 0.21275 0.34588 0.0
N830 N 0.89206 0.17766 0.29637 0.0
C831 C 0.90481 0.18974 0.33365 0.0
C832 C 0.887 0.20886 0.36031 0.0
C833 C 0.06465 0.69205 0.65585 0.0
C834 C 0.07744 0.68369 0.61444 0.0
C835 C 0.04728 0.67246 0.68074 0.0
C836 C 0.04117 0.64418 0.66422 0.0
H837 H 0.06714 0.71426 0.66812 0.0
H838 H 0.03726 0.68025 0.71175 0.0
S839 S 0.07108 0.61125 0.55872 0.0
N840 N 0.08464 0.64475 0.55942 0.0
N841 N 0.05113 0.60819 0.60535 0.0
C842 C 0.05499 0.63516 0.62386 0.0
C843 C 0.07332 0.65487 0.59916 0.0
C844 C 0.59318 0.19533 0.58206 0.0
C845 C 0.60639 0.22094 0.59905 0.0
C846 C 0.57495 0.17799 0.60966 0.0
C847 C 0.56863 0.18633 0.65459 0.0
H848 H 0.59692 0.1887 0.54717 0.0
H849 H 0.56504 0.15851 0.5954 0.0
S850 S 0.59766 0.25143 0.71507 0.0
N851 N 0.6123 0.25337 0.66384 0.0
N852 N 0.57735 0.22156 0.71504 0.0
C853 C 0.58184 0.21181 0.67192 0.0
C854 C 0.60091 0.22894 0.64432 0.0
C855 C 0.05245 0.35205 0.83012 0.0
C856 C 0.02811 0.36668 0.84872 0.0
C857 C 0.07085 0.33489 0.85745 0.0
C858 C 0.06495 0.33124 0.90393 0.0
H859 H 0.05672 0.35313 0.79391 0.0
H860 H 0.08876 0.3231 0.84168 0.0
S861 S 0.00481 0.36557 0.96944 0.0
N862 N 1.00005 0.37752 0.91691 0.0
N863 N 0.03407 0.34433 0.96794 0.0
C864 C 0.0413 0.34641 0.92322 0.0
C865 C 0.02302 0.36446 0.89568 0.0
C866 C 0.92055 0.79145 0.05614 0.0
C867 C 0.89228 0.78391 0.07132 0.0
C868 C 0.93867 0.80986 0.08179 0.0
C869 C 0.92881 0.82221 0.12268 0.0
H870 H 0.92948 0.78191 0.02551 0.0
H871 H 0.96096 0.81354 0.07049 0.0
S872 S 0.85564 0.81231 0.17491 0.0
N873 N 0.85456 0.79215 0.12834 0.0
N874 N 0.88844 0.82753 0.17577 0.0
C875 C 0.89994 0.81664 0.13666 0.0
C876 C 0.8817 0.7973 0.11113 0.0
C877 C 0.45815 0.66104 0.41771 0.0
C878 C 0.43693 0.67805 0.39538 0.0
C879 C 0.47578 0.64135 0.39356 0.0
C880 C 0.47324 0.63858 0.34607 0.0
H881 H 0.46153 0.66345 0.454 0.0
H882 H 0.4924 0.62927 0.41197 0.0
S883 S 0.42026 0.6779 0.27225 0.0
N884 N 0.41342 0.69029 0.32393 0.0
N885 N 0.44705 0.65385 0.27794 0.0
C886 C 0.45153 0.65503 0.32358 0.0
C887 C 0.43322 0.67464 0.34842 0.0
C888 C 0.42133 0.1878 0.09679 0.0
C889 C 0.4196 0.18981 0.14429 0.0
C890 C 0.40479 0.2065 0.06894 0.0
C891 C 0.38585 0.22763 0.08773 0.0
H892 H 0.43688 0.17299 0.08114 0.0
H893 H 0.4078 0.2052 0.03245 0.0
S894 S 0.37229 0.23983 0.21068 0.0
N895 N 0.39677 0.21324 0.20919 0.0
N896 N 0.36509 0.24797 0.15708 0.0
C897 C 0.38272 0.22857 0.13529 0.0
C898 C 0.39985 0.20979 0.16354 0.0
C899 C 0.52271 0.63507 0.88402 0.0
C900 C 0.52711 0.63644 0.83677 0.0
C901 C 0.54043 0.65118 0.9138 0.0
C902 C 0.56362 0.6685 0.89744 0.0
H903 H 0.5044 0.62294 0.89794 0.0
H904 H 0.53535 0.65087 0.94981 0.0
S905 S 0.58585 0.67743 0.7772 0.0
N906 N 0.55731 0.65524 0.77518 0.0
N907 N 0.59119 0.68476 0.83159 0.0
C908 C 0.56938 0.66867 0.85064 0.0
C909 C 0.55093 0.65282 0.82016 0.0
C910 C 0.10564 0.80919 0.65175 0.0
C911 C 0.08363 0.82723 0.63356 0.0
C912 C 0.1225 0.79105 0.62356 0.0
C913 C 0.11743 0.79006 0.57641 0.0
H914 H 0.10862 0.80781 0.68826 0.0
H915 H 0.13811 0.77631 0.63921 0.0
S916 S 0.06418 0.83556 0.5122 0.0
N917 N 0.05915 0.84494 0.56586 0.0
N918 N 0.09068 0.81095 0.51247 0.0
C919 C 0.09671 0.8095 0.55768 0.0
C920 C 0.07975 0.82804 0.58642 0.0
C921 C 0.93103 0.33349 0.35461 0.0
C922 C 0.93583 0.33241 0.40171 0.0
C923 C 0.94915 0.35048 0.32646 0.0
C924 C 0.9722 0.3673 0.34466 0.0
H925 H 0.9145 0.31969 0.33919 0.0
H926 H 0.94584 0.34953 0.29 0.0
S927 S 0.99181 0.37356 0.46669 0.0
N928 N 0.96387 0.35063 0.46582 0.0
N929 N 0.99742 0.38317 0.41323 0.0
C930 C 0.97589 0.36779 0.3921 0.0
C931 C 0.95783 0.35011 0.42055 0.0
C932 C 0.41358 0.7959 0.31218 0.0
C933 C 0.42877 0.81974 0.33118 0.0
C934 C 0.39494 0.77849 0.33865 0.0
C935 C 0.39138 0.78389 0.38535 0.0
H936 H 0.4166 0.79031 0.27668 0.0
H937 H 0.38435 0.75988 0.32283 0.0
S938 S 0.4253 0.84444 0.45091 0.0
N939 N 0.43797 0.84878 0.3987 0.0
N940 N 0.40353 0.81559 0.44909 0.0
C941 C 0.40579 0.8082 0.40448 0.0
C942 C 0.42431 0.8263 0.37721 0.0
C943 C 0.97742 0.64216 0.09625 0.0
C944 C 0.9706 0.63806 0.14239 0.0
C945 C 0.96054 0.66075 0.0689 0.0
C946 C 0.93586 0.67538 0.08638 0.0
H947 H 0.99669 0.63203 0.08163 0.0
H948 H 0.96712 0.66406 0.03386 0.0
S949 S 0.90756 0.67045 0.20411 0.0
N950 N 0.93685 0.6492 0.20401 0.0
N951 N 0.90459 0.68349 0.15188 0.0
C952 C 0.92798 0.67044 0.13181 0.0
C953 C 0.94554 0.65197 0.16003 0.0
C954 C 0.09874 0.20419 0.90776 0.0
C955 C 0.11225 0.22932 0.88956 0.0
C956 C 0.0807 0.1863 0.88087 0.0
C957 C 0.07496 0.19348 0.83529 0.0
H958 H 0.10181 0.19853 0.94323 0.0
H959 H 0.07026 0.16746 0.89632 0.0
S960 S 0.10577 0.25622 0.77093 0.0
N961 N 0.11958 0.25965 0.82254 0.0
N962 N 0.08512 0.22658 0.77247 0.0
C963 C 0.08884 0.21815 0.81645 0.0
C964 C 0.10765 0.23595 0.84346 0.0
C965 C 0.53981 0.33854 0.56538 0.0
C966 C 0.56525 0.32599 0.58414 0.0
C967 C 0.52224 0.35766 0.59072 0.0
C968 C 0.52908 0.36425 0.63614 0.0
H969 H 0.53306 0.33296 0.53113 0.0
H970 H 0.50238 0.3661 0.57538 0.0
S971 S 0.59401 0.33816 0.70032 0.0
N972 N 0.59732 0.32275 0.64977 0.0
N973 N 0.56371 0.35788 0.69822 0.0
C974 C 0.55492 0.35253 0.65487 0.0
C975 C 0.57321 0.33363 0.62862 0.0
C976 C 0.01854 0.48184 0.23226 0.0
C977 C 0.04501 0.46729 0.24173 0.0
C978 C 0.01742 0.51221 0.22736 0.0
C979 C 0.04278 0.52946 0.23071 0.0
H980 H 0.99816 0.46979 0.22991 0.0
H981 H 0.99634 0.52226 0.22082 0.0
S982 S 0.11797 0.50231 0.25279 0.0
N983 N 0.0975 0.47247 0.25329 0.0
N984 N 0.09547 0.52986 0.24244 0.0
C985 C 0.06965 0.51531 0.2387 0.0
C986 C 0.07073 0.48418 0.24472 0.0
C987 C 0.76819 0.76652 0.5169 0.0
C988 C 0.78468 0.79243 0.51471 0.0
C989 C 0.73805 0.76654 0.50891 0.0
C990 C 0.72307 0.79241 0.49743 0.0
H991 H 0.77868 0.74587 0.52491 0.0
H992 H 0.72655 0.74584 0.51075 0.0
S993 S 0.75604 0.86635 0.48784 0.0
N994 N 0.78386 0.84491 0.50144 0.0
N995 N 0.72695 0.8449 0.48503 0.0
C996 C 0.73918 0.81864 0.49538 0.0
C997 C 0.77003 0.81868 0.50449 0.0
C998 C 0.48242 0.49306 0.71465 0.0
C999 C 0.45724 0.47558 0.71878 0.0
C1000 C 0.48114 0.52342 0.71999 0.0
C1001 C 0.45472 0.5377 0.73075 0.0
H1002 H 0.50347 0.48316 0.70735 0.0
H1003 H 0.50138 0.53566 0.71715 0.0
S1004 S 0.38222 0.50202 0.74399 0.0
N1005 N 0.40476 0.47473 0.73243 0.0
N1006 N 0.40245 0.53201 0.74406 0.0
C1007 C 0.42918 0.52058 0.73429 0.0
C1008 C 0.4304 0.48951 0.72783 0.0
C1009 C 0.76519 0.19976 0.96626 0.0
C1010 C 0.78379 0.20522 0.00345 0.0
C1011 C 0.73462 0.20093 0.9711 0.0
C1012 C 0.7217 0.20653 0.01357 0.0
H1013 H 0.77428 0.19629 0.93267 0.0
H1014 H 0.721 0.19821 0.94122 0.0
S1015 S 0.7606 0.21975 0.12212 0.0
N1016 N 0.78706 0.21514 0.08446 0.0
N1017 N 0.72955 0.21593 0.09385 0.0
C1018 C 0.73996 0.21036 0.05145 0.0
C1019 C 0.77107 0.21006 0.04631 0.0
C1020 C 0.93643 0.4859 0.74715 0.0
C1021 C 0.96035 0.46755 0.73678 0.0
C1022 C 0.93776 0.51628 0.73929 0.0
C1023 C 0.96325 0.52924 0.72163 0.0
H1024 H 0.91688 0.4769 0.76264 0.0
H1025 H 0.91936 0.52983 0.74913 0.0
S1026 S 0.03071 0.49119 0.68457 0.0
N1027 N 0.00935 0.46486 0.70394 0.0
N1028 N 0.01188 0.52173 0.69087 0.0
C1029 C 0.98672 0.51117 0.70942 0.0
C1030 C 0.98526 0.48036 0.7165 0.0
C1031 C 0.27111 0.22426 0.46457 0.0
C1032 C 0.28454 0.20416 0.49437 0.0
C1033 C 0.24082 0.22397 0.45719 0.0
C1034 C 0.22283 0.20332 0.47868 0.0
H1035 H 0.28391 0.24109 0.44789 0.0
H1036 H 0.23128 0.24058 0.43543 0.0
S1037 S 0.24649 0.14529 0.5585 0.0
N1038 N 0.27712 0.16237 0.54461 0.0
N1039 N 0.22007 0.16182 0.52991 0.0
C1040 C 0.23579 0.18236 0.5071 0.0
C1041 C 0.26672 0.18274 0.51506 0.0
C1042 C 0.53517 0.50791 0.30184 0.0
C1043 C 0.55082 0.52702 0.2735 0.0
C1044 C 0.53511 0.47767 0.29381 0.0
C1045 C 0.55056 0.4655 0.2569 0.0
H1046 H 0.52209 0.51651 0.32952 0.0
H1047 H 0.52207 0.46385 0.31587 0.0
S1048 S 0.59521 0.50689 0.17304 0.0
N1049 N 0.58246 0.53222 0.20785 0.0
N1050 N 0.58255 0.47536 0.19233 0.0
C1051 C 0.5671 0.48451 0.22917 0.0
C1052 C 0.56711 0.51532 0.23749 0.0
C1053 C 0.24086 0.78489 0.04898 0.0
C1054 C 0.22155 0.79762 0.0176 0.0
C1055 C 0.27111 0.78445 0.04079 0.0
C1056 C 0.28302 0.79678 0.00095 0.0
H1057 H 0.23243 0.77434 0.07929 0.0
H1058 H 0.28519 0.77374 0.06535 0.0
S1059 S 0.24106 0.83293 0.90846 0.0
N1060 N 0.21588 0.82298 0.94573 0.0
N1061 N 0.27279 0.82257 0.93018 0.0
C1062 C 0.26381 0.81039 0.96998 0.0
C1063 C 0.233 0.81062 0.97829 0.0
C1064 C 0.53931 0.98667 0.79177 0.0
C1065 C 0.54645 0.96735 0.75646 0.0
C1066 C 0.53872 0.01697 0.78434 0.0
C1067 C 0.54591 0.02895 0.74164 0.0
H1068 H 0.53277 0.97824 0.82471 0.0
H1069 H 0.5319 0.0311 0.81195 0.0
S1070 S 0.56783 0.98735 0.639 0.0
N1071 N 0.5617 0.96193 0.67788 0.0
N1072 N 0.56176 0.01908 0.66425 0.0
C1073 C 0.55453 0.00985 0.70671 0.0
C1074 C 0.55441 0.97893 0.71402 0.0
C1075 C 0.27052 0.27488 0.97632 0.0
C1076 C 0.28512 0.30112 0.98693 0.0
C1077 C 0.24006 0.27379 0.97223 0.0
C1078 C 0.22276 0.29899 0.97757 0.0
H1079 H 0.28261 0.25463 0.97254 0.0
H1080 H 0.22995 0.25287 0.96484 0.0
S1081 S 0.25001 0.37362 0.00297 0.0
N1082 N 0.27992 0.35326 0.00145 0.0
N1083 N 0.22239 0.35131 0.99217 0.0
C1084 C 0.23697 0.32566 0.98655 0.0
C1085 C 0.26818 0.32669 0.99171 0.0
C1086 C 0.98196 0.00979 0.27406 0.0
C1087 C 0.95751 0.02743 0.26486 0.0
C1088 C 0.98086 0.97947 0.26863 0.0
C1089 C 0.95541 0.96541 0.2527 0.0
H1090 H 1.00237 0.01958 0.28517 0.0
H1091 H 1.00063 0.96714 0.27546 0.0
S1092 S 0.88486 1.00176 0.22542 0.0
N1093 N 0.90657 0.02885 0.24123 0.0
N1094 N 0.90462 0.97155 0.22944 0.0
C1095 C 0.93044 0.98272 0.2444 0.0
C1096 C 0.93144 0.01379 0.25093 0.0
C1097 C 0.26539 0.68953 0.48532 0.0
C1098 C 0.27962 0.71394 0.46636 0.0
C1099 C 0.23475 0.68941 0.4915 0.0
C1100 C 0.21735 0.71341 0.47796 0.0
H1101 H 0.27809 0.67101 0.49717 0.0
H1102 H 0.22476 0.67069 0.50794 0.0
S1103 S 0.2444 0.78108 0.42149 0.0
N1104 N 0.27419 0.76161 0.43111 0.0
N1105 N 0.21699 0.76124 0.44116 0.0
C1106 C 0.23145 0.7372 0.45662 0.0
C1107 C 0.26249 0.7375 0.45126 0.0
C1108 C 0.44051 0.02153 0.24448 0.0
C1109 C 0.466 0.03777 0.23507 0.0
C1110 C 0.4419 0.99112 0.25268 0.0
C1111 C 0.46874 0.97591 0.25067 0.0
H1112 H 0.41948 0.03243 0.24629 0.0
H1113 H 0.42183 0.97942 0.26007 0.0
S1114 S 0.54159 0.00839 0.22557 0.0
N1115 N 0.51868 0.03625 0.22333 0.0
N1116 N 0.52128 0.97964 0.23797 0.0
C1117 C 0.49423 0.99199 0.24067 0.0
C1118 C 0.49287 0.02277 0.23305 0.0
C1119 C 0.76378 0.7339 0.99451 0.0
C1120 C 0.78008 0.70798 -0.0008 0.0
C1121 C 0.7334 0.73327 0.9886 0.0
C1122 C 0.71804 0.70667 0.98593 0.0
H1123 H 0.77454 0.75501 0.99602 0.0
H1124 H 0.72189 0.75391 0.98551 0.0
S1125 S 0.75039 0.6325 0.99544 0.0
N1126 N 0.77865 0.65483 0.00101 0.0
N1127 N 0.72137 0.65361 0.98819 0.0
C1128 C 0.73401 0.68048 0.98997 0.0
C1129 C 0.76506 0.68114 -0.00283 0.0
C1130 C 0.01715 0.01668 0.76812 0.0
C1131 C 0.04257 0.03397 0.76797 0.0
C1132 C 0.01849 0.98647 0.76096 0.0
C1133 C 0.04526 0.97229 0.7522 0.0
H1134 H 0.99589 0.02661 0.77357 0.0
H1135 H 0.99813 0.9743 0.76092 0.0
S1136 S 0.11837 0.00764 0.74901 0.0
N1137 N 0.09551 0.03479 0.7599 0.0
N1138 N 0.09802 0.97784 0.74486 0.0
C1139 C 0.071 0.98924 0.75245 0.0
C1140 C 0.06966 0.02011 0.76084 0.0
C1141 C 0.73666 0.30976 0.50283 0.0
C1142 C 0.72135 0.283 0.50457 0.0
C1143 C 0.76703 0.3106 0.49402 0.0
C1144 C 0.78316 0.28466 0.48763 0.0
H1145 H 0.72508 0.33019 0.50785 0.0
H1146 H 0.778 0.3316 0.493 0.0
S1147 S 0.75352 0.209 0.48826 0.0
N1148 N 0.7249 0.22997 0.49853 0.0
N1149 N 0.78143 0.23161 0.48264 0.0
C1150 C 0.76807 0.25786 0.48927 0.0
C1151 C 0.73733 0.25701 0.49758 0.0
loop_
_geom_bond_atom_site_label_1
_geom_bond_atom_site_label_2
_geom_bond_distance
_geom_bond_site_symmetry_2
_ccdc_geom_bond_type
Co0 O1 2.216 . S
Co0 O2 2.091 . S
Co0 O4 2.004 . S
Co0 O10 2.021 . S
Co0 O12 2.137 . S
Co0 O13 2.244 . S
O1 Co0 2.216 . S
O1 C8 1.247 . S
O2 Co0 2.091 . S
O2 C8 1.261 . S
C3 O12 1.247 . S
C3 O13 1.272 . S
O4 Co0 2.004 . S
O4 C9 1.259 . S
Co5 O6 2.061 . S
Co5 O11 2.052 . S
Co5 O13 2.135 . S
O6 Co5 2.061 . S
O6 C9 1.235 . S
C7 O10 1.238 . S
C7 O11 1.241 . S
C8 O1 1.247 . S
C8 O2 1.261 . S
C9 O4 1.259 . S
C9 O6 1.235 . S
O10 Co0 2.021 . S
O10 C7 1.238 . S
O11 Co5 2.052 . S
O11 C7 1.241 . S
O12 Co0 2.137 . S
O12 C3 1.247 . S
O13 Co0 2.244 . S
O13 C3 1.272 . S
O13 Co5 2.135 . S
Co14 O15 2.216 . S
Co14 O16 2.091 . S
Co14 O18 2.004 . S
Co14 O24 2.021 . S
Co14 O26 2.137 . S
Co14 O27 2.244 . S
O15 Co14 2.216 . S
O15 C22 1.247 . S
O16 Co14 2.091 . S
O16 C22 1.261 . S
C17 O26 1.247 . S
C17 O27 1.272 . S
O18 Co14 2.004 . S
O18 C23 1.259 . S
Co19 O20 2.061 . S
Co19 O25 2.052 . S
Co19 O27 2.135 . S
O20 Co19 2.061 . S
O20 C23 1.235 . S
C21 O24 1.238 . S
C21 O25 1.241 . S
C22 O15 1.247 . S
C22 O16 1.261 . S
C23 O18 1.259 . S
C23 O20 1.235 . S
O24 Co14 2.021 . S
O24 C21 1.238 . S
O25 Co19 2.052 . S
O25 C21 1.241 . S
O26 Co14 2.137 . S
O26 C17 1.247 . S
O27 Co14 2.244 . S
O27 C17 1.272 . S
O27 Co19 2.135 . S
Co28 O29 2.216 . S
Co28 O30 2.091 . S
Co28 O32 2.004 . S
Co28 O38 2.021 . S
Co28 O40 2.137 . S
Co28 O41 2.244 . S
O29 Co28 2.216 . S
O29 C36 1.247 . S
O30 Co28 2.091 . S
O30 C36 1.261 . S
C31 O40 1.247 . S
C31 O41 1.272 . S
O32 Co28 2.004 . S
O32 C37 1.259 . S
Co33 O34 2.061 . S
Co33 O39 2.052 . S
Co33 O41 2.135 . S
O34 Co33 2.061 . S
O34 C37 1.235 . S
C35 O38 1.238 . S
C35 O39 1.241 . S
C36 O29 1.247 . S
C36 O30 1.261 . S
C37 O32 1.259 . S
C37 O34 1.235 . S
O38 Co28 2.021 . S
O38 C35 1.238 . S
O39 Co33 2.052 . S
O39 C35 1.241 . S
O40 Co28 2.137 . S
O40 C31 1.247 . S
O41 Co28 2.244 . S
O41 C31 1.272 . S
O41 Co33 2.135 . S
Co42 O43 2.216 . S
Co42 O44 2.091 . S
Co42 O46 2.004 . S
Co42 O52 2.021 1_554 S
Co42 O54 2.137 . S
Co42 O55 2.244 . S
O43 Co42 2.216 . S
O43 C50 1.247 . S
O44 Co42 2.091 . S
O44 C50 1.261 . S
C45 O54 1.247 . S
C45 O55 1.272 . S
O46 Co42 2.004 . S
O46 C51 1.259 . S
Co47 O48 2.061 . S
Co47 O53 2.052 1_554 S
Co47 O55 2.135 . S
O48 Co47 2.061 . S
O48 C51 1.235 . S
C49 O52 1.238 . S
C49 O53 1.241 . S
C50 O43 1.247 . S
C50 O44 1.261 . S
C51 O46 1.259 . S
C51 O48 1.235 . S
O52 Co42 2.021 1_556 S
O52 C49 1.238 . S
O53 Co47 2.052 1_556 S
O53 C49 1.241 . S
O54 Co42 2.137 . S
O54 C45 1.247 . S
O55 Co42 2.244 . S
O55 C45 1.272 . S
O55 Co47 2.135 . S
Co56 O57 2.216 . S
Co56 O58 2.091 . S
Co56 O60 2.004 . S
Co56 O66 2.021 . S
Co56 O68 2.137 . S
Co56 O69 2.244 . S
O57 Co56 2.216 . S
O57 C64 1.247 . S
O58 Co56 2.091 . S
O58 C64 1.261 . S
C59 O68 1.247 . S
C59 O69 1.272 . S
O60 Co56 2.004 . S
O60 C65 1.259 . S
Co61 O62 2.061 . S
Co61 O67 2.052 . S
Co61 O69 2.135 . S
O62 Co61 2.061 . S
O62 C65 1.235 . S
C63 O66 1.238 . S
C63 O67 1.241 . S
C64 O57 1.247 . S
C64 O58 1.261 . S
C65 O60 1.259 . S
C65 O62 1.235 . S
O66 Co56 2.021 . S
O66 C63 1.238 . S
O67 Co61 2.052 . S
O67 C63 1.241 . S
O68 Co56 2.137 . S
O68 C59 1.247 . S
O69 Co56 2.244 . S
O69 C59 1.272 . S
O69 Co61 2.135 . S
Co70 O71 2.216 . S
Co70 O72 2.091 . S
Co70 O74 2.004 . S
Co70 O80 2.021 . S
Co70 O82 2.137 . S
Co70 O83 2.244 . S
O71 Co70 2.216 . S
O71 C78 1.247 . S
O72 Co70 2.091 . S
O72 C78 1.261 . S
C73 O82 1.247 . S
C73 O83 1.272 . S
O74 Co70 2.004 . S
O74 C79 1.259 . S
Co75 O76 2.061 . S
Co75 O81 2.052 . S
Co75 O83 2.135 . S
O76 Co75 2.061 . S
O76 C79 1.235 . S
C77 O80 1.238 . S
C77 O81 1.241 . S
C78 O71 1.247 . S
C78 O72 1.261 . S
C79 O74 1.259 . S
C79 O76 1.235 . S
O80 Co70 2.021 . S
O80 C77 1.238 . S
O81 Co75 2.052 . S
O81 C77 1.241 . S
O82 Co70 2.137 . S
O82 C73 1.247 . S
O83 Co70 2.244 . S
O83 C73 1.272 . S
O83 Co75 2.135 . S
Co84 O85 2.216 . S
Co84 O86 2.091 . S
Co84 O88 2.004 . S
Co84 O94 2.021 . S
Co84 O96 2.137 . S
Co84 O97 2.244 . S
O85 Co84 2.216 . S
O85 C92 1.247 . S
O86 Co84 2.091 . S
O86 C92 1.261 . S
C87 O96 1.247 . S
C87 O97 1.272 . S
O88 Co84 2.004 . S
O88 C93 1.259 . S
Co89 O90 2.061 . S
Co89 O95 2.052 . S
Co89 O97 2.135 . S
O90 Co89 2.061 . S
O90 C93 1.235 . S
C91 O94 1.238 . S
C91 O95 1.241 . S
C92 O85 1.247 . S
C92 O86 1.261 . S
C93 O88 1.259 . S
C93 O90 1.235 . S
O94 Co84 2.021 . S
O94 C91 1.238 . S
O95 Co89 2.052 . S
O95 C91 1.241 . S
O96 Co84 2.137 . S
O96 C87 1.247 . S
O97 Co84 2.244 . S
O97 C87 1.272 . S
O97 Co89 2.135 . S
Co98 O99 2.216 . S
Co98 O100 2.091 . S
Co98 O102 2.004 . S
Co98 O108 2.021 1_556 S
Co98 O110 2.137 . S
Co98 O111 2.244 . S
O99 Co98 2.216 . S
O99 C106 1.247 . S
O100 Co98 2.091 . S
O100 C106 1.261 . S
C101 O110 1.247 . S
C101 O111 1.272 . S
O102 Co98 2.004 . S
O102 C107 1.259 . S
Co103 O104 2.061 . S
Co103 O109 2.052 1_556 S
Co103 O111 2.135 . S
O104 Co103 2.061 . S
O104 C107 1.235 . S
C105 O108 1.238 . S
C105 O109 1.241 . S
C106 O99 1.247 . S
C106 O100 1.261 . S
C107 O102 1.259 . S
C107 O104 1.235 . S
O108 Co98 2.021 1_554 S
O108 C105 1.238 . S
O109 Co103 2.052 1_554 S
O109 C105 1.241 . S
O110 Co98 2.137 . S
O110 C101 1.247 . S
O111 Co98 2.244 . S
O111 C101 1.272 . S
O111 Co103 2.135 . S
Co112 O113 2.216 . S
Co112 O114 2.091 . S
Co112 O116 2.004 . S
Co112 O122 2.021 . S
Co112 O124 2.137 . S
Co112 O125 2.244 . S
O113 Co112 2.216 . S
O113 C120 1.247 . S
O114 Co112 2.091 . S
O114 C120 1.261 . S
C115 O124 1.247 . S
C115 O125 1.272 . S
O116 Co112 2.004 . S
O116 C121 1.259 . S
Co117 O118 2.061 . S
Co117 O123 2.052 . S
Co117 O125 2.135 . S
O118 Co117 2.061 . S
O118 C121 1.235 . S
C119 O122 1.238 . S
C119 O123 1.241 . S
C120 O113 1.247 . S
C120 O114 1.261 . S
C121 O116 1.259 . S
C121 O118 1.235 . S
O122 Co112 2.021 . S
O122 C119 1.238 . S
O123 Co117 2.052 . S
O123 C119 1.241 . S
O124 Co112 2.137 . S
O124 C115 1.247 . S
O125 Co112 2.244 . S
O125 C115 1.272 . S
O125 Co117 2.135 . S
Co126 O127 2.216 . S
Co126 O128 2.091 . S
Co126 O130 2.004 . S
Co126 O136 2.021 . S
Co126 O138 2.137 . S
Co126 O139 2.244 . S
O127 Co126 2.216 . S
O127 C134 1.247 . S
O128 Co126 2.091 . S
O128 C134 1.261 . S
C129 O138 1.247 . S
C129 O139 1.272 . S
O130 Co126 2.004 . S
O130 C135 1.259 . S
Co131 O132 2.061 . S
Co131 O137 2.052 . S
Co131 O139 2.135 . S
O132 Co131 2.061 . S
O132 C135 1.235 . S
C133 O136 1.238 . S
C133 O137 1.241 . S
C134 O127 1.247 . S
C134 O128 1.261 . S
C135 O130 1.259 . S
C135 O132 1.235 . S
O136 Co126 2.021 . S
O136 C133 1.238 . S
O137 Co131 2.052 . S
O137 C133 1.241 . S
O138 Co126 2.137 . S
O138 C129 1.247 . S
O139 Co126 2.244 . S
O139 C129 1.272 . S
O139 Co131 2.135 . S
Co140 O141 2.216 . S
Co140 O142 2.091 . S
Co140 O144 2.004 . S
Co140 O150 2.021 . S
Co140 O152 2.137 . S
Co140 O153 2.244 . S
O141 Co140 2.216 . S
O141 C148 1.247 . S
O142 Co140 2.091 . S
O142 C148 1.261 . S
C143 O152 1.247 . S
C143 O153 1.272 . S
O144 Co140 2.004 . S
O144 C149 1.259 . S
Co145 O146 2.061 . S
Co145 O151 2.052 . S
Co145 O153 2.135 . S
O146 Co145 2.061 . S
O146 C149 1.235 . S
C147 O150 1.238 . S
C147 O151 1.241 . S
C148 O141 1.247 . S
C148 O142 1.261 . S
C149 O144 1.259 . S
C149 O146 1.235 . S
O150 Co140 2.021 . S
O150 C147 1.238 . S
O151 Co145 2.052 . S
O151 C147 1.241 . S
O152 Co140 2.137 . S
O152 C143 1.247 . S
O153 Co140 2.244 . S
O153 C143 1.272 . S
O153 Co145 2.135 . S
Co154 O155 2.216 . S
Co154 O156 2.091 . S
Co154 O158 2.004 . S
Co154 O164 2.021 1_556 S
Co154 O166 2.137 . S
Co154 O167 2.244 . S
O155 Co154 2.216 . S
O155 C162 1.247 . S
O156 Co154 2.091 . S
O156 C162 1.261 . S
C157 O166 1.247 . S
C157 O167 1.272 . S
O158 Co154 2.004 . S
O158 C163 1.259 . S
Co159 O160 2.061 . S
Co159 O165 2.052 1_556 S
Co159 O167 2.135 . S
O160 Co159 2.061 . S
O160 C163 1.235 . S
C161 O164 1.238 . S
C161 O165 1.241 . S
C162 O155 1.247 . S
C162 O156 1.261 . S
C163 O158 1.259 . S
C163 O160 1.235 . S
O164 Co154 2.021 1_554 S
O164 C161 1.238 . S
O165 Co159 2.052 1_554 S
O165 C161 1.241 . S
O166 Co154 2.137 . S
O166 C157 1.247 . S
O167 Co154 2.244 . S
O167 C157 1.272 . S
O167 Co159 2.135 . S
Co168 O169 2.216 . S
Co168 O170 2.091 . S
Co168 O172 2.004 . S
Co168 O178 2.021 . S
Co168 O180 2.137 . S
Co168 O181 2.244 . S
O169 Co168 2.216 . S
O169 C176 1.247 . S
O170 Co168 2.091 . S
O170 C176 1.261 . S
C171 O180 1.247 . S
C171 O181 1.272 . S
O172 Co168 2.004 . S
O172 C177 1.259 . S
Co173 O174 2.061 . S
Co173 O179 2.052 . S
Co173 O181 2.135 . S
O174 Co173 2.061 . S
O174 C177 1.235 . S
C175 O178 1.238 . S
C175 O179 1.241 . S
C176 O169 1.247 . S
C176 O170 1.261 . S
C177 O172 1.259 . S
C177 O174 1.235 . S
O178 Co168 2.021 . S
O178 C175 1.238 . S
O179 Co173 2.052 . S
O179 C175 1.241 . S
O180 Co168 2.137 . S
O180 C171 1.247 . S
O181 Co168 2.244 . S
O181 C171 1.272 . S
O181 Co173 2.135 . S
Co182 O183 2.216 . S
Co182 O184 2.091 . S
Co182 O186 2.004 . S
Co182 O192 2.021 . S
Co182 O194 2.137 . S
Co182 O195 2.244 . S
O183 Co182 2.216 . S
O183 C190 1.247 . S
O184 Co182 2.091 . S
O184 C190 1.261 . S
C185 O194 1.247 . S
C185 O195 1.272 . S
O186 Co182 2.004 . S
O186 C191 1.259 . S
Co187 O188 2.061 . S
Co187 O193 2.052 . S
Co187 O195 2.135 . S
O188 Co187 2.061 . S
O188 C191 1.235 . S
C189 O192 1.238 . S
C189 O193 1.241 . S
C190 O183 1.247 . S
C190 O184 1.261 . S
C191 O186 1.259 . S
C191 O188 1.235 . S
O192 Co182 2.021 . S
O192 C189 1.238 . S
O193 Co187 2.052 . S
O193 C189 1.241 . S
O194 Co182 2.137 . S
O194 C185 1.247 . S
O195 Co182 2.244 . S
O195 C185 1.272 . S
O195 Co187 2.135 . S
Co196 O197 2.216 . S
Co196 O198 2.091 . S
Co196 O200 2.004 . S
Co196 O206 2.021 . S
Co196 O208 2.137 . S
Co196 O209 2.244 . S
O197 Co196 2.216 . S
O197 C204 1.247 . S
O198 Co196 2.091 . S
O198 C204 1.261 . S
C199 O208 1.247 . S
C199 O209 1.272 . S
O200 Co196 2.004 . S
O200 C205 1.259 . S
Co201 O202 2.061 . S
Co201 O207 2.052 . S
Co201 O209 2.135 . S
O202 Co201 2.061 . S
O202 C205 1.235 . S
C203 O206 1.238 . S
C203 O207 1.241 . S
C204 O197 1.247 . S
C204 O198 1.261 . S
C205 O200 1.259 . S
C205 O202 1.235 . S
O206 Co196 2.021 . S
O206 C203 1.238 . S
O207 Co201 2.052 . S
O207 C203 1.241 . S
O208 Co196 2.137 . S
O208 C199 1.247 . S
O209 Co196 2.244 . S
O209 C199 1.272 . S
O209 Co201 2.135 . S
Co210 O211 2.216 . S
Co210 O212 2.091 . S
Co210 O214 2.004 . S
Co210 O220 2.021 1_554 S
Co210 O222 2.137 . S
Co210 O223 2.244 . S
O211 Co210 2.216 . S
O211 C218 1.247 . S
O212 Co210 2.091 . S
O212 C218 1.261 . S
C213 O222 1.247 . S
C213 O223 1.272 . S
O214 Co210 2.004 . S
O214 C219 1.259 . S
Co215 O216 2.061 . S
Co215 O221 2.052 1_554 S
Co215 O223 2.135 . S
O216 Co215 2.061 . S
O216 C219 1.235 . S
C217 O220 1.238 . S
C217 O221 1.241 . S
C218 O211 1.247 . S
C218 O212 1.261 . S
C219 O214 1.259 . S
C219 O216 1.235 . S
O220 Co210 2.021 1_556 S
O220 C217 1.238 . S
O221 Co215 2.052 1_556 S
O221 C217 1.241 . S
O222 Co210 2.137 . S
O222 C213 1.247 . S
O223 Co210 2.244 . S
O223 C213 1.272 . S
O223 Co215 2.135 . S
Co224 O225 2.216 . S
Co224 O226 2.091 . S
Co224 O228 2.004 . S
Co224 O234 2.021 . S
Co224 O236 2.137 . S
Co224 O237 2.244 . S
O225 Co224 2.216 . S
O225 C232 1.247 . S
O226 Co224 2.091 . S
O226 C232 1.261 . S
C227 O236 1.247 . S
C227 O237 1.272 . S
O228 Co224 2.004 . S
O228 C233 1.259 . S
Co229 O230 2.061 . S
Co229 O235 2.052 . S
Co229 O237 2.135 . S
O230 Co229 2.061 . S
O230 C233 1.235 . S
C231 O234 1.238 . S
C231 O235 1.241 . S
C232 O225 1.247 . S
C232 O226 1.261 . S
C233 O228 1.259 . S
C233 O230 1.235 . S
O234 Co224 2.021 . S
O234 C231 1.238 . S
O235 Co229 2.052 . S
O235 C231 1.241 . S
O236 Co224 2.137 . S
O236 C227 1.247 . S
O237 Co224 2.244 . S
O237 C227 1.272 . S
O237 Co229 2.135 . S
Co238 O239 2.216 . S
Co238 O240 2.091 . S
Co238 O242 2.004 . S
Co238 O248 2.021 1_554 S
Co238 O250 2.137 . S
Co238 O251 2.244 . S
O239 Co238 2.216 . S
O239 C246 1.247 . S
O240 Co238 2.091 . S
O240 C246 1.261 . S
C241 O250 1.247 . S
C241 O251 1.272 . S
O242 Co238 2.004 . S
O242 C247 1.259 . S
Co243 O244 2.061 . S
Co243 O249 2.052 1_554 S
Co243 O251 2.135 . S
O244 Co243 2.061 . S
O244 C247 1.235 . S
C245 O248 1.238 . S
C245 O249 1.241 . S
C246 O239 1.247 . S
C246 O240 1.261 . S
C247 O242 1.259 . S
C247 O244 1.235 . S
O248 Co238 2.021 1_556 S
O248 C245 1.238 . S
O249 Co243 2.052 1_556 S
O249 C245 1.241 . S
O250 Co238 2.137 . S
O250 C241 1.247 . S
O251 Co238 2.244 . S
O251 C241 1.272 . S
O251 Co243 2.135 . S
Co252 O253 2.216 . S
Co252 O254 2.091 . S
Co252 O256 2.004 . S
Co252 O262 2.021 . S
Co252 O264 2.137 . S
Co252 O265 2.244 . S
O253 Co252 2.216 . S
O253 C260 1.247 . S
O254 Co252 2.091 . S
O254 C260 1.261 . S
C255 O264 1.247 . S
C255 O265 1.272 . S
O256 Co252 2.004 . S
O256 C261 1.259 . S
Co257 O258 2.061 . S
Co257 O263 2.052 . S
Co257 O265 2.135 . S
O258 Co257 2.061 . S
O258 C261 1.235 . S
C259 O262 1.238 . S
C259 O263 1.241 . S
C260 O253 1.247 . S
C260 O254 1.261 . S
C261 O256 1.259 . S
C261 O258 1.235 . S
O262 Co252 2.021 . S
O262 C259 1.238 . S
O263 Co257 2.052 . S
O263 C259 1.241 . S
O264 Co252 2.137 . S
O264 C255 1.247 . S
O265 Co252 2.244 . S
O265 C255 1.272 . S
O265 Co257 2.135 . S
Co266 O267 2.216 . S
Co266 O268 2.091 . S
Co266 O270 2.004 . S
Co266 O276 2.021 . S
Co266 O278 2.137 . S
Co266 O279 2.244 . S
O267 Co266 2.216 . S
O267 C274 1.247 . S
O268 Co266 2.091 . S
O268 C274 1.261 . S
C269 O278 1.247 . S
C269 O279 1.272 . S
O270 Co266 2.004 . S
O270 C275 1.259 . S
Co271 O272 2.061 . S
Co271 O277 2.052 . S
Co271 O279 2.135 . S
O272 Co271 2.061 . S
O272 C275 1.235 . S
C273 O276 1.238 . S
C273 O277 1.241 . S
C274 O267 1.247 . S
C274 O268 1.261 . S
C275 O270 1.259 . S
C275 O272 1.235 . S
O276 Co266 2.021 . S
O276 C273 1.238 . S
O277 Co271 2.052 . S
O277 C273 1.241 . S
O278 Co266 2.137 . S
O278 C269 1.247 . S
O279 Co266 2.244 . S
O279 C269 1.272 . S
O279 Co271 2.135 . S
Co280 O281 2.216 . S
Co280 O282 2.091 . S
Co280 O284 2.004 . S
Co280 O290 2.021 . S
Co280 O292 2.137 . S
Co280 O293 2.244 . S
O281 Co280 2.216 . S
O281 C288 1.247 . S
O282 Co280 2.091 . S
O282 C288 1.261 . S
C283 O292 1.247 . S
C283 O293 1.272 . S
O284 Co280 2.004 . S
O284 C289 1.259 . S
Co285 O286 2.061 . S
Co285 O291 2.052 . S
Co285 O293 2.135 . S
O286 Co285 2.061 . S
O286 C289 1.235 . S
C287 O290 1.238 . S
C287 O291 1.241 . S
C288 O281 1.247 . S
C288 O282 1.261 . S
C289 O284 1.259 . S
C289 O286 1.235 . S
O290 Co280 2.021 . S
O290 C287 1.238 . S
O291 Co285 2.052 . S
O291 C287 1.241 . S
O292 Co280 2.137 . S
O292 C283 1.247 . S
O293 Co280 2.244 . S
O293 C283 1.272 . S
O293 Co285 2.135 . S
Co294 O295 2.216 . S
Co294 O296 2.091 . S
Co294 O298 2.004 . S
Co294 O304 2.021 1_556 S
Co294 O306 2.137 . S
Co294 O307 2.244 . S
O295 Co294 2.216 . S
O295 C302 1.247 . S
O296 Co294 2.091 . S
O296 C302 1.261 . S
C297 O306 1.247 . S
C297 O307 1.272 . S
O298 Co294 2.004 . S
O298 C303 1.259 . S
Co299 O300 2.061 . S
Co299 O305 2.052 1_556 S
Co299 O307 2.135 . S
O300 Co299 2.061 . S
O300 C303 1.235 . S
C301 O304 1.238 . S
C301 O305 1.241 . S
C302 O295 1.247 . S
C302 O296 1.261 . S
C303 O298 1.259 . S
C303 O300 1.235 . S
O304 Co294 2.021 1_554 S
O304 C301 1.238 . S
O305 Co299 2.052 1_554 S
O305 C301 1.241 . S
O306 Co294 2.137 . S
O306 C297 1.247 . S
O307 Co294 2.244 . S
O307 C297 1.272 . S
O307 Co299 2.135 . S
Co308 O309 2.216 . S
Co308 O310 2.091 . S
Co308 O312 2.004 . S
Co308 O318 2.021 . S
Co308 O320 2.137 . S
Co308 O321 2.244 . S
O309 Co308 2.216 . S
O309 C316 1.247 . S
O310 Co308 2.091 . S
O310 C316 1.261 . S
C311 O320 1.247 . S
C311 O321 1.272 . S
O312 Co308 2.004 . S
O312 C317 1.259 . S
Co313 O314 2.061 . S
Co313 O319 2.052 . S
Co313 O321 2.135 . S
O314 Co313 2.061 . S
O314 C317 1.235 . S
C315 O318 1.238 . S
C315 O319 1.241 . S
C316 O309 1.247 . S
C316 O310 1.261 . S
C317 O312 1.259 . S
C317 O314 1.235 . S
O318 Co308 2.021 . S
O318 C315 1.238 . S
O319 Co313 2.052 . S
O319 C315 1.241 . S
O320 Co308 2.137 . S
O320 C311 1.247 . S
O321 Co308 2.244 . S
O321 C311 1.272 . S
O321 Co313 2.135 . S
Co322 O323 2.216 . S
Co322 O324 2.091 . S
Co322 O326 2.004 . S
Co322 O332 2.021 . S
Co322 O334 2.137 . S
Co322 O335 2.244 . S
O323 Co322 2.216 . S
O323 C330 1.247 . S
O324 Co322 2.091 . S
O324 C330 1.261 . S
C325 O334 1.247 . S
C325 O335 1.272 . S
O326 Co322 2.004 . S
O326 C331 1.259 . S
Co327 O328 2.061 . S
Co327 O333 2.052 . S
Co327 O335 2.135 . S
O328 Co327 2.061 . S
O328 C331 1.235 . S
C329 O332 1.238 . S
C329 O333 1.241 . S
C330 O323 1.247 . S
C330 O324 1.261 . S
C331 O326 1.259 . S
C331 O328 1.235 . S
O332 Co322 2.021 . S
O332 C329 1.238 . S
O333 Co327 2.052 . S
O333 C329 1.241 . S
O334 Co322 2.137 . S
O334 C325 1.247 . S
O335 Co322 2.244 . S
O335 C325 1.272 . S
O335 Co327 2.135 . S
Co336 O337 2.216 . S
Co336 O338 2.091 . S
Co336 O340 2.004 . S
Co336 O346 2.021 . S
Co336 O348 2.137 . S
Co336 O349 2.244 . S
O337 Co336 2.216 . S
O337 C344 1.247 . S
O338 Co336 2.091 . S
O338 C344 1.261 . S
C339 O348 1.247 . S
C339 O349 1.272 . S
O340 Co336 2.004 . S
O340 C345 1.259 . S
Co341 O342 2.061 . S
Co341 O347 2.052 . S
Co341 O349 2.135 . S
O342 Co341 2.061 . S
O342 C345 1.235 . S
C343 O346 1.238 . S
C343 O347 1.241 . S
C344 O337 1.247 . S
C344 O338 1.261 . S
C345 O340 1.259 . S
C345 O342 1.235 . S
O346 Co336 2.021 . S
O346 C343 1.238 . S
O347 Co341 2.052 . S
O347 C343 1.241 . S
O348 Co336 2.137 . S
O348 C339 1.247 . S
O349 Co336 2.244 . S
O349 C339 1.272 . S
O349 Co341 2.135 . S
Co350 O351 2.216 . S
Co350 O352 2.091 . S
Co350 O354 2.004 . S
Co350 O360 2.021 1_556 S
Co350 O362 2.137 . S
Co350 O363 2.244 . S
O351 Co350 2.216 . S
O351 C358 1.247 . S
O352 Co350 2.091 . S
O352 C358 1.261 . S
C353 O362 1.247 . S
C353 O363 1.272 . S
O354 Co350 2.004 . S
O354 C359 1.259 . S
Co355 O356 2.061 . S
Co355 O361 2.052 1_556 S
Co355 O363 2.135 . S
O356 Co355 2.061 . S
O356 C359 1.235 . S
C357 O360 1.238 . S
C357 O361 1.241 . S
C358 O351 1.247 . S
C358 O352 1.261 . S
C359 O354 1.259 . S
C359 O356 1.235 . S
O360 Co350 2.021 1_554 S
O360 C357 1.238 . S
O361 Co355 2.052 1_554 S
O361 C357 1.241 . S
O362 Co350 2.137 . S
O362 C353 1.247 . S
O363 Co350 2.244 . S
O363 C353 1.272 . S
O363 Co355 2.135 . S
Co364 O365 2.216 . S
Co364 O366 2.091 . S
Co364 O368 2.004 . S
Co364 O374 2.021 . S
Co364 O376 2.137 . S
Co364 O377 2.244 . S
O365 Co364 2.216 . S
O365 C372 1.247 . S
O366 Co364 2.091 . S
O366 C372 1.261 . S
C367 O376 1.247 . S
C367 O377 1.272 . S
O368 Co364 2.004 . S
O368 C373 1.259 . S
Co369 O370 2.061 . S
Co369 O375 2.052 . S
Co369 O377 2.135 . S
O370 Co369 2.061 . S
O370 C373 1.235 . S
C371 O374 1.238 . S
C371 O375 1.241 . S
C372 O365 1.247 . S
C372 O366 1.261 . S
C373 O368 1.259 . S
C373 O370 1.235 . S
O374 Co364 2.021 . S
O374 C371 1.238 . S
O375 Co369 2.052 . S
O375 C371 1.241 . S
O376 Co364 2.137 . S
O376 C367 1.247 . S
O377 Co364 2.244 . S
O377 C367 1.272 . S
O377 Co369 2.135 . S
Co378 O379 2.216 . S
Co378 O380 2.091 . S
Co378 O382 2.004 . S
Co378 O388 2.021 . S
Co378 O390 2.137 . S
Co378 O391 2.244 . S
O379 Co378 2.216 . S
O379 C386 1.247 . S
O380 Co378 2.091 . S
O380 C386 1.261 . S
C381 O390 1.247 . S
C381 O391 1.272 . S
O382 Co378 2.004 . S
O382 C387 1.259 . S
Co383 O384 2.061 . S
Co383 O389 2.052 . S
Co383 O391 2.135 . S
O384 Co383 2.061 . S
O384 C387 1.235 . S
C385 O388 1.238 . S
C385 O389 1.241 . S
C386 O379 1.247 . S
C386 O380 1.261 . S
C387 O382 1.259 . S
C387 O384 1.235 . S
O388 Co378 2.021 . S
O388 C385 1.238 . S
O389 Co383 2.052 . S
O389 C385 1.241 . S
O390 Co378 2.137 . S
O390 C381 1.247 . S
O391 Co378 2.244 . S
O391 C381 1.272 . S
O391 Co383 2.135 . S
Co392 O393 2.216 . S
Co392 O394 2.091 . S
Co392 O396 2.004 . S
Co392 O402 2.021 . S
Co392 O404 2.137 . S
Co392 O405 2.244 . S
O393 Co392 2.216 . S
O393 C400 1.247 . S
O394 Co392 2.091 . S
O394 C400 1.261 . S
C395 O404 1.247 . S
C395 O405 1.272 . S
O396 Co392 2.004 . S
O396 C401 1.259 . S
Co397 O398 2.061 . S
Co397 O403 2.052 . S
Co397 O405 2.135 . S
O398 Co397 2.061 . S
O398 C401 1.235 . S
C399 O402 1.238 . S
C399 O403 1.241 . S
C400 O393 1.247 . S
C400 O394 1.261 . S
C401 O396 1.259 . S
C401 O398 1.235 . S
O402 Co392 2.021 . S
O402 C399 1.238 . S
O403 Co397 2.052 . S
O403 C399 1.241 . S
O404 Co392 2.137 . S
O404 C395 1.247 . S
O405 Co392 2.244 . S
O405 C395 1.272 . S
O405 Co397 2.135 . S
Co406 O407 2.216 . S
Co406 O408 2.091 . S
Co406 O410 2.004 . S
Co406 O416 2.021 1_554 S
Co406 O418 2.137 . S
Co406 O419 2.244 . S
O407 Co406 2.216 . S
O407 C414 1.247 . S
O408 Co406 2.091 . S
O408 C414 1.261 . S
C409 O418 1.247 . S
C409 O419 1.272 . S
O410 Co406 2.004 . S
O410 C415 1.259 . S
Co411 O412 2.061 . S
Co411 O417 2.052 1_554 S
Co411 O419 2.135 . S
O412 Co411 2.061 . S
O412 C415 1.235 . S
C413 O416 1.238 . S
C413 O417 1.241 . S
C414 O407 1.247 . S
C414 O408 1.261 . S
C415 O410 1.259 . S
C415 O412 1.235 . S
O416 Co406 2.021 1_556 S
O416 C413 1.238 . S
O417 Co411 2.052 1_556 S
O417 C413 1.241 . S
O418 Co406 2.137 . S
O418 C409 1.247 . S
O419 Co406 2.244 . S
O419 C409 1.272 . S
O419 Co411 2.135 . S
Co420 O421 2.216 . S
Co420 O422 2.091 . S
Co420 O424 2.004 . S
Co420 O430 2.021 . S
Co420 O432 2.137 . S
Co420 O433 2.244 . S
O421 Co420 2.216 . S
O421 C428 1.247 . S
O422 Co420 2.091 . S
O422 C428 1.261 . S
C423 O432 1.247 . S
C423 O433 1.272 . S
O424 Co420 2.004 . S
O424 C429 1.259 . S
Co425 O426 2.061 . S
Co425 O431 2.052 . S
Co425 O433 2.135 . S
O426 Co425 2.061 . S
O426 C429 1.235 . S
C427 O430 1.238 . S
C427 O431 1.241 . S
C428 O421 1.247 . S
C428 O422 1.261 . S
C429 O424 1.259 . S
C429 O426 1.235 . S
O430 Co420 2.021 . S
O430 C427 1.238 . S
O431 Co425 2.052 . S
O431 C427 1.241 . S
O432 Co420 2.137 . S
O432 C423 1.247 . S
O433 Co420 2.244 . S
O433 C423 1.272 . S
O433 Co425 2.135 . S
Co434 O435 2.216 . S
Co434 O436 2.091 . S
Co434 O438 2.004 . S
Co434 O444 2.021 . S
Co434 O446 2.137 . S
Co434 O447 2.244 . S
O435 Co434 2.216 . S
O435 C442 1.247 . S
O436 Co434 2.091 . S
O436 C442 1.261 . S
C437 O446 1.247 . S
C437 O447 1.272 . S
O438 Co434 2.004 . S
O438 C443 1.259 . S
Co439 O440 2.061 . S
Co439 O445 2.052 . S
Co439 O447 2.135 . S
O440 Co439 2.061 . S
O440 C443 1.235 . S
C441 O444 1.238 . S
C441 O445 1.241 . S
C442 O435 1.247 . S
C442 O436 1.261 . S
C443 O438 1.259 . S
C443 O440 1.235 . S
O444 Co434 2.021 . S
O444 C441 1.238 . S
O445 Co439 2.052 . S
O445 C441 1.241 . S
O446 Co434 2.137 . S
O446 C437 1.247 . S
O447 Co434 2.244 . S
O447 C437 1.272 . S
O447 Co439 2.135 . S
C448 C449 1.369 . S
C448 C450 1.419 . S
C448 H452 0.930 . S
C449 C448 1.369 . S
C449 C458 1.429 . S
C450 C448 1.419 . S
C450 C451 1.363 . S
C450 H453 0.929 . S
C451 C450 1.363 . S
C451 C457 1.428 . S
H452 C448 0.930 . S
H453 C450 0.929 . S
S454 N455 1.613 . S
S454 N456 1.610 . S
N455 S454 1.613 . S
N455 C458 1.350 . S
N456 S454 1.610 . S
N456 C457 1.351 . S
C457 C451 1.428 . S
C457 N456 1.351 . S
C457 C458 1.434 . S
C458 C449 1.429 . S
C458 N455 1.350 . S
C458 C457 1.434 . S
C459 C460 1.369 . S
C459 C461 1.419 . S
C459 H463 0.930 . S
C460 C459 1.369 . S
C460 C469 1.429 . S
C461 C459 1.419 . S
C461 C462 1.363 . S
C461 H464 0.929 . S
C462 C461 1.363 . S
C462 C468 1.428 . S
H463 C459 0.930 . S
H464 C461 0.929 . S
S465 N466 1.613 . S
S465 N467 1.610 . S
N466 S465 1.613 . S
N466 C469 1.350 . S
N467 S465 1.610 . S
N467 C468 1.351 . S
C468 C462 1.428 . S
C468 N467 1.351 . S
C468 C469 1.434 . S
C469 C460 1.429 . S
C469 N466 1.350 . S
C469 C468 1.434 . S
C470 C471 1.369 . S
C470 C472 1.419 . S
C470 H474 0.930 . S
C471 C470 1.369 . S
C471 C480 1.429 . S
C472 C470 1.419 . S
C472 C473 1.363 . S
C472 H475 0.929 . S
C473 C472 1.363 . S
C473 C479 1.428 . S
H474 C470 0.930 . S
H475 C472 0.929 . S
S476 N477 1.613 . S
S476 N478 1.610 . S
N477 S476 1.613 . S
N477 C480 1.350 . S
N478 S476 1.610 . S
N478 C479 1.351 . S
C479 C473 1.428 . S
C479 N478 1.351 . S
C479 C480 1.434 . S
C480 C471 1.429 . S
C480 N477 1.350 . S
C480 C479 1.434 . S
C481 C482 1.369 . S
C481 C483 1.419 . S
C481 H485 0.930 . S
C482 C481 1.369 . S
C482 C491 1.429 . S
C483 C481 1.419 . S
C483 C484 1.363 . S
C483 H486 0.929 . S
C484 C483 1.363 . S
C484 C490 1.428 . S
H485 C481 0.930 . S
H486 C483 0.929 . S
S487 N488 1.613 . S
S487 N489 1.610 . S
N488 S487 1.613 . S
N488 C491 1.350 . S
N489 S487 1.610 . S
N489 C490 1.351 . S
C490 C484 1.428 . S
C490 N489 1.351 . S
C490 C491 1.434 . S
C491 C482 1.429 . S
C491 N488 1.350 . S
C491 C490 1.434 . S
C492 C493 1.369 . S
C492 C494 1.419 . S
C492 H496 0.930 . S
C493 C492 1.369 . S
C493 C502 1.429 . S
C494 C492 1.419 . S
C494 C495 1.363 . S
C494 H497 0.929 . S
C495 C494 1.363 . S
C495 C501 1.428 . S
H496 C492 0.930 . S
H497 C494 0.929 . S
S498 N499 1.613 . S
S498 N500 1.610 . S
N499 S498 1.613 . S
N499 C502 1.350 . S
N500 S498 1.610 . S
N500 C501 1.351 . S
C501 C495 1.428 . S
C501 N500 1.351 . S
C501 C502 1.434 . S
C502 C493 1.429 . S
C502 N499 1.350 . S
C502 C501 1.434 . S
C503 C504 1.369 . S
C503 C505 1.419 . S
C503 H507 0.930 . S
C504 C503 1.369 . S
C504 C513 1.429 . S
C505 C503 1.419 . S
C505 C506 1.363 . S
C505 H508 0.929 . S
C506 C505 1.363 . S
C506 C512 1.428 . S
H507 C503 0.930 . S
H508 C505 0.929 . S
S509 N510 1.613 . S
S509 N511 1.610 . S
N510 S509 1.613 . S
N510 C513 1.350 . S
N511 S509 1.610 . S
N511 C512 1.351 . S
C512 C506 1.428 . S
C512 N511 1.351 . S
C512 C513 1.434 . S
C513 C504 1.429 . S
C513 N510 1.350 . S
C513 C512 1.434 . S
C514 C515 1.369 . S
C514 C516 1.419 . S
C514 H518 0.930 . S
C515 C514 1.369 . S
C515 C524 1.429 . S
C516 C514 1.419 . S
C516 C517 1.363 . S
C516 H519 0.929 . S
C517 C516 1.363 . S
C517 C523 1.428 . S
H518 C514 0.930 . S
H519 C516 0.929 . S
S520 N521 1.613 . S
S520 N522 1.610 . S
N521 S520 1.613 . S
N521 C524 1.350 . S
N522 S520 1.610 . S
N522 C523 1.351 . S
C523 C517 1.428 . S
C523 N522 1.351 . S
C523 C524 1.434 . S
C524 C515 1.429 . S
C524 N521 1.350 . S
C524 C523 1.434 . S
C525 C526 1.369 . S
C525 C527 1.419 . S
C525 H529 0.930 . S
C526 C525 1.369 . S
C526 C535 1.429 . S
C527 C525 1.419 . S
C527 C528 1.363 . S
C527 H530 0.929 . S
C528 C527 1.363 . S
C528 C534 1.428 . S
H529 C525 0.930 . S
H530 C527 0.929 . S
S531 N532 1.613 . S
S531 N533 1.610 . S
N532 S531 1.613 . S
N532 C535 1.350 . S
N533 S531 1.610 . S
N533 C534 1.351 . S
C534 C528 1.428 . S
C534 N533 1.351 . S
C534 C535 1.434 . S
C535 C526 1.429 . S
C535 N532 1.350 . S
C535 C534 1.434 . S
C536 C537 1.369 . S
C536 C538 1.419 . S
C536 H540 0.930 . S
C537 C536 1.369 . S
C537 C546 1.429 . S
C538 C536 1.419 . S
C538 C539 1.363 . S
C538 H541 0.929 . S
C539 C538 1.363 . S
C539 C545 1.428 . S
H540 C536 0.930 . S
H541 C538 0.929 . S
S542 N543 1.613 . S
S542 N544 1.610 . S
N543 S542 1.613 . S
N543 C546 1.350 . S
N544 S542 1.610 . S
N544 C545 1.351 . S
C545 C539 1.428 . S
C545 N544 1.351 . S
C545 C546 1.434 . S
C546 C537 1.429 . S
C546 N543 1.350 . S
C546 C545 1.434 . S
C547 C548 1.369 . S
C547 C549 1.419 . S
C547 H551 0.930 . S
C548 C547 1.369 . S
C548 C557 1.429 . S
C549 C547 1.419 . S
C549 C550 1.363 . S
C549 H552 0.929 . S
C550 C549 1.363 . S
C550 C556 1.428 . S
H551 C547 0.930 . S
H552 C549 0.929 . S
S553 N554 1.613 . S
S553 N555 1.610 . S
N554 S553 1.613 . S
N554 C557 1.350 . S
N555 S553 1.610 . S
N555 C556 1.351 . S
C556 C550 1.428 . S
C556 N555 1.351 . S
C556 C557 1.434 . S
C557 C548 1.429 . S
C557 N554 1.350 . S
C557 C556 1.434 . S
C558 C559 1.369 . S
C558 C560 1.419 . S
C558 H562 0.930 . S
C559 C558 1.369 . S
C559 C568 1.429 . S
C560 C558 1.419 . S
C560 C561 1.363 . S
C560 H563 0.929 . S
C561 C560 1.363 . S
C561 C567 1.428 . S
H562 C558 0.930 . S
H563 C560 0.929 . S
S564 N565 1.613 . S
S564 N566 1.610 . S
N565 S564 1.613 . S
N565 C568 1.350 . S
N566 S564 1.610 . S
N566 C567 1.351 . S
C567 C561 1.428 . S
C567 N566 1.351 . S
C567 C568 1.434 . S
C568 C559 1.429 . S
C568 N565 1.350 . S
C568 C567 1.434 . S
C569 C570 1.369 . S
C569 C571 1.419 . S
C569 H573 0.930 . S
C570 C569 1.369 . S
C570 C579 1.429 . S
C571 C569 1.419 . S
C571 C572 1.363 . S
C571 H574 0.929 . S
C572 C571 1.363 . S
C572 C578 1.428 . S
H573 C569 0.930 . S
H574 C571 0.929 . S
S575 N576 1.613 . S
S575 N577 1.610 . S
N576 S575 1.613 . S
N576 C579 1.350 . S
N577 S575 1.610 . S
N577 C578 1.351 . S
C578 C572 1.428 . S
C578 N577 1.351 . S
C578 C579 1.434 . S
C579 C570 1.429 . S
C579 N576 1.350 . S
C579 C578 1.434 . S
C580 C581 1.369 . S
C580 C582 1.419 . S
C580 H584 0.930 . S
C581 C580 1.369 . S
C581 C590 1.429 . S
C582 C580 1.419 . S
C582 C583 1.363 . S
C582 H585 0.929 . S
C583 C582 1.363 . S
C583 C589 1.428 . S
H584 C580 0.930 . S
H585 C582 0.929 . S
S586 N587 1.613 . S
S586 N588 1.610 . S
N587 S586 1.613 . S
N587 C590 1.350 . S
N588 S586 1.610 . S
N588 C589 1.351 . S
C589 C583 1.428 . S
C589 N588 1.351 . S
C589 C590 1.434 . S
C590 C581 1.429 . S
C590 N587 1.350 . S
C590 C589 1.434 . S
C591 C592 1.369 . S
C591 C593 1.419 . S
C591 H595 0.930 . S
C592 C591 1.369 . S
C592 C601 1.429 . S
C593 C591 1.419 . S
C593 C594 1.363 . S
C593 H596 0.929 . S
C594 C593 1.363 . S
C594 C600 1.428 . S
H595 C591 0.930 . S
H596 C593 0.929 . S
S597 N598 1.613 . S
S597 N599 1.610 . S
N598 S597 1.613 . S
N598 C601 1.350 . S
N599 S597 1.610 . S
N599 C600 1.351 . S
C600 C594 1.428 . S
C600 N599 1.351 . S
C600 C601 1.434 . S
C601 C592 1.429 . S
C601 N598 1.350 . S
C601 C600 1.434 . S
C602 C603 1.369 . S
C602 C604 1.419 . S
C602 H606 0.930 . S
C603 C602 1.369 . S
C603 C612 1.429 . S
C604 C602 1.419 . S
C604 C605 1.363 . S
C604 H607 0.929 . S
C605 C604 1.363 . S
C605 C611 1.428 . S
H606 C602 0.930 . S
H607 C604 0.929 . S
S608 N609 1.613 . S
S608 N610 1.610 . S
N609 S608 1.613 . S
N609 C612 1.350 . S
N610 S608 1.610 . S
N610 C611 1.351 . S
C611 C605 1.428 . S
C611 N610 1.351 . S
C611 C612 1.434 . S
C612 C603 1.429 . S
C612 N609 1.350 . S
C612 C611 1.434 . S
C613 C614 1.369 . S
C613 C615 1.419 . S
C613 H617 0.930 . S
C614 C613 1.369 . S
C614 C623 1.429 . S
C615 C613 1.419 . S
C615 C616 1.363 . S
C615 H618 0.929 . S
C616 C615 1.363 . S
C616 C622 1.428 . S
H617 C613 0.930 . S
H618 C615 0.929 . S
S619 N620 1.613 . S
S619 N621 1.610 . S
N620 S619 1.613 . S
N620 C623 1.350 . S
N621 S619 1.610 . S
N621 C622 1.351 . S
C622 C616 1.428 . S
C622 N621 1.351 . S
C622 C623 1.434 . S
C623 C614 1.429 . S
C623 N620 1.350 . S
C623 C622 1.434 . S
C624 C625 1.369 . S
C624 C626 1.419 . S
C624 H628 0.930 . S
C625 C624 1.369 . S
C625 C634 1.429 . S
C626 C624 1.419 . S
C626 C627 1.363 . S
C626 H629 0.929 . S
C627 C626 1.363 . S
C627 C633 1.428 . S
H628 C624 0.930 . S
H629 C626 0.929 . S
S630 N631 1.613 . S
S630 N632 1.610 . S
N631 S630 1.613 . S
N631 C634 1.350 . S
N632 S630 1.610 . S
N632 C633 1.351 . S
C633 C627 1.428 . S
C633 N632 1.351 . S
C633 C634 1.434 . S
C634 C625 1.429 . S
C634 N631 1.350 . S
C634 C633 1.434 . S
C635 C636 1.369 . S
C635 C637 1.419 . S
C635 H639 0.930 . S
C636 C635 1.369 . S
C636 C645 1.429 . S
C637 C635 1.419 . S
C637 C638 1.363 . S
C637 H640 0.929 . S
C638 C637 1.363 . S
C638 C644 1.428 . S
H639 C635 0.930 . S
H640 C637 0.929 . S
S641 N642 1.613 . S
S641 N643 1.610 1_655 S
N642 S641 1.613 . S
N642 C645 1.350 . S
N643 S641 1.610 1_455 S
N643 C644 1.351 1_455 S
C644 C638 1.428 . S
C644 N643 1.351 1_655 S
C644 C645 1.434 . S
C645 C636 1.429 . S
C645 N642 1.350 . S
C645 C644 1.434 . S
C646 C647 1.369 . S
C646 C648 1.419 . S
C646 H650 0.930 . S
C647 C646 1.369 . S
C647 C656 1.429 . S
C648 C646 1.419 . S
C648 C649 1.363 . S
C648 H651 0.929 . S
C649 C648 1.363 . S
C649 C655 1.428 . S
H650 C646 0.930 . S
H651 C648 0.929 . S
S652 N653 1.613 . S
S652 N654 1.610 . S
N653 S652 1.613 . S
N653 C656 1.350 . S
N654 S652 1.610 . S
N654 C655 1.351 . S
C655 C649 1.428 . S
C655 N654 1.351 . S
C655 C656 1.434 . S
C656 C647 1.429 . S
C656 N653 1.350 . S
C656 C655 1.434 . S
C657 C658 1.369 . S
C657 C659 1.419 . S
C657 H661 0.930 . S
C658 C657 1.369 . S
C658 C667 1.429 . S
C659 C657 1.419 . S
C659 C660 1.363 . S
C659 H662 0.929 . S
C660 C659 1.363 . S
C660 C666 1.428 . S
H661 C657 0.930 . S
H662 C659 0.929 . S
S663 N664 1.613 . S
S663 N665 1.610 . S
N664 S663 1.613 . S
N664 C667 1.350 . S
N665 S663 1.610 . S
N665 C666 1.351 . S
C666 C660 1.428 . S
C666 N665 1.351 . S
C666 C667 1.434 . S
C667 C658 1.429 . S
C667 N664 1.350 . S
C667 C666 1.434 . S
C668 C669 1.369 . S
C668 C670 1.419 . S
C668 H672 0.930 . S
C669 C668 1.369 . S
C669 C678 1.429 . S
C670 C668 1.419 . S
C670 C671 1.363 . S
C670 H673 0.929 . S
C671 C670 1.363 . S
C671 C677 1.428 . S
H672 C668 0.930 . S
H673 C670 0.929 . S
S674 N675 1.613 . S
S674 N676 1.610 . S
N675 S674 1.613 . S
N675 C678 1.350 . S
N676 S674 1.610 . S
N676 C677 1.351 . S
C677 C671 1.428 . S
C677 N676 1.351 . S
C677 C678 1.434 . S
C678 C669 1.429 . S
C678 N675 1.350 . S
C678 C677 1.434 . S
C679 C680 1.369 . S
C679 C681 1.419 . S
C679 H683 0.930 . S
C680 C679 1.369 . S
C680 C689 1.429 . S
C681 C679 1.419 . S
C681 C682 1.363 . S
C681 H684 0.929 . S
C682 C681 1.363 . S
C682 C688 1.428 . S
H683 C679 0.930 . S
H684 C681 0.929 . S
S685 N686 1.613 . S
S685 N687 1.610 . S
N686 S685 1.613 . S
N686 C689 1.350 . S
N687 S685 1.610 . S
N687 C688 1.351 . S
C688 C682 1.428 . S
C688 N687 1.351 . S
C688 C689 1.434 . S
C689 C680 1.429 . S
C689 N686 1.350 . S
C689 C688 1.434 . S
C690 C691 1.369 . S
C690 C692 1.419 . S
C690 H694 0.930 . S
C691 C690 1.369 . S
C691 C700 1.429 . S
C692 C690 1.419 . S
C692 C693 1.363 . S
C692 H695 0.929 . S
C693 C692 1.363 . S
C693 C699 1.428 . S
H694 C690 0.930 . S
H695 C692 0.929 . S
S696 N697 1.613 . S
S696 N698 1.610 . S
N697 S696 1.613 . S
N697 C700 1.350 . S
N698 S696 1.610 . S
N698 C699 1.351 . S
C699 C693 1.428 . S
C699 N698 1.351 . S
C699 C700 1.434 . S
C700 C691 1.429 . S
C700 N697 1.350 . S
C700 C699 1.434 . S
C701 C702 1.369 . S
C701 C703 1.419 . S
C701 H705 0.930 . S
C702 C701 1.369 . S
C702 C711 1.429 . S
C703 C701 1.419 . S
C703 C704 1.363 . S
C703 H706 0.929 . S
C704 C703 1.363 . S
C704 C710 1.428 . S
H705 C701 0.930 . S
H706 C703 0.929 . S
S707 N708 1.613 1_655 S
S707 N709 1.610 . S
N708 S707 1.613 1_455 S
N708 C711 1.350 1_455 S
N709 S707 1.610 . S
N709 C710 1.351 . S
C710 C704 1.428 . S
C710 N709 1.351 . S
C710 C711 1.434 . S
C711 C702 1.429 . S
C711 N708 1.350 1_655 S
C711 C710 1.434 . S
C712 C713 1.369 . S
C712 C714 1.419 . S
C712 H716 0.930 . S
C713 C712 1.369 . S
C713 C722 1.429 . S
C714 C712 1.419 . S
C714 C715 1.363 . S
C714 H717 0.929 . S
C715 C714 1.363 . S
C715 C721 1.428 . S
H716 C712 0.930 . S
H717 C714 0.929 . S
S718 N719 1.613 . S
S718 N720 1.610 . S
N719 S718 1.613 . S
N719 C722 1.350 . S
N720 S718 1.610 . S
N720 C721 1.351 . S
C721 C715 1.428 . S
C721 N720 1.351 . S
C721 C722 1.434 . S
C722 C713 1.429 . S
C722 N719 1.350 . S
C722 C721 1.434 . S
C723 C724 1.369 . S
C723 C725 1.419 . S
C723 H727 0.930 1_455 S
C724 C723 1.369 . S
C724 C733 1.429 . S
C725 C723 1.419 . S
C725 C726 1.363 . S
C725 H728 0.929 . S
C726 C725 1.363 . S
C726 C732 1.428 . S
H727 C723 0.930 1_655 S
H728 C725 0.929 . S
S729 N730 1.613 . S
S729 N731 1.610 . S
N730 S729 1.613 . S
N730 C733 1.350 . S
N731 S729 1.610 . S
N731 C732 1.351 . S
C732 C726 1.428 . S
C732 N731 1.351 . S
C732 C733 1.434 . S
C733 C724 1.429 . S
C733 N730 1.350 . S
C733 C732 1.434 . S
C734 C735 1.369 . S
C734 C736 1.419 . S
C734 H738 0.930 . S
C735 C734 1.369 . S
C735 C744 1.429 . S
C736 C734 1.419 . S
C736 C737 1.363 . S
C736 H739 0.929 . S
C737 C736 1.363 . S
C737 C743 1.428 . S
H738 C734 0.930 . S
H739 C736 0.929 . S
S740 N741 1.613 . S
S740 N742 1.610 . S
N741 S740 1.613 . S
N741 C744 1.350 . S
N742 S740 1.610 . S
N742 C743 1.351 . S
C743 C737 1.428 . S
C743 N742 1.351 . S
C743 C744 1.434 . S
C744 C735 1.429 . S
C744 N741 1.350 . S
C744 C743 1.434 . S
C745 C746 1.369 . S
C745 C747 1.419 . S
C745 H749 0.930 . S
C746 C745 1.369 . S
C746 C755 1.429 . S
C747 C745 1.419 . S
C747 C748 1.363 . S
C747 H750 0.929 . S
C748 C747 1.363 . S
C748 C754 1.428 . S
H749 C745 0.930 . S
H750 C747 0.929 . S
S751 N752 1.613 . S
S751 N753 1.610 . S
N752 S751 1.613 . S
N752 C755 1.350 . S
N753 S751 1.610 . S
N753 C754 1.351 . S
C754 C748 1.428 . S
C754 N753 1.351 . S
C754 C755 1.434 . S
C755 C746 1.429 . S
C755 N752 1.350 . S
C755 C754 1.434 . S
C756 C757 1.369 . S
C756 C758 1.419 . S
C756 H760 0.930 . S
C757 C756 1.369 . S
C757 C766 1.429 . S
C758 C756 1.419 . S
C758 C759 1.363 . S
C758 H761 0.929 . S
C759 C758 1.363 . S
C759 C765 1.428 . S
H760 C756 0.930 . S
H761 C758 0.929 . S
S762 N763 1.613 . S
S762 N764 1.610 . S
N763 S762 1.613 . S
N763 C766 1.350 . S
N764 S762 1.610 . S
N764 C765 1.351 . S
C765 C759 1.428 . S
C765 N764 1.351 . S
C765 C766 1.434 . S
C766 C757 1.429 . S
C766 N763 1.350 . S
C766 C765 1.434 . S
C767 C768 1.369 . S
C767 C769 1.419 . S
C767 H771 0.930 . S
C768 C767 1.369 . S
C768 C777 1.429 . S
C769 C767 1.419 . S
C769 C770 1.363 . S
C769 H772 0.929 . S
C770 C769 1.363 . S
C770 C776 1.428 . S
H771 C767 0.930 . S
H772 C769 0.929 . S
S773 N774 1.613 . S
S773 N775 1.610 . S
N774 S773 1.613 . S
N774 C777 1.350 . S
N775 S773 1.610 . S
N775 C776 1.351 . S
C776 C770 1.428 . S
C776 N775 1.351 . S
C776 C777 1.434 . S
C777 C768 1.429 . S
C777 N774 1.350 . S
C777 C776 1.434 . S
C778 C779 1.369 . S
C778 C780 1.419 . S
C778 H782 0.930 . S
C779 C778 1.369 . S
C779 C788 1.429 . S
C780 C778 1.419 . S
C780 C781 1.363 . S
C780 H783 0.929 . S
C781 C780 1.363 . S
C781 C787 1.428 . S
H782 C778 0.930 . S
H783 C780 0.929 . S
S784 N785 1.613 . S
S784 N786 1.610 . S
N785 S784 1.613 . S
N785 C788 1.350 . S
N786 S784 1.610 . S
N786 C787 1.351 . S
C787 C781 1.428 . S
C787 N786 1.351 . S
C787 C788 1.434 . S
C788 C779 1.429 . S
C788 N785 1.350 . S
C788 C787 1.434 . S
C789 C790 1.369 . S
C789 C791 1.419 . S
C789 H793 0.930 . S
C790 C789 1.369 . S
C790 C799 1.429 . S
C791 C789 1.419 . S
C791 C792 1.363 . S
C791 H794 0.929 . S
C792 C791 1.363 . S
C792 C798 1.428 . S
H793 C789 0.930 . S
H794 C791 0.929 . S
S795 N796 1.613 . S
S795 N797 1.610 . S
N796 S795 1.613 . S
N796 C799 1.350 . S
N797 S795 1.610 . S
N797 C798 1.351 . S
C798 C792 1.428 . S
C798 N797 1.351 . S
C798 C799 1.434 . S
C799 C790 1.429 . S
C799 N796 1.350 . S
C799 C798 1.434 . S
C800 C801 1.369 . S
C800 C802 1.419 . S
C800 H804 0.930 . S
C801 C800 1.369 . S
C801 C810 1.429 . S
C802 C800 1.419 . S
C802 C803 1.363 . S
C802 H805 0.929 . S
C803 C802 1.363 . S
C803 C809 1.428 . S
H804 C800 0.930 . S
H805 C802 0.929 . S
S806 N807 1.613 . S
S806 N808 1.610 . S
N807 S806 1.613 . S
N807 C810 1.350 . S
N808 S806 1.610 . S
N808 C809 1.351 . S
C809 C803 1.428 . S
C809 N808 1.351 . S
C809 C810 1.434 . S
C810 C801 1.429 . S
C810 N807 1.350 . S
C810 C809 1.434 . S
C811 C812 1.369 . S
C811 C813 1.419 . S
C811 H815 0.930 . S
C812 C811 1.369 . S
C812 C821 1.429 . S
C813 C811 1.419 . S
C813 C814 1.363 . S
C813 H816 0.929 . S
C814 C813 1.363 . S
C814 C820 1.428 . S
H815 C811 0.930 . S
H816 C813 0.929 . S
S817 N818 1.613 . S
S817 N819 1.610 . S
N818 S817 1.613 . S
N818 C821 1.350 . S
N819 S817 1.610 . S
N819 C820 1.351 . S
C820 C814 1.428 . S
C820 N819 1.351 . S
C820 C821 1.434 . S
C821 C812 1.429 . S
C821 N818 1.350 . S
C821 C820 1.434 . S
C822 C823 1.369 . S
C822 C824 1.419 . S
C822 H826 0.930 . S
C823 C822 1.369 . S
C823 C832 1.429 . S
C824 C822 1.419 . S
C824 C825 1.363 . S
C824 H827 0.929 . S
C825 C824 1.363 . S
C825 C831 1.428 . S
H826 C822 0.930 . S
H827 C824 0.929 . S
S828 N829 1.613 . S
S828 N830 1.610 . S
N829 S828 1.613 . S
N829 C832 1.350 . S
N830 S828 1.610 . S
N830 C831 1.351 . S
C831 C825 1.428 . S
C831 N830 1.351 . S
C831 C832 1.434 . S
C832 C823 1.429 . S
C832 N829 1.350 . S
C832 C831 1.434 . S
C833 C834 1.369 . S
C833 C835 1.419 . S
C833 H837 0.930 . S
C834 C833 1.369 . S
C834 C843 1.429 . S
C835 C833 1.419 . S
C835 C836 1.363 . S
C835 H838 0.929 . S
C836 C835 1.363 . S
C836 C842 1.428 . S
H837 C833 0.930 . S
H838 C835 0.929 . S
S839 N840 1.613 . S
S839 N841 1.610 . S
N840 S839 1.613 . S
N840 C843 1.350 . S
N841 S839 1.610 . S
N841 C842 1.351 . S
C842 C836 1.428 . S
C842 N841 1.351 . S
C842 C843 1.434 . S
C843 C834 1.429 . S
C843 N840 1.350 . S
C843 C842 1.434 . S
C844 C845 1.369 . S
C844 C846 1.419 . S
C844 H848 0.930 . S
C845 C844 1.369 . S
C845 C854 1.429 . S
C846 C844 1.419 . S
C846 C847 1.363 . S
C846 H849 0.929 . S
C847 C846 1.363 . S
C847 C853 1.428 . S
H848 C844 0.930 . S
H849 C846 0.929 . S
S850 N851 1.613 . S
S850 N852 1.610 . S
N851 S850 1.613 . S
N851 C854 1.350 . S
N852 S850 1.610 . S
N852 C853 1.351 . S
C853 C847 1.428 . S
C853 N852 1.351 . S
C853 C854 1.434 . S
C854 C845 1.429 . S
C854 N851 1.350 . S
C854 C853 1.434 . S
C855 C856 1.369 . S
C855 C857 1.419 . S
C855 H859 0.930 . S
C856 C855 1.369 . S
C856 C865 1.429 . S
C857 C855 1.419 . S
C857 C858 1.363 . S
C857 H860 0.929 . S
C858 C857 1.363 . S
C858 C864 1.428 . S
H859 C855 0.930 . S
H860 C857 0.929 . S
S861 N862 1.613 1_455 S
S861 N863 1.610 . S
N862 S861 1.613 1_655 S
N862 C865 1.350 1_655 S
N863 S861 1.610 . S
N863 C864 1.351 . S
C864 C858 1.428 . S
C864 N863 1.351 . S
C864 C865 1.434 . S
C865 C856 1.429 . S
C865 N862 1.350 1_455 S
C865 C864 1.434 . S
C866 C867 1.369 . S
C866 C868 1.419 . S
C866 H870 0.930 . S
C867 C866 1.369 . S
C867 C876 1.429 . S
C868 C866 1.419 . S
C868 C869 1.363 . S
C868 H871 0.929 . S
C869 C868 1.363 . S
C869 C875 1.428 . S
H870 C866 0.930 . S
H871 C868 0.929 . S
S872 N873 1.613 . S
S872 N874 1.610 . S
N873 S872 1.613 . S
N873 C876 1.350 . S
N874 S872 1.610 . S
N874 C875 1.351 . S
C875 C869 1.428 . S
C875 N874 1.351 . S
C875 C876 1.434 . S
C876 C867 1.429 . S
C876 N873 1.350 . S
C876 C875 1.434 . S
C877 C878 1.369 . S
C877 C879 1.419 . S
C877 H881 0.930 . S
C878 C877 1.369 . S
C878 C887 1.429 . S
C879 C877 1.419 . S
C879 C880 1.363 . S
C879 H882 0.929 . S
C880 C879 1.363 . S
C880 C886 1.428 . S
H881 C877 0.930 . S
H882 C879 0.929 . S
S883 N884 1.613 . S
S883 N885 1.610 . S
N884 S883 1.613 . S
N884 C887 1.350 . S
N885 S883 1.610 . S
N885 C886 1.351 . S
C886 C880 1.428 . S
C886 N885 1.351 . S
C886 C887 1.434 . S
C887 C878 1.429 . S
C887 N884 1.350 . S
C887 C886 1.434 . S
C888 C889 1.369 . S
C888 C890 1.419 . S
C888 H892 0.930 . S
C889 C888 1.369 . S
C889 C898 1.429 . S
C890 C888 1.419 . S
C890 C891 1.363 . S
C890 H893 0.929 . S
C891 C890 1.363 . S
C891 C897 1.428 . S
H892 C888 0.930 . S
H893 C890 0.929 . S
S894 N895 1.613 . S
S894 N896 1.610 . S
N895 S894 1.613 . S
N895 C898 1.350 . S
N896 S894 1.610 . S
N896 C897 1.351 . S
C897 C891 1.428 . S
C897 N896 1.351 . S
C897 C898 1.434 . S
C898 C889 1.429 . S
C898 N895 1.350 . S
C898 C897 1.434 . S
C899 C900 1.369 . S
C899 C901 1.419 . S
C899 H903 0.930 . S
C900 C899 1.369 . S
C900 C909 1.429 . S
C901 C899 1.419 . S
C901 C902 1.363 . S
C901 H904 0.929 . S
C902 C901 1.363 . S
C902 C908 1.428 . S
H903 C899 0.930 . S
H904 C901 0.929 . S
S905 N906 1.613 . S
S905 N907 1.610 . S
N906 S905 1.613 . S
N906 C909 1.350 . S
N907 S905 1.610 . S
N907 C908 1.351 . S
C908 C902 1.428 . S
C908 N907 1.351 . S
C908 C909 1.434 . S
C909 C900 1.429 . S
C909 N906 1.350 . S
C909 C908 1.434 . S
C910 C911 1.369 . S
C910 C912 1.419 . S
C910 H914 0.930 . S
C911 C910 1.369 . S
C911 C920 1.429 . S
C912 C910 1.419 . S
C912 C913 1.363 . S
C912 H915 0.929 . S
C913 C912 1.363 . S
C913 C919 1.428 . S
H914 C910 0.930 . S
H915 C912 0.929 . S
S916 N917 1.613 . S
S916 N918 1.610 . S
N917 S916 1.613 . S
N917 C920 1.350 . S
N918 S916 1.610 . S
N918 C919 1.351 . S
C919 C913 1.428 . S
C919 N918 1.351 . S
C919 C920 1.434 . S
C920 C911 1.429 . S
C920 N917 1.350 . S
C920 C919 1.434 . S
C921 C922 1.369 . S
C921 C923 1.419 . S
C921 H925 0.930 . S
C922 C921 1.369 . S
C922 C931 1.429 . S
C923 C921 1.419 . S
C923 C924 1.363 . S
C923 H926 0.929 . S
C924 C923 1.363 . S
C924 C930 1.428 . S
H925 C921 0.930 . S
H926 C923 0.929 . S
S927 N928 1.613 . S
S927 N929 1.610 1_655 S
N928 S927 1.613 . S
N928 C931 1.350 . S
N929 S927 1.610 1_455 S
N929 C930 1.351 1_455 S
C930 C924 1.428 . S
C930 N929 1.351 1_655 S
C930 C931 1.434 . S
C931 C922 1.429 . S
C931 N928 1.350 . S
C931 C930 1.434 . S
C932 C933 1.369 . S
C932 C934 1.419 . S
C932 H936 0.930 . S
C933 C932 1.369 . S
C933 C942 1.429 . S
C934 C932 1.419 . S
C934 C935 1.363 . S
C934 H937 0.929 . S
C935 C934 1.363 . S
C935 C941 1.428 . S
H936 C932 0.930 . S
H937 C934 0.929 . S
S938 N939 1.613 . S
S938 N940 1.610 . S
N939 S938 1.613 . S
N939 C942 1.350 . S
N940 S938 1.610 . S
N940 C941 1.351 . S
C941 C935 1.428 . S
C941 N940 1.351 . S
C941 C942 1.434 . S
C942 C933 1.429 . S
C942 N939 1.350 . S
C942 C941 1.434 . S
C943 C944 1.369 . S
C943 C945 1.419 . S
C943 H947 0.930 1_655 S
C944 C943 1.369 . S
C944 C953 1.429 . S
C945 C943 1.419 . S
C945 C946 1.363 . S
C945 H948 0.929 . S
C946 C945 1.363 . S
C946 C952 1.428 . S
H947 C943 0.930 1_455 S
H948 C945 0.929 . S
S949 N950 1.613 . S
S949 N951 1.610 . S
N950 S949 1.613 . S
N950 C953 1.350 . S
N951 S949 1.610 . S
N951 C952 1.351 . S
C952 C946 1.428 . S
C952 N951 1.351 . S
C952 C953 1.434 . S
C953 C944 1.429 . S
C953 N950 1.350 . S
C953 C952 1.434 . S
C954 C955 1.369 . S
C954 C956 1.419 . S
C954 H958 0.930 . S
C955 C954 1.369 . S
C955 C964 1.429 . S
C956 C954 1.419 . S
C956 C957 1.363 . S
C956 H959 0.929 . S
C957 C956 1.363 . S
C957 C963 1.428 . S
H958 C954 0.930 . S
H959 C956 0.929 . S
S960 N961 1.613 . S
S960 N962 1.610 . S
N961 S960 1.613 . S
N961 C964 1.350 . S
N962 S960 1.610 . S
N962 C963 1.351 . S
C963 C957 1.428 . S
C963 N962 1.351 . S
C963 C964 1.434 . S
C964 C955 1.429 . S
C964 N961 1.350 . S
C964 C963 1.434 . S
C965 C966 1.369 . S
C965 C967 1.419 . S
C965 H969 0.930 . S
C966 C965 1.369 . S
C966 C975 1.429 . S
C967 C965 1.419 . S
C967 C968 1.363 . S
C967 H970 0.929 . S
C968 C967 1.363 . S
C968 C974 1.428 . S
H969 C965 0.930 . S
H970 C967 0.929 . S
S971 N972 1.613 . S
S971 N973 1.610 . S
N972 S971 1.613 . S
N972 C975 1.350 . S
N973 S971 1.610 . S
N973 C974 1.351 . S
C974 C968 1.428 . S
C974 N973 1.351 . S
C974 C975 1.434 . S
C975 C966 1.429 . S
C975 N972 1.350 . S
C975 C974 1.434 . S
C976 C977 1.369 . S
C976 C978 1.419 . S
C976 H980 0.930 . S
C977 C976 1.369 . S
C977 C986 1.429 . S
C978 C976 1.419 . S
C978 C979 1.363 . S
C978 H981 0.929 . S
C979 C978 1.363 . S
C979 C985 1.428 . S
H980 C976 0.930 . S
H981 C978 0.929 . S
S982 N983 1.613 . S
S982 N984 1.610 . S
N983 S982 1.613 . S
N983 C986 1.350 . S
N984 S982 1.610 . S
N984 C985 1.351 . S
C985 C979 1.428 . S
C985 N984 1.351 . S
C985 C986 1.434 . S
C986 C977 1.429 . S
C986 N983 1.350 . S
C986 C985 1.434 . S
C987 C988 1.369 . S
C987 C989 1.419 . S
C987 H991 0.930 . S
C988 C987 1.369 . S
C988 C997 1.429 . S
C989 C987 1.419 . S
C989 C990 1.363 . S
C989 H992 0.929 . S
C990 C989 1.363 . S
C990 C996 1.428 . S
H991 C987 0.930 . S
H992 C989 0.929 . S
S993 N994 1.613 . S
S993 N995 1.610 . S
N994 S993 1.613 . S
N994 C997 1.350 . S
N995 S993 1.610 . S
N995 C996 1.351 . S
C996 C990 1.428 . S
C996 N995 1.351 . S
C996 C997 1.434 . S
C997 C988 1.429 . S
C997 N994 1.350 . S
C997 C996 1.434 . S
C998 C999 1.369 . S
C998 C1000 1.419 . S
C998 H1002 0.930 . S
C999 C998 1.369 . S
C999 C1008 1.429 . S
C1000 C998 1.419 . S
C1000 C1001 1.363 . S
C1000 H1003 0.929 . S
C1001 C1000 1.363 . S
C1001 C1007 1.428 . S
H1002 C998 0.930 . S
H1003 C1000 0.929 . S
S1004 N1005 1.613 . S
S1004 N1006 1.610 . S
N1005 S1004 1.613 . S
N1005 C1008 1.350 . S
N1006 S1004 1.610 . S
N1006 C1007 1.351 . S
C1007 C1001 1.428 . S
C1007 N1006 1.351 . S
C1007 C1008 1.434 . S
C1008 C999 1.429 . S
C1008 N1005 1.350 . S
C1008 C1007 1.434 . S
C1009 C1010 1.369 . S
C1009 C1011 1.419 . S
C1009 H1013 0.930 . S
C1010 C1009 1.369 . S
C1010 C1019 1.429 1_556 S
C1011 C1009 1.419 . S
C1011 C1012 1.363 1_556 S
C1011 H1014 0.929 . S
C1012 C1011 1.363 1_554 S
C1012 C1018 1.428 . S
H1013 C1009 0.930 . S
H1014 C1011 0.929 . S
S1015 N1016 1.613 . S
S1015 N1017 1.610 . S
N1016 S1015 1.613 . S
N1016 C1019 1.350 . S
N1017 S1015 1.610 . S
N1017 C1018 1.351 . S
C1018 C1012 1.428 . S
C1018 N1017 1.351 . S
C1018 C1019 1.434 . S
C1019 C1010 1.429 1_554 S
C1019 N1016 1.350 . S
C1019 C1018 1.434 . S
C1020 C1021 1.369 . S
C1020 C1022 1.419 . S
C1020 H1024 0.930 . S
C1021 C1020 1.369 . S
C1021 C1030 1.429 . S
C1022 C1020 1.419 . S
C1022 C1023 1.363 . S
C1022 H1025 0.929 . S
C1023 C1022 1.363 . S
C1023 C1029 1.428 . S
H1024 C1020 0.930 . S
H1025 C1022 0.929 . S
S1026 N1027 1.613 . S
S1026 N1028 1.610 . S
N1027 S1026 1.613 . S
N1027 C1030 1.350 . S
N1028 S1026 1.610 . S
N1028 C1029 1.351 . S
C1029 C1023 1.428 . S
C1029 N1028 1.351 . S
C1029 C1030 1.434 . S
C1030 C1021 1.429 . S
C1030 N1027 1.350 . S
C1030 C1029 1.434 . S
C1031 C1032 1.369 . S
C1031 C1033 1.419 . S
C1031 H1035 0.930 . S
C1032 C1031 1.369 . S
C1032 C1041 1.429 . S
C1033 C1031 1.419 . S
C1033 C1034 1.363 . S
C1033 H1036 0.929 . S
C1034 C1033 1.363 . S
C1034 C1040 1.428 . S
H1035 C1031 0.930 . S
H1036 C1033 0.929 . S
S1037 N1038 1.613 . S
S1037 N1039 1.610 . S
N1038 S1037 1.613 . S
N1038 C1041 1.350 . S
N1039 S1037 1.610 . S
N1039 C1040 1.351 . S
C1040 C1034 1.428 . S
C1040 N1039 1.351 . S
C1040 C1041 1.434 . S
C1041 C1032 1.429 . S
C1041 N1038 1.350 . S
C1041 C1040 1.434 . S
C1042 C1043 1.369 . S
C1042 C1044 1.419 . S
C1042 H1046 0.930 . S
C1043 C1042 1.369 . S
C1043 C1052 1.429 . S
C1044 C1042 1.419 . S
C1044 C1045 1.363 . S
C1044 H1047 0.929 . S
C1045 C1044 1.363 . S
C1045 C1051 1.428 . S
H1046 C1042 0.930 . S
H1047 C1044 0.929 . S
S1048 N1049 1.613 . S
S1048 N1050 1.610 . S
N1049 S1048 1.613 . S
N1049 C1052 1.350 . S
N1050 S1048 1.610 . S
N1050 C1051 1.351 . S
C1051 C1045 1.428 . S
C1051 N1050 1.351 . S
C1051 C1052 1.434 . S
C1052 C1043 1.429 . S
C1052 N1049 1.350 . S
C1052 C1051 1.434 . S
C1053 C1054 1.369 . S
C1053 C1055 1.419 . S
C1053 H1057 0.930 . S
C1054 C1053 1.369 . S
C1054 C1063 1.429 1_554 S
C1055 C1053 1.419 . S
C1055 C1056 1.363 1_554 S
C1055 H1058 0.929 . S
C1056 C1055 1.363 1_556 S
C1056 C1062 1.428 . S
H1057 C1053 0.930 . S
H1058 C1055 0.929 . S
S1059 N1060 1.613 . S
S1059 N1061 1.610 . S
N1060 S1059 1.613 . S
N1060 C1063 1.350 . S
N1061 S1059 1.610 . S
N1061 C1062 1.351 . S
C1062 C1056 1.428 . S
C1062 N1061 1.351 . S
C1062 C1063 1.434 . S
C1063 C1054 1.429 1_556 S
C1063 N1060 1.350 . S
C1063 C1062 1.434 . S
C1064 C1065 1.369 . S
C1064 C1066 1.419 1_565 S
C1064 H1068 0.930 . S
C1065 C1064 1.369 . S
C1065 C1074 1.429 . S
C1066 C1064 1.419 1_545 S
C1066 C1067 1.363 . S
C1066 H1069 0.929 . S
C1067 C1066 1.363 . S
C1067 C1073 1.455 . S
H1068 C1064 0.930 . S
H1069 C1066 0.929 . S
S1070 N1071 1.613 . S
S1070 N1072 1.610 . S
N1071 S1070 1.613 . S
N1071 C1074 1.350 . S
N1072 S1070 1.610 . S
N1072 C1073 1.349 1_565 S
C1073 C1067 1.455 . S
C1073 N1072 1.349 1_545 S
C1073 C1074 1.407 1_545 S
C1074 C1065 1.429 . S
C1074 N1071 1.350 . S
C1074 C1073 1.407 1_565 S
C1075 C1076 1.369 1_556 S
C1075 C1077 1.419 . S
C1075 H1079 0.930 . S
C1076 C1075 1.369 1_554 S
C1076 C1085 1.429 . S
C1077 C1075 1.419 . S
C1077 C1078 1.363 . S
C1077 H1080 0.929 . S
C1078 C1077 1.363 . S
C1078 C1084 1.428 1_556 S
H1079 C1075 0.930 . S
H1080 C1077 0.929 . S
S1081 N1082 1.613 . S
S1081 N1083 1.610 . S
N1082 S1081 1.613 . S
N1082 C1085 1.350 . S
N1083 S1081 1.610 . S
N1083 C1084 1.351 . S
C1084 C1078 1.428 1_554 S
C1084 N1083 1.351 . S
C1084 C1085 1.434 . S
C1085 C1076 1.429 . S
C1085 N1082 1.350 . S
C1085 C1084 1.434 . S
C1086 C1087 1.386 . S
C1086 C1088 1.403 1_545 S
C1086 H1090 0.929 1_545 S
C1087 C1086 1.386 . S
C1087 C1096 1.429 . S
C1088 C1086 1.403 1_565 S
C1088 C1089 1.363 . S
C1088 H1091 0.929 . S
C1089 C1088 1.363 . S
C1089 C1095 1.413 1_565 S
H1090 C1086 0.929 1_565 S
H1091 C1088 0.929 . S
S1092 N1093 1.613 . S
S1092 N1094 1.610 . S
N1093 S1092 1.613 . S
N1093 C1096 1.350 . S
N1094 S1092 1.610 . S
N1094 C1095 1.354 . S
C1095 C1089 1.413 1_545 S
C1095 N1094 1.354 . S
C1095 C1096 1.449 . S
C1096 C1087 1.429 . S
C1096 N1093 1.350 . S
C1096 C1095 1.449 . S
C1097 C1098 1.369 . S
C1097 C1099 1.419 . S
C1097 H1101 0.930 . S
C1098 C1097 1.369 . S
C1098 C1107 1.429 . S
C1099 C1097 1.419 . S
C1099 C1100 1.363 . S
C1099 H1102 0.929 . S
C1100 C1099 1.363 . S
C1100 C1106 1.428 . S
H1101 C1097 0.930 . S
H1102 C1099 0.929 . S
S1103 N1104 1.613 . S
S1103 N1105 1.610 . S
N1104 S1103 1.613 . S
N1104 C1107 1.350 . S
N1105 S1103 1.610 . S
N1105 C1106 1.351 . S
C1106 C1100 1.428 . S
C1106 N1105 1.351 . S
C1106 C1107 1.434 . S
C1107 C1098 1.429 . S
C1107 N1104 1.350 . S
C1107 C1106 1.434 . S
C1108 C1109 1.369 . S
C1108 C1110 1.419 1_545 S
C1108 H1112 0.930 . S
C1109 C1108 1.369 . S
C1109 C1118 1.429 . S
C1110 C1108 1.419 1_565 S
C1110 C1111 1.363 . S
C1110 H1113 0.929 . S
C1111 C1110 1.363 . S
C1111 C1117 1.428 . S
H1112 C1108 0.930 . S
H1113 C1110 0.929 . S
S1114 N1115 1.613 1_565 S
S1114 N1116 1.610 . S
N1115 S1114 1.613 1_545 S
N1115 C1118 1.350 . S
N1116 S1114 1.610 . S
N1116 C1117 1.351 . S
C1117 C1111 1.428 . S
C1117 N1116 1.351 . S
C1117 C1118 1.434 1_565 S
C1118 C1109 1.429 . S
C1118 N1115 1.350 . S
C1118 C1117 1.434 1_545 S
C1119 C1120 1.369 1_556 S
C1119 C1121 1.419 . S
C1119 H1123 0.930 . S
C1120 C1119 1.369 1_554 S
C1120 C1129 1.429 . S
C1121 C1119 1.419 . S
C1121 C1122 1.363 . S
C1121 H1124 0.929 . S
C1122 C1121 1.363 . S
C1122 C1128 1.428 1_556 S
H1123 C1119 0.930 . S
H1124 C1121 0.929 . S
S1125 N1126 1.613 . S
S1125 N1127 1.610 . S
N1126 S1125 1.613 . S
N1126 C1129 1.350 . S
N1127 S1125 1.610 . S
N1127 C1128 1.351 . S
C1128 C1122 1.428 1_554 S
C1128 N1127 1.351 . S
C1128 C1129 1.434 . S
C1129 C1120 1.429 . S
C1129 N1126 1.350 . S
C1129 C1128 1.434 . S
C1130 C1131 1.369 . S
C1130 C1132 1.419 1_545 S
C1130 H1134 0.932 . S
C1131 C1130 1.369 . S
C1131 C1140 1.429 . S
C1132 C1130 1.419 1_565 S
C1132 C1133 1.363 . S
C1132 H1135 0.929 . S
C1133 C1132 1.363 . S
C1133 C1139 1.437 . S
H1134 C1130 0.932 . S
H1135 C1132 0.929 . S
S1136 N1137 1.613 . S
S1136 N1138 1.610 . S
N1137 S1136 1.613 . S
N1137 C1140 1.350 . S
N1138 S1136 1.610 . S
N1138 C1139 1.350 1_545 S
C1139 C1133 1.437 . S
C1139 N1138 1.350 1_565 S
C1139 C1140 1.426 1_565 S
C1140 C1131 1.429 . S
C1140 N1137 1.350 . S
C1140 C1139 1.426 1_545 S
C1141 C1142 1.369 . S
C1141 C1143 1.419 . S
C1141 H1145 0.930 . S
C1142 C1141 1.369 . S
C1142 C1151 1.429 . S
C1143 C1141 1.419 . S
C1143 C1144 1.363 . S
C1143 H1146 0.929 . S
C1144 C1143 1.363 . S
C1144 C1150 1.428 . S
H1145 C1141 0.930 . S
H1146 C1143 0.929 . S
S1147 N1148 1.613 . S
S1147 N1149 1.610 . S
N1148 S1147 1.613 . S
N1148 C1151 1.350 . S
N1149 S1147 1.610 . S
N1149 C1150 1.351 . S
C1150 C1144 1.428 . S
C1150 N1149 1.351 . S
C1150 C1151 1.434 . S
C1151 C1142 1.429 . S
C1151 N1148 1.350 . S
C1151 C1150 1.434 . S
C449 C7 1.374 . S
C451 C301 1.377 . S
C460 C315 1.377 . S
C462 C21 1.375 . S
C471 C35 1.380 . S
C473 C329 1.378 . S
C482 C287 1.374 . S
C484 C49 1.377 . S
C493 C63 1.381 . S
C495 C273 1.380 . S
C504 C77 1.373 . S
C506 C231 1.375 . S
C515 C245 1.381 . S
C517 C91 1.378 . S
C526 C105 1.380 . S
C528 C259 1.378 . S
C537 C119 1.373 . S
C539 C413 1.376 . S
C548 C133 1.379 . S
C550 C427 1.376 . S
C559 C441 1.376 . S
C561 C147 1.374 . S
C570 C399 1.378 . S
C572 C161 1.380 . S
C581 C175 1.378 . S
C583 C385 1.375 . S
C592 C343 1.376 . S
C594 C189 1.375 . S
C603 C203 1.380 . S
C605 C357 1.377 . S
C614 C371 1.381 . S
C616 C217 1.378 . S
C625 C9 1.359 . S
C627 C129 1.442 . S
C636 C23 1.357 . S
C638 C367 1.442 1_655 S
C647 C157 1.442 . S
C649 C37 1.362 . S
C658 C51 1.357 . S
C660 C339 1.442 . S
C669 C65 1.360 . S
C671 C213 1.442 . S
C680 C395 1.443 . S
C682 C79 1.367 . S
C691 C185 1.443 . S
C693 C93 1.364 . S
C702 C423 1.442 1_655 S
C704 C107 1.364 . S
C713 C121 1.368 . S
C715 C17 1.443 . S
C724 C255 1.443 1_455 S
C726 C135 1.367 . S
C735 C45 1.442 . S
C737 C149 1.362 . S
C746 C163 1.364 . S
C748 C227 1.442 . S
C757 C101 1.442 . S
C759 C177 1.358 . S
C768 C283 1.443 . S
C770 C191 1.367 . S
C779 C73 1.442 . S
C781 C205 1.360 . S
C790 C219 1.358 . S
C792 C311 1.442 1_455 S
C801 C353 1.443 . S
C803 C233 1.367 . S
C812 C143 1.442 . S
C814 C247 1.359 . S
C823 C381 1.443 . S
C825 C261 1.367 . S
C834 C275 1.364 . S
C836 C115 1.442 1_455 S
C845 C437 1.442 . S
C847 C289 1.358 . S
C856 C171 1.442 1_455 S
C858 C303 1.359 . S
C867 C409 1.443 . S
C869 C317 1.367 . S
C878 C331 1.360 . S
C880 C199 1.442 . S
C889 C345 1.362 . S
C891 C241 1.442 . S
C900 C31 1.443 . S
C902 C359 1.367 . S
C911 C373 1.365 . S
C913 C269 1.443 . S
C922 C387 1.358 . S
C924 C3 1.442 1_655 S
C933 C401 1.360 . S
C935 C325 1.442 . S
C944 C59 1.443 1_655 S
C946 C415 1.367 . S
C955 C297 1.442 . S
C957 C429 1.358 . S
C966 C443 1.368 . S
C968 C87 1.443 . S
C977 C8 1.407 . S
C979 C64 1.412 . S
C988 C22 1.409 . S
C990 C78 1.412 . S
C999 C92 1.411 . S
C1001 C36 1.410 . S
C1010 C106 1.406 . S
C1012 C50 1.413 . S
C1021 C176 1.410 . S
C1023 C120 1.409 . S
C1032 C190 1.413 . S
C1034 C134 1.407 . S
C1043 C204 1.406 . S
C1045 C148 1.412 . S
C1054 C218 1.407 . S
C1056 C162 1.411 . S
C1065 C232 1.408 . S
C1067 C288 1.412 . S
C1076 C246 1.413 . S
C1078 C302 1.407 . S
C1087 C260 1.407 . S
C1089 C316 1.413 . S
C1098 C330 1.409 . S
C1100 C274 1.409 . S
C1109 C344 1.412 . S
C1111 C400 1.407 . S
C1120 C414 1.412 . S
C1122 C358 1.409 . S
C1131 C428 1.406 . S
C1133 C372 1.413 . S
C1142 C442 1.408 . S
C1144 C386 1.410 . S
