# Generated by pormake.
# Topology sma, (6)-cn, num edge types: 1
# Building blocks:
#     Node 0, Type 0, BuildingBlock: GEDQOX_clean_sbu_0, # of connection points: 6
#     Node 1, Type 0, BuildingBlock: GEDQOX_clean_sbu_0, # of connection points: 6
#     Node 2, Type 0, BuildingBlock: GEDQOX_clean_sbu_0, # of connection points: 6
#     Edge 3, Type (0, 0), BuildingBlock: TEMPAE_clean_linker_10, # of connection points: 2
#     Edge 4, Type (0, 0), BuildingBlock: TEMPAE_clean_linker_10, # of connection points: 2
#     Edge 5, Type (0, 0), BuildingBlock: TEMPAE_clean_linker_10, # of connection points: 2
#     Edge 6, Type (0, 0), BuildingBlock: TEMPAE_clean_linker_10, # of connection points: 2
#     Edge 7, Type (0, 0), BuildingBlock: TEMPAE_clean_linker_10, # of connection points: 2
#     Edge 8, Type (0, 0), BuildingBlock: TEMPAE_clean_linker_10, # of connection points: 2
#     Edge 9, Type (0, 0), BuildingBlock: TEMPAE_clean_linker_10, # of connection points: 2
#     Edge 10, Type (0, 0), BuildingBlock: TEMPAE_clean_linker_10, # of connection points: 2
#     Edge 11, Type (0, 0), BuildingBlock: TEMPAE_clean_linker_10, # of connection points: 2
# Relax obj value: 0.127
# Max RMSD: 0.260
# Mean RMSD: 0.204
data_MOF--net-sma--node1-GEDQOX_clean_sbu_0--edge1-TEMPAE_clean_linker_10
_symmetry_space_group_name_H-M    P1
_symmetry_Int_Tables_number       1
_symmetry_cell_setting            triclinic
loop_
_symmetry_equiv_pos_as_xyz
'x, y, z'
_cell_length_a     41.028833
_cell_length_b     31.260614
_cell_length_c     13.963867
_cell_angle_alpha  97.269996
_cell_angle_beta   90.471057
_cell_angle_gamma 98.388145
loop_
_atom_site_label
_atom_site_type_symbol
_atom_site_fract_x
_atom_site_fract_y
_atom_site_fract_z
_atom_type_partial_charge
Nd0 Nd 0.07128 0.61574 0.0224 0.0
Nd1 Nd 0.05181 0.52133 0.07141 0.0
C2 C 0.10031 0.69116 -0.02403 0.0
C3 C 0.12691 0.7229 0.02775 0.0
C4 C 0.15243 0.74399 -0.02328 0.0
C5 C 0.17928 0.77081 0.0264 0.0
C6 C 0.18106 0.77704 0.12813 0.0
C7 C 0.1552 0.75623 0.17878 0.0
C8 C 0.12854 0.72936 0.12924 0.0
C9 C 0.07643 0.60463 0.21256 0.0
C10 C 0.1246 0.54635 -0.00675 0.0
C11 C 1.02877 0.45523 0.16537 0.0
C12 C 0.99661 0.43108 0.18751 0.0
C13 C 0.99407 0.40856 0.26843 0.0
C14 C 0.96407 0.38439 0.28931 0.0
C15 C 0.9359 0.3822 0.22954 0.0
C16 C 0.93843 0.40553 0.14927 0.0
C17 C 0.96847 0.42986 0.12865 0.0
C18 C 0.04829 0.52829 0.88002 0.0
C19 C 0.99421 0.58543 0.04743 0.0
O20 O 0.10886 0.65383 0.94029 0.0
O21 O 0.07185 0.68653 0.01806 0.0
O22 O 0.06454 0.63695 0.18389 0.0
O23 O 0.08495 0.58001 0.14273 0.0
O24 O 0.11266 0.57906 0.96116 0.0
O25 O 0.10785 0.52217 0.05315 0.0
O26 O 1.03579 0.49549 0.20729 0.0
O27 O 0.03765 0.45043 0.07519 0.0
O28 O 0.05443 0.49285 0.91188 0.0
O29 O 0.04073 0.55561 0.9469 0.0
O30 O 1.00353 0.55313 0.0896 0.0
O31 O 1.01553 0.61061 0.00044 0.0
H32 H 0.15188 0.73908 0.89848 0.0
H33 H 0.19869 0.78658 -0.01479 0.0
H34 H 0.15601 0.75966 0.25696 0.0
H35 H 0.10955 0.71285 0.1706 0.0
H36 H 1.01545 0.40925 0.315 0.0
H37 H 0.96315 0.36657 0.35112 0.0
H38 H 0.91715 0.40512 0.10257 0.0
H39 H 0.96978 0.44747 0.06643 0.0
Nd40 Nd 0.52657 1.04403 0.60155 0.0
Nd41 Nd 0.59875 0.05851 0.53171 0.0
C42 C 0.46684 1.01831 0.66304 0.0
C43 C 0.43645 0.99571 0.61113 0.0
C44 C 0.4107 0.97436 0.66082 0.0
C45 C 0.38243 0.95151 0.61037 0.0
C46 C 0.37944 0.94971 0.50926 0.0
C47 C 0.40538 0.97125 0.46007 0.0
C48 C 0.43357 0.99386 0.5104 0.0
C49 C 0.53439 1.03525 0.40607 0.0
C50 C 0.57126 0.96555 0.59883 0.0
C51 C 0.65161 0.07753 0.4282 0.0
C52 C 0.67854 0.11347 0.41425 0.0
C53 C 0.6759 0.14026 0.34163 0.0
C54 C 0.70245 0.17158 0.32309 0.0
C55 C 0.7324 0.17662 0.37613 0.0
C56 C 0.73479 0.15027 0.44971 0.0
C57 C 0.7083 0.11907 0.4683 0.0
C58 C 0.59389 0.0673 0.72711 0.0
C59 C 0.55786 0.14307 0.58612 0.0
O60 O 0.49097 0.99536 0.66473 0.0
O61 O 0.47689 0.05805 0.64479 0.0
O62 O 0.51165 1.05445 0.44829 0.0
O63 O 0.55153 1.02113 0.46588 0.0
O64 O 0.54946 0.98658 0.64652 0.0
O65 O 0.59011 0.98387 0.53394 0.0
O66 O 0.62166 0.08058 0.39916 0.0
O67 O 0.6522 0.06004 0.50852 0.0
O68 O 0.61974 1.05563 0.68398 0.0
O69 O 0.57438 0.07882 0.66913 0.0
O70 O 0.58097 0.12651 0.53309 0.0
O71 O 0.5371 0.11821 0.63528 0.0
H72 H 0.41253 0.97517 0.73849 0.0
H73 H 0.36282 0.93554 0.65055 0.0
H74 H 0.4042 0.96995 0.38222 0.0
H75 H 0.45329 1.00957 0.47033 0.0
H76 H 0.65354 0.13646 0.29766 0.0
H77 H 0.69982 0.19094 0.2652 0.0
H78 H 0.75728 0.1536 0.4929 0.0
H79 H 0.7114 0.09881 0.52417 0.0
Nd80 Nd 0.51632 0.55491 0.71003 0.0
Nd81 Nd 0.59127 0.5676 0.77969 0.0
C82 C 0.45406 0.5307 0.65113 0.0
C83 C 0.421 0.5365 0.6871 0.0
C84 C 0.39315 0.52243 0.62622 0.0
C85 C 0.3614 0.52236 0.6626 0.0
C86 C 0.3568 0.53619 0.76097 0.0
C87 C 0.38491 0.55146 0.82113 0.0
C88 C 0.41665 0.55158 0.78459 0.0
C89 C 0.52984 0.57795 0.90365 0.0
C90 C 0.55842 0.65171 0.72775 0.0
C91 C 0.6471 0.56771 0.87539 0.0
C92 C 0.68253 0.583 0.89596 0.0
C93 C 0.69474 0.58552 -0.00906 0.0
C94 C 0.72872 0.59153 0.01072 0.0
C95 C 0.75127 0.5951 0.9357 0.0
C96 C 0.73891 0.59485 0.84113 0.0
C97 C 0.70489 0.58877 0.8214 0.0
C98 C 0.58157 0.57458 0.58984 0.0
C99 C 0.55364 0.46872 0.70893 0.0
O100 O 0.47264 0.56449 0.62306 0.0
O101 O 0.47048 0.50798 0.70147 0.0
O102 O 0.50685 0.59223 0.8587 0.0
O103 O 0.54303 0.55125 0.84839 0.0
O104 O 0.53462 0.62426 0.67826 0.0
O105 O 0.57911 0.63833 0.78782 0.0
O106 O 0.62512 0.59231 0.90745 0.0
O107 O 0.63874 0.54379 0.79241 0.0
O108 O 0.60737 0.59505 0.63966 0.0
O109 O 0.56439 0.54852 0.63753 0.0
O110 O 0.57752 0.49302 0.76368 0.0
O111 O 0.52995 0.48598 0.66995 0.0
H112 H 0.39594 0.51043 0.55093 0.0
H113 H 0.34042 0.51115 0.61364 0.0
H114 H 0.38245 0.56199 0.89729 0.0
H115 H 0.4378 0.56216 0.8332 0.0
H116 H 0.67794 0.58063 0.04941 0.0
H117 H 0.73722 0.59115 0.08419 0.0
H118 H 0.75555 0.59831 0.78187 0.0
H119 H 0.69609 0.58688 0.7474 0.0
C120 C 0.17807 0.51654 0.01216 0.0
C121 C 0.15776 0.53821 0.95982 0.0
C122 C 0.21066 0.51308 -0.01608 0.0
C123 C 0.22304 0.53138 0.90104 0.0
C124 C 0.20215 0.55188 0.84634 0.0
C125 C 0.16998 0.5551 0.87641 0.0
C126 C 0.23214 0.49097 0.04417 0.0
C127 C 0.214 0.57141 0.75694 0.0
C128 C 0.31477 0.5673 0.86944 0.0
C129 C 0.32289 0.5339 0.80079 0.0
C130 C 0.28275 0.56601 0.90548 0.0
C131 C 0.25803 0.53052 0.87211 0.0
C132 C 0.26623 0.49621 0.80465 0.0
C133 C 0.29846 0.49828 0.76999 0.0
C134 C 0.27511 0.60339 -0.02292 0.0
C135 C 0.24069 0.4578 0.76703 0.0
H136 H 0.16889 0.50354 0.07677 0.0
H137 H 0.1544 0.57145 0.83457 0.0
H138 H 0.24263 0.46504 -0.00191 0.0
H139 H 0.25314 0.51501 0.07661 0.0
H140 H 0.2184 0.47629 0.10313 0.0
H141 H 0.19422 0.5845 0.72004 0.0
H142 H 0.23467 0.5983 0.77662 0.0
H143 H 0.22346 0.54652 0.70508 0.0
H144 H 0.33326 0.59516 0.89328 0.0
H145 H 0.30454 0.47183 0.71857 0.0
H146 H 0.26322 0.59088 0.04114 0.0
H147 H 0.25745 0.6212 0.94361 0.0
H148 H 0.29753 0.6268 0.0016 0.0
H149 H 0.22854 0.4429 0.82802 0.0
H150 H 0.25147 0.43236 0.71999 0.0
H151 H 0.22126 0.46901 0.72487 0.0
C152 C 0.79316 0.19634 0.35165 0.0
C153 C 0.76142 0.2082 0.35328 0.0
C154 C 0.82082 0.22551 0.33067 0.0
C155 C 0.81685 0.26781 0.31076 0.0
C156 C 0.7849 0.28001 0.31189 0.0
C157 C 0.7576 0.25008 0.33288 0.0
C158 C 0.85436 0.21098 0.32964 0.0
C159 C 0.77958 0.3248 0.29151 0.0
C160 C 0.89346 0.35407 0.34471 0.0
C161 C 0.90434 0.35475 0.24975 0.0
C162 C 0.86467 0.32675 0.36529 0.0
C163 C 0.84626 0.29915 0.28922 0.0
C164 C 0.85676 0.30027 0.19302 0.0
C165 C 0.88557 0.32805 0.17446 0.0
C166 C 0.85427 0.32688 0.46877 0.0
C167 C 0.838 0.27127 0.1098 0.0
H168 H 0.79636 0.16387 0.36561 0.0
H169 H 0.73327 0.25973 0.3348 0.0
H170 H 0.86532 0.21322 0.25775 0.0
H171 H 0.87115 0.23286 0.38346 0.0
H172 H 0.85329 0.17697 0.34615 0.0
H173 H 0.75321 0.32919 0.29448 0.0
H174 H 0.7939 0.35003 0.34485 0.0
H175 H 0.78872 0.33054 0.21899 0.0
H176 H 0.9075 0.375 0.40323 0.0
H177 H 0.89393 0.32793 0.10102 0.0
H178 H 0.85493 0.29427 0.4915 0.0
H179 H 0.82851 0.33361 0.47546 0.0
H180 H 0.8704 0.35157 0.51911 0.0
H181 H 0.83835 0.23656 0.11863 0.0
H182 H 0.84854 0.27734 0.03888 0.0
H183 H 0.81183 0.27647 0.10927 0.0
C184 C 0.55361 0.90267 0.69059 0.0
C185 C 0.57344 0.92033 0.61931 0.0
C186 C 0.55353 0.85957 0.70912 0.0
C187 C 0.5739 0.83301 0.6556 0.0
C188 C 0.59465 0.85079 0.58518 0.0
C189 C 0.59415 0.89422 0.56773 0.0
C190 C 0.53087 0.84211 0.78449 0.0
C191 C 0.61689 0.82363 0.52698 0.0
C192 C 0.58695 0.72957 0.76119 0.0
C193 C 0.56312 0.69817 0.70937 0.0
C194 C 0.59152 0.77331 0.74252 0.0
C195 C 0.57182 0.78606 0.67029 0.0
C196 C 0.54823 0.75431 0.6165 0.0
C197 C 0.54419 0.71097 0.63662 0.0
C198 C 0.61704 0.80607 0.80121 0.0
C199 C 0.52666 0.76628 0.53886 0.0
H200 H 0.53759 0.92237 0.73162 0.0
H201 H 0.60963 0.90745 0.5128 0.0
H202 H 0.51241 0.81494 0.74983 0.0
H203 H 0.54511 0.82882 0.8387 0.0
H204 H 0.51757 0.86746 0.82269 0.0
H205 H 0.63295 0.84286 0.47919 0.0
H206 H 0.63267 0.80956 0.57589 0.0
H207 H 0.6018 0.79596 0.48167 0.0
H208 H 0.60194 0.72009 0.81688 0.0
H209 H 0.52599 0.68708 0.59493 0.0
H210 H 0.60474 0.83075 0.84555 0.0
H211 H 0.63389 0.82366 0.75267 0.0
H212 H 0.63189 0.79055 0.85003 0.0
H213 H 0.51054 0.78943 0.57167 0.0
H214 H 0.51085 0.73736 0.49975 0.0
H215 H 0.54206 0.78292 0.48571 0.0
C216 C 0.80286 0.62013 0.0393 0.0
C217 C 0.78726 0.5962 0.95522 0.0
C218 C 0.83641 0.61965 0.06023 0.0
C219 C 0.85493 0.59473 -0.00448 0.0
C220 C 0.8394 0.57071 0.91035 0.0
C221 C 0.80585 0.57167 0.89137 0.0
C222 C 0.85205 0.64582 0.15162 0.0
C223 C 0.85821 0.5437 0.83938 0.0
C224 C 0.94835 0.62252 -0.0066 0.0
C225 C 0.95865 0.58986 0.04175 0.0
C226 C 0.91475 0.62505 -0.02013 0.0
C227 C 0.89069 0.59423 0.01564 0.0
C228 C 0.90088 0.56191 0.0669 0.0
C229 C 0.9347 0.56011 0.07938 0.0
C230 C 0.905 0.66 0.92478 0.0
C231 C 0.87603 0.52849 0.10641 0.0
H232 H 0.78886 0.63949 0.08868 0.0
H233 H 0.79397 0.55238 0.8272 0.0
H234 H 0.86247 0.62406 0.1967 0.0
H235 H 0.87275 0.67024 0.13356 0.0
H236 H 0.83422 0.66311 0.19502 0.0
H237 H 0.84258 0.52696 0.77643 0.0
H238 H 0.87942 0.56475 0.8126 0.0
H239 H 0.86831 0.51873 0.87579 0.0
H240 H 0.96656 0.64576 0.96416 0.0
H241 H 0.94232 0.53474 0.11685 0.0
H242 H 0.88823 0.67908 -0.03189 0.0
H243 H 0.89136 0.64468 0.85722 0.0
H244 H 0.92665 0.68276 0.90569 0.0
H245 H 0.85885 0.545 0.15394 0.0
H246 H 0.88791 0.50667 0.14811 0.0
H247 H 0.86105 0.5082 0.04615 0.0
C248 C 0.3358 0.88378 0.47606 0.0
C249 C 0.34967 0.92513 0.45464 0.0
C250 C 0.3084 0.85975 0.42286 0.0
C251 C 0.29437 0.8775 0.34653 0.0
C252 C 0.30807 0.91936 0.32511 0.0
C253 C 0.33551 0.9426 0.37925 0.0
C254 C 0.29463 0.81515 0.44778 0.0
C255 C 0.29375 0.93961 0.24482 0.0
C256 C 0.24224 0.80021 0.15186 0.0
C257 C 0.21011 0.80402 0.18185 0.0
C258 C 0.26986 0.82394 0.20458 0.0
C259 C 0.2653 0.85236 0.28924 0.0
C260 C 0.23293 0.85674 0.31923 0.0
C261 C 0.20578 0.83253 0.26533 0.0
C262 C 0.30394 0.81818 0.17034 0.0
C263 C 0.22695 0.88687 0.40861 0.0
H264 H 0.34681 0.86978 0.53329 0.0
H265 H 0.34577 0.97475 0.36297 0.0
H266 H 0.26833 0.81418 0.46643 0.0
H267 H 0.29575 0.79026 0.38425 0.0
H268 H 0.30826 0.80604 0.50938 0.0
H269 H 0.30719 0.97251 0.23747 0.0
H270 H 0.29455 0.91839 0.17516 0.0
H271 H 0.26749 0.94242 0.2584 0.0
H272 H 0.24584 0.77783 0.08827 0.0
H273 H 0.18105 0.83607 0.28842 0.0
H274 H 0.3178 0.80581 0.22691 0.0
H275 H 0.3178 0.85008 0.1576 0.0
H276 H 0.30332 0.79514 0.10267 0.0
H277 H 0.23858 0.87694 0.47268 0.0
H278 H 0.20029 0.8869 0.42174 0.0
H279 H 0.23854 0.92067 0.40179 0.0
C280 C 0.57725 0.40123 0.73499 0.0
C281 C 0.55435 0.421 0.6873 0.0
C282 C 0.57835 0.35624 0.71521 0.0
C283 C 0.55616 0.33024 0.6455 0.0
C284 C 0.53322 0.35002 0.5963 0.0
C285 C 0.53249 0.39506 0.61803 0.0
C286 C 0.60299 0.33642 0.76997 0.0
C287 C 0.50925 0.32352 0.52117 0.0
C288 C 0.5768 0.21848 0.54332 0.0
C289 C 0.55694 0.19085 0.59821 0.0
C290 C 0.57649 0.26385 0.55681 0.0
C291 C 0.55603 0.28207 0.62734 0.0
C292 C 0.53578 0.25429 0.68234 0.0
C293 C 0.53638 0.20916 0.66687 0.0
C294 C 0.59824 0.29232 0.49614 0.0
C295 C 0.51377 0.27231 0.75871 0.0
H296 H 0.59426 0.42084 0.78866 0.0
H297 H 0.51482 0.40995 0.58026 0.0
H298 H 0.58984 0.31179 0.81225 0.0
H299 H 0.61878 0.3193 0.71872 0.0
H300 H 0.61906 0.36122 0.82023 0.0
H301 H 0.5228 0.30585 0.46429 0.0
H302 H 0.49272 0.29864 0.55489 0.0
H303 H 0.49387 0.34404 0.48656 0.0
H304 H 0.59267 0.20471 0.48984 0.0
H305 H 0.52095 0.18826 0.70994 0.0
H306 H 0.61627 0.31578 0.54333 0.0
H307 H 0.58314 0.31168 0.45731 0.0
H308 H 0.61196 0.27306 0.44239 0.0
H309 H 0.52888 0.29533 0.81459 0.0
H310 H 0.49923 0.2463 0.79457 0.0
H311 H 0.49645 0.29086 0.7261 0.0
C312 C 0.0584 0.58011 0.76122 0.0
C313 C 0.05157 0.53694 0.78023 0.0
C314 C 0.06295 0.58961 0.66698 0.0
C315 C 0.05906 0.55501 0.59021 0.0
C316 C 0.05132 0.51127 0.60879 0.0
C317 C 0.04833 0.50264 0.70454 0.0
C318 C 0.0722 0.63657 0.64981 0.0
C319 C 0.04584 0.47388 0.52774 0.0
C320 C 0.04121 0.59095 0.3504 0.0
C321 C 0.07199 0.59174 0.30829 0.0
C322 C 1.03616 0.5767 0.44067 0.0
C323 C 0.06303 0.56505 0.49055 0.0
C324 C 0.09424 0.56596 0.44787 0.0
C325 C 0.09814 0.57844 0.35554 0.0
C326 C 1.00227 0.57443 0.4829 0.0
C327 C 0.12365 0.55522 0.50087 0.0
H328 H 0.06088 0.60649 0.82036 0.0
H329 H 0.04279 0.46928 0.72012 0.0
H330 H 0.09509 0.64026 0.6079 0.0
H331 H 0.05247 0.64651 0.60654 0.0
H332 H 0.07618 0.65921 0.71831 0.0
H333 H 0.03883 0.44192 0.55461 0.0
H334 H 1.02609 0.47891 0.47736 0.0
H335 H 0.06854 0.47264 0.48555 0.0
H336 H 1.02097 0.60047 0.31165 0.0
H337 H 0.12181 0.57901 0.32132 0.0
H338 H 1.00277 0.59901 0.54776 0.0
H339 H 0.99458 0.54191 0.50626 0.0
H340 H 0.98345 0.58051 0.43058 0.0
H341 H 0.12895 0.57821 0.5684 0.0
H342 H 0.14609 0.55716 0.45671 0.0
H343 H 0.11824 0.52193 0.52191 0.0
C344 C 0.54632 0.08161 0.277 0.0
C345 C 0.54485 1.0408 0.30883 0.0
C346 C 0.55714 0.08779 0.18452 0.0
C347 C 0.56517 1.05174 0.12225 0.0
C348 C 0.56376 1.01042 0.15465 0.0
C349 C 0.55424 1.00569 0.24904 0.0
C350 C 0.55962 0.13264 0.15317 0.0
C351 C 0.57119 0.97104 0.08875 0.0
C352 C 0.55427 1.05698 0.85642 0.0
C353 C 0.58701 0.06457 0.82843 0.0
C354 C 0.54686 1.05197 0.95199 0.0
C355 C 0.57291 1.05657 0.02119 0.0
C356 C 0.60607 0.06551 -0.00631 0.0
C357 C 0.61279 0.06852 0.89648 0.0
C358 C 0.51123 1.04108 -0.02153 0.0
C359 C 0.63426 0.07228 0.0669 0.0
H360 H 0.53962 0.10881 0.32513 0.0
H361 H 0.55312 0.9743 0.27524 0.0
H362 H 0.58425 0.14198 0.12331 0.0
H363 H 0.54102 0.13246 0.09498 0.0
H364 H 0.55559 0.15788 0.21363 0.0
H365 H 0.56923 0.94139 0.12587 0.0
H366 H 0.55375 0.96439 0.02562 0.0
H367 H 0.59638 0.9774 0.06054 0.0
H368 H 0.53446 1.05375 0.80298 0.0
H369 H 0.63808 0.07472 0.87395 0.0
H370 H 0.50432 0.06748 0.03163 0.0
H371 H 0.50775 1.0107 0.013 0.0
H372 H 0.49413 1.03659 0.91468 0.0
H373 H 0.63102 0.09922 0.12422 0.0
H374 H 0.65856 0.08019 0.03377 0.0
H375 H 0.63439 1.04254 0.10249 0.0
C376 C 0.54464 0.55872 0.44521 0.0
C377 C 0.57135 0.58487 0.49605 0.0
C378 C 0.53595 0.56609 0.35252 0.0
C379 C 0.55441 0.60059 0.31083 0.0
C380 C 0.57964 0.62932 0.36521 0.0
C381 C 0.58805 0.62085 0.45751 0.0
C382 C 0.50872 0.5349 0.29665 0.0
C383 C 0.59919 0.66709 0.32374 0.0
C384 C 0.563 0.56897 0.0454 0.0
C385 C 0.53826 0.58854 0.00665 0.0
C386 C 0.56992 0.57515 0.14438 0.0
C387 C 0.55124 0.60111 0.20591 0.0
C388 C 0.52735 0.62288 0.16687 0.0
C389 C 0.52105 0.61625 0.06685 0.0
C390 C 0.59592 0.55176 0.18333 0.0
C391 C 0.50735 0.65121 0.23078 0.0
H392 H 0.53135 0.53141 0.47631 0.0
H393 H 0.60817 0.64177 0.49845 0.0
H394 H 0.49425 0.51334 0.34344 0.0
H395 H 0.4917 0.55304 0.26158 0.0
H396 H 0.51956 0.51411 0.23869 0.0
H397 H 0.61253 0.69136 0.38113 0.0
H398 H 0.61761 0.65475 0.27381 0.0
H399 H 0.58295 0.68371 0.28168 0.0
H400 H 0.57629 0.54751 -0.00137 0.0
H401 H 0.50204 0.63158 0.0363 0.0
H402 H 0.58406 0.52637 0.2259 0.0
H403 H 0.61357 0.57491 0.23234 0.0
H404 H 0.60999 0.53584 0.12491 0.0
H405 H 0.48832 0.6302 0.26657 0.0
H406 H 0.49473 0.67227 0.18894 0.0
H407 H 0.52314 0.67217 0.28844 0.0
loop_
_geom_bond_atom_site_label_1
_geom_bond_atom_site_label_2
_geom_bond_distance
_geom_bond_site_symmetry_2
_ccdc_geom_bond_type
Nd0 C2 2.836 . S
Nd0 O20 2.500 . S
Nd0 O21 2.492 . S
Nd0 O22 2.487 . S
Nd0 O23 2.682 . S
Nd0 O24 2.410 . S
Nd0 O29 2.414 . S
Nd0 O31 2.424 1_455 S
Nd1 C11 2.836 1_455 S
Nd1 O23 2.414 . S
Nd1 O25 2.424 . S
Nd1 O26 2.500 1_455 S
Nd1 O27 2.492 1_455 S
Nd1 O28 2.487 1_554 S
Nd1 O29 2.682 . S
Nd1 O30 2.410 1_455 S
C2 Nd0 2.836 . S
C2 C3 1.498 . S
C2 O20 1.258 . S
C2 O21 1.239 . S
C3 C2 1.498 . S
C3 C4 1.366 . S
C3 C8 1.407 . S
C4 C3 1.366 . S
C4 C5 1.392 . S
C4 H32 0.930 . S
C5 C4 1.392 . S
C5 C6 1.398 . S
C5 H33 0.929 . S
C6 C5 1.398 . S
C6 C7 1.352 . S
C7 C6 1.352 . S
C7 C8 1.384 . S
C7 H34 0.930 . S
C8 C3 1.407 . S
C8 C7 1.384 . S
C8 H35 0.929 . S
C9 O22 1.241 . S
C9 O23 1.273 . S
C10 O24 1.251 . S
C10 O25 1.268 . S
C11 Nd1 2.836 1_655 S
C11 C12 1.498 . S
C11 O26 1.258 . S
C11 O27 1.239 . S
C12 C11 1.498 . S
C12 C13 1.366 . S
C12 C17 1.407 . S
C13 C12 1.366 . S
C13 C14 1.392 . S
C13 H36 0.930 . S
C14 C13 1.392 . S
C14 C15 1.398 . S
C14 H37 0.929 . S
C15 C14 1.398 . S
C15 C16 1.352 . S
C16 C15 1.352 . S
C16 C17 1.384 . S
C16 H38 0.930 1_554 S
C17 C12 1.407 . S
C17 C16 1.384 . S
C17 H39 0.929 1_554 S
C18 O28 1.241 . S
C18 O29 1.273 1_556 S
C19 O30 1.251 . S
C19 O31 1.268 . S
O20 Nd0 2.500 . S
O20 C2 1.258 . S
O21 Nd0 2.492 . S
O21 C2 1.239 . S
O22 Nd0 2.487 . S
O22 C9 1.241 . S
O23 Nd0 2.682 . S
O23 Nd1 2.414 . S
O23 C9 1.273 . S
O24 Nd0 2.410 . S
O24 C10 1.251 . S
O25 Nd1 2.424 . S
O25 C10 1.268 . S
O26 Nd1 2.500 1_655 S
O26 C11 1.258 . S
O27 Nd1 2.492 1_655 S
O27 C11 1.239 . S
O28 Nd1 2.487 1_556 S
O28 C18 1.241 . S
O29 Nd0 2.414 . S
O29 Nd1 2.682 . S
O29 C18 1.273 1_554 S
O30 Nd1 2.410 1_655 S
O30 C19 1.251 . S
O31 Nd0 2.424 1_655 S
O31 C19 1.268 . S
H32 C4 0.930 . S
H33 C5 0.929 . S
H34 C7 0.930 . S
H35 C8 0.929 . S
H36 C13 0.930 . S
H37 C14 0.929 . S
H38 C16 0.930 1_556 S
H39 C17 0.929 1_556 S
Nd40 C42 2.837 . S
Nd40 O60 2.501 . S
Nd40 O61 2.493 . S
Nd40 O62 2.487 . S
Nd40 O63 2.682 1_565 S
Nd40 O64 2.411 . S
Nd40 O69 2.414 1_565 S
Nd40 O71 2.423 1_565 S
Nd41 C51 2.836 . S
Nd41 O63 2.414 . S
Nd41 O65 2.424 1_545 S
Nd41 O66 2.500 . S
Nd41 O67 2.492 . S
Nd41 O68 2.487 . S
Nd41 O69 2.682 . S
Nd41 O70 2.410 . S
C42 Nd40 2.837 . S
C42 C43 1.498 . S
C42 O60 1.258 . S
C42 O61 1.239 . S
C43 C42 1.498 . S
C43 C44 1.366 . S
C43 C48 1.407 . S
C44 C43 1.366 . S
C44 C45 1.392 . S
C44 H72 0.930 . S
C45 C44 1.392 . S
C45 C46 1.398 . S
C45 H73 0.929 . S
C46 C45 1.398 . S
C46 C47 1.352 . S
C47 C46 1.352 . S
C47 C48 1.384 . S
C47 H74 0.930 . S
C48 C43 1.407 . S
C48 C47 1.384 . S
C48 H75 0.929 . S
C49 O62 1.241 1_545 S
C49 O63 1.273 . S
C50 O64 1.251 . S
C50 O65 1.268 . S
C51 Nd41 2.836 . S
C51 C52 1.498 . S
C51 O66 1.258 . S
C51 O67 1.239 . S
C52 C51 1.498 . S
C52 C53 1.366 . S
C52 C57 1.407 . S
C53 C52 1.366 . S
C53 C54 1.392 . S
C53 H76 0.930 . S
C54 C53 1.392 . S
C54 C55 1.398 . S
C54 H77 0.929 . S
C55 C54 1.398 . S
C55 C56 1.352 . S
C56 C55 1.352 . S
C56 C57 1.384 . S
C56 H78 0.930 . S
C57 C52 1.407 . S
C57 C56 1.384 . S
C57 H79 0.929 . S
C58 O68 1.241 . S
C58 O69 1.273 . S
C59 O70 1.251 . S
C59 O71 1.268 . S
O60 Nd40 2.501 . S
O60 C42 1.258 . S
O61 Nd40 2.493 . S
O61 C42 1.239 . S
O62 Nd40 2.487 . S
O62 C49 1.241 1_565 S
O63 Nd40 2.682 1_545 S
O63 Nd41 2.414 . S
O63 C49 1.273 . S
O64 Nd40 2.411 . S
O64 C50 1.251 . S
O65 Nd41 2.424 1_565 S
O65 C50 1.268 . S
O66 Nd41 2.500 . S
O66 C51 1.258 . S
O67 Nd41 2.492 . S
O67 C51 1.239 . S
O68 Nd41 2.487 . S
O68 C58 1.241 . S
O69 Nd40 2.414 1_545 S
O69 Nd41 2.682 . S
O69 C58 1.273 . S
O70 Nd41 2.410 . S
O70 C59 1.251 . S
O71 Nd40 2.423 1_545 S
O71 C59 1.268 . S
H72 C44 0.930 . S
H73 C45 0.929 . S
H74 C47 0.930 . S
H75 C48 0.929 . S
H76 C53 0.930 . S
H77 C54 0.929 . S
H78 C56 0.930 . S
H79 C57 0.929 . S
Nd80 C82 2.836 . S
Nd80 O100 2.500 . S
Nd80 O101 2.492 . S
Nd80 O102 2.487 1_556 S
Nd80 O103 2.682 . S
Nd80 O104 2.410 . S
Nd80 O109 2.414 . S
Nd80 O111 2.424 . S
Nd81 C91 2.836 . S
Nd81 O103 2.414 . S
Nd81 O105 2.424 . S
Nd81 O106 2.500 . S
Nd81 O107 2.492 . S
Nd81 O108 2.487 . S
Nd81 O109 2.682 . S
Nd81 O110 2.410 . S
C82 Nd80 2.836 . S
C82 C83 1.498 . S
C82 O100 1.258 . S
C82 O101 1.239 . S
C83 C82 1.498 . S
C83 C84 1.366 . S
C83 C88 1.407 . S
C84 C83 1.366 . S
C84 C85 1.392 . S
C84 H112 0.930 . S
C85 C84 1.392 . S
C85 C86 1.398 . S
C85 H113 0.929 . S
C86 C85 1.398 . S
C86 C87 1.352 . S
C87 C86 1.352 . S
C87 C88 1.384 . S
C87 H114 0.930 . S
C88 C83 1.407 . S
C88 C87 1.384 . S
C88 H115 0.929 . S
C89 O102 1.241 . S
C89 O103 1.273 1_554 S
C90 O104 1.251 . S
C90 O105 1.268 . S
C91 Nd81 2.836 . S
C91 C92 1.498 . S
C91 O106 1.258 . S
C91 O107 1.239 . S
C92 C91 1.498 . S
C92 C93 1.366 . S
C92 C97 1.407 . S
C93 C92 1.366 . S
C93 C94 1.392 . S
C93 H116 0.930 . S
C94 C93 1.392 . S
C94 C95 1.398 . S
C94 H117 0.929 . S
C95 C94 1.398 . S
C95 C96 1.352 . S
C96 C95 1.352 . S
C96 C97 1.384 . S
C96 H118 0.930 . S
C97 C92 1.407 . S
C97 C96 1.384 . S
C97 H119 0.929 . S
C98 O108 1.241 . S
C98 O109 1.273 . S
C99 O110 1.251 . S
C99 O111 1.268 . S
O100 Nd80 2.500 . S
O100 C82 1.258 . S
O101 Nd80 2.492 . S
O101 C82 1.239 . S
O102 Nd80 2.487 1_554 S
O102 C89 1.241 . S
O103 Nd80 2.682 . S
O103 Nd81 2.414 . S
O103 C89 1.273 1_556 S
O104 Nd80 2.410 . S
O104 C90 1.251 . S
O105 Nd81 2.424 . S
O105 C90 1.268 . S
O106 Nd81 2.500 . S
O106 C91 1.258 . S
O107 Nd81 2.492 . S
O107 C91 1.239 . S
O108 Nd81 2.487 . S
O108 C98 1.241 . S
O109 Nd80 2.414 . S
O109 Nd81 2.682 . S
O109 C98 1.273 . S
O110 Nd81 2.410 . S
O110 C99 1.251 . S
O111 Nd80 2.424 . S
O111 C99 1.268 . S
H112 C84 0.930 . S
H113 C85 0.929 . S
H114 C87 0.930 . S
H115 C88 0.929 . S
H116 C93 0.930 . S
H117 C94 0.929 . S
H118 C96 0.930 . S
H119 C97 0.929 . S
C120 C121 1.391 . S
C120 C122 1.394 . S
C120 H136 0.931 . S
C121 C120 1.391 . S
C121 C125 1.376 1_554 S
C122 C120 1.394 . S
C122 C123 1.369 1_554 S
C122 C126 1.531 . S
C123 C122 1.369 1_556 S
C123 C124 1.410 . S
C123 C131 1.503 . S
C124 C123 1.410 . S
C124 C125 1.392 . S
C124 C127 1.511 . S
C125 C121 1.376 1_556 S
C125 C124 1.392 . S
C125 H137 0.929 . S
C126 C122 1.531 . S
C126 H138 0.960 . S
C126 H139 0.962 . S
C126 H140 0.960 . S
C127 C124 1.511 . S
C127 H141 0.961 . S
C127 H142 0.961 . S
C127 H143 0.961 . S
C128 C129 1.370 . S
C128 C130 1.363 . S
C128 H144 0.931 . S
C129 C128 1.370 . S
C129 C133 1.408 . S
C130 C128 1.363 . S
C130 C131 1.370 . S
C130 C134 1.524 1_556 S
C131 C123 1.503 . S
C131 C130 1.370 . S
C131 C132 1.403 . S
C132 C131 1.403 . S
C132 C133 1.404 . S
C132 C135 1.539 . S
C133 C129 1.408 . S
C133 C132 1.404 . S
C133 H145 0.930 . S
C134 C130 1.524 1_554 S
C134 H146 0.956 . S
C134 H147 0.961 . S
C134 H148 0.961 . S
C135 C132 1.539 . S
C135 H149 0.958 . S
C135 H150 0.961 . S
C135 H151 0.960 . S
H136 C120 0.931 . S
H137 C125 0.929 . S
H138 C126 0.960 . S
H139 C126 0.962 . S
H140 C126 0.960 . S
H141 C127 0.961 . S
H142 C127 0.961 . S
H143 C127 0.961 . S
H144 C128 0.931 . S
H145 C133 0.930 . S
H146 C134 0.956 . S
H147 C134 0.961 . S
H148 C134 0.961 . S
H149 C135 0.958 . S
H150 C135 0.961 . S
H151 C135 0.960 . S
C152 C153 1.391 . S
C152 C154 1.394 . S
C152 H168 0.931 . S
C153 C152 1.391 . S
C153 C157 1.376 . S
C154 C152 1.394 . S
C154 C155 1.369 . S
C154 C158 1.531 . S
C155 C154 1.369 . S
C155 C156 1.410 . S
C155 C163 1.503 . S
C156 C155 1.410 . S
C156 C157 1.392 . S
C156 C159 1.511 . S
C157 C153 1.376 . S
C157 C156 1.392 . S
C157 H169 0.929 . S
C158 C154 1.531 . S
C158 H170 0.960 . S
C158 H171 0.962 . S
C158 H172 0.960 . S
C159 C156 1.511 . S
C159 H173 0.961 . S
C159 H174 0.961 . S
C159 H175 0.961 . S
C160 C161 1.370 . S
C160 C162 1.363 . S
C160 H176 0.931 . S
C161 C160 1.370 . S
C161 C165 1.408 . S
C162 C160 1.363 . S
C162 C163 1.370 . S
C162 C166 1.524 . S
C163 C155 1.503 . S
C163 C162 1.370 . S
C163 C164 1.403 . S
C164 C163 1.403 . S
C164 C165 1.404 . S
C164 C167 1.539 . S
C165 C161 1.408 . S
C165 C164 1.404 . S
C165 H177 0.930 . S
C166 C162 1.524 . S
C166 H178 0.956 . S
C166 H179 0.961 . S
C166 H180 0.961 . S
C167 C164 1.539 . S
C167 H181 0.958 . S
C167 H182 0.961 . S
C167 H183 0.960 . S
H168 C152 0.931 . S
H169 C157 0.929 . S
H170 C158 0.960 . S
H171 C158 0.962 . S
H172 C158 0.960 . S
H173 C159 0.961 . S
H174 C159 0.961 . S
H175 C159 0.961 . S
H176 C160 0.931 . S
H177 C165 0.930 . S
H178 C166 0.956 . S
H179 C166 0.961 . S
H180 C166 0.961 . S
H181 C167 0.958 . S
H182 C167 0.961 . S
H183 C167 0.960 . S
C184 C185 1.391 . S
C184 C186 1.394 . S
C184 H200 0.931 . S
C185 C184 1.391 . S
C185 C189 1.376 . S
C186 C184 1.394 . S
C186 C187 1.369 . S
C186 C190 1.531 . S
C187 C186 1.369 . S
C187 C188 1.410 . S
C187 C195 1.503 . S
C188 C187 1.410 . S
C188 C189 1.392 . S
C188 C191 1.511 . S
C189 C185 1.376 . S
C189 C188 1.392 . S
C189 H201 0.929 . S
C190 C186 1.531 . S
C190 H202 0.960 . S
C190 H203 0.962 . S
C190 H204 0.960 . S
C191 C188 1.511 . S
C191 H205 0.961 . S
C191 H206 0.961 . S
C191 H207 0.961 . S
C192 C193 1.370 . S
C192 C194 1.363 . S
C192 H208 0.931 . S
C193 C192 1.370 . S
C193 C197 1.408 . S
C194 C192 1.363 . S
C194 C195 1.370 . S
C194 C198 1.524 . S
C195 C187 1.503 . S
C195 C194 1.370 . S
C195 C196 1.403 . S
C196 C195 1.403 . S
C196 C197 1.404 . S
C196 C199 1.539 . S
C197 C193 1.408 . S
C197 C196 1.404 . S
C197 H209 0.930 . S
C198 C194 1.524 . S
C198 H210 0.956 . S
C198 H211 0.961 . S
C198 H212 0.961 . S
C199 C196 1.539 . S
C199 H213 0.958 . S
C199 H214 0.961 . S
C199 H215 0.960 . S
H200 C184 0.931 . S
H201 C189 0.929 . S
H202 C190 0.960 . S
H203 C190 0.962 . S
H204 C190 0.960 . S
H205 C191 0.961 . S
H206 C191 0.961 . S
H207 C191 0.961 . S
H208 C192 0.931 . S
H209 C197 0.930 . S
H210 C198 0.956 . S
H211 C198 0.961 . S
H212 C198 0.961 . S
H213 C199 0.958 . S
H214 C199 0.961 . S
H215 C199 0.960 . S
C216 C217 1.391 . S
C216 C218 1.394 1_556 S
C216 H232 0.931 1_556 S
C217 C216 1.391 . S
C217 C221 1.376 . S
C218 C216 1.394 1_554 S
C218 C219 1.369 . S
C218 C222 1.531 . S
C219 C218 1.369 . S
C219 C220 1.410 1_554 S
C219 C227 1.503 . S
C220 C219 1.410 1_556 S
C220 C221 1.392 . S
C220 C223 1.511 . S
C221 C217 1.376 . S
C221 C220 1.392 . S
C221 H233 0.929 . S
C222 C218 1.531 . S
C222 H234 0.960 . S
C222 H235 0.962 . S
C222 H236 0.960 . S
C223 C220 1.511 . S
C223 H237 0.961 . S
C223 H238 0.961 . S
C223 H239 0.961 . S
C224 C225 1.370 . S
C224 C226 1.363 . S
C224 H240 0.931 . S
C225 C224 1.370 . S
C225 C229 1.408 . S
C226 C224 1.363 . S
C226 C227 1.370 . S
C226 C230 1.524 1_554 S
C227 C219 1.503 . S
C227 C226 1.370 . S
C227 C228 1.403 . S
C228 C227 1.403 . S
C228 C229 1.404 . S
C228 C231 1.539 . S
C229 C225 1.408 . S
C229 C228 1.404 . S
C229 H241 0.930 . S
C230 C226 1.524 1_556 S
C230 H242 0.956 . S
C230 H243 0.961 . S
C230 H244 0.961 . S
C231 C228 1.539 . S
C231 H245 0.958 . S
C231 H246 0.961 . S
C231 H247 0.960 . S
H232 C216 0.931 1_554 S
H233 C221 0.929 . S
H234 C222 0.960 . S
H235 C222 0.962 . S
H236 C222 0.960 . S
H237 C223 0.961 . S
H238 C223 0.961 . S
H239 C223 0.961 . S
H240 C224 0.931 . S
H241 C229 0.930 . S
H242 C230 0.956 . S
H243 C230 0.961 . S
H244 C230 0.961 . S
H245 C231 0.958 . S
H246 C231 0.961 . S
H247 C231 0.960 . S
C248 C249 1.391 . S
C248 C250 1.394 . S
C248 H264 0.931 . S
C249 C248 1.391 . S
C249 C253 1.376 . S
C250 C248 1.394 . S
C250 C251 1.369 . S
C250 C254 1.531 . S
C251 C250 1.369 . S
C251 C252 1.410 . S
C251 C259 1.503 . S
C252 C251 1.410 . S
C252 C253 1.392 . S
C252 C255 1.511 . S
C253 C249 1.376 . S
C253 C252 1.392 . S
C253 H265 0.929 . S
C254 C250 1.531 . S
C254 H266 0.960 . S
C254 H267 0.962 . S
C254 H268 0.960 . S
C255 C252 1.511 . S
C255 H269 0.961 . S
C255 H270 0.961 . S
C255 H271 0.961 . S
C256 C257 1.370 . S
C256 C258 1.363 . S
C256 H272 0.931 . S
C257 C256 1.370 . S
C257 C261 1.408 . S
C258 C256 1.363 . S
C258 C259 1.370 . S
C258 C262 1.524 . S
C259 C251 1.503 . S
C259 C258 1.370 . S
C259 C260 1.403 . S
C260 C259 1.403 . S
C260 C261 1.404 . S
C260 C263 1.539 . S
C261 C257 1.408 . S
C261 C260 1.404 . S
C261 H273 0.930 . S
C262 C258 1.524 . S
C262 H274 0.956 . S
C262 H275 0.961 . S
C262 H276 0.961 . S
C263 C260 1.539 . S
C263 H277 0.958 . S
C263 H278 0.961 . S
C263 H279 0.960 . S
H264 C248 0.931 . S
H265 C253 0.929 . S
H266 C254 0.960 . S
H267 C254 0.962 . S
H268 C254 0.960 . S
H269 C255 0.961 . S
H270 C255 0.961 . S
H271 C255 0.961 . S
H272 C256 0.931 . S
H273 C261 0.930 . S
H274 C262 0.956 . S
H275 C262 0.961 . S
H276 C262 0.961 . S
H277 C263 0.958 . S
H278 C263 0.961 . S
H279 C263 0.960 . S
C280 C281 1.391 . S
C280 C282 1.394 . S
C280 H296 0.931 . S
C281 C280 1.391 . S
C281 C285 1.376 . S
C282 C280 1.394 . S
C282 C283 1.369 . S
C282 C286 1.531 . S
C283 C282 1.369 . S
C283 C284 1.410 . S
C283 C291 1.503 . S
C284 C283 1.410 . S
C284 C285 1.392 . S
C284 C287 1.511 . S
C285 C281 1.376 . S
C285 C284 1.392 . S
C285 H297 0.929 . S
C286 C282 1.531 . S
C286 H298 0.960 . S
C286 H299 0.962 . S
C286 H300 0.960 . S
C287 C284 1.511 . S
C287 H301 0.961 . S
C287 H302 0.961 . S
C287 H303 0.961 . S
C288 C289 1.370 . S
C288 C290 1.363 . S
C288 H304 0.931 . S
C289 C288 1.370 . S
C289 C293 1.408 . S
C290 C288 1.363 . S
C290 C291 1.370 . S
C290 C294 1.524 . S
C291 C283 1.503 . S
C291 C290 1.370 . S
C291 C292 1.403 . S
C292 C291 1.403 . S
C292 C293 1.404 . S
C292 C295 1.539 . S
C293 C289 1.408 . S
C293 C292 1.404 . S
C293 H305 0.930 . S
C294 C290 1.524 . S
C294 H306 0.956 . S
C294 H307 0.961 . S
C294 H308 0.961 . S
C295 C292 1.539 . S
C295 H309 0.958 . S
C295 H310 0.961 . S
C295 H311 0.960 . S
H296 C280 0.931 . S
H297 C285 0.929 . S
H298 C286 0.960 . S
H299 C286 0.962 . S
H300 C286 0.960 . S
H301 C287 0.961 . S
H302 C287 0.961 . S
H303 C287 0.961 . S
H304 C288 0.931 . S
H305 C293 0.930 . S
H306 C294 0.956 . S
H307 C294 0.961 . S
H308 C294 0.961 . S
H309 C295 0.958 . S
H310 C295 0.961 . S
H311 C295 0.960 . S
C312 C313 1.391 . S
C312 C314 1.394 . S
C312 H328 0.931 1_455 S
C313 C312 1.391 . S
C313 C317 1.376 . S
C314 C312 1.394 . S
C314 C315 1.369 . S
C314 C318 1.531 1_455 S
C315 C314 1.369 . S
C315 C316 1.410 . S
C315 C323 1.503 . S
C316 C315 1.410 . S
C316 C317 1.392 . S
C316 C319 1.511 . S
C317 C313 1.376 . S
C317 C316 1.392 . S
C317 H329 0.929 . S
C318 C314 1.531 1_655 S
C318 H330 0.960 . S
C318 H331 0.962 . S
C318 H332 0.960 . S
C319 C316 1.511 . S
C319 H333 0.961 . S
C319 H334 0.961 . S
C319 H335 0.961 . S
C320 C321 1.370 1_655 S
C320 C322 1.361 1_655 S
C320 H336 0.931 . S
C321 C320 1.370 1_455 S
C321 C325 1.408 . S
C322 C320 1.361 1_455 S
C322 C323 1.386 . S
C322 C326 1.511 1_455 S
C323 C315 1.503 . S
C323 C322 1.386 . S
C323 C324 1.403 . S
C324 C323 1.403 . S
C324 C325 1.404 . S
C324 C327 1.539 . S
C325 C321 1.408 . S
C325 C324 1.404 . S
C325 H337 0.930 . S
C326 C322 1.511 1_655 S
C326 H338 0.956 . S
C326 H339 0.961 . S
C326 H340 0.961 . S
C327 C324 1.539 . S
C327 H341 0.958 . S
C327 H342 0.961 . S
C327 H343 0.960 . S
H328 C312 0.931 1_655 S
H329 C317 0.929 . S
H330 C318 0.960 . S
H331 C318 0.962 . S
H332 C318 0.960 . S
H333 C319 0.961 . S
H334 C319 0.961 . S
H335 C319 0.961 . S
H336 C320 0.931 . S
H337 C325 0.930 . S
H338 C326 0.956 . S
H339 C326 0.961 . S
H340 C326 0.961 . S
H341 C327 0.958 . S
H342 C327 0.961 . S
H343 C327 0.960 . S
C344 C345 1.391 . S
C344 C346 1.394 . S
C344 H360 0.931 . S
C345 C344 1.391 . S
C345 C349 1.376 1_545 S
C346 C344 1.394 . S
C346 C347 1.369 . S
C346 C350 1.531 . S
C347 C346 1.369 . S
C347 C348 1.410 1_545 S
C347 C355 1.503 1_554 S
C348 C347 1.410 1_565 S
C348 C349 1.392 . S
C348 C351 1.511 . S
C349 C345 1.376 1_565 S
C349 C348 1.392 . S
C349 H361 0.929 . S
C350 C346 1.531 . S
C350 H362 0.960 . S
C350 H363 0.962 . S
C350 H364 0.960 . S
C351 C348 1.511 . S
C351 H365 0.961 . S
C351 H366 0.961 . S
C351 H367 0.961 . S
C352 C353 1.370 1_565 S
C352 C354 1.363 . S
C352 H368 0.931 . S
C353 C352 1.370 1_545 S
C353 C357 1.408 . S
C354 C352 1.363 . S
C354 C355 1.370 1_565 S
C354 C358 1.524 . S
C355 C347 1.503 1_556 S
C355 C354 1.370 1_545 S
C355 C356 1.403 . S
C356 C355 1.403 . S
C356 C357 1.404 . S
C356 C359 1.539 . S
C357 C353 1.408 . S
C357 C356 1.404 . S
C357 H369 0.930 . S
C358 C354 1.524 . S
C358 H370 0.956 1_556 S
C358 H371 0.961 1_556 S
C358 H372 0.961 . S
C359 C356 1.539 . S
C359 H373 0.958 . S
C359 H374 0.961 . S
C359 H375 0.960 1_556 S
H360 C344 0.931 . S
H361 C349 0.929 . S
H362 C350 0.960 . S
H363 C350 0.962 . S
H364 C350 0.960 . S
H365 C351 0.961 . S
H366 C351 0.961 . S
H367 C351 0.961 . S
H368 C352 0.931 . S
H369 C357 0.930 . S
H370 C358 0.956 1_554 S
H371 C358 0.961 1_554 S
H372 C358 0.961 . S
H373 C359 0.958 . S
H374 C359 0.961 . S
H375 C359 0.960 1_554 S
C376 C377 1.391 . S
C376 C378 1.394 . S
C376 H392 0.931 . S
C377 C376 1.391 . S
C377 C381 1.376 . S
C378 C376 1.394 . S
C378 C379 1.369 . S
C378 C382 1.531 . S
C379 C378 1.369 . S
C379 C380 1.410 . S
C379 C387 1.503 . S
C380 C379 1.410 . S
C380 C381 1.392 . S
C380 C383 1.511 . S
C381 C377 1.376 . S
C381 C380 1.392 . S
C381 H393 0.929 . S
C382 C378 1.531 . S
C382 H394 0.960 . S
C382 H395 0.962 . S
C382 H396 0.960 . S
C383 C380 1.511 . S
C383 H397 0.961 . S
C383 H398 0.961 . S
C383 H399 0.961 . S
C384 C385 1.370 . S
C384 C386 1.363 . S
C384 H400 0.931 . S
C385 C384 1.370 . S
C385 C389 1.408 . S
C386 C384 1.363 . S
C386 C387 1.370 . S
C386 C390 1.524 . S
C387 C379 1.503 . S
C387 C386 1.370 . S
C387 C388 1.403 . S
C388 C387 1.403 . S
C388 C389 1.404 . S
C388 C391 1.539 . S
C389 C385 1.408 . S
C389 C388 1.404 . S
C389 H401 0.930 . S
C390 C386 1.524 . S
C390 H402 0.956 . S
C390 H403 0.961 . S
C390 H404 0.961 . S
C391 C388 1.539 . S
C391 H405 0.958 . S
C391 H406 0.961 . S
C391 H407 0.960 . S
H392 C376 0.931 . S
H393 C381 0.929 . S
H394 C382 0.960 . S
H395 C382 0.962 . S
H396 C382 0.960 . S
H397 C383 0.961 . S
H398 C383 0.961 . S
H399 C383 0.961 . S
H400 C384 0.931 . S
H401 C389 0.930 . S
H402 C390 0.956 . S
H403 C390 0.961 . S
H404 C390 0.961 . S
H405 C391 0.958 . S
H406 C391 0.961 . S
H407 C391 0.960 . S
C121 C10 2.589 . S
C129 C86 2.447 . S
C153 C55 1.635 . S
C161 C15 1.687 . S
C185 C50 3.016 . S
C193 C90 2.965 . S
C217 C95 2.226 . S
C225 C19 2.214 . S
C249 C46 1.446 . S
C257 C6 1.447 . S
C281 C99 2.629 . S
C289 C59 2.692 . S
C313 C18 0.614 . S
C321 C9 0.506 . S
C345 C49 0.607 . S
C353 C58 0.497 . S
C377 C98 0.490 . S
C385 C89 0.581 . S
