# Generated by pormake.
# Topology pcb, (4)-cn, num edge types: 1
# Building blocks:
#     Node 0, Type 0, BuildingBlock: ICAMEG_clean_sbu_1, # of connection points: 4
#     Node 1, Type 0, BuildingBlock: ICAMEG_clean_sbu_1, # of connection points: 4
#     Node 2, Type 0, BuildingBlock: ICAMEG_clean_sbu_1, # of connection points: 4
#     Node 3, Type 0, BuildingBlock: ICAMEG_clean_sbu_1, # of connection points: 4
#     Node 4, Type 0, BuildingBlock: ICAMEG_clean_sbu_1, # of connection points: 4
#     Node 5, Type 0, BuildingBlock: ICAMEG_clean_sbu_1, # of connection points: 4
#     Node 6, Type 0, BuildingBlock: ICAMEG_clean_sbu_1, # of connection points: 4
#     Node 7, Type 0, BuildingBlock: ICAMEG_clean_sbu_1, # of connection points: 4
#     Node 8, Type 0, BuildingBlock: ICAMEG_clean_sbu_1, # of connection points: 4
#     Node 9, Type 0, BuildingBlock: ICAMEG_clean_sbu_1, # of connection points: 4
#     Node 10, Type 0, BuildingBlock: ICAMEG_clean_sbu_1, # of connection points: 4
#     Node 11, Type 0, BuildingBlock: ICAMEG_clean_sbu_1, # of connection points: 4
#     Node 12, Type 0, BuildingBlock: ICAMEG_clean_sbu_1, # of connection points: 4
#     Node 13, Type 0, BuildingBlock: ICAMEG_clean_sbu_1, # of connection points: 4
#     Node 14, Type 0, BuildingBlock: ICAMEG_clean_sbu_1, # of connection points: 4
#     Node 15, Type 0, BuildingBlock: ICAMEG_clean_sbu_1, # of connection points: 4
#     Edge 16, Type (0, 0), BuildingBlock: KIFKEQ_clean_linker_1, # of connection points: 2
#     Edge 17, Type (0, 0), BuildingBlock: KIFKEQ_clean_linker_1, # of connection points: 2
#     Edge 18, Type (0, 0), BuildingBlock: KIFKEQ_clean_linker_1, # of connection points: 2
#     Edge 19, Type (0, 0), BuildingBlock: KIFKEQ_clean_linker_1, # of connection points: 2
#     Edge 20, Type (0, 0), BuildingBlock: KIFKEQ_clean_linker_1, # of connection points: 2
#     Edge 21, Type (0, 0), BuildingBlock: KIFKEQ_clean_linker_1, # of connection points: 2
#     Edge 22, Type (0, 0), BuildingBlock: KIFKEQ_clean_linker_1, # of connection points: 2
#     Edge 23, Type (0, 0), BuildingBlock: KIFKEQ_clean_linker_1, # of connection points: 2
#     Edge 24, Type (0, 0), BuildingBlock: KIFKEQ_clean_linker_1, # of connection points: 2
#     Edge 25, Type (0, 0), BuildingBlock: KIFKEQ_clean_linker_1, # of connection points: 2
#     Edge 26, Type (0, 0), BuildingBlock: KIFKEQ_clean_linker_1, # of connection points: 2
#     Edge 27, Type (0, 0), BuildingBlock: KIFKEQ_clean_linker_1, # of connection points: 2
#     Edge 28, Type (0, 0), BuildingBlock: KIFKEQ_clean_linker_1, # of connection points: 2
#     Edge 29, Type (0, 0), BuildingBlock: KIFKEQ_clean_linker_1, # of connection points: 2
#     Edge 30, Type (0, 0), BuildingBlock: KIFKEQ_clean_linker_1, # of connection points: 2
#     Edge 31, Type (0, 0), BuildingBlock: KIFKEQ_clean_linker_1, # of connection points: 2
#     Edge 32, Type (0, 0), BuildingBlock: KIFKEQ_clean_linker_1, # of connection points: 2
#     Edge 33, Type (0, 0), BuildingBlock: KIFKEQ_clean_linker_1, # of connection points: 2
#     Edge 34, Type (0, 0), BuildingBlock: KIFKEQ_clean_linker_1, # of connection points: 2
#     Edge 35, Type (0, 0), BuildingBlock: KIFKEQ_clean_linker_1, # of connection points: 2
#     Edge 36, Type (0, 0), BuildingBlock: KIFKEQ_clean_linker_1, # of connection points: 2
#     Edge 37, Type (0, 0), BuildingBlock: KIFKEQ_clean_linker_1, # of connection points: 2
#     Edge 38, Type (0, 0), BuildingBlock: KIFKEQ_clean_linker_1, # of connection points: 2
#     Edge 39, Type (0, 0), BuildingBlock: KIFKEQ_clean_linker_1, # of connection points: 2
#     Edge 40, Type (0, 0), BuildingBlock: KIFKEQ_clean_linker_1, # of connection points: 2
#     Edge 41, Type (0, 0), BuildingBlock: KIFKEQ_clean_linker_1, # of connection points: 2
#     Edge 42, Type (0, 0), BuildingBlock: KIFKEQ_clean_linker_1, # of connection points: 2
#     Edge 43, Type (0, 0), BuildingBlock: KIFKEQ_clean_linker_1, # of connection points: 2
#     Edge 44, Type (0, 0), BuildingBlock: KIFKEQ_clean_linker_1, # of connection points: 2
#     Edge 45, Type (0, 0), BuildingBlock: KIFKEQ_clean_linker_1, # of connection points: 2
#     Edge 46, Type (0, 0), BuildingBlock: KIFKEQ_clean_linker_1, # of connection points: 2
#     Edge 47, Type (0, 0), BuildingBlock: KIFKEQ_clean_linker_1, # of connection points: 2
# Relax obj value: 0.342
# Max RMSD: 0.267
# Mean RMSD: 0.202
data_MOF--net-pcb--node1-ICAMEG_clean_sbu_1--edge1-KIFKEQ_clean_linker_1
_symmetry_space_group_name_H-M    P1
_symmetry_Int_Tables_number       1
_symmetry_cell_setting            triclinic
loop_
_symmetry_equiv_pos_as_xyz
'x, y, z'
_cell_length_a     55.319442
_cell_length_b     44.178729
_cell_length_c     45.483357
_cell_angle_alpha  95.319405
_cell_angle_beta   94.023944
_cell_angle_gamma 99.458039
loop_
_atom_site_label
_atom_site_type_symbol
_atom_site_fract_x
_atom_site_fract_y
_atom_site_fract_z
_atom_type_partial_charge
Co0 Co 0.12112 0.11305 0.13022 0.0
Co1 Co 0.13627 0.19117 0.14742 0.0
O2 O 0.1413 0.14917 0.15306 0.0
C3 C 0.13171 0.09393 0.19163 0.0
O4 O 0.14259 0.12186 0.20204 0.0
C5 C 0.18938 0.21907 0.14308 0.0
O6 O 0.18439 0.22474 0.11569 0.0
O7 O 0.14072 0.1834 0.10423 0.0
O8 O 0.11853 0.13592 0.09448 0.0
H9 H 0.1017 0.27189 0.09505 0.0
H10 H 0.17052 0.10913 0.15899 0.0
O11 O 0.12262 0.08794 0.16478 0.0
H12 H 0.17304 0.07393 0.05341 0.0
H13 H 0.09584 0.99969 0.09612 0.0
H14 H 0.07563 0.10363 0.08948 0.0
H15 H 0.13566 0.09 0.07149 0.0
H16 H 0.12219 0.04536 0.12373 0.0
O17 O 0.17265 0.20512 0.15731 0.0
H18 H 0.10716 0.21894 0.10337 0.0
H19 H 0.15692 0.25341 0.17894 0.0
H20 H 0.04887 0.0586 0.06133 0.0
H21 H 0.2081 0.0929 0.14194 0.0
H22 H 0.05893 0.00617 0.06454 0.0
H23 H 0.20958 0.07512 0.08877 0.0
O24 O 0.09125 0.12692 0.14417 0.0
H25 H 0.15836 0.18979 0.25646 0.0
H26 H 0.09926 0.21778 0.18185 0.0
H27 H 0.09295 0.22655 0.23482 0.0
H28 H 0.12269 0.21262 0.2726 0.0
H29 H 0.16372 0.18092 0.20323 0.0
H30 H 0.15212 0.30673 0.17136 0.0
H31 H 0.12429 0.31623 0.1292 0.0
O32 O 0.09945 0.17756 0.13901 0.0
C33 C 0.12936 0.16098 0.08603 0.0
C34 C 0.11384 0.26805 0.11353 0.0
C35 C 0.14216 0.28761 0.15634 0.0
N36 N 0.13225 0.23309 0.14166 0.0
C37 C 0.11698 0.23812 0.11837 0.0
C38 C 0.14484 0.25737 0.16049 0.0
C39 C 0.12654 0.29292 0.13269 0.0
C40 C 0.17079 0.10103 0.13594 0.0
N41 N 0.15064 0.09996 0.11645 0.0
C42 C 0.19223 0.09204 0.12635 0.0
C43 C 0.19307 0.08213 0.09651 0.0
C44 C 0.17258 0.08145 0.07667 0.0
C45 C 0.15145 0.09061 0.08706 0.0
C46 C 0.09129 0.02242 0.09449 0.0
C47 C 0.08021 0.08092 0.09086 0.0
C48 C 0.10611 0.04838 0.11012 0.0
N49 N 0.10057 0.0772 0.10802 0.0
C50 C 0.06495 0.05549 0.07493 0.0
C51 C 0.07059 0.02608 0.07677 0.0
C52 C 0.08452 0.15305 0.14272 0.0
C53 C 0.14522 0.19587 0.24022 0.0
C54 C 0.11205 0.21116 0.19806 0.0
C55 C 0.10849 0.21642 0.22808 0.0
C56 C 0.12521 0.20866 0.24926 0.0
N57 N 0.13164 0.19841 0.18932 0.0
C58 C 0.14817 0.19093 0.21 0.0
Co59 Co 0.85473 0.12431 0.16412 0.0
Co60 Co 0.87328 0.17926 0.22407 0.0
O61 O 0.851 0.16157 0.18896 0.0
C62 C 0.85154 0.1698 0.12081 0.0
O63 O 0.86581 0.19037 0.13988 0.0
C64 C 0.82353 0.17163 0.24521 0.0
O65 O 0.81939 0.14408 0.23039 0.0
O66 O 0.87025 0.13849 0.24052 0.0
O67 O 0.86517 0.10484 0.19945 0.0
H68 H 0.94488 0.18395 0.29968 0.0
H69 H 0.80792 0.14823 0.15717 0.0
O70 O 0.84467 0.14257 0.12749 0.0
H71 H 0.78526 0.04373 0.18756 0.0
H72 H 0.83003 0.03979 0.08004 0.0
H73 H 0.89212 0.08325 0.16274 0.0
H74 H 0.82843 0.06455 0.1807 0.0
H75 H 0.82536 0.08644 0.11188 0.0
O76 O 0.84444 0.18886 0.24556 0.0
H77 H 0.91688 0.16183 0.25553 0.0
H78 H 0.87611 0.23488 0.2675 0.0
H79 H 0.89752 0.03664 0.13142 0.0
H80 H 0.76447 0.12819 0.1635 0.0
H81 H 0.86626 0.01447 0.08984 0.0
H82 H 0.75293 0.07562 0.17891 0.0
O83 O 0.8897 0.14138 0.15993 0.0
H84 H 0.84116 0.26566 0.17826 0.0
H85 H 0.91554 0.22791 0.21497 0.0
H86 H 0.91976 0.27781 0.19398 0.0
H87 H 0.88237 0.29703 0.17549 0.0
H88 H 0.8378 0.21572 0.19913 0.0
H89 H 0.90351 0.25764 0.31193 0.0
H90 H 0.93826 0.23219 0.3282 0.0
O91 O 0.90265 0.17024 0.20327 0.0
C92 C 0.8692 0.1115 0.22736 0.0
C93 C 0.92985 0.1953 0.29276 0.0
C94 C 0.90661 0.23663 0.29966 0.0
N95 N 0.895 0.19716 0.25885 0.0
C96 C 0.91398 0.18293 0.26774 0.0
C97 C 0.89111 0.2236 0.27453 0.0
C98 C 0.92611 0.22235 0.30877 0.0
C99 C 0.80298 0.12519 0.16354 0.0
N100 N 0.82065 0.10753 0.16841 0.0
C101 C 0.77837 0.11403 0.16723 0.0
C102 C 0.77192 0.08455 0.17593 0.0
C103 C 0.79005 0.06666 0.18082 0.0
C104 C 0.81448 0.07861 0.17697 0.0
C105 C 0.84372 0.04915 0.09817 0.0
C106 C 0.87839 0.07372 0.14474 0.0
C107 C 0.8412 0.07558 0.11625 0.0
N108 N 0.85835 0.08743 0.1393 0.0
C109 C 0.88156 0.04732 0.12706 0.0
C110 C 0.86405 0.03494 0.10369 0.0
C111 C 0.90669 0.15708 0.17826 0.0
C112 C 0.85758 0.25757 0.1863 0.0
C113 C 0.8992 0.23602 0.20683 0.0
C114 C 0.9017 0.26435 0.19506 0.0
C115 C 0.88071 0.27514 0.18471 0.0
N116 N 0.87645 0.21894 0.20833 0.0
C117 C 0.85579 0.22937 0.19826 0.0
Co118 Co 0.88783 0.88272 0.16786 0.0
Co119 Co 0.87223 0.80449 0.16908 0.0
O120 O 0.86844 0.8469 0.18255 0.0
C121 C 0.88144 0.90379 0.23223 0.0
O122 O 0.86808 0.8775 0.23673 0.0
C123 C 0.81795 0.80275 0.16454 0.0
O124 O 0.82157 0.82854 0.15205 0.0
O125 O 0.86547 0.81192 0.12688 0.0
O126 O 0.88708 0.85963 0.12784 0.0
H127 H 0.90349 0.72308 0.10491 0.0
H128 H 0.84046 0.8885 0.19456 0.0
O129 O 0.88987 0.90789 0.20728 0.0
H130 H 0.83158 0.92374 0.09544 0.0
H131 H 0.91337 0.99593 0.15822 0.0
H132 H 0.93009 0.89121 0.13083 0.0
H133 H 0.86949 0.90585 0.11261 0.0
H134 H 0.88801 0.95066 0.17505 0.0
O135 O 0.83613 0.78993 0.17202 0.0
H136 H 0.89901 0.77621 0.12255 0.0
H137 H 0.85211 0.74249 0.18663 0.0
H138 H 0.95559 0.93584 0.113 0.0
H139 H 0.80254 0.90669 0.17854 0.0
H140 H 0.9473 0.98869 0.12669 0.0
H141 H 0.79781 0.92448 0.12857 0.0
O142 O 0.91866 0.8683 0.18044 0.0
H143 H 0.85618 0.80739 0.27661 0.0
H144 H 0.9109 0.77777 0.20203 0.0
H145 H 0.91994 0.7694 0.25421 0.0
H146 H 0.89243 0.78418 0.29192 0.0
H147 H 0.84798 0.81566 0.22423 0.0
H148 H 0.85592 0.68898 0.16952 0.0
H149 H 0.88185 0.67902 0.12846 0.0
O150 O 0.90862 0.81754 0.16622 0.0
C151 C 0.87597 0.83425 0.11389 0.0
C152 C 0.89219 0.72713 0.12287 0.0
C153 C 0.86546 0.70799 0.15911 0.0
N154 N 0.87545 0.76246 0.15571 0.0
C155 C 0.88963 0.75717 0.133 0.0
C156 C 0.86333 0.73834 0.16865 0.0
C157 C 0.88002 0.70242 0.13608 0.0
C158 C 0.83895 0.8968 0.17314 0.0
N159 N 0.8576 0.89677 0.15497 0.0
C160 C 0.81723 0.9068 0.16401 0.0
C161 C 0.81455 0.91668 0.13595 0.0
C162 C 0.83347 0.91625 0.11735 0.0
C163 C 0.85492 0.90605 0.12723 0.0
C164 C 0.91707 0.97302 0.15193 0.0
C165 C 0.92619 0.91408 0.13662 0.0
C166 C 0.90284 0.94728 0.16151 0.0
N167 N 0.90741 0.91823 0.15371 0.0
C168 C 0.94076 0.93929 0.12656 0.0
C169 C 0.93612 0.96894 0.13428 0.0
C170 C 0.92455 0.84192 0.17403 0.0
C171 C 0.86831 0.80086 0.2604 0.0
C172 C 0.89898 0.78455 0.21833 0.0
C173 C 0.90412 0.77961 0.24783 0.0
C174 C 0.88866 0.78787 0.26897 0.0
N175 N 0.879 0.79736 0.21009 0.0
C176 C 0.86374 0.80544 0.23068 0.0
Co177 Co 0.15361 0.85542 0.14384 0.0
Co178 Co 0.14988 0.82063 0.20879 0.0
O179 O 0.16217 0.82562 0.16999 0.0
C180 C 0.13872 0.7961 0.10524 0.0
O181 O 0.12579 0.78505 0.12617 0.0
C182 C 0.20408 0.83468 0.22202 0.0
O183 O 0.20403 0.85909 0.20762 0.0
O184 O 0.15657 0.86617 0.22084 0.0
O185 O 0.15668 0.88771 0.17786 0.0
H186 H 0.09988 0.84243 0.29392 0.0
H187 H 0.19405 0.82101 0.13097 0.0
O188 O 0.15072 0.82356 0.10893 0.0
H189 H 0.23221 0.93094 0.14252 0.0
H190 H 0.15604 0.90753 0.0499 0.0
H191 H 0.122 0.90354 0.14709 0.0
H192 H 0.18781 0.91555 0.14696 0.0
H193 H 0.16694 0.87039 0.08374 0.0
O194 O 0.18389 0.81709 0.22506 0.0
H195 H 0.11524 0.84912 0.24491 0.0
H196 H 0.15939 0.78016 0.25567 0.0
H197 H 0.11086 0.94128 0.11409 0.0
H198 H 0.2385 0.83538 0.12612 0.0
H199 H 0.12791 0.94342 0.06509 0.0
H200 H 0.25787 0.8907 0.132 0.0
O201 O 0.11778 0.84358 0.149 0.0
H202 H 0.16933 0.71942 0.16552 0.0
H203 H 0.10664 0.7711 0.21131 0.0
H204 H 0.09711 0.71519 0.19558 0.0
H205 H 0.12862 0.68897 0.17255 0.0
H206 H 0.17799 0.77534 0.18132 0.0
H207 H 0.14467 0.7729 0.30492 0.0
H208 H 0.11462 0.80409 0.32429 0.0
O209 O 0.11592 0.824 0.19294 0.0
C210 C 0.158 0.88946 0.20603 0.0
C211 C 0.11294 0.82866 0.2857 0.0
C212 C 0.1381 0.78967 0.29189 0.0
N213 N 0.1381 0.81496 0.2474 0.0
C214 C 0.12166 0.83231 0.25794 0.0
C215 C 0.14643 0.79395 0.26404 0.0
C216 C 0.12123 0.80716 0.30274 0.0
C217 C 0.20232 0.84514 0.1333 0.0
N218 N 0.18834 0.86742 0.13911 0.0
C219 C 0.2275 0.85313 0.13064 0.0
C220 C 0.23836 0.88417 0.13397 0.0
C221 C 0.22398 0.90676 0.13989 0.0
C222 C 0.19886 0.89791 0.14244 0.0
C223 C 0.14852 0.90685 0.07121 0.0
C224 C 0.12962 0.90445 0.12588 0.0
C225 C 0.15456 0.8858 0.09043 0.0
N226 N 0.14521 0.8849 0.11743 0.0
C227 C 0.12318 0.92581 0.10725 0.0
C228 C 0.13274 0.92698 0.07975 0.0
C229 C 0.10578 0.83276 0.16985 0.0
C230 C 0.15547 0.73057 0.17558 0.0
C231 C 0.12039 0.75988 0.20119 0.0
C232 C 0.11492 0.7282 0.1924 0.0
C233 C 0.13261 0.7135 0.1795 0.0
N234 N 0.14286 0.77646 0.19731 0.0
C235 C 0.16029 0.76221 0.18466 0.0
Co236 Co 0.12575 0.82374 0.87733 0.0
Co237 Co 0.1245 0.75905 0.8307 0.0
O238 O 0.14005 0.80142 0.84548 0.0
C239 C 0.13777 0.87198 0.83598 0.0
O240 O 0.12924 0.85163 0.8132 0.0
C241 C 0.1776 0.75309 0.83807 0.0
O242 O 0.17915 0.76706 0.86508 0.0
O243 O 0.12924 0.74672 0.87156 0.0
O244 O 0.11313 0.78461 0.8945 0.0
H245 H 0.06683 0.65924 0.83435 0.0
H246 H 0.17828 0.842 0.86777 0.0
O247 O 0.13794 0.86406 0.86216 0.0
H248 H 0.17779 0.81737 0.97131 0.0
H249 H 0.12379 0.91118 0.9561 0.0
H250 H 0.07799 0.81353 0.90401 0.0
H251 H 0.1389 0.81391 0.94028 0.0
H252 H 0.14224 0.88235 0.91707 0.0
O253 O 0.15736 0.74866 0.82185 0.0
H254 H 0.0861 0.71295 0.85154 0.0
H255 H 0.13119 0.71444 0.77969 0.0
H256 H 0.05894 0.8415 0.94305 0.0
H257 H 0.21766 0.84611 0.89818 0.0
H258 H 0.08188 0.8907 0.96942 0.0
H259 H 0.21756 0.8336 0.95031 0.0
O260 O 0.09457 0.81888 0.8516 0.0
H261 H 0.15223 0.81261 0.74315 0.0
H262 H 0.08267 0.74975 0.78353 0.0
H263 H 0.07704 0.76655 0.73368 0.0
H264 H 0.112 0.79815 0.71314 0.0
H265 H 0.15699 0.79557 0.79306 0.0
H266 H 0.1126 0.66066 0.76189 0.0
H267 H 0.08009 0.63274 0.78922 0.0
O268 O 0.09068 0.76813 0.83815 0.0
C269 C 0.12062 0.75885 0.89415 0.0
C270 C 0.08094 0.67118 0.82221 0.0
C271 C 0.10665 0.67196 0.78157 0.0
N272 N 0.10964 0.71687 0.81655 0.0
C273 C 0.09187 0.70162 0.8318 0.0
C274 C 0.11717 0.70239 0.79181 0.0
C275 C 0.0884 0.65632 0.7969 0.0
C276 C 0.17811 0.83678 0.89052 0.0
N277 N 0.15633 0.82774 0.90221 0.0
C278 C 0.20045 0.83905 0.9076 0.0
C279 C 0.20038 0.832 0.93684 0.0
C280 C 0.17809 0.82287 0.94864 0.0
C281 C 0.15612 0.82089 0.93091 0.0
C282 C 0.11361 0.88977 0.94477 0.0
C283 C 0.08814 0.83488 0.9154 0.0
C284 C 0.12392 0.87339 0.92256 0.0
N285 N 0.11124 0.84622 0.90828 0.0
C286 C 0.07723 0.85064 0.93748 0.0
C287 C 0.0901 0.87826 0.95225 0.0
C288 C 0.08164 0.79299 0.84119 0.0
C289 C 0.13688 0.79879 0.75183 0.0
C290 C 0.09795 0.76363 0.77483 0.0
C291 C 0.09466 0.773 0.74654 0.0
C292 C 0.11429 0.79071 0.73502 0.0
N293 N 0.12018 0.77163 0.79117 0.0
C294 C 0.13949 0.789 0.78003 0.0
Co295 Co 0.11742 0.13537 0.80238 0.0
Co296 Co 0.14604 0.21049 0.81926 0.0
O297 O 0.14531 0.16844 0.80008 0.0
C298 C 0.15535 0.09809 0.82188 0.0
O299 O 0.16248 0.11764 0.84564 0.0
C300 C 0.16364 0.2191 0.75907 0.0
O301 O 0.14772 0.1948 0.74763 0.0
O302 O 0.11362 0.21262 0.79766 0.0
O303 O 0.09374 0.16495 0.80159 0.0
H304 H 0.11022 0.29514 0.87269 0.0
H305 H 0.15139 0.12794 0.75586 0.0
O306 O 0.13962 0.10378 0.80228 0.0
H307 H 0.06978 0.12033 0.7019 0.0
H308 H 0.06749 0.02862 0.77809 0.0
H309 H 0.07405 0.12932 0.83744 0.0
H310 H 0.07473 0.12804 0.75647 0.0
H311 H 0.10188 0.07069 0.77367 0.0
O312 O 0.16428 0.2286 0.78646 0.0
H313 H 0.11001 0.24244 0.84934 0.0
H314 H 0.18378 0.26804 0.82857 0.0
H315 H 0.03918 0.08799 0.84229 0.0
H316 H 0.14725 0.11963 0.70123 0.0
H317 H 0.03576 0.03718 0.81252 0.0
H318 H 0.10623 0.11594 0.67387 0.0
O319 O 0.12189 0.14252 0.84648 0.0
H320 H 0.23159 0.18579 0.8283 0.0
H321 H 0.16719 0.22573 0.88221 0.0
H322 H 0.20644 0.22167 0.90944 0.0
H323 H 0.23903 0.20167 0.88244 0.0
H324 H 0.19195 0.18992 0.80197 0.0
H325 H 0.18471 0.32108 0.85149 0.0
H326 H 0.14777 0.33489 0.87387 0.0
O327 O 0.12886 0.1942 0.85355 0.0
C328 C 0.09385 0.19277 0.7962 0.0
C329 C 0.12645 0.28939 0.86308 0.0
C330 C 0.16824 0.30395 0.85114 0.0
N331 N 0.14688 0.2521 0.83772 0.0
C332 C 0.12646 0.25956 0.84987 0.0
C333 C 0.16757 0.2739 0.83811 0.0
C334 C 0.14751 0.31169 0.8637 0.0
C335 C 0.13344 0.12611 0.74412 0.0
N336 N 0.11335 0.12874 0.75938 0.0
C337 C 0.13123 0.12151 0.71318 0.0
C338 C 0.10822 0.1195 0.69785 0.0
C339 C 0.08778 0.12203 0.71355 0.0
C340 C 0.09071 0.12665 0.74448 0.0
C341 C 0.06877 0.05066 0.79118 0.0
C342 C 0.07263 0.10733 0.82429 0.0
C343 C 0.08827 0.07454 0.78885 0.0
N344 N 0.08997 0.10249 0.80523 0.0
C345 C 0.05286 0.08399 0.82718 0.0
C346 C 0.05097 0.05548 0.81049 0.0
C347 C 0.12439 0.16782 0.86328 0.0
C348 C 0.21756 0.19461 0.84029 0.0
C349 C 0.18121 0.21688 0.8703 0.0
C350 C 0.20344 0.21471 0.88584 0.0
C351 C 0.22171 0.2035 0.87068 0.0
N352 N 0.17729 0.2082 0.84047 0.0
C353 C 0.1951 0.19709 0.82548 0.0
Co354 Co 0.90111 0.22162 0.87178 0.0
Co355 Co 0.86936 0.19696 0.80328 0.0
O356 O 0.87314 0.22082 0.84257 0.0
C357 C 0.85996 0.20181 0.90855 0.0
O358 O 0.85022 0.18019 0.88727 0.0
C359 C 0.8574 0.25924 0.79162 0.0
O360 O 0.87369 0.27319 0.813 0.0
O361 O 0.90345 0.21558 0.79475 0.0
O362 O 0.92414 0.22325 0.83994 0.0
H363 H 0.8954 0.12829 0.72135 0.0
H364 H 0.86758 0.26687 0.87995 0.0
O365 O 0.8792 0.22072 0.90486 0.0
H366 H 0.94994 0.32929 0.87851 0.0
H367 H 0.95191 0.25447 0.96934 0.0
H368 H 0.94436 0.19008 0.87352 0.0
H369 H 0.94433 0.27245 0.87406 0.0
H370 H 0.9171 0.25427 0.93232 0.0
O371 O 0.85506 0.23025 0.78478 0.0
H372 H 0.89974 0.15831 0.77047 0.0
H373 H 0.83012 0.1846 0.75289 0.0
H374 H 0.97965 0.18988 0.90976 0.0
H375 H 0.87232 0.32368 0.88509 0.0
H376 H 0.98357 0.22222 0.95809 0.0
H377 H 0.91373 0.35528 0.88417 0.0
O378 O 0.89623 0.17545 0.86774 0.0
H379 H 0.78599 0.19916 0.8401 0.0
H380 H 0.84059 0.1328 0.79673 0.0
H381 H 0.79943 0.10927 0.80875 0.0
H382 H 0.77175 0.14255 0.83053 0.0
H383 H 0.82745 0.22166 0.82813 0.0
H384 H 0.82511 0.15509 0.70349 0.0
H385 H 0.85787 0.12657 0.68745 0.0
O386 O 0.88228 0.1622 0.82009 0.0
C387 C 0.92341 0.22256 0.81179 0.0
C388 C 0.88102 0.14068 0.72804 0.0
C389 C 0.84159 0.15576 0.71801 0.0
N390 N 0.86531 0.17342 0.76448 0.0
C391 C 0.88339 0.15775 0.75583 0.0
C392 C 0.8446 0.1726 0.74595 0.0
C393 C 0.85996 0.13973 0.70904 0.0
C394 C 0.88567 0.28049 0.87966 0.0
N395 N 0.90563 0.26636 0.87616 0.0
C396 C 0.88823 0.31264 0.88252 0.0
C397 C 0.91146 0.33035 0.88196 0.0
C398 C 0.93177 0.31578 0.87871 0.0
C399 C 0.92848 0.28359 0.87587 0.0
C400 C 0.95041 0.24029 0.94836 0.0
C401 C 0.94602 0.20436 0.89443 0.0
C402 C 0.93068 0.23999 0.92735 0.0
N403 N 0.92874 0.22227 0.90073 0.0
C404 C 0.96601 0.20408 0.9149 0.0
C405 C 0.96818 0.22221 0.94202 0.0
C406 C 0.88989 0.15541 0.84531 0.0
C407 C 0.79786 0.18442 0.83058 0.0
C408 C 0.82878 0.14741 0.80639 0.0
C409 C 0.80542 0.13397 0.81305 0.0
C410 C 0.7899 0.15265 0.82524 0.0
N411 N 0.83649 0.1786 0.81167 0.0
C412 C 0.82135 0.19705 0.82364 0.0
Co413 Co 0.89054 0.87072 0.84205 0.0
Co414 Co 0.85152 0.80068 0.83281 0.0
O415 O 0.85977 0.84422 0.8247 0.0
C416 C 0.87441 0.92728 0.86763 0.0
O417 O 0.88281 0.92086 0.89362 0.0
C418 C 0.833 0.80118 0.76822 0.0
O419 O 0.84533 0.82901 0.76714 0.0
O420 O 0.8833 0.7923 0.81837 0.0
O421 O 0.90868 0.83513 0.83917 0.0
H422 H 0.86966 0.70367 0.87268 0.0
H423 H 0.86394 0.89033 0.79029 0.0
O424 O 0.87358 0.90779 0.84482 0.0
H425 H 0.94612 0.88061 0.75899 0.0
H426 H 0.95608 0.96623 0.8558 0.0
H427 H 0.92855 0.86403 0.88901 0.0
H428 H 0.93549 0.87013 0.80921 0.0
H429 H 0.91785 0.93326 0.83294 0.0
O430 O 0.83452 0.78781 0.79178 0.0
H431 H 0.87886 0.75809 0.86266 0.0
H432 H 0.8073 0.75104 0.81929 0.0
H433 H 0.96698 0.8962 0.91238 0.0
H434 H 0.87392 0.90154 0.73997 0.0
H435 H 0.98097 0.94772 0.89581 0.0
H436 H 0.91524 0.89656 0.72398 0.0
O437 O 0.88153 0.86148 0.88215 0.0
H438 H 0.77367 0.84574 0.82899 0.0
H439 H 0.82469 0.78602 0.88585 0.0
H440 H 0.78609 0.7973 0.90469 0.0
H441 H 0.76019 0.82722 0.87611 0.0
H442 H 0.81255 0.83432 0.81116 0.0
H443 H 0.79742 0.69648 0.8286 0.0
H444 H 0.82868 0.67247 0.85559 0.0
O445 O 0.86732 0.81075 0.87448 0.0
C446 C 0.90473 0.80771 0.82627 0.0
C447 C 0.85587 0.71388 0.86094 0.0
C448 C 0.81534 0.70984 0.83617 0.0
N449 N 0.84363 0.75781 0.84051 0.0
C450 C 0.86096 0.74471 0.85525 0.0
C451 C 0.82108 0.74073 0.83087 0.0
C452 C 0.83288 0.69639 0.85133 0.0
C453 C 0.88199 0.88825 0.78353 0.0
N454 N 0.89901 0.87931 0.80259 0.0
C455 C 0.88752 0.89457 0.75499 0.0
C456 C 0.9107 0.89175 0.74603 0.0
C457 C 0.92802 0.88276 0.76564 0.0
C458 C 0.92183 0.87664 0.79399 0.0
C459 C 0.95018 0.94383 0.86323 0.0
C460 C 0.93451 0.88641 0.88165 0.0
C461 C 0.92851 0.92507 0.8504 0.0
N462 N 0.92089 0.89674 0.85967 0.0
C463 C 0.95629 0.90453 0.89497 0.0
C464 C 0.96413 0.93343 0.88567 0.0
C465 C 0.87479 0.83548 0.89168 0.0
C466 C 0.78472 0.83252 0.84155 0.0
C467 C 0.81358 0.79912 0.87328 0.0
C468 C 0.79171 0.80539 0.88406 0.0
C469 C 0.77719 0.82217 0.86802 0.0
N470 N 0.82077 0.80911 0.84715 0.0
C471 C 0.80672 0.82582 0.83146 0.0
Co472 Co 0.6162 0.61599 0.62295 0.0
Co473 Co 0.62603 0.69458 0.63941 0.0
O474 O 0.63457 0.65397 0.64511 0.0
C475 C 0.62974 0.59883 0.68442 0.0
O476 O 0.63976 0.62728 0.69423 0.0
C477 C 0.68069 0.70339 0.63849 0.0
O478 O 0.67805 0.67744 0.6211 0.0
O479 O 0.62942 0.68729 0.59605 0.0
O480 O 0.61106 0.63786 0.58692 0.0
H481 H 0.58158 0.76829 0.58856 0.0
H482 H 0.66684 0.61648 0.65089 0.0
O483 O 0.62023 0.59189 0.65781 0.0
H484 H 0.66983 0.58386 0.54486 0.0
H485 H 0.59842 0.50184 0.59017 0.0
H486 H 0.57005 0.60131 0.58323 0.0
H487 H 0.63138 0.59555 0.56377 0.0
H488 H 0.62221 0.54977 0.61695 0.0
O489 O 0.66179 0.71385 0.64661 0.0
H490 H 0.59204 0.71739 0.59684 0.0
H491 H 0.64334 0.7584 0.66911 0.0
H492 H 0.5458 0.55395 0.55589 0.0
H493 H 0.70547 0.60449 0.63303 0.0
H494 H 0.55996 0.50377 0.55926 0.0
H495 H 0.70722 0.58813 0.57961 0.0
O496 O 0.58527 0.62605 0.63756 0.0
H497 H 0.65357 0.69704 0.74746 0.0
H498 H 0.5881 0.71628 0.67594 0.0
H499 H 0.58359 0.72459 0.72944 0.0
H500 H 0.61652 0.71504 0.76566 0.0
H501 H 0.65715 0.68857 0.69373 0.0
H502 H 0.6336 0.80976 0.66146 0.0
H503 H 0.60243 0.81492 0.62102 0.0
O504 O 0.58977 0.67674 0.63306 0.0
C505 C 0.6196 0.6638 0.57819 0.0
C506 C 0.59514 0.76633 0.6063 0.0
C507 C 0.62436 0.78961 0.6472 0.0
N508 N 0.61815 0.7349 0.63354 0.0
C509 C 0.60109 0.73757 0.61114 0.0
C510 C 0.62985 0.76047 0.65137 0.0
C511 C 0.60686 0.79249 0.62451 0.0
C512 C 0.66719 0.60881 0.62778 0.0
N513 N 0.64664 0.60627 0.60859 0.0
C514 C 0.68924 0.6023 0.61771 0.0
C515 C 0.69024 0.59321 0.58772 0.0
C516 C 0.66928 0.59083 0.56822 0.0
C517 C 0.64755 0.59756 0.57908 0.0
C518 C 0.59208 0.52358 0.58846 0.0
C519 C 0.57641 0.57959 0.58466 0.0
C520 C 0.60545 0.5508 0.60362 0.0
N521 N 0.59764 0.57838 0.60144 0.0
C522 C 0.56257 0.55284 0.56919 0.0
C523 C 0.57051 0.52468 0.57112 0.0
C524 C 0.57659 0.65099 0.63689 0.0
C525 C 0.63907 0.70122 0.73191 0.0
C526 C 0.60235 0.71164 0.69149 0.0
C527 C 0.59977 0.7166 0.7218 0.0
C528 C 0.61827 0.71129 0.7421 0.0
N529 N 0.62275 0.7016 0.68164 0.0
C530 C 0.64101 0.69652 0.70143 0.0
Co531 Co 0.3457 0.61799 0.66894 0.0
Co532 Co 0.36781 0.67405 0.72744 0.0
O533 O 0.3451 0.65706 0.6926 0.0
C534 C 0.35097 0.66403 0.62538 0.0
O535 O 0.3652 0.68308 0.64576 0.0
C536 C 0.31845 0.6674 0.74968 0.0
O537 O 0.31417 0.63957 0.73543 0.0
O538 O 0.3646 0.63324 0.74403 0.0
O539 O 0.35015 0.59758 0.70557 0.0
H540 H 0.4402 0.67734 0.80157 0.0
H541 H 0.30457 0.65202 0.65848 0.0
O542 O 0.34121 0.63736 0.63127 0.0
H543 H 0.26611 0.55074 0.68551 0.0
H544 H 0.31683 0.53465 0.58472 0.0
H545 H 0.37563 0.56837 0.6728 0.0
H546 H 0.31091 0.56273 0.6821 0.0
H547 H 0.31675 0.58428 0.6144 0.0
O548 O 0.33938 0.68446 0.74935 0.0
H549 H 0.41153 0.65578 0.75786 0.0
H550 H 0.3718 0.72969 0.7711 0.0
H551 H 0.37603 0.51832 0.64399 0.0
H552 H 0.25966 0.64095 0.66139 0.0
H553 H 0.3465 0.50116 0.59965 0.0
H554 H 0.24017 0.59003 0.67511 0.0
O555 O 0.38217 0.62817 0.66762 0.0
H556 H 0.33673 0.76135 0.68199 0.0
H557 H 0.41051 0.72172 0.71772 0.0
H558 H 0.4153 0.77156 0.69655 0.0
H559 H 0.37822 0.7917 0.67855 0.0
H560 H 0.3328 0.71147 0.70304 0.0
H561 H 0.39991 0.75193 0.8151 0.0
H562 H 0.43447 0.72577 0.83052 0.0
O563 O 0.39635 0.6641 0.70601 0.0
C564 C 0.35755 0.60535 0.73279 0.0
C565 C 0.42524 0.68899 0.79504 0.0
C566 C 0.40261 0.73083 0.80266 0.0
N567 N 0.39009 0.69152 0.76188 0.0
C568 C 0.40899 0.67692 0.77027 0.0
C569 C 0.38671 0.71808 0.77778 0.0
C570 C 0.422 0.71615 0.81129 0.0
C571 C 0.29618 0.62972 0.66421 0.0
N572 N 0.31032 0.60804 0.67009 0.0
C573 C 0.27076 0.62362 0.66593 0.0
C574 C 0.25984 0.59506 0.67367 0.0
C575 C 0.27438 0.57302 0.67953 0.0
C576 C 0.29975 0.57996 0.67765 0.0
C577 C 0.32978 0.54185 0.60403 0.0
C578 C 0.36263 0.56099 0.65359 0.0
C579 C 0.32989 0.56999 0.62086 0.0
N580 N 0.34606 0.57912 0.64543 0.0
C581 C 0.36301 0.53268 0.63732 0.0
C582 C 0.34643 0.52307 0.61242 0.0
C583 C 0.39967 0.64629 0.68342 0.0
C584 C 0.35302 0.75285 0.68982 0.0
C585 C 0.3943 0.73027 0.70983 0.0
C586 C 0.39712 0.75855 0.69794 0.0
C587 C 0.37631 0.76985 0.68786 0.0
N588 N 0.3714 0.71374 0.7117 0.0
C589 C 0.35091 0.72468 0.70188 0.0
Co590 Co 0.38687 0.38765 0.6721 0.0
Co591 Co 0.37257 0.30855 0.67231 0.0
O592 O 0.36944 0.3509 0.68744 0.0
C593 C 0.3869 0.40657 0.73833 0.0
O594 O 0.37487 0.37975 0.74363 0.0
C595 C 0.31848 0.30745 0.67084 0.0
O596 O 0.32188 0.3334 0.65858 0.0
O597 O 0.36433 0.31652 0.6306 0.0
O598 O 0.3814 0.36632 0.63094 0.0
H599 H 0.40105 0.22771 0.6044 0.0
H600 H 0.34247 0.38913 0.7061 0.0
O601 O 0.39311 0.41118 0.71247 0.0
H602 H 0.32503 0.43698 0.61517 0.0
H603 H 0.41305 0.50174 0.66662 0.0
H604 H 0.42341 0.39712 0.62775 0.0
H605 H 0.36389 0.41764 0.62381 0.0
H606 H 0.38912 0.45596 0.68441 0.0
O607 O 0.33671 0.29421 0.67711 0.0
H608 H 0.39749 0.28073 0.62356 0.0
H609 H 0.35297 0.24628 0.68955 0.0
H610 H 0.44704 0.44233 0.6086 0.0
H611 H 0.30366 0.40856 0.69864 0.0
H612 H 0.44197 0.49511 0.62812 0.0
H613 H 0.2946 0.43272 0.65286 0.0
O614 O 0.41858 0.37275 0.67868 0.0
H615 H 0.36067 0.30887 0.78089 0.0
H616 H 0.41261 0.28159 0.70216 0.0
H617 H 0.42363 0.27201 0.75352 0.0
H618 H 0.39753 0.28559 0.7933 0.0
H619 H 0.35047 0.3184 0.72928 0.0
H620 H 0.3559 0.19288 0.67097 0.0
H621 H 0.38016 0.18333 0.62816 0.0
O622 O 0.40854 0.32146 0.66737 0.0
C623 C 0.37135 0.34025 0.61737 0.0
C624 C 0.39047 0.23157 0.62311 0.0
C625 C 0.36511 0.21202 0.66044 0.0
N626 N 0.37514 0.26662 0.65773 0.0
C627 C 0.38843 0.26155 0.6341 0.0
C628 C 0.36346 0.24231 0.67082 0.0
C629 C 0.37873 0.20668 0.63643 0.0
C630 C 0.33906 0.4 0.68638 0.0
N631 N 0.35584 0.40258 0.66568 0.0
C632 C 0.31684 0.41077 0.68213 0.0
C633 C 0.31173 0.42423 0.65642 0.0
C634 C 0.32877 0.42657 0.63526 0.0
C635 C 0.35075 0.41544 0.64023 0.0
C636 C 0.41526 0.47886 0.65778 0.0
C637 C 0.42082 0.41999 0.63605 0.0
C638 C 0.40189 0.45281 0.66792 0.0
N639 N 0.40472 0.42381 0.65699 0.0
C640 C 0.43436 0.44551 0.62523 0.0
C641 C 0.43152 0.47512 0.63621 0.0
C642 C 0.42439 0.34621 0.67293 0.0
C643 C 0.37217 0.30282 0.76375 0.0
C644 C 0.40126 0.28782 0.71936 0.0
C645 C 0.40754 0.2822 0.7484 0.0
C646 C 0.39287 0.2898 0.7707 0.0
N647 N 0.38093 0.30062 0.71271 0.0
C648 C 0.36645 0.30808 0.73446 0.0
Co649 Co 0.65228 0.35757 0.6439 0.0
Co650 Co 0.65119 0.3279 0.71134 0.0
O651 O 0.66213 0.32988 0.67155 0.0
C652 C 0.6382 0.29718 0.60642 0.0
O653 O 0.62407 0.28669 0.62656 0.0
C654 C 0.7056 0.33967 0.72214 0.0
O655 O 0.70571 0.36394 0.7075 0.0
O656 O 0.65981 0.37364 0.72092 0.0
O657 O 0.65439 0.39141 0.67653 0.0
H658 H 0.60646 0.3584 0.79887 0.0
H659 H 0.6943 0.32537 0.63306 0.0
O660 O 0.65051 0.32445 0.61033 0.0
H661 H 0.72834 0.43636 0.63867 0.0
H662 H 0.652 0.40457 0.54713 0.0
H663 H 0.61834 0.40301 0.64466 0.0
H664 H 0.68428 0.4189 0.64376 0.0
H665 H 0.66477 0.37033 0.58293 0.0
O666 O 0.68525 0.32293 0.72619 0.0
H667 H 0.61985 0.36122 0.74845 0.0
H668 H 0.66074 0.28913 0.75965 0.0
H669 H 0.6053 0.4379 0.60967 0.0
H670 H 0.73844 0.3418 0.62761 0.0
H671 H 0.62216 0.4388 0.5605 0.0
H672 H 0.75574 0.39766 0.6305 0.0
O673 O 0.6168 0.34396 0.64964 0.0
H674 H 0.66506 0.22258 0.67194 0.0
H675 H 0.60663 0.2817 0.71773 0.0
H676 H 0.5946 0.22547 0.70508 0.0
H677 H 0.62396 0.19552 0.68208 0.0
H678 H 0.67626 0.27888 0.68471 0.0
H679 H 0.64798 0.28567 0.8103 0.0
H680 H 0.62055 0.32039 0.83017 0.0
O681 O 0.61711 0.33283 0.69697 0.0
C682 C 0.65853 0.39542 0.70464 0.0
C683 C 0.61836 0.34309 0.79044 0.0
C684 C 0.64169 0.3023 0.79686 0.0
N685 N 0.64091 0.32524 0.75105 0.0
C686 C 0.62595 0.34454 0.76188 0.0
C687 C 0.6489 0.30442 0.7682 0.0
C688 C 0.62629 0.32177 0.80799 0.0
C689 C 0.70167 0.34971 0.63411 0.0
N690 N 0.68673 0.37115 0.63865 0.0
C691 C 0.72668 0.35888 0.6311 0.0
C692 C 0.73638 0.39023 0.63276 0.0
C693 C 0.72102 0.41195 0.63736 0.0
C694 C 0.6961 0.40193 0.64031 0.0
C695 C 0.64456 0.40443 0.56851 0.0
C696 C 0.62588 0.40343 0.62338 0.0
C697 C 0.65167 0.38502 0.58884 0.0
N698 N 0.64243 0.38483 0.61594 0.0
C699 C 0.61837 0.42316 0.60362 0.0
C700 C 0.62782 0.42363 0.57603 0.0
C701 C 0.60587 0.33742 0.67268 0.0
C702 C 0.65214 0.23537 0.68203 0.0
C703 C 0.61947 0.26884 0.70764 0.0
C704 C 0.61258 0.237 0.70059 0.0
C705 C 0.62906 0.2202 0.68769 0.0
N706 N 0.64218 0.28353 0.70212 0.0
C707 C 0.65841 0.26724 0.68941 0.0
Co708 Co 0.62949 0.32598 0.37213 0.0
Co709 Co 0.62948 0.25814 0.33043 0.0
O710 O 0.64421 0.30164 0.34206 0.0
C711 C 0.63723 0.37106 0.32698 0.0
O712 O 0.6263 0.34962 0.30615 0.0
C713 C 0.68377 0.25767 0.33609 0.0
O714 O 0.68676 0.27969 0.35811 0.0
O715 O 0.63452 0.24954 0.37249 0.0
O716 O 0.61804 0.28861 0.39263 0.0
H717 H 0.57337 0.15895 0.3414 0.0
H718 H 0.68158 0.34689 0.36183 0.0
O719 O 0.64051 0.36466 0.35351 0.0
H720 H 0.68272 0.32886 0.46729 0.0
H721 H 0.62583 0.41875 0.44397 0.0
H722 H 0.582 0.31674 0.39947 0.0
H723 H 0.64355 0.32089 0.43599 0.0
H724 H 0.64484 0.38756 0.40733 0.0
O725 O 0.66252 0.24728 0.32304 0.0
H726 H 0.5918 0.21369 0.35457 0.0
H727 H 0.6369 0.20995 0.28293 0.0
H728 H 0.5624 0.34707 0.43617 0.0
H729 H 0.72118 0.35584 0.39254 0.0
H730 H 0.58435 0.39848 0.45871 0.0
H731 H 0.72192 0.34661 0.44562 0.0
O732 O 0.59804 0.31795 0.34658 0.0
H733 H 0.65611 0.30506 0.23901 0.0
H734 H 0.58775 0.24385 0.28299 0.0
H735 H 0.58171 0.25644 0.23159 0.0
H736 H 0.61606 0.2872 0.20924 0.0
H737 H 0.66129 0.29215 0.29045 0.0
H738 H 0.61912 0.1551 0.26917 0.0
H739 H 0.58704 0.12927 0.29842 0.0
O740 O 0.5954 0.26689 0.33658 0.0
C741 C 0.62563 0.26305 0.39411 0.0
C742 C 0.58729 0.16996 0.32843 0.0
C743 C 0.61299 0.16779 0.28792 0.0
N744 N 0.61527 0.21507 0.31943 0.0
C745 C 0.59775 0.20098 0.33574 0.0
C746 C 0.62303 0.19885 0.29587 0.0
C747 C 0.59498 0.15332 0.30433 0.0
C748 C 0.68175 0.34317 0.385 0.0
N749 N 0.66029 0.33325 0.39703 0.0
C750 C 0.70423 0.34814 0.40225 0.0
C751 C 0.70463 0.34291 0.43202 0.0
C752 C 0.68265 0.33293 0.44418 0.0
C753 C 0.66053 0.32828 0.42628 0.0
C754 C 0.61608 0.39638 0.43431 0.0
C755 C 0.59171 0.33905 0.4092 0.0
C756 C 0.62672 0.37865 0.41346 0.0
N757 N 0.61458 0.3503 0.40127 0.0
C758 C 0.5805 0.35614 0.42996 0.0
C759 C 0.59281 0.38499 0.44258 0.0
C760 C 0.58571 0.29127 0.33777 0.0
C761 C 0.64103 0.29156 0.24847 0.0
C762 C 0.60277 0.25731 0.27346 0.0
C763 C 0.59925 0.26432 0.24432 0.0
C764 C 0.61854 0.28157 0.23179 0.0
N765 N 0.62491 0.26714 0.28965 0.0
C766 C 0.64388 0.2841 0.27754 0.0
Co767 Co 0.60581 0.63837 0.2941 0.0
Co768 Co 0.64494 0.70782 0.31208 0.0
O769 O 0.63712 0.66577 0.29113 0.0
C770 C 0.64073 0.59578 0.30889 0.0
O771 O 0.65317 0.61727 0.32869 0.0
C772 C 0.6627 0.71421 0.25116 0.0
O773 O 0.64632 0.69042 0.2396 0.0
O774 O 0.61392 0.71851 0.29372 0.0
O775 O 0.5877 0.67395 0.29448 0.0
H776 H 0.62643 0.8005 0.37348 0.0
H777 H 0.63645 0.6229 0.24591 0.0
O778 O 0.62245 0.60136 0.293 0.0
H779 H 0.55708 0.63444 0.19558 0.0
H780 H 0.54272 0.5414 0.27005 0.0
H781 H 0.56376 0.64231 0.33029 0.0
H782 H 0.5637 0.6411 0.25014 0.0
H783 H 0.58165 0.57611 0.26526 0.0
O784 O 0.66364 0.72361 0.27862 0.0
H785 H 0.6172 0.74786 0.34755 0.0
H786 H 0.68973 0.75691 0.32053 0.0
H787 H 0.5245 0.60844 0.33555 0.0
H788 H 0.6305 0.61547 0.19127 0.0
H789 H 0.51378 0.55756 0.30532 0.0
H790 H 0.59062 0.62142 0.16576 0.0
O791 O 0.61133 0.644 0.33824 0.0
H792 H 0.72236 0.66211 0.312 0.0
H793 H 0.6691 0.71533 0.37377 0.0
H794 H 0.70645 0.70071 0.39716 0.0
H795 H 0.73342 0.67397 0.3662 0.0
H796 H 0.68471 0.67686 0.28956 0.0
H797 H 0.69971 0.80973 0.34597 0.0
H798 H 0.66796 0.83184 0.37278 0.0
O799 O 0.62737 0.69428 0.34691 0.0
C800 C 0.59226 0.7026 0.29116 0.0
C801 C 0.64042 0.79114 0.36187 0.0
C802 C 0.68154 0.79632 0.34641 0.0
N803 N 0.65284 0.74928 0.33249 0.0
C804 C 0.63528 0.76133 0.34715 0.0
C805 C 0.67573 0.76642 0.33194 0.0
C806 C 0.66372 0.80871 0.36146 0.0
C807 C 0.61899 0.6253 0.23495 0.0
N808 N 0.60053 0.63269 0.25117 0.0
C809 C 0.61575 0.62116 0.20401 0.0
C810 C 0.59339 0.62455 0.18971 0.0
C811 C 0.57458 0.63191 0.20642 0.0
C812 C 0.57849 0.63587 0.23731 0.0
C813 C 0.54718 0.56351 0.28334 0.0
C814 C 0.55917 0.62026 0.31695 0.0
C815 C 0.56925 0.58323 0.2808 0.0
N816 N 0.57495 0.61126 0.29742 0.0
C817 C 0.53694 0.60116 0.32007 0.0
C818 C 0.53094 0.5726 0.30312 0.0
C819 C 0.618 0.66873 0.35572 0.0
C820 C 0.71081 0.67386 0.32571 0.0
C821 C 0.6807 0.70365 0.36013 0.0
C822 C 0.70186 0.69547 0.3735 0.0
C823 C 0.71699 0.68048 0.35612 0.0
N824 N 0.67481 0.6972 0.33025 0.0
C825 C 0.68951 0.6824 0.31309 0.0
Co826 Co 0.40367 0.72401 0.37477 0.0
Co827 Co 0.36889 0.69621 0.30857 0.0
O828 O 0.37423 0.72137 0.34728 0.0
C829 C 0.3646 0.70335 0.41375 0.0
O830 O 0.35414 0.68243 0.39223 0.0
C831 C 0.35619 0.75778 0.29564 0.0
O832 O 0.37296 0.77247 0.31617 0.0
O833 O 0.40219 0.71456 0.29738 0.0
O834 O 0.42493 0.72592 0.34123 0.0
H835 H 0.39177 0.62515 0.22629 0.0
H836 H 0.36925 0.76771 0.38556 0.0
O837 O 0.38349 0.72262 0.40954 0.0
H838 H 0.44898 0.83273 0.37507 0.0
H839 H 0.45835 0.76153 0.46875 0.0
H840 H 0.4481 0.6947 0.3741 0.0
H841 H 0.44505 0.77606 0.37179 0.0
H842 H 0.42163 0.75872 0.4339 0.0
O843 O 0.35362 0.72862 0.28991 0.0
H844 H 0.39805 0.6568 0.27467 0.0
H845 H 0.32759 0.68189 0.26066 0.0
H846 H 0.48526 0.69708 0.40815 0.0
H847 H 0.37239 0.82434 0.38948 0.0
H848 H 0.49054 0.73066 0.45588 0.0
H849 H 0.41246 0.85723 0.38406 0.0
O850 O 0.40028 0.67801 0.3717 0.0
H851 H 0.28733 0.69946 0.34997 0.0
H852 H 0.34082 0.63196 0.30587 0.0
H853 H 0.30056 0.60883 0.32093 0.0
H854 H 0.27345 0.64267 0.34308 0.0
H855 H 0.32789 0.72158 0.33497 0.0
H856 H 0.32062 0.65074 0.21203 0.0
H857 H 0.35281 0.62199 0.19458 0.0
O858 O 0.38289 0.6624 0.32564 0.0
C859 C 0.42267 0.72354 0.31301 0.0
C860 C 0.37761 0.63761 0.23362 0.0
C861 C 0.3377 0.652 0.2256 0.0
N862 N 0.3633 0.67135 0.27043 0.0
C863 C 0.38108 0.65558 0.26099 0.0
C864 C 0.34182 0.66975 0.2531 0.0
C865 C 0.35576 0.63585 0.21584 0.0
C866 C 0.38677 0.78191 0.38339 0.0
N867 N 0.4069 0.76862 0.37821 0.0
C868 C 0.38843 0.81394 0.38554 0.0
C869 C 0.41091 0.83238 0.38245 0.0
C870 C 0.43139 0.81865 0.37735 0.0
C871 C 0.42903 0.78655 0.37531 0.0
C872 C 0.45627 0.74682 0.44801 0.0
C873 C 0.45034 0.70949 0.39476 0.0
C874 C 0.43547 0.74506 0.42824 0.0
N875 N 0.43277 0.72665 0.40194 0.0
C876 C 0.47139 0.71069 0.41398 0.0
C877 C 0.47433 0.72951 0.44077 0.0
C878 C 0.3927 0.65702 0.35033 0.0
C879 C 0.29896 0.68447 0.34029 0.0
C880 C 0.32924 0.64684 0.31566 0.0
C881 C 0.3064 0.63361 0.32405 0.0
C882 C 0.29119 0.65261 0.33645 0.0
N883 N 0.33674 0.67812 0.31945 0.0
C884 C 0.32192 0.69688 0.33163 0.0
Co885 Co 0.41118 0.37701 0.35321 0.0
Co886 Co 0.36156 0.31951 0.33568 0.0
O887 O 0.37901 0.36115 0.33135 0.0
C888 C 0.3846 0.42988 0.36406 0.0
O889 O 0.36491 0.41069 0.36903 0.0
C890 C 0.34617 0.29388 0.27314 0.0
O891 O 0.35947 0.27236 0.27731 0.0
O892 O 0.39066 0.30214 0.32239 0.0
O893 O 0.4203 0.33504 0.35058 0.0
H894 H 0.35492 0.21236 0.36647 0.0
H895 H 0.396 0.40503 0.29979 0.0
O896 O 0.4038 0.41988 0.35664 0.0
H897 H 0.47431 0.37112 0.27923 0.0
H898 H 0.48929 0.45376 0.38118 0.0
H899 H 0.44037 0.35547 0.40186 0.0
H900 H 0.4567 0.36342 0.32682 0.0
H901 H 0.44952 0.43311 0.35262 0.0
O902 O 0.34681 0.31615 0.2934 0.0
H903 H 0.37575 0.26522 0.36146 0.0
H904 H 0.31058 0.28488 0.3178 0.0
H905 H 0.48014 0.37516 0.43074 0.0
H906 H 0.41309 0.41349 0.25192 0.0
H907 H 0.50491 0.42464 0.42047 0.0
H908 H 0.4525 0.39641 0.24139 0.0
O909 O 0.39649 0.36972 0.39083 0.0
H910 H 0.29892 0.38963 0.32946 0.0
H911 H 0.32942 0.31137 0.3857 0.0
H912 H 0.29471 0.33482 0.40269 0.0
H913 H 0.27915 0.37417 0.37441 0.0
H914 H 0.33387 0.36593 0.31353 0.0
H915 H 0.28909 0.23221 0.3222 0.0
H916 H 0.31127 0.19555 0.34673 0.0
O917 O 0.37491 0.32214 0.37855 0.0
C918 C 0.41274 0.31008 0.33386 0.0
C919 C 0.34505 0.22812 0.35575 0.0
C920 C 0.3081 0.23926 0.3309 0.0
N921 N 0.34442 0.27812 0.33936 0.0
C922 C 0.35675 0.25808 0.35286 0.0
C923 C 0.32039 0.26904 0.32845 0.0
C924 C 0.32056 0.2187 0.34466 0.0
C925 C 0.41321 0.39768 0.29537 0.0
N926 N 0.42534 0.3838 0.31605 0.0
C927 C 0.42278 0.40248 0.26824 0.0
C928 C 0.44489 0.39288 0.26234 0.0
C929 C 0.45714 0.3787 0.28355 0.0
C930 C 0.44704 0.37433 0.31043 0.0
C931 C 0.47869 0.43214 0.38583 0.0
C932 C 0.45108 0.37694 0.39713 0.0
C933 C 0.45611 0.42037 0.36978 0.0
N934 N 0.44268 0.39299 0.37542 0.0
C935 C 0.47357 0.38801 0.41362 0.0
C936 C 0.48744 0.41579 0.40786 0.0
C937 C 0.38479 0.34446 0.39784 0.0
C938 C 0.3055 0.37246 0.34194 0.0
C939 C 0.32295 0.32868 0.37344 0.0
C940 C 0.30318 0.34177 0.38308 0.0
C941 C 0.29444 0.36382 0.36718 0.0
N942 N 0.3337 0.33726 0.34864 0.0
C943 C 0.32523 0.35887 0.33296 0.0
H944 H 0.34026 0.2519 0.22363 0.0
H945 H 0.30586 0.32219 0.26811 0.0
H946 H 0.30336 0.23616 0.18902 0.0
H947 H 0.26908 0.30607 0.23389 0.0
H948 H 0.19974 0.23154 0.20269 0.0
H949 H 0.23903 0.25314 0.23019 0.0
H950 H 0.27389 0.25699 0.14838 0.0
H951 H 0.23405 0.2357 0.12038 0.0
C952 C 0.32509 0.26442 0.22567 0.0
C953 C 0.32603 0.28821 0.24879 0.0
C954 C 0.30399 0.25541 0.2058 0.0
C955 C 0.28328 0.26969 0.20897 0.0
C956 C 0.28471 0.2945 0.23108 0.0
C957 C 0.30588 0.30383 0.25059 0.0
C958 C 0.21571 0.23689 0.19041 0.0
C959 C 0.21374 0.23176 0.15928 0.0
C960 C 0.2382 0.24953 0.20623 0.0
C961 C 0.25948 0.25694 0.19143 0.0
C962 C 0.25773 0.2515 0.16032 0.0
C963 C 0.23498 0.23938 0.14433 0.0
H964 H 0.68382 0.19921 0.31188 0.0
H965 H 0.73151 0.28677 0.3364 0.0
H966 H 0.71782 0.17765 0.2925 0.0
H967 H 0.7654 0.26611 0.31495 0.0
H968 H 0.7742 0.15497 0.23101 0.0
H969 H 0.74123 0.17607 0.25356 0.0
H970 H 0.79469 0.23505 0.31703 0.0
H971 H 0.82769 0.21531 0.29278 0.0
C972 C 0.70165 0.21393 0.31288 0.0
C973 C 0.70502 0.24468 0.3256 0.0
C974 C 0.72119 0.20167 0.30144 0.0
C975 C 0.74456 0.22008 0.30156 0.0
C976 C 0.74793 0.25088 0.31471 0.0
C977 C 0.72845 0.2629 0.32691 0.0
C978 C 0.77885 0.17239 0.24984 0.0
C979 C 0.8035 0.18344 0.26015 0.0
C980 C 0.75989 0.18443 0.26304 0.0
C981 C 0.76501 0.20732 0.28748 0.0
C982 C 0.78982 0.21797 0.298 0.0
C983 C 0.80882 0.20645 0.28427 0.0
H984 H 0.77793 0.83155 0.16978 0.0
H985 H 0.80168 0.74397 0.17712 0.0
H986 H 0.73815 0.81067 0.18686 0.0
H987 H 0.7619 0.72312 0.19379 0.0
H988 H 0.6798 0.68862 0.20111 0.0
H989 H 0.71571 0.71006 0.17624 0.0
H990 H 0.72593 0.79317 0.23687 0.0
H991 H 0.69042 0.77171 0.2619 0.0
C992 C 0.77455 0.80774 0.17459 0.0
C993 C 0.79301 0.78946 0.17217 0.0
C994 C 0.75181 0.79584 0.18449 0.0
C995 C 0.74689 0.76524 0.19165 0.0
C996 C 0.76503 0.74667 0.18818 0.0
C997 C 0.78789 0.7587 0.17879 0.0
C998 C 0.68948 0.71165 0.20879 0.0
C999 C 0.6823 0.72842 0.23352 0.0
C1000 C 0.71012 0.72384 0.19468 0.0
C1001 C 0.72367 0.75328 0.20464 0.0
C1002 C 0.71578 0.77055 0.22852 0.0
C1003 C 0.69548 0.75817 0.24294 0.0
H1004 H 0.34634 0.81617 0.31116 0.0
H1005 H 0.32287 0.73487 0.24883 0.0
H1006 H 0.31054 0.83758 0.29284 0.0
H1007 H 0.28738 0.75596 0.23117 0.0
H1008 H 0.21116 0.78049 0.24251 0.0
H1009 H 0.24983 0.76532 0.25889 0.0
H1010 H 0.28931 0.85439 0.24372 0.0
H1011 H 0.25038 0.86975 0.22689 0.0
C1012 C 0.33388 0.80313 0.29327 0.0
C1013 C 0.33731 0.77359 0.28179 0.0
C1014 C 0.31339 0.81537 0.28284 0.0
C1015 C 0.29599 0.79813 0.26098 0.0
C1016 C 0.30024 0.76948 0.24844 0.0
C1017 C 0.32066 0.75744 0.25858 0.0
C1018 C 0.228 0.79699 0.24275 0.0
C1019 C 0.22766 0.82632 0.23329 0.0
C1020 C 0.25018 0.78821 0.25201 0.0
C1021 C 0.27258 0.80861 0.25236 0.0
C1022 C 0.27229 0.83827 0.24371 0.0
C1023 C 0.25003 0.84696 0.234 0.0
H1024 H 0.32112 0.72306 0.78307 0.0
H1025 H 0.27061 0.63946 0.75024 0.0
H1026 H 0.2877 0.744 0.80555 0.0
H1027 H 0.23741 0.66022 0.77301 0.0
H1028 H 0.17928 0.72137 0.78408 0.0
H1029 H 0.21364 0.7009 0.76439 0.0
H1030 H 0.2591 0.73717 0.84507 0.0
H1031 H 0.22452 0.75814 0.8649 0.0
C1032 C 0.30295 0.70904 0.78083 0.0
C1033 C 0.29855 0.6796 0.76474 0.0
C1034 C 0.28383 0.721 0.79387 0.0
C1035 C 0.25984 0.70387 0.79095 0.0
C1036 C 0.25559 0.67422 0.77532 0.0
C1037 C 0.27469 0.66222 0.76241 0.0
C1038 C 0.19655 0.72507 0.79774 0.0
C1039 C 0.19905 0.74135 0.82619 0.0
C1040 C 0.21626 0.71311 0.78646 0.0
C1041 C 0.23909 0.71712 0.80322 0.0
C1042 C 0.24178 0.73379 0.83153 0.0
C1043 C 0.22194 0.74571 0.84293 0.0
H1044 H 0.1914 0.27666 0.77005 0.0
H1045 H 0.18075 0.1938 0.70892 0.0
H1046 H 0.22699 0.29816 0.74513 0.0
H1047 H 0.21667 0.21529 0.68418 0.0
H1048 H 0.30231 0.24874 0.6838 0.0
H1049 H 0.26277 0.22808 0.70122 0.0
H1050 H 0.23932 0.31597 0.69546 0.0
H1051 H 0.27885 0.33666 0.67766 0.0
C1052 C 0.19646 0.26319 0.75103 0.0
C1053 C 0.18323 0.23349 0.74149 0.0
C1054 C 0.21681 0.27558 0.73669 0.0
C1055 C 0.22471 0.25839 0.71276 0.0
C1056 C 0.21111 0.22901 0.70268 0.0
C1057 C 0.19044 0.2168 0.71672 0.0
C1058 C 0.28864 0.26359 0.68594 0.0
C1059 C 0.29377 0.29438 0.67936 0.0
C1060 C 0.26593 0.25168 0.69576 0.0
C1061 C 0.24791 0.27038 0.69971 0.0
C1062 C 0.25288 0.30104 0.69273 0.0
C1063 C 0.27547 0.31282 0.68241 0.0
H1064 H 0.84803 0.31766 0.80819 0.0
H1065 H 0.82344 0.23721 0.74511 0.0
H1066 H 0.81229 0.33974 0.79087 0.0
H1067 H 0.78797 0.25893 0.72851 0.0
H1068 H 0.7122 0.2849 0.74178 0.0
H1069 H 0.75075 0.26871 0.75713 0.0
H1070 H 0.79099 0.35739 0.74207 0.0
H1071 H 0.75222 0.37373 0.72623 0.0
C1072 C 0.83533 0.30494 0.79035 0.0
C1073 C 0.83849 0.27545 0.77835 0.0
C1074 C 0.81487 0.31756 0.7805 0.0
C1075 C 0.79717 0.30076 0.75872 0.0
C1076 C 0.80108 0.27213 0.7457 0.0
C1077 C 0.82151 0.25974 0.75524 0.0
C1078 C 0.7292 0.30108 0.74182 0.0
C1079 C 0.72911 0.3306 0.73268 0.0
C1080 C 0.7513 0.29173 0.75049 0.0
C1081 C 0.77386 0.31174 0.75062 0.0
C1082 C 0.77384 0.34156 0.74224 0.0
C1083 C 0.75167 0.35081 0.73308 0.0
H1084 H 0.81094 0.74072 0.75825 0.0
H1085 H 0.81212 0.82858 0.72338 0.0
H1086 H 0.77634 0.71784 0.72258 0.0
H1087 H 0.77733 0.80555 0.68761 0.0
H1088 H 0.69358 0.76193 0.66636 0.0
H1089 H 0.73281 0.78561 0.69327 0.0
H1090 H 0.76303 0.70379 0.66839 0.0
H1091 H 0.72368 0.67999 0.6413 0.0
C1092 C 0.80406 0.75507 0.74267 0.0
C1093 C 0.81427 0.78656 0.7438 0.0
C1094 C 0.78428 0.74187 0.72209 0.0
C1095 C 0.77399 0.75988 0.70232 0.0
C1096 C 0.78473 0.79112 0.70272 0.0
C1097 C 0.80477 0.80426 0.72308 0.0
C1098 C 0.70868 0.74911 0.66624 0.0
C1099 C 0.70543 0.719 0.65173 0.0
C1100 C 0.73123 0.76279 0.68154 0.0
C1101 C 0.75105 0.74658 0.68306 0.0
C1102 C 0.74806 0.7168 0.66781 0.0
C1103 C 0.72556 0.70325 0.65213 0.0
H1104 H 0.12408 0.21624 0.90558 0.0
H1105 H 0.12261 0.1177 0.89494 0.0
H1106 H 0.12503 0.21553 0.95912 0.0
H1107 H 0.12416 0.11715 0.9485 0.0
H1108 H 0.1529 0.20712 0.05575 0.0
H1109 H 0.15117 0.20902 0.00202 0.0
H1110 H 0.10023 0.12265 0.98934 0.0
H1111 H 0.10244 0.12028 0.04233 0.0
C1112 C 0.1239 0.19437 0.91461 0.0
C1113 C 0.12317 0.16698 0.89579 0.0
C1114 C 0.12468 0.19405 0.94542 0.0
C1115 C 0.12476 0.16633 0.9583 0.0
C1116 C 0.12377 0.1389 0.93944 0.0
C1117 C 0.12291 0.1392 0.90863 0.0
C1118 C 0.14135 0.18858 0.04146 0.0
C1119 C 0.12799 0.16348 0.05353 0.0
C1120 C 0.14024 0.18972 0.01063 0.0
C1121 C 0.12568 0.16584 0.99119 0.0
C1122 C 0.11205 0.14112 0.00342 0.0
C1123 C 0.11323 0.13991 0.03403 0.0
H1124 H 0.87859 0.24132 0.95739 0.0
H1125 H 0.82262 0.16172 0.92854 0.0
H1126 H 0.87138 0.23546 0.00832 0.0
H1127 H 0.81414 0.15689 0.98003 0.0
H1128 H 0.85374 0.22645 0.10024 0.0
H1129 H 0.84868 0.23734 0.04877 0.0
H1130 H 0.83315 0.1393 0.02069 0.0
H1131 H 0.83672 0.12872 0.07195 0.0
C1132 C 0.86426 0.22291 0.96186 0.0
C1133 C 0.85158 0.20154 0.9388 0.0
C1134 C 0.85989 0.21975 0.99131 0.0
C1135 C 0.84235 0.19542 0.99864 0.0
C1136 C 0.82826 0.17544 0.97538 0.0
C1137 C 0.83293 0.17836 0.94578 0.0
C1138 C 0.84883 0.20732 0.08302 0.0
C1139 C 0.8459 0.17677 0.09013 0.0
C1140 C 0.84606 0.21349 0.05345 0.0
C1141 C 0.84086 0.18923 0.03027 0.0
C1142 C 0.83681 0.15869 0.0377 0.0
C1143 C 0.83908 0.15257 0.06723 0.0
H1144 H 0.86512 0.78388 0.92119 0.0
H1145 H 0.88564 0.88316 0.93598 0.0
H1146 H 0.86551 0.78143 0.97459 0.0
H1147 H 0.88516 0.88078 0.98894 0.0
H1148 H 0.90839 0.86698 0.08176 0.0
H1149 H 0.90852 0.86528 0.02854 0.0
H1150 H 0.84423 0.79361 0.01794 0.0
H1151 H 0.84463 0.79462 0.072 0.0
C1152 C 0.86964 0.80521 0.93576 0.0
C1153 C 0.87545 0.83376 0.92417 0.0
C1154 C 0.86967 0.80378 0.96639 0.0
C1155 C 0.87547 0.83086 0.98615 0.0
C1156 C 0.88108 0.85936 0.97449 0.0
C1157 C 0.88122 0.86077 0.94397 0.0
C1158 C 0.89423 0.85076 0.06822 0.0
C1159 C 0.87628 0.83119 0.0812 0.0
C1160 C 0.89424 0.84992 0.03756 0.0
C1161 C 0.87611 0.82975 0.01884 0.0
C1162 C 0.85853 0.80939 0.03171 0.0
C1163 C 0.85868 0.81001 0.06265 0.0
H1164 H 0.1041 0.74694 0.08038 0.0
H1165 H 0.17151 0.80495 0.06378 0.0
H1166 H 0.09957 0.72375 0.02878 0.0
H1167 H 0.16704 0.78193 0.01267 0.0
H1168 H 0.15893 0.73845 0.92226 0.0
H1169 H 0.16464 0.73596 0.97584 0.0
H1170 H 0.08959 0.74905 0.98375 0.0
H1171 H 0.0841 0.75164 0.93057 0.0
C1172 C 0.11823 0.75418 0.06596 0.0
C1173 C 0.13794 0.7781 0.07598 0.0
C1174 C 0.11563 0.74094 0.03644 0.0
C1175 C 0.1329 0.75106 0.0166 0.0
C1176 C 0.15354 0.77332 0.02737 0.0
C1177 C 0.15597 0.78678 0.05664 0.0
C1178 C 0.14334 0.7391 0.93531 0.0
C1179 C 0.12109 0.7452 0.92243 0.0
C1180 C 0.14667 0.73808 0.96601 0.0
C1181 C 0.12766 0.74273 0.98408 0.0
C1182 C 0.10455 0.74516 0.97052 0.0
C1183 C 0.10136 0.74662 0.94002 0.0
H1184 H 0.04624 0.10526 0.14329 0.0
H1185 H 0.06274 0.20482 0.14803 0.0
H1186 H 1.00335 0.10795 0.15005 0.0
H1187 H 0.01973 0.20733 0.1553 0.0
H1188 H 0.94811 0.19421 0.2065 0.0
H1189 H 0.9908 0.19455 0.1958 0.0
H1190 H 0.96678 0.12394 0.12279 0.0
H1191 H 0.92412 0.12365 0.13315 0.0
C1192 C 0.04079 0.12775 0.14576 0.0
C1193 C 0.05814 0.15485 0.14545 0.0
C1194 C 0.01613 0.12924 0.14948 0.0
C1195 C 0.00819 0.15785 0.15331 0.0
C1196 C 0.02539 0.18497 0.1527 0.0
C1197 C 0.05004 0.18348 0.14852 0.0
C1198 C 0.95186 0.17897 0.18797 0.0
C1199 C 0.93258 0.15888 0.17073 0.0
C1200 C 0.97634 0.17927 0.18179 0.0
C1201 C 0.98213 0.1592 0.15853 0.0
C1202 C 0.96289 0.13948 0.14102 0.0
C1203 C 0.93841 0.13946 0.14691 0.0
H1204 H 0.84132 0.92721 0.2474 0.0
H1205 H 0.92055 0.94489 0.25808 0.0
H1206 H 0.84078 0.98193 0.25958 0.0
H1207 H 0.92024 0.99945 0.27219 0.0
H1208 H 0.90759 0.08271 0.22114 0.0
H1209 H 0.91236 0.03307 0.23693 0.0
H1210 H 0.8481 0.03275 0.28603 0.0
H1211 H 0.84322 0.08292 0.26923 0.0
C1212 C 0.85857 0.94259 0.25424 0.0
C1213 C 0.88098 0.93203 0.25177 0.0
C1214 C 0.85832 0.97407 0.26119 0.0
C1215 C 0.88052 0.99535 0.26607 0.0
C1216 C 0.90281 0.98386 0.2677 0.0
C1217 C 0.90305 0.95256 0.26006 0.0
C1218 C 0.89503 0.0725 0.2362 0.0
C1219 C 0.87515 0.08648 0.24413 0.0
C1220 C 0.8978 0.04403 0.24548 0.0
C1221 C 0.88059 0.02866 0.26283 0.0
C1222 C 0.86159 0.04383 0.27255 0.0
C1223 C 0.8589 0.07262 0.26324 0.0
H1224 H 0.94546 0.78967 0.16945 0.0
H1225 H 0.96385 0.88924 0.17736 0.0
H1226 H 0.9889 0.78623 0.16701 0.0
H1227 H 0.00716 0.88558 0.17442 0.0
H1228 H 0.07796 0.86383 0.13493 0.0
H1229 H 0.03402 0.86545 0.13565 0.0
H1230 H 0.02845 0.80122 0.20178 0.0
H1231 H 0.0723 0.79978 0.20144 0.0
C1232 C 0.95871 0.81083 0.17079 0.0
C1233 C 0.95107 0.83974 0.17376 0.0
C1234 C 0.9836 0.80882 0.16938 0.0
C1235 C 1.0014 0.83563 0.17037 0.0
C1236 C 0.99382 0.86452 0.17328 0.0
C1237 C 0.96899 0.86657 0.17518 0.0
C1238 C 0.06734 0.8498 0.14941 0.0
C1239 C 0.07873 0.83166 0.16812 0.0
C1240 C 0.04222 0.85092 0.14996 0.0
C1241 C 0.02784 0.83355 0.16886 0.0
C1242 C 0.03903 0.81471 0.18687 0.0
C1243 C 0.06419 0.81396 0.18669 0.0
H1244 H 0.16981 0.08789 0.23104 0.0
H1245 H 0.09982 0.03999 0.18907 0.0
H1246 H 0.17846 0.03954 0.24843 0.0
H1247 H 0.1082 0.99208 0.20684 0.0
H1248 H 0.12494 0.90847 0.24169 0.0
H1249 H 0.11834 0.96193 0.25114 0.0
H1250 H 0.18569 0.99341 0.21213 0.0
H1251 H 0.19191 0.94014 0.20229 0.0
C1252 C 0.15588 0.06734 0.22657 0.0
C1253 C 0.13422 0.06754 0.20856 0.0
C1254 C 0.16087 0.03971 0.23644 0.0
C1255 C 0.14401 0.0121 0.22898 0.0
C1256 C 0.1214 0.01304 0.21328 0.0
C1257 C 0.11665 0.04042 0.20293 0.0
C1258 C 0.13889 0.927 0.23654 0.0
C1259 C 0.15894 0.92042 0.22136 0.0
C1260 C 0.13503 0.95751 0.24172 0.0
C1261 C 0.15142 0.98175 0.2322 0.0
C1262 C 0.17288 0.97526 0.21999 0.0
C1263 C 0.17646 0.9448 0.21431 0.0
H1264 H 0.92651 0.77169 0.86129 0.0
H1265 H 0.93336 0.8159 0.78099 0.0
H1266 H 0.9694 0.76388 0.86117 0.0
H1267 H 0.97643 0.80911 0.78131 0.0
H1268 H 0.0459 0.74173 0.83814 0.0
H1269 H 1.00133 0.73885 0.82991 0.0
H1270 H 0.012 0.83646 0.82116 0.0
H1271 H 0.0565 0.83961 0.82995 0.0
C1272 C 0.93693 0.77856 0.84299 0.0
C1273 C 0.92671 0.79409 0.82098 0.0
C1274 C 0.96149 0.77437 0.84304 0.0
C1275 C 0.97627 0.78627 0.82143 0.0
C1276 C 0.96549 0.8 0.79836 0.0
C1277 C 0.94086 0.80368 0.79806 0.0
C1278 C 0.03876 0.76256 0.83427 0.0
C1279 C 0.05474 0.79097 0.83479 0.0
C1280 C 0.01326 0.76086 0.82963 0.0
C1281 C 1.00328 0.78736 0.82473 0.0
C1282 C 0.01926 0.81559 0.82455 0.0
C1283 C 0.0447 0.81744 0.82978 0.0
H1284 H 0.1479 0.89827 0.78463 0.0
H1285 H 0.14585 0.92065 0.87879 0.0
H1286 H 0.15926 0.95316 0.779 0.0
H1287 H 0.15585 0.97493 0.87316 0.0
H1288 H 0.18216 0.07219 0.86301 0.0
H1289 H 0.18385 0.01751 0.86427 0.0
H1290 H 0.14145 0.9972 0.7791 0.0
H1291 H 0.14129 0.05162 0.77701 0.0
C1292 C 0.14987 0.91486 0.8041 0.0
C1293 C 0.14584 0.90501 0.8321 0.0
C1294 C 0.15631 0.94639 0.80091 0.0
C1295 C 0.15849 0.9688 0.82561 0.0
C1296 C 0.15496 0.95865 0.85365 0.0
C1297 C 0.14891 0.92729 0.85686 0.0
C1298 C 0.1738 0.05611 0.84422 0.0
C1299 C 0.16111 0.06631 0.82026 0.0
C1300 C 0.17448 0.02462 0.84506 0.0
C1301 C 0.16218 0.00257 0.82216 0.0
C1302 C 0.1512 0.0132 0.79718 0.0
C1303 C 0.15088 0.04462 0.79613 0.0
H1304 H 0.08218 0.25129 0.79477 0.0
H1305 H 0.0496 0.15461 0.78373 0.0
H1306 H 0.04082 0.26471 0.78967 0.0
H1307 H 0.00913 0.16788 0.77829 0.0
H1308 H 0.93684 0.19336 0.76099 0.0
H1309 H 0.97899 0.1909 0.74899 0.0
H1310 H 0.00682 0.25942 0.82272 0.0
H1311 H 0.96505 0.26197 0.83435 0.0
C1312 C 0.06638 0.23293 0.7906 0.0
C1313 C 0.06941 0.20186 0.78963 0.0
C1314 C 0.04269 0.2406 0.78771 0.0
C1315 C 0.02162 0.21735 0.78333 0.0
C1316 C 0.02484 0.18641 0.78097 0.0
C1317 C 0.04828 0.17881 0.78429 0.0
C1318 C 0.95191 0.2086 0.77399 0.0
C1319 C 0.94757 0.22734 0.79907 0.0
C1320 C 0.97609 0.20708 0.76726 0.0
C1321 C 0.99633 0.22457 0.78524 0.0
C1322 C 0.99177 0.24565 0.80836 0.0
C1323 C 0.96772 0.2469 0.81522 0.0
H1324 H 0.87915 0.95542 0.81698 0.0
H1325 H 0.86753 0.97305 0.90942 0.0
H1326 H 0.88478 0.01011 0.81224 0.0
H1327 H 0.87125 0.02805 0.90428 0.0
H1328 H 0.90328 0.12801 0.89476 0.0
H1329 H 0.89856 0.07286 0.89995 0.0
H1330 H 0.86758 0.05264 0.80884 0.0
H1331 H 0.87438 0.10678 0.80304 0.0
C1332 C 0.87701 0.97095 0.83613 0.0
C1333 C 0.87285 0.95982 0.86358 0.0
C1334 C 0.8802 0.00256 0.83343 0.0
C1335 C 0.87858 0.02398 0.85789 0.0
C1336 C 0.87327 0.01258 0.88507 0.0
C1337 C 0.87071 0.98093 0.88794 0.0
C1338 C 0.89583 0.11168 0.87577 0.0
C1339 C 0.88907 0.12206 0.84858 0.0
C1340 C 0.89277 0.07997 0.87882 0.0
C1341 C 0.88246 0.05788 0.85489 0.0
C1342 C 0.87599 0.06851 0.82772 0.0
C1343 C 0.87962 0.09994 0.8245 0.0
H1344 H 0.62049 0.71784 0.39773 0.0
H1345 H 0.61099 0.61829 0.3871 0.0
H1346 H 0.61954 0.71746 0.45102 0.0
H1347 H 0.61101 0.6179 0.44064 0.0
H1348 H 0.59085 0.62408 0.53516 0.0
H1349 H 0.58878 0.62582 0.48192 0.0
H1350 H 0.64307 0.70935 0.49388 0.0
H1351 H 0.64435 0.70824 0.54752 0.0
C1352 C 0.6182 0.69581 0.40676 0.0
C1353 C 0.61578 0.66806 0.38804 0.0
C1354 C 0.61788 0.69562 0.43746 0.0
C1355 C 0.61537 0.66769 0.4504 0.0
C1356 C 0.61261 0.63989 0.43159 0.0
C1357 C 0.61267 0.64007 0.4008 0.0
C1358 C 0.60229 0.64296 0.52651 0.0
C1359 C 0.61783 0.66602 0.54572 0.0
C1360 C 0.60124 0.64381 0.49583 0.0
C1361 C 0.61589 0.66756 0.48333 0.0
C1362 C 0.63123 0.69089 0.50259 0.0
C1363 C 0.63208 0.69022 0.53341 0.0
H1364 H 0.33567 0.62502 0.57515 0.0
H1365 H 0.35932 0.72145 0.6062 0.0
H1366 H 0.33483 0.6373 0.52426 0.0
H1367 H 0.35719 0.73416 0.55514 0.0
H1368 H 0.32575 0.66543 0.43322 0.0
H1369 H 0.31764 0.65887 0.48455 0.0
H1370 H 0.38008 0.73025 0.51469 0.0
H1371 H 0.38719 0.73783 0.46396 0.0
C1372 C 0.34019 0.64899 0.5711 0.0
C1373 C 0.34787 0.67224 0.5947 0.0
C1374 C 0.3395 0.65611 0.5418 0.0
C1375 C 0.34611 0.68676 0.53532 0.0
C1376 C 0.35255 0.7102 0.55912 0.0
C1377 C 0.35366 0.70298 0.58845 0.0
C1378 C 0.33739 0.68009 0.45087 0.0
C1379 C 0.35727 0.7019 0.44441 0.0
C1380 C 0.3329 0.67618 0.48035 0.0
C1381 C 0.34837 0.69373 0.50401 0.0
C1382 C 0.36749 0.71653 0.49733 0.0
C1383 C 0.37174 0.7207 0.468 0.0
H1384 H 0.40714 0.38401 0.44521 0.0
H1385 H 0.35819 0.29669 0.423 0.0
H1386 H 0.40231 0.38021 0.49733 0.0
H1387 H 0.35254 0.29355 0.4755 0.0
H1388 H 0.36905 0.28856 0.57759 0.0
H1389 H 0.37207 0.2873 0.52397 0.0
H1390 H 0.37108 0.38526 0.5297 0.0
H1391 H 0.3692 0.38667 0.58264 0.0
C1392 C 0.3952 0.36405 0.45138 0.0
C1393 C 0.38272 0.34094 0.42975 0.0
C1394 C 0.39228 0.36196 0.48136 0.0
C1395 C 0.37659 0.33689 0.49064 0.0
C1396 C 0.36473 0.31319 0.46914 0.0
C1397 C 0.36784 0.31513 0.43901 0.0
C1398 C 0.3692 0.30969 0.56725 0.0
C1399 C 0.3692 0.3378 0.58453 0.0
C1400 C 0.37091 0.30898 0.53654 0.0
C1401 C 0.3724 0.33633 0.5226 0.0
C1402 C 0.37081 0.36393 0.53975 0.0
C1403 C 0.36946 0.36469 0.57023 0.0
H1404 H 0.66222 0.24084 0.42408 0.0
H1405 H 0.58865 0.26003 0.43001 0.0
H1406 H 0.66611 0.23738 0.47767 0.0
H1407 H 0.59236 0.25649 0.48315 0.0
H1408 H 0.60272 0.2501 0.57935 0.0
H1409 H 0.59918 0.22833 0.52735 0.0
H1410 H 0.66957 0.28269 0.51579 0.0
H1411 H 0.67311 0.3042 0.56735 0.0
C1412 C 0.6465 0.24284 0.43662 0.0
C1413 C 0.62516 0.25072 0.42308 0.0
C1414 C 0.64879 0.24118 0.46729 0.0
C1415 C 0.62963 0.24697 0.48468 0.0
C1416 C 0.60738 0.25163 0.47044 0.0
C1417 C 0.60525 0.25373 0.43999 0.0
C1418 C 0.61772 0.25667 0.56588 0.0
C1419 C 0.63801 0.27918 0.57727 0.0
C1420 C 0.61566 0.24429 0.53611 0.0
C1421 C 0.63404 0.25389 0.51742 0.0
C1422 C 0.65522 0.2745 0.5296 0.0
C1423 C 0.65713 0.28709 0.55913 0.0
H1424 H 0.55115 0.69944 0.64092 0.0
H1425 H 0.54161 0.60046 0.64221 0.0
H1426 H 0.50827 0.69819 0.65078 0.0
H1427 H 0.49871 0.59937 0.65197 0.0
H1428 H 0.41642 0.60731 0.64187 0.0
H1429 H 0.45863 0.60847 0.62876 0.0
H1430 H 0.48318 0.68763 0.69315 0.0
H1431 H 0.4412 0.68663 0.7063 0.0
C1432 C 0.53998 0.6774 0.64327 0.0
C1433 C 0.55004 0.6501 0.64111 0.0
C1434 C 0.51537 0.67672 0.649 0.0
C1435 C 0.5001 0.64871 0.65235 0.0
C1436 C 0.50993 0.6213 0.64933 0.0
C1437 C 0.5346 0.62199 0.64388 0.0
C1438 C 0.43078 0.62504 0.65319 0.0
C1439 C 0.42528 0.64692 0.67512 0.0
C1440 C 0.455 0.62559 0.64576 0.0
C1441 C 0.47426 0.64821 0.65984 0.0
C1442 C 0.46874 0.67016 0.6816 0.0
C1443 C 0.44462 0.66944 0.68924 0.0
H1444 H 0.39471 0.6009 0.77428 0.0
H1445 H 0.32539 0.55191 0.73161 0.0
H1446 H 0.40339 0.55305 0.79275 0.0
H1447 H 0.33392 0.50445 0.74961 0.0
H1448 H 0.35067 0.41914 0.77295 0.0
H1449 H 0.34285 0.47105 0.78764 0.0
H1450 H 0.41393 0.50964 0.76114 0.0
H1451 H 0.4217 0.45805 0.74691 0.0
C1452 C 0.38092 0.5802 0.76985 0.0
C1453 C 0.35957 0.5799 0.75114 0.0
C1454 C 0.38593 0.55278 0.78027 0.0
C1455 C 0.3695 0.52481 0.7724 0.0
C1456 C 0.34694 0.52549 0.75638 0.0
C1457 C 0.34211 0.55268 0.74575 0.0
C1458 C 0.36515 0.43866 0.77188 0.0
C1459 C 0.38666 0.43466 0.75846 0.0
C1460 C 0.36057 0.46843 0.77998 0.0
C1461 C 0.3775 0.49452 0.7749 0.0
C1462 C 0.40047 0.49019 0.76545 0.0
C1463 C 0.40495 0.46053 0.75722 0.0
H1464 H 0.57217 0.3301 0.62402 0.0
H1465 H 0.57838 0.34318 0.71979 0.0
H1466 H 0.52791 0.33109 0.62354 0.0
H1467 H 0.53453 0.34485 0.71909 0.0
H1468 H 0.46391 0.38763 0.6993 0.0
H1469 H 0.5075 0.3841 0.69858 0.0
H1470 H 0.48861 0.29701 0.64398 0.0
H1471 H 0.44485 0.30004 0.64516 0.0
C1472 C 0.56414 0.33311 0.64492 0.0
C1473 C 0.57887 0.33656 0.67194 0.0
C1474 C 0.53883 0.33359 0.64462 0.0
C1475 C 0.52789 0.3382 0.67128 0.0
C1476 C 0.54255 0.34147 0.69822 0.0
C1477 C 0.56766 0.34035 0.69857 0.0
C1478 C 0.46899 0.36769 0.68715 0.0
C1479 C 0.45086 0.34407 0.67237 0.0
C1480 C 0.49395 0.36566 0.68682 0.0
C1481 C 0.50138 0.3403 0.67121 0.0
C1482 C 0.48335 0.31687 0.65606 0.0
C1483 C 0.45833 0.31856 0.65689 0.0
H1484 H 0.59853 0.54494 0.68498 0.0
H1485 H 0.66974 0.59433 0.72154 0.0
H1486 H 0.60813 0.49792 0.70351 0.0
H1487 H 0.67965 0.5468 0.73968 0.0
H1488 H 0.69176 0.44551 0.69689 0.0
H1489 H 0.68559 0.49903 0.7047 0.0
H1490 H 0.62017 0.47004 0.74838 0.0
H1491 H 0.62663 0.41643 0.74077 0.0
C1492 C 0.61595 0.5459 0.69783 0.0
C1493 C 0.63342 0.57315 0.70179 0.0
C1494 C 0.62141 0.51903 0.70859 0.0
C1495 C 0.64466 0.51872 0.72302 0.0
C1496 C 0.66157 0.54649 0.72871 0.0
C1497 C 0.65587 0.57365 0.71845 0.0
C1498 C 0.67676 0.45084 0.70939 0.0
C1499 C 0.65973 0.42707 0.71838 0.0
C1500 C 0.67323 0.48145 0.71394 0.0
C1501 C 0.6523 0.48863 0.72698 0.0
C1502 C 0.63645 0.46509 0.7383 0.0
C1503 C 0.64024 0.43449 0.73417 0.0
H1504 H 0.43586 0.27707 0.37034 0.0
H1505 H 0.43413 0.30607 0.28245 0.0
H1506 H 0.47749 0.2662 0.36586 0.0
H1507 H 0.47622 0.29641 0.27832 0.0
H1508 H 0.55116 0.23979 0.33977 0.0
H1509 H 0.50638 0.23522 0.33291 0.0
H1510 H 0.51444 0.33007 0.31398 0.0
H1511 H 0.55922 0.33504 0.32153 0.0
C1512 C 0.44396 0.27953 0.34949 0.0
C1513 C 0.43175 0.29181 0.32652 0.0
C1514 C 0.46784 0.27364 0.34702 0.0
C1515 C 0.48008 0.28078 0.32186 0.0
C1516 C 0.46713 0.29074 0.29793 0.0
C1517 C 0.44298 0.29583 0.30011 0.0
C1518 C 0.54341 0.25959 0.33382 0.0
C1519 C 0.55872 0.28788 0.33137 0.0
C1520 C 0.5178 0.2569 0.32988 0.0
C1521 C 0.50705 0.28218 0.32267 0.0
C1522 C 0.52234 0.3101 0.31912 0.0
C1523 C 0.54792 0.31302 0.3237 0.0
H1524 H 0.63285 0.39569 0.27379 0.0
H1525 H 0.65557 0.42093 0.36687 0.0
H1526 H 0.63897 0.45026 0.26584 0.0
H1527 H 0.66044 0.47494 0.35936 0.0
H1528 H 0.67687 0.57263 0.34 0.0
H1529 H 0.68115 0.51853 0.34069 0.0
H1530 H 0.61871 0.49205 0.27544 0.0
H1531 H 0.61533 0.54569 0.27369 0.0
C1532 C 0.63927 0.41281 0.29251 0.0
C1533 C 0.64341 0.40382 0.321 0.0
C1534 C 0.64263 0.44417 0.28803 0.0
C1535 C 0.64995 0.46728 0.31201 0.0
C1536 C 0.65511 0.45808 0.34021 0.0
C1537 C 0.65204 0.42686 0.34459 0.0
C1538 C 0.66437 0.55525 0.32545 0.0
C1539 C 0.64557 0.56358 0.3071 0.0
C1540 C 0.66667 0.52415 0.32597 0.0
C1541 C 0.65008 0.50063 0.30839 0.0
C1542 C 0.63206 0.50926 0.28906 0.0
C1543 C 0.62995 0.54024 0.28829 0.0
H1544 H 0.57461 0.74119 0.33077 0.0
H1545 H 0.56018 0.69527 0.24201 0.0
H1546 H 0.53305 0.75262 0.32896 0.0
H1547 H 0.51852 0.70722 0.23955 0.0
H1548 H 0.43952 0.68494 0.27205 0.0
H1549 H 0.48217 0.68724 0.26079 0.0
H1550 H 0.50119 0.77713 0.31098 0.0
H1551 H 0.45864 0.77402 0.32294 0.0
C1552 C 0.56287 0.73484 0.31034 0.0
C1553 C 0.57063 0.71761 0.28646 0.0
C1554 C 0.5389 0.74126 0.30924 0.0
C1555 C 0.52213 0.73058 0.28417 0.0
C1556 C 0.53066 0.71531 0.25943 0.0
C1557 C 0.55461 0.70871 0.26068 0.0
C1558 C 0.45266 0.70561 0.27975 0.0
C1559 C 0.44585 0.72916 0.29858 0.0
C1560 C 0.47722 0.707 0.27337 0.0
C1561 C 0.49541 0.73215 0.28547 0.0
C1562 C 0.48793 0.75701 0.30196 0.0
C1563 C 0.46349 0.75538 0.30863 0.0
H1564 H 0.42443 0.47497 0.37868 0.0
H1565 H 0.34602 0.46076 0.35552 0.0
H1566 H 0.4265 0.53065 0.37882 0.0
H1567 H 0.34828 0.51669 0.35505 0.0
H1568 H 0.37583 0.60656 0.31049 0.0
H1569 H 0.37245 0.55254 0.31821 0.0
H1570 H 0.40789 0.57771 0.40662 0.0
H1571 H 0.41055 0.63259 0.39953 0.0
C1572 C 0.4076 0.4838 0.37384 0.0
C1573 C 0.38506 0.46355 0.36682 0.0
C1574 C 0.40881 0.51565 0.37416 0.0
C1575 C 0.38759 0.52784 0.36689 0.0
C1576 C 0.36491 0.50773 0.36069 0.0
C1577 C 0.3636 0.47584 0.36101 0.0
C1578 C 0.38278 0.6009 0.33177 0.0
C1579 C 0.39319 0.62416 0.35456 0.0
C1580 C 0.38071 0.56982 0.33614 0.0
C1581 C 0.3895 0.56105 0.36313 0.0
C1582 C 0.40077 0.58402 0.38566 0.0
C1583 C 0.40239 0.61535 0.38154 0.0
loop_
_geom_bond_atom_site_label_1
_geom_bond_atom_site_label_2
_geom_bond_distance
_geom_bond_site_symmetry_2
_ccdc_geom_bond_type
Co0 O2 2.143 . S
Co0 O8 2.074 . S
Co0 O11 2.093 . S
Co0 O24 2.097 . S
Co0 N41 2.151 . S
Co0 N49 2.214 . S
Co1 O2 2.160 . S
Co1 O7 2.058 . S
Co1 O17 2.057 . S
Co1 O32 2.037 . S
Co1 N36 2.145 . S
Co1 N57 2.257 . S
O2 Co0 2.143 . S
O2 Co1 2.160 . S
C3 O4 1.278 . S
C3 O11 1.224 . S
O4 C3 1.278 . S
C5 O6 1.245 . S
C5 O17 1.232 . S
O6 C5 1.245 . S
O7 Co1 2.058 . S
O7 C33 1.269 . S
O8 Co0 2.074 . S
O8 C33 1.257 . S
H9 C34 0.930 . S
H10 C40 0.930 . S
O11 Co0 2.093 . S
O11 C3 1.224 . S
H12 C44 0.929 . S
H13 C46 0.930 . S
H14 C47 0.930 . S
H15 C45 0.929 . S
H16 C48 0.928 . S
O17 Co1 2.057 . S
O17 C5 1.232 . S
H18 C37 0.929 . S
H19 C38 0.929 . S
H20 C50 0.931 . S
H21 C42 0.929 . S
H22 C51 0.930 . S
H23 C43 0.931 . S
O24 Co0 2.097 . S
O24 C52 1.214 . S
H25 C53 0.929 . S
H26 C54 0.929 . S
H27 C55 0.930 . S
H28 C56 0.929 . S
H29 C58 0.930 . S
H30 C35 0.930 . S
H31 C39 0.930 . S
O32 Co1 2.037 . S
O32 C52 1.234 . S
C33 O7 1.269 . S
C33 O8 1.257 . S
C34 H9 0.930 . S
C34 C37 1.388 . S
C34 C39 1.418 . S
C35 H30 0.930 . S
C35 C38 1.404 . S
C35 C39 1.353 . S
N36 Co1 2.145 . S
N36 C37 1.397 . S
N36 C38 1.334 . S
C37 H18 0.929 . S
C37 C34 1.388 . S
C37 N36 1.397 . S
C38 H19 0.929 . S
C38 C35 1.404 . S
C38 N36 1.334 . S
C39 H31 0.930 . S
C39 C34 1.418 . S
C39 C35 1.353 . S
C40 H10 0.930 . S
C40 N41 1.330 . S
C40 C42 1.446 . S
N41 Co0 2.151 . S
N41 C40 1.330 . S
N41 C45 1.418 . S
C42 H21 0.929 . S
C42 C40 1.446 . S
C42 C43 1.332 . S
C43 H23 0.931 . S
C43 C42 1.332 . S
C43 C44 1.267 . S
C44 H12 0.929 . S
C44 C43 1.267 . S
C44 C45 1.251 . S
C45 H15 0.929 . S
C45 N41 1.418 . S
C45 C44 1.251 . S
C46 H13 0.930 . S
C46 C48 1.406 . S
C46 C51 1.261 . S
C47 H14 0.930 . S
C47 N49 1.325 . S
C47 C50 1.357 . S
C48 H16 0.928 . S
C48 C46 1.406 . S
C48 N49 1.261 . S
N49 Co0 2.214 . S
N49 C47 1.325 . S
N49 C48 1.261 . S
C50 H20 0.931 . S
C50 C47 1.357 . S
C50 C51 1.312 . S
C51 H22 0.930 . S
C51 C46 1.261 . S
C51 C50 1.312 . S
C52 O24 1.214 . S
C52 O32 1.234 . S
C53 H25 0.929 . S
C53 C56 1.391 . S
C53 C58 1.391 . S
C54 H26 0.929 . S
C54 C55 1.390 . S
C54 N57 1.391 . S
C55 H27 0.930 . S
C55 C54 1.390 . S
C55 C56 1.392 . S
C56 H28 0.929 . S
C56 C53 1.391 . S
C56 C55 1.392 . S
N57 Co1 2.257 . S
N57 C54 1.391 . S
N57 C58 1.388 . S
C58 H29 0.930 . S
C58 C53 1.391 . S
C58 N57 1.388 . S
Co59 O61 2.143 . S
Co59 O67 2.074 . S
Co59 O70 2.093 . S
Co59 O83 2.097 . S
Co59 N100 2.151 . S
Co59 N108 2.214 . S
Co60 O61 2.160 . S
Co60 O66 2.058 . S
Co60 O76 2.057 . S
Co60 O91 2.037 . S
Co60 N95 2.145 . S
Co60 N116 2.257 . S
O61 Co59 2.143 . S
O61 Co60 2.160 . S
C62 O63 1.278 . S
C62 O70 1.224 . S
O63 C62 1.278 . S
C64 O65 1.245 . S
C64 O76 1.232 . S
O65 C64 1.245 . S
O66 Co60 2.058 . S
O66 C92 1.269 . S
O67 Co59 2.074 . S
O67 C92 1.257 . S
H68 C93 0.930 . S
H69 C99 0.930 . S
O70 Co59 2.093 . S
O70 C62 1.224 . S
H71 C103 0.929 . S
H72 C105 0.930 . S
H73 C106 0.930 . S
H74 C104 0.929 . S
H75 C107 0.928 . S
O76 Co60 2.057 . S
O76 C64 1.232 . S
H77 C96 0.929 . S
H78 C97 0.929 . S
H79 C109 0.931 . S
H80 C101 0.929 . S
H81 C110 0.930 . S
H82 C102 0.931 . S
O83 Co59 2.097 . S
O83 C111 1.214 . S
H84 C112 0.929 . S
H85 C113 0.929 . S
H86 C114 0.930 . S
H87 C115 0.929 . S
H88 C117 0.930 . S
H89 C94 0.930 . S
H90 C98 0.930 . S
O91 Co60 2.037 . S
O91 C111 1.234 . S
C92 O66 1.269 . S
C92 O67 1.257 . S
C93 H68 0.930 . S
C93 C96 1.388 . S
C93 C98 1.418 . S
C94 H89 0.930 . S
C94 C97 1.404 . S
C94 C98 1.353 . S
N95 Co60 2.145 . S
N95 C96 1.397 . S
N95 C97 1.334 . S
C96 H77 0.929 . S
C96 C93 1.388 . S
C96 N95 1.397 . S
C97 H78 0.929 . S
C97 C94 1.404 . S
C97 N95 1.334 . S
C98 H90 0.930 . S
C98 C93 1.418 . S
C98 C94 1.353 . S
C99 H69 0.930 . S
C99 N100 1.330 . S
C99 C101 1.446 . S
N100 Co59 2.151 . S
N100 C99 1.330 . S
N100 C104 1.418 . S
C101 H80 0.929 . S
C101 C99 1.446 . S
C101 C102 1.332 . S
C102 H82 0.931 . S
C102 C101 1.332 . S
C102 C103 1.267 . S
C103 H71 0.929 . S
C103 C102 1.267 . S
C103 C104 1.251 . S
C104 H74 0.929 . S
C104 N100 1.418 . S
C104 C103 1.251 . S
C105 H72 0.930 . S
C105 C107 1.406 . S
C105 C110 1.261 . S
C106 H73 0.930 . S
C106 N108 1.325 . S
C106 C109 1.357 . S
C107 H75 0.928 . S
C107 C105 1.406 . S
C107 N108 1.261 . S
N108 Co59 2.214 . S
N108 C106 1.325 . S
N108 C107 1.261 . S
C109 H79 0.931 . S
C109 C106 1.357 . S
C109 C110 1.312 . S
C110 H81 0.930 . S
C110 C105 1.261 . S
C110 C109 1.312 . S
C111 O83 1.214 . S
C111 O91 1.234 . S
C112 H84 0.929 . S
C112 C115 1.391 . S
C112 C117 1.391 . S
C113 H85 0.929 . S
C113 C114 1.390 . S
C113 N116 1.391 . S
C114 H86 0.930 . S
C114 C113 1.390 . S
C114 C115 1.392 . S
C115 H87 0.929 . S
C115 C112 1.391 . S
C115 C114 1.392 . S
N116 Co60 2.257 . S
N116 C113 1.391 . S
N116 C117 1.388 . S
C117 H88 0.930 . S
C117 C112 1.391 . S
C117 N116 1.388 . S
Co118 O120 2.143 . S
Co118 O126 2.074 . S
Co118 O129 2.093 . S
Co118 O142 2.097 . S
Co118 N159 2.151 . S
Co118 N167 2.214 . S
Co119 O120 2.160 . S
Co119 O125 2.058 . S
Co119 O135 2.057 . S
Co119 O150 2.037 . S
Co119 N154 2.145 . S
Co119 N175 2.257 . S
O120 Co118 2.143 . S
O120 Co119 2.160 . S
C121 O122 1.278 . S
C121 O129 1.224 . S
O122 C121 1.278 . S
C123 O124 1.245 . S
C123 O135 1.232 . S
O124 C123 1.245 . S
O125 Co119 2.058 . S
O125 C151 1.269 . S
O126 Co118 2.074 . S
O126 C151 1.257 . S
H127 C152 0.930 . S
H128 C158 0.930 . S
O129 Co118 2.093 . S
O129 C121 1.224 . S
H130 C162 0.929 . S
H131 C164 0.930 . S
H132 C165 0.930 . S
H133 C163 0.929 . S
H134 C166 0.928 . S
O135 Co119 2.057 . S
O135 C123 1.232 . S
H136 C155 0.929 . S
H137 C156 0.929 . S
H138 C168 0.931 . S
H139 C160 0.929 . S
H140 C169 0.930 . S
H141 C161 0.931 . S
O142 Co118 2.097 . S
O142 C170 1.214 . S
H143 C171 0.929 . S
H144 C172 0.929 . S
H145 C173 0.930 . S
H146 C174 0.929 . S
H147 C176 0.930 . S
H148 C153 0.930 . S
H149 C157 0.930 . S
O150 Co119 2.037 . S
O150 C170 1.234 . S
C151 O125 1.269 . S
C151 O126 1.257 . S
C152 H127 0.930 . S
C152 C155 1.388 . S
C152 C157 1.418 . S
C153 H148 0.930 . S
C153 C156 1.404 . S
C153 C157 1.353 . S
N154 Co119 2.145 . S
N154 C155 1.397 . S
N154 C156 1.334 . S
C155 H136 0.929 . S
C155 C152 1.388 . S
C155 N154 1.397 . S
C156 H137 0.929 . S
C156 C153 1.404 . S
C156 N154 1.334 . S
C157 H149 0.930 . S
C157 C152 1.418 . S
C157 C153 1.353 . S
C158 H128 0.930 . S
C158 N159 1.330 . S
C158 C160 1.446 . S
N159 Co118 2.151 . S
N159 C158 1.330 . S
N159 C163 1.418 . S
C160 H139 0.929 . S
C160 C158 1.446 . S
C160 C161 1.332 . S
C161 H141 0.931 . S
C161 C160 1.332 . S
C161 C162 1.267 . S
C162 H130 0.929 . S
C162 C161 1.267 . S
C162 C163 1.251 . S
C163 H133 0.929 . S
C163 N159 1.418 . S
C163 C162 1.251 . S
C164 H131 0.930 . S
C164 C166 1.406 . S
C164 C169 1.261 . S
C165 H132 0.930 . S
C165 N167 1.325 . S
C165 C168 1.357 . S
C166 H134 0.928 . S
C166 C164 1.406 . S
C166 N167 1.261 . S
N167 Co118 2.214 . S
N167 C165 1.325 . S
N167 C166 1.261 . S
C168 H138 0.931 . S
C168 C165 1.357 . S
C168 C169 1.312 . S
C169 H140 0.930 . S
C169 C164 1.261 . S
C169 C168 1.312 . S
C170 O142 1.214 . S
C170 O150 1.234 . S
C171 H143 0.929 . S
C171 C174 1.391 . S
C171 C176 1.391 . S
C172 H144 0.929 . S
C172 C173 1.390 . S
C172 N175 1.391 . S
C173 H145 0.930 . S
C173 C172 1.390 . S
C173 C174 1.392 . S
C174 H146 0.929 . S
C174 C171 1.391 . S
C174 C173 1.392 . S
N175 Co119 2.257 . S
N175 C172 1.391 . S
N175 C176 1.388 . S
C176 H147 0.930 . S
C176 C171 1.391 . S
C176 N175 1.388 . S
Co177 O179 2.143 . S
Co177 O185 2.074 . S
Co177 O188 2.093 . S
Co177 O201 2.097 . S
Co177 N218 2.151 . S
Co177 N226 2.214 . S
Co178 O179 2.160 . S
Co178 O184 2.058 . S
Co178 O194 2.057 . S
Co178 O209 2.037 . S
Co178 N213 2.145 . S
Co178 N234 2.257 . S
O179 Co177 2.143 . S
O179 Co178 2.160 . S
C180 O181 1.278 . S
C180 O188 1.224 . S
O181 C180 1.278 . S
C182 O183 1.245 . S
C182 O194 1.232 . S
O183 C182 1.245 . S
O184 Co178 2.058 . S
O184 C210 1.269 . S
O185 Co177 2.074 . S
O185 C210 1.257 . S
H186 C211 0.930 . S
H187 C217 0.930 . S
O188 Co177 2.093 . S
O188 C180 1.224 . S
H189 C221 0.929 . S
H190 C223 0.930 . S
H191 C224 0.930 . S
H192 C222 0.929 . S
H193 C225 0.928 . S
O194 Co178 2.057 . S
O194 C182 1.232 . S
H195 C214 0.929 . S
H196 C215 0.929 . S
H197 C227 0.931 . S
H198 C219 0.929 . S
H199 C228 0.930 . S
H200 C220 0.931 . S
O201 Co177 2.097 . S
O201 C229 1.214 . S
H202 C230 0.929 . S
H203 C231 0.929 . S
H204 C232 0.930 . S
H205 C233 0.929 . S
H206 C235 0.930 . S
H207 C212 0.930 . S
H208 C216 0.930 . S
O209 Co178 2.037 . S
O209 C229 1.234 . S
C210 O184 1.269 . S
C210 O185 1.257 . S
C211 H186 0.930 . S
C211 C214 1.388 . S
C211 C216 1.418 . S
C212 H207 0.930 . S
C212 C215 1.404 . S
C212 C216 1.353 . S
N213 Co178 2.145 . S
N213 C214 1.397 . S
N213 C215 1.334 . S
C214 H195 0.929 . S
C214 C211 1.388 . S
C214 N213 1.397 . S
C215 H196 0.929 . S
C215 C212 1.404 . S
C215 N213 1.334 . S
C216 H208 0.930 . S
C216 C211 1.418 . S
C216 C212 1.353 . S
C217 H187 0.930 . S
C217 N218 1.330 . S
C217 C219 1.446 . S
N218 Co177 2.151 . S
N218 C217 1.330 . S
N218 C222 1.418 . S
C219 H198 0.929 . S
C219 C217 1.446 . S
C219 C220 1.332 . S
C220 H200 0.931 . S
C220 C219 1.332 . S
C220 C221 1.267 . S
C221 H189 0.929 . S
C221 C220 1.267 . S
C221 C222 1.251 . S
C222 H192 0.929 . S
C222 N218 1.418 . S
C222 C221 1.251 . S
C223 H190 0.930 . S
C223 C225 1.406 . S
C223 C228 1.261 . S
C224 H191 0.930 . S
C224 N226 1.325 . S
C224 C227 1.357 . S
C225 H193 0.928 . S
C225 C223 1.406 . S
C225 N226 1.261 . S
N226 Co177 2.214 . S
N226 C224 1.325 . S
N226 C225 1.261 . S
C227 H197 0.931 . S
C227 C224 1.357 . S
C227 C228 1.312 . S
C228 H199 0.930 . S
C228 C223 1.261 . S
C228 C227 1.312 . S
C229 O201 1.214 . S
C229 O209 1.234 . S
C230 H202 0.929 . S
C230 C233 1.391 . S
C230 C235 1.391 . S
C231 H203 0.929 . S
C231 C232 1.390 . S
C231 N234 1.391 . S
C232 H204 0.930 . S
C232 C231 1.390 . S
C232 C233 1.392 . S
C233 H205 0.929 . S
C233 C230 1.391 . S
C233 C232 1.392 . S
N234 Co178 2.257 . S
N234 C231 1.391 . S
N234 C235 1.388 . S
C235 H206 0.930 . S
C235 C230 1.391 . S
C235 N234 1.388 . S
Co236 O238 2.143 . S
Co236 O244 2.074 . S
Co236 O247 2.093 . S
Co236 O260 2.097 . S
Co236 N277 2.151 . S
Co236 N285 2.214 . S
Co237 O238 2.160 . S
Co237 O243 2.058 . S
Co237 O253 2.057 . S
Co237 O268 2.037 . S
Co237 N272 2.145 . S
Co237 N293 2.257 . S
O238 Co236 2.143 . S
O238 Co237 2.160 . S
C239 O240 1.278 . S
C239 O247 1.224 . S
O240 C239 1.278 . S
C241 O242 1.245 . S
C241 O253 1.232 . S
O242 C241 1.245 . S
O243 Co237 2.058 . S
O243 C269 1.269 . S
O244 Co236 2.074 . S
O244 C269 1.257 . S
H245 C270 0.930 . S
H246 C276 0.930 . S
O247 Co236 2.093 . S
O247 C239 1.224 . S
H248 C280 0.929 . S
H249 C282 0.930 . S
H250 C283 0.930 . S
H251 C281 0.929 . S
H252 C284 0.928 . S
O253 Co237 2.057 . S
O253 C241 1.232 . S
H254 C273 0.929 . S
H255 C274 0.929 . S
H256 C286 0.931 . S
H257 C278 0.929 . S
H258 C287 0.930 . S
H259 C279 0.931 . S
O260 Co236 2.097 . S
O260 C288 1.214 . S
H261 C289 0.929 . S
H262 C290 0.929 . S
H263 C291 0.930 . S
H264 C292 0.929 . S
H265 C294 0.930 . S
H266 C271 0.930 . S
H267 C275 0.930 . S
O268 Co237 2.037 . S
O268 C288 1.234 . S
C269 O243 1.269 . S
C269 O244 1.257 . S
C270 H245 0.930 . S
C270 C273 1.388 . S
C270 C275 1.418 . S
C271 H266 0.930 . S
C271 C274 1.404 . S
C271 C275 1.353 . S
N272 Co237 2.145 . S
N272 C273 1.397 . S
N272 C274 1.334 . S
C273 H254 0.929 . S
C273 C270 1.388 . S
C273 N272 1.397 . S
C274 H255 0.929 . S
C274 C271 1.404 . S
C274 N272 1.334 . S
C275 H267 0.930 . S
C275 C270 1.418 . S
C275 C271 1.353 . S
C276 H246 0.930 . S
C276 N277 1.330 . S
C276 C278 1.446 . S
N277 Co236 2.151 . S
N277 C276 1.330 . S
N277 C281 1.418 . S
C278 H257 0.929 . S
C278 C276 1.446 . S
C278 C279 1.332 . S
C279 H259 0.931 . S
C279 C278 1.332 . S
C279 C280 1.267 . S
C280 H248 0.929 . S
C280 C279 1.267 . S
C280 C281 1.251 . S
C281 H251 0.929 . S
C281 N277 1.418 . S
C281 C280 1.251 . S
C282 H249 0.930 . S
C282 C284 1.406 . S
C282 C287 1.261 . S
C283 H250 0.930 . S
C283 N285 1.325 . S
C283 C286 1.357 . S
C284 H252 0.928 . S
C284 C282 1.406 . S
C284 N285 1.261 . S
N285 Co236 2.214 . S
N285 C283 1.325 . S
N285 C284 1.261 . S
C286 H256 0.931 . S
C286 C283 1.357 . S
C286 C287 1.312 . S
C287 H258 0.930 . S
C287 C282 1.261 . S
C287 C286 1.312 . S
C288 O260 1.214 . S
C288 O268 1.234 . S
C289 H261 0.929 . S
C289 C292 1.391 . S
C289 C294 1.391 . S
C290 H262 0.929 . S
C290 C291 1.390 . S
C290 N293 1.391 . S
C291 H263 0.930 . S
C291 C290 1.390 . S
C291 C292 1.392 . S
C292 H264 0.929 . S
C292 C289 1.391 . S
C292 C291 1.392 . S
N293 Co237 2.257 . S
N293 C290 1.391 . S
N293 C294 1.388 . S
C294 H265 0.930 . S
C294 C289 1.391 . S
C294 N293 1.388 . S
Co295 O297 2.143 . S
Co295 O303 2.074 . S
Co295 O306 2.093 . S
Co295 O319 2.097 . S
Co295 N336 2.151 . S
Co295 N344 2.214 . S
Co296 O297 2.160 . S
Co296 O302 2.058 . S
Co296 O312 2.057 . S
Co296 O327 2.037 . S
Co296 N331 2.145 . S
Co296 N352 2.257 . S
O297 Co295 2.143 . S
O297 Co296 2.160 . S
C298 O299 1.278 . S
C298 O306 1.224 . S
O299 C298 1.278 . S
C300 O301 1.245 . S
C300 O312 1.232 . S
O301 C300 1.245 . S
O302 Co296 2.058 . S
O302 C328 1.269 . S
O303 Co295 2.074 . S
O303 C328 1.257 . S
H304 C329 0.930 . S
H305 C335 0.930 . S
O306 Co295 2.093 . S
O306 C298 1.224 . S
H307 C339 0.929 . S
H308 C341 0.930 . S
H309 C342 0.930 . S
H310 C340 0.929 . S
H311 C343 0.928 . S
O312 Co296 2.057 . S
O312 C300 1.232 . S
H313 C332 0.929 . S
H314 C333 0.929 . S
H315 C345 0.931 . S
H316 C337 0.929 . S
H317 C346 0.930 1_655 S
H318 C338 0.931 . S
O319 Co295 2.097 . S
O319 C347 1.214 . S
H320 C348 0.929 . S
H321 C349 0.929 . S
H322 C350 0.930 . S
H323 C351 0.929 . S
H324 C353 0.930 . S
H325 C330 0.930 . S
H326 C334 0.930 . S
O327 Co296 2.037 . S
O327 C347 1.234 . S
C328 O302 1.269 . S
C328 O303 1.257 . S
C329 H304 0.930 . S
C329 C332 1.388 . S
C329 C334 1.418 . S
C330 H325 0.930 . S
C330 C333 1.404 . S
C330 C334 1.353 . S
N331 Co296 2.145 . S
N331 C332 1.397 . S
N331 C333 1.334 . S
C332 H313 0.929 . S
C332 C329 1.388 . S
C332 N331 1.397 . S
C333 H314 0.929 . S
C333 C330 1.404 . S
C333 N331 1.334 . S
C334 H326 0.930 . S
C334 C329 1.418 . S
C334 C330 1.353 . S
C335 H305 0.930 . S
C335 N336 1.330 . S
C335 C337 1.446 . S
N336 Co295 2.151 . S
N336 C335 1.330 . S
N336 C340 1.418 . S
C337 H316 0.929 . S
C337 C335 1.446 . S
C337 C338 1.332 . S
C338 H318 0.931 . S
C338 C337 1.332 . S
C338 C339 1.267 . S
C339 H307 0.929 . S
C339 C338 1.267 . S
C339 C340 1.251 . S
C340 H310 0.929 . S
C340 N336 1.418 . S
C340 C339 1.251 . S
C341 H308 0.930 . S
C341 C343 1.406 . S
C341 C346 1.261 . S
C342 H309 0.930 . S
C342 N344 1.325 . S
C342 C345 1.357 . S
C343 H311 0.928 . S
C343 C341 1.406 . S
C343 N344 1.261 . S
N344 Co295 2.214 . S
N344 C342 1.325 . S
N344 C343 1.261 . S
C345 H315 0.931 . S
C345 C342 1.357 . S
C345 C346 1.312 . S
C346 H317 0.930 1_455 S
C346 C341 1.261 . S
C346 C345 1.312 . S
C347 O319 1.214 . S
C347 O327 1.234 . S
C348 H320 0.929 . S
C348 C351 1.391 . S
C348 C353 1.391 . S
C349 H321 0.929 . S
C349 C350 1.390 . S
C349 N352 1.391 . S
C350 H322 0.930 . S
C350 C349 1.390 . S
C350 C351 1.392 . S
C351 H323 0.929 . S
C351 C348 1.391 . S
C351 C350 1.392 . S
N352 Co296 2.257 . S
N352 C349 1.391 . S
N352 C353 1.388 . S
C353 H324 0.930 . S
C353 C348 1.391 . S
C353 N352 1.388 . S
Co354 O356 2.143 . S
Co354 O362 2.074 . S
Co354 O365 2.093 . S
Co354 O378 2.097 . S
Co354 N395 2.151 . S
Co354 N403 2.214 . S
Co355 O356 2.160 . S
Co355 O361 2.058 . S
Co355 O371 2.057 . S
Co355 O386 2.037 . S
Co355 N390 2.145 . S
Co355 N411 2.257 . S
O356 Co354 2.143 . S
O356 Co355 2.160 . S
C357 O358 1.278 . S
C357 O365 1.224 . S
O358 C357 1.278 . S
C359 O360 1.245 . S
C359 O371 1.232 . S
O360 C359 1.245 . S
O361 Co355 2.058 . S
O361 C387 1.269 . S
O362 Co354 2.074 . S
O362 C387 1.257 . S
H363 C388 0.930 . S
H364 C394 0.930 . S
O365 Co354 2.093 . S
O365 C357 1.224 . S
H366 C398 0.929 . S
H367 C400 0.930 . S
H368 C401 0.930 . S
H369 C399 0.929 . S
H370 C402 0.928 . S
O371 Co355 2.057 . S
O371 C359 1.232 . S
H372 C391 0.929 . S
H373 C392 0.929 . S
H374 C404 0.931 . S
H375 C396 0.929 . S
H376 C405 0.930 . S
H377 C397 0.931 . S
O378 Co354 2.097 . S
O378 C406 1.214 . S
H379 C407 0.929 . S
H380 C408 0.929 . S
H381 C409 0.930 . S
H382 C410 0.929 . S
H383 C412 0.930 . S
H384 C389 0.930 . S
H385 C393 0.930 . S
O386 Co355 2.037 . S
O386 C406 1.234 . S
C387 O361 1.269 . S
C387 O362 1.257 . S
C388 H363 0.930 . S
C388 C391 1.388 . S
C388 C393 1.418 . S
C389 H384 0.930 . S
C389 C392 1.404 . S
C389 C393 1.353 . S
N390 Co355 2.145 . S
N390 C391 1.397 . S
N390 C392 1.334 . S
C391 H372 0.929 . S
C391 C388 1.388 . S
C391 N390 1.397 . S
C392 H373 0.929 . S
C392 C389 1.404 . S
C392 N390 1.334 . S
C393 H385 0.930 . S
C393 C388 1.418 . S
C393 C389 1.353 . S
C394 H364 0.930 . S
C394 N395 1.330 . S
C394 C396 1.446 . S
N395 Co354 2.151 . S
N395 C394 1.330 . S
N395 C399 1.418 . S
C396 H375 0.929 . S
C396 C394 1.446 . S
C396 C397 1.332 . S
C397 H377 0.931 . S
C397 C396 1.332 . S
C397 C398 1.267 . S
C398 H366 0.929 . S
C398 C397 1.267 . S
C398 C399 1.251 . S
C399 H369 0.929 . S
C399 N395 1.418 . S
C399 C398 1.251 . S
C400 H367 0.930 . S
C400 C402 1.406 . S
C400 C405 1.261 . S
C401 H368 0.930 . S
C401 N403 1.325 . S
C401 C404 1.357 . S
C402 H370 0.928 . S
C402 C400 1.406 . S
C402 N403 1.261 . S
N403 Co354 2.214 . S
N403 C401 1.325 . S
N403 C402 1.261 . S
C404 H374 0.931 . S
C404 C401 1.357 . S
C404 C405 1.312 . S
C405 H376 0.930 . S
C405 C400 1.261 . S
C405 C404 1.312 . S
C406 O378 1.214 . S
C406 O386 1.234 . S
C407 H379 0.929 . S
C407 C410 1.391 . S
C407 C412 1.391 . S
C408 H380 0.929 . S
C408 C409 1.390 . S
C408 N411 1.391 . S
C409 H381 0.930 . S
C409 C408 1.390 . S
C409 C410 1.392 . S
C410 H382 0.929 . S
C410 C407 1.391 . S
C410 C409 1.392 . S
N411 Co355 2.257 . S
N411 C408 1.391 . S
N411 C412 1.388 . S
C412 H383 0.930 . S
C412 C407 1.391 . S
C412 N411 1.388 . S
Co413 O415 2.143 . S
Co413 O421 2.074 . S
Co413 O424 2.093 . S
Co413 O437 2.097 . S
Co413 N454 2.151 . S
Co413 N462 2.214 . S
Co414 O415 2.160 . S
Co414 O420 2.058 . S
Co414 O430 2.057 . S
Co414 O445 2.037 . S
Co414 N449 2.145 . S
Co414 N470 2.257 . S
O415 Co413 2.143 . S
O415 Co414 2.160 . S
C416 O417 1.278 . S
C416 O424 1.224 . S
O417 C416 1.278 . S
C418 O419 1.245 . S
C418 O430 1.232 . S
O419 C418 1.245 . S
O420 Co414 2.058 . S
O420 C446 1.269 . S
O421 Co413 2.074 . S
O421 C446 1.257 . S
H422 C447 0.930 . S
H423 C453 0.930 . S
O424 Co413 2.093 . S
O424 C416 1.224 . S
H425 C457 0.929 . S
H426 C459 0.930 . S
H427 C460 0.930 . S
H428 C458 0.929 . S
H429 C461 0.928 . S
O430 Co414 2.057 . S
O430 C418 1.232 . S
H431 C450 0.929 . S
H432 C451 0.929 . S
H433 C463 0.931 . S
H434 C455 0.929 . S
H435 C464 0.930 . S
H436 C456 0.931 . S
O437 Co413 2.097 . S
O437 C465 1.214 . S
H438 C466 0.929 . S
H439 C467 0.929 . S
H440 C468 0.930 . S
H441 C469 0.929 . S
H442 C471 0.930 . S
H443 C448 0.930 . S
H444 C452 0.930 . S
O445 Co414 2.037 . S
O445 C465 1.234 . S
C446 O420 1.269 . S
C446 O421 1.257 . S
C447 H422 0.930 . S
C447 C450 1.388 . S
C447 C452 1.418 . S
C448 H443 0.930 . S
C448 C451 1.404 . S
C448 C452 1.353 . S
N449 Co414 2.145 . S
N449 C450 1.397 . S
N449 C451 1.334 . S
C450 H431 0.929 . S
C450 C447 1.388 . S
C450 N449 1.397 . S
C451 H432 0.929 . S
C451 C448 1.404 . S
C451 N449 1.334 . S
C452 H444 0.930 . S
C452 C447 1.418 . S
C452 C448 1.353 . S
C453 H423 0.930 . S
C453 N454 1.330 . S
C453 C455 1.446 . S
N454 Co413 2.151 . S
N454 C453 1.330 . S
N454 C458 1.418 . S
C455 H434 0.929 . S
C455 C453 1.446 . S
C455 C456 1.332 . S
C456 H436 0.931 . S
C456 C455 1.332 . S
C456 C457 1.267 . S
C457 H425 0.929 . S
C457 C456 1.267 . S
C457 C458 1.251 . S
C458 H428 0.929 . S
C458 N454 1.418 . S
C458 C457 1.251 . S
C459 H426 0.930 . S
C459 C461 1.406 . S
C459 C464 1.261 . S
C460 H427 0.930 . S
C460 N462 1.325 . S
C460 C463 1.357 . S
C461 H429 0.928 . S
C461 C459 1.406 . S
C461 N462 1.261 . S
N462 Co413 2.214 . S
N462 C460 1.325 . S
N462 C461 1.261 . S
C463 H433 0.931 . S
C463 C460 1.357 . S
C463 C464 1.312 . S
C464 H435 0.930 . S
C464 C459 1.261 . S
C464 C463 1.312 . S
C465 O437 1.214 . S
C465 O445 1.234 . S
C466 H438 0.929 . S
C466 C469 1.391 . S
C466 C471 1.391 . S
C467 H439 0.929 . S
C467 C468 1.390 . S
C467 N470 1.391 . S
C468 H440 0.930 . S
C468 C467 1.390 . S
C468 C469 1.392 . S
C469 H441 0.929 . S
C469 C466 1.391 . S
C469 C468 1.392 . S
N470 Co414 2.257 . S
N470 C467 1.391 . S
N470 C471 1.388 . S
C471 H442 0.930 . S
C471 C466 1.391 . S
C471 N470 1.388 . S
Co472 O474 2.143 . S
Co472 O480 2.074 . S
Co472 O483 2.093 . S
Co472 O496 2.097 . S
Co472 N513 2.151 . S
Co472 N521 2.214 . S
Co473 O474 2.160 . S
Co473 O479 2.058 . S
Co473 O489 2.057 . S
Co473 O504 2.037 . S
Co473 N508 2.145 . S
Co473 N529 2.257 . S
O474 Co472 2.143 . S
O474 Co473 2.160 . S
C475 O476 1.278 . S
C475 O483 1.224 . S
O476 C475 1.278 . S
C477 O478 1.245 . S
C477 O489 1.232 . S
O478 C477 1.245 . S
O479 Co473 2.058 . S
O479 C505 1.269 . S
O480 Co472 2.074 . S
O480 C505 1.257 . S
H481 C506 0.930 . S
H482 C512 0.930 . S
O483 Co472 2.093 . S
O483 C475 1.224 . S
H484 C516 0.929 . S
H485 C518 0.930 . S
H486 C519 0.930 . S
H487 C517 0.929 . S
H488 C520 0.928 . S
O489 Co473 2.057 . S
O489 C477 1.232 . S
H490 C509 0.929 . S
H491 C510 0.929 . S
H492 C522 0.931 . S
H493 C514 0.929 . S
H494 C523 0.930 . S
H495 C515 0.931 . S
O496 Co472 2.097 . S
O496 C524 1.214 . S
H497 C525 0.929 . S
H498 C526 0.929 . S
H499 C527 0.930 . S
H500 C528 0.929 . S
H501 C530 0.930 . S
H502 C507 0.930 . S
H503 C511 0.930 . S
O504 Co473 2.037 . S
O504 C524 1.234 . S
C505 O479 1.269 . S
C505 O480 1.257 . S
C506 H481 0.930 . S
C506 C509 1.388 . S
C506 C511 1.418 . S
C507 H502 0.930 . S
C507 C510 1.404 . S
C507 C511 1.353 . S
N508 Co473 2.145 . S
N508 C509 1.397 . S
N508 C510 1.334 . S
C509 H490 0.929 . S
C509 C506 1.388 . S
C509 N508 1.397 . S
C510 H491 0.929 . S
C510 C507 1.404 . S
C510 N508 1.334 . S
C511 H503 0.930 . S
C511 C506 1.418 . S
C511 C507 1.353 . S
C512 H482 0.930 . S
C512 N513 1.330 . S
C512 C514 1.446 . S
N513 Co472 2.151 . S
N513 C512 1.330 . S
N513 C517 1.418 . S
C514 H493 0.929 . S
C514 C512 1.446 . S
C514 C515 1.332 . S
C515 H495 0.931 . S
C515 C514 1.332 . S
C515 C516 1.267 . S
C516 H484 0.929 . S
C516 C515 1.267 . S
C516 C517 1.251 . S
C517 H487 0.929 . S
C517 N513 1.418 . S
C517 C516 1.251 . S
C518 H485 0.930 . S
C518 C520 1.406 . S
C518 C523 1.261 . S
C519 H486 0.930 . S
C519 N521 1.325 . S
C519 C522 1.357 . S
C520 H488 0.928 . S
C520 C518 1.406 . S
C520 N521 1.261 . S
N521 Co472 2.214 . S
N521 C519 1.325 . S
N521 C520 1.261 . S
C522 H492 0.931 . S
C522 C519 1.357 . S
C522 C523 1.312 . S
C523 H494 0.930 . S
C523 C518 1.261 . S
C523 C522 1.312 . S
C524 O496 1.214 . S
C524 O504 1.234 . S
C525 H497 0.929 . S
C525 C528 1.391 . S
C525 C530 1.391 . S
C526 H498 0.929 . S
C526 C527 1.390 . S
C526 N529 1.391 . S
C527 H499 0.930 . S
C527 C526 1.390 . S
C527 C528 1.392 . S
C528 H500 0.929 . S
C528 C525 1.391 . S
C528 C527 1.392 . S
N529 Co473 2.257 . S
N529 C526 1.391 . S
N529 C530 1.388 . S
C530 H501 0.930 . S
C530 C525 1.391 . S
C530 N529 1.388 . S
Co531 O533 2.143 . S
Co531 O539 2.074 . S
Co531 O542 2.093 . S
Co531 O555 2.097 . S
Co531 N572 2.151 . S
Co531 N580 2.214 . S
Co532 O533 2.160 . S
Co532 O538 2.058 . S
Co532 O548 2.057 . S
Co532 O563 2.037 . S
Co532 N567 2.145 . S
Co532 N588 2.257 . S
O533 Co531 2.143 . S
O533 Co532 2.160 . S
C534 O535 1.278 . S
C534 O542 1.224 . S
O535 C534 1.278 . S
C536 O537 1.245 . S
C536 O548 1.232 . S
O537 C536 1.245 . S
O538 Co532 2.058 . S
O538 C564 1.269 . S
O539 Co531 2.074 . S
O539 C564 1.257 . S
H540 C565 0.930 . S
H541 C571 0.930 . S
O542 Co531 2.093 . S
O542 C534 1.224 . S
H543 C575 0.929 . S
H544 C577 0.930 . S
H545 C578 0.930 . S
H546 C576 0.929 . S
H547 C579 0.928 . S
O548 Co532 2.057 . S
O548 C536 1.232 . S
H549 C568 0.929 . S
H550 C569 0.929 . S
H551 C581 0.931 . S
H552 C573 0.929 . S
H553 C582 0.930 . S
H554 C574 0.931 . S
O555 Co531 2.097 . S
O555 C583 1.214 . S
H556 C584 0.929 . S
H557 C585 0.929 . S
H558 C586 0.930 . S
H559 C587 0.929 . S
H560 C589 0.930 . S
H561 C566 0.930 . S
H562 C570 0.930 . S
O563 Co532 2.037 . S
O563 C583 1.234 . S
C564 O538 1.269 . S
C564 O539 1.257 . S
C565 H540 0.930 . S
C565 C568 1.388 . S
C565 C570 1.418 . S
C566 H561 0.930 . S
C566 C569 1.404 . S
C566 C570 1.353 . S
N567 Co532 2.145 . S
N567 C568 1.397 . S
N567 C569 1.334 . S
C568 H549 0.929 . S
C568 C565 1.388 . S
C568 N567 1.397 . S
C569 H550 0.929 . S
C569 C566 1.404 . S
C569 N567 1.334 . S
C570 H562 0.930 . S
C570 C565 1.418 . S
C570 C566 1.353 . S
C571 H541 0.930 . S
C571 N572 1.330 . S
C571 C573 1.446 . S
N572 Co531 2.151 . S
N572 C571 1.330 . S
N572 C576 1.418 . S
C573 H552 0.929 . S
C573 C571 1.446 . S
C573 C574 1.332 . S
C574 H554 0.931 . S
C574 C573 1.332 . S
C574 C575 1.267 . S
C575 H543 0.929 . S
C575 C574 1.267 . S
C575 C576 1.251 . S
C576 H546 0.929 . S
C576 N572 1.418 . S
C576 C575 1.251 . S
C577 H544 0.930 . S
C577 C579 1.406 . S
C577 C582 1.261 . S
C578 H545 0.930 . S
C578 N580 1.325 . S
C578 C581 1.357 . S
C579 H547 0.928 . S
C579 C577 1.406 . S
C579 N580 1.261 . S
N580 Co531 2.214 . S
N580 C578 1.325 . S
N580 C579 1.261 . S
C581 H551 0.931 . S
C581 C578 1.357 . S
C581 C582 1.312 . S
C582 H553 0.930 . S
C582 C577 1.261 . S
C582 C581 1.312 . S
C583 O555 1.214 . S
C583 O563 1.234 . S
C584 H556 0.929 . S
C584 C587 1.391 . S
C584 C589 1.391 . S
C585 H557 0.929 . S
C585 C586 1.390 . S
C585 N588 1.391 . S
C586 H558 0.930 . S
C586 C585 1.390 . S
C586 C587 1.392 . S
C587 H559 0.929 . S
C587 C584 1.391 . S
C587 C586 1.392 . S
N588 Co532 2.257 . S
N588 C585 1.391 . S
N588 C589 1.388 . S
C589 H560 0.930 . S
C589 C584 1.391 . S
C589 N588 1.388 . S
Co590 O592 2.143 . S
Co590 O598 2.074 . S
Co590 O601 2.093 . S
Co590 O614 2.097 . S
Co590 N631 2.151 . S
Co590 N639 2.214 . S
Co591 O592 2.160 . S
Co591 O597 2.058 . S
Co591 O607 2.057 . S
Co591 O622 2.037 . S
Co591 N626 2.145 . S
Co591 N647 2.257 . S
O592 Co590 2.143 . S
O592 Co591 2.160 . S
C593 O594 1.278 . S
C593 O601 1.224 . S
O594 C593 1.278 . S
C595 O596 1.245 . S
C595 O607 1.232 . S
O596 C595 1.245 . S
O597 Co591 2.058 . S
O597 C623 1.269 . S
O598 Co590 2.074 . S
O598 C623 1.257 . S
H599 C624 0.930 . S
H600 C630 0.930 . S
O601 Co590 2.093 . S
O601 C593 1.224 . S
H602 C634 0.929 . S
H603 C636 0.930 . S
H604 C637 0.930 . S
H605 C635 0.929 . S
H606 C638 0.928 . S
O607 Co591 2.057 . S
O607 C595 1.232 . S
H608 C627 0.929 . S
H609 C628 0.929 . S
H610 C640 0.931 . S
H611 C632 0.929 . S
H612 C641 0.930 . S
H613 C633 0.931 . S
O614 Co590 2.097 . S
O614 C642 1.214 . S
H615 C643 0.929 . S
H616 C644 0.929 . S
H617 C645 0.930 . S
H618 C646 0.929 . S
H619 C648 0.930 . S
H620 C625 0.930 . S
H621 C629 0.930 . S
O622 Co591 2.037 . S
O622 C642 1.234 . S
C623 O597 1.269 . S
C623 O598 1.257 . S
C624 H599 0.930 . S
C624 C627 1.388 . S
C624 C629 1.418 . S
C625 H620 0.930 . S
C625 C628 1.404 . S
C625 C629 1.353 . S
N626 Co591 2.145 . S
N626 C627 1.397 . S
N626 C628 1.334 . S
C627 H608 0.929 . S
C627 C624 1.388 . S
C627 N626 1.397 . S
C628 H609 0.929 . S
C628 C625 1.404 . S
C628 N626 1.334 . S
C629 H621 0.930 . S
C629 C624 1.418 . S
C629 C625 1.353 . S
C630 H600 0.930 . S
C630 N631 1.330 . S
C630 C632 1.446 . S
N631 Co590 2.151 . S
N631 C630 1.330 . S
N631 C635 1.418 . S
C632 H611 0.929 . S
C632 C630 1.446 . S
C632 C633 1.332 . S
C633 H613 0.931 . S
C633 C632 1.332 . S
C633 C634 1.267 . S
C634 H602 0.929 . S
C634 C633 1.267 . S
C634 C635 1.251 . S
C635 H605 0.929 . S
C635 N631 1.418 . S
C635 C634 1.251 . S
C636 H603 0.930 . S
C636 C638 1.406 . S
C636 C641 1.261 . S
C637 H604 0.930 . S
C637 N639 1.325 . S
C637 C640 1.357 . S
C638 H606 0.928 . S
C638 C636 1.406 . S
C638 N639 1.261 . S
N639 Co590 2.214 . S
N639 C637 1.325 . S
N639 C638 1.261 . S
C640 H610 0.931 . S
C640 C637 1.357 . S
C640 C641 1.312 . S
C641 H612 0.930 . S
C641 C636 1.261 . S
C641 C640 1.312 . S
C642 O614 1.214 . S
C642 O622 1.234 . S
C643 H615 0.929 . S
C643 C646 1.391 . S
C643 C648 1.391 . S
C644 H616 0.929 . S
C644 C645 1.390 . S
C644 N647 1.391 . S
C645 H617 0.930 . S
C645 C644 1.390 . S
C645 C646 1.392 . S
C646 H618 0.929 . S
C646 C643 1.391 . S
C646 C645 1.392 . S
N647 Co591 2.257 . S
N647 C644 1.391 . S
N647 C648 1.388 . S
C648 H619 0.930 . S
C648 C643 1.391 . S
C648 N647 1.388 . S
Co649 O651 2.143 . S
Co649 O657 2.074 . S
Co649 O660 2.093 . S
Co649 O673 2.097 . S
Co649 N690 2.151 . S
Co649 N698 2.214 . S
Co650 O651 2.160 . S
Co650 O656 2.058 . S
Co650 O666 2.057 . S
Co650 O681 2.037 . S
Co650 N685 2.145 . S
Co650 N706 2.257 . S
O651 Co649 2.143 . S
O651 Co650 2.160 . S
C652 O653 1.278 . S
C652 O660 1.224 . S
O653 C652 1.278 . S
C654 O655 1.245 . S
C654 O666 1.232 . S
O655 C654 1.245 . S
O656 Co650 2.058 . S
O656 C682 1.269 . S
O657 Co649 2.074 . S
O657 C682 1.257 . S
H658 C683 0.930 . S
H659 C689 0.930 . S
O660 Co649 2.093 . S
O660 C652 1.224 . S
H661 C693 0.929 . S
H662 C695 0.930 . S
H663 C696 0.930 . S
H664 C694 0.929 . S
H665 C697 0.928 . S
O666 Co650 2.057 . S
O666 C654 1.232 . S
H667 C686 0.929 . S
H668 C687 0.929 . S
H669 C699 0.931 . S
H670 C691 0.929 . S
H671 C700 0.930 . S
H672 C692 0.931 . S
O673 Co649 2.097 . S
O673 C701 1.214 . S
H674 C702 0.929 . S
H675 C703 0.929 . S
H676 C704 0.930 . S
H677 C705 0.929 . S
H678 C707 0.930 . S
H679 C684 0.930 . S
H680 C688 0.930 . S
O681 Co650 2.037 . S
O681 C701 1.234 . S
C682 O656 1.269 . S
C682 O657 1.257 . S
C683 H658 0.930 . S
C683 C686 1.388 . S
C683 C688 1.418 . S
C684 H679 0.930 . S
C684 C687 1.404 . S
C684 C688 1.353 . S
N685 Co650 2.145 . S
N685 C686 1.397 . S
N685 C687 1.334 . S
C686 H667 0.929 . S
C686 C683 1.388 . S
C686 N685 1.397 . S
C687 H668 0.929 . S
C687 C684 1.404 . S
C687 N685 1.334 . S
C688 H680 0.930 . S
C688 C683 1.418 . S
C688 C684 1.353 . S
C689 H659 0.930 . S
C689 N690 1.330 . S
C689 C691 1.446 . S
N690 Co649 2.151 . S
N690 C689 1.330 . S
N690 C694 1.418 . S
C691 H670 0.929 . S
C691 C689 1.446 . S
C691 C692 1.332 . S
C692 H672 0.931 . S
C692 C691 1.332 . S
C692 C693 1.267 . S
C693 H661 0.929 . S
C693 C692 1.267 . S
C693 C694 1.251 . S
C694 H664 0.929 . S
C694 N690 1.418 . S
C694 C693 1.251 . S
C695 H662 0.930 . S
C695 C697 1.406 . S
C695 C700 1.261 . S
C696 H663 0.930 . S
C696 N698 1.325 . S
C696 C699 1.357 . S
C697 H665 0.928 . S
C697 C695 1.406 . S
C697 N698 1.261 . S
N698 Co649 2.214 . S
N698 C696 1.325 . S
N698 C697 1.261 . S
C699 H669 0.931 . S
C699 C696 1.357 . S
C699 C700 1.312 . S
C700 H671 0.930 . S
C700 C695 1.261 . S
C700 C699 1.312 . S
C701 O673 1.214 . S
C701 O681 1.234 . S
C702 H674 0.929 . S
C702 C705 1.391 . S
C702 C707 1.391 . S
C703 H675 0.929 . S
C703 C704 1.390 . S
C703 N706 1.391 . S
C704 H676 0.930 . S
C704 C703 1.390 . S
C704 C705 1.392 . S
C705 H677 0.929 . S
C705 C702 1.391 . S
C705 C704 1.392 . S
N706 Co650 2.257 . S
N706 C703 1.391 . S
N706 C707 1.388 . S
C707 H678 0.930 . S
C707 C702 1.391 . S
C707 N706 1.388 . S
Co708 O710 2.143 . S
Co708 O716 2.074 . S
Co708 O719 2.093 . S
Co708 O732 2.097 . S
Co708 N749 2.151 . S
Co708 N757 2.214 . S
Co709 O710 2.160 . S
Co709 O715 2.058 . S
Co709 O725 2.057 . S
Co709 O740 2.037 . S
Co709 N744 2.145 . S
Co709 N765 2.257 . S
O710 Co708 2.143 . S
O710 Co709 2.160 . S
C711 O712 1.278 . S
C711 O719 1.224 . S
O712 C711 1.278 . S
C713 O714 1.245 . S
C713 O725 1.232 . S
O714 C713 1.245 . S
O715 Co709 2.058 . S
O715 C741 1.269 . S
O716 Co708 2.074 . S
O716 C741 1.257 . S
H717 C742 0.930 . S
H718 C748 0.930 . S
O719 Co708 2.093 . S
O719 C711 1.224 . S
H720 C752 0.929 . S
H721 C754 0.930 . S
H722 C755 0.930 . S
H723 C753 0.929 . S
H724 C756 0.928 . S
O725 Co709 2.057 . S
O725 C713 1.232 . S
H726 C745 0.929 . S
H727 C746 0.929 . S
H728 C758 0.931 . S
H729 C750 0.929 . S
H730 C759 0.930 . S
H731 C751 0.931 . S
O732 Co708 2.097 . S
O732 C760 1.214 . S
H733 C761 0.929 . S
H734 C762 0.929 . S
H735 C763 0.930 . S
H736 C764 0.929 . S
H737 C766 0.930 . S
H738 C743 0.930 . S
H739 C747 0.930 . S
O740 Co709 2.037 . S
O740 C760 1.234 . S
C741 O715 1.269 . S
C741 O716 1.257 . S
C742 H717 0.930 . S
C742 C745 1.388 . S
C742 C747 1.418 . S
C743 H738 0.930 . S
C743 C746 1.404 . S
C743 C747 1.353 . S
N744 Co709 2.145 . S
N744 C745 1.397 . S
N744 C746 1.334 . S
C745 H726 0.929 . S
C745 C742 1.388 . S
C745 N744 1.397 . S
C746 H727 0.929 . S
C746 C743 1.404 . S
C746 N744 1.334 . S
C747 H739 0.930 . S
C747 C742 1.418 . S
C747 C743 1.353 . S
C748 H718 0.930 . S
C748 N749 1.330 . S
C748 C750 1.446 . S
N749 Co708 2.151 . S
N749 C748 1.330 . S
N749 C753 1.418 . S
C750 H729 0.929 . S
C750 C748 1.446 . S
C750 C751 1.332 . S
C751 H731 0.931 . S
C751 C750 1.332 . S
C751 C752 1.267 . S
C752 H720 0.929 . S
C752 C751 1.267 . S
C752 C753 1.251 . S
C753 H723 0.929 . S
C753 N749 1.418 . S
C753 C752 1.251 . S
C754 H721 0.930 . S
C754 C756 1.406 . S
C754 C759 1.261 . S
C755 H722 0.930 . S
C755 N757 1.325 . S
C755 C758 1.357 . S
C756 H724 0.928 . S
C756 C754 1.406 . S
C756 N757 1.261 . S
N757 Co708 2.214 . S
N757 C755 1.325 . S
N757 C756 1.261 . S
C758 H728 0.931 . S
C758 C755 1.357 . S
C758 C759 1.312 . S
C759 H730 0.930 . S
C759 C754 1.261 . S
C759 C758 1.312 . S
C760 O732 1.214 . S
C760 O740 1.234 . S
C761 H733 0.929 . S
C761 C764 1.391 . S
C761 C766 1.391 . S
C762 H734 0.929 . S
C762 C763 1.390 . S
C762 N765 1.391 . S
C763 H735 0.930 . S
C763 C762 1.390 . S
C763 C764 1.392 . S
C764 H736 0.929 . S
C764 C761 1.391 . S
C764 C763 1.392 . S
N765 Co709 2.257 . S
N765 C762 1.391 . S
N765 C766 1.388 . S
C766 H737 0.930 . S
C766 C761 1.391 . S
C766 N765 1.388 . S
Co767 O769 2.143 . S
Co767 O775 2.074 . S
Co767 O778 2.093 . S
Co767 O791 2.097 . S
Co767 N808 2.151 . S
Co767 N816 2.214 . S
Co768 O769 2.160 . S
Co768 O774 2.058 . S
Co768 O784 2.057 . S
Co768 O799 2.037 . S
Co768 N803 2.145 . S
Co768 N824 2.257 . S
O769 Co767 2.143 . S
O769 Co768 2.160 . S
C770 O771 1.278 . S
C770 O778 1.224 . S
O771 C770 1.278 . S
C772 O773 1.245 . S
C772 O784 1.232 . S
O773 C772 1.245 . S
O774 Co768 2.058 . S
O774 C800 1.269 . S
O775 Co767 2.074 . S
O775 C800 1.257 . S
H776 C801 0.930 . S
H777 C807 0.930 . S
O778 Co767 2.093 . S
O778 C770 1.224 . S
H779 C811 0.929 . S
H780 C813 0.930 . S
H781 C814 0.930 . S
H782 C812 0.929 . S
H783 C815 0.928 . S
O784 Co768 2.057 . S
O784 C772 1.232 . S
H785 C804 0.929 . S
H786 C805 0.929 . S
H787 C817 0.931 . S
H788 C809 0.929 . S
H789 C818 0.930 . S
H790 C810 0.931 . S
O791 Co767 2.097 . S
O791 C819 1.214 . S
H792 C820 0.929 . S
H793 C821 0.929 . S
H794 C822 0.930 . S
H795 C823 0.929 . S
H796 C825 0.930 . S
H797 C802 0.930 . S
H798 C806 0.930 . S
O799 Co768 2.037 . S
O799 C819 1.234 . S
C800 O774 1.269 . S
C800 O775 1.257 . S
C801 H776 0.930 . S
C801 C804 1.388 . S
C801 C806 1.418 . S
C802 H797 0.930 . S
C802 C805 1.404 . S
C802 C806 1.353 . S
N803 Co768 2.145 . S
N803 C804 1.397 . S
N803 C805 1.334 . S
C804 H785 0.929 . S
C804 C801 1.388 . S
C804 N803 1.397 . S
C805 H786 0.929 . S
C805 C802 1.404 . S
C805 N803 1.334 . S
C806 H798 0.930 . S
C806 C801 1.418 . S
C806 C802 1.353 . S
C807 H777 0.930 . S
C807 N808 1.330 . S
C807 C809 1.446 . S
N808 Co767 2.151 . S
N808 C807 1.330 . S
N808 C812 1.418 . S
C809 H788 0.929 . S
C809 C807 1.446 . S
C809 C810 1.332 . S
C810 H790 0.931 . S
C810 C809 1.332 . S
C810 C811 1.267 . S
C811 H779 0.929 . S
C811 C810 1.267 . S
C811 C812 1.251 . S
C812 H782 0.929 . S
C812 N808 1.418 . S
C812 C811 1.251 . S
C813 H780 0.930 . S
C813 C815 1.406 . S
C813 C818 1.261 . S
C814 H781 0.930 . S
C814 N816 1.325 . S
C814 C817 1.357 . S
C815 H783 0.928 . S
C815 C813 1.406 . S
C815 N816 1.261 . S
N816 Co767 2.214 . S
N816 C814 1.325 . S
N816 C815 1.261 . S
C817 H787 0.931 . S
C817 C814 1.357 . S
C817 C818 1.312 . S
C818 H789 0.930 . S
C818 C813 1.261 . S
C818 C817 1.312 . S
C819 O791 1.214 . S
C819 O799 1.234 . S
C820 H792 0.929 . S
C820 C823 1.391 . S
C820 C825 1.391 . S
C821 H793 0.929 . S
C821 C822 1.390 . S
C821 N824 1.391 . S
C822 H794 0.930 . S
C822 C821 1.390 . S
C822 C823 1.392 . S
C823 H795 0.929 . S
C823 C820 1.391 . S
C823 C822 1.392 . S
N824 Co768 2.257 . S
N824 C821 1.391 . S
N824 C825 1.388 . S
C825 H796 0.930 . S
C825 C820 1.391 . S
C825 N824 1.388 . S
Co826 O828 2.143 . S
Co826 O834 2.074 . S
Co826 O837 2.093 . S
Co826 O850 2.097 . S
Co826 N867 2.151 . S
Co826 N875 2.214 . S
Co827 O828 2.160 . S
Co827 O833 2.058 . S
Co827 O843 2.057 . S
Co827 O858 2.037 . S
Co827 N862 2.145 . S
Co827 N883 2.257 . S
O828 Co826 2.143 . S
O828 Co827 2.160 . S
C829 O830 1.278 . S
C829 O837 1.224 . S
O830 C829 1.278 . S
C831 O832 1.245 . S
C831 O843 1.232 . S
O832 C831 1.245 . S
O833 Co827 2.058 . S
O833 C859 1.269 . S
O834 Co826 2.074 . S
O834 C859 1.257 . S
H835 C860 0.930 . S
H836 C866 0.930 . S
O837 Co826 2.093 . S
O837 C829 1.224 . S
H838 C870 0.929 . S
H839 C872 0.930 . S
H840 C873 0.930 . S
H841 C871 0.929 . S
H842 C874 0.928 . S
O843 Co827 2.057 . S
O843 C831 1.232 . S
H844 C863 0.929 . S
H845 C864 0.929 . S
H846 C876 0.931 . S
H847 C868 0.929 . S
H848 C877 0.930 . S
H849 C869 0.931 . S
O850 Co826 2.097 . S
O850 C878 1.214 . S
H851 C879 0.929 . S
H852 C880 0.929 . S
H853 C881 0.930 . S
H854 C882 0.929 . S
H855 C884 0.930 . S
H856 C861 0.930 . S
H857 C865 0.930 . S
O858 Co827 2.037 . S
O858 C878 1.234 . S
C859 O833 1.269 . S
C859 O834 1.257 . S
C860 H835 0.930 . S
C860 C863 1.388 . S
C860 C865 1.418 . S
C861 H856 0.930 . S
C861 C864 1.404 . S
C861 C865 1.353 . S
N862 Co827 2.145 . S
N862 C863 1.397 . S
N862 C864 1.334 . S
C863 H844 0.929 . S
C863 C860 1.388 . S
C863 N862 1.397 . S
C864 H845 0.929 . S
C864 C861 1.404 . S
C864 N862 1.334 . S
C865 H857 0.930 . S
C865 C860 1.418 . S
C865 C861 1.353 . S
C866 H836 0.930 . S
C866 N867 1.330 . S
C866 C868 1.446 . S
N867 Co826 2.151 . S
N867 C866 1.330 . S
N867 C871 1.418 . S
C868 H847 0.929 . S
C868 C866 1.446 . S
C868 C869 1.332 . S
C869 H849 0.931 . S
C869 C868 1.332 . S
C869 C870 1.267 . S
C870 H838 0.929 . S
C870 C869 1.267 . S
C870 C871 1.251 . S
C871 H841 0.929 . S
C871 N867 1.418 . S
C871 C870 1.251 . S
C872 H839 0.930 . S
C872 C874 1.406 . S
C872 C877 1.261 . S
C873 H840 0.930 . S
C873 N875 1.325 . S
C873 C876 1.357 . S
C874 H842 0.928 . S
C874 C872 1.406 . S
C874 N875 1.261 . S
N875 Co826 2.214 . S
N875 C873 1.325 . S
N875 C874 1.261 . S
C876 H846 0.931 . S
C876 C873 1.357 . S
C876 C877 1.312 . S
C877 H848 0.930 . S
C877 C872 1.261 . S
C877 C876 1.312 . S
C878 O850 1.214 . S
C878 O858 1.234 . S
C879 H851 0.929 . S
C879 C882 1.391 . S
C879 C884 1.391 . S
C880 H852 0.929 . S
C880 C881 1.390 . S
C880 N883 1.391 . S
C881 H853 0.930 . S
C881 C880 1.390 . S
C881 C882 1.392 . S
C882 H854 0.929 . S
C882 C879 1.391 . S
C882 C881 1.392 . S
N883 Co827 2.257 . S
N883 C880 1.391 . S
N883 C884 1.388 . S
C884 H855 0.930 . S
C884 C879 1.391 . S
C884 N883 1.388 . S
Co885 O887 2.143 . S
Co885 O893 2.074 . S
Co885 O896 2.093 . S
Co885 O909 2.097 . S
Co885 N926 2.151 . S
Co885 N934 2.214 . S
Co886 O887 2.160 . S
Co886 O892 2.058 . S
Co886 O902 2.057 . S
Co886 O917 2.037 . S
Co886 N921 2.145 . S
Co886 N942 2.257 . S
O887 Co885 2.143 . S
O887 Co886 2.160 . S
C888 O889 1.278 . S
C888 O896 1.224 . S
O889 C888 1.278 . S
C890 O891 1.245 . S
C890 O902 1.232 . S
O891 C890 1.245 . S
O892 Co886 2.058 . S
O892 C918 1.269 . S
O893 Co885 2.074 . S
O893 C918 1.257 . S
H894 C919 0.930 . S
H895 C925 0.930 . S
O896 Co885 2.093 . S
O896 C888 1.224 . S
H897 C929 0.929 . S
H898 C931 0.930 . S
H899 C932 0.930 . S
H900 C930 0.929 . S
H901 C933 0.928 . S
O902 Co886 2.057 . S
O902 C890 1.232 . S
H903 C922 0.929 . S
H904 C923 0.929 . S
H905 C935 0.931 . S
H906 C927 0.929 . S
H907 C936 0.930 . S
H908 C928 0.931 . S
O909 Co885 2.097 . S
O909 C937 1.214 . S
H910 C938 0.929 . S
H911 C939 0.929 . S
H912 C940 0.930 . S
H913 C941 0.929 . S
H914 C943 0.930 . S
H915 C920 0.930 . S
H916 C924 0.930 . S
O917 Co886 2.037 . S
O917 C937 1.234 . S
C918 O892 1.269 . S
C918 O893 1.257 . S
C919 H894 0.930 . S
C919 C922 1.388 . S
C919 C924 1.418 . S
C920 H915 0.930 . S
C920 C923 1.404 . S
C920 C924 1.353 . S
N921 Co886 2.145 . S
N921 C922 1.397 . S
N921 C923 1.334 . S
C922 H903 0.929 . S
C922 C919 1.388 . S
C922 N921 1.397 . S
C923 H904 0.929 . S
C923 C920 1.404 . S
C923 N921 1.334 . S
C924 H916 0.930 . S
C924 C919 1.418 . S
C924 C920 1.353 . S
C925 H895 0.930 . S
C925 N926 1.330 . S
C925 C927 1.446 . S
N926 Co885 2.151 . S
N926 C925 1.330 . S
N926 C930 1.418 . S
C927 H906 0.929 . S
C927 C925 1.446 . S
C927 C928 1.332 . S
C928 H908 0.931 . S
C928 C927 1.332 . S
C928 C929 1.267 . S
C929 H897 0.929 . S
C929 C928 1.267 . S
C929 C930 1.251 . S
C930 H900 0.929 . S
C930 N926 1.418 . S
C930 C929 1.251 . S
C931 H898 0.930 . S
C931 C933 1.406 . S
C931 C936 1.261 . S
C932 H899 0.930 . S
C932 N934 1.325 . S
C932 C935 1.357 . S
C933 H901 0.928 . S
C933 C931 1.406 . S
C933 N934 1.261 . S
N934 Co885 2.214 . S
N934 C932 1.325 . S
N934 C933 1.261 . S
C935 H905 0.931 . S
C935 C932 1.357 . S
C935 C936 1.312 . S
C936 H907 0.930 . S
C936 C931 1.261 . S
C936 C935 1.312 . S
C937 O909 1.214 . S
C937 O917 1.234 . S
C938 H910 0.929 . S
C938 C941 1.391 . S
C938 C943 1.391 . S
C939 H911 0.929 . S
C939 C940 1.390 . S
C939 N942 1.391 . S
C940 H912 0.930 . S
C940 C939 1.390 . S
C940 C941 1.392 . S
C941 H913 0.929 . S
C941 C938 1.391 . S
C941 C940 1.392 . S
N942 Co886 2.257 . S
N942 C939 1.391 . S
N942 C943 1.388 . S
C943 H914 0.930 . S
C943 C938 1.391 . S
C943 N942 1.388 . S
H944 C952 0.950 . S
H945 C957 0.950 . S
H946 C954 0.950 . S
H947 C956 0.950 . S
H948 C958 0.950 . S
H949 C960 0.950 . S
H950 C962 0.950 . S
H951 C963 0.950 . S
C952 H944 0.950 . S
C952 C953 1.386 . S
C952 C954 1.391 . S
C953 C952 1.386 . S
C953 C957 1.393 . S
C954 H946 0.950 . S
C954 C952 1.391 . S
C954 C955 1.400 . S
C955 C954 1.400 . S
C955 C956 1.398 . S
C955 C961 1.491 . S
C956 H947 0.950 . S
C956 C955 1.398 . S
C956 C957 1.391 . S
C957 H945 0.950 . S
C957 C953 1.393 . S
C957 C956 1.391 . S
C958 H948 0.950 . S
C958 C959 1.386 . S
C958 C960 1.391 . S
C959 C958 1.386 . S
C959 C963 1.393 . S
C960 H949 0.950 . S
C960 C958 1.391 . S
C960 C961 1.400 . S
C961 C955 1.491 . S
C961 C960 1.400 . S
C961 C962 1.398 . S
C962 H950 0.950 . S
C962 C961 1.398 . S
C962 C963 1.391 . S
C963 H951 0.950 . S
C963 C959 1.393 . S
C963 C962 1.391 . S
H964 C972 0.950 . S
H965 C977 0.950 . S
H966 C974 0.950 . S
H967 C976 0.950 . S
H968 C978 0.950 . S
H969 C980 0.950 . S
H970 C982 0.950 . S
H971 C983 0.950 . S
C972 H964 0.950 . S
C972 C973 1.386 . S
C972 C974 1.391 . S
C973 C972 1.386 . S
C973 C977 1.393 . S
C974 H966 0.950 . S
C974 C972 1.391 . S
C974 C975 1.400 . S
C975 C974 1.400 . S
C975 C976 1.398 . S
C975 C981 1.491 . S
C976 H967 0.950 . S
C976 C975 1.398 . S
C976 C977 1.391 . S
C977 H965 0.950 . S
C977 C973 1.393 . S
C977 C976 1.391 . S
C978 H968 0.950 . S
C978 C979 1.386 . S
C978 C980 1.391 . S
C979 C978 1.386 . S
C979 C983 1.393 . S
C980 H969 0.950 . S
C980 C978 1.391 . S
C980 C981 1.400 . S
C981 C975 1.491 . S
C981 C980 1.400 . S
C981 C982 1.398 . S
C982 H970 0.950 . S
C982 C981 1.398 . S
C982 C983 1.391 . S
C983 H971 0.950 . S
C983 C979 1.393 . S
C983 C982 1.391 . S
H984 C992 0.950 . S
H985 C997 0.950 . S
H986 C994 0.950 . S
H987 C996 0.950 . S
H988 C998 0.950 . S
H989 C1000 0.950 . S
H990 C1002 0.950 . S
H991 C1003 0.950 . S
C992 H984 0.950 . S
C992 C993 1.386 . S
C992 C994 1.391 . S
C993 C992 1.386 . S
C993 C997 1.393 . S
C994 H986 0.950 . S
C994 C992 1.391 . S
C994 C995 1.400 . S
C995 C994 1.400 . S
C995 C996 1.398 . S
C995 C1001 1.491 . S
C996 H987 0.950 . S
C996 C995 1.398 . S
C996 C997 1.391 . S
C997 H985 0.950 . S
C997 C993 1.393 . S
C997 C996 1.391 . S
C998 H988 0.950 . S
C998 C999 1.386 . S
C998 C1000 1.391 . S
C999 C998 1.386 . S
C999 C1003 1.393 . S
C1000 H989 0.950 . S
C1000 C998 1.391 . S
C1000 C1001 1.400 . S
C1001 C995 1.491 . S
C1001 C1000 1.400 . S
C1001 C1002 1.398 . S
C1002 H990 0.950 . S
C1002 C1001 1.398 . S
C1002 C1003 1.391 . S
C1003 H991 0.950 . S
C1003 C999 1.393 . S
C1003 C1002 1.391 . S
H1004 C1012 0.950 . S
H1005 C1017 0.950 . S
H1006 C1014 0.950 . S
H1007 C1016 0.950 . S
H1008 C1018 0.950 . S
H1009 C1020 0.950 . S
H1010 C1022 0.950 . S
H1011 C1023 0.950 . S
C1012 H1004 0.950 . S
C1012 C1013 1.386 . S
C1012 C1014 1.391 . S
C1013 C1012 1.386 . S
C1013 C1017 1.393 . S
C1014 H1006 0.950 . S
C1014 C1012 1.391 . S
C1014 C1015 1.400 . S
C1015 C1014 1.400 . S
C1015 C1016 1.398 . S
C1015 C1021 1.491 . S
C1016 H1007 0.950 . S
C1016 C1015 1.398 . S
C1016 C1017 1.391 . S
C1017 H1005 0.950 . S
C1017 C1013 1.393 . S
C1017 C1016 1.391 . S
C1018 H1008 0.950 . S
C1018 C1019 1.386 . S
C1018 C1020 1.391 . S
C1019 C1018 1.386 . S
C1019 C1023 1.393 . S
C1020 H1009 0.950 . S
C1020 C1018 1.391 . S
C1020 C1021 1.400 . S
C1021 C1015 1.491 . S
C1021 C1020 1.400 . S
C1021 C1022 1.398 . S
C1022 H1010 0.950 . S
C1022 C1021 1.398 . S
C1022 C1023 1.391 . S
C1023 H1011 0.950 . S
C1023 C1019 1.393 . S
C1023 C1022 1.391 . S
H1024 C1032 0.950 . S
H1025 C1037 0.950 . S
H1026 C1034 0.950 . S
H1027 C1036 0.950 . S
H1028 C1038 0.950 . S
H1029 C1040 0.950 . S
H1030 C1042 0.950 . S
H1031 C1043 0.950 . S
C1032 H1024 0.950 . S
C1032 C1033 1.386 . S
C1032 C1034 1.391 . S
C1033 C1032 1.386 . S
C1033 C1037 1.393 . S
C1034 H1026 0.950 . S
C1034 C1032 1.391 . S
C1034 C1035 1.400 . S
C1035 C1034 1.400 . S
C1035 C1036 1.398 . S
C1035 C1041 1.491 . S
C1036 H1027 0.950 . S
C1036 C1035 1.398 . S
C1036 C1037 1.391 . S
C1037 H1025 0.950 . S
C1037 C1033 1.393 . S
C1037 C1036 1.391 . S
C1038 H1028 0.950 . S
C1038 C1039 1.386 . S
C1038 C1040 1.391 . S
C1039 C1038 1.386 . S
C1039 C1043 1.393 . S
C1040 H1029 0.950 . S
C1040 C1038 1.391 . S
C1040 C1041 1.400 . S
C1041 C1035 1.491 . S
C1041 C1040 1.400 . S
C1041 C1042 1.398 . S
C1042 H1030 0.950 . S
C1042 C1041 1.398 . S
C1042 C1043 1.391 . S
C1043 H1031 0.950 . S
C1043 C1039 1.393 . S
C1043 C1042 1.391 . S
H1044 C1052 0.950 . S
H1045 C1057 0.950 . S
H1046 C1054 0.950 . S
H1047 C1056 0.950 . S
H1048 C1058 0.950 . S
H1049 C1060 0.950 . S
H1050 C1062 0.950 . S
H1051 C1063 0.950 . S
C1052 H1044 0.950 . S
C1052 C1053 1.386 . S
C1052 C1054 1.391 . S
C1053 C1052 1.386 . S
C1053 C1057 1.393 . S
C1054 H1046 0.950 . S
C1054 C1052 1.391 . S
C1054 C1055 1.400 . S
C1055 C1054 1.400 . S
C1055 C1056 1.398 . S
C1055 C1061 1.491 . S
C1056 H1047 0.950 . S
C1056 C1055 1.398 . S
C1056 C1057 1.391 . S
C1057 H1045 0.950 . S
C1057 C1053 1.393 . S
C1057 C1056 1.391 . S
C1058 H1048 0.950 . S
C1058 C1059 1.386 . S
C1058 C1060 1.391 . S
C1059 C1058 1.386 . S
C1059 C1063 1.393 . S
C1060 H1049 0.950 . S
C1060 C1058 1.391 . S
C1060 C1061 1.400 . S
C1061 C1055 1.491 . S
C1061 C1060 1.400 . S
C1061 C1062 1.398 . S
C1062 H1050 0.950 . S
C1062 C1061 1.398 . S
C1062 C1063 1.391 . S
C1063 H1051 0.950 . S
C1063 C1059 1.393 . S
C1063 C1062 1.391 . S
H1064 C1072 0.950 . S
H1065 C1077 0.950 . S
H1066 C1074 0.950 . S
H1067 C1076 0.950 . S
H1068 C1078 0.950 . S
H1069 C1080 0.950 . S
H1070 C1082 0.950 . S
H1071 C1083 0.950 . S
C1072 H1064 0.950 . S
C1072 C1073 1.386 . S
C1072 C1074 1.391 . S
C1073 C1072 1.386 . S
C1073 C1077 1.393 . S
C1074 H1066 0.950 . S
C1074 C1072 1.391 . S
C1074 C1075 1.400 . S
C1075 C1074 1.400 . S
C1075 C1076 1.398 . S
C1075 C1081 1.491 . S
C1076 H1067 0.950 . S
C1076 C1075 1.398 . S
C1076 C1077 1.391 . S
C1077 H1065 0.950 . S
C1077 C1073 1.393 . S
C1077 C1076 1.391 . S
C1078 H1068 0.950 . S
C1078 C1079 1.386 . S
C1078 C1080 1.391 . S
C1079 C1078 1.386 . S
C1079 C1083 1.393 . S
C1080 H1069 0.950 . S
C1080 C1078 1.391 . S
C1080 C1081 1.400 . S
C1081 C1075 1.491 . S
C1081 C1080 1.400 . S
C1081 C1082 1.398 . S
C1082 H1070 0.950 . S
C1082 C1081 1.398 . S
C1082 C1083 1.391 . S
C1083 H1071 0.950 . S
C1083 C1079 1.393 . S
C1083 C1082 1.391 . S
H1084 C1092 0.950 . S
H1085 C1097 0.950 . S
H1086 C1094 0.950 . S
H1087 C1096 0.950 . S
H1088 C1098 0.950 . S
H1089 C1100 0.950 . S
H1090 C1102 0.950 . S
H1091 C1103 0.950 . S
C1092 H1084 0.950 . S
C1092 C1093 1.386 . S
C1092 C1094 1.391 . S
C1093 C1092 1.386 . S
C1093 C1097 1.393 . S
C1094 H1086 0.950 . S
C1094 C1092 1.391 . S
C1094 C1095 1.400 . S
C1095 C1094 1.400 . S
C1095 C1096 1.398 . S
C1095 C1101 1.491 . S
C1096 H1087 0.950 . S
C1096 C1095 1.398 . S
C1096 C1097 1.391 . S
C1097 H1085 0.950 . S
C1097 C1093 1.393 . S
C1097 C1096 1.391 . S
C1098 H1088 0.950 . S
C1098 C1099 1.386 . S
C1098 C1100 1.391 . S
C1099 C1098 1.386 . S
C1099 C1103 1.393 . S
C1100 H1089 0.950 . S
C1100 C1098 1.391 . S
C1100 C1101 1.400 . S
C1101 C1095 1.491 . S
C1101 C1100 1.400 . S
C1101 C1102 1.398 . S
C1102 H1090 0.950 . S
C1102 C1101 1.398 . S
C1102 C1103 1.391 . S
C1103 H1091 0.950 . S
C1103 C1099 1.393 . S
C1103 C1102 1.391 . S
H1104 C1112 0.950 . S
H1105 C1117 0.950 . S
H1106 C1114 0.950 . S
H1107 C1116 0.950 . S
H1108 C1118 0.950 . S
H1109 C1120 0.950 1_556 S
H1110 C1122 0.950 1_556 S
H1111 C1123 0.950 . S
C1112 H1104 0.950 . S
C1112 C1113 1.386 . S
C1112 C1114 1.391 . S
C1113 C1112 1.386 . S
C1113 C1117 1.393 . S
C1114 H1106 0.950 . S
C1114 C1112 1.391 . S
C1114 C1115 1.400 . S
C1115 C1114 1.400 . S
C1115 C1116 1.398 . S
C1115 C1121 1.491 . S
C1116 H1107 0.950 . S
C1116 C1115 1.398 . S
C1116 C1117 1.391 . S
C1117 H1105 0.950 . S
C1117 C1113 1.393 . S
C1117 C1116 1.391 . S
C1118 H1108 0.950 . S
C1118 C1119 1.386 . S
C1118 C1120 1.391 . S
C1119 C1118 1.386 . S
C1119 C1123 1.393 . S
C1120 H1109 0.950 1_554 S
C1120 C1118 1.391 . S
C1120 C1121 1.400 1_554 S
C1121 C1115 1.491 . S
C1121 C1120 1.400 1_556 S
C1121 C1122 1.398 1_556 S
C1122 H1110 0.950 1_554 S
C1122 C1121 1.398 1_554 S
C1122 C1123 1.391 . S
C1123 H1111 0.950 . S
C1123 C1119 1.393 . S
C1123 C1122 1.391 . S
H1124 C1132 0.950 . S
H1125 C1137 0.950 . S
H1126 C1134 0.950 . S
H1127 C1136 0.950 1_554 S
H1128 C1138 0.950 . S
H1129 C1140 0.950 . S
H1130 C1142 0.950 . S
H1131 C1143 0.950 . S
C1132 H1124 0.950 . S
C1132 C1133 1.386 . S
C1132 C1134 1.391 . S
C1133 C1132 1.386 . S
C1133 C1137 1.393 . S
C1134 H1126 0.950 . S
C1134 C1132 1.391 . S
C1134 C1135 1.400 1_556 S
C1135 C1134 1.400 1_554 S
C1135 C1136 1.398 1_554 S
C1135 C1141 1.491 . S
C1136 H1127 0.950 1_556 S
C1136 C1135 1.398 1_556 S
C1136 C1137 1.391 . S
C1137 H1125 0.950 . S
C1137 C1133 1.393 . S
C1137 C1136 1.391 . S
C1138 H1128 0.950 . S
C1138 C1139 1.386 . S
C1138 C1140 1.391 . S
C1139 C1138 1.386 . S
C1139 C1143 1.393 . S
C1140 H1129 0.950 . S
C1140 C1138 1.391 . S
C1140 C1141 1.400 . S
C1141 C1135 1.491 . S
C1141 C1140 1.400 . S
C1141 C1142 1.398 . S
C1142 H1130 0.950 . S
C1142 C1141 1.398 . S
C1142 C1143 1.391 . S
C1143 H1131 0.950 . S
C1143 C1139 1.393 . S
C1143 C1142 1.391 . S
H1144 C1152 0.950 . S
H1145 C1157 0.950 . S
H1146 C1154 0.950 . S
H1147 C1156 0.950 1_554 S
H1148 C1158 0.950 . S
H1149 C1160 0.950 . S
H1150 C1162 0.950 . S
H1151 C1163 0.950 . S
C1152 H1144 0.950 . S
C1152 C1153 1.386 . S
C1152 C1154 1.391 . S
C1153 C1152 1.386 . S
C1153 C1157 1.393 . S
C1154 H1146 0.950 . S
C1154 C1152 1.391 . S
C1154 C1155 1.400 1_556 S
C1155 C1154 1.400 1_554 S
C1155 C1156 1.398 1_554 S
C1155 C1161 1.491 . S
C1156 H1147 0.950 1_556 S
C1156 C1155 1.398 1_556 S
C1156 C1157 1.391 . S
C1157 H1145 0.950 . S
C1157 C1153 1.393 . S
C1157 C1156 1.391 . S
C1158 H1148 0.950 . S
C1158 C1159 1.386 . S
C1158 C1160 1.391 . S
C1159 C1158 1.386 . S
C1159 C1163 1.393 . S
C1160 H1149 0.950 . S
C1160 C1158 1.391 . S
C1160 C1161 1.400 . S
C1161 C1155 1.491 . S
C1161 C1160 1.400 . S
C1161 C1162 1.398 . S
C1162 H1150 0.950 . S
C1162 C1161 1.398 . S
C1162 C1163 1.391 . S
C1163 H1151 0.950 . S
C1163 C1159 1.393 . S
C1163 C1162 1.391 . S
H1164 C1172 0.950 . S
H1165 C1177 0.950 . S
H1166 C1174 0.950 . S
H1167 C1176 0.950 . S
H1168 C1178 0.950 . S
H1169 C1180 0.950 . S
H1170 C1182 0.950 . S
H1171 C1183 0.950 . S
C1172 H1164 0.950 . S
C1172 C1173 1.386 . S
C1172 C1174 1.391 . S
C1173 C1172 1.386 . S
C1173 C1177 1.393 . S
C1174 H1166 0.950 . S
C1174 C1172 1.391 . S
C1174 C1175 1.400 . S
C1175 C1174 1.400 . S
C1175 C1176 1.398 . S
C1175 C1181 1.491 1_554 S
C1176 H1167 0.950 . S
C1176 C1175 1.398 . S
C1176 C1177 1.391 . S
C1177 H1165 0.950 . S
C1177 C1173 1.393 . S
C1177 C1176 1.391 . S
C1178 H1168 0.950 . S
C1178 C1179 1.386 . S
C1178 C1180 1.391 . S
C1179 C1178 1.386 . S
C1179 C1183 1.393 . S
C1180 H1169 0.950 . S
C1180 C1178 1.391 . S
C1180 C1181 1.400 . S
C1181 C1175 1.491 1_556 S
C1181 C1180 1.400 . S
C1181 C1182 1.398 . S
C1182 H1170 0.950 . S
C1182 C1181 1.398 . S
C1182 C1183 1.391 . S
C1183 H1171 0.950 . S
C1183 C1179 1.393 . S
C1183 C1182 1.391 . S
H1184 C1192 0.950 . S
H1185 C1197 0.950 . S
H1186 C1194 0.950 . S
H1187 C1196 0.950 . S
H1188 C1198 0.950 . S
H1189 C1200 0.950 . S
H1190 C1202 0.950 . S
H1191 C1203 0.950 . S
C1192 H1184 0.950 . S
C1192 C1193 1.386 . S
C1192 C1194 1.391 . S
C1193 C1192 1.386 . S
C1193 C1197 1.393 . S
C1194 H1186 0.950 . S
C1194 C1192 1.391 . S
C1194 C1195 1.400 . S
C1195 C1194 1.400 . S
C1195 C1196 1.398 . S
C1195 C1201 1.491 1_455 S
C1196 H1187 0.950 . S
C1196 C1195 1.398 . S
C1196 C1197 1.391 . S
C1197 H1185 0.950 . S
C1197 C1193 1.393 . S
C1197 C1196 1.391 . S
C1198 H1188 0.950 . S
C1198 C1199 1.386 . S
C1198 C1200 1.391 . S
C1199 C1198 1.386 . S
C1199 C1203 1.393 . S
C1200 H1189 0.950 . S
C1200 C1198 1.391 . S
C1200 C1201 1.400 . S
C1201 C1195 1.491 1_655 S
C1201 C1200 1.400 . S
C1201 C1202 1.398 . S
C1202 H1190 0.950 . S
C1202 C1201 1.398 . S
C1202 C1203 1.391 . S
C1203 H1191 0.950 . S
C1203 C1199 1.393 . S
C1203 C1202 1.391 . S
H1204 C1212 0.950 . S
H1205 C1217 0.950 . S
H1206 C1214 0.959 . S
H1207 C1216 0.950 . S
H1208 C1218 0.950 . S
H1209 C1220 0.950 . S
H1210 C1222 0.950 . S
H1211 C1223 0.950 . S
C1212 H1204 0.950 . S
C1212 C1213 1.386 . S
C1212 C1214 1.374 1_565 S
C1213 C1212 1.386 . S
C1213 C1217 1.393 . S
C1214 H1206 0.959 . S
C1214 C1212 1.374 1_545 S
C1214 C1215 1.409 . S
C1215 C1214 1.409 . S
C1215 C1216 1.398 . S
C1215 C1221 1.491 . S
C1216 H1207 0.950 . S
C1216 C1215 1.398 . S
C1216 C1217 1.391 1_545 S
C1217 H1205 0.950 . S
C1217 C1213 1.393 . S
C1217 C1216 1.391 1_565 S
C1218 H1208 0.950 . S
C1218 C1219 1.386 . S
C1218 C1220 1.391 . S
C1219 C1218 1.386 . S
C1219 C1223 1.393 . S
C1220 H1209 0.950 . S
C1220 C1218 1.391 . S
C1220 C1221 1.400 . S
C1221 C1215 1.491 . S
C1221 C1220 1.400 . S
C1221 C1222 1.398 . S
C1222 H1210 0.950 . S
C1222 C1221 1.398 . S
C1222 C1223 1.391 . S
C1223 H1211 0.950 . S
C1223 C1219 1.393 . S
C1223 C1222 1.391 . S
H1224 C1232 0.950 . S
H1225 C1237 0.950 . S
H1226 C1234 0.950 . S
H1227 C1236 0.950 . S
H1228 C1238 0.950 . S
H1229 C1240 0.950 . S
H1230 C1242 0.950 . S
H1231 C1243 0.950 . S
C1232 H1224 0.950 . S
C1232 C1233 1.386 . S
C1232 C1234 1.391 . S
C1233 C1232 1.386 . S
C1233 C1237 1.393 . S
C1234 H1226 0.950 . S
C1234 C1232 1.391 . S
C1234 C1235 1.400 . S
C1235 C1234 1.400 . S
C1235 C1236 1.398 . S
C1235 C1241 1.491 1_655 S
C1236 H1227 0.950 . S
C1236 C1235 1.398 . S
C1236 C1237 1.391 . S
C1237 H1225 0.950 . S
C1237 C1233 1.393 . S
C1237 C1236 1.391 . S
C1238 H1228 0.950 . S
C1238 C1239 1.386 . S
C1238 C1240 1.391 . S
C1239 C1238 1.386 . S
C1239 C1243 1.393 . S
C1240 H1229 0.950 . S
C1240 C1238 1.391 . S
C1240 C1241 1.400 . S
C1241 C1235 1.491 1_455 S
C1241 C1240 1.400 . S
C1241 C1242 1.398 . S
C1242 H1230 0.950 . S
C1242 C1241 1.398 . S
C1242 C1243 1.391 . S
C1243 H1231 0.950 . S
C1243 C1239 1.393 . S
C1243 C1242 1.391 . S
H1244 C1252 0.950 . S
H1245 C1257 0.950 . S
H1246 C1254 0.950 . S
H1247 C1256 0.950 1_565 S
H1248 C1258 0.950 . S
H1249 C1260 0.950 . S
H1250 C1262 0.950 . S
H1251 C1263 0.950 . S
C1252 H1244 0.950 . S
C1252 C1253 1.386 . S
C1252 C1254 1.391 . S
C1253 C1252 1.386 . S
C1253 C1257 1.393 . S
C1254 H1246 0.950 . S
C1254 C1252 1.391 . S
C1254 C1255 1.400 1_545 S
C1255 C1254 1.400 1_565 S
C1255 C1256 1.398 1_565 S
C1255 C1261 1.491 . S
C1256 H1247 0.950 1_545 S
C1256 C1255 1.398 1_545 S
C1256 C1257 1.391 . S
C1257 H1245 0.950 . S
C1257 C1253 1.393 . S
C1257 C1256 1.391 . S
C1258 H1248 0.950 . S
C1258 C1259 1.386 . S
C1258 C1260 1.391 . S
C1259 C1258 1.386 . S
C1259 C1263 1.393 . S
C1260 H1249 0.950 . S
C1260 C1258 1.391 . S
C1260 C1261 1.400 . S
C1261 C1255 1.491 . S
C1261 C1260 1.400 . S
C1261 C1262 1.398 . S
C1262 H1250 0.950 . S
C1262 C1261 1.398 . S
C1262 C1263 1.391 . S
C1263 H1251 0.950 . S
C1263 C1259 1.393 . S
C1263 C1262 1.391 . S
H1264 C1272 0.950 . S
H1265 C1277 0.950 . S
H1266 C1274 0.950 . S
H1267 C1276 0.950 . S
H1268 C1278 0.950 . S
H1269 C1280 0.950 1_655 S
H1270 C1282 0.950 . S
H1271 C1283 0.950 . S
C1272 H1264 0.950 . S
C1272 C1273 1.386 . S
C1272 C1274 1.391 . S
C1273 C1272 1.386 . S
C1273 C1277 1.393 . S
C1274 H1266 0.950 . S
C1274 C1272 1.391 . S
C1274 C1275 1.400 . S
C1275 C1274 1.400 . S
C1275 C1276 1.398 . S
C1275 C1281 1.491 1_655 S
C1276 H1267 0.950 . S
C1276 C1275 1.398 . S
C1276 C1277 1.391 . S
C1277 H1265 0.950 . S
C1277 C1273 1.393 . S
C1277 C1276 1.391 . S
C1278 H1268 0.950 . S
C1278 C1279 1.386 . S
C1278 C1280 1.391 . S
C1279 C1278 1.386 . S
C1279 C1283 1.393 . S
C1280 H1269 0.950 1_455 S
C1280 C1278 1.391 . S
C1280 C1281 1.400 . S
C1281 C1275 1.491 1_455 S
C1281 C1280 1.400 . S
C1281 C1282 1.398 . S
C1282 H1270 0.950 . S
C1282 C1281 1.398 . S
C1282 C1283 1.391 . S
C1283 H1271 0.950 . S
C1283 C1279 1.393 . S
C1283 C1282 1.391 . S
H1284 C1292 0.950 . S
H1285 C1297 0.950 . S
H1286 C1294 0.950 . S
H1287 C1296 0.950 . S
H1288 C1298 0.950 . S
H1289 C1300 0.950 . S
H1290 C1302 0.950 . S
H1291 C1303 0.950 . S
C1292 H1284 0.950 . S
C1292 C1293 1.386 . S
C1292 C1294 1.391 . S
C1293 C1292 1.386 . S
C1293 C1297 1.393 . S
C1294 H1286 0.950 . S
C1294 C1292 1.391 . S
C1294 C1295 1.400 . S
C1295 C1294 1.400 . S
C1295 C1296 1.398 . S
C1295 C1301 1.491 . S
C1296 H1287 0.950 . S
C1296 C1295 1.398 . S
C1296 C1297 1.391 . S
C1297 H1285 0.950 . S
C1297 C1293 1.393 . S
C1297 C1296 1.391 . S
C1298 H1288 0.950 . S
C1298 C1299 1.386 . S
C1298 C1300 1.391 1_545 S
C1299 C1298 1.386 . S
C1299 C1303 1.393 . S
C1300 H1289 0.950 . S
C1300 C1298 1.391 1_565 S
C1300 C1301 1.400 . S
C1301 C1295 1.491 . S
C1301 C1300 1.400 . S
C1301 C1302 1.398 . S
C1302 H1290 0.950 . S
C1302 C1301 1.398 . S
C1302 C1303 1.391 1_565 S
C1303 H1291 0.950 . S
C1303 C1299 1.393 . S
C1303 C1302 1.391 1_545 S
H1304 C1312 0.950 . S
H1305 C1317 0.950 . S
H1306 C1314 0.950 . S
H1307 C1316 0.950 . S
H1308 C1318 0.950 . S
H1309 C1320 0.950 . S
H1310 C1322 0.950 . S
H1311 C1323 0.950 . S
C1312 H1304 0.950 . S
C1312 C1313 1.386 . S
C1312 C1314 1.391 . S
C1313 C1312 1.386 . S
C1313 C1317 1.393 . S
C1314 H1306 0.950 . S
C1314 C1312 1.391 . S
C1314 C1315 1.400 . S
C1315 C1314 1.400 . S
C1315 C1316 1.398 . S
C1315 C1321 1.491 1_455 S
C1316 H1307 0.950 . S
C1316 C1315 1.398 . S
C1316 C1317 1.391 . S
C1317 H1305 0.950 . S
C1317 C1313 1.393 . S
C1317 C1316 1.391 . S
C1318 H1308 0.950 . S
C1318 C1319 1.386 . S
C1318 C1320 1.391 . S
C1319 C1318 1.386 . S
C1319 C1323 1.393 . S
C1320 H1309 0.950 . S
C1320 C1318 1.391 . S
C1320 C1321 1.400 . S
C1321 C1315 1.491 1_655 S
C1321 C1320 1.400 . S
C1321 C1322 1.398 . S
C1322 H1310 0.950 . S
C1322 C1321 1.398 . S
C1322 C1323 1.391 . S
C1323 H1311 0.950 . S
C1323 C1319 1.393 . S
C1323 C1322 1.391 . S
H1324 C1332 0.950 . S
H1325 C1337 0.950 . S
H1326 C1334 0.950 . S
H1327 C1336 0.950 . S
H1328 C1338 0.950 . S
H1329 C1340 0.950 . S
H1330 C1342 0.950 . S
H1331 C1343 0.950 . S
C1332 H1324 0.950 . S
C1332 C1333 1.386 . S
C1332 C1334 1.391 1_565 S
C1333 C1332 1.386 . S
C1333 C1337 1.393 . S
C1334 H1326 0.950 . S
C1334 C1332 1.391 1_545 S
C1334 C1335 1.400 . S
C1335 C1334 1.400 . S
C1335 C1336 1.398 . S
C1335 C1341 1.491 . S
C1336 H1327 0.950 . S
C1336 C1335 1.398 . S
C1336 C1337 1.391 1_545 S
C1337 H1325 0.950 . S
C1337 C1333 1.393 . S
C1337 C1336 1.391 1_565 S
C1338 H1328 0.950 . S
C1338 C1339 1.386 . S
C1338 C1340 1.391 . S
C1339 C1338 1.386 . S
C1339 C1343 1.393 . S
C1340 H1329 0.950 . S
C1340 C1338 1.391 . S
C1340 C1341 1.400 . S
C1341 C1335 1.491 . S
C1341 C1340 1.400 . S
C1341 C1342 1.398 . S
C1342 H1330 0.950 . S
C1342 C1341 1.398 . S
C1342 C1343 1.391 . S
C1343 H1331 0.950 . S
C1343 C1339 1.393 . S
C1343 C1342 1.391 . S
H1344 C1352 0.950 . S
H1345 C1357 0.950 . S
H1346 C1354 0.950 . S
H1347 C1356 0.950 . S
H1348 C1358 0.950 . S
H1349 C1360 0.950 . S
H1350 C1362 0.950 . S
H1351 C1363 0.950 . S
C1352 H1344 0.950 . S
C1352 C1353 1.386 . S
C1352 C1354 1.391 . S
C1353 C1352 1.386 . S
C1353 C1357 1.393 . S
C1354 H1346 0.950 . S
C1354 C1352 1.391 . S
C1354 C1355 1.400 . S
C1355 C1354 1.400 . S
C1355 C1356 1.398 . S
C1355 C1361 1.491 . S
C1356 H1347 0.950 . S
C1356 C1355 1.398 . S
C1356 C1357 1.391 . S
C1357 H1345 0.950 . S
C1357 C1353 1.393 . S
C1357 C1356 1.391 . S
C1358 H1348 0.950 . S
C1358 C1359 1.386 . S
C1358 C1360 1.391 . S
C1359 C1358 1.386 . S
C1359 C1363 1.393 . S
C1360 H1349 0.950 . S
C1360 C1358 1.391 . S
C1360 C1361 1.400 . S
C1361 C1355 1.491 . S
C1361 C1360 1.400 . S
C1361 C1362 1.398 . S
C1362 H1350 0.950 . S
C1362 C1361 1.398 . S
C1362 C1363 1.391 . S
C1363 H1351 0.950 . S
C1363 C1359 1.393 . S
C1363 C1362 1.391 . S
H1364 C1372 0.950 . S
H1365 C1377 0.950 . S
H1366 C1374 0.950 . S
H1367 C1376 0.950 . S
H1368 C1378 0.950 . S
H1369 C1380 0.950 . S
H1370 C1382 0.950 . S
H1371 C1383 0.950 . S
C1372 H1364 0.950 . S
C1372 C1373 1.386 . S
C1372 C1374 1.391 . S
C1373 C1372 1.386 . S
C1373 C1377 1.393 . S
C1374 H1366 0.950 . S
C1374 C1372 1.391 . S
C1374 C1375 1.400 . S
C1375 C1374 1.400 . S
C1375 C1376 1.398 . S
C1375 C1381 1.491 . S
C1376 H1367 0.950 . S
C1376 C1375 1.398 . S
C1376 C1377 1.391 . S
C1377 H1365 0.950 . S
C1377 C1373 1.393 . S
C1377 C1376 1.391 . S
C1378 H1368 0.950 . S
C1378 C1379 1.386 . S
C1378 C1380 1.391 . S
C1379 C1378 1.386 . S
C1379 C1383 1.393 . S
C1380 H1369 0.950 . S
C1380 C1378 1.391 . S
C1380 C1381 1.400 . S
C1381 C1375 1.491 . S
C1381 C1380 1.400 . S
C1381 C1382 1.398 . S
C1382 H1370 0.950 . S
C1382 C1381 1.398 . S
C1382 C1383 1.391 . S
C1383 H1371 0.950 . S
C1383 C1379 1.393 . S
C1383 C1382 1.391 . S
H1384 C1392 0.950 . S
H1385 C1397 0.950 . S
H1386 C1394 0.950 . S
H1387 C1396 0.950 . S
H1388 C1398 0.950 . S
H1389 C1400 0.950 . S
H1390 C1402 0.950 . S
H1391 C1403 0.950 . S
C1392 H1384 0.950 . S
C1392 C1393 1.386 . S
C1392 C1394 1.391 . S
C1393 C1392 1.386 . S
C1393 C1397 1.393 . S
C1394 H1386 0.950 . S
C1394 C1392 1.391 . S
C1394 C1395 1.400 . S
C1395 C1394 1.400 . S
C1395 C1396 1.398 . S
C1395 C1401 1.491 . S
C1396 H1387 0.950 . S
C1396 C1395 1.398 . S
C1396 C1397 1.391 . S
C1397 H1385 0.950 . S
C1397 C1393 1.393 . S
C1397 C1396 1.391 . S
C1398 H1388 0.950 . S
C1398 C1399 1.386 . S
C1398 C1400 1.391 . S
C1399 C1398 1.386 . S
C1399 C1403 1.393 . S
C1400 H1389 0.950 . S
C1400 C1398 1.391 . S
C1400 C1401 1.400 . S
C1401 C1395 1.491 . S
C1401 C1400 1.400 . S
C1401 C1402 1.398 . S
C1402 H1390 0.950 . S
C1402 C1401 1.398 . S
C1402 C1403 1.391 . S
C1403 H1391 0.950 . S
C1403 C1399 1.393 . S
C1403 C1402 1.391 . S
H1404 C1412 0.950 . S
H1405 C1417 0.950 . S
H1406 C1414 0.950 . S
H1407 C1416 0.950 . S
H1408 C1418 0.950 . S
H1409 C1420 0.950 . S
H1410 C1422 0.950 . S
H1411 C1423 0.950 . S
C1412 H1404 0.950 . S
C1412 C1413 1.386 . S
C1412 C1414 1.391 . S
C1413 C1412 1.386 . S
C1413 C1417 1.393 . S
C1414 H1406 0.950 . S
C1414 C1412 1.391 . S
C1414 C1415 1.400 . S
C1415 C1414 1.400 . S
C1415 C1416 1.398 . S
C1415 C1421 1.491 . S
C1416 H1407 0.950 . S
C1416 C1415 1.398 . S
C1416 C1417 1.391 . S
C1417 H1405 0.950 . S
C1417 C1413 1.393 . S
C1417 C1416 1.391 . S
C1418 H1408 0.950 . S
C1418 C1419 1.386 . S
C1418 C1420 1.391 . S
C1419 C1418 1.386 . S
C1419 C1423 1.393 . S
C1420 H1409 0.950 . S
C1420 C1418 1.391 . S
C1420 C1421 1.400 . S
C1421 C1415 1.491 . S
C1421 C1420 1.400 . S
C1421 C1422 1.398 . S
C1422 H1410 0.950 . S
C1422 C1421 1.398 . S
C1422 C1423 1.391 . S
C1423 H1411 0.950 . S
C1423 C1419 1.393 . S
C1423 C1422 1.391 . S
H1424 C1432 0.950 . S
H1425 C1437 0.950 . S
H1426 C1434 0.950 . S
H1427 C1436 0.950 . S
H1428 C1438 0.950 . S
H1429 C1440 0.950 . S
H1430 C1442 0.950 . S
H1431 C1443 0.950 . S
C1432 H1424 0.950 . S
C1432 C1433 1.386 . S
C1432 C1434 1.391 . S
C1433 C1432 1.386 . S
C1433 C1437 1.393 . S
C1434 H1426 0.950 . S
C1434 C1432 1.391 . S
C1434 C1435 1.400 . S
C1435 C1434 1.400 . S
C1435 C1436 1.398 . S
C1435 C1441 1.491 . S
C1436 H1427 0.950 . S
C1436 C1435 1.398 . S
C1436 C1437 1.391 . S
C1437 H1425 0.950 . S
C1437 C1433 1.393 . S
C1437 C1436 1.391 . S
C1438 H1428 0.950 . S
C1438 C1439 1.386 . S
C1438 C1440 1.391 . S
C1439 C1438 1.386 . S
C1439 C1443 1.393 . S
C1440 H1429 0.950 . S
C1440 C1438 1.391 . S
C1440 C1441 1.400 . S
C1441 C1435 1.491 . S
C1441 C1440 1.400 . S
C1441 C1442 1.398 . S
C1442 H1430 0.950 . S
C1442 C1441 1.398 . S
C1442 C1443 1.391 . S
C1443 H1431 0.950 . S
C1443 C1439 1.393 . S
C1443 C1442 1.391 . S
H1444 C1452 0.950 . S
H1445 C1457 0.950 . S
H1446 C1454 0.950 . S
H1447 C1456 0.950 . S
H1448 C1458 0.950 . S
H1449 C1460 0.950 . S
H1450 C1462 0.950 . S
H1451 C1463 0.950 . S
C1452 H1444 0.950 . S
C1452 C1453 1.386 . S
C1452 C1454 1.391 . S
C1453 C1452 1.386 . S
C1453 C1457 1.393 . S
C1454 H1446 0.950 . S
C1454 C1452 1.391 . S
C1454 C1455 1.400 . S
C1455 C1454 1.400 . S
C1455 C1456 1.398 . S
C1455 C1461 1.491 . S
C1456 H1447 0.950 . S
C1456 C1455 1.398 . S
C1456 C1457 1.391 . S
C1457 H1445 0.950 . S
C1457 C1453 1.393 . S
C1457 C1456 1.391 . S
C1458 H1448 0.950 . S
C1458 C1459 1.386 . S
C1458 C1460 1.391 . S
C1459 C1458 1.386 . S
C1459 C1463 1.393 . S
C1460 H1449 0.950 . S
C1460 C1458 1.391 . S
C1460 C1461 1.400 . S
C1461 C1455 1.491 . S
C1461 C1460 1.400 . S
C1461 C1462 1.398 . S
C1462 H1450 0.950 . S
C1462 C1461 1.398 . S
C1462 C1463 1.391 . S
C1463 H1451 0.950 . S
C1463 C1459 1.393 . S
C1463 C1462 1.391 . S
H1464 C1472 0.950 . S
H1465 C1477 0.950 . S
H1466 C1474 0.950 . S
H1467 C1476 0.950 . S
H1468 C1478 0.950 . S
H1469 C1480 0.950 . S
H1470 C1482 0.950 . S
H1471 C1483 0.950 . S
C1472 H1464 0.950 . S
C1472 C1473 1.386 . S
C1472 C1474 1.391 . S
C1473 C1472 1.386 . S
C1473 C1477 1.393 . S
C1474 H1466 0.950 . S
C1474 C1472 1.391 . S
C1474 C1475 1.400 . S
C1475 C1474 1.400 . S
C1475 C1476 1.398 . S
C1475 C1481 1.491 . S
C1476 H1467 0.950 . S
C1476 C1475 1.398 . S
C1476 C1477 1.391 . S
C1477 H1465 0.950 . S
C1477 C1473 1.393 . S
C1477 C1476 1.391 . S
C1478 H1468 0.950 . S
C1478 C1479 1.386 . S
C1478 C1480 1.391 . S
C1479 C1478 1.386 . S
C1479 C1483 1.393 . S
C1480 H1469 0.950 . S
C1480 C1478 1.391 . S
C1480 C1481 1.400 . S
C1481 C1475 1.491 . S
C1481 C1480 1.400 . S
C1481 C1482 1.398 . S
C1482 H1470 0.950 . S
C1482 C1481 1.398 . S
C1482 C1483 1.391 . S
C1483 H1471 0.950 . S
C1483 C1479 1.393 . S
C1483 C1482 1.391 . S
H1484 C1492 0.950 . S
H1485 C1497 0.950 . S
H1486 C1494 0.950 . S
H1487 C1496 0.950 . S
H1488 C1498 0.950 . S
H1489 C1500 0.950 . S
H1490 C1502 0.950 . S
H1491 C1503 0.950 . S
C1492 H1484 0.950 . S
C1492 C1493 1.386 . S
C1492 C1494 1.391 . S
C1493 C1492 1.386 . S
C1493 C1497 1.393 . S
C1494 H1486 0.950 . S
C1494 C1492 1.391 . S
C1494 C1495 1.400 . S
C1495 C1494 1.400 . S
C1495 C1496 1.398 . S
C1495 C1501 1.491 . S
C1496 H1487 0.950 . S
C1496 C1495 1.398 . S
C1496 C1497 1.391 . S
C1497 H1485 0.950 . S
C1497 C1493 1.393 . S
C1497 C1496 1.391 . S
C1498 H1488 0.950 . S
C1498 C1499 1.386 . S
C1498 C1500 1.391 . S
C1499 C1498 1.386 . S
C1499 C1503 1.393 . S
C1500 H1489 0.950 . S
C1500 C1498 1.391 . S
C1500 C1501 1.400 . S
C1501 C1495 1.491 . S
C1501 C1500 1.400 . S
C1501 C1502 1.398 . S
C1502 H1490 0.950 . S
C1502 C1501 1.398 . S
C1502 C1503 1.391 . S
C1503 H1491 0.950 . S
C1503 C1499 1.393 . S
C1503 C1502 1.391 . S
H1504 C1512 0.950 . S
H1505 C1517 0.950 . S
H1506 C1514 0.950 . S
H1507 C1516 0.950 . S
H1508 C1518 0.950 . S
H1509 C1520 0.950 . S
H1510 C1522 0.950 . S
H1511 C1523 0.950 . S
C1512 H1504 0.950 . S
C1512 C1513 1.386 . S
C1512 C1514 1.391 . S
C1513 C1512 1.386 . S
C1513 C1517 1.393 . S
C1514 H1506 0.950 . S
C1514 C1512 1.391 . S
C1514 C1515 1.400 . S
C1515 C1514 1.400 . S
C1515 C1516 1.398 . S
C1515 C1521 1.491 . S
C1516 H1507 0.950 . S
C1516 C1515 1.398 . S
C1516 C1517 1.391 . S
C1517 H1505 0.950 . S
C1517 C1513 1.393 . S
C1517 C1516 1.391 . S
C1518 H1508 0.950 . S
C1518 C1519 1.386 . S
C1518 C1520 1.391 . S
C1519 C1518 1.386 . S
C1519 C1523 1.393 . S
C1520 H1509 0.950 . S
C1520 C1518 1.391 . S
C1520 C1521 1.400 . S
C1521 C1515 1.491 . S
C1521 C1520 1.400 . S
C1521 C1522 1.398 . S
C1522 H1510 0.950 . S
C1522 C1521 1.398 . S
C1522 C1523 1.391 . S
C1523 H1511 0.950 . S
C1523 C1519 1.393 . S
C1523 C1522 1.391 . S
H1524 C1532 0.950 . S
H1525 C1537 0.950 . S
H1526 C1534 0.950 . S
H1527 C1536 0.950 . S
H1528 C1538 0.950 . S
H1529 C1540 0.950 . S
H1530 C1542 0.950 . S
H1531 C1543 0.950 . S
C1532 H1524 0.950 . S
C1532 C1533 1.386 . S
C1532 C1534 1.391 . S
C1533 C1532 1.386 . S
C1533 C1537 1.393 . S
C1534 H1526 0.950 . S
C1534 C1532 1.391 . S
C1534 C1535 1.400 . S
C1535 C1534 1.400 . S
C1535 C1536 1.398 . S
C1535 C1541 1.491 . S
C1536 H1527 0.950 . S
C1536 C1535 1.398 . S
C1536 C1537 1.391 . S
C1537 H1525 0.950 . S
C1537 C1533 1.393 . S
C1537 C1536 1.391 . S
C1538 H1528 0.950 . S
C1538 C1539 1.386 . S
C1538 C1540 1.391 . S
C1539 C1538 1.386 . S
C1539 C1543 1.393 . S
C1540 H1529 0.950 . S
C1540 C1538 1.391 . S
C1540 C1541 1.400 . S
C1541 C1535 1.491 . S
C1541 C1540 1.400 . S
C1541 C1542 1.398 . S
C1542 H1530 0.950 . S
C1542 C1541 1.398 . S
C1542 C1543 1.391 . S
C1543 H1531 0.950 . S
C1543 C1539 1.393 . S
C1543 C1542 1.391 . S
H1544 C1552 0.950 . S
H1545 C1557 0.950 . S
H1546 C1554 0.950 . S
H1547 C1556 0.950 . S
H1548 C1558 0.950 . S
H1549 C1560 0.950 . S
H1550 C1562 0.950 . S
H1551 C1563 0.950 . S
C1552 H1544 0.950 . S
C1552 C1553 1.386 . S
C1552 C1554 1.391 . S
C1553 C1552 1.386 . S
C1553 C1557 1.393 . S
C1554 H1546 0.950 . S
C1554 C1552 1.391 . S
C1554 C1555 1.400 . S
C1555 C1554 1.400 . S
C1555 C1556 1.398 . S
C1555 C1561 1.491 . S
C1556 H1547 0.950 . S
C1556 C1555 1.398 . S
C1556 C1557 1.391 . S
C1557 H1545 0.950 . S
C1557 C1553 1.393 . S
C1557 C1556 1.391 . S
C1558 H1548 0.950 . S
C1558 C1559 1.386 . S
C1558 C1560 1.391 . S
C1559 C1558 1.386 . S
C1559 C1563 1.393 . S
C1560 H1549 0.950 . S
C1560 C1558 1.391 . S
C1560 C1561 1.400 . S
C1561 C1555 1.491 . S
C1561 C1560 1.400 . S
C1561 C1562 1.398 . S
C1562 H1550 0.950 . S
C1562 C1561 1.398 . S
C1562 C1563 1.391 . S
C1563 H1551 0.950 . S
C1563 C1559 1.393 . S
C1563 C1562 1.391 . S
H1564 C1572 0.950 . S
H1565 C1577 0.950 . S
H1566 C1574 0.950 . S
H1567 C1576 0.950 . S
H1568 C1578 0.950 . S
H1569 C1580 0.950 . S
H1570 C1582 0.950 . S
H1571 C1583 0.950 . S
C1572 H1564 0.950 . S
C1572 C1573 1.386 . S
C1572 C1574 1.391 . S
C1573 C1572 1.386 . S
C1573 C1577 1.393 . S
C1574 H1566 0.950 . S
C1574 C1572 1.391 . S
C1574 C1575 1.400 . S
C1575 C1574 1.400 . S
C1575 C1576 1.398 . S
C1575 C1581 1.491 . S
C1576 H1567 0.950 . S
C1576 C1575 1.398 . S
C1576 C1577 1.391 . S
C1577 H1565 0.950 . S
C1577 C1573 1.393 . S
C1577 C1576 1.391 . S
C1578 H1568 0.950 . S
C1578 C1579 1.386 . S
C1578 C1580 1.391 . S
C1579 C1578 1.386 . S
C1579 C1583 1.393 . S
C1580 H1569 0.950 . S
C1580 C1578 1.391 . S
C1580 C1581 1.400 . S
C1581 C1575 1.491 . S
C1581 C1580 1.400 . S
C1581 C1582 1.398 . S
C1582 H1570 0.950 . S
C1582 C1581 1.398 . S
C1582 C1583 1.391 . S
C1583 H1571 0.950 . S
C1583 C1579 1.393 . S
C1583 C1582 1.391 . S
C953 C890 1.221 . S
C959 C5 1.229 . S
C973 C713 1.187 . S
C979 C64 1.187 . S
C993 C123 1.558 . S
C999 C772 1.504 . S
C1013 C831 1.433 . S
C1019 C182 1.466 . S
C1033 C536 1.167 . S
C1039 C241 1.166 . S
C1053 C300 1.511 . S
C1059 C595 1.562 . S
C1073 C359 1.433 . S
C1079 C654 1.466 . S
C1093 C418 1.212 . S
C1099 C477 1.230 . S
C1113 C347 2.274 . S
C1119 C33 2.235 . S
C1133 C357 1.193 . S
C1139 C62 1.210 . S
C1153 C465 1.643 . S
C1159 C151 1.601 . S
C1173 C180 1.594 . S
C1179 C269 1.655 . S
C1193 C52 1.486 . S
C1199 C111 1.464 . S
C1213 C121 1.289 . S
C1219 C92 1.328 . S
C1233 C170 1.342 . S
C1239 C229 1.339 . S
C1253 C3 1.287 . S
C1259 C210 1.251 . S
C1273 C446 1.185 . S
C1279 C288 1.162 . S
C1293 C239 1.817 . S
C1299 C298 1.812 . S
C1313 C328 1.362 . S
C1319 C387 1.329 . S
C1333 C416 2.044 . S
C1339 C406 2.069 . S
C1353 C819 2.274 . S
C1359 C505 2.229 . S
C1373 C534 1.214 . S
C1379 C829 1.189 . S
C1393 C937 1.637 . S
C1399 C623 1.598 . S
C1413 C741 1.643 . S
C1419 C652 1.616 . S
C1433 C524 1.482 . S
C1439 C583 1.455 . S
C1453 C564 1.335 . S
C1459 C593 1.269 . S
C1473 C701 1.349 . S
C1479 C642 1.349 . S
C1493 C475 1.277 . S
C1499 C682 1.263 . S
C1513 C918 1.188 . S
C1519 C760 1.157 . S
C1533 C711 1.807 . S
C1539 C770 1.823 . S
C1553 C800 1.368 . S
C1559 C859 1.323 . S
C1573 C888 2.038 . S
C1579 C878 2.065 . S
