# Generated by pormake.
# Topology wjd, (6)-cn, num edge types: 1
# Building blocks:
#     Node 0, Type 0, BuildingBlock: VOLQOD_clean_sbu_1, # of connection points: 6
#     Node 1, Type 0, BuildingBlock: VOLQOD_clean_sbu_1, # of connection points: 6
#     Node 2, Type 0, BuildingBlock: VOLQOD_clean_sbu_1, # of connection points: 6
#     Node 3, Type 0, BuildingBlock: VOLQOD_clean_sbu_1, # of connection points: 6
#     Node 4, Type 0, BuildingBlock: VOLQOD_clean_sbu_1, # of connection points: 6
#     Node 5, Type 0, BuildingBlock: VOLQOD_clean_sbu_1, # of connection points: 6
#     Node 6, Type 0, BuildingBlock: VOLQOD_clean_sbu_1, # of connection points: 6
#     Node 7, Type 0, BuildingBlock: VOLQOD_clean_sbu_1, # of connection points: 6
#     Node 8, Type 0, BuildingBlock: VOLQOD_clean_sbu_1, # of connection points: 6
#     Node 9, Type 0, BuildingBlock: VOLQOD_clean_sbu_1, # of connection points: 6
#     Node 10, Type 0, BuildingBlock: VOLQOD_clean_sbu_1, # of connection points: 6
#     Node 11, Type 0, BuildingBlock: VOLQOD_clean_sbu_1, # of connection points: 6
#     Edge 12, Type (0, 0), BuildingBlock: FUNLAD_clean_linker_1, # of connection points: 2
#     Edge 13, Type (0, 0), BuildingBlock: FUNLAD_clean_linker_1, # of connection points: 2
#     Edge 14, Type (0, 0), BuildingBlock: FUNLAD_clean_linker_1, # of connection points: 2
#     Edge 15, Type (0, 0), BuildingBlock: FUNLAD_clean_linker_1, # of connection points: 2
#     Edge 16, Type (0, 0), BuildingBlock: FUNLAD_clean_linker_1, # of connection points: 2
#     Edge 17, Type (0, 0), BuildingBlock: FUNLAD_clean_linker_1, # of connection points: 2
#     Edge 18, Type (0, 0), BuildingBlock: FUNLAD_clean_linker_1, # of connection points: 2
#     Edge 19, Type (0, 0), BuildingBlock: FUNLAD_clean_linker_1, # of connection points: 2
#     Edge 20, Type (0, 0), BuildingBlock: FUNLAD_clean_linker_1, # of connection points: 2
#     Edge 21, Type (0, 0), BuildingBlock: FUNLAD_clean_linker_1, # of connection points: 2
#     Edge 22, Type (0, 0), BuildingBlock: FUNLAD_clean_linker_1, # of connection points: 2
#     Edge 23, Type (0, 0), BuildingBlock: FUNLAD_clean_linker_1, # of connection points: 2
#     Edge 24, Type (0, 0), BuildingBlock: FUNLAD_clean_linker_1, # of connection points: 2
#     Edge 25, Type (0, 0), BuildingBlock: FUNLAD_clean_linker_1, # of connection points: 2
#     Edge 26, Type (0, 0), BuildingBlock: FUNLAD_clean_linker_1, # of connection points: 2
#     Edge 27, Type (0, 0), BuildingBlock: FUNLAD_clean_linker_1, # of connection points: 2
#     Edge 28, Type (0, 0), BuildingBlock: FUNLAD_clean_linker_1, # of connection points: 2
#     Edge 29, Type (0, 0), BuildingBlock: FUNLAD_clean_linker_1, # of connection points: 2
#     Edge 30, Type (0, 0), BuildingBlock: FUNLAD_clean_linker_1, # of connection points: 2
#     Edge 31, Type (0, 0), BuildingBlock: FUNLAD_clean_linker_1, # of connection points: 2
#     Edge 32, Type (0, 0), BuildingBlock: FUNLAD_clean_linker_1, # of connection points: 2
#     Edge 33, Type (0, 0), BuildingBlock: FUNLAD_clean_linker_1, # of connection points: 2
#     Edge 34, Type (0, 0), BuildingBlock: FUNLAD_clean_linker_1, # of connection points: 2
#     Edge 35, Type (0, 0), BuildingBlock: FUNLAD_clean_linker_1, # of connection points: 2
#     Edge 36, Type (0, 0), BuildingBlock: FUNLAD_clean_linker_1, # of connection points: 2
#     Edge 37, Type (0, 0), BuildingBlock: FUNLAD_clean_linker_1, # of connection points: 2
#     Edge 38, Type (0, 0), BuildingBlock: FUNLAD_clean_linker_1, # of connection points: 2
#     Edge 39, Type (0, 0), BuildingBlock: FUNLAD_clean_linker_1, # of connection points: 2
#     Edge 40, Type (0, 0), BuildingBlock: FUNLAD_clean_linker_1, # of connection points: 2
#     Edge 41, Type (0, 0), BuildingBlock: FUNLAD_clean_linker_1, # of connection points: 2
#     Edge 42, Type (0, 0), BuildingBlock: FUNLAD_clean_linker_1, # of connection points: 2
#     Edge 43, Type (0, 0), BuildingBlock: FUNLAD_clean_linker_1, # of connection points: 2
#     Edge 44, Type (0, 0), BuildingBlock: FUNLAD_clean_linker_1, # of connection points: 2
#     Edge 45, Type (0, 0), BuildingBlock: FUNLAD_clean_linker_1, # of connection points: 2
#     Edge 46, Type (0, 0), BuildingBlock: FUNLAD_clean_linker_1, # of connection points: 2
#     Edge 47, Type (0, 0), BuildingBlock: FUNLAD_clean_linker_1, # of connection points: 2
# Relax obj value: 0.308
# Max RMSD: 0.232
# Mean RMSD: 0.231
data_MOF--net-wjd--node1-VOLQOD_clean_sbu_1--edge1-FUNLAD_clean_linker_1
_symmetry_space_group_name_H-M    P1
_symmetry_Int_Tables_number       1
_symmetry_cell_setting            triclinic
loop_
_symmetry_equiv_pos_as_xyz
'x, y, z'
_cell_length_a     32.338004
_cell_length_b     32.240071
_cell_length_c     67.73065
_cell_angle_alpha  90.042689
_cell_angle_beta   90.005767
_cell_angle_gamma 120.01346
loop_
_atom_site_label
_atom_site_type_symbol
_atom_site_fract_x
_atom_site_fract_y
_atom_site_fract_z
_atom_type_partial_charge
O0 O 0.37796 0.22902 0.10377 0.0
Zn1 Zn 0.32476 0.16091 0.10248 0.0
O2 O 0.33883 0.1198 0.11903 0.0
Zn3 Zn 0.33667 0.06816 0.10309 0.0
Zn4 Zn 0.40157 0.15716 0.13063 0.0
Zn5 Zn 0.29277 0.09339 0.14037 0.0
O6 O 0.28283 0.00363 0.11158 0.0
O7 O 0.24834 0.02397 0.13513 0.0
O8 O 0.31266 0.13902 0.07392 0.0
O9 O 0.32198 0.0753 0.07499 0.0
O10 O 0.40041 0.0706 0.10238 0.0
O11 O 0.44607 0.1393 0.11809 0.0
O12 O 0.40152 0.14406 0.15972 0.0
O13 O 0.26915 0.1648 0.11336 0.0
O14 O 0.32433 0.09999 0.16677 0.0
O15 O 0.2532 0.12548 0.14186 0.0
C16 C 0.41459 0.25045 0.1148 0.0
C17 C 0.24916 0.99272 0.12388 0.0
C18 C 0.44121 0.10359 0.10817 0.0
C19 C 0.31313 0.10397 0.06545 0.0
C20 C 0.368 0.12101 0.17202 0.0
C21 C 0.24657 0.15155 0.12965 0.0
O22 O 0.42704 0.22766 0.12644 0.0
O23 O 0.80411 0.57993 0.37536 0.0
Zn24 Zn 0.80732 0.64097 0.3679 0.0
O25 O 0.76914 0.65606 0.38542 0.0
Zn26 Zn 0.71751 0.65535 0.36978 0.0
Zn27 Zn 0.74369 0.60907 0.40652 0.0
Zn28 Zn 0.80932 0.71825 0.39758 0.0
O29 O 0.72043 0.71919 0.37169 0.0
O30 O 0.78639 0.7623 0.3895 0.0
O31 O 0.78804 0.63695 0.33973 0.0
O32 O 0.72398 0.64529 0.34068 0.0
O33 O 0.65328 0.60196 0.3789 0.0
O34 O 0.67269 0.57232 0.40466 0.0
O35 O 0.76126 0.63846 0.43349 0.0
O36 O 0.87592 0.69101 0.36918 0.0
O37 O 0.80632 0.71607 0.42724 0.0
O38 O 0.87801 0.74636 0.38937 0.0
C39 C 0.78914 0.55413 0.39074 0.0
C40 C 0.75105 0.75838 0.37976 0.0
C41 C 0.64159 0.57264 0.39323 0.0
C42 C 0.75432 0.63905 0.33109 0.0
C43 C 0.786 0.6815 0.43936 0.0
C44 C 0.89881 0.73085 0.37812 0.0
O45 O 0.76707 0.56225 0.40438 0.0
O46 O 0.8207 0.23174 0.10588 0.0
Zn47 Zn 0.88667 0.24216 0.10919 0.0
O48 O 0.91818 0.28378 0.1318 0.0
Zn49 Zn 0.97705 0.34033 0.12279 0.0
Zn50 Zn 0.87583 0.30192 0.14448 0.0
Zn51 Zn 0.93196 0.24848 0.15128 0.0
O52 O 0.03512 0.33945 0.13378 0.0
O53 O 0.00133 0.27032 0.15016 0.0
O54 O 0.92274 0.26873 0.08378 0.0
O55 O 0.98424 0.3382 0.09333 0.0
O56 O 0.97518 0.40154 0.12827 0.0
O57 O 0.90308 0.37206 0.14187 0.0
O58 O 0.86826 0.28832 0.17368 0.0
O59 O 0.87646 0.17632 0.11365 0.0
O60 O 0.91619 0.25875 0.17897 0.0
O61 O 0.89523 0.17757 0.14533 0.0
C62 C 0.7952 0.24336 0.1162 0.0
C63 C 0.0382 0.30714 0.14344 0.0
C64 C 0.94192 0.40708 0.13563 0.0
C65 C 0.9608 0.30782 0.0799 0.0
C66 C 0.88871 0.27339 0.18538 0.0
C67 C 0.87771 0.15502 0.12923 0.0
O68 O 0.81135 0.26932 0.13157 0.0
O69 O 0.39529 0.21136 0.37488 0.0
Zn70 Zn 0.34396 0.15435 0.36086 0.0
O71 O 0.32449 0.09604 0.37554 0.0
Zn72 Zn 0.34028 0.05396 0.36048 0.0
Zn73 Zn 0.35731 0.11312 0.40064 0.0
Zn74 Zn 0.25668 0.06424 0.3805 0.0
O75 O 0.28285 0.98745 0.35828 0.0
O76 O 0.22472 0.00272 0.36572 0.0
O77 O 0.36262 0.1493 0.33316 0.0
O78 O 0.35865 0.07842 0.33242 0.0
O79 O 0.39573 0.05174 0.37319 0.0
O80 O 0.4092 0.09715 0.39992 0.0
O81 O 0.31325 0.07744 0.42322 0.0
O82 O 0.29074 0.1683 0.35899 0.0
O83 O 0.24169 0.04601 0.40924 0.0
O84 O 0.22874 0.10525 0.37265 0.0
C85 C 0.40531 0.21844 0.39319 0.0
C86 C 0.23875 0.97473 0.35921 0.0
C87 C 0.41966 0.0721 0.38872 0.0
C88 C 0.36612 0.11685 0.32392 0.0
C89 C 0.26789 0.05281 0.4243 0.0
C90 C 0.24728 0.14602 0.36431 0.0
O91 O 0.3895 0.18407 0.40549 0.0
O92 O 0.80707 0.64943 0.10007 0.0
Zn93 Zn 0.80132 0.70771 0.1052 0.0
O94 O 0.75909 0.698 0.12744 0.0
Zn95 Zn 0.70793 0.70976 0.11945 0.0
Zn96 Zn 0.73291 0.63317 0.13645 0.0
Zn97 Zn 0.79426 0.73894 0.14936 0.0
O98 O 0.7134 0.76799 0.13357 0.0
O99 O 0.77802 0.79052 0.15218 0.0
O100 O 0.77948 0.72555 0.08017 0.0
O101 O 0.71498 0.7268 0.09074 0.0
O102 O 0.64301 0.64885 0.12164 0.0
O103 O 0.66641 0.59537 0.12661 0.0
O104 O 0.7287 0.6285 0.16607 0.0
O105 O 0.86864 0.75706 0.11236 0.0
O106 O 0.77732 0.70372 0.17519 0.0
O107 O 0.8646 0.76989 0.14446 0.0
C108 C 0.7979 0.61399 0.11111 0.0
C109 C 0.745 0.79717 0.1456 0.0
C110 C 0.63398 0.60557 0.12268 0.0
C111 C 0.74394 0.73158 0.07705 0.0
C112 C 0.74942 0.65989 0.17944 0.0
C113 C 0.88858 0.77552 0.1288 0.0
O114 O 0.7723 0.60484 0.12657 0.0
O115 O 0.77582 0.16667 0.3787 0.0
Zn116 Zn 0.83972 0.18294 0.36779 0.0
O117 O 0.88925 0.21043 0.38758 0.0
Zn118 Zn 0.93534 0.2752 0.37945 0.0
Zn119 Zn 0.85846 0.20884 0.41204 0.0
Zn120 Zn 0.91979 0.17287 0.39152 0.0
O121 O 0.00242 0.28577 0.38036 0.0
O122 O 0.98561 0.20975 0.38061 0.0
O123 O 0.8551 0.22307 0.34353 0.0
O124 O 0.92546 0.2861 0.35074 0.0
O125 O 0.92612 0.32174 0.39621 0.0
O126 O 0.86894 0.27399 0.4173 0.0
O127 O 0.88638 0.19253 0.43479 0.0
O128 O 0.83164 0.12052 0.35912 0.0
O129 O 0.92925 0.16436 0.42068 0.0
O130 O 0.88209 0.10906 0.37758 0.0
C131 C 0.76006 0.15352 0.39615 0.0
C132 C 0.0152 0.2544 0.37867 0.0
C133 C 0.89736 0.31529 0.41034 0.0
C134 C 0.8915 0.26253 0.33864 0.0
C135 C 0.91394 0.17525 0.43604 0.0
C136 C 0.84908 0.09482 0.3646 0.0
O137 O 0.78796 0.16212 0.41073 0.0
O138 O 0.21051 0.39851 0.62015 0.0
Zn139 Zn 0.16081 0.34222 0.63499 0.0
O140 O 0.10331 0.30826 0.61924 0.0
Zn141 Zn 0.05056 0.30588 0.63378 0.0
Zn142 Zn 0.11134 0.34116 0.59454 0.0
Zn143 Zn 0.09088 0.2447 0.61343 0.0
O144 O -0.00692 0.23914 0.63286 0.0
O145 O 0.02991 0.19777 0.62632 0.0
O146 O 0.1479 0.359 0.66206 0.0
O147 O 0.06853 0.32025 0.66248 0.0
O148 O 0.0378 0.35785 0.62398 0.0
O149 O 0.08174 0.38246 0.59666 0.0
O150 O 0.08412 0.29523 0.57162 0.0
O151 O 0.19094 0.30173 0.63951 0.0
O152 O 0.08047 0.22992 0.58429 0.0
O153 O 0.14389 0.23471 0.62307 0.0
C154 C 0.2154 0.40755 0.60171 0.0
C155 C -0.00687 0.19965 0.6316 0.0
C156 C 0.0541 0.3858 0.60915 0.0
C157 C 0.1086 0.34375 0.67124 0.0
C158 C 0.07627 0.25253 0.56975 0.0
C159 C 0.18085 0.2604 0.63351 0.0
O160 O 0.1811 0.38557 0.5896 0.0
O161 O 0.17921 0.80634 0.89968 0.0
Zn162 Zn 0.18141 0.86916 0.89752 0.0
O163 O 0.21791 0.90479 0.87447 0.0
Zn164 Zn 0.27091 0.96614 0.88334 0.0
Zn165 Zn 0.24166 0.86838 0.86081 0.0
Zn166 Zn 0.17688 0.91303 0.85604 0.0
O167 O 0.26768 0.02079 0.87034 0.0
O168 O 0.19686 0.9823 0.85525 0.0
O169 O 0.20536 0.9063 0.92283 0.0
O170 O 0.26521 0.97576 0.91241 0.0
O171 O 0.33425 0.96756 0.88042 0.0
O172 O 0.31015 0.89514 0.86788 0.0
O173 O 0.23548 0.86951 0.83104 0.0
O174 O 0.11278 0.85057 0.89453 0.0
O175 O 0.18296 0.89437 0.82834 0.0
O176 O 0.10784 0.87474 0.86434 0.0
C177 C 0.18543 0.78188 0.88653 0.0
C178 C 0.23379 0.02081 0.86068 0.0
C179 C 0.34276 0.93462 0.87504 0.0
C180 C 0.23834 0.94901 0.92617 0.0
C181 C 0.20883 0.87939 0.82055 0.0
C182 C 0.08839 0.85307 0.88036 0.0
O183 O 0.20564 0.80008 0.87011 0.0
O184 O 0.57783 0.77578 0.62663 0.0
Zn185 Zn 0.63008 0.77056 0.6397 0.0
O186 O 0.65288 0.73702 0.6232 0.0
Zn187 Zn 0.64238 0.67906 0.63688 0.0
Zn188 Zn 0.61881 0.72136 0.59834 0.0
Zn189 Zn 0.72011 0.77809 0.6176 0.0
O190 O 0.70344 0.67661 0.63849 0.0
O191 O 0.75691 0.75207 0.63104 0.0
O192 O 0.60901 0.74024 0.66621 0.0
O193 O 0.62189 0.67877 0.66512 0.0
O194 O 0.59044 0.62019 0.62329 0.0
O195 O 0.5769 0.651 0.59634 0.0
O196 O 0.66242 0.74304 0.57518 0.0
O197 O 0.681 0.83831 0.644 0.0
O198 O 0.73488 0.77914 0.58849 0.0
O199 O 0.74281 0.84558 0.62679 0.0
C200 C 0.56256 0.76884 0.60895 0.0
C201 C 0.74647 0.71066 0.63724 0.0
C202 C 0.56859 0.61524 0.60704 0.0
C203 C 0.60895 0.70472 0.6744 0.0
C204 C 0.70752 0.76442 0.5735 0.0
C205 C 0.72321 0.8635 0.63748 0.0
O206 O 0.57657 0.74989 0.59611 0.0
O207 O 0.16639 0.38132 0.8984 0.0
Zn208 Zn 0.09962 0.32531 0.90026 0.0
O209 O 0.06149 0.32171 0.87739 0.0
Zn210 Zn 0.00911 0.33057 0.88604 0.0
Zn211 Zn 0.10246 0.37042 0.8591 0.0
Zn212 Zn 0.03811 0.26176 0.86365 0.0
O213 O 0.94551 0.27405 0.87794 0.0
O214 O 0.96857 0.22221 0.86888 0.0
O215 O 0.06925 0.32701 0.92598 0.0
O216 O 0.00608 0.33101 0.91575 0.0
O217 O 0.01998 0.3949 0.87679 0.0
O218 O 0.08897 0.42407 0.86049 0.0
O219 O 0.09142 0.34818 0.83107 0.0
O220 O 0.10992 0.26911 0.90029 0.0
O221 O 0.04522 0.26962 0.834 0.0
O222 O 0.07339 0.22878 0.87303 0.0
C223 C 0.1906 0.39859 0.88271 0.0
C224 C 0.93591 0.23195 0.87304 0.0
C225 C 0.05474 0.42846 0.86733 0.0
C226 C 0.03173 0.32919 0.92958 0.0
C227 C 0.06764 0.30685 0.82336 0.0
C228 C 0.09969 0.23539 0.88808 0.0
O229 O 0.17087 0.39337 0.86592 0.0
O230 O 0.17877 0.76144 0.62368 0.0
Zn231 Zn 0.18381 0.82288 0.63314 0.0
O232 O 0.22117 0.87536 0.61495 0.0
Zn233 Zn 0.2759 0.92617 0.62922 0.0
Zn234 Zn 0.24225 0.85155 0.59316 0.0
Zn235 Zn 0.18206 0.89966 0.60375 0.0
O236 O 0.27654 0.98903 0.62732 0.0
O237 O 0.20617 0.96638 0.61318 0.0
O238 O 0.20875 0.83798 0.66113 0.0
O239 O 0.27232 0.91065 0.65823 0.0
O240 O 0.33764 0.93263 0.61929 0.0
O241 O 0.31191 0.87771 0.5955 0.0
O242 O 0.23199 0.87332 0.56682 0.0
O243 O 0.11659 0.80897 0.63368 0.0
O244 O 0.18705 0.90532 0.57402 0.0
O245 O 0.11332 0.85868 0.6118 0.0
C246 C 0.18837 0.74915 0.6072 0.0
C247 C 0.24449 -0.00196 0.62133 0.0
C248 C 0.34551 0.90983 0.60585 0.0
C249 C 0.24414 0.87481 0.66872 0.0
C250 C 0.20926 0.89414 0.56154 0.0
C251 C 0.09329 0.82459 0.62419 0.0
O252 O 0.21071 0.77957 0.59364 0.0
O253 O 0.58396 0.79833 0.90309 0.0
Zn254 Zn 0.64195 0.79126 0.89949 0.0
O255 O 0.63313 0.74634 0.87835 0.0
Zn256 Zn 0.64396 0.69546 0.8882 0.0
Zn257 Zn 0.56901 0.71951 0.86821 0.0
Zn258 Zn 0.67673 0.7795 0.85682 0.0
O259 O 0.70385 0.70075 0.87626 0.0
O260 O 0.72832 0.763 0.85601 0.0
O261 O 0.6604 0.77279 0.92521 0.0
O262 O 0.65732 0.70424 0.91732 0.0
O263 O 0.58563 0.62946 0.88403 0.0
O264 O 0.53281 0.65089 0.87501 0.0
O265 O 0.56703 0.7225 0.83855 0.0
O266 O 0.691 0.85755 0.89169 0.0
O267 O 0.64385 0.76126 0.8306 0.0
O268 O 0.7073 0.85066 0.86033 0.0
C269 C 0.54553 0.78229 0.89318 0.0
C270 C 0.73414 0.73077 0.86411 0.0
C271 C 0.54298 0.61898 0.87997 0.0
C272 C 0.66417 0.73648 0.92986 0.0
C273 C 0.60001 0.73916 0.82568 0.0
C274 C 0.71096 0.87609 0.87531 0.0
O275 O 0.5355 0.7523 0.87926 0.0
H276 H 0.11125 0.33048 0.13307 0.0
C277 C 0.08399 0.30751 0.1436 0.0
H278 H 0.06034 0.24967 0.16341 0.0
H279 H 0.13237 0.13699 0.11269 0.0
H280 H 0.04675 0.09028 0.10777 0.0
H281 H -0.00604 0.11938 0.11999 0.0
H282 H 0.02628 0.19491 0.1373 0.0
C283 C 0.08813 0.27329 0.1532 0.0
C284 C 0.12086 0.25689 0.14591 0.0
C285 C 0.10105 0.21209 0.13602 0.0
C286 C 0.13139 0.19524 0.12901 0.0
C287 C 0.11088 0.15103 0.11872 0.0
C288 C 0.06178 0.12396 0.11566 0.0
C289 C 0.03205 0.1403 0.12256 0.0
C290 C 0.0512 0.18381 0.13256 0.0
H291 H 0.18982 0.15186 0.14762 0.0
C292 C 0.21327 0.16828 0.13501 0.0
H293 H 0.23803 0.22331 0.11359 0.0
H294 H 0.16989 0.34367 0.16451 0.0
H295 H 0.2559 0.39125 0.16875 0.0
H296 H 0.30874 0.36248 0.15615 0.0
H297 H 0.27593 0.28591 0.13935 0.0
C298 C 0.21299 0.20466 0.1255 0.0
C299 C 0.18135 0.22303 0.13204 0.0
C300 C 0.20126 0.26827 0.1415 0.0
C301 C 0.17089 0.28511 0.14858 0.0
C302 C 0.19147 0.32966 0.15854 0.0
C303 C 0.24074 0.35719 0.16114 0.0
C304 C 0.27049 0.34098 0.15407 0.0
C305 C 0.25119 0.29699 0.14441 0.0
H306 H 0.21316 0.89793 0.35351 0.0
C307 C 0.20249 0.92489 0.35468 0.0
H308 H 0.14525 0.93886 0.35523 0.0
H309 H 0.9776 0.74765 0.32549 0.0
H310 H 0.00486 0.784 0.29318 0.0
H311 H 0.08439 0.85581 0.28907 0.0
H312 H 0.13711 0.89181 0.31734 0.0
C313 C 0.15612 0.912 0.35443 0.0
C314 C 0.11737 0.86162 0.35554 0.0
C315 C 0.08799 0.84021 0.33886 0.0
C316 C 0.04245 0.79871 0.34123 0.0
C317 C 0.01269 0.77911 0.32448 0.0
C318 C 0.02794 0.79959 0.30587 0.0
C319 C 0.07271 0.84006 0.30355 0.0
C320 C 0.1025 0.86042 0.31984 0.0
H321 H 0.96884 0.7955 0.38217 0.0
C322 C 0.95055 0.76042 0.37517 0.0
H323 H 0.95763 0.71169 0.3564 0.0
H324 H 0.16817 0.89044 0.39028 0.0
H325 H 0.14329 0.85054 0.42189 0.0
H326 H 0.06619 0.77556 0.42549 0.0
H327 H 0.01276 0.74101 0.39735 0.0
C328 C 0.97536 0.74606 0.36393 0.0
C329 C 0.02686 0.7792 0.36032 0.0
C330 C 0.05895 0.79675 0.37646 0.0
C331 C 0.10404 0.83876 0.37419 0.0
C332 C 0.13386 0.85798 0.39098 0.0
C333 C 0.12004 0.83534 0.40926 0.0
C334 C 0.07656 0.79324 0.41129 0.0
C335 C 0.04618 0.77398 0.39511 0.0
H336 H 0.84823 0.08567 0.11398 0.0
C337 C 0.85618 0.10267 0.12844 0.0
H338 H 0.8478 0.09125 0.15927 0.0
H339 H 0.67238 0.88048 0.14855 0.0
H340 H 0.6323 0.92204 0.16096 0.0
H341 H 0.67628 0.00988 0.16509 0.0
H342 H 0.76061 0.05671 0.15704 0.0
C343 C 0.84302 0.0753 0.1447 0.0
C344 C 0.81708 0.02226 0.14296 0.0
C345 C 0.76786 -0.00447 0.14782 0.0
C346 C 0.74234 0.94495 0.14529 0.0
C347 C 0.69328 0.91899 0.15023 0.0
C348 C 0.66989 0.9424 0.15731 0.0
C349 C 0.69467 0.99187 0.15965 0.0
C350 C 0.74308 0.01832 0.15498 0.0
H351 H 0.76863 0.86193 0.16339 0.0
C352 C 0.7487 0.84341 0.1502 0.0
H353 H 0.72451 0.85196 0.12235 0.0
H354 H 0.91217 0.06219 0.13412 0.0
H355 H 0.95134 0.02104 0.12059 0.0
H356 H 0.90589 0.93405 0.11418 0.0
H357 H 0.8213 0.88771 0.12152 0.0
C358 C 0.74083 0.86839 0.13637 0.0
C359 C 0.76607 0.92143 0.13785 0.0
C360 C 0.81512 0.94826 0.13267 0.0
C361 C 0.84091 -0.00141 0.13566 0.0
C362 C 0.89047 0.02413 0.13144 0.0
C363 C 0.91349 0.0009 0.1238 0.0
C364 C 0.88794 0.95192 0.12025 0.0
C365 C 0.83938 0.92572 0.12461 0.0
H366 H 0.18011 0.14743 0.36493 0.0
C367 C 0.21809 0.16873 0.36172 0.0
H368 H 0.27535 0.23817 0.35485 0.0
H369 H 0.06323 0.21896 0.33511 0.0
H370 H 0.06913 0.18415 0.30403 0.0
H371 H 0.13865 0.17414 0.29712 0.0
H372 H 0.20271 0.19896 0.3213 0.0
C373 C 0.23718 0.21532 0.35711 0.0
C374 C 0.20632 0.23702 0.35763 0.0
C375 C 0.17044 0.22394 0.34316 0.0
C376 C 0.13064 0.22972 0.34715 0.0
C377 C 0.09414 0.21489 0.33278 0.0
C378 C 0.09722 0.1951 0.31491 0.0
C379 C 0.13637 0.18946 0.31102 0.0
C380 C 0.17267 0.20358 0.32498 0.0
H381 H 0.09014 0.30723 0.37073 0.0
C382 C 0.0652 0.26969 0.37377 0.0
H383 H 0.05413 0.19943 0.37498 0.0
H384 H 0.27637 0.27791 0.38555 0.0
H385 H 0.27332 0.31759 0.41568 0.0
H386 H 0.20292 0.3256 0.42323 0.0
H387 H 0.1355 0.2946 0.40063 0.0
C388 C 0.07935 0.23716 0.37246 0.0
C389 C 0.12716 0.24845 0.36557 0.0
C390 C 0.16633 0.26784 0.3788 0.0
C391 C 0.20651 0.2626 0.37463 0.0
C392 C 0.24488 0.28077 0.38821 0.0
C393 C 0.24355 0.3036 0.40549 0.0
C394 C 0.20392 0.30814 0.40972 0.0
C395 C 0.16548 0.29025 0.39664 0.0
H396 H 0.20573 0.91966 0.11173 0.0
C397 C 0.20643 0.94478 0.12263 0.0
H398 H 0.1658 0.96045 0.14261 0.0
H399 H 0.98849 0.84674 0.08417 0.0
H400 H 0.03297 0.91364 0.06198 0.0
H401 H 0.11709 0.9735 0.06882 0.0
H402 H 0.15718 0.96672 0.09774 0.0
C403 C 0.16596 0.93551 0.13185 0.0
C404 C 0.11881 0.89546 0.12579 0.0
C405 C 0.0962 0.90006 0.10863 0.0
C406 C 0.0476 0.86599 0.1048 0.0
C407 C 0.02538 0.87167 0.08779 0.0
C408 C 0.05048 0.90993 0.07493 0.0
C409 C 0.09783 0.94359 0.07877 0.0
C410 C 0.12051 0.93909 0.09544 0.0
H411 H 0.95684 0.82563 0.14301 0.0
C412 C 0.94088 0.80301 0.13012 0.0
H413 H 0.95377 0.77666 0.10358 0.0
H414 H 0.15366 0.8739 0.15855 0.0
H415 H 0.10988 0.80498 0.18003 0.0
H416 H 0.02577 0.7452 0.1731 0.0
H417 H 0.98482 0.75393 0.14466 0.0
C418 C 0.96902 0.79917 0.11654 0.0
C419 C 0.02171 0.82832 0.11835 0.0
C420 C 0.04541 0.82157 0.13458 0.0
C421 C 0.09401 0.85556 0.13841 0.0
C422 C 0.11665 0.84899 0.15503 0.0
C423 C 0.09202 0.80956 0.16741 0.0
C424 C 0.04464 0.7759 0.1635 0.0
C425 C 0.02146 0.78153 0.14725 0.0
H426 H 0.76974 0.8313 0.38734 0.0
C427 C 0.74821 0.80188 0.37728 0.0
H428 H 0.70912 0.7824 0.35052 0.0
H429 H 0.76398 -0.00436 0.39127 0.0
H430 H 0.69573 0.94913 0.41266 0.0
H431 H 0.64654 0.86135 0.40886 0.0
H432 H 0.66558 0.81962 0.38351 0.0
C433 C 0.72758 0.80981 0.36168 0.0
C434 C 0.74017 0.86002 0.35791 0.0
C435 C 0.72758 0.88394 0.37209 0.0
C436 C 0.75577 0.93428 0.37417 0.0
C437 C 0.74371 0.95726 0.38907 0.0
C438 C 0.70461 0.931 0.40141 0.0
C439 C 0.67691 0.88158 0.39927 0.0
C440 C 0.68821 0.85808 0.38482 0.0
H441 H 0.80126 0.03644 0.34468 0.0
C442 C 0.82631 0.04577 0.35687 0.0
H443 H 0.85187 0.01917 0.37932 0.0
H444 H 0.7644 0.82539 0.32583 0.0
H445 H 0.82859 0.87203 0.30259 0.0
H446 H 0.87837 0.95979 0.30621 0.0
H447 H 0.8643 0.00142 0.33303 0.0
C448 C 0.82973 0.01116 0.36622 0.0
C449 C 0.79577 0.96033 0.3617 0.0
C450 C 0.80409 0.93718 0.3457 0.0
C451 C 0.7757 0.88669 0.34368 0.0
C452 C 0.78532 0.86373 0.32802 0.0
C453 C 0.82186 0.89009 0.31459 0.0
C454 C 0.84986 0.93951 0.31661 0.0
C455 C 0.84139 0.96298 0.33203 0.0
H456 H 0.22362 0.05202 0.61665 0.0
C457 C 0.25052 0.04595 0.62359 0.0
H458 H 0.31134 0.07606 0.64235 0.0
H459 H 0.26428 0.23773 0.60145 0.0
H460 H 0.31425 0.2372 0.57465 0.0
H461 H 0.35074 0.18583 0.57637 0.0
H462 H 0.33772 0.13493 0.60507 0.0
C463 C 0.28506 0.08114 0.63438 0.0
C464 C 0.28275 0.12554 0.63702 0.0
C465 C 0.29217 0.15618 0.62066 0.0
C466 C 0.27099 0.18541 0.61966 0.0
C467 C 0.27934 0.21448 0.60281 0.0
C468 C 0.308 0.21459 0.5874 0.0
C469 C 0.32858 0.18569 0.58837 0.0
C470 C 0.32076 0.15661 0.60479 0.0
H471 H 0.24412 0.26433 0.64796 0.0
C472 C 0.2136 0.24269 0.6385 0.0
H473 H 0.17766 0.18012 0.62116 0.0
H474 H 0.2694 0.08057 0.67241 0.0
H475 H 0.22355 0.08441 0.70023 0.0
H476 H 0.18528 0.13412 0.69843 0.0
H477 H 0.19263 0.18029 0.66895 0.0
C478 C 0.20701 0.20121 0.63122 0.0
C479 C 0.24073 0.18378 0.63508 0.0
C480 C 0.23705 0.15844 0.65268 0.0
C481 C 0.25869 0.12954 0.6537 0.0
C482 C 0.25325 0.10285 0.67102 0.0
C483 C 0.22722 0.10486 0.68702 0.0
C484 C 0.20569 0.13289 0.68601 0.0
C485 C 0.2102 0.15924 0.66902 0.0
H486 H 0.02131 0.81217 0.89692 0.0
C487 C 0.03622 0.82847 0.8827 0.0
H488 H 0.02075 0.83801 0.85331 0.0
H489 H 0.8116 0.66165 0.85252 0.0
H490 H 0.85209 0.63372 0.83054 0.0
H491 H 0.93977 0.67941 0.82692 0.0
H492 H 0.98745 0.75345 0.84502 0.0
C493 C 0.00674 0.82405 0.8679 0.0
C494 C 0.95412 0.79604 0.87057 0.0
C495 C 0.92696 0.75277 0.8599 0.0
C496 C 0.8765 0.72621 0.86206 0.0
C497 C 0.85004 0.68325 0.85123 0.0
C498 C 0.87284 0.66677 0.83867 0.0
C499 C 0.92221 0.6925 0.83663 0.0
C500 C 0.94915 0.73501 0.84708 0.0
H501 H 0.80174 0.75468 0.84856 0.0
C502 C 0.78022 0.73322 0.86094 0.0
H503 H 0.78126 0.70233 0.88828 0.0
H504 H -0.00503 0.87934 0.89228 0.0
H505 H 0.95458 0.90479 0.9152 0.0
H506 H 0.86759 0.85597 0.9204 0.0
H507 H 0.8205 0.7817 0.90245 0.0
C508 C 0.80075 0.7202 0.87495 0.0
C509 C 0.85352 0.74277 0.87499 0.0
C510 C 0.88079 0.78487 0.88632 0.0
C511 C 0.93108 0.8122 0.88378 0.0
C512 C 0.95697 0.85602 0.8942 0.0
C513 C 0.93414 0.87135 0.9073 0.0
C514 C 0.88517 0.84394 0.91018 0.0
C515 C 0.85858 0.80136 0.89977 0.0
H516 H 0.73121 0.92886 0.65147 0.0
C517 C 0.74835 0.91509 0.64176 0.0
H518 H 0.80632 0.93272 0.62263 0.0
H519 H 0.86255 0.1436 0.60472 0.0
H520 H 0.82091 0.10481 0.57433 0.0
H521 H 0.77357 0.01666 0.57201 0.0
H522 H 0.76799 0.96676 0.5999 0.0
C523 C 0.78998 0.94555 0.63321 0.0
C524 C 0.81186 -0.00201 0.63583 0.0
C525 C 0.81335 0.02639 0.61957 0.0
C526 C 0.8401 0.07707 0.62095 0.0
C527 C 0.8426 0.10485 0.60434 0.0
C528 C 0.81876 0.08306 0.58689 0.0
C529 C 0.79213 0.03342 0.58558 0.0
C530 C 0.78933 0.00522 0.60168 0.0
H531 H 0.95394 0.12231 0.63607 0.0
C532 C 0.94999 0.15393 0.63572 0.0
H533 H 0.90031 0.17865 0.63618 0.0
H534 H 0.81325 0.95408 0.67045 0.0
H535 H 0.85085 0.99361 0.70117 0.0
H536 H 0.89436 0.08183 0.70371 0.0
H537 H 0.90072 0.13101 0.67529 0.0
C538 C 0.90629 0.14849 0.63753 0.0
C539 C 0.86536 0.09893 0.63849 0.0
C540 C 0.85963 0.07075 0.65538 0.0
C541 C 0.83348 0.02003 0.65401 0.0
C542 C 0.83139 0.99276 0.67076 0.0
C543 C 0.85308 0.01503 0.68848 0.0
C544 C 0.87768 0.0647 0.6899 0.0
C545 C 0.88123 0.09244 0.67354 0.0
H546 H 0.14613 0.21412 0.90348 0.0
C547 C 0.12408 0.20757 0.89042 0.0
H548 H 0.10544 0.17515 0.86231 0.0
H549 H 0.29185 0.16703 0.84758 0.0
H550 H 0.30109 0.22834 0.82419 0.0
H551 H 0.24609 0.26055 0.82478 0.0
H552 H 0.18149 0.23159 0.84855 0.0
C553 C 0.12499 0.17966 0.87595 0.0
C554 C 0.15939 0.16193 0.87652 0.0
C555 C 0.19721 0.17976 0.86259 0.0
C556 C 0.22905 0.16148 0.86226 0.0
C557 C 0.26641 0.17951 0.84821 0.0
C558 C 0.27224 0.21481 0.83481 0.0
C559 C 0.24128 0.23295 0.83515 0.0
C560 C 0.2042 0.21585 0.84885 0.0
H561 H 0.20721 0.06486 0.84758 0.0
C562 C 0.2322 0.06517 0.85843 0.0
H563 H 0.26994 0.09684 0.88469 0.0
H564 H 0.09033 0.11946 0.90508 0.0
H565 H 0.08418 0.06153 0.92937 0.0
H566 H 0.14202 0.03283 0.92978 0.0
H567 H 0.20593 0.06152 0.90575 0.0
C568 C 0.2482 0.0983 0.87278 0.0
C569 C 0.22311 0.12569 0.87588 0.0
C570 C 0.18734 0.11017 0.89067 0.0
C571 C 0.15477 0.12761 0.89076 0.0
C572 C 0.11719 0.10886 0.90476 0.0
C573 C 0.11296 0.07522 0.91871 0.0
C574 C 0.14544 0.05898 0.91891 0.0
C575 C 0.18202 0.07582 0.90501 0.0
H576 H 0.02245 0.81644 0.61915 0.0
C577 C 0.04161 0.80215 0.62726 0.0
H578 H 0.03595 0.75037 0.64809 0.0
H579 H 0.84893 0.75176 0.67878 0.0
H580 H 0.90068 0.78247 0.70762 0.0
H581 H 0.98263 0.79536 0.70672 0.0
H582 H 0.01331 0.77758 0.67704 0.0
C583 C 0.01762 0.76468 0.63945 0.0
C584 C 0.9656 0.74417 0.64206 0.0
C585 C 0.94811 0.75329 0.6597 0.0
C586 C 0.90116 0.74616 0.66017 0.0
C587 C 0.88465 0.75705 0.67769 0.0
C588 C 0.91389 0.77448 0.6943 0.0
C589 C 0.96003 0.78172 0.6938 0.0
C590 C 0.97722 0.77147 0.6767 0.0
H591 H 0.77762 0.66498 0.64462 0.0
C592 C 0.7856 0.70147 0.6419 0.0
H593 H 0.83925 0.77416 0.63924 0.0
H594 H 0.98475 0.71048 0.60833 0.0
H595 H 0.93211 0.67656 0.57993 0.0
H596 H 0.85158 0.66734 0.58006 0.0
H597 H 0.82294 0.69105 0.60858 0.0
C598 C 0.831 0.7374 0.64143 0.0
C599 C 0.87224 0.72984 0.64307 0.0
C600 C 0.88779 0.71527 0.62624 0.0
C601 C 0.93453 0.72184 0.62589 0.0
C602 C 0.94979 0.70723 0.60903 0.0
C603 C 0.91992 0.68757 0.59272 0.0
C604 C 0.87456 0.68229 0.59282 0.0
C605 C 0.85853 0.69605 0.60931 0.0
H606 H 0.85976 0.19822 0.88167 0.0
C607 C 0.88632 0.19221 0.87444 0.0
H608 H 0.90197 0.14138 0.86211 0.0
H609 H 0.7701 0.97889 0.92045 0.0
H610 H 0.83262 0.02463 0.94433 0.0
H611 H 0.89526 0.10776 0.93722 0.0
H612 H 0.89568 0.1456 0.90621 0.0
C613 C 0.87562 0.14776 0.8693 0.0
C614 C 0.83148 0.10479 0.87587 0.0
C615 C 0.83123 0.08391 0.89431 0.0
C616 C 0.79528 0.03611 0.8984 0.0
C617 C 0.79659 0.01522 0.91661 0.0
C618 C 0.83226 0.04107 0.93045 0.0
C619 C 0.86753 0.08786 0.92644 0.0
C620 C 0.86735 0.10915 0.90857 0.0
H621 H 0.76214 0.94387 0.86099 0.0
C622 C 0.73763 0.92837 0.87335 0.0
H623 H 0.70656 0.94199 0.89824 0.0
H624 H 0.81767 0.13823 0.84093 0.0
H625 H 0.75148 0.09451 0.81809 0.0
H626 H 0.68773 0.01202 0.82561 0.0
H627 H 0.69011 0.97252 0.85587 0.0
C628 C 0.73111 0.95692 0.88588 0.0
C629 C 0.76031 0.00961 0.88393 0.0
C630 C 0.75724 0.03253 0.86661 0.0
C631 C 0.79334 0.08021 0.86246 0.0
C632 C 0.79088 0.10192 0.8447 0.0
C633 C 0.75308 0.07732 0.83156 0.0
C634 C 0.71721 0.03085 0.83578 0.0
C635 C 0.7191 0.0085 0.8531 0.0
H636 H 0.37097 0.15139 0.29545 0.0
C637 C 0.37382 0.12253 0.30242 0.0
H638 H 0.38214 0.06244 0.29785 0.0
H639 H 0.29074 0.0178 0.21266 0.0
H640 H 0.24195 0.94352 0.23023 0.0
H641 H 0.25365 0.93723 0.26585 0.0
H642 H 0.31467 0.00479 0.28401 0.0
C643 C 0.38011 0.0919 0.29107 0.0
C644 C 0.3774 0.09382 0.2691 0.0
C645 C 0.34106 0.05392 0.25875 0.0
C646 C 0.33333 0.05797 0.23833 0.0
C647 C 0.29745 0.01721 0.22827 0.0
C648 C 0.26924 0.97421 0.23816 0.0
C649 C 0.27589 0.97065 0.2582 0.0
C650 C 0.31122 0.00987 0.26845 0.0
H651 H 0.41702 0.12698 0.19597 0.0
C652 C 0.38063 0.11829 0.19272 0.0
H653 H 0.31256 0.09773 0.20424 0.0
H654 H 0.45811 0.17222 0.28297 0.0
H655 H 0.50516 0.24799 0.26593 0.0
H656 H 0.48431 0.2592 0.23208 0.0
H657 H 0.41779 0.19449 0.21484 0.0
C658 C 0.34906 0.10681 0.20751 0.0
C659 C 0.36094 0.10226 0.22839 0.0
C660 C 0.3981 0.14186 0.23866 0.0
C661 C 0.40773 0.13676 0.25873 0.0
C662 C 0.44757 0.17529 0.26812 0.0
C663 C 0.47507 0.21878 0.25847 0.0
C664 C 0.4635 0.22499 0.23938 0.0
C665 C 0.42543 0.18721 0.22955 0.0
H666 H 0.78397 0.63903 0.30199 0.0
C667 C 0.7534 0.63753 0.30939 0.0
H668 H 0.68804 0.6364 0.30568 0.0
H669 H 0.74747 0.74248 0.22332 0.0
H670 H 0.733 0.79636 0.24322 0.0
H671 H 0.71506 0.7813 0.27875 0.0
H672 H 0.71048 0.71174 0.29447 0.0
C673 C 0.71831 0.63677 0.29853 0.0
C674 C 0.72361 0.64263 0.2767 0.0
C675 C 0.7265 0.68377 0.26779 0.0
C676 C 0.73833 0.69324 0.24744 0.0
C677 C 0.73988 0.73406 0.23882 0.0
C678 C 0.73146 0.76528 0.25006 0.0
C679 C 0.72126 0.75675 0.27004 0.0
C680 C 0.71873 0.71657 0.27888 0.0
H681 H 0.70768 0.61027 0.20342 0.0
C682 C 0.73821 0.64532 0.20026 0.0
H683 H 0.79355 0.70983 0.21204 0.0
H684 H 0.70987 0.55512 0.28797 0.0
H685 H 0.72854 0.50303 0.26873 0.0
H686 H 0.76009 0.52505 0.23485 0.0
H687 H 0.77149 0.59814 0.21982 0.0
C688 C 0.76352 0.67446 0.21519 0.0
C689 C 0.74857 0.66229 0.23617 0.0
C690 C 0.74514 0.6208 0.24508 0.0
C691 C 0.7305 0.60991 0.2651 0.0
C692 C 0.72351 0.56636 0.27318 0.0
C693 C 0.73373 0.53599 0.26225 0.0
C694 C 0.75123 0.54825 0.24315 0.0
C695 C 0.7571 0.59017 0.23461 0.0
H696 H 0.85094 0.27864 0.21157 0.0
C697 C 0.88003 0.27331 0.20675 0.0
H698 H 0.93618 0.26201 0.21562 0.0
H699 H 0.87809 0.33878 0.29731 0.0
H700 H 0.90403 0.41331 0.27971 0.0
H701 H 0.92903 0.42166 0.24484 0.0
H702 H 0.92724 0.35527 0.22726 0.0
C703 C 0.90732 0.26785 0.22027 0.0
C704 C 0.89649 0.26502 0.24177 0.0
C705 C 0.89981 0.305 0.25205 0.0
C706 C 0.88774 0.30101 0.27244 0.0
C707 C 0.88869 0.34049 0.28205 0.0
C708 C 0.90325 0.3834 0.27209 0.0
C709 C 0.91714 0.38803 0.25244 0.0
C710 C 0.91559 0.34946 0.24247 0.0
H711 H 0.93256 0.30629 0.31309 0.0
C712 C 0.89764 0.27782 0.31778 0.0
H713 H 0.82909 0.22395 0.30881 0.0
H714 H 0.8862 0.18156 0.2265 0.0
H715 H 0.86461 0.10867 0.24453 0.0
H716 H 0.8484 0.10332 0.28029 0.0
H717 H 0.85315 0.17055 0.29817 0.0
C718 C 0.8636 0.25329 0.30421 0.0
C719 C 0.87473 0.2579 0.28273 0.0
C720 C 0.87254 0.21834 0.27254 0.0
C721 C 0.88304 0.22179 0.25203 0.0
C722 C 0.87948 0.18133 0.24215 0.0
C723 C 0.867 0.13913 0.25231 0.0
C724 C 0.85778 0.13609 0.27243 0.0
C725 C 0.86049 0.17504 0.2825 0.0
H726 H 0.14479 0.372 0.69978 0.0
C727 C 0.11014 0.35029 0.69282 0.0
H728 H 0.03602 0.30497 0.69754 0.0
H729 H 0.13549 0.29741 0.7825 0.0
H730 H 0.16657 0.25473 0.76392 0.0
H731 H 0.15398 0.24345 0.72794 0.0
H732 H 0.11115 0.27572 0.71031 0.0
C733 C 0.07106 0.32666 0.70417 0.0
C734 C 0.07442 0.32897 0.72608 0.0
C735 C 0.09763 0.30785 0.73627 0.0
C736 C 0.10275 0.31219 0.75714 0.0
C737 C 0.12874 0.29343 0.76679 0.0
C738 C 0.14708 0.26909 0.75628 0.0
C739 C 0.14015 0.26291 0.73602 0.0
C740 C 0.11575 0.28194 0.72606 0.0
H741 H 0.04418 0.26628 0.79535 0.0
C742 C 0.06513 0.3019 0.80168 0.0
H743 H 0.10698 0.37606 0.79584 0.0
H744 H 0.02649 0.37185 0.71109 0.0
H745 H -0.00814 0.41114 0.72984 0.0
H746 H -0.00221 0.41581 0.76618 0.0
H747 H 0.03857 0.38147 0.78398 0.0
C748 C 0.08732 0.34013 0.7897 0.0
C749 C 0.08249 0.33549 0.76786 0.0
C750 C 0.05817 0.35545 0.7577 0.0
C751 C 0.0542 0.35223 0.73678 0.0
C752 C 0.03019 0.37292 0.72699 0.0
C753 C 0.01017 0.39561 0.73757 0.0
C754 C 0.01356 0.39829 0.75802 0.0
C755 C 0.03719 0.3785 0.76805 0.0
H756 H 0.17999 0.87742 0.79093 0.0
C757 C 0.20753 0.87428 0.79888 0.0
H758 H 0.26728 0.86465 0.79627 0.0
H759 H 0.2139 0.76921 0.7116 0.0
H760 H 0.21052 0.70528 0.73164 0.0
H761 H 0.21864 0.7132 0.76786 0.0
H762 H 0.23072 0.78528 0.78426 0.0
C763 C 0.23981 0.86839 0.78861 0.0
C764 C 0.23747 0.86484 0.76659 0.0
C765 C 0.22997 0.82225 0.75724 0.0
C766 C 0.22434 0.81729 0.73636 0.0
C767 C 0.21766 0.77463 0.72741 0.0
C768 C 0.21573 0.73766 0.73873 0.0
C769 C 0.22036 0.74214 0.75912 0.0
C770 C 0.22735 0.7838 0.76835 0.0
H771 H 0.28559 0.90688 0.6959 0.0
C772 C 0.25213 0.87771 0.69026 0.0
H773 H 0.18475 0.81895 0.69765 0.0
H774 H 0.26172 0.95522 0.77907 0.0
H775 H 0.26105 0.01762 0.75938 0.0
H776 H 0.24067 0.00498 0.72396 0.0
H777 H 0.22253 0.93065 0.70793 0.0
C778 C 0.21827 0.84844 0.70305 0.0
C779 C 0.22549 0.85462 0.72486 0.0
C780 C 0.2328 0.89722 0.73425 0.0
C781 C 0.24086 0.9031 0.75498 0.0
C782 C 0.25237 0.94764 0.76364 0.0
C783 C 0.25257 0.98398 0.75246 0.0
C784 C 0.24138 0.97698 0.73251 0.0
C785 C 0.2315 0.93419 0.72344 0.0
H786 H 0.6097 0.67385 0.70333 0.0
C787 C 0.59942 0.69702 0.69574 0.0
H788 H 0.57467 0.7461 0.69869 0.0
H789 H 0.55635 0.64681 0.7881 0.0
H790 H 0.49671 0.57198 0.77343 0.0
H791 H 0.47736 0.56717 0.73796 0.0
H792 H 0.51834 0.63716 0.7169 0.0
C793 C 0.58416 0.72222 0.7062 0.0
C794 C 0.58954 0.72616 0.72801 0.0
C795 C 0.56364 0.68553 0.74026 0.0
C796 C 0.57315 0.68892 0.76088 0.0
C797 C 0.54912 0.64695 0.77253 0.0
C798 C 0.515 0.60359 0.76426 0.0
C799 C 0.50423 0.60084 0.74428 0.0
C800 C 0.52819 0.64119 0.73234 0.0
H801 H 0.55027 0.72105 0.80054 0.0
C802 C 0.58686 0.7321 0.80464 0.0
H803 H 0.6554 0.74923 0.79465 0.0
H804 H 0.64507 0.81151 0.70873 0.0
H805 H 0.70118 0.88732 0.72367 0.0
H806 H 0.71415 0.89425 0.75969 0.0
H807 H 0.67137 0.82516 0.78093 0.0
C808 C 0.61868 0.73784 0.79065 0.0
C809 C 0.60686 0.73362 0.76929 0.0
C810 C 0.63124 0.77468 0.75714 0.0
C811 C 0.62288 0.7709 0.73646 0.0
C812 C 0.6491 0.81226 0.7246 0.0
C813 C 0.68163 0.85613 0.73297 0.0
C814 C 0.689 0.86002 0.75323 0.0
C815 C 0.66425 0.81995 0.76525 0.0
H816 H 0.22397 0.9426 0.95818 0.0
C817 C 0.24512 0.96744 0.94654 0.0
H818 H 0.29821 0.0385 0.93978 0.0
H819 H 0.21488 0.04323 0.03004 0.0
H820 H 0.14166 0.02552 0.01325 0.0
H821 H 0.13336 0.01189 0.97725 0.0
H822 H 0.19795 0.01478 0.95793 0.0
C823 C 0.27606 0.01337 0.95113 0.0
C824 C 0.28377 0.0299 0.97202 0.0
C825 C 0.24657 0.03042 0.98292 0.0
C826 C 0.25223 0.04054 0.00351 0.0
C827 C 0.2133 0.03763 0.01426 0.0
C828 C 0.17091 0.02725 0.00481 0.0
C829 C 0.16617 0.0194 0.98456 0.0
C830 C 0.20341 0.02087 0.97367 0.0
H831 H 0.29961 0.12316 0.03566 0.0
C832 C 0.30389 0.09675 0.044 0.0
H833 H 0.3068 0.03279 0.04286 0.0
H834 H 0.36353 0.03594 0.95504 0.0
H835 H 0.43866 0.05865 0.97135 0.0
H836 H 0.44975 0.07954 0.00675 0.0
H837 H 0.38565 0.07755 0.02608 0.0
C838 C 0.30128 0.05863 0.0347 0.0
C839 C 0.29596 0.05227 0.01293 0.0
C840 C 0.33413 0.05458 0.00174 0.0
C841 C 0.328 0.04326 0.98128 0.0
C842 C 0.36635 0.04467 0.97059 0.0
C843 C 0.4097 0.05762 0.97977 0.0
C844 C 0.41593 0.06932 0.9997 0.0
C845 C 0.37874 0.06787 0.01063 0.0
H846 H 0.77784 0.66117 0.47071 0.0
C847 C 0.78785 0.69101 0.46066 0.0
H848 H 0.80424 0.76291 0.45784 0.0
H849 H 0.68901 0.67692 0.54371 0.0
H850 H 0.62361 0.61694 0.52413 0.0
H851 H 0.63035 0.61524 0.48789 0.0
H852 H 0.70317 0.67181 0.47125 0.0
C853 C 0.79457 0.73289 0.46773 0.0
C854 C 0.78715 0.73902 0.489 0.0
C855 C 0.74242 0.70845 0.49812 0.0
C856 C 0.73667 0.7126 0.51867 0.0
C857 C 0.69389 0.67781 0.52789 0.0
C858 C 0.65623 0.64283 0.51686 0.0
C859 C 0.66015 0.64166 0.49649 0.0
C860 C 0.70255 0.67404 0.48715 0.0
H861 H 0.70582 0.7691 0.5413 0.0
C862 C 0.72704 0.76835 0.55362 0.0
H863 H 0.78453 0.75858 0.56213 0.0
H864 H 0.87763 0.80268 0.47634 0.0
H865 H 0.94084 0.86604 0.4957 0.0
H866 H 0.92787 0.87805 0.53064 0.0
H867 H 0.85174 0.82631 0.54653 0.0
C868 C 0.76365 0.76088 0.55004 0.0
C869 C 0.77327 0.7512 0.52954 0.0
C870 C 0.81772 0.78201 0.52046 0.0
C871 C 0.82486 0.7756 0.5002 0.0
C872 C 0.86998 0.80634 0.49159 0.0
C873 C 0.90661 0.84282 0.50254 0.0
C874 C 0.89932 0.84956 0.52222 0.0
C875 C 0.85545 0.81965 0.53116 0.0
H876 H 0.98143 0.32529 0.95243 0.0
C877 C 0.01566 0.32728 0.9501 0.0
H878 H 0.07411 0.32656 0.96363 0.0
H879 H 0.95577 0.36869 0.03535 0.0
H880 H 0.97791 0.44291 0.01824 0.0
H881 H 0.02197 0.4622 0.98674 0.0
H882 H 0.04305 0.40678 0.97194 0.0
C883 C 0.04055 0.32606 0.96575 0.0
C884 C 0.02028 0.31815 0.98605 0.0
C885 C 0.01058 0.3522 0.99502 0.0
C886 C 0.98771 0.34236 0.01376 0.0
C887 C 0.97526 0.37536 0.02166 0.0
C888 C 0.98742 0.41798 0.01191 0.0
C889 C 0.01202 0.42874 0.99413 0.0
C890 C 0.02358 0.3964 0.98572 0.0
H891 H 0.01427 0.34997 0.05717 0.0
C892 C 0.97954 0.31831 0.05957 0.0
H893 H 0.92153 0.25782 0.04638 0.0
H894 H 0.03391 0.24526 0.97309 0.0
H895 H 0.0156 0.17304 0.99099 0.0
H896 H 0.98044 0.15829 0.02435 0.0
H897 H 0.96288 0.21543 0.0399 0.0
C898 C 0.95571 0.29023 0.04415 0.0
C899 C 0.97729 0.29987 0.02406 0.0
C900 C 0.98803 0.26641 0.01529 0.0
C901 C 0.00926 0.2754 0.99623 0.0
C902 C 0.01854 0.24075 0.98766 0.0
C903 C 0.00812 0.19902 0.99776 0.0
C904 C 0.98826 0.19068 0.01652 0.0
C905 C 0.97827 0.22381 0.02526 0.0
H906 H 0.20588 0.00943 0.44362 0.0
C907 C 0.24468 0.02966 0.44309 0.0
H908 H 0.30865 0.05176 0.45895 0.0
H909 H 0.22493 0.02202 0.54453 0.0
H910 H 0.26595 0.10849 0.54216 0.0
H911 H 0.29745 0.14902 0.51027 0.0
H912 H 0.28858 0.10317 0.48057 0.0
C913 C 0.26987 0.03089 0.45908 0.0
C914 C 0.24618 0.0057 0.47771 0.0
C915 C 0.25045 0.03286 0.49484 0.0
C916 C 0.23138 0.00937 0.51314 0.0
C917 C 0.23788 0.03769 0.53015 0.0
C918 C 0.26148 0.08749 0.52902 0.0
C919 C 0.27928 0.11032 0.51108 0.0
C920 C 0.274 0.08354 0.49415 0.0
H921 H 0.2371 0.90381 0.53127 0.0
C922 C 0.21349 0.90975 0.54081 0.0
H923 H 0.17097 0.94216 0.54346 0.0
H924 H 0.23466 0.94249 0.44811 0.0
H925 H 0.19053 0.85584 0.45018 0.0
H926 H 0.14962 0.81521 0.48093 0.0
H927 H 0.15501 0.86113 0.51021 0.0
C928 C 0.19342 0.93468 0.53389 0.0
C929 C 0.20745 0.95861 0.51422 0.0
C930 C 0.20065 0.93139 0.49681 0.0
C931 C 0.22141 0.95491 0.47869 0.0
C932 C 0.21781 0.92669 0.46202 0.0
C933 C 0.19259 0.87684 0.463 0.0
C934 C 0.16989 0.85395 0.48037 0.0
C935 C 0.17364 0.88071 0.4971 0.0
H936 H 0.70487 0.75022 0.05562 0.0
C937 C 0.73358 0.74208 0.0571 0.0
H938 H 0.78367 0.73021 0.04173 0.0
H939 H 0.60995 0.69367 0.97799 0.0
H940 H 0.55919 0.62481 0.9983 0.0
H941 H 0.59047 0.60772 0.02856 0.0
H942 H 0.67224 0.66013 0.03894 0.0
C943 C 0.75463 0.73789 0.04074 0.0
C944 C 0.73823 0.74347 0.02087 0.0
C945 C 0.69108 0.71079 0.01442 0.0
C946 C 0.67395 0.71891 0.99634 0.0
C947 C 0.62561 0.68784 0.99105 0.0
C948 C 0.59592 0.64835 0.00266 0.0
C949 C 0.61345 0.63887 0.01974 0.0
C950 C 0.66041 0.66955 0.02562 0.0
H951 H 0.68016 0.69931 0.95325 0.0
C952 C 0.67793 0.73119 0.95003 0.0
H953 H 0.68864 0.79707 0.96119 0.0
H954 H 0.83083 0.81169 0.02854 0.0
H955 H 0.88324 0.87773 0.0072 0.0
H956 H 0.85501 0.88923 0.97493 0.0
H957 H 0.77408 0.83515 0.96389 0.0
C958 C 0.6887 0.76403 0.96427 0.0
C959 C 0.70503 0.75775 0.98404 0.0
C960 C 0.75258 0.78955 0.99021 0.0
C961 C 0.76913 0.7825 0.00868 0.0
C962 C 0.81657 0.81515 0.01458 0.0
C963 C 0.84703 0.85321 0.00248 0.0
C964 C 0.83112 0.85971 0.98432 0.0
C965 C 0.78452 0.82839 0.97817 0.0
H966 H 0.05578 0.19179 0.54934 0.0
C967 C 0.06039 0.22748 0.55062 0.0
H968 H 0.05479 0.28238 0.53611 0.0
H969 H 0.05567 0.22531 0.44841 0.0
H970 H 0.13585 0.29294 0.45132 0.0
H971 H 0.16972 0.32746 0.48391 0.0
H972 H 0.12322 0.29467 0.5138 0.0
C973 C 0.04932 0.24631 0.53522 0.0
C974 C 0.0314 0.22014 0.51619 0.0
C975 C 0.05946 0.23877 0.4989 0.0
C976 C 0.04018 0.21835 0.48014 0.0
C977 C 0.06847 0.23897 0.46307 0.0
C978 C 0.11469 0.27786 0.46452 0.0
C979 C 0.13374 0.29732 0.48286 0.0
C980 C 0.1066 0.27823 0.4999 0.0
H981 H 0.91764 0.18439 0.46811 0.0
C982 C 0.93178 0.17346 0.45584 0.0
H983 H 0.98464 0.15729 0.44694 0.0
H984 H 0.96735 0.17458 0.54635 0.0
H985 H 0.89003 0.10272 0.54363 0.0
H986 H 0.85994 0.06336 0.51138 0.0
H987 H 0.9069 0.09668 0.48153 0.0
C988 C 0.96856 0.16606 0.45913 0.0
C989 C -0.0071 0.17912 0.47875 0.0
C990 C 0.96675 0.1575 0.49621 0.0
C991 C 0.98531 0.17881 0.51492 0.0
C992 C 0.95627 0.15884 0.53186 0.0
C993 C 0.91154 0.11767 0.53049 0.0
C994 C 0.89451 0.09561 0.51233 0.0
C995 C 0.9216 0.11521 0.49533 0.0
H996 H 0.72546 0.23903 0.11879 0.0
C997 C 0.74493 0.22464 0.11096 0.0
H998 H 0.73938 0.17124 0.09106 0.0
H999 H 0.5232 0.059 0.12353 0.0
H1000 H 0.55464 0.01088 0.13735 0.0
H1001 H 0.63872 0.03301 0.13201 0.0
H1002 H 0.69195 0.10371 0.11288 0.0
C1003 C 0.72158 0.18816 0.09826 0.0
C1004 C 0.66932 0.1668 0.09601 0.0
C1005 C 0.63831 0.12417 0.10631 0.0
C1006 C 0.58978 0.11114 0.10917 0.0
C1007 C 0.56019 0.07016 0.12065 0.0
C1008 C 0.57783 0.04228 0.1287 0.0
C1009 C 0.62519 0.05476 0.12571 0.0
C1010 C 0.65534 0.09536 0.11474 0.0
H1011 H 0.48096 0.07344 0.09279 0.0
C1012 C 0.48431 0.1018 0.10251 0.0
H1013 H 0.53112 0.1654 0.11778 0.0
H1014 H 0.71758 0.24417 0.07184 0.0
H1015 H 0.6854 0.29012 0.05631 0.0
H1016 H 0.60086 0.26722 0.06091 0.0
H1017 H 0.5481 0.19843 0.08109 0.0
C1018 C 0.52757 0.13617 0.10857 0.0
C1019 C 0.57268 0.14049 0.10132 0.0
C1020 C 0.60242 0.17983 0.08904 0.0
C1021 C 0.65093 0.19302 0.08638 0.0
C1022 C 0.68046 0.23314 0.07446 0.0
C1023 C 0.66239 0.25957 0.06541 0.0
C1024 C 0.6148 0.24668 0.06801 0.0
C1025 C 0.58498 0.2073 0.07968 0.0
H1026 H 0.5708 0.52253 0.38109 0.0
C1027 C 0.59217 0.53267 0.3945 0.0
H1028 H 0.59926 0.51295 0.42339 0.0
H1029 H 0.38939 0.33501 0.3897 0.0
H1030 H 0.35989 0.39071 0.39291 0.0
H1031 H 0.41394 0.47473 0.40273 0.0
H1032 H 0.49788 0.50345 0.40948 0.0
C1033 C 0.57771 0.50286 0.41004 0.0
C1034 C 0.54319 0.45135 0.40695 0.0
C1035 C 0.49443 0.43526 0.40316 0.0
C1036 C 0.46339 0.3869 0.39754 0.0
C1037 C 0.41467 0.37153 0.39388 0.0
C1038 C 0.39725 0.4031 0.39572 0.0
C1039 C 0.42768 0.4504 0.40124 0.0
C1040 C 0.47576 0.46649 0.40497 0.0
H1041 H 0.44784 0.27281 0.41571 0.0
C1042 C 0.43593 0.26755 0.40043 0.0
H1043 H 0.43628 0.30106 0.37354 0.0
H1044 H 0.63453 0.47001 0.41471 0.0
H1045 H 0.66384 0.41462 0.41161 0.0
H1046 H 0.6109 0.33164 0.40036 0.0
H1047 H 0.52798 0.30352 0.39262 0.0
C1048 C 0.44953 0.30555 0.38859 0.0
C1049 C 0.48135 0.35498 0.39575 0.0
C1050 C 0.52996 0.37079 0.39999 0.0
C1051 C 0.56075 0.41889 0.40595 0.0
C1052 C 0.60927 0.43391 0.41008 0.0
C1053 C 0.62678 0.40247 0.40828 0.0
C1054 C 0.59694 0.35576 0.40203 0.0
C1055 C 0.54918 0.33998 0.39779 0.0
H1056 H 0.92835 0.46191 0.14754 0.0
C1057 C 0.94435 0.45365 0.13512 0.0
H1058 H 0.95996 0.46446 0.10478 0.0
H1059 H 0.77832 0.49053 0.09804 0.0
H1060 H 0.75352 0.4171 0.07973 0.0
H1061 H 0.80607 0.38228 0.0773 0.0
H1062 H 0.88367 0.42065 0.09311 0.0
C1063 C 0.94875 0.4758 0.11785 0.0
C1064 C 0.9231 0.50299 0.11533 0.0
C1065 C 0.87854 0.48095 0.10529 0.0
C1066 C 0.84829 0.5011 0.10659 0.0
C1067 C 0.80301 0.47717 0.09728 0.0
C1068 C 0.78823 0.43488 0.08678 0.0
C1069 C 0.81781 0.41526 0.08542 0.0
C1070 C 0.86236 0.43774 0.09458 0.0
H1071 H 0.83847 0.59081 0.09236 0.0
C1072 C 0.82212 0.58664 0.10679 0.0
H1073 H 0.81689 0.56084 0.13584 0.0
H1074 H 0.00899 0.55742 0.13355 0.0
H1075 H 0.03495 0.63229 0.15117 0.0
H1076 H 0.98255 0.66736 0.15347 0.0
H1077 H 0.90412 0.6281 0.13821 0.0
C1078 C 0.82993 0.56224 0.12093 0.0
C1079 C 0.86302 0.5435 0.11768 0.0
C1080 C 0.90885 0.56716 0.1266 0.0
C1081 C 0.93899 0.54693 0.12535 0.0
C1082 C 0.98456 0.57114 0.13436 0.0
C1083 C -7e-05 0.61415 0.1444 0.0
C1084 C 0.97045 0.63393 0.14568 0.0
C1085 C 0.92544 0.61092 0.13691 0.0
H1086 H 0.49117 0.10345 0.401 0.0
C1087 C 0.46433 0.07265 0.39282 0.0
H1088 H 0.44758 0.00879 0.37797 0.0
H1089 H 0.6638 0.09223 0.35341 0.0
H1090 H 0.62049 0.05511 0.32329 0.0
H1091 H 0.53254 0.0149 0.3223 0.0
H1092 H 0.48744 0.01065 0.3515 0.0
C1093 C 0.47434 0.03939 0.3862 0.0
C1094 C 0.52413 0.04835 0.38798 0.0
C1095 C 0.54968 0.05021 0.37073 0.0
C1096 C 0.6004 0.07456 0.37117 0.0
C1097 C 0.62529 0.07543 0.3538 0.0
C1098 C 0.60086 0.05404 0.33642 0.0
C1099 C 0.55136 0.03137 0.33587 0.0
C1100 C 0.52588 0.02941 0.35276 0.0
H1101 H 0.6952 0.09859 0.4111 0.0
C1102 C 0.70836 0.12493 0.39929 0.0
H1103 H 0.6918 0.15668 0.37584 0.0
H1104 H 0.48516 0.03183 0.42478 0.0
H1105 H 0.52731 0.06907 0.45536 0.0
H1106 H 0.61441 0.12463 0.45522 0.0
H1107 H 0.65993 0.14114 0.42505 0.0
C1108 C 0.67787 0.13037 0.38767 0.0
C1109 C 0.62525 0.09826 0.38867 0.0
C1110 C 0.59936 0.09266 0.40637 0.0
C1111 C 0.54879 0.06464 0.40617 0.0
C1112 C 0.52351 0.05525 0.42418 0.0
C1113 C 0.54722 0.07617 0.44174 0.0
C1114 C 0.59626 0.1072 0.44167 0.0
C1115 C 0.62216 0.11579 0.42422 0.0
H1116 H 0.47407 0.32028 0.12417 0.0
C1117 C 0.44225 0.30309 0.11497 0.0
H1118 H 0.39729 0.31426 0.0955 0.0
H1119 H 0.5253 0.51179 0.14975 0.0
H1120 H 0.46625 0.46742 0.17516 0.0
H1121 H 0.40149 0.38449 0.1691 0.0
H1122 H 0.39579 0.34521 0.13767 0.0
C1123 C 0.42853 0.33025 0.10501 0.0
C1124 C 0.45725 0.38315 0.10655 0.0
C1125 C 0.45876 0.40602 0.12462 0.0
C1126 C 0.49545 0.45398 0.12796 0.0
C1127 C 0.49786 0.47541 0.14647 0.0
C1128 C 0.46416 0.4504 0.16112 0.0
C1129 C 0.42772 0.40368 0.15772 0.0
C1130 C 0.42494 0.38149 0.13971 0.0
H1131 H 0.55698 0.57363 0.11518 0.0
C1132 C 0.58524 0.56586 0.1186 0.0
H1133 H 0.60478 0.51259 0.1214 0.0
H1134 H 0.45676 0.35267 0.06884 0.0
H1135 H 0.51172 0.39922 0.04251 0.0
H1136 H 0.575 0.48297 0.04821 0.0
H1137 H 0.58372 0.52067 0.08029 0.0
C1138 C 0.57639 0.52046 0.11844 0.0
C1139 C 0.52972 0.47881 0.11307 0.0
C1140 C 0.52421 0.45801 0.09415 0.0
C1141 C 0.48773 0.40995 0.09085 0.0
C1142 C 0.48398 0.38919 0.07205 0.0
C1143 C 0.5152 0.41551 0.05685 0.0
C1144 C 0.55086 0.46267 0.06006 0.0
C1145 C 0.5556 0.48382 0.07851 0.0
H1146 H 0.81584 0.50763 0.38028 0.0
C1147 C 0.80109 0.51627 0.39304 0.0
H1148 H 0.78769 0.50622 0.42377 0.0
H1149 H 0.82514 0.33493 0.38543 0.0
H1150 H 0.74596 0.30259 0.37137 0.0
H1151 H 0.69961 0.34368 0.37622 0.0
H1152 H 0.73266 0.41768 0.39503 0.0
C1153 C 0.79947 0.49608 0.41052 0.0
C1154 C 0.82099 0.46515 0.41219 0.0
C1155 C 0.80067 0.4214 0.40163 0.0
C1156 C 0.82692 0.39739 0.39923 0.0
C1157 C 0.80652 0.35449 0.388 0.0
C1158 C 0.76108 0.33552 0.3798 0.0
C1159 C 0.73502 0.35867 0.3825 0.0
C1160 C 0.75445 0.40118 0.39324 0.0
H1161 H 0.86966 0.34908 0.43037 0.0
C1162 C 0.89096 0.35482 0.41714 0.0
H1163 H 0.91764 0.39558 0.39108 0.0
H1164 H 0.86735 0.54549 0.43529 0.0
H1165 H 0.94463 0.57545 0.45105 0.0
H1166 H 0.98965 0.53266 0.44741 0.0
H1167 H 0.95773 0.45973 0.42785 0.0
C1168 C 0.89978 0.39127 0.40515 0.0
C1169 C 0.87275 0.41655 0.40797 0.0
C1170 C 0.8916 0.45839 0.4197 0.0
C1171 C 0.86557 0.48283 0.42184 0.0
C1172 C 0.88561 0.5254 0.43321 0.0
C1173 C 0.92989 0.54294 0.44235 0.0
C1174 C 0.95524 0.51884 0.44031 0.0
C1175 C 0.93653 0.47705 0.42909 0.0
H1176 H 0.18456 0.6892 0.58997 0.0
C1177 C 0.17223 0.69833 0.60334 0.0
H1178 H 0.12716 0.67154 0.62831 0.0
H1179 H -0.0046 0.46668 0.59086 0.0
H1180 H 0.94192 0.4992 0.59049 0.0
H1181 H 0.97116 0.58367 0.59932 0.0
H1182 H 0.05396 0.63616 0.60855 0.0
C1183 C 0.14169 0.66326 0.6154 0.0
C1184 C 0.12395 0.61206 0.61068 0.0
C1185 C 0.07528 0.58178 0.60555 0.0
C1186 C 0.05832 0.53303 0.60052 0.0
C1187 C 0.00988 0.5038 0.59504 0.0
C1188 C 0.97889 0.52206 0.5947 0.0
C1189 C -0.00464 0.56963 0.59966 0.0
C1190 C 0.04297 0.59935 0.60498 0.0
H1191 H 0.03338 0.43598 0.62162 0.0
C1192 C 0.04918 0.42892 0.6088 0.0
H1193 H 0.09084 0.45785 0.58315 0.0
H1194 H 0.21797 0.65894 0.62216 0.0
H1195 H 0.27084 0.62606 0.62303 0.0
H1196 H 0.24192 0.54204 0.61367 0.0
H1197 H 0.16004 0.49039 0.60346 0.0
C1198 C 0.07339 0.46403 0.5956 0.0
C1199 C 0.09003 0.51475 0.60076 0.0
C1200 C 0.13857 0.54486 0.60621 0.0
C1201 C 0.15544 0.59346 0.61136 0.0
C1202 C 0.20354 0.62215 0.61753 0.0
C1203 C 0.23429 0.60366 0.61822 0.0
C1204 C 0.21801 0.55636 0.61297 0.0
C1205 C 0.17079 0.5271 0.60708 0.0
H1206 H 0.41566 0.9706 0.8879 0.0
C1207 C 0.38955 0.93933 0.87976 0.0
H1208 H 0.37022 0.87032 0.86921 0.0
H1209 H 0.58741 0.91795 0.88006 0.0
H1210 H 0.60808 0.97597 0.85367 0.0
H1211 H 0.55032 -0.00062 0.84207 0.0
H1212 H 0.4714 0.96493 0.85685 0.0
C1213 C 0.39712 0.90248 0.87664 0.0
C1214 C 0.436 0.89863 0.88647 0.0
C1215 C 0.48218 0.92005 0.87804 0.0
C1216 C 0.51538 0.90641 0.88471 0.0
C1217 C 0.56081 0.92705 0.87559 0.0
C1218 C 0.57314 0.96041 0.86043 0.0
C1219 C 0.5406 0.9736 0.8539 0.0
C1220 C 0.49549 0.9536 0.86249 0.0
H1221 H 0.47854 0.78323 0.88963 0.0
C1222 C 0.51419 0.80263 0.896 0.0
H1223 H 0.56744 0.86883 0.90773 0.0
H1224 H 0.35335 0.85753 0.90804 0.0
H1225 H 0.33425 0.8028 0.93564 0.0
H1226 H 0.39228 0.77981 0.94738 0.0
H1227 H 0.46972 0.8113 0.93147 0.0
C1228 C 0.5307 0.84742 0.90275 0.0
C1229 C 0.50183 0.87104 0.89962 0.0
C1230 C 0.45757 0.85359 0.90943 0.0
C1231 C 0.42446 0.8672 0.90278 0.0
C1232 C 0.3798 0.84815 0.91246 0.0
C1233 C 0.36848 0.81688 0.92836 0.0
C1234 C 0.40113 0.80391 0.93496 0.0
C1235 C 0.44525 0.82197 0.92566 0.0
H1236 H 0.51027 0.54357 0.61461 0.0
C1237 C 0.52627 0.56884 0.6025 0.0
H1238 H 0.51695 0.58827 0.57383 0.0
H1239 H 0.31819 0.38449 0.60066 0.0
H1240 H 0.36478 0.34489 0.59652 0.0
H1241 H 0.45006 0.39112 0.5874 0.0
H1242 H 0.48921 0.47736 0.58242 0.0
C1243 C 0.50116 0.56289 0.58589 0.0
C1244 C 0.44847 0.53335 0.58665 0.0
C1245 C 0.42612 0.48314 0.58905 0.0
C1246 C 0.37708 0.45664 0.59418 0.0
C1247 C 0.35556 0.40647 0.59687 0.0
C1248 C 0.38183 0.38328 0.59447 0.0
C1249 C 0.42984 0.4093 0.58934 0.0
C1250 C 0.45193 0.4587 0.58663 0.0
H1251 H 0.26685 0.45112 0.57847 0.0
C1252 C 0.26314 0.44066 0.59391 0.0
H1253 H 0.29888 0.44121 0.62011 0.0
H1254 H 0.47961 0.62921 0.58094 0.0
H1255 H 0.43239 0.66801 0.58403 0.0
H1256 H 0.34689 0.62147 0.59268 0.0
H1257 H 0.30865 0.53617 0.59866 0.0
C1258 C 0.30209 0.45397 0.60503 0.0
C1259 C 0.35068 0.48053 0.59664 0.0
C1260 C 0.37207 0.53019 0.59276 0.0
C1261 C 0.42118 0.55676 0.58768 0.0
C1262 C 0.44234 0.60688 0.58467 0.0
C1263 C 0.41562 0.62975 0.58642 0.0
C1264 C 0.36756 0.60363 0.59133 0.0
C1265 C 0.34595 0.55452 0.59462 0.0
H1266 H 0.14975 0.71625 0.90446 0.0
C1267 C 0.16398 0.73021 0.88988 0.0
H1268 H 0.16776 0.71295 0.8601 0.0
H1269 H 0.10762 0.50883 0.90684 0.0
H1270 H 0.1848 0.55181 0.92307 0.0
H1271 H 0.23667 0.63892 0.91841 0.0
H1272 H 0.21155 0.68354 0.89768 0.0
C1273 C 0.15659 0.69975 0.87504 0.0
C1274 C 0.12616 0.64742 0.87791 0.0
C1275 C 0.1419 0.62209 0.88997 0.0
C1276 C 0.11267 0.57179 0.89222 0.0
C1277 C 0.12883 0.54706 0.90441 0.0
C1278 C 0.17298 0.57128 0.91384 0.0
C1279 C 0.20213 0.62032 0.91125 0.0
C1280 C 0.18707 0.64559 0.89941 0.0
H1281 H 0.08266 0.49942 0.85421 0.0
C1282 C 0.05916 0.47575 0.86569 0.0
H1283 H 0.02552 0.47245 0.89287 0.0
H1284 H 0.08336 0.68605 0.85531 0.0
H1285 H 0.00616 0.64247 0.83914 0.0
H1286 H 0.95696 0.5546 0.84225 0.0
H1287 H 0.9846 0.50984 0.8618 0.0
C1288 C 0.04527 0.49415 0.88026 0.0
C1289 C 0.06891 0.54692 0.88179 0.0
C1290 C 0.05238 0.57234 0.87037 0.0
C1291 C 0.08096 0.6228 0.86847 0.0
C1292 C 0.06339 0.64754 0.85708 0.0
C1293 C 0.01909 0.62298 0.84775 0.0
C1294 C 0.99137 0.5735 0.8495 0.0
C1295 C 0.00767 0.54826 0.86066 0.0
H1296 H 0.41634 0.92863 0.61729 0.0
C1297 C 0.39289 0.91435 0.60454 0.0
H1298 H 0.37862 0.8765 0.57767 0.0
H1299 H 0.58687 0.90184 0.60846 0.0
H1300 H 0.62186 0.98587 0.59987 0.0
H1301 H 0.5712 0.01847 0.58862 0.0
H1302 H 0.48513 0.96707 0.58588 0.0
C1303 C 0.40238 0.89136 0.5903 0.0
C1304 C 0.43387 0.87165 0.59475 0.0
C1305 C 0.48388 0.9021 0.59613 0.0
C1306 C 0.51295 0.88326 0.60253 0.0
C1307 C 0.56299 0.91434 0.60377 0.0
C1308 C 0.58356 0.96262 0.59884 0.0
C1309 C 0.55503 0.98098 0.59252 0.0
C1310 C 0.50573 0.95121 0.5911 0.0
H1311 H 0.51286 0.77473 0.58841 0.0
C1312 C 0.5297 0.7853 0.60285 0.0
H1313 H 0.54073 0.82786 0.62825 0.0
H1314 H 0.33851 0.803 0.59317 0.0
H1315 H 0.30357 0.71955 0.6022 0.0
H1316 H 0.35411 0.68749 0.61418 0.0
H1317 H 0.43969 0.7385 0.6169 0.0
C1318 C 0.52215 0.81484 0.61427 0.0
C1319 C 0.49172 0.83403 0.60738 0.0
C1320 C 0.44168 0.80341 0.60583 0.0
C1321 C 0.41268 0.82215 0.59927 0.0
C1322 C 0.36255 0.79091 0.59802 0.0
C1323 C 0.34188 0.74279 0.60321 0.0
C1324 C 0.37029 0.7247 0.60989 0.0
C1325 C 0.41955 0.75445 0.61128 0.0
H1326 H 0.51219 0.53986 0.88075 0.0
C1327 C 0.504 0.56866 0.88009 0.0
H1328 H 0.45076 0.58801 0.87756 0.0
H1329 H 0.28629 0.43203 0.83361 0.0
H1330 H 0.3307 0.47994 0.80543 0.0
H1331 H 0.41573 0.54171 0.80861 0.0
H1332 H 0.45667 0.55597 0.84019 0.0
C1333 C 0.45864 0.559 0.87842 0.0
C1334 C 0.41743 0.51075 0.87494 0.0
C1335 C 0.39472 0.5013 0.8563 0.0
C1336 C 0.34605 0.46536 0.85446 0.0
C1337 C 0.32338 0.45857 0.83588 0.0
C1338 C 0.34849 0.48585 0.81955 0.0
C1339 C 0.39635 0.52066 0.82134 0.0
C1340 C 0.41933 0.52861 0.8395 0.0
H1341 H 0.26054 0.44799 0.89586 0.0
C1342 C 0.2427 0.42273 0.8839 0.0
H1343 H 0.24923 0.38571 0.85956 0.0
H1344 H 0.45444 0.51347 0.91153 0.0
H1345 H 0.41334 0.45892 0.93873 0.0
H1346 H 0.33028 0.39279 0.93491 0.0
H1347 H 0.28746 0.38158 0.90397 0.0
C1348 C 0.26778 0.41213 0.87107 0.0
C1349 C 0.32081 0.43891 0.87134 0.0
C1350 C 0.34604 0.44282 0.88903 0.0
C1351 C 0.39437 0.47968 0.89098 0.0
C1352 C 0.41788 0.48547 0.90924 0.0
C1353 C 0.39474 0.45435 0.92491 0.0
C1354 C 0.34793 0.41716 0.92277 0.0
C1355 C 0.32366 0.4113 0.90505 0.0
loop_
_geom_bond_atom_site_label_1
_geom_bond_atom_site_label_2
_geom_bond_distance
_geom_bond_site_symmetry_2
_ccdc_geom_bond_type
O0 Zn1 1.953 . S
O0 C16 1.225 . S
Zn1 O0 1.953 . S
Zn1 O2 1.949 . S
Zn1 O8 1.919 . S
Zn1 O13 1.924 . S
O2 Zn1 1.949 . S
O2 Zn3 1.923 . S
O2 Zn4 1.950 . S
O2 Zn5 1.945 . S
Zn3 O2 1.923 . S
Zn3 O6 1.933 1_545 S
Zn3 O9 1.941 . S
Zn3 O10 1.965 . S
Zn4 O2 1.950 . S
Zn4 O11 1.938 . S
Zn4 O12 1.906 . S
Zn4 O22 1.953 . S
Zn5 O2 1.945 . S
Zn5 O7 1.932 . S
Zn5 O14 1.977 . S
Zn5 O15 1.910 . S
O6 Zn3 1.933 1_565 S
O6 C17 1.226 . S
O7 Zn5 1.932 . S
O7 C17 1.307 1_545 S
O8 Zn1 1.919 . S
O8 C19 1.253 . S
O9 Zn3 1.941 . S
O9 C19 1.283 . S
O10 Zn3 1.965 . S
O10 C18 1.303 . S
O11 Zn4 1.938 . S
O11 C18 1.247 . S
O12 Zn4 1.906 . S
O12 C20 1.304 . S
O13 Zn1 1.924 . S
O13 C21 1.311 . S
O14 Zn5 1.977 . S
O14 C20 1.272 . S
O15 Zn5 1.910 . S
O15 C21 1.231 . S
C16 O0 1.225 . S
C16 O22 1.298 . S
C17 O6 1.226 . S
C17 O7 1.307 1_565 S
C18 O10 1.303 . S
C18 O11 1.247 . S
C19 O8 1.253 . S
C19 O9 1.283 . S
C20 O12 1.304 . S
C20 O14 1.272 . S
C21 O13 1.311 . S
C21 O15 1.231 . S
O22 Zn4 1.953 . S
O22 C16 1.298 . S
O23 Zn24 1.953 . S
O23 C39 1.225 . S
Zn24 O23 1.953 . S
Zn24 O25 1.949 . S
Zn24 O31 1.919 . S
Zn24 O36 1.924 . S
O25 Zn24 1.949 . S
O25 Zn26 1.923 . S
O25 Zn27 1.950 . S
O25 Zn28 1.945 . S
Zn26 O25 1.923 . S
Zn26 O29 1.933 . S
Zn26 O32 1.941 . S
Zn26 O33 1.965 . S
Zn27 O25 1.950 . S
Zn27 O34 1.938 . S
Zn27 O35 1.906 . S
Zn27 O45 1.953 . S
Zn28 O25 1.945 . S
Zn28 O30 1.932 . S
Zn28 O37 1.977 . S
Zn28 O38 1.910 . S
O29 Zn26 1.933 . S
O29 C40 1.226 . S
O30 Zn28 1.932 . S
O30 C40 1.307 . S
O31 Zn24 1.919 . S
O31 C42 1.253 . S
O32 Zn26 1.941 . S
O32 C42 1.283 . S
O33 Zn26 1.965 . S
O33 C41 1.303 . S
O34 Zn27 1.938 . S
O34 C41 1.247 . S
O35 Zn27 1.906 . S
O35 C43 1.304 . S
O36 Zn24 1.924 . S
O36 C44 1.311 . S
O37 Zn28 1.977 . S
O37 C43 1.272 . S
O38 Zn28 1.910 . S
O38 C44 1.231 . S
C39 O23 1.225 . S
C39 O45 1.298 . S
C40 O29 1.226 . S
C40 O30 1.307 . S
C41 O33 1.303 . S
C41 O34 1.247 . S
C42 O31 1.253 . S
C42 O32 1.283 . S
C43 O35 1.304 . S
C43 O37 1.272 . S
C44 O36 1.311 . S
C44 O38 1.231 . S
O45 Zn27 1.953 . S
O45 C39 1.298 . S
O46 Zn47 1.953 . S
O46 C62 1.225 . S
Zn47 O46 1.953 . S
Zn47 O48 1.949 . S
Zn47 O54 1.919 . S
Zn47 O59 1.924 . S
O48 Zn47 1.949 . S
O48 Zn49 1.923 . S
O48 Zn50 1.950 . S
O48 Zn51 1.945 . S
Zn49 O48 1.923 . S
Zn49 O52 1.933 1_655 S
Zn49 O55 1.941 . S
Zn49 O56 1.965 . S
Zn50 O48 1.950 . S
Zn50 O57 1.938 . S
Zn50 O58 1.906 . S
Zn50 O68 1.953 . S
Zn51 O48 1.945 . S
Zn51 O53 1.932 . S
Zn51 O60 1.977 . S
Zn51 O61 1.910 . S
O52 Zn49 1.933 1_455 S
O52 C63 1.226 . S
O53 Zn51 1.932 . S
O53 C63 1.307 1_655 S
O54 Zn47 1.919 . S
O54 C65 1.253 . S
O55 Zn49 1.941 . S
O55 C65 1.283 . S
O56 Zn49 1.965 . S
O56 C64 1.303 . S
O57 Zn50 1.938 . S
O57 C64 1.247 . S
O58 Zn50 1.906 . S
O58 C66 1.304 . S
O59 Zn47 1.924 . S
O59 C67 1.311 . S
O60 Zn51 1.977 . S
O60 C66 1.272 . S
O61 Zn51 1.910 . S
O61 C67 1.231 . S
C62 O46 1.225 . S
C62 O68 1.298 . S
C63 O52 1.226 . S
C63 O53 1.307 1_455 S
C64 O56 1.303 . S
C64 O57 1.247 . S
C65 O54 1.253 . S
C65 O55 1.283 . S
C66 O58 1.304 . S
C66 O60 1.272 . S
C67 O59 1.311 . S
C67 O61 1.231 . S
O68 Zn50 1.953 . S
O68 C62 1.298 . S
O69 Zn70 1.953 . S
O69 C85 1.225 . S
Zn70 O69 1.953 . S
Zn70 O71 1.949 . S
Zn70 O77 1.919 . S
Zn70 O82 1.924 . S
O71 Zn70 1.949 . S
O71 Zn72 1.923 . S
O71 Zn73 1.950 . S
O71 Zn74 1.945 . S
Zn72 O71 1.923 . S
Zn72 O75 1.933 1_545 S
Zn72 O78 1.941 . S
Zn72 O79 1.965 . S
Zn73 O71 1.950 . S
Zn73 O80 1.938 . S
Zn73 O81 1.906 . S
Zn73 O91 1.953 . S
Zn74 O71 1.945 . S
Zn74 O76 1.932 . S
Zn74 O83 1.977 . S
Zn74 O84 1.910 . S
O75 Zn72 1.933 1_565 S
O75 C86 1.226 . S
O76 Zn74 1.932 . S
O76 C86 1.307 1_545 S
O77 Zn70 1.919 . S
O77 C88 1.253 . S
O78 Zn72 1.941 . S
O78 C88 1.283 . S
O79 Zn72 1.965 . S
O79 C87 1.303 . S
O80 Zn73 1.938 . S
O80 C87 1.247 . S
O81 Zn73 1.906 . S
O81 C89 1.304 . S
O82 Zn70 1.924 . S
O82 C90 1.311 . S
O83 Zn74 1.977 . S
O83 C89 1.272 . S
O84 Zn74 1.910 . S
O84 C90 1.231 . S
C85 O69 1.225 . S
C85 O91 1.298 . S
C86 O75 1.226 . S
C86 O76 1.307 1_565 S
C87 O79 1.303 . S
C87 O80 1.247 . S
C88 O77 1.253 . S
C88 O78 1.283 . S
C89 O81 1.304 . S
C89 O83 1.272 . S
C90 O82 1.311 . S
C90 O84 1.231 . S
O91 Zn73 1.953 . S
O91 C85 1.298 . S
O92 Zn93 1.953 . S
O92 C108 1.225 . S
Zn93 O92 1.953 . S
Zn93 O94 1.949 . S
Zn93 O100 1.919 . S
Zn93 O105 1.924 . S
O94 Zn93 1.949 . S
O94 Zn95 1.923 . S
O94 Zn96 1.950 . S
O94 Zn97 1.945 . S
Zn95 O94 1.923 . S
Zn95 O98 1.933 . S
Zn95 O101 1.941 . S
Zn95 O102 1.965 . S
Zn96 O94 1.950 . S
Zn96 O103 1.938 . S
Zn96 O104 1.906 . S
Zn96 O114 1.953 . S
Zn97 O94 1.945 . S
Zn97 O99 1.932 . S
Zn97 O106 1.977 . S
Zn97 O107 1.910 . S
O98 Zn95 1.933 . S
O98 C109 1.226 . S
O99 Zn97 1.932 . S
O99 C109 1.307 . S
O100 Zn93 1.919 . S
O100 C111 1.253 . S
O101 Zn95 1.941 . S
O101 C111 1.283 . S
O102 Zn95 1.965 . S
O102 C110 1.303 . S
O103 Zn96 1.938 . S
O103 C110 1.247 . S
O104 Zn96 1.906 . S
O104 C112 1.304 . S
O105 Zn93 1.924 . S
O105 C113 1.311 . S
O106 Zn97 1.977 . S
O106 C112 1.272 . S
O107 Zn97 1.910 . S
O107 C113 1.231 . S
C108 O92 1.225 . S
C108 O114 1.298 . S
C109 O98 1.226 . S
C109 O99 1.307 . S
C110 O102 1.303 . S
C110 O103 1.247 . S
C111 O100 1.253 . S
C111 O101 1.283 . S
C112 O104 1.304 . S
C112 O106 1.272 . S
C113 O105 1.311 . S
C113 O107 1.231 . S
O114 Zn96 1.953 . S
O114 C108 1.298 . S
O115 Zn116 1.953 . S
O115 C131 1.225 . S
Zn116 O115 1.953 . S
Zn116 O117 1.949 . S
Zn116 O123 1.919 . S
Zn116 O128 1.924 . S
O117 Zn116 1.949 . S
O117 Zn118 1.923 . S
O117 Zn119 1.950 . S
O117 Zn120 1.945 . S
Zn118 O117 1.923 . S
Zn118 O121 1.933 1_655 S
Zn118 O124 1.941 . S
Zn118 O125 1.965 . S
Zn119 O117 1.950 . S
Zn119 O126 1.938 . S
Zn119 O127 1.906 . S
Zn119 O137 1.953 . S
Zn120 O117 1.945 . S
Zn120 O122 1.932 . S
Zn120 O129 1.977 . S
Zn120 O130 1.910 . S
O121 Zn118 1.933 1_455 S
O121 C132 1.226 . S
O122 Zn120 1.932 . S
O122 C132 1.307 1_655 S
O123 Zn116 1.919 . S
O123 C134 1.253 . S
O124 Zn118 1.941 . S
O124 C134 1.283 . S
O125 Zn118 1.965 . S
O125 C133 1.303 . S
O126 Zn119 1.938 . S
O126 C133 1.247 . S
O127 Zn119 1.906 . S
O127 C135 1.304 . S
O128 Zn116 1.924 . S
O128 C136 1.311 . S
O129 Zn120 1.977 . S
O129 C135 1.272 . S
O130 Zn120 1.910 . S
O130 C136 1.231 . S
C131 O115 1.225 . S
C131 O137 1.298 . S
C132 O121 1.226 . S
C132 O122 1.307 1_455 S
C133 O125 1.303 . S
C133 O126 1.247 . S
C134 O123 1.253 . S
C134 O124 1.283 . S
C135 O127 1.304 . S
C135 O129 1.272 . S
C136 O128 1.311 . S
C136 O130 1.231 . S
O137 Zn119 1.953 . S
O137 C131 1.298 . S
O138 Zn139 1.953 . S
O138 C154 1.225 . S
Zn139 O138 1.953 . S
Zn139 O140 1.949 . S
Zn139 O146 1.919 . S
Zn139 O151 1.924 . S
O140 Zn139 1.949 . S
O140 Zn141 1.923 . S
O140 Zn142 1.950 . S
O140 Zn143 1.945 . S
Zn141 O140 1.923 . S
Zn141 O144 1.933 1_455 S
Zn141 O147 1.941 . S
Zn141 O148 1.965 . S
Zn142 O140 1.950 . S
Zn142 O149 1.938 . S
Zn142 O150 1.906 . S
Zn142 O160 1.953 . S
Zn143 O140 1.945 . S
Zn143 O145 1.932 . S
Zn143 O152 1.977 . S
Zn143 O153 1.910 . S
O144 Zn141 1.933 1_655 S
O144 C155 1.226 . S
O145 Zn143 1.932 . S
O145 C155 1.307 1_455 S
O146 Zn139 1.919 . S
O146 C157 1.253 . S
O147 Zn141 1.941 . S
O147 C157 1.283 . S
O148 Zn141 1.965 . S
O148 C156 1.303 . S
O149 Zn142 1.938 . S
O149 C156 1.247 . S
O150 Zn142 1.906 . S
O150 C158 1.304 . S
O151 Zn139 1.924 . S
O151 C159 1.311 . S
O152 Zn143 1.977 . S
O152 C158 1.272 . S
O153 Zn143 1.910 . S
O153 C159 1.231 . S
C154 O138 1.225 . S
C154 O160 1.298 . S
C155 O144 1.226 . S
C155 O145 1.307 1_655 S
C156 O148 1.303 . S
C156 O149 1.247 . S
C157 O146 1.253 . S
C157 O147 1.283 . S
C158 O150 1.304 . S
C158 O152 1.272 . S
C159 O151 1.311 . S
C159 O153 1.231 . S
O160 Zn142 1.953 . S
O160 C154 1.298 . S
O161 Zn162 1.953 . S
O161 C177 1.225 . S
Zn162 O161 1.953 . S
Zn162 O163 1.949 . S
Zn162 O169 1.919 . S
Zn162 O174 1.924 . S
O163 Zn162 1.949 . S
O163 Zn164 1.923 . S
O163 Zn165 1.950 . S
O163 Zn166 1.945 . S
Zn164 O163 1.923 . S
Zn164 O167 1.933 1_565 S
Zn164 O170 1.941 . S
Zn164 O171 1.965 . S
Zn165 O163 1.950 . S
Zn165 O172 1.938 . S
Zn165 O173 1.906 . S
Zn165 O183 1.953 . S
Zn166 O163 1.945 . S
Zn166 O168 1.932 . S
Zn166 O175 1.977 . S
Zn166 O176 1.910 . S
O167 Zn164 1.933 1_545 S
O167 C178 1.226 . S
O168 Zn166 1.932 . S
O168 C178 1.307 1_565 S
O169 Zn162 1.919 . S
O169 C180 1.253 . S
O170 Zn164 1.941 . S
O170 C180 1.283 . S
O171 Zn164 1.965 . S
O171 C179 1.303 . S
O172 Zn165 1.938 . S
O172 C179 1.247 . S
O173 Zn165 1.906 . S
O173 C181 1.304 . S
O174 Zn162 1.924 . S
O174 C182 1.311 . S
O175 Zn166 1.977 . S
O175 C181 1.272 . S
O176 Zn166 1.910 . S
O176 C182 1.231 . S
C177 O161 1.225 . S
C177 O183 1.298 . S
C178 O167 1.226 . S
C178 O168 1.307 1_545 S
C179 O171 1.303 . S
C179 O172 1.247 . S
C180 O169 1.253 . S
C180 O170 1.283 . S
C181 O173 1.304 . S
C181 O175 1.272 . S
C182 O174 1.311 . S
C182 O176 1.231 . S
O183 Zn165 1.953 . S
O183 C177 1.298 . S
O184 Zn185 1.953 . S
O184 C200 1.225 . S
Zn185 O184 1.953 . S
Zn185 O186 1.949 . S
Zn185 O192 1.919 . S
Zn185 O197 1.924 . S
O186 Zn185 1.949 . S
O186 Zn187 1.923 . S
O186 Zn188 1.950 . S
O186 Zn189 1.945 . S
Zn187 O186 1.923 . S
Zn187 O190 1.933 . S
Zn187 O193 1.941 . S
Zn187 O194 1.965 . S
Zn188 O186 1.950 . S
Zn188 O195 1.938 . S
Zn188 O196 1.906 . S
Zn188 O206 1.953 . S
Zn189 O186 1.945 . S
Zn189 O191 1.932 . S
Zn189 O198 1.977 . S
Zn189 O199 1.910 . S
O190 Zn187 1.933 . S
O190 C201 1.226 . S
O191 Zn189 1.932 . S
O191 C201 1.307 . S
O192 Zn185 1.919 . S
O192 C203 1.253 . S
O193 Zn187 1.941 . S
O193 C203 1.283 . S
O194 Zn187 1.965 . S
O194 C202 1.303 . S
O195 Zn188 1.938 . S
O195 C202 1.247 . S
O196 Zn188 1.906 . S
O196 C204 1.304 . S
O197 Zn185 1.924 . S
O197 C205 1.311 . S
O198 Zn189 1.977 . S
O198 C204 1.272 . S
O199 Zn189 1.910 . S
O199 C205 1.231 . S
C200 O184 1.225 . S
C200 O206 1.298 . S
C201 O190 1.226 . S
C201 O191 1.307 . S
C202 O194 1.303 . S
C202 O195 1.247 . S
C203 O192 1.253 . S
C203 O193 1.283 . S
C204 O196 1.304 . S
C204 O198 1.272 . S
C205 O197 1.311 . S
C205 O199 1.231 . S
O206 Zn188 1.953 . S
O206 C200 1.298 . S
O207 Zn208 1.953 . S
O207 C223 1.225 . S
Zn208 O207 1.953 . S
Zn208 O209 1.949 . S
Zn208 O215 1.919 . S
Zn208 O220 1.924 . S
O209 Zn208 1.949 . S
O209 Zn210 1.923 . S
O209 Zn211 1.950 . S
O209 Zn212 1.945 . S
Zn210 O209 1.923 . S
Zn210 O213 1.933 1_455 S
Zn210 O216 1.941 . S
Zn210 O217 1.965 . S
Zn211 O209 1.950 . S
Zn211 O218 1.938 . S
Zn211 O219 1.906 . S
Zn211 O229 1.953 . S
Zn212 O209 1.945 . S
Zn212 O214 1.932 . S
Zn212 O221 1.977 . S
Zn212 O222 1.910 . S
O213 Zn210 1.933 1_655 S
O213 C224 1.226 . S
O214 Zn212 1.932 . S
O214 C224 1.307 1_455 S
O215 Zn208 1.919 . S
O215 C226 1.253 . S
O216 Zn210 1.941 . S
O216 C226 1.283 . S
O217 Zn210 1.965 . S
O217 C225 1.303 . S
O218 Zn211 1.938 . S
O218 C225 1.247 . S
O219 Zn211 1.906 . S
O219 C227 1.304 . S
O220 Zn208 1.924 . S
O220 C228 1.311 . S
O221 Zn212 1.977 . S
O221 C227 1.272 . S
O222 Zn212 1.910 . S
O222 C228 1.231 . S
C223 O207 1.225 . S
C223 O229 1.298 . S
C224 O213 1.226 . S
C224 O214 1.307 1_655 S
C225 O217 1.303 . S
C225 O218 1.247 . S
C226 O215 1.253 . S
C226 O216 1.283 . S
C227 O219 1.304 . S
C227 O221 1.272 . S
C228 O220 1.311 . S
C228 O222 1.231 . S
O229 Zn211 1.953 . S
O229 C223 1.298 . S
O230 Zn231 1.953 . S
O230 C246 1.225 . S
Zn231 O230 1.953 . S
Zn231 O232 1.949 . S
Zn231 O238 1.919 . S
Zn231 O243 1.924 . S
O232 Zn231 1.949 . S
O232 Zn233 1.923 . S
O232 Zn234 1.950 . S
O232 Zn235 1.945 . S
Zn233 O232 1.923 . S
Zn233 O236 1.933 1_565 S
Zn233 O239 1.941 . S
Zn233 O240 1.965 . S
Zn234 O232 1.950 . S
Zn234 O241 1.938 . S
Zn234 O242 1.906 . S
Zn234 O252 1.953 . S
Zn235 O232 1.945 . S
Zn235 O237 1.932 . S
Zn235 O244 1.977 . S
Zn235 O245 1.910 . S
O236 Zn233 1.933 1_545 S
O236 C247 1.226 . S
O237 Zn235 1.932 . S
O237 C247 1.307 1_565 S
O238 Zn231 1.919 . S
O238 C249 1.253 . S
O239 Zn233 1.941 . S
O239 C249 1.283 . S
O240 Zn233 1.965 . S
O240 C248 1.303 . S
O241 Zn234 1.938 . S
O241 C248 1.247 . S
O242 Zn234 1.906 . S
O242 C250 1.304 . S
O243 Zn231 1.924 . S
O243 C251 1.311 . S
O244 Zn235 1.977 . S
O244 C250 1.272 . S
O245 Zn235 1.910 . S
O245 C251 1.231 . S
C246 O230 1.225 . S
C246 O252 1.298 . S
C247 O236 1.226 . S
C247 O237 1.307 1_545 S
C248 O240 1.303 . S
C248 O241 1.247 . S
C249 O238 1.253 . S
C249 O239 1.283 . S
C250 O242 1.304 . S
C250 O244 1.272 . S
C251 O243 1.311 . S
C251 O245 1.231 . S
O252 Zn234 1.953 . S
O252 C246 1.298 . S
O253 Zn254 1.953 . S
O253 C269 1.225 . S
Zn254 O253 1.953 . S
Zn254 O255 1.949 . S
Zn254 O261 1.919 . S
Zn254 O266 1.924 . S
O255 Zn254 1.949 . S
O255 Zn256 1.923 . S
O255 Zn257 1.950 . S
O255 Zn258 1.945 . S
Zn256 O255 1.923 . S
Zn256 O259 1.933 . S
Zn256 O262 1.941 . S
Zn256 O263 1.965 . S
Zn257 O255 1.950 . S
Zn257 O264 1.938 . S
Zn257 O265 1.906 . S
Zn257 O275 1.953 . S
Zn258 O255 1.945 . S
Zn258 O260 1.932 . S
Zn258 O267 1.977 . S
Zn258 O268 1.910 . S
O259 Zn256 1.933 . S
O259 C270 1.226 . S
O260 Zn258 1.932 . S
O260 C270 1.307 . S
O261 Zn254 1.919 . S
O261 C272 1.253 . S
O262 Zn256 1.941 . S
O262 C272 1.283 . S
O263 Zn256 1.965 . S
O263 C271 1.303 . S
O264 Zn257 1.938 . S
O264 C271 1.247 . S
O265 Zn257 1.906 . S
O265 C273 1.304 . S
O266 Zn254 1.924 . S
O266 C274 1.311 . S
O267 Zn258 1.977 . S
O267 C273 1.272 . S
O268 Zn258 1.910 . S
O268 C274 1.231 . S
C269 O253 1.225 . S
C269 O275 1.298 . S
C270 O259 1.226 . S
C270 O260 1.307 . S
C271 O263 1.303 . S
C271 O264 1.247 . S
C272 O261 1.253 . S
C272 O262 1.283 . S
C273 O265 1.304 . S
C273 O267 1.272 . S
C274 O266 1.311 . S
C274 O268 1.231 . S
O275 Zn257 1.953 . S
O275 C269 1.298 . S
H276 C277 0.951 . S
C277 H276 0.951 . S
C277 C283 1.265 . S
H278 C283 0.950 . S
H279 C287 0.949 . S
H280 C288 0.950 . S
H281 C289 0.951 . S
H282 C290 0.951 . S
C283 C277 1.265 . S
C283 H278 0.950 . S
C283 C284 1.478 . S
C284 C283 1.478 . S
C284 C285 1.397 . S
C284 C301 1.394 . S
C285 C284 1.397 . S
C285 C286 1.438 . S
C285 C290 1.429 . S
C286 C285 1.438 . S
C286 C287 1.428 . S
C286 C299 1.394 . S
C287 H279 0.949 . S
C287 C286 1.428 . S
C287 C288 1.345 . S
C288 H280 0.950 . S
C288 C287 1.345 . S
C288 C289 1.424 . S
C289 H281 0.951 . S
C289 C288 1.424 . S
C289 C290 1.347 . S
C290 H282 0.951 . S
C290 C285 1.429 . S
C290 C289 1.347 . S
H291 C292 0.951 . S
C292 H291 0.951 . S
C292 C298 1.265 . S
H293 C298 0.950 . S
H294 C302 0.949 . S
H295 C303 0.950 . S
H296 C304 0.951 . S
H297 C305 0.951 . S
C298 C292 1.265 . S
C298 H293 0.950 . S
C298 C299 1.478 . S
C299 C286 1.394 . S
C299 C298 1.478 . S
C299 C300 1.397 . S
C300 C299 1.397 . S
C300 C301 1.438 . S
C300 C305 1.429 . S
C301 C284 1.394 . S
C301 C300 1.438 . S
C301 C302 1.428 . S
C302 H294 0.949 . S
C302 C301 1.428 . S
C302 C303 1.345 . S
C303 H295 0.950 . S
C303 C302 1.345 . S
C303 C304 1.424 . S
C304 H296 0.951 . S
C304 C303 1.424 . S
C304 C305 1.347 . S
C305 H297 0.951 . S
C305 C300 1.429 . S
C305 C304 1.347 . S
H306 C307 0.951 . S
C307 H306 0.951 . S
C307 C313 1.265 . S
H308 C313 0.950 . S
H309 C317 0.949 1_655 S
H310 C318 0.950 . S
H311 C319 0.951 . S
H312 C320 0.951 . S
C313 C307 1.265 . S
C313 H308 0.950 . S
C313 C314 1.478 . S
C314 C313 1.478 . S
C314 C315 1.397 . S
C314 C331 1.394 . S
C315 C314 1.397 . S
C315 C316 1.438 . S
C315 C320 1.429 . S
C316 C315 1.438 . S
C316 C317 1.428 . S
C316 C329 1.394 . S
C317 H309 0.949 1_455 S
C317 C316 1.428 . S
C317 C318 1.345 . S
C318 H310 0.950 . S
C318 C317 1.345 . S
C318 C319 1.424 . S
C319 H311 0.951 . S
C319 C318 1.424 . S
C319 C320 1.347 . S
C320 H312 0.951 . S
C320 C315 1.429 . S
C320 C319 1.347 . S
H321 C322 0.951 . S
C322 H321 0.951 . S
C322 C328 1.265 . S
H323 C328 0.950 . S
H324 C332 0.949 . S
H325 C333 0.950 . S
H326 C334 0.951 . S
H327 C335 0.951 . S
C328 C322 1.265 . S
C328 H323 0.950 . S
C328 C329 1.478 1_655 S
C329 C316 1.394 . S
C329 C328 1.478 1_455 S
C329 C330 1.397 . S
C330 C329 1.397 . S
C330 C331 1.438 . S
C330 C335 1.429 . S
C331 C314 1.394 . S
C331 C330 1.438 . S
C331 C332 1.428 . S
C332 H324 0.949 . S
C332 C331 1.428 . S
C332 C333 1.345 . S
C333 H325 0.950 . S
C333 C332 1.345 . S
C333 C334 1.424 . S
C334 H326 0.951 . S
C334 C333 1.424 . S
C334 C335 1.347 . S
C335 H327 0.951 . S
C335 C330 1.429 . S
C335 C334 1.347 . S
H336 C337 0.951 . S
C337 H336 0.951 . S
C337 C343 1.265 . S
H338 C343 0.950 . S
H339 C347 0.949 . S
H340 C348 0.950 . S
H341 C349 0.951 . S
H342 C350 0.951 1_545 S
C343 C337 1.265 . S
C343 H338 0.950 . S
C343 C344 1.478 1_545 S
C344 C343 1.478 1_565 S
C344 C345 1.397 . S
C344 C361 1.394 . S
C345 C344 1.397 . S
C345 C346 1.438 . S
C345 C350 1.429 . S
C346 C345 1.438 . S
C346 C347 1.428 . S
C346 C359 1.394 . S
C347 H339 0.949 . S
C347 C346 1.428 . S
C347 C348 1.345 . S
C348 H340 0.950 . S
C348 C347 1.345 . S
C348 C349 1.424 . S
C349 H341 0.951 . S
C349 C348 1.424 . S
C349 C350 1.347 . S
C350 H342 0.951 1_565 S
C350 C345 1.429 . S
C350 C349 1.347 . S
H351 C352 0.951 . S
C352 H351 0.951 . S
C352 C358 1.265 . S
H353 C358 0.950 . S
H354 C362 0.949 1_545 S
H355 C363 0.950 . S
H356 C364 0.951 . S
H357 C365 0.951 . S
C358 C352 1.265 . S
C358 H353 0.950 . S
C358 C359 1.478 . S
C359 C346 1.394 . S
C359 C358 1.478 . S
C359 C360 1.397 . S
C360 C359 1.397 . S
C360 C361 1.438 . S
C360 C365 1.429 . S
C361 C344 1.394 . S
C361 C360 1.438 . S
C361 C362 1.428 . S
C362 H354 0.949 1_565 S
C362 C361 1.428 . S
C362 C363 1.345 . S
C363 H355 0.950 . S
C363 C362 1.345 . S
C363 C364 1.424 . S
C364 H356 0.951 . S
C364 C363 1.424 . S
C364 C365 1.347 . S
C365 H357 0.951 . S
C365 C360 1.429 . S
C365 C364 1.347 . S
H366 C367 0.951 . S
C367 H366 0.951 . S
C367 C373 1.265 . S
H368 C373 0.950 . S
H369 C377 0.949 . S
H370 C378 0.950 . S
H371 C379 0.951 . S
H372 C380 0.951 . S
C373 C367 1.265 . S
C373 H368 0.950 . S
C373 C374 1.478 . S
C374 C373 1.478 . S
C374 C375 1.397 . S
C374 C391 1.394 . S
C375 C374 1.397 . S
C375 C376 1.438 . S
C375 C380 1.429 . S
C376 C375 1.438 . S
C376 C377 1.428 . S
C376 C389 1.394 . S
C377 H369 0.949 . S
C377 C376 1.428 . S
C377 C378 1.345 . S
C378 H370 0.950 . S
C378 C377 1.345 . S
C378 C379 1.424 . S
C379 H371 0.951 . S
C379 C378 1.424 . S
C379 C380 1.347 . S
C380 H372 0.951 . S
C380 C375 1.429 . S
C380 C379 1.347 . S
H381 C382 0.951 . S
C382 H381 0.951 . S
C382 C388 1.265 . S
H383 C388 0.950 . S
H384 C392 0.949 . S
H385 C393 0.950 . S
H386 C394 0.951 . S
H387 C395 0.951 . S
C388 C382 1.265 . S
C388 H383 0.950 . S
C388 C389 1.478 . S
C389 C376 1.394 . S
C389 C388 1.478 . S
C389 C390 1.397 . S
C390 C389 1.397 . S
C390 C391 1.438 . S
C390 C395 1.429 . S
C391 C374 1.394 . S
C391 C390 1.438 . S
C391 C392 1.428 . S
C392 H384 0.949 . S
C392 C391 1.428 . S
C392 C393 1.345 . S
C393 H385 0.950 . S
C393 C392 1.345 . S
C393 C394 1.424 . S
C394 H386 0.951 . S
C394 C393 1.424 . S
C394 C395 1.347 . S
C395 H387 0.951 . S
C395 C390 1.429 . S
C395 C394 1.347 . S
H396 C397 0.951 . S
C397 H396 0.951 . S
C397 C403 1.265 . S
H398 C403 0.950 . S
H399 C407 0.949 1_655 S
H400 C408 0.950 . S
H401 C409 0.951 . S
H402 C410 0.951 . S
C403 C397 1.265 . S
C403 H398 0.950 . S
C403 C404 1.478 . S
C404 C403 1.478 . S
C404 C405 1.397 . S
C404 C421 1.394 . S
C405 C404 1.397 . S
C405 C406 1.438 . S
C405 C410 1.429 . S
C406 C405 1.438 . S
C406 C407 1.428 . S
C406 C419 1.394 . S
C407 H399 0.949 1_455 S
C407 C406 1.428 . S
C407 C408 1.345 . S
C408 H400 0.950 . S
C408 C407 1.345 . S
C408 C409 1.424 . S
C409 H401 0.951 . S
C409 C408 1.424 . S
C409 C410 1.347 . S
C410 H402 0.951 . S
C410 C405 1.429 . S
C410 C409 1.347 . S
H411 C412 0.951 . S
C412 H411 0.951 . S
C412 C418 1.265 . S
H413 C418 0.950 . S
H414 C422 0.949 . S
H415 C423 0.950 . S
H416 C424 0.951 . S
H417 C425 0.951 . S
C418 C412 1.265 . S
C418 H413 0.950 . S
C418 C419 1.478 1_655 S
C419 C406 1.394 . S
C419 C418 1.478 1_455 S
C419 C420 1.397 . S
C420 C419 1.397 . S
C420 C421 1.438 . S
C420 C425 1.429 . S
C421 C404 1.394 . S
C421 C420 1.438 . S
C421 C422 1.428 . S
C422 H414 0.949 . S
C422 C421 1.428 . S
C422 C423 1.345 . S
C423 H415 0.950 . S
C423 C422 1.345 . S
C423 C424 1.424 . S
C424 H416 0.951 . S
C424 C423 1.424 . S
C424 C425 1.347 . S
C425 H417 0.951 . S
C425 C420 1.429 . S
C425 C424 1.347 . S
H426 C427 0.951 . S
C427 H426 0.951 . S
C427 C433 1.265 . S
H428 C433 0.950 . S
H429 C437 0.949 1_545 S
H430 C438 0.950 . S
H431 C439 0.951 . S
H432 C440 0.951 . S
C433 C427 1.265 . S
C433 H428 0.950 . S
C433 C434 1.478 . S
C434 C433 1.478 . S
C434 C435 1.397 . S
C434 C451 1.394 . S
C435 C434 1.397 . S
C435 C436 1.438 . S
C435 C440 1.429 . S
C436 C435 1.438 . S
C436 C437 1.428 . S
C436 C449 1.394 . S
C437 H429 0.949 1_565 S
C437 C436 1.428 . S
C437 C438 1.345 . S
C438 H430 0.950 . S
C438 C437 1.345 . S
C438 C439 1.424 . S
C439 H431 0.951 . S
C439 C438 1.424 . S
C439 C440 1.347 . S
C440 H432 0.951 . S
C440 C435 1.429 . S
C440 C439 1.347 . S
H441 C442 0.951 . S
C442 H441 0.951 . S
C442 C448 1.265 . S
H443 C448 0.950 . S
H444 C452 0.949 . S
H445 C453 0.950 . S
H446 C454 0.951 . S
H447 C455 0.951 1_545 S
C448 C442 1.265 . S
C448 H443 0.950 . S
C448 C449 1.478 1_545 S
C449 C436 1.394 . S
C449 C448 1.478 1_565 S
C449 C450 1.397 . S
C450 C449 1.397 . S
C450 C451 1.438 . S
C450 C455 1.429 . S
C451 C434 1.394 . S
C451 C450 1.438 . S
C451 C452 1.428 . S
C452 H444 0.949 . S
C452 C451 1.428 . S
C452 C453 1.345 . S
C453 H445 0.950 . S
C453 C452 1.345 . S
C453 C454 1.424 . S
C454 H446 0.951 . S
C454 C453 1.424 . S
C454 C455 1.347 . S
C455 H447 0.951 1_565 S
C455 C450 1.429 . S
C455 C454 1.347 . S
H456 C457 0.951 . S
C457 H456 0.951 . S
C457 C463 1.265 . S
H458 C463 0.950 . S
H459 C467 0.949 . S
H460 C468 0.950 . S
H461 C469 0.951 . S
H462 C470 0.951 . S
C463 C457 1.265 . S
C463 H458 0.950 . S
C463 C464 1.478 . S
C464 C463 1.478 . S
C464 C465 1.397 . S
C464 C481 1.394 . S
C465 C464 1.397 . S
C465 C466 1.438 . S
C465 C470 1.429 . S
C466 C465 1.438 . S
C466 C467 1.428 . S
C466 C479 1.394 . S
C467 H459 0.949 . S
C467 C466 1.428 . S
C467 C468 1.345 . S
C468 H460 0.950 . S
C468 C467 1.345 . S
C468 C469 1.424 . S
C469 H461 0.951 . S
C469 C468 1.424 . S
C469 C470 1.347 . S
C470 H462 0.951 . S
C470 C465 1.429 . S
C470 C469 1.347 . S
H471 C472 0.951 . S
C472 H471 0.951 . S
C472 C478 1.265 . S
H473 C478 0.950 . S
H474 C482 0.949 . S
H475 C483 0.950 . S
H476 C484 0.951 . S
H477 C485 0.951 . S
C478 C472 1.265 . S
C478 H473 0.950 . S
C478 C479 1.478 . S
C479 C466 1.394 . S
C479 C478 1.478 . S
C479 C480 1.397 . S
C480 C479 1.397 . S
C480 C481 1.438 . S
C480 C485 1.429 . S
C481 C464 1.394 . S
C481 C480 1.438 . S
C481 C482 1.428 . S
C482 H474 0.949 . S
C482 C481 1.428 . S
C482 C483 1.345 . S
C483 H475 0.950 . S
C483 C482 1.345 . S
C483 C484 1.424 . S
C484 H476 0.951 . S
C484 C483 1.424 . S
C484 C485 1.347 . S
C485 H477 0.951 . S
C485 C480 1.429 . S
C485 C484 1.347 . S
H486 C487 0.951 . S
C487 H486 0.951 . S
C487 C493 1.265 . S
H488 C493 0.950 . S
H489 C497 0.949 . S
H490 C498 0.950 . S
H491 C499 0.951 . S
H492 C500 0.951 1_455 S
C493 C487 1.265 . S
C493 H488 0.950 . S
C493 C494 1.478 1_455 S
C494 C493 1.478 1_655 S
C494 C495 1.397 . S
C494 C511 1.394 . S
C495 C494 1.397 . S
C495 C496 1.438 . S
C495 C500 1.429 . S
C496 C495 1.438 . S
C496 C497 1.428 . S
C496 C509 1.394 . S
C497 H489 0.949 . S
C497 C496 1.428 . S
C497 C498 1.345 . S
C498 H490 0.950 . S
C498 C497 1.345 . S
C498 C499 1.424 . S
C499 H491 0.951 . S
C499 C498 1.424 . S
C499 C500 1.347 . S
C500 H492 0.951 1_655 S
C500 C495 1.429 . S
C500 C499 1.347 . S
H501 C502 0.951 . S
C502 H501 0.951 . S
C502 C508 1.265 . S
H503 C508 0.950 . S
H504 C512 0.949 1_455 S
H505 C513 0.950 . S
H506 C514 0.951 . S
H507 C515 0.951 . S
C508 C502 1.265 . S
C508 H503 0.950 . S
C508 C509 1.478 . S
C509 C496 1.394 . S
C509 C508 1.478 . S
C509 C510 1.397 . S
C510 C509 1.397 . S
C510 C511 1.438 . S
C510 C515 1.429 . S
C511 C494 1.394 . S
C511 C510 1.438 . S
C511 C512 1.428 . S
C512 H504 0.949 1_655 S
C512 C511 1.428 . S
C512 C513 1.345 . S
C513 H505 0.950 . S
C513 C512 1.345 . S
C513 C514 1.424 . S
C514 H506 0.951 . S
C514 C513 1.424 . S
C514 C515 1.347 . S
C515 H507 0.951 . S
C515 C510 1.429 . S
C515 C514 1.347 . S
H516 C517 0.951 . S
C517 H516 0.951 . S
C517 C523 1.265 . S
H518 C523 0.950 . S
H519 C527 0.949 . S
H520 C528 0.950 . S
H521 C529 0.951 . S
H522 C530 0.935 1_565 S
C523 C517 1.265 . S
C523 H518 0.950 . S
C523 C524 1.478 1_565 S
C524 C523 1.478 1_545 S
C524 C525 1.397 . S
C524 C541 1.394 . S
C525 C524 1.397 . S
C525 C526 1.438 . S
C525 C530 1.429 . S
C526 C525 1.438 . S
C526 C527 1.428 . S
C526 C539 1.394 . S
C527 H519 0.949 . S
C527 C526 1.428 . S
C527 C528 1.345 . S
C528 H520 0.950 . S
C528 C527 1.345 . S
C528 C529 1.424 . S
C529 H521 0.951 . S
C529 C528 1.424 . S
C529 C530 1.347 . S
C530 H522 0.935 1_545 S
C530 C525 1.429 . S
C530 C529 1.347 . S
H531 C532 0.951 . S
C532 H531 0.951 . S
C532 C538 1.265 . S
H533 C538 0.950 . S
H534 C542 0.949 1_565 S
H535 C543 0.950 . S
H536 C544 0.951 . S
H537 C545 0.951 . S
C538 C532 1.265 . S
C538 H533 0.950 . S
C538 C539 1.478 . S
C539 C526 1.394 . S
C539 C538 1.478 . S
C539 C540 1.397 . S
C540 C539 1.397 . S
C540 C541 1.438 . S
C540 C545 1.429 . S
C541 C524 1.394 . S
C541 C540 1.438 . S
C541 C542 1.428 . S
C542 H534 0.949 1_545 S
C542 C541 1.428 . S
C542 C543 1.345 . S
C543 H535 0.950 . S
C543 C542 1.345 . S
C543 C544 1.424 . S
C544 H536 0.951 . S
C544 C543 1.424 . S
C544 C545 1.347 . S
C545 H537 0.951 . S
C545 C540 1.429 . S
C545 C544 1.347 . S
H546 C547 0.951 . S
C547 H546 0.951 . S
C547 C553 1.265 . S
H548 C553 0.950 . S
H549 C557 0.949 . S
H550 C558 0.950 . S
H551 C559 0.951 . S
H552 C560 0.951 . S
C553 C547 1.265 . S
C553 H548 0.950 . S
C553 C554 1.478 . S
C554 C553 1.478 . S
C554 C555 1.397 . S
C554 C571 1.394 . S
C555 C554 1.397 . S
C555 C556 1.438 . S
C555 C560 1.429 . S
C556 C555 1.438 . S
C556 C557 1.428 . S
C556 C569 1.394 . S
C557 H549 0.949 . S
C557 C556 1.428 . S
C557 C558 1.345 . S
C558 H550 0.950 . S
C558 C557 1.345 . S
C558 C559 1.424 . S
C559 H551 0.951 . S
C559 C558 1.424 . S
C559 C560 1.347 . S
C560 H552 0.951 . S
C560 C555 1.429 . S
C560 C559 1.347 . S
H561 C562 0.951 . S
C562 H561 0.951 . S
C562 C568 1.265 . S
H563 C568 0.950 . S
H564 C572 0.949 . S
H565 C573 0.950 . S
H566 C574 0.951 . S
H567 C575 0.951 . S
C568 C562 1.265 . S
C568 H563 0.950 . S
C568 C569 1.478 . S
C569 C556 1.394 . S
C569 C568 1.478 . S
C569 C570 1.397 . S
C570 C569 1.397 . S
C570 C571 1.438 . S
C570 C575 1.429 . S
C571 C554 1.394 . S
C571 C570 1.438 . S
C571 C572 1.428 . S
C572 H564 0.949 . S
C572 C571 1.428 . S
C572 C573 1.345 . S
C573 H565 0.950 . S
C573 C572 1.345 . S
C573 C574 1.424 . S
C574 H566 0.951 . S
C574 C573 1.424 . S
C574 C575 1.347 . S
C575 H567 0.951 . S
C575 C570 1.429 . S
C575 C574 1.347 . S
H576 C577 0.951 . S
C577 H576 0.951 . S
C577 C583 1.265 . S
H578 C583 0.950 . S
H579 C587 0.949 . S
H580 C588 0.950 . S
H581 C589 0.951 . S
H582 C590 0.951 . S
C583 C577 1.265 . S
C583 H578 0.950 . S
C583 C584 1.478 1_455 S
C584 C583 1.478 1_655 S
C584 C585 1.397 . S
C584 C601 1.394 . S
C585 C584 1.397 . S
C585 C586 1.438 . S
C585 C590 1.429 . S
C586 C585 1.438 . S
C586 C587 1.428 . S
C586 C599 1.394 . S
C587 H579 0.949 . S
C587 C586 1.428 . S
C587 C588 1.345 . S
C588 H580 0.950 . S
C588 C587 1.345 . S
C588 C589 1.424 . S
C589 H581 0.951 . S
C589 C588 1.424 . S
C589 C590 1.347 . S
C590 H582 0.951 . S
C590 C585 1.429 . S
C590 C589 1.347 . S
H591 C592 0.951 . S
C592 H591 0.951 . S
C592 C598 1.265 . S
H593 C598 0.950 . S
H594 C602 0.949 1_455 S
H595 C603 0.951 . S
H596 C604 0.951 . S
H597 C605 0.951 . S
C598 C592 1.265 . S
C598 H593 0.950 . S
C598 C599 1.478 . S
C599 C586 1.394 . S
C599 C598 1.478 . S
C599 C600 1.397 . S
C600 C599 1.397 . S
C600 C601 1.438 . S
C600 C605 1.429 . S
C601 C584 1.394 . S
C601 C600 1.438 . S
C601 C602 1.428 . S
C602 H594 0.949 1_655 S
C602 C601 1.428 . S
C602 C603 1.345 . S
C603 H595 0.951 . S
C603 C602 1.345 . S
C603 C604 1.424 . S
C604 H596 0.951 . S
C604 C603 1.424 . S
C604 C605 1.347 . S
C605 H597 0.951 . S
C605 C600 1.429 . S
C605 C604 1.347 . S
H606 C607 0.951 . S
C607 H606 0.951 . S
C607 C613 1.265 . S
H608 C613 0.950 . S
H609 C617 0.949 1_565 S
H610 C618 0.950 . S
H611 C619 0.951 . S
H612 C620 0.951 . S
C613 C607 1.265 . S
C613 H608 0.950 . S
C613 C614 1.478 . S
C614 C613 1.478 . S
C614 C615 1.397 . S
C614 C631 1.394 . S
C615 C614 1.397 . S
C615 C616 1.438 . S
C615 C620 1.429 . S
C616 C615 1.438 . S
C616 C617 1.428 . S
C616 C629 1.394 . S
C617 H609 0.949 1_545 S
C617 C616 1.428 . S
C617 C618 1.345 . S
C618 H610 0.950 . S
C618 C617 1.345 . S
C618 C619 1.424 . S
C619 H611 0.951 . S
C619 C618 1.424 . S
C619 C620 1.347 . S
C620 H612 0.951 . S
C620 C615 1.429 . S
C620 C619 1.347 . S
H621 C622 0.951 . S
C622 H621 0.951 . S
C622 C628 1.265 . S
H623 C628 0.950 . S
H624 C632 0.949 . S
H625 C633 0.950 . S
H626 C634 0.951 . S
H627 C635 0.951 . S
C628 C622 1.265 . S
C628 H623 0.950 . S
C628 C629 1.478 1_565 S
C629 C616 1.394 . S
C629 C628 1.478 1_545 S
C629 C630 1.397 . S
C630 C629 1.397 . S
C630 C631 1.438 . S
C630 C635 1.429 . S
C631 C614 1.394 . S
C631 C630 1.438 . S
C631 C632 1.428 . S
C632 H624 0.949 . S
C632 C631 1.428 . S
C632 C633 1.345 . S
C633 H625 0.950 . S
C633 C632 1.345 . S
C633 C634 1.424 . S
C634 H626 0.951 . S
C634 C633 1.424 . S
C634 C635 1.347 . S
C635 H627 0.951 . S
C635 C630 1.429 . S
C635 C634 1.347 . S
H636 C637 0.951 . S
C637 H636 0.951 . S
C637 C643 1.265 . S
H638 C643 0.950 . S
H639 C647 0.949 . S
H640 C648 0.950 . S
H641 C649 0.951 . S
H642 C650 0.951 . S
C643 C637 1.265 . S
C643 H638 0.950 . S
C643 C644 1.478 . S
C644 C643 1.478 . S
C644 C645 1.397 . S
C644 C661 1.394 . S
C645 C644 1.397 . S
C645 C646 1.438 . S
C645 C650 1.429 . S
C646 C645 1.438 . S
C646 C647 1.428 . S
C646 C659 1.394 . S
C647 H639 0.949 . S
C647 C646 1.428 . S
C647 C648 1.345 1_545 S
C648 H640 0.950 . S
C648 C647 1.345 1_565 S
C648 C649 1.424 . S
C649 H641 0.951 . S
C649 C648 1.424 . S
C649 C650 1.347 1_565 S
C650 H642 0.951 . S
C650 C645 1.429 . S
C650 C649 1.347 1_545 S
H651 C652 0.951 . S
C652 H651 0.951 . S
C652 C658 1.265 . S
H653 C658 0.950 . S
H654 C662 0.949 . S
H655 C663 0.950 . S
H656 C664 0.951 . S
H657 C665 0.951 . S
C658 C652 1.265 . S
C658 H653 0.950 . S
C658 C659 1.478 . S
C659 C646 1.394 . S
C659 C658 1.478 . S
C659 C660 1.397 . S
C660 C659 1.397 . S
C660 C661 1.438 . S
C660 C665 1.429 . S
C661 C644 1.394 . S
C661 C660 1.438 . S
C661 C662 1.428 . S
C662 H654 0.949 . S
C662 C661 1.428 . S
C662 C663 1.345 . S
C663 H655 0.950 . S
C663 C662 1.345 . S
C663 C664 1.424 . S
C664 H656 0.951 . S
C664 C663 1.424 . S
C664 C665 1.347 . S
C665 H657 0.951 . S
C665 C660 1.429 . S
C665 C664 1.347 . S
H666 C667 0.951 . S
C667 H666 0.951 . S
C667 C673 1.265 . S
H668 C673 0.950 . S
H669 C677 0.949 . S
H670 C678 0.950 . S
H671 C679 0.951 . S
H672 C680 0.951 . S
C673 C667 1.265 . S
C673 H668 0.950 . S
C673 C674 1.478 . S
C674 C673 1.478 . S
C674 C675 1.397 . S
C674 C691 1.394 . S
C675 C674 1.397 . S
C675 C676 1.438 . S
C675 C680 1.429 . S
C676 C675 1.438 . S
C676 C677 1.428 . S
C676 C689 1.394 . S
C677 H669 0.949 . S
C677 C676 1.428 . S
C677 C678 1.345 . S
C678 H670 0.950 . S
C678 C677 1.345 . S
C678 C679 1.424 . S
C679 H671 0.951 . S
C679 C678 1.424 . S
C679 C680 1.347 . S
C680 H672 0.951 . S
C680 C675 1.429 . S
C680 C679 1.347 . S
H681 C682 0.951 . S
C682 H681 0.951 . S
C682 C688 1.265 . S
H683 C688 0.950 . S
H684 C692 0.949 . S
H685 C693 0.950 . S
H686 C694 0.951 . S
H687 C695 0.951 . S
C688 C682 1.265 . S
C688 H683 0.950 . S
C688 C689 1.478 . S
C689 C676 1.394 . S
C689 C688 1.478 . S
C689 C690 1.397 . S
C690 C689 1.397 . S
C690 C691 1.438 . S
C690 C695 1.429 . S
C691 C674 1.394 . S
C691 C690 1.438 . S
C691 C692 1.428 . S
C692 H684 0.949 . S
C692 C691 1.428 . S
C692 C693 1.345 . S
C693 H685 0.950 . S
C693 C692 1.345 . S
C693 C694 1.424 . S
C694 H686 0.951 . S
C694 C693 1.424 . S
C694 C695 1.347 . S
C695 H687 0.951 . S
C695 C690 1.429 . S
C695 C694 1.347 . S
H696 C697 0.951 . S
C697 H696 0.951 . S
C697 C703 1.265 . S
H698 C703 0.950 . S
H699 C707 0.949 . S
H700 C708 0.950 1_455 S
H701 C709 0.951 . S
H702 C710 0.951 . S
C703 C697 1.265 . S
C703 H698 0.950 . S
C703 C704 1.478 . S
C704 C703 1.478 . S
C704 C705 1.397 . S
C704 C721 1.394 . S
C705 C704 1.397 . S
C705 C706 1.438 . S
C705 C710 1.429 . S
C706 C705 1.438 . S
C706 C707 1.428 . S
C706 C719 1.394 . S
C707 H699 0.949 . S
C707 C706 1.428 . S
C707 C708 1.345 . S
C708 H700 0.950 1_655 S
C708 C707 1.345 . S
C708 C709 1.424 1_655 S
C709 H701 0.951 . S
C709 C708 1.424 1_455 S
C709 C710 1.347 1_455 S
C710 H702 0.951 . S
C710 C705 1.429 . S
C710 C709 1.347 1_655 S
H711 C712 0.951 . S
C712 H711 0.951 . S
C712 C718 1.265 . S
H713 C718 0.950 . S
H714 C722 0.949 . S
H715 C723 0.950 . S
H716 C724 0.951 . S
H717 C725 0.951 . S
C718 C712 1.265 . S
C718 H713 0.950 . S
C718 C719 1.478 . S
C719 C706 1.394 . S
C719 C718 1.478 . S
C719 C720 1.397 . S
C720 C719 1.397 . S
C720 C721 1.438 . S
C720 C725 1.429 . S
C721 C704 1.394 . S
C721 C720 1.438 . S
C721 C722 1.428 . S
C722 H714 0.949 . S
C722 C721 1.428 . S
C722 C723 1.345 . S
C723 H715 0.950 . S
C723 C722 1.345 . S
C723 C724 1.424 . S
C724 H716 0.951 . S
C724 C723 1.424 . S
C724 C725 1.347 . S
C725 H717 0.951 . S
C725 C720 1.429 . S
C725 C724 1.347 . S
H726 C727 0.951 . S
C727 H726 0.951 . S
C727 C733 1.265 . S
H728 C733 0.950 . S
H729 C737 0.949 . S
H730 C738 0.950 1_655 S
H731 C739 0.951 . S
H732 C740 0.951 . S
C733 C727 1.265 . S
C733 H728 0.950 . S
C733 C734 1.478 . S
C734 C733 1.478 . S
C734 C735 1.397 . S
C734 C751 1.394 . S
C735 C734 1.397 . S
C735 C736 1.438 . S
C735 C740 1.429 . S
C736 C735 1.438 . S
C736 C737 1.428 . S
C736 C749 1.394 . S
C737 H729 0.949 . S
C737 C736 1.428 . S
C737 C738 1.345 . S
C738 H730 0.950 1_455 S
C738 C737 1.345 . S
C738 C739 1.424 1_455 S
C739 H731 0.951 . S
C739 C738 1.424 1_655 S
C739 C740 1.347 1_655 S
C740 H732 0.951 . S
C740 C735 1.429 . S
C740 C739 1.347 1_455 S
H741 C742 0.951 . S
C742 H741 0.951 . S
C742 C748 1.265 . S
H743 C748 0.950 . S
H744 C752 0.949 . S
H745 C753 0.950 . S
H746 C754 0.951 . S
H747 C755 0.951 . S
C748 C742 1.265 . S
C748 H743 0.950 . S
C748 C749 1.478 . S
C749 C736 1.394 . S
C749 C748 1.478 . S
C749 C750 1.397 . S
C750 C749 1.397 . S
C750 C751 1.438 . S
C750 C755 1.429 . S
C751 C734 1.394 . S
C751 C750 1.438 . S
C751 C752 1.428 . S
C752 H744 0.949 . S
C752 C751 1.428 . S
C752 C753 1.345 . S
C753 H745 0.950 . S
C753 C752 1.345 . S
C753 C754 1.424 . S
C754 H746 0.951 . S
C754 C753 1.424 . S
C754 C755 1.347 . S
C755 H747 0.951 . S
C755 C750 1.429 . S
C755 C754 1.347 . S
H756 C757 0.951 . S
C757 H756 0.951 . S
C757 C763 1.265 . S
H758 C763 0.950 . S
H759 C767 0.949 . S
H760 C768 0.950 . S
H761 C769 0.951 . S
H762 C770 0.951 . S
C763 C757 1.265 . S
C763 H758 0.950 . S
C763 C764 1.478 . S
C764 C763 1.478 . S
C764 C765 1.397 . S
C764 C781 1.394 . S
C765 C764 1.397 . S
C765 C766 1.438 . S
C765 C770 1.429 . S
C766 C765 1.438 . S
C766 C767 1.428 . S
C766 C779 1.394 . S
C767 H759 0.949 . S
C767 C766 1.428 . S
C767 C768 1.345 . S
C768 H760 0.950 . S
C768 C767 1.345 . S
C768 C769 1.424 . S
C769 H761 0.951 . S
C769 C768 1.424 . S
C769 C770 1.347 . S
C770 H762 0.951 . S
C770 C765 1.429 . S
C770 C769 1.347 . S
H771 C772 0.951 . S
C772 H771 0.951 . S
C772 C778 1.265 . S
H773 C778 0.950 . S
H774 C782 0.949 . S
H775 C783 0.936 1_545 S
H776 C784 0.951 1_545 S
H777 C785 0.951 . S
C778 C772 1.265 . S
C778 H773 0.950 . S
C778 C779 1.478 . S
C779 C766 1.394 . S
C779 C778 1.478 . S
C779 C780 1.397 . S
C780 C779 1.397 . S
C780 C781 1.438 . S
C780 C785 1.429 . S
C781 C764 1.394 . S
C781 C780 1.438 . S
C781 C782 1.428 . S
C782 H774 0.949 . S
C782 C781 1.428 . S
C782 C783 1.359 . S
C783 H775 0.936 1_565 S
C783 C782 1.359 . S
C783 C784 1.423 . S
C784 H776 0.951 1_565 S
C784 C783 1.423 . S
C784 C785 1.347 . S
C785 H777 0.951 . S
C785 C780 1.429 . S
C785 C784 1.347 . S
H786 C787 0.951 . S
C787 H786 0.951 . S
C787 C793 1.265 . S
H788 C793 0.950 . S
H789 C797 0.949 . S
H790 C798 0.950 . S
H791 C799 0.951 . S
H792 C800 0.951 . S
C793 C787 1.265 . S
C793 H788 0.950 . S
C793 C794 1.478 . S
C794 C793 1.478 . S
C794 C795 1.397 . S
C794 C811 1.394 . S
C795 C794 1.397 . S
C795 C796 1.438 . S
C795 C800 1.429 . S
C796 C795 1.438 . S
C796 C797 1.428 . S
C796 C809 1.394 . S
C797 H789 0.949 . S
C797 C796 1.428 . S
C797 C798 1.345 . S
C798 H790 0.950 . S
C798 C797 1.345 . S
C798 C799 1.424 . S
C799 H791 0.951 . S
C799 C798 1.424 . S
C799 C800 1.347 . S
C800 H792 0.951 . S
C800 C795 1.429 . S
C800 C799 1.347 . S
H801 C802 0.951 . S
C802 H801 0.951 . S
C802 C808 1.265 . S
H803 C808 0.950 . S
H804 C812 0.949 . S
H805 C813 0.950 . S
H806 C814 0.951 . S
H807 C815 0.951 . S
C808 C802 1.265 . S
C808 H803 0.950 . S
C808 C809 1.478 . S
C809 C796 1.394 . S
C809 C808 1.478 . S
C809 C810 1.397 . S
C810 C809 1.397 . S
C810 C811 1.438 . S
C810 C815 1.429 . S
C811 C794 1.394 . S
C811 C810 1.438 . S
C811 C812 1.428 . S
C812 H804 0.949 . S
C812 C811 1.428 . S
C812 C813 1.345 . S
C813 H805 0.950 . S
C813 C812 1.345 . S
C813 C814 1.424 . S
C814 H806 0.951 . S
C814 C813 1.424 . S
C814 C815 1.347 . S
C815 H807 0.951 . S
C815 C810 1.429 . S
C815 C814 1.347 . S
H816 C817 0.951 . S
C817 H816 0.951 . S
C817 C823 1.265 . S
H818 C823 0.950 . S
H819 C827 0.949 . S
H820 C828 0.950 . S
H821 C829 0.951 . S
H822 C830 0.951 . S
C823 C817 1.265 . S
C823 H818 0.950 . S
C823 C824 1.478 . S
C824 C823 1.478 . S
C824 C825 1.397 . S
C824 C841 1.394 . S
C825 C824 1.397 . S
C825 C826 1.438 1_566 S
C825 C830 1.429 . S
C826 C825 1.438 1_544 S
C826 C827 1.428 . S
C826 C839 1.394 . S
C827 H819 0.949 . S
C827 C826 1.428 . S
C827 C828 1.345 . S
C828 H820 0.950 . S
C828 C827 1.345 . S
C828 C829 1.424 1_544 S
C829 H821 0.951 . S
C829 C828 1.424 1_566 S
C829 C830 1.347 . S
C830 H822 0.951 . S
C830 C825 1.429 . S
C830 C829 1.347 . S
H831 C832 0.951 . S
C832 H831 0.951 . S
C832 C838 1.265 . S
H833 C838 0.950 . S
H834 C842 0.949 . S
H835 C843 0.950 . S
H836 C844 0.951 . S
H837 C845 0.951 . S
C838 C832 1.265 . S
C838 H833 0.950 . S
C838 C839 1.478 . S
C839 C826 1.394 . S
C839 C838 1.478 . S
C839 C840 1.397 . S
C840 C839 1.397 . S
C840 C841 1.438 1_544 S
C840 C845 1.429 . S
C841 C824 1.394 . S
C841 C840 1.438 1_566 S
C841 C842 1.428 . S
C842 H834 0.949 . S
C842 C841 1.428 . S
C842 C843 1.345 . S
C843 H835 0.950 . S
C843 C842 1.345 . S
C843 C844 1.424 1_566 S
C844 H836 0.951 . S
C844 C843 1.424 1_544 S
C844 C845 1.347 . S
C845 H837 0.951 . S
C845 C840 1.429 . S
C845 C844 1.347 . S
H846 C847 0.951 . S
C847 H846 0.951 . S
C847 C853 1.265 . S
H848 C853 0.950 . S
H849 C857 0.949 . S
H850 C858 0.950 . S
H851 C859 0.951 . S
H852 C860 0.951 . S
C853 C847 1.265 . S
C853 H848 0.950 . S
C853 C854 1.478 . S
C854 C853 1.478 . S
C854 C855 1.397 . S
C854 C871 1.394 . S
C855 C854 1.397 . S
C855 C856 1.438 . S
C855 C860 1.429 . S
C856 C855 1.438 . S
C856 C857 1.428 . S
C856 C869 1.394 . S
C857 H849 0.949 . S
C857 C856 1.428 . S
C857 C858 1.345 . S
C858 H850 0.950 . S
C858 C857 1.345 . S
C858 C859 1.424 . S
C859 H851 0.951 . S
C859 C858 1.424 . S
C859 C860 1.347 . S
C860 H852 0.951 . S
C860 C855 1.429 . S
C860 C859 1.347 . S
H861 C862 0.951 . S
C862 H861 0.951 . S
C862 C868 1.265 . S
H863 C868 0.950 . S
H864 C872 0.949 . S
H865 C873 0.950 . S
H866 C874 0.951 . S
H867 C875 0.951 . S
C868 C862 1.265 . S
C868 H863 0.950 . S
C868 C869 1.478 . S
C869 C856 1.394 . S
C869 C868 1.478 . S
C869 C870 1.397 . S
C870 C869 1.397 . S
C870 C871 1.438 . S
C870 C875 1.429 . S
C871 C854 1.394 . S
C871 C870 1.438 . S
C871 C872 1.428 . S
C872 H864 0.949 . S
C872 C871 1.428 . S
C872 C873 1.345 . S
C873 H865 0.950 . S
C873 C872 1.345 . S
C873 C874 1.424 . S
C874 H866 0.951 . S
C874 C873 1.424 . S
C874 C875 1.347 . S
C875 H867 0.951 . S
C875 C870 1.429 . S
C875 C874 1.347 . S
H876 C877 0.951 . S
C877 H876 0.951 . S
C877 C883 1.265 . S
H878 C883 0.950 . S
H879 C887 0.949 . S
H880 C888 0.950 . S
H881 C889 0.951 . S
H882 C890 0.951 . S
C883 C877 1.265 . S
C883 H878 0.950 . S
C883 C884 1.478 . S
C884 C883 1.478 . S
C884 C885 1.397 . S
C884 C901 1.394 1_455 S
C885 C884 1.397 . S
C885 C886 1.438 1_556 S
C885 C890 1.429 . S
C886 C885 1.438 1_554 S
C886 C887 1.428 . S
C886 C899 1.394 1_455 S
C887 H879 0.949 . S
C887 C886 1.428 . S
C887 C888 1.345 . S
C888 H880 0.950 . S
C888 C887 1.345 . S
C888 C889 1.424 . S
C889 H881 0.951 . S
C889 C888 1.424 . S
C889 C890 1.347 1_554 S
C890 H882 0.951 . S
C890 C885 1.429 . S
C890 C889 1.347 1_556 S
H891 C892 0.951 . S
C892 H891 0.951 . S
C892 C898 1.265 . S
H893 C898 0.950 . S
H894 C902 0.949 . S
H895 C903 0.950 . S
H896 C904 0.951 . S
H897 C905 0.951 . S
C898 C892 1.265 . S
C898 H893 0.950 . S
C898 C899 1.478 . S
C899 C886 1.394 1_655 S
C899 C898 1.478 . S
C899 C900 1.397 . S
C900 C899 1.397 . S
C900 C901 1.438 1_554 S
C900 C905 1.429 . S
C901 C884 1.394 1_655 S
C901 C900 1.438 1_556 S
C901 C902 1.428 . S
C902 H894 0.949 . S
C902 C901 1.428 . S
C902 C903 1.345 . S
C903 H895 0.950 . S
C903 C902 1.345 . S
C903 C904 1.424 . S
C904 H896 0.951 . S
C904 C903 1.424 . S
C904 C905 1.347 1_556 S
C905 H897 0.951 . S
C905 C900 1.429 . S
C905 C904 1.347 1_554 S
H906 C907 0.951 . S
C907 H906 0.951 . S
C907 C913 1.265 . S
H908 C913 0.950 . S
H909 C917 0.949 . S
H910 C918 0.950 . S
H911 C919 0.951 . S
H912 C920 0.951 . S
C913 C907 1.265 . S
C913 H908 0.950 . S
C913 C914 1.478 . S
C914 C913 1.478 . S
C914 C915 1.397 . S
C914 C931 1.394 1_545 S
C915 C914 1.397 . S
C915 C916 1.438 . S
C915 C920 1.429 . S
C916 C915 1.438 . S
C916 C917 1.428 . S
C916 C929 1.394 1_545 S
C917 H909 0.949 . S
C917 C916 1.428 . S
C917 C918 1.345 . S
C918 H910 0.950 . S
C918 C917 1.345 . S
C918 C919 1.424 . S
C919 H911 0.951 . S
C919 C918 1.424 . S
C919 C920 1.347 . S
C920 H912 0.951 . S
C920 C915 1.429 . S
C920 C919 1.347 . S
H921 C922 0.951 . S
C922 H921 0.951 . S
C922 C928 1.265 . S
H923 C928 0.950 . S
H924 C932 0.949 . S
H925 C933 0.950 . S
H926 C934 0.951 . S
H927 C935 0.951 . S
C928 C922 1.265 . S
C928 H923 0.950 . S
C928 C929 1.478 . S
C929 C916 1.394 1_565 S
C929 C928 1.478 . S
C929 C930 1.397 . S
C930 C929 1.397 . S
C930 C931 1.438 . S
C930 C935 1.429 . S
C931 C914 1.394 1_565 S
C931 C930 1.438 . S
C931 C932 1.428 . S
C932 H924 0.949 . S
C932 C931 1.428 . S
C932 C933 1.345 . S
C933 H925 0.950 . S
C933 C932 1.345 . S
C933 C934 1.424 . S
C934 H926 0.951 . S
C934 C933 1.424 . S
C934 C935 1.347 . S
C935 H927 0.951 . S
C935 C930 1.429 . S
C935 C934 1.347 . S
H936 C937 0.951 . S
C937 H936 0.951 . S
C937 C943 1.265 . S
H938 C943 0.950 . S
H939 C947 0.949 . S
H940 C948 0.950 . S
H941 C949 0.951 . S
H942 C950 0.951 . S
C943 C937 1.265 . S
C943 H938 0.950 . S
C943 C944 1.478 . S
C944 C943 1.478 . S
C944 C945 1.443 . S
C944 C961 1.394 . S
C945 C944 1.443 . S
C945 C946 1.390 1_554 S
C945 C950 1.432 . S
C946 C945 1.390 1_556 S
C946 C947 1.428 . S
C946 C959 1.394 . S
C947 H939 0.949 . S
C947 C946 1.428 . S
C947 C948 1.345 . S
C948 H940 0.950 . S
C948 C947 1.345 . S
C948 C949 1.424 . S
C949 H941 0.951 . S
C949 C948 1.424 . S
C949 C950 1.347 1_556 S
C950 H942 0.951 . S
C950 C945 1.432 . S
C950 C949 1.347 1_554 S
H951 C952 0.951 . S
C952 H951 0.951 . S
C952 C958 1.265 . S
H953 C958 0.950 . S
H954 C962 0.949 . S
H955 C963 0.950 . S
H956 C964 0.951 . S
H957 C965 0.951 . S
C958 C952 1.265 . S
C958 H953 0.950 . S
C958 C959 1.478 . S
C959 C946 1.394 . S
C959 C958 1.478 . S
C959 C960 1.443 . S
C960 C959 1.443 . S
C960 C961 1.390 1_556 S
C960 C965 1.432 . S
C961 C944 1.394 . S
C961 C960 1.390 1_554 S
C961 C962 1.428 . S
C962 H954 0.949 . S
C962 C961 1.428 . S
C962 C963 1.345 . S
C963 H955 0.950 . S
C963 C962 1.345 . S
C963 C964 1.424 . S
C964 H956 0.951 . S
C964 C963 1.424 . S
C964 C965 1.347 1_554 S
C965 H957 0.951 . S
C965 C960 1.432 . S
C965 C964 1.347 1_556 S
H966 C967 0.951 . S
C967 H966 0.951 . S
C967 C973 1.265 . S
H968 C973 0.950 . S
H969 C977 0.949 . S
H970 C978 0.950 . S
H971 C979 0.951 . S
H972 C980 0.951 . S
C973 C967 1.265 . S
C973 H968 0.950 . S
C973 C974 1.478 . S
C974 C973 1.478 . S
C974 C975 1.397 . S
C974 C991 1.394 . S
C975 C974 1.397 . S
C975 C976 1.438 1_455 S
C975 C980 1.429 . S
C976 C975 1.438 1_655 S
C976 C977 1.428 . S
C976 C989 1.394 . S
C977 H969 0.949 . S
C977 C976 1.428 . S
C977 C978 1.345 1_655 S
C978 H970 0.950 . S
C978 C977 1.345 1_455 S
C978 C979 1.424 . S
C979 H971 0.951 . S
C979 C978 1.424 . S
C979 C980 1.347 . S
C980 H972 0.951 . S
C980 C975 1.429 . S
C980 C979 1.347 . S
H981 C982 0.951 . S
C982 H981 0.951 . S
C982 C988 1.265 . S
H983 C988 0.950 . S
H984 C992 0.949 . S
H985 C993 0.950 . S
H986 C994 0.951 . S
H987 C995 0.951 . S
C988 C982 1.265 . S
C988 H983 0.950 . S
C988 C989 1.478 . S
C989 C976 1.394 . S
C989 C988 1.478 . S
C989 C990 1.397 . S
C990 C989 1.397 . S
C990 C991 1.438 1_655 S
C990 C995 1.429 . S
C991 C974 1.394 . S
C991 C990 1.438 1_455 S
C991 C992 1.428 . S
C992 H984 0.949 . S
C992 C991 1.428 . S
C992 C993 1.345 1_455 S
C993 H985 0.950 . S
C993 C992 1.345 1_655 S
C993 C994 1.424 . S
C994 H986 0.951 . S
C994 C993 1.424 . S
C994 C995 1.347 . S
C995 H987 0.951 . S
C995 C990 1.429 . S
C995 C994 1.347 . S
H996 C997 0.951 . S
C997 H996 0.951 . S
C997 C1003 1.265 . S
H998 C1003 0.950 . S
H999 C1007 0.949 . S
H1000 C1008 0.950 . S
H1001 C1009 0.951 . S
H1002 C1010 0.951 . S
C1003 C997 1.265 . S
C1003 H998 0.950 . S
C1003 C1004 1.478 . S
C1004 C1003 1.478 . S
C1004 C1005 1.397 . S
C1004 C1021 1.394 . S
C1005 C1004 1.397 . S
C1005 C1006 1.438 . S
C1005 C1010 1.429 . S
C1006 C1005 1.438 . S
C1006 C1007 1.428 . S
C1006 C1019 1.394 . S
C1007 H999 0.949 . S
C1007 C1006 1.428 . S
C1007 C1008 1.345 . S
C1008 H1000 0.950 . S
C1008 C1007 1.345 . S
C1008 C1009 1.424 . S
C1009 H1001 0.951 . S
C1009 C1008 1.424 . S
C1009 C1010 1.347 . S
C1010 H1002 0.951 . S
C1010 C1005 1.429 . S
C1010 C1009 1.347 . S
H1011 C1012 0.951 . S
C1012 H1011 0.951 . S
C1012 C1018 1.265 . S
H1013 C1018 0.950 . S
H1014 C1022 0.949 . S
H1015 C1023 0.950 . S
H1016 C1024 0.951 . S
H1017 C1025 0.951 . S
C1018 C1012 1.265 . S
C1018 H1013 0.950 . S
C1018 C1019 1.478 . S
C1019 C1006 1.394 . S
C1019 C1018 1.478 . S
C1019 C1020 1.397 . S
C1020 C1019 1.397 . S
C1020 C1021 1.438 . S
C1020 C1025 1.429 . S
C1021 C1004 1.394 . S
C1021 C1020 1.438 . S
C1021 C1022 1.428 . S
C1022 H1014 0.949 . S
C1022 C1021 1.428 . S
C1022 C1023 1.345 . S
C1023 H1015 0.950 . S
C1023 C1022 1.345 . S
C1023 C1024 1.424 . S
C1024 H1016 0.951 . S
C1024 C1023 1.424 . S
C1024 C1025 1.347 . S
C1025 H1017 0.951 . S
C1025 C1020 1.429 . S
C1025 C1024 1.347 . S
H1026 C1027 0.951 . S
C1027 H1026 0.951 . S
C1027 C1033 1.265 . S
H1028 C1033 0.950 . S
H1029 C1037 0.949 . S
H1030 C1038 0.950 . S
H1031 C1039 0.951 . S
H1032 C1040 0.951 . S
C1033 C1027 1.265 . S
C1033 H1028 0.950 . S
C1033 C1034 1.478 . S
C1034 C1033 1.478 . S
C1034 C1035 1.397 . S
C1034 C1051 1.394 . S
C1035 C1034 1.397 . S
C1035 C1036 1.438 . S
C1035 C1040 1.429 . S
C1036 C1035 1.438 . S
C1036 C1037 1.428 . S
C1036 C1049 1.394 . S
C1037 H1029 0.949 . S
C1037 C1036 1.428 . S
C1037 C1038 1.345 . S
C1038 H1030 0.950 . S
C1038 C1037 1.345 . S
C1038 C1039 1.424 . S
C1039 H1031 0.951 . S
C1039 C1038 1.424 . S
C1039 C1040 1.347 . S
C1040 H1032 0.951 . S
C1040 C1035 1.429 . S
C1040 C1039 1.347 . S
H1041 C1042 0.951 . S
C1042 H1041 0.951 . S
C1042 C1048 1.265 . S
H1043 C1048 0.950 . S
H1044 C1052 0.949 . S
H1045 C1053 0.950 . S
H1046 C1054 0.951 . S
H1047 C1055 0.951 . S
C1048 C1042 1.265 . S
C1048 H1043 0.950 . S
C1048 C1049 1.478 . S
C1049 C1036 1.394 . S
C1049 C1048 1.478 . S
C1049 C1050 1.397 . S
C1050 C1049 1.397 . S
C1050 C1051 1.438 . S
C1050 C1055 1.429 . S
C1051 C1034 1.394 . S
C1051 C1050 1.438 . S
C1051 C1052 1.428 . S
C1052 H1044 0.949 . S
C1052 C1051 1.428 . S
C1052 C1053 1.345 . S
C1053 H1045 0.950 . S
C1053 C1052 1.345 . S
C1053 C1054 1.424 . S
C1054 H1046 0.951 . S
C1054 C1053 1.424 . S
C1054 C1055 1.347 . S
C1055 H1047 0.951 . S
C1055 C1050 1.429 . S
C1055 C1054 1.347 . S
H1056 C1057 0.951 . S
C1057 H1056 0.951 . S
C1057 C1063 1.265 . S
H1058 C1063 0.950 . S
H1059 C1067 0.949 . S
H1060 C1068 0.950 . S
H1061 C1069 0.951 . S
H1062 C1070 0.951 . S
C1063 C1057 1.265 . S
C1063 H1058 0.950 . S
C1063 C1064 1.478 . S
C1064 C1063 1.478 . S
C1064 C1065 1.397 . S
C1064 C1081 1.394 . S
C1065 C1064 1.397 . S
C1065 C1066 1.438 . S
C1065 C1070 1.429 . S
C1066 C1065 1.438 . S
C1066 C1067 1.428 . S
C1066 C1079 1.394 . S
C1067 H1059 0.949 . S
C1067 C1066 1.428 . S
C1067 C1068 1.345 . S
C1068 H1060 0.950 . S
C1068 C1067 1.345 . S
C1068 C1069 1.424 . S
C1069 H1061 0.951 . S
C1069 C1068 1.424 . S
C1069 C1070 1.347 . S
C1070 H1062 0.951 . S
C1070 C1065 1.429 . S
C1070 C1069 1.347 . S
H1071 C1072 0.951 . S
C1072 H1071 0.951 . S
C1072 C1078 1.265 . S
H1073 C1078 0.950 . S
H1074 C1082 0.949 . S
H1075 C1083 0.950 . S
H1076 C1084 0.951 . S
H1077 C1085 0.951 . S
C1078 C1072 1.265 . S
C1078 H1073 0.950 . S
C1078 C1079 1.478 . S
C1079 C1066 1.394 . S
C1079 C1078 1.478 . S
C1079 C1080 1.397 . S
C1080 C1079 1.397 . S
C1080 C1081 1.438 . S
C1080 C1085 1.429 . S
C1081 C1064 1.394 . S
C1081 C1080 1.438 . S
C1081 C1082 1.428 . S
C1082 H1074 0.949 . S
C1082 C1081 1.428 . S
C1082 C1083 1.345 . S
C1083 H1075 0.950 . S
C1083 C1082 1.345 . S
C1083 C1084 1.424 . S
C1084 H1076 0.951 . S
C1084 C1083 1.424 . S
C1084 C1085 1.347 . S
C1085 H1077 0.951 . S
C1085 C1080 1.429 . S
C1085 C1084 1.347 . S
H1086 C1087 0.951 . S
C1087 H1086 0.951 . S
C1087 C1093 1.265 . S
H1088 C1093 0.950 . S
H1089 C1097 0.949 . S
H1090 C1098 0.950 . S
H1091 C1099 0.951 . S
H1092 C1100 0.951 . S
C1093 C1087 1.265 . S
C1093 H1088 0.950 . S
C1093 C1094 1.478 . S
C1094 C1093 1.478 . S
C1094 C1095 1.397 . S
C1094 C1111 1.394 . S
C1095 C1094 1.397 . S
C1095 C1096 1.438 . S
C1095 C1100 1.429 . S
C1096 C1095 1.438 . S
C1096 C1097 1.428 . S
C1096 C1109 1.394 . S
C1097 H1089 0.949 . S
C1097 C1096 1.428 . S
C1097 C1098 1.345 . S
C1098 H1090 0.950 . S
C1098 C1097 1.345 . S
C1098 C1099 1.424 . S
C1099 H1091 0.951 . S
C1099 C1098 1.424 . S
C1099 C1100 1.347 . S
C1100 H1092 0.951 . S
C1100 C1095 1.429 . S
C1100 C1099 1.347 . S
H1101 C1102 0.951 . S
C1102 H1101 0.951 . S
C1102 C1108 1.265 . S
H1103 C1108 0.950 . S
H1104 C1112 0.949 . S
H1105 C1113 0.950 . S
H1106 C1114 0.951 . S
H1107 C1115 0.951 . S
C1108 C1102 1.265 . S
C1108 H1103 0.950 . S
C1108 C1109 1.478 . S
C1109 C1096 1.394 . S
C1109 C1108 1.478 . S
C1109 C1110 1.397 . S
C1110 C1109 1.397 . S
C1110 C1111 1.438 . S
C1110 C1115 1.429 . S
C1111 C1094 1.394 . S
C1111 C1110 1.438 . S
C1111 C1112 1.428 . S
C1112 H1104 0.949 . S
C1112 C1111 1.428 . S
C1112 C1113 1.345 . S
C1113 H1105 0.950 . S
C1113 C1112 1.345 . S
C1113 C1114 1.424 . S
C1114 H1106 0.951 . S
C1114 C1113 1.424 . S
C1114 C1115 1.347 . S
C1115 H1107 0.951 . S
C1115 C1110 1.429 . S
C1115 C1114 1.347 . S
H1116 C1117 0.951 . S
C1117 H1116 0.951 . S
C1117 C1123 1.265 . S
H1118 C1123 0.950 . S
H1119 C1127 0.949 . S
H1120 C1128 0.950 . S
H1121 C1129 0.951 . S
H1122 C1130 0.951 . S
C1123 C1117 1.265 . S
C1123 H1118 0.950 . S
C1123 C1124 1.478 . S
C1124 C1123 1.478 . S
C1124 C1125 1.397 . S
C1124 C1141 1.394 . S
C1125 C1124 1.397 . S
C1125 C1126 1.438 . S
C1125 C1130 1.429 . S
C1126 C1125 1.438 . S
C1126 C1127 1.428 . S
C1126 C1139 1.394 . S
C1127 H1119 0.949 . S
C1127 C1126 1.428 . S
C1127 C1128 1.345 . S
C1128 H1120 0.950 . S
C1128 C1127 1.345 . S
C1128 C1129 1.424 . S
C1129 H1121 0.951 . S
C1129 C1128 1.424 . S
C1129 C1130 1.347 . S
C1130 H1122 0.951 . S
C1130 C1125 1.429 . S
C1130 C1129 1.347 . S
H1131 C1132 0.951 . S
C1132 H1131 0.951 . S
C1132 C1138 1.265 . S
H1133 C1138 0.950 . S
H1134 C1142 0.949 . S
H1135 C1143 0.950 . S
H1136 C1144 0.951 . S
H1137 C1145 0.951 . S
C1138 C1132 1.265 . S
C1138 H1133 0.950 . S
C1138 C1139 1.478 . S
C1139 C1126 1.394 . S
C1139 C1138 1.478 . S
C1139 C1140 1.397 . S
C1140 C1139 1.397 . S
C1140 C1141 1.438 . S
C1140 C1145 1.429 . S
C1141 C1124 1.394 . S
C1141 C1140 1.438 . S
C1141 C1142 1.428 . S
C1142 H1134 0.949 . S
C1142 C1141 1.428 . S
C1142 C1143 1.345 . S
C1143 H1135 0.950 . S
C1143 C1142 1.345 . S
C1143 C1144 1.424 . S
C1144 H1136 0.951 . S
C1144 C1143 1.424 . S
C1144 C1145 1.347 . S
C1145 H1137 0.951 . S
C1145 C1140 1.429 . S
C1145 C1144 1.347 . S
H1146 C1147 0.951 . S
C1147 H1146 0.951 . S
C1147 C1153 1.265 . S
H1148 C1153 0.950 . S
H1149 C1157 0.949 . S
H1150 C1158 0.950 . S
H1151 C1159 0.951 . S
H1152 C1160 0.951 . S
C1153 C1147 1.265 . S
C1153 H1148 0.950 . S
C1153 C1154 1.478 . S
C1154 C1153 1.478 . S
C1154 C1155 1.397 . S
C1154 C1171 1.394 . S
C1155 C1154 1.397 . S
C1155 C1156 1.438 . S
C1155 C1160 1.429 . S
C1156 C1155 1.438 . S
C1156 C1157 1.428 . S
C1156 C1169 1.394 . S
C1157 H1149 0.949 . S
C1157 C1156 1.428 . S
C1157 C1158 1.345 . S
C1158 H1150 0.950 . S
C1158 C1157 1.345 . S
C1158 C1159 1.424 . S
C1159 H1151 0.951 . S
C1159 C1158 1.424 . S
C1159 C1160 1.347 . S
C1160 H1152 0.951 . S
C1160 C1155 1.429 . S
C1160 C1159 1.347 . S
H1161 C1162 0.951 . S
C1162 H1161 0.951 . S
C1162 C1168 1.265 . S
H1163 C1168 0.950 . S
H1164 C1172 0.949 . S
H1165 C1173 0.950 . S
H1166 C1174 0.951 . S
H1167 C1175 0.951 . S
C1168 C1162 1.265 . S
C1168 H1163 0.950 . S
C1168 C1169 1.478 . S
C1169 C1156 1.394 . S
C1169 C1168 1.478 . S
C1169 C1170 1.397 . S
C1170 C1169 1.397 . S
C1170 C1171 1.438 . S
C1170 C1175 1.429 . S
C1171 C1154 1.394 . S
C1171 C1170 1.438 . S
C1171 C1172 1.428 . S
C1172 H1164 0.949 . S
C1172 C1171 1.428 . S
C1172 C1173 1.345 . S
C1173 H1165 0.950 . S
C1173 C1172 1.345 . S
C1173 C1174 1.424 . S
C1174 H1166 0.951 . S
C1174 C1173 1.424 . S
C1174 C1175 1.347 . S
C1175 H1167 0.951 . S
C1175 C1170 1.429 . S
C1175 C1174 1.347 . S
H1176 C1177 0.951 . S
C1177 H1176 0.951 . S
C1177 C1183 1.265 . S
H1178 C1183 0.950 . S
H1179 C1187 0.949 . S
H1180 C1188 0.950 . S
H1181 C1189 0.951 . S
H1182 C1190 0.951 . S
C1183 C1177 1.265 . S
C1183 H1178 0.950 . S
C1183 C1184 1.478 . S
C1184 C1183 1.478 . S
C1184 C1185 1.397 . S
C1184 C1201 1.394 . S
C1185 C1184 1.397 . S
C1185 C1186 1.438 . S
C1185 C1190 1.429 . S
C1186 C1185 1.438 . S
C1186 C1187 1.428 . S
C1186 C1199 1.394 . S
C1187 H1179 0.949 . S
C1187 C1186 1.428 . S
C1187 C1188 1.345 . S
C1188 H1180 0.950 . S
C1188 C1187 1.345 . S
C1188 C1189 1.424 . S
C1189 H1181 0.951 . S
C1189 C1188 1.424 . S
C1189 C1190 1.347 . S
C1190 H1182 0.951 . S
C1190 C1185 1.429 . S
C1190 C1189 1.347 . S
H1191 C1192 0.951 . S
C1192 H1191 0.951 . S
C1192 C1198 1.265 . S
H1193 C1198 0.950 . S
H1194 C1202 0.949 . S
H1195 C1203 0.950 . S
H1196 C1204 0.951 . S
H1197 C1205 0.951 . S
C1198 C1192 1.265 . S
C1198 H1193 0.950 . S
C1198 C1199 1.478 . S
C1199 C1186 1.394 . S
C1199 C1198 1.478 . S
C1199 C1200 1.397 . S
C1200 C1199 1.397 . S
C1200 C1201 1.438 . S
C1200 C1205 1.429 . S
C1201 C1184 1.394 . S
C1201 C1200 1.438 . S
C1201 C1202 1.428 . S
C1202 H1194 0.949 . S
C1202 C1201 1.428 . S
C1202 C1203 1.345 . S
C1203 H1195 0.950 . S
C1203 C1202 1.345 . S
C1203 C1204 1.424 . S
C1204 H1196 0.951 . S
C1204 C1203 1.424 . S
C1204 C1205 1.347 . S
C1205 H1197 0.951 . S
C1205 C1200 1.429 . S
C1205 C1204 1.347 . S
H1206 C1207 0.951 . S
C1207 H1206 0.951 . S
C1207 C1213 1.265 . S
H1208 C1213 0.950 . S
H1209 C1217 0.949 . S
H1210 C1218 0.950 . S
H1211 C1219 0.951 . S
H1212 C1220 0.951 . S
C1213 C1207 1.265 . S
C1213 H1208 0.950 . S
C1213 C1214 1.478 . S
C1214 C1213 1.478 . S
C1214 C1215 1.397 . S
C1214 C1231 1.394 . S
C1215 C1214 1.397 . S
C1215 C1216 1.438 . S
C1215 C1220 1.429 . S
C1216 C1215 1.438 . S
C1216 C1217 1.428 . S
C1216 C1229 1.394 . S
C1217 H1209 0.949 . S
C1217 C1216 1.428 . S
C1217 C1218 1.345 . S
C1218 H1210 0.950 . S
C1218 C1217 1.345 . S
C1218 C1219 1.424 . S
C1219 H1211 0.951 . S
C1219 C1218 1.424 . S
C1219 C1220 1.347 . S
C1220 H1212 0.951 . S
C1220 C1215 1.429 . S
C1220 C1219 1.347 . S
H1221 C1222 0.951 . S
C1222 H1221 0.951 . S
C1222 C1228 1.265 . S
H1223 C1228 0.950 . S
H1224 C1232 0.949 . S
H1225 C1233 0.950 . S
H1226 C1234 0.951 . S
H1227 C1235 0.951 . S
C1228 C1222 1.265 . S
C1228 H1223 0.950 . S
C1228 C1229 1.478 . S
C1229 C1216 1.394 . S
C1229 C1228 1.478 . S
C1229 C1230 1.397 . S
C1230 C1229 1.397 . S
C1230 C1231 1.438 . S
C1230 C1235 1.429 . S
C1231 C1214 1.394 . S
C1231 C1230 1.438 . S
C1231 C1232 1.428 . S
C1232 H1224 0.949 . S
C1232 C1231 1.428 . S
C1232 C1233 1.345 . S
C1233 H1225 0.950 . S
C1233 C1232 1.345 . S
C1233 C1234 1.424 . S
C1234 H1226 0.951 . S
C1234 C1233 1.424 . S
C1234 C1235 1.347 . S
C1235 H1227 0.951 . S
C1235 C1230 1.429 . S
C1235 C1234 1.347 . S
H1236 C1237 0.951 . S
C1237 H1236 0.951 . S
C1237 C1243 1.265 . S
H1238 C1243 0.950 . S
H1239 C1247 0.949 . S
H1240 C1248 0.950 . S
H1241 C1249 0.951 . S
H1242 C1250 0.951 . S
C1243 C1237 1.265 . S
C1243 H1238 0.950 . S
C1243 C1244 1.478 . S
C1244 C1243 1.478 . S
C1244 C1245 1.397 . S
C1244 C1261 1.394 . S
C1245 C1244 1.397 . S
C1245 C1246 1.438 . S
C1245 C1250 1.429 . S
C1246 C1245 1.438 . S
C1246 C1247 1.428 . S
C1246 C1259 1.394 . S
C1247 H1239 0.949 . S
C1247 C1246 1.428 . S
C1247 C1248 1.345 . S
C1248 H1240 0.950 . S
C1248 C1247 1.345 . S
C1248 C1249 1.424 . S
C1249 H1241 0.951 . S
C1249 C1248 1.424 . S
C1249 C1250 1.347 . S
C1250 H1242 0.951 . S
C1250 C1245 1.429 . S
C1250 C1249 1.347 . S
H1251 C1252 0.951 . S
C1252 H1251 0.951 . S
C1252 C1258 1.265 . S
H1253 C1258 0.950 . S
H1254 C1262 0.949 . S
H1255 C1263 0.950 . S
H1256 C1264 0.951 . S
H1257 C1265 0.951 . S
C1258 C1252 1.265 . S
C1258 H1253 0.950 . S
C1258 C1259 1.478 . S
C1259 C1246 1.394 . S
C1259 C1258 1.478 . S
C1259 C1260 1.397 . S
C1260 C1259 1.397 . S
C1260 C1261 1.438 . S
C1260 C1265 1.429 . S
C1261 C1244 1.394 . S
C1261 C1260 1.438 . S
C1261 C1262 1.428 . S
C1262 H1254 0.949 . S
C1262 C1261 1.428 . S
C1262 C1263 1.345 . S
C1263 H1255 0.950 . S
C1263 C1262 1.345 . S
C1263 C1264 1.424 . S
C1264 H1256 0.951 . S
C1264 C1263 1.424 . S
C1264 C1265 1.347 . S
C1265 H1257 0.951 . S
C1265 C1260 1.429 . S
C1265 C1264 1.347 . S
H1266 C1267 0.951 . S
C1267 H1266 0.951 . S
C1267 C1273 1.265 . S
H1268 C1273 0.950 . S
H1269 C1277 0.949 . S
H1270 C1278 0.950 . S
H1271 C1279 0.951 . S
H1272 C1280 0.951 . S
C1273 C1267 1.265 . S
C1273 H1268 0.950 . S
C1273 C1274 1.478 . S
C1274 C1273 1.478 . S
C1274 C1275 1.397 . S
C1274 C1291 1.394 . S
C1275 C1274 1.397 . S
C1275 C1276 1.438 . S
C1275 C1280 1.429 . S
C1276 C1275 1.438 . S
C1276 C1277 1.428 . S
C1276 C1289 1.394 . S
C1277 H1269 0.949 . S
C1277 C1276 1.428 . S
C1277 C1278 1.345 . S
C1278 H1270 0.950 . S
C1278 C1277 1.345 . S
C1278 C1279 1.424 . S
C1279 H1271 0.951 . S
C1279 C1278 1.424 . S
C1279 C1280 1.347 . S
C1280 H1272 0.951 . S
C1280 C1275 1.429 . S
C1280 C1279 1.347 . S
H1281 C1282 0.951 . S
C1282 H1281 0.951 . S
C1282 C1288 1.265 . S
H1283 C1288 0.950 . S
H1284 C1292 0.949 . S
H1285 C1293 0.950 . S
H1286 C1294 0.951 . S
H1287 C1295 0.951 . S
C1288 C1282 1.265 . S
C1288 H1283 0.950 . S
C1288 C1289 1.478 . S
C1289 C1276 1.394 . S
C1289 C1288 1.478 . S
C1289 C1290 1.397 . S
C1290 C1289 1.397 . S
C1290 C1291 1.438 . S
C1290 C1295 1.429 . S
C1291 C1274 1.394 . S
C1291 C1290 1.438 . S
C1291 C1292 1.428 . S
C1292 H1284 0.949 . S
C1292 C1291 1.428 . S
C1292 C1293 1.345 . S
C1293 H1285 0.950 . S
C1293 C1292 1.345 . S
C1293 C1294 1.424 . S
C1294 H1286 0.951 . S
C1294 C1293 1.424 . S
C1294 C1295 1.347 . S
C1295 H1287 0.951 . S
C1295 C1290 1.429 . S
C1295 C1294 1.347 . S
H1296 C1297 0.951 . S
C1297 H1296 0.951 . S
C1297 C1303 1.265 . S
H1298 C1303 0.950 . S
H1299 C1307 0.949 . S
H1300 C1308 0.950 . S
H1301 C1309 0.951 . S
H1302 C1310 0.951 . S
C1303 C1297 1.265 . S
C1303 H1298 0.950 . S
C1303 C1304 1.478 . S
C1304 C1303 1.478 . S
C1304 C1305 1.397 . S
C1304 C1321 1.394 . S
C1305 C1304 1.397 . S
C1305 C1306 1.438 . S
C1305 C1310 1.429 . S
C1306 C1305 1.438 . S
C1306 C1307 1.428 . S
C1306 C1319 1.394 . S
C1307 H1299 0.949 . S
C1307 C1306 1.428 . S
C1307 C1308 1.345 . S
C1308 H1300 0.950 . S
C1308 C1307 1.345 . S
C1308 C1309 1.424 . S
C1309 H1301 0.951 . S
C1309 C1308 1.424 . S
C1309 C1310 1.347 . S
C1310 H1302 0.951 . S
C1310 C1305 1.429 . S
C1310 C1309 1.347 . S
H1311 C1312 0.951 . S
C1312 H1311 0.951 . S
C1312 C1318 1.265 . S
H1313 C1318 0.950 . S
H1314 C1322 0.949 . S
H1315 C1323 0.950 . S
H1316 C1324 0.951 . S
H1317 C1325 0.951 . S
C1318 C1312 1.265 . S
C1318 H1313 0.950 . S
C1318 C1319 1.478 . S
C1319 C1306 1.394 . S
C1319 C1318 1.478 . S
C1319 C1320 1.397 . S
C1320 C1319 1.397 . S
C1320 C1321 1.438 . S
C1320 C1325 1.429 . S
C1321 C1304 1.394 . S
C1321 C1320 1.438 . S
C1321 C1322 1.428 . S
C1322 H1314 0.949 . S
C1322 C1321 1.428 . S
C1322 C1323 1.345 . S
C1323 H1315 0.950 . S
C1323 C1322 1.345 . S
C1323 C1324 1.424 . S
C1324 H1316 0.951 . S
C1324 C1323 1.424 . S
C1324 C1325 1.347 . S
C1325 H1317 0.951 . S
C1325 C1320 1.429 . S
C1325 C1324 1.347 . S
H1326 C1327 0.951 . S
C1327 H1326 0.951 . S
C1327 C1333 1.265 . S
H1328 C1333 0.950 . S
H1329 C1337 0.949 . S
H1330 C1338 0.950 . S
H1331 C1339 0.951 . S
H1332 C1340 0.951 . S
C1333 C1327 1.265 . S
C1333 H1328 0.950 . S
C1333 C1334 1.478 . S
C1334 C1333 1.478 . S
C1334 C1335 1.397 . S
C1334 C1351 1.394 . S
C1335 C1334 1.397 . S
C1335 C1336 1.438 . S
C1335 C1340 1.429 . S
C1336 C1335 1.438 . S
C1336 C1337 1.428 . S
C1336 C1349 1.394 . S
C1337 H1329 0.949 . S
C1337 C1336 1.428 . S
C1337 C1338 1.345 . S
C1338 H1330 0.950 . S
C1338 C1337 1.345 . S
C1338 C1339 1.424 . S
C1339 H1331 0.951 . S
C1339 C1338 1.424 . S
C1339 C1340 1.347 . S
C1340 H1332 0.951 . S
C1340 C1335 1.429 . S
C1340 C1339 1.347 . S
H1341 C1342 0.951 . S
C1342 H1341 0.951 . S
C1342 C1348 1.265 . S
H1343 C1348 0.950 . S
H1344 C1352 0.949 . S
H1345 C1353 0.950 . S
H1346 C1354 0.951 . S
H1347 C1355 0.951 . S
C1348 C1342 1.265 . S
C1348 H1343 0.950 . S
C1348 C1349 1.478 . S
C1349 C1336 1.394 . S
C1349 C1348 1.478 . S
C1349 C1350 1.397 . S
C1350 C1349 1.397 . S
C1350 C1351 1.438 . S
C1350 C1355 1.429 . S
C1351 C1334 1.394 . S
C1351 C1350 1.438 . S
C1351 C1352 1.428 . S
C1352 H1344 0.949 . S
C1352 C1351 1.428 . S
C1352 C1353 1.345 . S
C1353 H1345 0.950 . S
C1353 C1352 1.345 . S
C1353 C1354 1.424 . S
C1354 H1346 0.951 . S
C1354 C1353 1.424 . S
C1354 C1355 1.347 . S
C1355 H1347 0.951 . S
C1355 C1350 1.429 . S
C1355 C1354 1.347 . S
C277 C63 0.978 . S
C292 C21 0.857 . S
C307 C86 0.868 . S
C322 C44 0.784 . S
C337 C67 0.971 . S
C352 C109 0.845 . S
C367 C90 0.813 . S
C382 C132 0.930 . S
C397 C17 0.975 . S
C412 C113 0.857 . S
C427 C40 0.789 . S
C442 C136 0.919 . S
C457 C247 0.776 . S
C472 C159 0.890 . S
C487 C182 0.970 . S
C502 C270 0.847 . S
C517 C205 0.913 . S
C532 C155 0.783 . S
C547 C228 0.972 . S
C562 C178 0.839 . S
C577 C251 0.781 . S
C592 C201 0.903 . S
C607 C224 0.978 . S
C622 C274 0.857 . S
C637 C88 1.502 . S
C652 C20 1.499 . S
C667 C42 1.474 . S
C682 C112 1.517 . S
C697 C66 1.471 . S
C712 C134 1.515 . S
C727 C157 1.468 . S
C742 C227 1.519 . S
C757 C181 1.478 . S
C772 C249 1.468 . S
C787 C203 1.516 . S
C802 C273 1.473 . S
C817 C180 1.502 . S
C832 C19 1.522 . S
C847 C43 1.525 . S
C862 C204 1.533 . S
C877 C226 1.514 . S
C892 C65 1.530 . S
C907 C89 1.526 . S
C922 C250 1.542 . S
C937 C111 1.513 . S
C952 C272 1.531 . S
C967 C158 1.525 . S
C982 C135 1.534 . S
C997 C62 1.146 . S
C1012 C18 1.139 . S
C1027 C41 1.178 . S
C1042 C85 1.188 . S
C1057 C64 1.112 . S
C1072 C108 1.140 . S
C1087 C87 1.155 . S
C1102 C131 1.177 . S
C1117 C16 1.144 . S
C1132 C110 1.146 . S
C1147 C39 1.180 . S
C1162 C133 1.162 . S
C1177 C246 1.181 . S
C1192 C156 1.179 . S
C1207 C179 1.146 . S
C1222 C269 1.144 . S
C1237 C202 1.158 . S
C1252 C154 1.178 . S
C1267 C177 1.139 . S
C1282 C225 1.114 . S
C1297 C248 1.192 . S
C1312 C200 1.189 . S
C1327 C271 1.144 . S
C1342 C223 1.145 . S
