# Generated by pormake.
# Topology gme, (4)-cn, num edge types: 1
# Building blocks:
#     Node 0, Type 0, BuildingBlock: NAHDIM_clean_sbu_0, # of connection points: 4
#     Node 1, Type 0, BuildingBlock: NAHDIM_clean_sbu_0, # of connection points: 4
#     Node 2, Type 0, BuildingBlock: NAHDIM_clean_sbu_0, # of connection points: 4
#     Node 3, Type 0, BuildingBlock: NAHDIM_clean_sbu_0, # of connection points: 4
#     Node 4, Type 0, BuildingBlock: NAHDIM_clean_sbu_0, # of connection points: 4
#     Node 5, Type 0, BuildingBlock: NAHDIM_clean_sbu_0, # of connection points: 4
#     Node 6, Type 0, BuildingBlock: NAHDIM_clean_sbu_0, # of connection points: 4
#     Node 7, Type 0, BuildingBlock: NAHDIM_clean_sbu_0, # of connection points: 4
#     Node 8, Type 0, BuildingBlock: NAHDIM_clean_sbu_0, # of connection points: 4
#     Node 9, Type 0, BuildingBlock: NAHDIM_clean_sbu_0, # of connection points: 4
#     Node 10, Type 0, BuildingBlock: NAHDIM_clean_sbu_0, # of connection points: 4
#     Node 11, Type 0, BuildingBlock: NAHDIM_clean_sbu_0, # of connection points: 4
#     Node 12, Type 0, BuildingBlock: NAHDIM_clean_sbu_0, # of connection points: 4
#     Node 13, Type 0, BuildingBlock: NAHDIM_clean_sbu_0, # of connection points: 4
#     Node 14, Type 0, BuildingBlock: NAHDIM_clean_sbu_0, # of connection points: 4
#     Node 15, Type 0, BuildingBlock: NAHDIM_clean_sbu_0, # of connection points: 4
#     Node 16, Type 0, BuildingBlock: NAHDIM_clean_sbu_0, # of connection points: 4
#     Node 17, Type 0, BuildingBlock: NAHDIM_clean_sbu_0, # of connection points: 4
#     Node 18, Type 0, BuildingBlock: NAHDIM_clean_sbu_0, # of connection points: 4
#     Node 19, Type 0, BuildingBlock: NAHDIM_clean_sbu_0, # of connection points: 4
#     Node 20, Type 0, BuildingBlock: NAHDIM_clean_sbu_0, # of connection points: 4
#     Node 21, Type 0, BuildingBlock: NAHDIM_clean_sbu_0, # of connection points: 4
#     Node 22, Type 0, BuildingBlock: NAHDIM_clean_sbu_0, # of connection points: 4
#     Node 23, Type 0, BuildingBlock: NAHDIM_clean_sbu_0, # of connection points: 4
#     Edge 24, Type (0, 0), BuildingBlock: TEMPAE_clean_linker_10, # of connection points: 2
#     Edge 25, Type (0, 0), BuildingBlock: TEMPAE_clean_linker_10, # of connection points: 2
#     Edge 26, Type (0, 0), BuildingBlock: TEMPAE_clean_linker_10, # of connection points: 2
#     Edge 27, Type (0, 0), BuildingBlock: TEMPAE_clean_linker_10, # of connection points: 2
#     Edge 28, Type (0, 0), BuildingBlock: TEMPAE_clean_linker_10, # of connection points: 2
#     Edge 29, Type (0, 0), BuildingBlock: TEMPAE_clean_linker_10, # of connection points: 2
#     Edge 30, Type (0, 0), BuildingBlock: TEMPAE_clean_linker_10, # of connection points: 2
#     Edge 31, Type (0, 0), BuildingBlock: TEMPAE_clean_linker_10, # of connection points: 2
#     Edge 32, Type (0, 0), BuildingBlock: TEMPAE_clean_linker_10, # of connection points: 2
#     Edge 33, Type (0, 0), BuildingBlock: TEMPAE_clean_linker_10, # of connection points: 2
#     Edge 34, Type (0, 0), BuildingBlock: TEMPAE_clean_linker_10, # of connection points: 2
#     Edge 35, Type (0, 0), BuildingBlock: TEMPAE_clean_linker_10, # of connection points: 2
#     Edge 36, Type (0, 0), BuildingBlock: TEMPAE_clean_linker_10, # of connection points: 2
#     Edge 37, Type (0, 0), BuildingBlock: TEMPAE_clean_linker_10, # of connection points: 2
#     Edge 38, Type (0, 0), BuildingBlock: TEMPAE_clean_linker_10, # of connection points: 2
#     Edge 39, Type (0, 0), BuildingBlock: TEMPAE_clean_linker_10, # of connection points: 2
#     Edge 40, Type (0, 0), BuildingBlock: TEMPAE_clean_linker_10, # of connection points: 2
#     Edge 41, Type (0, 0), BuildingBlock: TEMPAE_clean_linker_10, # of connection points: 2
#     Edge 42, Type (0, 0), BuildingBlock: TEMPAE_clean_linker_10, # of connection points: 2
#     Edge 43, Type (0, 0), BuildingBlock: TEMPAE_clean_linker_10, # of connection points: 2
#     Edge 44, Type (0, 0), BuildingBlock: TEMPAE_clean_linker_10, # of connection points: 2
#     Edge 45, Type (0, 0), BuildingBlock: TEMPAE_clean_linker_10, # of connection points: 2
#     Edge 46, Type (0, 0), BuildingBlock: TEMPAE_clean_linker_10, # of connection points: 2
#     Edge 47, Type (0, 0), BuildingBlock: TEMPAE_clean_linker_10, # of connection points: 2
#     Edge 48, Type (0, 0), BuildingBlock: TEMPAE_clean_linker_10, # of connection points: 2
#     Edge 49, Type (0, 0), BuildingBlock: TEMPAE_clean_linker_10, # of connection points: 2
#     Edge 50, Type (0, 0), BuildingBlock: TEMPAE_clean_linker_10, # of connection points: 2
#     Edge 51, Type (0, 0), BuildingBlock: TEMPAE_clean_linker_10, # of connection points: 2
#     Edge 52, Type (0, 0), BuildingBlock: TEMPAE_clean_linker_10, # of connection points: 2
#     Edge 53, Type (0, 0), BuildingBlock: TEMPAE_clean_linker_10, # of connection points: 2
#     Edge 54, Type (0, 0), BuildingBlock: TEMPAE_clean_linker_10, # of connection points: 2
#     Edge 55, Type (0, 0), BuildingBlock: TEMPAE_clean_linker_10, # of connection points: 2
#     Edge 56, Type (0, 0), BuildingBlock: TEMPAE_clean_linker_10, # of connection points: 2
#     Edge 57, Type (0, 0), BuildingBlock: TEMPAE_clean_linker_10, # of connection points: 2
#     Edge 58, Type (0, 0), BuildingBlock: TEMPAE_clean_linker_10, # of connection points: 2
#     Edge 59, Type (0, 0), BuildingBlock: TEMPAE_clean_linker_10, # of connection points: 2
#     Edge 60, Type (0, 0), BuildingBlock: TEMPAE_clean_linker_10, # of connection points: 2
#     Edge 61, Type (0, 0), BuildingBlock: TEMPAE_clean_linker_10, # of connection points: 2
#     Edge 62, Type (0, 0), BuildingBlock: TEMPAE_clean_linker_10, # of connection points: 2
#     Edge 63, Type (0, 0), BuildingBlock: TEMPAE_clean_linker_10, # of connection points: 2
#     Edge 64, Type (0, 0), BuildingBlock: TEMPAE_clean_linker_10, # of connection points: 2
#     Edge 65, Type (0, 0), BuildingBlock: TEMPAE_clean_linker_10, # of connection points: 2
#     Edge 66, Type (0, 0), BuildingBlock: TEMPAE_clean_linker_10, # of connection points: 2
#     Edge 67, Type (0, 0), BuildingBlock: TEMPAE_clean_linker_10, # of connection points: 2
#     Edge 68, Type (0, 0), BuildingBlock: TEMPAE_clean_linker_10, # of connection points: 2
#     Edge 69, Type (0, 0), BuildingBlock: TEMPAE_clean_linker_10, # of connection points: 2
#     Edge 70, Type (0, 0), BuildingBlock: TEMPAE_clean_linker_10, # of connection points: 2
#     Edge 71, Type (0, 0), BuildingBlock: TEMPAE_clean_linker_10, # of connection points: 2
# Relax obj value: 0.157
# Max RMSD: 0.150
# Mean RMSD: 0.150
data_MOF--net-gme--node1-NAHDIM_clean_sbu_0--edge1-TEMPAE_clean_linker_10
_symmetry_space_group_name_H-M    P1
_symmetry_Int_Tables_number       1
_symmetry_cell_setting            triclinic
loop_
_symmetry_equiv_pos_as_xyz
'x, y, z'
_cell_length_a     62.755119
_cell_length_b     62.767115
_cell_length_c     51.587643
_cell_angle_alpha  89.982996
_cell_angle_beta   90.096006
_cell_angle_gamma 120.02427
loop_
_atom_site_label
_atom_site_type_symbol
_atom_site_fract_x
_atom_site_fract_y
_atom_site_fract_z
_atom_type_partial_charge
C0 C 0.39008 0.06556 0.05242 0.0
O1 O 0.40916 0.08723 0.0472 0.0
O2 O 0.41141 0.11665 0.09304 0.0
Zn3 Zn 0.40764 0.08376 0.1019 0.0
O4 O 0.4401 0.08486 0.09899 0.0
C5 C 0.38895 0.08717 0.15194 0.0
O6 O 0.38899 0.10616 0.14118 0.0
O7 O 0.38475 0.05923 0.07598 0.0
C8 C 0.45624 0.09387 0.11681 0.0
O9 O 0.45177 0.10308 0.1376 0.0
C10 C 0.4315 0.13564 0.08672 0.0
O11 O 0.45183 0.13453 0.08575 0.0
O12 O 0.39524 0.07426 0.13849 0.0
C13 C 0.33508 0.42517 0.53516 0.0
O14 O 0.33849 0.44696 0.5289 0.0
O15 O 0.28437 0.43356 0.56765 0.0
Zn16 Zn 0.31483 0.43406 0.58038 0.0
O17 O 0.3431 0.46864 0.58403 0.0
C18 C 0.30391 0.42916 0.63384 0.0
O19 O 0.30245 0.4489 0.62866 0.0
O20 O 0.32456 0.41548 0.55643 0.0
C21 C 0.36275 0.47148 0.59434 0.0
O22 O 0.36374 0.45191 0.60153 0.0
C23 C 0.28369 0.4531 0.56306 0.0
O24 O 0.30381 0.47454 0.56583 0.0
O25 O 0.30847 0.41856 0.61551 0.0
C26 C 0.94115 0.32616 0.07872 0.0
O27 O 0.9286 0.33757 0.07555 0.0
O28 O 0.87489 0.27769 0.10467 0.0
Zn29 Zn 0.90653 0.30484 0.11917 0.0
O30 O 0.90487 0.33601 0.12076 0.0
C31 C 0.89154 0.28545 0.16964 0.0
O32 O 0.86997 0.27794 0.15881 0.0
O33 O 0.93504 0.3104 0.09678 0.0
C34 C 0.88498 0.33623 0.1245 0.0
O35 O 0.86434 0.3153 0.12752 0.0
C36 C 0.86514 0.27938 0.08374 0.0
O37 O 0.8767 0.29943 0.06966 0.0
O38 O 0.91079 0.29684 0.15584 0.0
C39 C 0.63372 0.94867 0.55962 0.0
O40 O 0.63222 0.92711 0.56171 0.0
O41 O 0.58991 0.89565 0.59351 0.0
Zn42 Zn 0.59497 0.92948 0.59828 0.0
O43 O 0.56249 0.92743 0.59172 0.0
C44 C 0.61549 0.93146 0.64874 0.0
O45 O 0.62496 0.91951 0.63707 0.0
O46 O 0.62023 0.95363 0.57381 0.0
C47 C 0.54497 0.91378 0.60689 0.0
O48 O 0.54912 0.90211 0.62562 0.0
C49 C 0.5775 0.88199 0.57471 0.0
O50 O 0.56869 0.89066 0.5571 0.0
O51 O 0.60356 0.93904 0.63543 0.0
C52 C 0.66233 0.58561 0.05719 0.0
O53 O 0.65713 0.56318 0.05113 0.0
O54 O 0.69606 0.56298 0.10019 0.0
Zn55 Zn 0.66746 0.56832 0.10568 0.0
O56 O 0.63527 0.53684 0.10166 0.0
C57 C 0.68917 0.59634 0.15224 0.0
O58 O 0.70892 0.60772 0.13768 0.0
O59 O 0.66827 0.59292 0.08042 0.0
C60 C 0.63165 0.51647 0.11072 0.0
O61 O 0.6497 0.5156 0.12267 0.0
C62 C 0.69662 0.54733 0.08502 0.0
O63 O 0.67733 0.5333 0.0706 0.0
O64 O 0.66925 0.57967 0.14224 0.0
C65 C 0.06004 0.68428 0.5814 0.0
O66 O 0.08173 0.7043 0.58294 0.0
O67 O 0.11195 0.69294 0.61733 0.0
Zn68 Zn 0.0771 0.66693 0.62475 0.0
O69 O 0.07447 0.63381 0.62301 0.0
C70 C 0.08082 0.6903 0.67409 0.0
O71 O 0.10037 0.7087 0.66343 0.0
O72 O 0.05425 0.66715 0.59782 0.0
C73 C 0.0863 0.62781 0.63855 0.0
O74 O 0.10087 0.64385 0.65589 0.0
C75 C 0.12473 0.69082 0.59954 0.0
O76 O 0.1149 0.6709 0.58509 0.0
O77 O 0.06752 0.67111 0.66074 0.0
C78 C 0.95915 0.6198 0.42142 0.0
O79 O 0.96545 0.60745 0.40565 0.0
O80 O 0.87924 0.58351 0.40425 0.0
Zn81 Zn 0.91329 0.59057 0.39616 0.0
O82 O 0.91413 0.55925 0.40056 0.0
C83 C 0.90793 0.60681 0.34545 0.0
O84 O 0.88926 0.60721 0.35643 0.0
O85 O 0.93736 0.61614 0.42042 0.0
C86 C 0.90078 0.54135 0.38562 0.0
O87 O 0.88702 0.54408 0.3682 0.0
C88 C 0.87119 0.5824 0.42707 0.0
O89 O 0.88576 0.58619 0.44697 0.0
O90 O 0.92137 0.60124 0.35901 0.0
C91 C 0.32734 0.93611 0.91472 0.0
O92 O 0.33636 0.92127 0.91653 0.0
O93 O 0.27695 0.87465 0.88309 0.0
Zn94 Zn 0.30608 0.90606 0.8708 0.0
O95 O 0.33548 0.9014 0.86989 0.0
C96 C 0.28533 0.89617 0.81992 0.0
O97 O 0.27234 0.87409 0.82997 0.0
O98 O 0.31311 0.93346 0.89589 0.0
C99 C 0.33494 0.88204 0.86176 0.0
O100 O 0.31428 0.86393 0.85246 0.0
C101 C 0.27854 0.86204 0.90148 0.0
O102 O 0.29958 0.87031 0.91376 0.0
O103 O 0.30054 0.9137 0.83429 0.0
C104 C 0.41908 0.35475 0.42854 0.0
O105 O 0.44242 0.36253 0.43334 0.0
O106 O 0.43661 0.30973 0.39454 0.0
Zn107 Zn 0.4308 0.33705 0.38337 0.0
O108 O 0.46297 0.36878 0.3811 0.0
C109 C 0.42267 0.32009 0.33125 0.0
O110 O 0.44057 0.31589 0.33735 0.0
O111 O 0.40935 0.34221 0.40819 0.0
C112 C 0.48334 0.37029 0.37532 0.0
O113 O 0.48397 0.35011 0.37015 0.0
C114 C 0.42852 0.29703 0.4151 0.0
O115 O 0.41526 0.30167 0.43134 0.0
O116 O 0.41486 0.32913 0.34827 0.0
C117 C 0.08278 0.38673 0.95726 0.0
O118 O 0.10438 0.40498 0.96432 0.0
O119 O 0.13453 0.41131 0.91292 0.0
Zn120 Zn 0.1013 0.40816 0.90839 0.0
O121 O 0.1027 0.44042 0.91475 0.0
C122 C 0.0979 0.38898 0.85618 0.0
O123 O 0.11415 0.38317 0.86447 0.0
O124 O 0.07729 0.38363 0.93333 0.0
C125 C 0.11123 0.45685 0.89724 0.0
O126 O 0.12013 0.4528 0.87595 0.0
C127 C 0.15311 0.43043 0.92196 0.0
O128 O 0.15084 0.44926 0.92915 0.0
O129 O 0.08951 0.39859 0.87184 0.0
C130 C 0.68607 0.06 0.40817 0.0
O131 O 0.70823 0.07816 0.40275 0.0
O132 O 0.70084 0.11974 0.39057 0.0
Zn133 Zn 0.67073 0.08896 0.37872 0.0
O134 O 0.64076 0.09217 0.38437 0.0
C135 C 0.69206 0.09135 0.32781 0.0
O136 O 0.71333 0.10247 0.33995 0.0
O137 O 0.66742 0.06045 0.39922 0.0
C138 C 0.64149 0.11254 0.38055 0.0
O139 O 0.66234 0.13184 0.37353 0.0
C140 C 0.70109 0.12933 0.41234 0.0
O141 O 0.68135 0.11897 0.427 0.0
O142 O 0.67234 0.08378 0.34068 0.0
C143 C 0.59839 0.6659 0.93767 0.0
O144 O 0.57663 0.66261 0.94376 0.0
O145 O 0.58205 0.70851 0.90336 0.0
Zn146 Zn 0.58459 0.67934 0.8919 0.0
O147 O 0.55118 0.64898 0.89252 0.0
C148 C 0.60721 0.70367 0.84276 0.0
O149 O 0.61603 0.72445 0.85564 0.0
O150 O 0.60699 0.67402 0.91528 0.0
C151 C 0.5487 0.63009 0.88076 0.0
O152 O 0.56803 0.63111 0.8697 0.0
C153 C 0.56403 0.70623 0.91673 0.0
O154 O 0.54679 0.68417 0.92391 0.0
O155 O 0.59509 0.68341 0.85476 0.0
C156 C 0.57927 0.92656 0.91327 0.0
O157 O 0.59292 0.92024 0.89964 0.0
O158 O 0.53888 0.85884 0.89161 0.0
Zn159 Zn 0.5409 0.89051 0.88115 0.0
O160 O 0.50729 0.88503 0.87326 0.0
C161 C 0.55414 0.8883 0.82955 0.0
O162 O 0.5342 0.86661 0.83167 0.0
O163 O 0.55629 0.91595 0.9089 0.0
C164 C 0.4898 0.8746 0.88942 0.0
O165 O 0.49382 0.86695 0.91163 0.0
C166 C 0.54306 0.85387 0.91427 0.0
O167 O 0.54858 0.87 0.93298 0.0
O168 O 0.56126 0.90265 0.84897 0.0
C169 C 0.65237 0.59037 0.43871 0.0
O170 O 0.64887 0.56843 0.44436 0.0
O171 O 0.70563 0.58476 0.41178 0.0
Zn172 Zn 0.67546 0.58261 0.396 0.0
O173 O 0.64838 0.54721 0.39341 0.0
C174 C 0.69404 0.58859 0.34538 0.0
O175 O 0.6993 0.57223 0.35461 0.0
O176 O 0.66391 0.60092 0.41814 0.0
C177 C 0.63325 0.53971 0.3746 0.0
O178 O 0.63548 0.55533 0.35639 0.0
C179 C 0.70551 0.56734 0.42442 0.0
O180 O 0.68459 0.54686 0.4282 0.0
O181 O 0.6838 0.59695 0.36021 0.0
C182 C 0.06133 0.65781 0.94716 0.0
O183 O 0.0801 0.68038 0.94789 0.0
O184 O 0.12078 0.6813 0.92094 0.0
Zn185 Zn 0.09132 0.64964 0.91032 0.0
O186 O 0.09871 0.62212 0.91306 0.0
C187 C 0.07642 0.66721 0.866 0.0
O188 O 0.07169 0.67942 0.88357 0.0
O189 O 0.06221 0.64205 0.93243 0.0
C190 C 0.08281 0.60111 0.90449 0.0
O191 O 0.06219 0.59823 0.89469 0.0
C192 C 0.14081 0.68754 0.90921 0.0
O193 O 0.14139 0.67249 0.89189 0.0
O194 O 0.08432 0.65304 0.87316 0.0
C195 C 0.41902 0.06965 0.43533 0.0
O196 O 0.43998 0.08805 0.44367 0.0
O197 O 0.42934 0.12897 0.40184 0.0
Zn198 Zn 0.43295 0.1003 0.39103 0.0
O199 O 0.46812 0.10806 0.39467 0.0
C200 C 0.40115 0.08294 0.34529 0.0
O201 O 0.38295 0.0757 0.36187 0.0
O202 O 0.41152 0.07081 0.41279 0.0
C203 C 0.48254 0.11507 0.37531 0.0
O204 O 0.47463 0.11828 0.35286 0.0
C205 C 0.44384 0.14569 0.41737 0.0
O206 O 0.46225 0.14431 0.42774 0.0
O207 O 0.42313 0.09314 0.35366 0.0
C208 C 0.3297 0.3839 0.9032 0.0
O209 O 0.30749 0.38015 0.89852 0.0
O210 O 0.31853 0.43107 0.87861 0.0
Zn211 Zn 0.34654 0.42616 0.86863 0.0
O212 O 0.37799 0.45793 0.87351 0.0
C213 C 0.32141 0.40245 0.82182 0.0
O214 O 0.30246 0.39213 0.83757 0.0
O215 O 0.34801 0.40129 0.89164 0.0
C216 C 0.38342 0.47659 0.85949 0.0
O217 O 0.36799 0.47498 0.84131 0.0
C218 C 0.3139 0.4343 0.90177 0.0
O219 O 0.32807 0.43454 0.92068 0.0
O220 O 0.34264 0.41679 0.83113 0.0
C221 C 0.92068 0.32033 0.43851 0.0
O222 O 0.9053 0.29744 0.43187 0.0
O223 O 0.85815 0.30461 0.41419 0.0
Zn224 Zn 0.89105 0.33345 0.40508 0.0
O225 O 0.88905 0.36438 0.40555 0.0
C226 C 0.89614 0.3075 0.36156 0.0
O227 O 0.88871 0.28947 0.37839 0.0
O228 O 0.91776 0.33755 0.42951 0.0
C229 C 0.90558 0.38321 0.3938 0.0
O230 O 0.92335 0.38176 0.38199 0.0
C231 C 0.85117 0.29411 0.43608 0.0
O232 O 0.86609 0.30253 0.45611 0.0
O233 O 0.89893 0.32808 0.36886 0.0
C234 C 0.04872 0.3812 0.57765 0.0
O235 O 0.06871 0.37943 0.57784 0.0
O236 O 0.10733 0.42449 0.60293 0.0
Zn237 Zn 0.07513 0.41967 0.61559 0.0
O238 O 0.07738 0.45271 0.61612 0.0
C239 C 0.08777 0.42028 0.66746 0.0
O240 O 0.10607 0.44117 0.6589 0.0
O241 O 0.04738 0.39666 0.59247 0.0
C242 C 0.06378 0.45708 0.63079 0.0
O243 O 0.04743 0.43935 0.64551 0.0
C244 C 0.11648 0.43285 0.58076 0.0
O245 O 0.10406 0.43821 0.56403 0.0
O246 O 0.07063 0.40666 0.65185 0.0
C247 C 0.64848 0.06889 0.03777 0.0
O248 O 0.65303 0.09046 0.02913 0.0
O249 O 0.6885 0.12461 0.07016 0.0
Zn250 Zn 0.65894 0.09503 0.08476 0.0
O251 O 0.62994 0.10024 0.08736 0.0
C252 C 0.67334 0.10625 0.13688 0.0
O253 O 0.67334 0.12629 0.1295 0.0
O254 O 0.65001 0.06607 0.06194 0.0
C255 C 0.61113 0.08399 0.09936 0.0
O256 O 0.6116 0.06487 0.10907 0.0
C257 C 0.69084 0.1459 0.06934 0.0
O258 O 0.67272 0.14897 0.07743 0.0
O259 O 0.66756 0.0891 0.1205 0.0
C260 C 0.57606 0.66244 0.55487 0.0
O261 O 0.55522 0.66106 0.54804 0.0
O262 O 0.56307 0.70646 0.58731 0.0
Zn263 Zn 0.56319 0.67663 0.60093 0.0
O264 O 0.52927 0.64676 0.59973 0.0
C265 C 0.57195 0.69564 0.65279 0.0
O266 O 0.55728 0.70371 0.64514 0.0
O267 O 0.58422 0.6695 0.57766 0.0
C268 C 0.51421 0.63784 0.61846 0.0
O269 O 0.5202 0.64885 0.64113 0.0
C270 C 0.54412 0.70881 0.5871 0.0
O271 O 0.52314 0.6908 0.5958 0.0
O272 O 0.57714 0.68328 0.63712 0.0
C273 C 0.92327 0.58352 0.07501 0.0
O274 O 0.90332 0.58536 0.0743 0.0
O275 O 0.86435 0.54212 0.09854 0.0
Zn276 Zn 0.89546 0.54472 0.11196 0.0
O277 O 0.8924 0.51123 0.1113 0.0
C278 C 0.90847 0.57964 0.15448 0.0
O279 O 0.91432 0.59609 0.13606 0.0
O280 O 0.92396 0.56769 0.08981 0.0
C281 C 0.89027 0.49931 0.13198 0.0
O282 O 0.88997 0.509 0.15444 0.0
C283 C 0.8441 0.52728 0.10934 0.0
O284 O 0.84409 0.51356 0.12859 0.0
O285 O 0.90056 0.5573 0.14844 0.0
C286 C 0.34331 0.91379 0.53958 0.0
O287 O 0.34865 0.89676 0.53306 0.0
O288 O 0.30006 0.85321 0.57503 0.0
Zn289 Zn 0.32932 0.88533 0.58526 0.0
O290 O 0.36047 0.88372 0.58468 0.0
C291 C 0.30864 0.89898 0.62827 0.0
O292 O 0.29527 0.90158 0.61028 0.0
O293 O 0.33364 0.91246 0.56156 0.0
C294 C 0.37942 0.90264 0.59346 0.0
O295 O 0.37719 0.92118 0.60194 0.0
C296 C 0.29649 0.83388 0.5867 0.0
O297 O 0.31292 0.83554 0.60365 0.0
O298 O 0.32419 0.89264 0.62175 0.0
C299 C 0.38604 0.34254 0.066 0.0
O300 O 0.39308 0.35907 0.08454 0.0
O301 O 0.41961 0.29874 0.0934 0.0
Zn302 Zn 0.41541 0.32815 0.09508 0.0
O303 O 0.44893 0.35826 0.09151 0.0
C304 C 0.38749 0.3093 0.14225 0.0
O305 O 0.37842 0.28803 0.13026 0.0
O306 O 0.39311 0.32681 0.06665 0.0
C307 C 0.46183 0.36724 0.11186 0.0
O308 O 0.45283 0.35673 0.13432 0.0
C309 C 0.4249 0.2917 0.07255 0.0
O310 O 0.42734 0.30386 0.05099 0.0
O311 O 0.4021 0.32884 0.13013 0.0
C312 C 0.37243 0.06914 0.30713 0.0
C313 C 0.3965 0.08057 0.317 0.0
C314 C 0.36809 0.06784 0.28029 0.0
C315 C 0.38831 0.07838 0.26302 0.0
C316 C 0.41261 0.0896 0.27288 0.0
C317 C 0.41639 0.09048 0.2997 0.0
C318 C 0.34194 0.05555 0.27041 0.0
C319 C 0.43468 0.10115 0.2551 0.0
C320 C 0.38413 0.06229 0.19171 0.0
C321 C 0.38504 0.08298 0.1802 0.0
C322 C 0.38366 0.05977 0.21876 0.0
C323 C 0.3844 0.07852 0.23463 0.0
C324 C 0.38402 0.0988 0.22311 0.0
C325 C 0.38421 0.10072 0.19602 0.0
C326 C 0.38371 0.0377 0.23035 0.0
C327 C 0.38495 0.11926 0.23937 0.0
H328 H 0.35696 0.06138 0.32037 0.0
H329 H 0.43506 0.09933 0.30711 0.0
H330 H 0.33867 0.06922 0.26021 0.0
H331 H 0.3388 0.04103 0.25614 0.0
H332 H 0.32826 0.04714 0.28627 0.0
H333 H 0.45235 0.1088 0.26588 0.0
H334 H 0.43369 0.08731 0.24104 0.0
H335 H 0.43472 0.11621 0.24379 0.0
H336 H 0.38454 0.04838 0.1796 0.0
H337 H 0.38483 0.11673 0.1873 0.0
H338 H 0.36972 0.02946 0.24591 0.0
H339 H 0.40192 0.04357 0.23928 0.0
H340 H 0.37998 0.02335 0.2156 0.0
H341 H 0.37067 0.11162 0.2547 0.0
H342 H 0.38222 0.13252 0.22758 0.0
H343 H 0.40309 0.12943 0.24919 0.0
C344 C 0.30064 0.43451 0.68133 0.0
C345 C 0.30279 0.42096 0.66094 0.0
C346 C 0.30202 0.42851 0.70721 0.0
C347 C 0.30551 0.40838 0.71282 0.0
C348 C 0.3066 0.39394 0.69238 0.0
C349 C 0.30529 0.40045 0.66663 0.0
C350 C 0.30076 0.44435 0.72852 0.0
C351 C 0.31007 0.37221 0.69766 0.0
C352 C 0.33761 0.41443 0.77681 0.0
C353 C 0.31764 0.40077 0.7934 0.0
C354 C 0.33398 0.41612 0.75025 0.0
C355 C 0.30979 0.40373 0.74003 0.0
C356 C 0.2897 0.38869 0.75635 0.0
C357 C 0.29385 0.38742 0.78291 0.0
C358 C 0.35591 0.43229 0.73343 0.0
C359 C 0.26368 0.37499 0.74605 0.0
H360 H 0.29859 0.45032 0.67712 0.0
H361 H 0.30682 0.38978 0.65097 0.0
H362 H 0.28642 0.43276 0.74282 0.0
H363 H 0.3186 0.45385 0.739 0.0
H364 H 0.29662 0.45846 0.72096 0.0
H365 H 0.30808 0.36144 0.67983 0.0
H366 H 0.32868 0.37875 0.70587 0.0
H367 H 0.29652 0.35983 0.71222 0.0
H368 H 0.35608 0.42468 0.78471 0.0
H369 H 0.27833 0.37669 0.79557 0.0
H370 H 0.3546 0.44839 0.72668 0.0
H371 H 0.35608 0.42207 0.71597 0.0
H372 H 0.37363 0.43911 0.74392 0.0
H373 H 0.25765 0.38832 0.74091 0.0
H374 H 0.25057 0.3618 0.76045 0.0
H375 H 0.26275 0.36477 0.72814 0.0
C376 C 0.87233 0.27543 0.21349 0.0
C377 C 0.89346 0.28403 0.19809 0.0
C378 C 0.87408 0.27737 0.24055 0.0
C379 C 0.8975 0.28792 0.25251 0.0
C380 C 0.91873 0.29511 0.23722 0.0
C381 C 0.91648 0.29318 0.21013 0.0
C382 C 0.85099 0.26952 0.25618 0.0
C383 C 0.94395 0.30604 0.24936 0.0
C384 C 0.90258 0.32117 0.3154 0.0
C385 C 0.89895 0.30328 0.33388 0.0
C386 C 0.90292 0.31663 0.28887 0.0
C387 C 0.89984 0.29374 0.28062 0.0
C388 C 0.89729 0.27602 0.29919 0.0
C389 C 0.89673 0.28095 0.32565 0.0
C390 C 0.90557 0.33597 0.26964 0.0
C391 C 0.89431 0.25157 0.29107 0.0
H392 H 0.85445 0.26818 0.20438 0.0
H393 H 0.93287 0.29965 0.19837 0.0
H394 H 0.84974 0.25723 0.27227 0.0
H395 H 0.85161 0.28596 0.26498 0.0
H396 H 0.83405 0.25982 0.24418 0.0
H397 H 0.95801 0.30753 0.23529 0.0
H398 H 0.94964 0.32472 0.25683 0.0
H399 H 0.94363 0.29475 0.26608 0.0
H400 H 0.90437 0.33849 0.32158 0.0
H401 H 0.89411 0.26711 0.33984 0.0
H402 H 0.88856 0.32876 0.2578 0.0
H403 H 0.921 0.34042 0.25616 0.0
H404 H 0.90892 0.35322 0.27925 0.0
H405 H 0.87631 0.24044 0.28123 0.0
H406 H 0.89517 0.24092 0.30785 0.0
H407 H 0.90883 0.25435 0.277 0.0
C408 C 0.62323 0.91926 0.69241 0.0
C409 C 0.61383 0.93131 0.67736 0.0
C410 C 0.61737 0.9146 0.71882 0.0
C411 C 0.60166 0.92204 0.73027 0.0
C412 C 0.59375 0.93591 0.71568 0.0
C413 C 0.60004 0.94049 0.68942 0.0
C414 C 0.62654 0.90016 0.73392 0.0
C415 C 0.57699 0.94422 0.72719 0.0
C416 C 0.55706 0.88204 0.78226 0.0
C417 C 0.56733 0.89631 0.80457 0.0
C418 C 0.56845 0.88998 0.75809 0.0
C419 C 0.59081 0.91266 0.75621 0.0
C420 C 0.60175 0.92678 0.77878 0.0
C421 C 0.58979 0.91849 0.80272 0.0
C422 C 0.55613 0.87444 0.73441 0.0
C423 C 0.62573 0.95087 0.77752 0.0
H424 H 0.63412 0.91233 0.68331 0.0
H425 H 0.5929 0.95005 0.67802 0.0
H426 H 0.63317 0.90838 0.75337 0.0
H427 H 0.61118 0.88108 0.73682 0.0
H428 H 0.64166 0.89932 0.72367 0.0
H429 H 0.57478 0.95713 0.71423 0.0
H430 H 0.55855 0.92796 0.73066 0.0
H431 H 0.58419 0.95335 0.74615 0.0
H432 H 0.53975 0.86486 0.78354 0.0
H433 H 0.59793 0.92953 0.81995 0.0
H434 H 0.56901 0.87008 0.72417 0.0
H435 H 0.55111 0.88486 0.72071 0.0
H436 H 0.53921 0.85691 0.73932 0.0
H437 H 0.6398 0.94844 0.76705 0.0
H438 H 0.63293 0.95849 0.79709 0.0
H439 H 0.62304 0.96454 0.76653 0.0
C440 C 0.69134 0.61197 0.30735 0.0
C441 C 0.69726 0.59482 0.31748 0.0
C442 C 0.69182 0.61597 0.28053 0.0
C443 C 0.69813 0.60232 0.26352 0.0
C444 C 0.70521 0.58583 0.27372 0.0
C445 C 0.70479 0.58237 0.30058 0.0
C446 C 0.68452 0.63397 0.27036 0.0
C447 C 0.71199 0.57087 0.2562 0.0
C448 C 0.67043 0.58546 0.19632 0.0
C449 C 0.69076 0.60036 0.18062 0.0
C450 C 0.67237 0.58667 0.22339 0.0
C451 C 0.69514 0.60337 0.23507 0.0
C452 C 0.71536 0.61944 0.21941 0.0
C453 C 0.71297 0.61767 0.1923 0.0
C454 C 0.65038 0.56916 0.23944 0.0
C455 C 0.73981 0.63772 0.23124 0.0
H456 H 0.68569 0.62181 0.32032 0.0
H457 H 0.70952 0.56918 0.30824 0.0
H458 H 0.69804 0.64641 0.25582 0.0
H459 H 0.66641 0.62379 0.26048 0.0
H460 H 0.6831 0.64529 0.28608 0.0
H461 H 0.71867 0.56014 0.26722 0.0
H462 H 0.69568 0.55786 0.24464 0.0
H463 H 0.72651 0.58305 0.24234 0.0
H464 H 0.65315 0.5721 0.18749 0.0
H465 H 0.72872 0.62938 0.18031 0.0
H466 H 0.6464 0.57942 0.25434 0.0
H467 H 0.65448 0.55611 0.24978 0.0
H468 H 0.6336 0.55838 0.22744 0.0
H469 H 0.73718 0.64827 0.24693 0.0
H470 H 0.75269 0.65087 0.21665 0.0
H471 H 0.74846 0.62777 0.24006 0.0
C472 C 0.09504 0.70777 0.71839 0.0
C473 C 0.07663 0.69012 0.70232 0.0
C474 C 0.0932 0.70546 0.74546 0.0
C475 C 0.07232 0.68518 0.75665 0.0
C476 C 0.05286 0.66833 0.74058 0.0
C477 C 0.05529 0.67093 0.71357 0.0
C478 C 0.1144 0.72377 0.76195 0.0
C479 C 0.03013 0.64669 0.75182 0.0
C480 C 0.08292 0.66083 0.81961 0.0
C481 C 0.07419 0.67102 0.83804 0.0
C482 C 0.0822 0.66519 0.7931 0.0
C483 C 0.07228 0.67992 0.78473 0.0
C484 C 0.06295 0.68987 0.80314 0.0
C485 C 0.06412 0.68539 0.82965 0.0
C486 C 0.09247 0.65436 0.77406 0.0
C487 C 0.05201 0.70543 0.79484 0.0
H488 H 0.11154 0.72271 0.70987 0.0
H489 H 0.04085 0.65737 0.70126 0.0
H490 H 0.1076 0.73037 0.77815 0.0
H491 H 0.12401 0.71468 0.7706 0.0
H492 H 0.12795 0.73992 0.75057 0.0
H493 H 0.01532 0.63737 0.73712 0.0
H494 H 0.0349 0.6331 0.75954 0.0
H495 H 0.02291 0.65265 0.7682 0.0
H496 H 0.09077 0.64975 0.82591 0.0
H497 H 0.05727 0.69326 0.84378 0.0
H498 H 0.10782 0.66932 0.763 0.0
H499 H 0.07808 0.64252 0.75986 0.0
H500 H 0.0994 0.64318 0.78375 0.0
H501 H 0.06623 0.72234 0.78506 0.0
H502 H 0.04455 0.71089 0.81148 0.0
H503 H 0.03699 0.69523 0.78061 0.0
C504 C 0.92052 0.61142 0.18945 0.0
C505 C 0.9103 0.58668 0.18211 0.0
C506 C 0.92193 0.61804 0.21568 0.0
C507 C 0.91273 0.59944 0.23488 0.0
C508 C 0.90245 0.57447 0.22756 0.0
C509 C 0.90144 0.56842 0.2013 0.0
C510 C 0.93317 0.64485 0.22285 0.0
C511 C 0.89231 0.55408 0.24746 0.0
C512 C 0.93185 0.61031 0.30542 0.0
C513 C 0.91105 0.60906 0.317 0.0
C514 C 0.93338 0.60883 0.27843 0.0
C515 C 0.91352 0.60576 0.26273 0.0
C516 C 0.89312 0.60591 0.27419 0.0
C517 C 0.8922 0.60771 0.30121 0.0
C518 C 0.9556 0.6091 0.26687 0.0
C519 C 0.87152 0.60253 0.25809 0.0
H520 H 0.92745 0.62563 0.17472 0.0
H521 H 0.89346 0.54925 0.19583 0.0
H522 H 0.91939 0.64793 0.23304 0.0
H523 H 0.94878 0.65021 0.23642 0.0
H524 H 0.93991 0.6571 0.20564 0.0
H525 H 0.88484 0.53559 0.23852 0.0
H526 H 0.90696 0.55688 0.26142 0.0
H527 H 0.87741 0.55442 0.25867 0.0
H528 H 0.94661 0.61162 0.3175 0.0
H529 H 0.87608 0.6068 0.31 0.0
H530 H 0.96258 0.62175 0.25002 0.0
H531 H 0.95032 0.59041 0.25975 0.0
H532 H 0.97074 0.61481 0.28119 0.0
H533 H 0.87792 0.61522 0.24127 0.0
H534 H 0.8584 0.60575 0.26953 0.0
H535 H 0.86152 0.58349 0.25034 0.0
C536 C 0.27012 0.87939 0.77564 0.0
C537 C 0.28502 0.89959 0.79156 0.0
C538 C 0.27239 0.88115 0.7486 0.0
C539 C 0.2899 0.9037 0.73719 0.0
C540 C 0.30375 0.92463 0.75302 0.0
C541 C 0.30119 0.92232 0.78007 0.0
C542 C 0.25724 0.8584 0.73239 0.0
C543 C 0.32239 0.94906 0.74151 0.0
C544 C 0.31817 0.89744 0.67496 0.0
C545 C 0.30479 0.90191 0.65605 0.0
C546 C 0.31384 0.89856 0.7014 0.0
C547 C 0.29577 0.90443 0.7092 0.0
C548 C 0.28269 0.90969 0.69029 0.0
C549 C 0.28731 0.90829 0.66387 0.0
C550 C 0.32816 0.89278 0.72098 0.0
C551 C 0.26343 0.9162 0.69794 0.0
H552 H 0.2574 0.8618 0.78433 0.0
H553 H 0.31263 0.93808 0.79221 0.0
H554 H 0.24846 0.86256 0.71598 0.0
H555 H 0.26941 0.85208 0.72403 0.0
H556 H 0.24265 0.84309 0.74389 0.0
H557 H 0.32904 0.96423 0.75591 0.0
H558 H 0.33845 0.9479 0.73436 0.0
H559 H 0.31442 0.95368 0.7247 0.0
H560 H 0.33178 0.89258 0.66913 0.0
H561 H 0.27696 0.91186 0.64938 0.0
H562 H 0.31537 0.87621 0.73228 0.0
H563 H 0.33763 0.90822 0.7349 0.0
H564 H 0.34215 0.88935 0.71173 0.0
H565 H 0.2478 0.90018 0.70751 0.0
H566 H 0.25626 0.92163 0.681 0.0
H567 H 0.27117 0.93152 0.71216 0.0
C568 C 0.42479 0.31047 0.28477 0.0
C569 C 0.41288 0.31585 0.3045 0.0
C570 C 0.41699 0.3082 0.25896 0.0
C571 C 0.39659 0.31108 0.25275 0.0
C572 C 0.38385 0.31553 0.27269 0.0
C573 C 0.39225 0.31802 0.29836 0.0
C574 C 0.43117 0.30358 0.2382 0.0
C575 C 0.36179 0.31832 0.26681 0.0
C576 C 0.3992 0.33264 0.18389 0.0
C577 C 0.38539 0.31022 0.17075 0.0
C578 C 0.40174 0.33334 0.2109 0.0
C579 C 0.38992 0.31111 0.22513 0.0
C580 C 0.37422 0.28869 0.21225 0.0
C581 C 0.37222 0.28849 0.18513 0.0
C582 C 0.41867 0.35764 0.2239 0.0
C583 C 0.36092 0.26469 0.22686 0.0
H584 H 0.44071 0.30872 0.28936 0.0
H585 H 0.38284 0.32198 0.31357 0.0
H586 H 0.41858 0.28703 0.22675 0.0
H587 H 0.43954 0.31941 0.22462 0.0
H588 H 0.44606 0.30091 0.24638 0.0
H589 H 0.35243 0.31917 0.28471 0.0
H590 H 0.36769 0.33543 0.25556 0.0
H591 H 0.34834 0.30275 0.2547 0.0
H592 H 0.40927 0.34959 0.17298 0.0
H593 H 0.36129 0.27111 0.17515 0.0
H594 H 0.43543 0.35769 0.23087 0.0
H595 H 0.40961 0.36031 0.24104 0.0
H596 H 0.42439 0.37348 0.21056 0.0
H597 H 0.3743 0.25897 0.2329 0.0
H598 H 0.34644 0.24976 0.21484 0.0
H599 H 0.35232 0.26684 0.2447 0.0
C600 C 0.10539 0.4292 0.71209 0.0
C601 C 0.08738 0.4129 0.69475 0.0
C602 C 0.10542 0.42273 0.73807 0.0
C603 C 0.08705 0.39932 0.74692 0.0
C604 C 0.06891 0.38265 0.72951 0.0
C605 C 0.06924 0.38968 0.70359 0.0
C606 C 0.125 0.4411 0.75611 0.0
C607 C 0.04913 0.3575 0.73829 0.0
C608 C 0.10348 0.38016 0.81012 0.0
C609 C 0.09213 0.38793 0.82822 0.0
C610 C 0.10085 0.38246 0.7834 0.0
C611 C 0.08662 0.39283 0.77467 0.0
C612 C 0.07398 0.39937 0.7928 0.0
C613 C 0.07683 0.39677 0.81935 0.0
C614 C 0.11442 0.37507 0.76459 0.0
C615 C 0.05863 0.41049 0.78425 0.0
H616 H 0.11946 0.44718 0.70544 0.0
H617 H 0.05531 0.37695 0.69026 0.0
H618 H 0.11627 0.44569 0.77219 0.0
H619 H 0.13548 0.43298 0.76488 0.0
H620 H 0.13815 0.45841 0.74606 0.0
H621 H 0.03683 0.34641 0.72215 0.0
H622 H 0.05762 0.3473 0.74689 0.0
H623 H 0.03779 0.35938 0.75361 0.0
H624 H 0.11519 0.37315 0.8168 0.0
H625 H 0.06783 0.40267 0.83318 0.0
H626 H 0.12972 0.39178 0.7556 0.0
H627 H 0.10198 0.36365 0.74873 0.0
H628 H 0.1222 0.36462 0.7742 0.0
H629 H 0.07081 0.42906 0.77602 0.0
H630 H 0.04805 0.41228 0.80052 0.0
H631 H 0.04555 0.39915 0.76879 0.0
C632 C 0.668 0.07986 0.28658 0.0
C633 C 0.69089 0.09013 0.29915 0.0
C634 C 0.66644 0.0811 0.25959 0.0
C635 C 0.6883 0.09276 0.24476 0.0
C636 C 0.71142 0.10202 0.25713 0.0
C637 C 0.71246 0.10065 0.28425 0.0
C638 C 0.64142 0.07102 0.24712 0.0
C639 C 0.73509 0.11432 0.24186 0.0
C640 C 0.67967 0.08242 0.17208 0.0
C641 C 0.67893 0.10341 0.1641 0.0
C642 C 0.68368 0.07908 0.19818 0.0
C643 C 0.68682 0.09708 0.21668 0.0
C644 C 0.68678 0.11862 0.2086 0.0
C645 C 0.68291 0.12155 0.18241 0.0
C646 C 0.68384 0.056 0.20608 0.0
C647 C 0.68996 0.1382 0.22778 0.0
H648 H 0.65121 0.07153 0.29789 0.0
H649 H 0.7302 0.1085 0.29379 0.0
H650 H 0.63968 0.08636 0.23871 0.0
H651 H 0.63922 0.05836 0.23103 0.0
H652 H 0.62618 0.06099 0.26115 0.0
H653 H 0.75127 0.118 0.25392 0.0
H654 H 0.73398 0.10273 0.22511 0.0
H655 H 0.7381 0.13208 0.23401 0.0
H656 H 0.67677 0.0684 0.158 0.0
H657 H 0.68247 0.13787 0.17641 0.0
H658 H 0.6676 0.04448 0.21842 0.0
H659 H 0.70048 0.06073 0.21779 0.0
H660 H 0.68338 0.04491 0.18909 0.0
H661 H 0.6744 0.13041 0.24168 0.0
H662 H 0.69072 0.1544 0.21817 0.0
H663 H 0.70711 0.1445 0.23916 0.0
C664 C 0.56946 0.7061 0.69888 0.0
C665 C 0.58102 0.69956 0.67979 0.0
C666 C 0.57663 0.70824 0.72493 0.0
C667 C 0.59614 0.70419 0.73197 0.0
C668 C 0.6086 0.69864 0.71264 0.0
C669 C 0.60071 0.69613 0.68677 0.0
C670 C 0.56263 0.71382 0.74504 0.0
C671 C 0.6298 0.69471 0.71938 0.0
C672 C 0.62075 0.72548 0.80004 0.0
C673 C 0.60746 0.70355 0.81407 0.0
C674 C 0.61834 0.72579 0.77297 0.0
C675 C 0.60195 0.70376 0.75983 0.0
C676 C 0.58937 0.68141 0.77376 0.0
C677 C 0.59246 0.68154 0.80065 0.0
C678 C 0.63249 0.74986 0.75862 0.0
C679 C 0.57151 0.65755 0.76052 0.0
H680 H 0.55422 0.70874 0.69361 0.0
H681 H 0.60988 0.69133 0.67202 0.0
H682 H 0.55322 0.69803 0.75854 0.0
H683 H 0.57549 0.73007 0.75671 0.0
H684 H 0.54859 0.71746 0.73623 0.0
H685 H 0.63919 0.69316 0.70185 0.0
H686 H 0.64348 0.71012 0.73151 0.0
H687 H 0.62299 0.6776 0.73091 0.0
H688 H 0.63252 0.74251 0.81025 0.0
H689 H 0.58214 0.66447 0.81129 0.0
H690 H 0.61963 0.75599 0.75187 0.0
H691 H 0.64147 0.74753 0.7412 0.0
H692 H 0.64678 0.76457 0.771 0.0
H693 H 0.55575 0.65891 0.75268 0.0
H694 H 0.56426 0.64156 0.7739 0.0
H695 H 0.58051 0.65399 0.74393 0.0
C696 C 0.4097 0.15905 0.07862 0.0
C697 C 0.43188 0.15894 0.08135 0.0
C698 C 0.40955 0.18108 0.07505 0.0
C699 C 0.43214 0.20358 0.07443 0.0
C700 C 0.45464 0.20358 0.07639 0.0
C701 C 0.45425 0.18119 0.07973 0.0
C702 C 0.38519 0.18035 0.07281 0.0
C703 C 0.47906 0.22727 0.07594 0.0
C704 C 0.43021 0.25952 0.04957 0.0
C705 C 0.42799 0.26986 0.07279 0.0
C706 C 0.43213 0.23818 0.04976 0.0
C707 C 0.43199 0.22712 0.07372 0.0
C708 C 0.43041 0.23786 0.09722 0.0
C709 C 0.42834 0.25904 0.09646 0.0
C710 C 0.43368 0.22711 0.02434 0.0
C711 C 0.43036 0.22668 0.12318 0.0
H712 H 0.39234 0.14188 0.0796 0.0
H713 H 0.47145 0.18122 0.08179 0.0
H714 H 0.38257 0.18956 0.08986 0.0
H715 H 0.38498 0.19052 0.05531 0.0
H716 H 0.36939 0.16124 0.07173 0.0
H717 H 0.49489 0.22398 0.0757 0.0
H718 H 0.48023 0.23837 0.0587 0.0
H719 H 0.48069 0.2384 0.09333 0.0
H720 H 0.42998 0.26782 0.03122 0.0
H721 H 0.42683 0.26704 0.1145 0.0
H722 H 0.41715 0.20865 0.0219 0.0
H723 H 0.44995 0.22457 0.02428 0.0
H724 H 0.43494 0.23869 0.00748 0.0
H725 H 0.41386 0.20809 0.12474 0.0
H726 H 0.4303 0.23803 0.13967 0.0
H727 H 0.44676 0.22445 0.12497 0.0
C728 C 0.15036 0.44239 0.54902 0.0
C729 C 0.14116 0.43682 0.57438 0.0
C730 C 0.17378 0.44596 0.54308 0.0
C731 C 0.18827 0.44412 0.56304 0.0
C732 C 0.17913 0.43874 0.58869 0.0
C733 C 0.15568 0.43506 0.59401 0.0
C734 C 0.18292 0.45148 0.51549 0.0
C735 C 0.1941 0.43679 0.6106 0.0
C736 C 0.23873 0.42883 0.55328 0.0
C737 C 0.25977 0.45164 0.55825 0.0
C738 C 0.21531 0.42646 0.55271 0.0
C739 C 0.21291 0.44736 0.55749 0.0
C740 C 0.23421 0.47074 0.56069 0.0
C741 C 0.25745 0.47262 0.56091 0.0
C742 C 0.19304 0.40127 0.54887 0.0
C743 C 0.23239 0.49345 0.56587 0.0
H744 H 0.13919 0.44373 0.53376 0.0
H745 H 0.14879 0.43093 0.6137 0.0
H746 H 0.20064 0.46908 0.51465 0.0
H747 H 0.18643 0.43687 0.50825 0.0
H748 H 0.16957 0.45271 0.5023 0.0
H749 H 0.1845 0.43304 0.62955 0.0
H750 H 0.1981 0.42179 0.60652 0.0
H751 H 0.21201 0.45414 0.61224 0.0
H752 H 0.24043 0.41259 0.55082 0.0
H753 H 0.27365 0.49034 0.5646 0.0
H754 H 0.17996 0.40212 0.535 0.0
H755 H 0.18328 0.39448 0.5676 0.0
H756 H 0.19812 0.38773 0.54161 0.0
H757 H 0.21932 0.49455 0.5522 0.0
H758 H 0.25053 0.51058 0.56424 0.0
H759 H 0.22524 0.49246 0.58576 0.0
C760 C 0.8287 0.26111 0.05384 0.0
C761 C 0.83986 0.25999 0.07699 0.0
C762 C 0.80414 0.24349 0.04822 0.0
C763 C 0.79051 0.22455 0.06633 0.0
C764 C 0.80182 0.22315 0.08953 0.0
C765 C 0.82636 0.2408 0.0945 0.0
C766 C 0.7927 0.24531 0.02317 0.0
C767 C 0.78786 0.20325 0.10941 0.0
C768 C 0.72124 0.19082 0.07234 0.0
C769 C 0.71522 0.16733 0.06359 0.0
C770 C 0.74563 0.21032 0.07162 0.0
C771 C 0.76425 0.20619 0.06162 0.0
C772 C 0.75788 0.18311 0.05063 0.0
C773 C 0.73343 0.16388 0.05189 0.0
C774 C 0.75171 0.23469 0.08357 0.0
C775 C 0.77716 0.17813 0.03935 0.0
H776 H 0.83905 0.27588 0.0402 0.0
H777 H 0.8348 0.2398 0.11247 0.0
H778 H 0.78484 0.22768 0.01238 0.0
H779 H 0.77733 0.24871 0.02738 0.0
H780 H 0.80618 0.26034 0.01052 0.0
H781 H 0.7994 0.20478 0.12644 0.0
H782 H 0.77166 0.20428 0.11631 0.0
H783 H 0.7809 0.18486 0.10049 0.0
H784 H 0.70722 0.19364 0.0813 0.0
H785 H 0.72878 0.14582 0.04471 0.0
H786 H 0.76432 0.25016 0.07089 0.0
H787 H 0.7613 0.23694 0.10233 0.0
H788 H 0.73497 0.23601 0.08718 0.0
H789 H 0.79002 0.19356 0.02676 0.0
H790 H 0.76882 0.16083 0.02786 0.0
H791 H 0.78814 0.17649 0.05529 0.0
C792 C 0.52841 0.73837 0.58712 0.0
C793 C 0.54661 0.73277 0.58006 0.0
C794 C 0.53213 0.76217 0.58365 0.0
C795 C 0.55445 0.78061 0.57266 0.0
C796 C 0.57221 0.77464 0.56403 0.0
C797 C 0.56812 0.7508 0.56795 0.0
C798 C 0.51281 0.76791 0.59317 0.0
C799 C 0.59612 0.79376 0.55193 0.0
C800 C 0.55984 0.84126 0.55218 0.0
C801 C 0.57203 0.85621 0.57362 0.0
C802 C 0.55402 0.81656 0.55147 0.0
C803 C 0.56041 0.80665 0.57277 0.0
C804 C 0.57274 0.82168 0.59441 0.0
C805 C 0.57849 0.84629 0.59452 0.0
C806 C 0.54106 0.80108 0.52799 0.0
C807 C 0.57976 0.81173 0.61757 0.0
H808 H 0.51172 0.7245 0.59644 0.0
H809 H 0.58214 0.74648 0.56217 0.0
H810 H 0.51995 0.7802 0.61032 0.0
H811 H 0.50855 0.77778 0.57804 0.0
H812 H 0.49548 0.75105 0.59876 0.0
H813 H 0.60664 0.78551 0.54356 0.0
H814 H 0.59259 0.80387 0.53644 0.0
H815 H 0.60773 0.80741 0.56685 0.0
H816 H 0.55482 0.84884 0.53596 0.0
H817 H 0.58783 0.85768 0.61121 0.0
H818 H 0.52319 0.78505 0.5338 0.0
H819 H 0.55226 0.79373 0.51936 0.0
H820 H 0.53759 0.81163 0.51293 0.0
H821 H 0.5631 0.79586 0.62594 0.0
H822 H 0.58905 0.82579 0.63297 0.0
H823 H 0.59229 0.80498 0.61146 0.0
C824 C 0.73833 0.55854 0.10145 0.0
C825 C 0.71826 0.54387 0.08526 0.0
C826 C 0.75841 0.55471 0.10326 0.0
C827 C 0.75851 0.53579 0.08845 0.0
C828 C 0.73861 0.52125 0.07161 0.0
C829 C 0.71866 0.52546 0.07023 0.0
C830 C 0.77933 0.57062 0.12144 0.0
C831 C 0.73821 0.501 0.05546 0.0
C832 C 0.8215 0.54217 0.08163 0.0
C833 C 0.82128 0.52718 0.10192 0.0
C834 C 0.8007 0.5442 0.07611 0.0
C835 C 0.77926 0.53099 0.09133 0.0
C836 C 0.77854 0.51494 0.11103 0.0
C837 C 0.79957 0.51319 0.11606 0.0
C838 C 0.80208 0.56138 0.05484 0.0
C839 C 0.75597 0.50055 0.12766 0.0
H840 H 0.73823 0.57286 0.1131 0.0
H841 H 0.70323 0.51407 0.05765 0.0
H842 H 0.78106 0.559 0.13656 0.0
H843 H 0.79696 0.57988 0.11065 0.0
H844 H 0.77666 0.58491 0.13115 0.0
H845 H 0.72193 0.49213 0.04243 0.0
H846 H 0.75513 0.50843 0.04351 0.0
H847 H 0.73798 0.48672 0.06833 0.0
H848 H 0.83816 0.5529 0.07046 0.0
H849 H 0.79921 0.50146 0.13167 0.0
H850 H 0.80182 0.57743 0.06349 0.0
H851 H 0.78586 0.552 0.04185 0.0
H852 H 0.81906 0.56824 0.04303 0.0
H853 H 0.75309 0.51343 0.13989 0.0
H854 H 0.7576 0.48725 0.14055 0.0
H855 H 0.73937 0.49033 0.11534 0.0
C856 C 0.25405 0.80976 0.56815 0.0
C857 C 0.27272 0.8107 0.58396 0.0
C858 C 0.23035 0.78906 0.56815 0.0
C859 C 0.22523 0.76883 0.58432 0.0
C860 C 0.24435 0.76907 0.59913 0.0
C861 C 0.26788 0.79001 0.59877 0.0
C862 C 0.21045 0.78944 0.55199 0.0
C863 C 0.23962 0.74777 0.6165 0.0
C864 C 0.16053 0.73182 0.61094 0.0
C865 C 0.15042 0.71068 0.59533 0.0
C866 C 0.18483 0.75083 0.60746 0.0
C867 C 0.19943 0.74869 0.58788 0.0
C868 C 0.18938 0.72746 0.572 0.0
C869 C 0.16495 0.70867 0.57592 0.0
C870 C 0.19488 0.77321 0.6248 0.0
C871 C 0.20445 0.7246 0.55095 0.0
H872 H 0.25767 0.82559 0.55649 0.0
H873 H 0.28224 0.79049 0.61089 0.0
H874 H 0.20025 0.77215 0.5407 0.0
H875 H 0.19701 0.7907 0.56491 0.0
H876 H 0.21798 0.80525 0.53835 0.0
H877 H 0.25692 0.74964 0.6245 0.0
H878 H 0.22773 0.74674 0.63291 0.0
H879 H 0.2297 0.73014 0.60574 0.0
H880 H 0.14946 0.73355 0.62598 0.0
H881 H 0.15727 0.69239 0.56378 0.0
H882 H 0.201 0.79001 0.61291 0.0
H883 H 0.2112 0.77542 0.63555 0.0
H884 H 0.18108 0.77203 0.63905 0.0
H885 H 0.21093 0.74005 0.53699 0.0
H886 H 0.19388 0.707 0.54019 0.0
H887 H 0.22104 0.72534 0.5595 0.0
C888 C 0.82996 0.57137 0.40946 0.0
C889 C 0.84588 0.5778 0.43079 0.0
C890 C 0.80645 0.56843 0.41201 0.0
C891 C 0.79865 0.57209 0.43649 0.0
C892 C 0.81427 0.57776 0.45833 0.0
C893 C 0.83776 0.58053 0.45523 0.0
C894 C 0.79027 0.5622 0.38825 0.0
C895 C 0.8065 0.58175 0.48472 0.0
C896 C 0.7511 0.59173 0.42953 0.0
C897 C 0.72913 0.56919 0.43189 0.0
C898 C 0.77395 0.59322 0.4328 0.0
C899 C 0.77484 0.57162 0.43845 0.0
C900 C 0.75275 0.54913 0.4426 0.0
C901 C 0.73008 0.54818 0.43931 0.0
C902 C 0.79713 0.61762 0.42847 0.0
C903 C 0.753 0.52575 0.44877 0.0
H904 H 0.836 0.56899 0.39055 0.0
H905 H 0.84995 0.58542 0.47181 0.0
H906 H 0.77205 0.54572 0.39197 0.0
H907 H 0.78707 0.57766 0.38369 0.0
H908 H 0.79854 0.55859 0.37098 0.0
H909 H 0.81971 0.58364 0.50015 0.0
H910 H 0.80514 0.5987 0.48446 0.0
H911 H 0.78802 0.56623 0.48974 0.0
H912 H 0.75049 0.60812 0.42415 0.0
H913 H 0.71316 0.53072 0.44134 0.0
H914 H 0.80594 0.6169 0.4101 0.0
H915 H 0.81052 0.62145 0.44434 0.0
H916 H 0.79338 0.63311 0.42725 0.0
H917 H 0.75841 0.51939 0.43121 0.0
H918 H 0.73468 0.51079 0.45521 0.0
H919 H 0.76674 0.52904 0.46409 0.0
C920 C 0.16099 0.72921 0.92981 0.0
C921 C 0.16227 0.71244 0.91279 0.0
C922 C 0.18018 0.75371 0.9312 0.0
C923 C 0.20104 0.76157 0.91514 0.0
C924 C 0.20295 0.74446 0.89883 0.0
C925 C 0.18354 0.72008 0.89789 0.0
C926 C 0.17763 0.77142 0.94896 0.0
C927 C 0.22497 0.75218 0.88146 0.0
C928 C 0.23621 0.82756 0.892 0.0
C929 C 0.25777 0.83714 0.90693 0.0
C930 C 0.21729 0.80317 0.89509 0.0
C931 C 0.21994 0.78803 0.91362 0.0
C932 C 0.24119 0.79782 0.92948 0.0
C933 C 0.25991 0.8223 0.92591 0.0
C934 C 0.19485 0.79336 0.87783 0.0
C935 C 0.24451 0.78222 0.94956 0.0
H936 H 0.14467 0.7234 0.94152 0.0
H937 H 0.18473 0.70721 0.88481 0.0
H938 H 0.19451 0.78189 0.96084 0.0
H939 H 0.17536 0.78496 0.93722 0.0
H940 H 0.16157 0.76189 0.96213 0.0
H941 H 0.22445 0.73628 0.87139 0.0
H942 H 0.22559 0.76528 0.86661 0.0
H943 H 0.24225 0.76184 0.89288 0.0
H944 H 0.23437 0.83892 0.87735 0.0
H945 H 0.27647 0.82961 0.93759 0.0
H946 H 0.17787 0.78514 0.88973 0.0
H947 H 0.19387 0.77858 0.8652 0.0
H948 H 0.19508 0.80788 0.86531 0.0
H949 H 0.2281 0.77309 0.96228 0.0
H950 H 0.26106 0.79316 0.96182 0.0
H951 H 0.24638 0.76749 0.9398 0.0
C952 C 0.42119 0.16851 0.41069 0.0
C953 C 0.441 0.16743 0.4219 0.0
C954 C 0.41933 0.18978 0.4126 0.0
C955 C 0.43772 0.21049 0.42608 0.0
C956 C 0.45719 0.20918 0.43845 0.0
C957 C 0.45861 0.18762 0.4362 0.0
C958 C 0.39824 0.19043 0.39919 0.0
C959 C 0.47705 0.23088 0.4531 0.0
C960 C 0.44659 0.27124 0.40171 0.0
C961 C 0.4327 0.27611 0.41953 0.0
C962 C 0.44914 0.25041 0.40425 0.0
C963 C 0.43757 0.23405 0.42516 0.0
C964 C 0.42437 0.23935 0.44384 0.0
C965 C 0.42206 0.26035 0.44079 0.0
C966 C 0.46341 0.24542 0.38392 0.0
C967 C 0.41192 0.22237 0.46648 0.0
H968 H 0.40737 0.15292 0.39978 0.0
H969 H 0.47392 0.18689 0.44503 0.0
H970 H 0.38872 0.19648 0.41289 0.0
H971 H 0.40545 0.20397 0.3831 0.0
H972 H 0.38455 0.17223 0.3911 0.0
H973 H 0.4894 0.22606 0.46388 0.0
H974 H 0.48833 0.24592 0.43932 0.0
H975 H 0.46876 0.23812 0.46702 0.0
H976 H 0.45505 0.28341 0.38532 0.0
H977 H 0.41141 0.26405 0.45473 0.0
H978 H 0.45077 0.22841 0.37311 0.0
H979 H 0.47759 0.24235 0.39323 0.0
H980 H 0.47261 0.26077 0.36983 0.0
H981 H 0.39652 0.20464 0.45932 0.0
H982 H 0.40448 0.23032 0.48063 0.0
H983 H 0.42502 0.21822 0.47664 0.0
C984 C 0.28273 0.43363 0.93249 0.0
C985 C 0.29188 0.43633 0.9072 0.0
C986 C 0.26077 0.43373 0.93737 0.0
C987 C 0.24791 0.43683 0.91649 0.0
C988 C 0.25755 0.44042 0.89107 0.0
C989 C 0.27936 0.44002 0.88673 0.0
C990 C 0.25091 0.4297 0.96469 0.0
C991 C 0.24448 0.44402 0.86832 0.0
C992 C 0.17897 0.41065 0.91862 0.0
C993 C 0.17731 0.43182 0.92292 0.0
C994 C 0.20187 0.41189 0.9176 0.0
C995 C 0.22363 0.43491 0.92072 0.0
C996 C 0.22207 0.45623 0.9259 0.0
C997 C 0.19888 0.45441 0.92706 0.0
C998 C 0.20279 0.3887 0.91228 0.0
C999 C 0.24491 0.4811 0.92915 0.0
H1000 H 0.29232 0.43074 0.94838 0.0
H1001 H 0.28645 0.44233 0.86716 0.0
H1002 H 0.24705 0.4445 0.9703 0.0
H1003 H 0.23325 0.41203 0.96575 0.0
H1004 H 0.26391 0.4292 0.97899 0.0
H1005 H 0.2552 0.44807 0.85008 0.0
H1006 H 0.22636 0.42717 0.86535 0.0
H1007 H 0.24094 0.45935 0.87228 0.0
H1008 H 0.16236 0.39309 0.91564 0.0
H1009 H 0.19771 0.47085 0.9304 0.0
H1010 H 0.21439 0.38637 0.92698 0.0
H1011 H 0.21132 0.3901 0.89307 0.0
H1012 H 0.18421 0.37201 0.91237 0.0
H1013 H 0.25735 0.48014 0.94381 0.0
H1014 H 0.24055 0.49549 0.93514 0.0
H1015 H 0.25514 0.48679 0.91056 0.0
C1016 C 0.72093 0.16775 0.43899 0.0
C1017 C 0.72291 0.15266 0.42025 0.0
C1018 C 0.74112 0.19091 0.44503 0.0
C1019 C 0.76382 0.19888 0.43227 0.0
C1020 C 0.76618 0.18321 0.4142 0.0
C1021 C 0.74563 0.16037 0.40826 0.0
C1022 C 0.73786 0.20726 0.46415 0.0
C1023 C 0.79021 0.19091 0.40048 0.0
C1024 C 0.80889 0.26607 0.41965 0.0
C1025 C 0.8274 0.27098 0.43783 0.0
C1026 C 0.78741 0.24304 0.41866 0.0
C1027 C 0.78461 0.22432 0.43599 0.0
C1028 C 0.80274 0.22949 0.45516 0.0
C1029 C 0.8239 0.25291 0.456 0.0
C1030 C 0.76827 0.23839 0.39825 0.0
C1031 C 0.80048 0.2099 0.47377 0.0
H1032 H 0.70337 0.16187 0.44828 0.0
H1033 H 0.74731 0.14862 0.39397 0.0
H1034 H 0.75265 0.21428 0.47899 0.0
H1035 H 0.73931 0.22346 0.45386 0.0
H1036 H 0.71976 0.19752 0.47409 0.0
H1037 H 0.78955 0.17576 0.38873 0.0
H1038 H 0.79467 0.20665 0.38744 0.0
H1039 H 0.80542 0.19713 0.41476 0.0
H1040 H 0.81145 0.28011 0.40574 0.0
H1041 H 0.83826 0.25664 0.47 0.0
H1042 H 0.7497 0.22996 0.4071 0.0
H1043 H 0.76789 0.22523 0.38364 0.0
H1044 H 0.77203 0.25554 0.38809 0.0
H1045 H 0.78204 0.20055 0.48295 0.0
H1046 H 0.81473 0.21754 0.48923 0.0
H1047 H 0.80247 0.19571 0.46296 0.0
C1048 C 0.57984 0.75141 0.91416 0.0
C1049 C 0.56137 0.72794 0.92191 0.0
C1050 C 0.5765 0.77179 0.91627 0.0
C1051 C 0.55412 0.7686 0.92634 0.0
C1052 C 0.53592 0.74524 0.93545 0.0
C1053 C 0.53977 0.72514 0.93315 0.0
C1054 C 0.59642 0.79648 0.90649 0.0
C1055 C 0.51187 0.7412 0.94638 0.0
C1056 C 0.55305 0.82717 0.94189 0.0
C1057 C 0.54363 0.8309 0.91873 0.0
C1058 C 0.55581 0.80646 0.94512 0.0
C1059 C 0.54891 0.78916 0.92472 0.0
C1060 C 0.53842 0.79231 0.90177 0.0
C1061 C 0.53594 0.81314 0.89904 0.0
C1062 C 0.56699 0.80361 0.96988 0.0
C1063 C 0.53068 0.77415 0.87963 0.0
H1064 H 0.59669 0.75377 0.90569 0.0
H1065 H 0.52546 0.70709 0.93934 0.0
H1066 H 0.58979 0.80166 0.88895 0.0
H1067 H 0.60086 0.81093 0.92129 0.0
H1068 H 0.61356 0.79635 0.90145 0.0
H1069 H 0.50094 0.72275 0.95542 0.0
H1070 H 0.51521 0.75545 0.96107 0.0
H1071 H 0.50074 0.74286 0.93061 0.0
H1072 H 0.55898 0.84079 0.95721 0.0
H1073 H 0.52843 0.81577 0.88118 0.0
H1074 H 0.58537 0.80591 0.96573 0.0
H1075 H 0.55544 0.78487 0.97797 0.0
H1076 H 0.56915 0.81732 0.98479 0.0
H1077 H 0.54706 0.7742 0.8715 0.0
H1078 H 0.52146 0.77851 0.86378 0.0
H1079 H 0.51793 0.75525 0.88667 0.0
C1080 C 0.35277 0.96043 0.95226 0.0
C1081 C 0.33409 0.95563 0.93431 0.0
C1082 C 0.35975 0.97883 0.97102 0.0
C1083 C 0.34761 0.99268 0.97204 0.0
C1084 C 0.32857 0.98784 0.95416 0.0
C1085 C 0.32209 0.9694 0.93535 0.0
C1086 C 0.38033 0.9836 0.9896 0.0
C1087 C 0.31513 0.00215 0.9549 0.0
C1088 C 0.35652 0.02475 0.03655 0.0
C1089 C 0.3768 0.048 0.03122 0.0
C1090 C 0.34568 0.00697 0.01697 0.0
C1091 C 0.35552 0.01255 0.9916 0.0
C1092 C 0.37507 0.03642 0.9858 0.0
C1093 C 0.38541 0.0539 0.00568 0.0
C1094 C 0.32464 0.98177 0.02379 0.0
C1095 C 0.38613 0.04304 0.95899 0.0
H1096 H 0.3622 0.94994 0.95153 0.0
H1097 H 0.30756 0.96567 0.92159 0.0
H1098 H 0.39554 0.00289 0.98762 0.0
H1099 H 0.37362 0.98116 0.00987 0.0
H1100 H 0.38784 0.97113 0.98621 0.0
H1101 H 0.30032 0.99569 0.94007 0.0
H1102 H 0.30687 0.00048 0.97433 0.0
H1103 H 0.32826 0.02197 0.95161 0.0
H1104 H 0.34959 0.02016 0.0562 0.0
H1105 H 0.40096 0.07189 0.00135 0.0
H1106 H 0.33115 0.96828 0.02352 0.0
H1107 H 0.30964 0.97565 0.00926 0.0
H1108 H 0.317 0.9814 0.0433 0.0
H1109 H 0.39599 0.03288 0.95482 0.0
H1110 H 0.39935 0.06306 0.95698 0.0
H1111 H 0.3715 0.03754 0.94413 0.0
C1112 C 0.4164 0.37789 0.46657 0.0
C1113 C 0.405 0.36239 0.44528 0.0
C1114 C 0.40395 0.38694 0.48136 0.0
C1115 C 0.3795 0.38028 0.47472 0.0
C1116 C 0.36762 0.36409 0.45374 0.0
C1117 C 0.38052 0.35532 0.43925 0.0
C1118 C 0.41717 0.40413 0.5037 0.0
C1119 C 0.34151 0.35653 0.4462 0.0
C1120 C 0.3422 0.39011 0.52614 0.0
C1121 C 0.34499 0.41288 0.51871 0.0
C1122 C 0.3529 0.379 0.51168 0.0
C1123 C 0.3667 0.39096 0.48929 0.0
C1124 C 0.36906 0.41362 0.4813 0.0
C1125 C 0.35815 0.42432 0.49612 0.0
C1126 C 0.34995 0.35477 0.52071 0.0
C1127 C 0.38361 0.42686 0.45746 0.0
H1128 H 0.43529 0.3834 0.47139 0.0
H1129 H 0.37156 0.34329 0.42286 0.0
H1130 H 0.41896 0.42236 0.49989 0.0
H1131 H 0.40635 0.39689 0.52179 0.0
H1132 H 0.43584 0.40675 0.50693 0.0
H1133 H 0.33453 0.34287 0.43017 0.0
H1134 H 0.32912 0.34851 0.46312 0.0
H1135 H 0.34053 0.37294 0.43999 0.0
H1136 H 0.33198 0.38111 0.54354 0.0
H1137 H 0.36034 0.44188 0.49023 0.0
H1138 H 0.36819 0.35721 0.52593 0.0
H1139 H 0.34236 0.34101 0.50483 0.0
H1140 H 0.33763 0.34728 0.5378 0.0
H1141 H 0.40315 0.43197 0.46008 0.0
H1142 H 0.38284 0.44383 0.4533 0.0
H1143 H 0.37652 0.41455 0.44033 0.0
C1144 C 0.06769 0.38002 0.00291 0.0
C1145 C 0.06373 0.3726 0.97688 0.0
C1146 C 0.04839 0.3697 0.02088 0.0
C1147 C 0.02468 0.35143 0.01259 0.0
C1148 C 0.02107 0.34244 0.98687 0.0
C1149 C 0.04065 0.35321 0.96926 0.0
C1150 C 0.05295 0.37974 0.04818 0.0
C1151 C -0.00388 0.32273 0.97741 0.0
C1152 C 0.97455 0.31853 0.06298 0.0
C1153 C 0.96237 0.33214 0.06178 0.0
C1154 C 0.99482 0.32441 0.04695 0.0
C1155 C 0.00311 0.34443 0.02955 0.0
C1156 C 0.99087 0.35818 0.02828 0.0
C1157 C 0.97061 0.3518 0.04433 0.0
C1158 C 0.00736 0.30926 0.0486 0.0
C1159 C -0.00075 0.37977 0.01004 0.0
H1160 H 0.08553 0.39486 0.009 0.0
H1161 H 0.03755 0.34714 0.94924 0.0
H1162 H 0.04412 0.39112 0.05078 0.0
H1163 H 0.04463 0.36456 0.0625 0.0
H1164 H 0.0729 0.39134 0.05251 0.0
H1165 H -0.00279 0.31519 0.95829 0.0
H1166 H 0.98754 0.3074 0.99156 0.0
H1167 H 0.9838 0.33058 0.97547 0.0
H1168 H 0.9682 0.30326 0.07639 0.0
H1169 H 0.96135 0.36245 0.04332 0.0
H1170 H 0.02694 0.32116 0.05417 0.0
H1171 H 0.00712 0.30129 0.02934 0.0
H1172 H -0.00158 0.29406 0.06289 0.0
H1173 H 0.01864 0.39379 0.01428 0.0
H1174 H 0.98777 0.38862 0.01157 0.0
H1175 H -0.00149 0.37363 0.98973 0.0
C1176 C 0.65893 0.02109 0.43187 0.0
C1177 C 0.68255 0.04108 0.42742 0.0
C1178 C 0.65437 0.0051 0.45271 0.0
C1179 C 0.67392 0.00923 0.46953 0.0
C1180 C 0.69814 0.0283 0.46409 0.0
C1181 C 0.70219 0.04404 0.44302 0.0
C1182 C 0.62829 0.98478 0.45769 0.0
C1183 C 0.71946 0.03309 0.48146 0.0
C1184 C 0.65109 0.98936 0.53776 0.0
C1185 C 0.64812 0.96571 0.5385 0.0
C1186 C 0.66106 0.0044 0.51597 0.0
C1187 C 0.66818 0.99553 0.49436 0.0
C1188 C 0.6669 0.9724 0.49569 0.0
C1189 C 0.65688 0.95771 0.51783 0.0
C1190 C 0.66241 0.02912 0.51543 0.0
C1191 C 0.67454 0.96245 0.47311 0.0
H1192 H 0.64373 0.01848 0.41966 0.0
H1193 H 0.72054 0.05937 0.43959 0.0
H1194 H 0.62774 0.96703 0.46084 0.0
H1195 H 0.62126 0.98897 0.47556 0.0
H1196 H 0.61571 0.98252 0.44141 0.0
H1197 H 0.73748 0.04568 0.47228 0.0
H1198 H 0.7182 0.04162 0.49981 0.0
H1199 H 0.71886 0.01563 0.48655 0.0
H1200 H 0.64469 0.99579 0.55384 0.0
H1201 H 0.65477 0.93949 0.51834 0.0
H1202 H 0.64882 0.02859 0.50126 0.0
H1203 H 0.6809 0.04368 0.50904 0.0
H1204 H 0.65848 0.03431 0.53467 0.0
H1205 H 0.6605 0.9566 0.45754 0.0
H1206 H 0.67639 0.94637 0.47875 0.0
H1207 H 0.69228 0.97687 0.46491 0.0
C1208 C 0.64684 0.59054 0.0144 0.0
C1209 C 0.65837 0.60083 0.0381 0.0
C1210 C 0.63999 0.60349 -0.00257 0.0
C1211 C 0.64507 0.62744 0.0042 0.0
C1212 C 0.65808 0.63855 0.02731 0.0
C1213 C 0.66447 0.62503 0.04411 0.0
C1214 C 0.62601 0.59096 0.973 0.0
C1215 C 0.66418 0.66421 0.03492 0.0
C1216 C 0.63544 0.66311 0.95049 0.0
C1217 C 0.61146 0.65813 0.95579 0.0
C1218 C 0.64715 0.65412 0.96672 0.0
C1219 C 0.63439 0.63958 0.98846 0.0
C1220 C 0.61048 0.63515 0.9943 0.0
C1221 C 0.59938 0.64461 0.97799 0.0
C1222 C 0.67282 0.65952 0.96018 0.0
C1223 C 0.5962 0.61956 0.01722 0.0
H1224 H 0.64218 0.5719 0.00954 0.0
H1225 H 0.67362 0.6332 0.06228 0.0
H1226 H 0.60689 0.58749 0.97445 0.0
H1227 H 0.63461 0.603 0.95594 0.0
H1228 H 0.62526 0.57313 0.96954 0.0
H1229 H 0.67716 0.67139 0.05156 0.0
H1230 H 0.67237 0.67701 0.01832 0.0
H1231 H 0.64705 0.66412 0.04041 0.0
H1232 H 0.64494 0.67371 0.93346 0.0
H1233 H 0.58086 0.64072 0.98224 0.0
H1234 H 0.6723 0.64229 0.95422 0.0
H1235 H 0.68491 0.66666 0.97749 0.0
H1236 H 0.68113 0.67313 0.94423 0.0
H1237 H 0.59279 0.60055 0.01469 0.0
H1238 H 0.5782 0.61869 0.01966 0.0
H1239 H 0.60703 0.62698 0.0353 0.0
C1240 C 0.05182 0.69653 0.5379 0.0
C1241 C 0.04404 0.67976 0.55856 0.0
C1242 C 0.03841 0.69058 0.51461 0.0
C1243 C 0.01689 0.66729 0.51199 0.0
C1244 C 0.00822 0.65091 0.53329 0.0
C1245 C 0.02183 0.6574 0.55634 0.0
C1246 C 0.04794 0.70867 0.49243 0.0
C1247 C 0.9853 0.6259 0.53129 0.0
C1248 C 0.96976 0.64932 0.45828 0.0
C1249 C 0.97598 0.63517 0.4423 0.0
C1250 C 0.9839 0.66135 0.48025 0.0
C1251 C 0.00451 0.65886 0.48647 0.0
C1252 C 0.01166 0.64576 0.4696 0.0
C1253 C -0.00262 0.63419 0.44762 0.0
C1254 C 0.976 0.67555 0.49752 0.0
C1255 C 0.0335 0.64262 0.47564 0.0
H1256 H 0.06888 0.71392 0.53952 0.0
H1257 H 0.01553 0.64441 0.57228 0.0
H1258 H 0.05544 0.70182 0.47716 0.0
H1259 H 0.03281 0.71049 0.48357 0.0
H1260 H 0.06275 0.72715 0.4987 0.0
H1261 H 0.98019 0.61602 0.55014 0.0
H1262 H 0.96957 0.62773 0.5243 0.0
H1263 H 0.9883 0.61447 0.51698 0.0
H1264 H 0.95338 0.65038 0.45411 0.0
H1265 H 0.00237 0.6234 0.43529 0.0
H1266 H 0.99206 0.6935 0.50308 0.0
H1267 H 0.96794 0.66503 0.51563 0.0
H1268 H 0.96204 0.67889 0.48802 0.0
H1269 H 0.05001 0.66072 0.47973 0.0
H1270 H 0.03782 0.63368 0.45951 0.0
H1271 H 0.02961 0.63114 0.49328 0.0
C1272 C 0.57571 0.95321 0.94684 0.0
C1273 C 0.59051 0.94646 0.93275 0.0
C1274 C 0.58609 0.97279 0.96448 0.0
C1275 C 0.6119 0.98591 0.96815 0.0
C1276 C 0.62693 0.97889 0.95444 0.0
C1277 C 0.61604 0.95921 0.93686 0.0
C1278 C 0.56947 0.97974 0.97881 0.0
C1279 C 0.65452 0.99246 0.95798 0.0
C1280 C 0.63833 0.05104 0.99319 0.0
C1281 C 0.64062 0.04795 0.01977 0.0
C1282 C 0.62964 0.03109 0.97605 0.0
C1283 C 0.62309 0.0075 0.98574 0.0
C1284 C 0.62598 0.00436 0.01243 0.0
C1285 C 0.63472 0.02464 0.02915 0.0
C1286 C 0.62681 0.03512 0.94767 0.0
C1287 C 0.61922 0.97946 0.02341 0.0
H1288 H 0.55596 0.9434 0.94385 0.0
H1289 H 0.62758 0.95405 0.92609 0.0
H1290 H 0.57223 0.97947 3e-05 0.0
H1291 H 0.57422 -0.00124 0.97357 0.0
H1292 H 0.5497 0.96716 0.97435 0.0
H1293 H 0.66348 0.98402 0.94672 0.0
H1294 H 0.66236 0.01187 0.95172 0.0
H1295 H 0.6592 0.99274 0.97877 0.0
H1296 H 0.64296 0.06901 0.98578 0.0
H1297 H 0.63653 0.02213 0.04966 0.0
H1298 H 0.60709 0.02453 0.94213 0.0
H1299 H 0.63672 0.02826 0.93558 0.0
H1300 H 0.63392 0.05483 0.94303 0.0
H1301 H 0.59915 0.96672 0.02113 0.0
H1302 H 0.62399 0.98041 0.04429 0.0
H1303 H 0.62878 0.97142 0.01259 0.0
C1304 C 0.62686 0.58912 0.47633 0.0
C1305 C 0.64251 0.60228 0.45576 0.0
C1306 C 0.61681 0.5999 0.4923 0.0
C1307 C 0.62274 0.62448 0.48769 0.0
C1308 C 0.63879 0.63801 0.46719 0.0
C1309 C 0.64843 0.6267 0.45137 0.0
C1310 C 0.5996 0.58486 0.51391 0.0
C1311 C 0.64564 0.66433 0.46187 0.0
C1312 C 0.57773 0.64285 0.51342 0.0
C1313 C 0.58886 0.65427 0.53691 0.0
C1314 C 0.58882 0.63349 0.49695 0.0
C1315 C 0.61166 0.6358 0.50407 0.0
C1316 C 0.62336 0.64795 0.52736 0.0
C1317 C 0.61176 0.65698 0.54358 0.0
C1318 C 0.57576 0.62053 0.47229 0.0
C1319 C 0.64784 0.65091 0.53544 0.0
H1320 H 0.62216 0.57023 0.4798 0.0
H1321 H 0.6606 0.637 0.43556 0.0
H1322 H 0.60682 0.59422 0.53278 0.0
H1323 H 0.58134 0.58326 0.51095 0.0
H1324 H 0.59707 0.56606 0.51506 0.0
H1325 H 0.65892 0.67251 0.44563 0.0
H1326 H 0.62889 0.66526 0.45703 0.0
H1327 H 0.65386 0.67572 0.47946 0.0
H1328 H 0.56003 0.64069 0.50814 0.0
H1329 H 0.62052 0.66591 0.56164 0.0
H1330 H 0.57105 0.60098 0.47308 0.0
H1331 H 0.58803 0.62902 0.45537 0.0
H1332 H 0.55857 0.62115 0.46907 0.0
H1333 H 0.64586 0.63256 0.53888 0.0
H1334 H 0.65516 0.66208 0.55337 0.0
H1335 H 0.66153 0.65982 0.5197 0.0
C1336 C 0.94185 0.61232 0.03751 0.0
C1337 C 0.94414 0.59844 0.05751 0.0
C1338 C 0.96078 0.62467 0.01937 0.0
C1339 C 0.98247 0.62315 0.02143 0.0
C1340 C 0.98532 0.6101 0.04226 0.0
C1341 C 0.96609 0.59786 0.06001 0.0
C1342 C 0.95715 0.63844 -0.0026 0.0
C1343 C 0.00828 0.60822 0.04521 0.0
C1344 C 0.01933 0.62664 0.96209 0.0
C1345 C 0.04009 0.65013 0.96464 0.0
C1346 C -6e-05 0.61808 0.97986 0.0
C1347 C 0.00139 0.63334 0.00076 0.0
C1348 C 0.02179 0.65746 0.00287 0.0
C1349 C 0.04093 0.66561 0.9847 0.0
C1350 C 0.97836 0.59229 0.97685 0.0
C1351 C 0.02391 0.67423 0.02491 0.0
H1352 H 0.92496 0.61291 0.03552 0.0
H1353 H 0.9681 0.58738 0.07557 0.0
H1354 H 0.97332 0.65721 0.99567 0.0
H1355 H 0.95546 0.62876 0.97885 0.0
H1356 H 0.94038 0.63994 -0.0 0.0
H1357 H 0.00836 0.59897 0.06354 0.0
H1358 H 0.0097 0.59764 0.02873 0.0
H1359 H 0.02489 0.6268 0.04479 0.0
H1360 H 0.01844 0.61466 0.94648 0.0
H1361 H 0.05689 0.68382 0.98674 0.0
H1362 H 0.96081 0.59253 0.97733 0.0
H1363 H 0.97806 0.58073 0.99327 0.0
H1364 H 0.97917 0.5835 0.95847 0.0
H1365 H 0.00675 0.67509 0.02671 0.0
H1366 H 0.03964 0.6932 0.02234 0.0
H1367 H 0.02648 0.66676 0.04341 0.0
C1368 C 0.34455 0.95336 0.5293 0.0
C1369 C 0.35085 0.93551 0.52281 0.0
C1370 C 0.35349 0.97509 0.51482 0.0
C1371 C 0.36924 0.97909 0.49353 0.0
C1372 C 0.37501 0.96079 0.48638 0.0
C1373 C 0.36565 0.93916 0.50105 0.0
C1374 C 0.34673 0.9941 0.5228 0.0
C1375 C 0.39185 0.96446 0.46384 0.0
C1376 C 0.38224 0.02813 0.44309 0.0
C1377 C 0.40533 0.04718 0.45119 0.0
C1378 C 0.36986 0.00608 0.45714 0.0
C1379 C 0.38097 0.00299 0.47963 0.0
C1380 C 0.40398 0.02239 0.48823 0.0
C1381 C 0.41584 0.04429 0.47397 0.0
C1382 C 0.34521 0.98587 0.44757 0.0
C1383 C 0.41646 0.01972 0.51208 0.0
H1384 H 0.333 0.95059 0.54602 0.0
H1385 H 0.37059 0.92545 0.49589 0.0
H1386 H 0.36339 0.01089 0.52983 0.0
H1387 H 0.33956 -0.00045 0.50592 0.0
H1388 H 0.33269 0.98731 0.53842 0.0
H1389 H 0.39351 0.94794 0.46002 0.0
H1390 H 0.38498 0.96894 0.44601 0.0
H1391 H 0.41047 0.98025 0.46788 0.0
H1392 H 0.37394 0.03029 0.42558 0.0
H1393 H 0.43367 0.05893 0.48035 0.0
H1394 H 0.33142 0.97973 0.46338 0.0
H1395 H 0.34674 0.96971 0.4416 0.0
H1396 H 0.3383 0.99181 0.43082 0.0
H1397 H 0.40403 0.01467 0.52905 0.0
H1398 H 0.43391 0.03686 0.51671 0.0
H1399 H 0.4206 0.00465 0.50912 0.0
C1400 C 0.36904 0.36409 0.03983 0.0
C1401 C 0.37237 0.3438 0.04324 0.0
C1402 C 0.3589 0.36712 0.01686 0.0
C1403 C 0.35172 0.34929 -0.00306 0.0
C1404 C 0.35359 0.32799 0.00091 0.0
C1405 C 0.36402 0.32555 0.02399 0.0
C1406 C 0.35722 0.39013 0.01332 0.0
C1407 C 0.34577 0.30842 0.98027 0.0
C1408 C 0.3153 0.35665 0.94236 0.0
C1409 C 0.33418 0.37129 0.92496 0.0
C1410 C 0.32044 0.34811 0.96539 0.0
C1411 C 0.345 0.3545 0.97106 0.0
C1412 C 0.36383 0.36794 0.95278 0.0
C1413 C 0.35817 0.37608 0.92992 0.0
C1414 C 0.29984 0.33346 0.98425 0.0
C1415 C 0.39027 0.37504 0.95804 0.0
H1416 H 0.3753 0.3782 0.05467 0.0
H1417 H 0.36628 0.30965 0.02662 0.0
H1418 H 0.37024 0.40175 -0.00203 0.0
H1419 H 0.33846 0.38533 0.00691 0.0
H1420 H 0.36168 0.40117 0.0314 0.0
H1421 H 0.3451 0.29149 0.98773 0.0
H1422 H 0.32738 0.30349 0.97245 0.0
H1423 H 0.35898 0.3156 0.96391 0.0
H1424 H 0.29669 0.35276 0.9386 0.0
H1425 H 0.37283 0.38715 0.91644 0.0
H1426 H 0.30175 0.34509 0.00127 0.0
H1427 H 0.30079 0.3173 0.99147 0.0
H1428 H 0.28145 0.32696 0.9754 0.0
H1429 H 0.3974 0.38797 0.97469 0.0
H1430 H 0.40236 0.38402 0.94107 0.0
H1431 H 0.39152 0.35859 0.96337 0.0
C1432 C 0.00604 0.36579 0.5614 0.0
C1433 C 0.02897 0.36732 0.55856 0.0
C1434 C 0.98802 0.35517 0.54205 0.0
C1435 C 0.9932 0.34616 0.51919 0.0
C1436 C 0.01588 0.3466 0.51672 0.0
C1437 C 0.03348 0.35707 0.53656 0.0
C1438 C 0.9639 0.3547 0.54556 0.0
C1439 C 0.0221 0.33731 0.49253 0.0
C1440 C 0.93916 0.30801 0.4744 0.0
C1441 C 0.94035 0.32618 0.45766 0.0
C1442 C 0.95668 0.31404 0.49418 0.0
C1443 C 0.9759 0.33872 0.49695 0.0
C1444 C 0.97776 0.35687 0.47935 0.0
C1445 C 0.95987 0.35041 0.46004 0.0
C1446 C 0.95404 0.29427 0.51274 0.0
C1447 C -0.00179 0.38333 0.48144 0.0
H1448 H 0.00236 0.37344 0.57852 0.0
H1449 H 0.05119 0.3582 0.53427 0.0
H1450 H 0.96281 0.36761 0.53165 0.0
H1451 H 0.94822 0.33606 0.54138 0.0
H1452 H 0.96176 0.36007 0.56549 0.0
H1453 H 0.03925 0.33643 0.49481 0.0
H1454 H 0.00683 0.31876 0.4873 0.0
H1455 H 0.02458 0.34976 0.4761 0.0
H1456 H 0.92407 0.28926 0.47266 0.0
H1457 H 0.96102 0.36447 0.44695 0.0
H1458 H 0.94953 0.29812 0.53234 0.0
H1459 H 0.97165 0.29423 0.51436 0.0
H1460 H 0.93936 0.27566 0.50665 0.0
H1461 H -0.00365 0.39141 0.49983 0.0
H1462 H -0.00197 0.39478 0.46509 0.0
H1463 H 0.01635 0.38432 0.48186 0.0
C1464 C 0.48387 0.08305 0.09231 0.0
C1465 C 0.47965 0.09372 0.11417 0.0
C1466 C 0.50566 0.08217 0.08978 0.0
C1467 C 0.52371 0.09225 0.10955 0.0
C1468 C 0.51974 0.10335 0.1315 0.0
C1469 C 0.49772 0.10392 0.13356 0.0
C1470 C 0.50922 0.07014 0.0661 0.0
C1471 C 0.53862 0.11435 0.15293 0.0
C1472 C 0.56808 0.06799 0.11494 0.0
C1473 C 0.58898 0.08643 0.10232 0.0
C1474 C 0.54681 0.06979 0.11765 0.0
C1475 C 0.54644 0.09056 0.10752 0.0
C1476 C 0.56754 0.10937 0.09499 0.0
C1477 C 0.58857 0.10707 0.09251 0.0
C1478 C 0.52463 0.04934 0.13111 0.0
C1479 C 0.56782 0.13181 0.08401 0.0
H1480 H 0.47003 0.07514 0.0772 0.0
H1481 H 0.49464 0.11225 0.15048 0.0
H1482 H 0.52645 0.08329 0.05598 0.0
H1483 H 0.51112 0.05417 0.07202 0.0
H1484 H 0.49365 0.06367 0.05221 0.0
H1485 H 0.53305 0.12294 0.16834 0.0
H1486 H 0.54144 0.09986 0.16186 0.0
H1487 H 0.55658 0.1285 0.1449 0.0
H1488 H 0.56824 0.05199 0.12262 0.0
H1489 H 0.60468 0.12144 0.0828 0.0
H1490 H 0.50876 0.04097 0.11755 0.0
H1491 H 0.51927 0.05683 0.14775 0.0
H1492 H 0.52807 0.03464 0.13832 0.0
H1493 H 0.55344 0.12619 0.06884 0.0
H1494 H 0.5859 0.14507 0.0754 0.0
H1495 H 0.56344 0.14133 0.09944 0.0
C1496 C 0.48548 0.60189 0.59118 0.0
C1497 C 0.4907 0.6145 0.6149 0.0
C1498 C 0.46399 0.57909 0.58782 0.0
C1499 C 0.44724 0.56866 0.60864 0.0
C1500 C 0.45205 0.58154 0.63242 0.0
C1501 C 0.47378 0.6043 0.6353 0.0
C1502 C 0.45953 0.56589 0.56218 0.0
C1503 C 0.43451 0.57102 0.65499 0.0
C1504 C 0.38264 0.5174 0.59233 0.0
C1505 C 0.38415 0.4964 0.59837 0.0
C1506 C 0.40291 0.54109 0.59597 0.0
C1507 C 0.42522 0.5438 0.60577 0.0
C1508 C 0.42679 0.52269 0.61208 0.0
C1509 C 0.40623 0.49925 0.60836 0.0
C1510 C 0.40054 0.56321 0.58912 0.0
C1511 C 0.45031 0.52484 0.62247 0.0
H1512 H 0.49841 0.60963 0.57528 0.0
H1513 H 0.47763 0.61396 0.65365 0.0
H1514 H 0.45912 0.54817 0.56506 0.0
H1515 H 0.44136 0.56153 0.5542 0.0
H1516 H 0.47393 0.57691 0.54764 0.0
H1517 H 0.44029 0.5839 0.6717 0.0
H1518 H 0.41574 0.56654 0.64893 0.0
H1519 H 0.43335 0.55362 0.66149 0.0
H1520 H 0.36561 0.51536 0.5847 0.0
H1521 H 0.40755 0.48313 0.6131 0.0
H1522 H 0.4137 0.57388 0.57348 0.0
H1523 H 0.40529 0.57558 0.60615 0.0
H1524 H 0.38167 0.55798 0.58256 0.0
H1525 H 0.46529 0.5343 0.60807 0.0
H1526 H 0.44834 0.50663 0.62695 0.0
H1527 H 0.4561 0.53617 0.64037 0.0
C1528 C 0.90756 0.38221 0.12439 0.0
C1529 C 0.88519 0.35988 0.12545 0.0
C1530 C 0.90813 0.4048 0.12541 0.0
C1531 C 0.88578 0.40508 0.12739 0.0
C1532 C 0.86313 0.38264 0.12833 0.0
C1533 C 0.86311 0.36028 0.12742 0.0
C1534 C 0.93265 0.42838 0.12448 0.0
C1535 C 0.83894 0.38226 0.13029 0.0
C1536 C 0.88888 0.46301 0.15366 0.0
C1537 C 0.88852 0.47493 0.1308 0.0
C1538 C 0.88781 0.44016 0.15284 0.0
C1539 C 0.88618 0.42891 0.12858 0.0
C1540 C 0.8855 0.44068 0.10545 0.0
C1541 C 0.88675 0.4636 0.10683 0.0
C1542 C 0.88872 0.42819 0.1779 0.0
C1543 C 0.88365 0.42916 0.07924 0.0
H1544 H 0.92472 0.38207 0.12289 0.0
H1545 H 0.84575 0.34312 0.12817 0.0
H1546 H 0.9332 0.43963 0.10763 0.0
H1547 H 0.93513 0.43943 0.14218 0.0
H1548 H 0.94835 0.42497 0.12297 0.0
H1549 H 0.82292 0.36325 0.13055 0.0
H1550 H 0.8386 0.39187 0.1482 0.0
H1551 H 0.83686 0.39229 0.11365 0.0
H1552 H 0.89027 0.47165 0.17226 0.0
H1553 H 0.88637 0.47265 0.08908 0.0
H1554 H 0.90508 0.42579 0.17803 0.0
H1555 H 0.87223 0.40961 0.17957 0.0
H1556 H 0.8896 0.43917 0.19517 0.0
H1557 H 0.89987 0.42687 0.07607 0.0
H1558 H 0.88263 0.44039 0.06315 0.0
H1559 H 0.86708 0.41056 0.07846 0.0
C1560 C 0.42362 0.92377 0.60666 0.0
C1561 C 0.40357 0.90387 0.59442 0.0
C1562 C 0.4466 0.92517 0.60812 0.0
C1563 C 0.44964 0.9063 0.59691 0.0
C1564 C 0.42957 0.88627 0.58429 0.0
C1565 C 0.40671 0.88525 0.58327 0.0
C1566 C 0.46755 0.94674 0.62188 0.0
C1567 C 0.43221 0.86589 0.57198 0.0
C1568 C 0.51515 0.92175 0.58248 0.0
C1569 C 0.52039 0.91131 0.60385 0.0
C1570 C 0.49201 0.91986 0.5797 0.0
C1571 C 0.47379 0.90738 0.59885 0.0
C1572 C 0.47889 0.89662 0.62033 0.0
C1573 C 0.50211 0.89864 0.62253 0.0
C1574 C 0.48716 0.93145 0.55645 0.0
C1575 C 0.45996 0.88331 0.64122 0.0
H1576 H 0.42135 0.93822 0.61536 0.0
H1577 H 0.39132 0.86986 0.57369 0.0
H1578 H 0.47402 0.94009 0.63837 0.0
H1579 H 0.48333 0.95665 0.60849 0.0
H1580 H 0.46219 0.95998 0.6294 0.0
H1581 H 0.41497 0.8519 0.5624 0.0
H1582 H 0.44716 0.87366 0.55737 0.0
H1583 H 0.43743 0.8566 0.58691 0.0
H1584 H 0.52915 0.93147 0.5679 0.0
H1585 H 0.50601 0.89053 0.63911 0.0
H1586 H 0.48332 0.94605 0.5629 0.0
H1587 H 0.47063 0.91748 0.54587 0.0
H1588 H 0.50296 0.93968 0.54281 0.0
H1589 H 0.45504 0.89616 0.65062 0.0
H1590 H 0.46665 0.87547 0.65638 0.0
H1591 H 0.44287 0.86816 0.63259 0.0
C1592 C 0.58641 0.49651 0.10281 0.0
C1593 C 0.60701 0.49428 0.1088 0.0
C1594 C 0.56272 0.47582 0.10226 0.0
C1595 C 0.55963 0.45229 0.1074 0.0
C1596 C 0.58043 0.44982 0.11272 0.0
C1597 C 0.60388 0.4709 0.11358 0.0
C1598 C 0.54093 0.47922 0.0969 0.0
C1599 C 0.57786 0.42496 0.11788 0.0
C1600 C 0.498 0.40256 0.13299 0.0
C1601 C 0.48672 0.38909 0.11046 0.0
C1602 C 0.52166 0.42327 0.13219 0.0
C1603 C 0.53451 0.43041 0.10836 0.0
C1604 C 0.52329 0.41681 0.08557 0.0
C1605 C 0.4994 0.3964 0.08684 0.0
C1606 C 0.53285 0.43757 0.15684 0.0
C1607 C 0.5366 0.4237 0.0599 0.0
H1608 H 0.58869 0.51455 0.09919 0.0
H1609 H 0.61978 0.46905 0.11802 0.0
H1610 H 0.53017 0.46764 0.08025 0.0
H1611 H 0.52851 0.47315 0.11396 0.0
H1612 H 0.54654 0.49867 0.09259 0.0
H1613 H 0.59598 0.42602 0.12011 0.0
H1614 H 0.56707 0.41699 0.13584 0.0
H1615 H 0.56766 0.41211 0.10179 0.0
H1616 H 0.48822 0.39708 0.15127 0.0
H1617 H 0.4908 0.38594 0.06941 0.0
H1618 H 0.53766 0.45702 0.15421 0.0
H1619 H 0.55015 0.4376 0.1614 0.0
H1620 H 0.52024 0.42982 0.17367 0.0
H1621 H 0.5413 0.44265 0.05445 0.0
H1622 H 0.52546 0.41096 0.04406 0.0
H1623 H 0.55416 0.42355 0.06158 0.0
C1624 C 0.08488 0.50107 0.61657 0.0
C1625 C 0.06688 0.48205 0.63178 0.0
C1626 C 0.08833 0.52493 0.61759 0.0
C1627 C 0.07342 0.52989 0.63421 0.0
C1628 C 0.05518 0.51079 0.64956 0.0
C1629 C 0.05213 0.48709 0.64818 0.0
C1630 C 0.10797 0.54483 0.60092 0.0
C1631 C 0.03889 0.51541 0.66746 0.0
C1632 C 0.09641 0.59613 0.65422 0.0
C1633 C 0.08323 0.60286 0.63735 0.0
C1634 C 0.0934 0.57242 0.65342 0.0
C1635 C 0.07679 0.55505 0.63535 0.0
C1636 C 0.06345 0.56173 0.61826 0.0
C1637 C 0.06685 0.58555 0.61944 0.0
C1638 C 0.10799 0.56595 0.6719 0.0
C1639 C 0.04556 0.54369 0.59874 0.0
H1640 H 0.09638 0.49736 0.60386 0.0
H1641 H 0.0382 0.47252 0.66001 0.0
H1642 H 0.09954 0.55249 0.58767 0.0
H1643 H 0.12138 0.56018 0.61329 0.0
H1644 H 0.11808 0.53797 0.58912 0.0
H1645 H 0.02559 0.49858 0.67813 0.0
H1646 H 0.05033 0.52989 0.68175 0.0
H1647 H 0.02845 0.52223 0.65618 0.0
H1648 H 0.1091 0.60938 0.66811 0.0
H1649 H 0.05657 0.59057 0.60634 0.0
H1650 H 0.1195 0.5603 0.66084 0.0
H1651 H 0.0953 0.55009 0.68412 0.0
H1652 H 0.12015 0.58156 0.68477 0.0
H1653 H 0.05525 0.53741 0.58554 0.0
H1654 H 0.03656 0.55176 0.58689 0.0
H1655 H 0.03107 0.52717 0.60885 0.0
C1656 C 0.91512 0.51474 0.40656 0.0
C1657 C 0.90099 0.51793 0.38749 0.0
C1658 C 0.91576 0.49275 0.40826 0.0
C1659 C 0.902 0.47354 0.39041 0.0
C1660 C 0.88759 0.47658 0.37123 0.0
C1661 C 0.88723 0.49872 0.37002 0.0
C1662 C 0.93128 0.49014 0.42903 0.0
C1663 C 0.87272 0.45651 0.35182 0.0
C1664 C 0.92182 0.42635 0.37831 0.0
C1665 C 0.90473 0.40635 0.39316 0.0
C1666 C 0.92114 0.44833 0.37727 0.0
C1667 C 0.903 0.45041 0.39151 0.0
C1668 C 0.88578 0.43035 0.40665 0.0
C1669 C 0.88681 0.40853 0.40725 0.0
C1670 C 0.93975 0.4693 0.36081 0.0
C1671 C 0.86624 0.43194 0.42217 0.0
H1672 H 0.92577 0.52947 0.42017 0.0
H1673 H 0.87626 0.50102 0.35522 0.0
H1674 H 0.91967 0.47382 0.44124 0.0
H1675 H 0.94558 0.48713 0.41997 0.0
H1676 H 0.9405 0.50661 0.44174 0.0
H1677 H 0.86222 0.46165 0.33832 0.0
H1678 H 0.8851 0.45234 0.34027 0.0
H1679 H 0.85958 0.43936 0.36206 0.0
H1680 H 0.9357 0.42482 0.36733 0.0
H1681 H 0.87356 0.39318 0.41881 0.0
H1682 H 0.95055 0.48588 0.37301 0.0
H1683 H 0.93015 0.47415 0.34587 0.0
H1684 H 0.95269 0.46475 0.35095 0.0
H1685 H 0.87497 0.4475 0.43606 0.0
H1686 H 0.85438 0.41479 0.43317 0.0
H1687 H 0.85441 0.43562 0.40907 0.0
C1688 C 0.44713 0.86353 0.9027 0.0
C1689 C 0.46572 0.87259 0.88387 0.0
C1690 C 0.42494 0.86329 0.89833 0.0
C1691 C 0.42126 0.87228 0.87456 0.0
C1692 C 0.43956 0.88061 0.85512 0.0
C1693 C 0.46158 0.88068 0.86001 0.0
C1694 C 0.4058 0.85425 0.91951 0.0
C1695 C 0.43626 0.89026 0.8295 0.0
C1696 C 0.35664 0.85792 0.85654 0.0
C1697 C 0.35711 0.87958 0.86422 0.0
C1698 C 0.37742 0.85525 0.85969 0.0
C1699 C 0.3991 0.8747 0.87078 0.0
C1700 C 0.39972 0.89666 0.87837 0.0
C1701 C 0.37874 0.89884 0.87499 0.0
C1702 C 0.37616 0.83159 0.85134 0.0
C1703 C 0.42252 0.91784 0.89024 0.0
H1704 H 0.45014 0.85716 0.92113 0.0
H1705 H 0.47578 0.88757 0.84528 0.0
H1706 H 0.40374 0.86976 0.92679 0.0
H1707 H 0.38764 0.84015 0.91178 0.0
H1708 H 0.41071 0.84623 0.93609 0.0
H1709 H 0.45142 0.89431 0.81572 0.0
H1710 H 0.41855 0.87672 0.82042 0.0
H1711 H 0.43561 0.9074 0.83273 0.0
H1712 H 0.33999 0.84295 0.84823 0.0
H1713 H 0.37929 0.91565 0.88101 0.0
H1714 H 0.3796 0.82276 0.86821 0.0
H1715 H 0.39072 0.83552 0.83685 0.0
H1716 H 0.35802 0.81834 0.84276 0.0
H1717 H 0.42753 0.9117 0.90825 0.0
H1718 H 0.42 0.9337 0.89501 0.0
H1719 H 0.43825 0.92419 0.87669 0.0
C1720 C 0.50562 0.41566 0.38303 0.0
C1721 C 0.5061 0.39462 0.37473 0.0
C1722 C 0.52695 0.43887 0.38273 0.0
C1723 C 0.5493 0.44116 0.37377 0.0
C1724 C 0.54995 0.42004 0.36531 0.0
C1725 C 0.52833 0.39697 0.36597 0.0
C1726 C 0.52556 0.46097 0.39203 0.0
C1727 C 0.57346 0.42185 0.35551 0.0
C1728 C 0.59749 0.50509 0.35185 0.0
C1729 C 0.61271 0.51398 0.37379 0.0
C1730 C 0.57721 0.48112 0.35128 0.0
C1731 C 0.57192 0.46577 0.37325 0.0
C1732 C 0.58752 0.47444 0.39523 0.0
C1733 C 0.60779 0.49842 0.3952 0.0
C1734 C 0.56109 0.47244 0.32741 0.0
C1735 C 0.58238 0.45863 0.41906 0.0
H1736 H 0.48855 0.41401 0.38992 0.0
H1737 H 0.52884 0.38081 0.35948 0.0
H1738 H 0.53862 0.46998 0.40831 0.0
H1739 H 0.53104 0.47469 0.37621 0.0
H1740 H 0.50679 0.456 0.39864 0.0
H1741 H 0.57086 0.40368 0.34957 0.0
H1742 H 0.58047 0.43449 0.33866 0.0
H1743 H 0.58783 0.42968 0.37079 0.0
H1744 H 0.60127 0.51694 0.33516 0.0
H1745 H 0.61947 0.50515 0.41222 0.0
H1746 H 0.54241 0.46899 0.33225 0.0
H1747 H 0.55907 0.4548 0.32045 0.0
H1748 H 0.56858 0.48606 0.31138 0.0
H1749 H 0.56453 0.45455 0.42764 0.0
H1750 H 0.59696 0.46765 0.43404 0.0
H1751 H 0.58081 0.44076 0.41377 0.0
C1752 C 0.09889 0.48316 0.92217 0.0
C1753 C 0.10943 0.47938 0.89994 0.0
C1754 C 0.0954 0.5035 0.92412 0.0
C1755 C 0.10263 0.52044 0.90335 0.0
C1756 C 0.1139 0.51711 0.88118 0.0
C1757 C 0.11718 0.49662 0.87975 0.0
C1758 C 0.08338 0.50651 0.9481 0.0
C1759 C 0.12189 0.53483 0.85866 0.0
C1760 C 0.07026 0.55735 0.89487 0.0
C1761 C 0.08771 0.58036 0.90485 0.0
C1762 C 0.07484 0.53765 0.89445 0.0
C1763 C 0.09741 0.54105 0.90428 0.0
C1764 C 0.11502 0.56415 0.91461 0.0
C1765 C 0.10996 0.58355 0.91477 0.0
C1766 C 0.0556 0.51326 0.88329 0.0
C1767 C 0.13927 0.56842 0.92527 0.0
H1768 H 0.09291 0.46996 0.9379 0.0
H1769 H 0.12539 0.49387 0.86253 0.0
H1770 H 0.0951 0.52504 0.95663 0.0
H1771 H 0.06552 0.505 0.94286 0.0
H1772 H 0.08001 0.49245 0.96308 0.0
H1773 H 0.13144 0.53028 0.84339 0.0
H1774 H 0.10559 0.53453 0.84987 0.0
H1775 H 0.13441 0.55388 0.86549 0.0
H1776 H 0.05302 0.55471 0.88718 0.0
H1777 H 0.12354 0.60127 0.92253 0.0
H1778 H 0.05013 0.49852 0.89798 0.0
H1779 H 0.06334 0.50834 0.86652 0.0
H1780 H 0.03886 0.51355 0.87677 0.0
H1781 H 0.136 0.55504 0.94098 0.0
H1782 H 0.15079 0.58733 0.93307 0.0
H1783 H 0.14973 0.56536 0.90983 0.0
C1784 C 0.59571 0.09262 0.38312 0.0
C1785 C 0.61882 0.11412 0.38247 0.0
C1786 C 0.57397 0.09379 0.38315 0.0
C1787 C 0.57539 0.11701 0.38291 0.0
C1788 C 0.59865 0.13879 0.38313 0.0
C1789 C 0.62011 0.13709 0.38271 0.0
C1790 C 0.54949 0.07014 0.38264 0.0
C1791 C 0.60086 0.16388 0.3833 0.0
C1792 C 0.52035 0.11878 0.35502 0.0
C1793 C 0.50716 0.11748 0.37746 0.0
C1794 C 0.5428 0.11907 0.35657 0.0
C1795 C 0.55247 0.1184 0.38117 0.0
C1796 C 0.53969 0.11794 0.40394 0.0
C1797 C 0.51707 0.11731 0.40181 0.0
C1798 C 0.55577 0.11931 0.33184 0.0
C1799 C 0.54964 0.1176 0.43051 0.0
H1800 H 0.59457 0.07481 0.38287 0.0
H1801 H 0.63792 0.15377 0.38241 0.0
H1802 H 0.53793 0.06964 0.39914 0.0
H1803 H 0.53944 0.0692 0.36457 0.0
H1804 H 0.55157 0.05359 0.38364 0.0
H1805 H 0.62025 0.17896 0.38525 0.0
H1806 H 0.59319 0.16665 0.36505 0.0
H1807 H 0.58999 0.16522 0.39952 0.0
H1808 H 0.51278 0.11885 0.33614 0.0
H1809 H 0.50704 0.11646 0.41923 0.0
H1810 H 0.55696 0.10228 0.33056 0.0
H1811 H 0.57487 0.13509 0.33188 0.0
H1812 H 0.54617 0.12054 0.31429 0.0
H1813 H 0.55009 0.10028 0.43312 0.0
H1814 H 0.53835 0.11899 0.44626 0.0
H1815 H 0.56882 0.13304 0.43247 0.0
C1816 C 0.52127 0.58786 0.86328 0.0
C1817 C 0.52426 0.60766 0.87854 0.0
C1818 C 0.49811 0.56672 0.86032 0.0
C1819 C 0.47749 0.56531 0.87304 0.0
C1820 C 0.48038 0.58514 0.88863 0.0
C1821 C 0.50375 0.60612 0.89116 0.0
C1822 C 0.49571 0.54593 0.8435 0.0
C1823 C 0.45879 0.58419 0.9026 0.0
C1824 C 0.41429 0.51966 0.8466 0.0
C1825 C 0.4071 0.49963 0.86338 0.0
C1826 C 0.43706 0.5413 0.84971 0.0
C1827 C 0.45291 0.54294 0.87013 0.0
C1828 C 0.4456 0.52294 0.88736 0.0
C1829 C 0.4228 0.50151 0.88375 0.0
C1830 C 0.44431 0.56228 0.83092 0.0
C1831 C 0.462 0.52407 0.90942 0.0
H1832 H 0.537 0.58892 0.8534 0.0
H1833 H 0.50593 0.62135 0.90302 0.0
H1834 H 0.48843 0.52881 0.85509 0.0
H1835 H 0.48239 0.5423 0.8276 0.0
H1836 H 0.51355 0.54998 0.83485 0.0
H1837 H 0.46416 0.60113 0.91406 0.0
H1838 H 0.44443 0.58174 0.88841 0.0
H1839 H 0.45038 0.56813 0.91586 0.0
H1840 H 0.40227 0.51835 0.83083 0.0
H1841 H 0.41735 0.48616 0.89688 0.0
H1842 H 0.46125 0.56603 0.82041 0.0
H1843 H 0.44855 0.57929 0.8416 0.0
H1844 H 0.42962 0.55832 0.81649 0.0
H1845 H 0.47952 0.52643 0.90163 0.0
H1846 H 0.45324 0.50721 0.92159 0.0
H1847 H 0.46669 0.54021 0.92192 0.0
loop_
_geom_bond_atom_site_label_1
_geom_bond_atom_site_label_2
_geom_bond_distance
_geom_bond_site_symmetry_2
_ccdc_geom_bond_type
C0 O1 1.160 . S
C0 O7 1.185 . S
O1 C0 1.160 . S
O2 Zn3 1.899 . S
O2 C10 1.284 . S
Zn3 O2 1.899 . S
Zn3 O4 2.032 . S
Zn3 O7 2.086 . S
Zn3 O12 1.977 . S
O4 Zn3 2.032 . S
O4 C8 1.278 . S
C5 O6 1.203 . S
C5 O12 1.267 . S
O6 C5 1.203 . S
O7 C0 1.185 . S
O7 Zn3 2.086 . S
C8 O4 1.278 . S
C8 O9 1.211 . S
O9 C8 1.211 . S
C10 O2 1.284 . S
C10 O11 1.273 . S
O11 C10 1.273 . S
O12 Zn3 1.977 . S
O12 C5 1.267 . S
C13 O14 1.160 . S
C13 O20 1.185 . S
O14 C13 1.160 . S
O15 Zn16 1.899 . S
O15 C23 1.284 . S
Zn16 O15 1.899 . S
Zn16 O17 2.032 . S
Zn16 O20 2.086 . S
Zn16 O25 1.977 . S
O17 Zn16 2.032 . S
O17 C21 1.278 . S
C18 O19 1.203 . S
C18 O25 1.267 . S
O19 C18 1.203 . S
O20 C13 1.185 . S
O20 Zn16 2.086 . S
C21 O17 1.278 . S
C21 O22 1.211 . S
O22 C21 1.211 . S
C23 O15 1.284 . S
C23 O24 1.273 . S
O24 C23 1.273 . S
O25 Zn16 1.977 . S
O25 C18 1.267 . S
C26 O27 1.160 . S
C26 O33 1.185 . S
O27 C26 1.160 . S
O28 Zn29 1.899 . S
O28 C36 1.284 . S
Zn29 O28 1.899 . S
Zn29 O30 2.032 . S
Zn29 O33 2.086 . S
Zn29 O38 1.977 . S
O30 Zn29 2.032 . S
O30 C34 1.278 . S
C31 O32 1.203 . S
C31 O38 1.267 . S
O32 C31 1.203 . S
O33 C26 1.185 . S
O33 Zn29 2.086 . S
C34 O30 1.278 . S
C34 O35 1.211 . S
O35 C34 1.211 . S
C36 O28 1.284 . S
C36 O37 1.273 . S
O37 C36 1.273 . S
O38 Zn29 1.977 . S
O38 C31 1.267 . S
C39 O40 1.160 . S
C39 O46 1.185 . S
O40 C39 1.160 . S
O41 Zn42 1.899 . S
O41 C49 1.284 . S
Zn42 O41 1.899 . S
Zn42 O43 2.032 . S
Zn42 O46 2.086 . S
Zn42 O51 1.977 . S
O43 Zn42 2.032 . S
O43 C47 1.278 . S
C44 O45 1.203 . S
C44 O51 1.267 . S
O45 C44 1.203 . S
O46 C39 1.185 . S
O46 Zn42 2.086 . S
C47 O43 1.278 . S
C47 O48 1.211 . S
O48 C47 1.211 . S
C49 O41 1.284 . S
C49 O50 1.273 . S
O50 C49 1.273 . S
O51 Zn42 1.977 . S
O51 C44 1.267 . S
C52 O53 1.160 . S
C52 O59 1.185 . S
O53 C52 1.160 . S
O54 Zn55 1.899 . S
O54 C62 1.284 . S
Zn55 O54 1.899 . S
Zn55 O56 2.032 . S
Zn55 O59 2.086 . S
Zn55 O64 1.977 . S
O56 Zn55 2.032 . S
O56 C60 1.278 . S
C57 O58 1.203 . S
C57 O64 1.267 . S
O58 C57 1.203 . S
O59 C52 1.185 . S
O59 Zn55 2.086 . S
C60 O56 1.278 . S
C60 O61 1.211 . S
O61 C60 1.211 . S
C62 O54 1.284 . S
C62 O63 1.273 . S
O63 C62 1.273 . S
O64 Zn55 1.977 . S
O64 C57 1.267 . S
C65 O66 1.160 . S
C65 O72 1.185 . S
O66 C65 1.160 . S
O67 Zn68 1.899 . S
O67 C75 1.284 . S
Zn68 O67 1.899 . S
Zn68 O69 2.032 . S
Zn68 O72 2.086 . S
Zn68 O77 1.977 . S
O69 Zn68 2.032 . S
O69 C73 1.278 . S
C70 O71 1.203 . S
C70 O77 1.267 . S
O71 C70 1.203 . S
O72 C65 1.185 . S
O72 Zn68 2.086 . S
C73 O69 1.278 . S
C73 O74 1.211 . S
O74 C73 1.211 . S
C75 O67 1.284 . S
C75 O76 1.273 . S
O76 C75 1.273 . S
O77 Zn68 1.977 . S
O77 C70 1.267 . S
C78 O79 1.160 . S
C78 O85 1.185 . S
O79 C78 1.160 . S
O80 Zn81 1.899 . S
O80 C88 1.284 . S
Zn81 O80 1.899 . S
Zn81 O82 2.032 . S
Zn81 O85 2.086 . S
Zn81 O90 1.977 . S
O82 Zn81 2.032 . S
O82 C86 1.278 . S
C83 O84 1.203 . S
C83 O90 1.267 . S
O84 C83 1.203 . S
O85 C78 1.185 . S
O85 Zn81 2.086 . S
C86 O82 1.278 . S
C86 O87 1.211 . S
O87 C86 1.211 . S
C88 O80 1.284 . S
C88 O89 1.273 . S
O89 C88 1.273 . S
O90 Zn81 1.977 . S
O90 C83 1.267 . S
C91 O92 1.160 . S
C91 O98 1.185 . S
O92 C91 1.160 . S
O93 Zn94 1.899 . S
O93 C101 1.284 . S
Zn94 O93 1.899 . S
Zn94 O95 2.032 . S
Zn94 O98 2.086 . S
Zn94 O103 1.977 . S
O95 Zn94 2.032 . S
O95 C99 1.278 . S
C96 O97 1.203 . S
C96 O103 1.267 . S
O97 C96 1.203 . S
O98 C91 1.185 . S
O98 Zn94 2.086 . S
C99 O95 1.278 . S
C99 O100 1.211 . S
O100 C99 1.211 . S
C101 O93 1.284 . S
C101 O102 1.273 . S
O102 C101 1.273 . S
O103 Zn94 1.977 . S
O103 C96 1.267 . S
C104 O105 1.160 . S
C104 O111 1.185 . S
O105 C104 1.160 . S
O106 Zn107 1.899 . S
O106 C114 1.284 . S
Zn107 O106 1.899 . S
Zn107 O108 2.032 . S
Zn107 O111 2.086 . S
Zn107 O116 1.977 . S
O108 Zn107 2.032 . S
O108 C112 1.278 . S
C109 O110 1.203 . S
C109 O116 1.267 . S
O110 C109 1.203 . S
O111 C104 1.185 . S
O111 Zn107 2.086 . S
C112 O108 1.278 . S
C112 O113 1.211 . S
O113 C112 1.211 . S
C114 O106 1.284 . S
C114 O115 1.273 . S
O115 C114 1.273 . S
O116 Zn107 1.977 . S
O116 C109 1.267 . S
C117 O118 1.160 . S
C117 O124 1.185 . S
O118 C117 1.160 . S
O119 Zn120 1.899 . S
O119 C127 1.284 . S
Zn120 O119 1.899 . S
Zn120 O121 2.032 . S
Zn120 O124 2.086 . S
Zn120 O129 1.977 . S
O121 Zn120 2.032 . S
O121 C125 1.278 . S
C122 O123 1.203 . S
C122 O129 1.267 . S
O123 C122 1.203 . S
O124 C117 1.185 . S
O124 Zn120 2.086 . S
C125 O121 1.278 . S
C125 O126 1.211 . S
O126 C125 1.211 . S
C127 O119 1.284 . S
C127 O128 1.273 . S
O128 C127 1.273 . S
O129 Zn120 1.977 . S
O129 C122 1.267 . S
C130 O131 1.160 . S
C130 O137 1.185 . S
O131 C130 1.160 . S
O132 Zn133 1.899 . S
O132 C140 1.284 . S
Zn133 O132 1.899 . S
Zn133 O134 2.032 . S
Zn133 O137 2.086 . S
Zn133 O142 1.977 . S
O134 Zn133 2.032 . S
O134 C138 1.278 . S
C135 O136 1.203 . S
C135 O142 1.267 . S
O136 C135 1.203 . S
O137 C130 1.185 . S
O137 Zn133 2.086 . S
C138 O134 1.278 . S
C138 O139 1.211 . S
O139 C138 1.211 . S
C140 O132 1.284 . S
C140 O141 1.273 . S
O141 C140 1.273 . S
O142 Zn133 1.977 . S
O142 C135 1.267 . S
C143 O144 1.160 . S
C143 O150 1.185 . S
O144 C143 1.160 . S
O145 Zn146 1.899 . S
O145 C153 1.284 . S
Zn146 O145 1.899 . S
Zn146 O147 2.032 . S
Zn146 O150 2.086 . S
Zn146 O155 1.977 . S
O147 Zn146 2.032 . S
O147 C151 1.278 . S
C148 O149 1.203 . S
C148 O155 1.267 . S
O149 C148 1.203 . S
O150 C143 1.185 . S
O150 Zn146 2.086 . S
C151 O147 1.278 . S
C151 O152 1.211 . S
O152 C151 1.211 . S
C153 O145 1.284 . S
C153 O154 1.273 . S
O154 C153 1.273 . S
O155 Zn146 1.977 . S
O155 C148 1.267 . S
C156 O157 1.160 . S
C156 O163 1.185 . S
O157 C156 1.160 . S
O158 Zn159 1.899 . S
O158 C166 1.284 . S
Zn159 O158 1.899 . S
Zn159 O160 2.032 . S
Zn159 O163 2.086 . S
Zn159 O168 1.977 . S
O160 Zn159 2.032 . S
O160 C164 1.278 . S
C161 O162 1.203 . S
C161 O168 1.267 . S
O162 C161 1.203 . S
O163 C156 1.185 . S
O163 Zn159 2.086 . S
C164 O160 1.278 . S
C164 O165 1.211 . S
O165 C164 1.211 . S
C166 O158 1.284 . S
C166 O167 1.273 . S
O167 C166 1.273 . S
O168 Zn159 1.977 . S
O168 C161 1.267 . S
C169 O170 1.160 . S
C169 O176 1.185 . S
O170 C169 1.160 . S
O171 Zn172 1.899 . S
O171 C179 1.284 . S
Zn172 O171 1.899 . S
Zn172 O173 2.032 . S
Zn172 O176 2.086 . S
Zn172 O181 1.977 . S
O173 Zn172 2.032 . S
O173 C177 1.278 . S
C174 O175 1.203 . S
C174 O181 1.267 . S
O175 C174 1.203 . S
O176 C169 1.185 . S
O176 Zn172 2.086 . S
C177 O173 1.278 . S
C177 O178 1.211 . S
O178 C177 1.211 . S
C179 O171 1.284 . S
C179 O180 1.273 . S
O180 C179 1.273 . S
O181 Zn172 1.977 . S
O181 C174 1.267 . S
C182 O183 1.160 . S
C182 O189 1.185 . S
O183 C182 1.160 . S
O184 Zn185 1.899 . S
O184 C192 1.284 . S
Zn185 O184 1.899 . S
Zn185 O186 2.032 . S
Zn185 O189 2.086 . S
Zn185 O194 1.977 . S
O186 Zn185 2.032 . S
O186 C190 1.278 . S
C187 O188 1.203 . S
C187 O194 1.267 . S
O188 C187 1.203 . S
O189 C182 1.185 . S
O189 Zn185 2.086 . S
C190 O186 1.278 . S
C190 O191 1.211 . S
O191 C190 1.211 . S
C192 O184 1.284 . S
C192 O193 1.273 . S
O193 C192 1.273 . S
O194 Zn185 1.977 . S
O194 C187 1.267 . S
C195 O196 1.160 . S
C195 O202 1.185 . S
O196 C195 1.160 . S
O197 Zn198 1.899 . S
O197 C205 1.284 . S
Zn198 O197 1.899 . S
Zn198 O199 2.032 . S
Zn198 O202 2.086 . S
Zn198 O207 1.977 . S
O199 Zn198 2.032 . S
O199 C203 1.278 . S
C200 O201 1.203 . S
C200 O207 1.267 . S
O201 C200 1.203 . S
O202 C195 1.185 . S
O202 Zn198 2.086 . S
C203 O199 1.278 . S
C203 O204 1.211 . S
O204 C203 1.211 . S
C205 O197 1.284 . S
C205 O206 1.273 . S
O206 C205 1.273 . S
O207 Zn198 1.977 . S
O207 C200 1.267 . S
C208 O209 1.160 . S
C208 O215 1.185 . S
O209 C208 1.160 . S
O210 Zn211 1.899 . S
O210 C218 1.284 . S
Zn211 O210 1.899 . S
Zn211 O212 2.032 . S
Zn211 O215 2.086 . S
Zn211 O220 1.977 . S
O212 Zn211 2.032 . S
O212 C216 1.278 . S
C213 O214 1.203 . S
C213 O220 1.267 . S
O214 C213 1.203 . S
O215 C208 1.185 . S
O215 Zn211 2.086 . S
C216 O212 1.278 . S
C216 O217 1.211 . S
O217 C216 1.211 . S
C218 O210 1.284 . S
C218 O219 1.273 . S
O219 C218 1.273 . S
O220 Zn211 1.977 . S
O220 C213 1.267 . S
C221 O222 1.160 . S
C221 O228 1.185 . S
O222 C221 1.160 . S
O223 Zn224 1.899 . S
O223 C231 1.284 . S
Zn224 O223 1.899 . S
Zn224 O225 2.032 . S
Zn224 O228 2.086 . S
Zn224 O233 1.977 . S
O225 Zn224 2.032 . S
O225 C229 1.278 . S
C226 O227 1.203 . S
C226 O233 1.267 . S
O227 C226 1.203 . S
O228 C221 1.185 . S
O228 Zn224 2.086 . S
C229 O225 1.278 . S
C229 O230 1.211 . S
O230 C229 1.211 . S
C231 O223 1.284 . S
C231 O232 1.273 . S
O232 C231 1.273 . S
O233 Zn224 1.977 . S
O233 C226 1.267 . S
C234 O235 1.160 . S
C234 O241 1.185 . S
O235 C234 1.160 . S
O236 Zn237 1.899 . S
O236 C244 1.284 . S
Zn237 O236 1.899 . S
Zn237 O238 2.032 . S
Zn237 O241 2.086 . S
Zn237 O246 1.977 . S
O238 Zn237 2.032 . S
O238 C242 1.278 . S
C239 O240 1.203 . S
C239 O246 1.267 . S
O240 C239 1.203 . S
O241 C234 1.185 . S
O241 Zn237 2.086 . S
C242 O238 1.278 . S
C242 O243 1.211 . S
O243 C242 1.211 . S
C244 O236 1.284 . S
C244 O245 1.273 . S
O245 C244 1.273 . S
O246 Zn237 1.977 . S
O246 C239 1.267 . S
C247 O248 1.160 . S
C247 O254 1.185 . S
O248 C247 1.160 . S
O249 Zn250 1.899 . S
O249 C257 1.284 . S
Zn250 O249 1.899 . S
Zn250 O251 2.032 . S
Zn250 O254 2.086 . S
Zn250 O259 1.977 . S
O251 Zn250 2.032 . S
O251 C255 1.278 . S
C252 O253 1.203 . S
C252 O259 1.267 . S
O253 C252 1.203 . S
O254 C247 1.185 . S
O254 Zn250 2.086 . S
C255 O251 1.278 . S
C255 O256 1.211 . S
O256 C255 1.211 . S
C257 O249 1.284 . S
C257 O258 1.273 . S
O258 C257 1.273 . S
O259 Zn250 1.977 . S
O259 C252 1.267 . S
C260 O261 1.160 . S
C260 O267 1.185 . S
O261 C260 1.160 . S
O262 Zn263 1.899 . S
O262 C270 1.284 . S
Zn263 O262 1.899 . S
Zn263 O264 2.032 . S
Zn263 O267 2.086 . S
Zn263 O272 1.977 . S
O264 Zn263 2.032 . S
O264 C268 1.278 . S
C265 O266 1.203 . S
C265 O272 1.267 . S
O266 C265 1.203 . S
O267 C260 1.185 . S
O267 Zn263 2.086 . S
C268 O264 1.278 . S
C268 O269 1.211 . S
O269 C268 1.211 . S
C270 O262 1.284 . S
C270 O271 1.273 . S
O271 C270 1.273 . S
O272 Zn263 1.977 . S
O272 C265 1.267 . S
C273 O274 1.160 . S
C273 O280 1.185 . S
O274 C273 1.160 . S
O275 Zn276 1.899 . S
O275 C283 1.284 . S
Zn276 O275 1.899 . S
Zn276 O277 2.032 . S
Zn276 O280 2.086 . S
Zn276 O285 1.977 . S
O277 Zn276 2.032 . S
O277 C281 1.278 . S
C278 O279 1.203 . S
C278 O285 1.267 . S
O279 C278 1.203 . S
O280 C273 1.185 . S
O280 Zn276 2.086 . S
C281 O277 1.278 . S
C281 O282 1.211 . S
O282 C281 1.211 . S
C283 O275 1.284 . S
C283 O284 1.273 . S
O284 C283 1.273 . S
O285 Zn276 1.977 . S
O285 C278 1.267 . S
C286 O287 1.160 . S
C286 O293 1.185 . S
O287 C286 1.160 . S
O288 Zn289 1.899 . S
O288 C296 1.284 . S
Zn289 O288 1.899 . S
Zn289 O290 2.032 . S
Zn289 O293 2.086 . S
Zn289 O298 1.977 . S
O290 Zn289 2.032 . S
O290 C294 1.278 . S
C291 O292 1.203 . S
C291 O298 1.267 . S
O292 C291 1.203 . S
O293 C286 1.185 . S
O293 Zn289 2.086 . S
C294 O290 1.278 . S
C294 O295 1.211 . S
O295 C294 1.211 . S
C296 O288 1.284 . S
C296 O297 1.273 . S
O297 C296 1.273 . S
O298 Zn289 1.977 . S
O298 C291 1.267 . S
C299 O300 1.160 . S
C299 O306 1.185 . S
O300 C299 1.160 . S
O301 Zn302 1.899 . S
O301 C309 1.284 . S
Zn302 O301 1.899 . S
Zn302 O303 2.032 . S
Zn302 O306 2.086 . S
Zn302 O311 1.977 . S
O303 Zn302 2.032 . S
O303 C307 1.278 . S
C304 O305 1.203 . S
C304 O311 1.267 . S
O305 C304 1.203 . S
O306 C299 1.185 . S
O306 Zn302 2.086 . S
C307 O303 1.278 . S
C307 O308 1.211 . S
O308 C307 1.211 . S
C309 O301 1.284 . S
C309 O310 1.273 . S
O310 C309 1.273 . S
O311 Zn302 1.977 . S
O311 C304 1.267 . S
C312 C313 1.391 . S
C312 C314 1.394 . S
C312 H328 0.931 . S
C313 C312 1.391 . S
C313 C317 1.376 . S
C314 C312 1.394 . S
C314 C315 1.369 . S
C314 C318 1.531 . S
C315 C314 1.369 . S
C315 C316 1.410 . S
C315 C323 1.503 . S
C316 C315 1.410 . S
C316 C317 1.392 . S
C316 C319 1.511 . S
C317 C313 1.376 . S
C317 C316 1.392 . S
C317 H329 0.929 . S
C318 C314 1.531 . S
C318 H330 0.960 . S
C318 H331 0.962 . S
C318 H332 0.960 . S
C319 C316 1.511 . S
C319 H333 0.961 . S
C319 H334 0.961 . S
C319 H335 0.961 . S
C320 C321 1.370 . S
C320 C322 1.363 . S
C320 H336 0.931 . S
C321 C320 1.370 . S
C321 C325 1.408 . S
C322 C320 1.363 . S
C322 C323 1.370 . S
C322 C326 1.524 . S
C323 C315 1.503 . S
C323 C322 1.370 . S
C323 C324 1.403 . S
C324 C323 1.403 . S
C324 C325 1.404 . S
C324 C327 1.539 . S
C325 C321 1.408 . S
C325 C324 1.404 . S
C325 H337 0.930 . S
C326 C322 1.524 . S
C326 H338 0.956 . S
C326 H339 0.961 . S
C326 H340 0.961 . S
C327 C324 1.539 . S
C327 H341 0.958 . S
C327 H342 0.961 . S
C327 H343 0.960 . S
H328 C312 0.931 . S
H329 C317 0.929 . S
H330 C318 0.960 . S
H331 C318 0.962 . S
H332 C318 0.960 . S
H333 C319 0.961 . S
H334 C319 0.961 . S
H335 C319 0.961 . S
H336 C320 0.931 . S
H337 C325 0.930 . S
H338 C326 0.956 . S
H339 C326 0.961 . S
H340 C326 0.961 . S
H341 C327 0.958 . S
H342 C327 0.961 . S
H343 C327 0.960 . S
C344 C345 1.391 . S
C344 C346 1.394 . S
C344 H360 0.931 . S
C345 C344 1.391 . S
C345 C349 1.376 . S
C346 C344 1.394 . S
C346 C347 1.369 . S
C346 C350 1.531 . S
C347 C346 1.369 . S
C347 C348 1.410 . S
C347 C355 1.503 . S
C348 C347 1.410 . S
C348 C349 1.392 . S
C348 C351 1.511 . S
C349 C345 1.376 . S
C349 C348 1.392 . S
C349 H361 0.929 . S
C350 C346 1.531 . S
C350 H362 0.960 . S
C350 H363 0.962 . S
C350 H364 0.960 . S
C351 C348 1.511 . S
C351 H365 0.961 . S
C351 H366 0.961 . S
C351 H367 0.961 . S
C352 C353 1.370 . S
C352 C354 1.363 . S
C352 H368 0.931 . S
C353 C352 1.370 . S
C353 C357 1.408 . S
C354 C352 1.363 . S
C354 C355 1.370 . S
C354 C358 1.524 . S
C355 C347 1.503 . S
C355 C354 1.370 . S
C355 C356 1.403 . S
C356 C355 1.403 . S
C356 C357 1.404 . S
C356 C359 1.539 . S
C357 C353 1.408 . S
C357 C356 1.404 . S
C357 H369 0.930 . S
C358 C354 1.524 . S
C358 H370 0.956 . S
C358 H371 0.961 . S
C358 H372 0.961 . S
C359 C356 1.539 . S
C359 H373 0.958 . S
C359 H374 0.961 . S
C359 H375 0.960 . S
H360 C344 0.931 . S
H361 C349 0.929 . S
H362 C350 0.960 . S
H363 C350 0.962 . S
H364 C350 0.960 . S
H365 C351 0.961 . S
H366 C351 0.961 . S
H367 C351 0.961 . S
H368 C352 0.931 . S
H369 C357 0.930 . S
H370 C358 0.956 . S
H371 C358 0.961 . S
H372 C358 0.961 . S
H373 C359 0.958 . S
H374 C359 0.961 . S
H375 C359 0.960 . S
C376 C377 1.391 . S
C376 C378 1.394 . S
C376 H392 0.931 . S
C377 C376 1.391 . S
C377 C381 1.376 . S
C378 C376 1.394 . S
C378 C379 1.369 . S
C378 C382 1.531 . S
C379 C378 1.369 . S
C379 C380 1.410 . S
C379 C387 1.503 . S
C380 C379 1.410 . S
C380 C381 1.392 . S
C380 C383 1.511 . S
C381 C377 1.376 . S
C381 C380 1.392 . S
C381 H393 0.929 . S
C382 C378 1.531 . S
C382 H394 0.960 . S
C382 H395 0.962 . S
C382 H396 0.960 . S
C383 C380 1.511 . S
C383 H397 0.961 . S
C383 H398 0.961 . S
C383 H399 0.961 . S
C384 C385 1.370 . S
C384 C386 1.363 . S
C384 H400 0.931 . S
C385 C384 1.370 . S
C385 C389 1.408 . S
C386 C384 1.363 . S
C386 C387 1.370 . S
C386 C390 1.524 . S
C387 C379 1.503 . S
C387 C386 1.370 . S
C387 C388 1.403 . S
C388 C387 1.403 . S
C388 C389 1.404 . S
C388 C391 1.539 . S
C389 C385 1.408 . S
C389 C388 1.404 . S
C389 H401 0.930 . S
C390 C386 1.524 . S
C390 H402 0.956 . S
C390 H403 0.961 . S
C390 H404 0.961 . S
C391 C388 1.539 . S
C391 H405 0.958 . S
C391 H406 0.961 . S
C391 H407 0.960 . S
H392 C376 0.931 . S
H393 C381 0.929 . S
H394 C382 0.960 . S
H395 C382 0.962 . S
H396 C382 0.960 . S
H397 C383 0.961 . S
H398 C383 0.961 . S
H399 C383 0.961 . S
H400 C384 0.931 . S
H401 C389 0.930 . S
H402 C390 0.956 . S
H403 C390 0.961 . S
H404 C390 0.961 . S
H405 C391 0.958 . S
H406 C391 0.961 . S
H407 C391 0.960 . S
C408 C409 1.391 . S
C408 C410 1.394 . S
C408 H424 0.931 . S
C409 C408 1.391 . S
C409 C413 1.376 . S
C410 C408 1.394 . S
C410 C411 1.369 . S
C410 C414 1.531 . S
C411 C410 1.369 . S
C411 C412 1.410 . S
C411 C419 1.503 . S
C412 C411 1.410 . S
C412 C413 1.392 . S
C412 C415 1.511 . S
C413 C409 1.376 . S
C413 C412 1.392 . S
C413 H425 0.929 . S
C414 C410 1.531 . S
C414 H426 0.960 . S
C414 H427 0.962 . S
C414 H428 0.960 . S
C415 C412 1.511 . S
C415 H429 0.961 . S
C415 H430 0.961 . S
C415 H431 0.961 . S
C416 C417 1.370 . S
C416 C418 1.363 . S
C416 H432 0.931 . S
C417 C416 1.370 . S
C417 C421 1.408 . S
C418 C416 1.363 . S
C418 C419 1.370 . S
C418 C422 1.524 . S
C419 C411 1.503 . S
C419 C418 1.370 . S
C419 C420 1.403 . S
C420 C419 1.403 . S
C420 C421 1.404 . S
C420 C423 1.539 . S
C421 C417 1.408 . S
C421 C420 1.404 . S
C421 H433 0.930 . S
C422 C418 1.524 . S
C422 H434 0.956 . S
C422 H435 0.961 . S
C422 H436 0.961 . S
C423 C420 1.539 . S
C423 H437 0.958 . S
C423 H438 0.961 . S
C423 H439 0.960 . S
H424 C408 0.931 . S
H425 C413 0.929 . S
H426 C414 0.960 . S
H427 C414 0.962 . S
H428 C414 0.960 . S
H429 C415 0.961 . S
H430 C415 0.961 . S
H431 C415 0.961 . S
H432 C416 0.931 . S
H433 C421 0.930 . S
H434 C422 0.956 . S
H435 C422 0.961 . S
H436 C422 0.961 . S
H437 C423 0.958 . S
H438 C423 0.961 . S
H439 C423 0.960 . S
C440 C441 1.391 . S
C440 C442 1.394 . S
C440 H456 0.931 . S
C441 C440 1.391 . S
C441 C445 1.376 . S
C442 C440 1.394 . S
C442 C443 1.369 . S
C442 C446 1.531 . S
C443 C442 1.369 . S
C443 C444 1.410 . S
C443 C451 1.503 . S
C444 C443 1.410 . S
C444 C445 1.392 . S
C444 C447 1.511 . S
C445 C441 1.376 . S
C445 C444 1.392 . S
C445 H457 0.929 . S
C446 C442 1.531 . S
C446 H458 0.960 . S
C446 H459 0.962 . S
C446 H460 0.960 . S
C447 C444 1.511 . S
C447 H461 0.961 . S
C447 H462 0.961 . S
C447 H463 0.961 . S
C448 C449 1.370 . S
C448 C450 1.363 . S
C448 H464 0.931 . S
C449 C448 1.370 . S
C449 C453 1.408 . S
C450 C448 1.363 . S
C450 C451 1.370 . S
C450 C454 1.524 . S
C451 C443 1.503 . S
C451 C450 1.370 . S
C451 C452 1.403 . S
C452 C451 1.403 . S
C452 C453 1.404 . S
C452 C455 1.539 . S
C453 C449 1.408 . S
C453 C452 1.404 . S
C453 H465 0.930 . S
C454 C450 1.524 . S
C454 H466 0.956 . S
C454 H467 0.961 . S
C454 H468 0.961 . S
C455 C452 1.539 . S
C455 H469 0.958 . S
C455 H470 0.961 . S
C455 H471 0.960 . S
H456 C440 0.931 . S
H457 C445 0.929 . S
H458 C446 0.960 . S
H459 C446 0.962 . S
H460 C446 0.960 . S
H461 C447 0.961 . S
H462 C447 0.961 . S
H463 C447 0.961 . S
H464 C448 0.931 . S
H465 C453 0.930 . S
H466 C454 0.956 . S
H467 C454 0.961 . S
H468 C454 0.961 . S
H469 C455 0.958 . S
H470 C455 0.961 . S
H471 C455 0.960 . S
C472 C473 1.391 . S
C472 C474 1.394 . S
C472 H488 0.931 . S
C473 C472 1.391 . S
C473 C477 1.376 . S
C474 C472 1.394 . S
C474 C475 1.369 . S
C474 C478 1.531 . S
C475 C474 1.369 . S
C475 C476 1.410 . S
C475 C483 1.503 . S
C476 C475 1.410 . S
C476 C477 1.392 . S
C476 C479 1.511 . S
C477 C473 1.376 . S
C477 C476 1.392 . S
C477 H489 0.929 . S
C478 C474 1.531 . S
C478 H490 0.960 . S
C478 H491 0.962 . S
C478 H492 0.960 . S
C479 C476 1.511 . S
C479 H493 0.961 . S
C479 H494 0.961 . S
C479 H495 0.961 . S
C480 C481 1.370 . S
C480 C482 1.363 . S
C480 H496 0.931 . S
C481 C480 1.370 . S
C481 C485 1.408 . S
C482 C480 1.363 . S
C482 C483 1.370 . S
C482 C486 1.524 . S
C483 C475 1.503 . S
C483 C482 1.370 . S
C483 C484 1.403 . S
C484 C483 1.403 . S
C484 C485 1.404 . S
C484 C487 1.539 . S
C485 C481 1.408 . S
C485 C484 1.404 . S
C485 H497 0.930 . S
C486 C482 1.524 . S
C486 H498 0.956 . S
C486 H499 0.961 . S
C486 H500 0.961 . S
C487 C484 1.539 . S
C487 H501 0.958 . S
C487 H502 0.961 . S
C487 H503 0.960 . S
H488 C472 0.931 . S
H489 C477 0.929 . S
H490 C478 0.960 . S
H491 C478 0.962 . S
H492 C478 0.960 . S
H493 C479 0.961 . S
H494 C479 0.961 . S
H495 C479 0.961 . S
H496 C480 0.931 . S
H497 C485 0.930 . S
H498 C486 0.956 . S
H499 C486 0.961 . S
H500 C486 0.961 . S
H501 C487 0.958 . S
H502 C487 0.961 . S
H503 C487 0.960 . S
C504 C505 1.391 . S
C504 C506 1.394 . S
C504 H520 0.931 . S
C505 C504 1.391 . S
C505 C509 1.376 . S
C506 C504 1.394 . S
C506 C507 1.369 . S
C506 C510 1.531 . S
C507 C506 1.369 . S
C507 C508 1.410 . S
C507 C515 1.503 . S
C508 C507 1.410 . S
C508 C509 1.392 . S
C508 C511 1.511 . S
C509 C505 1.376 . S
C509 C508 1.392 . S
C509 H521 0.929 . S
C510 C506 1.531 . S
C510 H522 0.960 . S
C510 H523 0.962 . S
C510 H524 0.960 . S
C511 C508 1.511 . S
C511 H525 0.961 . S
C511 H526 0.961 . S
C511 H527 0.961 . S
C512 C513 1.370 . S
C512 C514 1.363 . S
C512 H528 0.931 . S
C513 C512 1.370 . S
C513 C517 1.408 . S
C514 C512 1.363 . S
C514 C515 1.370 . S
C514 C518 1.524 . S
C515 C507 1.503 . S
C515 C514 1.370 . S
C515 C516 1.403 . S
C516 C515 1.403 . S
C516 C517 1.404 . S
C516 C519 1.539 . S
C517 C513 1.408 . S
C517 C516 1.404 . S
C517 H529 0.930 . S
C518 C514 1.524 . S
C518 H530 0.956 . S
C518 H531 0.961 . S
C518 H532 0.961 . S
C519 C516 1.539 . S
C519 H533 0.958 . S
C519 H534 0.961 . S
C519 H535 0.960 . S
H520 C504 0.931 . S
H521 C509 0.929 . S
H522 C510 0.960 . S
H523 C510 0.962 . S
H524 C510 0.960 . S
H525 C511 0.961 . S
H526 C511 0.961 . S
H527 C511 0.961 . S
H528 C512 0.931 . S
H529 C517 0.930 . S
H530 C518 0.956 . S
H531 C518 0.961 . S
H532 C518 0.961 . S
H533 C519 0.958 . S
H534 C519 0.961 . S
H535 C519 0.960 . S
C536 C537 1.391 . S
C536 C538 1.394 . S
C536 H552 0.931 . S
C537 C536 1.391 . S
C537 C541 1.376 . S
C538 C536 1.394 . S
C538 C539 1.369 . S
C538 C542 1.531 . S
C539 C538 1.369 . S
C539 C540 1.410 . S
C539 C547 1.503 . S
C540 C539 1.410 . S
C540 C541 1.392 . S
C540 C543 1.511 . S
C541 C537 1.376 . S
C541 C540 1.392 . S
C541 H553 0.929 . S
C542 C538 1.531 . S
C542 H554 0.960 . S
C542 H555 0.962 . S
C542 H556 0.960 . S
C543 C540 1.511 . S
C543 H557 0.961 . S
C543 H558 0.961 . S
C543 H559 0.961 . S
C544 C545 1.370 . S
C544 C546 1.363 . S
C544 H560 0.931 . S
C545 C544 1.370 . S
C545 C549 1.408 . S
C546 C544 1.363 . S
C546 C547 1.370 . S
C546 C550 1.524 . S
C547 C539 1.503 . S
C547 C546 1.370 . S
C547 C548 1.403 . S
C548 C547 1.403 . S
C548 C549 1.404 . S
C548 C551 1.539 . S
C549 C545 1.408 . S
C549 C548 1.404 . S
C549 H561 0.930 . S
C550 C546 1.524 . S
C550 H562 0.956 . S
C550 H563 0.961 . S
C550 H564 0.961 . S
C551 C548 1.539 . S
C551 H565 0.958 . S
C551 H566 0.961 . S
C551 H567 0.960 . S
H552 C536 0.931 . S
H553 C541 0.929 . S
H554 C542 0.960 . S
H555 C542 0.962 . S
H556 C542 0.960 . S
H557 C543 0.961 . S
H558 C543 0.961 . S
H559 C543 0.961 . S
H560 C544 0.931 . S
H561 C549 0.930 . S
H562 C550 0.956 . S
H563 C550 0.961 . S
H564 C550 0.961 . S
H565 C551 0.958 . S
H566 C551 0.961 . S
H567 C551 0.960 . S
C568 C569 1.391 . S
C568 C570 1.394 . S
C568 H584 0.931 . S
C569 C568 1.391 . S
C569 C573 1.376 . S
C570 C568 1.394 . S
C570 C571 1.369 . S
C570 C574 1.531 . S
C571 C570 1.369 . S
C571 C572 1.410 . S
C571 C579 1.503 . S
C572 C571 1.410 . S
C572 C573 1.392 . S
C572 C575 1.511 . S
C573 C569 1.376 . S
C573 C572 1.392 . S
C573 H585 0.929 . S
C574 C570 1.531 . S
C574 H586 0.960 . S
C574 H587 0.962 . S
C574 H588 0.960 . S
C575 C572 1.511 . S
C575 H589 0.961 . S
C575 H590 0.961 . S
C575 H591 0.961 . S
C576 C577 1.370 . S
C576 C578 1.363 . S
C576 H592 0.931 . S
C577 C576 1.370 . S
C577 C581 1.408 . S
C578 C576 1.363 . S
C578 C579 1.370 . S
C578 C582 1.524 . S
C579 C571 1.503 . S
C579 C578 1.370 . S
C579 C580 1.403 . S
C580 C579 1.403 . S
C580 C581 1.404 . S
C580 C583 1.539 . S
C581 C577 1.408 . S
C581 C580 1.404 . S
C581 H593 0.930 . S
C582 C578 1.524 . S
C582 H594 0.956 . S
C582 H595 0.961 . S
C582 H596 0.961 . S
C583 C580 1.539 . S
C583 H597 0.958 . S
C583 H598 0.961 . S
C583 H599 0.960 . S
H584 C568 0.931 . S
H585 C573 0.929 . S
H586 C574 0.960 . S
H587 C574 0.962 . S
H588 C574 0.960 . S
H589 C575 0.961 . S
H590 C575 0.961 . S
H591 C575 0.961 . S
H592 C576 0.931 . S
H593 C581 0.930 . S
H594 C582 0.956 . S
H595 C582 0.961 . S
H596 C582 0.961 . S
H597 C583 0.958 . S
H598 C583 0.961 . S
H599 C583 0.960 . S
C600 C601 1.391 . S
C600 C602 1.394 . S
C600 H616 0.931 . S
C601 C600 1.391 . S
C601 C605 1.376 . S
C602 C600 1.394 . S
C602 C603 1.369 . S
C602 C606 1.531 . S
C603 C602 1.369 . S
C603 C604 1.410 . S
C603 C611 1.503 . S
C604 C603 1.410 . S
C604 C605 1.392 . S
C604 C607 1.511 . S
C605 C601 1.376 . S
C605 C604 1.392 . S
C605 H617 0.929 . S
C606 C602 1.531 . S
C606 H618 0.960 . S
C606 H619 0.962 . S
C606 H620 0.960 . S
C607 C604 1.511 . S
C607 H621 0.961 . S
C607 H622 0.961 . S
C607 H623 0.961 . S
C608 C609 1.370 . S
C608 C610 1.363 . S
C608 H624 0.931 . S
C609 C608 1.370 . S
C609 C613 1.408 . S
C610 C608 1.363 . S
C610 C611 1.370 . S
C610 C614 1.524 . S
C611 C603 1.503 . S
C611 C610 1.370 . S
C611 C612 1.403 . S
C612 C611 1.403 . S
C612 C613 1.404 . S
C612 C615 1.539 . S
C613 C609 1.408 . S
C613 C612 1.404 . S
C613 H625 0.930 . S
C614 C610 1.524 . S
C614 H626 0.956 . S
C614 H627 0.961 . S
C614 H628 0.961 . S
C615 C612 1.539 . S
C615 H629 0.958 . S
C615 H630 0.961 . S
C615 H631 0.960 . S
H616 C600 0.931 . S
H617 C605 0.929 . S
H618 C606 0.960 . S
H619 C606 0.962 . S
H620 C606 0.960 . S
H621 C607 0.961 . S
H622 C607 0.961 . S
H623 C607 0.961 . S
H624 C608 0.931 . S
H625 C613 0.930 . S
H626 C614 0.956 . S
H627 C614 0.961 . S
H628 C614 0.961 . S
H629 C615 0.958 . S
H630 C615 0.961 . S
H631 C615 0.960 . S
C632 C633 1.391 . S
C632 C634 1.394 . S
C632 H648 0.931 . S
C633 C632 1.391 . S
C633 C637 1.376 . S
C634 C632 1.394 . S
C634 C635 1.369 . S
C634 C638 1.531 . S
C635 C634 1.369 . S
C635 C636 1.410 . S
C635 C643 1.503 . S
C636 C635 1.410 . S
C636 C637 1.392 . S
C636 C639 1.511 . S
C637 C633 1.376 . S
C637 C636 1.392 . S
C637 H649 0.929 . S
C638 C634 1.531 . S
C638 H650 0.960 . S
C638 H651 0.962 . S
C638 H652 0.960 . S
C639 C636 1.511 . S
C639 H653 0.961 . S
C639 H654 0.961 . S
C639 H655 0.961 . S
C640 C641 1.370 . S
C640 C642 1.363 . S
C640 H656 0.931 . S
C641 C640 1.370 . S
C641 C645 1.408 . S
C642 C640 1.363 . S
C642 C643 1.370 . S
C642 C646 1.524 . S
C643 C635 1.503 . S
C643 C642 1.370 . S
C643 C644 1.403 . S
C644 C643 1.403 . S
C644 C645 1.404 . S
C644 C647 1.539 . S
C645 C641 1.408 . S
C645 C644 1.404 . S
C645 H657 0.930 . S
C646 C642 1.524 . S
C646 H658 0.956 . S
C646 H659 0.961 . S
C646 H660 0.961 . S
C647 C644 1.539 . S
C647 H661 0.958 . S
C647 H662 0.961 . S
C647 H663 0.960 . S
H648 C632 0.931 . S
H649 C637 0.929 . S
H650 C638 0.960 . S
H651 C638 0.962 . S
H652 C638 0.960 . S
H653 C639 0.961 . S
H654 C639 0.961 . S
H655 C639 0.961 . S
H656 C640 0.931 . S
H657 C645 0.930 . S
H658 C646 0.956 . S
H659 C646 0.961 . S
H660 C646 0.961 . S
H661 C647 0.958 . S
H662 C647 0.961 . S
H663 C647 0.960 . S
C664 C665 1.391 . S
C664 C666 1.394 . S
C664 H680 0.931 . S
C665 C664 1.391 . S
C665 C669 1.376 . S
C666 C664 1.394 . S
C666 C667 1.369 . S
C666 C670 1.531 . S
C667 C666 1.369 . S
C667 C668 1.410 . S
C667 C675 1.503 . S
C668 C667 1.410 . S
C668 C669 1.392 . S
C668 C671 1.511 . S
C669 C665 1.376 . S
C669 C668 1.392 . S
C669 H681 0.929 . S
C670 C666 1.531 . S
C670 H682 0.960 . S
C670 H683 0.962 . S
C670 H684 0.960 . S
C671 C668 1.511 . S
C671 H685 0.961 . S
C671 H686 0.961 . S
C671 H687 0.961 . S
C672 C673 1.370 . S
C672 C674 1.363 . S
C672 H688 0.931 . S
C673 C672 1.370 . S
C673 C677 1.408 . S
C674 C672 1.363 . S
C674 C675 1.370 . S
C674 C678 1.524 . S
C675 C667 1.503 . S
C675 C674 1.370 . S
C675 C676 1.403 . S
C676 C675 1.403 . S
C676 C677 1.404 . S
C676 C679 1.539 . S
C677 C673 1.408 . S
C677 C676 1.404 . S
C677 H689 0.930 . S
C678 C674 1.524 . S
C678 H690 0.956 . S
C678 H691 0.961 . S
C678 H692 0.961 . S
C679 C676 1.539 . S
C679 H693 0.958 . S
C679 H694 0.961 . S
C679 H695 0.960 . S
H680 C664 0.931 . S
H681 C669 0.929 . S
H682 C670 0.960 . S
H683 C670 0.962 . S
H684 C670 0.960 . S
H685 C671 0.961 . S
H686 C671 0.961 . S
H687 C671 0.961 . S
H688 C672 0.931 . S
H689 C677 0.930 . S
H690 C678 0.956 . S
H691 C678 0.961 . S
H692 C678 0.961 . S
H693 C679 0.958 . S
H694 C679 0.961 . S
H695 C679 0.960 . S
C696 C697 1.391 . S
C696 C698 1.394 . S
C696 H712 0.931 . S
C697 C696 1.391 . S
C697 C701 1.376 . S
C698 C696 1.394 . S
C698 C699 1.369 . S
C698 C702 1.531 . S
C699 C698 1.369 . S
C699 C700 1.410 . S
C699 C707 1.503 . S
C700 C699 1.410 . S
C700 C701 1.392 . S
C700 C703 1.511 . S
C701 C697 1.376 . S
C701 C700 1.392 . S
C701 H713 0.929 . S
C702 C698 1.531 . S
C702 H714 0.960 . S
C702 H715 0.962 . S
C702 H716 0.960 . S
C703 C700 1.511 . S
C703 H717 0.961 . S
C703 H718 0.961 . S
C703 H719 0.961 . S
C704 C705 1.370 . S
C704 C706 1.363 . S
C704 H720 0.931 . S
C705 C704 1.370 . S
C705 C709 1.408 . S
C706 C704 1.363 . S
C706 C707 1.370 . S
C706 C710 1.524 . S
C707 C699 1.503 . S
C707 C706 1.370 . S
C707 C708 1.403 . S
C708 C707 1.403 . S
C708 C709 1.404 . S
C708 C711 1.539 . S
C709 C705 1.408 . S
C709 C708 1.404 . S
C709 H721 0.930 . S
C710 C706 1.524 . S
C710 H722 0.956 . S
C710 H723 0.961 . S
C710 H724 0.961 . S
C711 C708 1.539 . S
C711 H725 0.958 . S
C711 H726 0.961 . S
C711 H727 0.960 . S
H712 C696 0.931 . S
H713 C701 0.929 . S
H714 C702 0.960 . S
H715 C702 0.962 . S
H716 C702 0.960 . S
H717 C703 0.961 . S
H718 C703 0.961 . S
H719 C703 0.961 . S
H720 C704 0.931 . S
H721 C709 0.930 . S
H722 C710 0.956 . S
H723 C710 0.961 . S
H724 C710 0.961 . S
H725 C711 0.958 . S
H726 C711 0.961 . S
H727 C711 0.960 . S
C728 C729 1.391 . S
C728 C730 1.394 . S
C728 H744 0.931 . S
C729 C728 1.391 . S
C729 C733 1.376 . S
C730 C728 1.394 . S
C730 C731 1.369 . S
C730 C734 1.531 . S
C731 C730 1.369 . S
C731 C732 1.410 . S
C731 C739 1.503 . S
C732 C731 1.410 . S
C732 C733 1.392 . S
C732 C735 1.511 . S
C733 C729 1.376 . S
C733 C732 1.392 . S
C733 H745 0.929 . S
C734 C730 1.531 . S
C734 H746 0.960 . S
C734 H747 0.962 . S
C734 H748 0.960 . S
C735 C732 1.511 . S
C735 H749 0.961 . S
C735 H750 0.961 . S
C735 H751 0.961 . S
C736 C737 1.370 . S
C736 C738 1.363 . S
C736 H752 0.931 . S
C737 C736 1.370 . S
C737 C741 1.408 . S
C738 C736 1.363 . S
C738 C739 1.370 . S
C738 C742 1.524 . S
C739 C731 1.503 . S
C739 C738 1.370 . S
C739 C740 1.403 . S
C740 C739 1.403 . S
C740 C741 1.404 . S
C740 C743 1.539 . S
C741 C737 1.408 . S
C741 C740 1.404 . S
C741 H753 0.930 . S
C742 C738 1.524 . S
C742 H754 0.956 . S
C742 H755 0.961 . S
C742 H756 0.961 . S
C743 C740 1.539 . S
C743 H757 0.958 . S
C743 H758 0.961 . S
C743 H759 0.960 . S
H744 C728 0.931 . S
H745 C733 0.929 . S
H746 C734 0.960 . S
H747 C734 0.962 . S
H748 C734 0.960 . S
H749 C735 0.961 . S
H750 C735 0.961 . S
H751 C735 0.961 . S
H752 C736 0.931 . S
H753 C741 0.930 . S
H754 C742 0.956 . S
H755 C742 0.961 . S
H756 C742 0.961 . S
H757 C743 0.958 . S
H758 C743 0.961 . S
H759 C743 0.960 . S
C760 C761 1.391 . S
C760 C762 1.394 . S
C760 H776 0.931 . S
C761 C760 1.391 . S
C761 C765 1.376 . S
C762 C760 1.394 . S
C762 C763 1.369 . S
C762 C766 1.531 . S
C763 C762 1.369 . S
C763 C764 1.410 . S
C763 C771 1.503 . S
C764 C763 1.410 . S
C764 C765 1.392 . S
C764 C767 1.511 . S
C765 C761 1.376 . S
C765 C764 1.392 . S
C765 H777 0.929 . S
C766 C762 1.531 . S
C766 H778 0.960 . S
C766 H779 0.962 . S
C766 H780 0.960 . S
C767 C764 1.511 . S
C767 H781 0.961 . S
C767 H782 0.961 . S
C767 H783 0.961 . S
C768 C769 1.370 . S
C768 C770 1.363 . S
C768 H784 0.931 . S
C769 C768 1.370 . S
C769 C773 1.408 . S
C770 C768 1.363 . S
C770 C771 1.370 . S
C770 C774 1.524 . S
C771 C763 1.503 . S
C771 C770 1.370 . S
C771 C772 1.403 . S
C772 C771 1.403 . S
C772 C773 1.404 . S
C772 C775 1.539 . S
C773 C769 1.408 . S
C773 C772 1.404 . S
C773 H785 0.930 . S
C774 C770 1.524 . S
C774 H786 0.956 . S
C774 H787 0.961 . S
C774 H788 0.961 . S
C775 C772 1.539 . S
C775 H789 0.958 . S
C775 H790 0.961 . S
C775 H791 0.960 . S
H776 C760 0.931 . S
H777 C765 0.929 . S
H778 C766 0.960 . S
H779 C766 0.962 . S
H780 C766 0.960 . S
H781 C767 0.961 . S
H782 C767 0.961 . S
H783 C767 0.961 . S
H784 C768 0.931 . S
H785 C773 0.930 . S
H786 C774 0.956 . S
H787 C774 0.961 . S
H788 C774 0.961 . S
H789 C775 0.958 . S
H790 C775 0.961 . S
H791 C775 0.960 . S
C792 C793 1.391 . S
C792 C794 1.394 . S
C792 H808 0.931 . S
C793 C792 1.391 . S
C793 C797 1.376 . S
C794 C792 1.394 . S
C794 C795 1.369 . S
C794 C798 1.531 . S
C795 C794 1.369 . S
C795 C796 1.410 . S
C795 C803 1.503 . S
C796 C795 1.410 . S
C796 C797 1.392 . S
C796 C799 1.511 . S
C797 C793 1.376 . S
C797 C796 1.392 . S
C797 H809 0.929 . S
C798 C794 1.531 . S
C798 H810 0.960 . S
C798 H811 0.962 . S
C798 H812 0.960 . S
C799 C796 1.511 . S
C799 H813 0.961 . S
C799 H814 0.961 . S
C799 H815 0.961 . S
C800 C801 1.370 . S
C800 C802 1.363 . S
C800 H816 0.931 . S
C801 C800 1.370 . S
C801 C805 1.408 . S
C802 C800 1.363 . S
C802 C803 1.370 . S
C802 C806 1.524 . S
C803 C795 1.503 . S
C803 C802 1.370 . S
C803 C804 1.403 . S
C804 C803 1.403 . S
C804 C805 1.404 . S
C804 C807 1.539 . S
C805 C801 1.408 . S
C805 C804 1.404 . S
C805 H817 0.930 . S
C806 C802 1.524 . S
C806 H818 0.956 . S
C806 H819 0.961 . S
C806 H820 0.961 . S
C807 C804 1.539 . S
C807 H821 0.958 . S
C807 H822 0.961 . S
C807 H823 0.960 . S
H808 C792 0.931 . S
H809 C797 0.929 . S
H810 C798 0.960 . S
H811 C798 0.962 . S
H812 C798 0.960 . S
H813 C799 0.961 . S
H814 C799 0.961 . S
H815 C799 0.961 . S
H816 C800 0.931 . S
H817 C805 0.930 . S
H818 C806 0.956 . S
H819 C806 0.961 . S
H820 C806 0.961 . S
H821 C807 0.958 . S
H822 C807 0.961 . S
H823 C807 0.960 . S
C824 C825 1.391 . S
C824 C826 1.394 . S
C824 H840 0.931 . S
C825 C824 1.391 . S
C825 C829 1.376 . S
C826 C824 1.394 . S
C826 C827 1.369 . S
C826 C830 1.531 . S
C827 C826 1.369 . S
C827 C828 1.410 . S
C827 C835 1.503 . S
C828 C827 1.410 . S
C828 C829 1.392 . S
C828 C831 1.511 . S
C829 C825 1.376 . S
C829 C828 1.392 . S
C829 H841 0.929 . S
C830 C826 1.531 . S
C830 H842 0.960 . S
C830 H843 0.962 . S
C830 H844 0.960 . S
C831 C828 1.511 . S
C831 H845 0.961 . S
C831 H846 0.961 . S
C831 H847 0.961 . S
C832 C833 1.370 . S
C832 C834 1.363 . S
C832 H848 0.931 . S
C833 C832 1.370 . S
C833 C837 1.408 . S
C834 C832 1.363 . S
C834 C835 1.370 . S
C834 C838 1.524 . S
C835 C827 1.503 . S
C835 C834 1.370 . S
C835 C836 1.403 . S
C836 C835 1.403 . S
C836 C837 1.404 . S
C836 C839 1.539 . S
C837 C833 1.408 . S
C837 C836 1.404 . S
C837 H849 0.930 . S
C838 C834 1.524 . S
C838 H850 0.956 . S
C838 H851 0.961 . S
C838 H852 0.961 . S
C839 C836 1.539 . S
C839 H853 0.958 . S
C839 H854 0.961 . S
C839 H855 0.960 . S
H840 C824 0.931 . S
H841 C829 0.929 . S
H842 C830 0.960 . S
H843 C830 0.962 . S
H844 C830 0.960 . S
H845 C831 0.961 . S
H846 C831 0.961 . S
H847 C831 0.961 . S
H848 C832 0.931 . S
H849 C837 0.930 . S
H850 C838 0.956 . S
H851 C838 0.961 . S
H852 C838 0.961 . S
H853 C839 0.958 . S
H854 C839 0.961 . S
H855 C839 0.960 . S
C856 C857 1.391 . S
C856 C858 1.394 . S
C856 H872 0.931 . S
C857 C856 1.391 . S
C857 C861 1.376 . S
C858 C856 1.394 . S
C858 C859 1.369 . S
C858 C862 1.531 . S
C859 C858 1.369 . S
C859 C860 1.410 . S
C859 C867 1.503 . S
C860 C859 1.410 . S
C860 C861 1.392 . S
C860 C863 1.511 . S
C861 C857 1.376 . S
C861 C860 1.392 . S
C861 H873 0.929 . S
C862 C858 1.531 . S
C862 H874 0.960 . S
C862 H875 0.962 . S
C862 H876 0.960 . S
C863 C860 1.511 . S
C863 H877 0.961 . S
C863 H878 0.961 . S
C863 H879 0.961 . S
C864 C865 1.370 . S
C864 C866 1.363 . S
C864 H880 0.931 . S
C865 C864 1.370 . S
C865 C869 1.408 . S
C866 C864 1.363 . S
C866 C867 1.370 . S
C866 C870 1.524 . S
C867 C859 1.503 . S
C867 C866 1.370 . S
C867 C868 1.403 . S
C868 C867 1.403 . S
C868 C869 1.404 . S
C868 C871 1.539 . S
C869 C865 1.408 . S
C869 C868 1.404 . S
C869 H881 0.930 . S
C870 C866 1.524 . S
C870 H882 0.956 . S
C870 H883 0.961 . S
C870 H884 0.961 . S
C871 C868 1.539 . S
C871 H885 0.958 . S
C871 H886 0.961 . S
C871 H887 0.960 . S
H872 C856 0.931 . S
H873 C861 0.929 . S
H874 C862 0.960 . S
H875 C862 0.962 . S
H876 C862 0.960 . S
H877 C863 0.961 . S
H878 C863 0.961 . S
H879 C863 0.961 . S
H880 C864 0.931 . S
H881 C869 0.930 . S
H882 C870 0.956 . S
H883 C870 0.961 . S
H884 C870 0.961 . S
H885 C871 0.958 . S
H886 C871 0.961 . S
H887 C871 0.960 . S
C888 C889 1.391 . S
C888 C890 1.394 . S
C888 H904 0.931 . S
C889 C888 1.391 . S
C889 C893 1.376 . S
C890 C888 1.394 . S
C890 C891 1.369 . S
C890 C894 1.531 . S
C891 C890 1.369 . S
C891 C892 1.410 . S
C891 C899 1.503 . S
C892 C891 1.410 . S
C892 C893 1.392 . S
C892 C895 1.511 . S
C893 C889 1.376 . S
C893 C892 1.392 . S
C893 H905 0.929 . S
C894 C890 1.531 . S
C894 H906 0.960 . S
C894 H907 0.962 . S
C894 H908 0.960 . S
C895 C892 1.511 . S
C895 H909 0.961 . S
C895 H910 0.961 . S
C895 H911 0.961 . S
C896 C897 1.370 . S
C896 C898 1.363 . S
C896 H912 0.931 . S
C897 C896 1.370 . S
C897 C901 1.408 . S
C898 C896 1.363 . S
C898 C899 1.370 . S
C898 C902 1.524 . S
C899 C891 1.503 . S
C899 C898 1.370 . S
C899 C900 1.403 . S
C900 C899 1.403 . S
C900 C901 1.404 . S
C900 C903 1.539 . S
C901 C897 1.408 . S
C901 C900 1.404 . S
C901 H913 0.930 . S
C902 C898 1.524 . S
C902 H914 0.956 . S
C902 H915 0.961 . S
C902 H916 0.961 . S
C903 C900 1.539 . S
C903 H917 0.958 . S
C903 H918 0.961 . S
C903 H919 0.960 . S
H904 C888 0.931 . S
H905 C893 0.929 . S
H906 C894 0.960 . S
H907 C894 0.962 . S
H908 C894 0.960 . S
H909 C895 0.961 . S
H910 C895 0.961 . S
H911 C895 0.961 . S
H912 C896 0.931 . S
H913 C901 0.930 . S
H914 C902 0.956 . S
H915 C902 0.961 . S
H916 C902 0.961 . S
H917 C903 0.958 . S
H918 C903 0.961 . S
H919 C903 0.960 . S
C920 C921 1.391 . S
C920 C922 1.394 . S
C920 H936 0.931 . S
C921 C920 1.391 . S
C921 C925 1.376 . S
C922 C920 1.394 . S
C922 C923 1.369 . S
C922 C926 1.531 . S
C923 C922 1.369 . S
C923 C924 1.410 . S
C923 C931 1.503 . S
C924 C923 1.410 . S
C924 C925 1.392 . S
C924 C927 1.511 . S
C925 C921 1.376 . S
C925 C924 1.392 . S
C925 H937 0.929 . S
C926 C922 1.531 . S
C926 H938 0.960 . S
C926 H939 0.962 . S
C926 H940 0.960 . S
C927 C924 1.511 . S
C927 H941 0.961 . S
C927 H942 0.961 . S
C927 H943 0.961 . S
C928 C929 1.370 . S
C928 C930 1.363 . S
C928 H944 0.931 . S
C929 C928 1.370 . S
C929 C933 1.408 . S
C930 C928 1.363 . S
C930 C931 1.370 . S
C930 C934 1.524 . S
C931 C923 1.503 . S
C931 C930 1.370 . S
C931 C932 1.403 . S
C932 C931 1.403 . S
C932 C933 1.404 . S
C932 C935 1.539 . S
C933 C929 1.408 . S
C933 C932 1.404 . S
C933 H945 0.930 . S
C934 C930 1.524 . S
C934 H946 0.956 . S
C934 H947 0.961 . S
C934 H948 0.961 . S
C935 C932 1.539 . S
C935 H949 0.958 . S
C935 H950 0.961 . S
C935 H951 0.960 . S
H936 C920 0.931 . S
H937 C925 0.929 . S
H938 C926 0.960 . S
H939 C926 0.962 . S
H940 C926 0.960 . S
H941 C927 0.961 . S
H942 C927 0.961 . S
H943 C927 0.961 . S
H944 C928 0.931 . S
H945 C933 0.930 . S
H946 C934 0.956 . S
H947 C934 0.961 . S
H948 C934 0.961 . S
H949 C935 0.958 . S
H950 C935 0.961 . S
H951 C935 0.960 . S
C952 C953 1.391 . S
C952 C954 1.394 . S
C952 H968 0.931 . S
C953 C952 1.391 . S
C953 C957 1.376 . S
C954 C952 1.394 . S
C954 C955 1.369 . S
C954 C958 1.531 . S
C955 C954 1.369 . S
C955 C956 1.410 . S
C955 C963 1.503 . S
C956 C955 1.410 . S
C956 C957 1.392 . S
C956 C959 1.511 . S
C957 C953 1.376 . S
C957 C956 1.392 . S
C957 H969 0.929 . S
C958 C954 1.531 . S
C958 H970 0.960 . S
C958 H971 0.962 . S
C958 H972 0.960 . S
C959 C956 1.511 . S
C959 H973 0.961 . S
C959 H974 0.961 . S
C959 H975 0.961 . S
C960 C961 1.370 . S
C960 C962 1.363 . S
C960 H976 0.931 . S
C961 C960 1.370 . S
C961 C965 1.408 . S
C962 C960 1.363 . S
C962 C963 1.370 . S
C962 C966 1.524 . S
C963 C955 1.503 . S
C963 C962 1.370 . S
C963 C964 1.403 . S
C964 C963 1.403 . S
C964 C965 1.404 . S
C964 C967 1.539 . S
C965 C961 1.408 . S
C965 C964 1.404 . S
C965 H977 0.930 . S
C966 C962 1.524 . S
C966 H978 0.956 . S
C966 H979 0.961 . S
C966 H980 0.961 . S
C967 C964 1.539 . S
C967 H981 0.958 . S
C967 H982 0.961 . S
C967 H983 0.960 . S
H968 C952 0.931 . S
H969 C957 0.929 . S
H970 C958 0.960 . S
H971 C958 0.962 . S
H972 C958 0.960 . S
H973 C959 0.961 . S
H974 C959 0.961 . S
H975 C959 0.961 . S
H976 C960 0.931 . S
H977 C965 0.930 . S
H978 C966 0.956 . S
H979 C966 0.961 . S
H980 C966 0.961 . S
H981 C967 0.958 . S
H982 C967 0.961 . S
H983 C967 0.960 . S
C984 C985 1.391 . S
C984 C986 1.394 . S
C984 H1000 0.931 . S
C985 C984 1.391 . S
C985 C989 1.376 . S
C986 C984 1.394 . S
C986 C987 1.369 . S
C986 C990 1.531 . S
C987 C986 1.369 . S
C987 C988 1.410 . S
C987 C995 1.503 . S
C988 C987 1.410 . S
C988 C989 1.392 . S
C988 C991 1.511 . S
C989 C985 1.376 . S
C989 C988 1.392 . S
C989 H1001 0.929 . S
C990 C986 1.531 . S
C990 H1002 0.960 . S
C990 H1003 0.962 . S
C990 H1004 0.960 . S
C991 C988 1.511 . S
C991 H1005 0.961 . S
C991 H1006 0.961 . S
C991 H1007 0.961 . S
C992 C993 1.370 . S
C992 C994 1.363 . S
C992 H1008 0.931 . S
C993 C992 1.370 . S
C993 C997 1.408 . S
C994 C992 1.363 . S
C994 C995 1.370 . S
C994 C998 1.524 . S
C995 C987 1.503 . S
C995 C994 1.370 . S
C995 C996 1.403 . S
C996 C995 1.403 . S
C996 C997 1.404 . S
C996 C999 1.539 . S
C997 C993 1.408 . S
C997 C996 1.404 . S
C997 H1009 0.930 . S
C998 C994 1.524 . S
C998 H1010 0.956 . S
C998 H1011 0.961 . S
C998 H1012 0.961 . S
C999 C996 1.539 . S
C999 H1013 0.958 . S
C999 H1014 0.961 . S
C999 H1015 0.960 . S
H1000 C984 0.931 . S
H1001 C989 0.929 . S
H1002 C990 0.960 . S
H1003 C990 0.962 . S
H1004 C990 0.960 . S
H1005 C991 0.961 . S
H1006 C991 0.961 . S
H1007 C991 0.961 . S
H1008 C992 0.931 . S
H1009 C997 0.930 . S
H1010 C998 0.956 . S
H1011 C998 0.961 . S
H1012 C998 0.961 . S
H1013 C999 0.958 . S
H1014 C999 0.961 . S
H1015 C999 0.960 . S
C1016 C1017 1.391 . S
C1016 C1018 1.394 . S
C1016 H1032 0.931 . S
C1017 C1016 1.391 . S
C1017 C1021 1.376 . S
C1018 C1016 1.394 . S
C1018 C1019 1.369 . S
C1018 C1022 1.531 . S
C1019 C1018 1.369 . S
C1019 C1020 1.410 . S
C1019 C1027 1.503 . S
C1020 C1019 1.410 . S
C1020 C1021 1.392 . S
C1020 C1023 1.511 . S
C1021 C1017 1.376 . S
C1021 C1020 1.392 . S
C1021 H1033 0.929 . S
C1022 C1018 1.531 . S
C1022 H1034 0.960 . S
C1022 H1035 0.962 . S
C1022 H1036 0.960 . S
C1023 C1020 1.511 . S
C1023 H1037 0.961 . S
C1023 H1038 0.961 . S
C1023 H1039 0.961 . S
C1024 C1025 1.370 . S
C1024 C1026 1.363 . S
C1024 H1040 0.931 . S
C1025 C1024 1.370 . S
C1025 C1029 1.408 . S
C1026 C1024 1.363 . S
C1026 C1027 1.370 . S
C1026 C1030 1.524 . S
C1027 C1019 1.503 . S
C1027 C1026 1.370 . S
C1027 C1028 1.403 . S
C1028 C1027 1.403 . S
C1028 C1029 1.404 . S
C1028 C1031 1.539 . S
C1029 C1025 1.408 . S
C1029 C1028 1.404 . S
C1029 H1041 0.930 . S
C1030 C1026 1.524 . S
C1030 H1042 0.956 . S
C1030 H1043 0.961 . S
C1030 H1044 0.961 . S
C1031 C1028 1.539 . S
C1031 H1045 0.958 . S
C1031 H1046 0.961 . S
C1031 H1047 0.960 . S
H1032 C1016 0.931 . S
H1033 C1021 0.929 . S
H1034 C1022 0.960 . S
H1035 C1022 0.962 . S
H1036 C1022 0.960 . S
H1037 C1023 0.961 . S
H1038 C1023 0.961 . S
H1039 C1023 0.961 . S
H1040 C1024 0.931 . S
H1041 C1029 0.930 . S
H1042 C1030 0.956 . S
H1043 C1030 0.961 . S
H1044 C1030 0.961 . S
H1045 C1031 0.958 . S
H1046 C1031 0.961 . S
H1047 C1031 0.960 . S
C1048 C1049 1.391 . S
C1048 C1050 1.394 . S
C1048 H1064 0.931 . S
C1049 C1048 1.391 . S
C1049 C1053 1.376 . S
C1050 C1048 1.394 . S
C1050 C1051 1.369 . S
C1050 C1054 1.531 . S
C1051 C1050 1.369 . S
C1051 C1052 1.410 . S
C1051 C1059 1.503 . S
C1052 C1051 1.410 . S
C1052 C1053 1.392 . S
C1052 C1055 1.511 . S
C1053 C1049 1.376 . S
C1053 C1052 1.392 . S
C1053 H1065 0.929 . S
C1054 C1050 1.531 . S
C1054 H1066 0.960 . S
C1054 H1067 0.962 . S
C1054 H1068 0.960 . S
C1055 C1052 1.511 . S
C1055 H1069 0.961 . S
C1055 H1070 0.961 . S
C1055 H1071 0.961 . S
C1056 C1057 1.370 . S
C1056 C1058 1.363 . S
C1056 H1072 0.931 . S
C1057 C1056 1.370 . S
C1057 C1061 1.408 . S
C1058 C1056 1.363 . S
C1058 C1059 1.370 . S
C1058 C1062 1.524 . S
C1059 C1051 1.503 . S
C1059 C1058 1.370 . S
C1059 C1060 1.403 . S
C1060 C1059 1.403 . S
C1060 C1061 1.404 . S
C1060 C1063 1.539 . S
C1061 C1057 1.408 . S
C1061 C1060 1.404 . S
C1061 H1073 0.930 . S
C1062 C1058 1.524 . S
C1062 H1074 0.956 . S
C1062 H1075 0.961 . S
C1062 H1076 0.961 . S
C1063 C1060 1.539 . S
C1063 H1077 0.958 . S
C1063 H1078 0.961 . S
C1063 H1079 0.960 . S
H1064 C1048 0.931 . S
H1065 C1053 0.929 . S
H1066 C1054 0.960 . S
H1067 C1054 0.962 . S
H1068 C1054 0.960 . S
H1069 C1055 0.961 . S
H1070 C1055 0.961 . S
H1071 C1055 0.961 . S
H1072 C1056 0.931 . S
H1073 C1061 0.930 . S
H1074 C1062 0.956 . S
H1075 C1062 0.961 . S
H1076 C1062 0.961 . S
H1077 C1063 0.958 . S
H1078 C1063 0.961 . S
H1079 C1063 0.960 . S
C1080 C1081 1.391 . S
C1080 C1082 1.394 . S
C1080 H1096 0.931 . S
C1081 C1080 1.391 . S
C1081 C1085 1.376 . S
C1082 C1080 1.394 . S
C1082 C1083 1.369 . S
C1082 C1086 1.531 . S
C1083 C1082 1.369 . S
C1083 C1084 1.410 . S
C1083 C1091 1.503 1_566 S
C1084 C1083 1.410 . S
C1084 C1085 1.392 . S
C1084 C1087 1.468 1_565 S
C1085 C1081 1.376 . S
C1085 C1084 1.392 . S
C1085 H1097 0.929 . S
C1086 C1082 1.531 . S
C1086 H1098 0.960 1_565 S
C1086 H1099 0.962 1_556 S
C1086 H1100 0.960 . S
C1087 C1084 1.468 1_545 S
C1087 H1101 0.954 1_545 S
C1087 H1102 0.976 . S
C1087 H1103 0.999 . S
C1088 C1089 1.370 . S
C1088 C1090 1.363 . S
C1088 H1104 0.931 . S
C1089 C1088 1.370 . S
C1089 C1093 1.408 . S
C1090 C1088 1.363 . S
C1090 C1091 1.370 . S
C1090 C1094 1.524 1_545 S
C1091 C1083 1.503 1_544 S
C1091 C1090 1.370 . S
C1091 C1092 1.403 . S
C1092 C1091 1.403 . S
C1092 C1093 1.404 . S
C1092 C1095 1.539 1_554 S
C1093 C1089 1.408 . S
C1093 C1092 1.404 . S
C1093 H1105 0.930 . S
C1094 C1090 1.524 1_565 S
C1094 H1106 0.956 . S
C1094 H1107 0.961 . S
C1094 H1108 0.961 . S
C1095 C1092 1.539 1_556 S
C1095 H1109 0.958 . S
C1095 H1110 0.961 . S
C1095 H1111 0.960 . S
H1096 C1080 0.931 . S
H1097 C1085 0.929 . S
H1098 C1086 0.960 1_545 S
H1099 C1086 0.962 1_554 S
H1100 C1086 0.960 . S
H1101 C1087 0.954 1_565 S
H1102 C1087 0.976 . S
H1103 C1087 0.999 . S
H1104 C1088 0.931 . S
H1105 C1093 0.930 . S
H1106 C1094 0.956 . S
H1107 C1094 0.961 . S
H1108 C1094 0.961 . S
H1109 C1095 0.958 . S
H1110 C1095 0.961 . S
H1111 C1095 0.960 . S
C1112 C1113 1.391 . S
C1112 C1114 1.394 . S
C1112 H1128 0.931 . S
C1113 C1112 1.391 . S
C1113 C1117 1.376 . S
C1114 C1112 1.394 . S
C1114 C1115 1.369 . S
C1114 C1118 1.531 . S
C1115 C1114 1.369 . S
C1115 C1116 1.410 . S
C1115 C1123 1.503 . S
C1116 C1115 1.410 . S
C1116 C1117 1.392 . S
C1116 C1119 1.511 . S
C1117 C1113 1.376 . S
C1117 C1116 1.392 . S
C1117 H1129 0.929 . S
C1118 C1114 1.531 . S
C1118 H1130 0.960 . S
C1118 H1131 0.962 . S
C1118 H1132 0.960 . S
C1119 C1116 1.511 . S
C1119 H1133 0.961 . S
C1119 H1134 0.961 . S
C1119 H1135 0.961 . S
C1120 C1121 1.370 . S
C1120 C1122 1.363 . S
C1120 H1136 0.931 . S
C1121 C1120 1.370 . S
C1121 C1125 1.408 . S
C1122 C1120 1.363 . S
C1122 C1123 1.370 . S
C1122 C1126 1.524 . S
C1123 C1115 1.503 . S
C1123 C1122 1.370 . S
C1123 C1124 1.403 . S
C1124 C1123 1.403 . S
C1124 C1125 1.404 . S
C1124 C1127 1.539 . S
C1125 C1121 1.408 . S
C1125 C1124 1.404 . S
C1125 H1137 0.930 . S
C1126 C1122 1.524 . S
C1126 H1138 0.956 . S
C1126 H1139 0.961 . S
C1126 H1140 0.961 . S
C1127 C1124 1.539 . S
C1127 H1141 0.958 . S
C1127 H1142 0.961 . S
C1127 H1143 0.960 . S
H1128 C1112 0.931 . S
H1129 C1117 0.929 . S
H1130 C1118 0.960 . S
H1131 C1118 0.962 . S
H1132 C1118 0.960 . S
H1133 C1119 0.961 . S
H1134 C1119 0.961 . S
H1135 C1119 0.961 . S
H1136 C1120 0.931 . S
H1137 C1125 0.930 . S
H1138 C1126 0.956 . S
H1139 C1126 0.961 . S
H1140 C1126 0.961 . S
H1141 C1127 0.958 . S
H1142 C1127 0.961 . S
H1143 C1127 0.960 . S
C1144 C1145 1.391 . S
C1144 C1146 1.394 . S
C1144 H1160 0.931 . S
C1145 C1144 1.391 . S
C1145 C1149 1.376 . S
C1146 C1144 1.394 . S
C1146 C1147 1.369 . S
C1146 C1150 1.531 1_556 S
C1147 C1146 1.369 . S
C1147 C1148 1.410 . S
C1147 C1155 1.503 1_456 S
C1148 C1147 1.410 . S
C1148 C1149 1.392 . S
C1148 C1151 1.511 1_455 S
C1149 C1145 1.376 . S
C1149 C1148 1.392 . S
C1149 H1161 0.929 . S
C1150 C1146 1.531 1_554 S
C1150 H1162 0.960 . S
C1150 H1163 0.962 . S
C1150 H1164 0.960 . S
C1151 C1148 1.511 1_655 S
C1151 H1165 0.961 . S
C1151 H1166 0.961 . S
C1151 H1167 0.961 . S
C1152 C1153 1.370 . S
C1152 C1154 1.363 . S
C1152 H1168 0.931 . S
C1153 C1152 1.370 . S
C1153 C1157 1.408 . S
C1154 C1152 1.363 . S
C1154 C1155 1.370 . S
C1154 C1158 1.524 1_655 S
C1155 C1147 1.503 1_654 S
C1155 C1154 1.370 . S
C1155 C1156 1.403 . S
C1156 C1155 1.403 . S
C1156 C1157 1.404 . S
C1156 C1159 1.539 1_554 S
C1157 C1153 1.408 . S
C1157 C1156 1.404 . S
C1157 H1169 0.930 . S
C1158 C1154 1.524 1_455 S
C1158 H1170 0.956 . S
C1158 H1171 0.958 1_554 S
C1158 H1172 0.961 1_455 S
C1159 C1156 1.539 1_556 S
C1159 H1173 0.958 1_556 S
C1159 H1174 0.961 . S
C1159 H1175 0.960 . S
H1160 C1144 0.931 . S
H1161 C1149 0.929 . S
H1162 C1150 0.960 . S
H1163 C1150 0.962 . S
H1164 C1150 0.960 . S
H1165 C1151 0.961 . S
H1166 C1151 0.961 . S
H1167 C1151 0.961 . S
H1168 C1152 0.931 . S
H1169 C1157 0.930 . S
H1170 C1158 0.956 . S
H1171 C1158 0.958 1_556 S
H1172 C1158 0.961 1_655 S
H1173 C1159 0.958 1_554 S
H1174 C1159 0.961 . S
H1175 C1159 0.960 . S
C1176 C1177 1.391 . S
C1176 C1178 1.394 . S
C1176 H1192 0.931 . S
C1177 C1176 1.391 . S
C1177 C1181 1.376 . S
C1178 C1176 1.394 . S
C1178 C1179 1.369 . S
C1178 C1182 1.531 1_545 S
C1179 C1178 1.369 . S
C1179 C1180 1.410 . S
C1179 C1187 1.503 1_545 S
C1180 C1179 1.410 . S
C1180 C1181 1.392 . S
C1180 C1183 1.511 . S
C1181 C1177 1.376 . S
C1181 C1180 1.392 . S
C1181 H1193 0.929 . S
C1182 C1178 1.531 1_565 S
C1182 H1194 0.960 . S
C1182 H1195 0.962 1_565 S
C1182 H1196 0.960 . S
C1183 C1180 1.511 . S
C1183 H1197 0.961 . S
C1183 H1198 0.961 . S
C1183 H1199 0.961 . S
C1184 C1185 1.370 . S
C1184 C1186 1.363 . S
C1184 H1200 0.931 . S
C1185 C1184 1.370 . S
C1185 C1189 1.408 . S
C1186 C1184 1.363 . S
C1186 C1187 1.370 . S
C1186 C1190 1.524 1_565 S
C1187 C1179 1.503 1_565 S
C1187 C1186 1.370 . S
C1187 C1188 1.403 . S
C1188 C1187 1.403 . S
C1188 C1189 1.404 . S
C1188 C1191 1.539 . S
C1189 C1185 1.408 . S
C1189 C1188 1.404 . S
C1189 H1201 0.930 . S
C1190 C1186 1.524 1_545 S
C1190 H1202 0.956 . S
C1190 H1203 0.961 . S
C1190 H1204 0.961 . S
C1191 C1188 1.539 . S
C1191 H1205 0.958 . S
C1191 H1206 0.961 . S
C1191 H1207 0.960 . S
H1192 C1176 0.931 . S
H1193 C1181 0.929 . S
H1194 C1182 0.960 . S
H1195 C1182 0.962 1_545 S
H1196 C1182 0.960 . S
H1197 C1183 0.961 . S
H1198 C1183 0.961 . S
H1199 C1183 0.961 . S
H1200 C1184 0.931 . S
H1201 C1189 0.930 . S
H1202 C1190 0.956 . S
H1203 C1190 0.961 . S
H1204 C1190 0.961 . S
H1205 C1191 0.958 . S
H1206 C1191 0.961 . S
H1207 C1191 0.960 . S
C1208 C1209 1.391 . S
C1208 C1210 1.394 . S
C1208 H1224 0.931 . S
C1209 C1208 1.391 . S
C1209 C1213 1.376 . S
C1210 C1208 1.394 . S
C1210 C1211 1.369 . S
C1210 C1214 1.531 1_554 S
C1211 C1210 1.369 . S
C1211 C1212 1.410 . S
C1211 C1219 1.503 1_554 S
C1212 C1211 1.410 . S
C1212 C1213 1.392 . S
C1212 C1215 1.511 . S
C1213 C1209 1.376 . S
C1213 C1212 1.392 . S
C1213 H1225 0.929 . S
C1214 C1210 1.531 1_556 S
C1214 H1226 0.960 . S
C1214 H1227 0.962 . S
C1214 H1228 0.960 . S
C1215 C1212 1.511 . S
C1215 H1229 0.961 . S
C1215 H1230 0.961 . S
C1215 H1231 0.961 . S
C1216 C1217 1.370 . S
C1216 C1218 1.363 . S
C1216 H1232 0.931 . S
C1217 C1216 1.370 . S
C1217 C1221 1.408 . S
C1218 C1216 1.363 . S
C1218 C1219 1.370 . S
C1218 C1222 1.524 . S
C1219 C1211 1.503 1_556 S
C1219 C1218 1.370 . S
C1219 C1220 1.403 . S
C1220 C1219 1.403 . S
C1220 C1221 1.404 . S
C1220 C1223 1.539 . S
C1221 C1217 1.408 . S
C1221 C1220 1.404 . S
C1221 H1233 0.930 . S
C1222 C1218 1.524 . S
C1222 H1234 0.956 . S
C1222 H1235 0.961 1_556 S
C1222 H1236 0.961 . S
C1223 C1220 1.539 . S
C1223 H1237 0.958 . S
C1223 H1238 0.961 . S
C1223 H1239 0.960 1_556 S
H1224 C1208 0.931 . S
H1225 C1213 0.929 . S
H1226 C1214 0.960 . S
H1227 C1214 0.962 . S
H1228 C1214 0.960 . S
H1229 C1215 0.961 . S
H1230 C1215 0.961 . S
H1231 C1215 0.961 . S
H1232 C1216 0.931 . S
H1233 C1221 0.930 . S
H1234 C1222 0.956 . S
H1235 C1222 0.961 1_554 S
H1236 C1222 0.961 . S
H1237 C1223 0.958 . S
H1238 C1223 0.961 . S
H1239 C1223 0.960 1_554 S
C1240 C1241 1.391 . S
C1240 C1242 1.394 . S
C1240 H1256 0.931 . S
C1241 C1240 1.391 . S
C1241 C1245 1.376 . S
C1242 C1240 1.394 . S
C1242 C1243 1.369 . S
C1242 C1246 1.531 . S
C1243 C1242 1.369 . S
C1243 C1244 1.410 . S
C1243 C1251 1.503 1_455 S
C1244 C1243 1.410 . S
C1244 C1245 1.392 . S
C1244 C1247 1.511 1_455 S
C1245 C1241 1.376 . S
C1245 C1244 1.392 . S
C1245 H1257 0.929 . S
C1246 C1242 1.531 . S
C1246 H1258 0.960 . S
C1246 H1259 0.962 . S
C1246 H1260 0.960 . S
C1247 C1244 1.511 1_655 S
C1247 H1261 0.961 . S
C1247 H1262 0.961 . S
C1247 H1263 0.961 . S
C1248 C1249 1.370 . S
C1248 C1250 1.363 . S
C1248 H1264 0.931 . S
C1249 C1248 1.370 . S
C1249 C1253 1.408 . S
C1250 C1248 1.363 . S
C1250 C1251 1.370 . S
C1250 C1254 1.524 1_655 S
C1251 C1243 1.503 1_655 S
C1251 C1250 1.370 . S
C1251 C1252 1.403 . S
C1252 C1251 1.403 . S
C1252 C1253 1.404 . S
C1252 C1255 1.539 . S
C1253 C1249 1.408 . S
C1253 C1252 1.404 . S
C1253 H1265 0.930 . S
C1254 C1250 1.524 1_455 S
C1254 H1266 0.951 . S
C1254 H1267 0.961 1_455 S
C1254 H1268 0.964 1_455 S
C1255 C1252 1.539 . S
C1255 H1269 0.958 . S
C1255 H1270 0.961 . S
C1255 H1271 0.960 . S
H1256 C1240 0.931 . S
H1257 C1245 0.929 . S
H1258 C1246 0.960 . S
H1259 C1246 0.962 . S
H1260 C1246 0.960 . S
H1261 C1247 0.961 . S
H1262 C1247 0.961 . S
H1263 C1247 0.961 . S
H1264 C1248 0.931 . S
H1265 C1253 0.930 . S
H1266 C1254 0.951 . S
H1267 C1254 0.961 1_655 S
H1268 C1254 0.964 1_655 S
H1269 C1255 0.958 . S
H1270 C1255 0.961 . S
H1271 C1255 0.960 . S
C1272 C1273 1.391 . S
C1272 C1274 1.394 . S
C1272 H1288 0.931 . S
C1273 C1272 1.391 . S
C1273 C1277 1.376 . S
C1274 C1272 1.394 . S
C1274 C1275 1.369 . S
C1274 C1278 1.531 1_556 S
C1275 C1274 1.369 . S
C1275 C1276 1.410 . S
C1275 C1283 1.503 1_566 S
C1276 C1275 1.410 . S
C1276 C1277 1.392 . S
C1276 C1279 1.511 1_565 S
C1277 C1273 1.376 . S
C1277 C1276 1.392 . S
C1277 H1289 0.929 . S
C1278 C1274 1.531 1_554 S
C1278 H1290 0.960 . S
C1278 H1291 0.962 . S
C1278 H1292 0.960 . S
C1279 C1276 1.511 1_545 S
C1279 H1293 0.961 . S
C1279 H1294 0.961 . S
C1279 H1295 0.961 . S
C1280 C1281 1.370 . S
C1280 C1282 1.363 . S
C1280 H1296 0.931 . S
C1281 C1280 1.370 . S
C1281 C1285 1.408 . S
C1282 C1280 1.363 . S
C1282 C1283 1.370 . S
C1282 C1286 1.524 1_554 S
C1283 C1275 1.503 1_544 S
C1283 C1282 1.370 . S
C1283 C1284 1.403 . S
C1284 C1283 1.403 . S
C1284 C1285 1.404 . S
C1284 C1287 1.539 1_545 S
C1285 C1281 1.408 . S
C1285 C1284 1.404 . S
C1285 H1297 0.930 . S
C1286 C1282 1.524 1_556 S
C1286 H1298 0.956 . S
C1286 H1299 0.961 . S
C1286 H1300 0.961 . S
C1287 C1284 1.539 1_565 S
C1287 H1301 0.958 . S
C1287 H1302 0.961 1_565 S
C1287 H1303 0.960 . S
H1288 C1272 0.931 . S
H1289 C1277 0.929 . S
H1290 C1278 0.960 . S
H1291 C1278 0.962 . S
H1292 C1278 0.960 . S
H1293 C1279 0.961 . S
H1294 C1279 0.961 . S
H1295 C1279 0.961 . S
H1296 C1280 0.931 . S
H1297 C1285 0.930 . S
H1298 C1286 0.956 . S
H1299 C1286 0.961 . S
H1300 C1286 0.961 . S
H1301 C1287 0.958 . S
H1302 C1287 0.961 1_545 S
H1303 C1287 0.960 . S
C1304 C1305 1.391 . S
C1304 C1306 1.394 . S
C1304 H1320 0.931 . S
C1305 C1304 1.391 . S
C1305 C1309 1.376 . S
C1306 C1304 1.394 . S
C1306 C1307 1.369 . S
C1306 C1310 1.531 . S
C1307 C1306 1.369 . S
C1307 C1308 1.410 . S
C1307 C1315 1.503 . S
C1308 C1307 1.410 . S
C1308 C1309 1.392 . S
C1308 C1311 1.511 . S
C1309 C1305 1.376 . S
C1309 C1308 1.392 . S
C1309 H1321 0.929 . S
C1310 C1306 1.531 . S
C1310 H1322 0.960 . S
C1310 H1323 0.962 . S
C1310 H1324 0.960 . S
C1311 C1308 1.511 . S
C1311 H1325 0.961 . S
C1311 H1326 0.961 . S
C1311 H1327 0.961 . S
C1312 C1313 1.370 . S
C1312 C1314 1.363 . S
C1312 H1328 0.931 . S
C1313 C1312 1.370 . S
C1313 C1317 1.408 . S
C1314 C1312 1.363 . S
C1314 C1315 1.370 . S
C1314 C1318 1.524 . S
C1315 C1307 1.503 . S
C1315 C1314 1.370 . S
C1315 C1316 1.403 . S
C1316 C1315 1.403 . S
C1316 C1317 1.404 . S
C1316 C1319 1.539 . S
C1317 C1313 1.408 . S
C1317 C1316 1.404 . S
C1317 H1329 0.930 . S
C1318 C1314 1.524 . S
C1318 H1330 0.956 . S
C1318 H1331 0.961 . S
C1318 H1332 0.961 . S
C1319 C1316 1.539 . S
C1319 H1333 0.958 . S
C1319 H1334 0.961 . S
C1319 H1335 0.960 . S
H1320 C1304 0.931 . S
H1321 C1309 0.929 . S
H1322 C1310 0.960 . S
H1323 C1310 0.962 . S
H1324 C1310 0.960 . S
H1325 C1311 0.961 . S
H1326 C1311 0.961 . S
H1327 C1311 0.961 . S
H1328 C1312 0.931 . S
H1329 C1317 0.930 . S
H1330 C1318 0.956 . S
H1331 C1318 0.961 . S
H1332 C1318 0.961 . S
H1333 C1319 0.958 . S
H1334 C1319 0.961 . S
H1335 C1319 0.960 . S
C1336 C1337 1.391 . S
C1336 C1338 1.394 . S
C1336 H1352 0.931 . S
C1337 C1336 1.391 . S
C1337 C1341 1.376 . S
C1338 C1336 1.394 . S
C1338 C1339 1.369 . S
C1338 C1342 1.508 1_554 S
C1339 C1338 1.369 . S
C1339 C1340 1.410 . S
C1339 C1347 1.503 1_654 S
C1340 C1339 1.410 . S
C1340 C1341 1.392 . S
C1340 C1343 1.511 1_655 S
C1341 C1337 1.376 . S
C1341 C1340 1.392 . S
C1341 H1353 0.929 . S
C1342 C1338 1.508 1_556 S
C1342 H1354 0.970 . S
C1342 H1355 0.995 . S
C1342 H1356 0.942 1_556 S
C1343 C1340 1.511 1_455 S
C1343 H1357 0.961 . S
C1343 H1358 0.961 . S
C1343 H1359 0.961 . S
C1344 C1345 1.370 . S
C1344 C1346 1.363 . S
C1344 H1360 0.931 . S
C1345 C1344 1.370 . S
C1345 C1349 1.408 . S
C1346 C1344 1.363 . S
C1346 C1347 1.370 . S
C1346 C1350 1.524 1_455 S
C1347 C1339 1.503 1_456 S
C1347 C1346 1.370 . S
C1347 C1348 1.403 . S
C1348 C1347 1.403 . S
C1348 C1349 1.404 . S
C1348 C1351 1.539 1_556 S
C1349 C1345 1.408 . S
C1349 C1348 1.404 . S
C1349 H1361 0.930 . S
C1350 C1346 1.524 1_655 S
C1350 H1362 0.956 . S
C1350 H1363 0.961 . S
C1350 H1364 0.961 . S
C1351 C1348 1.539 1_554 S
C1351 H1365 0.958 . S
C1351 H1366 0.961 . S
C1351 H1367 0.960 . S
H1352 C1336 0.931 . S
H1353 C1341 0.929 . S
H1354 C1342 0.970 . S
H1355 C1342 0.995 . S
H1356 C1342 0.942 1_554 S
H1357 C1343 0.961 . S
H1358 C1343 0.961 . S
H1359 C1343 0.961 . S
H1360 C1344 0.931 . S
H1361 C1349 0.930 . S
H1362 C1350 0.956 . S
H1363 C1350 0.961 . S
H1364 C1350 0.961 . S
H1365 C1351 0.958 . S
H1366 C1351 0.961 . S
H1367 C1351 0.960 . S
C1368 C1369 1.391 . S
C1368 C1370 1.394 . S
C1368 H1384 0.931 . S
C1369 C1368 1.391 . S
C1369 C1373 1.376 . S
C1370 C1368 1.394 . S
C1370 C1371 1.369 . S
C1370 C1374 1.531 1_565 S
C1371 C1370 1.369 . S
C1371 C1372 1.410 . S
C1371 C1379 1.503 1_565 S
C1372 C1371 1.410 . S
C1372 C1373 1.392 . S
C1372 C1375 1.511 . S
C1373 C1369 1.376 . S
C1373 C1372 1.392 . S
C1373 H1385 0.929 . S
C1374 C1370 1.531 1_545 S
C1374 H1386 0.960 . S
C1374 H1387 0.962 . S
C1374 H1388 0.960 . S
C1375 C1372 1.511 . S
C1375 H1389 0.961 . S
C1375 H1390 0.961 . S
C1375 H1391 0.961 . S
C1376 C1377 1.370 . S
C1376 C1378 1.363 . S
C1376 H1392 0.931 . S
C1377 C1376 1.370 . S
C1377 C1381 1.408 . S
C1378 C1376 1.363 . S
C1378 C1379 1.370 . S
C1378 C1382 1.524 1_545 S
C1379 C1371 1.503 1_545 S
C1379 C1378 1.370 . S
C1379 C1380 1.403 . S
C1380 C1379 1.403 . S
C1380 C1381 1.404 . S
C1380 C1383 1.539 . S
C1381 C1377 1.408 . S
C1381 C1380 1.404 . S
C1381 H1393 0.930 . S
C1382 C1378 1.524 1_565 S
C1382 H1394 0.956 . S
C1382 H1395 0.961 . S
C1382 H1396 0.961 . S
C1383 C1380 1.539 . S
C1383 H1397 0.958 . S
C1383 H1398 0.961 . S
C1383 H1399 0.960 . S
H1384 C1368 0.931 . S
H1385 C1373 0.929 . S
H1386 C1374 0.960 . S
H1387 C1374 0.962 . S
H1388 C1374 0.960 . S
H1389 C1375 0.961 . S
H1390 C1375 0.961 . S
H1391 C1375 0.961 . S
H1392 C1376 0.931 . S
H1393 C1381 0.930 . S
H1394 C1382 0.956 . S
H1395 C1382 0.961 . S
H1396 C1382 0.961 . S
H1397 C1383 0.958 . S
H1398 C1383 0.961 . S
H1399 C1383 0.960 . S
C1400 C1401 1.391 . S
C1400 C1402 1.394 . S
C1400 H1416 0.931 . S
C1401 C1400 1.391 . S
C1401 C1405 1.376 . S
C1402 C1400 1.394 . S
C1402 C1403 1.369 . S
C1402 C1406 1.531 1_554 S
C1403 C1402 1.369 . S
C1403 C1404 1.410 . S
C1403 C1411 1.503 1_554 S
C1404 C1403 1.410 . S
C1404 C1405 1.392 . S
C1404 C1407 1.511 . S
C1405 C1401 1.376 . S
C1405 C1404 1.392 . S
C1405 H1417 0.929 . S
C1406 C1402 1.531 1_556 S
C1406 H1418 0.960 . S
C1406 H1419 0.962 . S
C1406 H1420 0.960 . S
C1407 C1404 1.511 . S
C1407 H1421 0.961 . S
C1407 H1422 0.961 . S
C1407 H1423 0.961 . S
C1408 C1409 1.370 . S
C1408 C1410 1.363 . S
C1408 H1424 0.931 . S
C1409 C1408 1.370 . S
C1409 C1413 1.408 . S
C1410 C1408 1.363 . S
C1410 C1411 1.370 . S
C1410 C1414 1.524 1_556 S
C1411 C1403 1.503 1_556 S
C1411 C1410 1.370 . S
C1411 C1412 1.403 . S
C1412 C1411 1.403 . S
C1412 C1413 1.404 . S
C1412 C1415 1.539 . S
C1413 C1409 1.408 . S
C1413 C1412 1.404 . S
C1413 H1425 0.930 . S
C1414 C1410 1.524 1_554 S
C1414 H1426 0.956 . S
C1414 H1427 0.961 . S
C1414 H1428 0.961 . S
C1415 C1412 1.539 . S
C1415 H1429 0.958 . S
C1415 H1430 0.961 . S
C1415 H1431 0.960 . S
H1416 C1400 0.931 . S
H1417 C1405 0.929 . S
H1418 C1406 0.960 . S
H1419 C1406 0.962 . S
H1420 C1406 0.960 . S
H1421 C1407 0.961 . S
H1422 C1407 0.961 . S
H1423 C1407 0.961 . S
H1424 C1408 0.931 . S
H1425 C1413 0.930 . S
H1426 C1414 0.956 . S
H1427 C1414 0.961 . S
H1428 C1414 0.961 . S
H1429 C1415 0.958 . S
H1430 C1415 0.961 . S
H1431 C1415 0.960 . S
C1432 C1433 1.391 . S
C1432 C1434 1.394 . S
C1432 H1448 0.931 . S
C1433 C1432 1.391 . S
C1433 C1437 1.376 . S
C1434 C1432 1.394 . S
C1434 C1435 1.369 . S
C1434 C1438 1.531 1_455 S
C1435 C1434 1.369 . S
C1435 C1436 1.410 . S
C1435 C1443 1.503 1_455 S
C1436 C1435 1.410 . S
C1436 C1437 1.392 . S
C1436 C1439 1.511 . S
C1437 C1433 1.376 . S
C1437 C1436 1.392 . S
C1437 H1449 0.929 . S
C1438 C1434 1.531 1_655 S
C1438 H1450 0.960 . S
C1438 H1451 0.962 . S
C1438 H1452 0.960 . S
C1439 C1436 1.511 . S
C1439 H1453 0.961 . S
C1439 H1454 0.961 . S
C1439 H1455 0.961 . S
C1440 C1441 1.370 . S
C1440 C1442 1.363 . S
C1440 H1456 0.931 . S
C1441 C1440 1.370 . S
C1441 C1445 1.408 . S
C1442 C1440 1.363 . S
C1442 C1443 1.370 . S
C1442 C1446 1.524 . S
C1443 C1435 1.503 1_655 S
C1443 C1442 1.370 . S
C1443 C1444 1.403 . S
C1444 C1443 1.403 . S
C1444 C1445 1.404 . S
C1444 C1447 1.539 . S
C1445 C1441 1.408 . S
C1445 C1444 1.404 . S
C1445 H1457 0.930 . S
C1446 C1442 1.524 . S
C1446 H1458 0.956 . S
C1446 H1459 0.961 1_655 S
C1446 H1460 0.961 . S
C1447 C1444 1.539 . S
C1447 H1461 0.958 . S
C1447 H1462 0.961 . S
C1447 H1463 0.960 1_655 S
H1448 C1432 0.931 . S
H1449 C1437 0.929 . S
H1450 C1438 0.960 . S
H1451 C1438 0.962 . S
H1452 C1438 0.960 . S
H1453 C1439 0.961 . S
H1454 C1439 0.961 . S
H1455 C1439 0.961 . S
H1456 C1440 0.931 . S
H1457 C1445 0.930 . S
H1458 C1446 0.956 . S
H1459 C1446 0.961 1_455 S
H1460 C1446 0.961 . S
H1461 C1447 0.958 . S
H1462 C1447 0.961 . S
H1463 C1447 0.960 1_455 S
C1464 C1465 1.391 . S
C1464 C1466 1.394 . S
C1464 H1480 0.931 . S
C1465 C1464 1.391 . S
C1465 C1469 1.376 . S
C1466 C1464 1.394 . S
C1466 C1467 1.369 . S
C1466 C1470 1.531 . S
C1467 C1466 1.369 . S
C1467 C1468 1.410 . S
C1467 C1475 1.503 . S
C1468 C1467 1.410 . S
C1468 C1469 1.392 . S
C1468 C1471 1.511 . S
C1469 C1465 1.376 . S
C1469 C1468 1.392 . S
C1469 H1481 0.929 . S
C1470 C1466 1.531 . S
C1470 H1482 0.960 . S
C1470 H1483 0.962 . S
C1470 H1484 0.960 . S
C1471 C1468 1.511 . S
C1471 H1485 0.961 . S
C1471 H1486 0.961 . S
C1471 H1487 0.961 . S
C1472 C1473 1.370 . S
C1472 C1474 1.363 . S
C1472 H1488 0.931 . S
C1473 C1472 1.370 . S
C1473 C1477 1.408 . S
C1474 C1472 1.363 . S
C1474 C1475 1.370 . S
C1474 C1478 1.524 . S
C1475 C1467 1.503 . S
C1475 C1474 1.370 . S
C1475 C1476 1.403 . S
C1476 C1475 1.403 . S
C1476 C1477 1.404 . S
C1476 C1479 1.539 . S
C1477 C1473 1.408 . S
C1477 C1476 1.404 . S
C1477 H1489 0.930 . S
C1478 C1474 1.524 . S
C1478 H1490 0.956 . S
C1478 H1491 0.961 . S
C1478 H1492 0.961 . S
C1479 C1476 1.539 . S
C1479 H1493 0.958 . S
C1479 H1494 0.961 . S
C1479 H1495 0.960 . S
H1480 C1464 0.931 . S
H1481 C1469 0.929 . S
H1482 C1470 0.960 . S
H1483 C1470 0.962 . S
H1484 C1470 0.960 . S
H1485 C1471 0.961 . S
H1486 C1471 0.961 . S
H1487 C1471 0.961 . S
H1488 C1472 0.931 . S
H1489 C1477 0.930 . S
H1490 C1478 0.956 . S
H1491 C1478 0.961 . S
H1492 C1478 0.961 . S
H1493 C1479 0.958 . S
H1494 C1479 0.961 . S
H1495 C1479 0.960 . S
C1496 C1497 1.391 . S
C1496 C1498 1.394 . S
C1496 H1512 0.931 . S
C1497 C1496 1.391 . S
C1497 C1501 1.376 . S
C1498 C1496 1.394 . S
C1498 C1499 1.369 . S
C1498 C1502 1.531 . S
C1499 C1498 1.369 . S
C1499 C1500 1.410 . S
C1499 C1507 1.503 . S
C1500 C1499 1.410 . S
C1500 C1501 1.392 . S
C1500 C1503 1.511 . S
C1501 C1497 1.376 . S
C1501 C1500 1.392 . S
C1501 H1513 0.929 . S
C1502 C1498 1.531 . S
C1502 H1514 0.960 . S
C1502 H1515 0.962 . S
C1502 H1516 0.960 . S
C1503 C1500 1.511 . S
C1503 H1517 0.961 . S
C1503 H1518 0.961 . S
C1503 H1519 0.961 . S
C1504 C1505 1.370 . S
C1504 C1506 1.363 . S
C1504 H1520 0.931 . S
C1505 C1504 1.370 . S
C1505 C1509 1.408 . S
C1506 C1504 1.363 . S
C1506 C1507 1.370 . S
C1506 C1510 1.524 . S
C1507 C1499 1.503 . S
C1507 C1506 1.370 . S
C1507 C1508 1.403 . S
C1508 C1507 1.403 . S
C1508 C1509 1.404 . S
C1508 C1511 1.539 . S
C1509 C1505 1.408 . S
C1509 C1508 1.404 . S
C1509 H1521 0.930 . S
C1510 C1506 1.524 . S
C1510 H1522 0.956 . S
C1510 H1523 0.961 . S
C1510 H1524 0.961 . S
C1511 C1508 1.539 . S
C1511 H1525 0.958 . S
C1511 H1526 0.961 . S
C1511 H1527 0.960 . S
H1512 C1496 0.931 . S
H1513 C1501 0.929 . S
H1514 C1502 0.960 . S
H1515 C1502 0.962 . S
H1516 C1502 0.960 . S
H1517 C1503 0.961 . S
H1518 C1503 0.961 . S
H1519 C1503 0.961 . S
H1520 C1504 0.931 . S
H1521 C1509 0.930 . S
H1522 C1510 0.956 . S
H1523 C1510 0.961 . S
H1524 C1510 0.961 . S
H1525 C1511 0.958 . S
H1526 C1511 0.961 . S
H1527 C1511 0.960 . S
C1528 C1529 1.391 . S
C1528 C1530 1.394 . S
C1528 H1544 0.931 . S
C1529 C1528 1.391 . S
C1529 C1533 1.376 . S
C1530 C1528 1.394 . S
C1530 C1531 1.369 . S
C1530 C1534 1.531 . S
C1531 C1530 1.369 . S
C1531 C1532 1.410 . S
C1531 C1539 1.503 . S
C1532 C1531 1.410 . S
C1532 C1533 1.392 . S
C1532 C1535 1.511 . S
C1533 C1529 1.376 . S
C1533 C1532 1.392 . S
C1533 H1545 0.929 . S
C1534 C1530 1.531 . S
C1534 H1546 0.960 . S
C1534 H1547 0.962 . S
C1534 H1548 0.960 . S
C1535 C1532 1.511 . S
C1535 H1549 0.961 . S
C1535 H1550 0.961 . S
C1535 H1551 0.961 . S
C1536 C1537 1.370 . S
C1536 C1538 1.363 . S
C1536 H1552 0.931 . S
C1537 C1536 1.370 . S
C1537 C1541 1.408 . S
C1538 C1536 1.363 . S
C1538 C1539 1.370 . S
C1538 C1542 1.524 . S
C1539 C1531 1.503 . S
C1539 C1538 1.370 . S
C1539 C1540 1.403 . S
C1540 C1539 1.403 . S
C1540 C1541 1.404 . S
C1540 C1543 1.539 . S
C1541 C1537 1.408 . S
C1541 C1540 1.404 . S
C1541 H1553 0.930 . S
C1542 C1538 1.524 . S
C1542 H1554 0.956 . S
C1542 H1555 0.961 . S
C1542 H1556 0.961 . S
C1543 C1540 1.539 . S
C1543 H1557 0.958 . S
C1543 H1558 0.961 . S
C1543 H1559 0.960 . S
H1544 C1528 0.931 . S
H1545 C1533 0.929 . S
H1546 C1534 0.960 . S
H1547 C1534 0.962 . S
H1548 C1534 0.960 . S
H1549 C1535 0.961 . S
H1550 C1535 0.961 . S
H1551 C1535 0.961 . S
H1552 C1536 0.931 . S
H1553 C1541 0.930 . S
H1554 C1542 0.956 . S
H1555 C1542 0.961 . S
H1556 C1542 0.961 . S
H1557 C1543 0.958 . S
H1558 C1543 0.961 . S
H1559 C1543 0.960 . S
C1560 C1561 1.391 . S
C1560 C1562 1.394 . S
C1560 H1576 0.931 . S
C1561 C1560 1.391 . S
C1561 C1565 1.376 . S
C1562 C1560 1.394 . S
C1562 C1563 1.369 . S
C1562 C1566 1.531 . S
C1563 C1562 1.369 . S
C1563 C1564 1.410 . S
C1563 C1571 1.503 . S
C1564 C1563 1.410 . S
C1564 C1565 1.392 . S
C1564 C1567 1.511 . S
C1565 C1561 1.376 . S
C1565 C1564 1.392 . S
C1565 H1577 0.929 . S
C1566 C1562 1.531 . S
C1566 H1578 0.960 . S
C1566 H1579 0.962 . S
C1566 H1580 0.960 . S
C1567 C1564 1.511 . S
C1567 H1581 0.961 . S
C1567 H1582 0.961 . S
C1567 H1583 0.961 . S
C1568 C1569 1.370 . S
C1568 C1570 1.363 . S
C1568 H1584 0.931 . S
C1569 C1568 1.370 . S
C1569 C1573 1.408 . S
C1570 C1568 1.363 . S
C1570 C1571 1.370 . S
C1570 C1574 1.524 . S
C1571 C1563 1.503 . S
C1571 C1570 1.370 . S
C1571 C1572 1.403 . S
C1572 C1571 1.403 . S
C1572 C1573 1.404 . S
C1572 C1575 1.539 . S
C1573 C1569 1.408 . S
C1573 C1572 1.404 . S
C1573 H1585 0.930 . S
C1574 C1570 1.524 . S
C1574 H1586 0.956 . S
C1574 H1587 0.961 . S
C1574 H1588 0.961 . S
C1575 C1572 1.539 . S
C1575 H1589 0.958 . S
C1575 H1590 0.961 . S
C1575 H1591 0.960 . S
H1576 C1560 0.931 . S
H1577 C1565 0.929 . S
H1578 C1566 0.960 . S
H1579 C1566 0.962 . S
H1580 C1566 0.960 . S
H1581 C1567 0.961 . S
H1582 C1567 0.961 . S
H1583 C1567 0.961 . S
H1584 C1568 0.931 . S
H1585 C1573 0.930 . S
H1586 C1574 0.956 . S
H1587 C1574 0.961 . S
H1588 C1574 0.961 . S
H1589 C1575 0.958 . S
H1590 C1575 0.961 . S
H1591 C1575 0.960 . S
C1592 C1593 1.391 . S
C1592 C1594 1.394 . S
C1592 H1608 0.931 . S
C1593 C1592 1.391 . S
C1593 C1597 1.376 . S
C1594 C1592 1.394 . S
C1594 C1595 1.369 . S
C1594 C1598 1.531 . S
C1595 C1594 1.369 . S
C1595 C1596 1.410 . S
C1595 C1603 1.503 . S
C1596 C1595 1.410 . S
C1596 C1597 1.392 . S
C1596 C1599 1.511 . S
C1597 C1593 1.376 . S
C1597 C1596 1.392 . S
C1597 H1609 0.929 . S
C1598 C1594 1.531 . S
C1598 H1610 0.960 . S
C1598 H1611 0.962 . S
C1598 H1612 0.960 . S
C1599 C1596 1.511 . S
C1599 H1613 0.961 . S
C1599 H1614 0.961 . S
C1599 H1615 0.961 . S
C1600 C1601 1.370 . S
C1600 C1602 1.363 . S
C1600 H1616 0.931 . S
C1601 C1600 1.370 . S
C1601 C1605 1.408 . S
C1602 C1600 1.363 . S
C1602 C1603 1.370 . S
C1602 C1606 1.524 . S
C1603 C1595 1.503 . S
C1603 C1602 1.370 . S
C1603 C1604 1.403 . S
C1604 C1603 1.403 . S
C1604 C1605 1.404 . S
C1604 C1607 1.539 . S
C1605 C1601 1.408 . S
C1605 C1604 1.404 . S
C1605 H1617 0.930 . S
C1606 C1602 1.524 . S
C1606 H1618 0.956 . S
C1606 H1619 0.961 . S
C1606 H1620 0.961 . S
C1607 C1604 1.539 . S
C1607 H1621 0.958 . S
C1607 H1622 0.961 . S
C1607 H1623 0.960 . S
H1608 C1592 0.931 . S
H1609 C1597 0.929 . S
H1610 C1598 0.960 . S
H1611 C1598 0.962 . S
H1612 C1598 0.960 . S
H1613 C1599 0.961 . S
H1614 C1599 0.961 . S
H1615 C1599 0.961 . S
H1616 C1600 0.931 . S
H1617 C1605 0.930 . S
H1618 C1606 0.956 . S
H1619 C1606 0.961 . S
H1620 C1606 0.961 . S
H1621 C1607 0.958 . S
H1622 C1607 0.961 . S
H1623 C1607 0.960 . S
C1624 C1625 1.391 . S
C1624 C1626 1.394 . S
C1624 H1640 0.931 . S
C1625 C1624 1.391 . S
C1625 C1629 1.376 . S
C1626 C1624 1.394 . S
C1626 C1627 1.369 . S
C1626 C1630 1.531 . S
C1627 C1626 1.369 . S
C1627 C1628 1.410 . S
C1627 C1635 1.503 . S
C1628 C1627 1.410 . S
C1628 C1629 1.392 . S
C1628 C1631 1.511 . S
C1629 C1625 1.376 . S
C1629 C1628 1.392 . S
C1629 H1641 0.929 . S
C1630 C1626 1.531 . S
C1630 H1642 0.960 . S
C1630 H1643 0.962 . S
C1630 H1644 0.960 . S
C1631 C1628 1.511 . S
C1631 H1645 0.961 . S
C1631 H1646 0.961 . S
C1631 H1647 0.961 . S
C1632 C1633 1.370 . S
C1632 C1634 1.363 . S
C1632 H1648 0.931 . S
C1633 C1632 1.370 . S
C1633 C1637 1.408 . S
C1634 C1632 1.363 . S
C1634 C1635 1.370 . S
C1634 C1638 1.524 . S
C1635 C1627 1.503 . S
C1635 C1634 1.370 . S
C1635 C1636 1.403 . S
C1636 C1635 1.403 . S
C1636 C1637 1.404 . S
C1636 C1639 1.539 . S
C1637 C1633 1.408 . S
C1637 C1636 1.404 . S
C1637 H1649 0.930 . S
C1638 C1634 1.524 . S
C1638 H1650 0.956 . S
C1638 H1651 0.961 . S
C1638 H1652 0.961 . S
C1639 C1636 1.539 . S
C1639 H1653 0.958 . S
C1639 H1654 0.961 . S
C1639 H1655 0.960 . S
H1640 C1624 0.931 . S
H1641 C1629 0.929 . S
H1642 C1630 0.960 . S
H1643 C1630 0.962 . S
H1644 C1630 0.960 . S
H1645 C1631 0.961 . S
H1646 C1631 0.961 . S
H1647 C1631 0.961 . S
H1648 C1632 0.931 . S
H1649 C1637 0.930 . S
H1650 C1638 0.956 . S
H1651 C1638 0.961 . S
H1652 C1638 0.961 . S
H1653 C1639 0.958 . S
H1654 C1639 0.961 . S
H1655 C1639 0.960 . S
C1656 C1657 1.391 . S
C1656 C1658 1.394 . S
C1656 H1672 0.931 . S
C1657 C1656 1.391 . S
C1657 C1661 1.376 . S
C1658 C1656 1.394 . S
C1658 C1659 1.369 . S
C1658 C1662 1.531 . S
C1659 C1658 1.369 . S
C1659 C1660 1.410 . S
C1659 C1667 1.503 . S
C1660 C1659 1.410 . S
C1660 C1661 1.392 . S
C1660 C1663 1.511 . S
C1661 C1657 1.376 . S
C1661 C1660 1.392 . S
C1661 H1673 0.929 . S
C1662 C1658 1.531 . S
C1662 H1674 0.960 . S
C1662 H1675 0.962 . S
C1662 H1676 0.960 . S
C1663 C1660 1.511 . S
C1663 H1677 0.961 . S
C1663 H1678 0.961 . S
C1663 H1679 0.961 . S
C1664 C1665 1.370 . S
C1664 C1666 1.363 . S
C1664 H1680 0.931 . S
C1665 C1664 1.370 . S
C1665 C1669 1.408 . S
C1666 C1664 1.363 . S
C1666 C1667 1.370 . S
C1666 C1670 1.524 . S
C1667 C1659 1.503 . S
C1667 C1666 1.370 . S
C1667 C1668 1.403 . S
C1668 C1667 1.403 . S
C1668 C1669 1.404 . S
C1668 C1671 1.539 . S
C1669 C1665 1.408 . S
C1669 C1668 1.404 . S
C1669 H1681 0.930 . S
C1670 C1666 1.524 . S
C1670 H1682 0.956 . S
C1670 H1683 0.961 . S
C1670 H1684 0.961 . S
C1671 C1668 1.539 . S
C1671 H1685 0.958 . S
C1671 H1686 0.961 . S
C1671 H1687 0.960 . S
H1672 C1656 0.931 . S
H1673 C1661 0.929 . S
H1674 C1662 0.960 . S
H1675 C1662 0.962 . S
H1676 C1662 0.960 . S
H1677 C1663 0.961 . S
H1678 C1663 0.961 . S
H1679 C1663 0.961 . S
H1680 C1664 0.931 . S
H1681 C1669 0.930 . S
H1682 C1670 0.956 . S
H1683 C1670 0.961 . S
H1684 C1670 0.961 . S
H1685 C1671 0.958 . S
H1686 C1671 0.961 . S
H1687 C1671 0.960 . S
C1688 C1689 1.391 . S
C1688 C1690 1.394 . S
C1688 H1704 0.931 . S
C1689 C1688 1.391 . S
C1689 C1693 1.376 . S
C1690 C1688 1.394 . S
C1690 C1691 1.369 . S
C1690 C1694 1.531 . S
C1691 C1690 1.369 . S
C1691 C1692 1.410 . S
C1691 C1699 1.503 . S
C1692 C1691 1.410 . S
C1692 C1693 1.392 . S
C1692 C1695 1.511 . S
C1693 C1689 1.376 . S
C1693 C1692 1.392 . S
C1693 H1705 0.929 . S
C1694 C1690 1.531 . S
C1694 H1706 0.960 . S
C1694 H1707 0.962 . S
C1694 H1708 0.960 . S
C1695 C1692 1.511 . S
C1695 H1709 0.961 . S
C1695 H1710 0.961 . S
C1695 H1711 0.961 . S
C1696 C1697 1.370 . S
C1696 C1698 1.363 . S
C1696 H1712 0.931 . S
C1697 C1696 1.370 . S
C1697 C1701 1.408 . S
C1698 C1696 1.363 . S
C1698 C1699 1.370 . S
C1698 C1702 1.524 . S
C1699 C1691 1.503 . S
C1699 C1698 1.370 . S
C1699 C1700 1.403 . S
C1700 C1699 1.403 . S
C1700 C1701 1.404 . S
C1700 C1703 1.539 . S
C1701 C1697 1.408 . S
C1701 C1700 1.404 . S
C1701 H1713 0.930 . S
C1702 C1698 1.524 . S
C1702 H1714 0.956 . S
C1702 H1715 0.961 . S
C1702 H1716 0.961 . S
C1703 C1700 1.539 . S
C1703 H1717 0.958 . S
C1703 H1718 0.961 . S
C1703 H1719 0.960 . S
H1704 C1688 0.931 . S
H1705 C1693 0.929 . S
H1706 C1694 0.960 . S
H1707 C1694 0.962 . S
H1708 C1694 0.960 . S
H1709 C1695 0.961 . S
H1710 C1695 0.961 . S
H1711 C1695 0.961 . S
H1712 C1696 0.931 . S
H1713 C1701 0.930 . S
H1714 C1702 0.956 . S
H1715 C1702 0.961 . S
H1716 C1702 0.961 . S
H1717 C1703 0.958 . S
H1718 C1703 0.961 . S
H1719 C1703 0.960 . S
C1720 C1721 1.391 . S
C1720 C1722 1.394 . S
C1720 H1736 0.931 . S
C1721 C1720 1.391 . S
C1721 C1725 1.376 . S
C1722 C1720 1.394 . S
C1722 C1723 1.369 . S
C1722 C1726 1.531 . S
C1723 C1722 1.369 . S
C1723 C1724 1.410 . S
C1723 C1731 1.503 . S
C1724 C1723 1.410 . S
C1724 C1725 1.392 . S
C1724 C1727 1.511 . S
C1725 C1721 1.376 . S
C1725 C1724 1.392 . S
C1725 H1737 0.929 . S
C1726 C1722 1.531 . S
C1726 H1738 0.960 . S
C1726 H1739 0.962 . S
C1726 H1740 0.960 . S
C1727 C1724 1.511 . S
C1727 H1741 0.961 . S
C1727 H1742 0.961 . S
C1727 H1743 0.961 . S
C1728 C1729 1.370 . S
C1728 C1730 1.363 . S
C1728 H1744 0.931 . S
C1729 C1728 1.370 . S
C1729 C1733 1.408 . S
C1730 C1728 1.363 . S
C1730 C1731 1.370 . S
C1730 C1734 1.524 . S
C1731 C1723 1.503 . S
C1731 C1730 1.370 . S
C1731 C1732 1.403 . S
C1732 C1731 1.403 . S
C1732 C1733 1.404 . S
C1732 C1735 1.539 . S
C1733 C1729 1.408 . S
C1733 C1732 1.404 . S
C1733 H1745 0.930 . S
C1734 C1730 1.524 . S
C1734 H1746 0.956 . S
C1734 H1747 0.961 . S
C1734 H1748 0.961 . S
C1735 C1732 1.539 . S
C1735 H1749 0.958 . S
C1735 H1750 0.961 . S
C1735 H1751 0.960 . S
H1736 C1720 0.931 . S
H1737 C1725 0.929 . S
H1738 C1726 0.960 . S
H1739 C1726 0.962 . S
H1740 C1726 0.960 . S
H1741 C1727 0.961 . S
H1742 C1727 0.961 . S
H1743 C1727 0.961 . S
H1744 C1728 0.931 . S
H1745 C1733 0.930 . S
H1746 C1734 0.956 . S
H1747 C1734 0.961 . S
H1748 C1734 0.961 . S
H1749 C1735 0.958 . S
H1750 C1735 0.961 . S
H1751 C1735 0.960 . S
C1752 C1753 1.391 . S
C1752 C1754 1.394 . S
C1752 H1768 0.931 . S
C1753 C1752 1.391 . S
C1753 C1757 1.376 . S
C1754 C1752 1.394 . S
C1754 C1755 1.369 . S
C1754 C1758 1.531 . S
C1755 C1754 1.369 . S
C1755 C1756 1.410 . S
C1755 C1763 1.503 . S
C1756 C1755 1.410 . S
C1756 C1757 1.392 . S
C1756 C1759 1.511 . S
C1757 C1753 1.376 . S
C1757 C1756 1.392 . S
C1757 H1769 0.929 . S
C1758 C1754 1.531 . S
C1758 H1770 0.960 . S
C1758 H1771 0.962 . S
C1758 H1772 0.960 . S
C1759 C1756 1.511 . S
C1759 H1773 0.961 . S
C1759 H1774 0.961 . S
C1759 H1775 0.961 . S
C1760 C1761 1.370 . S
C1760 C1762 1.363 . S
C1760 H1776 0.931 . S
C1761 C1760 1.370 . S
C1761 C1765 1.408 . S
C1762 C1760 1.363 . S
C1762 C1763 1.370 . S
C1762 C1766 1.524 . S
C1763 C1755 1.503 . S
C1763 C1762 1.370 . S
C1763 C1764 1.403 . S
C1764 C1763 1.403 . S
C1764 C1765 1.404 . S
C1764 C1767 1.539 . S
C1765 C1761 1.408 . S
C1765 C1764 1.404 . S
C1765 H1777 0.930 . S
C1766 C1762 1.524 . S
C1766 H1778 0.956 . S
C1766 H1779 0.961 . S
C1766 H1780 0.961 . S
C1767 C1764 1.539 . S
C1767 H1781 0.958 . S
C1767 H1782 0.961 . S
C1767 H1783 0.960 . S
H1768 C1752 0.931 . S
H1769 C1757 0.929 . S
H1770 C1758 0.960 . S
H1771 C1758 0.962 . S
H1772 C1758 0.960 . S
H1773 C1759 0.961 . S
H1774 C1759 0.961 . S
H1775 C1759 0.961 . S
H1776 C1760 0.931 . S
H1777 C1765 0.930 . S
H1778 C1766 0.956 . S
H1779 C1766 0.961 . S
H1780 C1766 0.961 . S
H1781 C1767 0.958 . S
H1782 C1767 0.961 . S
H1783 C1767 0.960 . S
C1784 C1785 1.391 . S
C1784 C1786 1.394 . S
C1784 H1800 0.931 . S
C1785 C1784 1.391 . S
C1785 C1789 1.376 . S
C1786 C1784 1.394 . S
C1786 C1787 1.369 . S
C1786 C1790 1.531 . S
C1787 C1786 1.369 . S
C1787 C1788 1.410 . S
C1787 C1795 1.503 . S
C1788 C1787 1.410 . S
C1788 C1789 1.392 . S
C1788 C1791 1.511 . S
C1789 C1785 1.376 . S
C1789 C1788 1.392 . S
C1789 H1801 0.929 . S
C1790 C1786 1.531 . S
C1790 H1802 0.960 . S
C1790 H1803 0.962 . S
C1790 H1804 0.960 . S
C1791 C1788 1.511 . S
C1791 H1805 0.961 . S
C1791 H1806 0.961 . S
C1791 H1807 0.961 . S
C1792 C1793 1.370 . S
C1792 C1794 1.363 . S
C1792 H1808 0.931 . S
C1793 C1792 1.370 . S
C1793 C1797 1.408 . S
C1794 C1792 1.363 . S
C1794 C1795 1.370 . S
C1794 C1798 1.524 . S
C1795 C1787 1.503 . S
C1795 C1794 1.370 . S
C1795 C1796 1.403 . S
C1796 C1795 1.403 . S
C1796 C1797 1.404 . S
C1796 C1799 1.539 . S
C1797 C1793 1.408 . S
C1797 C1796 1.404 . S
C1797 H1809 0.930 . S
C1798 C1794 1.524 . S
C1798 H1810 0.956 . S
C1798 H1811 0.961 . S
C1798 H1812 0.961 . S
C1799 C1796 1.539 . S
C1799 H1813 0.958 . S
C1799 H1814 0.961 . S
C1799 H1815 0.960 . S
H1800 C1784 0.931 . S
H1801 C1789 0.929 . S
H1802 C1790 0.960 . S
H1803 C1790 0.962 . S
H1804 C1790 0.960 . S
H1805 C1791 0.961 . S
H1806 C1791 0.961 . S
H1807 C1791 0.961 . S
H1808 C1792 0.931 . S
H1809 C1797 0.930 . S
H1810 C1798 0.956 . S
H1811 C1798 0.961 . S
H1812 C1798 0.961 . S
H1813 C1799 0.958 . S
H1814 C1799 0.961 . S
H1815 C1799 0.960 . S
C1816 C1817 1.391 . S
C1816 C1818 1.394 . S
C1816 H1832 0.931 . S
C1817 C1816 1.391 . S
C1817 C1821 1.376 . S
C1818 C1816 1.394 . S
C1818 C1819 1.369 . S
C1818 C1822 1.531 . S
C1819 C1818 1.369 . S
C1819 C1820 1.410 . S
C1819 C1827 1.503 . S
C1820 C1819 1.410 . S
C1820 C1821 1.392 . S
C1820 C1823 1.511 . S
C1821 C1817 1.376 . S
C1821 C1820 1.392 . S
C1821 H1833 0.929 . S
C1822 C1818 1.531 . S
C1822 H1834 0.960 . S
C1822 H1835 0.962 . S
C1822 H1836 0.960 . S
C1823 C1820 1.511 . S
C1823 H1837 0.961 . S
C1823 H1838 0.961 . S
C1823 H1839 0.961 . S
C1824 C1825 1.370 . S
C1824 C1826 1.363 . S
C1824 H1840 0.931 . S
C1825 C1824 1.370 . S
C1825 C1829 1.408 . S
C1826 C1824 1.363 . S
C1826 C1827 1.370 . S
C1826 C1830 1.524 . S
C1827 C1819 1.503 . S
C1827 C1826 1.370 . S
C1827 C1828 1.403 . S
C1828 C1827 1.403 . S
C1828 C1829 1.404 . S
C1828 C1831 1.539 . S
C1829 C1825 1.408 . S
C1829 C1828 1.404 . S
C1829 H1841 0.930 . S
C1830 C1826 1.524 . S
C1830 H1842 0.956 . S
C1830 H1843 0.961 . S
C1830 H1844 0.961 . S
C1831 C1828 1.539 . S
C1831 H1845 0.958 . S
C1831 H1846 0.961 . S
C1831 H1847 0.960 . S
H1832 C1816 0.931 . S
H1833 C1821 0.929 . S
H1834 C1822 0.960 . S
H1835 C1822 0.962 . S
H1836 C1822 0.960 . S
H1837 C1823 0.961 . S
H1838 C1823 0.961 . S
H1839 C1823 0.961 . S
H1840 C1824 0.931 . S
H1841 C1829 0.930 . S
H1842 C1830 0.956 . S
H1843 C1830 0.961 . S
H1844 C1830 0.961 . S
H1845 C1831 0.958 . S
H1846 C1831 0.961 . S
H1847 C1831 0.960 . S
C313 C200 1.302 . S
C321 C5 1.323 . S
C345 C18 1.307 . S
C353 C213 1.325 . S
C377 C31 1.336 . S
C385 C226 1.338 . S
C409 C44 1.364 . S
C417 C161 1.347 . S
C441 C174 1.326 . S
C449 C57 1.329 . S
C473 C70 1.327 . S
C481 C187 1.335 . S
C505 C278 1.295 . S
C513 C83 1.319 . S
C537 C96 1.301 . S
C545 C291 1.323 . S
C569 C109 1.339 . S
C577 C304 1.339 . S
C601 C239 1.331 . S
C609 C122 1.336 . S
C633 C135 1.296 . S
C641 C252 1.320 . S
C665 C265 1.350 . S
C673 C148 1.343 . S
C697 C10 1.153 . S
C705 C309 1.161 . S
C729 C244 1.141 . S
C737 C23 1.157 . S
C761 C36 1.184 . S
C769 C257 1.176 . S
C793 C270 1.162 . S
C801 C49 1.168 . S
C825 C62 1.142 . S
C833 C283 1.157 . S
C857 C296 1.169 . S
C865 C75 1.167 . S
C889 C88 1.142 . S
C897 C179 1.158 . S
C921 C192 1.165 . S
C929 C101 1.166 . S
C953 C205 1.170 . S
C961 C114 1.167 . S
C985 C218 1.146 . S
C993 C127 1.158 . S
C1017 C140 1.178 . S
C1025 C231 1.174 . S
C1049 C153 1.148 . S
C1057 C166 1.159 . S
C1081 C91 1.171 . S
C1089 C0 1.138 . S
C1113 C104 1.169 . S
C1121 C13 1.138 . S
C1145 C117 1.156 . S
C1153 C26 1.144 . S
C1177 C130 1.169 . S
C1185 C39 1.138 . S
C1209 C52 1.153 . S
C1217 C143 1.145 . S
C1241 C65 1.154 . S
C1249 C78 1.145 . S
C1273 C156 1.132 . S
C1281 C247 1.151 . S
C1305 C169 1.120 . S
C1313 C260 1.159 . S
C1337 C273 1.168 . S
C1345 C182 1.138 . S
C1369 C286 1.168 . S
C1377 C195 1.141 . S
C1401 C299 1.123 . S
C1409 C208 1.156 . S
C1433 C234 1.142 . S
C1441 C221 1.153 . S
C1465 C8 1.423 . S
C1473 C255 1.411 . S
C1497 C268 1.371 . S
C1505 C21 1.391 . S
C1529 C34 1.431 . S
C1537 C281 1.416 . S
C1561 C294 1.389 . S
C1569 C47 1.401 . S
C1593 C60 1.431 . S
C1601 C307 1.416 . S
C1625 C242 1.408 . S
C1633 C73 1.404 . S
C1657 C86 1.423 . S
C1665 C229 1.411 . S
C1689 C164 1.422 . S
C1697 C99 1.411 . S
C1721 C112 1.429 . S
C1729 C177 1.416 . S
C1753 C125 1.430 . S
C1761 C190 1.415 . S
C1785 C138 1.426 . S
C1793 C203 1.415 . S
C1817 C151 1.413 . S
C1825 C216 1.411 . S
