# Generated by pormake.
# Topology whw, (6)-cn, num edge types: 1
# Building blocks:
#     Node 0, Type 0, BuildingBlock: PAMTOO_clean_sbu_0, # of connection points: 6
#     Node 1, Type 0, BuildingBlock: PAMTOO_clean_sbu_0, # of connection points: 6
#     Node 2, Type 0, BuildingBlock: PAMTOO_clean_sbu_0, # of connection points: 6
#     Node 3, Type 0, BuildingBlock: PAMTOO_clean_sbu_0, # of connection points: 6
#     Node 4, Type 0, BuildingBlock: PAMTOO_clean_sbu_0, # of connection points: 6
#     Node 5, Type 0, BuildingBlock: PAMTOO_clean_sbu_0, # of connection points: 6
#     Node 6, Type 0, BuildingBlock: PAMTOO_clean_sbu_0, # of connection points: 6
#     Node 7, Type 0, BuildingBlock: PAMTOO_clean_sbu_0, # of connection points: 6
#     Node 8, Type 0, BuildingBlock: PAMTOO_clean_sbu_0, # of connection points: 6
#     Node 9, Type 0, BuildingBlock: PAMTOO_clean_sbu_0, # of connection points: 6
#     Node 10, Type 0, BuildingBlock: PAMTOO_clean_sbu_0, # of connection points: 6
#     Node 11, Type 0, BuildingBlock: PAMTOO_clean_sbu_0, # of connection points: 6
#     Node 12, Type 0, BuildingBlock: PAMTOO_clean_sbu_0, # of connection points: 6
#     Node 13, Type 0, BuildingBlock: PAMTOO_clean_sbu_0, # of connection points: 6
#     Node 14, Type 0, BuildingBlock: PAMTOO_clean_sbu_0, # of connection points: 6
#     Node 15, Type 0, BuildingBlock: PAMTOO_clean_sbu_0, # of connection points: 6
#     Edge 16, Type (0, 0), BuildingBlock: EZIPEK_clean_linker_0, # of connection points: 2
#     Edge 17, Type (0, 0), BuildingBlock: EZIPEK_clean_linker_0, # of connection points: 2
#     Edge 18, Type (0, 0), BuildingBlock: EZIPEK_clean_linker_0, # of connection points: 2
#     Edge 19, Type (0, 0), BuildingBlock: EZIPEK_clean_linker_0, # of connection points: 2
#     Edge 20, Type (0, 0), BuildingBlock: EZIPEK_clean_linker_0, # of connection points: 2
#     Edge 21, Type (0, 0), BuildingBlock: EZIPEK_clean_linker_0, # of connection points: 2
#     Edge 22, Type (0, 0), BuildingBlock: EZIPEK_clean_linker_0, # of connection points: 2
#     Edge 23, Type (0, 0), BuildingBlock: EZIPEK_clean_linker_0, # of connection points: 2
#     Edge 24, Type (0, 0), BuildingBlock: EZIPEK_clean_linker_0, # of connection points: 2
#     Edge 25, Type (0, 0), BuildingBlock: EZIPEK_clean_linker_0, # of connection points: 2
#     Edge 26, Type (0, 0), BuildingBlock: EZIPEK_clean_linker_0, # of connection points: 2
#     Edge 27, Type (0, 0), BuildingBlock: EZIPEK_clean_linker_0, # of connection points: 2
#     Edge 28, Type (0, 0), BuildingBlock: EZIPEK_clean_linker_0, # of connection points: 2
#     Edge 29, Type (0, 0), BuildingBlock: EZIPEK_clean_linker_0, # of connection points: 2
#     Edge 30, Type (0, 0), BuildingBlock: EZIPEK_clean_linker_0, # of connection points: 2
#     Edge 31, Type (0, 0), BuildingBlock: EZIPEK_clean_linker_0, # of connection points: 2
#     Edge 32, Type (0, 0), BuildingBlock: EZIPEK_clean_linker_0, # of connection points: 2
#     Edge 33, Type (0, 0), BuildingBlock: EZIPEK_clean_linker_0, # of connection points: 2
#     Edge 34, Type (0, 0), BuildingBlock: EZIPEK_clean_linker_0, # of connection points: 2
#     Edge 35, Type (0, 0), BuildingBlock: EZIPEK_clean_linker_0, # of connection points: 2
#     Edge 36, Type (0, 0), BuildingBlock: EZIPEK_clean_linker_0, # of connection points: 2
#     Edge 37, Type (0, 0), BuildingBlock: EZIPEK_clean_linker_0, # of connection points: 2
#     Edge 38, Type (0, 0), BuildingBlock: EZIPEK_clean_linker_0, # of connection points: 2
#     Edge 39, Type (0, 0), BuildingBlock: EZIPEK_clean_linker_0, # of connection points: 2
#     Edge 40, Type (0, 0), BuildingBlock: EZIPEK_clean_linker_0, # of connection points: 2
#     Edge 41, Type (0, 0), BuildingBlock: EZIPEK_clean_linker_0, # of connection points: 2
#     Edge 42, Type (0, 0), BuildingBlock: EZIPEK_clean_linker_0, # of connection points: 2
#     Edge 43, Type (0, 0), BuildingBlock: EZIPEK_clean_linker_0, # of connection points: 2
#     Edge 44, Type (0, 0), BuildingBlock: EZIPEK_clean_linker_0, # of connection points: 2
#     Edge 45, Type (0, 0), BuildingBlock: EZIPEK_clean_linker_0, # of connection points: 2
#     Edge 46, Type (0, 0), BuildingBlock: EZIPEK_clean_linker_0, # of connection points: 2
#     Edge 47, Type (0, 0), BuildingBlock: EZIPEK_clean_linker_0, # of connection points: 2
#     Edge 48, Type (0, 0), BuildingBlock: EZIPEK_clean_linker_0, # of connection points: 2
#     Edge 49, Type (0, 0), BuildingBlock: EZIPEK_clean_linker_0, # of connection points: 2
#     Edge 50, Type (0, 0), BuildingBlock: EZIPEK_clean_linker_0, # of connection points: 2
#     Edge 51, Type (0, 0), BuildingBlock: EZIPEK_clean_linker_0, # of connection points: 2
#     Edge 52, Type (0, 0), BuildingBlock: EZIPEK_clean_linker_0, # of connection points: 2
#     Edge 53, Type (0, 0), BuildingBlock: EZIPEK_clean_linker_0, # of connection points: 2
#     Edge 54, Type (0, 0), BuildingBlock: EZIPEK_clean_linker_0, # of connection points: 2
#     Edge 55, Type (0, 0), BuildingBlock: EZIPEK_clean_linker_0, # of connection points: 2
#     Edge 56, Type (0, 0), BuildingBlock: EZIPEK_clean_linker_0, # of connection points: 2
#     Edge 57, Type (0, 0), BuildingBlock: EZIPEK_clean_linker_0, # of connection points: 2
#     Edge 58, Type (0, 0), BuildingBlock: EZIPEK_clean_linker_0, # of connection points: 2
#     Edge 59, Type (0, 0), BuildingBlock: EZIPEK_clean_linker_0, # of connection points: 2
#     Edge 60, Type (0, 0), BuildingBlock: EZIPEK_clean_linker_0, # of connection points: 2
#     Edge 61, Type (0, 0), BuildingBlock: EZIPEK_clean_linker_0, # of connection points: 2
#     Edge 62, Type (0, 0), BuildingBlock: EZIPEK_clean_linker_0, # of connection points: 2
#     Edge 63, Type (0, 0), BuildingBlock: EZIPEK_clean_linker_0, # of connection points: 2
# Relax obj value: 1.247
# Max RMSD: 0.204
# Mean RMSD: 0.204
data_MOF--net-whw--node1-PAMTOO_clean_sbu_0--edge1-EZIPEK_clean_linker_0
_symmetry_space_group_name_H-M    P1
_symmetry_Int_Tables_number       1
_symmetry_cell_setting            triclinic
loop_
_symmetry_equiv_pos_as_xyz
'x, y, z'
_cell_length_a     38.74712
_cell_length_b     38.190592
_cell_length_c     20.535534
_cell_angle_alpha  90.005783
_cell_angle_beta   89.943068
_cell_angle_gamma 89.823285
loop_
_atom_site_label
_atom_site_type_symbol
_atom_site_fract_x
_atom_site_fract_y
_atom_site_fract_z
_atom_type_partial_charge
Dy0 Dy -0.04522 0.1043 0.36966 0.0
Dy1 Dy 0.01539 0.0791 0.31528 0.0
C2 C 0.02653 0.15112 0.36135 0.0
O3 O 0.93842 0.13411 0.28205 0.0
O4 O -0.02107 0.10219 0.22867 0.0
O5 O 0.9265 0.08673 0.45228 0.0
O6 O 0.90301 0.12435 0.38486 0.0
O7 O -0.01006 0.03286 0.35719 0.0
O8 O 0.94807 0.05526 0.30557 0.0
O9 O 0.03652 0.08808 0.42184 0.0
O10 O -0.01219 0.11287 0.46111 0.0
O11 O 0.04685 0.03321 0.30396 0.0
O12 O 0.05136 0.07658 0.23562 0.0
C13 C -0.04849 0.12445 0.22624 0.0
O14 O -0.00768 0.14976 0.36939 0.0
O15 O 0.04396 0.12459 0.34132 0.0
C16 C 0.86865 0.07848 0.42819 0.0
C17 C 0.82363 0.02612 0.46962 0.0
C18 C 0.85118 0.01747 0.42846 0.0
C19 C 0.87377 0.04361 0.40801 0.0
C20 C 0.83778 0.08787 0.45843 0.0
C21 C 0.81502 0.06181 0.47824 0.0
C22 C 0.89814 0.1022 0.43271 0.0
C23 C -0.03677 0.02621 0.32264 0.0
C24 C 0.02021 0.10361 0.47161 0.0
C25 C 0.0579 0.01894 1.19434 0.0
C26 C 0.09202 -0.02265 1.10481 0.0
C27 C 0.07769 -0.0378 1.15976 0.0
C28 C 0.06241 -0.01676 1.20707 0.0
C29 C 0.06099 0.0307 1.13002 0.0
C30 C 0.0788 0.01001 1.08503 0.0
C31 C 0.05896 0.04398 0.24835 0.0
H32 H 0.85766 -0.00964 0.41891 0.0
H33 H 0.89732 0.03589 0.38367 0.0
H34 H 0.83314 0.1147 0.47333 0.0
H35 H 0.79331 0.06949 0.50821 0.0
H36 H 0.08433 0.9359 1.16992 0.0
H37 H 0.05813 -0.02735 0.25528 0.0
H38 H 0.05392 0.05719 1.11711 0.0
H39 H 0.08669 0.02171 1.03945 0.0
Dy40 Dy 0.1017 0.68418 0.61392 0.0
Dy41 Dy 0.06823 0.73804 0.58563 0.0
C42 C 0.03659 0.6742 0.67798 0.0
O43 O 0.06724 0.65774 0.53093 0.0
O44 O 0.04771 0.70897 0.49174 0.0
O45 O 0.13028 0.63635 0.61446 0.0
O46 O 0.15426 0.68425 0.64986 0.0
O47 O 0.12916 0.74206 0.58388 0.0
O48 O 0.12399 0.70145 0.51743 0.0
O49 O 0.04537 0.74719 0.68286 0.0
O50 O 0.09479 0.72262 0.7107 0.0
O51 O 0.0872 0.78834 0.6085 0.0
O52 O 0.03672 0.7832 0.5624 0.0
C53 C 0.04878 0.67395 0.48422 0.0
O54 O 0.06469 0.65643 0.67189 0.0
O55 O 0.03232 0.7038 0.64509 0.0
C56 C 0.17277 0.6302 0.6921 0.0
C57 C 0.16928 0.56958 0.76426 0.0
C58 C 0.15591 0.60075 0.7905 0.0
C59 C 0.15747 0.63132 0.75387 0.0
C60 C 0.19265 0.60124 0.67334 0.0
C61 C 0.19076 0.57059 0.70955 0.0
C62 C 0.1577 0.65065 0.64018 0.0
C63 C 0.14451 0.72601 0.53519 0.0
C64 C 0.06765 0.74331 0.72883 0.0
C65 C 0.07322 0.82826 0.53345 0.0
C66 C 0.08274 0.85064 0.32682 0.0
C67 C 0.13043 0.82077 0.39573 0.0
C68 C 0.11618 0.80952 0.48791 0.0
C69 C 0.03557 0.85824 0.49397 0.0
C70 C 0.03274 0.87152 0.39737 0.0
C71 C 0.06132 0.80454 0.58162 0.0
H72 H 0.13944 0.60015 0.83318 0.0
H73 H 0.14211 0.65371 0.76878 0.0
H74 H 0.20462 0.60032 0.62561 0.0
H75 H 0.20126 0.54663 0.68927 0.0
H76 H 0.15511 0.80807 0.37958 0.0
H77 H 0.13122 0.79101 0.51283 0.0
H78 H 0.02855 0.86835 0.44956 0.0
H79 H 0.00938 0.88261 0.3711 0.0
Dy80 Dy 0.46306 0.84131 0.8613 0.0
Dy81 Dy 0.39347 0.81473 0.81977 0.0
C82 C 0.44789 0.7668 0.89633 0.0
O83 O 0.48076 0.80339 0.77897 0.0
O84 O 0.42805 0.79641 0.73118 0.0
O85 O 0.51821 0.84577 0.86272 0.0
O86 O 0.4856 0.88639 0.90644 0.0
O87 O 0.39473 0.87524 0.80266 0.0
O88 O 0.44948 0.87402 0.776 0.0
O89 O 0.38838 0.80155 0.92424 0.0
O90 O 0.429 0.83843 0.95878 0.0
O91 O 0.34023 0.82877 0.84095 0.0
O92 O 0.35169 0.78176 0.78875 0.0
C93 C 0.46238 0.79084 0.72954 0.0
O94 O 0.46388 0.79447 0.91564 0.0
O95 O 0.42279 0.76737 0.85343 0.0
C96 C 0.54448 0.886 0.93249 0.0
C97 C 0.60212 0.90058 1.00728 0.0
C98 C 0.57815 0.87537 1.02814 0.0
C99 C 0.54947 0.86782 0.99052 0.0
C100 C 0.56734 0.91237 0.91298 0.0
C101 C 0.59631 0.9197 0.95045 0.0
C102 C 0.51675 0.87681 0.88941 0.0
C103 C 0.42128 0.89192 0.77723 0.0
C104 C 0.40266 0.81671 0.97343 0.0
C105 C 0.3082 0.81658 0.74823 0.0
C106 C 0.345 0.83985 0.55882 0.0
C107 C 0.34879 0.87719 0.64303 0.0
C108 C 0.3285 0.86298 0.72777 0.0
C109 C 0.29997 0.77683 0.68762 0.0
C110 C 0.31703 0.775 0.59442 0.0
C111 C 0.32773 0.80418 0.80408 0.0
H112 H 0.58192 0.86116 1.073 0.0
H113 H 0.53168 0.84756 1.00582 0.0
H114 H 0.56323 0.92659 0.86797 0.0
H115 H 0.61447 0.93944 0.93459 0.0
H116 H 0.35908 0.90364 0.63865 0.0
H117 H 0.33015 0.88093 0.76765 0.0
H118 H 0.30503 0.76961 0.64035 0.0
H119 H 0.31683 0.75269 0.55814 0.0
Dy120 Dy 0.33137 0.2298 1.09197 0.0
Dy121 Dy 0.37047 0.17761 1.06644 0.0
C122 C 0.38986 0.24384 1.16832 0.0
O123 O 0.36564 0.25653 1.00995 0.0
O124 O 0.38733 0.20582 0.97136 0.0
O125 O 0.30357 0.2778 1.09204 0.0
O126 O 0.27678 0.22921 1.11508 0.0
O127 O 0.31054 0.17106 1.05353 0.0
O128 O 0.3182 0.21339 0.99116 0.0
O129 O 0.39085 0.1751 1.16585 0.0
O130 O 0.33631 0.18684 1.1822 0.0
O131 O 0.36018 0.12446 1.09431 0.0
O132 O 0.40755 0.13754 1.04205 0.0
C133 C 0.38367 0.24027 0.96283 0.0
O134 O 0.36072 0.25869 1.1599 0.0
O135 O 0.39954 0.2169 1.13079 0.0
C136 C 0.25764 0.28165 1.1652 0.0
C137 C 0.23737 0.31265 0.28143 0.0
C138 C 0.22346 0.2802 0.26383 0.0
C139 C 0.23431 0.26424 1.20625 0.0
C140 C 0.2664 0.31654 1.1778 0.0
C141 C 0.25687 0.33169 0.236 0.0
C142 C 0.27488 0.26342 1.11201 0.0
C143 C 0.29763 0.18851 1.00401 0.0
C144 C 0.36566 0.17176 1.20601 0.0
C145 C 0.37908 0.08626 1.01699 0.0
C146 C 0.33265 0.0725 0.82637 0.0
C147 C 0.30218 0.06922 0.92286 0.0
C148 C 0.32736 0.07857 1.00727 0.0
C149 C 0.41474 0.08858 0.94588 0.0
C150 C 0.40347 0.08749 0.84934 0.0
C151 C 0.38741 0.11241 1.06408 0.0
H152 H 0.20689 0.26598 0.29698 0.0
H153 H 0.22612 0.23773 1.19584 0.0
H154 H 0.28305 0.33123 1.14542 0.0
H155 H 0.26748 0.35715 0.24778 0.0
H156 H 0.27512 0.06199 0.92383 0.0
H157 H 0.31198 0.07956 1.05115 0.0
H158 H 0.41627 0.08808 0.89594 0.0
H159 H 0.42196 0.08654 0.80603 0.0
Dy160 Dy 0.9443 0.83602 1.07912 0.0
Dy161 Dy 0.02603 0.84234 1.12778 0.0
C162 C 0.00375 0.77972 1.1042 0.0
O163 O 0.92953 0.80641 1.16937 0.0
O164 O -0.01624 0.81844 1.21263 0.0
O165 O 0.89398 0.83406 1.03765 0.0
O166 O 0.92936 0.88148 1.02645 0.0
O167 O 0.00116 0.89584 1.1184 0.0
O168 O 0.94933 0.87843 1.15405 0.0
O169 O 0.03294 0.83427 1.01425 0.0
O170 O -0.0222 0.81633 0.98727 0.0
O171 O 0.05998 0.8812 1.16678 0.0
O172 O 0.08132 0.83286 1.1353 0.0
C173 C -0.04947 0.80462 1.22044 0.0
O174 O -0.00997 0.8082 1.08531 0.0
O175 O 0.03515 0.78562 1.11909 0.0
C176 C 0.87236 0.88488 0.98174 0.0
C177 C 0.81793 0.90078 0.90158 0.0
C178 C 0.85166 0.9054 0.87823 0.0
C179 C 0.87925 0.89753 0.9191 0.0
C180 C 0.83921 0.88658 1.00803 0.0
C181 C 0.8119 0.89555 0.96808 0.0
C182 C 0.89876 0.86694 1.01752 0.0
C183 C -0.02761 0.90308 1.14957 0.0
C184 C 0.01171 0.81851 0.97177 0.0
C185 C 0.10522 0.85961 0.22632 0.0
C186 C 0.08422 0.84841 0.42843 0.0
C187 C 0.08667 0.90083 0.37852 0.0
C188 C 0.09838 0.90197 0.28384 0.0
C189 C 0.10448 0.80926 0.25302 0.0
C190 C 0.09085 0.79203 0.34227 0.0
C191 C 0.08768 0.86236 1.16428 0.0
H192 H 0.85648 0.90963 0.82685 0.0
H193 H 0.90527 0.89718 0.89962 0.0
H194 H 0.83409 0.87787 1.05733 0.0
H195 H 0.78585 0.89231 0.98634 0.0
H196 H 0.08457 0.92576 0.40428 0.0
H197 H 0.09998 0.92774 0.26457 0.0
H198 H 0.09926 0.79416 0.29329 0.0
H199 H 0.08853 0.76421 0.36215 0.0
Dy200 Dy 0.33491 0.69795 0.3615 0.0
Dy201 Dy 0.36868 0.75618 0.3811 0.0
C202 C 0.39738 0.69128 0.28526 0.0
O203 O 0.37245 0.67604 0.44364 0.0
O204 O 0.39525 0.72842 0.46942 0.0
O205 O 0.31245 0.64702 0.36514 0.0
O206 O 0.28077 0.69185 0.33763 0.0
O207 O 0.30715 0.75616 0.3933 0.0
O208 O 0.31729 0.71601 0.45896 0.0
O209 O 0.38574 0.76166 0.28063 0.0
O210 O 0.33535 0.73622 0.2637 0.0
O211 O 0.35056 0.80829 0.35997 0.0
O212 O 0.40018 0.80111 0.4072 0.0
C213 C 0.39316 0.6945 0.48311 0.0
O214 O 0.37099 0.67273 0.30022 0.0
O215 O 0.40342 0.72186 0.31471 0.0
C216 C 0.26466 0.6354 0.30065 0.0
C217 C 0.2608 0.58557 1.20386 0.0
C218 C 0.25586 0.62097 1.18756 0.0
C219 C 0.25849 0.64621 0.23636 0.0
C220 C 0.26156 0.60002 0.31754 0.0
C221 C 0.25974 0.57498 0.26891 0.0
C222 C 0.28194 0.65803 0.34713 0.0
C223 C 0.2942 0.73829 0.44274 0.0
C224 C 0.36116 0.75688 0.23964 0.0
C225 C 0.36184 0.84186 0.4499 0.0
C226 C 0.33839 0.82089 0.65359 0.0
C227 C 0.29176 0.82256 0.55961 0.0
C228 C 0.31198 0.82883 0.46919 0.0
C229 C 0.39999 0.84919 0.51499 0.0
C230 C 0.39625 0.84034 0.61247 0.0
C231 C 0.37499 0.82308 0.39364 0.0
H232 H 0.25649 0.62925 1.1371 0.0
H233 H 0.26028 0.67354 1.22271 0.0
H234 H 0.26557 0.59148 0.36732 0.0
H235 H 0.26314 0.54765 0.28176 0.0
H236 H 0.26374 0.81577 0.56116 0.0
H237 H 0.29536 0.82591 0.42792 0.0
H238 H 0.40429 0.84724 0.56434 0.0
H239 H 0.41672 0.8426 0.65163 0.0
Dy240 Dy 0.46964 0.08827 0.57587 0.0
Dy241 Dy 0.39798 0.10146 0.61601 0.0
C242 C 0.43476 0.15797 0.5271 0.0
O243 O 0.48638 0.12416 0.65905 0.0
O244 O 0.43427 0.1192 0.70719 0.0
O245 O 0.52512 0.08835 0.56889 0.0
O246 O 0.49495 0.04274 0.53785 0.0
O247 O 0.40688 0.04291 0.60035 0.0
O248 O 0.45374 0.0502 0.65437 0.0
O249 O 0.38666 0.10863 0.51046 0.0
O250 O 0.43837 0.08894 0.47606 0.0
O251 O 0.34986 0.07352 0.61488 0.0
O252 O 0.35073 0.12656 0.65067 0.0
C253 C 0.4678 0.1294 0.71197 0.0
O254 O 0.46273 0.13851 0.52553 0.0
O255 O 0.4086 0.15092 0.5652 0.0
C256 C 0.55355 0.04484 0.507 0.0
C257 C 0.61103 0.03343 0.42947 0.0
C258 C 0.57823 0.03586 0.4007 0.0
C259 C 0.54935 0.04169 0.43963 0.0
C260 C 0.58573 0.03885 0.53592 0.0
C261 C 0.61452 0.03304 0.49715 0.0
C262 C 0.52554 0.05583 0.54878 0.0
C263 C 0.43016 0.02813 0.63666 0.0
C264 C 0.40629 0.10025 0.46136 0.0
C265 C 0.32584 0.08335 0.71353 0.0
C266 C 0.35908 0.07315 0.91455 0.0
C267 C 0.37771 0.03605 0.82989 0.0
C268 C 0.36288 0.04822 0.73918 0.0
C269 C 0.30014 0.11661 0.7734 0.0
C270 C 0.3109 0.12187 0.87081 0.0
C271 C 0.33416 0.09679 0.65009 0.0
H272 H 0.57549 0.03655 0.34819 0.0
H273 H 0.52437 0.04583 0.41715 0.0
H274 H 0.58894 0.04083 0.58823 0.0
H275 H 0.63982 0.03169 0.51947 0.0
H276 H 0.39568 0.01437 0.83719 0.0
H277 H 0.3754 0.03516 0.70113 0.0
H278 H 0.29996 0.12431 0.82169 0.0
H279 H 0.30116 0.1421 0.90657 0.0
Dy280 Dy 0.08964 0.22235 0.83895 0.0
Dy281 Dy 0.08123 0.15558 0.89651 0.0
C282 C 0.02158 0.18009 0.80539 0.0
O283 O 0.05778 0.24647 0.92129 0.0
O284 O 0.05794 0.19488 0.97482 0.0
O285 O 0.08977 0.27694 0.80794 0.0
O286 O 0.13555 0.24284 0.80062 0.0
O287 O 0.13818 0.16023 0.87805 0.0
O288 O 0.12926 0.21111 0.91852 0.0
O289 O 0.07644 0.1349 0.79111 0.0
O290 O 0.08586 0.18747 0.74384 0.0
O291 O 0.08575 0.09985 0.90933 0.0
O292 O 0.07453 0.1334 0.99211 0.0
C293 C 0.04965 0.229 0.9745 0.0
O294 O 0.03902 0.20915 0.79525 0.0
O295 O 0.03133 0.15694 0.84863 0.0
C296 C 0.1376 0.29477 0.74073 0.0
C297 C 0.17206 0.33639 0.64887 0.0
C298 C 0.17876 0.30026 0.65269 0.0
C299 C 0.1611 0.27955 0.69703 0.0
C300 C 0.13279 0.33092 0.74114 0.0
C301 C 0.1496 0.35156 0.69555 0.0
C302 C 0.12265 0.27424 0.79303 0.0
C303 C 0.15212 0.18696 0.90558 0.0
C304 C 0.07838 0.15339 0.73646 0.0
C305 C 0.11808 0.09199 1.00487 0.0
C306 C 0.17127 0.05282 1.05836 0.0
C307 C 0.17597 0.06891 0.99773 0.0
C308 C 0.14837 0.08633 0.96915 0.0
C309 C 0.11851 0.08661 1.07201 0.0
C310 C 0.14485 0.06637 1.09903 0.0
C311 C 0.08648 0.10339 0.97249 0.0
H312 H 0.19679 0.2875 0.62047 0.0
H313 H 0.16625 0.25164 0.69737 0.0
H314 H 0.11583 0.34322 0.77648 0.0
H315 H 0.14343 0.37921 0.69551 0.0
H316 H 0.19794 0.06266 0.96773 0.0
H317 H 0.14974 0.09272 0.91797 0.0
H318 H 0.09701 0.09489 1.10193 0.0
H319 H 0.14116 0.05711 1.14836 0.0
Dy320 Dy 0.83463 0.19212 0.85756 0.0
Dy321 Dy 0.84764 0.26193 0.90303 0.0
C322 C 0.90951 0.22082 0.84722 0.0
O323 O 0.86666 0.17333 0.94428 0.0
O324 O 0.86698 0.22708 0.99212 0.0
O325 O 0.83464 0.13631 0.84538 0.0
O326 O 0.79013 0.16803 0.81486 0.0
O327 O 0.78997 0.25138 0.89127 0.0
O328 O 0.80141 0.20461 0.94419 0.0
O329 O 0.86613 0.27202 0.79739 0.0
O330 O 0.84137 0.22345 0.75767 0.0
O331 O 0.84036 0.31718 0.88613 0.0
O332 O 0.8532 0.29818 0.98265 0.0
C333 C 0.87465 0.19266 0.99555 0.0
O334 O 0.88739 0.1976 0.82648 0.0
O335 O 0.90142 0.24779 0.88293 0.0
C336 C 0.79511 0.11075 0.77366 0.0
C337 C 0.78785 0.05687 0.68438 0.0
C338 C 0.79643 0.09068 0.66286 0.0
C339 C 0.80015 0.11767 0.70759 0.0
C340 C 0.78424 0.07767 0.79465 0.0
C341 C 0.78059 0.05064 0.74996 0.0
C342 C 0.80313 0.13657 0.8225 0.0
C343 C 0.77822 0.2277 0.93098 0.0
C344 C 0.85889 0.25314 0.74505 0.0
C345 C 0.81063 0.34266 0.97406 0.0
C346 C 0.7561 0.38193 1.0284 0.0
C347 C 0.76724 0.38855 0.96451 0.0
C348 C 0.7946 0.36934 0.93783 0.0
C349 C 0.79629 0.33286 1.03396 0.0
C350 C 0.76897 0.35184 1.06023 0.0
C351 C 0.84117 0.32423 0.94816 0.0
H352 H 0.80259 0.09558 0.61227 0.0
H353 H 0.80853 0.14327 0.69123 0.0
H354 H 0.78027 0.07234 0.84596 0.0
H355 H 0.77447 0.02451 0.76687 0.0
H356 H 0.75603 0.40947 0.93611 0.0
H357 H 0.80392 0.3761 0.88971 0.0
H358 H 0.80681 0.31126 1.06185 0.0
H359 H 0.76033 0.34463 1.10852 0.0
Dy360 Dy 0.58164 0.72032 0.36322 0.0
Dy361 Dy 0.56558 0.64783 0.40564 0.0
C362 C 0.51079 0.69213 0.32817 0.0
O363 O 0.54657 0.73477 0.4499 0.0
O364 O 0.54465 0.68021 0.49659 0.0
O365 O 0.58328 0.776 0.34748 0.0
O366 O 0.62923 0.74291 0.33264 0.0
O367 O 0.62443 0.65526 0.41938 0.0
O368 O 0.61509 0.70859 0.45018 0.0
O369 O 0.55524 0.63999 0.3011 0.0
O370 O 0.58194 0.68737 0.26394 0.0
O371 O 0.58473 0.59715 0.37674 0.0
O372 O 0.53835 0.60062 0.43498 0.0
C373 C 0.53667 0.7148 0.4997 0.0
O374 O 0.53231 0.71688 0.31336 0.0
O375 O 0.51591 0.67328 0.38005 0.0
C376 C 0.62975 0.79824 0.28565 0.0
C377 C 0.65496 0.84707 1.19792 0.0
C378 C 0.62755 0.82489 1.18024 0.0
C379 C 0.61481 0.80057 1.22414 0.0
C380 C 0.65858 0.81848 0.30192 0.0
C381 C 0.67131 0.84291 0.25791 0.0
C382 C 0.61637 0.77462 0.33397 0.0
C383 C 0.63764 0.68367 0.44502 0.0
C384 C 0.56639 0.65665 0.25113 0.0
C385 C 0.58027 0.56089 0.46466 0.0
C386 C 0.62138 0.57759 0.65927 0.0
C387 C 0.65371 0.58314 0.56479 0.0
C388 C 0.6294 0.57817 0.47843 0.0
C389 C 0.54507 0.54951 0.53361 0.0
C390 C 0.55262 0.55749 0.63062 0.0
C391 C 0.56324 0.58029 0.41364 0.0
H392 H 0.6156 0.82686 1.13291 0.0
H393 H 0.59316 0.78416 1.21071 0.0
H394 H 0.67075 0.81588 0.34919 0.0
H395 H 0.69294 0.85927 0.27132 0.0
H396 H 0.68103 0.58882 0.56626 0.0
H397 H 0.64399 0.58422 0.43525 0.0
H398 H 0.5422 0.55053 0.5834 0.0
H399 H 0.53445 0.55176 0.67291 0.0
Dy400 Dy 0.56996 0.18687 1.10595 0.0
Dy401 Dy 0.56818 0.26394 1.05693 0.0
C402 C 0.50182 0.22978 1.11293 0.0
O403 O 0.55087 0.17565 1.00219 0.0
O404 O 0.54104 0.23204 0.9706 0.0
O405 O 0.57012 0.14638 1.17924 0.0
O406 O 0.58052 0.1336 1.07833 0.0
O407 O 0.61656 0.24372 1.01228 0.0
O408 O 0.62587 0.2047 1.09286 0.0
O409 O 0.57324 0.27058 1.16689 0.0
O410 O 0.55623 0.21722 1.20196 0.0
O411 O 0.59671 0.31214 1.06843 0.0
O412 O 0.54484 0.31309 1.03124 0.0
C413 C 0.53874 0.19735 0.95769 0.0
O414 O 0.51336 0.19817 1.10151 0.0
O415 O 0.52115 0.25668 1.10644 0.0
C416 C 0.61029 0.10204 1.15716 0.0
C417 C 0.66392 0.06843 1.22335 0.0
C418 C 0.67005 0.10035 1.19128 0.0
C419 C 0.64302 0.11753 1.15968 0.0
C420 C 0.6059 0.06766 1.17812 0.0
C421 C 0.63264 0.05072 1.21056 0.0
C422 C 0.58013 0.12238 1.13804 0.0
C423 C 0.63764 0.22311 1.04337 0.0
C424 C 0.55976 0.25141 1.21356 0.0
C425 C 0.58512 0.34501 0.97743 0.0
C426 C 0.58 0.30425 0.78362 0.0
C427 C 0.62892 0.29247 0.86044 0.0
C428 C 0.62467 0.31425 0.94942 0.0
C429 C 0.54499 0.3612 0.92213 0.0
C430 C 0.53475 0.34406 0.82964 0.0
C431 C 0.5734 0.33051 1.03785 0.0
H432 H 0.69436 0.11382 1.19667 0.0
H433 H 0.64705 0.14379 1.14143 0.0
H434 H 0.58098 0.055 1.17439 0.0
H435 H 0.62687 0.02568 0.23268 0.0
H436 H 0.65136 0.27269 0.85918 0.0
H437 H 0.64348 0.3068 0.98499 0.0
H438 H 0.53482 0.35733 0.87619 0.0
H439 H 0.51209 0.35011 0.79676 0.0
Dy440 Dy 0.84995 0.73439 0.61102 0.0
Dy441 Dy 0.85686 0.66043 0.56541 0.0
C442 C 0.92239 0.69966 0.61061 0.0
O443 O 0.87081 0.74752 0.5087 0.0
O444 O 0.88293 0.69191 0.47603 0.0
O445 O 0.8425 0.77451 0.68348 0.0
O446 O 0.83582 0.78635 0.58078 0.0
O447 O 0.80657 0.67434 0.51742 0.0
O448 O 0.79487 0.71196 0.59808 0.0
O449 O 0.85319 0.6541 0.67696 0.0
O450 O 0.8704 0.70765 0.70712 0.0
O451 O 0.83202 0.61027 0.57437 0.0
O452 O 0.88604 0.61358 0.54967 0.0
C453 C 0.88444 0.72681 0.46385 0.0
O454 O 0.90752 0.73027 0.60532 0.0
O455 O 0.90482 0.67135 0.60846 0.0
C456 C 0.79828 0.81339 0.65329 0.0
C457 C 0.74331 0.8452 0.71605 0.0
C458 C 0.74073 0.80975 0.69836 0.0
C459 C 0.76959 0.79325 0.67141 0.0
C460 C 0.79541 0.84979 0.65152 0.0
C461 C 0.76709 0.86584 0.68079 0.0
C462 C 0.83161 0.79711 0.64028 0.0
C463 C 0.78368 0.69344 0.54793 0.0
C464 C 0.86814 0.67366 0.72176 0.0
C465 C 0.8551 0.5699 0.50361 0.0
C466 C 0.85108 0.5799 0.2962 0.0
C467 C 0.79882 0.58124 0.36824 0.0
C468 C 0.80793 0.5768 0.46474 0.0
C469 C 0.90021 0.56436 0.45538 0.0
C470 C 0.90643 0.57047 0.35734 0.0
C471 C 0.85966 0.59298 0.55735 0.0
H472 H 0.71998 0.79375 0.717 0.0
H473 H 0.77053 0.76495 0.6696 0.0
H474 H 0.81647 0.86575 0.63366 0.0
H475 H 0.76818 0.89395 0.68726 0.0
H476 H 0.77066 0.58883 0.35834 0.0
H477 H 0.78657 0.58057 0.49737 0.0
H478 H 0.90965 0.56551 0.40864 0.0
H479 H 0.93104 0.56993 0.32778 0.0
Dy480 Dy 0.46432 0.58616 0.86269 0.0
Dy481 Dy 0.5348 0.61043 0.83247 0.0
C482 C 0.48443 0.6551 0.92905 0.0
O483 O 0.44844 0.6228 0.77872 0.0
O484 O 0.50276 0.62945 0.73818 0.0
O485 O 0.40963 0.58011 0.86054 0.0
O486 O 0.44282 0.5359 0.88677 0.0
O487 O 0.53248 0.55011 0.82639 0.0
O488 O 0.48486 0.55829 0.77569 0.0
O489 O 0.54057 0.61738 0.93838 0.0
O490 O 0.49583 0.58259 0.96361 0.0
O491 O 0.58549 0.59174 0.85659 0.0
O492 O 0.57998 0.64032 0.80306 0.0
C493 C 0.46823 0.63393 0.73021 0.0
O494 O 0.4598 0.63206 0.92441 0.0
O495 O 0.51219 0.65398 0.8916 0.0
C496 C 0.38408 0.5341 0.91934 0.0
C497 C 0.33558 0.51662 1.01264 0.0
C498 C 0.36437 0.49492 1.00403 0.0
C499 C 0.38907 0.50407 0.95782 0.0
C500 C 0.35235 0.55175 0.92086 0.0
C501 C 0.32813 0.54298 0.96739 0.0
C502 C 0.41123 0.54699 0.87668 0.0
C503 C 0.509 0.53623 0.78912 0.0
C504 C 0.52399 0.60059 0.98335 0.0
C505 C 0.61938 0.59859 0.76728 0.0
C506 C 0.60178 0.55804 0.57206 0.0
C507 C 0.59765 0.52442 0.66578 0.0
C508 C 0.60309 0.5485 0.75268 0.0
C509 C 0.62917 0.63502 0.69905 0.0
C510 C 0.62064 0.62797 0.60217 0.0
C511 C 0.60093 0.61481 0.82061 0.0
H512 H 0.37 0.47423 1.03855 0.0
H513 H 0.41284 0.48913 0.95522 0.0
H514 H 0.34716 0.57388 0.88929 0.0
H515 H 0.30555 0.55957 0.97311 0.0
H516 H 0.59268 0.49654 0.66372 0.0
H517 H 0.59824 0.53324 0.79567 0.0
H518 H 0.6277 0.63824 0.64935 0.0
H519 H 0.62601 0.64674 0.56003 0.0
Dy520 Dy -0.02931 0.33577 0.35804 0.0
Dy521 Dy 0.90758 0.30641 0.31221 0.0
C522 C -0.03389 0.25663 0.37039 0.0
O523 O -0.0039 0.31037 0.26788 0.0
O524 O 0.94533 0.29182 1.22511 0.0
O525 O 0.02213 0.35433 0.37027 0.0
O526 O -0.02196 0.38715 0.39894 0.0
O527 O 0.90425 0.3658 0.31779 0.0
O528 O -0.0472 0.36165 0.26748 0.0
O529 O 0.89554 0.29212 0.41787 0.0
O530 O 0.9425 0.31958 0.45731 0.0
O531 O 0.85323 0.29564 0.32445 0.0
O532 O 0.87566 0.29714 0.22788 0.0
C533 C -0.02021 0.29497 1.21874 0.0
O534 O -0.01647 0.28401 0.38841 0.0
O535 O 0.93644 0.25825 0.33953 0.0
C536 C 0.03308 0.40001 0.4419 0.0
C537 C 0.09341 0.4042 0.51262 0.0
C538 C 0.0646 0.38741 0.53991 0.0
C539 C 0.03427 0.38503 0.50396 0.0
C540 C 0.05951 0.42215 0.42057 0.0
C541 C 0.08989 0.42421 0.45605 0.0
C542 C 0.01157 0.38478 0.3922 0.0
C543 C 0.9256 0.38004 0.27717 0.0
C544 C 0.9139 0.30061 0.46949 0.0
C545 C 0.82621 0.33222 0.2469 0.0
C546 C 0.78907 0.39429 1.21835 0.0
C547 C 0.78617 0.37845 0.27982 0.0
C548 C 0.80457 0.34775 0.29401 0.0
C549 C 0.83104 0.3496 1.18754 0.0
C550 C 0.81369 0.38074 1.17436 0.0
C551 C 0.84768 0.30118 0.26269 0.0
H552 H 0.06721 0.37188 0.5838 0.0
H553 H 0.01384 0.36783 0.52048 0.0
H554 H 0.05866 0.43375 0.3724 0.0
H555 H 0.11206 0.43711 0.43472 0.0
H556 H 0.76922 0.38917 0.31655 0.0
H557 H 0.80157 0.33606 0.34171 0.0
H558 H 0.84805 0.33899 1.15057 0.0
H559 H 0.81768 0.39248 1.12698 0.0
Dy560 Dy 0.4545 0.35283 0.57909 0.0
Dy561 Dy 0.5216 0.31614 0.62077 0.0
C562 C 0.46149 0.27735 0.54311 0.0
O563 O 0.43487 0.31783 0.66526 0.0
O564 O 0.48704 0.30843 0.71355 0.0
O565 O 0.40068 0.36441 0.58744 0.0
O566 O 0.43444 0.399 0.53207 0.0
O567 O 0.53217 0.375 0.64062 0.0
O568 O 0.4765 0.3881 0.65336 0.0
O569 O 0.52677 0.30851 0.51542 0.0
O570 O 0.48504 0.34411 0.47882 0.0
O571 O 0.57625 0.31561 0.59863 0.0
O572 O 0.5532 0.27183 0.64628 0.0
C573 C 0.45254 0.30592 0.71653 0.0
O574 O 0.44833 0.30644 0.52302 0.0
O575 O 0.4841 0.27531 0.5902 0.0
C576 C 0.37487 0.39889 0.50873 0.0
C577 C 0.31461 0.38643 0.44087 0.0
C578 C 0.34658 0.38185 0.40952 0.0
C579 C 0.3769 0.38756 0.44403 0.0
C580 C 0.34314 0.40867 0.53594 0.0
C581 C 0.31288 0.40217 0.50215 0.0
C582 C 0.40318 0.39313 0.55321 0.0
C583 C 0.50825 0.39821 0.65658 0.0
C584 C 0.51151 0.32214 0.46593 0.0
C585 C 0.60453 0.29132 0.68597 0.0
C586 C 0.57853 0.31342 0.88441 0.0
C587 C 0.58825 0.3596 0.79968 0.0
C588 C 0.5996 0.34212 0.70956 0.0
C589 C 0.60189 0.24985 0.74696 0.0
C590 C 0.58764 0.25243 0.84307 0.0
C591 C 0.58201 0.28697 0.63107 0.0
H592 H 0.34801 0.36948 0.36207 0.0
H593 H 0.40137 0.37977 0.42279 0.0
H594 H 0.3415 0.41744 0.58606 0.0
H595 H 0.28831 0.40556 0.52665 0.0
H596 H 0.58261 0.38916 0.79938 0.0
H597 H 0.60096 0.36088 0.67062 0.0
H598 H 0.5963 0.24434 0.79504 0.0
H599 H 0.58349 0.23047 0.87908 0.0
Dy600 Dy -0.01896 0.57531 1.08982 0.0
Dy601 Dy 0.91053 0.58234 1.122 0.0
C602 C -0.04645 0.64701 1.10732 0.0
O603 O -0.00371 0.59977 1.18875 0.0
O604 O 0.94095 0.5955 1.2254 0.0
O605 O 0.03567 0.57699 1.06842 0.0
O606 O 0.00549 0.52836 1.06067 0.0
O607 O 0.92328 0.52596 1.10107 0.0
O608 O -0.0363 0.53763 1.16691 0.0
O609 O 0.90388 0.6087 1.02445 0.0
O610 O -0.04539 0.58872 0.98668 0.0
O611 O 0.86686 0.548 1.12352 0.0
O612 O 0.85884 0.6035 1.12952 0.0
C613 C -0.02511 0.60391 0.23858 0.0
O614 O -0.02922 0.62908 1.06508 0.0
O615 O 0.93161 0.63269 1.14659 0.0
C616 C 0.05403 0.53221 0.99692 0.0
C617 C 0.08725 0.49919 0.89188 0.0
C618 C 0.05267 0.51093 0.88672 0.0
C619 C 0.03652 0.52774 0.93825 0.0
C620 C 0.08764 0.52007 1.00421 0.0
C621 C 0.10417 0.50379 0.95245 0.0
C622 C 0.03559 0.5435 1.05404 0.0
C623 C 0.94365 0.51355 1.14512 0.0
C624 C 0.92468 0.60588 0.97488 0.0
C625 C 0.82797 0.56785 1.19718 0.0
C626 C 0.85221 0.5862 0.39749 0.0
C627 C 0.86534 0.53019 0.33936 0.0
C628 C 0.85213 0.52848 0.24459 0.0
C629 C 0.81171 0.61388 0.23525 0.0
C630 C 0.82183 0.63069 0.32782 0.0
C631 C 0.84496 0.57279 1.13635 0.0
H632 H 0.03764 0.50828 0.84302 0.0
H633 H 0.00999 0.53641 0.93288 0.0
H634 H 0.10099 0.52276 1.05032 0.0
H635 H 0.13063 0.49599 0.96046 0.0
H636 H 0.88232 0.50669 0.35313 0.0
H637 H 0.86187 0.5065 1.21681 0.0
H638 H 0.81289 0.62771 0.27847 0.0
H639 H 0.81692 0.65733 0.35093 0.0
C640 C 0.15356 -0.02679 1.13654 0.0
C641 C 0.12818 -0.03202 1.0874 0.0
C642 C 0.16832 -0.00633 1.0122 0.0
C643 C 0.18048 0.01491 1.06429 0.0
N644 N 0.1955 0.01488 1.17746 0.0
N645 N 0.11874 -0.03795 0.9728 0.0
C646 C 0.17803 0.00017 1.127 0.0
C647 C 0.13849 -0.02635 1.02292 0.0
N648 N 0.15517 0.95163 1.1889 0.0
N649 N 0.18352 -0.00643 0.95277 0.0
H650 H 0.09639 0.94748 0.98135 0.0
H651 H 0.12494 -0.03257 0.92434 0.0
H652 H 0.20691 0.00616 0.9438 0.0
H653 H 0.20691 0.00616 0.9438 0.0
H654 H 0.17396 0.95393 1.22496 0.0
H655 H 0.14114 0.92844 1.18915 0.0
H656 H 0.19151 0.00765 0.22585 0.0
H657 H 0.2127 0.03548 1.16946 0.0
C658 C 0.14506 0.87799 0.36895 0.0
C659 C 0.11942 0.84968 0.33672 0.0
C660 C 0.07196 0.83088 0.42067 0.0
C661 C 0.10023 0.86901 0.4571 0.0
N662 N 0.15457 0.90292 0.47932 0.0
N663 N 0.03824 0.82506 0.28622 0.0
C664 C 0.13637 0.88224 0.43846 0.0
C665 C 0.06887 0.84453 0.32558 0.0
N666 N 0.17693 0.88358 0.34416 0.0
N667 N 0.04869 0.80038 0.43625 0.0
H668 H 0.04141 0.81652 0.23844 0.0
H669 H 0.0144 0.82359 0.30941 0.0
H670 H 0.05831 0.77784 0.45859 0.0
H671 H 0.02761 0.796 0.40641 0.0
H672 H 0.19598 0.89706 0.3696 0.0
H673 H 0.1829 0.87446 0.29753 0.0
H674 H 0.17741 0.91512 0.46521 0.0
H675 H 0.14565 0.9074 0.52659 0.0
C676 C 0.34977 0.81063 0.65069 0.0
C677 C 0.30321 0.83242 0.63759 0.0
C678 C 0.30299 0.88686 0.56799 0.0
C679 C 0.33714 0.86882 0.54802 0.0
N680 N 0.36812 0.78888 0.51882 0.0
N681 N 0.25516 0.87976 0.64798 0.0
C682 C 0.35216 0.81931 0.55397 0.0
C683 C 0.28712 0.87131 0.62653 0.0
N684 N 0.37059 0.77501 0.6688 0.0
N685 N 0.29428 0.91872 0.54438 0.0
H686 H 0.24297 0.86373 0.68209 0.0
H687 H 0.24209 0.90204 0.63197 0.0
H688 H 0.30876 0.92987 0.50686 0.0
H689 H 0.27353 0.93305 0.56284 0.0
H690 H 0.3947 0.77025 0.64798 0.0
H691 H 0.3597 0.75312 0.69089 0.0
H692 H 0.38202 0.77083 0.54605 0.0
H693 H 0.35577 0.77819 0.47862 0.0
C694 C 0.31532 0.01746 0.85298 0.0
C695 C 0.31492 0.05053 0.81429 0.0
C696 C 0.35782 0.09341 0.91079 0.0
C697 C 0.36226 0.04412 0.92918 0.0
N698 N 0.34249 -0.01678 0.943 0.0
N699 N 0.3634 0.1185 0.77972 0.0
C700 C 0.338 0.01416 0.91174 0.0
C701 C 0.34706 0.08872 0.81798 0.0
N702 N 0.29358 -0.00842 0.83436 0.0
N703 N 0.36471 0.13131 0.93381 0.0
H704 H 0.37945 0.11314 0.74095 0.0
H705 H 0.36942 0.14229 0.80124 0.0
H706 H 0.35345 0.14124 0.97587 0.0
H707 H 0.36919 0.15145 0.90098 0.0
H708 H 0.29074 -0.03182 0.85971 0.0
H709 H 0.27812 -0.00522 0.79309 0.0
H710 H 0.32961 -0.03966 0.93034 0.0
H711 H 0.36019 -0.01868 0.98118 0.0
C712 C 0.88194 0.76664 0.35593 0.0
C713 C 0.90168 0.74497 0.39982 0.0
C714 C -0.04598 0.76516 0.33238 0.0
C715 C 0.93444 0.78586 0.28639 0.0
N716 N 0.877 0.80699 0.26332 0.0
N717 N -0.04132 0.7284 0.43162 0.0
C718 C 0.89768 0.78642 0.30122 0.0
C719 C 0.93836 0.74594 0.38811 0.0
N720 N 0.84742 0.76979 0.36851 0.0
N721 N -0.01158 0.76313 0.32206 0.0
H722 H 0.94846 0.71605 0.47242 0.0
H723 H -0.01466 0.7264 0.42972 0.0
H724 H -0.00068 0.76965 0.27768 0.0
H725 H 0.00582 0.7531 0.35501 0.0
H726 H 0.83113 0.78796 0.34665 0.0
H727 H 0.83486 0.75475 0.40362 0.0
H728 H 0.85042 0.80403 0.25942 0.0
H729 H 0.88652 0.8279 0.23627 0.0
C730 C 0.88021 0.14464 1.08953 0.0
C731 C 0.89376 0.17475 1.05603 0.0
C732 C 0.94826 0.16374 1.12125 0.0
C733 C 0.93308 0.13793 1.16194 0.0
N734 N 0.88116 0.10579 1.18476 0.0
N735 N 0.94022 0.21617 1.0569 0.0
C736 C 0.898 0.12912 1.14584 0.0
C737 C 0.92749 0.18506 1.07713 0.0
N738 N 0.85 0.1305 1.06801 0.0
N739 N -0.01678 0.16746 1.12254 0.0
H740 H 0.92735 0.23296 1.02508 0.0
H741 H -0.03768 0.22588 1.07814 0.0
H742 H -0.00113 0.15261 1.15333 0.0
H743 H -0.00338 0.18293 1.08924 0.0
H744 H 0.84083 0.10631 1.08365 0.0
H745 H 0.83508 0.14204 1.03161 0.0
H746 H 0.85477 0.10103 1.18158 0.0
H747 H 0.89342 0.09261 1.2228 0.0
C748 C 0.53939 0.15934 0.84744 0.0
C749 C 0.52099 0.18088 0.89339 0.0
C750 C 0.46784 0.16786 0.82339 0.0
C751 C 0.48598 0.14657 0.77642 0.0
N752 N 0.53967 0.11521 0.76075 0.0
N753 N 0.4663 0.20389 0.92286 0.0
C754 C 0.52208 0.14095 0.79307 0.0
C755 C 0.48486 0.18406 0.88048 0.0
N756 N 0.57433 0.15679 0.85478 0.0
N757 N 0.43335 0.17211 0.81477 0.0
H758 H 0.47643 0.21471 0.96533 0.0
H759 H 0.4412 0.21093 0.91439 0.0
H760 H 0.42136 0.16807 0.77023 0.0
H761 H 0.41652 0.17798 0.8525 0.0
H762 H 0.59075 0.14634 0.81961 0.0
H763 H 0.58737 0.1679 0.89407 0.0
H764 H 0.5643 0.10675 0.77345 0.0
H765 H 0.52819 0.0989 0.72653 0.0
C766 C 0.48353 0.78476 0.60678 0.0
C767 C 0.48127 0.77052 0.67102 0.0
C768 C 0.51989 0.72174 0.62647 0.0
C769 C 0.51661 0.73294 0.55966 0.0
N770 N 0.48511 0.77347 0.49047 0.0
N771 N 0.49735 0.72173 0.73838 0.0
C772 C 0.49549 0.76396 0.55141 0.0
C773 C 0.49949 0.73785 0.67933 0.0
N774 N 0.47702 0.81954 0.59863 0.0
N775 N 0.54416 0.697 0.64104 0.0
H776 H 0.4825 0.73185 0.77634 0.0
H777 H 0.5079 0.69723 0.74812 0.0
H778 H 0.5609 0.68653 0.60647 0.0
H779 H 0.55062 0.68989 0.68841 0.0
H780 H 0.48076 0.83241 0.55442 0.0
H781 H 0.47286 0.83611 0.63826 0.0
H782 H 0.46772 0.79394 0.48248 0.0
H783 H 0.48991 0.75822 0.4494 0.0
C784 C 0.60171 0.58538 0.66249 0.0
C785 C 0.6468 0.56636 0.67518 0.0
C786 C 0.64513 0.51754 0.58478 0.0
C787 C 0.6131 0.53267 0.55459 0.0
N788 N 0.57237 0.60803 0.54035 0.0
N789 N 0.69222 0.52222 0.66771 0.0
C790 C 0.59375 0.57798 0.56968 0.0
C791 C 0.66184 0.53421 0.64357 0.0
N792 N 0.57198 0.6062 0.69387 0.0
N793 N 0.65679 0.48679 0.55989 0.0
H794 H 0.70343 0.53442 0.708 0.0
H795 H 0.70612 0.50163 0.64724 0.0
H796 H 0.64441 0.47547 0.51993 0.0
H797 H 0.67721 0.47261 0.57964 0.0
H798 H 0.55675 0.6235 0.66748 0.0
H799 H 0.55829 0.59608 0.73332 0.0
H800 H 0.55542 0.62306 0.56789 0.0
H801 H 0.58194 0.62287 0.50175 0.0
C802 C 0.6469 0.33679 0.79496 0.0
C803 C 0.61774 0.30327 0.79446 0.0
C804 C 0.56532 0.30437 0.88564 0.0
C805 C 0.59568 0.34654 0.86588 0.0
N806 N 0.65288 0.38629 0.87239 0.0
N807 N 0.53579 0.26989 0.76818 0.0
C808 C 0.63858 0.35535 0.85584 0.0
C809 C 0.56565 0.2972 0.78618 0.0
N810 N 0.67941 0.33339 0.77208 0.0
N811 N 0.52837 0.29262 0.91325 0.0
H812 H 0.53911 0.24594 0.74447 0.0
H813 H 0.51203 0.27181 0.79152 0.0
H814 H 0.51107 0.30832 0.93913 0.0
H815 H 0.51676 0.27019 0.89479 0.0
H816 H 0.699 0.3504 0.78645 0.0
H817 H 0.68522 0.31344 0.73907 0.0
H818 H 0.67629 0.39449 0.85248 0.0
H819 H 0.64047 0.40241 0.90619 0.0
C820 C 0.72895 0.40416 1.18478 0.0
C821 C 0.76212 0.41893 1.19324 0.0
C822 C 0.75913 0.43938 1.08184 0.0
C823 C 0.73862 0.40954 1.06837 0.0
N824 N 0.69167 0.37467 1.10678 0.0
N825 N 0.79867 0.46584 1.15805 0.0
C826 C 0.71785 0.39721 1.12007 0.0
C827 C 0.77281 0.44293 1.14514 0.0
N828 N 0.70934 0.39613 0.23759 0.0
N829 N 0.76778 0.4627 1.03485 0.0
H830 H 0.80959 0.46717 1.20448 0.0
H831 H 0.80848 0.4828 1.12271 0.0
H832 H 0.7573 0.4619 0.98809 0.0
H833 H 0.7573 0.4619 0.98809 0.0
H834 H 0.68443 0.38615 0.23402 0.0
H835 H 0.71698 0.40332 0.28437 0.0
H836 H 0.67814 0.36106 1.14256 0.0
H837 H 0.68489 0.36905 1.05864 0.0
C838 C 0.80303 0.5258 0.32784 0.0
C839 C 0.81617 0.56673 0.30839 0.0
C840 C 0.86021 0.60007 0.39345 0.0
C841 C 0.85027 0.5479 0.39807 0.0
N842 N 0.81364 0.49061 0.42722 0.0
N843 N 0.87973 0.62458 0.25842 0.0
C844 C 0.81526 0.52143 0.39515 0.0
C845 C 0.86156 0.59208 0.29383 0.0
N846 N 0.77343 0.51169 0.30535 0.0
N847 N 0.88643 0.63063 0.41265 0.0
H848 H 0.86988 0.63844 1.21898 0.0
H849 H 0.90105 0.6362 0.28047 0.0
H850 H 0.90633 0.62862 0.44645 0.0
H851 H 0.88722 0.65275 0.38292 0.0
H852 H 0.76192 0.49032 0.32826 0.0
H853 H 0.76201 0.52185 0.26337 0.0
H854 H 0.79652 0.47096 0.41323 0.0
H855 H 0.82983 0.48615 0.46696 0.0
C856 C 0.43401 0.307 0.84166 0.0
C857 C 0.43303 0.29014 0.77921 0.0
C858 C 0.39254 0.24646 0.83408 0.0
C859 C 0.39845 0.25982 0.89874 0.0
N860 N 0.42657 0.30509 0.95983 0.0
N861 N 0.41013 0.2414 0.71934 0.0
C862 C 0.41967 0.29075 0.90073 0.0
C863 C 0.41172 0.25928 0.77679 0.0
N864 N 0.44634 0.34039 0.844 0.0
N865 N 0.36694 0.22231 0.8265 0.0
H866 H 0.42336 0.24953 0.67779 0.0
H867 H 0.39778 0.21743 0.71377 0.0
H868 H 0.35212 0.21335 0.86548 0.0
H869 H 0.35825 0.21353 0.78146 0.0
H870 H 0.4452 0.35623 0.88519 0.0
H871 H 0.45391 0.35382 0.80216 0.0
H872 H 0.44515 0.32436 0.96681 0.0
H873 H 0.41485 0.29622 1.00231 0.0
C874 C 0.46088 0.64265 0.60005 0.0
C875 C 0.45004 0.65046 0.66577 0.0
C876 C 0.39921 0.68185 0.61068 0.0
C877 C 0.41255 0.67801 0.54577 0.0
N878 N 0.46001 0.65597 0.48293 0.0
N879 N 0.40919 0.68458 0.72824 0.0
C880 C 0.44457 0.65884 0.54228 0.0
C881 C 0.41914 0.67186 0.669 0.0
N882 N 0.48548 0.61748 0.59173 0.0
N883 N 0.36623 0.69388 0.61722 0.0
H884 H 0.42345 0.68049 0.77053 0.0
H885 H 0.38911 0.70248 0.73426 0.0
H886 H 0.3513 0.70138 0.57734 0.0
H887 H 0.35261 0.6928 0.66093 0.0
H888 H 0.49201 0.607 0.54659 0.0
H889 H 0.49658 0.60416 0.63064 0.0
H890 H 0.48456 0.64545 0.47653 0.0
H891 H 0.44903 0.66635 0.44072 0.0
C892 C 0.01904 0.61697 0.42052 0.0
C893 C 0.02991 0.65353 0.4227 0.0
C894 C -0.00116 0.65696 0.31269 0.0
C895 C -0.00953 0.62051 0.30671 0.0
N896 N 0.00131 0.56507 0.35691 0.0
N897 N 0.0412 0.70021 0.34857 0.0
C898 C 0.00324 0.60053 0.36153 0.0
C899 C 0.0227 0.67101 0.36228 0.0
N900 N 0.02323 0.59718 0.47511 0.0
N901 N -0.01781 0.67931 0.2724 0.0
H902 H 0.06121 0.70908 0.37804 0.0
H903 H 0.03933 0.71307 0.30444 0.0
H904 H -0.03872 0.67101 0.24468 0.0
H905 H -0.01396 0.70604 0.2734 0.0
H906 H 0.01259 0.57234 0.48049 0.0
H907 H 0.03423 0.60687 0.51755 0.0
H908 H 0.01311 0.54794 0.3895 0.0
H909 H -0.01003 0.55307 0.31682 0.0
C910 C 0.04813 0.24579 1.1 0.0
C911 C 0.03303 0.24837 1.03632 0.0
C912 C -0.01329 0.28634 1.09022 0.0
C913 C 0.00022 0.28139 1.15496 0.0
N914 N 0.05247 0.2656 1.21284 0.0
N915 N -0.00941 0.27864 0.97162 0.0
C916 C 0.03351 0.264 1.15692 0.0
C917 C 0.00349 0.27135 1.03198 0.0
N918 N 0.07736 0.22593 1.10662 0.0
N919 N -0.04326 0.30493 1.08384 0.0
H920 H -0.00114 0.26586 0.92961 0.0
H921 H -0.02731 0.29837 0.96234 0.0
H922 H 0.94648 0.32012 1.12128 0.0
H923 H 0.94149 0.30483 1.0422 0.0
H924 H 0.08827 0.21903 1.15105 0.0
H925 H 0.09071 0.21528 1.06728 0.0
H926 H 0.07856 0.25918 1.21524 0.0
H927 H 0.04317 0.27522 0.25669 0.0
C928 C -0.00013 0.21578 0.30662 0.0
C929 C -0.01331 0.22553 0.36913 0.0
C930 C 0.03829 0.20258 0.41933 0.0
C931 C 0.04406 0.18455 0.3616 0.0
N932 N 0.04842 0.18944 0.24765 0.0
N933 N -0.00611 0.22816 0.48651 0.0
C934 C 0.03284 0.19967 0.30398 0.0
C935 C 0.00607 0.21883 0.42665 0.0
N936 N -0.02008 0.2186 0.25234 0.0
N937 N 0.06389 0.20533 0.46404 0.0
H938 H -0.03049 0.23946 0.49261 0.0
H939 H 0.00687 0.22182 0.5294 0.0
H940 H 0.08843 0.19534 0.45397 0.0
H941 H 0.06142 0.2201 0.50652 0.0
H942 H -0.01106 0.21373 1.20581 0.0
H943 H -0.04651 0.22327 0.25416 0.0
H944 H 0.03898 0.19493 1.20154 0.0
H945 H 0.07136 0.17495 0.24885 0.0
C946 C -0.03637 0.70427 0.70123 0.0
C947 C -0.04356 0.6927 0.63662 0.0
C948 C -0.00912 0.64003 0.65758 0.0
C949 C 0.00641 0.65835 0.70772 0.0
N950 N -0.01274 0.68559 0.8055 0.0
N951 N -0.03627 0.64788 0.55285 0.0
C952 C -0.01416 0.68322 0.73962 0.0
C953 C -0.02925 0.65998 0.61399 0.0
N954 N -0.05024 0.73442 0.72559 0.0
N955 N -0.00056 0.60592 0.64748 0.0
H956 H -0.04994 0.66267 0.51885 0.0
H957 H -0.0279 0.62376 0.53564 0.0
H958 H 0.01657 0.59315 0.67888 0.0
H959 H -0.01212 0.59038 0.61201 0.0
H960 H -0.04385 0.74414 0.77142 0.0
H961 H 0.93476 0.75146 0.69795 0.0
H962 H -0.02895 0.70181 0.83268 0.0
H963 H 0.003 0.66854 0.83204 0.0
C964 C 0.45126 0.68791 1.00296 0.0
C965 C 0.48477 0.67873 0.98571 0.0
C966 C 0.49584 0.73182 0.93319 0.0
C967 C 0.45929 0.73564 0.92705 0.0
N968 N 0.4015 0.72047 0.96584 0.0
N969 N 0.54027 0.70535 0.99841 0.0
C970 C 0.4363 0.71521 0.9662 0.0
C971 C 0.50745 0.70636 0.97593 0.0
N972 N 0.43347 0.66729 1.04509 0.0
N973 N 0.51881 0.75004 0.89574 0.0
H974 H 0.54819 0.68509 1.0282 0.0
H975 H 0.55755 0.72601 0.99248 0.0
H976 H 0.51137 0.76722 0.85909 0.0
H977 H 0.54531 0.74524 0.89682 0.0
H978 H 0.40808 0.67191 1.05928 0.0
H979 H 0.44571 0.64628 1.06799 0.0
H980 H 0.38428 0.70531 0.99252 0.0
H981 H 0.38946 0.73848 0.93559 0.0
C982 C 0.46218 0.21895 1.20836 0.0
C983 C 0.47116 0.23811 1.1506 0.0
C984 C 0.43132 0.28423 1.18461 0.0
C985 C 0.41364 0.25805 1.21605 0.0
N986 N 0.42106 0.21585 0.29916 0.0
N987 N 0.46428 0.29235 1.08702 0.0
C988 C 0.43329 0.23141 0.24435 0.0
C989 C 0.45642 0.2725 1.14027 0.0
N990 N 0.47998 0.18986 0.22784 0.0
N991 N 0.41898 0.31757 1.18664 0.0
H992 H 0.47718 0.2823 1.04646 0.0
H993 H 0.45514 0.31777 1.08067 0.0
H994 H 0.39769 0.32379 1.21581 0.0
H995 H 0.43132 0.3386 1.16434 0.0
H996 H 0.47291 0.17455 0.26745 0.0
H997 H 0.50196 0.18037 1.20498 0.0
H998 H 0.43244 0.19436 0.32144 0.0
H999 H 0.39864 0.22521 0.32163 0.0
C1000 C 0.0074 0.72193 1.14814 0.0
C1001 C -0.01395 0.74845 1.12257 0.0
C1002 C 0.93903 0.70784 1.11764 0.0
C1003 C -0.03601 0.68119 1.1192 0.0
N1004 N 0.0251 0.66376 1.12642 0.0
N1005 N 0.9316 0.76167 1.06502 0.0
C1006 C -0.00068 0.68818 1.131 0.0
C1007 C -0.04865 0.74084 1.10381 0.0
N1008 N 0.03574 0.72851 1.18577 0.0
N1009 N 0.90426 0.70176 1.12052 0.0
H1010 H 0.94006 0.78413 1.04376 0.0
H1011 H 0.90763 0.75404 1.04683 0.0
H1012 H 0.8931 0.67709 1.12364 0.0
H1013 H 0.88644 0.72227 1.12381 0.0
H1014 H 0.05246 0.70887 1.20154 0.0
H1015 H 0.04003 0.75238 1.20882 0.0
H1016 H 0.05114 0.67044 1.1287 0.0
H1017 H 0.0219 0.63786 1.11351 0.0
C1018 C 0.47678 0.70229 0.22651 0.0
C1019 C 0.48592 0.67988 0.27927 0.0
C1020 C 0.43496 0.64561 0.25706 0.0
C1021 C 0.42063 0.67698 0.23638 0.0
N1022 N 0.42907 0.7218 1.15821 0.0
N1023 N 0.47744 0.62154 0.32808 0.0
C1024 C 0.44227 0.70094 1.20554 0.0
C1025 C 0.46694 0.64796 0.28806 0.0
N1026 N 0.50035 0.72356 1.1971 0.0
N1027 N 0.416 0.61575 0.25559 0.0
H1028 H 0.50235 0.61893 0.34511 0.0
H1029 H 0.46137 0.60111 0.34247 0.0
H1030 H 0.39069 0.61616 0.23883 0.0
H1031 H 0.42613 0.59111 0.26644 0.0
H1032 H 0.49405 0.74222 1.16215 0.0
H1033 H 0.52683 0.7199 1.20263 0.0
H1034 H 0.44275 0.74119 1.13384 0.0
H1035 H 0.40396 0.71752 1.14197 0.0
C1036 C 0.45976 0.19503 0.44793 0.0
C1037 C 0.429 0.18312 0.4745 0.0
C1038 C 0.41354 0.2397 0.51302 0.0
C1039 C 0.4496 0.24665 0.512 0.0
N1040 N 0.50794 0.2304 0.47735 0.0
N1041 N 0.3692 0.19825 0.48423 0.0
C1042 C 0.47317 0.22507 0.47668 0.0
C1043 C 0.40293 0.2077 0.48701 0.0
N1044 N 0.47849 0.17403 0.4077 0.0
N1045 N 0.39071 0.26083 0.54568 0.0
H1046 H 0.3623 0.17247 0.47567 0.0
H1047 H 0.34877 0.21597 0.4875 0.0
H1048 H 0.39786 0.28319 0.57124 0.0
H1049 H 0.36471 0.25488 0.55177 0.0
H1050 H 0.50112 0.18209 0.38475 0.0
H1051 H 0.46913 0.14961 0.394 0.0
H1052 H 0.52559 0.21369 0.45486 0.0
H1053 H 0.51969 0.24876 0.50683 0.0
C1054 C -0.02145 0.2025 0.73539 0.0
C1055 C -0.00971 0.17252 0.76794 0.0
C1056 C -0.0478 0.17883 0.85418 0.0
C1057 C 0.94417 0.21283 0.8321 0.0
N1058 N 0.9481 0.25783 0.74989 0.0
N1059 N -0.03451 0.12098 0.81681 0.0
C1060 C -0.04334 0.22517 0.77126 0.0
C1061 C -0.0329 0.15625 0.80983 0.0
N1062 N -0.00809 0.21053 0.67605 0.0
N1063 N 0.94525 0.16868 0.91601 0.0
H1064 H -0.02175 0.10428 0.78517 0.0
H1065 H 0.94878 0.10913 0.85001 0.0
H1066 H 0.93669 0.18723 0.9489 0.0
H1067 H -0.04797 0.14418 0.93462 0.0
H1068 H -0.01523 0.23253 0.64928 0.0
H1069 H 0.00953 0.19362 0.65358 0.0
H1070 H -0.04336 0.2683 0.70597 0.0
H1071 H 0.93372 0.27496 0.77884 0.0
C1072 C -0.01504 -0.03562 0.29644 0.0
C1073 C -0.03884 -0.00789 0.2837 0.0
C1074 C 0.94431 -0.03875 1.18191 0.0
C1075 C -0.03062 0.93474 1.19353 0.0
N1076 N 0.0109 0.91012 0.26801 0.0
N1077 N 0.90906 0.00823 0.22658 0.0
C1078 C -0.01095 0.93638 0.25153 0.0
C1079 C 0.93826 -0.0118 0.22966 0.0
N1080 N 0.00226 -0.03721 0.35434 0.0
N1081 N 0.92678 -0.03875 1.12427 0.0
H1082 H 0.90126 0.02456 0.26443 0.0
H1083 H 0.89 0.00502 1.19143 0.0
H1084 H 0.93045 0.942 1.08893 0.0
H1085 H 0.91103 -0.01819 1.10903 0.0
H1086 H 0.02215 0.94494 0.36311 0.0
H1087 H -0.00539 -0.02323 0.39548 0.0
H1088 H 0.01241 0.88625 0.24373 0.0
H1089 H 0.01241 0.88625 0.24373 0.0
C1090 C 0.20154 0.76064 0.50824 0.0
C1091 C 0.18366 0.7281 0.5151 0.0
C1092 C 0.24042 0.70077 0.48357 0.0
C1093 C 0.25517 0.73381 0.46317 0.0
N1094 N 0.23755 0.79223 0.43266 0.0
N1095 N 0.18913 0.66535 0.49515 0.0
C1096 C 0.23205 0.76286 0.46828 0.0
C1097 C 0.20385 0.69777 0.49789 0.0
N1098 N 0.19136 0.78935 0.54241 0.0
N1099 N 0.26038 0.67145 0.49082 0.0
H1100 H 0.16422 0.65955 0.50952 0.0
H1101 H 0.20155 0.64392 0.47393 0.0
H1102 H 0.28609 0.66907 0.47824 0.0
H1103 H 0.25144 0.64905 0.51439 0.0
H1104 H 0.20387 0.8134 0.53821 0.0
H1105 H 0.17379 0.78759 0.58073 0.0
H1106 H 0.22071 0.81362 0.43435 0.0
H1107 H 0.25496 0.79219 0.39405 0.0
C1108 C 0.45716 -0.02479 0.6941 0.0
C1109 C 0.4274 -0.00902 0.66587 0.0
C1110 C 0.39211 0.94676 0.72406 0.0
C1111 C 0.4217 0.92948 0.74876 0.0
N1112 N 0.48003 0.9408 0.78221 0.0
N1113 N 0.3669 -0.01884 0.63874 0.0
C1114 C 0.45374 0.9473 0.74007 0.0
C1115 C 0.39522 -0.02685 0.67522 0.0
N1116 N 0.48925 -0.01484 0.67396 0.0
N1117 N 0.36081 0.94242 0.75236 0.0
H1118 H 0.36783 -0.00261 0.59813 0.0
H1119 H 0.34316 -0.03109 0.64633 0.0
H1120 H 0.35768 0.92941 0.79661 0.0
H1121 H 0.35768 0.92941 0.79661 0.0
H1122 H 0.51177 -0.02779 0.68795 0.0
H1123 H 0.49309 0.00287 0.63624 0.0
H1124 H 0.50289 0.95509 0.78348 0.0
H1125 H 0.47595 0.9257 0.82319 0.0
C1126 C 0.24178 0.22138 0.96523 0.0
C1127 C 0.25979 0.18921 0.98053 0.0
C1128 C 0.21108 0.15765 0.93058 0.0
C1129 C 0.19035 0.18851 0.92593 0.0
N1130 N 0.19234 0.25165 0.9195 0.0
N1131 N 0.25347 0.12676 0.99402 0.0
C1132 C 0.20721 0.22091 0.9394 0.0
C1133 C 0.24167 0.15756 0.96913 0.0
N1134 N 0.25646 0.25314 0.97751 0.0
N1135 N 0.20486 0.12952 0.8915 0.0
H1136 H 0.27467 0.12509 1.02455 0.0
H1137 H 0.23981 0.10349 0.98955 0.0
H1138 H 0.18738 0.13016 0.85313 0.0
H1139 H 0.22138 0.10789 0.88988 0.0
H1140 H 0.24204 0.2756 0.98733 0.0
H1141 H 0.28262 0.25788 0.98088 0.0
H1142 H 0.20504 0.27556 0.91709 0.0
H1143 H 0.16836 0.25356 0.89794 0.0
C1144 C 0.6901 0.19166 0.99512 0.0
C1145 C 0.67507 0.22222 1.02229 0.0
C1146 C 0.72429 0.25672 0.98128 0.0
C1147 C 0.74154 0.22591 0.95868 0.0
N1148 N 0.74041 0.16222 0.95186 0.0
N1149 N 0.68486 0.28051 1.06136 0.0
C1150 C 0.72445 0.19284 0.96854 0.0
C1151 C 0.69421 0.25371 1.02106 0.0
N1152 N 0.67102 0.16165 0.99189 0.0
N1153 N 0.73563 0.28929 0.96454 0.0
H1154 H 0.66357 0.27891 1.09243 0.0
H1155 H 0.70004 0.30272 1.06795 0.0
H1156 H 0.75739 0.29414 0.93663 0.0
H1157 H 0.72108 0.31181 0.9735 0.0
H1158 H 0.67849 0.13958 0.96558 0.0
H1159 H 0.64637 0.15952 1.01188 0.0
H1160 H 0.73202 0.13777 0.96769 0.0
H1161 H 0.7627 0.16082 0.92417 0.0
C1162 C 0.72461 0.72274 0.51863 0.0
C1163 C 0.74536 0.69212 0.52655 0.0
C1164 C 0.69898 0.65831 0.47151 0.0
C1165 C 0.67591 0.68762 0.4692 0.0
N1166 N 0.67422 0.75136 0.47278 0.0
N1167 N 0.74464 0.62937 0.53103 0.0
C1168 C 0.69051 0.72082 0.48925 0.0
C1169 C 0.73017 0.65965 0.509 0.0
N1170 N 0.73747 0.75416 0.53883 0.0
N1171 N 0.69382 0.63022 0.43181 0.0
H1172 H 0.76551 0.62917 0.56304 0.0
H1173 H 0.73321 0.60501 0.52398 0.0
H1174 H 0.67642 0.63071 0.39333 0.0
H1175 H 0.71108 0.60925 0.42913 0.0
H1176 H 0.72228 0.7761 0.54828 0.0
H1177 H 0.76343 0.75802 0.5493 0.0
H1178 H 0.68464 0.77616 0.47912 0.0
H1179 H 0.65218 0.75285 0.44474 0.0
C1180 C 0.48166 0.4881 0.71877 0.0
C1181 C 0.50959 0.49918 0.75918 0.0
C1182 C 0.54193 0.44679 0.72023 0.0
C1183 C 0.51388 0.43589 0.68108 0.0
N1184 N 0.46614 0.45849 0.61953 0.0
N1185 N 0.56207 0.47952 0.81243 0.0
C1186 C 0.4864 0.46023 0.6736 0.0
C1187 C 0.53847 0.47585 0.7639 0.0
N1188 N 0.44927 0.50158 0.72699 0.0
N1189 N 0.57368 0.43269 0.7119 0.0
H1190 H 0.5584 0.49647 0.85152 0.0
H1191 H 0.58332 0.46279 0.81682 0.0
H1192 H 0.57945 0.41549 0.67408 0.0
H1193 H 0.57945 0.41549 0.67408 0.0
H1194 H 0.42789 0.49223 0.7016 0.0
H1195 H 0.44245 0.51732 0.76618 0.0
H1196 H 0.44736 0.4772 0.60848 0.0
H1197 H 0.47243 0.44172 0.58131 0.0
C1198 C -0.05039 0.47259 0.2429 0.0
C1199 C 0.9393 0.47792 1.17692 0.0
C1200 C 0.91694 0.41722 1.17759 0.0
C1201 C 0.92217 0.41515 0.24586 0.0
N1202 N 0.93499 0.44542 0.3455 0.0
N1203 N 0.91366 0.45263 1.08006 0.0
C1204 C 0.93519 0.44459 0.27914 0.0
C1205 C 0.92258 0.44962 1.14409 0.0
N1206 N -0.02401 0.49129 0.26952 0.0
N1207 N 0.90842 0.38758 1.14406 0.0
H1208 H 0.92324 0.47208 1.04959 0.0
H1209 H 0.89671 0.43548 1.0571 0.0
H1210 H 0.90347 0.36382 1.16722 0.0
H1211 H 0.90833 0.38586 1.09347 0.0
H1212 H -0.01484 0.48665 0.31648 0.0
H1213 H -0.00701 0.50608 0.24166 0.0
H1214 H 0.94223 0.46758 0.37186 0.0
H1215 H 0.92379 0.42551 0.37308 0.0
C1216 C 0.02072 0.10651 0.59957 0.0
C1217 C 0.03776 0.11336 0.53908 0.0
C1218 C 0.08176 0.14647 0.60698 0.0
C1219 C 0.06588 0.13753 0.66809 0.0
N1220 N 0.02705 0.094 0.71383 0.0
N1221 N 0.09204 0.13172 0.49285 0.0
C1222 C 0.03726 0.11352 0.66186 0.0
C1223 C 0.07043 0.13093 0.5452 0.0
N1224 N -0.01129 0.09162 0.59909 0.0
N1225 N 0.1087 0.16936 0.60699 0.0
H1226 H 0.08536 0.122 0.44735 0.0
H1227 H 0.11771 0.13959 0.49611 0.0
H1228 H 0.12063 0.17804 0.6494 0.0
H1229 H 0.11834 0.18072 0.5646 0.0
H1230 H -0.02702 0.09103 0.64036 0.0
H1231 H -0.02259 0.08085 0.55775 0.0
H1232 H 0.0103 0.07282 0.70899 0.0
H1233 H 0.03769 0.09543 0.75991 0.0
C1234 C 0.04894 0.74394 0.85248 0.0
C1235 C 0.05983 0.76267 0.79599 0.0
C1236 C 0.04214 0.81791 0.85758 0.0
C1237 C 0.02735 0.79892 0.91027 0.0
N1238 N 0.01328 0.74135 0.95059 0.0
N1239 N 0.06323 0.8198 0.74665 0.0
C1240 C 0.03004 0.76122 0.90554 0.0
C1241 C 0.05513 0.80022 0.79956 0.0
N1242 N 0.05688 0.70918 0.85601 0.0
N1243 N 0.04461 0.85348 0.86296 0.0
H1244 H 0.07948 0.81008 0.71108 0.0
H1245 H 0.05443 0.84533 0.7394 0.0
H1246 H 0.03439 0.86747 0.90215 0.0
H1247 H 0.05891 0.86889 0.83103 0.0
H1248 H 0.0536 0.69422 0.89791 0.0
H1249 H 0.06948 0.696 0.81829 0.0
H1250 H 0.01104 0.71424 0.9476 0.0
H1251 H -0.00166 0.75245 0.98715 0.0
C1252 C 0.3529 0.76277 1.11106 0.0
C1253 C 0.36635 0.77514 1.17116 0.0
C1254 C 0.4057 0.81365 1.10332 0.0
C1255 C 0.38937 0.80471 1.04328 0.0
N1256 N 0.33554 0.77937 1.00251 0.0
N1257 N 0.39601 0.8252 1.21733 0.0
C1258 C 0.35965 0.7816 1.05069 0.0
C1259 C 0.39002 0.80421 1.16496 0.0
N1260 N 0.33397 0.73275 1.11014 0.0
N1261 N 0.43634 0.83114 1.10369 0.0
H1262 H 0.38192 0.82295 0.26005 0.0
H1263 H 0.41048 0.84814 1.21439 0.0
H1264 H 0.44955 0.83874 1.06214 0.0
H1265 H 0.45042 0.83501 1.14635 0.0
H1266 H 0.32671 0.72054 1.06686 0.0
H1267 H 0.32843 0.71845 1.15201 0.0
H1268 H 0.31324 0.76434 1.00712 0.0
H1269 H 0.33416 0.79705 0.9641 0.0
C1270 C 0.41436 0.11137 0.33512 0.0
C1271 C 0.39335 0.11218 0.39181 0.0
C1272 C 0.35241 0.15107 0.32764 0.0
C1273 C 0.37267 0.14927 0.26982 0.0
N1274 N 0.41659 0.1124 1.21896 0.0
N1275 N 0.33317 0.11921 0.42305 0.0
C1276 C 0.40198 0.12542 0.27406 0.0
C1277 C 0.35964 0.12794 0.38237 0.0
N1278 N 0.44596 0.0955 0.33671 0.0
N1279 N 0.32629 0.17495 0.33192 0.0
H1280 H 0.3351 0.09903 0.45698 0.0
H1281 H 0.30801 0.12825 0.41619 0.0
H1282 H 0.32027 0.19229 0.29448 0.0
H1283 H 0.31292 0.1796 0.37519 0.0
H1284 H 0.46481 0.10025 0.3015 0.0
H1285 H 0.45356 0.07776 0.37222 0.0
H1286 H 0.43408 0.0916 1.21837 0.0
H1287 H 0.40776 0.11844 1.17359 0.0
C1288 C 0.7369 0.89057 0.80043 0.0
C1289 C 0.73974 0.85441 0.78641 0.0
C1290 C 0.79082 0.84923 0.85245 0.0
C1291 C 0.7918 0.88626 0.85832 0.0
N1292 N 0.7634 0.9422 0.84934 0.0
N1293 N 0.75486 0.79966 0.8393 0.0
C1294 C 0.76368 0.90708 0.83677 0.0
C1295 C 0.76118 0.83398 0.82705 0.0
N1296 N 0.71077 0.90891 0.77209 0.0
N1297 N 0.81749 0.82826 0.87244 0.0
H1298 H 0.73215 0.7872 0.82521 0.0
H1299 H 0.73215 0.7872 0.82521 0.0
H1300 H 0.84072 0.83772 0.89055 0.0
H1301 H 0.81683 0.80107 0.86707 0.0
H1302 H 0.70766 0.9359 0.77547 0.0
H1303 H 0.69201 0.89598 0.74467 0.0
H1304 H 0.74315 -0.04114 0.83716 0.0
H1305 H 0.78373 0.95474 0.87307 0.0
C1306 C 0.82814 0.01588 0.63078 0.0
C1307 C 0.79372 0.02744 0.64015 0.0
C1308 C 0.77696 0.00242 0.53607 0.0
C1309 C 0.81233 0.0011 0.52053 0.0
N1310 N 0.86706 -0.01784 0.56268 0.0
N1311 N 0.73355 0.02359 0.61278 0.0
C1312 C 0.83614 -0.00159 0.57219 0.0
C1313 C 0.76716 0.01694 0.59715 0.0
N1314 N 0.85337 0.02447 0.67441 0.0
N1315 N 0.75376 -0.00606 0.48899 0.0
H1316 H 0.72658 0.03431 0.65771 0.0
H1317 H 0.71279 0.01795 0.58251 0.0
H1318 H 0.76224 -0.01521 0.44371 0.0
H1319 H 0.72712 -0.00527 0.49515 0.0
H1320 H 0.87958 0.02066 0.66538 0.0
H1321 H 0.84807 0.03686 0.7186 0.0
H1322 H 0.88516 -0.02143 0.59961 0.0
H1323 H 0.87261 -0.03077 0.51916 0.0
C1324 C 0.67474 0.08586 0.3337 0.0
C1325 C 0.68202 0.06061 0.28567 0.0
C1326 C 0.66062 0.01531 0.3586 0.0
C1327 C 0.64123 0.04197 0.38999 0.0
N1328 N 0.63092 0.10384 0.41002 0.0
N1329 N 0.69796 0.0013 0.26605 0.0
C1330 C 0.64913 0.07779 0.37971 0.0
C1331 C 0.68199 0.02514 0.30513 0.0
N1332 N 0.69013 0.1178 0.33184 0.0
N1333 N 0.65696 -0.01873 0.3775 0.0
H1334 H 0.71211 0.00957 1.22554 0.0
H1335 H 0.69729 -0.02564 0.27336 0.0
H1336 H 0.64088 -0.02591 0.41605 0.0
H1337 H 0.67074 -0.03946 0.35726 0.0
H1338 H 0.68586 0.13697 0.36715 0.0
H1339 H 0.70999 0.12305 0.29898 0.0
H1340 H 0.63342 0.13015 0.39732 0.0
H1341 H 0.61184 0.09912 0.44475 0.0
C1342 C 0.66012 0.88017 1.03645 0.0
C1343 C 0.63357 0.90519 1.04553 0.0
C1344 C 0.64551 0.90734 1.16096 0.0
C1345 C 0.66412 0.87565 1.15361 0.0
N1346 N 0.69859 0.83828 1.0857 0.0
N1347 N 0.60799 0.95014 1.11177 0.0
C1348 C 0.67583 0.86535 1.09157 0.0
C1349 C 0.62972 0.92218 1.10593 0.0
N1350 N 0.66799 0.86743 0.97643 0.0
N1351 N 0.63943 0.92162 1.22051 0.0
H1352 H 0.59567 -0.03896 1.0713 0.0
H1353 H 0.60326 -0.03756 1.15634 0.0
H1354 H 0.65007 0.91171 0.26341 0.0
H1355 H 0.65007 0.91171 0.26341 0.0
H1356 H 0.65672 0.87689 0.93372 0.0
H1357 H 0.65672 0.87689 0.93372 0.0
H1358 H 0.70654 0.82861 1.04053 0.0
H1359 H 0.70963 0.82649 1.12665 0.0
C1360 C 0.56897 0.62616 1.0658 0.0
C1361 C 0.53587 0.6096 1.05484 0.0
C1362 C 0.52979 0.61407 1.17501 0.0
C1363 C 0.55715 0.6399 1.18259 0.0
N1364 N 0.6015 0.67088 1.12348 0.0
N1365 N 0.48267 0.59286 1.10822 0.0
C1366 C 0.5759 0.64647 1.12421 0.0
C1367 C 0.51531 0.60591 1.11186 0.0
N1368 N 0.5951 0.62121 1.02216 0.0
N1369 N 0.52055 0.59275 1.22528 0.0
H1370 H 0.47111 0.58478 1.06522 0.0
H1371 H 0.46614 0.59281 1.14839 0.0
H1372 H 0.53604 0.58862 0.26578 0.0
H1373 H 0.50178 0.57338 1.22059 0.0
H1374 H 0.61989 0.631 1.02939 0.0
H1375 H 0.59364 0.60279 0.98486 0.0
H1376 H 0.61295 0.67933 1.08029 0.0
H1377 H 0.60987 0.6842 1.16458 0.0
C1378 C 0.5045 0.3081 0.33935 0.0
C1379 C 0.52405 0.30695 0.39807 0.0
C1380 C 0.56325 0.2642 0.33827 0.0
C1381 C 0.54668 0.2698 0.27759 0.0
N1382 N 0.50862 0.31069 1.22217 0.0
N1383 N 0.58145 0.29188 0.43819 0.0
C1384 C 0.51932 0.29561 0.2786 0.0
C1385 C 0.55596 0.28692 0.39336 0.0
N1386 N 0.47148 0.32047 0.34006 0.0
N1387 N 0.58765 0.23849 0.34311 0.0
H1388 H 0.58111 0.31269 0.47091 0.0
H1389 H 0.60548 0.27961 0.43524 0.0
H1390 H 0.59521 0.22305 0.30366 0.0
H1391 H 0.59824 0.23085 0.38756 0.0
H1392 H 0.45559 0.31925 0.29929 0.0
H1393 H 0.45874 0.32833 0.38215 0.0
H1394 H 0.49128 0.33164 1.22146 0.0
H1395 H 0.5205 0.30583 1.1778 0.0
C1396 C 0.88488 0.25438 0.55199 0.0
C1397 C 0.9014 0.28788 0.54096 0.0
C1398 C 0.88586 0.29998 0.65972 0.0
C1399 C 0.87248 0.26514 0.67312 0.0
N1400 N 0.86898 0.20708 0.62589 0.0
N1401 N 0.92291 0.33903 0.59641 0.0
C1402 C 0.87449 0.24208 0.61722 0.0
C1403 C 0.90384 0.30908 0.59873 0.0
N1404 N 0.87961 0.23275 0.50006 0.0
N1405 N 0.87921 0.32627 0.70304 0.0
H1406 H 0.93333 0.34924 0.55388 0.0
H1407 H 0.93056 0.35243 0.63817 0.0
H1408 H 0.86263 0.32356 0.74246 0.0
H1409 H 0.88546 0.35237 0.69435 0.0
H1410 H 0.86183 0.21231 0.50105 0.0
H1411 H 0.89233 0.2354 0.45574 0.0
H1412 H 0.87355 0.18843 0.58986 0.0
H1413 H 0.86423 0.19555 0.67067 0.0
C1414 C 0.89689 0.6582 0.90721 0.0
C1415 C 0.91324 0.62407 0.90824 0.0
C1416 C 0.90391 0.62427 0.78631 0.0
C1417 C 0.88388 0.65646 0.78647 0.0
N1418 N 0.85744 0.69986 0.855 0.0
N1419 N 0.92583 0.57287 0.84498 0.0
C1420 C 0.87957 0.67211 0.8493 0.0
C1421 C 0.91497 0.6069 0.84653 0.0
N1422 N 0.89926 0.67873 0.96132 0.0
N1423 N 0.91429 0.61056 0.72822 0.0
H1424 H 0.9338 0.55937 0.88646 0.0
H1425 H 0.92391 0.55708 0.8038 0.0
H1426 H 0.90753 0.62143 0.68371 0.0
H1427 H 0.93244 0.59046 0.72445 0.0
H1428 H 0.89162 0.70489 0.96253 0.0
H1429 H 0.91285 0.67092 1.00245 0.0
H1430 H 0.84977 0.71029 0.89959 0.0
H1431 H 0.8438 0.71016 0.81568 0.0
C1432 C 0.25595 0.38163 0.39115 0.0
C1433 C 0.28523 0.36552 0.41917 0.0
C1434 C 0.26422 0.30781 0.38865 0.0
C1435 C 0.23902 0.32455 0.34948 0.0
N1436 N 0.20399 0.37562 0.32965 0.0
N1437 N 0.31196 0.31211 0.46071 0.0
C1438 C 0.2316 0.36045 0.35922 0.0
C1439 C 0.2874 0.3285 0.4241 0.0
N1440 N 0.25234 0.41718 0.39093 0.0
N1441 N 0.26811 0.27226 0.38822 0.0
H1442 H 0.32983 0.32504 0.49008 0.0
H1443 H 0.32983 0.32504 0.49008 0.0
H1444 H 0.2505 0.2555 0.36636 0.0
H1445 H 0.28817 0.25954 0.41268 0.0
H1446 H 0.23131 0.42964 0.36909 0.0
H1447 H 0.27035 0.43393 0.41212 0.0
H1448 H 0.18596 0.36127 0.30299 0.0
H1449 H 0.18596 0.36127 0.30299 0.0
C1450 C 0.31632 0.56927 1.1528 0.0
C1451 C 0.28038 0.56305 1.15946 0.0
C1452 C 0.28412 0.51428 1.08328 0.0
C1453 C 0.3198 0.52103 1.07672 0.0
N1454 N 0.37175 0.54668 1.12107 0.0
N1455 N 0.23094 0.52615 1.14192 0.0
C1456 C 0.33651 0.54546 1.11742 0.0
C1457 C 0.26455 0.53411 1.12866 0.0
N1458 N 0.33132 0.59867 1.17771 0.0
N1459 N 0.26892 0.49054 1.04285 0.0
H1460 H 0.21561 0.54135 1.1728 0.0
H1461 H 0.21893 0.50349 1.12542 0.0
H1462 H 0.28345 0.47488 1.01128 0.0
H1463 H 0.24234 0.4873 1.03897 0.0
H1464 H 0.3541 0.60864 1.15815 0.0
H1465 H 0.32028 0.61445 1.21335 0.0
H1466 H 0.38492 0.56275 1.15368 0.0
H1467 H 0.3879 0.52909 1.09714 0.0
C1468 C 0.1653 0.51089 0.81851 0.0
C1469 C 0.15081 0.53701 0.77783 0.0
C1470 C 0.09722 0.50431 0.77394 0.0
C1471 C 0.10737 0.48841 0.8325 0.0
N1472 N 0.15492 0.45528 0.87361 0.0
N1473 N 0.10388 0.55291 0.70326 0.0
C1474 C 0.14321 0.48381 0.84065 0.0
C1475 C 0.1174 0.53186 0.75031 0.0
N1476 N 0.19876 0.51318 0.83854 0.0
N1477 N 0.0678 0.49424 0.74321 0.0
H1478 H 0.11689 0.57396 0.68236 0.0
H1479 H 0.11689 0.57396 0.68236 0.0
H1480 H 0.05372 0.47269 0.75973 0.0
H1481 H 0.05889 0.50653 0.70099 0.0
H1482 H 0.2096 0.49632 0.87278 0.0
H1483 H 0.21527 0.53283 0.8221 0.0
H1484 H 0.181 0.44944 0.87943 0.0
H1485 H 0.13758 0.43667 0.89142 0.0
C1486 C 0.13802 0.35739 0.50577 0.0
C1487 C 0.12779 0.39098 0.52914 0.0
C1488 C 0.1798 0.39316 0.59523 0.0
C1489 C 0.18143 0.35645 0.58911 0.0
N1490 N 0.18169 0.31253 0.50516 0.0
N1491 N 0.14264 0.44444 0.58501 0.0
C1492 C 0.16778 0.342 0.53178 0.0
C1493 C 0.15048 0.41066 0.56893 0.0
N1494 N 0.1198 0.33923 0.46027 0.0
N1495 N 0.20342 0.4094 0.63361 0.0
H1496 H 0.12112 0.4574 0.56609 0.0
H1497 H 0.15689 0.45925 0.61786 0.0
H1498 H 0.22325 0.395 0.65549 0.0
H1499 H 0.20444 0.43639 0.64032 0.0
H1500 H 0.09742 0.34847 0.43781 0.0
H1501 H 0.09742 0.34847 0.43781 0.0
H1502 H 0.17083 0.30011 0.4648 0.0
H1503 H 0.20559 0.30296 0.52047 0.0
loop_
_geom_bond_atom_site_label_1
_geom_bond_atom_site_label_2
_geom_bond_distance
_geom_bond_site_symmetry_2
_ccdc_geom_bond_type
Dy0 O3 2.307 . S
Dy0 O5 2.395 . S
Dy0 O6 2.379 . S
Dy0 O8 2.339 . S
Dy0 O10 2.298 1_655 S
Dy0 O14 2.275 1_655 S
Dy0 C22 2.738 . S
Dy1 O4 2.298 . S
Dy1 O7 2.275 . S
Dy1 O9 2.307 . S
Dy1 O11 2.395 . S
Dy1 O12 2.379 . S
Dy1 O15 2.339 . S
Dy1 C31 2.738 1_554 S
C2 O14 1.254 . S
C2 O15 1.257 . S
O3 Dy0 2.307 . S
O3 C13 1.266 . S
O4 Dy1 2.298 . S
O4 C13 1.236 1_455 S
O5 Dy0 2.395 . S
O5 C22 1.255 . S
O6 Dy0 2.379 . S
O6 C22 1.249 . S
O7 Dy1 2.275 . S
O7 C23 1.254 . S
O8 Dy0 2.339 . S
O8 C23 1.257 1_655 S
O9 Dy1 2.307 . S
O9 C24 1.266 . S
O10 Dy0 2.298 1_455 S
O10 C24 1.236 . S
O11 Dy1 2.395 . S
O11 C31 1.255 1_554 S
O12 Dy1 2.379 . S
O12 C31 1.249 1_554 S
C13 O3 1.266 . S
C13 O4 1.236 1_655 S
O14 Dy0 2.275 1_455 S
O14 C2 1.254 . S
O15 Dy1 2.339 . S
O15 C2 1.257 . S
C16 C19 1.344 . S
C16 C20 1.328 . S
C16 C22 1.516 . S
C17 C18 1.304 . S
C17 C21 1.323 . S
C18 C17 1.304 . S
C18 C19 1.371 . S
C18 H32 0.930 . S
C19 C16 1.344 . S
C19 C18 1.371 . S
C19 H33 0.931 . S
C20 C16 1.328 . S
C20 C21 1.433 . S
C20 H34 0.931 . S
C21 C17 1.323 . S
C21 C20 1.433 . S
C21 H35 0.933 . S
C22 Dy0 2.738 . S
C22 O5 1.255 . S
C22 O6 1.249 . S
C22 C16 1.516 . S
C23 O7 1.254 . S
C23 O8 1.257 1_455 S
C24 O9 1.266 . S
C24 O10 1.236 . S
C25 C28 1.344 . S
C25 C29 1.328 . S
C25 C31 1.516 . S
C26 C27 1.304 . S
C26 C30 1.323 . S
C27 C26 1.304 . S
C27 C28 1.371 . S
C27 H36 0.930 . S
C28 C25 1.344 . S
C28 C27 1.371 . S
C28 H37 0.931 . S
C29 C25 1.328 . S
C29 C30 1.433 . S
C29 H38 0.931 . S
C30 C26 1.323 . S
C30 C29 1.433 . S
C30 H39 0.933 . S
C31 Dy1 2.738 1_556 S
C31 O11 1.255 1_556 S
C31 O12 1.249 1_556 S
C31 C25 1.516 . S
H32 C18 0.930 . S
H33 C19 0.931 . S
H34 C20 0.931 . S
H35 C21 0.933 . S
H36 C27 0.930 . S
H37 C28 0.931 . S
H38 C29 0.931 . S
H39 C30 0.933 . S
Dy40 O43 2.307 . S
Dy40 O45 2.395 . S
Dy40 O46 2.379 . S
Dy40 O48 2.339 . S
Dy40 O50 2.298 . S
Dy40 O54 2.275 . S
Dy40 C62 2.738 . S
Dy41 O44 2.298 . S
Dy41 O47 2.275 . S
Dy41 O49 2.307 . S
Dy41 O51 2.395 . S
Dy41 O52 2.379 . S
Dy41 O55 2.339 . S
Dy41 C71 2.738 . S
C42 O54 1.254 . S
C42 O55 1.257 . S
O43 Dy40 2.307 . S
O43 C53 1.266 . S
O44 Dy41 2.298 . S
O44 C53 1.236 . S
O45 Dy40 2.395 . S
O45 C62 1.255 . S
O46 Dy40 2.379 . S
O46 C62 1.249 . S
O47 Dy41 2.275 . S
O47 C63 1.254 . S
O48 Dy40 2.339 . S
O48 C63 1.257 . S
O49 Dy41 2.307 . S
O49 C64 1.266 . S
O50 Dy40 2.298 . S
O50 C64 1.236 . S
O51 Dy41 2.395 . S
O51 C71 1.255 . S
O52 Dy41 2.379 . S
O52 C71 1.249 . S
C53 O43 1.266 . S
C53 O44 1.236 . S
O54 Dy40 2.275 . S
O54 C42 1.254 . S
O55 Dy41 2.339 . S
O55 C42 1.257 . S
C56 C59 1.344 . S
C56 C60 1.328 . S
C56 C62 1.516 . S
C57 C58 1.304 . S
C57 C61 1.323 . S
C58 C57 1.304 . S
C58 C59 1.371 . S
C58 H72 0.930 . S
C59 C56 1.344 . S
C59 C58 1.371 . S
C59 H73 0.931 . S
C60 C56 1.328 . S
C60 C61 1.433 . S
C60 H74 0.931 . S
C61 C57 1.323 . S
C61 C60 1.433 . S
C61 H75 0.933 . S
C62 Dy40 2.738 . S
C62 O45 1.255 . S
C62 O46 1.249 . S
C62 C56 1.516 . S
C63 O47 1.254 . S
C63 O48 1.257 . S
C64 O49 1.266 . S
C64 O50 1.236 . S
C65 C68 1.344 . S
C65 C69 1.328 . S
C65 C71 1.516 . S
C66 C67 1.304 . S
C66 C70 1.323 . S
C67 C66 1.304 . S
C67 C68 1.371 . S
C67 H76 0.930 . S
C68 C65 1.344 . S
C68 C67 1.371 . S
C68 H77 0.931 . S
C69 C65 1.328 . S
C69 C70 1.433 . S
C69 H78 0.931 . S
C70 C66 1.323 . S
C70 C69 1.433 . S
C70 H79 0.933 . S
C71 Dy41 2.738 . S
C71 O51 1.255 . S
C71 O52 1.249 . S
C71 C65 1.516 . S
H72 C58 0.930 . S
H73 C59 0.931 . S
H74 C60 0.931 . S
H75 C61 0.933 . S
H76 C67 0.930 . S
H77 C68 0.931 . S
H78 C69 0.931 . S
H79 C70 0.933 . S
Dy80 O83 2.307 . S
Dy80 O85 2.395 . S
Dy80 O86 2.379 . S
Dy80 O88 2.339 . S
Dy80 O90 2.298 . S
Dy80 O94 2.275 . S
Dy80 C102 2.738 . S
Dy81 O84 2.298 . S
Dy81 O87 2.275 . S
Dy81 O89 2.307 . S
Dy81 O91 2.395 . S
Dy81 O92 2.379 . S
Dy81 O95 2.339 . S
Dy81 C111 2.738 . S
C82 O94 1.254 . S
C82 O95 1.257 . S
O83 Dy80 2.307 . S
O83 C93 1.266 . S
O84 Dy81 2.298 . S
O84 C93 1.236 . S
O85 Dy80 2.395 . S
O85 C102 1.255 . S
O86 Dy80 2.379 . S
O86 C102 1.249 . S
O87 Dy81 2.275 . S
O87 C103 1.254 . S
O88 Dy80 2.339 . S
O88 C103 1.257 . S
O89 Dy81 2.307 . S
O89 C104 1.266 . S
O90 Dy80 2.298 . S
O90 C104 1.236 . S
O91 Dy81 2.395 . S
O91 C111 1.255 . S
O92 Dy81 2.379 . S
O92 C111 1.249 . S
C93 O83 1.266 . S
C93 O84 1.236 . S
O94 Dy80 2.275 . S
O94 C82 1.254 . S
O95 Dy81 2.339 . S
O95 C82 1.257 . S
C96 C99 1.344 . S
C96 C100 1.328 . S
C96 C102 1.516 . S
C97 C98 1.304 . S
C97 C101 1.323 . S
C98 C97 1.304 . S
C98 C99 1.371 . S
C98 H112 0.930 . S
C99 C96 1.344 . S
C99 C98 1.371 . S
C99 H113 0.931 . S
C100 C96 1.328 . S
C100 C101 1.433 . S
C100 H114 0.931 . S
C101 C97 1.323 . S
C101 C100 1.433 . S
C101 H115 0.933 . S
C102 Dy80 2.738 . S
C102 O85 1.255 . S
C102 O86 1.249 . S
C102 C96 1.516 . S
C103 O87 1.254 . S
C103 O88 1.257 . S
C104 O89 1.266 . S
C104 O90 1.236 . S
C105 C108 1.344 . S
C105 C109 1.328 . S
C105 C111 1.516 . S
C106 C107 1.304 . S
C106 C110 1.323 . S
C107 C106 1.304 . S
C107 C108 1.371 . S
C107 H116 0.930 . S
C108 C105 1.344 . S
C108 C107 1.371 . S
C108 H117 0.931 . S
C109 C105 1.328 . S
C109 C110 1.433 . S
C109 H118 0.931 . S
C110 C106 1.323 . S
C110 C109 1.433 . S
C110 H119 0.933 . S
C111 Dy81 2.738 . S
C111 O91 1.255 . S
C111 O92 1.249 . S
C111 C105 1.516 . S
H112 C98 0.930 . S
H113 C99 0.931 . S
H114 C100 0.931 . S
H115 C101 0.933 . S
H116 C107 0.930 . S
H117 C108 0.931 . S
H118 C109 0.931 . S
H119 C110 0.933 . S
Dy120 O123 2.307 . S
Dy120 O125 2.395 . S
Dy120 O126 2.379 . S
Dy120 O128 2.339 . S
Dy120 O130 2.298 . S
Dy120 O134 2.275 . S
Dy120 C142 2.738 . S
Dy121 O124 2.298 . S
Dy121 O127 2.275 . S
Dy121 O129 2.307 . S
Dy121 O131 2.395 . S
Dy121 O132 2.379 . S
Dy121 O135 2.339 . S
Dy121 C151 2.738 . S
C122 O134 1.254 . S
C122 O135 1.257 . S
O123 Dy120 2.307 . S
O123 C133 1.266 . S
O124 Dy121 2.298 . S
O124 C133 1.236 . S
O125 Dy120 2.395 . S
O125 C142 1.255 . S
O126 Dy120 2.379 . S
O126 C142 1.249 . S
O127 Dy121 2.275 . S
O127 C143 1.254 . S
O128 Dy120 2.339 . S
O128 C143 1.257 . S
O129 Dy121 2.307 . S
O129 C144 1.266 . S
O130 Dy120 2.298 . S
O130 C144 1.236 . S
O131 Dy121 2.395 . S
O131 C151 1.255 . S
O132 Dy121 2.379 . S
O132 C151 1.249 . S
C133 O123 1.266 . S
C133 O124 1.236 . S
O134 Dy120 2.275 . S
O134 C122 1.254 . S
O135 Dy121 2.339 . S
O135 C122 1.257 . S
C136 C139 1.344 . S
C136 C140 1.328 . S
C136 C142 1.516 1_554 S
C137 C138 1.304 . S
C137 C141 1.323 . S
C138 C137 1.304 . S
C138 C139 1.371 . S
C138 H152 0.930 . S
C139 C136 1.344 . S
C139 C138 1.371 . S
C139 H153 0.931 . S
C140 C136 1.328 . S
C140 C141 1.433 . S
C140 H154 0.931 . S
C141 C137 1.323 . S
C141 C140 1.433 . S
C141 H155 0.933 . S
C142 Dy120 2.738 . S
C142 O125 1.255 . S
C142 O126 1.249 . S
C142 C136 1.516 1_556 S
C143 O127 1.254 . S
C143 O128 1.257 . S
C144 O129 1.266 . S
C144 O130 1.236 . S
C145 C148 1.344 . S
C145 C149 1.328 . S
C145 C151 1.516 . S
C146 C147 1.304 . S
C146 C150 1.323 . S
C147 C146 1.304 . S
C147 C148 1.371 . S
C147 H156 0.930 . S
C148 C145 1.344 . S
C148 C147 1.371 . S
C148 H157 0.931 . S
C149 C145 1.328 . S
C149 C150 1.433 . S
C149 H158 0.931 . S
C150 C146 1.323 . S
C150 C149 1.433 . S
C150 H159 0.933 . S
C151 Dy121 2.738 . S
C151 O131 1.255 . S
C151 O132 1.249 . S
C151 C145 1.516 . S
H152 C138 0.930 . S
H153 C139 0.931 . S
H154 C140 0.931 . S
H155 C141 0.933 . S
H156 C147 0.930 . S
H157 C148 0.931 . S
H158 C149 0.931 . S
H159 C150 0.933 . S
Dy160 O163 2.307 . S
Dy160 O165 2.395 . S
Dy160 O166 2.379 . S
Dy160 O168 2.339 . S
Dy160 O170 2.298 1_655 S
Dy160 O174 2.275 1_655 S
Dy160 C182 2.738 . S
Dy161 O164 2.298 . S
Dy161 O167 2.275 . S
Dy161 O169 2.307 . S
Dy161 O171 2.395 . S
Dy161 O172 2.379 . S
Dy161 O175 2.339 . S
Dy161 C191 2.738 1_556 S
C162 O174 1.254 . S
C162 O175 1.257 . S
O163 Dy160 2.307 . S
O163 C173 1.266 . S
O164 Dy161 2.298 . S
O164 C173 1.236 1_455 S
O165 Dy160 2.395 . S
O165 C182 1.255 . S
O166 Dy160 2.379 . S
O166 C182 1.249 . S
O167 Dy161 2.275 . S
O167 C183 1.254 . S
O168 Dy160 2.339 . S
O168 C183 1.257 1_655 S
O169 Dy161 2.307 . S
O169 C184 1.266 . S
O170 Dy160 2.298 1_455 S
O170 C184 1.236 . S
O171 Dy161 2.395 . S
O171 C191 1.255 1_556 S
O172 Dy161 2.379 . S
O172 C191 1.249 1_556 S
C173 O163 1.266 . S
C173 O164 1.236 1_655 S
O174 Dy160 2.275 1_455 S
O174 C162 1.254 . S
O175 Dy161 2.339 . S
O175 C162 1.257 . S
C176 C179 1.344 . S
C176 C180 1.328 . S
C176 C182 1.516 . S
C177 C178 1.304 . S
C177 C181 1.323 . S
C178 C177 1.304 . S
C178 C179 1.371 . S
C178 H192 0.930 . S
C179 C176 1.344 . S
C179 C178 1.371 . S
C179 H193 0.931 . S
C180 C176 1.328 . S
C180 C181 1.433 . S
C180 H194 0.931 . S
C181 C177 1.323 . S
C181 C180 1.433 . S
C181 H195 0.933 . S
C182 Dy160 2.738 . S
C182 O165 1.255 . S
C182 O166 1.249 . S
C182 C176 1.516 . S
C183 O167 1.254 . S
C183 O168 1.257 1_455 S
C184 O169 1.266 . S
C184 O170 1.236 . S
C185 C188 1.344 . S
C185 C189 1.328 . S
C185 C191 1.516 . S
C186 C187 1.304 . S
C186 C190 1.323 . S
C187 C186 1.304 . S
C187 C188 1.371 . S
C187 H196 0.930 . S
C188 C185 1.344 . S
C188 C187 1.371 . S
C188 H197 0.931 . S
C189 C185 1.328 . S
C189 C190 1.433 . S
C189 H198 0.931 . S
C190 C186 1.323 . S
C190 C189 1.433 . S
C190 H199 0.933 . S
C191 Dy161 2.738 1_554 S
C191 O171 1.255 1_554 S
C191 O172 1.249 1_554 S
C191 C185 1.516 . S
H192 C178 0.930 . S
H193 C179 0.931 . S
H194 C180 0.931 . S
H195 C181 0.933 . S
H196 C187 0.930 . S
H197 C188 0.931 . S
H198 C189 0.931 . S
H199 C190 0.933 . S
Dy200 O203 2.307 . S
Dy200 O205 2.395 . S
Dy200 O206 2.379 . S
Dy200 O208 2.339 . S
Dy200 O210 2.298 . S
Dy200 O214 2.275 . S
Dy200 C222 2.738 . S
Dy201 O204 2.298 . S
Dy201 O207 2.275 . S
Dy201 O209 2.307 . S
Dy201 O211 2.395 . S
Dy201 O212 2.379 . S
Dy201 O215 2.339 . S
Dy201 C231 2.738 . S
C202 O214 1.254 . S
C202 O215 1.257 . S
O203 Dy200 2.307 . S
O203 C213 1.266 . S
O204 Dy201 2.298 . S
O204 C213 1.236 . S
O205 Dy200 2.395 . S
O205 C222 1.255 . S
O206 Dy200 2.379 . S
O206 C222 1.249 . S
O207 Dy201 2.275 . S
O207 C223 1.254 . S
O208 Dy200 2.339 . S
O208 C223 1.257 . S
O209 Dy201 2.307 . S
O209 C224 1.266 . S
O210 Dy200 2.298 . S
O210 C224 1.236 . S
O211 Dy201 2.395 . S
O211 C231 1.255 . S
O212 Dy201 2.379 . S
O212 C231 1.249 . S
C213 O203 1.266 . S
C213 O204 1.236 . S
O214 Dy200 2.275 . S
O214 C202 1.254 . S
O215 Dy201 2.339 . S
O215 C202 1.257 . S
C216 C219 1.344 . S
C216 C220 1.328 . S
C216 C222 1.516 1_556 S
C217 C218 1.304 . S
C217 C221 1.323 . S
C218 C217 1.304 . S
C218 C219 1.371 . S
C218 H232 0.930 . S
C219 C216 1.344 . S
C219 C218 1.371 . S
C219 H233 0.931 . S
C220 C216 1.328 . S
C220 C221 1.433 . S
C220 H234 0.931 . S
C221 C217 1.323 . S
C221 C220 1.433 . S
C221 H235 0.933 . S
C222 Dy200 2.738 . S
C222 O205 1.255 . S
C222 O206 1.249 . S
C222 C216 1.516 1_554 S
C223 O207 1.254 . S
C223 O208 1.257 . S
C224 O209 1.266 . S
C224 O210 1.236 . S
C225 C228 1.344 . S
C225 C229 1.328 . S
C225 C231 1.516 . S
C226 C227 1.304 . S
C226 C230 1.323 . S
C227 C226 1.304 . S
C227 C228 1.371 . S
C227 H236 0.930 . S
C228 C225 1.344 . S
C228 C227 1.371 . S
C228 H237 0.931 . S
C229 C225 1.328 . S
C229 C230 1.433 . S
C229 H238 0.931 . S
C230 C226 1.323 . S
C230 C229 1.433 . S
C230 H239 0.933 . S
C231 Dy201 2.738 . S
C231 O211 1.255 . S
C231 O212 1.249 . S
C231 C225 1.516 . S
H232 C218 0.930 . S
H233 C219 0.931 . S
H234 C220 0.931 . S
H235 C221 0.933 . S
H236 C227 0.930 . S
H237 C228 0.931 . S
H238 C229 0.931 . S
H239 C230 0.933 . S
Dy240 O243 2.307 . S
Dy240 O245 2.395 . S
Dy240 O246 2.379 . S
Dy240 O248 2.339 . S
Dy240 O250 2.298 . S
Dy240 O254 2.275 . S
Dy240 C262 2.738 . S
Dy241 O244 2.298 . S
Dy241 O247 2.275 . S
Dy241 O249 2.307 . S
Dy241 O251 2.395 . S
Dy241 O252 2.379 . S
Dy241 O255 2.339 . S
Dy241 C271 2.738 . S
C242 O254 1.254 . S
C242 O255 1.257 . S
O243 Dy240 2.307 . S
O243 C253 1.266 . S
O244 Dy241 2.298 . S
O244 C253 1.236 . S
O245 Dy240 2.395 . S
O245 C262 1.255 . S
O246 Dy240 2.379 . S
O246 C262 1.249 . S
O247 Dy241 2.275 . S
O247 C263 1.254 . S
O248 Dy240 2.339 . S
O248 C263 1.257 . S
O249 Dy241 2.307 . S
O249 C264 1.266 . S
O250 Dy240 2.298 . S
O250 C264 1.236 . S
O251 Dy241 2.395 . S
O251 C271 1.255 . S
O252 Dy241 2.379 . S
O252 C271 1.249 . S
C253 O243 1.266 . S
C253 O244 1.236 . S
O254 Dy240 2.275 . S
O254 C242 1.254 . S
O255 Dy241 2.339 . S
O255 C242 1.257 . S
C256 C259 1.344 . S
C256 C260 1.328 . S
C256 C262 1.516 . S
C257 C258 1.304 . S
C257 C261 1.323 . S
C258 C257 1.304 . S
C258 C259 1.371 . S
C258 H272 0.930 . S
C259 C256 1.344 . S
C259 C258 1.371 . S
C259 H273 0.931 . S
C260 C256 1.328 . S
C260 C261 1.433 . S
C260 H274 0.931 . S
C261 C257 1.323 . S
C261 C260 1.433 . S
C261 H275 0.933 . S
C262 Dy240 2.738 . S
C262 O245 1.255 . S
C262 O246 1.249 . S
C262 C256 1.516 . S
C263 O247 1.254 . S
C263 O248 1.257 . S
C264 O249 1.266 . S
C264 O250 1.236 . S
C265 C268 1.344 . S
C265 C269 1.328 . S
C265 C271 1.516 . S
C266 C267 1.304 . S
C266 C270 1.323 . S
C267 C266 1.304 . S
C267 C268 1.371 . S
C267 H276 0.930 . S
C268 C265 1.344 . S
C268 C267 1.371 . S
C268 H277 0.931 . S
C269 C265 1.328 . S
C269 C270 1.433 . S
C269 H278 0.931 . S
C270 C266 1.323 . S
C270 C269 1.433 . S
C270 H279 0.933 . S
C271 Dy241 2.738 . S
C271 O251 1.255 . S
C271 O252 1.249 . S
C271 C265 1.516 . S
H272 C258 0.930 . S
H273 C259 0.931 . S
H274 C260 0.931 . S
H275 C261 0.933 . S
H276 C267 0.930 . S
H277 C268 0.931 . S
H278 C269 0.931 . S
H279 C270 0.933 . S
Dy280 O283 2.307 . S
Dy280 O285 2.395 . S
Dy280 O286 2.379 . S
Dy280 O288 2.339 . S
Dy280 O290 2.298 . S
Dy280 O294 2.275 . S
Dy280 C302 2.738 . S
Dy281 O284 2.298 . S
Dy281 O287 2.275 . S
Dy281 O289 2.307 . S
Dy281 O291 2.395 . S
Dy281 O292 2.379 . S
Dy281 O295 2.339 . S
Dy281 C311 2.738 . S
C282 O294 1.254 . S
C282 O295 1.257 . S
O283 Dy280 2.307 . S
O283 C293 1.266 . S
O284 Dy281 2.298 . S
O284 C293 1.236 . S
O285 Dy280 2.395 . S
O285 C302 1.255 . S
O286 Dy280 2.379 . S
O286 C302 1.249 . S
O287 Dy281 2.275 . S
O287 C303 1.254 . S
O288 Dy280 2.339 . S
O288 C303 1.257 . S
O289 Dy281 2.307 . S
O289 C304 1.266 . S
O290 Dy280 2.298 . S
O290 C304 1.236 . S
O291 Dy281 2.395 . S
O291 C311 1.255 . S
O292 Dy281 2.379 . S
O292 C311 1.249 . S
C293 O283 1.266 . S
C293 O284 1.236 . S
O294 Dy280 2.275 . S
O294 C282 1.254 . S
O295 Dy281 2.339 . S
O295 C282 1.257 . S
C296 C299 1.344 . S
C296 C300 1.328 . S
C296 C302 1.516 . S
C297 C298 1.304 . S
C297 C301 1.323 . S
C298 C297 1.304 . S
C298 C299 1.371 . S
C298 H312 0.930 . S
C299 C296 1.344 . S
C299 C298 1.371 . S
C299 H313 0.931 . S
C300 C296 1.328 . S
C300 C301 1.433 . S
C300 H314 0.931 . S
C301 C297 1.323 . S
C301 C300 1.433 . S
C301 H315 0.933 . S
C302 Dy280 2.738 . S
C302 O285 1.255 . S
C302 O286 1.249 . S
C302 C296 1.516 . S
C303 O287 1.254 . S
C303 O288 1.257 . S
C304 O289 1.266 . S
C304 O290 1.236 . S
C305 C308 1.344 . S
C305 C309 1.328 . S
C305 C311 1.516 . S
C306 C307 1.304 . S
C306 C310 1.323 . S
C307 C306 1.304 . S
C307 C308 1.371 . S
C307 H316 0.930 . S
C308 C305 1.344 . S
C308 C307 1.371 . S
C308 H317 0.931 . S
C309 C305 1.328 . S
C309 C310 1.433 . S
C309 H318 0.931 . S
C310 C306 1.323 . S
C310 C309 1.433 . S
C310 H319 0.933 . S
C311 Dy281 2.738 . S
C311 O291 1.255 . S
C311 O292 1.249 . S
C311 C305 1.516 . S
H312 C298 0.930 . S
H313 C299 0.931 . S
H314 C300 0.931 . S
H315 C301 0.933 . S
H316 C307 0.930 . S
H317 C308 0.931 . S
H318 C309 0.931 . S
H319 C310 0.933 . S
Dy320 O323 2.307 . S
Dy320 O325 2.395 . S
Dy320 O326 2.379 . S
Dy320 O328 2.339 . S
Dy320 O330 2.298 . S
Dy320 O334 2.275 . S
Dy320 C342 2.738 . S
Dy321 O324 2.298 . S
Dy321 O327 2.275 . S
Dy321 O329 2.307 . S
Dy321 O331 2.395 . S
Dy321 O332 2.379 . S
Dy321 O335 2.339 . S
Dy321 C351 2.738 . S
C322 O334 1.254 . S
C322 O335 1.257 . S
O323 Dy320 2.307 . S
O323 C333 1.266 . S
O324 Dy321 2.298 . S
O324 C333 1.236 . S
O325 Dy320 2.395 . S
O325 C342 1.255 . S
O326 Dy320 2.379 . S
O326 C342 1.249 . S
O327 Dy321 2.275 . S
O327 C343 1.254 . S
O328 Dy320 2.339 . S
O328 C343 1.257 . S
O329 Dy321 2.307 . S
O329 C344 1.266 . S
O330 Dy320 2.298 . S
O330 C344 1.236 . S
O331 Dy321 2.395 . S
O331 C351 1.255 . S
O332 Dy321 2.379 . S
O332 C351 1.249 . S
C333 O323 1.266 . S
C333 O324 1.236 . S
O334 Dy320 2.275 . S
O334 C322 1.254 . S
O335 Dy321 2.339 . S
O335 C322 1.257 . S
C336 C339 1.344 . S
C336 C340 1.328 . S
C336 C342 1.516 . S
C337 C338 1.304 . S
C337 C341 1.323 . S
C338 C337 1.304 . S
C338 C339 1.371 . S
C338 H352 0.930 . S
C339 C336 1.344 . S
C339 C338 1.371 . S
C339 H353 0.931 . S
C340 C336 1.328 . S
C340 C341 1.433 . S
C340 H354 0.931 . S
C341 C337 1.323 . S
C341 C340 1.433 . S
C341 H355 0.933 . S
C342 Dy320 2.738 . S
C342 O325 1.255 . S
C342 O326 1.249 . S
C342 C336 1.516 . S
C343 O327 1.254 . S
C343 O328 1.257 . S
C344 O329 1.266 . S
C344 O330 1.236 . S
C345 C348 1.344 . S
C345 C349 1.328 . S
C345 C351 1.516 . S
C346 C347 1.304 . S
C346 C350 1.323 . S
C347 C346 1.304 . S
C347 C348 1.371 . S
C347 H356 0.930 . S
C348 C345 1.344 . S
C348 C347 1.371 . S
C348 H357 0.931 . S
C349 C345 1.328 . S
C349 C350 1.433 . S
C349 H358 0.931 . S
C350 C346 1.323 . S
C350 C349 1.433 . S
C350 H359 0.933 . S
C351 Dy321 2.738 . S
C351 O331 1.255 . S
C351 O332 1.249 . S
C351 C345 1.516 . S
H352 C338 0.930 . S
H353 C339 0.931 . S
H354 C340 0.931 . S
H355 C341 0.933 . S
H356 C347 0.930 . S
H357 C348 0.931 . S
H358 C349 0.931 . S
H359 C350 0.933 . S
Dy360 O363 2.307 . S
Dy360 O365 2.395 . S
Dy360 O366 2.379 . S
Dy360 O368 2.339 . S
Dy360 O370 2.298 . S
Dy360 O374 2.275 . S
Dy360 C382 2.738 . S
Dy361 O364 2.298 . S
Dy361 O367 2.275 . S
Dy361 O369 2.307 . S
Dy361 O371 2.395 . S
Dy361 O372 2.379 . S
Dy361 O375 2.339 . S
Dy361 C391 2.738 . S
C362 O374 1.254 . S
C362 O375 1.257 . S
O363 Dy360 2.307 . S
O363 C373 1.266 . S
O364 Dy361 2.298 . S
O364 C373 1.236 . S
O365 Dy360 2.395 . S
O365 C382 1.255 . S
O366 Dy360 2.379 . S
O366 C382 1.249 . S
O367 Dy361 2.275 . S
O367 C383 1.254 . S
O368 Dy360 2.339 . S
O368 C383 1.257 . S
O369 Dy361 2.307 . S
O369 C384 1.266 . S
O370 Dy360 2.298 . S
O370 C384 1.236 . S
O371 Dy361 2.395 . S
O371 C391 1.255 . S
O372 Dy361 2.379 . S
O372 C391 1.249 . S
C373 O363 1.266 . S
C373 O364 1.236 . S
O374 Dy360 2.275 . S
O374 C362 1.254 . S
O375 Dy361 2.339 . S
O375 C362 1.257 . S
C376 C379 1.344 . S
C376 C380 1.328 . S
C376 C382 1.516 1_556 S
C377 C378 1.304 . S
C377 C381 1.323 . S
C378 C377 1.304 . S
C378 C379 1.371 . S
C378 H392 0.930 . S
C379 C376 1.344 . S
C379 C378 1.371 . S
C379 H393 0.931 . S
C380 C376 1.328 . S
C380 C381 1.433 . S
C380 H394 0.931 . S
C381 C377 1.323 . S
C381 C380 1.433 . S
C381 H395 0.933 . S
C382 Dy360 2.738 . S
C382 O365 1.255 . S
C382 O366 1.249 . S
C382 C376 1.516 1_554 S
C383 O367 1.254 . S
C383 O368 1.257 . S
C384 O369 1.266 . S
C384 O370 1.236 . S
C385 C388 1.344 . S
C385 C389 1.328 . S
C385 C391 1.516 . S
C386 C387 1.304 . S
C386 C390 1.323 . S
C387 C386 1.304 . S
C387 C388 1.371 . S
C387 H396 0.930 . S
C388 C385 1.344 . S
C388 C387 1.371 . S
C388 H397 0.931 . S
C389 C385 1.328 . S
C389 C390 1.433 . S
C389 H398 0.931 . S
C390 C386 1.323 . S
C390 C389 1.433 . S
C390 H399 0.933 . S
C391 Dy361 2.738 . S
C391 O371 1.255 . S
C391 O372 1.249 . S
C391 C385 1.516 . S
H392 C378 0.930 . S
H393 C379 0.931 . S
H394 C380 0.931 . S
H395 C381 0.933 . S
H396 C387 0.930 . S
H397 C388 0.931 . S
H398 C389 0.931 . S
H399 C390 0.933 . S
Dy400 O403 2.307 . S
Dy400 O405 2.395 . S
Dy400 O406 2.379 . S
Dy400 O408 2.339 . S
Dy400 O410 2.298 . S
Dy400 O414 2.275 . S
Dy400 C422 2.738 . S
Dy401 O404 2.298 . S
Dy401 O407 2.275 . S
Dy401 O409 2.307 . S
Dy401 O411 2.395 . S
Dy401 O412 2.379 . S
Dy401 O415 2.339 . S
Dy401 C431 2.738 . S
C402 O414 1.254 . S
C402 O415 1.257 . S
O403 Dy400 2.307 . S
O403 C413 1.266 . S
O404 Dy401 2.298 . S
O404 C413 1.236 . S
O405 Dy400 2.395 . S
O405 C422 1.255 . S
O406 Dy400 2.379 . S
O406 C422 1.249 . S
O407 Dy401 2.275 . S
O407 C423 1.254 . S
O408 Dy400 2.339 . S
O408 C423 1.257 . S
O409 Dy401 2.307 . S
O409 C424 1.266 . S
O410 Dy400 2.298 . S
O410 C424 1.236 . S
O411 Dy401 2.395 . S
O411 C431 1.255 . S
O412 Dy401 2.379 . S
O412 C431 1.249 . S
C413 O403 1.266 . S
C413 O404 1.236 . S
O414 Dy400 2.275 . S
O414 C402 1.254 . S
O415 Dy401 2.339 . S
O415 C402 1.257 . S
C416 C419 1.344 . S
C416 C420 1.328 . S
C416 C422 1.516 1_554 S
C417 C418 1.304 . S
C417 C421 1.323 . S
C418 C417 1.304 . S
C418 C419 1.371 . S
C418 H432 0.930 . S
C419 C416 1.344 . S
C419 C418 1.371 . S
C419 H433 0.931 . S
C420 C416 1.328 . S
C420 C421 1.433 . S
C420 H434 0.931 . S
C421 C417 1.323 . S
C421 C420 1.433 . S
C421 H435 0.933 . S
C422 Dy400 2.738 . S
C422 O405 1.255 . S
C422 O406 1.249 . S
C422 C416 1.516 1_556 S
C423 O407 1.254 . S
C423 O408 1.257 . S
C424 O409 1.266 . S
C424 O410 1.236 . S
C425 C428 1.344 . S
C425 C429 1.328 . S
C425 C431 1.516 . S
C426 C427 1.304 . S
C426 C430 1.323 . S
C427 C426 1.304 . S
C427 C428 1.371 . S
C427 H436 0.930 . S
C428 C425 1.344 . S
C428 C427 1.371 . S
C428 H437 0.931 . S
C429 C425 1.328 . S
C429 C430 1.433 . S
C429 H438 0.931 . S
C430 C426 1.323 . S
C430 C429 1.433 . S
C430 H439 0.933 . S
C431 Dy401 2.738 . S
C431 O411 1.255 . S
C431 O412 1.249 . S
C431 C425 1.516 . S
H432 C418 0.930 . S
H433 C419 0.931 . S
H434 C420 0.931 . S
H435 C421 0.933 . S
H436 C427 0.930 . S
H437 C428 0.931 . S
H438 C429 0.931 . S
H439 C430 0.933 . S
Dy440 O443 2.307 . S
Dy440 O445 2.395 . S
Dy440 O446 2.379 . S
Dy440 O448 2.339 . S
Dy440 O450 2.298 . S
Dy440 O454 2.275 . S
Dy440 C462 2.738 . S
Dy441 O444 2.298 . S
Dy441 O447 2.275 . S
Dy441 O449 2.307 . S
Dy441 O451 2.395 . S
Dy441 O452 2.379 . S
Dy441 O455 2.339 . S
Dy441 C471 2.738 . S
C442 O454 1.254 . S
C442 O455 1.257 . S
O443 Dy440 2.307 . S
O443 C453 1.266 . S
O444 Dy441 2.298 . S
O444 C453 1.236 . S
O445 Dy440 2.395 . S
O445 C462 1.255 . S
O446 Dy440 2.379 . S
O446 C462 1.249 . S
O447 Dy441 2.275 . S
O447 C463 1.254 . S
O448 Dy440 2.339 . S
O448 C463 1.257 . S
O449 Dy441 2.307 . S
O449 C464 1.266 . S
O450 Dy440 2.298 . S
O450 C464 1.236 . S
O451 Dy441 2.395 . S
O451 C471 1.255 . S
O452 Dy441 2.379 . S
O452 C471 1.249 . S
C453 O443 1.266 . S
C453 O444 1.236 . S
O454 Dy440 2.275 . S
O454 C442 1.254 . S
O455 Dy441 2.339 . S
O455 C442 1.257 . S
C456 C459 1.344 . S
C456 C460 1.328 . S
C456 C462 1.516 . S
C457 C458 1.304 . S
C457 C461 1.323 . S
C458 C457 1.304 . S
C458 C459 1.371 . S
C458 H472 0.930 . S
C459 C456 1.344 . S
C459 C458 1.371 . S
C459 H473 0.931 . S
C460 C456 1.328 . S
C460 C461 1.433 . S
C460 H474 0.931 . S
C461 C457 1.323 . S
C461 C460 1.433 . S
C461 H475 0.933 . S
C462 Dy440 2.738 . S
C462 O445 1.255 . S
C462 O446 1.249 . S
C462 C456 1.516 . S
C463 O447 1.254 . S
C463 O448 1.257 . S
C464 O449 1.266 . S
C464 O450 1.236 . S
C465 C468 1.344 . S
C465 C469 1.328 . S
C465 C471 1.516 . S
C466 C467 1.304 . S
C466 C470 1.323 . S
C467 C466 1.304 . S
C467 C468 1.371 . S
C467 H476 0.930 . S
C468 C465 1.344 . S
C468 C467 1.371 . S
C468 H477 0.931 . S
C469 C465 1.328 . S
C469 C470 1.433 . S
C469 H478 0.931 . S
C470 C466 1.323 . S
C470 C469 1.433 . S
C470 H479 0.933 . S
C471 Dy441 2.738 . S
C471 O451 1.255 . S
C471 O452 1.249 . S
C471 C465 1.516 . S
H472 C458 0.930 . S
H473 C459 0.931 . S
H474 C460 0.931 . S
H475 C461 0.933 . S
H476 C467 0.930 . S
H477 C468 0.931 . S
H478 C469 0.931 . S
H479 C470 0.933 . S
Dy480 O483 2.307 . S
Dy480 O485 2.395 . S
Dy480 O486 2.379 . S
Dy480 O488 2.339 . S
Dy480 O490 2.298 . S
Dy480 O494 2.275 . S
Dy480 C502 2.738 . S
Dy481 O484 2.298 . S
Dy481 O487 2.275 . S
Dy481 O489 2.307 . S
Dy481 O491 2.395 . S
Dy481 O492 2.379 . S
Dy481 O495 2.339 . S
Dy481 C511 2.738 . S
C482 O494 1.254 . S
C482 O495 1.257 . S
O483 Dy480 2.307 . S
O483 C493 1.266 . S
O484 Dy481 2.298 . S
O484 C493 1.236 . S
O485 Dy480 2.395 . S
O485 C502 1.255 . S
O486 Dy480 2.379 . S
O486 C502 1.249 . S
O487 Dy481 2.275 . S
O487 C503 1.254 . S
O488 Dy480 2.339 . S
O488 C503 1.257 . S
O489 Dy481 2.307 . S
O489 C504 1.266 . S
O490 Dy480 2.298 . S
O490 C504 1.236 . S
O491 Dy481 2.395 . S
O491 C511 1.255 . S
O492 Dy481 2.379 . S
O492 C511 1.249 . S
C493 O483 1.266 . S
C493 O484 1.236 . S
O494 Dy480 2.275 . S
O494 C482 1.254 . S
O495 Dy481 2.339 . S
O495 C482 1.257 . S
C496 C499 1.344 . S
C496 C500 1.328 . S
C496 C502 1.516 . S
C497 C498 1.304 . S
C497 C501 1.323 . S
C498 C497 1.304 . S
C498 C499 1.371 . S
C498 H512 0.930 . S
C499 C496 1.344 . S
C499 C498 1.371 . S
C499 H513 0.931 . S
C500 C496 1.328 . S
C500 C501 1.433 . S
C500 H514 0.931 . S
C501 C497 1.323 . S
C501 C500 1.433 . S
C501 H515 0.933 . S
C502 Dy480 2.738 . S
C502 O485 1.255 . S
C502 O486 1.249 . S
C502 C496 1.516 . S
C503 O487 1.254 . S
C503 O488 1.257 . S
C504 O489 1.266 . S
C504 O490 1.236 . S
C505 C508 1.344 . S
C505 C509 1.328 . S
C505 C511 1.516 . S
C506 C507 1.304 . S
C506 C510 1.323 . S
C507 C506 1.304 . S
C507 C508 1.371 . S
C507 H516 0.930 . S
C508 C505 1.344 . S
C508 C507 1.371 . S
C508 H517 0.931 . S
C509 C505 1.328 . S
C509 C510 1.433 . S
C509 H518 0.931 . S
C510 C506 1.323 . S
C510 C509 1.433 . S
C510 H519 0.933 . S
C511 Dy481 2.738 . S
C511 O491 1.255 . S
C511 O492 1.249 . S
C511 C505 1.516 . S
H512 C498 0.930 . S
H513 C499 0.931 . S
H514 C500 0.931 . S
H515 C501 0.933 . S
H516 C507 0.930 . S
H517 C508 0.931 . S
H518 C509 0.931 . S
H519 C510 0.933 . S
Dy520 O523 2.307 . S
Dy520 O525 2.395 . S
Dy520 O526 2.379 . S
Dy520 O528 2.339 . S
Dy520 O530 2.317 . S
Dy520 O534 2.275 . S
Dy520 C542 2.738 . S
Dy521 O524 2.298 1_655 S
Dy521 O527 2.275 . S
Dy521 O529 2.307 . S
Dy521 O531 2.395 . S
Dy521 O532 2.379 . S
Dy521 O535 2.339 . S
Dy521 C551 2.738 1_554 S
C522 O534 1.254 . S
C522 O535 1.257 1_455 S
O523 Dy520 2.307 . S
O523 C533 1.266 . S
O524 Dy521 2.298 1_455 S
O524 C533 1.236 . S
O525 Dy520 2.395 . S
O525 C542 1.255 . S
O526 Dy520 2.379 . S
O526 C542 1.249 . S
O527 Dy521 2.275 . S
O527 C543 1.254 1_655 S
O528 Dy520 2.339 . S
O528 C543 1.257 . S
O529 Dy521 2.307 . S
O529 C544 1.266 . S
O530 Dy520 2.317 . S
O530 C544 1.214 1_455 S
O531 Dy521 2.395 . S
O531 C551 1.255 1_554 S
O532 Dy521 2.379 . S
O532 C551 1.249 1_554 S
C533 O523 1.266 . S
C533 O524 1.236 . S
O534 Dy520 2.275 . S
O534 C522 1.254 . S
O535 Dy521 2.339 . S
O535 C522 1.257 1_655 S
C536 C539 1.344 . S
C536 C540 1.328 . S
C536 C542 1.516 . S
C537 C538 1.304 . S
C537 C541 1.323 . S
C538 C537 1.304 . S
C538 C539 1.371 . S
C538 H552 0.930 . S
C539 C536 1.344 . S
C539 C538 1.371 . S
C539 H553 0.931 . S
C540 C536 1.328 . S
C540 C541 1.433 . S
C540 H554 0.931 . S
C541 C537 1.323 . S
C541 C540 1.433 . S
C541 H555 0.933 . S
C542 Dy520 2.738 . S
C542 O525 1.255 . S
C542 O526 1.249 . S
C542 C536 1.516 . S
C543 O527 1.254 1_455 S
C543 O528 1.257 . S
C544 O529 1.266 . S
C544 O530 1.214 1_655 S
C545 C548 1.344 . S
C545 C549 1.328 . S
C545 C551 1.516 . S
C546 C547 1.304 . S
C546 C550 1.323 . S
C547 C546 1.304 . S
C547 C548 1.371 . S
C547 H556 0.930 . S
C548 C545 1.344 . S
C548 C547 1.371 . S
C548 H557 0.931 . S
C549 C545 1.328 . S
C549 C550 1.433 . S
C549 H558 0.931 . S
C550 C546 1.323 . S
C550 C549 1.433 . S
C550 H559 0.933 . S
C551 Dy521 2.738 1_556 S
C551 O531 1.255 1_556 S
C551 O532 1.249 1_556 S
C551 C545 1.516 . S
H552 C538 0.930 . S
H553 C539 0.931 . S
H554 C540 0.931 . S
H555 C541 0.933 . S
H556 C547 0.930 . S
H557 C548 0.931 . S
H558 C549 0.931 . S
H559 C550 0.933 . S
Dy560 O563 2.307 . S
Dy560 O565 2.395 . S
Dy560 O566 2.379 . S
Dy560 O568 2.339 . S
Dy560 O570 2.298 . S
Dy560 O574 2.275 . S
Dy560 C582 2.738 . S
Dy561 O564 2.298 . S
Dy561 O567 2.275 . S
Dy561 O569 2.307 . S
Dy561 O571 2.395 . S
Dy561 O572 2.379 . S
Dy561 O575 2.339 . S
Dy561 C591 2.738 . S
C562 O574 1.254 . S
C562 O575 1.257 . S
O563 Dy560 2.307 . S
O563 C573 1.266 . S
O564 Dy561 2.298 . S
O564 C573 1.236 . S
O565 Dy560 2.395 . S
O565 C582 1.255 . S
O566 Dy560 2.379 . S
O566 C582 1.249 . S
O567 Dy561 2.275 . S
O567 C583 1.254 . S
O568 Dy560 2.339 . S
O568 C583 1.257 . S
O569 Dy561 2.307 . S
O569 C584 1.266 . S
O570 Dy560 2.298 . S
O570 C584 1.236 . S
O571 Dy561 2.395 . S
O571 C591 1.255 . S
O572 Dy561 2.379 . S
O572 C591 1.249 . S
C573 O563 1.266 . S
C573 O564 1.236 . S
O574 Dy560 2.275 . S
O574 C562 1.254 . S
O575 Dy561 2.339 . S
O575 C562 1.257 . S
C576 C579 1.344 . S
C576 C580 1.328 . S
C576 C582 1.516 . S
C577 C578 1.304 . S
C577 C581 1.323 . S
C578 C577 1.304 . S
C578 C579 1.371 . S
C578 H592 0.930 . S
C579 C576 1.344 . S
C579 C578 1.371 . S
C579 H593 0.931 . S
C580 C576 1.328 . S
C580 C581 1.433 . S
C580 H594 0.931 . S
C581 C577 1.323 . S
C581 C580 1.433 . S
C581 H595 0.933 . S
C582 Dy560 2.738 . S
C582 O565 1.255 . S
C582 O566 1.249 . S
C582 C576 1.516 . S
C583 O567 1.254 . S
C583 O568 1.257 . S
C584 O569 1.266 . S
C584 O570 1.236 . S
C585 C588 1.344 . S
C585 C589 1.328 . S
C585 C591 1.516 . S
C586 C587 1.304 . S
C586 C590 1.323 . S
C587 C586 1.304 . S
C587 C588 1.371 . S
C587 H596 0.930 . S
C588 C585 1.344 . S
C588 C587 1.371 . S
C588 H597 0.931 . S
C589 C585 1.328 . S
C589 C590 1.433 . S
C589 H598 0.931 . S
C590 C586 1.323 . S
C590 C589 1.433 . S
C590 H599 0.933 . S
C591 Dy561 2.738 . S
C591 O571 1.255 . S
C591 O572 1.249 . S
C591 C585 1.516 . S
H592 C578 0.930 . S
H593 C579 0.931 . S
H594 C580 0.931 . S
H595 C581 0.933 . S
H596 C587 0.930 . S
H597 C588 0.931 . S
H598 C589 0.931 . S
H599 C590 0.933 . S
Dy600 O603 2.307 . S
Dy600 O605 2.395 . S
Dy600 O606 2.379 . S
Dy600 O608 2.339 . S
Dy600 O610 2.317 . S
Dy600 O614 2.275 . S
Dy600 C622 2.738 . S
Dy601 O604 2.298 1_655 S
Dy601 O607 2.275 . S
Dy601 O609 2.307 . S
Dy601 O611 2.395 . S
Dy601 O612 2.379 . S
Dy601 O615 2.339 . S
Dy601 C631 2.738 1_556 S
C602 O614 1.254 . S
C602 O615 1.257 1_455 S
O603 Dy600 2.307 . S
O603 C613 1.266 . S
O604 Dy601 2.298 1_455 S
O604 C613 1.236 . S
O605 Dy600 2.395 . S
O605 C622 1.255 . S
O606 Dy600 2.379 . S
O606 C622 1.249 . S
O607 Dy601 2.275 . S
O607 C623 1.254 1_655 S
O608 Dy600 2.339 . S
O608 C623 1.257 . S
O609 Dy601 2.307 . S
O609 C624 1.266 . S
O610 Dy600 2.317 . S
O610 C624 1.214 1_455 S
O611 Dy601 2.395 . S
O611 C631 1.255 1_556 S
O612 Dy601 2.379 . S
O612 C631 1.249 1_556 S
C613 O603 1.266 . S
C613 O604 1.236 . S
O614 Dy600 2.275 . S
O614 C602 1.254 . S
O615 Dy601 2.339 . S
O615 C602 1.257 1_655 S
C616 C619 1.344 . S
C616 C620 1.328 . S
C616 C622 1.516 . S
C617 C618 1.304 . S
C617 C621 1.323 . S
C618 C617 1.304 . S
C618 C619 1.371 . S
C618 H632 0.930 . S
C619 C616 1.344 . S
C619 C618 1.371 . S
C619 H633 0.931 . S
C620 C616 1.328 . S
C620 C621 1.433 . S
C620 H634 0.931 . S
C621 C617 1.323 . S
C621 C620 1.433 . S
C621 H635 0.933 . S
C622 Dy600 2.738 . S
C622 O605 1.255 . S
C622 O606 1.249 . S
C622 C616 1.516 . S
C623 O607 1.254 1_455 S
C623 O608 1.257 . S
C624 O609 1.266 . S
C624 O610 1.214 1_655 S
C625 C628 1.344 . S
C625 C629 1.328 . S
C625 C631 1.516 . S
C626 C627 1.304 . S
C626 C630 1.323 . S
C627 C626 1.304 . S
C627 C628 1.371 . S
C627 H636 0.930 . S
C628 C625 1.344 . S
C628 C627 1.371 . S
C628 H637 0.931 . S
C629 C625 1.328 . S
C629 C630 1.433 . S
C629 H638 0.931 . S
C630 C626 1.323 . S
C630 C629 1.433 . S
C630 H639 0.933 . S
C631 Dy601 2.738 1_554 S
C631 O611 1.255 1_554 S
C631 O612 1.249 1_554 S
C631 C625 1.516 . S
H632 C618 0.930 . S
H633 C619 0.931 . S
H634 C620 0.931 . S
H635 C621 0.933 . S
H636 C627 0.930 . S
H637 C628 0.931 . S
H638 C629 0.931 . S
H639 C630 0.933 . S
C640 C641 1.363 . S
C640 C646 1.379 . S
C640 N648 1.356 . S
C641 C640 1.363 . S
C641 C647 1.363 . S
C642 C643 1.363 . S
C642 C647 1.379 . S
C642 N649 1.356 . S
C643 C642 1.363 . S
C643 C646 1.363 . S
N644 C646 1.356 . S
N644 H656 0.984 . S
N644 H657 0.985 . S
N645 C647 1.356 . S
N645 H650 0.984 . S
N645 H651 0.985 . S
C646 C640 1.379 . S
C646 C643 1.363 . S
C646 N644 1.356 . S
C647 C641 1.363 . S
C647 C642 1.379 . S
C647 N645 1.356 . S
N648 C640 1.356 . S
N648 H654 0.984 . S
N648 H655 0.984 . S
N649 C642 1.356 . S
N649 H652 0.984 . S
N649 H653 0.985 . S
H650 N645 0.984 . S
H651 N645 0.985 . S
H652 N649 0.984 . S
H653 N649 0.985 . S
H654 N648 0.984 . S
H655 N648 0.984 . S
H656 N644 0.984 . S
H657 N644 0.985 . S
C658 C659 1.363 . S
C658 C664 1.379 . S
C658 N666 1.356 . S
C659 C658 1.363 . S
C659 C665 1.363 . S
C660 C661 1.363 . S
C660 C665 1.379 . S
C660 N667 1.356 . S
C661 C660 1.363 . S
C661 C664 1.363 . S
N662 C664 1.356 . S
N662 H674 0.984 . S
N662 H675 0.985 . S
N663 C665 1.356 . S
N663 H668 0.984 . S
N663 H669 0.985 . S
C664 C658 1.379 . S
C664 C661 1.363 . S
C664 N662 1.356 . S
C665 C659 1.363 . S
C665 C660 1.379 . S
C665 N663 1.356 . S
N666 C658 1.356 . S
N666 H672 0.984 . S
N666 H673 0.984 . S
N667 C660 1.356 . S
N667 H670 0.984 . S
N667 H671 0.985 . S
H668 N663 0.984 . S
H669 N663 0.985 . S
H670 N667 0.984 . S
H671 N667 0.985 . S
H672 N666 0.984 . S
H673 N666 0.984 . S
H674 N662 0.984 . S
H675 N662 0.985 . S
C676 C677 1.363 . S
C676 C682 1.379 . S
C676 N684 1.356 . S
C677 C676 1.363 . S
C677 C683 1.363 . S
C678 C679 1.363 . S
C678 C683 1.379 . S
C678 N685 1.356 . S
C679 C678 1.363 . S
C679 C682 1.363 . S
N680 C682 1.356 . S
N680 H692 0.984 . S
N680 H693 0.985 . S
N681 C683 1.356 . S
N681 H686 0.984 . S
N681 H687 0.985 . S
C682 C676 1.379 . S
C682 C679 1.363 . S
C682 N680 1.356 . S
C683 C677 1.363 . S
C683 C678 1.379 . S
C683 N681 1.356 . S
N684 C676 1.356 . S
N684 H690 0.984 . S
N684 H691 0.984 . S
N685 C678 1.356 . S
N685 H688 0.984 . S
N685 H689 0.985 . S
H686 N681 0.984 . S
H687 N681 0.985 . S
H688 N685 0.984 . S
H689 N685 0.985 . S
H690 N684 0.984 . S
H691 N684 0.984 . S
H692 N680 0.984 . S
H693 N680 0.985 . S
C694 C695 1.363 . S
C694 C700 1.379 . S
C694 N702 1.356 . S
C695 C694 1.363 . S
C695 C701 1.363 . S
C696 C697 1.363 . S
C696 C701 1.379 . S
C696 N703 1.356 . S
C697 C696 1.363 . S
C697 C700 1.363 . S
N698 C700 1.356 . S
N698 H710 0.984 . S
N698 H711 0.985 . S
N699 C701 1.356 . S
N699 H704 0.984 . S
N699 H705 0.985 . S
C700 C694 1.379 . S
C700 C697 1.363 . S
C700 N698 1.356 . S
C701 C695 1.363 . S
C701 C696 1.379 . S
C701 N699 1.356 . S
N702 C694 1.356 . S
N702 H708 0.984 . S
N702 H709 0.984 . S
N703 C696 1.356 . S
N703 H706 0.984 . S
N703 H707 0.985 . S
H704 N699 0.984 . S
H705 N699 0.985 . S
H706 N703 0.984 . S
H707 N703 0.985 . S
H708 N702 0.984 . S
H709 N702 0.984 . S
H710 N698 0.984 . S
H711 N698 0.985 . S
C712 C713 1.363 . S
C712 C718 1.379 . S
C712 N720 1.356 . S
C713 C712 1.363 . S
C713 C719 1.363 . S
C714 C715 1.363 . S
C714 C719 1.379 . S
C714 N721 1.356 . S
C715 C714 1.363 . S
C715 C718 1.363 . S
N716 C718 1.356 . S
N716 H728 0.984 . S
N716 H729 0.985 . S
N717 C719 1.356 . S
N717 H722 0.984 . S
N717 H723 0.985 . S
C718 C712 1.379 . S
C718 C715 1.363 . S
C718 N716 1.356 . S
C719 C713 1.363 . S
C719 C714 1.379 . S
C719 N717 1.356 . S
N720 C712 1.356 . S
N720 H726 0.984 . S
N720 H727 0.984 . S
N721 C714 1.356 . S
N721 H724 0.984 . S
N721 H725 0.985 1_655 S
H722 N717 0.984 . S
H723 N717 0.985 . S
H724 N721 0.984 . S
H725 N721 0.985 1_455 S
H726 N720 0.984 . S
H727 N720 0.984 . S
H728 N716 0.984 . S
H729 N716 0.985 . S
C730 C731 1.363 . S
C730 C736 1.379 . S
C730 N738 1.356 . S
C731 C730 1.363 . S
C731 C737 1.363 . S
C732 C733 1.363 . S
C732 C737 1.379 . S
C732 N739 1.356 . S
C733 C732 1.363 . S
C733 C736 1.363 . S
N734 C736 1.356 . S
N734 H746 0.984 . S
N734 H747 0.985 . S
N735 C737 1.356 . S
N735 H740 0.984 . S
N735 H741 0.985 . S
C736 C730 1.379 . S
C736 C733 1.363 . S
C736 N734 1.356 . S
C737 C731 1.363 . S
C737 C732 1.379 . S
C737 N735 1.356 . S
N738 C730 1.356 . S
N738 H744 0.984 . S
N738 H745 0.984 . S
N739 C732 1.356 . S
N739 H742 0.984 . S
N739 H743 0.985 . S
H740 N735 0.984 . S
H741 N735 0.985 . S
H742 N739 0.984 . S
H743 N739 0.985 . S
H744 N738 0.984 . S
H745 N738 0.984 . S
H746 N734 0.984 . S
H747 N734 0.985 . S
C748 C749 1.363 . S
C748 C754 1.379 . S
C748 N756 1.356 . S
C749 C748 1.363 . S
C749 C755 1.363 . S
C750 C751 1.363 . S
C750 C755 1.379 . S
C750 N757 1.356 . S
C751 C750 1.363 . S
C751 C754 1.363 . S
N752 C754 1.356 . S
N752 H764 0.984 . S
N752 H765 0.985 . S
N753 C755 1.356 . S
N753 H758 0.984 . S
N753 H759 0.985 . S
C754 C748 1.379 . S
C754 C751 1.363 . S
C754 N752 1.356 . S
C755 C749 1.363 . S
C755 C750 1.379 . S
C755 N753 1.356 . S
N756 C748 1.356 . S
N756 H762 0.984 . S
N756 H763 0.984 . S
N757 C750 1.356 . S
N757 H760 0.984 . S
N757 H761 0.985 . S
H758 N753 0.984 . S
H759 N753 0.985 . S
H760 N757 0.984 . S
H761 N757 0.985 . S
H762 N756 0.984 . S
H763 N756 0.984 . S
H764 N752 0.984 . S
H765 N752 0.985 . S
C766 C767 1.363 . S
C766 C772 1.379 . S
C766 N774 1.356 . S
C767 C766 1.363 . S
C767 C773 1.363 . S
C768 C769 1.363 . S
C768 C773 1.379 . S
C768 N775 1.356 . S
C769 C768 1.363 . S
C769 C772 1.363 . S
N770 C772 1.356 . S
N770 H782 0.984 . S
N770 H783 0.985 . S
N771 C773 1.356 . S
N771 H776 0.984 . S
N771 H777 0.985 . S
C772 C766 1.379 . S
C772 C769 1.363 . S
C772 N770 1.356 . S
C773 C767 1.363 . S
C773 C768 1.379 . S
C773 N771 1.356 . S
N774 C766 1.356 . S
N774 H780 0.984 . S
N774 H781 0.984 . S
N775 C768 1.356 . S
N775 H778 0.984 . S
N775 H779 0.985 . S
H776 N771 0.984 . S
H777 N771 0.985 . S
H778 N775 0.984 . S
H779 N775 0.985 . S
H780 N774 0.984 . S
H781 N774 0.984 . S
H782 N770 0.984 . S
H783 N770 0.985 . S
C784 C785 1.363 . S
C784 C790 1.379 . S
C784 N792 1.356 . S
C785 C784 1.363 . S
C785 C791 1.363 . S
C786 C787 1.363 . S
C786 C791 1.379 . S
C786 N793 1.356 . S
C787 C786 1.363 . S
C787 C790 1.363 . S
N788 C790 1.356 . S
N788 H800 0.984 . S
N788 H801 0.985 . S
N789 C791 1.356 . S
N789 H794 0.984 . S
N789 H795 0.985 . S
C790 C784 1.379 . S
C790 C787 1.363 . S
C790 N788 1.356 . S
C791 C785 1.363 . S
C791 C786 1.379 . S
C791 N789 1.356 . S
N792 C784 1.356 . S
N792 H798 0.984 . S
N792 H799 0.984 . S
N793 C786 1.356 . S
N793 H796 0.984 . S
N793 H797 0.985 . S
H794 N789 0.984 . S
H795 N789 0.985 . S
H796 N793 0.984 . S
H797 N793 0.985 . S
H798 N792 0.984 . S
H799 N792 0.984 . S
H800 N788 0.984 . S
H801 N788 0.985 . S
C802 C803 1.363 . S
C802 C808 1.379 . S
C802 N810 1.356 . S
C803 C802 1.363 . S
C803 C809 1.363 . S
C804 C805 1.363 . S
C804 C809 1.379 . S
C804 N811 1.356 . S
C805 C804 1.363 . S
C805 C808 1.363 . S
N806 C808 1.356 . S
N806 H818 0.984 . S
N806 H819 0.985 . S
N807 C809 1.356 . S
N807 H812 0.984 . S
N807 H813 0.985 . S
C808 C802 1.379 . S
C808 C805 1.363 . S
C808 N806 1.356 . S
C809 C803 1.363 . S
C809 C804 1.379 . S
C809 N807 1.356 . S
N810 C802 1.356 . S
N810 H816 0.984 . S
N810 H817 0.984 . S
N811 C804 1.356 . S
N811 H814 0.984 . S
N811 H815 0.985 . S
H812 N807 0.984 . S
H813 N807 0.985 . S
H814 N811 0.984 . S
H815 N811 0.985 . S
H816 N810 0.984 . S
H817 N810 0.984 . S
H818 N806 0.984 . S
H819 N806 0.985 . S
C820 C821 1.363 . S
C820 C826 1.379 . S
C820 N828 1.356 . S
C821 C820 1.363 . S
C821 C827 1.363 . S
C822 C823 1.363 . S
C822 C827 1.379 . S
C822 N829 1.356 . S
C823 C822 1.363 . S
C823 C826 1.363 . S
N824 C826 1.356 . S
N824 H836 0.984 . S
N824 H837 0.985 . S
N825 C827 1.356 . S
N825 H830 0.984 . S
N825 H831 0.985 . S
C826 C820 1.379 . S
C826 C823 1.363 . S
C826 N824 1.356 . S
C827 C821 1.363 . S
C827 C822 1.379 . S
C827 N825 1.356 . S
N828 C820 1.356 . S
N828 H834 0.984 . S
N828 H835 0.984 . S
N829 C822 1.356 . S
N829 H832 0.984 . S
N829 H833 0.985 . S
H830 N825 0.984 . S
H831 N825 0.985 . S
H832 N829 0.984 . S
H833 N829 0.985 . S
H834 N828 0.984 . S
H835 N828 0.984 . S
H836 N824 0.984 . S
H837 N824 0.985 . S
C838 C839 1.363 . S
C838 C844 1.379 . S
C838 N846 1.356 . S
C839 C838 1.363 . S
C839 C845 1.363 . S
C840 C841 1.363 . S
C840 C845 1.379 . S
C840 N847 1.356 . S
C841 C840 1.363 . S
C841 C844 1.363 . S
N842 C844 1.356 . S
N842 H854 0.984 . S
N842 H855 0.985 . S
N843 C845 1.356 . S
N843 H848 0.984 . S
N843 H849 0.985 . S
C844 C838 1.379 . S
C844 C841 1.363 . S
C844 N842 1.356 . S
C845 C839 1.363 . S
C845 C840 1.379 . S
C845 N843 1.356 . S
N846 C838 1.356 . S
N846 H852 0.984 . S
N846 H853 0.984 . S
N847 C840 1.356 . S
N847 H850 0.984 . S
N847 H851 0.985 . S
H848 N843 0.984 . S
H849 N843 0.985 . S
H850 N847 0.984 . S
H851 N847 0.985 . S
H852 N846 0.984 . S
H853 N846 0.984 . S
H854 N842 0.984 . S
H855 N842 0.985 . S
C856 C857 1.363 . S
C856 C862 1.379 . S
C856 N864 1.356 . S
C857 C856 1.363 . S
C857 C863 1.363 . S
C858 C859 1.363 . S
C858 C863 1.379 . S
C858 N865 1.356 . S
C859 C858 1.363 . S
C859 C862 1.363 . S
N860 C862 1.356 . S
N860 H872 0.984 . S
N860 H873 0.985 . S
N861 C863 1.356 . S
N861 H866 0.984 . S
N861 H867 0.985 . S
C862 C856 1.379 . S
C862 C859 1.363 . S
C862 N860 1.356 . S
C863 C857 1.363 . S
C863 C858 1.379 . S
C863 N861 1.356 . S
N864 C856 1.356 . S
N864 H870 0.984 . S
N864 H871 0.984 . S
N865 C858 1.356 . S
N865 H868 0.984 . S
N865 H869 0.985 . S
H866 N861 0.984 . S
H867 N861 0.985 . S
H868 N865 0.984 . S
H869 N865 0.985 . S
H870 N864 0.984 . S
H871 N864 0.984 . S
H872 N860 0.984 . S
H873 N860 0.985 . S
C874 C875 1.363 . S
C874 C880 1.379 . S
C874 N882 1.356 . S
C875 C874 1.363 . S
C875 C881 1.363 . S
C876 C877 1.363 . S
C876 C881 1.379 . S
C876 N883 1.356 . S
C877 C876 1.363 . S
C877 C880 1.363 . S
N878 C880 1.356 . S
N878 H890 0.984 . S
N878 H891 0.985 . S
N879 C881 1.356 . S
N879 H884 0.984 . S
N879 H885 0.985 . S
C880 C874 1.379 . S
C880 C877 1.363 . S
C880 N878 1.356 . S
C881 C875 1.363 . S
C881 C876 1.379 . S
C881 N879 1.356 . S
N882 C874 1.356 . S
N882 H888 0.984 . S
N882 H889 0.984 . S
N883 C876 1.356 . S
N883 H886 0.984 . S
N883 H887 0.985 . S
H884 N879 0.984 . S
H885 N879 0.985 . S
H886 N883 0.984 . S
H887 N883 0.985 . S
H888 N882 0.984 . S
H889 N882 0.984 . S
H890 N878 0.984 . S
H891 N878 0.985 . S
C892 C893 1.363 . S
C892 C898 1.379 . S
C892 N900 1.356 . S
C893 C892 1.363 . S
C893 C899 1.363 . S
C894 C895 1.363 . S
C894 C899 1.379 . S
C894 N901 1.356 . S
C895 C894 1.363 . S
C895 C898 1.363 . S
N896 C898 1.356 . S
N896 H908 0.984 . S
N896 H909 0.985 . S
N897 C899 1.356 . S
N897 H902 0.984 . S
N897 H903 0.985 . S
C898 C892 1.379 . S
C898 C895 1.363 . S
C898 N896 1.356 . S
C899 C893 1.363 . S
C899 C894 1.379 . S
C899 N897 1.356 . S
N900 C892 1.356 . S
N900 H906 0.984 . S
N900 H907 0.984 . S
N901 C894 1.356 . S
N901 H904 0.984 . S
N901 H905 0.985 . S
H902 N897 0.984 . S
H903 N897 0.985 . S
H904 N901 0.984 . S
H905 N901 0.985 . S
H906 N900 0.984 . S
H907 N900 0.984 . S
H908 N896 0.984 . S
H909 N896 0.985 . S
C910 C911 1.363 . S
C910 C916 1.379 . S
C910 N918 1.356 . S
C911 C910 1.363 . S
C911 C917 1.363 . S
C912 C913 1.363 . S
C912 C917 1.379 . S
C912 N919 1.356 . S
C913 C912 1.363 . S
C913 C916 1.363 . S
N914 C916 1.356 . S
N914 H926 0.984 . S
N914 H927 0.985 . S
N915 C917 1.356 . S
N915 H920 0.984 . S
N915 H921 0.985 . S
C916 C910 1.379 . S
C916 C913 1.363 . S
C916 N914 1.356 . S
C917 C911 1.363 . S
C917 C912 1.379 . S
C917 N915 1.356 . S
N918 C910 1.356 . S
N918 H924 0.984 . S
N918 H925 0.984 . S
N919 C912 1.356 . S
N919 H922 0.984 . S
N919 H923 0.985 . S
H920 N915 0.984 . S
H921 N915 0.985 . S
H922 N919 0.984 . S
H923 N919 0.985 . S
H924 N918 0.984 . S
H925 N918 0.984 . S
H926 N914 0.984 . S
H927 N914 0.985 . S
C928 C929 1.363 1_655 S
C928 C934 1.379 . S
C928 N936 1.356 . S
C929 C928 1.363 1_455 S
C929 C935 1.363 . S
C930 C931 1.363 . S
C930 C935 1.379 . S
C930 N937 1.356 . S
C931 C930 1.363 . S
C931 C934 1.363 1_455 S
N932 C934 1.356 . S
N932 H944 0.984 . S
N932 H945 0.985 . S
N933 C935 1.356 . S
N933 H938 0.984 . S
N933 H939 0.985 . S
C934 C928 1.379 . S
C934 C931 1.363 1_655 S
C934 N932 1.356 . S
C935 C929 1.363 . S
C935 C930 1.379 . S
C935 N933 1.356 . S
N936 C928 1.356 . S
N936 H942 0.984 . S
N936 H943 0.984 . S
N937 C930 1.356 . S
N937 H940 0.984 . S
N937 H941 0.985 . S
H938 N933 0.984 . S
H939 N933 0.985 . S
H940 N937 0.984 . S
H941 N937 0.985 . S
H942 N936 0.984 . S
H943 N936 0.984 . S
H944 N932 0.984 . S
H945 N932 0.985 . S
C946 C947 1.363 . S
C946 C952 1.379 1_655 S
C946 N954 1.356 . S
C947 C946 1.363 . S
C947 C953 1.363 . S
C948 C949 1.363 . S
C948 C953 1.379 1_455 S
C948 N955 1.356 . S
C949 C948 1.363 . S
C949 C952 1.363 . S
N950 C952 1.356 . S
N950 H962 0.984 . S
N950 H963 0.985 . S
N951 C953 1.356 . S
N951 H956 0.984 . S
N951 H957 0.985 . S
C952 C946 1.379 1_455 S
C952 C949 1.363 . S
C952 N950 1.356 . S
C953 C947 1.363 . S
C953 C948 1.379 1_655 S
C953 N951 1.356 . S
N954 C946 1.356 . S
N954 H960 0.984 . S
N954 H961 0.984 . S
N955 C948 1.356 . S
N955 H958 0.984 . S
N955 H959 0.985 . S
H956 N951 0.984 . S
H957 N951 0.985 . S
H958 N955 0.984 . S
H959 N955 0.985 . S
H960 N954 0.984 . S
H961 N954 0.984 . S
H962 N950 0.984 . S
H963 N950 0.985 . S
C964 C965 1.363 . S
C964 C970 1.379 . S
C964 N972 1.356 . S
C965 C964 1.363 . S
C965 C971 1.363 . S
C966 C967 1.363 . S
C966 C971 1.379 . S
C966 N973 1.356 . S
C967 C966 1.363 . S
C967 C970 1.363 . S
N968 C970 1.356 . S
N968 H980 0.984 . S
N968 H981 0.985 . S
N969 C971 1.356 . S
N969 H974 0.984 . S
N969 H975 0.985 . S
C970 C964 1.379 . S
C970 C967 1.363 . S
C970 N968 1.356 . S
C971 C965 1.363 . S
C971 C966 1.379 . S
C971 N969 1.356 . S
N972 C964 1.356 . S
N972 H978 0.984 . S
N972 H979 0.984 . S
N973 C966 1.356 . S
N973 H976 0.984 . S
N973 H977 0.985 . S
H974 N969 0.984 . S
H975 N969 0.985 . S
H976 N973 0.984 . S
H977 N973 0.985 . S
H978 N972 0.984 . S
H979 N972 0.984 . S
H980 N968 0.984 . S
H981 N968 0.985 . S
C982 C983 1.363 . S
C982 C988 1.379 . S
C982 N990 1.356 . S
C983 C982 1.363 . S
C983 C989 1.363 . S
C984 C985 1.363 . S
C984 C989 1.379 . S
C984 N991 1.356 . S
C985 C984 1.363 . S
C985 C988 1.363 . S
N986 C988 1.356 . S
N986 H998 0.984 . S
N986 H999 0.985 . S
N987 C989 1.356 . S
N987 H992 0.984 . S
N987 H993 0.985 . S
C988 C982 1.379 . S
C988 C985 1.363 . S
C988 N986 1.356 . S
C989 C983 1.363 . S
C989 C984 1.379 . S
C989 N987 1.356 . S
N990 C982 1.356 . S
N990 H996 0.984 . S
N990 H997 0.984 . S
N991 C984 1.356 . S
N991 H994 0.984 . S
N991 H995 0.985 . S
H992 N987 0.984 . S
H993 N987 0.985 . S
H994 N991 0.984 . S
H995 N991 0.985 . S
H996 N990 0.984 . S
H997 N990 0.984 . S
H998 N986 0.984 . S
H999 N986 0.985 . S
C1000 C1001 1.363 . S
C1000 C1006 1.379 . S
C1000 N1008 1.356 . S
C1001 C1000 1.363 . S
C1001 C1007 1.363 1_455 S
C1002 C1003 1.363 1_655 S
C1002 C1007 1.379 . S
C1002 N1009 1.356 . S
C1003 C1002 1.363 1_455 S
C1003 C1006 1.363 . S
N1004 C1006 1.356 . S
N1004 H1016 0.984 . S
N1004 H1017 0.985 . S
N1005 C1007 1.356 . S
N1005 H1010 0.984 . S
N1005 H1011 0.985 . S
C1006 C1000 1.379 . S
C1006 C1003 1.363 . S
C1006 N1004 1.356 . S
C1007 C1001 1.363 1_655 S
C1007 C1002 1.379 . S
C1007 N1005 1.356 . S
N1008 C1000 1.356 . S
N1008 H1014 0.984 . S
N1008 H1015 0.984 . S
N1009 C1002 1.356 . S
N1009 H1012 0.984 . S
N1009 H1013 0.985 . S
H1010 N1005 0.984 . S
H1011 N1005 0.985 . S
H1012 N1009 0.984 . S
H1013 N1009 0.985 . S
H1014 N1008 0.984 . S
H1015 N1008 0.984 . S
H1016 N1004 0.984 . S
H1017 N1004 0.985 . S
C1018 C1019 1.363 . S
C1018 C1024 1.379 . S
C1018 N1026 1.356 . S
C1019 C1018 1.363 . S
C1019 C1025 1.363 . S
C1020 C1021 1.363 . S
C1020 C1025 1.379 . S
C1020 N1027 1.356 . S
C1021 C1020 1.363 . S
C1021 C1024 1.363 . S
N1022 C1024 1.356 . S
N1022 H1034 0.984 . S
N1022 H1035 0.985 . S
N1023 C1025 1.356 . S
N1023 H1028 0.984 . S
N1023 H1029 0.985 . S
C1024 C1018 1.379 . S
C1024 C1021 1.363 . S
C1024 N1022 1.356 . S
C1025 C1019 1.363 . S
C1025 C1020 1.379 . S
C1025 N1023 1.356 . S
N1026 C1018 1.356 . S
N1026 H1032 0.984 . S
N1026 H1033 0.984 . S
N1027 C1020 1.356 . S
N1027 H1030 0.984 . S
N1027 H1031 0.985 . S
H1028 N1023 0.984 . S
H1029 N1023 0.985 . S
H1030 N1027 0.984 . S
H1031 N1027 0.985 . S
H1032 N1026 0.984 . S
H1033 N1026 0.984 . S
H1034 N1022 0.984 . S
H1035 N1022 0.985 . S
C1036 C1037 1.363 . S
C1036 C1042 1.379 . S
C1036 N1044 1.356 . S
C1037 C1036 1.363 . S
C1037 C1043 1.363 . S
C1038 C1039 1.363 . S
C1038 C1043 1.379 . S
C1038 N1045 1.356 . S
C1039 C1038 1.363 . S
C1039 C1042 1.363 . S
N1040 C1042 1.356 . S
N1040 H1052 0.984 . S
N1040 H1053 0.985 . S
N1041 C1043 1.356 . S
N1041 H1046 0.984 . S
N1041 H1047 0.985 . S
C1042 C1036 1.379 . S
C1042 C1039 1.363 . S
C1042 N1040 1.356 . S
C1043 C1037 1.363 . S
C1043 C1038 1.379 . S
C1043 N1041 1.356 . S
N1044 C1036 1.356 . S
N1044 H1050 0.984 . S
N1044 H1051 0.984 . S
N1045 C1038 1.356 . S
N1045 H1048 0.984 . S
N1045 H1049 0.985 . S
H1046 N1041 0.984 . S
H1047 N1041 0.985 . S
H1048 N1045 0.984 . S
H1049 N1045 0.985 . S
H1050 N1044 0.984 . S
H1051 N1044 0.984 . S
H1052 N1040 0.984 . S
H1053 N1040 0.985 . S
C1054 C1055 1.363 . S
C1054 C1060 1.379 1_455 S
C1054 N1062 1.356 . S
C1055 C1054 1.363 . S
C1055 C1061 1.363 . S
C1056 C1057 1.363 . S
C1056 C1061 1.379 1_655 S
C1056 N1063 1.356 . S
C1057 C1056 1.363 . S
C1057 C1060 1.363 . S
N1058 C1060 1.356 . S
N1058 H1070 0.984 . S
N1058 H1071 0.985 . S
N1059 C1061 1.356 . S
N1059 H1064 0.984 . S
N1059 H1065 0.985 . S
C1060 C1054 1.379 1_655 S
C1060 C1057 1.363 . S
C1060 N1058 1.356 . S
C1061 C1055 1.363 . S
C1061 C1056 1.379 1_455 S
C1061 N1059 1.356 . S
N1062 C1054 1.356 . S
N1062 H1068 0.984 . S
N1062 H1069 0.984 . S
N1063 C1056 1.356 . S
N1063 H1066 0.984 . S
N1063 H1067 0.985 . S
H1064 N1059 0.984 . S
H1065 N1059 0.985 . S
H1066 N1063 0.984 . S
H1067 N1063 0.985 . S
H1068 N1062 0.984 . S
H1069 N1062 0.984 . S
H1070 N1058 0.984 . S
H1071 N1058 0.985 . S
C1072 C1073 1.363 1_565 S
C1072 C1078 1.379 1_554 S
C1072 N1080 1.356 . S
C1073 C1072 1.363 1_545 S
C1073 C1079 1.363 . S
C1074 C1075 1.363 1_545 S
C1074 C1079 1.379 1_556 S
C1074 N1081 1.356 1_455 S
C1075 C1074 1.363 1_565 S
C1075 C1078 1.363 . S
N1076 C1078 1.356 . S
N1076 H1088 0.984 . S
N1076 H1089 0.985 . S
N1077 C1079 1.356 1_655 S
N1077 H1082 0.984 . S
N1077 H1083 0.985 . S
C1078 C1072 1.379 1_556 S
C1078 C1075 1.363 . S
C1078 N1076 1.356 . S
C1079 C1073 1.363 . S
C1079 C1074 1.379 1_554 S
C1079 N1077 1.356 1_455 S
N1080 C1072 1.356 . S
N1080 H1086 0.984 . S
N1080 H1087 0.984 . S
N1081 C1074 1.356 1_655 S
N1081 H1084 0.984 . S
N1081 H1085 0.985 . S
H1082 N1077 0.984 . S
H1083 N1077 0.985 . S
H1084 N1081 0.984 . S
H1085 N1081 0.985 . S
H1086 N1080 0.984 . S
H1087 N1080 0.984 . S
H1088 N1076 0.984 . S
H1089 N1076 0.985 . S
C1090 C1091 1.363 . S
C1090 C1096 1.379 . S
C1090 N1098 1.356 . S
C1091 C1090 1.363 . S
C1091 C1097 1.363 . S
C1092 C1093 1.363 . S
C1092 C1097 1.379 . S
C1092 N1099 1.356 . S
C1093 C1092 1.363 . S
C1093 C1096 1.363 . S
N1094 C1096 1.356 . S
N1094 H1106 0.984 . S
N1094 H1107 0.985 . S
N1095 C1097 1.356 . S
N1095 H1100 0.984 . S
N1095 H1101 0.985 . S
C1096 C1090 1.379 . S
C1096 C1093 1.363 . S
C1096 N1094 1.356 . S
C1097 C1091 1.363 . S
C1097 C1092 1.379 . S
C1097 N1095 1.356 . S
N1098 C1090 1.356 . S
N1098 H1104 0.984 . S
N1098 H1105 0.984 . S
N1099 C1092 1.356 . S
N1099 H1102 0.984 . S
N1099 H1103 0.985 . S
H1100 N1095 0.984 . S
H1101 N1095 0.985 . S
H1102 N1099 0.984 . S
H1103 N1099 0.985 . S
H1104 N1098 0.984 . S
H1105 N1098 0.984 . S
H1106 N1094 0.984 . S
H1107 N1094 0.985 . S
C1108 C1109 1.363 . S
C1108 C1114 1.379 . S
C1108 N1116 1.356 . S
C1109 C1108 1.363 . S
C1109 C1115 1.363 1_545 S
C1110 C1111 1.363 . S
C1110 C1115 1.379 . S
C1110 N1117 1.356 . S
C1111 C1110 1.363 . S
C1111 C1114 1.363 1_565 S
N1112 C1114 1.356 . S
N1112 H1124 0.984 . S
N1112 H1125 0.985 . S
N1113 C1115 1.356 . S
N1113 H1118 0.984 . S
N1113 H1119 0.985 . S
C1114 C1108 1.379 . S
C1114 C1111 1.363 1_545 S
C1114 N1112 1.356 . S
C1115 C1109 1.363 1_565 S
C1115 C1110 1.379 . S
C1115 N1113 1.356 . S
N1116 C1108 1.356 . S
N1116 H1122 0.984 . S
N1116 H1123 0.984 . S
N1117 C1110 1.356 . S
N1117 H1120 0.984 . S
N1117 H1121 0.985 . S
H1118 N1113 0.984 . S
H1119 N1113 0.985 . S
H1120 N1117 0.984 . S
H1121 N1117 0.985 . S
H1122 N1116 0.984 . S
H1123 N1116 0.984 . S
H1124 N1112 0.984 . S
H1125 N1112 0.985 . S
C1126 C1127 1.363 . S
C1126 C1132 1.379 . S
C1126 N1134 1.356 . S
C1127 C1126 1.363 . S
C1127 C1133 1.363 . S
C1128 C1129 1.363 . S
C1128 C1133 1.379 . S
C1128 N1135 1.356 . S
C1129 C1128 1.363 . S
C1129 C1132 1.363 . S
N1130 C1132 1.356 . S
N1130 H1142 0.984 . S
N1130 H1143 0.985 . S
N1131 C1133 1.356 . S
N1131 H1136 0.984 . S
N1131 H1137 0.985 . S
C1132 C1126 1.379 . S
C1132 C1129 1.363 . S
C1132 N1130 1.356 . S
C1133 C1127 1.363 . S
C1133 C1128 1.379 . S
C1133 N1131 1.356 . S
N1134 C1126 1.356 . S
N1134 H1140 0.984 . S
N1134 H1141 0.984 . S
N1135 C1128 1.356 . S
N1135 H1138 0.984 . S
N1135 H1139 0.985 . S
H1136 N1131 0.984 . S
H1137 N1131 0.985 . S
H1138 N1135 0.984 . S
H1139 N1135 0.985 . S
H1140 N1134 0.984 . S
H1141 N1134 0.984 . S
H1142 N1130 0.984 . S
H1143 N1130 0.985 . S
C1144 C1145 1.363 . S
C1144 C1150 1.379 . S
C1144 N1152 1.356 . S
C1145 C1144 1.363 . S
C1145 C1151 1.363 . S
C1146 C1147 1.363 . S
C1146 C1151 1.379 . S
C1146 N1153 1.356 . S
C1147 C1146 1.363 . S
C1147 C1150 1.363 . S
N1148 C1150 1.356 . S
N1148 H1160 0.984 . S
N1148 H1161 0.985 . S
N1149 C1151 1.356 . S
N1149 H1154 0.984 . S
N1149 H1155 0.985 . S
C1150 C1144 1.379 . S
C1150 C1147 1.363 . S
C1150 N1148 1.356 . S
C1151 C1145 1.363 . S
C1151 C1146 1.379 . S
C1151 N1149 1.356 . S
N1152 C1144 1.356 . S
N1152 H1158 0.984 . S
N1152 H1159 0.984 . S
N1153 C1146 1.356 . S
N1153 H1156 0.984 . S
N1153 H1157 0.985 . S
H1154 N1149 0.984 . S
H1155 N1149 0.985 . S
H1156 N1153 0.984 . S
H1157 N1153 0.985 . S
H1158 N1152 0.984 . S
H1159 N1152 0.984 . S
H1160 N1148 0.984 . S
H1161 N1148 0.985 . S
C1162 C1163 1.363 . S
C1162 C1168 1.379 . S
C1162 N1170 1.356 . S
C1163 C1162 1.363 . S
C1163 C1169 1.363 . S
C1164 C1165 1.363 . S
C1164 C1169 1.379 . S
C1164 N1171 1.356 . S
C1165 C1164 1.363 . S
C1165 C1168 1.363 . S
N1166 C1168 1.356 . S
N1166 H1178 0.984 . S
N1166 H1179 0.985 . S
N1167 C1169 1.356 . S
N1167 H1172 0.984 . S
N1167 H1173 0.985 . S
C1168 C1162 1.379 . S
C1168 C1165 1.363 . S
C1168 N1166 1.356 . S
C1169 C1163 1.363 . S
C1169 C1164 1.379 . S
C1169 N1167 1.356 . S
N1170 C1162 1.356 . S
N1170 H1176 0.984 . S
N1170 H1177 0.984 . S
N1171 C1164 1.356 . S
N1171 H1174 0.984 . S
N1171 H1175 0.985 . S
H1172 N1167 0.984 . S
H1173 N1167 0.985 . S
H1174 N1171 0.984 . S
H1175 N1171 0.985 . S
H1176 N1170 0.984 . S
H1177 N1170 0.984 . S
H1178 N1166 0.984 . S
H1179 N1166 0.985 . S
C1180 C1181 1.363 . S
C1180 C1186 1.379 . S
C1180 N1188 1.356 . S
C1181 C1180 1.363 . S
C1181 C1187 1.363 . S
C1182 C1183 1.363 . S
C1182 C1187 1.379 . S
C1182 N1189 1.356 . S
C1183 C1182 1.363 . S
C1183 C1186 1.363 . S
N1184 C1186 1.356 . S
N1184 H1196 0.984 . S
N1184 H1197 0.985 . S
N1185 C1187 1.356 . S
N1185 H1190 0.984 . S
N1185 H1191 0.985 . S
C1186 C1180 1.379 . S
C1186 C1183 1.363 . S
C1186 N1184 1.356 . S
C1187 C1181 1.363 . S
C1187 C1182 1.379 . S
C1187 N1185 1.356 . S
N1188 C1180 1.356 . S
N1188 H1194 0.984 . S
N1188 H1195 0.984 . S
N1189 C1182 1.356 . S
N1189 H1192 0.984 . S
N1189 H1193 0.985 . S
H1190 N1185 0.984 . S
H1191 N1185 0.985 . S
H1192 N1189 0.984 . S
H1193 N1189 0.985 . S
H1194 N1188 0.984 . S
H1195 N1188 0.984 . S
H1196 N1184 0.984 . S
H1197 N1184 0.985 . S
C1198 C1199 1.363 . S
C1198 C1204 1.379 1_556 S
C1198 N1206 1.356 . S
C1199 C1198 1.363 . S
C1199 C1205 1.363 1_455 S
C1200 C1201 1.363 1_655 S
C1200 C1205 1.379 1_554 S
C1200 N1207 1.356 . S
C1201 C1200 1.363 1_455 S
C1201 C1204 1.363 . S
N1202 C1204 1.356 . S
N1202 H1214 0.984 . S
N1202 H1215 0.985 . S
N1203 C1205 1.356 . S
N1203 H1208 0.984 . S
N1203 H1209 0.985 . S
C1204 C1198 1.379 1_554 S
C1204 C1201 1.363 . S
C1204 N1202 1.356 . S
C1205 C1199 1.363 1_655 S
C1205 C1200 1.379 1_556 S
C1205 N1203 1.356 . S
N1206 C1198 1.356 . S
N1206 H1212 0.984 . S
N1206 H1213 0.984 . S
N1207 C1200 1.356 . S
N1207 H1210 0.984 . S
N1207 H1211 0.985 . S
H1208 N1203 0.984 . S
H1209 N1203 0.985 . S
H1210 N1207 0.984 . S
H1211 N1207 0.985 . S
H1212 N1206 0.984 . S
H1213 N1206 0.984 . S
H1214 N1202 0.984 . S
H1215 N1202 0.985 . S
C1216 C1217 1.363 . S
C1216 C1222 1.379 . S
C1216 N1224 1.356 . S
C1217 C1216 1.363 . S
C1217 C1223 1.363 . S
C1218 C1219 1.363 . S
C1218 C1223 1.379 . S
C1218 N1225 1.356 . S
C1219 C1218 1.363 . S
C1219 C1222 1.363 . S
N1220 C1222 1.356 . S
N1220 H1232 0.984 . S
N1220 H1233 0.985 . S
N1221 C1223 1.356 . S
N1221 H1226 0.984 . S
N1221 H1227 0.985 . S
C1222 C1216 1.379 . S
C1222 C1219 1.363 . S
C1222 N1220 1.356 . S
C1223 C1217 1.363 . S
C1223 C1218 1.379 . S
C1223 N1221 1.356 . S
N1224 C1216 1.356 . S
N1224 H1230 0.984 . S
N1224 H1231 0.984 . S
N1225 C1218 1.356 . S
N1225 H1228 0.984 . S
N1225 H1229 0.985 . S
H1226 N1221 0.984 . S
H1227 N1221 0.985 . S
H1228 N1225 0.984 . S
H1229 N1225 0.985 . S
H1230 N1224 0.984 . S
H1231 N1224 0.984 . S
H1232 N1220 0.984 . S
H1233 N1220 0.985 . S
C1234 C1235 1.363 . S
C1234 C1240 1.379 . S
C1234 N1242 1.356 . S
C1235 C1234 1.363 . S
C1235 C1241 1.363 . S
C1236 C1237 1.363 . S
C1236 C1241 1.379 . S
C1236 N1243 1.356 . S
C1237 C1236 1.363 . S
C1237 C1240 1.363 . S
N1238 C1240 1.356 . S
N1238 H1250 0.984 . S
N1238 H1251 0.985 . S
N1239 C1241 1.356 . S
N1239 H1244 0.984 . S
N1239 H1245 0.985 . S
C1240 C1234 1.379 . S
C1240 C1237 1.363 . S
C1240 N1238 1.356 . S
C1241 C1235 1.363 . S
C1241 C1236 1.379 . S
C1241 N1239 1.356 . S
N1242 C1234 1.356 . S
N1242 H1248 0.984 . S
N1242 H1249 0.984 . S
N1243 C1236 1.356 . S
N1243 H1246 0.984 . S
N1243 H1247 0.985 . S
H1244 N1239 0.984 . S
H1245 N1239 0.985 . S
H1246 N1243 0.984 . S
H1247 N1243 0.985 . S
H1248 N1242 0.984 . S
H1249 N1242 0.984 . S
H1250 N1238 0.984 . S
H1251 N1238 0.985 . S
C1252 C1253 1.363 . S
C1252 C1258 1.379 . S
C1252 N1260 1.356 . S
C1253 C1252 1.363 . S
C1253 C1259 1.363 . S
C1254 C1255 1.363 . S
C1254 C1259 1.379 . S
C1254 N1261 1.356 . S
C1255 C1254 1.363 . S
C1255 C1258 1.363 . S
N1256 C1258 1.356 . S
N1256 H1268 0.984 . S
N1256 H1269 0.985 . S
N1257 C1259 1.356 . S
N1257 H1262 0.984 . S
N1257 H1263 0.985 . S
C1258 C1252 1.379 . S
C1258 C1255 1.363 . S
C1258 N1256 1.356 . S
C1259 C1253 1.363 . S
C1259 C1254 1.379 . S
C1259 N1257 1.356 . S
N1260 C1252 1.356 . S
N1260 H1266 0.984 . S
N1260 H1267 0.984 . S
N1261 C1254 1.356 . S
N1261 H1264 0.984 . S
N1261 H1265 0.985 . S
H1262 N1257 0.984 . S
H1263 N1257 0.985 . S
H1264 N1261 0.984 . S
H1265 N1261 0.985 . S
H1266 N1260 0.984 . S
H1267 N1260 0.984 . S
H1268 N1256 0.984 . S
H1269 N1256 0.985 . S
C1270 C1271 1.363 . S
C1270 C1276 1.379 . S
C1270 N1278 1.356 . S
C1271 C1270 1.363 . S
C1271 C1277 1.363 . S
C1272 C1273 1.363 . S
C1272 C1277 1.379 . S
C1272 N1279 1.356 . S
C1273 C1272 1.363 . S
C1273 C1276 1.363 . S
N1274 C1276 1.356 . S
N1274 H1286 0.984 . S
N1274 H1287 0.985 . S
N1275 C1277 1.356 . S
N1275 H1280 0.984 . S
N1275 H1281 0.985 . S
C1276 C1270 1.379 . S
C1276 C1273 1.363 . S
C1276 N1274 1.356 . S
C1277 C1271 1.363 . S
C1277 C1272 1.379 . S
C1277 N1275 1.356 . S
N1278 C1270 1.356 . S
N1278 H1284 0.984 . S
N1278 H1285 0.984 . S
N1279 C1272 1.356 . S
N1279 H1282 0.984 . S
N1279 H1283 0.985 . S
H1280 N1275 0.984 . S
H1281 N1275 0.985 . S
H1282 N1279 0.984 . S
H1283 N1279 0.985 . S
H1284 N1278 0.984 . S
H1285 N1278 0.984 . S
H1286 N1274 0.984 . S
H1287 N1274 0.985 . S
C1288 C1289 1.363 . S
C1288 C1294 1.379 . S
C1288 N1296 1.356 . S
C1289 C1288 1.363 . S
C1289 C1295 1.363 . S
C1290 C1291 1.363 . S
C1290 C1295 1.379 . S
C1290 N1297 1.356 . S
C1291 C1290 1.363 . S
C1291 C1294 1.363 . S
N1292 C1294 1.356 . S
N1292 H1304 0.984 . S
N1292 H1305 0.985 . S
N1293 C1295 1.356 . S
N1293 H1298 0.984 . S
N1293 H1299 0.985 . S
C1294 C1288 1.379 . S
C1294 C1291 1.363 . S
C1294 N1292 1.356 . S
C1295 C1289 1.363 . S
C1295 C1290 1.379 . S
C1295 N1293 1.356 . S
N1296 C1288 1.356 . S
N1296 H1302 0.984 . S
N1296 H1303 0.984 . S
N1297 C1290 1.356 . S
N1297 H1300 0.984 . S
N1297 H1301 0.985 . S
H1298 N1293 0.984 . S
H1299 N1293 0.985 . S
H1300 N1297 0.984 . S
H1301 N1297 0.985 . S
H1302 N1296 0.984 . S
H1303 N1296 0.984 . S
H1304 N1292 0.984 . S
H1305 N1292 0.985 . S
C1306 C1307 1.363 . S
C1306 C1312 1.379 . S
C1306 N1314 1.356 . S
C1307 C1306 1.363 . S
C1307 C1313 1.363 . S
C1308 C1309 1.363 . S
C1308 C1313 1.379 . S
C1308 N1315 1.356 . S
C1309 C1308 1.363 . S
C1309 C1312 1.363 . S
N1310 C1312 1.356 . S
N1310 H1322 0.984 . S
N1310 H1323 0.985 . S
N1311 C1313 1.356 . S
N1311 H1316 0.984 . S
N1311 H1317 0.985 . S
C1312 C1306 1.379 . S
C1312 C1309 1.363 . S
C1312 N1310 1.356 . S
C1313 C1307 1.363 . S
C1313 C1308 1.379 . S
C1313 N1311 1.356 . S
N1314 C1306 1.356 . S
N1314 H1320 0.984 . S
N1314 H1321 0.984 . S
N1315 C1308 1.356 . S
N1315 H1318 0.984 . S
N1315 H1319 0.985 . S
H1316 N1311 0.984 . S
H1317 N1311 0.985 . S
H1318 N1315 0.984 . S
H1319 N1315 0.985 . S
H1320 N1314 0.984 . S
H1321 N1314 0.984 . S
H1322 N1310 0.984 . S
H1323 N1310 0.985 . S
C1324 C1325 1.363 . S
C1324 C1330 1.379 . S
C1324 N1332 1.356 . S
C1325 C1324 1.363 . S
C1325 C1331 1.363 . S
C1326 C1327 1.363 . S
C1326 C1331 1.379 . S
C1326 N1333 1.356 . S
C1327 C1326 1.363 . S
C1327 C1330 1.363 . S
N1328 C1330 1.356 . S
N1328 H1340 0.984 . S
N1328 H1341 0.985 . S
N1329 C1331 1.356 . S
N1329 H1334 0.984 . S
N1329 H1335 0.985 . S
C1330 C1324 1.379 . S
C1330 C1327 1.363 . S
C1330 N1328 1.356 . S
C1331 C1325 1.363 . S
C1331 C1326 1.379 . S
C1331 N1329 1.356 . S
N1332 C1324 1.356 . S
N1332 H1338 0.984 . S
N1332 H1339 0.984 . S
N1333 C1326 1.356 . S
N1333 H1336 0.984 . S
N1333 H1337 0.985 . S
H1334 N1329 0.984 . S
H1335 N1329 0.985 . S
H1336 N1333 0.984 . S
H1337 N1333 0.985 . S
H1338 N1332 0.984 . S
H1339 N1332 0.984 . S
H1340 N1328 0.984 . S
H1341 N1328 0.985 . S
C1342 C1343 1.363 . S
C1342 C1348 1.379 . S
C1342 N1350 1.356 . S
C1343 C1342 1.363 . S
C1343 C1349 1.363 . S
C1344 C1345 1.363 . S
C1344 C1349 1.379 . S
C1344 N1351 1.356 . S
C1345 C1344 1.363 . S
C1345 C1348 1.363 . S
N1346 C1348 1.356 . S
N1346 H1358 0.984 . S
N1346 H1359 0.985 . S
N1347 C1349 1.356 . S
N1347 H1352 0.984 . S
N1347 H1353 0.985 . S
C1348 C1342 1.379 . S
C1348 C1345 1.363 . S
C1348 N1346 1.356 . S
C1349 C1343 1.363 . S
C1349 C1344 1.379 . S
C1349 N1347 1.356 . S
N1350 C1342 1.356 . S
N1350 H1356 0.984 . S
N1350 H1357 0.984 . S
N1351 C1344 1.356 . S
N1351 H1354 0.984 . S
N1351 H1355 0.985 . S
H1352 N1347 0.984 . S
H1353 N1347 0.985 . S
H1354 N1351 0.984 . S
H1355 N1351 0.985 . S
H1356 N1350 0.984 . S
H1357 N1350 0.984 . S
H1358 N1346 0.984 . S
H1359 N1346 0.985 . S
C1360 C1361 1.363 . S
C1360 C1366 1.379 . S
C1360 N1368 1.356 . S
C1361 C1360 1.363 . S
C1361 C1367 1.363 . S
C1362 C1363 1.363 . S
C1362 C1367 1.379 . S
C1362 N1369 1.356 . S
C1363 C1362 1.363 . S
C1363 C1366 1.363 . S
N1364 C1366 1.356 . S
N1364 H1376 0.984 . S
N1364 H1377 0.985 . S
N1365 C1367 1.356 . S
N1365 H1370 0.984 . S
N1365 H1371 0.985 . S
C1366 C1360 1.379 . S
C1366 C1363 1.363 . S
C1366 N1364 1.356 . S
C1367 C1361 1.363 . S
C1367 C1362 1.379 . S
C1367 N1365 1.356 . S
N1368 C1360 1.356 . S
N1368 H1374 0.984 . S
N1368 H1375 0.984 . S
N1369 C1362 1.356 . S
N1369 H1372 0.984 . S
N1369 H1373 0.985 . S
H1370 N1365 0.984 . S
H1371 N1365 0.985 . S
H1372 N1369 0.984 . S
H1373 N1369 0.985 . S
H1374 N1368 0.984 . S
H1375 N1368 0.984 . S
H1376 N1364 0.984 . S
H1377 N1364 0.985 . S
C1378 C1379 1.363 . S
C1378 C1384 1.379 . S
C1378 N1386 1.356 . S
C1379 C1378 1.363 . S
C1379 C1385 1.363 . S
C1380 C1381 1.363 . S
C1380 C1385 1.379 . S
C1380 N1387 1.356 . S
C1381 C1380 1.363 . S
C1381 C1384 1.363 . S
N1382 C1384 1.356 . S
N1382 H1394 0.984 . S
N1382 H1395 0.985 . S
N1383 C1385 1.356 . S
N1383 H1388 0.984 . S
N1383 H1389 0.985 . S
C1384 C1378 1.379 . S
C1384 C1381 1.363 . S
C1384 N1382 1.356 . S
C1385 C1379 1.363 . S
C1385 C1380 1.379 . S
C1385 N1383 1.356 . S
N1386 C1378 1.356 . S
N1386 H1392 0.984 . S
N1386 H1393 0.984 . S
N1387 C1380 1.356 . S
N1387 H1390 0.984 . S
N1387 H1391 0.985 . S
H1388 N1383 0.984 . S
H1389 N1383 0.985 . S
H1390 N1387 0.984 . S
H1391 N1387 0.985 . S
H1392 N1386 0.984 . S
H1393 N1386 0.984 . S
H1394 N1382 0.984 . S
H1395 N1382 0.985 . S
C1396 C1397 1.363 . S
C1396 C1402 1.379 . S
C1396 N1404 1.356 . S
C1397 C1396 1.363 . S
C1397 C1403 1.363 . S
C1398 C1399 1.363 . S
C1398 C1403 1.379 . S
C1398 N1405 1.356 . S
C1399 C1398 1.363 . S
C1399 C1402 1.363 . S
N1400 C1402 1.356 . S
N1400 H1412 0.984 . S
N1400 H1413 0.985 . S
N1401 C1403 1.356 . S
N1401 H1406 0.984 . S
N1401 H1407 0.985 . S
C1402 C1396 1.379 . S
C1402 C1399 1.363 . S
C1402 N1400 1.356 . S
C1403 C1397 1.363 . S
C1403 C1398 1.379 . S
C1403 N1401 1.356 . S
N1404 C1396 1.356 . S
N1404 H1410 0.984 . S
N1404 H1411 0.984 . S
N1405 C1398 1.356 . S
N1405 H1408 0.984 . S
N1405 H1409 0.985 . S
H1406 N1401 0.984 . S
H1407 N1401 0.985 . S
H1408 N1405 0.984 . S
H1409 N1405 0.985 . S
H1410 N1404 0.984 . S
H1411 N1404 0.984 . S
H1412 N1400 0.984 . S
H1413 N1400 0.985 . S
C1414 C1415 1.363 . S
C1414 C1420 1.379 . S
C1414 N1422 1.356 . S
C1415 C1414 1.363 . S
C1415 C1421 1.363 . S
C1416 C1417 1.363 . S
C1416 C1421 1.379 . S
C1416 N1423 1.356 . S
C1417 C1416 1.363 . S
C1417 C1420 1.363 . S
N1418 C1420 1.356 . S
N1418 H1430 0.984 . S
N1418 H1431 0.985 . S
N1419 C1421 1.356 . S
N1419 H1424 0.984 . S
N1419 H1425 0.985 . S
C1420 C1414 1.379 . S
C1420 C1417 1.363 . S
C1420 N1418 1.356 . S
C1421 C1415 1.363 . S
C1421 C1416 1.379 . S
C1421 N1419 1.356 . S
N1422 C1414 1.356 . S
N1422 H1428 0.984 . S
N1422 H1429 0.984 . S
N1423 C1416 1.356 . S
N1423 H1426 0.984 . S
N1423 H1427 0.985 . S
H1424 N1419 0.984 . S
H1425 N1419 0.985 . S
H1426 N1423 0.984 . S
H1427 N1423 0.985 . S
H1428 N1422 0.984 . S
H1429 N1422 0.984 . S
H1430 N1418 0.984 . S
H1431 N1418 0.985 . S
C1432 C1433 1.363 . S
C1432 C1438 1.379 . S
C1432 N1440 1.356 . S
C1433 C1432 1.363 . S
C1433 C1439 1.363 . S
C1434 C1435 1.363 . S
C1434 C1439 1.379 . S
C1434 N1441 1.356 . S
C1435 C1434 1.363 . S
C1435 C1438 1.363 . S
N1436 C1438 1.356 . S
N1436 H1448 0.984 . S
N1436 H1449 0.985 . S
N1437 C1439 1.356 . S
N1437 H1442 0.984 . S
N1437 H1443 0.985 . S
C1438 C1432 1.379 . S
C1438 C1435 1.363 . S
C1438 N1436 1.356 . S
C1439 C1433 1.363 . S
C1439 C1434 1.379 . S
C1439 N1437 1.356 . S
N1440 C1432 1.356 . S
N1440 H1446 0.984 . S
N1440 H1447 0.984 . S
N1441 C1434 1.356 . S
N1441 H1444 0.984 . S
N1441 H1445 0.985 . S
H1442 N1437 0.984 . S
H1443 N1437 0.985 . S
H1444 N1441 0.984 . S
H1445 N1441 0.985 . S
H1446 N1440 0.984 . S
H1447 N1440 0.984 . S
H1448 N1436 0.984 . S
H1449 N1436 0.985 . S
C1450 C1451 1.363 . S
C1450 C1456 1.379 . S
C1450 N1458 1.356 . S
C1451 C1450 1.363 . S
C1451 C1457 1.363 . S
C1452 C1453 1.363 . S
C1452 C1457 1.379 . S
C1452 N1459 1.356 . S
C1453 C1452 1.363 . S
C1453 C1456 1.363 . S
N1454 C1456 1.356 . S
N1454 H1466 0.984 . S
N1454 H1467 0.985 . S
N1455 C1457 1.356 . S
N1455 H1460 0.984 . S
N1455 H1461 0.985 . S
C1456 C1450 1.379 . S
C1456 C1453 1.363 . S
C1456 N1454 1.356 . S
C1457 C1451 1.363 . S
C1457 C1452 1.379 . S
C1457 N1455 1.356 . S
N1458 C1450 1.356 . S
N1458 H1464 0.984 . S
N1458 H1465 0.984 . S
N1459 C1452 1.356 . S
N1459 H1462 0.984 . S
N1459 H1463 0.985 . S
H1460 N1455 0.984 . S
H1461 N1455 0.985 . S
H1462 N1459 0.984 . S
H1463 N1459 0.985 . S
H1464 N1458 0.984 . S
H1465 N1458 0.984 . S
H1466 N1454 0.984 . S
H1467 N1454 0.985 . S
C1468 C1469 1.363 . S
C1468 C1474 1.379 . S
C1468 N1476 1.356 . S
C1469 C1468 1.363 . S
C1469 C1475 1.363 . S
C1470 C1471 1.363 . S
C1470 C1475 1.379 . S
C1470 N1477 1.356 . S
C1471 C1470 1.363 . S
C1471 C1474 1.363 . S
N1472 C1474 1.356 . S
N1472 H1484 0.984 . S
N1472 H1485 0.985 . S
N1473 C1475 1.356 . S
N1473 H1478 0.984 . S
N1473 H1479 0.985 . S
C1474 C1468 1.379 . S
C1474 C1471 1.363 . S
C1474 N1472 1.356 . S
C1475 C1469 1.363 . S
C1475 C1470 1.379 . S
C1475 N1473 1.356 . S
N1476 C1468 1.356 . S
N1476 H1482 0.984 . S
N1476 H1483 0.984 . S
N1477 C1470 1.356 . S
N1477 H1480 0.984 . S
N1477 H1481 0.985 . S
H1478 N1473 0.984 . S
H1479 N1473 0.985 . S
H1480 N1477 0.984 . S
H1481 N1477 0.985 . S
H1482 N1476 0.984 . S
H1483 N1476 0.984 . S
H1484 N1472 0.984 . S
H1485 N1472 0.985 . S
C1486 C1487 1.363 . S
C1486 C1492 1.379 . S
C1486 N1494 1.356 . S
C1487 C1486 1.363 . S
C1487 C1493 1.363 . S
C1488 C1489 1.363 . S
C1488 C1493 1.379 . S
C1488 N1495 1.356 . S
C1489 C1488 1.363 . S
C1489 C1492 1.363 . S
N1490 C1492 1.356 . S
N1490 H1502 0.984 . S
N1490 H1503 0.985 . S
N1491 C1493 1.356 . S
N1491 H1496 0.984 . S
N1491 H1497 0.985 . S
C1492 C1486 1.379 . S
C1492 C1489 1.363 . S
C1492 N1490 1.356 . S
C1493 C1487 1.363 . S
C1493 C1488 1.379 . S
C1493 N1491 1.356 . S
N1494 C1486 1.356 . S
N1494 H1500 0.984 . S
N1494 H1501 0.984 . S
N1495 C1488 1.356 . S
N1495 H1498 0.984 . S
N1495 H1499 0.985 . S
H1496 N1491 0.984 . S
H1497 N1491 0.985 . S
H1498 N1495 0.984 . S
H1499 N1495 0.985 . S
H1500 N1494 0.984 . S
H1501 N1494 0.984 . S
H1502 N1490 0.984 . S
H1503 N1490 0.985 . S
C641 C26 1.173 . S
C643 C306 1.174 . S
C659 C66 1.173 . S
C661 C186 1.173 . S
C677 C226 1.174 . S
C679 C106 1.173 . S
C695 C146 1.173 . S
C697 C266 1.173 . S
C713 C453 4.311 . S
C715 C173 4.311 1_554 S
C731 C333 4.311 . S
C733 C13 4.311 1_556 S
C749 C413 4.311 . S
C751 C253 4.311 . S
C767 C93 4.311 . S
C769 C373 4.311 . S
C785 C386 1.174 . S
C787 C506 1.173 . S
C803 C426 1.173 . S
C805 C586 1.173 . S
C821 C546 1.174 . S
C823 C346 1.174 . S
C839 C466 1.174 . S
C841 C626 1.174 . S
C857 C573 4.311 . S
C859 C133 4.311 . S
C875 C493 4.311 . S
C877 C213 4.311 . S
C893 C53 4.311 . S
C895 C613 4.311 1_554 S
C911 C293 4.311 . S
C913 C533 4.311 1_556 S
C929 C522 1.589 . S
C931 C2 1.589 . S
C947 C442 1.589 . S
C949 C42 1.589 . S
C965 C482 1.589 . S
C967 C82 1.589 . S
C983 C402 1.589 . S
C985 C122 1.589 . S
C1001 C162 1.589 . S
C1003 C602 1.589 . S
C1019 C362 1.589 . S
C1021 C202 1.589 . S
C1037 C242 1.589 . S
C1039 C562 1.589 . S
C1055 C282 1.589 . S
C1057 C322 1.589 . S
C1073 C23 1.817 . S
C1075 C183 1.817 . S
C1091 C63 1.816 . S
C1093 C223 1.816 . S
C1109 C263 1.816 . S
C1111 C103 1.816 . S
C1127 C143 1.816 . S
C1129 C303 1.816 . S
C1145 C423 1.816 . S
C1147 C343 1.816 . S
C1163 C463 1.816 . S
C1165 C383 1.816 . S
C1181 C503 1.816 . S
C1183 C583 1.816 . S
C1199 C623 1.817 . S
C1201 C543 1.817 . S
C1217 C24 4.748 . S
C1219 C304 4.748 . S
C1235 C64 4.748 . S
C1237 C184 4.748 . S
C1253 C224 4.748 1_556 S
C1255 C104 4.748 . S
C1271 C264 4.748 . S
C1273 C144 4.748 1_554 S
C1289 C457 0.836 . S
C1291 C177 0.836 . S
C1307 C337 0.836 . S
C1309 C17 0.836 . S
C1325 C417 0.836 . S
C1327 C257 0.836 . S
C1343 C97 0.836 . S
C1345 C377 0.836 . S
C1361 C504 4.748 . S
C1363 C384 4.748 1_556 S
C1379 C584 4.748 . S
C1381 C424 4.748 1_554 S
C1397 C544 4.748 . S
C1399 C344 4.748 . S
C1415 C624 4.748 . S
C1417 C464 4.748 . S
C1433 C577 0.836 . S
C1435 C137 0.836 . S
C1451 C217 0.836 . S
C1453 C497 0.836 . S
C1469 C57 0.836 . S
C1471 C617 0.836 . S
C1487 C537 0.836 . S
C1489 C297 0.836 . S
