# Generated by pormake.
# Topology wmg, (6)-cn, num edge types: 1
# Building blocks:
#     Node 0, Type 0, BuildingBlock: VOLQOD_clean_sbu_1, # of connection points: 6
#     Node 1, Type 0, BuildingBlock: VOLQOD_clean_sbu_1, # of connection points: 6
#     Node 2, Type 0, BuildingBlock: VOLQOD_clean_sbu_1, # of connection points: 6
#     Node 3, Type 0, BuildingBlock: VOLQOD_clean_sbu_1, # of connection points: 6
#     Node 4, Type 0, BuildingBlock: VOLQOD_clean_sbu_1, # of connection points: 6
#     Node 5, Type 0, BuildingBlock: VOLQOD_clean_sbu_1, # of connection points: 6
#     Node 6, Type 0, BuildingBlock: VOLQOD_clean_sbu_1, # of connection points: 6
#     Node 7, Type 0, BuildingBlock: VOLQOD_clean_sbu_1, # of connection points: 6
#     Node 8, Type 0, BuildingBlock: VOLQOD_clean_sbu_1, # of connection points: 6
#     Node 9, Type 0, BuildingBlock: VOLQOD_clean_sbu_1, # of connection points: 6
#     Node 10, Type 0, BuildingBlock: VOLQOD_clean_sbu_1, # of connection points: 6
#     Node 11, Type 0, BuildingBlock: VOLQOD_clean_sbu_1, # of connection points: 6
#     Node 12, Type 0, BuildingBlock: VOLQOD_clean_sbu_1, # of connection points: 6
#     Node 13, Type 0, BuildingBlock: VOLQOD_clean_sbu_1, # of connection points: 6
#     Node 14, Type 0, BuildingBlock: VOLQOD_clean_sbu_1, # of connection points: 6
#     Node 15, Type 0, BuildingBlock: VOLQOD_clean_sbu_1, # of connection points: 6
#     Node 16, Type 0, BuildingBlock: VOLQOD_clean_sbu_1, # of connection points: 6
#     Node 17, Type 0, BuildingBlock: VOLQOD_clean_sbu_1, # of connection points: 6
#     Edge 18, Type (0, 0), BuildingBlock: AJUNOK_clean_linker_0, # of connection points: 2
#     Edge 19, Type (0, 0), BuildingBlock: AJUNOK_clean_linker_0, # of connection points: 2
#     Edge 20, Type (0, 0), BuildingBlock: AJUNOK_clean_linker_0, # of connection points: 2
#     Edge 21, Type (0, 0), BuildingBlock: AJUNOK_clean_linker_0, # of connection points: 2
#     Edge 22, Type (0, 0), BuildingBlock: AJUNOK_clean_linker_0, # of connection points: 2
#     Edge 23, Type (0, 0), BuildingBlock: AJUNOK_clean_linker_0, # of connection points: 2
#     Edge 24, Type (0, 0), BuildingBlock: AJUNOK_clean_linker_0, # of connection points: 2
#     Edge 25, Type (0, 0), BuildingBlock: AJUNOK_clean_linker_0, # of connection points: 2
#     Edge 26, Type (0, 0), BuildingBlock: AJUNOK_clean_linker_0, # of connection points: 2
#     Edge 27, Type (0, 0), BuildingBlock: AJUNOK_clean_linker_0, # of connection points: 2
#     Edge 28, Type (0, 0), BuildingBlock: AJUNOK_clean_linker_0, # of connection points: 2
#     Edge 29, Type (0, 0), BuildingBlock: AJUNOK_clean_linker_0, # of connection points: 2
#     Edge 30, Type (0, 0), BuildingBlock: AJUNOK_clean_linker_0, # of connection points: 2
#     Edge 31, Type (0, 0), BuildingBlock: AJUNOK_clean_linker_0, # of connection points: 2
#     Edge 32, Type (0, 0), BuildingBlock: AJUNOK_clean_linker_0, # of connection points: 2
#     Edge 33, Type (0, 0), BuildingBlock: AJUNOK_clean_linker_0, # of connection points: 2
#     Edge 34, Type (0, 0), BuildingBlock: AJUNOK_clean_linker_0, # of connection points: 2
#     Edge 35, Type (0, 0), BuildingBlock: AJUNOK_clean_linker_0, # of connection points: 2
#     Edge 36, Type (0, 0), BuildingBlock: AJUNOK_clean_linker_0, # of connection points: 2
#     Edge 37, Type (0, 0), BuildingBlock: AJUNOK_clean_linker_0, # of connection points: 2
#     Edge 38, Type (0, 0), BuildingBlock: AJUNOK_clean_linker_0, # of connection points: 2
#     Edge 39, Type (0, 0), BuildingBlock: AJUNOK_clean_linker_0, # of connection points: 2
#     Edge 40, Type (0, 0), BuildingBlock: AJUNOK_clean_linker_0, # of connection points: 2
#     Edge 41, Type (0, 0), BuildingBlock: AJUNOK_clean_linker_0, # of connection points: 2
#     Edge 42, Type (0, 0), BuildingBlock: AJUNOK_clean_linker_0, # of connection points: 2
#     Edge 43, Type (0, 0), BuildingBlock: AJUNOK_clean_linker_0, # of connection points: 2
#     Edge 44, Type (0, 0), BuildingBlock: AJUNOK_clean_linker_0, # of connection points: 2
#     Edge 45, Type (0, 0), BuildingBlock: AJUNOK_clean_linker_0, # of connection points: 2
#     Edge 46, Type (0, 0), BuildingBlock: AJUNOK_clean_linker_0, # of connection points: 2
#     Edge 47, Type (0, 0), BuildingBlock: AJUNOK_clean_linker_0, # of connection points: 2
#     Edge 48, Type (0, 0), BuildingBlock: AJUNOK_clean_linker_0, # of connection points: 2
#     Edge 49, Type (0, 0), BuildingBlock: AJUNOK_clean_linker_0, # of connection points: 2
#     Edge 50, Type (0, 0), BuildingBlock: AJUNOK_clean_linker_0, # of connection points: 2
#     Edge 51, Type (0, 0), BuildingBlock: AJUNOK_clean_linker_0, # of connection points: 2
#     Edge 52, Type (0, 0), BuildingBlock: AJUNOK_clean_linker_0, # of connection points: 2
#     Edge 53, Type (0, 0), BuildingBlock: AJUNOK_clean_linker_0, # of connection points: 2
#     Edge 54, Type (0, 0), BuildingBlock: AJUNOK_clean_linker_0, # of connection points: 2
#     Edge 55, Type (0, 0), BuildingBlock: AJUNOK_clean_linker_0, # of connection points: 2
#     Edge 56, Type (0, 0), BuildingBlock: AJUNOK_clean_linker_0, # of connection points: 2
#     Edge 57, Type (0, 0), BuildingBlock: AJUNOK_clean_linker_0, # of connection points: 2
#     Edge 58, Type (0, 0), BuildingBlock: AJUNOK_clean_linker_0, # of connection points: 2
#     Edge 59, Type (0, 0), BuildingBlock: AJUNOK_clean_linker_0, # of connection points: 2
#     Edge 60, Type (0, 0), BuildingBlock: AJUNOK_clean_linker_0, # of connection points: 2
#     Edge 61, Type (0, 0), BuildingBlock: AJUNOK_clean_linker_0, # of connection points: 2
#     Edge 62, Type (0, 0), BuildingBlock: AJUNOK_clean_linker_0, # of connection points: 2
#     Edge 63, Type (0, 0), BuildingBlock: AJUNOK_clean_linker_0, # of connection points: 2
#     Edge 64, Type (0, 0), BuildingBlock: AJUNOK_clean_linker_0, # of connection points: 2
#     Edge 65, Type (0, 0), BuildingBlock: AJUNOK_clean_linker_0, # of connection points: 2
#     Edge 66, Type (0, 0), BuildingBlock: AJUNOK_clean_linker_0, # of connection points: 2
#     Edge 67, Type (0, 0), BuildingBlock: AJUNOK_clean_linker_0, # of connection points: 2
#     Edge 68, Type (0, 0), BuildingBlock: AJUNOK_clean_linker_0, # of connection points: 2
#     Edge 69, Type (0, 0), BuildingBlock: AJUNOK_clean_linker_0, # of connection points: 2
#     Edge 70, Type (0, 0), BuildingBlock: AJUNOK_clean_linker_0, # of connection points: 2
#     Edge 71, Type (0, 0), BuildingBlock: AJUNOK_clean_linker_0, # of connection points: 2
# Relax obj value: 0.414
# Max RMSD: 0.275
# Mean RMSD: 0.275
data_MOF--net-wmg--node1-VOLQOD_clean_sbu_1--edge1-AJUNOK_clean_linker_0
_symmetry_space_group_name_H-M    P1
_symmetry_Int_Tables_number       1
_symmetry_cell_setting            triclinic
loop_
_symmetry_equiv_pos_as_xyz
'x, y, z'
_cell_length_a     48.565241
_cell_length_b     48.521874
_cell_length_c     20.45521
_cell_angle_alpha  89.974834
_cell_angle_beta   90.141033
_cell_angle_gamma 119.9898
loop_
_atom_site_label
_atom_site_type_symbol
_atom_site_fract_x
_atom_site_fract_y
_atom_site_fract_z
_atom_type_partial_charge
O0 O 0.16084 0.30631 -0.00534 0.0
Zn1 Zn 0.1856 0.30147 0.0672 0.0
O2 O 0.18026 0.25926 0.06544 0.0
Zn3 Zn 0.16206 0.2376 0.14679 0.0
Zn4 Zn 0.15298 0.23656 -0.00506 0.0
Zn5 Zn 0.21938 0.26137 0.04482 0.0
O6 O 0.19218 0.22449 0.18953 0.0
O7 O 0.23533 0.25495 0.12917 0.0
O8 O 0.17462 0.31245 0.15452 0.0
O9 O 0.16224 0.26875 0.21076 0.0
O10 O 0.11403 0.20641 0.13427 0.0
O11 O 0.10954 0.2136 0.02794 0.0
O12 O 0.16274 0.20528 0.95395 0.0
O13 O 0.23019 0.33428 0.044 0.0
O14 O 0.21347 0.22628 0.9816 0.0
O15 O 0.25055 0.30483 0.0098 0.0
C16 C 0.15602 0.29368 0.93821 0.0
C17 C 0.22229 0.23848 0.18013 0.0
C18 C 0.09714 0.20213 0.08301 0.0
C19 C 0.16672 0.29686 0.20788 0.0
C20 C 0.18889 0.20537 0.9511 0.0
C21 C 0.2524 0.33184 0.01679 0.0
O22 O 0.15572 0.2676 0.92906 0.0
O23 O 0.67884 0.85379 -0.00235 0.0
Zn24 Zn 0.68528 0.88329 0.07108 0.0
O25 O 0.72832 0.9187 0.06889 0.0
Zn26 Zn 0.74953 0.92274 0.15101 0.0
Zn27 Zn 0.75088 0.91262 0.0007 0.0
Zn28 Zn 0.72721 0.95575 0.0446 0.0
O29 O 0.76013 0.96527 0.19392 0.0
O30 O 0.73105 0.97781 0.12827 0.0
O31 O 0.6741 0.86077 0.15775 0.0
O32 O 0.71846 0.89081 0.21325 0.0
O33 O 0.78195 0.90721 0.14128 0.0
O34 O 0.77172 0.89057 0.03765 0.0
O35 O 0.78424 0.95349 0.96145 0.0
O36 O 0.65339 0.89654 0.04799 0.0
O37 O 0.76415 0.98447 0.98538 0.0
O38 O 0.68505 0.94336 0.00219 0.0
C39 C 0.69194 0.8614 0.94168 0.0
C40 C 0.74582 0.9809 0.18178 0.0
C41 C 0.78442 0.89188 0.09276 0.0
C42 C 0.69022 0.86749 0.21044 0.0
C43 C 0.78523 0.9801 0.95795 0.0
C44 C 0.65732 0.91972 0.01239 0.0
O45 O 0.71944 0.88555 0.9336 0.0
O46 O 0.13425 0.82595 -0.00503 0.0
Zn47 Zn 0.10426 0.80182 0.06688 0.0
O48 O 0.06871 0.80935 0.06681 0.0
Zn49 Zn 0.06522 0.82458 0.15245 0.0
Zn50 Zn 0.07567 0.84005 0.00162 0.0
Zn51 Zn 0.03125 0.77216 0.03732 0.0
O52 O 0.02115 0.79341 0.19057 0.0
O53 O 0.00447 0.75465 0.116 0.0
O54 O 0.12666 0.81113 0.15338 0.0
O55 O 0.09599 0.82219 0.21496 0.0
O56 O 0.08244 0.87309 0.14806 0.0
O57 O 0.09693 0.88186 0.04321 0.0
O58 O 0.03592 0.83388 0.9589 0.0
O59 O 0.0906 0.75697 0.0419 0.0
O60 O 0.0057 0.78178 0.97107 0.0
O61 O 0.0423 0.74005 0.00164 0.0
C62 C 0.12781 0.83428 0.94065 0.0
C63 C 0.00143 0.7651 0.17106 0.0
C64 C 0.09666 0.89198 0.10027 0.0
C65 C 0.11958 0.8178 0.20872 0.0
C66 C 0.01024 0.8081 0.94769 0.0
C67 C 0.06623 0.73631 0.01095 0.0
O68 O 0.1039 0.83812 0.93415 0.0
O69 O 0.83157 0.68924 0.98658 0.0
Zn70 Zn 0.80441 0.69158 0.91672 0.0
O71 O 0.80957 0.73373 0.91428 0.0
Zn72 Zn 0.8242 0.7521 0.8284 0.0
Zn73 Zn 0.83965 0.75932 0.97903 0.0
Zn74 Zn 0.77095 0.73164 0.94032 0.0
O75 O 0.79138 0.76184 0.78707 0.0
O76 O 0.75156 0.73505 0.85762 0.0
O77 O 0.81304 0.67783 0.83063 0.0
O78 O 0.82327 0.71911 0.7682 0.0
O79 O 0.8722 0.78497 0.83193 0.0
O80 O 0.88148 0.78161 0.9377 0.0
O81 O 0.83055 0.79146 0.01913 0.0
O82 O 0.76076 0.659 0.94609 0.0
O83 O 0.77871 0.76842 0.00056 0.0
O84 O 0.74134 0.68898 0.9817 0.0
C85 C 0.8386 0.70391 0.04101 0.0
C86 C 0.76188 0.74842 0.80243 0.0
C87 C 0.89131 0.79136 0.8802 0.0
C88 C 0.81943 0.69135 0.77508 0.0
C89 C 0.80422 0.79077 0.02572 0.0
C90 C 0.73943 0.66187 0.97603 0.0
O91 O 0.83984 0.73057 0.04777 0.0
O92 O 0.30263 0.13744 0.98336 0.0
Zn93 Zn 0.2974 0.10685 0.91321 0.0
O94 O 0.25488 0.07046 0.91545 0.0
Zn95 Zn 0.23446 0.06647 0.83218 0.0
Zn96 Zn 0.23217 0.07684 0.98311 0.0
Zn97 Zn 0.25591 0.03345 0.94119 0.0
O98 O 0.22168 0.02305 0.79173 0.0
O99 O 0.24972 0.0098 0.85871 0.0
O100 O 0.30955 0.12818 0.82541 0.0
O101 O 0.26637 0.09652 0.76828 0.0
O102 O 0.20414 0.08438 0.83933 0.0
O103 O 0.21206 0.09924 0.94417 0.0
O104 O 0.19919 0.0364 0.02506 0.0
O105 O 0.3294 0.09452 0.93943 0.0
O106 O 0.22057 0.00616 0.00539 0.0
O107 O 0.29906 0.04568 0.97812 0.0
C108 C 0.29062 0.12952 0.0402 0.0
C109 C 0.23499 0.00662 0.80511 0.0
C110 C 0.20113 0.09936 0.88777 0.0
C111 C 0.29448 0.12005 0.77142 0.0
C112 C 0.19938 0.01049 0.0325 0.0
C113 C 0.32634 0.07025 0.9697 0.0
O114 O 0.26388 0.10452 0.04952 0.0
O115 O 0.85138 0.17021 -0.00891 0.0
Zn116 Zn 0.87946 0.19172 0.91511 0.0
O117 O 0.91467 0.18388 0.91618 0.0
Zn118 Zn 0.91732 0.16558 0.83459 0.0
Zn119 Zn 0.9092 0.1558 0.98521 0.0
Zn120 Zn 0.95235 0.22223 0.9373 0.0
O121 O 0.9587 0.1967 0.78796 0.0
O122 O 0.97266 0.23929 0.85145 0.0
O123 O 0.85522 0.17899 0.83027 0.0
O124 O 0.88414 0.16351 0.77439 0.0
O125 O 0.90268 0.11808 0.84625 0.0
O126 O 0.88661 0.11245 0.95004 0.0
O127 O 0.95051 0.16332 0.02136 0.0
O128 O 0.89356 0.23731 0.93481 0.0
O129 O 0.98206 0.21401 -0.00537 0.0
O130 O 0.9409 0.253 0.97897 0.0
C131 C 0.85951 0.16493 0.04682 0.0
C132 C 0.97452 0.22679 0.79804 0.0
C133 C 0.88777 0.10066 0.89539 0.0
C134 C 0.86089 0.1685 0.77798 0.0
C135 C 0.97748 0.18854 0.02265 0.0
C136 C 0.91729 0.25716 0.96855 0.0
O137 O 0.88343 0.1611 0.05391 0.0
O138 O 0.83538 0.64617 0.32971 0.0
Zn139 Zn 0.85532 0.63619 0.40395 0.0
O140 O 0.84452 0.59219 0.39755 0.0
Zn141 Zn 0.8288 0.57117 0.47982 0.0
Zn142 Zn 0.81453 0.5709 0.33061 0.0
Zn143 Zn 0.88124 0.5924 0.36689 0.0
O144 O 0.86159 0.56058 0.51735 0.0
O145 O 0.90148 0.58821 0.44735 0.0
O146 O 0.84357 0.64683 0.4904 0.0
O147 O 0.82893 0.60213 0.54463 0.0
O148 O 0.78083 0.5385 0.47193 0.0
O149 O 0.77257 0.55075 0.37113 0.0
O150 O 0.8196 0.53663 0.28711 0.0
O151 O 0.90164 0.66642 0.38662 0.0
O152 O 0.8708 0.55522 0.30652 0.0
O153 O 0.909 0.63422 0.3213 0.0
C154 C 0.82675 0.63248 0.27436 0.0
C155 C 0.89108 0.57384 0.50174 0.0
C156 C 0.76222 0.53707 0.42583 0.0
C157 C 0.83429 0.63059 0.54279 0.0
C158 C 0.8446 0.53474 0.28041 0.0
C159 C 0.91631 0.66216 0.33988 0.0
O160 O 0.81952 0.60361 0.26614 0.0
O161 O 0.35077 0.1827 0.3261 0.0
Zn162 Zn 0.35397 0.21152 0.39843 0.0
O163 O 0.39564 0.24902 0.40037 0.0
Zn164 Zn 0.41496 0.25241 0.48514 0.0
Zn165 Zn 0.42029 0.24489 0.3335 0.0
Zn166 Zn 0.39301 0.28556 0.37613 0.0
O167 O 0.42525 0.29496 0.52769 0.0
O168 O 0.39742 0.30812 0.45979 0.0
O169 O 0.34156 0.18846 0.48395 0.0
O170 O 0.38276 0.22002 0.54622 0.0
O171 O 0.44768 0.23719 0.478 0.0
O172 O 0.44267 0.22469 0.37195 0.0
O173 O 0.45214 0.28628 0.29431 0.0
O174 O 0.3209 0.22239 0.37275 0.0
O175 O 0.42919 0.31499 0.31471 0.0
O176 O 0.3496 0.27208 0.33726 0.0
C177 C 0.3645 0.19128 0.27089 0.0
C178 C 0.41163 0.31111 0.51403 0.0
C179 C 0.4532 0.22441 0.42867 0.0
C180 C 0.35536 0.1956 0.53931 0.0
C181 C 0.45141 0.31196 0.28862 0.0
C182 C 0.3229 0.24647 0.34368 0.0
O183 O 0.39085 0.21699 0.26436 0.0
O184 O 0.80213 0.16273 0.33348 0.0
Zn185 Zn 0.77155 0.13687 0.40334 0.0
O186 O 0.73549 0.14354 0.40326 0.0
Zn187 Zn 0.73166 0.15961 0.48765 0.0
Zn188 Zn 0.74142 0.17339 0.33707 0.0
Zn189 Zn 0.69831 0.10523 0.37798 0.0
O190 O 0.68845 0.12832 0.52844 0.0
O191 O 0.67483 0.08728 0.46055 0.0
O192 O 0.79266 0.14522 0.49093 0.0
O193 O 0.76244 0.1579 0.55019 0.0
O194 O 0.74837 0.20793 0.48216 0.0
O195 O 0.76166 0.21568 0.37673 0.0
O196 O 0.70104 0.16505 0.29423 0.0
O197 O 0.75913 0.09258 0.37597 0.0
O198 O 0.6707 0.11354 0.31512 0.0
O199 O 0.70995 0.07406 0.33949 0.0
C200 C 0.79566 0.17082 0.27891 0.0
C201 C 0.67175 0.09866 0.51438 0.0
C202 C 0.76183 0.22637 0.43341 0.0
C203 C 0.78545 0.15256 0.54541 0.0
C204 C 0.67499 0.13906 0.28788 0.0
C205 C 0.73459 0.07132 0.34649 0.0
O206 O 0.77075 0.17283 0.27088 0.0
O207 O 0.49058 0.01617 0.31576 0.0
Zn208 Zn 0.46537 0.0215 0.24546 0.0
O209 O 0.47279 0.06446 0.24615 0.0
Zn210 Zn 0.48916 0.08414 0.16224 0.0
Zn211 Zn 0.50219 0.08748 0.31342 0.0
Zn212 Zn 0.43496 0.06388 0.27174 0.0
O213 O 0.45795 0.09592 0.12116 0.0
O214 O 0.41677 0.06841 0.1885 0.0
O215 O 0.47385 0.0085 0.15856 0.0
O216 O 0.48798 0.05177 0.09948 0.0
O217 O 0.5371 0.11614 0.16988 0.0
O218 O 0.54462 0.10846 0.2746 0.0
O219 O 0.49505 0.12077 0.35442 0.0
O220 O 0.42105 0.98997 0.27246 0.0
O221 O 0.4438 0.10072 0.33262 0.0
O222 O 0.40459 0.02157 0.31322 0.0
C223 C 0.49546 0.02889 0.37209 0.0
C224 C 0.42826 0.0827 0.13457 0.0
C225 C 0.55536 0.12002 0.2185 0.0
C226 C 0.48203 0.02318 0.10429 0.0
C227 C 0.4695 0.12172 0.3597 0.0
C228 C 0.40108 0.9939 0.30519 0.0
O229 O 0.4983 0.05618 0.3805 0.0
O230 O 0.9642 0.47508 0.31686 0.0
Zn231 Zn 0.96047 0.44461 0.24747 0.0
O232 O 0.91844 0.40733 0.24871 0.0
Zn233 Zn 0.89797 0.40239 0.16478 0.0
Zn234 Zn 0.89461 0.41281 0.31549 0.0
Zn235 Zn 0.92084 0.37089 0.27478 0.0
O236 O 0.88795 0.35973 0.12358 0.0
O237 O 0.91627 0.3477 0.1923 0.0
O238 O 0.97253 0.46553 0.15903 0.0
O239 O 0.92948 0.43356 0.10175 0.0
O240 O 0.86508 0.41738 0.17108 0.0
O241 O 0.87165 0.43229 0.27585 0.0
O242 O 0.86304 0.37202 0.3577 0.0
O243 O -0.00666 0.43361 0.27553 0.0
O244 O 0.88503 0.34239 0.33743 0.0
O245 O 0.96434 0.3841 0.31212 0.0
C246 C 0.95159 0.46737 0.37325 0.0
C247 C 0.90218 0.34425 0.13777 0.0
C248 C 0.86016 0.43116 0.2194 0.0
C249 C 0.95746 0.45728 0.10498 0.0
C250 C 0.86338 0.34615 0.36409 0.0
C251 C 0.99116 0.4094 0.30447 0.0
O252 O 0.92525 0.44183 0.38201 0.0
O253 O 0.51693 0.49903 0.32009 0.0
Zn254 Zn 0.54619 0.52216 0.24575 0.0
O255 O 0.58209 0.51512 0.24739 0.0
Zn256 Zn 0.58642 0.49865 0.16465 0.0
Zn257 Zn 0.57587 0.48581 0.31427 0.0
Zn258 Zn 0.6191 0.55277 0.27446 0.0
O259 O 0.62997 0.53025 0.1245 0.0
O260 O 0.64328 0.5709 0.19318 0.0
O261 O 0.52385 0.51125 0.15812 0.0
O262 O 0.55563 0.49974 0.10147 0.0
O263 O 0.56907 0.45012 0.17249 0.0
O264 O 0.5529 0.44332 0.27634 0.0
O265 O 0.61619 0.49221 0.35442 0.0
O266 O 0.55965 0.56741 0.26859 0.0
O267 O 0.64636 0.54403 0.33755 0.0
O268 O 0.60716 0.58363 0.31246 0.0
C269 C 0.52534 0.49373 0.3756 0.0
C270 C 0.64679 0.55985 0.13932 0.0
C271 C 0.55352 0.43215 0.22062 0.0
C272 C 0.53179 0.50384 0.1044 0.0
C273 C 0.64217 0.5181 0.36244 0.0
C274 C 0.58349 0.58759 0.30164 0.0
O275 O 0.54958 0.49044 0.38186 0.0
O276 O 0.48999 0.97066 0.65904 0.0
Zn277 Zn 0.51489 0.96601 0.73117 0.0
O278 O 0.50891 0.92342 0.73033 0.0
Zn279 Zn 0.49372 0.9034 0.81455 0.0
Zn280 Zn 0.47889 0.89908 0.66468 0.0
Zn281 Zn 0.54717 0.92507 0.7033 0.0
O282 O 0.52656 0.89367 0.85589 0.0
O283 O 0.56608 0.91966 0.78467 0.0
O284 O 0.50421 0.97782 0.81796 0.0
O285 O 0.49313 0.93496 0.876 0.0
O286 O 0.44596 0.87021 0.80939 0.0
O287 O 0.43689 0.87715 0.70539 0.0
O288 O 0.48715 0.86669 0.62313 0.0
O289 O 0.55944 -0.00143 0.70622 0.0
O290 O 0.53903 0.88914 0.6404 0.0
O291 O 0.5775 0.96827 0.66529 0.0
C292 C 0.48255 0.95619 0.60435 0.0
C293 C 0.5559 0.90616 0.83982 0.0
C294 C 0.42692 0.86575 0.76192 0.0
C295 C 0.49651 0.9626 0.87175 0.0
C296 C 0.5133 0.86714 0.61527 0.0
C297 C 0.58037 -0.00441 0.67474 0.0
O298 O 0.47997 0.92895 0.59732 0.0
O299 O 0.01475 0.51912 0.6572 0.0
Zn300 Zn 0.0191 0.54787 0.731 0.0
O301 O 0.06164 0.58419 0.73357 0.0
Zn302 Zn 0.08024 0.58691 0.81848 0.0
Zn303 Zn 0.08578 0.57902 0.6675 0.0
Zn304 Zn 0.06105 0.62151 0.7084 0.0
O305 O 0.09123 0.62952 0.86111 0.0
O306 O 0.06499 0.64396 0.79168 0.0
O307 O 0.00568 0.52442 0.81634 0.0
O308 O 0.04723 0.55506 0.87871 0.0
O309 O 0.11182 0.57038 0.81237 0.0
O310 O 0.10569 0.55667 0.70682 0.0
O311 O 0.11945 0.61981 0.6292 0.0
O312 O 0.9875 0.5609 0.7054 0.0
O313 O 0.09767 0.64978 0.64751 0.0
O314 O 0.01897 0.60946 0.66657 0.0
C315 C 0.02856 0.52823 0.60212 0.0
C316 C 0.07832 0.64623 0.84672 0.0
C317 C 0.1161 0.55636 0.76365 0.0
C318 C 0.01946 0.53124 0.87178 0.0
C319 C 0.11936 0.64574 0.62198 0.0
C320 C -0.00859 0.58512 0.67364 0.0
O321 O 0.05583 0.55297 0.59731 0.0
O322 O 0.46763 0.4956 0.65914 0.0
Zn323 Zn 0.4386 0.46947 0.73056 0.0
O324 O 0.40202 0.47525 0.73255 0.0
Zn325 Zn 0.40007 0.49263 0.81661 0.0
Zn326 Zn 0.40583 0.50365 0.66444 0.0
Zn327 Zn 0.36463 0.43614 0.71206 0.0
O328 O 0.35797 0.46236 0.86134 0.0
O329 O 0.34341 0.41976 0.79746 0.0
O330 O 0.46166 0.47928 0.81667 0.0
O331 O 0.43228 0.49234 0.87742 0.0
O332 O 0.41589 0.54044 0.80804 0.0
O333 O 0.42617 0.54681 0.70118 0.0
O334 O 0.36415 0.49351 0.62473 0.0
O335 O 0.42658 0.4251 0.70328 0.0
O336 O 0.33501 0.44246 0.65074 0.0
O337 O 0.37618 0.40485 0.6737 0.0
C338 C 0.45983 0.50166 0.60381 0.0
C339 C 0.34138 0.4324 0.85051 0.0
C340 C 0.4276 0.55822 0.75776 0.0
C341 C 0.45555 0.48747 0.87139 0.0
C342 C 0.33826 0.46714 0.62141 0.0
C343 C 0.40141 0.40295 0.6772 0.0
O344 O 0.4341 0.50223 0.59606 0.0
O345 O 0.15194 0.34942 0.65397 0.0
Zn346 Zn 0.12903 0.35444 0.57802 0.0
O347 O 0.13556 0.39715 0.57589 0.0
Zn348 Zn 0.15303 0.41651 0.49221 0.0
Zn349 Zn 0.16452 0.42122 0.64324 0.0
Zn350 Zn 0.09721 0.39658 0.59807 0.0
O351 O 0.12335 0.42977 0.44854 0.0
O352 O 0.08115 0.40393 0.51425 0.0
O353 O 0.14089 0.34199 0.49366 0.0
O354 O 0.15177 0.38359 0.43148 0.0
O355 O 0.20134 0.4471 0.50081 0.0
O356 O 0.2075 0.44167 0.6072 0.0
O357 O 0.15649 0.45398 0.68258 0.0
O358 O 0.08384 0.32259 0.59908 0.0
O359 O 0.10479 0.43172 0.66292 0.0
O360 O 0.0652 0.35343 0.63369 0.0
C361 C 0.15839 0.36418 0.70828 0.0
C362 C 0.09381 0.41852 0.4612 0.0
C363 C 0.21902 0.45165 0.55082 0.0
C364 C 0.14821 0.35596 0.4385 0.0
C365 C 0.13021 0.45327 0.68998 0.0
C366 C 0.06227 0.32595 0.6267 0.0
O367 O 0.1613 0.39163 0.71287 0.0
O368 O 0.63672 0.80456 0.655 0.0
Zn369 Zn 0.63169 0.77496 0.58286 0.0
O370 O 0.58868 0.73946 0.58143 0.0
Zn371 Zn 0.56956 0.73642 0.49644 0.0
Zn372 Zn 0.56455 0.74528 0.64718 0.0
Zn373 Zn 0.58916 0.70186 0.60588 0.0
O374 O 0.55853 0.69394 0.45344 0.0
O375 O 0.58486 0.67942 0.52234 0.0
O376 O 0.64494 0.79766 0.49695 0.0
O377 O 0.6023 0.76833 0.43616 0.0
O378 O 0.53729 0.75214 0.50161 0.0
O379 O 0.54293 0.76592 0.60692 0.0
O380 O 0.53171 0.70446 0.68733 0.0
O381 O 0.66299 0.76146 0.60867 0.0
O382 O 0.55218 0.67358 0.66568 0.0
O383 O 0.63134 0.7129 0.64699 0.0
C384 C 0.62172 0.79812 0.7089 0.0
C385 C 0.57135 0.67713 0.46753 0.0
C386 C 0.53227 0.76571 0.55008 0.0
C387 C 0.63057 0.79137 0.4422 0.0
C388 C 0.53095 0.678 0.69226 0.0
C389 C 0.65904 0.73699 0.63952 0.0
O390 O 0.59419 0.77384 0.71536 0.0
O391 O 0.18175 0.82874 0.65239 0.0
Zn392 Zn 0.21169 0.85295 0.58067 0.0
O393 O 0.24782 0.84633 0.58338 0.0
Zn394 Zn 0.25236 0.83044 0.49985 0.0
Zn395 Zn 0.24155 0.81705 0.65087 0.0
Zn396 Zn 0.28456 0.88423 0.61109 0.0
O397 O 0.29514 0.8631 0.45903 0.0
O398 O 0.3089 0.90283 0.53022 0.0
O399 O 0.18936 0.84211 0.49355 0.0
O400 O 0.22034 0.82962 0.43684 0.0
O401 O 0.23746 0.78261 0.50779 0.0
O402 O 0.22068 0.77478 0.61135 0.0
O403 O 0.28189 0.82439 0.69297 0.0
O404 O 0.22424 0.89774 0.60484 0.0
O405 O 0.31207 0.8761 0.67486 0.0
O406 O 0.27186 0.91455 0.64877 0.0
C407 C 0.18923 0.82337 0.70868 0.0
C408 C 0.31213 0.8925 0.47519 0.0
C409 C 0.22236 0.76417 0.55564 0.0
C410 C 0.19649 0.83371 0.4402 0.0
C411 C 0.30779 0.85037 0.70097 0.0
C412 C 0.24792 0.91808 0.63799 0.0
O413 O 0.21358 0.8204 0.71736 0.0
C414 C 0.1652 0.12113 0.9032 0.0
C415 C 0.19352 0.12467 0.87739 0.0
C416 C 0.16307 0.14782 0.92194 0.0
C417 C 0.18962 0.17874 0.91772 0.0
H418 H 0.14558 0.09761 0.91417 0.0
H419 H 0.14138 0.14396 0.94511 0.0
S420 S 0.26798 0.20054 0.84647 0.0
N421 N 0.24736 0.16132 0.84172 0.0
N422 N 0.24385 0.21146 0.87933 0.0
C423 C 0.21725 0.18264 0.88749 0.0
C424 C 0.21902 0.15556 0.86658 0.0
C425 C 0.80833 0.02859 0.88774 0.0
C426 C 0.81278 0.00727 0.9267 0.0
C427 C 0.83431 0.05762 0.86789 0.0
C428 C 0.8654 0.06654 0.88784 0.0
H429 H 0.78454 0.02356 0.87552 0.0
H430 H 0.82969 0.07457 0.84271 0.0
S431 S 0.88986 0.01811 0.98542 0.0
N432 N 0.85084 -0.00435 0.97907 0.0
N433 N 0.89945 0.05108 0.94459 0.0
C434 C 0.87033 0.04454 0.92284 0.0
C435 C 0.84401 0.01463 0.94165 0.0
C436 C 0.93378 0.78019 0.85292 0.0
C437 C 0.92528 0.80301 0.8701 0.0
C438 C 0.96247 0.78293 0.87469 0.0
C439 C 0.98396 0.80904 0.91282 0.0
H440 H 0.91656 0.75824 0.82928 0.0
H441 H 0.96694 0.76355 0.86507 0.0
S442 S 0.9748 0.87764 0.96177 0.0
N443 N 0.94178 0.85394 0.92133 0.0
N444 N -0.00347 0.86018 0.95945 0.0
C445 C 0.97729 0.83376 0.92383 0.0
C446 C 0.94773 0.83051 0.90299 0.0
C447 C 0.77658 0.81221 0.09412 0.0
C448 C 0.80359 0.81761 0.05871 0.0
C449 C 0.77298 0.83768 0.11558 0.0
C450 C 0.79592 0.86933 0.1011 0.0
H451 H 0.75733 0.78815 0.10222 0.0
H452 H 0.75057 0.83242 0.13749 0.0
S453 S 0.87228 0.89638 0.01573 0.0
N454 N 0.85528 0.85718 0.01643 0.0
N455 N 0.84752 0.90484 0.05409 0.0
C456 C 0.82404 0.87512 0.07024 0.0
C457 C 0.82812 0.84927 0.04964 0.0
C458 C 0.14154 0.9775 0.05767 0.0
C459 C 0.17288 0.9839 0.06783 0.0
C460 C 0.11545 0.94858 0.07797 0.0
C461 C 0.11992 0.92569 0.11096 0.0
H462 H 0.13709 0.99356 0.02863 0.0
H463 H 0.09184 0.94282 0.06222 0.0
S464 S 0.19702 0.93365 0.1602 0.0
N465 N 0.20684 0.96692 0.12031 0.0
N466 N 0.15776 0.91312 0.16046 0.0
C467 C 0.15102 0.93351 0.12805 0.0
C468 C 0.17757 0.96246 0.10574 0.0
C469 C 0.05272 0.20968 0.11712 0.0
C470 C 0.06281 0.19015 0.08702 0.0
C471 C 0.02426 0.20836 0.09804 0.0
C472 C 0.00473 0.18687 0.04969 0.0
H473 H 0.06842 0.22828 0.15059 0.0
H474 H 0.01822 0.22515 0.11904 0.0
S475 S 0.01919 0.12898 0.96022 0.0
N476 N 0.05027 0.14775 0.00917 0.0
N477 N -0.00392 0.14413 0.97574 0.0
C478 C 0.01326 0.1655 0.02327 0.0
C479 C 0.04247 0.16736 0.04151 0.0
C480 C 0.86781 0.51045 0.20744 0.0
C481 C 0.84274 0.50674 0.24758 0.0
C482 C 0.8702 0.48403 0.18779 0.0
C483 C 0.84813 0.45321 0.20935 0.0
H484 H 0.88673 0.53404 0.19455 0.0
H485 H 0.89145 0.48819 0.16213 0.0
S486 S 0.7763 0.4305 0.30868 0.0
N487 N 0.79331 0.46955 0.30141 0.0
N488 N 0.79896 0.42014 0.26749 0.0
C489 C 0.82159 0.44897 0.24474 0.0
C490 C 0.81864 0.47574 0.26326 0.0
C491 C 0.4984 0.39083 0.20082 0.0
C492 C 0.53004 0.39838 0.21156 0.0
C493 C 0.47284 0.362 0.22291 0.0
C494 C 0.47807 0.33948 0.25533 0.0
H495 H 0.49342 0.40869 0.18146 0.0
H496 H 0.44894 0.35808 0.21764 0.0
S497 S 0.55655 0.34642 0.28791 0.0
N498 N 0.56522 0.38026 0.25176 0.0
N499 N 0.51734 0.32531 0.29062 0.0
C500 C 0.50956 0.3455 0.26059 0.0
C501 C 0.53554 0.37517 0.23929 0.0
C502 C 0.59798 0.10875 0.19453 0.0
C503 C 0.58932 0.13168 0.20949 0.0
C504 C 0.62685 0.11215 0.21673 0.0
C505 C 0.64826 0.13898 0.25312 0.0
H506 H 0.58085 0.0864 0.1721 0.0
H507 H 0.63156 0.09282 0.20872 0.0
S508 S 0.63847 0.20779 0.29661 0.0
N509 N 0.6054 0.18324 0.25723 0.0
N510 N 0.66052 0.19065 0.29616 0.0
C511 C 0.64134 0.16364 0.26215 0.0
C512 C 0.6116 0.15975 0.24088 0.0
C513 C 0.44413 0.14439 0.43139 0.0
C514 C 0.47017 0.149 0.39339 0.0
C515 C 0.4416 0.17037 0.45364 0.0
C516 C 0.46454 0.20172 0.43698 0.0
H517 H 0.42477 0.12054 0.44092 0.0
H518 H 0.41978 0.1657 0.47756 0.0
S519 S 0.53873 0.22665 0.34453 0.0
N520 N 0.52114 0.18741 0.34658 0.0
N521 N 0.51528 0.23608 0.38533 0.0
C522 C 0.49182 0.20671 0.40355 0.0
C523 C 0.49488 0.18034 0.38236 0.0
C524 C 0.81639 0.2684 0.45549 0.0
C525 C 0.78477 0.2603 0.44237 0.0
C526 C 0.84196 0.29716 0.4331 0.0
C527 C 0.83671 0.31909 0.39828 0.0
H528 H 0.82145 0.25093 0.47673 0.0
H529 H 0.86591 0.30144 0.43993 0.0
S530 S 0.75821 0.3108 0.35945 0.0
N531 N 0.74955 0.27742 0.39763 0.0
N532 N 0.79742 0.3323 0.35846 0.0
C533 C 0.80518 0.31266 0.39087 0.0
C534 C 0.77922 0.28303 0.41231 0.0
C535 C 0.69047 0.54422 0.43337 0.0
C536 C 0.66896 0.51776 0.39618 0.0
C537 C 0.71952 0.54757 0.4541 0.0
C538 C 0.7283 0.52496 0.43695 0.0
H539 H 0.6857 0.5634 0.44301 0.0
H540 H 0.7367 0.56975 0.47705 0.0
S541 S 0.67892 0.44965 0.34735 0.0
N542 N 0.65672 0.4666 0.35026 0.0
N543 N 0.71215 0.47391 0.38659 0.0
C544 C 0.70589 0.49713 0.40499 0.0
C545 C 0.67598 0.49329 0.38511 0.0
C546 C 0.54346 0.81959 0.5245 0.0
C547 C 0.52066 0.7881 0.54052 0.0
C548 C 0.54007 0.84525 0.54551 0.0
C549 C 0.51339 0.84016 0.5818 0.0
H550 H 0.5657 0.82463 0.50207 0.0
H551 H 0.55931 0.86923 0.53659 0.0
S552 S 0.445 0.76183 0.62812 0.0
N553 N 0.46941 0.75302 0.58936 0.0
N554 N 0.46202 0.80102 0.62611 0.0
C555 C 0.48889 0.80861 0.59204 0.0
C556 C 0.49276 0.78259 0.57196 0.0
C557 C 0.17751 0.67915 0.60111 0.0
C558 C 0.14629 0.67245 0.58809 0.0
C559 C 0.20376 0.70796 0.58099 0.0
C560 C 0.19957 0.73036 0.54537 0.0
H561 H 0.18164 0.66342 0.63199 0.0
H562 H 0.22717 0.71405 0.59877 0.0
S563 S 0.12304 0.72128 0.48818 0.0
N564 N 0.11282 0.68848 0.53024 0.0
N565 N 0.16228 0.74208 0.49036 0.0
C566 C 0.16869 0.72216 0.52555 0.0
C567 C 0.14195 0.69336 0.5477 0.0
C568 C 0.27594 0.48858 0.5738 0.0
C569 C 0.25252 0.4606 0.54363 0.0
C570 C 0.30487 0.49146 0.59434 0.0
C571 C 0.31072 0.46594 0.58761 0.0
H572 H 0.27082 0.50725 0.58639 0.0
H573 H 0.3216 0.51278 0.62047 0.0
S574 S 0.25818 0.38893 0.50567 0.0
N575 N 0.23829 0.40829 0.50198 0.0
N576 N 0.2921 0.41315 0.5428 0.0
C577 C 0.28839 0.43873 0.55353 0.0
C578 C 0.25943 0.43625 0.53086 0.0
C579 C 0.15318 0.53684 0.74147 0.0
C580 C 0.12562 0.53238 0.77307 0.0
C581 C 0.15551 0.51075 0.71926 0.0
C582 C 0.12988 0.47948 0.72604 0.0
H583 H 0.17168 0.5606 0.7283 0.0
H584 H 0.17635 0.51529 0.69154 0.0
S585 S 0.05451 0.45523 0.81382 0.0
N586 N 0.07409 0.49449 0.81776 0.0
N587 N 0.07793 0.44539 0.77405 0.0
C588 C 0.1034 0.47465 0.76257 0.0
C589 C 0.10149 0.50118 0.78685 0.0
C590 C 0.50783 0.62937 0.76225 0.0
C591 C 0.50346 0.65103 0.72429 0.0
C592 C 0.48175 0.60061 0.78296 0.0
C593 C 0.45057 0.59225 0.76477 0.0
H594 H 0.5316 0.63392 0.77306 0.0
H595 H 0.48625 0.58338 0.80725 0.0
S596 S 0.42627 0.64191 0.67119 0.0
N597 N 0.46541 0.66369 0.67538 0.0
N598 N 0.41658 0.60873 0.71129 0.0
C599 C 0.44578 0.61464 0.73097 0.0
C600 C 0.47223 0.6443 0.71139 0.0
C601 C 0.37035 0.82816 0.73874 0.0
C602 C 0.39322 0.85488 0.77337 0.0
C603 C 0.34121 0.82545 0.72058 0.0
C604 C 0.33457 0.84996 0.73451 0.0
H605 H 0.37624 0.81082 0.72024 0.0
H606 H 0.32513 0.80552 0.69021 0.0
S607 S 0.38479 0.92248 0.83221 0.0
N608 N 0.4056 0.90406 0.82841 0.0
N609 N 0.3514 0.89968 0.79199 0.0
C610 C 0.35605 0.87538 0.77392 0.0
C611 C 0.38522 0.87758 0.79416 0.0
C612 C 0.15668 0.30088 0.8179 0.0
C613 C 0.15484 0.31144 0.88089 0.0
C614 C 0.1587 0.31856 0.76261 0.0
C615 C 0.15889 0.34752 0.76805 0.0
H616 H 0.1571 0.27895 0.81089 0.0
H617 H 0.16005 0.30935 0.71529 0.0
S618 S 0.15305 0.38511 0.92174 0.0
N619 N 0.15236 0.35229 0.94558 0.0
N620 N 0.15608 0.38564 0.8414 0.0
C621 C 0.15676 0.35831 0.8307 0.0
C622 C 0.15465 0.34023 0.88719 0.0
C623 C 0.68917 0.84479 0.82617 0.0
C624 C 0.67335 0.84442 0.88374 0.0
C625 C 0.67223 0.83082 0.76898 0.0
C626 C 0.63886 0.81606 0.76738 0.0
H627 H 0.71484 0.85577 0.82534 0.0
H628 H 0.6854 0.83085 0.72628 0.0
S629 S 0.58646 0.81173 0.90325 0.0
N630 N 0.62264 0.83024 0.9347 0.0
N631 N 0.59072 0.80368 0.82678 0.0
C632 C 0.62276 0.8162 0.82415 0.0
C633 C 0.64002 0.83042 0.88251 0.0
C634 C 0.17497 0.81286 0.82617 0.0
C635 C 0.17229 0.82547 0.76625 0.0
C636 C 0.16161 0.81702 0.88296 0.0
C637 C 0.14513 0.83402 0.88196 0.0
H638 H 0.18744 0.79961 0.82928 0.0
H639 H 0.1636 0.8061 0.92758 0.0
S640 S 0.13362 0.87403 0.73851 0.0
N641 N 0.15338 0.85716 0.7098 0.0
N642 N 0.12825 0.86496 0.81694 0.0
C643 C 0.1428 0.84732 0.82266 0.0
C644 C 0.1563 0.84298 0.76467 0.0
C645 C 0.81822 0.65328 0.10113 0.0
C646 C 0.83831 0.68647 0.09965 0.0
C647 C 0.81384 0.63616 0.15857 0.0
C648 C 0.82944 0.65161 0.21654 0.0
H649 H 0.80494 0.64043 0.05811 0.0
H650 H 0.79805 0.61062 0.15747 0.0
S651 S 0.88706 0.73795 0.23626 0.0
N652 N 0.87535 0.73406 0.15931 0.0
N653 N 0.86752 0.70188 0.26792 0.0
C654 C 0.85013 0.68482 0.21543 0.0
C655 C 0.85452 0.70224 0.15674 0.0
C656 C 0.29531 0.14293 0.15827 0.0
C657 C 0.31004 0.14677 0.09732 0.0
C658 C 0.31329 0.15638 0.21464 0.0
C659 C 0.3467 0.17419 0.21213 0.0
H660 H 0.26965 0.12941 0.1626 0.0
H661 H 0.30077 0.15339 0.2602 0.0
S662 S 0.39698 0.18952 0.06535 0.0
N663 N 0.36014 0.16847 0.0381 0.0
N664 N 0.39394 0.19393 0.14451 0.0
C665 C 0.36181 0.17792 0.15172 0.0
C666 C 0.34349 0.16424 0.09415 0.0
C667 C 0.83048 0.15517 0.22064 0.0
C668 C 0.81439 0.17253 0.22129 0.0
C669 C 0.84464 0.15245 0.16361 0.0
C670 C 0.84311 0.1669 0.1053 0.0
H671 H 0.83127 0.14265 0.26384 0.0
H672 H 0.85649 0.13855 0.16505 0.0
S673 S 0.80701 0.21814 0.08353 0.0
N674 N 0.79987 0.20648 0.16048 0.0
N675 N 0.8266 0.20148 0.0529 0.0
C676 C 0.828 0.18523 0.10581 0.0
C677 C 0.81366 0.18806 0.16398 0.0
C678 C 0.50152 0.00738 0.54628 0.0
C679 C 0.48307 0.97395 0.54583 0.0
C680 C 0.50618 0.02492 0.48927 0.0
C681 C 0.49264 0.00969 0.42981 0.0
H682 H 0.51328 0.02014 0.59055 0.0
H683 H 0.52062 0.05062 0.49178 0.0
S684 S 0.43981 0.92284 0.40407 0.0
N685 N 0.44961 0.92636 0.48218 0.0
N686 N 0.45817 0.95938 0.37457 0.0
C687 C 0.47354 0.97629 0.42888 0.0
C688 C 0.46876 0.95842 0.48707 0.0
C689 C 0.98047 0.48492 0.54784 0.0
C690 C 0.01029 0.51271 0.54235 0.0
C691 C 0.96102 0.47138 0.49328 0.0
C692 C 0.97061 0.48498 0.43083 0.0
H693 H 0.97189 0.47348 0.59477 0.0
H694 H 0.93858 0.44961 0.5002 0.0
S695 S 0.04586 0.55877 0.39024 0.0
N696 N 0.04811 0.5541 0.46958 0.0
N697 N 0.01143 0.52855 0.36687 0.0
C698 C 0.00017 0.51308 0.42461 0.0
C699 C 0.02008 0.52687 0.48029 0.0
C700 C 0.46406 0.49685 0.48373 0.0
C701 C 0.47831 0.50277 0.54597 0.0
C702 C 0.47917 0.49332 0.42907 0.0
C703 C 0.50905 0.49555 0.43464 0.0
H704 H 0.44062 0.49398 0.47724 0.0
H705 H 0.46718 0.48857 0.38221 0.0
S706 S 0.55788 0.51397 0.58573 0.0
N707 N 0.52493 0.51294 0.60939 0.0
N708 N 0.55342 0.50625 0.50666 0.0
C709 C 0.52399 0.50234 0.49634 0.0
C710 C 0.50864 0.50606 0.55195 0.0
C711 C 0.27039 0.26891 0.2477 0.0
C712 C 0.24396 0.2393 0.23142 0.0
C713 C 0.29494 0.27105 0.287 0.0
C714 C 0.29419 0.24359 0.31125 0.0
H715 H 0.27264 0.29067 0.22787 0.0
H716 H 0.31521 0.29441 0.29636 0.0
S717 S 0.22911 0.16022 0.28485 0.0
N718 N 0.21737 0.18206 0.24455 0.0
N719 N 0.26361 0.1856 0.31846 0.0
C720 C 0.26697 0.21375 0.29791 0.0
C721 C 0.2418 0.21171 0.25796 0.0
C722 C 0.76606 0.04677 0.30456 0.0
C723 C 0.73633 0.04497 0.31352 0.0
C724 C 0.76909 0.02483 0.26481 0.0
C725 C 0.74253 0.00056 0.23258 0.0
H726 H 0.78745 0.06612 0.32584 0.0
H727 H 0.79249 0.02791 0.25648 0.0
S728 S 0.65885 0.98191 0.24813 0.0
N729 N 0.67936 0.01417 0.29305 0.0
N730 N 0.6852 0.97335 0.21813 0.0
C731 C 0.71249 -0.00285 0.2446 0.0
C732 C 0.70933 0.01925 0.28514 0.0
C733 C 0.96116 0.71813 0.32438 0.0
C734 C 0.93683 0.68947 0.29792 0.0
C735 C 0.98098 0.74381 0.2835 0.0
C736 C 0.97652 0.7417 0.2152 0.0
H737 H 0.9656 0.72027 0.37656 0.0
H738 H 0.00076 0.76472 0.30519 0.0
S739 S 0.91149 0.67403 0.12438 0.0
N740 N 0.9066 0.66195 0.20107 0.0
N741 N 0.94267 0.71028 0.12468 0.0
C742 C 0.95047 0.714 0.18927 0.0
C743 C 0.93095 0.68783 0.23049 0.0
C744 C 0.74118 0.7703 0.71621 0.0
C745 C 0.73777 0.74461 0.75374 0.0
C746 C 0.71604 0.76722 0.67682 0.0
C747 C 0.6868 0.73826 0.67328 0.0
H748 H 0.76273 0.79323 0.71971 0.0
H749 H 0.71919 0.78811 0.65108 0.0
S750 S 0.66855 0.66251 0.75437 0.0
N751 N 0.70476 0.68843 0.77942 0.0
N752 N 0.65781 0.68247 0.70521 0.0
C753 C 0.68416 0.71187 0.70732 0.0
C754 C 0.70957 0.71511 0.74761 0.0
C755 C 0.21601 0.94231 0.67891 0.0
C756 C 0.24578 0.94407 0.67134 0.0
C757 C 0.21248 0.96361 0.71985 0.0
C758 C 0.23862 0.98718 0.75441 0.0
H759 H 0.19497 0.92348 0.65556 0.0
H760 H 0.18904 0.9606 0.72698 0.0
S761 S 0.32243 0.00571 0.74265 0.0
N762 N 0.30244 0.97424 0.69541 0.0
N763 N 0.29575 0.01394 0.77215 0.0
C764 C 0.26878 0.99064 0.7436 0.0
C765 C 0.2724 0.96919 0.70205 0.0
C766 C 0.01637 0.24576 0.71122 0.0
C767 C -0.007 0.24882 0.74507 0.0
C768 C 0.03754 0.27004 0.66928 0.0
C769 C 0.03582 0.29802 0.6597 0.0
H770 H 0.0195 0.22547 0.72009 0.0
H771 H 0.05641 0.26754 0.64712 0.0
S772 S 0.97427 0.31382 0.72786 0.0
N773 N 0.96622 0.27934 0.75977 0.0
N774 N 0.00555 0.3247 0.68064 0.0
C775 C 0.01066 0.29982 0.68921 0.0
C776 C 0.98938 0.27529 0.73205 0.0
C777 C 0.94646 0.60171 0.54355 0.0
C778 C 0.91507 0.57622 0.54953 0.0
C779 C 0.97043 0.60519 0.58614 0.0
C780 C 0.96427 0.58314 0.63641 0.0
H781 H 0.95279 0.6193 0.50528 0.0
H782 H -0.00576 0.62485 0.5779 0.0
S783 S 0.88555 0.51327 0.67622 0.0
N784 N 0.87856 0.52954 0.612 0.0
N785 N 0.92387 0.5357 0.69229 0.0
C786 C 0.93272 0.55802 0.64458 0.0
C787 C 0.90808 0.55467 0.60118 0.0
C788 C 0.43497 0.35503 0.59733 0.0
C789 C 0.40848 0.33131 0.56385 0.0
C790 C 0.43219 0.37728 0.63667 0.0
C791 C 0.40277 0.37633 0.64417 0.0
H792 H 0.45817 0.35742 0.59044 0.0
H793 H 0.45357 0.39612 0.65908 0.0
S794 S 0.3254 0.31504 0.57454 0.0
N795 N 0.35143 0.30564 0.54624 0.0
N796 N 0.34601 0.34691 0.62042 0.0
C797 C 0.37577 0.35116 0.61436 0.0
C798 C 0.37869 0.32881 0.57412 0.0
C799 C 0.62641 0.07694 0.59392 0.0
C800 C 0.65157 0.0754 0.56412 0.0
C801 C 0.60422 0.05159 0.63258 0.0
C802 C 0.60664 0.02404 0.64272 0.0
H803 H 0.62292 0.09696 0.58455 0.0
H804 H 0.58423 0.053 0.65201 0.0
S805 S 0.67166 0.01144 0.58322 0.0
N806 N 0.67994 0.04627 0.55288 0.0
N807 N 0.63867 -0.00107 0.62571 0.0
C808 C 0.63307 0.02346 0.61655 0.0
C809 C 0.65542 0.04908 0.5772 0.0
C810 C 0.38219 0.10234 0.01196 0.0
C811 C 0.35459 0.07237 0.00243 0.0
C812 C 0.40719 0.10571 0.05211 0.0
C813 C 0.40523 0.07923 0.08395 0.0
H814 H 0.38391 0.12362 -0.00912 0.0
H815 H 0.42725 0.12926 0.06095 0.0
S816 S 0.34124 -0.0049 0.06672 0.0
N817 N 0.32913 0.01533 0.02186 0.0
N818 N 0.3759 0.0218 0.09748 0.0
C819 C 0.37897 0.04898 0.07133 0.0
C820 C 0.35369 0.04549 0.03045 0.0
C821 C 0.88579 0.28235 0.00695 0.0
C822 C 0.91515 0.28289 0.00342 0.0
C823 C 0.88171 0.30314 0.04837 0.0
C824 C 0.9068 0.32498 0.08784 0.0
H825 H 0.86534 0.26484 0.9797 0.0
H826 H 0.8585 0.30109 0.05175 0.0
S827 S 0.9897 0.34009 0.08867 0.0
N828 N 0.97066 0.31022 0.03714 0.0
N829 N 0.96296 0.34897 0.11483 0.0
C830 C 0.93673 0.32726 0.0815 0.0
C831 C 0.94094 0.30633 0.03931 0.0
C832 C 0.69287 0.63821 0.05112 0.0
C833 C 0.71365 0.63386 0.01043 0.0
C834 C 0.67097 0.61369 0.09085 0.0
C835 C 0.66853 0.58353 0.09143 0.0
H836 H 0.6941 0.66109 0.05414 0.0
H837 H 0.65603 0.61865 0.12229 0.0
S838 S 0.71529 0.55844 0.99042 0.0
N839 N 0.729 0.59606 0.97031 0.0
N840 N 0.68718 0.5498 0.04518 0.0
C841 C 0.68787 0.57809 0.04883 0.0
C842 C 0.71061 0.60329 0.00842 0.0
C843 C 0.61168 0.93397 0.87967 0.0
C844 C 0.58017 0.90897 0.88765 0.0
C845 C 0.63589 0.93802 0.92224 0.0
C846 C 0.62993 0.91708 0.97464 0.0
H847 H 0.61794 0.95079 0.83986 0.0
H848 H 0.65972 0.95731 0.91243 0.0
S849 S 0.55109 0.84878 0.01994 0.0
N850 N 0.54383 0.86386 0.9541 0.0
N851 N 0.58959 0.87108 0.03434 0.0
C852 C 0.59831 0.8924 0.98464 0.0
C853 C 0.5734 0.88847 0.94122 0.0
C854 C 0.10035 0.68868 0.933 0.0
C855 C 0.07445 0.66583 0.89675 0.0
C856 C 0.09707 0.71041 0.97293 0.0
C857 C 0.06772 0.70979 0.97815 0.0
H858 H 0.12355 0.69083 0.92783 0.0
H859 H 0.1181 0.72873 -0.00263 0.0
S860 S -0.00848 0.65036 0.9014 0.0
N861 N 0.01781 0.64101 0.87447 0.0
N862 N 0.01149 0.68142 0.94973 0.0
C863 C 0.04119 0.68536 0.94571 0.0
C864 C 0.04462 0.66351 0.90493 0.0
C865 C 0.2754 0.38718 0.97212 0.0
C866 C 0.27867 0.36033 0.98514 0.0
C867 C 0.297 0.41193 0.93163 0.0
C868 C 0.32241 0.41047 0.90298 0.0
H869 H 0.25506 0.38833 0.99025 0.0
H870 H 0.29274 0.43124 0.91967 0.0
S871 S 0.34509 0.34887 0.93042 0.0
N872 N 0.31209 0.33642 0.97287 0.0
N873 N 0.35228 0.38269 0.89644 0.0
C874 C 0.32735 0.38517 0.91945 0.0
C875 C 0.3056 0.36015 0.9607 0.0
C876 C 0.04533 0.44191 0.35434 0.0
C877 C 0.02003 0.41191 0.33492 0.0
C878 C 0.07084 0.44452 0.39174 0.0
C879 C 0.07186 0.41723 0.41023 0.0
H880 H 0.04461 0.46342 0.34368 0.0
H881 H 0.08882 0.46771 0.40926 0.0
S882 S 0.01448 0.33386 0.3642 0.0
N883 N -0.00024 0.35485 0.33128 0.0
N884 N 0.04759 0.35985 0.40152 0.0
C885 C 0.04794 0.38743 0.38767 0.0
C886 C 0.02203 0.38473 0.34996 0.0
C887 C 0.54906 0.63458 0.38138 0.0
C888 C 0.57507 0.65756 0.4172 0.0
C889 C 0.55234 0.61297 0.34096 0.0
C890 C 0.58179 0.61389 0.33488 0.0
H891 H 0.52581 0.63222 0.38721 0.0
H892 H 0.53128 0.59452 0.31686 0.0
S893 S 0.6582 0.67374 0.4103 0.0
N894 N 0.63184 0.68278 0.43822 0.0
N895 N 0.63817 0.64267 0.36204 0.0
C896 C 0.60838 0.63844 0.36695 0.0
C897 C 0.60496 0.66014 0.4082 0.0
C898 C 0.36082 0.97258 0.39388 0.0
C899 C 0.37599 0.96656 0.3421 0.0
C900 C 0.34034 0.94831 0.43578 0.0
C901 C 0.33371 0.91672 0.42768 0.0
H902 H 0.36551 -0.00352 0.40379 0.0
H903 H 0.32966 0.95461 0.47524 0.0
S904 S 0.36502 0.88752 0.29622 0.0
N905 N 0.38155 0.92611 0.2824 0.0
N906 N 0.34243 0.88026 0.36145 0.0
C907 C 0.34757 0.90991 0.37454 0.0
C908 C 0.36886 0.93486 0.33181 0.0
C909 C 0.15995 0.3391 0.26276 0.0
C910 C 0.16229 0.31145 0.26766 0.0
C911 C 0.15532 0.35315 0.3182 0.0
C912 C 0.15288 0.34018 0.38098 0.0
H913 H 0.16142 0.34993 0.21562 0.0
H914 H 0.15348 0.37432 0.31149 0.0
S915 S 0.15904 0.26879 0.42107 0.0
N916 N 0.16286 0.27209 0.34088 0.0
N917 N 0.15417 0.29855 0.44501 0.0
C918 C 0.15546 0.31267 0.38678 0.0
C919 C 0.16017 0.29831 0.33022 0.0
C920 C 0.64323 0.82566 0.27106 0.0
C921 C 0.67588 0.84815 0.26993 0.0
C922 C 0.62893 0.8075 0.32692 0.0
C923 C 0.64665 0.81106 0.38407 0.0
H924 H 0.62841 0.82214 0.22866 0.0
H925 H 0.60364 0.79068 0.32519 0.0
S926 S 0.73335 0.8657 0.40587 0.0
N927 N 0.72587 0.87231 0.33056 0.0
N928 N 0.69889 0.83818 0.43546 0.0
C929 C 0.67941 0.83325 0.38354 0.0
C930 C 0.69403 0.85176 0.32656 0.0
C931 C 0.13519 0.83414 0.32514 0.0
C932 C 0.13925 0.82103 0.26702 0.0
C933 C 0.15361 0.83794 0.38079 0.0
C934 C 0.17691 0.8288 0.3808 0.0
H935 H 0.11781 0.84188 0.32773 0.0
H936 H 0.14967 0.84843 0.42394 0.0
S937 S 0.19593 0.79164 0.24214 0.0
N938 N 0.16768 0.79784 0.21364 0.0
N939 N 0.20225 0.8049 0.31807 0.0
C940 C 0.18097 0.81523 0.32325 0.0
C941 C 0.1622 0.81139 0.26649 0.0
C942 C 0.83508 0.67632 0.60075 0.0
C943 C 0.82992 0.64511 0.60285 0.0
C944 C 0.83154 0.69087 0.65655 0.0
C945 C 0.82273 0.67493 0.71701 0.0
H946 H 0.84199 0.68978 0.55568 0.0
H947 H 0.83592 0.715 0.65196 0.0
S948 S 0.80609 0.59262 0.74906 0.0
N949 N 0.81529 0.5985 0.67077 0.0
N950 N 0.80864 0.62593 0.77556 0.0
C951 C 0.81735 0.64361 0.71996 0.0
C952 C 0.82094 0.62874 0.66295 0.0
C953 C 0.33834 0.16757 0.71557 0.0
C954 C 0.30965 0.13843 0.71124 0.0
C955 C 0.35289 0.18571 0.65977 0.0
C956 C 0.33942 0.1755 0.5972 0.0
H957 H 0.34959 0.1767 0.7625 0.0
H958 H 0.37483 0.2081 0.66608 0.0
S959 S 0.26518 0.10013 0.55859 0.0
N960 N 0.26874 0.09962 0.63873 0.0
N961 N 0.29608 0.13374 0.53404 0.0
C962 C 0.31089 0.1462 0.59196 0.0
C963 C 0.29605 0.12769 0.64887 0.0
C964 C 0.80263 0.17201 0.65945 0.0
C965 C 0.80422 0.15535 0.60458 0.0
C966 C 0.82058 0.17567 0.71572 0.0
C967 C 0.8408 0.16278 0.71938 0.0
H968 H 0.78778 0.18283 0.65871 0.0
H969 H 0.81897 0.18922 0.75613 0.0
S970 S 0.85127 0.11443 0.59134 0.0
N971 N 0.82612 0.12412 0.55892 0.0
N972 N 0.85979 0.13082 0.66466 0.0
C973 C 0.84197 0.14529 0.66548 0.0
C974 C 0.82373 0.14164 0.60811 0.0
C975 C 0.49989 0.02475 0.98907 0.0
C976 C 0.48481 0.00694 0.04545 0.0
C977 C 0.50323 0.01021 0.93292 0.0
C978 C 0.49166 0.97725 0.93088 0.0
H979 H 0.50957 0.05028 0.98832 0.0
H980 H 0.5154 0.02505 0.89118 0.0
S981 S 0.44806 0.91937 0.06362 0.0
N982 N 0.45672 0.95421 0.09447 0.0
N983 N 0.46291 0.92685 0.98906 0.0
C984 C 0.47594 0.959 0.98645 0.0
C985 C 0.47255 0.97383 0.04365 0.0
C986 C 0.00123 0.50471 0.04871 0.0
C987 C 0.97271 0.47543 0.04458 0.0
C988 C 0.01608 0.52241 -0.00737 0.0
C989 C 0.00308 0.5116 0.92991 0.0
H990 H 0.01218 0.51427 0.09572 0.0
H991 H 0.03788 0.54492 -0.00119 0.0
S992 S 0.92947 0.43565 0.89171 0.0
N993 N 0.93244 0.43586 0.97209 0.0
N994 N 0.9604 0.46917 0.86684 0.0
C995 C 0.9747 0.4822 0.92487 0.0
C996 C 0.95953 0.46413 0.98207 0.0
C997 C 0.46716 0.49827 -0.0091 0.0
C998 C 0.47559 0.4915 0.92957 0.0
C999 C 0.48543 0.50226 0.04687 0.0
C1000 C 0.51298 0.49967 0.04407 0.0
H1001 H 0.44613 0.50045 -0.0039 0.0
H1002 H 0.47775 0.50733 0.09271 0.0
S1003 S 0.54592 0.48279 0.8951 0.0
N1004 N 0.51369 0.48274 0.8693 0.0
N1005 N 0.54808 0.49023 0.9742 0.0
C1006 C 0.52182 0.49302 0.98294 0.0
C1007 C 0.50315 0.48894 0.92587 0.0
loop_
_geom_bond_atom_site_label_1
_geom_bond_atom_site_label_2
_geom_bond_distance
_geom_bond_site_symmetry_2
_ccdc_geom_bond_type
O0 Zn1 1.953 1_556 S
O0 C16 1.225 . S
Zn1 O0 1.953 1_554 S
Zn1 O2 1.949 . S
Zn1 O8 1.919 . S
Zn1 O13 1.924 . S
O2 Zn1 1.949 . S
O2 Zn3 1.923 . S
O2 Zn4 1.950 . S
O2 Zn5 1.945 . S
Zn3 O2 1.923 . S
Zn3 O6 1.933 . S
Zn3 O9 1.941 . S
Zn3 O10 1.965 . S
Zn4 O2 1.950 . S
Zn4 O11 1.938 . S
Zn4 O12 1.906 1_554 S
Zn4 O22 1.953 1_554 S
Zn5 O2 1.945 . S
Zn5 O7 1.932 . S
Zn5 O14 1.977 . S
Zn5 O15 1.910 . S
O6 Zn3 1.933 . S
O6 C17 1.226 . S
O7 Zn5 1.932 . S
O7 C17 1.307 . S
O8 Zn1 1.919 . S
O8 C19 1.253 . S
O9 Zn3 1.941 . S
O9 C19 1.283 . S
O10 Zn3 1.965 . S
O10 C18 1.303 . S
O11 Zn4 1.938 . S
O11 C18 1.247 . S
O12 Zn4 1.906 1_556 S
O12 C20 1.304 . S
O13 Zn1 1.924 . S
O13 C21 1.311 . S
O14 Zn5 1.977 . S
O14 C20 1.272 1_554 S
O15 Zn5 1.910 . S
O15 C21 1.231 . S
C16 O0 1.225 . S
C16 O22 1.298 . S
C17 O6 1.226 . S
C17 O7 1.307 . S
C18 O10 1.303 . S
C18 O11 1.247 . S
C19 O8 1.253 . S
C19 O9 1.283 . S
C20 O12 1.304 . S
C20 O14 1.272 1_556 S
C21 O13 1.311 . S
C21 O15 1.231 . S
O22 Zn4 1.953 1_556 S
O22 C16 1.298 . S
O23 Zn24 1.953 1_556 S
O23 C39 1.225 . S
Zn24 O23 1.953 1_554 S
Zn24 O25 1.949 . S
Zn24 O31 1.919 . S
Zn24 O36 1.924 . S
O25 Zn24 1.949 . S
O25 Zn26 1.923 . S
O25 Zn27 1.950 . S
O25 Zn28 1.945 . S
Zn26 O25 1.923 . S
Zn26 O29 1.933 . S
Zn26 O32 1.941 . S
Zn26 O33 1.965 . S
Zn27 O25 1.950 . S
Zn27 O34 1.938 . S
Zn27 O35 1.906 1_554 S
Zn27 O45 1.953 1_554 S
Zn28 O25 1.945 . S
Zn28 O30 1.932 . S
Zn28 O37 1.977 . S
Zn28 O38 1.910 . S
O29 Zn26 1.933 . S
O29 C40 1.226 . S
O30 Zn28 1.932 . S
O30 C40 1.307 . S
O31 Zn24 1.919 . S
O31 C42 1.253 . S
O32 Zn26 1.941 . S
O32 C42 1.283 . S
O33 Zn26 1.965 . S
O33 C41 1.303 . S
O34 Zn27 1.938 . S
O34 C41 1.247 . S
O35 Zn27 1.906 1_556 S
O35 C43 1.304 . S
O36 Zn24 1.924 . S
O36 C44 1.311 . S
O37 Zn28 1.977 . S
O37 C43 1.272 1_554 S
O38 Zn28 1.910 . S
O38 C44 1.231 . S
C39 O23 1.225 . S
C39 O45 1.298 . S
C40 O29 1.226 . S
C40 O30 1.307 . S
C41 O33 1.303 . S
C41 O34 1.247 . S
C42 O31 1.253 . S
C42 O32 1.283 . S
C43 O35 1.304 . S
C43 O37 1.272 1_556 S
C44 O36 1.311 . S
C44 O38 1.231 . S
O45 Zn27 1.953 1_556 S
O45 C39 1.298 . S
O46 Zn47 1.953 1_556 S
O46 C62 1.225 . S
Zn47 O46 1.953 1_554 S
Zn47 O48 1.949 . S
Zn47 O54 1.919 . S
Zn47 O59 1.924 . S
O48 Zn47 1.949 . S
O48 Zn49 1.923 . S
O48 Zn50 1.950 . S
O48 Zn51 1.945 . S
Zn49 O48 1.923 . S
Zn49 O52 1.933 . S
Zn49 O55 1.941 . S
Zn49 O56 1.965 . S
Zn50 O48 1.950 . S
Zn50 O57 1.938 . S
Zn50 O58 1.906 1_554 S
Zn50 O68 1.953 1_554 S
Zn51 O48 1.945 . S
Zn51 O53 1.932 . S
Zn51 O60 1.977 . S
Zn51 O61 1.910 . S
O52 Zn49 1.933 . S
O52 C63 1.226 . S
O53 Zn51 1.932 . S
O53 C63 1.307 . S
O54 Zn47 1.919 . S
O54 C65 1.253 . S
O55 Zn49 1.941 . S
O55 C65 1.283 . S
O56 Zn49 1.965 . S
O56 C64 1.303 . S
O57 Zn50 1.938 . S
O57 C64 1.247 . S
O58 Zn50 1.906 1_556 S
O58 C66 1.304 . S
O59 Zn47 1.924 . S
O59 C67 1.311 . S
O60 Zn51 1.977 . S
O60 C66 1.272 1_554 S
O61 Zn51 1.910 . S
O61 C67 1.231 . S
C62 O46 1.225 . S
C62 O68 1.298 . S
C63 O52 1.226 . S
C63 O53 1.307 . S
C64 O56 1.303 . S
C64 O57 1.247 . S
C65 O54 1.253 . S
C65 O55 1.283 . S
C66 O58 1.304 . S
C66 O60 1.272 1_556 S
C67 O59 1.311 . S
C67 O61 1.231 . S
O68 Zn50 1.953 1_556 S
O68 C62 1.298 . S
O69 Zn70 1.953 1_554 S
O69 C85 1.225 . S
Zn70 O69 1.953 1_556 S
Zn70 O71 1.949 . S
Zn70 O77 1.919 . S
Zn70 O82 1.924 . S
O71 Zn70 1.949 . S
O71 Zn72 1.923 . S
O71 Zn73 1.950 . S
O71 Zn74 1.945 . S
Zn72 O71 1.923 . S
Zn72 O75 1.933 . S
Zn72 O78 1.941 . S
Zn72 O79 1.965 . S
Zn73 O71 1.950 . S
Zn73 O80 1.938 . S
Zn73 O81 1.906 1_556 S
Zn73 O91 1.953 1_556 S
Zn74 O71 1.945 . S
Zn74 O76 1.932 . S
Zn74 O83 1.977 . S
Zn74 O84 1.910 . S
O75 Zn72 1.933 . S
O75 C86 1.226 . S
O76 Zn74 1.932 . S
O76 C86 1.307 . S
O77 Zn70 1.919 . S
O77 C88 1.253 . S
O78 Zn72 1.941 . S
O78 C88 1.283 . S
O79 Zn72 1.965 . S
O79 C87 1.303 . S
O80 Zn73 1.938 . S
O80 C87 1.247 . S
O81 Zn73 1.906 1_554 S
O81 C89 1.304 . S
O82 Zn70 1.924 . S
O82 C90 1.311 . S
O83 Zn74 1.977 . S
O83 C89 1.272 1_556 S
O84 Zn74 1.910 . S
O84 C90 1.231 . S
C85 O69 1.225 . S
C85 O91 1.298 . S
C86 O75 1.226 . S
C86 O76 1.307 . S
C87 O79 1.303 . S
C87 O80 1.247 . S
C88 O77 1.253 . S
C88 O78 1.283 . S
C89 O81 1.304 . S
C89 O83 1.272 1_554 S
C90 O82 1.311 . S
C90 O84 1.231 . S
O91 Zn73 1.953 1_554 S
O91 C85 1.298 . S
O92 Zn93 1.953 1_554 S
O92 C108 1.225 . S
Zn93 O92 1.953 1_556 S
Zn93 O94 1.949 . S
Zn93 O100 1.919 . S
Zn93 O105 1.924 . S
O94 Zn93 1.949 . S
O94 Zn95 1.923 . S
O94 Zn96 1.950 . S
O94 Zn97 1.945 . S
Zn95 O94 1.923 . S
Zn95 O98 1.933 . S
Zn95 O101 1.941 . S
Zn95 O102 1.965 . S
Zn96 O94 1.950 . S
Zn96 O103 1.938 . S
Zn96 O104 1.906 1_556 S
Zn96 O114 1.953 1_556 S
Zn97 O94 1.945 . S
Zn97 O99 1.932 . S
Zn97 O106 1.977 . S
Zn97 O107 1.910 . S
O98 Zn95 1.933 . S
O98 C109 1.226 . S
O99 Zn97 1.932 . S
O99 C109 1.307 . S
O100 Zn93 1.919 . S
O100 C111 1.253 . S
O101 Zn95 1.941 . S
O101 C111 1.283 . S
O102 Zn95 1.965 . S
O102 C110 1.303 . S
O103 Zn96 1.938 . S
O103 C110 1.247 . S
O104 Zn96 1.906 1_554 S
O104 C112 1.304 . S
O105 Zn93 1.924 . S
O105 C113 1.311 . S
O106 Zn97 1.977 . S
O106 C112 1.272 1_556 S
O107 Zn97 1.910 . S
O107 C113 1.231 . S
C108 O92 1.225 . S
C108 O114 1.298 . S
C109 O98 1.226 . S
C109 O99 1.307 . S
C110 O102 1.303 . S
C110 O103 1.247 . S
C111 O100 1.253 . S
C111 O101 1.283 . S
C112 O104 1.304 . S
C112 O106 1.272 1_554 S
C113 O105 1.311 . S
C113 O107 1.231 . S
O114 Zn96 1.953 1_554 S
O114 C108 1.298 . S
O115 Zn116 1.953 1_554 S
O115 C131 1.225 . S
Zn116 O115 1.953 1_556 S
Zn116 O117 1.949 . S
Zn116 O123 1.919 . S
Zn116 O128 1.924 . S
O117 Zn116 1.949 . S
O117 Zn118 1.923 . S
O117 Zn119 1.950 . S
O117 Zn120 1.945 . S
Zn118 O117 1.923 . S
Zn118 O121 1.933 . S
Zn118 O124 1.941 . S
Zn118 O125 1.965 . S
Zn119 O117 1.950 . S
Zn119 O126 1.938 . S
Zn119 O127 1.906 1_556 S
Zn119 O137 1.953 1_556 S
Zn120 O117 1.945 . S
Zn120 O122 1.932 . S
Zn120 O129 1.977 . S
Zn120 O130 1.910 . S
O121 Zn118 1.933 . S
O121 C132 1.226 . S
O122 Zn120 1.932 . S
O122 C132 1.307 . S
O123 Zn116 1.919 . S
O123 C134 1.253 . S
O124 Zn118 1.941 . S
O124 C134 1.283 . S
O125 Zn118 1.965 . S
O125 C133 1.303 . S
O126 Zn119 1.938 . S
O126 C133 1.247 . S
O127 Zn119 1.906 1_554 S
O127 C135 1.304 . S
O128 Zn116 1.924 . S
O128 C136 1.311 . S
O129 Zn120 1.977 . S
O129 C135 1.272 1_556 S
O130 Zn120 1.910 . S
O130 C136 1.231 . S
C131 O115 1.225 . S
C131 O137 1.298 . S
C132 O121 1.226 . S
C132 O122 1.307 . S
C133 O125 1.303 . S
C133 O126 1.247 . S
C134 O123 1.253 . S
C134 O124 1.283 . S
C135 O127 1.304 . S
C135 O129 1.272 1_554 S
C136 O128 1.311 . S
C136 O130 1.231 . S
O137 Zn119 1.953 1_554 S
O137 C131 1.298 . S
O138 Zn139 1.953 . S
O138 C154 1.225 . S
Zn139 O138 1.953 . S
Zn139 O140 1.949 . S
Zn139 O146 1.919 . S
Zn139 O151 1.924 . S
O140 Zn139 1.949 . S
O140 Zn141 1.923 . S
O140 Zn142 1.950 . S
O140 Zn143 1.945 . S
Zn141 O140 1.923 . S
Zn141 O144 1.933 . S
Zn141 O147 1.941 . S
Zn141 O148 1.965 . S
Zn142 O140 1.950 . S
Zn142 O149 1.938 . S
Zn142 O150 1.906 . S
Zn142 O160 1.953 . S
Zn143 O140 1.945 . S
Zn143 O145 1.932 . S
Zn143 O152 1.977 . S
Zn143 O153 1.910 . S
O144 Zn141 1.933 . S
O144 C155 1.226 . S
O145 Zn143 1.932 . S
O145 C155 1.307 . S
O146 Zn139 1.919 . S
O146 C157 1.253 . S
O147 Zn141 1.941 . S
O147 C157 1.283 . S
O148 Zn141 1.965 . S
O148 C156 1.303 . S
O149 Zn142 1.938 . S
O149 C156 1.247 . S
O150 Zn142 1.906 . S
O150 C158 1.304 . S
O151 Zn139 1.924 . S
O151 C159 1.311 . S
O152 Zn143 1.977 . S
O152 C158 1.272 . S
O153 Zn143 1.910 . S
O153 C159 1.231 . S
C154 O138 1.225 . S
C154 O160 1.298 . S
C155 O144 1.226 . S
C155 O145 1.307 . S
C156 O148 1.303 . S
C156 O149 1.247 . S
C157 O146 1.253 . S
C157 O147 1.283 . S
C158 O150 1.304 . S
C158 O152 1.272 . S
C159 O151 1.311 . S
C159 O153 1.231 . S
O160 Zn142 1.953 . S
O160 C154 1.298 . S
O161 Zn162 1.953 . S
O161 C177 1.225 . S
Zn162 O161 1.953 . S
Zn162 O163 1.949 . S
Zn162 O169 1.919 . S
Zn162 O174 1.924 . S
O163 Zn162 1.949 . S
O163 Zn164 1.923 . S
O163 Zn165 1.950 . S
O163 Zn166 1.945 . S
Zn164 O163 1.923 . S
Zn164 O167 1.933 . S
Zn164 O170 1.941 . S
Zn164 O171 1.965 . S
Zn165 O163 1.950 . S
Zn165 O172 1.938 . S
Zn165 O173 1.906 . S
Zn165 O183 1.953 . S
Zn166 O163 1.945 . S
Zn166 O168 1.932 . S
Zn166 O175 1.977 . S
Zn166 O176 1.910 . S
O167 Zn164 1.933 . S
O167 C178 1.226 . S
O168 Zn166 1.932 . S
O168 C178 1.307 . S
O169 Zn162 1.919 . S
O169 C180 1.253 . S
O170 Zn164 1.941 . S
O170 C180 1.283 . S
O171 Zn164 1.965 . S
O171 C179 1.303 . S
O172 Zn165 1.938 . S
O172 C179 1.247 . S
O173 Zn165 1.906 . S
O173 C181 1.304 . S
O174 Zn162 1.924 . S
O174 C182 1.311 . S
O175 Zn166 1.977 . S
O175 C181 1.272 . S
O176 Zn166 1.910 . S
O176 C182 1.231 . S
C177 O161 1.225 . S
C177 O183 1.298 . S
C178 O167 1.226 . S
C178 O168 1.307 . S
C179 O171 1.303 . S
C179 O172 1.247 . S
C180 O169 1.253 . S
C180 O170 1.283 . S
C181 O173 1.304 . S
C181 O175 1.272 . S
C182 O174 1.311 . S
C182 O176 1.231 . S
O183 Zn165 1.953 . S
O183 C177 1.298 . S
O184 Zn185 1.953 . S
O184 C200 1.225 . S
Zn185 O184 1.953 . S
Zn185 O186 1.949 . S
Zn185 O192 1.919 . S
Zn185 O197 1.924 . S
O186 Zn185 1.949 . S
O186 Zn187 1.923 . S
O186 Zn188 1.950 . S
O186 Zn189 1.945 . S
Zn187 O186 1.923 . S
Zn187 O190 1.933 . S
Zn187 O193 1.941 . S
Zn187 O194 1.965 . S
Zn188 O186 1.950 . S
Zn188 O195 1.938 . S
Zn188 O196 1.906 . S
Zn188 O206 1.953 . S
Zn189 O186 1.945 . S
Zn189 O191 1.932 . S
Zn189 O198 1.977 . S
Zn189 O199 1.910 . S
O190 Zn187 1.933 . S
O190 C201 1.226 . S
O191 Zn189 1.932 . S
O191 C201 1.307 . S
O192 Zn185 1.919 . S
O192 C203 1.253 . S
O193 Zn187 1.941 . S
O193 C203 1.283 . S
O194 Zn187 1.965 . S
O194 C202 1.303 . S
O195 Zn188 1.938 . S
O195 C202 1.247 . S
O196 Zn188 1.906 . S
O196 C204 1.304 . S
O197 Zn185 1.924 . S
O197 C205 1.311 . S
O198 Zn189 1.977 . S
O198 C204 1.272 . S
O199 Zn189 1.910 . S
O199 C205 1.231 . S
C200 O184 1.225 . S
C200 O206 1.298 . S
C201 O190 1.226 . S
C201 O191 1.307 . S
C202 O194 1.303 . S
C202 O195 1.247 . S
C203 O192 1.253 . S
C203 O193 1.283 . S
C204 O196 1.304 . S
C204 O198 1.272 . S
C205 O197 1.311 . S
C205 O199 1.231 . S
O206 Zn188 1.953 . S
O206 C200 1.298 . S
O207 Zn208 1.953 . S
O207 C223 1.225 . S
Zn208 O207 1.953 . S
Zn208 O209 1.949 . S
Zn208 O215 1.921 . S
Zn208 O220 1.924 1_545 S
O209 Zn208 1.949 . S
O209 Zn210 1.923 . S
O209 Zn211 1.950 . S
O209 Zn212 1.945 . S
Zn210 O209 1.923 . S
Zn210 O213 1.933 . S
Zn210 O216 1.941 . S
Zn210 O217 1.965 . S
Zn211 O209 1.950 . S
Zn211 O218 1.938 . S
Zn211 O219 1.906 . S
Zn211 O229 1.953 . S
Zn212 O209 1.945 . S
Zn212 O214 1.932 . S
Zn212 O221 1.977 . S
Zn212 O222 1.910 . S
O213 Zn210 1.933 . S
O213 C224 1.226 . S
O214 Zn212 1.932 . S
O214 C224 1.307 . S
O215 Zn208 1.921 . S
O215 C226 1.255 . S
O216 Zn210 1.941 . S
O216 C226 1.283 . S
O217 Zn210 1.965 . S
O217 C225 1.303 . S
O218 Zn211 1.938 . S
O218 C225 1.247 . S
O219 Zn211 1.906 . S
O219 C227 1.304 . S
O220 Zn208 1.924 1_565 S
O220 C228 1.311 . S
O221 Zn212 1.977 . S
O221 C227 1.272 . S
O222 Zn212 1.910 . S
O222 C228 1.231 1_545 S
C223 O207 1.225 . S
C223 O229 1.298 . S
C224 O213 1.226 . S
C224 O214 1.307 . S
C225 O217 1.303 . S
C225 O218 1.247 . S
C226 O215 1.255 . S
C226 O216 1.283 . S
C227 O219 1.304 . S
C227 O221 1.272 . S
C228 O220 1.311 . S
C228 O222 1.231 1_565 S
O229 Zn211 1.953 . S
O229 C223 1.298 . S
O230 Zn231 1.953 . S
O230 C246 1.225 . S
Zn231 O230 1.953 . S
Zn231 O232 1.949 . S
Zn231 O238 1.919 . S
Zn231 O243 1.924 1_655 S
O232 Zn231 1.949 . S
O232 Zn233 1.923 . S
O232 Zn234 1.950 . S
O232 Zn235 1.945 . S
Zn233 O232 1.923 . S
Zn233 O236 1.933 . S
Zn233 O239 1.941 . S
Zn233 O240 1.965 . S
Zn234 O232 1.950 . S
Zn234 O241 1.938 . S
Zn234 O242 1.906 . S
Zn234 O252 1.953 . S
Zn235 O232 1.945 . S
Zn235 O237 1.932 . S
Zn235 O244 1.977 . S
Zn235 O245 1.910 . S
O236 Zn233 1.933 . S
O236 C247 1.226 . S
O237 Zn235 1.932 . S
O237 C247 1.307 . S
O238 Zn231 1.919 . S
O238 C249 1.255 . S
O239 Zn233 1.941 . S
O239 C249 1.283 . S
O240 Zn233 1.965 . S
O240 C248 1.303 . S
O241 Zn234 1.938 . S
O241 C248 1.247 . S
O242 Zn234 1.906 . S
O242 C250 1.304 . S
O243 Zn231 1.924 1_455 S
O243 C251 1.311 . S
O244 Zn235 1.977 . S
O244 C250 1.272 . S
O245 Zn235 1.910 . S
O245 C251 1.231 1_655 S
C246 O230 1.225 . S
C246 O252 1.298 . S
C247 O236 1.226 . S
C247 O237 1.307 . S
C248 O240 1.303 . S
C248 O241 1.247 . S
C249 O238 1.255 . S
C249 O239 1.283 . S
C250 O242 1.304 . S
C250 O244 1.272 . S
C251 O243 1.311 . S
C251 O245 1.231 1_455 S
O252 Zn234 1.953 . S
O252 C246 1.298 . S
O253 Zn254 1.953 . S
O253 C269 1.225 . S
Zn254 O253 1.953 . S
Zn254 O255 1.949 . S
Zn254 O261 1.919 . S
Zn254 O266 1.924 . S
O255 Zn254 1.949 . S
O255 Zn256 1.923 . S
O255 Zn257 1.950 . S
O255 Zn258 1.945 . S
Zn256 O255 1.923 . S
Zn256 O259 1.933 . S
Zn256 O262 1.941 . S
Zn256 O263 1.965 . S
Zn257 O255 1.950 . S
Zn257 O264 1.938 . S
Zn257 O265 1.906 . S
Zn257 O275 1.953 . S
Zn258 O255 1.945 . S
Zn258 O260 1.932 . S
Zn258 O267 1.977 . S
Zn258 O268 1.910 . S
O259 Zn256 1.933 . S
O259 C270 1.226 . S
O260 Zn258 1.932 . S
O260 C270 1.307 . S
O261 Zn254 1.919 . S
O261 C272 1.253 . S
O262 Zn256 1.941 . S
O262 C272 1.283 . S
O263 Zn256 1.965 . S
O263 C271 1.303 . S
O264 Zn257 1.938 . S
O264 C271 1.247 . S
O265 Zn257 1.906 . S
O265 C273 1.304 . S
O266 Zn254 1.924 . S
O266 C274 1.311 . S
O267 Zn258 1.977 . S
O267 C273 1.272 . S
O268 Zn258 1.910 . S
O268 C274 1.231 . S
C269 O253 1.225 . S
C269 O275 1.298 . S
C270 O259 1.226 . S
C270 O260 1.307 . S
C271 O263 1.303 . S
C271 O264 1.247 . S
C272 O261 1.253 . S
C272 O262 1.283 . S
C273 O265 1.304 . S
C273 O267 1.272 . S
C274 O266 1.311 . S
C274 O268 1.231 . S
O275 Zn257 1.953 . S
O275 C269 1.298 . S
O276 Zn277 1.953 . S
O276 C292 1.225 . S
Zn277 O276 1.953 . S
Zn277 O278 1.949 . S
Zn277 O284 1.921 . S
Zn277 O289 1.924 1_565 S
O278 Zn277 1.949 . S
O278 Zn279 1.923 . S
O278 Zn280 1.950 . S
O278 Zn281 1.945 . S
Zn279 O278 1.923 . S
Zn279 O282 1.933 . S
Zn279 O285 1.941 . S
Zn279 O286 1.965 . S
Zn280 O278 1.950 . S
Zn280 O287 1.938 . S
Zn280 O288 1.906 . S
Zn280 O298 1.953 . S
Zn281 O278 1.945 . S
Zn281 O283 1.932 . S
Zn281 O290 1.977 . S
Zn281 O291 1.910 . S
O282 Zn279 1.933 . S
O282 C293 1.226 . S
O283 Zn281 1.932 . S
O283 C293 1.307 . S
O284 Zn277 1.921 . S
O284 C295 1.255 . S
O285 Zn279 1.941 . S
O285 C295 1.283 . S
O286 Zn279 1.965 . S
O286 C294 1.303 . S
O287 Zn280 1.938 . S
O287 C294 1.247 . S
O288 Zn280 1.906 . S
O288 C296 1.304 . S
O289 Zn277 1.924 1_545 S
O289 C297 1.311 . S
O290 Zn281 1.977 . S
O290 C296 1.272 . S
O291 Zn281 1.910 . S
O291 C297 1.231 1_565 S
C292 O276 1.225 . S
C292 O298 1.298 . S
C293 O282 1.226 . S
C293 O283 1.307 . S
C294 O286 1.303 . S
C294 O287 1.247 . S
C295 O284 1.255 . S
C295 O285 1.283 . S
C296 O288 1.304 . S
C296 O290 1.272 . S
C297 O289 1.311 . S
C297 O291 1.231 1_545 S
O298 Zn280 1.953 . S
O298 C292 1.298 . S
O299 Zn300 1.953 . S
O299 C315 1.225 . S
Zn300 O299 1.953 . S
Zn300 O301 1.949 . S
Zn300 O307 1.919 . S
Zn300 O312 1.924 1_455 S
O301 Zn300 1.949 . S
O301 Zn302 1.923 . S
O301 Zn303 1.950 . S
O301 Zn304 1.945 . S
Zn302 O301 1.923 . S
Zn302 O305 1.933 . S
Zn302 O308 1.941 . S
Zn302 O309 1.965 . S
Zn303 O301 1.950 . S
Zn303 O310 1.938 . S
Zn303 O311 1.906 . S
Zn303 O321 1.953 . S
Zn304 O301 1.945 . S
Zn304 O306 1.932 . S
Zn304 O313 1.977 . S
Zn304 O314 1.910 . S
O305 Zn302 1.933 . S
O305 C316 1.226 . S
O306 Zn304 1.932 . S
O306 C316 1.307 . S
O307 Zn300 1.919 . S
O307 C318 1.255 . S
O308 Zn302 1.941 . S
O308 C318 1.283 . S
O309 Zn302 1.965 . S
O309 C317 1.303 . S
O310 Zn303 1.938 . S
O310 C317 1.247 . S
O311 Zn303 1.906 . S
O311 C319 1.304 . S
O312 Zn300 1.924 1_655 S
O312 C320 1.311 . S
O313 Zn304 1.977 . S
O313 C319 1.272 . S
O314 Zn304 1.910 . S
O314 C320 1.231 1_455 S
C315 O299 1.225 . S
C315 O321 1.298 . S
C316 O305 1.226 . S
C316 O306 1.307 . S
C317 O309 1.303 . S
C317 O310 1.247 . S
C318 O307 1.255 . S
C318 O308 1.283 . S
C319 O311 1.304 . S
C319 O313 1.272 . S
C320 O312 1.311 . S
C320 O314 1.231 1_655 S
O321 Zn303 1.953 . S
O321 C315 1.298 . S
O322 Zn323 1.953 . S
O322 C338 1.225 . S
Zn323 O322 1.953 . S
Zn323 O324 1.949 . S
Zn323 O330 1.919 . S
Zn323 O335 1.924 . S
O324 Zn323 1.949 . S
O324 Zn325 1.923 . S
O324 Zn326 1.950 . S
O324 Zn327 1.945 . S
Zn325 O324 1.923 . S
Zn325 O328 1.933 . S
Zn325 O331 1.941 . S
Zn325 O332 1.965 . S
Zn326 O324 1.950 . S
Zn326 O333 1.938 . S
Zn326 O334 1.906 . S
Zn326 O344 1.953 . S
Zn327 O324 1.945 . S
Zn327 O329 1.932 . S
Zn327 O336 1.977 . S
Zn327 O337 1.910 . S
O328 Zn325 1.933 . S
O328 C339 1.226 . S
O329 Zn327 1.932 . S
O329 C339 1.307 . S
O330 Zn323 1.919 . S
O330 C341 1.253 . S
O331 Zn325 1.941 . S
O331 C341 1.283 . S
O332 Zn325 1.965 . S
O332 C340 1.303 . S
O333 Zn326 1.938 . S
O333 C340 1.247 . S
O334 Zn326 1.906 . S
O334 C342 1.304 . S
O335 Zn323 1.924 . S
O335 C343 1.311 . S
O336 Zn327 1.977 . S
O336 C342 1.272 . S
O337 Zn327 1.910 . S
O337 C343 1.231 . S
C338 O322 1.225 . S
C338 O344 1.298 . S
C339 O328 1.226 . S
C339 O329 1.307 . S
C340 O332 1.303 . S
C340 O333 1.247 . S
C341 O330 1.253 . S
C341 O331 1.283 . S
C342 O334 1.304 . S
C342 O336 1.272 . S
C343 O335 1.311 . S
C343 O337 1.231 . S
O344 Zn326 1.953 . S
O344 C338 1.298 . S
O345 Zn346 1.953 . S
O345 C361 1.225 . S
Zn346 O345 1.953 . S
Zn346 O347 1.949 . S
Zn346 O353 1.919 . S
Zn346 O358 1.924 . S
O347 Zn346 1.949 . S
O347 Zn348 1.923 . S
O347 Zn349 1.950 . S
O347 Zn350 1.945 . S
Zn348 O347 1.923 . S
Zn348 O351 1.933 . S
Zn348 O354 1.941 . S
Zn348 O355 1.965 . S
Zn349 O347 1.950 . S
Zn349 O356 1.938 . S
Zn349 O357 1.906 . S
Zn349 O367 1.953 . S
Zn350 O347 1.945 . S
Zn350 O352 1.932 . S
Zn350 O359 1.977 . S
Zn350 O360 1.910 . S
O351 Zn348 1.933 . S
O351 C362 1.226 . S
O352 Zn350 1.932 . S
O352 C362 1.307 . S
O353 Zn346 1.919 . S
O353 C364 1.253 . S
O354 Zn348 1.941 . S
O354 C364 1.283 . S
O355 Zn348 1.965 . S
O355 C363 1.303 . S
O356 Zn349 1.938 . S
O356 C363 1.247 . S
O357 Zn349 1.906 . S
O357 C365 1.304 . S
O358 Zn346 1.924 . S
O358 C366 1.311 . S
O359 Zn350 1.977 . S
O359 C365 1.272 . S
O360 Zn350 1.910 . S
O360 C366 1.231 . S
C361 O345 1.225 . S
C361 O367 1.298 . S
C362 O351 1.226 . S
C362 O352 1.307 . S
C363 O355 1.303 . S
C363 O356 1.247 . S
C364 O353 1.253 . S
C364 O354 1.283 . S
C365 O357 1.304 . S
C365 O359 1.272 . S
C366 O358 1.311 . S
C366 O360 1.231 . S
O367 Zn349 1.953 . S
O367 C361 1.298 . S
O368 Zn369 1.953 . S
O368 C384 1.225 . S
Zn369 O368 1.953 . S
Zn369 O370 1.949 . S
Zn369 O376 1.919 . S
Zn369 O381 1.924 . S
O370 Zn369 1.949 . S
O370 Zn371 1.923 . S
O370 Zn372 1.950 . S
O370 Zn373 1.945 . S
Zn371 O370 1.923 . S
Zn371 O374 1.933 . S
Zn371 O377 1.941 . S
Zn371 O378 1.965 . S
Zn372 O370 1.950 . S
Zn372 O379 1.938 . S
Zn372 O380 1.906 . S
Zn372 O390 1.953 . S
Zn373 O370 1.945 . S
Zn373 O375 1.932 . S
Zn373 O382 1.977 . S
Zn373 O383 1.910 . S
O374 Zn371 1.933 . S
O374 C385 1.226 . S
O375 Zn373 1.932 . S
O375 C385 1.307 . S
O376 Zn369 1.919 . S
O376 C387 1.253 . S
O377 Zn371 1.941 . S
O377 C387 1.283 . S
O378 Zn371 1.965 . S
O378 C386 1.303 . S
O379 Zn372 1.938 . S
O379 C386 1.247 . S
O380 Zn372 1.906 . S
O380 C388 1.304 . S
O381 Zn369 1.924 . S
O381 C389 1.311 . S
O382 Zn373 1.977 . S
O382 C388 1.272 . S
O383 Zn373 1.910 . S
O383 C389 1.231 . S
C384 O368 1.225 . S
C384 O390 1.298 . S
C385 O374 1.226 . S
C385 O375 1.307 . S
C386 O378 1.303 . S
C386 O379 1.247 . S
C387 O376 1.253 . S
C387 O377 1.283 . S
C388 O380 1.304 . S
C388 O382 1.272 . S
C389 O381 1.311 . S
C389 O383 1.231 . S
O390 Zn372 1.953 . S
O390 C384 1.298 . S
O391 Zn392 1.953 . S
O391 C407 1.225 . S
Zn392 O391 1.953 . S
Zn392 O393 1.949 . S
Zn392 O399 1.919 . S
Zn392 O404 1.924 . S
O393 Zn392 1.949 . S
O393 Zn394 1.923 . S
O393 Zn395 1.950 . S
O393 Zn396 1.945 . S
Zn394 O393 1.923 . S
Zn394 O397 1.933 . S
Zn394 O400 1.941 . S
Zn394 O401 1.965 . S
Zn395 O393 1.950 . S
Zn395 O402 1.938 . S
Zn395 O403 1.906 . S
Zn395 O413 1.953 . S
Zn396 O393 1.945 . S
Zn396 O398 1.932 . S
Zn396 O405 1.977 . S
Zn396 O406 1.910 . S
O397 Zn394 1.933 . S
O397 C408 1.226 . S
O398 Zn396 1.932 . S
O398 C408 1.307 . S
O399 Zn392 1.919 . S
O399 C410 1.253 . S
O400 Zn394 1.941 . S
O400 C410 1.283 . S
O401 Zn394 1.965 . S
O401 C409 1.303 . S
O402 Zn395 1.938 . S
O402 C409 1.247 . S
O403 Zn395 1.906 . S
O403 C411 1.304 . S
O404 Zn392 1.924 . S
O404 C412 1.311 . S
O405 Zn396 1.977 . S
O405 C411 1.272 . S
O406 Zn396 1.910 . S
O406 C412 1.231 . S
C407 O391 1.225 . S
C407 O413 1.298 . S
C408 O397 1.226 . S
C408 O398 1.307 . S
C409 O401 1.303 . S
C409 O402 1.247 . S
C410 O399 1.253 . S
C410 O400 1.283 . S
C411 O403 1.304 . S
C411 O405 1.272 . S
C412 O404 1.311 . S
C412 O406 1.231 . S
O413 Zn395 1.953 . S
O413 C407 1.298 . S
C414 C415 1.369 . S
C414 C416 1.419 . S
C414 H418 0.930 . S
C415 C414 1.369 . S
C415 C424 1.429 . S
C416 C414 1.419 . S
C416 C417 1.363 . S
C416 H419 0.929 . S
C417 C416 1.363 . S
C417 C423 1.428 . S
H418 C414 0.930 . S
H419 C416 0.929 . S
S420 N421 1.613 1_554 S
S420 N422 1.610 . S
N421 S420 1.613 1_556 S
N421 C424 1.350 . S
N422 S420 1.610 . S
N422 C423 1.351 1_554 S
C423 C417 1.428 . S
C423 N422 1.351 1_556 S
C423 C424 1.434 . S
C424 C415 1.429 . S
C424 N421 1.350 . S
C424 C423 1.434 . S
C425 C426 1.369 . S
C425 C427 1.419 . S
C425 H429 0.930 1_545 S
C426 C425 1.369 . S
C426 C435 1.429 . S
C427 C425 1.419 . S
C427 C428 1.363 . S
C427 H430 0.929 . S
C428 C427 1.363 . S
C428 C434 1.428 . S
H429 C425 0.930 1_565 S
H430 C427 0.929 . S
S431 N432 1.613 . S
S431 N433 1.610 1_554 S
N432 S431 1.613 . S
N432 C435 1.350 1_554 S
N433 S431 1.610 1_556 S
N433 C434 1.351 . S
C434 C428 1.428 . S
C434 N433 1.351 . S
C434 C435 1.434 . S
C435 C426 1.429 . S
C435 N432 1.350 1_556 S
C435 C434 1.434 . S
C436 C437 1.369 . S
C436 C438 1.419 . S
C436 H440 0.930 . S
C437 C436 1.369 . S
C437 C446 1.429 . S
C438 C436 1.419 . S
C438 C439 1.363 . S
C438 H441 0.929 1_556 S
C439 C438 1.363 . S
C439 C445 1.428 . S
H440 C436 0.930 . S
H441 C438 0.929 1_554 S
S442 N443 1.607 1_455 S
S442 N444 1.615 . S
N443 S442 1.607 1_655 S
N443 C446 1.350 . S
N444 S442 1.615 . S
N444 C445 1.351 1_455 S
C445 C439 1.428 . S
C445 N444 1.351 1_655 S
C445 C446 1.434 . S
C446 C437 1.429 . S
C446 N443 1.350 . S
C446 C445 1.434 . S
C447 C448 1.369 . S
C447 C449 1.419 . S
C447 H451 0.930 . S
C448 C447 1.369 . S
C448 C457 1.429 1_554 S
C449 C447 1.419 . S
C449 C450 1.363 . S
C449 H452 0.929 . S
C450 C449 1.363 . S
C450 C456 1.428 . S
H451 C447 0.930 . S
H452 C449 0.929 . S
S453 N454 1.613 . S
S453 N455 1.610 . S
N454 S453 1.613 . S
N454 C457 1.350 . S
N455 S453 1.610 . S
N455 C456 1.351 1_556 S
C456 C450 1.428 . S
C456 N455 1.351 1_554 S
C456 C457 1.434 1_554 S
C457 C448 1.429 1_556 S
C457 N454 1.350 . S
C457 C456 1.434 1_556 S
C458 C459 1.369 . S
C458 C460 1.419 . S
C458 H462 0.930 . S
C459 C458 1.369 . S
C459 C468 1.429 . S
C460 C458 1.419 . S
C460 C461 1.363 . S
C460 H463 0.929 . S
C461 C460 1.363 . S
C461 C467 1.428 . S
H462 C458 0.930 . S
H463 C460 0.929 . S
S464 N465 1.613 . S
S464 N466 1.610 . S
N465 S464 1.613 . S
N465 C468 1.350 . S
N466 S464 1.610 . S
N466 C467 1.351 . S
C467 C461 1.428 . S
C467 N466 1.351 . S
C467 C468 1.434 . S
C468 C459 1.429 . S
C468 N465 1.350 . S
C468 C467 1.434 . S
C469 C470 1.369 . S
C469 C471 1.419 . S
C469 H473 0.930 . S
C470 C469 1.369 . S
C470 C479 1.429 . S
C471 C469 1.419 . S
C471 C472 1.363 . S
C471 H474 0.929 . S
C472 C471 1.363 . S
C472 C478 1.428 1_554 S
H473 C469 0.930 . S
H474 C471 0.929 . S
S475 N476 1.613 . S
S475 N477 1.610 . S
N476 S475 1.613 . S
N476 C479 1.350 1_556 S
N477 S475 1.610 . S
N477 C478 1.351 . S
C478 C472 1.428 1_556 S
C478 N477 1.351 . S
C478 C479 1.434 1_556 S
C479 C470 1.429 . S
C479 N476 1.350 1_554 S
C479 C478 1.434 1_554 S
C480 C481 1.369 . S
C480 C482 1.419 . S
C480 H484 0.930 . S
C481 C480 1.369 . S
C481 C490 1.429 . S
C482 C480 1.419 . S
C482 C483 1.363 . S
C482 H485 0.929 . S
C483 C482 1.363 . S
C483 C489 1.428 . S
H484 C480 0.930 . S
H485 C482 0.929 . S
S486 N487 1.613 . S
S486 N488 1.610 . S
N487 S486 1.613 . S
N487 C490 1.350 . S
N488 S486 1.610 . S
N488 C489 1.351 . S
C489 C483 1.428 . S
C489 N488 1.351 . S
C489 C490 1.434 . S
C490 C481 1.429 . S
C490 N487 1.350 . S
C490 C489 1.434 . S
C491 C492 1.369 . S
C491 C493 1.419 . S
C491 H495 0.930 . S
C492 C491 1.369 . S
C492 C501 1.429 . S
C493 C491 1.419 . S
C493 C494 1.363 . S
C493 H496 0.929 . S
C494 C493 1.363 . S
C494 C500 1.428 . S
H495 C491 0.930 . S
H496 C493 0.929 . S
S497 N498 1.613 . S
S497 N499 1.610 . S
N498 S497 1.613 . S
N498 C501 1.350 . S
N499 S497 1.610 . S
N499 C500 1.351 . S
C500 C494 1.428 . S
C500 N499 1.351 . S
C500 C501 1.434 . S
C501 C492 1.429 . S
C501 N498 1.350 . S
C501 C500 1.434 . S
C502 C503 1.369 . S
C502 C504 1.419 . S
C502 H506 0.930 . S
C503 C502 1.369 . S
C503 C512 1.429 . S
C504 C502 1.419 . S
C504 C505 1.363 . S
C504 H507 0.929 . S
C505 C504 1.363 . S
C505 C511 1.428 . S
H506 C502 0.930 . S
H507 C504 0.929 . S
S508 N509 1.613 . S
S508 N510 1.610 . S
N509 S508 1.613 . S
N509 C512 1.350 . S
N510 S508 1.610 . S
N510 C511 1.351 . S
C511 C505 1.428 . S
C511 N510 1.351 . S
C511 C512 1.434 . S
C512 C503 1.429 . S
C512 N509 1.350 . S
C512 C511 1.434 . S
C513 C514 1.369 . S
C513 C515 1.419 . S
C513 H517 0.930 . S
C514 C513 1.369 . S
C514 C523 1.429 . S
C515 C513 1.419 . S
C515 C516 1.363 . S
C515 H518 0.929 . S
C516 C515 1.363 . S
C516 C522 1.428 . S
H517 C513 0.930 . S
H518 C515 0.929 . S
S519 N520 1.613 . S
S519 N521 1.610 . S
N520 S519 1.613 . S
N520 C523 1.350 . S
N521 S519 1.610 . S
N521 C522 1.351 . S
C522 C516 1.428 . S
C522 N521 1.351 . S
C522 C523 1.434 . S
C523 C514 1.429 . S
C523 N520 1.350 . S
C523 C522 1.434 . S
C524 C525 1.369 . S
C524 C526 1.419 . S
C524 H528 0.930 . S
C525 C524 1.369 . S
C525 C534 1.429 . S
C526 C524 1.419 . S
C526 C527 1.363 . S
C526 H529 0.929 . S
C527 C526 1.363 . S
C527 C533 1.428 . S
H528 C524 0.930 . S
H529 C526 0.929 . S
S530 N531 1.613 . S
S530 N532 1.610 . S
N531 S530 1.613 . S
N531 C534 1.350 . S
N532 S530 1.610 . S
N532 C533 1.351 . S
C533 C527 1.428 . S
C533 N532 1.351 . S
C533 C534 1.434 . S
C534 C525 1.429 . S
C534 N531 1.350 . S
C534 C533 1.434 . S
C535 C536 1.369 . S
C535 C537 1.419 . S
C535 H539 0.930 . S
C536 C535 1.369 . S
C536 C545 1.429 . S
C537 C535 1.419 . S
C537 C538 1.363 . S
C537 H540 0.929 . S
C538 C537 1.363 . S
C538 C544 1.428 . S
H539 C535 0.930 . S
H540 C537 0.929 . S
S541 N542 1.613 . S
S541 N543 1.610 . S
N542 S541 1.613 . S
N542 C545 1.350 . S
N543 S541 1.610 . S
N543 C544 1.351 . S
C544 C538 1.428 . S
C544 N543 1.351 . S
C544 C545 1.434 . S
C545 C536 1.429 . S
C545 N542 1.350 . S
C545 C544 1.434 . S
C546 C547 1.369 . S
C546 C548 1.419 . S
C546 H550 0.930 . S
C547 C546 1.369 . S
C547 C556 1.429 . S
C548 C546 1.419 . S
C548 C549 1.363 . S
C548 H551 0.929 . S
C549 C548 1.363 . S
C549 C555 1.428 . S
H550 C546 0.930 . S
H551 C548 0.929 . S
S552 N553 1.613 . S
S552 N554 1.610 . S
N553 S552 1.613 . S
N553 C556 1.350 . S
N554 S552 1.610 . S
N554 C555 1.351 . S
C555 C549 1.428 . S
C555 N554 1.351 . S
C555 C556 1.434 . S
C556 C547 1.429 . S
C556 N553 1.350 . S
C556 C555 1.434 . S
C557 C558 1.369 . S
C557 C559 1.419 . S
C557 H561 0.930 . S
C558 C557 1.369 . S
C558 C567 1.429 . S
C559 C557 1.419 . S
C559 C560 1.363 . S
C559 H562 0.929 . S
C560 C559 1.363 . S
C560 C566 1.428 . S
H561 C557 0.930 . S
H562 C559 0.929 . S
S563 N564 1.613 . S
S563 N565 1.610 . S
N564 S563 1.613 . S
N564 C567 1.350 . S
N565 S563 1.610 . S
N565 C566 1.351 . S
C566 C560 1.428 . S
C566 N565 1.351 . S
C566 C567 1.434 . S
C567 C558 1.429 . S
C567 N564 1.350 . S
C567 C566 1.434 . S
C568 C569 1.369 . S
C568 C570 1.419 . S
C568 H572 0.930 . S
C569 C568 1.369 . S
C569 C578 1.429 . S
C570 C568 1.419 . S
C570 C571 1.363 . S
C570 H573 0.929 . S
C571 C570 1.363 . S
C571 C577 1.428 . S
H572 C568 0.930 . S
H573 C570 0.929 . S
S574 N575 1.613 . S
S574 N576 1.610 . S
N575 S574 1.613 . S
N575 C578 1.350 . S
N576 S574 1.610 . S
N576 C577 1.351 . S
C577 C571 1.428 . S
C577 N576 1.351 . S
C577 C578 1.434 . S
C578 C569 1.429 . S
C578 N575 1.350 . S
C578 C577 1.434 . S
C579 C580 1.369 . S
C579 C581 1.419 . S
C579 H583 0.930 . S
C580 C579 1.369 . S
C580 C589 1.429 . S
C581 C579 1.419 . S
C581 C582 1.363 . S
C581 H584 0.929 . S
C582 C581 1.363 . S
C582 C588 1.428 . S
H583 C579 0.930 . S
H584 C581 0.929 . S
S585 N586 1.613 . S
S585 N587 1.610 . S
N586 S585 1.613 . S
N586 C589 1.350 . S
N587 S585 1.610 . S
N587 C588 1.351 . S
C588 C582 1.428 . S
C588 N587 1.351 . S
C588 C589 1.434 . S
C589 C580 1.429 . S
C589 N586 1.350 . S
C589 C588 1.434 . S
C590 C591 1.369 . S
C590 C592 1.419 . S
C590 H594 0.930 . S
C591 C590 1.369 . S
C591 C600 1.429 . S
C592 C590 1.419 . S
C592 C593 1.363 . S
C592 H595 0.929 . S
C593 C592 1.363 . S
C593 C599 1.428 . S
H594 C590 0.930 . S
H595 C592 0.929 . S
S596 N597 1.613 . S
S596 N598 1.610 . S
N597 S596 1.613 . S
N597 C600 1.350 . S
N598 S596 1.610 . S
N598 C599 1.351 . S
C599 C593 1.428 . S
C599 N598 1.351 . S
C599 C600 1.434 . S
C600 C591 1.429 . S
C600 N597 1.350 . S
C600 C599 1.434 . S
C601 C602 1.369 . S
C601 C603 1.419 . S
C601 H605 0.930 . S
C602 C601 1.369 . S
C602 C611 1.429 . S
C603 C601 1.419 . S
C603 C604 1.363 . S
C603 H606 0.929 . S
C604 C603 1.363 . S
C604 C610 1.428 . S
H605 C601 0.930 . S
H606 C603 0.929 . S
S607 N608 1.613 . S
S607 N609 1.610 . S
N608 S607 1.613 . S
N608 C611 1.350 . S
N609 S607 1.610 . S
N609 C610 1.351 . S
C610 C604 1.428 . S
C610 N609 1.351 . S
C610 C611 1.434 . S
C611 C602 1.429 . S
C611 N608 1.350 . S
C611 C610 1.434 . S
C612 C613 1.369 . S
C612 C614 1.419 . S
C612 H616 0.930 . S
C613 C612 1.369 . S
C613 C622 1.429 . S
C614 C612 1.419 . S
C614 C615 1.363 . S
C614 H617 0.929 . S
C615 C614 1.363 . S
C615 C621 1.428 . S
H616 C612 0.930 . S
H617 C614 0.929 . S
S618 N619 1.613 . S
S618 N620 1.610 . S
N619 S618 1.613 . S
N619 C622 1.350 . S
N620 S618 1.610 . S
N620 C621 1.351 . S
C621 C615 1.428 . S
C621 N620 1.351 . S
C621 C622 1.434 . S
C622 C613 1.429 . S
C622 N619 1.350 . S
C622 C621 1.434 . S
C623 C624 1.369 . S
C623 C625 1.419 . S
C623 H627 0.930 . S
C624 C623 1.369 . S
C624 C633 1.429 . S
C625 C623 1.419 . S
C625 C626 1.363 . S
C625 H628 0.929 . S
C626 C625 1.363 . S
C626 C632 1.428 . S
H627 C623 0.930 . S
H628 C625 0.929 . S
S629 N630 1.613 . S
S629 N631 1.610 . S
N630 S629 1.613 . S
N630 C633 1.350 . S
N631 S629 1.610 . S
N631 C632 1.351 . S
C632 C626 1.428 . S
C632 N631 1.351 . S
C632 C633 1.434 . S
C633 C624 1.429 . S
C633 N630 1.350 . S
C633 C632 1.434 . S
C634 C635 1.369 . S
C634 C636 1.419 . S
C634 H638 0.930 . S
C635 C634 1.369 . S
C635 C644 1.429 . S
C636 C634 1.419 . S
C636 C637 1.363 . S
C636 H639 0.929 . S
C637 C636 1.363 . S
C637 C643 1.428 . S
H638 C634 0.930 . S
H639 C636 0.929 . S
S640 N641 1.613 . S
S640 N642 1.610 . S
N641 S640 1.613 . S
N641 C644 1.350 . S
N642 S640 1.610 . S
N642 C643 1.351 . S
C643 C637 1.428 . S
C643 N642 1.351 . S
C643 C644 1.434 . S
C644 C635 1.429 . S
C644 N641 1.350 . S
C644 C643 1.434 . S
C645 C646 1.369 . S
C645 C647 1.419 . S
C645 H649 0.930 . S
C646 C645 1.369 . S
C646 C655 1.429 . S
C647 C645 1.419 . S
C647 C648 1.363 . S
C647 H650 0.929 . S
C648 C647 1.363 . S
C648 C654 1.428 . S
H649 C645 0.930 . S
H650 C647 0.929 . S
S651 N652 1.613 . S
S651 N653 1.610 . S
N652 S651 1.613 . S
N652 C655 1.350 . S
N653 S651 1.610 . S
N653 C654 1.351 . S
C654 C648 1.428 . S
C654 N653 1.351 . S
C654 C655 1.434 . S
C655 C646 1.429 . S
C655 N652 1.350 . S
C655 C654 1.434 . S
C656 C657 1.369 . S
C656 C658 1.419 . S
C656 H660 0.930 . S
C657 C656 1.369 . S
C657 C666 1.429 . S
C658 C656 1.419 . S
C658 C659 1.363 . S
C658 H661 0.929 . S
C659 C658 1.363 . S
C659 C665 1.428 . S
H660 C656 0.930 . S
H661 C658 0.929 . S
S662 N663 1.613 . S
S662 N664 1.610 . S
N663 S662 1.613 . S
N663 C666 1.350 . S
N664 S662 1.610 . S
N664 C665 1.351 . S
C665 C659 1.428 . S
C665 N664 1.351 . S
C665 C666 1.434 . S
C666 C657 1.429 . S
C666 N663 1.350 . S
C666 C665 1.434 . S
C667 C668 1.369 . S
C667 C669 1.419 . S
C667 H671 0.930 . S
C668 C667 1.369 . S
C668 C677 1.429 . S
C669 C667 1.419 . S
C669 C670 1.363 . S
C669 H672 0.929 . S
C670 C669 1.363 . S
C670 C676 1.428 . S
H671 C667 0.930 . S
H672 C669 0.929 . S
S673 N674 1.613 . S
S673 N675 1.610 . S
N674 S673 1.613 . S
N674 C677 1.350 . S
N675 S673 1.610 . S
N675 C676 1.351 . S
C676 C670 1.428 . S
C676 N675 1.351 . S
C676 C677 1.434 . S
C677 C668 1.429 . S
C677 N674 1.350 . S
C677 C676 1.434 . S
C678 C679 1.369 1_545 S
C678 C680 1.419 . S
C678 H682 0.930 . S
C679 C678 1.369 1_565 S
C679 C688 1.429 . S
C680 C678 1.419 . S
C680 C681 1.363 . S
C680 H683 0.929 . S
C681 C680 1.363 . S
C681 C687 1.428 1_545 S
H682 C678 0.930 . S
H683 C680 0.929 . S
S684 N685 1.613 . S
S684 N686 1.610 . S
N685 S684 1.613 . S
N685 C688 1.350 . S
N686 S684 1.610 . S
N686 C687 1.351 . S
C687 C681 1.428 1_565 S
C687 N686 1.351 . S
C687 C688 1.434 . S
C688 C679 1.429 . S
C688 N685 1.350 . S
C688 C687 1.434 . S
C689 C690 1.369 . S
C689 C691 1.419 1_455 S
C689 H693 0.930 . S
C690 C689 1.369 . S
C690 C699 1.429 . S
C691 C689 1.419 1_655 S
C691 C692 1.363 . S
C691 H694 0.929 . S
C692 C691 1.363 . S
C692 C698 1.428 . S
H693 C689 0.930 . S
H694 C691 0.929 . S
S695 N696 1.613 . S
S695 N697 1.610 1_455 S
N696 S695 1.613 . S
N696 C699 1.350 . S
N697 S695 1.610 1_655 S
N697 C698 1.351 . S
C698 C692 1.428 . S
C698 N697 1.351 . S
C698 C699 1.434 1_655 S
C699 C690 1.429 . S
C699 N696 1.350 . S
C699 C698 1.434 1_455 S
C700 C701 1.369 . S
C700 C702 1.419 . S
C700 H704 0.930 . S
C701 C700 1.369 . S
C701 C710 1.429 . S
C702 C700 1.419 . S
C702 C703 1.363 . S
C702 H705 0.929 . S
C703 C702 1.363 . S
C703 C709 1.428 . S
H704 C700 0.930 . S
H705 C702 0.929 . S
S706 N707 1.613 . S
S706 N708 1.610 . S
N707 S706 1.613 . S
N707 C710 1.350 . S
N708 S706 1.610 . S
N708 C709 1.351 . S
C709 C703 1.428 . S
C709 N708 1.351 . S
C709 C710 1.434 . S
C710 C701 1.429 . S
C710 N707 1.350 . S
C710 C709 1.434 . S
C711 C712 1.369 . S
C711 C713 1.419 . S
C711 H715 0.930 . S
C712 C711 1.369 . S
C712 C721 1.429 . S
C713 C711 1.419 . S
C713 C714 1.363 . S
C713 H716 0.929 . S
C714 C713 1.363 . S
C714 C720 1.428 . S
H715 C711 0.930 . S
H716 C713 0.929 . S
S717 N718 1.613 . S
S717 N719 1.610 . S
N718 S717 1.613 . S
N718 C721 1.350 . S
N719 S717 1.610 . S
N719 C720 1.351 . S
C720 C714 1.428 . S
C720 N719 1.351 . S
C720 C721 1.434 . S
C721 C712 1.429 . S
C721 N718 1.350 . S
C721 C720 1.434 . S
C722 C723 1.369 . S
C722 C724 1.419 . S
C722 H726 0.930 . S
C723 C722 1.369 . S
C723 C732 1.429 . S
C724 C722 1.419 . S
C724 C725 1.363 1_545 S
C724 H727 0.929 . S
C725 C724 1.363 1_565 S
C725 C731 1.428 . S
H726 C722 0.930 . S
H727 C724 0.929 . S
S728 N729 1.613 . S
S728 N730 1.610 . S
N729 S728 1.613 . S
N729 C732 1.350 1_565 S
N730 S728 1.610 . S
N730 C731 1.351 . S
C731 C725 1.428 . S
C731 N730 1.351 . S
C731 C732 1.434 1_565 S
C732 C723 1.429 . S
C732 N729 1.350 1_545 S
C732 C731 1.434 1_545 S
C733 C734 1.369 . S
C733 C735 1.419 1_655 S
C733 H737 0.930 . S
C734 C733 1.369 . S
C734 C743 1.429 . S
C735 C733 1.419 1_455 S
C735 C736 1.363 . S
C735 H738 0.929 . S
C736 C735 1.363 . S
C736 C742 1.428 1_455 S
H737 C733 0.930 . S
H738 C735 0.929 . S
S739 N740 1.613 . S
S739 N741 1.610 . S
N740 S739 1.613 . S
N740 C743 1.350 . S
N741 S739 1.610 . S
N741 C742 1.351 . S
C742 C736 1.428 1_655 S
C742 N741 1.351 . S
C742 C743 1.434 . S
C743 C734 1.429 . S
C743 N740 1.350 . S
C743 C742 1.434 . S
C744 C745 1.369 . S
C744 C746 1.419 . S
C744 H748 0.930 . S
C745 C744 1.369 . S
C745 C754 1.429 . S
C746 C744 1.419 . S
C746 C747 1.363 . S
C746 H749 0.929 . S
C747 C746 1.363 . S
C747 C753 1.428 . S
H748 C744 0.930 . S
H749 C746 0.929 . S
S750 N751 1.613 . S
S750 N752 1.610 . S
N751 S750 1.613 . S
N751 C754 1.350 . S
N752 S750 1.610 . S
N752 C753 1.351 . S
C753 C747 1.428 . S
C753 N752 1.351 . S
C753 C754 1.434 . S
C754 C745 1.429 . S
C754 N751 1.350 . S
C754 C753 1.434 . S
C755 C756 1.369 . S
C755 C757 1.419 . S
C755 H759 0.930 . S
C756 C755 1.369 . S
C756 C765 1.429 . S
C757 C755 1.419 . S
C757 C758 1.363 1_565 S
C757 H760 0.929 . S
C758 C757 1.363 1_545 S
C758 C764 1.428 . S
H759 C755 0.930 . S
H760 C757 0.929 . S
S761 N762 1.610 1_545 S
S761 N763 1.610 . S
N762 S761 1.610 1_565 S
N762 C765 1.349 . S
N763 S761 1.610 . S
N763 C764 1.351 . S
C764 C758 1.428 . S
C764 N763 1.351 . S
C764 C765 1.434 1_545 S
C765 C756 1.429 . S
C765 N762 1.349 . S
C765 C764 1.434 1_565 S
C766 C767 1.369 1_455 S
C766 C768 1.419 . S
C766 H770 0.930 . S
C767 C766 1.369 1_655 S
C767 C776 1.429 . S
C768 C766 1.419 . S
C768 C769 1.363 . S
C768 H771 0.929 . S
C769 C768 1.363 . S
C769 C775 1.428 . S
H770 C766 0.930 . S
H771 C768 0.929 . S
S772 N773 1.613 . S
S772 N774 1.610 . S
N773 S772 1.613 . S
N773 C776 1.350 . S
N774 S772 1.610 . S
N774 C775 1.351 1_655 S
C775 C769 1.428 . S
C775 N774 1.351 1_455 S
C775 C776 1.434 1_455 S
C776 C767 1.429 . S
C776 N773 1.350 . S
C776 C775 1.434 1_655 S
C777 C778 1.369 . S
C777 C779 1.419 . S
C777 H781 0.930 . S
C778 C777 1.369 . S
C778 C787 1.429 . S
C779 C777 1.419 . S
C779 C780 1.363 . S
C779 H782 0.929 . S
C780 C779 1.363 . S
C780 C786 1.428 . S
H781 C777 0.930 . S
H782 C779 0.929 . S
S783 N784 1.613 . S
S783 N785 1.610 . S
N784 S783 1.613 . S
N784 C787 1.350 . S
N785 S783 1.610 . S
N785 C786 1.351 . S
C786 C780 1.428 . S
C786 N785 1.351 . S
C786 C787 1.434 . S
C787 C778 1.429 . S
C787 N784 1.350 . S
C787 C786 1.434 . S
C788 C789 1.369 . S
C788 C790 1.419 . S
C788 H792 0.930 . S
C789 C788 1.369 . S
C789 C798 1.429 . S
C790 C788 1.419 . S
C790 C791 1.363 . S
C790 H793 0.929 . S
C791 C790 1.363 . S
C791 C797 1.428 . S
H792 C788 0.930 . S
H793 C790 0.929 . S
S794 N795 1.613 . S
S794 N796 1.610 . S
N795 S794 1.613 . S
N795 C798 1.350 . S
N796 S794 1.610 . S
N796 C797 1.351 . S
C797 C791 1.428 . S
C797 N796 1.351 . S
C797 C798 1.434 . S
C798 C789 1.429 . S
C798 N795 1.350 . S
C798 C797 1.434 . S
C799 C800 1.369 . S
C799 C801 1.419 . S
C799 H803 0.930 . S
C800 C799 1.369 . S
C800 C809 1.429 . S
C801 C799 1.419 . S
C801 C802 1.363 . S
C801 H804 0.929 . S
C802 C801 1.363 . S
C802 C808 1.428 . S
H803 C799 0.930 . S
H804 C801 0.929 . S
S805 N806 1.613 . S
S805 N807 1.610 . S
N806 S805 1.613 . S
N806 C809 1.350 . S
N807 S805 1.610 . S
N807 C808 1.351 . S
C808 C802 1.428 . S
C808 N807 1.351 . S
C808 C809 1.434 . S
C809 C800 1.429 . S
C809 N806 1.350 . S
C809 C808 1.434 . S
C810 C811 1.369 . S
C810 C812 1.419 . S
C810 H814 0.930 1_554 S
C811 C810 1.369 . S
C811 C820 1.429 . S
C812 C810 1.419 . S
C812 C813 1.363 . S
C812 H815 0.929 . S
C813 C812 1.363 . S
C813 C819 1.428 . S
H814 C810 0.930 1_556 S
H815 C812 0.929 . S
S816 N817 1.593 1_565 S
S816 N818 1.601 1_565 S
N817 S816 1.593 1_545 S
N817 C820 1.350 . S
N818 S816 1.601 1_545 S
N818 C819 1.351 . S
C819 C813 1.428 . S
C819 N818 1.351 . S
C819 C820 1.434 . S
C820 C811 1.429 . S
C820 N817 1.350 . S
C820 C819 1.434 . S
C821 C822 1.369 . S
C821 C823 1.419 . S
C821 H825 0.930 . S
C822 C821 1.369 . S
C822 C831 1.429 . S
C823 C821 1.419 . S
C823 C824 1.363 . S
C823 H826 0.929 . S
C824 C823 1.363 . S
C824 C830 1.428 . S
H825 C821 0.930 . S
H826 C823 0.929 . S
S827 N828 1.611 1_554 S
S827 N829 1.641 . S
N828 S827 1.611 1_556 S
N828 C831 1.350 1_556 S
N829 S827 1.641 . S
N829 C830 1.351 . S
C830 C824 1.428 . S
C830 N829 1.351 . S
C830 C831 1.434 . S
C831 C822 1.429 . S
C831 N828 1.350 1_554 S
C831 C830 1.434 . S
C832 C833 1.369 . S
C832 C834 1.419 . S
C832 H836 0.930 1_554 S
C833 C832 1.369 . S
C833 C842 1.429 . S
C834 C832 1.419 . S
C834 C835 1.363 . S
C834 H837 0.929 . S
C835 C834 1.363 . S
C835 C841 1.428 . S
H836 C832 0.930 1_556 S
H837 C834 0.929 . S
S838 N839 1.613 . S
S838 N840 1.610 . S
N839 S838 1.613 . S
N839 C842 1.350 . S
N840 S838 1.610 . S
N840 C841 1.351 . S
C841 C835 1.428 . S
C841 N840 1.351 . S
C841 C842 1.434 . S
C842 C833 1.429 . S
C842 N839 1.350 . S
C842 C841 1.434 . S
C843 C844 1.369 . S
C843 C845 1.419 . S
C843 H847 0.930 . S
C844 C843 1.369 . S
C844 C853 1.429 1_556 S
C845 C843 1.419 . S
C845 C846 1.363 . S
C845 H848 0.929 . S
C846 C845 1.363 . S
C846 C852 1.428 1_556 S
H847 C843 0.930 . S
H848 C845 0.929 . S
S849 N850 1.613 . S
S849 N851 1.610 . S
N850 S849 1.613 . S
N850 C853 1.350 . S
N851 S849 1.610 . S
N851 C852 1.351 . S
C852 C846 1.428 1_554 S
C852 N851 1.351 . S
C852 C853 1.434 . S
C853 C844 1.429 1_554 S
C853 N850 1.350 . S
C853 C852 1.434 . S
C854 C855 1.369 . S
C854 C856 1.419 . S
C854 H858 0.930 . S
C855 C854 1.369 . S
C855 C864 1.429 . S
C856 C854 1.419 . S
C856 C857 1.363 . S
C856 H859 0.929 . S
C857 C856 1.363 . S
C857 C863 1.428 . S
H858 C854 0.930 . S
H859 C856 0.929 . S
S860 N861 1.613 1_655 S
S860 N862 1.610 1_655 S
N861 S860 1.613 1_455 S
N861 C864 1.350 . S
N862 S860 1.610 1_455 S
N862 C863 1.351 . S
C863 C857 1.428 . S
C863 N862 1.351 . S
C863 C864 1.434 . S
C864 C855 1.429 . S
C864 N861 1.350 . S
C864 C863 1.434 . S
C865 C866 1.369 . S
C865 C867 1.419 . S
C865 H869 0.930 . S
C866 C865 1.369 . S
C866 C875 1.429 1_556 S
C867 C865 1.419 . S
C867 C868 1.363 . S
C867 H870 0.929 . S
C868 C867 1.363 . S
C868 C874 1.428 . S
H869 C865 0.930 . S
H870 C867 0.929 . S
S871 N872 1.613 . S
S871 N873 1.610 . S
N872 S871 1.613 . S
N872 C875 1.350 . S
N873 S871 1.610 . S
N873 C874 1.351 1_554 S
C874 C868 1.428 . S
C874 N873 1.351 1_556 S
C874 C875 1.434 1_556 S
C875 C866 1.429 1_554 S
C875 N872 1.350 . S
C875 C874 1.434 1_554 S
C876 C877 1.369 . S
C876 C878 1.419 . S
C876 H880 0.930 . S
C877 C876 1.369 . S
C877 C886 1.429 . S
C878 C876 1.419 . S
C878 C879 1.363 . S
C878 H881 0.929 . S
C879 C878 1.363 . S
C879 C885 1.428 . S
H880 C876 0.930 . S
H881 C878 0.929 . S
S882 N883 1.613 . S
S882 N884 1.610 . S
N883 S882 1.613 . S
N883 C886 1.350 . S
N884 S882 1.610 . S
N884 C885 1.351 . S
C885 C879 1.428 . S
C885 N884 1.351 . S
C885 C886 1.434 . S
C886 C877 1.429 . S
C886 N883 1.350 . S
C886 C885 1.434 . S
C887 C888 1.369 . S
C887 C889 1.419 . S
C887 H891 0.930 . S
C888 C887 1.369 . S
C888 C897 1.429 . S
C889 C887 1.419 . S
C889 C890 1.363 . S
C889 H892 0.929 . S
C890 C889 1.363 . S
C890 C896 1.428 . S
H891 C887 0.930 . S
H892 C889 0.929 . S
S893 N894 1.613 . S
S893 N895 1.610 . S
N894 S893 1.613 . S
N894 C897 1.350 . S
N895 S893 1.610 . S
N895 C896 1.351 . S
C896 C890 1.428 . S
C896 N895 1.351 . S
C896 C897 1.434 . S
C897 C888 1.429 . S
C897 N894 1.350 . S
C897 C896 1.434 . S
C898 C899 1.369 . S
C898 C900 1.419 . S
C898 H902 0.930 . S
C899 C898 1.369 . S
C899 C908 1.429 . S
C900 C898 1.419 . S
C900 C901 1.363 . S
C900 H903 0.929 . S
C901 C900 1.363 . S
C901 C907 1.428 . S
H902 C898 0.930 . S
H903 C900 0.929 . S
S904 N905 1.613 . S
S904 N906 1.610 . S
N905 S904 1.613 . S
N905 C908 1.350 . S
N906 S904 1.610 . S
N906 C907 1.351 . S
C907 C901 1.428 . S
C907 N906 1.351 . S
C907 C908 1.434 . S
C908 C899 1.429 . S
C908 N905 1.350 . S
C908 C907 1.434 . S
C909 C910 1.369 . S
C909 C911 1.419 . S
C909 H913 0.930 . S
C910 C909 1.369 . S
C910 C919 1.429 . S
C911 C909 1.419 . S
C911 C912 1.363 . S
C911 H914 0.929 . S
C912 C911 1.363 . S
C912 C918 1.428 . S
H913 C909 0.930 . S
H914 C911 0.929 . S
S915 N916 1.613 . S
S915 N917 1.610 . S
N916 S915 1.613 . S
N916 C919 1.350 . S
N917 S915 1.610 . S
N917 C918 1.351 . S
C918 C912 1.428 . S
C918 N917 1.351 . S
C918 C919 1.434 . S
C919 C910 1.429 . S
C919 N916 1.350 . S
C919 C918 1.434 . S
C920 C921 1.369 . S
C920 C922 1.419 . S
C920 H924 0.930 . S
C921 C920 1.369 . S
C921 C930 1.429 . S
C922 C920 1.419 . S
C922 C923 1.363 . S
C922 H925 0.929 . S
C923 C922 1.363 . S
C923 C929 1.428 . S
H924 C920 0.930 . S
H925 C922 0.929 . S
S926 N927 1.613 . S
S926 N928 1.610 . S
N927 S926 1.613 . S
N927 C930 1.350 . S
N928 S926 1.610 . S
N928 C929 1.351 . S
C929 C923 1.428 . S
C929 N928 1.351 . S
C929 C930 1.434 . S
C930 C921 1.429 . S
C930 N927 1.350 . S
C930 C929 1.434 . S
C931 C932 1.369 . S
C931 C933 1.419 . S
C931 H935 0.930 . S
C932 C931 1.369 . S
C932 C941 1.429 . S
C933 C931 1.419 . S
C933 C934 1.363 . S
C933 H936 0.929 . S
C934 C933 1.363 . S
C934 C940 1.428 . S
H935 C931 0.930 . S
H936 C933 0.929 . S
S937 N938 1.613 . S
S937 N939 1.610 . S
N938 S937 1.613 . S
N938 C941 1.350 . S
N939 S937 1.610 . S
N939 C940 1.351 . S
C940 C934 1.428 . S
C940 N939 1.351 . S
C940 C941 1.434 . S
C941 C932 1.429 . S
C941 N938 1.350 . S
C941 C940 1.434 . S
C942 C943 1.369 . S
C942 C944 1.419 . S
C942 H946 0.930 . S
C943 C942 1.369 . S
C943 C952 1.429 . S
C944 C942 1.419 . S
C944 C945 1.363 . S
C944 H947 0.929 . S
C945 C944 1.363 . S
C945 C951 1.428 . S
H946 C942 0.930 . S
H947 C944 0.929 . S
S948 N949 1.613 . S
S948 N950 1.610 . S
N949 S948 1.613 . S
N949 C952 1.350 . S
N950 S948 1.610 . S
N950 C951 1.351 . S
C951 C945 1.428 . S
C951 N950 1.351 . S
C951 C952 1.434 . S
C952 C943 1.429 . S
C952 N949 1.350 . S
C952 C951 1.434 . S
C953 C954 1.369 . S
C953 C955 1.419 . S
C953 H957 0.930 . S
C954 C953 1.369 . S
C954 C963 1.429 . S
C955 C953 1.419 . S
C955 C956 1.363 . S
C955 H958 0.929 . S
C956 C955 1.363 . S
C956 C962 1.428 . S
H957 C953 0.930 . S
H958 C955 0.929 . S
S959 N960 1.613 . S
S959 N961 1.610 . S
N960 S959 1.613 . S
N960 C963 1.350 . S
N961 S959 1.610 . S
N961 C962 1.351 . S
C962 C956 1.428 . S
C962 N961 1.351 . S
C962 C963 1.434 . S
C963 C954 1.429 . S
C963 N960 1.350 . S
C963 C962 1.434 . S
C964 C965 1.369 . S
C964 C966 1.419 . S
C964 H968 0.930 . S
C965 C964 1.369 . S
C965 C974 1.429 . S
C966 C964 1.419 . S
C966 C967 1.363 . S
C966 H969 0.929 . S
C967 C966 1.363 . S
C967 C973 1.428 . S
H968 C964 0.930 . S
H969 C966 0.929 . S
S970 N971 1.613 . S
S970 N972 1.610 . S
N971 S970 1.613 . S
N971 C974 1.350 . S
N972 S970 1.610 . S
N972 C973 1.351 . S
C973 C967 1.428 . S
C973 N972 1.351 . S
C973 C974 1.434 . S
C974 C965 1.429 . S
C974 N971 1.350 . S
C974 C973 1.434 . S
C975 C976 1.369 . S
C975 C977 1.419 1_554 S
C975 H979 0.930 . S
C976 C975 1.369 . S
C976 C985 1.429 1_545 S
C977 C975 1.419 1_556 S
C977 C978 1.363 1_545 S
C977 H980 0.929 . S
C978 C977 1.363 1_565 S
C978 C984 1.428 . S
H979 C975 0.930 . S
H980 C977 0.929 . S
S981 N982 1.613 . S
S981 N983 1.610 1_554 S
N982 S981 1.613 . S
N982 C985 1.350 . S
N983 S981 1.610 1_556 S
N983 C984 1.351 . S
C984 C978 1.428 . S
C984 N983 1.351 . S
C984 C985 1.434 1_556 S
C985 C976 1.429 1_565 S
C985 N982 1.350 . S
C985 C984 1.434 1_554 S
C986 C987 1.369 1_455 S
C986 C988 1.419 1_554 S
C986 H990 0.930 . S
C987 C986 1.369 1_655 S
C987 C996 1.429 . S
C988 C986 1.419 1_556 S
C988 C989 1.363 . S
C988 H991 0.929 . S
C989 C988 1.363 . S
C989 C995 1.428 1_455 S
H990 C986 0.930 . S
H991 C988 0.929 . S
S992 N993 1.613 1_556 S
S992 N994 1.610 . S
N993 S992 1.613 1_554 S
N993 C996 1.350 . S
N994 S992 1.610 . S
N994 C995 1.351 . S
C995 C989 1.428 1_655 S
C995 N994 1.351 . S
C995 C996 1.434 1_556 S
C996 C987 1.429 . S
C996 N993 1.350 . S
C996 C995 1.434 1_554 S
C997 C998 1.369 . S
C997 C999 1.419 1_556 S
C997 H1001 0.930 . S
C998 C997 1.369 . S
C998 C1007 1.429 . S
C999 C997 1.419 1_554 S
C999 C1000 1.363 . S
C999 H1002 0.929 . S
C1000 C999 1.363 . S
C1000 C1006 1.428 . S
H1001 C997 0.930 . S
H1002 C999 0.929 . S
S1003 N1004 1.613 . S
S1003 N1005 1.610 1_556 S
N1004 S1003 1.613 . S
N1004 C1007 1.350 . S
N1005 S1003 1.610 1_554 S
N1005 C1006 1.351 . S
C1006 C1000 1.428 . S
C1006 N1005 1.351 . S
C1006 C1007 1.434 1_554 S
C1007 C998 1.429 . S
C1007 N1004 1.350 . S
C1007 C1006 1.434 1_556 S
C415 C110 1.396 . S
C417 C20 1.446 . S
C426 C43 1.445 1_545 S
C428 C133 1.398 . S
C437 C87 1.405 . S
C439 C66 1.444 1_655 S
C448 C89 1.446 . S
C450 C41 1.399 . S
C459 C112 1.445 1_565 S
C461 C64 1.398 . S
C470 C18 1.396 . S
C472 C135 1.446 1_455 S
C481 C158 1.444 . S
C483 C248 1.404 . S
C492 C271 1.405 . S
C494 C181 1.444 . S
C503 C225 1.405 . S
C505 C204 1.444 . S
C514 C227 1.444 . S
C516 C179 1.404 . S
C525 C202 1.405 . S
C527 C250 1.444 . S
C536 C273 1.444 . S
C538 C156 1.404 . S
C547 C386 1.405 . S
C549 C296 1.445 . S
C558 C319 1.444 . S
C560 C409 1.403 . S
C569 C363 1.398 . S
C571 C342 1.445 . S
C580 C317 1.397 . S
C582 C365 1.445 . S
C591 C388 1.444 . S
C593 C340 1.404 . S
C602 C294 1.397 . S
C604 C411 1.445 . S
C613 C16 1.292 . S
C615 C361 1.287 . S
C624 C39 1.286 . S
C626 C384 1.292 . S
C635 C407 1.284 . S
C637 C62 1.293 . S
C646 C85 1.294 . S
C648 C154 1.286 . S
C657 C108 1.288 . S
C659 C177 1.290 . S
C668 C200 1.284 . S
C670 C131 1.293 . S
C679 C292 1.286 . S
C681 C223 1.291 . S
C690 C315 1.284 . S
C692 C246 1.293 . S
C701 C338 1.294 . S
C703 C269 1.285 . S
C712 C17 1.478 . S
C714 C182 1.544 . S
C723 C205 1.546 . S
C725 C40 1.476 . S
C734 C159 1.546 . S
C736 C63 1.476 . S
C745 C86 1.474 . S
C747 C389 1.547 . S
C756 C412 1.548 . S
C758 C109 1.474 . S
C767 C132 1.480 . S
C769 C366 1.545 . S
C778 C155 1.479 . S
C780 C320 1.545 . S
C789 C178 1.474 . S
C791 C343 1.547 . S
C800 C201 1.472 . S
C802 C297 1.547 . S
C811 C113 1.548 1_554 S
C813 C224 1.474 . S
C822 C136 1.547 1_554 S
C824 C247 1.475 . S
C833 C90 1.542 1_554 S
C835 C270 1.480 . S
C844 C293 1.481 . S
C846 C44 1.544 1_556 S
C855 C316 1.472 . S
C857 C67 1.547 1_556 S
C866 C21 1.544 1_556 S
C868 C339 1.480 . S
C877 C251 1.546 . S
C879 C362 1.477 . S
C888 C385 1.479 . S
C890 C274 1.545 . S
C899 C228 1.542 . S
C901 C408 1.482 . S
C910 C19 1.490 . S
C912 C364 1.489 . S
C921 C42 1.486 . S
C923 C387 1.493 . S
C932 C65 1.494 . S
C934 C410 1.486 . S
C943 C157 1.485 . S
C945 C88 1.493 . S
C954 C111 1.485 . S
C956 C180 1.493 . S
C965 C203 1.493 . S
C967 C134 1.487 . S
C976 C226 1.492 . S
C978 C295 1.488 . S
C987 C249 1.490 . S
C989 C318 1.490 . S
C998 C341 1.494 . S
C1000 C272 1.487 . S
