# Generated by pormake.
# Topology smq, (6)-cn, num edge types: 1
# Building blocks:
#     Node 0, Type 0, BuildingBlock: OJICUG_clean_sbu_0, # of connection points: 6
#     Node 1, Type 0, BuildingBlock: OJICUG_clean_sbu_0, # of connection points: 6
#     Node 2, Type 0, BuildingBlock: OJICUG_clean_sbu_0, # of connection points: 6
#     Node 3, Type 0, BuildingBlock: OJICUG_clean_sbu_0, # of connection points: 6
#     Node 4, Type 0, BuildingBlock: OJICUG_clean_sbu_0, # of connection points: 6
#     Node 5, Type 0, BuildingBlock: OJICUG_clean_sbu_0, # of connection points: 6
#     Node 6, Type 0, BuildingBlock: OJICUG_clean_sbu_0, # of connection points: 6
#     Node 7, Type 0, BuildingBlock: OJICUG_clean_sbu_0, # of connection points: 6
#     Node 8, Type 0, BuildingBlock: OJICUG_clean_sbu_0, # of connection points: 6
#     Node 9, Type 0, BuildingBlock: OJICUG_clean_sbu_0, # of connection points: 6
#     Node 10, Type 0, BuildingBlock: OJICUG_clean_sbu_0, # of connection points: 6
#     Node 11, Type 0, BuildingBlock: OJICUG_clean_sbu_0, # of connection points: 6
#     Node 12, Type 0, BuildingBlock: OJICUG_clean_sbu_0, # of connection points: 6
#     Node 13, Type 0, BuildingBlock: OJICUG_clean_sbu_0, # of connection points: 6
#     Node 14, Type 0, BuildingBlock: OJICUG_clean_sbu_0, # of connection points: 6
#     Node 15, Type 0, BuildingBlock: OJICUG_clean_sbu_0, # of connection points: 6
#     Node 16, Type 0, BuildingBlock: OJICUG_clean_sbu_0, # of connection points: 6
#     Node 17, Type 0, BuildingBlock: OJICUG_clean_sbu_0, # of connection points: 6
#     Node 18, Type 0, BuildingBlock: OJICUG_clean_sbu_0, # of connection points: 6
#     Node 19, Type 0, BuildingBlock: OJICUG_clean_sbu_0, # of connection points: 6
#     Node 20, Type 0, BuildingBlock: OJICUG_clean_sbu_0, # of connection points: 6
#     Node 21, Type 0, BuildingBlock: OJICUG_clean_sbu_0, # of connection points: 6
#     Node 22, Type 0, BuildingBlock: OJICUG_clean_sbu_0, # of connection points: 6
#     Node 23, Type 0, BuildingBlock: OJICUG_clean_sbu_0, # of connection points: 6
#     Edge 24, Type (0, 0), BuildingBlock: KIFKEQ_clean_linker_1, # of connection points: 2
#     Edge 25, Type (0, 0), BuildingBlock: KIFKEQ_clean_linker_1, # of connection points: 2
#     Edge 26, Type (0, 0), BuildingBlock: KIFKEQ_clean_linker_1, # of connection points: 2
#     Edge 27, Type (0, 0), BuildingBlock: KIFKEQ_clean_linker_1, # of connection points: 2
#     Edge 28, Type (0, 0), BuildingBlock: KIFKEQ_clean_linker_1, # of connection points: 2
#     Edge 29, Type (0, 0), BuildingBlock: KIFKEQ_clean_linker_1, # of connection points: 2
#     Edge 30, Type (0, 0), BuildingBlock: KIFKEQ_clean_linker_1, # of connection points: 2
#     Edge 31, Type (0, 0), BuildingBlock: KIFKEQ_clean_linker_1, # of connection points: 2
#     Edge 32, Type (0, 0), BuildingBlock: KIFKEQ_clean_linker_1, # of connection points: 2
#     Edge 33, Type (0, 0), BuildingBlock: KIFKEQ_clean_linker_1, # of connection points: 2
#     Edge 34, Type (0, 0), BuildingBlock: KIFKEQ_clean_linker_1, # of connection points: 2
#     Edge 35, Type (0, 0), BuildingBlock: KIFKEQ_clean_linker_1, # of connection points: 2
#     Edge 36, Type (0, 0), BuildingBlock: KIFKEQ_clean_linker_1, # of connection points: 2
#     Edge 37, Type (0, 0), BuildingBlock: KIFKEQ_clean_linker_1, # of connection points: 2
#     Edge 38, Type (0, 0), BuildingBlock: KIFKEQ_clean_linker_1, # of connection points: 2
#     Edge 39, Type (0, 0), BuildingBlock: KIFKEQ_clean_linker_1, # of connection points: 2
#     Edge 40, Type (0, 0), BuildingBlock: KIFKEQ_clean_linker_1, # of connection points: 2
#     Edge 41, Type (0, 0), BuildingBlock: KIFKEQ_clean_linker_1, # of connection points: 2
#     Edge 42, Type (0, 0), BuildingBlock: KIFKEQ_clean_linker_1, # of connection points: 2
#     Edge 43, Type (0, 0), BuildingBlock: KIFKEQ_clean_linker_1, # of connection points: 2
#     Edge 44, Type (0, 0), BuildingBlock: KIFKEQ_clean_linker_1, # of connection points: 2
#     Edge 45, Type (0, 0), BuildingBlock: KIFKEQ_clean_linker_1, # of connection points: 2
#     Edge 46, Type (0, 0), BuildingBlock: KIFKEQ_clean_linker_1, # of connection points: 2
#     Edge 47, Type (0, 0), BuildingBlock: KIFKEQ_clean_linker_1, # of connection points: 2
#     Edge 48, Type (0, 0), BuildingBlock: KIFKEQ_clean_linker_1, # of connection points: 2
#     Edge 49, Type (0, 0), BuildingBlock: KIFKEQ_clean_linker_1, # of connection points: 2
#     Edge 50, Type (0, 0), BuildingBlock: KIFKEQ_clean_linker_1, # of connection points: 2
#     Edge 51, Type (0, 0), BuildingBlock: KIFKEQ_clean_linker_1, # of connection points: 2
#     Edge 52, Type (0, 0), BuildingBlock: KIFKEQ_clean_linker_1, # of connection points: 2
#     Edge 53, Type (0, 0), BuildingBlock: KIFKEQ_clean_linker_1, # of connection points: 2
#     Edge 54, Type (0, 0), BuildingBlock: KIFKEQ_clean_linker_1, # of connection points: 2
#     Edge 55, Type (0, 0), BuildingBlock: KIFKEQ_clean_linker_1, # of connection points: 2
#     Edge 56, Type (0, 0), BuildingBlock: KIFKEQ_clean_linker_1, # of connection points: 2
#     Edge 57, Type (0, 0), BuildingBlock: KIFKEQ_clean_linker_1, # of connection points: 2
#     Edge 58, Type (0, 0), BuildingBlock: KIFKEQ_clean_linker_1, # of connection points: 2
#     Edge 59, Type (0, 0), BuildingBlock: KIFKEQ_clean_linker_1, # of connection points: 2
#     Edge 60, Type (0, 0), BuildingBlock: KIFKEQ_clean_linker_1, # of connection points: 2
#     Edge 61, Type (0, 0), BuildingBlock: KIFKEQ_clean_linker_1, # of connection points: 2
#     Edge 62, Type (0, 0), BuildingBlock: KIFKEQ_clean_linker_1, # of connection points: 2
#     Edge 63, Type (0, 0), BuildingBlock: KIFKEQ_clean_linker_1, # of connection points: 2
#     Edge 64, Type (0, 0), BuildingBlock: KIFKEQ_clean_linker_1, # of connection points: 2
#     Edge 65, Type (0, 0), BuildingBlock: KIFKEQ_clean_linker_1, # of connection points: 2
#     Edge 66, Type (0, 0), BuildingBlock: KIFKEQ_clean_linker_1, # of connection points: 2
#     Edge 67, Type (0, 0), BuildingBlock: KIFKEQ_clean_linker_1, # of connection points: 2
#     Edge 68, Type (0, 0), BuildingBlock: KIFKEQ_clean_linker_1, # of connection points: 2
#     Edge 69, Type (0, 0), BuildingBlock: KIFKEQ_clean_linker_1, # of connection points: 2
#     Edge 70, Type (0, 0), BuildingBlock: KIFKEQ_clean_linker_1, # of connection points: 2
#     Edge 71, Type (0, 0), BuildingBlock: KIFKEQ_clean_linker_1, # of connection points: 2
#     Edge 72, Type (0, 0), BuildingBlock: KIFKEQ_clean_linker_1, # of connection points: 2
#     Edge 73, Type (0, 0), BuildingBlock: KIFKEQ_clean_linker_1, # of connection points: 2
#     Edge 74, Type (0, 0), BuildingBlock: KIFKEQ_clean_linker_1, # of connection points: 2
#     Edge 75, Type (0, 0), BuildingBlock: KIFKEQ_clean_linker_1, # of connection points: 2
#     Edge 76, Type (0, 0), BuildingBlock: KIFKEQ_clean_linker_1, # of connection points: 2
#     Edge 77, Type (0, 0), BuildingBlock: KIFKEQ_clean_linker_1, # of connection points: 2
#     Edge 78, Type (0, 0), BuildingBlock: KIFKEQ_clean_linker_1, # of connection points: 2
#     Edge 79, Type (0, 0), BuildingBlock: KIFKEQ_clean_linker_1, # of connection points: 2
#     Edge 80, Type (0, 0), BuildingBlock: KIFKEQ_clean_linker_1, # of connection points: 2
#     Edge 81, Type (0, 0), BuildingBlock: KIFKEQ_clean_linker_1, # of connection points: 2
#     Edge 82, Type (0, 0), BuildingBlock: KIFKEQ_clean_linker_1, # of connection points: 2
#     Edge 83, Type (0, 0), BuildingBlock: KIFKEQ_clean_linker_1, # of connection points: 2
#     Edge 84, Type (0, 0), BuildingBlock: KIFKEQ_clean_linker_1, # of connection points: 2
#     Edge 85, Type (0, 0), BuildingBlock: KIFKEQ_clean_linker_1, # of connection points: 2
#     Edge 86, Type (0, 0), BuildingBlock: KIFKEQ_clean_linker_1, # of connection points: 2
#     Edge 87, Type (0, 0), BuildingBlock: KIFKEQ_clean_linker_1, # of connection points: 2
#     Edge 88, Type (0, 0), BuildingBlock: KIFKEQ_clean_linker_1, # of connection points: 2
#     Edge 89, Type (0, 0), BuildingBlock: KIFKEQ_clean_linker_1, # of connection points: 2
#     Edge 90, Type (0, 0), BuildingBlock: KIFKEQ_clean_linker_1, # of connection points: 2
#     Edge 91, Type (0, 0), BuildingBlock: KIFKEQ_clean_linker_1, # of connection points: 2
#     Edge 92, Type (0, 0), BuildingBlock: KIFKEQ_clean_linker_1, # of connection points: 2
#     Edge 93, Type (0, 0), BuildingBlock: KIFKEQ_clean_linker_1, # of connection points: 2
#     Edge 94, Type (0, 0), BuildingBlock: KIFKEQ_clean_linker_1, # of connection points: 2
#     Edge 95, Type (0, 0), BuildingBlock: KIFKEQ_clean_linker_1, # of connection points: 2
# Relax obj value: 0.157
# Max RMSD: 0.181
# Mean RMSD: 0.181
data_MOF--net-smq--node1-OJICUG_clean_sbu_0--edge1-KIFKEQ_clean_linker_1
_symmetry_space_group_name_H-M    P1
_symmetry_Int_Tables_number       1
_symmetry_cell_setting            triclinic
loop_
_symmetry_equiv_pos_as_xyz
'x, y, z'
_cell_length_a     47.315262
_cell_length_b     47.293595
_cell_length_c     47.305279
_cell_angle_alpha  89.967914
_cell_angle_beta   89.968216
_cell_angle_gamma 90.010864
loop_
_atom_site_label
_atom_site_type_symbol
_atom_site_fract_x
_atom_site_fract_y
_atom_site_fract_z
_atom_type_partial_charge
Sc0 Sc -0.00458 0.14204 0.24682 0.0
Sc1 Sc -0.00453 0.21267 0.27026 0.0
Sc2 Sc -0.00512 0.15639 0.31961 0.0
O3 O -0.00476 0.17046 0.27885 0.0
C4 C 0.95175 0.11422 0.28999 0.0
C5 C 0.95451 0.18948 0.2221 0.0
C6 C 0.9525 0.20868 0.32205 0.0
C7 C 0.03681 0.18947 0.22269 0.0
C8 C 0.03846 0.11417 0.2905 0.0
C9 C 0.03764 0.20827 0.32274 0.0
O10 O 0.96251 0.11725 0.26559 0.0
O11 O 0.96377 0.20928 0.23774 0.0
O12 O 0.96226 0.18551 0.33149 0.0
O13 O 0.02762 0.16425 0.22388 0.0
O14 O 0.02829 0.12624 0.31223 0.0
O15 O 0.02803 0.22084 0.30101 0.0
O16 O 0.02824 0.11747 0.26592 0.0
O17 O 0.02774 0.20917 0.23852 0.0
O18 O 0.02757 0.18514 0.33191 0.0
O19 O 0.9633 0.16415 0.22371 0.0
O20 O 0.96138 0.12656 0.31178 0.0
O21 O 0.96247 0.22104 0.30037 0.0
Sc22 Sc 0.2815 0.50637 0.75314 0.0
Sc23 Sc 0.21685 0.49435 0.78806 0.0
Sc24 Sc 0.28109 0.50016 0.8267 0.0
O25 O 0.25967 0.50033 0.78927 0.0
C26 C 0.32324 0.46582 0.78741 0.0
C27 C 0.23688 0.45924 0.73447 0.0
C28 C 0.23707 0.45011 0.83521 0.0
C29 C 0.22493 0.53955 0.73849 0.0
C30 C 0.31124 0.55067 0.79421 0.0
C31 C 0.2251 0.53526 0.8411 0.0
O32 O 0.31386 0.47675 0.76476 0.0
O33 O 0.21909 0.46385 0.75414 0.0
O34 O 0.26018 0.46265 0.84027 0.0
O35 O 0.25141 0.5357 0.73663 0.0
O36 O 0.30518 0.53771 0.81695 0.0
O37 O 0.21023 0.52568 0.82081 0.0
O38 O 0.30422 0.54171 0.76994 0.0
O39 O 0.20946 0.52657 0.75629 0.0
O40 O 0.25026 0.52717 0.8459 0.0
O41 O 0.26015 0.47247 0.73219 0.0
O42 O 0.31389 0.47249 0.81164 0.0
O43 O 0.21864 0.45964 0.81808 0.0
Sc44 Sc -0.00346 0.86686 0.26006 0.0
Sc45 Sc -0.00282 0.79346 0.27329 0.0
Sc46 Sc -0.00454 0.84219 0.33001 0.0
O47 O -0.00361 0.83404 0.2877 0.0
C48 C 0.0392 0.88825 0.30785 0.0
C49 C 0.03835 0.82415 0.22906 0.0
C50 C 0.03901 0.79078 0.32627 0.0
C51 C 0.95647 0.82288 0.2282 0.0
C52 C 0.95151 0.8872 0.30617 0.0
C53 C 0.95392 0.78934 0.32525 0.0
O54 O 0.02895 0.88889 0.28304 0.0
O55 O 0.02928 0.80224 0.24186 0.0
O56 O 0.0282 0.81211 0.33846 0.0
O57 O 0.96547 0.84772 0.23316 0.0
O58 O 0.9617 0.87257 0.32623 0.0
O59 O 0.96438 0.77987 0.30232 0.0
O60 O 0.96249 0.88777 0.28166 0.0
O61 O 0.96505 0.80122 0.24173 0.0
O62 O 0.963 0.81152 0.33731 0.0
O63 O 0.02934 0.84889 0.23439 0.0
O64 O 0.0288 0.87309 0.32742 0.0
O65 O 0.03013 0.78137 0.30267 0.0
Sc66 Sc 0.70811 0.49944 0.82713 0.0
Sc67 Sc 0.77333 0.49404 0.78997 0.0
Sc68 Sc 0.70926 0.50409 0.75348 0.0
O69 O 0.73038 0.49922 0.79017 0.0
C70 C 0.66736 0.46359 0.78769 0.0
C71 C 0.75276 0.45027 0.83739 0.0
C72 C 0.75499 0.45726 0.73693 0.0
C73 C 0.76315 0.5357 0.84202 0.0
C74 C 0.67805 0.54887 0.79292 0.0
C75 C 0.76552 0.5384 0.73971 0.0
O76 O 0.67611 0.47085 0.81198 0.0
O77 O 0.77134 0.45973 0.82037 0.0
O78 O 0.73149 0.46993 0.73393 0.0
O79 O 0.73798 0.5274 0.84643 0.0
O80 O 0.68572 0.5395 0.76899 0.0
O81 O 0.78087 0.52612 0.75808 0.0
O82 O 0.68373 0.53641 0.81603 0.0
O83 O 0.77865 0.52587 0.82234 0.0
O84 O 0.73929 0.53351 0.737 0.0
O85 O 0.72941 0.4626 0.84189 0.0
O86 O 0.67703 0.47429 0.76505 0.0
O87 O 0.77244 0.46295 0.75659 0.0
Sc88 Sc 0.99369 0.84434 0.66055 0.0
Sc89 Sc 0.99276 0.79518 0.71696 0.0
Sc90 Sc 0.99393 0.86845 0.73072 0.0
O91 O 0.99347 0.83587 0.70282 0.0
C92 C 0.03813 0.88913 0.68394 0.0
C93 C 0.03529 0.79139 0.66449 0.0
C94 C 0.03432 0.82427 0.76168 0.0
C95 C 0.95029 0.79285 0.66438 0.0
C96 C 0.95039 0.89026 0.68394 0.0
C97 C 0.95216 0.82549 0.76171 0.0
O98 O 0.02764 0.87454 0.66401 0.0
O99 O 0.02535 0.78199 0.68767 0.0
O100 O 0.02562 0.84921 0.75676 0.0
O101 O 0.96069 0.81448 0.65234 0.0
O102 O 0.96106 0.89058 0.70857 0.0
O103 O 0.96074 0.80372 0.74839 0.0
O104 O 0.96046 0.87536 0.664 0.0
O105 O 0.95967 0.78315 0.68767 0.0
O106 O 0.96162 0.85018 0.75689 0.0
O107 O 0.0259 0.81351 0.65248 0.0
O108 O 0.0275 0.88964 0.7086 0.0
O109 O 0.02507 0.80269 0.74847 0.0
Sc110 Sc 0.71005 0.49754 0.23814 0.0
Sc111 Sc 0.77531 0.49254 0.20345 0.0
Sc112 Sc 0.71158 0.4991 0.16491 0.0
O113 O 0.73249 0.49634 0.20219 0.0
C114 C 0.67058 0.45934 0.19842 0.0
C115 C 0.75561 0.45231 0.25442 0.0
C116 C 0.75931 0.45318 0.15179 0.0
C117 C 0.76564 0.53229 0.25573 0.0
C118 C 0.67848 0.54397 0.20282 0.0
C119 C 0.76442 0.53866 0.15523 0.0
O120 O 0.67644 0.47174 0.22154 0.0
O121 O 0.77436 0.46271 0.23812 0.0
O122 O 0.73831 0.46836 0.14477 0.0
O123 O 0.74083 0.52278 0.25946 0.0
O124 O 0.68185 0.53064 0.17972 0.0
O125 O 0.78125 0.52378 0.17011 0.0
O126 O 0.68945 0.5359 0.22591 0.0
O127 O 0.78088 0.52569 0.23454 0.0
O128 O 0.73825 0.53332 0.15261 0.0
O129 O 0.72981 0.45988 0.2537 0.0
O130 O 0.68332 0.46486 0.17541 0.0
O131 O 0.77393 0.45774 0.17389 0.0
Sc132 Sc 0.99243 0.14968 0.6615 0.0
Sc133 Sc 0.99274 0.20172 0.71493 0.0
Sc134 Sc -0.00234 0.12971 0.73275 0.0
O135 O 0.99428 0.16044 0.70307 0.0
C136 C 0.95212 0.10413 0.69052 0.0
C137 C 0.94884 0.20042 0.6637 0.0
C138 C 0.95501 0.17335 0.76228 0.0
C139 C 0.03362 0.20339 0.66164 0.0
C140 C 0.03845 0.10659 0.68441 0.0
C141 C 0.03721 0.17617 0.75925 0.0
O142 O 0.96136 0.11699 0.66879 0.0
O143 O 0.96059 0.21257 0.68455 0.0
O144 O 0.96773 0.14978 0.76024 0.0
O145 O 0.02246 0.18184 0.65005 0.0
O146 O 0.02849 0.10628 0.7093 0.0
O147 O 0.02418 0.19642 0.74732 0.0
O148 O 0.02817 0.12162 0.66471 0.0
O149 O 0.02582 0.21283 0.6856 0.0
O150 O 0.03188 0.15034 0.75418 0.0
O151 O 0.95714 0.17696 0.65374 0.0
O152 O 0.96319 0.10669 0.71482 0.0
O153 O 0.95999 0.19413 0.74587 0.0
Sc154 Sc 0.2809 0.49983 0.16388 0.0
Sc155 Sc 0.21547 0.49375 0.20064 0.0
Sc156 Sc 0.27956 0.50112 0.23767 0.0
O157 O 0.25849 0.49825 0.20074 0.0
C158 C 0.32089 0.46161 0.20171 0.0
C159 C 0.23522 0.45201 0.15092 0.0
C160 C 0.23302 0.45473 0.25257 0.0
C161 C 0.22659 0.53741 0.15013 0.0
C162 C 0.31183 0.54706 0.20062 0.0
C163 C 0.22374 0.53597 0.25251 0.0
O164 O 0.31189 0.46947 0.17769 0.0
O165 O 0.21741 0.46012 0.16943 0.0
O166 O 0.25713 0.46617 0.25556 0.0
O167 O 0.25198 0.52963 0.14615 0.0
O168 O 0.30336 0.53709 0.22403 0.0
O169 O 0.20828 0.52531 0.23322 0.0
O170 O 0.30643 0.53542 0.17702 0.0
O171 O 0.21059 0.52637 0.16879 0.0
O172 O 0.24966 0.52979 0.25553 0.0
O173 O 0.25838 0.46477 0.14648 0.0
O174 O 0.31166 0.47192 0.2247 0.0
O175 O 0.21552 0.46199 0.23348 0.0
Sc176 Sc 0.24091 0.98322 0.21774 0.0
Sc177 Sc 0.28243 0.99423 0.27866 0.0
Sc178 Sc 0.31393 0.9897 0.2105 0.0
O179 O 0.27909 0.98906 0.23581 0.0
C180 C 0.27802 0.93989 0.18266 0.0
C181 C 0.23235 0.94923 0.27531 0.0
C182 C 0.33369 0.95264 0.26336 0.0
C183 C 0.22796 0.03081 0.26388 0.0
C184 C 0.27063 0.02475 0.17338 0.0
C185 C 0.32899 0.03758 0.25524 0.0
O186 O 0.25476 0.94751 0.19361 0.0
O187 O 0.25182 0.96169 0.28902 0.0
O188 O 0.33535 0.96076 0.23779 0.0
O189 O 0.22331 0.01787 0.2408 0.0
O190 O 0.29575 0.01944 0.18117 0.0
O191 O 0.31232 0.02885 0.27449 0.0
O192 O 0.24929 0.01228 0.18384 0.0
O193 O 0.24855 0.02506 0.28027 0.0
O194 O 0.33159 0.02523 0.23165 0.0
O195 O 0.22719 0.95423 0.24949 0.0
O196 O 0.30078 0.95379 0.18571 0.0
O197 O 0.31581 0.96267 0.28091 0.0
Sc198 Sc 0.49416 0.74639 0.65578 0.0
Sc199 Sc 0.49474 0.73935 0.73001 0.0
Sc200 Sc 0.49578 0.67866 0.68664 0.0
O201 O 0.49488 0.72149 0.69091 0.0
C202 C 0.45162 0.69657 0.63909 0.0
C203 C 0.45224 0.77985 0.69604 0.0
C204 C 0.45427 0.68661 0.73934 0.0
C205 C 0.53591 0.78069 0.69614 0.0
C206 C 0.53845 0.69873 0.63838 0.0
C207 C 0.53718 0.68751 0.73862 0.0
O208 O 0.46195 0.72116 0.6357 0.0
O209 O 0.46263 0.76971 0.7187 0.0
O210 O 0.46491 0.67241 0.71919 0.0
O211 O 0.52551 0.77499 0.67205 0.0
O212 O 0.52809 0.67973 0.65433 0.0
O213 O 0.52713 0.71129 0.7461 0.0
O214 O 0.52831 0.72351 0.63672 0.0
O215 O 0.52753 0.76888 0.71883 0.0
O216 O 0.52865 0.6738 0.71721 0.0
O217 O 0.46082 0.77272 0.67163 0.0
O218 O 0.46173 0.67886 0.65656 0.0
O219 O 0.46169 0.71174 0.74533 0.0
Sc220 Sc 0.67461 0.98994 0.21154 0.0
Sc221 Sc 0.70779 0.99469 0.27897 0.0
Sc222 Sc 0.74772 0.98274 0.21726 0.0
O223 O 0.71004 0.98915 0.23608 0.0
C224 C 0.70887 0.93892 0.18435 0.0
C225 C 0.65582 0.95374 0.2656 0.0
C226 C 0.75751 0.94925 0.27475 0.0
C227 C 0.66205 0.03893 0.25571 0.0
C228 C 0.71766 0.02381 0.17286 0.0
C229 C 0.76206 0.03075 0.2626 0.0
O230 O 0.68604 0.95264 0.18772 0.0
O231 O 0.67486 0.96298 0.28228 0.0
O232 O 0.76168 0.95353 0.24863 0.0
O233 O 0.65935 0.02707 0.23188 0.0
O234 O 0.73916 0.01191 0.18359 0.0
O235 O 0.74147 0.02572 0.27926 0.0
O236 O 0.69262 0.01816 0.18066 0.0
O237 O 0.67753 0.02907 0.27538 0.0
O238 O 0.76641 0.01714 0.23983 0.0
O239 O 0.65292 0.96247 0.24033 0.0
O240 O 0.73251 0.94718 0.19391 0.0
O241 O 0.73887 0.96245 0.28893 0.0
Sc242 Sc 0.49545 0.30889 0.69097 0.0
Sc243 Sc 0.49397 0.25415 0.74194 0.0
Sc244 Sc 0.49368 0.23861 0.66859 0.0
O245 O 0.49435 0.26715 0.70065 0.0
C246 C 0.45129 0.2859 0.64617 0.0
C247 C 0.45327 0.30748 0.7437 0.0
C248 C 0.45111 0.21053 0.71238 0.0
C249 C 0.53761 0.30577 0.74306 0.0
C250 C 0.53752 0.28364 0.64508 0.0
C251 C 0.53545 0.20942 0.71279 0.0
O252 O 0.46148 0.30541 0.66145 0.0
O253 O 0.46116 0.28388 0.75389 0.0
O254 O 0.46045 0.21486 0.68762 0.0
O255 O 0.52903 0.3163 0.71996 0.0
O256 O 0.5277 0.25874 0.6465 0.0
O257 O 0.52682 0.22306 0.73436 0.0
O258 O 0.52724 0.30418 0.65891 0.0
O259 O 0.52663 0.28403 0.75457 0.0
O260 O 0.52505 0.21277 0.68829 0.0
O261 O 0.46412 0.31864 0.72188 0.0
O262 O 0.46148 0.26106 0.64552 0.0
O263 O 0.46122 0.22279 0.73416 0.0
Sc264 Sc 0.31332 0.98962 0.77717 0.0
Sc265 Sc 0.28242 0.99459 0.70916 0.0
Sc266 Sc 0.24073 0.98118 0.7686 0.0
O267 O 0.27893 0.98869 0.75163 0.0
C268 C 0.2789 0.94069 0.80669 0.0
C269 C 0.3337 0.95355 0.72373 0.0
C270 C 0.23422 0.94667 0.71338 0.0
C271 C 0.32824 0.03824 0.73369 0.0
C272 C 0.26724 0.0252 0.81158 0.0
C273 C 0.22574 0.02553 0.71915 0.0
O274 O 0.30231 0.95171 0.79978 0.0
O275 O 0.31421 0.96174 0.707 0.0
O276 O 0.23351 0.94681 0.74022 0.0
O277 O 0.32887 0.02721 0.75807 0.0
O278 O 0.24605 0.01543 0.79812 0.0
O279 O 0.25016 0.02685 0.70799 0.0
O280 O 0.29241 0.01645 0.80765 0.0
O281 O 0.3139 0.0279 0.71338 0.0
O282 O 0.21983 0.00914 0.7396 0.0
O283 O 0.33682 0.96331 0.74862 0.0
O284 O 0.25535 0.95055 0.79862 0.0
O285 O 0.24964 0.96369 0.69923 0.0
Sc286 Sc 0.49346 0.67882 0.3059 0.0
Sc287 Sc 0.49646 0.73883 0.26168 0.0
Sc288 Sc 0.49621 0.74685 0.33582 0.0
O289 O 0.49538 0.72154 0.30104 0.0
C290 C 0.45124 0.70011 0.35388 0.0
C291 C 0.45258 0.68793 0.25371 0.0
C292 C 0.45549 0.78131 0.29441 0.0
C293 C 0.53566 0.6851 0.25349 0.0
C294 C 0.53788 0.69644 0.3532 0.0
C295 C 0.53908 0.77925 0.29564 0.0
O296 O 0.46162 0.68076 0.33845 0.0
O297 O 0.46397 0.71087 0.24548 0.0
O298 O 0.46561 0.77579 0.31868 0.0
O299 O 0.52391 0.67132 0.27329 0.0
O300 O 0.52772 0.72112 0.35652 0.0
O301 O 0.52874 0.76903 0.273 0.0
O302 O 0.52773 0.6788 0.33569 0.0
O303 O 0.5295 0.71056 0.24741 0.0
O304 O 0.53023 0.7724 0.32005 0.0
O305 O 0.4601 0.67459 0.27574 0.0
O306 O 0.46136 0.72493 0.35491 0.0
O307 O 0.46382 0.769 0.27196 0.0
Sc308 Sc 0.7461 0.98518 0.77645 0.0
Sc309 Sc 0.70622 -0.00508 0.71427 0.0
Sc310 Sc 0.67269 0.99005 0.78141 0.0
O311 O 0.70835 0.99007 0.75722 0.0
C312 C 0.70871 0.94114 0.81059 0.0
C313 C 0.75662 0.9506 0.71944 0.0
C314 C 0.65476 0.95311 0.72797 0.0
C315 C 0.76036 0.03184 0.72987 0.0
C316 C 0.714 0.02572 0.82008 0.0
C317 C 0.65882 0.038 0.73625 0.0
O318 O 0.73213 0.94929 0.80035 0.0
O319 O 0.73697 0.96217 0.70517 0.0
O320 O 0.65251 0.96085 0.75359 0.0
O321 O 0.76409 0.01992 0.75368 0.0
O322 O 0.68929 0.01983 0.81148 0.0
O323 O 0.6764 0.02966 0.71765 0.0
O324 O 0.73601 0.01406 0.81006 0.0
O325 O 0.74027 0.02545 0.71314 0.0
O326 O 0.65526 0.02533 0.75958 0.0
O327 O 0.76133 0.95642 0.74518 0.0
O328 O 0.68569 0.9544 0.80671 0.0
O329 O 0.67288 0.96353 0.71095 0.0
Sc330 Sc 0.49633 0.23846 0.31977 0.0
Sc331 Sc 0.49443 0.25299 0.24628 0.0
Sc332 Sc 0.49329 0.3084 0.29636 0.0
O333 O 0.49472 0.26655 0.28734 0.0
C334 C 0.45169 0.28306 0.34285 0.0
C335 C 0.45404 0.2083 0.2765 0.0
C336 C 0.45089 0.30448 0.2446 0.0
C337 C 0.53815 0.21016 0.27582 0.0
C338 C 0.53788 0.28694 0.34145 0.0
C339 C 0.53539 0.30606 0.24339 0.0
O340 O 0.46164 0.25817 0.34149 0.0
O341 O 0.46125 0.22258 0.2548 0.0
O342 O 0.45922 0.31508 0.26774 0.0
O343 O 0.53043 0.21551 0.30095 0.0
O344 O 0.52766 0.30594 0.32556 0.0
O345 O 0.52767 0.28212 0.23384 0.0
O346 O 0.52784 0.26205 0.34268 0.0
O347 O 0.5265 0.2212 0.25418 0.0
O348 O 0.52427 0.31777 0.26482 0.0
O349 O 0.46568 0.21134 0.30049 0.0
O350 O 0.46191 0.30364 0.32895 0.0
O351 O 0.4622 0.28294 0.23316 0.0
Sc352 Sc 0.16607 0.18317 -0.00368 0.0
Sc353 Sc 0.2253 0.22805 0.99346 0.0
Sc354 Sc 0.15635 0.25549 0.98754 0.0
O355 O 0.18272 0.22229 0.99237 0.0
C356 C 0.12905 0.20883 0.94733 0.0
C357 C 0.22078 0.17192 0.95794 0.0
C358 C 0.20559 0.27309 0.94654 0.0
C359 C 0.21532 0.17998 0.04049 0.0
C360 C 0.12327 0.21963 0.03289 0.0
C361 C 0.20305 0.27962 0.03014 0.0
O362 O 0.1417 0.18794 0.95845 0.0
O363 O 0.23228 0.1961 0.96111 0.0
O364 O 0.17947 0.27122 0.95218 0.0
O365 O 0.18968 0.17549 0.03398 0.0
O366 O 0.13134 0.2433 0.02327 0.0
O367 O 0.22158 0.26047 0.02584 0.0
O368 O 0.13169 0.19625 0.02285 0.0
O369 O 0.23144 0.19641 0.02642 0.0
O370 O 0.18002 0.28097 0.01641 0.0
O371 O 0.1985 0.16461 0.97101 0.0
O372 O 0.1302 0.23373 0.95737 0.0
O373 O 0.22465 0.26038 0.96074 0.0
Sc374 Sc 0.14444 0.74406 0.99467 0.0
Sc375 Sc 0.21871 0.75226 0.99454 0.0
Sc376 Sc 0.17467 0.8122 0.99413 0.0
O377 O 0.17936 0.76945 0.99441 0.0
C378 C 0.12712 0.79225 0.95068 0.0
C379 C 0.1854 0.71032 0.95319 0.0
C380 C 0.22695 0.80429 0.95254 0.0
C381 C 0.1854 0.71132 0.03689 0.0
C382 C 0.12716 0.79288 0.03799 0.0
C383 C 0.22681 0.80483 0.03581 0.0
O384 O 0.12442 0.76767 0.96122 0.0
O385 O 0.20784 0.72185 0.9625 0.0
O386 O 0.20611 0.81813 0.9622 0.0
O387 O 0.16096 0.71698 0.02729 0.0
O388 O 0.14374 0.81118 0.02743 0.0
O389 O 0.23402 0.78046 0.0271 0.0
O390 O 0.12449 0.76814 0.02784 0.0
O391 O 0.20784 0.72267 0.02734 0.0
O392 O 0.20592 0.81851 0.02607 0.0
O393 O 0.16094 0.71639 0.96251 0.0
O394 O 0.14381 0.81066 0.96084 0.0
O395 O 0.23402 0.77992 0.96141 0.0
Sc396 Sc 0.82104 0.63294 0.49575 0.0
Sc397 Sc 0.76763 0.68507 0.49317 0.0
Sc398 Sc 0.74949 0.61293 0.49729 0.0
O399 O 0.77933 0.64376 0.4954 0.0
C400 C 0.79448 0.58752 0.45377 0.0
C401 C 0.82078 0.68348 0.45121 0.0
C402 C 0.72132 0.65636 0.45367 0.0
C403 C 0.81971 0.68698 0.53616 0.0
C404 C 0.79542 0.59083 0.5416 0.0
C405 C 0.72141 0.6599 0.53603 0.0
O406 O 0.81548 0.60085 0.46389 0.0
O407 O 0.79835 0.69486 0.46074 0.0
O408 O 0.72371 0.63221 0.46523 0.0
O409 O 0.83093 0.66449 0.5267 0.0
O410 O 0.7709 0.59084 0.53069 0.0
O411 O 0.73488 0.68022 0.52459 0.0
O412 O 0.81593 0.6045 0.53097 0.0
O413 O 0.79676 0.69712 0.52637 0.0
O414 O 0.72551 0.63413 0.52959 0.0
O415 O 0.83115 0.66097 0.46155 0.0
O416 O 0.76977 0.58933 0.46418 0.0
O417 O 0.73678 0.67735 0.4604 0.0
Sc418 Sc 0.83258 0.25352 0.98684 0.0
Sc419 Sc 0.76337 0.22976 -0.0034 0.0
Sc420 Sc 0.81987 0.18262 -0.00125 0.0
O421 O 0.80512 0.222 0.99395 0.0
C422 C 0.85687 0.20395 0.94845 0.0
C423 C 0.78404 0.27186 0.94715 0.0
C424 C 0.76293 0.17297 0.96341 0.0
C425 C 0.78763 0.28207 0.02862 0.0
C426 C 0.86433 0.21893 0.03315 0.0
C427 C 0.77288 0.1824 0.04436 0.0
O428 O 0.85944 0.22829 0.95965 0.0
O429 O 0.76524 0.26238 0.96408 0.0
O430 O 0.78437 0.16433 0.97713 0.0
O431 O 0.80893 0.28294 0.01223 0.0
O432 O 0.85709 0.19569 0.02174 0.0
O433 O 0.75667 0.19796 0.02942 0.0
O434 O 0.85551 0.24269 0.02434 0.0
O435 O 0.77019 0.26152 0.02885 0.0
O436 O 0.79875 0.17844 0.03841 0.0
O437 O 0.81016 0.26635 0.94987 0.0
O438 O 0.84106 0.18489 0.95883 0.0
O439 O 0.75419 0.19842 0.96451 0.0
Sc440 Sc 0.17669 0.35431 0.49509 0.0
Sc441 Sc 0.22679 0.29893 0.4959 0.0
Sc442 Sc 0.2491 0.36991 0.49241 0.0
O443 O 0.21755 0.34094 0.49448 0.0
C444 C 0.20399 0.39561 0.44963 0.0
C445 C 0.17463 0.30123 0.45351 0.0
C446 C 0.27377 0.32197 0.45278 0.0
C447 C 0.1741 0.30288 0.53821 0.0
C448 C 0.20677 0.39745 0.53694 0.0
C449 C 0.27426 0.32439 0.53568 0.0
O450 O 0.18293 0.3828 0.4602 0.0
O451 O 0.19722 0.28965 0.46242 0.0
O452 O 0.27084 0.34787 0.45925 0.0
O453 O 0.16546 0.32655 0.52902 0.0
O454 O 0.23112 0.39427 0.5261 0.0
O455 O 0.25755 0.30436 0.52908 0.0
O456 O 0.1848 0.38552 0.52718 0.0
O457 O 0.19535 0.29011 0.52782 0.0
O458 O 0.2737 0.34846 0.52375 0.0
O459 O 0.16458 0.32383 0.46398 0.0
O460 O 0.22863 0.39403 0.46006 0.0
O461 O 0.2599 0.30222 0.46465 0.0
Sc462 Sc 0.81684 0.81112 -0.00244 0.0
Sc463 Sc 0.77112 0.7527 -0.00345 0.0
Sc464 Sc 0.8452 0.74258 -0.00494 0.0
O465 O 0.811 0.76867 -0.00369 0.0
C466 C 0.86151 0.79195 0.95144 0.0
C467 C 0.7625 0.80624 0.95771 0.0
C468 C 0.80296 0.71114 0.95347 0.0
C469 C 0.76741 0.80289 0.04172 0.0
C470 C 0.86583 0.78947 0.03843 0.0
C471 C 0.8037 0.70957 0.03695 0.0
O472 O 0.84425 0.80991 0.96149 0.0
O473 O 0.75661 0.78075 0.96369 0.0
O474 O 0.82778 0.7172 0.96174 0.0
O475 O 0.78975 0.81508 0.03324 0.0
O476 O 0.86588 0.76425 0.0293 0.0
O477 O 0.78158 0.72256 0.02889 0.0
O478 O 0.85097 0.80882 0.02733 0.0
O479 O 0.7568 0.78132 0.02958 0.0
O480 O 0.82804 0.71425 0.02648 0.0
O481 O 0.7826 0.81977 0.96918 0.0
O482 O 0.86552 0.76773 0.96257 0.0
O483 O 0.78087 0.72212 0.96422 0.0
Sc484 Sc 0.74077 0.37017 0.49647 0.0
Sc485 Sc 0.76138 0.29867 0.49203 0.0
Sc486 Sc 0.81283 0.35266 0.49626 0.0
O487 O 0.77162 0.34039 0.49496 0.0
C488 C 0.78536 0.39677 0.45351 0.0
C489 C 0.7146 0.32634 0.45241 0.0
C490 C 0.81456 0.30253 0.45115 0.0
C491 C 0.71511 0.32184 0.53543 0.0
C492 C 0.7851 0.39453 0.54079 0.0
C493 C 0.81278 0.29832 0.53576 0.0
O494 O 0.76073 0.39478 0.46406 0.0
O495 O 0.73001 0.30561 0.4598 0.0
O496 O 0.8247 0.32437 0.46298 0.0
O497 O 0.71755 0.34762 0.52824 0.0
O498 O 0.80629 0.38176 0.53051 0.0
O499 O 0.79147 0.28675 0.52417 0.0
O500 O 0.76062 0.39294 0.53007 0.0
O501 O 0.72936 0.30196 0.52424 0.0
O502 O 0.82263 0.32216 0.52829 0.0
O503 O 0.71637 0.35058 0.46376 0.0
O504 O 0.80661 0.3837 0.4635 0.0
O505 O 0.79172 0.29086 0.4591 0.0
Sc506 Sc 0.24059 0.61327 0.49473 0.0
Sc507 Sc 0.22194 0.68527 0.49822 0.0
Sc508 Sc 0.1689 0.6327 0.49608 0.0
O509 O 0.21052 0.64386 0.49634 0.0
C510 C 0.19483 0.59017 0.45078 0.0
C511 C 0.26833 0.66012 0.45563 0.0
C512 C 0.17003 0.68623 0.45497 0.0
C513 C 0.26837 0.65726 0.53803 0.0
C514 C 0.19592 0.58837 0.53894 0.0
C515 C 0.1686 0.6839 0.53985 0.0
O516 O 0.21936 0.59057 0.46163 0.0
O517 O 0.25477 0.68037 0.467 0.0
O518 O 0.15892 0.66372 0.4646 0.0
O519 O 0.26624 0.63307 0.52651 0.0
O520 O 0.17476 0.60125 0.52856 0.0
O521 O 0.19106 0.69522 0.53034 0.0
O522 O 0.22055 0.59004 0.5283 0.0
O523 O 0.25272 0.67808 0.53122 0.0
O524 O 0.1584 0.66121 0.52979 0.0
O525 O 0.26435 0.63433 0.46213 0.0
O526 O 0.17421 0.60375 0.46129 0.0
O527 O 0.19282 0.69668 0.4648 0.0
H528 H 0.07137 0.15457 0.19258 0.0
H529 H 0.04238 0.24109 0.19766 0.0
H530 H 0.09215 0.16432 0.14651 0.0
H531 H 0.06222 0.25056 0.15115 0.0
H532 H 0.09057 0.17668 0.05288 0.0
H533 H 0.07208 0.17154 0.10058 0.0
H534 H 0.10319 0.25487 0.12165 0.0
H535 H 0.1208 0.2604 0.07356 0.0
C536 C 0.06985 0.17578 0.18404 0.0
C537 C 0.05504 0.19698 0.19858 0.0
C538 C 0.08141 0.18129 0.15751 0.0
C539 C 0.07807 0.20798 0.14483 0.0
C540 C 0.0651 0.22976 0.1603 0.0
C541 C 0.05383 0.22435 0.18702 0.0
C542 C 0.09296 0.19411 0.06755 0.0
C543 C 0.1072 0.21887 0.05954 0.0
C544 C 0.08274 0.19103 0.09499 0.0
C545 C 0.08688 0.2125 0.11512 0.0
C546 C 0.0997 0.23793 0.10666 0.0
C547 C 0.10965 0.24115 0.07905 0.0
H548 H 0.17342 0.52894 0.71444 0.0
H549 H 0.24749 0.58184 0.70679 0.0
H550 H 0.16109 0.53936 0.66521 0.0
H551 H 0.23522 0.59194 0.65781 0.0
H552 H 0.15051 0.5908 0.57532 0.0
H553 H 0.15171 0.58224 0.62638 0.0
H554 H 0.23686 0.55062 0.61896 0.0
H555 H 0.23584 0.55868 0.56823 0.0
C556 C 0.18633 0.54383 0.70274 0.0
C557 C 0.21164 0.55433 0.71437 0.0
C558 C 0.1794 0.5495 0.67448 0.0
C559 C 0.1977 0.56572 0.65766 0.0
C560 C 0.22114 0.57883 0.67026 0.0
C561 C 0.22798 0.5733 0.69837 0.0
C562 C 0.16919 0.5812 0.5844 0.0
C563 C 0.19328 0.57586 0.56763 0.0
C564 C 0.16987 0.57651 0.61366 0.0
C565 C 0.19466 0.56662 0.62654 0.0
C566 C 0.21774 0.55897 0.60953 0.0
C567 C 0.21702 0.56337 0.5804 0.0
H568 H 0.90486 0.75701 0.06656 0.0
H569 H 0.85905 0.83592 0.0719 0.0
H570 H 0.92446 0.76539 0.1135 0.0
H571 H 0.8776 0.84366 0.11898 0.0
H572 H 0.93978 0.86286 0.19002 0.0
H573 H 0.91879 0.85518 0.14404 0.0
H574 H 0.91117 0.76593 0.16228 0.0
H575 H 0.93341 0.77344 0.20814 0.0
C576 C 0.89911 0.77621 0.07764 0.0
C577 C 0.88055 0.79586 0.06532 0.0
C578 C 0.91004 0.78084 0.10472 0.0
C579 C 0.90241 0.80508 0.1202 0.0
C580 C 0.88426 0.82494 0.10761 0.0
C581 C 0.87362 0.82049 0.08049 0.0
C582 C 0.93329 0.84161 0.18452 0.0
C583 C 0.93855 0.81873 0.20282 0.0
C584 C 0.92115 0.8372 0.15803 0.0
C585 C 0.91359 0.80986 0.14921 0.0
C586 C 0.91739 0.78717 0.1681 0.0
C587 C 0.9298 0.79154 0.19458 0.0
H588 H 0.80847 0.45093 0.71625 0.0
H589 H 0.7219 0.42516 0.7029 0.0
H590 H 0.82029 0.43606 0.66812 0.0
H591 H 0.73377 0.41009 0.65515 0.0
H592 H 0.74938 0.43254 0.56496 0.0
H593 H 0.74572 0.44348 0.61503 0.0
H594 H 0.82156 0.39549 0.63149 0.0
H595 H 0.82547 0.38454 0.58109 0.0
C596 C 0.79228 0.44097 0.70349 0.0
C597 C 0.76417 0.43951 0.7131 0.0
C598 C 0.79901 0.43272 0.67589 0.0
C599 C 0.7777 0.42286 0.65776 0.0
C600 C 0.75038 0.41846 0.66851 0.0
C601 C 0.74366 0.42675 0.69591 0.0
C602 C 0.76566 0.42483 0.5791 0.0
C603 C 0.78748 0.40738 0.56912 0.0
C604 C 0.76339 0.43082 0.6078 0.0
C605 C 0.78285 0.41949 0.62714 0.0
C606 C 0.80613 0.40417 0.61699 0.0
C607 C 0.80844 0.39814 0.58812 0.0
H608 H 0.0551 0.77432 0.78297 0.0
H609 H 0.0549 0.86459 0.79757 0.0
H610 H 0.07838 0.76719 0.82837 0.0
H611 H 0.07705 0.85736 0.84314 0.0
H612 H 0.13712 0.8366 0.91498 0.0
H613 H 0.11825 0.84387 0.86782 0.0
H614 H 0.06579 0.76964 0.87739 0.0
H615 H 0.08547 0.76175 0.92432 0.0
C616 C 0.0603 0.79268 0.79564 0.0
C617 C 0.05289 0.82002 0.7866 0.0
C618 C 0.07333 0.78855 0.82186 0.0
C619 C 0.07915 0.81165 0.83969 0.0
C620 C 0.07306 0.83906 0.82997 0.0
C621 C 0.06024 0.8432 0.80374 0.0
C622 C 0.12131 0.82197 0.90722 0.0
C623 C 0.11278 0.7986 0.92354 0.0
C624 C 0.1105 0.82614 0.88008 0.0
C625 C 0.09066 0.80722 0.86863 0.0
C626 C 0.08153 0.78428 0.88526 0.0
C627 C 0.09254 0.77995 0.91234 0.0
H628 H 0.81813 0.52557 0.27889 0.0
H629 H 0.73976 0.57133 0.28829 0.0
H630 H 0.83056 0.53703 0.32802 0.0
H631 H 0.75208 0.58262 0.33698 0.0
H632 H 0.75631 0.55365 0.42688 0.0
H633 H 0.75494 0.54313 0.37659 0.0
H634 H 0.83733 0.58067 0.36581 0.0
H635 H 0.83889 0.59153 0.4164 0.0
C636 C 0.80424 0.53917 0.29099 0.0
C637 C 0.77795 0.54753 0.27991 0.0
C638 C 0.81119 0.54541 0.31915 0.0
C639 C 0.79186 0.55997 0.33635 0.0
C640 C 0.76702 0.57079 0.32427 0.0
C641 C 0.76014 0.56465 0.29634 0.0
C642 C 0.7745 0.55911 0.41406 0.0
C643 C 0.79747 0.57391 0.42568 0.0
C644 C 0.77359 0.55325 0.38521 0.0
C645 C 0.79569 0.56186 0.36733 0.0
C646 C 0.81993 0.5741 0.37919 0.0
C647 C 0.82082 0.58014 0.40819 0.0
H648 H 0.92982 0.22238 0.78071 0.0
H649 H 0.9374 0.13325 0.79983 0.0
H650 H 0.90444 0.22947 0.82508 0.0
H651 H 0.91306 0.14054 0.84426 0.0
H652 H 0.89599 0.23701 0.92138 0.0
H653 H 0.91659 0.22956 0.8748 0.0
H654 H 0.86917 0.15192 0.86629 0.0
H655 H 0.84922 0.15888 0.91313 0.0
C656 C 0.9258 0.20425 0.79414 0.0
C657 C 0.93589 0.17729 0.78677 0.0
C658 C 0.91154 0.20838 0.81972 0.0
C659 C 0.90708 0.18565 0.8384 0.0
C660 C 0.91595 0.1585 0.83033 0.0
C661 C 0.93008 0.15435 0.80482 0.0
C662 C 0.89013 0.21822 0.90968 0.0
C663 C 0.87108 0.19846 0.92111 0.0
C664 C 0.90168 0.21413 0.88282 0.0
C665 C 0.89435 0.19026 0.86671 0.0
C666 C 0.87549 0.17039 0.87824 0.0
C667 C 0.86407 0.17438 0.90515 0.0
H668 H 0.17953 0.45071 0.27382 0.0
H669 H 0.26485 0.42048 0.28582 0.0
H670 H 0.1678 0.43671 0.32223 0.0
H671 H 0.25304 0.40636 0.33391 0.0
H672 H 0.24035 0.43208 0.42392 0.0
H673 H 0.24338 0.44174 0.37354 0.0
H674 H 0.1655 0.39626 0.35973 0.0
H675 H 0.16227 0.38648 0.41044 0.0
C676 C 0.19539 0.43992 0.28632 0.0
C677 C 0.22323 0.43701 0.27625 0.0
C678 C 0.18872 0.43218 0.3141 0.0
C679 C 0.20981 0.4214 0.33196 0.0
C680 C 0.23665 0.41544 0.32075 0.0
C681 C 0.24331 0.42318 0.29314 0.0
C682 C 0.2235 0.42466 0.41031 0.0
C683 C 0.20131 0.40818 0.42115 0.0
C684 C 0.22541 0.42991 0.38143 0.0
C685 C 0.20516 0.41887 0.36275 0.0
C686 C 0.18154 0.40467 0.37372 0.0
C687 C 0.17963 0.39932 0.40277 0.0
H688 H 0.19915 0.06781 0.23133 0.0
H689 H 0.20561 0.03649 0.31682 0.0
H690 H 0.15327 0.08839 0.24225 0.0
H691 H 0.15915 0.05685 0.32773 0.0
H692 H 0.0785 0.11846 0.33231 0.0
H693 H 0.12754 0.10193 0.3297 0.0
H694 H 0.10898 0.05995 0.25085 0.0
H695 H 0.06041 0.07637 0.25324 0.0
C696 C 0.19108 0.06611 0.25272 0.0
C697 C 0.20573 0.05044 0.27318 0.0
C698 C 0.16472 0.07759 0.25889 0.0
C699 C 0.15236 0.07339 0.28556 0.0
C700 C 0.16818 0.06018 0.30694 0.0
C701 C 0.19482 0.04876 0.30078 0.0
C702 C 0.08474 0.10509 0.3148 0.0
C703 C 0.06568 0.09901 0.29276 0.0
C704 C 0.11283 0.09582 0.31327 0.0
C705 C 0.12216 0.08044 0.28966 0.0
C706 C 0.10252 0.07255 0.26886 0.0
C707 C 0.07463 0.08173 0.27037 0.0
H708 H 0.40291 0.70666 0.75677 0.0
H709 H 0.4582 0.63423 0.7611 0.0
H710 H 0.36505 0.67884 0.77919 0.0
H711 H 0.42101 0.60686 0.78395 0.0
H712 H 0.35308 0.56416 0.8317 0.0
H713 H 0.38691 0.60323 0.82728 0.0
H714 H 0.34093 0.63493 0.75511 0.0
H715 H 0.30758 0.59587 0.75918 0.0
C716 C 0.40714 0.68511 0.76329 0.0
C717 C 0.43314 0.67232 0.757 0.0
C718 C 0.38562 0.66928 0.77608 0.0
C719 C 0.39023 0.6408 0.78334 0.0
C720 C 0.41701 0.62886 0.77892 0.0
C721 C 0.43817 0.64439 0.7656 0.0
C722 C 0.34983 0.57995 0.81542 0.0
C723 C 0.32812 0.57681 0.79545 0.0
C724 C 0.36911 0.60224 0.81292 0.0
C725 C 0.36648 0.62196 0.79083 0.0
C726 C 0.34327 0.62018 0.77249 0.0
C727 C 0.32439 0.59766 0.77463 0.0
H728 H 0.92409 0.92229 0.26954 0.0
H729 H 0.91406 0.8805 0.35032 0.0
H730 H 0.8739 0.9333 0.26916 0.0
H731 H 0.86351 0.89213 0.34982 0.0
H732 H 0.78539 0.90343 0.25466 0.0
H733 H 0.83267 0.88888 0.26902 0.0
H734 H 0.82822 0.94433 0.3412 0.0
H735 H 0.78066 0.95921 0.32677 0.0
C736 C 0.91141 0.91604 0.28756 0.0
C737 C 0.92314 0.90013 0.30975 0.0
C738 C 0.88263 0.92225 0.28724 0.0
C739 C 0.86496 0.91301 0.30919 0.0
C740 C 0.87683 0.89927 0.33261 0.0
C741 C 0.90576 0.89279 0.33288 0.0
C742 C 0.79394 0.91162 0.27427 0.0
C743 C 0.77948 0.93265 0.28943 0.0
C744 C 0.82105 0.90344 0.28236 0.0
C745 C 0.83409 0.91598 0.30583 0.0
C746 C 0.81848 0.93447 0.32299 0.0
C747 C 0.7912 0.94274 0.31484 0.0
H748 H 0.64927 0.42702 0.82926 0.0
H749 H 0.6396 0.44624 0.74038 0.0
H750 H 0.62044 0.38441 0.82305 0.0
H751 H 0.61096 0.40418 0.73443 0.0
H752 H 0.58875 0.31603 0.7208 0.0
H753 H 0.62152 0.3529 0.7356 0.0
H754 H 0.57036 0.36872 0.80958 0.0
H755 H 0.53781 0.33098 0.79491 0.0
C756 C 0.64071 0.42243 0.80853 0.0
C757 C 0.64697 0.43994 0.78525 0.0
C758 C 0.62431 0.398 0.80501 0.0
C759 C 0.61407 0.39065 0.77814 0.0
C760 C 0.61927 0.40886 0.75525 0.0
C761 C 0.63551 0.43314 0.75873 0.0
C762 C 0.58518 0.32664 0.74079 0.0
C763 C 0.56096 0.32078 0.75681 0.0
C764 C 0.60368 0.34795 0.74909 0.0
C765 C 0.59802 0.36417 0.77332 0.0
C766 C 0.57516 0.35657 0.79078 0.0
C767 C 0.55667 0.33492 0.78253 0.0
H768 H 0.21014 0.95824 0.66189 0.0
H769 H 0.20488 0.9013 0.73322 0.0
H770 H 0.16196 0.94512 0.64812 0.0
H771 H 0.15696 0.88855 0.71943 0.0
H772 H 0.06623 0.92406 0.72022 0.0
H773 H 0.11658 0.93444 0.72011 0.0
H774 H 0.12563 0.89325 0.63935 0.0
H775 H 0.07495 0.88228 0.63933 0.0
C776 C 0.1993 0.94199 0.67387 0.0
C777 C 0.21113 0.9312 0.699 0.0
C778 C 0.17166 0.9347 0.66605 0.0
C779 C 0.15578 0.91638 0.68314 0.0
C780 C 0.1688 0.90306 0.7062 0.0
C781 C 0.19627 0.91026 0.71397 0.0
C782 C 0.07865 0.91771 0.70206 0.0
C783 C 0.06651 0.90193 0.68 0.0
C784 C 0.10751 0.92357 0.7021 0.0
C785 C 0.12484 0.9141 0.67999 0.0
C786 C 0.11257 0.90057 0.65668 0.0
C787 C 0.08356 0.89446 0.65669 0.0
H788 H 0.52964 0.63379 0.22986 0.0
H789 H 0.58942 0.70186 0.24047 0.0
H790 H 0.56669 0.60399 0.21005 0.0
H791 H 0.62703 0.67164 0.22102 0.0
H792 H 0.67992 0.58707 0.2409 0.0
H793 H 0.64697 0.62642 0.24509 0.0
H794 H 0.60334 0.59808 0.17015 0.0
H795 H 0.63655 0.55863 0.16571 0.0
C796 C 0.55067 0.64252 0.22727 0.0
C797 C 0.55689 0.66993 0.23672 0.0
C798 C 0.57181 0.62557 0.21578 0.0
C799 C 0.59969 0.63553 0.21408 0.0
C800 C 0.60564 0.66355 0.22213 0.0
C801 C 0.58423 0.6808 0.23312 0.0
C802 C 0.66356 0.58944 0.22506 0.0
C803 C 0.6605 0.56949 0.20325 0.0
C804 C 0.64493 0.61218 0.22727 0.0
C805 C 0.62265 0.61524 0.20794 0.0
C806 C 0.62038 0.59613 0.18531 0.0
C807 C 0.63933 0.57357 0.18283 0.0
H808 H 0.79586 0.06391 0.76148 0.0
H809 H 0.77834 0.03908 0.67536 0.0
H810 H 0.84231 0.08074 0.74715 0.0
H811 H 0.8252 0.05586 0.66105 0.0
H812 H 0.90927 0.11279 0.65252 0.0
H813 H 0.85983 0.09866 0.65868 0.0
H814 H 0.88315 0.04948 0.73195 0.0
H815 H 0.93223 0.06356 0.72602 0.0
C816 C 0.80164 0.06279 0.73934 0.0
C817 C 0.78364 0.04988 0.71962 0.0
C818 C 0.82833 0.07213 0.73119 0.0
C819 C 0.83759 0.0687 0.70319 0.0
C820 C 0.8186 0.05847 0.68282 0.0
C821 C 0.79172 0.04911 0.69099 0.0
C822 C 0.90396 0.09823 0.66939 0.0
C823 C 0.92456 0.08955 0.68903 0.0
C824 C 0.87564 0.09036 0.673 0.0
C825 C 0.86766 0.07376 0.69629 0.0
C826 C 0.88867 0.06304 0.71431 0.0
C827 C 0.9168 0.07085 0.71075 0.0
H828 H 0.45098 0.33011 0.19301 0.0
H829 H 0.39922 0.31334 0.26619 0.0
H830 H 0.41797 0.36741 0.17823 0.0
H831 H 0.366 0.34977 0.25125 0.0
H832 H 0.34915 0.44353 0.24836 0.0
H833 H 0.3776 0.4013 0.25344 0.0
H834 H 0.36704 0.38275 0.16471 0.0
H835 H 0.33826 0.42558 0.15936 0.0
C836 C 0.43185 0.33354 0.20512 0.0
C837 C 0.42746 0.31911 0.23068 0.0
C838 C 0.41309 0.35491 0.1968 0.0
C839 C 0.38988 0.36187 0.21402 0.0
C840 C 0.38409 0.34524 0.23795 0.0
C841 C 0.40287 0.32423 0.24635 0.0
C842 C 0.35291 0.43066 0.2298 0.0
C843 C 0.34114 0.43784 0.20351 0.0
C844 C 0.36905 0.40629 0.23279 0.0
C845 C 0.37387 0.38838 0.20961 0.0
C846 C 0.36338 0.39611 0.18294 0.0
C847 C 0.34704 0.42065 0.17991 0.0
H848 H 0.2692 0.15954 0.04584 0.0
H849 H 0.18768 0.16081 0.08691 0.0
H850 H 0.28493 0.12252 0.07842 0.0
H851 H 0.20353 0.1247 0.11988 0.0
H852 H 0.22242 0.03487 0.1437 0.0
H853 H 0.21178 0.07499 0.11363 0.0
H854 H 0.29599 0.10777 0.12691 0.0
H855 H 0.30698 0.06693 0.15672 0.0
C856 C 0.25497 0.15252 0.06237 0.0
C857 C 0.22712 0.16274 0.06366 0.0
C858 C 0.26394 0.13128 0.08098 0.0
C859 C 0.24522 0.12016 0.10126 0.0
C860 C 0.21817 0.13215 0.10391 0.0
C861 C 0.20915 0.15303 0.0852 0.0
C862 C 0.23878 0.05049 0.14013 0.0
C863 C 0.26549 0.04775 0.15278 0.0
C864 C 0.23259 0.07368 0.12307 0.0
C865 C 0.25283 0.09494 0.11838 0.0
C866 C 0.27993 0.09177 0.13015 0.0
C867 C 0.28622 0.06836 0.14718 0.0
H868 H 0.23927 0.7857 0.89933 0.0
H869 H 0.2522 0.85491 0.95725 0.0
H870 H 0.25948 0.81433 0.86085 0.0
H871 H 0.27288 0.88313 0.91933 0.0
H872 H 0.31733 0.92552 0.8472 0.0
H873 H 0.31282 0.88673 0.88138 0.0
H874 H 0.23552 0.86009 0.84092 0.0
H875 H 0.2397 0.89885 0.80724 0.0
C876 C 0.24733 0.80664 0.90393 0.0
C877 C 0.24418 0.81834 0.93096 0.0
C878 C 0.25879 0.82297 0.88204 0.0
C879 C 0.26773 0.85087 0.88722 0.0
C880 C 0.26649 0.86159 0.91484 0.0
C881 C 0.25452 0.84557 0.93646 0.0
C882 C 0.2997 0.91102 0.84535 0.0
C883 C 0.2786 0.91542 0.82495 0.0
C884 C 0.29717 0.88886 0.86481 0.0
C885 C 0.27387 0.87046 0.86367 0.0
C886 C 0.25385 0.87377 0.84205 0.0
C887 C 0.25607 0.89616 0.82302 0.0
H888 H 0.56559 0.72707 0.39383 0.0
H889 H 0.57051 0.64909 0.34637 0.0
H890 H 0.61116 0.71672 0.41533 0.0
H891 H 0.61637 0.63919 0.36735 0.0
H892 H 0.68239 0.61748 0.43581 0.0
H893 H 0.63821 0.62651 0.41137 0.0
H894 H 0.66076 0.71464 0.40291 0.0
H895 H 0.70478 0.70583 0.42814 0.0
C896 C 0.57629 0.70766 0.38804 0.0
C897 C 0.56427 0.6889 0.36838 0.0
C898 C 0.60261 0.7019 0.40014 0.0
C899 C 0.6176 0.67729 0.39282 0.0
C900 C 0.60532 0.65824 0.37362 0.0
C901 C 0.57897 0.66394 0.36159 0.0
C902 C 0.6782 0.63874 0.42843 0.0
C903 C 0.69711 0.66098 0.43427 0.0
C904 C 0.65281 0.6439 0.41431 0.0
C905 C 0.64572 0.67139 0.40555 0.0
C906 C 0.66529 0.69334 0.40998 0.0
C907 C 0.69069 0.6882 0.42417 0.0
H908 H 0.73109 0.18232 0.91549 0.0
H909 H 0.76302 0.11614 0.96983 0.0
H910 H 0.71527 0.14631 0.88152 0.0
H911 H 0.74727 0.08069 0.9363 0.0
H912 H 0.76076 0.03523 0.85213 0.0
H913 H 0.76772 0.07133 0.88791 0.0
H914 H 0.68278 0.10182 0.87445 0.0
H915 H 0.67561 0.0654 0.83824 0.0
C916 C 0.73416 0.16017 0.92045 0.0
C917 C 0.7488 0.15206 0.945 0.0
C918 C 0.72511 0.13962 0.90108 0.0
C919 C 0.73059 0.11081 0.90612 0.0
C920 C 0.74334 0.10278 0.93163 0.0
C921 C 0.75235 0.12312 0.95081 0.0
C922 C 0.74347 0.04951 0.85675 0.0
C923 C 0.7176 0.04734 0.84239 0.0
C924 C 0.74743 0.07011 0.87737 0.0
C925 C 0.7257 0.08921 0.88405 0.0
C926 C 0.69985 0.08734 0.86962 0.0
C927 C 0.69574 0.06641 0.84908 0.0
H928 H 0.29734 0.35482 0.41149 0.0
H929 H 0.3027 0.27228 0.45025 0.0
H930 H 0.33945 0.34453 0.38367 0.0
H931 H 0.34552 0.26249 0.42374 0.0
H932 H 0.41152 0.24429 0.35704 0.0
H933 H 0.36654 0.25275 0.38038 0.0
H934 H 0.38835 0.34107 0.39002 0.0
H935 H 0.43268 0.33276 0.36526 0.0
C936 C 0.30745 0.33441 0.41392 0.0
C937 C 0.29674 0.31438 0.43305 0.0
C938 C 0.33178 0.3286 0.39823 0.0
C939 C 0.34626 0.30283 0.40173 0.0
C940 C 0.33486 0.28243 0.42016 0.0
C941 C 0.31025 0.28805 0.43544 0.0
C942 C 0.40678 0.26547 0.36436 0.0
C943 C 0.42568 0.28785 0.35943 0.0
C944 C 0.38095 0.27035 0.37779 0.0
C945 C 0.37362 0.29764 0.38705 0.0
C946 C 0.39289 0.3199 0.3826 0.0
C947 C 0.41849 0.31511 0.36871 0.0
H948 H 0.79385 0.82578 0.08647 0.0
H949 H 0.71068 0.80736 0.05372 0.0
H950 H 0.77317 0.85242 0.12485 0.0
H951 H 0.68951 0.83431 0.09289 0.0
H952 H 0.68033 0.92667 0.13557 0.0
H953 H 0.68913 0.88618 0.10447 0.0
H954 H 0.74483 0.85025 0.16732 0.0
H955 H 0.737 0.89114 0.19758 0.0
C956 C 0.77101 0.82703 0.08786 0.0
C957 C 0.75384 0.81479 0.06705 0.0
C958 C 0.75909 0.84208 0.11005 0.0
C959 C 0.72965 0.84542 0.11198 0.0
C960 C 0.71227 0.8321 0.09185 0.0
C961 C 0.72431 0.8166 0.06962 0.0
C962 C 0.69386 0.9097 0.1429 0.0
C963 C 0.70859 0.91219 0.16851 0.0
C964 C 0.69876 0.88646 0.12523 0.0
C965 C 0.71815 0.86535 0.13324 0.0
C966 C 0.73032 0.86652 0.1603 0.0
C967 C 0.72587 0.88989 0.1776 0.0
H968 H 0.57805 0.24502 0.63221 0.0
H969 H 0.55613 0.33309 0.62185 0.0
H970 H 0.62314 0.25342 0.60912 0.0
H971 H 0.60063 0.34131 0.59728 0.0
H972 H 0.69165 0.35515 0.57625 0.0
H973 H 0.64959 0.34507 0.60424 0.0
H974 H 0.64379 0.26248 0.56535 0.0
H975 H 0.68655 0.27207 0.53869 0.0
C976 C 0.58267 0.26609 0.62445 0.0
C977 C 0.56355 0.2884 0.62867 0.0
C978 C 0.60854 0.27091 0.61119 0.0
C979 C 0.61566 0.29807 0.60138 0.0
C980 C 0.59619 0.32026 0.60514 0.0
C981 C 0.57053 0.31553 0.6189 0.0
C982 C 0.6816 0.33467 0.57414 0.0
C983 C 0.69231 0.31441 0.5553 0.0
C984 C 0.65733 0.32899 0.58992 0.0
C985 C 0.64297 0.30312 0.58675 0.0
C986 C 0.6544 0.28249 0.56865 0.0
C987 C 0.67895 0.28799 0.55329 0.0
H988 H 0.30661 0.6183 0.55709 0.0
H989 H 0.28527 0.70704 0.56268 0.0
H990 H 0.35061 0.62726 0.58182 0.0
H991 H 0.32911 0.71581 0.58827 0.0
H992 H 0.42446 0.72706 0.59797 0.0
H993 H 0.37883 0.71708 0.57645 0.0
H994 H 0.37223 0.64038 0.62567 0.0
H995 H 0.41817 0.64989 0.64667 0.0
C996 C 0.31099 0.63966 0.56407 0.0
C997 C 0.29243 0.66201 0.55757 0.0
C998 C 0.33627 0.64477 0.57837 0.0
C999 C 0.34362 0.67232 0.58667 0.0
C1000 C 0.32438 0.69443 0.58157 0.0
C1001 C 0.29907 0.68934 0.56718 0.0
C1002 C 0.41343 0.70791 0.60404 0.0
C1003 C 0.42511 0.68925 0.62402 0.0
C1004 C 0.38708 0.70237 0.59193 0.0
C1005 C 0.37169 0.67809 0.59957 0.0
C1006 C 0.38359 0.65917 0.61915 0.0
C1007 C 0.40999 0.66464 0.63118 0.0
H1008 H 0.90182 0.76104 0.92342 0.0
H1009 H 0.85167 0.83719 0.91677 0.0
H1010 H 0.92076 0.76959 0.87629 0.0
H1011 H 0.86991 0.84517 0.86945 0.0
H1012 H 0.93365 0.86578 0.79885 0.0
H1013 H 0.91169 0.85821 0.84456 0.0
H1014 H 0.90643 0.76863 0.82739 0.0
H1015 H 0.9293 0.77603 0.78184 0.0
C1016 C 0.89491 0.77966 0.912 0.0
C1017 C 0.87527 0.79845 0.92401 0.0
C1018 C 0.90551 0.78437 0.88481 0.0
C1019 C 0.89661 0.8079 0.86891 0.0
C1020 C 0.87741 0.82697 0.88115 0.0
C1021 C 0.86695 0.82237 0.90837 0.0
C1022 C 0.92744 0.84449 0.80452 0.0
C1023 C 0.93358 0.82148 0.78668 0.0
C1024 C 0.91477 0.84015 0.83082 0.0
C1025 C 0.90771 0.81274 0.83989 0.0
C1026 C 0.91226 0.78994 0.82136 0.0
C1027 C 0.92507 0.79425 0.79507 0.0
H1028 H 0.74836 0.43317 0.42849 0.0
H1029 H 0.82696 0.38882 0.41395 0.0
H1030 H 0.74465 0.4429 0.37815 0.0
H1031 H 0.82301 0.39857 0.36338 0.0
H1032 H 0.72312 0.42044 0.28989 0.0
H1033 H 0.73467 0.4084 0.33855 0.0
H1034 H 0.82024 0.43735 0.32571 0.0
H1035 H 0.80888 0.44931 0.27683 0.0
C1036 C 0.7652 0.42608 0.41468 0.0
C1037 C 0.78773 0.40987 0.42522 0.0
C1038 C 0.76288 0.43134 0.3858 0.0
C1039 C 0.78305 0.4206 0.36685 0.0
C1040 C 0.80701 0.40677 0.37755 0.0
C1041 C 0.80935 0.40143 0.40655 0.0
C1042 C 0.74463 0.42348 0.29712 0.0
C1043 C 0.76491 0.43629 0.2796 0.0
C1044 C 0.75114 0.41691 0.32508 0.0
C1045 C 0.77806 0.42291 0.33607 0.0
C1046 C 0.79924 0.43283 0.31781 0.0
C1047 C 0.79273 0.43944 0.28973 0.0
H1048 H 0.0759 0.14161 0.78506 0.0
H1049 H 0.04013 0.22566 0.78837 0.0
H1050 H 0.09999 0.15022 0.82977 0.0
H1051 H 0.06279 0.23369 0.83343 0.0
H1052 H 0.10693 0.16015 0.92537 0.0
H1053 H 0.08782 0.15319 0.87802 0.0
H1054 H 0.10408 0.24115 0.85873 0.0
H1055 H 0.12158 0.24831 0.90636 0.0
C1056 C 0.07345 0.16201 0.79516 0.0
C1057 C 0.05601 0.18288 0.78322 0.0
C1058 C 0.08695 0.16684 0.82096 0.0
C1059 C 0.08295 0.19246 0.83553 0.0
C1060 C 0.06666 0.2138 0.82279 0.0
C1061 C 0.05358 0.20917 0.79684 0.0
C1062 C 0.10602 0.17801 0.91105 0.0
C1063 C 0.11532 0.20483 0.91967 0.0
C1064 C 0.09546 0.17398 0.88378 0.0
C1065 C 0.09454 0.19658 0.86441 0.0
C1066 C 0.10395 0.22338 0.87316 0.0
C1067 C 0.11395 0.22751 0.90054 0.0
H1068 H 0.24753 0.57779 0.28354 0.0
H1069 H 0.17166 0.52754 0.27629 0.0
H1070 H 0.23494 0.58978 0.33202 0.0
H1071 H 0.15898 0.53984 0.32511 0.0
H1072 H 0.15027 0.59546 0.41364 0.0
H1073 H 0.15134 0.58559 0.36276 0.0
H1074 H 0.23406 0.54843 0.37179 0.0
H1075 H 0.23312 0.55775 0.4223 0.0
C1076 C 0.22757 0.57026 0.29192 0.0
C1077 C 0.21071 0.55155 0.27621 0.0
C1078 C 0.22053 0.57689 0.31974 0.0
C1079 C 0.1964 0.5651 0.33237 0.0
C1080 C 0.17777 0.54903 0.31578 0.0
C1081 C 0.1849 0.54227 0.28778 0.0
C1082 C 0.16834 0.58441 0.40495 0.0
C1083 C 0.19182 0.57778 0.42209 0.0
C1084 C 0.16894 0.57895 0.3758 0.0
C1085 C 0.19308 0.56698 0.36342 0.0
C1086 C 0.21546 0.55828 0.38084 0.0
C1087 C 0.2148 0.56347 0.40983 0.0
H1088 H 0.89598 0.17513 0.05327 0.0
H1089 H 0.86795 0.25961 0.07396 0.0
H1090 H 0.9155 0.17003 0.10053 0.0
H1091 H 0.88664 0.25414 0.12162 0.0
H1092 H 0.94935 0.24067 0.19595 0.0
H1093 H 0.92843 0.24964 0.1498 0.0
H1094 H 0.89745 0.16368 0.14732 0.0
H1095 H 0.91925 0.15445 0.19298 0.0
C1096 C 0.89422 0.19271 0.06784 0.0
C1097 C 0.88036 0.21772 0.05989 0.0
C1098 C 0.90507 0.18966 0.09506 0.0
C1099 C 0.90203 0.21143 0.11508 0.0
C1100 C 0.88936 0.23698 0.10672 0.0
C1101 C 0.87874 0.24014 0.07935 0.0
C1102 C 0.93749 0.22389 0.18585 0.0
C1103 C 0.93618 0.19676 0.19794 0.0
C1104 C 0.92558 0.22901 0.15933 0.0
C1105 C 0.91188 0.20718 0.14456 0.0
C1106 C 0.90868 0.1807 0.15772 0.0
C1107 C 0.92085 0.17549 0.18404 0.0
H1108 H 0.27079 0.42872 0.6997 0.0
H1109 H 0.18388 0.45353 0.71259 0.0
H1110 H 0.25967 0.41467 0.65147 0.0
H1111 H 0.17283 0.43996 0.66398 0.0
H1112 H 0.1659 0.3907 0.57737 0.0
H1113 H 0.17043 0.40194 0.62752 0.0
H1114 H 0.24907 0.44513 0.61054 0.0
H1115 H 0.24489 0.43356 0.56064 0.0
C1116 C 0.24913 0.43039 0.69244 0.0
C1117 C 0.22826 0.44237 0.70978 0.0
C1118 C 0.24284 0.42277 0.66472 0.0
C1119 C 0.21561 0.42717 0.65371 0.0
C1120 C 0.19405 0.43656 0.67186 0.0
C1121 C 0.20033 0.44405 0.69977 0.0
C1122 C 0.18376 0.4033 0.5842 0.0
C1123 C 0.20525 0.41094 0.56507 0.0
C1124 C 0.18642 0.40953 0.61298 0.0
C1125 C 0.21055 0.42357 0.62302 0.0
C1126 C 0.23071 0.43339 0.60351 0.0
C1127 C 0.22814 0.42709 0.57487 0.0
H1128 H 0.08654 0.7621 0.0657 0.0
H1129 H 0.13682 0.83812 0.07269 0.0
H1130 H 0.06798 0.77011 0.11305 0.0
H1131 H 0.11904 0.84554 0.12027 0.0
H1132 H 0.05727 0.86501 0.19271 0.0
H1133 H 0.07838 0.85821 0.14652 0.0
H1134 H 0.08243 0.76816 0.16156 0.0
H1135 H 0.06026 0.77482 0.20757 0.0
C1136 C 0.09352 0.78061 0.07724 0.0
C1137 C 0.11313 0.79949 0.06526 0.0
C1138 C 0.08316 0.78501 0.10457 0.0
C1139 C 0.09229 0.80827 0.1207 0.0
C1140 C 0.11134 0.82752 0.10844 0.0
C1141 C 0.12153 0.82326 0.08105 0.0
C1142 C 0.06304 0.84375 0.18647 0.0
C1143 C 0.05672 0.82043 0.20387 0.0
C1144 C 0.07523 0.83986 0.15986 0.0
C1145 C 0.08168 0.81258 0.15003 0.0
C1146 C 0.07703 0.78941 0.16814 0.0
C1147 C 0.06465 0.79328 0.19472 0.0
H1148 H 0.74259 0.58093 0.70879 0.0
H1149 H 0.81775 0.52964 0.71641 0.0
H1150 H 0.75566 0.59283 0.6604 0.0
H1151 H 0.83088 0.54187 0.66775 0.0
H1152 H 0.75725 0.55867 0.57055 0.0
H1153 H 0.75629 0.55022 0.62121 0.0
H1154 H 0.83884 0.5879 0.62968 0.0
H1155 H 0.83993 0.59693 0.57863 0.0
C1156 C 0.7625 0.57316 0.70053 0.0
C1157 C 0.77895 0.55409 0.71626 0.0
C1158 C 0.76983 0.57977 0.67278 0.0
C1159 C 0.79384 0.56763 0.6603 0.0
C1160 C 0.81217 0.55132 0.67697 0.0
C1161 C 0.80476 0.54458 0.70489 0.0
C1162 C 0.77554 0.56468 0.58294 0.0
C1163 C 0.79847 0.5789 0.57046 0.0
C1164 C 0.77485 0.56 0.612 0.0
C1165 C 0.79718 0.56911 0.62927 0.0
C1166 C 0.82128 0.58098 0.61673 0.0
C1167 C 0.8219 0.58594 0.5875 0.0
H1168 H 0.77738 0.95846 0.66602 0.0
H1169 H 0.78739 0.90742 0.74109 0.0
H1170 H 0.82487 0.94453 0.65036 0.0
H1171 H 0.83457 0.89381 0.7255 0.0
H1172 H 0.91169 0.88128 0.64146 0.0
H1173 H 0.86114 0.89272 0.64326 0.0
H1174 H 0.87447 0.93919 0.72048 0.0
H1175 H 0.9247 0.9283 0.71878 0.0
C1176 C 0.78909 0.9432 0.67845 0.0
C1177 C 0.77883 0.93419 0.70491 0.0
C1178 C 0.81632 0.93548 0.66959 0.0
C1179 C 0.83335 0.91865 0.68709 0.0
C1180 C 0.82183 0.90713 0.71188 0.0
C1181 C 0.79479 0.91474 0.72067 0.0
C1182 C 0.90404 0.89477 0.6583 0.0
C1183 C 0.92223 0.90353 0.68024 0.0
C1184 C 0.8751 0.90113 0.65934 0.0
C1185 C 0.86408 0.91624 0.68232 0.0
C1186 C 0.88257 0.92709 0.7028 0.0
C1187 C 0.91134 0.92094 0.70172 0.0
H1188 H 0.54083 0.32554 0.18903 0.0
H1189 H 0.58276 0.32181 0.26989 0.0
H1190 H 0.57466 0.36197 0.17329 0.0
H1191 H 0.61651 0.35741 0.25426 0.0
H1192 H 0.63203 0.44984 0.23982 0.0
H1193 H 0.60171 0.40902 0.24584 0.0
H1194 H 0.63002 0.37542 0.16589 0.0
H1195 H 0.66091 0.41681 0.15961 0.0
C1196 C 0.55795 0.33171 0.20292 0.0
C1197 C 0.55933 0.32113 0.23063 0.0
C1198 C 0.57716 0.35254 0.19401 0.0
C1199 C 0.59774 0.36282 0.21282 0.0
C1200 C 0.6005 0.3502 0.23955 0.0
C1201 C 0.58137 0.32972 0.24842 0.0
C1202 C 0.63179 0.43397 0.22332 0.0
C1203 C 0.64928 0.4364 0.19944 0.0
C1204 C 0.61445 0.41051 0.22685 0.0
C1205 C 0.61408 0.3888 0.20665 0.0
C1206 C 0.63014 0.39184 0.18185 0.0
C1207 C 0.64772 0.41551 0.17828 0.0
H1208 H 0.21378 0.08147 0.7078 0.0
H1209 H 0.18296 -0.00371 0.69733 0.0
H1210 H 0.16806 0.0998 0.6909 0.0
H1211 H 0.13816 0.01419 0.67972 0.0
H1212 H 0.05493 0.05749 0.70871 0.0
H1213 H 0.10228 0.03769 0.70938 0.0
H1214 H 0.1306 0.10247 0.65149 0.0
H1215 H 0.08269 0.12241 0.65077 0.0
C1216 C 0.19756 0.0668 0.70104 0.0
C1217 C 0.20148 0.0376 0.70412 0.0
C1218 C 0.17153 0.07717 0.69127 0.0
C1219 C 0.14946 0.05835 0.6844 0.0
C1220 C 0.15457 0.02917 0.6853 0.0
C1221 C 0.1802 0.01894 0.69528 0.0
C1222 C 0.07106 0.06706 0.69555 0.0
C1223 C 0.06519 0.09139 0.67967 0.0
C1224 C 0.09819 0.05572 0.69585 0.0
C1225 C 0.12016 0.06862 0.68053 0.0
C1226 C 0.11406 0.09224 0.66358 0.0
C1227 C 0.08664 0.10339 0.66293 0.0
H1228 H 0.31194 0.58718 0.24163 0.0
H1229 H 0.35021 0.56606 0.16141 0.0
H1230 H 0.34379 0.62715 0.24645 0.0
H1231 H 0.38236 0.60642 0.16632 0.0
H1232 H 0.45941 0.64158 0.22176 0.0
H1233 H 0.42216 0.61234 0.20131 0.0
H1234 H 0.35983 0.67392 0.22716 0.0
H1235 H 0.3975 0.70326 0.24759 0.0
C1236 C 0.32694 0.59132 0.22481 0.0
C1237 C 0.32893 0.57319 0.20137 0.0
C1238 C 0.34495 0.61448 0.22741 0.0
C1239 C 0.36557 0.6199 0.20677 0.0
C1240 C 0.36667 0.60264 0.18258 0.0
C1241 C 0.34831 0.57959 0.17978 0.0
C1242 C 0.43781 0.64923 0.22214 0.0
C1243 C 0.43107 0.67449 0.23606 0.0
C1244 C 0.41652 0.63262 0.21035 0.0
C1245 C 0.38809 0.6408 0.21277 0.0
C1246 C 0.38159 0.6671 0.22512 0.0
C1247 C 0.40302 0.68391 0.23665 0.0
H1248 H 0.79214 0.06566 0.22884 0.0
H1249 H 0.78375 0.03835 0.31554 0.0
H1250 H 0.83806 0.08619 0.2396 0.0
H1251 H 0.83025 0.05858 0.3263 0.0
H1252 H 0.91083 0.11923 0.3308 0.0
H1253 H 0.86191 0.10263 0.32751 0.0
H1254 H 0.88218 0.05913 0.24987 0.0
H1255 H 0.93065 0.07576 0.25289 0.0
C1256 C 0.79983 0.06479 0.2504 0.0
C1257 C 0.7846 0.05028 0.27131 0.0
C1258 C 0.82622 0.07622 0.2565 0.0
C1259 C 0.83803 0.07313 0.28355 0.0
C1260 C 0.82167 0.06105 0.30522 0.0
C1261 C 0.79501 0.0497 0.29913 0.0
C1262 C 0.90498 0.10553 0.31342 0.0
C1263 C 0.92451 0.09908 0.29189 0.0
C1264 C 0.87695 0.09621 0.31148 0.0
C1265 C 0.86813 0.08036 0.288 0.0
C1266 C 0.88822 0.07211 0.26774 0.0
C1267 C 0.91605 0.0814 0.26962 0.0
H1268 H 0.45205 0.33231 0.79571 0.0
H1269 H 0.40355 0.31972 0.71961 0.0
H1270 H 0.41978 0.37049 0.80992 0.0
H1271 H 0.37105 0.35704 0.73388 0.0
H1272 H 0.34033 0.42843 0.82857 0.0
H1273 H 0.36951 0.38613 0.82216 0.0
H1274 H 0.38178 0.40823 0.73442 0.0
H1275 H 0.35273 0.45001 0.74056 0.0
C1276 C 0.43376 0.33692 0.78274 0.0
C1277 C 0.43001 0.32322 0.75671 0.0
C1278 C 0.41544 0.35881 0.79071 0.0
C1279 C 0.39335 0.36713 0.77264 0.0
C1280 C 0.3883 0.35152 0.74788 0.0
C1281 C 0.40661 0.32995 0.73989 0.0
C1282 C 0.3496 0.42444 0.80801 0.0
C1283 C 0.34396 0.44248 0.78499 0.0
C1284 C 0.3662 0.40018 0.80438 0.0
C1285 C 0.37731 0.39356 0.77766 0.0
C1286 C 0.3728 0.41235 0.75509 0.0
C1287 C 0.35632 0.43646 0.75868 0.0
H1288 H 0.21061 0.95943 0.32781 0.0
H1289 H 0.20361 0.90368 0.25589 0.0
H1290 H 0.16313 0.94524 0.34329 0.0
H1291 H 0.15644 0.88973 0.27135 0.0
H1292 H 0.07671 0.87914 0.35135 0.0
H1293 H 0.12725 0.8907 0.35107 0.0
H1294 H 0.11614 0.93741 0.2736 0.0
H1295 H 0.06589 0.92636 0.27374 0.0
C1296 C 0.19961 0.94307 0.31618 0.0
C1297 C 0.21065 0.93278 0.29052 0.0
C1298 C 0.17239 0.93519 0.32491 0.0
C1299 C 0.15621 0.91686 0.30815 0.0
C1300 C 0.16858 0.90411 0.28442 0.0
C1301 C 0.1956 0.91193 0.27571 0.0
C1302 C 0.08481 0.8927 0.33476 0.0
C1303 C 0.06726 0.9015 0.31231 0.0
C1304 C 0.11375 0.89914 0.33461 0.0
C1305 C 0.12538 0.91442 0.31205 0.0
C1306 C 0.10752 0.92525 0.29102 0.0
C1307 C 0.07875 0.91899 0.29119 0.0
H1308 H 0.59022 0.70593 0.75199 0.0
H1309 H 0.53136 0.63741 0.76449 0.0
H1310 H 0.62785 0.67738 0.7738 0.0
H1311 H 0.56838 0.60923 0.78664 0.0
H1312 H 0.68074 0.59223 0.75549 0.0
H1313 H 0.64841 0.63203 0.75133 0.0
H1314 H 0.60486 0.60469 0.82679 0.0
H1315 H 0.63762 0.56474 0.83119 0.0
C1316 C 0.58523 0.68516 0.76027 0.0
C1317 C 0.55822 0.67359 0.75654 0.0
C1318 C 0.60662 0.66888 0.77266 0.0
C1319 C 0.60094 0.64115 0.7819 0.0
C1320 C 0.57327 0.63063 0.78007 0.0
C1321 C 0.55217 0.64662 0.76723 0.0
C1322 C 0.66463 0.59502 0.77153 0.0
C1323 C 0.6613 0.57515 0.79337 0.0
C1324 C 0.64636 0.61802 0.76934 0.0
C1325 C 0.62414 0.62136 0.78871 0.0
C1326 C 0.62187 0.60251 0.8116 0.0
C1327 C 0.64053 0.5797 0.81409 0.0
H1328 H 0.67269 0.92896 0.85406 0.0
H1329 H 0.74509 0.89664 0.80869 0.0
H1330 H 0.67794 0.89119 0.88911 0.0
H1331 H 0.74994 0.85877 0.8434 0.0
H1332 H 0.74336 0.85984 0.96088 0.0
H1333 H 0.72219 0.88781 0.92311 0.0
H1334 H 0.72402 0.81504 0.86805 0.0
H1335 H 0.74465 0.78664 0.90643 0.0
C1336 C 0.68922 0.91338 0.85117 0.0
C1337 C 0.70878 0.91595 0.82896 0.0
C1338 C 0.69217 0.89182 0.87117 0.0
C1339 C 0.71432 0.87219 0.86885 0.0
C1340 C 0.73252 0.8735 0.84547 0.0
C1341 C 0.72992 0.89533 0.82581 0.0
C1342 C 0.73857 0.84966 0.94092 0.0
C1343 C 0.74571 0.82125 0.93635 0.0
C1344 C 0.72628 0.86557 0.91943 0.0
C1345 C 0.72149 0.8535 0.89278 0.0
C1346 C 0.72745 0.82469 0.88853 0.0
C1347 C 0.73916 0.80852 0.91037 0.0
H1348 H 0.71901 0.16175 0.04872 0.0
H1349 H 0.79993 0.16259 0.09091 0.0
H1350 H 0.70314 0.12374 0.08002 0.0
H1351 H 0.78391 0.12535 0.12257 0.0
H1352 H 0.68092 0.06585 0.15692 0.0
H1353 H 0.69173 0.10754 0.12824 0.0
H1354 H 0.7761 0.0756 0.11403 0.0
H1355 H 0.76562 0.03454 0.14294 0.0
C1356 C 0.73305 0.15445 0.06526 0.0
C1357 C 0.76082 0.16485 0.06718 0.0
C1358 C 0.724 0.13262 0.08312 0.0
C1359 C 0.74254 0.12104 0.10326 0.0
C1360 C 0.76944 0.1332 0.10666 0.0
C1361 C 0.77853 0.15473 0.08872 0.0
C1362 C 0.70165 0.06759 0.14733 0.0
C1363 C 0.7225 0.04697 0.15238 0.0
C1364 C 0.70784 0.09151 0.13098 0.0
C1365 C 0.73496 0.09518 0.11939 0.0
C1366 C 0.75527 0.07386 0.12338 0.0
C1367 C 0.74917 0.05015 0.13974 0.0
H1368 H 0.41636 0.33125 0.65237 0.0
H1369 H 0.42619 0.25355 0.60519 0.0
H1370 H 0.37143 0.33974 0.62922 0.0
H1371 H 0.38143 0.2626 0.58128 0.0
H1372 H 0.28873 0.2741 0.5609 0.0
H1373 H 0.3307 0.26458 0.58933 0.0
H1374 H 0.3544 0.35267 0.58363 0.0
H1375 H 0.31233 0.36238 0.55627 0.0
C1376 C 0.40915 0.31617 0.63673 0.0
C1377 C 0.42501 0.29183 0.63043 0.0
C1378 C 0.38333 0.32103 0.62349 0.0
C1379 C 0.37286 0.30185 0.60342 0.0
C1380 C 0.38872 0.27755 0.597 0.0
C1381 C 0.41451 0.27253 0.61045 0.0
C1382 C 0.30264 0.29151 0.56617 0.0
C1383 C 0.29725 0.31896 0.55611 0.0
C1384 C 0.32683 0.28599 0.58219 0.0
C1385 C 0.34602 0.30781 0.58845 0.0
C1386 C 0.33995 0.33541 0.57941 0.0
C1387 C 0.31582 0.34095 0.56354 0.0
H1388 H 0.24056 0.78514 0.08828 0.0
H1389 H 0.25004 0.85648 0.03219 0.0
H1390 H 0.26065 0.81325 0.12718 0.0
H1391 H 0.27057 0.88418 0.07047 0.0
H1392 H 0.24051 0.89619 0.18362 0.0
H1393 H 0.23649 0.85775 0.14957 0.0
H1394 H 0.31141 0.88756 0.10679 0.0
H1395 H 0.31569 0.92606 0.14104 0.0
C1396 C 0.24781 0.80648 0.08416 0.0
C1397 C 0.24375 0.81889 0.05754 0.0
C1398 C 0.25918 0.8225 0.10629 0.0
C1399 C 0.26716 0.85079 0.10171 0.0
C1400 C 0.26494 0.86233 0.07447 0.0
C1401 C 0.25305 0.8466 0.05266 0.0
C1402 C 0.25644 0.89426 0.16727 0.0
C1403 C 0.27811 0.91442 0.16465 0.0
C1404 C 0.25432 0.87204 0.14801 0.0
C1405 C 0.27362 0.8698 0.12559 0.0
C1406 C 0.29628 0.88892 0.12394 0.0
C1407 C 0.29866 0.91093 0.14348 0.0
H1408 H 0.69657 0.62623 0.57618 0.0
H1409 H 0.69091 0.70854 0.53702 0.0
H1410 H 0.65307 0.63565 0.60227 0.0
H1411 H 0.64687 0.71733 0.56146 0.0
H1412 H 0.5791 0.7366 0.62436 0.0
H1413 H 0.62483 0.72757 0.60327 0.0
H1414 H 0.60418 0.63866 0.59672 0.0
H1415 H 0.55885 0.6477 0.61973 0.0
C1416 C 0.6861 0.6464 0.5733 0.0
C1417 C 0.69727 0.66671 0.5547 0.0
C1418 C 0.66096 0.65169 0.58797 0.0
C1419 C 0.64613 0.6772 0.58392 0.0
C1420 C 0.65779 0.69767 0.5657 0.0
C1421 C 0.68315 0.69262 0.55156 0.0
C1422 C 0.58421 0.71514 0.61821 0.0
C1423 C 0.56524 0.69289 0.6234 0.0
C1424 C 0.61052 0.70992 0.60601 0.0
C1425 C 0.61837 0.68237 0.598 0.0
C1426 C 0.5992 0.66009 0.60301 0.0
C1427 C 0.57305 0.66526 0.61588 0.0
H1428 H 0.25855 0.18024 0.91397 0.0
H1429 H 0.20932 0.11584 0.95638 0.0
H1430 H 0.27209 0.14538 0.87777 0.0
H1431 H 0.22256 0.08181 0.92062 0.0
H1432 H 0.21684 0.04296 0.83335 0.0
H1433 H 0.20884 0.07962 0.86851 0.0
H1434 H 0.29847 0.09607 0.87249 0.0
H1435 H 0.30674 0.05922 0.83709 0.0
C1436 C 0.25095 0.15872 0.9158 0.0
C1437 C 0.23246 0.151 0.93777 0.0
C1438 C 0.25866 0.13884 0.89513 0.0
C1439 C 0.24784 0.11113 0.89619 0.0
C1440 C 0.23065 0.10319 0.91895 0.0
C1441 C 0.22313 0.12278 0.93947 0.0
C1442 C 0.2349 0.05437 0.84158 0.0
C1443 C 0.26245 0.04791 0.83259 0.0
C1444 C 0.2303 0.07534 0.86175 0.0
C1445 C 0.25308 0.0905 0.87328 0.0
C1446 C 0.28058 0.08472 0.86382 0.0
C1447 C 0.28525 0.06347 0.84377 0.0
H1448 H 0.29394 0.62643 0.416 0.0
H1449 H 0.29795 0.70929 0.45413 0.0
H1450 H 0.33741 0.63634 0.39005 0.0
H1451 H 0.34196 0.71859 0.42984 0.0
H1452 H 0.41019 0.73791 0.36712 0.0
H1453 H 0.36435 0.72862 0.38804 0.0
H1454 H 0.38613 0.64014 0.39645 0.0
H1455 H 0.43148 0.64938 0.37368 0.0
C1456 C 0.30403 0.64681 0.41869 0.0
C1457 C 0.29243 0.66712 0.43699 0.0
C1458 C 0.32916 0.6524 0.40411 0.0
C1459 C 0.34353 0.6782 0.40796 0.0
C1460 C 0.33141 0.69869 0.42579 0.0
C1461 C 0.30607 0.69334 0.43985 0.0
C1462 C 0.40528 0.7165 0.37366 0.0
C1463 C 0.42453 0.6944 0.36902 0.0
C1464 C 0.37893 0.71114 0.38575 0.0
C1465 C 0.37135 0.68361 0.39415 0.0
C1466 C 0.39087 0.66152 0.38979 0.0
C1467 C 0.41704 0.66682 0.37707 0.0
H1468 H 0.56382 0.25473 0.382 0.0
H1469 H 0.57133 0.33371 0.33643 0.0
H1470 H 0.60822 0.26459 0.40611 0.0
H1471 H 0.61598 0.34309 0.35992 0.0
H1472 H 0.6758 0.3646 0.43333 0.0
H1473 H 0.63362 0.35515 0.40585 0.0
H1474 H 0.65865 0.26771 0.39712 0.0
H1475 H 0.70066 0.27692 0.42546 0.0
C1476 C 0.5749 0.27419 0.37713 0.0
C1477 C 0.56389 0.29351 0.35744 0.0
C1478 C 0.6005 0.27968 0.39072 0.0
C1479 C 0.6157 0.30454 0.38478 0.0
C1480 C 0.60462 0.3239 0.3652 0.0
C1481 C 0.57898 0.31851 0.35175 0.0
C1482 C 0.67258 0.3434 0.42531 0.0
C1483 C 0.69152 0.32144 0.4319 0.0
C1484 C 0.64838 0.33802 0.40942 0.0
C1485 C 0.64262 0.31061 0.39959 0.0
C1486 C 0.66223 0.28894 0.40494 0.0
C1487 C 0.68644 0.29429 0.42094 0.0
H1488 H 0.18154 0.24803 0.43141 0.0
H1489 H 0.13169 0.32424 0.42288 0.0
H1490 H 0.15217 0.22507 0.39566 0.0
H1491 H 0.10228 0.30119 0.38786 0.0
H1492 H 0.06365 0.25908 0.31258 0.0
H1493 H 0.10115 0.28111 0.3402 0.0
H1494 H 0.1028 0.20863 0.39581 0.0
H1495 H 0.06586 0.18634 0.36807 0.0
C1496 C 0.16453 0.25995 0.42177 0.0
C1497 C 0.15871 0.28781 0.43028 0.0
C1498 C 0.14769 0.24678 0.40141 0.0
C1499 C 0.12488 0.26132 0.3891 0.0
C1500 C 0.11988 0.28954 0.39673 0.0
C1501 C 0.13658 0.30263 0.41708 0.0
C1502 C 0.07218 0.24772 0.33054 0.0
C1503 C 0.06146 0.22111 0.33833 0.0
C1504 C 0.09363 0.26036 0.34636 0.0
C1505 C 0.1048 0.24662 0.3702 0.0
C1506 C 0.09484 0.21959 0.37735 0.0
C1507 C 0.07342 0.20697 0.36159 0.0
H1508 H 0.23377 0.69125 0.92814 0.0
H1509 H 0.14369 0.67585 0.93193 0.0
H1510 H 0.23986 0.64839 0.90057 0.0
H1511 H 0.15008 0.63264 0.90424 0.0
H1512 H 0.2463 0.55429 0.89101 0.0
H1513 H 0.23413 0.59751 0.91573 0.0
H1514 H 0.16733 0.6136 0.85573 0.0
H1515 H 0.17951 0.56992 0.83058 0.0
C1516 C 0.21519 0.67895 0.92285 0.0
C1517 C 0.18828 0.68683 0.93267 0.0
C1518 C 0.21874 0.65429 0.90717 0.0
C1519 C 0.19551 0.63695 0.90082 0.0
C1520 C 0.16834 0.64562 0.90898 0.0
C1521 C 0.16475 0.67034 0.92484 0.0
C1522 C 0.2288 0.56678 0.88313 0.0
C1523 C 0.21415 0.55883 0.85854 0.0
C1524 C 0.22196 0.59165 0.89724 0.0
C1525 C 0.20026 0.60919 0.88722 0.0
C1526 C 0.18429 0.60047 0.86375 0.0
C1527 C 0.19122 0.57546 0.84945 0.0
H1528 H 0.935 0.73542 0.31447 0.0
H1529 H 0.9199 0.80812 0.36777 0.0
H1530 H 0.899 0.70903 0.34063 0.0
H1531 H 0.88458 0.78174 0.39396 0.0
H1532 H 0.80947 0.73474 0.42645 0.0
H1533 H 0.83802 0.7597 0.3915 0.0
H1534 H 0.89617 0.68936 0.38869 0.0
H1535 H 0.8675 0.66416 0.4231 0.0
C1536 C 0.92387 0.74585 0.33154 0.0
C1537 C 0.93058 0.77378 0.33921 0.0
C1538 C 0.90335 0.7307 0.34659 0.0
C1539 C 0.889 0.74327 0.36942 0.0
C1540 C 0.89497 0.77152 0.3763 0.0
C1541 C 0.9155 0.78656 0.36142 0.0
C1542 C 0.82813 0.72442 0.41813 0.0
C1543 C 0.83637 0.69759 0.42794 0.0
C1544 C 0.84454 0.73878 0.39816 0.0
C1545 C 0.86949 0.72661 0.38751 0.0
C1546 C 0.87696 0.69924 0.39628 0.0
C1547 C 0.86061 0.6849 0.41625 0.0
H1548 H 0.71209 0.41357 0.85405 0.0
H1549 H 0.80275 0.4239 0.85064 0.0
H1550 H 0.71783 0.36761 0.87594 0.0
H1551 H 0.80863 0.3782 0.87405 0.0
H1552 H 0.81288 0.28709 0.89948 0.0
H1553 H 0.80447 0.32848 0.86995 0.0
H1554 H 0.73023 0.34827 0.91953 0.0
H1555 H 0.73796 0.30635 0.94804 0.0
C1556 C 0.73332 0.40614 0.85837 0.0
C1557 C 0.75701 0.42252 0.85101 0.0
C1558 C 0.7366 0.37974 0.87098 0.0
C1559 C 0.76367 0.36919 0.87706 0.0
C1560 C 0.78745 0.38544 0.86933 0.0
C1561 C 0.78414 0.41175 0.85618 0.0
C1562 C 0.79442 0.3 0.90361 0.0
C1563 C 0.77612 0.29353 0.92613 0.0
C1564 C 0.78978 0.3239 0.8869 0.0
C1565 C 0.76694 0.34204 0.89258 0.0
C1566 C 0.74787 0.3347 0.91425 0.0
C1567 C 0.75229 0.31059 0.93067 0.0
H1568 H 0.1792 0.73593 0.56314 0.0
H1569 H 0.12202 0.66475 0.56836 0.0
H1570 H 0.15028 0.76149 0.59729 0.0
H1571 H 0.093 0.69053 0.60207 0.0
H1572 H 0.05492 0.73794 0.67604 0.0
H1573 H 0.09066 0.71133 0.64986 0.0
H1574 H 0.10313 0.78279 0.59432 0.0
H1575 H 0.06797 0.80944 0.62051 0.0
C1576 C 0.16065 0.72561 0.57172 0.0
C1577 C 0.15277 0.6984 0.56268 0.0
C1578 C 0.14402 0.74032 0.59121 0.0
C1579 C 0.11924 0.72811 0.60218 0.0
C1580 C 0.11208 0.70043 0.59418 0.0
C1581 C 0.12863 0.68575 0.57465 0.0
C1582 C 0.06553 0.74807 0.65845 0.0
C1583 C 0.05836 0.77573 0.65022 0.0
C1584 C 0.0859 0.73278 0.64339 0.0
C1585 C 0.09966 0.74495 0.61999 0.0
C1586 C 0.09318 0.77292 0.61244 0.0
C1587 C 0.07277 0.78811 0.62733 0.0
H1588 H 0.81129 0.54693 0.12198 0.0
H1589 H 0.74027 0.58966 0.15996 0.0
H1590 H 0.82333 0.59026 0.09598 0.0
H1591 H 0.75297 0.6331 0.13567 0.0
H1592 H 0.75457 0.68797 0.05771 0.0
H1593 H 0.74838 0.6479 0.08869 0.0
H1594 H 0.83903 0.63889 0.09583 0.0
H1595 H 0.84532 0.67881 0.06357 0.0
C1596 C 0.79872 0.5658 0.12518 0.0
C1597 C 0.7746 0.56503 0.14239 0.0
C1598 C 0.80563 0.59062 0.11048 0.0
C1599 C 0.78875 0.61503 0.11329 0.0
C1600 C 0.76587 0.6145 0.13224 0.0
C1601 C 0.75867 0.5897 0.14629 0.0
C1602 C 0.77328 0.67774 0.06602 0.0
C1603 C 0.80045 0.68668 0.05808 0.0
C1604 C 0.76972 0.65474 0.08404 0.0
C1605 C 0.79322 0.64021 0.095 0.0
C1606 C 0.82048 0.64943 0.08756 0.0
C1607 C 0.82407 0.67243 0.06923 0.0
H1608 H 0.83344 0.32008 0.58455 0.0
H1609 H 0.82574 0.24248 0.53733 0.0
H1610 H 0.86184 0.2959 0.62001 0.0
H1611 H 0.85599 0.21857 0.5713 0.0
H1612 H 0.94298 0.25661 0.6539 0.0
H1613 H 0.90692 0.27971 0.62565 0.0
H1614 H 0.86422 0.1994 0.61492 0.0
H1615 H 0.90178 0.17619 0.64141 0.0
C1616 C 0.83795 0.29778 0.58185 0.0
C1617 C 0.82764 0.28306 0.5583 0.0
C1618 C 0.85443 0.28392 0.60199 0.0
C1619 C 0.86175 0.25528 0.59846 0.0
C1620 C 0.85055 0.24045 0.57517 0.0
C1621 C 0.83334 0.25415 0.55551 0.0
C1622 C 0.9257 0.24404 0.64565 0.0
C1623 C 0.9252 0.21468 0.64951 0.0
C1624 C 0.90481 0.25727 0.6296 0.0
C1625 C 0.88251 0.2415 0.61772 0.0
C1626 C 0.88138 0.2122 0.62298 0.0
C1627 C 0.90274 0.19888 0.63835 0.0
H1628 H 0.1912 0.41438 0.15655 0.0
H1629 H 0.26761 0.42965 0.10867 0.0
H1630 H 0.18426 0.37013 0.13088 0.0
H1631 H 0.26035 0.38595 0.0829 0.0
H1632 H 0.25298 0.29455 0.05616 0.0
H1633 H 0.26076 0.3346 0.08801 0.0
H1634 H 0.17198 0.35546 0.08349 0.0
H1635 H 0.1641 0.31547 0.05255 0.0
C1636 C 0.2064 0.40846 0.14047 0.0
C1637 C 0.22987 0.42573 0.13464 0.0
C1638 C 0.20245 0.38308 0.12579 0.0
C1639 C 0.22187 0.37442 0.10495 0.0
C1640 C 0.24529 0.39168 0.09917 0.0
C1641 C 0.24925 0.41697 0.1138 0.0
C1642 C 0.23511 0.30747 0.06232 0.0
C1643 C 0.20802 0.30197 0.05152 0.0
C1644 C 0.23957 0.33052 0.08039 0.0
C1645 C 0.217 0.34835 0.08811 0.0
C1646 C 0.18978 0.34207 0.07821 0.0
C1647 C 0.18535 0.31921 0.06019 0.0
H1648 H 0.37003 0.05872 0.22085 0.0
H1649 H 0.32577 0.07588 0.29902 0.0
H1650 H 0.39684 0.1019 0.22626 0.0
H1651 H 0.35258 0.11984 0.30413 0.0
H1652 H 0.43308 0.17439 0.31833 0.0
H1653 H 0.40076 0.13487 0.31367 0.0
H1654 H 0.39184 0.1527 0.22453 0.0
H1655 H 0.42496 0.19199 0.22895 0.0
C1656 C 0.36587 0.07177 0.23918 0.0
C1657 C 0.3457 0.06372 0.25955 0.0
C1658 C 0.38112 0.09676 0.24211 0.0
C1659 C 0.37663 0.1145 0.26543 0.0
C1660 C 0.35659 0.10652 0.28596 0.0
C1661 C 0.34126 0.08135 0.28305 0.0
C1662 C 0.42414 0.1701 0.2977 0.0
C1663 C 0.43201 0.18618 0.27389 0.0
C1664 C 0.40537 0.14752 0.29513 0.0
C1665 C 0.39392 0.14048 0.26871 0.0
C1666 C 0.40074 0.15731 0.24511 0.0
C1667 C 0.41961 0.17991 0.24766 0.0
H1668 H 0.38301 0.93733 0.74848 0.0
H1669 H 0.32589 0.91545 0.68058 0.0
H1670 H 0.40958 0.89428 0.7401 0.0
H1671 H 0.3526 0.8719 0.6724 0.0
H1672 H 0.42854 0.81071 0.65301 0.0
H1673 H 0.39967 0.85321 0.65729 0.0
H1674 H 0.39942 0.84383 0.7481 0.0
H1675 H 0.42856 0.8017 0.74404 0.0
C1676 C 0.37622 0.92344 0.73159 0.0
C1677 C 0.35212 0.9297 0.71539 0.0
C1678 C 0.39134 0.89863 0.72696 0.0
C1679 C 0.38276 0.87942 0.70605 0.0
C1680 C 0.35962 0.88631 0.68874 0.0
C1681 C 0.3444 0.91127 0.69338 0.0
C1682 C 0.42204 0.81747 0.6739 0.0
C1683 C 0.43124 0.80296 0.69823 0.0
C1684 C 0.40545 0.84181 0.67629 0.0
C1685 C 0.39778 0.85211 0.70303 0.0
C1686 C 0.40563 0.83674 0.72722 0.0
C1687 C 0.42216 0.81246 0.72487 0.0
H1688 H 0.66409 0.91668 0.30967 0.0
H1689 H 0.60677 0.93633 0.24126 0.0
H1690 H 0.63805 0.87279 0.31863 0.0
H1691 H 0.58093 0.89297 0.25036 0.0
H1692 H 0.56354 0.80025 0.24763 0.0
H1693 H 0.59238 0.84255 0.2432 0.0
H1694 H 0.5909 0.85346 0.3338 0.0
H1695 H 0.56228 0.81079 0.33846 0.0
C1696 C 0.64567 0.91195 0.29693 0.0
C1697 C 0.63771 0.92984 0.27453 0.0
C1698 C 0.63085 0.8868 0.302 0.0
C1699 C 0.6079 0.87918 0.28474 0.0
C1700 C 0.59904 0.89788 0.26348 0.0
C1701 C 0.61375 0.92287 0.25842 0.0
C1702 C 0.56962 0.81137 0.26669 0.0
C1703 C 0.56021 0.80227 0.29337 0.0
C1704 C 0.586 0.83574 0.26412 0.0
C1705 C 0.59336 0.85162 0.28812 0.0
C1706 C 0.58548 0.84167 0.31494 0.0
C1707 C 0.56903 0.81723 0.31756 0.0
H1708 H 0.6656 0.07823 0.69468 0.0
H1709 H 0.61465 0.05724 0.76768 0.0
H1710 H 0.63939 0.12252 0.68945 0.0
H1711 H 0.58843 0.10079 0.76212 0.0
H1712 H 0.56067 0.19091 0.76174 0.0
H1713 H 0.59343 0.15142 0.76696 0.0
H1714 H 0.59237 0.13843 0.67656 0.0
H1715 H 0.56046 0.17817 0.67119 0.0
C1716 C 0.64874 0.08291 0.70944 0.0
C1717 C 0.64228 0.06416 0.73158 0.0
C1718 C 0.63376 0.10828 0.70649 0.0
C1719 C 0.61204 0.11532 0.72559 0.0
C1720 C 0.60548 0.09639 0.74747 0.0
C1721 C 0.62039 0.07121 0.75046 0.0
C1722 C 0.56772 0.17988 0.74295 0.0
C1723 C 0.55758 0.18751 0.71612 0.0
C1724 C 0.58637 0.15715 0.74595 0.0
C1725 C 0.59521 0.14156 0.72218 0.0
C1726 C 0.58614 0.15007 0.69527 0.0
C1727 C 0.5676 0.17277 0.69226 0.0
H1728 H 0.80916 0.74018 0.55702 0.0
H1729 H 0.86414 0.6679 0.56758 0.0
H1730 H 0.83661 0.76598 0.59234 0.0
H1731 H 0.89164 0.69378 0.60225 0.0
H1732 H 0.91944 0.81179 0.61949 0.0
H1733 H 0.88422 0.78618 0.59244 0.0
H1734 H 0.89183 0.71513 0.64936 0.0
H1735 H 0.92771 0.74065 0.67636 0.0
C1736 C 0.8269 0.72971 0.56699 0.0
C1737 C 0.83464 0.70211 0.55916 0.0
C1738 C 0.84267 0.74452 0.58715 0.0
C1739 C 0.86637 0.73196 0.59999 0.0
C1740 C 0.87334 0.70397 0.59301 0.0
C1741 C 0.8577 0.68924 0.57285 0.0
C1742 C 0.91353 0.79078 0.62645 0.0
C1743 C 0.92676 0.77811 0.64989 0.0
C1744 C 0.89306 0.77621 0.61106 0.0
C1745 C 0.88531 0.74858 0.61867 0.0
C1746 C 0.89763 0.7363 0.6428 0.0
C1747 C 0.9181 0.75095 0.65832 0.0
H1748 H 0.80539 0.33577 0.01965 0.0
H1749 H 0.75998 0.28401 0.07979 0.0
H1750 H 0.79955 0.3767 0.05021 0.0
H1751 H 0.75445 0.32542 0.11075 0.0
H1752 H 0.78357 0.40308 0.1678 0.0
H1753 H 0.78981 0.36056 0.1387 0.0
H1754 H 0.75508 0.40476 0.06684 0.0
H1755 H 0.74847 0.44692 0.09575 0.0
C1756 C 0.79422 0.33311 0.03948 0.0
C1757 C 0.78312 0.30666 0.04734 0.0
C1758 C 0.79084 0.35659 0.05689 0.0
C1759 C 0.77664 0.35413 0.08278 0.0
C1760 C 0.76566 0.32771 0.09091 0.0
C1761 C 0.76862 0.30417 0.07316 0.0
C1762 C 0.77755 0.40374 0.14572 0.0
C1763 C 0.76565 0.42833 0.13399 0.0
C1764 C 0.78083 0.37938 0.12923 0.0
C1765 C 0.77278 0.37946 0.10065 0.0
C1766 C 0.76148 0.40421 0.08883 0.0
C1767 C 0.75773 0.42831 0.10537 0.0
H1768 H 0.05951 0.25354 0.67515 0.0
H1769 H 0.06067 0.18574 0.61381 0.0
H1770 H 0.09708 0.27754 0.64909 0.0
H1771 H 0.09773 0.2099 0.58778 0.0
H1772 H 0.17883 0.24845 0.55758 0.0
H1773 H 0.14771 0.22431 0.5909 0.0
H1774 H 0.10047 0.30154 0.60282 0.0
H1775 H 0.1317 0.32583 0.57 0.0
C1776 C 0.06778 0.24371 0.65621 0.0
C1777 C 0.05688 0.21783 0.64646 0.0
C1778 C 0.08926 0.25749 0.64128 0.0
C1779 C 0.10036 0.24556 0.61644 0.0
C1780 C 0.08989 0.21942 0.60706 0.0
C1781 C 0.0684 0.20574 0.62186 0.0
C1782 C 0.16208 0.26041 0.56763 0.0
C1783 C 0.15753 0.28898 0.56082 0.0
C1784 C 0.14418 0.24653 0.58659 0.0
C1785 C 0.1215 0.26098 0.59923 0.0
C1786 C 0.11786 0.28989 0.59356 0.0
C1787 C 0.13566 0.30373 0.57454 0.0
H1788 H 0.25148 0.56045 0.10373 0.0
H1789 H 0.1789 0.56981 0.1586 0.0
H1790 H 0.23901 0.60384 0.0796 0.0
H1791 H 0.16643 0.61379 0.13405 0.0
H1792 H 0.14461 0.67458 0.05592 0.0
H1793 H 0.15183 0.63236 0.08486 0.0
H1794 H 0.23973 0.65456 0.09506 0.0
H1795 H 0.23282 0.69644 0.06612 0.0
C1796 C 0.23274 0.57167 0.1106 0.0
C1797 C 0.2164 0.56179 0.13339 0.0
C1798 C 0.22572 0.59666 0.09684 0.0
C1799 C 0.20215 0.61247 0.10541 0.0
C1800 C 0.18483 0.60202 0.12718 0.0
C1801 C 0.19194 0.57686 0.14114 0.0
C1802 C 0.16537 0.67073 0.06474 0.0
C1803 C 0.18828 0.68862 0.05824 0.0
C1804 C 0.16943 0.64658 0.08134 0.0
C1805 C 0.19644 0.63996 0.09164 0.0
C1806 C 0.21882 0.65886 0.08679 0.0
C1807 C 0.2148 0.68291 0.07028 0.0
H1808 H 0.80641 0.25078 0.42646 0.0
H1809 H 0.85949 0.32521 0.423 0.0
H1810 H 0.83632 0.22803 0.39112 0.0
H1811 H 0.88945 0.30228 0.3882 0.0
H1812 H 0.92874 0.26063 0.31244 0.0
H1813 H 0.89135 0.28345 0.33959 0.0
H1814 H 0.88529 0.2098 0.39332 0.0
H1815 H 0.92222 0.18675 0.36608 0.0
C1816 C 0.82424 0.2624 0.41799 0.0
C1817 C 0.83081 0.28965 0.42783 0.0
C1818 C 0.8414 0.24932 0.39786 0.0
C1819 C 0.86527 0.26333 0.3871 0.0
C1820 C 0.87104 0.29106 0.39594 0.0
C1821 C 0.854 0.30408 0.41611 0.0
C1822 C 0.91926 0.24918 0.32988 0.0
C1823 C 0.92872 0.22199 0.3373 0.0
C1824 C 0.8979 0.26229 0.34542 0.0
C1825 C 0.88552 0.24842 0.36858 0.0
C1826 C 0.89424 0.22087 0.37536 0.0
C1827 C 0.91563 0.2078 0.35991 0.0
H1828 H 0.25299 0.30569 0.94524 0.0
H1829 H 0.17594 0.28823 0.89963 0.0
H1830 H 0.261 0.34716 0.91595 0.0
H1831 H 0.18457 0.32891 0.86921 0.0
H1832 H 0.18719 0.42393 0.8492 0.0
H1833 H 0.18144 0.37831 0.87274 0.0
H1834 H 0.27218 0.3669 0.87241 0.0
H1835 H 0.27779 0.4129 0.85046 0.0
C1836 C 0.2383 0.31019 0.92827 0.0
C1837 C 0.21379 0.29389 0.92482 0.0
C1838 C 0.24283 0.33402 0.91141 0.0
C1839 C 0.22319 0.34174 0.89038 0.0
C1840 C 0.19971 0.32414 0.88568 0.0
C1841 C 0.19494 0.30061 0.90287 0.0
C1842 C 0.20581 0.41159 0.85424 0.0
C1843 C 0.23289 0.42217 0.84848 0.0
C1844 C 0.20259 0.38531 0.86748 0.0
C1845 C 0.22639 0.36885 0.87467 0.0
C1846 C 0.2534 0.37918 0.86791 0.0
C1847 C 0.25661 0.40558 0.85524 0.0
H1848 H 0.18033 0.73931 0.4337 0.0
H1849 H 0.12586 0.66657 0.42353 0.0
H1850 H 0.15276 0.76472 0.39819 0.0
H1851 H 0.09822 0.69209 0.38866 0.0
H1852 H 0.06189 0.73873 0.31433 0.0
H1853 H 0.09792 0.71344 0.34138 0.0
H1854 H 0.1049 0.78444 0.39836 0.0
H1855 H 0.06952 0.80982 0.37128 0.0
C1856 C 0.16269 0.72864 0.42376 0.0
C1857 C 0.1551 0.70104 0.43177 0.0
C1858 C 0.14685 0.74323 0.4035 0.0
C1859 C 0.12323 0.73045 0.39074 0.0
C1860 C 0.11645 0.70244 0.39785 0.0
C1861 C 0.13217 0.68792 0.41812 0.0
C1862 C 0.07139 0.74906 0.3324 0.0
C1863 C 0.06252 0.77614 0.34084 0.0
C1864 C 0.09194 0.73454 0.34794 0.0
C1865 C 0.10415 0.7469 0.37208 0.0
C1866 C 0.09615 0.77444 0.37972 0.0
C1867 C 0.07559 0.78886 0.36432 0.0
H1868 H 0.80846 0.57058 0.83148 0.0
H1869 H 0.74065 0.55569 0.89102 0.0
H1870 H 0.81996 0.61474 0.85593 0.0
H1871 H 0.75225 0.59935 0.91523 0.0
H1872 H 0.75388 0.69246 0.9295 0.0
H1873 H 0.74709 0.64985 0.90164 0.0
H1874 H 0.837 0.63429 0.90275 0.0
H1875 H 0.84405 0.67724 0.93045 0.0
C1876 C 0.79636 0.57642 0.85002 0.0
C1877 C 0.77341 0.55979 0.85908 0.0
C1878 C 0.8029 0.60172 0.86392 0.0
C1879 C 0.78654 0.61074 0.88702 0.0
C1880 C 0.7647 0.5933 0.89698 0.0
C1881 C 0.75821 0.56816 0.8832 0.0
C1882 C 0.7723 0.68026 0.92352 0.0
C1883 C 0.79946 0.68808 0.93263 0.0
C1884 C 0.76837 0.65573 0.9077 0.0
C1885 C 0.79147 0.63848 0.90061 0.0
C1886 C 0.81883 0.64718 0.90803 0.0
C1887 C 0.8228 0.67177 0.92392 0.0
H1888 H 0.563 0.79952 0.74351 0.0
H1889 H 0.55654 0.81427 0.65346 0.0
H1890 H 0.59252 0.84131 0.74809 0.0
H1891 H 0.58599 0.85643 0.65832 0.0
H1892 H 0.60641 0.93502 0.75302 0.0
H1893 H 0.57998 0.89228 0.74305 0.0
H1894 H 0.63505 0.87422 0.67252 0.0
H1895 H 0.66184 0.91753 0.68244 0.0
C1896 C 0.56805 0.81148 0.72463 0.0
C1897 C 0.55699 0.80374 0.69819 0.0
C1898 C 0.58486 0.83551 0.7273 0.0
C1899 C 0.59104 0.85237 0.70363 0.0
C1900 C 0.58147 0.84382 0.67691 0.0
C1901 C 0.56455 0.81972 0.6742 0.0
C1902 C 0.61287 0.92214 0.73521 0.0
C1903 C 0.6365 0.92949 0.71875 0.0
C1904 C 0.59779 0.89755 0.72963 0.0
C1905 C 0.60591 0.87962 0.70746 0.0
C1906 C 0.62849 0.88765 0.68986 0.0
C1907 C 0.64372 0.91244 0.69549 0.0
H1908 H 0.57864 0.1937 0.31349 0.0
H1909 H 0.54701 0.17701 0.22949 0.0
H1910 H 0.61164 0.15443 0.30897 0.0
H1911 H 0.57893 0.13702 0.22539 0.0
H1912 H 0.63972 0.06109 0.30448 0.0
H1913 H 0.61208 0.10456 0.30904 0.0
H1914 H 0.62553 0.12218 0.22028 0.0
H1915 H 0.65161 0.07828 0.21562 0.0
C1916 C 0.57882 0.18167 0.294 0.0
C1917 C 0.56021 0.18841 0.27184 0.0
C1918 C 0.59758 0.159 0.29151 0.0
C1919 C 0.59788 0.14231 0.26693 0.0
C1920 C 0.57972 0.14961 0.24448 0.0
C1921 C 0.56129 0.17253 0.24682 0.0
C1922 C 0.63677 0.07441 0.28608 0.0
C1923 C 0.64734 0.06614 0.25965 0.0
C1924 C 0.62111 0.09941 0.28865 0.0
C1925 C 0.61624 0.11682 0.26492 0.0
C1926 C 0.62807 0.10899 0.23883 0.0
C1927 C 0.64317 0.08386 0.23618 0.0
H1928 H 0.32301 0.07785 0.69142 0.0
H1929 H 0.37035 0.05848 0.76712 0.0
H1930 H 0.34873 0.12249 0.687 0.0
H1931 H 0.39642 0.10225 0.76226 0.0
H1932 H 0.42545 0.19192 0.76122 0.0
H1933 H 0.39269 0.15234 0.76613 0.0
H1934 H 0.39472 0.13951 0.67569 0.0
H1935 H 0.4263 0.17939 0.67065 0.0
C1936 C 0.33905 0.08297 0.70692 0.0
C1937 C 0.34461 0.0646 0.72958 0.0
C1938 C 0.35377 0.10855 0.70444 0.0
C1939 C 0.37449 0.11612 0.72444 0.0
C1940 C 0.38014 0.09753 0.74688 0.0
C1941 C 0.36535 0.07221 0.74947 0.0
C1942 C 0.41856 0.18091 0.74237 0.0
C1943 C 0.42884 0.1887 0.71562 0.0
C1944 C 0.39993 0.15809 0.74518 0.0
C1945 C 0.39134 0.14248 0.72131 0.0
C1946 C 0.40063 0.15113 0.6945 0.0
C1947 C 0.41902 0.17397 0.69168 0.0
H1948 H 0.43439 0.815 0.3367 0.0
H1949 H 0.42922 0.80044 0.24657 0.0
H1950 H 0.40456 0.85678 0.3316 0.0
H1951 H 0.39916 0.84184 0.24172 0.0
H1952 H 0.3814 0.93498 0.23674 0.0
H1953 H 0.40887 0.89277 0.24607 0.0
H1954 H 0.35608 0.87388 0.31815 0.0
H1955 H 0.32836 0.91672 0.30894 0.0
C1956 C 0.42662 0.82043 0.31587 0.0
C1957 C 0.43457 0.80453 0.29197 0.0
C1958 C 0.40944 0.84433 0.31301 0.0
C1959 C 0.39994 0.85282 0.28623 0.0
C1960 C 0.40672 0.83615 0.26258 0.0
C1961 C 0.42383 0.8123 0.2654 0.0
C1962 C 0.37566 0.92202 0.25474 0.0
C1963 C 0.35244 0.92908 0.27191 0.0
C1964 C 0.39132 0.89769 0.25994 0.0
C1965 C 0.38422 0.87968 0.28243 0.0
C1966 C 0.36195 0.88736 0.30058 0.0
C1967 C 0.34615 0.91189 0.29535 0.0
loop_
_geom_bond_atom_site_label_1
_geom_bond_atom_site_label_2
_geom_bond_distance
_geom_bond_site_symmetry_2
_ccdc_geom_bond_type
Sc0 O3 2.025 . S
Sc0 O10 2.105 1_455 S
Sc0 O13 2.105 . S
Sc0 O16 2.105 . S
Sc0 O19 2.105 1_455 S
Sc1 O3 2.025 . S
Sc1 O11 2.105 1_455 S
Sc1 O15 2.105 . S
Sc1 O17 2.105 . S
Sc1 O21 2.105 1_455 S
Sc2 O3 2.025 . S
Sc2 O12 2.105 1_455 S
Sc2 O14 2.105 . S
Sc2 O18 2.105 . S
Sc2 O20 2.105 1_455 S
O3 Sc0 2.025 . S
O3 Sc1 2.025 . S
O3 Sc2 2.025 . S
C4 O10 1.268 . S
C4 O20 1.268 . S
C5 O11 1.268 . S
C5 O19 1.268 . S
C6 O12 1.268 . S
C6 O21 1.268 . S
C7 O13 1.268 . S
C7 O17 1.268 . S
C8 O14 1.268 . S
C8 O16 1.268 . S
C9 O15 1.268 . S
C9 O18 1.268 . S
O10 Sc0 2.105 1_655 S
O10 C4 1.268 . S
O11 Sc1 2.105 1_655 S
O11 C5 1.268 . S
O12 Sc2 2.105 1_655 S
O12 C6 1.268 . S
O13 Sc0 2.105 . S
O13 C7 1.268 . S
O14 Sc2 2.105 . S
O14 C8 1.268 . S
O15 Sc1 2.105 . S
O15 C9 1.268 . S
O16 Sc0 2.105 . S
O16 C8 1.268 . S
O17 Sc1 2.105 . S
O17 C7 1.268 . S
O18 Sc2 2.105 . S
O18 C9 1.268 . S
O19 Sc0 2.105 1_655 S
O19 C5 1.268 . S
O20 Sc2 2.105 1_655 S
O20 C4 1.268 . S
O21 Sc1 2.105 1_655 S
O21 C6 1.268 . S
Sc22 O25 2.025 . S
Sc22 O32 2.105 . S
Sc22 O35 2.105 . S
Sc22 O38 2.105 . S
Sc22 O41 2.105 . S
Sc23 O25 2.025 . S
Sc23 O33 2.105 . S
Sc23 O37 2.105 . S
Sc23 O39 2.105 . S
Sc23 O43 2.105 . S
Sc24 O25 2.025 . S
Sc24 O34 2.105 . S
Sc24 O36 2.105 . S
Sc24 O40 2.105 . S
Sc24 O42 2.105 . S
O25 Sc22 2.025 . S
O25 Sc23 2.025 . S
O25 Sc24 2.025 . S
C26 O32 1.268 . S
C26 O42 1.268 . S
C27 O33 1.268 . S
C27 O41 1.268 . S
C28 O34 1.268 . S
C28 O43 1.268 . S
C29 O35 1.268 . S
C29 O39 1.268 . S
C30 O36 1.268 . S
C30 O38 1.268 . S
C31 O37 1.268 . S
C31 O40 1.268 . S
O32 Sc22 2.105 . S
O32 C26 1.268 . S
O33 Sc23 2.105 . S
O33 C27 1.268 . S
O34 Sc24 2.105 . S
O34 C28 1.268 . S
O35 Sc22 2.105 . S
O35 C29 1.268 . S
O36 Sc24 2.105 . S
O36 C30 1.268 . S
O37 Sc23 2.105 . S
O37 C31 1.268 . S
O38 Sc22 2.105 . S
O38 C30 1.268 . S
O39 Sc23 2.105 . S
O39 C29 1.268 . S
O40 Sc24 2.105 . S
O40 C31 1.268 . S
O41 Sc22 2.105 . S
O41 C27 1.268 . S
O42 Sc24 2.105 . S
O42 C26 1.268 . S
O43 Sc23 2.105 . S
O43 C28 1.268 . S
Sc44 O47 2.025 . S
Sc44 O54 2.105 . S
Sc44 O57 2.105 1_455 S
Sc44 O60 2.105 1_455 S
Sc44 O63 2.105 . S
Sc45 O47 2.025 . S
Sc45 O55 2.105 . S
Sc45 O59 2.105 1_455 S
Sc45 O61 2.105 1_455 S
Sc45 O65 2.105 . S
Sc46 O47 2.025 . S
Sc46 O56 2.105 . S
Sc46 O58 2.105 1_455 S
Sc46 O62 2.105 1_455 S
Sc46 O64 2.105 . S
O47 Sc44 2.025 . S
O47 Sc45 2.025 . S
O47 Sc46 2.025 . S
C48 O54 1.268 . S
C48 O64 1.268 . S
C49 O55 1.268 . S
C49 O63 1.268 . S
C50 O56 1.268 . S
C50 O65 1.268 . S
C51 O57 1.268 . S
C51 O61 1.268 . S
C52 O58 1.268 . S
C52 O60 1.268 . S
C53 O59 1.268 . S
C53 O62 1.268 . S
O54 Sc44 2.105 . S
O54 C48 1.268 . S
O55 Sc45 2.105 . S
O55 C49 1.268 . S
O56 Sc46 2.105 . S
O56 C50 1.268 . S
O57 Sc44 2.105 1_655 S
O57 C51 1.268 . S
O58 Sc46 2.105 1_655 S
O58 C52 1.268 . S
O59 Sc45 2.105 1_655 S
O59 C53 1.268 . S
O60 Sc44 2.105 1_655 S
O60 C52 1.268 . S
O61 Sc45 2.105 1_655 S
O61 C51 1.268 . S
O62 Sc46 2.105 1_655 S
O62 C53 1.268 . S
O63 Sc44 2.105 . S
O63 C49 1.268 . S
O64 Sc46 2.105 . S
O64 C48 1.268 . S
O65 Sc45 2.105 . S
O65 C50 1.268 . S
Sc66 O69 2.025 . S
Sc66 O76 2.105 . S
Sc66 O79 2.105 . S
Sc66 O82 2.105 . S
Sc66 O85 2.105 . S
Sc67 O69 2.025 . S
Sc67 O77 2.105 . S
Sc67 O81 2.105 . S
Sc67 O83 2.105 . S
Sc67 O87 2.105 . S
Sc68 O69 2.025 . S
Sc68 O78 2.105 . S
Sc68 O80 2.105 . S
Sc68 O84 2.105 . S
Sc68 O86 2.105 . S
O69 Sc66 2.025 . S
O69 Sc67 2.025 . S
O69 Sc68 2.025 . S
C70 O76 1.268 . S
C70 O86 1.268 . S
C71 O77 1.268 . S
C71 O85 1.268 . S
C72 O78 1.268 . S
C72 O87 1.268 . S
C73 O79 1.268 . S
C73 O83 1.268 . S
C74 O80 1.268 . S
C74 O82 1.268 . S
C75 O81 1.268 . S
C75 O84 1.268 . S
O76 Sc66 2.105 . S
O76 C70 1.268 . S
O77 Sc67 2.105 . S
O77 C71 1.268 . S
O78 Sc68 2.105 . S
O78 C72 1.268 . S
O79 Sc66 2.105 . S
O79 C73 1.268 . S
O80 Sc68 2.105 . S
O80 C74 1.268 . S
O81 Sc67 2.105 . S
O81 C75 1.268 . S
O82 Sc66 2.105 . S
O82 C74 1.268 . S
O83 Sc67 2.105 . S
O83 C73 1.268 . S
O84 Sc68 2.105 . S
O84 C75 1.268 . S
O85 Sc66 2.105 . S
O85 C71 1.268 . S
O86 Sc68 2.105 . S
O86 C70 1.268 . S
O87 Sc67 2.105 . S
O87 C72 1.268 . S
Sc88 O91 2.025 . S
Sc88 O98 2.105 . S
Sc88 O101 2.105 1_455 S
Sc88 O104 2.105 1_455 S
Sc88 O107 2.105 . S
Sc89 O91 2.025 . S
Sc89 O99 2.105 . S
Sc89 O103 2.105 1_455 S
Sc89 O105 2.105 1_455 S
Sc89 O109 2.105 . S
Sc90 O91 2.025 . S
Sc90 O100 2.105 . S
Sc90 O102 2.105 1_455 S
Sc90 O106 2.105 1_455 S
Sc90 O108 2.105 . S
O91 Sc88 2.025 . S
O91 Sc89 2.025 . S
O91 Sc90 2.025 . S
C92 O98 1.268 . S
C92 O108 1.268 . S
C93 O99 1.268 . S
C93 O107 1.268 . S
C94 O100 1.268 . S
C94 O109 1.268 . S
C95 O101 1.268 . S
C95 O105 1.268 . S
C96 O102 1.268 . S
C96 O104 1.268 . S
C97 O103 1.268 . S
C97 O106 1.268 . S
O98 Sc88 2.105 . S
O98 C92 1.268 . S
O99 Sc89 2.105 . S
O99 C93 1.268 . S
O100 Sc90 2.105 . S
O100 C94 1.268 . S
O101 Sc88 2.105 1_655 S
O101 C95 1.268 . S
O102 Sc90 2.105 1_655 S
O102 C96 1.268 . S
O103 Sc89 2.105 1_655 S
O103 C97 1.268 . S
O104 Sc88 2.105 1_655 S
O104 C96 1.268 . S
O105 Sc89 2.105 1_655 S
O105 C95 1.268 . S
O106 Sc90 2.105 1_655 S
O106 C97 1.268 . S
O107 Sc88 2.105 . S
O107 C93 1.268 . S
O108 Sc90 2.105 . S
O108 C92 1.268 . S
O109 Sc89 2.105 . S
O109 C94 1.268 . S
Sc110 O113 2.025 . S
Sc110 O120 2.105 . S
Sc110 O123 2.105 . S
Sc110 O126 2.105 . S
Sc110 O129 2.105 . S
Sc111 O113 2.025 . S
Sc111 O121 2.105 . S
Sc111 O125 2.105 . S
Sc111 O127 2.105 . S
Sc111 O131 2.105 . S
Sc112 O113 2.025 . S
Sc112 O122 2.105 . S
Sc112 O124 2.105 . S
Sc112 O128 2.105 . S
Sc112 O130 2.105 . S
O113 Sc110 2.025 . S
O113 Sc111 2.025 . S
O113 Sc112 2.025 . S
C114 O120 1.268 . S
C114 O130 1.268 . S
C115 O121 1.268 . S
C115 O129 1.268 . S
C116 O122 1.268 . S
C116 O131 1.268 . S
C117 O123 1.268 . S
C117 O127 1.268 . S
C118 O124 1.268 . S
C118 O126 1.268 . S
C119 O125 1.268 . S
C119 O128 1.268 . S
O120 Sc110 2.105 . S
O120 C114 1.268 . S
O121 Sc111 2.105 . S
O121 C115 1.268 . S
O122 Sc112 2.105 . S
O122 C116 1.268 . S
O123 Sc110 2.105 . S
O123 C117 1.268 . S
O124 Sc112 2.105 . S
O124 C118 1.268 . S
O125 Sc111 2.105 . S
O125 C119 1.268 . S
O126 Sc110 2.105 . S
O126 C118 1.268 . S
O127 Sc111 2.105 . S
O127 C117 1.268 . S
O128 Sc112 2.105 . S
O128 C119 1.268 . S
O129 Sc110 2.105 . S
O129 C115 1.268 . S
O130 Sc112 2.105 . S
O130 C114 1.268 . S
O131 Sc111 2.105 . S
O131 C116 1.268 . S
Sc132 O135 2.025 . S
Sc132 O142 2.105 1_455 S
Sc132 O145 2.105 . S
Sc132 O148 2.105 . S
Sc132 O151 2.105 1_455 S
Sc133 O135 2.025 . S
Sc133 O143 2.105 1_455 S
Sc133 O147 2.105 . S
Sc133 O149 2.105 . S
Sc133 O153 2.105 1_455 S
Sc134 O135 2.025 . S
Sc134 O144 2.105 1_455 S
Sc134 O146 2.105 . S
Sc134 O150 2.105 . S
Sc134 O152 2.105 1_455 S
O135 Sc132 2.025 . S
O135 Sc133 2.025 . S
O135 Sc134 2.025 . S
C136 O142 1.268 . S
C136 O152 1.268 . S
C137 O143 1.268 . S
C137 O151 1.268 . S
C138 O144 1.268 . S
C138 O153 1.268 . S
C139 O145 1.268 . S
C139 O149 1.268 . S
C140 O146 1.268 . S
C140 O148 1.268 . S
C141 O147 1.268 . S
C141 O150 1.268 . S
O142 Sc132 2.105 1_655 S
O142 C136 1.268 . S
O143 Sc133 2.105 1_655 S
O143 C137 1.268 . S
O144 Sc134 2.105 1_655 S
O144 C138 1.268 . S
O145 Sc132 2.105 . S
O145 C139 1.268 . S
O146 Sc134 2.105 . S
O146 C140 1.268 . S
O147 Sc133 2.105 . S
O147 C141 1.268 . S
O148 Sc132 2.105 . S
O148 C140 1.268 . S
O149 Sc133 2.105 . S
O149 C139 1.268 . S
O150 Sc134 2.105 . S
O150 C141 1.268 . S
O151 Sc132 2.105 1_655 S
O151 C137 1.268 . S
O152 Sc134 2.105 1_655 S
O152 C136 1.268 . S
O153 Sc133 2.105 1_655 S
O153 C138 1.268 . S
Sc154 O157 2.025 . S
Sc154 O164 2.105 . S
Sc154 O167 2.105 . S
Sc154 O170 2.105 . S
Sc154 O173 2.105 . S
Sc155 O157 2.025 . S
Sc155 O165 2.105 . S
Sc155 O169 2.105 . S
Sc155 O171 2.105 . S
Sc155 O175 2.105 . S
Sc156 O157 2.025 . S
Sc156 O166 2.105 . S
Sc156 O168 2.105 . S
Sc156 O172 2.105 . S
Sc156 O174 2.105 . S
O157 Sc154 2.025 . S
O157 Sc155 2.025 . S
O157 Sc156 2.025 . S
C158 O164 1.268 . S
C158 O174 1.268 . S
C159 O165 1.268 . S
C159 O173 1.268 . S
C160 O166 1.268 . S
C160 O175 1.268 . S
C161 O167 1.268 . S
C161 O171 1.268 . S
C162 O168 1.268 . S
C162 O170 1.268 . S
C163 O169 1.268 . S
C163 O172 1.268 . S
O164 Sc154 2.105 . S
O164 C158 1.268 . S
O165 Sc155 2.105 . S
O165 C159 1.268 . S
O166 Sc156 2.105 . S
O166 C160 1.268 . S
O167 Sc154 2.105 . S
O167 C161 1.268 . S
O168 Sc156 2.105 . S
O168 C162 1.268 . S
O169 Sc155 2.105 . S
O169 C163 1.268 . S
O170 Sc154 2.105 . S
O170 C162 1.268 . S
O171 Sc155 2.105 . S
O171 C161 1.268 . S
O172 Sc156 2.105 . S
O172 C163 1.268 . S
O173 Sc154 2.105 . S
O173 C159 1.268 . S
O174 Sc156 2.105 . S
O174 C158 1.268 . S
O175 Sc155 2.105 . S
O175 C160 1.268 . S
Sc176 O179 2.025 . S
Sc176 O186 2.105 1_545 S
Sc176 O189 2.105 . S
Sc176 O192 2.105 . S
Sc176 O195 2.105 1_545 S
Sc177 O179 2.025 . S
Sc177 O187 2.105 1_545 S
Sc177 O191 2.105 . S
Sc177 O193 2.105 . S
Sc177 O197 2.105 1_545 S
Sc178 O179 2.025 . S
Sc178 O188 2.105 1_545 S
Sc178 O190 2.105 . S
Sc178 O194 2.105 . S
Sc178 O196 2.105 1_545 S
O179 Sc176 2.025 . S
O179 Sc177 2.025 . S
O179 Sc178 2.025 . S
C180 O186 1.268 . S
C180 O196 1.268 . S
C181 O187 1.268 . S
C181 O195 1.268 . S
C182 O188 1.268 . S
C182 O197 1.268 . S
C183 O189 1.268 . S
C183 O193 1.268 . S
C184 O190 1.268 . S
C184 O192 1.268 . S
C185 O191 1.268 . S
C185 O194 1.268 . S
O186 Sc176 2.105 1_565 S
O186 C180 1.268 . S
O187 Sc177 2.105 1_565 S
O187 C181 1.268 . S
O188 Sc178 2.105 1_565 S
O188 C182 1.268 . S
O189 Sc176 2.105 . S
O189 C183 1.268 . S
O190 Sc178 2.105 . S
O190 C184 1.268 . S
O191 Sc177 2.105 . S
O191 C185 1.268 . S
O192 Sc176 2.105 . S
O192 C184 1.268 . S
O193 Sc177 2.105 . S
O193 C183 1.268 . S
O194 Sc178 2.105 . S
O194 C185 1.268 . S
O195 Sc176 2.105 1_565 S
O195 C181 1.268 . S
O196 Sc178 2.105 1_565 S
O196 C180 1.268 . S
O197 Sc177 2.105 1_565 S
O197 C182 1.268 . S
Sc198 O201 2.025 . S
Sc198 O208 2.105 . S
Sc198 O211 2.105 . S
Sc198 O214 2.105 . S
Sc198 O217 2.105 . S
Sc199 O201 2.025 . S
Sc199 O209 2.105 . S
Sc199 O213 2.105 . S
Sc199 O215 2.105 . S
Sc199 O219 2.105 . S
Sc200 O201 2.025 . S
Sc200 O210 2.105 . S
Sc200 O212 2.105 . S
Sc200 O216 2.105 . S
Sc200 O218 2.105 . S
O201 Sc198 2.025 . S
O201 Sc199 2.025 . S
O201 Sc200 2.025 . S
C202 O208 1.268 . S
C202 O218 1.268 . S
C203 O209 1.268 . S
C203 O217 1.268 . S
C204 O210 1.268 . S
C204 O219 1.268 . S
C205 O211 1.268 . S
C205 O215 1.268 . S
C206 O212 1.268 . S
C206 O214 1.268 . S
C207 O213 1.268 . S
C207 O216 1.268 . S
O208 Sc198 2.105 . S
O208 C202 1.268 . S
O209 Sc199 2.105 . S
O209 C203 1.268 . S
O210 Sc200 2.105 . S
O210 C204 1.268 . S
O211 Sc198 2.105 . S
O211 C205 1.268 . S
O212 Sc200 2.105 . S
O212 C206 1.268 . S
O213 Sc199 2.105 . S
O213 C207 1.268 . S
O214 Sc198 2.105 . S
O214 C206 1.268 . S
O215 Sc199 2.105 . S
O215 C205 1.268 . S
O216 Sc200 2.105 . S
O216 C207 1.268 . S
O217 Sc198 2.105 . S
O217 C203 1.268 . S
O218 Sc200 2.105 . S
O218 C202 1.268 . S
O219 Sc199 2.105 . S
O219 C204 1.268 . S
Sc220 O223 2.025 . S
Sc220 O230 2.105 1_545 S
Sc220 O233 2.105 . S
Sc220 O236 2.105 . S
Sc220 O239 2.105 1_545 S
Sc221 O223 2.025 . S
Sc221 O231 2.105 1_545 S
Sc221 O235 2.105 . S
Sc221 O237 2.105 . S
Sc221 O241 2.105 1_545 S
Sc222 O223 2.025 . S
Sc222 O232 2.105 1_545 S
Sc222 O234 2.105 . S
Sc222 O238 2.105 . S
Sc222 O240 2.105 1_545 S
O223 Sc220 2.025 . S
O223 Sc221 2.025 . S
O223 Sc222 2.025 . S
C224 O230 1.268 . S
C224 O240 1.268 . S
C225 O231 1.268 . S
C225 O239 1.268 . S
C226 O232 1.268 . S
C226 O241 1.268 . S
C227 O233 1.268 . S
C227 O237 1.268 . S
C228 O234 1.268 . S
C228 O236 1.268 . S
C229 O235 1.268 . S
C229 O238 1.268 . S
O230 Sc220 2.105 1_565 S
O230 C224 1.268 . S
O231 Sc221 2.105 1_565 S
O231 C225 1.268 . S
O232 Sc222 2.105 1_565 S
O232 C226 1.268 . S
O233 Sc220 2.105 . S
O233 C227 1.268 . S
O234 Sc222 2.105 . S
O234 C228 1.268 . S
O235 Sc221 2.105 . S
O235 C229 1.268 . S
O236 Sc220 2.105 . S
O236 C228 1.268 . S
O237 Sc221 2.105 . S
O237 C227 1.268 . S
O238 Sc222 2.105 . S
O238 C229 1.268 . S
O239 Sc220 2.105 1_565 S
O239 C225 1.268 . S
O240 Sc222 2.105 1_565 S
O240 C224 1.268 . S
O241 Sc221 2.105 1_565 S
O241 C226 1.268 . S
Sc242 O245 2.025 . S
Sc242 O252 2.105 . S
Sc242 O255 2.105 . S
Sc242 O258 2.105 . S
Sc242 O261 2.105 . S
Sc243 O245 2.025 . S
Sc243 O253 2.105 . S
Sc243 O257 2.105 . S
Sc243 O259 2.105 . S
Sc243 O263 2.105 . S
Sc244 O245 2.025 . S
Sc244 O254 2.105 . S
Sc244 O256 2.105 . S
Sc244 O260 2.105 . S
Sc244 O262 2.105 . S
O245 Sc242 2.025 . S
O245 Sc243 2.025 . S
O245 Sc244 2.025 . S
C246 O252 1.268 . S
C246 O262 1.268 . S
C247 O253 1.268 . S
C247 O261 1.268 . S
C248 O254 1.268 . S
C248 O263 1.268 . S
C249 O255 1.268 . S
C249 O259 1.268 . S
C250 O256 1.268 . S
C250 O258 1.268 . S
C251 O257 1.268 . S
C251 O260 1.268 . S
O252 Sc242 2.105 . S
O252 C246 1.268 . S
O253 Sc243 2.105 . S
O253 C247 1.268 . S
O254 Sc244 2.105 . S
O254 C248 1.268 . S
O255 Sc242 2.105 . S
O255 C249 1.268 . S
O256 Sc244 2.105 . S
O256 C250 1.268 . S
O257 Sc243 2.105 . S
O257 C251 1.268 . S
O258 Sc242 2.105 . S
O258 C250 1.268 . S
O259 Sc243 2.105 . S
O259 C249 1.268 . S
O260 Sc244 2.105 . S
O260 C251 1.268 . S
O261 Sc242 2.105 . S
O261 C247 1.268 . S
O262 Sc244 2.105 . S
O262 C246 1.268 . S
O263 Sc243 2.105 . S
O263 C248 1.268 . S
Sc264 O267 2.025 . S
Sc264 O274 2.105 1_545 S
Sc264 O277 2.105 . S
Sc264 O280 2.105 . S
Sc264 O283 2.105 1_545 S
Sc265 O267 2.025 . S
Sc265 O275 2.105 1_545 S
Sc265 O279 2.105 . S
Sc265 O281 2.105 . S
Sc265 O285 2.105 1_545 S
Sc266 O267 2.025 . S
Sc266 O276 2.105 1_545 S
Sc266 O278 2.105 . S
Sc266 O282 2.105 . S
Sc266 O284 2.105 1_545 S
O267 Sc264 2.025 . S
O267 Sc265 2.025 . S
O267 Sc266 2.025 . S
C268 O274 1.268 . S
C268 O284 1.268 . S
C269 O275 1.268 . S
C269 O283 1.268 . S
C270 O276 1.268 . S
C270 O285 1.268 . S
C271 O277 1.268 . S
C271 O281 1.268 . S
C272 O278 1.268 . S
C272 O280 1.268 . S
C273 O279 1.268 . S
C273 O282 1.268 . S
O274 Sc264 2.105 1_565 S
O274 C268 1.268 . S
O275 Sc265 2.105 1_565 S
O275 C269 1.268 . S
O276 Sc266 2.105 1_565 S
O276 C270 1.268 . S
O277 Sc264 2.105 . S
O277 C271 1.268 . S
O278 Sc266 2.105 . S
O278 C272 1.268 . S
O279 Sc265 2.105 . S
O279 C273 1.268 . S
O280 Sc264 2.105 . S
O280 C272 1.268 . S
O281 Sc265 2.105 . S
O281 C271 1.268 . S
O282 Sc266 2.105 . S
O282 C273 1.268 . S
O283 Sc264 2.105 1_565 S
O283 C269 1.268 . S
O284 Sc266 2.105 1_565 S
O284 C268 1.268 . S
O285 Sc265 2.105 1_565 S
O285 C270 1.268 . S
Sc286 O289 2.025 . S
Sc286 O296 2.105 . S
Sc286 O299 2.105 . S
Sc286 O302 2.105 . S
Sc286 O305 2.105 . S
Sc287 O289 2.025 . S
Sc287 O297 2.105 . S
Sc287 O301 2.105 . S
Sc287 O303 2.105 . S
Sc287 O307 2.105 . S
Sc288 O289 2.025 . S
Sc288 O298 2.105 . S
Sc288 O300 2.105 . S
Sc288 O304 2.105 . S
Sc288 O306 2.105 . S
O289 Sc286 2.025 . S
O289 Sc287 2.025 . S
O289 Sc288 2.025 . S
C290 O296 1.268 . S
C290 O306 1.268 . S
C291 O297 1.268 . S
C291 O305 1.268 . S
C292 O298 1.268 . S
C292 O307 1.268 . S
C293 O299 1.268 . S
C293 O303 1.268 . S
C294 O300 1.268 . S
C294 O302 1.268 . S
C295 O301 1.268 . S
C295 O304 1.268 . S
O296 Sc286 2.105 . S
O296 C290 1.268 . S
O297 Sc287 2.105 . S
O297 C291 1.268 . S
O298 Sc288 2.105 . S
O298 C292 1.268 . S
O299 Sc286 2.105 . S
O299 C293 1.268 . S
O300 Sc288 2.105 . S
O300 C294 1.268 . S
O301 Sc287 2.105 . S
O301 C295 1.268 . S
O302 Sc286 2.105 . S
O302 C294 1.268 . S
O303 Sc287 2.105 . S
O303 C293 1.268 . S
O304 Sc288 2.105 . S
O304 C295 1.268 . S
O305 Sc286 2.105 . S
O305 C291 1.268 . S
O306 Sc288 2.105 . S
O306 C290 1.268 . S
O307 Sc287 2.105 . S
O307 C292 1.268 . S
Sc308 O311 2.025 . S
Sc308 O318 2.105 1_545 S
Sc308 O321 2.105 . S
Sc308 O324 2.105 . S
Sc308 O327 2.105 1_545 S
Sc309 O311 2.025 . S
Sc309 O319 2.105 1_545 S
Sc309 O323 2.105 . S
Sc309 O325 2.105 . S
Sc309 O329 2.105 1_545 S
Sc310 O311 2.025 . S
Sc310 O320 2.105 1_545 S
Sc310 O322 2.105 . S
Sc310 O326 2.105 . S
Sc310 O328 2.105 1_545 S
O311 Sc308 2.025 . S
O311 Sc309 2.025 . S
O311 Sc310 2.025 . S
C312 O318 1.268 . S
C312 O328 1.268 . S
C313 O319 1.268 . S
C313 O327 1.268 . S
C314 O320 1.268 . S
C314 O329 1.268 . S
C315 O321 1.268 . S
C315 O325 1.268 . S
C316 O322 1.268 . S
C316 O324 1.268 . S
C317 O323 1.268 . S
C317 O326 1.268 . S
O318 Sc308 2.105 1_565 S
O318 C312 1.268 . S
O319 Sc309 2.105 1_565 S
O319 C313 1.268 . S
O320 Sc310 2.105 1_565 S
O320 C314 1.268 . S
O321 Sc308 2.105 . S
O321 C315 1.268 . S
O322 Sc310 2.105 . S
O322 C316 1.268 . S
O323 Sc309 2.105 . S
O323 C317 1.268 . S
O324 Sc308 2.105 . S
O324 C316 1.268 . S
O325 Sc309 2.105 . S
O325 C315 1.268 . S
O326 Sc310 2.105 . S
O326 C317 1.268 . S
O327 Sc308 2.105 1_565 S
O327 C313 1.268 . S
O328 Sc310 2.105 1_565 S
O328 C312 1.268 . S
O329 Sc309 2.105 1_565 S
O329 C314 1.268 . S
Sc330 O333 2.025 . S
Sc330 O340 2.105 . S
Sc330 O343 2.105 . S
Sc330 O346 2.105 . S
Sc330 O349 2.105 . S
Sc331 O333 2.025 . S
Sc331 O341 2.105 . S
Sc331 O345 2.105 . S
Sc331 O347 2.105 . S
Sc331 O351 2.105 . S
Sc332 O333 2.025 . S
Sc332 O342 2.105 . S
Sc332 O344 2.105 . S
Sc332 O348 2.105 . S
Sc332 O350 2.105 . S
O333 Sc330 2.025 . S
O333 Sc331 2.025 . S
O333 Sc332 2.025 . S
C334 O340 1.268 . S
C334 O350 1.268 . S
C335 O341 1.268 . S
C335 O349 1.268 . S
C336 O342 1.268 . S
C336 O351 1.268 . S
C337 O343 1.268 . S
C337 O347 1.268 . S
C338 O344 1.268 . S
C338 O346 1.268 . S
C339 O345 1.268 . S
C339 O348 1.268 . S
O340 Sc330 2.105 . S
O340 C334 1.268 . S
O341 Sc331 2.105 . S
O341 C335 1.268 . S
O342 Sc332 2.105 . S
O342 C336 1.268 . S
O343 Sc330 2.105 . S
O343 C337 1.268 . S
O344 Sc332 2.105 . S
O344 C338 1.268 . S
O345 Sc331 2.105 . S
O345 C339 1.268 . S
O346 Sc330 2.105 . S
O346 C338 1.268 . S
O347 Sc331 2.105 . S
O347 C337 1.268 . S
O348 Sc332 2.105 . S
O348 C339 1.268 . S
O349 Sc330 2.105 . S
O349 C335 1.268 . S
O350 Sc332 2.105 . S
O350 C334 1.268 . S
O351 Sc331 2.105 . S
O351 C336 1.268 . S
Sc352 O355 2.025 . S
Sc352 O362 2.105 1_554 S
Sc352 O365 2.105 . S
Sc352 O368 2.105 . S
Sc352 O371 2.105 1_554 S
Sc353 O355 2.025 . S
Sc353 O363 2.105 1_554 S
Sc353 O367 2.105 . S
Sc353 O369 2.105 . S
Sc353 O373 2.105 1_554 S
Sc354 O355 2.025 . S
Sc354 O364 2.105 1_554 S
Sc354 O366 2.105 . S
Sc354 O370 2.105 . S
Sc354 O372 2.105 1_554 S
O355 Sc352 2.025 . S
O355 Sc353 2.025 . S
O355 Sc354 2.025 . S
C356 O362 1.268 . S
C356 O372 1.268 . S
C357 O363 1.268 . S
C357 O371 1.268 . S
C358 O364 1.268 . S
C358 O373 1.268 . S
C359 O365 1.268 . S
C359 O369 1.268 . S
C360 O366 1.268 . S
C360 O368 1.268 . S
C361 O367 1.268 . S
C361 O370 1.268 . S
O362 Sc352 2.105 1_556 S
O362 C356 1.268 . S
O363 Sc353 2.105 1_556 S
O363 C357 1.268 . S
O364 Sc354 2.105 1_556 S
O364 C358 1.268 . S
O365 Sc352 2.105 . S
O365 C359 1.268 . S
O366 Sc354 2.105 . S
O366 C360 1.268 . S
O367 Sc353 2.105 . S
O367 C361 1.268 . S
O368 Sc352 2.105 . S
O368 C360 1.268 . S
O369 Sc353 2.105 . S
O369 C359 1.268 . S
O370 Sc354 2.105 . S
O370 C361 1.268 . S
O371 Sc352 2.105 1_556 S
O371 C357 1.268 . S
O372 Sc354 2.105 1_556 S
O372 C356 1.268 . S
O373 Sc353 2.105 1_556 S
O373 C358 1.268 . S
Sc374 O377 2.025 . S
Sc374 O384 2.105 1_554 S
Sc374 O387 2.105 . S
Sc374 O390 2.105 . S
Sc374 O393 2.105 1_554 S
Sc375 O377 2.025 . S
Sc375 O385 2.105 1_554 S
Sc375 O389 2.105 . S
Sc375 O391 2.105 . S
Sc375 O395 2.105 1_554 S
Sc376 O377 2.025 . S
Sc376 O386 2.105 1_554 S
Sc376 O388 2.105 . S
Sc376 O392 2.105 . S
Sc376 O394 2.105 1_554 S
O377 Sc374 2.025 . S
O377 Sc375 2.025 . S
O377 Sc376 2.025 . S
C378 O384 1.268 . S
C378 O394 1.268 . S
C379 O385 1.268 . S
C379 O393 1.268 . S
C380 O386 1.268 . S
C380 O395 1.268 . S
C381 O387 1.268 . S
C381 O391 1.268 . S
C382 O388 1.268 . S
C382 O390 1.268 . S
C383 O389 1.268 . S
C383 O392 1.268 . S
O384 Sc374 2.105 1_556 S
O384 C378 1.268 . S
O385 Sc375 2.105 1_556 S
O385 C379 1.268 . S
O386 Sc376 2.105 1_556 S
O386 C380 1.268 . S
O387 Sc374 2.105 . S
O387 C381 1.268 . S
O388 Sc376 2.105 . S
O388 C382 1.268 . S
O389 Sc375 2.105 . S
O389 C383 1.268 . S
O390 Sc374 2.105 . S
O390 C382 1.268 . S
O391 Sc375 2.105 . S
O391 C381 1.268 . S
O392 Sc376 2.105 . S
O392 C383 1.268 . S
O393 Sc374 2.105 1_556 S
O393 C379 1.268 . S
O394 Sc376 2.105 1_556 S
O394 C378 1.268 . S
O395 Sc375 2.105 1_556 S
O395 C380 1.268 . S
Sc396 O399 2.025 . S
Sc396 O406 2.105 . S
Sc396 O409 2.105 . S
Sc396 O412 2.105 . S
Sc396 O415 2.105 . S
Sc397 O399 2.025 . S
Sc397 O407 2.105 . S
Sc397 O411 2.105 . S
Sc397 O413 2.105 . S
Sc397 O417 2.105 . S
Sc398 O399 2.025 . S
Sc398 O408 2.105 . S
Sc398 O410 2.105 . S
Sc398 O414 2.105 . S
Sc398 O416 2.105 . S
O399 Sc396 2.025 . S
O399 Sc397 2.025 . S
O399 Sc398 2.025 . S
C400 O406 1.268 . S
C400 O416 1.268 . S
C401 O407 1.268 . S
C401 O415 1.268 . S
C402 O408 1.268 . S
C402 O417 1.268 . S
C403 O409 1.268 . S
C403 O413 1.268 . S
C404 O410 1.268 . S
C404 O412 1.268 . S
C405 O411 1.268 . S
C405 O414 1.268 . S
O406 Sc396 2.105 . S
O406 C400 1.268 . S
O407 Sc397 2.105 . S
O407 C401 1.268 . S
O408 Sc398 2.105 . S
O408 C402 1.268 . S
O409 Sc396 2.105 . S
O409 C403 1.268 . S
O410 Sc398 2.105 . S
O410 C404 1.268 . S
O411 Sc397 2.105 . S
O411 C405 1.268 . S
O412 Sc396 2.105 . S
O412 C404 1.268 . S
O413 Sc397 2.105 . S
O413 C403 1.268 . S
O414 Sc398 2.105 . S
O414 C405 1.268 . S
O415 Sc396 2.105 . S
O415 C401 1.268 . S
O416 Sc398 2.105 . S
O416 C400 1.268 . S
O417 Sc397 2.105 . S
O417 C402 1.268 . S
Sc418 O421 2.025 . S
Sc418 O428 2.105 1_554 S
Sc418 O431 2.105 . S
Sc418 O434 2.105 . S
Sc418 O437 2.105 1_554 S
Sc419 O421 2.025 . S
Sc419 O429 2.105 1_554 S
Sc419 O433 2.105 . S
Sc419 O435 2.105 . S
Sc419 O439 2.105 1_554 S
Sc420 O421 2.025 . S
Sc420 O430 2.105 1_554 S
Sc420 O432 2.105 . S
Sc420 O436 2.105 . S
Sc420 O438 2.105 1_554 S
O421 Sc418 2.025 . S
O421 Sc419 2.025 . S
O421 Sc420 2.025 . S
C422 O428 1.268 . S
C422 O438 1.268 . S
C423 O429 1.268 . S
C423 O437 1.268 . S
C424 O430 1.268 . S
C424 O439 1.268 . S
C425 O431 1.268 . S
C425 O435 1.268 . S
C426 O432 1.268 . S
C426 O434 1.268 . S
C427 O433 1.268 . S
C427 O436 1.268 . S
O428 Sc418 2.105 1_556 S
O428 C422 1.268 . S
O429 Sc419 2.105 1_556 S
O429 C423 1.268 . S
O430 Sc420 2.105 1_556 S
O430 C424 1.268 . S
O431 Sc418 2.105 . S
O431 C425 1.268 . S
O432 Sc420 2.105 . S
O432 C426 1.268 . S
O433 Sc419 2.105 . S
O433 C427 1.268 . S
O434 Sc418 2.105 . S
O434 C426 1.268 . S
O435 Sc419 2.105 . S
O435 C425 1.268 . S
O436 Sc420 2.105 . S
O436 C427 1.268 . S
O437 Sc418 2.105 1_556 S
O437 C423 1.268 . S
O438 Sc420 2.105 1_556 S
O438 C422 1.268 . S
O439 Sc419 2.105 1_556 S
O439 C424 1.268 . S
Sc440 O443 2.025 . S
Sc440 O450 2.105 . S
Sc440 O453 2.105 . S
Sc440 O456 2.105 . S
Sc440 O459 2.105 . S
Sc441 O443 2.025 . S
Sc441 O451 2.105 . S
Sc441 O455 2.105 . S
Sc441 O457 2.105 . S
Sc441 O461 2.105 . S
Sc442 O443 2.025 . S
Sc442 O452 2.105 . S
Sc442 O454 2.105 . S
Sc442 O458 2.105 . S
Sc442 O460 2.105 . S
O443 Sc440 2.025 . S
O443 Sc441 2.025 . S
O443 Sc442 2.025 . S
C444 O450 1.268 . S
C444 O460 1.268 . S
C445 O451 1.268 . S
C445 O459 1.268 . S
C446 O452 1.268 . S
C446 O461 1.268 . S
C447 O453 1.268 . S
C447 O457 1.268 . S
C448 O454 1.268 . S
C448 O456 1.268 . S
C449 O455 1.268 . S
C449 O458 1.268 . S
O450 Sc440 2.105 . S
O450 C444 1.268 . S
O451 Sc441 2.105 . S
O451 C445 1.268 . S
O452 Sc442 2.105 . S
O452 C446 1.268 . S
O453 Sc440 2.105 . S
O453 C447 1.268 . S
O454 Sc442 2.105 . S
O454 C448 1.268 . S
O455 Sc441 2.105 . S
O455 C449 1.268 . S
O456 Sc440 2.105 . S
O456 C448 1.268 . S
O457 Sc441 2.105 . S
O457 C447 1.268 . S
O458 Sc442 2.105 . S
O458 C449 1.268 . S
O459 Sc440 2.105 . S
O459 C445 1.268 . S
O460 Sc442 2.105 . S
O460 C444 1.268 . S
O461 Sc441 2.105 . S
O461 C446 1.268 . S
Sc462 O465 2.025 . S
Sc462 O472 2.105 1_554 S
Sc462 O475 2.105 . S
Sc462 O478 2.105 . S
Sc462 O481 2.105 1_554 S
Sc463 O465 2.025 . S
Sc463 O473 2.105 1_554 S
Sc463 O477 2.105 . S
Sc463 O479 2.105 . S
Sc463 O483 2.105 1_554 S
Sc464 O465 2.025 . S
Sc464 O474 2.105 1_554 S
Sc464 O476 2.105 . S
Sc464 O480 2.105 . S
Sc464 O482 2.105 1_554 S
O465 Sc462 2.025 . S
O465 Sc463 2.025 . S
O465 Sc464 2.025 . S
C466 O472 1.268 . S
C466 O482 1.268 . S
C467 O473 1.268 . S
C467 O481 1.268 . S
C468 O474 1.268 . S
C468 O483 1.268 . S
C469 O475 1.268 . S
C469 O479 1.268 . S
C470 O476 1.268 . S
C470 O478 1.268 . S
C471 O477 1.268 . S
C471 O480 1.268 . S
O472 Sc462 2.105 1_556 S
O472 C466 1.268 . S
O473 Sc463 2.105 1_556 S
O473 C467 1.268 . S
O474 Sc464 2.105 1_556 S
O474 C468 1.268 . S
O475 Sc462 2.105 . S
O475 C469 1.268 . S
O476 Sc464 2.105 . S
O476 C470 1.268 . S
O477 Sc463 2.105 . S
O477 C471 1.268 . S
O478 Sc462 2.105 . S
O478 C470 1.268 . S
O479 Sc463 2.105 . S
O479 C469 1.268 . S
O480 Sc464 2.105 . S
O480 C471 1.268 . S
O481 Sc462 2.105 1_556 S
O481 C467 1.268 . S
O482 Sc464 2.105 1_556 S
O482 C466 1.268 . S
O483 Sc463 2.105 1_556 S
O483 C468 1.268 . S
Sc484 O487 2.025 . S
Sc484 O494 2.105 . S
Sc484 O497 2.105 . S
Sc484 O500 2.105 . S
Sc484 O503 2.105 . S
Sc485 O487 2.025 . S
Sc485 O495 2.105 . S
Sc485 O499 2.105 . S
Sc485 O501 2.105 . S
Sc485 O505 2.105 . S
Sc486 O487 2.025 . S
Sc486 O496 2.105 . S
Sc486 O498 2.105 . S
Sc486 O502 2.105 . S
Sc486 O504 2.105 . S
O487 Sc484 2.025 . S
O487 Sc485 2.025 . S
O487 Sc486 2.025 . S
C488 O494 1.268 . S
C488 O504 1.268 . S
C489 O495 1.268 . S
C489 O503 1.268 . S
C490 O496 1.268 . S
C490 O505 1.268 . S
C491 O497 1.268 . S
C491 O501 1.268 . S
C492 O498 1.268 . S
C492 O500 1.268 . S
C493 O499 1.268 . S
C493 O502 1.268 . S
O494 Sc484 2.105 . S
O494 C488 1.268 . S
O495 Sc485 2.105 . S
O495 C489 1.268 . S
O496 Sc486 2.105 . S
O496 C490 1.268 . S
O497 Sc484 2.105 . S
O497 C491 1.268 . S
O498 Sc486 2.105 . S
O498 C492 1.268 . S
O499 Sc485 2.105 . S
O499 C493 1.268 . S
O500 Sc484 2.105 . S
O500 C492 1.268 . S
O501 Sc485 2.105 . S
O501 C491 1.268 . S
O502 Sc486 2.105 . S
O502 C493 1.268 . S
O503 Sc484 2.105 . S
O503 C489 1.268 . S
O504 Sc486 2.105 . S
O504 C488 1.268 . S
O505 Sc485 2.105 . S
O505 C490 1.268 . S
Sc506 O509 2.025 . S
Sc506 O516 2.105 . S
Sc506 O519 2.105 . S
Sc506 O522 2.105 . S
Sc506 O525 2.105 . S
Sc507 O509 2.025 . S
Sc507 O517 2.105 . S
Sc507 O521 2.105 . S
Sc507 O523 2.105 . S
Sc507 O527 2.105 . S
Sc508 O509 2.025 . S
Sc508 O518 2.105 . S
Sc508 O520 2.105 . S
Sc508 O524 2.105 . S
Sc508 O526 2.105 . S
O509 Sc506 2.025 . S
O509 Sc507 2.025 . S
O509 Sc508 2.025 . S
C510 O516 1.268 . S
C510 O526 1.268 . S
C511 O517 1.268 . S
C511 O525 1.268 . S
C512 O518 1.268 . S
C512 O527 1.268 . S
C513 O519 1.268 . S
C513 O523 1.268 . S
C514 O520 1.268 . S
C514 O522 1.268 . S
C515 O521 1.268 . S
C515 O524 1.268 . S
O516 Sc506 2.105 . S
O516 C510 1.268 . S
O517 Sc507 2.105 . S
O517 C511 1.268 . S
O518 Sc508 2.105 . S
O518 C512 1.268 . S
O519 Sc506 2.105 . S
O519 C513 1.268 . S
O520 Sc508 2.105 . S
O520 C514 1.268 . S
O521 Sc507 2.105 . S
O521 C515 1.268 . S
O522 Sc506 2.105 . S
O522 C514 1.268 . S
O523 Sc507 2.105 . S
O523 C513 1.268 . S
O524 Sc508 2.105 . S
O524 C515 1.268 . S
O525 Sc506 2.105 . S
O525 C511 1.268 . S
O526 Sc508 2.105 . S
O526 C510 1.268 . S
O527 Sc507 2.105 . S
O527 C512 1.268 . S
H528 C536 0.950 . S
H529 C541 0.950 . S
H530 C538 0.950 . S
H531 C540 0.950 . S
H532 C542 0.950 . S
H533 C544 0.950 . S
H534 C546 0.950 . S
H535 C547 0.950 . S
C536 H528 0.950 . S
C536 C537 1.386 . S
C536 C538 1.391 . S
C537 C536 1.386 . S
C537 C541 1.393 . S
C538 H530 0.950 . S
C538 C536 1.391 . S
C538 C539 1.400 . S
C539 C538 1.400 . S
C539 C540 1.398 . S
C539 C545 1.491 . S
C540 H531 0.950 . S
C540 C539 1.398 . S
C540 C541 1.391 . S
C541 H529 0.950 . S
C541 C537 1.393 . S
C541 C540 1.391 . S
C542 H532 0.950 . S
C542 C543 1.386 . S
C542 C544 1.391 . S
C543 C542 1.386 . S
C543 C547 1.393 . S
C544 H533 0.950 . S
C544 C542 1.391 . S
C544 C545 1.400 . S
C545 C539 1.491 . S
C545 C544 1.400 . S
C545 C546 1.398 . S
C546 H534 0.950 . S
C546 C545 1.398 . S
C546 C547 1.391 . S
C547 H535 0.950 . S
C547 C543 1.393 . S
C547 C546 1.391 . S
H548 C556 0.950 . S
H549 C561 0.950 . S
H550 C558 0.950 . S
H551 C560 0.950 . S
H552 C562 0.950 . S
H553 C564 0.950 . S
H554 C566 0.950 . S
H555 C567 0.950 . S
C556 H548 0.950 . S
C556 C557 1.386 . S
C556 C558 1.391 . S
C557 C556 1.386 . S
C557 C561 1.393 . S
C558 H550 0.950 . S
C558 C556 1.391 . S
C558 C559 1.400 . S
C559 C558 1.400 . S
C559 C560 1.398 . S
C559 C565 1.491 . S
C560 H551 0.950 . S
C560 C559 1.398 . S
C560 C561 1.391 . S
C561 H549 0.950 . S
C561 C557 1.393 . S
C561 C560 1.391 . S
C562 H552 0.950 . S
C562 C563 1.386 . S
C562 C564 1.391 . S
C563 C562 1.386 . S
C563 C567 1.393 . S
C564 H553 0.950 . S
C564 C562 1.391 . S
C564 C565 1.400 . S
C565 C559 1.491 . S
C565 C564 1.400 . S
C565 C566 1.398 . S
C566 H554 0.950 . S
C566 C565 1.398 . S
C566 C567 1.391 . S
C567 H555 0.950 . S
C567 C563 1.393 . S
C567 C566 1.391 . S
H568 C576 0.950 . S
H569 C581 0.950 . S
H570 C578 0.950 . S
H571 C580 0.950 . S
H572 C582 0.950 . S
H573 C584 0.950 . S
H574 C586 0.950 . S
H575 C587 0.950 . S
C576 H568 0.950 . S
C576 C577 1.386 . S
C576 C578 1.391 . S
C577 C576 1.386 . S
C577 C581 1.393 . S
C578 H570 0.950 . S
C578 C576 1.391 . S
C578 C579 1.400 . S
C579 C578 1.400 . S
C579 C580 1.398 . S
C579 C585 1.491 . S
C580 H571 0.950 . S
C580 C579 1.398 . S
C580 C581 1.391 . S
C581 H569 0.950 . S
C581 C577 1.393 . S
C581 C580 1.391 . S
C582 H572 0.950 . S
C582 C583 1.386 . S
C582 C584 1.391 . S
C583 C582 1.386 . S
C583 C587 1.393 . S
C584 H573 0.950 . S
C584 C582 1.391 . S
C584 C585 1.400 . S
C585 C579 1.491 . S
C585 C584 1.400 . S
C585 C586 1.398 . S
C586 H574 0.950 . S
C586 C585 1.398 . S
C586 C587 1.391 . S
C587 H575 0.950 . S
C587 C583 1.393 . S
C587 C586 1.391 . S
H588 C596 0.950 . S
H589 C601 0.950 . S
H590 C598 0.950 . S
H591 C600 0.950 . S
H592 C602 0.950 . S
H593 C604 0.950 . S
H594 C606 0.950 . S
H595 C607 0.950 . S
C596 H588 0.950 . S
C596 C597 1.386 . S
C596 C598 1.391 . S
C597 C596 1.386 . S
C597 C601 1.393 . S
C598 H590 0.950 . S
C598 C596 1.391 . S
C598 C599 1.400 . S
C599 C598 1.400 . S
C599 C600 1.398 . S
C599 C605 1.491 . S
C600 H591 0.950 . S
C600 C599 1.398 . S
C600 C601 1.391 . S
C601 H589 0.950 . S
C601 C597 1.393 . S
C601 C600 1.391 . S
C602 H592 0.950 . S
C602 C603 1.386 . S
C602 C604 1.391 . S
C603 C602 1.386 . S
C603 C607 1.393 . S
C604 H593 0.950 . S
C604 C602 1.391 . S
C604 C605 1.400 . S
C605 C599 1.491 . S
C605 C604 1.400 . S
C605 C606 1.398 . S
C606 H594 0.950 . S
C606 C605 1.398 . S
C606 C607 1.391 . S
C607 H595 0.950 . S
C607 C603 1.393 . S
C607 C606 1.391 . S
H608 C616 0.950 . S
H609 C621 0.950 . S
H610 C618 0.950 . S
H611 C620 0.950 . S
H612 C622 0.950 . S
H613 C624 0.950 . S
H614 C626 0.950 . S
H615 C627 0.950 . S
C616 H608 0.950 . S
C616 C617 1.386 . S
C616 C618 1.391 . S
C617 C616 1.386 . S
C617 C621 1.393 . S
C618 H610 0.950 . S
C618 C616 1.391 . S
C618 C619 1.400 . S
C619 C618 1.400 . S
C619 C620 1.398 . S
C619 C625 1.491 . S
C620 H611 0.950 . S
C620 C619 1.398 . S
C620 C621 1.391 . S
C621 H609 0.950 . S
C621 C617 1.393 . S
C621 C620 1.391 . S
C622 H612 0.950 . S
C622 C623 1.386 . S
C622 C624 1.391 . S
C623 C622 1.386 . S
C623 C627 1.393 . S
C624 H613 0.950 . S
C624 C622 1.391 . S
C624 C625 1.400 . S
C625 C619 1.491 . S
C625 C624 1.400 . S
C625 C626 1.398 . S
C626 H614 0.950 . S
C626 C625 1.398 . S
C626 C627 1.391 . S
C627 H615 0.950 . S
C627 C623 1.393 . S
C627 C626 1.391 . S
H628 C636 0.950 . S
H629 C641 0.950 . S
H630 C638 0.950 . S
H631 C640 0.950 . S
H632 C642 0.950 . S
H633 C644 0.950 . S
H634 C646 0.950 . S
H635 C647 0.950 . S
C636 H628 0.950 . S
C636 C637 1.386 . S
C636 C638 1.391 . S
C637 C636 1.386 . S
C637 C641 1.393 . S
C638 H630 0.950 . S
C638 C636 1.391 . S
C638 C639 1.400 . S
C639 C638 1.400 . S
C639 C640 1.398 . S
C639 C645 1.491 . S
C640 H631 0.950 . S
C640 C639 1.398 . S
C640 C641 1.391 . S
C641 H629 0.950 . S
C641 C637 1.393 . S
C641 C640 1.391 . S
C642 H632 0.950 . S
C642 C643 1.386 . S
C642 C644 1.391 . S
C643 C642 1.386 . S
C643 C647 1.393 . S
C644 H633 0.950 . S
C644 C642 1.391 . S
C644 C645 1.400 . S
C645 C639 1.491 . S
C645 C644 1.400 . S
C645 C646 1.398 . S
C646 H634 0.950 . S
C646 C645 1.398 . S
C646 C647 1.391 . S
C647 H635 0.950 . S
C647 C643 1.393 . S
C647 C646 1.391 . S
H648 C656 0.950 . S
H649 C661 0.950 . S
H650 C658 0.950 . S
H651 C660 0.950 . S
H652 C662 0.950 . S
H653 C664 0.950 . S
H654 C666 0.950 . S
H655 C667 0.950 . S
C656 H648 0.950 . S
C656 C657 1.386 . S
C656 C658 1.391 . S
C657 C656 1.386 . S
C657 C661 1.393 . S
C658 H650 0.950 . S
C658 C656 1.391 . S
C658 C659 1.400 . S
C659 C658 1.400 . S
C659 C660 1.398 . S
C659 C665 1.491 . S
C660 H651 0.950 . S
C660 C659 1.398 . S
C660 C661 1.391 . S
C661 H649 0.950 . S
C661 C657 1.393 . S
C661 C660 1.391 . S
C662 H652 0.950 . S
C662 C663 1.386 . S
C662 C664 1.391 . S
C663 C662 1.386 . S
C663 C667 1.393 . S
C664 H653 0.950 . S
C664 C662 1.391 . S
C664 C665 1.400 . S
C665 C659 1.491 . S
C665 C664 1.400 . S
C665 C666 1.398 . S
C666 H654 0.950 . S
C666 C665 1.398 . S
C666 C667 1.391 . S
C667 H655 0.950 . S
C667 C663 1.393 . S
C667 C666 1.391 . S
H668 C676 0.950 . S
H669 C681 0.950 . S
H670 C678 0.950 . S
H671 C680 0.950 . S
H672 C682 0.950 . S
H673 C684 0.950 . S
H674 C686 0.950 . S
H675 C687 0.950 . S
C676 H668 0.950 . S
C676 C677 1.386 . S
C676 C678 1.391 . S
C677 C676 1.386 . S
C677 C681 1.393 . S
C678 H670 0.950 . S
C678 C676 1.391 . S
C678 C679 1.400 . S
C679 C678 1.400 . S
C679 C680 1.398 . S
C679 C685 1.491 . S
C680 H671 0.950 . S
C680 C679 1.398 . S
C680 C681 1.391 . S
C681 H669 0.950 . S
C681 C677 1.393 . S
C681 C680 1.391 . S
C682 H672 0.950 . S
C682 C683 1.386 . S
C682 C684 1.391 . S
C683 C682 1.386 . S
C683 C687 1.393 . S
C684 H673 0.950 . S
C684 C682 1.391 . S
C684 C685 1.400 . S
C685 C679 1.491 . S
C685 C684 1.400 . S
C685 C686 1.398 . S
C686 H674 0.950 . S
C686 C685 1.398 . S
C686 C687 1.391 . S
C687 H675 0.950 . S
C687 C683 1.393 . S
C687 C686 1.391 . S
H688 C696 0.950 . S
H689 C701 0.950 . S
H690 C698 0.950 . S
H691 C700 0.950 . S
H692 C702 0.950 . S
H693 C704 0.950 . S
H694 C706 0.950 . S
H695 C707 0.950 . S
C696 H688 0.950 . S
C696 C697 1.386 . S
C696 C698 1.391 . S
C697 C696 1.386 . S
C697 C701 1.393 . S
C698 H690 0.950 . S
C698 C696 1.391 . S
C698 C699 1.400 . S
C699 C698 1.400 . S
C699 C700 1.398 . S
C699 C705 1.491 . S
C700 H691 0.950 . S
C700 C699 1.398 . S
C700 C701 1.391 . S
C701 H689 0.950 . S
C701 C697 1.393 . S
C701 C700 1.391 . S
C702 H692 0.950 . S
C702 C703 1.386 . S
C702 C704 1.391 . S
C703 C702 1.386 . S
C703 C707 1.393 . S
C704 H693 0.950 . S
C704 C702 1.391 . S
C704 C705 1.400 . S
C705 C699 1.491 . S
C705 C704 1.400 . S
C705 C706 1.398 . S
C706 H694 0.950 . S
C706 C705 1.398 . S
C706 C707 1.391 . S
C707 H695 0.950 . S
C707 C703 1.393 . S
C707 C706 1.391 . S
H708 C716 0.950 . S
H709 C721 0.950 . S
H710 C718 0.950 . S
H711 C720 0.950 . S
H712 C722 0.950 . S
H713 C724 0.950 . S
H714 C726 0.950 . S
H715 C727 0.950 . S
C716 H708 0.950 . S
C716 C717 1.386 . S
C716 C718 1.391 . S
C717 C716 1.386 . S
C717 C721 1.393 . S
C718 H710 0.950 . S
C718 C716 1.391 . S
C718 C719 1.400 . S
C719 C718 1.400 . S
C719 C720 1.398 . S
C719 C725 1.491 . S
C720 H711 0.950 . S
C720 C719 1.398 . S
C720 C721 1.391 . S
C721 H709 0.950 . S
C721 C717 1.393 . S
C721 C720 1.391 . S
C722 H712 0.950 . S
C722 C723 1.386 . S
C722 C724 1.391 . S
C723 C722 1.386 . S
C723 C727 1.393 . S
C724 H713 0.950 . S
C724 C722 1.391 . S
C724 C725 1.400 . S
C725 C719 1.491 . S
C725 C724 1.400 . S
C725 C726 1.398 . S
C726 H714 0.950 . S
C726 C725 1.398 . S
C726 C727 1.391 . S
C727 H715 0.950 . S
C727 C723 1.393 . S
C727 C726 1.391 . S
H728 C736 0.950 . S
H729 C741 0.950 . S
H730 C738 0.950 . S
H731 C740 0.950 . S
H732 C742 0.950 . S
H733 C744 0.950 . S
H734 C746 0.950 . S
H735 C747 0.950 . S
C736 H728 0.950 . S
C736 C737 1.386 . S
C736 C738 1.391 . S
C737 C736 1.386 . S
C737 C741 1.393 . S
C738 H730 0.950 . S
C738 C736 1.391 . S
C738 C739 1.400 . S
C739 C738 1.400 . S
C739 C740 1.398 . S
C739 C745 1.491 . S
C740 H731 0.950 . S
C740 C739 1.398 . S
C740 C741 1.391 . S
C741 H729 0.950 . S
C741 C737 1.393 . S
C741 C740 1.391 . S
C742 H732 0.950 . S
C742 C743 1.386 . S
C742 C744 1.391 . S
C743 C742 1.386 . S
C743 C747 1.393 . S
C744 H733 0.950 . S
C744 C742 1.391 . S
C744 C745 1.400 . S
C745 C739 1.491 . S
C745 C744 1.400 . S
C745 C746 1.398 . S
C746 H734 0.950 . S
C746 C745 1.398 . S
C746 C747 1.391 . S
C747 H735 0.950 . S
C747 C743 1.393 . S
C747 C746 1.391 . S
H748 C756 0.950 . S
H749 C761 0.950 . S
H750 C758 0.950 . S
H751 C760 0.950 . S
H752 C762 0.950 . S
H753 C764 0.950 . S
H754 C766 0.950 . S
H755 C767 0.950 . S
C756 H748 0.950 . S
C756 C757 1.386 . S
C756 C758 1.391 . S
C757 C756 1.386 . S
C757 C761 1.393 . S
C758 H750 0.950 . S
C758 C756 1.391 . S
C758 C759 1.400 . S
C759 C758 1.400 . S
C759 C760 1.398 . S
C759 C765 1.491 . S
C760 H751 0.950 . S
C760 C759 1.398 . S
C760 C761 1.391 . S
C761 H749 0.950 . S
C761 C757 1.393 . S
C761 C760 1.391 . S
C762 H752 0.950 . S
C762 C763 1.386 . S
C762 C764 1.391 . S
C763 C762 1.386 . S
C763 C767 1.393 . S
C764 H753 0.950 . S
C764 C762 1.391 . S
C764 C765 1.400 . S
C765 C759 1.491 . S
C765 C764 1.400 . S
C765 C766 1.398 . S
C766 H754 0.950 . S
C766 C765 1.398 . S
C766 C767 1.391 . S
C767 H755 0.950 . S
C767 C763 1.393 . S
C767 C766 1.391 . S
H768 C776 0.950 . S
H769 C781 0.950 . S
H770 C778 0.950 . S
H771 C780 0.950 . S
H772 C782 0.950 . S
H773 C784 0.950 . S
H774 C786 0.950 . S
H775 C787 0.950 . S
C776 H768 0.950 . S
C776 C777 1.386 . S
C776 C778 1.391 . S
C777 C776 1.386 . S
C777 C781 1.393 . S
C778 H770 0.950 . S
C778 C776 1.391 . S
C778 C779 1.400 . S
C779 C778 1.400 . S
C779 C780 1.398 . S
C779 C785 1.491 . S
C780 H771 0.950 . S
C780 C779 1.398 . S
C780 C781 1.391 . S
C781 H769 0.950 . S
C781 C777 1.393 . S
C781 C780 1.391 . S
C782 H772 0.950 . S
C782 C783 1.386 . S
C782 C784 1.391 . S
C783 C782 1.386 . S
C783 C787 1.393 . S
C784 H773 0.950 . S
C784 C782 1.391 . S
C784 C785 1.400 . S
C785 C779 1.491 . S
C785 C784 1.400 . S
C785 C786 1.398 . S
C786 H774 0.950 . S
C786 C785 1.398 . S
C786 C787 1.391 . S
C787 H775 0.950 . S
C787 C783 1.393 . S
C787 C786 1.391 . S
H788 C796 0.950 . S
H789 C801 0.950 . S
H790 C798 0.950 . S
H791 C800 0.950 . S
H792 C802 0.950 . S
H793 C804 0.950 . S
H794 C806 0.950 . S
H795 C807 0.950 . S
C796 H788 0.950 . S
C796 C797 1.386 . S
C796 C798 1.391 . S
C797 C796 1.386 . S
C797 C801 1.393 . S
C798 H790 0.950 . S
C798 C796 1.391 . S
C798 C799 1.400 . S
C799 C798 1.400 . S
C799 C800 1.398 . S
C799 C805 1.491 . S
C800 H791 0.950 . S
C800 C799 1.398 . S
C800 C801 1.391 . S
C801 H789 0.950 . S
C801 C797 1.393 . S
C801 C800 1.391 . S
C802 H792 0.950 . S
C802 C803 1.386 . S
C802 C804 1.391 . S
C803 C802 1.386 . S
C803 C807 1.393 . S
C804 H793 0.950 . S
C804 C802 1.391 . S
C804 C805 1.400 . S
C805 C799 1.491 . S
C805 C804 1.400 . S
C805 C806 1.398 . S
C806 H794 0.950 . S
C806 C805 1.398 . S
C806 C807 1.391 . S
C807 H795 0.950 . S
C807 C803 1.393 . S
C807 C806 1.391 . S
H808 C816 0.950 . S
H809 C821 0.950 . S
H810 C818 0.950 . S
H811 C820 0.950 . S
H812 C822 0.950 . S
H813 C824 0.950 . S
H814 C826 0.950 . S
H815 C827 0.950 . S
C816 H808 0.950 . S
C816 C817 1.386 . S
C816 C818 1.391 . S
C817 C816 1.386 . S
C817 C821 1.393 . S
C818 H810 0.950 . S
C818 C816 1.391 . S
C818 C819 1.400 . S
C819 C818 1.400 . S
C819 C820 1.398 . S
C819 C825 1.491 . S
C820 H811 0.950 . S
C820 C819 1.398 . S
C820 C821 1.391 . S
C821 H809 0.950 . S
C821 C817 1.393 . S
C821 C820 1.391 . S
C822 H812 0.950 . S
C822 C823 1.386 . S
C822 C824 1.391 . S
C823 C822 1.386 . S
C823 C827 1.393 . S
C824 H813 0.950 . S
C824 C822 1.391 . S
C824 C825 1.400 . S
C825 C819 1.491 . S
C825 C824 1.400 . S
C825 C826 1.398 . S
C826 H814 0.950 . S
C826 C825 1.398 . S
C826 C827 1.391 . S
C827 H815 0.950 . S
C827 C823 1.393 . S
C827 C826 1.391 . S
H828 C836 0.950 . S
H829 C841 0.950 . S
H830 C838 0.950 . S
H831 C840 0.950 . S
H832 C842 0.950 . S
H833 C844 0.950 . S
H834 C846 0.950 . S
H835 C847 0.950 . S
C836 H828 0.950 . S
C836 C837 1.386 . S
C836 C838 1.391 . S
C837 C836 1.386 . S
C837 C841 1.393 . S
C838 H830 0.950 . S
C838 C836 1.391 . S
C838 C839 1.400 . S
C839 C838 1.400 . S
C839 C840 1.398 . S
C839 C845 1.491 . S
C840 H831 0.950 . S
C840 C839 1.398 . S
C840 C841 1.391 . S
C841 H829 0.950 . S
C841 C837 1.393 . S
C841 C840 1.391 . S
C842 H832 0.950 . S
C842 C843 1.386 . S
C842 C844 1.391 . S
C843 C842 1.386 . S
C843 C847 1.393 . S
C844 H833 0.950 . S
C844 C842 1.391 . S
C844 C845 1.400 . S
C845 C839 1.491 . S
C845 C844 1.400 . S
C845 C846 1.398 . S
C846 H834 0.950 . S
C846 C845 1.398 . S
C846 C847 1.391 . S
C847 H835 0.950 . S
C847 C843 1.393 . S
C847 C846 1.391 . S
H848 C856 0.950 . S
H849 C861 0.950 . S
H850 C858 0.950 . S
H851 C860 0.950 . S
H852 C862 0.950 . S
H853 C864 0.950 . S
H854 C866 0.950 . S
H855 C867 0.950 . S
C856 H848 0.950 . S
C856 C857 1.386 . S
C856 C858 1.391 . S
C857 C856 1.386 . S
C857 C861 1.393 . S
C858 H850 0.950 . S
C858 C856 1.391 . S
C858 C859 1.400 . S
C859 C858 1.400 . S
C859 C860 1.398 . S
C859 C865 1.491 . S
C860 H851 0.950 . S
C860 C859 1.398 . S
C860 C861 1.391 . S
C861 H849 0.950 . S
C861 C857 1.393 . S
C861 C860 1.391 . S
C862 H852 0.950 . S
C862 C863 1.386 . S
C862 C864 1.391 . S
C863 C862 1.386 . S
C863 C867 1.393 . S
C864 H853 0.950 . S
C864 C862 1.391 . S
C864 C865 1.400 . S
C865 C859 1.491 . S
C865 C864 1.400 . S
C865 C866 1.398 . S
C866 H854 0.950 . S
C866 C865 1.398 . S
C866 C867 1.391 . S
C867 H855 0.950 . S
C867 C863 1.393 . S
C867 C866 1.391 . S
H868 C876 0.950 . S
H869 C881 0.950 . S
H870 C878 0.950 . S
H871 C880 0.950 . S
H872 C882 0.950 . S
H873 C884 0.950 . S
H874 C886 0.950 . S
H875 C887 0.950 . S
C876 H868 0.950 . S
C876 C877 1.386 . S
C876 C878 1.391 . S
C877 C876 1.386 . S
C877 C881 1.393 . S
C878 H870 0.950 . S
C878 C876 1.391 . S
C878 C879 1.400 . S
C879 C878 1.400 . S
C879 C880 1.398 . S
C879 C885 1.491 . S
C880 H871 0.950 . S
C880 C879 1.398 . S
C880 C881 1.391 . S
C881 H869 0.950 . S
C881 C877 1.393 . S
C881 C880 1.391 . S
C882 H872 0.950 . S
C882 C883 1.386 . S
C882 C884 1.391 . S
C883 C882 1.386 . S
C883 C887 1.393 . S
C884 H873 0.950 . S
C884 C882 1.391 . S
C884 C885 1.400 . S
C885 C879 1.491 . S
C885 C884 1.400 . S
C885 C886 1.398 . S
C886 H874 0.950 . S
C886 C885 1.398 . S
C886 C887 1.391 . S
C887 H875 0.950 . S
C887 C883 1.393 . S
C887 C886 1.391 . S
H888 C896 0.950 . S
H889 C901 0.950 . S
H890 C898 0.950 . S
H891 C900 0.950 . S
H892 C902 0.950 . S
H893 C904 0.950 . S
H894 C906 0.950 . S
H895 C907 0.950 . S
C896 H888 0.950 . S
C896 C897 1.386 . S
C896 C898 1.391 . S
C897 C896 1.386 . S
C897 C901 1.393 . S
C898 H890 0.950 . S
C898 C896 1.391 . S
C898 C899 1.400 . S
C899 C898 1.400 . S
C899 C900 1.398 . S
C899 C905 1.491 . S
C900 H891 0.950 . S
C900 C899 1.398 . S
C900 C901 1.391 . S
C901 H889 0.950 . S
C901 C897 1.393 . S
C901 C900 1.391 . S
C902 H892 0.950 . S
C902 C903 1.386 . S
C902 C904 1.391 . S
C903 C902 1.386 . S
C903 C907 1.393 . S
C904 H893 0.950 . S
C904 C902 1.391 . S
C904 C905 1.400 . S
C905 C899 1.491 . S
C905 C904 1.400 . S
C905 C906 1.398 . S
C906 H894 0.950 . S
C906 C905 1.398 . S
C906 C907 1.391 . S
C907 H895 0.950 . S
C907 C903 1.393 . S
C907 C906 1.391 . S
H908 C916 0.950 . S
H909 C921 0.950 . S
H910 C918 0.950 . S
H911 C920 0.950 . S
H912 C922 0.950 . S
H913 C924 0.950 . S
H914 C926 0.950 . S
H915 C927 0.950 . S
C916 H908 0.950 . S
C916 C917 1.386 . S
C916 C918 1.391 . S
C917 C916 1.386 . S
C917 C921 1.393 . S
C918 H910 0.950 . S
C918 C916 1.391 . S
C918 C919 1.400 . S
C919 C918 1.400 . S
C919 C920 1.398 . S
C919 C925 1.491 . S
C920 H911 0.950 . S
C920 C919 1.398 . S
C920 C921 1.391 . S
C921 H909 0.950 . S
C921 C917 1.393 . S
C921 C920 1.391 . S
C922 H912 0.950 . S
C922 C923 1.386 . S
C922 C924 1.391 . S
C923 C922 1.386 . S
C923 C927 1.393 . S
C924 H913 0.950 . S
C924 C922 1.391 . S
C924 C925 1.400 . S
C925 C919 1.491 . S
C925 C924 1.400 . S
C925 C926 1.398 . S
C926 H914 0.950 . S
C926 C925 1.398 . S
C926 C927 1.391 . S
C927 H915 0.950 . S
C927 C923 1.393 . S
C927 C926 1.391 . S
H928 C936 0.950 . S
H929 C941 0.950 . S
H930 C938 0.950 . S
H931 C940 0.950 . S
H932 C942 0.950 . S
H933 C944 0.950 . S
H934 C946 0.950 . S
H935 C947 0.950 . S
C936 H928 0.950 . S
C936 C937 1.386 . S
C936 C938 1.391 . S
C937 C936 1.386 . S
C937 C941 1.393 . S
C938 H930 0.950 . S
C938 C936 1.391 . S
C938 C939 1.400 . S
C939 C938 1.400 . S
C939 C940 1.398 . S
C939 C945 1.491 . S
C940 H931 0.950 . S
C940 C939 1.398 . S
C940 C941 1.391 . S
C941 H929 0.950 . S
C941 C937 1.393 . S
C941 C940 1.391 . S
C942 H932 0.950 . S
C942 C943 1.386 . S
C942 C944 1.391 . S
C943 C942 1.386 . S
C943 C947 1.393 . S
C944 H933 0.950 . S
C944 C942 1.391 . S
C944 C945 1.400 . S
C945 C939 1.491 . S
C945 C944 1.400 . S
C945 C946 1.398 . S
C946 H934 0.950 . S
C946 C945 1.398 . S
C946 C947 1.391 . S
C947 H935 0.950 . S
C947 C943 1.393 . S
C947 C946 1.391 . S
H948 C956 0.950 . S
H949 C961 0.950 . S
H950 C958 0.950 . S
H951 C960 0.950 . S
H952 C962 0.950 . S
H953 C964 0.950 . S
H954 C966 0.950 . S
H955 C967 0.950 . S
C956 H948 0.950 . S
C956 C957 1.386 . S
C956 C958 1.391 . S
C957 C956 1.386 . S
C957 C961 1.393 . S
C958 H950 0.950 . S
C958 C956 1.391 . S
C958 C959 1.400 . S
C959 C958 1.400 . S
C959 C960 1.398 . S
C959 C965 1.491 . S
C960 H951 0.950 . S
C960 C959 1.398 . S
C960 C961 1.391 . S
C961 H949 0.950 . S
C961 C957 1.393 . S
C961 C960 1.391 . S
C962 H952 0.950 . S
C962 C963 1.386 . S
C962 C964 1.391 . S
C963 C962 1.386 . S
C963 C967 1.393 . S
C964 H953 0.950 . S
C964 C962 1.391 . S
C964 C965 1.400 . S
C965 C959 1.491 . S
C965 C964 1.400 . S
C965 C966 1.398 . S
C966 H954 0.950 . S
C966 C965 1.398 . S
C966 C967 1.391 . S
C967 H955 0.950 . S
C967 C963 1.393 . S
C967 C966 1.391 . S
H968 C976 0.950 . S
H969 C981 0.950 . S
H970 C978 0.950 . S
H971 C980 0.950 . S
H972 C982 0.950 . S
H973 C984 0.950 . S
H974 C986 0.950 . S
H975 C987 0.950 . S
C976 H968 0.950 . S
C976 C977 1.386 . S
C976 C978 1.391 . S
C977 C976 1.386 . S
C977 C981 1.393 . S
C978 H970 0.950 . S
C978 C976 1.391 . S
C978 C979 1.400 . S
C979 C978 1.400 . S
C979 C980 1.398 . S
C979 C985 1.491 . S
C980 H971 0.950 . S
C980 C979 1.398 . S
C980 C981 1.391 . S
C981 H969 0.950 . S
C981 C977 1.393 . S
C981 C980 1.391 . S
C982 H972 0.950 . S
C982 C983 1.386 . S
C982 C984 1.391 . S
C983 C982 1.386 . S
C983 C987 1.393 . S
C984 H973 0.950 . S
C984 C982 1.391 . S
C984 C985 1.400 . S
C985 C979 1.491 . S
C985 C984 1.400 . S
C985 C986 1.398 . S
C986 H974 0.950 . S
C986 C985 1.398 . S
C986 C987 1.391 . S
C987 H975 0.950 . S
C987 C983 1.393 . S
C987 C986 1.391 . S
H988 C996 0.950 . S
H989 C1001 0.950 . S
H990 C998 0.950 . S
H991 C1000 0.950 . S
H992 C1002 0.950 . S
H993 C1004 0.950 . S
H994 C1006 0.950 . S
H995 C1007 0.950 . S
C996 H988 0.950 . S
C996 C997 1.386 . S
C996 C998 1.391 . S
C997 C996 1.386 . S
C997 C1001 1.393 . S
C998 H990 0.950 . S
C998 C996 1.391 . S
C998 C999 1.400 . S
C999 C998 1.400 . S
C999 C1000 1.398 . S
C999 C1005 1.491 . S
C1000 H991 0.950 . S
C1000 C999 1.398 . S
C1000 C1001 1.391 . S
C1001 H989 0.950 . S
C1001 C997 1.393 . S
C1001 C1000 1.391 . S
C1002 H992 0.950 . S
C1002 C1003 1.386 . S
C1002 C1004 1.391 . S
C1003 C1002 1.386 . S
C1003 C1007 1.393 . S
C1004 H993 0.950 . S
C1004 C1002 1.391 . S
C1004 C1005 1.400 . S
C1005 C999 1.491 . S
C1005 C1004 1.400 . S
C1005 C1006 1.398 . S
C1006 H994 0.950 . S
C1006 C1005 1.398 . S
C1006 C1007 1.391 . S
C1007 H995 0.950 . S
C1007 C1003 1.393 . S
C1007 C1006 1.391 . S
H1008 C1016 0.950 . S
H1009 C1021 0.950 . S
H1010 C1018 0.950 . S
H1011 C1020 0.950 . S
H1012 C1022 0.950 . S
H1013 C1024 0.950 . S
H1014 C1026 0.950 . S
H1015 C1027 0.950 . S
C1016 H1008 0.950 . S
C1016 C1017 1.386 . S
C1016 C1018 1.391 . S
C1017 C1016 1.386 . S
C1017 C1021 1.393 . S
C1018 H1010 0.950 . S
C1018 C1016 1.391 . S
C1018 C1019 1.400 . S
C1019 C1018 1.400 . S
C1019 C1020 1.398 . S
C1019 C1025 1.491 . S
C1020 H1011 0.950 . S
C1020 C1019 1.398 . S
C1020 C1021 1.391 . S
C1021 H1009 0.950 . S
C1021 C1017 1.393 . S
C1021 C1020 1.391 . S
C1022 H1012 0.950 . S
C1022 C1023 1.386 . S
C1022 C1024 1.391 . S
C1023 C1022 1.386 . S
C1023 C1027 1.393 . S
C1024 H1013 0.950 . S
C1024 C1022 1.391 . S
C1024 C1025 1.400 . S
C1025 C1019 1.491 . S
C1025 C1024 1.400 . S
C1025 C1026 1.398 . S
C1026 H1014 0.950 . S
C1026 C1025 1.398 . S
C1026 C1027 1.391 . S
C1027 H1015 0.950 . S
C1027 C1023 1.393 . S
C1027 C1026 1.391 . S
H1028 C1036 0.950 . S
H1029 C1041 0.950 . S
H1030 C1038 0.950 . S
H1031 C1040 0.950 . S
H1032 C1042 0.950 . S
H1033 C1044 0.950 . S
H1034 C1046 0.950 . S
H1035 C1047 0.950 . S
C1036 H1028 0.950 . S
C1036 C1037 1.386 . S
C1036 C1038 1.391 . S
C1037 C1036 1.386 . S
C1037 C1041 1.393 . S
C1038 H1030 0.950 . S
C1038 C1036 1.391 . S
C1038 C1039 1.400 . S
C1039 C1038 1.400 . S
C1039 C1040 1.398 . S
C1039 C1045 1.491 . S
C1040 H1031 0.950 . S
C1040 C1039 1.398 . S
C1040 C1041 1.391 . S
C1041 H1029 0.950 . S
C1041 C1037 1.393 . S
C1041 C1040 1.391 . S
C1042 H1032 0.950 . S
C1042 C1043 1.386 . S
C1042 C1044 1.391 . S
C1043 C1042 1.386 . S
C1043 C1047 1.393 . S
C1044 H1033 0.950 . S
C1044 C1042 1.391 . S
C1044 C1045 1.400 . S
C1045 C1039 1.491 . S
C1045 C1044 1.400 . S
C1045 C1046 1.398 . S
C1046 H1034 0.950 . S
C1046 C1045 1.398 . S
C1046 C1047 1.391 . S
C1047 H1035 0.950 . S
C1047 C1043 1.393 . S
C1047 C1046 1.391 . S
H1048 C1056 0.950 . S
H1049 C1061 0.950 . S
H1050 C1058 0.950 . S
H1051 C1060 0.950 . S
H1052 C1062 0.950 . S
H1053 C1064 0.950 . S
H1054 C1066 0.950 . S
H1055 C1067 0.950 . S
C1056 H1048 0.950 . S
C1056 C1057 1.386 . S
C1056 C1058 1.391 . S
C1057 C1056 1.386 . S
C1057 C1061 1.393 . S
C1058 H1050 0.950 . S
C1058 C1056 1.391 . S
C1058 C1059 1.400 . S
C1059 C1058 1.400 . S
C1059 C1060 1.398 . S
C1059 C1065 1.491 . S
C1060 H1051 0.950 . S
C1060 C1059 1.398 . S
C1060 C1061 1.391 . S
C1061 H1049 0.950 . S
C1061 C1057 1.393 . S
C1061 C1060 1.391 . S
C1062 H1052 0.950 . S
C1062 C1063 1.386 . S
C1062 C1064 1.391 . S
C1063 C1062 1.386 . S
C1063 C1067 1.393 . S
C1064 H1053 0.950 . S
C1064 C1062 1.391 . S
C1064 C1065 1.400 . S
C1065 C1059 1.491 . S
C1065 C1064 1.400 . S
C1065 C1066 1.398 . S
C1066 H1054 0.950 . S
C1066 C1065 1.398 . S
C1066 C1067 1.391 . S
C1067 H1055 0.950 . S
C1067 C1063 1.393 . S
C1067 C1066 1.391 . S
H1068 C1076 0.950 . S
H1069 C1081 0.950 . S
H1070 C1078 0.950 . S
H1071 C1080 0.950 . S
H1072 C1082 0.950 . S
H1073 C1084 0.950 . S
H1074 C1086 0.950 . S
H1075 C1087 0.950 . S
C1076 H1068 0.950 . S
C1076 C1077 1.386 . S
C1076 C1078 1.391 . S
C1077 C1076 1.386 . S
C1077 C1081 1.393 . S
C1078 H1070 0.950 . S
C1078 C1076 1.391 . S
C1078 C1079 1.400 . S
C1079 C1078 1.400 . S
C1079 C1080 1.398 . S
C1079 C1085 1.491 . S
C1080 H1071 0.950 . S
C1080 C1079 1.398 . S
C1080 C1081 1.391 . S
C1081 H1069 0.950 . S
C1081 C1077 1.393 . S
C1081 C1080 1.391 . S
C1082 H1072 0.950 . S
C1082 C1083 1.386 . S
C1082 C1084 1.391 . S
C1083 C1082 1.386 . S
C1083 C1087 1.393 . S
C1084 H1073 0.950 . S
C1084 C1082 1.391 . S
C1084 C1085 1.400 . S
C1085 C1079 1.491 . S
C1085 C1084 1.400 . S
C1085 C1086 1.398 . S
C1086 H1074 0.950 . S
C1086 C1085 1.398 . S
C1086 C1087 1.391 . S
C1087 H1075 0.950 . S
C1087 C1083 1.393 . S
C1087 C1086 1.391 . S
H1088 C1096 0.950 . S
H1089 C1101 0.950 . S
H1090 C1098 0.950 . S
H1091 C1100 0.950 . S
H1092 C1102 0.950 . S
H1093 C1104 0.950 . S
H1094 C1106 0.950 . S
H1095 C1107 0.950 . S
C1096 H1088 0.950 . S
C1096 C1097 1.386 . S
C1096 C1098 1.391 . S
C1097 C1096 1.386 . S
C1097 C1101 1.393 . S
C1098 H1090 0.950 . S
C1098 C1096 1.391 . S
C1098 C1099 1.400 . S
C1099 C1098 1.400 . S
C1099 C1100 1.398 . S
C1099 C1105 1.491 . S
C1100 H1091 0.950 . S
C1100 C1099 1.398 . S
C1100 C1101 1.391 . S
C1101 H1089 0.950 . S
C1101 C1097 1.393 . S
C1101 C1100 1.391 . S
C1102 H1092 0.950 . S
C1102 C1103 1.386 . S
C1102 C1104 1.391 . S
C1103 C1102 1.386 . S
C1103 C1107 1.393 . S
C1104 H1093 0.950 . S
C1104 C1102 1.391 . S
C1104 C1105 1.400 . S
C1105 C1099 1.491 . S
C1105 C1104 1.400 . S
C1105 C1106 1.398 . S
C1106 H1094 0.950 . S
C1106 C1105 1.398 . S
C1106 C1107 1.391 . S
C1107 H1095 0.950 . S
C1107 C1103 1.393 . S
C1107 C1106 1.391 . S
H1108 C1116 0.950 . S
H1109 C1121 0.950 . S
H1110 C1118 0.950 . S
H1111 C1120 0.950 . S
H1112 C1122 0.950 . S
H1113 C1124 0.950 . S
H1114 C1126 0.950 . S
H1115 C1127 0.950 . S
C1116 H1108 0.950 . S
C1116 C1117 1.386 . S
C1116 C1118 1.391 . S
C1117 C1116 1.386 . S
C1117 C1121 1.393 . S
C1118 H1110 0.950 . S
C1118 C1116 1.391 . S
C1118 C1119 1.400 . S
C1119 C1118 1.400 . S
C1119 C1120 1.398 . S
C1119 C1125 1.491 . S
C1120 H1111 0.950 . S
C1120 C1119 1.398 . S
C1120 C1121 1.391 . S
C1121 H1109 0.950 . S
C1121 C1117 1.393 . S
C1121 C1120 1.391 . S
C1122 H1112 0.950 . S
C1122 C1123 1.386 . S
C1122 C1124 1.391 . S
C1123 C1122 1.386 . S
C1123 C1127 1.393 . S
C1124 H1113 0.950 . S
C1124 C1122 1.391 . S
C1124 C1125 1.400 . S
C1125 C1119 1.491 . S
C1125 C1124 1.400 . S
C1125 C1126 1.398 . S
C1126 H1114 0.950 . S
C1126 C1125 1.398 . S
C1126 C1127 1.391 . S
C1127 H1115 0.950 . S
C1127 C1123 1.393 . S
C1127 C1126 1.391 . S
H1128 C1136 0.950 . S
H1129 C1141 0.950 . S
H1130 C1138 0.950 . S
H1131 C1140 0.950 . S
H1132 C1142 0.950 . S
H1133 C1144 0.950 . S
H1134 C1146 0.950 . S
H1135 C1147 0.950 . S
C1136 H1128 0.950 . S
C1136 C1137 1.386 . S
C1136 C1138 1.391 . S
C1137 C1136 1.386 . S
C1137 C1141 1.393 . S
C1138 H1130 0.950 . S
C1138 C1136 1.391 . S
C1138 C1139 1.400 . S
C1139 C1138 1.400 . S
C1139 C1140 1.398 . S
C1139 C1145 1.491 . S
C1140 H1131 0.950 . S
C1140 C1139 1.398 . S
C1140 C1141 1.391 . S
C1141 H1129 0.950 . S
C1141 C1137 1.393 . S
C1141 C1140 1.391 . S
C1142 H1132 0.950 . S
C1142 C1143 1.386 . S
C1142 C1144 1.391 . S
C1143 C1142 1.386 . S
C1143 C1147 1.393 . S
C1144 H1133 0.950 . S
C1144 C1142 1.391 . S
C1144 C1145 1.400 . S
C1145 C1139 1.491 . S
C1145 C1144 1.400 . S
C1145 C1146 1.398 . S
C1146 H1134 0.950 . S
C1146 C1145 1.398 . S
C1146 C1147 1.391 . S
C1147 H1135 0.950 . S
C1147 C1143 1.393 . S
C1147 C1146 1.391 . S
H1148 C1156 0.950 . S
H1149 C1161 0.950 . S
H1150 C1158 0.950 . S
H1151 C1160 0.950 . S
H1152 C1162 0.950 . S
H1153 C1164 0.950 . S
H1154 C1166 0.950 . S
H1155 C1167 0.950 . S
C1156 H1148 0.950 . S
C1156 C1157 1.386 . S
C1156 C1158 1.391 . S
C1157 C1156 1.386 . S
C1157 C1161 1.393 . S
C1158 H1150 0.950 . S
C1158 C1156 1.391 . S
C1158 C1159 1.400 . S
C1159 C1158 1.400 . S
C1159 C1160 1.398 . S
C1159 C1165 1.491 . S
C1160 H1151 0.950 . S
C1160 C1159 1.398 . S
C1160 C1161 1.391 . S
C1161 H1149 0.950 . S
C1161 C1157 1.393 . S
C1161 C1160 1.391 . S
C1162 H1152 0.950 . S
C1162 C1163 1.386 . S
C1162 C1164 1.391 . S
C1163 C1162 1.386 . S
C1163 C1167 1.393 . S
C1164 H1153 0.950 . S
C1164 C1162 1.391 . S
C1164 C1165 1.400 . S
C1165 C1159 1.491 . S
C1165 C1164 1.400 . S
C1165 C1166 1.398 . S
C1166 H1154 0.950 . S
C1166 C1165 1.398 . S
C1166 C1167 1.391 . S
C1167 H1155 0.950 . S
C1167 C1163 1.393 . S
C1167 C1166 1.391 . S
H1168 C1176 0.950 . S
H1169 C1181 0.950 . S
H1170 C1178 0.950 . S
H1171 C1180 0.950 . S
H1172 C1182 0.950 . S
H1173 C1184 0.950 . S
H1174 C1186 0.950 . S
H1175 C1187 0.950 . S
C1176 H1168 0.950 . S
C1176 C1177 1.386 . S
C1176 C1178 1.391 . S
C1177 C1176 1.386 . S
C1177 C1181 1.393 . S
C1178 H1170 0.950 . S
C1178 C1176 1.391 . S
C1178 C1179 1.400 . S
C1179 C1178 1.400 . S
C1179 C1180 1.398 . S
C1179 C1185 1.491 . S
C1180 H1171 0.950 . S
C1180 C1179 1.398 . S
C1180 C1181 1.391 . S
C1181 H1169 0.950 . S
C1181 C1177 1.393 . S
C1181 C1180 1.391 . S
C1182 H1172 0.950 . S
C1182 C1183 1.386 . S
C1182 C1184 1.391 . S
C1183 C1182 1.386 . S
C1183 C1187 1.393 . S
C1184 H1173 0.950 . S
C1184 C1182 1.391 . S
C1184 C1185 1.400 . S
C1185 C1179 1.491 . S
C1185 C1184 1.400 . S
C1185 C1186 1.398 . S
C1186 H1174 0.950 . S
C1186 C1185 1.398 . S
C1186 C1187 1.391 . S
C1187 H1175 0.950 . S
C1187 C1183 1.393 . S
C1187 C1186 1.391 . S
H1188 C1196 0.950 . S
H1189 C1201 0.950 . S
H1190 C1198 0.950 . S
H1191 C1200 0.950 . S
H1192 C1202 0.950 . S
H1193 C1204 0.950 . S
H1194 C1206 0.950 . S
H1195 C1207 0.950 . S
C1196 H1188 0.950 . S
C1196 C1197 1.386 . S
C1196 C1198 1.391 . S
C1197 C1196 1.386 . S
C1197 C1201 1.393 . S
C1198 H1190 0.950 . S
C1198 C1196 1.391 . S
C1198 C1199 1.400 . S
C1199 C1198 1.400 . S
C1199 C1200 1.398 . S
C1199 C1205 1.491 . S
C1200 H1191 0.950 . S
C1200 C1199 1.398 . S
C1200 C1201 1.391 . S
C1201 H1189 0.950 . S
C1201 C1197 1.393 . S
C1201 C1200 1.391 . S
C1202 H1192 0.950 . S
C1202 C1203 1.386 . S
C1202 C1204 1.391 . S
C1203 C1202 1.386 . S
C1203 C1207 1.393 . S
C1204 H1193 0.950 . S
C1204 C1202 1.391 . S
C1204 C1205 1.400 . S
C1205 C1199 1.491 . S
C1205 C1204 1.400 . S
C1205 C1206 1.398 . S
C1206 H1194 0.950 . S
C1206 C1205 1.398 . S
C1206 C1207 1.391 . S
C1207 H1195 0.950 . S
C1207 C1203 1.393 . S
C1207 C1206 1.391 . S
H1208 C1216 0.950 . S
H1209 C1221 0.950 . S
H1210 C1218 0.950 . S
H1211 C1220 0.950 . S
H1212 C1222 0.950 . S
H1213 C1224 0.950 . S
H1214 C1226 0.950 . S
H1215 C1227 0.950 . S
C1216 H1208 0.950 . S
C1216 C1217 1.386 . S
C1216 C1218 1.391 . S
C1217 C1216 1.386 . S
C1217 C1221 1.393 . S
C1218 H1210 0.950 . S
C1218 C1216 1.391 . S
C1218 C1219 1.400 . S
C1219 C1218 1.400 . S
C1219 C1220 1.398 . S
C1219 C1225 1.491 . S
C1220 H1211 0.950 . S
C1220 C1219 1.398 . S
C1220 C1221 1.391 . S
C1221 H1209 0.950 . S
C1221 C1217 1.393 . S
C1221 C1220 1.391 . S
C1222 H1212 0.950 . S
C1222 C1223 1.386 . S
C1222 C1224 1.391 . S
C1223 C1222 1.386 . S
C1223 C1227 1.393 . S
C1224 H1213 0.950 . S
C1224 C1222 1.391 . S
C1224 C1225 1.400 . S
C1225 C1219 1.491 . S
C1225 C1224 1.400 . S
C1225 C1226 1.398 . S
C1226 H1214 0.950 . S
C1226 C1225 1.398 . S
C1226 C1227 1.391 . S
C1227 H1215 0.950 . S
C1227 C1223 1.393 . S
C1227 C1226 1.391 . S
H1228 C1236 0.950 . S
H1229 C1241 0.950 . S
H1230 C1238 0.950 . S
H1231 C1240 0.950 . S
H1232 C1242 0.950 . S
H1233 C1244 0.950 . S
H1234 C1246 0.950 . S
H1235 C1247 0.950 . S
C1236 H1228 0.950 . S
C1236 C1237 1.386 . S
C1236 C1238 1.391 . S
C1237 C1236 1.386 . S
C1237 C1241 1.393 . S
C1238 H1230 0.950 . S
C1238 C1236 1.391 . S
C1238 C1239 1.400 . S
C1239 C1238 1.400 . S
C1239 C1240 1.398 . S
C1239 C1245 1.491 . S
C1240 H1231 0.950 . S
C1240 C1239 1.398 . S
C1240 C1241 1.391 . S
C1241 H1229 0.950 . S
C1241 C1237 1.393 . S
C1241 C1240 1.391 . S
C1242 H1232 0.950 . S
C1242 C1243 1.386 . S
C1242 C1244 1.391 . S
C1243 C1242 1.386 . S
C1243 C1247 1.393 . S
C1244 H1233 0.950 . S
C1244 C1242 1.391 . S
C1244 C1245 1.400 . S
C1245 C1239 1.491 . S
C1245 C1244 1.400 . S
C1245 C1246 1.398 . S
C1246 H1234 0.950 . S
C1246 C1245 1.398 . S
C1246 C1247 1.391 . S
C1247 H1235 0.950 . S
C1247 C1243 1.393 . S
C1247 C1246 1.391 . S
H1248 C1256 0.950 . S
H1249 C1261 0.950 . S
H1250 C1258 0.950 . S
H1251 C1260 0.950 . S
H1252 C1262 0.950 . S
H1253 C1264 0.950 . S
H1254 C1266 0.950 . S
H1255 C1267 0.950 . S
C1256 H1248 0.950 . S
C1256 C1257 1.386 . S
C1256 C1258 1.391 . S
C1257 C1256 1.386 . S
C1257 C1261 1.393 . S
C1258 H1250 0.950 . S
C1258 C1256 1.391 . S
C1258 C1259 1.400 . S
C1259 C1258 1.400 . S
C1259 C1260 1.398 . S
C1259 C1265 1.491 . S
C1260 H1251 0.950 . S
C1260 C1259 1.398 . S
C1260 C1261 1.391 . S
C1261 H1249 0.950 . S
C1261 C1257 1.393 . S
C1261 C1260 1.391 . S
C1262 H1252 0.950 . S
C1262 C1263 1.386 . S
C1262 C1264 1.391 . S
C1263 C1262 1.386 . S
C1263 C1267 1.393 . S
C1264 H1253 0.950 . S
C1264 C1262 1.391 . S
C1264 C1265 1.400 . S
C1265 C1259 1.491 . S
C1265 C1264 1.400 . S
C1265 C1266 1.398 . S
C1266 H1254 0.950 . S
C1266 C1265 1.398 . S
C1266 C1267 1.391 . S
C1267 H1255 0.950 . S
C1267 C1263 1.393 . S
C1267 C1266 1.391 . S
H1268 C1276 0.950 . S
H1269 C1281 0.950 . S
H1270 C1278 0.950 . S
H1271 C1280 0.950 . S
H1272 C1282 0.950 . S
H1273 C1284 0.950 . S
H1274 C1286 0.950 . S
H1275 C1287 0.950 . S
C1276 H1268 0.950 . S
C1276 C1277 1.386 . S
C1276 C1278 1.391 . S
C1277 C1276 1.386 . S
C1277 C1281 1.393 . S
C1278 H1270 0.950 . S
C1278 C1276 1.391 . S
C1278 C1279 1.400 . S
C1279 C1278 1.400 . S
C1279 C1280 1.398 . S
C1279 C1285 1.491 . S
C1280 H1271 0.950 . S
C1280 C1279 1.398 . S
C1280 C1281 1.391 . S
C1281 H1269 0.950 . S
C1281 C1277 1.393 . S
C1281 C1280 1.391 . S
C1282 H1272 0.950 . S
C1282 C1283 1.386 . S
C1282 C1284 1.391 . S
C1283 C1282 1.386 . S
C1283 C1287 1.393 . S
C1284 H1273 0.950 . S
C1284 C1282 1.391 . S
C1284 C1285 1.400 . S
C1285 C1279 1.491 . S
C1285 C1284 1.400 . S
C1285 C1286 1.398 . S
C1286 H1274 0.950 . S
C1286 C1285 1.398 . S
C1286 C1287 1.391 . S
C1287 H1275 0.950 . S
C1287 C1283 1.393 . S
C1287 C1286 1.391 . S
H1288 C1296 0.950 . S
H1289 C1301 0.950 . S
H1290 C1298 0.950 . S
H1291 C1300 0.950 . S
H1292 C1302 0.950 . S
H1293 C1304 0.950 . S
H1294 C1306 0.950 . S
H1295 C1307 0.950 . S
C1296 H1288 0.950 . S
C1296 C1297 1.386 . S
C1296 C1298 1.391 . S
C1297 C1296 1.386 . S
C1297 C1301 1.393 . S
C1298 H1290 0.950 . S
C1298 C1296 1.391 . S
C1298 C1299 1.400 . S
C1299 C1298 1.400 . S
C1299 C1300 1.398 . S
C1299 C1305 1.491 . S
C1300 H1291 0.950 . S
C1300 C1299 1.398 . S
C1300 C1301 1.391 . S
C1301 H1289 0.950 . S
C1301 C1297 1.393 . S
C1301 C1300 1.391 . S
C1302 H1292 0.950 . S
C1302 C1303 1.386 . S
C1302 C1304 1.391 . S
C1303 C1302 1.386 . S
C1303 C1307 1.393 . S
C1304 H1293 0.950 . S
C1304 C1302 1.391 . S
C1304 C1305 1.400 . S
C1305 C1299 1.491 . S
C1305 C1304 1.400 . S
C1305 C1306 1.398 . S
C1306 H1294 0.950 . S
C1306 C1305 1.398 . S
C1306 C1307 1.391 . S
C1307 H1295 0.950 . S
C1307 C1303 1.393 . S
C1307 C1306 1.391 . S
H1308 C1316 0.950 . S
H1309 C1321 0.950 . S
H1310 C1318 0.950 . S
H1311 C1320 0.950 . S
H1312 C1322 0.950 . S
H1313 C1324 0.950 . S
H1314 C1326 0.950 . S
H1315 C1327 0.950 . S
C1316 H1308 0.950 . S
C1316 C1317 1.386 . S
C1316 C1318 1.391 . S
C1317 C1316 1.386 . S
C1317 C1321 1.393 . S
C1318 H1310 0.950 . S
C1318 C1316 1.391 . S
C1318 C1319 1.400 . S
C1319 C1318 1.400 . S
C1319 C1320 1.398 . S
C1319 C1325 1.491 . S
C1320 H1311 0.950 . S
C1320 C1319 1.398 . S
C1320 C1321 1.391 . S
C1321 H1309 0.950 . S
C1321 C1317 1.393 . S
C1321 C1320 1.391 . S
C1322 H1312 0.950 . S
C1322 C1323 1.386 . S
C1322 C1324 1.391 . S
C1323 C1322 1.386 . S
C1323 C1327 1.393 . S
C1324 H1313 0.950 . S
C1324 C1322 1.391 . S
C1324 C1325 1.400 . S
C1325 C1319 1.491 . S
C1325 C1324 1.400 . S
C1325 C1326 1.398 . S
C1326 H1314 0.950 . S
C1326 C1325 1.398 . S
C1326 C1327 1.391 . S
C1327 H1315 0.950 . S
C1327 C1323 1.393 . S
C1327 C1326 1.391 . S
H1328 C1336 0.950 . S
H1329 C1341 0.950 . S
H1330 C1338 0.950 . S
H1331 C1340 0.950 . S
H1332 C1342 0.950 . S
H1333 C1344 0.950 . S
H1334 C1346 0.950 . S
H1335 C1347 0.950 . S
C1336 H1328 0.950 . S
C1336 C1337 1.386 . S
C1336 C1338 1.391 . S
C1337 C1336 1.386 . S
C1337 C1341 1.393 . S
C1338 H1330 0.950 . S
C1338 C1336 1.391 . S
C1338 C1339 1.400 . S
C1339 C1338 1.400 . S
C1339 C1340 1.398 . S
C1339 C1345 1.491 . S
C1340 H1331 0.950 . S
C1340 C1339 1.398 . S
C1340 C1341 1.391 . S
C1341 H1329 0.950 . S
C1341 C1337 1.393 . S
C1341 C1340 1.391 . S
C1342 H1332 0.950 . S
C1342 C1343 1.386 . S
C1342 C1344 1.391 . S
C1343 C1342 1.386 . S
C1343 C1347 1.393 . S
C1344 H1333 0.950 . S
C1344 C1342 1.391 . S
C1344 C1345 1.400 . S
C1345 C1339 1.491 . S
C1345 C1344 1.400 . S
C1345 C1346 1.398 . S
C1346 H1334 0.950 . S
C1346 C1345 1.398 . S
C1346 C1347 1.391 . S
C1347 H1335 0.950 . S
C1347 C1343 1.393 . S
C1347 C1346 1.391 . S
H1348 C1356 0.950 . S
H1349 C1361 0.950 . S
H1350 C1358 0.950 . S
H1351 C1360 0.950 . S
H1352 C1362 0.950 . S
H1353 C1364 0.950 . S
H1354 C1366 0.950 . S
H1355 C1367 0.950 . S
C1356 H1348 0.950 . S
C1356 C1357 1.386 . S
C1356 C1358 1.391 . S
C1357 C1356 1.386 . S
C1357 C1361 1.393 . S
C1358 H1350 0.950 . S
C1358 C1356 1.391 . S
C1358 C1359 1.400 . S
C1359 C1358 1.400 . S
C1359 C1360 1.398 . S
C1359 C1365 1.491 . S
C1360 H1351 0.950 . S
C1360 C1359 1.398 . S
C1360 C1361 1.391 . S
C1361 H1349 0.950 . S
C1361 C1357 1.393 . S
C1361 C1360 1.391 . S
C1362 H1352 0.950 . S
C1362 C1363 1.386 . S
C1362 C1364 1.391 . S
C1363 C1362 1.386 . S
C1363 C1367 1.393 . S
C1364 H1353 0.950 . S
C1364 C1362 1.391 . S
C1364 C1365 1.400 . S
C1365 C1359 1.491 . S
C1365 C1364 1.400 . S
C1365 C1366 1.398 . S
C1366 H1354 0.950 . S
C1366 C1365 1.398 . S
C1366 C1367 1.391 . S
C1367 H1355 0.950 . S
C1367 C1363 1.393 . S
C1367 C1366 1.391 . S
H1368 C1376 0.950 . S
H1369 C1381 0.950 . S
H1370 C1378 0.950 . S
H1371 C1380 0.950 . S
H1372 C1382 0.950 . S
H1373 C1384 0.950 . S
H1374 C1386 0.950 . S
H1375 C1387 0.950 . S
C1376 H1368 0.950 . S
C1376 C1377 1.386 . S
C1376 C1378 1.391 . S
C1377 C1376 1.386 . S
C1377 C1381 1.393 . S
C1378 H1370 0.950 . S
C1378 C1376 1.391 . S
C1378 C1379 1.400 . S
C1379 C1378 1.400 . S
C1379 C1380 1.398 . S
C1379 C1385 1.491 . S
C1380 H1371 0.950 . S
C1380 C1379 1.398 . S
C1380 C1381 1.391 . S
C1381 H1369 0.950 . S
C1381 C1377 1.393 . S
C1381 C1380 1.391 . S
C1382 H1372 0.950 . S
C1382 C1383 1.386 . S
C1382 C1384 1.391 . S
C1383 C1382 1.386 . S
C1383 C1387 1.393 . S
C1384 H1373 0.950 . S
C1384 C1382 1.391 . S
C1384 C1385 1.400 . S
C1385 C1379 1.491 . S
C1385 C1384 1.400 . S
C1385 C1386 1.398 . S
C1386 H1374 0.950 . S
C1386 C1385 1.398 . S
C1386 C1387 1.391 . S
C1387 H1375 0.950 . S
C1387 C1383 1.393 . S
C1387 C1386 1.391 . S
H1388 C1396 0.950 . S
H1389 C1401 0.950 . S
H1390 C1398 0.950 . S
H1391 C1400 0.950 . S
H1392 C1402 0.950 . S
H1393 C1404 0.950 . S
H1394 C1406 0.950 . S
H1395 C1407 0.950 . S
C1396 H1388 0.950 . S
C1396 C1397 1.386 . S
C1396 C1398 1.391 . S
C1397 C1396 1.386 . S
C1397 C1401 1.393 . S
C1398 H1390 0.950 . S
C1398 C1396 1.391 . S
C1398 C1399 1.400 . S
C1399 C1398 1.400 . S
C1399 C1400 1.398 . S
C1399 C1405 1.491 . S
C1400 H1391 0.950 . S
C1400 C1399 1.398 . S
C1400 C1401 1.391 . S
C1401 H1389 0.950 . S
C1401 C1397 1.393 . S
C1401 C1400 1.391 . S
C1402 H1392 0.950 . S
C1402 C1403 1.386 . S
C1402 C1404 1.391 . S
C1403 C1402 1.386 . S
C1403 C1407 1.393 . S
C1404 H1393 0.950 . S
C1404 C1402 1.391 . S
C1404 C1405 1.400 . S
C1405 C1399 1.491 . S
C1405 C1404 1.400 . S
C1405 C1406 1.398 . S
C1406 H1394 0.950 . S
C1406 C1405 1.398 . S
C1406 C1407 1.391 . S
C1407 H1395 0.950 . S
C1407 C1403 1.393 . S
C1407 C1406 1.391 . S
H1408 C1416 0.950 . S
H1409 C1421 0.950 . S
H1410 C1418 0.950 . S
H1411 C1420 0.950 . S
H1412 C1422 0.950 . S
H1413 C1424 0.950 . S
H1414 C1426 0.950 . S
H1415 C1427 0.950 . S
C1416 H1408 0.950 . S
C1416 C1417 1.386 . S
C1416 C1418 1.391 . S
C1417 C1416 1.386 . S
C1417 C1421 1.393 . S
C1418 H1410 0.950 . S
C1418 C1416 1.391 . S
C1418 C1419 1.400 . S
C1419 C1418 1.400 . S
C1419 C1420 1.398 . S
C1419 C1425 1.491 . S
C1420 H1411 0.950 . S
C1420 C1419 1.398 . S
C1420 C1421 1.391 . S
C1421 H1409 0.950 . S
C1421 C1417 1.393 . S
C1421 C1420 1.391 . S
C1422 H1412 0.950 . S
C1422 C1423 1.386 . S
C1422 C1424 1.391 . S
C1423 C1422 1.386 . S
C1423 C1427 1.393 . S
C1424 H1413 0.950 . S
C1424 C1422 1.391 . S
C1424 C1425 1.400 . S
C1425 C1419 1.491 . S
C1425 C1424 1.400 . S
C1425 C1426 1.398 . S
C1426 H1414 0.950 . S
C1426 C1425 1.398 . S
C1426 C1427 1.391 . S
C1427 H1415 0.950 . S
C1427 C1423 1.393 . S
C1427 C1426 1.391 . S
H1428 C1436 0.950 . S
H1429 C1441 0.950 . S
H1430 C1438 0.950 . S
H1431 C1440 0.950 . S
H1432 C1442 0.950 . S
H1433 C1444 0.950 . S
H1434 C1446 0.950 . S
H1435 C1447 0.950 . S
C1436 H1428 0.950 . S
C1436 C1437 1.386 . S
C1436 C1438 1.391 . S
C1437 C1436 1.386 . S
C1437 C1441 1.393 . S
C1438 H1430 0.950 . S
C1438 C1436 1.391 . S
C1438 C1439 1.400 . S
C1439 C1438 1.400 . S
C1439 C1440 1.398 . S
C1439 C1445 1.491 . S
C1440 H1431 0.950 . S
C1440 C1439 1.398 . S
C1440 C1441 1.391 . S
C1441 H1429 0.950 . S
C1441 C1437 1.393 . S
C1441 C1440 1.391 . S
C1442 H1432 0.950 . S
C1442 C1443 1.386 . S
C1442 C1444 1.391 . S
C1443 C1442 1.386 . S
C1443 C1447 1.393 . S
C1444 H1433 0.950 . S
C1444 C1442 1.391 . S
C1444 C1445 1.400 . S
C1445 C1439 1.491 . S
C1445 C1444 1.400 . S
C1445 C1446 1.398 . S
C1446 H1434 0.950 . S
C1446 C1445 1.398 . S
C1446 C1447 1.391 . S
C1447 H1435 0.950 . S
C1447 C1443 1.393 . S
C1447 C1446 1.391 . S
H1448 C1456 0.950 . S
H1449 C1461 0.950 . S
H1450 C1458 0.950 . S
H1451 C1460 0.950 . S
H1452 C1462 0.950 . S
H1453 C1464 0.950 . S
H1454 C1466 0.950 . S
H1455 C1467 0.950 . S
C1456 H1448 0.950 . S
C1456 C1457 1.386 . S
C1456 C1458 1.391 . S
C1457 C1456 1.386 . S
C1457 C1461 1.393 . S
C1458 H1450 0.950 . S
C1458 C1456 1.391 . S
C1458 C1459 1.400 . S
C1459 C1458 1.400 . S
C1459 C1460 1.398 . S
C1459 C1465 1.491 . S
C1460 H1451 0.950 . S
C1460 C1459 1.398 . S
C1460 C1461 1.391 . S
C1461 H1449 0.950 . S
C1461 C1457 1.393 . S
C1461 C1460 1.391 . S
C1462 H1452 0.950 . S
C1462 C1463 1.386 . S
C1462 C1464 1.391 . S
C1463 C1462 1.386 . S
C1463 C1467 1.393 . S
C1464 H1453 0.950 . S
C1464 C1462 1.391 . S
C1464 C1465 1.400 . S
C1465 C1459 1.491 . S
C1465 C1464 1.400 . S
C1465 C1466 1.398 . S
C1466 H1454 0.950 . S
C1466 C1465 1.398 . S
C1466 C1467 1.391 . S
C1467 H1455 0.950 . S
C1467 C1463 1.393 . S
C1467 C1466 1.391 . S
H1468 C1476 0.950 . S
H1469 C1481 0.950 . S
H1470 C1478 0.950 . S
H1471 C1480 0.950 . S
H1472 C1482 0.950 . S
H1473 C1484 0.950 . S
H1474 C1486 0.950 . S
H1475 C1487 0.950 . S
C1476 H1468 0.950 . S
C1476 C1477 1.386 . S
C1476 C1478 1.391 . S
C1477 C1476 1.386 . S
C1477 C1481 1.393 . S
C1478 H1470 0.950 . S
C1478 C1476 1.391 . S
C1478 C1479 1.400 . S
C1479 C1478 1.400 . S
C1479 C1480 1.398 . S
C1479 C1485 1.491 . S
C1480 H1471 0.950 . S
C1480 C1479 1.398 . S
C1480 C1481 1.391 . S
C1481 H1469 0.950 . S
C1481 C1477 1.393 . S
C1481 C1480 1.391 . S
C1482 H1472 0.950 . S
C1482 C1483 1.386 . S
C1482 C1484 1.391 . S
C1483 C1482 1.386 . S
C1483 C1487 1.393 . S
C1484 H1473 0.950 . S
C1484 C1482 1.391 . S
C1484 C1485 1.400 . S
C1485 C1479 1.491 . S
C1485 C1484 1.400 . S
C1485 C1486 1.398 . S
C1486 H1474 0.950 . S
C1486 C1485 1.398 . S
C1486 C1487 1.391 . S
C1487 H1475 0.950 . S
C1487 C1483 1.393 . S
C1487 C1486 1.391 . S
H1488 C1496 0.950 . S
H1489 C1501 0.950 . S
H1490 C1498 0.950 . S
H1491 C1500 0.950 . S
H1492 C1502 0.950 . S
H1493 C1504 0.950 . S
H1494 C1506 0.950 . S
H1495 C1507 0.950 . S
C1496 H1488 0.950 . S
C1496 C1497 1.386 . S
C1496 C1498 1.391 . S
C1497 C1496 1.386 . S
C1497 C1501 1.393 . S
C1498 H1490 0.950 . S
C1498 C1496 1.391 . S
C1498 C1499 1.400 . S
C1499 C1498 1.400 . S
C1499 C1500 1.398 . S
C1499 C1505 1.491 . S
C1500 H1491 0.950 . S
C1500 C1499 1.398 . S
C1500 C1501 1.391 . S
C1501 H1489 0.950 . S
C1501 C1497 1.393 . S
C1501 C1500 1.391 . S
C1502 H1492 0.950 . S
C1502 C1503 1.386 . S
C1502 C1504 1.391 . S
C1503 C1502 1.386 . S
C1503 C1507 1.393 . S
C1504 H1493 0.950 . S
C1504 C1502 1.391 . S
C1504 C1505 1.400 . S
C1505 C1499 1.491 . S
C1505 C1504 1.400 . S
C1505 C1506 1.398 . S
C1506 H1494 0.950 . S
C1506 C1505 1.398 . S
C1506 C1507 1.391 . S
C1507 H1495 0.950 . S
C1507 C1503 1.393 . S
C1507 C1506 1.391 . S
H1508 C1516 0.950 . S
H1509 C1521 0.950 . S
H1510 C1518 0.950 . S
H1511 C1520 0.950 . S
H1512 C1522 0.950 . S
H1513 C1524 0.950 . S
H1514 C1526 0.950 . S
H1515 C1527 0.950 . S
C1516 H1508 0.950 . S
C1516 C1517 1.386 . S
C1516 C1518 1.391 . S
C1517 C1516 1.386 . S
C1517 C1521 1.393 . S
C1518 H1510 0.950 . S
C1518 C1516 1.391 . S
C1518 C1519 1.400 . S
C1519 C1518 1.400 . S
C1519 C1520 1.398 . S
C1519 C1525 1.491 . S
C1520 H1511 0.950 . S
C1520 C1519 1.398 . S
C1520 C1521 1.391 . S
C1521 H1509 0.950 . S
C1521 C1517 1.393 . S
C1521 C1520 1.391 . S
C1522 H1512 0.950 . S
C1522 C1523 1.386 . S
C1522 C1524 1.391 . S
C1523 C1522 1.386 . S
C1523 C1527 1.393 . S
C1524 H1513 0.950 . S
C1524 C1522 1.391 . S
C1524 C1525 1.400 . S
C1525 C1519 1.491 . S
C1525 C1524 1.400 . S
C1525 C1526 1.398 . S
C1526 H1514 0.950 . S
C1526 C1525 1.398 . S
C1526 C1527 1.391 . S
C1527 H1515 0.950 . S
C1527 C1523 1.393 . S
C1527 C1526 1.391 . S
H1528 C1536 0.950 . S
H1529 C1541 0.950 . S
H1530 C1538 0.950 . S
H1531 C1540 0.950 . S
H1532 C1542 0.950 . S
H1533 C1544 0.950 . S
H1534 C1546 0.950 . S
H1535 C1547 0.950 . S
C1536 H1528 0.950 . S
C1536 C1537 1.386 . S
C1536 C1538 1.391 . S
C1537 C1536 1.386 . S
C1537 C1541 1.393 . S
C1538 H1530 0.950 . S
C1538 C1536 1.391 . S
C1538 C1539 1.400 . S
C1539 C1538 1.400 . S
C1539 C1540 1.398 . S
C1539 C1545 1.491 . S
C1540 H1531 0.950 . S
C1540 C1539 1.398 . S
C1540 C1541 1.391 . S
C1541 H1529 0.950 . S
C1541 C1537 1.393 . S
C1541 C1540 1.391 . S
C1542 H1532 0.950 . S
C1542 C1543 1.386 . S
C1542 C1544 1.391 . S
C1543 C1542 1.386 . S
C1543 C1547 1.393 . S
C1544 H1533 0.950 . S
C1544 C1542 1.391 . S
C1544 C1545 1.400 . S
C1545 C1539 1.491 . S
C1545 C1544 1.400 . S
C1545 C1546 1.398 . S
C1546 H1534 0.950 . S
C1546 C1545 1.398 . S
C1546 C1547 1.391 . S
C1547 H1535 0.950 . S
C1547 C1543 1.393 . S
C1547 C1546 1.391 . S
H1548 C1556 0.950 . S
H1549 C1561 0.950 . S
H1550 C1558 0.950 . S
H1551 C1560 0.950 . S
H1552 C1562 0.950 . S
H1553 C1564 0.950 . S
H1554 C1566 0.950 . S
H1555 C1567 0.950 . S
C1556 H1548 0.950 . S
C1556 C1557 1.386 . S
C1556 C1558 1.391 . S
C1557 C1556 1.386 . S
C1557 C1561 1.393 . S
C1558 H1550 0.950 . S
C1558 C1556 1.391 . S
C1558 C1559 1.400 . S
C1559 C1558 1.400 . S
C1559 C1560 1.398 . S
C1559 C1565 1.491 . S
C1560 H1551 0.950 . S
C1560 C1559 1.398 . S
C1560 C1561 1.391 . S
C1561 H1549 0.950 . S
C1561 C1557 1.393 . S
C1561 C1560 1.391 . S
C1562 H1552 0.950 . S
C1562 C1563 1.386 . S
C1562 C1564 1.391 . S
C1563 C1562 1.386 . S
C1563 C1567 1.393 . S
C1564 H1553 0.950 . S
C1564 C1562 1.391 . S
C1564 C1565 1.400 . S
C1565 C1559 1.491 . S
C1565 C1564 1.400 . S
C1565 C1566 1.398 . S
C1566 H1554 0.950 . S
C1566 C1565 1.398 . S
C1566 C1567 1.391 . S
C1567 H1555 0.950 . S
C1567 C1563 1.393 . S
C1567 C1566 1.391 . S
H1568 C1576 0.950 . S
H1569 C1581 0.950 . S
H1570 C1578 0.950 . S
H1571 C1580 0.950 . S
H1572 C1582 0.950 . S
H1573 C1584 0.950 . S
H1574 C1586 0.950 . S
H1575 C1587 0.950 . S
C1576 H1568 0.950 . S
C1576 C1577 1.386 . S
C1576 C1578 1.391 . S
C1577 C1576 1.386 . S
C1577 C1581 1.393 . S
C1578 H1570 0.950 . S
C1578 C1576 1.391 . S
C1578 C1579 1.400 . S
C1579 C1578 1.400 . S
C1579 C1580 1.398 . S
C1579 C1585 1.491 . S
C1580 H1571 0.950 . S
C1580 C1579 1.398 . S
C1580 C1581 1.391 . S
C1581 H1569 0.950 . S
C1581 C1577 1.393 . S
C1581 C1580 1.391 . S
C1582 H1572 0.950 . S
C1582 C1583 1.386 . S
C1582 C1584 1.391 . S
C1583 C1582 1.386 . S
C1583 C1587 1.393 . S
C1584 H1573 0.950 . S
C1584 C1582 1.391 . S
C1584 C1585 1.400 . S
C1585 C1579 1.491 . S
C1585 C1584 1.400 . S
C1585 C1586 1.398 . S
C1586 H1574 0.950 . S
C1586 C1585 1.398 . S
C1586 C1587 1.391 . S
C1587 H1575 0.950 . S
C1587 C1583 1.393 . S
C1587 C1586 1.391 . S
H1588 C1596 0.950 . S
H1589 C1601 0.950 . S
H1590 C1598 0.950 . S
H1591 C1600 0.950 . S
H1592 C1602 0.950 . S
H1593 C1604 0.950 . S
H1594 C1606 0.950 . S
H1595 C1607 0.950 . S
C1596 H1588 0.950 . S
C1596 C1597 1.386 . S
C1596 C1598 1.391 . S
C1597 C1596 1.386 . S
C1597 C1601 1.393 . S
C1598 H1590 0.950 . S
C1598 C1596 1.391 . S
C1598 C1599 1.400 . S
C1599 C1598 1.400 . S
C1599 C1600 1.398 . S
C1599 C1605 1.491 . S
C1600 H1591 0.950 . S
C1600 C1599 1.398 . S
C1600 C1601 1.391 . S
C1601 H1589 0.950 . S
C1601 C1597 1.393 . S
C1601 C1600 1.391 . S
C1602 H1592 0.950 . S
C1602 C1603 1.386 . S
C1602 C1604 1.391 . S
C1603 C1602 1.386 . S
C1603 C1607 1.393 . S
C1604 H1593 0.950 . S
C1604 C1602 1.391 . S
C1604 C1605 1.400 . S
C1605 C1599 1.491 . S
C1605 C1604 1.400 . S
C1605 C1606 1.398 . S
C1606 H1594 0.950 . S
C1606 C1605 1.398 . S
C1606 C1607 1.391 . S
C1607 H1595 0.950 . S
C1607 C1603 1.393 . S
C1607 C1606 1.391 . S
H1608 C1616 0.950 . S
H1609 C1621 0.950 . S
H1610 C1618 0.950 . S
H1611 C1620 0.950 . S
H1612 C1622 0.950 . S
H1613 C1624 0.950 . S
H1614 C1626 0.950 . S
H1615 C1627 0.950 . S
C1616 H1608 0.950 . S
C1616 C1617 1.386 . S
C1616 C1618 1.391 . S
C1617 C1616 1.386 . S
C1617 C1621 1.393 . S
C1618 H1610 0.950 . S
C1618 C1616 1.391 . S
C1618 C1619 1.400 . S
C1619 C1618 1.400 . S
C1619 C1620 1.398 . S
C1619 C1625 1.491 . S
C1620 H1611 0.950 . S
C1620 C1619 1.398 . S
C1620 C1621 1.391 . S
C1621 H1609 0.950 . S
C1621 C1617 1.393 . S
C1621 C1620 1.391 . S
C1622 H1612 0.950 . S
C1622 C1623 1.386 . S
C1622 C1624 1.391 . S
C1623 C1622 1.386 . S
C1623 C1627 1.393 . S
C1624 H1613 0.950 . S
C1624 C1622 1.391 . S
C1624 C1625 1.400 . S
C1625 C1619 1.491 . S
C1625 C1624 1.400 . S
C1625 C1626 1.398 . S
C1626 H1614 0.950 . S
C1626 C1625 1.398 . S
C1626 C1627 1.391 . S
C1627 H1615 0.950 . S
C1627 C1623 1.393 . S
C1627 C1626 1.391 . S
H1628 C1636 0.950 . S
H1629 C1641 0.950 . S
H1630 C1638 0.950 . S
H1631 C1640 0.950 . S
H1632 C1642 0.950 . S
H1633 C1644 0.950 . S
H1634 C1646 0.950 . S
H1635 C1647 0.950 . S
C1636 H1628 0.950 . S
C1636 C1637 1.386 . S
C1636 C1638 1.391 . S
C1637 C1636 1.386 . S
C1637 C1641 1.393 . S
C1638 H1630 0.950 . S
C1638 C1636 1.391 . S
C1638 C1639 1.400 . S
C1639 C1638 1.400 . S
C1639 C1640 1.398 . S
C1639 C1645 1.491 . S
C1640 H1631 0.950 . S
C1640 C1639 1.398 . S
C1640 C1641 1.391 . S
C1641 H1629 0.950 . S
C1641 C1637 1.393 . S
C1641 C1640 1.391 . S
C1642 H1632 0.950 . S
C1642 C1643 1.386 . S
C1642 C1644 1.391 . S
C1643 C1642 1.386 . S
C1643 C1647 1.393 . S
C1644 H1633 0.950 . S
C1644 C1642 1.391 . S
C1644 C1645 1.400 . S
C1645 C1639 1.491 . S
C1645 C1644 1.400 . S
C1645 C1646 1.398 . S
C1646 H1634 0.950 . S
C1646 C1645 1.398 . S
C1646 C1647 1.391 . S
C1647 H1635 0.950 . S
C1647 C1643 1.393 . S
C1647 C1646 1.391 . S
H1648 C1656 0.950 . S
H1649 C1661 0.950 . S
H1650 C1658 0.950 . S
H1651 C1660 0.950 . S
H1652 C1662 0.950 . S
H1653 C1664 0.950 . S
H1654 C1666 0.950 . S
H1655 C1667 0.950 . S
C1656 H1648 0.950 . S
C1656 C1657 1.386 . S
C1656 C1658 1.391 . S
C1657 C1656 1.386 . S
C1657 C1661 1.393 . S
C1658 H1650 0.950 . S
C1658 C1656 1.391 . S
C1658 C1659 1.400 . S
C1659 C1658 1.400 . S
C1659 C1660 1.398 . S
C1659 C1665 1.491 . S
C1660 H1651 0.950 . S
C1660 C1659 1.398 . S
C1660 C1661 1.391 . S
C1661 H1649 0.950 . S
C1661 C1657 1.393 . S
C1661 C1660 1.391 . S
C1662 H1652 0.950 . S
C1662 C1663 1.386 . S
C1662 C1664 1.391 . S
C1663 C1662 1.386 . S
C1663 C1667 1.393 . S
C1664 H1653 0.950 . S
C1664 C1662 1.391 . S
C1664 C1665 1.400 . S
C1665 C1659 1.491 . S
C1665 C1664 1.400 . S
C1665 C1666 1.398 . S
C1666 H1654 0.950 . S
C1666 C1665 1.398 . S
C1666 C1667 1.391 . S
C1667 H1655 0.950 . S
C1667 C1663 1.393 . S
C1667 C1666 1.391 . S
H1668 C1676 0.950 . S
H1669 C1681 0.950 . S
H1670 C1678 0.950 . S
H1671 C1680 0.950 . S
H1672 C1682 0.950 . S
H1673 C1684 0.950 . S
H1674 C1686 0.950 . S
H1675 C1687 0.950 . S
C1676 H1668 0.950 . S
C1676 C1677 1.386 . S
C1676 C1678 1.391 . S
C1677 C1676 1.386 . S
C1677 C1681 1.393 . S
C1678 H1670 0.950 . S
C1678 C1676 1.391 . S
C1678 C1679 1.400 . S
C1679 C1678 1.400 . S
C1679 C1680 1.398 . S
C1679 C1685 1.491 . S
C1680 H1671 0.950 . S
C1680 C1679 1.398 . S
C1680 C1681 1.391 . S
C1681 H1669 0.950 . S
C1681 C1677 1.393 . S
C1681 C1680 1.391 . S
C1682 H1672 0.950 . S
C1682 C1683 1.386 . S
C1682 C1684 1.391 . S
C1683 C1682 1.386 . S
C1683 C1687 1.393 . S
C1684 H1673 0.950 . S
C1684 C1682 1.391 . S
C1684 C1685 1.400 . S
C1685 C1679 1.491 . S
C1685 C1684 1.400 . S
C1685 C1686 1.398 . S
C1686 H1674 0.950 . S
C1686 C1685 1.398 . S
C1686 C1687 1.391 . S
C1687 H1675 0.950 . S
C1687 C1683 1.393 . S
C1687 C1686 1.391 . S
H1688 C1696 0.950 . S
H1689 C1701 0.950 . S
H1690 C1698 0.950 . S
H1691 C1700 0.950 . S
H1692 C1702 0.950 . S
H1693 C1704 0.950 . S
H1694 C1706 0.950 . S
H1695 C1707 0.950 . S
C1696 H1688 0.950 . S
C1696 C1697 1.386 . S
C1696 C1698 1.391 . S
C1697 C1696 1.386 . S
C1697 C1701 1.393 . S
C1698 H1690 0.950 . S
C1698 C1696 1.391 . S
C1698 C1699 1.400 . S
C1699 C1698 1.400 . S
C1699 C1700 1.398 . S
C1699 C1705 1.491 . S
C1700 H1691 0.950 . S
C1700 C1699 1.398 . S
C1700 C1701 1.391 . S
C1701 H1689 0.950 . S
C1701 C1697 1.393 . S
C1701 C1700 1.391 . S
C1702 H1692 0.950 . S
C1702 C1703 1.386 . S
C1702 C1704 1.391 . S
C1703 C1702 1.386 . S
C1703 C1707 1.393 . S
C1704 H1693 0.950 . S
C1704 C1702 1.391 . S
C1704 C1705 1.400 . S
C1705 C1699 1.491 . S
C1705 C1704 1.400 . S
C1705 C1706 1.398 . S
C1706 H1694 0.950 . S
C1706 C1705 1.398 . S
C1706 C1707 1.391 . S
C1707 H1695 0.950 . S
C1707 C1703 1.393 . S
C1707 C1706 1.391 . S
H1708 C1716 0.950 . S
H1709 C1721 0.950 . S
H1710 C1718 0.950 . S
H1711 C1720 0.950 . S
H1712 C1722 0.950 . S
H1713 C1724 0.950 . S
H1714 C1726 0.950 . S
H1715 C1727 0.950 . S
C1716 H1708 0.950 . S
C1716 C1717 1.386 . S
C1716 C1718 1.391 . S
C1717 C1716 1.386 . S
C1717 C1721 1.393 . S
C1718 H1710 0.950 . S
C1718 C1716 1.391 . S
C1718 C1719 1.400 . S
C1719 C1718 1.400 . S
C1719 C1720 1.398 . S
C1719 C1725 1.491 . S
C1720 H1711 0.950 . S
C1720 C1719 1.398 . S
C1720 C1721 1.391 . S
C1721 H1709 0.950 . S
C1721 C1717 1.393 . S
C1721 C1720 1.391 . S
C1722 H1712 0.950 . S
C1722 C1723 1.386 . S
C1722 C1724 1.391 . S
C1723 C1722 1.386 . S
C1723 C1727 1.393 . S
C1724 H1713 0.950 . S
C1724 C1722 1.391 . S
C1724 C1725 1.400 . S
C1725 C1719 1.491 . S
C1725 C1724 1.400 . S
C1725 C1726 1.398 . S
C1726 H1714 0.950 . S
C1726 C1725 1.398 . S
C1726 C1727 1.391 . S
C1727 H1715 0.950 . S
C1727 C1723 1.393 . S
C1727 C1726 1.391 . S
H1728 C1736 0.950 . S
H1729 C1741 0.950 . S
H1730 C1738 0.950 . S
H1731 C1740 0.950 . S
H1732 C1742 0.950 . S
H1733 C1744 0.950 . S
H1734 C1746 0.950 . S
H1735 C1747 0.950 . S
C1736 H1728 0.950 . S
C1736 C1737 1.386 . S
C1736 C1738 1.391 . S
C1737 C1736 1.386 . S
C1737 C1741 1.393 . S
C1738 H1730 0.950 . S
C1738 C1736 1.391 . S
C1738 C1739 1.400 . S
C1739 C1738 1.400 . S
C1739 C1740 1.398 . S
C1739 C1745 1.491 . S
C1740 H1731 0.950 . S
C1740 C1739 1.398 . S
C1740 C1741 1.391 . S
C1741 H1729 0.950 . S
C1741 C1737 1.393 . S
C1741 C1740 1.391 . S
C1742 H1732 0.950 . S
C1742 C1743 1.386 . S
C1742 C1744 1.391 . S
C1743 C1742 1.386 . S
C1743 C1747 1.393 . S
C1744 H1733 0.950 . S
C1744 C1742 1.391 . S
C1744 C1745 1.400 . S
C1745 C1739 1.491 . S
C1745 C1744 1.400 . S
C1745 C1746 1.398 . S
C1746 H1734 0.950 . S
C1746 C1745 1.398 . S
C1746 C1747 1.391 . S
C1747 H1735 0.950 . S
C1747 C1743 1.393 . S
C1747 C1746 1.391 . S
H1748 C1756 0.950 . S
H1749 C1761 0.950 . S
H1750 C1758 0.950 . S
H1751 C1760 0.950 . S
H1752 C1762 0.950 . S
H1753 C1764 0.950 . S
H1754 C1766 0.950 . S
H1755 C1767 0.950 . S
C1756 H1748 0.950 . S
C1756 C1757 1.386 . S
C1756 C1758 1.391 . S
C1757 C1756 1.386 . S
C1757 C1761 1.393 . S
C1758 H1750 0.950 . S
C1758 C1756 1.391 . S
C1758 C1759 1.400 . S
C1759 C1758 1.400 . S
C1759 C1760 1.398 . S
C1759 C1765 1.491 . S
C1760 H1751 0.950 . S
C1760 C1759 1.398 . S
C1760 C1761 1.391 . S
C1761 H1749 0.950 . S
C1761 C1757 1.393 . S
C1761 C1760 1.391 . S
C1762 H1752 0.950 . S
C1762 C1763 1.386 . S
C1762 C1764 1.391 . S
C1763 C1762 1.386 . S
C1763 C1767 1.393 . S
C1764 H1753 0.950 . S
C1764 C1762 1.391 . S
C1764 C1765 1.400 . S
C1765 C1759 1.491 . S
C1765 C1764 1.400 . S
C1765 C1766 1.398 . S
C1766 H1754 0.950 . S
C1766 C1765 1.398 . S
C1766 C1767 1.391 . S
C1767 H1755 0.950 . S
C1767 C1763 1.393 . S
C1767 C1766 1.391 . S
H1768 C1776 0.950 . S
H1769 C1781 0.950 . S
H1770 C1778 0.950 . S
H1771 C1780 0.950 . S
H1772 C1782 0.950 . S
H1773 C1784 0.950 . S
H1774 C1786 0.950 . S
H1775 C1787 0.950 . S
C1776 H1768 0.950 . S
C1776 C1777 1.386 . S
C1776 C1778 1.391 . S
C1777 C1776 1.386 . S
C1777 C1781 1.393 . S
C1778 H1770 0.950 . S
C1778 C1776 1.391 . S
C1778 C1779 1.400 . S
C1779 C1778 1.400 . S
C1779 C1780 1.398 . S
C1779 C1785 1.491 . S
C1780 H1771 0.950 . S
C1780 C1779 1.398 . S
C1780 C1781 1.391 . S
C1781 H1769 0.950 . S
C1781 C1777 1.393 . S
C1781 C1780 1.391 . S
C1782 H1772 0.950 . S
C1782 C1783 1.386 . S
C1782 C1784 1.391 . S
C1783 C1782 1.386 . S
C1783 C1787 1.393 . S
C1784 H1773 0.950 . S
C1784 C1782 1.391 . S
C1784 C1785 1.400 . S
C1785 C1779 1.491 . S
C1785 C1784 1.400 . S
C1785 C1786 1.398 . S
C1786 H1774 0.950 . S
C1786 C1785 1.398 . S
C1786 C1787 1.391 . S
C1787 H1775 0.950 . S
C1787 C1783 1.393 . S
C1787 C1786 1.391 . S
H1788 C1796 0.950 . S
H1789 C1801 0.950 . S
H1790 C1798 0.950 . S
H1791 C1800 0.950 . S
H1792 C1802 0.950 . S
H1793 C1804 0.950 . S
H1794 C1806 0.950 . S
H1795 C1807 0.950 . S
C1796 H1788 0.950 . S
C1796 C1797 1.386 . S
C1796 C1798 1.391 . S
C1797 C1796 1.386 . S
C1797 C1801 1.393 . S
C1798 H1790 0.950 . S
C1798 C1796 1.391 . S
C1798 C1799 1.400 . S
C1799 C1798 1.400 . S
C1799 C1800 1.398 . S
C1799 C1805 1.491 . S
C1800 H1791 0.950 . S
C1800 C1799 1.398 . S
C1800 C1801 1.391 . S
C1801 H1789 0.950 . S
C1801 C1797 1.393 . S
C1801 C1800 1.391 . S
C1802 H1792 0.950 . S
C1802 C1803 1.386 . S
C1802 C1804 1.391 . S
C1803 C1802 1.386 . S
C1803 C1807 1.393 . S
C1804 H1793 0.950 . S
C1804 C1802 1.391 . S
C1804 C1805 1.400 . S
C1805 C1799 1.491 . S
C1805 C1804 1.400 . S
C1805 C1806 1.398 . S
C1806 H1794 0.950 . S
C1806 C1805 1.398 . S
C1806 C1807 1.391 . S
C1807 H1795 0.950 . S
C1807 C1803 1.393 . S
C1807 C1806 1.391 . S
H1808 C1816 0.950 . S
H1809 C1821 0.950 . S
H1810 C1818 0.950 . S
H1811 C1820 0.950 . S
H1812 C1822 0.950 . S
H1813 C1824 0.950 . S
H1814 C1826 0.950 . S
H1815 C1827 0.950 . S
C1816 H1808 0.950 . S
C1816 C1817 1.386 . S
C1816 C1818 1.391 . S
C1817 C1816 1.386 . S
C1817 C1821 1.393 . S
C1818 H1810 0.950 . S
C1818 C1816 1.391 . S
C1818 C1819 1.400 . S
C1819 C1818 1.400 . S
C1819 C1820 1.398 . S
C1819 C1825 1.491 . S
C1820 H1811 0.950 . S
C1820 C1819 1.398 . S
C1820 C1821 1.391 . S
C1821 H1809 0.950 . S
C1821 C1817 1.393 . S
C1821 C1820 1.391 . S
C1822 H1812 0.950 . S
C1822 C1823 1.386 . S
C1822 C1824 1.391 . S
C1823 C1822 1.386 . S
C1823 C1827 1.393 . S
C1824 H1813 0.950 . S
C1824 C1822 1.391 . S
C1824 C1825 1.400 . S
C1825 C1819 1.491 . S
C1825 C1824 1.400 . S
C1825 C1826 1.398 . S
C1826 H1814 0.950 . S
C1826 C1825 1.398 . S
C1826 C1827 1.391 . S
C1827 H1815 0.950 . S
C1827 C1823 1.393 . S
C1827 C1826 1.391 . S
H1828 C1836 0.950 . S
H1829 C1841 0.950 . S
H1830 C1838 0.950 . S
H1831 C1840 0.950 . S
H1832 C1842 0.950 . S
H1833 C1844 0.950 . S
H1834 C1846 0.950 . S
H1835 C1847 0.950 . S
C1836 H1828 0.950 . S
C1836 C1837 1.386 . S
C1836 C1838 1.391 . S
C1837 C1836 1.386 . S
C1837 C1841 1.393 . S
C1838 H1830 0.950 . S
C1838 C1836 1.391 . S
C1838 C1839 1.400 . S
C1839 C1838 1.400 . S
C1839 C1840 1.398 . S
C1839 C1845 1.491 . S
C1840 H1831 0.950 . S
C1840 C1839 1.398 . S
C1840 C1841 1.391 . S
C1841 H1829 0.950 . S
C1841 C1837 1.393 . S
C1841 C1840 1.391 . S
C1842 H1832 0.950 . S
C1842 C1843 1.386 . S
C1842 C1844 1.391 . S
C1843 C1842 1.386 . S
C1843 C1847 1.393 . S
C1844 H1833 0.950 . S
C1844 C1842 1.391 . S
C1844 C1845 1.400 . S
C1845 C1839 1.491 . S
C1845 C1844 1.400 . S
C1845 C1846 1.398 . S
C1846 H1834 0.950 . S
C1846 C1845 1.398 . S
C1846 C1847 1.391 . S
C1847 H1835 0.950 . S
C1847 C1843 1.393 . S
C1847 C1846 1.391 . S
H1848 C1856 0.950 . S
H1849 C1861 0.950 . S
H1850 C1858 0.950 . S
H1851 C1860 0.950 . S
H1852 C1862 0.950 . S
H1853 C1864 0.950 . S
H1854 C1866 0.950 . S
H1855 C1867 0.950 . S
C1856 H1848 0.950 . S
C1856 C1857 1.386 . S
C1856 C1858 1.391 . S
C1857 C1856 1.386 . S
C1857 C1861 1.393 . S
C1858 H1850 0.950 . S
C1858 C1856 1.391 . S
C1858 C1859 1.400 . S
C1859 C1858 1.400 . S
C1859 C1860 1.398 . S
C1859 C1865 1.491 . S
C1860 H1851 0.950 . S
C1860 C1859 1.398 . S
C1860 C1861 1.391 . S
C1861 H1849 0.950 . S
C1861 C1857 1.393 . S
C1861 C1860 1.391 . S
C1862 H1852 0.950 . S
C1862 C1863 1.386 . S
C1862 C1864 1.391 . S
C1863 C1862 1.386 . S
C1863 C1867 1.393 . S
C1864 H1853 0.950 . S
C1864 C1862 1.391 . S
C1864 C1865 1.400 . S
C1865 C1859 1.491 . S
C1865 C1864 1.400 . S
C1865 C1866 1.398 . S
C1866 H1854 0.950 . S
C1866 C1865 1.398 . S
C1866 C1867 1.391 . S
C1867 H1855 0.950 . S
C1867 C1863 1.393 . S
C1867 C1866 1.391 . S
H1868 C1876 0.950 . S
H1869 C1881 0.950 . S
H1870 C1878 0.950 . S
H1871 C1880 0.950 . S
H1872 C1882 0.950 . S
H1873 C1884 0.950 . S
H1874 C1886 0.950 . S
H1875 C1887 0.950 . S
C1876 H1868 0.950 . S
C1876 C1877 1.386 . S
C1876 C1878 1.391 . S
C1877 C1876 1.386 . S
C1877 C1881 1.393 . S
C1878 H1870 0.950 . S
C1878 C1876 1.391 . S
C1878 C1879 1.400 . S
C1879 C1878 1.400 . S
C1879 C1880 1.398 . S
C1879 C1885 1.491 . S
C1880 H1871 0.950 . S
C1880 C1879 1.398 . S
C1880 C1881 1.391 . S
C1881 H1869 0.950 . S
C1881 C1877 1.393 . S
C1881 C1880 1.391 . S
C1882 H1872 0.950 . S
C1882 C1883 1.386 . S
C1882 C1884 1.391 . S
C1883 C1882 1.386 . S
C1883 C1887 1.393 . S
C1884 H1873 0.950 . S
C1884 C1882 1.391 . S
C1884 C1885 1.400 . S
C1885 C1879 1.491 . S
C1885 C1884 1.400 . S
C1885 C1886 1.398 . S
C1886 H1874 0.950 . S
C1886 C1885 1.398 . S
C1886 C1887 1.391 . S
C1887 H1875 0.950 . S
C1887 C1883 1.393 . S
C1887 C1886 1.391 . S
H1888 C1896 0.950 . S
H1889 C1901 0.950 . S
H1890 C1898 0.950 . S
H1891 C1900 0.950 . S
H1892 C1902 0.950 . S
H1893 C1904 0.950 . S
H1894 C1906 0.950 . S
H1895 C1907 0.950 . S
C1896 H1888 0.950 . S
C1896 C1897 1.386 . S
C1896 C1898 1.391 . S
C1897 C1896 1.386 . S
C1897 C1901 1.393 . S
C1898 H1890 0.950 . S
C1898 C1896 1.391 . S
C1898 C1899 1.400 . S
C1899 C1898 1.400 . S
C1899 C1900 1.398 . S
C1899 C1905 1.491 . S
C1900 H1891 0.950 . S
C1900 C1899 1.398 . S
C1900 C1901 1.391 . S
C1901 H1889 0.950 . S
C1901 C1897 1.393 . S
C1901 C1900 1.391 . S
C1902 H1892 0.950 . S
C1902 C1903 1.386 . S
C1902 C1904 1.391 . S
C1903 C1902 1.386 . S
C1903 C1907 1.393 . S
C1904 H1893 0.950 . S
C1904 C1902 1.391 . S
C1904 C1905 1.400 . S
C1905 C1899 1.491 . S
C1905 C1904 1.400 . S
C1905 C1906 1.398 . S
C1906 H1894 0.950 . S
C1906 C1905 1.398 . S
C1906 C1907 1.391 . S
C1907 H1895 0.950 . S
C1907 C1903 1.393 . S
C1907 C1906 1.391 . S
H1908 C1916 0.950 . S
H1909 C1921 0.950 . S
H1910 C1918 0.950 . S
H1911 C1920 0.950 . S
H1912 C1922 0.950 . S
H1913 C1924 0.950 . S
H1914 C1926 0.950 . S
H1915 C1927 0.950 . S
C1916 H1908 0.950 . S
C1916 C1917 1.386 . S
C1916 C1918 1.391 . S
C1917 C1916 1.386 . S
C1917 C1921 1.393 . S
C1918 H1910 0.950 . S
C1918 C1916 1.391 . S
C1918 C1919 1.400 . S
C1919 C1918 1.400 . S
C1919 C1920 1.398 . S
C1919 C1925 1.491 . S
C1920 H1911 0.950 . S
C1920 C1919 1.398 . S
C1920 C1921 1.391 . S
C1921 H1909 0.950 . S
C1921 C1917 1.393 . S
C1921 C1920 1.391 . S
C1922 H1912 0.950 . S
C1922 C1923 1.386 . S
C1922 C1924 1.391 . S
C1923 C1922 1.386 . S
C1923 C1927 1.393 . S
C1924 H1913 0.950 . S
C1924 C1922 1.391 . S
C1924 C1925 1.400 . S
C1925 C1919 1.491 . S
C1925 C1924 1.400 . S
C1925 C1926 1.398 . S
C1926 H1914 0.950 . S
C1926 C1925 1.398 . S
C1926 C1927 1.391 . S
C1927 H1915 0.950 . S
C1927 C1923 1.393 . S
C1927 C1926 1.391 . S
H1928 C1936 0.950 . S
H1929 C1941 0.950 . S
H1930 C1938 0.950 . S
H1931 C1940 0.950 . S
H1932 C1942 0.950 . S
H1933 C1944 0.950 . S
H1934 C1946 0.950 . S
H1935 C1947 0.950 . S
C1936 H1928 0.950 . S
C1936 C1937 1.386 . S
C1936 C1938 1.391 . S
C1937 C1936 1.386 . S
C1937 C1941 1.393 . S
C1938 H1930 0.950 . S
C1938 C1936 1.391 . S
C1938 C1939 1.400 . S
C1939 C1938 1.400 . S
C1939 C1940 1.398 . S
C1939 C1945 1.491 . S
C1940 H1931 0.950 . S
C1940 C1939 1.398 . S
C1940 C1941 1.391 . S
C1941 H1929 0.950 . S
C1941 C1937 1.393 . S
C1941 C1940 1.391 . S
C1942 H1932 0.950 . S
C1942 C1943 1.386 . S
C1942 C1944 1.391 . S
C1943 C1942 1.386 . S
C1943 C1947 1.393 . S
C1944 H1933 0.950 . S
C1944 C1942 1.391 . S
C1944 C1945 1.400 . S
C1945 C1939 1.491 . S
C1945 C1944 1.400 . S
C1945 C1946 1.398 . S
C1946 H1934 0.950 . S
C1946 C1945 1.398 . S
C1946 C1947 1.391 . S
C1947 H1935 0.950 . S
C1947 C1943 1.393 . S
C1947 C1946 1.391 . S
H1948 C1956 0.950 . S
H1949 C1961 0.950 . S
H1950 C1958 0.950 . S
H1951 C1960 0.950 . S
H1952 C1962 0.950 . S
H1953 C1964 0.950 . S
H1954 C1966 0.950 . S
H1955 C1967 0.950 . S
C1956 H1948 0.950 . S
C1956 C1957 1.386 . S
C1956 C1958 1.391 . S
C1957 C1956 1.386 . S
C1957 C1961 1.393 . S
C1958 H1950 0.950 . S
C1958 C1956 1.391 . S
C1958 C1959 1.400 . S
C1959 C1958 1.400 . S
C1959 C1960 1.398 . S
C1959 C1965 1.491 . S
C1960 H1951 0.950 . S
C1960 C1959 1.398 . S
C1960 C1961 1.391 . S
C1961 H1949 0.950 . S
C1961 C1957 1.393 . S
C1961 C1960 1.391 . S
C1962 H1952 0.950 . S
C1962 C1963 1.386 . S
C1962 C1964 1.391 . S
C1963 C1962 1.386 . S
C1963 C1967 1.393 . S
C1964 H1953 0.950 . S
C1964 C1962 1.391 . S
C1964 C1965 1.400 . S
C1965 C1959 1.491 . S
C1965 C1964 1.400 . S
C1965 C1966 1.398 . S
C1966 H1954 0.950 . S
C1966 C1965 1.398 . S
C1966 C1967 1.391 . S
C1967 H1955 0.950 . S
C1967 C1963 1.393 . S
C1967 C1966 1.391 . S
C537 C7 1.210 . S
C543 C360 1.265 . S
C557 C29 1.236 . S
C563 C514 1.268 . S
C577 C470 1.269 . S
C583 C51 1.229 . S
C597 C72 1.233 . S
C603 C492 1.268 . S
C617 C94 1.236 . S
C623 C378 1.269 . S
C637 C117 1.235 . S
C643 C400 1.268 . S
C657 C138 1.207 . S
C663 C422 1.277 . S
C677 C160 1.228 . S
C683 C444 1.269 . S
C697 C183 1.205 . S
C703 C8 1.265 . S
C717 C204 1.208 . S
C723 C30 1.271 . S
C737 C52 1.269 . S
C743 C226 1.228 . S
C757 C70 1.269 . S
C763 C249 1.230 . S
C777 C270 1.237 . S
C783 C92 1.266 . S
C797 C293 1.237 . S
C803 C118 1.268 . S
C817 C315 1.206 . S
C823 C136 1.273 . S
C837 C336 1.236 . S
C843 C158 1.267 . S
C857 C359 1.224 . S
C863 C184 1.263 . S
C877 C380 1.205 . S
C883 C268 1.278 . S
C897 C294 1.269 . S
C903 C402 1.227 . S
C917 C424 1.212 . S
C923 C316 1.269 . S
C937 C446 1.205 . S
C943 C334 1.272 . S
C957 C469 1.213 . S
C963 C224 1.273 . S
C977 C250 1.268 . S
C983 C491 1.233 . S
C997 C513 1.215 . S
C1003 C202 1.271 . S
C1017 C466 1.271 . S
C1023 C97 1.216 . S
C1037 C488 1.270 . S
C1043 C115 1.225 . S
C1057 C141 1.230 . S
C1063 C356 1.270 . S
C1077 C163 1.237 . S
C1083 C510 1.267 . S
C1097 C426 1.268 . S
C1103 C5 1.238 . S
C1117 C27 1.237 . S
C1123 C448 1.267 . S
C1137 C382 1.271 . S
C1143 C49 1.204 . S
C1157 C75 1.232 . S
C1163 C404 1.268 . S
C1177 C313 1.229 . S
C1183 C96 1.275 . S
C1197 C339 1.207 . S
C1203 C114 1.271 . S
C1217 C273 1.211 . S
C1223 C140 1.264 . S
C1237 C162 1.268 . S
C1243 C291 1.237 . S
C1257 C229 1.233 . S
C1263 C4 1.270 . S
C1277 C247 1.222 . S
C1283 C26 1.270 . S
C1297 C181 1.223 . S
C1303 C48 1.268 . S
C1317 C207 1.218 . S
C1323 C74 1.269 . S
C1337 C312 1.269 . S
C1343 C467 1.230 . S
C1357 C427 1.224 . S
C1363 C228 1.263 . S
C1377 C246 1.271 . S
C1383 C449 1.210 . S
C1397 C383 1.210 . S
C1403 C180 1.273 . S
C1417 C405 1.233 . S
C1423 C206 1.268 . S
C1437 C357 1.214 . S
C1443 C272 1.268 . S
C1457 C511 1.233 . S
C1463 C290 1.268 . S
C1477 C338 1.270 . S
C1483 C489 1.215 . S
C1497 C445 1.413 . S
C1503 C9 1.421 . S
C1517 C379 1.406 . S
C1523 C31 1.425 . S
C1537 C53 1.413 . S
C1543 C401 1.409 . S
C1557 C71 1.421 . S
C1563 C423 1.409 . S
C1577 C515 1.417 . S
C1583 C93 1.419 . S
C1597 C119 1.405 . S
C1603 C471 1.415 . S
C1617 C493 1.412 . S
C1623 C137 1.428 . S
C1637 C159 1.407 . S
C1643 C361 1.407 . S
C1657 C185 1.421 . S
C1663 C335 1.417 . S
C1677 C269 1.412 . S
C1683 C203 1.410 . S
C1697 C225 1.411 . S
C1703 C295 1.427 . S
C1717 C317 1.410 . S
C1723 C251 1.422 . S
C1737 C403 1.405 . S
C1743 C95 1.424 . S
C1757 C425 1.424 . S
C1763 C116 1.405 . S
C1777 C139 1.405 . S
C1783 C447 1.412 . S
C1797 C161 1.420 . S
C1803 C381 1.417 . S
C1817 C490 1.414 . S
C1823 C6 1.409 . S
C1837 C358 1.422 . S
C1843 C28 1.409 . S
C1857 C512 1.423 . S
C1863 C50 1.414 . S
C1877 C73 1.413 . S
C1883 C468 1.410 . S
C1897 C205 1.422 . S
C1903 C314 1.410 . S
C1917 C337 1.405 . S
C1923 C227 1.414 . S
C1937 C271 1.424 . S
C1943 C248 1.411 . S
C1957 C292 1.421 . S
C1963 C182 1.423 . S
