# Generated by pormake.
# Topology uoh, (4)-cn, num edge types: 1
# Building blocks:
#     Node 0, Type 0, BuildingBlock: NAHDIM_clean_sbu_0, # of connection points: 4
#     Node 1, Type 0, BuildingBlock: NAHDIM_clean_sbu_0, # of connection points: 4
#     Node 2, Type 0, BuildingBlock: NAHDIM_clean_sbu_0, # of connection points: 4
#     Node 3, Type 0, BuildingBlock: NAHDIM_clean_sbu_0, # of connection points: 4
#     Node 4, Type 0, BuildingBlock: NAHDIM_clean_sbu_0, # of connection points: 4
#     Node 5, Type 0, BuildingBlock: NAHDIM_clean_sbu_0, # of connection points: 4
#     Node 6, Type 0, BuildingBlock: NAHDIM_clean_sbu_0, # of connection points: 4
#     Node 7, Type 0, BuildingBlock: NAHDIM_clean_sbu_0, # of connection points: 4
#     Node 8, Type 0, BuildingBlock: NAHDIM_clean_sbu_0, # of connection points: 4
#     Node 9, Type 0, BuildingBlock: NAHDIM_clean_sbu_0, # of connection points: 4
#     Node 10, Type 0, BuildingBlock: NAHDIM_clean_sbu_0, # of connection points: 4
#     Node 11, Type 0, BuildingBlock: NAHDIM_clean_sbu_0, # of connection points: 4
#     Node 12, Type 0, BuildingBlock: NAHDIM_clean_sbu_0, # of connection points: 4
#     Node 13, Type 0, BuildingBlock: NAHDIM_clean_sbu_0, # of connection points: 4
#     Node 14, Type 0, BuildingBlock: NAHDIM_clean_sbu_0, # of connection points: 4
#     Node 15, Type 0, BuildingBlock: NAHDIM_clean_sbu_0, # of connection points: 4
#     Node 16, Type 0, BuildingBlock: NAHDIM_clean_sbu_0, # of connection points: 4
#     Node 17, Type 0, BuildingBlock: NAHDIM_clean_sbu_0, # of connection points: 4
#     Node 18, Type 0, BuildingBlock: NAHDIM_clean_sbu_0, # of connection points: 4
#     Node 19, Type 0, BuildingBlock: NAHDIM_clean_sbu_0, # of connection points: 4
#     Node 20, Type 0, BuildingBlock: NAHDIM_clean_sbu_0, # of connection points: 4
#     Node 21, Type 0, BuildingBlock: NAHDIM_clean_sbu_0, # of connection points: 4
#     Node 22, Type 0, BuildingBlock: NAHDIM_clean_sbu_0, # of connection points: 4
#     Node 23, Type 0, BuildingBlock: NAHDIM_clean_sbu_0, # of connection points: 4
#     Node 24, Type 0, BuildingBlock: NAHDIM_clean_sbu_0, # of connection points: 4
#     Node 25, Type 0, BuildingBlock: NAHDIM_clean_sbu_0, # of connection points: 4
#     Node 26, Type 0, BuildingBlock: NAHDIM_clean_sbu_0, # of connection points: 4
#     Node 27, Type 0, BuildingBlock: NAHDIM_clean_sbu_0, # of connection points: 4
#     Node 28, Type 0, BuildingBlock: NAHDIM_clean_sbu_0, # of connection points: 4
#     Node 29, Type 0, BuildingBlock: NAHDIM_clean_sbu_0, # of connection points: 4
#     Node 30, Type 0, BuildingBlock: NAHDIM_clean_sbu_0, # of connection points: 4
#     Node 31, Type 0, BuildingBlock: NAHDIM_clean_sbu_0, # of connection points: 4
#     Node 32, Type 0, BuildingBlock: NAHDIM_clean_sbu_0, # of connection points: 4
#     Node 33, Type 0, BuildingBlock: NAHDIM_clean_sbu_0, # of connection points: 4
#     Node 34, Type 0, BuildingBlock: NAHDIM_clean_sbu_0, # of connection points: 4
#     Node 35, Type 0, BuildingBlock: NAHDIM_clean_sbu_0, # of connection points: 4
#     Edge 36, Type (0, 0), BuildingBlock: UVAHIK_clean_linker_0, # of connection points: 2
#     Edge 37, Type (0, 0), BuildingBlock: UVAHIK_clean_linker_0, # of connection points: 2
#     Edge 38, Type (0, 0), BuildingBlock: UVAHIK_clean_linker_0, # of connection points: 2
#     Edge 39, Type (0, 0), BuildingBlock: UVAHIK_clean_linker_0, # of connection points: 2
#     Edge 40, Type (0, 0), BuildingBlock: UVAHIK_clean_linker_0, # of connection points: 2
#     Edge 41, Type (0, 0), BuildingBlock: UVAHIK_clean_linker_0, # of connection points: 2
#     Edge 42, Type (0, 0), BuildingBlock: UVAHIK_clean_linker_0, # of connection points: 2
#     Edge 43, Type (0, 0), BuildingBlock: UVAHIK_clean_linker_0, # of connection points: 2
#     Edge 44, Type (0, 0), BuildingBlock: UVAHIK_clean_linker_0, # of connection points: 2
#     Edge 45, Type (0, 0), BuildingBlock: UVAHIK_clean_linker_0, # of connection points: 2
#     Edge 46, Type (0, 0), BuildingBlock: UVAHIK_clean_linker_0, # of connection points: 2
#     Edge 47, Type (0, 0), BuildingBlock: UVAHIK_clean_linker_0, # of connection points: 2
#     Edge 48, Type (0, 0), BuildingBlock: UVAHIK_clean_linker_0, # of connection points: 2
#     Edge 49, Type (0, 0), BuildingBlock: UVAHIK_clean_linker_0, # of connection points: 2
#     Edge 50, Type (0, 0), BuildingBlock: UVAHIK_clean_linker_0, # of connection points: 2
#     Edge 51, Type (0, 0), BuildingBlock: UVAHIK_clean_linker_0, # of connection points: 2
#     Edge 52, Type (0, 0), BuildingBlock: UVAHIK_clean_linker_0, # of connection points: 2
#     Edge 53, Type (0, 0), BuildingBlock: UVAHIK_clean_linker_0, # of connection points: 2
#     Edge 54, Type (0, 0), BuildingBlock: UVAHIK_clean_linker_0, # of connection points: 2
#     Edge 55, Type (0, 0), BuildingBlock: UVAHIK_clean_linker_0, # of connection points: 2
#     Edge 56, Type (0, 0), BuildingBlock: UVAHIK_clean_linker_0, # of connection points: 2
#     Edge 57, Type (0, 0), BuildingBlock: UVAHIK_clean_linker_0, # of connection points: 2
#     Edge 58, Type (0, 0), BuildingBlock: UVAHIK_clean_linker_0, # of connection points: 2
#     Edge 59, Type (0, 0), BuildingBlock: UVAHIK_clean_linker_0, # of connection points: 2
#     Edge 60, Type (0, 0), BuildingBlock: UVAHIK_clean_linker_0, # of connection points: 2
#     Edge 61, Type (0, 0), BuildingBlock: UVAHIK_clean_linker_0, # of connection points: 2
#     Edge 62, Type (0, 0), BuildingBlock: UVAHIK_clean_linker_0, # of connection points: 2
#     Edge 63, Type (0, 0), BuildingBlock: UVAHIK_clean_linker_0, # of connection points: 2
#     Edge 64, Type (0, 0), BuildingBlock: UVAHIK_clean_linker_0, # of connection points: 2
#     Edge 65, Type (0, 0), BuildingBlock: UVAHIK_clean_linker_0, # of connection points: 2
#     Edge 66, Type (0, 0), BuildingBlock: UVAHIK_clean_linker_0, # of connection points: 2
#     Edge 67, Type (0, 0), BuildingBlock: UVAHIK_clean_linker_0, # of connection points: 2
#     Edge 68, Type (0, 0), BuildingBlock: UVAHIK_clean_linker_0, # of connection points: 2
#     Edge 69, Type (0, 0), BuildingBlock: UVAHIK_clean_linker_0, # of connection points: 2
#     Edge 70, Type (0, 0), BuildingBlock: UVAHIK_clean_linker_0, # of connection points: 2
#     Edge 71, Type (0, 0), BuildingBlock: UVAHIK_clean_linker_0, # of connection points: 2
#     Edge 72, Type (0, 0), BuildingBlock: UVAHIK_clean_linker_0, # of connection points: 2
#     Edge 73, Type (0, 0), BuildingBlock: UVAHIK_clean_linker_0, # of connection points: 2
#     Edge 74, Type (0, 0), BuildingBlock: UVAHIK_clean_linker_0, # of connection points: 2
#     Edge 75, Type (0, 0), BuildingBlock: UVAHIK_clean_linker_0, # of connection points: 2
#     Edge 76, Type (0, 0), BuildingBlock: UVAHIK_clean_linker_0, # of connection points: 2
#     Edge 77, Type (0, 0), BuildingBlock: UVAHIK_clean_linker_0, # of connection points: 2
#     Edge 78, Type (0, 0), BuildingBlock: UVAHIK_clean_linker_0, # of connection points: 2
#     Edge 79, Type (0, 0), BuildingBlock: UVAHIK_clean_linker_0, # of connection points: 2
#     Edge 80, Type (0, 0), BuildingBlock: UVAHIK_clean_linker_0, # of connection points: 2
#     Edge 81, Type (0, 0), BuildingBlock: UVAHIK_clean_linker_0, # of connection points: 2
#     Edge 82, Type (0, 0), BuildingBlock: UVAHIK_clean_linker_0, # of connection points: 2
#     Edge 83, Type (0, 0), BuildingBlock: UVAHIK_clean_linker_0, # of connection points: 2
#     Edge 84, Type (0, 0), BuildingBlock: UVAHIK_clean_linker_0, # of connection points: 2
#     Edge 85, Type (0, 0), BuildingBlock: UVAHIK_clean_linker_0, # of connection points: 2
#     Edge 86, Type (0, 0), BuildingBlock: UVAHIK_clean_linker_0, # of connection points: 2
#     Edge 87, Type (0, 0), BuildingBlock: UVAHIK_clean_linker_0, # of connection points: 2
#     Edge 88, Type (0, 0), BuildingBlock: UVAHIK_clean_linker_0, # of connection points: 2
#     Edge 89, Type (0, 0), BuildingBlock: UVAHIK_clean_linker_0, # of connection points: 2
#     Edge 90, Type (0, 0), BuildingBlock: UVAHIK_clean_linker_0, # of connection points: 2
#     Edge 91, Type (0, 0), BuildingBlock: UVAHIK_clean_linker_0, # of connection points: 2
#     Edge 92, Type (0, 0), BuildingBlock: UVAHIK_clean_linker_0, # of connection points: 2
#     Edge 93, Type (0, 0), BuildingBlock: UVAHIK_clean_linker_0, # of connection points: 2
#     Edge 94, Type (0, 0), BuildingBlock: UVAHIK_clean_linker_0, # of connection points: 2
#     Edge 95, Type (0, 0), BuildingBlock: UVAHIK_clean_linker_0, # of connection points: 2
#     Edge 96, Type (0, 0), BuildingBlock: UVAHIK_clean_linker_0, # of connection points: 2
#     Edge 97, Type (0, 0), BuildingBlock: UVAHIK_clean_linker_0, # of connection points: 2
#     Edge 98, Type (0, 0), BuildingBlock: UVAHIK_clean_linker_0, # of connection points: 2
#     Edge 99, Type (0, 0), BuildingBlock: UVAHIK_clean_linker_0, # of connection points: 2
#     Edge 100, Type (0, 0), BuildingBlock: UVAHIK_clean_linker_0, # of connection points: 2
#     Edge 101, Type (0, 0), BuildingBlock: UVAHIK_clean_linker_0, # of connection points: 2
#     Edge 102, Type (0, 0), BuildingBlock: UVAHIK_clean_linker_0, # of connection points: 2
#     Edge 103, Type (0, 0), BuildingBlock: UVAHIK_clean_linker_0, # of connection points: 2
#     Edge 104, Type (0, 0), BuildingBlock: UVAHIK_clean_linker_0, # of connection points: 2
#     Edge 105, Type (0, 0), BuildingBlock: UVAHIK_clean_linker_0, # of connection points: 2
#     Edge 106, Type (0, 0), BuildingBlock: UVAHIK_clean_linker_0, # of connection points: 2
#     Edge 107, Type (0, 0), BuildingBlock: UVAHIK_clean_linker_0, # of connection points: 2
# Relax obj value: 0.231
# Max RMSD: 0.255
# Mean RMSD: 0.255
data_MOF--net-uoh--node1-NAHDIM_clean_sbu_0--edge1-UVAHIK_clean_linker_0
_symmetry_space_group_name_H-M    P1
_symmetry_Int_Tables_number       1
_symmetry_cell_setting            triclinic
loop_
_symmetry_equiv_pos_as_xyz
'x, y, z'
_cell_length_a     114.97989
_cell_length_b     115.00769
_cell_length_c     33.516689
_cell_angle_alpha  89.978241
_cell_angle_beta   90.012378
_cell_angle_gamma 120.00988
loop_
_atom_site_label
_atom_site_type_symbol
_atom_site_fract_x
_atom_site_fract_y
_atom_site_fract_z
_atom_type_partial_charge
C0 C 0.2453 0.17572 0.22793 0.0
O1 O 0.24926 0.17065 0.25647 0.0
O2 O 0.23965 0.14748 0.12867 0.0
Zn3 Zn 0.24618 0.15512 0.18311 0.0
O4 O 0.23594 0.14087 0.22394 0.0
C5 C 0.27408 0.16833 0.16169 0.0
O6 O 0.26989 0.17267 0.13177 0.0
O7 O 0.24354 0.17081 0.19304 0.0
C8 C 0.22432 0.13801 0.23587 0.0
O9 O 0.21859 0.14444 0.22069 0.0
C10 C 0.2298 0.14747 0.11145 0.0
O11 O 0.22346 0.15281 0.12957 0.0
O12 O 0.26567 0.16077 0.18777 0.0
C13 C 0.84667 0.0712 0.15092 0.0
O14 O 0.84553 0.07453 0.11423 0.0
O15 O 0.87855 0.09609 0.09933 0.0
Zn16 Zn 0.87184 0.09694 0.15382 0.0
O17 O 0.88666 0.10298 0.19391 0.0
C18 C 0.85925 0.11193 0.12539 0.0
O19 O 0.85694 0.10472 0.09287 0.0
O20 O 0.85685 0.07907 0.17167 0.0
C21 C 0.89512 0.11537 0.19829 0.0
O22 O 0.8946 0.12413 0.17425 0.0
C23 C 0.87751 0.08558 0.08341 0.0
O24 O 0.8718 0.07421 0.10328 0.0
O25 O 0.86534 0.11021 0.15442 0.0
C26 C 0.933 0.74475 0.18795 0.0
O27 O 0.92819 0.7424 0.15144 0.0
O28 O 0.90693 0.75334 0.16187 0.0
Zn29 Zn 0.90802 0.7441 0.21126 0.0
O30 O 0.90597 0.75349 0.25879 0.0
C31 C 0.88132 0.72238 0.20283 0.0
O32 O 0.87925 0.73244 0.19585 0.0
O33 O 0.926 0.74541 0.21624 0.0
C34 C 0.89988 0.76016 0.25788 0.0
O35 O 0.8942 0.76082 0.2246 0.0
C36 C 0.91671 0.76362 0.146 0.0
O37 O 0.92879 0.76879 0.16142 0.0
O38 O 0.89316 0.72485 0.21051 0.0
C39 C 0.17198 0.24049 0.32696 0.0
O40 O 0.16917 0.24153 0.36433 0.0
O41 O 0.13997 0.23507 0.36236 0.0
Zn42 Zn 0.14772 0.24157 0.30809 0.0
O43 O 0.13414 0.22989 0.26744 0.0
C44 C 0.15734 0.26907 0.32891 0.0
O45 O 0.16094 0.2654 0.36163 0.0
O46 O 0.1644 0.24051 0.29941 0.0
C47 C 0.12335 0.23022 0.26279 0.0
O48 O 0.12113 0.23828 0.28524 0.0
C49 C 0.13641 0.22334 0.37503 0.0
O50 O 0.13816 0.21504 0.35226 0.0
O51 O 0.15163 0.26053 0.3012 0.0
C52 C 0.77706 0.93647 0.29646 0.0
O53 O 0.78488 0.93137 0.30301 0.0
O54 O 0.76429 0.9095 0.37266 0.0
Zn55 Zn 0.75839 0.91003 0.31666 0.0
O56 O 0.76693 0.90276 0.27929 0.0
C57 C 0.73053 0.89668 0.34184 0.0
O58 O 0.7356 0.90334 0.37515 0.0
O59 O 0.76447 0.92902 0.301 0.0
C60 C 0.76076 0.89053 0.26852 0.0
O61 O 0.74862 0.88248 0.28223 0.0
C62 C 0.76121 0.89808 0.38687 0.0
O63 O 0.75451 0.88738 0.36448 0.0
O64 O 0.73831 0.89845 0.3127 0.0
C65 C 0.06622 0.84188 0.26998 0.0
O66 O 0.07486 0.84806 0.24105 0.0
O67 O 0.08508 0.87243 0.36722 0.0
Zn68 Zn 0.08509 0.86505 0.31312 0.0
O69 O 0.08709 0.87784 0.26966 0.0
C70 C 0.10267 0.85551 0.33741 0.0
O71 O 0.09407 0.85061 0.36708 0.0
O72 O 0.06842 0.84735 0.30416 0.0
C73 C 0.09816 0.88874 0.26577 0.0
O74 O 0.10761 0.89187 0.29259 0.0
C75 C 0.07494 0.86758 0.39021 0.0
O76 O 0.06341 0.85767 0.37753 0.0
O77 O 0.10086 0.86213 0.3102 0.0
C78 C 0.74401 0.81329 0.78587 0.0
O79 O 0.7401 0.81863 0.75801 0.0
O80 O 0.75236 0.84218 0.88468 0.0
Zn81 Zn 0.74352 0.8337 0.83296 0.0
O82 O 0.75261 0.84731 0.78975 0.0
C83 C 0.71914 0.83266 0.85969 0.0
O84 O 0.72726 0.84144 0.886 0.0
O85 O 0.74581 0.81792 0.82114 0.0
C86 C 0.74971 0.85643 0.78289 0.0
O87 O 0.74054 0.85703 0.80471 0.0
C88 C 0.76152 0.84078 0.90124 0.0
O89 O 0.76554 0.83304 0.88462 0.0
O90 O 0.72385 0.82789 0.83431 0.0
C91 C 0.17858 0.92666 0.81879 0.0
O92 O 0.17748 0.92429 0.85735 0.0
O93 O 0.14902 0.90143 0.86772 0.0
Zn94 Zn 0.15488 0.90005 0.81259 0.0
O95 O 0.13953 0.89586 0.77579 0.0
C96 C 0.16731 0.88459 0.83516 0.0
O97 O 0.17255 0.89358 0.86371 0.0
O98 O 0.17041 0.91766 0.79507 0.0
C99 C 0.13135 0.88408 0.76355 0.0
O100 O 0.13286 0.874 0.77507 0.0
C101 C 0.14586 0.91031 0.87555 0.0
O102 O 0.14694 0.91878 0.8475 0.0
O103 O 0.15958 0.88547 0.8098 0.0
C104 C 0.05235 0.22815 0.83551 0.0
O105 O 0.05802 0.23076 0.87089 0.0
O106 O 0.07908 0.22133 0.86179 0.0
Zn107 Zn 0.07634 0.22782 0.80919 0.0
O108 O 0.07792 0.21696 0.76517 0.0
C109 C 0.09541 0.25502 0.8311 0.0
O110 O 0.08992 0.25085 0.86641 0.0
O111 O 0.05836 0.22661 0.80594 0.0
C112 C 0.08863 0.21638 0.76209 0.0
O113 O 0.0981 0.22244 0.789 0.0
C114 C 0.07048 0.21091 0.88029 0.0
O115 O 0.05852 0.20332 0.86469 0.0
O116 O 0.09101 0.24695 0.80177 0.0
C117 C 0.82918 0.76332 0.6838 0.0
O118 O 0.83113 0.75985 0.64817 0.0
O119 O 0.8668 0.77829 0.65784 0.0
Zn120 Zn 0.85614 0.76811 0.70574 0.0
O121 O 0.86633 0.77654 0.75577 0.0
C122 C 0.85102 0.74315 0.67018 0.0
O123 O 0.85044 0.74898 0.63712 0.0
O124 O 0.83831 0.76713 0.71015 0.0
C125 C 0.87877 0.78068 0.75993 0.0
O126 O 0.88563 0.78 0.72953 0.0
C127 C 0.86448 0.78549 0.63405 0.0
O128 O 0.85427 0.78736 0.64063 0.0
O129 O 0.85323 0.74941 0.70305 0.0
C130 C 0.21814 0.05769 0.68569 0.0
O131 O 0.20763 0.05906 0.67878 0.0
O132 O 0.22342 0.08537 0.61967 0.0
Zn133 Zn 0.23105 0.08573 0.67378 0.0
O134 O 0.22125 0.08953 0.71661 0.0
C135 C 0.25802 0.10384 0.64534 0.0
O136 O 0.25335 0.09736 0.61155 0.0
O137 O 0.22976 0.06803 0.68489 0.0
C138 C 0.22325 0.10137 0.72067 0.0
O139 O 0.23117 0.1107 0.69526 0.0
C140 C 0.21226 0.08483 0.61343 0.0
O141 O 0.20484 0.08436 0.64385 0.0
O142 O 0.25036 0.1004 0.67561 0.0
C143 C 0.91701 0.16905 0.7265 0.0
O144 O 0.90727 0.16076 0.75021 0.0
O145 O 0.90123 0.14898 0.61023 0.0
Zn146 Zn 0.89797 0.15323 0.66574 0.0
O147 O 0.89193 0.13683 0.69968 0.0
C148 C 0.88402 0.16789 0.68442 0.0
O149 O 0.89452 0.17521 0.70703 0.0
O150 O 0.91517 0.16799 0.68898 0.0
C151 C 0.89904 0.13123 0.7014 0.0
O152 O 0.90999 0.13603 0.67964 0.0
C153 C 0.91286 0.15258 0.59653 0.0
O154 O 0.92346 0.15967 0.61905 0.0
O155 O 0.88349 0.15825 0.66444 0.0
C156 C 0.90599 0.50365 0.5396 0.0
O157 O 0.91014 0.49785 0.56523 0.0
O158 O 0.89425 0.47485 0.43877 0.0
Zn159 Zn 0.90457 0.48307 0.48923 0.0
O160 O 0.89716 0.46965 0.53411 0.0
C161 C 0.92885 0.48452 0.45644 0.0
O162 O 0.92051 0.47497 0.43233 0.0
O163 O 0.90291 0.499 0.50439 0.0
C164 C 0.90277 0.463 0.54446 0.0
O165 O 0.91342 0.46472 0.52496 0.0
C166 C 0.8889 0.4623 0.43276 0.0
O167 O 0.89004 0.45474 0.46008 0.0
O168 O 0.92425 0.48938 0.48189 0.0
C169 C 0.48892 0.40107 0.56761 0.0
O170 O 0.49658 0.40955 0.59527 0.0
O171 O 0.51624 0.41558 0.46301 0.0
Zn172 Zn 0.51109 0.41845 0.51773 0.0
O173 O 0.52433 0.4199 0.55906 0.0
C174 C 0.50455 0.43811 0.49026 0.0
O175 O 0.49885 0.4294 0.46117 0.0
O176 O 0.49299 0.40299 0.53169 0.0
C177 C 0.53663 0.429 0.55839 0.0
O178 O 0.54113 0.43752 0.52846 0.0
C179 C 0.52428 0.4113 0.45539 0.0
O180 O 0.52994 0.40842 0.48485 0.0
O181 O 0.51037 0.43551 0.51816 0.0
C182 C 0.59639 0.07245 0.49408 0.0
O183 O 0.59205 0.07169 0.45739 0.0
O184 O 0.56978 0.0796 0.46764 0.0
Zn185 Zn 0.57164 0.07192 0.51934 0.0
O186 O 0.57096 0.08305 0.5642 0.0
C187 C 0.55258 0.0454 0.49417 0.0
O188 O 0.55932 0.04987 0.46067 0.0
O189 O 0.58923 0.07233 0.52314 0.0
C190 C 0.56256 0.08716 0.56455 0.0
O191 O 0.55401 0.08395 0.5349 0.0
C192 C 0.57876 0.0904 0.45162 0.0
O193 O 0.59054 0.09736 0.4689 0.0
O194 O 0.55623 0.05308 0.52443 0.0
C195 C 0.85107 0.58311 0.66251 0.0
O196 O 0.84848 0.58437 0.69993 0.0
O197 O 0.81744 0.57701 0.69318 0.0
Zn198 Zn 0.82679 0.58436 0.64108 0.0
O199 O 0.81435 0.57375 0.59671 0.0
C200 C 0.83579 0.61106 0.66745 0.0
O201 O 0.83774 0.60611 0.70048 0.0
O202 O 0.84341 0.58305 0.63508 0.0
C203 C 0.80208 0.5706 0.59667 0.0
O204 O 0.79738 0.57446 0.62646 0.0
C205 C 0.8158 0.56656 0.71112 0.0
O206 O 0.82076 0.55945 0.69575 0.0
O207 O 0.8313 0.60357 0.63688 0.0
C208 C 0.41243 0.26717 0.66996 0.0
O209 O 0.41275 0.2633 0.70663 0.0
O210 O 0.42268 0.24341 0.69756 0.0
Zn211 Zn 0.41417 0.24365 0.64557 0.0
O212 O 0.42556 0.24385 0.59995 0.0
C213 C 0.3881 0.22298 0.67114 0.0
O214 O 0.39196 0.22968 0.70486 0.0
O215 O 0.41261 0.2602 0.64082 0.0
C216 C 0.43412 0.23996 0.60204 0.0
O217 O 0.43585 0.23531 0.63598 0.0
C218 C 0.43391 0.253 0.70931 0.0
O219 O 0.44041 0.26374 0.68684 0.0
O220 O 0.39596 0.22717 0.64131 0.0
C221 C 0.72824 0.16314 0.59866 0.0
O222 O 0.73709 0.17052 0.5714 0.0
O223 O 0.74227 0.19113 0.70185 0.0
Zn224 Zn 0.74544 0.1854 0.64829 0.0
O225 O 0.7481 0.19853 0.60474 0.0
C226 C 0.77118 0.18969 0.67609 0.0
O227 O 0.77033 0.19805 0.70099 0.0
O228 O 0.72971 0.16751 0.63419 0.0
C229 C 0.75937 0.20909 0.59925 0.0
O230 O 0.76923 0.21197 0.62432 0.0
C231 C 0.74374 0.20258 0.70996 0.0
O232 O 0.74712 0.21156 0.68151 0.0
O233 O 0.76176 0.18327 0.65115 0.0
C234 C 0.43631 0.17389 0.16144 0.0
O235 O 0.43951 0.17835 0.19817 0.0
O236 O 0.44278 0.20437 0.20411 0.0
Zn237 Zn 0.43529 0.19833 0.14917 0.0
O238 O 0.44642 0.2118 0.10735 0.0
C239 C 0.40835 0.18941 0.17497 0.0
O240 O 0.4119 0.18423 0.20423 0.0
O241 O 0.43406 0.18072 0.13599 0.0
C242 C 0.44554 0.22228 0.10235 0.0
O243 O 0.43797 0.22459 0.12673 0.0
C244 C 0.45416 0.2143 0.21311 0.0
O245 O 0.46234 0.2218 0.18467 0.0
O246 O 0.41676 0.19588 0.14755 0.0
C247 C 0.84042 0.25846 0.1637 0.0
O248 O 0.83671 0.255 0.20091 0.0
O249 O 0.80753 0.23289 0.19589 0.0
Zn250 Zn 0.81565 0.23381 0.14239 0.0
O251 O 0.80307 0.2333 0.10032 0.0
C252 C 0.82477 0.21568 0.163 0.0
O253 O 0.8288 0.22333 0.19494 0.0
O254 O 0.83312 0.25094 0.13559 0.0
C255 C 0.79162 0.22299 0.09489 0.0
O256 O 0.78794 0.21233 0.11729 0.0
C257 C 0.80446 0.24157 0.20705 0.0
O258 O 0.80693 0.25163 0.18326 0.0
O259 O 0.81869 0.21819 0.13568 0.0
C260 C 0.72446 0.56721 0.11766 0.0
O261 O 0.73343 0.5739 0.08992 0.0
O262 O 0.74686 0.55404 0.19761 0.0
Zn263 Zn 0.74607 0.56473 0.15144 0.0
O264 O 0.75046 0.55908 0.09972 0.0
C265 C 0.77175 0.58652 0.16865 0.0
O266 O 0.77408 0.57647 0.17113 0.0
O267 O 0.72773 0.56255 0.14725 0.0
C268 C 0.75636 0.55231 0.0957 0.0
O269 O 0.75969 0.54797 0.12755 0.0
C270 C 0.74021 0.55305 0.22894 0.0
O271 O 0.73235 0.5583 0.22909 0.0
O272 O 0.75993 0.58405 0.16048 0.0
C273 C 0.49116 0.09694 0.03039 0.0
O274 O 0.48955 0.08564 0.04513 0.0
O275 O 0.52944 0.11176 0.96299 0.0
Zn276 Zn 0.51748 0.10153 0.00894 0.0
O277 O 0.52727 0.1064 0.06113 0.0
C278 C 0.51997 0.07896 0.9921 0.0
O279 O 0.53254 0.08866 0.98973 0.0
O280 O 0.50212 0.105 0.01313 0.0
C281 C 0.5399 0.1126 0.06636 0.0
O282 O 0.54794 0.117 0.0353 0.0
C283 C 0.52402 0.11297 0.93141 0.0
O284 O 0.51103 0.10846 0.93124 0.0
O285 O 0.51096 0.08195 -0.00015 0.0
C286 C 0.91064 0.39372 0.0501 0.0
O287 O 0.91359 0.40309 0.07706 0.0
O288 O 0.90158 0.41225 0.94689 0.0
Zn289 Zn 0.90982 0.41336 0.00045 0.0
O290 O 0.89968 0.41753 0.0417 0.0
C291 C 0.9363 0.43259 0.96922 0.0
O292 O 0.93132 0.42682 0.93471 0.0
O293 O 0.90871 0.39592 0.01423 0.0
C294 C 0.90459 0.42941 0.05509 0.0
O295 O 0.91623 0.43887 0.04156 0.0
C296 C 0.90068 0.42235 0.93598 0.0
O297 O 0.90505 0.43272 0.96001 0.0
O298 O 0.92911 0.42817 0.00041 0.0
C299 C 0.58684 0.49732 0.01469 0.0
O300 O 0.58211 0.49925 0.98116 0.0
O301 O 0.56508 0.46375 0.96072 0.0
Zn302 Zn 0.56287 0.47099 0.013 0.0
O303 O 0.55598 0.45642 0.05405 0.0
C304 C 0.53948 0.47173 0.98502 0.0
O305 O 0.53746 0.46116 0.96439 0.0
O306 O 0.58035 0.48614 0.03264 0.0
C307 C 0.56329 0.45178 0.06649 0.0
O308 O 0.57532 0.45637 0.05115 0.0
C309 C 0.5763 0.4669 0.94468 0.0
O310 O 0.58752 0.47546 0.96259 0.0
O311 O 0.54974 0.47757 0.00743 0.0
C312 C 0.56171 0.82711 0.90723 0.0
O313 O 0.56303 0.81997 0.93561 0.0
O314 O 0.55188 0.80023 0.80231 0.0
Zn315 Zn 0.55898 0.80548 0.85795 0.0
O316 O 0.54748 0.79149 0.89827 0.0
C317 C 0.582 0.803 0.83608 0.0
O318 O 0.57393 0.79518 0.80793 0.0
O319 O 0.55981 0.82282 0.87155 0.0
C320 C 0.54795 0.78075 0.90211 0.0
O321 O 0.55546 0.77843 0.87755 0.0
C322 C 0.54018 0.79099 0.79272 0.0
O323 O 0.5315 0.78396 0.82078 0.0
O324 O 0.57775 0.80843 0.8607 0.0
C325 C 0.17542 0.73653 0.89166 0.0
O326 O 0.18226 0.7456 0.91901 0.0
O327 O 0.20472 0.75281 0.79057 0.0
Zn328 Zn 0.19824 0.754 0.84501 0.0
O329 O 0.21132 0.7561 0.88763 0.0
C330 C 0.18845 0.77138 0.82103 0.0
O331 O 0.18228 0.76192 0.79415 0.0
O332 O 0.18035 0.73792 0.8569 0.0
C333 C 0.22213 0.76725 0.89165 0.0
O334 O 0.22504 0.77679 0.86532 0.0
C335 C 0.19909 0.74235 0.76888 0.0
O336 O 0.18893 0.73131 0.78326 0.0
O337 O 0.19599 0.77019 0.84643 0.0
C338 C 0.26041 0.41436 0.80884 0.0
O339 O 0.25804 0.41389 0.77036 0.0
O340 O 0.23405 0.41906 0.76542 0.0
Zn341 Zn 0.23375 0.41151 0.8195 0.0
O342 O 0.23041 0.42224 0.86003 0.0
C343 C 0.21432 0.38483 0.79256 0.0
O344 O 0.22009 0.38942 0.75779 0.0
O345 O 0.25144 0.41308 0.83343 0.0
C346 C 0.2198 0.42308 0.85998 0.0
O347 O 0.21074 0.41686 0.83207 0.0
C348 C 0.24314 0.43061 0.75401 0.0
O349 O 0.25318 0.43808 0.77804 0.0
O350 O 0.21872 0.3924 0.82298 0.0
C351 C 0.51863 0.91871 0.99325 0.0
O352 O 0.51555 0.9207 0.02939 0.0
O353 O 0.48395 0.9105 0.01577 0.0
Zn354 Zn 0.49474 0.91963 0.96684 0.0
O355 O 0.48363 0.91033 0.91855 0.0
C356 C 0.49015 0.94169 0.97437 0.0
O357 O 0.47797 0.93184 0.98215 0.0
O358 O 0.51143 0.91827 0.96389 0.0
C359 C 0.47087 0.90413 0.91889 0.0
O360 O 0.46453 0.90385 0.95178 0.0
C361 C 0.483 0.90003 0.03164 0.0
O362 O 0.48972 0.89459 0.01659 0.0
O363 O 0.49934 0.93894 0.96677 0.0
C364 C 0.08592 0.60518 0.00011 0.0
O365 O 0.08602 0.60153 0.03719 0.0
O366 O 0.09189 0.57872 0.03214 0.0
Zn367 Zn 0.08527 0.58023 0.97829 0.0
O368 O 0.09743 0.57967 0.93663 0.0
C369 C 0.05879 0.55948 -0.00055 0.0
O370 O 0.06247 0.56533 0.0345 0.0
O371 O 0.08523 0.59753 0.97179 0.0
C372 C 0.09882 0.56944 0.93307 0.0
O373 O 0.0924 0.5593 0.95775 0.0
C374 C 0.10348 0.58675 0.04603 0.0
O375 O 0.11198 0.59713 0.02466 0.0
O376 O 0.06682 0.56439 0.97018 0.0
C377 C 0.39059 0.50305 0.95693 0.0
O378 O 0.39226 0.51502 0.96422 0.0
O379 O 0.41783 0.52297 0.03008 0.0
Zn380 Zn 0.41852 0.51686 0.97448 0.0
O381 O 0.42325 0.53152 0.93422 0.0
C382 C 0.44223 0.51562 0.99564 0.0
O383 O 0.44357 0.52453 0.02249 0.0
O384 O 0.40059 0.50126 0.95992 0.0
C385 C 0.43513 0.54137 0.93073 0.0
O386 O 0.44448 0.54238 0.95533 0.0
C387 C 0.41632 0.53288 0.03875 0.0
O388 O 0.41491 0.53984 0.00997 0.0
O389 O 0.43227 0.51092 0.97196 0.0
C390 C 0.0953 0.49596 0.50262 0.0
O391 O 0.09579 0.49997 0.53958 0.0
O392 O 0.09805 0.52736 0.5333 0.0
Zn393 Zn 0.09157 0.51855 0.48011 0.0
O394 O 0.10232 0.53144 0.43665 0.0
C395 C 0.06747 0.51984 0.49131 0.0
O396 O 0.07542 0.52986 0.51469 0.0
O397 O 0.0935 0.50224 0.47433 0.0
C398 C 0.10398 0.5432 0.43473 0.0
O399 O 0.09881 0.54727 0.46266 0.0
C400 C 0.1098 0.53196 0.54736 0.0
O401 O 0.11886 0.53077 0.52672 0.0
O402 O 0.07214 0.51333 0.47325 0.0
C403 C 0.51128 0.59767 0.43334 0.0
O404 O 0.50618 0.58908 0.40371 0.0
O405 O 0.47906 0.57581 0.52372 0.0
Zn406 Zn 0.48804 0.57717 0.4713 0.0
O407 O 0.47618 0.57596 0.42573 0.0
C408 C 0.4981 0.55989 0.49444 0.0
O409 O 0.50276 0.56824 0.52473 0.0
O410 O 0.50532 0.59463 0.46685 0.0
C411 C 0.46347 0.57044 0.42756 0.0
O412 O 0.45732 0.56523 0.46146 0.0
C413 C 0.47967 0.5857 0.54246 0.0
O414 O 0.48647 0.5978 0.52707 0.0
O415 O 0.49158 0.56184 0.46722 0.0
C416 C 0.39228 0.89566 0.43698 0.0
O417 O 0.40118 0.90122 0.4083 0.0
O418 O 0.41441 0.88151 0.51526 0.0
Zn419 Zn 0.41245 0.89065 0.46686 0.0
O420 O 0.41401 0.88216 0.41658 0.0
C421 C 0.43102 0.91686 0.49829 0.0
O422 O 0.42401 0.91188 0.53112 0.0
O423 O 0.39493 0.89043 0.46645 0.0
C424 C 0.42273 0.87855 0.41221 0.0
O425 O 0.4304 0.87954 0.44258 0.0
C426 C 0.40691 0.87879 0.54571 0.0
O427 O 0.39683 0.88111 0.54463 0.0
O428 O 0.42769 0.90968 0.467 0.0
C429 C 0.16346 0.42853 0.38056 0.0
O430 O 0.17128 0.42696 0.40594 0.0
O431 O 0.18583 0.43485 0.26742 0.0
Zn432 Zn 0.18206 0.42837 0.32413 0.0
O433 O 0.19751 0.43972 0.36061 0.0
C434 C 0.17278 0.40103 0.29886 0.0
O435 O 0.16901 0.40479 0.26669 0.0
O436 O 0.16599 0.42914 0.34347 0.0
C437 C 0.20696 0.43717 0.36568 0.0
O438 O 0.20706 0.42764 0.34435 0.0
C439 C 0.19747 0.44271 0.2536 0.0
O440 O 0.20793 0.44728 0.27735 0.0
O441 O 0.17836 0.40937 0.32712 0.0
C442 C 0.57739 0.73399 0.3402 0.0
O443 O 0.5777 0.73755 0.30279 0.0
O444 O 0.5661 0.75687 0.30733 0.0
Zn445 Zn 0.57464 0.75735 0.35988 0.0
O446 O 0.56329 0.75772 0.40462 0.0
C447 C 0.60035 0.77795 0.33203 0.0
O448 O 0.59635 0.77075 0.29921 0.0
O449 O 0.57641 0.74103 0.36777 0.0
C450 C 0.55546 0.76251 0.40219 0.0
O451 O 0.55448 0.7677 0.3683 0.0
C452 C 0.55524 0.74703 0.29438 0.0
O453 O 0.54885 0.7361 0.31608 0.0
O454 O 0.59274 0.77404 0.36245 0.0
C455 C 0.25607 0.84486 0.34338 0.0
O456 O 0.25293 0.84504 0.30578 0.0
O457 O 0.23205 0.81487 0.29182 0.0
Zn458 Zn 0.23021 0.82027 0.34714 0.0
O459 O 0.22546 0.80454 0.38291 0.0
C460 C 0.21435 0.83196 0.32143 0.0
O461 O 0.2225 0.83575 0.29062 0.0
O462 O 0.24779 0.83551 0.36601 0.0
C463 C 0.21368 0.79685 0.39607 0.0
O464 O 0.20395 0.79914 0.38626 0.0
C465 C 0.24156 0.81267 0.28345 0.0
O466 O 0.25038 0.81441 0.31114 0.0
O467 O 0.21586 0.82534 0.34929 0.0
C468 C 0.22361 0.11852 0.76723 0.0
C469 C 0.21838 0.10498 0.75676 0.0
C470 C 0.22077 0.12195 0.80449 0.0
C471 C 0.21267 0.10788 0.90523 0.0
H472 H 0.21301 0.14106 0.92883 0.0
C473 C 0.23211 0.13523 0.05331 0.0
C474 C 0.22559 0.14143 0.07137 0.0
C475 C 0.22834 0.1296 0.01541 0.0
C476 C 0.21268 0.13165 0.92277 0.0
H477 H 0.2051 0.08442 0.77552 0.0
H478 H 0.19992 0.09041 0.8402 0.0
H479 H 0.21038 0.13323 0.85991 0.0
H480 H 0.20993 0.14654 0.06383 0.0
H481 H 0.20333 0.13666 -0.00279 0.0
H482 H 0.21513 0.10637 0.96787 0.0
C483 C 0.20652 0.09838 0.82012 0.0
C484 C 0.21131 0.12723 0.88327 0.0
C485 C 0.20945 0.09495 0.783 0.0
C486 C 0.21516 0.14184 0.05068 0.0
C487 C 0.2114 0.13622 0.01253 0.0
C488 C 0.214 0.11228 0.9446 0.0
C489 C 0.21256 0.11191 0.83191 0.0
C490 C 0.21169 0.1155 0.87395 0.0
C491 C 0.21796 0.13003 0.99456 0.0
C492 C 0.21446 0.12442 0.95366 0.0
H493 H 0.23049 0.12649 0.74761 0.0
H494 H 0.2257 0.13246 0.81264 0.0
H495 H 0.21314 0.09888 0.89925 0.0
H496 H 0.24021 0.13477 0.06833 0.0
H497 H 0.23377 0.12514 0.00208 0.0
C498 C 0.90513 0.11612 0.73854 0.0
C499 C 0.89601 0.12066 0.73137 0.0
C500 C 0.90326 0.10769 0.77089 0.0
C501 C 0.87917 0.08715 0.85088 0.0
H502 H 0.91095 0.10284 0.91776 0.0
C503 C 0.89058 0.09854 0.0241 0.0
C504 C 0.88179 0.0861 0.04167 0.0
C505 C 0.8936 0.09938 0.9836 0.0
C506 C 0.90204 0.09821 0.89923 0.0
H507 H 0.87725 0.11909 0.75057 0.0
H508 H 0.8741 0.10457 0.80707 0.0
H509 H 0.91278 0.10973 0.84831 0.0
H510 H 0.86968 0.06468 0.03108 0.0
H511 H 0.8748 0.0662 0.95962 0.0
H512 H 0.86829 0.07636 0.90282 0.0
C513 C 0.88264 0.10741 0.78767 0.0
C514 C 0.90309 0.10206 0.85933 0.0
C515 C 0.88452 0.11585 0.75546 0.0
C516 C 0.87649 0.07441 0.01827 0.0
C517 C 0.87938 0.07527 0.97744 0.0
C518 C 0.87813 0.08327 0.89083 0.0
C519 C 0.89222 0.1036 0.79654 0.0
C520 C 0.89156 0.09703 0.83524 0.0
C521 C 0.88779 0.08781 0.95965 0.0
C522 C 0.88945 0.08925 0.9158 0.0
H523 H 0.91402 0.11955 0.72029 0.0
H524 H 0.91073 0.10479 0.77674 0.0
H525 H 0.87015 0.08297 0.83284 0.0
H526 H 0.89487 0.10772 0.04144 0.0
H527 H 0.89996 0.10921 0.97066 0.0
C528 C 0.92447 0.77573 0.08086 0.0
C529 C 0.91436 0.76935 0.1097 0.0
C530 C 0.92164 0.77983 0.0446 0.0
C531 C 0.89231 0.77191 0.98094 0.0
H532 H 0.91823 0.80209 0.91788 0.0
C533 C 0.87706 0.78417 0.83266 0.0
C534 C 0.88482 0.78425 0.80016 0.0
C535 C 0.88177 0.78524 0.87155 0.0
C536 C 0.91092 0.79366 0.93533 0.0
H537 H 0.89376 0.76318 0.12492 0.0
H538 H 0.88899 0.77087 0.06279 0.0
H539 H 0.92426 0.79856 0.98517 0.0
H540 H 0.90408 0.78666 0.78279 0.0
H541 H 0.91232 0.78852 0.85113 0.0
H542 H 0.879 0.76702 0.93141 0.0
C543 C 0.89892 0.7722 0.06707 0.0
C544 C 0.91437 0.79158 0.9737 0.0
C545 C 0.90166 0.76785 0.1028 0.0
C546 C 0.89783 0.78647 0.80723 0.0
C547 C 0.90258 0.7876 0.84629 0.0
C548 C 0.88884 0.77409 0.94304 0.0
C549 C 0.90872 0.77783 0.03694 0.0
C550 C 0.9051 0.78063 -0.00311 0.0
C551 C 0.89436 0.78648 0.87876 0.0
C552 C 0.89811 0.78492 0.91979 0.0
H553 H 0.93435 0.77699 0.08555 0.0
H554 H 0.92941 0.78403 0.02202 0.0
H555 H 0.88503 0.76314 -0.00276 0.0
H556 H 0.86706 0.78266 0.82826 0.0
H557 H 0.87533 0.78455 0.89612 0.0
C558 C 0.12666 0.2275 0.43608 0.0
C559 C 0.12997 0.21907 0.41457 0.0
C560 C 0.12034 0.22353 0.47304 0.0
C561 C 0.10006 0.20946 0.53814 0.0
H562 H 0.11515 0.19743 0.62101 0.0
C563 C 0.08089 0.20399 0.69742 0.0
C564 C 0.09117 0.21083 0.72554 0.0
C565 C 0.0838 0.20077 0.65996 0.0
C566 C 0.11077 0.20069 0.59809 0.0
H567 H 0.12938 0.19992 0.41518 0.0
H568 H 0.11837 0.19302 0.48044 0.0
H569 H 0.1239 0.20053 0.5529 0.0
H570 H 0.11234 0.21866 0.7377 0.0
H571 H 0.11746 0.21337 0.6721 0.0
H572 H 0.08748 0.2104 0.58321 0.0
C573 C 0.12067 0.20268 0.46836 0.0
C574 C 0.1157 0.20236 0.55909 0.0
C575 C 0.12693 0.20662 0.43104 0.0
C576 C 0.10421 0.21346 0.71658 0.0
C577 C 0.10713 0.21033 0.679 0.0
C578 C 0.09514 0.20779 0.57695 0.0
C579 C 0.11723 0.21107 0.48951 0.0
C580 C 0.11068 0.20719 0.5291 0.0
C581 C 0.09705 0.20441 0.64976 0.0
C582 C 0.1007 0.20378 0.60765 0.0
H583 H 0.12888 0.23717 0.42434 0.0
H584 H 0.11804 0.23032 0.489 0.0
H585 H 0.09587 0.21301 0.51544 0.0
H586 H 0.0707 0.20163 0.70368 0.0
H587 H 0.07575 0.19595 0.63837 0.0
C588 C 0.77134 0.90799 0.45337 0.0
C589 C 0.76442 0.89669 0.42861 0.0
C590 C 0.77364 0.90644 0.49349 0.0
C591 C 0.77299 0.88153 0.56552 0.0
H592 H 0.76433 0.90107 0.64301 0.0
C593 C 0.76723 0.86662 0.72982 0.0
C594 C 0.75566 0.86535 0.74814 0.0
C595 C 0.77193 0.87371 0.69411 0.0
C596 C 0.7668 0.89554 0.62176 0.0
H597 H 0.75477 0.87496 0.42621 0.0
H598 H 0.75851 0.87226 0.49591 0.0
H599 H 0.76564 0.90675 0.57249 0.0
H600 H 0.74038 0.87108 0.74478 0.0
H601 H 0.7482 0.88296 0.68176 0.0
H602 H 0.77316 0.86965 0.61403 0.0
C603 C 0.76241 0.88233 0.48441 0.0
C604 C 0.76772 0.89892 0.58137 0.0
C605 C 0.76014 0.88387 0.44444 0.0
C606 C 0.74931 0.87189 0.73128 0.0
C607 C 0.75389 0.8788 0.69524 0.0
C608 C 0.77194 0.87808 0.60574 0.0
C609 C 0.76907 0.89358 0.50952 0.0
C610 C 0.77038 0.89163 0.55269 0.0
C611 C 0.76503 0.87947 0.67563 0.0
C612 C 0.76841 0.88475 0.63423 0.0
H613 H 0.77481 0.918 0.44195 0.0
H614 H 0.7789 0.9153 0.512 0.0
H615 H 0.77533 0.87591 0.54423 0.0
H616 H 0.77246 0.86186 0.74253 0.0
H617 H 0.78073 0.8743 0.68035 0.0
C618 C 0.11758 0.89206 0.72767 0.0
C619 C 0.12097 0.88204 0.73403 0.0
C620 C 0.10882 0.89079 0.69695 0.0
C621 C 0.08557 0.86693 0.61984 0.0
H622 H 0.09849 0.89946 0.55734 0.0
C623 C 0.08943 0.88164 0.44621 0.0
C624 C 0.07676 0.87169 0.43258 0.0
C625 C 0.0919 0.88412 0.48689 0.0
C626 C 0.09471 0.89029 0.57449 0.0
H627 H 0.11737 0.86256 0.71448 0.0
H628 H 0.10254 0.86054 0.65998 0.0
H629 H 0.10807 0.90055 0.62264 0.0
H630 H 0.05645 0.85723 0.45079 0.0
H631 H 0.06075 0.86171 0.5221 0.0
H632 H 0.07302 0.85653 0.57015 0.0
C633 C 0.10633 0.86926 0.6792 0.0
C634 C 0.10008 0.89093 0.61229 0.0
C635 C 0.11495 0.87045 0.7103 0.0
C636 C 0.06636 0.86489 0.46039 0.0
C637 C 0.06883 0.8674 0.50125 0.0
C638 C 0.08031 0.86627 0.58181 0.0
C639 C 0.1034 0.87956 0.67153 0.0
C640 C 0.09593 0.87918 0.63485 0.0
C641 C 0.08176 0.87676 0.515 0.0
C642 C 0.08519 0.87788 0.55809 0.0
H643 H 0.12192 0.90104 0.74593 0.0
H644 H 0.10656 0.89878 0.6925 0.0
H645 H 0.08192 0.85773 0.63678 0.0
H646 H 0.09766 0.88712 0.42559 0.0
H647 H 0.10203 0.89127 0.49628 0.0
C648 C 0.75932 0.87246 0.22401 0.0
C649 C 0.76666 0.88571 0.23813 0.0
C650 C 0.76403 0.86832 0.1918 0.0
C651 C 0.78397 0.88285 0.10236 0.0
H652 H 0.77378 0.84571 0.08288 0.0
C653 C 0.77519 0.84415 0.9631 0.0
C654 C 0.76733 0.84767 0.93936 0.0
C655 C 0.77978 0.85012 0.0005 0.0
C656 C 0.77701 0.85619 0.08795 0.0
H657 H 0.78521 0.90471 0.23163 0.0
H658 H 0.79348 0.89743 0.17538 0.0
H659 H 0.7738 0.85323 0.15093 0.0
H660 H 0.75868 0.86063 0.93528 0.0
H661 H 0.76658 0.87091 0.0001 0.0
H662 H 0.78672 0.8857 0.03929 0.0
C663 C 0.78397 0.89032 0.18885 0.0
C664 C 0.77688 0.86047 0.12687 0.0
C665 C 0.77924 0.89448 0.22108 0.0
C666 C 0.76464 0.85763 0.95293 0.0
C667 C 0.76931 0.86365 0.98996 0.0
C668 C 0.78415 0.87859 0.06353 0.0
C669 C 0.77621 0.87732 0.17306 0.0
C670 C 0.7797 0.87367 0.13421 0.0
C671 C 0.77674 0.85982 0.01445 0.0
C672 C 0.77999 0.86507 0.05574 0.0
H673 H 0.74964 0.86543 0.23667 0.0
H674 H 0.7577 0.8583 0.18015 0.0
H675 H 0.78619 0.89308 0.10684 0.0
H676 H 0.77746 0.83653 0.95332 0.0
H677 H 0.78551 0.84701 0.01878 0.0
C678 C 0.09125 0.89244 0.19843 0.0
C679 C 0.10128 0.8961 0.22755 0.0
C680 C 0.09466 0.89713 0.15937 0.0
C681 C 0.12285 0.91995 0.09245 0.0
H682 H 0.10693 0.88909 0.02189 0.0
C683 C 0.13798 0.92107 0.92561 0.0
C684 C 0.14041 0.91063 0.91517 0.0
C685 C 0.13232 0.921 0.96264 0.0
C686 C 0.11142 0.89782 0.04117 0.0
H687 H 0.12258 0.90865 0.2396 0.0
H688 H 0.12856 0.91661 0.17134 0.0
H689 H 0.09822 0.88701 0.0891 0.0
H690 H 0.13902 0.89206 0.93552 0.0
H691 H 0.12913 0.89192 -0.00022 0.0
H692 H 0.13648 0.93053 0.04455 0.0
C693 C 0.11805 0.91019 0.17861 0.0
C694 C 0.10631 0.8967 0.07953 0.0
C695 C 0.11462 0.90555 0.21777 0.0
C696 C 0.13724 0.90023 0.94258 0.0
C697 C 0.13149 0.90009 0.97928 0.0
C698 C 0.12793 0.92109 0.0538 0.0
C699 C 0.10818 0.90551 0.14863 0.0
C700 C 0.11219 0.90763 0.10601 0.0
C701 C 0.12887 0.9104 0.98954 0.0
C702 C 0.1225 0.9099 0.02832 0.0
H703 H 0.08084 0.88534 0.20521 0.0
H704 H 0.0868 0.89359 0.13706 0.0
H705 H 0.12752 0.92858 0.1121 0.0
H706 H 0.14036 0.92925 0.90513 0.0
H707 H 0.13039 0.92905 0.9699 0.0
C708 C 0.06396 0.19822 0.94512 0.0
C709 C 0.07387 0.20795 0.92011 0.0
C710 C 0.06722 0.19629 0.9839 0.0
C711 C 0.09626 0.20384 0.04915 0.0
H712 H 0.074 0.20486 0.13439 0.0
C713 C 0.10467 0.22606 0.2162 0.0
C714 C 0.11416 0.22268 0.22974 0.0
C715 C 0.09728 0.22021 0.18157 0.0
C716 C 0.0803 0.20452 0.11093 0.0
H717 H 0.09502 0.22293 0.9156 0.0
H718 H 0.10062 0.21966 0.98276 0.0
H719 H 0.06622 0.20224 0.06547 0.0
H720 H 0.12253 0.2097 0.21971 0.0
H721 H 0.10938 0.19924 0.15988 0.0
H722 H 0.11076 0.20709 0.09383 0.0
C723 C 0.09038 0.2134 0.97256 0.0
C724 C 0.07577 0.20285 0.0715 0.0
C725 C 0.08713 0.21537 0.9341 0.0
C726 C 0.11544 0.21267 0.20959 0.0
C727 C 0.10794 0.20671 0.17524 0.0
C728 C 0.10082 0.20558 0.08842 0.0
C729 C 0.08045 0.20397 -0.00191 0.0
C730 C 0.08394 0.20301 0.0401 0.0
C731 C 0.09911 0.21075 0.16001 0.0
C732 C 0.0931 0.20641 0.11967 0.0
H733 H 0.05365 0.19233 0.93513 0.0
H734 H 0.05938 0.1889 0.00289 0.0
H735 H 0.10268 0.20376 0.02561 0.0
H736 H 0.10344 0.23372 0.23115 0.0
H737 H 0.0907 0.2237 0.17056 0.0
C738 C 0.8896 0.77119 0.29758 0.0
C739 C 0.89901 0.76684 0.29442 0.0
C740 C 0.88819 0.77661 0.33338 0.0
C741 C 0.89415 0.77543 0.44058 0.0
H742 H 0.88464 0.8033 0.44849 0.0
C743 C 0.88424 0.79001 0.59262 0.0
C744 C 0.87183 0.78953 0.59591 0.0
C745 C 0.88993 0.79086 0.55527 0.0
C746 C 0.88731 0.79552 0.44665 0.0
H747 H 0.91491 0.76554 0.32526 0.0
H748 H 0.91269 0.77526 0.38717 0.0
H749 H 0.89014 0.79768 0.38326 0.0
H750 H 0.85622 0.79076 0.56317 0.0
H751 H 0.86605 0.79196 0.49759 0.0
H752 H 0.89107 0.77298 0.5034 0.0
C753 C 0.90611 0.77413 0.36253 0.0
C754 C 0.89041 0.79227 0.40937 0.0
C755 C 0.9074 0.76859 0.32701 0.0
C756 C 0.86579 0.79109 0.56145 0.0
C757 C 0.87144 0.79181 0.52391 0.0
C758 C 0.89113 0.77869 0.47762 0.0
C759 C 0.89626 0.77789 0.36651 0.0
C760 C 0.89377 0.7821 0.40594 0.0
C761 C 0.88325 0.79109 0.52043 0.0
C762 C 0.88758 0.78869 0.48112 0.0
H763 H 0.88301 0.76999 0.27289 0.0
H764 H 0.88043 0.7793 0.33554 0.0
H765 H 0.89635 0.76731 0.439 0.0
H766 H 0.88923 0.78904 0.61879 0.0
H767 H 0.89921 0.79062 0.55355 0.0
C768 C 0.21548 0.08469 0.53986 0.0
C769 C 0.20822 0.08566 0.57216 0.0
C770 C 0.21259 0.08671 0.50095 0.0
C771 C 0.20005 0.10554 0.447 0.0
H772 H 0.20433 0.08728 0.35577 0.0
C773 C 0.20651 0.12712 0.28835 0.0
C774 C 0.21788 0.12833 0.26882 0.0
C775 C 0.20135 0.11898 0.32216 0.0
C776 C 0.20304 0.09243 0.38094 0.0
H777 H 0.19184 0.0889 0.58884 0.0
H778 H 0.18686 0.09256 0.52052 0.0
H779 H 0.20222 0.07791 0.42251 0.0
H780 H 0.23229 0.12138 0.26805 0.0
H781 H 0.2234 0.10733 0.3269 0.0
H782 H 0.20155 0.12042 0.40578 0.0
C783 C 0.19481 0.09027 0.52552 0.0
C784 C 0.20182 0.08707 0.41909 0.0
C785 C 0.19764 0.08815 0.56457 0.0
C786 C 0.22357 0.12073 0.28254 0.0
C787 C 0.21838 0.11256 0.3161 0.0
C788 C 0.20127 0.11091 0.40884 0.0
C789 C 0.20242 0.08981 0.4934 0.0
C790 C 0.20084 0.09385 0.45266 0.0
C791 C 0.2074 0.11182 0.33681 0.0
C792 C 0.2033 0.10469 0.37561 0.0
H793 H 0.22365 0.08272 0.54467 0.0
H794 H 0.21878 0.08647 0.47695 0.0
H795 H 0.19942 0.11106 0.47229 0.0
H796 H 0.20186 0.13281 0.27838 0.0
H797 H 0.19281 0.11851 0.33737 0.0
C798 C 0.90286 0.14025 0.53307 0.0
C799 C 0.91433 0.14851 0.55588 0.0
C800 C 0.90411 0.13631 0.49477 0.0
C801 C 0.92693 0.1461 0.40964 0.0
H802 H 0.90093 0.11027 0.37395 0.0
C803 C 0.90884 0.13318 0.24809 0.0
C804 C 0.90348 0.11991 0.23465 0.0
C805 C 0.91415 0.13674 0.28654 0.0
C806 C 0.9085 0.12023 0.38338 0.0
H807 H 0.93612 0.1591 0.55638 0.0
H808 H 0.93828 0.15218 0.48903 0.0
H809 H 0.90216 0.11587 0.44414 0.0
H810 H 0.90088 0.10036 0.249 0.0
H811 H 0.91048 0.10666 0.31569 0.0
H812 H 0.93312 0.1505 0.34859 0.0
C813 C 0.92834 0.14882 0.50096 0.0
C814 C 0.90906 0.12348 0.42363 0.0
C815 C 0.92709 0.15274 0.53951 0.0
C816 C 0.90472 0.11061 0.25885 0.0
C817 C 0.91017 0.11421 0.29711 0.0
C818 C 0.92641 0.14282 0.36924 0.0
C819 C 0.91684 0.14053 0.47827 0.0
C820 C 0.91792 0.13658 0.43695 0.0
C821 C 0.91432 0.12712 0.31211 0.0
C822 C 0.91687 0.12997 0.35546 0.0
H823 H 0.89288 0.13683 0.54472 0.0
H824 H 0.89506 0.13014 0.47775 0.0
H825 H 0.93388 0.15627 0.41907 0.0
H826 H 0.90808 0.14059 0.23008 0.0
H827 H 0.91717 0.14675 0.29709 0.0
C828 C 0.8846 0.42301 0.09892 0.0
C829 C 0.89775 0.43244 0.08725 0.0
C830 C 0.87861 0.42562 0.13142 0.0
C831 C 0.8837 0.4528 0.20307 0.0
H832 H 0.86603 0.42317 0.27733 0.0
C833 C 0.87954 0.46366 0.36668 0.0
C834 C 0.88326 0.45666 0.39328 0.0
C835 C 0.87602 0.45923 0.32738 0.0
C836 C 0.87096 0.43157 0.257 0.0
H837 H 0.91476 0.45216 0.09955 0.0
H838 H 0.90467 0.45648 0.15672 0.0
H839 H 0.87059 0.41892 0.2099 0.0
H840 H 0.88544 0.43912 0.40051 0.0
H841 H 0.88005 0.43179 0.33198 0.0
H842 H 0.88535 0.46564 0.25107 0.0
C843 C 0.89872 0.44723 0.1404 0.0
C844 C 0.87339 0.4291 0.21797 0.0
C845 C 0.90461 0.44469 0.10774 0.0
C846 C 0.88263 0.44473 0.38065 0.0
C847 C 0.87938 0.44046 0.34124 0.0
C848 C 0.88154 0.45531 0.24228 0.0
C849 C 0.88573 0.43765 0.15311 0.0
C850 C 0.88037 0.43978 0.19109 0.0
C851 C 0.87645 0.44788 0.31368 0.0
C852 C 0.87571 0.4448 0.27029 0.0
H853 H 0.879 0.41353 0.08337 0.0
H854 H 0.86852 0.4181 0.13997 0.0
H855 H 0.88869 0.46121 0.18278 0.0
H856 H 0.87973 0.47278 0.3759 0.0
H857 H 0.87346 0.46501 0.30739 0.0
C858 C 0.56763 0.43898 0.11935 0.0
C859 C 0.5588 0.44239 0.10063 0.0
C860 C 0.56384 0.4314 0.15451 0.0
C861 C 0.53459 0.41058 0.22045 0.0
H862 H 0.56052 0.42726 0.30583 0.0
C863 C 0.51985 0.41109 0.3825 0.0
C864 C 0.52764 0.41029 0.41349 0.0
C865 C 0.52352 0.41125 0.34281 0.0
C866 C 0.55326 0.42225 0.28224 0.0
H867 H 0.5388 0.43985 0.10275 0.0
H868 H 0.53228 0.42685 0.164 0.0
H869 H 0.56732 0.43425 0.23717 0.0
H870 H 0.54513 0.40852 0.42718 0.0
H871 H 0.55168 0.409 0.35741 0.0
H872 H 0.52034 0.39912 0.26594 0.0
C873 C 0.54208 0.42989 0.15152 0.0
C874 C 0.55715 0.42625 0.24283 0.0
C875 C 0.54587 0.43747 0.11654 0.0
C876 C 0.53895 0.40918 0.40391 0.0
C877 C 0.54271 0.40948 0.36405 0.0
C878 C 0.53069 0.40662 0.25986 0.0
C879 C 0.55114 0.42705 0.17145 0.0
C880 C 0.54772 0.42083 0.21169 0.0
C881 C 0.53513 0.41071 0.33316 0.0
C882 C 0.53986 0.41278 0.29125 0.0
H883 H 0.57764 0.44255 0.10769 0.0
H884 H 0.57098 0.42925 0.16897 0.0
H885 H 0.52717 0.40603 0.197 0.0
H886 H 0.51103 0.41188 0.38889 0.0
H887 H 0.51758 0.4124 0.31972 0.0
C888 C 0.56256 0.08922 0.40031 0.0
C889 C 0.5759 0.09476 0.41324 0.0
C890 C 0.55967 0.09266 0.36326 0.0
C891 C 0.57372 0.11724 0.28046 0.0
H892 H 0.54474 0.08803 0.22189 0.0
C893 C 0.55913 0.11894 0.11373 0.0
C894 C 0.54527 0.11335 0.10697 0.0
C895 C 0.56388 0.11818 0.15159 0.0
C896 C 0.5528 0.09631 0.238 0.0
H897 H 0.5967 0.10851 0.39797 0.0
H898 H 0.59167 0.11427 0.33237 0.0
H899 H 0.55126 0.08365 0.2866 0.0
H900 H 0.52562 0.1033 0.13518 0.0
H901 H 0.53391 0.10191 0.20066 0.0
H902 H 0.5753 0.1298 0.2308 0.0
C903 C 0.58343 0.10742 0.35127 0.0
C904 C 0.55651 0.09382 0.27517 0.0
C905 C 0.58631 0.10408 0.38873 0.0
C906 C 0.53635 0.10758 0.13916 0.0
C907 C 0.54107 0.10674 0.17669 0.0
C908 C 0.57007 0.1197 0.24284 0.0
C909 C 0.57006 0.10157 0.33788 0.0
C910 C 0.56682 0.10429 0.29726 0.0
C911 C 0.55482 0.11173 0.18303 0.0
C912 C 0.55941 0.10928 0.2217 0.0
H913 H 0.55429 0.08216 0.41879 0.0
H914 H 0.54925 0.08824 0.35443 0.0
H915 H 0.58167 0.12554 0.29676 0.0
H916 H 0.56626 0.1235 0.08958 0.0
H917 H 0.57454 0.12209 0.15582 0.0
C918 C 0.80981 0.55404 0.77621 0.0
C919 C 0.80856 0.56278 0.74953 0.0
C920 C 0.80362 0.55139 0.81372 0.0
C921 C 0.7905 0.56645 0.88524 0.0
H922 H 0.77337 0.5315 0.93634 0.0
C923 C 0.75757 0.55606 0.02217 0.0
C924 C 0.76066 0.5507 0.05551 0.0
C925 C 0.76285 0.55605 0.98481 0.0
C926 C 0.77821 0.54131 0.92242 0.0
H927 H 0.79925 0.57497 0.74018 0.0
H928 H 0.78825 0.57009 0.80466 0.0
H929 H 0.78376 0.53432 0.87044 0.0
H930 H 0.77111 0.54039 0.07526 0.0
H931 H 0.78035 0.54034 0.0094 0.0
H932 H 0.78482 0.57342 0.93659 0.0
C933 C 0.79434 0.56562 0.79744 0.0
C934 C 0.78418 0.54295 0.88484 0.0
C935 C 0.8006 0.56837 0.76034 0.0
C936 C 0.7686 0.54466 0.05018 0.0
C937 C 0.77384 0.54458 0.01254 0.0
C938 C 0.78447 0.56479 0.92239 0.0
C939 C 0.79602 0.55736 0.82497 0.0
C940 C 0.79021 0.55551 0.86561 0.0
C941 C 0.7713 0.55062 0.97982 0.0
C942 C 0.77812 0.5522 0.94111 0.0
H943 H 0.81588 0.54959 0.76861 0.0
H944 H 0.80515 0.54501 0.83432 0.0
H945 H 0.79541 0.57635 0.87187 0.0
H946 H 0.75137 0.56066 0.02506 0.0
H947 H 0.76056 0.56056 0.95988 0.0
C948 C 0.43297 0.24 0.76997 0.0
C949 C 0.43939 0.25206 0.74829 0.0
C950 C 0.43777 0.23905 0.80727 0.0
C951 C 0.45647 0.2592 0.89313 0.0
H952 H 0.4546 0.22586 0.92454 0.0
C953 C 0.44652 0.23914 0.05334 0.0
C954 C 0.45094 0.23031 0.06556 0.0
C955 C 0.44945 0.24468 0.01506 0.0
C956 C 0.45551 0.23538 0.91629 0.0
H957 H 0.456 0.27257 0.74857 0.0
H958 H 0.4644 0.27091 0.81427 0.0
H959 H 0.45155 0.22958 0.85501 0.0
H960 H 0.46308 0.22149 0.04892 0.0
H961 H 0.46845 0.23141 0.98245 0.0
H962 H 0.46017 0.26487 0.95471 0.0
C963 C 0.45562 0.26221 0.80219 0.0
C964 C 0.45357 0.23743 0.87642 0.0
C965 C 0.45084 0.26314 0.76459 0.0
C966 C 0.45934 0.22809 0.0401 0.0
C967 C 0.46237 0.23373 0.00195 0.0
C968 C 0.45844 0.25716 0.93313 0.0
C969 C 0.4491 0.25015 0.82392 0.0
C970 C 0.45354 0.24913 0.86466 0.0
C971 C 0.45697 0.24161 0.98837 0.0
C972 C 0.45753 0.24503 0.94537 0.0
H973 H 0.42412 0.23127 0.75831 0.0
H974 H 0.43238 0.22969 0.82356 0.0
H975 H 0.4565 0.26832 0.88494 0.0
H976 H 0.44007 0.2411 0.07232 0.0
H977 H 0.44503 0.25063 0.0056 0.0
C978 C 0.73914 0.19637 0.78192 0.0
C979 C 0.7436 0.20627 0.7521 0.0
C980 C 0.74102 0.19996 0.82213 0.0
C981 C 0.76527 0.22731 0.88302 0.0
H982 H 0.74223 0.20592 0.96995 0.0
C983 C 0.78603 0.23467 0.04177 0.0
C984 C 0.78304 0.22274 0.06171 0.0
C985 C 0.77881 0.23432 0.00788 0.0
C986 C 0.74878 0.21199 0.94601 0.0
H987 H 0.7526 0.22765 0.74105 0.0
H988 H 0.75596 0.23394 0.81152 0.0
H989 H 0.73327 0.20233 0.90212 0.0
H990 H 0.76971 0.20117 0.06302 0.0
H991 H 0.75738 0.20049 0.00319 0.0
H992 H 0.78097 0.23645 0.92602 0.0
C993 C 0.7511 0.2234 0.80365 0.0
C994 C 0.74363 0.20998 0.90724 0.0
C995 C 0.74914 0.21979 0.76334 0.0
C996 C 0.77226 0.21053 0.04824 0.0
C997 C 0.76512 0.21017 0.01408 0.0
C998 C 0.77042 0.22928 0.92163 0.0
C999 C 0.74747 0.21354 0.83337 0.0
C1000 C 0.75195 0.21735 0.8752 0.0
C1001 C 0.76853 0.22202 0.99293 0.0
C1002 C 0.76236 0.22137 0.95342 0.0
H1003 H 0.73473 0.18585 0.77423 0.0
H1004 H 0.73821 0.19214 0.84426 0.0
H1005 H 0.77199 0.23301 0.85891 0.0
H1006 H 0.79416 0.24426 0.05182 0.0
H1007 H 0.78152 0.24367 0.99279 0.0
C1008 C 0.45023 0.23481 0.5664 0.0
C1009 C 0.44154 0.2401 0.56585 0.0
C1010 C 0.45639 0.23408 0.53124 0.0
C1011 C 0.4631 0.24587 0.42564 0.0
H1012 H 0.45875 0.21075 0.40499 0.0
C1013 C 0.46862 0.23016 0.26692 0.0
C1014 C 0.45758 0.21778 0.25558 0.0
C1015 C 0.47085 0.23388 0.30718 0.0
C1016 C 0.46014 0.22065 0.41038 0.0
H1017 H 0.433 0.24933 0.52833 0.0
H1018 H 0.44348 0.24784 0.46731 0.0
H1019 H 0.45493 0.21633 0.47194 0.0
H1020 H 0.44071 0.19926 0.27765 0.0
H1021 H 0.44446 0.20577 0.34725 0.0
H1022 H 0.46731 0.24982 0.36343 0.0
C1023 C 0.44573 0.24441 0.49481 0.0
C1024 C 0.45809 0.22391 0.44888 0.0
C1025 C 0.43959 0.24514 0.52982 0.0
C1026 C 0.44926 0.20892 0.28533 0.0
C1027 C 0.4515 0.2126 0.32539 0.0
C1028 C 0.46508 0.24259 0.3871 0.0
C1029 C 0.45402 0.23867 0.49493 0.0
C1030 C 0.45899 0.23635 0.45655 0.0
C1031 C 0.46213 0.22523 0.33677 0.0
C1032 C 0.46306 0.22973 0.37873 0.0
H1033 H 0.45202 0.23094 0.59376 0.0
H1034 H 0.46282 0.2297 0.53236 0.0
H1035 H 0.46413 0.25564 0.4308 0.0
H1036 H 0.47526 0.23717 0.24466 0.0
H1037 H 0.47919 0.24364 0.31508 0.0
C1038 C 0.7751 0.22632 0.55078 0.0
C1039 C 0.76192 0.21674 0.56172 0.0
C1040 C 0.77786 0.23171 0.51231 0.0
C1041 C 0.76433 0.22107 0.4122 0.0
H1042 H 0.79438 0.25569 0.38221 0.0
C1043 C 0.79399 0.22853 0.26912 0.0
C1044 C 0.79809 0.2402 0.24635 0.0
C1045 C 0.78796 0.2271 0.30622 0.0
C1046 C 0.78582 0.24606 0.39004 0.0
H1047 H 0.74113 0.20631 0.54229 0.0
H1048 H 0.74594 0.21589 0.47537 0.0
H1049 H 0.78639 0.25173 0.45122 0.0
H1050 H 0.7991 0.25955 0.24468 0.0
H1051 H 0.7886 0.25704 0.31011 0.0
H1052 H 0.76395 0.21528 0.35141 0.0
C1053 C 0.75418 0.21897 0.49617 0.0
C1054 C 0.78132 0.24376 0.42957 0.0
C1055 C 0.75142 0.21352 0.53456 0.0
C1056 C 0.79603 0.25043 0.26155 0.0
C1057 C 0.79007 0.24903 0.29898 0.0
C1058 C 0.76883 0.22336 0.37284 0.0
C1059 C 0.76749 0.22769 0.4841 0.0
C1060 C 0.77078 0.23109 0.44131 0.0
C1061 C 0.78593 0.23731 0.32157 0.0
C1062 C 0.7799 0.23572 0.36165 0.0
H1063 H 0.7834 0.22907 0.57108 0.0
H1064 H 0.78824 0.23832 0.50398 0.0
H1065 H 0.75628 0.21115 0.42018 0.0
H1066 H 0.79543 0.22047 0.25834 0.0
H1067 H 0.7851 0.21805 0.32327 0.0
C1068 C 0.78086 0.5624 0.55739 0.0
C1069 C 0.7935 0.56347 0.56206 0.0
C1070 C 0.77338 0.55685 0.52265 0.0
C1071 C 0.77892 0.55257 0.41744 0.0
H1072 H 0.74001 0.53337 0.41264 0.0
C1073 C 0.75249 0.54384 0.26735 0.0
C1074 C 0.743 0.54815 0.26646 0.0
C1075 C 0.75687 0.54148 0.30373 0.0
C1076 C 0.75088 0.53869 0.41354 0.0
H1077 H 0.8078 0.55872 0.53526 0.0
H1078 H 0.79468 0.54886 0.47503 0.0
H1079 H 0.75126 0.53718 0.4772 0.0
H1080 H 0.72985 0.55225 0.3028 0.0
H1081 H 0.73765 0.54837 0.36613 0.0
H1082 H 0.77864 0.55458 0.35424 0.0
C1083 C 0.79068 0.5526 0.49774 0.0
C1084 C 0.75732 0.54089 0.45047 0.0
C1085 C 0.79818 0.55822 0.5323 0.0
C1086 C 0.73725 0.54905 0.30247 0.0
C1087 C 0.74165 0.54672 0.33883 0.0
C1088 C 0.77251 0.55036 0.38065 0.0
C1089 C 0.77837 0.55218 0.49202 0.0
C1090 C 0.77142 0.54815 0.45288 0.0
C1091 C 0.75187 0.5434 0.33991 0.0
C1092 C 0.75843 0.54369 0.37833 0.0
H1093 H 0.77696 0.56632 0.57985 0.0
H1094 H 0.76401 0.55681 0.51905 0.0
H1095 H 0.78979 0.55839 0.41819 0.0
H1096 H 0.757 0.5429 0.24008 0.0
H1097 H 0.76457 0.53869 0.30359 0.0
C1098 C 0.5512 0.0972 0.60372 0.0
C1099 C 0.56196 0.0948 0.59917 0.0
C1100 C 0.55005 0.10337 0.63823 0.0
C1101 C 0.56003 0.10747 0.74341 0.0
H1102 H 0.54382 0.13001 0.74643 0.0
C1103 C 0.54512 0.12007 0.89255 0.0
C1104 C 0.53168 0.11707 0.89365 0.0
C1105 C 0.55156 0.12146 0.85605 0.0
C1106 C 0.5484 0.12376 0.74602 0.0
H1107 H 0.58042 0.09774 0.62606 0.0
H1108 H 0.57852 0.10867 0.68591 0.0
H1109 H 0.5501 0.12461 0.68229 0.0
H1110 H 0.51485 0.11437 0.85747 0.0
H1111 H 0.52599 0.11659 0.79397 0.0
H1112 H 0.55792 0.10617 0.80674 0.0
C1113 C 0.5708 0.10552 0.66327 0.0
C1114 C 0.55197 0.12064 0.70934 0.0
C1115 C 0.5719 0.09928 0.62891 0.0
C1116 C 0.52518 0.11657 0.85765 0.0
C1117 C 0.5316 0.11794 0.82118 0.0
C1118 C 0.5565 0.1106 0.77997 0.0
C1119 C 0.55969 0.10734 0.66878 0.0
C1120 C 0.55752 0.11219 0.70759 0.0
C1121 C 0.54468 0.11988 0.81997 0.0
C1122 C 0.55035 0.11851 0.78166 0.0
H1123 H 0.5434 0.0939 0.58129 0.0
H1124 H 0.54129 0.10448 0.6417 0.0
H1125 H 0.56408 0.10076 0.74319 0.0
H1126 H 0.55047 0.12067 0.91979 0.0
H1127 H 0.56173 0.12321 0.85607 0.0
C1128 C 0.88574 0.45101 0.59809 0.0
C1129 C 0.89798 0.4542 0.57983 0.0
C1130 C 0.88187 0.44374 0.63373 0.0
C1131 C 0.89096 0.42428 0.70411 0.0
H1132 H 0.87818 0.43961 0.78396 0.0
C1133 C 0.8904 0.41167 0.87041 0.0
C1134 C 0.89579 0.42291 0.89572 0.0
C1135 C 0.88679 0.41263 0.83125 0.0
C1136 C 0.88174 0.4352 0.76202 0.0
H1137 H 0.91548 0.45178 0.58358 0.0
H1138 H 0.90904 0.43959 0.64618 0.0
H1139 H 0.87937 0.44624 0.71468 0.0
H1140 H 0.90115 0.44383 0.90036 0.0
H1141 H 0.89529 0.44564 0.83212 0.0
H1142 H 0.89439 0.41411 0.75199 0.0
C1143 C 0.90221 0.44237 0.63273 0.0
C1144 C 0.88223 0.43885 0.7221 0.0
C1145 C 0.90599 0.44949 0.59693 0.0
C1146 C 0.89703 0.43497 0.88162 0.0
C1147 C 0.89353 0.43597 0.84249 0.0
C1148 C 0.89063 0.42077 0.74413 0.0
C1149 C 0.89024 0.43964 0.65204 0.0
C1150 C 0.88732 0.43381 0.69285 0.0
C1151 C 0.88857 0.42488 0.81659 0.0
C1152 C 0.88649 0.42658 0.77373 0.0
H1153 H 0.87927 0.45437 0.5853 0.0
H1154 H 0.87247 0.44161 0.64739 0.0
H1155 H 0.89463 0.41996 0.68222 0.0
H1156 H 0.88921 0.40219 0.8806 0.0
H1157 H 0.88282 0.40385 0.81226 0.0
C1158 C 0.55853 0.4416 0.59497 0.0
C1159 C 0.54523 0.4309 0.59339 0.0
C1160 C 0.56596 0.44442 0.63028 0.0
C1161 C 0.56526 0.43129 0.73309 0.0
H1162 H 0.58175 0.46885 0.76249 0.0
C1163 C 0.58791 0.46814 0.88025 0.0
C1164 C 0.57658 0.46148 0.90503 0.0
C1165 C 0.58755 0.46371 0.84117 0.0
C1166 C 0.57747 0.45837 0.75451 0.0
H1167 H 0.52958 0.41423 0.62679 0.0
H1168 H 0.54229 0.41931 0.68818 0.0
H1169 H 0.57494 0.46219 0.69373 0.0
H1170 H 0.55632 0.44453 0.90932 0.0
H1171 H 0.55578 0.43672 0.84145 0.0
H1172 H 0.56693 0.42746 0.7948 0.0
C1173 C 0.54716 0.42545 0.66224 0.0
C1174 C 0.57359 0.45453 0.71502 0.0
C1175 C 0.53979 0.4226 0.627 0.0
C1176 C 0.56517 0.44992 0.8908 0.0
C1177 C 0.5649 0.44537 0.85208 0.0
C1178 C 0.56901 0.43513 0.77267 0.0
C1179 C 0.5602 0.43662 0.6647 0.0
C1180 C 0.56694 0.44088 0.70417 0.0
C1181 C 0.57597 0.45239 0.82661 0.0
C1182 C 0.57469 0.44864 0.78396 0.0
H1183 H 0.56306 0.44809 0.56942 0.0
H1184 H 0.57606 0.45296 0.63097 0.0
H1185 H 0.56046 0.42073 0.72555 0.0
H1186 H 0.59684 0.47708 0.89048 0.0
H1187 H 0.59621 0.46928 0.82205 0.0
C1188 C 0.52479 0.77633 0.73831 0.0
C1189 C 0.53678 0.78779 0.75009 0.0
C1190 C 0.5223 0.77281 0.69795 0.0
C1191 C 0.53431 0.78571 0.5953 0.0
H1192 H 0.52482 0.74895 0.5728 0.0
C1193 C 0.54111 0.76992 0.43812 0.0
C1194 C 0.54828 0.76297 0.4382 0.0
C1195 C 0.53546 0.77136 0.47342 0.0
C1196 C 0.52739 0.75923 0.57855 0.0
H1197 H 0.55524 0.80489 0.72865 0.0
H1198 H 0.55101 0.79871 0.65887 0.0
H1199 H 0.52296 0.75537 0.64071 0.0
H1200 H 0.55451 0.75148 0.47485 0.0
H1201 H 0.54491 0.75418 0.5361 0.0
H1202 H 0.5397 0.78981 0.53378 0.0
C1203 C 0.54343 0.79248 0.68049 0.0
C1204 C 0.52617 0.76288 0.61739 0.0
C1205 C 0.54593 0.79596 0.72066 0.0
C1206 C 0.54912 0.75697 0.47377 0.0
C1207 C 0.54348 0.75839 0.50889 0.0
C1208 C 0.53558 0.78208 0.5565 0.0
C1209 C 0.53172 0.78075 0.66868 0.0
C1210 C 0.53017 0.77629 0.62648 0.0
C1211 C 0.53682 0.76584 0.50937 0.0
C1212 C 0.53267 0.76892 0.54806 0.0
H1213 H 0.51752 0.76986 0.76029 0.0
H1214 H 0.51314 0.76376 0.68971 0.0
H1215 H 0.53723 0.79608 0.60125 0.0
H1216 H 0.54021 0.77458 0.41112 0.0
H1217 H 0.53028 0.77706 0.47277 0.0
C1218 C 0.20007 0.78079 0.45006 0.0
C1219 C 0.21133 0.78619 0.42492 0.0
C1220 C 0.19873 0.77197 0.48069 0.0
C1221 C 0.22014 0.76415 0.54364 0.0
H1222 H 0.18578 0.73908 0.59069 0.0
C1223 C 0.19491 0.73279 0.69967 0.0
C1224 C 0.20263 0.74337 0.72614 0.0
C1225 C 0.19694 0.73466 0.65846 0.0
C1226 C 0.19549 0.74579 0.57763 0.0
H1227 H 0.22946 0.78578 0.40991 0.0
H1228 H 0.22692 0.77005 0.46252 0.0
H1229 H 0.18654 0.74772 0.52396 0.0
H1230 H 0.21918 0.76387 0.73035 0.0
H1231 H 0.2225 0.76722 0.65909 0.0
H1232 H 0.22909 0.76224 0.59732 0.0
C1233 C 0.21934 0.77296 0.45955 0.0
C1234 C 0.19591 0.75091 0.53953 0.0
C1235 C 0.22078 0.78193 0.42931 0.0
C1236 C 0.21299 0.75553 0.71079 0.0
C1237 C 0.21498 0.75741 0.66977 0.0
C1238 C 0.21973 0.7589 0.58148 0.0
C1239 C 0.20853 0.7682 0.48646 0.0
C1240 C 0.2082 0.76062 0.52284 0.0
C1241 C 0.20672 0.74715 0.64302 0.0
C1242 C 0.20737 0.75015 0.5997 0.0
H1243 H 0.19262 0.78389 0.44739 0.0
H1244 H 0.19036 0.76871 0.50108 0.0
H1245 H 0.22981 0.77162 0.53196 0.0
H1246 H 0.18692 0.72326 0.7106 0.0
H1247 H 0.19054 0.72649 0.63867 0.0
C1248 C 0.22445 0.43797 0.41178 0.0
C1249 C 0.2162 0.44314 0.39988 0.0
C1250 C 0.23106 0.4416 0.44851 0.0
C1251 C 0.24576 0.45201 0.5272 0.0
H1252 H 0.22011 0.44814 0.60867 0.0
C1253 C 0.25328 0.44681 0.69699 0.0
C1254 C 0.24222 0.43554 0.71413 0.0
C1255 C 0.25228 0.45119 0.65883 0.0
C1256 C 0.22744 0.44938 0.58628 0.0
H1257 H 0.20959 0.45726 0.41508 0.0
H1258 H 0.22129 0.46372 0.47892 0.0
H1259 H 0.21558 0.45054 0.53929 0.0
H1260 H 0.22141 0.42016 0.70505 0.0
H1261 H 0.21967 0.42785 0.63899 0.0
H1262 H 0.25721 0.45001 0.57453 0.0
C1263 C 0.22237 0.45661 0.46033 0.0
C1264 C 0.22494 0.45091 0.54652 0.0
C1265 C 0.2157 0.45293 0.42371 0.0
C1266 C 0.23013 0.42886 0.69269 0.0
C1267 C 0.22909 0.43333 0.65497 0.0
C1268 C 0.2483 0.45052 0.56717 0.0
C1269 C 0.22961 0.45052 0.47394 0.0
C1270 C 0.23382 0.45176 0.51634 0.0
C1271 C 0.24014 0.44451 0.6376 0.0
C1272 C 0.23889 0.44867 0.5968 0.0
H1273 H 0.22512 0.43048 0.39398 0.0
H1274 H 0.23649 0.43665 0.45812 0.0
H1275 H 0.25287 0.45279 0.50466 0.0
H1276 H 0.26274 0.45213 0.71282 0.0
H1277 H 0.26094 0.45983 0.64601 0.0
C1278 C 0.47758 0.88725 0.09587 0.0
C1279 C 0.47456 0.89429 0.06733 0.0
C1280 C 0.47021 0.88292 0.13135 0.0
C1281 C 0.44853 0.89075 0.19434 0.0
H1282 H 0.44234 0.85914 0.2534 0.0
C1283 C 0.41856 0.87635 0.33875 0.0
C1284 C 0.42565 0.87553 0.37179 0.0
C1285 C 0.42277 0.87591 0.30007 0.0
C1286 C 0.444 0.86797 0.23706 0.0
H1287 H 0.46098 0.90151 0.05192 0.0
H1288 H 0.44775 0.89345 0.11261 0.0
H1289 H 0.45293 0.86359 0.18746 0.0
H1290 H 0.44201 0.87244 0.39013 0.0
H1291 H 0.44933 0.87163 0.3222 0.0
H1292 H 0.43956 0.89508 0.24363 0.0
C1293 C 0.45613 0.89176 0.10875 0.0
C1294 C 0.45012 0.87058 0.19947 0.0
C1295 C 0.46366 0.89631 0.07382 0.0
C1296 C 0.43639 0.8732 0.36529 0.0
C1297 C 0.44056 0.87267 0.32645 0.0
C1298 C 0.44227 0.88804 0.23143 0.0
C1299 C 0.45954 0.88536 0.13854 0.0
C1300 C 0.45252 0.88206 0.17773 0.0
C1301 C 0.43408 0.87454 0.2936 0.0
C1302 C 0.44 0.87668 0.25324 0.0
H1303 H 0.48596 0.88558 0.09152 0.0
H1304 H 0.47321 0.87815 0.15369 0.0
H1305 H 0.45054 0.89989 0.17921 0.0
H1306 H 0.41014 0.87801 0.34266 0.0
H1307 H 0.41751 0.8772 0.27515 0.0
C1308 C 0.09853 0.5722 0.10597 0.0
C1309 C 0.10723 0.58417 0.08584 0.0
C1310 C 0.10188 0.56955 0.14344 0.0
C1311 C 0.12145 0.58546 0.23268 0.0
H1312 H 0.11272 0.54896 0.25625 0.0
C1313 C 0.10774 0.56199 0.38914 0.0
C1314 C 0.11 0.55139 0.3986 0.0
C1315 C 0.11145 0.56822 0.35184 0.0
C1316 C 0.11552 0.55929 0.25023 0.0
H1317 H 0.12629 0.60279 0.08938 0.0
H1318 H 0.13212 0.59813 0.15555 0.0
H1319 H 0.1115 0.55528 0.188 0.0
H1320 H 0.1191 0.53988 0.37811 0.0
H1321 H 0.12587 0.55096 0.31345 0.0
H1322 H 0.12523 0.58937 0.29525 0.0
C1323 C 0.12271 0.59083 0.14199 0.0
C1324 C 0.11464 0.56285 0.21109 0.0
C1325 C 0.11939 0.59347 0.10415 0.0
C1326 C 0.11701 0.54787 0.37137 0.0
C1327 C 0.12085 0.55419 0.33428 0.0
C1328 C 0.12235 0.58189 0.27201 0.0
C1329 C 0.114 0.5788 0.16185 0.0
C1330 C 0.11715 0.57583 0.20212 0.0
C1331 C 0.11761 0.56405 0.32344 0.0
C1332 C 0.119 0.56864 0.28137 0.0
H1333 H 0.08907 0.56483 0.09281 0.0
H1334 H 0.09484 0.5603 0.15833 0.0
H1335 H 0.12345 0.59554 0.22658 0.0
H1336 H 0.10239 0.56496 0.40958 0.0
H1337 H 0.1087 0.5757 0.34443 0.0
C1338 C 0.41668 0.54863 0.09127 0.0
C1339 C 0.41699 0.53695 0.08093 0.0
C1340 C 0.41839 0.55293 0.131 0.0
C1341 C 0.41901 0.54196 0.23521 0.0
H1342 H 0.4456 0.57938 0.2519 0.0
C1343 C 0.44162 0.56142 0.39073 0.0
C1344 C 0.45572 0.56895 0.3908 0.0
C1345 C 0.43447 0.55893 0.35497 0.0
C1346 C 0.43811 0.56892 0.24777 0.0
H1347 H 0.41883 0.52034 0.10437 0.0
H1348 H 0.42201 0.5279 0.17308 0.0
H1349 H 0.437 0.57152 0.18499 0.0
H1350 H 0.47335 0.58035 0.35371 0.0
H1351 H 0.46098 0.57584 0.29168 0.0
H1352 H 0.42079 0.53915 0.29747 0.0
C1353 C 0.42026 0.53368 0.15081 0.0
C1354 C 0.43305 0.56444 0.20948 0.0
C1355 C 0.41856 0.52941 0.11125 0.0
C1356 C 0.46249 0.57446 0.35473 0.0
C1357 C 0.45537 0.57198 0.31911 0.0
C1358 C 0.4241 0.54642 0.27346 0.0
C1359 C 0.42041 0.5456 0.16111 0.0
C1360 C 0.42381 0.5508 0.20254 0.0
C1361 C 0.4413 0.56395 0.31864 0.0
C1362 C 0.43407 0.55985 0.27991 0.0
H1363 H 0.41542 0.55463 0.06861 0.0
H1364 H 0.41834 0.56209 0.13805 0.0
H1365 H 0.4117 0.53144 0.23095 0.0
H1366 H 0.43611 0.55711 0.41808 0.0
H1367 H 0.42362 0.55283 0.35565 0.0
C1368 C 0.11395 0.57956 0.8742 0.0
C1369 C 0.10614 0.56832 0.89841 0.0
C1370 C 0.11921 0.57813 0.83819 0.0
C1371 C 0.11717 0.56985 0.75223 0.0
H1372 H 0.12626 0.5423 0.72931 0.0
C1373 C 0.10398 0.54178 0.60485 0.0
C1374 C 0.11303 0.53856 0.58682 0.0
C1375 C 0.10663 0.54769 0.64244 0.0
C1376 C 0.12399 0.5502 0.73526 0.0
H1377 H 0.09851 0.54696 0.90533 0.0
H1378 H 0.10732 0.54439 0.84204 0.0
H1379 H 0.12574 0.54877 0.79848 0.0
H1380 H 0.13206 0.53913 0.59392 0.0
H1381 H 0.13665 0.54942 0.66041 0.0
H1382 H 0.1151 0.57106 0.68924 0.0
C1383 C 0.1096 0.55435 0.85102 0.0
C1384 C 0.12356 0.55382 0.77485 0.0
C1385 C 0.10445 0.5558 0.88723 0.0
C1386 C 0.1249 0.54151 0.6071 0.0
C1387 C 0.12751 0.54735 0.64511 0.0
C1388 C 0.11762 0.56625 0.71281 0.0
C1389 C 0.11665 0.56542 0.82544 0.0
C1390 C 0.11968 0.56335 0.78382 0.0
C1391 C 0.11838 0.55049 0.66308 0.0
C1392 C 0.12053 0.55604 0.70401 0.0
H1393 H 0.11562 0.58939 0.88235 0.0
H1394 H 0.12484 0.58691 0.81958 0.0
H1395 H 0.11403 0.57714 0.7579 0.0
H1396 H 0.09475 0.53967 0.59004 0.0
H1397 H 0.09928 0.54977 0.6558 0.0
C1398 C 0.4286 0.55014 0.87164 0.0
C1399 C 0.43869 0.55038 0.89584 0.0
C1400 C 0.43187 0.55707 0.8354 0.0
C1401 C 0.46064 0.58125 0.77184 0.0
H1402 H 0.43776 0.55894 0.68601 0.0
C1403 C 0.47473 0.59437 0.60527 0.0
C1404 C 0.47322 0.58352 0.58204 0.0
C1405 C 0.46915 0.59219 0.64356 0.0
C1406 C 0.44424 0.56532 0.70962 0.0
H1407 H 0.46019 0.55877 0.90232 0.0
H1408 H 0.46587 0.57048 0.83872 0.0
H1409 H 0.43094 0.55247 0.75469 0.0
H1410 H 0.46442 0.56186 0.58046 0.0
H1411 H 0.45492 0.5581 0.64694 0.0
H1412 H 0.47437 0.59361 0.7264 0.0
C1413 C 0.45544 0.56517 0.84785 0.0
C1414 C 0.44024 0.56171 0.74911 0.0
C1415 C 0.45218 0.55836 0.8843 0.0
C1416 C 0.46578 0.57045 0.5975 0.0
C1417 C 0.46022 0.56828 0.63558 0.0
C1418 C 0.46468 0.58482 0.73222 0.0
C1419 C 0.44528 0.56425 0.82236 0.0
C1420 C 0.44857 0.56941 0.78077 0.0
C1421 C 0.46191 0.57911 0.65922 0.0
C1422 C 0.45672 0.57664 0.70074 0.0
H1423 H 0.41812 0.54423 0.88003 0.0
H1424 H 0.42382 0.5564 0.81695 0.0
H1425 H 0.46719 0.58753 0.79547 0.0
H1426 H 0.48038 0.60457 0.59415 0.0
H1427 H 0.47055 0.60073 0.66097 0.0
C1428 C 0.4698 0.89577 0.84943 0.0
C1429 C 0.4633 0.89767 0.88214 0.0
C1430 C 0.46288 0.89037 0.81386 0.0
C1431 C 0.42875 0.87286 0.76818 0.0
H1432 H 0.44845 0.89116 0.67271 0.0
C1433 C 0.40447 0.87512 0.61959 0.0
C1434 C 0.41106 0.87551 0.58387 0.0
C1435 C 0.40988 0.87451 0.65633 0.0
C1436 C 0.44286 0.88574 0.69894 0.0
H1437 H 0.44435 0.89504 0.90367 0.0
H1438 H 0.43237 0.88601 0.84114 0.0
H1439 H 0.45992 0.89665 0.73649 0.0
H1440 H 0.42781 0.87433 0.55854 0.0
H1441 H 0.43719 0.8732 0.62262 0.0
H1442 H 0.41151 0.86239 0.7303 0.0
C1443 C 0.44273 0.88842 0.84318 0.0
C1444 C 0.44944 0.88889 0.7356 0.0
C1445 C 0.44963 0.89369 0.87895 0.0
C1446 C 0.42258 0.87423 0.58552 0.0
C1447 C 0.42799 0.87362 0.62222 0.0
C1448 C 0.42212 0.86977 0.73139 0.0
C1449 C 0.44934 0.8869 0.81 0.0
C1450 C 0.44245 0.88262 0.77077 0.0
C1451 C 0.42197 0.87427 0.65799 0.0
C1452 C 0.42909 0.87631 0.69648 0.0
H1453 H 0.48029 0.89856 0.85116 0.0
H1454 H 0.46821 0.88907 0.78919 0.0
H1455 H 0.42311 0.8677 0.79462 0.0
H1456 H 0.39553 0.87602 0.61933 0.0
H1457 H 0.40505 0.87507 0.68342 0.0
C1458 C 0.188 0.44159 0.18563 0.0
C1459 C 0.19924 0.44552 0.21034 0.0
C1460 C 0.18947 0.44276 0.14424 0.0
C1461 C 0.21473 0.45693 0.0622 0.0
H1462 H 0.18942 0.42413 0.00786 0.0
C1463 C 0.22731 0.43712 0.92165 0.0
C1464 C 0.2172 0.42984 0.89339 0.0
C1465 C 0.22448 0.44211 0.95595 0.0
C1466 C 0.19641 0.4335 0.02223 0.0
H1467 H 0.22091 0.45446 0.21121 0.0
H1468 H 0.22344 0.45618 0.13903 0.0
H1469 H 0.18558 0.42736 0.07707 0.0
H1470 H 0.19643 0.42283 0.87766 0.0
H1471 H 0.19148 0.43154 0.93787 0.0
H1472 H 0.2259 0.4627 0.00757 0.0
C1473 C 0.21351 0.45239 0.15153 0.0
C1474 C 0.1942 0.43537 0.06203 0.0
C1475 C 0.21205 0.45131 0.19297 0.0
C1476 C 0.2044 0.42832 0.89904 0.0
C1477 C 0.20155 0.43326 0.93353 0.0
C1478 C 0.21696 0.45503 0.02235 0.0
C1479 C 0.20219 0.44779 0.12665 0.0
C1480 C 0.20353 0.44693 0.08283 0.0
C1481 C 0.21148 0.4399 0.96282 0.0
C1482 C 0.20801 0.44312 0.00234 0.0
H1483 H 0.178 0.43725 0.19817 0.0
H1484 H 0.18058 0.43937 0.12597 0.0
H1485 H 0.22197 0.46605 0.07718 0.0
H1486 H 0.23731 0.43856 0.91803 0.0
H1487 H 0.23231 0.44706 0.97811 0.0
C1488 C 0.54642 0.7634 0.95011 0.0
C1489 C 0.54209 0.7723 0.93791 0.0
C1490 C 0.54296 0.7574 0.98775 0.0
C1491 C 0.53513 0.76538 0.08626 0.0
H1492 H 0.53479 0.73263 0.11607 0.0
C1493 C 0.55636 0.76026 0.23413 0.0
C1494 C 0.55007 0.74801 0.25489 0.0
C1495 C 0.55187 0.76131 0.19646 0.0
C1496 C 0.53462 0.74168 0.10829 0.0
H1497 H 0.52959 0.78079 0.95371 0.0
H1498 H 0.52324 0.77003 0.01894 0.0
H1499 H 0.5319 0.73666 0.04615 0.0
H1500 H 0.53401 0.72725 0.25251 0.0
H1501 H 0.52614 0.72911 0.18611 0.0
H1502 H 0.53806 0.77052 0.14813 0.0
C1503 C 0.52968 0.76803 4e-05 0.0
C1504 C 0.5331 0.74406 0.06819 0.0
C1505 C 0.53327 0.77415 0.96259 0.0
C1506 C 0.53906 0.73683 0.23723 0.0
C1507 C 0.53459 0.73787 0.19923 0.0
C1508 C 0.53658 0.76298 0.1262 0.0
C1509 C 0.53498 0.76007 0.0138 0.0
C1510 C 0.53383 0.75617 0.05655 0.0
C1511 C 0.54097 0.75014 0.17848 0.0
C1512 C 0.53687 0.75137 0.13745 0.0
H1513 H 0.55319 0.76173 0.93171 0.0
H1514 H 0.54733 0.75143 -0.00266 0.0
H1515 H 0.53586 0.77487 0.07856 0.0
H1516 H 0.56488 0.76908 0.2468 0.0
H1517 H 0.55718 0.77084 0.18096 0.0
C1518 C 0.23166 0.80383 0.21639 0.0
C1519 C 0.24221 0.80751 0.24367 0.0
C1520 C 0.23186 0.79835 0.17952 0.0
C1521 C 0.25373 0.79638 0.10457 0.0
H1522 H 0.22035 0.76591 0.06827 0.0
C1523 C 0.2262 0.76015 0.95823 0.0
C1524 C 0.22955 0.77032 0.92976 0.0
C1525 C 0.23084 0.76342 -0.00261 0.0
C1526 C 0.22986 0.77423 0.07809 0.0
H1527 H 0.2614 0.80861 0.2533 0.0
H1528 H 0.26177 0.79908 0.18827 0.0
H1529 H 0.22197 0.77414 0.13589 0.0
H1530 H 0.24153 0.79175 0.9189 0.0
H1531 H 0.24937 0.79747 0.98731 0.0
H1532 H 0.26148 0.79667 0.04616 0.0
C1533 C 0.25335 0.80043 0.19575 0.0
C1534 C 0.23071 0.77905 0.11671 0.0
C1535 C 0.25311 0.80583 0.23292 0.0
C1536 C 0.23867 0.78369 0.94022 0.0
C1537 C 0.24324 0.78697 0.97948 0.0
C1538 C 0.25286 0.79158 0.06569 0.0
C1539 C 0.24263 0.79647 0.16896 0.0
C1540 C 0.2425 0.79041 0.12994 0.0
C1541 C 0.23884 0.77692 0.00888 0.0
C1542 C 0.24079 0.78065 0.05173 0.0
H1543 H 0.22314 0.80503 0.22365 0.0
H1544 H 0.22357 0.79561 0.15913 0.0
H1545 H 0.26294 0.80515 0.11409 0.0
H1546 H 0.21936 0.74973 0.9509 0.0
H1547 H 0.22753 0.75543 0.0192 0.0
C1548 C 0.18934 0.23445 0.34651 0.0
C1549 C 0.18301 0.23794 0.31683 0.0
C1550 C 0.19859 0.23043 0.33607 0.0
C1551 C 0.20595 0.21487 0.25188 0.0
H1552 H 0.23757 0.22232 0.31301 0.0
C1553 C 0.23804 0.19191 0.20617 0.0
C1554 C 0.24156 0.18599 0.23706 0.0
C1555 C 0.23311 0.20051 0.21488 0.0
C1556 C 0.22874 0.22012 0.29575 0.0
H1557 H 0.18211 0.24091 0.25319 0.0
H1558 H 0.19832 0.23411 0.23512 0.0
H1559 H 0.22493 0.23351 0.33053 0.0
H1560 H 0.24327 0.18494 0.30126 0.0
H1561 H 0.23439 0.19975 0.31648 0.0
H1562 H 0.20943 0.20124 0.21783 0.0
C1563 C 0.19592 0.23415 0.26636 0.0
C1564 C 0.22151 0.22652 0.30577 0.0
C1565 C 0.18666 0.23809 0.27675 0.0
C1566 C 0.24062 0.18933 0.27679 0.0
C1567 C 0.23561 0.19789 0.28551 0.0
C1568 C 0.21313 0.20847 0.24194 0.0
C1569 C 0.20169 0.2299 0.29577 0.0
C1570 C 0.20998 0.22388 0.28407 0.0
C1571 C 0.2315 0.20331 0.25466 0.0
C1572 C 0.22455 0.21093 0.2639 0.0
H1573 H 0.18675 0.23426 0.37767 0.0
H1574 H 0.2028 0.22714 0.3594 0.0
H1575 H 0.19695 0.21238 0.2351 0.0
H1576 H 0.2388 0.18965 0.17522 0.0
H1577 H 0.23029 0.20474 0.1904 0.0
C1578 C 0.79674 0.95835 0.27613 0.0
C1579 C 0.78288 0.95054 0.28321 0.0
C1580 C 0.80233 0.97161 0.26328 0.0
C1581 C 0.79416 0.99536 0.21468 0.0
H1582 H 0.82883 0.02159 0.25756 0.0
C1583 C 0.83622 0.05584 0.20879 0.0
C1584 C 0.83683 0.05799 0.16742 0.0
C1585 C 0.82798 0.04307 0.22454 0.0
C1586 C 0.81905 0.01448 0.24565 0.0
H1587 H 0.76398 0.9505 0.28232 0.0
H1588 H 0.77384 0.97381 0.2603 0.0
H1589 H 0.81771 -0.00122 0.28282 0.0
H1590 H 0.82883 0.04863 0.11017 0.0
H1591 H 0.81468 0.02615 0.13759 0.0
H1592 H 0.79549 0.01121 0.17778 0.0
C1593 C 0.78033 0.96959 0.26428 0.0
C1594 C 0.81276 0.00133 0.25976 0.0
C1595 C 0.77471 0.95628 0.2771 0.0
C1596 C 0.82856 0.04724 0.14219 0.0
C1597 C 0.82041 0.03439 0.15795 0.0
C1598 C 0.80044 0.00859 0.20061 0.0
C1599 C 0.79422 0.97741 0.25737 0.0
C1600 C 0.80035 0.99157 0.24404 0.0
C1601 C 0.82028 0.0321 0.19925 0.0
C1602 C 0.81304 0.01826 0.21567 0.0
H1603 H 0.8033 0.95422 0.28027 0.0
H1604 H 0.81303 0.97728 0.2575 0.0
H1605 H 0.78462 0.98805 0.20182 0.0
H1606 H 0.84233 0.06399 0.22903 0.0
H1607 H 0.82786 0.04173 0.25656 0.0
C1608 C 0.95681 0.75493 0.16477 0.0
C1609 C 0.94728 0.74929 0.19553 0.0
C1610 C 0.97054 0.76195 0.17373 0.0
C1611 C 0.99163 0.78198 0.25627 0.0
H1612 H 0.0211 0.78552 0.19123 0.0
C1613 C 0.04574 0.82134 0.29463 0.0
C1614 C 0.05382 0.82897 0.26258 0.0
C1615 C 0.03359 0.80957 0.28768 0.0
C1616 C 0.01296 0.78466 0.20958 0.0
H1617 H 0.94459 0.74526 0.25908 0.0
H1618 H 0.96848 0.75723 0.27454 0.0
H1619 H -0.00187 0.76778 0.17635 0.0
H1620 H 0.05576 0.83 0.19812 0.0
H1621 H 0.03434 0.80967 0.18592 0.0
H1622 H 0.00617 0.79907 0.2885 0.0
C1623 C 0.96539 0.7566 0.24371 0.0
C1624 C -0.00017 0.7745 0.20113 0.0
C1625 C 0.95171 0.7497 0.23483 0.0
C1626 C 0.04973 0.82435 0.22345 0.0
C1627 C 0.0375 0.81263 0.21647 0.0
C1628 C 0.00467 0.79213 0.26458 0.0
C1629 C 0.97491 0.76334 0.21354 0.0
C1630 C 0.98902 0.77314 0.22421 0.0
C1631 C 0.02917 0.80524 0.24851 0.0
C1632 C 0.01549 0.7937 0.24114 0.0
H1633 H 0.95368 0.75476 0.13419 0.0
H1634 H 0.97763 0.76706 0.14983 0.0
H1635 H 0.9835 0.78143 0.27405 0.0
H1636 H 0.04871 0.82455 0.32516 0.0
H1637 H 0.02756 0.80398 0.31307 0.0
C1638 C 0.80942 0.76554 0.6633 0.0
C1639 C 0.81682 0.7636 0.69327 0.0
C1640 C 0.79878 0.76761 0.67348 0.0
C1641 C 0.78835 0.78042 0.75838 0.0
H1642 H 0.75622 0.76984 0.69581 0.0
C1643 C 0.75154 0.79718 0.80567 0.0
C1644 C 0.74803 0.80332 0.77548 0.0
C1645 C 0.75728 0.78935 0.79603 0.0
C1646 C 0.76516 0.77285 0.71353 0.0
H1647 H 0.81823 0.7611 0.75688 0.0
H1648 H 0.79948 0.76425 0.7745 0.0
H1649 H 0.77131 0.76139 0.67782 0.0
H1650 H 0.74688 0.80531 0.71142 0.0
H1651 H 0.75717 0.79185 0.69463 0.0
H1652 H 0.7825 0.79209 0.79349 0.0
C1653 C 0.80214 0.76469 0.74331 0.0
C1654 C 0.7738 0.76805 0.70321 0.0
C1655 C 0.81285 0.76284 0.73322 0.0
C1656 C 0.74954 0.80075 0.73537 0.0
C1657 C 0.75537 0.79297 0.72573 0.0
C1658 C 0.77975 0.78515 0.76871 0.0
C1659 C 0.7953 0.7676 0.71375 0.0
C1660 C 0.78554 0.77186 0.72544 0.0
C1661 C 0.75972 0.78759 0.75603 0.0
C1662 C 0.7681 0.78151 0.74631 0.0
H1663 H 0.81228 0.76615 0.63224 0.0
H1664 H 0.79376 0.76989 0.65 0.0
H1665 H 0.79748 0.78387 0.77555 0.0
H1666 H 0.75032 0.7988 0.83685 0.0
H1667 H 0.76027 0.78509 0.82001 0.0
C1668 C 0.22756 0.04289 0.70386 0.0
C1669 C 0.2164 0.04437 0.69532 0.0
C1670 C 0.22582 0.03032 0.71398 0.0
C1671 C 0.21797 0.00442 0.75974 0.0
H1672 H 0.1903 0.97261 0.70671 0.0
C1673 C 0.19268 0.95146 0.82887 0.0
C1674 C 0.18759 0.9403 0.80331 0.0
C1675 C 0.19904 0.96447 0.81321 0.0
C1676 C 0.19825 0.98137 0.72143 0.0
H1677 H 0.19468 0.03384 0.69047 0.0
H1678 H 0.19163 0.01201 0.70848 0.0
H1679 H 0.19567 0.99465 0.68262 0.0
H1680 H 0.18629 0.934 0.74171 0.0
H1681 H 0.19769 0.95667 0.71448 0.0
H1682 H 0.2205 0.99107 0.79868 0.0
C1683 C 0.20175 0.02049 0.70681 0.0
C1684 C 0.20119 0.99402 0.70793 0.0
C1685 C 0.20349 0.03303 0.69674 0.0
C1686 C 0.18993 0.94241 0.76211 0.0
C1687 C 0.1964 0.9554 0.7465 0.0
C1688 C 0.21505 0.99174 0.77323 0.0
C1689 C 0.21288 0.01899 0.71564 0.0
C1690 C 0.21085 0.00567 0.72748 0.0
C1691 C 0.20054 0.96655 0.77171 0.0
C1692 C 0.20496 0.98006 0.7547 0.0
H1693 H 0.23766 0.05144 0.70294 0.0
H1694 H 0.23459 0.02945 0.7203 0.0
H1695 H 0.22544 0.01323 0.77553 0.0
H1696 H 0.19104 0.95015 0.86078 0.0
H1697 H 0.20203 0.97281 0.8335 0.0
C1698 C 0.9324 0.18005 0.7845 0.0
C1699 C 0.93028 0.1788 0.74305 0.0
C1700 C 0.94526 0.18836 0.79998 0.0
C1701 C 0.97983 0.21512 0.77235 0.0
H1702 H 0.99061 0.19849 0.85394 0.0
C1703 C 0.03372 0.2257 0.79164 0.0
C1704 C 0.03871 0.22614 0.8302 0.0
C1705 C 0.02049 0.22268 0.78606 0.0
C1706 C 0.98771 0.20342 0.83177 0.0
H1707 H 0.93987 0.1857 0.68536 0.0
H1708 H 0.96226 0.19992 0.7122 0.0
H1709 H 0.96709 0.18807 0.83482 0.0
H1710 H 0.0339 0.22425 0.8933 0.0
H1711 H 0.01061 0.21877 0.88342 0.0
H1712 H 0.00063 0.2301 0.76799 0.0
C1713 C 0.954 0.19468 0.7329 0.0
C1714 C 0.97422 0.19746 0.8208 0.0
C1715 C 0.94116 0.18643 0.71746 0.0
C1716 C 0.03033 0.22396 0.86321 0.0
C1717 C 0.017 0.22079 0.85759 0.0
C1718 C 0.99334 0.22103 0.78316 0.0
C1719 C 0.95625 0.19555 0.77431 0.0
C1720 C 0.97018 0.20303 0.79014 0.0
C1721 C 0.01191 0.21993 0.8189 0.0
C1722 C 0.99746 0.21503 0.81218 0.0
H1723 H 0.9242 0.17438 0.80504 0.0
H1724 H 0.94662 0.18895 0.83203 0.0
H1725 H 0.977 0.21981 0.74921 0.0
H1726 H 0.03996 0.22741 0.76561 0.0
H1727 H 0.01681 0.22194 0.75588 0.0
C1728 C 0.8658 0.581 0.61217 0.0
C1729 C 0.86159 0.57988 0.65202 0.0
C1730 C 0.87387 0.57577 0.60027 0.0
C1731 C 0.89454 0.56125 0.63451 0.0
H1732 H 0.87897 0.53843 0.54185 0.0
C1733 C 0.90417 0.51795 0.59269 0.0
C1734 C 0.90423 0.51498 0.55206 0.0
C1735 C 0.90137 0.52795 0.60449 0.0
C1736 C 0.88367 0.54495 0.56724 0.0
H1737 H 0.86336 0.57336 0.71128 0.0
H1738 H 0.87734 0.56398 0.69027 0.0
H1739 H 0.87033 0.55274 0.56353 0.0
H1740 H 0.90228 0.5207 0.49185 0.0
H1741 H 0.89773 0.53834 0.51231 0.0
H1742 H 0.90775 0.55318 0.63843 0.0
C1743 C 0.87447 0.569 0.66833 0.0
C1744 C 0.87869 0.55316 0.57972 0.0
C1745 C 0.86643 0.57433 0.68035 0.0
C1746 C 0.90209 0.52262 0.52341 0.0
C1747 C 0.89944 0.5327 0.53517 0.0
C1748 C 0.8996 0.55304 0.62184 0.0
C1749 C 0.87782 0.56922 0.62788 0.0
C1750 C 0.88399 0.56134 0.61361 0.0
C1751 C 0.8987 0.53525 0.57585 0.0
C1752 C 0.89413 0.54471 0.58821 0.0
H1753 H 0.86241 0.58543 0.58978 0.0
H1754 H 0.87656 0.57636 0.56906 0.0
H1755 H 0.89885 0.5675 0.66065 0.0
H1756 H 0.9058 0.51224 0.61547 0.0
H1757 H 0.90075 0.52956 0.63607 0.0
C1758 C 0.41962 0.29068 0.6911 0.0
C1759 C 0.41409 0.28054 0.66203 0.0
C1760 C 0.42364 0.30397 0.68099 0.0
C1761 C 0.43594 0.32523 0.59243 0.0
H1762 H 0.43787 0.35282 0.6631 0.0
C1763 C 0.46761 0.38034 0.54882 0.0
C1764 C 0.47647 0.38864 0.57859 0.0
C1765 C 0.4568 0.36774 0.55854 0.0
C1766 C 0.43739 0.34522 0.64304 0.0
H1767 H 0.40711 0.27605 0.60083 0.0
H1768 H 0.4138 0.29912 0.58349 0.0
H1769 H 0.42404 0.32916 0.68159 0.0
H1770 H 0.48046 0.39064 0.6422 0.0
H1771 H 0.46183 0.36851 0.65905 0.0
H1772 H 0.44966 0.34112 0.55471 0.0
C1773 C 0.41545 0.29693 0.61372 0.0
C1774 C 0.42947 0.33168 0.65361 0.0
C1775 C 0.41157 0.28371 0.62369 0.0
C1776 C 0.47383 0.38444 0.61857 0.0
C1777 C 0.46308 0.37178 0.62826 0.0
C1778 C 0.44383 0.3387 0.58194 0.0
C1779 C 0.42208 0.3073 0.64172 0.0
C1780 C 0.42888 0.32155 0.62873 0.0
C1781 C 0.4547 0.36312 0.59818 0.0
C1782 C 0.44487 0.34887 0.60742 0.0
H1783 H 0.42166 0.28853 0.72093 0.0
H1784 H 0.42878 0.31171 0.70325 0.0
H1785 H 0.43598 0.31774 0.57293 0.0
H1786 H 0.46925 0.38338 0.51779 0.0
H1787 H 0.45035 0.36143 0.53477 0.0
C1788 C 0.62036 0.08241 0.47278 0.0
C1789 C 0.61038 0.07591 0.50195 0.0
C1790 C 0.63394 0.08835 0.48308 0.0
C1791 C 0.65433 0.10397 0.57131 0.0
H1792 H 0.68406 0.10958 0.50376 0.0
C1793 C 0.70812 0.14135 0.61765 0.0
C1794 C 0.71626 0.15029 0.58778 0.0
C1795 C 0.69616 0.12976 0.60772 0.0
C1796 C 0.67585 0.10811 0.52291 0.0
H1797 H 0.60666 0.06918 0.56347 0.0
H1798 H 0.63029 0.07925 0.58117 0.0
H1799 H 0.66107 0.09298 0.48461 0.0
H1800 H 0.71858 0.15379 0.52395 0.0
H1801 H 0.69746 0.13378 0.50664 0.0
H1802 H 0.66883 0.11938 0.60867 0.0
C1803 C 0.62769 0.08015 0.55071 0.0
C1804 C 0.66271 0.0986 0.51198 0.0
C1805 C 0.61416 0.07434 0.54054 0.0
C1806 C 0.71249 0.1471 0.54764 0.0
C1807 C 0.70043 0.13557 0.5377 0.0
C1808 C 0.66738 0.11346 0.5821 0.0
C1809 C 0.63772 0.08778 0.52263 0.0
C1810 C 0.6518 0.09657 0.53584 0.0
C1811 C 0.69197 0.12694 0.56772 0.0
C1812 C 0.6783 0.1158 0.5578 0.0
H1813 H 0.61773 0.08376 0.44277 0.0
H1814 H 0.64142 0.09419 0.46077 0.0
H1815 H 0.64615 0.10291 0.58992 0.0
H1816 H 0.71087 0.14343 0.64883 0.0
H1817 H 0.69002 0.12317 0.63151 0.0
C1818 C 0.44314 0.15662 0.17191 0.0
C1819 C 0.43655 0.16173 0.14867 0.0
C1820 C 0.44481 0.14616 0.15757 0.0
C1821 C 0.44684 0.13177 0.06157 0.0
H1822 H 0.45212 0.10783 0.13097 0.0
C1823 C 0.48324 0.11346 0.02325 0.0
C1824 C 0.48095 0.10096 0.03712 0.0
C1825 C 0.47443 0.11801 0.03303 0.0
C1826 C 0.45042 0.11422 0.11091 0.0
H1827 H 0.42562 0.15922 0.09362 0.0
H1828 H 0.42817 0.14067 0.0691 0.0
H1829 H 0.44191 0.12033 0.15746 0.0
H1830 H 0.46721 0.0831 0.07033 0.0
H1831 H 0.45165 0.09103 0.08701 0.0
H1832 H 0.45532 0.12565 0.01504 0.0
C1833 C 0.43244 0.14503 0.09782 0.0
C1834 C 0.44475 0.12155 0.12627 0.0
C1835 C 0.43093 0.15562 0.11193 0.0
C1836 C 0.4693 0.09283 0.05943 0.0
C1837 C 0.46042 0.09739 0.06914 0.0
C1838 C 0.45237 0.12434 0.04614 0.0
C1839 C 0.43977 0.14044 0.11989 0.0
C1840 C 0.44338 0.13081 0.10218 0.0
C1841 C 0.46304 0.11016 0.05672 0.0
C1842 C 0.45474 0.1159 0.071 0.0
H1843 H 0.44757 0.16113 0.20036 0.0
H1844 H 0.45067 0.14305 0.17522 0.0
H1845 H 0.44603 0.13883 0.04205 0.0
H1846 H 0.4921 0.11997 0.00592 0.0
H1847 H 0.47691 0.12799 0.02345 0.0
C1848 C 0.90665 0.37656 0.1023 0.0
C1849 C 0.90821 0.38032 0.06191 0.0
C1850 C 0.90266 0.36335 0.1131 0.0
C1851 C 0.88358 0.32956 0.07072 0.0
H1852 H 0.89346 0.31873 0.16871 0.0
C1853 C 0.85713 0.2744 0.1148 0.0
C1854 C 0.85211 0.27167 0.15395 0.0
C1855 C 0.86684 0.28737 0.10373 0.0
C1856 C 0.89061 0.32162 0.14126 0.0
H1857 H 0.90786 0.37351 0.00136 0.0
H1858 H 0.90119 0.35055 0.02021 0.0
H1859 H 0.90562 0.34234 0.14837 0.0
H1860 H 0.85394 0.28018 0.21291 0.0
H1861 H 0.87072 0.30296 0.19333 0.0
H1862 H 0.86836 0.30907 0.06399 0.0
C1863 C 0.90267 0.35769 0.04351 0.0
C1864 C 0.89756 0.33512 0.12963 0.0
C1865 C 0.90653 0.37085 0.03271 0.0
C1866 C 0.8576 0.28199 0.18248 0.0
C1867 C 0.86726 0.29503 0.1713 0.0
C1868 C 0.87669 0.31614 0.08225 0.0
C1869 C 0.90026 0.35368 0.08371 0.0
C1870 C 0.89398 0.33926 0.09447 0.0
C1871 C 0.87164 0.29792 0.13147 0.0
C1872 C 0.87999 0.31202 0.11789 0.0
H1873 H 0.90791 0.38365 0.12551 0.0
H1874 H 0.90079 0.36058 0.1443 0.0
H1875 H 0.88033 0.33242 0.04396 0.0
H1876 H 0.85325 0.26659 0.09228 0.0
H1877 H 0.87024 0.28922 0.07304 0.0
C1878 C 0.70094 0.55697 0.14296 0.0
C1879 C 0.71034 0.5638 0.11256 0.0
C1880 C 0.68731 0.55217 0.1365 0.0
C1881 C 0.66246 0.5535 0.06908 0.0
H1882 H 0.64063 0.51613 0.09965 0.0
C1883 C 0.60948 0.51772 0.00494 0.0
C1884 C 0.60012 0.50751 0.02992 0.0
C1885 C 0.62256 0.52637 0.01834 0.0
C1886 C 0.64648 0.52664 0.09159 0.0
H1887 H 0.71291 0.5717 0.05242 0.0
H1888 H 0.68902 0.56314 0.04094 0.0
H1889 H 0.66419 0.52834 0.11768 0.0
H1890 H 0.59677 0.49896 0.08936 0.0
H1891 H 0.61939 0.51422 0.11303 0.0
H1892 H 0.64466 0.55164 0.04231 0.0
C1893 C 0.69223 0.56158 0.06986 0.0
C1894 C 0.66002 0.53364 0.10192 0.0
C1895 C 0.70591 0.56642 0.07637 0.0
C1896 C 0.60383 0.5066 0.0692 0.0
C1897 C 0.61682 0.51531 0.08271 0.0
C1898 C 0.64883 0.54648 0.05883 0.0
C1899 C 0.68276 0.55406 0.09947 0.0
C1900 C 0.66819 0.54712 0.09058 0.0
C1901 C 0.62646 0.52503 0.05709 0.0
C1902 C 0.64072 0.53292 0.06977 0.0
H1903 H 0.70405 0.55494 0.1714 0.0
H1904 H 0.68026 0.54663 0.16014 0.0
H1905 H 0.66851 0.56391 0.06015 0.0
H1906 H 0.60688 0.51866 0.97451 0.0
H1907 H 0.62976 0.53368 -0.00225 0.0
C1908 C 0.5338 0.91509 0.94846 0.0
C1909 C 0.52876 0.91459 0.98695 0.0
C1910 C 0.54122 0.90881 0.94033 0.0
C1911 C 0.55775 0.89111 0.98489 0.0
H1912 H 0.54327 0.86874 0.89089 0.0
C1913 C 0.56064 0.84296 0.9564 0.0
C1914 C 0.56173 0.83966 0.91674 0.0
C1915 C 0.55946 0.85423 0.96488 0.0
C1916 C 0.54767 0.87509 0.91678 0.0
H1917 H 0.5284 0.90807 0.04784 0.0
H1918 H 0.54112 0.89677 0.03344 0.0
H1919 H 0.53673 0.88523 0.90607 0.0
H1920 H 0.56333 0.84605 0.85509 0.0
H1921 H 0.56154 0.8658 0.8699 0.0
H1922 H 0.5684 0.88055 0.99599 0.0
C1923 C 0.53949 0.90216 0.00963 0.0
C1924 C 0.54391 0.88459 0.9255 0.0
C1925 C 0.53216 0.9086 0.01787 0.0
C1926 C 0.56229 0.84821 0.88592 0.0
C1927 C 0.56123 0.85951 0.89441 0.0
C1928 C 0.56154 0.88157 0.97608 0.0
C1929 C 0.54361 0.90174 0.9704 0.0
C1930 C 0.54879 0.89263 0.95982 0.0
C1931 C 0.55944 0.86246 0.93386 0.0
C1932 C 0.55642 0.87336 0.9421 0.0
H1933 H 0.5315 0.91984 0.92417 0.0
H1934 H 0.54456 0.90895 0.91001 0.0
H1935 H 0.56174 0.89722 0.01143 0.0
H1936 H 0.56021 0.83658 0.9808 0.0
H1937 H 0.55798 0.85615 0.99556 0.0
C1938 C 0.08739 0.62228 0.9515 0.0
C1939 C 0.08904 0.61898 0.99065 0.0
C1940 C 0.09289 0.63567 0.94009 0.0
C1941 C 0.11038 0.67103 0.97588 0.0
H1942 H 0.13207 0.67683 0.88138 0.0
C1943 C 0.15879 0.7209 0.94166 0.0
C1944 C 0.16252 0.72447 0.90167 0.0
C1945 C 0.1472 0.70882 0.95108 0.0
C1946 C 0.12588 0.67548 0.90726 0.0
H1947 H 0.09664 0.62705 0.0495 0.0
H1948 H 0.10649 0.65048 0.02936 0.0
H1949 H 0.1157 0.65419 0.90084 0.0
H1950 H 0.15658 0.71871 0.84017 0.0
H1951 H 0.1362 0.69784 0.85653 0.0
H1952 H 0.12096 0.69243 0.98276 0.0
C1953 C 0.10085 0.64272 0.00754 0.0
C1954 C 0.11645 0.66244 0.91846 0.0
C1955 C 0.09526 0.62928 0.01905 0.0
C1956 C 0.15407 0.71611 0.87128 0.0
C1957 C 0.14241 0.70413 0.88068 0.0
C1958 C 0.11981 0.68415 0.96451 0.0
C1959 C 0.10024 0.64604 0.96751 0.0
C1960 C 0.10878 0.66003 0.95329 0.0
C1961 C 0.13904 0.70015 0.92067 0.0
C1962 C 0.12786 0.68649 0.93048 0.0
H1963 H 0.08244 0.61454 0.9291 0.0
H1964 H 0.09198 0.63793 0.90924 0.0
H1965 H 0.10453 0.66949 0.00272 0.0
H1966 H 0.16509 0.72716 0.96574 0.0
H1967 H 0.14501 0.70602 0.98218 0.0
C1968 C 0.28527 0.42556 0.7987 0.0
C1969 C 0.27407 0.4188 0.82386 0.0
C1970 C 0.29825 0.43211 0.81468 0.0
C1971 C 0.32545 0.44289 0.85548 0.0
H1972 H 0.32754 0.46342 0.94975 0.0
C1973 C 0.37574 0.47938 0.93368 0.0
C1974 C 0.37736 0.49194 0.94428 0.0
C1975 C 0.36328 0.469 0.92078 0.0
C1976 C 0.32713 0.45776 0.92342 0.0
H1977 H 0.26768 0.41244 0.88478 0.0
H1978 H 0.29029 0.42358 0.91245 0.0
H1979 H 0.30571 0.44715 0.92313 0.0
H1980 H 0.36715 0.50342 0.94984 0.0
H1981 H 0.34548 0.48537 0.92722 0.0
H1982 H 0.34697 0.45401 0.85504 0.0
C1983 C 0.28907 0.4242 0.88061 0.0
C1984 C 0.31462 0.44829 0.90844 0.0
C1985 C 0.27612 0.41775 0.86472 0.0
C1986 C 0.36624 0.49387 0.94201 0.0
C1987 C 0.3538 0.48349 0.92927 0.0
C1988 C 0.33802 0.45239 0.87056 0.0
C1989 C 0.30023 0.43191 0.85604 0.0
C1990 C 0.31361 0.44088 0.87396 0.0
C1991 C 0.35218 0.47096 0.91845 0.0
C1992 C 0.33896 0.46009 0.90426 0.0
H1993 H 0.28401 0.42654 0.76708 0.0
H1994 H 0.30663 0.43802 0.79494 0.0
H1995 H 0.32501 0.43727 0.82903 0.0
H1996 H 0.38412 0.47757 0.93512 0.0
H1997 H 0.3623 0.45942 0.91295 0.0
C1998 C 0.09565 0.47958 0.45457 0.0
C1999 C 0.09816 0.48509 0.49312 0.0
C2000 C 0.09982 0.47053 0.44372 0.0
C2001 C 0.11308 0.4491 0.48195 0.0
H2002 H 0.13157 0.45803 0.38014 0.0
C2003 C 0.15198 0.43368 0.43553 0.0
C2004 C 0.15279 0.43106 0.39497 0.0
C2005 C 0.14299 0.43776 0.44824 0.0
C2006 C 0.12623 0.45519 0.40828 0.0
H2007 H 0.10633 0.48488 0.55126 0.0
H2008 H 0.11391 0.46927 0.53201 0.0
H2009 H 0.11993 0.46964 0.40129 0.0
H2010 H 0.14414 0.4297 0.33643 0.0
H2011 H 0.12834 0.43658 0.3587 0.0
H2012 H 0.11979 0.43486 0.48917 0.0
C2013 C 0.10856 0.47182 0.51032 0.0
C2014 C 0.11954 0.46186 0.42045 0.0
C2015 C 0.10428 0.48082 0.52129 0.0
C2016 C 0.14389 0.43183 0.3678 0.0
C2017 C 0.13487 0.43582 0.38053 0.0
C2018 C 0.11981 0.44239 0.46972 0.0
C2019 C 0.10671 0.46689 0.47105 0.0
C2020 C 0.11297 0.45899 0.45753 0.0
C2021 C 0.13461 0.43923 0.42066 0.0
C2022 C 0.12655 0.44546 0.43285 0.0
H2023 H 0.09076 0.48251 0.43235 0.0
H2024 H 0.09797 0.46667 0.41351 0.0
H2025 H 0.10801 0.44659 0.51055 0.0
H2026 H 0.15868 0.43315 0.45722 0.0
H2027 H 0.14311 0.44039 0.47931 0.0
C2028 C 0.52711 0.6159 0.38748 0.0
C2029 C 0.52279 0.61128 0.42648 0.0
C2030 C 0.5367 0.62933 0.38055 0.0
C2031 C 0.54869 0.66216 0.42749 0.0
H2032 H 0.57348 0.67506 0.33824 0.0
C2033 C 0.57736 0.71796 0.39045 0.0
C2034 C 0.57631 0.72099 0.35045 0.0
C2035 C 0.57427 0.70503 0.40139 0.0
C2036 C 0.56661 0.67159 0.3633 0.0
H2037 H 0.52591 0.61681 0.48905 0.0
H2038 H 0.54288 0.64016 0.47707 0.0
H2039 H 0.56184 0.65118 0.35539 0.0
H2040 H 0.57215 0.7131 0.29015 0.0
H2041 H 0.5665 0.6904 0.3094 0.0
H2042 H 0.55309 0.68238 0.43483 0.0
C2043 C 0.53857 0.63351 0.45171 0.0
C2044 C 0.55994 0.65793 0.3731 0.0
C2045 C 0.52889 0.62012 0.4586 0.0
C2046 C 0.57301 0.71106 0.32124 0.0
C2047 C 0.56983 0.69807 0.33225 0.0
C2048 C 0.55538 0.67576 0.41782 0.0
C2049 C 0.54226 0.63838 0.41254 0.0
C2050 C 0.5507 0.65303 0.40487 0.0
C2051 C 0.56998 0.69481 0.37263 0.0
C2052 C 0.56423 0.68061 0.38521 0.0
H2053 H 0.52262 0.60932 0.36208 0.0
H2054 H 0.53919 0.63274 0.34999 0.0
H2055 H 0.54145 0.65874 0.45158 0.0
H2056 H 0.58009 0.72545 0.4136 0.0
H2057 H 0.57475 0.70289 0.43264 0.0
C2058 C 0.37487 0.89757 0.39728 0.0
C2059 C 0.37889 0.89441 0.43335 0.0
C2060 C 0.36174 0.89503 0.39245 0.0
C2061 C 0.32798 0.87255 0.43177 0.0
H2062 H 0.31801 0.89376 0.36517 0.0
C2063 C 0.2728 0.85433 0.3988 0.0
C2064 C 0.26973 0.85427 0.35818 0.0
C2065 C 0.28604 0.86172 0.4121 0.0
C2066 C 0.32066 0.88775 0.38383 0.0
H2067 H 0.37258 0.88696 0.49352 0.0
H2068 H 0.34975 0.88277 0.48535 0.0
H2069 H 0.34164 0.90234 0.38169 0.0
H2070 H 0.27803 0.86263 0.30011 0.0
H2071 H 0.30121 0.8754 0.32328 0.0
H2072 H 0.30715 0.85783 0.43319 0.0
C2073 C 0.35663 0.88689 0.46044 0.0
C2074 C 0.33418 0.89264 0.39325 0.0
C2075 C 0.36973 0.88933 0.46518 0.0
C2076 C 0.28008 0.86243 0.33157 0.0
C2077 C 0.29336 0.86981 0.34489 0.0
C2078 C 0.31452 0.8677 0.42249 0.0
C2079 C 0.35238 0.88937 0.42368 0.0
C2080 C 0.338 0.88499 0.41683 0.0
C2081 C 0.29652 0.86919 0.38508 0.0
C2082 C 0.31071 0.87514 0.39794 0.0
H2083 H 0.38171 0.90152 0.37221 0.0
H2084 H 0.35877 0.89694 0.36362 0.0
H2085 H 0.33057 0.86626 0.44931 0.0
H2086 H 0.26503 0.84829 0.42018 0.0
H2087 H 0.28813 0.86126 0.4434 0.0
C2088 C 0.29751 0.1795 0.13445 0.0
C2089 C 0.28826 0.17168 0.16417 0.0
C2090 C 0.31077 0.18217 0.13604 0.0
C2091 C 0.33615 0.18249 0.20457 0.0
H2092 H 0.35246 0.1792 0.10714 0.0
C2093 C 0.3854 0.18067 0.20414 0.0
C2094 C 0.39478 0.18784 0.17398 0.0
C2095 C 0.37259 0.1792 0.20316 0.0
C2096 C 0.34811 0.18032 0.13451 0.0
H2097 H 0.28575 0.1607 0.21921 0.0
H2098 H 0.30882 0.16528 0.22176 0.0
H2099 H 0.32985 0.176 0.10519 0.0
H2100 H 0.39807 0.19916 0.11922 0.0
H2101 H 0.37575 0.19668 0.11771 0.0
H2102 H 0.35439 0.18672 0.23393 0.0
C2103 C 0.30587 0.16946 0.19744 0.0
C2104 C 0.33516 0.1785 0.13339 0.0
C2105 C 0.29262 0.16678 0.19584 0.0
C2106 C 0.39107 0.19353 0.14285 0.0
C2107 C 0.37826 0.19205 0.14187 0.0
C2108 C 0.3491 0.18431 0.20569 0.0
C2109 C 0.31507 0.17711 0.16742 0.0
C2110 C 0.32901 0.17951 0.16843 0.0
C2111 C 0.36887 0.18487 0.17198 0.0
C2112 C 0.3552 0.18318 0.1707 0.0
H2113 H 0.29449 0.18346 0.10972 0.0
H2114 H 0.31768 0.18825 0.11274 0.0
H2115 H 0.33176 0.18353 0.23198 0.0
H2116 H 0.38793 0.17614 0.22849 0.0
H2117 H 0.36552 0.17346 0.22653 0.0
C2118 C 0.8235 0.19648 0.12403 0.0
C2119 C 0.82743 0.20442 0.1587 0.0
C2120 C 0.82621 0.18597 0.11982 0.0
C2121 C 0.83424 0.16362 0.17793 0.0
H2122 H 0.8482 0.15909 0.07741 0.0
C2123 C 0.85775 0.12991 0.16299 0.0
C2124 C 0.8549 0.12202 0.12842 0.0
C2125 C 0.85374 0.1395 0.16604 0.0
C2126 C 0.84413 0.1601 0.10549 0.0
H2127 H 0.83724 0.20753 0.21619 0.0
H2128 H 0.84202 0.18927 0.2087 0.0
H2129 H 0.84235 0.17668 0.08401 0.0
H2130 H 0.84557 0.118 0.06998 0.0
H2131 H 0.83846 0.1347 0.07549 0.0
H2132 H 0.83608 0.14712 0.19953 0.0
C2133 C 0.83672 0.19106 0.18496 0.0
C2134 C 0.84079 0.17018 0.10928 0.0
C2135 C 0.83405 0.20158 0.18914 0.0
C2136 C 0.84794 0.12393 0.09697 0.0
C2137 C 0.84393 0.13354 0.10004 0.0
C2138 C 0.83756 0.15354 0.17414 0.0
C2139 C 0.83286 0.18316 0.15023 0.0
C2140 C 0.83592 0.17213 0.14566 0.0
C2141 C 0.84678 0.14143 0.13464 0.0
C2142 C 0.84267 0.15175 0.138 0.0
H2143 H 0.81836 0.19838 0.10005 0.0
H2144 H 0.82298 0.17997 0.09289 0.0
H2145 H 0.83028 0.16471 0.20613 0.0
H2146 H 0.86314 0.12875 0.18773 0.0
H2147 H 0.85628 0.14555 0.19284 0.0
C2148 C 0.78059 0.61136 0.16993 0.0
C2149 C 0.78281 0.60047 0.17431 0.0
C2150 C 0.79118 0.62453 0.17435 0.0
C2151 C 0.82816 0.64474 0.17059 0.0
H2152 H 0.82293 0.67132 0.22624 0.0
C2153 C 0.87219 0.69754 0.20752 0.0
C2154 C 0.87002 0.70839 0.20121 0.0
C2155 C 0.86151 0.68434 0.20534 0.0
C2156 C 0.82451 0.66404 0.2103 0.0
H2157 H 0.79785 0.59486 0.18737 0.0
H2158 H 0.81624 0.6178 0.19548 0.0
H2159 H 0.80429 0.64833 0.22043 0.0
H2160 H 0.85492 0.71389 0.1879 0.0
H2161 H 0.83634 0.69087 0.1838 0.0
H2162 H 0.84836 0.66043 0.16037 0.0
C2163 C 0.80637 0.61618 0.18803 0.0
C2164 C 0.81383 0.65087 0.20695 0.0
C2165 C 0.7958 0.60303 0.18361 0.0
C2166 C 0.85693 0.70576 0.19297 0.0
C2167 C 0.84626 0.69257 0.19085 0.0
C2168 C 0.83883 0.65789 0.17396 0.0
C2169 C 0.8042 0.62709 0.18324 0.0
C2170 C 0.81554 0.64108 0.18703 0.0
C2171 C 0.84843 0.68171 0.19687 0.0
C2172 C 0.83713 0.66769 0.19381 0.0
H2173 H 0.7707 0.60973 0.16269 0.0
H2174 H 0.78921 0.63273 0.17005 0.0
H2175 H 0.82975 0.63748 0.15448 0.0
H2176 H 0.88214 0.69923 0.21405 0.0
H2177 H 0.86348 0.67619 0.2106 0.0
C2178 C 0.16496 0.37811 0.27057 0.0
C2179 C 0.17092 0.38736 0.30189 0.0
C2180 C 0.16346 0.36529 0.27323 0.0
C2181 C 0.16238 0.34063 0.34598 0.0
H2182 H 0.17029 0.32542 0.25375 0.0
C2183 C 0.16543 0.29217 0.35598 0.0
C2184 C 0.1594 0.28279 0.32499 0.0
C2185 C 0.16698 0.30498 0.35282 0.0
C2186 C 0.16791 0.32947 0.27965 0.0
H2187 H 0.17995 0.3904 0.36062 0.0
H2188 H 0.17742 0.36812 0.36507 0.0
H2189 H 0.17246 0.34759 0.24895 0.0
H2190 H 0.15038 0.27956 0.2662 0.0
H2191 H 0.153 0.30188 0.26086 0.0
H2192 H 0.15782 0.32253 0.37668 0.0
C2193 C 0.17376 0.3707 0.33866 0.0
C2194 C 0.16914 0.34217 0.27688 0.0
C2195 C 0.17527 0.3835 0.336 0.0
C2196 C 0.1551 0.28656 0.29059 0.0
C2197 C 0.15666 0.29938 0.28742 0.0
C2198 C 0.16115 0.32795 0.34874 0.0
C2199 C 0.16787 0.36146 0.30728 0.0
C2200 C 0.16641 0.3479 0.31004 0.0
C2201 C 0.16255 0.30871 0.3186 0.0
C2202 C 0.16391 0.32223 0.31563 0.0
H2203 H 0.16147 0.38075 0.24392 0.0
H2204 H 0.15873 0.35835 0.24875 0.0
H2205 H 0.16 0.34468 0.37188 0.0
H2206 H 0.16889 0.2896 0.38283 0.0
H2207 H 0.17173 0.31201 0.37712 0.0
C2208 C 0.62178 0.79507 0.2996 0.0
C2209 C 0.61338 0.79064 0.33327 0.0
C2210 C 0.63399 0.80716 0.30059 0.0
C2211 C 0.6594 0.83135 0.37023 0.0
H2212 H 0.67083 0.85509 0.27849 0.0
C2213 C 0.70783 0.88298 0.37316 0.0
C2214 C 0.71624 0.88607 0.33968 0.0
C2215 C 0.69472 0.87209 0.37227 0.0
C2216 C 0.66781 0.84852 0.30424 0.0
H2217 H 0.6112 0.79547 0.39441 0.0
H2218 H 0.63244 0.8166 0.396 0.0
H2219 H 0.64912 0.83439 0.27729 0.0
H2220 H 0.7173 0.88044 0.27855 0.0
H2221 H 0.6945 0.86144 0.27714 0.0
H2222 H 0.67813 0.84538 0.39702 0.0
C2223 C 0.62966 0.81065 0.36897 0.0
C2224 C 0.65539 0.83666 0.30353 0.0
C2225 C 0.61746 0.79856 0.36799 0.0
C2226 C 0.71109 0.87834 0.30486 0.0
C2227 C 0.69799 0.86748 0.30398 0.0
C2228 C 0.67181 0.8432 0.37094 0.0
C2229 C 0.63806 0.81509 0.33527 0.0
C2230 C 0.65108 0.82789 0.33641 0.0
C2231 C 0.68973 0.86409 0.33788 0.0
C2232 C 0.6762 0.85188 0.33785 0.0
H2233 H 0.61895 0.78919 0.27241 0.0
H2234 H 0.64032 0.8102 0.27431 0.0
H2235 H 0.65646 0.82472 0.39582 0.0
H2236 H 0.71147 0.88876 0.4004 0.0
H2237 H 0.68853 0.86984 0.39868 0.0
C2238 C 0.19433 0.83053 0.35572 0.0
C2239 C 0.20332 0.83504 0.32337 0.0
C2240 C 0.18375 0.83318 0.35726 0.0
C2241 C 0.16303 0.84175 0.29332 0.0
H2242 H 0.15343 0.85156 0.39361 0.0
C2243 C 0.12345 0.85853 0.30376 0.0
C2244 C 0.11435 0.85341 0.33575 0.0
C2245 C 0.13449 0.85657 0.3022 0.0
C2246 C 0.15591 0.8487 0.36547 0.0
H2247 H 0.20831 0.846 0.26745 0.0
H2248 H 0.18989 0.85075 0.27036 0.0
H2249 H 0.1725 0.84782 0.39101 0.0
H2250 H 0.10969 0.84221 0.3912 0.0
H2251 H 0.1289 0.83871 0.3883 0.0
H2252 H 0.14641 0.8426 0.26781 0.0
C2253 C 0.19094 0.845 0.29428 0.0
C2254 C 0.16683 0.84656 0.36397 0.0
C2255 C 0.20154 0.84235 0.29272 0.0
C2256 C 0.11653 0.84631 0.36618 0.0
C2257 C 0.12758 0.84437 0.36465 0.0
C2258 C 0.15211 0.8439 0.29481 0.0
C2259 C 0.1819 0.84042 0.32651 0.0
C2260 C 0.17048 0.84301 0.32791 0.0
C2261 C 0.13668 0.84947 0.33263 0.0
C2262 C 0.1484 0.84736 0.33093 0.0
H2263 H 0.19539 0.82483 0.37977 0.0
H2264 H 0.17686 0.82935 0.38224 0.0
H2265 H 0.16545 0.83882 0.2652 0.0
H2266 H 0.12208 0.86408 0.27988 0.0
H2267 H 0.14141 0.86076 0.27738 0.0
C2268 C 0.6962 0.81982 0.8294 0.0
C2269 C 0.7048 0.8288 0.85852 0.0
C2270 C 0.68274 0.8165 0.82756 0.0
C2271 C 0.65567 0.81642 0.88697 0.0
H2272 H 0.64007 0.81533 0.78345 0.0
C2273 C 0.60455 0.8139 0.86914 0.0
C2274 C 0.59589 0.80547 0.83916 0.0
C2275 C 0.6177 0.81632 0.87187 0.0
C2276 C 0.64422 0.81543 0.81254 0.0
H2277 H 0.70598 0.84123 0.9088 0.0
H2278 H 0.68253 0.8355 0.90537 0.0
H2279 H 0.66326 0.82024 0.78773 0.0
H2280 H 0.5942 0.7929 0.78873 0.0
H2281 H 0.61712 0.79704 0.79373 0.0
H2282 H 0.63664 0.81167 0.91179 0.0
C2283 C 0.68616 0.83093 0.88422 0.0
C2284 C 0.65751 0.81824 0.81499 0.0
C2285 C 0.69962 0.83426 0.88604 0.0
C2286 C 0.60064 0.79948 0.81208 0.0
C2287 C 0.6138 0.80191 0.81482 0.0
C2288 C 0.64238 0.8136 0.88452 0.0
C2289 C 0.67759 0.82206 0.85483 0.0
C2290 C 0.66339 0.81881 0.85224 0.0
C2291 C 0.62248 0.81038 0.84469 0.0
C2292 C 0.63652 0.81312 0.84728 0.0
H2293 H 0.69986 0.81541 0.80782 0.0
H2294 H 0.67635 0.80951 0.80489 0.0
H2295 H 0.65985 0.81659 0.91606 0.0
H2296 H 0.60122 0.8187 0.89043 0.0
H2297 H 0.6242 0.82303 0.89491 0.0
C2298 C 0.17833 0.7846 0.79378 0.0
C2299 C 0.18659 0.7832 0.82197 0.0
C2300 C 0.17649 0.79572 0.79489 0.0
C2301 C 0.19158 0.83035 0.83357 0.0
H2302 H 0.15592 0.8251 0.81625 0.0
C2303 C 0.17844 0.87212 0.86112 0.0
C2304 C 0.17003 0.87332 0.83302 0.0
C2305 C 0.18072 0.86127 0.85951 0.0
C2306 C 0.16597 0.82676 0.82071 0.0
H2307 H 0.19944 0.7924 0.87343 0.0
H2308 H 0.19611 0.81171 0.87558 0.0
H2309 H 0.15939 0.80588 0.81384 0.0
H2310 H 0.15753 0.86415 0.78089 0.0
H2311 H 0.1616 0.84533 0.77794 0.0
H2312 H 0.19813 0.85124 0.84055 0.0
C2313 C 0.19118 0.8043 0.85231 0.0
C2314 C 0.16796 0.81575 0.81931 0.0
C2315 C 0.19302 0.79319 0.8512 0.0
C2316 C 0.16404 0.86351 0.80309 0.0
C2317 C 0.1663 0.85267 0.80153 0.0
C2318 C 0.18958 0.84137 0.835 0.0
C2319 C 0.18287 0.80568 0.82422 0.0
C2320 C 0.18079 0.81741 0.82568 0.0
C2321 C 0.1746 0.85139 0.82982 0.0
C2322 C 0.17676 0.8397 0.82852 0.0
H2323 H 0.17327 0.77711 0.77078 0.0
H2324 H 0.17017 0.79658 0.7725 0.0
H2325 H 0.20162 0.832 0.83806 0.0
H2326 H 0.18319 0.87949 0.88459 0.0
H2327 H 0.18707 0.86049 0.88197 0.0
C2328 C 0.19584 0.36668 0.83294 0.0
C2329 C 0.20236 0.37128 0.79602 0.0
C2330 C 0.1842 0.35415 0.83599 0.0
C2331 C 0.16503 0.32139 0.78568 0.0
H2332 H 0.13548 0.31828 0.84958 0.0
C2333 C 0.11326 0.27298 0.78847 0.0
C2334 C 0.10707 0.26868 0.82595 0.0
C2335 C 0.12465 0.28564 0.784 0.0
C2336 C 0.14369 0.31895 0.83194 0.0
H2337 H 0.20186 0.36623 0.73344 0.0
H2338 H 0.18148 0.34436 0.73878 0.0
H2339 H 0.156 0.33998 0.8435 0.0
H2340 H 0.10789 0.2744 0.88801 0.0
H2341 H 0.12783 0.29645 0.88026 0.0
H2342 H 0.15274 0.30035 0.77427 0.0
C2343 C 0.18545 0.35042 0.76542 0.0
C2344 C 0.15544 0.33138 0.82847 0.0
C2345 C 0.19709 0.36298 0.76234 0.0
C2346 C 0.1124 0.27741 0.85871 0.0
C2347 C 0.12379 0.29008 0.85423 0.0
C2348 C 0.15327 0.30895 0.78917 0.0
C2349 C 0.17882 0.34591 0.80223 0.0
C2350 C 0.16627 0.33273 0.80543 0.0
C2351 C 0.13011 0.2943 0.81689 0.0
C2352 C 0.14248 0.30758 0.81246 0.0
H2353 H 0.19965 0.3728 0.85952 0.0
H2354 H 0.17944 0.35088 0.8649 0.0
H2355 H 0.17325 0.32206 0.76813 0.0
H2356 H 0.10938 0.26652 0.76257 0.0
H2357 H 0.12917 0.28867 0.75472 0.0
C2358 C 0.85088 0.72371 0.70423 0.0
C2359 C 0.84937 0.72954 0.6692 0.0
C2360 C 0.84949 0.71094 0.70335 0.0
C2361 C 0.85039 0.68621 0.63498 0.0
H2362 H 0.83197 0.66142 0.72183 0.0
C2363 C 0.83615 0.6303 0.6312 0.0
C2364 C 0.83812 0.62492 0.66653 0.0
C2365 C 0.83779 0.64319 0.63088 0.0
C2366 C 0.83726 0.66828 0.69757 0.0
H2367 H 0.84514 0.72651 0.60579 0.0
H2368 H 0.84252 0.70412 0.60437 0.0
H2369 H 0.83401 0.68355 0.72235 0.0
H2370 H 0.84358 0.62893 0.72906 0.0
H2371 H 0.84648 0.65142 0.7284 0.0
H2372 H 0.85354 0.67084 0.61013 0.0
C2373 C 0.84498 0.70951 0.63242 0.0
C2374 C 0.83844 0.68097 0.69786 0.0
C2375 C 0.8464 0.72231 0.63328 0.0
C2376 C 0.84194 0.63276 0.70137 0.0
C2377 C 0.84353 0.64562 0.70107 0.0
C2378 C 0.84917 0.67349 0.63463 0.0
C2379 C 0.84652 0.70368 0.66745 0.0
C2380 C 0.84507 0.6901 0.66666 0.0
C2381 C 0.84138 0.65093 0.6659 0.0
C2382 C 0.84264 0.66442 0.66602 0.0
H2383 H 0.85323 0.72903 0.73238 0.0
H2384 H 0.85094 0.70683 0.73075 0.0
H2385 H 0.85572 0.69307 0.61078 0.0
H2386 H 0.83319 0.62451 0.60385 0.0
H2387 H 0.83595 0.64697 0.6034 0.0
C2388 C 0.27659 0.12259 0.68377 0.0
C2389 C 0.27184 0.11542 0.64787 0.0
C2390 C 0.28944 0.13384 0.68592 0.0
C2391 C 0.31597 0.15979 0.623 0.0
H2392 H 0.33814 0.16627 0.71683 0.0
C2393 C 0.3708 0.20336 0.63203 0.0
C2394 C 0.37488 0.21056 0.66808 0.0
C2395 C 0.35839 0.19156 0.62923 0.0
C2396 C 0.33201 0.16467 0.6906 0.0
H2397 H 0.27696 0.11431 0.58623 0.0
H2398 H 0.29946 0.13389 0.59012 0.0
H2399 H 0.31632 0.14582 0.71244 0.0
H2400 H 0.36909 0.21102 0.7294 0.0
H2401 H 0.34738 0.19048 0.72437 0.0
H2402 H 0.33164 0.17868 0.60124 0.0
C2403 C 0.29316 0.1309 0.61645 0.0
C2404 C 0.31952 0.15295 0.68807 0.0
C2405 C 0.2803 0.11964 0.6143 0.0
C2406 C 0.36627 0.20571 0.70122 0.0
C2407 C 0.35386 0.19388 0.69842 0.0
C2408 C 0.32847 0.17151 0.62552 0.0
C2409 C 0.29784 0.13817 0.65223 0.0
C2410 C 0.31132 0.15041 0.65433 0.0
C2411 C 0.34979 0.18667 0.6624 0.0
C2412 C 0.3366 0.17411 0.65943 0.0
H2413 H 0.27033 0.11964 0.71018 0.0
H2414 H 0.29267 0.13931 0.71378 0.0
H2415 H 0.30981 0.15823 0.59687 0.0
H2416 H 0.37722 0.20681 0.60595 0.0
H2417 H 0.35562 0.18615 0.60119 0.0
C2418 C 0.87291 0.18076 0.70676 0.0
C2419 C 0.87279 0.17068 0.68275 0.0
C2420 C 0.86219 0.18323 0.70571 0.0
C2421 C 0.83371 0.17843 0.64338 0.0
H2422 H 0.81954 0.18342 0.74285 0.0
C2423 C 0.78368 0.17851 0.65115 0.0
C2424 C 0.78302 0.18785 0.67669 0.0
C2425 C 0.79485 0.17676 0.6517 0.0
C2426 C 0.82349 0.18223 0.71478 0.0
H2427 H 0.86134 0.15535 0.63861 0.0
H2428 H 0.84263 0.15964 0.63692 0.0
H2429 H 0.83873 0.17985 0.74397 0.0
H2430 H 0.79361 0.20274 0.7227 0.0
H2431 H 0.81318 0.19979 0.7233 0.0
H2432 H 0.81849 0.18081 0.61415 0.0
C2433 C 0.85107 0.1657 0.6563 0.0
C2434 C 0.83448 0.18017 0.71543 0.0
C2435 C 0.86176 0.1632 0.65745 0.0
C2436 C 0.79378 0.19542 0.70275 0.0
C2437 C 0.80497 0.19368 0.70325 0.0
C2438 C 0.82275 0.18052 0.64271 0.0
C2439 C 0.85115 0.17571 0.68052 0.0
C2440 C 0.83967 0.17819 0.67975 0.0
C2441 C 0.80563 0.18432 0.67774 0.0
C2442 C 0.81747 0.18238 0.67841 0.0
H2443 H 0.88126 0.18673 0.72653 0.0
H2444 H 0.8626 0.19111 0.72438 0.0
H2445 H 0.83762 0.17714 0.61535 0.0
H2446 H 0.77554 0.17248 0.6308 0.0
H2447 H 0.79495 0.16932 0.63209 0.0
C2448 C 0.0481 0.52319 0.50729 0.0
C2449 C 0.05328 0.51624 0.48609 0.0
C2450 C 0.03471 0.51981 0.50267 0.0
C2451 C 0.00577 0.50311 0.43462 0.0
H2452 H 0.98535 0.50112 0.52898 0.0
C2453 C 0.94829 0.48229 0.43234 0.0
C2454 C 0.94331 0.48882 0.45647 0.0
C2455 C 0.96181 0.48581 0.43442 0.0
C2456 C 0.99095 0.5018 0.50226 0.0
H2457 H 0.04846 0.50033 0.44319 0.0
H2458 H 0.02501 0.49439 0.4353 0.0
H2459 H 0.00868 0.50678 0.53572 0.0
H2460 H 0.94873 0.50447 0.50076 0.0
H2461 H 0.97229 0.51073 0.5039 0.0
H2462 H 0.98801 0.49815 0.40115 0.0
C2463 C 0.03137 0.50253 0.45526 0.0
C2464 C 0.00432 0.50503 0.50615 0.0
C2465 C 0.04478 0.50588 0.45996 0.0
C2466 C 0.95221 0.49917 0.48195 0.0
C2467 C 0.96571 0.5027 0.48396 0.0
C2468 C 0.99238 0.4999 0.43071 0.0
C2469 C 0.02618 0.50943 0.4767 0.0
C2470 C 0.0119 0.50577 0.47238 0.0
C2471 C 0.97063 0.49595 0.46063 0.0
C2472 C 0.98484 0.49927 0.46449 0.0
H2473 H 0.05438 0.53125 0.52754 0.0
H2474 H 0.03106 0.52544 0.5192 0.0
H2475 H 0.01141 0.50375 0.408 0.0
H2476 H 0.94169 0.47426 0.41243 0.0
H2477 H 0.96526 0.48034 0.41629 0.0
C2478 C 0.50668 0.54553 0.52357 0.0
C2479 C 0.49986 0.548 0.4929 0.0
C2480 C 0.50784 0.534 0.52287 0.0
C2481 C 0.50555 0.50739 0.45585 0.0
H2482 H 0.49941 0.48734 0.55416 0.0
C2483 C 0.498 0.45387 0.45946 0.0
C2484 C 0.50432 0.45086 0.49041 0.0
C2485 C 0.49785 0.46594 0.45958 0.0
C2486 C 0.50131 0.49291 0.52656 0.0
H2487 H 0.48906 0.5404 0.43715 0.0
H2488 H 0.49098 0.52025 0.43617 0.0
H2489 H 0.49872 0.50818 0.55453 0.0
H2490 H 0.51547 0.45819 0.54573 0.0
H2491 H 0.51528 0.47928 0.54574 0.0
H2492 H 0.50806 0.49207 0.42785 0.0
C2493 C 0.49556 0.52729 0.46053 0.0
C2494 C 0.50092 0.50486 0.52678 0.0
C2495 C 0.4944 0.53881 0.46122 0.0
C2496 C 0.51048 0.46018 0.52149 0.0
C2497 C 0.51032 0.47224 0.52162 0.0
C2498 C 0.50593 0.49544 0.45563 0.0
C2499 C 0.50221 0.52471 0.49148 0.0
C2500 C 0.503 0.51221 0.4914 0.0
C2501 C 0.504 0.47526 0.49068 0.0
C2502 C 0.50377 0.48804 0.49096 0.0
H2503 H 0.51104 0.55244 0.54832 0.0
H2504 H 0.51318 0.53239 0.54688 0.0
H2505 H 0.50738 0.51293 0.42822 0.0
H2506 H 0.49314 0.44689 0.43512 0.0
H2507 H 0.49276 0.4679 0.43557 0.0
C2508 C 0.53606 0.0237 0.46193 0.0
C2509 C 0.54048 0.03191 0.49599 0.0
C2510 C 0.52432 0.01119 0.46311 0.0
C2511 C 0.49266 0.99208 0.51907 0.0
H2512 H 0.49094 0.96149 0.46478 0.0
C2513 C 0.44733 0.93815 0.53318 0.0
C2514 C 0.44313 0.93037 0.49821 0.0
C2515 C 0.45914 0.95063 0.53346 0.0
C2516 C 0.49122 0.96997 0.47973 0.0
H2517 H 0.53615 0.03333 0.55825 0.0
H2518 H 0.51574 0.01142 0.56039 0.0
H2519 H 0.51188 0.98293 0.46474 0.0
H2520 H 0.44789 0.92973 0.43586 0.0
H2521 H 0.46839 0.95152 0.4363 0.0
H2522 H 0.47197 0.97909 0.53402 0.0
C2523 C 0.52125 0.01475 0.53261 0.0
C2524 C 0.50322 0.98225 0.47972 0.0
C2525 C 0.533 0.02726 0.53143 0.0
C2526 C 0.45087 0.93544 0.46337 0.0
C2527 C 0.46267 0.94789 0.46367 0.0
C2528 C 0.48065 0.97978 0.5191 0.0
C2529 C 0.51674 0.00661 0.49839 0.0
C2530 C 0.50406 0.99346 0.49925 0.0
C2531 C 0.46701 0.95557 0.49878 0.0
C2532 C 0.47978 0.96861 0.49926 0.0
H2533 H 0.54156 0.02699 0.43412 0.0
H2534 H 0.52103 0.00524 0.43609 0.0
H2535 H 0.49292 0.00057 0.5339 0.0
H2536 H 0.44161 0.93452 0.56054 0.0
H2537 H 0.46228 0.95626 0.56107 0.0
C2538 C 0.50331 0.05426 0.99298 0.0
C2539 C 0.51654 0.06481 0.98749 0.0
C2540 C 0.50028 0.0409 0.99018 0.0
C2541 C 0.51623 0.01999 -0.0026 0.0
H2542 H 0.48377 0.99304 0.94514 0.0
C2543 C 0.50617 0.96638 0.96721 0.0
C2544 C 0.4931 0.95577 0.97468 0.0
C2545 C 0.50893 0.97968 0.96788 0.0
C2546 C 0.49281 0.00043 0.96017 0.0
H2547 H 0.53693 0.06962 0.97387 0.0
H2548 H 0.53162 0.04637 0.96856 0.0
H2549 H 0.48869 0.01628 0.94766 0.0
H2550 H 0.47268 0.95079 0.98852 0.0
H2551 H 0.47755 0.97398 0.98998 0.0
H2552 H 0.52035 0.00417 0.00997 0.0
C2553 C 0.52361 0.0484 0.97569 0.0
C2554 C 0.49562 0.01374 0.96163 0.0
C2555 C 0.52664 0.06173 0.9785 0.0
C2556 C 0.48286 0.95873 0.98259 0.0
C2557 C 0.48562 0.97202 0.98319 0.0
C2558 C 0.51342 0.00671 0.99592 0.0
C2559 C 0.51043 0.03783 0.98184 0.0
C2560 C 0.50738 0.02367 0.98022 0.0
C2561 C 0.4987 0.98264 0.97596 0.0
C2562 C 0.50169 0.99678 0.97728 0.0
H2563 H 0.49531 0.05631 0.0 0.0
H2564 H 0.49005 0.03299 0.99545 0.0
H2565 H 0.52525 0.02736 0.01258 0.0
H2566 H 0.51428 0.96444 0.96088 0.0
H2567 H 0.51908 0.98763 0.96169 0.0
C2568 C 0.95741 0.45046 0.93702 0.0
C2569 C 0.94964 0.44488 0.97152 0.0
C2570 C 0.96958 0.46259 0.93902 0.0
C2571 C 0.99568 0.48566 0.00991 0.0
H2572 H 0.00325 0.51242 0.92821 0.0
C2573 C 0.0376 0.54064 0.02801 0.0
C2574 C 0.04593 0.54676 0.99483 0.0
C2575 C 0.0259 0.52819 0.02424 0.0
C2576 C 0.00134 0.505 0.95102 0.0
H2577 H 0.94867 0.44753 0.03534 0.0
H2578 H 0.96974 0.46867 0.0387 0.0
H2579 H 0.98306 0.49038 0.92317 0.0
H2580 H 0.04834 0.54472 0.93144 0.0
H2581 H 0.02791 0.52297 0.92493 0.0
H2582 H 0.01388 0.50031 0.03795 0.0
C2583 C 0.96655 0.46363 0.01016 0.0
C2584 C 0.9898 0.49236 0.94809 0.0
C2585 C 0.95442 0.45152 0.00818 0.0
C2586 C 0.04214 0.54029 0.95759 0.0
C2587 C 0.03041 0.52785 0.95381 0.0
C2588 C 0.00719 0.49829 0.01288 0.0
C2589 C 0.97422 0.46938 0.97557 0.0
C2590 C 0.98679 0.48258 0.97765 0.0
C2591 C 0.02225 0.52159 0.98719 0.0
C2592 C 0.0101 0.50813 0.98361 0.0
H2593 H 0.95402 0.44558 0.90833 0.0
H2594 H 0.97534 0.46667 0.91192 0.0
H2595 H 0.99377 0.47827 0.03282 0.0
H2596 H 0.04021 0.54537 0.0571 0.0
H2597 H 0.0197 0.52371 0.05038 0.0
C2598 C 0.53154 0.48735 0.00727 0.0
C2599 C 0.52976 0.47658 0.98321 0.0
C2600 C 0.5222 0.49173 0.00648 0.0
C2601 C 0.48698 0.48053 0.98027 0.0
H2602 H 0.49889 0.51853 0.98678 0.0
C2603 C 0.45057 0.50122 0.96533 0.0
C2604 C 0.4523 0.51123 0.9927 0.0
C2605 C 0.46008 0.49708 0.96263 0.0
C2606 C 0.49541 0.50788 0.98528 0.0
H2607 H 0.51687 0.46208 0.93895 0.0
H2608 H 0.50065 0.46985 0.93717 0.0
H2609 H 0.51546 0.51122 0.9841 0.0
H2610 H 0.46537 0.52474 0.03863 0.0
H2611 H 0.48192 0.51746 0.03398 0.0
H2612 H 0.46693 0.47721 0.98147 0.0
C2613 C 0.50917 0.47478 0.95713 0.0
C2614 C 0.5049 0.50369 0.98376 0.0
C2615 C 0.5185 0.47037 0.95799 0.0
C2616 C 0.46375 0.51702 0.0172 0.0
C2617 C 0.47328 0.51291 0.01438 0.0
C2618 C 0.4775 0.48473 0.98165 0.0
C2619 C 0.51088 0.48547 0.98151 0.0
C2620 C 0.5008 0.48996 0.98154 0.0
C2621 C 0.47154 0.50289 0.9871 0.0
C2622 C 0.48161 0.49844 0.98446 0.0
H2623 H 0.54008 0.49233 0.02715 0.0
H2624 H 0.52372 0.49987 0.02607 0.0
H2625 H 0.48348 0.46987 0.97916 0.0
H2626 H 0.44187 0.49657 0.94596 0.0
H2627 H 0.45854 0.48943 0.94105 0.0
loop_
_geom_bond_atom_site_label_1
_geom_bond_atom_site_label_2
_geom_bond_distance
_geom_bond_site_symmetry_2
_ccdc_geom_bond_type
C0 O1 1.160 . S
C0 O7 1.185 . S
O1 C0 1.160 . S
O2 Zn3 1.899 . S
O2 C10 1.284 . S
Zn3 O2 1.899 . S
Zn3 O4 2.032 . S
Zn3 O7 2.086 . S
Zn3 O12 1.977 . S
O4 Zn3 2.032 . S
O4 C8 1.278 . S
C5 O6 1.203 . S
C5 O12 1.267 . S
O6 C5 1.203 . S
O7 C0 1.185 . S
O7 Zn3 2.086 . S
C8 O4 1.278 . S
C8 O9 1.211 . S
O9 C8 1.211 . S
C10 O2 1.284 . S
C10 O11 1.273 . S
O11 C10 1.273 . S
O12 Zn3 1.977 . S
O12 C5 1.267 . S
C13 O14 1.160 . S
C13 O20 1.185 . S
O14 C13 1.160 . S
O15 Zn16 1.899 . S
O15 C23 1.284 . S
Zn16 O15 1.899 . S
Zn16 O17 2.032 . S
Zn16 O20 2.086 . S
Zn16 O25 1.977 . S
O17 Zn16 2.032 . S
O17 C21 1.278 . S
C18 O19 1.203 . S
C18 O25 1.267 . S
O19 C18 1.203 . S
O20 C13 1.185 . S
O20 Zn16 2.086 . S
C21 O17 1.278 . S
C21 O22 1.211 . S
O22 C21 1.211 . S
C23 O15 1.284 . S
C23 O24 1.273 . S
O24 C23 1.273 . S
O25 Zn16 1.977 . S
O25 C18 1.267 . S
C26 O27 1.160 . S
C26 O33 1.185 . S
O27 C26 1.160 . S
O28 Zn29 1.899 . S
O28 C36 1.284 . S
Zn29 O28 1.899 . S
Zn29 O30 2.032 . S
Zn29 O33 2.086 . S
Zn29 O38 1.977 . S
O30 Zn29 2.032 . S
O30 C34 1.278 . S
C31 O32 1.203 . S
C31 O38 1.267 . S
O32 C31 1.203 . S
O33 C26 1.185 . S
O33 Zn29 2.086 . S
C34 O30 1.278 . S
C34 O35 1.211 . S
O35 C34 1.211 . S
C36 O28 1.284 . S
C36 O37 1.273 . S
O37 C36 1.273 . S
O38 Zn29 1.977 . S
O38 C31 1.267 . S
C39 O40 1.160 . S
C39 O46 1.185 . S
O40 C39 1.160 . S
O41 Zn42 1.899 . S
O41 C49 1.284 . S
Zn42 O41 1.899 . S
Zn42 O43 2.032 . S
Zn42 O46 2.086 . S
Zn42 O51 1.977 . S
O43 Zn42 2.032 . S
O43 C47 1.278 . S
C44 O45 1.203 . S
C44 O51 1.267 . S
O45 C44 1.203 . S
O46 C39 1.185 . S
O46 Zn42 2.086 . S
C47 O43 1.278 . S
C47 O48 1.211 . S
O48 C47 1.211 . S
C49 O41 1.284 . S
C49 O50 1.273 . S
O50 C49 1.273 . S
O51 Zn42 1.977 . S
O51 C44 1.267 . S
C52 O53 1.160 . S
C52 O59 1.185 . S
O53 C52 1.160 . S
O54 Zn55 1.899 . S
O54 C62 1.284 . S
Zn55 O54 1.899 . S
Zn55 O56 2.032 . S
Zn55 O59 2.086 . S
Zn55 O64 1.977 . S
O56 Zn55 2.032 . S
O56 C60 1.278 . S
C57 O58 1.203 . S
C57 O64 1.267 . S
O58 C57 1.203 . S
O59 C52 1.185 . S
O59 Zn55 2.086 . S
C60 O56 1.278 . S
C60 O61 1.211 . S
O61 C60 1.211 . S
C62 O54 1.284 . S
C62 O63 1.273 . S
O63 C62 1.273 . S
O64 Zn55 1.977 . S
O64 C57 1.267 . S
C65 O66 1.160 . S
C65 O72 1.185 . S
O66 C65 1.160 . S
O67 Zn68 1.899 . S
O67 C75 1.284 . S
Zn68 O67 1.899 . S
Zn68 O69 2.032 . S
Zn68 O72 2.086 . S
Zn68 O77 1.977 . S
O69 Zn68 2.032 . S
O69 C73 1.278 . S
C70 O71 1.203 . S
C70 O77 1.267 . S
O71 C70 1.203 . S
O72 C65 1.185 . S
O72 Zn68 2.086 . S
C73 O69 1.278 . S
C73 O74 1.211 . S
O74 C73 1.211 . S
C75 O67 1.284 . S
C75 O76 1.273 . S
O76 C75 1.273 . S
O77 Zn68 1.977 . S
O77 C70 1.267 . S
C78 O79 1.160 . S
C78 O85 1.185 . S
O79 C78 1.160 . S
O80 Zn81 1.899 . S
O80 C88 1.284 . S
Zn81 O80 1.899 . S
Zn81 O82 2.032 . S
Zn81 O85 2.086 . S
Zn81 O90 1.977 . S
O82 Zn81 2.032 . S
O82 C86 1.278 . S
C83 O84 1.203 . S
C83 O90 1.267 . S
O84 C83 1.203 . S
O85 C78 1.185 . S
O85 Zn81 2.086 . S
C86 O82 1.278 . S
C86 O87 1.211 . S
O87 C86 1.211 . S
C88 O80 1.284 . S
C88 O89 1.273 . S
O89 C88 1.273 . S
O90 Zn81 1.977 . S
O90 C83 1.267 . S
C91 O92 1.160 . S
C91 O98 1.185 . S
O92 C91 1.160 . S
O93 Zn94 1.899 . S
O93 C101 1.284 . S
Zn94 O93 1.899 . S
Zn94 O95 2.032 . S
Zn94 O98 2.086 . S
Zn94 O103 1.977 . S
O95 Zn94 2.032 . S
O95 C99 1.278 . S
C96 O97 1.203 . S
C96 O103 1.267 . S
O97 C96 1.203 . S
O98 C91 1.185 . S
O98 Zn94 2.086 . S
C99 O95 1.278 . S
C99 O100 1.211 . S
O100 C99 1.211 . S
C101 O93 1.284 . S
C101 O102 1.273 . S
O102 C101 1.273 . S
O103 Zn94 1.977 . S
O103 C96 1.267 . S
C104 O105 1.160 . S
C104 O111 1.185 . S
O105 C104 1.160 . S
O106 Zn107 1.899 . S
O106 C114 1.284 . S
Zn107 O106 1.899 . S
Zn107 O108 2.032 . S
Zn107 O111 2.086 . S
Zn107 O116 1.977 . S
O108 Zn107 2.032 . S
O108 C112 1.278 . S
C109 O110 1.203 . S
C109 O116 1.267 . S
O110 C109 1.203 . S
O111 C104 1.185 . S
O111 Zn107 2.086 . S
C112 O108 1.278 . S
C112 O113 1.211 . S
O113 C112 1.211 . S
C114 O106 1.284 . S
C114 O115 1.273 . S
O115 C114 1.273 . S
O116 Zn107 1.977 . S
O116 C109 1.267 . S
C117 O118 1.160 . S
C117 O124 1.185 . S
O118 C117 1.160 . S
O119 Zn120 1.899 . S
O119 C127 1.284 . S
Zn120 O119 1.899 . S
Zn120 O121 2.032 . S
Zn120 O124 2.086 . S
Zn120 O129 1.977 . S
O121 Zn120 2.032 . S
O121 C125 1.278 . S
C122 O123 1.203 . S
C122 O129 1.267 . S
O123 C122 1.203 . S
O124 C117 1.185 . S
O124 Zn120 2.086 . S
C125 O121 1.278 . S
C125 O126 1.211 . S
O126 C125 1.211 . S
C127 O119 1.284 . S
C127 O128 1.273 . S
O128 C127 1.273 . S
O129 Zn120 1.977 . S
O129 C122 1.267 . S
C130 O131 1.160 . S
C130 O137 1.185 . S
O131 C130 1.160 . S
O132 Zn133 1.899 . S
O132 C140 1.284 . S
Zn133 O132 1.899 . S
Zn133 O134 2.032 . S
Zn133 O137 2.086 . S
Zn133 O142 1.977 . S
O134 Zn133 2.032 . S
O134 C138 1.278 . S
C135 O136 1.203 . S
C135 O142 1.267 . S
O136 C135 1.203 . S
O137 C130 1.185 . S
O137 Zn133 2.086 . S
C138 O134 1.278 . S
C138 O139 1.211 . S
O139 C138 1.211 . S
C140 O132 1.284 . S
C140 O141 1.273 . S
O141 C140 1.273 . S
O142 Zn133 1.977 . S
O142 C135 1.267 . S
C143 O144 1.160 . S
C143 O150 1.185 . S
O144 C143 1.160 . S
O145 Zn146 1.899 . S
O145 C153 1.284 . S
Zn146 O145 1.899 . S
Zn146 O147 2.032 . S
Zn146 O150 2.086 . S
Zn146 O155 1.977 . S
O147 Zn146 2.032 . S
O147 C151 1.278 . S
C148 O149 1.203 . S
C148 O155 1.267 . S
O149 C148 1.203 . S
O150 C143 1.185 . S
O150 Zn146 2.086 . S
C151 O147 1.278 . S
C151 O152 1.211 . S
O152 C151 1.211 . S
C153 O145 1.284 . S
C153 O154 1.273 . S
O154 C153 1.273 . S
O155 Zn146 1.977 . S
O155 C148 1.267 . S
C156 O157 1.160 . S
C156 O163 1.185 . S
O157 C156 1.160 . S
O158 Zn159 1.899 . S
O158 C166 1.284 . S
Zn159 O158 1.899 . S
Zn159 O160 2.032 . S
Zn159 O163 2.086 . S
Zn159 O168 1.977 . S
O160 Zn159 2.032 . S
O160 C164 1.278 . S
C161 O162 1.203 . S
C161 O168 1.267 . S
O162 C161 1.203 . S
O163 C156 1.185 . S
O163 Zn159 2.086 . S
C164 O160 1.278 . S
C164 O165 1.211 . S
O165 C164 1.211 . S
C166 O158 1.284 . S
C166 O167 1.273 . S
O167 C166 1.273 . S
O168 Zn159 1.977 . S
O168 C161 1.267 . S
C169 O170 1.160 . S
C169 O176 1.185 . S
O170 C169 1.160 . S
O171 Zn172 1.899 . S
O171 C179 1.284 . S
Zn172 O171 1.899 . S
Zn172 O173 2.032 . S
Zn172 O176 2.086 . S
Zn172 O181 1.977 . S
O173 Zn172 2.032 . S
O173 C177 1.278 . S
C174 O175 1.203 . S
C174 O181 1.267 . S
O175 C174 1.203 . S
O176 C169 1.185 . S
O176 Zn172 2.086 . S
C177 O173 1.278 . S
C177 O178 1.211 . S
O178 C177 1.211 . S
C179 O171 1.284 . S
C179 O180 1.273 . S
O180 C179 1.273 . S
O181 Zn172 1.977 . S
O181 C174 1.267 . S
C182 O183 1.160 . S
C182 O189 1.185 . S
O183 C182 1.160 . S
O184 Zn185 1.899 . S
O184 C192 1.284 . S
Zn185 O184 1.899 . S
Zn185 O186 2.032 . S
Zn185 O189 2.086 . S
Zn185 O194 1.977 . S
O186 Zn185 2.032 . S
O186 C190 1.278 . S
C187 O188 1.203 . S
C187 O194 1.267 . S
O188 C187 1.203 . S
O189 C182 1.185 . S
O189 Zn185 2.086 . S
C190 O186 1.278 . S
C190 O191 1.211 . S
O191 C190 1.211 . S
C192 O184 1.284 . S
C192 O193 1.273 . S
O193 C192 1.273 . S
O194 Zn185 1.977 . S
O194 C187 1.267 . S
C195 O196 1.160 . S
C195 O202 1.185 . S
O196 C195 1.160 . S
O197 Zn198 1.899 . S
O197 C205 1.284 . S
Zn198 O197 1.899 . S
Zn198 O199 2.032 . S
Zn198 O202 2.086 . S
Zn198 O207 1.977 . S
O199 Zn198 2.032 . S
O199 C203 1.278 . S
C200 O201 1.203 . S
C200 O207 1.267 . S
O201 C200 1.203 . S
O202 C195 1.185 . S
O202 Zn198 2.086 . S
C203 O199 1.278 . S
C203 O204 1.211 . S
O204 C203 1.211 . S
C205 O197 1.284 . S
C205 O206 1.273 . S
O206 C205 1.273 . S
O207 Zn198 1.977 . S
O207 C200 1.267 . S
C208 O209 1.160 . S
C208 O215 1.185 . S
O209 C208 1.160 . S
O210 Zn211 1.899 . S
O210 C218 1.284 . S
Zn211 O210 1.899 . S
Zn211 O212 2.032 . S
Zn211 O215 2.086 . S
Zn211 O220 1.977 . S
O212 Zn211 2.032 . S
O212 C216 1.278 . S
C213 O214 1.203 . S
C213 O220 1.267 . S
O214 C213 1.203 . S
O215 C208 1.185 . S
O215 Zn211 2.086 . S
C216 O212 1.278 . S
C216 O217 1.211 . S
O217 C216 1.211 . S
C218 O210 1.284 . S
C218 O219 1.273 . S
O219 C218 1.273 . S
O220 Zn211 1.977 . S
O220 C213 1.267 . S
C221 O222 1.160 . S
C221 O228 1.185 . S
O222 C221 1.160 . S
O223 Zn224 1.899 . S
O223 C231 1.284 . S
Zn224 O223 1.899 . S
Zn224 O225 2.032 . S
Zn224 O228 2.086 . S
Zn224 O233 1.977 . S
O225 Zn224 2.032 . S
O225 C229 1.278 . S
C226 O227 1.203 . S
C226 O233 1.267 . S
O227 C226 1.203 . S
O228 C221 1.185 . S
O228 Zn224 2.086 . S
C229 O225 1.278 . S
C229 O230 1.211 . S
O230 C229 1.211 . S
C231 O223 1.284 . S
C231 O232 1.273 . S
O232 C231 1.273 . S
O233 Zn224 1.977 . S
O233 C226 1.267 . S
C234 O235 1.160 . S
C234 O241 1.185 . S
O235 C234 1.160 . S
O236 Zn237 1.899 . S
O236 C244 1.284 . S
Zn237 O236 1.899 . S
Zn237 O238 2.032 . S
Zn237 O241 2.086 . S
Zn237 O246 1.977 . S
O238 Zn237 2.032 . S
O238 C242 1.278 . S
C239 O240 1.203 . S
C239 O246 1.267 . S
O240 C239 1.203 . S
O241 C234 1.185 . S
O241 Zn237 2.086 . S
C242 O238 1.278 . S
C242 O243 1.211 . S
O243 C242 1.211 . S
C244 O236 1.284 . S
C244 O245 1.273 . S
O245 C244 1.273 . S
O246 Zn237 1.977 . S
O246 C239 1.267 . S
C247 O248 1.160 . S
C247 O254 1.185 . S
O248 C247 1.160 . S
O249 Zn250 1.899 . S
O249 C257 1.284 . S
Zn250 O249 1.899 . S
Zn250 O251 2.032 . S
Zn250 O254 2.086 . S
Zn250 O259 1.977 . S
O251 Zn250 2.032 . S
O251 C255 1.278 . S
C252 O253 1.203 . S
C252 O259 1.267 . S
O253 C252 1.203 . S
O254 C247 1.185 . S
O254 Zn250 2.086 . S
C255 O251 1.278 . S
C255 O256 1.211 . S
O256 C255 1.211 . S
C257 O249 1.284 . S
C257 O258 1.273 . S
O258 C257 1.273 . S
O259 Zn250 1.977 . S
O259 C252 1.267 . S
C260 O261 1.160 . S
C260 O267 1.185 . S
O261 C260 1.160 . S
O262 Zn263 1.899 . S
O262 C270 1.284 . S
Zn263 O262 1.899 . S
Zn263 O264 2.032 . S
Zn263 O267 2.086 . S
Zn263 O272 1.977 . S
O264 Zn263 2.032 . S
O264 C268 1.278 . S
C265 O266 1.203 . S
C265 O272 1.267 . S
O266 C265 1.203 . S
O267 C260 1.185 . S
O267 Zn263 2.086 . S
C268 O264 1.278 . S
C268 O269 1.211 . S
O269 C268 1.211 . S
C270 O262 1.284 . S
C270 O271 1.273 . S
O271 C270 1.273 . S
O272 Zn263 1.977 . S
O272 C265 1.267 . S
C273 O274 1.160 . S
C273 O280 1.185 . S
O274 C273 1.160 . S
O275 Zn276 1.899 1_556 S
O275 C283 1.284 . S
Zn276 O275 1.899 1_554 S
Zn276 O277 2.032 . S
Zn276 O280 2.086 . S
Zn276 O285 1.977 . S
O277 Zn276 2.032 . S
O277 C281 1.278 . S
C278 O279 1.203 . S
C278 O285 1.267 . S
O279 C278 1.203 . S
O280 C273 1.185 . S
O280 Zn276 2.086 . S
C281 O277 1.278 . S
C281 O282 1.211 . S
O282 C281 1.211 . S
C283 O275 1.284 . S
C283 O284 1.273 1_556 S
O284 C283 1.273 1_554 S
O285 Zn276 1.977 . S
O285 C278 1.267 . S
C286 O287 1.160 . S
C286 O293 1.185 . S
O287 C286 1.160 . S
O288 Zn289 1.899 1_556 S
O288 C296 1.284 . S
Zn289 O288 1.899 1_554 S
Zn289 O290 2.032 . S
Zn289 O293 2.086 . S
Zn289 O298 1.977 . S
O290 Zn289 2.032 . S
O290 C294 1.278 . S
C291 O292 1.203 . S
C291 O298 1.267 . S
O292 C291 1.203 . S
O293 C286 1.185 . S
O293 Zn289 2.086 . S
C294 O290 1.278 . S
C294 O295 1.211 . S
O295 C294 1.211 . S
C296 O288 1.284 . S
C296 O297 1.273 1_556 S
O297 C296 1.273 1_554 S
O298 Zn289 1.977 . S
O298 C291 1.267 . S
C299 O300 1.160 . S
C299 O306 1.185 . S
O300 C299 1.160 . S
O301 Zn302 1.899 1_556 S
O301 C309 1.284 . S
Zn302 O301 1.899 1_554 S
Zn302 O303 2.032 . S
Zn302 O306 2.086 . S
Zn302 O311 1.977 . S
O303 Zn302 2.032 . S
O303 C307 1.278 . S
C304 O305 1.203 . S
C304 O311 1.267 . S
O305 C304 1.203 . S
O306 C299 1.185 . S
O306 Zn302 2.086 . S
C307 O303 1.278 . S
C307 O308 1.211 . S
O308 C307 1.211 . S
C309 O301 1.284 . S
C309 O310 1.273 1_556 S
O310 C309 1.273 1_554 S
O311 Zn302 1.977 . S
O311 C304 1.267 . S
C312 O313 1.160 . S
C312 O319 1.185 . S
O313 C312 1.160 . S
O314 Zn315 1.899 . S
O314 C322 1.284 . S
Zn315 O314 1.899 . S
Zn315 O316 2.032 . S
Zn315 O319 2.086 . S
Zn315 O324 1.977 . S
O316 Zn315 2.032 . S
O316 C320 1.278 . S
C317 O318 1.203 . S
C317 O324 1.267 . S
O318 C317 1.203 . S
O319 C312 1.185 . S
O319 Zn315 2.086 . S
C320 O316 1.278 . S
C320 O321 1.211 . S
O321 C320 1.211 . S
C322 O314 1.284 . S
C322 O323 1.273 . S
O323 C322 1.273 . S
O324 Zn315 1.977 . S
O324 C317 1.267 . S
C325 O326 1.160 . S
C325 O332 1.185 . S
O326 C325 1.160 . S
O327 Zn328 1.899 . S
O327 C335 1.284 . S
Zn328 O327 1.899 . S
Zn328 O329 2.032 . S
Zn328 O332 2.086 . S
Zn328 O337 1.977 . S
O329 Zn328 2.032 . S
O329 C333 1.278 . S
C330 O331 1.203 . S
C330 O337 1.267 . S
O331 C330 1.203 . S
O332 C325 1.185 . S
O332 Zn328 2.086 . S
C333 O329 1.278 . S
C333 O334 1.211 . S
O334 C333 1.211 . S
C335 O327 1.284 . S
C335 O336 1.273 . S
O336 C335 1.273 . S
O337 Zn328 1.977 . S
O337 C330 1.267 . S
C338 O339 1.160 . S
C338 O345 1.185 . S
O339 C338 1.160 . S
O340 Zn341 1.899 . S
O340 C348 1.284 . S
Zn341 O340 1.899 . S
Zn341 O342 2.032 . S
Zn341 O345 2.086 . S
Zn341 O350 1.977 . S
O342 Zn341 2.032 . S
O342 C346 1.278 . S
C343 O344 1.203 . S
C343 O350 1.267 . S
O344 C343 1.203 . S
O345 C338 1.185 . S
O345 Zn341 2.086 . S
C346 O342 1.278 . S
C346 O347 1.211 . S
O347 C346 1.211 . S
C348 O340 1.284 . S
C348 O349 1.273 . S
O349 C348 1.273 . S
O350 Zn341 1.977 . S
O350 C343 1.267 . S
C351 O352 1.160 . S
C351 O358 1.185 . S
O352 C351 1.160 . S
O353 Zn354 1.899 1_554 S
O353 C361 1.284 . S
Zn354 O353 1.899 1_556 S
Zn354 O355 2.032 . S
Zn354 O358 2.086 . S
Zn354 O363 1.977 . S
O355 Zn354 2.032 . S
O355 C359 1.278 . S
C356 O357 1.203 . S
C356 O363 1.267 . S
O357 C356 1.203 . S
O358 C351 1.185 . S
O358 Zn354 2.086 . S
C359 O355 1.278 . S
C359 O360 1.211 . S
O360 C359 1.211 . S
C361 O353 1.284 . S
C361 O362 1.273 1_554 S
O362 C361 1.273 1_556 S
O363 Zn354 1.977 . S
O363 C356 1.267 . S
C364 O365 1.160 . S
C364 O371 1.185 . S
O365 C364 1.160 . S
O366 Zn367 1.899 1_554 S
O366 C374 1.284 . S
Zn367 O366 1.899 1_556 S
Zn367 O368 2.032 . S
Zn367 O371 2.086 . S
Zn367 O376 1.977 . S
O368 Zn367 2.032 . S
O368 C372 1.278 . S
C369 O370 1.203 . S
C369 O376 1.267 . S
O370 C369 1.203 . S
O371 C364 1.185 . S
O371 Zn367 2.086 . S
C372 O368 1.278 . S
C372 O373 1.211 . S
O373 C372 1.211 . S
C374 O366 1.284 . S
C374 O375 1.273 1_554 S
O375 C374 1.273 1_556 S
O376 Zn367 1.977 . S
O376 C369 1.267 . S
C377 O378 1.160 . S
C377 O384 1.185 . S
O378 C377 1.160 . S
O379 Zn380 1.899 1_554 S
O379 C387 1.284 . S
Zn380 O379 1.899 1_556 S
Zn380 O381 2.032 . S
Zn380 O384 2.086 . S
Zn380 O389 1.977 . S
O381 Zn380 2.032 . S
O381 C385 1.278 . S
C382 O383 1.203 . S
C382 O389 1.267 . S
O383 C382 1.203 . S
O384 C377 1.185 . S
O384 Zn380 2.086 . S
C385 O381 1.278 . S
C385 O386 1.211 . S
O386 C385 1.211 . S
C387 O379 1.284 . S
C387 O388 1.273 1_554 S
O388 C387 1.273 1_556 S
O389 Zn380 1.977 . S
O389 C382 1.267 . S
C390 O391 1.160 . S
C390 O397 1.185 . S
O391 C390 1.160 . S
O392 Zn393 1.899 . S
O392 C400 1.284 . S
Zn393 O392 1.899 . S
Zn393 O394 2.032 . S
Zn393 O397 2.086 . S
Zn393 O402 1.977 . S
O394 Zn393 2.032 . S
O394 C398 1.278 . S
C395 O396 1.203 . S
C395 O402 1.267 . S
O396 C395 1.203 . S
O397 C390 1.185 . S
O397 Zn393 2.086 . S
C398 O394 1.278 . S
C398 O399 1.211 . S
O399 C398 1.211 . S
C400 O392 1.284 . S
C400 O401 1.273 . S
O401 C400 1.273 . S
O402 Zn393 1.977 . S
O402 C395 1.267 . S
C403 O404 1.160 . S
C403 O410 1.185 . S
O404 C403 1.160 . S
O405 Zn406 1.899 . S
O405 C413 1.284 . S
Zn406 O405 1.899 . S
Zn406 O407 2.032 . S
Zn406 O410 2.086 . S
Zn406 O415 1.977 . S
O407 Zn406 2.032 . S
O407 C411 1.278 . S
C408 O409 1.203 . S
C408 O415 1.267 . S
O409 C408 1.203 . S
O410 C403 1.185 . S
O410 Zn406 2.086 . S
C411 O407 1.278 . S
C411 O412 1.211 . S
O412 C411 1.211 . S
C413 O405 1.284 . S
C413 O414 1.273 . S
O414 C413 1.273 . S
O415 Zn406 1.977 . S
O415 C408 1.267 . S
C416 O417 1.160 . S
C416 O423 1.185 . S
O417 C416 1.160 . S
O418 Zn419 1.899 . S
O418 C426 1.284 . S
Zn419 O418 1.899 . S
Zn419 O420 2.032 . S
Zn419 O423 2.086 . S
Zn419 O428 1.977 . S
O420 Zn419 2.032 . S
O420 C424 1.278 . S
C421 O422 1.203 . S
C421 O428 1.267 . S
O422 C421 1.203 . S
O423 C416 1.185 . S
O423 Zn419 2.086 . S
C424 O420 1.278 . S
C424 O425 1.211 . S
O425 C424 1.211 . S
C426 O418 1.284 . S
C426 O427 1.273 . S
O427 C426 1.273 . S
O428 Zn419 1.977 . S
O428 C421 1.267 . S
C429 O430 1.160 . S
C429 O436 1.185 . S
O430 C429 1.160 . S
O431 Zn432 1.899 . S
O431 C439 1.284 . S
Zn432 O431 1.899 . S
Zn432 O433 2.032 . S
Zn432 O436 2.086 . S
Zn432 O441 1.977 . S
O433 Zn432 2.032 . S
O433 C437 1.278 . S
C434 O435 1.203 . S
C434 O441 1.267 . S
O435 C434 1.203 . S
O436 C429 1.185 . S
O436 Zn432 2.086 . S
C437 O433 1.278 . S
C437 O438 1.211 . S
O438 C437 1.211 . S
C439 O431 1.284 . S
C439 O440 1.273 . S
O440 C439 1.273 . S
O441 Zn432 1.977 . S
O441 C434 1.267 . S
C442 O443 1.160 . S
C442 O449 1.185 . S
O443 C442 1.160 . S
O444 Zn445 1.899 . S
O444 C452 1.284 . S
Zn445 O444 1.899 . S
Zn445 O446 2.032 . S
Zn445 O449 2.086 . S
Zn445 O454 1.977 . S
O446 Zn445 2.032 . S
O446 C450 1.278 . S
C447 O448 1.203 . S
C447 O454 1.267 . S
O448 C447 1.203 . S
O449 C442 1.185 . S
O449 Zn445 2.086 . S
C450 O446 1.278 . S
C450 O451 1.211 . S
O451 C450 1.211 . S
C452 O444 1.284 . S
C452 O453 1.273 . S
O453 C452 1.273 . S
O454 Zn445 1.977 . S
O454 C447 1.267 . S
C455 O456 1.160 . S
C455 O462 1.185 . S
O456 C455 1.160 . S
O457 Zn458 1.899 . S
O457 C465 1.284 . S
Zn458 O457 1.899 . S
Zn458 O459 2.032 . S
Zn458 O462 2.086 . S
Zn458 O467 1.977 . S
O459 Zn458 2.032 . S
O459 C463 1.278 . S
C460 O461 1.203 . S
C460 O467 1.267 . S
O461 C460 1.203 . S
O462 C455 1.185 . S
O462 Zn458 2.086 . S
C463 O459 1.278 . S
C463 O464 1.211 . S
O464 C463 1.211 . S
C465 O457 1.284 . S
C465 O466 1.273 . S
O466 C465 1.273 . S
O467 Zn458 1.977 . S
O467 C460 1.267 . S
C468 C469 1.349 . S
C468 C470 1.327 . S
C468 H493 0.950 . S
C469 C468 1.349 . S
C469 C485 1.349 . S
C470 C468 1.327 . S
C470 C489 1.429 . S
C470 H494 0.950 . S
C471 C488 1.574 . S
C471 C490 1.368 . S
C471 H495 0.949 . S
H472 C476 0.949 . S
C473 C474 1.349 . S
C473 C475 1.327 . S
C473 H496 0.950 . S
C474 C473 1.349 . S
C474 C486 1.349 . S
C475 C473 1.327 . S
C475 C491 1.429 . S
C475 H497 0.950 . S
C476 H472 0.949 . S
C476 C484 1.574 . S
C476 C492 1.368 . S
H477 C485 0.950 . S
H478 C483 0.950 . S
H479 C484 0.949 . S
H480 C486 0.950 . S
H481 C487 0.950 . S
H482 C488 0.949 1_554 S
C483 H478 0.950 . S
C483 C485 1.327 . S
C483 C489 1.429 . S
C484 C476 1.574 . S
C484 H479 0.949 . S
C484 C490 1.368 . S
C485 C469 1.349 . S
C485 H477 0.950 . S
C485 C483 1.327 . S
C486 C474 1.349 . S
C486 H480 0.950 . S
C486 C487 1.327 . S
C487 H481 0.950 . S
C487 C486 1.327 . S
C487 C491 1.429 . S
C488 C471 1.574 . S
C488 H482 0.949 1_556 S
C488 C492 1.368 . S
C489 C470 1.429 . S
C489 C483 1.429 . S
C489 C490 1.523 . S
C490 C471 1.368 . S
C490 C484 1.368 . S
C490 C489 1.523 . S
C491 C475 1.429 . S
C491 C487 1.429 . S
C491 C492 1.523 1_554 S
C492 C476 1.368 . S
C492 C488 1.368 . S
C492 C491 1.523 1_556 S
H493 C468 0.950 . S
H494 C470 0.950 . S
H495 C471 0.949 . S
H496 C473 0.950 . S
H497 C475 0.950 . S
C498 C499 1.349 . S
C498 C500 1.327 . S
C498 H523 0.950 . S
C499 C498 1.349 . S
C499 C515 1.349 . S
C500 C498 1.327 . S
C500 C519 1.429 . S
C500 H524 0.950 . S
C501 C518 1.574 . S
C501 C520 1.368 . S
C501 H525 0.949 . S
H502 C506 0.949 . S
C503 C504 1.349 . S
C503 C505 1.327 . S
C503 H526 0.950 . S
C504 C503 1.349 . S
C504 C516 1.349 . S
C505 C503 1.327 . S
C505 C521 1.429 . S
C505 H527 0.950 . S
C506 H502 0.949 . S
C506 C514 1.574 . S
C506 C522 1.368 . S
H507 C515 0.950 . S
H508 C513 0.950 . S
H509 C514 0.949 . S
H510 C516 0.950 . S
H511 C517 0.950 . S
H512 C518 0.959 . S
C513 H508 0.950 . S
C513 C515 1.327 . S
C513 C519 1.429 . S
C514 C506 1.574 . S
C514 H509 0.949 . S
C514 C520 1.368 . S
C515 C499 1.349 . S
C515 H507 0.950 . S
C515 C513 1.327 . S
C516 C504 1.349 . S
C516 H510 0.950 . S
C516 C517 1.327 . S
C517 H511 0.950 . S
C517 C516 1.327 . S
C517 C521 1.429 . S
C518 C501 1.574 . S
C518 H512 0.959 . S
C518 C522 1.368 . S
C519 C500 1.429 . S
C519 C513 1.429 . S
C519 C520 1.523 . S
C520 C501 1.368 . S
C520 C514 1.368 . S
C520 C519 1.523 . S
C521 C505 1.429 . S
C521 C517 1.429 . S
C521 C522 1.523 1_554 S
C522 C506 1.368 . S
C522 C518 1.368 . S
C522 C521 1.523 1_556 S
H523 C498 0.950 . S
H524 C500 0.950 . S
H525 C501 0.949 . S
H526 C503 0.950 . S
H527 C505 0.950 . S
C528 C529 1.349 . S
C528 C530 1.327 . S
C528 H553 0.950 . S
C529 C528 1.349 . S
C529 C545 1.349 . S
C530 C528 1.327 . S
C530 C549 1.429 . S
C530 H554 0.950 . S
C531 C548 1.574 . S
C531 C550 1.368 . S
C531 H555 0.949 1_556 S
H532 C536 0.949 . S
C533 C534 1.349 . S
C533 C535 1.327 . S
C533 H556 0.950 . S
C534 C533 1.349 . S
C534 C546 1.349 . S
C535 C533 1.327 . S
C535 C551 1.429 . S
C535 H557 0.950 . S
C536 H532 0.949 . S
C536 C544 1.574 . S
C536 C552 1.368 . S
H537 C545 0.950 . S
H538 C543 0.950 . S
H539 C544 0.949 . S
H540 C546 0.950 . S
H541 C547 0.950 . S
H542 C548 0.949 . S
C543 H538 0.950 . S
C543 C545 1.327 . S
C543 C549 1.429 . S
C544 C536 1.574 . S
C544 H539 0.949 . S
C544 C550 1.368 . S
C545 C529 1.349 . S
C545 H537 0.950 . S
C545 C543 1.327 . S
C546 C534 1.349 . S
C546 H540 0.950 . S
C546 C547 1.327 . S
C547 H541 0.950 . S
C547 C546 1.327 . S
C547 C551 1.429 . S
C548 C531 1.574 . S
C548 H542 0.949 . S
C548 C552 1.368 . S
C549 C530 1.429 . S
C549 C543 1.429 . S
C549 C550 1.523 1_554 S
C550 C531 1.368 . S
C550 C544 1.368 . S
C550 C549 1.523 1_556 S
C551 C535 1.429 . S
C551 C547 1.429 . S
C551 C552 1.523 . S
C552 C536 1.368 . S
C552 C548 1.368 . S
C552 C551 1.523 . S
H553 C528 0.950 . S
H554 C530 0.950 . S
H555 C531 0.949 1_554 S
H556 C533 0.950 . S
H557 C535 0.950 . S
C558 C559 1.349 . S
C558 C560 1.327 . S
C558 H583 0.950 . S
C559 C558 1.349 . S
C559 C575 1.349 . S
C560 C558 1.327 . S
C560 C579 1.429 . S
C560 H584 0.950 . S
C561 C578 1.574 . S
C561 C580 1.368 . S
C561 H585 0.949 . S
H562 C566 0.949 . S
C563 C564 1.349 . S
C563 C565 1.327 . S
C563 H586 0.950 . S
C564 C563 1.349 . S
C564 C576 1.349 . S
C565 C563 1.327 . S
C565 C581 1.429 . S
C565 H587 0.950 . S
C566 H562 0.949 . S
C566 C574 1.574 . S
C566 C582 1.368 . S
H567 C575 0.950 . S
H568 C573 0.950 . S
H569 C574 0.949 . S
H570 C576 0.950 . S
H571 C577 0.950 . S
H572 C578 0.949 . S
C573 H568 0.950 . S
C573 C575 1.327 . S
C573 C579 1.429 . S
C574 C566 1.574 . S
C574 H569 0.949 . S
C574 C580 1.368 . S
C575 C559 1.349 . S
C575 H567 0.950 . S
C575 C573 1.327 . S
C576 C564 1.349 . S
C576 H570 0.950 . S
C576 C577 1.327 . S
C577 H571 0.950 . S
C577 C576 1.327 . S
C577 C581 1.429 . S
C578 C561 1.574 . S
C578 H572 0.949 . S
C578 C582 1.368 . S
C579 C560 1.429 . S
C579 C573 1.429 . S
C579 C580 1.523 . S
C580 C561 1.368 . S
C580 C574 1.368 . S
C580 C579 1.523 . S
C581 C565 1.429 . S
C581 C577 1.429 . S
C581 C582 1.523 . S
C582 C566 1.368 . S
C582 C578 1.368 . S
C582 C581 1.523 . S
H583 C558 0.950 . S
H584 C560 0.950 . S
H585 C561 0.949 . S
H586 C563 0.950 . S
H587 C565 0.950 . S
C588 C589 1.349 . S
C588 C590 1.327 . S
C588 H613 0.950 . S
C589 C588 1.349 . S
C589 C605 1.349 . S
C590 C588 1.327 . S
C590 C609 1.429 . S
C590 H614 0.950 . S
C591 C608 1.574 . S
C591 C610 1.368 . S
C591 H615 0.949 . S
H592 C596 0.949 . S
C593 C594 1.349 . S
C593 C595 1.327 . S
C593 H616 0.950 . S
C594 C593 1.349 . S
C594 C606 1.349 . S
C595 C593 1.327 . S
C595 C611 1.429 . S
C595 H617 0.950 . S
C596 H592 0.949 . S
C596 C604 1.574 . S
C596 C612 1.368 . S
H597 C605 0.950 . S
H598 C603 0.950 . S
H599 C604 0.949 . S
H600 C606 0.950 . S
H601 C607 0.950 . S
H602 C608 0.949 . S
C603 H598 0.950 . S
C603 C605 1.327 . S
C603 C609 1.429 . S
C604 C596 1.574 . S
C604 H599 0.949 . S
C604 C610 1.368 . S
C605 C589 1.349 . S
C605 H597 0.950 . S
C605 C603 1.327 . S
C606 C594 1.349 . S
C606 H600 0.950 . S
C606 C607 1.327 . S
C607 H601 0.950 . S
C607 C606 1.327 . S
C607 C611 1.429 . S
C608 C591 1.574 . S
C608 H602 0.949 . S
C608 C612 1.368 . S
C609 C590 1.429 . S
C609 C603 1.429 . S
C609 C610 1.523 . S
C610 C591 1.368 . S
C610 C604 1.368 . S
C610 C609 1.523 . S
C611 C595 1.429 . S
C611 C607 1.429 . S
C611 C612 1.523 . S
C612 C596 1.368 . S
C612 C608 1.368 . S
C612 C611 1.523 . S
H613 C588 0.950 . S
H614 C590 0.950 . S
H615 C591 0.949 . S
H616 C593 0.950 . S
H617 C595 0.950 . S
C618 C619 1.349 . S
C618 C620 1.327 . S
C618 H643 0.950 . S
C619 C618 1.349 . S
C619 C635 1.349 . S
C620 C618 1.327 . S
C620 C639 1.429 . S
C620 H644 0.950 . S
C621 C638 1.574 . S
C621 C640 1.368 . S
C621 H645 0.949 . S
H622 C626 0.949 . S
C623 C624 1.349 . S
C623 C625 1.327 . S
C623 H646 0.950 . S
C624 C623 1.349 . S
C624 C636 1.349 . S
C625 C623 1.327 . S
C625 C641 1.429 . S
C625 H647 0.950 . S
C626 H622 0.949 . S
C626 C634 1.574 . S
C626 C642 1.368 . S
H627 C635 0.950 . S
H628 C633 0.950 . S
H629 C634 0.949 . S
H630 C636 0.950 . S
H631 C637 0.950 . S
H632 C638 0.949 . S
C633 H628 0.950 . S
C633 C635 1.327 . S
C633 C639 1.429 . S
C634 C626 1.574 . S
C634 H629 0.949 . S
C634 C640 1.368 . S
C635 C619 1.349 . S
C635 H627 0.950 . S
C635 C633 1.327 . S
C636 C624 1.349 . S
C636 H630 0.950 . S
C636 C637 1.327 . S
C637 H631 0.950 . S
C637 C636 1.327 . S
C637 C641 1.429 . S
C638 C621 1.574 . S
C638 H632 0.949 . S
C638 C642 1.368 . S
C639 C620 1.429 . S
C639 C633 1.429 . S
C639 C640 1.523 . S
C640 C621 1.368 . S
C640 C634 1.368 . S
C640 C639 1.523 . S
C641 C625 1.429 . S
C641 C637 1.429 . S
C641 C642 1.523 . S
C642 C626 1.368 . S
C642 C638 1.368 . S
C642 C641 1.523 . S
H643 C618 0.950 . S
H644 C620 0.950 . S
H645 C621 0.949 . S
H646 C623 0.950 . S
H647 C625 0.950 . S
C648 C649 1.349 . S
C648 C650 1.327 . S
C648 H673 0.950 . S
C649 C648 1.349 . S
C649 C665 1.349 . S
C650 C648 1.327 . S
C650 C669 1.429 . S
C650 H674 0.950 . S
C651 C668 1.574 . S
C651 C670 1.368 . S
C651 H675 0.949 . S
H652 C656 0.949 . S
C653 C654 1.349 . S
C653 C655 1.327 . S
C653 H676 0.950 . S
C654 C653 1.349 . S
C654 C666 1.349 . S
C655 C653 1.327 . S
C655 C671 1.429 . S
C655 H677 0.950 . S
C656 H652 0.949 . S
C656 C664 1.574 . S
C656 C672 1.368 . S
H657 C665 0.950 . S
H658 C663 0.950 . S
H659 C664 0.949 . S
H660 C666 0.950 . S
H661 C667 0.950 . S
H662 C668 0.949 . S
C663 H658 0.950 . S
C663 C665 1.327 . S
C663 C669 1.429 . S
C664 C656 1.574 . S
C664 H659 0.949 . S
C664 C670 1.368 . S
C665 C649 1.349 . S
C665 H657 0.950 . S
C665 C663 1.327 . S
C666 C654 1.349 . S
C666 H660 0.950 . S
C666 C667 1.327 . S
C667 H661 0.950 . S
C667 C666 1.327 . S
C667 C671 1.429 . S
C668 C651 1.574 . S
C668 H662 0.949 . S
C668 C672 1.368 . S
C669 C650 1.429 . S
C669 C663 1.429 . S
C669 C670 1.523 . S
C670 C651 1.368 . S
C670 C664 1.368 . S
C670 C669 1.523 . S
C671 C655 1.429 . S
C671 C667 1.429 . S
C671 C672 1.523 1_556 S
C672 C656 1.368 . S
C672 C668 1.368 . S
C672 C671 1.523 1_554 S
H673 C648 0.950 . S
H674 C650 0.950 . S
H675 C651 0.949 . S
H676 C653 0.950 . S
H677 C655 0.950 . S
C678 C679 1.349 . S
C678 C680 1.327 . S
C678 H703 0.950 . S
C679 C678 1.349 . S
C679 C695 1.349 . S
C680 C678 1.327 . S
C680 C699 1.429 . S
C680 H704 0.950 . S
C681 C698 1.574 . S
C681 C700 1.368 . S
C681 H705 0.949 . S
H682 C686 0.949 1_556 S
C683 C684 1.349 . S
C683 C685 1.327 . S
C683 H706 0.950 . S
C684 C683 1.349 . S
C684 C696 1.349 . S
C685 C683 1.327 . S
C685 C701 1.429 . S
C685 H707 0.950 . S
C686 H682 0.949 1_554 S
C686 C694 1.574 . S
C686 C702 1.368 . S
H687 C695 0.950 . S
H688 C693 0.950 . S
H689 C694 0.949 . S
H690 C696 0.950 . S
H691 C697 0.950 . S
H692 C698 0.949 . S
C693 H688 0.950 . S
C693 C695 1.327 . S
C693 C699 1.429 . S
C694 C686 1.574 . S
C694 H689 0.949 . S
C694 C700 1.368 . S
C695 C679 1.349 . S
C695 H687 0.950 . S
C695 C693 1.327 . S
C696 C684 1.349 . S
C696 H690 0.950 . S
C696 C697 1.327 . S
C697 H691 0.950 . S
C697 C696 1.327 . S
C697 C701 1.429 . S
C698 C681 1.574 . S
C698 H692 0.949 . S
C698 C702 1.368 . S
C699 C680 1.429 . S
C699 C693 1.429 . S
C699 C700 1.523 . S
C700 C681 1.368 . S
C700 C694 1.368 . S
C700 C699 1.523 . S
C701 C685 1.429 . S
C701 C697 1.429 . S
C701 C702 1.523 1_556 S
C702 C686 1.368 . S
C702 C698 1.368 . S
C702 C701 1.523 1_554 S
H703 C678 0.950 . S
H704 C680 0.950 . S
H705 C681 0.949 . S
H706 C683 0.950 . S
H707 C685 0.950 . S
C708 C709 1.349 . S
C708 C710 1.327 . S
C708 H733 0.950 . S
C709 C708 1.349 . S
C709 C725 1.349 . S
C710 C708 1.327 . S
C710 C729 1.429 . S
C710 H734 0.950 . S
C711 C728 1.574 . S
C711 C730 1.368 . S
C711 H735 0.949 . S
H712 C716 0.949 . S
C713 C714 1.349 . S
C713 C715 1.327 . S
C713 H736 0.950 . S
C714 C713 1.349 . S
C714 C726 1.349 . S
C715 C713 1.327 . S
C715 C731 1.429 . S
C715 H737 0.950 . S
C716 H712 0.949 . S
C716 C724 1.574 . S
C716 C732 1.368 . S
H717 C725 0.950 . S
H718 C723 0.950 . S
H719 C724 0.953 . S
H720 C726 0.950 . S
H721 C727 0.950 . S
H722 C728 0.949 . S
C723 H718 0.950 . S
C723 C725 1.327 . S
C723 C729 1.429 . S
C724 C716 1.574 . S
C724 H719 0.953 . S
C724 C730 1.368 . S
C725 C709 1.349 . S
C725 H717 0.950 . S
C725 C723 1.327 . S
C726 C714 1.349 . S
C726 H720 0.950 . S
C726 C727 1.327 . S
C727 H721 0.950 . S
C727 C726 1.327 . S
C727 C731 1.429 . S
C728 C711 1.574 . S
C728 H722 0.949 . S
C728 C732 1.368 . S
C729 C710 1.429 . S
C729 C723 1.429 . S
C729 C730 1.523 1_556 S
C730 C711 1.368 . S
C730 C724 1.368 . S
C730 C729 1.523 1_554 S
C731 C715 1.429 . S
C731 C727 1.429 . S
C731 C732 1.523 . S
C732 C716 1.368 . S
C732 C728 1.368 . S
C732 C731 1.523 . S
H733 C708 0.950 . S
H734 C710 0.950 . S
H735 C711 0.949 . S
H736 C713 0.950 . S
H737 C715 0.950 . S
C738 C739 1.349 . S
C738 C740 1.327 . S
C738 H763 0.950 . S
C739 C738 1.349 . S
C739 C755 1.349 . S
C740 C738 1.327 . S
C740 C759 1.429 . S
C740 H764 0.950 . S
C741 C758 1.574 . S
C741 C760 1.368 . S
C741 H765 0.949 . S
H742 C746 0.949 . S
C743 C744 1.349 . S
C743 C745 1.327 . S
C743 H766 0.950 . S
C744 C743 1.349 . S
C744 C756 1.349 . S
C745 C743 1.327 . S
C745 C761 1.429 . S
C745 H767 0.950 . S
C746 H742 0.949 . S
C746 C754 1.574 . S
C746 C762 1.368 . S
H747 C755 0.950 . S
H748 C753 0.950 . S
H749 C754 0.949 . S
H750 C756 0.950 . S
H751 C757 0.950 . S
H752 C758 0.949 . S
C753 H748 0.950 . S
C753 C755 1.327 . S
C753 C759 1.429 . S
C754 C746 1.574 . S
C754 H749 0.949 . S
C754 C760 1.368 . S
C755 C739 1.349 . S
C755 H747 0.950 . S
C755 C753 1.327 . S
C756 C744 1.349 . S
C756 H750 0.950 . S
C756 C757 1.327 . S
C757 H751 0.950 . S
C757 C756 1.327 . S
C757 C761 1.429 . S
C758 C741 1.574 . S
C758 H752 0.949 . S
C758 C762 1.368 . S
C759 C740 1.429 . S
C759 C753 1.429 . S
C759 C760 1.523 . S
C760 C741 1.368 . S
C760 C754 1.368 . S
C760 C759 1.523 . S
C761 C745 1.429 . S
C761 C757 1.429 . S
C761 C762 1.523 . S
C762 C746 1.368 . S
C762 C758 1.368 . S
C762 C761 1.523 . S
H763 C738 0.950 . S
H764 C740 0.950 . S
H765 C741 0.949 . S
H766 C743 0.950 . S
H767 C745 0.950 . S
C768 C769 1.349 . S
C768 C770 1.327 . S
C768 H793 0.950 . S
C769 C768 1.349 . S
C769 C785 1.349 . S
C770 C768 1.327 . S
C770 C789 1.429 . S
C770 H794 0.950 . S
C771 C788 1.574 . S
C771 C790 1.368 . S
C771 H795 0.949 . S
H772 C776 0.949 . S
C773 C774 1.349 . S
C773 C775 1.327 . S
C773 H796 0.950 . S
C774 C773 1.349 . S
C774 C786 1.349 . S
C775 C773 1.327 . S
C775 C791 1.429 . S
C775 H797 0.950 . S
C776 H772 0.949 . S
C776 C784 1.574 . S
C776 C792 1.368 . S
H777 C785 0.950 . S
H778 C783 0.950 . S
H779 C784 0.949 . S
H780 C786 0.950 . S
H781 C787 0.950 . S
H782 C788 0.949 . S
C783 H778 0.950 . S
C783 C785 1.327 . S
C783 C789 1.429 . S
C784 C776 1.574 . S
C784 H779 0.949 . S
C784 C790 1.368 . S
C785 C769 1.349 . S
C785 H777 0.950 . S
C785 C783 1.327 . S
C786 C774 1.349 . S
C786 H780 0.950 . S
C786 C787 1.327 . S
C787 H781 0.950 . S
C787 C786 1.327 . S
C787 C791 1.429 . S
C788 C771 1.574 . S
C788 H782 0.949 . S
C788 C792 1.368 . S
C789 C770 1.429 . S
C789 C783 1.429 . S
C789 C790 1.523 . S
C790 C771 1.368 . S
C790 C784 1.368 . S
C790 C789 1.523 . S
C791 C775 1.429 . S
C791 C787 1.429 . S
C791 C792 1.523 . S
C792 C776 1.368 . S
C792 C788 1.368 . S
C792 C791 1.523 . S
H793 C768 0.950 . S
H794 C770 0.950 . S
H795 C771 0.949 . S
H796 C773 0.950 . S
H797 C775 0.950 . S
C798 C799 1.349 . S
C798 C800 1.327 . S
C798 H823 0.950 . S
C799 C798 1.349 . S
C799 C815 1.349 . S
C800 C798 1.327 . S
C800 C819 1.429 . S
C800 H824 0.950 . S
C801 C818 1.574 . S
C801 C820 1.368 . S
C801 H825 0.949 . S
H802 C806 0.949 . S
C803 C804 1.349 . S
C803 C805 1.327 . S
C803 H826 0.950 . S
C804 C803 1.349 . S
C804 C816 1.349 . S
C805 C803 1.327 . S
C805 C821 1.429 . S
C805 H827 0.950 . S
C806 H802 0.949 . S
C806 C814 1.574 . S
C806 C822 1.368 . S
H807 C815 0.950 . S
H808 C813 0.950 . S
H809 C814 0.949 . S
H810 C816 0.950 . S
H811 C817 0.950 . S
H812 C818 0.949 . S
C813 H808 0.950 . S
C813 C815 1.327 . S
C813 C819 1.429 . S
C814 C806 1.574 . S
C814 H809 0.949 . S
C814 C820 1.368 . S
C815 C799 1.349 . S
C815 H807 0.950 . S
C815 C813 1.327 . S
C816 C804 1.349 . S
C816 H810 0.950 . S
C816 C817 1.327 . S
C817 H811 0.950 . S
C817 C816 1.327 . S
C817 C821 1.429 . S
C818 C801 1.574 . S
C818 H812 0.949 . S
C818 C822 1.368 . S
C819 C800 1.429 . S
C819 C813 1.429 . S
C819 C820 1.523 . S
C820 C801 1.368 . S
C820 C814 1.368 . S
C820 C819 1.523 . S
C821 C805 1.429 . S
C821 C817 1.429 . S
C821 C822 1.523 . S
C822 C806 1.368 . S
C822 C818 1.368 . S
C822 C821 1.523 . S
H823 C798 0.950 . S
H824 C800 0.950 . S
H825 C801 0.949 . S
H826 C803 0.950 . S
H827 C805 0.950 . S
C828 C829 1.349 . S
C828 C830 1.327 . S
C828 H853 0.950 . S
C829 C828 1.349 . S
C829 C845 1.349 . S
C830 C828 1.327 . S
C830 C849 1.429 . S
C830 H854 0.950 . S
C831 C848 1.574 . S
C831 C850 1.368 . S
C831 H855 0.949 . S
H832 C836 0.949 . S
C833 C834 1.349 . S
C833 C835 1.327 . S
C833 H856 0.950 . S
C834 C833 1.349 . S
C834 C846 1.349 . S
C835 C833 1.327 . S
C835 C851 1.429 . S
C835 H857 0.950 . S
C836 H832 0.949 . S
C836 C844 1.574 . S
C836 C852 1.368 . S
H837 C845 0.950 . S
H838 C843 0.950 . S
H839 C844 0.949 . S
H840 C846 0.950 . S
H841 C847 0.950 . S
H842 C848 0.949 . S
C843 H838 0.950 . S
C843 C845 1.327 . S
C843 C849 1.429 . S
C844 C836 1.574 . S
C844 H839 0.949 . S
C844 C850 1.368 . S
C845 C829 1.349 . S
C845 H837 0.950 . S
C845 C843 1.327 . S
C846 C834 1.349 . S
C846 H840 0.950 . S
C846 C847 1.327 . S
C847 H841 0.950 . S
C847 C846 1.327 . S
C847 C851 1.429 . S
C848 C831 1.574 . S
C848 H842 0.949 . S
C848 C852 1.368 . S
C849 C830 1.429 . S
C849 C843 1.429 . S
C849 C850 1.523 . S
C850 C831 1.368 . S
C850 C844 1.368 . S
C850 C849 1.523 . S
C851 C835 1.429 . S
C851 C847 1.429 . S
C851 C852 1.523 . S
C852 C836 1.368 . S
C852 C848 1.368 . S
C852 C851 1.523 . S
H853 C828 0.950 . S
H854 C830 0.950 . S
H855 C831 0.949 . S
H856 C833 0.950 . S
H857 C835 0.950 . S
C858 C859 1.349 . S
C858 C860 1.327 . S
C858 H883 0.950 . S
C859 C858 1.349 . S
C859 C875 1.349 . S
C860 C858 1.327 . S
C860 C879 1.429 . S
C860 H884 0.950 . S
C861 C878 1.574 . S
C861 C880 1.368 . S
C861 H885 0.949 . S
H862 C866 0.949 . S
C863 C864 1.349 . S
C863 C865 1.327 . S
C863 H886 0.950 . S
C864 C863 1.349 . S
C864 C876 1.349 . S
C865 C863 1.327 . S
C865 C881 1.429 . S
C865 H887 0.950 . S
C866 H862 0.949 . S
C866 C874 1.574 . S
C866 C882 1.368 . S
H867 C875 0.950 . S
H868 C873 0.950 . S
H869 C874 0.949 . S
H870 C876 0.950 . S
H871 C877 0.950 . S
H872 C878 0.949 . S
C873 H868 0.950 . S
C873 C875 1.327 . S
C873 C879 1.429 . S
C874 C866 1.574 . S
C874 H869 0.949 . S
C874 C880 1.368 . S
C875 C859 1.349 . S
C875 H867 0.950 . S
C875 C873 1.327 . S
C876 C864 1.349 . S
C876 H870 0.950 . S
C876 C877 1.327 . S
C877 H871 0.950 . S
C877 C876 1.327 . S
C877 C881 1.429 . S
C878 C861 1.574 . S
C878 H872 0.949 . S
C878 C882 1.368 . S
C879 C860 1.429 . S
C879 C873 1.429 . S
C879 C880 1.523 . S
C880 C861 1.368 . S
C880 C874 1.368 . S
C880 C879 1.523 . S
C881 C865 1.429 . S
C881 C877 1.429 . S
C881 C882 1.523 . S
C882 C866 1.368 . S
C882 C878 1.368 . S
C882 C881 1.523 . S
H883 C858 0.950 . S
H884 C860 0.950 . S
H885 C861 0.949 . S
H886 C863 0.950 . S
H887 C865 0.950 . S
C888 C889 1.349 . S
C888 C890 1.327 . S
C888 H913 0.950 . S
C889 C888 1.349 . S
C889 C905 1.349 . S
C890 C888 1.327 . S
C890 C909 1.429 . S
C890 H914 0.950 . S
C891 C908 1.574 . S
C891 C910 1.368 . S
C891 H915 0.949 . S
H892 C896 0.949 . S
C893 C894 1.349 . S
C893 C895 1.327 . S
C893 H916 0.950 . S
C894 C893 1.349 . S
C894 C906 1.349 . S
C895 C893 1.327 . S
C895 C911 1.429 . S
C895 H917 0.950 . S
C896 H892 0.949 . S
C896 C904 1.574 . S
C896 C912 1.368 . S
H897 C905 0.950 . S
H898 C903 0.950 . S
H899 C904 0.949 . S
H900 C906 0.950 . S
H901 C907 0.950 . S
H902 C908 0.949 . S
C903 H898 0.950 . S
C903 C905 1.327 . S
C903 C909 1.429 . S
C904 C896 1.574 . S
C904 H899 0.949 . S
C904 C910 1.368 . S
C905 C889 1.349 . S
C905 H897 0.950 . S
C905 C903 1.327 . S
C906 C894 1.349 . S
C906 H900 0.950 . S
C906 C907 1.327 . S
C907 H901 0.950 . S
C907 C906 1.327 . S
C907 C911 1.429 . S
C908 C891 1.574 . S
C908 H902 0.949 . S
C908 C912 1.368 . S
C909 C890 1.429 . S
C909 C903 1.429 . S
C909 C910 1.523 . S
C910 C891 1.368 . S
C910 C904 1.368 . S
C910 C909 1.523 . S
C911 C895 1.429 . S
C911 C907 1.429 . S
C911 C912 1.523 . S
C912 C896 1.368 . S
C912 C908 1.368 . S
C912 C911 1.523 . S
H913 C888 0.950 . S
H914 C890 0.950 . S
H915 C891 0.949 . S
H916 C893 0.950 . S
H917 C895 0.950 . S
C918 C919 1.349 . S
C918 C920 1.327 . S
C918 H943 0.950 . S
C919 C918 1.349 . S
C919 C935 1.349 . S
C920 C918 1.327 . S
C920 C939 1.429 . S
C920 H944 0.950 . S
C921 C938 1.574 . S
C921 C940 1.368 . S
C921 H945 0.949 . S
H922 C926 0.949 . S
C923 C924 1.349 . S
C923 C925 1.327 1_554 S
C923 H946 0.950 . S
C924 C923 1.349 . S
C924 C936 1.349 . S
C925 C923 1.327 1_556 S
C925 C941 1.429 . S
C925 H947 0.950 . S
C926 H922 0.949 . S
C926 C934 1.574 . S
C926 C942 1.368 . S
H927 C935 0.950 . S
H928 C933 0.950 . S
H929 C934 0.949 . S
H930 C936 0.950 . S
H931 C937 0.950 . S
H932 C938 0.949 . S
C933 H928 0.950 . S
C933 C935 1.327 . S
C933 C939 1.429 . S
C934 C926 1.574 . S
C934 H929 0.949 . S
C934 C940 1.368 . S
C935 C919 1.349 . S
C935 H927 0.950 . S
C935 C933 1.327 . S
C936 C924 1.349 . S
C936 H930 0.950 . S
C936 C937 1.327 1_554 S
C937 H931 0.950 . S
C937 C936 1.327 1_556 S
C937 C941 1.429 . S
C938 C921 1.574 . S
C938 H932 0.949 . S
C938 C942 1.368 . S
C939 C920 1.429 . S
C939 C933 1.429 . S
C939 C940 1.523 . S
C940 C921 1.368 . S
C940 C934 1.368 . S
C940 C939 1.523 . S
C941 C925 1.429 . S
C941 C937 1.429 . S
C941 C942 1.523 . S
C942 C926 1.368 . S
C942 C938 1.368 . S
C942 C941 1.523 . S
H943 C918 0.950 . S
H944 C920 0.950 . S
H945 C921 0.949 . S
H946 C923 0.950 . S
H947 C925 0.950 . S
C948 C949 1.349 . S
C948 C950 1.327 . S
C948 H973 0.950 . S
C949 C948 1.349 . S
C949 C965 1.349 . S
C950 C948 1.327 . S
C950 C969 1.429 . S
C950 H974 0.950 . S
C951 C968 1.574 . S
C951 C970 1.368 . S
C951 H975 0.949 . S
H952 C956 0.949 . S
C953 C954 1.349 . S
C953 C955 1.327 1_554 S
C953 H976 0.950 . S
C954 C953 1.349 . S
C954 C966 1.349 . S
C955 C953 1.327 1_556 S
C955 C971 1.429 . S
C955 H977 0.950 . S
C956 H952 0.949 . S
C956 C964 1.574 . S
C956 C972 1.368 . S
H957 C965 0.950 . S
H958 C963 0.950 . S
H959 C964 0.949 . S
H960 C966 0.950 . S
H961 C967 0.950 . S
H962 C968 0.949 . S
C963 H958 0.950 . S
C963 C965 1.327 . S
C963 C969 1.429 . S
C964 C956 1.574 . S
C964 H959 0.949 . S
C964 C970 1.368 . S
C965 C949 1.349 . S
C965 H957 0.950 . S
C965 C963 1.327 . S
C966 C954 1.349 . S
C966 H960 0.950 . S
C966 C967 1.327 1_554 S
C967 H961 0.950 . S
C967 C966 1.327 1_556 S
C967 C971 1.429 . S
C968 C951 1.574 . S
C968 H962 0.949 . S
C968 C972 1.368 . S
C969 C950 1.429 . S
C969 C963 1.429 . S
C969 C970 1.523 . S
C970 C951 1.368 . S
C970 C964 1.368 . S
C970 C969 1.523 . S
C971 C955 1.429 . S
C971 C967 1.429 . S
C971 C972 1.523 . S
C972 C956 1.368 . S
C972 C968 1.368 . S
C972 C971 1.523 . S
H973 C948 0.950 . S
H974 C950 0.950 . S
H975 C951 0.949 . S
H976 C953 0.950 . S
H977 C955 0.950 . S
C978 C979 1.349 . S
C978 C980 1.327 . S
C978 H1003 0.950 . S
C979 C978 1.349 . S
C979 C995 1.349 . S
C980 C978 1.327 . S
C980 C999 1.429 . S
C980 H1004 0.950 . S
C981 C998 1.574 . S
C981 C1000 1.368 . S
C981 H1005 0.949 . S
H982 C986 0.949 . S
C983 C984 1.349 . S
C983 C985 1.327 1_554 S
C983 H1006 0.950 . S
C984 C983 1.349 . S
C984 C996 1.349 . S
C985 C983 1.327 1_556 S
C985 C1001 1.429 . S
C985 H1007 0.950 . S
C986 H982 0.949 . S
C986 C994 1.574 . S
C986 C1002 1.368 . S
H987 C995 0.950 . S
H988 C993 0.950 . S
H989 C994 0.949 . S
H990 C996 0.950 . S
H991 C997 0.950 . S
H992 C998 0.949 . S
C993 H988 0.950 . S
C993 C995 1.327 . S
C993 C999 1.429 . S
C994 C986 1.574 . S
C994 H989 0.949 . S
C994 C1000 1.368 . S
C995 C979 1.349 . S
C995 H987 0.950 . S
C995 C993 1.327 . S
C996 C984 1.349 . S
C996 H990 0.950 . S
C996 C997 1.327 1_554 S
C997 H991 0.950 . S
C997 C996 1.327 1_556 S
C997 C1001 1.429 . S
C998 C981 1.574 . S
C998 H992 0.949 . S
C998 C1002 1.368 . S
C999 C980 1.429 . S
C999 C993 1.429 . S
C999 C1000 1.523 . S
C1000 C981 1.368 . S
C1000 C994 1.368 . S
C1000 C999 1.523 . S
C1001 C985 1.429 . S
C1001 C997 1.429 . S
C1001 C1002 1.523 . S
C1002 C986 1.368 . S
C1002 C998 1.368 . S
C1002 C1001 1.523 . S
H1003 C978 0.950 . S
H1004 C980 0.950 . S
H1005 C981 0.949 . S
H1006 C983 0.950 . S
H1007 C985 0.950 . S
C1008 C1009 1.349 . S
C1008 C1010 1.327 . S
C1008 H1033 0.950 . S
C1009 C1008 1.349 . S
C1009 C1025 1.349 . S
C1010 C1008 1.327 . S
C1010 C1029 1.429 . S
C1010 H1034 0.950 . S
C1011 C1028 1.574 . S
C1011 C1030 1.368 . S
C1011 H1035 0.949 . S
H1012 C1016 0.949 . S
C1013 C1014 1.349 . S
C1013 C1015 1.327 . S
C1013 H1036 0.950 . S
C1014 C1013 1.349 . S
C1014 C1026 1.349 . S
C1015 C1013 1.327 . S
C1015 C1031 1.429 . S
C1015 H1037 0.950 . S
C1016 H1012 0.949 . S
C1016 C1024 1.574 . S
C1016 C1032 1.368 . S
H1017 C1025 0.950 . S
H1018 C1023 0.950 . S
H1019 C1024 0.949 . S
H1020 C1026 0.950 . S
H1021 C1027 0.950 . S
H1022 C1028 0.949 . S
C1023 H1018 0.950 . S
C1023 C1025 1.327 . S
C1023 C1029 1.429 . S
C1024 C1016 1.574 . S
C1024 H1019 0.949 . S
C1024 C1030 1.368 . S
C1025 C1009 1.349 . S
C1025 H1017 0.950 . S
C1025 C1023 1.327 . S
C1026 C1014 1.349 . S
C1026 H1020 0.950 . S
C1026 C1027 1.327 . S
C1027 H1021 0.950 . S
C1027 C1026 1.327 . S
C1027 C1031 1.429 . S
C1028 C1011 1.574 . S
C1028 H1022 0.949 . S
C1028 C1032 1.368 . S
C1029 C1010 1.429 . S
C1029 C1023 1.429 . S
C1029 C1030 1.523 . S
C1030 C1011 1.368 . S
C1030 C1024 1.368 . S
C1030 C1029 1.523 . S
C1031 C1015 1.429 . S
C1031 C1027 1.429 . S
C1031 C1032 1.523 . S
C1032 C1016 1.368 . S
C1032 C1028 1.368 . S
C1032 C1031 1.523 . S
H1033 C1008 0.950 . S
H1034 C1010 0.950 . S
H1035 C1011 0.949 . S
H1036 C1013 0.950 . S
H1037 C1015 0.950 . S
C1038 C1039 1.349 . S
C1038 C1040 1.327 . S
C1038 H1063 0.950 . S
C1039 C1038 1.349 . S
C1039 C1055 1.349 . S
C1040 C1038 1.327 . S
C1040 C1059 1.429 . S
C1040 H1064 0.950 . S
C1041 C1058 1.574 . S
C1041 C1060 1.368 . S
C1041 H1065 0.949 . S
H1042 C1046 0.949 . S
C1043 C1044 1.349 . S
C1043 C1045 1.327 . S
C1043 H1066 0.950 . S
C1044 C1043 1.349 . S
C1044 C1056 1.349 . S
C1045 C1043 1.327 . S
C1045 C1061 1.429 . S
C1045 H1067 0.950 . S
C1046 H1042 0.949 . S
C1046 C1054 1.574 . S
C1046 C1062 1.368 . S
H1047 C1055 0.950 . S
H1048 C1053 0.950 . S
H1049 C1054 0.949 . S
H1050 C1056 0.950 . S
H1051 C1057 0.950 . S
H1052 C1058 0.949 . S
C1053 H1048 0.950 . S
C1053 C1055 1.327 . S
C1053 C1059 1.429 . S
C1054 C1046 1.574 . S
C1054 H1049 0.949 . S
C1054 C1060 1.368 . S
C1055 C1039 1.349 . S
C1055 H1047 0.950 . S
C1055 C1053 1.327 . S
C1056 C1044 1.349 . S
C1056 H1050 0.950 . S
C1056 C1057 1.327 . S
C1057 H1051 0.950 . S
C1057 C1056 1.327 . S
C1057 C1061 1.429 . S
C1058 C1041 1.574 . S
C1058 H1052 0.949 . S
C1058 C1062 1.368 . S
C1059 C1040 1.429 . S
C1059 C1053 1.429 . S
C1059 C1060 1.523 . S
C1060 C1041 1.368 . S
C1060 C1054 1.368 . S
C1060 C1059 1.523 . S
C1061 C1045 1.429 . S
C1061 C1057 1.429 . S
C1061 C1062 1.523 . S
C1062 C1046 1.368 . S
C1062 C1058 1.368 . S
C1062 C1061 1.523 . S
H1063 C1038 0.950 . S
H1064 C1040 0.950 . S
H1065 C1041 0.949 . S
H1066 C1043 0.950 . S
H1067 C1045 0.950 . S
C1068 C1069 1.349 . S
C1068 C1070 1.327 . S
C1068 H1093 0.950 . S
C1069 C1068 1.349 . S
C1069 C1085 1.349 . S
C1070 C1068 1.327 . S
C1070 C1089 1.429 . S
C1070 H1094 0.950 . S
C1071 C1088 1.574 . S
C1071 C1090 1.368 . S
C1071 H1095 0.949 . S
H1072 C1076 0.949 . S
C1073 C1074 1.349 . S
C1073 C1075 1.327 . S
C1073 H1096 0.950 . S
C1074 C1073 1.349 . S
C1074 C1086 1.349 . S
C1075 C1073 1.327 . S
C1075 C1091 1.429 . S
C1075 H1097 0.950 . S
C1076 H1072 0.949 . S
C1076 C1084 1.574 . S
C1076 C1092 1.368 . S
H1077 C1085 0.950 . S
H1078 C1083 0.950 . S
H1079 C1084 0.949 . S
H1080 C1086 0.950 . S
H1081 C1087 0.950 . S
H1082 C1088 0.949 . S
C1083 H1078 0.950 . S
C1083 C1085 1.327 . S
C1083 C1089 1.429 . S
C1084 C1076 1.574 . S
C1084 H1079 0.949 . S
C1084 C1090 1.368 . S
C1085 C1069 1.349 . S
C1085 H1077 0.950 . S
C1085 C1083 1.327 . S
C1086 C1074 1.349 . S
C1086 H1080 0.950 . S
C1086 C1087 1.327 . S
C1087 H1081 0.950 . S
C1087 C1086 1.327 . S
C1087 C1091 1.429 . S
C1088 C1071 1.574 . S
C1088 H1082 0.949 . S
C1088 C1092 1.368 . S
C1089 C1070 1.429 . S
C1089 C1083 1.429 . S
C1089 C1090 1.523 . S
C1090 C1071 1.368 . S
C1090 C1084 1.368 . S
C1090 C1089 1.523 . S
C1091 C1075 1.429 . S
C1091 C1087 1.429 . S
C1091 C1092 1.523 . S
C1092 C1076 1.368 . S
C1092 C1088 1.368 . S
C1092 C1091 1.523 . S
H1093 C1068 0.950 . S
H1094 C1070 0.950 . S
H1095 C1071 0.949 . S
H1096 C1073 0.950 . S
H1097 C1075 0.950 . S
C1098 C1099 1.349 . S
C1098 C1100 1.327 . S
C1098 H1123 0.950 . S
C1099 C1098 1.349 . S
C1099 C1115 1.349 . S
C1100 C1098 1.327 . S
C1100 C1119 1.429 . S
C1100 H1124 0.950 . S
C1101 C1118 1.574 . S
C1101 C1120 1.368 . S
C1101 H1125 0.949 . S
H1102 C1106 0.949 . S
C1103 C1104 1.349 . S
C1103 C1105 1.327 . S
C1103 H1126 0.950 . S
C1104 C1103 1.349 . S
C1104 C1116 1.349 . S
C1105 C1103 1.327 . S
C1105 C1121 1.429 . S
C1105 H1127 0.950 . S
C1106 H1102 0.949 . S
C1106 C1114 1.574 . S
C1106 C1122 1.368 . S
H1107 C1115 0.950 . S
H1108 C1113 0.950 . S
H1109 C1114 0.949 . S
H1110 C1116 0.950 . S
H1111 C1117 0.950 . S
H1112 C1118 0.949 . S
C1113 H1108 0.950 . S
C1113 C1115 1.327 . S
C1113 C1119 1.429 . S
C1114 C1106 1.574 . S
C1114 H1109 0.949 . S
C1114 C1120 1.368 . S
C1115 C1099 1.349 . S
C1115 H1107 0.950 . S
C1115 C1113 1.327 . S
C1116 C1104 1.349 . S
C1116 H1110 0.950 . S
C1116 C1117 1.327 . S
C1117 H1111 0.950 . S
C1117 C1116 1.327 . S
C1117 C1121 1.429 . S
C1118 C1101 1.574 . S
C1118 H1112 0.949 . S
C1118 C1122 1.368 . S
C1119 C1100 1.429 . S
C1119 C1113 1.429 . S
C1119 C1120 1.523 . S
C1120 C1101 1.368 . S
C1120 C1114 1.368 . S
C1120 C1119 1.523 . S
C1121 C1105 1.429 . S
C1121 C1117 1.429 . S
C1121 C1122 1.523 . S
C1122 C1106 1.368 . S
C1122 C1118 1.368 . S
C1122 C1121 1.523 . S
H1123 C1098 0.950 . S
H1124 C1100 0.950 . S
H1125 C1101 0.949 . S
H1126 C1103 0.950 . S
H1127 C1105 0.950 . S
C1128 C1129 1.349 . S
C1128 C1130 1.327 . S
C1128 H1153 0.950 . S
C1129 C1128 1.349 . S
C1129 C1145 1.349 . S
C1130 C1128 1.327 . S
C1130 C1149 1.429 . S
C1130 H1154 0.950 . S
C1131 C1148 1.574 . S
C1131 C1150 1.368 . S
C1131 H1155 0.949 . S
H1132 C1136 0.949 . S
C1133 C1134 1.349 . S
C1133 C1135 1.327 . S
C1133 H1156 0.950 . S
C1134 C1133 1.349 . S
C1134 C1146 1.349 . S
C1135 C1133 1.327 . S
C1135 C1151 1.429 . S
C1135 H1157 0.950 . S
C1136 H1132 0.949 . S
C1136 C1144 1.574 . S
C1136 C1152 1.368 . S
H1137 C1145 0.950 . S
H1138 C1143 0.950 . S
H1139 C1144 0.949 . S
H1140 C1146 0.950 . S
H1141 C1147 0.950 . S
H1142 C1148 0.949 . S
C1143 H1138 0.950 . S
C1143 C1145 1.327 . S
C1143 C1149 1.429 . S
C1144 C1136 1.574 . S
C1144 H1139 0.949 . S
C1144 C1150 1.368 . S
C1145 C1129 1.349 . S
C1145 H1137 0.950 . S
C1145 C1143 1.327 . S
C1146 C1134 1.349 . S
C1146 H1140 0.950 . S
C1146 C1147 1.327 . S
C1147 H1141 0.950 . S
C1147 C1146 1.327 . S
C1147 C1151 1.429 . S
C1148 C1131 1.574 . S
C1148 H1142 0.949 . S
C1148 C1152 1.368 . S
C1149 C1130 1.429 . S
C1149 C1143 1.429 . S
C1149 C1150 1.523 . S
C1150 C1131 1.368 . S
C1150 C1144 1.368 . S
C1150 C1149 1.523 . S
C1151 C1135 1.429 . S
C1151 C1147 1.429 . S
C1151 C1152 1.523 . S
C1152 C1136 1.368 . S
C1152 C1148 1.368 . S
C1152 C1151 1.523 . S
H1153 C1128 0.950 . S
H1154 C1130 0.950 . S
H1155 C1131 0.949 . S
H1156 C1133 0.950 . S
H1157 C1135 0.950 . S
C1158 C1159 1.349 . S
C1158 C1160 1.327 . S
C1158 H1183 0.950 . S
C1159 C1158 1.349 . S
C1159 C1175 1.349 . S
C1160 C1158 1.327 . S
C1160 C1179 1.429 . S
C1160 H1184 0.950 . S
C1161 C1178 1.574 . S
C1161 C1180 1.368 . S
C1161 H1185 0.949 . S
H1162 C1166 0.949 . S
C1163 C1164 1.349 . S
C1163 C1165 1.327 . S
C1163 H1186 0.950 . S
C1164 C1163 1.349 . S
C1164 C1176 1.349 . S
C1165 C1163 1.327 . S
C1165 C1181 1.429 . S
C1165 H1187 0.950 . S
C1166 H1162 0.949 . S
C1166 C1174 1.574 . S
C1166 C1182 1.368 . S
H1167 C1175 0.950 . S
H1168 C1173 0.950 . S
H1169 C1174 0.949 . S
H1170 C1176 0.950 . S
H1171 C1177 0.950 . S
H1172 C1178 0.949 . S
C1173 H1168 0.950 . S
C1173 C1175 1.327 . S
C1173 C1179 1.429 . S
C1174 C1166 1.574 . S
C1174 H1169 0.949 . S
C1174 C1180 1.368 . S
C1175 C1159 1.349 . S
C1175 H1167 0.950 . S
C1175 C1173 1.327 . S
C1176 C1164 1.349 . S
C1176 H1170 0.950 . S
C1176 C1177 1.327 . S
C1177 H1171 0.950 . S
C1177 C1176 1.327 . S
C1177 C1181 1.429 . S
C1178 C1161 1.574 . S
C1178 H1172 0.949 . S
C1178 C1182 1.368 . S
C1179 C1160 1.429 . S
C1179 C1173 1.429 . S
C1179 C1180 1.523 . S
C1180 C1161 1.368 . S
C1180 C1174 1.368 . S
C1180 C1179 1.523 . S
C1181 C1165 1.429 . S
C1181 C1177 1.429 . S
C1181 C1182 1.523 . S
C1182 C1166 1.368 . S
C1182 C1178 1.368 . S
C1182 C1181 1.523 . S
H1183 C1158 0.950 . S
H1184 C1160 0.950 . S
H1185 C1161 0.949 . S
H1186 C1163 0.950 . S
H1187 C1165 0.950 . S
C1188 C1189 1.349 . S
C1188 C1190 1.327 . S
C1188 H1213 0.950 . S
C1189 C1188 1.349 . S
C1189 C1205 1.349 . S
C1190 C1188 1.327 . S
C1190 C1209 1.429 . S
C1190 H1214 0.950 . S
C1191 C1208 1.574 . S
C1191 C1210 1.368 . S
C1191 H1215 0.949 . S
H1192 C1196 0.949 . S
C1193 C1194 1.349 . S
C1193 C1195 1.327 . S
C1193 H1216 0.950 . S
C1194 C1193 1.349 . S
C1194 C1206 1.349 . S
C1195 C1193 1.327 . S
C1195 C1211 1.429 . S
C1195 H1217 0.950 . S
C1196 H1192 0.949 . S
C1196 C1204 1.574 . S
C1196 C1212 1.368 . S
H1197 C1205 0.950 . S
H1198 C1203 0.950 . S
H1199 C1204 0.949 . S
H1200 C1206 0.950 . S
H1201 C1207 0.950 . S
H1202 C1208 0.949 . S
C1203 H1198 0.950 . S
C1203 C1205 1.327 . S
C1203 C1209 1.429 . S
C1204 C1196 1.574 . S
C1204 H1199 0.949 . S
C1204 C1210 1.368 . S
C1205 C1189 1.349 . S
C1205 H1197 0.950 . S
C1205 C1203 1.327 . S
C1206 C1194 1.349 . S
C1206 H1200 0.950 . S
C1206 C1207 1.327 . S
C1207 H1201 0.950 . S
C1207 C1206 1.327 . S
C1207 C1211 1.429 . S
C1208 C1191 1.574 . S
C1208 H1202 0.949 . S
C1208 C1212 1.368 . S
C1209 C1190 1.429 . S
C1209 C1203 1.429 . S
C1209 C1210 1.523 . S
C1210 C1191 1.368 . S
C1210 C1204 1.368 . S
C1210 C1209 1.523 . S
C1211 C1195 1.429 . S
C1211 C1207 1.429 . S
C1211 C1212 1.523 . S
C1212 C1196 1.368 . S
C1212 C1208 1.368 . S
C1212 C1211 1.523 . S
H1213 C1188 0.950 . S
H1214 C1190 0.950 . S
H1215 C1191 0.949 . S
H1216 C1193 0.950 . S
H1217 C1195 0.950 . S
C1218 C1219 1.349 . S
C1218 C1220 1.327 . S
C1218 H1243 0.950 . S
C1219 C1218 1.349 . S
C1219 C1235 1.349 . S
C1220 C1218 1.327 . S
C1220 C1239 1.429 . S
C1220 H1244 0.950 . S
C1221 C1238 1.574 . S
C1221 C1240 1.368 . S
C1221 H1245 0.949 . S
H1222 C1226 0.949 . S
C1223 C1224 1.349 . S
C1223 C1225 1.327 . S
C1223 H1246 0.950 . S
C1224 C1223 1.349 . S
C1224 C1236 1.349 . S
C1225 C1223 1.327 . S
C1225 C1241 1.429 . S
C1225 H1247 0.950 . S
C1226 H1222 0.949 . S
C1226 C1234 1.574 . S
C1226 C1242 1.368 . S
H1227 C1235 0.950 . S
H1228 C1233 0.950 . S
H1229 C1234 0.949 . S
H1230 C1236 0.950 . S
H1231 C1237 0.950 . S
H1232 C1238 0.949 . S
C1233 H1228 0.950 . S
C1233 C1235 1.327 . S
C1233 C1239 1.429 . S
C1234 C1226 1.574 . S
C1234 H1229 0.949 . S
C1234 C1240 1.368 . S
C1235 C1219 1.349 . S
C1235 H1227 0.950 . S
C1235 C1233 1.327 . S
C1236 C1224 1.349 . S
C1236 H1230 0.950 . S
C1236 C1237 1.327 . S
C1237 H1231 0.950 . S
C1237 C1236 1.327 . S
C1237 C1241 1.429 . S
C1238 C1221 1.574 . S
C1238 H1232 0.949 . S
C1238 C1242 1.368 . S
C1239 C1220 1.429 . S
C1239 C1233 1.429 . S
C1239 C1240 1.523 . S
C1240 C1221 1.368 . S
C1240 C1234 1.368 . S
C1240 C1239 1.523 . S
C1241 C1225 1.429 . S
C1241 C1237 1.429 . S
C1241 C1242 1.523 . S
C1242 C1226 1.368 . S
C1242 C1238 1.368 . S
C1242 C1241 1.523 . S
H1243 C1218 0.950 . S
H1244 C1220 0.950 . S
H1245 C1221 0.949 . S
H1246 C1223 0.950 . S
H1247 C1225 0.950 . S
C1248 C1249 1.349 . S
C1248 C1250 1.327 . S
C1248 H1273 0.950 . S
C1249 C1248 1.349 . S
C1249 C1265 1.349 . S
C1250 C1248 1.327 . S
C1250 C1269 1.429 . S
C1250 H1274 0.950 . S
C1251 C1268 1.574 . S
C1251 C1270 1.368 . S
C1251 H1275 0.949 . S
H1252 C1256 0.949 . S
C1253 C1254 1.349 . S
C1253 C1255 1.327 . S
C1253 H1276 0.950 . S
C1254 C1253 1.349 . S
C1254 C1266 1.349 . S
C1255 C1253 1.327 . S
C1255 C1271 1.429 . S
C1255 H1277 0.950 . S
C1256 H1252 0.949 . S
C1256 C1264 1.574 . S
C1256 C1272 1.368 . S
H1257 C1265 0.950 . S
H1258 C1263 0.950 . S
H1259 C1264 0.949 . S
H1260 C1266 0.950 . S
H1261 C1267 0.950 . S
H1262 C1268 0.949 . S
C1263 H1258 0.950 . S
C1263 C1265 1.327 . S
C1263 C1269 1.429 . S
C1264 C1256 1.574 . S
C1264 H1259 0.949 . S
C1264 C1270 1.368 . S
C1265 C1249 1.349 . S
C1265 H1257 0.950 . S
C1265 C1263 1.327 . S
C1266 C1254 1.349 . S
C1266 H1260 0.950 . S
C1266 C1267 1.327 . S
C1267 H1261 0.950 . S
C1267 C1266 1.327 . S
C1267 C1271 1.429 . S
C1268 C1251 1.574 . S
C1268 H1262 0.949 . S
C1268 C1272 1.368 . S
C1269 C1250 1.429 . S
C1269 C1263 1.429 . S
C1269 C1270 1.523 . S
C1270 C1251 1.368 . S
C1270 C1264 1.368 . S
C1270 C1269 1.523 . S
C1271 C1255 1.429 . S
C1271 C1267 1.429 . S
C1271 C1272 1.523 . S
C1272 C1256 1.368 . S
C1272 C1268 1.368 . S
C1272 C1271 1.523 . S
H1273 C1248 0.950 . S
H1274 C1250 0.950 . S
H1275 C1251 0.949 . S
H1276 C1253 0.950 . S
H1277 C1255 0.950 . S
C1278 C1279 1.349 . S
C1278 C1280 1.327 . S
C1278 H1303 0.950 . S
C1279 C1278 1.349 . S
C1279 C1295 1.349 . S
C1280 C1278 1.327 . S
C1280 C1299 1.429 . S
C1280 H1304 0.950 . S
C1281 C1298 1.574 . S
C1281 C1300 1.368 . S
C1281 H1305 0.949 . S
H1282 C1286 0.949 . S
C1283 C1284 1.349 . S
C1283 C1285 1.327 . S
C1283 H1306 0.950 . S
C1284 C1283 1.349 . S
C1284 C1296 1.349 . S
C1285 C1283 1.327 . S
C1285 C1301 1.429 . S
C1285 H1307 0.950 . S
C1286 H1282 0.949 . S
C1286 C1294 1.574 . S
C1286 C1302 1.368 . S
H1287 C1295 0.950 . S
H1288 C1293 0.950 . S
H1289 C1294 0.949 . S
H1290 C1296 0.950 . S
H1291 C1297 0.950 . S
H1292 C1298 0.949 . S
C1293 H1288 0.950 . S
C1293 C1295 1.327 . S
C1293 C1299 1.429 . S
C1294 C1286 1.574 . S
C1294 H1289 0.949 . S
C1294 C1300 1.368 . S
C1295 C1279 1.349 . S
C1295 H1287 0.950 . S
C1295 C1293 1.327 . S
C1296 C1284 1.349 . S
C1296 H1290 0.950 . S
C1296 C1297 1.327 . S
C1297 H1291 0.950 . S
C1297 C1296 1.327 . S
C1297 C1301 1.429 . S
C1298 C1281 1.574 . S
C1298 H1292 0.949 . S
C1298 C1302 1.368 . S
C1299 C1280 1.429 . S
C1299 C1293 1.429 . S
C1299 C1300 1.523 . S
C1300 C1281 1.368 . S
C1300 C1294 1.368 . S
C1300 C1299 1.523 . S
C1301 C1285 1.429 . S
C1301 C1297 1.429 . S
C1301 C1302 1.523 . S
C1302 C1286 1.368 . S
C1302 C1298 1.368 . S
C1302 C1301 1.523 . S
H1303 C1278 0.950 . S
H1304 C1280 0.950 . S
H1305 C1281 0.949 . S
H1306 C1283 0.950 . S
H1307 C1285 0.950 . S
C1308 C1309 1.349 . S
C1308 C1310 1.327 . S
C1308 H1333 0.950 . S
C1309 C1308 1.349 . S
C1309 C1325 1.349 . S
C1310 C1308 1.327 . S
C1310 C1329 1.429 . S
C1310 H1334 0.950 . S
C1311 C1328 1.574 . S
C1311 C1330 1.368 . S
C1311 H1335 0.949 . S
H1312 C1316 0.949 . S
C1313 C1314 1.349 . S
C1313 C1315 1.327 . S
C1313 H1336 0.950 . S
C1314 C1313 1.349 . S
C1314 C1326 1.349 . S
C1315 C1313 1.327 . S
C1315 C1331 1.429 . S
C1315 H1337 0.950 . S
C1316 H1312 0.949 . S
C1316 C1324 1.574 . S
C1316 C1332 1.368 . S
H1317 C1325 0.950 . S
H1318 C1323 0.950 . S
H1319 C1324 0.949 . S
H1320 C1326 0.950 . S
H1321 C1327 0.950 . S
H1322 C1328 0.949 . S
C1323 H1318 0.950 . S
C1323 C1325 1.327 . S
C1323 C1329 1.429 . S
C1324 C1316 1.574 . S
C1324 H1319 0.949 . S
C1324 C1330 1.368 . S
C1325 C1309 1.349 . S
C1325 H1317 0.950 . S
C1325 C1323 1.327 . S
C1326 C1314 1.349 . S
C1326 H1320 0.950 . S
C1326 C1327 1.327 . S
C1327 H1321 0.950 . S
C1327 C1326 1.327 . S
C1327 C1331 1.429 . S
C1328 C1311 1.574 . S
C1328 H1322 0.949 . S
C1328 C1332 1.368 . S
C1329 C1310 1.429 . S
C1329 C1323 1.429 . S
C1329 C1330 1.523 . S
C1330 C1311 1.368 . S
C1330 C1324 1.368 . S
C1330 C1329 1.523 . S
C1331 C1315 1.429 . S
C1331 C1327 1.429 . S
C1331 C1332 1.523 . S
C1332 C1316 1.368 . S
C1332 C1328 1.368 . S
C1332 C1331 1.523 . S
H1333 C1308 0.950 . S
H1334 C1310 0.950 . S
H1335 C1311 0.949 . S
H1336 C1313 0.950 . S
H1337 C1315 0.950 . S
C1338 C1339 1.349 . S
C1338 C1340 1.327 . S
C1338 H1363 0.950 . S
C1339 C1338 1.349 . S
C1339 C1355 1.349 . S
C1340 C1338 1.327 . S
C1340 C1359 1.429 . S
C1340 H1364 0.950 . S
C1341 C1358 1.574 . S
C1341 C1360 1.368 . S
C1341 H1365 0.949 . S
H1342 C1346 0.949 . S
C1343 C1344 1.349 . S
C1343 C1345 1.327 . S
C1343 H1366 0.950 . S
C1344 C1343 1.349 . S
C1344 C1356 1.349 . S
C1345 C1343 1.327 . S
C1345 C1361 1.429 . S
C1345 H1367 0.950 . S
C1346 H1342 0.949 . S
C1346 C1354 1.574 . S
C1346 C1362 1.368 . S
H1347 C1355 0.950 . S
H1348 C1353 0.950 . S
H1349 C1354 0.949 . S
H1350 C1356 0.950 . S
H1351 C1357 0.950 . S
H1352 C1358 0.949 . S
C1353 H1348 0.950 . S
C1353 C1355 1.327 . S
C1353 C1359 1.429 . S
C1354 C1346 1.574 . S
C1354 H1349 0.949 . S
C1354 C1360 1.368 . S
C1355 C1339 1.349 . S
C1355 H1347 0.950 . S
C1355 C1353 1.327 . S
C1356 C1344 1.349 . S
C1356 H1350 0.950 . S
C1356 C1357 1.327 . S
C1357 H1351 0.950 . S
C1357 C1356 1.327 . S
C1357 C1361 1.429 . S
C1358 C1341 1.574 . S
C1358 H1352 0.949 . S
C1358 C1362 1.368 . S
C1359 C1340 1.429 . S
C1359 C1353 1.429 . S
C1359 C1360 1.523 . S
C1360 C1341 1.368 . S
C1360 C1354 1.368 . S
C1360 C1359 1.523 . S
C1361 C1345 1.429 . S
C1361 C1357 1.429 . S
C1361 C1362 1.523 . S
C1362 C1346 1.368 . S
C1362 C1358 1.368 . S
C1362 C1361 1.523 . S
H1363 C1338 0.950 . S
H1364 C1340 0.950 . S
H1365 C1341 0.949 . S
H1366 C1343 0.950 . S
H1367 C1345 0.950 . S
C1368 C1369 1.349 . S
C1368 C1370 1.327 . S
C1368 H1393 0.950 . S
C1369 C1368 1.349 . S
C1369 C1385 1.349 . S
C1370 C1368 1.327 . S
C1370 C1389 1.429 . S
C1370 H1394 0.950 . S
C1371 C1388 1.574 . S
C1371 C1390 1.368 . S
C1371 H1395 0.949 . S
H1372 C1376 0.949 . S
C1373 C1374 1.349 . S
C1373 C1375 1.327 . S
C1373 H1396 0.950 . S
C1374 C1373 1.349 . S
C1374 C1386 1.349 . S
C1375 C1373 1.327 . S
C1375 C1391 1.429 . S
C1375 H1397 0.950 . S
C1376 H1372 0.949 . S
C1376 C1384 1.574 . S
C1376 C1392 1.368 . S
H1377 C1385 0.950 . S
H1378 C1383 0.950 . S
H1379 C1384 0.949 . S
H1380 C1386 0.950 . S
H1381 C1387 0.950 . S
H1382 C1388 0.949 . S
C1383 H1378 0.950 . S
C1383 C1385 1.327 . S
C1383 C1389 1.429 . S
C1384 C1376 1.574 . S
C1384 H1379 0.949 . S
C1384 C1390 1.368 . S
C1385 C1369 1.349 . S
C1385 H1377 0.950 . S
C1385 C1383 1.327 . S
C1386 C1374 1.349 . S
C1386 H1380 0.950 . S
C1386 C1387 1.327 . S
C1387 H1381 0.950 . S
C1387 C1386 1.327 . S
C1387 C1391 1.429 . S
C1388 C1371 1.574 . S
C1388 H1382 0.949 . S
C1388 C1392 1.368 . S
C1389 C1370 1.429 . S
C1389 C1383 1.429 . S
C1389 C1390 1.523 . S
C1390 C1371 1.368 . S
C1390 C1384 1.368 . S
C1390 C1389 1.523 . S
C1391 C1375 1.429 . S
C1391 C1387 1.429 . S
C1391 C1392 1.523 . S
C1392 C1376 1.368 . S
C1392 C1388 1.368 . S
C1392 C1391 1.523 . S
H1393 C1368 0.950 . S
H1394 C1370 0.950 . S
H1395 C1371 0.949 . S
H1396 C1373 0.950 . S
H1397 C1375 0.950 . S
C1398 C1399 1.349 . S
C1398 C1400 1.327 . S
C1398 H1423 0.950 . S
C1399 C1398 1.349 . S
C1399 C1415 1.349 . S
C1400 C1398 1.327 . S
C1400 C1419 1.429 . S
C1400 H1424 0.950 . S
C1401 C1418 1.574 . S
C1401 C1420 1.368 . S
C1401 H1425 0.949 . S
H1402 C1406 0.949 . S
C1403 C1404 1.349 . S
C1403 C1405 1.327 . S
C1403 H1426 0.950 . S
C1404 C1403 1.349 . S
C1404 C1416 1.349 . S
C1405 C1403 1.327 . S
C1405 C1421 1.429 . S
C1405 H1427 0.950 . S
C1406 H1402 0.949 . S
C1406 C1414 1.574 . S
C1406 C1422 1.368 . S
H1407 C1415 0.950 . S
H1408 C1413 0.950 . S
H1409 C1414 0.949 . S
H1410 C1416 0.950 . S
H1411 C1417 0.950 . S
H1412 C1418 0.949 . S
C1413 H1408 0.950 . S
C1413 C1415 1.327 . S
C1413 C1419 1.429 . S
C1414 C1406 1.574 . S
C1414 H1409 0.949 . S
C1414 C1420 1.368 . S
C1415 C1399 1.349 . S
C1415 H1407 0.950 . S
C1415 C1413 1.327 . S
C1416 C1404 1.349 . S
C1416 H1410 0.950 . S
C1416 C1417 1.327 . S
C1417 H1411 0.950 . S
C1417 C1416 1.327 . S
C1417 C1421 1.429 . S
C1418 C1401 1.574 . S
C1418 H1412 0.949 . S
C1418 C1422 1.368 . S
C1419 C1400 1.429 . S
C1419 C1413 1.429 . S
C1419 C1420 1.523 . S
C1420 C1401 1.368 . S
C1420 C1414 1.368 . S
C1420 C1419 1.523 . S
C1421 C1405 1.429 . S
C1421 C1417 1.429 . S
C1421 C1422 1.523 . S
C1422 C1406 1.368 . S
C1422 C1418 1.368 . S
C1422 C1421 1.523 . S
H1423 C1398 0.950 . S
H1424 C1400 0.950 . S
H1425 C1401 0.949 . S
H1426 C1403 0.950 . S
H1427 C1405 0.950 . S
C1428 C1429 1.349 . S
C1428 C1430 1.327 . S
C1428 H1453 0.950 . S
C1429 C1428 1.349 . S
C1429 C1445 1.349 . S
C1430 C1428 1.327 . S
C1430 C1449 1.429 . S
C1430 H1454 0.950 . S
C1431 C1448 1.574 . S
C1431 C1450 1.368 . S
C1431 H1455 0.949 . S
H1432 C1436 0.949 . S
C1433 C1434 1.349 . S
C1433 C1435 1.327 . S
C1433 H1456 0.950 . S
C1434 C1433 1.349 . S
C1434 C1446 1.349 . S
C1435 C1433 1.327 . S
C1435 C1451 1.429 . S
C1435 H1457 0.950 . S
C1436 H1432 0.949 . S
C1436 C1444 1.574 . S
C1436 C1452 1.368 . S
H1437 C1445 0.950 . S
H1438 C1443 0.950 . S
H1439 C1444 0.949 . S
H1440 C1446 0.950 . S
H1441 C1447 0.950 . S
H1442 C1448 0.949 . S
C1443 H1438 0.950 . S
C1443 C1445 1.327 . S
C1443 C1449 1.429 . S
C1444 C1436 1.574 . S
C1444 H1439 0.949 . S
C1444 C1450 1.368 . S
C1445 C1429 1.349 . S
C1445 H1437 0.950 . S
C1445 C1443 1.327 . S
C1446 C1434 1.349 . S
C1446 H1440 0.950 . S
C1446 C1447 1.327 . S
C1447 H1441 0.950 . S
C1447 C1446 1.327 . S
C1447 C1451 1.429 . S
C1448 C1431 1.574 . S
C1448 H1442 0.949 . S
C1448 C1452 1.368 . S
C1449 C1430 1.429 . S
C1449 C1443 1.429 . S
C1449 C1450 1.523 . S
C1450 C1431 1.368 . S
C1450 C1444 1.368 . S
C1450 C1449 1.523 . S
C1451 C1435 1.429 . S
C1451 C1447 1.429 . S
C1451 C1452 1.523 . S
C1452 C1436 1.368 . S
C1452 C1448 1.368 . S
C1452 C1451 1.523 . S
H1453 C1428 0.950 . S
H1454 C1430 0.950 . S
H1455 C1431 0.949 . S
H1456 C1433 0.950 . S
H1457 C1435 0.950 . S
C1458 C1459 1.349 . S
C1458 C1460 1.327 . S
C1458 H1483 0.950 . S
C1459 C1458 1.349 . S
C1459 C1475 1.349 . S
C1460 C1458 1.327 . S
C1460 C1479 1.429 . S
C1460 H1484 0.950 . S
C1461 C1478 1.574 . S
C1461 C1480 1.368 . S
C1461 H1485 0.949 . S
H1462 C1466 0.949 . S
C1463 C1464 1.349 . S
C1463 C1465 1.327 1_556 S
C1463 H1486 0.950 . S
C1464 C1463 1.349 . S
C1464 C1476 1.349 . S
C1465 C1463 1.327 1_554 S
C1465 C1481 1.429 . S
C1465 H1487 0.950 . S
C1466 H1462 0.949 . S
C1466 C1474 1.574 . S
C1466 C1482 1.368 . S
H1467 C1475 0.950 . S
H1468 C1473 0.950 . S
H1469 C1474 0.949 . S
H1470 C1476 0.950 . S
H1471 C1477 0.950 . S
H1472 C1478 0.949 . S
C1473 H1468 0.950 . S
C1473 C1475 1.327 . S
C1473 C1479 1.429 . S
C1474 C1466 1.574 . S
C1474 H1469 0.949 . S
C1474 C1480 1.368 . S
C1475 C1459 1.349 . S
C1475 H1467 0.950 . S
C1475 C1473 1.327 . S
C1476 C1464 1.349 . S
C1476 H1470 0.950 . S
C1476 C1477 1.327 1_556 S
C1477 H1471 0.950 . S
C1477 C1476 1.327 1_554 S
C1477 C1481 1.429 . S
C1478 C1461 1.574 . S
C1478 H1472 0.949 . S
C1478 C1482 1.368 . S
C1479 C1460 1.429 . S
C1479 C1473 1.429 . S
C1479 C1480 1.523 . S
C1480 C1461 1.368 . S
C1480 C1474 1.368 . S
C1480 C1479 1.523 . S
C1481 C1465 1.429 . S
C1481 C1477 1.429 . S
C1481 C1482 1.523 . S
C1482 C1466 1.368 . S
C1482 C1478 1.368 . S
C1482 C1481 1.523 . S
H1483 C1458 0.950 . S
H1484 C1460 0.950 . S
H1485 C1461 0.949 . S
H1486 C1463 0.950 . S
H1487 C1465 0.950 . S
C1488 C1489 1.349 . S
C1488 C1490 1.327 1_556 S
C1488 H1513 0.950 . S
C1489 C1488 1.349 . S
C1489 C1505 1.349 . S
C1490 C1488 1.327 1_554 S
C1490 C1509 1.429 . S
C1490 H1514 0.950 . S
C1491 C1508 1.574 . S
C1491 C1510 1.368 . S
C1491 H1515 0.949 . S
H1492 C1496 0.949 . S
C1493 C1494 1.349 . S
C1493 C1495 1.327 . S
C1493 H1516 0.950 . S
C1494 C1493 1.349 . S
C1494 C1506 1.349 . S
C1495 C1493 1.327 . S
C1495 C1511 1.429 . S
C1495 H1517 0.950 . S
C1496 H1492 0.949 . S
C1496 C1504 1.574 . S
C1496 C1512 1.368 . S
H1497 C1505 0.950 . S
H1498 C1503 0.950 . S
H1499 C1504 0.949 . S
H1500 C1506 0.950 . S
H1501 C1507 0.950 . S
H1502 C1508 0.949 . S
C1503 H1498 0.950 . S
C1503 C1505 1.327 1_554 S
C1503 C1509 1.429 . S
C1504 C1496 1.574 . S
C1504 H1499 0.949 . S
C1504 C1510 1.368 . S
C1505 C1489 1.349 . S
C1505 H1497 0.950 . S
C1505 C1503 1.327 1_556 S
C1506 C1494 1.349 . S
C1506 H1500 0.950 . S
C1506 C1507 1.327 . S
C1507 H1501 0.950 . S
C1507 C1506 1.327 . S
C1507 C1511 1.429 . S
C1508 C1491 1.574 . S
C1508 H1502 0.949 . S
C1508 C1512 1.368 . S
C1509 C1490 1.429 . S
C1509 C1503 1.429 . S
C1509 C1510 1.523 . S
C1510 C1491 1.368 . S
C1510 C1504 1.368 . S
C1510 C1509 1.523 . S
C1511 C1495 1.429 . S
C1511 C1507 1.429 . S
C1511 C1512 1.523 . S
C1512 C1496 1.368 . S
C1512 C1508 1.368 . S
C1512 C1511 1.523 . S
H1513 C1488 0.950 . S
H1514 C1490 0.950 . S
H1515 C1491 0.949 . S
H1516 C1493 0.950 . S
H1517 C1495 0.950 . S
C1518 C1519 1.349 . S
C1518 C1520 1.327 . S
C1518 H1543 0.950 . S
C1519 C1518 1.349 . S
C1519 C1535 1.349 . S
C1520 C1518 1.327 . S
C1520 C1539 1.429 . S
C1520 H1544 0.950 . S
C1521 C1538 1.574 . S
C1521 C1540 1.368 . S
C1521 H1545 0.949 . S
H1522 C1526 0.949 . S
C1523 C1524 1.349 . S
C1523 C1525 1.327 1_556 S
C1523 H1546 0.950 . S
C1524 C1523 1.349 . S
C1524 C1536 1.349 . S
C1525 C1523 1.327 1_554 S
C1525 C1541 1.429 . S
C1525 H1547 0.950 . S
C1526 H1522 0.949 . S
C1526 C1534 1.574 . S
C1526 C1542 1.368 . S
H1527 C1535 0.950 . S
H1528 C1533 0.950 . S
H1529 C1534 0.949 . S
H1530 C1536 0.950 . S
H1531 C1537 0.950 . S
H1532 C1538 0.949 . S
C1533 H1528 0.950 . S
C1533 C1535 1.327 . S
C1533 C1539 1.429 . S
C1534 C1526 1.574 . S
C1534 H1529 0.949 . S
C1534 C1540 1.368 . S
C1535 C1519 1.349 . S
C1535 H1527 0.950 . S
C1535 C1533 1.327 . S
C1536 C1524 1.349 . S
C1536 H1530 0.950 . S
C1536 C1537 1.327 1_556 S
C1537 H1531 0.950 . S
C1537 C1536 1.327 1_554 S
C1537 C1541 1.429 . S
C1538 C1521 1.574 . S
C1538 H1532 0.949 . S
C1538 C1542 1.368 . S
C1539 C1520 1.429 . S
C1539 C1533 1.429 . S
C1539 C1540 1.523 . S
C1540 C1521 1.368 . S
C1540 C1534 1.368 . S
C1540 C1539 1.523 . S
C1541 C1525 1.429 . S
C1541 C1537 1.429 . S
C1541 C1542 1.523 . S
C1542 C1526 1.368 . S
C1542 C1538 1.368 . S
C1542 C1541 1.523 . S
H1543 C1518 0.950 . S
H1544 C1520 0.950 . S
H1545 C1521 0.949 . S
H1546 C1523 0.950 . S
H1547 C1525 0.950 . S
C1548 C1549 1.349 . S
C1548 C1550 1.327 . S
C1548 H1573 0.950 . S
C1549 C1548 1.349 . S
C1549 C1565 1.349 . S
C1550 C1548 1.327 . S
C1550 C1569 1.429 . S
C1550 H1574 0.950 . S
C1551 C1568 1.574 . S
C1551 C1570 1.368 . S
C1551 H1575 0.949 . S
H1552 C1556 0.949 . S
C1553 C1554 1.349 . S
C1553 C1555 1.327 . S
C1553 H1576 0.950 . S
C1554 C1553 1.349 . S
C1554 C1566 1.349 . S
C1555 C1553 1.327 . S
C1555 C1571 1.429 . S
C1555 H1577 0.950 . S
C1556 H1552 0.949 . S
C1556 C1564 1.574 . S
C1556 C1572 1.368 . S
H1557 C1565 0.950 . S
H1558 C1563 0.950 . S
H1559 C1564 0.949 . S
H1560 C1566 0.950 . S
H1561 C1567 0.950 . S
H1562 C1568 0.949 . S
C1563 H1558 0.950 . S
C1563 C1565 1.327 . S
C1563 C1569 1.429 . S
C1564 C1556 1.574 . S
C1564 H1559 0.949 . S
C1564 C1570 1.368 . S
C1565 C1549 1.349 . S
C1565 H1557 0.950 . S
C1565 C1563 1.327 . S
C1566 C1554 1.349 . S
C1566 H1560 0.950 . S
C1566 C1567 1.327 . S
C1567 H1561 0.950 . S
C1567 C1566 1.327 . S
C1567 C1571 1.429 . S
C1568 C1551 1.574 . S
C1568 H1562 0.949 . S
C1568 C1572 1.368 . S
C1569 C1550 1.429 . S
C1569 C1563 1.429 . S
C1569 C1570 1.523 . S
C1570 C1551 1.368 . S
C1570 C1564 1.368 . S
C1570 C1569 1.523 . S
C1571 C1555 1.429 . S
C1571 C1567 1.429 . S
C1571 C1572 1.523 . S
C1572 C1556 1.368 . S
C1572 C1568 1.368 . S
C1572 C1571 1.523 . S
H1573 C1548 0.950 . S
H1574 C1550 0.950 . S
H1575 C1551 0.949 . S
H1576 C1553 0.950 . S
H1577 C1555 0.950 . S
C1578 C1579 1.349 . S
C1578 C1580 1.327 . S
C1578 H1603 0.950 . S
C1579 C1578 1.349 . S
C1579 C1595 1.349 . S
C1580 C1578 1.327 . S
C1580 C1599 1.429 . S
C1580 H1604 0.950 . S
C1581 C1598 1.574 1_565 S
C1581 C1600 1.368 . S
C1581 H1605 0.949 . S
H1582 C1586 0.949 . S
C1583 C1584 1.349 . S
C1583 C1585 1.327 . S
C1583 H1606 0.950 . S
C1584 C1583 1.349 . S
C1584 C1596 1.349 . S
C1585 C1583 1.327 . S
C1585 C1601 1.429 . S
C1585 H1607 0.950 . S
C1586 H1582 0.949 . S
C1586 C1594 1.574 1_545 S
C1586 C1602 1.368 . S
H1587 C1595 0.950 . S
H1588 C1593 0.950 . S
H1589 C1594 0.949 . S
H1590 C1596 0.950 . S
H1591 C1597 0.950 . S
H1592 C1598 0.949 . S
C1593 H1588 0.950 . S
C1593 C1595 1.327 . S
C1593 C1599 1.429 . S
C1594 C1586 1.574 1_565 S
C1594 H1589 0.949 . S
C1594 C1600 1.368 . S
C1595 C1579 1.349 . S
C1595 H1587 0.950 . S
C1595 C1593 1.327 . S
C1596 C1584 1.349 . S
C1596 H1590 0.950 . S
C1596 C1597 1.327 . S
C1597 H1591 0.950 . S
C1597 C1596 1.327 . S
C1597 C1601 1.429 . S
C1598 C1581 1.574 1_545 S
C1598 H1592 0.949 . S
C1598 C1602 1.368 . S
C1599 C1580 1.429 . S
C1599 C1593 1.429 . S
C1599 C1600 1.523 . S
C1600 C1581 1.368 . S
C1600 C1594 1.368 . S
C1600 C1599 1.523 . S
C1601 C1585 1.429 . S
C1601 C1597 1.429 . S
C1601 C1602 1.523 . S
C1602 C1586 1.368 . S
C1602 C1598 1.368 . S
C1602 C1601 1.523 . S
H1603 C1578 0.950 . S
H1604 C1580 0.950 . S
H1605 C1581 0.949 . S
H1606 C1583 0.950 . S
H1607 C1585 0.950 . S
C1608 C1609 1.349 . S
C1608 C1610 1.327 . S
C1608 H1633 0.950 . S
C1609 C1608 1.349 . S
C1609 C1625 1.349 . S
C1610 C1608 1.327 . S
C1610 C1629 1.429 . S
C1610 H1634 0.950 . S
C1611 C1628 1.574 1_655 S
C1611 C1630 1.368 . S
C1611 H1635 0.949 . S
H1612 C1616 0.949 . S
C1613 C1614 1.349 . S
C1613 C1615 1.327 . S
C1613 H1636 0.950 . S
C1614 C1613 1.349 . S
C1614 C1626 1.349 . S
C1615 C1613 1.327 . S
C1615 C1631 1.429 . S
C1615 H1637 0.950 . S
C1616 H1612 0.949 . S
C1616 C1624 1.574 1_455 S
C1616 C1632 1.368 . S
H1617 C1625 0.950 . S
H1618 C1623 0.950 . S
H1619 C1624 0.949 . S
H1620 C1626 0.950 . S
H1621 C1627 0.950 . S
H1622 C1628 0.949 . S
C1623 H1618 0.950 . S
C1623 C1625 1.327 . S
C1623 C1629 1.429 . S
C1624 C1616 1.574 1_655 S
C1624 H1619 0.949 . S
C1624 C1630 1.368 . S
C1625 C1609 1.349 . S
C1625 H1617 0.950 . S
C1625 C1623 1.327 . S
C1626 C1614 1.349 . S
C1626 H1620 0.950 . S
C1626 C1627 1.327 . S
C1627 H1621 0.950 . S
C1627 C1626 1.327 . S
C1627 C1631 1.429 . S
C1628 C1611 1.574 1_455 S
C1628 H1622 0.949 . S
C1628 C1632 1.368 . S
C1629 C1610 1.429 . S
C1629 C1623 1.429 . S
C1629 C1630 1.523 . S
C1630 C1611 1.368 . S
C1630 C1624 1.368 . S
C1630 C1629 1.523 . S
C1631 C1615 1.429 . S
C1631 C1627 1.429 . S
C1631 C1632 1.523 . S
C1632 C1616 1.368 . S
C1632 C1628 1.368 . S
C1632 C1631 1.523 . S
H1633 C1608 0.950 . S
H1634 C1610 0.950 . S
H1635 C1611 0.949 . S
H1636 C1613 0.950 . S
H1637 C1615 0.950 . S
C1638 C1639 1.349 . S
C1638 C1640 1.327 . S
C1638 H1663 0.950 . S
C1639 C1638 1.349 . S
C1639 C1655 1.349 . S
C1640 C1638 1.327 . S
C1640 C1659 1.429 . S
C1640 H1664 0.950 . S
C1641 C1658 1.574 . S
C1641 C1660 1.368 . S
C1641 H1665 0.949 . S
H1642 C1646 0.949 . S
C1643 C1644 1.349 . S
C1643 C1645 1.327 . S
C1643 H1666 0.950 . S
C1644 C1643 1.349 . S
C1644 C1656 1.349 . S
C1645 C1643 1.327 . S
C1645 C1661 1.429 . S
C1645 H1667 0.950 . S
C1646 H1642 0.949 . S
C1646 C1654 1.574 . S
C1646 C1662 1.368 . S
H1647 C1655 0.950 . S
H1648 C1653 0.950 . S
H1649 C1654 0.949 . S
H1650 C1656 0.950 . S
H1651 C1657 0.950 . S
H1652 C1658 0.949 . S
C1653 H1648 0.950 . S
C1653 C1655 1.327 . S
C1653 C1659 1.429 . S
C1654 C1646 1.574 . S
C1654 H1649 0.949 . S
C1654 C1660 1.368 . S
C1655 C1639 1.349 . S
C1655 H1647 0.950 . S
C1655 C1653 1.327 . S
C1656 C1644 1.349 . S
C1656 H1650 0.950 . S
C1656 C1657 1.327 . S
C1657 H1651 0.950 . S
C1657 C1656 1.327 . S
C1657 C1661 1.429 . S
C1658 C1641 1.574 . S
C1658 H1652 0.949 . S
C1658 C1662 1.368 . S
C1659 C1640 1.429 . S
C1659 C1653 1.429 . S
C1659 C1660 1.523 . S
C1660 C1641 1.368 . S
C1660 C1654 1.368 . S
C1660 C1659 1.523 . S
C1661 C1645 1.429 . S
C1661 C1657 1.429 . S
C1661 C1662 1.523 . S
C1662 C1646 1.368 . S
C1662 C1658 1.368 . S
C1662 C1661 1.523 . S
H1663 C1638 0.950 . S
H1664 C1640 0.950 . S
H1665 C1641 0.949 . S
H1666 C1643 0.950 . S
H1667 C1645 0.950 . S
C1668 C1669 1.349 . S
C1668 C1670 1.327 . S
C1668 H1693 0.950 . S
C1669 C1668 1.349 . S
C1669 C1685 1.349 . S
C1670 C1668 1.327 . S
C1670 C1689 1.429 . S
C1670 H1694 0.950 . S
C1671 C1688 1.574 1_545 S
C1671 C1690 1.368 . S
C1671 H1695 0.949 . S
H1672 C1676 0.949 . S
C1673 C1674 1.349 . S
C1673 C1675 1.327 . S
C1673 H1696 0.950 . S
C1674 C1673 1.349 . S
C1674 C1686 1.349 . S
C1675 C1673 1.327 . S
C1675 C1691 1.429 . S
C1675 H1697 0.950 . S
C1676 H1672 0.949 . S
C1676 C1684 1.574 1_565 S
C1676 C1692 1.368 . S
H1677 C1685 0.950 . S
H1678 C1683 0.950 . S
H1679 C1684 0.949 . S
H1680 C1686 0.950 . S
H1681 C1687 0.950 . S
H1682 C1688 0.949 . S
C1683 H1678 0.950 . S
C1683 C1685 1.327 . S
C1683 C1689 1.429 . S
C1684 C1676 1.574 1_545 S
C1684 H1679 0.949 . S
C1684 C1690 1.368 . S
C1685 C1669 1.349 . S
C1685 H1677 0.950 . S
C1685 C1683 1.327 . S
C1686 C1674 1.349 . S
C1686 H1680 0.950 . S
C1686 C1687 1.327 . S
C1687 H1681 0.950 . S
C1687 C1686 1.327 . S
C1687 C1691 1.429 . S
C1688 C1671 1.574 1_565 S
C1688 H1682 0.949 . S
C1688 C1692 1.368 . S
C1689 C1670 1.429 . S
C1689 C1683 1.429 . S
C1689 C1690 1.523 . S
C1690 C1671 1.368 . S
C1690 C1684 1.368 . S
C1690 C1689 1.523 . S
C1691 C1675 1.429 . S
C1691 C1687 1.429 . S
C1691 C1692 1.523 . S
C1692 C1676 1.368 . S
C1692 C1688 1.368 . S
C1692 C1691 1.523 . S
H1693 C1668 0.950 . S
H1694 C1670 0.950 . S
H1695 C1671 0.949 . S
H1696 C1673 0.950 . S
H1697 C1675 0.950 . S
C1698 C1699 1.349 . S
C1698 C1700 1.327 . S
C1698 H1723 0.950 . S
C1699 C1698 1.349 . S
C1699 C1715 1.349 . S
C1700 C1698 1.327 . S
C1700 C1719 1.429 . S
C1700 H1724 0.950 . S
C1701 C1718 1.574 1_655 S
C1701 C1720 1.368 . S
C1701 H1725 0.949 . S
H1702 C1706 0.949 . S
C1703 C1704 1.349 . S
C1703 C1705 1.327 . S
C1703 H1726 0.950 . S
C1704 C1703 1.349 . S
C1704 C1716 1.349 . S
C1705 C1703 1.327 . S
C1705 C1721 1.429 . S
C1705 H1727 0.950 . S
C1706 H1702 0.949 . S
C1706 C1714 1.574 1_455 S
C1706 C1722 1.368 . S
H1707 C1715 0.950 . S
H1708 C1713 0.950 . S
H1709 C1714 0.949 . S
H1710 C1716 0.950 . S
H1711 C1717 0.950 . S
H1712 C1718 0.949 . S
C1713 H1708 0.950 . S
C1713 C1715 1.327 . S
C1713 C1719 1.429 . S
C1714 C1706 1.574 1_655 S
C1714 H1709 0.949 . S
C1714 C1720 1.368 . S
C1715 C1699 1.349 . S
C1715 H1707 0.950 . S
C1715 C1713 1.327 . S
C1716 C1704 1.349 . S
C1716 H1710 0.950 . S
C1716 C1717 1.327 . S
C1717 H1711 0.950 . S
C1717 C1716 1.327 . S
C1717 C1721 1.429 . S
C1718 C1701 1.574 1_455 S
C1718 H1712 0.949 . S
C1718 C1722 1.368 . S
C1719 C1700 1.429 . S
C1719 C1713 1.429 . S
C1719 C1720 1.523 . S
C1720 C1701 1.368 . S
C1720 C1714 1.368 . S
C1720 C1719 1.523 . S
C1721 C1705 1.429 . S
C1721 C1717 1.429 . S
C1721 C1722 1.523 . S
C1722 C1706 1.368 . S
C1722 C1718 1.368 . S
C1722 C1721 1.523 . S
H1723 C1698 0.950 . S
H1724 C1700 0.950 . S
H1725 C1701 0.949 . S
H1726 C1703 0.950 . S
H1727 C1705 0.950 . S
C1728 C1729 1.349 . S
C1728 C1730 1.327 . S
C1728 H1753 0.950 . S
C1729 C1728 1.349 . S
C1729 C1745 1.349 . S
C1730 C1728 1.327 . S
C1730 C1749 1.429 . S
C1730 H1754 0.950 . S
C1731 C1748 1.574 . S
C1731 C1750 1.368 . S
C1731 H1755 0.949 . S
H1732 C1736 0.949 . S
C1733 C1734 1.349 . S
C1733 C1735 1.327 . S
C1733 H1756 0.950 . S
C1734 C1733 1.349 . S
C1734 C1746 1.349 . S
C1735 C1733 1.327 . S
C1735 C1751 1.429 . S
C1735 H1757 0.950 . S
C1736 H1732 0.949 . S
C1736 C1744 1.574 . S
C1736 C1752 1.368 . S
H1737 C1745 0.950 . S
H1738 C1743 0.950 . S
H1739 C1744 0.949 . S
H1740 C1746 0.950 . S
H1741 C1747 0.950 . S
H1742 C1748 0.949 . S
C1743 H1738 0.950 . S
C1743 C1745 1.327 . S
C1743 C1749 1.429 . S
C1744 C1736 1.574 . S
C1744 H1739 0.949 . S
C1744 C1750 1.368 . S
C1745 C1729 1.349 . S
C1745 H1737 0.950 . S
C1745 C1743 1.327 . S
C1746 C1734 1.349 . S
C1746 H1740 0.950 . S
C1746 C1747 1.327 . S
C1747 H1741 0.950 . S
C1747 C1746 1.327 . S
C1747 C1751 1.429 . S
C1748 C1731 1.574 . S
C1748 H1742 0.949 . S
C1748 C1752 1.368 . S
C1749 C1730 1.429 . S
C1749 C1743 1.429 . S
C1749 C1750 1.523 . S
C1750 C1731 1.368 . S
C1750 C1744 1.368 . S
C1750 C1749 1.523 . S
C1751 C1735 1.429 . S
C1751 C1747 1.429 . S
C1751 C1752 1.523 . S
C1752 C1736 1.368 . S
C1752 C1748 1.368 . S
C1752 C1751 1.523 . S
H1753 C1728 0.950 . S
H1754 C1730 0.950 . S
H1755 C1731 0.949 . S
H1756 C1733 0.950 . S
H1757 C1735 0.950 . S
C1758 C1759 1.349 . S
C1758 C1760 1.327 . S
C1758 H1783 0.950 . S
C1759 C1758 1.349 . S
C1759 C1775 1.349 . S
C1760 C1758 1.327 . S
C1760 C1779 1.429 . S
C1760 H1784 0.950 . S
C1761 C1778 1.574 . S
C1761 C1780 1.368 . S
C1761 H1785 0.949 . S
H1762 C1766 0.949 . S
C1763 C1764 1.349 . S
C1763 C1765 1.327 . S
C1763 H1786 0.950 . S
C1764 C1763 1.349 . S
C1764 C1776 1.349 . S
C1765 C1763 1.327 . S
C1765 C1781 1.429 . S
C1765 H1787 0.950 . S
C1766 H1762 0.949 . S
C1766 C1774 1.574 . S
C1766 C1782 1.368 . S
H1767 C1775 0.950 . S
H1768 C1773 0.950 . S
H1769 C1774 0.949 . S
H1770 C1776 0.950 . S
H1771 C1777 0.950 . S
H1772 C1778 0.949 . S
C1773 H1768 0.950 . S
C1773 C1775 1.327 . S
C1773 C1779 1.429 . S
C1774 C1766 1.574 . S
C1774 H1769 0.949 . S
C1774 C1780 1.368 . S
C1775 C1759 1.349 . S
C1775 H1767 0.950 . S
C1775 C1773 1.327 . S
C1776 C1764 1.349 . S
C1776 H1770 0.950 . S
C1776 C1777 1.327 . S
C1777 H1771 0.950 . S
C1777 C1776 1.327 . S
C1777 C1781 1.429 . S
C1778 C1761 1.574 . S
C1778 H1772 0.949 . S
C1778 C1782 1.368 . S
C1779 C1760 1.429 . S
C1779 C1773 1.429 . S
C1779 C1780 1.523 . S
C1780 C1761 1.368 . S
C1780 C1774 1.368 . S
C1780 C1779 1.523 . S
C1781 C1765 1.429 . S
C1781 C1777 1.429 . S
C1781 C1782 1.523 . S
C1782 C1766 1.368 . S
C1782 C1778 1.368 . S
C1782 C1781 1.523 . S
H1783 C1758 0.950 . S
H1784 C1760 0.950 . S
H1785 C1761 0.949 . S
H1786 C1763 0.950 . S
H1787 C1765 0.950 . S
C1788 C1789 1.349 . S
C1788 C1790 1.327 . S
C1788 H1813 0.950 . S
C1789 C1788 1.349 . S
C1789 C1805 1.349 . S
C1790 C1788 1.327 . S
C1790 C1809 1.429 . S
C1790 H1814 0.950 . S
C1791 C1808 1.574 . S
C1791 C1810 1.368 . S
C1791 H1815 0.949 . S
H1792 C1796 0.949 . S
C1793 C1794 1.349 . S
C1793 C1795 1.327 . S
C1793 H1816 0.950 . S
C1794 C1793 1.349 . S
C1794 C1806 1.349 . S
C1795 C1793 1.327 . S
C1795 C1811 1.429 . S
C1795 H1817 0.950 . S
C1796 H1792 0.949 . S
C1796 C1804 1.574 . S
C1796 C1812 1.368 . S
H1797 C1805 0.950 . S
H1798 C1803 0.950 . S
H1799 C1804 0.949 . S
H1800 C1806 0.950 . S
H1801 C1807 0.950 . S
H1802 C1808 0.949 . S
C1803 H1798 0.950 . S
C1803 C1805 1.327 . S
C1803 C1809 1.429 . S
C1804 C1796 1.574 . S
C1804 H1799 0.949 . S
C1804 C1810 1.368 . S
C1805 C1789 1.349 . S
C1805 H1797 0.950 . S
C1805 C1803 1.327 . S
C1806 C1794 1.349 . S
C1806 H1800 0.950 . S
C1806 C1807 1.327 . S
C1807 H1801 0.950 . S
C1807 C1806 1.327 . S
C1807 C1811 1.429 . S
C1808 C1791 1.574 . S
C1808 H1802 0.949 . S
C1808 C1812 1.368 . S
C1809 C1790 1.429 . S
C1809 C1803 1.429 . S
C1809 C1810 1.523 . S
C1810 C1791 1.368 . S
C1810 C1804 1.368 . S
C1810 C1809 1.523 . S
C1811 C1795 1.429 . S
C1811 C1807 1.429 . S
C1811 C1812 1.523 . S
C1812 C1796 1.368 . S
C1812 C1808 1.368 . S
C1812 C1811 1.523 . S
H1813 C1788 0.950 . S
H1814 C1790 0.950 . S
H1815 C1791 0.949 . S
H1816 C1793 0.950 . S
H1817 C1795 0.950 . S
C1818 C1819 1.349 . S
C1818 C1820 1.327 . S
C1818 H1843 0.950 . S
C1819 C1818 1.349 . S
C1819 C1835 1.349 . S
C1820 C1818 1.327 . S
C1820 C1839 1.429 . S
C1820 H1844 0.950 . S
C1821 C1838 1.574 . S
C1821 C1840 1.368 . S
C1821 H1845 0.949 . S
H1822 C1826 0.949 . S
C1823 C1824 1.349 . S
C1823 C1825 1.327 . S
C1823 H1846 0.950 . S
C1824 C1823 1.349 . S
C1824 C1836 1.349 . S
C1825 C1823 1.327 . S
C1825 C1841 1.429 . S
C1825 H1847 0.950 . S
C1826 H1822 0.949 . S
C1826 C1834 1.574 . S
C1826 C1842 1.368 . S
H1827 C1835 0.950 . S
H1828 C1833 0.950 . S
H1829 C1834 0.949 . S
H1830 C1836 0.950 . S
H1831 C1837 0.950 . S
H1832 C1838 0.949 . S
C1833 H1828 0.950 . S
C1833 C1835 1.327 . S
C1833 C1839 1.429 . S
C1834 C1826 1.574 . S
C1834 H1829 0.949 . S
C1834 C1840 1.368 . S
C1835 C1819 1.349 . S
C1835 H1827 0.950 . S
C1835 C1833 1.327 . S
C1836 C1824 1.349 . S
C1836 H1830 0.950 . S
C1836 C1837 1.327 . S
C1837 H1831 0.950 . S
C1837 C1836 1.327 . S
C1837 C1841 1.429 . S
C1838 C1821 1.574 . S
C1838 H1832 0.949 . S
C1838 C1842 1.368 . S
C1839 C1820 1.429 . S
C1839 C1833 1.429 . S
C1839 C1840 1.523 . S
C1840 C1821 1.368 . S
C1840 C1834 1.368 . S
C1840 C1839 1.523 . S
C1841 C1825 1.429 . S
C1841 C1837 1.429 . S
C1841 C1842 1.523 . S
C1842 C1826 1.368 . S
C1842 C1838 1.368 . S
C1842 C1841 1.523 . S
H1843 C1818 0.950 . S
H1844 C1820 0.950 . S
H1845 C1821 0.949 . S
H1846 C1823 0.950 . S
H1847 C1825 0.950 . S
C1848 C1849 1.349 . S
C1848 C1850 1.327 . S
C1848 H1873 0.950 . S
C1849 C1848 1.349 . S
C1849 C1865 1.349 . S
C1850 C1848 1.327 . S
C1850 C1869 1.429 . S
C1850 H1874 0.950 . S
C1851 C1868 1.574 . S
C1851 C1870 1.368 . S
C1851 H1875 0.949 . S
H1852 C1856 0.949 . S
C1853 C1854 1.349 . S
C1853 C1855 1.327 . S
C1853 H1876 0.950 . S
C1854 C1853 1.349 . S
C1854 C1866 1.349 . S
C1855 C1853 1.327 . S
C1855 C1871 1.429 . S
C1855 H1877 0.950 . S
C1856 H1852 0.949 . S
C1856 C1864 1.574 . S
C1856 C1872 1.368 . S
H1857 C1865 0.950 . S
H1858 C1863 0.950 . S
H1859 C1864 0.949 . S
H1860 C1866 0.950 . S
H1861 C1867 0.950 . S
H1862 C1868 0.949 . S
C1863 H1858 0.950 . S
C1863 C1865 1.327 . S
C1863 C1869 1.429 . S
C1864 C1856 1.574 . S
C1864 H1859 0.949 . S
C1864 C1870 1.368 . S
C1865 C1849 1.349 . S
C1865 H1857 0.950 . S
C1865 C1863 1.327 . S
C1866 C1854 1.349 . S
C1866 H1860 0.950 . S
C1866 C1867 1.327 . S
C1867 H1861 0.950 . S
C1867 C1866 1.327 . S
C1867 C1871 1.429 . S
C1868 C1851 1.574 . S
C1868 H1862 0.949 . S
C1868 C1872 1.368 . S
C1869 C1850 1.429 . S
C1869 C1863 1.429 . S
C1869 C1870 1.523 . S
C1870 C1851 1.368 . S
C1870 C1864 1.368 . S
C1870 C1869 1.523 . S
C1871 C1855 1.429 . S
C1871 C1867 1.429 . S
C1871 C1872 1.523 . S
C1872 C1856 1.368 . S
C1872 C1868 1.368 . S
C1872 C1871 1.523 . S
H1873 C1848 0.950 . S
H1874 C1850 0.950 . S
H1875 C1851 0.949 . S
H1876 C1853 0.950 . S
H1877 C1855 0.950 . S
C1878 C1879 1.349 . S
C1878 C1880 1.327 . S
C1878 H1903 0.950 . S
C1879 C1878 1.349 . S
C1879 C1895 1.349 . S
C1880 C1878 1.327 . S
C1880 C1899 1.429 . S
C1880 H1904 0.950 . S
C1881 C1898 1.574 . S
C1881 C1900 1.368 . S
C1881 H1905 0.949 . S
H1882 C1886 0.949 . S
C1883 C1884 1.349 . S
C1883 C1885 1.327 . S
C1883 H1906 0.950 . S
C1884 C1883 1.349 . S
C1884 C1896 1.349 . S
C1885 C1883 1.327 . S
C1885 C1901 1.429 . S
C1885 H1907 0.950 . S
C1886 H1882 0.949 . S
C1886 C1894 1.574 . S
C1886 C1902 1.368 . S
H1887 C1895 0.950 . S
H1888 C1893 0.950 . S
H1889 C1894 0.949 . S
H1890 C1896 0.950 . S
H1891 C1897 0.950 . S
H1892 C1898 0.949 . S
C1893 H1888 0.950 . S
C1893 C1895 1.327 . S
C1893 C1899 1.429 . S
C1894 C1886 1.574 . S
C1894 H1889 0.949 . S
C1894 C1900 1.368 . S
C1895 C1879 1.349 . S
C1895 H1887 0.950 . S
C1895 C1893 1.327 . S
C1896 C1884 1.349 . S
C1896 H1890 0.950 . S
C1896 C1897 1.327 . S
C1897 H1891 0.950 . S
C1897 C1896 1.327 . S
C1897 C1901 1.429 . S
C1898 C1881 1.574 . S
C1898 H1892 0.949 . S
C1898 C1902 1.368 . S
C1899 C1880 1.429 . S
C1899 C1893 1.429 . S
C1899 C1900 1.523 . S
C1900 C1881 1.368 . S
C1900 C1894 1.368 . S
C1900 C1899 1.523 . S
C1901 C1885 1.429 . S
C1901 C1897 1.429 . S
C1901 C1902 1.523 . S
C1902 C1886 1.368 . S
C1902 C1898 1.368 . S
C1902 C1901 1.523 . S
H1903 C1878 0.950 . S
H1904 C1880 0.950 . S
H1905 C1881 0.949 . S
H1906 C1883 0.950 . S
H1907 C1885 0.950 . S
C1908 C1909 1.349 . S
C1908 C1910 1.327 . S
C1908 H1933 0.950 . S
C1909 C1908 1.349 . S
C1909 C1925 1.349 . S
C1910 C1908 1.327 . S
C1910 C1929 1.429 . S
C1910 H1934 0.950 . S
C1911 C1928 1.574 . S
C1911 C1930 1.368 . S
C1911 H1935 0.949 . S
H1912 C1916 0.949 . S
C1913 C1914 1.349 . S
C1913 C1915 1.327 . S
C1913 H1936 0.950 . S
C1914 C1913 1.349 . S
C1914 C1926 1.349 . S
C1915 C1913 1.327 . S
C1915 C1931 1.429 . S
C1915 H1937 0.950 . S
C1916 H1912 0.949 . S
C1916 C1924 1.574 . S
C1916 C1932 1.368 . S
H1917 C1925 0.950 . S
H1918 C1923 0.950 . S
H1919 C1924 0.949 . S
H1920 C1926 0.950 . S
H1921 C1927 0.950 . S
H1922 C1928 0.949 . S
C1923 H1918 0.950 . S
C1923 C1925 1.327 . S
C1923 C1929 1.429 . S
C1924 C1916 1.574 . S
C1924 H1919 0.949 . S
C1924 C1930 1.368 . S
C1925 C1909 1.349 . S
C1925 H1917 0.950 . S
C1925 C1923 1.327 . S
C1926 C1914 1.349 . S
C1926 H1920 0.950 . S
C1926 C1927 1.327 . S
C1927 H1921 0.950 . S
C1927 C1926 1.327 . S
C1927 C1931 1.429 . S
C1928 C1911 1.574 . S
C1928 H1922 0.949 . S
C1928 C1932 1.368 . S
C1929 C1910 1.429 . S
C1929 C1923 1.429 . S
C1929 C1930 1.523 . S
C1930 C1911 1.368 . S
C1930 C1924 1.368 . S
C1930 C1929 1.523 . S
C1931 C1915 1.429 . S
C1931 C1927 1.429 . S
C1931 C1932 1.523 . S
C1932 C1916 1.368 . S
C1932 C1928 1.368 . S
C1932 C1931 1.523 . S
H1933 C1908 0.950 . S
H1934 C1910 0.950 . S
H1935 C1911 0.949 . S
H1936 C1913 0.950 . S
H1937 C1915 0.950 . S
C1938 C1939 1.349 . S
C1938 C1940 1.327 . S
C1938 H1963 0.950 . S
C1939 C1938 1.349 . S
C1939 C1955 1.349 . S
C1940 C1938 1.327 . S
C1940 C1959 1.429 . S
C1940 H1964 0.950 . S
C1941 C1958 1.574 . S
C1941 C1960 1.368 . S
C1941 H1965 0.949 . S
H1942 C1946 0.949 . S
C1943 C1944 1.349 . S
C1943 C1945 1.327 . S
C1943 H1966 0.950 . S
C1944 C1943 1.349 . S
C1944 C1956 1.349 . S
C1945 C1943 1.327 . S
C1945 C1961 1.429 . S
C1945 H1967 0.950 . S
C1946 H1942 0.949 . S
C1946 C1954 1.574 . S
C1946 C1962 1.368 . S
H1947 C1955 0.950 . S
H1948 C1953 0.950 . S
H1949 C1954 0.949 . S
H1950 C1956 0.950 . S
H1951 C1957 0.950 . S
H1952 C1958 0.949 . S
C1953 H1948 0.950 . S
C1953 C1955 1.327 . S
C1953 C1959 1.429 . S
C1954 C1946 1.574 . S
C1954 H1949 0.949 . S
C1954 C1960 1.368 . S
C1955 C1939 1.349 . S
C1955 H1947 0.950 . S
C1955 C1953 1.327 . S
C1956 C1944 1.349 . S
C1956 H1950 0.950 . S
C1956 C1957 1.327 . S
C1957 H1951 0.950 . S
C1957 C1956 1.327 . S
C1957 C1961 1.429 . S
C1958 C1941 1.574 . S
C1958 H1952 0.949 . S
C1958 C1962 1.368 . S
C1959 C1940 1.429 . S
C1959 C1953 1.429 . S
C1959 C1960 1.523 . S
C1960 C1941 1.368 . S
C1960 C1954 1.368 . S
C1960 C1959 1.523 . S
C1961 C1945 1.429 . S
C1961 C1957 1.429 . S
C1961 C1962 1.523 . S
C1962 C1946 1.368 . S
C1962 C1958 1.368 . S
C1962 C1961 1.523 . S
H1963 C1938 0.950 . S
H1964 C1940 0.950 . S
H1965 C1941 0.949 . S
H1966 C1943 0.950 . S
H1967 C1945 0.950 . S
C1968 C1969 1.349 . S
C1968 C1970 1.327 . S
C1968 H1993 0.950 . S
C1969 C1968 1.349 . S
C1969 C1985 1.349 . S
C1970 C1968 1.327 . S
C1970 C1989 1.429 . S
C1970 H1994 0.950 . S
C1971 C1988 1.574 . S
C1971 C1990 1.368 . S
C1971 H1995 0.949 . S
H1972 C1976 0.949 . S
C1973 C1974 1.349 . S
C1973 C1975 1.327 . S
C1973 H1996 0.950 . S
C1974 C1973 1.349 . S
C1974 C1986 1.349 . S
C1975 C1973 1.327 . S
C1975 C1991 1.429 . S
C1975 H1997 0.950 . S
C1976 H1972 0.949 . S
C1976 C1984 1.574 . S
C1976 C1992 1.368 . S
H1977 C1985 0.950 . S
H1978 C1983 0.950 . S
H1979 C1984 0.949 . S
H1980 C1986 0.950 . S
H1981 C1987 0.950 . S
H1982 C1988 0.949 . S
C1983 H1978 0.950 . S
C1983 C1985 1.327 . S
C1983 C1989 1.429 . S
C1984 C1976 1.574 . S
C1984 H1979 0.949 . S
C1984 C1990 1.368 . S
C1985 C1969 1.349 . S
C1985 H1977 0.950 . S
C1985 C1983 1.327 . S
C1986 C1974 1.349 . S
C1986 H1980 0.950 . S
C1986 C1987 1.327 . S
C1987 H1981 0.950 . S
C1987 C1986 1.327 . S
C1987 C1991 1.429 . S
C1988 C1971 1.574 . S
C1988 H1982 0.949 . S
C1988 C1992 1.368 . S
C1989 C1970 1.429 . S
C1989 C1983 1.429 . S
C1989 C1990 1.523 . S
C1990 C1971 1.368 . S
C1990 C1984 1.368 . S
C1990 C1989 1.523 . S
C1991 C1975 1.429 . S
C1991 C1987 1.429 . S
C1991 C1992 1.523 . S
C1992 C1976 1.368 . S
C1992 C1988 1.368 . S
C1992 C1991 1.523 . S
H1993 C1968 0.950 . S
H1994 C1970 0.950 . S
H1995 C1971 0.949 . S
H1996 C1973 0.950 . S
H1997 C1975 0.950 . S
C1998 C1999 1.349 . S
C1998 C2000 1.327 . S
C1998 H2023 0.950 . S
C1999 C1998 1.349 . S
C1999 C2015 1.349 . S
C2000 C1998 1.327 . S
C2000 C2019 1.429 . S
C2000 H2024 0.950 . S
C2001 C2018 1.574 . S
C2001 C2020 1.368 . S
C2001 H2025 0.949 . S
H2002 C2006 0.949 . S
C2003 C2004 1.349 . S
C2003 C2005 1.327 . S
C2003 H2026 0.950 . S
C2004 C2003 1.349 . S
C2004 C2016 1.349 . S
C2005 C2003 1.327 . S
C2005 C2021 1.429 . S
C2005 H2027 0.950 . S
C2006 H2002 0.949 . S
C2006 C2014 1.574 . S
C2006 C2022 1.368 . S
H2007 C2015 0.950 . S
H2008 C2013 0.950 . S
H2009 C2014 0.949 . S
H2010 C2016 0.950 . S
H2011 C2017 0.950 . S
H2012 C2018 0.949 . S
C2013 H2008 0.950 . S
C2013 C2015 1.327 . S
C2013 C2019 1.429 . S
C2014 C2006 1.574 . S
C2014 H2009 0.949 . S
C2014 C2020 1.368 . S
C2015 C1999 1.349 . S
C2015 H2007 0.950 . S
C2015 C2013 1.327 . S
C2016 C2004 1.349 . S
C2016 H2010 0.950 . S
C2016 C2017 1.327 . S
C2017 H2011 0.950 . S
C2017 C2016 1.327 . S
C2017 C2021 1.429 . S
C2018 C2001 1.574 . S
C2018 H2012 0.949 . S
C2018 C2022 1.368 . S
C2019 C2000 1.429 . S
C2019 C2013 1.429 . S
C2019 C2020 1.523 . S
C2020 C2001 1.368 . S
C2020 C2014 1.368 . S
C2020 C2019 1.523 . S
C2021 C2005 1.429 . S
C2021 C2017 1.429 . S
C2021 C2022 1.523 . S
C2022 C2006 1.368 . S
C2022 C2018 1.368 . S
C2022 C2021 1.523 . S
H2023 C1998 0.950 . S
H2024 C2000 0.950 . S
H2025 C2001 0.949 . S
H2026 C2003 0.950 . S
H2027 C2005 0.950 . S
C2028 C2029 1.349 . S
C2028 C2030 1.327 . S
C2028 H2053 0.950 . S
C2029 C2028 1.349 . S
C2029 C2045 1.349 . S
C2030 C2028 1.327 . S
C2030 C2049 1.429 . S
C2030 H2054 0.950 . S
C2031 C2048 1.574 . S
C2031 C2050 1.368 . S
C2031 H2055 0.949 . S
H2032 C2036 0.949 . S
C2033 C2034 1.349 . S
C2033 C2035 1.327 . S
C2033 H2056 0.950 . S
C2034 C2033 1.349 . S
C2034 C2046 1.349 . S
C2035 C2033 1.327 . S
C2035 C2051 1.429 . S
C2035 H2057 0.950 . S
C2036 H2032 0.949 . S
C2036 C2044 1.574 . S
C2036 C2052 1.368 . S
H2037 C2045 0.950 . S
H2038 C2043 0.950 . S
H2039 C2044 0.949 . S
H2040 C2046 0.950 . S
H2041 C2047 0.950 . S
H2042 C2048 0.949 . S
C2043 H2038 0.950 . S
C2043 C2045 1.327 . S
C2043 C2049 1.429 . S
C2044 C2036 1.574 . S
C2044 H2039 0.949 . S
C2044 C2050 1.368 . S
C2045 C2029 1.349 . S
C2045 H2037 0.950 . S
C2045 C2043 1.327 . S
C2046 C2034 1.349 . S
C2046 H2040 0.950 . S
C2046 C2047 1.327 . S
C2047 H2041 0.950 . S
C2047 C2046 1.327 . S
C2047 C2051 1.429 . S
C2048 C2031 1.574 . S
C2048 H2042 0.949 . S
C2048 C2052 1.368 . S
C2049 C2030 1.429 . S
C2049 C2043 1.429 . S
C2049 C2050 1.523 . S
C2050 C2031 1.368 . S
C2050 C2044 1.368 . S
C2050 C2049 1.523 . S
C2051 C2035 1.429 . S
C2051 C2047 1.429 . S
C2051 C2052 1.523 . S
C2052 C2036 1.368 . S
C2052 C2048 1.368 . S
C2052 C2051 1.523 . S
H2053 C2028 0.950 . S
H2054 C2030 0.950 . S
H2055 C2031 0.949 . S
H2056 C2033 0.950 . S
H2057 C2035 0.950 . S
C2058 C2059 1.349 . S
C2058 C2060 1.327 . S
C2058 H2083 0.950 . S
C2059 C2058 1.349 . S
C2059 C2075 1.349 . S
C2060 C2058 1.327 . S
C2060 C2079 1.429 . S
C2060 H2084 0.950 . S
C2061 C2078 1.574 . S
C2061 C2080 1.368 . S
C2061 H2085 0.949 . S
H2062 C2066 0.949 . S
C2063 C2064 1.349 . S
C2063 C2065 1.327 . S
C2063 H2086 0.950 . S
C2064 C2063 1.349 . S
C2064 C2076 1.349 . S
C2065 C2063 1.327 . S
C2065 C2081 1.429 . S
C2065 H2087 0.950 . S
C2066 H2062 0.949 . S
C2066 C2074 1.574 . S
C2066 C2082 1.368 . S
H2067 C2075 0.950 . S
H2068 C2073 0.950 . S
H2069 C2074 0.949 . S
H2070 C2076 0.950 . S
H2071 C2077 0.950 . S
H2072 C2078 0.949 . S
C2073 H2068 0.950 . S
C2073 C2075 1.327 . S
C2073 C2079 1.429 . S
C2074 C2066 1.574 . S
C2074 H2069 0.949 . S
C2074 C2080 1.368 . S
C2075 C2059 1.349 . S
C2075 H2067 0.950 . S
C2075 C2073 1.327 . S
C2076 C2064 1.349 . S
C2076 H2070 0.950 . S
C2076 C2077 1.327 . S
C2077 H2071 0.950 . S
C2077 C2076 1.327 . S
C2077 C2081 1.429 . S
C2078 C2061 1.574 . S
C2078 H2072 0.949 . S
C2078 C2082 1.368 . S
C2079 C2060 1.429 . S
C2079 C2073 1.429 . S
C2079 C2080 1.523 . S
C2080 C2061 1.368 . S
C2080 C2074 1.368 . S
C2080 C2079 1.523 . S
C2081 C2065 1.429 . S
C2081 C2077 1.429 . S
C2081 C2082 1.523 . S
C2082 C2066 1.368 . S
C2082 C2078 1.368 . S
C2082 C2081 1.523 . S
H2083 C2058 0.950 . S
H2084 C2060 0.950 . S
H2085 C2061 0.949 . S
H2086 C2063 0.950 . S
H2087 C2065 0.950 . S
C2088 C2089 1.349 . S
C2088 C2090 1.327 . S
C2088 H2113 0.950 . S
C2089 C2088 1.349 . S
C2089 C2105 1.349 . S
C2090 C2088 1.327 . S
C2090 C2109 1.429 . S
C2090 H2114 0.950 . S
C2091 C2108 1.574 . S
C2091 C2110 1.368 . S
C2091 H2115 0.949 . S
H2092 C2096 0.949 . S
C2093 C2094 1.349 . S
C2093 C2095 1.327 . S
C2093 H2116 0.950 . S
C2094 C2093 1.349 . S
C2094 C2106 1.349 . S
C2095 C2093 1.327 . S
C2095 C2111 1.429 . S
C2095 H2117 0.950 . S
C2096 H2092 0.949 . S
C2096 C2104 1.574 . S
C2096 C2112 1.368 . S
H2097 C2105 0.950 . S
H2098 C2103 0.950 . S
H2099 C2104 0.949 . S
H2100 C2106 0.950 . S
H2101 C2107 0.950 . S
H2102 C2108 0.949 . S
C2103 H2098 0.950 . S
C2103 C2105 1.327 . S
C2103 C2109 1.429 . S
C2104 C2096 1.574 . S
C2104 H2099 0.949 . S
C2104 C2110 1.368 . S
C2105 C2089 1.349 . S
C2105 H2097 0.950 . S
C2105 C2103 1.327 . S
C2106 C2094 1.349 . S
C2106 H2100 0.950 . S
C2106 C2107 1.327 . S
C2107 H2101 0.950 . S
C2107 C2106 1.327 . S
C2107 C2111 1.429 . S
C2108 C2091 1.574 . S
C2108 H2102 0.949 . S
C2108 C2112 1.368 . S
C2109 C2090 1.429 . S
C2109 C2103 1.429 . S
C2109 C2110 1.523 . S
C2110 C2091 1.368 . S
C2110 C2104 1.368 . S
C2110 C2109 1.523 . S
C2111 C2095 1.429 . S
C2111 C2107 1.429 . S
C2111 C2112 1.523 . S
C2112 C2096 1.368 . S
C2112 C2108 1.368 . S
C2112 C2111 1.523 . S
H2113 C2088 0.950 . S
H2114 C2090 0.950 . S
H2115 C2091 0.949 . S
H2116 C2093 0.950 . S
H2117 C2095 0.950 . S
C2118 C2119 1.349 . S
C2118 C2120 1.327 . S
C2118 H2143 0.950 . S
C2119 C2118 1.349 . S
C2119 C2135 1.349 . S
C2120 C2118 1.327 . S
C2120 C2139 1.429 . S
C2120 H2144 0.950 . S
C2121 C2138 1.574 . S
C2121 C2140 1.368 . S
C2121 H2145 0.949 . S
H2122 C2126 0.949 . S
C2123 C2124 1.349 . S
C2123 C2125 1.327 . S
C2123 H2146 0.950 . S
C2124 C2123 1.349 . S
C2124 C2136 1.349 . S
C2125 C2123 1.327 . S
C2125 C2141 1.429 . S
C2125 H2147 0.950 . S
C2126 H2122 0.949 . S
C2126 C2134 1.574 . S
C2126 C2142 1.368 . S
H2127 C2135 0.950 . S
H2128 C2133 0.950 . S
H2129 C2134 0.949 . S
H2130 C2136 0.950 . S
H2131 C2137 0.950 . S
H2132 C2138 0.949 . S
C2133 H2128 0.950 . S
C2133 C2135 1.327 . S
C2133 C2139 1.429 . S
C2134 C2126 1.574 . S
C2134 H2129 0.949 . S
C2134 C2140 1.368 . S
C2135 C2119 1.349 . S
C2135 H2127 0.950 . S
C2135 C2133 1.327 . S
C2136 C2124 1.349 . S
C2136 H2130 0.950 . S
C2136 C2137 1.327 . S
C2137 H2131 0.950 . S
C2137 C2136 1.327 . S
C2137 C2141 1.429 . S
C2138 C2121 1.574 . S
C2138 H2132 0.949 . S
C2138 C2142 1.368 . S
C2139 C2120 1.429 . S
C2139 C2133 1.429 . S
C2139 C2140 1.523 . S
C2140 C2121 1.368 . S
C2140 C2134 1.368 . S
C2140 C2139 1.523 . S
C2141 C2125 1.429 . S
C2141 C2137 1.429 . S
C2141 C2142 1.523 . S
C2142 C2126 1.368 . S
C2142 C2138 1.368 . S
C2142 C2141 1.523 . S
H2143 C2118 0.950 . S
H2144 C2120 0.950 . S
H2145 C2121 0.949 . S
H2146 C2123 0.950 . S
H2147 C2125 0.950 . S
C2148 C2149 1.349 . S
C2148 C2150 1.327 . S
C2148 H2173 0.950 . S
C2149 C2148 1.349 . S
C2149 C2165 1.349 . S
C2150 C2148 1.327 . S
C2150 C2169 1.429 . S
C2150 H2174 0.950 . S
C2151 C2168 1.574 . S
C2151 C2170 1.368 . S
C2151 H2175 0.949 . S
H2152 C2156 0.949 . S
C2153 C2154 1.349 . S
C2153 C2155 1.327 . S
C2153 H2176 0.950 . S
C2154 C2153 1.349 . S
C2154 C2166 1.349 . S
C2155 C2153 1.327 . S
C2155 C2171 1.429 . S
C2155 H2177 0.950 . S
C2156 H2152 0.949 . S
C2156 C2164 1.574 . S
C2156 C2172 1.368 . S
H2157 C2165 0.950 . S
H2158 C2163 0.950 . S
H2159 C2164 0.949 . S
H2160 C2166 0.950 . S
H2161 C2167 0.950 . S
H2162 C2168 0.949 . S
C2163 H2158 0.950 . S
C2163 C2165 1.327 . S
C2163 C2169 1.429 . S
C2164 C2156 1.574 . S
C2164 H2159 0.949 . S
C2164 C2170 1.368 . S
C2165 C2149 1.349 . S
C2165 H2157 0.950 . S
C2165 C2163 1.327 . S
C2166 C2154 1.349 . S
C2166 H2160 0.950 . S
C2166 C2167 1.327 . S
C2167 H2161 0.950 . S
C2167 C2166 1.327 . S
C2167 C2171 1.429 . S
C2168 C2151 1.574 . S
C2168 H2162 0.949 . S
C2168 C2172 1.368 . S
C2169 C2150 1.429 . S
C2169 C2163 1.429 . S
C2169 C2170 1.523 . S
C2170 C2151 1.368 . S
C2170 C2164 1.368 . S
C2170 C2169 1.523 . S
C2171 C2155 1.429 . S
C2171 C2167 1.429 . S
C2171 C2172 1.523 . S
C2172 C2156 1.368 . S
C2172 C2168 1.368 . S
C2172 C2171 1.523 . S
H2173 C2148 0.950 . S
H2174 C2150 0.950 . S
H2175 C2151 0.949 . S
H2176 C2153 0.950 . S
H2177 C2155 0.950 . S
C2178 C2179 1.349 . S
C2178 C2180 1.327 . S
C2178 H2203 0.950 . S
C2179 C2178 1.349 . S
C2179 C2195 1.349 . S
C2180 C2178 1.327 . S
C2180 C2199 1.429 . S
C2180 H2204 0.950 . S
C2181 C2198 1.574 . S
C2181 C2200 1.368 . S
C2181 H2205 0.949 . S
H2182 C2186 0.949 . S
C2183 C2184 1.349 . S
C2183 C2185 1.327 . S
C2183 H2206 0.950 . S
C2184 C2183 1.349 . S
C2184 C2196 1.349 . S
C2185 C2183 1.327 . S
C2185 C2201 1.429 . S
C2185 H2207 0.950 . S
C2186 H2182 0.949 . S
C2186 C2194 1.574 . S
C2186 C2202 1.368 . S
H2187 C2195 0.950 . S
H2188 C2193 0.950 . S
H2189 C2194 0.949 . S
H2190 C2196 0.950 . S
H2191 C2197 0.950 . S
H2192 C2198 0.949 . S
C2193 H2188 0.950 . S
C2193 C2195 1.327 . S
C2193 C2199 1.429 . S
C2194 C2186 1.574 . S
C2194 H2189 0.949 . S
C2194 C2200 1.368 . S
C2195 C2179 1.349 . S
C2195 H2187 0.950 . S
C2195 C2193 1.327 . S
C2196 C2184 1.349 . S
C2196 H2190 0.950 . S
C2196 C2197 1.327 . S
C2197 H2191 0.950 . S
C2197 C2196 1.327 . S
C2197 C2201 1.429 . S
C2198 C2181 1.574 . S
C2198 H2192 0.949 . S
C2198 C2202 1.368 . S
C2199 C2180 1.429 . S
C2199 C2193 1.429 . S
C2199 C2200 1.523 . S
C2200 C2181 1.368 . S
C2200 C2194 1.368 . S
C2200 C2199 1.523 . S
C2201 C2185 1.429 . S
C2201 C2197 1.429 . S
C2201 C2202 1.523 . S
C2202 C2186 1.368 . S
C2202 C2198 1.368 . S
C2202 C2201 1.523 . S
H2203 C2178 0.950 . S
H2204 C2180 0.950 . S
H2205 C2181 0.949 . S
H2206 C2183 0.950 . S
H2207 C2185 0.950 . S
C2208 C2209 1.349 . S
C2208 C2210 1.327 . S
C2208 H2233 0.950 . S
C2209 C2208 1.349 . S
C2209 C2225 1.349 . S
C2210 C2208 1.327 . S
C2210 C2229 1.429 . S
C2210 H2234 0.950 . S
C2211 C2228 1.574 . S
C2211 C2230 1.368 . S
C2211 H2235 0.949 . S
H2212 C2216 0.949 . S
C2213 C2214 1.349 . S
C2213 C2215 1.327 . S
C2213 H2236 0.950 . S
C2214 C2213 1.349 . S
C2214 C2226 1.349 . S
C2215 C2213 1.327 . S
C2215 C2231 1.429 . S
C2215 H2237 0.950 . S
C2216 H2212 0.949 . S
C2216 C2224 1.574 . S
C2216 C2232 1.368 . S
H2217 C2225 0.950 . S
H2218 C2223 0.950 . S
H2219 C2224 0.949 . S
H2220 C2226 0.950 . S
H2221 C2227 0.950 . S
H2222 C2228 0.949 . S
C2223 H2218 0.950 . S
C2223 C2225 1.327 . S
C2223 C2229 1.429 . S
C2224 C2216 1.574 . S
C2224 H2219 0.949 . S
C2224 C2230 1.368 . S
C2225 C2209 1.349 . S
C2225 H2217 0.950 . S
C2225 C2223 1.327 . S
C2226 C2214 1.349 . S
C2226 H2220 0.950 . S
C2226 C2227 1.327 . S
C2227 H2221 0.950 . S
C2227 C2226 1.327 . S
C2227 C2231 1.429 . S
C2228 C2211 1.574 . S
C2228 H2222 0.949 . S
C2228 C2232 1.368 . S
C2229 C2210 1.429 . S
C2229 C2223 1.429 . S
C2229 C2230 1.523 . S
C2230 C2211 1.368 . S
C2230 C2224 1.368 . S
C2230 C2229 1.523 . S
C2231 C2215 1.429 . S
C2231 C2227 1.429 . S
C2231 C2232 1.523 . S
C2232 C2216 1.368 . S
C2232 C2228 1.368 . S
C2232 C2231 1.523 . S
H2233 C2208 0.950 . S
H2234 C2210 0.950 . S
H2235 C2211 0.949 . S
H2236 C2213 0.950 . S
H2237 C2215 0.950 . S
C2238 C2239 1.349 . S
C2238 C2240 1.327 . S
C2238 H2263 0.950 . S
C2239 C2238 1.349 . S
C2239 C2255 1.349 . S
C2240 C2238 1.327 . S
C2240 C2259 1.429 . S
C2240 H2264 0.950 . S
C2241 C2258 1.574 . S
C2241 C2260 1.368 . S
C2241 H2265 0.949 . S
H2242 C2246 0.949 . S
C2243 C2244 1.349 . S
C2243 C2245 1.327 . S
C2243 H2266 0.950 . S
C2244 C2243 1.349 . S
C2244 C2256 1.349 . S
C2245 C2243 1.327 . S
C2245 C2261 1.429 . S
C2245 H2267 0.950 . S
C2246 H2242 0.949 . S
C2246 C2254 1.574 . S
C2246 C2262 1.368 . S
H2247 C2255 0.950 . S
H2248 C2253 0.950 . S
H2249 C2254 0.949 . S
H2250 C2256 0.950 . S
H2251 C2257 0.950 . S
H2252 C2258 0.949 . S
C2253 H2248 0.950 . S
C2253 C2255 1.327 . S
C2253 C2259 1.429 . S
C2254 C2246 1.574 . S
C2254 H2249 0.949 . S
C2254 C2260 1.368 . S
C2255 C2239 1.349 . S
C2255 H2247 0.950 . S
C2255 C2253 1.327 . S
C2256 C2244 1.349 . S
C2256 H2250 0.950 . S
C2256 C2257 1.327 . S
C2257 H2251 0.950 . S
C2257 C2256 1.327 . S
C2257 C2261 1.429 . S
C2258 C2241 1.574 . S
C2258 H2252 0.949 . S
C2258 C2262 1.368 . S
C2259 C2240 1.429 . S
C2259 C2253 1.429 . S
C2259 C2260 1.523 . S
C2260 C2241 1.368 . S
C2260 C2254 1.368 . S
C2260 C2259 1.523 . S
C2261 C2245 1.429 . S
C2261 C2257 1.429 . S
C2261 C2262 1.523 . S
C2262 C2246 1.368 . S
C2262 C2258 1.368 . S
C2262 C2261 1.523 . S
H2263 C2238 0.950 . S
H2264 C2240 0.950 . S
H2265 C2241 0.949 . S
H2266 C2243 0.950 . S
H2267 C2245 0.950 . S
C2268 C2269 1.349 . S
C2268 C2270 1.327 . S
C2268 H2293 0.950 . S
C2269 C2268 1.349 . S
C2269 C2285 1.349 . S
C2270 C2268 1.327 . S
C2270 C2289 1.429 . S
C2270 H2294 0.950 . S
C2271 C2288 1.574 . S
C2271 C2290 1.368 . S
C2271 H2295 0.949 . S
H2272 C2276 0.949 . S
C2273 C2274 1.349 . S
C2273 C2275 1.327 . S
C2273 H2296 0.950 . S
C2274 C2273 1.349 . S
C2274 C2286 1.349 . S
C2275 C2273 1.327 . S
C2275 C2291 1.429 . S
C2275 H2297 0.950 . S
C2276 H2272 0.949 . S
C2276 C2284 1.574 . S
C2276 C2292 1.368 . S
H2277 C2285 0.950 . S
H2278 C2283 0.950 . S
H2279 C2284 0.949 . S
H2280 C2286 0.950 . S
H2281 C2287 0.950 . S
H2282 C2288 0.949 . S
C2283 H2278 0.950 . S
C2283 C2285 1.327 . S
C2283 C2289 1.429 . S
C2284 C2276 1.574 . S
C2284 H2279 0.949 . S
C2284 C2290 1.368 . S
C2285 C2269 1.349 . S
C2285 H2277 0.950 . S
C2285 C2283 1.327 . S
C2286 C2274 1.349 . S
C2286 H2280 0.950 . S
C2286 C2287 1.327 . S
C2287 H2281 0.950 . S
C2287 C2286 1.327 . S
C2287 C2291 1.429 . S
C2288 C2271 1.574 . S
C2288 H2282 0.949 . S
C2288 C2292 1.368 . S
C2289 C2270 1.429 . S
C2289 C2283 1.429 . S
C2289 C2290 1.523 . S
C2290 C2271 1.368 . S
C2290 C2284 1.368 . S
C2290 C2289 1.523 . S
C2291 C2275 1.429 . S
C2291 C2287 1.429 . S
C2291 C2292 1.523 . S
C2292 C2276 1.368 . S
C2292 C2288 1.368 . S
C2292 C2291 1.523 . S
H2293 C2268 0.950 . S
H2294 C2270 0.950 . S
H2295 C2271 0.949 . S
H2296 C2273 0.950 . S
H2297 C2275 0.950 . S
C2298 C2299 1.349 . S
C2298 C2300 1.327 . S
C2298 H2323 0.950 . S
C2299 C2298 1.349 . S
C2299 C2315 1.349 . S
C2300 C2298 1.327 . S
C2300 C2319 1.429 . S
C2300 H2324 0.950 . S
C2301 C2318 1.574 . S
C2301 C2320 1.368 . S
C2301 H2325 0.949 . S
H2302 C2306 0.949 . S
C2303 C2304 1.349 . S
C2303 C2305 1.327 . S
C2303 H2326 0.950 . S
C2304 C2303 1.349 . S
C2304 C2316 1.349 . S
C2305 C2303 1.327 . S
C2305 C2321 1.429 . S
C2305 H2327 0.950 . S
C2306 H2302 0.949 . S
C2306 C2314 1.574 . S
C2306 C2322 1.368 . S
H2307 C2315 0.950 . S
H2308 C2313 0.950 . S
H2309 C2314 0.949 . S
H2310 C2316 0.950 . S
H2311 C2317 0.950 . S
H2312 C2318 0.949 . S
C2313 H2308 0.950 . S
C2313 C2315 1.327 . S
C2313 C2319 1.429 . S
C2314 C2306 1.574 . S
C2314 H2309 0.949 . S
C2314 C2320 1.368 . S
C2315 C2299 1.349 . S
C2315 H2307 0.950 . S
C2315 C2313 1.327 . S
C2316 C2304 1.349 . S
C2316 H2310 0.950 . S
C2316 C2317 1.327 . S
C2317 H2311 0.950 . S
C2317 C2316 1.327 . S
C2317 C2321 1.429 . S
C2318 C2301 1.574 . S
C2318 H2312 0.949 . S
C2318 C2322 1.368 . S
C2319 C2300 1.429 . S
C2319 C2313 1.429 . S
C2319 C2320 1.523 . S
C2320 C2301 1.368 . S
C2320 C2314 1.368 . S
C2320 C2319 1.523 . S
C2321 C2305 1.429 . S
C2321 C2317 1.429 . S
C2321 C2322 1.523 . S
C2322 C2306 1.368 . S
C2322 C2318 1.368 . S
C2322 C2321 1.523 . S
H2323 C2298 0.950 . S
H2324 C2300 0.950 . S
H2325 C2301 0.949 . S
H2326 C2303 0.950 . S
H2327 C2305 0.950 . S
C2328 C2329 1.349 . S
C2328 C2330 1.327 . S
C2328 H2353 0.950 . S
C2329 C2328 1.349 . S
C2329 C2345 1.349 . S
C2330 C2328 1.327 . S
C2330 C2349 1.429 . S
C2330 H2354 0.950 . S
C2331 C2348 1.574 . S
C2331 C2350 1.368 . S
C2331 H2355 0.949 . S
H2332 C2336 0.949 . S
C2333 C2334 1.349 . S
C2333 C2335 1.327 . S
C2333 H2356 0.950 . S
C2334 C2333 1.349 . S
C2334 C2346 1.349 . S
C2335 C2333 1.327 . S
C2335 C2351 1.429 . S
C2335 H2357 0.950 . S
C2336 H2332 0.949 . S
C2336 C2344 1.574 . S
C2336 C2352 1.368 . S
H2337 C2345 0.950 . S
H2338 C2343 0.950 . S
H2339 C2344 0.949 . S
H2340 C2346 0.950 . S
H2341 C2347 0.950 . S
H2342 C2348 0.949 . S
C2343 H2338 0.950 . S
C2343 C2345 1.327 . S
C2343 C2349 1.429 . S
C2344 C2336 1.574 . S
C2344 H2339 0.949 . S
C2344 C2350 1.368 . S
C2345 C2329 1.349 . S
C2345 H2337 0.950 . S
C2345 C2343 1.327 . S
C2346 C2334 1.349 . S
C2346 H2340 0.950 . S
C2346 C2347 1.327 . S
C2347 H2341 0.950 . S
C2347 C2346 1.327 . S
C2347 C2351 1.429 . S
C2348 C2331 1.574 . S
C2348 H2342 0.949 . S
C2348 C2352 1.368 . S
C2349 C2330 1.429 . S
C2349 C2343 1.429 . S
C2349 C2350 1.523 . S
C2350 C2331 1.368 . S
C2350 C2344 1.368 . S
C2350 C2349 1.523 . S
C2351 C2335 1.429 . S
C2351 C2347 1.429 . S
C2351 C2352 1.523 . S
C2352 C2336 1.368 . S
C2352 C2348 1.368 . S
C2352 C2351 1.523 . S
H2353 C2328 0.950 . S
H2354 C2330 0.950 . S
H2355 C2331 0.949 . S
H2356 C2333 0.950 . S
H2357 C2335 0.950 . S
C2358 C2359 1.349 . S
C2358 C2360 1.327 . S
C2358 H2383 0.950 . S
C2359 C2358 1.349 . S
C2359 C2375 1.349 . S
C2360 C2358 1.327 . S
C2360 C2379 1.429 . S
C2360 H2384 0.950 . S
C2361 C2378 1.574 . S
C2361 C2380 1.368 . S
C2361 H2385 0.949 . S
H2362 C2366 0.949 . S
C2363 C2364 1.349 . S
C2363 C2365 1.327 . S
C2363 H2386 0.950 . S
C2364 C2363 1.349 . S
C2364 C2376 1.349 . S
C2365 C2363 1.327 . S
C2365 C2381 1.429 . S
C2365 H2387 0.950 . S
C2366 H2362 0.949 . S
C2366 C2374 1.574 . S
C2366 C2382 1.368 . S
H2367 C2375 0.950 . S
H2368 C2373 0.950 . S
H2369 C2374 0.949 . S
H2370 C2376 0.950 . S
H2371 C2377 0.950 . S
H2372 C2378 0.949 . S
C2373 H2368 0.950 . S
C2373 C2375 1.327 . S
C2373 C2379 1.429 . S
C2374 C2366 1.574 . S
C2374 H2369 0.949 . S
C2374 C2380 1.368 . S
C2375 C2359 1.349 . S
C2375 H2367 0.950 . S
C2375 C2373 1.327 . S
C2376 C2364 1.349 . S
C2376 H2370 0.950 . S
C2376 C2377 1.327 . S
C2377 H2371 0.950 . S
C2377 C2376 1.327 . S
C2377 C2381 1.429 . S
C2378 C2361 1.574 . S
C2378 H2372 0.949 . S
C2378 C2382 1.368 . S
C2379 C2360 1.429 . S
C2379 C2373 1.429 . S
C2379 C2380 1.523 . S
C2380 C2361 1.368 . S
C2380 C2374 1.368 . S
C2380 C2379 1.523 . S
C2381 C2365 1.429 . S
C2381 C2377 1.429 . S
C2381 C2382 1.523 . S
C2382 C2366 1.368 . S
C2382 C2378 1.368 . S
C2382 C2381 1.523 . S
H2383 C2358 0.950 . S
H2384 C2360 0.950 . S
H2385 C2361 0.949 . S
H2386 C2363 0.950 . S
H2387 C2365 0.950 . S
C2388 C2389 1.349 . S
C2388 C2390 1.327 . S
C2388 H2413 0.950 . S
C2389 C2388 1.349 . S
C2389 C2405 1.349 . S
C2390 C2388 1.327 . S
C2390 C2409 1.429 . S
C2390 H2414 0.950 . S
C2391 C2408 1.574 . S
C2391 C2410 1.368 . S
C2391 H2415 0.949 . S
H2392 C2396 0.949 . S
C2393 C2394 1.349 . S
C2393 C2395 1.327 . S
C2393 H2416 0.950 . S
C2394 C2393 1.349 . S
C2394 C2406 1.349 . S
C2395 C2393 1.327 . S
C2395 C2411 1.429 . S
C2395 H2417 0.950 . S
C2396 H2392 0.949 . S
C2396 C2404 1.574 . S
C2396 C2412 1.368 . S
H2397 C2405 0.950 . S
H2398 C2403 0.950 . S
H2399 C2404 0.949 . S
H2400 C2406 0.950 . S
H2401 C2407 0.950 . S
H2402 C2408 0.949 . S
C2403 H2398 0.950 . S
C2403 C2405 1.327 . S
C2403 C2409 1.429 . S
C2404 C2396 1.574 . S
C2404 H2399 0.949 . S
C2404 C2410 1.368 . S
C2405 C2389 1.349 . S
C2405 H2397 0.950 . S
C2405 C2403 1.327 . S
C2406 C2394 1.349 . S
C2406 H2400 0.950 . S
C2406 C2407 1.327 . S
C2407 H2401 0.950 . S
C2407 C2406 1.327 . S
C2407 C2411 1.429 . S
C2408 C2391 1.574 . S
C2408 H2402 0.949 . S
C2408 C2412 1.368 . S
C2409 C2390 1.429 . S
C2409 C2403 1.429 . S
C2409 C2410 1.523 . S
C2410 C2391 1.368 . S
C2410 C2404 1.368 . S
C2410 C2409 1.523 . S
C2411 C2395 1.429 . S
C2411 C2407 1.429 . S
C2411 C2412 1.523 . S
C2412 C2396 1.368 . S
C2412 C2408 1.368 . S
C2412 C2411 1.523 . S
H2413 C2388 0.950 . S
H2414 C2390 0.950 . S
H2415 C2391 0.949 . S
H2416 C2393 0.950 . S
H2417 C2395 0.950 . S
C2418 C2419 1.349 . S
C2418 C2420 1.327 . S
C2418 H2443 0.950 . S
C2419 C2418 1.349 . S
C2419 C2435 1.349 . S
C2420 C2418 1.327 . S
C2420 C2439 1.429 . S
C2420 H2444 0.950 . S
C2421 C2438 1.574 . S
C2421 C2440 1.368 . S
C2421 H2445 0.949 . S
H2422 C2426 0.949 . S
C2423 C2424 1.349 . S
C2423 C2425 1.327 . S
C2423 H2446 0.950 . S
C2424 C2423 1.349 . S
C2424 C2436 1.349 . S
C2425 C2423 1.327 . S
C2425 C2441 1.429 . S
C2425 H2447 0.950 . S
C2426 H2422 0.949 . S
C2426 C2434 1.574 . S
C2426 C2442 1.368 . S
H2427 C2435 0.950 . S
H2428 C2433 0.950 . S
H2429 C2434 0.949 . S
H2430 C2436 0.950 . S
H2431 C2437 0.950 . S
H2432 C2438 0.949 . S
C2433 H2428 0.950 . S
C2433 C2435 1.327 . S
C2433 C2439 1.429 . S
C2434 C2426 1.574 . S
C2434 H2429 0.949 . S
C2434 C2440 1.368 . S
C2435 C2419 1.349 . S
C2435 H2427 0.950 . S
C2435 C2433 1.327 . S
C2436 C2424 1.349 . S
C2436 H2430 0.950 . S
C2436 C2437 1.327 . S
C2437 H2431 0.950 . S
C2437 C2436 1.327 . S
C2437 C2441 1.429 . S
C2438 C2421 1.574 . S
C2438 H2432 0.949 . S
C2438 C2442 1.368 . S
C2439 C2420 1.429 . S
C2439 C2433 1.429 . S
C2439 C2440 1.523 . S
C2440 C2421 1.368 . S
C2440 C2434 1.368 . S
C2440 C2439 1.523 . S
C2441 C2425 1.429 . S
C2441 C2437 1.429 . S
C2441 C2442 1.523 . S
C2442 C2426 1.368 . S
C2442 C2438 1.368 . S
C2442 C2441 1.523 . S
H2443 C2418 0.950 . S
H2444 C2420 0.950 . S
H2445 C2421 0.949 . S
H2446 C2423 0.950 . S
H2447 C2425 0.950 . S
C2448 C2449 1.349 . S
C2448 C2450 1.327 . S
C2448 H2473 0.950 . S
C2449 C2448 1.349 . S
C2449 C2465 1.349 . S
C2450 C2448 1.327 . S
C2450 C2469 1.429 . S
C2450 H2474 0.950 . S
C2451 C2468 1.574 1_455 S
C2451 C2470 1.368 . S
C2451 H2475 0.949 . S
H2452 C2456 0.949 . S
C2453 C2454 1.349 . S
C2453 C2455 1.327 . S
C2453 H2476 0.950 . S
C2454 C2453 1.349 . S
C2454 C2466 1.349 . S
C2455 C2453 1.327 . S
C2455 C2471 1.429 . S
C2455 H2477 0.950 . S
C2456 H2452 0.949 . S
C2456 C2464 1.574 1_655 S
C2456 C2472 1.368 . S
H2457 C2465 0.950 . S
H2458 C2463 0.950 . S
H2459 C2464 0.949 . S
H2460 C2466 0.950 . S
H2461 C2467 0.950 . S
H2462 C2468 0.949 . S
C2463 H2458 0.950 . S
C2463 C2465 1.327 . S
C2463 C2469 1.429 . S
C2464 C2456 1.574 1_455 S
C2464 H2459 0.949 . S
C2464 C2470 1.368 . S
C2465 C2449 1.349 . S
C2465 H2457 0.950 . S
C2465 C2463 1.327 . S
C2466 C2454 1.349 . S
C2466 H2460 0.950 . S
C2466 C2467 1.327 . S
C2467 H2461 0.950 . S
C2467 C2466 1.327 . S
C2467 C2471 1.429 . S
C2468 C2451 1.574 1_655 S
C2468 H2462 0.949 . S
C2468 C2472 1.368 . S
C2469 C2450 1.429 . S
C2469 C2463 1.429 . S
C2469 C2470 1.523 . S
C2470 C2451 1.368 . S
C2470 C2464 1.368 . S
C2470 C2469 1.523 . S
C2471 C2455 1.429 . S
C2471 C2467 1.429 . S
C2471 C2472 1.523 . S
C2472 C2456 1.368 . S
C2472 C2468 1.368 . S
C2472 C2471 1.523 . S
H2473 C2448 0.950 . S
H2474 C2450 0.950 . S
H2475 C2451 0.949 . S
H2476 C2453 0.950 . S
H2477 C2455 0.950 . S
C2478 C2479 1.349 . S
C2478 C2480 1.327 . S
C2478 H2503 0.950 . S
C2479 C2478 1.349 . S
C2479 C2495 1.349 . S
C2480 C2478 1.327 . S
C2480 C2499 1.429 . S
C2480 H2504 0.950 . S
C2481 C2498 1.574 . S
C2481 C2500 1.368 . S
C2481 H2505 0.949 . S
H2482 C2486 0.949 . S
C2483 C2484 1.349 . S
C2483 C2485 1.327 . S
C2483 H2506 0.950 . S
C2484 C2483 1.349 . S
C2484 C2496 1.349 . S
C2485 C2483 1.327 . S
C2485 C2501 1.429 . S
C2485 H2507 0.950 . S
C2486 H2482 0.949 . S
C2486 C2494 1.574 . S
C2486 C2502 1.368 . S
H2487 C2495 0.950 . S
H2488 C2493 0.950 . S
H2489 C2494 0.949 . S
H2490 C2496 0.950 . S
H2491 C2497 0.950 . S
H2492 C2498 0.949 . S
C2493 H2488 0.950 . S
C2493 C2495 1.327 . S
C2493 C2499 1.429 . S
C2494 C2486 1.574 . S
C2494 H2489 0.949 . S
C2494 C2500 1.368 . S
C2495 C2479 1.349 . S
C2495 H2487 0.950 . S
C2495 C2493 1.327 . S
C2496 C2484 1.349 . S
C2496 H2490 0.950 . S
C2496 C2497 1.327 . S
C2497 H2491 0.950 . S
C2497 C2496 1.327 . S
C2497 C2501 1.429 . S
C2498 C2481 1.574 . S
C2498 H2492 0.949 . S
C2498 C2502 1.368 . S
C2499 C2480 1.429 . S
C2499 C2493 1.429 . S
C2499 C2500 1.523 . S
C2500 C2481 1.368 . S
C2500 C2494 1.368 . S
C2500 C2499 1.523 . S
C2501 C2485 1.429 . S
C2501 C2497 1.429 . S
C2501 C2502 1.523 . S
C2502 C2486 1.368 . S
C2502 C2498 1.368 . S
C2502 C2501 1.523 . S
H2503 C2478 0.950 . S
H2504 C2480 0.950 . S
H2505 C2481 0.949 . S
H2506 C2483 0.950 . S
H2507 C2485 0.950 . S
C2508 C2509 1.349 . S
C2508 C2510 1.327 . S
C2508 H2533 0.950 . S
C2509 C2508 1.349 . S
C2509 C2525 1.349 . S
C2510 C2508 1.327 . S
C2510 C2529 1.429 . S
C2510 H2534 0.950 . S
C2511 C2528 1.574 1_545 S
C2511 C2530 1.368 . S
C2511 H2535 0.949 . S
H2512 C2516 0.949 . S
C2513 C2514 1.349 . S
C2513 C2515 1.327 . S
C2513 H2536 0.950 . S
C2514 C2513 1.349 . S
C2514 C2526 1.349 . S
C2515 C2513 1.327 . S
C2515 C2531 1.429 . S
C2515 H2537 0.950 . S
C2516 H2512 0.949 . S
C2516 C2524 1.574 1_565 S
C2516 C2532 1.368 . S
H2517 C2525 0.950 . S
H2518 C2523 0.950 . S
H2519 C2524 0.949 . S
H2520 C2526 0.950 . S
H2521 C2527 0.950 . S
H2522 C2528 0.949 . S
C2523 H2518 0.950 . S
C2523 C2525 1.327 . S
C2523 C2529 1.429 . S
C2524 C2516 1.574 1_545 S
C2524 H2519 0.949 . S
C2524 C2530 1.368 . S
C2525 C2509 1.349 . S
C2525 H2517 0.950 . S
C2525 C2523 1.327 . S
C2526 C2514 1.349 . S
C2526 H2520 0.950 . S
C2526 C2527 1.327 . S
C2527 H2521 0.950 . S
C2527 C2526 1.327 . S
C2527 C2531 1.429 . S
C2528 C2511 1.574 1_565 S
C2528 H2522 0.949 . S
C2528 C2532 1.368 . S
C2529 C2510 1.429 . S
C2529 C2523 1.429 . S
C2529 C2530 1.523 . S
C2530 C2511 1.368 . S
C2530 C2524 1.368 . S
C2530 C2529 1.523 . S
C2531 C2515 1.429 . S
C2531 C2527 1.429 . S
C2531 C2532 1.523 . S
C2532 C2516 1.368 . S
C2532 C2528 1.368 . S
C2532 C2531 1.523 . S
H2533 C2508 0.950 . S
H2534 C2510 0.950 . S
H2535 C2511 0.949 . S
H2536 C2513 0.950 . S
H2537 C2515 0.950 . S
C2538 C2539 1.349 . S
C2538 C2540 1.327 . S
C2538 H2563 0.950 . S
C2539 C2538 1.349 . S
C2539 C2555 1.349 1_554 S
C2540 C2538 1.327 . S
C2540 C2559 1.429 . S
C2540 H2564 0.950 . S
C2541 C2558 1.574 1_545 S
C2541 C2560 1.368 1_556 S
C2541 H2565 0.949 . S
H2542 C2546 0.949 . S
C2543 C2544 1.349 . S
C2543 C2545 1.327 . S
C2543 H2566 0.950 . S
C2544 C2543 1.349 . S
C2544 C2556 1.349 1_556 S
C2545 C2543 1.327 . S
C2545 C2561 1.429 . S
C2545 H2567 0.950 . S
C2546 H2542 0.949 . S
C2546 C2554 1.574 1_565 S
C2546 C2562 1.368 1_554 S
H2547 C2555 0.950 . S
H2548 C2553 0.950 . S
H2549 C2554 0.949 . S
H2550 C2556 0.950 . S
H2551 C2557 0.950 . S
H2552 C2558 0.949 . S
C2553 H2548 0.950 . S
C2553 C2555 1.327 . S
C2553 C2559 1.429 1_556 S
C2554 C2546 1.574 1_545 S
C2554 H2549 0.949 . S
C2554 C2560 1.368 . S
C2555 C2539 1.349 1_556 S
C2555 H2547 0.950 . S
C2555 C2553 1.327 . S
C2556 C2544 1.349 1_554 S
C2556 H2550 0.950 . S
C2556 C2557 1.327 . S
C2557 H2551 0.950 . S
C2557 C2556 1.327 . S
C2557 C2561 1.429 1_554 S
C2558 C2541 1.574 1_565 S
C2558 H2552 0.949 . S
C2558 C2562 1.368 . S
C2559 C2540 1.429 . S
C2559 C2553 1.429 1_554 S
C2559 C2560 1.523 . S
C2560 C2541 1.368 1_554 S
C2560 C2554 1.368 . S
C2560 C2559 1.523 . S
C2561 C2545 1.429 . S
C2561 C2557 1.429 1_556 S
C2561 C2562 1.523 . S
C2562 C2546 1.368 1_556 S
C2562 C2558 1.368 . S
C2562 C2561 1.523 . S
H2563 C2538 0.950 . S
H2564 C2540 0.950 . S
H2565 C2541 0.949 . S
H2566 C2543 0.950 . S
H2567 C2545 0.950 . S
C2568 C2569 1.349 1_556 S
C2568 C2570 1.327 . S
C2568 H2593 0.950 . S
C2569 C2568 1.349 1_554 S
C2569 C2585 1.349 . S
C2570 C2568 1.327 . S
C2570 C2589 1.429 1_556 S
C2570 H2594 0.950 . S
C2571 C2588 1.574 1_655 S
C2571 C2590 1.368 . S
C2571 H2595 0.949 . S
H2572 C2576 0.949 . S
C2573 C2574 1.349 1_554 S
C2573 C2575 1.327 . S
C2573 H2596 0.950 . S
C2574 C2573 1.349 1_556 S
C2574 C2586 1.349 . S
C2575 C2573 1.327 . S
C2575 C2591 1.429 1_554 S
C2575 H2597 0.950 . S
C2576 H2572 0.949 . S
C2576 C2584 1.574 1_455 S
C2576 C2592 1.368 . S
H2577 C2585 0.950 . S
H2578 C2583 0.950 . S
H2579 C2584 0.949 . S
H2580 C2586 0.950 . S
H2581 C2587 0.950 . S
H2582 C2588 0.949 . S
C2583 H2578 0.950 . S
C2583 C2585 1.327 . S
C2583 C2589 1.429 . S
C2584 C2576 1.574 1_655 S
C2584 H2579 0.949 . S
C2584 C2590 1.368 1_556 S
C2585 C2569 1.349 . S
C2585 H2577 0.950 . S
C2585 C2583 1.327 . S
C2586 C2574 1.349 . S
C2586 H2580 0.950 . S
C2586 C2587 1.327 . S
C2587 H2581 0.950 . S
C2587 C2586 1.327 . S
C2587 C2591 1.429 . S
C2588 C2571 1.574 1_455 S
C2588 H2582 0.949 . S
C2588 C2592 1.368 1_554 S
C2589 C2570 1.429 1_554 S
C2589 C2583 1.429 . S
C2589 C2590 1.523 . S
C2590 C2571 1.368 . S
C2590 C2584 1.368 1_554 S
C2590 C2589 1.523 . S
C2591 C2575 1.429 1_556 S
C2591 C2587 1.429 . S
C2591 C2592 1.523 . S
C2592 C2576 1.368 . S
C2592 C2588 1.368 1_556 S
C2592 C2591 1.523 . S
H2593 C2568 0.950 . S
H2594 C2570 0.950 . S
H2595 C2571 0.949 . S
H2596 C2573 0.950 . S
H2597 C2575 0.950 . S
C2598 C2599 1.349 . S
C2598 C2600 1.327 . S
C2598 H2623 0.950 . S
C2599 C2598 1.349 . S
C2599 C2615 1.349 . S
C2600 C2598 1.327 . S
C2600 C2619 1.429 . S
C2600 H2624 0.950 . S
C2601 C2618 1.574 . S
C2601 C2620 1.368 1_556 S
C2601 H2625 0.949 . S
H2602 C2606 0.949 . S
C2603 C2604 1.349 . S
C2603 C2605 1.327 . S
C2603 H2626 0.950 . S
C2604 C2603 1.349 . S
C2604 C2616 1.349 . S
C2605 C2603 1.327 . S
C2605 C2621 1.429 . S
C2605 H2627 0.950 . S
C2606 H2602 0.949 . S
C2606 C2614 1.574 . S
C2606 C2622 1.368 1_554 S
H2607 C2615 0.950 1_556 S
H2608 C2613 0.950 . S
H2609 C2614 0.949 . S
H2610 C2616 0.950 1_554 S
H2611 C2617 0.950 . S
H2612 C2618 0.949 . S
C2613 H2608 0.950 . S
C2613 C2615 1.327 1_556 S
C2613 C2619 1.429 1_556 S
C2614 C2606 1.574 . S
C2614 H2609 0.949 . S
C2614 C2620 1.368 . S
C2615 C2599 1.349 . S
C2615 H2607 0.950 1_554 S
C2615 C2613 1.327 1_554 S
C2616 C2604 1.349 . S
C2616 H2610 0.950 1_556 S
C2616 C2617 1.327 1_556 S
C2617 H2611 0.950 . S
C2617 C2616 1.327 1_554 S
C2617 C2621 1.429 1_554 S
C2618 C2601 1.574 . S
C2618 H2612 0.949 . S
C2618 C2622 1.368 . S
C2619 C2600 1.429 . S
C2619 C2613 1.429 1_554 S
C2619 C2620 1.523 . S
C2620 C2601 1.368 1_554 S
C2620 C2614 1.368 . S
C2620 C2619 1.523 . S
C2621 C2605 1.429 . S
C2621 C2617 1.429 1_556 S
C2621 C2622 1.523 . S
C2622 C2606 1.368 1_556 S
C2622 C2618 1.368 . S
C2622 C2621 1.523 . S
H2623 C2598 0.950 . S
H2624 C2600 0.950 . S
H2625 C2601 0.949 . S
H2626 C2603 0.950 . S
H2627 C2605 0.950 . S
C469 C138 0.828 . S
C474 C10 0.842 . S
C499 C151 0.828 . S
C504 C23 0.842 . S
C529 C36 0.842 . S
C534 C125 0.828 . S
C559 C49 0.842 . S
C564 C112 0.828 . S
C589 C62 0.843 . S
C594 C86 0.828 . S
C619 C99 0.828 . S
C624 C75 0.842 . S
C649 C60 0.828 . S
C654 C88 0.842 . S
C679 C73 0.828 . S
C684 C101 0.842 . S
C709 C114 0.842 . S
C714 C47 0.828 . S
C739 C34 0.828 . S
C744 C127 0.842 . S
C769 C140 0.843 . S
C774 C8 0.828 . S
C799 C153 0.842 . S
C804 C21 0.828 . S
C829 C294 0.828 . S
C834 C166 0.842 . S
C859 C307 0.828 . S
C864 C179 0.843 . S
C889 C192 0.842 . S
C894 C281 0.828 . S
C919 C205 0.842 . S
C924 C268 0.828 . S
C949 C218 0.842 . S
C954 C242 0.828 . S
C979 C231 0.842 . S
C984 C255 0.828 . S
C1009 C216 0.828 . S
C1014 C244 0.843 . S
C1039 C229 0.828 . S
C1044 C257 0.843 . S
C1069 C203 0.828 . S
C1074 C270 0.842 . S
C1099 C190 0.828 . S
C1104 C283 0.842 . S
C1129 C164 0.828 . S
C1134 C296 0.842 . S
C1159 C177 0.828 . S
C1164 C309 0.842 . S
C1189 C322 0.843 . S
C1194 C450 0.828 . S
C1219 C463 0.828 . S
C1224 C335 0.843 . S
C1249 C437 0.828 . S
C1254 C348 0.842 . S
C1279 C361 0.842 . S
C1284 C424 0.828 . S
C1309 C374 0.842 . S
C1314 C398 0.828 . S
C1339 C387 0.842 . S
C1344 C411 0.828 . S
C1369 C372 0.828 . S
C1374 C400 0.842 . S
C1399 C385 0.828 . S
C1404 C413 0.843 . S
C1429 C359 0.828 . S
C1434 C426 0.842 . S
C1459 C439 0.842 . S
C1464 C346 0.828 . S
C1489 C320 0.828 . S
C1494 C452 0.842 . S
C1519 C465 0.842 . S
C1524 C333 0.828 . S
C1549 C39 1.246 . S
C1554 C0 1.246 . S
C1579 C52 1.247 . S
C1584 C13 1.247 . S
C1609 C26 1.247 . S
C1614 C65 1.247 . S
C1639 C117 1.247 . S
C1644 C78 1.247 . S
C1669 C130 1.247 . S
C1674 C91 1.247 . S
C1699 C143 1.247 . S
C1704 C104 1.247 . S
C1729 C195 1.247 . S
C1734 C156 1.247 . S
C1759 C208 1.247 . S
C1764 C169 1.247 . S
C1789 C182 1.247 . S
C1794 C221 1.247 . S
C1819 C234 1.246 . S
C1824 C273 1.246 . S
C1849 C286 1.247 . S
C1854 C247 1.247 . S
C1879 C260 1.247 . S
C1884 C299 1.247 . S
C1909 C351 1.247 . S
C1914 C312 1.247 . S
C1939 C364 1.247 . S
C1944 C325 1.247 . S
C1969 C338 1.247 . S
C1974 C377 1.247 . S
C1999 C390 1.247 . S
C2004 C429 1.247 . S
C2029 C403 1.247 . S
C2034 C442 1.247 . S
C2059 C416 1.247 . S
C2064 C455 1.247 . S
C2089 C5 1.271 . S
C2094 C239 1.271 . S
C2119 C252 1.272 . S
C2124 C18 1.272 . S
C2149 C265 1.272 . S
C2154 C31 1.271 . S
C2179 C434 1.271 . S
C2184 C44 1.271 . S
C2209 C447 1.271 . S
C2214 C57 1.271 . S
C2239 C460 1.271 . S
C2244 C70 1.272 . S
C2269 C83 1.271 . S
C2274 C317 1.271 . S
C2299 C330 1.272 . S
C2304 C96 1.272 . S
C2329 C343 1.272 . S
C2334 C109 1.271 . S
C2359 C122 1.271 . S
C2364 C200 1.271 . S
C2389 C135 1.271 . S
C2394 C213 1.271 . S
C2419 C148 1.272 . S
C2424 C226 1.271 . S
C2449 C395 1.271 . S
C2454 C161 1.271 . S
C2479 C408 1.271 . S
C2484 C174 1.271 . S
C2509 C187 1.272 . S
C2514 C421 1.272 . S
C2539 C278 1.271 . S
C2544 C356 1.271 . S
C2569 C291 1.272 . S
C2574 C369 1.272 . S
C2599 C304 1.272 . S
C2604 C382 1.272 . S
