# Generated by pormake.
# Topology wla, (5)-cn, num edge types: 1
# Building blocks:
#     Node 0, Type 0, BuildingBlock: XOMCOT_clean_sbu_0, # of connection points: 5
#     Node 1, Type 0, BuildingBlock: XOMCOT_clean_sbu_0, # of connection points: 5
#     Node 2, Type 0, BuildingBlock: XOMCOT_clean_sbu_0, # of connection points: 5
#     Node 3, Type 0, BuildingBlock: XOMCOT_clean_sbu_0, # of connection points: 5
#     Node 4, Type 0, BuildingBlock: XOMCOT_clean_sbu_0, # of connection points: 5
#     Node 5, Type 0, BuildingBlock: XOMCOT_clean_sbu_0, # of connection points: 5
#     Node 6, Type 0, BuildingBlock: XOMCOT_clean_sbu_0, # of connection points: 5
#     Node 7, Type 0, BuildingBlock: XOMCOT_clean_sbu_0, # of connection points: 5
#     Node 8, Type 0, BuildingBlock: XOMCOT_clean_sbu_0, # of connection points: 5
#     Node 9, Type 0, BuildingBlock: XOMCOT_clean_sbu_0, # of connection points: 5
#     Node 10, Type 0, BuildingBlock: XOMCOT_clean_sbu_0, # of connection points: 5
#     Node 11, Type 0, BuildingBlock: XOMCOT_clean_sbu_0, # of connection points: 5
#     Node 12, Type 0, BuildingBlock: XOMCOT_clean_sbu_0, # of connection points: 5
#     Node 13, Type 0, BuildingBlock: XOMCOT_clean_sbu_0, # of connection points: 5
#     Node 14, Type 0, BuildingBlock: XOMCOT_clean_sbu_0, # of connection points: 5
#     Node 15, Type 0, BuildingBlock: XOMCOT_clean_sbu_0, # of connection points: 5
#     Node 16, Type 0, BuildingBlock: XOMCOT_clean_sbu_0, # of connection points: 5
#     Node 17, Type 0, BuildingBlock: XOMCOT_clean_sbu_0, # of connection points: 5
#     Edge 18, Type (0, 0), BuildingBlock: OJICUG_clean_linker_0, # of connection points: 2
#     Edge 19, Type (0, 0), BuildingBlock: OJICUG_clean_linker_0, # of connection points: 2
#     Edge 20, Type (0, 0), BuildingBlock: OJICUG_clean_linker_0, # of connection points: 2
#     Edge 21, Type (0, 0), BuildingBlock: OJICUG_clean_linker_0, # of connection points: 2
#     Edge 22, Type (0, 0), BuildingBlock: OJICUG_clean_linker_0, # of connection points: 2
#     Edge 23, Type (0, 0), BuildingBlock: OJICUG_clean_linker_0, # of connection points: 2
#     Edge 24, Type (0, 0), BuildingBlock: OJICUG_clean_linker_0, # of connection points: 2
#     Edge 25, Type (0, 0), BuildingBlock: OJICUG_clean_linker_0, # of connection points: 2
#     Edge 26, Type (0, 0), BuildingBlock: OJICUG_clean_linker_0, # of connection points: 2
#     Edge 27, Type (0, 0), BuildingBlock: OJICUG_clean_linker_0, # of connection points: 2
#     Edge 28, Type (0, 0), BuildingBlock: OJICUG_clean_linker_0, # of connection points: 2
#     Edge 29, Type (0, 0), BuildingBlock: OJICUG_clean_linker_0, # of connection points: 2
#     Edge 30, Type (0, 0), BuildingBlock: OJICUG_clean_linker_0, # of connection points: 2
#     Edge 31, Type (0, 0), BuildingBlock: OJICUG_clean_linker_0, # of connection points: 2
#     Edge 32, Type (0, 0), BuildingBlock: OJICUG_clean_linker_0, # of connection points: 2
#     Edge 33, Type (0, 0), BuildingBlock: OJICUG_clean_linker_0, # of connection points: 2
#     Edge 34, Type (0, 0), BuildingBlock: OJICUG_clean_linker_0, # of connection points: 2
#     Edge 35, Type (0, 0), BuildingBlock: OJICUG_clean_linker_0, # of connection points: 2
#     Edge 36, Type (0, 0), BuildingBlock: OJICUG_clean_linker_0, # of connection points: 2
#     Edge 37, Type (0, 0), BuildingBlock: OJICUG_clean_linker_0, # of connection points: 2
#     Edge 38, Type (0, 0), BuildingBlock: OJICUG_clean_linker_0, # of connection points: 2
#     Edge 39, Type (0, 0), BuildingBlock: OJICUG_clean_linker_0, # of connection points: 2
#     Edge 40, Type (0, 0), BuildingBlock: OJICUG_clean_linker_0, # of connection points: 2
#     Edge 41, Type (0, 0), BuildingBlock: OJICUG_clean_linker_0, # of connection points: 2
#     Edge 42, Type (0, 0), BuildingBlock: OJICUG_clean_linker_0, # of connection points: 2
#     Edge 43, Type (0, 0), BuildingBlock: OJICUG_clean_linker_0, # of connection points: 2
#     Edge 44, Type (0, 0), BuildingBlock: OJICUG_clean_linker_0, # of connection points: 2
#     Edge 45, Type (0, 0), BuildingBlock: OJICUG_clean_linker_0, # of connection points: 2
#     Edge 46, Type (0, 0), BuildingBlock: OJICUG_clean_linker_0, # of connection points: 2
#     Edge 47, Type (0, 0), BuildingBlock: OJICUG_clean_linker_0, # of connection points: 2
#     Edge 48, Type (0, 0), BuildingBlock: OJICUG_clean_linker_0, # of connection points: 2
#     Edge 49, Type (0, 0), BuildingBlock: OJICUG_clean_linker_0, # of connection points: 2
#     Edge 50, Type (0, 0), BuildingBlock: OJICUG_clean_linker_0, # of connection points: 2
#     Edge 51, Type (0, 0), BuildingBlock: OJICUG_clean_linker_0, # of connection points: 2
#     Edge 52, Type (0, 0), BuildingBlock: OJICUG_clean_linker_0, # of connection points: 2
#     Edge 53, Type (0, 0), BuildingBlock: OJICUG_clean_linker_0, # of connection points: 2
#     Edge 54, Type (0, 0), BuildingBlock: OJICUG_clean_linker_0, # of connection points: 2
#     Edge 55, Type (0, 0), BuildingBlock: OJICUG_clean_linker_0, # of connection points: 2
#     Edge 56, Type (0, 0), BuildingBlock: OJICUG_clean_linker_0, # of connection points: 2
#     Edge 57, Type (0, 0), BuildingBlock: OJICUG_clean_linker_0, # of connection points: 2
#     Edge 58, Type (0, 0), BuildingBlock: OJICUG_clean_linker_0, # of connection points: 2
#     Edge 59, Type (0, 0), BuildingBlock: OJICUG_clean_linker_0, # of connection points: 2
#     Edge 60, Type (0, 0), BuildingBlock: OJICUG_clean_linker_0, # of connection points: 2
#     Edge 61, Type (0, 0), BuildingBlock: OJICUG_clean_linker_0, # of connection points: 2
#     Edge 62, Type (0, 0), BuildingBlock: OJICUG_clean_linker_0, # of connection points: 2
# Relax obj value: 0.268
# Max RMSD: 0.261
# Mean RMSD: 0.261
data_MOF--net-wla--node1-XOMCOT_clean_sbu_0--edge1-OJICUG_clean_linker_0
_symmetry_space_group_name_H-M    P1
_symmetry_Int_Tables_number       1
_symmetry_cell_setting            triclinic
loop_
_symmetry_equiv_pos_as_xyz
'x, y, z'
_cell_length_a     45.424028
_cell_length_b     45.380674
_cell_length_c     23.924251
_cell_angle_alpha  89.9807
_cell_angle_beta   90.024901
_cell_angle_gamma 120.04061
loop_
_atom_site_label
_atom_site_type_symbol
_atom_site_fract_x
_atom_site_fract_y
_atom_site_fract_z
_atom_type_partial_charge
Co0 Co 0.16968 0.02945 0.19326 0.0
C1 C 0.24099 0.08468 0.18807 0.0
C2 C 0.20686 0.10131 0.15946 0.0
C3 C 0.23971 0.12783 0.15374 0.0
N4 N 0.20782 0.07445 0.18123 0.0
N5 N 0.26112 0.11728 0.17158 0.0
H6 H 0.25006 0.06842 0.20437 0.0
H7 H 0.18397 0.10133 0.1471 0.0
C8 C 0.12429 0.05107 0.25343 0.0
O9 O 0.12241 0.03415 0.29911 0.0
N10 N 0.13063 0.98361 0.20351 0.0
C11 C 0.13096 0.95402 0.20009 0.0
C12 C 0.09877 0.92723 0.2092 0.0
C13 C 0.09749 0.97389 0.2118 0.0
N14 N 0.07778 0.93977 0.21679 0.0
C15 C 0.18574 0.00429 0.29244 0.0
C16 C 0.1991 0.05877 0.36024 0.0
C17 C 0.19644 0.02938 0.38487 0.0
C18 C 0.19108 0.00249 0.34944 0.0
C19 C 0.19285 0.05914 0.30307 0.0
N20 N 0.18382 0.03107 0.27074 0.0
H21 H 0.18243 0.98367 0.26617 0.0
H22 H 0.19361 0.08143 0.28538 0.0
H23 H 0.153 0.95168 0.19108 0.0
H24 H 0.08753 0.99099 0.21328 0.0
O25 O 0.19502 0.01035 0.15828 0.0
O26 O 0.16133 0.02548 0.11455 0.0
O27 O 0.14102 0.05064 0.21095 0.0
C28 C 0.18191 0.01347 0.11173 0.0
H29 H 0.24722 0.15251 0.13588 0.0
H30 H 0.09123 0.90052 0.20889 0.0
H31 H 0.20483 0.08096 0.38503 0.0
H32 H 0.18941 0.97942 0.36553 0.0
Co33 Co 0.97114 0.13533 0.19546 0.0
C34 C 0.91558 0.15218 0.19545 0.0
C35 C 0.90425 0.10898 0.14439 0.0
C36 C 0.87951 0.1175 0.13557 0.0
N37 N 0.92688 0.13066 0.18207 0.0
N38 N 0.88678 0.14459 0.1678 0.0
H39 H 0.929 0.17437 0.22147 0.0
H40 H 0.90667 0.08946 0.12245 0.0
C41 C 0.92067 0.06462 0.23167 0.0
O42 O 0.9034 0.07683 0.25705 0.0
N43 N 0.0153 0.14004 0.20744 0.0
C44 C 0.04201 0.16686 0.23193 0.0
C45 C 0.06631 0.15818 0.24415 0.0
C46 C 0.02388 0.11562 0.20406 0.0
N47 N 0.05478 0.12603 0.22662 0.0
C48 C 0.97684 0.17653 0.29151 0.0
C49 C 0.97947 0.1329 0.36922 0.0
C50 C 0.98585 0.16493 0.38681 0.0
C51 C 0.98374 0.1867 0.34762 0.0
C52 C 0.97246 0.1237 0.31329 0.0
N53 N 0.97071 0.1451 0.27489 0.0
H54 H 0.97899 0.19501 0.261 0.0
H55 H 0.97134 0.10039 0.30069 0.0
H56 H 0.04292 0.19041 0.24302 0.0
H57 H 0.00719 0.09016 0.18851 0.0
O58 O 0.99266 0.18122 0.16461 0.0
O59 O 0.97616 0.13356 0.11644 0.0
O60 O 0.94892 0.08475 0.208 0.0
C61 C 0.98926 0.16634 0.11653 0.0
H62 H 0.85842 0.10544 0.10662 0.0
H63 H 0.09022 0.17388 0.26546 0.0
H64 H 0.98151 0.11561 0.39811 0.0
H65 H 0.98957 0.21209 0.35947 0.0
Co66 Co 0.86468 0.83027 0.19443 0.0
C67 C 0.84946 0.75841 0.19658 0.0
C68 C 0.89987 0.79275 0.16777 0.0
C69 C 0.89357 0.76004 0.16071 0.0
N70 N 0.87252 0.7919 0.19152 0.0
N71 N 0.86173 0.73837 0.17853 0.0
H72 H 0.82353 0.74878 0.2094 0.0
H73 H 0.92203 0.8155 0.15267 0.0
C74 C 0.93347 0.85663 0.24561 0.0
O75 O 0.92067 0.82902 0.27662 0.0
N76 N 0.85632 0.8681 0.1957 0.0
C77 C 0.82549 0.86509 0.20254 0.0
C78 C 0.82949 0.89694 0.20906 0.0
C79 C 0.87876 0.90184 0.19814 0.0
N80 N 0.86298 0.92006 0.20677 0.0
C81 C 0.82193 0.79525 0.29061 0.0
C82 C 0.85888 0.84785 0.36459 0.0
C83 C 0.82902 0.81948 0.38345 0.0
C84 C 0.81056 0.79262 0.34604 0.0
C85 C 0.86936 0.84931 0.30963 0.0
N86 N 0.85157 0.82297 0.27329 0.0
H87 H 0.80582 0.77592 0.26116 0.0
H88 H 0.89105 0.87272 0.29586 0.0
H89 H 0.80174 0.84126 0.2049 0.0
H90 H 0.90605 0.91271 0.19649 0.0
O91 O 0.82073 0.80264 0.15798 0.0
O92 O 0.87023 0.83407 0.11505 0.0
O93 O 0.9142 0.8617 0.21293 0.0
C94 C 0.83772 0.81349 0.11134 0.0
H95 H 0.91027 0.75288 0.14015 0.0
H96 H 0.80923 0.90252 0.21582 0.0
H97 H 0.87374 0.86935 0.39189 0.0
H98 H 0.7868 0.77066 0.35869 0.0
Co99 Co 0.03415 0.16882 0.81252 0.0
C100 C 0.09047 0.24069 0.81005 0.0
C101 C 0.10659 0.20699 0.84191 0.0
C102 C 0.13271 0.2399 0.84877 0.0
N103 N 0.08026 0.20733 0.81642 0.0
N104 N 0.12247 0.26115 0.82904 0.0
H105 H 0.07421 0.24999 0.79543 0.0
H106 H 0.10605 0.18447 0.85812 0.0
C107 C 0.07733 0.14233 0.76494 0.0
O108 O 0.09312 0.17001 0.73426 0.0
N109 N 0.98801 0.13086 0.81004 0.0
C110 C 0.96019 0.13377 0.80228 0.0
C111 C 0.93253 0.10192 0.7945 0.0
C112 C 0.97687 0.09715 0.80688 0.0
N113 N 0.94301 0.07889 0.7969 0.0
C114 C 0.02775 0.20381 0.71514 0.0
C115 C 0.01872 0.15371 0.64002 0.0
C116 C 0.01939 0.18293 0.61981 0.0
C117 C 0.02306 0.20791 0.65818 0.0
C118 C 0.02298 0.1505 0.6967 0.0
N119 N 0.02948 0.17615 0.73335 0.0
H120 H 0.0288 0.22228 0.74455 0.0
H121 H 0.02018 0.12671 0.71098 0.0
H122 H 0.96019 0.15757 0.80005 0.0
H123 H 0.99333 0.08635 0.80889 0.0
O124 O 0.01758 0.1966 0.84764 0.0
O125 O 0.03514 0.16503 0.89177 0.0
O126 O 0.05242 0.13744 0.79592 0.0
C127 C 0.02363 0.18596 0.89462 0.0
H128 H 0.15642 0.24755 0.8703 0.0
H129 H 0.90675 0.09627 0.78668 0.0
H130 H 0.01409 0.13295 0.61226 0.0
H131 H 0.02233 0.23026 0.64437 0.0
Co132 Co 0.83171 0.86374 0.80946 0.0
C133 C 0.76002 0.84879 0.81177 0.0
C134 C 0.79417 0.89614 0.85138 0.0
C135 C 0.76147 0.88962 0.85937 0.0
N136 N 0.79338 0.87087 0.82054 0.0
N137 N 0.73997 0.85971 0.8347 0.0
H138 H 0.75038 0.82446 0.79167 0.0
H139 H 0.81688 0.91697 0.86951 0.0
C140 C 0.85583 0.93459 0.76846 0.0
O141 O 0.82703 0.92299 0.74109 0.0
N142 N 0.86955 0.85609 0.79959 0.0
C143 C 0.86674 0.82599 0.78598 0.0
C144 C 0.8986 0.83089 0.77541 0.0
C145 C 0.90312 0.879 0.79715 0.0
N146 N 0.92144 0.86424 0.78207 0.0
C147 C 0.79469 0.82271 0.71344 0.0
C148 C 0.84052 0.86591 0.63479 0.0
C149 C 0.81221 0.83577 0.61655 0.0
C150 C 0.78935 0.81359 0.65665 0.0
C151 C 0.84519 0.87362 0.69148 0.0
N152 N 0.82161 0.85316 0.73012 0.0
H153 H 0.778 0.80457 0.74399 0.0
H154 H 0.86879 0.89551 0.70406 0.0
H155 H 0.843 0.80223 0.78211 0.0
H156 H 0.91377 0.90601 0.80392 0.0
O157 O 0.80542 0.8185 0.84251 0.0
O158 O 0.83819 0.8665 0.88872 0.0
O159 O 0.86226 0.91403 0.79499 0.0
C160 C 0.81769 0.83388 0.89003 0.0
H161 H 0.75407 0.90471 0.8844 0.0
H162 H 0.9044 0.8114 0.76324 0.0
H163 H 0.85977 0.88289 0.60552 0.0
H164 H 0.76782 0.78941 0.64433 0.0
Co165 Co 0.13497 0.96587 0.80745 0.0
C166 C 0.15194 0.91081 0.7989 0.0
C167 C 0.10142 0.8925 0.82941 0.0
C168 C 0.10871 0.86659 0.83324 0.0
N169 N 0.12824 0.9201 0.80665 0.0
N170 N 0.14061 0.87823 0.81444 0.0
H171 H 0.17767 0.928 0.78578 0.0
H172 H 0.07898 0.89193 0.84591 0.0
C173 C 0.0658 0.92328 0.75685 0.0
O174 O 0.07827 0.90892 0.72413 0.0
N175 N 0.14239 0.01172 0.80941 0.0
C176 C 0.1731 0.04013 0.80518 0.0
C177 C 0.16861 0.06761 0.79775 0.0
C178 C 0.11953 0.02234 0.80452 0.0
N179 N 0.13497 0.05639 0.79685 0.0
C180 C 0.17917 0.97876 0.71211 0.0
C181 C 0.13984 0.9911 0.63814 0.0
C182 C 0.1712 0.99594 0.61973 0.0
C183 C 0.19093 0.98936 0.65743 0.0
C184 C 0.12937 0.98098 0.69278 0.0
N185 N 0.14825 0.97379 0.72889 0.0
H186 H 0.19583 0.97645 0.7416 0.0
H187 H 0.10664 0.9807 0.70634 0.0
H188 H 0.1972 0.04074 0.80455 0.0
H189 H 0.0923 0.00546 0.80315 0.0
O190 O 0.17899 0.98221 0.84339 0.0
O191 O 0.1293 0.96213 0.88669 0.0
O192 O 0.08535 0.94724 0.78988 0.0
C193 C 0.1619 0.97463 0.89006 0.0
H194 H 0.0927 0.84197 0.8523 0.0
H195 H 0.18861 0.09374 0.79204 0.0
H196 H 0.12353 0.99571 0.61088 0.0
H197 H 0.21579 0.99368 0.64561 0.0
Co198 Co 0.83643 0.37084 0.53887 0.0
C199 C 0.90844 0.42756 0.53862 0.0
C200 C 0.87574 0.43823 0.48852 0.0
C201 C 0.90883 0.46332 0.47912 0.0
N202 N 0.87539 0.41577 0.52594 0.0
N203 N 0.92921 0.45652 0.51074 0.0
H204 H 0.91761 0.41416 0.56388 0.0
H205 H 0.85356 0.43535 0.4668 0.0
C206 C 0.81438 0.41976 0.57507 0.0
O207 O 0.8438 0.43772 0.60045 0.0
N208 N 0.79796 0.32578 0.5505 0.0
C209 C 0.80027 0.29858 0.56662 0.0
C210 C 0.76814 0.27176 0.576 0.0
C211 C 0.76438 0.31518 0.55016 0.0
N212 N 0.74556 0.28219 0.56597 0.0
C213 C 0.87189 0.36512 0.63507 0.0
C214 C 0.82562 0.36269 0.71246 0.0
C215 C 0.85075 0.35561 0.73032 0.0
C216 C 0.8747 0.35772 0.69117 0.0
C217 C 0.82345 0.36944 0.65649 0.0
N218 N 0.84665 0.37123 0.61824 0.0
H219 H 0.88851 0.36342 0.60466 0.0
H220 H 0.80121 0.37039 0.64393 0.0
H221 H 0.82382 0.29847 0.57249 0.0
H222 H 0.754 0.33145 0.54037 0.0
O223 O 0.86174 0.3506 0.50705 0.0
O224 O 0.82925 0.36589 0.46006 0.0
O225 O 0.80688 0.3916 0.55165 0.0
C226 C 0.84919 0.35318 0.45947 0.0
H227 H 0.9174 0.48415 0.4497 0.0
H228 H 0.76194 0.24649 0.58924 0.0
H229 H 0.80645 0.36123 0.74108 0.0
H230 H 0.89404 0.35159 0.70296 0.0
Co231 Co 0.63549 0.47332 0.51948 0.0
C232 C 0.57691 0.48567 0.52197 0.0
C233 C 0.56783 0.44369 0.46937 0.0
C234 C 0.54156 0.45021 0.46215 0.0
N235 N 0.59003 0.46588 0.50698 0.0
N236 N 0.54736 0.47649 0.49539 0.0
H237 H 0.58957 0.50786 0.54823 0.0
H238 H 0.5715 0.42525 0.44643 0.0
C239 C 0.58788 0.40219 0.55696 0.0
O240 O 0.56996 0.41372 0.58222 0.0
N241 N 0.6811 0.48158 0.53082 0.0
C242 C 0.7081 0.5122 0.54302 0.0
C243 C 0.73559 0.50826 0.55367 0.0
C244 C 0.69246 0.45927 0.53445 0.0
N245 N 0.72577 0.47497 0.5487 0.0
C246 C 0.63944 0.5139 0.61621 0.0
C247 C 0.63985 0.46918 0.69417 0.0
C248 C 0.64259 0.4996 0.713 0.0
C249 C 0.64299 0.52253 0.67325 0.0
C250 C 0.63706 0.46196 0.63735 0.0
N251 N 0.63503 0.4832 0.59896 0.0
H252 H 0.64155 0.53248 0.58587 0.0
H253 H 0.63831 0.43988 0.62461 0.0
H254 H 0.70767 0.53577 0.54551 0.0
H255 H 0.6765 0.4321 0.52877 0.0
O256 O 0.65433 0.5187 0.4867 0.0
O257 O 0.64033 0.47102 0.44047 0.0
O258 O 0.61586 0.42293 0.53297 0.0
C259 C 0.65216 0.50357 0.43925 0.0
H260 H 0.52049 0.4375 0.43329 0.0
H261 H 0.76086 0.52846 0.56445 0.0
H262 H 0.64136 0.45161 0.72311 0.0
H263 H 0.64635 0.54692 0.68603 0.0
Co264 Co 0.53228 0.16727 0.52479 0.0
C265 C 0.5161 0.09512 0.52795 0.0
C266 C 0.56749 0.129 0.50315 0.0
C267 C 0.56083 0.09612 0.49665 0.0
N268 N 0.5397 0.12855 0.52412 0.0
N269 N 0.52837 0.0747 0.51198 0.0
H270 H 0.48985 0.08585 0.53819 0.0
H271 H 0.59029 0.15159 0.48941 0.0
C272 C 0.60068 0.19468 0.57834 0.0
O273 O 0.58771 0.16765 0.61073 0.0
N274 N 0.52436 0.20545 0.52382 0.0
C275 C 0.4936 0.20275 0.52951 0.0
C276 C 0.4978 0.23473 0.53497 0.0
C277 C 0.54699 0.2392 0.52584 0.0
N278 N 0.53135 0.25767 0.53321 0.0
C279 C 0.48963 0.13283 0.62108 0.0
C280 C 0.5257 0.18618 0.69419 0.0
C281 C 0.49644 0.1573 0.71354 0.0
C282 C 0.47837 0.13016 0.6765 0.0
C283 C 0.53612 0.18764 0.63918 0.0
N284 N 0.51886 0.16087 0.60342 0.0
H285 H 0.4738 0.11314 0.59201 0.0
H286 H 0.55753 0.21117 0.625 0.0
H287 H 0.46972 0.17904 0.53195 0.0
H288 H 0.57427 0.24993 0.525 0.0
O289 O 0.48837 0.13945 0.48868 0.0
O290 O 0.53798 0.16997 0.44545 0.0
O291 O 0.58173 0.19877 0.5435 0.0
C292 C 0.50541 0.14952 0.442 0.0
H293 H 0.57791 0.08873 0.47818 0.0
H294 H 0.47763 0.24053 0.54088 0.0
H295 H 0.54027 0.20789 0.72122 0.0
H296 H 0.45503 0.10781 0.68951 0.0
Co297 Co 0.70125 0.50191 0.13474 0.0
C298 C 0.75775 0.57348 0.13276 0.0
C299 C 0.77448 0.53918 0.15877 0.0
C300 C 0.80076 0.57195 0.16636 0.0
N301 N 0.74762 0.54001 0.13644 0.0
N302 N 0.79012 0.59357 0.15037 0.0
H303 H 0.74112 0.58302 0.12156 0.0
H304 H 0.77422 0.5164 0.17281 0.0
C305 C 0.74215 0.4737 0.08263 0.0
O306 O 0.75765 0.5012 0.0515 0.0
N307 N 0.65492 0.46448 0.1346 0.0
C308 C 0.62723 0.46771 0.12755 0.0
C309 C 0.59923 0.43591 0.12135 0.0
C310 C 0.6434 0.43071 0.13271 0.0
N311 N 0.60943 0.41268 0.12412 0.0
C312 C 0.69344 0.5371 0.03905 0.0
C313 C 0.67666 0.48445 0.96469 0.0
C314 C 0.67579 0.51323 0.94615 0.0
C315 C 0.68471 0.54006 0.9838 0.0
C316 C 0.6858 0.48271 0.01955 0.0
N317 N 0.69493 0.50909 0.05603 0.0
H318 H 0.69705 0.55648 0.06863 0.0
H319 H 0.68375 0.45911 0.03313 0.0
H320 H 0.62754 0.49164 0.12465 0.0
H321 H 0.65965 0.41966 0.13457 0.0
O322 O 0.68569 0.53011 0.17143 0.0
O323 O 0.70365 0.49856 0.21421 0.0
O324 O 0.71843 0.46969 0.11589 0.0
C325 C 0.69214 0.51949 0.21805 0.0
H326 H 0.82486 0.57914 0.18616 0.0
H327 H 0.57344 0.43042 0.11426 0.0
H328 H 0.66957 0.46294 0.9372 0.0
H329 H 0.68336 0.56232 0.97146 0.0
Co330 Co 0.49869 0.198 0.1407 0.0
C331 C 0.42689 0.18197 0.14098 0.0
C332 C 0.45996 0.22978 0.18021 0.0
C333 C 0.42694 0.22255 0.18727 0.0
N334 N 0.46 0.20465 0.15015 0.0
N335 N 0.40619 0.19233 0.16287 0.0
H336 H 0.41785 0.15756 0.12153 0.0
H337 H 0.4823 0.251 0.19851 0.0
C338 C 0.52233 0.26839 0.09875 0.0
O339 O 0.49368 0.2564 0.07078 0.0
N340 N 0.53688 0.19079 0.13248 0.0
C341 C 0.5342 0.16048 0.12132 0.0
C342 C 0.5661 0.16521 0.11269 0.0
C343 C 0.57047 0.21373 0.13028 0.0
N344 N 0.58894 0.19871 0.11778 0.0
C345 C 0.46268 0.15692 0.04415 0.0
C346 C 0.50874 0.20068 0.96633 0.0
C347 C 0.48032 0.17082 0.94758 0.0
C348 C 0.45742 0.14827 0.98723 0.0
C349 C 0.51329 0.20793 0.02313 0.0
N350 N 0.48944 0.18732 0.06131 0.0
H351 H 0.44596 0.13852 0.07438 0.0
H352 H 0.53685 0.22971 0.03615 0.0
H353 H 0.51055 0.13658 0.11822 0.0
H354 H 0.58105 0.24083 0.1358 0.0
O355 O 0.4724 0.15277 0.17356 0.0
O356 O 0.50439 0.20091 0.22005 0.0
O357 O 0.52889 0.2482 0.12612 0.0
C358 C 0.48414 0.16823 0.22118 0.0
H359 H 0.4188 0.23733 0.21151 0.0
H360 H 0.57189 0.14534 0.10332 0.0
H361 H 0.52806 0.21786 0.93731 0.0
H362 H 0.43588 0.12422 0.97443 0.0
Co363 Co 0.80386 0.30052 0.15149 0.0
C364 C 0.82077 0.2453 0.14658 0.0
C365 C 0.78006 0.23413 0.20368 0.0
C366 C 0.78937 0.20988 0.21024 0.0
N367 N 0.7994 0.25618 0.16327 0.0
N368 N 0.81487 0.21696 0.17439 0.0
H369 H 0.84179 0.25917 0.11806 0.0
H370 H 0.76138 0.23639 0.22846 0.0
C371 C 0.73193 0.249 0.11391 0.0
O372 O 0.73898 0.2243 0.11275 0.0
N373 N 0.80887 0.34563 0.14241 0.0
C374 C 0.83623 0.37562 0.15716 0.0
C375 C 0.83054 0.4017 0.1434 0.0
C376 C 0.78653 0.35414 0.12076 0.0
N377 N 0.79935 0.38823 0.12065 0.0
C378 C 0.84953 0.33238 0.05911 0.0
C379 C 0.81258 0.28273 0.98101 0.0
C380 C 0.83902 0.31424 0.96228 0.0
C381 C 0.85866 0.3387 0.00265 0.0
C382 C 0.80384 0.27792 0.03747 0.0
N383 N 0.82088 0.30332 0.07543 0.0
H384 H 0.86474 0.35163 0.08939 0.0
H385 H 0.78313 0.25381 0.04988 0.0
H386 H 0.85918 0.37873 0.1762 0.0
H387 H 0.76158 0.33606 0.10498 0.0
O388 O 0.84643 0.31983 0.19275 0.0
O389 O 0.79522 0.3019 0.22948 0.0
O390 O 0.75482 0.27963 0.12535 0.0
C391 C 0.82765 0.3144 0.23704 0.0
H392 H 0.77915 0.18936 0.24046 0.0
H393 H 0.84773 0.42855 0.15071 0.0
H394 H 0.79781 0.2622 0.95204 0.0
H395 H 0.87977 0.36325 0.9908 0.0
Co396 Co 0.50175 0.70033 0.85863 0.0
C397 C 0.57398 0.75558 0.86395 0.0
C398 C 0.54096 0.7741 0.83891 0.0
C399 C 0.57402 0.80026 0.83433 0.0
N400 N 0.54079 0.74619 0.85888 0.0
N401 N 0.5948 0.78851 0.84979 0.0
H402 H 0.58292 0.73831 0.87414 0.0
H403 H 0.5187 0.77485 0.82494 0.0
C404 C 0.47563 0.74202 0.91419 0.0
O405 O 0.5027 0.75584 0.94644 0.0
N406 N 0.46317 0.65451 0.85708 0.0
C407 C 0.46527 0.62603 0.86206 0.0
C408 C 0.43321 0.59877 0.87037 0.0
C409 C 0.42976 0.64415 0.86215 0.0
N410 N 0.41094 0.61021 0.87092 0.0
C411 C 0.53589 0.68942 0.9528 0.0
C412 C 0.48387 0.67371 0.02788 0.0
C413 C 0.5122 0.67189 0.04578 0.0
C414 C 0.53869 0.68016 0.00778 0.0
C415 C 0.48232 0.68341 0.97337 0.0
N416 N 0.50848 0.69217 0.93663 0.0
H417 H 0.55491 0.69257 0.92283 0.0
H418 H 0.45911 0.68235 0.96036 0.0
H419 H 0.4887 0.62532 0.86281 0.0
H420 H 0.41962 0.66122 0.86312 0.0
O421 O 0.52879 0.68417 0.81976 0.0
O422 O 0.4985 0.7045 0.77969 0.0
O423 O 0.47107 0.71878 0.87943 0.0
C424 C 0.51862 0.69215 0.77411 0.0
H425 H 0.58209 0.82526 0.81727 0.0
H426 H 0.42692 0.57267 0.87706 0.0
H427 H 0.46262 0.66708 0.05568 0.0
H428 H 0.56055 0.67801 0.01968 0.0
Co429 Co 0.30261 0.80398 0.8648 0.0
C430 C 0.24617 0.81933 0.85719 0.0
C431 C 0.23389 0.77214 0.81788 0.0
C432 C 0.20792 0.77868 0.80763 0.0
N433 N 0.2576 0.79724 0.85004 0.0
N434 N 0.21575 0.80846 0.83212 0.0
H435 H 0.26033 0.84357 0.8778 0.0
H436 H 0.23616 0.75137 0.80051 0.0
C437 C 0.25451 0.73288 0.90296 0.0
O438 O 0.23692 0.74448 0.92908 0.0
N439 N 0.34764 0.81112 0.87817 0.0
C440 C 0.37454 0.84061 0.89521 0.0
C441 C 0.40117 0.8352 0.90612 0.0
C442 C 0.35818 0.7881 0.87885 0.0
N443 N 0.39084 0.80216 0.89615 0.0
C444 C 0.30401 0.84387 0.96076 0.0
C445 C 0.30527 0.80005 0.03971 0.0
C446 C 0.30683 0.83007 0.05791 0.0
C447 C 0.30676 0.85252 0.01769 0.0
C448 C 0.30329 0.79282 0.98292 0.0
N449 N 0.30096 0.81364 0.94401 0.0
H450 H 0.30601 0.86225 0.93022 0.0
H451 H 0.3053 0.77108 0.97053 0.0
H452 H 0.37452 0.86424 0.90078 0.0
H453 H 0.342 0.76147 0.86883 0.0
O454 O 0.32268 0.84963 0.83303 0.0
O455 O 0.30853 0.80212 0.78601 0.0
O456 O 0.2822 0.75351 0.87817 0.0
C457 C 0.32077 0.83477 0.78544 0.0
H458 H 0.18598 0.76367 0.78138 0.0
H459 H 0.42618 0.8542 0.92045 0.0
H460 H 0.30708 0.78287 0.06914 0.0
H461 H 0.30921 0.87661 0.03003 0.0
Co462 Co 0.19775 0.49872 0.85932 0.0
C463 C 0.18236 0.42688 0.86499 0.0
C464 C 0.2326 0.46054 0.83473 0.0
C465 C 0.22614 0.42767 0.82947 0.0
N466 N 0.20547 0.46024 0.85829 0.0
N467 N 0.19441 0.40643 0.84819 0.0
H468 H 0.15653 0.41753 0.87817 0.0
H469 H 0.2547 0.48295 0.81858 0.0
C470 C 0.26743 0.52637 0.90836 0.0
O471 O 0.25553 0.4995 0.94097 0.0
N472 N 0.18959 0.53673 0.85888 0.0
C473 C 0.15878 0.53398 0.86417 0.0
C474 C 0.16296 0.56588 0.87114 0.0
C475 C 0.21219 0.57041 0.86266 0.0
N476 N 0.19654 0.58878 0.87072 0.0
C477 C 0.15552 0.46532 0.95652 0.0
C478 C 0.19351 0.51829 0.0293 0.0
C479 C 0.16363 0.49024 0.04899 0.0
C480 C 0.14463 0.46323 0.01212 0.0
C481 C 0.20353 0.5192 0.97414 0.0
N482 N 0.18523 0.49264 0.93844 0.0
H483 H 0.13905 0.44585 0.92756 0.0
H484 H 0.22535 0.54232 0.95978 0.0
H485 H 0.13486 0.51026 0.86552 0.0
H486 H 0.23947 0.58111 0.86279 0.0
O487 O 0.15353 0.47048 0.82399 0.0
O488 O 0.20274 0.50119 0.77987 0.0
O489 O 0.24738 0.53045 0.87606 0.0
C490 C 0.17023 0.48046 0.77696 0.0
H491 H 0.24264 0.41999 0.80955 0.0
H492 H 0.14277 0.57164 0.87727 0.0
H493 H 0.20882 0.53989 0.05613 0.0
H494 H 0.12084 0.44151 0.02536 0.0
Co495 Co 0.3672 0.83644 0.47935 0.0
C496 C 0.42287 0.90869 0.47401 0.0
C497 C 0.44093 0.87515 0.49823 0.0
C498 C 0.46714 0.90811 0.50373 0.0
N499 N 0.41323 0.87532 0.47828 0.0
N500 N 0.45577 0.92932 0.48876 0.0
H501 H 0.40567 0.91777 0.46432 0.0
H502 H 0.44143 0.85272 0.512 0.0
C503 C 0.40792 0.80927 0.42381 0.0
O504 O 0.42155 0.83614 0.39105 0.0
N505 N 0.32123 0.79808 0.482 0.0
C506 C 0.29296 0.8006 0.47863 0.0
C507 C 0.26524 0.76861 0.47277 0.0
C508 C 0.31027 0.76441 0.47825 0.0
N509 N 0.2761 0.74586 0.47197 0.0
C510 C 0.35692 0.87026 0.38379 0.0
C511 C 0.33943 0.81685 0.31071 0.0
C512 C 0.33836 0.84541 0.2916 0.0
C513 C 0.34755 0.8726 0.32864 0.0
C514 C 0.34919 0.81573 0.36536 0.0
N515 N 0.35879 0.84252 0.40112 0.0
H516 H 0.36096 0.88999 0.41293 0.0
H517 H 0.34763 0.7924 0.37926 0.0
H518 H 0.29258 0.82423 0.47777 0.0
H519 H 0.32696 0.75385 0.47677 0.0
O520 O 0.35155 0.86412 0.51751 0.0
O521 O 0.37165 0.83383 0.55838 0.0
O522 O 0.38512 0.80516 0.45915 0.0
C523 C 0.35945 0.85412 0.56343 0.0
H524 H 0.49188 0.91572 0.52134 0.0
H525 H 0.23913 0.76268 0.46811 0.0
H526 H 0.33227 0.79511 0.28373 0.0
H527 H 0.3461 0.89474 0.31586 0.0
Co528 Co 0.16514 0.53041 0.47695 0.0
C529 C 0.0938 0.51724 0.47717 0.0
C530 C 0.1276 0.56048 0.52668 0.0
C531 C 0.09489 0.55365 0.53595 0.0
N532 N 0.12705 0.53776 0.48963 0.0
N533 N 0.07381 0.52655 0.5047 0.0
H534 H 0.08386 0.49441 0.45238 0.0
H535 H 0.15011 0.57943 0.54821 0.0
C536 C 0.18903 0.60181 0.44073 0.0
O537 O 0.15986 0.5905 0.41461 0.0
N538 N 0.20277 0.5225 0.46579 0.0
C539 C 0.19959 0.49233 0.45172 0.0
C540 C 0.23138 0.49665 0.44313 0.0
C541 C 0.23652 0.54492 0.46543 0.0
N542 N 0.25466 0.52974 0.45135 0.0
C543 C 0.1285 0.49106 0.3794 0.0
C544 C 0.17459 0.53565 0.30236 0.0
C545 C 0.14658 0.50563 0.28295 0.0
C546 C 0.12354 0.4828 0.32225 0.0
C547 C 0.17886 0.54253 0.35934 0.0
N548 N 0.1552 0.52132 0.39726 0.0
H549 H 0.11168 0.47243 0.40931 0.0
H550 H 0.20232 0.56431 0.37267 0.0
H551 H 0.1757 0.46883 0.44689 0.0
H552 H 0.24747 0.57184 0.4736 0.0
O553 O 0.13833 0.48465 0.508 0.0
O554 O 0.17157 0.53173 0.55609 0.0
O555 O 0.19598 0.58089 0.46477 0.0
C556 C 0.15065 0.49919 0.55606 0.0
H557 H 0.08702 0.56667 0.56503 0.0
H558 H 0.2368 0.47679 0.43167 0.0
H559 H 0.194 0.55313 0.27378 0.0
H560 H 0.10219 0.45872 0.30906 0.0
Co561 Co 0.47021 0.63597 0.47171 0.0
C562 C 0.48392 0.57806 0.47236 0.0
C563 C 0.44253 0.56957 0.52584 0.0
C564 C 0.44947 0.54365 0.5342 0.0
N565 N 0.4641 0.5912 0.48701 0.0
N566 N 0.47536 0.54907 0.50039 0.0
H567 H 0.50558 0.59024 0.44496 0.0
H568 H 0.42412 0.57336 0.5486 0.0
C569 C 0.39947 0.58632 0.43524 0.0
O570 O 0.41144 0.56835 0.41153 0.0
N571 N 0.47674 0.68076 0.45767 0.0
C572 C 0.50607 0.70779 0.44044 0.0
C573 C 0.50043 0.73428 0.42957 0.0
C574 C 0.45358 0.6911 0.45716 0.0
N575 N 0.46741 0.72377 0.43978 0.0
C576 C 0.51118 0.63917 0.37647 0.0
C577 C 0.46613 0.63684 0.29662 0.0
C578 C 0.49699 0.64016 0.27899 0.0
C579 C 0.52003 0.64189 0.31968 0.0
C580 C 0.45866 0.63487 0.3533 0.0
N581 N 0.48016 0.63426 0.39269 0.0
H582 H 0.52984 0.64232 0.40742 0.0
H583 H 0.43619 0.63564 0.36507 0.0
H584 H 0.52978 0.70797 0.43489 0.0
H585 H 0.42703 0.67483 0.46754 0.0
O586 O 0.51578 0.6566 0.50389 0.0
O587 O 0.46811 0.64224 0.55036 0.0
O588 O 0.41977 0.61483 0.45819 0.0
C589 C 0.50074 0.65472 0.55127 0.0
H590 H 0.4372 0.52302 0.56397 0.0
H591 H 0.51928 0.75937 0.41523 0.0
H592 H 0.44841 0.63735 0.26682 0.0
H593 H 0.5447 0.64571 0.3078 0.0
C594 C 0.08937 0.0683 0.19695 0.0
C595 C 0.10466 0.06873 0.24828 0.0
H596 H 0.06075 0.08591 0.15041 0.0
C597 C 0.10234 0.0874 0.29307 0.0
H598 H 0.0907 0.05393 0.16185 0.0
C599 C 0.08601 0.10636 0.28591 0.0
C600 C 0.07094 0.10608 0.23442 0.0
H601 H 0.11406 0.08818 0.33291 0.0
H602 H 0.08498 0.12117 0.32056 0.0
C603 C 0.07221 0.08642 0.19036 0.0
C604 C 0.91032 0.97895 0.19225 0.0
C605 C 0.87837 0.95629 0.2153 0.0
H606 H 0.94877 0.03087 0.17935 0.0
C607 C 0.86134 0.96962 0.24624 0.0
H608 H 0.92404 0.96958 0.16801 0.0
C609 C 0.87541 0.00473 0.25264 0.0
C610 C 0.90691 0.0274 0.22835 0.0
H611 H 0.83707 0.95295 0.2657 0.0
H612 H 0.86134 0.01405 0.27605 0.0
C613 C 0.92442 0.01411 0.19865 0.0
C614 C 0.98456 0.91097 0.21427 0.0
C615 C 0.97073 0.87978 0.24305 0.0
H616 H 0.02959 0.95458 0.18333 0.0
C617 C 0.99289 0.86973 0.26563 0.0
H618 H 0.96817 0.91948 0.19643 0.0
C619 C 0.02798 0.8897 0.25767 0.0
C620 C 0.04175 0.92036 0.2275 0.0
H621 H 0.98313 0.84588 0.28799 0.0
H622 H 0.04438 0.88105 0.27488 0.0
C623 C 0.01974 0.93115 0.20687 0.0
C624 C 0.1359 0.10595 0.75229 0.0
C625 C 0.11919 0.0765 0.78551 0.0
H626 H 0.13561 0.14955 0.71902 0.0
C627 C 0.08732 0.0675 0.80837 0.0
H628 H 0.16013 0.11316 0.73304 0.0
C629 C 0.07315 0.08832 0.80015 0.0
C630 C 0.09047 0.11843 0.76852 0.0
H631 H 0.07389 0.04499 0.83414 0.0
H632 H 0.04898 0.0812 0.8197 0.0
C633 C 0.12167 0.12664 0.74377 0.0
C634 C 0.8929 0.0298 0.75401 0.0
C635 C 0.92243 0.04275 0.78708 0.0
H636 H 0.84905 0.98577 0.7217 0.0
C637 C 0.93101 0.01978 0.8111 0.0
H638 H 0.8859 0.04673 0.73377 0.0
C639 C 0.9099 0.98465 0.8038 0.0
C640 C 0.87981 0.97174 0.77214 0.0
H641 H 0.95349 0.02888 0.83688 0.0
H642 H 0.91681 0.96761 0.82403 0.0
C643 C 0.87187 0.99477 0.74663 0.0
C644 C 0.01526 0.92493 0.79503 0.0
C645 C 0.02868 0.9099 0.75939 0.0
H646 H 0.97062 0.92204 0.83052 0.0
C647 C 0.00616 0.8807 0.72909 0.0
H648 H 0.03189 0.9475 0.81898 0.0
C649 C 0.97105 0.86617 0.73576 0.0
C650 C 0.95761 0.88051 0.7728 0.0
H651 H 0.01561 0.86856 0.70111 0.0
H652 H 0.95444 0.84356 0.71199 0.0
C653 C 0.98011 0.91043 0.80158 0.0
C654 C 0.7389 0.42886 0.53265 0.0
C655 C 0.74668 0.45981 0.55817 0.0
H656 H 0.75407 0.39185 0.51809 0.0
C657 C 0.7759 0.47633 0.59202 0.0
H658 H 0.71676 0.41554 0.50614 0.0
C659 C 0.79744 0.46293 0.59858 0.0
C660 C 0.79021 0.43256 0.57172 0.0
H661 H 0.7823 0.49977 0.61345 0.0
H662 H 0.82001 0.47667 0.62414 0.0
C663 C 0.76041 0.41536 0.53939 0.0
C664 C 0.59248 0.35192 0.52437 0.0
C665 C 0.57486 0.36505 0.55422 0.0
H666 H 0.59231 0.30736 0.49393 0.0
C667 C 0.54364 0.3422 0.57916 0.0
H668 H 0.61665 0.36883 0.50465 0.0
C669 C 0.52982 0.30713 0.57304 0.0
C670 C 0.54681 0.29391 0.54176 0.0
H671 H 0.52948 0.35135 0.60278 0.0
H672 H 0.5057 0.29037 0.59289 0.0
C673 C 0.57861 0.3167 0.5183 0.0
C674 C 0.65209 0.24736 0.54259 0.0
C675 C 0.63777 0.21904 0.57869 0.0
H676 H 0.69767 0.2896 0.51003 0.0
C677 C 0.65947 0.21322 0.61287 0.0
H678 H 0.63609 0.25267 0.51574 0.0
C679 C 0.69469 0.23443 0.60959 0.0
C680 C 0.70912 0.26201 0.57208 0.0
H681 H 0.64934 0.19183 0.64142 0.0
H682 H 0.71063 0.22902 0.6363 0.0
C683 C 0.68739 0.26865 0.53941 0.0
C684 C 0.80223 0.4388 0.07711 0.0
C685 C 0.78314 0.40709 0.10358 0.0
H686 H 0.80404 0.48439 0.04862 0.0
C687 C 0.74918 0.39588 0.11793 0.0
H688 H 0.82839 0.44786 0.06529 0.0
C689 C 0.7353 0.41699 0.10917 0.0
C690 C 0.75495 0.44942 0.0849 0.0
H691 H 0.73403 0.37162 0.13864 0.0
H692 H 0.70952 0.40833 0.12289 0.0
C693 C 0.78821 0.45961 0.06738 0.0
C694 C 0.55882 0.36335 0.08303 0.0
C695 C 0.58859 0.3765 0.11549 0.0
H696 H 0.51482 0.31907 0.05176 0.0
C697 C 0.59738 0.35377 0.13975 0.0
H698 H 0.55167 0.38014 0.0627 0.0
C699 C 0.57631 0.31864 0.13312 0.0
C700 C 0.54606 0.30551 0.10189 0.0
H701 H 0.62005 0.36307 0.16511 0.0
H702 H 0.58344 0.30178 0.15341 0.0
C703 C 0.53782 0.32828 0.07629 0.0
C704 C 0.67376 0.21021 0.07806 0.0
C705 C 0.69609 0.23996 0.10716 0.0
H706 H 0.62247 0.17448 0.05695 0.0
C707 C 0.68299 0.25822 0.13492 0.0
H708 H 0.6832 0.1959 0.05556 0.0
C709 C 0.64779 0.24544 0.13683 0.0
C710 C 0.62526 0.2144 0.11059 0.0
H711 H 0.69971 0.28124 0.15781 0.0
H712 H 0.63823 0.259 0.16105 0.0
C713 C 0.63884 0.19774 0.07938 0.0
C714 C 0.4033 0.75642 0.8725 0.0
C715 C 0.41059 0.78554 0.90364 0.0
H716 H 0.4179 0.71973 0.85162 0.0
C717 C 0.43811 0.79875 0.94128 0.0
H718 H 0.38244 0.74567 0.843 0.0
C719 C 0.45857 0.78394 0.94619 0.0
C720 C 0.45199 0.75558 0.91356 0.0
H721 H 0.44403 0.82069 0.96684 0.0
H722 H 0.47997 0.79523 0.97466 0.0
C723 C 0.42376 0.74163 0.87736 0.0
C724 C 0.20917 0.67268 0.92136 0.0
C725 C 0.24095 0.69572 0.89829 0.0
H726 H 0.1704 0.62075 0.93137 0.0
C727 C 0.25864 0.68287 0.86795 0.0
H728 H 0.19491 0.68163 0.94518 0.0
C729 C 0.2444 0.6478 0.85963 0.0
C730 C 0.21211 0.62484 0.88127 0.0
H731 H 0.28322 0.69993 0.84959 0.0
H732 H 0.25824 0.63876 0.83497 0.0
C733 C 0.19494 0.63771 0.91295 0.0
C734 C 0.32757 0.54159 0.92799 0.0
C735 C 0.30455 0.54984 0.90341 0.0
H736 H 0.37948 0.55444 0.93714 0.0
C737 C 0.31732 0.57939 0.87032 0.0
H738 H 0.31864 0.51908 0.95375 0.0
C739 C 0.35226 0.59962 0.86063 0.0
C740 C 0.37513 0.59059 0.8834 0.0
H741 H 0.30027 0.58653 0.85081 0.0
H742 H 0.36126 0.62172 0.83387 0.0
C743 C 0.36245 0.56167 0.91795 0.0
C744 C 0.42211 0.73658 0.46485 0.0
C745 C 0.45075 0.74352 0.43272 0.0
H746 H 0.38601 0.75174 0.48711 0.0
C747 C 0.46361 0.77085 0.3947 0.0
H748 H 0.41163 0.71585 0.49464 0.0
C749 C 0.44901 0.79151 0.3904 0.0
C750 C 0.42118 0.78536 0.42404 0.0
H751 H 0.48518 0.77649 0.3684 0.0
H752 H 0.46006 0.81276 0.36156 0.0
C753 C 0.40751 0.75728 0.46062 0.0
C754 C 0.22525 0.69703 0.43044 0.0
C755 C 0.25549 0.7098 0.46155 0.0
H756 H 0.18091 0.65323 0.39898 0.0
C757 C 0.26481 0.68676 0.48287 0.0
H758 H 0.21768 0.71405 0.41225 0.0
C759 C 0.2437 0.65166 0.47493 0.0
C760 C 0.21293 0.63893 0.44522 0.0
H761 H 0.2879 0.69579 0.50703 0.0
H762 H 0.25118 0.63452 0.49306 0.0
C763 C 0.20426 0.66207 0.42237 0.0
C764 C 0.34002 0.54318 0.40789 0.0
C765 C 0.36233 0.57318 0.43653 0.0
H766 H 0.28861 0.50639 0.38891 0.0
C767 C 0.34869 0.58963 0.46822 0.0
H768 H 0.34965 0.53001 0.38269 0.0
C769 C 0.31344 0.57578 0.47244 0.0
C770 C 0.29107 0.54522 0.44493 0.0
H771 H 0.36519 0.61283 0.49087 0.0
H772 H 0.30379 0.58856 0.49845 0.0
C773 C 0.30489 0.52946 0.41186 0.0
C774 C 0.35093 0.19037 0.16952 0.0
C775 C 0.36956 0.1734 0.16508 0.0
H776 H 0.30186 0.18585 0.17567 0.0
C777 C 0.35188 0.13762 0.16346 0.0
H778 H 0.36378 0.21789 0.17055 0.0
C779 C 0.31642 0.11927 0.16592 0.0
C780 C 0.29775 0.13623 0.17009 0.0
H781 H 0.36536 0.12365 0.16098 0.0
H782 H 0.30368 0.09179 0.16377 0.0
C783 C 0.31543 0.172 0.17192 0.0
C784 C 0.84559 0.19241 0.2218 0.0
C785 C 0.83433 0.20005 0.17213 0.0
H786 H 0.87177 0.16898 0.25895 0.0
C787 C 0.84109 0.18979 0.12076 0.0
H788 H 0.84073 0.20032 0.26179 0.0
C789 C 0.85805 0.17121 0.11926 0.0
C790 C 0.86924 0.16351 0.16903 0.0
H791 H 0.83245 0.19542 0.08214 0.0
H792 H 0.86275 0.16311 0.07932 0.0
C793 C 0.86331 0.17467 0.2202 0.0
C794 C 0.79033 0.64802 0.16227 0.0
C795 C 0.8081 0.63012 0.15746 0.0
H796 H 0.79312 0.69608 0.17206 0.0
C797 C 0.8438 0.64852 0.1606 0.0
H798 H 0.76286 0.63488 0.16102 0.0
C799 C 0.86125 0.68381 0.16819 0.0
C800 C 0.84351 0.70174 0.17257 0.0
H801 H 0.85839 0.63572 0.15669 0.0
H802 H 0.8887 0.69699 0.17086 0.0
C803 C 0.80778 0.68332 0.1696 0.0
C804 C 0.17619 0.31617 0.83745 0.0
C805 C 0.14051 0.29783 0.8336 0.0
H806 H 0.22116 0.3648 0.84606 0.0
C807 C 0.12284 0.31593 0.83531 0.0
H808 H 0.19068 0.30319 0.83585 0.0
C809 C 0.14039 0.35138 0.84052 0.0
C810 C 0.17609 0.36972 0.84427 0.0
H811 H 0.09538 0.30279 0.83331 0.0
H812 H 0.12586 0.36433 0.84075 0.0
C813 C 0.19373 0.35161 0.84278 0.0
C814 C 0.65023 0.84211 0.84947 0.0
C815 C 0.63145 0.8064 0.84599 0.0
H816 H 0.69929 0.88703 0.84784 0.0
C817 C 0.64905 0.78857 0.83806 0.0
H818 H 0.63755 0.85664 0.85597 0.0
C819 C 0.6845 0.80599 0.83394 0.0
C820 C 0.7033 0.8417 0.83761 0.0
H821 H 0.63553 0.76114 0.83432 0.0
H822 H 0.69711 0.79131 0.82874 0.0
C823 C 0.68569 0.85953 0.84533 0.0
C824 C 0.2136 0.86195 0.83026 0.0
C825 C 0.19692 0.82621 0.82774 0.0
H826 H 0.20891 0.90652 0.82821 0.0
C827 C 0.16148 0.80802 0.81995 0.0
H828 H 0.2409 0.87682 0.83547 0.0
C829 C 0.14316 0.8251 0.81507 0.0
C830 C 0.15981 0.8608 0.81769 0.0
H831 H 0.14781 0.78049 0.81823 0.0
H832 H 0.11592 0.81032 0.80895 0.0
C833 C 0.19528 0.87904 0.82521 0.0
C834 C 0.98447 0.4829 0.55908 0.0
C835 C 0.9657 0.47395 0.50924 0.0
H836 H 0.03412 0.50755 0.59647 0.0
C837 C 0.98297 0.48216 0.45784 0.0
H838 H 0.97155 0.47672 0.59904 0.0
C839 C 0.01852 0.49891 0.45635 0.0
C840 C 0.03731 0.50859 0.50619 0.0
H841 H 0.96888 0.47516 0.41895 0.0
H842 H 0.03144 0.50489 0.41639 0.0
C843 C 0.02003 0.50055 0.55758 0.0
C844 C 0.50134 0.52122 0.44791 0.0
C845 C 0.49293 0.53015 0.49914 0.0
H846 H 0.52482 0.49622 0.40676 0.0
C847 C 0.50241 0.52092 0.54916 0.0
H848 H 0.49424 0.52817 0.40897 0.0
C849 C 0.52053 0.50348 0.54792 0.0
C850 C 0.52853 0.49415 0.49669 0.0
H851 H 0.49642 0.52788 0.58908 0.0
H852 H 0.52806 0.49696 0.58684 0.0
C853 C 0.51857 0.50291 0.44669 0.0
C854 C 0.50969 0.9844 0.49635 0.0
C855 C 0.47394 0.96605 0.4939 0.0
H856 H 0.55481 0.03275 0.50524 0.0
C857 C 0.45642 0.98425 0.49763 0.0
H858 H 0.52422 0.97152 0.49302 0.0
C859 C 0.47412 0.01968 0.50363 0.0
C860 C 0.50988 0.038 0.50639 0.0
H861 H 0.42896 0.97127 0.49663 0.0
H862 H 0.45955 0.03255 0.50549 0.0
C863 C 0.52737 0.01978 0.50275 0.0
C864 C 0.20607 0.00396 0.47256 0.0
C865 C 0.19569 0.02527 0.44694 0.0
H866 H 0.20615 0.97755 0.54687 0.0
C867 C 0.18108 0.03993 0.48071 0.0
H868 H 0.21828 0.99287 0.44852 0.0
C869 C 0.17516 0.03196 0.53736 0.0
C870 C 0.18291 0.00847 0.56187 0.0
H871 H 0.17244 0.05626 0.46311 0.0
H872 H 0.16334 0.04341 0.56155 0.0
C873 C 0.19956 0.99548 0.5293 0.0
C874 C 0.0337 0.1777 0.52136 0.0
C875 C 0.01499 0.18567 0.55899 0.0
H876 H 0.03918 0.1653 0.43728 0.0
C877 C 0.98939 0.19151 0.53818 0.0
H878 H 0.05388 0.17355 0.53618 0.0
C879 C 0.98095 0.18679 0.48113 0.0
C880 C 0.99799 0.1761 0.44459 0.0
H881 H 0.97453 0.19756 0.56641 0.0
H882 H 0.9599 0.18949 0.46626 0.0
C883 C 0.02525 0.17291 0.46487 0.0
C884 C 0.81276 0.8527 0.51737 0.0
C885 C 0.80858 0.8276 0.55599 0.0
H886 H 0.82172 0.8693 0.43231 0.0
C887 C 0.80587 0.79715 0.53614 0.0
H888 H 0.81452 0.87622 0.53148 0.0
C889 C 0.81013 0.7932 0.47899 0.0
C890 C 0.81717 0.81967 0.44121 0.0
H891 H 0.8028 0.77748 0.56515 0.0
H892 H 0.81019 0.77053 0.46499 0.0
C893 C 0.81695 0.84876 0.46068 0.0
C894 C 0.81463 0.3096 0.86671 0.0
C895 C 0.84347 0.32248 0.90137 0.0
H896 H 0.79458 0.30905 0.78597 0.0
C897 C 0.87556 0.34485 0.87789 0.0
H898 H 0.78939 0.29283 0.88296 0.0
C899 C 0.87841 0.35494 0.82171 0.0
C900 C 0.84922 0.34295 0.78816 0.0
H901 H 0.8984 0.35495 0.90302 0.0
H902 H 0.90321 0.37295 0.80513 0.0
C903 C 0.81752 0.31943 0.811 0.0
C904 C 0.6836 0.54041 0.85128 0.0
C905 C 0.66392 0.51366 0.88847 0.0
H906 H 0.69211 0.55703 0.76559 0.0
C907 C 0.6343 0.48507 0.86855 0.0
H908 H 0.70655 0.56272 0.86565 0.0
C909 C 0.62603 0.4819 0.81193 0.0
C910 C 0.64717 0.50723 0.77377 0.0
H911 H 0.61831 0.46435 0.89648 0.0
H912 H 0.60397 0.45874 0.79743 0.0
C913 C 0.67529 0.53719 0.79418 0.0
C914 C 0.47816 0.13004 0.80839 0.0
C915 C 0.48491 0.1569 0.77166 0.0
H916 H 0.47116 0.11332 0.89397 0.0
C917 C 0.4845 0.18564 0.79243 0.0
H918 H 0.47834 0.10762 0.79336 0.0
C919 C 0.48043 0.18887 0.84939 0.0
C920 C 0.47654 0.16338 0.88689 0.0
H921 H 0.48898 0.20644 0.76487 0.0
H922 H 0.48205 0.21213 0.86457 0.0
C923 C 0.474 0.13327 0.86579 0.0
C924 C 0.53518 0.67228 0.19817 0.0
C925 C 0.50512 0.64422 0.2184 0.0
H926 H 0.56117 0.70313 0.12659 0.0
C927 C 0.48026 0.62259 0.18002 0.0
H928 H 0.55467 0.68945 0.22692 0.0
C929 C 0.48392 0.63042 0.1232 0.0
C930 C 0.51255 0.66003 0.1034 0.0
H931 H 0.45706 0.60055 0.19439 0.0
H932 H 0.46347 0.61422 0.095 0.0
C933 C 0.53889 0.68013 0.1409 0.0
C934 C 0.33833 0.86837 0.13903 0.0
C935 C 0.31078 0.83798 0.11857 0.0
H936 H 0.36881 0.8947 0.21074 0.0
C937 C 0.28963 0.81269 0.15675 0.0
H938 H 0.35513 0.88819 0.11039 0.0
C939 C 0.29739 0.81638 0.2136 0.0
C940 C 0.32656 0.84541 0.23369 0.0
H941 H 0.268 0.7892 0.14217 0.0
H942 H 0.28145 0.79569 0.24162 0.0
C943 C 0.34618 0.87207 0.19632 0.0
C944 C 0.1489 0.52393 0.18397 0.0
C945 C 0.14353 0.49817 0.22208 0.0
H946 H 0.15874 0.5412 0.09928 0.0
C947 C 0.13989 0.46746 0.20155 0.0
H948 H 0.15131 0.54765 0.1985 0.0
C949 C 0.14425 0.46376 0.14434 0.0
C950 C 0.15235 0.49074 0.10709 0.0
H951 H 0.13589 0.44724 0.23007 0.0
H952 H 0.14341 0.44073 0.12988 0.0
C953 C 0.15323 0.52025 0.12722 0.0
C954 C 0.16888 0.96782 0.04374 0.0
C955 C 0.18788 0.00236 0.05773 0.0
H956 H 0.14597 0.93169 0.97732 0.0
C957 C 0.20477 0.02662 0.01562 0.0
H958 H 0.15512 0.94889 0.07565 0.0
C959 C 0.20021 0.01673 0.95948 0.0
C960 C 0.17794 0.98266 0.94527 0.0
H961 H 0.21899 0.05349 0.02584 0.0
H962 H 0.21084 0.03615 0.92734 0.0
C963 C 0.16365 0.95804 0.98765 0.0
C964 C 0.97383 0.17647 0.02258 0.0
C965 C 0.99907 0.1846 0.06327 0.0
H966 H 0.9624 0.1722 0.93493 0.0
C967 C 0.03332 0.20145 0.04743 0.0
H968 H 0.94718 0.16284 0.03418 0.0
C969 C 0.04192 0.20629 0.99078 0.0
C970 C 0.01638 0.19481 0.94976 0.0
H971 H 0.05302 0.20722 0.07814 0.0
H972 H 0.06818 0.21578 0.97889 0.0
C973 C 0.98249 0.18191 0.96594 0.0
C974 C 0.79474 0.82346 0.98622 0.0
C975 C 0.81125 0.81601 0.94357 0.0
H976 H 0.78917 0.82685 0.07471 0.0
C977 C 0.83017 0.80033 0.95712 0.0
H978 H 0.78071 0.83634 0.9765 0.0
C979 C 0.83565 0.79569 0.01312 0.0
C980 C 0.82166 0.80599 0.05599 0.0
H981 H 0.84377 0.79521 0.92489 0.0
H982 H 0.85325 0.78688 0.023 0.0
C983 C 0.79954 0.81802 0.04227 0.0
C984 C 0.86803 0.35385 0.30851 0.0
C985 C 0.84149 0.32143 0.29392 0.0
H986 H 0.89182 0.38963 0.37543 0.0
C987 C 0.82383 0.29739 0.33598 0.0
H988 H 0.88166 0.3728 0.27656 0.0
C989 C 0.83036 0.30662 0.39213 0.0
C990 C 0.85418 0.34014 0.40671 0.0
H991 H 0.80323 0.27222 0.32537 0.0
H992 H 0.8142 0.28869 0.42375 0.0
C993 C 0.87401 0.36335 0.36486 0.0
C994 C 0.65161 0.52012 0.2872 0.0
C995 C 0.68483 0.52814 0.27356 0.0
H996 H 0.6149 0.50624 0.35308 0.0
C997 C 0.70883 0.53638 0.31643 0.0
H998 H 0.63258 0.51305 0.25476 0.0
C999 C 0.69898 0.53341 0.3724 0.0
C1000 C 0.66488 0.52154 0.38609 0.0
H1001 H 0.73451 0.54227 0.30667 0.0
H1002 H 0.71711 0.53661 0.40466 0.0
C1003 C 0.64155 0.51637 0.34333 0.0
C1004 C 0.49755 0.13549 0.2881 0.0
C1005 C 0.47787 0.15034 0.27453 0.0
H1006 H 0.52168 0.12332 0.35396 0.0
C1007 C 0.461 0.15734 0.31711 0.0
H1008 H 0.51141 0.13072 0.25586 0.0
C1009 C 0.46625 0.15242 0.37316 0.0
C1010 C 0.48923 0.14145 0.38683 0.0
H1011 H 0.44636 0.16958 0.30732 0.0
H1012 H 0.45556 0.16094 0.40557 0.0
C1013 C 0.50351 0.13142 0.34408 0.0
C1014 C 0.5193 0.65286 0.70231 0.0
C1015 C 0.52679 0.68571 0.71763 0.0
H1016 H 0.50527 0.61703 0.63492 0.0
C1017 C 0.53388 0.71013 0.67583 0.0
H1018 H 0.51313 0.63351 0.73391 0.0
C1019 C 0.53014 0.70094 0.61948 0.0
C1020 C 0.51883 0.66714 0.60437 0.0
H1021 H 0.5394 0.73556 0.6869 0.0
H1022 H 0.53246 0.7193 0.58825 0.0
C1023 C 0.51489 0.64348 0.64581 0.0
C1024 C 0.30956 0.84871 0.69073 0.0
C1025 C 0.33315 0.85313 0.73254 0.0
H1026 H 0.30008 0.84708 0.6025 0.0
C1027 C 0.3672 0.86546 0.71805 0.0
H1028 H 0.28296 0.83835 0.70115 0.0
C1029 C 0.37679 0.86971 0.66185 0.0
C1030 C 0.35252 0.86216 0.61965 0.0
H1031 H 0.38554 0.86818 0.74959 0.0
H1032 H 0.40246 0.87594 0.6512 0.0
C1033 C 0.31932 0.85367 0.63442 0.0
C1034 C 0.16318 0.46593 0.62331 0.0
C1035 C 0.14347 0.48061 0.60894 0.0
H1036 H 0.18689 0.45391 0.69002 0.0
C1037 C 0.126 0.48727 0.65097 0.0
H1038 H 0.17753 0.46145 0.59159 0.0
C1039 C 0.13086 0.48241 0.70728 0.0
C1040 C 0.15393 0.4717 0.7218 0.0
H1041 H 0.11136 0.49942 0.64062 0.0
H1042 H 0.11987 0.49088 0.73924 0.0
C1043 C 0.16863 0.46178 0.67953 0.0
loop_
_geom_bond_atom_site_label_1
_geom_bond_atom_site_label_2
_geom_bond_distance
_geom_bond_site_symmetry_2
_ccdc_geom_bond_type
Co0 N4 2.148 . S
Co0 N10 2.128 1_545 S
Co0 N20 2.194 1_545 S
Co0 O25 2.351 1_545 S
Co0 O26 2.155 1_545 S
Co0 O27 2.096 . S
C1 N4 1.301 . S
C1 N5 1.328 . S
C1 H6 0.930 . S
C2 C3 1.333 . S
C2 N4 1.317 . S
C2 H7 0.930 . S
C3 C2 1.333 . S
C3 N5 1.350 . S
C3 H29 0.931 . S
N4 Co0 2.148 . S
N4 C1 1.301 . S
N4 C2 1.317 . S
N5 C1 1.328 . S
N5 C3 1.350 . S
H6 C1 0.930 . S
H7 C2 0.930 . S
C8 O9 1.224 . S
C8 O27 1.247 . S
O9 C8 1.224 . S
N10 Co0 2.128 1_565 S
N10 C11 1.355 . S
N10 C13 1.311 . S
C11 N10 1.355 . S
C11 C12 1.363 . S
C11 H23 0.929 . S
C12 C11 1.363 . S
C12 N14 1.375 . S
C12 H30 0.931 . S
C13 N10 1.311 . S
C13 N14 1.347 . S
C13 H24 0.929 . S
N14 C12 1.375 . S
N14 C13 1.347 . S
C15 C18 1.365 . S
C15 N20 1.328 . S
C15 H21 0.929 . S
C16 C17 1.362 . S
C16 C19 1.365 1_565 S
C16 H31 0.941 . S
C17 C16 1.362 . S
C17 C18 1.366 . S
C18 C15 1.365 . S
C18 C17 1.366 . S
C18 H32 0.930 . S
C19 C16 1.365 1_545 S
C19 N20 1.300 1_545 S
C19 H22 0.961 . S
N20 Co0 2.194 1_565 S
N20 C15 1.328 . S
N20 C19 1.300 1_565 S
H21 C15 0.929 . S
H22 C19 0.961 . S
H23 C11 0.929 . S
H24 C13 0.929 . S
O25 Co0 2.351 1_565 S
O25 C28 1.244 . S
O26 Co0 2.155 1_565 S
O26 C28 1.240 . S
O27 Co0 2.096 . S
O27 C8 1.247 . S
C28 O25 1.244 . S
C28 O26 1.240 . S
H29 C3 0.931 . S
H30 C12 0.931 . S
H31 C16 0.941 . S
H32 C18 0.930 . S
Co33 N37 2.148 . S
Co33 N43 2.128 1_655 S
Co33 N53 2.194 1_655 S
Co33 O58 2.351 1_655 S
Co33 O59 2.155 1_655 S
Co33 O60 2.096 . S
C34 N37 1.301 . S
C34 N38 1.328 . S
C34 H39 0.930 . S
C35 C36 1.333 . S
C35 N37 1.317 . S
C35 H40 0.930 . S
C36 C35 1.333 . S
C36 N38 1.350 . S
C36 H62 0.931 . S
N37 Co33 2.148 . S
N37 C34 1.301 . S
N37 C35 1.317 . S
N38 C34 1.328 . S
N38 C36 1.350 . S
H39 C34 0.930 . S
H40 C35 0.930 . S
C41 O42 1.224 . S
C41 O60 1.247 . S
O42 C41 1.224 . S
N43 Co33 2.128 1_455 S
N43 C44 1.355 . S
N43 C46 1.311 . S
C44 N43 1.355 . S
C44 C45 1.363 . S
C44 H56 0.929 . S
C45 C44 1.363 . S
C45 N47 1.375 . S
C45 H63 0.931 . S
C46 N43 1.311 . S
C46 N47 1.347 . S
C46 H57 0.929 . S
N47 C45 1.375 . S
N47 C46 1.347 . S
C48 C51 1.365 . S
C48 N53 1.328 . S
C48 H54 0.929 . S
C49 C50 1.362 . S
C49 C52 1.375 1_455 S
C49 H64 0.930 . S
C50 C49 1.362 . S
C50 C51 1.366 . S
C51 C48 1.365 . S
C51 C50 1.366 . S
C51 H65 0.930 . S
C52 C49 1.375 1_655 S
C52 N53 1.314 1_655 S
C52 H55 0.936 . S
N53 Co33 2.194 1_455 S
N53 C48 1.328 . S
N53 C52 1.314 1_455 S
H54 C48 0.929 . S
H55 C52 0.936 . S
H56 C44 0.929 . S
H57 C46 0.929 . S
O58 Co33 2.351 1_455 S
O58 C61 1.244 . S
O59 Co33 2.155 1_455 S
O59 C61 1.240 . S
O60 Co33 2.096 . S
O60 C41 1.247 . S
C61 O58 1.244 . S
C61 O59 1.240 . S
H62 C36 0.931 . S
H63 C45 0.931 . S
H64 C49 0.930 . S
H65 C51 0.930 . S
Co66 N70 2.148 . S
Co66 N76 2.128 . S
Co66 N86 2.194 . S
Co66 O91 2.351 . S
Co66 O92 2.155 . S
Co66 O93 2.096 . S
C67 N70 1.301 . S
C67 N71 1.328 . S
C67 H72 0.930 . S
C68 C69 1.333 . S
C68 N70 1.317 . S
C68 H73 0.930 . S
C69 C68 1.333 . S
C69 N71 1.350 . S
C69 H95 0.931 . S
N70 Co66 2.148 . S
N70 C67 1.301 . S
N70 C68 1.317 . S
N71 C67 1.328 . S
N71 C69 1.350 . S
H72 C67 0.930 . S
H73 C68 0.930 . S
C74 O75 1.224 . S
C74 O93 1.247 . S
O75 C74 1.224 . S
N76 Co66 2.128 . S
N76 C77 1.355 . S
N76 C79 1.311 . S
C77 N76 1.355 . S
C77 C78 1.363 . S
C77 H89 0.929 . S
C78 C77 1.363 . S
C78 N80 1.375 . S
C78 H96 0.931 . S
C79 N76 1.311 . S
C79 N80 1.347 . S
C79 H90 0.929 . S
N80 C78 1.375 . S
N80 C79 1.347 . S
C81 C84 1.365 . S
C81 N86 1.328 . S
C81 H87 0.929 . S
C82 C83 1.362 . S
C82 C85 1.378 . S
C82 H97 0.929 . S
C83 C82 1.362 . S
C83 C84 1.366 . S
C84 C81 1.365 . S
C84 C83 1.366 . S
C84 H98 0.930 . S
C85 C82 1.378 . S
C85 N86 1.315 . S
C85 H88 0.930 . S
N86 Co66 2.194 . S
N86 C81 1.328 . S
N86 C85 1.315 . S
H87 C81 0.929 . S
H88 C85 0.930 . S
H89 C77 0.929 . S
H90 C79 0.929 . S
O91 Co66 2.351 . S
O91 C94 1.244 . S
O92 Co66 2.155 . S
O92 C94 1.240 . S
O93 Co66 2.096 . S
O93 C74 1.247 . S
C94 O91 1.244 . S
C94 O92 1.240 . S
H95 C69 0.931 . S
H96 C78 0.931 . S
H97 C82 0.929 . S
H98 C84 0.930 . S
Co99 N103 2.148 . S
Co99 N109 2.128 1_455 S
Co99 N119 2.194 1_455 S
Co99 O124 2.351 1_455 S
Co99 O125 2.155 1_455 S
Co99 O126 2.096 . S
C100 N103 1.301 . S
C100 N104 1.328 . S
C100 H105 0.930 . S
C101 C102 1.333 . S
C101 N103 1.317 . S
C101 H106 0.930 . S
C102 C101 1.333 . S
C102 N104 1.350 . S
C102 H128 0.931 . S
N103 Co99 2.148 . S
N103 C100 1.301 . S
N103 C101 1.317 . S
N104 C100 1.328 . S
N104 C102 1.350 . S
H105 C100 0.930 . S
H106 C101 0.930 . S
C107 O108 1.224 . S
C107 O126 1.247 . S
O108 C107 1.224 . S
N109 Co99 2.128 1_655 S
N109 C110 1.355 . S
N109 C112 1.311 . S
C110 N109 1.355 . S
C110 C111 1.363 . S
C110 H122 0.929 . S
C111 C110 1.363 . S
C111 N113 1.375 . S
C111 H129 0.931 . S
C112 N109 1.311 . S
C112 N113 1.347 . S
C112 H123 0.929 . S
N113 C111 1.375 . S
N113 C112 1.347 . S
C114 C117 1.365 . S
C114 N119 1.328 . S
C114 H120 0.929 . S
C115 C116 1.362 . S
C115 C118 1.365 1_655 S
C115 H130 0.941 . S
C116 C115 1.362 . S
C116 C117 1.366 . S
C117 C114 1.365 . S
C117 C116 1.366 . S
C117 H131 0.930 . S
C118 C115 1.365 1_455 S
C118 N119 1.300 1_455 S
C118 H121 0.961 . S
N119 Co99 2.194 1_655 S
N119 C114 1.328 . S
N119 C118 1.300 1_655 S
H120 C114 0.929 . S
H121 C118 0.961 . S
H122 C110 0.929 . S
H123 C112 0.929 . S
O124 Co99 2.351 1_655 S
O124 C127 1.244 . S
O125 Co99 2.155 1_655 S
O125 C127 1.240 . S
O126 Co99 2.096 . S
O126 C107 1.247 . S
C127 O124 1.244 . S
C127 O125 1.240 . S
H128 C102 0.931 . S
H129 C111 0.931 . S
H130 C115 0.941 . S
H131 C117 0.930 . S
Co132 N136 2.148 . S
Co132 N142 2.128 . S
Co132 N152 2.194 . S
Co132 O157 2.351 . S
Co132 O158 2.155 . S
Co132 O159 2.096 . S
C133 N136 1.301 . S
C133 N137 1.328 . S
C133 H138 0.930 . S
C134 C135 1.333 . S
C134 N136 1.317 . S
C134 H139 0.930 . S
C135 C134 1.333 . S
C135 N137 1.350 . S
C135 H161 0.931 . S
N136 Co132 2.148 . S
N136 C133 1.301 . S
N136 C134 1.317 . S
N137 C133 1.328 . S
N137 C135 1.350 . S
H138 C133 0.930 . S
H139 C134 0.930 . S
C140 O141 1.224 . S
C140 O159 1.247 . S
O141 C140 1.224 . S
N142 Co132 2.128 . S
N142 C143 1.355 . S
N142 C145 1.311 . S
C143 N142 1.355 . S
C143 C144 1.363 . S
C143 H155 0.929 . S
C144 C143 1.363 . S
C144 N146 1.375 . S
C144 H162 0.931 . S
C145 N142 1.311 . S
C145 N146 1.347 . S
C145 H156 0.929 . S
N146 C144 1.375 . S
N146 C145 1.347 . S
C147 C150 1.365 . S
C147 N152 1.328 . S
C147 H153 0.929 . S
C148 C149 1.362 . S
C148 C151 1.378 . S
C148 H163 0.929 . S
C149 C148 1.362 . S
C149 C150 1.366 . S
C150 C147 1.365 . S
C150 C149 1.366 . S
C150 H164 0.930 . S
C151 C148 1.378 . S
C151 N152 1.315 . S
C151 H154 0.930 . S
N152 Co132 2.194 . S
N152 C147 1.328 . S
N152 C151 1.315 . S
H153 C147 0.929 . S
H154 C151 0.930 . S
H155 C143 0.929 . S
H156 C145 0.929 . S
O157 Co132 2.351 . S
O157 C160 1.244 . S
O158 Co132 2.155 . S
O158 C160 1.240 . S
O159 Co132 2.096 . S
O159 C140 1.247 . S
C160 O157 1.244 . S
C160 O158 1.240 . S
H161 C135 0.931 . S
H162 C144 0.931 . S
H163 C148 0.929 . S
H164 C150 0.930 . S
Co165 N169 2.148 . S
Co165 N175 2.128 1_565 S
Co165 N185 2.194 1_565 S
Co165 O190 2.351 1_565 S
Co165 O191 2.155 1_565 S
Co165 O192 2.096 . S
C166 N169 1.301 . S
C166 N170 1.328 . S
C166 H171 0.930 . S
C167 C168 1.333 . S
C167 N169 1.317 . S
C167 H172 0.930 . S
C168 C167 1.333 . S
C168 N170 1.350 . S
C168 H194 0.931 . S
N169 Co165 2.148 . S
N169 C166 1.301 . S
N169 C167 1.317 . S
N170 C166 1.328 . S
N170 C168 1.350 . S
H171 C166 0.930 . S
H172 C167 0.930 . S
C173 O174 1.224 . S
C173 O192 1.247 . S
O174 C173 1.224 . S
N175 Co165 2.128 1_545 S
N175 C176 1.355 . S
N175 C178 1.311 . S
C176 N175 1.355 . S
C176 C177 1.363 . S
C176 H188 0.929 . S
C177 C176 1.363 . S
C177 N179 1.375 . S
C177 H195 0.931 . S
C178 N175 1.311 . S
C178 N179 1.347 . S
C178 H189 0.929 . S
N179 C177 1.375 . S
N179 C178 1.347 . S
C180 C183 1.365 . S
C180 N185 1.328 . S
C180 H186 0.929 . S
C181 C182 1.362 . S
C181 C184 1.375 1_545 S
C181 H196 0.930 . S
C182 C181 1.362 . S
C182 C183 1.366 . S
C183 C180 1.365 . S
C183 C182 1.366 . S
C183 H197 0.930 . S
C184 C181 1.375 1_565 S
C184 N185 1.314 1_565 S
C184 H187 0.936 . S
N185 Co165 2.194 1_545 S
N185 C180 1.328 . S
N185 C184 1.314 1_545 S
H186 C180 0.929 . S
H187 C184 0.936 . S
H188 C176 0.929 . S
H189 C178 0.929 . S
O190 Co165 2.351 1_545 S
O190 C193 1.244 . S
O191 Co165 2.155 1_545 S
O191 C193 1.240 . S
O192 Co165 2.096 . S
O192 C173 1.247 . S
C193 O190 1.244 . S
C193 O191 1.240 . S
H194 C168 0.931 . S
H195 C177 0.931 . S
H196 C181 0.930 . S
H197 C183 0.930 . S
Co198 N202 2.148 . S
Co198 N208 2.128 . S
Co198 N218 2.194 . S
Co198 O223 2.351 . S
Co198 O224 2.155 . S
Co198 O225 2.096 . S
C199 N202 1.301 . S
C199 N203 1.328 . S
C199 H204 0.930 . S
C200 C201 1.333 . S
C200 N202 1.317 . S
C200 H205 0.930 . S
C201 C200 1.333 . S
C201 N203 1.350 . S
C201 H227 0.931 . S
N202 Co198 2.148 . S
N202 C199 1.301 . S
N202 C200 1.317 . S
N203 C199 1.328 . S
N203 C201 1.350 . S
H204 C199 0.930 . S
H205 C200 0.930 . S
C206 O207 1.224 . S
C206 O225 1.247 . S
O207 C206 1.224 . S
N208 Co198 2.128 . S
N208 C209 1.355 . S
N208 C211 1.311 . S
C209 N208 1.355 . S
C209 C210 1.363 . S
C209 H221 0.929 . S
C210 C209 1.363 . S
C210 N212 1.375 . S
C210 H228 0.931 . S
C211 N208 1.311 . S
C211 N212 1.347 . S
C211 H222 0.929 . S
N212 C210 1.375 . S
N212 C211 1.347 . S
C213 C216 1.365 . S
C213 N218 1.328 . S
C213 H219 0.929 . S
C214 C215 1.362 . S
C214 C217 1.378 . S
C214 H229 0.929 . S
C215 C214 1.362 . S
C215 C216 1.366 . S
C216 C213 1.365 . S
C216 C215 1.366 . S
C216 H230 0.930 . S
C217 C214 1.378 . S
C217 N218 1.315 . S
C217 H220 0.930 . S
N218 Co198 2.194 . S
N218 C213 1.328 . S
N218 C217 1.315 . S
H219 C213 0.929 . S
H220 C217 0.930 . S
H221 C209 0.929 . S
H222 C211 0.929 . S
O223 Co198 2.351 . S
O223 C226 1.244 . S
O224 Co198 2.155 . S
O224 C226 1.240 . S
O225 Co198 2.096 . S
O225 C206 1.247 . S
C226 O223 1.244 . S
C226 O224 1.240 . S
H227 C201 0.931 . S
H228 C210 0.931 . S
H229 C214 0.929 . S
H230 C216 0.930 . S
Co231 N235 2.148 . S
Co231 N241 2.128 . S
Co231 N251 2.194 . S
Co231 O256 2.351 . S
Co231 O257 2.155 . S
Co231 O258 2.096 . S
C232 N235 1.301 . S
C232 N236 1.328 . S
C232 H237 0.930 . S
C233 C234 1.333 . S
C233 N235 1.317 . S
C233 H238 0.930 . S
C234 C233 1.333 . S
C234 N236 1.350 . S
C234 H260 0.931 . S
N235 Co231 2.148 . S
N235 C232 1.301 . S
N235 C233 1.317 . S
N236 C232 1.328 . S
N236 C234 1.350 . S
H237 C232 0.930 . S
H238 C233 0.930 . S
C239 O240 1.224 . S
C239 O258 1.247 . S
O240 C239 1.224 . S
N241 Co231 2.128 . S
N241 C242 1.355 . S
N241 C244 1.311 . S
C242 N241 1.355 . S
C242 C243 1.363 . S
C242 H254 0.929 . S
C243 C242 1.363 . S
C243 N245 1.375 . S
C243 H261 0.931 . S
C244 N241 1.311 . S
C244 N245 1.347 . S
C244 H255 0.929 . S
N245 C243 1.375 . S
N245 C244 1.347 . S
C246 C249 1.365 . S
C246 N251 1.328 . S
C246 H252 0.929 . S
C247 C248 1.362 . S
C247 C250 1.378 . S
C247 H262 0.929 . S
C248 C247 1.362 . S
C248 C249 1.366 . S
C249 C246 1.365 . S
C249 C248 1.366 . S
C249 H263 0.930 . S
C250 C247 1.378 . S
C250 N251 1.315 . S
C250 H253 0.930 . S
N251 Co231 2.194 . S
N251 C246 1.328 . S
N251 C250 1.315 . S
H252 C246 0.929 . S
H253 C250 0.930 . S
H254 C242 0.929 . S
H255 C244 0.929 . S
O256 Co231 2.351 . S
O256 C259 1.244 . S
O257 Co231 2.155 . S
O257 C259 1.240 . S
O258 Co231 2.096 . S
O258 C239 1.247 . S
C259 O256 1.244 . S
C259 O257 1.240 . S
H260 C234 0.931 . S
H261 C243 0.931 . S
H262 C247 0.929 . S
H263 C249 0.930 . S
Co264 N268 2.148 . S
Co264 N274 2.128 . S
Co264 N284 2.194 . S
Co264 O289 2.351 . S
Co264 O290 2.155 . S
Co264 O291 2.096 . S
C265 N268 1.301 . S
C265 N269 1.328 . S
C265 H270 0.930 . S
C266 C267 1.333 . S
C266 N268 1.317 . S
C266 H271 0.930 . S
C267 C266 1.333 . S
C267 N269 1.350 . S
C267 H293 0.931 . S
N268 Co264 2.148 . S
N268 C265 1.301 . S
N268 C266 1.317 . S
N269 C265 1.328 . S
N269 C267 1.350 . S
H270 C265 0.930 . S
H271 C266 0.930 . S
C272 O273 1.224 . S
C272 O291 1.247 . S
O273 C272 1.224 . S
N274 Co264 2.128 . S
N274 C275 1.355 . S
N274 C277 1.311 . S
C275 N274 1.355 . S
C275 C276 1.363 . S
C275 H287 0.929 . S
C276 C275 1.363 . S
C276 N278 1.375 . S
C276 H294 0.931 . S
C277 N274 1.311 . S
C277 N278 1.347 . S
C277 H288 0.929 . S
N278 C276 1.375 . S
N278 C277 1.347 . S
C279 C282 1.365 . S
C279 N284 1.328 . S
C279 H285 0.929 . S
C280 C281 1.362 . S
C280 C283 1.378 . S
C280 H295 0.929 . S
C281 C280 1.362 . S
C281 C282 1.366 . S
C282 C279 1.365 . S
C282 C281 1.366 . S
C282 H296 0.930 . S
C283 C280 1.378 . S
C283 N284 1.315 . S
C283 H286 0.930 . S
N284 Co264 2.194 . S
N284 C279 1.328 . S
N284 C283 1.315 . S
H285 C279 0.929 . S
H286 C283 0.930 . S
H287 C275 0.929 . S
H288 C277 0.929 . S
O289 Co264 2.351 . S
O289 C292 1.244 . S
O290 Co264 2.155 . S
O290 C292 1.240 . S
O291 Co264 2.096 . S
O291 C272 1.247 . S
C292 O289 1.244 . S
C292 O290 1.240 . S
H293 C267 0.931 . S
H294 C276 0.931 . S
H295 C280 0.929 . S
H296 C282 0.930 . S
Co297 N301 2.148 . S
Co297 N307 2.128 . S
Co297 N317 2.194 . S
Co297 O322 2.351 . S
Co297 O323 2.155 . S
Co297 O324 2.096 . S
C298 N301 1.301 . S
C298 N302 1.328 . S
C298 H303 0.930 . S
C299 C300 1.333 . S
C299 N301 1.317 . S
C299 H304 0.930 . S
C300 C299 1.333 . S
C300 N302 1.350 . S
C300 H326 0.931 . S
N301 Co297 2.148 . S
N301 C298 1.301 . S
N301 C299 1.317 . S
N302 C298 1.328 . S
N302 C300 1.350 . S
H303 C298 0.930 . S
H304 C299 0.930 . S
C305 O306 1.224 . S
C305 O324 1.247 . S
O306 C305 1.224 . S
N307 Co297 2.128 . S
N307 C308 1.355 . S
N307 C310 1.311 . S
C308 N307 1.355 . S
C308 C309 1.363 . S
C308 H320 0.929 . S
C309 C308 1.363 . S
C309 N311 1.375 . S
C309 H327 0.931 . S
C310 N307 1.311 . S
C310 N311 1.347 . S
C310 H321 0.929 . S
N311 C309 1.375 . S
N311 C310 1.347 . S
C312 C315 1.365 . S
C312 N317 1.328 . S
C312 H318 0.929 . S
C313 C314 1.362 . S
C313 C316 1.378 1_556 S
C313 H328 0.929 . S
C314 C313 1.362 . S
C314 C315 1.366 1_556 S
C315 C312 1.365 . S
C315 C314 1.366 1_554 S
C315 H329 0.930 . S
C316 C313 1.378 1_554 S
C316 N317 1.315 . S
C316 H319 0.930 . S
N317 Co297 2.194 . S
N317 C312 1.328 . S
N317 C316 1.315 . S
H318 C312 0.929 . S
H319 C316 0.930 . S
H320 C308 0.929 . S
H321 C310 0.929 . S
O322 Co297 2.351 . S
O322 C325 1.244 . S
O323 Co297 2.155 . S
O323 C325 1.240 . S
O324 Co297 2.096 . S
O324 C305 1.247 . S
C325 O322 1.244 . S
C325 O323 1.240 . S
H326 C300 0.931 . S
H327 C309 0.931 . S
H328 C313 0.929 . S
H329 C315 0.930 . S
Co330 N334 2.148 . S
Co330 N340 2.128 . S
Co330 N350 2.194 . S
Co330 O355 2.351 . S
Co330 O356 2.155 . S
Co330 O357 2.096 . S
C331 N334 1.301 . S
C331 N335 1.328 . S
C331 H336 0.930 . S
C332 C333 1.333 . S
C332 N334 1.317 . S
C332 H337 0.930 . S
C333 C332 1.333 . S
C333 N335 1.350 . S
C333 H359 0.931 . S
N334 Co330 2.148 . S
N334 C331 1.301 . S
N334 C332 1.317 . S
N335 C331 1.328 . S
N335 C333 1.350 . S
H336 C331 0.930 . S
H337 C332 0.930 . S
C338 O339 1.224 . S
C338 O357 1.247 . S
O339 C338 1.224 . S
N340 Co330 2.128 . S
N340 C341 1.355 . S
N340 C343 1.311 . S
C341 N340 1.355 . S
C341 C342 1.363 . S
C341 H353 0.929 . S
C342 C341 1.363 . S
C342 N344 1.375 . S
C342 H360 0.931 . S
C343 N340 1.311 . S
C343 N344 1.347 . S
C343 H354 0.929 . S
N344 C342 1.375 . S
N344 C343 1.347 . S
C345 C348 1.365 . S
C345 N350 1.328 . S
C345 H351 0.929 . S
C346 C347 1.362 . S
C346 C349 1.378 1_556 S
C346 H361 0.929 . S
C347 C346 1.362 . S
C347 C348 1.366 1_556 S
C348 C345 1.365 . S
C348 C347 1.366 1_554 S
C348 H362 0.930 . S
C349 C346 1.378 1_554 S
C349 N350 1.315 . S
C349 H352 0.930 . S
N350 Co330 2.194 . S
N350 C345 1.328 . S
N350 C349 1.315 . S
H351 C345 0.929 . S
H352 C349 0.930 . S
H353 C341 0.929 . S
H354 C343 0.929 . S
O355 Co330 2.351 . S
O355 C358 1.244 . S
O356 Co330 2.155 . S
O356 C358 1.240 . S
O357 Co330 2.096 . S
O357 C338 1.247 . S
C358 O355 1.244 . S
C358 O356 1.240 . S
H359 C333 0.931 . S
H360 C342 0.931 . S
H361 C346 0.929 . S
H362 C348 0.930 . S
Co363 N367 2.148 . S
Co363 N373 2.128 . S
Co363 N383 2.194 . S
Co363 O388 2.351 . S
Co363 O389 2.155 . S
Co363 O390 2.096 . S
C364 N367 1.301 . S
C364 N368 1.328 . S
C364 H369 0.930 . S
C365 C366 1.333 . S
C365 N367 1.317 . S
C365 H370 0.930 . S
C366 C365 1.333 . S
C366 N368 1.350 . S
C366 H392 0.931 . S
N367 Co363 2.148 . S
N367 C364 1.301 . S
N367 C365 1.317 . S
N368 C364 1.328 . S
N368 C366 1.350 . S
H369 C364 0.930 . S
H370 C365 0.930 . S
C371 O372 1.224 . S
C371 O390 1.247 . S
O372 C371 1.224 . S
N373 Co363 2.128 . S
N373 C374 1.355 . S
N373 C376 1.311 . S
C374 N373 1.355 . S
C374 C375 1.363 . S
C374 H386 0.929 . S
C375 C374 1.363 . S
C375 N377 1.375 . S
C375 H393 0.931 . S
C376 N373 1.311 . S
C376 N377 1.347 . S
C376 H387 0.929 . S
N377 C375 1.375 . S
N377 C376 1.347 . S
C378 C381 1.365 . S
C378 N383 1.328 . S
C378 H384 0.929 . S
C379 C380 1.362 . S
C379 C382 1.378 1_556 S
C379 H394 0.929 . S
C380 C379 1.362 . S
C380 C381 1.366 1_556 S
C381 C378 1.365 . S
C381 C380 1.366 1_554 S
C381 H395 0.930 . S
C382 C379 1.378 1_554 S
C382 N383 1.315 . S
C382 H385 0.930 . S
N383 Co363 2.194 . S
N383 C378 1.328 . S
N383 C382 1.315 . S
H384 C378 0.929 . S
H385 C382 0.930 . S
H386 C374 0.929 . S
H387 C376 0.929 . S
O388 Co363 2.351 . S
O388 C391 1.244 . S
O389 Co363 2.155 . S
O389 C391 1.240 . S
O390 Co363 2.096 . S
O390 C371 1.247 . S
C391 O388 1.244 . S
C391 O389 1.240 . S
H392 C366 0.931 . S
H393 C375 0.931 . S
H394 C379 0.929 . S
H395 C381 0.930 . S
Co396 N400 2.148 . S
Co396 N406 2.128 . S
Co396 N416 2.194 . S
Co396 O421 2.351 . S
Co396 O422 2.155 . S
Co396 O423 2.096 . S
C397 N400 1.301 . S
C397 N401 1.328 . S
C397 H402 0.930 . S
C398 C399 1.333 . S
C398 N400 1.317 . S
C398 H403 0.930 . S
C399 C398 1.333 . S
C399 N401 1.350 . S
C399 H425 0.931 . S
N400 Co396 2.148 . S
N400 C397 1.301 . S
N400 C398 1.317 . S
N401 C397 1.328 . S
N401 C399 1.350 . S
H402 C397 0.930 . S
H403 C398 0.930 . S
C404 O405 1.224 . S
C404 O423 1.247 . S
O405 C404 1.224 . S
N406 Co396 2.128 . S
N406 C407 1.355 . S
N406 C409 1.311 . S
C407 N406 1.355 . S
C407 C408 1.363 . S
C407 H419 0.929 . S
C408 C407 1.363 . S
C408 N410 1.375 . S
C408 H426 0.931 . S
C409 N406 1.311 . S
C409 N410 1.347 . S
C409 H420 0.929 . S
N410 C408 1.375 . S
N410 C409 1.347 . S
C411 C414 1.365 . S
C411 N416 1.328 . S
C411 H417 0.929 . S
C412 C413 1.362 . S
C412 C415 1.378 1_554 S
C412 H427 0.929 . S
C413 C412 1.362 . S
C413 C414 1.366 1_554 S
C414 C411 1.365 . S
C414 C413 1.366 1_556 S
C414 H428 0.930 . S
C415 C412 1.378 1_556 S
C415 N416 1.315 . S
C415 H418 0.930 . S
N416 Co396 2.194 . S
N416 C411 1.328 . S
N416 C415 1.315 . S
H417 C411 0.929 . S
H418 C415 0.930 . S
H419 C407 0.929 . S
H420 C409 0.929 . S
O421 Co396 2.351 . S
O421 C424 1.244 . S
O422 Co396 2.155 . S
O422 C424 1.240 . S
O423 Co396 2.096 . S
O423 C404 1.247 . S
C424 O421 1.244 . S
C424 O422 1.240 . S
H425 C399 0.931 . S
H426 C408 0.931 . S
H427 C412 0.929 . S
H428 C414 0.930 . S
Co429 N433 2.148 . S
Co429 N439 2.128 . S
Co429 N449 2.194 . S
Co429 O454 2.351 . S
Co429 O455 2.155 . S
Co429 O456 2.096 . S
C430 N433 1.301 . S
C430 N434 1.328 . S
C430 H435 0.930 . S
C431 C432 1.333 . S
C431 N433 1.317 . S
C431 H436 0.930 . S
C432 C431 1.333 . S
C432 N434 1.350 . S
C432 H458 0.931 . S
N433 Co429 2.148 . S
N433 C430 1.301 . S
N433 C431 1.317 . S
N434 C430 1.328 . S
N434 C432 1.350 . S
H435 C430 0.930 . S
H436 C431 0.930 . S
C437 O438 1.224 . S
C437 O456 1.247 . S
O438 C437 1.224 . S
N439 Co429 2.128 . S
N439 C440 1.355 . S
N439 C442 1.311 . S
C440 N439 1.355 . S
C440 C441 1.363 . S
C440 H452 0.929 . S
C441 C440 1.363 . S
C441 N443 1.375 . S
C441 H459 0.931 . S
C442 N439 1.311 . S
C442 N443 1.347 . S
C442 H453 0.929 . S
N443 C441 1.375 . S
N443 C442 1.347 . S
C444 C447 1.365 . S
C444 N449 1.328 . S
C444 H450 0.929 . S
C445 C446 1.362 . S
C445 C448 1.378 1_554 S
C445 H460 0.929 . S
C446 C445 1.362 . S
C446 C447 1.366 1_554 S
C447 C444 1.365 . S
C447 C446 1.366 1_556 S
C447 H461 0.930 . S
C448 C445 1.378 1_556 S
C448 N449 1.315 . S
C448 H451 0.930 . S
N449 Co429 2.194 . S
N449 C444 1.328 . S
N449 C448 1.315 . S
H450 C444 0.929 . S
H451 C448 0.930 . S
H452 C440 0.929 . S
H453 C442 0.929 . S
O454 Co429 2.351 . S
O454 C457 1.244 . S
O455 Co429 2.155 . S
O455 C457 1.240 . S
O456 Co429 2.096 . S
O456 C437 1.247 . S
C457 O454 1.244 . S
C457 O455 1.240 . S
H458 C432 0.931 . S
H459 C441 0.931 . S
H460 C445 0.929 . S
H461 C447 0.930 . S
Co462 N466 2.148 . S
Co462 N472 2.128 . S
Co462 N482 2.194 . S
Co462 O487 2.351 . S
Co462 O488 2.155 . S
Co462 O489 2.096 . S
C463 N466 1.301 . S
C463 N467 1.328 . S
C463 H468 0.930 . S
C464 C465 1.333 . S
C464 N466 1.317 . S
C464 H469 0.930 . S
C465 C464 1.333 . S
C465 N467 1.350 . S
C465 H491 0.931 . S
N466 Co462 2.148 . S
N466 C463 1.301 . S
N466 C464 1.317 . S
N467 C463 1.328 . S
N467 C465 1.350 . S
H468 C463 0.930 . S
H469 C464 0.930 . S
C470 O471 1.224 . S
C470 O489 1.247 . S
O471 C470 1.224 . S
N472 Co462 2.128 . S
N472 C473 1.355 . S
N472 C475 1.311 . S
C473 N472 1.355 . S
C473 C474 1.363 . S
C473 H485 0.929 . S
C474 C473 1.363 . S
C474 N476 1.375 . S
C474 H492 0.931 . S
C475 N472 1.311 . S
C475 N476 1.347 . S
C475 H486 0.929 . S
N476 C474 1.375 . S
N476 C475 1.347 . S
C477 C480 1.365 . S
C477 N482 1.328 . S
C477 H483 0.929 . S
C478 C479 1.362 . S
C478 C481 1.378 1_554 S
C478 H493 0.929 . S
C479 C478 1.362 . S
C479 C480 1.366 1_554 S
C480 C477 1.365 . S
C480 C479 1.366 1_556 S
C480 H494 0.930 . S
C481 C478 1.378 1_556 S
C481 N482 1.315 . S
C481 H484 0.930 . S
N482 Co462 2.194 . S
N482 C477 1.328 . S
N482 C481 1.315 . S
H483 C477 0.929 . S
H484 C481 0.930 . S
H485 C473 0.929 . S
H486 C475 0.929 . S
O487 Co462 2.351 . S
O487 C490 1.244 . S
O488 Co462 2.155 . S
O488 C490 1.240 . S
O489 Co462 2.096 . S
O489 C470 1.247 . S
C490 O487 1.244 . S
C490 O488 1.240 . S
H491 C465 0.931 . S
H492 C474 0.931 . S
H493 C478 0.929 . S
H494 C480 0.930 . S
Co495 N499 2.148 . S
Co495 N505 2.128 . S
Co495 N515 2.194 . S
Co495 O520 2.351 . S
Co495 O521 2.155 . S
Co495 O522 2.096 . S
C496 N499 1.301 . S
C496 N500 1.328 . S
C496 H501 0.930 . S
C497 C498 1.333 . S
C497 N499 1.317 . S
C497 H502 0.930 . S
C498 C497 1.333 . S
C498 N500 1.350 . S
C498 H524 0.931 . S
N499 Co495 2.148 . S
N499 C496 1.301 . S
N499 C497 1.317 . S
N500 C496 1.328 . S
N500 C498 1.350 . S
H501 C496 0.930 . S
H502 C497 0.930 . S
C503 O504 1.224 . S
C503 O522 1.247 . S
O504 C503 1.224 . S
N505 Co495 2.128 . S
N505 C506 1.355 . S
N505 C508 1.311 . S
C506 N505 1.355 . S
C506 C507 1.363 . S
C506 H518 0.929 . S
C507 C506 1.363 . S
C507 N509 1.375 . S
C507 H525 0.931 . S
C508 N505 1.311 . S
C508 N509 1.347 . S
C508 H519 0.929 . S
N509 C507 1.375 . S
N509 C508 1.347 . S
C510 C513 1.365 . S
C510 N515 1.328 . S
C510 H516 0.929 . S
C511 C512 1.362 . S
C511 C514 1.378 . S
C511 H526 0.929 . S
C512 C511 1.362 . S
C512 C513 1.366 . S
C513 C510 1.365 . S
C513 C512 1.366 . S
C513 H527 0.930 . S
C514 C511 1.378 . S
C514 N515 1.315 . S
C514 H517 0.930 . S
N515 Co495 2.194 . S
N515 C510 1.328 . S
N515 C514 1.315 . S
H516 C510 0.929 . S
H517 C514 0.930 . S
H518 C506 0.929 . S
H519 C508 0.929 . S
O520 Co495 2.351 . S
O520 C523 1.244 . S
O521 Co495 2.155 . S
O521 C523 1.240 . S
O522 Co495 2.096 . S
O522 C503 1.247 . S
C523 O520 1.244 . S
C523 O521 1.240 . S
H524 C498 0.931 . S
H525 C507 0.931 . S
H526 C511 0.929 . S
H527 C513 0.930 . S
Co528 N532 2.148 . S
Co528 N538 2.128 . S
Co528 N548 2.194 . S
Co528 O553 2.351 . S
Co528 O554 2.155 . S
Co528 O555 2.096 . S
C529 N532 1.301 . S
C529 N533 1.328 . S
C529 H534 0.930 . S
C530 C531 1.333 . S
C530 N532 1.317 . S
C530 H535 0.930 . S
C531 C530 1.333 . S
C531 N533 1.350 . S
C531 H557 0.931 . S
N532 Co528 2.148 . S
N532 C529 1.301 . S
N532 C530 1.317 . S
N533 C529 1.328 . S
N533 C531 1.350 . S
H534 C529 0.930 . S
H535 C530 0.930 . S
C536 O537 1.224 . S
C536 O555 1.247 . S
O537 C536 1.224 . S
N538 Co528 2.128 . S
N538 C539 1.355 . S
N538 C541 1.311 . S
C539 N538 1.355 . S
C539 C540 1.363 . S
C539 H551 0.929 . S
C540 C539 1.363 . S
C540 N542 1.375 . S
C540 H558 0.931 . S
C541 N538 1.311 . S
C541 N542 1.347 . S
C541 H552 0.929 . S
N542 C540 1.375 . S
N542 C541 1.347 . S
C543 C546 1.365 . S
C543 N548 1.328 . S
C543 H549 0.929 . S
C544 C545 1.362 . S
C544 C547 1.378 . S
C544 H559 0.929 . S
C545 C544 1.362 . S
C545 C546 1.366 . S
C546 C543 1.365 . S
C546 C545 1.366 . S
C546 H560 0.930 . S
C547 C544 1.378 . S
C547 N548 1.315 . S
C547 H550 0.930 . S
N548 Co528 2.194 . S
N548 C543 1.328 . S
N548 C547 1.315 . S
H549 C543 0.929 . S
H550 C547 0.930 . S
H551 C539 0.929 . S
H552 C541 0.929 . S
O553 Co528 2.351 . S
O553 C556 1.244 . S
O554 Co528 2.155 . S
O554 C556 1.240 . S
O555 Co528 2.096 . S
O555 C536 1.247 . S
C556 O553 1.244 . S
C556 O554 1.240 . S
H557 C531 0.931 . S
H558 C540 0.931 . S
H559 C544 0.929 . S
H560 C546 0.930 . S
Co561 N565 2.148 . S
Co561 N571 2.128 . S
Co561 N581 2.194 . S
Co561 O586 2.351 . S
Co561 O587 2.155 . S
Co561 O588 2.096 . S
C562 N565 1.301 . S
C562 N566 1.328 . S
C562 H567 0.930 . S
C563 C564 1.333 . S
C563 N565 1.317 . S
C563 H568 0.930 . S
C564 C563 1.333 . S
C564 N566 1.350 . S
C564 H590 0.931 . S
N565 Co561 2.148 . S
N565 C562 1.301 . S
N565 C563 1.317 . S
N566 C562 1.328 . S
N566 C564 1.350 . S
H567 C562 0.930 . S
H568 C563 0.930 . S
C569 O570 1.224 . S
C569 O588 1.247 . S
O570 C569 1.224 . S
N571 Co561 2.128 . S
N571 C572 1.355 . S
N571 C574 1.311 . S
C572 N571 1.355 . S
C572 C573 1.363 . S
C572 H584 0.929 . S
C573 C572 1.363 . S
C573 N575 1.375 . S
C573 H591 0.931 . S
C574 N571 1.311 . S
C574 N575 1.347 . S
C574 H585 0.929 . S
N575 C573 1.375 . S
N575 C574 1.347 . S
C576 C579 1.365 . S
C576 N581 1.328 . S
C576 H582 0.929 . S
C577 C578 1.362 . S
C577 C580 1.378 . S
C577 H592 0.929 . S
C578 C577 1.362 . S
C578 C579 1.366 . S
C579 C576 1.365 . S
C579 C578 1.366 . S
C579 H593 0.930 . S
C580 C577 1.378 . S
C580 N581 1.315 . S
C580 H583 0.930 . S
N581 Co561 2.194 . S
N581 C576 1.328 . S
N581 C580 1.315 . S
H582 C576 0.929 . S
H583 C580 0.930 . S
H584 C572 0.929 . S
H585 C574 0.929 . S
O586 Co561 2.351 . S
O586 C589 1.244 . S
O587 Co561 2.155 . S
O587 C589 1.240 . S
O588 Co561 2.096 . S
O588 C569 1.247 . S
C589 O586 1.244 . S
C589 O587 1.240 . S
H590 C564 0.931 . S
H591 C573 0.931 . S
H592 C577 0.929 . S
H593 C579 0.930 . S
C594 C595 1.387 . S
C594 H598 0.950 . S
C594 C603 1.390 . S
C595 C594 1.387 . S
C595 C597 1.387 . S
H596 C603 0.950 . S
C597 C595 1.387 . S
C597 C599 1.390 . S
C597 H601 0.950 . S
H598 C594 0.950 . S
C599 C597 1.390 . S
C599 C600 1.387 . S
C599 H602 0.950 . S
C600 C599 1.387 . S
C600 C603 1.387 . S
H601 C597 0.950 . S
H602 C599 0.950 . S
C603 C594 1.390 . S
C603 H596 0.950 . S
C603 C600 1.387 . S
C604 C605 1.387 . S
C604 H608 0.950 . S
C604 C613 1.390 1_565 S
C605 C604 1.387 . S
C605 C607 1.373 1_565 S
H606 C613 0.950 . S
C607 C605 1.373 1_545 S
C607 C609 1.418 . S
C607 H611 0.936 1_545 S
H608 C604 0.950 . S
C609 C607 1.418 . S
C609 C610 1.387 . S
C609 H612 0.950 . S
C610 C609 1.387 . S
C610 C613 1.387 . S
H611 C607 0.936 1_565 S
H612 C609 0.950 . S
C613 C604 1.390 1_545 S
C613 H606 0.950 . S
C613 C610 1.387 . S
C614 C615 1.387 . S
C614 H618 0.950 . S
C614 C623 1.390 1_655 S
C615 C614 1.387 . S
C615 C617 1.387 . S
H616 C623 0.950 . S
C617 C615 1.387 . S
C617 C619 1.420 . S
C617 H621 0.950 . S
H618 C614 0.950 . S
C619 C617 1.420 . S
C619 C620 1.371 1_655 S
C619 H622 0.937 1_655 S
C620 C619 1.371 1_455 S
C620 C623 1.387 . S
H621 C617 0.950 . S
H622 C619 0.937 1_455 S
C623 C614 1.390 1_455 S
C623 H616 0.950 . S
C623 C620 1.387 . S
C624 C625 1.387 . S
C624 H628 0.950 . S
C624 C633 1.390 . S
C625 C624 1.387 . S
C625 C627 1.387 . S
H626 C633 0.950 . S
C627 C625 1.387 . S
C627 C629 1.390 . S
C627 H631 0.950 . S
H628 C624 0.950 . S
C629 C627 1.390 . S
C629 C630 1.387 . S
C629 H632 0.950 . S
C630 C629 1.387 . S
C630 C633 1.387 . S
H631 C627 0.950 . S
H632 C629 0.950 . S
C633 C624 1.390 . S
C633 H626 0.950 . S
C633 C630 1.387 . S
C634 C635 1.383 1_565 S
C634 H638 0.943 1_565 S
C634 C643 1.401 . S
C635 C634 1.383 1_545 S
C635 C637 1.387 . S
H636 C643 0.950 . S
C637 C635 1.387 . S
C637 C639 1.390 1_545 S
C637 H641 0.950 . S
H638 C634 0.943 1_545 S
C639 C637 1.390 1_565 S
C639 C640 1.387 . S
C639 H642 0.950 . S
C640 C639 1.387 . S
C640 C643 1.387 . S
H641 C637 0.950 . S
H642 C639 0.950 . S
C643 C634 1.401 . S
C643 H636 0.950 . S
C643 C640 1.387 . S
C644 C645 1.387 . S
C644 H648 0.950 . S
C644 C653 1.390 1_455 S
C645 C644 1.387 . S
C645 C647 1.387 . S
H646 C653 0.950 . S
C647 C645 1.387 . S
C647 C649 1.415 . S
C647 H651 0.950 . S
H648 C644 0.950 . S
C649 C647 1.415 . S
C649 C650 1.374 1_455 S
C649 H652 0.938 1_455 S
C650 C649 1.374 1_655 S
C650 C653 1.387 . S
H651 C647 0.950 . S
H652 C649 0.938 1_655 S
C653 C644 1.390 1_655 S
C653 H646 0.950 . S
C653 C650 1.387 . S
C654 C655 1.387 . S
C654 H658 0.950 . S
C654 C663 1.390 . S
C655 C654 1.387 . S
C655 C657 1.387 . S
H656 C663 0.950 . S
C657 C655 1.387 . S
C657 C659 1.390 . S
C657 H661 0.950 . S
H658 C654 0.950 . S
C659 C657 1.390 . S
C659 C660 1.387 . S
C659 H662 0.950 . S
C660 C659 1.387 . S
C660 C663 1.387 . S
H661 C657 0.950 . S
H662 C659 0.950 . S
C663 C654 1.390 . S
C663 H656 0.950 . S
C663 C660 1.387 . S
C664 C665 1.387 . S
C664 H668 0.950 . S
C664 C673 1.390 . S
C665 C664 1.387 . S
C665 C667 1.387 . S
H666 C673 0.950 . S
C667 C665 1.387 . S
C667 C669 1.390 . S
C667 H671 0.950 . S
H668 C664 0.950 . S
C669 C667 1.390 . S
C669 C670 1.387 . S
C669 H672 0.950 . S
C670 C669 1.387 . S
C670 C673 1.387 . S
H671 C667 0.950 . S
H672 C669 0.950 . S
C673 C664 1.390 . S
C673 H666 0.950 . S
C673 C670 1.387 . S
C674 C675 1.387 . S
C674 H678 0.950 . S
C674 C683 1.390 . S
C675 C674 1.387 . S
C675 C677 1.387 . S
H676 C683 0.950 . S
C677 C675 1.387 . S
C677 C679 1.390 . S
C677 H681 0.950 . S
H678 C674 0.950 . S
C679 C677 1.390 . S
C679 C680 1.387 . S
C679 H682 0.950 . S
C680 C679 1.387 . S
C680 C683 1.387 . S
H681 C677 0.950 . S
H682 C679 0.950 . S
C683 C674 1.390 . S
C683 H676 0.950 . S
C683 C680 1.387 . S
C684 C685 1.387 . S
C684 H688 0.950 . S
C684 C693 1.390 . S
C685 C684 1.387 . S
C685 C687 1.387 . S
H686 C693 0.950 . S
C687 C685 1.387 . S
C687 C689 1.390 . S
C687 H691 0.950 . S
H688 C684 0.950 . S
C689 C687 1.390 . S
C689 C690 1.387 . S
C689 H692 0.950 . S
C690 C689 1.387 . S
C690 C693 1.387 . S
H691 C687 0.950 . S
H692 C689 0.950 . S
C693 C684 1.390 . S
C693 H686 0.950 . S
C693 C690 1.387 . S
C694 C695 1.387 . S
C694 H698 0.950 . S
C694 C703 1.390 . S
C695 C694 1.387 . S
C695 C697 1.387 . S
H696 C703 0.950 . S
C697 C695 1.387 . S
C697 C699 1.390 . S
C697 H701 0.950 . S
H698 C694 0.950 . S
C699 C697 1.390 . S
C699 C700 1.387 . S
C699 H702 0.950 . S
C700 C699 1.387 . S
C700 C703 1.387 . S
H701 C697 0.950 . S
H702 C699 0.950 . S
C703 C694 1.390 . S
C703 H696 0.950 . S
C703 C700 1.387 . S
C704 C705 1.387 . S
C704 H708 0.950 . S
C704 C713 1.390 . S
C705 C704 1.387 . S
C705 C707 1.387 . S
H706 C713 0.950 . S
C707 C705 1.387 . S
C707 C709 1.390 . S
C707 H711 0.950 . S
H708 C704 0.950 . S
C709 C707 1.390 . S
C709 C710 1.387 . S
C709 H712 0.950 . S
C710 C709 1.387 . S
C710 C713 1.387 . S
H711 C707 0.950 . S
H712 C709 0.950 . S
C713 C704 1.390 . S
C713 H706 0.950 . S
C713 C710 1.387 . S
C714 C715 1.387 . S
C714 H718 0.950 . S
C714 C723 1.390 . S
C715 C714 1.387 . S
C715 C717 1.387 . S
H716 C723 0.950 . S
C717 C715 1.387 . S
C717 C719 1.390 . S
C717 H721 0.950 . S
H718 C714 0.950 . S
C719 C717 1.390 . S
C719 C720 1.387 . S
C719 H722 0.950 . S
C720 C719 1.387 . S
C720 C723 1.387 . S
H721 C717 0.950 . S
H722 C719 0.950 . S
C723 C714 1.390 . S
C723 H716 0.950 . S
C723 C720 1.387 . S
C724 C725 1.387 . S
C724 H728 0.950 . S
C724 C733 1.390 . S
C725 C724 1.387 . S
C725 C727 1.387 . S
H726 C733 0.950 . S
C727 C725 1.387 . S
C727 C729 1.390 . S
C727 H731 0.950 . S
H728 C724 0.950 . S
C729 C727 1.390 . S
C729 C730 1.387 . S
C729 H732 0.950 . S
C730 C729 1.387 . S
C730 C733 1.387 . S
H731 C727 0.950 . S
H732 C729 0.950 . S
C733 C724 1.390 . S
C733 H726 0.950 . S
C733 C730 1.387 . S
C734 C735 1.387 . S
C734 H738 0.950 . S
C734 C743 1.390 . S
C735 C734 1.387 . S
C735 C737 1.387 . S
H736 C743 0.950 . S
C737 C735 1.387 . S
C737 C739 1.390 . S
C737 H741 0.950 . S
H738 C734 0.950 . S
C739 C737 1.390 . S
C739 C740 1.387 . S
C739 H742 0.950 . S
C740 C739 1.387 . S
C740 C743 1.387 . S
H741 C737 0.950 . S
H742 C739 0.950 . S
C743 C734 1.390 . S
C743 H736 0.950 . S
C743 C740 1.387 . S
C744 C745 1.387 . S
C744 H748 0.950 . S
C744 C753 1.390 . S
C745 C744 1.387 . S
C745 C747 1.387 . S
H746 C753 0.950 . S
C747 C745 1.387 . S
C747 C749 1.390 . S
C747 H751 0.950 . S
H748 C744 0.950 . S
C749 C747 1.390 . S
C749 C750 1.387 . S
C749 H752 0.950 . S
C750 C749 1.387 . S
C750 C753 1.387 . S
H751 C747 0.950 . S
H752 C749 0.950 . S
C753 C744 1.390 . S
C753 H746 0.950 . S
C753 C750 1.387 . S
C754 C755 1.387 . S
C754 H758 0.950 . S
C754 C763 1.390 . S
C755 C754 1.387 . S
C755 C757 1.387 . S
H756 C763 0.950 . S
C757 C755 1.387 . S
C757 C759 1.390 . S
C757 H761 0.950 . S
H758 C754 0.950 . S
C759 C757 1.390 . S
C759 C760 1.387 . S
C759 H762 0.950 . S
C760 C759 1.387 . S
C760 C763 1.387 . S
H761 C757 0.950 . S
H762 C759 0.950 . S
C763 C754 1.390 . S
C763 H756 0.950 . S
C763 C760 1.387 . S
C764 C765 1.387 . S
C764 H768 0.950 . S
C764 C773 1.390 . S
C765 C764 1.387 . S
C765 C767 1.387 . S
H766 C773 0.950 . S
C767 C765 1.387 . S
C767 C769 1.390 . S
C767 H771 0.950 . S
H768 C764 0.950 . S
C769 C767 1.390 . S
C769 C770 1.387 . S
C769 H772 0.950 . S
C770 C769 1.387 . S
C770 C773 1.387 . S
H771 C767 0.950 . S
H772 C769 0.950 . S
C773 C764 1.390 . S
C773 H766 0.950 . S
C773 C770 1.387 . S
C774 C775 1.387 . S
C774 H778 0.950 . S
C774 C783 1.390 . S
C775 C774 1.387 . S
C775 C777 1.387 . S
H776 C783 0.950 . S
C777 C775 1.387 . S
C777 C779 1.390 . S
C777 H781 0.950 . S
H778 C774 0.950 . S
C779 C777 1.390 . S
C779 C780 1.387 . S
C779 H782 0.950 . S
C780 C779 1.387 . S
C780 C783 1.387 . S
H781 C777 0.950 . S
H782 C779 0.950 . S
C783 C774 1.390 . S
C783 H776 0.950 . S
C783 C780 1.387 . S
C784 C785 1.387 . S
C784 H788 0.950 . S
C784 C793 1.390 . S
C785 C784 1.387 . S
C785 C787 1.387 . S
H786 C793 0.950 . S
C787 C785 1.387 . S
C787 C789 1.390 . S
C787 H791 0.950 . S
H788 C784 0.950 . S
C789 C787 1.390 . S
C789 C790 1.387 . S
C789 H792 0.950 . S
C790 C789 1.387 . S
C790 C793 1.387 . S
H791 C787 0.950 . S
H792 C789 0.950 . S
C793 C784 1.390 . S
C793 H786 0.950 . S
C793 C790 1.387 . S
C794 C795 1.387 . S
C794 H798 0.950 . S
C794 C803 1.390 . S
C795 C794 1.387 . S
C795 C797 1.387 . S
H796 C803 0.950 . S
C797 C795 1.387 . S
C797 C799 1.390 . S
C797 H801 0.950 . S
H798 C794 0.950 . S
C799 C797 1.390 . S
C799 C800 1.387 . S
C799 H802 0.950 . S
C800 C799 1.387 . S
C800 C803 1.387 . S
H801 C797 0.950 . S
H802 C799 0.950 . S
C803 C794 1.390 . S
C803 H796 0.950 . S
C803 C800 1.387 . S
C804 C805 1.387 . S
C804 H808 0.950 . S
C804 C813 1.390 . S
C805 C804 1.387 . S
C805 C807 1.387 . S
H806 C813 0.950 . S
C807 C805 1.387 . S
C807 C809 1.390 . S
C807 H811 0.950 . S
H808 C804 0.950 . S
C809 C807 1.390 . S
C809 C810 1.387 . S
C809 H812 0.950 . S
C810 C809 1.387 . S
C810 C813 1.387 . S
H811 C807 0.950 . S
H812 C809 0.950 . S
C813 C804 1.390 . S
C813 H806 0.950 . S
C813 C810 1.387 . S
C814 C815 1.387 . S
C814 H818 0.950 . S
C814 C823 1.390 . S
C815 C814 1.387 . S
C815 C817 1.387 . S
H816 C823 0.950 . S
C817 C815 1.387 . S
C817 C819 1.390 . S
C817 H821 0.950 . S
H818 C814 0.950 . S
C819 C817 1.390 . S
C819 C820 1.387 . S
C819 H822 0.950 . S
C820 C819 1.387 . S
C820 C823 1.387 . S
H821 C817 0.950 . S
H822 C819 0.950 . S
C823 C814 1.390 . S
C823 H816 0.950 . S
C823 C820 1.387 . S
C824 C825 1.387 . S
C824 H828 0.950 . S
C824 C833 1.390 . S
C825 C824 1.387 . S
C825 C827 1.387 . S
H826 C833 0.950 . S
C827 C825 1.387 . S
C827 C829 1.390 . S
C827 H831 0.950 . S
H828 C824 0.950 . S
C829 C827 1.390 . S
C829 C830 1.387 . S
C829 H832 0.950 . S
C830 C829 1.387 . S
C830 C833 1.387 . S
H831 C827 0.950 . S
H832 C829 0.950 . S
C833 C824 1.390 . S
C833 H826 0.950 . S
C833 C830 1.387 . S
C834 C835 1.387 . S
C834 H838 0.950 . S
C834 C843 1.390 1_655 S
C835 C834 1.387 . S
C835 C837 1.387 . S
H836 C843 0.950 . S
C837 C835 1.387 . S
C837 C839 1.390 1_655 S
C837 H841 0.950 . S
H838 C834 0.950 . S
C839 C837 1.390 1_455 S
C839 C840 1.387 . S
C839 H842 0.950 . S
C840 C839 1.387 . S
C840 C843 1.387 . S
H841 C837 0.950 . S
H842 C839 0.950 . S
C843 C834 1.390 1_455 S
C843 H836 0.950 . S
C843 C840 1.387 . S
C844 C845 1.387 . S
C844 H848 0.950 . S
C844 C853 1.390 . S
C845 C844 1.387 . S
C845 C847 1.387 . S
H846 C853 0.950 . S
C847 C845 1.387 . S
C847 C849 1.390 . S
C847 H851 0.950 . S
H848 C844 0.950 . S
C849 C847 1.390 . S
C849 C850 1.387 . S
C849 H852 0.950 . S
C850 C849 1.387 . S
C850 C853 1.387 . S
H851 C847 0.950 . S
H852 C849 0.950 . S
C853 C844 1.390 . S
C853 H846 0.950 . S
C853 C850 1.387 . S
C854 C855 1.387 . S
C854 H858 0.950 . S
C854 C863 1.390 1_565 S
C855 C854 1.387 . S
C855 C857 1.387 . S
H856 C863 0.950 . S
C857 C855 1.387 . S
C857 C859 1.390 1_565 S
C857 H861 0.950 . S
H858 C854 0.950 . S
C859 C857 1.390 1_545 S
C859 C860 1.387 . S
C859 H862 0.950 . S
C860 C859 1.387 . S
C860 C863 1.387 . S
H861 C857 0.950 . S
H862 C859 0.950 . S
C863 C854 1.390 1_545 S
C863 H856 0.950 . S
C863 C860 1.387 . S
C864 C865 1.387 . S
C864 H868 0.950 . S
C864 C873 1.390 1_565 S
C865 C864 1.387 . S
C865 C867 1.387 . S
H866 C873 0.950 . S
C867 C865 1.387 . S
C867 C869 1.390 1_565 S
C867 H871 0.950 . S
H868 C864 0.950 . S
C869 C867 1.390 1_545 S
C869 C870 1.387 . S
C869 H872 0.950 . S
C870 C869 1.387 . S
C870 C873 1.387 . S
H871 C867 0.950 . S
H872 C869 0.950 . S
C873 C864 1.390 1_545 S
C873 H866 0.950 . S
C873 C870 1.387 . S
C874 C875 1.387 . S
C874 H878 0.950 . S
C874 C883 1.390 1_655 S
C875 C874 1.387 . S
C875 C877 1.387 . S
H876 C883 0.950 . S
C877 C875 1.387 . S
C877 C879 1.390 1_655 S
C877 H881 0.950 . S
H878 C874 0.950 . S
C879 C877 1.390 1_455 S
C879 C880 1.387 . S
C879 H882 0.950 . S
C880 C879 1.387 . S
C880 C883 1.387 . S
H881 C877 0.950 . S
H882 C879 0.950 . S
C883 C874 1.390 1_455 S
C883 H876 0.950 . S
C883 C880 1.387 . S
C884 C885 1.387 . S
C884 H888 0.950 . S
C884 C893 1.390 . S
C885 C884 1.387 . S
C885 C887 1.387 . S
H886 C893 0.950 . S
C887 C885 1.387 . S
C887 C889 1.390 . S
C887 H891 0.950 . S
H888 C884 0.950 . S
C889 C887 1.390 . S
C889 C890 1.387 . S
C889 H892 0.950 . S
C890 C889 1.387 . S
C890 C893 1.387 . S
H891 C887 0.950 . S
H892 C889 0.950 . S
C893 C884 1.390 . S
C893 H886 0.950 . S
C893 C890 1.387 . S
C894 C895 1.387 . S
C894 H898 0.950 . S
C894 C903 1.390 . S
C895 C894 1.387 . S
C895 C897 1.387 . S
H896 C903 0.950 . S
C897 C895 1.387 . S
C897 C899 1.390 . S
C897 H901 0.950 . S
H898 C894 0.950 . S
C899 C897 1.390 . S
C899 C900 1.387 . S
C899 H902 0.950 . S
C900 C899 1.387 . S
C900 C903 1.387 . S
H901 C897 0.950 . S
H902 C899 0.950 . S
C903 C894 1.390 . S
C903 H896 0.950 . S
C903 C900 1.387 . S
C904 C905 1.387 . S
C904 H908 0.950 . S
C904 C913 1.390 . S
C905 C904 1.387 . S
C905 C907 1.387 . S
H906 C913 0.950 . S
C907 C905 1.387 . S
C907 C909 1.390 . S
C907 H911 0.950 . S
H908 C904 0.950 . S
C909 C907 1.390 . S
C909 C910 1.387 . S
C909 H912 0.950 . S
C910 C909 1.387 . S
C910 C913 1.387 . S
H911 C907 0.950 . S
H912 C909 0.950 . S
C913 C904 1.390 . S
C913 H906 0.950 . S
C913 C910 1.387 . S
C914 C915 1.387 . S
C914 H918 0.950 . S
C914 C923 1.390 . S
C915 C914 1.387 . S
C915 C917 1.387 . S
H916 C923 0.950 . S
C917 C915 1.387 . S
C917 C919 1.390 . S
C917 H921 0.950 . S
H918 C914 0.950 . S
C919 C917 1.390 . S
C919 C920 1.387 . S
C919 H922 0.950 . S
C920 C919 1.387 . S
C920 C923 1.387 . S
H921 C917 0.950 . S
H922 C919 0.950 . S
C923 C914 1.390 . S
C923 H916 0.950 . S
C923 C920 1.387 . S
C924 C925 1.387 . S
C924 H928 0.950 . S
C924 C933 1.390 . S
C925 C924 1.387 . S
C925 C927 1.387 . S
H926 C933 0.950 . S
C927 C925 1.387 . S
C927 C929 1.390 . S
C927 H931 0.950 . S
H928 C924 0.950 . S
C929 C927 1.390 . S
C929 C930 1.387 . S
C929 H932 0.950 . S
C930 C929 1.387 . S
C930 C933 1.387 . S
H931 C927 0.950 . S
H932 C929 0.950 . S
C933 C924 1.390 . S
C933 H926 0.950 . S
C933 C930 1.387 . S
C934 C935 1.387 . S
C934 H938 0.950 . S
C934 C943 1.390 . S
C935 C934 1.387 . S
C935 C937 1.387 . S
H936 C943 0.950 . S
C937 C935 1.387 . S
C937 C939 1.390 . S
C937 H941 0.950 . S
H938 C934 0.950 . S
C939 C937 1.390 . S
C939 C940 1.387 . S
C939 H942 0.950 . S
C940 C939 1.387 . S
C940 C943 1.387 . S
H941 C937 0.950 . S
H942 C939 0.950 . S
C943 C934 1.390 . S
C943 H936 0.950 . S
C943 C940 1.387 . S
C944 C945 1.387 . S
C944 H948 0.950 . S
C944 C953 1.390 . S
C945 C944 1.387 . S
C945 C947 1.387 . S
H946 C953 0.950 . S
C947 C945 1.387 . S
C947 C949 1.390 . S
C947 H951 0.950 . S
H948 C944 0.950 . S
C949 C947 1.390 . S
C949 C950 1.387 . S
C949 H952 0.950 . S
C950 C949 1.387 . S
C950 C953 1.387 . S
H951 C947 0.950 . S
H952 C949 0.950 . S
C953 C944 1.390 . S
C953 H946 0.950 . S
C953 C950 1.387 . S
C954 C955 1.387 . S
C954 H958 0.950 . S
C954 C963 1.390 1_554 S
C955 C954 1.387 . S
C955 C957 1.387 1_565 S
H956 C963 0.950 . S
C957 C955 1.387 1_545 S
C957 C959 1.390 1_554 S
C957 H961 0.950 . S
H958 C954 0.950 . S
C959 C957 1.390 1_556 S
C959 C960 1.387 . S
C959 H962 0.950 . S
C960 C959 1.387 . S
C960 C963 1.387 1_545 S
H961 C957 0.950 . S
H962 C959 0.950 . S
C963 C954 1.390 1_556 S
C963 H956 0.950 . S
C963 C960 1.387 1_565 S
C964 C965 1.387 1_655 S
C964 H968 0.950 . S
C964 C973 1.390 1_554 S
C965 C964 1.387 1_455 S
C965 C967 1.387 . S
H966 C973 0.950 . S
C967 C965 1.387 . S
C967 C969 1.390 1_554 S
C967 H971 0.950 . S
H968 C964 0.950 . S
C969 C967 1.390 1_556 S
C969 C970 1.387 1_455 S
C969 H972 0.950 . S
C970 C969 1.387 1_655 S
C970 C973 1.387 . S
H971 C967 0.950 . S
H972 C969 0.950 . S
C973 C964 1.390 1_556 S
C973 H966 0.950 . S
C973 C970 1.387 . S
C974 C975 1.387 . S
C974 H978 0.950 . S
C974 C983 1.392 . S
C975 C974 1.387 . S
C975 C977 1.386 1_556 S
H976 C983 0.950 . S
C977 C975 1.386 1_554 S
C977 C979 1.392 . S
C977 H981 0.950 . S
H978 C974 0.950 . S
C979 C977 1.392 . S
C979 C980 1.387 . S
C979 H982 0.950 . S
C980 C979 1.387 . S
C980 C983 1.386 1_554 S
H981 C977 0.950 . S
H982 C979 0.950 . S
C983 C974 1.392 . S
C983 H976 0.950 . S
C983 C980 1.386 1_556 S
C984 C985 1.387 . S
C984 H988 0.950 . S
C984 C993 1.390 . S
C985 C984 1.387 . S
C985 C987 1.387 . S
H986 C993 0.950 . S
C987 C985 1.387 . S
C987 C989 1.390 . S
C987 H991 0.950 . S
H988 C984 0.950 . S
C989 C987 1.390 . S
C989 C990 1.387 . S
C989 H992 0.950 . S
C990 C989 1.387 . S
C990 C993 1.387 . S
H991 C987 0.950 . S
H992 C989 0.950 . S
C993 C984 1.390 . S
C993 H986 0.950 . S
C993 C990 1.387 . S
C994 C995 1.387 . S
C994 H998 0.950 . S
C994 C1003 1.390 . S
C995 C994 1.387 . S
C995 C997 1.387 . S
H996 C1003 0.950 . S
C997 C995 1.387 . S
C997 C999 1.390 . S
C997 H1001 0.950 . S
H998 C994 0.950 . S
C999 C997 1.390 . S
C999 C1000 1.387 . S
C999 H1002 0.950 . S
C1000 C999 1.387 . S
C1000 C1003 1.387 . S
H1001 C997 0.950 . S
H1002 C999 0.950 . S
C1003 C994 1.390 . S
C1003 H996 0.950 . S
C1003 C1000 1.387 . S
C1004 C1005 1.387 . S
C1004 H1008 0.950 . S
C1004 C1013 1.390 . S
C1005 C1004 1.387 . S
C1005 C1007 1.387 . S
H1006 C1013 0.950 . S
C1007 C1005 1.387 . S
C1007 C1009 1.390 . S
C1007 H1011 0.950 . S
H1008 C1004 0.950 . S
C1009 C1007 1.390 . S
C1009 C1010 1.387 . S
C1009 H1012 0.950 . S
C1010 C1009 1.387 . S
C1010 C1013 1.387 . S
H1011 C1007 0.950 . S
H1012 C1009 0.950 . S
C1013 C1004 1.390 . S
C1013 H1006 0.950 . S
C1013 C1010 1.387 . S
C1014 C1015 1.387 . S
C1014 H1018 0.950 . S
C1014 C1023 1.390 . S
C1015 C1014 1.387 . S
C1015 C1017 1.387 . S
H1016 C1023 0.950 . S
C1017 C1015 1.387 . S
C1017 C1019 1.390 . S
C1017 H1021 0.950 . S
H1018 C1014 0.950 . S
C1019 C1017 1.390 . S
C1019 C1020 1.387 . S
C1019 H1022 0.950 . S
C1020 C1019 1.387 . S
C1020 C1023 1.387 . S
H1021 C1017 0.950 . S
H1022 C1019 0.950 . S
C1023 C1014 1.390 . S
C1023 H1016 0.950 . S
C1023 C1020 1.387 . S
C1024 C1025 1.387 . S
C1024 H1028 0.950 . S
C1024 C1033 1.390 . S
C1025 C1024 1.387 . S
C1025 C1027 1.387 . S
H1026 C1033 0.950 . S
C1027 C1025 1.387 . S
C1027 C1029 1.390 . S
C1027 H1031 0.950 . S
H1028 C1024 0.950 . S
C1029 C1027 1.390 . S
C1029 C1030 1.387 . S
C1029 H1032 0.950 . S
C1030 C1029 1.387 . S
C1030 C1033 1.387 . S
H1031 C1027 0.950 . S
H1032 C1029 0.950 . S
C1033 C1024 1.390 . S
C1033 H1026 0.950 . S
C1033 C1030 1.387 . S
C1034 C1035 1.387 . S
C1034 H1038 0.950 . S
C1034 C1043 1.390 . S
C1035 C1034 1.387 . S
C1035 C1037 1.387 . S
H1036 C1043 0.950 . S
C1037 C1035 1.387 . S
C1037 C1039 1.390 . S
C1037 H1041 0.950 . S
H1038 C1034 0.950 . S
C1039 C1037 1.390 . S
C1039 C1040 1.387 . S
C1039 H1042 0.950 . S
C1040 C1039 1.387 . S
C1040 C1043 1.387 . S
H1041 C1037 0.950 . S
H1042 C1039 0.950 . S
C1043 C1034 1.390 . S
C1043 H1036 0.950 . S
C1043 C1040 1.387 . S
C595 C8 1.271 . S
C600 N47 1.263 . S
C605 N80 1.262 . S
C610 C41 1.268 . S
C615 C74 1.276 . S
C620 N14 1.269 . S
C625 N179 1.262 . S
C630 C107 1.269 . S
C635 N113 1.267 . S
C640 C140 1.274 . S
C645 C173 1.268 . S
C650 N146 1.261 . S
C655 N245 1.266 . S
C660 C206 1.272 . S
C665 C239 1.273 . S
C670 N278 1.266 . S
C675 C272 1.272 . S
C680 N212 1.266 . S
C685 N377 1.263 . S
C690 C305 1.270 . S
C695 N311 1.263 . S
C700 C338 1.270 . S
C705 C371 1.271 . S
C710 N344 1.264 . S
C715 N443 1.265 . S
C720 C404 1.271 . S
C725 C437 1.272 . S
C730 N476 1.266 . S
C735 C470 1.270 . S
C740 N410 1.262 . S
C745 N575 1.266 . S
C750 C503 1.273 . S
C755 N509 1.264 . S
C760 C536 1.271 . S
C765 C569 1.271 . S
C770 N542 1.264 . S
C775 N335 1.419 . S
C780 N5 1.419 . S
C785 N368 1.419 . S
C790 N38 1.414 . S
C795 N302 1.420 . S
C800 N71 1.420 . S
C805 N104 1.419 . S
C810 N467 1.417 . S
C815 N401 1.419 . S
C820 N137 1.421 . S
C825 N434 1.417 . S
C830 N170 1.416 . S
C835 N203 1.422 . S
C840 N533 1.423 . S
C845 N566 1.421 . S
C850 N236 1.422 . S
C855 N500 1.422 . S
C860 N269 1.422 . S
C865 C17 1.903 . S
C870 C182 1.900 . S
C875 C116 1.900 . S
C880 C50 1.896 . S
C885 C149 1.913 . S
C890 C83 1.912 . S
C895 C380 1.909 . S
C900 C215 1.909 . S
C905 C314 1.913 . S
C910 C248 1.912 . S
C915 C281 1.911 . S
C920 C347 1.910 . S
C925 C578 1.913 . S
C930 C413 1.913 . S
C935 C446 1.912 . S
C940 C512 1.913 . S
C945 C545 1.908 . S
C950 C479 1.908 . S
C955 C28 1.445 . S
C960 C193 1.439 . S
C965 C61 1.442 . S
C970 C127 1.445 . S
C975 C160 1.453 . S
C980 C94 1.456 . S
C985 C391 1.448 . S
C990 C226 1.448 . S
C995 C325 1.453 . S
C1000 C259 1.451 . S
C1005 C358 1.449 . S
C1010 C292 1.446 . S
C1015 C424 1.448 . S
C1020 C589 1.449 . S
C1025 C457 1.451 . S
C1030 C523 1.453 . S
C1035 C556 1.449 . S
C1040 C490 1.447 . S
