# Generated by pormake.
# Topology fst, (5)-cn, num edge types: 1
# Building blocks:
#     Node 0, Type 0, BuildingBlock: BEQFEK_clean_sbu_0, # of connection points: 5
#     Node 1, Type 0, BuildingBlock: BEQFEK_clean_sbu_0, # of connection points: 5
#     Node 2, Type 0, BuildingBlock: BEQFEK_clean_sbu_0, # of connection points: 5
#     Node 3, Type 0, BuildingBlock: BEQFEK_clean_sbu_0, # of connection points: 5
#     Node 4, Type 0, BuildingBlock: BEQFEK_clean_sbu_0, # of connection points: 5
#     Node 5, Type 0, BuildingBlock: BEQFEK_clean_sbu_0, # of connection points: 5
#     Node 6, Type 0, BuildingBlock: BEQFEK_clean_sbu_0, # of connection points: 5
#     Node 7, Type 0, BuildingBlock: BEQFEK_clean_sbu_0, # of connection points: 5
#     Node 8, Type 0, BuildingBlock: BEQFEK_clean_sbu_0, # of connection points: 5
#     Node 9, Type 0, BuildingBlock: BEQFEK_clean_sbu_0, # of connection points: 5
#     Node 10, Type 0, BuildingBlock: BEQFEK_clean_sbu_0, # of connection points: 5
#     Node 11, Type 0, BuildingBlock: BEQFEK_clean_sbu_0, # of connection points: 5
#     Edge 12, Type (0, 0), None
#     Edge 13, Type (0, 0), None
#     Edge 14, Type (0, 0), None
#     Edge 15, Type (0, 0), None
#     Edge 16, Type (0, 0), None
#     Edge 17, Type (0, 0), None
#     Edge 18, Type (0, 0), None
#     Edge 19, Type (0, 0), None
#     Edge 20, Type (0, 0), None
#     Edge 21, Type (0, 0), None
#     Edge 22, Type (0, 0), None
#     Edge 23, Type (0, 0), None
#     Edge 24, Type (0, 0), None
#     Edge 25, Type (0, 0), None
#     Edge 26, Type (0, 0), None
#     Edge 27, Type (0, 0), None
#     Edge 28, Type (0, 0), None
#     Edge 29, Type (0, 0), None
#     Edge 30, Type (0, 0), None
#     Edge 31, Type (0, 0), None
#     Edge 32, Type (0, 0), None
#     Edge 33, Type (0, 0), None
#     Edge 34, Type (0, 0), None
#     Edge 35, Type (0, 0), None
#     Edge 36, Type (0, 0), None
#     Edge 37, Type (0, 0), None
#     Edge 38, Type (0, 0), None
#     Edge 39, Type (0, 0), None
#     Edge 40, Type (0, 0), None
#     Edge 41, Type (0, 0), None
# Relax obj value: 0.024
# Max RMSD: 0.076
# Mean RMSD: 0.076
data_MOF--net-fst--node1-BEQFEK_clean_sbu_0--edge1-none
_symmetry_space_group_name_H-M    P1
_symmetry_Int_Tables_number       1
_symmetry_cell_setting            triclinic
loop_
_symmetry_equiv_pos_as_xyz
'x, y, z'
_cell_length_a     35.627003
_cell_length_b     35.626458
_cell_length_c     11.465709
_cell_angle_alpha  90.000192
_cell_angle_beta   89.999613
_cell_angle_gamma 119.99657
loop_
_atom_site_label
_atom_site_type_symbol
_atom_site_fract_x
_atom_site_fract_y
_atom_site_fract_z
_atom_type_partial_charge
Co0 Co 0.10785 0.46498 0.25399 0.0
Co1 Co 0.105 0.45909 0.98092 0.0
C2 C 0.02557 0.40565 0.11556 0.0
O3 O 0.04614 0.42048 0.21166 0.0
O4 O 0.04448 0.41734 0.01728 0.0
C5 C 0.09881 0.44094 0.5042 0.0
O6 O 0.06385 0.40405 0.47977 0.0
C7 C 0.0931 0.43491 0.7296 0.0
C8 C 0.15008 0.49246 0.65563 0.0
C9 C 0.11347 0.45396 0.62511 0.0
N10 N 0.11639 0.46147 0.81753 0.0
N11 N 0.15064 0.49548 0.7725 0.0
C12 C 0.05125 0.39349 0.74557 0.0
H13 H 0.04942 0.38022 0.83411 0.0
H14 H 0.04781 0.36905 0.68011 0.0
H15 H 0.02414 0.40002 0.734 0.0
C16 C 0.18632 0.45884 0.20986 0.0
N17 N 0.14934 0.45663 0.17411 0.0
N18 N 0.14348 0.44664 0.06317 0.0
C19 C 0.17414 0.43781 0.02676 0.0
C20 C 0.20332 0.44614 0.11802 0.0
C21 C 0.20802 0.48034 0.32184 0.0
H22 H 0.19963 0.5055 0.34498 0.0
H23 H 0.19607 0.45604 0.39312 0.0
H24 H 0.24376 0.496 0.31462 0.0
O25 O 0.11556 0.52164 0.21713 0.0
O26 O 0.11425 0.51811 0.02371 0.0
H27 H 0.18595 0.44366 0.84255 0.0
H28 H 0.19088 0.40047 0.91134 0.0
C29 C 0.17252 0.41807 0.9103 0.0
H30 H 0.13829 0.39522 0.88638 0.0
H31 H 0.17387 0.52134 0.82166 0.0
O32 O 0.11943 0.46769 0.42329 0.0
C33 C 0.1173 0.53837 0.11838 0.0
Co34 Co 0.64407 0.10727 0.25399 0.0
Co35 Co 0.6471 0.10442 0.98092 0.0
C36 C 0.62112 0.025 0.11556 0.0
O37 O 0.62685 0.04556 0.21166 0.0
O38 O 0.62834 0.0439 0.01728 0.0
C39 C 0.65907 0.09824 0.50421 0.0
O40 O 0.66099 0.06327 0.47978 0.0
C41 C 0.65938 0.09252 0.7296 0.0
C42 C 0.65881 0.14951 0.65564 0.0
C43 C 0.66071 0.1129 0.62511 0.0
N44 N 0.65611 0.11581 0.81754 0.0
N45 N 0.65636 0.15007 0.7725 0.0
C46 C 0.65896 0.05067 0.74557 0.0
H47 H 0.6704 0.04884 0.83411 0.0
H48 H 0.67995 0.04723 0.68011 0.0
H49 H 0.62531 0.02356 0.73399 0.0
C50 C 0.72867 0.18574 0.20986 0.0
N51 N 0.6939 0.14876 0.17411 0.0
N52 N 0.69804 0.14291 0.06317 0.0
C53 C 0.73752 0.17356 0.02676 0.0
C54 C 0.75838 0.20274 0.11802 0.0
C55 C 0.72887 0.20744 0.32185 0.0
H56 H 0.69532 0.19906 0.34499 0.0
H57 H 0.74123 0.19549 0.39312 0.0
H58 H 0.74897 0.24319 0.31462 0.0
O59 O 0.59512 0.11498 0.21713 0.0
O60 O 0.59733 0.11367 0.02371 0.0
H61 H 0.74348 0.18537 0.84255 0.0
H62 H 0.7916 0.19029 0.91134 0.0
C63 C 0.75564 0.17194 0.9103 0.0
H64 H 0.74426 0.13771 0.88638 0.0
H65 H 0.65373 0.1733 0.82167 0.0
O66 O 0.65293 0.11886 0.42329 0.0
C67 C 0.58013 0.11672 0.11839 0.0
Co68 Co 0.53798 0.64348 0.25399 0.0
Co69 Co 0.54387 0.64651 0.98092 0.0
C70 C 0.5973 0.62052 0.11556 0.0
O71 O 0.58247 0.62626 0.21166 0.0
O72 O 0.58562 0.62774 0.01728 0.0
C73 C 0.56202 0.65848 0.5042 0.0
O74 O 0.59891 0.6604 0.47977 0.0
C75 C 0.56805 0.65879 0.7296 0.0
C76 C 0.5105 0.65823 0.65564 0.0
C77 C 0.549 0.66012 0.62511 0.0
N78 N 0.54148 0.65552 0.81754 0.0
N79 N 0.50748 0.65577 0.7725 0.0
C80 C 0.60947 0.65836 0.74557 0.0
H81 H 0.62274 0.6698 0.83411 0.0
H82 H 0.6339 0.67935 0.68011 0.0
H83 H 0.60294 0.62472 0.73399 0.0
C84 C 0.54412 0.72809 0.20986 0.0
N85 N 0.54633 0.69331 0.17411 0.0
N86 N 0.55632 0.69745 0.06317 0.0
C87 C 0.56515 0.73693 0.02676 0.0
C88 C 0.55683 0.75779 0.11802 0.0
C89 C 0.52262 0.72829 0.32185 0.0
H90 H 0.49746 0.69474 0.34499 0.0
H91 H 0.54693 0.74065 0.39312 0.0
H92 H 0.50697 0.74839 0.31462 0.0
O93 O 0.48132 0.59453 0.21713 0.0
O94 O 0.48485 0.59675 0.02371 0.0
H95 H 0.5593 0.7429 0.84255 0.0
H96 H 0.60249 0.79101 0.91135 0.0
C97 C 0.5849 0.75506 0.9103 0.0
H98 H 0.60774 0.74367 0.88638 0.0
H99 H 0.48162 0.65315 0.82167 0.0
O100 O 0.53526 0.65235 0.42329 0.0
C101 C 0.46459 0.57955 0.11838 0.0
Co102 Co 0.8957 0.5374 0.25399 0.0
Co103 Co 0.89855 0.54329 0.98092 0.0
C104 C 0.97797 0.59673 0.11556 0.0
O105 O 0.95741 0.5819 0.21166 0.0
O106 O 0.95907 0.58504 0.01728 0.0
C107 C 0.90473 0.56144 0.5042 0.0
O108 O 0.9397 0.59833 0.47977 0.0
C109 C 0.91045 0.56747 0.7296 0.0
C110 C 0.85347 0.50992 0.65564 0.0
C111 C 0.89008 0.54842 0.62511 0.0
N112 N 0.88716 0.54091 0.81754 0.0
N113 N 0.85291 0.5069 0.7725 0.0
C114 C 0.9523 0.60889 0.74557 0.0
H115 H 0.95413 0.62216 0.83411 0.0
H116 H 0.95574 0.63333 0.68011 0.0
H117 H 0.97941 0.60236 0.73399 0.0
C118 C 0.81723 0.54354 0.20986 0.0
N119 N 0.85421 0.54575 0.17411 0.0
N120 N 0.86007 0.55574 0.06317 0.0
C121 C 0.82941 0.56457 0.02676 0.0
C122 C 0.80023 0.55624 0.11802 0.0
C123 C 0.79553 0.52204 0.32184 0.0
H124 H 0.80392 0.49688 0.34498 0.0
H125 H 0.80748 0.54634 0.39312 0.0
H126 H 0.75978 0.50638 0.31462 0.0
O127 O 0.88799 0.48074 0.21713 0.0
O128 O 0.8893 0.48427 0.02371 0.0
H129 H 0.8176 0.55872 0.84255 0.0
H130 H 0.81267 0.60191 0.91134 0.0
C131 C 0.83103 0.58431 0.9103 0.0
H132 H 0.86526 0.60716 0.88638 0.0
H133 H 0.82968 0.48104 0.82167 0.0
O134 O 0.88412 0.53469 0.42329 0.0
C135 C 0.88625 0.46401 0.11838 0.0
Co136 Co 0.35948 0.89511 0.25399 0.0
Co137 Co 0.35644 0.89796 0.98093 0.0
C138 C 0.38243 0.97738 0.11557 0.0
O139 O 0.3767 0.95682 0.21166 0.0
O140 O 0.37521 0.95848 0.01729 0.0
C141 C 0.34448 0.90414 0.50421 0.0
O142 O 0.34255 0.93911 0.47978 0.0
C143 C 0.34417 0.90986 0.7296 0.0
C144 C 0.34473 0.85287 0.65564 0.0
C145 C 0.34284 0.88948 0.62511 0.0
N146 N 0.34744 0.88657 0.81754 0.0
N147 N 0.34719 0.85231 0.7725 0.0
C148 C 0.34459 0.95171 0.74557 0.0
H149 H 0.33315 0.95354 0.83412 0.0
H150 H 0.3236 0.95515 0.68011 0.0
H151 H 0.37823 0.97882 0.73399 0.0
C152 C 0.27488 0.81664 0.20986 0.0
N153 N 0.30965 0.85362 0.17411 0.0
N154 N 0.30551 0.85948 0.06317 0.0
C155 C 0.26603 0.82882 0.02676 0.0
C156 C 0.24517 0.79964 0.11802 0.0
C157 C 0.27467 0.79494 0.32185 0.0
H158 H 0.30822 0.80332 0.34499 0.0
H159 H 0.26232 0.80689 0.39313 0.0
H160 H 0.25458 0.75919 0.31462 0.0
O161 O 0.40843 0.8874 0.21713 0.0
O162 O 0.40621 0.88871 0.02371 0.0
H163 H 0.26007 0.81701 0.84255 0.0
H164 H 0.21195 0.81209 0.91135 0.0
C165 C 0.2479 0.83044 0.9103 0.0
H166 H 0.25929 0.86467 0.88638 0.0
H167 H 0.34982 0.82908 0.82167 0.0
O168 O 0.35061 0.88352 0.42329 0.0
C169 C 0.42342 0.88566 0.11839 0.0
Co170 Co 0.46557 0.3589 0.25399 0.0
Co171 Co 0.45968 0.35587 0.98092 0.0
C172 C 0.40624 0.38186 0.11556 0.0
O173 O 0.42107 0.37612 0.21166 0.0
O174 O 0.41793 0.37464 0.01728 0.0
C175 C 0.44153 0.3439 0.50421 0.0
O176 O 0.40464 0.34198 0.47978 0.0
C177 C 0.4355 0.34359 0.7296 0.0
C178 C 0.49305 0.34415 0.65564 0.0
C179 C 0.45455 0.34226 0.62511 0.0
N180 N 0.46207 0.34686 0.81754 0.0
N181 N 0.49607 0.34661 0.7725 0.0
C182 C 0.39408 0.34402 0.74557 0.0
H183 H 0.38081 0.33258 0.83411 0.0
H184 H 0.36964 0.32303 0.68011 0.0
H185 H 0.40061 0.37767 0.734 0.0
C186 C 0.45943 0.27429 0.20986 0.0
N187 N 0.45722 0.30907 0.17411 0.0
N188 N 0.44723 0.30493 0.06317 0.0
C189 C 0.4384 0.26545 0.02676 0.0
C190 C 0.44672 0.24459 0.11802 0.0
C191 C 0.48092 0.27409 0.32185 0.0
H192 H 0.50609 0.30764 0.34499 0.0
H193 H 0.45662 0.26174 0.39313 0.0
H194 H 0.49658 0.25399 0.31462 0.0
O195 O 0.52223 0.40785 0.21713 0.0
O196 O 0.5187 0.40563 0.02371 0.0
H197 H 0.44425 0.25949 0.84255 0.0
H198 H 0.40106 0.21137 0.91135 0.0
C199 C 0.41865 0.24732 0.9103 0.0
H200 H 0.39581 0.25871 0.88638 0.0
H201 H 0.52193 0.34924 0.82167 0.0
O202 O 0.46828 0.35004 0.42329 0.0
C203 C 0.53895 0.42284 0.11838 0.0
Co204 Co 0.53797 0.89509 0.9786 0.0
Co205 Co 0.54386 0.89795 0.25167 0.0
C206 C 0.59731 0.97736 0.11701 0.0
O207 O 0.58247 0.9568 0.02091 0.0
O208 O 0.58561 0.95847 0.2153 0.0
C209 C 0.562 0.90413 0.72839 0.0
O210 O 0.59888 0.93911 0.75282 0.0
C211 C 0.56803 0.90986 0.503 0.0
C212 C 0.51049 0.85286 0.57695 0.0
C213 C 0.54898 0.88948 0.60748 0.0
N214 N 0.54147 0.88657 0.41505 0.0
N215 N 0.50747 0.85231 0.46008 0.0
C216 C 0.60944 0.95171 0.48703 0.0
H217 H 0.62272 0.95354 0.3985 0.0
H218 H 0.63388 0.95517 0.55251 0.0
H219 H 0.60291 0.97882 0.49858 0.0
C220 C 0.54409 0.81661 0.02278 0.0
N221 N 0.5463 0.8536 0.0585 0.0
N222 N 0.5563 0.85947 0.16944 0.0
C223 C 0.56513 0.82881 0.20587 0.0
C224 C 0.55678 0.79961 0.11466 0.0
C225 C 0.5226 0.79491 0.91079 0.0
H226 H 0.49743 0.80329 0.88764 0.0
H227 H 0.54691 0.80687 0.83951 0.0
H228 H 0.50696 0.75916 0.91802 0.0
O229 O 0.48131 0.88739 0.01545 0.0
O230 O 0.48484 0.88871 0.20887 0.0
H231 H 0.5593 0.81701 0.39008 0.0
H232 H 0.6025 0.8121 0.32127 0.0
C233 C 0.58489 0.83045 0.32232 0.0
H234 H 0.60772 0.86468 0.34624 0.0
H235 H 0.48161 0.82907 0.41091 0.0
O236 O 0.53525 0.8835 0.8093 0.0
C237 C 0.46458 0.88565 0.11419 0.0
Co238 Co 0.64407 0.53737 0.97859 0.0
Co239 Co 0.64709 0.54326 0.25167 0.0
C240 C 0.62113 0.59671 0.117 0.0
O241 O 0.62686 0.58188 0.02091 0.0
O242 O 0.62834 0.58502 0.21529 0.0
C243 C 0.65906 0.5614 0.72839 0.0
O244 O 0.66095 0.59828 0.75282 0.0
C245 C 0.65936 0.56744 0.50299 0.0
C246 C 0.65882 0.50989 0.57694 0.0
C247 C 0.6607 0.54839 0.60748 0.0
N248 N 0.65609 0.54087 0.41505 0.0
N249 N 0.65636 0.50687 0.46008 0.0
C250 C 0.65892 0.60885 0.48703 0.0
H251 H 0.67037 0.62213 0.3985 0.0
H252 H 0.6799 0.63329 0.55251 0.0
H253 H 0.62527 0.60231 0.49859 0.0
C254 C 0.72867 0.5435 0.02278 0.0
N255 N 0.6939 0.54571 0.0585 0.0
N256 N 0.69803 0.55571 0.16943 0.0
C257 C 0.73751 0.56454 0.20587 0.0
C258 C 0.75836 0.55619 0.11465 0.0
C259 C 0.72889 0.52201 0.91079 0.0
H260 H 0.69534 0.49684 0.88764 0.0
H261 H 0.74123 0.54632 0.83951 0.0
H262 H 0.749 0.50637 0.91801 0.0
O263 O 0.59512 0.48072 0.01544 0.0
O264 O 0.59733 0.48425 0.20887 0.0
H265 H 0.74348 0.55871 0.39008 0.0
H266 H 0.79158 0.60191 0.32127 0.0
C267 C 0.75563 0.5843 0.32232 0.0
H268 H 0.74423 0.60713 0.34623 0.0
H269 H 0.65374 0.48102 0.4109 0.0
O270 O 0.65295 0.53466 0.8093 0.0
C271 C 0.58013 0.46399 0.11419 0.0
Co272 Co 0.10788 0.64349 0.97859 0.0
Co273 Co 0.10502 0.64652 0.25166 0.0
C274 C 0.02561 0.62056 0.117 0.0
O275 O 0.04617 0.62628 0.02091 0.0
O276 O 0.0445 0.62776 0.21529 0.0
C277 C 0.09884 0.65848 0.72838 0.0
O278 O 0.06386 0.66038 0.75282 0.0
C279 C 0.09311 0.65878 0.50299 0.0
C280 C 0.15011 0.65823 0.57694 0.0
C281 C 0.11349 0.66012 0.60748 0.0
N282 N 0.1164 0.65551 0.41505 0.0
N283 N 0.15066 0.65577 0.46008 0.0
C284 C 0.05126 0.65835 0.48703 0.0
H285 H 0.04943 0.6698 0.3985 0.0
H286 H 0.04781 0.67934 0.55251 0.0
H287 H 0.02415 0.62471 0.49859 0.0
C288 C 0.18636 0.72809 0.02278 0.0
N289 N 0.14937 0.69332 0.0585 0.0
N290 N 0.1435 0.69745 0.16943 0.0
C291 C 0.17415 0.73693 0.20587 0.0
C292 C 0.20336 0.75778 0.11466 0.0
C293 C 0.20806 0.7283 0.91079 0.0
H294 H 0.19968 0.69476 0.88764 0.0
H295 H 0.1961 0.74065 0.83951 0.0
H296 H 0.2438 0.7484 0.91801 0.0
O297 O 0.11558 0.59453 0.01544 0.0
O298 O 0.11426 0.59674 0.20886 0.0
H299 H 0.18596 0.7429 0.39008 0.0
H300 H 0.19086 0.791 0.32127 0.0
C301 C 0.17252 0.75505 0.32232 0.0
H302 H 0.13829 0.74365 0.34624 0.0
H303 H 0.1739 0.65315 0.4109 0.0
O304 O 0.11947 0.65237 0.8093 0.0
C305 C 0.11731 0.57954 0.11419 0.0
Co306 Co 0.46558 0.10729 0.9786 0.0
Co307 Co 0.45969 0.10443 0.25167 0.0
C308 C 0.40624 0.02502 0.11701 0.0
O309 O 0.42108 0.04558 0.02091 0.0
O310 O 0.41793 0.04391 0.2153 0.0
C311 C 0.44155 0.09825 0.72839 0.0
O312 O 0.40467 0.06327 0.75283 0.0
C313 C 0.43552 0.09252 0.503 0.0
C314 C 0.49306 0.14952 0.57695 0.0
C315 C 0.45456 0.11291 0.60748 0.0
N316 N 0.46208 0.11581 0.41506 0.0
N317 N 0.49608 0.15008 0.46008 0.0
C318 C 0.3941 0.05067 0.48703 0.0
H319 H 0.38082 0.04884 0.3985 0.0
H320 H 0.36967 0.04721 0.55251 0.0
H321 H 0.40064 0.02356 0.49858 0.0
C322 C 0.45945 0.18577 0.02278 0.0
N323 N 0.45724 0.14878 0.0585 0.0
N324 N 0.44724 0.14292 0.16944 0.0
C325 C 0.43842 0.17357 0.20587 0.0
C326 C 0.44677 0.20277 0.11466 0.0
C327 C 0.48095 0.20747 0.91079 0.0
H328 H 0.50612 0.19909 0.88765 0.0
H329 H 0.45664 0.19552 0.83951 0.0
H330 H 0.49659 0.24322 0.91802 0.0
O331 O 0.52224 0.11499 0.01545 0.0
O332 O 0.5187 0.11367 0.20887 0.0
H333 H 0.44425 0.18538 0.39008 0.0
H334 H 0.40105 0.19028 0.32127 0.0
C335 C 0.41866 0.17194 0.32232 0.0
H336 H 0.39582 0.1377 0.34624 0.0
H337 H 0.52193 0.17331 0.41091 0.0
O338 O 0.4683 0.11888 0.8093 0.0
C339 C 0.53896 0.11673 0.11419 0.0
Co340 Co 0.35948 0.46501 0.97859 0.0
Co341 Co 0.35645 0.45912 0.25167 0.0
C342 C 0.38242 0.40567 0.11701 0.0
O343 O 0.37669 0.42051 0.02091 0.0
O344 O 0.37521 0.41736 0.2153 0.0
C345 C 0.34449 0.44098 0.72839 0.0
O346 O 0.34259 0.4041 0.75282 0.0
C347 C 0.34419 0.43494 0.503 0.0
C348 C 0.34473 0.49249 0.57694 0.0
C349 C 0.34285 0.45399 0.60748 0.0
N350 N 0.34746 0.46151 0.41505 0.0
N351 N 0.34719 0.49551 0.46008 0.0
C352 C 0.34463 0.39353 0.48703 0.0
H353 H 0.33318 0.38025 0.3985 0.0
H354 H 0.32365 0.36909 0.55251 0.0
H355 H 0.37828 0.40007 0.49858 0.0
C356 C 0.27487 0.45888 0.02278 0.0
N357 N 0.30965 0.45667 0.0585 0.0
N358 N 0.30552 0.44667 0.16944 0.0
C359 C 0.26604 0.43784 0.20587 0.0
C360 C 0.24519 0.44619 0.11466 0.0
C361 C 0.27466 0.48037 0.91079 0.0
H362 H 0.30821 0.50554 0.88764 0.0
H363 H 0.26232 0.45606 0.83951 0.0
H364 H 0.25455 0.49601 0.91801 0.0
O365 O 0.40843 0.52166 0.01545 0.0
O366 O 0.40622 0.51813 0.20887 0.0
H367 H 0.26007 0.44367 0.39008 0.0
H368 H 0.21197 0.40047 0.32127 0.0
C369 C 0.24792 0.41808 0.32232 0.0
H370 H 0.25932 0.39525 0.34624 0.0
H371 H 0.34981 0.52136 0.41091 0.0
O372 O 0.3506 0.46772 0.8093 0.0
C373 C 0.42342 0.53839 0.11419 0.0
Co374 Co 0.89567 0.35889 0.97859 0.0
Co375 Co 0.89853 0.35586 0.25166 0.0
C376 C 0.97794 0.38182 0.117 0.0
O377 O 0.95738 0.3761 0.02091 0.0
O378 O 0.95905 0.37462 0.21529 0.0
C379 C 0.90471 0.3439 0.72838 0.0
O380 O 0.93969 0.342 0.75282 0.0
C381 C 0.91044 0.34359 0.50299 0.0
C382 C 0.85344 0.34415 0.57694 0.0
C383 C 0.89005 0.34226 0.60747 0.0
N384 N 0.88715 0.34687 0.41505 0.0
N385 N 0.85288 0.34661 0.46008 0.0
C386 C 0.95229 0.34403 0.48703 0.0
H387 H 0.95412 0.33258 0.39849 0.0
H388 H 0.95574 0.32304 0.5525 0.0
H389 H 0.9794 0.37767 0.49858 0.0
C390 C 0.81719 0.27429 0.02278 0.0
N391 N 0.85418 0.30906 0.0585 0.0
N392 N 0.86004 0.30493 0.16943 0.0
C393 C 0.82939 0.26545 0.20587 0.0
C394 C 0.80019 0.2446 0.11465 0.0
C395 C 0.79549 0.27408 0.91079 0.0
H396 H 0.80387 0.30763 0.88764 0.0
H397 H 0.80745 0.26173 0.83951 0.0
H398 H 0.75974 0.25398 0.91801 0.0
O399 O 0.88797 0.40785 0.01544 0.0
O400 O 0.88929 0.40564 0.20886 0.0
H401 H 0.81759 0.25948 0.39008 0.0
H402 H 0.81268 0.21138 0.32127 0.0
C403 C 0.83103 0.24733 0.32232 0.0
H404 H 0.86526 0.25872 0.34623 0.0
H405 H 0.82965 0.34923 0.41091 0.0
O406 O 0.88408 0.35001 0.8093 0.0
C407 C 0.88624 0.42284 0.11419 0.0
loop_
_geom_bond_atom_site_label_1
_geom_bond_atom_site_label_2
_geom_bond_distance
_geom_bond_site_symmetry_2
_ccdc_geom_bond_type
Co0 O3 1.970 . S
Co0 N17 1.989 . S
Co0 O25 1.967 . S
Co0 O32 1.920 . S
Co1 O4 1.966 1_556 S
Co1 N10 2.022 . S
Co1 N18 1.993 1_556 S
Co1 O26 1.941 1_556 S
C2 O3 1.258 . S
C2 O4 1.263 . S
O3 Co0 1.970 . S
O3 C2 1.258 . S
O4 Co1 1.966 1_554 S
O4 C2 1.263 . S
C5 O6 1.235 . S
C5 O32 1.289 . S
O6 C5 1.235 . S
C7 C9 1.400 . S
C7 N10 1.351 . S
C7 C12 1.501 . S
C8 C9 1.387 . S
C8 N11 1.341 . S
C9 C7 1.400 . S
C9 C8 1.387 . S
N10 Co1 2.022 . S
N10 C7 1.351 . S
N10 N11 1.365 . S
N11 C8 1.341 . S
N11 N10 1.365 . S
N11 H31 0.862 . S
C12 C7 1.501 . S
C12 H13 0.961 . S
C12 H14 0.961 . S
C12 H15 0.960 . S
H13 C12 0.961 . S
H14 C12 0.961 . S
H15 C12 0.960 . S
C16 N17 1.342 . S
C16 C20 1.401 . S
C16 C21 1.499 . S
N17 Co0 1.989 . S
N17 C16 1.342 . S
N17 N18 1.388 . S
N18 Co1 1.993 1_554 S
N18 N17 1.388 . S
N18 C19 1.346 . S
C19 N18 1.346 . S
C19 C20 1.396 . S
C19 C29 1.510 1_554 S
C20 C16 1.401 . S
C20 C19 1.396 . S
C21 C16 1.499 . S
C21 H22 0.959 . S
C21 H23 0.960 . S
C21 H24 0.961 . S
H22 C21 0.959 . S
H23 C21 0.960 . S
H24 C21 0.961 . S
O25 Co0 1.967 . S
O25 C33 1.258 . S
O26 Co1 1.941 1_554 S
O26 C33 1.266 . S
H27 C29 0.959 . S
H28 C29 0.961 . S
C29 C19 1.510 1_556 S
C29 H27 0.959 . S
C29 H28 0.961 . S
C29 H30 0.960 . S
H30 C29 0.960 . S
H31 N11 0.862 . S
O32 Co0 1.920 . S
O32 C5 1.289 . S
C33 O25 1.258 . S
C33 O26 1.266 . S
Co34 O37 1.970 . S
Co34 N51 1.989 . S
Co34 O59 1.967 . S
Co34 O66 1.920 . S
Co35 O38 1.966 1_556 S
Co35 N44 2.022 . S
Co35 N52 1.993 1_556 S
Co35 O60 1.941 1_556 S
C36 O37 1.258 . S
C36 O38 1.263 . S
O37 Co34 1.970 . S
O37 C36 1.258 . S
O38 Co35 1.966 1_554 S
O38 C36 1.263 . S
C39 O40 1.235 . S
C39 O66 1.289 . S
O40 C39 1.235 . S
C41 C43 1.400 . S
C41 N44 1.351 . S
C41 C46 1.501 . S
C42 C43 1.387 . S
C42 N45 1.341 . S
C43 C41 1.400 . S
C43 C42 1.387 . S
N44 Co35 2.022 . S
N44 C41 1.351 . S
N44 N45 1.365 . S
N45 C42 1.341 . S
N45 N44 1.365 . S
N45 H65 0.862 . S
C46 C41 1.501 . S
C46 H47 0.961 . S
C46 H48 0.961 . S
C46 H49 0.960 . S
H47 C46 0.961 . S
H48 C46 0.961 . S
H49 C46 0.960 . S
C50 N51 1.342 . S
C50 C54 1.401 . S
C50 C55 1.499 . S
N51 Co34 1.989 . S
N51 C50 1.342 . S
N51 N52 1.388 . S
N52 Co35 1.993 1_554 S
N52 N51 1.388 . S
N52 C53 1.346 . S
C53 N52 1.346 . S
C53 C54 1.396 . S
C53 C63 1.510 1_554 S
C54 C50 1.401 . S
C54 C53 1.396 . S
C55 C50 1.499 . S
C55 H56 0.959 . S
C55 H57 0.960 . S
C55 H58 0.961 . S
H56 C55 0.959 . S
H57 C55 0.960 . S
H58 C55 0.961 . S
O59 Co34 1.967 . S
O59 C67 1.258 . S
O60 Co35 1.941 1_554 S
O60 C67 1.266 . S
H61 C63 0.959 . S
H62 C63 0.961 . S
C63 C53 1.510 1_556 S
C63 H61 0.959 . S
C63 H62 0.961 . S
C63 H64 0.960 . S
H64 C63 0.960 . S
H65 N45 0.862 . S
O66 Co34 1.920 . S
O66 C39 1.289 . S
C67 O59 1.258 . S
C67 O60 1.266 . S
Co68 O71 1.970 . S
Co68 N85 1.989 . S
Co68 O93 1.967 . S
Co68 O100 1.920 . S
Co69 O72 1.966 1_556 S
Co69 N78 2.022 . S
Co69 N86 1.993 1_556 S
Co69 O94 1.941 1_556 S
C70 O71 1.258 . S
C70 O72 1.263 . S
O71 Co68 1.970 . S
O71 C70 1.258 . S
O72 Co69 1.966 1_554 S
O72 C70 1.263 . S
C73 O74 1.235 . S
C73 O100 1.289 . S
O74 C73 1.235 . S
C75 C77 1.400 . S
C75 N78 1.351 . S
C75 C80 1.501 . S
C76 C77 1.387 . S
C76 N79 1.341 . S
C77 C75 1.400 . S
C77 C76 1.387 . S
N78 Co69 2.022 . S
N78 C75 1.351 . S
N78 N79 1.365 . S
N79 C76 1.341 . S
N79 N78 1.365 . S
N79 H99 0.862 . S
C80 C75 1.501 . S
C80 H81 0.961 . S
C80 H82 0.961 . S
C80 H83 0.960 . S
H81 C80 0.961 . S
H82 C80 0.961 . S
H83 C80 0.960 . S
C84 N85 1.342 . S
C84 C88 1.401 . S
C84 C89 1.499 . S
N85 Co68 1.989 . S
N85 C84 1.342 . S
N85 N86 1.388 . S
N86 Co69 1.993 1_554 S
N86 N85 1.388 . S
N86 C87 1.346 . S
C87 N86 1.346 . S
C87 C88 1.396 . S
C87 C97 1.510 1_554 S
C88 C84 1.401 . S
C88 C87 1.396 . S
C89 C84 1.499 . S
C89 H90 0.959 . S
C89 H91 0.960 . S
C89 H92 0.961 . S
H90 C89 0.959 . S
H91 C89 0.960 . S
H92 C89 0.961 . S
O93 Co68 1.967 . S
O93 C101 1.258 . S
O94 Co69 1.941 1_554 S
O94 C101 1.266 . S
H95 C97 0.959 . S
H96 C97 0.961 . S
C97 C87 1.510 1_556 S
C97 H95 0.959 . S
C97 H96 0.961 . S
C97 H98 0.960 . S
H98 C97 0.960 . S
H99 N79 0.862 . S
O100 Co68 1.920 . S
O100 C73 1.289 . S
C101 O93 1.258 . S
C101 O94 1.266 . S
Co102 O105 1.970 . S
Co102 N119 1.989 . S
Co102 O127 1.967 . S
Co102 O134 1.920 . S
Co103 O106 1.966 1_556 S
Co103 N112 2.022 . S
Co103 N120 1.993 1_556 S
Co103 O128 1.941 1_556 S
C104 O105 1.258 . S
C104 O106 1.263 . S
O105 Co102 1.970 . S
O105 C104 1.258 . S
O106 Co103 1.966 1_554 S
O106 C104 1.263 . S
C107 O108 1.235 . S
C107 O134 1.289 . S
O108 C107 1.235 . S
C109 C111 1.400 . S
C109 N112 1.351 . S
C109 C114 1.501 . S
C110 C111 1.387 . S
C110 N113 1.341 . S
C111 C109 1.400 . S
C111 C110 1.387 . S
N112 Co103 2.022 . S
N112 C109 1.351 . S
N112 N113 1.365 . S
N113 C110 1.341 . S
N113 N112 1.365 . S
N113 H133 0.862 . S
C114 C109 1.501 . S
C114 H115 0.961 . S
C114 H116 0.961 . S
C114 H117 0.960 . S
H115 C114 0.961 . S
H116 C114 0.961 . S
H117 C114 0.960 . S
C118 N119 1.342 . S
C118 C122 1.401 . S
C118 C123 1.499 . S
N119 Co102 1.989 . S
N119 C118 1.342 . S
N119 N120 1.388 . S
N120 Co103 1.993 1_554 S
N120 N119 1.388 . S
N120 C121 1.346 . S
C121 N120 1.346 . S
C121 C122 1.396 . S
C121 C131 1.510 1_554 S
C122 C118 1.401 . S
C122 C121 1.396 . S
C123 C118 1.499 . S
C123 H124 0.959 . S
C123 H125 0.960 . S
C123 H126 0.961 . S
H124 C123 0.959 . S
H125 C123 0.960 . S
H126 C123 0.961 . S
O127 Co102 1.967 . S
O127 C135 1.258 . S
O128 Co103 1.941 1_554 S
O128 C135 1.266 . S
H129 C131 0.959 . S
H130 C131 0.961 . S
C131 C121 1.510 1_556 S
C131 H129 0.959 . S
C131 H130 0.961 . S
C131 H132 0.960 . S
H132 C131 0.960 . S
H133 N113 0.862 . S
O134 Co102 1.920 . S
O134 C107 1.289 . S
C135 O127 1.258 . S
C135 O128 1.266 . S
Co136 O139 1.970 . S
Co136 N153 1.989 . S
Co136 O161 1.967 . S
Co136 O168 1.920 . S
Co137 O140 1.966 1_556 S
Co137 N146 2.022 . S
Co137 N154 1.993 1_556 S
Co137 O162 1.941 1_556 S
C138 O139 1.258 . S
C138 O140 1.263 . S
O139 Co136 1.970 . S
O139 C138 1.258 . S
O140 Co137 1.966 1_554 S
O140 C138 1.263 . S
C141 O142 1.235 . S
C141 O168 1.289 . S
O142 C141 1.235 . S
C143 C145 1.400 . S
C143 N146 1.351 . S
C143 C148 1.501 . S
C144 C145 1.387 . S
C144 N147 1.341 . S
C145 C143 1.400 . S
C145 C144 1.387 . S
N146 Co137 2.022 . S
N146 C143 1.351 . S
N146 N147 1.365 . S
N147 C144 1.341 . S
N147 N146 1.365 . S
N147 H167 0.862 . S
C148 C143 1.501 . S
C148 H149 0.961 . S
C148 H150 0.961 . S
C148 H151 0.960 . S
H149 C148 0.961 . S
H150 C148 0.961 . S
H151 C148 0.960 . S
C152 N153 1.342 . S
C152 C156 1.401 . S
C152 C157 1.499 . S
N153 Co136 1.989 . S
N153 C152 1.342 . S
N153 N154 1.388 . S
N154 Co137 1.993 1_554 S
N154 N153 1.388 . S
N154 C155 1.346 . S
C155 N154 1.346 . S
C155 C156 1.396 . S
C155 C165 1.510 1_554 S
C156 C152 1.401 . S
C156 C155 1.396 . S
C157 C152 1.499 . S
C157 H158 0.959 . S
C157 H159 0.960 . S
C157 H160 0.961 . S
H158 C157 0.959 . S
H159 C157 0.960 . S
H160 C157 0.961 . S
O161 Co136 1.967 . S
O161 C169 1.258 . S
O162 Co137 1.941 1_554 S
O162 C169 1.266 . S
H163 C165 0.959 . S
H164 C165 0.961 . S
C165 C155 1.510 1_556 S
C165 H163 0.959 . S
C165 H164 0.961 . S
C165 H166 0.960 . S
H166 C165 0.960 . S
H167 N147 0.862 . S
O168 Co136 1.920 . S
O168 C141 1.289 . S
C169 O161 1.258 . S
C169 O162 1.266 . S
Co170 O173 1.970 . S
Co170 N187 1.989 . S
Co170 O195 1.967 . S
Co170 O202 1.920 . S
Co171 O174 1.966 1_556 S
Co171 N180 2.022 . S
Co171 N188 1.993 1_556 S
Co171 O196 1.941 1_556 S
C172 O173 1.258 . S
C172 O174 1.263 . S
O173 Co170 1.970 . S
O173 C172 1.258 . S
O174 Co171 1.966 1_554 S
O174 C172 1.263 . S
C175 O176 1.235 . S
C175 O202 1.289 . S
O176 C175 1.235 . S
C177 C179 1.400 . S
C177 N180 1.351 . S
C177 C182 1.501 . S
C178 C179 1.387 . S
C178 N181 1.341 . S
C179 C177 1.400 . S
C179 C178 1.387 . S
N180 Co171 2.022 . S
N180 C177 1.351 . S
N180 N181 1.365 . S
N181 C178 1.341 . S
N181 N180 1.365 . S
N181 H201 0.862 . S
C182 C177 1.501 . S
C182 H183 0.961 . S
C182 H184 0.961 . S
C182 H185 0.960 . S
H183 C182 0.961 . S
H184 C182 0.961 . S
H185 C182 0.960 . S
C186 N187 1.342 . S
C186 C190 1.401 . S
C186 C191 1.499 . S
N187 Co170 1.989 . S
N187 C186 1.342 . S
N187 N188 1.388 . S
N188 Co171 1.993 1_554 S
N188 N187 1.388 . S
N188 C189 1.346 . S
C189 N188 1.346 . S
C189 C190 1.396 . S
C189 C199 1.510 1_554 S
C190 C186 1.401 . S
C190 C189 1.396 . S
C191 C186 1.499 . S
C191 H192 0.959 . S
C191 H193 0.960 . S
C191 H194 0.961 . S
H192 C191 0.959 . S
H193 C191 0.960 . S
H194 C191 0.961 . S
O195 Co170 1.967 . S
O195 C203 1.258 . S
O196 Co171 1.941 1_554 S
O196 C203 1.266 . S
H197 C199 0.959 . S
H198 C199 0.961 . S
C199 C189 1.510 1_556 S
C199 H197 0.959 . S
C199 H198 0.961 . S
C199 H200 0.960 . S
H200 C199 0.960 . S
H201 N181 0.862 . S
O202 Co170 1.920 . S
O202 C175 1.289 . S
C203 O195 1.258 . S
C203 O196 1.266 . S
Co204 O207 1.970 1_556 S
Co204 N221 1.989 1_556 S
Co204 O229 1.967 1_556 S
Co204 O236 1.920 . S
Co205 O208 1.966 . S
Co205 N214 2.022 . S
Co205 N222 1.993 . S
Co205 O230 1.941 . S
C206 O207 1.258 . S
C206 O208 1.263 . S
O207 Co204 1.970 1_554 S
O207 C206 1.258 . S
O208 Co205 1.966 . S
O208 C206 1.263 . S
C209 O210 1.235 . S
C209 O236 1.289 . S
O210 C209 1.235 . S
C211 C213 1.400 . S
C211 N214 1.351 . S
C211 C216 1.501 . S
C212 C213 1.387 . S
C212 N215 1.341 . S
C213 C211 1.400 . S
C213 C212 1.387 . S
N214 Co205 2.022 . S
N214 C211 1.351 . S
N214 N215 1.365 . S
N215 C212 1.341 . S
N215 N214 1.365 . S
N215 H235 0.862 . S
C216 C211 1.501 . S
C216 H217 0.961 . S
C216 H218 0.961 . S
C216 H219 0.960 . S
H217 C216 0.961 . S
H218 C216 0.961 . S
H219 C216 0.960 . S
C220 N221 1.342 . S
C220 C224 1.401 . S
C220 C225 1.499 1_554 S
N221 Co204 1.989 1_554 S
N221 C220 1.342 . S
N221 N222 1.388 . S
N222 Co205 1.993 . S
N222 N221 1.388 . S
N222 C223 1.346 . S
C223 N222 1.346 . S
C223 C224 1.396 . S
C223 C233 1.510 . S
C224 C220 1.401 . S
C224 C223 1.396 . S
C225 C220 1.499 1_556 S
C225 H226 0.959 . S
C225 H227 0.960 . S
C225 H228 0.961 . S
H226 C225 0.959 . S
H227 C225 0.960 . S
H228 C225 0.961 . S
O229 Co204 1.967 1_554 S
O229 C237 1.258 . S
O230 Co205 1.941 . S
O230 C237 1.266 . S
H231 C233 0.959 . S
H232 C233 0.961 . S
C233 C223 1.510 . S
C233 H231 0.959 . S
C233 H232 0.961 . S
C233 H234 0.960 . S
H234 C233 0.960 . S
H235 N215 0.862 . S
O236 Co204 1.920 . S
O236 C209 1.289 . S
C237 O229 1.258 . S
C237 O230 1.266 . S
Co238 O241 1.970 1_556 S
Co238 N255 1.989 1_556 S
Co238 O263 1.967 1_556 S
Co238 O270 1.920 . S
Co239 O242 1.966 . S
Co239 N248 2.022 . S
Co239 N256 1.993 . S
Co239 O264 1.941 . S
C240 O241 1.258 . S
C240 O242 1.263 . S
O241 Co238 1.970 1_554 S
O241 C240 1.258 . S
O242 Co239 1.966 . S
O242 C240 1.263 . S
C243 O244 1.235 . S
C243 O270 1.289 . S
O244 C243 1.235 . S
C245 C247 1.400 . S
C245 N248 1.351 . S
C245 C250 1.501 . S
C246 C247 1.387 . S
C246 N249 1.341 . S
C247 C245 1.400 . S
C247 C246 1.387 . S
N248 Co239 2.022 . S
N248 C245 1.351 . S
N248 N249 1.365 . S
N249 C246 1.341 . S
N249 N248 1.365 . S
N249 H269 0.862 . S
C250 C245 1.501 . S
C250 H251 0.961 . S
C250 H252 0.961 . S
C250 H253 0.960 . S
H251 C250 0.961 . S
H252 C250 0.961 . S
H253 C250 0.960 . S
C254 N255 1.342 . S
C254 C258 1.401 . S
C254 C259 1.499 1_554 S
N255 Co238 1.989 1_554 S
N255 C254 1.342 . S
N255 N256 1.388 . S
N256 Co239 1.993 . S
N256 N255 1.388 . S
N256 C257 1.346 . S
C257 N256 1.346 . S
C257 C258 1.396 . S
C257 C267 1.510 . S
C258 C254 1.401 . S
C258 C257 1.396 . S
C259 C254 1.499 1_556 S
C259 H260 0.959 . S
C259 H261 0.960 . S
C259 H262 0.961 . S
H260 C259 0.959 . S
H261 C259 0.960 . S
H262 C259 0.961 . S
O263 Co238 1.967 1_554 S
O263 C271 1.258 . S
O264 Co239 1.941 . S
O264 C271 1.266 . S
H265 C267 0.959 . S
H266 C267 0.961 . S
C267 C257 1.510 . S
C267 H265 0.959 . S
C267 H266 0.961 . S
C267 H268 0.960 . S
H268 C267 0.960 . S
H269 N249 0.862 . S
O270 Co238 1.920 . S
O270 C243 1.289 . S
C271 O263 1.258 . S
C271 O264 1.266 . S
Co272 O275 1.970 1_556 S
Co272 N289 1.989 1_556 S
Co272 O297 1.967 1_556 S
Co272 O304 1.920 . S
Co273 O276 1.966 . S
Co273 N282 2.022 . S
Co273 N290 1.993 . S
Co273 O298 1.941 . S
C274 O275 1.258 . S
C274 O276 1.263 . S
O275 Co272 1.970 1_554 S
O275 C274 1.258 . S
O276 Co273 1.966 . S
O276 C274 1.263 . S
C277 O278 1.235 . S
C277 O304 1.289 . S
O278 C277 1.235 . S
C279 C281 1.400 . S
C279 N282 1.351 . S
C279 C284 1.501 . S
C280 C281 1.387 . S
C280 N283 1.341 . S
C281 C279 1.400 . S
C281 C280 1.387 . S
N282 Co273 2.022 . S
N282 C279 1.351 . S
N282 N283 1.365 . S
N283 C280 1.341 . S
N283 N282 1.365 . S
N283 H303 0.862 . S
C284 C279 1.501 . S
C284 H285 0.961 . S
C284 H286 0.961 . S
C284 H287 0.960 . S
H285 C284 0.961 . S
H286 C284 0.961 . S
H287 C284 0.960 . S
C288 N289 1.342 . S
C288 C292 1.401 . S
C288 C293 1.499 1_554 S
N289 Co272 1.989 1_554 S
N289 C288 1.342 . S
N289 N290 1.388 . S
N290 Co273 1.993 . S
N290 N289 1.388 . S
N290 C291 1.346 . S
C291 N290 1.346 . S
C291 C292 1.396 . S
C291 C301 1.510 . S
C292 C288 1.401 . S
C292 C291 1.396 . S
C293 C288 1.499 1_556 S
C293 H294 0.959 . S
C293 H295 0.960 . S
C293 H296 0.961 . S
H294 C293 0.959 . S
H295 C293 0.960 . S
H296 C293 0.961 . S
O297 Co272 1.967 1_554 S
O297 C305 1.258 . S
O298 Co273 1.941 . S
O298 C305 1.266 . S
H299 C301 0.959 . S
H300 C301 0.961 . S
C301 C291 1.510 . S
C301 H299 0.959 . S
C301 H300 0.961 . S
C301 H302 0.960 . S
H302 C301 0.960 . S
H303 N283 0.862 . S
O304 Co272 1.920 . S
O304 C277 1.289 . S
C305 O297 1.258 . S
C305 O298 1.266 . S
Co306 O309 1.970 1_556 S
Co306 N323 1.989 1_556 S
Co306 O331 1.967 1_556 S
Co306 O338 1.920 . S
Co307 O310 1.966 . S
Co307 N316 2.022 . S
Co307 N324 1.993 . S
Co307 O332 1.941 . S
C308 O309 1.258 . S
C308 O310 1.263 . S
O309 Co306 1.970 1_554 S
O309 C308 1.258 . S
O310 Co307 1.966 . S
O310 C308 1.263 . S
C311 O312 1.235 . S
C311 O338 1.289 . S
O312 C311 1.235 . S
C313 C315 1.400 . S
C313 N316 1.351 . S
C313 C318 1.501 . S
C314 C315 1.387 . S
C314 N317 1.341 . S
C315 C313 1.400 . S
C315 C314 1.387 . S
N316 Co307 2.022 . S
N316 C313 1.351 . S
N316 N317 1.365 . S
N317 C314 1.341 . S
N317 N316 1.365 . S
N317 H337 0.862 . S
C318 C313 1.501 . S
C318 H319 0.961 . S
C318 H320 0.961 . S
C318 H321 0.960 . S
H319 C318 0.961 . S
H320 C318 0.961 . S
H321 C318 0.960 . S
C322 N323 1.342 . S
C322 C326 1.401 . S
C322 C327 1.499 1_554 S
N323 Co306 1.989 1_554 S
N323 C322 1.342 . S
N323 N324 1.388 . S
N324 Co307 1.993 . S
N324 N323 1.388 . S
N324 C325 1.346 . S
C325 N324 1.346 . S
C325 C326 1.396 . S
C325 C335 1.510 . S
C326 C322 1.401 . S
C326 C325 1.396 . S
C327 C322 1.499 1_556 S
C327 H328 0.959 . S
C327 H329 0.960 . S
C327 H330 0.961 . S
H328 C327 0.959 . S
H329 C327 0.960 . S
H330 C327 0.961 . S
O331 Co306 1.967 1_554 S
O331 C339 1.258 . S
O332 Co307 1.941 . S
O332 C339 1.266 . S
H333 C335 0.959 . S
H334 C335 0.961 . S
C335 C325 1.510 . S
C335 H333 0.959 . S
C335 H334 0.961 . S
C335 H336 0.960 . S
H336 C335 0.960 . S
H337 N317 0.862 . S
O338 Co306 1.920 . S
O338 C311 1.289 . S
C339 O331 1.258 . S
C339 O332 1.266 . S
Co340 O343 1.970 1_556 S
Co340 N357 1.989 1_556 S
Co340 O365 1.967 1_556 S
Co340 O372 1.920 . S
Co341 O344 1.966 . S
Co341 N350 2.022 . S
Co341 N358 1.993 . S
Co341 O366 1.941 . S
C342 O343 1.258 . S
C342 O344 1.263 . S
O343 Co340 1.970 1_554 S
O343 C342 1.258 . S
O344 Co341 1.966 . S
O344 C342 1.263 . S
C345 O346 1.235 . S
C345 O372 1.289 . S
O346 C345 1.235 . S
C347 C349 1.400 . S
C347 N350 1.351 . S
C347 C352 1.501 . S
C348 C349 1.387 . S
C348 N351 1.341 . S
C349 C347 1.400 . S
C349 C348 1.387 . S
N350 Co341 2.022 . S
N350 C347 1.351 . S
N350 N351 1.365 . S
N351 C348 1.341 . S
N351 N350 1.365 . S
N351 H371 0.862 . S
C352 C347 1.501 . S
C352 H353 0.961 . S
C352 H354 0.961 . S
C352 H355 0.960 . S
H353 C352 0.961 . S
H354 C352 0.961 . S
H355 C352 0.960 . S
C356 N357 1.342 . S
C356 C360 1.401 . S
C356 C361 1.499 1_554 S
N357 Co340 1.989 1_554 S
N357 C356 1.342 . S
N357 N358 1.388 . S
N358 Co341 1.993 . S
N358 N357 1.388 . S
N358 C359 1.346 . S
C359 N358 1.346 . S
C359 C360 1.396 . S
C359 C369 1.510 . S
C360 C356 1.401 . S
C360 C359 1.396 . S
C361 C356 1.499 1_556 S
C361 H362 0.959 . S
C361 H363 0.960 . S
C361 H364 0.961 . S
H362 C361 0.959 . S
H363 C361 0.960 . S
H364 C361 0.961 . S
O365 Co340 1.967 1_554 S
O365 C373 1.258 . S
O366 Co341 1.941 . S
O366 C373 1.266 . S
H367 C369 0.959 . S
H368 C369 0.961 . S
C369 C359 1.510 . S
C369 H367 0.959 . S
C369 H368 0.961 . S
C369 H370 0.960 . S
H370 C369 0.960 . S
H371 N351 0.862 . S
O372 Co340 1.920 . S
O372 C345 1.289 . S
C373 O365 1.258 . S
C373 O366 1.266 . S
Co374 O377 1.970 1_556 S
Co374 N391 1.989 1_556 S
Co374 O399 1.967 1_556 S
Co374 O406 1.920 . S
Co375 O378 1.966 . S
Co375 N384 2.022 . S
Co375 N392 1.993 . S
Co375 O400 1.941 . S
C376 O377 1.258 . S
C376 O378 1.263 . S
O377 Co374 1.970 1_554 S
O377 C376 1.258 . S
O378 Co375 1.966 . S
O378 C376 1.263 . S
C379 O380 1.235 . S
C379 O406 1.289 . S
O380 C379 1.235 . S
C381 C383 1.400 . S
C381 N384 1.351 . S
C381 C386 1.501 . S
C382 C383 1.387 . S
C382 N385 1.341 . S
C383 C381 1.400 . S
C383 C382 1.387 . S
N384 Co375 2.022 . S
N384 C381 1.351 . S
N384 N385 1.365 . S
N385 C382 1.341 . S
N385 N384 1.365 . S
N385 H405 0.862 . S
C386 C381 1.501 . S
C386 H387 0.961 . S
C386 H388 0.961 . S
C386 H389 0.960 . S
H387 C386 0.961 . S
H388 C386 0.961 . S
H389 C386 0.960 . S
C390 N391 1.342 . S
C390 C394 1.401 . S
C390 C395 1.499 1_554 S
N391 Co374 1.989 1_554 S
N391 C390 1.342 . S
N391 N392 1.388 . S
N392 Co375 1.993 . S
N392 N391 1.388 . S
N392 C393 1.346 . S
C393 N392 1.346 . S
C393 C394 1.396 . S
C393 C403 1.510 . S
C394 C390 1.401 . S
C394 C393 1.396 . S
C395 C390 1.499 1_556 S
C395 H396 0.959 . S
C395 H397 0.960 . S
C395 H398 0.961 . S
H396 C395 0.959 . S
H397 C395 0.960 . S
H398 C395 0.961 . S
O399 Co374 1.967 1_554 S
O399 C407 1.258 . S
O400 Co375 1.941 . S
O400 C407 1.266 . S
H401 C403 0.959 . S
H402 C403 0.961 . S
C403 C393 1.510 . S
C403 H401 0.959 . S
C403 H402 0.961 . S
C403 H404 0.960 . S
H404 C403 0.960 . S
H405 N385 0.862 . S
O406 Co374 1.920 . S
O406 C379 1.289 . S
C407 O399 1.258 . S
C407 O400 1.266 . S
C305 C33 1.502 . S
C67 C339 1.502 . S
C373 C101 1.502 . S
C407 C135 1.502 . S
C169 C237 1.502 . S
C271 C203 1.502 . S
C360 C20 1.476 . S
C394 C54 1.477 . S
C88 C224 1.476 . S
C258 C122 1.476 . S
C292 C156 1.477 . S
C326 C190 1.476 . S
C5 C9 1.398 . S
C39 C43 1.398 . S
C73 C77 1.398 . S
C107 C111 1.398 . S
C145 C141 1.398 . S
C175 C179 1.398 . S
C213 C209 1.398 . S
C243 C247 1.398 . S
C281 C277 1.398 . S
C315 C311 1.398 . S
C345 C349 1.398 . S
C379 C383 1.398 . S
C2 C376 1.465 1_455 S
C206 C36 1.465 1_565 S
C240 C70 1.464 . S
C274 C104 1.465 1_455 S
C138 C308 1.465 1_565 S
C342 C172 1.464 . S
