# Generated by pormake.
# Topology whp, (6)-cn, num edge types: 1
# Building blocks:
#     Node 0, Type 0, BuildingBlock: VOLQOD_clean_sbu_1, # of connection points: 6
#     Node 1, Type 0, BuildingBlock: VOLQOD_clean_sbu_1, # of connection points: 6
#     Node 2, Type 0, BuildingBlock: VOLQOD_clean_sbu_1, # of connection points: 6
#     Node 3, Type 0, BuildingBlock: VOLQOD_clean_sbu_1, # of connection points: 6
#     Node 4, Type 0, BuildingBlock: VOLQOD_clean_sbu_1, # of connection points: 6
#     Node 5, Type 0, BuildingBlock: VOLQOD_clean_sbu_1, # of connection points: 6
#     Node 6, Type 0, BuildingBlock: VOLQOD_clean_sbu_1, # of connection points: 6
#     Node 7, Type 0, BuildingBlock: VOLQOD_clean_sbu_1, # of connection points: 6
#     Node 8, Type 0, BuildingBlock: VOLQOD_clean_sbu_1, # of connection points: 6
#     Node 9, Type 0, BuildingBlock: VOLQOD_clean_sbu_1, # of connection points: 6
#     Node 10, Type 0, BuildingBlock: VOLQOD_clean_sbu_1, # of connection points: 6
#     Node 11, Type 0, BuildingBlock: VOLQOD_clean_sbu_1, # of connection points: 6
#     Node 12, Type 0, BuildingBlock: VOLQOD_clean_sbu_1, # of connection points: 6
#     Node 13, Type 0, BuildingBlock: VOLQOD_clean_sbu_1, # of connection points: 6
#     Node 14, Type 0, BuildingBlock: VOLQOD_clean_sbu_1, # of connection points: 6
#     Node 15, Type 0, BuildingBlock: VOLQOD_clean_sbu_1, # of connection points: 6
#     Edge 16, Type (0, 0), BuildingBlock: EZIPEK_clean_linker_0, # of connection points: 2
#     Edge 17, Type (0, 0), BuildingBlock: EZIPEK_clean_linker_0, # of connection points: 2
#     Edge 18, Type (0, 0), BuildingBlock: EZIPEK_clean_linker_0, # of connection points: 2
#     Edge 19, Type (0, 0), BuildingBlock: EZIPEK_clean_linker_0, # of connection points: 2
#     Edge 20, Type (0, 0), BuildingBlock: EZIPEK_clean_linker_0, # of connection points: 2
#     Edge 21, Type (0, 0), BuildingBlock: EZIPEK_clean_linker_0, # of connection points: 2
#     Edge 22, Type (0, 0), BuildingBlock: EZIPEK_clean_linker_0, # of connection points: 2
#     Edge 23, Type (0, 0), BuildingBlock: EZIPEK_clean_linker_0, # of connection points: 2
#     Edge 24, Type (0, 0), BuildingBlock: EZIPEK_clean_linker_0, # of connection points: 2
#     Edge 25, Type (0, 0), BuildingBlock: EZIPEK_clean_linker_0, # of connection points: 2
#     Edge 26, Type (0, 0), BuildingBlock: EZIPEK_clean_linker_0, # of connection points: 2
#     Edge 27, Type (0, 0), BuildingBlock: EZIPEK_clean_linker_0, # of connection points: 2
#     Edge 28, Type (0, 0), BuildingBlock: EZIPEK_clean_linker_0, # of connection points: 2
#     Edge 29, Type (0, 0), BuildingBlock: EZIPEK_clean_linker_0, # of connection points: 2
#     Edge 30, Type (0, 0), BuildingBlock: EZIPEK_clean_linker_0, # of connection points: 2
#     Edge 31, Type (0, 0), BuildingBlock: EZIPEK_clean_linker_0, # of connection points: 2
#     Edge 32, Type (0, 0), BuildingBlock: EZIPEK_clean_linker_0, # of connection points: 2
#     Edge 33, Type (0, 0), BuildingBlock: EZIPEK_clean_linker_0, # of connection points: 2
#     Edge 34, Type (0, 0), BuildingBlock: EZIPEK_clean_linker_0, # of connection points: 2
#     Edge 35, Type (0, 0), BuildingBlock: EZIPEK_clean_linker_0, # of connection points: 2
#     Edge 36, Type (0, 0), BuildingBlock: EZIPEK_clean_linker_0, # of connection points: 2
#     Edge 37, Type (0, 0), BuildingBlock: EZIPEK_clean_linker_0, # of connection points: 2
#     Edge 38, Type (0, 0), BuildingBlock: EZIPEK_clean_linker_0, # of connection points: 2
#     Edge 39, Type (0, 0), BuildingBlock: EZIPEK_clean_linker_0, # of connection points: 2
#     Edge 40, Type (0, 0), BuildingBlock: EZIPEK_clean_linker_0, # of connection points: 2
#     Edge 41, Type (0, 0), BuildingBlock: EZIPEK_clean_linker_0, # of connection points: 2
#     Edge 42, Type (0, 0), BuildingBlock: EZIPEK_clean_linker_0, # of connection points: 2
#     Edge 43, Type (0, 0), BuildingBlock: EZIPEK_clean_linker_0, # of connection points: 2
#     Edge 44, Type (0, 0), BuildingBlock: EZIPEK_clean_linker_0, # of connection points: 2
#     Edge 45, Type (0, 0), BuildingBlock: EZIPEK_clean_linker_0, # of connection points: 2
#     Edge 46, Type (0, 0), BuildingBlock: EZIPEK_clean_linker_0, # of connection points: 2
#     Edge 47, Type (0, 0), BuildingBlock: EZIPEK_clean_linker_0, # of connection points: 2
#     Edge 48, Type (0, 0), BuildingBlock: EZIPEK_clean_linker_0, # of connection points: 2
#     Edge 49, Type (0, 0), BuildingBlock: EZIPEK_clean_linker_0, # of connection points: 2
#     Edge 50, Type (0, 0), BuildingBlock: EZIPEK_clean_linker_0, # of connection points: 2
#     Edge 51, Type (0, 0), BuildingBlock: EZIPEK_clean_linker_0, # of connection points: 2
#     Edge 52, Type (0, 0), BuildingBlock: EZIPEK_clean_linker_0, # of connection points: 2
#     Edge 53, Type (0, 0), BuildingBlock: EZIPEK_clean_linker_0, # of connection points: 2
#     Edge 54, Type (0, 0), BuildingBlock: EZIPEK_clean_linker_0, # of connection points: 2
#     Edge 55, Type (0, 0), BuildingBlock: EZIPEK_clean_linker_0, # of connection points: 2
#     Edge 56, Type (0, 0), BuildingBlock: EZIPEK_clean_linker_0, # of connection points: 2
#     Edge 57, Type (0, 0), BuildingBlock: EZIPEK_clean_linker_0, # of connection points: 2
#     Edge 58, Type (0, 0), BuildingBlock: EZIPEK_clean_linker_0, # of connection points: 2
#     Edge 59, Type (0, 0), BuildingBlock: EZIPEK_clean_linker_0, # of connection points: 2
#     Edge 60, Type (0, 0), BuildingBlock: EZIPEK_clean_linker_0, # of connection points: 2
#     Edge 61, Type (0, 0), BuildingBlock: EZIPEK_clean_linker_0, # of connection points: 2
#     Edge 62, Type (0, 0), BuildingBlock: EZIPEK_clean_linker_0, # of connection points: 2
#     Edge 63, Type (0, 0), BuildingBlock: EZIPEK_clean_linker_0, # of connection points: 2
# Relax obj value: 0.402
# Max RMSD: 0.252
# Mean RMSD: 0.249
data_MOF--net-whp--node1-VOLQOD_clean_sbu_1--edge1-EZIPEK_clean_linker_0
_symmetry_space_group_name_H-M    P1
_symmetry_Int_Tables_number       1
_symmetry_cell_setting            triclinic
loop_
_symmetry_equiv_pos_as_xyz
'x, y, z'
_cell_length_a     39.575544
_cell_length_b     39.456554
_cell_length_c     22.053905
_cell_angle_alpha  90.323241
_cell_angle_beta   89.961897
_cell_angle_gamma 90.027585
loop_
_atom_site_label
_atom_site_type_symbol
_atom_site_fract_x
_atom_site_fract_y
_atom_site_fract_z
_atom_type_partial_charge
O0 O 0.29567 0.58452 0.36924 0.0
Zn1 Zn 0.28166 0.56859 0.28704 0.0
O2 O 0.28985 0.52065 0.277 0.0
Zn3 Zn 0.24728 0.49677 0.26449 0.0
Zn4 Zn 0.31138 0.50559 0.34924 0.0
Zn5 Zn 0.32223 0.51288 0.2134 0.0
O6 O 0.2468 0.47746 0.17611 0.0
O7 O 0.29763 0.49379 0.14331 0.0
O8 O 0.23317 0.58088 0.27943 0.0
O9 O 0.20878 0.53041 0.2705 0.0
O10 O 0.23695 0.46641 0.33879 0.0
O11 O 0.27654 0.48623 0.40147 0.0
O12 O 0.34605 0.47046 0.33383 0.0
O13 O 0.31099 0.59536 0.23131 0.0
O14 O 0.35689 0.47815 0.23609 0.0
O15 O 0.34556 0.55674 0.19106 0.0
C16 C 0.31966 0.57365 0.40196 0.0
C17 C 0.26881 0.48049 0.13354 0.0
C18 C 0.24933 0.47001 0.39222 0.0
C19 C 0.20688 0.56249 0.27609 0.0
C20 C 0.3623 0.46309 0.28594 0.0
C21 C 0.33681 0.58747 0.19988 0.0
O22 O 0.33191 0.54413 0.39473 0.0
O23 O 0.89754 0.31101 0.90778 0.0
Zn24 Zn 0.90697 0.2876 0.82841 0.0
O25 O 0.95313 0.29405 0.80419 0.0
Zn26 Zn 0.97778 0.25216 0.80927 0.0
Zn27 Zn 0.97093 0.32625 0.85995 0.0
Zn28 Zn 0.95584 0.31411 0.72532 0.0
O29 O 0.00315 0.24534 0.72736 0.0
O30 O 0.97204 0.27847 0.66689 0.0
O31 O 0.89463 0.2384 0.83259 0.0
O32 O 0.94454 0.21381 0.81794 0.0
O33 O 0.00215 0.24985 0.89204 0.0
O34 O -0.00821 0.30157 0.92822 0.0
O35 O 0.00416 0.35672 0.82179 0.0
O36 O 0.87677 0.31261 0.77233 0.0
O37 O -0.00822 0.35041 0.724 0.0
O38 O 0.91099 0.33674 0.70501 0.0
C39 C 0.90699 0.34124 0.91927 0.0
C40 C -0.00589 0.25519 0.67422 0.0
C41 C 0.00216 0.27138 0.93575 0.0
C42 C 0.91287 0.21193 0.82794 0.0
C43 C 0.00883 0.36406 0.76649 0.0
C44 C 0.88179 0.33281 0.72858 0.0
O45 O 0.93332 0.35372 0.89499 0.0
O46 O 0.17089 0.90286 0.38395 0.0
Zn47 Zn 0.19292 0.90948 0.30293 0.0
O48 O 0.18857 0.95607 0.27859 0.0
Zn49 Zn 0.23244 0.97749 0.283 0.0
Zn50 Zn 0.15882 0.97672 0.33459 0.0
Zn51 Zn 0.16513 0.95968 0.20256 0.0
O52 O 0.24082 -7e-05 0.19983 0.0
O53 O 0.19927 0.97598 0.14482 0.0
O54 O 0.24119 0.89311 0.30322 0.0
O55 O 0.26866 0.94168 0.29249 0.0
O56 O 0.23699 0.00401 0.36356 0.0
O57 O 0.18495 -0.00209 0.39992 0.0
O58 O 0.12851 0.01065 0.29981 0.0
O59 O 0.1652 0.88041 0.24827 0.0
O60 O 0.12793 -0.00533 0.20334 0.0
O61 O 0.14327 0.91487 0.17919 0.0
C62 C 0.14147 0.9143 0.39553 0.0
C63 C 0.22622 -0.00643 0.14897 0.0
C64 C 0.21554 0.00686 0.40677 0.0
C65 C 0.26875 0.90964 0.2995 0.0
C66 C 0.11749 0.01354 0.24627 0.0
C67 C 0.14615 0.88564 0.20296 0.0
O68 O 0.13034 0.94098 0.37062 0.0
O69 O 0.57629 0.18593 0.94065 0.0
Zn70 Zn 0.56687 0.20377 0.85738 0.0
O71 O 0.52103 0.19459 0.83376 0.0
Zn72 Zn 0.49348 0.23517 0.83323 0.0
Zn73 Zn 0.50324 0.16316 0.89147 0.0
Zn74 Zn 0.52124 0.17404 0.75453 0.0
O75 O 0.46908 0.23908 0.75024 0.0
O76 O 0.5029 0.20634 0.69378 0.0
O77 O 0.57606 0.2534 0.85429 0.0
O78 O 0.52471 0.27534 0.84103 0.0
O79 O 0.46417 0.23738 0.91018 0.0
O80 O 0.47556 0.18804 0.95259 0.0
O81 O 0.47482 0.12813 0.84977 0.0
O82 O 0.5992 0.17783 0.80419 0.0
O83 O 0.48885 0.13558 0.75288 0.0
O84 O 0.567 0.15505 0.73222 0.0
C85 C 0.56633 0.15752 0.96105 0.0
C86 C 0.47933 0.22823 0.69842 0.0
C87 C 0.46126 0.21689 0.95461 0.0
C88 C 0.55648 0.27877 0.84841 0.0
C89 C 0.47227 0.1204 0.79385 0.0
C90 C 0.59563 0.15909 0.75753 0.0
O91 O 0.54077 0.14216 0.93912 0.0
O92 O 0.80959 0.40125 0.12177 0.0
Zn93 Zn 0.78702 0.40885 0.20147 0.0
O94 O 0.79107 0.45537 0.22816 0.0
Zn95 Zn 0.74633 0.4738 0.2452 0.0
Zn96 Zn 0.81251 0.48048 0.16418 0.0
Zn97 Zn 0.82088 0.45778 0.29743 0.0
O98 O 0.74511 0.49205 0.33367 0.0
O99 O 0.79446 0.4731 0.36893 0.0
O100 O 0.73953 0.39241 0.1988 0.0
O101 O 0.7114 0.43578 0.23948 0.0
O102 O 0.73289 0.50621 0.1759 0.0
O103 O 0.77787 0.50347 0.11579 0.0
O104 O 0.84569 0.51388 0.1956 0.0
O105 O 0.81282 0.3784 0.25552 0.0
O106 O 0.85626 0.49333 0.28731 0.0
O107 O 0.84428 0.41292 0.31207 0.0
C108 C 0.83117 0.41899 0.09339 0.0
C109 C 0.76599 0.48742 0.3774 0.0
C110 C 0.74764 0.51269 0.12554 0.0
C111 C 0.71227 0.40579 0.21756 0.0
C112 C 0.862 0.51434 0.24515 0.0
C113 C 0.83659 0.38333 0.29323 0.0
O114 O 0.83676 0.44981 0.1069 0.0
O115 O 0.07615 0.81811 0.59078 0.0
Zn116 Zn 0.0694 0.79437 0.66794 0.0
O117 O 0.02334 0.79924 0.69484 0.0
Zn118 Zn 0.00226 0.75542 0.69007 0.0
Zn119 Zn -0.00131 0.82877 0.64148 0.0
Zn120 Zn 0.02308 0.81851 0.77567 0.0
O121 O 0.97549 0.74782 0.76929 0.0
O122 O 0.00495 0.78259 0.83054 0.0
O123 O 0.08511 0.74616 0.66367 0.0
O124 O 0.0381 0.71944 0.69092 0.0
O125 O 0.9807 0.7508 0.60486 0.0
O126 O 0.96846 0.8041 0.5833 0.0
O127 O 0.97164 0.86251 0.68722 0.0
O128 O 0.10024 0.81992 0.72186 0.0
O129 O -0.00992 0.85697 0.78188 0.0
O130 O 0.06929 0.83847 0.79912 0.0
C131 C 0.06081 0.84378 0.56983 0.0
C132 C 0.98364 0.75864 0.82239 0.0
C133 C 0.96919 0.77304 0.56819 0.0
C134 C 0.06924 0.71916 0.67667 0.0
C135 C 0.97117 0.87099 0.74282 0.0
C136 C 0.09738 0.83665 0.77085 0.0
O137 O 0.03176 0.85273 0.58877 0.0
O138 O 0.66632 0.08827 0.15976 0.0
Zn139 Zn 0.69559 0.06706 0.22401 0.0
O140 O 0.68363 0.02004 0.23194 0.0
Zn141 Zn 0.72422 -0.00671 0.22935 0.0
Zn142 Zn 0.65205 0.00669 0.17131 0.0
Zn143 Zn 0.65874 0.01707 0.30619 0.0
O144 O 0.72651 0.96733 0.30992 0.0
O145 O 0.69087 -0.00203 0.36738 0.0
O146 O 0.74438 0.07492 0.20625 0.0
O147 O 0.766 0.02424 0.22568 0.0
O148 O 0.72574 0.96753 0.14776 0.0
O149 O 0.67737 0.98447 0.10618 0.0
O150 O 0.61729 0.97508 0.20157 0.0
O151 O 0.68673 0.0911 0.30273 0.0
O152 O 0.62001 0.98408 0.30088 0.0
O153 O 0.6397 0.06418 0.32336 0.0
C154 C 0.64002 0.07777 0.13228 0.0
C155 C 0.71435 0.97589 0.36179 0.0
C156 C 0.70583 0.9698 0.10216 0.0
C157 C 0.76973 0.05562 0.2133 0.0
C158 C 0.60718 0.96925 0.25506 0.0
C159 C 0.6565 0.09173 0.32124 0.0
O160 O 0.62997 0.04723 0.13545 0.0
O161 O 0.38513 0.67788 0.60224 0.0
Zn162 Zn 0.40433 0.70325 0.67278 0.0
O163 O 0.45094 0.69048 0.68259 0.0
Zn164 Zn 0.47946 0.7298 0.67559 0.0
Zn165 Zn 0.46384 0.65605 0.62559 0.0
Zn166 Zn 0.45346 0.66882 0.75951 0.0
O167 O 0.5061 0.73334 0.75661 0.0
O168 O 0.47219 0.70309 0.81768 0.0
O169 O 0.39846 0.7528 0.6608 0.0
O170 O 0.45087 0.77228 0.66998 0.0
O171 O 0.50243 0.72866 0.59085 0.0
O172 O 0.49086 0.67625 0.56046 0.0
O173 O 0.49231 0.62018 0.66116 0.0
O174 O 0.37585 0.68971 0.74419 0.0
O175 O 0.48785 0.63181 0.75934 0.0
O176 O 0.40729 0.64758 0.77698 0.0
C177 C 0.39427 0.65053 0.57629 0.0
C178 C 0.49635 0.7242 0.8098 0.0
C179 C 0.50265 0.70549 0.54983 0.0
C180 C 0.41933 0.77725 0.66262 0.0
C181 C 0.50036 0.61476 0.71585 0.0
C182 C 0.37827 0.6608 0.76857 0.0
O183 O 0.42292 0.63693 0.58572 0.0
O184 O 0.66922 0.3987 0.64767 0.0
Zn185 Zn 0.68717 0.41372 0.72808 0.0
O186 O 0.68212 0.46228 0.73889 0.0
Zn187 Zn 0.72637 0.48333 0.74956 0.0
Zn188 Zn 0.65986 0.47949 0.66857 0.0
Zn189 Zn 0.65176 0.47187 0.80471 0.0
O190 O 0.72946 0.50327 0.83767 0.0
O191 O 0.67777 0.49131 0.87167 0.0
O192 O 0.7353 0.39829 0.7321 0.0
O193 O 0.76252 0.44715 0.74311 0.0
O194 O 0.73768 0.51215 0.67373 0.0
O195 O 0.69487 0.49683 0.6139 0.0
O196 O 0.62557 0.51509 0.68655 0.0
O197 O 0.6577 0.38902 0.78665 0.0
O198 O 0.61626 0.50536 0.78418 0.0
O199 O 0.62804 0.42989 0.83195 0.0
C200 C 0.64575 0.41186 0.6164 0.0
C201 C 0.70747 0.50247 0.88059 0.0
C202 C 0.7239 0.50989 0.62117 0.0
C203 C 0.76266 0.41509 0.73597 0.0
C204 C 0.60967 0.52091 0.7355 0.0
C205 C 0.63406 0.39873 0.82177 0.0
O206 O 0.63645 0.44238 0.62409 0.0
O207 O 0.07691 0.6671 0.09791 0.0
Zn208 Zn 0.06712 0.69025 0.17744 0.0
O209 O 0.02057 0.68521 0.19964 0.0
Zn210 Zn -0.00245 0.72783 0.19333 0.0
Zn211 Zn 0.00279 0.6534 0.14333 0.0
Zn212 Zn 0.01601 0.66546 0.27838 0.0
O213 O 0.96942 0.7343 0.27205 0.0
O214 O -0.00136 0.70097 0.33498 0.0
O215 O 0.08146 0.73901 0.1773 0.0
O216 O 0.03241 0.7654 0.19193 0.0
O217 O 0.97596 0.73097 0.10804 0.0
O218 O 0.98371 0.67836 0.07371 0.0
O219 O 0.96837 0.62358 0.18 0.0
O220 O 0.09507 0.66353 0.23433 0.0
O221 O 0.98034 0.62948 0.278 0.0
O222 O 0.05963 0.6424 0.3028 0.0
C223 C 0.06699 0.63701 0.0865 0.0
C224 C 0.97686 0.72426 0.32581 0.0
C225 C 0.97513 0.70901 0.06502 0.0
C226 C 0.06435 0.76609 0.18425 0.0
C227 C 0.96335 0.61621 0.23519 0.0
C228 C 0.089 0.64458 0.27939 0.0
O229 O 0.04041 0.62502 0.11073 0.0
O230 O 0.81187 0.08607 0.64174 0.0
Zn231 Zn 0.78977 0.07341 0.71954 0.0
O232 O 0.79363 0.025 0.73264 0.0
Zn233 Zn 0.7484 0.00552 0.72905 0.0
Zn234 Zn 0.82158 0.00413 0.67144 0.0
Zn235 Zn 0.81674 0.01761 0.80877 0.0
O236 O 0.73985 0.97951 0.80882 0.0
O237 O 0.7832 -0.00115 0.86446 0.0
O238 O 0.74195 0.09069 0.72411 0.0
O239 O 0.71303 0.04264 0.72792 0.0
O240 O 0.74173 0.9825 0.64587 0.0
O241 O 0.79458 0.97681 0.61353 0.0
O242 O 0.85813 0.97516 0.70437 0.0
O243 O 0.81751 0.09874 0.77892 0.0
O244 O 0.85378 0.98348 0.80358 0.0
O245 O 0.83893 0.06032 0.84111 0.0
C246 C 0.83485 0.07082 0.61186 0.0
C247 C 0.75546 0.98273 0.85956 0.0
C248 C 0.763 0.97372 0.60502 0.0
C249 C 0.71394 0.0749 0.72681 0.0
C250 C 0.86764 0.96935 0.75821 0.0
C251 C 0.83633 0.09079 0.82309 0.0
O252 O 0.84279 0.04013 0.62173 0.0
O253 O 0.39789 0.80827 0.09312 0.0
Zn254 Zn 0.40946 0.786 0.17088 0.0
O255 O 0.45691 0.7919 0.18878 0.0
Zn256 Zn 0.47937 0.74885 0.17879 0.0
Zn257 Zn 0.47688 0.82372 0.13296 0.0
Zn258 Zn 0.46159 0.8098 0.27007 0.0
O259 O 0.50947 0.7405 0.254 0.0
O260 O 0.48288 0.77421 0.32078 0.0
O261 O 0.39539 0.73703 0.16951 0.0
O262 O 0.445 0.71123 0.17941 0.0
O263 O 0.49853 0.74671 0.09186 0.0
O264 O 0.50559 0.80093 0.06971 0.0
O265 O 0.50415 0.8592 0.17524 0.0
O266 O 0.38165 0.81175 0.23065 0.0
O267 O 0.49408 0.84853 0.27248 0.0
O268 O 0.41713 0.82859 0.30278 0.0
C269 C 0.41122 0.83431 0.06924 0.0
C270 C 0.50394 0.75067 0.30857 0.0
C271 C 0.50699 0.76987 0.05441 0.0
C272 C 0.41299 0.71018 0.17406 0.0
C273 C 0.50855 0.86552 0.23122 0.0
C274 C 0.38759 0.82756 0.27981 0.0
O275 O 0.44 0.84558 0.08547 0.0
O276 O 0.1669 0.57376 0.89298 0.0
Zn277 Zn 0.19027 0.56705 0.81376 0.0
O278 O 0.18482 0.52133 0.7843 0.0
Zn279 Zn 0.22912 0.50218 0.76675 0.0
Zn280 Zn 0.16293 0.49563 0.84652 0.0
Zn281 Zn 0.15427 0.52065 0.71624 0.0
O282 O 0.22922 0.48391 0.67823 0.0
O283 O 0.17958 0.50331 0.64511 0.0
O284 O 0.23826 0.5821 0.81744 0.0
O285 O 0.26469 0.53956 0.77092 0.0
O286 O 0.24276 0.47057 0.83706 0.0
O287 O 0.19792 0.47459 0.89746 0.0
O288 O 0.13098 0.4613 0.81262 0.0
O289 O 0.16649 0.5993 0.7598 0.0
O290 O 0.11669 0.48728 0.72717 0.0
O291 O 0.13435 0.56711 0.70019 0.0
C292 C 0.14355 0.55655 0.91772 0.0
C293 C 0.20777 0.4887 0.63541 0.0
C294 C 0.22832 0.46565 0.88831 0.0
C295 C 0.26485 0.569 0.79518 0.0
C296 C 0.11259 0.46377 0.76561 0.0
C297 C 0.14342 0.59609 0.72015 0.0
O298 O 0.13683 0.52634 0.90137 0.0
O299 O 0.90258 0.1698 0.4128 0.0
Zn300 Zn 0.91155 0.18668 0.32987 0.0
O301 O 0.95816 0.18108 0.30894 0.0
Zn302 Zn 0.98151 0.22404 0.31244 0.0
Zn303 Zn 0.97601 0.15021 0.36713 0.0
Zn304 Zn 0.96141 0.16067 0.22988 0.0
O305 O 0.00612 0.23174 0.23085 0.0
O306 O 0.97685 0.19593 0.17168 0.0
O307 O 0.89707 0.2348 0.3256 0.0
O308 O 0.94653 0.26135 0.31693 0.0
O309 O 0.00842 0.22751 0.39266 0.0
O310 O -3e-05 0.17669 0.43148 0.0
O311 O 0.00754 0.11699 0.32732 0.0
O312 O 0.88315 0.15671 0.27737 0.0
O313 O -0.00239 0.12589 0.22928 0.0
O314 O 0.91786 0.13622 0.20688 0.0
C315 C 0.91206 0.1409 0.43125 0.0
C316 C -0.00236 0.2204 0.17833 0.0
C317 C 0.01194 0.20654 0.43637 0.0
C318 C 0.91447 0.26179 0.32221 0.0
C319 C 0.01332 0.11091 0.27149 0.0
C320 C 0.88887 0.13755 0.23198 0.0
O321 O 0.93822 0.12632 0.40986 0.0
O322 O 0.31439 0.89898 0.8622 0.0
Zn323 Zn 0.29488 0.91348 0.78324 0.0
O324 O 0.30062 0.96158 0.77178 0.0
Zn325 Zn 0.25712 0.98378 0.77789 0.0
Zn326 Zn 0.33039 0.97662 0.83444 0.0
Zn327 Zn 0.32338 0.97125 0.69646 0.0
O328 O 0.24985 0.01229 0.70137 0.0
O329 O 0.28949 -0.00928 0.63993 0.0
O330 O 0.24645 0.89852 0.78212 0.0
O331 O 0.21974 0.94807 0.77974 0.0
O332 O 0.25278 0.0073 0.86064 0.0
O333 O 0.30334 -0.00352 0.89998 0.0
O334 O 0.36363 0.01022 0.80697 0.0
O335 O 0.32299 0.88887 0.72247 0.0
O336 O 0.35946 0.00681 0.70669 0.0
O337 O 0.34632 0.92881 0.66486 0.0
C338 C 0.34153 0.90968 0.88632 0.0
C339 C 0.26322 0.00881 0.64874 0.0
C340 C 0.2734 0.00757 0.90525 0.0
C341 C 0.21931 0.91576 0.78232 0.0
C342 C 0.37259 0.01931 0.75438 0.0
C343 C 0.34306 0.89792 0.68049 0.0
O344 O 0.35447 0.93804 0.87229 0.0
O345 O 0.46158 0.25647 0.24447 0.0
Zn346 Zn 0.4741 0.28096 0.32437 0.0
O347 O 0.52261 0.28912 0.32533 0.0
Zn348 Zn 0.54307 0.27147 0.39701 0.0
Zn349 Zn 0.54492 0.26861 0.25717 0.0
Zn350 Zn 0.53164 0.33707 0.32557 0.0
O351 O 0.57398 0.30506 0.43516 0.0
O352 O 0.54888 0.35262 0.40604 0.0
O353 O 0.45835 0.26123 0.40691 0.0
O354 O 0.50733 0.26266 0.4569 0.0
O355 O 0.56857 0.22875 0.3822 0.0
O356 O 0.56627 0.22444 0.28175 0.0
O357 O 0.5834 0.29877 0.22858 0.0
O358 O 0.45013 0.32582 0.31766 0.0
O359 O 0.56977 0.34816 0.27084 0.0
O360 O 0.49102 0.36395 0.30547 0.0
C361 C 0.47858 0.25375 0.1951 0.0
C362 C 0.56976 0.33689 0.43937 0.0
C363 C 0.57493 0.21286 0.3333 0.0
C364 C 0.47556 0.2583 0.45584 0.0
C365 C 0.58909 0.33017 0.23793 0.0
C366 C 0.45994 0.35602 0.30764 0.0
O367 O 0.51019 0.26003 0.19274 0.0
C368 C 0.33617 0.58415 0.50923 0.0
C369 C 0.3342 0.59597 0.44879 0.0
C370 C 0.36381 0.64809 0.47761 0.0
C371 C 0.37073 0.63349 0.53483 0.0
N372 N 0.36398 0.58811 0.60679 0.0
N373 N 0.34744 0.63832 0.37337 0.0
C374 C 0.35693 0.60167 0.55127 0.0
C375 C 0.34782 0.62801 0.4325 0.0
N376 N 0.31716 0.55692 0.52676 0.0
N377 N 0.37304 0.68086 0.46604 0.0
H378 H 0.33711 0.62409 0.33812 0.0
H379 H 0.35956 0.65999 0.35786 0.0
H380 H 0.3864 0.69591 0.49669 0.0
H381 H 0.36525 0.69419 0.42793 0.0
H382 H 0.31504 0.54891 0.57149 0.0
H383 H 0.30075 0.54423 0.49737 0.0
H384 H 0.3581 0.56329 0.61864 0.0
H385 H 0.37712 0.60124 0.64052 0.0
C386 C 0.83461 0.38962 0.9934 0.0
C387 C 0.85125 0.40236 0.04564 0.0
C388 C 0.90422 0.37539 0.01471 0.0
C389 C 0.88762 0.36218 0.96263 0.0
N390 N 0.837 0.35465 0.90274 0.0
N391 N 0.9028 0.4133 0.10122 0.0
C392 C 0.85277 0.36875 0.95199 0.0
C393 C 0.88636 0.39719 0.05467 0.0
N394 N 0.80196 0.3992 0.98208 0.0
N395 N 0.9363 0.36497 0.02854 0.0
H396 H 0.89062 0.42768 0.13438 0.0
H397 H 0.92899 0.41434 0.10509 0.0
H398 H 0.95042 0.34875 1.00109 0.0
H399 H 0.94807 0.36982 0.06988 0.0
H400 H 0.78878 0.39349 0.94257 0.0
H401 H 0.78839 0.41533 0.01076 0.0
H402 H 0.81103 0.35478 0.89583 0.0
H403 H 0.8498 0.34163 0.86862 0.0
C404 C 0.08949 0.8452 0.46967 0.0
C405 C 0.07754 0.86302 0.52153 0.0
C406 C 0.10646 0.91461 0.48931 0.0
C407 C 0.11945 0.89654 0.43856 0.0
N408 N 0.12461 0.84491 0.37973 0.0
N409 N 0.06821 0.91622 0.57447 0.0
C410 C 0.11123 0.86191 0.42839 0.0
C411 C 0.08388 0.8982 0.52932 0.0
N412 N 0.07841 0.81286 0.45842 0.0
N413 N 0.11775 0.9467 0.50202 0.0
H414 H 0.05387 0.90544 0.60881 0.0
H415 H 0.06766 0.94259 0.57616 0.0
H416 H 0.13412 0.96014 0.47412 0.0
H417 H 0.11335 0.95922 0.54294 0.0
H418 H 0.08318 0.79931 0.41879 0.0
H419 H 0.06185 0.79997 0.48691 0.0
H420 H 0.12361 0.81878 0.37378 0.0
H421 H 0.13797 0.85675 0.34523 0.0
C422 C 0.61559 0.12148 0.98691 0.0
C423 C 0.58704 0.14019 0.00659 0.0
C424 C 0.59685 0.1224 0.11129 0.0
C425 C 0.62273 0.10052 0.09002 0.0
N426 N 0.65438 0.07571 0.00745 0.0
N427 N 0.54889 0.15803 0.0858 0.0
C428 C 0.63158 0.0992 0.02783 0.0
C429 C 0.57725 0.14069 0.06847 0.0
N430 N 0.62771 0.12536 0.92931 0.0
N431 N 0.59125 0.12571 0.17223 0.0
H432 H 0.53478 0.1727 0.05582 0.0
H433 H 0.53828 0.15657 0.1289 0.0
H434 H 0.60451 0.11175 0.20444 0.0
H435 H 0.57521 0.14378 0.19122 0.0
H436 H 0.65076 0.11553 0.91472 0.0
H437 H 0.61623 0.14093 0.89744 0.0
H438 H 0.65861 0.07065 0.9617 0.0
H439 H 0.66718 0.05926 0.03618 0.0
C440 C 0.586 0.34801 0.5465 0.0
C441 C 0.58962 0.35591 0.48427 0.0
C442 C 0.63082 0.40022 0.5085 0.0
C443 C 0.62832 0.39118 0.57051 0.0
N444 N 0.60854 0.35279 0.64796 0.0
N445 N 0.61893 0.38514 0.40401 0.0
C446 C 0.60762 0.36379 0.5893 0.0
C447 C 0.6129 0.38092 0.46459 0.0
N448 N 0.56062 0.32685 0.565 0.0
N449 N 0.65041 0.42718 0.4917 0.0
H450 H 0.60623 0.37154 0.37042 0.0
H451 H 0.63821 0.40022 0.38674 0.0
H452 H 0.66626 0.4401 0.52172 0.0
H453 H 0.64995 0.43782 0.44862 0.0
H454 H 0.55447 0.3228 0.61026 0.0
H455 H 0.54352 0.3155 0.53517 0.0
H456 H 0.59786 0.32999 0.66181 0.0
H457 H 0.62214 0.36493 0.68215 0.0
C458 C 0.08847 0.58149 0.95054 0.0
C459 C 0.12258 0.5733 0.96405 0.0
C460 C 0.12054 0.60735 0.05697 0.0
C461 C 0.0863 0.61548 0.04394 0.0
N462 N 0.03654 0.60925 0.98132 0.0
N463 N 0.16932 0.57226 0.03361 0.0
C464 C 0.06984 0.60197 0.99184 0.0
C465 C 0.13814 0.58457 0.01826 0.0
N466 N 0.07454 0.57123 0.89663 0.0
N467 N 0.13627 0.62144 0.10626 0.0
H468 H 0.18243 0.55481 0.00675 0.0
H469 H 0.1812 0.57688 0.07489 0.0
H470 H 0.12375 0.63583 0.1389 0.0
H471 H 0.16216 0.62014 0.11398 0.0
H472 H 0.05142 0.57965 0.88018 0.0
H473 H 0.08693 0.5556 0.86556 0.0
H474 H 0.02164 0.59672 0.94949 0.0
H475 H 0.02299 0.62734 0.00585 0.0
C476 C 0.85736 0.11652 0.46703 0.0
C477 C 0.89197 0.12387 0.47806 0.0
C478 C 0.88925 0.0953 0.57576 0.0
C479 C 0.85417 0.08971 0.56637 0.0
N480 N 0.80338 0.09907 0.50802 0.0
N481 N 0.93897 0.12725 0.54741 0.0
C482 C 0.83771 0.10179 0.51368 0.0
C483 C 0.90749 0.1151 0.53359 0.0
N484 N 0.84369 0.12208 0.41103 0.0
N485 N 0.90521 0.08174 0.62497 0.0
H486 H 0.95286 0.14268 0.51832 0.0
H487 H 0.95006 0.1248 0.58993 0.0
H488 H 0.89255 0.0692 0.65964 0.0
H489 H 0.93138 0.08113 0.62978 0.0
H490 H 0.81976 0.11385 0.39809 0.0
H491 H 0.85723 0.13252 0.37527 0.0
H492 H 0.78955 0.11118 0.47437 0.0
H493 H 0.78815 0.08648 0.53918 0.0
C494 C 0.37026 0.85664 0.91953 0.0
C495 C 0.35778 0.88945 0.93359 0.0
C496 C 0.38109 0.88629 0.03576 0.0
C497 C 0.39219 0.85281 0.02291 0.0
N498 N 0.39333 0.80381 0.95661 0.0
N499 N 0.34419 0.93245 0.00793 0.0
C500 C 0.38529 0.83714 0.96613 0.0
C501 C 0.36124 0.90349 0.99248 0.0
N502 N 0.36923 0.84486 0.86108 0.0
N503 N 0.38962 0.90177 0.08922 0.0
H504 H 0.32898 0.94566 0.97761 0.0
H505 H 0.34247 0.94169 0.05215 0.0
H506 H 0.40198 0.88936 0.12434 0.0
H507 H 0.38632 0.92758 0.09734 0.0
H508 H 0.38081 0.82255 0.84671 0.0
H509 H 0.35892 0.85862 0.82539 0.0
H510 H 0.38531 0.78991 0.91903 0.0
H511 H 0.40641 0.78917 0.98798 0.0
C512 C 0.38427 0.40645 0.25313 0.0
C513 C 0.38797 0.43624 0.28882 0.0
C514 C 0.43609 0.41141 0.3415 0.0
C515 C 0.43467 0.38314 0.30156 0.0
N516 N 0.41109 0.35609 0.21259 0.0
N517 N 0.42126 0.47017 0.35791 0.0
C518 C 0.40977 0.38125 0.25539 0.0
C519 C 0.41503 0.43965 0.3304 0.0
N520 N 0.35575 0.40148 0.21922 0.0
N521 N 0.45637 0.41067 0.39168 0.0
H522 H 0.40675 0.49176 0.34993 0.0
H523 H 0.44276 0.47494 0.38383 0.0
H524 H 0.47135 0.38988 0.4029 0.0
H525 H 0.4557 0.42918 0.42552 0.0
H526 H 0.35009 0.3786 0.19772 0.0
H527 H 0.33619 0.41911 0.21683 0.0
H528 H 0.3959 0.35574 0.17404 0.0
H529 H 0.42931 0.33706 0.21276 0.0
C530 C 0.0254 0.42436 0.7577 0.0
C531 C 0.03439 0.38976 0.75248 0.0
C532 C 0.09392 0.40497 0.74133 0.0
C533 C 0.08542 0.43894 0.75596 0.0
N534 N 0.04383 0.48151 0.78114 0.0
N535 N 0.07629 0.34605 0.73976 0.0
C536 C 0.05129 0.44897 0.76406 0.0
C537 C 0.0684 0.37973 0.74363 0.0
N538 N -0.00793 0.43347 0.75664 0.0
N539 N 0.12623 0.3971 0.72432 0.0
H540 H 0.05795 0.32704 0.7386 0.0
H541 H 0.1009 0.33677 0.7406 0.0
H542 H 0.14547 0.41516 0.72209 0.0
H543 H 0.13343 0.37346 0.70762 0.0
H544 H 0.9838 0.45848 0.75455 0.0
H545 H 0.97257 0.41579 0.75241 0.0
H546 H 0.01986 0.48941 0.79453 0.0
H547 H 0.06211 0.50037 0.78605 0.0
C548 C 0.09544 0.07047 0.22035 0.0
C549 C 0.08895 0.03655 0.23701 0.0
C550 C 0.03045 0.05056 0.26231 0.0
C551 C 0.03856 0.08525 0.255 0.0
N552 N 0.07782 0.12929 0.22701 0.0
N553 N 0.05111 -0.00698 0.27223 0.0
C554 C 0.07065 0.09555 0.23295 0.0
C555 C 0.05648 0.02611 0.25668 0.0
N556 N 0.12542 0.07847 0.19308 0.0
N557 N -0.00221 0.04113 0.27365 0.0
H558 H 0.06911 0.97407 0.26519 0.0
H559 H 0.02949 0.98446 0.29426 0.0
H560 H 0.97812 0.05857 0.27827 0.0
H561 H -0.01047 0.01608 0.27374 0.0
H562 H 0.13092 0.10218 0.17518 0.0
H563 H 0.14393 0.06032 0.18384 0.0
H564 H 0.10174 0.13873 0.21716 0.0
H565 H 0.0601 0.14832 0.23532 0.0
C566 C 0.43288 0.03609 0.75179 0.0
C567 C 0.39845 0.04573 0.75001 0.0
C568 C 0.41358 0.10518 0.76501 0.0
C569 C 0.44741 0.0949 0.77524 0.0
N570 N 0.49033 0.05166 0.77885 0.0
N571 N 0.35493 0.08831 0.75389 0.0
C572 C 0.45751 0.06067 0.76801 0.0
C573 C 0.3885 0.08007 0.75541 0.0
N574 N 0.44173 0.00344 0.73798 0.0
N575 N 0.40563 0.13893 0.76415 0.0
H576 H 0.3361 0.07065 0.74367 0.0
H577 H 0.34547 0.11214 0.76504 0.0
H578 H 0.42325 0.15801 0.77292 0.0
H579 H 0.38224 0.1483 0.75075 0.0
H580 H 0.46655 -0.00488 0.73359 0.0
H581 H 0.42396 0.98502 0.72607 0.0
H582 H 0.49878 0.02673 0.78062 0.0
H583 H 0.50915 0.06929 0.7893 0.0
C584 C 0.90477 0.59952 0.26212 0.0
C585 C 0.93846 0.58993 0.24902 0.0
C586 C 0.92283 0.53001 0.24794 0.0
C587 C 0.88851 0.5399 0.25328 0.0
N588 N 0.84579 0.58281 0.26696 0.0
N589 N 0.98082 0.54734 0.22992 0.0
C590 C 0.87918 0.57433 0.26146 0.0
C591 C 0.94797 0.55546 0.24292 0.0
N592 N 0.8975 0.63266 0.27516 0.0
N593 N 0.93121 0.49636 0.24711 0.0
H594 H 0.00018 0.5653 0.22887 0.0
H595 H -0.01105 0.52319 0.21765 0.0
H596 H 0.91332 0.47695 0.24785 0.0
H597 H 0.95587 0.48735 0.24946 0.0
H598 H 0.87409 0.64112 0.29046 0.0
H599 H 0.91574 0.65175 0.27456 0.0
H600 H 0.83673 0.60754 0.26612 0.0
H601 H 0.82659 0.56477 0.27025 0.0
C602 C 0.91786 0.89014 0.79225 0.0
C603 C 0.94815 0.89834 0.7613 0.0
C604 C 0.92858 0.95639 0.74629 0.0
C605 C 0.8963 0.94639 0.76745 0.0
N606 N 0.85913 0.90445 0.81054 0.0
N607 N 0.98404 0.93888 0.71132 0.0
C608 C 0.89076 0.91366 0.79172 0.0
C609 C 0.95418 0.93155 0.73968 0.0
N610 N 0.9149 0.8597 0.82107 0.0
N611 N 0.93464 0.98972 0.73336 0.0
H612 H 0.00419 0.92184 0.70945 0.0
H613 H 0.98853 0.96122 0.68776 0.0
H614 H 0.91627 0.00851 0.73833 0.0
H615 H 0.95838 -0.00065 0.72269 0.0
H616 H 0.89479 0.85344 0.84932 0.0
H617 H 0.93401 0.84156 0.82084 0.0
H618 H 0.85242 0.87977 0.82182 0.0
H619 H 0.83874 0.92117 0.8116 0.0
C620 C 0.5647 0.88452 0.26974 0.0
C621 C 0.53192 0.8928 0.24853 0.0
C622 C 0.54685 0.95279 0.24345 0.0
C623 C 0.57992 0.9444 0.26295 0.0
N624 N 0.61881 0.90459 0.30717 0.0
N625 N 0.48889 0.93436 0.22841 0.0
C626 C 0.58823 0.91099 0.28078 0.0
C627 C 0.52205 0.9269 0.23964 0.0
N628 N 0.5739 0.85128 0.27567 0.0
N629 N 0.53963 0.98535 0.22691 0.0
H630 H 0.47019 0.91578 0.22534 0.0
H631 H 0.4793 0.95889 0.22686 0.0
H632 H 0.55668 0.0053 0.23279 0.0
H633 H 0.51741 -0.00749 0.20529 0.0
H634 H 0.59848 0.8433 0.28426 0.0
H635 H 0.55725 0.83119 0.26819 0.0
H636 H 0.62516 0.88155 0.32684 0.0
H637 H 0.63714 0.92324 0.31366 0.0
C638 C 0.52135 0.55546 0.71588 0.0
C639 C 0.52728 0.59023 0.7279 0.0
C640 C 0.58614 0.57846 0.75381 0.0
C641 C 0.58117 0.5445 0.73487 0.0
N642 N 0.54544 0.50018 0.69465 0.0
N643 N 0.56565 0.63619 0.75107 0.0
C644 C 0.54911 0.53278 0.71513 0.0
C645 C 0.55968 0.60214 0.74559 0.0
N646 N 0.48906 0.54417 0.70671 0.0
N647 N 0.6161 0.58795 0.77974 0.0
H648 H 0.54701 0.65453 0.74506 0.0
H649 H 0.58962 0.64656 0.75699 0.0
H650 H 0.63648 0.57142 0.78461 0.0
H651 H 0.61992 0.61138 0.8006 0.0
H652 H 0.48253 0.51867 0.70353 0.0
H653 H 0.46816 0.56029 0.70739 0.0
H654 H 0.52377 0.4912 0.67319 0.0
H655 H 0.56493 0.48238 0.69574 0.0
C656 C 0.23511 0.43694 0.98895 0.0
C657 C 0.24841 0.45898 0.94406 0.0
C658 C 0.27207 0.49492 0.02313 0.0
C659 C 0.26055 0.47235 0.06887 0.0
N660 N 0.23842 0.41691 0.0928 0.0
N661 N 0.29217 0.49941 0.92033 0.0
C662 C 0.24428 0.44169 0.05117 0.0
C663 C 0.27149 0.48443 0.96181 0.0
N664 N 0.21306 0.41205 0.97199 0.0
N665 N 0.28121 0.52745 0.03721 0.0
H666 H 0.29382 0.49112 0.87552 0.0
H667 H 0.31097 0.5166 0.93287 0.0
H668 H 0.27811 0.53803 0.0803 0.0
H669 H 0.28748 0.54523 1.0043 0.0
H670 H 0.19932 0.39764 1.00284 0.0
H671 H 0.20776 0.40697 0.92644 0.0
H672 H 0.22922 0.393 0.08121 0.0
H673 H 0.24574 0.41911 0.13805 0.0
C674 C 0.01105 0.20601 0.60548 0.0
C675 C 0.01046 0.24132 0.61816 0.0
C676 C 0.02811 0.25299 0.51295 0.0
C677 C 0.02336 0.21815 0.49867 0.0
N678 N 0.03183 0.162 0.5381 0.0
N679 N 0.03075 0.29679 0.59122 0.0
C680 C 0.0219 0.19474 0.54731 0.0
C681 C 0.02295 0.26437 0.57396 0.0
N682 N -0.00058 0.18325 0.64698 0.0
N683 N 0.03803 0.27487 0.46868 0.0
H684 H 0.02878 0.30506 0.63611 0.0
H685 H 0.04184 0.31462 0.56291 0.0
H686 H 0.04834 0.26636 0.42782 0.0
H687 H 0.0372 0.30113 0.47297 0.0
H688 H -0.00385 0.15762 0.63708 0.0
H689 H -0.00916 0.19013 0.68993 0.0
H690 H 0.03352 0.14432 0.57289 0.0
H691 H 0.04271 0.15412 0.49724 0.0
C692 C 0.25416 0.03595 1.00251 0.0
C693 C 0.25984 0.0063 0.96743 0.0
C694 C 0.25352 0.97111 0.05736 0.0
C695 C 0.24364 2e-05 0.09111 0.0
N696 N 0.23176 0.05979 0.09631 0.0
N697 N 0.25803 0.94516 0.95852 0.0
C698 C 0.24337 0.03257 0.06402 0.0
C699 C 0.2575 0.97373 0.99408 0.0
N700 N 0.25945 0.06702 0.97731 0.0
N701 N 0.25921 0.94102 0.08615 0.0
H702 H 0.26022 0.94576 0.91139 0.0
H703 H 0.25306 0.921 0.97511 0.0
H704 H 0.25622 0.93813 0.13283 0.0
H705 H 0.27005 0.92004 0.06485 0.0
H706 H 0.25891 0.08958 1.00202 0.0
H707 H 0.26626 0.06992 0.9319 0.0
H708 H 0.22755 0.08353 0.07737 0.0
H709 H 0.22475 0.05803 0.14182 0.0
C710 C 0.45263 0.22007 0.53616 0.0
C711 C 0.4594 0.25326 0.51577 0.0
C712 C 0.4662 0.27325 0.62067 0.0
C713 C 0.46329 0.23925 0.64065 0.0
N714 N 0.44198 0.18308 0.62187 0.0
N715 N 0.46092 0.3129 0.537 0.0
C716 C 0.45223 0.21364 0.59963 0.0
C717 C 0.46177 0.28039 0.55793 0.0
N718 N 0.44899 0.19448 0.49476 0.0
N719 N 0.47567 0.29814 0.66045 0.0
H720 H 0.45781 0.31823 0.49099 0.0
H721 H 0.46017 0.33419 0.56505 0.0
H722 H 0.47773 0.29414 0.70691 0.0
H723 H 0.48266 0.32245 0.64731 0.0
H724 H 0.44806 0.16893 0.50618 0.0
H725 H 0.44803 0.19907 0.44822 0.0
H726 H 0.4314 0.16397 0.59524 0.0
H727 H 0.44127 0.17821 0.66833 0.0
C728 C 0.74418 0.52896 0.45743 0.0
C729 C 0.75702 0.49644 0.44127 0.0
C730 C 0.76327 0.48329 0.54911 0.0
C731 C 0.74426 0.51236 0.56486 0.0
N732 N 0.71511 0.56274 0.53389 0.0
N733 N 0.77062 0.43949 0.47383 0.0
C734 C 0.73445 0.53533 0.51887 0.0
C735 C 0.76457 0.47277 0.48774 0.0
N736 N 0.74225 0.55398 0.41506 0.0
N737 N 0.77918 0.465 0.59296 0.0
H738 H 0.7687 0.4297 0.42994 0.0
H739 H 0.77324 0.42082 0.50674 0.0
H740 H 0.7796 0.47271 0.63816 0.0
H741 H 0.79536 0.44486 0.58312 0.0
H742 H 0.73588 0.57892 0.42575 0.0
H743 H 0.75004 0.5506 0.37029 0.0
H744 H 0.70377 0.57834 0.50184 0.0
H745 H 0.70936 0.56876 0.57891 0.0
C746 C -0.00307 0.71525 0.89802 0.0
C747 C 0.97371 0.73953 0.87718 0.0
C748 C 0.94643 0.73991 0.97762 0.0
C749 C 0.97354 0.72023 1.00058 0.0
N750 N 0.03007 0.69842 0.98369 0.0
N751 N 0.92609 0.77584 0.89589 0.0
C752 C 0.00015 0.71003 0.96095 0.0
C753 C 0.94815 0.75201 0.91661 0.0
N754 N 0.01687 0.69804 0.8578 0.0
N755 N 0.91905 0.74651 0.01345 0.0
H756 H 0.92564 0.7831 0.85046 0.0
H757 H 0.90928 0.78895 0.92374 0.0
H758 H 0.91725 0.73784 0.05794 0.0
H759 H 0.89723 0.75829 0.99774 0.0
H760 H 0.03226 0.67786 0.87065 0.0
H761 H 0.01505 0.70152 0.81105 0.0
H762 H 0.05108 0.69322 0.95663 0.0
H763 H 0.03548 0.6985 0.02987 0.0
C764 C 0.71089 0.94888 0.46486 0.0
C765 C 0.73062 0.96416 0.41851 0.0
C766 C 0.76963 0.98564 0.49393 0.0
C767 C 0.75175 0.9686 0.54097 0.0
N768 N 0.70912 0.92773 0.56826 0.0
N769 N 0.7856 0.98473 0.38869 0.0
C770 C 0.72349 0.94811 0.52559 0.0
C771 C 0.76257 0.9777 0.43292 0.0
N772 N 0.67994 0.93577 0.45088 0.0
N773 N 0.79064 0.01225 0.50659 0.0
H774 H 0.78167 0.97894 0.34314 0.0
H775 H 0.81019 -0.00751 0.39868 0.0
H776 H 0.79222 0.02334 0.54939 0.0
H777 H 0.80218 0.02667 0.47291 0.0
H778 H 0.66265 0.92775 0.48343 0.0
H779 H 0.67122 0.93425 0.40629 0.0
H780 H 0.69017 0.91024 0.55835 0.0
H781 H 0.71836 0.92616 0.61244 0.0
C782 C 0.52893 0.73067 0.9714 0.0
C783 C 0.51229 0.76119 0.98852 0.0
C784 C 0.5033 0.77319 0.88019 0.0
C785 C 0.51143 0.7394 0.8655 0.0
N786 N 0.53376 0.68552 0.89649 0.0
N787 N 0.47642 0.80793 0.9551 0.0
C788 C 0.52512 0.71806 0.91095 0.0
C789 C 0.49813 0.78201 0.94185 0.0
N790 N 0.54877 0.71412 0.01228 0.0
N791 N 0.49873 0.79651 0.83549 0.0
H792 H 0.46683 0.81266 0.99801 0.0
H793 H 0.46366 0.82158 0.92187 0.0
H794 H 0.5024 0.79086 0.78977 0.0
H795 H 0.49534 0.82225 0.84458 0.0
H796 H 0.56353 0.69317 1.00098 0.0
H797 H 0.55331 0.72362 0.05576 0.0
H798 H 0.54009 0.66741 0.92876 0.0
H799 H 0.53317 0.67643 0.85197 0.0
C800 C 0.70288 0.48792 0.99045 0.0
C801 C 0.71643 0.5097 0.94521 0.0
C802 C 0.74323 0.54316 0.02625 0.0
C803 C 0.72804 0.52185 0.07042 0.0
N804 N 0.68084 0.48526 0.09216 0.0
N805 N 0.74289 0.5633 0.92219 0.0
C806 C 0.70328 0.4984 0.05167 0.0
C807 C 0.7346 0.5391 0.9636 0.0
N808 N 0.6918 0.45606 0.97599 0.0
N809 N 0.76658 0.56655 0.04439 0.0
H810 H 0.73632 0.5614 0.87653 0.0
H811 H 0.75363 0.5865 0.93412 0.0
H812 H 0.77155 0.57112 0.09023 0.0
H813 H 0.78156 0.58021 0.01432 0.0
H814 H 0.68383 0.43885 0.00867 0.0
H815 H 0.69488 0.44525 0.93307 0.0
H816 H 0.66104 0.46945 0.07877 0.0
H817 H 0.6791 0.494 0.13673 0.0
C818 C 0.94889 0.71955 0.42786 0.0
C819 C 0.96182 0.74041 0.38086 0.0
C820 C 0.97466 0.78469 0.45456 0.0
C821 C 0.96247 0.76376 0.50296 0.0
N822 N 0.92805 0.71601 0.53135 0.0
N823 N 0.9727 0.79739 0.34741 0.0
C824 C 0.94631 0.73264 0.48819 0.0
C825 C 0.96926 0.77465 0.39348 0.0
N826 N 0.93983 0.68692 0.41481 0.0
N827 N -0.00543 0.81233 0.46562 0.0
H828 H 0.96873 0.79109 0.3021 0.0
H829 H 0.9752 0.82338 0.3549 0.0
H830 H 0.00343 0.81912 0.50804 0.0
H831 H 0.0065 0.826 0.43144 0.0
H832 H 0.93422 0.66899 0.4478 0.0
H833 H 0.93912 0.67762 0.37042 0.0
H834 H 0.91349 0.6946 0.52222 0.0
H835 H 0.92465 0.72574 0.57502 0.0
C836 C 0.72605 0.00299 0.01558 0.0
C837 C 0.72044 0.97042 0.04062 0.0
C838 C 0.73469 0.94412 0.94282 0.0
C839 C 0.73773 0.97695 0.91737 0.0
N840 N 0.72877 0.03728 0.92536 0.0
N841 N 0.71513 0.91011 0.02785 0.0
C842 C 0.73074 0.00622 0.95255 0.0
C843 C 0.72344 0.94088 1.00415 0.0
N844 N 0.72779 0.03091 0.05258 0.0
N845 N 0.74355 0.91641 0.9091 0.0
H846 H 0.70796 0.90726 0.0731 0.0
H847 H 0.71364 0.88794 1.00216 0.0
H848 H 0.75081 0.91824 0.86373 0.0
H849 H 0.74523 0.89204 0.92671 0.0
H850 H 0.73425 0.05495 0.03725 0.0
H851 H 0.72548 0.0298 0.09965 0.0
H852 H 0.72035 0.05911 0.94732 0.0
H853 H 0.7327 0.04077 0.87906 0.0
C854 C 0.50015 0.70211 0.37685 0.0
C855 C 0.51736 0.73192 0.36138 0.0
C856 C 0.53511 0.73768 0.4679 0.0
C857 C 0.51007 0.71362 0.48478 0.0
N858 N 0.46109 0.68108 0.45005 0.0
N859 N 0.55301 0.77826 0.39168 0.0
C860 C 0.49081 0.69739 0.43792 0.0
C861 C 0.53579 0.74959 0.40682 0.0
N862 N 0.49034 0.67972 0.33301 0.0
N863 N 0.55832 0.7487 0.50926 0.0
H864 H 0.55515 0.78613 0.34672 0.0
H865 H 0.56381 0.79453 0.42361 0.0
H866 H 0.55947 0.7392 0.55324 0.0
H867 H 0.57849 0.76443 0.49796 0.0
H868 H 0.47956 0.65633 0.34347 0.0
H869 H 0.49669 0.68294 0.2875 0.0
H870 H 0.44586 0.67082 0.41603 0.0
H871 H 0.44871 0.68262 0.49161 0.0
C872 C 0.20662 0.50316 0.52482 0.0
C873 C 0.21585 0.47987 0.57104 0.0
C874 C 0.23967 0.44237 0.49258 0.0
C875 C 0.22845 0.465 0.44714 0.0
N876 N 0.19055 0.51002 0.41997 0.0
N877 N 0.23333 0.42292 0.5962 0.0
C878 C 0.20773 0.49266 0.46348 0.0
C879 C 0.23 0.448 0.55425 0.0
N880 N 0.19951 0.53624 0.53864 0.0
N881 N 0.26042 0.41616 0.47682 0.0
H882 H 0.2254 0.42567 0.64103 0.0
H883 H 0.2409 0.39838 0.58503 0.0
H884 H 0.26628 0.41077 0.4316 0.0
H885 H 0.2727 0.40101 0.50845 0.0
H886 H 0.19541 0.55458 0.50561 0.0
H887 H 0.20215 0.54643 0.58211 0.0
H888 H 0.17331 0.5292 0.43021 0.0
H889 H 0.19054 0.50232 0.3747 0.0
C890 C 0.03092 0.22623 0.08119 0.0
C891 C 0.00669 0.23928 0.12277 0.0
C892 C 0.97911 0.26955 0.0413 0.0
C893 C 0.00492 0.25962 0.99983 0.0
N894 N 0.05885 0.23268 0.98349 0.0
N895 N 0.96533 0.28216 0.14539 0.0
C896 C 0.03205 0.2392 0.0207 0.0
C897 C 0.98377 0.26431 0.10385 0.0
N898 N 0.05218 0.201 0.09919 0.0
N899 N 0.94849 0.28066 0.02091 0.0
H900 H 0.96818 0.27877 0.19199 0.0
H901 H 0.95027 0.30273 0.13328 0.0
H902 H 0.94186 0.28031 0.97522 0.0
H903 H 0.92818 0.28565 0.0498 0.0
H904 H 0.06794 0.18781 0.06948 0.0
H905 H 0.05277 0.19237 0.14385 0.0
H906 H 0.08063 0.22031 0.9979 0.0
H907 H 0.06035 0.24213 0.93949 0.0
C908 C 0.24989 0.03833 0.48774 0.0
C909 C 0.22683 0.01242 0.47046 0.0
C910 C 0.21673 0.00014 0.57714 0.0
C911 C 0.24488 0.01977 0.59383 0.0
N912 N 0.28918 0.05824 0.56507 0.0
N913 N 0.19935 0.96027 0.50161 0.0
C914 C 0.26167 0.03938 0.54905 0.0
C915 C 0.21296 -0.0089 0.51592 0.0
N916 N 0.26009 0.06188 0.44653 0.0
N917 N 0.19452 0.98854 0.61944 0.0
H918 H 0.20045 0.94988 0.45809 0.0
H919 H 0.19132 0.94321 0.53465 0.0
H920 H 0.19604 -0.0048 0.66513 0.0
H921 H 0.17235 0.97596 0.60707 0.0
H922 H 0.27483 0.08282 0.45806 0.0
H923 H 0.25138 0.06195 0.40192 0.0
H924 H 0.30475 0.0702 0.53366 0.0
H925 H 0.29693 0.06062 0.61016 0.0
C926 C 0.44954 0.26313 0.03187 0.0
C927 C 0.448 0.2285 0.01521 0.0
C928 C 0.45147 0.21239 0.1225 0.0
C929 C 0.46124 0.24608 0.13685 0.0
N930 N 0.46712 0.30457 0.10711 0.0
N931 N 0.42985 0.17325 0.04601 0.0
C932 C 0.45886 0.27193 0.09229 0.0
C933 C 0.4431 0.20407 0.06134 0.0
N934 N 0.44057 0.28731 0.99093 0.0
N935 N 0.45266 0.18801 0.16619 0.0
H936 H 0.42209 0.16787 1.00171 0.0
H937 H 0.42337 0.15469 0.07729 0.0
H938 H 0.45801 0.19353 0.21149 0.0
H939 H 0.44978 0.16223 0.15736 0.0
H940 H 0.43909 0.31304 1.0013 0.0
H941 H 0.42997 0.28102 0.94908 0.0
H942 H 0.46997 0.32375 0.07528 0.0
H943 H 0.47284 0.31214 0.15133 0.0
C944 C 0.16836 0.60115 0.33438 0.0
C945 C 0.17349 0.57889 0.28412 0.0
C946 C 0.11612 0.59074 0.24927 0.0
C947 C 0.11424 0.61802 0.29127 0.0
N948 N 0.13773 0.64968 0.37446 0.0
N949 N 0.15268 0.55373 0.19109 0.0
C950 C 0.13997 0.62317 0.33458 0.0
C951 C 0.14724 0.57344 0.24137 0.0
N952 N 0.19002 0.60044 0.38262 0.0
N953 N 0.08825 0.58199 0.21609 0.0
H954 H 0.17558 0.54178 0.18181 0.0
H955 H 0.1355 0.55156 0.15557 0.0
H956 H 0.06511 0.59439 0.22089 0.0
H957 H 0.08707 0.56055 0.18842 0.0
H958 H 0.18587 0.61393 0.42266 0.0
H959 H 0.21025 0.58357 0.38524 0.0
H960 H 0.15753 0.65721 0.40257 0.0
H961 H 0.11637 0.66514 0.37713 0.0
C962 C 0.85307 0.14269 0.88154 0.0
C963 C 0.86167 0.11623 0.84105 0.0
C964 C 0.90486 0.15139 0.79406 0.0
C965 C 0.89691 0.17812 0.83507 0.0
N966 N 0.87133 0.19462 0.93056 0.0
N967 N 0.9034 0.09098 0.77561 0.0
C968 C 0.87341 0.1724 0.88297 0.0
C969 C 0.89048 0.11905 0.8036 0.0
N970 N 0.82511 0.13969 0.91737 0.0
N971 N 0.92354 0.15728 0.743 0.0
H972 H 0.89301 0.06689 0.78135 0.0
H973 H 0.92636 0.09121 0.7524 0.0
H974 H 0.93195 0.18125 0.73045 0.0
H975 H 0.92722 0.13904 0.70928 0.0
H976 H 0.81532 0.15967 0.94299 0.0
H977 H 0.81095 0.11737 0.91906 0.0
H978 H 0.85655 0.19018 0.96881 0.0
H979 H 0.88719 0.21561 0.93493 0.0
C980 C 0.32855 0.8999 0.26251 0.0
C981 C 0.30164 0.89113 0.30234 0.0
C982 C 0.33475 0.84234 0.33801 0.0
C983 C 0.36159 0.85213 0.29965 0.0
N984 N 0.38857 0.89652 0.24298 0.0
N985 N 0.2845 0.8604 0.39202 0.0
C986 C 0.36004 0.88324 0.26834 0.0
C987 C 0.3063 0.86422 0.3445 0.0
N988 N 0.32361 0.92187 0.21564 0.0
N989 N 0.33618 0.81201 0.36733 0.0
H990 H 0.26475 0.87722 0.40068 0.0
H991 H 0.28836 0.84295 0.42662 0.0
H992 H 0.35749 0.79644 0.36547 0.0
H993 H 0.31574 0.80174 0.39071 0.0
H994 H 0.34178 0.92633 0.18242 0.0
H995 H 0.30034 0.93256 0.2052 0.0
H996 H 0.38941 0.92087 0.22488 0.0
H997 H 0.41206 0.88465 0.24582 0.0
C998 C 0.56488 0.33575 0.80036 0.0
C999 C 0.57154 0.31306 0.8487 0.0
C1000 C 0.61539 0.35111 0.88805 0.0
C1001 C 0.60885 0.37331 0.83945 0.0
N1002 N 0.57103 0.39263 0.76114 0.0
N1003 N 0.59517 0.30406 0.94825 0.0
C1004 C 0.5811 0.36775 0.80009 0.0
C1005 C 0.59435 0.3223 0.89577 0.0
N1006 N 0.54545 0.32583 0.75214 0.0
N1007 N 0.64213 0.35718 0.92574 0.0
H1008 H 0.57911 0.28357 0.95615 0.0
H1009 H 0.60918 0.31127 0.98615 0.0
H1010 H 0.65679 0.37912 0.92282 0.0
H1011 H 0.65062 0.33991 0.95785 0.0
H1012 H 0.54179 0.34058 0.71375 0.0
H1013 H 0.53555 0.30154 0.74715 0.0
H1014 H 0.54888 0.39127 0.73576 0.0
H1015 H 0.58308 0.41606 0.75822 0.0
C1016 C 0.67595 0.36381 0.27089 0.0
C1017 C 0.68167 0.38439 0.21945 0.0
C1018 C 0.62828 0.36521 0.17429 0.0
C1019 C 0.62286 0.34434 0.22538 0.0
N1020 N 0.64429 0.31771 0.31577 0.0
N1021 N 0.66783 0.3994 0.11671 0.0
C1022 C 0.64775 0.34159 0.27142 0.0
C1023 C 0.65921 0.38345 0.1693 0.0
N1024 N 0.69686 0.36637 0.32011 0.0
N1025 N 0.60348 0.36822 0.13157 0.0
H1026 H 0.69022 0.41312 0.11201 0.0
H1027 H 0.65421 0.39692 0.07656 0.0
H1028 H 0.58132 0.35389 0.13286 0.0
H1029 H 0.60412 0.38588 0.0967 0.0
H1030 H 0.69176 0.3552 0.36178 0.0
H1031 H 0.71828 0.3818 0.32097 0.0
H1032 H 0.66313 0.31204 0.34702 0.0
H1033 H 0.62356 0.30147 0.31854 0.0
C1034 C 0.09492 0.67723 0.74578 0.0
C1035 C 0.08853 0.68772 0.6857 0.0
C1036 C 0.11952 0.63848 0.6462 0.0
C1037 C 0.12304 0.6265 0.70644 0.0
N1038 N 0.10663 0.63039 0.812 0.0
N1039 N 0.09087 0.67724 0.57806 0.0
C1040 C 0.10859 0.64472 0.75579 0.0
C1041 C 0.09971 0.66802 0.63553 0.0
N1042 N 0.08904 0.69882 0.79341 0.0
N1043 N 0.13614 0.62252 0.59982 0.0
H1044 H 0.07697 0.6991 0.56895 0.0
H1045 H 0.09525 0.66215 0.53997 0.0
H1046 H 0.15086 0.60091 0.60621 0.0
H1047 H 0.13741 0.63201 0.55592 0.0
H1048 H 0.0969 0.6938 0.83755 0.0
H1049 H 0.07913 0.72312 0.78816 0.0
H1050 H 0.09317 0.64116 0.84787 0.0
H1051 H 0.11532 0.60605 0.82113 0.0
C1052 C 0.81351 0.0919 0.16172 0.0
C1053 C 0.804 0.07132 0.21181 0.0
C1054 C 0.8572 0.08605 0.26214 0.0
C1055 C 0.86313 0.11139 0.21813 0.0
N1056 N 0.84734 0.13915 0.12566 0.0
N1057 N 0.81507 0.05307 0.31452 0.0
C1058 C 0.84162 0.11429 0.16729 0.0
C1059 C 0.82564 0.06901 0.263 0.0
N1060 N 0.79601 0.0895 0.1086 0.0
N1061 N 0.88172 0.07853 0.30355 0.0
H1062 H 0.7912 0.04231 0.31917 0.0
H1063 H 0.82861 0.0536 0.355 0.0
H1064 H 0.90521 0.0906 0.30394 0.0
H1065 H 0.88001 0.05821 0.33337 0.0
H1066 H 0.8033 0.10152 0.06876 0.0
H1067 H 0.776 0.07266 0.10303 0.0
H1068 H 0.83043 0.14515 0.09118 0.0
H1069 H 0.8684 0.15505 0.1277 0.0
C1070 C 0.39648 0.86835 0.70247 0.0
C1071 C 0.36892 0.873 0.66247 0.0
C1072 C 0.38332 0.82025 0.61016 0.0
C1073 C 0.40585 0.81218 0.6582 0.0
N1074 N 0.43156 0.82767 0.7541 0.0
N1075 N 0.3359 0.85462 0.57708 0.0
C1076 C 0.4125 0.83628 0.70482 0.0
C1077 C 0.36252 0.8495 0.61532 0.0
N1078 N 0.40648 0.89432 0.73967 0.0
N1079 N 0.38222 0.80016 0.55951 0.0
H1080 H 0.32137 0.87669 0.57854 0.0
H1081 H 0.32742 0.83656 0.54601 0.0
H1082 H 0.39791 0.77912 0.55383 0.0
H1083 H 0.36832 0.80615 0.52096 0.0
H1084 H 0.42832 0.8935 0.76596 0.0
H1085 H 0.39475 0.918 0.73966 0.0
H1086 H 0.43444 0.84322 0.79205 0.0
H1087 H 0.44188 0.8037 0.76031 0.0
C1088 C 0.82864 0.35257 0.67753 0.0
C1089 C 0.85526 0.35853 0.71883 0.0
C1090 C 0.82205 0.40245 0.77039 0.0
C1091 C 0.79538 0.39705 0.72838 0.0
N1092 N 0.77785 0.37462 0.63098 0.0
N1093 N 0.88156 0.39526 0.79268 0.0
C1094 C 0.80001 0.37437 0.67851 0.0
C1095 C 0.85341 0.3858 0.76089 0.0
N1096 N 0.83037 0.32566 0.63846 0.0
N1097 N 0.81683 0.42148 0.82157 0.0
H1098 H 0.9049 0.38337 0.78701 0.0
H1099 H 0.88261 0.41682 0.82007 0.0
H1100 H 0.79364 0.43237 0.83265 0.0
H1101 H 0.83447 0.42372 0.85636 0.0
H1102 H 0.81004 0.31758 0.61209 0.0
H1103 H 0.8518 0.31035 0.63497 0.0
H1104 H 0.7817 0.36084 0.59115 0.0
H1105 H 0.75755 0.39139 0.62845 0.0
C1106 C 0.12664 0.83554 0.14125 0.0
C1107 C 0.12113 0.85901 0.18887 0.0
C1108 C 0.07752 0.82253 0.2324 0.0
C1109 C 0.08224 0.79916 0.18388 0.0
N1110 N 0.10448 0.78799 0.08364 0.0
N1111 N 0.08496 0.88012 0.2685 0.0
C1112 C 0.10479 0.80703 0.13559 0.0
C1113 C 0.09426 0.85426 0.23048 0.0
N1114 N 0.15323 0.84002 0.1026 0.0
N1115 N 0.05907 0.81367 0.28237 0.0
H1116 H 0.09684 0.90375 0.26827 0.0
H1117 H 0.06357 0.87924 0.296 0.0
H1118 H 0.0479 0.78996 0.28779 0.0
H1119 H 0.05763 0.82861 0.32138 0.0
H1120 H 0.16096 0.82177 0.07122 0.0
H1121 H 0.16872 0.86142 0.10435 0.0
H1122 H 0.11817 0.7943 0.04496 0.0
H1123 H 0.0879 0.76775 0.07692 0.0
C1124 C 0.65643 0.08619 0.77305 0.0
C1125 C 0.68178 0.09462 0.72978 0.0
C1126 C 0.64926 0.14521 0.70112 0.0
C1127 C 0.62352 0.13565 0.7421 0.0
N1128 N 0.59822 0.09267 0.80489 0.0
N1129 N 0.69714 0.12681 0.64091 0.0
C1130 C 0.62563 0.10457 0.77371 0.0
C1131 C 0.67673 0.12264 0.69033 0.0
N1132 N 0.66241 0.06232 0.81644 0.0
N1133 N 0.64773 0.17597 0.67317 0.0
H1134 H 0.71622 0.10974 0.62932 0.0
H1135 H 0.69279 0.145 0.60777 0.0
H1136 H 0.62724 0.19238 0.67836 0.0
H1137 H 0.66765 0.18602 0.64813 0.0
H1138 H 0.64608 0.05782 0.85255 0.0
H1139 H 0.68506 0.04926 0.8205 0.0
H1140 H 0.5971 0.0684 0.82316 0.0
H1141 H 0.57542 0.10582 0.80799 0.0
C1142 C 0.4002 0.6562 0.22832 0.0
C1143 C 0.39574 0.67693 0.17662 0.0
C1144 C 0.35496 0.63615 0.13478 0.0
C1145 C 0.36059 0.61504 0.18548 0.0
N1146 N 0.39446 0.60051 0.27249 0.0
N1147 N 0.37473 0.68355 0.07465 0.0
C1148 C 0.38541 0.62352 0.22929 0.0
C1149 C 0.37481 0.666 0.1279 0.0
N1150 N 0.41644 0.66864 0.27844 0.0
N1151 N 0.33022 0.62796 0.09405 0.0
H1152 H 0.38936 0.7052 0.06784 0.0
H1153 H 0.36253 0.67511 0.03557 0.0
H1154 H 0.31655 0.60537 0.09645 0.0
H1155 H 0.32217 0.64414 0.05984 0.0
H1156 H 0.41735 0.65588 0.31957 0.0
H1157 H 0.42608 0.6932 0.28125 0.0
H1158 H 0.41485 0.60403 0.30169 0.0
H1159 H 0.38348 0.57656 0.27584 0.0
C1160 C 0.34177 0.62343 0.83474 0.0
C1161 C 0.34709 0.64005 0.77843 0.0
C1162 C 0.30168 0.60592 0.73244 0.0
C1163 C 0.29496 0.59103 0.78935 0.0
N1164 N 0.3044 0.58929 0.89713 0.0
N1165 N 0.3236 0.65406 0.67933 0.0
C1166 C 0.31379 0.60089 0.84133 0.0
C1167 C 0.32463 0.63342 0.72892 0.0
N1168 N 0.36317 0.62957 0.88218 0.0
N1169 N 0.28576 0.59419 0.68135 0.0
H1170 H 0.3374 0.67614 0.67458 0.0
H1171 H 0.30537 0.65197 0.64549 0.0
H1172 H 0.26713 0.57552 0.68167 0.0
H1173 H 0.29297 0.60104 0.63767 0.0
H1174 H 0.36335 0.61531 0.92176 0.0
H1175 H 0.38169 0.64838 0.88118 0.0
H1176 H 0.31458 0.59823 0.9377 0.0
H1177 H 0.28465 0.57212 0.90313 0.0
C1178 C 0.87418 0.33857 0.25199 0.0
C1179 C 0.85981 0.35468 0.30364 0.0
C1180 C 0.88646 0.31255 0.3692 0.0
C1181 C 0.89655 0.29421 0.31667 0.0
N1182 N 0.89439 0.28623 0.20818 0.0
N1183 N 0.84976 0.3561 0.41141 0.0
C1184 C 0.88887 0.30622 0.25807 0.0
C1185 C 0.8655 0.34166 0.36254 0.0
N1186 N 0.87479 0.35474 0.19735 0.0
N1187 N 0.89704 0.30221 0.42508 0.0
H1188 H 0.83445 0.37751 0.40787 0.0
H1189 H 0.85002 0.34566 0.45465 0.0
H1190 H 0.91182 0.2806 0.43125 0.0
H1191 H 0.89328 0.31624 0.46463 0.0
H1192 H 0.88782 0.34544 0.1597 0.0
H1193 H 0.86554 0.37924 0.19162 0.0
H1194 H 0.88556 0.29234 0.16509 0.0
H1195 H 0.90527 0.26219 0.2105 0.0
C1196 C 0.14886 0.85508 0.83052 0.0
C1197 C 0.12499 0.86098 0.78402 0.0
C1198 C 0.16293 0.90206 0.73672 0.0
C1199 C 0.18639 0.89764 0.78442 0.0
N1200 N 0.19882 0.87522 0.88362 0.0
N1201 N 0.10488 0.89729 0.70438 0.0
C1202 C 0.17849 0.87571 0.8336 0.0
C1203 C 0.13061 0.88696 0.74111 0.0
N1204 N 0.14373 0.82919 0.87028 0.0
N1205 N 0.17227 0.91846 0.68498 0.0
H1206 H 0.08064 0.88692 0.7067 0.0
H1207 H 0.10674 0.91861 0.67691 0.0
H1208 H 0.19646 0.92826 0.6784 0.0
H1209 H 0.15727 0.91889 0.64615 0.0
H1210 H 0.16188 0.82107 0.90111 0.0
H1211 H 0.12168 0.81465 0.87009 0.0
H1212 H 0.19278 0.86223 0.92314 0.0
H1213 H 0.22043 0.89022 0.88756 0.0
C1214 C 0.61249 0.1271 0.37411 0.0
C1215 C 0.63915 0.12494 0.33094 0.0
C1216 C 0.62804 0.18403 0.30294 0.0
C1217 C 0.59737 0.18307 0.33557 0.0
N1218 N 0.55849 0.15243 0.39929 0.0
N1219 N 0.66845 0.15226 0.24589 0.0
C1220 C 0.58907 0.15433 0.37074 0.0
C1221 C 0.64623 0.15367 0.29339 0.0
N1222 N 0.61025 0.10391 0.4197 0.0
N1223 N 0.6405 0.2142 0.28225 0.0
H1224 H 0.68358 0.13186 0.23447 0.0
H1225 H 0.66983 0.17126 0.21331 0.0
H1226 H 0.62849 0.23737 0.28973 0.0
H1227 H 0.66466 0.21663 0.26389 0.0
H1228 H 0.59294 0.10597 0.45516 0.0
H1229 H 0.62832 0.08503 0.42615 0.0
H1230 H 0.54986 0.1305 0.42038 0.0
H1231 H 0.54055 0.17174 0.39734 0.0
loop_
_geom_bond_atom_site_label_1
_geom_bond_atom_site_label_2
_geom_bond_distance
_geom_bond_site_symmetry_2
_ccdc_geom_bond_type
O0 Zn1 1.953 . S
O0 C16 1.225 . S
Zn1 O0 1.953 . S
Zn1 O2 1.949 . S
Zn1 O8 1.919 . S
Zn1 O13 1.924 . S
O2 Zn1 1.949 . S
O2 Zn3 1.923 . S
O2 Zn4 1.950 . S
O2 Zn5 1.945 . S
Zn3 O2 1.923 . S
Zn3 O6 1.933 . S
Zn3 O9 1.941 . S
Zn3 O10 1.965 . S
Zn4 O2 1.950 . S
Zn4 O11 1.938 . S
Zn4 O12 1.906 . S
Zn4 O22 1.953 . S
Zn5 O2 1.945 . S
Zn5 O7 1.932 . S
Zn5 O14 1.977 . S
Zn5 O15 1.910 . S
O6 Zn3 1.933 . S
O6 C17 1.226 . S
O7 Zn5 1.932 . S
O7 C17 1.307 . S
O8 Zn1 1.919 . S
O8 C19 1.253 . S
O9 Zn3 1.941 . S
O9 C19 1.283 . S
O10 Zn3 1.965 . S
O10 C18 1.303 . S
O11 Zn4 1.938 . S
O11 C18 1.247 . S
O12 Zn4 1.906 . S
O12 C20 1.304 . S
O13 Zn1 1.924 . S
O13 C21 1.311 . S
O14 Zn5 1.977 . S
O14 C20 1.272 . S
O15 Zn5 1.910 . S
O15 C21 1.231 . S
C16 O0 1.225 . S
C16 O22 1.298 . S
C17 O6 1.226 . S
C17 O7 1.307 . S
C18 O10 1.303 . S
C18 O11 1.247 . S
C19 O8 1.253 . S
C19 O9 1.283 . S
C20 O12 1.304 . S
C20 O14 1.272 . S
C21 O13 1.311 . S
C21 O15 1.231 . S
O22 Zn4 1.953 . S
O22 C16 1.298 . S
O23 Zn24 1.953 . S
O23 C39 1.225 . S
Zn24 O23 1.953 . S
Zn24 O25 1.949 . S
Zn24 O31 1.919 . S
Zn24 O36 1.924 . S
O25 Zn24 1.949 . S
O25 Zn26 1.923 . S
O25 Zn27 1.950 . S
O25 Zn28 1.945 . S
Zn26 O25 1.923 . S
Zn26 O29 1.933 1_655 S
Zn26 O32 1.941 . S
Zn26 O33 1.965 1_655 S
Zn27 O25 1.950 . S
Zn27 O34 1.938 1_655 S
Zn27 O35 1.906 1_655 S
Zn27 O45 1.953 . S
Zn28 O25 1.945 . S
Zn28 O30 1.932 . S
Zn28 O37 1.977 1_655 S
Zn28 O38 1.910 . S
O29 Zn26 1.933 1_455 S
O29 C40 1.226 . S
O30 Zn28 1.932 . S
O30 C40 1.307 1_655 S
O31 Zn24 1.919 . S
O31 C42 1.253 . S
O32 Zn26 1.941 . S
O32 C42 1.283 . S
O33 Zn26 1.965 1_455 S
O33 C41 1.303 . S
O34 Zn27 1.938 1_455 S
O34 C41 1.247 . S
O35 Zn27 1.906 1_455 S
O35 C43 1.304 . S
O36 Zn24 1.924 . S
O36 C44 1.311 . S
O37 Zn28 1.977 1_455 S
O37 C43 1.272 . S
O38 Zn28 1.910 . S
O38 C44 1.231 . S
C39 O23 1.225 . S
C39 O45 1.298 . S
C40 O29 1.226 . S
C40 O30 1.307 1_455 S
C41 O33 1.303 . S
C41 O34 1.247 . S
C42 O31 1.253 . S
C42 O32 1.283 . S
C43 O35 1.304 . S
C43 O37 1.272 . S
C44 O36 1.311 . S
C44 O38 1.231 . S
O45 Zn27 1.953 . S
O45 C39 1.298 . S
O46 Zn47 1.953 . S
O46 C62 1.225 . S
Zn47 O46 1.953 . S
Zn47 O48 1.949 . S
Zn47 O54 1.919 . S
Zn47 O59 1.924 . S
O48 Zn47 1.949 . S
O48 Zn49 1.923 . S
O48 Zn50 1.950 . S
O48 Zn51 1.945 . S
Zn49 O48 1.923 . S
Zn49 O52 1.933 1_565 S
Zn49 O55 1.941 . S
Zn49 O56 1.965 1_565 S
Zn50 O48 1.950 . S
Zn50 O57 1.938 1_565 S
Zn50 O58 1.906 1_565 S
Zn50 O68 1.953 . S
Zn51 O48 1.945 . S
Zn51 O53 1.932 . S
Zn51 O60 1.977 1_565 S
Zn51 O61 1.910 . S
O52 Zn49 1.933 1_545 S
O52 C63 1.226 . S
O53 Zn51 1.932 . S
O53 C63 1.307 1_565 S
O54 Zn47 1.919 . S
O54 C65 1.253 . S
O55 Zn49 1.941 . S
O55 C65 1.283 . S
O56 Zn49 1.965 1_545 S
O56 C64 1.303 . S
O57 Zn50 1.938 1_545 S
O57 C64 1.247 . S
O58 Zn50 1.906 1_545 S
O58 C66 1.304 . S
O59 Zn47 1.924 . S
O59 C67 1.311 . S
O60 Zn51 1.977 1_545 S
O60 C66 1.272 . S
O61 Zn51 1.910 . S
O61 C67 1.231 . S
C62 O46 1.225 . S
C62 O68 1.298 . S
C63 O52 1.226 . S
C63 O53 1.307 1_545 S
C64 O56 1.303 . S
C64 O57 1.247 . S
C65 O54 1.253 . S
C65 O55 1.283 . S
C66 O58 1.304 . S
C66 O60 1.272 . S
C67 O59 1.311 . S
C67 O61 1.231 . S
O68 Zn50 1.953 . S
O68 C62 1.298 . S
O69 Zn70 1.953 . S
O69 C85 1.225 . S
Zn70 O69 1.953 . S
Zn70 O71 1.949 . S
Zn70 O77 1.919 . S
Zn70 O82 1.924 . S
O71 Zn70 1.949 . S
O71 Zn72 1.923 . S
O71 Zn73 1.950 . S
O71 Zn74 1.945 . S
Zn72 O71 1.923 . S
Zn72 O75 1.933 . S
Zn72 O78 1.941 . S
Zn72 O79 1.965 . S
Zn73 O71 1.950 . S
Zn73 O80 1.938 . S
Zn73 O81 1.906 . S
Zn73 O91 1.953 . S
Zn74 O71 1.945 . S
Zn74 O76 1.932 . S
Zn74 O83 1.977 . S
Zn74 O84 1.910 . S
O75 Zn72 1.933 . S
O75 C86 1.226 . S
O76 Zn74 1.932 . S
O76 C86 1.307 . S
O77 Zn70 1.919 . S
O77 C88 1.253 . S
O78 Zn72 1.941 . S
O78 C88 1.283 . S
O79 Zn72 1.965 . S
O79 C87 1.303 . S
O80 Zn73 1.938 . S
O80 C87 1.247 . S
O81 Zn73 1.906 . S
O81 C89 1.304 . S
O82 Zn70 1.924 . S
O82 C90 1.311 . S
O83 Zn74 1.977 . S
O83 C89 1.272 . S
O84 Zn74 1.910 . S
O84 C90 1.231 . S
C85 O69 1.225 . S
C85 O91 1.298 . S
C86 O75 1.226 . S
C86 O76 1.307 . S
C87 O79 1.303 . S
C87 O80 1.247 . S
C88 O77 1.253 . S
C88 O78 1.283 . S
C89 O81 1.304 . S
C89 O83 1.272 . S
C90 O82 1.311 . S
C90 O84 1.231 . S
O91 Zn73 1.953 . S
O91 C85 1.298 . S
O92 Zn93 1.953 . S
O92 C108 1.225 . S
Zn93 O92 1.953 . S
Zn93 O94 1.949 . S
Zn93 O100 1.919 . S
Zn93 O105 1.924 . S
O94 Zn93 1.949 . S
O94 Zn95 1.923 . S
O94 Zn96 1.950 . S
O94 Zn97 1.945 . S
Zn95 O94 1.923 . S
Zn95 O98 1.933 . S
Zn95 O101 1.941 . S
Zn95 O102 1.965 . S
Zn96 O94 1.950 . S
Zn96 O103 1.938 . S
Zn96 O104 1.906 . S
Zn96 O114 1.953 . S
Zn97 O94 1.945 . S
Zn97 O99 1.932 . S
Zn97 O106 1.977 . S
Zn97 O107 1.910 . S
O98 Zn95 1.933 . S
O98 C109 1.226 . S
O99 Zn97 1.932 . S
O99 C109 1.307 . S
O100 Zn93 1.919 . S
O100 C111 1.253 . S
O101 Zn95 1.941 . S
O101 C111 1.283 . S
O102 Zn95 1.965 . S
O102 C110 1.303 . S
O103 Zn96 1.938 . S
O103 C110 1.247 . S
O104 Zn96 1.906 . S
O104 C112 1.304 . S
O105 Zn93 1.924 . S
O105 C113 1.311 . S
O106 Zn97 1.977 . S
O106 C112 1.272 . S
O107 Zn97 1.910 . S
O107 C113 1.231 . S
C108 O92 1.225 . S
C108 O114 1.298 . S
C109 O98 1.226 . S
C109 O99 1.307 . S
C110 O102 1.303 . S
C110 O103 1.247 . S
C111 O100 1.253 . S
C111 O101 1.283 . S
C112 O104 1.304 . S
C112 O106 1.272 . S
C113 O105 1.311 . S
C113 O107 1.231 . S
O114 Zn96 1.953 . S
O114 C108 1.298 . S
O115 Zn116 1.953 . S
O115 C131 1.225 . S
Zn116 O115 1.953 . S
Zn116 O117 1.949 . S
Zn116 O123 1.919 . S
Zn116 O128 1.924 . S
O117 Zn116 1.949 . S
O117 Zn118 1.923 . S
O117 Zn119 1.950 . S
O117 Zn120 1.945 . S
Zn118 O117 1.923 . S
Zn118 O121 1.933 1_455 S
Zn118 O124 1.941 . S
Zn118 O125 1.965 1_455 S
Zn119 O117 1.950 . S
Zn119 O126 1.938 1_455 S
Zn119 O127 1.906 1_455 S
Zn119 O137 1.953 . S
Zn120 O117 1.945 . S
Zn120 O122 1.932 . S
Zn120 O129 1.977 1_455 S
Zn120 O130 1.910 . S
O121 Zn118 1.933 1_655 S
O121 C132 1.226 . S
O122 Zn120 1.932 . S
O122 C132 1.307 1_455 S
O123 Zn116 1.919 . S
O123 C134 1.253 . S
O124 Zn118 1.941 . S
O124 C134 1.283 . S
O125 Zn118 1.965 1_655 S
O125 C133 1.303 . S
O126 Zn119 1.938 1_655 S
O126 C133 1.247 . S
O127 Zn119 1.906 1_655 S
O127 C135 1.304 . S
O128 Zn116 1.924 . S
O128 C136 1.311 . S
O129 Zn120 1.977 1_655 S
O129 C135 1.272 . S
O130 Zn120 1.910 . S
O130 C136 1.231 . S
C131 O115 1.225 . S
C131 O137 1.298 . S
C132 O121 1.226 . S
C132 O122 1.307 1_655 S
C133 O125 1.303 . S
C133 O126 1.247 . S
C134 O123 1.253 . S
C134 O124 1.283 . S
C135 O127 1.304 . S
C135 O129 1.272 . S
C136 O128 1.311 . S
C136 O130 1.231 . S
O137 Zn119 1.953 . S
O137 C131 1.298 . S
O138 Zn139 1.953 . S
O138 C154 1.225 . S
Zn139 O138 1.953 . S
Zn139 O140 1.949 . S
Zn139 O146 1.919 . S
Zn139 O151 1.924 . S
O140 Zn139 1.949 . S
O140 Zn141 1.923 . S
O140 Zn142 1.950 . S
O140 Zn143 1.945 . S
Zn141 O140 1.923 . S
Zn141 O144 1.933 1_545 S
Zn141 O147 1.941 . S
Zn141 O148 1.965 1_545 S
Zn142 O140 1.950 . S
Zn142 O149 1.938 1_545 S
Zn142 O150 1.906 1_545 S
Zn142 O160 1.953 . S
Zn143 O140 1.945 . S
Zn143 O145 1.932 . S
Zn143 O152 1.977 1_545 S
Zn143 O153 1.910 . S
O144 Zn141 1.933 1_565 S
O144 C155 1.226 . S
O145 Zn143 1.932 . S
O145 C155 1.307 1_545 S
O146 Zn139 1.919 . S
O146 C157 1.253 . S
O147 Zn141 1.941 . S
O147 C157 1.283 . S
O148 Zn141 1.965 1_565 S
O148 C156 1.303 . S
O149 Zn142 1.938 1_565 S
O149 C156 1.247 . S
O150 Zn142 1.906 1_565 S
O150 C158 1.304 . S
O151 Zn139 1.924 . S
O151 C159 1.311 . S
O152 Zn143 1.977 1_565 S
O152 C158 1.272 . S
O153 Zn143 1.910 . S
O153 C159 1.231 . S
C154 O138 1.225 . S
C154 O160 1.298 . S
C155 O144 1.226 . S
C155 O145 1.307 1_565 S
C156 O148 1.303 . S
C156 O149 1.247 . S
C157 O146 1.253 . S
C157 O147 1.283 . S
C158 O150 1.304 . S
C158 O152 1.272 . S
C159 O151 1.311 . S
C159 O153 1.231 . S
O160 Zn142 1.953 . S
O160 C154 1.298 . S
O161 Zn162 1.953 . S
O161 C177 1.225 . S
Zn162 O161 1.953 . S
Zn162 O163 1.949 . S
Zn162 O169 1.919 . S
Zn162 O174 1.924 . S
O163 Zn162 1.949 . S
O163 Zn164 1.923 . S
O163 Zn165 1.950 . S
O163 Zn166 1.945 . S
Zn164 O163 1.923 . S
Zn164 O167 1.933 . S
Zn164 O170 1.941 . S
Zn164 O171 1.965 . S
Zn165 O163 1.950 . S
Zn165 O172 1.938 . S
Zn165 O173 1.906 . S
Zn165 O183 1.953 . S
Zn166 O163 1.945 . S
Zn166 O168 1.932 . S
Zn166 O175 1.977 . S
Zn166 O176 1.910 . S
O167 Zn164 1.933 . S
O167 C178 1.226 . S
O168 Zn166 1.932 . S
O168 C178 1.307 . S
O169 Zn162 1.919 . S
O169 C180 1.253 . S
O170 Zn164 1.941 . S
O170 C180 1.283 . S
O171 Zn164 1.965 . S
O171 C179 1.303 . S
O172 Zn165 1.938 . S
O172 C179 1.247 . S
O173 Zn165 1.906 . S
O173 C181 1.304 . S
O174 Zn162 1.924 . S
O174 C182 1.311 . S
O175 Zn166 1.977 . S
O175 C181 1.272 . S
O176 Zn166 1.910 . S
O176 C182 1.231 . S
C177 O161 1.225 . S
C177 O183 1.298 . S
C178 O167 1.226 . S
C178 O168 1.307 . S
C179 O171 1.303 . S
C179 O172 1.247 . S
C180 O169 1.253 . S
C180 O170 1.283 . S
C181 O173 1.304 . S
C181 O175 1.272 . S
C182 O174 1.311 . S
C182 O176 1.231 . S
O183 Zn165 1.953 . S
O183 C177 1.298 . S
O184 Zn185 1.953 . S
O184 C200 1.225 . S
Zn185 O184 1.953 . S
Zn185 O186 1.949 . S
Zn185 O192 1.919 . S
Zn185 O197 1.924 . S
O186 Zn185 1.949 . S
O186 Zn187 1.923 . S
O186 Zn188 1.950 . S
O186 Zn189 1.945 . S
Zn187 O186 1.923 . S
Zn187 O190 1.933 . S
Zn187 O193 1.941 . S
Zn187 O194 1.965 . S
Zn188 O186 1.950 . S
Zn188 O195 1.938 . S
Zn188 O196 1.906 . S
Zn188 O206 1.953 . S
Zn189 O186 1.945 . S
Zn189 O191 1.932 . S
Zn189 O198 1.977 . S
Zn189 O199 1.910 . S
O190 Zn187 1.933 . S
O190 C201 1.226 . S
O191 Zn189 1.932 . S
O191 C201 1.307 . S
O192 Zn185 1.919 . S
O192 C203 1.253 . S
O193 Zn187 1.941 . S
O193 C203 1.283 . S
O194 Zn187 1.965 . S
O194 C202 1.303 . S
O195 Zn188 1.938 . S
O195 C202 1.247 . S
O196 Zn188 1.906 . S
O196 C204 1.304 . S
O197 Zn185 1.924 . S
O197 C205 1.311 . S
O198 Zn189 1.977 . S
O198 C204 1.272 . S
O199 Zn189 1.910 . S
O199 C205 1.231 . S
C200 O184 1.225 . S
C200 O206 1.298 . S
C201 O190 1.226 . S
C201 O191 1.307 . S
C202 O194 1.303 . S
C202 O195 1.247 . S
C203 O192 1.253 . S
C203 O193 1.283 . S
C204 O196 1.304 . S
C204 O198 1.272 . S
C205 O197 1.311 . S
C205 O199 1.231 . S
O206 Zn188 1.953 . S
O206 C200 1.298 . S
O207 Zn208 1.953 . S
O207 C223 1.225 . S
Zn208 O207 1.953 . S
Zn208 O209 1.949 . S
Zn208 O215 1.919 . S
Zn208 O220 1.924 . S
O209 Zn208 1.949 . S
O209 Zn210 1.923 . S
O209 Zn211 1.950 . S
O209 Zn212 1.945 . S
Zn210 O209 1.923 . S
Zn210 O213 1.933 1_455 S
Zn210 O216 1.941 . S
Zn210 O217 1.965 1_455 S
Zn211 O209 1.950 . S
Zn211 O218 1.938 1_455 S
Zn211 O219 1.906 1_455 S
Zn211 O229 1.953 . S
Zn212 O209 1.945 . S
Zn212 O214 1.932 . S
Zn212 O221 1.977 1_455 S
Zn212 O222 1.910 . S
O213 Zn210 1.933 1_655 S
O213 C224 1.226 . S
O214 Zn212 1.932 . S
O214 C224 1.307 1_455 S
O215 Zn208 1.919 . S
O215 C226 1.253 . S
O216 Zn210 1.941 . S
O216 C226 1.283 . S
O217 Zn210 1.965 1_655 S
O217 C225 1.303 . S
O218 Zn211 1.938 1_655 S
O218 C225 1.247 . S
O219 Zn211 1.906 1_655 S
O219 C227 1.304 . S
O220 Zn208 1.924 . S
O220 C228 1.311 . S
O221 Zn212 1.977 1_655 S
O221 C227 1.272 . S
O222 Zn212 1.910 . S
O222 C228 1.231 . S
C223 O207 1.225 . S
C223 O229 1.298 . S
C224 O213 1.226 . S
C224 O214 1.307 1_655 S
C225 O217 1.303 . S
C225 O218 1.247 . S
C226 O215 1.253 . S
C226 O216 1.283 . S
C227 O219 1.304 . S
C227 O221 1.272 . S
C228 O220 1.311 . S
C228 O222 1.231 . S
O229 Zn211 1.953 . S
O229 C223 1.298 . S
O230 Zn231 1.953 . S
O230 C246 1.225 . S
Zn231 O230 1.953 . S
Zn231 O232 1.949 . S
Zn231 O238 1.919 . S
Zn231 O243 1.924 . S
O232 Zn231 1.949 . S
O232 Zn233 1.923 . S
O232 Zn234 1.950 . S
O232 Zn235 1.945 . S
Zn233 O232 1.923 . S
Zn233 O236 1.933 1_545 S
Zn233 O239 1.941 . S
Zn233 O240 1.965 1_545 S
Zn234 O232 1.950 . S
Zn234 O241 1.938 1_545 S
Zn234 O242 1.906 1_545 S
Zn234 O252 1.953 . S
Zn235 O232 1.945 . S
Zn235 O237 1.932 . S
Zn235 O244 1.977 1_545 S
Zn235 O245 1.910 . S
O236 Zn233 1.933 1_565 S
O236 C247 1.226 . S
O237 Zn235 1.932 . S
O237 C247 1.307 1_545 S
O238 Zn231 1.919 . S
O238 C249 1.253 . S
O239 Zn233 1.941 . S
O239 C249 1.283 . S
O240 Zn233 1.965 1_565 S
O240 C248 1.303 . S
O241 Zn234 1.938 1_565 S
O241 C248 1.247 . S
O242 Zn234 1.906 1_565 S
O242 C250 1.304 . S
O243 Zn231 1.924 . S
O243 C251 1.311 . S
O244 Zn235 1.977 1_565 S
O244 C250 1.272 . S
O245 Zn235 1.910 . S
O245 C251 1.231 . S
C246 O230 1.225 . S
C246 O252 1.298 . S
C247 O236 1.226 . S
C247 O237 1.307 1_565 S
C248 O240 1.303 . S
C248 O241 1.247 . S
C249 O238 1.253 . S
C249 O239 1.283 . S
C250 O242 1.304 . S
C250 O244 1.272 . S
C251 O243 1.311 . S
C251 O245 1.231 . S
O252 Zn234 1.953 . S
O252 C246 1.298 . S
O253 Zn254 1.953 . S
O253 C269 1.225 . S
Zn254 O253 1.953 . S
Zn254 O255 1.949 . S
Zn254 O261 1.919 . S
Zn254 O266 1.924 . S
O255 Zn254 1.949 . S
O255 Zn256 1.923 . S
O255 Zn257 1.950 . S
O255 Zn258 1.945 . S
Zn256 O255 1.923 . S
Zn256 O259 1.933 . S
Zn256 O262 1.941 . S
Zn256 O263 1.965 . S
Zn257 O255 1.950 . S
Zn257 O264 1.938 . S
Zn257 O265 1.906 . S
Zn257 O275 1.953 . S
Zn258 O255 1.945 . S
Zn258 O260 1.932 . S
Zn258 O267 1.977 . S
Zn258 O268 1.910 . S
O259 Zn256 1.933 . S
O259 C270 1.226 . S
O260 Zn258 1.932 . S
O260 C270 1.307 . S
O261 Zn254 1.919 . S
O261 C272 1.253 . S
O262 Zn256 1.941 . S
O262 C272 1.283 . S
O263 Zn256 1.965 . S
O263 C271 1.303 . S
O264 Zn257 1.938 . S
O264 C271 1.247 . S
O265 Zn257 1.906 . S
O265 C273 1.304 . S
O266 Zn254 1.924 . S
O266 C274 1.311 . S
O267 Zn258 1.977 . S
O267 C273 1.272 . S
O268 Zn258 1.910 . S
O268 C274 1.231 . S
C269 O253 1.225 . S
C269 O275 1.298 . S
C270 O259 1.226 . S
C270 O260 1.307 . S
C271 O263 1.303 . S
C271 O264 1.247 . S
C272 O261 1.253 . S
C272 O262 1.283 . S
C273 O265 1.304 . S
C273 O267 1.272 . S
C274 O266 1.311 . S
C274 O268 1.231 . S
O275 Zn257 1.953 . S
O275 C269 1.298 . S
O276 Zn277 1.953 . S
O276 C292 1.225 . S
Zn277 O276 1.953 . S
Zn277 O278 1.949 . S
Zn277 O284 1.919 . S
Zn277 O289 1.924 . S
O278 Zn277 1.949 . S
O278 Zn279 1.923 . S
O278 Zn280 1.950 . S
O278 Zn281 1.945 . S
Zn279 O278 1.923 . S
Zn279 O282 1.933 . S
Zn279 O285 1.941 . S
Zn279 O286 1.965 . S
Zn280 O278 1.950 . S
Zn280 O287 1.938 . S
Zn280 O288 1.906 . S
Zn280 O298 1.953 . S
Zn281 O278 1.945 . S
Zn281 O283 1.932 . S
Zn281 O290 1.977 . S
Zn281 O291 1.910 . S
O282 Zn279 1.933 . S
O282 C293 1.226 . S
O283 Zn281 1.932 . S
O283 C293 1.307 . S
O284 Zn277 1.919 . S
O284 C295 1.253 . S
O285 Zn279 1.941 . S
O285 C295 1.283 . S
O286 Zn279 1.965 . S
O286 C294 1.303 . S
O287 Zn280 1.938 . S
O287 C294 1.247 . S
O288 Zn280 1.906 . S
O288 C296 1.304 . S
O289 Zn277 1.924 . S
O289 C297 1.311 . S
O290 Zn281 1.977 . S
O290 C296 1.272 . S
O291 Zn281 1.910 . S
O291 C297 1.231 . S
C292 O276 1.225 . S
C292 O298 1.298 . S
C293 O282 1.226 . S
C293 O283 1.307 . S
C294 O286 1.303 . S
C294 O287 1.247 . S
C295 O284 1.253 . S
C295 O285 1.283 . S
C296 O288 1.304 . S
C296 O290 1.272 . S
C297 O289 1.311 . S
C297 O291 1.231 . S
O298 Zn280 1.953 . S
O298 C292 1.298 . S
O299 Zn300 1.953 . S
O299 C315 1.225 . S
Zn300 O299 1.953 . S
Zn300 O301 1.949 . S
Zn300 O307 1.919 . S
Zn300 O312 1.924 . S
O301 Zn300 1.949 . S
O301 Zn302 1.923 . S
O301 Zn303 1.950 . S
O301 Zn304 1.945 . S
Zn302 O301 1.923 . S
Zn302 O305 1.933 1_655 S
Zn302 O308 1.941 . S
Zn302 O309 1.965 1_655 S
Zn303 O301 1.950 . S
Zn303 O310 1.938 1_655 S
Zn303 O311 1.906 1_655 S
Zn303 O321 1.953 . S
Zn304 O301 1.945 . S
Zn304 O306 1.932 . S
Zn304 O313 1.977 1_655 S
Zn304 O314 1.910 . S
O305 Zn302 1.933 1_455 S
O305 C316 1.226 . S
O306 Zn304 1.932 . S
O306 C316 1.307 1_655 S
O307 Zn300 1.919 . S
O307 C318 1.253 . S
O308 Zn302 1.941 . S
O308 C318 1.283 . S
O309 Zn302 1.965 1_455 S
O309 C317 1.303 . S
O310 Zn303 1.938 1_455 S
O310 C317 1.247 . S
O311 Zn303 1.906 1_455 S
O311 C319 1.304 . S
O312 Zn300 1.924 . S
O312 C320 1.311 . S
O313 Zn304 1.977 1_455 S
O313 C319 1.272 . S
O314 Zn304 1.910 . S
O314 C320 1.231 . S
C315 O299 1.225 . S
C315 O321 1.298 . S
C316 O305 1.226 . S
C316 O306 1.307 1_455 S
C317 O309 1.303 . S
C317 O310 1.247 . S
C318 O307 1.253 . S
C318 O308 1.283 . S
C319 O311 1.304 . S
C319 O313 1.272 . S
C320 O312 1.311 . S
C320 O314 1.231 . S
O321 Zn303 1.953 . S
O321 C315 1.298 . S
O322 Zn323 1.953 . S
O322 C338 1.225 . S
Zn323 O322 1.953 . S
Zn323 O324 1.949 . S
Zn323 O330 1.919 . S
Zn323 O335 1.924 . S
O324 Zn323 1.949 . S
O324 Zn325 1.923 . S
O324 Zn326 1.950 . S
O324 Zn327 1.945 . S
Zn325 O324 1.923 . S
Zn325 O328 1.933 1_565 S
Zn325 O331 1.941 . S
Zn325 O332 1.965 1_565 S
Zn326 O324 1.950 . S
Zn326 O333 1.938 1_565 S
Zn326 O334 1.906 1_565 S
Zn326 O344 1.953 . S
Zn327 O324 1.945 . S
Zn327 O329 1.932 . S
Zn327 O336 1.977 1_565 S
Zn327 O337 1.910 . S
O328 Zn325 1.933 1_545 S
O328 C339 1.226 . S
O329 Zn327 1.932 . S
O329 C339 1.307 1_565 S
O330 Zn323 1.919 . S
O330 C341 1.253 . S
O331 Zn325 1.941 . S
O331 C341 1.283 . S
O332 Zn325 1.965 1_545 S
O332 C340 1.303 . S
O333 Zn326 1.938 1_545 S
O333 C340 1.247 . S
O334 Zn326 1.906 1_545 S
O334 C342 1.304 . S
O335 Zn323 1.924 . S
O335 C343 1.311 . S
O336 Zn327 1.977 1_545 S
O336 C342 1.272 . S
O337 Zn327 1.910 . S
O337 C343 1.231 . S
C338 O322 1.225 . S
C338 O344 1.298 . S
C339 O328 1.226 . S
C339 O329 1.307 1_545 S
C340 O332 1.303 . S
C340 O333 1.247 . S
C341 O330 1.253 . S
C341 O331 1.283 . S
C342 O334 1.304 . S
C342 O336 1.272 . S
C343 O335 1.311 . S
C343 O337 1.231 . S
O344 Zn326 1.953 . S
O344 C338 1.298 . S
O345 Zn346 1.953 . S
O345 C361 1.225 . S
Zn346 O345 1.953 . S
Zn346 O347 1.949 . S
Zn346 O353 1.919 . S
Zn346 O358 1.924 . S
O347 Zn346 1.949 . S
O347 Zn348 1.923 . S
O347 Zn349 1.950 . S
O347 Zn350 1.945 . S
Zn348 O347 1.923 . S
Zn348 O351 1.933 . S
Zn348 O354 1.941 . S
Zn348 O355 1.965 . S
Zn349 O347 1.950 . S
Zn349 O356 1.938 . S
Zn349 O357 1.906 . S
Zn349 O367 1.953 . S
Zn350 O347 1.945 . S
Zn350 O352 1.932 . S
Zn350 O359 1.977 . S
Zn350 O360 1.910 . S
O351 Zn348 1.933 . S
O351 C362 1.226 . S
O352 Zn350 1.932 . S
O352 C362 1.307 . S
O353 Zn346 1.919 . S
O353 C364 1.253 . S
O354 Zn348 1.941 . S
O354 C364 1.283 . S
O355 Zn348 1.965 . S
O355 C363 1.303 . S
O356 Zn349 1.938 . S
O356 C363 1.247 . S
O357 Zn349 1.906 . S
O357 C365 1.304 . S
O358 Zn346 1.924 . S
O358 C366 1.311 . S
O359 Zn350 1.977 . S
O359 C365 1.272 . S
O360 Zn350 1.910 . S
O360 C366 1.231 . S
C361 O345 1.225 . S
C361 O367 1.298 . S
C362 O351 1.226 . S
C362 O352 1.307 . S
C363 O355 1.303 . S
C363 O356 1.247 . S
C364 O353 1.253 . S
C364 O354 1.283 . S
C365 O357 1.304 . S
C365 O359 1.272 . S
C366 O358 1.311 . S
C366 O360 1.231 . S
O367 Zn349 1.953 . S
O367 C361 1.298 . S
C368 C369 1.363 . S
C368 C374 1.379 . S
C368 N376 1.356 . S
C369 C368 1.363 . S
C369 C375 1.363 . S
C370 C371 1.363 . S
C370 C375 1.379 . S
C370 N377 1.356 . S
C371 C370 1.363 . S
C371 C374 1.363 . S
N372 C374 1.356 . S
N372 H384 0.984 . S
N372 H385 0.985 . S
N373 C375 1.356 . S
N373 H378 0.984 . S
N373 H379 0.985 . S
C374 C368 1.379 . S
C374 C371 1.363 . S
C374 N372 1.356 . S
C375 C369 1.363 . S
C375 C370 1.379 . S
C375 N373 1.356 . S
N376 C368 1.356 . S
N376 H382 0.984 . S
N376 H383 0.984 . S
N377 C370 1.356 . S
N377 H380 0.984 . S
N377 H381 0.985 . S
H378 N373 0.984 . S
H379 N373 0.985 . S
H380 N377 0.984 . S
H381 N377 0.985 . S
H382 N376 0.984 . S
H383 N376 0.984 . S
H384 N372 0.984 . S
H385 N372 0.985 . S
C386 C387 1.363 1_556 S
C386 C392 1.379 . S
C386 N394 1.356 . S
C387 C386 1.363 1_554 S
C387 C393 1.363 . S
C388 C389 1.363 1_554 S
C388 C393 1.379 . S
C388 N395 1.356 . S
C389 C388 1.363 1_556 S
C389 C392 1.363 . S
N390 C392 1.356 . S
N390 H402 0.984 . S
N390 H403 0.985 . S
N391 C393 1.356 . S
N391 H396 0.984 . S
N391 H397 0.985 . S
C392 C386 1.379 . S
C392 C389 1.363 . S
C392 N390 1.356 . S
C393 C387 1.363 . S
C393 C388 1.379 . S
C393 N391 1.356 . S
N394 C386 1.356 . S
N394 H400 0.984 . S
N394 H401 0.984 . S
N395 C388 1.356 . S
N395 H398 0.984 . S
N395 H399 0.985 . S
H396 N391 0.984 . S
H397 N391 0.985 . S
H398 N395 0.984 . S
H399 N395 0.985 . S
H400 N394 0.984 . S
H401 N394 0.984 . S
H402 N390 0.984 . S
H403 N390 0.985 . S
C404 C405 1.363 . S
C404 C410 1.379 . S
C404 N412 1.356 . S
C405 C404 1.363 . S
C405 C411 1.363 . S
C406 C407 1.363 . S
C406 C411 1.379 . S
C406 N413 1.356 . S
C407 C406 1.363 . S
C407 C410 1.363 . S
N408 C410 1.356 . S
N408 H420 0.984 . S
N408 H421 0.985 . S
N409 C411 1.356 . S
N409 H414 0.984 . S
N409 H415 0.985 . S
C410 C404 1.379 . S
C410 C407 1.363 . S
C410 N408 1.356 . S
C411 C405 1.363 . S
C411 C406 1.379 . S
C411 N409 1.356 . S
N412 C404 1.356 . S
N412 H418 0.984 . S
N412 H419 0.984 . S
N413 C406 1.356 . S
N413 H416 0.984 . S
N413 H417 0.985 . S
H414 N409 0.984 . S
H415 N409 0.985 . S
H416 N413 0.984 . S
H417 N413 0.985 . S
H418 N412 0.984 . S
H419 N412 0.984 . S
H420 N408 0.984 . S
H421 N408 0.985 . S
C422 C423 1.363 . S
C422 C428 1.379 . S
C422 N430 1.356 . S
C423 C422 1.363 . S
C423 C429 1.363 1_556 S
C424 C425 1.363 . S
C424 C429 1.379 . S
C424 N431 1.356 . S
C425 C424 1.363 . S
C425 C428 1.363 1_554 S
N426 C428 1.356 . S
N426 H438 0.984 . S
N426 H439 0.985 . S
N427 C429 1.356 . S
N427 H432 0.984 . S
N427 H433 0.985 . S
C428 C422 1.379 . S
C428 C425 1.363 1_556 S
C428 N426 1.356 . S
C429 C423 1.363 1_554 S
C429 C424 1.379 . S
C429 N427 1.356 . S
N430 C422 1.356 . S
N430 H436 0.984 . S
N430 H437 0.984 . S
N431 C424 1.356 . S
N431 H434 0.984 . S
N431 H435 0.985 . S
H432 N427 0.984 . S
H433 N427 0.985 . S
H434 N431 0.984 . S
H435 N431 0.985 . S
H436 N430 0.984 . S
H437 N430 0.984 . S
H438 N426 0.984 . S
H439 N426 0.985 . S
C440 C441 1.363 . S
C440 C446 1.379 . S
C440 N448 1.356 . S
C441 C440 1.363 . S
C441 C447 1.363 . S
C442 C443 1.363 . S
C442 C447 1.379 . S
C442 N449 1.356 . S
C443 C442 1.363 . S
C443 C446 1.363 . S
N444 C446 1.356 . S
N444 H456 0.984 . S
N444 H457 0.985 . S
N445 C447 1.356 . S
N445 H450 0.984 . S
N445 H451 0.985 . S
C446 C440 1.379 . S
C446 C443 1.363 . S
C446 N444 1.356 . S
C447 C441 1.363 . S
C447 C442 1.379 . S
C447 N445 1.356 . S
N448 C440 1.356 . S
N448 H454 0.984 . S
N448 H455 0.984 . S
N449 C442 1.356 . S
N449 H452 0.984 . S
N449 H453 0.985 . S
H450 N445 0.984 . S
H451 N445 0.985 . S
H452 N449 0.984 . S
H453 N449 0.985 . S
H454 N448 0.984 . S
H455 N448 0.984 . S
H456 N444 0.984 . S
H457 N444 0.985 . S
C458 C459 1.363 . S
C458 C464 1.381 . S
C458 N466 1.356 . S
C459 C458 1.363 . S
C459 C465 1.363 . S
C460 C461 1.363 . S
C460 C465 1.379 1_554 S
C460 N467 1.356 . S
C461 C460 1.363 . S
C461 C464 1.361 1_554 S
N462 C464 1.356 1_554 S
N462 H474 0.984 1_554 S
N462 H475 0.985 . S
N463 C465 1.356 . S
N463 H468 0.984 . S
N463 H469 0.985 1_556 S
C464 C458 1.381 . S
C464 C461 1.361 1_556 S
C464 N462 1.356 1_556 S
C465 C459 1.363 . S
C465 C460 1.379 1_556 S
C465 N463 1.356 . S
N466 C458 1.356 . S
N466 H472 0.984 . S
N466 H473 0.984 . S
N467 C460 1.356 . S
N467 H470 0.984 . S
N467 H471 0.985 . S
H468 N463 0.984 . S
H469 N463 0.985 1_554 S
H470 N467 0.984 . S
H471 N467 0.985 . S
H472 N466 0.984 . S
H473 N466 0.984 . S
H474 N462 0.984 1_556 S
H475 N462 0.985 . S
C476 C477 1.363 . S
C476 C482 1.379 . S
C476 N484 1.356 . S
C477 C476 1.363 . S
C477 C483 1.363 . S
C478 C479 1.363 . S
C478 C483 1.379 . S
C478 N485 1.356 . S
C479 C478 1.363 . S
C479 C482 1.363 . S
N480 C482 1.356 . S
N480 H492 0.984 . S
N480 H493 0.985 . S
N481 C483 1.356 . S
N481 H486 0.984 . S
N481 H487 0.985 . S
C482 C476 1.379 . S
C482 C479 1.363 . S
C482 N480 1.356 . S
C483 C477 1.363 . S
C483 C478 1.379 . S
C483 N481 1.356 . S
N484 C476 1.356 . S
N484 H490 0.984 . S
N484 H491 0.984 . S
N485 C478 1.356 . S
N485 H488 0.984 . S
N485 H489 0.985 . S
H486 N481 0.984 . S
H487 N481 0.985 . S
H488 N485 0.984 . S
H489 N485 0.985 . S
H490 N484 0.984 . S
H491 N484 0.984 . S
H492 N480 0.984 . S
H493 N480 0.985 . S
C494 C495 1.363 . S
C494 C500 1.379 . S
C494 N502 1.356 . S
C495 C494 1.363 . S
C495 C501 1.363 1_556 S
C496 C497 1.363 . S
C496 C501 1.379 . S
C496 N503 1.356 . S
C497 C496 1.363 . S
C497 C500 1.363 1_554 S
N498 C500 1.356 . S
N498 H510 0.984 . S
N498 H511 0.985 . S
N499 C501 1.356 . S
N499 H504 0.984 . S
N499 H505 0.985 . S
C500 C494 1.379 . S
C500 C497 1.363 1_556 S
C500 N498 1.356 . S
C501 C495 1.363 1_554 S
C501 C496 1.379 . S
C501 N499 1.356 . S
N502 C494 1.356 . S
N502 H508 0.984 . S
N502 H509 0.984 . S
N503 C496 1.356 . S
N503 H506 0.984 . S
N503 H507 0.985 . S
H504 N499 0.984 . S
H505 N499 0.985 . S
H506 N503 0.984 . S
H507 N503 0.985 . S
H508 N502 0.984 . S
H509 N502 0.984 . S
H510 N498 0.984 . S
H511 N498 0.985 . S
C512 C513 1.363 . S
C512 C518 1.379 . S
C512 N520 1.356 . S
C513 C512 1.363 . S
C513 C519 1.363 . S
C514 C515 1.363 . S
C514 C519 1.379 . S
C514 N521 1.356 . S
C515 C514 1.363 . S
C515 C518 1.363 . S
N516 C518 1.356 . S
N516 H528 0.984 . S
N516 H529 0.985 . S
N517 C519 1.356 . S
N517 H522 0.984 . S
N517 H523 0.985 . S
C518 C512 1.379 . S
C518 C515 1.363 . S
C518 N516 1.356 . S
C519 C513 1.363 . S
C519 C514 1.379 . S
C519 N517 1.356 . S
N520 C512 1.356 . S
N520 H526 0.984 . S
N520 H527 0.984 . S
N521 C514 1.356 . S
N521 H524 0.984 . S
N521 H525 0.985 . S
H522 N517 0.984 . S
H523 N517 0.985 . S
H524 N521 0.984 . S
H525 N521 0.985 . S
H526 N520 0.984 . S
H527 N520 0.984 . S
H528 N516 0.984 . S
H529 N516 0.985 . S
C530 C531 1.363 . S
C530 C536 1.379 . S
C530 N538 1.356 . S
C531 C530 1.363 . S
C531 C537 1.363 . S
C532 C533 1.363 . S
C532 C537 1.379 . S
C532 N539 1.356 . S
C533 C532 1.363 . S
C533 C536 1.363 . S
N534 C536 1.356 . S
N534 H546 0.984 . S
N534 H547 0.985 . S
N535 C537 1.356 . S
N535 H540 0.984 . S
N535 H541 0.985 . S
C536 C530 1.379 . S
C536 C533 1.363 . S
C536 N534 1.356 . S
C537 C531 1.363 . S
C537 C532 1.379 . S
C537 N535 1.356 . S
N538 C530 1.356 . S
N538 H544 0.984 . S
N538 H545 0.984 . S
N539 C532 1.356 . S
N539 H542 0.984 . S
N539 H543 0.985 . S
H540 N535 0.984 . S
H541 N535 0.985 . S
H542 N539 0.984 . S
H543 N539 0.985 . S
H544 N538 0.984 . S
H545 N538 0.984 . S
H546 N534 0.984 . S
H547 N534 0.985 . S
C548 C549 1.363 . S
C548 C554 1.379 . S
C548 N556 1.356 . S
C549 C548 1.363 . S
C549 C555 1.363 . S
C550 C551 1.363 . S
C550 C555 1.379 . S
C550 N557 1.356 . S
C551 C550 1.363 . S
C551 C554 1.363 . S
N552 C554 1.356 . S
N552 H564 0.984 . S
N552 H565 0.985 . S
N553 C555 1.356 . S
N553 H558 0.984 . S
N553 H559 0.985 . S
C554 C548 1.379 . S
C554 C551 1.363 . S
C554 N552 1.356 . S
C555 C549 1.363 . S
C555 C550 1.379 . S
C555 N553 1.356 . S
N556 C548 1.356 . S
N556 H562 0.984 . S
N556 H563 0.984 . S
N557 C550 1.356 . S
N557 H560 0.984 . S
N557 H561 0.985 . S
H558 N553 0.984 . S
H559 N553 0.985 . S
H560 N557 0.984 . S
H561 N557 0.985 . S
H562 N556 0.984 . S
H563 N556 0.984 . S
H564 N552 0.984 . S
H565 N552 0.985 . S
C566 C567 1.363 . S
C566 C572 1.379 . S
C566 N574 1.356 . S
C567 C566 1.363 . S
C567 C573 1.363 . S
C568 C569 1.363 . S
C568 C573 1.379 . S
C568 N575 1.356 . S
C569 C568 1.363 . S
C569 C572 1.363 . S
N570 C572 1.356 . S
N570 H582 0.984 . S
N570 H583 0.985 . S
N571 C573 1.356 . S
N571 H576 0.984 . S
N571 H577 0.985 . S
C572 C566 1.379 . S
C572 C569 1.363 . S
C572 N570 1.356 . S
C573 C567 1.363 . S
C573 C568 1.379 . S
C573 N571 1.356 . S
N574 C566 1.356 . S
N574 H580 0.984 . S
N574 H581 0.984 . S
N575 C568 1.356 . S
N575 H578 0.984 . S
N575 H579 0.985 . S
H576 N571 0.984 . S
H577 N571 0.985 . S
H578 N575 0.984 . S
H579 N575 0.985 . S
H580 N574 0.984 . S
H581 N574 0.984 . S
H582 N570 0.984 . S
H583 N570 0.985 . S
C584 C585 1.363 . S
C584 C590 1.379 . S
C584 N592 1.356 . S
C585 C584 1.363 . S
C585 C591 1.363 . S
C586 C587 1.363 . S
C586 C591 1.379 . S
C586 N593 1.356 . S
C587 C586 1.363 . S
C587 C590 1.363 . S
N588 C590 1.356 . S
N588 H600 0.984 . S
N588 H601 0.985 . S
N589 C591 1.356 . S
N589 H594 0.984 . S
N589 H595 0.985 . S
C590 C584 1.379 . S
C590 C587 1.363 . S
C590 N588 1.356 . S
C591 C585 1.363 . S
C591 C586 1.379 . S
C591 N589 1.356 . S
N592 C584 1.356 . S
N592 H598 0.984 . S
N592 H599 0.984 . S
N593 C586 1.356 . S
N593 H596 0.984 . S
N593 H597 0.985 . S
H594 N589 0.984 . S
H595 N589 0.985 . S
H596 N593 0.984 . S
H597 N593 0.985 . S
H598 N592 0.984 . S
H599 N592 0.984 . S
H600 N588 0.984 . S
H601 N588 0.985 . S
C602 C603 1.363 . S
C602 C608 1.379 . S
C602 N610 1.356 . S
C603 C602 1.363 . S
C603 C609 1.363 . S
C604 C605 1.363 . S
C604 C609 1.379 . S
C604 N611 1.356 . S
C605 C604 1.363 . S
C605 C608 1.363 . S
N606 C608 1.356 . S
N606 H618 0.984 . S
N606 H619 0.985 . S
N607 C609 1.356 . S
N607 H612 0.984 . S
N607 H613 0.985 . S
C608 C602 1.379 . S
C608 C605 1.363 . S
C608 N606 1.356 . S
C609 C603 1.363 . S
C609 C604 1.379 . S
C609 N607 1.356 . S
N610 C602 1.356 . S
N610 H616 0.984 . S
N610 H617 0.984 . S
N611 C604 1.356 . S
N611 H614 0.984 . S
N611 H615 0.985 . S
H612 N607 0.984 . S
H613 N607 0.985 . S
H614 N611 0.984 . S
H615 N611 0.985 . S
H616 N610 0.984 . S
H617 N610 0.984 . S
H618 N606 0.984 . S
H619 N606 0.985 . S
C620 C621 1.363 . S
C620 C626 1.379 . S
C620 N628 1.356 . S
C621 C620 1.363 . S
C621 C627 1.363 . S
C622 C623 1.363 . S
C622 C627 1.379 . S
C622 N629 1.356 . S
C623 C622 1.363 . S
C623 C626 1.363 . S
N624 C626 1.356 . S
N624 H636 0.984 . S
N624 H637 0.985 . S
N625 C627 1.356 . S
N625 H630 0.984 . S
N625 H631 0.985 . S
C626 C620 1.379 . S
C626 C623 1.363 . S
C626 N624 1.356 . S
C627 C621 1.363 . S
C627 C622 1.379 . S
C627 N625 1.356 . S
N628 C620 1.356 . S
N628 H634 0.984 . S
N628 H635 0.984 . S
N629 C622 1.356 . S
N629 H632 0.984 . S
N629 H633 0.985 . S
H630 N625 0.984 . S
H631 N625 0.985 . S
H632 N629 0.984 . S
H633 N629 0.985 . S
H634 N628 0.984 . S
H635 N628 0.984 . S
H636 N624 0.984 . S
H637 N624 0.985 . S
C638 C639 1.363 . S
C638 C644 1.379 . S
C638 N646 1.356 . S
C639 C638 1.363 . S
C639 C645 1.363 . S
C640 C641 1.363 . S
C640 C645 1.379 . S
C640 N647 1.356 . S
C641 C640 1.363 . S
C641 C644 1.363 . S
N642 C644 1.356 . S
N642 H654 0.984 . S
N642 H655 0.985 . S
N643 C645 1.356 . S
N643 H648 0.984 . S
N643 H649 0.985 . S
C644 C638 1.379 . S
C644 C641 1.363 . S
C644 N642 1.356 . S
C645 C639 1.363 . S
C645 C640 1.379 . S
C645 N643 1.356 . S
N646 C638 1.356 . S
N646 H652 0.984 . S
N646 H653 0.984 . S
N647 C640 1.356 . S
N647 H650 0.984 . S
N647 H651 0.985 . S
H648 N643 0.984 . S
H649 N643 0.985 . S
H650 N647 0.984 . S
H651 N647 0.985 . S
H652 N646 0.984 . S
H653 N646 0.984 . S
H654 N642 0.984 . S
H655 N642 0.985 . S
C656 C657 1.363 1_554 S
C656 C662 1.379 . S
C656 N664 1.356 1_554 S
C657 C656 1.363 1_556 S
C657 C663 1.363 1_556 S
C658 C659 1.363 . S
C658 C663 1.379 . S
C658 N665 1.356 . S
C659 C658 1.363 . S
C659 C662 1.363 . S
N660 C662 1.356 . S
N660 H672 0.984 . S
N660 H673 0.985 . S
N661 C663 1.356 1_556 S
N661 H666 0.984 . S
N661 H667 0.985 . S
C662 C656 1.379 . S
C662 C659 1.363 . S
C662 N660 1.356 . S
C663 C657 1.363 1_554 S
C663 C658 1.379 . S
C663 N661 1.356 1_554 S
N664 C656 1.356 1_556 S
N664 H670 0.984 1_556 S
N664 H671 0.984 . S
N665 C658 1.356 . S
N665 H668 0.984 . S
N665 H669 0.985 . S
H666 N661 0.984 . S
H667 N661 0.985 . S
H668 N665 0.984 . S
H669 N665 0.985 . S
H670 N664 0.984 1_554 S
H671 N664 0.984 . S
H672 N660 0.984 . S
H673 N660 0.985 . S
C674 C675 1.363 . S
C674 C680 1.379 . S
C674 N682 1.356 . S
C675 C674 1.363 . S
C675 C681 1.363 . S
C676 C677 1.363 . S
C676 C681 1.379 . S
C676 N683 1.355 1_455 S
C677 C676 1.363 . S
C677 C680 1.363 . S
N678 C680 1.356 . S
N678 H690 0.984 . S
N678 H691 0.985 . S
N679 C681 1.356 1_655 S
N679 H684 0.984 . S
N679 H685 0.985 . S
C680 C674 1.379 . S
C680 C677 1.363 . S
C680 N678 1.356 . S
C681 C675 1.363 . S
C681 C676 1.379 . S
C681 N679 1.356 1_455 S
N682 C674 1.356 . S
N682 H688 0.984 . S
N682 H689 0.984 . S
N683 C676 1.355 1_655 S
N683 H686 0.984 1_655 S
N683 H687 0.986 . S
H684 N679 0.984 . S
H685 N679 0.985 . S
H686 N683 0.984 1_455 S
H687 N683 0.986 . S
H688 N682 0.984 . S
H689 N682 0.984 . S
H690 N678 0.984 . S
H691 N678 0.985 . S
C692 C693 1.363 1_554 S
C692 C698 1.379 . S
C692 N700 1.356 1_554 S
C693 C692 1.363 1_556 S
C693 C699 1.363 1_546 S
C694 C695 1.363 1_565 S
C694 C699 1.379 . S
C694 N701 1.356 . S
C695 C694 1.363 1_545 S
C695 C698 1.363 . S
N696 C698 1.356 . S
N696 H708 0.984 . S
N696 H709 0.985 . S
N697 C699 1.356 1_556 S
N697 H702 0.984 . S
N697 H703 0.985 . S
C698 C692 1.379 . S
C698 C695 1.363 . S
C698 N696 1.356 . S
C699 C693 1.363 1_564 S
C699 C694 1.379 . S
C699 N697 1.356 1_554 S
N700 C692 1.356 1_556 S
N700 H706 0.984 1_556 S
N700 H707 0.984 . S
N701 C694 1.356 . S
N701 H704 0.984 . S
N701 H705 0.985 . S
H702 N697 0.984 . S
H703 N697 0.985 . S
H704 N701 0.984 . S
H705 N701 0.985 . S
H706 N700 0.984 1_554 S
H707 N700 0.984 . S
H708 N696 0.984 . S
H709 N696 0.985 . S
C710 C711 1.363 . S
C710 C716 1.379 . S
C710 N718 1.356 . S
C711 C710 1.363 . S
C711 C717 1.363 . S
C712 C713 1.363 . S
C712 C717 1.379 . S
C712 N719 1.356 . S
C713 C712 1.363 . S
C713 C716 1.363 . S
N714 C716 1.356 . S
N714 H726 0.984 . S
N714 H727 0.985 . S
N715 C717 1.356 . S
N715 H720 0.984 . S
N715 H721 0.985 . S
C716 C710 1.379 . S
C716 C713 1.363 . S
C716 N714 1.356 . S
C717 C711 1.363 . S
C717 C712 1.379 . S
C717 N715 1.356 . S
N718 C710 1.356 . S
N718 H724 0.984 . S
N718 H725 0.984 . S
N719 C712 1.356 . S
N719 H722 0.984 . S
N719 H723 0.985 . S
H720 N715 0.984 . S
H721 N715 0.985 . S
H722 N719 0.984 . S
H723 N719 0.985 . S
H724 N718 0.984 . S
H725 N718 0.984 . S
H726 N714 0.984 . S
H727 N714 0.985 . S
C728 C729 1.363 . S
C728 C734 1.379 . S
C728 N736 1.356 . S
C729 C728 1.363 . S
C729 C735 1.363 . S
C730 C731 1.363 . S
C730 C735 1.379 . S
C730 N737 1.356 . S
C731 C730 1.363 . S
C731 C734 1.363 . S
N732 C734 1.356 . S
N732 H744 0.984 . S
N732 H745 0.985 . S
N733 C735 1.356 . S
N733 H738 0.984 . S
N733 H739 0.985 . S
C734 C728 1.379 . S
C734 C731 1.363 . S
C734 N732 1.356 . S
C735 C729 1.363 . S
C735 C730 1.379 . S
C735 N733 1.356 . S
N736 C728 1.356 . S
N736 H742 0.984 . S
N736 H743 0.984 . S
N737 C730 1.356 . S
N737 H740 0.984 . S
N737 H741 0.985 . S
H738 N733 0.984 . S
H739 N733 0.985 . S
H740 N737 0.984 . S
H741 N737 0.985 . S
H742 N736 0.984 . S
H743 N736 0.984 . S
H744 N732 0.984 . S
H745 N732 0.985 . S
C746 C747 1.363 1_455 S
C746 C752 1.379 . S
C746 N754 1.356 . S
C747 C746 1.363 1_655 S
C747 C753 1.363 . S
C748 C749 1.363 1_556 S
C748 C753 1.379 . S
C748 N755 1.356 1_556 S
C749 C748 1.363 1_554 S
C749 C752 1.363 1_654 S
N750 C752 1.356 1_554 S
N750 H762 0.984 . S
N750 H763 0.985 . S
N751 C753 1.356 . S
N751 H756 0.984 . S
N751 H757 0.985 . S
C752 C746 1.379 . S
C752 C749 1.363 1_456 S
C752 N750 1.356 1_556 S
C753 C747 1.363 . S
C753 C748 1.379 . S
C753 N751 1.356 . S
N754 C746 1.356 . S
N754 H760 0.984 . S
N754 H761 0.984 . S
N755 C748 1.356 1_554 S
N755 H758 0.984 . S
N755 H759 0.985 1_554 S
H756 N751 0.984 . S
H757 N751 0.985 . S
H758 N755 0.984 . S
H759 N755 0.985 1_556 S
H760 N754 0.984 . S
H761 N754 0.984 . S
H762 N750 0.984 . S
H763 N750 0.985 . S
C764 C765 1.363 . S
C764 C770 1.379 . S
C764 N772 1.356 . S
C765 C764 1.363 . S
C765 C771 1.363 1_565 S
C766 C767 1.363 1_545 S
C766 C771 1.379 . S
C766 N773 1.356 . S
C767 C766 1.363 1_565 S
C767 C770 1.363 . S
N768 C770 1.356 . S
N768 H780 0.984 . S
N768 H781 0.985 . S
N769 C771 1.356 . S
N769 H774 0.984 . S
N769 H775 0.985 . S
C770 C764 1.379 . S
C770 C767 1.363 . S
C770 N768 1.356 . S
C771 C765 1.363 1_545 S
C771 C766 1.379 . S
C771 N769 1.356 . S
N772 C764 1.356 . S
N772 H778 0.984 . S
N772 H779 0.984 . S
N773 C766 1.356 . S
N773 H776 0.984 . S
N773 H777 0.985 . S
H774 N769 0.984 . S
H775 N769 0.985 . S
H776 N773 0.984 . S
H777 N773 0.985 . S
H778 N772 0.984 . S
H779 N772 0.984 . S
H780 N768 0.984 . S
H781 N768 0.985 . S
C782 C783 1.363 1_556 S
C782 C788 1.379 . S
C782 N790 1.356 1_556 S
C783 C782 1.363 1_554 S
C783 C789 1.363 1_554 S
C784 C785 1.363 . S
C784 C789 1.379 . S
C784 N791 1.356 . S
C785 C784 1.363 . S
C785 C788 1.363 . S
N786 C788 1.356 . S
N786 H798 0.984 . S
N786 H799 0.985 . S
N787 C789 1.356 1_554 S
N787 H792 0.984 . S
N787 H793 0.985 1_554 S
C788 C782 1.379 . S
C788 C785 1.363 . S
C788 N786 1.356 . S
C789 C783 1.363 1_556 S
C789 C784 1.379 . S
C789 N787 1.356 1_556 S
N790 C782 1.356 1_554 S
N790 H796 0.984 . S
N790 H797 0.984 . S
N791 C784 1.356 . S
N791 H794 0.984 . S
N791 H795 0.985 . S
H792 N787 0.984 . S
H793 N787 0.985 1_556 S
H794 N791 0.984 . S
H795 N791 0.985 . S
H796 N790 0.984 . S
H797 N790 0.984 . S
H798 N786 0.984 . S
H799 N786 0.985 . S
C800 C801 1.363 . S
C800 C806 1.379 . S
C800 N808 1.356 . S
C801 C800 1.363 . S
C801 C807 1.363 . S
C802 C803 1.363 1_556 S
C802 C807 1.379 . S
C802 N809 1.356 1_556 S
C803 C802 1.363 1_554 S
C803 C806 1.363 1_554 S
N804 C806 1.356 1_554 S
N804 H816 0.984 . S
N804 H817 0.985 . S
N805 C807 1.356 . S
N805 H810 0.984 . S
N805 H811 0.985 . S
C806 C800 1.379 . S
C806 C803 1.363 1_556 S
C806 N804 1.356 1_556 S
C807 C801 1.363 . S
C807 C802 1.379 . S
C807 N805 1.356 . S
N808 C800 1.356 . S
N808 H814 0.984 . S
N808 H815 0.984 . S
N809 C802 1.356 1_554 S
N809 H812 0.984 . S
N809 H813 0.985 1_554 S
H810 N805 0.984 . S
H811 N805 0.985 . S
H812 N809 0.984 . S
H813 N809 0.985 1_556 S
H814 N808 0.984 . S
H815 N808 0.984 . S
H816 N804 0.984 . S
H817 N804 0.985 . S
C818 C819 1.363 . S
C818 C824 1.379 . S
C818 N826 1.356 . S
C819 C818 1.363 . S
C819 C825 1.363 . S
C820 C821 1.363 . S
C820 C825 1.379 . S
C820 N827 1.356 . S
C821 C820 1.363 . S
C821 C824 1.363 . S
N822 C824 1.356 . S
N822 H834 0.984 . S
N822 H835 0.985 . S
N823 C825 1.360 . S
N823 H828 0.986 . S
N823 H829 0.980 1_655 S
C824 C818 1.379 . S
C824 C821 1.363 . S
C824 N822 1.356 . S
C825 C819 1.363 . S
C825 C820 1.379 . S
C825 N823 1.360 . S
N826 C818 1.356 . S
N826 H832 0.984 . S
N826 H833 0.984 . S
N827 C820 1.356 . S
N827 H830 0.984 . S
N827 H831 0.985 1_655 S
H828 N823 0.986 . S
H829 N823 0.980 1_455 S
H830 N827 0.984 . S
H831 N827 0.985 1_455 S
H832 N826 0.984 . S
H833 N826 0.984 . S
H834 N822 0.984 . S
H835 N822 0.985 . S
C836 C837 1.363 1_546 S
C836 C842 1.379 . S
C836 N844 1.356 1_556 S
C837 C836 1.363 1_564 S
C837 C843 1.363 1_554 S
C838 C839 1.363 . S
C838 C843 1.379 . S
C838 N845 1.356 . S
C839 C838 1.363 . S
C839 C842 1.363 1_565 S
N840 C842 1.356 . S
N840 H852 0.984 . S
N840 H853 0.985 . S
N841 C843 1.356 1_554 S
N841 H846 0.984 . S
N841 H847 0.985 . S
C842 C836 1.379 . S
C842 C839 1.363 1_545 S
C842 N840 1.356 . S
C843 C837 1.363 1_556 S
C843 C838 1.379 . S
C843 N841 1.356 1_556 S
N844 C836 1.356 1_554 S
N844 H850 0.984 . S
N844 H851 0.984 . S
N845 C838 1.356 . S
N845 H848 0.984 . S
N845 H849 0.985 . S
H846 N841 0.984 . S
H847 N841 0.985 . S
H848 N845 0.984 . S
H849 N845 0.985 . S
H850 N844 0.984 . S
H851 N844 0.984 . S
H852 N840 0.984 . S
H853 N840 0.985 . S
C854 C855 1.363 . S
C854 C860 1.379 . S
C854 N862 1.356 . S
C855 C854 1.363 . S
C855 C861 1.363 . S
C856 C857 1.363 . S
C856 C861 1.379 . S
C856 N863 1.356 . S
C857 C856 1.363 . S
C857 C860 1.363 . S
N858 C860 1.356 . S
N858 H870 0.984 . S
N858 H871 0.985 . S
N859 C861 1.356 . S
N859 H864 0.984 . S
N859 H865 0.985 . S
C860 C854 1.379 . S
C860 C857 1.363 . S
C860 N858 1.356 . S
C861 C855 1.363 . S
C861 C856 1.379 . S
C861 N859 1.356 . S
N862 C854 1.356 . S
N862 H868 0.984 . S
N862 H869 0.984 . S
N863 C856 1.356 . S
N863 H866 0.984 . S
N863 H867 0.985 . S
H864 N859 0.984 . S
H865 N859 0.985 . S
H866 N863 0.984 . S
H867 N863 0.985 . S
H868 N862 0.984 . S
H869 N862 0.984 . S
H870 N858 0.984 . S
H871 N858 0.985 . S
C872 C873 1.363 . S
C872 C878 1.379 . S
C872 N880 1.356 . S
C873 C872 1.363 . S
C873 C879 1.363 . S
C874 C875 1.363 . S
C874 C879 1.379 . S
C874 N881 1.356 . S
C875 C874 1.363 . S
C875 C878 1.363 . S
N876 C878 1.356 . S
N876 H888 0.984 . S
N876 H889 0.985 . S
N877 C879 1.356 . S
N877 H882 0.984 . S
N877 H883 0.985 . S
C878 C872 1.379 . S
C878 C875 1.363 . S
C878 N876 1.356 . S
C879 C873 1.363 . S
C879 C874 1.379 . S
C879 N877 1.356 . S
N880 C872 1.356 . S
N880 H886 0.984 . S
N880 H887 0.984 . S
N881 C874 1.356 . S
N881 H884 0.984 . S
N881 H885 0.985 . S
H882 N877 0.984 . S
H883 N877 0.985 . S
H884 N881 0.984 . S
H885 N881 0.985 . S
H886 N880 0.984 . S
H887 N880 0.984 . S
H888 N876 0.984 . S
H889 N876 0.985 . S
C890 C891 1.363 . S
C890 C896 1.379 . S
C890 N898 1.356 . S
C891 C890 1.363 . S
C891 C897 1.363 1_455 S
C892 C893 1.363 1_654 S
C892 C897 1.379 . S
C892 N899 1.356 1_554 S
C893 C892 1.363 1_456 S
C893 C896 1.363 1_556 S
N894 C896 1.356 1_556 S
N894 H906 0.984 . S
N894 H907 0.985 . S
N895 C897 1.356 . S
N895 H900 0.984 . S
N895 H901 0.985 . S
C896 C890 1.379 . S
C896 C893 1.363 1_554 S
C896 N894 1.356 1_554 S
C897 C891 1.363 1_655 S
C897 C892 1.379 . S
C897 N895 1.356 . S
N898 C890 1.356 . S
N898 H904 0.984 . S
N898 H905 0.984 . S
N899 C892 1.356 1_556 S
N899 H902 0.984 . S
N899 H903 0.987 . S
H900 N895 0.984 . S
H901 N895 0.985 . S
H902 N899 0.984 . S
H903 N899 0.987 . S
H904 N898 0.984 . S
H905 N898 0.984 . S
H906 N894 0.984 . S
H907 N894 0.985 . S
C908 C909 1.363 . S
C908 C914 1.379 . S
C908 N916 1.356 . S
C909 C908 1.363 . S
C909 C915 1.363 1_545 S
C910 C911 1.363 1_565 S
C910 C915 1.379 . S
C910 N917 1.356 . S
C911 C910 1.363 1_545 S
C911 C914 1.363 . S
N912 C914 1.356 . S
N912 H924 0.984 . S
N912 H925 0.985 . S
N913 C915 1.356 . S
N913 H918 0.984 . S
N913 H919 0.985 . S
C914 C908 1.379 . S
C914 C911 1.363 . S
C914 N912 1.356 . S
C915 C909 1.363 1_565 S
C915 C910 1.379 . S
C915 N913 1.356 . S
N916 C908 1.356 . S
N916 H922 0.984 . S
N916 H923 0.984 . S
N917 C910 1.356 . S
N917 H920 0.984 . S
N917 H921 0.985 . S
H918 N913 0.984 . S
H919 N913 0.985 . S
H920 N917 0.984 . S
H921 N917 0.985 . S
H922 N916 0.984 . S
H923 N916 0.984 . S
H924 N912 0.984 . S
H925 N912 0.985 . S
C926 C927 1.363 1_554 S
C926 C932 1.379 . S
C926 N934 1.356 1_554 S
C927 C926 1.363 1_556 S
C927 C933 1.363 1_556 S
C928 C929 1.363 . S
C928 C933 1.379 . S
C928 N935 1.356 . S
C929 C928 1.363 . S
C929 C932 1.363 . S
N930 C932 1.356 . S
N930 H942 0.984 . S
N930 H943 0.985 . S
N931 C933 1.356 1_556 S
N931 H936 0.984 . S
N931 H937 0.985 1_556 S
C932 C926 1.379 . S
C932 C929 1.363 . S
C932 N930 1.356 . S
C933 C927 1.363 1_554 S
C933 C928 1.379 . S
C933 N931 1.356 1_554 S
N934 C926 1.356 1_556 S
N934 H940 0.984 . S
N934 H941 0.984 . S
N935 C928 1.356 . S
N935 H938 0.984 . S
N935 H939 0.985 . S
H936 N931 0.984 . S
H937 N931 0.985 1_554 S
H938 N935 0.984 . S
H939 N935 0.985 . S
H940 N934 0.984 . S
H941 N934 0.984 . S
H942 N930 0.984 . S
H943 N930 0.985 . S
C944 C945 1.363 . S
C944 C950 1.379 . S
C944 N952 1.356 . S
C945 C944 1.363 . S
C945 C951 1.363 . S
C946 C947 1.363 . S
C946 C951 1.379 . S
C946 N953 1.356 . S
C947 C946 1.363 . S
C947 C950 1.363 . S
N948 C950 1.356 . S
N948 H960 0.984 . S
N948 H961 0.985 . S
N949 C951 1.356 . S
N949 H954 0.984 . S
N949 H955 0.985 . S
C950 C944 1.379 . S
C950 C947 1.363 . S
C950 N948 1.356 . S
C951 C945 1.363 . S
C951 C946 1.379 . S
C951 N949 1.356 . S
N952 C944 1.356 . S
N952 H958 0.984 . S
N952 H959 0.984 . S
N953 C946 1.356 . S
N953 H956 0.984 . S
N953 H957 0.985 . S
H954 N949 0.984 . S
H955 N949 0.985 . S
H956 N953 0.984 . S
H957 N953 0.985 . S
H958 N952 0.984 . S
H959 N952 0.984 . S
H960 N948 0.984 . S
H961 N948 0.985 . S
C962 C963 1.363 . S
C962 C968 1.379 . S
C962 N970 1.356 . S
C963 C962 1.363 . S
C963 C969 1.363 . S
C964 C965 1.363 . S
C964 C969 1.379 . S
C964 N971 1.356 . S
C965 C964 1.363 . S
C965 C968 1.363 . S
N966 C968 1.356 . S
N966 H978 0.984 . S
N966 H979 0.985 . S
N967 C969 1.356 . S
N967 H972 0.984 . S
N967 H973 0.985 . S
C968 C962 1.379 . S
C968 C965 1.363 . S
C968 N966 1.356 . S
C969 C963 1.363 . S
C969 C964 1.379 . S
C969 N967 1.356 . S
N970 C962 1.356 . S
N970 H976 0.984 . S
N970 H977 0.984 . S
N971 C964 1.356 . S
N971 H974 0.984 . S
N971 H975 0.985 . S
H972 N967 0.984 . S
H973 N967 0.985 . S
H974 N971 0.984 . S
H975 N971 0.985 . S
H976 N970 0.984 . S
H977 N970 0.984 . S
H978 N966 0.984 . S
H979 N966 0.985 . S
C980 C981 1.363 . S
C980 C986 1.379 . S
C980 N988 1.356 . S
C981 C980 1.363 . S
C981 C987 1.363 . S
C982 C983 1.363 . S
C982 C987 1.379 . S
C982 N989 1.356 . S
C983 C982 1.363 . S
C983 C986 1.363 . S
N984 C986 1.356 . S
N984 H996 0.984 . S
N984 H997 0.985 . S
N985 C987 1.356 . S
N985 H990 0.984 . S
N985 H991 0.985 . S
C986 C980 1.379 . S
C986 C983 1.363 . S
C986 N984 1.356 . S
C987 C981 1.363 . S
C987 C982 1.379 . S
C987 N985 1.356 . S
N988 C980 1.356 . S
N988 H994 0.984 . S
N988 H995 0.984 . S
N989 C982 1.356 . S
N989 H992 0.984 . S
N989 H993 0.985 . S
H990 N985 0.984 . S
H991 N985 0.985 . S
H992 N989 0.984 . S
H993 N989 0.985 . S
H994 N988 0.984 . S
H995 N988 0.984 . S
H996 N984 0.984 . S
H997 N984 0.985 . S
C998 C999 1.363 . S
C998 C1004 1.379 . S
C998 N1006 1.356 . S
C999 C998 1.363 . S
C999 C1005 1.363 . S
C1000 C1001 1.363 . S
C1000 C1005 1.379 . S
C1000 N1007 1.356 . S
C1001 C1000 1.363 . S
C1001 C1004 1.363 . S
N1002 C1004 1.356 . S
N1002 H1014 0.984 . S
N1002 H1015 0.985 . S
N1003 C1005 1.356 . S
N1003 H1008 0.984 . S
N1003 H1009 0.985 . S
C1004 C998 1.379 . S
C1004 C1001 1.363 . S
C1004 N1002 1.356 . S
C1005 C999 1.363 . S
C1005 C1000 1.379 . S
C1005 N1003 1.356 . S
N1006 C998 1.356 . S
N1006 H1012 0.984 . S
N1006 H1013 0.984 . S
N1007 C1000 1.356 . S
N1007 H1010 0.984 . S
N1007 H1011 0.985 . S
H1008 N1003 0.984 . S
H1009 N1003 0.985 . S
H1010 N1007 0.984 . S
H1011 N1007 0.985 . S
H1012 N1006 0.984 . S
H1013 N1006 0.984 . S
H1014 N1002 0.984 . S
H1015 N1002 0.985 . S
C1016 C1017 1.363 . S
C1016 C1022 1.379 . S
C1016 N1024 1.356 . S
C1017 C1016 1.363 . S
C1017 C1023 1.363 . S
C1018 C1019 1.363 . S
C1018 C1023 1.379 . S
C1018 N1025 1.356 . S
C1019 C1018 1.363 . S
C1019 C1022 1.363 . S
N1020 C1022 1.356 . S
N1020 H1032 0.984 . S
N1020 H1033 0.985 . S
N1021 C1023 1.356 . S
N1021 H1026 0.984 . S
N1021 H1027 0.985 . S
C1022 C1016 1.379 . S
C1022 C1019 1.363 . S
C1022 N1020 1.356 . S
C1023 C1017 1.363 . S
C1023 C1018 1.379 . S
C1023 N1021 1.356 . S
N1024 C1016 1.356 . S
N1024 H1030 0.984 . S
N1024 H1031 0.984 . S
N1025 C1018 1.356 . S
N1025 H1028 0.984 . S
N1025 H1029 0.985 . S
H1026 N1021 0.984 . S
H1027 N1021 0.985 . S
H1028 N1025 0.984 . S
H1029 N1025 0.985 . S
H1030 N1024 0.984 . S
H1031 N1024 0.984 . S
H1032 N1020 0.984 . S
H1033 N1020 0.985 . S
C1034 C1035 1.363 . S
C1034 C1040 1.379 . S
C1034 N1042 1.356 . S
C1035 C1034 1.363 . S
C1035 C1041 1.363 . S
C1036 C1037 1.363 . S
C1036 C1041 1.379 . S
C1036 N1043 1.356 . S
C1037 C1036 1.363 . S
C1037 C1040 1.363 . S
N1038 C1040 1.356 . S
N1038 H1050 0.984 . S
N1038 H1051 0.985 . S
N1039 C1041 1.356 . S
N1039 H1044 0.984 . S
N1039 H1045 0.985 . S
C1040 C1034 1.379 . S
C1040 C1037 1.363 . S
C1040 N1038 1.356 . S
C1041 C1035 1.363 . S
C1041 C1036 1.379 . S
C1041 N1039 1.356 . S
N1042 C1034 1.356 . S
N1042 H1048 0.984 . S
N1042 H1049 0.984 . S
N1043 C1036 1.356 . S
N1043 H1046 0.984 . S
N1043 H1047 0.985 . S
H1044 N1039 0.984 . S
H1045 N1039 0.985 . S
H1046 N1043 0.984 . S
H1047 N1043 0.985 . S
H1048 N1042 0.984 . S
H1049 N1042 0.984 . S
H1050 N1038 0.984 . S
H1051 N1038 0.985 . S
C1052 C1053 1.363 . S
C1052 C1058 1.379 . S
C1052 N1060 1.356 . S
C1053 C1052 1.363 . S
C1053 C1059 1.363 . S
C1054 C1055 1.363 . S
C1054 C1059 1.379 . S
C1054 N1061 1.356 . S
C1055 C1054 1.363 . S
C1055 C1058 1.363 . S
N1056 C1058 1.356 . S
N1056 H1068 0.984 . S
N1056 H1069 0.985 . S
N1057 C1059 1.356 . S
N1057 H1062 0.984 . S
N1057 H1063 0.985 . S
C1058 C1052 1.379 . S
C1058 C1055 1.363 . S
C1058 N1056 1.356 . S
C1059 C1053 1.363 . S
C1059 C1054 1.379 . S
C1059 N1057 1.356 . S
N1060 C1052 1.356 . S
N1060 H1066 0.984 . S
N1060 H1067 0.984 . S
N1061 C1054 1.356 . S
N1061 H1064 0.984 . S
N1061 H1065 0.985 . S
H1062 N1057 0.984 . S
H1063 N1057 0.985 . S
H1064 N1061 0.984 . S
H1065 N1061 0.985 . S
H1066 N1060 0.984 . S
H1067 N1060 0.984 . S
H1068 N1056 0.984 . S
H1069 N1056 0.985 . S
C1070 C1071 1.363 . S
C1070 C1076 1.379 . S
C1070 N1078 1.356 . S
C1071 C1070 1.363 . S
C1071 C1077 1.363 . S
C1072 C1073 1.363 . S
C1072 C1077 1.379 . S
C1072 N1079 1.356 . S
C1073 C1072 1.363 . S
C1073 C1076 1.363 . S
N1074 C1076 1.356 . S
N1074 H1086 0.984 . S
N1074 H1087 0.985 . S
N1075 C1077 1.356 . S
N1075 H1080 0.984 . S
N1075 H1081 0.985 . S
C1076 C1070 1.379 . S
C1076 C1073 1.363 . S
C1076 N1074 1.356 . S
C1077 C1071 1.363 . S
C1077 C1072 1.379 . S
C1077 N1075 1.356 . S
N1078 C1070 1.356 . S
N1078 H1084 0.984 . S
N1078 H1085 0.984 . S
N1079 C1072 1.356 . S
N1079 H1082 0.984 . S
N1079 H1083 0.985 . S
H1080 N1075 0.984 . S
H1081 N1075 0.985 . S
H1082 N1079 0.984 . S
H1083 N1079 0.985 . S
H1084 N1078 0.984 . S
H1085 N1078 0.984 . S
H1086 N1074 0.984 . S
H1087 N1074 0.985 . S
C1088 C1089 1.363 . S
C1088 C1094 1.379 . S
C1088 N1096 1.356 . S
C1089 C1088 1.363 . S
C1089 C1095 1.363 . S
C1090 C1091 1.363 . S
C1090 C1095 1.379 . S
C1090 N1097 1.356 . S
C1091 C1090 1.363 . S
C1091 C1094 1.363 . S
N1092 C1094 1.356 . S
N1092 H1104 0.984 . S
N1092 H1105 0.985 . S
N1093 C1095 1.356 . S
N1093 H1098 0.984 . S
N1093 H1099 0.985 . S
C1094 C1088 1.379 . S
C1094 C1091 1.363 . S
C1094 N1092 1.356 . S
C1095 C1089 1.363 . S
C1095 C1090 1.379 . S
C1095 N1093 1.356 . S
N1096 C1088 1.356 . S
N1096 H1102 0.984 . S
N1096 H1103 0.984 . S
N1097 C1090 1.356 . S
N1097 H1100 0.984 . S
N1097 H1101 0.985 . S
H1098 N1093 0.984 . S
H1099 N1093 0.985 . S
H1100 N1097 0.984 . S
H1101 N1097 0.985 . S
H1102 N1096 0.984 . S
H1103 N1096 0.984 . S
H1104 N1092 0.984 . S
H1105 N1092 0.985 . S
C1106 C1107 1.363 . S
C1106 C1112 1.379 . S
C1106 N1114 1.356 . S
C1107 C1106 1.363 . S
C1107 C1113 1.363 . S
C1108 C1109 1.363 . S
C1108 C1113 1.379 . S
C1108 N1115 1.356 . S
C1109 C1108 1.363 . S
C1109 C1112 1.363 . S
N1110 C1112 1.356 . S
N1110 H1122 0.984 . S
N1110 H1123 0.985 . S
N1111 C1113 1.356 . S
N1111 H1116 0.984 . S
N1111 H1117 0.985 . S
C1112 C1106 1.379 . S
C1112 C1109 1.363 . S
C1112 N1110 1.356 . S
C1113 C1107 1.363 . S
C1113 C1108 1.379 . S
C1113 N1111 1.356 . S
N1114 C1106 1.356 . S
N1114 H1120 0.984 . S
N1114 H1121 0.984 . S
N1115 C1108 1.356 . S
N1115 H1118 0.984 . S
N1115 H1119 0.985 . S
H1116 N1111 0.984 . S
H1117 N1111 0.985 . S
H1118 N1115 0.984 . S
H1119 N1115 0.985 . S
H1120 N1114 0.984 . S
H1121 N1114 0.984 . S
H1122 N1110 0.984 . S
H1123 N1110 0.985 . S
C1124 C1125 1.363 . S
C1124 C1130 1.379 . S
C1124 N1132 1.356 . S
C1125 C1124 1.363 . S
C1125 C1131 1.363 . S
C1126 C1127 1.363 . S
C1126 C1131 1.379 . S
C1126 N1133 1.356 . S
C1127 C1126 1.363 . S
C1127 C1130 1.363 . S
N1128 C1130 1.356 . S
N1128 H1140 0.984 . S
N1128 H1141 0.985 . S
N1129 C1131 1.356 . S
N1129 H1134 0.984 . S
N1129 H1135 0.985 . S
C1130 C1124 1.379 . S
C1130 C1127 1.363 . S
C1130 N1128 1.356 . S
C1131 C1125 1.363 . S
C1131 C1126 1.379 . S
C1131 N1129 1.356 . S
N1132 C1124 1.356 . S
N1132 H1138 0.984 . S
N1132 H1139 0.984 . S
N1133 C1126 1.356 . S
N1133 H1136 0.984 . S
N1133 H1137 0.985 . S
H1134 N1129 0.984 . S
H1135 N1129 0.985 . S
H1136 N1133 0.984 . S
H1137 N1133 0.985 . S
H1138 N1132 0.984 . S
H1139 N1132 0.984 . S
H1140 N1128 0.984 . S
H1141 N1128 0.985 . S
C1142 C1143 1.363 . S
C1142 C1148 1.379 . S
C1142 N1150 1.356 . S
C1143 C1142 1.363 . S
C1143 C1149 1.363 . S
C1144 C1145 1.363 . S
C1144 C1149 1.379 . S
C1144 N1151 1.356 . S
C1145 C1144 1.363 . S
C1145 C1148 1.363 . S
N1146 C1148 1.356 . S
N1146 H1158 0.984 . S
N1146 H1159 0.985 . S
N1147 C1149 1.356 . S
N1147 H1152 0.984 . S
N1147 H1153 0.985 . S
C1148 C1142 1.379 . S
C1148 C1145 1.363 . S
C1148 N1146 1.356 . S
C1149 C1143 1.363 . S
C1149 C1144 1.379 . S
C1149 N1147 1.356 . S
N1150 C1142 1.356 . S
N1150 H1156 0.984 . S
N1150 H1157 0.984 . S
N1151 C1144 1.356 . S
N1151 H1154 0.984 . S
N1151 H1155 0.985 . S
H1152 N1147 0.984 . S
H1153 N1147 0.985 . S
H1154 N1151 0.984 . S
H1155 N1151 0.985 . S
H1156 N1150 0.984 . S
H1157 N1150 0.984 . S
H1158 N1146 0.984 . S
H1159 N1146 0.985 . S
C1160 C1161 1.363 . S
C1160 C1166 1.379 . S
C1160 N1168 1.356 . S
C1161 C1160 1.363 . S
C1161 C1167 1.363 . S
C1162 C1163 1.363 . S
C1162 C1167 1.379 . S
C1162 N1169 1.356 . S
C1163 C1162 1.363 . S
C1163 C1166 1.363 . S
N1164 C1166 1.356 . S
N1164 H1176 0.984 . S
N1164 H1177 0.985 . S
N1165 C1167 1.356 . S
N1165 H1170 0.984 . S
N1165 H1171 0.985 . S
C1166 C1160 1.379 . S
C1166 C1163 1.363 . S
C1166 N1164 1.356 . S
C1167 C1161 1.363 . S
C1167 C1162 1.379 . S
C1167 N1165 1.356 . S
N1168 C1160 1.356 . S
N1168 H1174 0.984 . S
N1168 H1175 0.984 . S
N1169 C1162 1.356 . S
N1169 H1172 0.984 . S
N1169 H1173 0.985 . S
H1170 N1165 0.984 . S
H1171 N1165 0.985 . S
H1172 N1169 0.984 . S
H1173 N1169 0.985 . S
H1174 N1168 0.984 . S
H1175 N1168 0.984 . S
H1176 N1164 0.984 . S
H1177 N1164 0.985 . S
C1178 C1179 1.363 . S
C1178 C1184 1.379 . S
C1178 N1186 1.356 . S
C1179 C1178 1.363 . S
C1179 C1185 1.363 . S
C1180 C1181 1.363 . S
C1180 C1185 1.379 . S
C1180 N1187 1.356 . S
C1181 C1180 1.363 . S
C1181 C1184 1.363 . S
N1182 C1184 1.356 . S
N1182 H1194 0.984 . S
N1182 H1195 0.985 . S
N1183 C1185 1.356 . S
N1183 H1188 0.984 . S
N1183 H1189 0.985 . S
C1184 C1178 1.379 . S
C1184 C1181 1.363 . S
C1184 N1182 1.356 . S
C1185 C1179 1.363 . S
C1185 C1180 1.379 . S
C1185 N1183 1.356 . S
N1186 C1178 1.356 . S
N1186 H1192 0.984 . S
N1186 H1193 0.984 . S
N1187 C1180 1.356 . S
N1187 H1190 0.984 . S
N1187 H1191 0.985 . S
H1188 N1183 0.984 . S
H1189 N1183 0.985 . S
H1190 N1187 0.984 . S
H1191 N1187 0.985 . S
H1192 N1186 0.984 . S
H1193 N1186 0.984 . S
H1194 N1182 0.984 . S
H1195 N1182 0.985 . S
C1196 C1197 1.363 . S
C1196 C1202 1.379 . S
C1196 N1204 1.356 . S
C1197 C1196 1.363 . S
C1197 C1203 1.363 . S
C1198 C1199 1.363 . S
C1198 C1203 1.379 . S
C1198 N1205 1.356 . S
C1199 C1198 1.363 . S
C1199 C1202 1.363 . S
N1200 C1202 1.356 . S
N1200 H1212 0.984 . S
N1200 H1213 0.985 . S
N1201 C1203 1.356 . S
N1201 H1206 0.984 . S
N1201 H1207 0.985 . S
C1202 C1196 1.379 . S
C1202 C1199 1.363 . S
C1202 N1200 1.356 . S
C1203 C1197 1.363 . S
C1203 C1198 1.379 . S
C1203 N1201 1.356 . S
N1204 C1196 1.356 . S
N1204 H1210 0.984 . S
N1204 H1211 0.984 . S
N1205 C1198 1.356 . S
N1205 H1208 0.984 . S
N1205 H1209 0.985 . S
H1206 N1201 0.984 . S
H1207 N1201 0.985 . S
H1208 N1205 0.984 . S
H1209 N1205 0.985 . S
H1210 N1204 0.984 . S
H1211 N1204 0.984 . S
H1212 N1200 0.984 . S
H1213 N1200 0.985 . S
C1214 C1215 1.363 . S
C1214 C1220 1.379 . S
C1214 N1222 1.356 . S
C1215 C1214 1.363 . S
C1215 C1221 1.363 . S
C1216 C1217 1.363 . S
C1216 C1221 1.379 . S
C1216 N1223 1.356 . S
C1217 C1216 1.363 . S
C1217 C1220 1.363 . S
N1218 C1220 1.356 . S
N1218 H1230 0.984 . S
N1218 H1231 0.985 . S
N1219 C1221 1.356 . S
N1219 H1224 0.984 . S
N1219 H1225 0.985 . S
C1220 C1214 1.379 . S
C1220 C1217 1.363 . S
C1220 N1218 1.356 . S
C1221 C1215 1.363 . S
C1221 C1216 1.379 . S
C1221 N1219 1.356 . S
N1222 C1214 1.356 . S
N1222 H1228 0.984 . S
N1222 H1229 0.984 . S
N1223 C1216 1.356 . S
N1223 H1226 0.984 . S
N1223 H1227 0.985 . S
H1224 N1219 0.984 . S
H1225 N1219 0.985 . S
H1226 N1223 0.984 . S
H1227 N1223 0.985 . S
H1228 N1222 0.984 . S
H1229 N1222 0.984 . S
H1230 N1218 0.984 . S
H1231 N1218 0.985 . S
C369 C16 1.219 . S
C371 C177 1.219 . S
C387 C108 1.216 . S
C389 C39 1.216 . S
C405 C131 1.219 . S
C407 C62 1.219 . S
C423 C85 1.216 . S
C425 C154 1.216 . S
C441 C362 1.207 . S
C443 C200 1.210 . S
C459 C292 1.217 . S
C461 C223 1.217 . S
C477 C315 1.219 . S
C479 C246 1.219 . S
C495 C338 1.220 . S
C497 C269 1.220 . S
C513 C20 1.278 . S
C515 C366 1.269 . S
C531 C43 1.269 . S
C533 C296 1.268 . S
C549 C66 1.264 . S
C551 C319 1.263 . S
C567 C342 1.260 . S
C569 C89 1.260 . S
C585 C227 1.264 . S
C587 C112 1.264 . S
C603 C135 1.265 . S
C605 C250 1.266 . S
C621 C273 1.262 . S
C623 C158 1.263 . S
C639 C181 1.249 . S
C641 C204 1.249 . S
C657 C294 1.603 . S
C659 C17 1.603 . S
C675 C40 1.604 . S
C677 C317 1.604 . S
C693 C340 1.601 . S
C695 C63 1.602 . S
C711 C364 1.629 . S
C713 C86 1.623 . S
C729 C109 1.611 . S
C731 C202 1.610 . S
C747 C132 1.604 . S
C749 C225 1.603 . S
C765 C155 1.608 . S
C767 C248 1.607 . S
C783 C271 1.601 . S
C785 C178 1.602 . S
C801 C201 1.601 . S
C803 C110 1.601 . S
C819 C224 1.603 . S
C821 C133 1.602 . S
C837 C156 1.597 . S
C839 C247 1.598 . S
C855 C270 1.604 . S
C857 C179 1.604 . S
C873 C293 1.606 . S
C875 C18 1.606 . S
C891 C316 1.604 . S
C893 C41 1.603 . S
C909 C64 1.603 . S
C911 C339 1.603 . S
C927 C87 1.652 . S
C929 C361 1.645 . S
C945 C19 1.603 . S
C947 C228 1.570 . S
C963 C251 1.571 . S
C965 C42 1.604 . S
C981 C65 1.599 . S
C983 C274 1.566 . S
C999 C88 1.616 . S
C1001 C205 1.582 . S
C1017 C111 1.580 . S
C1019 C365 1.604 . S
C1035 C134 1.600 . S
C1037 C297 1.567 . S
C1053 C157 1.603 . S
C1055 C320 1.570 . S
C1071 C343 1.566 . S
C1073 C180 1.599 . S
C1089 C44 1.573 . S
C1091 C203 1.606 . S
C1107 C67 1.566 . S
C1109 C226 1.600 . S
C1125 C249 1.604 . S
C1127 C90 1.570 . S
C1143 C272 1.601 . S
C1145 C21 1.567 . S
C1161 C182 1.566 . S
C1163 C295 1.599 . S
C1179 C113 1.566 . S
C1181 C318 1.600 . S
C1197 C136 1.566 . S
C1199 C341 1.599 . S
C1215 C159 1.567 . S
C1217 C363 1.651 . S
