# Generated by pormake.
# Topology upc, (4)-cn, num edge types: 1
# Building blocks:
#     Node 0, Type 0, BuildingBlock: NAWXER_clean_sbu_0, # of connection points: 4
#     Node 1, Type 0, BuildingBlock: NAWXER_clean_sbu_0, # of connection points: 4
#     Node 2, Type 0, BuildingBlock: NAWXER_clean_sbu_0, # of connection points: 4
#     Node 3, Type 0, BuildingBlock: NAWXER_clean_sbu_0, # of connection points: 4
#     Node 4, Type 0, BuildingBlock: NAWXER_clean_sbu_0, # of connection points: 4
#     Node 5, Type 0, BuildingBlock: NAWXER_clean_sbu_0, # of connection points: 4
#     Node 6, Type 0, BuildingBlock: NAWXER_clean_sbu_0, # of connection points: 4
#     Node 7, Type 0, BuildingBlock: NAWXER_clean_sbu_0, # of connection points: 4
#     Node 8, Type 0, BuildingBlock: NAWXER_clean_sbu_0, # of connection points: 4
#     Node 9, Type 0, BuildingBlock: NAWXER_clean_sbu_0, # of connection points: 4
#     Node 10, Type 0, BuildingBlock: NAWXER_clean_sbu_0, # of connection points: 4
#     Node 11, Type 0, BuildingBlock: NAWXER_clean_sbu_0, # of connection points: 4
#     Node 12, Type 0, BuildingBlock: NAWXER_clean_sbu_0, # of connection points: 4
#     Node 13, Type 0, BuildingBlock: NAWXER_clean_sbu_0, # of connection points: 4
#     Node 14, Type 0, BuildingBlock: NAWXER_clean_sbu_0, # of connection points: 4
#     Node 15, Type 0, BuildingBlock: NAWXER_clean_sbu_0, # of connection points: 4
#     Edge 16, Type (0, 0), BuildingBlock: XIVTED_clean_linker_0, # of connection points: 2
#     Edge 17, Type (0, 0), BuildingBlock: XIVTED_clean_linker_0, # of connection points: 2
#     Edge 18, Type (0, 0), BuildingBlock: XIVTED_clean_linker_0, # of connection points: 2
#     Edge 19, Type (0, 0), BuildingBlock: XIVTED_clean_linker_0, # of connection points: 2
#     Edge 20, Type (0, 0), BuildingBlock: XIVTED_clean_linker_0, # of connection points: 2
#     Edge 21, Type (0, 0), BuildingBlock: XIVTED_clean_linker_0, # of connection points: 2
#     Edge 22, Type (0, 0), BuildingBlock: XIVTED_clean_linker_0, # of connection points: 2
#     Edge 23, Type (0, 0), BuildingBlock: XIVTED_clean_linker_0, # of connection points: 2
#     Edge 24, Type (0, 0), BuildingBlock: XIVTED_clean_linker_0, # of connection points: 2
#     Edge 25, Type (0, 0), BuildingBlock: XIVTED_clean_linker_0, # of connection points: 2
#     Edge 26, Type (0, 0), BuildingBlock: XIVTED_clean_linker_0, # of connection points: 2
#     Edge 27, Type (0, 0), BuildingBlock: XIVTED_clean_linker_0, # of connection points: 2
#     Edge 28, Type (0, 0), BuildingBlock: XIVTED_clean_linker_0, # of connection points: 2
#     Edge 29, Type (0, 0), BuildingBlock: XIVTED_clean_linker_0, # of connection points: 2
#     Edge 30, Type (0, 0), BuildingBlock: XIVTED_clean_linker_0, # of connection points: 2
#     Edge 31, Type (0, 0), BuildingBlock: XIVTED_clean_linker_0, # of connection points: 2
#     Edge 32, Type (0, 0), BuildingBlock: XIVTED_clean_linker_0, # of connection points: 2
#     Edge 33, Type (0, 0), BuildingBlock: XIVTED_clean_linker_0, # of connection points: 2
#     Edge 34, Type (0, 0), BuildingBlock: XIVTED_clean_linker_0, # of connection points: 2
#     Edge 35, Type (0, 0), BuildingBlock: XIVTED_clean_linker_0, # of connection points: 2
#     Edge 36, Type (0, 0), BuildingBlock: XIVTED_clean_linker_0, # of connection points: 2
#     Edge 37, Type (0, 0), BuildingBlock: XIVTED_clean_linker_0, # of connection points: 2
#     Edge 38, Type (0, 0), BuildingBlock: XIVTED_clean_linker_0, # of connection points: 2
#     Edge 39, Type (0, 0), BuildingBlock: XIVTED_clean_linker_0, # of connection points: 2
#     Edge 40, Type (0, 0), BuildingBlock: XIVTED_clean_linker_0, # of connection points: 2
#     Edge 41, Type (0, 0), BuildingBlock: XIVTED_clean_linker_0, # of connection points: 2
#     Edge 42, Type (0, 0), BuildingBlock: XIVTED_clean_linker_0, # of connection points: 2
#     Edge 43, Type (0, 0), BuildingBlock: XIVTED_clean_linker_0, # of connection points: 2
#     Edge 44, Type (0, 0), BuildingBlock: XIVTED_clean_linker_0, # of connection points: 2
#     Edge 45, Type (0, 0), BuildingBlock: XIVTED_clean_linker_0, # of connection points: 2
#     Edge 46, Type (0, 0), BuildingBlock: XIVTED_clean_linker_0, # of connection points: 2
#     Edge 47, Type (0, 0), BuildingBlock: XIVTED_clean_linker_0, # of connection points: 2
# Relax obj value: 0.229
# Max RMSD: 0.220
# Mean RMSD: 0.220
data_MOF--net-upc--node1-NAWXER_clean_sbu_0--edge1-XIVTED_clean_linker_0
_symmetry_space_group_name_H-M    P1
_symmetry_Int_Tables_number       1
_symmetry_cell_setting            triclinic
loop_
_symmetry_equiv_pos_as_xyz
'x, y, z'
_cell_length_a     35.975026
_cell_length_b     36.015055
_cell_length_c     42.81186
_cell_angle_alpha  89.989636
_cell_angle_beta   90.044353
_cell_angle_gamma 89.994523
loop_
_atom_site_label
_atom_site_type_symbol
_atom_site_fract_x
_atom_site_fract_y
_atom_site_fract_z
_atom_type_partial_charge
C0 C 0.08872 0.55881 0.14282 0.0
C1 C 0.16845 0.64758 0.08697 0.0
O2 O 0.07014 0.5831 0.12725 0.0
Zn3 Zn 0.08235 0.62852 0.09468 0.0
O4 O 0.12386 0.55717 0.13949 0.0
Zn5 Zn 0.12812 0.59863 0.11065 0.0
O6 O 0.10678 0.64272 0.14078 0.0
O7 O 0.05908 0.66787 0.11547 0.0
O8 O 0.17785 0.617 0.09948 0.0
O9 O 0.13386 0.65468 0.08349 0.0
O10 O 0.05918 0.61669 0.05668 0.0
O11 O 0.10228 0.57589 0.06915 0.0
C12 C 0.08016 0.66646 0.13921 0.0
C13 C 0.07581 0.58653 0.05109 0.0
C14 C 0.91612 0.06623 0.04736 0.0
C15 C 0.84354 0.07903 0.13982 0.0
O16 O 0.92823 0.09364 0.06363 0.0
Zn17 Zn 0.90997 0.12243 0.1049 0.0
O18 O 0.88626 0.05024 0.05518 0.0
Zn19 Zn 0.87746 0.07614 0.09282 0.0
O20 O 0.85156 0.12785 0.08108 0.0
O21 O 0.89175 0.17169 0.09261 0.0
O22 O 0.84003 0.05522 0.11812 0.0
O23 O 0.86761 0.10522 0.1377 0.0
O24 O 0.95315 0.11793 0.1324 0.0
O25 O 0.92462 0.06481 0.12315 0.0
C26 C 0.85975 0.16239 0.0827 0.0
C27 C 0.95039 0.0831 0.13711 0.0
C28 C 0.44311 0.83994 0.13787 0.0
C29 C 0.44666 0.91533 0.04668 0.0
O30 O 0.41602 0.8632 0.13804 0.0
Zn31 Zn 0.39418 0.90511 0.10623 0.0
O32 O 0.46453 0.8373 0.11444 0.0
Zn33 Zn 0.44073 0.87515 0.09169 0.0
O34 O 0.4517 0.92238 0.1227 0.0
O35 O 0.39744 0.94787 0.13375 0.0
O36 O 0.46397 0.88585 0.05334 0.0
O37 O 0.41985 0.92618 0.06424 0.0
O38 O 0.34499 0.8853 0.09538 0.0
O39 O 0.38972 0.84748 0.08118 0.0
C40 C 0.43256 0.94697 0.13741 0.0
C41 C 0.35499 0.85423 0.08413 0.0
C42 C 0.5888 0.43633 0.05536 0.0
C43 C 0.66861 0.43881 0.14381 0.0
O44 O 0.57855 0.41077 0.07441 0.0
Zn45 Zn 0.6019 0.38782 0.11687 0.0
O46 O 0.61856 0.45391 0.06046 0.0
Zn47 Zn 0.63103 0.43316 0.09921 0.0
O48 O 0.65808 0.38164 0.08962 0.0
O49 O 0.62115 0.33799 0.10731 0.0
O50 O 0.66993 0.45844 0.11923 0.0
O51 O 0.64553 0.41169 0.14617 0.0
O52 O 0.56051 0.39291 0.14579 0.0
O53 O 0.58544 0.44624 0.13134 0.0
C54 C 0.65144 0.34718 0.09419 0.0
C55 C 0.56164 0.42817 0.14781 0.0
C56 C 0.07746 0.94782 0.31317 0.0
C57 C 0.1558 0.85974 0.37095 0.0
O58 O 0.0585 0.92336 0.32821 0.0
Zn59 Zn 0.06972 0.87797 0.36104 0.0
O60 O 0.11241 0.94983 0.31757 0.0
Zn61 Zn 0.11589 0.90844 0.34653 0.0
O62 O 0.09638 0.86427 0.31579 0.0
O63 O 0.04779 0.83836 0.33926 0.0
O64 O 0.16528 0.89058 0.35896 0.0
O65 O 0.12118 0.85222 0.37352 0.0
O66 O 0.0448 0.8897 0.39843 0.0
O67 O 0.08833 0.93057 0.38733 0.0
C68 C 0.07002 0.84019 0.31631 0.0
C69 C 0.06117 0.91985 0.40457 0.0
C70 C 0.58633 0.06696 0.40389 0.0
C71 C 0.6701 0.0793 0.31849 0.0
O72 O 0.57617 0.09442 0.38676 0.0
Zn73 Zn 0.59912 0.12252 0.34675 0.0
O74 O 0.61661 0.05053 0.39818 0.0
Zn75 Zn 0.62966 0.07602 0.36146 0.0
O76 O 0.65429 0.12775 0.37513 0.0
O77 O 0.61601 0.17183 0.36008 0.0
O78 O 0.67008 0.05486 0.33988 0.0
O79 O 0.64581 0.10542 0.31817 0.0
O80 O 0.55919 0.11797 0.31597 0.0
O81 O 0.5863 0.06477 0.32752 0.0
C82 C 0.6467 0.16234 0.3725 0.0
C83 C 0.56216 0.08311 0.31168 0.0
C84 C 0.43785 0.59641 0.40915 0.0
C85 C 0.43433 0.67281 0.31876 0.0
O86 O 0.4117 0.58492 0.39115 0.0
Zn87 Zn 0.38601 0.60625 0.34904 0.0
O88 O 0.45431 0.62649 0.40296 0.0
Zn89 Zn 0.43152 0.63689 0.36447 0.0
O90 O 0.37991 0.66337 0.37467 0.0
O91 O 0.33619 0.6249 0.35956 0.0
O92 O 0.45503 0.67539 0.34267 0.0
O93 O 0.40765 0.64909 0.31779 0.0
O94 O 0.39049 0.56393 0.32117 0.0
O95 O 0.44408 0.59033 0.33306 0.0
C96 C 0.34537 0.65596 0.37131 0.0
C97 C 0.42564 0.56559 0.31789 0.0
C98 C 0.92498 0.42732 0.40486 0.0
C99 C 0.84516 0.43498 0.31658 0.0
O100 O 0.93447 0.4021 0.38523 0.0
Zn101 Zn 0.9103 0.38116 0.3424 0.0
O102 O 0.89579 0.446 0.40016 0.0
Zn103 Zn 0.88263 0.42696 0.36099 0.0
O104 O 0.85396 0.37618 0.36957 0.0
O105 O 0.88939 0.33174 0.35111 0.0
O106 O 0.84449 0.45401 0.34152 0.0
O107 O 0.86738 0.40722 0.31369 0.0
O108 O 0.95175 0.38582 0.31345 0.0
O109 O 0.92852 0.43946 0.32907 0.0
C110 C 0.85943 0.34165 0.36441 0.0
C111 C 0.95169 0.42116 0.31215 0.0
C112 C 0.94881 0.3402 0.81649 0.0
C113 C 0.94235 0.4175 0.90606 0.0
O114 O 0.96781 0.33891 0.84143 0.0
Zn115 Zn 0.9406 0.37616 0.86167 0.0
O116 O 0.92092 0.36237 0.814 0.0
Zn117 Zn 0.89498 0.40442 0.8439 0.0
O118 O 0.89874 0.44643 0.81585 0.0
O119 O 0.95285 0.4232 0.83054 0.0
O120 O 0.91703 0.42774 0.88673 0.0
O121 O 0.96015 0.38789 0.90106 0.0
O122 O 0.88968 0.34716 0.86952 0.0
O123 O 0.84553 0.38398 0.85248 0.0
C124 C 0.93408 0.44673 0.81428 0.0
C125 C 0.85513 0.35331 0.86467 0.0
C126 C 0.06325 0.92302 0.81054 0.0
C127 C 0.15541 0.84811 0.86655 0.0
O128 O 0.06582 0.88781 0.81182 0.0
Zn129 Zn 0.10501 0.88604 0.84244 0.0
O130 O 0.08426 0.94316 0.82803 0.0
Zn131 Zn 0.1304 0.93281 0.86098 0.0
O132 O 0.16846 0.96078 0.84204 0.0
O133 O 0.14789 0.91276 0.81445 0.0
O134 O 0.16028 0.88286 0.87122 0.0
O135 O 0.12611 0.8375 0.85267 0.0
O136 O 0.07794 0.90766 0.88389 0.0
O137 O 0.1156 0.95213 0.89953 0.0
C138 C 0.16913 0.94122 0.81742 0.0
C139 C 0.08633 0.93335 0.90347 0.0
C140 C 0.57805 0.16869 0.8126 0.0
C141 C 0.57432 0.08832 0.90079 0.0
O142 O 0.55722 0.17043 0.83646 0.0
Zn143 Zn 0.58018 0.13053 0.85715 0.0
O144 O 0.60426 0.14452 0.81089 0.0
Zn145 Zn 0.62539 0.1 0.84054 0.0
O146 O 0.61982 0.0588 0.81163 0.0
O147 O 0.56681 0.08553 0.82472 0.0
O148 O 0.60034 0.07761 0.88236 0.0
O149 O 0.55765 0.11853 0.89545 0.0
O150 O 0.63234 0.15574 0.86777 0.0
O151 O 0.67554 0.11761 0.85103 0.0
C152 C 0.58466 0.06106 0.8088 0.0
C153 C 0.66676 0.14823 0.86378 0.0
C154 C 0.34484 0.58691 0.81843 0.0
C155 C 0.42262 0.56991 0.9075 0.0
O156 O 0.343 0.56214 0.83948 0.0
Zn157 Zn 0.38212 0.5817 0.86352 0.0
O158 O 0.36924 0.61289 0.82002 0.0
Zn159 Zn 0.41397 0.62828 0.85166 0.0
O160 O 0.45585 0.62485 0.82291 0.0
O161 O 0.42755 0.57142 0.83128 0.0
O162 O 0.43411 0.59799 0.89174 0.0
O163 O 0.39255 0.55416 0.89993 0.0
O164 O 0.35753 0.63305 0.87796 0.0
O165 O 0.39723 0.67715 0.86591 0.0
C166 C 0.45284 0.59027 0.81727 0.0
C167 C 0.36587 0.6676 0.87696 0.0
C168 C 0.9359 0.09116 0.55266 0.0
C169 C 0.948 0.171 0.64029 0.0
O170 O 0.95587 0.11947 0.5572 0.0
Zn171 Zn 0.93758 0.13354 0.59628 0.0
O172 O 0.91019 0.08299 0.57231 0.0
Zn173 Zn 0.89027 0.10935 0.6148 0.0
O174 O 0.84217 0.13234 0.606 0.0
O175 O 0.88829 0.16539 0.58737 0.0
O176 O 0.91885 0.15068 0.64328 0.0
O177 O 0.96719 0.17007 0.61548 0.0
O178 O 0.94694 0.08633 0.62832 0.0
O179 O 0.89112 0.06931 0.6445 0.0
C180 C 0.85347 0.16166 0.59259 0.0
C181 C 0.92625 0.06557 0.64556 0.0
C182 C 0.44134 0.92927 0.64003 0.0
C183 C 0.3491 0.85097 0.58685 0.0
O184 O 0.44151 0.89401 0.63784 0.0
Zn185 Zn 0.39928 0.89031 0.60974 0.0
O186 O 0.41754 0.94809 0.62413 0.0
Zn187 Zn 0.37081 0.9365 0.59271 0.0
O188 O 0.33291 0.9623 0.61358 0.0
O189 O 0.35698 0.91488 0.63987 0.0
O190 O 0.34288 0.8856 0.58272 0.0
O191 O 0.37924 0.84111 0.59988 0.0
O192 O 0.42209 0.91315 0.56723 0.0
O193 O 0.3831 0.95758 0.55398 0.0
C194 C 0.33449 0.94255 0.63808 0.0
C195 C 0.41228 0.9392 0.54849 0.0
C196 C 0.58202 0.35057 0.64109 0.0
C197 C 0.57716 0.42954 0.55229 0.0
O198 O 0.56149 0.34841 0.61705 0.0
Zn199 Zn 0.58428 0.38804 0.5962 0.0
O200 O 0.60802 0.37498 0.6428 0.0
Zn201 Zn 0.62865 0.41943 0.6126 0.0
O202 O 0.62293 0.46075 0.64117 0.0
O203 O 0.57012 0.43351 0.62818 0.0
O204 O 0.60278 0.44128 0.57072 0.0
O205 O 0.56167 0.39875 0.55769 0.0
O206 O 0.63682 0.36319 0.58615 0.0
O207 O 0.67905 0.40275 0.60224 0.0
C208 C 0.58779 0.4583 0.64394 0.0
C209 C 0.67105 0.37163 0.59004 0.0
C210 C 0.17235 0.5834 0.63785 0.0
C211 C 0.09291 0.56103 0.55055 0.0
O212 O 0.17453 0.55788 0.61746 0.0
Zn213 Zn 0.1341 0.5752 0.59358 0.0
O214 O 0.14694 0.60836 0.63609 0.0
Zn215 Zn 0.101 0.62121 0.60506 0.0
O216 O 0.05983 0.61708 0.63451 0.0
O217 O 0.08982 0.56445 0.62673 0.0
O218 O 0.08112 0.58928 0.56593 0.0
O219 O 0.12353 0.5462 0.55792 0.0
O220 O 0.15655 0.6269 0.57763 0.0
O221 O 0.11587 0.67015 0.58962 0.0
C222 C 0.06416 0.58278 0.64074 0.0
C223 C 0.14723 0.66121 0.57819 0.0
H224 H 0.15533 0.71959 0.06987 0.0
H225 H 0.36905 0.78105 0.07159 0.0
H226 H 0.24512 0.64336 0.08896 0.0
H227 H 0.27835 0.85816 0.0837 0.0
H228 H 0.32428 0.73023 0.06791 0.0
H229 H 0.20041 0.76988 0.06482 0.0
C230 C 0.18458 0.71321 0.07258 0.0
C231 C 0.19634 0.677 0.07998 0.0
C232 C 0.31416 0.75829 0.07111 0.0
C233 C 0.24825 0.73493 0.07424 0.0
C234 C 0.33969 0.78747 0.07303 0.0
C235 C 0.32754 0.82412 0.07806 0.0
C236 C 0.27601 0.76566 0.07388 0.0
C237 C 0.28907 0.83044 0.07989 0.0
C238 C 0.21028 0.74211 0.06986 0.0
C239 C 0.23469 0.67075 0.08331 0.0
N240 N 0.26471 0.80153 0.07785 0.0
N241 N 0.25924 0.69941 0.08048 0.0
H242 H 0.86551 0.23885 0.08236 0.0
H243 H 0.64651 0.27073 0.09548 0.0
H244 H 0.78567 0.1502 0.07235 0.0
H245 H 0.72365 0.35984 0.07713 0.0
H246 H 0.69718 0.22601 0.08801 0.0
H247 H 0.81428 0.28381 0.08103 0.0
C248 C 0.83734 0.22883 0.07945 0.0
C249 C 0.83005 0.19059 0.0775 0.0
C250 C 0.70291 0.25536 0.08532 0.0
C251 C 0.77111 0.24192 0.07661 0.0
C252 C 0.67395 0.2809 0.0896 0.0
C253 C 0.68069 0.31918 0.08695 0.0
C254 C 0.73906 0.26812 0.07881 0.0
C255 C 0.71699 0.33065 0.07935 0.0
C256 C 0.80806 0.25452 0.07876 0.0
C257 C 0.79281 0.17934 0.0739 0.0
N258 N 0.74478 0.30534 0.07588 0.0
N259 N 0.76482 0.20477 0.07394 0.0
H260 H 0.14314 0.78694 0.38591 0.0
H261 H 0.35783 0.72875 0.38628 0.0
H262 H 0.23237 0.86508 0.37109 0.0
H263 H 0.26876 0.65074 0.37027 0.0
H264 H 0.31213 0.77859 0.39085 0.0
H265 H 0.1888 0.73702 0.39042 0.0
C266 C 0.17237 0.7938 0.38407 0.0
C267 C 0.18383 0.83045 0.37799 0.0
C268 C 0.30256 0.75054 0.38659 0.0
C269 C 0.23639 0.773 0.38308 0.0
C270 C 0.32863 0.72191 0.38413 0.0
C271 C 0.31723 0.68532 0.37775 0.0
C272 C 0.26461 0.74268 0.38297 0.0
C273 C 0.27891 0.67844 0.37511 0.0
C274 C 0.19841 0.76513 0.38646 0.0
C275 C 0.22217 0.83735 0.37571 0.0
N276 N 0.25401 0.70684 0.37767 0.0
N277 N 0.24703 0.80891 0.37818 0.0
H278 H 0.86222 0.26507 0.36365 0.0
H279 H 0.64253 0.23892 0.37071 0.0
H280 H 0.78723 0.35656 0.37996 0.0
H281 H 0.71941 0.14905 0.38745 0.0
H282 H 0.69472 0.28273 0.37296 0.0
H283 H 0.8101 0.22191 0.37068 0.0
C284 C 0.83493 0.27609 0.36897 0.0
C285 C 0.82922 0.31456 0.37121 0.0
C286 C 0.70003 0.25344 0.37655 0.0
C287 C 0.76925 0.26533 0.37882 0.0
C288 C 0.6702 0.22842 0.37536 0.0
C289 C 0.67642 0.19015 0.37886 0.0
C290 C 0.73647 0.24009 0.38071 0.0
C291 C 0.71308 0.17825 0.38465 0.0
C292 C 0.80517 0.25144 0.37302 0.0
C293 C 0.7931 0.32717 0.3781 0.0
N294 N 0.74165 0.20298 0.38497 0.0
N295 N 0.76451 0.30272 0.38131 0.0
H296 H 0.86884 0.28007 0.87724 0.0
H297 H 0.65474 0.2204 0.88078 0.0
H298 H 0.77862 0.35753 0.86413 0.0
H299 H 0.74333 0.14314 0.8608 0.0
H300 H 0.70041 0.27026 0.88491 0.0
H301 H 0.82371 0.22951 0.88118 0.0
C302 C 0.83951 0.2866 0.87559 0.0
C303 C 0.82757 0.32325 0.87027 0.0
C304 C 0.7099 0.24235 0.87987 0.0
C305 C 0.77569 0.26521 0.87481 0.0
C306 C 0.68386 0.2137 0.8777 0.0
C307 C 0.6951 0.17734 0.87031 0.0
C308 C 0.74768 0.23475 0.87498 0.0
C309 C 0.73331 0.17066 0.86646 0.0
C310 C 0.81379 0.2576 0.87767 0.0
C311 C 0.78916 0.32978 0.86815 0.0
N312 N 0.75821 0.19909 0.86878 0.0
N313 N 0.76463 0.30107 0.87042 0.0
H314 H 0.37117 0.74408 0.87626 0.0
H315 H 0.15203 0.77184 0.8681 0.0
H316 H 0.2931 0.65503 0.89205 0.0
H317 H 0.22754 0.86333 0.88265 0.0
H318 H 0.20361 0.72858 0.87652 0.0
H319 H 0.31959 0.78856 0.87884 0.0
C320 C 0.34337 0.7339 0.8808 0.0
C321 C 0.33659 0.69565 0.88379 0.0
C322 C 0.20881 0.75813 0.87821 0.0
C323 C 0.27729 0.74636 0.88609 0.0
C324 C 0.17935 0.78285 0.87336 0.0
C325 C 0.18538 0.82132 0.87461 0.0
C326 C 0.24479 0.7719 0.88384 0.0
C327 C 0.22149 0.83391 0.88152 0.0
C328 C 0.31389 0.75931 0.88217 0.0
C329 C 0.29982 0.68417 0.88952 0.0
N330 N 0.24986 0.80933 0.88549 0.0
N331 N 0.27161 0.70929 0.89004 0.0
H332 H 0.74721 0.37898 0.59373 0.0
H333 H 0.87067 0.23161 0.57189 0.0
H334 H 0.66126 0.29878 0.57386 0.0
H335 H 0.77726 0.16352 0.59862 0.0
H336 H 0.82893 0.28465 0.5664 0.0
H337 H 0.79351 0.32941 0.5903 0.0
C338 C 0.73813 0.35112 0.58803 0.0
C339 C 0.70021 0.34321 0.58398 0.0
C340 C 0.81753 0.25824 0.57369 0.0
C341 C 0.7532 0.28604 0.57991 0.0
C342 C 0.84133 0.22771 0.57647 0.0
C343 C 0.82759 0.19296 0.58601 0.0
C344 C 0.77954 0.25414 0.58047 0.0
C345 C 0.7892 0.18973 0.59142 0.0
C346 C 0.76466 0.32275 0.58591 0.0
C347 C 0.69013 0.30637 0.57701 0.0
N348 N 0.76659 0.2199 0.5886 0.0
N349 N 0.71634 0.27918 0.57562 0.0
H350 H 0.2197 0.65018 0.56129 0.0
H351 H 0.27663 0.86457 0.57104 0.0
H352 H 0.14035 0.73759 0.57904 0.0
H353 H 0.3541 0.77463 0.58533 0.0
H354 H 0.22691 0.81925 0.56308 0.0
H355 H 0.26906 0.6965 0.55852 0.0
C356 C 0.21243 0.67918 0.56404 0.0
C357 C 0.17565 0.68987 0.57065 0.0
C358 C 0.25484 0.80945 0.5677 0.0
C359 C 0.2325 0.74318 0.56765 0.0
C360 C 0.28336 0.83529 0.57213 0.0
C361 C 0.31972 0.82345 0.57902 0.0
C362 C 0.26266 0.77137 0.56979 0.0
C363 C 0.32654 0.78508 0.58022 0.0
C364 C 0.2408 0.70559 0.56267 0.0
C365 C 0.16821 0.72797 0.574 0.0
N366 N 0.2983 0.76045 0.57571 0.0
N367 N 0.19641 0.75321 0.57265 0.0
H368 H 0.94544 0.49352 0.29403 0.0
H369 H 0.11433 0.49625 0.17345 0.0
H370 H 0.0103 0.39486 0.27659 0.0
H371 H 0.01934 0.56905 0.16707 0.0
H372 H 0.08266 0.4617 0.21535 0.0
H373 H 0.97926 0.52536 0.25264 0.0
C374 C 0.96711 0.47859 0.28176 0.0
C375 C 0.97495 0.44133 0.28892 0.0
C376 C 0.06879 0.48512 0.20457 0.0
C377 C 0.01391 0.47794 0.24111 0.0
C378 C 0.0868 0.50484 0.18068 0.0
C379 C 0.06946 0.53558 0.16658 0.0
C380 C 0.03357 0.49672 0.21487 0.0
C381 C 0.03378 0.54547 0.17702 0.0
C382 C 0.98623 0.49678 0.25791 0.0
C383 C 1.00327 0.42354 0.27189 0.0
N384 N 0.01726 0.52638 0.20062 0.0
N385 N 0.02182 0.44203 0.24882 0.0
H386 H 0.01079 0.10974 0.17058 0.0
H387 H 0.00747 0.93931 0.28965 0.0
H388 H 0.94133 0.01287 0.15957 0.0
H389 H 0.10528 0.00779 0.2802 0.0
H390 H 0.97883 0.9727 0.24641 0.0
H391 H 0.04298 0.07843 0.21408 0.0
C392 C 1.00253 0.08187 0.17704 0.0
C393 C 0.97326 0.06398 0.16127 0.0
C394 C 1.00654 0.98055 0.2538 0.0
C395 C 0.00932 0.02852 0.21136 0.0
C396 C 0.02286 0.96165 0.27872 0.0
C397 C 0.05896 0.97064 0.28868 0.0
C398 C 0.02608 0.00913 0.2387 0.0
C399 C 0.07745 0.99985 0.27331 0.0
C400 C 0.02086 0.06408 0.20189 0.0
C401 C 0.96371 0.02788 0.17083 0.0
N402 N 0.06078 0.01813 0.24911 0.0
N403 N 0.98137 0.01161 0.19532 0.0
H404 H 0.57416 0.01361 0.28869 0.0
H405 H 0.4041 0.00725 0.16951 0.0
H406 H 0.502 0.10841 0.27719 0.0
H407 H 0.50332 0.94086 0.15986 0.0
H408 H 0.43445 0.04199 0.21199 0.0
H409 H 0.54259 0.98294 0.24556 0.0
C410 C 0.55142 0.02795 0.27729 0.0
C411 C 0.5408 0.06377 0.28671 0.0
C412 C 0.44955 0.02 0.20031 0.0
C413 C 0.50434 0.02845 0.23685 0.0
C414 C 0.4323 1.00018 0.17607 0.0
C415 C 0.45115 0.97103 0.16098 0.0
C416 C 0.48559 0.01012 0.20991 0.0
C417 C 0.48764 0.9631 0.17061 0.0
C418 C 0.53355 0.01043 0.25243 0.0
C419 C 0.51118 0.08084 0.27073 0.0
N420 N 0.50342 0.98221 0.19456 0.0
N421 N 0.49385 0.06297 0.24663 0.0
H422 H 0.56965 0.49987 0.16732 0.0
H423 H 0.39975 0.50334 0.28698 0.0
H424 H 0.50216 0.40249 0.18263 0.0
H425 H 0.49549 0.57501 0.29432 0.0
H426 H 0.43131 0.46889 0.245 0.0
H427 H 0.53628 0.53152 0.20907 0.0
C428 C 0.54751 0.48519 0.1792 0.0
C429 C 0.53878 0.44834 0.17133 0.0
C430 C 0.44539 0.49201 0.25602 0.0
C431 C 0.50033 0.48472 0.21956 0.0
C432 C 0.42745 0.51167 0.27998 0.0
C433 C 0.445 0.5421 0.29435 0.0
C434 C 0.48079 0.50336 0.24594 0.0
C435 C 0.48087 0.55167 0.28417 0.0
C436 C 0.52864 0.50326 0.20327 0.0
C437 C 0.50988 0.43085 0.18788 0.0
N438 N 0.49733 0.53265 0.2605 0.0
N439 N 0.4916 0.44922 0.21116 0.0
H440 H 1.00025 0.60693 0.67047 0.0
H441 H 0.00722 0.44433 0.79741 0.0
H442 H 0.07928 0.51677 0.66905 0.0
H443 H 0.90542 0.50355 0.77814 0.0
H444 H 0.0377 0.47878 0.75568 0.0
H445 H 0.96795 0.5763 0.7142 0.0
C446 C 0.01071 0.58071 0.67921 0.0
C447 C 0.04248 0.56437 0.66592 0.0
C448 C 0.00873 0.48441 0.76065 0.0
C449 C 1.00623 0.52975 0.71621 0.0
C450 C 0.99131 0.46491 0.78469 0.0
C451 C 0.95356 0.47087 0.79133 0.0
C452 C 0.98854 0.51049 0.74312 0.0
C453 C 0.93451 0.49793 0.7738 0.0
C454 C 0.9923 0.5633 0.70413 0.0
C455 C 0.05483 0.53039 0.6783 0.0
N456 N 0.95219 0.51676 0.75047 0.0
N457 N 0.0369 0.51446 0.70277 0.0
H458 H 0.05018 0.89958 0.75099 0.0
H459 H 0.90119 0.05051 0.70426 0.0
H460 H 0.02312 0.98752 0.8154 0.0
H461 H 0.9908 0.0252 0.6409 0.0
H462 H 0.93278 0.01429 0.74508 0.0
H463 H 0.01548 0.93245 0.70988 0.0
C464 C 0.03637 0.92547 0.75661 0.0
C465 C 0.03933 0.94083 0.78666 0.0
C466 C 0.94523 0.01644 0.72212 0.0
C467 C 0.99934 0.97802 0.74 0.0
C468 C 0.92718 0.03678 0.69878 0.0
C469 C 0.94338 0.04071 0.66912 0.0
C470 C 0.97913 0.99896 0.71549 0.0
C471 C 0.9774 0.02281 0.66345 0.0
C472 C 0.01692 0.94425 0.73312 0.0
C473 C 0.02144 0.97475 0.79255 0.0
N474 N 0.99402 1.00238 0.68635 0.0
N475 N 1.00186 0.99208 0.7695 0.0
H476 H 0.60892 0.99921 0.77646 0.0
H477 H 0.4359 1.00102 0.6599 0.0
H478 H 0.51452 0.07219 0.78648 0.0
H479 H 0.50112 0.90169 0.67344 0.0
H480 H 0.47133 0.03141 0.70114 0.0
H481 H 0.5757 0.96611 0.73456 0.0
C482 C 0.5812 0.00813 0.77004 0.0
C483 C 0.56449 0.03851 0.78514 0.0
C484 C 0.47802 1.003 0.69505 0.0
C485 C 0.52683 1.00134 0.73689 0.0
C486 C 0.45797 0.98565 0.67128 0.0
C487 C 0.46545 0.94863 0.66311 0.0
C488 C 0.50623 0.98353 0.71071 0.0
C489 C 0.49433 0.93022 0.67898 0.0
C490 C 0.56231 0.98924 0.74615 0.0
C491 C 0.52852 0.04886 0.77574 0.0
N492 N 0.51377 0.94788 0.702 0.0
N493 N 0.51113 0.03059 0.75212 0.0
H494 H 0.51595 0.45022 0.66334 0.0
H495 H 0.51502 0.61691 0.78651 0.0
H496 H 0.61344 0.51768 0.6787 0.0
H497 H 0.44168 0.52221 0.79107 0.0
H498 H 0.54849 0.58679 0.74321 0.0
H499 H 0.48447 0.48323 0.70535 0.0
C500 C 0.53069 0.47226 0.6753 0.0
C501 C 0.56753 0.48104 0.66742 0.0
C502 C 0.52517 0.57267 0.75389 0.0
C503 C 0.53141 0.51905 0.71595 0.0
C504 C 0.50608 0.58979 0.77859 0.0
C505 C 0.47551 0.57207 0.79259 0.0
C506 C 0.51312 0.53796 0.74277 0.0
C507 C 0.46514 0.53695 0.78123 0.0
C508 C 0.51271 0.49095 0.6995 0.0
C509 C 0.58508 0.50989 0.684 0.0
N510 N 0.48366 0.52129 0.75695 0.0
N511 N 0.56686 0.5279 0.70748 0.0
H512 H 0.05333 0.73672 0.13596 0.0
H513 H 0.0465 0.76865 0.31856 0.0
H514 H 0.09224 0.65338 0.20073 0.0
H515 H 0.08382 0.85427 0.25535 0.0
H516 H 0.04364 0.72505 0.27452 0.0
H517 H 0.04497 0.77981 0.17976 0.0
C518 C 0.05977 0.72752 0.15945 0.0
C519 C 0.07385 0.6919 0.16504 0.0
C520 C 0.05209 0.75352 0.27046 0.0
C521 C 0.06364 0.74009 0.21449 0.0
C522 C 0.05362 0.77824 0.29533 0.0
C523 C 0.06579 0.81466 0.29027 0.0
C524 C 0.06188 0.7659 0.24058 0.0
C525 C 0.07481 0.82611 0.25999 0.0
C526 C 0.05505 0.75195 0.1842 0.0
C527 C 0.08182 0.68096 0.19568 0.0
N528 N 0.07259 0.80169 0.23606 0.0
N529 N 0.07648 0.70508 0.21949 0.0
H530 H 0.80234 0.02013 0.16024 0.0
H531 H 0.69675 0.138 0.28643 0.0
H532 H 0.83226 0.13333 0.18248 0.0
H533 H 0.70724 0.01905 0.2959 0.0
H534 H 0.74212 0.13669 0.2443 0.0
H535 H 0.76259 0.01868 0.20668 0.0
C536 C 0.80053 0.04457 0.1749 0.0
C537 C 0.82021 0.07699 0.16757 0.0
C538 C 0.73469 0.11092 0.25576 0.0
C539 C 0.77534 0.07547 0.22001 0.0
C540 C 0.70871 0.11161 0.27955 0.0
C541 C 0.69834 0.07853 0.29425 0.0
C542 C 0.74976 0.07684 0.24638 0.0
C543 C 0.71478 0.04508 0.28494 0.0
C544 C 0.77821 0.04361 0.20138 0.0
C545 C 0.81741 0.10782 0.18734 0.0
N546 N 0.73958 0.04497 0.26114 0.0
N547 N 0.79502 0.10642 0.2126 0.0
H548 H 0.42234 0.65624 0.25785 0.0
H549 H 0.43168 0.85803 0.19838 0.0
H550 H 0.46285 0.74255 0.31902 0.0
H551 H 0.46805 0.7688 0.13844 0.0
H552 H 0.43708 0.81652 0.24344 0.0
H553 H 0.43268 0.69727 0.21306 0.0
C554 C 0.43342 0.68384 0.26173 0.0
C555 C 0.44142 0.69648 0.29189 0.0
C556 C 0.44436 0.80631 0.22044 0.0
C557 C 0.45301 0.74293 0.24144 0.0
C558 C 0.44099 0.82972 0.19487 0.0
C559 C 0.44911 0.81637 0.16497 0.0
C560 C 0.45484 0.76929 0.21568 0.0
C561 C 0.4615 0.7798 0.16132 0.0
C562 C 0.43967 0.70692 0.2363 0.0
C563 C 0.45625 0.73209 0.29596 0.0
N564 N 0.46332 0.75708 0.18648 0.0
N565 N 0.46101 0.75452 0.27091 0.0
H566 H 0.65468 0.42924 0.20543 0.0
H567 H 0.85908 0.42742 0.2548 0.0
H568 H 0.7382 0.46775 0.14071 0.0
H569 H 0.77601 0.46483 0.32036 0.0
H570 H 0.81549 0.43904 0.21201 0.0
H571 H 0.69839 0.43904 0.24846 0.0
C572 C 0.68219 0.43995 0.20042 0.0
C573 C 0.69337 0.44721 0.16974 0.0
C574 C 0.80713 0.44528 0.23574 0.0
C575 C 0.74292 0.45816 0.21823 0.0
C576 C 0.83169 0.4383 0.26004 0.0
C577 C 0.82059 0.44471 0.29087 0.0
C578 C 0.77116 0.45767 0.24266 0.0
C579 C 0.78524 0.45937 0.29673 0.0
C580 C 0.70682 0.44591 0.22487 0.0
C581 C 0.72889 0.46164 0.16421 0.0
N582 N 0.76126 0.46465 0.27274 0.0
N583 N 0.7529 0.46594 0.18831 0.0
H584 H 0.97735 0.24025 0.63577 0.0
H585 H 0.98113 0.27217 0.81926 0.0
H586 H 0.94365 0.15651 0.70208 0.0
H587 H 0.93983 0.35465 0.75478 0.0
H588 H 0.9927 0.23033 0.77513 0.0
H589 H 0.98883 0.28324 0.67932 0.0
C590 C 0.97309 0.23084 0.65954 0.0
C591 C 0.95897 0.19538 0.66571 0.0
C592 C 0.98173 0.25788 0.7708 0.0
C593 C 0.9728 0.24327 0.71476 0.0
C594 C 0.97507 0.28158 0.79576 0.0
C595 C 0.95883 0.31633 0.79038 0.0
C596 C 0.97279 0.26961 0.74054 0.0
C597 C 0.95163 0.3276 0.75969 0.0
C598 C 0.97963 0.25517 0.68414 0.0
C599 C 0.95388 0.18405 0.69664 0.0
N600 N 0.95853 0.3041 0.73573 0.0
N601 N 0.96071 0.20811 0.72021 0.0
H602 H 0.26652 0.97546 0.63713 0.0
H603 H 0.23971 0.96777 0.82123 0.0
H604 H 0.35029 0.93158 0.69928 0.0
H605 H 0.15311 0.93845 0.75593 0.0
H606 H 0.28193 0.97895 0.77705 0.0
H607 H 0.22604 0.98647 0.68228 0.0
C608 C 0.27647 0.96863 0.66033 0.0
C609 C 0.31118 0.95187 0.66474 0.0
C610 C 0.25345 0.97072 0.77261 0.0
C611 C 0.26604 0.96521 0.71575 0.0
C612 C 0.22957 0.96434 0.79757 0.0
C613 C 0.19348 0.95155 0.79181 0.0
C614 C 0.24048 0.96511 0.7421 0.0
C615 C 0.18116 0.94758 0.76102 0.0
C616 C 0.25355 0.975 0.68587 0.0
C617 C 0.32322 0.94376 0.69508 0.0
N618 N 0.20478 0.95427 0.73712 0.0
N619 N 0.30048 0.95039 0.71962 0.0
H620 H 0.58966 0.15583 0.75108 0.0
H621 H 0.59542 0.36288 0.70263 0.0
H622 H 0.55419 0.24004 0.81632 0.0
H623 H 0.55509 0.28036 0.63776 0.0
H624 H 0.58767 0.31814 0.74528 0.0
H625 H 0.58421 0.20107 0.70862 0.0
C626 C 0.58059 0.18384 0.75632 0.0
C627 C 0.57258 0.19463 0.78696 0.0
C628 C 0.58017 0.31015 0.7217 0.0
C629 C 0.56682 0.24592 0.73919 0.0
C630 C 0.58489 0.33536 0.69748 0.0
C631 C 0.57613 0.32489 0.66688 0.0
C632 C 0.56761 0.27424 0.71487 0.0
C633 C 0.56216 0.28925 0.66118 0.0
C634 C 0.57723 0.20938 0.73221 0.0
C635 C 0.56057 0.23094 0.79283 0.0
N636 N 0.55887 0.26479 0.68502 0.0
N637 N 0.55865 0.25571 0.76908 0.0
H638 H 0.30604 0.52735 0.79676 0.0
H639 H 0.19084 0.64302 0.67332 0.0
H640 H 0.3259 0.64402 0.78022 0.0
H641 H 0.21307 0.52603 0.66117 0.0
H642 H 0.23345 0.64386 0.71773 0.0
H643 H 0.26414 0.52627 0.75174 0.0
C644 C 0.30144 0.5527 0.78369 0.0
C645 C 0.3193 0.58582 0.79198 0.0
C646 C 0.22905 0.6181 0.7052 0.0
C647 C 0.27178 0.58475 0.7411 0.0
C648 C 0.20473 0.61754 0.68006 0.0
C649 C 0.19861 0.58438 0.66378 0.0
C650 C 0.24671 0.58515 0.71426 0.0
C651 C 0.21732 0.55216 0.67316 0.0
C652 C 0.27783 0.55199 0.75802 0.0
C653 C 0.31272 0.6179 0.77435 0.0
N654 N 0.24047 0.55325 0.69809 0.0
N655 N 0.2892 0.61664 0.74972 0.0
H656 H 0.08751 0.51194 0.04372 0.0
H657 H 0.93012 0.49219 0.91248 0.0
H658 H 0.02781 0.60494 0.00444 0.0
H659 H 0.98616 0.39924 0.95545 0.0
H660 H 0.96428 0.53416 0.94707 0.0
H661 H 0.05192 0.47021 0.01005 0.0
C662 C 0.06746 0.52362 0.02759 0.0
C663 C 0.06044 0.56187 0.02696 0.0
C664 C 0.96879 0.50453 0.94912 0.0
C665 C 0.01909 0.51443 -0.01098 0.0
C666 C 0.94895 0.48058 0.92967 0.0
C667 C 0.95558 0.44228 0.93098 0.0
C668 C 0.99533 0.48993 0.96989 0.0
C669 C 0.9805 0.42868 0.95348 0.0
C670 C 0.0468 0.49979 0.00867 0.0
C671 C 0.0339 0.57554 0.00582 0.0
N672 N 0.99975 0.45251 0.97185 0.0
N673 N 0.014 0.55181 -0.01217 0.0
H674 H 0.01103 0.92151 0.90667 0.0
H675 H 0.9885 0.08187 0.03368 0.0
H676 H 0.1024 0.97412 0.95486 0.0
H677 H 0.89699 0.01137 0.00623 0.0
H678 H 0.02951 0.04595 -1e-05 0.0
H679 H 0.96755 0.95479 0.94084 0.0
C680 C 0.02192 0.93932 0.92489 0.0
C681 C 0.06025 0.94543 0.92781 0.0
C682 C 1.0004 0.03843 0.00123 0.0
C683 C 0.01109 0.98407 0.96605 0.0
C684 C 0.9769 0.05923 0.02017 0.0
C685 C 0.93938 0.04943 0.0229 0.0
C686 C 0.98623 0.00775 -0.01518 0.0
C687 C 0.92586 0.0197 0.00492 0.0
C688 C 0.99716 0.95859 0.94411 0.0
C689 C 0.07299 0.969 0.95158 0.0
N690 N 0.94936 0.99973 -0.0133 0.0
N691 N 0.04845 0.98779 0.96953 0.0
H692 H 0.49591 0.89651 0.00104 0.0
H693 H 0.52688 0.10657 0.94783 0.0
H694 H 0.43214 0.98892 0.0365 0.0
H695 H 0.58729 0.01397 0.90877 0.0
H696 H 0.4937 0.06392 -0.01804 0.0
H697 H 0.52916 0.93884 0.96657 0.0
C698 C 0.48852 0.92568 0.00123 0.0
C699 C 0.46137 0.93931 0.02178 0.0
C700 C 0.51436 0.0529 0.96608 0.0
C701 C 0.49982 0.98795 -0.01717 0.0
C702 C 0.53354 0.07726 0.94674 0.0
C703 C 0.55972 0.06371 0.9253 0.0
C704 C 0.52132 0.01469 0.96394 0.0
C705 C 0.56737 0.02556 0.92501 0.0
C706 C 0.5077 0.94985 -0.01831 0.0
C707 C 0.45281 0.97725 0.02097 0.0
N708 N 0.54797 1.00227 0.94389 0.0
N709 N 0.47227 1.00035 0.002 0.0
H710 H 0.49562 0.58441 0.9204 0.0
H711 H 0.51433 0.42272 0.04735 0.0
H712 H 0.40353 0.51512 0.94849 0.0
H713 H 0.60738 0.4811 0.0068 0.0
H714 H 0.47266 0.45582 0.01163 0.0
H715 H 0.53635 0.5486 0.95463 0.0
C716 C 0.48387 0.56203 0.93412 0.0
C717 C 0.44622 0.55263 0.93154 0.0
C718 C 0.50226 0.46102 0.01038 0.0
C719 C 0.49267 0.51113 0.97025 0.0
C720 C 0.52604 0.44188 0.03052 0.0
C721 C 0.56425 0.44948 0.0302 0.0
C722 C 0.51696 0.4879 -0.00999 0.0
C723 C 0.57801 0.47473 0.00808 0.0
C724 C 0.50719 0.54131 0.95339 0.0
C725 C 0.43248 0.52318 0.94969 0.0
N726 N 0.55433 0.4933 -0.0109 0.0
N727 N 0.45576 0.50336 0.96823 0.0
H728 H 0.07515 0.99363 0.41394 0.0
H729 H 0.92187 0.01651 0.54766 0.0
H730 H 0.00986 0.90204 0.44898 0.0
H731 H 0.97574 0.10803 0.50089 0.0
H732 H 0.95289 0.97352 0.51172 0.0
H733 H 0.04067 0.03555 0.44807 0.0
C734 C 0.05399 0.98226 0.42918 0.0
C735 C 0.04527 0.94438 0.42857 0.0
C736 C 0.9575 1.00307 0.50913 0.0
C737 C 1.00521 0.99214 0.46717 0.0
C738 C 0.93947 0.02757 0.52937 0.0
C739 C 0.94658 0.06575 0.52736 0.0
C740 C 0.98273 0.01706 0.48697 0.0
C741 C 0.96987 0.0787 0.50346 0.0
C742 C 0.03398 1.00624 0.44838 0.0
C743 C 0.01735 0.93115 0.44863 0.0
N744 N 0.98743 0.05438 0.48443 0.0
N745 N 0.99819 0.95505 0.46706 0.0
H746 H 0.51287 0.08307 0.41332 0.0
H747 H 0.48545 0.92131 0.53923 0.0
H748 H 0.60213 0.01335 0.4468 0.0
H749 H 0.39575 0.98726 0.50148 0.0
H750 H 0.52858 0.95307 0.50413 0.0
H751 H 0.4696 0.0488 0.44645 0.0
C752 C 0.52345 0.06095 0.428 0.0
C753 C 0.56107 0.05095 0.42726 0.0
C754 C 0.49938 0.9603 0.50334 0.0
C755 C 0.51177 0.0112 0.46465 0.0
C756 C 0.47473 0.94191 0.52313 0.0
C757 C 0.4371 0.95196 0.52344 0.0
C758 C 0.48617 0.98886 0.48389 0.0
C759 C 0.42466 0.97895 0.50223 0.0
C760 C 0.4987 0.04113 0.44664 0.0
C761 C 0.57327 0.02187 0.44656 0.0
N762 N 0.44922 0.99673 0.48352 0.0
N763 N 0.54863 1.00289 0.46438 0.0
H764 H 0.53219 0.40885 0.50425 0.0
H765 H 0.48274 0.61744 0.45713 0.0
H766 H 0.58437 0.50484 0.54584 0.0
H767 H 0.4294 0.52142 0.41668 0.0
H768 H 0.51884 0.5767 0.49095 0.0
H769 H 0.49554 0.44969 0.47098 0.0
C770 C 0.53635 0.43857 0.50603 0.0
C771 C 0.56121 0.45355 0.52794 0.0
C772 C 0.49903 0.56451 0.47489 0.0
C773 C 0.51878 0.50044 0.49036 0.0
C774 C 0.47819 0.58775 0.45574 0.0
C775 C 0.45323 0.5727 0.43395 0.0
C776 C 0.49503 0.52593 0.4721 0.0
C777 C 0.44828 0.53413 0.43322 0.0
C778 C 0.51518 0.46187 0.48719 0.0
C779 C 0.56561 0.49217 0.52917 0.0
N780 N 0.46936 0.51199 0.45183 0.0
N781 N 0.54428 0.51436 0.51081 0.0
H782 H 0.99966 0.41373 0.41127 0.0
H783 H 0.01962 0.57444 0.53834 0.0
H784 H 0.90699 0.46881 0.45549 0.0
H785 H 0.1117 0.50488 0.51066 0.0
H786 H 0.97863 0.53759 0.50527 0.0
H787 H 0.04193 0.44602 0.44708 0.0
C788 C 0.98818 0.4319 0.42897 0.0
C789 C 0.9499 0.439 0.43024 0.0
C790 C 0.00783 0.53042 0.50637 0.0
C791 C 0.99779 0.4765 0.47046 0.0
C792 C 0.03131 0.55174 0.52498 0.0
C793 C 0.06906 0.54265 0.52729 0.0
C794 C 0.02227 0.49996 0.48984 0.0
C795 C 0.08268 0.51275 0.50961 0.0
C796 C 0.01228 0.45059 0.44915 0.0
C797 C 0.93641 0.46295 0.45345 0.0
N798 N 0.05925 0.49237 0.49163 0.0
N799 N 0.96037 0.48118 0.47239 0.0
loop_
_geom_bond_atom_site_label_1
_geom_bond_atom_site_label_2
_geom_bond_distance
_geom_bond_site_symmetry_2
_ccdc_geom_bond_type
C0 O2 1.247 . S
C0 O4 1.258 . S
C1 O8 1.247 . S
C1 O9 1.258 . S
O2 C0 1.247 . S
O2 Zn3 2.028 . S
Zn3 O2 2.028 . S
Zn3 O7 2.035 . S
Zn3 O9 2.035 . S
Zn3 O10 2.028 . S
O4 C0 1.258 . S
O4 Zn5 2.035 . S
Zn5 O4 2.035 . S
Zn5 O6 2.028 . S
Zn5 O8 2.028 . S
Zn5 O11 2.035 . S
O6 Zn5 2.028 . S
O6 C12 1.247 . S
O7 Zn3 2.035 . S
O7 C12 1.258 . S
O8 C1 1.247 . S
O8 Zn5 2.028 . S
O9 C1 1.258 . S
O9 Zn3 2.035 . S
O10 Zn3 2.028 . S
O10 C13 1.247 . S
O11 Zn5 2.035 . S
O11 C13 1.258 . S
C12 O6 1.247 . S
C12 O7 1.258 . S
C13 O10 1.247 . S
C13 O11 1.258 . S
C14 O16 1.247 . S
C14 O18 1.258 . S
C15 O22 1.247 . S
C15 O23 1.258 . S
O16 C14 1.247 . S
O16 Zn17 2.028 . S
Zn17 O16 2.028 . S
Zn17 O21 2.035 . S
Zn17 O23 2.035 . S
Zn17 O24 2.028 . S
O18 C14 1.258 . S
O18 Zn19 2.035 . S
Zn19 O18 2.035 . S
Zn19 O20 2.028 . S
Zn19 O22 2.028 . S
Zn19 O25 2.035 . S
O20 Zn19 2.028 . S
O20 C26 1.247 . S
O21 Zn17 2.035 . S
O21 C26 1.258 . S
O22 C15 1.247 . S
O22 Zn19 2.028 . S
O23 C15 1.258 . S
O23 Zn17 2.035 . S
O24 Zn17 2.028 . S
O24 C27 1.247 . S
O25 Zn19 2.035 . S
O25 C27 1.258 . S
C26 O20 1.247 . S
C26 O21 1.258 . S
C27 O24 1.247 . S
C27 O25 1.258 . S
C28 O30 1.247 . S
C28 O32 1.258 . S
C29 O36 1.247 . S
C29 O37 1.258 . S
O30 C28 1.247 . S
O30 Zn31 2.028 . S
Zn31 O30 2.028 . S
Zn31 O35 2.035 . S
Zn31 O37 2.035 . S
Zn31 O38 2.028 . S
O32 C28 1.258 . S
O32 Zn33 2.035 . S
Zn33 O32 2.035 . S
Zn33 O34 2.028 . S
Zn33 O36 2.028 . S
Zn33 O39 2.035 . S
O34 Zn33 2.028 . S
O34 C40 1.247 . S
O35 Zn31 2.035 . S
O35 C40 1.258 . S
O36 C29 1.247 . S
O36 Zn33 2.028 . S
O37 C29 1.258 . S
O37 Zn31 2.035 . S
O38 Zn31 2.028 . S
O38 C41 1.247 . S
O39 Zn33 2.035 . S
O39 C41 1.258 . S
C40 O34 1.247 . S
C40 O35 1.258 . S
C41 O38 1.247 . S
C41 O39 1.258 . S
C42 O44 1.247 . S
C42 O46 1.258 . S
C43 O50 1.247 . S
C43 O51 1.258 . S
O44 C42 1.247 . S
O44 Zn45 2.028 . S
Zn45 O44 2.028 . S
Zn45 O49 2.035 . S
Zn45 O51 2.035 . S
Zn45 O52 2.028 . S
O46 C42 1.258 . S
O46 Zn47 2.035 . S
Zn47 O46 2.035 . S
Zn47 O48 2.028 . S
Zn47 O50 2.028 . S
Zn47 O53 2.035 . S
O48 Zn47 2.028 . S
O48 C54 1.247 . S
O49 Zn45 2.035 . S
O49 C54 1.258 . S
O50 C43 1.247 . S
O50 Zn47 2.028 . S
O51 C43 1.258 . S
O51 Zn45 2.035 . S
O52 Zn45 2.028 . S
O52 C55 1.247 . S
O53 Zn47 2.035 . S
O53 C55 1.258 . S
C54 O48 1.247 . S
C54 O49 1.258 . S
C55 O52 1.247 . S
C55 O53 1.258 . S
C56 O58 1.247 . S
C56 O60 1.258 . S
C57 O64 1.247 . S
C57 O65 1.258 . S
O58 C56 1.247 . S
O58 Zn59 2.028 . S
Zn59 O58 2.028 . S
Zn59 O63 2.035 . S
Zn59 O65 2.035 . S
Zn59 O66 2.028 . S
O60 C56 1.258 . S
O60 Zn61 2.035 . S
Zn61 O60 2.035 . S
Zn61 O62 2.028 . S
Zn61 O64 2.028 . S
Zn61 O67 2.035 . S
O62 Zn61 2.028 . S
O62 C68 1.247 . S
O63 Zn59 2.035 . S
O63 C68 1.258 . S
O64 C57 1.247 . S
O64 Zn61 2.028 . S
O65 C57 1.258 . S
O65 Zn59 2.035 . S
O66 Zn59 2.028 . S
O66 C69 1.247 . S
O67 Zn61 2.035 . S
O67 C69 1.258 . S
C68 O62 1.247 . S
C68 O63 1.258 . S
C69 O66 1.247 . S
C69 O67 1.258 . S
C70 O72 1.247 . S
C70 O74 1.258 . S
C71 O78 1.247 . S
C71 O79 1.258 . S
O72 C70 1.247 . S
O72 Zn73 2.028 . S
Zn73 O72 2.028 . S
Zn73 O77 2.035 . S
Zn73 O79 2.035 . S
Zn73 O80 2.028 . S
O74 C70 1.258 . S
O74 Zn75 2.035 . S
Zn75 O74 2.035 . S
Zn75 O76 2.028 . S
Zn75 O78 2.028 . S
Zn75 O81 2.035 . S
O76 Zn75 2.028 . S
O76 C82 1.247 . S
O77 Zn73 2.035 . S
O77 C82 1.258 . S
O78 C71 1.247 . S
O78 Zn75 2.028 . S
O79 C71 1.258 . S
O79 Zn73 2.035 . S
O80 Zn73 2.028 . S
O80 C83 1.247 . S
O81 Zn75 2.035 . S
O81 C83 1.258 . S
C82 O76 1.247 . S
C82 O77 1.258 . S
C83 O80 1.247 . S
C83 O81 1.258 . S
C84 O86 1.247 . S
C84 O88 1.258 . S
C85 O92 1.247 . S
C85 O93 1.258 . S
O86 C84 1.247 . S
O86 Zn87 2.028 . S
Zn87 O86 2.028 . S
Zn87 O91 2.035 . S
Zn87 O93 2.035 . S
Zn87 O94 2.028 . S
O88 C84 1.258 . S
O88 Zn89 2.035 . S
Zn89 O88 2.035 . S
Zn89 O90 2.028 . S
Zn89 O92 2.028 . S
Zn89 O95 2.035 . S
O90 Zn89 2.028 . S
O90 C96 1.247 . S
O91 Zn87 2.035 . S
O91 C96 1.258 . S
O92 C85 1.247 . S
O92 Zn89 2.028 . S
O93 C85 1.258 . S
O93 Zn87 2.035 . S
O94 Zn87 2.028 . S
O94 C97 1.247 . S
O95 Zn89 2.035 . S
O95 C97 1.258 . S
C96 O90 1.247 . S
C96 O91 1.258 . S
C97 O94 1.247 . S
C97 O95 1.258 . S
C98 O100 1.247 . S
C98 O102 1.258 . S
C99 O106 1.247 . S
C99 O107 1.258 . S
O100 C98 1.247 . S
O100 Zn101 2.028 . S
Zn101 O100 2.028 . S
Zn101 O105 2.035 . S
Zn101 O107 2.035 . S
Zn101 O108 2.028 . S
O102 C98 1.258 . S
O102 Zn103 2.035 . S
Zn103 O102 2.035 . S
Zn103 O104 2.028 . S
Zn103 O106 2.028 . S
Zn103 O109 2.035 . S
O104 Zn103 2.028 . S
O104 C110 1.247 . S
O105 Zn101 2.035 . S
O105 C110 1.258 . S
O106 C99 1.247 . S
O106 Zn103 2.028 . S
O107 C99 1.258 . S
O107 Zn101 2.035 . S
O108 Zn101 2.028 . S
O108 C111 1.247 . S
O109 Zn103 2.035 . S
O109 C111 1.258 . S
C110 O104 1.247 . S
C110 O105 1.258 . S
C111 O108 1.247 . S
C111 O109 1.258 . S
C112 O114 1.247 . S
C112 O116 1.258 . S
C113 O120 1.247 . S
C113 O121 1.258 . S
O114 C112 1.247 . S
O114 Zn115 2.028 . S
Zn115 O114 2.028 . S
Zn115 O119 2.035 . S
Zn115 O121 2.035 . S
Zn115 O122 2.028 . S
O116 C112 1.258 . S
O116 Zn117 2.035 . S
Zn117 O116 2.035 . S
Zn117 O118 2.028 . S
Zn117 O120 2.028 . S
Zn117 O123 2.035 . S
O118 Zn117 2.028 . S
O118 C124 1.247 . S
O119 Zn115 2.035 . S
O119 C124 1.258 . S
O120 C113 1.247 . S
O120 Zn117 2.028 . S
O121 C113 1.258 . S
O121 Zn115 2.035 . S
O122 Zn115 2.028 . S
O122 C125 1.247 . S
O123 Zn117 2.035 . S
O123 C125 1.258 . S
C124 O118 1.247 . S
C124 O119 1.258 . S
C125 O122 1.247 . S
C125 O123 1.258 . S
C126 O128 1.247 . S
C126 O130 1.258 . S
C127 O134 1.247 . S
C127 O135 1.258 . S
O128 C126 1.247 . S
O128 Zn129 2.028 . S
Zn129 O128 2.028 . S
Zn129 O133 2.035 . S
Zn129 O135 2.035 . S
Zn129 O136 2.028 . S
O130 C126 1.258 . S
O130 Zn131 2.035 . S
Zn131 O130 2.035 . S
Zn131 O132 2.028 . S
Zn131 O134 2.028 . S
Zn131 O137 2.035 . S
O132 Zn131 2.028 . S
O132 C138 1.247 . S
O133 Zn129 2.035 . S
O133 C138 1.258 . S
O134 C127 1.247 . S
O134 Zn131 2.028 . S
O135 C127 1.258 . S
O135 Zn129 2.035 . S
O136 Zn129 2.028 . S
O136 C139 1.247 . S
O137 Zn131 2.035 . S
O137 C139 1.258 . S
C138 O132 1.247 . S
C138 O133 1.258 . S
C139 O136 1.247 . S
C139 O137 1.258 . S
C140 O142 1.247 . S
C140 O144 1.258 . S
C141 O148 1.247 . S
C141 O149 1.258 . S
O142 C140 1.247 . S
O142 Zn143 2.028 . S
Zn143 O142 2.028 . S
Zn143 O147 2.035 . S
Zn143 O149 2.035 . S
Zn143 O150 2.028 . S
O144 C140 1.258 . S
O144 Zn145 2.035 . S
Zn145 O144 2.035 . S
Zn145 O146 2.028 . S
Zn145 O148 2.028 . S
Zn145 O151 2.035 . S
O146 Zn145 2.028 . S
O146 C152 1.247 . S
O147 Zn143 2.035 . S
O147 C152 1.258 . S
O148 C141 1.247 . S
O148 Zn145 2.028 . S
O149 C141 1.258 . S
O149 Zn143 2.035 . S
O150 Zn143 2.028 . S
O150 C153 1.247 . S
O151 Zn145 2.035 . S
O151 C153 1.258 . S
C152 O146 1.247 . S
C152 O147 1.258 . S
C153 O150 1.247 . S
C153 O151 1.258 . S
C154 O156 1.247 . S
C154 O158 1.258 . S
C155 O162 1.247 . S
C155 O163 1.258 . S
O156 C154 1.247 . S
O156 Zn157 2.028 . S
Zn157 O156 2.028 . S
Zn157 O161 2.035 . S
Zn157 O163 2.035 . S
Zn157 O164 2.028 . S
O158 C154 1.258 . S
O158 Zn159 2.035 . S
Zn159 O158 2.035 . S
Zn159 O160 2.028 . S
Zn159 O162 2.028 . S
Zn159 O165 2.035 . S
O160 Zn159 2.028 . S
O160 C166 1.247 . S
O161 Zn157 2.035 . S
O161 C166 1.258 . S
O162 C155 1.247 . S
O162 Zn159 2.028 . S
O163 C155 1.258 . S
O163 Zn157 2.035 . S
O164 Zn157 2.028 . S
O164 C167 1.247 . S
O165 Zn159 2.035 . S
O165 C167 1.258 . S
C166 O160 1.247 . S
C166 O161 1.258 . S
C167 O164 1.247 . S
C167 O165 1.258 . S
C168 O170 1.247 . S
C168 O172 1.258 . S
C169 O176 1.247 . S
C169 O177 1.258 . S
O170 C168 1.247 . S
O170 Zn171 2.028 . S
Zn171 O170 2.028 . S
Zn171 O175 2.035 . S
Zn171 O177 2.035 . S
Zn171 O178 2.028 . S
O172 C168 1.258 . S
O172 Zn173 2.035 . S
Zn173 O172 2.035 . S
Zn173 O174 2.028 . S
Zn173 O176 2.028 . S
Zn173 O179 2.035 . S
O174 Zn173 2.028 . S
O174 C180 1.247 . S
O175 Zn171 2.035 . S
O175 C180 1.258 . S
O176 C169 1.247 . S
O176 Zn173 2.028 . S
O177 C169 1.258 . S
O177 Zn171 2.035 . S
O178 Zn171 2.028 . S
O178 C181 1.247 . S
O179 Zn173 2.035 . S
O179 C181 1.258 . S
C180 O174 1.247 . S
C180 O175 1.258 . S
C181 O178 1.247 . S
C181 O179 1.258 . S
C182 O184 1.247 . S
C182 O186 1.258 . S
C183 O190 1.247 . S
C183 O191 1.258 . S
O184 C182 1.247 . S
O184 Zn185 2.028 . S
Zn185 O184 2.028 . S
Zn185 O189 2.035 . S
Zn185 O191 2.035 . S
Zn185 O192 2.028 . S
O186 C182 1.258 . S
O186 Zn187 2.035 . S
Zn187 O186 2.035 . S
Zn187 O188 2.028 . S
Zn187 O190 2.028 . S
Zn187 O193 2.035 . S
O188 Zn187 2.028 . S
O188 C194 1.247 . S
O189 Zn185 2.035 . S
O189 C194 1.258 . S
O190 C183 1.247 . S
O190 Zn187 2.028 . S
O191 C183 1.258 . S
O191 Zn185 2.035 . S
O192 Zn185 2.028 . S
O192 C195 1.247 . S
O193 Zn187 2.035 . S
O193 C195 1.258 . S
C194 O188 1.247 . S
C194 O189 1.258 . S
C195 O192 1.247 . S
C195 O193 1.258 . S
C196 O198 1.247 . S
C196 O200 1.258 . S
C197 O204 1.247 . S
C197 O205 1.258 . S
O198 C196 1.247 . S
O198 Zn199 2.028 . S
Zn199 O198 2.028 . S
Zn199 O203 2.035 . S
Zn199 O205 2.035 . S
Zn199 O206 2.028 . S
O200 C196 1.258 . S
O200 Zn201 2.035 . S
Zn201 O200 2.035 . S
Zn201 O202 2.028 . S
Zn201 O204 2.028 . S
Zn201 O207 2.035 . S
O202 Zn201 2.028 . S
O202 C208 1.247 . S
O203 Zn199 2.035 . S
O203 C208 1.258 . S
O204 C197 1.247 . S
O204 Zn201 2.028 . S
O205 C197 1.258 . S
O205 Zn199 2.035 . S
O206 Zn199 2.028 . S
O206 C209 1.247 . S
O207 Zn201 2.035 . S
O207 C209 1.258 . S
C208 O202 1.247 . S
C208 O203 1.258 . S
C209 O206 1.247 . S
C209 O207 1.258 . S
C210 O212 1.247 . S
C210 O214 1.258 . S
C211 O218 1.247 . S
C211 O219 1.258 . S
O212 C210 1.247 . S
O212 Zn213 2.028 . S
Zn213 O212 2.028 . S
Zn213 O217 2.035 . S
Zn213 O219 2.035 . S
Zn213 O220 2.028 . S
O214 C210 1.258 . S
O214 Zn215 2.035 . S
Zn215 O214 2.035 . S
Zn215 O216 2.028 . S
Zn215 O218 2.028 . S
Zn215 O221 2.035 . S
O216 Zn215 2.028 . S
O216 C222 1.247 . S
O217 Zn213 2.035 . S
O217 C222 1.258 . S
O218 C211 1.247 . S
O218 Zn215 2.028 . S
O219 C211 1.258 . S
O219 Zn213 2.035 . S
O220 Zn213 2.028 . S
O220 C223 1.247 . S
O221 Zn215 2.035 . S
O221 C223 1.258 . S
C222 O216 1.247 . S
C222 O217 1.258 . S
C223 O220 1.247 . S
C223 O221 1.258 . S
H224 C230 0.930 . S
H225 C234 0.930 . S
H226 C239 0.929 . S
H227 C237 0.929 . S
H228 C232 0.929 . S
H229 C238 0.929 . S
C230 H224 0.930 . S
C230 C231 1.367 . S
C230 C238 1.378 . S
C231 C230 1.367 . S
C231 C239 1.433 . S
C232 H228 0.929 . S
C232 C234 1.378 . S
C232 C236 1.350 . S
C233 C236 1.463 . S
C233 C238 1.350 . S
C233 N241 1.427 . S
C234 H225 0.930 . S
C234 C232 1.378 . S
C234 C235 1.367 . S
C235 C234 1.367 . S
C235 C237 1.433 . S
C236 C232 1.350 . S
C236 C233 1.463 . S
C236 N240 1.427 . S
C237 H227 0.929 . S
C237 C235 1.433 . S
C237 N240 1.384 . S
C238 H229 0.929 . S
C238 C230 1.378 . S
C238 C233 1.350 . S
C239 H226 0.929 . S
C239 C231 1.433 . S
C239 N241 1.384 . S
N240 C236 1.427 . S
N240 C237 1.384 . S
N241 C233 1.427 . S
N241 C239 1.384 . S
H242 C248 0.930 . S
H243 C252 0.930 . S
H244 C257 0.929 . S
H245 C255 0.929 . S
H246 C250 0.929 . S
H247 C256 0.929 . S
C248 H242 0.930 . S
C248 C249 1.367 . S
C248 C256 1.378 . S
C249 C248 1.367 . S
C249 C257 1.433 . S
C250 H246 0.929 . S
C250 C252 1.378 . S
C250 C254 1.350 . S
C251 C254 1.463 . S
C251 C256 1.350 . S
C251 N259 1.427 . S
C252 H243 0.930 . S
C252 C250 1.378 . S
C252 C253 1.367 . S
C253 C252 1.367 . S
C253 C255 1.433 . S
C254 C250 1.350 . S
C254 C251 1.463 . S
C254 N258 1.427 . S
C255 H245 0.929 . S
C255 C253 1.433 . S
C255 N258 1.384 . S
C256 H247 0.929 . S
C256 C248 1.378 . S
C256 C251 1.350 . S
C257 H244 0.929 . S
C257 C249 1.433 . S
C257 N259 1.384 . S
N258 C254 1.427 . S
N258 C255 1.384 . S
N259 C251 1.427 . S
N259 C257 1.384 . S
H260 C266 0.930 . S
H261 C270 0.930 . S
H262 C275 0.929 . S
H263 C273 0.929 . S
H264 C268 0.929 . S
H265 C274 0.929 . S
C266 H260 0.930 . S
C266 C267 1.367 . S
C266 C274 1.378 . S
C267 C266 1.367 . S
C267 C275 1.433 . S
C268 H264 0.929 . S
C268 C270 1.378 . S
C268 C272 1.350 . S
C269 C272 1.463 . S
C269 C274 1.350 . S
C269 N277 1.427 . S
C270 H261 0.930 . S
C270 C268 1.378 . S
C270 C271 1.367 . S
C271 C270 1.367 . S
C271 C273 1.433 . S
C272 C268 1.350 . S
C272 C269 1.463 . S
C272 N276 1.427 . S
C273 H263 0.929 . S
C273 C271 1.433 . S
C273 N276 1.384 . S
C274 H265 0.929 . S
C274 C266 1.378 . S
C274 C269 1.350 . S
C275 H262 0.929 . S
C275 C267 1.433 . S
C275 N277 1.384 . S
N276 C272 1.427 . S
N276 C273 1.384 . S
N277 C269 1.427 . S
N277 C275 1.384 . S
H278 C284 0.930 . S
H279 C288 0.930 . S
H280 C293 0.929 . S
H281 C291 0.929 . S
H282 C286 0.929 . S
H283 C292 0.929 . S
C284 H278 0.930 . S
C284 C285 1.367 . S
C284 C292 1.378 . S
C285 C284 1.367 . S
C285 C293 1.433 . S
C286 H282 0.929 . S
C286 C288 1.378 . S
C286 C290 1.350 . S
C287 C290 1.463 . S
C287 C292 1.350 . S
C287 N295 1.427 . S
C288 H279 0.930 . S
C288 C286 1.378 . S
C288 C289 1.367 . S
C289 C288 1.367 . S
C289 C291 1.433 . S
C290 C286 1.350 . S
C290 C287 1.463 . S
C290 N294 1.427 . S
C291 H281 0.929 . S
C291 C289 1.433 . S
C291 N294 1.384 . S
C292 H283 0.929 . S
C292 C284 1.378 . S
C292 C287 1.350 . S
C293 H280 0.929 . S
C293 C285 1.433 . S
C293 N295 1.384 . S
N294 C290 1.427 . S
N294 C291 1.384 . S
N295 C287 1.427 . S
N295 C293 1.384 . S
H296 C302 0.930 . S
H297 C306 0.930 . S
H298 C311 0.929 . S
H299 C309 0.929 . S
H300 C304 0.929 . S
H301 C310 0.929 . S
C302 H296 0.930 . S
C302 C303 1.367 . S
C302 C310 1.378 . S
C303 C302 1.367 . S
C303 C311 1.433 . S
C304 H300 0.929 . S
C304 C306 1.378 . S
C304 C308 1.350 . S
C305 C308 1.463 . S
C305 C310 1.350 . S
C305 N313 1.427 . S
C306 H297 0.930 . S
C306 C304 1.378 . S
C306 C307 1.367 . S
C307 C306 1.367 . S
C307 C309 1.433 . S
C308 C304 1.350 . S
C308 C305 1.463 . S
C308 N312 1.427 . S
C309 H299 0.929 . S
C309 C307 1.433 . S
C309 N312 1.384 . S
C310 H301 0.929 . S
C310 C302 1.378 . S
C310 C305 1.350 . S
C311 H298 0.929 . S
C311 C303 1.433 . S
C311 N313 1.384 . S
N312 C308 1.427 . S
N312 C309 1.384 . S
N313 C305 1.427 . S
N313 C311 1.384 . S
H314 C320 0.930 . S
H315 C324 0.930 . S
H316 C329 0.929 . S
H317 C327 0.929 . S
H318 C322 0.929 . S
H319 C328 0.929 . S
C320 H314 0.930 . S
C320 C321 1.367 . S
C320 C328 1.378 . S
C321 C320 1.367 . S
C321 C329 1.433 . S
C322 H318 0.929 . S
C322 C324 1.378 . S
C322 C326 1.350 . S
C323 C326 1.463 . S
C323 C328 1.350 . S
C323 N331 1.427 . S
C324 H315 0.930 . S
C324 C322 1.378 . S
C324 C325 1.367 . S
C325 C324 1.367 . S
C325 C327 1.433 . S
C326 C322 1.350 . S
C326 C323 1.463 . S
C326 N330 1.427 . S
C327 H317 0.929 . S
C327 C325 1.433 . S
C327 N330 1.384 . S
C328 H319 0.929 . S
C328 C320 1.378 . S
C328 C323 1.350 . S
C329 H316 0.929 . S
C329 C321 1.433 . S
C329 N331 1.384 . S
N330 C326 1.427 . S
N330 C327 1.384 . S
N331 C323 1.427 . S
N331 C329 1.384 . S
H332 C338 0.930 . S
H333 C342 0.930 . S
H334 C347 0.929 . S
H335 C345 0.929 . S
H336 C340 0.929 . S
H337 C346 0.929 . S
C338 H332 0.930 . S
C338 C339 1.367 . S
C338 C346 1.378 . S
C339 C338 1.367 . S
C339 C347 1.433 . S
C340 H336 0.929 . S
C340 C342 1.378 . S
C340 C344 1.350 . S
C341 C344 1.463 . S
C341 C346 1.350 . S
C341 N349 1.427 . S
C342 H333 0.930 . S
C342 C340 1.378 . S
C342 C343 1.367 . S
C343 C342 1.367 . S
C343 C345 1.433 . S
C344 C340 1.350 . S
C344 C341 1.463 . S
C344 N348 1.427 . S
C345 H335 0.929 . S
C345 C343 1.433 . S
C345 N348 1.384 . S
C346 H337 0.929 . S
C346 C338 1.378 . S
C346 C341 1.350 . S
C347 H334 0.929 . S
C347 C339 1.433 . S
C347 N349 1.384 . S
N348 C344 1.427 . S
N348 C345 1.384 . S
N349 C341 1.427 . S
N349 C347 1.384 . S
H350 C356 0.930 . S
H351 C360 0.930 . S
H352 C365 0.929 . S
H353 C363 0.929 . S
H354 C358 0.929 . S
H355 C364 0.929 . S
C356 H350 0.930 . S
C356 C357 1.367 . S
C356 C364 1.378 . S
C357 C356 1.367 . S
C357 C365 1.433 . S
C358 H354 0.929 . S
C358 C360 1.378 . S
C358 C362 1.350 . S
C359 C362 1.463 . S
C359 C364 1.350 . S
C359 N367 1.427 . S
C360 H351 0.930 . S
C360 C358 1.378 . S
C360 C361 1.367 . S
C361 C360 1.367 . S
C361 C363 1.433 . S
C362 C358 1.350 . S
C362 C359 1.463 . S
C362 N366 1.427 . S
C363 H353 0.929 . S
C363 C361 1.433 . S
C363 N366 1.384 . S
C364 H355 0.929 . S
C364 C356 1.378 . S
C364 C359 1.350 . S
C365 H352 0.929 . S
C365 C357 1.433 . S
C365 N367 1.384 . S
N366 C362 1.427 . S
N366 C363 1.384 . S
N367 C359 1.427 . S
N367 C365 1.384 . S
H368 C374 0.930 . S
H369 C378 0.930 . S
H370 C383 0.929 . S
H371 C381 0.929 . S
H372 C376 0.929 . S
H373 C382 0.929 . S
C374 H368 0.930 . S
C374 C375 1.367 . S
C374 C382 1.378 . S
C375 C374 1.367 . S
C375 C383 1.433 . S
C376 H372 0.929 . S
C376 C378 1.378 . S
C376 C380 1.350 . S
C377 C380 1.463 . S
C377 C382 1.350 . S
C377 N385 1.427 . S
C378 H369 0.930 . S
C378 C376 1.378 . S
C378 C379 1.367 . S
C379 C378 1.367 . S
C379 C381 1.433 . S
C380 C376 1.350 . S
C380 C377 1.463 . S
C380 N384 1.427 . S
C381 H371 0.929 . S
C381 C379 1.433 . S
C381 N384 1.384 . S
C382 H373 0.929 . S
C382 C374 1.378 . S
C382 C377 1.350 . S
C383 H370 0.929 . S
C383 C375 1.433 . S
C383 N385 1.384 . S
N384 C380 1.427 . S
N384 C381 1.384 . S
N385 C377 1.427 . S
N385 C383 1.384 . S
H386 C392 0.930 . S
H387 C396 0.930 . S
H388 C401 0.929 . S
H389 C399 0.929 . S
H390 C394 0.929 . S
H391 C400 0.929 . S
C392 H386 0.930 . S
C392 C393 1.367 1_545 S
C392 C400 1.378 . S
C393 C392 1.367 1_565 S
C393 C401 1.433 . S
C394 H390 0.929 . S
C394 C396 1.378 . S
C394 C398 1.350 . S
C395 C398 1.463 . S
C395 C400 1.350 1_565 S
C395 N403 1.427 . S
C396 H387 0.930 . S
C396 C394 1.378 . S
C396 C397 1.367 . S
C397 C396 1.367 . S
C397 C399 1.433 . S
C398 C394 1.350 . S
C398 C395 1.463 . S
C398 N402 1.427 . S
C399 H389 0.929 . S
C399 C397 1.433 . S
C399 N402 1.384 . S
C400 H391 0.929 . S
C400 C392 1.378 . S
C400 C395 1.350 1_545 S
C401 H388 0.929 . S
C401 C393 1.433 . S
C401 N403 1.384 . S
N402 C398 1.427 . S
N402 C399 1.384 . S
N403 C395 1.427 . S
N403 C401 1.384 . S
H404 C410 0.930 . S
H405 C414 0.930 . S
H406 C419 0.929 . S
H407 C417 0.929 . S
H408 C412 0.929 . S
H409 C418 0.929 . S
C410 H404 0.930 . S
C410 C411 1.367 . S
C410 C418 1.378 . S
C411 C410 1.367 . S
C411 C419 1.433 1_565 S
C412 H408 0.929 . S
C412 C414 1.378 . S
C412 C416 1.350 . S
C413 C416 1.463 . S
C413 C418 1.350 . S
C413 N421 1.427 1_565 S
C414 H405 0.930 . S
C414 C412 1.378 . S
C414 C415 1.367 . S
C415 C414 1.367 . S
C415 C417 1.433 . S
C416 C412 1.350 . S
C416 C413 1.463 . S
C416 N420 1.427 . S
C417 H407 0.929 . S
C417 C415 1.433 . S
C417 N420 1.384 . S
C418 H409 0.929 . S
C418 C410 1.378 . S
C418 C413 1.350 . S
C419 H406 0.929 . S
C419 C411 1.433 1_545 S
C419 N421 1.384 . S
N420 C416 1.427 . S
N420 C417 1.384 . S
N421 C413 1.427 1_545 S
N421 C419 1.384 . S
H422 C428 0.930 . S
H423 C432 0.930 . S
H424 C437 0.929 . S
H425 C435 0.929 . S
H426 C430 0.929 . S
H427 C436 0.929 . S
C428 H422 0.930 . S
C428 C429 1.367 . S
C428 C436 1.378 . S
C429 C428 1.367 . S
C429 C437 1.433 . S
C430 H426 0.929 . S
C430 C432 1.378 . S
C430 C434 1.350 . S
C431 C434 1.463 . S
C431 C436 1.350 . S
C431 N439 1.427 . S
C432 H423 0.930 . S
C432 C430 1.378 . S
C432 C433 1.367 . S
C433 C432 1.367 . S
C433 C435 1.433 . S
C434 C430 1.350 . S
C434 C431 1.463 . S
C434 N438 1.427 . S
C435 H425 0.929 . S
C435 C433 1.433 . S
C435 N438 1.384 . S
C436 H427 0.929 . S
C436 C428 1.378 . S
C436 C431 1.350 . S
C437 H424 0.929 . S
C437 C429 1.433 . S
C437 N439 1.384 . S
N438 C434 1.427 . S
N438 C435 1.384 . S
N439 C431 1.427 . S
N439 C437 1.384 . S
H440 C446 0.930 . S
H441 C450 0.930 . S
H442 C455 0.929 . S
H443 C453 0.929 . S
H444 C448 0.929 . S
H445 C454 0.929 . S
C446 H440 0.930 . S
C446 C447 1.367 . S
C446 C454 1.378 . S
C447 C446 1.367 . S
C447 C455 1.433 . S
C448 H444 0.929 . S
C448 C450 1.378 . S
C448 C452 1.350 . S
C449 C452 1.463 . S
C449 C454 1.350 . S
C449 N457 1.427 . S
C450 H441 0.930 . S
C450 C448 1.378 . S
C450 C451 1.367 . S
C451 C450 1.367 . S
C451 C453 1.433 1_455 S
C452 C448 1.350 . S
C452 C449 1.463 . S
C452 N456 1.427 . S
C453 H443 0.929 . S
C453 C451 1.433 1_655 S
C453 N456 1.384 1_655 S
C454 H445 0.929 . S
C454 C446 1.378 . S
C454 C449 1.350 . S
C455 H442 0.929 . S
C455 C447 1.433 . S
C455 N457 1.384 . S
N456 C452 1.427 . S
N456 C453 1.384 1_455 S
N457 C449 1.427 . S
N457 C455 1.384 . S
H458 C464 0.930 . S
H459 C468 0.946 . S
H460 C473 0.929 . S
H461 C471 0.929 . S
H462 C466 0.929 . S
H463 C472 0.929 1_565 S
C464 H458 0.930 . S
C464 C465 1.367 1_565 S
C464 C472 1.378 1_565 S
C465 C464 1.367 1_545 S
C465 C473 1.433 . S
C466 H462 0.929 . S
C466 C468 1.367 1_455 S
C466 C470 1.350 . S
C467 C470 1.463 . S
C467 C472 1.350 . S
C467 N475 1.427 . S
C468 H459 0.946 . S
C468 C466 1.367 1_655 S
C468 C469 1.362 1_655 S
C469 C468 1.362 1_455 S
C469 C471 1.433 . S
C470 C466 1.350 . S
C470 C467 1.463 . S
C470 N474 1.427 . S
C471 H461 0.929 . S
C471 C469 1.433 . S
C471 N474 1.384 . S
C472 H463 0.929 1_545 S
C472 C464 1.378 1_545 S
C472 C467 1.350 . S
C473 H460 0.929 . S
C473 C465 1.433 . S
C473 N475 1.384 . S
N474 C470 1.427 . S
N474 C471 1.384 . S
N475 C467 1.427 . S
N475 C473 1.384 . S
H476 C482 0.930 . S
H477 C486 0.930 . S
H478 C491 0.929 . S
H479 C489 0.929 . S
H480 C484 0.929 . S
H481 C490 0.929 . S
C482 H476 0.930 . S
C482 C483 1.367 . S
C482 C490 1.378 . S
C483 C482 1.367 . S
C483 C491 1.433 . S
C484 H480 0.929 . S
C484 C486 1.378 . S
C484 C488 1.350 . S
C485 C488 1.463 . S
C485 C490 1.350 . S
C485 N493 1.427 . S
C486 H477 0.930 . S
C486 C484 1.378 . S
C486 C487 1.367 . S
C487 C486 1.367 . S
C487 C489 1.433 1_545 S
C488 C484 1.350 . S
C488 C485 1.463 . S
C488 N492 1.427 . S
C489 H479 0.929 . S
C489 C487 1.433 1_565 S
C489 N492 1.384 1_565 S
C490 H481 0.929 . S
C490 C482 1.378 . S
C490 C485 1.350 . S
C491 H478 0.929 . S
C491 C483 1.433 . S
C491 N493 1.384 . S
N492 C488 1.427 . S
N492 C489 1.384 1_545 S
N493 C485 1.427 . S
N493 C491 1.384 . S
H494 C500 0.930 . S
H495 C504 0.930 . S
H496 C509 0.929 . S
H497 C507 0.929 . S
H498 C502 0.929 . S
H499 C508 0.929 . S
C500 H494 0.930 . S
C500 C501 1.367 . S
C500 C508 1.378 . S
C501 C500 1.367 . S
C501 C509 1.433 . S
C502 H498 0.929 . S
C502 C504 1.378 . S
C502 C506 1.350 . S
C503 C506 1.463 . S
C503 C508 1.350 . S
C503 N511 1.427 . S
C504 H495 0.930 . S
C504 C502 1.378 . S
C504 C505 1.367 . S
C505 C504 1.367 . S
C505 C507 1.433 . S
C506 C502 1.350 . S
C506 C503 1.463 . S
C506 N510 1.427 . S
C507 H497 0.929 . S
C507 C505 1.433 . S
C507 N510 1.384 . S
C508 H499 0.929 . S
C508 C500 1.378 . S
C508 C503 1.350 . S
C509 H496 0.929 . S
C509 C501 1.433 . S
C509 N511 1.384 . S
N510 C506 1.427 . S
N510 C507 1.384 . S
N511 C503 1.427 . S
N511 C509 1.384 . S
H512 C518 0.930 . S
H513 C522 0.930 . S
H514 C527 0.929 . S
H515 C525 0.929 . S
H516 C520 0.929 . S
H517 C526 0.929 . S
C518 H512 0.930 . S
C518 C519 1.367 . S
C518 C526 1.378 . S
C519 C518 1.367 . S
C519 C527 1.433 . S
C520 H516 0.929 . S
C520 C522 1.378 . S
C520 C524 1.350 . S
C521 C524 1.463 . S
C521 C526 1.350 . S
C521 N529 1.427 . S
C522 H513 0.930 . S
C522 C520 1.378 . S
C522 C523 1.367 . S
C523 C522 1.367 . S
C523 C525 1.433 . S
C524 C520 1.350 . S
C524 C521 1.463 . S
C524 N528 1.427 . S
C525 H515 0.929 . S
C525 C523 1.433 . S
C525 N528 1.384 . S
C526 H517 0.929 . S
C526 C518 1.378 . S
C526 C521 1.350 . S
C527 H514 0.929 . S
C527 C519 1.433 . S
C527 N529 1.384 . S
N528 C524 1.427 . S
N528 C525 1.384 . S
N529 C521 1.427 . S
N529 C527 1.384 . S
H530 C536 0.930 . S
H531 C540 0.930 . S
H532 C545 0.929 . S
H533 C543 0.929 . S
H534 C538 0.929 . S
H535 C544 0.929 . S
C536 H530 0.930 . S
C536 C537 1.367 . S
C536 C544 1.378 . S
C537 C536 1.367 . S
C537 C545 1.433 . S
C538 H534 0.929 . S
C538 C540 1.378 . S
C538 C542 1.350 . S
C539 C542 1.463 . S
C539 C544 1.350 . S
C539 N547 1.427 . S
C540 H531 0.930 . S
C540 C538 1.378 . S
C540 C541 1.367 . S
C541 C540 1.367 . S
C541 C543 1.433 . S
C542 C538 1.350 . S
C542 C539 1.463 . S
C542 N546 1.427 . S
C543 H533 0.929 . S
C543 C541 1.433 . S
C543 N546 1.384 . S
C544 H535 0.929 . S
C544 C536 1.378 . S
C544 C539 1.350 . S
C545 H532 0.929 . S
C545 C537 1.433 . S
C545 N547 1.384 . S
N546 C542 1.427 . S
N546 C543 1.384 . S
N547 C539 1.427 . S
N547 C545 1.384 . S
H548 C554 0.930 . S
H549 C558 0.930 . S
H550 C563 0.929 . S
H551 C561 0.929 . S
H552 C556 0.929 . S
H553 C562 0.929 . S
C554 H548 0.930 . S
C554 C555 1.367 . S
C554 C562 1.378 . S
C555 C554 1.367 . S
C555 C563 1.433 . S
C556 H552 0.929 . S
C556 C558 1.378 . S
C556 C560 1.350 . S
C557 C560 1.463 . S
C557 C562 1.350 . S
C557 N565 1.427 . S
C558 H549 0.930 . S
C558 C556 1.378 . S
C558 C559 1.367 . S
C559 C558 1.367 . S
C559 C561 1.433 . S
C560 C556 1.350 . S
C560 C557 1.463 . S
C560 N564 1.427 . S
C561 H551 0.929 . S
C561 C559 1.433 . S
C561 N564 1.384 . S
C562 H553 0.929 . S
C562 C554 1.378 . S
C562 C557 1.350 . S
C563 H550 0.929 . S
C563 C555 1.433 . S
C563 N565 1.384 . S
N564 C560 1.427 . S
N564 C561 1.384 . S
N565 C557 1.427 . S
N565 C563 1.384 . S
H566 C572 0.930 . S
H567 C576 0.930 . S
H568 C581 0.929 . S
H569 C579 0.929 . S
H570 C574 0.929 . S
H571 C580 0.929 . S
C572 H566 0.930 . S
C572 C573 1.367 . S
C572 C580 1.378 . S
C573 C572 1.367 . S
C573 C581 1.433 . S
C574 H570 0.929 . S
C574 C576 1.378 . S
C574 C578 1.350 . S
C575 C578 1.463 . S
C575 C580 1.350 . S
C575 N583 1.427 . S
C576 H567 0.930 . S
C576 C574 1.378 . S
C576 C577 1.367 . S
C577 C576 1.367 . S
C577 C579 1.433 . S
C578 C574 1.350 . S
C578 C575 1.463 . S
C578 N582 1.427 . S
C579 H569 0.929 . S
C579 C577 1.433 . S
C579 N582 1.384 . S
C580 H571 0.929 . S
C580 C572 1.378 . S
C580 C575 1.350 . S
C581 H568 0.929 . S
C581 C573 1.433 . S
C581 N583 1.384 . S
N582 C578 1.427 . S
N582 C579 1.384 . S
N583 C575 1.427 . S
N583 C581 1.384 . S
H584 C590 0.930 . S
H585 C594 0.930 . S
H586 C599 0.929 . S
H587 C597 0.929 . S
H588 C592 0.929 . S
H589 C598 0.929 . S
C590 H584 0.930 . S
C590 C591 1.367 . S
C590 C598 1.378 . S
C591 C590 1.367 . S
C591 C599 1.433 . S
C592 H588 0.929 . S
C592 C594 1.378 . S
C592 C596 1.350 . S
C593 C596 1.463 . S
C593 C598 1.350 . S
C593 N601 1.427 . S
C594 H585 0.930 . S
C594 C592 1.378 . S
C594 C595 1.367 . S
C595 C594 1.367 . S
C595 C597 1.433 . S
C596 C592 1.350 . S
C596 C593 1.463 . S
C596 N600 1.427 . S
C597 H587 0.929 . S
C597 C595 1.433 . S
C597 N600 1.384 . S
C598 H589 0.929 . S
C598 C590 1.378 . S
C598 C593 1.350 . S
C599 H586 0.929 . S
C599 C591 1.433 . S
C599 N601 1.384 . S
N600 C596 1.427 . S
N600 C597 1.384 . S
N601 C593 1.427 . S
N601 C599 1.384 . S
H602 C608 0.930 . S
H603 C612 0.930 . S
H604 C617 0.929 . S
H605 C615 0.929 . S
H606 C610 0.929 . S
H607 C616 0.929 . S
C608 H602 0.930 . S
C608 C609 1.367 . S
C608 C616 1.378 . S
C609 C608 1.367 . S
C609 C617 1.433 . S
C610 H606 0.929 . S
C610 C612 1.378 . S
C610 C614 1.350 . S
C611 C614 1.463 . S
C611 C616 1.350 . S
C611 N619 1.427 . S
C612 H603 0.930 . S
C612 C610 1.378 . S
C612 C613 1.367 . S
C613 C612 1.367 . S
C613 C615 1.433 . S
C614 C610 1.350 . S
C614 C611 1.463 . S
C614 N618 1.427 . S
C615 H605 0.929 . S
C615 C613 1.433 . S
C615 N618 1.384 . S
C616 H607 0.929 . S
C616 C608 1.378 . S
C616 C611 1.350 . S
C617 H604 0.929 . S
C617 C609 1.433 . S
C617 N619 1.384 . S
N618 C614 1.427 . S
N618 C615 1.384 . S
N619 C611 1.427 . S
N619 C617 1.384 . S
H620 C626 0.930 . S
H621 C630 0.930 . S
H622 C635 0.929 . S
H623 C633 0.929 . S
H624 C628 0.929 . S
H625 C634 0.929 . S
C626 H620 0.930 . S
C626 C627 1.367 . S
C626 C634 1.378 . S
C627 C626 1.367 . S
C627 C635 1.433 . S
C628 H624 0.929 . S
C628 C630 1.378 . S
C628 C632 1.350 . S
C629 C632 1.463 . S
C629 C634 1.350 . S
C629 N637 1.427 . S
C630 H621 0.930 . S
C630 C628 1.378 . S
C630 C631 1.367 . S
C631 C630 1.367 . S
C631 C633 1.433 . S
C632 C628 1.350 . S
C632 C629 1.463 . S
C632 N636 1.427 . S
C633 H623 0.929 . S
C633 C631 1.433 . S
C633 N636 1.384 . S
C634 H625 0.929 . S
C634 C626 1.378 . S
C634 C629 1.350 . S
C635 H622 0.929 . S
C635 C627 1.433 . S
C635 N637 1.384 . S
N636 C632 1.427 . S
N636 C633 1.384 . S
N637 C629 1.427 . S
N637 C635 1.384 . S
H638 C644 0.930 . S
H639 C648 0.930 . S
H640 C653 0.929 . S
H641 C651 0.929 . S
H642 C646 0.929 . S
H643 C652 0.929 . S
C644 H638 0.930 . S
C644 C645 1.367 . S
C644 C652 1.378 . S
C645 C644 1.367 . S
C645 C653 1.433 . S
C646 H642 0.929 . S
C646 C648 1.378 . S
C646 C650 1.350 . S
C647 C650 1.463 . S
C647 C652 1.350 . S
C647 N655 1.427 . S
C648 H639 0.930 . S
C648 C646 1.378 . S
C648 C649 1.367 . S
C649 C648 1.367 . S
C649 C651 1.433 . S
C650 C646 1.350 . S
C650 C647 1.463 . S
C650 N654 1.427 . S
C651 H641 0.929 . S
C651 C649 1.433 . S
C651 N654 1.384 . S
C652 H643 0.929 . S
C652 C644 1.378 . S
C652 C647 1.350 . S
C653 H640 0.929 . S
C653 C645 1.433 . S
C653 N655 1.384 . S
N654 C650 1.427 . S
N654 C651 1.384 . S
N655 C647 1.427 . S
N655 C653 1.384 . S
H656 C662 0.930 . S
H657 C666 0.930 . S
H658 C671 0.929 . S
H659 C669 0.929 . S
H660 C664 0.929 1_455 S
H661 C670 0.929 1_655 S
C662 H656 0.930 . S
C662 C663 1.367 . S
C662 C670 1.378 . S
C663 C662 1.367 . S
C663 C671 1.433 . S
C664 H660 0.929 1_655 S
C664 C666 1.378 . S
C664 C668 1.350 . S
C665 C668 1.463 1_454 S
C665 C670 1.350 . S
C665 N673 1.427 1_554 S
C666 H657 0.930 . S
C666 C664 1.378 . S
C666 C667 1.367 . S
C667 C666 1.367 . S
C667 C669 1.433 . S
C668 C664 1.350 . S
C668 C665 1.463 1_656 S
C668 N672 1.427 1_556 S
C669 H659 0.929 . S
C669 C667 1.433 . S
C669 N672 1.384 1_556 S
C670 H661 0.929 1_455 S
C670 C662 1.378 . S
C670 C665 1.350 . S
C671 H658 0.929 . S
C671 C663 1.433 . S
C671 N673 1.384 1_554 S
N672 C668 1.427 1_554 S
N672 C669 1.384 1_554 S
N673 C665 1.427 1_556 S
N673 C671 1.384 1_556 S
H674 C680 0.930 . S
H675 C684 0.930 . S
H676 C689 0.929 . S
H677 C687 0.929 . S
H678 C682 0.929 . S
H679 C688 0.929 . S
C680 H674 0.930 . S
C680 C681 1.367 . S
C680 C688 1.378 1_565 S
C681 C680 1.367 . S
C681 C689 1.433 . S
C682 H678 0.929 . S
C682 C684 1.378 1_565 S
C682 C686 1.350 1_565 S
C683 C686 1.463 1_466 S
C683 C688 1.350 1_565 S
C683 N691 1.427 1_556 S
C684 H675 0.930 . S
C684 C682 1.378 1_545 S
C684 C685 1.367 . S
C685 C684 1.367 . S
C685 C687 1.433 . S
C686 C682 1.350 1_545 S
C686 C683 1.463 1_644 S
C686 N690 1.427 1_554 S
C687 H677 0.929 . S
C687 C685 1.433 . S
C687 N690 1.384 1_554 S
C688 H679 0.929 . S
C688 C680 1.378 1_545 S
C688 C683 1.350 1_545 S
C689 H676 0.929 . S
C689 C681 1.433 . S
C689 N691 1.384 1_556 S
N690 C686 1.427 1_556 S
N690 C687 1.384 1_556 S
N691 C683 1.427 1_554 S
N691 C689 1.384 1_554 S
H692 C698 0.930 . S
H693 C702 0.930 . S
H694 C707 0.929 . S
H695 C705 0.929 . S
H696 C700 0.929 . S
H697 C706 0.929 . S
C698 H692 0.930 . S
C698 C699 1.367 . S
C698 C706 1.378 . S
C699 C698 1.367 . S
C699 C707 1.433 . S
C700 H696 0.929 . S
C700 C702 1.378 . S
C700 C704 1.350 . S
C701 C704 1.463 1_564 S
C701 C706 1.350 . S
C701 N709 1.428 1_554 S
C702 H693 0.930 . S
C702 C700 1.378 . S
C702 C703 1.367 . S
C703 C702 1.367 . S
C703 C705 1.433 . S
C704 C700 1.350 . S
C704 C701 1.463 1_546 S
C704 N708 1.428 1_556 S
C705 H695 0.929 . S
C705 C703 1.433 . S
C705 N708 1.384 1_556 S
C706 H697 0.929 . S
C706 C698 1.378 . S
C706 C701 1.350 . S
C707 H694 0.929 . S
C707 C699 1.433 . S
C707 N709 1.384 1_554 S
N708 C704 1.428 1_554 S
N708 C705 1.384 1_554 S
N709 C701 1.428 1_556 S
N709 C707 1.384 1_556 S
H710 C716 0.930 . S
H711 C720 0.930 . S
H712 C725 0.929 . S
H713 C723 0.929 . S
H714 C718 0.929 . S
H715 C724 0.929 . S
C716 H710 0.930 . S
C716 C717 1.367 . S
C716 C724 1.378 . S
C717 C716 1.367 . S
C717 C725 1.433 . S
C718 H714 0.929 . S
C718 C720 1.378 . S
C718 C722 1.350 . S
C719 C722 1.463 1_556 S
C719 C724 1.350 . S
C719 N727 1.427 1_556 S
C720 H711 0.930 . S
C720 C718 1.378 . S
C720 C721 1.367 . S
C721 C720 1.367 . S
C721 C723 1.433 . S
C722 C718 1.350 . S
C722 C719 1.463 1_554 S
C722 N726 1.427 1_554 S
C723 H713 0.929 . S
C723 C721 1.433 . S
C723 N726 1.384 1_554 S
C724 H715 0.929 . S
C724 C716 1.378 . S
C724 C719 1.350 . S
C725 H712 0.929 . S
C725 C717 1.433 . S
C725 N727 1.384 1_556 S
N726 C722 1.427 1_556 S
N726 C723 1.384 1_556 S
N727 C719 1.427 1_554 S
N727 C725 1.384 1_554 S
H728 C734 0.930 . S
H729 C738 0.930 . S
H730 C743 0.929 . S
H731 C741 0.929 . S
H732 C736 0.929 1_565 S
H733 C742 0.929 1_545 S
C734 H728 0.930 . S
C734 C735 1.367 . S
C734 C742 1.378 . S
C735 C734 1.367 . S
C735 C743 1.433 . S
C736 H732 0.929 1_545 S
C736 C738 1.378 . S
C736 C740 1.350 . S
C737 C740 1.463 1_465 S
C737 C742 1.350 . S
C737 N745 1.427 . S
C738 H729 0.930 . S
C738 C736 1.378 . S
C738 C739 1.367 . S
C739 C738 1.367 . S
C739 C741 1.433 . S
C740 C736 1.350 . S
C740 C737 1.463 1_645 S
C740 N744 1.427 . S
C741 H731 0.929 . S
C741 C739 1.433 . S
C741 N744 1.384 . S
C742 H733 0.929 1_565 S
C742 C734 1.378 . S
C742 C737 1.350 . S
C743 H730 0.929 . S
C743 C735 1.433 . S
C743 N745 1.384 . S
N744 C740 1.427 . S
N744 C741 1.384 . S
N745 C737 1.427 . S
N745 C743 1.384 . S
H746 C752 0.930 . S
H747 C756 0.930 . S
H748 C761 0.929 . S
H749 C759 0.929 . S
H750 C754 0.929 . S
H751 C760 0.929 . S
C752 H746 0.930 . S
C752 C753 1.367 . S
C752 C760 1.378 . S
C753 C752 1.367 . S
C753 C761 1.433 . S
C754 H750 0.929 . S
C754 C756 1.378 . S
C754 C758 1.350 . S
C755 C758 1.463 1_545 S
C755 C760 1.350 . S
C755 N763 1.427 . S
C756 H747 0.930 . S
C756 C754 1.378 . S
C756 C757 1.367 . S
C757 C756 1.367 . S
C757 C759 1.433 . S
C758 C754 1.350 . S
C758 C755 1.463 1_565 S
C758 N762 1.427 . S
C759 H749 0.929 . S
C759 C757 1.433 . S
C759 N762 1.384 . S
C760 H751 0.929 . S
C760 C752 1.378 . S
C760 C755 1.350 . S
C761 H748 0.929 . S
C761 C753 1.433 . S
C761 N763 1.384 . S
N762 C758 1.427 . S
N762 C759 1.384 . S
N763 C755 1.427 . S
N763 C761 1.384 . S
H764 C770 0.930 . S
H765 C774 0.930 . S
H766 C779 0.929 . S
H767 C777 0.929 . S
H768 C772 0.929 . S
H769 C778 0.929 . S
C770 H764 0.930 . S
C770 C771 1.367 . S
C770 C778 1.378 . S
C771 C770 1.367 . S
C771 C779 1.433 . S
C772 H768 0.929 . S
C772 C774 1.378 . S
C772 C776 1.350 . S
C773 C776 1.463 . S
C773 C778 1.350 . S
C773 N781 1.427 . S
C774 H765 0.930 . S
C774 C772 1.378 . S
C774 C775 1.367 . S
C775 C774 1.367 . S
C775 C777 1.433 . S
C776 C772 1.350 . S
C776 C773 1.463 . S
C776 N780 1.427 . S
C777 H767 0.929 . S
C777 C775 1.433 . S
C777 N780 1.384 . S
C778 H769 0.929 . S
C778 C770 1.378 . S
C778 C773 1.350 . S
C779 H766 0.929 . S
C779 C771 1.433 . S
C779 N781 1.384 . S
N780 C776 1.427 . S
N780 C777 1.384 . S
N781 C773 1.427 . S
N781 C779 1.384 . S
H782 C788 0.930 . S
H783 C792 0.930 . S
H784 C797 0.929 . S
H785 C795 0.929 . S
H786 C790 0.929 . S
H787 C796 0.929 . S
C788 H782 0.930 . S
C788 C789 1.367 . S
C788 C796 1.378 . S
C789 C788 1.367 . S
C789 C797 1.433 . S
C790 H786 0.929 . S
C790 C792 1.378 . S
C790 C794 1.350 . S
C791 C794 1.463 1_655 S
C791 C796 1.350 . S
C791 N799 1.427 . S
C792 H783 0.930 . S
C792 C790 1.378 . S
C792 C793 1.367 . S
C793 C792 1.367 . S
C793 C795 1.433 . S
C794 C790 1.350 . S
C794 C791 1.463 1_455 S
C794 N798 1.427 . S
C795 H785 0.929 . S
C795 C793 1.433 . S
C795 N798 1.384 . S
C796 H787 0.929 . S
C796 C788 1.378 . S
C796 C791 1.350 . S
C797 H784 0.929 . S
C797 C789 1.433 . S
C797 N799 1.384 . S
N798 C794 1.427 . S
N798 C795 1.384 . S
N799 C791 1.427 . S
N799 C797 1.384 . S
C231 C1 1.956 . S
C235 C41 1.949 . S
C249 C26 1.950 . S
C253 C54 1.955 . S
C267 C57 1.956 . S
C271 C96 1.952 . S
C285 C110 1.949 . S
C289 C82 1.956 . S
C303 C125 1.952 . S
C307 C153 1.958 . S
C321 C167 1.951 . S
C325 C127 1.952 . S
C339 C209 1.950 . S
C343 C180 1.956 . S
C357 C223 1.955 . S
C361 C183 1.955 . S
C375 C111 1.669 . S
C379 C0 1.669 1_655 S
C393 C27 1.655 1_565 S
C397 C56 1.658 1_655 S
C411 C83 1.668 1_565 S
C415 C40 1.668 . S
C429 C55 1.660 . S
C433 C97 1.657 . S
C447 C222 1.662 . S
C451 C124 1.664 1_455 S
C465 C126 1.654 1_545 S
C469 C181 1.656 1_455 S
C483 C152 1.660 . S
C487 C182 1.663 1_545 S
C501 C208 1.655 . S
C505 C166 1.654 . S
C519 C12 0.532 . S
C523 C68 0.539 . S
C537 C15 0.522 . S
C541 C71 0.538 . S
C555 C85 0.528 . S
C559 C28 0.520 . S
C573 C43 0.521 . S
C577 C99 0.527 . S
C591 C169 0.529 . S
C595 C112 0.539 . S
C609 C194 0.529 . S
C613 C138 0.539 . S
C627 C140 0.526 . S
C631 C196 0.521 . S
C645 C154 0.524 . S
C649 C210 0.539 . S
C663 C13 1.798 . S
C667 C113 1.799 . S
C681 C139 1.798 . S
C685 C14 1.798 . S
C699 C29 1.797 . S
C703 C141 1.798 . S
C717 C155 1.799 . S
C721 C42 1.799 . S
C735 C69 1.800 . S
C739 C168 1.800 . S
C753 C70 1.801 . S
C757 C195 1.801 . S
C771 C197 1.798 . S
C775 C84 1.798 . S
C789 C98 1.805 . S
C793 C211 1.805 . S
