# Generated by pormake.
# Topology npo, (4)-cn, num edge types: 1
# Building blocks:
#     Node 0, Type 0, BuildingBlock: NAHDIM_clean_sbu_0, # of connection points: 4
#     Node 1, Type 0, BuildingBlock: NAHDIM_clean_sbu_0, # of connection points: 4
#     Node 2, Type 0, BuildingBlock: NAHDIM_clean_sbu_0, # of connection points: 4
#     Node 3, Type 0, BuildingBlock: NAHDIM_clean_sbu_0, # of connection points: 4
#     Node 4, Type 0, BuildingBlock: NAHDIM_clean_sbu_0, # of connection points: 4
#     Node 5, Type 0, BuildingBlock: NAHDIM_clean_sbu_0, # of connection points: 4
#     Edge 6, Type (0, 0), BuildingBlock: ZUJKAS_clean_linker_0, # of connection points: 2
#     Edge 7, Type (0, 0), BuildingBlock: ZUJKAS_clean_linker_0, # of connection points: 2
#     Edge 8, Type (0, 0), BuildingBlock: ZUJKAS_clean_linker_0, # of connection points: 2
#     Edge 9, Type (0, 0), BuildingBlock: ZUJKAS_clean_linker_0, # of connection points: 2
#     Edge 10, Type (0, 0), BuildingBlock: ZUJKAS_clean_linker_0, # of connection points: 2
#     Edge 11, Type (0, 0), BuildingBlock: ZUJKAS_clean_linker_0, # of connection points: 2
#     Edge 12, Type (0, 0), BuildingBlock: ZUJKAS_clean_linker_0, # of connection points: 2
#     Edge 13, Type (0, 0), BuildingBlock: ZUJKAS_clean_linker_0, # of connection points: 2
#     Edge 14, Type (0, 0), BuildingBlock: ZUJKAS_clean_linker_0, # of connection points: 2
#     Edge 15, Type (0, 0), BuildingBlock: ZUJKAS_clean_linker_0, # of connection points: 2
#     Edge 16, Type (0, 0), BuildingBlock: ZUJKAS_clean_linker_0, # of connection points: 2
#     Edge 17, Type (0, 0), BuildingBlock: ZUJKAS_clean_linker_0, # of connection points: 2
# Relax obj value: 0.249
# Max RMSD: 0.223
# Mean RMSD: 0.223
data_MOF--net-npo--node1-NAHDIM_clean_sbu_0--edge1-ZUJKAS_clean_linker_0
_symmetry_space_group_name_H-M    P1
_symmetry_Int_Tables_number       1
_symmetry_cell_setting            triclinic
loop_
_symmetry_equiv_pos_as_xyz
'x, y, z'
_cell_length_a     53.364261
_cell_length_b     55.847459
_cell_length_c     32.633114
_cell_angle_alpha  92.090163
_cell_angle_beta   89.936133
_cell_angle_gamma 118.4246
loop_
_atom_site_label
_atom_site_type_symbol
_atom_site_fract_x
_atom_site_fract_y
_atom_site_fract_z
_atom_type_partial_charge
C0 C 0.5306 0.09316 0.34349 0.0
O1 O 0.54873 0.11923 0.34129 0.0
O2 O 0.57444 0.11926 0.25559 0.0
Zn3 Zn 0.53196 0.09557 0.25625 0.0
O4 O 0.51915 0.06644 0.21186 0.0
C5 C 0.51604 0.12923 0.21201 0.0
O6 O 0.52974 0.12351 0.1831 0.0
O7 O 0.52049 0.07878 0.31062 0.0
C8 C 0.49269 0.0519 0.2041 0.0
O9 O 0.47434 0.05582 0.22639 0.0
C10 C 0.58924 0.12126 0.2241 0.0
O11 O 0.57668 0.10662 0.19063 0.0
O12 O 0.51368 0.11907 0.24689 0.0
C13 C 0.48727 0.55315 0.63841 0.0
O14 O 0.4765 0.53767 0.66992 0.0
O15 O 0.43205 0.57182 0.6825 0.0
Zn16 Zn 0.47477 0.58906 0.68797 0.0
O17 O 0.48409 0.57654 0.73993 0.0
C18 C 0.47615 0.64031 0.70302 0.0
O19 O 0.44956 0.62398 0.71236 0.0
O20 O 0.48938 0.5768 0.63943 0.0
C21 C 0.47597 0.58194 0.77401 0.0
O22 O 0.46281 0.59671 0.7747 0.0
C23 C 0.41564 0.54866 0.69657 0.0
O24 O 0.42674 0.53488 0.71378 0.0
O25 O 0.49176 0.63005 0.6909 0.0
C26 C 0.90892 0.4573 0.34921 0.0
O27 O 0.91089 0.4764 0.32501 0.0
O28 O 0.85453 0.44345 0.27417 0.0
Zn29 Zn 0.87688 0.42339 0.28093 0.0
O30 O 0.90625 0.43469 0.23734 0.0
C31 C 0.84682 0.36947 0.24163 0.0
O32 O 0.86206 0.38173 0.20986 0.0
O33 O 0.89539 0.43254 0.33659 0.0
C34 C 0.92559 0.4276 0.23589 0.0
O35 O 0.92735 0.41274 0.26492 0.0
C36 C 0.84458 0.44356 0.23889 0.0
O37 O 0.84933 0.43064 0.20792 0.0
O38 O 0.84995 0.38314 0.27502 0.0
C39 C 0.44601 0.94027 0.70462 0.0
O40 O 0.46184 0.9466 0.73816 0.0
O41 O 0.44667 0.87191 0.72193 0.0
Zn42 Zn 0.42095 0.88752 0.73792 0.0
O43 O 0.43048 0.90366 0.79511 0.0
C44 C 0.37726 0.83495 0.75154 0.0
O45 O 0.39947 0.83405 0.76715 0.0
O46 O 0.42624 0.91597 0.6984 0.0
C47 C 0.41172 0.90567 0.81671 0.0
O48 O 0.38607 0.89715 0.801 0.0
C49 C 0.4719 0.88049 0.73567 0.0
O50 O 0.48306 0.90166 0.76159 0.0
O51 O 0.38073 0.85685 0.73608 0.0
C52 C 0.50816 0.45376 0.12697 0.0
O53 O 0.49166 0.44724 0.15908 0.0
O54 O 0.58643 0.45586 0.17327 0.0
Zn55 Zn 0.54379 0.439 0.1759 0.0
O56 O 0.53336 0.4515 0.22847 0.0
C57 C 0.54291 0.3879 0.1838 0.0
O58 O 0.56984 0.40439 0.19292 0.0
O59 O 0.53055 0.45121 0.12768 0.0
C60 C 0.54189 0.44684 0.26211 0.0
O61 O 0.55686 0.43377 0.26131 0.0
C62 C 0.60398 0.47785 0.19209 0.0
O63 O 0.5944 0.49193 0.21388 0.0
O64 O 0.5268 0.39797 0.17466 0.0
C65 C 0.07298 0.48954 0.85687 0.0
O66 O 0.0771 0.47222 0.83324 0.0
O67 O 0.12776 0.51126 0.78243 0.0
Zn68 Zn 0.09872 0.52421 0.79002 0.0
O69 O 0.06968 0.50948 0.7444 0.0
C70 C 0.13206 0.575 0.75484 0.0
O71 O 0.12949 0.55842 0.72361 0.0
O72 O 0.08032 0.51321 0.84442 0.0
C73 C 0.05288 0.51933 0.73927 0.0
O74 O 0.05382 0.53814 0.76557 0.0
C75 C 0.13179 0.50224 0.74812 0.0
O76 O 0.11539 0.49974 0.7165 0.0
O77 O 0.11972 0.56501 0.78808 0.0
H78 H 0.48081 0.1406 0.26031 0.0
H79 H 0.46985 0.17816 0.254 0.0
H80 H 0.5197 0.20211 0.14428 0.0
H81 H 0.52977 0.16415 0.14953 0.0
H82 H 0.50745 0.2288 0.26133 0.0
H83 H 0.4554 0.21443 0.11031 0.0
H84 H 0.45882 0.18732 0.13383 0.0
H85 H 0.48745 0.21197 0.10418 0.0
C86 C 0.48885 0.15351 0.23431 0.0
C87 C 0.5063 0.14955 0.20555 0.0
C88 C 0.48251 0.17491 0.23068 0.0
C89 C 0.49361 0.19279 0.19836 0.0
C90 C 0.51013 0.18816 0.16878 0.0
H91 H 0.57301 0.3612 0.19868 0.0
H92 H 0.55502 0.31246 0.20427 0.0
C93 C 0.51616 0.16658 0.17208 0.0
C94 C 0.49177 0.21847 0.19878 0.0
H95 H 0.48399 0.26199 0.13562 0.0
C96 C 0.50157 0.23571 0.23412 0.0
C97 C 0.4836 0.22746 0.16369 0.0
C98 C 0.47042 0.20911 0.12609 0.0
C99 C 0.50572 0.26242 0.23414 0.0
C100 C 0.50063 0.27235 0.19759 0.0
C101 C 0.48848 0.25448 0.16336 0.0
C102 C 0.51089 0.30179 0.19313 0.0
C103 C 0.51655 0.28008 0.27293 0.0
C104 C 0.49211 0.31185 0.18349 0.0
C105 C 0.50241 0.3399 0.17995 0.0
C106 C 0.53165 0.35815 0.18576 0.0
C107 C 0.55035 0.34779 0.19441 0.0
C108 C 0.54009 0.31992 0.19785 0.0
H109 H 0.51008 0.26758 0.30055 0.0
H110 H 0.54019 0.29132 0.2728 0.0
H111 H 0.50855 0.29515 0.27539 0.0
H112 H 0.46952 0.29808 0.17931 0.0
H113 H 0.48749 0.34728 0.17311 0.0
H114 H 0.38593 0.5719 0.66303 0.0
H115 H 0.33531 0.55792 0.67018 0.0
H116 H 0.32437 0.48935 0.7393 0.0
H117 H 0.37499 0.50293 0.73187 0.0
H118 H 0.27933 0.47746 0.6813 0.0
H119 H 0.30483 0.56888 0.78168 0.0
H120 H 0.32201 0.5764 0.73294 0.0
H121 H 0.33086 0.55796 0.76913 0.0
C122 C 0.37274 0.55368 0.67941 0.0
C123 C 0.38455 0.53869 0.69728 0.0
C124 C 0.34385 0.54579 0.68355 0.0
C125 C 0.32631 0.52291 0.70587 0.0
C126 C 0.33766 0.50716 0.72213 0.0
H127 H 0.16743 0.50188 0.80774 0.0
H128 H 0.21303 0.50227 0.79833 0.0
C129 C 0.36658 0.51499 0.7179 0.0
C130 C 0.29652 0.51635 0.71404 0.0
H131 H 0.25668 0.54235 0.75962 0.0
C132 C 0.27428 0.49152 0.69859 0.0
C133 C 0.29012 0.53456 0.73726 0.0
C134 C 0.31318 0.56083 0.75658 0.0
C135 C 0.24564 0.48477 0.70479 0.0
C136 C 0.23928 0.50354 0.72652 0.0
C137 C 0.2616 0.52803 0.74281 0.0
C138 C 0.20976 0.49883 0.73206 0.0
C139 C 0.22252 0.45758 0.68834 0.0
C140 C 0.19253 0.49616 0.69792 0.0
C141 C 0.16634 0.49577 0.7032 0.0
C142 C 0.15718 0.49844 0.74271 0.0
C143 C 0.17395 0.49993 0.77689 0.0
C144 C 0.2 0.50014 0.77159 0.0
H145 H 0.23057 0.44265 0.68364 0.0
H146 H 0.2042 0.44901 0.70938 0.0
H147 H 0.21475 0.46028 0.65823 0.0
H148 H 0.1999 0.49571 0.66712 0.0
H149 H 0.15398 0.49471 0.67624 0.0
H150 H 0.62591 0.13515 0.1598 0.0
H151 H 0.67494 0.17237 0.15867 0.0
H152 H 0.67019 0.19132 0.2868 0.0
H153 H 0.62146 0.15412 0.28841 0.0
H154 H 0.68939 0.22624 0.17543 0.0
H155 H 0.74795 0.1943 0.28112 0.0
H156 H 0.71356 0.17071 0.25883 0.0
H157 H 0.71607 0.19201 0.30306 0.0
C158 C 0.63548 0.14692 0.18793 0.0
C159 C 0.61975 0.14175 0.22416 0.0
C160 C 0.66349 0.16815 0.1872 0.0
C161 C 0.6763 0.18434 0.22277 0.0
C162 C 0.66094 0.17869 0.25924 0.0
H163 H 0.80985 0.33893 0.30007 0.0
H164 H 0.77084 0.29236 0.29191 0.0
C165 C 0.63298 0.15754 0.26 0.0
C166 C 0.70445 0.20895 0.22099 0.0
H167 H 0.76977 0.24225 0.26856 0.0
C168 C 0.7072 0.22958 0.19517 0.0
C169 C 0.72755 0.21321 0.24687 0.0
C170 C 0.72628 0.19126 0.27374 0.0
C171 C 0.73189 0.25498 0.19619 0.0
C172 C 0.75457 0.25961 0.22327 0.0
C173 C 0.75228 0.23861 0.24792 0.0
C174 C 0.77984 0.2868 0.22867 0.0
C175 C 0.73287 0.27709 0.1699 0.0
C176 C 0.79821 0.2988 0.19605 0.0
C177 C 0.82048 0.3255 0.20053 0.0
C178 C 0.82479 0.34053 0.2378 0.0
C179 C 0.80703 0.32798 0.2709 0.0
C180 C 0.78477 0.30134 0.26635 0.0
H181 H 0.71156 0.27187 0.15689 0.0
H182 H 0.74113 0.29671 0.18791 0.0
H183 H 0.74745 0.28009 0.14403 0.0
H184 H 0.79501 0.2877 0.16693 0.0
H185 H 0.83393 0.33449 0.17455 0.0
H186 H 0.5221 0.88707 0.76909 0.0
H187 H 0.54245 0.85608 0.76003 0.0
H188 H 0.47518 0.80662 0.67287 0.0
H189 H 0.45524 0.83748 0.68101 0.0
H190 H 0.51544 0.8048 0.78135 0.0
H191 H 0.54105 0.80401 0.61839 0.0
H192 H 0.53613 0.83117 0.64222 0.0
H193 H 0.50596 0.80042 0.62215 0.0
C194 C 0.51213 0.86998 0.74718 0.0
C195 C 0.48691 0.86459 0.72604 0.0
C196 C 0.52381 0.85234 0.742 0.0
C197 C 0.51062 0.82924 0.7153 0.0
C198 C 0.48627 0.82468 0.69274 0.0
H199 H 0.44919 0.6674 0.73461 0.0
H200 H 0.4668 0.71634 0.74044 0.0
C201 C 0.47464 0.84222 0.69786 0.0
C202 C 0.51895 0.80744 0.7156 0.0
H203 H 0.5224 0.75957 0.65141 0.0
C204 C 0.51795 0.79542 0.75303 0.0
C205 C 0.52291 0.79545 0.67892 0.0
C206 C 0.5269 0.8087 0.63828 0.0
C207 C 0.51742 0.77014 0.75413 0.0
C208 C 0.51736 0.75641 0.71686 0.0
C209 C 0.52177 0.76985 0.67994 0.0
C210 C 0.50808 0.72686 0.715 0.0
C211 C 0.51524 0.75763 0.79505 0.0
C212 C 0.52522 0.71648 0.69777 0.0
C213 C 0.51509 0.68828 0.69417 0.0
C214 C 0.48754 0.67014 0.70724 0.0
C215 C 0.47052 0.68074 0.72433 0.0
C216 C 0.48066 0.70877 0.72806 0.0
H217 H 0.52584 0.77363 0.81973 0.0
H218 H 0.49244 0.74556 0.80292 0.0
H219 H 0.52497 0.74392 0.79436 0.0
H220 H 0.54631 0.73016 0.68704 0.0
H221 H 0.52867 0.6807 0.68076 0.0
H222 H 0.6311 0.45694 0.1438 0.0
H223 H 0.67943 0.46367 0.15298 0.0
H224 H 0.69421 0.52161 0.25315 0.0
H225 H 0.64566 0.51504 0.24425 0.0
H226 H 0.73695 0.51417 0.15837 0.0
H227 H 0.70126 0.45536 0.30072 0.0
H228 H 0.67618 0.45421 0.26263 0.0
H229 H 0.69495 0.48404 0.29554 0.0
C230 C 0.64474 0.47147 0.16737 0.0
C231 C 0.63447 0.48522 0.19364 0.0
C232 C 0.67238 0.47537 0.17242 0.0
C233 C 0.69016 0.49293 0.20393 0.0
C234 C 0.68063 0.50787 0.22879 0.0
H235 H 0.83511 0.47634 0.29401 0.0
H236 H 0.8022 0.49495 0.28631 0.0
C237 C 0.65296 0.50412 0.22359 0.0
C238 C 0.71734 0.49314 0.21301 0.0
H239 H 0.74631 0.46542 0.2766 0.0
C240 C 0.73931 0.50395 0.18456 0.0
C241 C 0.72024 0.47985 0.24729 0.0
C242 C 0.69695 0.46753 0.27834 0.0
C243 C 0.76388 0.50104 0.18885 0.0
C244 C 0.76603 0.48629 0.22182 0.0
C245 C 0.74463 0.47669 0.25132 0.0
C246 C 0.78872 0.47827 0.22447 0.0
C247 C 0.78708 0.5135 0.15775 0.0
C248 C 0.79218 0.46284 0.1922 0.0
C249 C 0.81106 0.45232 0.19641 0.0
C250 C 0.82648 0.45664 0.23327 0.0
C251 C 0.82344 0.47257 0.26528 0.0
C252 C 0.80472 0.48328 0.2609 0.0
H253 H 0.78734 0.5317 0.14463 0.0
H254 H 0.8084 0.51955 0.17145 0.0
H255 H 0.78298 0.4984 0.13213 0.0
H256 H 0.77946 0.45799 0.16428 0.0
H257 H 0.8128 0.44002 0.17127 0.0
H258 H 0.36544 0.7829 0.7646 0.0
H259 H 0.31889 0.74245 0.76505 0.0
H260 H 0.27822 0.79148 0.74124 0.0
H261 H 0.32508 0.83212 0.73927 0.0
H262 H 0.27537 0.73078 0.81485 0.0
H263 H 0.24107 0.73136 0.65427 0.0
H264 H 0.27711 0.75299 0.67257 0.0
H265 H 0.24954 0.76175 0.68479 0.0
C266 C 0.34662 0.78511 0.75927 0.0
C267 C 0.3489 0.81065 0.75172 0.0
C268 C 0.32001 0.76196 0.75958 0.0
C269 C 0.29508 0.76387 0.75272 0.0
C270 C 0.2972 0.78942 0.74567 0.0
H271 H 0.13622 0.61611 0.80748 0.0
H272 H 0.17201 0.66432 0.80717 0.0
C273 C 0.32395 0.81262 0.74477 0.0
C274 C 0.26708 0.73892 0.75379 0.0
H275 H 0.20879 0.69627 0.69504 0.0
C276 C 0.26068 0.72329 0.78877 0.0
C277 C 0.24805 0.72922 0.71964 0.0
C278 C 0.2543 0.74453 0.68053 0.0
C279 C 0.23644 0.69768 0.78998 0.0
C280 C 0.21747 0.68785 0.75573 0.0
C281 C 0.22326 0.70397 0.72134 0.0
C282 C 0.1933 0.65975 0.75326 0.0
C283 C 0.23237 0.68081 0.82701 0.0
C284 C 0.19238 0.64156 0.72174 0.0
C285 C 0.17165 0.61423 0.72135 0.0
C286 C 0.15161 0.6045 0.75274 0.0
C287 C 0.15167 0.62298 0.78323 0.0
C288 C 0.17218 0.65047 0.78321 0.0
H289 H 0.25221 0.68864 0.84594 0.0
H290 H 0.21568 0.68147 0.84656 0.0
H291 H 0.22548 0.65922 0.8177 0.0
H292 H 0.20839 0.64829 0.69821 0.0
H293 H 0.17212 0.60053 0.69735 0.0
H294 H 0.37676 0.9129 0.87136 0.0
H295 H 0.38956 0.93503 0.93991 0.0
H296 H 0.47544 0.94811 0.92557 0.0
H297 H 0.46303 0.92626 0.85701 0.0
H298 H 0.41392 0.92194 0.00981 0.0
H299 H 0.48391 0.02494 0.95213 0.0
H300 H 0.4582 -0.00275 0.91967 0.0
H301 H 0.49153 -0.00141 0.93287 0.0
C302 C 0.39836 0.92044 0.88281 0.0
C303 C 0.41896 0.91805 0.85865 0.0
C304 C 0.40558 0.93299 0.92197 0.0
C305 C 0.43349 0.94343 0.93739 0.0
C306 C 0.45389 0.94049 0.91382 0.0
H307 H 0.52524 0.03895 0.15277 0.0
H308 H 0.50976 0.01009 0.09008 0.0
C309 C 0.44672 0.92795 0.87473 0.0
C310 C 0.44151 0.95796 0.97782 0.0
H311 H 0.48408 0.02024 0.02382 0.0
C312 C 0.42917 0.94344 0.01302 0.0
C313 C 0.46138 0.98599 0.98162 0.0
C314 C 0.47439 0.00274 0.9446 0.0
C315 C 0.43671 0.9562 0.05224 0.0
C316 C 0.4567 0.98421 0.05602 0.0
C317 C 0.46887 -0.00129 0.02075 0.0
C318 C 0.46526 -0.0008 0.09614 0.0
C319 C 0.42372 0.93952 0.08929 0.0
C320 C 0.44526 0.00239 0.12043 0.0
C321 C 0.45402 0.01884 0.15636 0.0
C322 C 0.48295 0.03254 0.1683 0.0
C323 C 0.5028 0.02872 0.14438 0.0
C324 C 0.49401 0.01224 0.10857 0.0
H325 H 0.41466 0.91734 0.08193 0.0
H326 H 0.43976 0.94537 0.11453 0.0
H327 H 0.4062 0.94329 0.10047 0.0
H328 H 0.42305 0.9929 0.1109 0.0
H329 H 0.43824 0.02144 0.17406 0.0
H330 H 0.51087 0.47371 0.2746 0.0
H331 H 0.50277 0.4918 0.33975 0.0
H332 H 0.55164 0.46115 0.40362 0.0
H333 H 0.56004 0.44312 0.33867 0.0
H334 H 0.47693 0.46275 0.41169 0.0
H335 H 0.58903 0.54313 0.43957 0.0
H336 H 0.57594 0.52635 0.3899 0.0
H337 H 0.5842 0.50935 0.42915 0.0
C338 C 0.51991 0.47081 0.30249 0.0
C339 C 0.53621 0.45709 0.30147 0.0
C340 C 0.51524 0.48114 0.33963 0.0
C341 C 0.52695 0.47809 0.37626 0.0
C342 C 0.54285 0.46407 0.3755 0.0
H343 H 0.48163 0.50228 0.62421 0.0
H344 H 0.49185 0.48392 0.56098 0.0
C345 C 0.54748 0.45368 0.3384 0.0
C346 C 0.52222 0.48936 0.41536 0.0
H347 H 0.55654 0.53656 0.49299 0.0
C348 C 0.49429 0.47888 0.42953 0.0
C349 C 0.54496 0.51058 0.43817 0.0
C350 C 0.57522 0.52324 0.42338 0.0
C351 C 0.48848 0.48891 0.46629 0.0
C352 C 0.51128 0.50973 0.48954 0.0
C353 C 0.53919 0.52042 0.47517 0.0
C354 C 0.50643 0.52115 0.52839 0.0
C355 C 0.45797 0.47752 0.47965 0.0
C356 C 0.51207 0.54837 0.53121 0.0
C357 C 0.50634 0.55897 0.56727 0.0
C358 C 0.49503 0.54251 0.60117 0.0
C359 C 0.49021 0.51545 0.59858 0.0
C360 C 0.49589 0.50487 0.56246 0.0
H361 H 0.44263 0.466 0.45421 0.0
H362 H 0.45412 0.46343 0.50486 0.0
H363 H 0.45365 0.4941 0.49134 0.0
H364 H 0.52036 0.56125 0.5052 0.0
H365 H 0.5104 0.57992 0.56833 0.0
H366 H 0.05301 0.4401 0.89194 0.0
H367 H 0.031 0.4273 0.95909 0.0
H368 H 0.0419 0.50835 0.98084 0.0
H369 H 0.06402 0.52143 0.91407 0.0
H370 H 0.05826 0.48607 0.0487 0.0
H371 H 0.94978 0.41697 0.98395 0.0
H372 H 0.97831 0.41116 0.96557 0.0
H373 H 0.97771 0.44203 0.95381 0.0
C374 C 0.05076 0.45522 0.91103 0.0
C375 C 0.06008 0.48173 0.89758 0.0
C376 C 0.03817 0.44785 0.9493 0.0
C377 C 0.03469 0.46685 0.97461 0.0
C378 C 0.04444 0.49343 0.96164 0.0
H379 H 0.92497 0.45566 0.1697 0.0
H380 H 0.95343 0.46424 0.10815 0.0
C381 C 0.05695 0.50081 0.92341 0.0
C382 C 0.02018 0.45903 0.01422 0.0
H383 H 0.95484 0.42158 0.05583 0.0
C384 C 0.03571 0.47178 0.05044 0.0
C385 C 0.99075 0.44054 0.01606 0.0
C386 C 0.97299 0.42696 0.97785 0.0
C387 C 0.02239 0.46681 0.0886 0.0
C388 C 0.9929 0.44857 0.09033 0.0
C389 C 0.97751 0.43545 0.05422 0.0
C390 C 0.97706 0.44432 0.12882 0.0
C391 C 0.03958 0.4818 0.12659 0.0
C392 C 0.98115 0.4304 0.16087 0.0
C393 C 0.96485 0.4254 0.19626 0.0
C394 C 0.94424 0.43423 0.19993 0.0
C395 C 0.94064 0.44857 0.16791 0.0
C396 C 0.95684 0.45347 0.13266 0.0
H397 H 0.06123 0.49808 0.1192 0.0
H398 H 0.02845 0.49107 0.14452 0.0
H399 H 0.04188 0.46717 0.14634 0.0
H400 H -0.00349 0.42297 0.15816 0.0
H401 H 0.96806 0.41425 0.22035 0.0
H402 H 0.55154 0.11655 0.4196 0.0
H403 H 0.53891 0.09445 0.48557 0.0
H404 H 0.47824 0.01935 0.42385 0.0
H405 H 0.49092 0.04099 0.358 0.0
H406 H 0.48559 0.0679 0.52448 0.0
H407 H 0.52918 -0.00273 0.48873 0.0
H408 H 0.5376 0.02679 0.45916 0.0
H409 H 0.50452 -0.00405 0.45022 0.0
C410 C 0.5355 0.09533 0.42012 0.0
C411 C 0.52242 0.08043 0.38357 0.0
C412 C 0.52831 0.08279 0.45778 0.0
C413 C 0.50805 0.05519 0.45935 0.0
C414 C 0.4944 0.04052 0.42309 0.0
H415 H 0.42043 0.93211 0.62932 0.0
H416 H 0.43611 0.96314 0.57273 0.0
C417 C 0.50161 0.05297 0.38552 0.0
C418 C 0.50105 0.04143 0.49873 0.0
H419 H 0.49806 0.98664 0.54581 0.0
C420 C 0.48863 0.05036 0.52948 0.0
C421 C 0.50532 0.01872 0.50513 0.0
C422 C 0.52015 0.00926 0.47423 0.0
C423 C 0.4791 0.03625 0.56582 0.0
C424 C 0.4822 0.01284 0.57122 0.0
C425 C 0.4955 0.0045 0.54115 0.0
C426 C 0.47089 -0.0041 0.60711 0.0
C427 C 0.46489 0.04573 0.59762 0.0
C428 C 0.48513 0.00438 0.6452 0.0
C429 C 0.47633 0.98665 0.67763 0.0
C430 C 0.45322 0.96021 0.67226 0.0
C431 C 0.43834 0.9523 0.63445 0.0
C432 C 0.44722 0.96997 0.60209 0.0
H433 H 0.46194 0.06296 0.58721 0.0
H434 H 0.44379 0.02864 0.60515 0.0
H435 H 0.4781 0.05239 0.62622 0.0
H436 H 0.50363 0.02429 0.64935 0.0
H437 H 0.48819 0.99336 0.70641 0.0
H438 H 0.46476 0.59247 0.85235 0.0
H439 H 0.46809 0.57097 0.91471 0.0
H440 H 0.49726 0.52268 0.84381 0.0
H441 H 0.49411 0.54404 0.78127 0.0
H442 H 0.4488 0.49382 0.90172 0.0
H443 H 0.54528 0.58262 0.97063 0.0
H444 H 0.51718 0.58863 0.95159 0.0
H445 H 0.53703 0.57912 0.91635 0.0
C446 C 0.47205 0.57739 0.85004 0.0
C447 C 0.47926 0.57 0.81192 0.0
C448 C 0.47394 0.56518 0.88566 0.0
C449 C 0.48298 0.54538 0.88365 0.0
C450 C 0.49025 0.53798 0.84578 0.0
H451 H 0.54015 0.47202 0.0587 0.0
H452 H 0.53156 0.49372 0.00082 0.0
C453 C 0.48855 0.55028 0.81018 0.0
C454 C 0.48463 0.53209 0.92099 0.0
H455 H 0.52399 0.54285 0.00854 0.0
C456 C 0.46508 0.5045 0.92529 0.0
C457 C 0.50599 0.54623 0.95135 0.0
C458 C 0.52775 0.57576 0.94743 0.0
C459 C 0.46655 0.49051 0.95926 0.0
C460 C 0.48808 0.50459 0.98943 0.0
C461 C 0.50742 0.53226 0.98532 0.0
C462 C 0.49219 0.49054 0.02409 0.0
C463 C 0.44572 0.46062 0.96214 0.0
C464 C 0.47273 0.48152 0.05618 0.0
C465 C 0.47758 0.46911 0.08952 0.0
C466 C 0.50196 0.46559 0.09109 0.0
C467 C 0.52115 0.47439 0.05848 0.0
C468 C 0.51634 0.48684 0.0254 0.0
H469 H 0.43273 0.45191 0.93357 0.0
H470 H 0.45722 0.44899 0.96863 0.0
H471 H 0.4311 0.45784 0.9879 0.0
H472 H 0.45408 0.48446 0.05571 0.0
H473 H 0.46245 0.4626 0.11419 0.0
H474 H 0.04936 0.4842 0.67642 0.0
H475 H 0.02252 0.47468 0.61193 0.0
H476 H 0.98867 0.5277 0.65252 0.0
H477 H 0.0154 0.53736 0.71743 0.0
H478 H 0.94784 0.4756 0.6133 0.0
H479 H 0.04543 0.53313 0.52292 0.0
H480 H 0.0464 0.50814 0.55512 0.0
H481 H 0.0449 0.53717 0.57803 0.0
C482 C 0.03605 0.4937 0.67186 0.0
C483 C 0.03468 0.51171 0.70191 0.0
C484 C 0.02084 0.48831 0.63492 0.0
C485 C 0.00405 0.50085 0.62738 0.0
C486 C 0.00171 0.518 0.65783 0.0
H487 H 0.94015 0.50816 0.38519 0.0
H488 H 0.96176 0.51974 0.45407 0.0
C489 C 0.01699 0.52348 0.69482 0.0
C490 C 0.98954 0.49649 0.58721 0.0
H491 H 0.00235 0.50631 0.48515 0.0
C492 C 0.95967 0.48243 0.58526 0.0
C493 C 0.00514 0.50583 0.55092 0.0
C494 C 0.03724 0.52213 0.55167 0.0
C495 C 0.94495 0.47665 0.54753 0.0
C496 C 0.96062 0.48496 0.51105 0.0
C497 C 0.99045 0.49979 0.51321 0.0
C498 C 0.94657 0.47789 0.47015 0.0
C499 C 0.9128 0.46177 0.54698 0.0
C500 C 0.93118 0.45055 0.45639 0.0
C501 C 0.91889 0.44386 0.4171 0.0
C502 C 0.9219 0.46444 0.39082 0.0
C503 C 0.93741 0.49184 0.40471 0.0
C504 C 0.94974 0.4985 0.44402 0.0
H505 H 0.90415 0.46328 0.57739 0.0
H506 H 0.90408 0.46993 0.52364 0.0
H507 H 0.9052 0.43988 0.53904 0.0
H508 H 0.92902 0.43438 0.47584 0.0
H509 H 0.90716 0.42255 0.40729 0.0
loop_
_geom_bond_atom_site_label_1
_geom_bond_atom_site_label_2
_geom_bond_distance
_geom_bond_site_symmetry_2
_ccdc_geom_bond_type
C0 O1 1.160 . S
C0 O7 1.185 . S
O1 C0 1.160 . S
O2 Zn3 1.899 . S
O2 C10 1.284 . S
Zn3 O2 1.899 . S
Zn3 O4 2.032 . S
Zn3 O7 2.086 . S
Zn3 O12 1.977 . S
O4 Zn3 2.032 . S
O4 C8 1.278 . S
C5 O6 1.203 . S
C5 O12 1.267 . S
O6 C5 1.203 . S
O7 C0 1.185 . S
O7 Zn3 2.086 . S
C8 O4 1.278 . S
C8 O9 1.211 . S
O9 C8 1.211 . S
C10 O2 1.284 . S
C10 O11 1.273 . S
O11 C10 1.273 . S
O12 Zn3 1.977 . S
O12 C5 1.267 . S
C13 O14 1.160 . S
C13 O20 1.185 . S
O14 C13 1.160 . S
O15 Zn16 1.899 . S
O15 C23 1.284 . S
Zn16 O15 1.899 . S
Zn16 O17 2.032 . S
Zn16 O20 2.086 . S
Zn16 O25 1.977 . S
O17 Zn16 2.032 . S
O17 C21 1.278 . S
C18 O19 1.203 . S
C18 O25 1.267 . S
O19 C18 1.203 . S
O20 C13 1.185 . S
O20 Zn16 2.086 . S
C21 O17 1.278 . S
C21 O22 1.211 . S
O22 C21 1.211 . S
C23 O15 1.284 . S
C23 O24 1.273 . S
O24 C23 1.273 . S
O25 Zn16 1.977 . S
O25 C18 1.267 . S
C26 O27 1.160 . S
C26 O33 1.185 . S
O27 C26 1.160 . S
O28 Zn29 1.899 . S
O28 C36 1.284 . S
Zn29 O28 1.899 . S
Zn29 O30 2.032 . S
Zn29 O33 2.086 . S
Zn29 O38 1.977 . S
O30 Zn29 2.032 . S
O30 C34 1.278 . S
C31 O32 1.203 . S
C31 O38 1.267 . S
O32 C31 1.203 . S
O33 C26 1.185 . S
O33 Zn29 2.086 . S
C34 O30 1.278 . S
C34 O35 1.211 . S
O35 C34 1.211 . S
C36 O28 1.284 . S
C36 O37 1.273 . S
O37 C36 1.273 . S
O38 Zn29 1.977 . S
O38 C31 1.267 . S
C39 O40 1.160 . S
C39 O46 1.185 . S
O40 C39 1.160 . S
O41 Zn42 1.899 . S
O41 C49 1.284 . S
Zn42 O41 1.899 . S
Zn42 O43 2.032 . S
Zn42 O46 2.086 . S
Zn42 O51 1.977 . S
O43 Zn42 2.032 . S
O43 C47 1.278 . S
C44 O45 1.203 . S
C44 O51 1.267 . S
O45 C44 1.203 . S
O46 C39 1.185 . S
O46 Zn42 2.086 . S
C47 O43 1.278 . S
C47 O48 1.211 . S
O48 C47 1.211 . S
C49 O41 1.284 . S
C49 O50 1.273 . S
O50 C49 1.273 . S
O51 Zn42 1.977 . S
O51 C44 1.267 . S
C52 O53 1.160 . S
C52 O59 1.185 . S
O53 C52 1.160 . S
O54 Zn55 1.899 . S
O54 C62 1.284 . S
Zn55 O54 1.899 . S
Zn55 O56 2.032 . S
Zn55 O59 2.086 . S
Zn55 O64 1.977 . S
O56 Zn55 2.032 . S
O56 C60 1.278 . S
C57 O58 1.203 . S
C57 O64 1.267 . S
O58 C57 1.203 . S
O59 C52 1.185 . S
O59 Zn55 2.086 . S
C60 O56 1.278 . S
C60 O61 1.211 . S
O61 C60 1.211 . S
C62 O54 1.284 . S
C62 O63 1.273 . S
O63 C62 1.273 . S
O64 Zn55 1.977 . S
O64 C57 1.267 . S
C65 O66 1.160 . S
C65 O72 1.185 . S
O66 C65 1.160 . S
O67 Zn68 1.899 . S
O67 C75 1.284 . S
Zn68 O67 1.899 . S
Zn68 O69 2.032 . S
Zn68 O72 2.086 . S
Zn68 O77 1.977 . S
O69 Zn68 2.032 . S
O69 C73 1.278 . S
C70 O71 1.203 . S
C70 O77 1.267 . S
O71 C70 1.203 . S
O72 C65 1.185 . S
O72 Zn68 2.086 . S
C73 O69 1.278 . S
C73 O74 1.211 . S
O74 C73 1.211 . S
C75 O67 1.284 . S
C75 O76 1.273 . S
O76 C75 1.273 . S
O77 Zn68 1.977 . S
O77 C70 1.267 . S
H78 C86 0.929 . S
H79 C88 0.930 . S
H80 C90 0.930 . S
H81 C93 0.929 . S
H82 C96 0.930 . S
H83 C98 0.960 . S
H84 C98 0.960 . S
H85 C98 0.960 . S
C86 H78 0.929 . S
C86 C87 1.377 . S
C86 C88 1.384 . S
C87 C86 1.377 . S
C87 C93 1.390 . S
C88 H79 0.930 . S
C88 C86 1.384 . S
C88 C89 1.372 . S
C89 C88 1.372 . S
C89 C90 1.400 . S
C89 C94 1.490 . S
C90 H80 0.930 . S
C90 C89 1.400 . S
C90 C93 1.386 . S
H91 C107 0.930 . S
H92 C108 0.931 . S
C93 H81 0.929 . S
C93 C87 1.390 . S
C93 C90 1.386 . S
C94 C89 1.490 . S
C94 C96 1.395 . S
C94 C97 1.403 . S
H95 C101 0.930 . S
C96 H82 0.930 . S
C96 C94 1.395 . S
C96 C99 1.403 . S
C97 C94 1.403 . S
C97 C98 1.524 . S
C97 C101 1.400 . S
C98 H83 0.960 . S
C98 H84 0.960 . S
C98 H85 0.960 . S
C98 C97 1.524 . S
C99 C96 1.403 . S
C99 C100 1.392 . S
C99 C103 1.495 . S
C100 C99 1.392 . S
C100 C101 1.385 . S
C100 C102 1.478 . S
C101 H95 0.930 . S
C101 C97 1.400 . S
C101 C100 1.385 . S
C102 C100 1.478 . S
C102 C104 1.381 . S
C102 C108 1.383 . S
C103 C99 1.495 . S
C103 H109 0.959 . S
C103 H110 0.961 . S
C103 H111 0.960 . S
C104 C102 1.381 . S
C104 C105 1.394 . S
C104 H112 0.930 . S
C105 C104 1.394 . S
C105 C106 1.383 . S
C105 H113 0.929 . S
C106 C105 1.383 . S
C106 C107 1.377 . S
C107 H91 0.930 . S
C107 C106 1.377 . S
C107 C108 1.379 . S
C108 H92 0.931 . S
C108 C102 1.383 . S
C108 C107 1.379 . S
H109 C103 0.959 . S
H110 C103 0.961 . S
H111 C103 0.960 . S
H112 C104 0.930 . S
H113 C105 0.929 . S
H114 C122 0.929 . S
H115 C124 0.930 . S
H116 C126 0.930 . S
H117 C129 0.929 . S
H118 C132 0.930 . S
H119 C134 0.960 . S
H120 C134 0.960 . S
H121 C134 0.960 . S
C122 H114 0.929 . S
C122 C123 1.377 . S
C122 C124 1.384 . S
C123 C122 1.377 . S
C123 C129 1.390 . S
C124 H115 0.930 . S
C124 C122 1.384 . S
C124 C125 1.372 . S
C125 C124 1.372 . S
C125 C126 1.400 . S
C125 C130 1.490 . S
C126 H116 0.930 . S
C126 C125 1.400 . S
C126 C129 1.386 . S
H127 C143 0.930 . S
H128 C144 0.931 . S
C129 H117 0.929 . S
C129 C123 1.390 . S
C129 C126 1.386 . S
C130 C125 1.490 . S
C130 C132 1.395 . S
C130 C133 1.403 . S
H131 C137 0.930 . S
C132 H118 0.930 . S
C132 C130 1.395 . S
C132 C135 1.403 . S
C133 C130 1.403 . S
C133 C134 1.524 . S
C133 C137 1.400 . S
C134 H119 0.960 . S
C134 H120 0.960 . S
C134 H121 0.960 . S
C134 C133 1.524 . S
C135 C132 1.403 . S
C135 C136 1.392 . S
C135 C139 1.495 . S
C136 C135 1.392 . S
C136 C137 1.385 . S
C136 C138 1.478 . S
C137 H131 0.930 . S
C137 C133 1.400 . S
C137 C136 1.385 . S
C138 C136 1.478 . S
C138 C140 1.381 . S
C138 C144 1.383 . S
C139 C135 1.495 . S
C139 H145 0.959 . S
C139 H146 0.961 . S
C139 H147 0.960 . S
C140 C138 1.381 . S
C140 C141 1.394 . S
C140 H148 0.930 . S
C141 C140 1.394 . S
C141 C142 1.383 . S
C141 H149 0.929 . S
C142 C141 1.383 . S
C142 C143 1.377 . S
C143 H127 0.930 . S
C143 C142 1.377 . S
C143 C144 1.379 . S
C144 H128 0.931 . S
C144 C138 1.383 . S
C144 C143 1.379 . S
H145 C139 0.959 . S
H146 C139 0.961 . S
H147 C139 0.960 . S
H148 C140 0.930 . S
H149 C141 0.929 . S
H150 C158 0.929 . S
H151 C160 0.930 . S
H152 C162 0.930 . S
H153 C165 0.929 . S
H154 C168 0.930 . S
H155 C170 0.960 . S
H156 C170 0.960 . S
H157 C170 0.960 . S
C158 H150 0.929 . S
C158 C159 1.377 . S
C158 C160 1.384 . S
C159 C158 1.377 . S
C159 C165 1.390 . S
C160 H151 0.930 . S
C160 C158 1.384 . S
C160 C161 1.372 . S
C161 C160 1.372 . S
C161 C162 1.400 . S
C161 C166 1.490 . S
C162 H152 0.930 . S
C162 C161 1.400 . S
C162 C165 1.386 . S
H163 C179 0.930 . S
H164 C180 0.931 . S
C165 H153 0.929 . S
C165 C159 1.390 . S
C165 C162 1.386 . S
C166 C161 1.490 . S
C166 C168 1.395 . S
C166 C169 1.403 . S
H167 C173 0.930 . S
C168 H154 0.930 . S
C168 C166 1.395 . S
C168 C171 1.403 . S
C169 C166 1.403 . S
C169 C170 1.524 . S
C169 C173 1.400 . S
C170 H155 0.960 . S
C170 H156 0.960 . S
C170 H157 0.960 . S
C170 C169 1.524 . S
C171 C168 1.403 . S
C171 C172 1.392 . S
C171 C175 1.495 . S
C172 C171 1.392 . S
C172 C173 1.385 . S
C172 C174 1.478 . S
C173 H167 0.930 . S
C173 C169 1.400 . S
C173 C172 1.385 . S
C174 C172 1.478 . S
C174 C176 1.381 . S
C174 C180 1.383 . S
C175 C171 1.495 . S
C175 H181 0.959 . S
C175 H182 0.961 . S
C175 H183 0.960 . S
C176 C174 1.381 . S
C176 C177 1.394 . S
C176 H184 0.930 . S
C177 C176 1.394 . S
C177 C178 1.383 . S
C177 H185 0.929 . S
C178 C177 1.383 . S
C178 C179 1.377 . S
C179 H163 0.930 . S
C179 C178 1.377 . S
C179 C180 1.379 . S
C180 H164 0.931 . S
C180 C174 1.383 . S
C180 C179 1.379 . S
H181 C175 0.959 . S
H182 C175 0.961 . S
H183 C175 0.960 . S
H184 C176 0.930 . S
H185 C177 0.929 . S
H186 C194 0.929 . S
H187 C196 0.930 . S
H188 C198 0.930 . S
H189 C201 0.929 . S
H190 C204 0.930 . S
H191 C206 0.960 . S
H192 C206 0.960 . S
H193 C206 0.960 . S
C194 H186 0.929 . S
C194 C195 1.377 . S
C194 C196 1.384 . S
C195 C194 1.377 . S
C195 C201 1.390 . S
C196 H187 0.930 . S
C196 C194 1.384 . S
C196 C197 1.372 . S
C197 C196 1.372 . S
C197 C198 1.400 . S
C197 C202 1.490 . S
C198 H188 0.930 . S
C198 C197 1.400 . S
C198 C201 1.386 . S
H199 C215 0.930 . S
H200 C216 0.931 . S
C201 H189 0.929 . S
C201 C195 1.390 . S
C201 C198 1.386 . S
C202 C197 1.490 . S
C202 C204 1.395 . S
C202 C205 1.403 . S
H203 C209 0.930 . S
C204 H190 0.930 . S
C204 C202 1.395 . S
C204 C207 1.403 . S
C205 C202 1.403 . S
C205 C206 1.524 . S
C205 C209 1.400 . S
C206 H191 0.960 . S
C206 H192 0.960 . S
C206 H193 0.960 . S
C206 C205 1.524 . S
C207 C204 1.403 . S
C207 C208 1.392 . S
C207 C211 1.495 . S
C208 C207 1.392 . S
C208 C209 1.385 . S
C208 C210 1.478 . S
C209 H203 0.930 . S
C209 C205 1.400 . S
C209 C208 1.385 . S
C210 C208 1.478 . S
C210 C212 1.381 . S
C210 C216 1.383 . S
C211 C207 1.495 . S
C211 H217 0.959 . S
C211 H218 0.961 . S
C211 H219 0.960 . S
C212 C210 1.381 . S
C212 C213 1.394 . S
C212 H220 0.930 . S
C213 C212 1.394 . S
C213 C214 1.383 . S
C213 H221 0.929 . S
C214 C213 1.383 . S
C214 C215 1.377 . S
C215 H199 0.930 . S
C215 C214 1.377 . S
C215 C216 1.379 . S
C216 H200 0.931 . S
C216 C210 1.383 . S
C216 C215 1.379 . S
H217 C211 0.959 . S
H218 C211 0.961 . S
H219 C211 0.960 . S
H220 C212 0.930 . S
H221 C213 0.929 . S
H222 C230 0.929 . S
H223 C232 0.930 . S
H224 C234 0.930 . S
H225 C237 0.929 . S
H226 C240 0.930 . S
H227 C242 0.960 . S
H228 C242 0.960 . S
H229 C242 0.960 . S
C230 H222 0.929 . S
C230 C231 1.377 . S
C230 C232 1.384 . S
C231 C230 1.377 . S
C231 C237 1.390 . S
C232 H223 0.930 . S
C232 C230 1.384 . S
C232 C233 1.372 . S
C233 C232 1.372 . S
C233 C234 1.400 . S
C233 C238 1.490 . S
C234 H224 0.930 . S
C234 C233 1.400 . S
C234 C237 1.386 . S
H235 C251 0.930 . S
H236 C252 0.931 . S
C237 H225 0.929 . S
C237 C231 1.390 . S
C237 C234 1.386 . S
C238 C233 1.490 . S
C238 C240 1.395 . S
C238 C241 1.403 . S
H239 C245 0.930 . S
C240 H226 0.930 . S
C240 C238 1.395 . S
C240 C243 1.403 . S
C241 C238 1.403 . S
C241 C242 1.524 . S
C241 C245 1.400 . S
C242 H227 0.960 . S
C242 H228 0.960 . S
C242 H229 0.960 . S
C242 C241 1.524 . S
C243 C240 1.403 . S
C243 C244 1.392 . S
C243 C247 1.495 . S
C244 C243 1.392 . S
C244 C245 1.385 . S
C244 C246 1.478 . S
C245 H239 0.930 . S
C245 C241 1.400 . S
C245 C244 1.385 . S
C246 C244 1.478 . S
C246 C248 1.381 . S
C246 C252 1.383 . S
C247 C243 1.495 . S
C247 H253 0.959 . S
C247 H254 0.961 . S
C247 H255 0.960 . S
C248 C246 1.381 . S
C248 C249 1.394 . S
C248 H256 0.930 . S
C249 C248 1.394 . S
C249 C250 1.383 . S
C249 H257 0.929 . S
C250 C249 1.383 . S
C250 C251 1.377 . S
C251 H235 0.930 . S
C251 C250 1.377 . S
C251 C252 1.379 . S
C252 H236 0.931 . S
C252 C246 1.383 . S
C252 C251 1.379 . S
H253 C247 0.959 . S
H254 C247 0.961 . S
H255 C247 0.960 . S
H256 C248 0.930 . S
H257 C249 0.929 . S
H258 C266 0.929 . S
H259 C268 0.930 . S
H260 C270 0.930 . S
H261 C273 0.929 . S
H262 C276 0.930 . S
H263 C278 0.960 . S
H264 C278 0.960 . S
H265 C278 0.960 . S
C266 H258 0.929 . S
C266 C267 1.377 . S
C266 C268 1.384 . S
C267 C266 1.377 . S
C267 C273 1.390 . S
C268 H259 0.930 . S
C268 C266 1.384 . S
C268 C269 1.372 . S
C269 C268 1.372 . S
C269 C270 1.400 . S
C269 C274 1.490 . S
C270 H260 0.930 . S
C270 C269 1.400 . S
C270 C273 1.386 . S
H271 C287 0.930 . S
H272 C288 0.931 . S
C273 H261 0.929 . S
C273 C267 1.390 . S
C273 C270 1.386 . S
C274 C269 1.490 . S
C274 C276 1.395 . S
C274 C277 1.403 . S
H275 C281 0.930 . S
C276 H262 0.930 . S
C276 C274 1.395 . S
C276 C279 1.403 . S
C277 C274 1.403 . S
C277 C278 1.524 . S
C277 C281 1.400 . S
C278 H263 0.960 . S
C278 H264 0.960 . S
C278 H265 0.960 . S
C278 C277 1.524 . S
C279 C276 1.403 . S
C279 C280 1.392 . S
C279 C283 1.495 . S
C280 C279 1.392 . S
C280 C281 1.385 . S
C280 C282 1.478 . S
C281 H275 0.930 . S
C281 C277 1.400 . S
C281 C280 1.385 . S
C282 C280 1.478 . S
C282 C284 1.381 . S
C282 C288 1.383 . S
C283 C279 1.495 . S
C283 H289 0.959 . S
C283 H290 0.961 . S
C283 H291 0.960 . S
C284 C282 1.381 . S
C284 C285 1.394 . S
C284 H292 0.930 . S
C285 C284 1.394 . S
C285 C286 1.383 . S
C285 H293 0.929 . S
C286 C285 1.383 . S
C286 C287 1.377 . S
C287 H271 0.930 . S
C287 C286 1.377 . S
C287 C288 1.379 . S
C288 H272 0.931 . S
C288 C282 1.383 . S
C288 C287 1.379 . S
H289 C283 0.959 . S
H290 C283 0.961 . S
H291 C283 0.960 . S
H292 C284 0.930 . S
H293 C285 0.929 . S
H294 C302 0.929 . S
H295 C304 0.930 . S
H296 C306 0.930 . S
H297 C309 0.929 . S
H298 C312 0.930 . S
H299 C314 0.960 . S
H300 C314 0.960 . S
H301 C314 0.960 . S
C302 H294 0.929 . S
C302 C303 1.377 . S
C302 C304 1.384 . S
C303 C302 1.377 . S
C303 C309 1.390 . S
C304 H295 0.930 . S
C304 C302 1.384 . S
C304 C305 1.372 . S
C305 C304 1.372 . S
C305 C306 1.400 . S
C305 C310 1.490 . S
C306 H296 0.930 . S
C306 C305 1.400 . S
C306 C309 1.386 . S
H307 C323 0.930 . S
H308 C324 0.931 . S
C309 H297 0.929 . S
C309 C303 1.390 . S
C309 C306 1.386 . S
C310 C305 1.490 . S
C310 C312 1.395 . S
C310 C313 1.403 1_565 S
H311 C317 0.930 . S
C312 H298 0.930 . S
C312 C310 1.395 . S
C312 C315 1.403 1_556 S
C313 C310 1.403 1_545 S
C313 C314 1.524 . S
C313 C317 1.400 1_556 S
C314 H299 0.960 . S
C314 H300 0.960 . S
C314 H301 0.960 . S
C314 C313 1.524 . S
C315 C312 1.403 1_554 S
C315 C316 1.392 1_565 S
C315 C319 1.495 . S
C316 C315 1.392 1_545 S
C316 C317 1.385 . S
C316 C318 1.478 . S
C317 H311 0.930 . S
C317 C313 1.400 1_554 S
C317 C316 1.385 . S
C318 C316 1.478 . S
C318 C320 1.381 . S
C318 C324 1.383 . S
C319 C315 1.495 . S
C319 H325 0.959 . S
C319 H326 0.961 . S
C319 H327 0.960 . S
C320 C318 1.381 . S
C320 C321 1.394 . S
C320 H328 0.930 . S
C321 C320 1.394 . S
C321 C322 1.383 . S
C321 H329 0.929 . S
C322 C321 1.383 . S
C322 C323 1.377 . S
C323 H307 0.930 . S
C323 C322 1.377 . S
C323 C324 1.379 . S
C324 H308 0.931 . S
C324 C318 1.383 . S
C324 C323 1.379 . S
H325 C319 0.959 . S
H326 C319 0.961 . S
H327 C319 0.960 . S
H328 C320 0.930 . S
H329 C321 0.929 . S
H330 C338 0.929 . S
H331 C340 0.930 . S
H332 C342 0.930 . S
H333 C345 0.929 . S
H334 C348 0.930 . S
H335 C350 0.960 . S
H336 C350 0.960 . S
H337 C350 0.960 . S
C338 H330 0.929 . S
C338 C339 1.377 . S
C338 C340 1.384 . S
C339 C338 1.377 . S
C339 C345 1.390 . S
C340 H331 0.930 . S
C340 C338 1.384 . S
C340 C341 1.372 . S
C341 C340 1.372 . S
C341 C342 1.400 . S
C341 C346 1.490 . S
C342 H332 0.930 . S
C342 C341 1.400 . S
C342 C345 1.386 . S
H343 C359 0.930 . S
H344 C360 0.931 . S
C345 H333 0.929 . S
C345 C339 1.390 . S
C345 C342 1.386 . S
C346 C341 1.490 . S
C346 C348 1.395 . S
C346 C349 1.403 . S
H347 C353 0.930 . S
C348 H334 0.930 . S
C348 C346 1.395 . S
C348 C351 1.403 . S
C349 C346 1.403 . S
C349 C350 1.524 . S
C349 C353 1.400 . S
C350 H335 0.960 . S
C350 H336 0.960 . S
C350 H337 0.960 . S
C350 C349 1.524 . S
C351 C348 1.403 . S
C351 C352 1.392 . S
C351 C355 1.495 . S
C352 C351 1.392 . S
C352 C353 1.385 . S
C352 C354 1.478 . S
C353 H347 0.930 . S
C353 C349 1.400 . S
C353 C352 1.385 . S
C354 C352 1.478 . S
C354 C356 1.381 . S
C354 C360 1.383 . S
C355 C351 1.495 . S
C355 H361 0.959 . S
C355 H362 0.961 . S
C355 H363 0.960 . S
C356 C354 1.381 . S
C356 C357 1.394 . S
C356 H364 0.930 . S
C357 C356 1.394 . S
C357 C358 1.383 . S
C357 H365 0.929 . S
C358 C357 1.383 . S
C358 C359 1.377 . S
C359 H343 0.930 . S
C359 C358 1.377 . S
C359 C360 1.379 . S
C360 H344 0.931 . S
C360 C354 1.383 . S
C360 C359 1.379 . S
H361 C355 0.959 . S
H362 C355 0.961 . S
H363 C355 0.960 . S
H364 C356 0.930 . S
H365 C357 0.929 . S
H366 C374 0.929 . S
H367 C376 0.930 . S
H368 C378 0.930 . S
H369 C381 0.929 . S
H370 C384 0.930 . S
H371 C386 0.960 . S
H372 C386 0.960 . S
H373 C386 0.960 . S
C374 H366 0.929 . S
C374 C375 1.377 . S
C374 C376 1.384 . S
C375 C374 1.377 . S
C375 C381 1.390 . S
C376 H367 0.930 . S
C376 C374 1.384 . S
C376 C377 1.372 . S
C377 C376 1.372 . S
C377 C378 1.400 . S
C377 C382 1.490 . S
C378 H368 0.930 . S
C378 C377 1.400 . S
C378 C381 1.386 . S
H379 C395 0.930 . S
H380 C396 0.931 . S
C381 H369 0.929 . S
C381 C375 1.390 . S
C381 C378 1.386 . S
C382 C377 1.490 . S
C382 C384 1.395 1_556 S
C382 C385 1.403 1_455 S
H383 C389 0.930 . S
C384 H370 0.930 . S
C384 C382 1.395 1_554 S
C384 C387 1.403 . S
C385 C382 1.403 1_655 S
C385 C386 1.524 . S
C385 C389 1.400 1_556 S
C386 H371 0.960 . S
C386 H372 0.960 . S
C386 H373 0.960 . S
C386 C385 1.524 . S
C387 C384 1.403 . S
C387 C388 1.392 1_455 S
C387 C391 1.495 . S
C388 C387 1.392 1_655 S
C388 C389 1.385 . S
C388 C390 1.478 . S
C389 H383 0.930 . S
C389 C385 1.400 1_554 S
C389 C388 1.385 . S
C390 C388 1.478 . S
C390 C392 1.381 . S
C390 C396 1.383 . S
C391 C387 1.495 . S
C391 H397 0.959 . S
C391 H398 0.961 . S
C391 H399 0.960 . S
C392 C390 1.381 . S
C392 C393 1.394 . S
C392 H400 0.930 . S
C393 C392 1.394 . S
C393 C394 1.383 . S
C393 H401 0.929 . S
C394 C393 1.383 . S
C394 C395 1.377 . S
C395 H379 0.930 . S
C395 C394 1.377 . S
C395 C396 1.379 . S
C396 H380 0.931 . S
C396 C390 1.383 . S
C396 C395 1.379 . S
H397 C391 0.959 . S
H398 C391 0.961 . S
H399 C391 0.960 . S
H400 C392 0.930 . S
H401 C393 0.929 . S
H402 C410 0.929 . S
H403 C412 0.930 . S
H404 C414 0.930 . S
H405 C417 0.929 . S
H406 C420 0.930 . S
H407 C422 0.960 . S
H408 C422 0.960 . S
H409 C422 0.960 . S
C410 H402 0.929 . S
C410 C411 1.377 . S
C410 C412 1.384 . S
C411 C410 1.377 . S
C411 C417 1.390 . S
C412 H403 0.930 . S
C412 C410 1.384 . S
C412 C413 1.372 . S
C413 C412 1.372 . S
C413 C414 1.400 . S
C413 C418 1.490 . S
C414 H404 0.930 . S
C414 C413 1.400 . S
C414 C417 1.386 . S
H415 C431 0.930 . S
H416 C432 0.931 . S
C417 H405 0.929 . S
C417 C411 1.390 . S
C417 C414 1.386 . S
C418 C413 1.490 . S
C418 C420 1.395 . S
C418 C421 1.403 1_545 S
H419 C425 0.930 . S
C420 H406 0.930 . S
C420 C418 1.395 . S
C420 C423 1.403 . S
C421 C418 1.403 1_565 S
C421 C422 1.524 . S
C421 C425 1.400 . S
C422 H407 0.960 . S
C422 H408 0.960 . S
C422 H409 0.960 . S
C422 C421 1.524 . S
C423 C420 1.403 . S
C423 C424 1.392 1_545 S
C423 C427 1.495 . S
C424 C423 1.392 1_565 S
C424 C425 1.385 . S
C424 C426 1.478 . S
C425 H419 0.930 . S
C425 C421 1.400 . S
C425 C424 1.385 . S
C426 C424 1.478 . S
C426 C428 1.381 . S
C426 C432 1.383 . S
C427 C423 1.495 . S
C427 H433 0.959 . S
C427 H434 0.961 . S
C427 H435 0.960 . S
C428 C426 1.381 . S
C428 C429 1.394 . S
C428 H436 0.930 . S
C429 C428 1.394 . S
C429 C430 1.383 . S
C429 H437 0.929 . S
C430 C429 1.383 . S
C430 C431 1.377 . S
C431 H415 0.930 . S
C431 C430 1.377 . S
C431 C432 1.379 . S
C432 H416 0.931 . S
C432 C426 1.383 . S
C432 C431 1.379 . S
H433 C427 0.959 . S
H434 C427 0.961 . S
H435 C427 0.960 . S
H436 C428 0.930 . S
H437 C429 0.929 . S
H438 C446 0.929 . S
H439 C448 0.930 . S
H440 C450 0.930 . S
H441 C453 0.929 . S
H442 C456 0.930 . S
H443 C458 0.960 . S
H444 C458 0.960 . S
H445 C458 0.960 . S
C446 H438 0.929 . S
C446 C447 1.377 . S
C446 C448 1.384 . S
C447 C446 1.377 . S
C447 C453 1.390 . S
C448 H439 0.930 . S
C448 C446 1.384 . S
C448 C449 1.372 . S
C449 C448 1.372 . S
C449 C450 1.400 . S
C449 C454 1.490 . S
C450 H440 0.930 . S
C450 C449 1.400 . S
C450 C453 1.386 . S
H451 C467 0.930 . S
H452 C468 0.931 . S
C453 H441 0.929 . S
C453 C447 1.390 . S
C453 C450 1.386 . S
C454 C449 1.490 . S
C454 C456 1.395 . S
C454 C457 1.403 . S
H455 C461 0.932 . S
C456 H442 0.930 . S
C456 C454 1.395 . S
C456 C459 1.403 . S
C457 C454 1.403 . S
C457 C458 1.524 . S
C457 C461 1.398 1_556 S
C458 H443 0.960 . S
C458 H444 0.960 . S
C458 H445 0.960 . S
C458 C457 1.524 . S
C459 C456 1.403 . S
C459 C460 1.392 1_556 S
C459 C463 1.495 1_556 S
C460 C459 1.392 1_554 S
C460 C461 1.386 . S
C460 C462 1.478 . S
C461 H455 0.932 . S
C461 C457 1.398 1_554 S
C461 C460 1.386 . S
C462 C460 1.478 . S
C462 C464 1.381 . S
C462 C468 1.383 . S
C463 C459 1.495 1_554 S
C463 H469 0.959 1_554 S
C463 H470 0.961 . S
C463 H471 0.960 . S
C464 C462 1.381 . S
C464 C465 1.394 . S
C464 H472 0.930 . S
C465 C464 1.394 . S
C465 C466 1.383 . S
C465 H473 0.929 . S
C466 C465 1.383 . S
C466 C467 1.377 . S
C467 H451 0.930 . S
C467 C466 1.377 . S
C467 C468 1.379 . S
C468 H452 0.931 . S
C468 C462 1.383 . S
C468 C467 1.379 . S
H469 C463 0.959 1_556 S
H470 C463 0.961 . S
H471 C463 0.960 . S
H472 C464 0.930 . S
H473 C465 0.929 . S
H474 C482 0.929 . S
H475 C484 0.930 . S
H476 C486 0.930 . S
H477 C489 0.929 . S
H478 C492 0.930 . S
H479 C494 0.960 . S
H480 C494 0.960 . S
H481 C494 0.960 . S
C482 H474 0.929 . S
C482 C483 1.377 . S
C482 C484 1.384 . S
C483 C482 1.377 . S
C483 C489 1.390 . S
C484 H475 0.930 . S
C484 C482 1.384 . S
C484 C485 1.372 . S
C485 C484 1.372 . S
C485 C486 1.400 . S
C485 C490 1.490 . S
C486 H476 0.930 . S
C486 C485 1.400 . S
C486 C489 1.386 . S
H487 C503 0.930 . S
H488 C504 0.931 . S
C489 H477 0.929 . S
C489 C483 1.390 . S
C489 C486 1.386 . S
C490 C485 1.490 . S
C490 C492 1.395 1_455 S
C490 C493 1.403 . S
H491 C497 0.930 . S
C492 H478 0.930 . S
C492 C490 1.395 1_655 S
C492 C495 1.403 . S
C493 C490 1.403 . S
C493 C494 1.524 . S
C493 C497 1.400 . S
C494 H479 0.960 . S
C494 H480 0.960 . S
C494 H481 0.960 . S
C494 C493 1.524 . S
C495 C492 1.403 . S
C495 C496 1.392 . S
C495 C499 1.495 . S
C496 C495 1.392 . S
C496 C497 1.385 1_655 S
C496 C498 1.478 . S
C497 H491 0.930 . S
C497 C493 1.400 . S
C497 C496 1.385 1_455 S
C498 C496 1.478 . S
C498 C500 1.381 . S
C498 C504 1.383 . S
C499 C495 1.495 . S
C499 H505 0.959 . S
C499 H506 0.961 . S
C499 H507 0.960 . S
C500 C498 1.381 . S
C500 C501 1.394 . S
C500 H508 0.930 . S
C501 C500 1.394 . S
C501 C502 1.383 . S
C501 H509 0.929 . S
C502 C501 1.383 . S
C502 C503 1.377 . S
C503 H487 0.930 . S
C503 C502 1.377 . S
C503 C504 1.379 . S
C504 H488 0.931 . S
C504 C498 1.383 . S
C504 C503 1.379 . S
H505 C499 0.959 . S
H506 C499 0.961 . S
H507 C499 0.960 . S
H508 C500 0.930 . S
H509 C501 0.929 . S
C87 C5 0.756 . S
C106 C57 0.729 . S
C123 C23 0.791 . S
C142 C75 0.806 . S
C159 C10 0.769 . S
C178 C31 0.698 . S
C195 C49 0.778 . S
C214 C18 0.766 . S
C231 C62 0.784 . S
C250 C36 0.772 . S
C267 C44 0.744 . S
C286 C70 0.704 . S
C303 C47 1.265 . S
C322 C8 1.271 . S
C339 C60 1.305 . S
C358 C13 1.270 . S
C375 C65 1.280 . S
C394 C34 1.306 . S
C411 C0 1.293 . S
C430 C39 1.289 . S
C447 C21 1.287 . S
C466 C52 1.297 . S
C483 C73 1.302 . S
C502 C26 1.272 . S
