# Generated by pormake.
# Topology mmt, (4)-cn, num edge types: 1
# Building blocks:
#     Node 0, Type 0, BuildingBlock: TATPOV_clean_sbu_0, # of connection points: 4
#     Node 1, Type 0, BuildingBlock: TATPOV_clean_sbu_0, # of connection points: 4
#     Node 2, Type 0, BuildingBlock: TATPOV_clean_sbu_0, # of connection points: 4
#     Node 3, Type 0, BuildingBlock: TATPOV_clean_sbu_0, # of connection points: 4
#     Node 4, Type 0, BuildingBlock: TATPOV_clean_sbu_0, # of connection points: 4
#     Node 5, Type 0, BuildingBlock: TATPOV_clean_sbu_0, # of connection points: 4
#     Node 6, Type 0, BuildingBlock: TATPOV_clean_sbu_0, # of connection points: 4
#     Node 7, Type 0, BuildingBlock: TATPOV_clean_sbu_0, # of connection points: 4
#     Edge 8, Type (0, 0), BuildingBlock: UKIBIB_clean_linker_0, # of connection points: 2
#     Edge 9, Type (0, 0), BuildingBlock: UKIBIB_clean_linker_0, # of connection points: 2
#     Edge 10, Type (0, 0), BuildingBlock: UKIBIB_clean_linker_0, # of connection points: 2
#     Edge 11, Type (0, 0), BuildingBlock: UKIBIB_clean_linker_0, # of connection points: 2
#     Edge 12, Type (0, 0), BuildingBlock: UKIBIB_clean_linker_0, # of connection points: 2
#     Edge 13, Type (0, 0), BuildingBlock: UKIBIB_clean_linker_0, # of connection points: 2
#     Edge 14, Type (0, 0), BuildingBlock: UKIBIB_clean_linker_0, # of connection points: 2
#     Edge 15, Type (0, 0), BuildingBlock: UKIBIB_clean_linker_0, # of connection points: 2
#     Edge 16, Type (0, 0), BuildingBlock: UKIBIB_clean_linker_0, # of connection points: 2
#     Edge 17, Type (0, 0), BuildingBlock: UKIBIB_clean_linker_0, # of connection points: 2
#     Edge 18, Type (0, 0), BuildingBlock: UKIBIB_clean_linker_0, # of connection points: 2
#     Edge 19, Type (0, 0), BuildingBlock: UKIBIB_clean_linker_0, # of connection points: 2
#     Edge 20, Type (0, 0), BuildingBlock: UKIBIB_clean_linker_0, # of connection points: 2
#     Edge 21, Type (0, 0), BuildingBlock: UKIBIB_clean_linker_0, # of connection points: 2
#     Edge 22, Type (0, 0), BuildingBlock: UKIBIB_clean_linker_0, # of connection points: 2
#     Edge 23, Type (0, 0), BuildingBlock: UKIBIB_clean_linker_0, # of connection points: 2
# Relax obj value: 0.066
# Max RMSD: 0.112
# Mean RMSD: 0.112
data_MOF--net-mmt--node1-TATPOV_clean_sbu_0--edge1-UKIBIB_clean_linker_0
_symmetry_space_group_name_H-M    P1
_symmetry_Int_Tables_number       1
_symmetry_cell_setting            triclinic
loop_
_symmetry_equiv_pos_as_xyz
'x, y, z'
_cell_length_a     30.999917
_cell_length_b     55.239699
_cell_length_c     56.4584
_cell_angle_alpha  90.391659
_cell_angle_beta   89.843424
_cell_angle_gamma 91.176514
loop_
_atom_site_label
_atom_site_type_symbol
_atom_site_fract_x
_atom_site_fract_y
_atom_site_fract_z
_atom_type_partial_charge
Zn0 Zn 0.11652 0.51886 0.32999 0.0
Zn1 Zn 0.13064 0.56693 0.33592 0.0
O2 O 0.11357 0.55953 0.37078 0.0
O3 O 0.09016 0.52278 0.36128 0.0
O4 O 0.15253 0.60119 0.33312 0.0
O5 O 0.17657 0.51121 0.32418 0.0
O6 O 0.18109 0.55068 0.31948 0.0
C7 C 0.09241 0.54016 0.37587 0.0
C8 C 0.06268 0.54739 0.30295 0.0
O9 O 0.0754 0.56457 0.31651 0.0
O10 O 0.08082 0.52715 0.3028 0.0
C11 C 0.12885 0.61927 0.33643 0.0
O12 O 0.08918 0.61602 0.34405 0.0
C13 C 0.19644 0.52974 0.31659 0.0
Zn14 Zn 0.32617 0.97633 0.32935 0.0
Zn15 Zn 0.30917 0.92867 0.33515 0.0
O16 O 0.32429 0.93684 0.3702 0.0
O17 O 0.35619 0.97141 0.36019 0.0
O18 O 0.28803 0.89424 0.3319 0.0
O19 O 0.26556 0.98412 0.32514 0.0
O20 O 0.25928 0.94494 0.3185 0.0
C21 C 0.34946 0.95479 0.37512 0.0
C22 C 0.37559 0.94707 0.30152 0.0
O23 O 0.36575 0.93102 0.31673 0.0
O24 O 0.35354 0.96586 0.29971 0.0
C25 C 0.31144 0.87646 0.33665 0.0
O26 O 0.34999 0.88032 0.3456 0.0
C27 C 0.24502 0.9662 0.31644 0.0
Zn28 Zn 0.62016 0.4852 0.13228 0.0
Zn29 Zn 0.63191 0.42825 0.13161 0.0
O30 O 0.61481 0.43683 0.09756 0.0
O31 O 0.57589 0.4646 0.11442 0.0
O32 O 0.65501 0.39438 0.13284 0.0
O33 O 0.66401 0.48061 0.15728 0.0
O34 O 0.6848 0.44508 0.14382 0.0
C35 C 0.58602 0.45282 0.09608 0.0
C36 C 0.5605 0.45057 0.16036 0.0
O37 O 0.58078 0.43127 0.15529 0.0
O38 O 0.57114 0.47093 0.15149 0.0
C39 C 0.63099 0.37559 0.13302 0.0
O40 O 0.58916 0.37783 0.13082 0.0
C41 C 0.68945 0.46316 0.15746 0.0
Zn42 Zn 0.81771 0.01223 0.1318 0.0
Zn43 Zn 0.81 0.06803 0.13428 0.0
O44 O 0.82858 0.06014 0.1001 0.0
O45 O 0.86357 0.02778 0.1112 0.0
O46 O 0.78659 0.10165 0.13754 0.0
O47 O 0.78137 0.01745 0.16039 0.0
O48 O 0.75651 0.05085 0.14517 0.0
C49 C 0.85564 0.04356 0.09585 0.0
C50 C 0.87965 0.045 0.16107 0.0
O51 O 0.86129 0.06503 0.15716 0.0
O52 O 0.86615 0.02539 0.15159 0.0
C53 C 0.8098 0.12013 0.13311 0.0
O54 O 0.84936 0.11703 0.12552 0.0
C55 C 0.75345 0.03361 0.15967 0.0
Zn56 Zn 0.83026 0.48225 0.63532 0.0
Zn57 Zn 0.80565 0.42895 0.63256 0.0
O58 O 0.82032 0.43673 0.59728 0.0
O59 O 0.8662 0.46211 0.61345 0.0
O60 O 0.78612 0.39442 0.63659 0.0
O61 O 0.77968 0.47912 0.65615 0.0
O62 O 0.75213 0.44381 0.6458 0.0
C63 C 0.85273 0.45112 0.59533 0.0
C64 C 0.87882 0.45139 0.66419 0.0
O65 O 0.8588 0.4333 0.65473 0.0
O66 O 0.87036 0.47311 0.65937 0.0
C67 C 0.81069 0.37681 0.63297 0.0
O68 O 0.84972 0.38092 0.62469 0.0
C69 C 0.74998 0.46338 0.65744 0.0
Zn70 Zn 0.60083 0.01369 0.642 0.0
Zn71 Zn 0.63218 0.06795 0.63337 0.0
O72 O 0.61588 0.05916 0.59908 0.0
O73 O 0.5807 0.02579 0.61017 0.0
O74 O 0.65404 0.10195 0.63466 0.0
O75 O 0.66043 0.01507 0.6554 0.0
O76 O 0.68434 0.05216 0.64822 0.0
C77 C 0.58882 0.04194 0.5949 0.0
C78 C 0.57099 0.04981 0.66889 0.0
O79 O 0.57588 0.06572 0.65292 0.0
O80 O 0.59975 0.03434 0.67122 0.0
C81 C 0.62936 0.11976 0.63325 0.0
O82 O 0.58824 0.11622 0.62875 0.0
C83 C 0.68965 0.03134 0.65699 0.0
Zn84 Zn 0.33224 0.51417 0.827 0.0
Zn85 Zn 0.31286 0.5684 0.83685 0.0
O86 O 0.32969 0.56021 0.87142 0.0
O87 O 0.35329 0.52453 0.85966 0.0
O88 O 0.28914 0.60188 0.83285 0.0
O89 O 0.27145 0.51115 0.81731 0.0
O90 O 0.26196 0.5505 0.82215 0.0
C91 C 0.35085 0.541 0.87535 0.0
C92 C 0.37213 0.54985 0.80159 0.0
O93 O 0.36915 0.56593 0.81764 0.0
O94 O 0.34139 0.53502 0.79877 0.0
C95 C 0.31171 0.62073 0.83684 0.0
O96 O 0.35064 0.61855 0.84547 0.0
C97 C 0.24862 0.52974 0.81536 0.0
Zn98 Zn 0.10253 0.98288 0.83023 0.0
Zn99 Zn 0.1289 0.9271 0.8365 0.0
O100 O 0.11118 0.9344 0.87074 0.0
O101 O 0.08153 0.96926 0.86155 0.0
O102 O 0.1511 0.89338 0.83289 0.0
O103 O 0.15371 0.97563 0.8082 0.0
O104 O 0.18346 0.94445 0.82533 0.0
C105 C 0.08706 0.95214 0.8759 0.0
C106 C 0.07037 0.94751 0.80126 0.0
O107 O 0.07367 0.93045 0.81611 0.0
O108 O 0.10055 0.96312 0.80009 0.0
C109 C 0.12837 0.87454 0.83648 0.0
O110 O 0.08873 0.87654 0.84427 0.0
C111 C 0.18576 0.96213 0.81123 0.0
C112 C 0.2236 0.50892 0.28137 0.0
C113 C 0.23056 0.52624 0.2993 0.0
C114 C 0.2567 0.50317 0.26589 0.0
C115 C 0.53076 0.47004 0.19541 0.0
C116 C 0.52655 0.45149 0.17838 0.0
C117 C 0.49527 0.47758 0.20831 0.0
H118 H 0.27462 0.55347 0.31357 0.0
H119 H 0.33402 0.54278 0.28645 0.0
H120 H 0.4824 0.42561 0.16191 0.0
H121 H 0.41957 0.43823 0.18578 0.0
C122 C 0.2695 0.53949 0.30026 0.0
C123 C 0.30304 0.53349 0.28482 0.0
C124 C 0.48657 0.43948 0.17542 0.0
C125 C 0.45077 0.44694 0.18868 0.0
C126 C 0.29695 0.51473 0.2682 0.0
C127 C 0.33235 0.50573 0.2547 0.0
C128 C 0.3597 0.49677 0.24259 0.0
C129 C 0.45508 0.46637 0.20474 0.0
C130 C 0.41864 0.4757 0.21727 0.0
C131 C 0.39089 0.48515 0.22874 0.0
H132 H 0.19282 0.49936 0.27975 0.0
H133 H 0.25138 0.48899 0.25278 0.0
H134 H 0.56115 0.47987 0.1976 0.0
H135 H 0.49899 0.49272 0.2205 0.0
C136 C 0.91467 0.02024 0.19071 0.0
C137 C 0.91452 0.04226 0.17836 0.0
C138 C 0.9504 0.01344 0.20344 0.0
C139 C 0.21228 0.99198 0.28633 0.0
C140 C 0.21005 0.97076 0.29983 0.0
C141 C 0.17919 0.99749 0.27092 0.0
H142 H 0.95105 0.07519 0.17068 0.0
H143 H 0.01436 0.06344 0.19448 0.0
H144 H 0.17439 0.93719 0.30596 0.0
H145 H 0.11485 0.94739 0.27904 0.0
C146 C 0.95023 0.05825 0.18022 0.0
C147 C -0.01365 0.05143 0.19348 0.0
C148 C 0.17579 0.95409 0.29632 0.0
C149 C 0.14216 0.9598 0.28094 0.0
C150 C -0.01352 0.02878 0.20473 0.0
C151 C 0.02302 0.02051 0.21767 0.0
C152 C 0.05033 0.01081 0.22907 0.0
C153 C 0.14349 0.98185 0.26873 0.0
C154 C 0.10777 0.98959 0.25487 0.0
C155 C 0.08077 -0.00133 0.24278 0.0
H156 H 0.88748 0.00761 0.18973 0.0
H157 H 0.95 0.99591 0.21198 0.0
H158 H 0.23955 0.00449 0.2878 0.0
H159 H 0.18099 0.01432 0.26118 0.0
C160 C 0.76368 0.47772 0.16114 0.0
C161 C 0.72811 0.46584 0.17126 0.0
C162 C 0.79808 0.48493 0.17537 0.0
C163 C -0.0129 0.5353 0.30305 0.0
C164 C 0.02103 0.54782 0.29167 0.0
C165 C 0.95246 0.52623 0.28992 0.0
H166 H 0.69966 0.45092 0.20322 0.0
H167 H 0.76114 0.46328 0.22839 0.0
H168 H 0.04579 0.56138 0.25841 0.0
H169 H -0.01645 0.54639 0.23534 0.0
C170 C 0.72751 0.45996 0.19534 0.0
C171 C 0.76216 0.46705 0.20958 0.0
C172 C 0.01895 0.55256 0.26744 0.0
C173 C -0.01596 0.54366 0.25432 0.0
C174 C 0.79681 0.48008 0.19963 0.0
C175 C 0.82971 0.49 0.21445 0.0
C176 C 0.85789 0.49861 0.22639 0.0
C177 C 0.95151 0.52998 0.26549 0.0
C178 C 0.91827 0.51878 0.25171 0.0
C179 C 0.89039 0.50939 0.24008 0.0
H180 H 0.76378 0.48249 0.14255 0.0
H181 H 0.82478 0.4951 0.16762 0.0
H182 H -0.01066 0.53068 0.32165 0.0
H183 H 0.92764 0.51536 0.2986 0.0
C184 C 0.70188 0.04299 0.19151 0.0
C185 C 0.71326 0.02903 0.17179 0.0
C186 C 0.66656 0.03579 0.20527 0.0
C187 C 0.43207 0.93655 0.27251 0.0
C188 C 0.41919 0.94943 0.2926 0.0
C189 C 0.46763 0.94492 0.2595 0.0
H190 H 0.6972 -0.00198 0.14968 0.0
H191 H 0.63477 0.98555 0.17367 0.0
H192 H 0.43324 0.97991 0.31597 0.0
H193 H 0.49528 0.99453 0.29309 0.0
C194 C 0.68838 0.00879 0.16501 0.0
C195 C 0.65307 0.00172 0.1786 0.0
C196 C 0.44352 0.96957 0.30063 0.0
C197 C 0.47849 0.97805 0.28754 0.0
C198 C 0.64288 0.01486 0.19903 0.0
C199 C 0.60994 0.00571 0.21429 0.0
C200 C 0.58194 0.99701 0.22628 0.0
C201 C 0.48981 0.96609 0.26666 0.0
C202 C 0.52242 0.97654 0.25194 0.0
C203 C 0.54997 0.98592 0.2401 0.0
H204 H 0.72135 0.0586 0.19685 0.0
H205 H 0.65872 0.04598 0.22112 0.0
H206 H 0.41293 0.92131 0.26597 0.0
H207 H 0.47639 0.93567 0.24326 0.0
C208 C 0.41991 0.51823 0.78604 0.0
C209 C 0.41386 0.54284 0.79161 0.0
C210 C 0.45633 0.51101 0.77384 0.0
C211 C 0.70792 0.493 0.68006 0.0
C212 C 0.71238 0.46905 0.672 0.0
C213 C 0.67314 0.49926 0.69404 0.0
H214 H 0.44277 0.5788 0.79077 0.0
H215 H 0.50774 0.56589 0.76897 0.0
H216 H 0.68469 0.43266 0.67271 0.0
H217 H 0.62267 0.44397 0.69764 0.0
C218 C 0.44653 0.55986 0.78629 0.0
C219 C 0.48333 0.55252 0.77388 0.0
C220 C 0.68154 0.4513 0.67846 0.0
C221 C 0.64643 0.45768 0.69268 0.0
C222 C 0.48758 0.52815 0.7672 0.0
C223 C 0.52272 0.52024 0.75277 0.0
C224 C 0.54975 0.51074 0.74082 0.0
C225 C 0.64234 0.48174 0.70036 0.0
C226 C 0.60699 0.48915 0.71481 0.0
C227 C 0.57993 0.4985 0.72684 0.0
H228 H 0.3959 0.50448 0.79058 0.0
H229 H 0.4595 0.49208 0.76905 0.0
H230 H 0.73119 0.50711 0.67546 0.0
H231 H 0.67031 0.51789 0.6999 0.0
C232 C 0.75934 0.04364 0.67755 0.0
C233 C 0.72818 0.02586 0.67113 0.0
C234 C 0.79427 0.03745 0.69196 0.0
C235 C -0.00479 0.93687 0.78623 0.0
C236 C 0.0284 0.95399 0.79085 0.0
C237 C 0.95793 0.94388 0.77408 0.0
H238 H 0.7087 0.98809 0.67547 0.0
H239 H 0.76897 0.9777 0.70014 0.0
H240 H 0.04615 0.99227 0.78883 0.0
H241 H -0.01791 0.00401 0.7678 0.0
C242 C 0.73228 0.00219 0.67969 0.0
C243 C 0.76673 0.99615 0.69392 0.0
C244 C 0.0221 0.97836 0.78478 0.0
C245 C -0.01474 0.98524 0.77287 0.0
C246 C 0.79793 0.01358 0.70006 0.0
C247 C 0.83325 0.00623 0.71463 0.0
C248 C 0.86026 0.99705 0.72677 0.0
C249 C 0.95356 0.96803 0.76691 0.0
C250 C 0.91792 0.9757 0.75267 0.0
C251 C 0.89067 0.98505 0.74082 0.0
H252 H 0.75658 0.06217 0.67165 0.0
H253 H 0.81821 0.05117 0.69677 0.0
H254 H -0.00127 0.91811 0.79119 0.0
H255 H 0.93319 0.93042 0.76981 0.0
C256 C 0.2193 0.52525 0.77528 0.0
C257 C 0.2118 0.52816 0.79965 0.0
C258 C 0.18528 0.51895 0.7603 0.0
C259 C 0.91174 0.4529 0.7032 0.0
C260 C 0.9163 0.44843 0.67889 0.0
C261 C 0.9469 0.46151 0.71628 0.0
H262 H 0.16401 0.52924 0.8275 0.0
H263 H 0.10375 0.51788 0.80107 0.0
H264 H 0.9601 0.4493 0.64895 0.0
H265 H 0.02239 0.46366 0.67218 0.0
C266 C 0.16992 0.52675 0.80873 0.0
C267 C 0.13586 0.5203 0.79374 0.0
C268 C 0.95674 0.45143 0.66798 0.0
C269 C -0.00812 0.46012 0.68105 0.0
C270 C 0.14387 0.51563 0.76972 0.0
C271 C 0.11048 0.50545 0.75521 0.0
C272 C 0.0824 0.49691 0.74306 0.0
C273 C -0.01337 0.46566 0.70507 0.0
C274 C 0.02128 0.47677 0.718 0.0
C275 C 0.04973 0.4861 0.72935 0.0
H276 H 0.25171 0.52669 0.76808 0.0
H277 H 0.19164 0.51556 0.74168 0.0
H278 H 0.88023 0.45184 0.71154 0.0
H279 H 0.94251 0.46609 0.73482 0.0
C280 C 0.25265 0.95051 0.789 0.0
C281 C 0.22576 0.9683 0.79856 0.0
C282 C 0.2881 0.95744 0.77492 0.0
C283 C 0.49956 0.06044 0.68673 0.0
C284 C 0.52788 0.0431 0.67787 0.0
C285 C 0.46235 0.05294 0.69909 0.0
H286 H 0.21529 0.00684 0.80195 0.0
H287 H 0.27732 0.01876 0.77786 0.0
H288 H 0.5373 0.00454 0.67231 0.0
H289 H 0.47272 0.99175 0.69373 0.0
C290 C 0.23545 0.99285 0.7946 0.0
C291 C 0.2708 -0.00032 0.78088 0.0
C292 C 0.51664 0.01834 0.6796 0.0
C293 C 0.47969 0.01095 0.69174 0.0
C294 C 0.29685 0.98208 0.77072 0.0
C295 C 0.33159 0.98987 0.75555 0.0
C296 C 0.35929 -0.00109 0.74333 0.0
C297 C 0.45322 0.02815 0.70219 0.0
C298 C 0.41848 0.01985 0.71713 0.0
C299 C 0.39069 0.0106 0.72915 0.0
H300 H 0.24543 0.93145 0.79169 0.0
H301 H 0.30811 0.94367 0.76706 0.0
H302 H 0.5074 0.07957 0.68528 0.0
H303 H 0.44171 0.06641 0.70693 0.0
C304 C 0.02978 0.5219 0.39625 0.0
C305 C 0.06696 0.53695 0.39771 0.0
C306 C 0.00887 0.51382 0.41656 0.0
C307 C 0.90991 0.47428 0.57397 0.0
C308 C 0.87436 0.45785 0.57278 0.0
C309 C 0.92991 0.4829 0.55361 0.0
H310 H 0.10956 0.55678 0.42153 0.0
H311 H 0.07139 0.543 0.45772 0.0
H312 H 0.83185 0.43801 0.54888 0.0
H313 H 0.86824 0.45299 0.51262 0.0
C314 C 0.08106 0.54523 0.41997 0.0
C315 C 0.0596 0.53717 0.44052 0.0
C316 C 0.85942 0.45027 0.55042 0.0
C317 C 0.87996 0.45893 0.5298 0.0
C318 C 0.02396 0.52109 0.43878 0.0
C319 C 0.00242 0.51173 0.45952 0.0
C320 C -0.01763 0.50298 0.47579 0.0
C321 C 0.91529 0.47523 0.53144 0.0
C322 C 0.93734 0.48419 0.51067 0.0
C323 C 0.95781 0.49266 0.49441 0.0
H324 H 0.0177 0.51552 0.37927 0.0
H325 H -0.01867 0.50151 0.41486 0.0
H326 H 0.9224 0.48089 0.59077 0.0
H327 H 0.95693 0.49558 0.55523 0.0
C328 C 0.41652 0.96517 0.39649 0.0
C329 C 0.37314 0.95721 0.3976 0.0
C330 C 0.43766 0.97386 0.41666 0.0
C331 C 0.52262 0.03086 0.57303 0.0
C332 C 0.56591 0.03903 0.57224 0.0
C333 C 0.50228 0.02177 0.55279 0.0
H334 H 0.31819 0.95142 0.42071 0.0
H335 H 0.35598 0.96629 0.45659 0.0
H336 H 0.62163 0.04459 0.54962 0.0
H337 H 0.58514 0.02914 0.51356 0.0
C338 C 0.35184 0.95696 0.41955 0.0
C339 C 0.37318 0.96575 0.43988 0.0
C340 C 0.58798 0.03897 0.55052 0.0
C341 C 0.5674 0.02983 0.5301 0.0
C342 C 0.41597 0.97454 0.43837 0.0
C343 C 0.43798 0.98441 0.45886 0.0
C344 C 0.45829 0.99288 0.47525 0.0
C345 C 0.52462 0.02098 0.53129 0.0
C346 C 0.50307 0.01115 0.51065 0.0
C347 C 0.48289 0.00268 0.49421 0.0
H348 H 0.4335 0.96574 0.37968 0.0
H349 H 0.47063 0.98061 0.41515 0.0
H350 H 0.50507 0.03046 0.58967 0.0
H351 H 0.46934 0.01491 0.55407 0.0
C352 C 0.57851 0.45125 0.0513 0.0
C353 C 0.56453 0.45936 0.07365 0.0
C354 C 0.55837 0.45946 0.0306 0.0
C355 C 0.36173 0.54493 0.91996 0.0
C356 C 0.37502 0.53661 0.89757 0.0
C357 C 0.38244 0.53678 0.94057 0.0
H358 H 0.51885 0.4827 0.09159 0.0
H359 H 0.48449 0.49659 0.05588 0.0
H360 H 0.42214 0.51455 0.87928 0.0
H361 H 0.45726 0.50056 0.91485 0.0
C362 C 0.53039 0.4758 0.07477 0.0
C363 C 0.51058 0.48391 0.0543 0.0
C364 C 0.41051 0.52107 0.89624 0.0
C365 C 0.43081 0.51299 0.9166 0.0
C366 C 0.52422 0.47582 0.03208 0.0
C367 C 0.50253 0.4845 0.01116 0.0
C368 C 0.48243 0.49277 -0.0052 0.0
C369 C 0.41678 0.52053 0.93892 0.0
C370 C 0.43828 0.51143 0.95976 0.0
C371 C 0.45817 0.50288 0.97606 0.0
H372 H 0.60516 0.43894 0.04981 0.0
H373 H 0.56951 0.45313 0.01349 0.0
H374 H 0.33452 0.55682 0.92159 0.0
H375 H 0.37124 0.54284 0.95776 0.0
C376 C 0.03096 0.94544 0.90706 0.0
C377 C 0.07009 0.95632 0.89981 0.0
C378 C 0.00843 0.95485 0.92655 0.0
C379 C 0.91056 0.04974 0.06421 0.0
C380 C 0.87215 0.03862 0.072 0.0
C381 C 0.93211 0.04067 0.04428 0.0
H382 H 0.11517 0.98605 0.90616 0.0
H383 H 0.07637 0.00214 0.94048 0.0
H384 H 0.8269 0.00879 0.06608 0.0
H385 H 0.86402 0.99332 0.03077 0.0
C386 C 0.08619 0.97666 0.91224 0.0
C387 C 0.06369 0.9861 0.93156 0.0
C388 C 0.85555 0.01828 0.05968 0.0
C389 C 0.87701 0.00925 0.03977 0.0
C390 C 0.0246 0.97531 0.93879 0.0
C391 C 0.00114 0.98526 0.95869 0.0
C392 C -0.01866 0.99347 0.97531 0.0
C393 C 0.9156 0.0203 0.03205 0.0
C394 C 0.9386 0.01061 0.01186 0.0
C395 C 0.95818 0.0027 -0.00498 0.0
H396 H 0.01674 0.93057 0.89696 0.0
H397 H -0.02212 0.94655 0.9317 0.0
H398 H 0.9249 0.06469 0.07414 0.0
H399 H 0.96222 0.04921 0.03875 0.0
C400 C 0.15164 0.65529 0.31279 0.0
C401 C 0.14766 0.64368 0.33476 0.0
C402 C 0.16866 0.67891 0.31167 0.0
C403 C 0.29051 0.83765 0.35532 0.0
C404 C 0.29336 0.85182 0.3349 0.0
C405 C 0.2729 0.81425 0.35418 0.0
H406 H 0.15956 0.64654 0.37238 0.0
H407 H 0.18977 0.68794 0.3704 0.0
H408 H 0.28003 0.8532 0.29725 0.0
H409 H 0.25028 0.81149 0.2951 0.0
C410 C 0.16192 0.65548 0.35539 0.0
C411 C 0.17917 0.67896 0.35425 0.0
C412 C 0.27816 0.84243 0.3132 0.0
C413 C 0.26123 0.81877 0.31197 0.0
C414 C 0.18214 0.69081 0.33246 0.0
C415 C 0.19837 0.71529 0.33161 0.0
C416 C 0.21208 0.7358 0.33138 0.0
C417 C 0.25863 0.80468 0.3325 0.0
C418 C 0.24182 0.78031 0.33147 0.0
C419 C 0.22794 0.75983 0.33131 0.0
H420 H 0.14109 0.64625 0.29666 0.0
H421 H 0.17098 0.68792 0.29471 0.0
H422 H 0.30142 0.84483 0.37223 0.0
H423 H 0.27069 0.80359 0.37019 0.0
C424 C 0.81279 0.16401 0.12353 0.0
C425 C 0.79207 0.1447 0.13526 0.0
C426 C 0.7961 0.18725 0.12459 0.0
C427 C 0.62799 0.33344 0.1485 0.0
C428 C 0.64985 0.35145 0.13545 0.0
C429 C 0.64434 0.31008 0.14976 0.0
H430 H 0.73791 0.13472 0.15799 0.0
H431 H 0.70901 0.17585 0.16006 0.0
H432 H 0.70653 0.35958 0.11414 0.0
H433 H 0.7345 0.31831 0.1158 0.0
C434 C 0.75445 0.1492 0.14856 0.0
C435 C 0.73796 0.17263 0.1498 0.0
C436 C 0.68903 0.34596 0.12424 0.0
C437 C 0.70495 0.32246 0.12515 0.0
C438 C 0.7586 0.19165 0.13762 0.0
C439 C 0.74125 0.21565 0.13811 0.0
C440 C 0.7275 0.23592 0.1382 0.0
C441 C 0.68247 0.30441 0.13775 0.0
C442 C 0.69817 0.28004 0.13804 0.0
C443 C 0.7116 0.2597 0.13816 0.0
H444 H 0.84163 0.16109 0.11311 0.0
H445 H 0.81239 0.20176 0.11508 0.0
H446 H 0.59821 0.33744 0.15768 0.0
H447 H 0.62686 0.29638 0.15979 0.0
C448 C 0.64003 0.15853 0.65513 0.0
C449 C 0.64767 0.14421 0.63502 0.0
C450 C 0.6574 0.18204 0.65648 0.0
C451 C 0.80128 0.33537 0.61678 0.0
C452 C 0.79354 0.35197 0.63507 0.0
C453 C 0.78386 0.31196 0.61783 0.0
H454 H 0.68029 0.14207 0.60118 0.0
H455 H 0.70994 0.18362 0.60327 0.0
H456 H 0.76197 0.35742 0.66901 0.0
H457 H 0.73251 0.31569 0.6712 0.0
C458 C 0.67373 0.15315 0.61664 0.0
C459 C 0.69064 0.1767 0.61786 0.0
C460 C 0.76829 0.34483 0.65467 0.0
C461 C 0.75151 0.32116 0.65593 0.0
C462 C 0.68218 0.19122 0.63767 0.0
C463 C 0.6982 0.2157 0.63835 0.0
C464 C 0.71196 0.23617 0.63854 0.0
C465 C 0.75916 0.30478 0.63741 0.0
C466 C 0.74188 0.28056 0.63834 0.0
C467 C 0.72792 0.26013 0.63852 0.0
H468 H 0.62075 0.15156 0.6697 0.0
H469 H 0.6511 0.19309 0.67199 0.0
H470 H 0.82003 0.34071 0.60139 0.0
H471 H 0.78967 0.29948 0.60333 0.0
C472 C 0.29324 0.66006 0.85488 0.0
C473 C 0.29243 0.64474 0.83504 0.0
C474 C 0.276 0.68315 0.85371 0.0
C475 C 0.14833 0.83794 0.81312 0.0
C476 C 0.1481 0.85072 0.83469 0.0
C477 C 0.16542 0.81469 0.81199 0.0
H478 H 0.27273 0.6411 0.79831 0.0
H479 H 0.24345 0.68225 0.79607 0.0
H480 H 0.16692 0.85031 0.87152 0.0
H481 H 0.19699 0.80951 0.86954 0.0
C482 C 0.27366 0.65269 0.81387 0.0
C483 C 0.25704 0.67608 0.81258 0.0
C484 C 0.16639 0.84048 0.85484 0.0
C485 C 0.18353 0.81731 0.8537 0.0
C486 C 0.25824 0.69136 0.83254 0.0
C487 C 0.2416 0.7155 0.8315 0.0
C488 C 0.22803 0.7358 0.83134 0.0
C489 C 0.18265 0.80422 0.83236 0.0
C490 C 0.19869 0.77992 0.8316 0.0
C491 C 0.2123 0.75962 0.83139 0.0
H492 H 0.30698 0.65406 0.8714 0.0
H493 H 0.27684 0.69465 0.86933 0.0
H494 H 0.13476 0.84578 0.79732 0.0
H495 H 0.16474 0.8048 0.79534 0.0
loop_
_geom_bond_atom_site_label_1
_geom_bond_atom_site_label_2
_geom_bond_distance
_geom_bond_site_symmetry_2
_ccdc_geom_bond_type
Zn0 O3 2.031 . S
Zn0 O5 2.049 . S
Zn0 O10 2.067 . S
Zn1 O2 1.962 . S
Zn1 O4 1.986 . S
Zn1 O6 1.996 . S
Zn1 O9 1.943 . S
O2 Zn1 1.962 . S
O2 C7 1.254 . S
O3 Zn0 2.031 . S
O3 C7 1.269 . S
O4 Zn1 1.986 . S
O4 C11 1.262 . S
O5 Zn0 2.049 . S
O5 C13 1.260 . S
O6 Zn1 1.996 . S
O6 C13 1.257 . S
C7 O2 1.254 . S
C7 O3 1.269 . S
C8 O9 1.249 . S
C8 O10 1.270 . S
O9 Zn1 1.943 . S
O9 C8 1.249 . S
O10 Zn0 2.067 . S
O10 C8 1.270 . S
C11 O4 1.262 . S
C11 O12 1.232 . S
O12 C11 1.232 . S
C13 O5 1.260 . S
C13 O6 1.257 . S
Zn14 O17 2.031 . S
Zn14 O19 2.049 . S
Zn14 O24 2.067 . S
Zn15 O16 1.962 . S
Zn15 O18 1.986 . S
Zn15 O20 1.996 . S
Zn15 O23 1.943 . S
O16 Zn15 1.962 . S
O16 C21 1.254 . S
O17 Zn14 2.031 . S
O17 C21 1.269 . S
O18 Zn15 1.986 . S
O18 C25 1.262 . S
O19 Zn14 2.049 . S
O19 C27 1.260 . S
O20 Zn15 1.996 . S
O20 C27 1.257 . S
C21 O16 1.254 . S
C21 O17 1.269 . S
C22 O23 1.249 . S
C22 O24 1.270 . S
O23 Zn15 1.943 . S
O23 C22 1.249 . S
O24 Zn14 2.067 . S
O24 C22 1.270 . S
C25 O18 1.262 . S
C25 O26 1.232 . S
O26 C25 1.232 . S
C27 O19 1.260 . S
C27 O20 1.257 . S
Zn28 O31 2.031 . S
Zn28 O33 2.049 . S
Zn28 O38 2.067 . S
Zn29 O30 1.962 . S
Zn29 O32 1.986 . S
Zn29 O34 1.996 . S
Zn29 O37 1.943 . S
O30 Zn29 1.962 . S
O30 C35 1.254 . S
O31 Zn28 2.031 . S
O31 C35 1.269 . S
O32 Zn29 1.986 . S
O32 C39 1.262 . S
O33 Zn28 2.049 . S
O33 C41 1.260 . S
O34 Zn29 1.996 . S
O34 C41 1.257 . S
C35 O30 1.254 . S
C35 O31 1.269 . S
C36 O37 1.249 . S
C36 O38 1.270 . S
O37 Zn29 1.943 . S
O37 C36 1.249 . S
O38 Zn28 2.067 . S
O38 C36 1.270 . S
C39 O32 1.262 . S
C39 O40 1.232 . S
O40 C39 1.232 . S
C41 O33 1.260 . S
C41 O34 1.257 . S
Zn42 O45 2.031 . S
Zn42 O47 2.049 . S
Zn42 O52 2.067 . S
Zn43 O44 1.962 . S
Zn43 O46 1.986 . S
Zn43 O48 1.996 . S
Zn43 O51 1.943 . S
O44 Zn43 1.962 . S
O44 C49 1.254 . S
O45 Zn42 2.031 . S
O45 C49 1.269 . S
O46 Zn43 1.986 . S
O46 C53 1.262 . S
O47 Zn42 2.049 . S
O47 C55 1.260 . S
O48 Zn43 1.996 . S
O48 C55 1.257 . S
C49 O44 1.254 . S
C49 O45 1.269 . S
C50 O51 1.249 . S
C50 O52 1.270 . S
O51 Zn43 1.943 . S
O51 C50 1.249 . S
O52 Zn42 2.067 . S
O52 C50 1.270 . S
C53 O46 1.262 . S
C53 O54 1.232 . S
O54 C53 1.232 . S
C55 O47 1.260 . S
C55 O48 1.257 . S
Zn56 O59 2.031 . S
Zn56 O61 2.049 . S
Zn56 O66 2.067 . S
Zn57 O58 1.962 . S
Zn57 O60 1.986 . S
Zn57 O62 1.996 . S
Zn57 O65 1.943 . S
O58 Zn57 1.962 . S
O58 C63 1.254 . S
O59 Zn56 2.031 . S
O59 C63 1.269 . S
O60 Zn57 1.986 . S
O60 C67 1.262 . S
O61 Zn56 2.049 . S
O61 C69 1.260 . S
O62 Zn57 1.996 . S
O62 C69 1.257 . S
C63 O58 1.254 . S
C63 O59 1.269 . S
C64 O65 1.249 . S
C64 O66 1.270 . S
O65 Zn57 1.943 . S
O65 C64 1.249 . S
O66 Zn56 2.067 . S
O66 C64 1.270 . S
C67 O60 1.262 . S
C67 O68 1.232 . S
O68 C67 1.232 . S
C69 O61 1.260 . S
C69 O62 1.257 . S
Zn70 O73 2.031 . S
Zn70 O75 2.049 . S
Zn70 O80 2.067 . S
Zn71 O72 1.962 . S
Zn71 O74 1.986 . S
Zn71 O76 1.996 . S
Zn71 O79 1.943 . S
O72 Zn71 1.962 . S
O72 C77 1.254 . S
O73 Zn70 2.031 . S
O73 C77 1.269 . S
O74 Zn71 1.986 . S
O74 C81 1.262 . S
O75 Zn70 2.049 . S
O75 C83 1.260 . S
O76 Zn71 1.996 . S
O76 C83 1.257 . S
C77 O72 1.254 . S
C77 O73 1.269 . S
C78 O79 1.249 . S
C78 O80 1.270 . S
O79 Zn71 1.943 . S
O79 C78 1.249 . S
O80 Zn70 2.067 . S
O80 C78 1.270 . S
C81 O74 1.262 . S
C81 O82 1.232 . S
O82 C81 1.232 . S
C83 O75 1.260 . S
C83 O76 1.257 . S
Zn84 O87 2.031 . S
Zn84 O89 2.049 . S
Zn84 O94 2.067 . S
Zn85 O86 1.962 . S
Zn85 O88 1.986 . S
Zn85 O90 1.996 . S
Zn85 O93 1.943 . S
O86 Zn85 1.962 . S
O86 C91 1.254 . S
O87 Zn84 2.031 . S
O87 C91 1.269 . S
O88 Zn85 1.986 . S
O88 C95 1.262 . S
O89 Zn84 2.049 . S
O89 C97 1.260 . S
O90 Zn85 1.996 . S
O90 C97 1.257 . S
C91 O86 1.254 . S
C91 O87 1.269 . S
C92 O93 1.249 . S
C92 O94 1.270 . S
O93 Zn85 1.943 . S
O93 C92 1.249 . S
O94 Zn84 2.067 . S
O94 C92 1.270 . S
C95 O88 1.262 . S
C95 O96 1.232 . S
O96 C95 1.232 . S
C97 O89 1.260 . S
C97 O90 1.257 . S
Zn98 O101 2.031 . S
Zn98 O103 2.049 . S
Zn98 O108 2.067 . S
Zn99 O100 1.962 . S
Zn99 O102 1.986 . S
Zn99 O104 1.996 . S
Zn99 O107 1.943 . S
O100 Zn99 1.962 . S
O100 C105 1.254 . S
O101 Zn98 2.031 . S
O101 C105 1.269 . S
O102 Zn99 1.986 . S
O102 C109 1.262 . S
O103 Zn98 2.049 . S
O103 C111 1.260 . S
O104 Zn99 1.996 . S
O104 C111 1.257 . S
C105 O100 1.254 . S
C105 O101 1.269 . S
C106 O107 1.249 . S
C106 O108 1.270 . S
O107 Zn99 1.943 . S
O107 C106 1.249 . S
O108 Zn98 2.067 . S
O108 C106 1.270 . S
C109 O102 1.262 . S
C109 O110 1.232 . S
O110 C109 1.232 . S
C111 O103 1.260 . S
C111 O104 1.257 . S
C112 C113 1.332 . S
C112 C114 1.345 . S
C112 H132 0.932 . S
C113 C112 1.332 . S
C113 C122 1.332 . S
C114 C112 1.345 . S
C114 C126 1.334 . S
C114 H133 0.928 . S
C115 C116 1.332 . S
C115 C117 1.345 . S
C115 H134 0.932 . S
C116 C115 1.332 . S
C116 C124 1.332 . S
C117 C115 1.345 . S
C117 C129 1.334 . S
C117 H135 0.928 . S
H118 C122 0.932 . S
H119 C123 0.928 . S
H120 C124 0.932 . S
H121 C125 0.928 . S
C122 C113 1.332 . S
C122 H118 0.932 . S
C122 C123 1.345 . S
C123 H119 0.928 . S
C123 C122 1.345 . S
C123 C126 1.334 . S
C124 C116 1.332 . S
C124 H120 0.932 . S
C124 C125 1.345 . S
C125 H121 0.928 . S
C125 C124 1.345 . S
C125 C129 1.334 . S
C126 C114 1.334 . S
C126 C123 1.334 . S
C126 C127 1.487 . S
C127 C126 1.487 . S
C127 C128 1.185 . S
C128 C127 1.185 . S
C128 C131 1.482 . S
C129 C117 1.334 . S
C129 C125 1.334 . S
C129 C130 1.487 . S
C130 C129 1.487 . S
C130 C131 1.185 . S
C131 C128 1.482 . S
C131 C130 1.185 . S
H132 C112 0.932 . S
H133 C114 0.928 . S
H134 C115 0.932 . S
H135 C117 0.928 . S
C136 C137 1.332 . S
C136 C138 1.345 . S
C136 H156 0.932 . S
C137 C136 1.332 . S
C137 C146 1.332 . S
C138 C136 1.345 . S
C138 C150 1.334 1_655 S
C138 H157 0.928 . S
C139 C140 1.332 . S
C139 C141 1.345 . S
C139 H158 0.932 . S
C140 C139 1.332 . S
C140 C148 1.332 . S
C141 C139 1.345 . S
C141 C153 1.334 . S
C141 H159 0.928 1_565 S
H142 C146 0.932 . S
H143 C147 0.928 . S
H144 C148 0.932 . S
H145 C149 0.928 . S
C146 C137 1.332 . S
C146 H142 0.932 . S
C146 C147 1.345 1_655 S
C147 H143 0.928 . S
C147 C146 1.345 1_455 S
C147 C150 1.334 . S
C148 C140 1.332 . S
C148 H144 0.932 . S
C148 C149 1.345 . S
C149 H145 0.928 . S
C149 C148 1.345 . S
C149 C153 1.334 . S
C150 C138 1.334 1_455 S
C150 C147 1.334 . S
C150 C151 1.487 . S
C151 C150 1.487 . S
C151 C152 1.185 . S
C152 C151 1.185 . S
C152 C155 1.482 . S
C153 C141 1.334 . S
C153 C149 1.334 . S
C153 C154 1.487 . S
C154 C153 1.487 . S
C154 C155 1.185 1_565 S
C155 C152 1.482 . S
C155 C154 1.185 1_545 S
H156 C136 0.932 . S
H157 C138 0.928 . S
H158 C139 0.932 . S
H159 C141 0.928 1_545 S
C160 C161 1.332 . S
C160 C162 1.345 . S
C160 H180 0.932 . S
C161 C160 1.332 . S
C161 C170 1.332 . S
C162 C160 1.345 . S
C162 C174 1.334 . S
C162 H181 0.928 . S
C163 C164 1.332 . S
C163 C165 1.345 1_455 S
C163 H182 0.932 . S
C164 C163 1.332 . S
C164 C172 1.332 . S
C165 C163 1.345 1_655 S
C165 C177 1.334 . S
C165 H183 0.928 . S
H166 C170 0.932 . S
H167 C171 0.928 . S
H168 C172 0.932 . S
H169 C173 0.928 . S
C170 C161 1.332 . S
C170 H166 0.932 . S
C170 C171 1.345 . S
C171 H167 0.928 . S
C171 C170 1.345 . S
C171 C174 1.334 . S
C172 C164 1.332 . S
C172 H168 0.932 . S
C172 C173 1.345 . S
C173 H169 0.928 . S
C173 C172 1.345 . S
C173 C177 1.334 1_455 S
C174 C162 1.334 . S
C174 C171 1.334 . S
C174 C175 1.487 . S
C175 C174 1.487 . S
C175 C176 1.185 . S
C176 C175 1.185 . S
C176 C179 1.482 . S
C177 C165 1.334 . S
C177 C173 1.334 1_655 S
C177 C178 1.487 . S
C178 C177 1.487 . S
C178 C179 1.185 . S
C179 C176 1.482 . S
C179 C178 1.185 . S
H180 C160 0.932 . S
H181 C162 0.928 . S
H182 C163 0.932 . S
H183 C165 0.928 . S
C184 C185 1.332 . S
C184 C186 1.345 . S
C184 H204 0.932 . S
C185 C184 1.332 . S
C185 C194 1.332 . S
C186 C184 1.345 . S
C186 C198 1.334 . S
C186 H205 0.928 . S
C187 C188 1.332 . S
C187 C189 1.345 . S
C187 H206 0.932 . S
C188 C187 1.332 . S
C188 C196 1.332 . S
C189 C187 1.345 . S
C189 C201 1.334 . S
C189 H207 0.928 . S
H190 C194 0.932 . S
H191 C195 0.928 1_565 S
H192 C196 0.932 . S
H193 C197 0.928 . S
C194 C185 1.332 . S
C194 H190 0.932 . S
C194 C195 1.345 . S
C195 H191 0.928 1_545 S
C195 C194 1.345 . S
C195 C198 1.334 . S
C196 C188 1.332 . S
C196 H192 0.932 . S
C196 C197 1.345 . S
C197 H193 0.928 . S
C197 C196 1.345 . S
C197 C201 1.334 . S
C198 C186 1.334 . S
C198 C195 1.334 . S
C198 C199 1.487 . S
C199 C198 1.487 . S
C199 C200 1.185 1_545 S
C200 C199 1.185 1_565 S
C200 C203 1.482 . S
C201 C189 1.334 . S
C201 C197 1.334 . S
C201 C202 1.487 . S
C202 C201 1.487 . S
C202 C203 1.185 . S
C203 C200 1.482 . S
C203 C202 1.185 . S
H204 C184 0.932 . S
H205 C186 0.928 . S
H206 C187 0.932 . S
H207 C189 0.928 . S
C208 C209 1.332 . S
C208 C210 1.345 . S
C208 H228 0.932 . S
C209 C208 1.332 . S
C209 C218 1.332 . S
C210 C208 1.345 . S
C210 C222 1.334 . S
C210 H229 0.928 . S
C211 C212 1.332 . S
C211 C213 1.345 . S
C211 H230 0.932 . S
C212 C211 1.332 . S
C212 C220 1.332 . S
C213 C211 1.345 . S
C213 C225 1.334 . S
C213 H231 0.928 . S
H214 C218 0.932 . S
H215 C219 0.928 . S
H216 C220 0.932 . S
H217 C221 0.928 . S
C218 C209 1.332 . S
C218 H214 0.932 . S
C218 C219 1.345 . S
C219 H215 0.928 . S
C219 C218 1.345 . S
C219 C222 1.334 . S
C220 C212 1.332 . S
C220 H216 0.932 . S
C220 C221 1.345 . S
C221 H217 0.928 . S
C221 C220 1.345 . S
C221 C225 1.334 . S
C222 C210 1.334 . S
C222 C219 1.334 . S
C222 C223 1.487 . S
C223 C222 1.487 . S
C223 C224 1.185 . S
C224 C223 1.185 . S
C224 C227 1.482 . S
C225 C213 1.334 . S
C225 C221 1.334 . S
C225 C226 1.487 . S
C226 C225 1.487 . S
C226 C227 1.185 . S
C227 C224 1.482 . S
C227 C226 1.185 . S
H228 C208 0.932 . S
H229 C210 0.928 . S
H230 C211 0.932 . S
H231 C213 0.928 . S
C232 C233 1.332 . S
C232 C234 1.345 . S
C232 H252 0.932 . S
C233 C232 1.332 . S
C233 C242 1.332 . S
C234 C232 1.345 . S
C234 C246 1.334 . S
C234 H253 0.928 . S
C235 C236 1.332 . S
C235 C237 1.345 1_455 S
C235 H254 0.932 . S
C236 C235 1.332 . S
C236 C244 1.332 . S
C237 C235 1.345 1_655 S
C237 C249 1.334 . S
C237 H255 0.928 . S
H238 C242 0.932 . S
H239 C243 0.928 1_565 S
H240 C244 0.932 . S
H241 C245 0.922 1_545 S
C242 C233 1.332 . S
C242 H238 0.932 . S
C242 C243 1.345 . S
C243 H239 0.928 1_545 S
C243 C242 1.345 . S
C243 C246 1.334 . S
C244 C236 1.332 . S
C244 H240 0.932 . S
C244 C245 1.345 . S
C245 H241 0.922 1_565 S
C245 C244 1.345 . S
C245 C249 1.334 1_455 S
C246 C234 1.334 . S
C246 C243 1.334 . S
C246 C247 1.487 . S
C247 C246 1.487 . S
C247 C248 1.185 1_545 S
C248 C247 1.185 1_565 S
C248 C251 1.482 . S
C249 C237 1.334 . S
C249 C245 1.334 1_655 S
C249 C250 1.487 . S
C250 C249 1.487 . S
C250 C251 1.185 . S
C251 C248 1.482 . S
C251 C250 1.185 . S
H252 C232 0.932 . S
H253 C234 0.928 . S
H254 C235 0.932 . S
H255 C237 0.928 . S
C256 C257 1.332 . S
C256 C258 1.345 . S
C256 H276 0.932 . S
C257 C256 1.332 . S
C257 C266 1.332 . S
C258 C256 1.345 . S
C258 C270 1.334 . S
C258 H277 0.928 . S
C259 C260 1.332 . S
C259 C261 1.345 . S
C259 H278 0.932 . S
C260 C259 1.332 . S
C260 C268 1.332 . S
C261 C259 1.345 . S
C261 C273 1.334 1_655 S
C261 H279 0.928 . S
H262 C266 0.932 . S
H263 C267 0.928 . S
H264 C268 0.932 . S
H265 C269 0.928 . S
C266 C257 1.332 . S
C266 H262 0.932 . S
C266 C267 1.345 . S
C267 H263 0.928 . S
C267 C266 1.345 . S
C267 C270 1.334 . S
C268 C260 1.332 . S
C268 H264 0.932 . S
C268 C269 1.345 1_655 S
C269 H265 0.928 . S
C269 C268 1.345 1_455 S
C269 C273 1.334 . S
C270 C258 1.334 . S
C270 C267 1.334 . S
C270 C271 1.487 . S
C271 C270 1.487 . S
C271 C272 1.185 . S
C272 C271 1.185 . S
C272 C275 1.482 . S
C273 C261 1.334 1_455 S
C273 C269 1.334 . S
C273 C274 1.487 . S
C274 C273 1.487 . S
C274 C275 1.185 . S
C275 C272 1.482 . S
C275 C274 1.185 . S
H276 C256 0.932 . S
H277 C258 0.928 . S
H278 C259 0.932 . S
H279 C261 0.928 . S
C280 C281 1.332 . S
C280 C282 1.345 . S
C280 H300 0.932 . S
C281 C280 1.332 . S
C281 C290 1.332 . S
C282 C280 1.345 . S
C282 C294 1.334 . S
C282 H301 0.928 . S
C283 C284 1.332 . S
C283 C285 1.345 . S
C283 H302 0.932 . S
C284 C283 1.332 . S
C284 C292 1.332 . S
C285 C283 1.345 . S
C285 C297 1.334 . S
C285 H303 0.928 . S
H286 C290 0.932 . S
H287 C291 0.928 1_545 S
H288 C292 0.932 . S
H289 C293 0.928 1_565 S
C290 C281 1.332 . S
C290 H286 0.932 . S
C290 C291 1.345 . S
C291 H287 0.928 1_565 S
C291 C290 1.345 . S
C291 C294 1.334 . S
C292 C284 1.332 . S
C292 H288 0.932 . S
C292 C293 1.345 . S
C293 H289 0.928 1_545 S
C293 C292 1.345 . S
C293 C297 1.334 . S
C294 C282 1.334 . S
C294 C291 1.334 . S
C294 C295 1.487 . S
C295 C294 1.487 . S
C295 C296 1.185 1_565 S
C296 C295 1.185 1_545 S
C296 C299 1.482 . S
C297 C285 1.334 . S
C297 C293 1.334 . S
C297 C298 1.487 . S
C298 C297 1.487 . S
C298 C299 1.185 . S
C299 C296 1.482 . S
C299 C298 1.185 . S
H300 C280 0.932 . S
H301 C282 0.928 . S
H302 C283 0.932 . S
H303 C285 0.928 . S
C304 C305 1.332 . S
C304 C306 1.345 . S
C304 H324 0.932 . S
C305 C304 1.332 . S
C305 C314 1.332 . S
C306 C304 1.345 . S
C306 C318 1.334 . S
C306 H325 0.928 . S
C307 C308 1.332 . S
C307 C309 1.345 . S
C307 H326 0.932 . S
C308 C307 1.332 . S
C308 C316 1.332 . S
C309 C307 1.345 . S
C309 C321 1.334 . S
C309 H327 0.928 . S
H310 C314 0.932 . S
H311 C315 0.928 . S
H312 C316 0.932 . S
H313 C317 0.928 . S
C314 C305 1.332 . S
C314 H310 0.932 . S
C314 C315 1.345 . S
C315 H311 0.928 . S
C315 C314 1.345 . S
C315 C318 1.334 . S
C316 C308 1.332 . S
C316 H312 0.932 . S
C316 C317 1.345 . S
C317 H313 0.928 . S
C317 C316 1.345 . S
C317 C321 1.334 . S
C318 C306 1.334 . S
C318 C315 1.334 . S
C318 C319 1.487 . S
C319 C318 1.487 . S
C319 C320 1.185 . S
C320 C319 1.185 . S
C320 C323 1.482 1_455 S
C321 C309 1.334 . S
C321 C317 1.334 . S
C321 C322 1.487 . S
C322 C321 1.487 . S
C322 C323 1.185 . S
C323 C320 1.482 1_655 S
C323 C322 1.185 . S
H324 C304 0.932 . S
H325 C306 0.928 . S
H326 C307 0.932 . S
H327 C309 0.928 . S
C328 C329 1.332 . S
C328 C330 1.345 . S
C328 H348 0.932 . S
C329 C328 1.332 . S
C329 C338 1.332 . S
C330 C328 1.345 . S
C330 C342 1.334 . S
C330 H349 0.928 . S
C331 C332 1.332 . S
C331 C333 1.345 . S
C331 H350 0.932 . S
C332 C331 1.332 . S
C332 C340 1.332 . S
C333 C331 1.345 . S
C333 C345 1.334 . S
C333 H351 0.928 . S
H334 C338 0.932 . S
H335 C339 0.928 . S
H336 C340 0.932 . S
H337 C341 0.928 . S
C338 C329 1.332 . S
C338 H334 0.932 . S
C338 C339 1.345 . S
C339 H335 0.928 . S
C339 C338 1.345 . S
C339 C342 1.334 . S
C340 C332 1.332 . S
C340 H336 0.932 . S
C340 C341 1.345 . S
C341 H337 0.928 . S
C341 C340 1.345 . S
C341 C345 1.334 . S
C342 C330 1.334 . S
C342 C339 1.334 . S
C342 C343 1.487 . S
C343 C342 1.487 . S
C343 C344 1.185 . S
C344 C343 1.185 . S
C344 C347 1.482 1_565 S
C345 C333 1.334 . S
C345 C341 1.334 . S
C345 C346 1.487 . S
C346 C345 1.487 . S
C346 C347 1.185 . S
C347 C344 1.482 1_545 S
C347 C346 1.185 . S
H348 C328 0.932 . S
H349 C330 0.928 . S
H350 C331 0.932 . S
H351 C333 0.928 . S
C352 C353 1.332 . S
C352 C354 1.345 . S
C352 H372 0.932 . S
C353 C352 1.332 . S
C353 C362 1.332 . S
C354 C352 1.345 . S
C354 C366 1.334 . S
C354 H373 0.928 . S
C355 C356 1.332 . S
C355 C357 1.345 . S
C355 H374 0.932 . S
C356 C355 1.332 . S
C356 C364 1.332 . S
C357 C355 1.345 . S
C357 C369 1.334 . S
C357 H375 0.928 . S
H358 C362 0.932 . S
H359 C363 0.928 . S
H360 C364 0.932 . S
H361 C365 0.928 . S
C362 C353 1.332 . S
C362 H358 0.932 . S
C362 C363 1.345 . S
C363 H359 0.928 . S
C363 C362 1.345 . S
C363 C366 1.334 . S
C364 C356 1.332 . S
C364 H360 0.932 . S
C364 C365 1.345 . S
C365 H361 0.928 . S
C365 C364 1.345 . S
C365 C369 1.334 . S
C366 C354 1.334 . S
C366 C363 1.334 . S
C366 C367 1.487 . S
C367 C366 1.487 . S
C367 C368 1.185 . S
C368 C367 1.185 . S
C368 C371 1.482 1_554 S
C369 C357 1.334 . S
C369 C365 1.334 . S
C369 C370 1.487 . S
C370 C369 1.487 . S
C370 C371 1.185 . S
C371 C368 1.482 1_556 S
C371 C370 1.185 . S
H372 C352 0.932 . S
H373 C354 0.928 . S
H374 C355 0.932 . S
H375 C357 0.928 . S
C376 C377 1.332 . S
C376 C378 1.345 . S
C376 H396 0.932 . S
C377 C376 1.332 . S
C377 C386 1.332 . S
C378 C376 1.345 . S
C378 C390 1.334 . S
C378 H397 0.928 . S
C379 C380 1.332 . S
C379 C381 1.345 . S
C379 H398 0.932 . S
C380 C379 1.332 . S
C380 C388 1.332 . S
C381 C379 1.345 . S
C381 C393 1.334 . S
C381 H399 0.928 . S
H382 C386 0.932 . S
H383 C387 0.928 1_545 S
H384 C388 0.932 . S
H385 C389 0.928 1_565 S
C386 C377 1.332 . S
C386 H382 0.932 . S
C386 C387 1.345 . S
C387 H383 0.928 1_565 S
C387 C386 1.345 . S
C387 C390 1.334 . S
C388 C380 1.332 . S
C388 H384 0.932 . S
C388 C389 1.345 . S
C389 H385 0.928 1_545 S
C389 C388 1.345 . S
C389 C393 1.334 . S
C390 C378 1.334 . S
C390 C387 1.334 . S
C390 C391 1.487 . S
C391 C390 1.487 . S
C391 C392 1.185 . S
C392 C391 1.185 . S
C392 C395 1.482 1_466 S
C393 C381 1.334 . S
C393 C389 1.334 . S
C393 C394 1.487 . S
C394 C393 1.487 . S
C394 C395 1.185 . S
C395 C392 1.482 1_644 S
C395 C394 1.185 . S
H396 C376 0.932 . S
H397 C378 0.928 . S
H398 C379 0.932 . S
H399 C381 0.928 . S
C400 C401 1.332 . S
C400 C402 1.345 . S
C400 H420 0.932 . S
C401 C400 1.332 . S
C401 C410 1.332 . S
C402 C400 1.345 . S
C402 C414 1.334 . S
C402 H421 0.928 . S
C403 C404 1.332 . S
C403 C405 1.345 . S
C403 H422 0.932 . S
C404 C403 1.332 . S
C404 C412 1.332 . S
C405 C403 1.345 . S
C405 C417 1.334 . S
C405 H423 0.928 . S
H406 C410 0.932 . S
H407 C411 0.928 . S
H408 C412 0.932 . S
H409 C413 0.928 . S
C410 C401 1.332 . S
C410 H406 0.932 . S
C410 C411 1.345 . S
C411 H407 0.928 . S
C411 C410 1.345 . S
C411 C414 1.334 . S
C412 C404 1.332 . S
C412 H408 0.932 . S
C412 C413 1.345 . S
C413 H409 0.928 . S
C413 C412 1.345 . S
C413 C417 1.334 . S
C414 C402 1.334 . S
C414 C411 1.334 . S
C414 C415 1.487 . S
C415 C414 1.487 . S
C415 C416 1.185 . S
C416 C415 1.185 . S
C416 C419 1.482 . S
C417 C405 1.334 . S
C417 C413 1.334 . S
C417 C418 1.487 . S
C418 C417 1.487 . S
C418 C419 1.185 . S
C419 C416 1.482 . S
C419 C418 1.185 . S
H420 C400 0.932 . S
H421 C402 0.928 . S
H422 C403 0.932 . S
H423 C405 0.928 . S
C424 C425 1.332 . S
C424 C426 1.345 . S
C424 H444 0.932 . S
C425 C424 1.332 . S
C425 C434 1.332 . S
C426 C424 1.345 . S
C426 C438 1.334 . S
C426 H445 0.928 . S
C427 C428 1.332 . S
C427 C429 1.345 . S
C427 H446 0.932 . S
C428 C427 1.332 . S
C428 C436 1.332 . S
C429 C427 1.345 . S
C429 C441 1.334 . S
C429 H447 0.928 . S
H430 C434 0.932 . S
H431 C435 0.928 . S
H432 C436 0.932 . S
H433 C437 0.928 . S
C434 C425 1.332 . S
C434 H430 0.932 . S
C434 C435 1.345 . S
C435 H431 0.928 . S
C435 C434 1.345 . S
C435 C438 1.334 . S
C436 C428 1.332 . S
C436 H432 0.932 . S
C436 C437 1.345 . S
C437 H433 0.928 . S
C437 C436 1.345 . S
C437 C441 1.334 . S
C438 C426 1.334 . S
C438 C435 1.334 . S
C438 C439 1.487 . S
C439 C438 1.487 . S
C439 C440 1.185 . S
C440 C439 1.185 . S
C440 C443 1.482 . S
C441 C429 1.334 . S
C441 C437 1.334 . S
C441 C442 1.487 . S
C442 C441 1.487 . S
C442 C443 1.185 . S
C443 C440 1.482 . S
C443 C442 1.185 . S
H444 C424 0.932 . S
H445 C426 0.928 . S
H446 C427 0.932 . S
H447 C429 0.928 . S
C448 C449 1.332 . S
C448 C450 1.345 . S
C448 H468 0.932 . S
C449 C448 1.332 . S
C449 C458 1.332 . S
C450 C448 1.345 . S
C450 C462 1.334 . S
C450 H469 0.928 . S
C451 C452 1.332 . S
C451 C453 1.345 . S
C451 H470 0.932 . S
C452 C451 1.332 . S
C452 C460 1.332 . S
C453 C451 1.345 . S
C453 C465 1.334 . S
C453 H471 0.928 . S
H454 C458 0.932 . S
H455 C459 0.928 . S
H456 C460 0.932 . S
H457 C461 0.928 . S
C458 C449 1.332 . S
C458 H454 0.932 . S
C458 C459 1.345 . S
C459 H455 0.928 . S
C459 C458 1.345 . S
C459 C462 1.334 . S
C460 C452 1.332 . S
C460 H456 0.932 . S
C460 C461 1.345 . S
C461 H457 0.928 . S
C461 C460 1.345 . S
C461 C465 1.334 . S
C462 C450 1.334 . S
C462 C459 1.334 . S
C462 C463 1.487 . S
C463 C462 1.487 . S
C463 C464 1.185 . S
C464 C463 1.185 . S
C464 C467 1.482 . S
C465 C453 1.334 . S
C465 C461 1.334 . S
C465 C466 1.487 . S
C466 C465 1.487 . S
C466 C467 1.185 . S
C467 C464 1.482 . S
C467 C466 1.185 . S
H468 C448 0.932 . S
H469 C450 0.928 . S
H470 C451 0.932 . S
H471 C453 0.928 . S
C472 C473 1.332 . S
C472 C474 1.345 . S
C472 H492 0.932 . S
C473 C472 1.332 . S
C473 C482 1.332 . S
C474 C472 1.345 . S
C474 C486 1.334 . S
C474 H493 0.928 . S
C475 C476 1.332 . S
C475 C477 1.345 . S
C475 H494 0.932 . S
C476 C475 1.332 . S
C476 C484 1.332 . S
C477 C475 1.345 . S
C477 C489 1.334 . S
C477 H495 0.928 . S
H478 C482 0.932 . S
H479 C483 0.928 . S
H480 C484 0.932 . S
H481 C485 0.928 . S
C482 C473 1.332 . S
C482 H478 0.932 . S
C482 C483 1.345 . S
C483 H479 0.928 . S
C483 C482 1.345 . S
C483 C486 1.334 . S
C484 C476 1.332 . S
C484 H480 0.932 . S
C484 C485 1.345 . S
C485 H481 0.928 . S
C485 C484 1.345 . S
C485 C489 1.334 . S
C486 C474 1.334 . S
C486 C483 1.334 . S
C486 C487 1.487 . S
C487 C486 1.487 . S
C487 C488 1.185 . S
C488 C487 1.185 . S
C488 C491 1.482 . S
C489 C477 1.334 . S
C489 C485 1.334 . S
C489 C490 1.487 . S
C490 C489 1.487 . S
C490 C491 1.185 . S
C491 C488 1.482 . S
C491 C490 1.185 . S
H492 C472 0.932 . S
H493 C474 0.928 . S
H494 C475 0.932 . S
H495 C477 0.928 . S
C113 C13 1.049 . S
C116 C36 1.063 . S
C137 C50 1.063 . S
C140 C27 1.049 . S
C161 C41 1.049 . S
C164 C8 1.063 . S
C185 C55 1.049 . S
C188 C22 1.063 . S
C209 C92 1.063 . S
C212 C69 1.049 . S
C233 C83 1.049 . S
C236 C106 1.063 . S
C257 C97 1.049 . S
C260 C64 1.063 . S
C281 C111 1.049 . S
C284 C78 1.063 . S
C305 C7 1.501 . S
C308 C63 1.501 . S
C329 C21 1.501 . S
C332 C77 1.501 . S
C353 C35 1.501 . S
C356 C91 1.501 . S
C377 C105 1.501 . S
C380 C49 1.501 . S
C401 C11 1.503 . S
C404 C25 1.503 . S
C425 C53 1.503 . S
C428 C39 1.503 . S
C449 C81 1.503 . S
C452 C67 1.503 . S
C473 C95 1.503 . S
C476 C109 1.503 . S
