# Generated by pormake.
# Topology unw, (4)-cn, num edge types: 1
# Building blocks:
#     Node 0, Type 0, BuildingBlock: MUDLON_clean_sbu_0, # of connection points: 4
#     Node 1, Type 0, BuildingBlock: MUDLON_clean_sbu_0, # of connection points: 4
#     Node 2, Type 0, BuildingBlock: MUDLON_clean_sbu_0, # of connection points: 4
#     Node 3, Type 0, BuildingBlock: MUDLON_clean_sbu_0, # of connection points: 4
#     Node 4, Type 0, BuildingBlock: MUDLON_clean_sbu_0, # of connection points: 4
#     Node 5, Type 0, BuildingBlock: MUDLON_clean_sbu_0, # of connection points: 4
#     Node 6, Type 0, BuildingBlock: MUDLON_clean_sbu_0, # of connection points: 4
#     Node 7, Type 0, BuildingBlock: MUDLON_clean_sbu_0, # of connection points: 4
#     Node 8, Type 0, BuildingBlock: MUDLON_clean_sbu_0, # of connection points: 4
#     Node 9, Type 0, BuildingBlock: MUDLON_clean_sbu_0, # of connection points: 4
#     Node 10, Type 0, BuildingBlock: MUDLON_clean_sbu_0, # of connection points: 4
#     Node 11, Type 0, BuildingBlock: MUDLON_clean_sbu_0, # of connection points: 4
#     Node 12, Type 0, BuildingBlock: MUDLON_clean_sbu_0, # of connection points: 4
#     Node 13, Type 0, BuildingBlock: MUDLON_clean_sbu_0, # of connection points: 4
#     Node 14, Type 0, BuildingBlock: MUDLON_clean_sbu_0, # of connection points: 4
#     Node 15, Type 0, BuildingBlock: MUDLON_clean_sbu_0, # of connection points: 4
#     Node 16, Type 0, BuildingBlock: MUDLON_clean_sbu_0, # of connection points: 4
#     Node 17, Type 0, BuildingBlock: MUDLON_clean_sbu_0, # of connection points: 4
#     Node 18, Type 0, BuildingBlock: MUDLON_clean_sbu_0, # of connection points: 4
#     Node 19, Type 0, BuildingBlock: MUDLON_clean_sbu_0, # of connection points: 4
#     Node 20, Type 0, BuildingBlock: MUDLON_clean_sbu_0, # of connection points: 4
#     Node 21, Type 0, BuildingBlock: MUDLON_clean_sbu_0, # of connection points: 4
#     Node 22, Type 0, BuildingBlock: MUDLON_clean_sbu_0, # of connection points: 4
#     Node 23, Type 0, BuildingBlock: MUDLON_clean_sbu_0, # of connection points: 4
#     Edge 24, Type (0, 0), BuildingBlock: XIVTED_clean_linker_0, # of connection points: 2
#     Edge 25, Type (0, 0), BuildingBlock: XIVTED_clean_linker_0, # of connection points: 2
#     Edge 26, Type (0, 0), BuildingBlock: XIVTED_clean_linker_0, # of connection points: 2
#     Edge 27, Type (0, 0), BuildingBlock: XIVTED_clean_linker_0, # of connection points: 2
#     Edge 28, Type (0, 0), BuildingBlock: XIVTED_clean_linker_0, # of connection points: 2
#     Edge 29, Type (0, 0), BuildingBlock: XIVTED_clean_linker_0, # of connection points: 2
#     Edge 30, Type (0, 0), BuildingBlock: XIVTED_clean_linker_0, # of connection points: 2
#     Edge 31, Type (0, 0), BuildingBlock: XIVTED_clean_linker_0, # of connection points: 2
#     Edge 32, Type (0, 0), BuildingBlock: XIVTED_clean_linker_0, # of connection points: 2
#     Edge 33, Type (0, 0), BuildingBlock: XIVTED_clean_linker_0, # of connection points: 2
#     Edge 34, Type (0, 0), BuildingBlock: XIVTED_clean_linker_0, # of connection points: 2
#     Edge 35, Type (0, 0), BuildingBlock: XIVTED_clean_linker_0, # of connection points: 2
#     Edge 36, Type (0, 0), BuildingBlock: XIVTED_clean_linker_0, # of connection points: 2
#     Edge 37, Type (0, 0), BuildingBlock: XIVTED_clean_linker_0, # of connection points: 2
#     Edge 38, Type (0, 0), BuildingBlock: XIVTED_clean_linker_0, # of connection points: 2
#     Edge 39, Type (0, 0), BuildingBlock: XIVTED_clean_linker_0, # of connection points: 2
#     Edge 40, Type (0, 0), BuildingBlock: XIVTED_clean_linker_0, # of connection points: 2
#     Edge 41, Type (0, 0), BuildingBlock: XIVTED_clean_linker_0, # of connection points: 2
#     Edge 42, Type (0, 0), BuildingBlock: XIVTED_clean_linker_0, # of connection points: 2
#     Edge 43, Type (0, 0), BuildingBlock: XIVTED_clean_linker_0, # of connection points: 2
#     Edge 44, Type (0, 0), BuildingBlock: XIVTED_clean_linker_0, # of connection points: 2
#     Edge 45, Type (0, 0), BuildingBlock: XIVTED_clean_linker_0, # of connection points: 2
#     Edge 46, Type (0, 0), BuildingBlock: XIVTED_clean_linker_0, # of connection points: 2
#     Edge 47, Type (0, 0), BuildingBlock: XIVTED_clean_linker_0, # of connection points: 2
#     Edge 48, Type (0, 0), BuildingBlock: XIVTED_clean_linker_0, # of connection points: 2
#     Edge 49, Type (0, 0), BuildingBlock: XIVTED_clean_linker_0, # of connection points: 2
#     Edge 50, Type (0, 0), BuildingBlock: XIVTED_clean_linker_0, # of connection points: 2
#     Edge 51, Type (0, 0), BuildingBlock: XIVTED_clean_linker_0, # of connection points: 2
#     Edge 52, Type (0, 0), BuildingBlock: XIVTED_clean_linker_0, # of connection points: 2
#     Edge 53, Type (0, 0), BuildingBlock: XIVTED_clean_linker_0, # of connection points: 2
#     Edge 54, Type (0, 0), BuildingBlock: XIVTED_clean_linker_0, # of connection points: 2
#     Edge 55, Type (0, 0), BuildingBlock: XIVTED_clean_linker_0, # of connection points: 2
#     Edge 56, Type (0, 0), BuildingBlock: XIVTED_clean_linker_0, # of connection points: 2
#     Edge 57, Type (0, 0), BuildingBlock: XIVTED_clean_linker_0, # of connection points: 2
#     Edge 58, Type (0, 0), BuildingBlock: XIVTED_clean_linker_0, # of connection points: 2
#     Edge 59, Type (0, 0), BuildingBlock: XIVTED_clean_linker_0, # of connection points: 2
#     Edge 60, Type (0, 0), BuildingBlock: XIVTED_clean_linker_0, # of connection points: 2
#     Edge 61, Type (0, 0), BuildingBlock: XIVTED_clean_linker_0, # of connection points: 2
#     Edge 62, Type (0, 0), BuildingBlock: XIVTED_clean_linker_0, # of connection points: 2
#     Edge 63, Type (0, 0), BuildingBlock: XIVTED_clean_linker_0, # of connection points: 2
#     Edge 64, Type (0, 0), BuildingBlock: XIVTED_clean_linker_0, # of connection points: 2
#     Edge 65, Type (0, 0), BuildingBlock: XIVTED_clean_linker_0, # of connection points: 2
#     Edge 66, Type (0, 0), BuildingBlock: XIVTED_clean_linker_0, # of connection points: 2
#     Edge 67, Type (0, 0), BuildingBlock: XIVTED_clean_linker_0, # of connection points: 2
#     Edge 68, Type (0, 0), BuildingBlock: XIVTED_clean_linker_0, # of connection points: 2
#     Edge 69, Type (0, 0), BuildingBlock: XIVTED_clean_linker_0, # of connection points: 2
#     Edge 70, Type (0, 0), BuildingBlock: XIVTED_clean_linker_0, # of connection points: 2
#     Edge 71, Type (0, 0), BuildingBlock: XIVTED_clean_linker_0, # of connection points: 2
# Relax obj value: 0.472
# Max RMSD: 0.264
# Mean RMSD: 0.264
data_MOF--net-unw--node1-MUDLON_clean_sbu_0--edge1-XIVTED_clean_linker_0
_symmetry_space_group_name_H-M    P1
_symmetry_Int_Tables_number       1
_symmetry_cell_setting            triclinic
loop_
_symmetry_equiv_pos_as_xyz
'x, y, z'
_cell_length_a     49.949622
_cell_length_b     49.956582
_cell_length_c     49.984726
_cell_angle_alpha  89.992737
_cell_angle_beta   89.854825
_cell_angle_gamma 89.952878
loop_
_atom_site_label
_atom_site_type_symbol
_atom_site_fract_x
_atom_site_fract_y
_atom_site_fract_z
_atom_type_partial_charge
Mg0 Mg 0.13356 0.38077 0.26368 0.0
C1 C 0.14132 0.34835 0.31481 0.0
O2 O 0.11676 0.35614 0.31999 0.0
C3 C 0.13686 0.43467 0.23876 0.0
O4 O 0.12209 0.4214 0.22156 0.0
C5 C 0.07681 0.38065 0.28436 0.0
O6 O 0.08613 0.40235 0.29592 0.0
O7 O 0.0915 0.36879 0.26721 0.0
O8 O 0.15384 0.35885 0.29525 0.0
O9 O 0.15527 0.36433 0.22959 0.0
C10 C 0.17758 0.376 0.22549 0.0
O11 O 0.18409 0.39654 0.24048 0.0
O12 O 0.14211 0.42368 0.26115 0.0
Mg13 Mg 0.62657 0.12361 0.25868 0.0
C14 C 0.63179 0.16926 0.22488 0.0
O15 O 0.61533 0.17556 0.24443 0.0
C16 C 0.65549 0.07002 0.24944 0.0
O17 O 0.66496 0.08238 0.22823 0.0
C18 C 0.57433 0.1252 0.23342 0.0
O19 O 0.58915 0.10954 0.21831 0.0
O20 O 0.58371 0.13245 0.25597 0.0
O21 O 0.64081 0.14542 0.22377 0.0
O22 O 0.65155 0.14268 0.28891 0.0
C23 C 0.67569 0.14104 0.28069 0.0
O24 O 0.68034 0.12901 0.2578 0.0
O25 O 0.63742 0.08141 0.26335 0.0
Mg26 Mg 0.85346 0.63954 0.26983 0.0
C27 C 0.81427 0.67354 0.29983 0.0
O28 O 0.79953 0.6684 0.27873 0.0
C29 C 0.81996 0.59002 0.26493 0.0
O30 O 0.80187 0.60731 0.2731 0.0
C31 C 0.89946 0.67533 0.27915 0.0
O32 O 0.87909 0.69187 0.27709 0.0
O33 O 0.89548 0.65051 0.27479 0.0
O34 O 0.83512 0.65948 0.30378 0.0
O35 O 0.83402 0.6583 0.23595 0.0
C36 C 0.82689 0.6445 0.21582 0.0
O37 O 0.8371 0.62049 0.21252 0.0
O38 O 0.84445 0.59714 0.26456 0.0
Mg39 Mg 0.36464 0.87308 0.24166 0.0
C40 C 0.36691 0.84482 0.18757 0.0
O41 O 0.39259 0.85015 0.18861 0.0
C42 C 0.33585 0.92569 0.24776 0.0
O43 O 0.31788 0.91191 0.23447 0.0
C44 C 0.42431 0.87152 0.23275 0.0
O45 O 0.41876 0.8959 0.22458 0.0
O46 O 0.40587 0.8581 0.24419 0.0
O47 O 0.35106 0.85715 0.2033 0.0
O48 O 0.33596 0.85591 0.27011 0.0
C49 C 0.31278 0.85172 0.26037 0.0
O50 O 0.30919 0.85509 0.23461 0.0
O51 O 0.35914 0.91568 0.25072 0.0
Mg52 Mg 0.13536 0.62411 0.75277 0.0
C53 C 0.17797 0.65451 0.72213 0.0
O54 O 0.19257 0.64824 0.74299 0.0
C55 C 0.13398 0.57152 0.7799 0.0
O56 O 0.118 0.58639 0.79464 0.0
C57 C 0.08679 0.63251 0.7211 0.0
O58 O 0.10294 0.6189 0.70537 0.0
O59 O 0.09393 0.63634 0.74526 0.0
O60 O 0.15533 0.64331 0.71917 0.0
O61 O 0.15436 0.64298 0.78722 0.0
C62 C 0.17512 0.6311 0.79608 0.0
O63 O 0.1815 0.60766 0.78604 0.0
O64 O 0.14261 0.5812 0.75794 0.0
Mg65 Mg 0.38045 0.12492 0.75864 0.0
C66 C 0.36851 0.14954 0.81288 0.0
O67 O 0.39449 0.14771 0.81624 0.0
C68 C 0.35766 0.06841 0.75513 0.0
O69 O 0.34416 0.07635 0.77629 0.0
C70 C 0.43715 0.12838 0.77932 0.0
O71 O 0.4305 0.10451 0.78816 0.0
O72 O 0.42086 0.14074 0.76416 0.0
O73 O 0.35765 0.13725 0.79347 0.0
O74 O 0.35714 0.14598 0.72861 0.0
C75 C 0.33264 0.13911 0.73039 0.0
O76 O 0.32593 0.12118 0.74838 0.0
O77 O 0.37634 0.08324 0.74613 0.0
Mg78 Mg 0.86881 0.37447 0.73956 0.0
C79 C 0.87011 0.34873 0.6839 0.0
O80 O 0.8953 0.3561 0.6833 0.0
C81 C 0.84076 0.42759 0.74609 0.0
O82 O 0.82225 0.41418 0.73317 0.0
C83 C 0.92785 0.37213 0.72903 0.0
O84 O 0.92194 0.39622 0.72025 0.0
O85 O 0.90986 0.35914 0.74156 0.0
O86 O 0.85457 0.35893 0.70136 0.0
O87 O 0.84089 0.3567 0.7682 0.0
C88 C 0.81739 0.35277 0.75914 0.0
O89 O 0.81279 0.35725 0.7337 0.0
O90 O 0.86384 0.41704 0.74883 0.0
Mg91 Mg 0.62815 0.88559 0.75295 0.0
C92 C 0.63957 0.83993 0.78433 0.0
O93 O 0.62198 0.83334 0.76597 0.0
C94 C 0.65701 0.93964 0.75959 0.0
O95 O 0.66763 0.92765 0.78042 0.0
C96 C 0.57894 0.88005 0.78435 0.0
O97 O 0.59548 0.89343 0.79978 0.0
O98 O 0.58597 0.87568 0.76021 0.0
O99 O 0.64736 0.86418 0.78549 0.0
O100 O 0.64907 0.8657 0.72021 0.0
C101 C 0.67387 0.87118 0.72254 0.0
O102 O 0.68122 0.88729 0.7419 0.0
O103 O 0.6383 0.92792 0.74693 0.0
Mg104 Mg 0.24658 0.12987 0.37133 0.0
C105 C 0.29914 0.13579 0.34014 0.0
O106 O 0.30411 0.11155 0.3489 0.0
C107 C 0.24732 0.16631 0.41796 0.0
O108 O 0.25687 0.18116 0.39846 0.0
C109 C 0.26528 0.07156 0.36778 0.0
O110 O 0.27976 0.07879 0.38846 0.0
O111 O 0.24764 0.08773 0.35897 0.0
O112 O 0.27921 0.14859 0.3495 0.0
O113 O 0.21419 0.15206 0.35299 0.0
C114 C 0.19593 0.16307 0.36695 0.0
O115 O 0.19242 0.15535 0.39183 0.0
O116 O 0.24343 0.14149 0.41348 0.0
Mg117 Mg 0.87159 0.26223 0.38103 0.0
C118 C 0.86134 0.31501 0.35233 0.0
O119 O 0.88563 0.32073 0.36044 0.0
C120 C 0.84097 0.2625 0.43368 0.0
O121 O 0.82395 0.27622 0.41908 0.0
C122 C 0.92791 0.28499 0.38086 0.0
O123 O 0.91884 0.29551 0.40322 0.0
O124 O 0.91332 0.2681 0.36862 0.0
O125 O 0.84971 0.29433 0.36158 0.0
O126 O 0.85234 0.22849 0.36132 0.0
C127 C 0.83738 0.2126 0.37451 0.0
O128 O 0.83798 0.21322 0.40073 0.0
O129 O 0.86379 0.25674 0.42378 0.0
Mg130 Mg 0.78945 0.87692 0.35704 0.0
C131 C 0.84588 0.86591 0.33227 0.0
O132 O 0.87022 0.873 0.32528 0.0
C133 C 0.76718 0.92168 0.3276 0.0
O134 O 0.78162 0.90774 0.31054 0.0
C135 C 0.81575 0.85234 0.40541 0.0
O136 O 0.83665 0.85926 0.39112 0.0
O137 O 0.79246 0.85879 0.39722 0.0
O138 O 0.82959 0.8837 0.34061 0.0
O139 O 0.76744 0.85073 0.33055 0.0
C140 C 0.74212 0.85264 0.32938 0.0
O141 O 0.72965 0.86831 0.34647 0.0
O142 O 0.76699 0.91431 0.35203 0.0
Mg143 Mg 0.11595 0.77472 0.3769 0.0
C144 C 0.1483 0.72467 0.35383 0.0
O145 O 0.1474 0.71224 0.37698 0.0
C146 C 0.15356 0.77241 0.42435 0.0
O147 O 0.16973 0.76334 0.40566 0.0
C148 C 0.06839 0.7402 0.36733 0.0
O149 O 0.08696 0.72273 0.37375 0.0
O150 O 0.07399 0.76504 0.3688 0.0
O151 O 0.13791 0.7477 0.35131 0.0
O152 O 0.12993 0.81123 0.35795 0.0
C153 C 0.14719 0.82578 0.36969 0.0
O154 O 0.14921 0.82438 0.39582 0.0
O155 O 0.12905 0.7764 0.41856 0.0
Mg156 Mg 0.25339 0.87502 0.63507 0.0
C157 C 0.20777 0.83597 0.64393 0.0
O158 O 0.20598 0.83754 0.61781 0.0
C159 C 0.27595 0.92941 0.63548 0.0
O160 O 0.29317 0.91593 0.6208 0.0
C161 C 0.23272 0.8727 0.57927 0.0
O162 O 0.21876 0.8925 0.58959 0.0
O163 O 0.25141 0.8625 0.59323 0.0
O164 O 0.22284 0.85235 0.65626 0.0
O165 O 0.28791 0.86172 0.65807 0.0
C166 C 0.2904 0.87485 0.67978 0.0
O167 O 0.27361 0.89439 0.68493 0.0
O168 O 0.25383 0.91823 0.6415 0.0
Mg169 Mg 0.13276 0.26129 0.62677 0.0
C170 C 0.13828 0.31421 0.65635 0.0
O171 O 0.11277 0.3168 0.65075 0.0
C172 C 0.15783 0.26342 0.57044 0.0
O173 O 0.16986 0.28472 0.58003 0.0
C174 C 0.07496 0.27815 0.62877 0.0
O175 O 0.08264 0.28892 0.60602 0.0
O176 O 0.09118 0.26267 0.64084 0.0
O177 O 0.15186 0.29632 0.6443 0.0
O178 O 0.15725 0.23093 0.64586 0.0
C179 C 0.18185 0.23534 0.64072 0.0
O180 O 0.188 0.25586 0.6255 0.0
O181 O 0.13961 0.25223 0.58436 0.0
Mg182 Mg 0.7672 0.13924 0.64098 0.0
C183 C 0.82341 0.16205 0.63283 0.0
O184 O 0.81946 0.15784 0.60726 0.0
C185 C 0.76178 0.08638 0.66923 0.0
O186 O 0.78061 0.09782 0.6835 0.0
C187 C 0.76955 0.14571 0.5809 0.0
O188 O 0.7794 0.12141 0.5832 0.0
O189 O 0.75969 0.15682 0.6016 0.0
O190 O 0.80873 0.14986 0.64975 0.0
O191 O 0.74598 0.16068 0.6726 0.0
C192 C 0.75879 0.1628 0.69449 0.0
O193 O 0.78304 0.15285 0.69607 0.0
O194 O 0.75408 0.09789 0.64784 0.0
Mg195 Mg 0.87634 0.74464 0.6292 0.0
C196 C 0.87087 0.69011 0.65459 0.0
O197 O 0.89662 0.68866 0.64956 0.0
C198 C 0.86392 0.74428 0.56738 0.0
O199 O 0.8606 0.71827 0.5692 0.0
C200 C 0.9349 0.73021 0.63204 0.0
O201 O 0.92916 0.7222 0.60768 0.0
O202 O 0.91713 0.743 0.64514 0.0
O203 O 0.85711 0.70814 0.64304 0.0
O204 O 0.85033 0.77337 0.64865 0.0
C205 C 0.82633 0.7702 0.64071 0.0
O206 O 0.82139 0.75139 0.62301 0.0
O207 O 0.87164 0.75748 0.58769 0.0
Mg208 Mg 0.37303 0.24593 0.13349 0.0
C209 C 0.36412 0.19193 0.15985 0.0
O210 O 0.38985 0.18899 0.15546 0.0
C211 C 0.33944 0.25644 0.08573 0.0
O212 O 0.32201 0.24754 0.10335 0.0
C213 C 0.43041 0.22545 0.1349 0.0
O214 O 0.42289 0.21517 0.11191 0.0
O215 O 0.41458 0.24149 0.14683 0.0
O216 O 0.35181 0.2112 0.14867 0.0
O217 O 0.35142 0.27571 0.15631 0.0
C218 C 0.34274 0.29738 0.14621 0.0
O219 O 0.35162 0.30511 0.12269 0.0
O220 O 0.3642 0.25613 0.09186 0.0
Mg221 Mg 0.37415 0.76503 0.88411 0.0
C222 C 0.36665 0.81706 0.85354 0.0
O223 O 0.39251 0.81969 0.85721 0.0
C224 C 0.36934 0.7324 0.93238 0.0
O225 O 0.38025 0.71653 0.91444 0.0
C226 C 0.43174 0.78298 0.88206 0.0
O227 O 0.42425 0.79315 0.90515 0.0
O228 O 0.41559 0.76756 0.86986 0.0
O229 O 0.35397 0.79923 0.86655 0.0
O230 O 0.34986 0.73397 0.86606 0.0
C231 C 0.32552 0.73798 0.87263 0.0
O232 O 0.3199 0.75836 0.8883 0.0
O233 O 0.36657 0.75707 0.92651 0.0
Mg234 Mg 0.24417 0.36317 0.87598 0.0
C235 C 0.19324 0.35845 0.84332 0.0
O236 O 0.18951 0.38313 0.85149 0.0
C237 C 0.26924 0.36173 0.92919 0.0
O238 O 0.28729 0.37331 0.91393 0.0
C239 C 0.2284 0.42111 0.87443 0.0
O240 O 0.21778 0.41361 0.89732 0.0
O241 O 0.24355 0.40469 0.86214 0.0
O242 O 0.21159 0.34447 0.8541 0.0
O243 O 0.2771 0.33848 0.86165 0.0
C244 C 0.27921 0.31661 0.8746 0.0
O245 O 0.2629 0.31206 0.89471 0.0
O246 O 0.24608 0.35753 0.9194 0.0
Mg247 Mg 0.62798 0.26257 0.88611 0.0
C248 C 0.67675 0.23785 0.86082 0.0
O249 O 0.6877 0.25999 0.86975 0.0
C250 C 0.66004 0.26191 0.93754 0.0
O251 O 0.67344 0.24377 0.924 0.0
C252 C 0.58366 0.22407 0.8785 0.0
O253 O 0.60243 0.20941 0.88964 0.0
O254 O 0.58755 0.24917 0.8763 0.0
O255 O 0.65287 0.23226 0.86758 0.0
O256 O 0.64082 0.29689 0.86278 0.0
C257 C 0.65772 0.31294 0.873 0.0
O258 O 0.66135 0.3125 0.899 0.0
O259 O 0.63831 0.27097 0.92781 0.0
Mg260 Mg 0.76487 0.63598 0.87194 0.0
C261 C 0.81712 0.63857 0.84016 0.0
O262 O 0.81962 0.61346 0.84742 0.0
C263 C 0.73512 0.64178 0.9222 0.0
O264 O 0.71757 0.63267 0.90492 0.0
C265 C 0.77745 0.5769 0.86568 0.0
O266 O 0.79152 0.58209 0.88725 0.0
O267 O 0.76188 0.59496 0.85669 0.0
O268 O 0.79939 0.65303 0.85141 0.0
O269 O 0.73469 0.66288 0.85638 0.0
C270 C 0.73962 0.68674 0.86389 0.0
O271 O 0.76063 0.69099 0.87908 0.0
O272 O 0.75959 0.64303 0.91496 0.0
Mg273 Mg 0.62432 0.74615 0.12927 0.0
C274 C 0.63931 0.77697 0.17542 0.0
O275 O 0.61743 0.76398 0.1821 0.0
C276 C 0.66317 0.73892 0.08381 0.0
O277 O 0.67938 0.74466 0.10367 0.0
C278 C 0.57845 0.78375 0.13644 0.0
O279 O 0.59753 0.79942 0.12733 0.0
O280 O 0.5828 0.75862 0.13719 0.0
O281 O 0.6482 0.77462 0.15165 0.0
O282 O 0.6365 0.71071 0.15097 0.0
C283 C 0.64877 0.69177 0.13916 0.0
O284 O 0.64581 0.68893 0.11322 0.0
O285 O 0.63798 0.74009 0.08793 0.0
Mg286 Mg 0.26163 0.63383 0.14153 0.0
C287 C 0.31757 0.65641 0.14416 0.0
O288 O 0.31899 0.64897 0.11902 0.0
C289 C 0.25844 0.57607 0.16267 0.0
O290 O 0.28031 0.58287 0.17552 0.0
C291 C 0.27366 0.63808 0.08251 0.0
O292 O 0.28038 0.61302 0.08688 0.0
O293 O 0.26239 0.6511 0.1013 0.0
O294 O 0.29938 0.6464 0.15894 0.0
O295 O 0.23418 0.65349 0.16905 0.0
C296 C 0.23862 0.64583 0.19294 0.0
O297 O 0.25813 0.62875 0.19718 0.0
O298 O 0.24904 0.59195 0.1451 0.0
Mg299 Mg 0.74923 0.37967 0.14167 0.0
C300 C 0.80182 0.37809 0.17254 0.0
O301 O 0.80135 0.40408 0.16885 0.0
C302 C 0.75677 0.35808 0.08504 0.0
O303 O 0.77788 0.34666 0.09575 0.0
C304 C 0.75922 0.4386 0.14795 0.0
O305 O 0.77269 0.43357 0.12589 0.0
O306 O 0.74481 0.42007 0.15788 0.0
O307 O 0.78536 0.36348 0.1598 0.0
O308 O 0.72002 0.35097 0.15637 0.0
C309 C 0.72744 0.32716 0.15102 0.0
O310 O 0.75049 0.32361 0.13886 0.0
O311 O 0.74391 0.37543 0.09857 0.0
H312 H 0.26778 0.5435 0.20587 0.0
H313 H 0.12896 0.46422 0.19339 0.0
H314 H 0.21056 0.55763 0.14286 0.0
H315 H 0.18113 0.45794 0.26179 0.0
H316 H 0.15881 0.49793 0.17427 0.0
H317 H 0.23736 0.51051 0.22543 0.0
C318 C 0.24898 0.53946 0.19592 0.0
C319 C 0.24179 0.55345 0.17262 0.0
C320 C 0.16364 0.48937 0.19357 0.0
C321 C 0.2066 0.51581 0.19523 0.0
C322 C 0.1465 0.47019 0.2046 0.0
C323 C 0.15247 0.45818 0.2293 0.0
C324 C 0.18715 0.49652 0.20715 0.0
C325 C 0.17559 0.46672 0.24279 0.0
C326 C 0.2315 0.52074 0.20726 0.0
C327 C 0.21702 0.54737 0.16079 0.0
N328 N 0.19217 0.48518 0.23145 0.0
N329 N 0.20034 0.5291 0.17224 0.0
H330 H 0.54895 0.11179 0.18722 0.0
H331 H 0.44843 0.23682 0.18581 0.0
H332 H 0.54613 0.16941 0.25148 0.0
H333 H 0.4642 0.1858 0.11787 0.0
H334 H 0.48226 0.21206 0.21136 0.0
H335 H 0.51486 0.1372 0.16355 0.0
C336 C 0.54093 0.12966 0.19656 0.0
C337 C 0.55055 0.13845 0.22142 0.0
C338 C 0.47842 0.20645 0.1908 0.0
C339 C 0.51145 0.16808 0.19402 0.0
C340 C 0.45921 0.22068 0.17612 0.0
C341 C 0.45337 0.21342 0.14957 0.0
C342 C 0.49175 0.18467 0.17895 0.0
C343 C 0.46792 0.1922 0.13821 0.0
C344 C 0.52153 0.1443 0.18289 0.0
C345 C 0.53925 0.16179 0.23244 0.0
N346 N 0.48622 0.17853 0.15298 0.0
N347 N 0.52038 0.17588 0.2186 0.0
H348 H 0.79964 0.47443 0.13934 0.0
H349 H 0.77105 0.56531 0.26718 0.0
H350 H 0.73519 0.45673 0.19424 0.0
H351 H 0.84861 0.55946 0.22941 0.0
H352 H 0.75507 0.52873 0.23867 0.0
H353 H 0.81465 0.50998 0.1692 0.0
C354 C 0.78838 0.47822 0.1575 0.0
C355 C 0.76608 0.46248 0.16425 0.0
C356 C 0.77565 0.53531 0.23685 0.0
C357 C 0.7834 0.50321 0.19871 0.0
C358 C 0.78483 0.55611 0.25316 0.0
C359 C 0.81126 0.56544 0.25077 0.0
C360 C 0.79286 0.52409 0.21764 0.0
C361 C 0.82816 0.55283 0.23213 0.0
C362 C 0.79716 0.49839 0.17467 0.0
C363 C 0.75247 0.46833 0.18821 0.0
N364 N 0.81859 0.53305 0.21609 0.0
N365 N 0.76132 0.48826 0.20456 0.0
H366 H 0.56394 0.8364 0.13706 0.0
H367 H 0.43708 0.81774 0.23402 0.0
H368 H 0.53887 0.75914 0.16645 0.0
H369 H 0.46693 0.8941 0.2068 0.0
H370 H 0.47415 0.79557 0.21049 0.0
H371 H 0.52778 0.85728 0.16224 0.0
C372 C 0.55069 0.82373 0.14865 0.0
C373 C 0.55455 0.7959 0.14955 0.0
C374 C 0.47269 0.81719 0.20988 0.0
C375 C 0.5129 0.81993 0.17893 0.0
C376 C 0.45164 0.82991 0.22351 0.0
C377 C 0.44879 0.8579 0.22244 0.0
C378 C 0.49103 0.83254 0.19501 0.0
C379 C 0.46818 0.87251 0.20822 0.0
C380 C 0.53004 0.83574 0.16319 0.0
C381 C 0.53662 0.78064 0.16503 0.0
N382 N 0.48828 0.85969 0.19501 0.0
N383 N 0.51663 0.79286 0.17916 0.0
H384 H 0.23914 0.43884 0.82322 0.0
H385 H 0.12101 0.54736 0.82712 0.0
H386 H 0.19194 0.45735 0.89328 0.0
H387 H 0.17573 0.54075 0.76047 0.0
H388 H 0.14517 0.51173 0.8499 0.0
H389 H 0.21576 0.47451 0.79887 0.0
C390 C 0.22417 0.45061 0.83362 0.0
C391 C 0.21753 0.445 0.8604 0.0
C392 C 0.15189 0.51793 0.83024 0.0
C393 C 0.19033 0.48549 0.83244 0.0
C394 C 0.13795 0.53822 0.81708 0.0
C395 C 0.14633 0.5472 0.7918 0.0
C396 C 0.17449 0.50633 0.81813 0.0
C397 C 0.16848 0.53446 0.7799 0.0
C398 C 0.21071 0.47086 0.81963 0.0
C399 C 0.19779 0.46084 0.8727 0.0
N400 N 0.18186 0.51474 0.79321 0.0
N401 N 0.18482 0.48015 0.85861 0.0
H402 H 0.56921 0.17153 0.88196 0.0
H403 H 0.45152 0.1813 0.77356 0.0
H404 H 0.546 0.24581 0.84448 0.0
H405 H 0.47503 0.10828 0.81328 0.0
H406 H 0.48647 0.20529 0.79812 0.0
H407 H 0.53454 0.14841 0.8568 0.0
C408 C 0.55666 0.18307 0.86859 0.0
C409 C 0.5606 0.21071 0.86537 0.0
C410 C 0.48406 0.184 0.80133 0.0
C411 C 0.52081 0.18411 0.83606 0.0
C412 C 0.46422 0.17022 0.78717 0.0
C413 C 0.46027 0.14267 0.79133 0.0
C414 C 0.5001 0.17015 0.81981 0.0
C415 C 0.47726 0.12948 0.80939 0.0
C416 C 0.53689 0.16978 0.8541 0.0
C417 C 0.54365 0.22452 0.84769 0.0
N418 N 0.49629 0.14333 0.82298 0.0
N419 N 0.52458 0.21105 0.83361 0.0
H420 H 0.75367 0.55988 0.81903 0.0
H421 H 0.86881 0.45284 0.78606 0.0
H422 H 0.81837 0.54111 0.87296 0.0
H423 H 0.79462 0.45702 0.7422 0.0
H424 H 0.85272 0.48868 0.81539 0.0
H425 H 0.76965 0.52471 0.78873 0.0
C426 C 0.77103 0.5482 0.82468 0.0
C427 C 0.78461 0.55349 0.84869 0.0
C428 C 0.84002 0.48185 0.79925 0.0
C429 C 0.80338 0.51356 0.81375 0.0
C430 C 0.84931 0.46154 0.78232 0.0
C431 C 0.83306 0.45181 0.7616 0.0
C432 C 0.81435 0.49274 0.79537 0.0
C433 C 0.80785 0.4638 0.75792 0.0
C434 C 0.78023 0.5282 0.80729 0.0
C435 C 0.80713 0.53774 0.85479 0.0
N436 N 0.79927 0.48357 0.77463 0.0
N437 N 0.81589 0.51869 0.83739 0.0
H438 H 0.5455 0.84167 0.76257 0.0
H439 H 0.46948 0.81698 0.90215 0.0
H440 H 0.55924 0.887 0.83473 0.0
H441 H 0.44755 0.77579 0.82956 0.0
H442 H 0.50439 0.84061 0.87761 0.0
H443 H 0.51043 0.81629 0.78611 0.0
C444 C 0.54095 0.84654 0.7832 0.0
C445 C 0.5554 0.86655 0.79665 0.0
C446 C 0.49207 0.82631 0.86699 0.0
C447 C 0.51568 0.83727 0.82381 0.0
C448 C 0.47218 0.81264 0.88108 0.0
C449 C 0.45543 0.79435 0.86796 0.0
C450 C 0.49542 0.82181 0.83942 0.0
C451 C 0.46001 0.78965 0.84056 0.0
C452 C 0.52106 0.83191 0.79668 0.0
C453 C 0.54875 0.87177 0.82348 0.0
N454 N 0.47946 0.80339 0.82717 0.0
N455 N 0.52957 0.8572 0.83611 0.0
H456 H 0.14492 0.21371 0.55057 0.0
H457 H 0.25653 0.21735 0.43509 0.0
H458 H 0.19693 0.28116 0.53615 0.0
H459 H 0.21229 0.14608 0.45563 0.0
H460 H 0.23407 0.24119 0.47135 0.0
H461 H 0.16751 0.18934 0.51449 0.0
C462 C 0.16085 0.22356 0.53963 0.0
C463 C 0.16898 0.24961 0.54648 0.0
C464 C 0.22937 0.22029 0.46811 0.0
C465 C 0.1952 0.22158 0.50526 0.0
C466 C 0.2423 0.20658 0.44743 0.0
C467 C 0.23639 0.17959 0.44227 0.0
C468 C 0.2101 0.20708 0.48377 0.0
C469 C 0.21766 0.1668 0.45896 0.0
C470 C 0.17389 0.20951 0.51915 0.0
C471 C 0.18992 0.26117 0.53165 0.0
N472 N 0.20505 0.1807 0.47882 0.0
N473 N 0.20229 0.24709 0.51184 0.0
H474 H 0.80329 0.13258 0.53977 0.0
H475 H 0.79536 0.27213 0.46299 0.0
H476 H 0.75371 0.19722 0.56882 0.0
H477 H 0.86369 0.21936 0.45881 0.0
H478 H 0.77634 0.24384 0.49841 0.0
H479 H 0.82103 0.16226 0.50527 0.0
C480 C 0.79577 0.15289 0.53868 0.0
C481 C 0.77696 0.16237 0.55735 0.0
C482 C 0.79561 0.23866 0.48988 0.0
C483 C 0.7975 0.19662 0.51782 0.0
C484 C 0.80654 0.25483 0.46974 0.0
C485 C 0.83121 0.24818 0.45788 0.0
C486 C 0.80918 0.21537 0.49784 0.0
C487 C 0.84472 0.22542 0.4674 0.0
C488 C 0.80616 0.16992 0.5191 0.0
C489 C 0.76818 0.18902 0.55489 0.0
N490 N 0.83339 0.2097 0.48654 0.0
N491 N 0.77852 0.20522 0.5355 0.0
H492 H 0.78938 0.85347 0.45391 0.0
H493 H 0.86394 0.72651 0.51535 0.0
H494 H 0.8515 0.81191 0.41058 0.0
H495 H 0.84459 0.79524 0.56393 0.0
H496 H 0.84996 0.75172 0.47541 0.0
H497 H 0.79976 0.82604 0.49367 0.0
C498 C 0.80493 0.8384 0.45271 0.0
C499 C 0.81977 0.83505 0.4291 0.0
C500 C 0.84876 0.76116 0.49488 0.0
C501 C 0.83128 0.80347 0.47392 0.0
C502 C 0.85671 0.74683 0.5176 0.0
C503 C 0.85575 0.75892 0.54291 0.0
C504 C 0.83904 0.78743 0.49763 0.0
C505 C 0.84604 0.7853 0.54474 0.0
C506 C 0.81092 0.8229 0.47532 0.0
C507 C 0.8398 0.8153 0.42852 0.0
N508 N 0.83789 0.79861 0.52245 0.0
N509 N 0.84487 0.80015 0.45053 0.0
H510 H 0.20418 0.76573 0.44456 0.0
H511 H 0.18772 0.88414 0.5505 0.0
H512 H 0.12933 0.80598 0.46045 0.0
H513 H 0.25432 0.82908 0.55308 0.0
H514 H 0.16828 0.85815 0.51418 0.0
H515 H 0.22448 0.79003 0.48197 0.0
C516 C 0.19191 0.7794 0.4561 0.0
C517 C 0.16497 0.7838 0.44929 0.0
C518 C 0.18719 0.85176 0.52262 0.0
C519 C 0.18829 0.81211 0.49173 0.0
C520 C 0.19847 0.86675 0.54326 0.0
C521 C 0.22274 0.85882 0.55497 0.0
C522 C 0.20031 0.82871 0.5133 0.0
C523 C 0.23559 0.83598 0.54466 0.0
C524 C 0.20355 0.79332 0.47739 0.0
C525 C 0.1501 0.80183 0.46496 0.0
N526 N 0.22423 0.82172 0.52441 0.0
N527 N 0.16202 0.81549 0.48522 0.0
H528 H 0.7002 0.96727 0.77893 0.0
H529 H 0.71645 0.06155 0.64975 0.0
H530 H 0.64535 0.96557 0.71237 0.0
H531 H 0.77263 0.05879 0.71516 0.0
H532 H 0.68979 0.02682 0.67205 0.0
H533 H 0.72579 1.00219 0.75629 0.0
C534 C 0.69331 0.97443 0.75968 0.0
C535 C 0.67053 0.96335 0.74759 0.0
C536 C 0.70803 0.03374 0.68143 0.0
C537 C 0.70013 1.0033 0.72122 0.0
C538 C 0.72337 0.05347 0.66862 0.0
C539 C 0.74688 0.06319 0.68055 0.0
C540 C 0.71619 0.02369 0.70641 0.0
C541 C 0.75469 0.05201 0.70514 0.0
C542 C 0.70808 0.99431 0.74665 0.0
C543 C 0.66273 0.97349 0.72253 0.0
N544 N 0.73937 0.03303 0.71724 0.0
N545 N 0.67755 0.99278 0.71014 0.0
H546 H 0.94916 0.7346 0.68521 0.0
H547 H 0.06756 0.62733 0.67046 0.0
H548 H 0.97496 0.6998 0.61044 0.0
H549 H 0.05216 0.66907 0.74452 0.0
H550 H 0.03181 0.65256 0.64931 0.0
H551 H 0.98563 0.71087 0.70802 0.0
C552 C 0.96267 0.7223 0.67351 0.0
C553 C 0.95889 0.71921 0.6458 0.0
C554 C 0.03611 0.65626 0.67021 0.0
C555 C 1.00037 0.69163 0.6719 0.0
C556 C 0.05652 0.64169 0.68241 0.0
C557 C 0.06302 0.64605 0.70938 0.0
C558 C 0.0218 0.67546 0.68496 0.0
C559 C 0.04784 0.66498 0.72371 0.0
C560 C 0.9834 0.70863 0.68659 0.0
C561 C 0.97696 0.70282 0.63178 0.0
N562 N 0.02796 0.67904 0.71131 0.0
N563 N 0.9967 0.68959 0.64497 0.0
H564 H 0.37875 0.04807 0.70856 0.0
H565 H 0.25213 0.95411 0.67864 0.0
H566 H 0.31212 0.03874 0.76294 0.0
H567 H 0.32228 0.95764 0.62817 0.0
H568 H 0.27242 0.98736 0.70824 0.0
H569 H 0.35785 0.01591 0.67828 0.0
C570 C 0.35989 0.03903 0.71432 0.0
C571 C 0.34722 0.04618 0.73841 0.0
C572 C 0.28328 0.98101 0.69058 0.0
C573 C 0.32287 0.00961 0.70348 0.0
C574 C 0.27157 0.96221 0.67348 0.0
C575 C 0.28551 0.95297 0.65085 0.0
C576 C 0.3091 0.99075 0.68499 0.0
C577 C 0.31078 0.96409 0.6454 0.0
C578 C 0.34786 0.02077 0.69691 0.0
C579 C 0.32271 0.03384 0.74466 0.0
N580 N 0.32179 0.98224 0.66238 0.0
N581 N 0.31128 0.01631 0.72726 0.0
H582 H 0.04299 0.31964 0.61317 0.0
H583 H 0.94589 0.32092 0.73984 0.0
H584 H 0.0533 0.26276 0.67736 0.0
H585 H 0.96357 0.39066 0.69198 0.0
H586 H 0.98116 0.29632 0.71572 0.0
H587 H 0.00836 0.34208 0.63924 0.0
C588 C 0.03776 0.31159 0.63261 0.0
C589 C 0.05125 0.28926 0.64306 0.0
C590 C 0.97741 0.31709 0.71076 0.0
C591 C 0.01147 0.31518 0.67323 0.0
C592 C 0.95738 0.33119 0.72458 0.0
C593 C 0.95166 0.35796 0.71797 0.0
C594 C 0.99143 0.3297 0.68988 0.0
C595 C 0.96716 0.37013 0.69787 0.0
C596 C 0.0181 0.32462 0.64761 0.0
C597 C 0.04348 0.27991 0.66849 0.0
N598 N 0.98602 0.35585 0.68439 0.0
N599 N 0.02409 0.29292 0.68274 0.0
H600 H 0.72784 0.95062 0.35401 0.0
H601 H 0.69406 0.03987 0.22469 0.0
H602 H 0.76759 0.94319 0.2776 0.0
H603 H 0.64911 0.04538 0.29834 0.0
H604 H 0.72057 1.00377 0.24408 0.0
H605 H 0.69882 0.98546 0.33476 0.0
C606 C 0.7306 0.9564 0.3333 0.0
C607 C 0.75025 0.94394 0.31745 0.0
C608 C 0.7048 0.01271 0.25601 0.0
C609 C 0.71703 0.98355 0.29526 0.0
C610 C 0.68954 0.03331 0.24486 0.0
C611 C 0.66929 0.04578 0.25985 0.0
C612 C 0.7 1.00449 0.2825 0.0
C613 C 0.66445 0.03634 0.28596 0.0
C614 C 0.71394 0.97617 0.32228 0.0
C615 C 0.75276 0.95214 0.29066 0.0
N616 N 0.67981 0.01642 0.29652 0.0
N617 N 0.73643 0.97132 0.28049 0.0
H618 H 0.91397 0.72719 0.28881 0.0
H619 H 0.05234 0.6885 0.35956 0.0
H620 H 0.94369 0.64626 0.29464 0.0
H621 H 0.0263 0.77004 0.34767 0.0
H622 H 0.01208 0.67277 0.33704 0.0
H623 H 0.95463 0.74324 0.31052 0.0
C624 C 0.92915 0.71277 0.29444 0.0
C625 C 0.92533 0.68527 0.28986 0.0
C626 C 0.01509 0.6941 0.33938 0.0
C627 C 0.97198 0.70362 0.31512 0.0
C628 C 0.03807 0.70316 0.35239 0.0
C629 C 0.0428 0.7307 0.35557 0.0
C630 C 0.99651 0.71267 0.32943 0.0
C631 C 0.02352 0.74864 0.34575 0.0
C632 C 0.95236 0.72199 0.30693 0.0
C633 C 0.94575 0.66761 0.29768 0.0
N634 N 1.00126 0.73931 0.3331 0.0
N635 N 0.9681 0.67707 0.31004 0.0
H636 H 0.36282 0.95174 0.28808 0.0
H637 H 0.24137 0.05137 0.32254 0.0
H638 H 0.28862 0.95327 0.24406 0.0
H639 H 0.30945 0.03953 0.37422 0.0
H640 H 0.25919 0.01713 0.29232 0.0
H641 H 0.34514 0.98662 0.31773 0.0
C642 C 0.34298 0.95966 0.28437 0.0
C643 C 0.32721 0.94948 0.26349 0.0
C644 C 0.27014 0.0219 0.31036 0.0
C645 C 0.30667 0.98923 0.29767 0.0
C646 C 0.25989 0.04137 0.32773 0.0
C647 C 0.27384 0.04838 0.35108 0.0
C648 C 0.2947 0.00943 0.31616 0.0
C649 C 0.29788 0.03478 0.35657 0.0
C650 C 0.33279 0.97942 0.30148 0.0
C651 C 0.30152 0.96043 0.25988 0.0
N652 N 0.3076 0.01614 0.3392 0.0
N653 N 0.29207 0.97961 0.27679 0.0
H654 H 0.05364 0.33294 0.26896 0.0
H655 H 0.95881 0.32665 0.39821 0.0
H656 H 0.04598 0.39674 0.3267 0.0
H657 H 0.95061 0.27149 0.33229 0.0
H658 H 0.99394 0.34998 0.37364 0.0
H659 H 0.01802 0.30843 0.29238 0.0
C660 C 0.04429 0.34197 0.28633 0.0
C661 C 0.05291 0.367 0.29583 0.0
C662 C 0.98456 0.33272 0.36454 0.0
C663 C 0.01252 0.33877 0.32303 0.0
C664 C 0.96457 0.31921 0.37868 0.0
C665 C 0.9516 0.29702 0.36735 0.0
C666 C 0.99191 0.32401 0.33882 0.0
C667 C 0.96002 0.28847 0.34186 0.0
C668 C 0.02404 0.32789 0.29976 0.0
C669 C 0.04009 0.37757 0.31855 0.0
N670 N 0.9796 0.30199 0.32844 0.0
N671 N 0.02077 0.36335 0.33143 0.0
H672 H 0.68406 0.64229 0.94167 0.0
H673 H 0.71579 0.73464 0.06863 0.0
H674 H 0.76359 0.67046 0.96001 0.0
H675 H 0.63595 0.71472 0.04258 0.0
H676 H 0.73402 0.71044 0.03012 0.0
H677 H 0.66678 0.66676 0.98013 0.0
C678 C 0.69801 0.65344 0.95392 0.0
C679 C 0.72541 0.65426 0.94747 0.0
C680 C 0.71252 0.7115 0.03273 0.0
C681 C 0.70548 0.68275 0.99176 0.0
C682 C 0.70204 0.72541 0.05469 0.0
C683 C 0.67422 0.7268 0.05892 0.0
C684 C 0.69511 0.69864 0.01486 0.0
C685 C 0.65749 0.71433 0.04015 0.0
C686 C 0.68803 0.66757 0.97587 0.0
C687 C 0.74236 0.66913 0.96422 0.0
N688 N 0.66819 0.70068 0.01909 0.0
N689 N 0.73212 0.68283 0.98554 0.0
H690 H 0.30037 0.61649 0.03991 0.0
H691 H 0.33672 0.75658 0.97019 0.0
H692 H 0.273 0.69221 0.07134 0.0
H693 H 0.37183 0.68051 0.94891 0.0
H694 H 0.31171 0.73419 0.00626 0.0
H695 H 0.32384 0.64019 1.00434 0.0
C696 C 0.29901 0.63812 0.03919 0.0
C697 C 0.28467 0.65231 0.05877 0.0
C698 C 0.32503 0.7225 0.99375 0.0
C699 C 0.31199 0.67982 0.018 0.0
C700 C 0.33944 0.73529 0.97327 0.0
C701 C 0.35644 0.72044 0.95642 0.0
C702 C 0.32752 0.69466 0.99726 0.0
C703 C 0.35898 0.69285 0.96126 0.0
C704 C 0.31261 0.6517 0.01891 0.0
C705 C 0.28373 0.68039 0.05667 0.0
N706 N 0.34462 0.68092 0.98104 0.0
N707 N 0.29731 0.69324 0.03674 0.0
H708 H 0.24011 0.32876 0.96261 0.0
H709 H 0.3683 0.28665 0.04975 0.0
H710 H 0.31858 0.36354 0.95264 0.0
H711 H 0.28818 0.25906 0.06671 0.0
H712 H 0.35065 0.31335 0.01267 0.0
H713 H 0.2572 0.3025 1.00033 0.0
C714 C 0.26081 0.33118 0.96855 0.0
C715 C 0.27789 0.34844 0.95436 0.0
C716 C 0.33694 0.30138 0.02445 0.0
C717 C 0.29775 0.31801 0.99724 0.0
C718 C 0.34705 0.28595 0.04552 0.0
C719 C 0.32973 0.27053 0.06141 0.0
C720 C 0.30929 0.30136 0.01912 0.0
C721 C 0.30232 0.27063 0.05504 0.0
C722 C 0.27061 0.31603 0.98999 0.0
C723 C 0.30461 0.35053 0.9629 0.0
N724 N 0.29297 0.2858 0.03447 0.0
N725 N 0.31371 0.33541 0.9836 0.0
H726 H 0.77564 0.3169 0.05401 0.0
H727 H 0.64184 0.30524 0.96632 0.0
H728 H 0.70909 0.37164 0.06121 0.0
H729 H 0.70793 0.24974 0.96113 0.0
H730 H 0.66606 0.33005 1.00086 0.0
H731 H 0.75176 0.29326 0.01861 0.0
C732 C 0.75617 0.32421 0.04792 0.0
C733 C 0.74438 0.3463 0.06074 0.0
C734 C 0.6752 0.31237 0.99225 0.0
C735 C 0.71664 0.31895 0.02036 0.0
C736 C 0.66128 0.29806 0.97264 0.0
C737 C 0.67281 0.2753 0.96077 0.0
C738 C 0.70088 0.30392 1.00004 0.0
C739 C 0.69819 0.26712 0.96969 0.0
C740 C 0.74243 0.31055 0.02779 0.0
C741 C 0.71901 0.35473 0.05195 0.0
N742 N 0.71136 0.28145 0.98866 0.0
N743 N 0.70595 0.34096 0.03246 0.0
H744 H 0.11972 0.31915 0.35603 0.0
H745 H 0.20656 0.18991 0.32039 0.0
H746 H 0.18477 0.31887 0.29896 0.0
H747 H 0.16024 0.19569 0.39326 0.0
H748 H 0.19418 0.23581 0.30951 0.0
H749 H 0.13144 0.27324 0.36866 0.0
C750 C 0.13672 0.30963 0.34646 0.0
C751 C 0.15121 0.32289 0.32631 0.0
C752 C 0.18661 0.227 0.32783 0.0
C753 C 0.16422 0.27021 0.34019 0.0
C754 C 0.19343 0.20064 0.33394 0.0
C755 C 0.18453 0.18889 0.35787 0.0
C756 C 0.17058 0.24174 0.34563 0.0
C757 C 0.16759 0.20393 0.37461 0.0
C758 C 0.14328 0.28338 0.35358 0.0
C759 C 0.17301 0.30951 0.31458 0.0
N760 N 0.16123 0.22963 0.36822 0.0
N761 N 0.17863 0.28383 0.32147 0.0
H762 H 0.83082 0.20443 0.32075 0.0
H763 H 0.6789 0.15531 0.3341 0.0
H764 H 0.79315 0.1894 0.39713 0.0
H765 H 0.72508 0.15146 0.26107 0.0
H766 H 0.71925 0.17081 0.35773 0.0
H767 H 0.79112 0.18687 0.29846 0.0
C768 C 0.81435 0.19711 0.33284 0.0
C769 C 0.81534 0.19839 0.36083 0.0
C770 C 0.72043 0.16651 0.33653 0.0
C771 C 0.76953 0.17876 0.33546 0.0
C772 C 0.69741 0.15788 0.32305 0.0
C773 C 0.69867 0.15201 0.29564 0.0
C774 C 0.74462 0.16953 0.32232 0.0
C775 C 0.72318 0.15555 0.28226 0.0
C776 C 0.79161 0.18719 0.32012 0.0
C777 C 0.79331 0.1887 0.37548 0.0
N778 N 0.74508 0.16409 0.29569 0.0
N779 N 0.77119 0.17953 0.36262 0.0
H780 H 0.77831 0.71357 0.2892 0.0
H781 H 0.86829 0.82506 0.36044 0.0
H782 H 0.84709 0.69527 0.33811 0.0
H783 H 0.80839 0.84226 0.30119 0.0
H784 H 0.85616 0.7775 0.35847 0.0
H785 H 0.78316 0.76076 0.30086 0.0
C786 C 0.79407 0.71933 0.30288 0.0
C787 C 0.8126 0.7004 0.31231 0.0
C788 C 0.84531 0.7917 0.34621 0.0
C789 C 0.8185 0.75455 0.32536 0.0
C790 C 0.85224 0.81875 0.34734 0.0
C791 C 0.83843 0.83748 0.33174 0.0
C792 C 0.82482 0.78335 0.32889 0.0
C793 C 0.81847 0.82842 0.31444 0.0
C794 C 0.79696 0.74636 0.30934 0.0
C795 C 0.8325 0.70914 0.33011 0.0
N796 N 0.81219 0.80197 0.31348 0.0
N797 N 0.83516 0.73562 0.33574 0.0
H798 H 0.26357 0.83572 0.24417 0.0
H799 H 0.1947 0.84616 0.38823 0.0
H800 H 0.30745 0.85783 0.31509 0.0
H801 H 0.15253 0.82778 0.3152 0.0
H802 H 0.23562 0.85313 0.36218 0.0
H803 H 0.22277 0.83336 0.27052 0.0
C804 C 0.26468 0.83989 0.26541 0.0
C805 C 0.28901 0.84701 0.27743 0.0
C806 C 0.21733 0.84789 0.35186 0.0
C807 C 0.24197 0.84463 0.30786 0.0
C808 C 0.19385 0.84414 0.36668 0.0
C809 C 0.17011 0.83611 0.35392 0.0
C810 C 0.21706 0.84356 0.32412 0.0
C811 C 0.17033 0.83376 0.32595 0.0
C812 C 0.24126 0.83868 0.28045 0.0
C813 C 0.28915 0.8521 0.30506 0.0
N814 N 0.19347 0.83719 0.31207 0.0
N815 N 0.26591 0.85089 0.31937 0.0
H816 H 0.15133 0.67538 0.67883 0.0
H817 H 0.22158 0.81808 0.69385 0.0
H818 H 0.21697 0.69132 0.7326 0.0
H819 H 0.17506 0.79663 0.62438 0.0
H820 H 0.21461 0.77317 0.71172 0.0
H821 H 0.15621 0.7206 0.66048 0.0
C822 C 0.16704 0.68819 0.68648 0.0
C823 C 0.18373 0.67952 0.70734 0.0
C824 C 0.20576 0.77836 0.69265 0.0
C825 C 0.18888 0.73142 0.68695 0.0
C826 C 0.20945 0.80413 0.68257 0.0
C827 C 0.19904 0.81111 0.65745 0.0
C828 C 0.19138 0.75947 0.67766 0.0
C829 C 0.18358 0.79207 0.64374 0.0
C830 C 0.16967 0.71405 0.67613 0.0
C831 C 0.20365 0.69706 0.71654 0.0
N832 N 0.18032 0.76705 0.65396 0.0
N833 N 0.20547 0.72224 0.70649 0.0
H834 H 0.3369 0.1805 0.69416 0.0
H835 H 0.17805 0.19189 0.67444 0.0
H836 H 0.27975 0.12639 0.73 0.0
H837 H 0.2354 0.24156 0.63292 0.0
H838 H 0.21522 0.1668 0.69423 0.0
H839 H 0.30005 0.20247 0.67039 0.0
C840 C 0.31668 0.17314 0.69688 0.0
C841 C 0.31139 0.15172 0.71421 0.0
C842 C 0.21963 0.18313 0.68068 0.0
C843 C 0.26921 0.17674 0.68732 0.0
C844 C 0.1984 0.19743 0.66941 0.0
C845 C 0.20361 0.21891 0.65214 0.0
C846 C 0.24618 0.19047 0.67468 0.0
C847 C 0.2304 0.22522 0.64625 0.0
C848 C 0.29565 0.18568 0.68336 0.0
C849 C 0.28479 0.14297 0.71699 0.0
N850 N 0.25065 0.21117 0.65759 0.0
N851 N 0.26472 0.15559 0.70383 0.0
H852 H 0.82263 0.18577 0.68228 0.0
H853 H 0.89642 0.32066 0.64445 0.0
H854 H 0.85327 0.19669 0.60213 0.0
H855 H 0.82733 0.31701 0.69646 0.0
H856 H 0.88834 0.27382 0.63159 0.0
H857 H 0.8342 0.232 0.69243 0.0
C858 C 0.83224 0.19764 0.66692 0.0
C859 C 0.8365 0.18735 0.64112 0.0
C860 C 0.87488 0.28353 0.64558 0.0
C861 C 0.8498 0.24043 0.65276 0.0
C862 C 0.87932 0.31023 0.6528 0.0
C863 C 0.86256 0.32283 0.67162 0.0
C864 C 0.85399 0.26927 0.65781 0.0
C865 C 0.84079 0.30827 0.68189 0.0
C866 C 0.83861 0.22414 0.6727 0.0
C867 C 0.84936 0.20384 0.62221 0.0
N868 N 0.83742 0.28218 0.67518 0.0
N869 N 0.85545 0.22968 0.62835 0.0
H870 H 0.8287 0.81367 0.67426 0.0
H871 H 0.66957 0.82819 0.68802 0.0
H872 H 0.773 0.76411 0.63074 0.0
H873 H 0.72637 0.88464 0.72028 0.0
H874 H 0.70677 0.80455 0.66602 0.0
H875 H 0.79099 0.83988 0.69138 0.0
C876 C 0.80857 0.80833 0.66829 0.0
C877 C 0.80401 0.78666 0.65112 0.0
C878 C 0.71097 0.82227 0.67776 0.0
C879 C 0.76073 0.81647 0.67062 0.0
C880 C 0.68975 0.83579 0.69019 0.0
C881 C 0.6949 0.85824 0.70619 0.0
C882 C 0.7374 0.83129 0.68151 0.0
C883 C 0.72145 0.86722 0.7084 0.0
C884 C 0.78703 0.82332 0.67798 0.0
C885 C 0.77747 0.78067 0.64396 0.0
N886 N 0.74166 0.85363 0.69641 0.0
N887 N 0.75684 0.7954 0.65384 0.0
H888 H 0.34083 0.11288 0.31257 0.0
H889 H 0.31535 0.20247 0.18274 0.0
H890 H 0.2851 0.17896 0.30952 0.0
H891 H 0.3857 0.153 0.19189 0.0
H892 H 0.30043 0.18871 0.22712 0.0
H893 H 0.35556 0.12389 0.26713 0.0
C894 C 0.33197 0.12993 0.30254 0.0
C895 C 0.31164 0.14497 0.3149 0.0
C896 C 0.31904 0.1807 0.21933 0.0
C897 C 0.32791 0.15719 0.26273 0.0
C898 C 0.32743 0.1883 0.19383 0.0
C899 C 0.35199 0.1791 0.18364 0.0
C900 C 0.33517 0.16363 0.23472 0.0
C901 C 0.36673 0.16074 0.19901 0.0
C902 C 0.34026 0.13607 0.27654 0.0
C903 C 0.30083 0.16678 0.30087 0.0
N904 N 0.35819 0.15376 0.2239 0.0
N905 N 0.30891 0.17206 0.27546 0.0
H906 H 0.88072 0.35915 0.32601 0.0
H907 H 0.79611 0.32815 0.19443 0.0
H908 H 0.81932 0.29851 0.32142 0.0
H909 H 0.83666 0.40353 0.20636 0.0
H910 H 0.81028 0.31401 0.23889 0.0
H911 H 0.86862 0.37407 0.28094 0.0
C912 C 0.86443 0.34924 0.31574 0.0
C913 C 0.85107 0.32749 0.32754 0.0
C914 C 0.81623 0.33358 0.2317 0.0
C915 C 0.83769 0.34399 0.27578 0.0
C916 C 0.80842 0.34157 0.20616 0.0
C917 C 0.81501 0.36719 0.19668 0.0
C918 C 0.83094 0.3512 0.24785 0.0
C919 C 0.83099 0.38366 0.2129 0.0
C920 C 0.85768 0.35766 0.28996 0.0
C921 C 0.83019 0.31537 0.31321 0.0
N922 N 0.83829 0.37545 0.23778 0.0
N923 N 0.82436 0.32359 0.288 0.0
H924 H 0.6194 0.79714 0.22172 0.0
H925 H 0.76253 0.82616 0.28573 0.0
H926 H 0.69302 0.78888 0.17714 0.0
H927 H 0.68803 0.85197 0.32137 0.0
H928 H 0.73774 0.80973 0.24694 0.0
H929 H 0.64448 0.81571 0.25911 0.0
C930 C 0.64087 0.7995 0.21973 0.0
C931 C 0.65419 0.79143 0.19634 0.0
C932 C 0.72686 0.819 0.26326 0.0
C933 C 0.68313 0.81229 0.23929 0.0
C934 C 0.74096 0.82821 0.28552 0.0
C935 C 0.72734 0.84048 0.30687 0.0
C936 C 0.69892 0.82189 0.26245 0.0
C937 C 0.69938 0.84265 0.30541 0.0
C938 C 0.65519 0.81007 0.2411 0.0
C939 C 0.682 0.795 0.19478 0.0
N940 N 0.68611 0.83343 0.2836 0.0
N941 N 0.69564 0.80493 0.21614 0.0
H942 H 0.2384 0.62606 0.24361 0.0
H943 H 0.14901 0.74424 0.30293 0.0
H944 H 0.20358 0.68838 0.19498 0.0
H945 H 0.17507 0.67652 0.3499 0.0
H946 H 0.16893 0.72406 0.26341 0.0
H947 H 0.2152 0.64398 0.28256 0.0
C948 C 0.22578 0.64352 0.24108 0.0
C949 C 0.22307 0.65589 0.216 0.0
C950 C 0.17024 0.71352 0.2823 0.0
C951 C 0.19647 0.67658 0.26072 0.0
C952 C 0.15893 0.72507 0.305 0.0
C953 C 0.16044 0.71209 0.32991 0.0
C954 C 0.18336 0.68882 0.28439 0.0
C955 C 0.17348 0.68726 0.33116 0.0
C956 C 0.21249 0.65369 0.26339 0.0
C957 C 0.20626 0.67826 0.21393 0.0
N958 N 0.18455 0.67646 0.30871 0.0
N959 N 0.19373 0.68802 0.23608 0.0
H960 H 0.32291 0.79848 0.82668 0.0
H961 H 0.32043 0.90613 0.71212 0.0
H962 H 0.38362 0.85992 0.82376 0.0
H963 H 0.29835 0.82398 0.69786 0.0
H964 H 0.34041 0.89285 0.75491 0.0
H965 H 0.30814 0.81175 0.78207 0.0
C966 C 0.33282 0.81512 0.81691 0.0
C967 C 0.35454 0.82818 0.829 0.0
C968 C 0.33167 0.87768 0.74215 0.0
C969 C 0.33784 0.84317 0.77786 0.0
C970 C 0.32048 0.88517 0.71775 0.0
C971 C 0.30806 0.866 0.70147 0.0
C972 C 0.32957 0.85102 0.75063 0.0
C973 C 0.30814 0.83921 0.70972 0.0
C974 C 0.32462 0.82237 0.79129 0.0
C975 C 0.36678 0.84937 0.81517 0.0
N976 N 0.31828 0.83255 0.73405 0.0
N977 N 0.35818 0.85632 0.79031 0.0
H978 H 0.20701 0.31463 0.81327 0.0
H979 H 0.11516 0.35233 0.68841 0.0
H980 H 0.15497 0.38372 0.81322 0.0
H981 H 0.18373 0.29984 0.68343 0.0
H982 H 0.12713 0.36276 0.73471 0.0
H983 H 0.19471 0.30591 0.76688 0.0
C984 C 0.19263 0.32773 0.80369 0.0
C985 C 0.18209 0.35003 0.8172 0.0
C986 C 0.1397 0.34921 0.72335 0.0
C987 C 0.16825 0.34033 0.76383 0.0
C988 C 0.133 0.34338 0.69685 0.0
C989 C 0.14839 0.3251 0.68198 0.0
C990 C 0.16173 0.33639 0.73516 0.0
C991 C 0.17125 0.31406 0.69404 0.0
C992 C 0.18587 0.3229 0.77706 0.0
C993 C 0.16365 0.36633 0.8036 0.0
N994 N 0.17701 0.31962 0.72 0.0
N995 N 0.15737 0.36121 0.77763 0.0
H996 H 0.78487 0.18359 0.73719 0.0
H997 H 0.65387 0.20159 0.82672 0.0
H998 H 0.70544 0.1686 0.70695 0.0
H999 H 0.72856 0.24157 0.84363 0.0
H1000 H 0.67368 0.18325 0.78582 0.0
H1001 H 0.76541 0.19991 0.7789 0.0
C1002 C 0.76328 0.18386 0.73931 0.0
C1003 C 0.7467 0.17476 0.71861 0.0
C1004 C 0.68573 0.1959 0.79861 0.0
C1005 C 0.72434 0.19305 0.76647 0.0
C1006 C 0.67457 0.20615 0.82209 0.0
C1007 C 0.68961 0.22319 0.8386 0.0
C1008 C 0.71218 0.20247 0.79178 0.0
C1009 C 0.71625 0.22856 0.83147 0.0
C1010 C 0.75221 0.19317 0.76312 0.0
C1011 C 0.71888 0.17562 0.72238 0.0
N1012 N 0.72667 0.21826 0.80857 0.0
N1013 N 0.70853 0.18442 0.74601 0.0
H1014 H 0.82376 0.70127 0.68056 0.0
H1015 H 0.85589 0.61371 0.81012 0.0
H1016 H 0.89487 0.65241 0.68644 0.0
H1017 H 0.80341 0.68245 0.81033 0.0
H1018 H 0.86806 0.62381 0.76368 0.0
H1019 H 0.812 0.6889 0.72631 0.0
C1020 C 0.83665 0.6875 0.69123 0.0
C1021 C 0.86049 0.67803 0.67964 0.0
C1022 C 0.85408 0.63678 0.77403 0.0
C1023 C 0.84727 0.66414 0.73228 0.0
C1024 C 0.84725 0.63116 0.80059 0.0
C1025 C 0.82857 0.64723 0.8142 0.0
C1026 C 0.84183 0.65837 0.76089 0.0
C1027 C 0.81794 0.66951 0.80074 0.0
C1028 C 0.83007 0.68072 0.71751 0.0
C1029 C 0.87638 0.66029 0.6946 0.0
N1030 N 0.82449 0.67423 0.77477 0.0
N1031 N 0.86957 0.65403 0.72022 0.0
H1032 H 0.21533 0.40307 0.19739 0.0
H1033 H 0.3091 0.27667 0.18405 0.0
H1034 H 0.18761 0.32321 0.21482 0.0
H1035 H 0.32076 0.34629 0.13415 0.0
H1036 H 0.26655 0.29525 0.19931 0.0
H1037 H 0.25531 0.38416 0.17614 0.0
C1038 C 0.21745 0.38151 0.19621 0.0
C1039 C 0.19823 0.36461 0.20779 0.0
C1040 C 0.27843 0.30644 0.18502 0.0
C1041 C 0.24416 0.34298 0.18442 0.0
C1042 C 0.30291 0.29605 0.17654 0.0
C1043 C 0.31862 0.31004 0.15786 0.0
C1044 C 0.26974 0.33123 0.17514 0.0
C1045 C 0.30933 0.3349 0.14862 0.0
C1046 C 0.24026 0.37077 0.18419 0.0
C1047 C 0.20189 0.33687 0.20591 0.0
N1048 N 0.28553 0.3448 0.15749 0.0
N1049 N 0.22473 0.32689 0.19487 0.0
H1050 H 0.32856 0.68907 0.8474 0.0
H1051 H 0.17217 0.68212 0.8166 0.0
H1052 H 0.27216 0.74824 0.87568 0.0
H1053 H 0.22435 0.61332 0.8115 0.0
H1054 H 0.20875 0.70748 0.83702 0.0
H1055 H 0.29089 0.66176 0.83173 0.0
C1056 C 0.30831 0.69629 0.85029 0.0
C1057 C 0.30349 0.72093 0.86282 0.0
C1058 C 0.21205 0.68673 0.83167 0.0
C1059 C 0.26046 0.69 0.84499 0.0
C1060 C 0.19115 0.67224 0.82012 0.0
C1061 C 0.19522 0.64562 0.81218 0.0
C1062 C 0.23724 0.67459 0.83498 0.0
C1063 C 0.22029 0.63384 0.81716 0.0
C1064 C 0.28683 0.68068 0.8415 0.0
C1065 C 0.27683 0.72933 0.86617 0.0
N1066 N 0.24043 0.64849 0.82794 0.0
N1067 N 0.25635 0.71399 0.85717 0.0
H1068 H 0.29187 0.30246 0.82329 0.0
H1069 H 0.37983 0.17538 0.85985 0.0
H1070 H 0.30516 0.28048 0.90564 0.0
H1071 H 0.32539 0.17634 0.79289 0.0
H1072 H 0.36034 0.21787 0.87537 0.0
H1073 H 0.31386 0.2607 0.80924 0.0
C1074 C 0.30002 0.28916 0.83833 0.0
C1075 C 0.29677 0.29475 0.8656 0.0
C1076 C 0.3526 0.20853 0.85743 0.0
C1077 C 0.3216 0.2473 0.84983 0.0
C1078 C 0.36354 0.18429 0.84869 0.0
C1079 C 0.35408 0.17222 0.8252 0.0
C1080 C 0.33269 0.22104 0.8421 0.0
C1081 C 0.33311 0.18475 0.81128 0.0
C1082 C 0.3122 0.26528 0.83036 0.0
C1083 C 0.30728 0.27673 0.8844 0.0
N1084 N 0.32338 0.20868 0.81974 0.0
N1085 N 0.31929 0.25375 0.87617 0.0
H1086 H 0.65998 0.31344 0.81822 0.0
H1087 H 0.81482 0.3548 0.81421 0.0
H1088 H 0.70406 0.33786 0.88829 0.0
H1089 H 0.76753 0.3372 0.74422 0.0
H1090 H 0.77474 0.34857 0.84203 0.0
H1091 H 0.69899 0.3238 0.79071 0.0
C1092 C 0.67768 0.32147 0.82779 0.0
C1093 C 0.67875 0.32461 0.85565 0.0
C1094 C 0.77321 0.34606 0.82057 0.0
C1095 C 0.7238 0.33597 0.8243 0.0
C1096 C 0.79612 0.34937 0.80474 0.0
C1097 C 0.79452 0.34651 0.77687 0.0
C1098 C 0.74864 0.33976 0.8084 0.0
C1099 C 0.76971 0.33969 0.76562 0.0
C1100 C 0.70007 0.32718 0.81208 0.0
C1101 C 0.70231 0.33505 0.8669 0.0
N1102 N 0.74781 0.33658 0.78139 0.0
N1103 N 0.72401 0.34006 0.85122 0.0
H1104 H 0.74814 0.73966 0.87413 0.0
H1105 H 0.62213 0.78871 0.7893 0.0
H1106 H 0.6934 0.68619 0.83416 0.0
H1107 H 0.68426 0.84212 0.81655 0.0
H1108 H 0.64463 0.75166 0.8114 0.0
H1109 H 0.72191 0.77771 0.85846 0.0
C1110 C 0.73052 0.73587 0.86214 0.0
C1111 C 0.72304 0.70965 0.85528 0.0
C1112 C 0.6533 0.77148 0.81272 0.0
C1113 C 0.69289 0.75326 0.83737 0.0
C1114 C 0.64044 0.79272 0.80015 0.0
C1115 C 0.65152 0.81854 0.80082 0.0
C1116 C 0.67749 0.77597 0.82612 0.0
C1117 C 0.67509 0.82253 0.81546 0.0
C1118 C 0.71558 0.75767 0.8532 0.0
C1119 C 0.69998 0.70604 0.83979 0.0
N1120 N 0.68745 0.80137 0.82738 0.0
N1121 N 0.68575 0.72763 0.83129 0.0
H1122 H 0.66802 0.70254 0.18922 0.0
H1123 H 0.80267 0.61818 0.17416 0.0
H1124 H 0.68445 0.6551 0.11881 0.0
H1125 H 0.79443 0.68772 0.22488 0.0
H1126 H 0.75797 0.62703 0.15602 0.0
H1127 H 0.71204 0.69094 0.20656 0.0
C1128 C 0.68063 0.68925 0.17759 0.0
C1129 C 0.67254 0.67998 0.15235 0.0
C1130 C 0.76612 0.64041 0.17097 0.0
C1131 C 0.72325 0.66693 0.17205 0.0
C1132 C 0.79168 0.63551 0.1812 0.0
C1133 C 0.80232 0.65216 0.20118 0.0
C1134 C 0.751 0.66185 0.18108 0.0
C1135 C 0.78709 0.67426 0.2096 0.0
C1136 C 0.70593 0.68289 0.1874 0.0
C1137 C 0.68988 0.6628 0.13829 0.0
N1138 N 0.76212 0.67826 0.19973 0.0
N1139 N 0.71453 0.65694 0.14826 0.0
H1140 H 0.31863 0.81954 0.19395 0.0
H1141 H 0.35709 0.68484 0.11856 0.0
H1142 H 0.3957 0.81045 0.15563 0.0
H1143 H 0.30364 0.68824 0.18654 0.0
H1144 H 0.36902 0.73186 0.12643 0.0
H1145 H 0.30865 0.77292 0.18372 0.0
C1146 C 0.33329 0.80796 0.18295 0.0
C1147 C 0.35822 0.81894 0.17596 0.0
C1148 C 0.35492 0.72211 0.13973 0.0
C1149 C 0.34689 0.76535 0.16437 0.0
C1150 C 0.34824 0.69527 0.1354 0.0
C1151 C 0.32929 0.68253 0.15187 0.0
C1152 C 0.34215 0.73638 0.16031 0.0
C1153 C 0.31837 0.69711 0.17332 0.0
C1154 C 0.32767 0.78122 0.17738 0.0
C1155 C 0.3763 0.80279 0.16157 0.0
N1156 N 0.32466 0.72332 0.17666 0.0
N1157 N 0.37034 0.77673 0.15635 0.0
H1158 H 0.73937 0.27482 0.14161 0.0
H1159 H 0.61076 0.21896 0.21824 0.0
H1160 H 0.67851 0.32543 0.17654 0.0
H1161 H 0.67683 0.16917 0.19304 0.0
H1162 H 0.63189 0.25727 0.19672 0.0
H1163 H 0.71369 0.23555 0.15465 0.0
C1164 C 0.72053 0.27772 0.15199 0.0
C1165 C 0.71119 0.30352 0.15823 0.0
C1166 C 0.64167 0.23795 0.19564 0.0
C1167 C 0.6816 0.25841 0.17314 0.0
C1168 C 0.62959 0.216 0.20784 0.0
C1169 C 0.64225 0.19089 0.20771 0.0
C1170 C 0.66666 0.23484 0.18322 0.0
C1171 C 0.66643 0.18818 0.19368 0.0
C1172 C 0.70587 0.25521 0.15938 0.0
C1173 C 0.68655 0.30595 0.1715 0.0
N1174 N 0.67803 0.21001 0.18224 0.0
N1175 N 0.67265 0.28364 0.17864 0.0
loop_
_geom_bond_atom_site_label_1
_geom_bond_atom_site_label_2
_geom_bond_distance
_geom_bond_site_symmetry_2
_ccdc_geom_bond_type
Mg0 O7 2.141 . S
Mg0 O8 2.048 . S
Mg0 O9 2.048 . S
Mg0 O12 2.141 . S
C1 O2 1.313 . S
C1 O8 1.195 . S
O2 C1 1.313 . S
C3 O4 1.245 . S
C3 O12 1.289 . S
O4 C3 1.245 . S
C5 O6 1.245 . S
C5 O7 1.289 . S
O6 C5 1.245 . S
O7 Mg0 2.141 . S
O7 C5 1.289 . S
O8 Mg0 2.048 . S
O8 C1 1.195 . S
O9 Mg0 2.048 . S
O9 C10 1.195 . S
C10 O9 1.195 . S
C10 O11 1.313 . S
O11 C10 1.313 . S
O12 Mg0 2.141 . S
O12 C3 1.289 . S
Mg13 O20 2.141 . S
Mg13 O21 2.048 . S
Mg13 O22 2.048 . S
Mg13 O25 2.141 . S
C14 O15 1.313 . S
C14 O21 1.195 . S
O15 C14 1.313 . S
C16 O17 1.245 . S
C16 O25 1.289 . S
O17 C16 1.245 . S
C18 O19 1.245 . S
C18 O20 1.289 . S
O19 C18 1.245 . S
O20 Mg13 2.141 . S
O20 C18 1.289 . S
O21 Mg13 2.048 . S
O21 C14 1.195 . S
O22 Mg13 2.048 . S
O22 C23 1.195 . S
C23 O22 1.195 . S
C23 O24 1.313 . S
O24 C23 1.313 . S
O25 Mg13 2.141 . S
O25 C16 1.289 . S
Mg26 O33 2.141 . S
Mg26 O34 2.048 . S
Mg26 O35 2.048 . S
Mg26 O38 2.141 . S
C27 O28 1.313 . S
C27 O34 1.195 . S
O28 C27 1.313 . S
C29 O30 1.245 . S
C29 O38 1.289 . S
O30 C29 1.245 . S
C31 O32 1.245 . S
C31 O33 1.289 . S
O32 C31 1.245 . S
O33 Mg26 2.141 . S
O33 C31 1.289 . S
O34 Mg26 2.048 . S
O34 C27 1.195 . S
O35 Mg26 2.048 . S
O35 C36 1.195 . S
C36 O35 1.195 . S
C36 O37 1.313 . S
O37 C36 1.313 . S
O38 Mg26 2.141 . S
O38 C29 1.289 . S
Mg39 O46 2.141 . S
Mg39 O47 2.048 . S
Mg39 O48 2.048 . S
Mg39 O51 2.141 . S
C40 O41 1.313 . S
C40 O47 1.195 . S
O41 C40 1.313 . S
C42 O43 1.245 . S
C42 O51 1.289 . S
O43 C42 1.245 . S
C44 O45 1.245 . S
C44 O46 1.289 . S
O45 C44 1.245 . S
O46 Mg39 2.141 . S
O46 C44 1.289 . S
O47 Mg39 2.048 . S
O47 C40 1.195 . S
O48 Mg39 2.048 . S
O48 C49 1.195 . S
C49 O48 1.195 . S
C49 O50 1.313 . S
O50 C49 1.313 . S
O51 Mg39 2.141 . S
O51 C42 1.289 . S
Mg52 O59 2.141 . S
Mg52 O60 2.048 . S
Mg52 O61 2.048 . S
Mg52 O64 2.141 . S
C53 O54 1.313 . S
C53 O60 1.195 . S
O54 C53 1.313 . S
C55 O56 1.245 . S
C55 O64 1.289 . S
O56 C55 1.245 . S
C57 O58 1.245 . S
C57 O59 1.289 . S
O58 C57 1.245 . S
O59 Mg52 2.141 . S
O59 C57 1.289 . S
O60 Mg52 2.048 . S
O60 C53 1.195 . S
O61 Mg52 2.048 . S
O61 C62 1.195 . S
C62 O61 1.195 . S
C62 O63 1.313 . S
O63 C62 1.313 . S
O64 Mg52 2.141 . S
O64 C55 1.289 . S
Mg65 O72 2.141 . S
Mg65 O73 2.048 . S
Mg65 O74 2.048 . S
Mg65 O77 2.141 . S
C66 O67 1.313 . S
C66 O73 1.195 . S
O67 C66 1.313 . S
C68 O69 1.245 . S
C68 O77 1.289 . S
O69 C68 1.245 . S
C70 O71 1.245 . S
C70 O72 1.289 . S
O71 C70 1.245 . S
O72 Mg65 2.141 . S
O72 C70 1.289 . S
O73 Mg65 2.048 . S
O73 C66 1.195 . S
O74 Mg65 2.048 . S
O74 C75 1.195 . S
C75 O74 1.195 . S
C75 O76 1.313 . S
O76 C75 1.313 . S
O77 Mg65 2.141 . S
O77 C68 1.289 . S
Mg78 O85 2.141 . S
Mg78 O86 2.048 . S
Mg78 O87 2.048 . S
Mg78 O90 2.141 . S
C79 O80 1.313 . S
C79 O86 1.195 . S
O80 C79 1.313 . S
C81 O82 1.245 . S
C81 O90 1.289 . S
O82 C81 1.245 . S
C83 O84 1.245 . S
C83 O85 1.289 . S
O84 C83 1.245 . S
O85 Mg78 2.141 . S
O85 C83 1.289 . S
O86 Mg78 2.048 . S
O86 C79 1.195 . S
O87 Mg78 2.048 . S
O87 C88 1.195 . S
C88 O87 1.195 . S
C88 O89 1.313 . S
O89 C88 1.313 . S
O90 Mg78 2.141 . S
O90 C81 1.289 . S
Mg91 O98 2.141 . S
Mg91 O99 2.048 . S
Mg91 O100 2.048 . S
Mg91 O103 2.141 . S
C92 O93 1.313 . S
C92 O99 1.195 . S
O93 C92 1.313 . S
C94 O95 1.245 . S
C94 O103 1.289 . S
O95 C94 1.245 . S
C96 O97 1.245 . S
C96 O98 1.289 . S
O97 C96 1.245 . S
O98 Mg91 2.141 . S
O98 C96 1.289 . S
O99 Mg91 2.048 . S
O99 C92 1.195 . S
O100 Mg91 2.048 . S
O100 C101 1.195 . S
C101 O100 1.195 . S
C101 O102 1.313 . S
O102 C101 1.313 . S
O103 Mg91 2.141 . S
O103 C94 1.289 . S
Mg104 O111 2.141 . S
Mg104 O112 2.048 . S
Mg104 O113 2.048 . S
Mg104 O116 2.141 . S
C105 O106 1.313 . S
C105 O112 1.195 . S
O106 C105 1.313 . S
C107 O108 1.245 . S
C107 O116 1.289 . S
O108 C107 1.245 . S
C109 O110 1.245 . S
C109 O111 1.289 . S
O110 C109 1.245 . S
O111 Mg104 2.141 . S
O111 C109 1.289 . S
O112 Mg104 2.048 . S
O112 C105 1.195 . S
O113 Mg104 2.048 . S
O113 C114 1.195 . S
C114 O113 1.195 . S
C114 O115 1.313 . S
O115 C114 1.313 . S
O116 Mg104 2.141 . S
O116 C107 1.289 . S
Mg117 O124 2.141 . S
Mg117 O125 2.048 . S
Mg117 O126 2.048 . S
Mg117 O129 2.141 . S
C118 O119 1.313 . S
C118 O125 1.195 . S
O119 C118 1.313 . S
C120 O121 1.245 . S
C120 O129 1.289 . S
O121 C120 1.245 . S
C122 O123 1.245 . S
C122 O124 1.289 . S
O123 C122 1.245 . S
O124 Mg117 2.141 . S
O124 C122 1.289 . S
O125 Mg117 2.048 . S
O125 C118 1.195 . S
O126 Mg117 2.048 . S
O126 C127 1.195 . S
C127 O126 1.195 . S
C127 O128 1.313 . S
O128 C127 1.313 . S
O129 Mg117 2.141 . S
O129 C120 1.289 . S
Mg130 O137 2.141 . S
Mg130 O138 2.048 . S
Mg130 O139 2.048 . S
Mg130 O142 2.141 . S
C131 O132 1.313 . S
C131 O138 1.195 . S
O132 C131 1.313 . S
C133 O134 1.245 . S
C133 O142 1.289 . S
O134 C133 1.245 . S
C135 O136 1.245 . S
C135 O137 1.289 . S
O136 C135 1.245 . S
O137 Mg130 2.141 . S
O137 C135 1.289 . S
O138 Mg130 2.048 . S
O138 C131 1.195 . S
O139 Mg130 2.048 . S
O139 C140 1.195 . S
C140 O139 1.195 . S
C140 O141 1.313 . S
O141 C140 1.313 . S
O142 Mg130 2.141 . S
O142 C133 1.289 . S
Mg143 O150 2.141 . S
Mg143 O151 2.048 . S
Mg143 O152 2.048 . S
Mg143 O155 2.141 . S
C144 O145 1.313 . S
C144 O151 1.195 . S
O145 C144 1.313 . S
C146 O147 1.245 . S
C146 O155 1.289 . S
O147 C146 1.245 . S
C148 O149 1.245 . S
C148 O150 1.289 . S
O149 C148 1.245 . S
O150 Mg143 2.141 . S
O150 C148 1.289 . S
O151 Mg143 2.048 . S
O151 C144 1.195 . S
O152 Mg143 2.048 . S
O152 C153 1.195 . S
C153 O152 1.195 . S
C153 O154 1.313 . S
O154 C153 1.313 . S
O155 Mg143 2.141 . S
O155 C146 1.289 . S
Mg156 O163 2.141 . S
Mg156 O164 2.048 . S
Mg156 O165 2.048 . S
Mg156 O168 2.141 . S
C157 O158 1.313 . S
C157 O164 1.195 . S
O158 C157 1.313 . S
C159 O160 1.245 . S
C159 O168 1.289 . S
O160 C159 1.245 . S
C161 O162 1.245 . S
C161 O163 1.289 . S
O162 C161 1.245 . S
O163 Mg156 2.141 . S
O163 C161 1.289 . S
O164 Mg156 2.048 . S
O164 C157 1.195 . S
O165 Mg156 2.048 . S
O165 C166 1.195 . S
C166 O165 1.195 . S
C166 O167 1.313 . S
O167 C166 1.313 . S
O168 Mg156 2.141 . S
O168 C159 1.289 . S
Mg169 O176 2.141 . S
Mg169 O177 2.048 . S
Mg169 O178 2.048 . S
Mg169 O181 2.141 . S
C170 O171 1.313 . S
C170 O177 1.195 . S
O171 C170 1.313 . S
C172 O173 1.245 . S
C172 O181 1.289 . S
O173 C172 1.245 . S
C174 O175 1.245 . S
C174 O176 1.289 . S
O175 C174 1.245 . S
O176 Mg169 2.141 . S
O176 C174 1.289 . S
O177 Mg169 2.048 . S
O177 C170 1.195 . S
O178 Mg169 2.048 . S
O178 C179 1.195 . S
C179 O178 1.195 . S
C179 O180 1.313 . S
O180 C179 1.313 . S
O181 Mg169 2.141 . S
O181 C172 1.289 . S
Mg182 O189 2.141 . S
Mg182 O190 2.048 . S
Mg182 O191 2.048 . S
Mg182 O194 2.141 . S
C183 O184 1.313 . S
C183 O190 1.195 . S
O184 C183 1.313 . S
C185 O186 1.245 . S
C185 O194 1.289 . S
O186 C185 1.245 . S
C187 O188 1.245 . S
C187 O189 1.289 . S
O188 C187 1.245 . S
O189 Mg182 2.141 . S
O189 C187 1.289 . S
O190 Mg182 2.048 . S
O190 C183 1.195 . S
O191 Mg182 2.048 . S
O191 C192 1.195 . S
C192 O191 1.195 . S
C192 O193 1.313 . S
O193 C192 1.313 . S
O194 Mg182 2.141 . S
O194 C185 1.289 . S
Mg195 O202 2.141 . S
Mg195 O203 2.048 . S
Mg195 O204 2.048 . S
Mg195 O207 2.141 . S
C196 O197 1.313 . S
C196 O203 1.195 . S
O197 C196 1.313 . S
C198 O199 1.245 . S
C198 O207 1.289 . S
O199 C198 1.245 . S
C200 O201 1.245 . S
C200 O202 1.289 . S
O201 C200 1.245 . S
O202 Mg195 2.141 . S
O202 C200 1.289 . S
O203 Mg195 2.048 . S
O203 C196 1.195 . S
O204 Mg195 2.048 . S
O204 C205 1.195 . S
C205 O204 1.195 . S
C205 O206 1.313 . S
O206 C205 1.313 . S
O207 Mg195 2.141 . S
O207 C198 1.289 . S
Mg208 O215 2.141 . S
Mg208 O216 2.048 . S
Mg208 O217 2.048 . S
Mg208 O220 2.141 . S
C209 O210 1.313 . S
C209 O216 1.195 . S
O210 C209 1.313 . S
C211 O212 1.245 . S
C211 O220 1.289 . S
O212 C211 1.245 . S
C213 O214 1.245 . S
C213 O215 1.289 . S
O214 C213 1.245 . S
O215 Mg208 2.141 . S
O215 C213 1.289 . S
O216 Mg208 2.048 . S
O216 C209 1.195 . S
O217 Mg208 2.048 . S
O217 C218 1.195 . S
C218 O217 1.195 . S
C218 O219 1.313 . S
O219 C218 1.313 . S
O220 Mg208 2.141 . S
O220 C211 1.289 . S
Mg221 O228 2.141 . S
Mg221 O229 2.048 . S
Mg221 O230 2.048 . S
Mg221 O233 2.141 . S
C222 O223 1.313 . S
C222 O229 1.195 . S
O223 C222 1.313 . S
C224 O225 1.245 . S
C224 O233 1.289 . S
O225 C224 1.245 . S
C226 O227 1.245 . S
C226 O228 1.289 . S
O227 C226 1.245 . S
O228 Mg221 2.141 . S
O228 C226 1.289 . S
O229 Mg221 2.048 . S
O229 C222 1.195 . S
O230 Mg221 2.048 . S
O230 C231 1.195 . S
C231 O230 1.195 . S
C231 O232 1.313 . S
O232 C231 1.313 . S
O233 Mg221 2.141 . S
O233 C224 1.289 . S
Mg234 O241 2.141 . S
Mg234 O242 2.048 . S
Mg234 O243 2.048 . S
Mg234 O246 2.141 . S
C235 O236 1.313 . S
C235 O242 1.195 . S
O236 C235 1.313 . S
C237 O238 1.245 . S
C237 O246 1.289 . S
O238 C237 1.245 . S
C239 O240 1.245 . S
C239 O241 1.289 . S
O240 C239 1.245 . S
O241 Mg234 2.141 . S
O241 C239 1.289 . S
O242 Mg234 2.048 . S
O242 C235 1.195 . S
O243 Mg234 2.048 . S
O243 C244 1.195 . S
C244 O243 1.195 . S
C244 O245 1.313 . S
O245 C244 1.313 . S
O246 Mg234 2.141 . S
O246 C237 1.289 . S
Mg247 O254 2.141 . S
Mg247 O255 2.048 . S
Mg247 O256 2.048 . S
Mg247 O259 2.141 . S
C248 O249 1.313 . S
C248 O255 1.195 . S
O249 C248 1.313 . S
C250 O251 1.245 . S
C250 O259 1.289 . S
O251 C250 1.245 . S
C252 O253 1.245 . S
C252 O254 1.289 . S
O253 C252 1.245 . S
O254 Mg247 2.141 . S
O254 C252 1.289 . S
O255 Mg247 2.048 . S
O255 C248 1.195 . S
O256 Mg247 2.048 . S
O256 C257 1.195 . S
C257 O256 1.195 . S
C257 O258 1.313 . S
O258 C257 1.313 . S
O259 Mg247 2.141 . S
O259 C250 1.289 . S
Mg260 O267 2.141 . S
Mg260 O268 2.048 . S
Mg260 O269 2.048 . S
Mg260 O272 2.141 . S
C261 O262 1.313 . S
C261 O268 1.195 . S
O262 C261 1.313 . S
C263 O264 1.245 . S
C263 O272 1.289 . S
O264 C263 1.245 . S
C265 O266 1.245 . S
C265 O267 1.289 . S
O266 C265 1.245 . S
O267 Mg260 2.141 . S
O267 C265 1.289 . S
O268 Mg260 2.048 . S
O268 C261 1.195 . S
O269 Mg260 2.048 . S
O269 C270 1.195 . S
C270 O269 1.195 . S
C270 O271 1.313 . S
O271 C270 1.313 . S
O272 Mg260 2.141 . S
O272 C263 1.289 . S
Mg273 O280 2.141 . S
Mg273 O281 2.048 . S
Mg273 O282 2.048 . S
Mg273 O285 2.141 . S
C274 O275 1.313 . S
C274 O281 1.195 . S
O275 C274 1.313 . S
C276 O277 1.245 . S
C276 O285 1.289 . S
O277 C276 1.245 . S
C278 O279 1.245 . S
C278 O280 1.289 . S
O279 C278 1.245 . S
O280 Mg273 2.141 . S
O280 C278 1.289 . S
O281 Mg273 2.048 . S
O281 C274 1.195 . S
O282 Mg273 2.048 . S
O282 C283 1.195 . S
C283 O282 1.195 . S
C283 O284 1.313 . S
O284 C283 1.313 . S
O285 Mg273 2.141 . S
O285 C276 1.289 . S
Mg286 O293 2.141 . S
Mg286 O294 2.048 . S
Mg286 O295 2.048 . S
Mg286 O298 2.141 . S
C287 O288 1.313 . S
C287 O294 1.195 . S
O288 C287 1.313 . S
C289 O290 1.245 . S
C289 O298 1.289 . S
O290 C289 1.245 . S
C291 O292 1.245 . S
C291 O293 1.289 . S
O292 C291 1.245 . S
O293 Mg286 2.141 . S
O293 C291 1.289 . S
O294 Mg286 2.048 . S
O294 C287 1.195 . S
O295 Mg286 2.048 . S
O295 C296 1.195 . S
C296 O295 1.195 . S
C296 O297 1.313 . S
O297 C296 1.313 . S
O298 Mg286 2.141 . S
O298 C289 1.289 . S
Mg299 O306 2.141 . S
Mg299 O307 2.048 . S
Mg299 O308 2.048 . S
Mg299 O311 2.141 . S
C300 O301 1.313 . S
C300 O307 1.195 . S
O301 C300 1.313 . S
C302 O303 1.245 . S
C302 O311 1.289 . S
O303 C302 1.245 . S
C304 O305 1.245 . S
C304 O306 1.289 . S
O305 C304 1.245 . S
O306 Mg299 2.141 . S
O306 C304 1.289 . S
O307 Mg299 2.048 . S
O307 C300 1.195 . S
O308 Mg299 2.048 . S
O308 C309 1.195 . S
C309 O308 1.195 . S
C309 O310 1.313 . S
O310 C309 1.313 . S
O311 Mg299 2.141 . S
O311 C302 1.289 . S
H312 C318 0.930 . S
H313 C322 0.930 . S
H314 C327 0.929 . S
H315 C325 0.929 . S
H316 C320 0.929 . S
H317 C326 0.929 . S
C318 H312 0.930 . S
C318 C319 1.367 . S
C318 C326 1.378 . S
C319 C318 1.367 . S
C319 C327 1.433 . S
C320 H316 0.929 . S
C320 C322 1.378 . S
C320 C324 1.350 . S
C321 C324 1.463 . S
C321 C326 1.350 . S
C321 N329 1.427 . S
C322 H313 0.930 . S
C322 C320 1.378 . S
C322 C323 1.367 . S
C323 C322 1.367 . S
C323 C325 1.433 . S
C324 C320 1.350 . S
C324 C321 1.463 . S
C324 N328 1.427 . S
C325 H315 0.929 . S
C325 C323 1.433 . S
C325 N328 1.384 . S
C326 H317 0.929 . S
C326 C318 1.378 . S
C326 C321 1.350 . S
C327 H314 0.929 . S
C327 C319 1.433 . S
C327 N329 1.384 . S
N328 C324 1.427 . S
N328 C325 1.384 . S
N329 C321 1.427 . S
N329 C327 1.384 . S
H330 C336 0.930 . S
H331 C340 0.930 . S
H332 C345 0.929 . S
H333 C343 0.929 . S
H334 C338 0.929 . S
H335 C344 0.929 . S
C336 H330 0.930 . S
C336 C337 1.367 . S
C336 C344 1.378 . S
C337 C336 1.367 . S
C337 C345 1.433 . S
C338 H334 0.929 . S
C338 C340 1.378 . S
C338 C342 1.350 . S
C339 C342 1.463 . S
C339 C344 1.350 . S
C339 N347 1.427 . S
C340 H331 0.930 . S
C340 C338 1.378 . S
C340 C341 1.367 . S
C341 C340 1.367 . S
C341 C343 1.433 . S
C342 C338 1.350 . S
C342 C339 1.463 . S
C342 N346 1.427 . S
C343 H333 0.929 . S
C343 C341 1.433 . S
C343 N346 1.384 . S
C344 H335 0.929 . S
C344 C336 1.378 . S
C344 C339 1.350 . S
C345 H332 0.929 . S
C345 C337 1.433 . S
C345 N347 1.384 . S
N346 C342 1.427 . S
N346 C343 1.384 . S
N347 C339 1.427 . S
N347 C345 1.384 . S
H348 C354 0.930 . S
H349 C358 0.930 . S
H350 C363 0.929 . S
H351 C361 0.929 . S
H352 C356 0.929 . S
H353 C362 0.929 . S
C354 H348 0.930 . S
C354 C355 1.367 . S
C354 C362 1.378 . S
C355 C354 1.367 . S
C355 C363 1.433 . S
C356 H352 0.929 . S
C356 C358 1.378 . S
C356 C360 1.350 . S
C357 C360 1.463 . S
C357 C362 1.350 . S
C357 N365 1.427 . S
C358 H349 0.930 . S
C358 C356 1.378 . S
C358 C359 1.367 . S
C359 C358 1.367 . S
C359 C361 1.433 . S
C360 C356 1.350 . S
C360 C357 1.463 . S
C360 N364 1.427 . S
C361 H351 0.929 . S
C361 C359 1.433 . S
C361 N364 1.384 . S
C362 H353 0.929 . S
C362 C354 1.378 . S
C362 C357 1.350 . S
C363 H350 0.929 . S
C363 C355 1.433 . S
C363 N365 1.384 . S
N364 C360 1.427 . S
N364 C361 1.384 . S
N365 C357 1.427 . S
N365 C363 1.384 . S
H366 C372 0.930 . S
H367 C376 0.930 . S
H368 C381 0.929 . S
H369 C379 0.929 . S
H370 C374 0.929 . S
H371 C380 0.929 . S
C372 H366 0.930 . S
C372 C373 1.367 . S
C372 C380 1.378 . S
C373 C372 1.367 . S
C373 C381 1.433 . S
C374 H370 0.929 . S
C374 C376 1.378 . S
C374 C378 1.350 . S
C375 C378 1.463 . S
C375 C380 1.350 . S
C375 N383 1.427 . S
C376 H367 0.930 . S
C376 C374 1.378 . S
C376 C377 1.367 . S
C377 C376 1.367 . S
C377 C379 1.433 . S
C378 C374 1.350 . S
C378 C375 1.463 . S
C378 N382 1.427 . S
C379 H369 0.929 . S
C379 C377 1.433 . S
C379 N382 1.384 . S
C380 H371 0.929 . S
C380 C372 1.378 . S
C380 C375 1.350 . S
C381 H368 0.929 . S
C381 C373 1.433 . S
C381 N383 1.384 . S
N382 C378 1.427 . S
N382 C379 1.384 . S
N383 C375 1.427 . S
N383 C381 1.384 . S
H384 C390 0.930 . S
H385 C394 0.930 . S
H386 C399 0.929 . S
H387 C397 0.929 . S
H388 C392 0.929 . S
H389 C398 0.929 . S
C390 H384 0.930 . S
C390 C391 1.367 . S
C390 C398 1.378 . S
C391 C390 1.367 . S
C391 C399 1.433 . S
C392 H388 0.929 . S
C392 C394 1.378 . S
C392 C396 1.350 . S
C393 C396 1.463 . S
C393 C398 1.350 . S
C393 N401 1.427 . S
C394 H385 0.930 . S
C394 C392 1.378 . S
C394 C395 1.367 . S
C395 C394 1.367 . S
C395 C397 1.433 . S
C396 C392 1.350 . S
C396 C393 1.463 . S
C396 N400 1.427 . S
C397 H387 0.929 . S
C397 C395 1.433 . S
C397 N400 1.384 . S
C398 H389 0.929 . S
C398 C390 1.378 . S
C398 C393 1.350 . S
C399 H386 0.929 . S
C399 C391 1.433 . S
C399 N401 1.384 . S
N400 C396 1.427 . S
N400 C397 1.384 . S
N401 C393 1.427 . S
N401 C399 1.384 . S
H402 C408 0.930 . S
H403 C412 0.930 . S
H404 C417 0.929 . S
H405 C415 0.929 . S
H406 C410 0.929 . S
H407 C416 0.929 . S
C408 H402 0.930 . S
C408 C409 1.367 . S
C408 C416 1.378 . S
C409 C408 1.367 . S
C409 C417 1.433 . S
C410 H406 0.929 . S
C410 C412 1.378 . S
C410 C414 1.350 . S
C411 C414 1.463 . S
C411 C416 1.350 . S
C411 N419 1.427 . S
C412 H403 0.930 . S
C412 C410 1.378 . S
C412 C413 1.367 . S
C413 C412 1.367 . S
C413 C415 1.433 . S
C414 C410 1.350 . S
C414 C411 1.463 . S
C414 N418 1.427 . S
C415 H405 0.929 . S
C415 C413 1.433 . S
C415 N418 1.384 . S
C416 H407 0.929 . S
C416 C408 1.378 . S
C416 C411 1.350 . S
C417 H404 0.929 . S
C417 C409 1.433 . S
C417 N419 1.384 . S
N418 C414 1.427 . S
N418 C415 1.384 . S
N419 C411 1.427 . S
N419 C417 1.384 . S
H420 C426 0.930 . S
H421 C430 0.930 . S
H422 C435 0.929 . S
H423 C433 0.929 . S
H424 C428 0.929 . S
H425 C434 0.929 . S
C426 H420 0.930 . S
C426 C427 1.367 . S
C426 C434 1.378 . S
C427 C426 1.367 . S
C427 C435 1.433 . S
C428 H424 0.929 . S
C428 C430 1.378 . S
C428 C432 1.350 . S
C429 C432 1.463 . S
C429 C434 1.350 . S
C429 N437 1.427 . S
C430 H421 0.930 . S
C430 C428 1.378 . S
C430 C431 1.367 . S
C431 C430 1.367 . S
C431 C433 1.433 . S
C432 C428 1.350 . S
C432 C429 1.463 . S
C432 N436 1.427 . S
C433 H423 0.929 . S
C433 C431 1.433 . S
C433 N436 1.384 . S
C434 H425 0.929 . S
C434 C426 1.378 . S
C434 C429 1.350 . S
C435 H422 0.929 . S
C435 C427 1.433 . S
C435 N437 1.384 . S
N436 C432 1.427 . S
N436 C433 1.384 . S
N437 C429 1.427 . S
N437 C435 1.384 . S
H438 C444 0.930 . S
H439 C448 0.930 . S
H440 C453 0.929 . S
H441 C451 0.929 . S
H442 C446 0.929 . S
H443 C452 0.929 . S
C444 H438 0.930 . S
C444 C445 1.367 . S
C444 C452 1.378 . S
C445 C444 1.367 . S
C445 C453 1.433 . S
C446 H442 0.929 . S
C446 C448 1.378 . S
C446 C450 1.350 . S
C447 C450 1.463 . S
C447 C452 1.350 . S
C447 N455 1.427 . S
C448 H439 0.930 . S
C448 C446 1.378 . S
C448 C449 1.367 . S
C449 C448 1.367 . S
C449 C451 1.433 . S
C450 C446 1.350 . S
C450 C447 1.463 . S
C450 N454 1.427 . S
C451 H441 0.929 . S
C451 C449 1.433 . S
C451 N454 1.384 . S
C452 H443 0.929 . S
C452 C444 1.378 . S
C452 C447 1.350 . S
C453 H440 0.929 . S
C453 C445 1.433 . S
C453 N455 1.384 . S
N454 C450 1.427 . S
N454 C451 1.384 . S
N455 C447 1.427 . S
N455 C453 1.384 . S
H456 C462 0.930 . S
H457 C466 0.930 . S
H458 C471 0.929 . S
H459 C469 0.929 . S
H460 C464 0.929 . S
H461 C470 0.929 . S
C462 H456 0.930 . S
C462 C463 1.367 . S
C462 C470 1.378 . S
C463 C462 1.367 . S
C463 C471 1.433 . S
C464 H460 0.929 . S
C464 C466 1.378 . S
C464 C468 1.350 . S
C465 C468 1.463 . S
C465 C470 1.350 . S
C465 N473 1.427 . S
C466 H457 0.930 . S
C466 C464 1.378 . S
C466 C467 1.367 . S
C467 C466 1.367 . S
C467 C469 1.433 . S
C468 C464 1.350 . S
C468 C465 1.463 . S
C468 N472 1.427 . S
C469 H459 0.929 . S
C469 C467 1.433 . S
C469 N472 1.384 . S
C470 H461 0.929 . S
C470 C462 1.378 . S
C470 C465 1.350 . S
C471 H458 0.929 . S
C471 C463 1.433 . S
C471 N473 1.384 . S
N472 C468 1.427 . S
N472 C469 1.384 . S
N473 C465 1.427 . S
N473 C471 1.384 . S
H474 C480 0.930 . S
H475 C484 0.930 . S
H476 C489 0.929 . S
H477 C487 0.929 . S
H478 C482 0.929 . S
H479 C488 0.929 . S
C480 H474 0.930 . S
C480 C481 1.367 . S
C480 C488 1.378 . S
C481 C480 1.367 . S
C481 C489 1.433 . S
C482 H478 0.929 . S
C482 C484 1.378 . S
C482 C486 1.350 . S
C483 C486 1.463 . S
C483 C488 1.350 . S
C483 N491 1.427 . S
C484 H475 0.930 . S
C484 C482 1.378 . S
C484 C485 1.367 . S
C485 C484 1.367 . S
C485 C487 1.433 . S
C486 C482 1.350 . S
C486 C483 1.463 . S
C486 N490 1.427 . S
C487 H477 0.929 . S
C487 C485 1.433 . S
C487 N490 1.384 . S
C488 H479 0.929 . S
C488 C480 1.378 . S
C488 C483 1.350 . S
C489 H476 0.929 . S
C489 C481 1.433 . S
C489 N491 1.384 . S
N490 C486 1.427 . S
N490 C487 1.384 . S
N491 C483 1.427 . S
N491 C489 1.384 . S
H492 C498 0.930 . S
H493 C502 0.930 . S
H494 C507 0.929 . S
H495 C505 0.929 . S
H496 C500 0.929 . S
H497 C506 0.929 . S
C498 H492 0.930 . S
C498 C499 1.367 . S
C498 C506 1.378 . S
C499 C498 1.367 . S
C499 C507 1.433 . S
C500 H496 0.929 . S
C500 C502 1.378 . S
C500 C504 1.350 . S
C501 C504 1.463 . S
C501 C506 1.350 . S
C501 N509 1.427 . S
C502 H493 0.930 . S
C502 C500 1.378 . S
C502 C503 1.367 . S
C503 C502 1.367 . S
C503 C505 1.433 . S
C504 C500 1.350 . S
C504 C501 1.463 . S
C504 N508 1.427 . S
C505 H495 0.929 . S
C505 C503 1.433 . S
C505 N508 1.384 . S
C506 H497 0.929 . S
C506 C498 1.378 . S
C506 C501 1.350 . S
C507 H494 0.929 . S
C507 C499 1.433 . S
C507 N509 1.384 . S
N508 C504 1.427 . S
N508 C505 1.384 . S
N509 C501 1.427 . S
N509 C507 1.384 . S
H510 C516 0.930 . S
H511 C520 0.930 . S
H512 C525 0.929 . S
H513 C523 0.929 . S
H514 C518 0.929 . S
H515 C524 0.929 . S
C516 H510 0.930 . S
C516 C517 1.367 . S
C516 C524 1.378 . S
C517 C516 1.367 . S
C517 C525 1.433 . S
C518 H514 0.929 . S
C518 C520 1.378 . S
C518 C522 1.350 . S
C519 C522 1.463 . S
C519 C524 1.350 . S
C519 N527 1.427 . S
C520 H511 0.930 . S
C520 C518 1.378 . S
C520 C521 1.367 . S
C521 C520 1.367 . S
C521 C523 1.433 . S
C522 C518 1.350 . S
C522 C519 1.463 . S
C522 N526 1.427 . S
C523 H513 0.929 . S
C523 C521 1.433 . S
C523 N526 1.384 . S
C524 H515 0.929 . S
C524 C516 1.378 . S
C524 C519 1.350 . S
C525 H512 0.929 . S
C525 C517 1.433 . S
C525 N527 1.384 . S
N526 C522 1.427 . S
N526 C523 1.384 . S
N527 C519 1.427 . S
N527 C525 1.384 . S
H528 C534 0.930 . S
H529 C538 0.930 . S
H530 C543 0.929 . S
H531 C541 0.929 . S
H532 C536 0.929 1_565 S
H533 C542 0.929 1_545 S
C534 H528 0.930 . S
C534 C535 1.367 . S
C534 C542 1.378 . S
C535 C534 1.367 . S
C535 C543 1.433 . S
C536 H532 0.929 1_545 S
C536 C538 1.378 . S
C536 C540 1.350 . S
C537 C540 1.463 1_565 S
C537 C542 1.350 . S
C537 N545 1.427 . S
C538 H529 0.930 . S
C538 C536 1.378 . S
C538 C539 1.367 . S
C539 C538 1.367 . S
C539 C541 1.433 . S
C540 C536 1.350 . S
C540 C537 1.463 1_545 S
C540 N544 1.427 . S
C541 H531 0.929 . S
C541 C539 1.433 . S
C541 N544 1.384 . S
C542 H533 0.929 1_565 S
C542 C534 1.378 . S
C542 C537 1.350 . S
C543 H530 0.929 . S
C543 C535 1.433 . S
C543 N545 1.384 . S
N544 C540 1.427 . S
N544 C541 1.384 . S
N545 C537 1.427 . S
N545 C543 1.384 . S
H546 C552 0.930 . S
H547 C556 0.930 . S
H548 C561 0.929 . S
H549 C559 0.929 . S
H550 C554 0.929 . S
H551 C560 0.929 . S
C552 H546 0.930 . S
C552 C553 1.367 . S
C552 C560 1.378 . S
C553 C552 1.367 . S
C553 C561 1.433 . S
C554 H550 0.929 . S
C554 C556 1.378 . S
C554 C558 1.350 . S
C555 C558 1.463 1_655 S
C555 C560 1.350 . S
C555 N563 1.427 . S
C556 H547 0.930 . S
C556 C554 1.378 . S
C556 C557 1.367 . S
C557 C556 1.367 . S
C557 C559 1.433 . S
C558 C554 1.350 . S
C558 C555 1.463 1_455 S
C558 N562 1.427 . S
C559 H549 0.929 . S
C559 C557 1.433 . S
C559 N562 1.384 . S
C560 H551 0.929 . S
C560 C552 1.378 . S
C560 C555 1.350 . S
C561 H548 0.929 . S
C561 C553 1.433 . S
C561 N563 1.384 . S
N562 C558 1.427 . S
N562 C559 1.384 . S
N563 C555 1.427 . S
N563 C561 1.384 . S
H564 C570 0.930 . S
H565 C574 0.930 . S
H566 C579 0.929 . S
H567 C577 0.929 . S
H568 C572 0.929 . S
H569 C578 0.929 . S
C570 H564 0.930 . S
C570 C571 1.367 . S
C570 C578 1.378 . S
C571 C570 1.367 . S
C571 C579 1.433 . S
C572 H568 0.929 . S
C572 C574 1.378 . S
C572 C576 1.350 . S
C573 C576 1.463 1_545 S
C573 C578 1.350 . S
C573 N581 1.427 . S
C574 H565 0.930 . S
C574 C572 1.378 . S
C574 C575 1.367 . S
C575 C574 1.367 . S
C575 C577 1.433 . S
C576 C572 1.350 . S
C576 C573 1.463 1_565 S
C576 N580 1.427 . S
C577 H567 0.929 . S
C577 C575 1.433 . S
C577 N580 1.384 . S
C578 H569 0.929 . S
C578 C570 1.378 . S
C578 C573 1.350 . S
C579 H566 0.929 . S
C579 C571 1.433 . S
C579 N581 1.384 . S
N580 C576 1.427 . S
N580 C577 1.384 . S
N581 C573 1.427 . S
N581 C579 1.384 . S
H582 C588 0.930 . S
H583 C592 0.930 . S
H584 C597 0.929 . S
H585 C595 0.929 . S
H586 C590 0.929 . S
H587 C596 0.929 . S
C588 H582 0.930 . S
C588 C589 1.367 . S
C588 C596 1.378 . S
C589 C588 1.367 . S
C589 C597 1.433 . S
C590 H586 0.929 . S
C590 C592 1.378 . S
C590 C594 1.350 . S
C591 C594 1.463 1_455 S
C591 C596 1.350 . S
C591 N599 1.427 . S
C592 H583 0.930 . S
C592 C590 1.378 . S
C592 C593 1.367 . S
C593 C592 1.367 . S
C593 C595 1.433 . S
C594 C590 1.350 . S
C594 C591 1.463 1_655 S
C594 N598 1.427 . S
C595 H585 0.929 . S
C595 C593 1.433 . S
C595 N598 1.384 . S
C596 H587 0.929 . S
C596 C588 1.378 . S
C596 C591 1.350 . S
C597 H584 0.929 . S
C597 C589 1.433 . S
C597 N599 1.384 . S
N598 C594 1.427 . S
N598 C595 1.384 . S
N599 C591 1.427 . S
N599 C597 1.384 . S
H600 C606 0.930 . S
H601 C610 0.930 . S
H602 C615 0.929 . S
H603 C613 0.929 . S
H604 C608 0.929 . S
H605 C614 0.929 . S
C606 H600 0.930 . S
C606 C607 1.367 . S
C606 C614 1.378 . S
C607 C606 1.367 . S
C607 C615 1.433 . S
C608 H604 0.929 . S
C608 C610 1.378 . S
C608 C612 1.350 . S
C609 C612 1.463 1_565 S
C609 C614 1.350 . S
C609 N617 1.427 . S
C610 H601 0.930 . S
C610 C608 1.378 . S
C610 C611 1.367 . S
C611 C610 1.367 . S
C611 C613 1.433 . S
C612 C608 1.350 . S
C612 C609 1.463 1_545 S
C612 N616 1.427 . S
C613 H603 0.929 . S
C613 C611 1.433 . S
C613 N616 1.384 . S
C614 H605 0.929 . S
C614 C606 1.378 . S
C614 C609 1.350 . S
C615 H602 0.929 . S
C615 C607 1.433 . S
C615 N617 1.384 . S
N616 C612 1.427 . S
N616 C613 1.384 . S
N617 C609 1.427 . S
N617 C615 1.384 . S
H618 C624 0.930 . S
H619 C628 0.930 . S
H620 C633 0.929 . S
H621 C631 0.929 . S
H622 C626 0.929 . S
H623 C632 0.929 . S
C624 H618 0.930 . S
C624 C625 1.367 . S
C624 C632 1.378 . S
C625 C624 1.367 . S
C625 C633 1.433 . S
C626 H622 0.929 . S
C626 C628 1.378 . S
C626 C630 1.350 . S
C627 C630 1.463 1_655 S
C627 C632 1.350 . S
C627 N635 1.427 . S
C628 H619 0.930 . S
C628 C626 1.378 . S
C628 C629 1.367 . S
C629 C628 1.367 . S
C629 C631 1.433 . S
C630 C626 1.350 . S
C630 C627 1.463 1_455 S
C630 N634 1.427 . S
C631 H621 0.929 . S
C631 C629 1.433 . S
C631 N634 1.384 . S
C632 H623 0.929 . S
C632 C624 1.378 . S
C632 C627 1.350 . S
C633 H620 0.929 . S
C633 C625 1.433 . S
C633 N635 1.384 . S
N634 C630 1.427 . S
N634 C631 1.384 . S
N635 C627 1.427 . S
N635 C633 1.384 . S
H636 C642 0.930 . S
H637 C646 0.930 . S
H638 C651 0.929 . S
H639 C649 0.929 . S
H640 C644 0.929 . S
H641 C650 0.929 . S
C642 H636 0.930 . S
C642 C643 1.367 . S
C642 C650 1.378 . S
C643 C642 1.367 . S
C643 C651 1.433 . S
C644 H640 0.929 . S
C644 C646 1.378 . S
C644 C648 1.350 . S
C645 C648 1.463 1_565 S
C645 C650 1.350 . S
C645 N653 1.427 . S
C646 H637 0.930 . S
C646 C644 1.378 . S
C646 C647 1.367 . S
C647 C646 1.367 . S
C647 C649 1.433 . S
C648 C644 1.350 . S
C648 C645 1.463 1_545 S
C648 N652 1.427 . S
C649 H639 0.929 . S
C649 C647 1.433 . S
C649 N652 1.384 . S
C650 H641 0.929 . S
C650 C642 1.378 . S
C650 C645 1.350 . S
C651 H638 0.929 . S
C651 C643 1.433 . S
C651 N653 1.384 . S
N652 C648 1.427 . S
N652 C649 1.384 . S
N653 C645 1.427 . S
N653 C651 1.384 . S
H654 C660 0.930 . S
H655 C664 0.930 . S
H656 C669 0.929 . S
H657 C667 0.929 . S
H658 C662 0.929 1_455 S
H659 C668 0.929 1_655 S
C660 H654 0.930 . S
C660 C661 1.367 . S
C660 C668 1.378 . S
C661 C660 1.367 . S
C661 C669 1.433 . S
C662 H658 0.929 1_655 S
C662 C664 1.378 . S
C662 C666 1.350 . S
C663 C666 1.463 1_455 S
C663 C668 1.350 . S
C663 N671 1.427 . S
C664 H655 0.930 . S
C664 C662 1.378 . S
C664 C665 1.367 . S
C665 C664 1.367 . S
C665 C667 1.433 . S
C666 C662 1.350 . S
C666 C663 1.463 1_655 S
C666 N670 1.427 . S
C667 H657 0.929 . S
C667 C665 1.433 . S
C667 N670 1.384 . S
C668 H659 0.929 1_455 S
C668 C660 1.378 . S
C668 C663 1.350 . S
C669 H656 0.929 . S
C669 C661 1.433 . S
C669 N671 1.384 . S
N670 C666 1.427 . S
N670 C667 1.384 . S
N671 C663 1.427 . S
N671 C669 1.384 . S
H672 C678 0.930 . S
H673 C682 0.930 . S
H674 C687 0.929 . S
H675 C685 0.929 . S
H676 C680 0.929 1_556 S
H677 C686 0.929 1_554 S
C678 H672 0.930 . S
C678 C679 1.367 . S
C678 C686 1.378 . S
C679 C678 1.367 . S
C679 C687 1.433 . S
C680 H676 0.929 1_554 S
C680 C682 1.378 . S
C680 C684 1.350 . S
C681 C684 1.463 1_556 S
C681 C686 1.350 . S
C681 N689 1.427 . S
C682 H673 0.930 . S
C682 C680 1.378 . S
C682 C683 1.367 . S
C683 C682 1.367 . S
C683 C685 1.433 . S
C684 C680 1.350 . S
C684 C681 1.463 1_554 S
C684 N688 1.427 . S
C685 H675 0.929 . S
C685 C683 1.433 . S
C685 N688 1.384 . S
C686 H677 0.929 1_556 S
C686 C678 1.378 . S
C686 C681 1.350 . S
C687 H674 0.929 . S
C687 C679 1.433 . S
C687 N689 1.384 . S
N688 C684 1.427 . S
N688 C685 1.384 . S
N689 C681 1.427 . S
N689 C687 1.384 . S
H690 C696 0.930 . S
H691 C700 0.930 . S
H692 C705 0.929 . S
H693 C703 0.929 . S
H694 C698 0.929 . S
H695 C704 0.929 . S
C696 H690 0.930 . S
C696 C697 1.367 . S
C696 C704 1.378 . S
C697 C696 1.367 . S
C697 C705 1.433 . S
C698 H694 0.929 . S
C698 C700 1.378 . S
C698 C702 1.350 . S
C699 C702 1.463 1_554 S
C699 C704 1.350 . S
C699 N707 1.427 . S
C700 H691 0.930 . S
C700 C698 1.378 . S
C700 C701 1.367 . S
C701 C700 1.367 . S
C701 C703 1.433 . S
C702 C698 1.350 . S
C702 C699 1.463 1_556 S
C702 N706 1.427 . S
C703 H693 0.929 . S
C703 C701 1.433 . S
C703 N706 1.384 . S
C704 H695 0.929 . S
C704 C696 1.378 . S
C704 C699 1.350 . S
C705 H692 0.929 . S
C705 C697 1.433 . S
C705 N707 1.384 . S
N706 C702 1.427 . S
N706 C703 1.384 . S
N707 C699 1.427 . S
N707 C705 1.384 . S
H708 C714 0.930 . S
H709 C718 0.930 . S
H710 C723 0.929 . S
H711 C721 0.929 . S
H712 C716 0.929 . S
H713 C722 0.929 . S
C714 H708 0.930 . S
C714 C715 1.367 . S
C714 C722 1.378 . S
C715 C714 1.367 . S
C715 C723 1.433 . S
C716 H712 0.929 . S
C716 C718 1.378 . S
C716 C720 1.350 . S
C717 C720 1.463 1_556 S
C717 C722 1.350 . S
C717 N725 1.427 . S
C718 H709 0.930 . S
C718 C716 1.378 . S
C718 C719 1.367 . S
C719 C718 1.367 . S
C719 C721 1.433 . S
C720 C716 1.350 . S
C720 C717 1.463 1_554 S
C720 N724 1.427 . S
C721 H711 0.929 . S
C721 C719 1.433 . S
C721 N724 1.384 . S
C722 H713 0.929 . S
C722 C714 1.378 . S
C722 C717 1.350 . S
C723 H710 0.929 . S
C723 C715 1.433 . S
C723 N725 1.384 . S
N724 C720 1.427 . S
N724 C721 1.384 . S
N725 C717 1.427 . S
N725 C723 1.384 . S
H726 C732 0.930 . S
H727 C736 0.930 . S
H728 C741 0.929 . S
H729 C739 0.929 . S
H730 C734 0.929 . S
H731 C740 0.929 . S
C732 H726 0.930 . S
C732 C733 1.367 . S
C732 C740 1.378 . S
C733 C732 1.367 . S
C733 C741 1.433 . S
C734 H730 0.929 . S
C734 C736 1.378 . S
C734 C738 1.350 . S
C735 C738 1.463 1_554 S
C735 C740 1.350 . S
C735 N743 1.427 . S
C736 H727 0.930 . S
C736 C734 1.378 . S
C736 C737 1.367 . S
C737 C736 1.367 . S
C737 C739 1.433 . S
C738 C734 1.350 . S
C738 C735 1.463 1_556 S
C738 N742 1.427 . S
C739 H729 0.929 . S
C739 C737 1.433 . S
C739 N742 1.384 . S
C740 H731 0.929 . S
C740 C732 1.378 . S
C740 C735 1.350 . S
C741 H728 0.929 . S
C741 C733 1.433 . S
C741 N743 1.384 . S
N742 C738 1.427 . S
N742 C739 1.384 . S
N743 C735 1.427 . S
N743 C741 1.384 . S
H744 C750 0.930 . S
H745 C754 0.930 . S
H746 C759 0.929 . S
H747 C757 0.929 . S
H748 C752 0.929 . S
H749 C758 0.929 . S
C750 H744 0.930 . S
C750 C751 1.367 . S
C750 C758 1.378 . S
C751 C750 1.367 . S
C751 C759 1.433 . S
C752 H748 0.929 . S
C752 C754 1.378 . S
C752 C756 1.350 . S
C753 C756 1.463 . S
C753 C758 1.350 . S
C753 N761 1.427 . S
C754 H745 0.930 . S
C754 C752 1.378 . S
C754 C755 1.367 . S
C755 C754 1.367 . S
C755 C757 1.433 . S
C756 C752 1.350 . S
C756 C753 1.463 . S
C756 N760 1.427 . S
C757 H747 0.929 . S
C757 C755 1.433 . S
C757 N760 1.384 . S
C758 H749 0.929 . S
C758 C750 1.378 . S
C758 C753 1.350 . S
C759 H746 0.929 . S
C759 C751 1.433 . S
C759 N761 1.384 . S
N760 C756 1.427 . S
N760 C757 1.384 . S
N761 C753 1.427 . S
N761 C759 1.384 . S
H762 C768 0.930 . S
H763 C772 0.930 . S
H764 C777 0.929 . S
H765 C775 0.929 . S
H766 C770 0.929 . S
H767 C776 0.929 . S
C768 H762 0.930 . S
C768 C769 1.367 . S
C768 C776 1.378 . S
C769 C768 1.367 . S
C769 C777 1.433 . S
C770 H766 0.929 . S
C770 C772 1.378 . S
C770 C774 1.350 . S
C771 C774 1.463 . S
C771 C776 1.350 . S
C771 N779 1.427 . S
C772 H763 0.930 . S
C772 C770 1.378 . S
C772 C773 1.367 . S
C773 C772 1.367 . S
C773 C775 1.433 . S
C774 C770 1.350 . S
C774 C771 1.463 . S
C774 N778 1.427 . S
C775 H765 0.929 . S
C775 C773 1.433 . S
C775 N778 1.384 . S
C776 H767 0.929 . S
C776 C768 1.378 . S
C776 C771 1.350 . S
C777 H764 0.929 . S
C777 C769 1.433 . S
C777 N779 1.384 . S
N778 C774 1.427 . S
N778 C775 1.384 . S
N779 C771 1.427 . S
N779 C777 1.384 . S
H780 C786 0.930 . S
H781 C790 0.930 . S
H782 C795 0.929 . S
H783 C793 0.929 . S
H784 C788 0.929 . S
H785 C794 0.929 . S
C786 H780 0.930 . S
C786 C787 1.367 . S
C786 C794 1.378 . S
C787 C786 1.367 . S
C787 C795 1.433 . S
C788 H784 0.929 . S
C788 C790 1.378 . S
C788 C792 1.350 . S
C789 C792 1.463 . S
C789 C794 1.350 . S
C789 N797 1.427 . S
C790 H781 0.930 . S
C790 C788 1.378 . S
C790 C791 1.367 . S
C791 C790 1.367 . S
C791 C793 1.433 . S
C792 C788 1.350 . S
C792 C789 1.463 . S
C792 N796 1.427 . S
C793 H783 0.929 . S
C793 C791 1.433 . S
C793 N796 1.384 . S
C794 H785 0.929 . S
C794 C786 1.378 . S
C794 C789 1.350 . S
C795 H782 0.929 . S
C795 C787 1.433 . S
C795 N797 1.384 . S
N796 C792 1.427 . S
N796 C793 1.384 . S
N797 C789 1.427 . S
N797 C795 1.384 . S
H798 C804 0.930 . S
H799 C808 0.930 . S
H800 C813 0.929 . S
H801 C811 0.929 . S
H802 C806 0.929 . S
H803 C812 0.929 . S
C804 H798 0.930 . S
C804 C805 1.367 . S
C804 C812 1.378 . S
C805 C804 1.367 . S
C805 C813 1.433 . S
C806 H802 0.929 . S
C806 C808 1.378 . S
C806 C810 1.350 . S
C807 C810 1.463 . S
C807 C812 1.350 . S
C807 N815 1.427 . S
C808 H799 0.930 . S
C808 C806 1.378 . S
C808 C809 1.367 . S
C809 C808 1.367 . S
C809 C811 1.433 . S
C810 C806 1.350 . S
C810 C807 1.463 . S
C810 N814 1.427 . S
C811 H801 0.929 . S
C811 C809 1.433 . S
C811 N814 1.384 . S
C812 H803 0.929 . S
C812 C804 1.378 . S
C812 C807 1.350 . S
C813 H800 0.929 . S
C813 C805 1.433 . S
C813 N815 1.384 . S
N814 C810 1.427 . S
N814 C811 1.384 . S
N815 C807 1.427 . S
N815 C813 1.384 . S
H816 C822 0.930 . S
H817 C826 0.930 . S
H818 C831 0.929 . S
H819 C829 0.929 . S
H820 C824 0.929 . S
H821 C830 0.929 . S
C822 H816 0.930 . S
C822 C823 1.367 . S
C822 C830 1.378 . S
C823 C822 1.367 . S
C823 C831 1.433 . S
C824 H820 0.929 . S
C824 C826 1.378 . S
C824 C828 1.350 . S
C825 C828 1.463 . S
C825 C830 1.350 . S
C825 N833 1.427 . S
C826 H817 0.930 . S
C826 C824 1.378 . S
C826 C827 1.367 . S
C827 C826 1.367 . S
C827 C829 1.433 . S
C828 C824 1.350 . S
C828 C825 1.463 . S
C828 N832 1.427 . S
C829 H819 0.929 . S
C829 C827 1.433 . S
C829 N832 1.384 . S
C830 H821 0.929 . S
C830 C822 1.378 . S
C830 C825 1.350 . S
C831 H818 0.929 . S
C831 C823 1.433 . S
C831 N833 1.384 . S
N832 C828 1.427 . S
N832 C829 1.384 . S
N833 C825 1.427 . S
N833 C831 1.384 . S
H834 C840 0.930 . S
H835 C844 0.930 . S
H836 C849 0.929 . S
H837 C847 0.929 . S
H838 C842 0.929 . S
H839 C848 0.929 . S
C840 H834 0.930 . S
C840 C841 1.367 . S
C840 C848 1.378 . S
C841 C840 1.367 . S
C841 C849 1.433 . S
C842 H838 0.929 . S
C842 C844 1.378 . S
C842 C846 1.350 . S
C843 C846 1.463 . S
C843 C848 1.350 . S
C843 N851 1.427 . S
C844 H835 0.930 . S
C844 C842 1.378 . S
C844 C845 1.367 . S
C845 C844 1.367 . S
C845 C847 1.433 . S
C846 C842 1.350 . S
C846 C843 1.463 . S
C846 N850 1.427 . S
C847 H837 0.929 . S
C847 C845 1.433 . S
C847 N850 1.384 . S
C848 H839 0.929 . S
C848 C840 1.378 . S
C848 C843 1.350 . S
C849 H836 0.929 . S
C849 C841 1.433 . S
C849 N851 1.384 . S
N850 C846 1.427 . S
N850 C847 1.384 . S
N851 C843 1.427 . S
N851 C849 1.384 . S
H852 C858 0.930 . S
H853 C862 0.930 . S
H854 C867 0.929 . S
H855 C865 0.929 . S
H856 C860 0.929 . S
H857 C866 0.929 . S
C858 H852 0.930 . S
C858 C859 1.367 . S
C858 C866 1.378 . S
C859 C858 1.367 . S
C859 C867 1.433 . S
C860 H856 0.929 . S
C860 C862 1.378 . S
C860 C864 1.350 . S
C861 C864 1.463 . S
C861 C866 1.350 . S
C861 N869 1.427 . S
C862 H853 0.930 . S
C862 C860 1.378 . S
C862 C863 1.367 . S
C863 C862 1.367 . S
C863 C865 1.433 . S
C864 C860 1.350 . S
C864 C861 1.463 . S
C864 N868 1.427 . S
C865 H855 0.929 . S
C865 C863 1.433 . S
C865 N868 1.384 . S
C866 H857 0.929 . S
C866 C858 1.378 . S
C866 C861 1.350 . S
C867 H854 0.929 . S
C867 C859 1.433 . S
C867 N869 1.384 . S
N868 C864 1.427 . S
N868 C865 1.384 . S
N869 C861 1.427 . S
N869 C867 1.384 . S
H870 C876 0.930 . S
H871 C880 0.930 . S
H872 C885 0.929 . S
H873 C883 0.929 . S
H874 C878 0.929 . S
H875 C884 0.929 . S
C876 H870 0.930 . S
C876 C877 1.367 . S
C876 C884 1.378 . S
C877 C876 1.367 . S
C877 C885 1.433 . S
C878 H874 0.929 . S
C878 C880 1.378 . S
C878 C882 1.350 . S
C879 C882 1.463 . S
C879 C884 1.350 . S
C879 N887 1.427 . S
C880 H871 0.930 . S
C880 C878 1.378 . S
C880 C881 1.367 . S
C881 C880 1.367 . S
C881 C883 1.433 . S
C882 C878 1.350 . S
C882 C879 1.463 . S
C882 N886 1.427 . S
C883 H873 0.929 . S
C883 C881 1.433 . S
C883 N886 1.384 . S
C884 H875 0.929 . S
C884 C876 1.378 . S
C884 C879 1.350 . S
C885 H872 0.929 . S
C885 C877 1.433 . S
C885 N887 1.384 . S
N886 C882 1.427 . S
N886 C883 1.384 . S
N887 C879 1.427 . S
N887 C885 1.384 . S
H888 C894 0.930 . S
H889 C898 0.930 . S
H890 C903 0.929 . S
H891 C901 0.929 . S
H892 C896 0.929 . S
H893 C902 0.929 . S
C894 H888 0.930 . S
C894 C895 1.367 . S
C894 C902 1.378 . S
C895 C894 1.367 . S
C895 C903 1.433 . S
C896 H892 0.929 . S
C896 C898 1.378 . S
C896 C900 1.350 . S
C897 C900 1.463 . S
C897 C902 1.350 . S
C897 N905 1.427 . S
C898 H889 0.930 . S
C898 C896 1.378 . S
C898 C899 1.367 . S
C899 C898 1.367 . S
C899 C901 1.433 . S
C900 C896 1.350 . S
C900 C897 1.463 . S
C900 N904 1.427 . S
C901 H891 0.929 . S
C901 C899 1.433 . S
C901 N904 1.384 . S
C902 H893 0.929 . S
C902 C894 1.378 . S
C902 C897 1.350 . S
C903 H890 0.929 . S
C903 C895 1.433 . S
C903 N905 1.384 . S
N904 C900 1.427 . S
N904 C901 1.384 . S
N905 C897 1.427 . S
N905 C903 1.384 . S
H906 C912 0.930 . S
H907 C916 0.930 . S
H908 C921 0.929 . S
H909 C919 0.929 . S
H910 C914 0.929 . S
H911 C920 0.929 . S
C912 H906 0.930 . S
C912 C913 1.367 . S
C912 C920 1.378 . S
C913 C912 1.367 . S
C913 C921 1.433 . S
C914 H910 0.929 . S
C914 C916 1.378 . S
C914 C918 1.350 . S
C915 C918 1.463 . S
C915 C920 1.350 . S
C915 N923 1.427 . S
C916 H907 0.930 . S
C916 C914 1.378 . S
C916 C917 1.367 . S
C917 C916 1.367 . S
C917 C919 1.433 . S
C918 C914 1.350 . S
C918 C915 1.463 . S
C918 N922 1.427 . S
C919 H909 0.929 . S
C919 C917 1.433 . S
C919 N922 1.384 . S
C920 H911 0.929 . S
C920 C912 1.378 . S
C920 C915 1.350 . S
C921 H908 0.929 . S
C921 C913 1.433 . S
C921 N923 1.384 . S
N922 C918 1.427 . S
N922 C919 1.384 . S
N923 C915 1.427 . S
N923 C921 1.384 . S
H924 C930 0.930 . S
H925 C934 0.930 . S
H926 C939 0.929 . S
H927 C937 0.929 . S
H928 C932 0.929 . S
H929 C938 0.929 . S
C930 H924 0.930 . S
C930 C931 1.367 . S
C930 C938 1.378 . S
C931 C930 1.367 . S
C931 C939 1.433 . S
C932 H928 0.929 . S
C932 C934 1.378 . S
C932 C936 1.350 . S
C933 C936 1.463 . S
C933 C938 1.350 . S
C933 N941 1.427 . S
C934 H925 0.930 . S
C934 C932 1.378 . S
C934 C935 1.367 . S
C935 C934 1.367 . S
C935 C937 1.433 . S
C936 C932 1.350 . S
C936 C933 1.463 . S
C936 N940 1.427 . S
C937 H927 0.929 . S
C937 C935 1.433 . S
C937 N940 1.384 . S
C938 H929 0.929 . S
C938 C930 1.378 . S
C938 C933 1.350 . S
C939 H926 0.929 . S
C939 C931 1.433 . S
C939 N941 1.384 . S
N940 C936 1.427 . S
N940 C937 1.384 . S
N941 C933 1.427 . S
N941 C939 1.384 . S
H942 C948 0.930 . S
H943 C952 0.930 . S
H944 C957 0.929 . S
H945 C955 0.929 . S
H946 C950 0.929 . S
H947 C956 0.929 . S
C948 H942 0.930 . S
C948 C949 1.367 . S
C948 C956 1.378 . S
C949 C948 1.367 . S
C949 C957 1.433 . S
C950 H946 0.929 . S
C950 C952 1.378 . S
C950 C954 1.350 . S
C951 C954 1.463 . S
C951 C956 1.350 . S
C951 N959 1.427 . S
C952 H943 0.930 . S
C952 C950 1.378 . S
C952 C953 1.367 . S
C953 C952 1.367 . S
C953 C955 1.433 . S
C954 C950 1.350 . S
C954 C951 1.463 . S
C954 N958 1.427 . S
C955 H945 0.929 . S
C955 C953 1.433 . S
C955 N958 1.384 . S
C956 H947 0.929 . S
C956 C948 1.378 . S
C956 C951 1.350 . S
C957 H944 0.929 . S
C957 C949 1.433 . S
C957 N959 1.384 . S
N958 C954 1.427 . S
N958 C955 1.384 . S
N959 C951 1.427 . S
N959 C957 1.384 . S
H960 C966 0.930 . S
H961 C970 0.930 . S
H962 C975 0.929 . S
H963 C973 0.929 . S
H964 C968 0.929 . S
H965 C974 0.929 . S
C966 H960 0.930 . S
C966 C967 1.367 . S
C966 C974 1.378 . S
C967 C966 1.367 . S
C967 C975 1.433 . S
C968 H964 0.929 . S
C968 C970 1.378 . S
C968 C972 1.350 . S
C969 C972 1.463 . S
C969 C974 1.350 . S
C969 N977 1.427 . S
C970 H961 0.930 . S
C970 C968 1.378 . S
C970 C971 1.367 . S
C971 C970 1.367 . S
C971 C973 1.433 . S
C972 C968 1.350 . S
C972 C969 1.463 . S
C972 N976 1.427 . S
C973 H963 0.929 . S
C973 C971 1.433 . S
C973 N976 1.384 . S
C974 H965 0.929 . S
C974 C966 1.378 . S
C974 C969 1.350 . S
C975 H962 0.929 . S
C975 C967 1.433 . S
C975 N977 1.384 . S
N976 C972 1.427 . S
N976 C973 1.384 . S
N977 C969 1.427 . S
N977 C975 1.384 . S
H978 C984 0.930 . S
H979 C988 0.930 . S
H980 C993 0.929 . S
H981 C991 0.929 . S
H982 C986 0.929 . S
H983 C992 0.929 . S
C984 H978 0.930 . S
C984 C985 1.367 . S
C984 C992 1.378 . S
C985 C984 1.367 . S
C985 C993 1.433 . S
C986 H982 0.929 . S
C986 C988 1.378 . S
C986 C990 1.350 . S
C987 C990 1.463 . S
C987 C992 1.350 . S
C987 N995 1.427 . S
C988 H979 0.930 . S
C988 C986 1.378 . S
C988 C989 1.367 . S
C989 C988 1.367 . S
C989 C991 1.433 . S
C990 C986 1.350 . S
C990 C987 1.463 . S
C990 N994 1.427 . S
C991 H981 0.929 . S
C991 C989 1.433 . S
C991 N994 1.384 . S
C992 H983 0.929 . S
C992 C984 1.378 . S
C992 C987 1.350 . S
C993 H980 0.929 . S
C993 C985 1.433 . S
C993 N995 1.384 . S
N994 C990 1.427 . S
N994 C991 1.384 . S
N995 C987 1.427 . S
N995 C993 1.384 . S
H996 C1002 0.930 . S
H997 C1006 0.930 . S
H998 C1011 0.929 . S
H999 C1009 0.929 . S
H1000 C1004 0.929 . S
H1001 C1010 0.929 . S
C1002 H996 0.930 . S
C1002 C1003 1.367 . S
C1002 C1010 1.378 . S
C1003 C1002 1.367 . S
C1003 C1011 1.433 . S
C1004 H1000 0.929 . S
C1004 C1006 1.378 . S
C1004 C1008 1.350 . S
C1005 C1008 1.463 . S
C1005 C1010 1.350 . S
C1005 N1013 1.427 . S
C1006 H997 0.930 . S
C1006 C1004 1.378 . S
C1006 C1007 1.367 . S
C1007 C1006 1.367 . S
C1007 C1009 1.433 . S
C1008 C1004 1.350 . S
C1008 C1005 1.463 . S
C1008 N1012 1.427 . S
C1009 H999 0.929 . S
C1009 C1007 1.433 . S
C1009 N1012 1.384 . S
C1010 H1001 0.929 . S
C1010 C1002 1.378 . S
C1010 C1005 1.350 . S
C1011 H998 0.929 . S
C1011 C1003 1.433 . S
C1011 N1013 1.384 . S
N1012 C1008 1.427 . S
N1012 C1009 1.384 . S
N1013 C1005 1.427 . S
N1013 C1011 1.384 . S
H1014 C1020 0.930 . S
H1015 C1024 0.930 . S
H1016 C1029 0.929 . S
H1017 C1027 0.929 . S
H1018 C1022 0.929 . S
H1019 C1028 0.929 . S
C1020 H1014 0.930 . S
C1020 C1021 1.367 . S
C1020 C1028 1.378 . S
C1021 C1020 1.367 . S
C1021 C1029 1.433 . S
C1022 H1018 0.929 . S
C1022 C1024 1.378 . S
C1022 C1026 1.350 . S
C1023 C1026 1.463 . S
C1023 C1028 1.350 . S
C1023 N1031 1.427 . S
C1024 H1015 0.930 . S
C1024 C1022 1.378 . S
C1024 C1025 1.367 . S
C1025 C1024 1.367 . S
C1025 C1027 1.433 . S
C1026 C1022 1.350 . S
C1026 C1023 1.463 . S
C1026 N1030 1.427 . S
C1027 H1017 0.929 . S
C1027 C1025 1.433 . S
C1027 N1030 1.384 . S
C1028 H1019 0.929 . S
C1028 C1020 1.378 . S
C1028 C1023 1.350 . S
C1029 H1016 0.929 . S
C1029 C1021 1.433 . S
C1029 N1031 1.384 . S
N1030 C1026 1.427 . S
N1030 C1027 1.384 . S
N1031 C1023 1.427 . S
N1031 C1029 1.384 . S
H1032 C1038 0.930 . S
H1033 C1042 0.930 . S
H1034 C1047 0.929 . S
H1035 C1045 0.929 . S
H1036 C1040 0.929 . S
H1037 C1046 0.929 . S
C1038 H1032 0.930 . S
C1038 C1039 1.367 . S
C1038 C1046 1.378 . S
C1039 C1038 1.367 . S
C1039 C1047 1.433 . S
C1040 H1036 0.929 . S
C1040 C1042 1.378 . S
C1040 C1044 1.350 . S
C1041 C1044 1.463 . S
C1041 C1046 1.350 . S
C1041 N1049 1.427 . S
C1042 H1033 0.930 . S
C1042 C1040 1.378 . S
C1042 C1043 1.367 . S
C1043 C1042 1.367 . S
C1043 C1045 1.433 . S
C1044 C1040 1.350 . S
C1044 C1041 1.463 . S
C1044 N1048 1.427 . S
C1045 H1035 0.929 . S
C1045 C1043 1.433 . S
C1045 N1048 1.384 . S
C1046 H1037 0.929 . S
C1046 C1038 1.378 . S
C1046 C1041 1.350 . S
C1047 H1034 0.929 . S
C1047 C1039 1.433 . S
C1047 N1049 1.384 . S
N1048 C1044 1.427 . S
N1048 C1045 1.384 . S
N1049 C1041 1.427 . S
N1049 C1047 1.384 . S
H1050 C1056 0.930 . S
H1051 C1060 0.930 . S
H1052 C1065 0.929 . S
H1053 C1063 0.929 . S
H1054 C1058 0.929 . S
H1055 C1064 0.929 . S
C1056 H1050 0.930 . S
C1056 C1057 1.367 . S
C1056 C1064 1.378 . S
C1057 C1056 1.367 . S
C1057 C1065 1.433 . S
C1058 H1054 0.929 . S
C1058 C1060 1.378 . S
C1058 C1062 1.350 . S
C1059 C1062 1.463 . S
C1059 C1064 1.350 . S
C1059 N1067 1.427 . S
C1060 H1051 0.930 . S
C1060 C1058 1.378 . S
C1060 C1061 1.367 . S
C1061 C1060 1.367 . S
C1061 C1063 1.433 . S
C1062 C1058 1.350 . S
C1062 C1059 1.463 . S
C1062 N1066 1.427 . S
C1063 H1053 0.929 . S
C1063 C1061 1.433 . S
C1063 N1066 1.384 . S
C1064 H1055 0.929 . S
C1064 C1056 1.378 . S
C1064 C1059 1.350 . S
C1065 H1052 0.929 . S
C1065 C1057 1.433 . S
C1065 N1067 1.384 . S
N1066 C1062 1.427 . S
N1066 C1063 1.384 . S
N1067 C1059 1.427 . S
N1067 C1065 1.384 . S
H1068 C1074 0.930 . S
H1069 C1078 0.930 . S
H1070 C1083 0.929 . S
H1071 C1081 0.929 . S
H1072 C1076 0.929 . S
H1073 C1082 0.929 . S
C1074 H1068 0.930 . S
C1074 C1075 1.367 . S
C1074 C1082 1.378 . S
C1075 C1074 1.367 . S
C1075 C1083 1.433 . S
C1076 H1072 0.929 . S
C1076 C1078 1.378 . S
C1076 C1080 1.350 . S
C1077 C1080 1.463 . S
C1077 C1082 1.350 . S
C1077 N1085 1.427 . S
C1078 H1069 0.930 . S
C1078 C1076 1.378 . S
C1078 C1079 1.367 . S
C1079 C1078 1.367 . S
C1079 C1081 1.433 . S
C1080 C1076 1.350 . S
C1080 C1077 1.463 . S
C1080 N1084 1.427 . S
C1081 H1071 0.929 . S
C1081 C1079 1.433 . S
C1081 N1084 1.384 . S
C1082 H1073 0.929 . S
C1082 C1074 1.378 . S
C1082 C1077 1.350 . S
C1083 H1070 0.929 . S
C1083 C1075 1.433 . S
C1083 N1085 1.384 . S
N1084 C1080 1.427 . S
N1084 C1081 1.384 . S
N1085 C1077 1.427 . S
N1085 C1083 1.384 . S
H1086 C1092 0.930 . S
H1087 C1096 0.930 . S
H1088 C1101 0.929 . S
H1089 C1099 0.929 . S
H1090 C1094 0.929 . S
H1091 C1100 0.929 . S
C1092 H1086 0.930 . S
C1092 C1093 1.367 . S
C1092 C1100 1.378 . S
C1093 C1092 1.367 . S
C1093 C1101 1.433 . S
C1094 H1090 0.929 . S
C1094 C1096 1.378 . S
C1094 C1098 1.350 . S
C1095 C1098 1.463 . S
C1095 C1100 1.350 . S
C1095 N1103 1.427 . S
C1096 H1087 0.930 . S
C1096 C1094 1.378 . S
C1096 C1097 1.367 . S
C1097 C1096 1.367 . S
C1097 C1099 1.433 . S
C1098 C1094 1.350 . S
C1098 C1095 1.463 . S
C1098 N1102 1.427 . S
C1099 H1089 0.929 . S
C1099 C1097 1.433 . S
C1099 N1102 1.384 . S
C1100 H1091 0.929 . S
C1100 C1092 1.378 . S
C1100 C1095 1.350 . S
C1101 H1088 0.929 . S
C1101 C1093 1.433 . S
C1101 N1103 1.384 . S
N1102 C1098 1.427 . S
N1102 C1099 1.384 . S
N1103 C1095 1.427 . S
N1103 C1101 1.384 . S
H1104 C1110 0.930 . S
H1105 C1114 0.930 . S
H1106 C1119 0.929 . S
H1107 C1117 0.929 . S
H1108 C1112 0.929 . S
H1109 C1118 0.929 . S
C1110 H1104 0.930 . S
C1110 C1111 1.367 . S
C1110 C1118 1.378 . S
C1111 C1110 1.367 . S
C1111 C1119 1.433 . S
C1112 H1108 0.929 . S
C1112 C1114 1.378 . S
C1112 C1116 1.350 . S
C1113 C1116 1.463 . S
C1113 C1118 1.350 . S
C1113 N1121 1.427 . S
C1114 H1105 0.930 . S
C1114 C1112 1.378 . S
C1114 C1115 1.367 . S
C1115 C1114 1.367 . S
C1115 C1117 1.433 . S
C1116 C1112 1.350 . S
C1116 C1113 1.463 . S
C1116 N1120 1.427 . S
C1117 H1107 0.929 . S
C1117 C1115 1.433 . S
C1117 N1120 1.384 . S
C1118 H1109 0.929 . S
C1118 C1110 1.378 . S
C1118 C1113 1.350 . S
C1119 H1106 0.929 . S
C1119 C1111 1.433 . S
C1119 N1121 1.384 . S
N1120 C1116 1.427 . S
N1120 C1117 1.384 . S
N1121 C1113 1.427 . S
N1121 C1119 1.384 . S
H1122 C1128 0.930 . S
H1123 C1132 0.930 . S
H1124 C1137 0.929 . S
H1125 C1135 0.929 . S
H1126 C1130 0.929 . S
H1127 C1136 0.929 . S
C1128 H1122 0.930 . S
C1128 C1129 1.367 . S
C1128 C1136 1.378 . S
C1129 C1128 1.367 . S
C1129 C1137 1.433 . S
C1130 H1126 0.929 . S
C1130 C1132 1.378 . S
C1130 C1134 1.350 . S
C1131 C1134 1.463 . S
C1131 C1136 1.350 . S
C1131 N1139 1.427 . S
C1132 H1123 0.930 . S
C1132 C1130 1.378 . S
C1132 C1133 1.367 . S
C1133 C1132 1.367 . S
C1133 C1135 1.433 . S
C1134 C1130 1.350 . S
C1134 C1131 1.463 . S
C1134 N1138 1.427 . S
C1135 H1125 0.929 . S
C1135 C1133 1.433 . S
C1135 N1138 1.384 . S
C1136 H1127 0.929 . S
C1136 C1128 1.378 . S
C1136 C1131 1.350 . S
C1137 H1124 0.929 . S
C1137 C1129 1.433 . S
C1137 N1139 1.384 . S
N1138 C1134 1.427 . S
N1138 C1135 1.384 . S
N1139 C1131 1.427 . S
N1139 C1137 1.384 . S
H1140 C1146 0.930 . S
H1141 C1150 0.930 . S
H1142 C1155 0.929 . S
H1143 C1153 0.929 . S
H1144 C1148 0.929 . S
H1145 C1154 0.929 . S
C1146 H1140 0.930 . S
C1146 C1147 1.367 . S
C1146 C1154 1.378 . S
C1147 C1146 1.367 . S
C1147 C1155 1.433 . S
C1148 H1144 0.929 . S
C1148 C1150 1.378 . S
C1148 C1152 1.350 . S
C1149 C1152 1.463 . S
C1149 C1154 1.350 . S
C1149 N1157 1.427 . S
C1150 H1141 0.930 . S
C1150 C1148 1.378 . S
C1150 C1151 1.367 . S
C1151 C1150 1.367 . S
C1151 C1153 1.433 . S
C1152 C1148 1.350 . S
C1152 C1149 1.463 . S
C1152 N1156 1.427 . S
C1153 H1143 0.929 . S
C1153 C1151 1.433 . S
C1153 N1156 1.384 . S
C1154 H1145 0.929 . S
C1154 C1146 1.378 . S
C1154 C1149 1.350 . S
C1155 H1142 0.929 . S
C1155 C1147 1.433 . S
C1155 N1157 1.384 . S
N1156 C1152 1.427 . S
N1156 C1153 1.384 . S
N1157 C1149 1.427 . S
N1157 C1155 1.384 . S
H1158 C1164 0.930 . S
H1159 C1168 0.930 . S
H1160 C1173 0.929 . S
H1161 C1171 0.929 . S
H1162 C1166 0.929 . S
H1163 C1172 0.929 . S
C1164 H1158 0.930 . S
C1164 C1165 1.367 . S
C1164 C1172 1.378 . S
C1165 C1164 1.367 . S
C1165 C1173 1.433 . S
C1166 H1162 0.929 . S
C1166 C1168 1.378 . S
C1166 C1170 1.350 . S
C1167 C1170 1.463 . S
C1167 C1172 1.350 . S
C1167 N1175 1.427 . S
C1168 H1159 0.930 . S
C1168 C1166 1.378 . S
C1168 C1169 1.367 . S
C1169 C1168 1.367 . S
C1169 C1171 1.433 . S
C1170 C1166 1.350 . S
C1170 C1167 1.463 . S
C1170 N1174 1.427 . S
C1171 H1161 0.929 . S
C1171 C1169 1.433 . S
C1171 N1174 1.384 . S
C1172 H1163 0.929 . S
C1172 C1164 1.378 . S
C1172 C1167 1.350 . S
C1173 H1160 0.929 . S
C1173 C1165 1.433 . S
C1173 N1175 1.384 . S
N1174 C1170 1.427 . S
N1174 C1171 1.384 . S
N1175 C1167 1.427 . S
N1175 C1173 1.384 . S
C319 C289 1.904 . S
C323 C3 1.908 . S
C337 C18 1.936 . S
C341 C213 1.936 . S
C355 C304 1.935 . S
C359 C29 1.900 . S
C373 C278 1.930 . S
C377 C44 1.928 . S
C391 C239 1.936 . S
C395 C55 1.906 . S
C409 C252 1.936 . S
C413 C70 1.935 . S
C427 C265 1.928 . S
C431 C81 1.908 . S
C445 C96 1.929 . S
C449 C226 1.931 . S
C463 C172 1.908 . S
C467 C107 1.897 . S
C481 C187 1.930 . S
C485 C120 1.897 . S
C499 C135 1.936 . S
C503 C198 1.904 . S
C517 C146 1.896 . S
C521 C161 1.929 . S
C535 C94 1.901 . S
C539 C185 1.909 . S
C553 C200 1.925 . S
C557 C57 1.926 . S
C571 C68 1.902 . S
C575 C159 1.898 . S
C589 C174 1.934 . S
C593 C83 1.932 . S
C607 C133 1.904 . S
C611 C16 1.897 . S
C625 C31 1.925 . S
C629 C148 1.925 . S
C643 C42 1.906 . S
C647 C109 1.926 . S
C661 C5 1.935 . S
C665 C122 1.936 . S
C679 C263 1.907 . S
C683 C276 1.905 . S
C697 C291 1.926 . S
C701 C224 1.899 . S
C715 C237 1.898 . S
C719 C211 1.903 . S
C733 C302 1.896 . S
C737 C250 1.907 . S
C751 C1 0.982 . S
C755 C114 1.001 . S
C769 C127 1.001 . S
C773 C23 1.015 . S
C787 C27 0.968 . S
C791 C131 0.971 . S
C805 C49 1.018 . S
C809 C153 1.011 . S
C823 C53 0.994 . S
C827 C157 0.986 . S
C841 C75 1.001 . S
C845 C179 1.013 . S
C859 C183 0.975 . S
C863 C79 0.985 . S
C877 C205 1.011 . S
C881 C101 1.000 . S
C895 C105 0.993 . S
C899 C209 0.985 . S
C913 C118 0.984 . S
C917 C300 0.974 . S
C931 C274 0.986 . S
C935 C140 1.002 . S
C949 C296 1.018 . S
C953 C144 0.992 . S
C967 C222 0.988 . S
C971 C166 1.019 . S
C985 C235 0.986 . S
C989 C170 0.994 . S
C1003 C192 1.008 . S
C1007 C248 0.994 . S
C1021 C196 0.981 . S
C1025 C261 0.991 . S
C1039 C10 1.017 . S
C1043 C218 1.003 . S
C1057 C231 1.004 . S
C1061 C62 1.004 . S
C1075 C244 1.001 . S
C1079 C66 0.975 . S
C1093 C257 1.003 . S
C1097 C88 1.004 . S
C1111 C270 1.007 . S
C1115 C92 0.994 . S
C1129 C283 1.002 . S
C1133 C36 1.016 . S
C1147 C40 0.975 . S
C1151 C287 0.985 . S
C1165 C309 1.001 . S
C1169 C14 0.984 . S
