# Generated by pormake.
# Topology lcy-e, (6)-cn, num edge types: 1
# Building blocks:
#     Node 0, Type 0, BuildingBlock: PAMTUU_clean_sbu_0, # of connection points: 6
#     Node 1, Type 0, BuildingBlock: PAMTUU_clean_sbu_0, # of connection points: 6
#     Node 2, Type 0, BuildingBlock: PAMTUU_clean_sbu_0, # of connection points: 6
#     Node 3, Type 0, BuildingBlock: PAMTUU_clean_sbu_0, # of connection points: 6
#     Node 4, Type 0, BuildingBlock: PAMTUU_clean_sbu_0, # of connection points: 6
#     Node 5, Type 0, BuildingBlock: PAMTUU_clean_sbu_0, # of connection points: 6
#     Node 6, Type 0, BuildingBlock: PAMTUU_clean_sbu_0, # of connection points: 6
#     Node 7, Type 0, BuildingBlock: PAMTUU_clean_sbu_0, # of connection points: 6
#     Node 8, Type 0, BuildingBlock: PAMTUU_clean_sbu_0, # of connection points: 6
#     Node 9, Type 0, BuildingBlock: PAMTUU_clean_sbu_0, # of connection points: 6
#     Node 10, Type 0, BuildingBlock: PAMTUU_clean_sbu_0, # of connection points: 6
#     Node 11, Type 0, BuildingBlock: PAMTUU_clean_sbu_0, # of connection points: 6
#     Edge 12, Type (0, 0), BuildingBlock: EZIPEK_clean_linker_0, # of connection points: 2
#     Edge 13, Type (0, 0), BuildingBlock: EZIPEK_clean_linker_0, # of connection points: 2
#     Edge 14, Type (0, 0), BuildingBlock: EZIPEK_clean_linker_0, # of connection points: 2
#     Edge 15, Type (0, 0), BuildingBlock: EZIPEK_clean_linker_0, # of connection points: 2
#     Edge 16, Type (0, 0), BuildingBlock: EZIPEK_clean_linker_0, # of connection points: 2
#     Edge 17, Type (0, 0), BuildingBlock: EZIPEK_clean_linker_0, # of connection points: 2
#     Edge 18, Type (0, 0), BuildingBlock: EZIPEK_clean_linker_0, # of connection points: 2
#     Edge 19, Type (0, 0), BuildingBlock: EZIPEK_clean_linker_0, # of connection points: 2
#     Edge 20, Type (0, 0), BuildingBlock: EZIPEK_clean_linker_0, # of connection points: 2
#     Edge 21, Type (0, 0), BuildingBlock: EZIPEK_clean_linker_0, # of connection points: 2
#     Edge 22, Type (0, 0), BuildingBlock: EZIPEK_clean_linker_0, # of connection points: 2
#     Edge 23, Type (0, 0), BuildingBlock: EZIPEK_clean_linker_0, # of connection points: 2
#     Edge 24, Type (0, 0), BuildingBlock: EZIPEK_clean_linker_0, # of connection points: 2
#     Edge 25, Type (0, 0), BuildingBlock: EZIPEK_clean_linker_0, # of connection points: 2
#     Edge 26, Type (0, 0), BuildingBlock: EZIPEK_clean_linker_0, # of connection points: 2
#     Edge 27, Type (0, 0), BuildingBlock: EZIPEK_clean_linker_0, # of connection points: 2
#     Edge 28, Type (0, 0), BuildingBlock: EZIPEK_clean_linker_0, # of connection points: 2
#     Edge 29, Type (0, 0), BuildingBlock: EZIPEK_clean_linker_0, # of connection points: 2
#     Edge 30, Type (0, 0), BuildingBlock: EZIPEK_clean_linker_0, # of connection points: 2
#     Edge 31, Type (0, 0), BuildingBlock: EZIPEK_clean_linker_0, # of connection points: 2
#     Edge 32, Type (0, 0), BuildingBlock: EZIPEK_clean_linker_0, # of connection points: 2
#     Edge 33, Type (0, 0), BuildingBlock: EZIPEK_clean_linker_0, # of connection points: 2
#     Edge 34, Type (0, 0), BuildingBlock: EZIPEK_clean_linker_0, # of connection points: 2
#     Edge 35, Type (0, 0), BuildingBlock: EZIPEK_clean_linker_0, # of connection points: 2
#     Edge 36, Type (0, 0), BuildingBlock: EZIPEK_clean_linker_0, # of connection points: 2
#     Edge 37, Type (0, 0), BuildingBlock: EZIPEK_clean_linker_0, # of connection points: 2
#     Edge 38, Type (0, 0), BuildingBlock: EZIPEK_clean_linker_0, # of connection points: 2
#     Edge 39, Type (0, 0), BuildingBlock: EZIPEK_clean_linker_0, # of connection points: 2
#     Edge 40, Type (0, 0), BuildingBlock: EZIPEK_clean_linker_0, # of connection points: 2
#     Edge 41, Type (0, 0), BuildingBlock: EZIPEK_clean_linker_0, # of connection points: 2
#     Edge 42, Type (0, 0), BuildingBlock: EZIPEK_clean_linker_0, # of connection points: 2
#     Edge 43, Type (0, 0), BuildingBlock: EZIPEK_clean_linker_0, # of connection points: 2
#     Edge 44, Type (0, 0), BuildingBlock: EZIPEK_clean_linker_0, # of connection points: 2
#     Edge 45, Type (0, 0), BuildingBlock: EZIPEK_clean_linker_0, # of connection points: 2
#     Edge 46, Type (0, 0), BuildingBlock: EZIPEK_clean_linker_0, # of connection points: 2
#     Edge 47, Type (0, 0), BuildingBlock: EZIPEK_clean_linker_0, # of connection points: 2
# Relax obj value: 0.145
# Max RMSD: 0.308
# Mean RMSD: 0.294
data_MOF--net-lcy-e--node1-PAMTUU_clean_sbu_0--edge1-EZIPEK_clean_linker_0
_symmetry_space_group_name_H-M    P1
_symmetry_Int_Tables_number       1
_symmetry_cell_setting            triclinic
loop_
_symmetry_equiv_pos_as_xyz
'x, y, z'
_cell_length_a     34.634276
_cell_length_b     34.790374
_cell_length_c     34.544306
_cell_angle_alpha  90.282137
_cell_angle_beta   89.977027
_cell_angle_gamma 89.316977
loop_
_atom_site_label
_atom_site_type_symbol
_atom_site_fract_x
_atom_site_fract_y
_atom_site_fract_z
_atom_type_partial_charge
Tb0 Tb 0.10694 0.3144 0.48733 0.0
Tb1 Tb 0.12896 0.24956 0.55283 0.0
C2 C 0.06415 0.30702 0.56927 0.0
C3 C 0.11389 0.38051 0.40231 0.0
C4 C 0.15127 0.4126 0.33733 0.0
C5 C 0.12302 0.38442 0.3324 0.0
C6 C 0.1044 0.36874 0.36449 0.0
C7 C 0.14263 0.40844 0.40723 0.0
C8 C 0.1611 0.42435 0.375 0.0
C9 C 0.09283 0.36406 0.43579 0.0
O10 O 0.16184 0.33116 0.51069 0.0
O11 O 0.15308 0.30598 0.57034 0.0
O12 O 0.17652 0.24689 0.51242 0.0
O13 O 0.14814 0.2748 0.45915 0.0
O14 O 0.13138 0.2339 0.61162 0.0
O15 O 0.15174 0.19529 0.56689 0.0
O16 O 0.08748 0.22167 0.51375 0.0
O17 O 0.05958 0.2746 0.48486 0.0
O18 O 0.07983 0.33025 0.54352 0.0
O19 O 0.07236 0.27039 0.5677 0.0
C20 C 0.16845 0.33251 0.54791 0.0
O21 O 0.08382 0.32791 0.43288 0.0
O22 O 0.10464 0.37261 0.47063 0.0
C23 C 0.1757 0.25376 0.47517 0.0
C24 C 0.12128 0.16734 0.62039 0.0
C25 C 0.08164 0.10332 0.64965 0.0
C26 C 0.11841 0.11262 0.66377 0.0
C27 C 0.13808 0.14437 0.64921 0.0
C28 C 0.08425 0.15844 0.60659 0.0
C29 C 0.0646 0.12657 0.62106 0.0
C30 C 0.14338 0.19911 0.60349 0.0
C31 C 0.05987 0.23777 0.49272 0.0
H32 H 0.1149 0.3751 0.30359 0.0
H33 H 0.08222 0.34754 0.35966 0.0
H34 H 0.15061 0.4183 0.43589 0.0
H35 H 0.18271 0.4462 0.37939 0.0
H36 H 0.13204 0.095 0.68576 0.0
H37 H 0.16667 0.15068 0.66007 0.0
H38 H 0.07084 0.17578 0.58423 0.0
H39 H 0.0363 0.1198 0.60974 0.0
Tb40 Tb 0.0291 0.92734 0.80103 0.0
Tb41 Tb 0.96588 0.89706 0.73707 0.0
C42 C 0.94136 0.95471 0.80055 0.0
C43 C 0.11361 0.92531 0.86555 0.0
C44 C 0.17645 0.88435 0.89798 0.0
C45 C 0.1684 0.92241 0.9095 0.0
C46 C 0.1372 0.94274 0.89338 0.0
C47 C 0.12148 0.88715 0.85417 0.0
C48 C 0.15274 0.86686 0.87019 0.0
C49 C 0.08117 0.94697 0.84813 0.0
O50 O 1.01419 0.8712 0.8205 0.0
O51 O 0.95485 0.86617 0.792 0.0
O52 O 1.00876 0.85155 0.73864 0.0
O53 O 0.0596 0.88661 0.762 0.0
O54 O 0.90788 0.89235 0.71883 0.0
O55 O 0.95484 0.87245 0.68272 0.0
O56 O 1.00399 0.93786 0.70827 0.0
O57 O 0.01965 0.97433 0.76102 0.0
O58 O 0.97117 0.9448 0.82233 0.0
O59 O 0.94199 0.94872 0.76316 0.0
C60 C 0.98 0.85599 0.81933 0.0
O61 O 0.08329 0.95206 0.8108 0.0
O62 O 0.04672 0.93647 0.85859 0.0
C63 C 0.04586 0.85582 0.7444 0.0
C64 C 0.90149 0.90144 0.65088 0.0
C65 C 0.87028 0.93849 0.58487 0.0
C66 C 0.84756 0.91368 0.60714 0.0
C67 C 0.86306 0.89528 0.63977 0.0
C68 C 0.924 0.9269 0.62903 0.0
C69 C 0.90861 0.94504 0.59621 0.0
C70 C 0.91801 0.88039 0.68441 0.0
C71 C 0.01707 0.96988 0.72346 0.0
H72 H 0.18641 0.93639 0.93085 0.0
H73 H 0.1316 0.97212 0.90251 0.0
H74 H 0.10357 0.87317 0.83274 0.0
H75 H 0.15851 0.83758 0.86087 0.0
H76 H 0.81796 0.90818 0.59891 0.0
H77 H 0.84514 0.87586 0.65611 0.0
H78 H 0.95368 0.93241 0.63701 0.0
H79 H 0.92666 0.96399 0.57946 0.0
Tb80 Tb 0.37916 0.75753 0.98693 0.0
Tb81 Tb 0.35052 0.82047 0.05311 0.0
C82 C 0.42173 0.76867 0.06918 0.0
C83 C 0.375 0.69444 0.899 0.0
C84 C 0.33726 0.6653 0.83245 0.0
C85 C 0.37505 0.65334 0.84161 0.0
C86 C 0.39373 0.66781 0.87455 0.0
C87 C 0.3372 0.70655 0.88987 0.0
C88 C 0.3185 0.69211 0.85686 0.0
C89 C 0.39577 0.7105 0.93283 0.0
O90 O 0.32744 0.73493 1.01321 0.0
O91 O 0.33244 0.76285 0.07306 0.0
O92 O 0.30278 0.81412 1.01303 0.0
O93 O 0.33822 0.79739 0.95956 0.0
O94 O 0.32555 0.87478 0.06411 0.0
O95 O 0.34429 0.83858 0.11107 0.0
O96 O 0.39089 0.85008 1.01423 0.0
O97 O 0.4252 0.7989 0.98898 0.0
O98 O 0.41037 0.74449 0.04158 0.0
O99 O 0.40734 0.80343 0.0709 0.0
C100 C 0.32221 0.73365 0.05072 0.0
O101 O 0.40236 0.74724 0.93162 0.0
O102 O 0.38404 0.70019 0.96709 0.0
C103 C 0.30679 0.8121 0.97535 0.0
C104 C 0.35529 0.90535 0.11707 0.0
C105 C 0.39733 0.9685 0.14606 0.0
C106 C 0.35898 0.96256 0.15775 0.0
C107 C 0.33813 0.93126 0.14336 0.0
C108 C 0.39366 0.91122 0.10536 0.0
C109 C 0.41448 0.94257 0.11968 0.0
C110 C 0.33288 0.87299 0.10108 0.0
C111 C 0.42138 0.83584 0.9959 0.0
H112 H 0.39002 0.63262 0.82333 0.0
H113 H 0.42294 0.65826 0.88086 0.0
H114 H 0.32225 0.72726 0.90818 0.0
H115 H 0.28933 0.70164 0.85045 0.0
H116 H 0.34519 0.98222 0.17803 0.0
H117 H 0.30856 0.92737 0.15262 0.0
H118 H 0.40744 0.89166 0.08498 0.0
H119 H 0.44397 0.94662 0.11023 0.0
Tb120 Tb 0.45564 0.13636 0.30344 0.0
Tb121 Tb 0.52092 0.16914 0.2427 0.0
C122 C 0.54303 0.10482 0.29929 0.0
C123 C 0.36686 0.13687 0.36276 0.0
C124 C 0.30307 0.17738 0.39466 0.0
C125 C 0.31744 0.14397 0.41255 0.0
C126 C 0.34904 0.12383 0.39667 0.0
C127 C 0.35247 0.17037 0.34489 0.0
C128 C 0.32072 0.19035 0.36062 0.0
C129 C 0.40056 0.11577 0.34647 0.0
O130 O 0.47364 0.18963 0.3292 0.0
O131 O 0.53352 0.19417 0.30076 0.0
O132 O 0.47937 0.21546 0.24856 0.0
O133 O 0.42743 0.17895 0.26541 0.0
O134 O 0.57911 0.17546 0.2258 0.0
O135 O 0.53247 0.19622 0.1899 0.0
O136 O 0.48283 0.12981 0.21073 0.0
O137 O 0.4645 0.09141 0.26085 0.0
O138 O 0.51278 0.11257 0.32155 0.0
O139 O 0.54361 0.11506 0.26301 0.0
C140 C 0.50932 0.20144 0.32992 0.0
O141 O 0.40094 0.11157 0.30894 0.0
O142 O 0.4343 0.12573 0.35953 0.0
C143 C 0.44205 0.21095 0.2516 0.0
C144 C 0.58664 0.16868 0.15769 0.0
C145 C 0.61966 0.13282 0.0915 0.0
C146 C 0.64198 0.15657 0.11552 0.0
C147 C 0.62559 0.17441 0.14823 0.0
C148 C 0.56449 0.14434 0.13401 0.0
C149 C 0.58079 0.12679 0.10112 0.0
C150 C 0.56938 0.18854 0.1918 0.0
C151 C 0.46817 0.0975 0.22369 0.0
H152 H 0.30428 0.13363 0.43891 0.0
H153 H 0.35971 0.09818 0.41098 0.0
H154 H 0.36586 0.18118 0.31885 0.0
H155 H 0.31019 0.21618 0.34654 0.0
H156 H 0.67203 0.16158 0.10868 0.0
H157 H 0.64328 0.1929 0.16605 0.0
H158 H 0.53446 0.13909 0.14072 0.0
H159 H 0.56305 0.10857 0.08308 0.0
Tb160 Tb 0.60861 0.25922 0.55532 0.0
Tb161 Tb 0.6375 0.32105 0.49083 0.0
C162 C 0.5674 0.26998 0.47225 0.0
C163 C 0.61242 0.19635 0.64305 0.0
C164 C 0.64881 0.16298 0.70843 0.0
C165 C 0.61915 0.19048 0.7131 0.0
C166 C 0.60105 0.20681 0.68079 0.0
C167 C 0.64268 0.16929 0.63839 0.0
C168 C 0.66063 0.15272 0.67081 0.0
C169 C 0.59183 0.21353 0.60938 0.0
O170 O 0.65991 0.2341 0.52991 0.0
O171 O 0.65719 0.26326 0.47073 0.0
O172 O 0.68592 0.31253 0.52934 0.0
O173 O 0.64997 0.29866 0.58268 0.0
O174 O 0.66345 0.3744 0.48125 0.0
O175 O 0.6434 0.3401 0.43335 0.0
O176 O 0.59771 0.351 0.53154 0.0
O177 O 0.56149 0.30015 0.55153 0.0
O178 O 0.57843 0.24586 0.50005 0.0
O179 O 0.58172 0.3044 0.47071 0.0
C180 C 0.66602 0.23314 0.49256 0.0
O181 O 0.58583 0.25056 0.61092 0.0
O182 O 0.60201 0.20233 0.57467 0.0
C183 C 0.6821 0.31111 0.56693 0.0
C184 C 0.63407 0.4082 0.42916 0.0
C185 C 0.59505 0.47393 0.39998 0.0
C186 C 0.6178 0.47661 0.43344 0.0
C187 C 0.63721 0.44414 0.44781 0.0
C188 C 0.6109 0.40562 0.39577 0.0
C189 C 0.59154 0.43817 0.38138 0.0
C190 C 0.65518 0.37392 0.44443 0.0
C191 C 0.56602 0.33713 0.54731 0.0
H192 H 0.60948 0.1987 0.74183 0.0
H193 H 0.5778 0.22745 0.68532 0.0
H194 H 0.65226 0.16059 0.60978 0.0
H195 H 0.68335 0.13145 0.66657 0.0
H196 H 0.62108 0.50401 0.44803 0.0
H197 H 0.65494 0.4473 0.47343 0.0
H198 H 0.60794 0.37854 0.38052 0.0
H199 H 0.57435 0.43561 0.35532 0.0
Tb200 Tb 0.02414 0.38988 0.81036 0.0
Tb201 Tb 0.9645 0.4206 0.74296 0.0
C202 C 0.02129 0.35578 0.72392 0.0
C203 C 0.08422 0.39206 0.90003 0.0
C204 C 0.11838 0.43083 0.96338 0.0
C205 C 0.08798 0.40521 0.96938 0.0
C206 C 0.07118 0.38592 0.93805 0.0
C207 C 0.11448 0.4181 0.89407 0.0
C208 C 0.13143 0.43721 0.92548 0.0
C209 C 0.06616 0.37092 0.86728 0.0
O210 O 0.04884 0.44312 0.79113 0.0
O211 O 0.02293 0.44424 0.72985 0.0
O212 O 0.96906 0.46823 0.7828 0.0
O213 O 0.98274 0.43161 0.83598 0.0
O214 O 0.94759 0.42518 0.68447 0.0
O215 O 0.9108 0.44639 0.73041 0.0
O216 O 0.93337 0.38277 0.78325 0.0
O217 O 0.98355 0.34399 0.80216 0.0
O218 O 0.04335 0.36497 0.75381 0.0
O219 O 0.9848 0.36526 0.72352 0.0
C220 C 0.05109 0.45289 0.75466 0.0
O221 O 0.02858 0.36934 0.86743 0.0
O222 O 0.0794 0.37715 0.8326 0.0
C223 C 0.96962 0.46373 0.82032 0.0
C224 C 0.87911 0.41688 0.67712 0.0
C225 C 0.81361 0.37952 0.6455 0.0
C226 C 0.80916 0.40859 0.67356 0.0
C227 C 0.84146 0.42715 0.68902 0.0
C228 C 0.88353 0.38735 0.64932 0.0
C229 C 0.85112 0.36893 0.63366 0.0
C230 C 0.91298 0.43747 0.69375 0.0
C231 C 0.94655 0.35016 0.79776 0.0
H232 H 0.07765 0.39973 0.99842 0.0
H233 H 0.04805 0.36598 0.94358 0.0
H234 H 0.12528 0.42358 0.86521 0.0
H235 H 0.155 0.45672 0.92029 0.0
H236 H 0.78056 0.4174 0.68302 0.0
H237 H 0.83692 0.44982 0.7102 0.0
H238 H 0.91199 0.37862 0.63938 0.0
H239 H 0.85528 0.34673 0.61191 0.0
Tb240 Tb 0.84999 0.74515 0.98913 0.0
Tb241 Tb 0.8825 0.81147 0.04881 0.0
C242 C 0.81737 0.83228 0.99278 0.0
C243 C 0.85207 0.65537 0.93082 0.0
C244 C 0.89343 0.59187 0.8992 0.0
C245 C 0.85829 0.60413 0.88274 0.0
C246 C 0.83784 0.63564 0.89838 0.0
C247 C 0.88718 0.64301 0.94737 0.0
C248 C 0.90768 0.61157 0.9317 0.0
C249 C 0.83034 0.68873 0.94709 0.0
O250 O 0.90395 0.7626 0.96424 0.0
O251 O 0.90633 0.82351 0.99019 0.0
O252 O 0.92958 0.77086 0.04301 0.0
O253 O 0.89202 0.7188 0.02947 0.0
O254 O 0.90939 0.82322 0.10199 0.0
O255 O 0.8887 0.86932 0.06582 0.0
O256 O 0.84493 0.7719 0.08076 0.0
O257 O 0.80484 0.75446 0.03136 0.0
O258 O 0.82556 0.80199 0.97056 0.0
O259 O 0.82728 0.83265 0.02922 0.0
C260 C 0.91464 0.79842 0.96208 0.0
O261 O 0.82684 0.68973 0.98466 0.0
O262 O 0.83913 0.72235 0.93349 0.0
C263 C 0.92463 0.73372 0.04189 0.0
C264 C 0.88184 0.87681 0.1338 0.0
C265 C 0.84439 0.90718 0.20022 0.0
C266 C 0.88362 0.91449 0.19339 0.0
C267 C 0.90218 0.8994 0.16047 0.0
C268 C 0.84264 0.86923 0.14071 0.0
C269 C 0.82406 0.88434 0.17363 0.0
C270 C 0.90203 0.85995 0.09987 0.0
C271 C 0.81206 0.75769 0.06834 0.0
H272 H 0.84678 0.58936 0.85768 0.0
H273 H 0.81088 0.64461 0.88512 0.0
H274 H 0.89866 0.65763 0.97249 0.0
H275 H 0.93468 0.60261 0.94488 0.0
H276 H 0.89977 0.93216 0.21341 0.0
H277 H 0.93247 0.90533 0.15586 0.0
H278 H 0.82647 0.85158 0.12067 0.0
H279 H 0.79377 0.87847 0.17826 0.0
Tb280 Tb 0.53525 0.63935 0.23975 0.0
Tb281 Tb 0.46684 0.66996 0.29962 0.0
C282 C 0.44947 0.60527 0.24307 0.0
C283 C 0.62561 0.64242 0.18218 0.0
C284 C 0.68819 0.68373 0.15097 0.0
C285 C 0.67604 0.6493 0.1336 0.0
C286 C 0.64504 0.62884 0.14909 0.0
C287 C 0.63766 0.67696 0.19952 0.0
C288 C 0.66881 0.69731 0.18417 0.0
C289 C 0.59293 0.62052 0.19829 0.0
O290 O 0.51522 0.69282 0.21548 0.0
O291 O 0.45375 0.69328 0.24072 0.0
O292 O 0.50554 0.71788 0.29477 0.0
O293 O 0.5596 0.682 0.28013 0.0
O294 O 0.40817 0.67369 0.31598 0.0
O295 O 0.45288 0.6956 0.35313 0.0
O296 O 0.50856 0.63351 0.33128 0.0
O297 O 0.52808 0.5943 0.28152 0.0
O298 O 0.47918 0.6143 0.22074 0.0
O299 O 0.44972 0.6141 0.27977 0.0
C300 C 0.47867 0.70225 0.21283 0.0
O301 O 0.59192 0.61741 0.23585 0.0
O302 O 0.55891 0.62857 0.18435 0.0
C303 C 0.54313 0.71397 0.29308 0.0
C304 C 0.39988 0.66575 0.38466 0.0
C305 C 0.36717 0.62922 0.45032 0.0
C306 C 0.39792 0.65486 0.4546 0.0
C307 C 0.41394 0.673 0.42225 0.0
C308 C 0.3693 0.63967 0.38043 0.0
C309 C 0.35316 0.62163 0.41288 0.0
C310 C 0.4166 0.68625 0.35064 0.0
C311 C 0.52422 0.60113 0.31852 0.0
H312 H 0.69056 0.63831 0.10799 0.0
H313 H 0.63623 0.60237 0.13521 0.0
H314 H 0.62301 0.68816 0.22497 0.0
H315 H 0.67769 0.72376 0.19803 0.0
H316 H 0.40911 0.66133 0.48314 0.0
H317 H 0.4372 0.69307 0.42677 0.0
H318 H 0.35752 0.63345 0.35207 0.0
H319 H 0.32934 0.60213 0.40885 0.0
Tb320 Tb 0.27771 0.49742 0.13536 0.0
Tb321 Tb 0.21239 0.56357 0.15725 0.0
C322 C 0.27443 0.58041 0.09584 0.0
C323 C 0.34012 0.40972 0.14358 0.0
C324 C 0.3677 0.34451 0.18395 0.0
C325 C 0.38674 0.35728 0.15057 0.0
C326 C 0.3731 0.38969 0.1306 0.0
C327 C 0.32105 0.39691 0.17698 0.0
C328 C 0.33485 0.36469 0.19715 0.0
C329 C 0.32526 0.44308 0.12152 0.0
O330 O 0.29647 0.52196 0.18953 0.0
O331 O 0.26764 0.58108 0.1837 0.0
O332 O 0.2162 0.52688 0.20741 0.0
O333 O 0.23597 0.47214 0.17555 0.0
O334 O 0.19236 0.62106 0.15669 0.0
O335 O 0.15755 0.57601 0.18044 0.0
O336 O 0.18544 0.52026 0.12004 0.0
O337 O 0.23903 0.50079 0.08627 0.0
O338 O 0.29632 0.5522 0.10957 0.0
O339 O 0.23724 0.58072 0.10284 0.0
C340 C 0.29574 0.55886 0.19739 0.0
O341 O 0.28873 0.4423 0.11267 0.0
O342 O 0.33532 0.47702 0.13376 0.0
C343 C 0.21976 0.48942 0.20556 0.0
C344 C 0.12376 0.62596 0.14752 0.0
C345 C 0.05695 0.65527 0.10985 0.0
C346 C 0.05394 0.62591 0.13738 0.0
C347 C 0.08692 0.61157 0.15613 0.0
C348 C 0.12677 0.65488 0.1193 0.0
C349 C 0.09368 0.66936 0.10067 0.0
C350 C 0.15821 0.61172 0.16929 0.0
C351 C 0.20147 0.50381 0.08958 0.0
H352 H 0.41216 0.34212 0.14 0.0
H353 H 0.38814 0.39895 0.10484 0.0
H354 H 0.29525 0.4116 0.18714 0.0
H355 H 0.31975 0.35528 0.22282 0.0
H356 H 0.0259 0.61477 0.14504 0.0
H357 H 0.08346 0.58955 0.17788 0.0
H358 H 0.15457 0.66679 0.112 0.0
H359 H 0.09663 0.69213 0.07964 0.0
Tb360 Tb 0.77138 0.06982 0.90987 0.0
Tb361 Tb 0.70498 1.0066 0.88684 0.0
C362 C 0.7668 0.9859 0.94832 0.0
C363 C 0.83573 0.15516 0.90062 0.0
C364 C 0.86609 0.22014 0.86244 0.0
C365 C 0.88947 0.19766 0.88695 0.0
C366 C 0.87443 0.16555 0.90585 0.0
C367 C 0.81247 0.17718 0.87543 0.0
C368 C 0.82749 0.20946 0.85664 0.0
C369 C 0.81991 0.12235 0.92272 0.0
O370 O 0.79027 0.04406 0.85607 0.0
O371 O 0.75981 0.98652 0.86091 0.0
O372 O 0.71033 0.04424 0.8375 0.0
O373 O 0.72944 0.09749 0.87104 0.0
O374 O 0.68478 0.94991 0.88256 0.0
O375 O 0.64929 0.99782 0.86459 0.0
O376 O 0.67916 0.04869 0.9272 0.0
O377 O 0.73367 0.06696 0.95975 0.0
O378 O 0.78879 0.01418 0.9358 0.0
O379 O 0.72978 0.98566 0.94022 0.0
C380 C 0.78894 1.00717 0.84829 0.0
O381 O 0.78351 0.1246 0.93217 0.0
O382 O 0.82941 0.08788 0.91088 0.0
C383 C 0.71389 0.08155 0.84027 0.0
C384 C 0.6172 0.94508 0.89161 0.0
C385 C 0.55225 0.91536 0.93014 0.0
C386 C 0.55558 0.91224 0.88972 0.0
C387 C 0.58778 0.92706 0.87062 0.0
C388 C 0.61379 0.94847 0.932 0.0
C389 C 0.58151 0.9338 0.95114 0.0
C390 C 0.65063 0.96097 0.87089 0.0
C391 C 0.69606 0.06422 0.95755 0.0
H392 H 0.91927 0.20539 0.89194 0.0
H393 H 0.89293 0.14911 0.92508 0.0
H394 H 0.78254 0.1698 0.87073 0.0
H395 H 0.80889 0.22639 0.83796 0.0
H396 H 0.53338 0.89805 0.87304 0.0
H397 H 0.58978 0.92435 0.83942 0.0
H398 H 0.63616 0.96229 0.94864 0.0
H399 H 0.57952 0.93641 0.98234 0.0
Tb400 Tb 0.71776 0.99447 0.40545 0.0
Tb401 Tb 0.77996 0.06091 0.38057 0.0
C402 C 0.71696 0.0805 0.44058 0.0
C403 C 0.6549 0.90793 0.39994 0.0
C404 C 0.62245 0.84448 0.36076 0.0
C405 C 0.61049 0.85422 0.39846 0.0
C406 C 0.6266 0.88564 0.41786 0.0
C407 C 0.66679 0.89844 0.36212 0.0
C408 C 0.65074 0.86687 0.3427 0.0
C409 C 0.67219 0.94034 0.42138 0.0
O410 O 0.69739 0.0154 0.35073 0.0
O411 O 0.72321 0.07529 0.35403 0.0
O412 O 0.77802 0.02265 0.33143 0.0
O413 O 0.75913 0.96863 0.36375 0.0
O414 O 0.79695 0.11872 0.37678 0.0
O415 O 0.83476 0.07283 0.35768 0.0
O416 O 0.80876 0.02069 0.42049 0.0
O417 O 0.75604 1.00057 0.45441 0.0
O418 O 0.69685 0.04983 0.43049 0.0
O419 O 0.75401 0.082 0.43325 0.0
C420 C 0.69631 0.05163 0.34099 0.0
O421 O 0.70949 0.93857 0.42636 0.0
O422 O 0.66081 0.97479 0.4115 0.0
C423 C 0.77495 0.98527 0.33337 0.0
C424 C 0.86447 0.12669 0.38592 0.0
C425 C 0.92883 0.15805 0.42472 0.0
C426 C 0.92745 0.1571 0.38409 0.0
C427 C 0.89558 0.1415 0.36489 0.0
C428 C 0.86591 0.12736 0.42659 0.0
C429 C 0.89785 0.1429 0.44585 0.0
C430 C 0.83163 0.1095 0.36493 0.0
C431 C 0.79331 1.00506 0.45139 0.0
H432 H 0.58872 0.83738 0.4129 0.0
H433 H 0.61706 0.89244 0.447 0.0
H434 H 0.6886 0.91529 0.34774 0.0
H435 H 0.66038 0.85986 0.31366 0.0
H436 H 0.95092 0.16876 0.36726 0.0
H437 H 0.89521 0.14104 0.33353 0.0
H438 H 0.8423 0.11598 0.44339 0.0
H439 H 0.89826 0.14349 0.4772 0.0
Tb440 Tb 0.27822 0.50959 0.65625 0.0
Tb441 Tb 0.21275 0.57242 0.62893 0.0
C442 C 0.19503 0.51935 0.69821 0.0
C443 C 0.36734 0.44751 0.65241 0.0
C444 C 0.43432 0.41783 0.61524 0.0
C445 C 0.42271 0.40357 0.65136 0.0
C446 C 0.38952 0.41829 0.66975 0.0
C447 C 0.37901 0.46195 0.61634 0.0
C448 C 0.41218 0.44718 0.59787 0.0
C449 C 0.33317 0.46365 0.67293 0.0
O450 O 0.25225 0.48557 0.60488 0.0
O451 O 0.19289 0.51513 0.609 0.0
O452 O 0.25061 0.56437 0.57967 0.0
O453 O 0.30455 0.54929 0.61457 0.0
O454 O 0.15535 0.5922 0.6234 0.0
O455 O 0.20284 0.62645 0.60374 0.0
O456 O 0.25329 0.60136 0.66881 0.0
O457 O 0.27402 0.54958 0.7041 0.0
O458 O 0.22322 0.49564 0.68641 0.0
O459 O 0.19299 0.55428 0.68469 0.0
C460 C 0.21494 0.48532 0.59893 0.0
O461 O 0.3336 0.50056 0.67939 0.0
O462 O 0.29928 0.4526 0.66109 0.0
C463 C 0.28818 0.56232 0.58275 0.0
C464 C 0.1508 0.65945 0.63285 0.0
C465 C 0.1232 0.72478 0.67351 0.0
C466 C 0.11404 0.71948 0.63425 0.0
C467 C 0.12777 0.68705 0.61406 0.0
C468 C 0.16021 0.66484 0.67207 0.0
C469 C 0.14651 0.69727 0.69225 0.0
C470 C 0.16597 0.62587 0.61118 0.0
C471 C 0.26943 0.58671 0.7002 0.0
H472 H 0.43921 0.38084 0.66517 0.0
H473 H 0.38124 0.4069 0.69764 0.0
H474 H 0.36257 0.48474 0.60261 0.0
H475 H 0.4205 0.45849 0.56997 0.0
H476 H 0.09601 0.74032 0.61935 0.0
H477 H 0.12043 0.68353 0.58378 0.0
H478 H 0.17819 0.64397 0.68702 0.0
H479 H 0.1538 0.7008 0.72254 0.0
C480 C 0.17803 0.38265 0.60205 0.0
C481 C 0.18624 0.36925 0.56385 0.0
C482 C 0.21029 0.43414 0.54755 0.0
C483 C 0.19852 0.44814 0.58429 0.0
N484 N 0.16519 0.43742 0.64417 0.0
N485 N 0.22485 0.37913 0.50663 0.0
C486 C 0.18047 0.42283 0.61074 0.0
C487 C 0.20633 0.39428 0.53823 0.0
N488 N 0.17118 0.3569 0.63092 0.0
N489 N 0.22422 0.45949 0.521 0.0
H490 H 0.22661 0.34969 0.50143 0.0
H491 H 0.24271 0.39472 0.48845 0.0
H492 H 0.22707 0.48876 0.52704 0.0
H493 H 0.2294 0.45255 0.49211 0.0
H494 H 0.16691 0.36447 0.65978 0.0
H495 H 0.17633 0.32755 0.62766 0.0
H496 H 0.15111 0.4212 0.66488 0.0
H497 H 0.16291 0.46681 0.64923 0.0
C498 C 0.83849 0.95192 0.84071 0.0
C499 C 0.8246 0.98918 0.82993 0.0
C500 C 0.88962 1.00524 0.80635 0.0
C501 C 0.90383 0.96871 0.81752 0.0
N502 N 0.89235 0.90661 0.84489 0.0
N503 N 0.83384 0.04376 0.78849 0.0
C504 C 0.87837 0.94201 0.83489 0.0
C505 C 0.84937 1.01358 0.80857 0.0
N506 N 0.81378 0.92576 0.85609 0.0
N507 N 0.91506 0.03263 0.79495 0.0
H508 H 0.80406 0.04849 0.78675 0.0
H509 H 0.84978 0.06084 0.76982 0.0
H510 H 0.94485 0.02773 0.7953 0.0
H511 H 0.90706 0.06107 0.7896 0.0
H512 H 0.82245 0.90085 0.87025 0.0
H513 H 0.78408 0.92715 0.85215 0.0
H514 H 0.8754 0.88295 0.85107 0.0
H515 H 0.92177 0.90116 0.84755 0.0
C516 C 0.33684 0.67031 0.08388 0.0
C517 C 0.30921 0.69586 0.06708 0.0
C518 C 0.26555 0.64142 0.0574 0.0
C519 C 0.29105 0.6165 0.07803 0.0
N520 N 0.35567 0.6054 0.10226 0.0
N521 N 0.24452 0.70696 0.04492 0.0
C522 C 0.32825 0.63035 0.08851 0.0
C523 C 0.27283 0.68162 0.05579 0.0
N524 N 0.37184 0.68434 0.09456 0.0
N525 N 0.23544 0.62613 0.03721 0.0
H526 H 0.24862 0.73662 0.04588 0.0
H527 H 0.21612 0.69898 0.03956 0.0
H528 H 0.23161 0.5965 0.03472 0.0
H529 H 0.21758 0.6422 0.01903 0.0
H530 H 0.3962 0.66757 0.10017 0.0
H531 H 0.37605 0.71357 0.09866 0.0
H532 H 0.3809 0.61358 0.11611 0.0
H533 H 0.355 0.57601 0.09681 0.0
C534 C 0.59099 0.05069 0.30803 0.0
C535 C 0.58036 0.0894 0.3151 0.0
C536 C 0.64878 0.10549 0.32479 0.0
C537 C 0.65929 0.0661 0.32233 0.0
N538 N 0.64232 1.00443 0.29504 0.0
N539 N 0.59801 0.15111 0.34008 0.0
C540 C 0.63083 0.0394 0.30938 0.0
C541 C 0.60905 0.11606 0.32612 0.0
N542 N 0.56262 0.0245 0.30151 0.0
N543 N 0.67644 0.13306 0.32315 0.0
H544 H 0.56946 0.15633 0.34773 0.0
H545 H 0.61719 0.17179 0.34991 0.0
H546 H 0.70502 0.12664 0.31597 0.0
H547 H 0.67014 0.16239 0.32237 0.0
H548 H 0.56746 0.99497 0.29968 0.0
H549 H 0.53341 0.03227 0.3018 0.0
H550 H 0.62371 0.98469 0.2825 0.0
H551 H 0.67124 0.99711 0.29092 0.0
C552 C 0.6552 0.1733 0.45116 0.0
C553 C 0.67972 0.19518 0.47587 0.0
C554 C 0.72076 0.13759 0.48543 0.0
C555 C 0.69877 0.11655 0.45793 0.0
N556 N 0.63954 0.11202 0.42099 0.0
N557 N 0.73899 0.1996 0.51171 0.0
C558 C 0.66423 0.13363 0.44273 0.0
C559 C 0.71327 0.17756 0.49172 0.0
N560 N 0.62367 0.19087 0.43491 0.0
N561 N 0.74749 0.11847 0.50745 0.0
H562 H 0.73492 0.22908 0.51603 0.0
H563 H 0.76606 0.18966 0.52051 0.0
H564 H 0.75139 0.08871 0.50573 0.0
H565 H 0.76222 0.13096 0.53047 0.0
H566 H 0.60373 0.17777 0.41696 0.0
H567 H 0.61798 0.22006 0.43755 0.0
H568 H 0.61189 0.12059 0.413 0.0
H569 H 0.64464 0.08376 0.41275 0.0
C570 C 0.08952 0.50878 0.72812 0.0
C571 C 0.08872 0.47044 0.74161 0.0
C572 C 0.16056 0.46788 0.73775 0.0
C573 C 0.16077 0.50535 0.72189 0.0
N574 N 0.12702 0.5667 0.72501 0.0
N575 N 0.12487 0.41539 0.76535 0.0
C576 C 0.12571 0.52749 0.7235 0.0
C577 C 0.12474 0.45069 0.74837 0.0
N578 N 0.05575 0.528 0.72062 0.0
N579 N 0.19481 0.44888 0.74345 0.0
H580 H 0.10003 0.39969 0.76913 0.0
H581 H 0.14927 0.40171 0.7765 0.0
H582 H 0.221 0.46329 0.74506 0.0
H583 H 0.19742 0.41937 0.74758 0.0
H584 H 0.0548 0.55446 0.70661 0.0
H585 H 0.02865 0.51631 0.72572 0.0
H586 H 0.10261 0.58414 0.72865 0.0
H587 H 0.1526 0.58148 0.72964 0.0
C588 C 0.75887 0.92561 0.98835 0.0
C589 C 0.78354 0.9496 0.96628 0.0
C590 C 0.82791 0.89455 0.95697 0.0
C591 C 0.80226 0.86992 0.97702 0.0
N592 N 0.74098 0.86097 1.00772 0.0
N593 N 0.84932 0.95959 0.94567 0.0
C594 C 0.76712 0.88535 0.99175 0.0
C595 C 0.82041 0.93496 0.95519 0.0
N596 N 0.72926 0.94226 1.00874 0.0
N597 N 0.85922 0.87903 0.93863 0.0
H598 H 0.84736 0.98909 0.95022 0.0
H599 H 0.87751 0.95086 0.93956 0.0
H600 H 0.86293 0.84962 0.93623 0.0
H601 H 0.87842 0.89446 0.92179 0.0
H602 H 0.71149 0.92754 0.02774 0.0
H603 H 0.72575 0.97205 1.01026 0.0
H604 H 0.71323 0.86922 1.01612 0.0
H605 H 0.74594 0.83135 1.00905 0.0
C606 C 0.39532 0.5575 0.24395 0.0
C607 C 0.41156 0.59098 0.22753 0.0
C608 C 0.34674 0.61065 0.2044 0.0
C609 C 0.33155 0.57493 0.21624 0.0
N610 N 0.33744 0.52169 0.25985 0.0
N611 N 0.40339 0.64596 0.18629 0.0
C612 C 0.35491 0.55029 0.23958 0.0
C613 C 0.38737 0.61646 0.20605 0.0
N614 N 0.41906 0.532 0.26267 0.0
N615 N 0.32241 0.64006 0.19406 0.0
H616 H 0.43292 0.64791 0.18308 0.0
H617 H 0.38802 0.66516 0.16907 0.0
H618 H 0.29273 0.63919 0.19837 0.0
H619 H 0.33158 0.66764 0.1875 0.0
H620 H 0.41038 0.50534 0.27272 0.0
H621 H 0.44872 0.53631 0.26541 0.0
H622 H 0.3515 0.50375 0.27943 0.0
H623 H 0.30748 0.51876 0.26015 0.0
C624 C 0.51812 0.201 0.40303 0.0
C625 C 0.52239 0.22048 0.36684 0.0
C626 C 0.54205 0.27822 0.4028 0.0
C627 C 0.54346 0.25673 0.43801 0.0
N628 N 0.51342 0.20587 0.47298 0.0
N629 N 0.54057 0.27758 0.33251 0.0
C630 C 0.52591 0.22038 0.43855 0.0
C631 C 0.53517 0.25902 0.36682 0.0
N632 N 0.50876 0.16306 0.40368 0.0
N633 N 0.54244 0.31749 0.40401 0.0
H634 H 0.53349 0.2656 0.30576 0.0
H635 H 0.55465 0.30378 0.3304 0.0
H636 H 0.53917 0.33304 0.42965 0.0
H637 H 0.53905 0.33479 0.37971 0.0
H638 H 0.51061 0.14607 0.42836 0.0
H639 H 0.5026 0.14747 0.37895 0.0
H640 H 0.49693 0.18116 0.47531 0.0
H641 H 0.51455 0.22168 0.49869 0.0
C642 C 0.02731 0.2954 0.63208 0.0
C643 C 0.04565 0.32165 0.60634 0.0
C644 C 0.05415 0.36657 0.66029 0.0
C645 C 0.03714 0.34037 0.68646 0.0
N646 N 1.00921 0.2789 0.69834 0.0
N647 N 0.05694 0.38874 0.59416 0.0
C648 C 0.02401 0.30448 0.67249 0.0
C649 C 0.05331 0.35927 0.61982 0.0
N650 N 1.01042 0.26325 0.61719 0.0
N651 N 0.07212 0.39823 0.6743 0.0
H652 H 0.0501 0.38574 0.56495 0.0
H653 H 0.06004 0.41734 0.60253 0.0
H654 H 0.07784 0.40104 0.70358 0.0
H655 H 0.08565 0.4184 0.65699 0.0
H656 H 0.99515 0.24338 0.63329 0.0
H657 H 1.00818 0.25836 0.58754 0.0
H658 H 1.00136 0.25093 0.69153 0.0
H659 H 1.0073 0.28496 0.72792 0.0
C660 C 0.93265 0.81232 0.85299 0.0
C661 C 0.9682 0.83157 0.8534 0.0
C662 C 0.97143 0.8246 0.92448 0.0
C663 C 0.93324 0.81046 0.92474 0.0
N664 N 0.87646 0.79218 0.88813 0.0
N665 N 0.02957 0.83274 0.88683 0.0
C666 C 0.91386 0.80403 0.88861 0.0
C667 C 0.99018 0.83134 0.88839 0.0
N668 N 0.91853 0.79901 0.81857 0.0
N669 N 0.99014 0.83133 0.95862 0.0
H670 H 0.04482 0.82933 0.86102 0.0
H671 H 0.04731 0.83035 0.91105 0.0
H672 H 0.9786 0.82436 0.98553 0.0
H673 H 0.01601 0.84621 0.96033 0.0
H674 H 0.89454 0.78142 0.81618 0.0
H675 H 0.93414 0.80096 0.79283 0.0
H676 H 0.85926 0.79204 0.86342 0.0
H677 H 0.86115 0.78616 0.91303 0.0
C678 C 0.47431 0.70101 0.13903 0.0
C679 C 0.46592 0.72009 0.17512 0.0
C680 C 0.44666 0.77727 0.13823 0.0
C681 C 0.44622 0.75539 0.10316 0.0
N682 N 0.4711 0.70053 0.06862 0.0
N683 N 0.44294 0.77706 0.20827 0.0
C684 C 0.46381 0.71852 0.10314 0.0
C685 C 0.45136 0.75828 0.17444 0.0
N686 N 0.49248 0.66602 0.13895 0.0
N687 N 0.44697 0.81651 0.13688 0.0
H688 H 0.44806 0.76516 0.23545 0.0
H689 H 0.42829 0.8034 0.20914 0.0
H690 H 0.45148 0.83139 0.11119 0.0
H691 H 0.44968 0.83387 0.16137 0.0
H692 H 0.50452 0.65286 0.11463 0.0
H693 H 0.49599 0.64986 0.16374 0.0
H694 H 0.47733 0.67135 0.06557 0.0
H695 H 0.47177 0.71555 0.04257 0.0
C696 C 0.1464 0.45603 0.27943 0.0
C697 C 0.16907 0.43105 0.30281 0.0
C698 C 0.22578 0.44395 0.26221 0.0
C699 C 0.20231 0.46659 0.23726 0.0
N700 N 0.13862 0.48677 0.21711 0.0
N701 N 0.22845 0.3955 0.31251 0.0
C702 C 0.16209 0.47043 0.24442 0.0
C703 C 0.20826 0.42329 0.29301 0.0
N704 N 0.11033 0.46726 0.29138 0.0
N705 N 0.26496 0.44357 0.25764 0.0
H706 H 0.2166 0.37989 0.33522 0.0
H707 H 0.25572 0.38567 0.30408 0.0
H708 H 0.27875 0.4584 0.23556 0.0
H709 H 0.28397 0.4311 0.27742 0.0
H710 H 0.0942 0.48868 0.27768 0.0
H711 H 0.09789 0.45783 0.31708 0.0
H712 H 0.1086 0.48694 0.21896 0.0
H713 H 0.14892 0.49659 0.19061 0.0
C714 C 0.84608 0.99665 0.54771 0.0
C715 C 0.85413 0.95649 0.54894 0.0
C716 C 0.82488 0.94873 0.48454 0.0
C717 C 0.81812 0.98901 0.48274 0.0
N718 N 0.82893 0.05226 0.50869 0.0
N719 N 0.85941 0.8959 0.51507 0.0
C720 C 0.83104 1.01328 0.51307 0.0
C721 C 0.84596 0.933 0.51626 0.0
N722 N 0.85093 0.01859 0.58025 0.0
N723 N 0.8103 0.92531 0.45635 0.0
H724 H 0.87535 0.88354 0.5375 0.0
H725 H 0.85793 0.87848 0.49053 0.0
H726 H 0.7962 0.93582 0.43185 0.0
H727 H 0.81 0.89547 0.45837 0.0
H728 H 0.84166 0.04708 0.58257 0.0
H729 H 0.8615 1.00748 0.6062 0.0
H730 H 0.84134 0.07168 0.52789 0.0
H731 H 0.8175 0.06513 0.48397 0.0
C732 C 0.31305 0.63854 0.72738 0.0
C733 C 0.2828 0.61181 0.73282 0.0
C734 C 0.28804 0.62053 0.80348 0.0
C735 C 0.317 0.64849 0.79803 0.0
N736 N 0.35151 0.68996 0.7548 0.0
N737 N 0.23527 0.58485 0.77549 0.0
C738 C 0.32771 0.65935 0.75991 0.0
C739 C 0.26843 0.60515 0.77075 0.0
N740 N 0.32932 0.64253 0.6916 0.0
N741 N 0.28034 0.6073 0.83985 0.0
H742 H 0.21972 0.57396 0.75224 0.0
H743 H 0.22105 0.58232 0.80191 0.0
H744 H 0.29389 0.61777 0.86464 0.0
H745 H 0.26293 0.58371 0.8452 0.0
H746 H 0.35432 0.6581 0.68665 0.0
H747 H 0.31961 0.62789 0.66715 0.0
H748 H 0.35727 0.70189 0.72785 0.0
H749 H 0.36284 0.70562 0.77791 0.0
C750 C 0.64327 0.07441 0.05398 0.0
C751 C 0.63688 0.11481 0.05588 0.0
C752 C 0.66776 0.12185 0.99214 0.0
C753 C 0.67248 0.08131 0.98954 0.0
N754 N 0.6578 0.01852 1.01398 0.0
N755 N 0.63551 0.176 0.02341 0.0
C756 C 0.65789 0.05745 0.01919 0.0
C757 C 0.647 0.13827 0.02395 0.0
N758 N 0.63715 0.05242 0.08605 0.0
N759 N 0.68361 0.14474 0.96444 0.0
H760 H 0.61986 0.18891 0.04587 0.0
H761 H 0.63839 0.19365 0.99936 0.0
H762 H 0.69697 0.13378 0.93959 0.0
H763 H 0.68551 0.17448 0.96708 0.0
H764 H 0.64525 0.02357 0.08788 0.0
H765 H 0.62697 0.06375 0.11218 0.0
H766 H 0.64398 0.99965 0.03258 0.0
H767 H 0.66877 1.00536 0.9891 0.0
C768 C 0.70424 0.15112 0.75493 0.0
C769 C 0.66578 0.1434 0.74304 0.0
C770 C 0.65744 0.10206 0.79973 0.0
C771 C 0.69718 0.10572 0.8088 0.0
N772 N 0.75988 0.13047 0.79263 0.0
N773 N 0.60785 0.10627 0.75056 0.0
C774 C 0.72101 0.12959 0.7859 0.0
C775 C 0.64292 0.11745 0.76452 0.0
N776 N 0.72438 0.17967 0.73727 0.0
N777 N 0.63316 0.08509 0.82557 0.0
H778 H 0.59631 0.11635 0.72459 0.0
H779 H 0.59186 0.08427 0.76284 0.0
H780 H 0.64248 0.07497 0.8524 0.0
H781 H 0.60326 0.08488 0.82231 0.0
H782 H 0.75092 0.18945 0.7472 0.0
H783 H 0.71308 0.19588 0.71451 0.0
H784 H 0.77939 0.14389 0.77434 0.0
H785 H 0.77313 0.11534 0.81506 0.0
C786 C 0.18071 0.44472 0.05362 0.0
C787 C 0.17718 0.48504 0.05957 0.0
C788 C 0.13147 0.48912 1.00545 0.0
C789 C 0.13786 0.44948 0.99706 0.0
N790 N 0.17303 0.39062 1.00991 0.0
N791 N 0.14836 0.54595 0.04146 0.0
C792 C 0.1636 0.42751 0.0204 0.0
C793 C 0.15225 0.50721 0.03571 0.0
N794 N 0.19895 0.42258 0.0808 0.0
N795 N 0.1058 0.51074 0.9848 0.0
H796 H 0.16333 0.56085 0.06287 0.0
H797 H 0.13039 0.56315 0.02433 0.0
H798 H 0.08876 0.50002 0.96238 0.0
H799 H 0.08876 0.50002 0.96238 0.0
H800 H 0.19911 0.39265 0.08032 0.0
H801 H 0.21052 0.43401 0.10617 0.0
H802 H 0.195 0.37469 0.02303 0.0
H803 H 0.16119 0.37687 0.98587 0.0
C804 C 0.77937 0.97323 0.26133 0.0
C805 C 0.78978 0.9621 0.29964 0.0
C806 C 0.83108 0.91059 0.27219 0.0
C807 C 0.8243 0.92496 0.23437 0.0
N808 N 0.79642 0.97372 0.19329 0.0
N809 N 0.83136 0.92416 0.34107 0.0
C810 C 0.79953 0.95723 0.22903 0.0
C811 C 0.81694 0.93156 0.30502 0.0
N812 N 0.74939 0.99843 0.25557 0.0
N813 N 0.85071 0.87662 0.27676 0.0
H814 H 0.82327 0.93977 0.36562 0.0
H815 H 0.85419 0.90507 0.34611 0.0
H816 H 0.86172 0.86076 0.25344 0.0
H817 H 0.85304 0.86254 0.30321 0.0
H818 H 0.73758 1.00413 0.22845 0.0
H819 H 0.73381 1.01098 0.27814 0.0
H820 H 0.78263 1.00004 0.18854 0.0
H821 H 0.81046 0.96287 0.16878 0.0
C822 C 0.33254 0.55521 0.5247 0.0
C823 C 0.31179 0.57922 0.55098 0.0
C824 C 0.32555 0.63531 0.51029 0.0
C825 C 0.34848 0.61184 0.48529 0.0
N826 N 0.37946 0.55069 0.47245 0.0
N827 N 0.29528 0.64304 0.57325 0.0
C828 C 0.35365 0.57209 0.49363 0.0
C829 C 0.31036 0.61957 0.54506 0.0
N830 N 0.33082 0.51619 0.52848 0.0
N831 N 0.31685 0.67232 0.50002 0.0
H832 H 0.28431 0.63258 0.59922 0.0
H833 H 0.29704 0.67289 0.5726 0.0
H834 H 0.327 0.6849 0.4747 0.0
H835 H 0.2968 0.68948 0.51475 0.0
H836 H 0.34172 0.49692 0.50794 0.0
H837 H 0.31588 0.50298 0.55091 0.0
H838 H 0.3876 0.52269 0.47952 0.0
H839 H 0.39527 0.56203 0.44955 0.0
C840 C 0.24703 0.246 0.4611 0.0
C841 C 0.20807 0.23755 0.45107 0.0
C842 C 0.23158 0.19018 0.40288 0.0
C843 C 0.27024 0.19943 0.41244 0.0
N844 N 0.31518 0.24071 0.44502 0.0
N845 N 0.16318 0.20523 0.40875 0.0
C846 C 0.27803 0.22878 0.43983 0.0
C847 C 0.20035 0.21098 0.42059 0.0
N848 N 0.25458 0.2699 0.49164 0.0
N849 N 0.22478 0.16043 0.37784 0.0
H850 H 0.13927 0.21766 0.42234 0.0
H851 H 0.15587 0.18995 0.38391 0.0
H852 H 0.24682 0.14557 0.36335 0.0
H853 H 0.19766 0.14879 0.37301 0.0
H854 H 0.28183 0.27302 0.50387 0.0
H855 H 0.23325 0.28524 0.50648 0.0
H856 H 0.32255 0.26506 0.46088 0.0
H857 H 0.33877 0.22802 0.43093 0.0
C858 C 0.07538 0.0314 0.65336 0.0
C859 C 0.06164 0.06852 0.66428 0.0
C860 C 1.01118 0.03886 0.70355 0.0
C861 C 0.0291 1.00237 0.69826 0.0
N862 N 0.07892 0.96344 0.66823 0.0
N863 N 0.01805 0.10805 0.70226 0.0
C864 C 0.0611 0.99839 0.67275 0.0
C865 C 0.02973 0.07241 0.68983 0.0
N866 N 0.10151 0.0277 0.62386 0.0
N867 N 0.97558 0.04116 0.72043 0.0
H868 H 0.03078 0.13336 0.69284 0.0
H869 H 0.99778 0.11236 0.72419 0.0
H870 H 0.96051 0.01669 0.7285 0.0
H871 H 0.95931 0.06648 0.72219 0.0
H872 H 0.10974 1.00137 0.61179 0.0
H873 H 0.11245 0.05124 0.609 0.0
H874 H 0.10536 0.95957 0.6543 0.0
H875 H 0.06818 0.93839 0.68022 0.0
C876 C 0.20439 0.83309 0.94163 0.0
C877 C 0.21022 0.86311 0.91466 0.0
C878 C 0.28042 0.85738 0.92409 0.0
C879 C 0.27456 0.82676 0.95051 0.0
N880 N 0.23228 0.77801 0.97451 0.0
N881 N 0.25366 0.89756 0.87323 0.0
C882 C 0.23685 0.81241 0.95632 0.0
C883 C 0.24826 0.87331 0.90374 0.0
N884 N 0.16796 0.82517 0.95431 0.0
N885 N 0.31636 0.87243 0.91958 0.0
H886 H 0.23082 0.9097 0.85764 0.0
H887 H 0.28059 0.90293 0.86114 0.0
H888 H 0.34087 0.86068 0.93248 0.0
H889 H 0.32159 0.89791 0.90489 0.0
H890 H 0.16241 0.80649 0.97706 0.0
H891 H 0.14341 0.83961 0.94427 0.0
H892 H 0.20587 0.76419 0.97676 0.0
H893 H 0.25581 0.7612 0.98323 0.0
C894 C 0.46973 0.02813 0.20386 0.0
C895 C 0.45591 0.066 0.19674 0.0
C896 C 0.41028 0.03979 0.14897 0.0
C897 C 0.41939 1.00195 0.1616 0.0
N898 N 0.45609 0.95999 0.20352 0.0
N899 N 0.41268 0.10829 0.16184 0.0
C900 C 0.44893 0.99604 0.18947 0.0
C901 C 0.42646 0.07203 0.16864 0.0
N902 N 0.50362 0.02297 0.22346 0.0
N903 N 0.38675 0.04484 0.11759 0.0
H904 H 0.42532 0.13271 0.1734 0.0
H905 H 0.38771 0.1141 0.14602 0.0
H906 H 0.37449 0.02192 0.10259 0.0
H907 H 0.3821 0.07129 0.10432 0.0
H908 H 0.51719 0.99631 0.22675 0.0
H909 H 0.52038 0.04607 0.23245 0.0
H910 H 0.4742 0.95462 0.22699 0.0
H911 H 0.44156 0.9357 0.19382 0.0
C912 C 0.76868 0.32311 0.63523 0.0
C913 C 0.77879 0.36178 0.62706 0.0
C914 C 0.72047 0.36854 0.58697 0.0
C915 C 0.71307 0.32873 0.59107 0.0
N916 N 0.73175 0.26692 0.61645 0.0
N917 N 0.7674 0.41951 0.59012 0.0
C918 C 0.73749 0.30567 0.61471 0.0
C919 C 0.75542 0.38404 0.60163 0.0
N920 N 0.78827 0.30339 0.66331 0.0
N921 N 0.69338 0.39188 0.57004 0.0
H922 H 0.79302 0.4318 0.59969 0.0
H923 H 0.75381 0.43524 0.56836 0.0
H924 H 0.66695 0.38171 0.5601 0.0
H925 H 0.69526 0.42173 0.56959 0.0
H926 H 0.77993 0.27662 0.67349 0.0
H927 H 0.81119 0.31518 0.67874 0.0
H928 H 0.75101 0.2478 0.62952 0.0
H929 H 0.70879 0.25347 0.60256 0.0
C930 C 0.96895 0.53267 0.84273 0.0
C931 C 0.95294 0.49532 0.84482 0.0
C932 C 0.90215 0.52044 0.88831 0.0
C933 C 0.91526 0.55844 0.88211 0.0
N934 N 0.95884 0.60149 0.85012 0.0
N935 N 0.90093 0.45453 0.86527 0.0
C936 C 0.94821 0.56475 0.85858 0.0
C937 C 0.91882 0.48931 0.86679 0.0
N938 N 1.00451 0.53732 0.82633 0.0
N939 N 0.87406 0.51403 0.91524 0.0
H940 H 0.91163 0.43125 0.84932 0.0
H941 H 0.87376 0.44967 0.87705 0.0
H942 H 0.86104 0.53612 0.93128 0.0
H943 H 0.86612 0.48667 0.92413 0.0
H944 H 0.01959 0.56302 0.82727 0.0
H945 H 0.02066 0.51446 0.81491 0.0
H946 H 0.97973 0.6081 0.8296 0.0
H947 H 0.94471 0.62569 0.86144 0.0
C948 C 0.78965 0.70679 0.11478 0.0
C949 C 0.78298 0.74241 0.09588 0.0
C950 C 0.71454 0.74062 0.11446 0.0
C951 C 0.72127 0.7054 0.13415 0.0
N952 N 0.76673 0.65976 0.16088 0.0
N953 N 0.74225 0.79799 0.08657 0.0
C954 C 0.75937 0.69001 0.13677 0.0
C955 C 0.74634 0.76081 0.09856 0.0
N956 N 0.82428 0.68807 0.11024 0.0
N957 N 0.67761 0.75391 0.10928 0.0
H958 H 0.76542 0.8137 0.07599 0.0
H959 H 0.71725 0.81439 0.09086 0.0
H960 H 0.6535 0.73994 0.12022 0.0
H961 H 0.67059 0.77706 0.09152 0.0
H962 H 0.82933 0.65993 0.11925 0.0
H963 H 0.84739 0.69975 0.09517 0.0
H964 H 0.79445 0.64967 0.16711 0.0
H965 H 0.74532 0.64693 0.17748 0.0
C966 C 0.59998 0.5346 0.36106 0.0
C967 C 0.57693 0.5091 0.38288 0.0
C968 C 0.51881 0.5472 0.36672 0.0
C969 C 0.54211 0.57293 0.34549 0.0
N970 N 0.60522 0.59663 0.32992 0.0
N971 N 0.51599 0.49464 0.41279 0.0
C972 C 0.58285 0.56831 0.3451 0.0
C973 C 0.53676 0.51656 0.38771 0.0
N974 N 0.63794 0.5257 0.35407 0.0
N975 N 0.47951 0.55111 0.36544 0.0
H976 H 0.52822 0.47183 0.42819 0.0
H977 H 0.48755 0.50076 0.42063 0.0
H978 H 0.46564 0.57391 0.35147 0.0
H979 H 0.46059 0.53083 0.37638 0.0
H980 H 0.65506 0.54064 0.33463 0.0
H981 H 0.65176 0.50146 0.36543 0.0
H982 H 0.63518 0.59707 0.33228 0.0
H983 H 0.59354 0.62172 0.31812 0.0
C984 C 0.36932 0.27285 0.1947 0.0
C985 C 0.38249 0.30999 0.20505 0.0
C986 C 0.42496 0.2812 0.25414 0.0
C987 C 0.41661 0.24392 0.23958 0.0
N988 N 0.38081 0.204 0.19523 0.0
N989 N 0.42414 0.35005 0.24333 0.0
C990 C 0.38827 0.23959 0.21007 0.0
C991 C 0.41052 0.31432 0.23461 0.0
N992 N 0.33845 0.26942 0.17031 0.0
N993 N 0.4457 0.2848 0.28759 0.0
H994 H 0.41327 0.37512 0.23071 0.0
H995 H 0.44792 0.35469 0.26112 0.0
H996 H 0.4551 0.2611 0.3035 0.0
H997 H 0.44999 0.31088 0.30178 0.0
H998 H 0.32456 0.24357 0.16491 0.0
H999 H 0.32463 0.29305 0.15772 0.0
H1000 H 0.36481 0.1994 0.17016 0.0
H1001 H 0.39212 0.17884 0.20691 0.0
C1002 C 0.90649 0.29102 0.78799 0.0
C1003 C 0.9198 0.32055 0.81293 0.0
C1004 C 0.89024 0.288 0.86841 0.0
C1005 C 0.88191 0.25583 0.84447 0.0
N1006 N 0.88467 0.22516 0.78176 0.0
N1007 N 0.92716 0.34618 0.87742 0.0
C1008 C 0.89032 0.25708 0.80418 0.0
C1009 C 0.91222 0.31888 0.85328 0.0
N1010 N 0.90937 0.2955 0.74882 0.0
N1011 N 0.87633 0.28941 0.90544 0.0
H1012 H 0.94217 0.36993 0.86735 0.0
H1013 H 0.92686 0.34406 0.90747 0.0
H1014 H 0.85984 0.26752 0.91735 0.0
H1015 H 0.87797 0.31366 0.92312 0.0
H1016 H 0.897 0.27688 0.7288 0.0
H1017 H 0.92127 0.31987 0.73628 0.0
H1018 H 0.89414 0.22262 0.75325 0.0
H1019 H 0.87293 0.19988 0.7925 0.0
C1020 C 0.9973 0.69716 0.11558 0.0
C1021 C 0.02138 0.67292 0.09251 0.0
C1022 C 0.98051 0.68659 0.03575 0.0
C1023 C 0.95539 0.70909 0.05943 0.0
N1024 N 0.93499 0.72878 0.12325 0.0
N1025 N 0.03211 0.6387 0.03257 0.0
C1026 C 0.96232 0.71214 0.0998 0.0
C1027 C 1.01179 0.66583 0.05312 0.0
N1028 N 1.00869 0.70737 0.15208 0.0
N1029 N 0.97556 0.68644 0.99652 0.0
H1030 H 0.05521 0.62318 0.04433 0.0
H1031 H 0.02416 0.62931 1.00507 0.0
H1032 H 0.95292 0.70109 0.98296 0.0
H1033 H 0.99527 0.6741 0.97723 0.0
H1034 H 0.99462 0.72837 0.1686 0.0
H1035 H 0.03423 0.6974 0.1647 0.0
H1036 H 0.93643 0.72836 0.15336 0.0
H1037 H 0.9089 0.73971 0.11272 0.0
C1038 C 0.61435 0.77285 0.35332 0.0
C1039 C 0.60519 0.81061 0.34057 0.0
C1040 C 0.56202 0.7836 0.29122 0.0
C1041 C 0.56711 0.74643 0.30751 0.0
N1042 N 0.59383 0.70671 0.35822 0.0
N1043 N 0.56664 0.85256 0.30035 0.0
C1044 C 0.59242 0.7412 0.33947 0.0
C1045 C 0.57817 0.81617 0.31014 0.0
N1046 N 0.64445 0.76714 0.37829 0.0
N1047 N 0.54259 0.78766 0.25702 0.0
H1048 H 0.57779 0.87715 0.31336 0.0
H1049 H 0.5438 0.85835 0.28158 0.0
H1050 H 0.53104 0.76445 0.24198 0.0
H1051 H 0.54119 0.81332 0.24166 0.0
H1052 H 0.65512 0.73999 0.38551 0.0
H1053 H 0.66115 0.78959 0.38896 0.0
H1054 H 0.60849 0.70248 0.3842 0.0
H1055 H 0.57744 0.68316 0.34988 0.0
C1056 C 0.49618 0.35774 0.5452 0.0
C1057 C 0.53378 0.36302 0.56074 0.0
C1058 C 0.50671 0.41011 0.6072 0.0
C1059 C 0.46876 0.40068 0.59502 0.0
N1060 N 0.42698 0.36219 0.55518 0.0
N1061 N 0.57456 0.39167 0.60926 0.0
C1062 C 0.46341 0.37376 0.56458 0.0
C1063 C 0.53908 0.3889 0.59222 0.0
N1064 N 0.49185 0.33818 0.51114 0.0
N1065 N 0.51178 0.43971 0.63277 0.0
H1066 H 0.59892 0.37685 0.59916 0.0
H1067 H 0.57936 0.40647 0.63505 0.0
H1068 H 0.48875 0.45549 0.6445 0.0
H1069 H 0.53871 0.45074 0.63982 0.0
H1070 H 0.46586 0.33668 0.4961 0.0
H1071 H 0.51519 0.32682 0.4958 0.0
H1072 H 0.42142 0.33925 0.5366 0.0
H1073 H 0.40215 0.37345 0.56829 0.0
C1074 C 0.07586 0.75326 0.72122 0.0
C1075 C 0.10705 0.75847 0.69531 0.0
C1076 C 0.10297 0.82847 0.70588 0.0
C1077 C 0.07184 0.82313 0.73216 0.0
N1078 N 0.03837 0.77964 0.77425 0.0
N1079 N 0.15612 0.79956 0.66955 0.0
C1080 C 0.0613 0.78521 0.74267 0.0
C1081 C 0.12245 0.79568 0.68972 0.0
N1082 N 0.05902 0.71805 0.72433 0.0
N1083 N 0.11297 0.86466 0.69496 0.0
H1084 H 0.17088 0.77622 0.6572 0.0
H1085 H 0.17116 0.82523 0.66781 0.0
H1086 H 0.10145 0.8893 0.7078 0.0
H1087 H 0.13149 0.87034 0.67199 0.0
H1088 H 0.03334 0.71365 0.7393 0.0
H1089 H 0.06882 0.69376 0.7093 0.0
H1090 H 0.03249 0.75264 0.78557 0.0
H1091 H 0.02923 0.80225 0.79191 0.0
C1092 C 0.49261 0.84843 0.99292 0.0
C1093 C 0.45432 0.86109 0.9845 0.0
C1094 C 0.48139 0.91489 0.94751 0.0
C1095 C 0.51875 0.89791 0.95047 0.0
N1096 N 0.55927 0.84541 0.97217 0.0
N1097 N 0.41223 0.90659 0.95199 0.0
C1098 C 0.52422 0.86391 0.97227 0.0
C1099 C 0.44865 0.89471 0.96169 0.0
N1100 N 0.499 0.82265 0.02195 0.0
N1101 N 0.47733 0.95071 0.93183 0.0
H1102 H 0.38747 0.89426 0.96312 0.0
H1103 H 0.4065 0.92745 0.93119 0.0
H1104 H 0.50064 0.96616 0.92115 0.0
H1105 H 0.4516 0.96649 0.93256 0.0
H1106 H 0.52645 0.81505 0.03182 0.0
H1107 H 0.47686 0.81268 0.0394 0.0
H1108 H 0.56357 0.81818 0.98395 0.0
H1109 H 0.58327 0.85558 0.95733 0.0
C1110 C 0.99892 0.15843 0.44532 0.0
C1111 C 0.96202 0.17663 0.44491 0.0
C1112 C 0.98805 0.23012 0.48296 0.0
C1113 C 0.02618 0.21469 0.47877 0.0
N1114 N 0.06815 0.16617 0.45028 0.0
N1115 N 0.92272 0.23284 0.45812 0.0
C1116 C 0.03171 0.17916 0.45873 0.0
C1117 C 0.95691 0.21326 0.46241 0.0
N1118 N 1.00257 0.12106 0.4334 0.0
N1119 N 0.9811 0.26024 0.50764 0.0
H1120 H 0.89909 0.22167 0.44333 0.0
H1121 H 0.91893 0.26154 0.46618 0.0
H1122 H 1.00259 0.27336 0.52381 0.0
H1123 H 0.95342 0.26967 0.51515 0.0
H1124 H 0.02781 0.10485 0.43687 0.0
H1125 H 0.97927 0.10514 0.42329 0.0
H1126 H 0.07376 0.14291 0.43195 0.0
H1127 H 0.09301 0.18054 0.45856 0.0
loop_
_geom_bond_atom_site_label_1
_geom_bond_atom_site_label_2
_geom_bond_distance
_geom_bond_site_symmetry_2
_ccdc_geom_bond_type
Tb0 C9 2.764 . S
Tb0 O10 2.325 . S
Tb0 O13 2.303 . S
Tb0 O17 2.322 . S
Tb0 O18 2.349 . S
Tb0 O21 2.415 . S
Tb0 O22 2.399 . S
Tb1 O11 2.322 . S
Tb1 O12 2.349 . S
Tb1 O14 2.415 . S
Tb1 O15 2.399 . S
Tb1 O16 2.325 . S
Tb1 O19 2.303 . S
Tb1 C30 2.764 . S
C2 O18 1.261 . S
C2 O19 1.257 . S
C3 C6 1.358 . S
C3 C7 1.332 . S
C3 C9 1.504 . S
C4 C5 1.373 . S
C4 C8 1.308 . S
C5 C4 1.373 . S
C5 C6 1.429 . S
C5 H32 0.932 . S
C6 C3 1.358 . S
C6 C5 1.429 . S
C6 H33 0.930 . S
C7 C3 1.332 . S
C7 C8 1.394 . S
C7 H34 0.932 . S
C8 C4 1.308 . S
C8 C7 1.394 . S
C8 H35 0.929 . S
C9 Tb0 2.764 . S
C9 C3 1.504 . S
C9 O21 1.239 . S
C9 O22 1.263 . S
O10 Tb0 2.325 . S
O10 C20 1.236 . S
O11 Tb1 2.322 . S
O11 C20 1.257 . S
O12 Tb1 2.349 . S
O12 C23 1.261 . S
O13 Tb0 2.303 . S
O13 C23 1.257 . S
O14 Tb1 2.415 . S
O14 C30 1.239 . S
O15 Tb1 2.399 . S
O15 C30 1.263 . S
O16 Tb1 2.325 . S
O16 C31 1.236 . S
O17 Tb0 2.322 . S
O17 C31 1.257 . S
O18 Tb0 2.349 . S
O18 C2 1.261 . S
O19 Tb1 2.303 . S
O19 C2 1.257 . S
C20 O10 1.236 . S
C20 O11 1.257 . S
O21 Tb0 2.415 . S
O21 C9 1.239 . S
O22 Tb0 2.399 . S
O22 C9 1.263 . S
C23 O12 1.261 . S
C23 O13 1.257 . S
C24 C27 1.358 . S
C24 C28 1.332 . S
C24 C30 1.504 . S
C25 C26 1.373 . S
C25 C29 1.308 . S
C26 C25 1.373 . S
C26 C27 1.429 . S
C26 H36 0.932 . S
C27 C24 1.358 . S
C27 C26 1.429 . S
C27 H37 0.930 . S
C28 C24 1.332 . S
C28 C29 1.394 . S
C28 H38 0.932 . S
C29 C25 1.308 . S
C29 C28 1.394 . S
C29 H39 0.929 . S
C30 Tb1 2.764 . S
C30 O14 1.239 . S
C30 O15 1.263 . S
C30 C24 1.504 . S
C31 O16 1.236 . S
C31 O17 1.257 . S
H32 C5 0.932 . S
H33 C6 0.930 . S
H34 C7 0.932 . S
H35 C8 0.929 . S
H36 C26 0.932 . S
H37 C27 0.930 . S
H38 C28 0.932 . S
H39 C29 0.929 . S
Tb40 C49 2.764 . S
Tb40 O50 2.325 . S
Tb40 O53 2.303 . S
Tb40 O57 2.322 . S
Tb40 O58 2.349 1_455 S
Tb40 O61 2.415 . S
Tb40 O62 2.399 . S
Tb41 O51 2.322 . S
Tb41 O52 2.349 1_655 S
Tb41 O54 2.415 . S
Tb41 O55 2.399 . S
Tb41 O56 2.314 1_655 S
Tb41 O59 2.303 . S
Tb41 C70 2.764 . S
C42 O58 1.261 . S
C42 O59 1.257 . S
C43 C46 1.358 . S
C43 C47 1.332 . S
C43 C49 1.504 . S
C44 C45 1.373 . S
C44 C48 1.308 . S
C45 C44 1.373 . S
C45 C46 1.429 . S
C45 H72 0.932 . S
C46 C43 1.358 . S
C46 C45 1.429 . S
C46 H73 0.930 . S
C47 C43 1.332 . S
C47 C48 1.394 . S
C47 H74 0.932 . S
C48 C44 1.308 . S
C48 C47 1.394 . S
C48 H75 0.929 . S
C49 Tb40 2.764 . S
C49 C43 1.504 . S
C49 O61 1.239 . S
C49 O62 1.263 . S
O50 Tb40 2.325 . S
O50 C60 1.236 1_455 S
O51 Tb41 2.322 . S
O51 C60 1.257 . S
O52 Tb41 2.349 1_455 S
O52 C63 1.261 . S
O53 Tb40 2.303 . S
O53 C63 1.257 . S
O54 Tb41 2.415 . S
O54 C70 1.239 . S
O55 Tb41 2.399 . S
O55 C70 1.263 . S
O56 Tb41 2.314 1_455 S
O56 C71 1.247 . S
O57 Tb40 2.322 . S
O57 C71 1.257 . S
O58 Tb40 2.349 1_655 S
O58 C42 1.261 . S
O59 Tb41 2.303 . S
O59 C42 1.257 . S
C60 O50 1.236 1_655 S
C60 O51 1.257 . S
O61 Tb40 2.415 . S
O61 C49 1.239 . S
O62 Tb40 2.399 . S
O62 C49 1.263 . S
C63 O52 1.261 . S
C63 O53 1.257 . S
C64 C67 1.358 . S
C64 C68 1.332 . S
C64 C70 1.504 . S
C65 C66 1.373 . S
C65 C69 1.308 . S
C66 C65 1.373 . S
C66 C67 1.429 . S
C66 H76 0.932 . S
C67 C64 1.358 . S
C67 C66 1.429 . S
C67 H77 0.930 . S
C68 C64 1.332 . S
C68 C69 1.394 . S
C68 H78 0.932 . S
C69 C65 1.308 . S
C69 C68 1.394 . S
C69 H79 0.929 1_565 S
C70 Tb41 2.764 . S
C70 O54 1.239 . S
C70 O55 1.263 . S
C70 C64 1.504 . S
C71 O56 1.247 . S
C71 O57 1.257 . S
H72 C45 0.932 . S
H73 C46 0.930 . S
H74 C47 0.932 . S
H75 C48 0.929 . S
H76 C66 0.932 . S
H77 C67 0.930 . S
H78 C68 0.932 . S
H79 C69 0.929 1_545 S
Tb80 C89 2.764 . S
Tb80 O90 2.325 . S
Tb80 O93 2.303 . S
Tb80 O97 2.322 . S
Tb80 O98 2.349 1_556 S
Tb80 O101 2.415 . S
Tb80 O102 2.399 . S
Tb81 O91 2.322 . S
Tb81 O92 2.349 1_554 S
Tb81 O94 2.415 . S
Tb81 O95 2.399 . S
Tb81 O96 2.325 . S
Tb81 O99 2.303 . S
Tb81 C110 2.764 . S
C82 O98 1.261 . S
C82 O99 1.257 . S
C83 C86 1.358 . S
C83 C87 1.332 . S
C83 C89 1.504 . S
C84 C85 1.373 . S
C84 C88 1.308 . S
C85 C84 1.373 . S
C85 C86 1.429 . S
C85 H112 0.932 . S
C86 C83 1.358 . S
C86 C85 1.429 . S
C86 H113 0.930 . S
C87 C83 1.332 . S
C87 C88 1.394 . S
C87 H114 0.932 . S
C88 C84 1.308 . S
C88 C87 1.394 . S
C88 H115 0.929 . S
C89 Tb80 2.764 . S
C89 C83 1.504 . S
C89 O101 1.239 . S
C89 O102 1.263 . S
O90 Tb80 2.325 . S
O90 C100 1.236 1_556 S
O91 Tb81 2.322 . S
O91 C100 1.257 . S
O92 Tb81 2.349 1_556 S
O92 C103 1.261 . S
O93 Tb80 2.303 . S
O93 C103 1.257 . S
O94 Tb81 2.415 . S
O94 C110 1.239 . S
O95 Tb81 2.399 . S
O95 C110 1.263 . S
O96 Tb81 2.325 . S
O96 C111 1.236 1_554 S
O97 Tb80 2.322 . S
O97 C111 1.257 . S
O98 Tb80 2.349 1_554 S
O98 C82 1.261 . S
O99 Tb81 2.303 . S
O99 C82 1.257 . S
C100 O90 1.236 1_554 S
C100 O91 1.257 . S
O101 Tb80 2.415 . S
O101 C89 1.239 . S
O102 Tb80 2.399 . S
O102 C89 1.263 . S
C103 O92 1.261 . S
C103 O93 1.257 . S
C104 C107 1.358 . S
C104 C108 1.332 . S
C104 C110 1.504 . S
C105 C106 1.373 . S
C105 C109 1.308 . S
C106 C105 1.373 . S
C106 C107 1.429 . S
C106 H116 0.932 . S
C107 C104 1.358 . S
C107 C106 1.429 . S
C107 H117 0.930 . S
C108 C104 1.332 . S
C108 C109 1.394 . S
C108 H118 0.932 . S
C109 C105 1.308 . S
C109 C108 1.394 . S
C109 H119 0.929 . S
C110 Tb81 2.764 . S
C110 O94 1.239 . S
C110 O95 1.263 . S
C110 C104 1.504 . S
C111 O96 1.236 1_556 S
C111 O97 1.257 . S
H112 C85 0.932 . S
H113 C86 0.930 . S
H114 C87 0.932 . S
H115 C88 0.929 . S
H116 C106 0.932 . S
H117 C107 0.930 . S
H118 C108 0.932 . S
H119 C109 0.929 . S
Tb120 C129 2.764 . S
Tb120 O130 2.325 . S
Tb120 O133 2.303 . S
Tb120 O137 2.322 . S
Tb120 O138 2.349 . S
Tb120 O141 2.415 . S
Tb120 O142 2.399 . S
Tb121 O131 2.322 . S
Tb121 O132 2.349 . S
Tb121 O134 2.415 . S
Tb121 O135 2.399 . S
Tb121 O136 2.325 . S
Tb121 O139 2.303 . S
Tb121 C150 2.764 . S
C122 O138 1.261 . S
C122 O139 1.257 . S
C123 C126 1.358 . S
C123 C127 1.332 . S
C123 C129 1.504 . S
C124 C125 1.373 . S
C124 C128 1.308 . S
C125 C124 1.373 . S
C125 C126 1.429 . S
C125 H152 0.932 . S
C126 C123 1.358 . S
C126 C125 1.429 . S
C126 H153 0.930 . S
C127 C123 1.332 . S
C127 C128 1.394 . S
C127 H154 0.932 . S
C128 C124 1.308 . S
C128 C127 1.394 . S
C128 H155 0.929 . S
C129 Tb120 2.764 . S
C129 C123 1.504 . S
C129 O141 1.239 . S
C129 O142 1.263 . S
O130 Tb120 2.325 . S
O130 C140 1.236 . S
O131 Tb121 2.322 . S
O131 C140 1.257 . S
O132 Tb121 2.349 . S
O132 C143 1.261 . S
O133 Tb120 2.303 . S
O133 C143 1.257 . S
O134 Tb121 2.415 . S
O134 C150 1.239 . S
O135 Tb121 2.399 . S
O135 C150 1.263 . S
O136 Tb121 2.325 . S
O136 C151 1.236 . S
O137 Tb120 2.322 . S
O137 C151 1.257 . S
O138 Tb120 2.349 . S
O138 C122 1.261 . S
O139 Tb121 2.303 . S
O139 C122 1.257 . S
C140 O130 1.236 . S
C140 O131 1.257 . S
O141 Tb120 2.415 . S
O141 C129 1.239 . S
O142 Tb120 2.399 . S
O142 C129 1.263 . S
C143 O132 1.261 . S
C143 O133 1.257 . S
C144 C147 1.358 . S
C144 C148 1.332 . S
C144 C150 1.504 . S
C145 C146 1.373 . S
C145 C149 1.308 . S
C146 C145 1.373 . S
C146 C147 1.429 . S
C146 H156 0.932 . S
C147 C144 1.358 . S
C147 C146 1.429 . S
C147 H157 0.930 . S
C148 C144 1.332 . S
C148 C149 1.394 . S
C148 H158 0.932 . S
C149 C145 1.308 . S
C149 C148 1.394 . S
C149 H159 0.929 . S
C150 Tb121 2.764 . S
C150 O134 1.239 . S
C150 O135 1.263 . S
C150 C144 1.504 . S
C151 O136 1.236 . S
C151 O137 1.257 . S
H152 C125 0.932 . S
H153 C126 0.930 . S
H154 C127 0.932 . S
H155 C128 0.929 . S
H156 C146 0.932 . S
H157 C147 0.930 . S
H158 C148 0.932 . S
H159 C149 0.929 . S
Tb160 C169 2.764 . S
Tb160 O170 2.325 . S
Tb160 O173 2.303 . S
Tb160 O177 2.322 . S
Tb160 O178 2.349 . S
Tb160 O181 2.415 . S
Tb160 O182 2.399 . S
Tb161 O171 2.322 . S
Tb161 O172 2.349 . S
Tb161 O174 2.415 . S
Tb161 O175 2.399 . S
Tb161 O176 2.325 . S
Tb161 O179 2.303 . S
Tb161 C190 2.764 . S
C162 O178 1.261 . S
C162 O179 1.257 . S
C163 C166 1.358 . S
C163 C167 1.332 . S
C163 C169 1.504 . S
C164 C165 1.373 . S
C164 C168 1.308 . S
C165 C164 1.373 . S
C165 C166 1.429 . S
C165 H192 0.932 . S
C166 C163 1.358 . S
C166 C165 1.429 . S
C166 H193 0.930 . S
C167 C163 1.332 . S
C167 C168 1.394 . S
C167 H194 0.932 . S
C168 C164 1.308 . S
C168 C167 1.394 . S
C168 H195 0.929 . S
C169 Tb160 2.764 . S
C169 C163 1.504 . S
C169 O181 1.239 . S
C169 O182 1.263 . S
O170 Tb160 2.325 . S
O170 C180 1.236 . S
O171 Tb161 2.322 . S
O171 C180 1.257 . S
O172 Tb161 2.349 . S
O172 C183 1.261 . S
O173 Tb160 2.303 . S
O173 C183 1.257 . S
O174 Tb161 2.415 . S
O174 C190 1.239 . S
O175 Tb161 2.399 . S
O175 C190 1.263 . S
O176 Tb161 2.325 . S
O176 C191 1.236 . S
O177 Tb160 2.322 . S
O177 C191 1.257 . S
O178 Tb160 2.349 . S
O178 C162 1.261 . S
O179 Tb161 2.303 . S
O179 C162 1.257 . S
C180 O170 1.236 . S
C180 O171 1.257 . S
O181 Tb160 2.415 . S
O181 C169 1.239 . S
O182 Tb160 2.399 . S
O182 C169 1.263 . S
C183 O172 1.261 . S
C183 O173 1.257 . S
C184 C187 1.358 . S
C184 C188 1.332 . S
C184 C190 1.504 . S
C185 C186 1.373 . S
C185 C189 1.308 . S
C186 C185 1.373 . S
C186 C187 1.429 . S
C186 H196 0.932 . S
C187 C184 1.358 . S
C187 C186 1.429 . S
C187 H197 0.930 . S
C188 C184 1.332 . S
C188 C189 1.394 . S
C188 H198 0.932 . S
C189 C185 1.308 . S
C189 C188 1.394 . S
C189 H199 0.929 . S
C190 Tb161 2.764 . S
C190 O174 1.239 . S
C190 O175 1.263 . S
C190 C184 1.504 . S
C191 O176 1.236 . S
C191 O177 1.257 . S
H192 C165 0.932 . S
H193 C166 0.930 . S
H194 C167 0.932 . S
H195 C168 0.929 . S
H196 C186 0.932 . S
H197 C187 0.930 . S
H198 C188 0.932 . S
H199 C189 0.929 . S
Tb200 C209 2.764 . S
Tb200 O210 2.325 . S
Tb200 O213 2.303 1_455 S
Tb200 O217 2.322 1_455 S
Tb200 O218 2.349 . S
Tb200 O221 2.415 . S
Tb200 O222 2.399 . S
Tb201 O211 2.322 . S
Tb201 O212 2.349 . S
Tb201 O214 2.415 . S
Tb201 O215 2.399 . S
Tb201 O216 2.325 . S
Tb201 O219 2.303 . S
Tb201 C230 2.764 . S
C202 O218 1.261 . S
C202 O219 1.257 1_455 S
C203 C206 1.358 . S
C203 C207 1.332 . S
C203 C209 1.504 . S
C204 C205 1.373 . S
C204 C208 1.308 . S
C205 C204 1.373 . S
C205 C206 1.429 . S
C205 H232 0.932 . S
C206 C203 1.358 . S
C206 C205 1.429 . S
C206 H233 0.930 . S
C207 C203 1.332 . S
C207 C208 1.394 . S
C207 H234 0.932 . S
C208 C204 1.308 . S
C208 C207 1.394 . S
C208 H235 0.929 . S
C209 Tb200 2.764 . S
C209 C203 1.504 . S
C209 O221 1.239 . S
C209 O222 1.263 . S
O210 Tb200 2.325 . S
O210 C220 1.236 . S
O211 Tb201 2.322 . S
O211 C220 1.257 1_655 S
O212 Tb201 2.349 . S
O212 C223 1.261 . S
O213 Tb200 2.303 1_655 S
O213 C223 1.257 . S
O214 Tb201 2.415 . S
O214 C230 1.239 . S
O215 Tb201 2.399 . S
O215 C230 1.263 . S
O216 Tb201 2.325 . S
O216 C231 1.236 . S
O217 Tb200 2.322 1_655 S
O217 C231 1.257 . S
O218 Tb200 2.349 . S
O218 C202 1.261 . S
O219 Tb201 2.303 . S
O219 C202 1.257 1_655 S
C220 O210 1.236 . S
C220 O211 1.257 1_455 S
O221 Tb200 2.415 . S
O221 C209 1.239 . S
O222 Tb200 2.399 . S
O222 C209 1.263 . S
C223 O212 1.261 . S
C223 O213 1.257 . S
C224 C227 1.358 . S
C224 C228 1.332 . S
C224 C230 1.504 . S
C225 C226 1.373 . S
C225 C229 1.308 . S
C226 C225 1.373 . S
C226 C227 1.429 . S
C226 H236 0.932 . S
C227 C224 1.358 . S
C227 C226 1.429 . S
C227 H237 0.930 . S
C228 C224 1.332 . S
C228 C229 1.394 . S
C228 H238 0.932 . S
C229 C225 1.308 . S
C229 C228 1.394 . S
C229 H239 0.929 . S
C230 Tb201 2.764 . S
C230 O214 1.239 . S
C230 O215 1.263 . S
C230 C224 1.504 . S
C231 O216 1.236 . S
C231 O217 1.257 . S
H232 C205 0.932 . S
H233 C206 0.930 . S
H234 C207 0.932 . S
H235 C208 0.929 . S
H236 C226 0.932 . S
H237 C227 0.930 . S
H238 C228 0.932 . S
H239 C229 0.929 . S
Tb240 C249 2.764 . S
Tb240 O250 2.325 . S
Tb240 O253 2.303 1_556 S
Tb240 O257 2.322 1_556 S
Tb240 O258 2.349 . S
Tb240 O261 2.415 . S
Tb240 O262 2.399 . S
Tb241 O251 2.322 1_554 S
Tb241 O252 2.349 . S
Tb241 O254 2.415 . S
Tb241 O255 2.399 . S
Tb241 O256 2.325 . S
Tb241 O259 2.303 1_554 S
Tb241 C270 2.764 . S
C242 O258 1.261 . S
C242 O259 1.257 . S
C243 C246 1.358 . S
C243 C247 1.332 . S
C243 C249 1.504 . S
C244 C245 1.373 . S
C244 C248 1.308 . S
C245 C244 1.373 . S
C245 C246 1.429 . S
C245 H272 0.932 . S
C246 C243 1.358 . S
C246 C245 1.429 . S
C246 H273 0.930 . S
C247 C243 1.332 . S
C247 C248 1.394 . S
C247 H274 0.932 . S
C248 C244 1.308 . S
C248 C247 1.394 . S
C248 H275 0.929 . S
C249 Tb240 2.764 . S
C249 C243 1.504 . S
C249 O261 1.239 . S
C249 O262 1.263 . S
O250 Tb240 2.325 . S
O250 C260 1.236 . S
O251 Tb241 2.322 1_556 S
O251 C260 1.257 . S
O252 Tb241 2.349 . S
O252 C263 1.261 . S
O253 Tb240 2.303 1_554 S
O253 C263 1.257 . S
O254 Tb241 2.415 . S
O254 C270 1.239 . S
O255 Tb241 2.399 . S
O255 C270 1.263 . S
O256 Tb241 2.325 . S
O256 C271 1.236 . S
O257 Tb240 2.322 1_554 S
O257 C271 1.257 . S
O258 Tb240 2.349 . S
O258 C242 1.261 . S
O259 Tb241 2.303 1_556 S
O259 C242 1.257 . S
C260 O250 1.236 . S
C260 O251 1.257 . S
O261 Tb240 2.415 . S
O261 C249 1.239 . S
O262 Tb240 2.399 . S
O262 C249 1.263 . S
C263 O252 1.261 . S
C263 O253 1.257 . S
C264 C267 1.358 . S
C264 C268 1.332 . S
C264 C270 1.504 . S
C265 C266 1.373 . S
C265 C269 1.308 . S
C266 C265 1.373 . S
C266 C267 1.429 . S
C266 H276 0.932 . S
C267 C264 1.358 . S
C267 C266 1.429 . S
C267 H277 0.930 . S
C268 C264 1.332 . S
C268 C269 1.394 . S
C268 H278 0.932 . S
C269 C265 1.308 . S
C269 C268 1.394 . S
C269 H279 0.929 . S
C270 Tb241 2.764 . S
C270 O254 1.239 . S
C270 O255 1.263 . S
C270 C264 1.504 . S
C271 O256 1.236 . S
C271 O257 1.257 . S
H272 C245 0.932 . S
H273 C246 0.930 . S
H274 C247 0.932 . S
H275 C248 0.929 . S
H276 C266 0.932 . S
H277 C267 0.930 . S
H278 C268 0.932 . S
H279 C269 0.929 . S
Tb280 C289 2.764 . S
Tb280 O290 2.325 . S
Tb280 O293 2.303 . S
Tb280 O297 2.322 . S
Tb280 O298 2.349 . S
Tb280 O301 2.415 . S
Tb280 O302 2.399 . S
Tb281 O291 2.322 . S
Tb281 O292 2.349 . S
Tb281 O294 2.415 . S
Tb281 O295 2.399 . S
Tb281 O296 2.325 . S
Tb281 O299 2.303 . S
Tb281 C310 2.764 . S
C282 O298 1.261 . S
C282 O299 1.257 . S
C283 C286 1.358 . S
C283 C287 1.332 . S
C283 C289 1.504 . S
C284 C285 1.373 . S
C284 C288 1.308 . S
C285 C284 1.373 . S
C285 C286 1.429 . S
C285 H312 0.932 . S
C286 C283 1.358 . S
C286 C285 1.429 . S
C286 H313 0.930 . S
C287 C283 1.332 . S
C287 C288 1.394 . S
C287 H314 0.932 . S
C288 C284 1.308 . S
C288 C287 1.394 . S
C288 H315 0.929 . S
C289 Tb280 2.764 . S
C289 C283 1.504 . S
C289 O301 1.239 . S
C289 O302 1.263 . S
O290 Tb280 2.325 . S
O290 C300 1.236 . S
O291 Tb281 2.322 . S
O291 C300 1.257 . S
O292 Tb281 2.349 . S
O292 C303 1.261 . S
O293 Tb280 2.303 . S
O293 C303 1.257 . S
O294 Tb281 2.415 . S
O294 C310 1.239 . S
O295 Tb281 2.399 . S
O295 C310 1.263 . S
O296 Tb281 2.325 . S
O296 C311 1.236 . S
O297 Tb280 2.322 . S
O297 C311 1.257 . S
O298 Tb280 2.349 . S
O298 C282 1.261 . S
O299 Tb281 2.303 . S
O299 C282 1.257 . S
C300 O290 1.236 . S
C300 O291 1.257 . S
O301 Tb280 2.415 . S
O301 C289 1.239 . S
O302 Tb280 2.399 . S
O302 C289 1.263 . S
C303 O292 1.261 . S
C303 O293 1.257 . S
C304 C307 1.358 . S
C304 C308 1.332 . S
C304 C310 1.504 . S
C305 C306 1.373 . S
C305 C309 1.308 . S
C306 C305 1.373 . S
C306 C307 1.429 . S
C306 H316 0.932 . S
C307 C304 1.358 . S
C307 C306 1.429 . S
C307 H317 0.930 . S
C308 C304 1.332 . S
C308 C309 1.394 . S
C308 H318 0.932 . S
C309 C305 1.308 . S
C309 C308 1.394 . S
C309 H319 0.929 . S
C310 Tb281 2.764 . S
C310 O294 1.239 . S
C310 O295 1.263 . S
C310 C304 1.504 . S
C311 O296 1.236 . S
C311 O297 1.257 . S
H312 C285 0.932 . S
H313 C286 0.930 . S
H314 C287 0.932 . S
H315 C288 0.929 . S
H316 C306 0.932 . S
H317 C307 0.930 . S
H318 C308 0.932 . S
H319 C309 0.929 . S
Tb320 C329 2.764 . S
Tb320 O330 2.325 . S
Tb320 O333 2.303 . S
Tb320 O337 2.322 . S
Tb320 O338 2.349 . S
Tb320 O341 2.415 . S
Tb320 O342 2.399 . S
Tb321 O331 2.322 . S
Tb321 O332 2.349 . S
Tb321 O334 2.415 . S
Tb321 O335 2.399 . S
Tb321 O336 2.325 . S
Tb321 O339 2.303 . S
Tb321 C350 2.764 . S
C322 O338 1.261 . S
C322 O339 1.257 . S
C323 C326 1.358 . S
C323 C327 1.332 . S
C323 C329 1.504 . S
C324 C325 1.373 . S
C324 C328 1.308 . S
C325 C324 1.373 . S
C325 C326 1.429 . S
C325 H352 0.932 . S
C326 C323 1.358 . S
C326 C325 1.429 . S
C326 H353 0.930 . S
C327 C323 1.332 . S
C327 C328 1.394 . S
C327 H354 0.932 . S
C328 C324 1.308 . S
C328 C327 1.394 . S
C328 H355 0.929 . S
C329 Tb320 2.764 . S
C329 C323 1.504 . S
C329 O341 1.239 . S
C329 O342 1.263 . S
O330 Tb320 2.325 . S
O330 C340 1.236 . S
O331 Tb321 2.322 . S
O331 C340 1.257 . S
O332 Tb321 2.349 . S
O332 C343 1.261 . S
O333 Tb320 2.303 . S
O333 C343 1.257 . S
O334 Tb321 2.415 . S
O334 C350 1.239 . S
O335 Tb321 2.399 . S
O335 C350 1.263 . S
O336 Tb321 2.325 . S
O336 C351 1.236 . S
O337 Tb320 2.322 . S
O337 C351 1.257 . S
O338 Tb320 2.349 . S
O338 C322 1.261 . S
O339 Tb321 2.303 . S
O339 C322 1.257 . S
C340 O330 1.236 . S
C340 O331 1.257 . S
O341 Tb320 2.415 . S
O341 C329 1.239 . S
O342 Tb320 2.399 . S
O342 C329 1.263 . S
C343 O332 1.261 . S
C343 O333 1.257 . S
C344 C347 1.358 . S
C344 C348 1.332 . S
C344 C350 1.504 . S
C345 C346 1.373 . S
C345 C349 1.308 . S
C346 C345 1.373 . S
C346 C347 1.429 . S
C346 H356 0.932 . S
C347 C344 1.358 . S
C347 C346 1.429 . S
C347 H357 0.930 . S
C348 C344 1.332 . S
C348 C349 1.394 . S
C348 H358 0.932 . S
C349 C345 1.308 . S
C349 C348 1.394 . S
C349 H359 0.929 . S
C350 Tb321 2.764 . S
C350 O334 1.239 . S
C350 O335 1.263 . S
C350 C344 1.504 . S
C351 O336 1.236 . S
C351 O337 1.257 . S
H352 C325 0.932 . S
H353 C326 0.930 . S
H354 C327 0.932 . S
H355 C328 0.929 . S
H356 C346 0.932 . S
H357 C347 0.930 . S
H358 C348 0.932 . S
H359 C349 0.929 . S
Tb360 C369 2.764 . S
Tb360 O370 2.325 . S
Tb360 O373 2.303 . S
Tb360 O377 2.322 . S
Tb360 O378 2.349 . S
Tb360 O381 2.415 . S
Tb360 O382 2.399 . S
Tb361 O371 2.322 . S
Tb361 O372 2.349 1_565 S
Tb361 O374 2.415 . S
Tb361 O375 2.399 . S
Tb361 O376 2.325 1_565 S
Tb361 O379 2.303 . S
Tb361 C390 2.764 . S
C362 O378 1.261 1_565 S
C362 O379 1.257 . S
C363 C366 1.358 . S
C363 C367 1.332 . S
C363 C369 1.504 . S
C364 C365 1.373 . S
C364 C368 1.308 . S
C365 C364 1.373 . S
C365 C366 1.429 . S
C365 H392 0.932 . S
C366 C363 1.358 . S
C366 C365 1.429 . S
C366 H393 0.930 . S
C367 C363 1.332 . S
C367 C368 1.394 . S
C367 H394 0.932 . S
C368 C364 1.308 . S
C368 C367 1.394 . S
C368 H395 0.929 . S
C369 Tb360 2.764 . S
C369 C363 1.504 . S
C369 O381 1.239 . S
C369 O382 1.263 . S
O370 Tb360 2.325 . S
O370 C380 1.241 . S
O371 Tb361 2.322 . S
O371 C380 1.253 1_565 S
O372 Tb361 2.349 1_545 S
O372 C383 1.261 . S
O373 Tb360 2.303 . S
O373 C383 1.257 . S
O374 Tb361 2.415 . S
O374 C390 1.239 . S
O375 Tb361 2.399 . S
O375 C390 1.263 . S
O376 Tb361 2.325 1_545 S
O376 C391 1.236 . S
O377 Tb360 2.322 . S
O377 C391 1.257 . S
O378 Tb360 2.349 . S
O378 C362 1.261 1_545 S
O379 Tb361 2.303 . S
O379 C362 1.257 . S
C380 O370 1.241 . S
C380 O371 1.253 1_545 S
O381 Tb360 2.415 . S
O381 C369 1.239 . S
O382 Tb360 2.399 . S
O382 C369 1.263 . S
C383 O372 1.261 . S
C383 O373 1.257 . S
C384 C387 1.358 . S
C384 C388 1.332 . S
C384 C390 1.504 . S
C385 C386 1.373 . S
C385 C389 1.308 . S
C386 C385 1.373 . S
C386 C387 1.429 . S
C386 H396 0.932 . S
C387 C384 1.358 . S
C387 C386 1.429 . S
C387 H397 0.930 . S
C388 C384 1.332 . S
C388 C389 1.394 . S
C388 H398 0.932 . S
C389 C385 1.308 . S
C389 C388 1.394 . S
C389 H399 0.929 . S
C390 Tb361 2.764 . S
C390 O374 1.239 . S
C390 O375 1.263 . S
C390 C384 1.504 . S
C391 O376 1.236 . S
C391 O377 1.257 . S
H392 C365 0.932 . S
H393 C366 0.930 . S
H394 C367 0.932 . S
H395 C368 0.929 . S
H396 C386 0.932 . S
H397 C387 0.930 . S
H398 C388 0.932 . S
H399 C389 0.929 . S
Tb400 C409 2.764 . S
Tb400 O410 2.325 . S
Tb400 O413 2.303 . S
Tb400 O417 2.322 . S
Tb400 O418 2.349 1_565 S
Tb400 O421 2.415 . S
Tb400 O422 2.399 . S
Tb401 O411 2.322 . S
Tb401 O412 2.349 1_545 S
Tb401 O414 2.415 . S
Tb401 O415 2.399 . S
Tb401 O416 2.325 . S
Tb401 O419 2.303 . S
Tb401 C430 2.764 . S
C402 O418 1.261 . S
C402 O419 1.257 . S
C403 C406 1.358 . S
C403 C407 1.332 . S
C403 C409 1.504 . S
C404 C405 1.373 . S
C404 C408 1.308 . S
C405 C404 1.373 . S
C405 C406 1.429 . S
C405 H432 0.932 . S
C406 C403 1.358 . S
C406 C405 1.429 . S
C406 H433 0.930 . S
C407 C403 1.332 . S
C407 C408 1.394 . S
C407 H434 0.932 . S
C408 C404 1.308 . S
C408 C407 1.394 . S
C408 H435 0.929 . S
C409 Tb400 2.764 . S
C409 C403 1.504 . S
C409 O421 1.239 . S
C409 O422 1.263 . S
O410 Tb400 2.325 . S
O410 C420 1.236 1_565 S
O411 Tb401 2.322 . S
O411 C420 1.257 . S
O412 Tb401 2.349 1_565 S
O412 C423 1.261 . S
O413 Tb400 2.303 . S
O413 C423 1.257 . S
O414 Tb401 2.415 . S
O414 C430 1.239 . S
O415 Tb401 2.399 . S
O415 C430 1.263 . S
O416 Tb401 2.325 . S
O416 C431 1.236 1_545 S
O417 Tb400 2.322 . S
O417 C431 1.257 . S
O418 Tb400 2.349 1_545 S
O418 C402 1.261 . S
O419 Tb401 2.303 . S
O419 C402 1.257 . S
C420 O410 1.236 1_545 S
C420 O411 1.257 . S
O421 Tb400 2.415 . S
O421 C409 1.239 . S
O422 Tb400 2.399 . S
O422 C409 1.263 . S
C423 O412 1.261 . S
C423 O413 1.257 . S
C424 C427 1.358 . S
C424 C428 1.332 . S
C424 C430 1.504 . S
C425 C426 1.373 . S
C425 C429 1.308 . S
C426 C425 1.373 . S
C426 C427 1.429 . S
C426 H436 0.932 . S
C427 C424 1.358 . S
C427 C426 1.429 . S
C427 H437 0.930 . S
C428 C424 1.332 . S
C428 C429 1.394 . S
C428 H438 0.932 . S
C429 C425 1.308 . S
C429 C428 1.394 . S
C429 H439 0.929 . S
C430 Tb401 2.764 . S
C430 O414 1.239 . S
C430 O415 1.263 . S
C430 C424 1.504 . S
C431 O416 1.236 1_565 S
C431 O417 1.257 . S
H432 C405 0.932 . S
H433 C406 0.930 . S
H434 C407 0.932 . S
H435 C408 0.929 . S
H436 C426 0.932 . S
H437 C427 0.930 . S
H438 C428 0.932 . S
H439 C429 0.929 . S
Tb440 C449 2.764 . S
Tb440 O450 2.325 . S
Tb440 O453 2.303 . S
Tb440 O457 2.322 . S
Tb440 O458 2.349 . S
Tb440 O461 2.415 . S
Tb440 O462 2.399 . S
Tb441 O451 2.322 . S
Tb441 O452 2.349 . S
Tb441 O454 2.415 . S
Tb441 O455 2.399 . S
Tb441 O456 2.325 . S
Tb441 O459 2.303 . S
Tb441 C470 2.764 . S
C442 O458 1.261 . S
C442 O459 1.257 . S
C443 C446 1.358 . S
C443 C447 1.332 . S
C443 C449 1.504 . S
C444 C445 1.373 . S
C444 C448 1.308 . S
C445 C444 1.373 . S
C445 C446 1.429 . S
C445 H472 0.932 . S
C446 C443 1.358 . S
C446 C445 1.429 . S
C446 H473 0.930 . S
C447 C443 1.332 . S
C447 C448 1.394 . S
C447 H474 0.932 . S
C448 C444 1.308 . S
C448 C447 1.394 . S
C448 H475 0.929 . S
C449 Tb440 2.764 . S
C449 C443 1.504 . S
C449 O461 1.239 . S
C449 O462 1.263 . S
O450 Tb440 2.325 . S
O450 C460 1.236 . S
O451 Tb441 2.322 . S
O451 C460 1.257 . S
O452 Tb441 2.349 . S
O452 C463 1.261 . S
O453 Tb440 2.303 . S
O453 C463 1.257 . S
O454 Tb441 2.415 . S
O454 C470 1.239 . S
O455 Tb441 2.399 . S
O455 C470 1.263 . S
O456 Tb441 2.325 . S
O456 C471 1.236 . S
O457 Tb440 2.322 . S
O457 C471 1.257 . S
O458 Tb440 2.349 . S
O458 C442 1.261 . S
O459 Tb441 2.303 . S
O459 C442 1.257 . S
C460 O450 1.236 . S
C460 O451 1.257 . S
O461 Tb440 2.415 . S
O461 C449 1.239 . S
O462 Tb440 2.399 . S
O462 C449 1.263 . S
C463 O452 1.261 . S
C463 O453 1.257 . S
C464 C467 1.358 . S
C464 C468 1.332 . S
C464 C470 1.504 . S
C465 C466 1.373 . S
C465 C469 1.308 . S
C466 C465 1.373 . S
C466 C467 1.429 . S
C466 H476 0.932 . S
C467 C464 1.358 . S
C467 C466 1.429 . S
C467 H477 0.930 . S
C468 C464 1.332 . S
C468 C469 1.394 . S
C468 H478 0.932 . S
C469 C465 1.308 . S
C469 C468 1.394 . S
C469 H479 0.929 . S
C470 Tb441 2.764 . S
C470 O454 1.239 . S
C470 O455 1.263 . S
C470 C464 1.504 . S
C471 O456 1.236 . S
C471 O457 1.257 . S
H472 C445 0.932 . S
H473 C446 0.930 . S
H474 C447 0.932 . S
H475 C448 0.929 . S
H476 C466 0.932 . S
H477 C467 0.930 . S
H478 C468 0.932 . S
H479 C469 0.929 . S
C480 C481 1.363 . S
C480 C486 1.379 . S
C480 N488 1.356 . S
C481 C480 1.363 . S
C481 C487 1.363 . S
C482 C483 1.363 . S
C482 C487 1.379 . S
C482 N489 1.356 . S
C483 C482 1.363 . S
C483 C486 1.363 . S
N484 C486 1.356 . S
N484 H496 0.984 . S
N484 H497 0.985 . S
N485 C487 1.356 . S
N485 H490 0.984 . S
N485 H491 0.985 . S
C486 C480 1.379 . S
C486 C483 1.363 . S
C486 N484 1.356 . S
C487 C481 1.363 . S
C487 C482 1.379 . S
C487 N485 1.356 . S
N488 C480 1.356 . S
N488 H494 0.984 . S
N488 H495 0.984 . S
N489 C482 1.356 . S
N489 H492 0.984 . S
N489 H493 0.985 . S
H490 N485 0.984 . S
H491 N485 0.985 . S
H492 N489 0.984 . S
H493 N489 0.985 . S
H494 N488 0.984 . S
H495 N488 0.984 . S
H496 N484 0.984 . S
H497 N484 0.985 . S
C498 C499 1.363 . S
C498 C504 1.379 . S
C498 N506 1.356 . S
C499 C498 1.363 . S
C499 C505 1.363 1_565 S
C500 C501 1.363 1_545 S
C500 C505 1.379 . S
C500 N507 1.356 . S
C501 C500 1.363 1_565 S
C501 C504 1.363 . S
N502 C504 1.356 . S
N502 H514 0.984 . S
N502 H515 0.985 . S
N503 C505 1.356 . S
N503 H508 0.984 . S
N503 H509 0.985 . S
C504 C498 1.379 . S
C504 C501 1.363 . S
C504 N502 1.356 . S
C505 C499 1.363 1_545 S
C505 C500 1.379 . S
C505 N503 1.356 . S
N506 C498 1.356 . S
N506 H512 0.984 . S
N506 H513 0.984 . S
N507 C500 1.356 . S
N507 H510 0.984 . S
N507 H511 0.985 . S
H508 N503 0.984 . S
H509 N503 0.985 . S
H510 N507 0.984 . S
H511 N507 0.985 . S
H512 N506 0.984 . S
H513 N506 0.984 . S
H514 N502 0.984 . S
H515 N502 0.985 . S
C516 C517 1.363 . S
C516 C522 1.379 . S
C516 N524 1.356 . S
C517 C516 1.363 . S
C517 C523 1.383 . S
C518 C519 1.363 . S
C518 C523 1.385 . S
C518 N525 1.356 1_554 S
C519 C518 1.363 . S
C519 C522 1.363 . S
N520 C522 1.356 . S
N520 H532 0.984 . S
N520 H533 0.985 . S
N521 C523 1.334 1_556 S
N521 H526 0.984 . S
N521 H527 0.985 . S
C522 C516 1.379 . S
C522 C519 1.363 . S
C522 N520 1.356 . S
C523 C517 1.383 . S
C523 C518 1.385 . S
C523 N521 1.334 1_554 S
N524 C516 1.356 . S
N524 H530 0.984 . S
N524 H531 0.984 . S
N525 C518 1.356 1_556 S
N525 H528 0.984 1_556 S
N525 H529 0.985 . S
H526 N521 0.984 . S
H527 N521 0.985 . S
H528 N525 0.984 1_554 S
H529 N525 0.985 . S
H530 N524 0.984 . S
H531 N524 0.984 . S
H532 N520 0.984 . S
H533 N520 0.985 . S
C534 C535 1.363 . S
C534 C540 1.379 . S
C534 N542 1.356 . S
C535 C534 1.363 . S
C535 C541 1.363 . S
C536 C537 1.363 . S
C536 C541 1.379 . S
C536 N543 1.356 . S
C537 C536 1.363 . S
C537 C540 1.363 . S
N538 C540 1.356 1_565 S
N538 H550 0.984 . S
N538 H551 0.985 . S
N539 C541 1.356 . S
N539 H544 0.984 . S
N539 H545 0.985 . S
C540 C534 1.379 . S
C540 C537 1.363 . S
C540 N538 1.356 1_545 S
C541 C535 1.363 . S
C541 C536 1.379 . S
C541 N539 1.356 . S
N542 C534 1.356 . S
N542 H548 0.984 1_545 S
N542 H549 0.984 . S
N543 C536 1.356 . S
N543 H546 0.984 . S
N543 H547 0.985 . S
H544 N539 0.984 . S
H545 N539 0.985 . S
H546 N543 0.984 . S
H547 N543 0.985 . S
H548 N542 0.984 1_565 S
H549 N542 0.984 . S
H550 N538 0.984 . S
H551 N538 0.985 . S
C552 C553 1.363 . S
C552 C558 1.379 . S
C552 N560 1.356 . S
C553 C552 1.363 . S
C553 C559 1.363 . S
C554 C555 1.363 . S
C554 C559 1.379 . S
C554 N561 1.356 . S
C555 C554 1.363 . S
C555 C558 1.363 . S
N556 C558 1.356 . S
N556 H568 0.984 . S
N556 H569 0.985 . S
N557 C559 1.356 . S
N557 H562 0.984 . S
N557 H563 0.985 . S
C558 C552 1.379 . S
C558 C555 1.363 . S
C558 N556 1.356 . S
C559 C553 1.363 . S
C559 C554 1.379 . S
C559 N557 1.356 . S
N560 C552 1.356 . S
N560 H566 0.984 . S
N560 H567 0.984 . S
N561 C554 1.356 . S
N561 H564 0.984 . S
N561 H565 0.985 . S
H562 N557 0.984 . S
H563 N557 0.985 . S
H564 N561 0.984 . S
H565 N561 0.985 . S
H566 N560 0.984 . S
H567 N560 0.984 . S
H568 N556 0.984 . S
H569 N556 0.985 . S
C570 C571 1.363 . S
C570 C576 1.379 . S
C570 N578 1.356 . S
C571 C570 1.363 . S
C571 C577 1.363 . S
C572 C573 1.363 . S
C572 C577 1.379 . S
C572 N579 1.356 . S
C573 C572 1.363 . S
C573 C576 1.363 . S
N574 C576 1.356 . S
N574 H586 0.984 . S
N574 H587 0.985 . S
N575 C577 1.356 . S
N575 H580 0.984 . S
N575 H581 0.985 . S
C576 C570 1.379 . S
C576 C573 1.363 . S
C576 N574 1.356 . S
C577 C571 1.363 . S
C577 C572 1.379 . S
C577 N575 1.356 . S
N578 C570 1.356 . S
N578 H584 0.984 . S
N578 H585 0.984 . S
N579 C572 1.356 . S
N579 H582 0.984 . S
N579 H583 0.985 . S
H580 N575 0.984 . S
H581 N575 0.985 . S
H582 N579 0.984 . S
H583 N579 0.985 . S
H584 N578 0.984 . S
H585 N578 0.984 . S
H586 N574 0.984 . S
H587 N574 0.985 . S
C588 C589 1.363 . S
C588 C594 1.379 . S
C588 N596 1.356 . S
C589 C588 1.363 . S
C589 C595 1.363 . S
C590 C591 1.363 . S
C590 C595 1.379 . S
C590 N597 1.356 . S
C591 C590 1.363 . S
C591 C594 1.363 . S
N592 C594 1.356 1_554 S
N592 H604 0.984 . S
N592 H605 0.985 . S
N593 C595 1.356 . S
N593 H598 0.984 . S
N593 H599 0.985 . S
C594 C588 1.379 . S
C594 C591 1.363 . S
C594 N592 1.356 1_556 S
C595 C589 1.363 . S
C595 C590 1.379 . S
C595 N593 1.356 . S
N596 C588 1.356 . S
N596 H602 0.984 1_556 S
N596 H603 0.984 . S
N597 C590 1.356 . S
N597 H600 0.984 . S
N597 H601 0.985 . S
H598 N593 0.984 . S
H599 N593 0.985 . S
H600 N597 0.984 . S
H601 N597 0.985 . S
H602 N596 0.984 1_554 S
H603 N596 0.984 . S
H604 N592 0.984 . S
H605 N592 0.985 . S
C606 C607 1.363 . S
C606 C612 1.379 . S
C606 N614 1.356 . S
C607 C606 1.363 . S
C607 C613 1.363 . S
C608 C609 1.363 . S
C608 C613 1.379 . S
C608 N615 1.356 . S
C609 C608 1.363 . S
C609 C612 1.363 . S
N610 C612 1.356 . S
N610 H622 0.984 . S
N610 H623 0.985 . S
N611 C613 1.356 . S
N611 H616 0.984 . S
N611 H617 0.985 . S
C612 C606 1.379 . S
C612 C609 1.363 . S
C612 N610 1.356 . S
C613 C607 1.363 . S
C613 C608 1.379 . S
C613 N611 1.356 . S
N614 C606 1.356 . S
N614 H620 0.984 . S
N614 H621 0.984 . S
N615 C608 1.356 . S
N615 H618 0.984 . S
N615 H619 0.985 . S
H616 N611 0.984 . S
H617 N611 0.985 . S
H618 N615 0.984 . S
H619 N615 0.985 . S
H620 N614 0.984 . S
H621 N614 0.984 . S
H622 N610 0.984 . S
H623 N610 0.985 . S
C624 C625 1.363 . S
C624 C630 1.379 . S
C624 N632 1.356 . S
C625 C624 1.363 . S
C625 C631 1.363 . S
C626 C627 1.363 . S
C626 C631 1.379 . S
C626 N633 1.356 . S
C627 C626 1.363 . S
C627 C630 1.363 . S
N628 C630 1.356 . S
N628 H640 0.984 . S
N628 H641 0.985 . S
N629 C631 1.356 . S
N629 H634 0.984 . S
N629 H635 0.985 . S
C630 C624 1.379 . S
C630 C627 1.363 . S
C630 N628 1.356 . S
C631 C625 1.363 . S
C631 C626 1.379 . S
C631 N629 1.356 . S
N632 C624 1.356 . S
N632 H638 0.984 . S
N632 H639 0.984 . S
N633 C626 1.356 . S
N633 H636 0.984 . S
N633 H637 0.985 . S
H634 N629 0.984 . S
H635 N629 0.985 . S
H636 N633 0.984 . S
H637 N633 0.985 . S
H638 N632 0.984 . S
H639 N632 0.984 . S
H640 N628 0.984 . S
H641 N628 0.985 . S
C642 C643 1.363 . S
C642 C648 1.382 . S
C642 N650 1.356 1_455 S
C643 C642 1.363 . S
C643 C649 1.363 . S
C644 C645 1.363 . S
C644 C649 1.379 . S
C644 N651 1.356 . S
C645 C644 1.363 . S
C645 C648 1.372 . S
N646 C648 1.346 1_655 S
N646 H658 0.984 . S
N646 H659 0.985 . S
N647 C649 1.356 . S
N647 H652 0.984 . S
N647 H653 0.985 . S
C648 C642 1.382 . S
C648 C645 1.372 . S
C648 N646 1.346 1_455 S
C649 C643 1.363 . S
C649 C644 1.379 . S
C649 N647 1.356 . S
N650 C642 1.356 1_655 S
N650 H656 0.984 . S
N650 H657 0.984 1_655 S
N651 C644 1.356 . S
N651 H654 0.984 . S
N651 H655 0.985 . S
H652 N647 0.984 . S
H653 N647 0.985 . S
H654 N651 0.984 . S
H655 N651 0.985 . S
H656 N650 0.984 . S
H657 N650 0.984 1_455 S
H658 N646 0.984 . S
H659 N646 0.985 . S
C660 C661 1.363 . S
C660 C666 1.379 . S
C660 N668 1.356 . S
C661 C660 1.363 . S
C661 C667 1.363 . S
C662 C663 1.363 . S
C662 C667 1.379 . S
C662 N669 1.356 . S
C663 C662 1.363 . S
C663 C666 1.363 . S
N664 C666 1.356 . S
N664 H676 0.984 . S
N664 H677 0.985 . S
N665 C667 1.356 1_455 S
N665 H670 0.984 . S
N665 H671 0.985 . S
C666 C660 1.379 . S
C666 C663 1.363 . S
C666 N664 1.356 . S
C667 C661 1.363 . S
C667 C662 1.379 . S
C667 N665 1.356 1_655 S
N668 C660 1.356 . S
N668 H674 0.984 . S
N668 H675 0.984 . S
N669 C662 1.356 . S
N669 H672 0.984 . S
N669 H673 0.985 . S
H670 N665 0.984 . S
H671 N665 0.985 . S
H672 N669 0.984 . S
H673 N669 0.985 . S
H674 N668 0.984 . S
H675 N668 0.984 . S
H676 N664 0.984 . S
H677 N664 0.985 . S
C678 C679 1.363 . S
C678 C684 1.379 . S
C678 N686 1.356 . S
C679 C678 1.363 . S
C679 C685 1.363 . S
C680 C681 1.363 . S
C680 C685 1.379 . S
C680 N687 1.356 . S
C681 C680 1.363 . S
C681 C684 1.363 . S
N682 C684 1.356 . S
N682 H694 0.984 . S
N682 H695 0.985 . S
N683 C685 1.356 . S
N683 H688 0.984 . S
N683 H689 0.985 . S
C684 C678 1.379 . S
C684 C681 1.363 . S
C684 N682 1.356 . S
C685 C679 1.363 . S
C685 C680 1.379 . S
C685 N683 1.356 . S
N686 C678 1.356 . S
N686 H692 0.984 . S
N686 H693 0.984 . S
N687 C680 1.356 . S
N687 H690 0.984 . S
N687 H691 0.985 . S
H688 N683 0.984 . S
H689 N683 0.985 . S
H690 N687 0.984 . S
H691 N687 0.985 . S
H692 N686 0.984 . S
H693 N686 0.984 . S
H694 N682 0.984 . S
H695 N682 0.985 . S
C696 C697 1.363 . S
C696 C702 1.379 . S
C696 N704 1.356 . S
C697 C696 1.363 . S
C697 C703 1.363 . S
C698 C699 1.363 . S
C698 C703 1.379 . S
C698 N705 1.356 . S
C699 C698 1.363 . S
C699 C702 1.363 . S
N700 C702 1.356 . S
N700 H712 0.984 . S
N700 H713 0.985 . S
N701 C703 1.356 . S
N701 H706 0.984 . S
N701 H707 0.985 . S
C702 C696 1.379 . S
C702 C699 1.363 . S
C702 N700 1.356 . S
C703 C697 1.363 . S
C703 C698 1.379 . S
C703 N701 1.356 . S
N704 C696 1.356 . S
N704 H710 0.984 . S
N704 H711 0.984 . S
N705 C698 1.356 . S
N705 H708 0.984 . S
N705 H709 0.985 . S
H706 N701 0.984 . S
H707 N701 0.985 . S
H708 N705 0.984 . S
H709 N705 0.985 . S
H710 N704 0.984 . S
H711 N704 0.984 . S
H712 N700 0.984 . S
H713 N700 0.985 . S
C714 C715 1.363 . S
C714 C720 1.379 . S
C714 N722 1.356 1_565 S
C715 C714 1.363 . S
C715 C721 1.363 . S
C716 C717 1.363 . S
C716 C721 1.379 . S
C716 N723 1.356 . S
C717 C716 1.363 . S
C717 C720 1.363 . S
N718 C720 1.356 1_545 S
N718 H730 0.984 . S
N718 H731 0.985 . S
N719 C721 1.356 . S
N719 H724 0.984 . S
N719 H725 0.985 . S
C720 C714 1.379 . S
C720 C717 1.363 . S
C720 N718 1.356 1_565 S
C721 C715 1.363 . S
C721 C716 1.379 . S
C721 N719 1.356 . S
N722 C714 1.356 1_545 S
N722 H728 0.984 . S
N722 H729 0.984 1_545 S
N723 C716 1.356 . S
N723 H726 0.984 . S
N723 H727 0.985 . S
H724 N719 0.984 . S
H725 N719 0.985 . S
H726 N723 0.984 . S
H727 N723 0.985 . S
H728 N722 0.984 . S
H729 N722 0.984 1_565 S
H730 N718 0.984 . S
H731 N718 0.985 . S
C732 C733 1.363 . S
C732 C738 1.379 . S
C732 N740 1.356 . S
C733 C732 1.363 . S
C733 C739 1.363 . S
C734 C735 1.363 . S
C734 C739 1.379 . S
C734 N741 1.356 . S
C735 C734 1.363 . S
C735 C738 1.363 . S
N736 C738 1.356 . S
N736 H748 0.984 . S
N736 H749 0.985 . S
N737 C739 1.356 . S
N737 H742 0.984 . S
N737 H743 0.985 . S
C738 C732 1.379 . S
C738 C735 1.363 . S
C738 N736 1.356 . S
C739 C733 1.363 . S
C739 C734 1.379 . S
C739 N737 1.356 . S
N740 C732 1.356 . S
N740 H746 0.984 . S
N740 H747 0.984 . S
N741 C734 1.356 . S
N741 H744 0.984 . S
N741 H745 0.985 . S
H742 N737 0.984 . S
H743 N737 0.985 . S
H744 N741 0.984 . S
H745 N741 0.985 . S
H746 N740 0.984 . S
H747 N740 0.984 . S
H748 N736 0.984 . S
H749 N736 0.985 . S
C750 C751 1.363 . S
C750 C756 1.379 . S
C750 N758 1.356 . S
C751 C750 1.363 . S
C751 C757 1.363 . S
C752 C753 1.363 . S
C752 C757 1.379 1_556 S
C752 N759 1.356 . S
C753 C752 1.363 . S
C753 C756 1.363 1_556 S
N754 C756 1.356 1_556 S
N754 H766 0.984 1_546 S
N754 H767 0.985 . S
N755 C757 1.356 . S
N755 H760 0.984 . S
N755 H761 0.985 . S
C756 C750 1.379 . S
C756 C753 1.363 1_554 S
C756 N754 1.356 1_554 S
C757 C751 1.363 . S
C757 C752 1.379 1_554 S
C757 N755 1.356 . S
N758 C750 1.356 . S
N758 H764 0.984 . S
N758 H765 0.984 . S
N759 C752 1.356 . S
N759 H762 0.984 . S
N759 H763 0.985 . S
H760 N755 0.984 . S
H761 N755 0.985 . S
H762 N759 0.984 . S
H763 N759 0.985 . S
H764 N758 0.984 . S
H765 N758 0.984 . S
H766 N754 0.984 1_564 S
H767 N754 0.985 . S
C768 C769 1.363 . S
C768 C774 1.379 . S
C768 N776 1.356 . S
C769 C768 1.363 . S
C769 C775 1.363 . S
C770 C771 1.363 . S
C770 C775 1.379 . S
C770 N777 1.356 . S
C771 C770 1.363 . S
C771 C774 1.363 . S
N772 C774 1.356 . S
N772 H784 0.984 . S
N772 H785 0.985 . S
N773 C775 1.356 . S
N773 H778 0.984 . S
N773 H779 0.985 1_545 S
C774 C768 1.379 . S
C774 C771 1.363 . S
C774 N772 1.356 . S
C775 C769 1.363 . S
C775 C770 1.379 . S
C775 N773 1.356 . S
N776 C768 1.356 . S
N776 H782 0.984 . S
N776 H783 0.984 . S
N777 C770 1.356 . S
N777 H780 0.984 . S
N777 H781 0.985 1_545 S
H778 N773 0.984 . S
H779 N773 0.985 1_565 S
H780 N777 0.984 . S
H781 N777 0.985 1_565 S
H782 N776 0.984 . S
H783 N776 0.984 . S
H784 N772 0.984 . S
H785 N772 0.985 . S
C786 C787 1.363 . S
C786 C792 1.379 . S
C786 N794 1.356 1_556 S
C787 C786 1.363 . S
C787 C793 1.363 . S
C788 C789 1.363 . S
C788 C793 1.379 . S
C788 N795 1.356 . S
C789 C788 1.363 . S
C789 C792 1.363 . S
N790 C792 1.356 . S
N790 H802 0.984 . S
N790 H803 0.985 . S
N791 C793 1.356 . S
N791 H796 0.984 1_556 S
N791 H797 0.985 . S
C792 C786 1.379 . S
C792 C789 1.363 . S
C792 N790 1.356 . S
C793 C787 1.363 . S
C793 C788 1.379 . S
C793 N791 1.356 . S
N794 C786 1.356 1_554 S
N794 H800 0.984 . S
N794 H801 0.984 . S
N795 C788 1.356 . S
N795 H798 0.984 . S
N795 H799 0.985 . S
H796 N791 0.984 1_554 S
H797 N791 0.985 . S
H798 N795 0.984 . S
H799 N795 0.985 . S
H800 N794 0.984 . S
H801 N794 0.984 . S
H802 N790 0.984 . S
H803 N790 0.985 . S
C804 C805 1.363 . S
C804 C810 1.379 . S
C804 N812 1.356 . S
C805 C804 1.363 . S
C805 C811 1.363 . S
C806 C807 1.363 . S
C806 C811 1.379 . S
C806 N813 1.356 . S
C807 C806 1.363 . S
C807 C810 1.363 . S
N808 C810 1.356 . S
N808 H820 0.957 1_565 S
N808 H821 0.985 . S
N809 C811 1.356 . S
N809 H814 0.984 . S
N809 H815 0.985 . S
C810 C804 1.379 . S
C810 C807 1.363 . S
C810 N808 1.356 . S
C811 C805 1.363 . S
C811 C806 1.379 . S
C811 N809 1.356 . S
N812 C804 1.356 . S
N812 H818 0.984 1_565 S
N812 H819 0.984 . S
N813 C806 1.356 . S
N813 H816 0.984 . S
N813 H817 0.985 . S
H814 N809 0.984 . S
H815 N809 0.985 . S
H816 N813 0.984 . S
H817 N813 0.985 . S
H818 N812 0.984 1_545 S
H819 N812 0.984 . S
H820 N808 0.957 1_545 S
H821 N808 0.985 . S
C822 C823 1.363 . S
C822 C828 1.379 . S
C822 N830 1.356 . S
C823 C822 1.363 . S
C823 C829 1.363 . S
C824 C825 1.363 . S
C824 C829 1.379 . S
C824 N831 1.356 . S
C825 C824 1.363 . S
C825 C828 1.363 . S
N826 C828 1.356 . S
N826 H838 0.984 . S
N826 H839 0.985 . S
N827 C829 1.356 . S
N827 H832 0.984 . S
N827 H833 0.985 . S
C828 C822 1.379 . S
C828 C825 1.363 . S
C828 N826 1.356 . S
C829 C823 1.363 . S
C829 C824 1.379 . S
C829 N827 1.356 . S
N830 C822 1.356 . S
N830 H836 0.984 . S
N830 H837 0.984 . S
N831 C824 1.356 . S
N831 H834 0.984 . S
N831 H835 0.985 . S
H832 N827 0.984 . S
H833 N827 0.985 . S
H834 N831 0.984 . S
H835 N831 0.985 . S
H836 N830 0.984 . S
H837 N830 0.984 . S
H838 N826 0.984 . S
H839 N826 0.985 . S
C840 C841 1.363 . S
C840 C846 1.379 . S
C840 N848 1.356 . S
C841 C840 1.363 . S
C841 C847 1.363 . S
C842 C843 1.363 . S
C842 C847 1.379 . S
C842 N849 1.356 . S
C843 C842 1.363 . S
C843 C846 1.363 . S
N844 C846 1.356 . S
N844 H856 0.984 . S
N844 H857 0.985 . S
N845 C847 1.356 . S
N845 H850 0.984 . S
N845 H851 0.985 . S
C846 C840 1.379 . S
C846 C843 1.363 . S
C846 N844 1.356 . S
C847 C841 1.363 . S
C847 C842 1.379 . S
C847 N845 1.356 . S
N848 C840 1.356 . S
N848 H854 0.984 . S
N848 H855 0.984 . S
N849 C842 1.356 . S
N849 H852 0.984 . S
N849 H853 0.985 . S
H850 N845 0.984 . S
H851 N845 0.985 . S
H852 N849 0.984 . S
H853 N849 0.985 . S
H854 N848 0.984 . S
H855 N848 0.984 . S
H856 N844 0.984 . S
H857 N844 0.985 . S
C858 C859 1.363 . S
C858 C864 1.379 . S
C858 N866 1.356 . S
C859 C858 1.363 . S
C859 C865 1.363 . S
C860 C861 1.361 1_545 S
C860 C865 1.379 . S
C860 N867 1.356 . S
C861 C860 1.361 1_565 S
C861 C864 1.363 1_565 S
N862 C864 1.356 1_565 S
N862 H874 0.984 . S
N862 H875 0.985 . S
N863 C865 1.356 . S
N863 H868 0.984 . S
N863 H869 0.985 . S
C864 C858 1.379 . S
C864 C861 1.363 1_545 S
C864 N862 1.356 1_545 S
C865 C859 1.363 . S
C865 C860 1.379 . S
C865 N863 1.356 . S
N866 C858 1.356 . S
N866 H872 0.984 . S
N866 H873 0.984 . S
N867 C860 1.356 . S
N867 H870 0.984 1_545 S
N867 H871 0.985 . S
H868 N863 0.984 . S
H869 N863 0.985 . S
H870 N867 0.984 1_565 S
H871 N867 0.985 . S
H872 N866 0.984 . S
H873 N866 0.984 . S
H874 N862 0.984 . S
H875 N862 0.985 . S
C876 C877 1.363 . S
C876 C882 1.379 . S
C876 N884 1.356 1_556 S
C877 C876 1.363 . S
C877 C883 1.363 . S
C878 C879 1.363 . S
C878 C883 1.379 . S
C878 N885 1.356 . S
C879 C878 1.363 . S
C879 C882 1.363 . S
N880 C882 1.356 1_554 S
N880 H892 0.984 . S
N880 H893 0.985 1_554 S
N881 C883 1.356 . S
N881 H886 0.984 . S
N881 H887 0.985 . S
C882 C876 1.379 . S
C882 C879 1.363 . S
C882 N880 1.356 1_556 S
C883 C877 1.363 . S
C883 C878 1.379 . S
C883 N881 1.356 . S
N884 C876 1.356 1_554 S
N884 H890 0.984 . S
N884 H891 0.984 . S
N885 C878 1.356 . S
N885 H888 0.984 . S
N885 H889 0.985 . S
H886 N881 0.984 . S
H887 N881 0.985 . S
H888 N885 0.984 . S
H889 N885 0.985 . S
H890 N884 0.984 . S
H891 N884 0.984 . S
H892 N880 0.984 . S
H893 N880 0.985 1_556 S
C894 C895 1.363 . S
C894 C900 1.379 1_545 S
C894 N902 1.356 . S
C895 C894 1.363 . S
C895 C901 1.363 . S
C896 C897 1.363 1_545 S
C896 C901 1.379 . S
C896 N903 1.356 . S
C897 C896 1.363 1_565 S
C897 C900 1.363 . S
N898 C900 1.356 . S
N898 H910 0.984 . S
N898 H911 0.985 . S
N899 C901 1.356 . S
N899 H904 0.984 . S
N899 H905 0.985 . S
C900 C894 1.379 1_565 S
C900 C897 1.363 . S
C900 N898 1.356 . S
C901 C895 1.363 . S
C901 C896 1.379 . S
C901 N899 1.356 . S
N902 C894 1.356 . S
N902 H908 0.984 . S
N902 H909 0.984 . S
N903 C896 1.356 . S
N903 H906 0.984 1_545 S
N903 H907 0.985 . S
H904 N899 0.984 . S
H905 N899 0.985 . S
H906 N903 0.984 1_565 S
H907 N903 0.985 . S
H908 N902 0.984 . S
H909 N902 0.984 . S
H910 N898 0.984 . S
H911 N898 0.985 . S
C912 C913 1.363 . S
C912 C918 1.379 . S
C912 N920 1.356 . S
C913 C912 1.363 . S
C913 C919 1.363 . S
C914 C915 1.363 . S
C914 C919 1.379 . S
C914 N921 1.356 . S
C915 C914 1.363 . S
C915 C918 1.363 . S
N916 C918 1.356 . S
N916 H928 0.984 . S
N916 H929 0.985 . S
N917 C919 1.356 . S
N917 H922 0.984 . S
N917 H923 0.985 . S
C918 C912 1.379 . S
C918 C915 1.363 . S
C918 N916 1.356 . S
C919 C913 1.363 . S
C919 C914 1.379 . S
C919 N917 1.356 . S
N920 C912 1.356 . S
N920 H926 0.984 . S
N920 H927 0.984 . S
N921 C914 1.356 . S
N921 H924 0.984 . S
N921 H925 0.985 . S
H922 N917 0.984 . S
H923 N917 0.985 . S
H924 N921 0.984 . S
H925 N921 0.985 . S
H926 N920 0.984 . S
H927 N920 0.984 . S
H928 N916 0.984 . S
H929 N916 0.985 . S
C930 C931 1.363 . S
C930 C936 1.379 . S
C930 N938 1.356 . S
C931 C930 1.363 . S
C931 C937 1.363 . S
C932 C933 1.363 . S
C932 C937 1.379 . S
C932 N939 1.356 . S
C933 C932 1.363 . S
C933 C936 1.363 . S
N934 C936 1.356 . S
N934 H946 0.984 . S
N934 H947 0.985 . S
N935 C937 1.356 . S
N935 H940 0.984 . S
N935 H941 0.985 . S
C936 C930 1.379 . S
C936 C933 1.363 . S
C936 N934 1.356 . S
C937 C931 1.363 . S
C937 C932 1.379 . S
C937 N935 1.356 . S
N938 C930 1.356 . S
N938 H944 0.984 . S
N938 H945 0.984 . S
N939 C932 1.356 . S
N939 H942 0.984 . S
N939 H943 0.985 . S
H940 N935 0.984 . S
H941 N935 0.985 . S
H942 N939 0.984 . S
H943 N939 0.985 . S
H944 N938 0.984 . S
H945 N938 0.984 . S
H946 N934 0.984 . S
H947 N934 0.985 . S
C948 C949 1.363 . S
C948 C954 1.379 . S
C948 N956 1.356 . S
C949 C948 1.363 . S
C949 C955 1.363 . S
C950 C951 1.363 . S
C950 C955 1.379 . S
C950 N957 1.356 . S
C951 C950 1.363 . S
C951 C954 1.363 . S
N952 C954 1.356 . S
N952 H964 0.984 . S
N952 H965 0.985 . S
N953 C955 1.356 . S
N953 H958 0.984 . S
N953 H959 0.985 1_554 S
C954 C948 1.379 . S
C954 C951 1.363 . S
C954 N952 1.356 . S
C955 C949 1.363 . S
C955 C950 1.379 . S
C955 N953 1.356 . S
N956 C948 1.356 . S
N956 H962 0.984 . S
N956 H963 0.984 . S
N957 C950 1.356 . S
N957 H960 0.984 . S
N957 H961 0.985 1_554 S
H958 N953 0.984 . S
H959 N953 0.985 1_556 S
H960 N957 0.984 . S
H961 N957 0.985 1_556 S
H962 N956 0.984 . S
H963 N956 0.984 . S
H964 N952 0.984 . S
H965 N952 0.985 . S
C966 C967 1.363 . S
C966 C972 1.379 . S
C966 N974 1.356 . S
C967 C966 1.363 . S
C967 C973 1.363 . S
C968 C969 1.363 . S
C968 C973 1.379 . S
C968 N975 1.356 . S
C969 C968 1.363 . S
C969 C972 1.363 . S
N970 C972 1.356 . S
N970 H982 0.984 . S
N970 H983 0.985 . S
N971 C973 1.356 . S
N971 H976 0.984 . S
N971 H977 0.985 . S
C972 C966 1.379 . S
C972 C969 1.363 . S
C972 N970 1.356 . S
C973 C967 1.363 . S
C973 C968 1.379 . S
C973 N971 1.356 . S
N974 C966 1.356 . S
N974 H980 0.984 . S
N974 H981 0.984 . S
N975 C968 1.356 . S
N975 H978 0.984 . S
N975 H979 0.985 . S
H976 N971 0.984 . S
H977 N971 0.985 . S
H978 N975 0.984 . S
H979 N975 0.985 . S
H980 N974 0.984 . S
H981 N974 0.984 . S
H982 N970 0.984 . S
H983 N970 0.985 . S
C984 C985 1.363 . S
C984 C990 1.379 . S
C984 N992 1.356 . S
C985 C984 1.363 . S
C985 C991 1.363 . S
C986 C987 1.363 . S
C986 C991 1.379 . S
C986 N993 1.356 . S
C987 C986 1.363 . S
C987 C990 1.363 . S
N988 C990 1.356 . S
N988 H1000 0.984 . S
N988 H1001 0.985 . S
N989 C991 1.356 . S
N989 H994 0.984 . S
N989 H995 0.985 . S
C990 C984 1.379 . S
C990 C987 1.363 . S
C990 N988 1.356 . S
C991 C985 1.363 . S
C991 C986 1.379 . S
C991 N989 1.356 . S
N992 C984 1.356 . S
N992 H998 0.984 . S
N992 H999 0.984 . S
N993 C986 1.356 . S
N993 H996 0.984 . S
N993 H997 0.985 . S
H994 N989 0.984 . S
H995 N989 0.985 . S
H996 N993 0.984 . S
H997 N993 0.985 . S
H998 N992 0.984 . S
H999 N992 0.984 . S
H1000 N988 0.984 . S
H1001 N988 0.985 . S
C1002 C1003 1.363 . S
C1002 C1008 1.379 . S
C1002 N1010 1.356 . S
C1003 C1002 1.363 . S
C1003 C1009 1.363 . S
C1004 C1005 1.363 . S
C1004 C1009 1.379 . S
C1004 N1011 1.356 . S
C1005 C1004 1.363 . S
C1005 C1008 1.363 . S
N1006 C1008 1.356 . S
N1006 H1018 0.984 . S
N1006 H1019 0.985 . S
N1007 C1009 1.356 . S
N1007 H1012 0.984 . S
N1007 H1013 0.985 . S
C1008 C1002 1.379 . S
C1008 C1005 1.363 . S
C1008 N1006 1.356 . S
C1009 C1003 1.363 . S
C1009 C1004 1.379 . S
C1009 N1007 1.356 . S
N1010 C1002 1.356 . S
N1010 H1016 0.984 . S
N1010 H1017 0.984 . S
N1011 C1004 1.356 . S
N1011 H1014 0.984 . S
N1011 H1015 0.985 . S
H1012 N1007 0.984 . S
H1013 N1007 0.985 . S
H1014 N1011 0.984 . S
H1015 N1011 0.985 . S
H1016 N1010 0.984 . S
H1017 N1010 0.984 . S
H1018 N1006 0.984 . S
H1019 N1006 0.985 . S
C1020 C1021 1.363 1_655 S
C1020 C1026 1.379 . S
C1020 N1028 1.356 1_655 S
C1021 C1020 1.363 1_455 S
C1021 C1027 1.363 . S
C1022 C1023 1.363 . S
C1022 C1027 1.379 1_655 S
C1022 N1029 1.356 1_554 S
C1023 C1022 1.363 . S
C1023 C1026 1.363 . S
N1024 C1026 1.356 . S
N1024 H1036 0.984 . S
N1024 H1037 0.985 . S
N1025 C1027 1.355 . S
N1025 H1030 0.984 . S
N1025 H1031 0.986 1_554 S
C1026 C1020 1.379 . S
C1026 C1023 1.363 . S
C1026 N1024 1.356 . S
C1027 C1021 1.363 . S
C1027 C1022 1.379 1_455 S
C1027 N1025 1.355 . S
N1028 C1020 1.356 1_455 S
N1028 H1034 0.984 . S
N1028 H1035 0.984 . S
N1029 C1022 1.356 1_556 S
N1029 H1032 0.984 . S
N1029 H1033 0.985 . S
H1030 N1025 0.984 . S
H1031 N1025 0.986 1_556 S
H1032 N1029 0.984 . S
H1033 N1029 0.985 . S
H1034 N1028 0.984 . S
H1035 N1028 0.984 . S
H1036 N1024 0.984 . S
H1037 N1024 0.985 . S
C1038 C1039 1.363 . S
C1038 C1044 1.379 . S
C1038 N1046 1.356 . S
C1039 C1038 1.363 . S
C1039 C1045 1.363 . S
C1040 C1041 1.363 . S
C1040 C1045 1.379 . S
C1040 N1047 1.356 . S
C1041 C1040 1.363 . S
C1041 C1044 1.363 . S
N1042 C1044 1.356 . S
N1042 H1054 0.984 . S
N1042 H1055 0.985 . S
N1043 C1045 1.356 . S
N1043 H1048 0.984 . S
N1043 H1049 0.985 . S
C1044 C1038 1.379 . S
C1044 C1041 1.363 . S
C1044 N1042 1.356 . S
C1045 C1039 1.363 . S
C1045 C1040 1.379 . S
C1045 N1043 1.356 . S
N1046 C1038 1.356 . S
N1046 H1052 0.984 . S
N1046 H1053 0.984 . S
N1047 C1040 1.356 . S
N1047 H1050 0.984 . S
N1047 H1051 0.985 . S
H1048 N1043 0.984 . S
H1049 N1043 0.985 . S
H1050 N1047 0.984 . S
H1051 N1047 0.985 . S
H1052 N1046 0.984 . S
H1053 N1046 0.984 . S
H1054 N1042 0.984 . S
H1055 N1042 0.985 . S
C1056 C1057 1.363 . S
C1056 C1062 1.379 . S
C1056 N1064 1.356 . S
C1057 C1056 1.363 . S
C1057 C1063 1.363 . S
C1058 C1059 1.363 . S
C1058 C1063 1.379 . S
C1058 N1065 1.356 . S
C1059 C1058 1.363 . S
C1059 C1062 1.363 . S
N1060 C1062 1.356 . S
N1060 H1072 0.984 . S
N1060 H1073 0.985 . S
N1061 C1063 1.356 . S
N1061 H1066 0.984 . S
N1061 H1067 0.985 . S
C1062 C1056 1.379 . S
C1062 C1059 1.363 . S
C1062 N1060 1.356 . S
C1063 C1057 1.363 . S
C1063 C1058 1.379 . S
C1063 N1061 1.356 . S
N1064 C1056 1.356 . S
N1064 H1070 0.984 . S
N1064 H1071 0.984 . S
N1065 C1058 1.356 . S
N1065 H1068 0.984 . S
N1065 H1069 0.985 . S
H1066 N1061 0.984 . S
H1067 N1061 0.985 . S
H1068 N1065 0.984 . S
H1069 N1065 0.985 . S
H1070 N1064 0.984 . S
H1071 N1064 0.984 . S
H1072 N1060 0.984 . S
H1073 N1060 0.985 . S
C1074 C1075 1.363 . S
C1074 C1080 1.379 . S
C1074 N1082 1.356 . S
C1075 C1074 1.363 . S
C1075 C1081 1.363 . S
C1076 C1077 1.363 . S
C1076 C1081 1.379 . S
C1076 N1083 1.356 . S
C1077 C1076 1.363 . S
C1077 C1080 1.363 . S
N1078 C1080 1.356 . S
N1078 H1090 0.984 . S
N1078 H1091 0.985 . S
N1079 C1081 1.356 . S
N1079 H1084 0.984 . S
N1079 H1085 0.985 . S
C1080 C1074 1.379 . S
C1080 C1077 1.363 . S
C1080 N1078 1.356 . S
C1081 C1075 1.363 . S
C1081 C1076 1.379 . S
C1081 N1079 1.356 . S
N1082 C1074 1.356 . S
N1082 H1088 0.984 . S
N1082 H1089 0.984 . S
N1083 C1076 1.356 . S
N1083 H1086 0.984 . S
N1083 H1087 0.985 . S
H1084 N1079 0.984 . S
H1085 N1079 0.985 . S
H1086 N1083 0.984 . S
H1087 N1083 0.985 . S
H1088 N1082 0.984 . S
H1089 N1082 0.984 . S
H1090 N1078 0.984 . S
H1091 N1078 0.985 . S
C1092 C1093 1.363 . S
C1092 C1098 1.379 . S
C1092 N1100 1.356 1_556 S
C1093 C1092 1.363 . S
C1093 C1099 1.363 . S
C1094 C1095 1.363 . S
C1094 C1099 1.379 . S
C1094 N1101 1.356 . S
C1095 C1094 1.363 . S
C1095 C1098 1.363 . S
N1096 C1098 1.356 . S
N1096 H1108 0.984 . S
N1096 H1109 0.985 . S
N1097 C1099 1.356 . S
N1097 H1102 0.984 . S
N1097 H1103 0.985 . S
C1098 C1092 1.379 . S
C1098 C1095 1.363 . S
C1098 N1096 1.356 . S
C1099 C1093 1.363 . S
C1099 C1094 1.379 . S
C1099 N1097 1.356 . S
N1100 C1092 1.356 1_554 S
N1100 H1106 0.984 . S
N1100 H1107 0.984 . S
N1101 C1094 1.356 . S
N1101 H1104 0.984 . S
N1101 H1105 0.985 . S
H1102 N1097 0.984 . S
H1103 N1097 0.985 . S
H1104 N1101 0.984 . S
H1105 N1101 0.985 . S
H1106 N1100 0.984 . S
H1107 N1100 0.984 . S
H1108 N1096 0.984 . S
H1109 N1096 0.985 . S
C1110 C1111 1.363 . S
C1110 C1116 1.383 . S
C1110 N1118 1.356 . S
C1111 C1110 1.363 . S
C1111 C1117 1.363 . S
C1112 C1113 1.363 1_655 S
C1112 C1117 1.379 . S
C1112 N1119 1.356 . S
C1113 C1112 1.363 1_455 S
C1113 C1116 1.362 1_455 S
N1114 C1116 1.352 1_455 S
N1114 H1126 0.984 . S
N1114 H1127 0.985 . S
N1115 C1117 1.356 . S
N1115 H1120 0.984 . S
N1115 H1121 0.985 . S
C1116 C1110 1.383 . S
C1116 C1113 1.362 1_655 S
C1116 N1114 1.352 1_655 S
C1117 C1111 1.363 . S
C1117 C1112 1.379 . S
C1117 N1115 1.356 . S
N1118 C1110 1.356 . S
N1118 H1124 0.984 . S
N1118 H1125 0.984 . S
N1119 C1112 1.356 . S
N1119 H1122 0.984 1_655 S
N1119 H1123 0.985 . S
H1120 N1115 0.984 . S
H1121 N1115 0.985 . S
H1122 N1119 0.984 1_455 S
H1123 N1119 0.985 . S
H1124 N1118 0.984 . S
H1125 N1118 0.984 . S
H1126 N1114 0.984 . S
H1127 N1114 0.985 . S
C481 C20 1.641 . S
C483 C460 1.644 . S
C499 C380 1.850 1_565 S
C501 C42 1.947 . S
C517 C100 1.650 . S
C519 C322 1.758 . S
C535 C122 1.821 . S
C537 C420 1.754 . S
C553 C180 1.793 . S
C555 C402 1.830 . S
C571 C220 1.621 . S
C573 C442 1.717 . S
C589 C362 1.838 . S
C591 C242 1.821 . S
C607 C282 1.614 . S
C609 C340 1.553 . S
C625 C140 1.764 . S
C627 C162 1.838 . S
C643 C2 1.744 . S
C645 C202 1.754 . S
C661 C60 1.717 . S
C663 C260 1.730 . S
C679 C300 1.784 . S
C681 C82 1.898 . S
C697 C4 2.002 . S
C699 C343 1.974 . S
C715 C65 1.262 . S
C717 C431 1.263 . S
C733 C471 2.090 . S
C735 C84 1.972 . S
C751 C145 1.675 . S
C753 C391 1.685 . S
C769 C164 1.754 . S
C771 C383 1.727 . S
C787 C351 2.255 1_556 S
C789 C204 2.122 . S
C805 C423 1.654 . S
C807 C265 1.717 . S
C823 C463 1.252 . S
C825 C305 1.302 . S
C841 C23 1.796 . S
C843 C124 1.823 . S
C859 C25 1.337 . S
C861 C71 1.345 . S
C877 C44 1.714 . S
C879 C103 1.688 . S
C895 C151 1.324 . S
C897 C105 1.324 . S
C913 C225 1.913 . S
C915 C183 1.822 . S
C931 C223 1.876 . S
C933 C244 1.867 . S
C949 C271 2.080 . S
C951 C284 1.989 . S
C967 C185 1.789 . S
C969 C311 1.797 . S
C985 C324 2.171 . S
C987 C143 2.166 . S
C1003 C231 2.341 . S
C1005 C364 2.234 . S
C1021 C345 1.555 . S
C1023 C263 1.503 . S
C1039 C404 1.609 . S
C1041 C303 1.584 . S
C1057 C191 1.653 . S
C1059 C444 1.552 . S
C1075 C465 1.451 . S
C1077 C63 1.383 . S
C1093 C111 1.516 . S
C1095 C385 1.506 . S
C1111 C425 1.660 . S
C1113 C31 1.664 . S
