# Generated by pormake.
# Topology zfi, (5)-cn, num edge types: 1
# Building blocks:
#     Node 0, Type 0, BuildingBlock: XOMCOT_clean_sbu_1, # of connection points: 5
#     Node 1, Type 0, BuildingBlock: XOMCOT_clean_sbu_1, # of connection points: 5
#     Node 2, Type 0, BuildingBlock: XOMCOT_clean_sbu_1, # of connection points: 5
#     Node 3, Type 0, BuildingBlock: XOMCOT_clean_sbu_1, # of connection points: 5
#     Node 4, Type 0, BuildingBlock: XOMCOT_clean_sbu_1, # of connection points: 5
#     Node 5, Type 0, BuildingBlock: XOMCOT_clean_sbu_1, # of connection points: 5
#     Node 6, Type 0, BuildingBlock: XOMCOT_clean_sbu_1, # of connection points: 5
#     Node 7, Type 0, BuildingBlock: XOMCOT_clean_sbu_1, # of connection points: 5
#     Node 8, Type 0, BuildingBlock: XOMCOT_clean_sbu_1, # of connection points: 5
#     Node 9, Type 0, BuildingBlock: XOMCOT_clean_sbu_1, # of connection points: 5
#     Node 10, Type 0, BuildingBlock: XOMCOT_clean_sbu_1, # of connection points: 5
#     Node 11, Type 0, BuildingBlock: XOMCOT_clean_sbu_1, # of connection points: 5
#     Node 12, Type 0, BuildingBlock: XOMCOT_clean_sbu_1, # of connection points: 5
#     Node 13, Type 0, BuildingBlock: XOMCOT_clean_sbu_1, # of connection points: 5
#     Node 14, Type 0, BuildingBlock: XOMCOT_clean_sbu_1, # of connection points: 5
#     Node 15, Type 0, BuildingBlock: XOMCOT_clean_sbu_1, # of connection points: 5
#     Edge 16, Type (0, 0), None
#     Edge 17, Type (0, 0), None
#     Edge 18, Type (0, 0), None
#     Edge 19, Type (0, 0), None
#     Edge 20, Type (0, 0), None
#     Edge 21, Type (0, 0), None
#     Edge 22, Type (0, 0), None
#     Edge 23, Type (0, 0), None
#     Edge 24, Type (0, 0), None
#     Edge 25, Type (0, 0), None
#     Edge 26, Type (0, 0), None
#     Edge 27, Type (0, 0), None
#     Edge 28, Type (0, 0), None
#     Edge 29, Type (0, 0), None
#     Edge 30, Type (0, 0), None
#     Edge 31, Type (0, 0), None
#     Edge 32, Type (0, 0), None
#     Edge 33, Type (0, 0), None
#     Edge 34, Type (0, 0), None
#     Edge 35, Type (0, 0), None
#     Edge 36, Type (0, 0), None
#     Edge 37, Type (0, 0), None
#     Edge 38, Type (0, 0), None
#     Edge 39, Type (0, 0), None
#     Edge 40, Type (0, 0), None
#     Edge 41, Type (0, 0), None
#     Edge 42, Type (0, 0), None
#     Edge 43, Type (0, 0), None
#     Edge 44, Type (0, 0), None
#     Edge 45, Type (0, 0), None
#     Edge 46, Type (0, 0), None
#     Edge 47, Type (0, 0), None
#     Edge 48, Type (0, 0), None
#     Edge 49, Type (0, 0), None
#     Edge 50, Type (0, 0), None
#     Edge 51, Type (0, 0), None
#     Edge 52, Type (0, 0), None
#     Edge 53, Type (0, 0), None
#     Edge 54, Type (0, 0), None
#     Edge 55, Type (0, 0), None
# Relax obj value: 0.141
# Max RMSD: 0.147
# Mean RMSD: 0.147
data_MOF--net-zfi--node1-XOMCOT_clean_sbu_1--edge1-none
_symmetry_space_group_name_H-M    P1
_symmetry_Int_Tables_number       1
_symmetry_cell_setting            triclinic
loop_
_symmetry_equiv_pos_as_xyz
'x, y, z'
_cell_length_a     20.5657
_cell_length_b     20.564468
_cell_length_c     21.413633
_cell_angle_alpha  89.996579
_cell_angle_beta   90.001358
_cell_angle_gamma 90.000833
loop_
_atom_site_label
_atom_site_type_symbol
_atom_site_fract_x
_atom_site_fract_y
_atom_site_fract_z
_atom_type_partial_charge
C0 C 0.63589 0.20878 0.13358 0.0
C1 C 0.675 0.2639 0.13377 0.0
N2 N 0.73649 0.2454 0.12153 0.0
N3 N 0.6723 0.1554 0.12149 0.0
C4 C 0.73349 0.1804 0.11384 0.0
H5 H 0.58519 0.20731 0.14693 0.0
Co6 Co 0.65126 0.06691 0.14483 0.0
C7 C 0.61438 0.079 0.27903 0.0
O8 O 0.64583 0.02583 0.29452 0.0
N9 N 0.63268 0.98211 0.17308 0.0
C10 C 0.63707 0.8818 0.21104 0.0
C11 C 0.67275 0.93208 0.18725 0.0
C12 C 0.57311 0.96047 0.18989 0.0
N13 N 0.57413 0.89937 0.21185 0.0
O14 O 0.56371 0.0676 0.10273 0.0
H15 H 0.72444 0.93026 0.17979 0.0
H16 H 0.52862 0.98774 0.18356 0.0
O17 O 0.61427 0.0999 0.22272 0.0
C18 C 0.54935 0.022 0.06299 0.0
O19 O 0.59556 0.98273 1.04379 0.0
N20 N 0.73426 0.05953 0.17588 0.0
C21 C 0.85346 1.00535 0.19785 0.0
C22 C 0.82256 0.04024 0.24545 0.0
C23 C 0.76301 0.07013 0.23243 0.0
C24 C 0.7681 0.03301 0.12757 0.0
C25 C 0.82905 1.00732 0.13717 0.0
H26 H 0.73896 0.09748 0.26858 0.0
H27 H 0.74503 0.02771 0.08243 0.0
H28 H 0.77656 0.15198 0.10573 0.0
H29 H 0.65985 0.31297 0.14481 0.0
H30 H 0.65499 0.83312 0.21985 0.0
H31 H 0.84201 0.04063 0.29244 0.0
H32 H 0.85283 0.98115 0.09965 0.0
C33 C 0.32136 0.63594 0.13356 0.0
C34 C 0.26624 0.67505 0.13375 0.0
N35 N 0.28475 0.73654 0.12151 0.0
N36 N 0.37474 0.67236 0.12149 0.0
C37 C 0.34975 0.73355 0.11384 0.0
H38 H 0.32283 0.58523 0.1469 0.0
Co39 Co 0.46322 0.65131 0.14484 0.0
C40 C 0.45112 0.61441 0.27903 0.0
O41 O 0.50427 0.64589 0.29452 0.0
N42 N 0.54801 0.63273 0.17308 0.0
C43 C 0.6483 0.63711 0.21106 0.0
C44 C 0.59803 0.6728 0.18728 0.0
C45 C 0.56964 0.57315 0.18989 0.0
N46 N 0.63074 0.57417 0.21186 0.0
O47 O 0.46253 0.56376 0.10273 0.0
H48 H 0.59986 0.72449 0.17983 0.0
H49 H 0.54238 0.52866 0.18355 0.0
O50 O 0.43022 0.6143 0.22272 0.0
C51 C 0.50811 0.54938 0.06299 0.0
O52 O 0.5474 0.59558 1.04379 0.0
N53 N 0.47059 0.73431 0.1759 0.0
C54 C 0.52468 0.85353 0.19797 0.0
C55 C 0.48975 0.8226 0.24553 0.0
C56 C 0.4599 0.76303 0.23245 0.0
C57 C 0.49714 0.7682 0.12763 0.0
C58 C 0.52281 0.82916 0.13727 0.0
H59 H 0.43251 0.73896 0.26855 0.0
H60 H 0.5025 0.74515 0.08248 0.0
H61 H 0.37817 0.77663 0.10575 0.0
H62 H 0.21717 0.65989 0.14477 0.0
H63 H 0.69698 0.65504 0.21989 0.0
H64 H 0.48928 0.84202 0.29251 0.0
H65 H 0.54901 0.85297 0.0998 0.0
C66 C 0.89412 0.32137 0.13357 0.0
C67 C 0.855 0.26626 0.13377 0.0
N68 N 0.79351 0.28479 0.12158 0.0
N69 N 0.85772 0.37477 0.1215 0.0
C70 C 0.79652 0.34979 0.11386 0.0
H71 H 0.94483 0.32283 0.14689 0.0
Co72 Co 0.87879 0.46325 0.14484 0.0
C73 C 0.91569 0.45113 0.27904 0.0
O74 O 0.88422 0.50428 0.29453 0.0
N75 N 0.89739 0.54804 0.17309 0.0
C76 C 0.89305 0.64833 0.21107 0.0
C77 C 0.85734 0.59807 0.18728 0.0
C78 C 0.95697 0.56965 0.1899 0.0
N79 N 0.95598 0.63074 0.21187 0.0
O80 O 0.96633 0.46254 0.10273 0.0
H81 H 0.80565 0.59991 0.17983 0.0
H82 H 1.00145 0.54236 0.18356 0.0
O83 O 0.9158 0.43024 0.22273 0.0
C84 C 0.98072 0.50814 0.06299 0.0
O85 O 0.93453 0.54744 1.0438 0.0
N86 N 0.79579 0.47063 0.17592 0.0
C87 C 0.67658 0.52473 0.19799 0.0
C88 C 0.70751 0.48978 0.24554 0.0
C89 C 0.76707 0.45994 0.23246 0.0
C90 C 0.76192 0.4972 0.12764 0.0
C91 C 0.70097 0.52287 0.13729 0.0
H92 H 0.79114 0.43254 0.26857 0.0
H93 H 0.78497 0.50256 0.0825 0.0
H94 H 0.75346 0.37822 0.10575 0.0
H95 H 0.87015 0.21718 0.14476 0.0
H96 H 0.87514 0.69702 0.2199 0.0
H97 H 0.68808 0.48931 0.29252 0.0
H98 H 0.67716 0.54907 0.09982 0.0
C99 C 0.20875 0.89417 0.13358 0.0
C100 C 0.26387 0.85505 0.13378 0.0
N101 N 0.24535 0.79357 0.12156 0.0
N102 N 0.15537 0.85776 0.12149 0.0
C103 C 0.18036 0.79657 0.11384 0.0
H104 H 0.20729 0.94488 0.14692 0.0
Co105 Co 0.06689 0.87879 0.14483 0.0
C106 C 0.07896 0.91571 0.27902 0.0
O107 O 0.0258 0.88425 0.2945 0.0
N108 N 0.98209 0.89735 0.17306 0.0
C109 C 0.88171 0.89293 0.21091 0.0
C110 C 0.93206 0.85726 0.18722 0.0
C111 C 0.96042 0.95693 0.1898 0.0
N112 N 0.89928 0.95586 0.21162 0.0
O113 O 0.06756 0.96635 0.10272 0.0
H114 H 0.93027 0.80556 0.17981 0.0
H115 H 0.98766 1.00144 0.18348 0.0
O116 O 0.09986 0.91581 0.22271 0.0
C117 C 0.02197 0.98074 0.06297 0.0
O118 O 0.9827 0.93454 1.04376 0.0
N119 N 0.05953 0.79579 0.1759 0.0
C120 C 1.00544 0.67657 0.198 0.0
C121 C 0.04036 0.70752 0.24555 0.0
C122 C 0.0702 0.76708 0.23246 0.0
C123 C 0.033 0.76189 0.12763 0.0
C124 C 1.00734 0.70093 0.13729 0.0
H125 H 0.09757 0.79117 0.26857 0.0
H126 H 0.02765 0.78493 0.08247 0.0
H127 H 0.15194 0.7535 0.1057 0.0
H128 H 0.31294 0.87021 0.14479 0.0
H129 H 0.83303 0.875 0.21969 0.0
H130 H 0.0408 0.68811 0.29255 0.0
H131 H 0.98115 0.67711 0.09982 0.0
C132 C 0.13591 0.82136 0.47254 0.0
C133 C 0.17504 0.76625 0.47234 0.0
N134 N 0.23651 0.78477 0.48459 0.0
N135 N 0.17231 0.87475 0.48462 0.0
C136 C 0.2335 0.84977 0.49227 0.0
H137 H 0.08521 0.82282 0.45918 0.0
Co138 Co 0.15125 0.96324 0.46127 0.0
C139 C 0.11436 0.95112 0.32707 0.0
O140 O 0.14582 1.00428 0.31158 0.0
N141 N 0.13265 0.04802 0.43301 0.0
C142 C 0.13702 0.14832 0.39502 0.0
C143 C 0.17271 0.09805 0.41881 0.0
C144 C 0.07308 0.06965 0.4162 0.0
N145 N 0.07408 0.13074 0.39423 0.0
O146 O 0.06371 0.96253 0.50338 0.0
H147 H 0.2244 0.09988 0.42625 0.0
H148 H 0.02859 0.04238 0.42255 0.0
O149 O 0.11425 0.93023 0.38338 0.0
C150 C 0.04934 1.00813 0.54312 0.0
O151 O 0.09556 0.0474 0.56231 0.0
N152 N 0.23424 0.97062 0.43021 0.0
C153 C 0.35345 0.02478 0.40825 0.0
C154 C 0.32255 0.98988 0.36065 0.0
C155 C 0.263 0.96001 0.37367 0.0
C156 C 0.26808 0.99716 0.47852 0.0
C157 C 0.32903 0.02284 0.46893 0.0
H158 H 0.23895 0.93264 0.33752 0.0
H159 H 0.245 1.00248 0.52366 0.0
H160 H 0.27657 0.8782 0.50038 0.0
H161 H 0.15989 0.71718 0.46131 0.0
H162 H 0.15494 0.197 0.38618 0.0
H163 H 0.34201 0.98947 0.31367 0.0
H164 H 0.35281 0.04902 0.50643 0.0
C165 C 0.70876 0.13591 0.47252 0.0
C166 C 0.76388 0.17503 0.47233 0.0
N167 N 0.74538 0.23651 0.48461 0.0
N168 N 0.65539 0.17232 0.48463 0.0
C169 C 0.68038 0.2335 0.4923 0.0
H170 H 0.70729 0.08521 0.45915 0.0
Co171 Co 0.5669 0.1513 0.46128 0.0
C172 C 0.57897 0.1144 0.32709 0.0
O173 O 0.52581 0.14585 0.31161 0.0
N174 N 0.4821 0.13275 0.43305 0.0
C175 C 0.38173 0.13719 0.39518 0.0
C176 C 0.43208 0.17285 0.41887 0.0
C177 C 0.46042 0.07317 0.4163 0.0
N178 N 0.39928 0.07426 0.39447 0.0
O179 O 0.56757 0.06374 0.50339 0.0
H180 H 0.43031 0.22455 0.42628 0.0
H181 H 0.48765 0.02866 0.42263 0.0
O182 O 0.59988 0.1143 0.3834 0.0
C183 C 0.52198 0.04938 0.54314 0.0
O184 O 0.48273 0.0956 0.56235 0.0
N185 N 0.55955 0.23431 0.43023 0.0
C186 C 0.50539 0.35352 0.40825 0.0
C187 C 0.54026 0.3226 0.36065 0.0
C188 C 0.57014 0.26304 0.37367 0.0
C189 C 0.53304 0.26816 0.47854 0.0
C190 C 0.50736 0.32912 0.46894 0.0
H191 H 0.59747 0.23898 0.33752 0.0
H192 H 0.52773 0.2451 0.52369 0.0
H193 H 0.65197 0.27658 0.50043 0.0
H194 H 0.81295 0.15988 0.46129 0.0
H195 H 0.33305 0.15513 0.38639 0.0
H196 H 0.54065 0.34204 0.31366 0.0
H197 H 0.48121 0.35292 0.50645 0.0
C198 C 0.39415 0.70881 0.47251 0.0
C199 C 0.35502 0.76392 0.47231 0.0
N200 N 0.29354 0.74539 0.48454 0.0
N201 N 0.35776 0.65542 0.48462 0.0
C202 C 0.29657 0.6804 0.49228 0.0
H203 H 0.44486 0.70735 0.45916 0.0
Co204 Co 0.3788 0.56692 0.46128 0.0
C205 C 0.41571 0.57901 0.32709 0.0
O206 O 0.38426 0.52584 0.31161 0.0
N207 N 0.39737 0.48213 0.43305 0.0
C208 C 0.39297 0.38175 0.39519 0.0
C209 C 0.35729 0.43209 0.41888 0.0
C210 C 0.45696 0.46047 0.4163 0.0
N211 N 0.45589 0.39933 0.39448 0.0
O212 O 0.46635 0.56761 0.50339 0.0
H213 H 0.3056 0.4303 0.4263 0.0
H214 H 0.50146 0.48772 0.42263 0.0
O215 O 0.41581 0.59991 0.38339 0.0
C216 C 0.48072 0.52201 0.54314 0.0
O217 O 0.4345 0.48274 0.56235 0.0
N218 N 0.29581 0.55956 0.43022 0.0
C219 C 0.1766 0.5054 0.40823 0.0
C220 C 0.20752 0.54029 0.36063 0.0
C221 C 0.26707 0.57016 0.37366 0.0
C222 C 0.26195 0.53303 0.47852 0.0
C223 C 0.20099 0.50736 0.46891 0.0
H224 H 0.29114 0.59751 0.33751 0.0
H225 H 0.28501 0.52772 0.52367 0.0
H226 H 0.25351 0.65197 0.50042 0.0
H227 H 0.37016 0.813 0.46129 0.0
H228 H 0.37505 0.33306 0.3864 0.0
H229 H 0.18808 0.54069 0.31364 0.0
H230 H 0.1772 0.48119 0.50642 0.0
C231 C 0.82134 0.39415 0.47254 0.0
C232 C 0.76623 0.35502 0.47234 0.0
N233 N 0.78476 0.29354 0.48456 0.0
N234 N 0.87473 0.35775 0.48463 0.0
C235 C 0.84975 0.29656 0.49228 0.0
H236 H 0.8228 0.44487 0.4592 0.0
Co237 Co 0.96321 0.3788 0.46128 0.0
C238 C 0.9511 0.41573 0.32709 0.0
O239 O 1.00426 0.38427 0.3116 0.0
N240 N 0.048 0.39739 0.43303 0.0
C241 C 0.14835 0.39299 0.39513 0.0
C242 C 0.09802 0.3573 0.41883 0.0
C243 C 0.06965 0.45698 0.41629 0.0
N244 N 0.13078 0.45592 0.39445 0.0
O245 O 0.96252 0.46635 0.50339 0.0
H246 H 0.09982 0.3056 0.42623 0.0
H247 H 0.04241 0.50148 0.42263 0.0
O248 O 0.93021 0.41583 0.3834 0.0
C249 C 1.0081 0.48074 0.54314 0.0
O250 O 0.04739 0.43454 0.56234 0.0
N251 N 0.97057 0.29581 0.4302 0.0
C252 C 0.02464 0.17658 0.40811 0.0
C253 C 0.98971 0.20753 0.36056 0.0
C254 C 0.95988 0.2671 0.37365 0.0
C255 C 0.99713 0.26192 0.47847 0.0
C256 C 0.02277 0.20095 0.46881 0.0
H257 H 0.93249 0.29118 0.33754 0.0
H258 H 1.00249 0.28496 0.52362 0.0
H259 H 0.87818 0.25349 0.50041 0.0
H260 H 0.71716 0.37017 0.46134 0.0
H261 H 0.19703 0.37507 0.38633 0.0
H262 H 0.98924 0.18811 0.31357 0.0
H263 H 0.04898 0.17713 0.50628 0.0
C264 C 0.39418 0.82134 0.97254 0.0
C265 C 0.35506 0.76622 0.97234 0.0
N266 N 0.29358 0.78472 0.98459 0.0
N267 N 0.35777 0.87472 0.98463 0.0
C268 C 0.29658 0.84972 0.99228 0.0
H269 H 0.44488 0.82281 0.95919 0.0
Co270 Co 0.37881 0.96321 0.96128 0.0
C271 C 0.41569 0.95112 0.82708 0.0
O272 O 0.38423 1.00429 0.8116 0.0
N273 N 0.39738 0.04801 0.93304 0.0
C274 C 0.393 0.14832 0.89508 0.0
C275 C 0.35731 0.09804 0.91887 0.0
C276 C 0.45696 0.06965 0.91622 0.0
N277 N 0.45594 0.13075 0.89427 0.0
O278 O 0.46635 0.96253 1.00338 0.0
H279 H 0.30563 0.09986 0.92633 0.0
H280 H 0.50144 0.04238 0.92256 0.0
O281 O 0.4158 0.93022 0.88339 0.0
C282 C 0.48072 1.00812 1.04313 0.0
O283 O 0.43451 0.04739 0.06233 0.0
N284 N 0.29581 0.97059 0.93023 0.0
C285 C 0.17661 0.02477 0.90827 0.0
C286 C 0.20751 0.98988 0.86066 0.0
C287 C 0.26706 0.96 0.87368 0.0
C288 C 0.26197 0.99711 0.97855 0.0
C289 C 0.20101 0.0228 0.96895 0.0
H290 H 0.29111 0.93264 0.83753 0.0
H291 H 0.28504 1.00241 1.02369 0.0
H292 H 0.25351 0.87814 1.00039 0.0
H293 H 0.37022 0.71715 0.96131 0.0
H294 H 0.37508 0.197 0.88627 0.0
H295 H 0.18806 0.98949 0.81368 0.0
H296 H 0.17723 0.04897 1.00646 0.0
C297 C 0.70871 0.39418 0.97256 0.0
C298 C 0.76383 0.35507 0.97237 0.0
N299 N 0.74532 0.29358 0.9846 0.0
N300 N 0.65533 0.35776 0.98463 0.0
C301 C 0.68032 0.29657 0.99228 0.0
H302 H 0.70724 0.44489 0.95921 0.0
Co303 Co 0.56685 0.37881 0.96128 0.0
C304 C 0.57895 0.41571 0.82708 0.0
O305 O 0.5258 0.38423 0.8116 0.0
N306 N 0.48206 0.39739 0.93303 0.0
C307 C 0.38176 0.39301 0.89506 0.0
C308 C 0.43204 0.35732 0.91884 0.0
C309 C 0.46042 0.45697 0.91622 0.0
N310 N 0.39933 0.45595 0.89426 0.0
O311 O 0.56754 0.46636 1.00339 0.0
H312 H 0.43021 0.30563 0.92629 0.0
H313 H 0.48769 0.50146 0.92257 0.0
O314 O 0.59984 0.41582 0.8834 0.0
C315 C 0.52195 0.48074 1.04312 0.0
O316 O 0.48266 0.43454 0.06233 0.0
N317 N 0.55948 0.2958 0.93022 0.0
C318 C 0.50539 0.17658 0.90814 0.0
C319 C 0.54032 0.20752 0.86059 0.0
C320 C 0.57016 0.26708 0.87367 0.0
C321 C 0.53293 0.26192 0.97849 0.0
C322 C 0.50726 0.20096 0.96884 0.0
H323 H 0.59756 0.29116 0.83756 0.0
H324 H 0.52757 0.28497 1.02364 0.0
H325 H 0.6519 0.25349 1.00037 0.0
H326 H 0.81289 0.37023 0.96135 0.0
H327 H 0.33309 0.37508 0.88623 0.0
H328 H 0.54079 0.1881 0.8136 0.0
H329 H 0.48106 0.17715 1.00631 0.0
C330 C 0.13595 0.70875 0.97255 0.0
C331 C 0.17507 0.76386 0.97235 0.0
N332 N 0.23656 0.74533 0.98454 0.0
N333 N 0.17235 0.65535 0.98462 0.0
C334 C 0.23354 0.68033 0.99225 0.0
H335 H 0.08523 0.70729 0.95923 0.0
Co336 Co 0.15128 0.56687 0.96128 0.0
C337 C 0.11438 0.57899 0.82708 0.0
O338 O 0.14585 0.52584 0.81159 0.0
N339 N 0.13268 0.48208 0.93303 0.0
C340 C 0.13702 0.38179 0.89505 0.0
C341 C 0.17273 0.43205 0.91884 0.0
C342 C 0.0731 0.46047 0.91622 0.0
N343 N 0.07409 0.39938 0.89425 0.0
O344 O 0.06374 0.56758 1.00339 0.0
H345 H 0.22441 0.4302 0.92629 0.0
H346 H 0.02862 0.48776 0.92256 0.0
O347 O 0.11427 0.59988 0.88339 0.0
C348 C 0.04935 0.52198 1.04312 0.0
O349 O 0.09554 0.48268 0.06232 0.0
N350 N 0.23428 0.55949 0.9302 0.0
C351 C 0.35349 0.50539 0.90813 0.0
C352 C 0.32256 0.54034 0.86058 0.0
C353 C 0.263 0.57018 0.87366 0.0
C354 C 0.26815 0.53292 0.97847 0.0
C355 C 0.3291 0.50725 0.96883 0.0
H356 H 0.23893 0.59758 0.83755 0.0
H357 H 0.2451 0.52756 1.02362 0.0
H358 H 0.27661 0.6519 1.00037 0.0
H359 H 0.15992 0.81294 0.96136 0.0
H360 H 0.15493 0.3331 0.88622 0.0
H361 H 0.34199 0.54081 0.81359 0.0
H362 H 0.35291 0.48105 1.0063 0.0
C363 C 0.82131 0.13595 0.97254 0.0
C364 C 0.76619 0.17507 0.97234 0.0
N365 N 0.78471 0.23655 0.98455 0.0
N366 N 0.87469 0.17236 0.98463 0.0
C367 C 0.8497 0.23355 0.99228 0.0
H368 H 0.82278 0.08524 0.9592 0.0
Co369 Co 0.96318 0.15133 0.96129 0.0
C370 C 0.95111 0.11441 0.8271 0.0
O371 O 1.00427 0.14587 0.81162 0.0
N372 N 0.04798 0.13277 0.93306 0.0
C373 C 0.14835 0.13719 0.89521 0.0
C374 C 0.09801 0.17286 0.9189 0.0
C375 C 0.06965 0.07319 0.91631 0.0
N376 N 0.13079 0.07426 0.8945 0.0
O377 O 0.96251 0.06377 1.0034 0.0
H378 H 0.0998 0.22456 0.92631 0.0
H379 H 0.04241 0.02868 0.92264 0.0
O380 O 0.9302 0.11431 0.88341 0.0
C381 C 1.0081 0.04938 1.04314 0.0
O382 O 0.04737 0.09558 0.06236 0.0
N383 N 0.97053 0.23434 0.93022 0.0
C384 C 0.02463 0.35355 0.90812 0.0
C385 C 0.98971 0.3226 0.86057 0.0
C386 C 0.95987 0.26304 0.87365 0.0
C387 C 0.99707 0.26823 0.97849 0.0
C388 C 0.02273 0.32919 0.96883 0.0
H389 H 0.9325 0.23895 0.83754 0.0
H390 H 1.00242 0.24519 1.02364 0.0
H391 H 0.87812 0.27662 1.00042 0.0
H392 H 0.71713 0.15991 0.96133 0.0
H393 H 0.19704 0.15512 0.88643 0.0
H394 H 0.98927 0.34201 0.81357 0.0
H395 H 0.04892 0.35301 1.0063 0.0
C396 C 0.89416 0.20876 0.63358 0.0
C397 C 0.85503 0.26387 0.63378 0.0
N398 N 0.79355 0.24535 0.62153 0.0
N399 N 0.85776 0.15537 0.6215 0.0
C400 C 0.79657 0.18035 0.61384 0.0
H401 H 0.94486 0.2073 0.64694 0.0
Co402 Co 0.87882 0.06688 0.64485 0.0
C403 C 0.91571 0.079 0.77905 0.0
O404 O 0.88425 0.02584 0.79454 0.0
N405 N 0.89741 0.98209 0.67311 0.0
C406 C 0.89305 0.8818 0.7111 0.0
C407 C 0.85735 0.93207 0.68731 0.0
C408 C 0.95699 0.96047 0.68992 0.0
N409 N 0.95598 0.89937 0.71189 0.0
O410 O 0.96636 0.06758 0.60274 0.0
H411 H 0.80566 0.93024 0.67986 0.0
H412 H 1.00148 0.98774 0.68357 0.0
O413 O 0.91582 0.09989 0.72274 0.0
C414 C 0.98072 0.02199 0.563 0.0
O415 O 0.93451 0.98271 0.5438 0.0
N416 N 0.79582 0.0595 0.67591 0.0
C417 C 0.67662 1.00534 0.69787 0.0
C418 C 0.70751 0.04024 0.74547 0.0
C419 C 0.76707 0.07011 0.73245 0.0
C420 C 0.76199 0.03296 0.6276 0.0
C421 C 0.70103 1.00728 0.63719 0.0
H422 H 0.79112 0.09748 0.76859 0.0
H423 H 0.78507 0.02764 0.58246 0.0
H424 H 0.7535 0.15192 0.60574 0.0
H425 H 0.87018 0.31294 0.64481 0.0
H426 H 0.87513 0.83312 0.71993 0.0
H427 H 0.68806 0.04065 0.79245 0.0
H428 H 0.67725 0.9811 0.59968 0.0
C429 C 0.32131 0.89421 0.63359 0.0
C430 C 0.26619 0.85509 0.63378 0.0
N431 N 0.28469 0.79361 0.62151 0.0
N432 N 0.37468 0.8578 0.62149 0.0
C433 C 0.34968 0.79661 0.61381 0.0
H434 H 0.32278 0.94491 0.64697 0.0
Co435 Co 0.46317 0.87882 0.64483 0.0
C436 C 0.45109 0.91572 0.77903 0.0
O437 O 0.50426 0.88427 0.79451 0.0
N438 N 0.54797 0.89737 0.67307 0.0
C439 C 0.64833 0.89292 0.71094 0.0
C440 C 0.59799 0.85726 0.68724 0.0
C441 C 0.56965 0.95695 0.68982 0.0
N442 N 0.63078 0.95586 0.71165 0.0
O443 O 0.4625 0.96638 0.60273 0.0
H444 H 0.59976 0.80557 0.67983 0.0
H445 H 0.54242 1.00146 0.68349 0.0
O446 O 0.43019 0.91582 0.72272 0.0
C447 C 0.50809 0.98074 0.56298 0.0
O448 O 0.54734 0.93452 0.54376 0.0
N449 N 0.47052 0.79581 0.67589 0.0
C450 C 0.52468 0.6766 0.69787 0.0
C451 C 0.48981 0.70752 0.74547 0.0
C452 C 0.45993 0.76708 0.73245 0.0
C453 C 0.49703 0.76196 0.62758 0.0
C454 C 0.5227 0.70099 0.63718 0.0
H455 H 0.4326 0.79114 0.7686 0.0
H456 H 0.50233 0.78502 0.58243 0.0
H457 H 0.3781 0.75354 0.60569 0.0
H458 H 0.21712 0.87024 0.64483 0.0
H459 H 0.69701 0.87499 0.71973 0.0
H460 H 0.48942 0.68808 0.79246 0.0
H461 H 0.54886 0.6772 0.59967 0.0
C462 C 0.63592 0.32131 0.6336 0.0
C463 C 0.67504 0.2662 0.63381 0.0
N464 N 0.73652 0.28473 0.62158 0.0
N465 N 0.67231 0.3747 0.6215 0.0
C466 C 0.7335 0.34972 0.61384 0.0
H467 H 0.58521 0.32277 0.64695 0.0
Co468 Co 0.65127 0.4632 0.64484 0.0
C469 C 0.61435 0.45111 0.77903 0.0
O470 O 0.6458 0.50428 0.79451 0.0
N471 N 0.6327 0.54799 0.67307 0.0
C472 C 0.6371 0.64837 0.71093 0.0
C473 C 0.67278 0.59803 0.68723 0.0
C474 C 0.57311 0.56965 0.68982 0.0
N475 N 0.57418 0.63079 0.71164 0.0
O476 O 0.56372 0.46251 0.60272 0.0
H477 H 0.72447 0.59983 0.67982 0.0
H478 H 0.52861 0.5424 0.68349 0.0
O479 O 0.61426 0.43021 0.72272 0.0
C480 C 0.54935 0.50811 0.56298 0.0
O481 O 0.59556 0.54738 0.54376 0.0
N482 N 0.73426 0.47056 0.6759 0.0
C483 C 0.85347 0.52472 0.69789 0.0
C484 C 0.82255 0.48983 0.74549 0.0
C485 C 0.76299 0.45996 0.73246 0.0
C486 C 0.76812 0.49709 0.6276 0.0
C487 C 0.82908 0.52276 0.6372 0.0
H488 H 0.73893 0.43261 0.7686 0.0
H489 H 0.74505 0.5024 0.58245 0.0
H490 H 0.77656 0.37815 0.6057 0.0
H491 H 0.6599 0.21712 0.64483 0.0
H492 H 0.65502 0.69706 0.71971 0.0
H493 H 0.84198 0.48943 0.79248 0.0
H494 H 0.85287 0.54893 0.5997 0.0
C495 C 0.20873 0.63597 0.63358 0.0
C496 C 0.26384 0.6751 0.63377 0.0
N497 N 0.2453 0.73658 0.62156 0.0
N498 N 0.15534 0.67237 0.62149 0.0
C499 C 0.18031 0.73356 0.61384 0.0
H500 H 0.20727 0.58525 0.64691 0.0
Co501 Co 0.06686 0.65132 0.64484 0.0
C502 C 0.07897 0.61439 0.77903 0.0
O503 O 0.02581 0.64585 0.79452 0.0
N504 N 0.98207 0.63274 0.67309 0.0
C505 C 0.88172 0.63713 0.71098 0.0
C506 C 0.93205 0.67282 0.68728 0.0
C507 C 0.96042 0.57314 0.68983 0.0
N508 N 0.89929 0.5742 0.71167 0.0
O509 O 0.06755 0.56377 0.60273 0.0
H510 H 0.93025 0.72452 0.67989 0.0
H511 H 0.98766 0.52864 0.68349 0.0
O512 O 0.09986 0.61429 0.72272 0.0
C513 C 0.02196 0.54938 0.56298 0.0
O514 O 0.98268 0.59558 0.54377 0.0
N515 N 0.0595 0.73432 0.67592 0.0
C516 C 1.00543 0.85354 0.69801 0.0
C517 C 0.04036 0.82259 0.74556 0.0
C518 C 0.07019 0.76302 0.73247 0.0
C519 C 0.03294 0.76821 0.62765 0.0
C520 C 1.00729 0.82917 0.63731 0.0
H521 H 0.09758 0.73894 0.76857 0.0
H522 H 0.02758 0.74517 0.5825 0.0
H523 H 0.15189 0.77663 0.60571 0.0
H524 H 0.31291 0.65995 0.64478 0.0
H525 H 0.83303 0.65505 0.71979 0.0
H526 H 0.04083 0.84201 0.79255 0.0
H527 H 0.98109 0.85299 0.59984 0.0
loop_
_geom_bond_atom_site_label_1
_geom_bond_atom_site_label_2
_geom_bond_distance
_geom_bond_site_symmetry_2
_ccdc_geom_bond_type
C0 C1 1.351 . S
C0 N3 1.368 . S
C0 H5 0.931 1_554 S
C1 C0 1.351 . S
C1 N2 1.373 . S
C1 H29 0.930 1_554 S
N2 C1 1.373 . S
N2 C4 1.340 . S
N3 C0 1.368 . S
N3 C4 1.321 . S
N3 Co6 2.135 . S
C4 N2 1.340 . S
C4 N3 1.321 . S
C4 H28 0.930 . S
H5 C0 0.931 1_556 S
Co6 N3 2.135 . S
Co6 N9 2.121 1_545 S
Co6 O14 2.055 . S
Co6 O17 2.039 . S
Co6 N20 2.140 . S
C7 O8 1.227 . S
C7 O17 1.265 . S
O8 C7 1.227 . S
N9 Co6 2.121 1_565 S
N9 C11 1.375 . S
N9 C12 1.313 . S
C10 C11 1.338 . S
C10 N13 1.377 . S
C10 H30 0.930 . S
C11 N9 1.375 . S
C11 C10 1.338 . S
C11 H15 0.931 . S
C12 N9 1.313 . S
C12 N13 1.344 . S
C12 H16 0.930 . S
N13 C10 1.377 . S
N13 C12 1.344 . S
O14 Co6 2.055 . S
O14 C18 1.253 . S
H15 C11 0.931 . S
H16 C12 0.930 . S
O17 Co6 2.039 . S
O17 C7 1.265 . S
C18 O14 1.253 . S
C18 O19 1.228 . S
O19 C18 1.228 . S
N20 Co6 2.140 . S
N20 C23 1.346 . S
N20 C24 1.345 1_545 S
C21 C22 1.387 1_565 S
C21 C25 1.391 . S
C22 C21 1.387 1_545 S
C22 C23 1.369 . S
C22 H31 0.929 . S
C23 N20 1.346 . S
C23 C22 1.369 . S
C23 H26 0.928 . S
C24 N20 1.345 1_565 S
C24 C25 1.371 . S
C24 H27 0.931 . S
C25 C21 1.391 . S
C25 C24 1.371 . S
C25 H32 0.930 . S
H26 C23 0.928 . S
H27 C24 0.931 . S
H28 C4 0.930 . S
H29 C1 0.930 1_556 S
H30 C10 0.930 . S
H31 C22 0.929 . S
H32 C25 0.930 . S
C33 C34 1.351 . S
C33 N36 1.368 . S
C33 H38 0.931 1_554 S
C34 C33 1.351 . S
C34 N35 1.373 . S
C34 H62 0.930 1_554 S
N35 C34 1.373 . S
N35 C37 1.340 . S
N36 C33 1.368 . S
N36 C37 1.321 . S
N36 Co39 2.135 . S
C37 N35 1.340 . S
C37 N36 1.321 . S
C37 H61 0.930 . S
H38 C33 0.931 1_556 S
Co39 N36 2.135 . S
Co39 N42 2.121 . S
Co39 O47 2.055 . S
Co39 O50 2.039 . S
Co39 N53 2.140 . S
C40 O41 1.227 . S
C40 O50 1.265 . S
O41 C40 1.227 . S
N42 Co39 2.121 . S
N42 C44 1.375 . S
N42 C45 1.313 . S
C43 C44 1.338 . S
C43 N46 1.377 . S
C43 H63 0.930 . S
C44 N42 1.375 . S
C44 C43 1.338 . S
C44 H48 0.931 . S
C45 N42 1.313 . S
C45 N46 1.344 . S
C45 H49 0.930 . S
N46 C43 1.377 . S
N46 C45 1.344 . S
O47 Co39 2.055 . S
O47 C51 1.253 . S
H48 C44 0.931 . S
H49 C45 0.930 . S
O50 Co39 2.039 . S
O50 C40 1.265 . S
C51 O47 1.253 . S
C51 O52 1.228 . S
O52 C51 1.228 . S
N53 Co39 2.140 . S
N53 C56 1.346 . S
N53 C57 1.345 . S
C54 C55 1.387 . S
C54 C58 1.391 . S
C55 C54 1.387 . S
C55 C56 1.369 . S
C55 H64 0.929 . S
C56 N53 1.346 . S
C56 C55 1.369 . S
C56 H59 0.928 . S
C57 N53 1.345 . S
C57 C58 1.371 . S
C57 H60 0.931 . S
C58 C54 1.391 . S
C58 C57 1.371 . S
C58 H65 0.930 . S
H59 C56 0.928 . S
H60 C57 0.931 . S
H61 C37 0.930 . S
H62 C34 0.930 1_556 S
H63 C43 0.930 . S
H64 C55 0.929 . S
H65 C58 0.930 . S
C66 C67 1.351 . S
C66 N69 1.368 . S
C66 H71 0.931 1_554 S
C67 C66 1.351 . S
C67 N68 1.373 . S
C67 H95 0.930 1_554 S
N68 C67 1.373 . S
N68 C70 1.340 . S
N69 C66 1.368 . S
N69 C70 1.321 . S
N69 Co72 2.135 . S
C70 N68 1.340 . S
C70 N69 1.321 . S
C70 H94 0.930 . S
H71 C66 0.931 1_556 S
Co72 N69 2.135 . S
Co72 N75 2.121 . S
Co72 O80 2.055 . S
Co72 O83 2.039 . S
Co72 N86 2.140 . S
C73 O74 1.227 . S
C73 O83 1.265 . S
O74 C73 1.227 . S
N75 Co72 2.121 . S
N75 C77 1.375 . S
N75 C78 1.313 . S
C76 C77 1.338 . S
C76 N79 1.377 . S
C76 H96 0.930 . S
C77 N75 1.375 . S
C77 C76 1.338 . S
C77 H81 0.931 . S
C78 N75 1.313 . S
C78 N79 1.344 . S
C78 H82 0.930 . S
N79 C76 1.377 . S
N79 C78 1.344 . S
O80 Co72 2.055 . S
O80 C84 1.253 . S
H81 C77 0.931 . S
H82 C78 0.930 . S
O83 Co72 2.039 . S
O83 C73 1.265 . S
C84 O80 1.253 . S
C84 O85 1.228 . S
O85 C84 1.228 . S
N86 Co72 2.140 . S
N86 C89 1.346 . S
N86 C90 1.345 . S
C87 C88 1.387 . S
C87 C91 1.391 . S
C88 C87 1.387 . S
C88 C89 1.369 . S
C88 H97 0.929 . S
C89 N86 1.346 . S
C89 C88 1.369 . S
C89 H92 0.928 . S
C90 N86 1.345 . S
C90 C91 1.371 . S
C90 H93 0.931 . S
C91 C87 1.391 . S
C91 C90 1.371 . S
C91 H98 0.930 . S
H92 C89 0.928 . S
H93 C90 0.931 . S
H94 C70 0.930 . S
H95 C67 0.930 1_556 S
H96 C76 0.930 . S
H97 C88 0.929 . S
H98 C91 0.930 . S
C99 C100 1.351 . S
C99 N102 1.368 . S
C99 H104 0.931 1_554 S
C100 C99 1.351 . S
C100 N101 1.373 . S
C100 H128 0.930 1_554 S
N101 C100 1.373 . S
N101 C103 1.340 . S
N102 C99 1.368 . S
N102 C103 1.321 . S
N102 Co105 2.135 . S
C103 N101 1.340 . S
C103 N102 1.321 . S
C103 H127 0.930 . S
H104 C99 0.931 1_556 S
Co105 N102 2.135 . S
Co105 N108 2.121 1_455 S
Co105 O113 2.055 . S
Co105 O116 2.039 . S
Co105 N119 2.140 . S
C106 O107 1.227 . S
C106 O116 1.265 . S
O107 C106 1.227 . S
N108 Co105 2.121 1_655 S
N108 C110 1.375 . S
N108 C111 1.313 . S
C109 C110 1.338 . S
C109 N112 1.377 . S
C109 H129 0.930 . S
C110 N108 1.375 . S
C110 C109 1.338 . S
C110 H114 0.931 . S
C111 N108 1.313 . S
C111 N112 1.344 . S
C111 H115 0.930 . S
N112 C109 1.377 . S
N112 C111 1.344 . S
O113 Co105 2.055 . S
O113 C117 1.253 . S
H114 C110 0.931 . S
H115 C111 0.930 . S
O116 Co105 2.039 . S
O116 C106 1.265 . S
C117 O113 1.253 . S
C117 O118 1.228 . S
O118 C117 1.228 . S
N119 Co105 2.140 . S
N119 C122 1.346 . S
N119 C123 1.345 1_455 S
C120 C121 1.387 1_655 S
C120 C124 1.391 . S
C121 C120 1.387 1_455 S
C121 C122 1.369 . S
C121 H130 0.929 . S
C122 N119 1.346 . S
C122 C121 1.369 . S
C122 H125 0.928 . S
C123 N119 1.345 1_655 S
C123 C124 1.371 . S
C123 H126 0.931 . S
C124 C120 1.391 . S
C124 C123 1.371 . S
C124 H131 0.930 . S
H125 C122 0.928 . S
H126 C123 0.931 . S
H127 C103 0.930 . S
H128 C100 0.930 1_556 S
H129 C109 0.930 . S
H130 C121 0.929 . S
H131 C124 0.930 . S
C132 C133 1.351 . S
C132 N135 1.368 . S
C132 H137 0.931 . S
C133 C132 1.351 . S
C133 N134 1.373 . S
C133 H161 0.930 . S
N134 C133 1.373 . S
N134 C136 1.340 . S
N135 C132 1.368 . S
N135 C136 1.321 . S
N135 Co138 2.135 . S
C136 N134 1.340 . S
C136 N135 1.321 . S
C136 H160 0.930 . S
H137 C132 0.931 . S
Co138 N135 2.135 . S
Co138 N141 2.121 1_565 S
Co138 O146 2.055 . S
Co138 O149 2.039 . S
Co138 N152 2.140 . S
C139 O140 1.227 . S
C139 O149 1.265 . S
O140 C139 1.227 . S
N141 Co138 2.121 1_545 S
N141 C143 1.375 . S
N141 C144 1.313 . S
C142 C143 1.338 . S
C142 N145 1.377 . S
C142 H162 0.930 . S
C143 N141 1.375 . S
C143 C142 1.338 . S
C143 H147 0.931 . S
C144 N141 1.313 . S
C144 N145 1.344 . S
C144 H148 0.930 . S
N145 C142 1.377 . S
N145 C144 1.344 . S
O146 Co138 2.055 . S
O146 C150 1.253 . S
H147 C143 0.931 . S
H148 C144 0.930 . S
O149 Co138 2.039 . S
O149 C139 1.265 . S
C150 O146 1.253 . S
C150 O151 1.227 . S
O151 C150 1.227 . S
N152 Co138 2.140 . S
N152 C155 1.346 . S
N152 C156 1.345 1_565 S
C153 C154 1.387 1_545 S
C153 C157 1.391 . S
C154 C153 1.387 1_565 S
C154 C155 1.369 . S
C154 H163 0.929 . S
C155 N152 1.346 . S
C155 C154 1.369 . S
C155 H158 0.928 . S
C156 N152 1.345 1_545 S
C156 C157 1.371 . S
C156 H159 0.931 . S
C157 C153 1.391 . S
C157 C156 1.371 . S
C157 H164 0.930 . S
H158 C155 0.928 . S
H159 C156 0.931 . S
H160 C136 0.930 . S
H161 C133 0.930 . S
H162 C142 0.930 . S
H163 C154 0.929 . S
H164 C157 0.930 . S
C165 C166 1.351 . S
C165 N168 1.368 . S
C165 H170 0.931 . S
C166 C165 1.351 . S
C166 N167 1.373 . S
C166 H194 0.930 . S
N167 C166 1.373 . S
N167 C169 1.340 . S
N168 C165 1.368 . S
N168 C169 1.321 . S
N168 Co171 2.135 . S
C169 N167 1.340 . S
C169 N168 1.321 . S
C169 H193 0.930 . S
H170 C165 0.931 . S
Co171 N168 2.135 . S
Co171 N174 2.121 . S
Co171 O179 2.055 . S
Co171 O182 2.039 . S
Co171 N185 2.140 . S
C172 O173 1.227 . S
C172 O182 1.265 . S
O173 C172 1.227 . S
N174 Co171 2.121 . S
N174 C176 1.375 . S
N174 C177 1.313 . S
C175 C176 1.338 . S
C175 N178 1.377 . S
C175 H195 0.930 . S
C176 N174 1.375 . S
C176 C175 1.338 . S
C176 H180 0.931 . S
C177 N174 1.313 . S
C177 N178 1.344 . S
C177 H181 0.930 . S
N178 C175 1.377 . S
N178 C177 1.344 . S
O179 Co171 2.055 . S
O179 C183 1.253 . S
H180 C176 0.931 . S
H181 C177 0.930 . S
O182 Co171 2.039 . S
O182 C172 1.265 . S
C183 O179 1.253 . S
C183 O184 1.227 . S
O184 C183 1.227 . S
N185 Co171 2.140 . S
N185 C188 1.346 . S
N185 C189 1.345 . S
C186 C187 1.387 . S
C186 C190 1.391 . S
C187 C186 1.387 . S
C187 C188 1.369 . S
C187 H196 0.929 . S
C188 N185 1.346 . S
C188 C187 1.369 . S
C188 H191 0.928 . S
C189 N185 1.345 . S
C189 C190 1.371 . S
C189 H192 0.931 . S
C190 C186 1.391 . S
C190 C189 1.371 . S
C190 H197 0.930 . S
H191 C188 0.928 . S
H192 C189 0.931 . S
H193 C169 0.930 . S
H194 C166 0.930 . S
H195 C175 0.930 . S
H196 C187 0.929 . S
H197 C190 0.930 . S
C198 C199 1.351 . S
C198 N201 1.368 . S
C198 H203 0.931 . S
C199 C198 1.351 . S
C199 N200 1.373 . S
C199 H227 0.930 . S
N200 C199 1.373 . S
N200 C202 1.340 . S
N201 C198 1.368 . S
N201 C202 1.321 . S
N201 Co204 2.135 . S
C202 N200 1.340 . S
C202 N201 1.321 . S
C202 H226 0.930 . S
H203 C198 0.931 . S
Co204 N201 2.135 . S
Co204 N207 2.121 . S
Co204 O212 2.055 . S
Co204 O215 2.039 . S
Co204 N218 2.140 . S
C205 O206 1.227 . S
C205 O215 1.265 . S
O206 C205 1.227 . S
N207 Co204 2.121 . S
N207 C209 1.375 . S
N207 C210 1.313 . S
C208 C209 1.338 . S
C208 N211 1.377 . S
C208 H228 0.930 . S
C209 N207 1.375 . S
C209 C208 1.338 . S
C209 H213 0.931 . S
C210 N207 1.313 . S
C210 N211 1.344 . S
C210 H214 0.930 . S
N211 C208 1.377 . S
N211 C210 1.344 . S
O212 Co204 2.055 . S
O212 C216 1.253 . S
H213 C209 0.931 . S
H214 C210 0.930 . S
O215 Co204 2.039 . S
O215 C205 1.265 . S
C216 O212 1.253 . S
C216 O217 1.227 . S
O217 C216 1.227 . S
N218 Co204 2.140 . S
N218 C221 1.346 . S
N218 C222 1.345 . S
C219 C220 1.387 . S
C219 C223 1.391 . S
C220 C219 1.387 . S
C220 C221 1.369 . S
C220 H229 0.929 . S
C221 N218 1.346 . S
C221 C220 1.369 . S
C221 H224 0.928 . S
C222 N218 1.345 . S
C222 C223 1.371 . S
C222 H225 0.931 . S
C223 C219 1.391 . S
C223 C222 1.371 . S
C223 H230 0.930 . S
H224 C221 0.928 . S
H225 C222 0.931 . S
H226 C202 0.930 . S
H227 C199 0.930 . S
H228 C208 0.930 . S
H229 C220 0.929 . S
H230 C223 0.930 . S
C231 C232 1.351 . S
C231 N234 1.368 . S
C231 H236 0.931 . S
C232 C231 1.351 . S
C232 N233 1.373 . S
C232 H260 0.930 . S
N233 C232 1.373 . S
N233 C235 1.340 . S
N234 C231 1.368 . S
N234 C235 1.321 . S
N234 Co237 2.135 . S
C235 N233 1.340 . S
C235 N234 1.321 . S
C235 H259 0.930 . S
H236 C231 0.931 . S
Co237 N234 2.135 . S
Co237 N240 2.121 1_655 S
Co237 O245 2.055 . S
Co237 O248 2.039 . S
Co237 N251 2.140 . S
C238 O239 1.227 . S
C238 O248 1.265 . S
O239 C238 1.227 . S
N240 Co237 2.121 1_455 S
N240 C242 1.375 . S
N240 C243 1.313 . S
C241 C242 1.338 . S
C241 N244 1.377 . S
C241 H261 0.930 . S
C242 N240 1.375 . S
C242 C241 1.338 . S
C242 H246 0.931 . S
C243 N240 1.313 . S
C243 N244 1.344 . S
C243 H247 0.930 . S
N244 C241 1.377 . S
N244 C243 1.344 . S
O245 Co237 2.055 . S
O245 C249 1.253 . S
H246 C242 0.931 . S
H247 C243 0.930 . S
O248 Co237 2.039 . S
O248 C238 1.265 . S
C249 O245 1.253 . S
C249 O250 1.227 . S
O250 C249 1.227 . S
N251 Co237 2.140 . S
N251 C254 1.346 . S
N251 C255 1.345 1_655 S
C252 C253 1.387 1_455 S
C252 C256 1.391 . S
C253 C252 1.387 1_655 S
C253 C254 1.369 . S
C253 H262 0.929 . S
C254 N251 1.346 . S
C254 C253 1.369 . S
C254 H257 0.928 . S
C255 N251 1.345 1_455 S
C255 C256 1.371 . S
C255 H258 0.931 . S
C256 C252 1.391 . S
C256 C255 1.371 . S
C256 H263 0.930 . S
H257 C254 0.928 . S
H258 C255 0.931 . S
H259 C235 0.930 . S
H260 C232 0.930 . S
H261 C241 0.930 . S
H262 C253 0.929 . S
H263 C256 0.930 . S
C264 C265 1.351 . S
C264 N267 1.368 . S
C264 H269 0.931 1_556 S
C265 C264 1.351 . S
C265 N266 1.373 . S
C265 H293 0.930 1_556 S
N266 C265 1.373 . S
N266 C268 1.340 . S
N267 C264 1.368 . S
N267 C268 1.321 . S
N267 Co270 2.135 . S
C268 N266 1.340 . S
C268 N267 1.321 . S
C268 H292 0.930 . S
H269 C264 0.931 1_554 S
Co270 N267 2.135 . S
Co270 N273 2.121 1_565 S
Co270 O278 2.055 . S
Co270 O281 2.039 . S
Co270 N284 2.140 . S
C271 O272 1.227 . S
C271 O281 1.265 . S
O272 C271 1.227 . S
N273 Co270 2.121 1_545 S
N273 C275 1.375 . S
N273 C276 1.313 . S
C274 C275 1.338 . S
C274 N277 1.377 . S
C274 H294 0.930 . S
C275 N273 1.375 . S
C275 C274 1.338 . S
C275 H279 0.931 . S
C276 N273 1.313 . S
C276 N277 1.344 . S
C276 H280 0.930 . S
N277 C274 1.377 . S
N277 C276 1.344 . S
O278 Co270 2.055 . S
O278 C282 1.253 . S
H279 C275 0.931 . S
H280 C276 0.930 . S
O281 Co270 2.039 . S
O281 C271 1.265 . S
C282 O278 1.253 . S
C282 O283 1.228 . S
O283 C282 1.228 . S
N284 Co270 2.140 . S
N284 C287 1.346 . S
N284 C288 1.345 1_565 S
C285 C286 1.387 1_545 S
C285 C289 1.391 . S
C286 C285 1.387 1_565 S
C286 C287 1.369 . S
C286 H295 0.929 . S
C287 N284 1.346 . S
C287 C286 1.369 . S
C287 H290 0.928 . S
C288 N284 1.345 1_545 S
C288 C289 1.371 . S
C288 H291 0.931 . S
C289 C285 1.391 . S
C289 C288 1.371 . S
C289 H296 0.930 . S
H290 C287 0.928 . S
H291 C288 0.931 . S
H292 C268 0.930 . S
H293 C265 0.930 1_554 S
H294 C274 0.930 . S
H295 C286 0.929 . S
H296 C289 0.930 . S
C297 C298 1.351 . S
C297 N300 1.368 . S
C297 H302 0.931 1_556 S
C298 C297 1.351 . S
C298 N299 1.373 . S
C298 H326 0.930 1_556 S
N299 C298 1.373 . S
N299 C301 1.340 . S
N300 C297 1.368 . S
N300 C301 1.321 . S
N300 Co303 2.135 . S
C301 N299 1.340 . S
C301 N300 1.321 . S
C301 H325 0.930 . S
H302 C297 0.931 1_554 S
Co303 N300 2.135 . S
Co303 N306 2.121 . S
Co303 O311 2.055 . S
Co303 O314 2.039 . S
Co303 N317 2.140 . S
C304 O305 1.227 . S
C304 O314 1.265 . S
O305 C304 1.227 . S
N306 Co303 2.121 . S
N306 C308 1.375 . S
N306 C309 1.313 . S
C307 C308 1.338 . S
C307 N310 1.377 . S
C307 H327 0.930 . S
C308 N306 1.375 . S
C308 C307 1.338 . S
C308 H312 0.931 . S
C309 N306 1.313 . S
C309 N310 1.344 . S
C309 H313 0.930 . S
N310 C307 1.377 . S
N310 C309 1.344 . S
O311 Co303 2.055 . S
O311 C315 1.253 . S
H312 C308 0.931 . S
H313 C309 0.930 . S
O314 Co303 2.039 . S
O314 C304 1.265 . S
C315 O311 1.253 . S
C315 O316 1.228 . S
O316 C315 1.228 . S
N317 Co303 2.140 . S
N317 C320 1.346 . S
N317 C321 1.345 . S
C318 C319 1.387 . S
C318 C322 1.391 . S
C319 C318 1.387 . S
C319 C320 1.369 . S
C319 H328 0.929 . S
C320 N317 1.346 . S
C320 C319 1.369 . S
C320 H323 0.928 . S
C321 N317 1.345 . S
C321 C322 1.371 . S
C321 H324 0.931 . S
C322 C318 1.391 . S
C322 C321 1.371 . S
C322 H329 0.930 . S
H323 C320 0.928 . S
H324 C321 0.931 . S
H325 C301 0.930 . S
H326 C298 0.930 1_554 S
H327 C307 0.930 . S
H328 C319 0.929 . S
H329 C322 0.930 . S
C330 C331 1.351 . S
C330 N333 1.368 . S
C330 H335 0.931 1_556 S
C331 C330 1.351 . S
C331 N332 1.373 . S
C331 H359 0.930 1_556 S
N332 C331 1.373 . S
N332 C334 1.340 . S
N333 C330 1.368 . S
N333 C334 1.321 . S
N333 Co336 2.135 . S
C334 N332 1.340 . S
C334 N333 1.321 . S
C334 H358 0.930 . S
H335 C330 0.931 1_554 S
Co336 N333 2.135 . S
Co336 N339 2.121 . S
Co336 O344 2.055 . S
Co336 O347 2.039 . S
Co336 N350 2.140 . S
C337 O338 1.227 . S
C337 O347 1.265 . S
O338 C337 1.227 . S
N339 Co336 2.121 . S
N339 C341 1.375 . S
N339 C342 1.313 . S
C340 C341 1.338 . S
C340 N343 1.377 . S
C340 H360 0.930 . S
C341 N339 1.375 . S
C341 C340 1.338 . S
C341 H345 0.931 . S
C342 N339 1.313 . S
C342 N343 1.344 . S
C342 H346 0.930 . S
N343 C340 1.377 . S
N343 C342 1.344 . S
O344 Co336 2.055 . S
O344 C348 1.253 . S
H345 C341 0.931 . S
H346 C342 0.930 . S
O347 Co336 2.039 . S
O347 C337 1.265 . S
C348 O344 1.253 . S
C348 O349 1.228 . S
O349 C348 1.228 . S
N350 Co336 2.140 . S
N350 C353 1.346 . S
N350 C354 1.345 . S
C351 C352 1.387 . S
C351 C355 1.391 . S
C352 C351 1.387 . S
C352 C353 1.369 . S
C352 H361 0.929 . S
C353 N350 1.346 . S
C353 C352 1.369 . S
C353 H356 0.928 . S
C354 N350 1.345 . S
C354 C355 1.371 . S
C354 H357 0.931 . S
C355 C351 1.391 . S
C355 C354 1.371 . S
C355 H362 0.930 . S
H356 C353 0.928 . S
H357 C354 0.931 . S
H358 C334 0.930 . S
H359 C331 0.930 1_554 S
H360 C340 0.930 . S
H361 C352 0.929 . S
H362 C355 0.930 . S
C363 C364 1.351 . S
C363 N366 1.368 . S
C363 H368 0.931 1_556 S
C364 C363 1.351 . S
C364 N365 1.373 . S
C364 H392 0.930 1_556 S
N365 C364 1.373 . S
N365 C367 1.340 . S
N366 C363 1.368 . S
N366 C367 1.321 . S
N366 Co369 2.135 . S
C367 N365 1.340 . S
C367 N366 1.321 . S
C367 H391 0.930 . S
H368 C363 0.931 1_554 S
Co369 N366 2.135 . S
Co369 N372 2.121 1_655 S
Co369 O377 2.055 . S
Co369 O380 2.039 . S
Co369 N383 2.140 . S
C370 O371 1.227 . S
C370 O380 1.265 . S
O371 C370 1.227 . S
N372 Co369 2.121 1_455 S
N372 C374 1.375 . S
N372 C375 1.313 . S
C373 C374 1.338 . S
C373 N376 1.377 . S
C373 H393 0.930 . S
C374 N372 1.375 . S
C374 C373 1.338 . S
C374 H378 0.931 . S
C375 N372 1.313 . S
C375 N376 1.344 . S
C375 H379 0.930 . S
N376 C373 1.377 . S
N376 C375 1.344 . S
O377 Co369 2.055 . S
O377 C381 1.253 . S
H378 C374 0.931 . S
H379 C375 0.930 . S
O380 Co369 2.039 . S
O380 C370 1.265 . S
C381 O377 1.253 . S
C381 O382 1.228 . S
O382 C381 1.228 . S
N383 Co369 2.140 . S
N383 C386 1.346 . S
N383 C387 1.345 1_655 S
C384 C385 1.387 1_455 S
C384 C388 1.391 . S
C385 C384 1.387 1_655 S
C385 C386 1.369 . S
C385 H394 0.929 . S
C386 N383 1.346 . S
C386 C385 1.369 . S
C386 H389 0.928 . S
C387 N383 1.345 1_455 S
C387 C388 1.371 . S
C387 H390 0.931 . S
C388 C384 1.391 . S
C388 C387 1.371 . S
C388 H395 0.930 . S
H389 C386 0.928 . S
H390 C387 0.931 . S
H391 C367 0.930 . S
H392 C364 0.930 1_554 S
H393 C373 0.930 . S
H394 C385 0.929 . S
H395 C388 0.930 . S
C396 C397 1.351 . S
C396 N399 1.368 . S
C396 H401 0.931 . S
C397 C396 1.351 . S
C397 N398 1.373 . S
C397 H425 0.930 . S
N398 C397 1.373 . S
N398 C400 1.340 . S
N399 C396 1.368 . S
N399 C400 1.321 . S
N399 Co402 2.135 . S
C400 N398 1.340 . S
C400 N399 1.321 . S
C400 H424 0.930 . S
H401 C396 0.931 . S
Co402 N399 2.135 . S
Co402 N405 2.121 1_545 S
Co402 O410 2.055 . S
Co402 O413 2.039 . S
Co402 N416 2.140 . S
C403 O404 1.227 . S
C403 O413 1.265 . S
O404 C403 1.227 . S
N405 Co402 2.121 1_565 S
N405 C407 1.375 . S
N405 C408 1.313 . S
C406 C407 1.338 . S
C406 N409 1.377 . S
C406 H426 0.930 . S
C407 N405 1.375 . S
C407 C406 1.338 . S
C407 H411 0.931 . S
C408 N405 1.313 . S
C408 N409 1.344 . S
C408 H412 0.930 . S
N409 C406 1.377 . S
N409 C408 1.344 . S
O410 Co402 2.055 . S
O410 C414 1.253 . S
H411 C407 0.931 . S
H412 C408 0.930 . S
O413 Co402 2.039 . S
O413 C403 1.265 . S
C414 O410 1.253 . S
C414 O415 1.227 . S
O415 C414 1.227 . S
N416 Co402 2.140 . S
N416 C419 1.346 . S
N416 C420 1.345 1_545 S
C417 C418 1.387 1_565 S
C417 C421 1.391 . S
C418 C417 1.387 1_545 S
C418 C419 1.369 . S
C418 H427 0.929 . S
C419 N416 1.346 . S
C419 C418 1.369 . S
C419 H422 0.928 . S
C420 N416 1.345 1_565 S
C420 C421 1.371 . S
C420 H423 0.931 . S
C421 C417 1.391 . S
C421 C420 1.371 . S
C421 H428 0.930 . S
H422 C419 0.928 . S
H423 C420 0.931 . S
H424 C400 0.930 . S
H425 C397 0.930 . S
H426 C406 0.930 . S
H427 C418 0.929 . S
H428 C421 0.930 . S
C429 C430 1.351 . S
C429 N432 1.368 . S
C429 H434 0.931 . S
C430 C429 1.351 . S
C430 N431 1.373 . S
C430 H458 0.930 . S
N431 C430 1.373 . S
N431 C433 1.340 . S
N432 C429 1.368 . S
N432 C433 1.321 . S
N432 Co435 2.135 . S
C433 N431 1.340 . S
C433 N432 1.321 . S
C433 H457 0.930 . S
H434 C429 0.931 . S
Co435 N432 2.135 . S
Co435 N438 2.121 . S
Co435 O443 2.055 . S
Co435 O446 2.039 . S
Co435 N449 2.140 . S
C436 O437 1.227 . S
C436 O446 1.265 . S
O437 C436 1.227 . S
N438 Co435 2.121 . S
N438 C440 1.375 . S
N438 C441 1.313 . S
C439 C440 1.338 . S
C439 N442 1.377 . S
C439 H459 0.930 . S
C440 N438 1.375 . S
C440 C439 1.338 . S
C440 H444 0.931 . S
C441 N438 1.313 . S
C441 N442 1.344 . S
C441 H445 0.930 . S
N442 C439 1.377 . S
N442 C441 1.344 . S
O443 Co435 2.055 . S
O443 C447 1.253 . S
H444 C440 0.931 . S
H445 C441 0.930 . S
O446 Co435 2.039 . S
O446 C436 1.265 . S
C447 O443 1.253 . S
C447 O448 1.227 . S
O448 C447 1.227 . S
N449 Co435 2.140 . S
N449 C452 1.346 . S
N449 C453 1.345 . S
C450 C451 1.387 . S
C450 C454 1.391 . S
C451 C450 1.387 . S
C451 C452 1.369 . S
C451 H460 0.929 . S
C452 N449 1.346 . S
C452 C451 1.369 . S
C452 H455 0.928 . S
C453 N449 1.345 . S
C453 C454 1.371 . S
C453 H456 0.931 . S
C454 C450 1.391 . S
C454 C453 1.371 . S
C454 H461 0.930 . S
H455 C452 0.928 . S
H456 C453 0.931 . S
H457 C433 0.930 . S
H458 C430 0.930 . S
H459 C439 0.930 . S
H460 C451 0.929 . S
H461 C454 0.930 . S
C462 C463 1.351 . S
C462 N465 1.368 . S
C462 H467 0.931 . S
C463 C462 1.351 . S
C463 N464 1.373 . S
C463 H491 0.930 . S
N464 C463 1.373 . S
N464 C466 1.340 . S
N465 C462 1.368 . S
N465 C466 1.321 . S
N465 Co468 2.135 . S
C466 N464 1.340 . S
C466 N465 1.321 . S
C466 H490 0.930 . S
H467 C462 0.931 . S
Co468 N465 2.135 . S
Co468 N471 2.121 . S
Co468 O476 2.055 . S
Co468 O479 2.039 . S
Co468 N482 2.140 . S
C469 O470 1.227 . S
C469 O479 1.265 . S
O470 C469 1.227 . S
N471 Co468 2.121 . S
N471 C473 1.375 . S
N471 C474 1.313 . S
C472 C473 1.338 . S
C472 N475 1.377 . S
C472 H492 0.930 . S
C473 N471 1.375 . S
C473 C472 1.338 . S
C473 H477 0.931 . S
C474 N471 1.313 . S
C474 N475 1.344 . S
C474 H478 0.930 . S
N475 C472 1.377 . S
N475 C474 1.344 . S
O476 Co468 2.055 . S
O476 C480 1.253 . S
H477 C473 0.931 . S
H478 C474 0.930 . S
O479 Co468 2.039 . S
O479 C469 1.265 . S
C480 O476 1.253 . S
C480 O481 1.227 . S
O481 C480 1.227 . S
N482 Co468 2.140 . S
N482 C485 1.346 . S
N482 C486 1.345 . S
C483 C484 1.387 . S
C483 C487 1.391 . S
C484 C483 1.387 . S
C484 C485 1.369 . S
C484 H493 0.929 . S
C485 N482 1.346 . S
C485 C484 1.369 . S
C485 H488 0.928 . S
C486 N482 1.345 . S
C486 C487 1.371 . S
C486 H489 0.931 . S
C487 C483 1.391 . S
C487 C486 1.371 . S
C487 H494 0.930 . S
H488 C485 0.928 . S
H489 C486 0.931 . S
H490 C466 0.930 . S
H491 C463 0.930 . S
H492 C472 0.930 . S
H493 C484 0.929 . S
H494 C487 0.930 . S
C495 C496 1.351 . S
C495 N498 1.368 . S
C495 H500 0.931 . S
C496 C495 1.351 . S
C496 N497 1.373 . S
C496 H524 0.930 . S
N497 C496 1.373 . S
N497 C499 1.340 . S
N498 C495 1.368 . S
N498 C499 1.321 . S
N498 Co501 2.135 . S
C499 N497 1.340 . S
C499 N498 1.321 . S
C499 H523 0.930 . S
H500 C495 0.931 . S
Co501 N498 2.135 . S
Co501 N504 2.121 1_455 S
Co501 O509 2.055 . S
Co501 O512 2.039 . S
Co501 N515 2.140 . S
C502 O503 1.227 . S
C502 O512 1.265 . S
O503 C502 1.227 . S
N504 Co501 2.121 1_655 S
N504 C506 1.375 . S
N504 C507 1.313 . S
C505 C506 1.338 . S
C505 N508 1.377 . S
C505 H525 0.930 . S
C506 N504 1.375 . S
C506 C505 1.338 . S
C506 H510 0.931 . S
C507 N504 1.313 . S
C507 N508 1.344 . S
C507 H511 0.930 . S
N508 C505 1.377 . S
N508 C507 1.344 . S
O509 Co501 2.055 . S
O509 C513 1.253 . S
H510 C506 0.931 . S
H511 C507 0.930 . S
O512 Co501 2.039 . S
O512 C502 1.265 . S
C513 O509 1.253 . S
C513 O514 1.227 . S
O514 C513 1.227 . S
N515 Co501 2.140 . S
N515 C518 1.346 . S
N515 C519 1.345 1_455 S
C516 C517 1.387 1_655 S
C516 C520 1.391 . S
C517 C516 1.387 1_455 S
C517 C518 1.369 . S
C517 H526 0.929 . S
C518 N515 1.346 . S
C518 C517 1.369 . S
C518 H521 0.928 . S
C519 N515 1.345 1_655 S
C519 C520 1.371 . S
C519 H522 0.931 . S
C520 C516 1.391 . S
C520 C519 1.371 . S
C520 H527 0.930 . S
H521 C518 0.928 . S
H522 C519 0.931 . S
H523 C499 0.930 . S
H524 C496 0.930 . S
H525 C505 0.930 . S
H526 C517 0.929 . S
H527 C520 0.930 . S
N13 C54 1.213 . S
C87 N46 1.212 . S
C120 N79 1.212 . S
N112 C21 1.213 . S
C252 N145 1.213 . S
C153 N178 1.212 . S
C186 N211 1.212 . S
N244 C219 1.213 . S
N277 C318 1.213 . S
N310 C351 1.212 . S
C384 N343 1.212 . S
C285 N376 1.213 . S
C516 N409 1.213 . S
C417 N442 1.212 . S
N475 C450 1.212 . S
N508 C483 1.213 . S
N2 N68 2.822 . S
N35 N101 2.823 . S
N200 N134 2.823 . S
N233 N167 2.822 . S
N332 N266 2.822 . S
N299 N365 2.823 . S
N398 N464 2.823 . S
N431 N497 2.822 . S
C18 C282 2.575 1_544 S
C51 C315 2.575 1_554 S
C84 C348 2.574 1_654 S
C381 C117 2.575 1_646 S
C414 C150 2.575 1_645 S
C183 C447 2.574 1_545 S
C216 C480 2.575 . S
C513 C249 2.575 1_455 S
C172 C7 1.650 . S
C205 C40 1.650 . S
C73 C238 1.650 . S
C139 C106 1.650 . S
C271 C436 1.650 . S
C469 C304 1.650 . S
C502 C337 1.650 . S
C370 C403 1.650 . S
