# Generated by pormake.
# Topology ske, (6)-cn, num edge types: 1
# Building blocks:
#     Node 0, Type 0, BuildingBlock: BETDIP_clean_sbu_0, # of connection points: 6
#     Node 1, Type 0, BuildingBlock: BETDIP_clean_sbu_0, # of connection points: 6
#     Node 2, Type 0, BuildingBlock: BETDIP_clean_sbu_0, # of connection points: 6
#     Node 3, Type 0, BuildingBlock: BETDIP_clean_sbu_0, # of connection points: 6
#     Node 4, Type 0, BuildingBlock: BETDIP_clean_sbu_0, # of connection points: 6
#     Node 5, Type 0, BuildingBlock: BETDIP_clean_sbu_0, # of connection points: 6
#     Node 6, Type 0, BuildingBlock: BETDIP_clean_sbu_0, # of connection points: 6
#     Node 7, Type 0, BuildingBlock: BETDIP_clean_sbu_0, # of connection points: 6
#     Edge 8, Type (0, 0), BuildingBlock: UVAHIK_clean_linker_0, # of connection points: 2
#     Edge 9, Type (0, 0), BuildingBlock: UVAHIK_clean_linker_0, # of connection points: 2
#     Edge 10, Type (0, 0), BuildingBlock: UVAHIK_clean_linker_0, # of connection points: 2
#     Edge 11, Type (0, 0), BuildingBlock: UVAHIK_clean_linker_0, # of connection points: 2
#     Edge 12, Type (0, 0), BuildingBlock: UVAHIK_clean_linker_0, # of connection points: 2
#     Edge 13, Type (0, 0), BuildingBlock: UVAHIK_clean_linker_0, # of connection points: 2
#     Edge 14, Type (0, 0), BuildingBlock: UVAHIK_clean_linker_0, # of connection points: 2
#     Edge 15, Type (0, 0), BuildingBlock: UVAHIK_clean_linker_0, # of connection points: 2
#     Edge 16, Type (0, 0), BuildingBlock: UVAHIK_clean_linker_0, # of connection points: 2
#     Edge 17, Type (0, 0), BuildingBlock: UVAHIK_clean_linker_0, # of connection points: 2
#     Edge 18, Type (0, 0), BuildingBlock: UVAHIK_clean_linker_0, # of connection points: 2
#     Edge 19, Type (0, 0), BuildingBlock: UVAHIK_clean_linker_0, # of connection points: 2
#     Edge 20, Type (0, 0), BuildingBlock: UVAHIK_clean_linker_0, # of connection points: 2
#     Edge 21, Type (0, 0), BuildingBlock: UVAHIK_clean_linker_0, # of connection points: 2
#     Edge 22, Type (0, 0), BuildingBlock: UVAHIK_clean_linker_0, # of connection points: 2
#     Edge 23, Type (0, 0), BuildingBlock: UVAHIK_clean_linker_0, # of connection points: 2
#     Edge 24, Type (0, 0), BuildingBlock: UVAHIK_clean_linker_0, # of connection points: 2
#     Edge 25, Type (0, 0), BuildingBlock: UVAHIK_clean_linker_0, # of connection points: 2
#     Edge 26, Type (0, 0), BuildingBlock: UVAHIK_clean_linker_0, # of connection points: 2
#     Edge 27, Type (0, 0), BuildingBlock: UVAHIK_clean_linker_0, # of connection points: 2
#     Edge 28, Type (0, 0), BuildingBlock: UVAHIK_clean_linker_0, # of connection points: 2
#     Edge 29, Type (0, 0), BuildingBlock: UVAHIK_clean_linker_0, # of connection points: 2
#     Edge 30, Type (0, 0), BuildingBlock: UVAHIK_clean_linker_0, # of connection points: 2
#     Edge 31, Type (0, 0), BuildingBlock: UVAHIK_clean_linker_0, # of connection points: 2
# Relax obj value: 0.221
# Max RMSD: 0.211
# Mean RMSD: 0.205
data_MOF--net-ske--node1-BETDIP_clean_sbu_0--edge1-UVAHIK_clean_linker_0
_symmetry_space_group_name_H-M    P1
_symmetry_Int_Tables_number       1
_symmetry_cell_setting            triclinic
loop_
_symmetry_equiv_pos_as_xyz
'x, y, z'
_cell_length_a     118.65214
_cell_length_b     37.584255
_cell_length_c     19.921071
_cell_angle_alpha  89.930245
_cell_angle_beta   89.958283
_cell_angle_gamma 90.006225
loop_
_atom_site_label
_atom_site_type_symbol
_atom_site_fract_x
_atom_site_fract_y
_atom_site_fract_z
_atom_type_partial_charge
Tb0 Tb 0.15642 0.26638 0.54897 0.0
Tb1 Tb 0.13195 0.24704 0.55759 0.0
C2 C 0.17568 0.29471 0.55832 0.0
C3 C 0.18638 0.29142 0.59609 0.0
C4 C 0.19279 0.32208 0.60839 0.0
C5 C 0.20351 0.31961 0.63736 0.0
C6 C 0.20812 0.2863 0.65461 0.0
C7 C 0.20154 0.25562 0.64382 0.0
C8 C 0.19077 0.25815 0.61498 0.0
C9 C 0.1522 0.19765 0.53452 0.0
C10 C 0.14544 0.24987 0.69096 0.0
C11 C 0.11253 0.21934 0.5519 0.0
C12 C 0.10089 0.22625 0.52903 0.0
C13 C 0.09336 0.19761 0.52463 0.0
C14 C 0.0819 0.20344 0.51225 0.0
C15 C 0.07766 0.23818 0.50391 0.0
C16 C 0.08535 0.26683 0.50604 0.0
C17 C 0.09684 0.26092 0.51859 0.0
C18 C 0.13628 0.31645 0.56643 0.0
C19 C 0.14327 0.2606 0.41525 0.0
O20 O 0.1668 0.30627 0.59071 0.0
O21 O 0.17322 0.26879 0.5172 0.0
O22 O 0.14722 0.21847 0.57409 0.0
O23 O 0.16061 0.21423 0.50781 0.0
O24 O 0.15333 0.26745 0.65772 0.0
O25 O 0.13733 0.23297 0.65859 0.0
O26 O 0.12033 0.21414 0.50653 0.0
O27 O 0.11614 0.23897 0.60144 0.0
O28 O 0.14114 0.29417 0.52982 0.0
O29 O 0.12776 0.30075 0.59379 0.0
O30 O 0.13543 0.24301 0.44927 0.0
O31 O 0.15123 0.27863 0.44687 0.0
H32 H 0.18962 0.348 0.59377 0.0
H33 H 0.20835 0.34378 0.64408 0.0
H34 H 0.20473 0.22958 0.65731 0.0
H35 H 0.186 0.23404 0.60613 0.0
H36 H 0.09628 0.17067 0.53325 0.0
H37 H 0.07629 0.18072 0.51202 0.0
H38 H 0.08246 0.29389 0.49888 0.0
H39 H 0.1025 0.28347 0.52199 0.0
Tb40 Tb 0.87686 0.2472 0.54679 0.0
Tb41 Tb 0.90134 0.26554 0.55599 0.0
C42 C 0.8573 0.22081 0.55589 0.0
C43 C 0.84629 0.22659 0.59018 0.0
C44 C 0.84428 0.2144 0.65594 0.0
C45 C 0.83349 0.21712 0.68469 0.0
C46 C 0.82445 0.232 0.64837 0.0
C47 C 0.82656 0.2446 0.58301 0.0
C48 C 0.83729 0.24181 0.55433 0.0
C49 C 0.88138 0.31571 0.53118 0.0
C50 C 0.88775 0.26332 0.68894 0.0
C51 C 0.92085 0.29254 0.55036 0.0
C52 C 0.93254 0.28607 0.52735 0.0
C53 C 0.93923 0.31532 0.50926 0.0
C54 C 0.9508 0.31123 0.49788 0.0
C55 C 0.95599 0.27772 0.50446 0.0
C56 C 0.94915 0.24808 0.51947 0.0
C57 C 0.93755 0.25222 0.53097 0.0
C58 C 0.89675 0.19633 0.56642 0.0
C59 C 0.89021 0.25128 0.41353 0.0
O60 O 0.86591 0.20982 0.59146 0.0
O61 O 0.86027 0.24448 0.51118 0.0
O62 O 0.88619 0.2949 0.57151 0.0
O63 O 0.87298 0.29933 0.50425 0.0
O64 O 0.87987 0.24581 0.65562 0.0
O65 O 0.89589 0.2801 0.65659 0.0
O66 O 0.91305 0.29848 0.50534 0.0
O67 O 0.9172 0.27265 0.59956 0.0
O68 O 0.89202 0.21852 0.52896 0.0
O69 O 0.90527 0.21193 0.59379 0.0
O70 O 0.89804 0.26892 0.44734 0.0
O71 O 0.88219 0.2336 0.44553 0.0
H72 H 0.85097 0.20221 0.68488 0.0
H73 H 0.83224 0.20743 0.73535 0.0
H74 H 0.81981 0.25564 0.55292 0.0
H75 H 0.83847 0.25088 0.50315 0.0
H76 H 0.93557 0.34169 0.50637 0.0
H77 H 0.95573 0.33454 0.48519 0.0
H78 H 0.95285 0.22191 0.52532 0.0
H79 H 0.93259 0.22921 0.54517 0.0
Tb80 Tb 0.15648 0.74675 0.48603 0.0
Tb81 Tb 0.132 0.76597 0.47739 0.0
C82 C 0.17577 0.71864 0.47665 0.0
C83 C 0.18657 0.72186 0.43957 0.0
C84 C 0.19232 0.69082 0.42076 0.0
C85 C 0.2032 0.69264 0.39353 0.0
C86 C 0.20864 0.72562 0.38467 0.0
C87 C 0.20268 0.75684 0.40125 0.0
C88 C 0.19177 0.75499 0.42842 0.0
C89 C 0.1522 0.81538 0.50137 0.0
C90 C 0.14555 0.76361 0.3441 0.0
C91 C 0.11257 0.79348 0.4833 0.0
C92 C 0.10086 0.78698 0.50585 0.0
C93 C 0.09413 0.8162 0.52348 0.0
C94 C 0.08256 0.81204 0.53457 0.0
C95 C 0.07739 0.77848 0.52814 0.0
C96 C 0.08426 0.74888 0.51354 0.0
C97 C 0.09587 0.75309 0.50233 0.0
C98 C 0.13638 0.69661 0.46784 0.0
C99 C 0.14327 0.7521 0.61971 0.0
O100 O 0.16694 0.70713 0.44385 0.0
O101 O 0.17325 0.74434 0.51815 0.0
O102 O 0.14727 0.79469 0.46138 0.0
O103 O 0.1606 0.79876 0.52808 0.0
O104 O 0.15344 0.746 0.3772 0.0
O105 O 0.13743 0.78038 0.3766 0.0
O106 O 0.12035 0.79874 0.52871 0.0
O107 O 0.11621 0.77402 0.43356 0.0
O108 O 0.14121 0.7188 0.50475 0.0
O109 O 0.12787 0.71235 0.44055 0.0
O110 O 0.13544 0.76974 0.58578 0.0
O111 O 0.15125 0.73414 0.58796 0.0
H112 H 0.18851 0.66496 0.42889 0.0
H113 H 0.20739 0.66806 0.38017 0.0
H114 H 0.20659 0.78271 0.39566 0.0
H115 H 0.18755 0.77941 0.44257 0.0
H116 H 0.09778 0.8426 0.52629 0.0
H117 H 0.0776 0.83533 0.54695 0.0
H118 H 0.08059 0.72268 0.50781 0.0
H119 H 0.10086 0.7301 0.48847 0.0
Tb120 Tb 0.87689 0.76646 0.4837 0.0
Tb121 Tb 0.90141 0.74721 0.47516 0.0
C122 C 0.85763 0.79472 0.47448 0.0
C123 C 0.8468 0.79141 0.43783 0.0
C124 C 0.84105 0.8224 0.41865 0.0
C125 C 0.83016 0.82052 0.39178 0.0
C126 C 0.8247 0.78753 0.38367 0.0
C127 C 0.83066 0.75635 0.40065 0.0
C128 C 0.84158 0.75826 0.42745 0.0
C129 C 0.88115 0.69775 0.49824 0.0
C130 C 0.8879 0.7501 0.34179 0.0
C131 C 0.92083 0.71957 0.48087 0.0
C132 C 0.93248 0.72651 0.5036 0.0
C133 C 0.94001 0.69788 0.50822 0.0
C134 C 0.95147 0.70373 0.52048 0.0
C135 C 0.95571 0.73848 0.52847 0.0
C136 C 0.94803 0.76712 0.52611 0.0
C137 C 0.93653 0.7612 0.51369 0.0
C138 C 0.89703 0.81658 0.46616 0.0
C139 C 0.89007 0.76066 0.61741 0.0
O140 O 0.86645 0.806 0.44111 0.0
O141 O 0.86016 0.7692 0.51643 0.0
O142 O 0.88613 0.71865 0.45877 0.0
O143 O 0.87269 0.71419 0.52465 0.0
O144 O 0.88 0.76763 0.37495 0.0
O145 O 0.89601 0.7332 0.37422 0.0
O146 O 0.91304 0.71437 0.52635 0.0
O147 O 0.91721 0.73917 0.43124 0.0
O148 O 0.89217 0.79424 0.50273 0.0
O149 O 0.90557 0.80099 0.43899 0.0
O150 O 0.89791 0.74307 0.58347 0.0
O151 O 0.88212 0.77872 0.58569 0.0
H152 H 0.84488 0.84827 0.42619 0.0
H153 H 0.82596 0.84507 0.37809 0.0
H154 H 0.82674 0.73048 0.39564 0.0
H155 H 0.8458 0.73388 0.44191 0.0
H156 H 0.93708 0.67093 0.49987 0.0
H157 H 0.95708 0.68101 0.52089 0.0
H158 H 0.95092 0.7942 0.533 0.0
H159 H 0.93087 0.78374 0.51011 0.0
Tb160 Tb 0.65658 0.76584 0.05224 0.0
Tb161 Tb 0.63207 0.74708 0.06113 0.0
C162 C 0.67592 0.79362 0.06157 0.0
C163 C 0.68657 0.79056 0.09995 0.0
C164 C 0.69301 0.82125 0.1113 0.0
C165 C 0.70371 0.81892 0.14063 0.0
C166 C 0.70827 0.78573 0.15921 0.0
C167 C 0.70164 0.75504 0.14942 0.0
C168 C 0.6909 0.75742 0.12021 0.0
C169 C 0.65214 0.69737 0.03637 0.0
C170 C 0.64564 0.74898 0.19427 0.0
C171 C 0.61258 0.71988 0.05557 0.0
C172 C 0.60092 0.72691 0.03304 0.0
C173 C 0.59343 0.69823 0.02751 0.0
C174 C 0.58196 0.70405 1.01554 0.0
C175 C 0.57767 0.73881 1.00875 0.0
C176 C 0.58531 0.76753 1.01201 0.0
C177 C 0.59682 0.76164 0.02415 0.0
C178 C 0.63658 0.81638 0.07056 0.0
C179 C 0.64336 0.76074 0.91864 0.0
O180 O 0.66703 0.80585 0.09296 0.0
O181 O 0.67344 0.76726 0.0215 0.0
O182 O 0.64728 0.71802 0.07676 0.0
O183 O 0.66054 0.71392 1.00937 0.0
O184 O 0.65358 0.76643 0.16113 0.0
O185 O 0.63747 0.73248 0.16182 0.0
O186 O 0.62035 0.71458 1.01002 0.0
O187 O 0.61625 0.73938 0.10512 0.0
O188 O 0.64136 0.79409 0.03363 0.0
O189 O 0.62806 0.80078 0.09806 0.0
O190 O 0.63548 0.74334 0.95266 0.0
O191 O 0.6514 0.77845 0.95026 0.0
H192 H 0.6899 0.84705 0.09561 0.0
H193 H 0.70858 0.84308 0.14653 0.0
H194 H 0.70478 0.7291 0.16395 0.0
H195 H 0.68609 0.7333 0.11211 0.0
H196 H 0.59639 0.67124 0.03495 0.0
H197 H 0.57638 0.68125 1.01442 0.0
H198 H 0.58238 0.79463 1.00604 0.0
H199 H 0.60245 0.78422 0.02845 0.0
Tb200 Tb 0.37674 0.7469 0.0507 0.0
Tb201 Tb 0.40126 0.76545 0.05952 0.0
C202 C 0.35737 0.71931 0.06016 0.0
C203 C 0.34672 0.72241 0.09862 0.0
C204 C 0.3403 0.69171 0.11054 0.0
C205 C 0.32959 0.69405 0.13995 0.0
C206 C 0.32502 0.72726 0.15803 0.0
C207 C 0.33162 0.75797 0.14768 0.0
C208 C 0.34236 0.75557 0.11839 0.0
C209 C 0.38123 0.81534 0.03456 0.0
C210 C 0.38765 0.76355 0.19269 0.0
C211 C 0.42076 0.79251 0.0539 0.0
C212 C 0.43247 0.78608 0.0313 0.0
C213 C 0.4392 0.81538 1.01417 0.0
C214 C 0.45079 0.81128 1.00327 0.0
C215 C 0.45594 0.7777 1.00938 0.0
C216 C 0.44907 0.74801 0.02342 0.0
C217 C 0.43745 0.75217 0.03447 0.0
C218 C 0.39668 0.69618 0.06917 0.0
C219 C 0.39 0.7518 0.91705 0.0
O220 O 0.36624 0.70694 0.09146 0.0
O221 O 0.35988 0.7457 0.02008 0.0
O222 O 0.38606 0.79465 0.07508 0.0
O223 O 0.37284 0.79883 1.00754 0.0
O224 O 0.37971 0.74622 0.15957 0.0
O225 O 0.39586 0.77999 0.16022 0.0
O226 O 0.41298 0.79823 1.00861 0.0
O227 O 0.41709 0.77277 0.10325 0.0
O228 O 0.39193 0.71854 0.03218 0.0
O229 O 0.40521 0.71169 0.09662 0.0
O230 O 0.3979 0.76908 0.95097 0.0
O231 O 0.38192 0.73423 0.94878 0.0
H232 H 0.34343 0.66588 0.09524 0.0
H233 H 0.32475 0.66986 0.1463 0.0
H234 H 0.32846 0.78393 0.16181 0.0
H235 H 0.34714 0.77971 0.10985 0.0
H236 H 0.43557 0.8418 1.01166 0.0
H237 H 0.45575 0.83463 0.99133 0.0
H238 H 0.45274 0.72179 0.02888 0.0
H239 H 0.43245 0.72912 0.04797 0.0
Tb240 Tb 0.65629 0.24667 0.98389 0.0
Tb241 Tb 0.63179 0.26552 0.97551 0.0
C242 C 0.67564 0.21903 0.97388 0.0
C243 C 0.68645 0.22349 0.93718 0.0
C244 C 0.69189 0.19337 0.91106 0.0
C245 C 0.7027 0.19603 0.88313 0.0
C246 C 0.70838 0.22891 0.88097 0.0
C247 C 0.70277 0.25928 0.90544 0.0
C248 C 0.69192 0.25663 0.93309 0.0
C249 C 0.65197 0.31535 0.99835 0.0
C250 C 0.64526 0.26283 0.84203 0.0
C251 C 0.61233 0.29286 0.98135 0.0
C252 C 0.60062 0.28642 1.00405 0.0
C253 C 0.59391 0.3157 0.02141 0.0
C254 C 0.58233 0.3116 0.0325 0.0
C255 C 0.57716 0.27804 0.02635 0.0
C256 C 0.58402 0.24838 1.01207 0.0
C257 C 0.59563 0.25253 1.00085 0.0
C258 C 0.63626 0.19617 0.96653 0.0
C259 C 0.64311 0.25199 0.11769 0.0
O260 O 0.66687 0.20792 0.94 0.0
O261 O 0.67298 0.24372 1.01723 0.0
O262 O 0.64701 0.29444 0.9589 0.0
O263 O 0.66044 0.29892 0.02468 0.0
O264 O 0.65316 0.24532 0.87522 0.0
O265 O 0.63715 0.2797 0.87448 0.0
O266 O 0.62013 0.29835 0.02661 0.0
O267 O 0.61597 0.27323 0.93184 0.0
O268 O 0.64108 0.21853 1.00309 0.0
O269 O 0.62771 0.21172 0.93931 0.0
O270 O 0.63527 0.26955 0.0838 0.0
O271 O 0.65109 0.23405 0.08588 0.0
H272 H 0.6879 0.16748 0.91408 0.0
H273 H 0.70677 0.17201 0.86546 0.0
H274 H 0.7068 0.28512 0.9037 0.0
H275 H 0.68794 0.2804 0.95265 0.0
H276 H 0.59756 0.3421 0.02397 0.0
H277 H 0.57738 0.33493 0.04462 0.0
H278 H 0.58034 0.22217 1.00657 0.0
H279 H 0.60062 0.2295 0.98719 0.0
Tb280 Tb 0.37661 0.26609 0.98133 0.0
Tb281 Tb 0.40112 0.24719 0.97291 0.0
C282 C 0.35732 0.29419 0.972 0.0
C283 C 0.34653 0.29102 0.93494 0.0
C284 C 0.34075 0.32209 0.91663 0.0
C285 C 0.32988 0.32028 0.88942 0.0
C286 C 0.32448 0.28728 0.88007 0.0
C287 C 0.33048 0.25604 0.89611 0.0
C288 C 0.34138 0.25789 0.92327 0.0
C289 C 0.38093 0.19741 0.9959 0.0
C290 C 0.38764 0.2499 0.83945 0.0
C291 C 0.42058 0.21982 0.97862 0.0
C292 C 0.43223 0.22679 1.00143 0.0
C293 C 0.43973 0.19814 1.00664 0.0
C294 C 0.4512 0.20397 0.01892 0.0
C295 C 0.45546 0.23872 0.02633 0.0
C296 C 0.4478 0.26741 0.02341 0.0
C297 C 0.4363 0.26151 1.01096 0.0
C298 C 0.39667 0.31657 0.96414 0.0
C299 C 0.38976 0.26037 0.11514 0.0
O300 O 0.36616 0.30575 0.93919 0.0
O301 O 0.35984 0.26842 1.01347 0.0
O302 O 0.3859 0.21835 0.95641 0.0
O303 O 0.37247 0.21381 0.02232 0.0
O304 O 0.37971 0.26731 0.8726 0.0
O305 O 0.39577 0.23313 0.87191 0.0
O306 O 0.41279 0.21444 0.024 0.0
O307 O 0.41695 0.23947 0.92909 0.0
O308 O 0.39183 0.29413 1.00062 0.0
O309 O 0.40522 0.30106 0.93683 0.0
O310 O 0.39763 0.24294 0.08119 0.0
O311 O 0.38177 0.27832 0.08343 0.0
H312 H 0.34452 0.34795 0.92515 0.0
H313 H 0.32565 0.34488 0.87647 0.0
H314 H 0.32661 0.23016 0.89011 0.0
H315 H 0.34563 0.23344 0.93703 0.0
H316 H 0.43679 0.17117 0.99872 0.0
H317 H 0.45679 0.18121 0.01978 0.0
H318 H 0.45071 0.29449 0.02985 0.0
H319 H 0.43066 0.28407 1.00693 0.0
C320 C 0.22403 0.30907 0.72705 0.0
C321 C 0.21988 0.28368 0.68143 0.0
C322 C 0.2352 0.30763 0.7497 0.0
C323 C 0.26336 0.27149 0.70502 0.0
H324 H 0.27059 0.29509 0.88936 0.0
C325 C 0.30882 0.25885 0.81227 0.0
C326 C 0.3125 0.28565 0.85648 0.0
C327 C 0.29754 0.25727 0.79132 0.0
C328 C 0.26876 0.2888 0.83748 0.0
H329 H 0.22437 0.23671 0.62421 0.0
H330 H 0.24377 0.23386 0.66451 0.0
H331 H 0.25099 0.29451 0.85313 0.0
H332 H 0.30698 0.33148 0.91391 0.0
H333 H 0.2875 0.32924 0.87635 0.0
H334 H 0.28115 0.26602 0.68928 0.0
C335 C 0.23839 0.25515 0.68232 0.0
C336 C 0.25748 0.28844 0.81667 0.0
C337 C 0.2272 0.25652 0.65982 0.0
C338 C 0.30455 0.31075 0.87911 0.0
C339 C 0.2933 0.30915 0.85826 0.0
C340 C 0.27465 0.27188 0.72583 0.0
C341 C 0.24258 0.2808 0.72731 0.0
C342 C 0.25461 0.28001 0.75002 0.0
C343 C 0.2896 0.28236 0.81418 0.0
C344 C 0.27753 0.28079 0.79227 0.0
H345 H 0.21863 0.33017 0.74538 0.0
H346 H 0.23812 0.32806 0.7838 0.0
H347 H 0.26151 0.26533 0.65309 0.0
H348 H 0.31468 0.2392 0.79332 0.0
H349 H 0.29501 0.23605 0.75784 0.0
C350 C 0.72376 0.21138 0.79958 0.0
C351 C 0.72025 0.23117 0.85577 0.0
C352 C 0.73499 0.2124 0.77776 0.0
C353 C 0.7616 0.26488 0.79171 0.0
H354 H 0.77532 0.17781 0.7271 0.0
C355 C 0.80568 0.26258 0.66473 0.0
C356 C 0.81278 0.23329 0.67706 0.0
C357 C 0.79454 0.26293 0.68824 0.0
C358 C 0.77168 0.20234 0.74557 0.0
H359 H 0.72597 0.26745 0.93317 0.0
H360 H 0.74551 0.2691 0.89548 0.0
H361 H 0.75578 0.17731 0.76436 0.0
H362 H 0.81363 0.18147 0.72479 0.0
H363 H 0.79434 0.1824 0.76698 0.0
H364 H 0.77759 0.28972 0.77425 0.0
C365 C 0.73953 0.25323 0.86739 0.0
C366 C 0.76038 0.20216 0.76612 0.0
C367 C 0.72829 0.25229 0.88908 0.0
C368 C 0.80848 0.20464 0.71474 0.0
C369 C 0.79733 0.20497 0.73822 0.0
C370 C 0.77291 0.26505 0.77116 0.0
C371 C 0.74308 0.23313 0.81162 0.0
C372 C 0.75515 0.23343 0.78944 0.0
C373 C 0.79016 0.23398 0.72482 0.0
C374 C 0.77812 0.23378 0.74773 0.0
H375 H 0.71779 0.19522 0.77203 0.0
H376 H 0.73732 0.19709 0.73387 0.0
H377 H 0.75787 0.28958 0.80868 0.0
H378 H 0.80871 0.28534 0.63663 0.0
H379 H 0.78929 0.28563 0.67635 0.0
C380 C 0.30911 0.70404 0.23025 0.0
C381 C 0.31327 0.72977 0.18519 0.0
C382 C 0.29794 0.70536 0.25308 0.0
C383 C 0.2698 0.74206 0.20954 0.0
H384 H 0.26253 0.71691 0.39328 0.0
C385 C 0.22434 0.75431 0.31733 0.0
C386 C 0.22063 0.72724 0.361 0.0
C387 C 0.23563 0.7559 0.29634 0.0
C388 C 0.26437 0.72364 0.34156 0.0
H389 H 0.3088 0.77724 0.12921 0.0
H390 H 0.28941 0.77989 0.16985 0.0
H391 H 0.28214 0.71763 0.35694 0.0
H392 H 0.22608 0.68092 0.41741 0.0
H393 H 0.24557 0.68318 0.37975 0.0
H394 H 0.25202 0.74783 0.19407 0.0
C395 C 0.29477 0.75842 0.18705 0.0
C396 C 0.27566 0.72407 0.32068 0.0
C397 C 0.30596 0.75716 0.16437 0.0
C398 C 0.22854 0.70187 0.38303 0.0
C399 C 0.2398 0.70347 0.36213 0.0
C400 C 0.2585 0.74159 0.23042 0.0
C401 C 0.29057 0.73241 0.23144 0.0
C402 C 0.27854 0.73308 0.25426 0.0
C403 C 0.24354 0.73054 0.3186 0.0
C404 C 0.25561 0.73213 0.29664 0.0
H405 H 0.31449 0.68275 0.24798 0.0
H406 H 0.29501 0.68467 0.2867 0.0
H407 H 0.27165 0.74866 0.15777 0.0
H408 H 0.21851 0.77417 0.29884 0.0
H409 H 0.23818 0.77734 0.26331 0.0
C410 C 0.7242 0.80907 0.23084 0.0
C411 C 0.72001 0.78322 0.18627 0.0
C412 C 0.73537 0.80774 0.25353 0.0
C413 C 0.76347 0.77071 0.21015 0.0
H414 H 0.77081 0.7965 0.39331 0.0
C415 C 0.80896 0.75864 0.31724 0.0
C416 C 0.8127 0.78586 0.36033 0.0
C417 C 0.79766 0.75702 0.29653 0.0
C418 C 0.76895 0.78959 0.34174 0.0
H419 H 0.72444 0.73551 0.13105 0.0
H420 H 0.74383 0.73286 0.17146 0.0
H421 H 0.75119 0.79575 0.35733 0.0
H422 H 0.80729 0.83242 0.41602 0.0
H423 H 0.78779 0.83009 0.37884 0.0
H424 H 0.78125 0.76479 0.19445 0.0
C425 C 0.73849 0.75443 0.18837 0.0
C426 C 0.75766 0.78914 0.32108 0.0
C427 C 0.7273 0.7557 0.16583 0.0
C428 C 0.80481 0.81135 0.38208 0.0
C429 C 0.79354 0.80971 0.36146 0.0
C430 C 0.77478 0.7712 0.23081 0.0
C431 C 0.74271 0.78056 0.23224 0.0
C432 C 0.75475 0.77991 0.25486 0.0
C433 C 0.78977 0.7825 0.3185 0.0
C434 C 0.77769 0.78089 0.29681 0.0
H435 H 0.71884 0.83045 0.24828 0.0
H436 H 0.73832 0.82853 0.28675 0.0
H437 H 0.7616 0.76393 0.15853 0.0
H438 H 0.81478 0.73868 0.29898 0.0
H439 H 0.79508 0.73547 0.26395 0.0
C440 C 0.14241 0.87231 0.46817 0.0
C441 C 0.15034 0.85414 0.5078 0.0
C442 C 0.14138 0.90948 0.4727 0.0
C443 C 0.15825 0.98777 0.5214 0.0
H444 H 0.12994 0.03932 0.51732 0.0
C445 C 0.14213 0.14103 0.56683 0.0
C446 C 0.15045 0.15878 0.52928 0.0
C447 C 0.14111 0.10382 0.56324 0.0
C448 C 0.1379 0.02524 0.51889 0.0
H449 H 0.16298 0.86023 0.58543 0.0
H450 H 0.16114 0.9245 0.59369 0.0
H451 H 0.12988 0.97399 0.51463 0.0
H452 H 0.16385 0.15184 0.45652 0.0
H453 H 0.16207 0.0875 0.45011 0.0
H454 H 0.1663 0.03851 0.52624 0.0
C455 C 0.15587 0.91044 0.5581 0.0
C456 C 0.13787 0.98787 0.51669 0.0
C457 C 0.1569 0.87354 0.55355 0.0
C458 C 0.15745 0.13888 0.4867 0.0
C459 C 0.15646 0.10195 0.48322 0.0
C460 C 0.15828 0.02488 0.52322 0.0
C461 C 0.14827 0.92903 0.51687 0.0
C462 C 0.14806 0.96871 0.5182 0.0
C463 C 0.14842 0.08382 0.52224 0.0
C464 C 0.14813 0.04416 0.52175 0.0
H465 H 0.1372 0.85793 0.43275 0.0
H466 H 0.13546 0.923 0.4401 0.0
H467 H 0.16626 0.97397 0.5218 0.0
H468 H 0.13657 0.15579 0.59977 0.0
H469 H 0.13484 0.09065 0.59404 0.0
C470 C 0.89113 0.37252 0.56531 0.0
C471 C 0.88332 0.35444 0.5248 0.0
C472 C 0.89218 0.4097 0.5609 0.0
C473 C 0.87541 0.4879 0.51089 0.0
H474 H 0.90364 0.53978 0.51741 0.0
C475 C 0.89137 0.64136 0.46663 0.0
C476 C 0.88297 0.65892 0.50371 0.0
C477 C 0.89246 0.60418 0.47039 0.0
C478 C 0.8957 0.5256 0.51517 0.0
H479 H 0.87095 0.36063 0.44566 0.0
H480 H 0.87283 0.42489 0.43761 0.0
H481 H 0.90377 0.47443 0.51996 0.0
H482 H 0.86947 0.6517 0.57585 0.0
H483 H 0.87136 0.58739 0.58249 0.0
H484 H 0.86731 0.53855 0.50556 0.0
C485 C 0.87798 0.41078 0.47379 0.0
C486 C 0.89577 0.48823 0.51727 0.0
C487 C 0.87693 0.37389 0.47823 0.0
C488 C 0.87594 0.63889 0.54603 0.0
C489 C 0.877 0.60197 0.54965 0.0
C490 C 0.87534 0.525 0.50919 0.0
C491 C 0.88543 0.4293 0.51596 0.0
C492 C 0.88561 0.46897 0.51485 0.0
C493 C 0.88512 0.58403 0.51107 0.0
C494 C 0.88546 0.54439 0.51153 0.0
H495 H 0.89621 0.35809 0.60137 0.0
H496 H 0.89799 0.42319 0.59419 0.0
H497 H 0.86741 0.474 0.50978 0.0
H498 H 0.89695 0.65625 0.43393 0.0
H499 H 0.89879 0.59113 0.43993 0.0
C500 C 0.90318 0.87844 0.43815 0.0
C501 C 0.89577 0.8556 0.47228 0.0
C502 C 0.90256 0.91528 0.44746 0.0
C503 C 0.90453 0.98816 0.51126 0.0
H504 H 0.87608 0.03825 0.52712 0.0
C505 C 0.90278 0.13457 0.59595 0.0
C506 C 0.89549 0.15729 0.5607 0.0
C507 C 0.90222 0.09771 0.58693 0.0
C508 C 0.8841 0.0247 0.52245 0.0
H509 H 0.88165 0.85336 0.54123 0.0
H510 H 0.88062 0.91773 0.55805 0.0
H511 H 0.87616 0.97436 0.50431 0.0
H512 H 0.88163 0.15928 0.4901 0.0
H513 H 0.88069 0.09486 0.47376 0.0
H514 H 0.91249 0.0384 0.52813 0.0
C515 C 0.88688 0.90726 0.52372 0.0
C516 C 0.88414 0.98799 0.51002 0.0
C517 C 0.8875 0.87036 0.51439 0.0
C518 C 0.88738 0.14237 0.5178 0.0
C519 C 0.88681 0.10545 0.50874 0.0
C520 C 0.90448 0.02475 0.5238 0.0
C521 C 0.89452 0.93017 0.49113 0.0
C522 C 0.89437 0.96927 0.50409 0.0
C523 C 0.89434 0.08266 0.54242 0.0
C524 C 0.89428 0.04354 0.52963 0.0
H525 H 0.90958 0.86782 0.40499 0.0
H526 H 0.90844 0.93211 0.42054 0.0
H527 H 0.91256 0.9746 0.50792 0.0
H528 H 0.90907 0.14531 0.62975 0.0
H529 H 0.90801 0.08097 0.61469 0.0
C530 C 0.13026 0.63491 0.43869 0.0
C531 C 0.13761 0.65755 0.47361 0.0
C532 C 0.13083 0.59802 0.44757 0.0
C533 C 0.12866 0.52483 0.51025 0.0
H534 H 0.15702 0.47447 0.52812 0.0
C535 C 0.13012 0.37822 0.59477 0.0
C536 C 0.13751 0.3555 0.56031 0.0
C537 C 0.1307 0.41508 0.58561 0.0
C538 C 0.14903 0.48809 0.52286 0.0
H539 H 0.15157 0.65936 0.54355 0.0
H540 H 0.15252 0.5949 0.55965 0.0
H541 H 0.15706 0.53844 0.50584 0.0
H542 H 0.15155 0.35352 0.49086 0.0
H543 H 0.15253 0.41796 0.47431 0.0
H544 H 0.12062 0.47459 0.52604 0.0
C545 C 0.14635 0.60557 0.52502 0.0
C546 C 0.14905 0.52485 0.51074 0.0
C547 C 0.14578 0.64253 0.51609 0.0
C548 C 0.14572 0.37042 0.51797 0.0
C549 C 0.14632 0.40736 0.50879 0.0
C550 C 0.12865 0.48819 0.52248 0.0
C551 C 0.13877 0.58286 0.49162 0.0
C552 C 0.13886 0.54369 0.50414 0.0
C553 C 0.1387 0.43014 0.54176 0.0
C554 C 0.13882 0.4693 0.52906 0.0
H555 H 0.12394 0.64573 0.40521 0.0
H556 H 0.125 0.58136 0.42003 0.0
H557 H 0.12065 0.53846 0.50637 0.0
H558 H 0.12375 0.36747 0.62812 0.0
H559 H 0.12484 0.4318 0.61283 0.0
C560 C 0.64237 0.64034 0.06947 0.0
C561 C 0.65015 0.6587 0.02906 0.0
C562 C 0.64126 0.60322 0.06411 0.0
C563 C 0.65788 0.52524 1.01084 0.0
H564 H 0.62962 0.47352 0.01922 0.0
C565 C 0.64175 0.37187 0.96701 0.0
C566 C 0.65019 0.35422 1.00363 0.0
C567 C 0.64069 0.40907 0.97077 0.0
C568 C 0.63757 0.48766 1.01641 0.0
H569 H 0.66241 0.65305 0.94911 0.0
H570 H 0.66043 0.5889 0.93936 0.0
H571 H 0.62955 0.53887 0.02286 0.0
H572 H 0.6638 0.36133 0.07492 0.0
H573 H 0.66197 0.42564 0.08149 0.0
H574 H 0.66592 0.47455 1.00396 0.0
C575 C 0.65535 0.60274 0.97622 0.0
C576 C 0.63753 0.52503 0.01915 0.0
C577 C 0.65646 0.63958 0.98164 0.0
C578 C 0.65729 0.3742 0.04544 0.0
C579 C 0.65627 0.41112 0.04903 0.0
C580 C 0.65791 0.48814 1.00851 0.0
C581 C 0.64793 0.58392 0.01828 0.0
C582 C 0.64771 0.54424 1.01616 0.0
C583 C 0.6481 0.42915 1.01096 0.0
C584 C 0.64778 0.46881 1.01157 0.0
H585 H 0.63735 0.65451 0.10619 0.0
H586 H 0.63548 0.58952 0.09737 0.0
H587 H 0.66588 0.53906 1.00926 0.0
H588 H 0.63611 0.35704 0.93471 0.0
H589 H 0.63432 0.4222 0.94074 0.0
C590 C 0.37697 0.87312 0.97945 0.0
C591 C 0.38321 0.85402 0.02726 0.0
C592 C 0.37804 0.90998 0.97408 0.0
C593 C 0.39564 0.98793 0.01799 0.0
H594 H 0.36719 0.03794 1.00123 0.0
C595 C 0.3756 0.13845 0.04285 0.0
C596 C 0.38274 0.15855 1.00134 0.0
C597 C 0.37667 0.10154 0.04659 0.0
C598 C 0.37522 0.02448 1.00623 0.0
H599 H 0.39586 0.85829 0.10512 0.0
H600 H 0.39766 0.92333 0.09636 0.0
H601 H 0.36734 0.97342 1.00662 0.0
H602 H 0.39693 0.15595 0.93309 0.0
H603 H 0.39881 0.09083 0.93941 0.0
H604 H 0.40346 0.03957 0.01838 0.0
C605 C 0.39197 0.90959 0.06278 0.0
C606 C 0.37532 0.98738 1.00861 0.0
C607 C 0.3909 0.87244 0.06808 0.0
C608 C 0.39126 0.14103 0.96515 0.0
C609 C 0.39237 0.10384 0.96909 0.0
C610 C 0.39555 0.0253 1.01519 0.0
C611 C 0.38535 0.92886 1.01657 0.0
C612 C 0.38551 0.96854 1.01448 0.0
C613 C 0.38493 0.08364 1.00899 0.0
C614 C 0.38531 0.04398 1.00976 0.0
H615 H 0.37109 0.85961 0.94659 0.0
H616 H 0.37301 0.92379 0.93692 0.0
H617 H 0.40364 0.97422 0.02215 0.0
H618 H 0.36903 0.15121 0.07197 0.0
H619 H 0.37094 0.08692 0.0788 0.0
C620 C 0.38719 0.37028 1.01317 0.0
C621 C 0.39542 0.3556 0.97075 0.0
C622 C 0.38659 0.40716 0.02298 0.0
C623 C 0.38392 0.48801 1.01045 0.0
H624 H 0.41231 0.53817 0.02839 0.0
C625 C 0.38725 0.64241 0.0201 0.0
C626 C 0.39541 0.65714 0.06293 0.0
C627 C 0.38665 0.60551 1.01058 0.0
C628 C 0.40429 0.52459 0.02411 0.0
H629 H 0.40922 0.36798 0.90339 0.0
H630 H 0.40813 0.43222 0.91976 0.0
H631 H 0.41232 0.47443 1.00742 0.0
H632 H 0.40905 0.64483 0.13132 0.0
H633 H 0.40795 0.58055 0.11544 0.0
H634 H 0.37591 0.53828 0.02835 0.0
C635 C 0.40225 0.41534 0.94657 0.0
C636 C 0.4043 0.48804 1.01113 0.0
C637 C 0.40283 0.37853 0.93679 0.0
C638 C 0.40273 0.63424 0.0976 0.0
C639 C 0.40214 0.59741 0.0881 0.0
C640 C 0.38391 0.52469 0.02331 0.0
C641 C 0.39423 0.43014 0.99056 0.0
C642 C 0.39412 0.46922 1.00402 0.0
C643 C 0.39421 0.58255 0.04369 0.0
C644 C 0.39411 0.54345 0.03044 0.0
H645 H 0.38134 0.35322 0.0399 0.0
H646 H 0.38036 0.41755 0.05753 0.0
H647 H 0.37592 0.47446 1.00481 0.0
H648 H 0.38148 0.65944 0.99282 0.0
H649 H 0.38049 0.59508 0.97569 0.0
C650 C 0.63013 0.13425 0.93891 0.0
C651 C 0.63752 0.15713 0.9729 0.0
C652 C 0.63074 0.09741 0.94847 0.0
C653 C 0.62877 0.02451 1.01267 0.0
H654 H 0.6572 0.97449 0.02945 0.0
C655 C 0.63048 0.87822 0.09899 0.0
C656 C 0.63781 0.85543 0.06425 0.0
C657 C 0.63103 0.91506 0.08948 0.0
C658 C 0.64919 0.98802 0.02452 0.0
H659 H 0.65161 0.15942 0.04187 0.0
H660 H 0.65265 0.09506 0.05913 0.0
H661 H 0.65713 0.03836 1.00608 0.0
H662 H 0.65174 0.85334 0.99398 0.0
H663 H 0.65267 0.91773 0.9768 0.0
H664 H 0.6208 0.97428 0.02987 0.0
C665 C 0.6464 0.1055 0.02472 0.0
C666 C 0.64915 0.02472 1.01177 0.0
C667 C 0.64578 0.1424 1.01513 0.0
C668 C 0.64596 0.87028 0.02132 0.0
C669 C 0.64652 0.9072 1.01177 0.0
C670 C 0.62881 0.98793 0.02554 0.0
C671 C 0.63878 0.08255 0.99227 0.0
C672 C 0.63893 0.04344 1.00552 0.0
C673 C 0.63894 0.93004 0.04496 0.0
C674 C 0.63901 0.96916 0.03173 0.0
H675 H 0.62373 0.14484 0.90566 0.0
H676 H 0.62488 0.08055 0.92164 0.0
H677 H 0.62073 0.03806 1.00909 0.0
H678 H 0.62417 0.86753 0.1328 0.0
H679 H 0.62521 0.93184 0.11688 0.0
C680 C 0.13486 0.24117 0.30547 0.0
C681 C 0.14308 0.26053 0.3408 0.0
C682 C 0.13504 0.23992 0.23524 0.0
C683 C 0.14653 0.28628 0.0856 0.0
H684 H 0.14059 0.19655 0.9965 0.0
C685 C 0.15402 0.26745 0.80126 0.0
C686 C 0.14572 0.24877 0.76537 0.0
C687 C 0.15384 0.26818 0.87148 0.0
C688 C 0.14216 0.22189 0.02054 0.0
H689 H 0.15788 0.29399 0.32974 0.0
H690 H 0.15823 0.29154 0.20774 0.0
H691 H 0.13969 0.19989 0.11865 0.0
H692 H 0.1308 0.21572 0.77545 0.0
H693 H 0.13047 0.21717 0.89764 0.0
H694 H 0.14901 0.30827 0.98753 0.0
C695 C 0.15156 0.27767 0.23413 0.0
C696 C 0.14163 0.22383 0.09061 0.0
C697 C 0.15139 0.27892 0.30425 0.0
C698 C 0.13736 0.2303 0.8014 0.0
C699 C 0.13719 0.23099 0.87158 0.0
C700 C 0.14707 0.28433 1.01557 0.0
C701 C 0.14343 0.258 0.19871 0.0
C702 C 0.14381 0.25604 0.12404 0.0
C703 C 0.14536 0.25022 0.90751 0.0
C704 C 0.14491 0.25211 0.98214 0.0
H705 H 0.12833 0.22672 0.33199 0.0
H706 H 0.12856 0.2249 0.20955 0.0
H707 H 0.14809 0.31165 0.10957 0.0
H708 H 0.16059 0.28192 0.77518 0.0
H709 H 0.16036 0.28282 0.89759 0.0
C710 C 0.88209 0.23272 0.30276 0.0
C711 C 0.89042 0.25109 0.33905 0.0
C712 C 0.88188 0.234 0.23262 0.0
C713 C 0.89174 0.28814 0.08883 0.0
H714 H 0.88411 0.20417 0.98551 0.0
C715 C 0.89583 0.28259 0.79944 0.0
C716 C 0.88746 0.26428 0.7634 0.0
C717 C 0.89601 0.28168 0.86963 0.0
C718 C 0.88612 0.22799 1.01361 0.0
H719 H 0.90518 0.2848 0.32969 0.0
H720 H 0.90489 0.28666 0.20725 0.0
H721 H 0.88513 0.2004 0.1075 0.0
H722 H 0.87256 0.23119 0.77324 0.0
H723 H 0.87282 0.22991 0.89568 0.0
H724 H 0.89274 0.3157 0.99486 0.0
C725 C 0.89842 0.27166 0.23316 0.0
C726 C 0.88672 0.22581 0.08363 0.0
C727 C 0.89864 0.27037 0.3034 0.0
C728 C 0.87915 0.24555 0.79932 0.0
C729 C 0.87934 0.24459 0.86957 0.0
C730 C 0.89114 0.2903 0.01879 0.0
C731 C 0.88999 0.25369 0.19688 0.0
C732 C 0.88953 0.25586 0.12219 0.0
C733 C 0.88784 0.26238 0.9056 0.0
C734 C 0.88832 0.26026 0.98027 0.0
H735 H 0.8756 0.21772 0.3285 0.0
H736 H 0.87518 0.2202 0.20648 0.0
H737 H 0.89374 0.31196 0.11693 0.0
H738 H 0.90239 0.29719 0.77349 0.0
H739 H 0.90275 0.29536 0.89564 0.0
C740 C 0.1375 0.78352 0.23386 0.0
C741 C 0.14583 0.76485 0.26966 0.0
C742 C 0.1373 0.78289 0.16368 0.0
C743 C 0.15487 0.76334 1.01421 0.0
H744 H 0.12598 0.7529 0.92546 0.0
C745 C 0.15139 0.73379 0.73068 0.0
C746 C 0.1431 0.75222 0.69417 0.0
C747 C 0.15163 0.73531 0.80078 0.0
C748 C 0.13411 0.75621 0.94938 0.0
H749 H 0.1606 0.73129 0.25943 0.0
H750 H 0.16022 0.73 0.13709 0.0
H751 H 0.12677 0.75639 0.04756 0.0
H752 H 0.12845 0.78642 0.70309 0.0
H753 H 0.12889 0.78919 0.82542 0.0
H754 H 0.16221 0.76305 0.91601 0.0
C755 C 0.15389 0.74545 0.16328 0.0
C756 C 0.13456 0.75825 0.01944 0.0
C757 C 0.15409 0.74608 0.23352 0.0
C758 C 0.13493 0.77179 0.72957 0.0
C759 C 0.13516 0.77327 0.79978 0.0
C760 C 0.15442 0.76127 0.94416 0.0
C761 C 0.14543 0.76357 0.12747 0.0
C762 C 0.14495 0.76181 0.05279 0.0
C763 C 0.14357 0.75529 0.83623 0.0
C764 C 0.14403 0.75762 0.91084 0.0
H765 H 0.13102 0.79835 0.25999 0.0
H766 H 0.13078 0.79763 0.13777 0.0
H767 H 0.163 0.76661 0.03811 0.0
H768 H 0.1578 0.71837 0.70515 0.0
H769 H 0.15811 0.72067 0.82726 0.0
C770 C 0.88195 0.77899 0.72831 0.0
C771 C 0.89026 0.76059 0.69186 0.0
C772 C 0.88178 0.77775 0.79843 0.0
C773 C 0.89171 0.72397 0.94228 0.0
H774 H 0.88433 0.80845 0.04484 0.0
C775 C 0.89598 0.73053 0.23144 0.0
C776 C 0.88763 0.74901 0.26737 0.0
C777 C 0.89615 0.73121 0.16125 0.0
C778 C 0.88627 0.7845 1.01695 0.0
H779 H 0.905 0.72678 0.70085 0.0
H780 H 0.90477 0.72498 0.82331 0.0
H781 H 0.88525 0.81177 0.92278 0.0
H782 H 0.87276 0.78219 0.2574 0.0
H783 H 0.87299 0.78306 0.13498 0.0
H784 H 0.89275 0.69672 0.03656 0.0
C785 C 0.89829 0.73999 0.79753 0.0
C786 C 0.88681 0.78641 0.94691 0.0
C787 C 0.89847 0.74123 0.7273 0.0
C788 C 0.87933 0.7677 0.23139 0.0
C789 C 0.87951 0.76842 0.16116 0.0
C790 C 0.89117 0.72206 1.01236 0.0
C791 C 0.88991 0.75809 0.83397 0.0
C792 C 0.88952 0.75617 0.90865 0.0
C793 C 0.88798 0.75044 0.12523 0.0
C794 C 0.88843 0.75229 0.05058 0.0
H795 H 0.87546 0.79405 0.70273 0.0
H796 H 0.87511 0.79163 0.82475 0.0
H797 H 0.89364 0.70002 0.91438 0.0
H798 H 0.90254 0.71595 0.25746 0.0
H799 H 0.90287 0.71738 0.13527 0.0
C800 C 0.63754 0.72922 0.30455 0.0
C801 C 0.64593 0.74766 0.2687 0.0
C802 C 0.63735 0.72983 0.37474 0.0
C803 C 0.65497 0.74891 0.52411 0.0
H804 H 0.6261 0.76022 0.61298 0.0
C805 C 0.65154 0.77876 0.80758 0.0
C806 C 0.64319 0.76059 0.84417 0.0
C807 C 0.65178 0.77718 0.73748 0.0
C808 C 0.63421 0.75666 0.58903 0.0
H809 H 0.66081 0.78078 0.27884 0.0
H810 H 0.66042 0.78204 0.40118 0.0
H811 H 0.62689 0.75665 0.49088 0.0
H812 H 0.62844 0.72679 0.83543 0.0
H813 H 0.62889 0.72392 0.71311 0.0
H814 H 0.66229 0.74904 0.62228 0.0
C815 C 0.65405 0.76678 0.37504 0.0
C816 C 0.63467 0.75457 0.51897 0.0
C817 C 0.65425 0.76617 0.30479 0.0
C818 C 0.63497 0.74122 0.80888 0.0
C819 C 0.6352 0.73968 0.73867 0.0
C820 C 0.65451 0.75103 0.59417 0.0
C821 C 0.64554 0.74891 0.41089 0.0
C822 C 0.64506 0.7507 0.48558 0.0
C823 C 0.64367 0.7574 0.70213 0.0
C824 C 0.64413 0.755 0.62752 0.0
H825 H 0.63102 0.71459 0.27847 0.0
H826 H 0.63078 0.71528 0.40069 0.0
H827 H 0.66309 0.74539 0.50018 0.0
H828 H 0.65799 0.79402 0.83303 0.0
H829 H 0.65831 0.79162 0.71093 0.0
C830 C 0.38183 0.73371 0.80617 0.0
C831 C 0.3902 0.75181 0.84259 0.0
C832 C 0.38164 0.73507 0.73605 0.0
C833 C 0.39168 0.78893 0.59242 0.0
H834 H 0.38392 0.70503 0.48922 0.0
C835 C 0.39578 0.78293 0.30301 0.0
C836 C 0.38736 0.76475 0.26711 0.0
C837 C 0.39596 0.78215 0.3732 0.0
C838 C 0.38596 0.72883 0.51729 0.0
H839 H 0.40505 0.78517 0.8335 0.0
H840 H 0.4048 0.78717 0.71106 0.0
H841 H 0.38491 0.70131 0.61121 0.0
H842 H 0.37237 0.73208 0.27719 0.0
H843 H 0.37263 0.73105 0.39961 0.0
H844 H 0.39275 0.81641 0.49839 0.0
C845 C 0.39828 0.77231 0.73686 0.0
C846 C 0.38655 0.72668 0.5873 0.0
C847 C 0.39847 0.77094 0.8071 0.0
C848 C 0.379 0.74633 0.30316 0.0
C849 C 0.37919 0.74551 0.37339 0.0
C850 C 0.3911 0.79106 0.52237 0.0
C851 C 0.38982 0.75456 0.70047 0.0
C852 C 0.3894 0.75671 0.6258 0.0
C853 C 0.38773 0.76313 0.40928 0.0
C854 C 0.38822 0.76105 0.48392 0.0
H855 H 0.3753 0.71883 0.83178 0.0
H856 H 0.37492 0.72146 0.70979 0.0
H857 H 0.39372 0.81273 0.6205 0.0
H858 H 0.40238 0.7973 0.27695 0.0
H859 H 0.40273 0.79571 0.39913 0.0
C860 C 0.65125 0.23367 0.22859 0.0
C861 C 0.64292 0.25198 0.19214 0.0
C862 C 0.65142 0.23489 0.29872 0.0
C863 C 0.64142 0.2886 0.44235 0.0
H864 H 0.64891 0.20428 0.54541 0.0
C865 C 0.63714 0.2822 0.7316 0.0
C866 C 0.64552 0.26386 0.7676 0.0
C867 C 0.63698 0.28145 0.66142 0.0
C868 C 0.64694 0.22819 0.51738 0.0
H869 H 0.62814 0.28559 0.20113 0.0
H870 H 0.62836 0.28736 0.32356 0.0
H871 H 0.648 0.20088 0.42337 0.0
H872 H 0.66043 0.23084 0.75774 0.0
H873 H 0.6602 0.22985 0.63533 0.0
H874 H 0.64034 0.31588 0.53646 0.0
C875 C 0.63486 0.27244 0.2978 0.0
C876 C 0.64641 0.22623 0.44735 0.0
C877 C 0.63468 0.27121 0.22757 0.0
C878 C 0.65384 0.24523 0.73168 0.0
C879 C 0.65366 0.24444 0.66146 0.0
C880 C 0.64194 0.29055 0.51242 0.0
C881 C 0.64327 0.25446 0.33424 0.0
C882 C 0.64365 0.25642 0.40891 0.0
C883 C 0.64517 0.26229 0.62546 0.0
C884 C 0.64472 0.26038 0.55082 0.0
H885 H 0.65776 0.2187 0.20301 0.0
H886 H 0.65811 0.2211 0.32503 0.0
H887 H 0.63946 0.31251 0.41432 0.0
H888 H 0.63058 0.29673 0.75758 0.0
H889 H 0.63025 0.29518 0.63539 0.0
C890 C 0.38159 0.2785 0.22602 0.0
C891 C 0.38994 0.26029 0.18957 0.0
C892 C 0.38142 0.27726 0.29614 0.0
C893 C 0.39147 0.22372 0.43999 0.0
H894 H 0.38393 0.30808 0.54249 0.0
C895 C 0.39576 0.23047 0.72911 0.0
C896 C 0.38737 0.24878 0.76505 0.0
C897 C 0.39592 0.23113 0.65893 0.0
C898 C 0.38591 0.28416 0.51462 0.0
H899 H 0.40476 0.2268 0.19856 0.0
H900 H 0.40453 0.225 0.32102 0.0
H901 H 0.38483 0.31139 0.42043 0.0
H902 H 0.37242 0.28162 0.75507 0.0
H903 H 0.37264 0.28246 0.63265 0.0
H904 H 0.39257 0.19652 0.53429 0.0
C905 C 0.39802 0.23986 0.29524 0.0
C906 C 0.38645 0.28607 0.44458 0.0
C907 C 0.39819 0.24111 0.22501 0.0
C908 C 0.37902 0.26727 0.72906 0.0
C909 C 0.37919 0.26797 0.65884 0.0
C910 C 0.39094 0.22182 0.51007 0.0
C911 C 0.38959 0.25778 0.33167 0.0
C912 C 0.38922 0.25587 0.40634 0.0
C913 C 0.3877 0.25016 0.62291 0.0
C914 C 0.38814 0.25201 0.54826 0.0
H915 H 0.37507 0.29342 0.20044 0.0
H916 H 0.37472 0.29099 0.32245 0.0
H917 H 0.39345 0.1998 0.41211 0.0
H918 H 0.40234 0.21604 0.75514 0.0
H919 H 0.40266 0.21744 0.63294 0.0
C920 C 0.05843 0.22041 0.46054 0.0
C921 C 0.06524 0.24435 0.4967 0.0
C922 C 0.0467 0.22474 0.45806 0.0
C923 C 0.02314 0.26853 0.54974 0.0
H924 H 1.00594 0.24522 0.39034 0.0
C925 C 0.97559 0.30007 0.52862 0.0
C926 C 0.96853 0.27424 0.49955 0.0
C927 C 0.98733 0.29662 0.52617 0.0
C928 C 1.0106 0.25152 0.4355 0.0
H929 H 0.06488 0.2921 0.55777 0.0
H930 H 0.04456 0.30024 0.55171 0.0
H931 H 0.02644 0.23975 0.38877 0.0
H932 H 0.96842 0.22462 0.44419 0.0
H933 H 0.98894 0.21845 0.44029 0.0
H934 H 1.00732 0.28044 0.59635 0.0
C935 C 0.04826 0.27765 0.52621 0.0
C936 C 0.02238 0.24836 0.43466 0.0
C937 C 0.05998 0.27327 0.52884 0.0
C938 C 0.97357 0.24492 0.46748 0.0
C939 C 0.98535 0.24156 0.4647 0.0
C940 C 1.01138 0.27182 0.55047 0.0
C941 C 0.04142 0.25319 0.49154 0.0
C942 C 0.02884 0.25687 0.49178 0.0
C943 C 0.99239 0.26726 0.49444 0.0
C944 C 1.00494 0.26341 0.49338 0.0
H945 H 0.06214 0.19808 0.43435 0.0
H946 H 0.04175 0.20517 0.43123 0.0
H947 H 0.02774 0.2746 0.59521 0.0
H948 H 0.97204 0.32278 0.55455 0.0
H949 H 0.99245 0.31715 0.54898 0.0
C950 C 0.97495 0.72077 0.57193 0.0
C951 C 0.96814 0.74466 0.53558 0.0
C952 C 0.98668 0.72511 0.57436 0.0
C953 C 1.01025 0.7689 0.4824 0.0
H954 H 0.02744 0.74576 0.64202 0.0
C955 C 0.05779 0.80067 0.50352 0.0
C956 C 0.06485 0.77491 0.53288 0.0
C957 C 0.04605 0.79715 0.50589 0.0
C958 C 0.02278 0.75201 0.59679 0.0
H959 H 0.96849 0.79235 0.47412 0.0
H960 H 0.98881 0.80053 0.4801 0.0
H961 H 1.00694 0.74021 0.64355 0.0
H962 H 0.06498 0.72535 0.58864 0.0
H963 H 0.04446 0.71906 0.5924 0.0
H964 H 0.02607 0.78084 0.43576 0.0
C965 C 0.98511 0.77795 0.50579 0.0
C966 C 1.011 0.74881 0.59762 0.0
C967 C 0.97339 0.77355 0.5032 0.0
C968 C 0.05982 0.74559 0.56513 0.0
C969 C 0.04804 0.74216 0.56783 0.0
C970 C 0.022 0.77223 0.48168 0.0
C971 C 0.99196 0.75354 0.54066 0.0
C972 C 1.00454 0.75725 0.54042 0.0
C973 C 0.04099 0.7678 0.53782 0.0
C974 C 0.02844 0.76388 0.53886 0.0
H975 H 0.97124 0.69845 0.5983 0.0
H976 H 0.99163 0.70558 0.60135 0.0
H977 H 1.00564 0.77493 0.43687 0.0
H978 H 0.06133 0.82337 0.47745 0.0
H979 H 0.04092 0.81763 0.48287 0.0
C980 C 0.55994 0.77337 0.03523 0.0
C981 C 0.56523 0.74488 1.00191 0.0
C982 C 0.54821 0.77762 0.03282 0.0
C983 C 0.52237 0.74903 0.94007 0.0
H984 H 0.50725 0.77945 0.10271 0.0
C985 C 0.47355 0.74508 0.97215 0.0
C986 C 0.46849 0.77416 1.0049 0.0
C987 C 0.48533 0.74173 0.96957 0.0
C988 C 0.51133 0.77128 0.05659 0.0
H989 H 0.56218 0.69927 0.93777 0.0
H990 H 0.54178 0.70614 0.93503 0.0
H991 H 0.52768 0.77376 0.10154 0.0
H992 H 0.47196 0.82223 0.06141 0.0
H993 H 0.49238 0.8166 0.05625 0.0
H994 H 0.50593 0.74618 0.89554 0.0
C995 C 0.54671 0.72546 0.96262 0.0
C996 C 0.52309 0.76809 0.05583 0.0
C997 C 0.55844 0.72126 0.96486 0.0
C998 C 0.47553 0.79973 0.03495 0.0
C999 C 0.48727 0.79627 0.03271 0.0
C1000 C 0.51058 0.75208 0.94095 0.0
C1001 C 0.54139 0.75348 0.9972 0.0
C1002 C 0.52881 0.75703 0.99752 0.0
C1003 C 0.49235 0.76718 1.00021 0.0
C1004 C 0.5049 0.76338 0.99917 0.0
H1005 H 0.56482 0.79193 0.06487 0.0
H1006 H 0.54449 0.79989 0.05921 0.0
H1007 H 0.52644 0.74089 0.89392 0.0
H1008 H 0.4684 0.72499 0.94813 0.0
H1009 H 0.48893 0.71883 0.94455 0.0
C1010 C 0.47468 0.22109 0.07024 0.0
C1011 C 0.46789 0.24485 0.03344 0.0
C1012 C 0.48641 0.22535 0.07267 0.0
C1013 C 0.51002 0.26854 0.98014 0.0
H1014 H 0.52717 0.24601 0.14024 0.0
C1015 C 0.55757 0.3002 1.00124 0.0
C1016 C 0.56462 0.27452 0.031 0.0
C1017 C 0.54583 0.29673 1.00354 0.0
C1018 C 0.52252 0.25208 0.09488 0.0
H1019 H 0.46829 0.29223 0.97115 0.0
H1020 H 0.48861 0.30029 0.97713 0.0
H1021 H 0.50666 0.2406 0.14172 0.0
H1022 H 0.56471 0.22515 0.08739 0.0
H1023 H 0.54419 0.21896 0.09105 0.0
H1024 H 0.52586 0.28017 0.93342 0.0
C1025 C 0.48489 0.27787 1.00318 0.0
C1026 C 0.51074 0.24897 0.09568 0.0
C1027 C 0.47317 0.27355 1.00059 0.0
C1028 C 0.55956 0.24533 0.06357 0.0
C1029 C 0.54778 0.24196 0.06621 0.0
C1030 C 0.52178 0.27179 0.97945 0.0
C1031 C 0.49172 0.25358 0.03852 0.0
C1032 C 0.5043 0.2572 0.0383 0.0
C1033 C 0.54076 0.26751 0.03581 0.0
C1034 C 0.52821 0.26366 0.0368 0.0
H1035 H 0.47094 0.19893 0.09697 0.0
H1036 H 0.49134 0.20592 0.10003 0.0
H1037 H 0.50543 0.27439 0.93447 0.0
H1038 H 0.56113 0.32279 0.97492 0.0
H1039 H 0.54071 0.31714 0.98021 0.0
loop_
_geom_bond_atom_site_label_1
_geom_bond_atom_site_label_2
_geom_bond_distance
_geom_bond_site_symmetry_2
_ccdc_geom_bond_type
Tb0 C2 2.809 . S
Tb0 O20 2.484 . S
Tb0 O21 2.440 . S
Tb0 O22 2.658 . S
Tb0 O23 2.409 . S
Tb0 O24 2.378 . S
Tb0 O28 2.325 . S
Tb0 O31 2.341 . S
Tb1 C11 2.809 . S
Tb1 O22 2.325 . S
Tb1 O25 2.341 . S
Tb1 O26 2.484 . S
Tb1 O27 2.440 . S
Tb1 O28 2.658 . S
Tb1 O29 2.409 . S
Tb1 O30 2.378 . S
C2 Tb0 2.809 . S
C2 C3 1.514 . S
C2 O20 1.248 . S
C2 O21 1.266 . S
C3 C2 1.514 . S
C3 C4 1.359 . S
C3 C8 1.348 . S
C4 C3 1.359 . S
C4 C5 1.380 . S
C4 H32 0.929 . S
C5 C4 1.380 . S
C5 C6 1.347 . S
C5 H33 0.931 . S
C6 C5 1.347 . S
C6 C7 1.369 . S
C7 C6 1.369 . S
C7 C8 1.408 . S
C7 H34 0.930 . S
C8 C3 1.348 . S
C8 C7 1.408 . S
C8 H35 0.930 . S
C9 O22 1.281 . S
C9 O23 1.254 . S
C10 O24 1.236 . S
C10 O25 1.266 . S
C11 Tb1 2.809 . S
C11 C12 1.514 . S
C11 O26 1.248 . S
C11 O27 1.266 . S
C12 C11 1.514 . S
C12 C13 1.359 . S
C12 C17 1.348 . S
C13 C12 1.359 . S
C13 C14 1.380 . S
C13 H36 0.929 . S
C14 C13 1.380 . S
C14 C15 1.347 . S
C14 H37 0.931 . S
C15 C14 1.347 . S
C15 C16 1.369 . S
C16 C15 1.369 . S
C16 C17 1.408 . S
C16 H38 0.930 . S
C17 C12 1.348 . S
C17 C16 1.408 . S
C17 H39 0.930 . S
C18 O28 1.281 . S
C18 O29 1.254 . S
C19 O30 1.236 . S
C19 O31 1.266 . S
O20 Tb0 2.484 . S
O20 C2 1.248 . S
O21 Tb0 2.440 . S
O21 C2 1.266 . S
O22 Tb0 2.658 . S
O22 Tb1 2.325 . S
O22 C9 1.281 . S
O23 Tb0 2.409 . S
O23 C9 1.254 . S
O24 Tb0 2.378 . S
O24 C10 1.236 . S
O25 Tb1 2.341 . S
O25 C10 1.266 . S
O26 Tb1 2.484 . S
O26 C11 1.248 . S
O27 Tb1 2.440 . S
O27 C11 1.266 . S
O28 Tb0 2.325 . S
O28 Tb1 2.658 . S
O28 C18 1.281 . S
O29 Tb1 2.409 . S
O29 C18 1.254 . S
O30 Tb1 2.378 . S
O30 C19 1.236 . S
O31 Tb0 2.341 . S
O31 C19 1.266 . S
H32 C4 0.929 . S
H33 C5 0.931 . S
H34 C7 0.930 . S
H35 C8 0.930 . S
H36 C13 0.929 . S
H37 C14 0.931 . S
H38 C16 0.930 . S
H39 C17 0.930 . S
Tb40 C42 2.809 . S
Tb40 O60 2.484 . S
Tb40 O61 2.440 . S
Tb40 O62 2.658 . S
Tb40 O63 2.409 . S
Tb40 O64 2.378 . S
Tb40 O68 2.325 . S
Tb40 O71 2.341 . S
Tb41 C51 2.809 . S
Tb41 O62 2.325 . S
Tb41 O65 2.341 . S
Tb41 O66 2.484 . S
Tb41 O67 2.440 . S
Tb41 O68 2.658 . S
Tb41 O69 2.409 . S
Tb41 O70 2.378 . S
C42 Tb40 2.809 . S
C42 C43 1.514 . S
C42 O60 1.248 . S
C42 O61 1.266 . S
C43 C42 1.514 . S
C43 C44 1.359 . S
C43 C48 1.348 . S
C44 C43 1.359 . S
C44 C45 1.380 . S
C44 H72 0.929 . S
C45 C44 1.380 . S
C45 C46 1.347 . S
C45 H73 0.931 . S
C46 C45 1.347 . S
C46 C47 1.369 . S
C47 C46 1.369 . S
C47 C48 1.408 . S
C47 H74 0.930 . S
C48 C43 1.348 . S
C48 C47 1.408 . S
C48 H75 0.930 . S
C49 O62 1.281 . S
C49 O63 1.254 . S
C50 O64 1.236 . S
C50 O65 1.266 . S
C51 Tb41 2.809 . S
C51 C52 1.514 . S
C51 O66 1.248 . S
C51 O67 1.266 . S
C52 C51 1.514 . S
C52 C53 1.359 . S
C52 C57 1.348 . S
C53 C52 1.359 . S
C53 C54 1.380 . S
C53 H76 0.929 . S
C54 C53 1.380 . S
C54 C55 1.347 . S
C54 H77 0.931 . S
C55 C54 1.347 . S
C55 C56 1.369 . S
C56 C55 1.369 . S
C56 C57 1.408 . S
C56 H78 0.930 . S
C57 C52 1.348 . S
C57 C56 1.408 . S
C57 H79 0.930 . S
C58 O68 1.281 . S
C58 O69 1.254 . S
C59 O70 1.236 . S
C59 O71 1.266 . S
O60 Tb40 2.484 . S
O60 C42 1.248 . S
O61 Tb40 2.440 . S
O61 C42 1.266 . S
O62 Tb40 2.658 . S
O62 Tb41 2.325 . S
O62 C49 1.281 . S
O63 Tb40 2.409 . S
O63 C49 1.254 . S
O64 Tb40 2.378 . S
O64 C50 1.236 . S
O65 Tb41 2.341 . S
O65 C50 1.266 . S
O66 Tb41 2.484 . S
O66 C51 1.248 . S
O67 Tb41 2.440 . S
O67 C51 1.266 . S
O68 Tb40 2.325 . S
O68 Tb41 2.658 . S
O68 C58 1.281 . S
O69 Tb41 2.409 . S
O69 C58 1.254 . S
O70 Tb41 2.378 . S
O70 C59 1.236 . S
O71 Tb40 2.341 . S
O71 C59 1.266 . S
H72 C44 0.929 . S
H73 C45 0.931 . S
H74 C47 0.930 . S
H75 C48 0.930 . S
H76 C53 0.929 . S
H77 C54 0.931 . S
H78 C56 0.930 . S
H79 C57 0.930 . S
Tb80 C82 2.809 . S
Tb80 O100 2.484 . S
Tb80 O101 2.440 . S
Tb80 O102 2.658 . S
Tb80 O103 2.409 . S
Tb80 O104 2.378 . S
Tb80 O108 2.325 . S
Tb80 O111 2.341 . S
Tb81 C91 2.809 . S
Tb81 O102 2.325 . S
Tb81 O105 2.341 . S
Tb81 O106 2.484 . S
Tb81 O107 2.440 . S
Tb81 O108 2.658 . S
Tb81 O109 2.409 . S
Tb81 O110 2.378 . S
C82 Tb80 2.809 . S
C82 C83 1.514 . S
C82 O100 1.248 . S
C82 O101 1.266 . S
C83 C82 1.514 . S
C83 C84 1.359 . S
C83 C88 1.348 . S
C84 C83 1.359 . S
C84 C85 1.380 . S
C84 H112 0.929 . S
C85 C84 1.380 . S
C85 C86 1.347 . S
C85 H113 0.931 . S
C86 C85 1.347 . S
C86 C87 1.369 . S
C87 C86 1.369 . S
C87 C88 1.408 . S
C87 H114 0.930 . S
C88 C83 1.348 . S
C88 C87 1.408 . S
C88 H115 0.930 . S
C89 O102 1.281 . S
C89 O103 1.254 . S
C90 O104 1.236 . S
C90 O105 1.266 . S
C91 Tb81 2.809 . S
C91 C92 1.514 . S
C91 O106 1.248 . S
C91 O107 1.266 . S
C92 C91 1.514 . S
C92 C93 1.359 . S
C92 C97 1.348 . S
C93 C92 1.359 . S
C93 C94 1.380 . S
C93 H116 0.929 . S
C94 C93 1.380 . S
C94 C95 1.347 . S
C94 H117 0.931 . S
C95 C94 1.347 . S
C95 C96 1.369 . S
C96 C95 1.369 . S
C96 C97 1.408 . S
C96 H118 0.930 . S
C97 C92 1.348 . S
C97 C96 1.408 . S
C97 H119 0.930 . S
C98 O108 1.281 . S
C98 O109 1.254 . S
C99 O110 1.236 . S
C99 O111 1.266 . S
O100 Tb80 2.484 . S
O100 C82 1.248 . S
O101 Tb80 2.440 . S
O101 C82 1.266 . S
O102 Tb80 2.658 . S
O102 Tb81 2.325 . S
O102 C89 1.281 . S
O103 Tb80 2.409 . S
O103 C89 1.254 . S
O104 Tb80 2.378 . S
O104 C90 1.236 . S
O105 Tb81 2.341 . S
O105 C90 1.266 . S
O106 Tb81 2.484 . S
O106 C91 1.248 . S
O107 Tb81 2.440 . S
O107 C91 1.266 . S
O108 Tb80 2.325 . S
O108 Tb81 2.658 . S
O108 C98 1.281 . S
O109 Tb81 2.409 . S
O109 C98 1.254 . S
O110 Tb81 2.378 . S
O110 C99 1.236 . S
O111 Tb80 2.341 . S
O111 C99 1.266 . S
H112 C84 0.929 . S
H113 C85 0.931 . S
H114 C87 0.930 . S
H115 C88 0.930 . S
H116 C93 0.929 . S
H117 C94 0.931 . S
H118 C96 0.930 . S
H119 C97 0.930 . S
Tb120 C122 2.809 . S
Tb120 O140 2.484 . S
Tb120 O141 2.440 . S
Tb120 O142 2.658 . S
Tb120 O143 2.409 . S
Tb120 O144 2.378 . S
Tb120 O148 2.325 . S
Tb120 O151 2.341 . S
Tb121 C131 2.809 . S
Tb121 O142 2.325 . S
Tb121 O145 2.341 . S
Tb121 O146 2.484 . S
Tb121 O147 2.440 . S
Tb121 O148 2.658 . S
Tb121 O149 2.409 . S
Tb121 O150 2.378 . S
C122 Tb120 2.809 . S
C122 C123 1.514 . S
C122 O140 1.248 . S
C122 O141 1.266 . S
C123 C122 1.514 . S
C123 C124 1.359 . S
C123 C128 1.348 . S
C124 C123 1.359 . S
C124 C125 1.380 . S
C124 H152 0.929 . S
C125 C124 1.380 . S
C125 C126 1.347 . S
C125 H153 0.931 . S
C126 C125 1.347 . S
C126 C127 1.369 . S
C127 C126 1.369 . S
C127 C128 1.408 . S
C127 H154 0.930 . S
C128 C123 1.348 . S
C128 C127 1.408 . S
C128 H155 0.930 . S
C129 O142 1.281 . S
C129 O143 1.254 . S
C130 O144 1.236 . S
C130 O145 1.266 . S
C131 Tb121 2.809 . S
C131 C132 1.514 . S
C131 O146 1.248 . S
C131 O147 1.266 . S
C132 C131 1.514 . S
C132 C133 1.359 . S
C132 C137 1.348 . S
C133 C132 1.359 . S
C133 C134 1.380 . S
C133 H156 0.929 . S
C134 C133 1.380 . S
C134 C135 1.347 . S
C134 H157 0.931 . S
C135 C134 1.347 . S
C135 C136 1.369 . S
C136 C135 1.369 . S
C136 C137 1.408 . S
C136 H158 0.930 . S
C137 C132 1.348 . S
C137 C136 1.408 . S
C137 H159 0.930 . S
C138 O148 1.281 . S
C138 O149 1.254 . S
C139 O150 1.236 . S
C139 O151 1.266 . S
O140 Tb120 2.484 . S
O140 C122 1.248 . S
O141 Tb120 2.440 . S
O141 C122 1.266 . S
O142 Tb120 2.658 . S
O142 Tb121 2.325 . S
O142 C129 1.281 . S
O143 Tb120 2.409 . S
O143 C129 1.254 . S
O144 Tb120 2.378 . S
O144 C130 1.236 . S
O145 Tb121 2.341 . S
O145 C130 1.266 . S
O146 Tb121 2.484 . S
O146 C131 1.248 . S
O147 Tb121 2.440 . S
O147 C131 1.266 . S
O148 Tb120 2.325 . S
O148 Tb121 2.658 . S
O148 C138 1.281 . S
O149 Tb121 2.409 . S
O149 C138 1.254 . S
O150 Tb121 2.378 . S
O150 C139 1.236 . S
O151 Tb120 2.341 . S
O151 C139 1.266 . S
H152 C124 0.929 . S
H153 C125 0.931 . S
H154 C127 0.930 . S
H155 C128 0.930 . S
H156 C133 0.929 . S
H157 C134 0.931 . S
H158 C136 0.930 . S
H159 C137 0.930 . S
Tb160 C162 2.809 1_556 S
Tb160 O180 2.484 1_556 S
Tb160 O181 2.440 1_556 S
Tb160 O182 2.658 . S
Tb160 O183 2.409 . S
Tb160 O184 2.378 1_556 S
Tb160 O188 2.325 1_556 S
Tb160 O191 2.341 . S
Tb161 C171 2.809 1_554 S
Tb161 O182 2.325 1_554 S
Tb161 O185 2.341 . S
Tb161 O186 2.484 1_554 S
Tb161 O187 2.440 1_554 S
Tb161 O188 2.658 . S
Tb161 O189 2.409 . S
Tb161 O190 2.378 1_554 S
C162 Tb160 2.809 1_554 S
C162 C163 1.514 . S
C162 O180 1.248 . S
C162 O181 1.266 . S
C163 C162 1.514 . S
C163 C164 1.359 . S
C163 C168 1.348 . S
C164 C163 1.359 . S
C164 C165 1.380 . S
C164 H192 0.929 . S
C165 C164 1.380 . S
C165 C166 1.347 . S
C165 H193 0.931 . S
C166 C165 1.347 . S
C166 C167 1.369 . S
C167 C166 1.369 . S
C167 C168 1.408 . S
C167 H194 0.930 . S
C168 C163 1.348 . S
C168 C167 1.408 . S
C168 H195 0.930 . S
C169 O182 1.281 . S
C169 O183 1.254 . S
C170 O184 1.236 . S
C170 O185 1.266 . S
C171 Tb161 2.809 1_556 S
C171 C172 1.514 . S
C171 O186 1.248 . S
C171 O187 1.266 . S
C172 C171 1.514 . S
C172 C173 1.359 . S
C172 C177 1.348 . S
C173 C172 1.359 . S
C173 C174 1.380 . S
C173 H196 0.929 . S
C174 C173 1.380 . S
C174 C175 1.347 . S
C174 H197 0.931 . S
C175 C174 1.347 . S
C175 C176 1.369 . S
C176 C175 1.369 . S
C176 C177 1.408 . S
C176 H198 0.930 . S
C177 C172 1.348 . S
C177 C176 1.408 . S
C177 H199 0.930 . S
C178 O188 1.281 . S
C178 O189 1.254 . S
C179 O190 1.236 . S
C179 O191 1.266 . S
O180 Tb160 2.484 1_554 S
O180 C162 1.248 . S
O181 Tb160 2.440 1_554 S
O181 C162 1.266 . S
O182 Tb160 2.658 . S
O182 Tb161 2.325 1_556 S
O182 C169 1.281 . S
O183 Tb160 2.409 . S
O183 C169 1.254 . S
O184 Tb160 2.378 1_554 S
O184 C170 1.236 . S
O185 Tb161 2.341 . S
O185 C170 1.266 . S
O186 Tb161 2.484 1_556 S
O186 C171 1.248 . S
O187 Tb161 2.440 1_556 S
O187 C171 1.266 . S
O188 Tb160 2.325 1_554 S
O188 Tb161 2.658 . S
O188 C178 1.281 . S
O189 Tb161 2.409 . S
O189 C178 1.254 . S
O190 Tb161 2.378 1_556 S
O190 C179 1.236 . S
O191 Tb160 2.341 . S
O191 C179 1.266 . S
H192 C164 0.929 . S
H193 C165 0.931 . S
H194 C167 0.930 . S
H195 C168 0.930 . S
H196 C173 0.929 . S
H197 C174 0.931 . S
H198 C176 0.930 . S
H199 C177 0.930 . S
Tb200 C202 2.809 1_556 S
Tb200 O220 2.484 1_556 S
Tb200 O221 2.440 1_556 S
Tb200 O222 2.658 . S
Tb200 O223 2.409 . S
Tb200 O224 2.378 1_556 S
Tb200 O228 2.325 1_556 S
Tb200 O231 2.341 . S
Tb201 C211 2.809 1_554 S
Tb201 O222 2.325 1_554 S
Tb201 O225 2.341 . S
Tb201 O226 2.484 1_554 S
Tb201 O227 2.440 1_554 S
Tb201 O228 2.658 . S
Tb201 O229 2.409 . S
Tb201 O230 2.378 1_554 S
C202 Tb200 2.809 1_554 S
C202 C203 1.514 . S
C202 O220 1.248 . S
C202 O221 1.266 . S
C203 C202 1.514 . S
C203 C204 1.359 . S
C203 C208 1.348 . S
C204 C203 1.359 . S
C204 C205 1.380 . S
C204 H232 0.929 . S
C205 C204 1.380 . S
C205 C206 1.347 . S
C205 H233 0.931 . S
C206 C205 1.347 . S
C206 C207 1.369 . S
C207 C206 1.369 . S
C207 C208 1.408 . S
C207 H234 0.930 . S
C208 C203 1.348 . S
C208 C207 1.408 . S
C208 H235 0.930 . S
C209 O222 1.281 . S
C209 O223 1.254 . S
C210 O224 1.236 . S
C210 O225 1.266 . S
C211 Tb201 2.809 1_556 S
C211 C212 1.514 . S
C211 O226 1.248 . S
C211 O227 1.266 . S
C212 C211 1.514 . S
C212 C213 1.359 . S
C212 C217 1.348 . S
C213 C212 1.359 . S
C213 C214 1.380 . S
C213 H236 0.929 . S
C214 C213 1.380 . S
C214 C215 1.347 . S
C214 H237 0.931 . S
C215 C214 1.347 . S
C215 C216 1.369 . S
C216 C215 1.369 . S
C216 C217 1.408 . S
C216 H238 0.930 . S
C217 C212 1.348 . S
C217 C216 1.408 . S
C217 H239 0.930 . S
C218 O228 1.281 . S
C218 O229 1.254 . S
C219 O230 1.236 . S
C219 O231 1.266 . S
O220 Tb200 2.484 1_554 S
O220 C202 1.248 . S
O221 Tb200 2.440 1_554 S
O221 C202 1.266 . S
O222 Tb200 2.658 . S
O222 Tb201 2.325 1_556 S
O222 C209 1.281 . S
O223 Tb200 2.409 . S
O223 C209 1.254 . S
O224 Tb200 2.378 1_554 S
O224 C210 1.236 . S
O225 Tb201 2.341 . S
O225 C210 1.266 . S
O226 Tb201 2.484 1_556 S
O226 C211 1.248 . S
O227 Tb201 2.440 1_556 S
O227 C211 1.266 . S
O228 Tb200 2.325 1_554 S
O228 Tb201 2.658 . S
O228 C218 1.281 . S
O229 Tb201 2.409 . S
O229 C218 1.254 . S
O230 Tb201 2.378 1_556 S
O230 C219 1.236 . S
O231 Tb200 2.341 . S
O231 C219 1.266 . S
H232 C204 0.929 . S
H233 C205 0.931 . S
H234 C207 0.930 . S
H235 C208 0.930 . S
H236 C213 0.929 . S
H237 C214 0.931 . S
H238 C216 0.930 . S
H239 C217 0.930 . S
Tb240 C242 2.809 1_554 S
Tb240 O260 2.484 1_554 S
Tb240 O261 2.440 1_554 S
Tb240 O262 2.658 . S
Tb240 O263 2.409 . S
Tb240 O264 2.378 1_554 S
Tb240 O268 2.325 1_554 S
Tb240 O271 2.341 . S
Tb241 C251 2.809 1_556 S
Tb241 O262 2.325 1_556 S
Tb241 O265 2.341 . S
Tb241 O266 2.484 1_556 S
Tb241 O267 2.440 1_556 S
Tb241 O268 2.658 . S
Tb241 O269 2.409 . S
Tb241 O270 2.378 1_556 S
C242 Tb240 2.809 1_556 S
C242 C243 1.514 . S
C242 O260 1.248 . S
C242 O261 1.266 . S
C243 C242 1.514 . S
C243 C244 1.359 . S
C243 C248 1.348 . S
C244 C243 1.359 . S
C244 C245 1.380 . S
C244 H272 0.929 . S
C245 C244 1.380 . S
C245 C246 1.347 . S
C245 H273 0.931 . S
C246 C245 1.347 . S
C246 C247 1.369 . S
C247 C246 1.369 . S
C247 C248 1.408 . S
C247 H274 0.930 . S
C248 C243 1.348 . S
C248 C247 1.408 . S
C248 H275 0.930 . S
C249 O262 1.281 . S
C249 O263 1.254 . S
C250 O264 1.236 . S
C250 O265 1.266 . S
C251 Tb241 2.809 1_554 S
C251 C252 1.514 . S
C251 O266 1.248 . S
C251 O267 1.266 . S
C252 C251 1.514 . S
C252 C253 1.359 . S
C252 C257 1.348 . S
C253 C252 1.359 . S
C253 C254 1.380 . S
C253 H276 0.929 . S
C254 C253 1.380 . S
C254 C255 1.347 . S
C254 H277 0.931 . S
C255 C254 1.347 . S
C255 C256 1.369 . S
C256 C255 1.369 . S
C256 C257 1.408 . S
C256 H278 0.930 . S
C257 C252 1.348 . S
C257 C256 1.408 . S
C257 H279 0.930 . S
C258 O268 1.281 . S
C258 O269 1.254 . S
C259 O270 1.236 . S
C259 O271 1.266 . S
O260 Tb240 2.484 1_556 S
O260 C242 1.248 . S
O261 Tb240 2.440 1_556 S
O261 C242 1.266 . S
O262 Tb240 2.658 . S
O262 Tb241 2.325 1_554 S
O262 C249 1.281 . S
O263 Tb240 2.409 . S
O263 C249 1.254 . S
O264 Tb240 2.378 1_556 S
O264 C250 1.236 . S
O265 Tb241 2.341 . S
O265 C250 1.266 . S
O266 Tb241 2.484 1_554 S
O266 C251 1.248 . S
O267 Tb241 2.440 1_554 S
O267 C251 1.266 . S
O268 Tb240 2.325 1_556 S
O268 Tb241 2.658 . S
O268 C258 1.281 . S
O269 Tb241 2.409 . S
O269 C258 1.254 . S
O270 Tb241 2.378 1_554 S
O270 C259 1.236 . S
O271 Tb240 2.341 . S
O271 C259 1.266 . S
H272 C244 0.929 . S
H273 C245 0.931 . S
H274 C247 0.930 . S
H275 C248 0.930 . S
H276 C253 0.929 . S
H277 C254 0.931 . S
H278 C256 0.930 . S
H279 C257 0.930 . S
Tb280 C282 2.809 1_554 S
Tb280 O300 2.484 1_554 S
Tb280 O301 2.440 1_554 S
Tb280 O302 2.658 . S
Tb280 O303 2.409 . S
Tb280 O304 2.378 1_554 S
Tb280 O308 2.325 1_554 S
Tb280 O311 2.341 . S
Tb281 C291 2.809 1_556 S
Tb281 O302 2.325 1_556 S
Tb281 O305 2.341 . S
Tb281 O306 2.484 1_556 S
Tb281 O307 2.440 1_556 S
Tb281 O308 2.658 . S
Tb281 O309 2.409 . S
Tb281 O310 2.378 1_556 S
C282 Tb280 2.809 1_556 S
C282 C283 1.514 . S
C282 O300 1.248 . S
C282 O301 1.266 . S
C283 C282 1.514 . S
C283 C284 1.359 . S
C283 C288 1.348 . S
C284 C283 1.359 . S
C284 C285 1.380 . S
C284 H312 0.929 . S
C285 C284 1.380 . S
C285 C286 1.347 . S
C285 H313 0.931 . S
C286 C285 1.347 . S
C286 C287 1.369 . S
C287 C286 1.369 . S
C287 C288 1.408 . S
C287 H314 0.930 . S
C288 C283 1.348 . S
C288 C287 1.408 . S
C288 H315 0.930 . S
C289 O302 1.281 . S
C289 O303 1.254 . S
C290 O304 1.236 . S
C290 O305 1.266 . S
C291 Tb281 2.809 1_554 S
C291 C292 1.514 . S
C291 O306 1.248 . S
C291 O307 1.266 . S
C292 C291 1.514 . S
C292 C293 1.359 . S
C292 C297 1.348 . S
C293 C292 1.359 . S
C293 C294 1.380 . S
C293 H316 0.929 . S
C294 C293 1.380 . S
C294 C295 1.347 . S
C294 H317 0.931 . S
C295 C294 1.347 . S
C295 C296 1.369 . S
C296 C295 1.369 . S
C296 C297 1.408 . S
C296 H318 0.930 . S
C297 C292 1.348 . S
C297 C296 1.408 . S
C297 H319 0.930 . S
C298 O308 1.281 . S
C298 O309 1.254 . S
C299 O310 1.236 . S
C299 O311 1.266 . S
O300 Tb280 2.484 1_556 S
O300 C282 1.248 . S
O301 Tb280 2.440 1_556 S
O301 C282 1.266 . S
O302 Tb280 2.658 . S
O302 Tb281 2.325 1_554 S
O302 C289 1.281 . S
O303 Tb280 2.409 . S
O303 C289 1.254 . S
O304 Tb280 2.378 1_556 S
O304 C290 1.236 . S
O305 Tb281 2.341 . S
O305 C290 1.266 . S
O306 Tb281 2.484 1_554 S
O306 C291 1.248 . S
O307 Tb281 2.440 1_554 S
O307 C291 1.266 . S
O308 Tb280 2.325 1_556 S
O308 Tb281 2.658 . S
O308 C298 1.281 . S
O309 Tb281 2.409 . S
O309 C298 1.254 . S
O310 Tb281 2.378 1_554 S
O310 C299 1.236 . S
O311 Tb280 2.341 . S
O311 C299 1.266 . S
H312 C284 0.929 . S
H313 C285 0.931 . S
H314 C287 0.930 . S
H315 C288 0.930 . S
H316 C293 0.929 . S
H317 C294 0.931 . S
H318 C296 0.930 . S
H319 C297 0.930 . S
C320 C321 1.349 . S
C320 C322 1.327 . S
C320 H345 0.950 . S
C321 C320 1.349 . S
C321 C337 1.349 . S
C322 C320 1.327 . S
C322 C341 1.429 . S
C322 H346 0.950 . S
C323 C340 1.574 . S
C323 C342 1.368 . S
C323 H347 0.949 . S
H324 C328 0.949 . S
C325 C326 1.349 . S
C325 C327 1.327 . S
C325 H348 0.950 . S
C326 C325 1.349 . S
C326 C338 1.349 . S
C327 C325 1.327 . S
C327 C343 1.429 . S
C327 H349 0.950 . S
C328 H324 0.949 . S
C328 C336 1.574 . S
C328 C344 1.368 . S
H329 C337 0.950 . S
H330 C335 0.950 . S
H331 C336 0.949 . S
H332 C338 0.950 . S
H333 C339 0.950 . S
H334 C340 0.949 . S
C335 H330 0.950 . S
C335 C337 1.327 . S
C335 C341 1.429 . S
C336 C328 1.574 . S
C336 H331 0.949 . S
C336 C342 1.368 . S
C337 C321 1.349 . S
C337 H329 0.950 . S
C337 C335 1.327 . S
C338 C326 1.349 . S
C338 H332 0.950 . S
C338 C339 1.327 . S
C339 H333 0.950 . S
C339 C338 1.327 . S
C339 C343 1.429 . S
C340 C323 1.574 . S
C340 H334 0.949 . S
C340 C344 1.368 . S
C341 C322 1.429 . S
C341 C335 1.429 . S
C341 C342 1.523 . S
C342 C323 1.368 . S
C342 C336 1.368 . S
C342 C341 1.523 . S
C343 C327 1.429 . S
C343 C339 1.429 . S
C343 C344 1.523 . S
C344 C328 1.368 . S
C344 C340 1.368 . S
C344 C343 1.523 . S
H345 C320 0.950 . S
H346 C322 0.950 . S
H347 C323 0.949 . S
H348 C325 0.950 . S
H349 C327 0.950 . S
C350 C351 1.349 . S
C350 C352 1.327 . S
C350 H375 0.950 . S
C351 C350 1.349 . S
C351 C367 1.349 . S
C352 C350 1.327 . S
C352 C371 1.429 . S
C352 H376 0.950 . S
C353 C370 1.574 . S
C353 C372 1.368 . S
C353 H377 0.949 . S
H354 C358 0.949 . S
C355 C356 1.349 . S
C355 C357 1.327 . S
C355 H378 0.950 . S
C356 C355 1.349 . S
C356 C368 1.349 . S
C357 C355 1.327 . S
C357 C373 1.429 . S
C357 H379 0.950 . S
C358 H354 0.949 . S
C358 C366 1.574 . S
C358 C374 1.368 . S
H359 C367 0.950 . S
H360 C365 0.950 . S
H361 C366 0.949 . S
H362 C368 0.950 . S
H363 C369 0.950 . S
H364 C370 0.949 . S
C365 H360 0.950 . S
C365 C367 1.327 . S
C365 C371 1.429 . S
C366 C358 1.574 . S
C366 H361 0.949 . S
C366 C372 1.368 . S
C367 C351 1.349 . S
C367 H359 0.950 . S
C367 C365 1.327 . S
C368 C356 1.349 . S
C368 H362 0.950 . S
C368 C369 1.327 . S
C369 H363 0.950 . S
C369 C368 1.327 . S
C369 C373 1.429 . S
C370 C353 1.574 . S
C370 H364 0.949 . S
C370 C374 1.368 . S
C371 C352 1.429 . S
C371 C365 1.429 . S
C371 C372 1.523 . S
C372 C353 1.368 . S
C372 C366 1.368 . S
C372 C371 1.523 . S
C373 C357 1.429 . S
C373 C369 1.429 . S
C373 C374 1.523 . S
C374 C358 1.368 . S
C374 C370 1.368 . S
C374 C373 1.523 . S
H375 C350 0.950 . S
H376 C352 0.950 . S
H377 C353 0.949 . S
H378 C355 0.950 . S
H379 C357 0.950 . S
C380 C381 1.349 . S
C380 C382 1.327 . S
C380 H405 0.950 . S
C381 C380 1.349 . S
C381 C397 1.349 . S
C382 C380 1.327 . S
C382 C401 1.429 . S
C382 H406 0.950 . S
C383 C400 1.574 . S
C383 C402 1.368 . S
C383 H407 0.949 . S
H384 C388 0.949 . S
C385 C386 1.349 . S
C385 C387 1.327 . S
C385 H408 0.950 . S
C386 C385 1.349 . S
C386 C398 1.349 . S
C387 C385 1.327 . S
C387 C403 1.429 . S
C387 H409 0.950 . S
C388 H384 0.949 . S
C388 C396 1.574 . S
C388 C404 1.368 . S
H389 C397 0.950 . S
H390 C395 0.950 . S
H391 C396 0.949 . S
H392 C398 0.950 . S
H393 C399 0.950 . S
H394 C400 0.949 . S
C395 H390 0.950 . S
C395 C397 1.327 . S
C395 C401 1.429 . S
C396 C388 1.574 . S
C396 H391 0.949 . S
C396 C402 1.368 . S
C397 C381 1.349 . S
C397 H389 0.950 . S
C397 C395 1.327 . S
C398 C386 1.349 . S
C398 H392 0.950 . S
C398 C399 1.327 . S
C399 H393 0.950 . S
C399 C398 1.327 . S
C399 C403 1.429 . S
C400 C383 1.574 . S
C400 H394 0.949 . S
C400 C404 1.368 . S
C401 C382 1.429 . S
C401 C395 1.429 . S
C401 C402 1.523 . S
C402 C383 1.368 . S
C402 C396 1.368 . S
C402 C401 1.523 . S
C403 C387 1.429 . S
C403 C399 1.429 . S
C403 C404 1.523 . S
C404 C388 1.368 . S
C404 C400 1.368 . S
C404 C403 1.523 . S
H405 C380 0.950 . S
H406 C382 0.950 . S
H407 C383 0.949 . S
H408 C385 0.950 . S
H409 C387 0.950 . S
C410 C411 1.349 . S
C410 C412 1.327 . S
C410 H435 0.950 . S
C411 C410 1.349 . S
C411 C427 1.349 . S
C412 C410 1.327 . S
C412 C431 1.429 . S
C412 H436 0.950 . S
C413 C430 1.574 . S
C413 C432 1.368 . S
C413 H437 0.949 . S
H414 C418 0.949 . S
C415 C416 1.349 . S
C415 C417 1.327 . S
C415 H438 0.950 . S
C416 C415 1.349 . S
C416 C428 1.349 . S
C417 C415 1.327 . S
C417 C433 1.429 . S
C417 H439 0.950 . S
C418 H414 0.949 . S
C418 C426 1.574 . S
C418 C434 1.368 . S
H419 C427 0.950 . S
H420 C425 0.950 . S
H421 C426 0.949 . S
H422 C428 0.950 . S
H423 C429 0.950 . S
H424 C430 0.949 . S
C425 H420 0.950 . S
C425 C427 1.327 . S
C425 C431 1.429 . S
C426 C418 1.574 . S
C426 H421 0.949 . S
C426 C432 1.368 . S
C427 C411 1.349 . S
C427 H419 0.950 . S
C427 C425 1.327 . S
C428 C416 1.349 . S
C428 H422 0.950 . S
C428 C429 1.327 . S
C429 H423 0.950 . S
C429 C428 1.327 . S
C429 C433 1.429 . S
C430 C413 1.574 . S
C430 H424 0.949 . S
C430 C434 1.368 . S
C431 C412 1.429 . S
C431 C425 1.429 . S
C431 C432 1.523 . S
C432 C413 1.368 . S
C432 C426 1.368 . S
C432 C431 1.523 . S
C433 C417 1.429 . S
C433 C429 1.429 . S
C433 C434 1.523 . S
C434 C418 1.368 . S
C434 C430 1.368 . S
C434 C433 1.523 . S
H435 C410 0.950 . S
H436 C412 0.950 . S
H437 C413 0.949 . S
H438 C415 0.950 . S
H439 C417 0.950 . S
C440 C441 1.349 . S
C440 C442 1.327 . S
C440 H465 0.950 . S
C441 C440 1.349 . S
C441 C457 1.349 . S
C442 C440 1.327 . S
C442 C461 1.429 . S
C442 H466 0.950 . S
C443 C460 1.574 1_565 S
C443 C462 1.368 . S
C443 H467 0.949 . S
H444 C448 0.949 . S
C445 C446 1.349 . S
C445 C447 1.327 . S
C445 H468 0.950 . S
C446 C445 1.349 . S
C446 C458 1.349 . S
C447 C445 1.327 . S
C447 C463 1.429 . S
C447 H469 0.950 . S
C448 H444 0.949 . S
C448 C456 1.574 1_545 S
C448 C464 1.368 . S
H449 C457 0.950 . S
H450 C455 0.950 . S
H451 C456 0.949 . S
H452 C458 0.950 . S
H453 C459 0.950 . S
H454 C460 0.949 . S
C455 H450 0.950 . S
C455 C457 1.327 . S
C455 C461 1.429 . S
C456 C448 1.574 1_565 S
C456 H451 0.949 . S
C456 C462 1.368 . S
C457 C441 1.349 . S
C457 H449 0.950 . S
C457 C455 1.327 . S
C458 C446 1.349 . S
C458 H452 0.950 . S
C458 C459 1.327 . S
C459 H453 0.950 . S
C459 C458 1.327 . S
C459 C463 1.429 . S
C460 C443 1.574 1_545 S
C460 H454 0.949 . S
C460 C464 1.368 . S
C461 C442 1.429 . S
C461 C455 1.429 . S
C461 C462 1.523 . S
C462 C443 1.368 . S
C462 C456 1.368 . S
C462 C461 1.523 . S
C463 C447 1.429 . S
C463 C459 1.429 . S
C463 C464 1.523 . S
C464 C448 1.368 . S
C464 C460 1.368 . S
C464 C463 1.523 . S
H465 C440 0.950 . S
H466 C442 0.950 . S
H467 C443 0.949 . S
H468 C445 0.950 . S
H469 C447 0.950 . S
C470 C471 1.349 . S
C470 C472 1.327 . S
C470 H495 0.950 . S
C471 C470 1.349 . S
C471 C487 1.349 . S
C472 C470 1.327 . S
C472 C491 1.429 . S
C472 H496 0.950 . S
C473 C490 1.574 . S
C473 C492 1.368 . S
C473 H497 0.949 . S
H474 C478 0.949 . S
C475 C476 1.349 . S
C475 C477 1.327 . S
C475 H498 0.950 . S
C476 C475 1.349 . S
C476 C488 1.349 . S
C477 C475 1.327 . S
C477 C493 1.429 . S
C477 H499 0.950 . S
C478 H474 0.949 . S
C478 C486 1.574 . S
C478 C494 1.368 . S
H479 C487 0.950 . S
H480 C485 0.950 . S
H481 C486 0.949 . S
H482 C488 0.950 . S
H483 C489 0.950 . S
H484 C490 0.949 . S
C485 H480 0.950 . S
C485 C487 1.327 . S
C485 C491 1.429 . S
C486 C478 1.574 . S
C486 H481 0.949 . S
C486 C492 1.368 . S
C487 C471 1.349 . S
C487 H479 0.950 . S
C487 C485 1.327 . S
C488 C476 1.349 . S
C488 H482 0.950 . S
C488 C489 1.327 . S
C489 H483 0.950 . S
C489 C488 1.327 . S
C489 C493 1.429 . S
C490 C473 1.574 . S
C490 H484 0.949 . S
C490 C494 1.368 . S
C491 C472 1.429 . S
C491 C485 1.429 . S
C491 C492 1.523 . S
C492 C473 1.368 . S
C492 C486 1.368 . S
C492 C491 1.523 . S
C493 C477 1.429 . S
C493 C489 1.429 . S
C493 C494 1.523 . S
C494 C478 1.368 . S
C494 C490 1.368 . S
C494 C493 1.523 . S
H495 C470 0.950 . S
H496 C472 0.950 . S
H497 C473 0.949 . S
H498 C475 0.950 . S
H499 C477 0.950 . S
C500 C501 1.349 . S
C500 C502 1.327 . S
C500 H525 0.950 . S
C501 C500 1.349 . S
C501 C517 1.349 . S
C502 C500 1.327 . S
C502 C521 1.429 . S
C502 H526 0.950 . S
C503 C520 1.574 1_565 S
C503 C522 1.368 . S
C503 H527 0.949 . S
H504 C508 0.949 . S
C505 C506 1.349 . S
C505 C507 1.327 . S
C505 H528 0.950 . S
C506 C505 1.349 . S
C506 C518 1.349 . S
C507 C505 1.327 . S
C507 C523 1.429 . S
C507 H529 0.950 . S
C508 H504 0.949 . S
C508 C516 1.574 1_545 S
C508 C524 1.368 . S
H509 C517 0.950 . S
H510 C515 0.950 . S
H511 C516 0.949 . S
H512 C518 0.950 . S
H513 C519 0.950 . S
H514 C520 0.949 . S
C515 H510 0.950 . S
C515 C517 1.327 . S
C515 C521 1.429 . S
C516 C508 1.574 1_565 S
C516 H511 0.949 . S
C516 C522 1.368 . S
C517 C501 1.349 . S
C517 H509 0.950 . S
C517 C515 1.327 . S
C518 C506 1.349 . S
C518 H512 0.950 . S
C518 C519 1.327 . S
C519 H513 0.950 . S
C519 C518 1.327 . S
C519 C523 1.429 . S
C520 C503 1.574 1_545 S
C520 H514 0.949 . S
C520 C524 1.368 . S
C521 C502 1.429 . S
C521 C515 1.429 . S
C521 C522 1.523 . S
C522 C503 1.368 . S
C522 C516 1.368 . S
C522 C521 1.523 . S
C523 C507 1.429 . S
C523 C519 1.429 . S
C523 C524 1.523 . S
C524 C508 1.368 . S
C524 C520 1.368 . S
C524 C523 1.523 . S
H525 C500 0.950 . S
H526 C502 0.950 . S
H527 C503 0.949 . S
H528 C505 0.950 . S
H529 C507 0.950 . S
C530 C531 1.349 . S
C530 C532 1.327 . S
C530 H555 0.950 . S
C531 C530 1.349 . S
C531 C547 1.349 . S
C532 C530 1.327 . S
C532 C551 1.429 . S
C532 H556 0.950 . S
C533 C550 1.574 . S
C533 C552 1.368 . S
C533 H557 0.949 . S
H534 C538 0.949 . S
C535 C536 1.349 . S
C535 C537 1.327 . S
C535 H558 0.950 . S
C536 C535 1.349 . S
C536 C548 1.349 . S
C537 C535 1.327 . S
C537 C553 1.429 . S
C537 H559 0.950 . S
C538 H534 0.949 . S
C538 C546 1.574 . S
C538 C554 1.368 . S
H539 C547 0.950 . S
H540 C545 0.950 . S
H541 C546 0.949 . S
H542 C548 0.950 . S
H543 C549 0.950 . S
H544 C550 0.949 . S
C545 H540 0.950 . S
C545 C547 1.327 . S
C545 C551 1.429 . S
C546 C538 1.574 . S
C546 H541 0.949 . S
C546 C552 1.368 . S
C547 C531 1.349 . S
C547 H539 0.950 . S
C547 C545 1.327 . S
C548 C536 1.349 . S
C548 H542 0.950 . S
C548 C549 1.327 . S
C549 H543 0.950 . S
C549 C548 1.327 . S
C549 C553 1.429 . S
C550 C533 1.574 . S
C550 H544 0.949 . S
C550 C554 1.368 . S
C551 C532 1.429 . S
C551 C545 1.429 . S
C551 C552 1.523 . S
C552 C533 1.368 . S
C552 C546 1.368 . S
C552 C551 1.523 . S
C553 C537 1.429 . S
C553 C549 1.429 . S
C553 C554 1.523 . S
C554 C538 1.368 . S
C554 C550 1.368 . S
C554 C553 1.523 . S
H555 C530 0.950 . S
H556 C532 0.950 . S
H557 C533 0.949 . S
H558 C535 0.950 . S
H559 C537 0.950 . S
C560 C561 1.357 . S
C560 C562 1.327 . S
C560 H585 0.950 . S
C561 C560 1.357 . S
C561 C577 1.341 1_554 S
C562 C560 1.327 . S
C562 C581 1.432 . S
C562 H586 0.950 . S
C563 C580 1.574 . S
C563 C582 1.366 1_556 S
C563 H587 0.949 . S
H564 C568 0.949 . S
C565 C566 1.354 . S
C565 C567 1.327 . S
C565 H588 0.950 . S
C566 C565 1.354 . S
C566 C578 1.344 1_556 S
C567 C565 1.327 . S
C567 C583 1.430 . S
C567 H589 0.950 . S
C568 H564 0.949 . S
C568 C576 1.574 . S
C568 C584 1.369 1_554 S
H569 C577 0.950 . S
H570 C575 0.950 . S
H571 C576 0.949 . S
H572 C578 0.950 . S
H573 C579 0.950 . S
H574 C580 0.949 . S
C575 H570 0.950 . S
C575 C577 1.327 . S
C575 C581 1.425 1_556 S
C576 C568 1.574 . S
C576 H571 0.949 . S
C576 C582 1.370 . S
C577 C561 1.341 1_556 S
C577 H569 0.950 . S
C577 C575 1.327 . S
C578 C566 1.344 1_554 S
C578 H572 0.950 . S
C578 C579 1.327 . S
C579 H573 0.950 . S
C579 C578 1.327 . S
C579 C583 1.427 1_554 S
C580 C563 1.574 . S
C580 H574 0.949 . S
C580 C584 1.367 . S
C581 C562 1.432 . S
C581 C575 1.425 1_554 S
C581 C582 1.523 . S
C582 C563 1.366 1_554 S
C582 C576 1.370 . S
C582 C581 1.523 . S
C583 C567 1.430 . S
C583 C579 1.427 1_556 S
C583 C584 1.523 . S
C584 C568 1.369 1_556 S
C584 C580 1.367 . S
C584 C583 1.523 . S
H585 C560 0.950 . S
H586 C562 0.950 . S
H587 C563 0.949 . S
H588 C565 0.950 . S
H589 C567 0.950 . S
C590 C591 1.341 1_556 S
C590 C592 1.327 . S
C590 H615 0.950 . S
C591 C590 1.341 1_554 S
C591 C607 1.357 . S
C592 C590 1.327 . S
C592 C611 1.425 1_556 S
C592 H616 0.950 . S
C593 C610 1.574 1_565 S
C593 C612 1.370 . S
C593 H617 0.949 . S
H594 C598 0.949 . S
C595 C596 1.344 1_554 S
C595 C597 1.327 . S
C595 H618 0.950 . S
C596 C595 1.344 1_556 S
C596 C608 1.354 . S
C597 C595 1.327 . S
C597 C613 1.427 1_554 S
C597 H619 0.950 . S
C598 H594 0.949 . S
C598 C606 1.574 1_545 S
C598 C614 1.367 . S
H599 C607 0.950 . S
H600 C605 0.950 . S
H601 C606 0.949 . S
H602 C608 0.950 . S
H603 C609 0.950 . S
H604 C610 0.949 . S
C605 H600 0.950 . S
C605 C607 1.327 . S
C605 C611 1.432 . S
C606 C598 1.574 1_565 S
C606 H601 0.949 . S
C606 C612 1.366 1_556 S
C607 C591 1.357 . S
C607 H599 0.950 . S
C607 C605 1.327 . S
C608 C596 1.354 . S
C608 H602 0.950 . S
C608 C609 1.327 . S
C609 H603 0.950 . S
C609 C608 1.327 . S
C609 C613 1.430 . S
C610 C593 1.574 1_545 S
C610 H604 0.949 . S
C610 C614 1.369 1_554 S
C611 C592 1.425 1_554 S
C611 C605 1.432 . S
C611 C612 1.523 . S
C612 C593 1.370 . S
C612 C606 1.366 1_554 S
C612 C611 1.523 . S
C613 C597 1.427 1_556 S
C613 C609 1.430 . S
C613 C614 1.523 . S
C614 C598 1.367 . S
C614 C610 1.369 1_556 S
C614 C613 1.523 . S
H615 C590 0.950 . S
H616 C592 0.950 . S
H617 C593 0.949 . S
H618 C595 0.950 . S
H619 C597 0.950 . S
C620 C621 1.355 . S
C620 C622 1.327 . S
C620 H645 0.950 . S
C621 C620 1.355 . S
C621 C637 1.343 1_554 S
C622 C620 1.327 . S
C622 C641 1.430 . S
C622 H646 0.950 . S
C623 C640 1.574 . S
C623 C642 1.369 1_556 S
C623 H647 0.949 . S
H624 C628 0.949 . S
C625 C626 1.358 . S
C625 C627 1.327 . S
C625 H648 0.950 . S
C626 C625 1.358 . S
C626 C638 1.340 1_556 S
C627 C625 1.327 . S
C627 C643 1.433 . S
C627 H649 0.950 . S
C628 H624 0.949 . S
C628 C636 1.574 . S
C628 C644 1.366 1_554 S
H629 C637 0.950 . S
H630 C635 0.950 . S
H631 C636 0.949 . S
H632 C638 0.950 . S
H633 C639 0.950 . S
H634 C640 0.949 . S
C635 H630 0.950 . S
C635 C637 1.327 . S
C635 C641 1.427 1_556 S
C636 C628 1.574 . S
C636 H631 0.949 . S
C636 C642 1.367 . S
C637 C621 1.343 1_556 S
C637 H629 0.950 . S
C637 C635 1.327 . S
C638 C626 1.340 1_554 S
C638 H632 0.950 . S
C638 C639 1.327 . S
C639 H633 0.950 . S
C639 C638 1.327 . S
C639 C643 1.424 1_554 S
C640 C623 1.574 . S
C640 H634 0.949 . S
C640 C644 1.371 . S
C641 C622 1.430 . S
C641 C635 1.427 1_554 S
C641 C642 1.523 . S
C642 C623 1.369 1_554 S
C642 C636 1.367 . S
C642 C641 1.523 . S
C643 C627 1.433 . S
C643 C639 1.424 1_556 S
C643 C644 1.523 . S
C644 C628 1.366 1_556 S
C644 C640 1.371 . S
C644 C643 1.523 . S
H645 C620 0.950 . S
H646 C622 0.950 . S
H647 C623 0.949 . S
H648 C625 0.950 . S
H649 C627 0.950 . S
C650 C651 1.343 1_556 S
C650 C652 1.327 . S
C650 H675 0.950 . S
C651 C650 1.343 1_554 S
C651 C667 1.355 . S
C652 C650 1.327 . S
C652 C671 1.427 1_556 S
C652 H676 0.950 . S
C653 C670 1.574 1_545 S
C653 C672 1.367 . S
C653 H677 0.949 . S
H654 C658 0.949 . S
C655 C656 1.340 1_554 S
C655 C657 1.327 . S
C655 H678 0.950 . S
C656 C655 1.340 1_556 S
C656 C668 1.358 . S
C657 C655 1.327 . S
C657 C673 1.424 1_554 S
C657 H679 0.950 . S
C658 H654 0.949 . S
C658 C666 1.574 1_565 S
C658 C674 1.371 . S
H659 C667 0.950 . S
H660 C665 0.950 . S
H661 C666 0.949 . S
H662 C668 0.950 . S
H663 C669 0.950 . S
H664 C670 0.949 . S
C665 H660 0.950 . S
C665 C667 1.327 . S
C665 C671 1.430 . S
C666 C658 1.574 1_545 S
C666 H661 0.949 . S
C666 C672 1.369 1_556 S
C667 C651 1.355 . S
C667 H659 0.950 . S
C667 C665 1.327 . S
C668 C656 1.358 . S
C668 H662 0.950 . S
C668 C669 1.327 . S
C669 H663 0.950 . S
C669 C668 1.327 . S
C669 C673 1.433 . S
C670 C653 1.574 1_565 S
C670 H664 0.949 . S
C670 C674 1.366 1_554 S
C671 C652 1.427 1_554 S
C671 C665 1.430 . S
C671 C672 1.523 . S
C672 C653 1.367 . S
C672 C666 1.369 1_554 S
C672 C671 1.523 . S
C673 C657 1.424 1_556 S
C673 C669 1.433 . S
C673 C674 1.523 . S
C674 C658 1.371 . S
C674 C670 1.366 1_556 S
C674 C673 1.523 . S
H675 C650 0.950 . S
H676 C652 0.950 . S
H677 C653 0.949 . S
H678 C655 0.950 . S
H679 C657 0.950 . S
C680 C681 1.349 . S
C680 C682 1.327 . S
C680 H705 0.950 . S
C681 C680 1.349 . S
C681 C697 1.349 . S
C682 C680 1.327 . S
C682 C701 1.429 . S
C682 H706 0.950 . S
C683 C700 1.574 . S
C683 C702 1.368 1_556 S
C683 H707 0.949 1_556 S
H684 C688 0.949 . S
C685 C686 1.349 . S
C685 C687 1.327 . S
C685 H708 0.950 . S
C686 C685 1.349 . S
C686 C698 1.349 . S
C687 C685 1.327 . S
C687 C703 1.429 . S
C687 H709 0.950 . S
C688 H684 0.949 . S
C688 C696 1.574 . S
C688 C704 1.368 . S
H689 C697 0.950 . S
H690 C695 0.950 . S
H691 C696 0.949 1_554 S
H692 C698 0.950 . S
H693 C699 0.950 . S
H694 C700 0.949 . S
C695 H690 0.950 . S
C695 C697 1.327 . S
C695 C701 1.429 . S
C696 C688 1.574 . S
C696 H691 0.949 1_556 S
C696 C702 1.368 1_556 S
C697 C681 1.349 . S
C697 H689 0.950 . S
C697 C695 1.327 . S
C698 C686 1.349 . S
C698 H692 0.950 . S
C698 C699 1.327 . S
C699 H693 0.950 . S
C699 C698 1.327 . S
C699 C703 1.429 . S
C700 C683 1.574 . S
C700 H694 0.949 . S
C700 C704 1.368 . S
C701 C682 1.429 . S
C701 C695 1.429 . S
C701 C702 1.523 . S
C702 C683 1.368 1_554 S
C702 C696 1.368 1_554 S
C702 C701 1.523 . S
C703 C687 1.429 . S
C703 C699 1.429 . S
C703 C704 1.523 . S
C704 C688 1.368 . S
C704 C700 1.368 . S
C704 C703 1.523 . S
H705 C680 0.950 . S
H706 C682 0.950 . S
H707 C683 0.949 1_554 S
H708 C685 0.950 . S
H709 C687 0.950 . S
C710 C711 1.349 . S
C710 C712 1.327 . S
C710 H735 0.950 . S
C711 C710 1.349 . S
C711 C727 1.349 . S
C712 C710 1.327 . S
C712 C731 1.429 . S
C712 H736 0.950 . S
C713 C730 1.574 . S
C713 C732 1.368 1_556 S
C713 H737 0.950 1_556 S
H714 C718 0.949 . S
C715 C716 1.349 . S
C715 C717 1.327 . S
C715 H738 0.950 . S
C716 C715 1.349 . S
C716 C728 1.349 . S
C717 C715 1.327 . S
C717 C733 1.429 . S
C717 H739 0.950 . S
C718 H714 0.949 . S
C718 C726 1.574 . S
C718 C734 1.368 . S
H719 C727 0.950 . S
H720 C725 0.950 . S
H721 C726 0.949 1_554 S
H722 C728 0.950 . S
H723 C729 0.950 . S
H724 C730 0.949 . S
C725 H720 0.950 . S
C725 C727 1.327 . S
C725 C731 1.429 . S
C726 C718 1.574 . S
C726 H721 0.949 1_556 S
C726 C732 1.368 1_556 S
C727 C711 1.349 . S
C727 H719 0.950 . S
C727 C725 1.327 . S
C728 C716 1.349 . S
C728 H722 0.950 . S
C728 C729 1.327 . S
C729 H723 0.950 . S
C729 C728 1.327 . S
C729 C733 1.429 . S
C730 C713 1.574 . S
C730 H724 0.949 . S
C730 C734 1.368 . S
C731 C712 1.429 . S
C731 C725 1.429 . S
C731 C732 1.523 . S
C732 C713 1.368 1_554 S
C732 C726 1.368 1_554 S
C732 C731 1.523 . S
C733 C717 1.429 . S
C733 C729 1.429 . S
C733 C734 1.523 . S
C734 C718 1.368 . S
C734 C730 1.368 . S
C734 C733 1.523 . S
H735 C710 0.950 . S
H736 C712 0.950 . S
H737 C713 0.950 1_554 S
H738 C715 0.950 . S
H739 C717 0.950 . S
C740 C741 1.349 . S
C740 C742 1.327 . S
C740 H765 0.950 . S
C741 C740 1.349 . S
C741 C757 1.349 . S
C742 C740 1.327 . S
C742 C761 1.429 . S
C742 H766 0.950 . S
C743 C760 1.574 . S
C743 C762 1.368 . S
C743 H767 0.949 . S
H744 C748 0.955 . S
C745 C746 1.349 . S
C745 C747 1.327 . S
C745 H768 0.950 . S
C746 C745 1.349 . S
C746 C758 1.349 . S
C747 C745 1.327 . S
C747 C763 1.429 . S
C747 H769 0.950 . S
C748 H744 0.955 . S
C748 C756 1.574 . S
C748 C764 1.368 1_554 S
H749 C757 0.950 . S
H750 C755 0.950 . S
H751 C756 0.949 . S
H752 C758 0.950 . S
H753 C759 0.950 . S
H754 C760 0.949 1_556 S
C755 H750 0.950 . S
C755 C757 1.327 . S
C755 C761 1.429 . S
C756 C748 1.574 . S
C756 H751 0.949 . S
C756 C762 1.368 . S
C757 C741 1.349 . S
C757 H749 0.950 . S
C757 C755 1.327 . S
C758 C746 1.349 . S
C758 H752 0.950 . S
C758 C759 1.327 . S
C759 H753 0.950 . S
C759 C758 1.327 . S
C759 C763 1.429 . S
C760 C743 1.574 . S
C760 H754 0.949 1_554 S
C760 C764 1.368 1_554 S
C761 C742 1.429 . S
C761 C755 1.429 . S
C761 C762 1.523 . S
C762 C743 1.368 . S
C762 C756 1.368 . S
C762 C761 1.523 . S
C763 C747 1.429 . S
C763 C759 1.429 . S
C763 C764 1.523 . S
C764 C748 1.368 1_556 S
C764 C760 1.368 1_556 S
C764 C763 1.523 . S
H765 C740 0.950 . S
H766 C742 0.950 . S
H767 C743 0.949 . S
H768 C745 0.950 . S
H769 C747 0.950 . S
C770 C771 1.349 . S
C770 C772 1.327 . S
C770 H795 0.950 . S
C771 C770 1.349 . S
C771 C787 1.349 . S
C772 C770 1.327 . S
C772 C791 1.429 . S
C772 H796 0.950 . S
C773 C790 1.574 . S
C773 C792 1.368 1_554 S
C773 H797 0.949 1_554 S
H774 C778 0.949 . S
C775 C776 1.349 . S
C775 C777 1.327 . S
C775 H798 0.950 . S
C776 C775 1.349 . S
C776 C788 1.349 . S
C777 C775 1.327 . S
C777 C793 1.429 . S
C777 H799 0.950 . S
C778 H774 0.949 . S
C778 C786 1.574 . S
C778 C794 1.368 . S
H779 C787 0.950 . S
H780 C785 0.950 . S
H781 C786 0.949 1_556 S
H782 C788 0.950 . S
H783 C789 0.950 . S
H784 C790 0.949 . S
C785 H780 0.950 . S
C785 C787 1.327 . S
C785 C791 1.429 . S
C786 C778 1.574 . S
C786 H781 0.949 1_554 S
C786 C792 1.368 1_554 S
C787 C771 1.349 . S
C787 H779 0.950 . S
C787 C785 1.327 . S
C788 C776 1.349 . S
C788 H782 0.950 . S
C788 C789 1.327 . S
C789 H783 0.950 . S
C789 C788 1.327 . S
C789 C793 1.429 . S
C790 C773 1.574 . S
C790 H784 0.949 . S
C790 C794 1.368 . S
C791 C772 1.429 . S
C791 C785 1.429 . S
C791 C792 1.523 . S
C792 C773 1.368 1_556 S
C792 C786 1.368 1_556 S
C792 C791 1.523 . S
C793 C777 1.429 . S
C793 C789 1.429 . S
C793 C794 1.523 . S
C794 C778 1.368 . S
C794 C790 1.368 . S
C794 C793 1.523 . S
H795 C770 0.950 . S
H796 C772 0.950 . S
H797 C773 0.949 1_556 S
H798 C775 0.950 . S
H799 C777 0.950 . S
C800 C801 1.349 . S
C800 C802 1.327 . S
C800 H825 0.950 . S
C801 C800 1.349 . S
C801 C817 1.349 . S
C802 C800 1.327 . S
C802 C821 1.429 . S
C802 H826 0.950 . S
C803 C820 1.574 . S
C803 C822 1.368 . S
C803 H827 0.949 . S
H804 C808 0.949 . S
C805 C806 1.349 . S
C805 C807 1.327 . S
C805 H828 0.950 . S
C806 C805 1.349 . S
C806 C818 1.349 . S
C807 C805 1.327 . S
C807 C823 1.429 . S
C807 H829 0.950 . S
C808 H804 0.949 . S
C808 C816 1.574 . S
C808 C824 1.368 . S
H809 C817 0.950 . S
H810 C815 0.950 . S
H811 C816 0.949 . S
H812 C818 0.950 . S
H813 C819 0.950 . S
H814 C820 0.949 . S
C815 H810 0.950 . S
C815 C817 1.327 . S
C815 C821 1.429 . S
C816 C808 1.574 . S
C816 H811 0.949 . S
C816 C822 1.368 . S
C817 C801 1.349 . S
C817 H809 0.950 . S
C817 C815 1.327 . S
C818 C806 1.349 . S
C818 H812 0.950 . S
C818 C819 1.327 . S
C819 H813 0.950 . S
C819 C818 1.327 . S
C819 C823 1.429 . S
C820 C803 1.574 . S
C820 H814 0.949 . S
C820 C824 1.368 . S
C821 C802 1.429 . S
C821 C815 1.429 . S
C821 C822 1.523 . S
C822 C803 1.368 . S
C822 C816 1.368 . S
C822 C821 1.523 . S
C823 C807 1.429 . S
C823 C819 1.429 . S
C823 C824 1.523 . S
C824 C808 1.368 . S
C824 C820 1.368 . S
C824 C823 1.523 . S
H825 C800 0.950 . S
H826 C802 0.950 . S
H827 C803 0.949 . S
H828 C805 0.950 . S
H829 C807 0.950 . S
C830 C831 1.349 . S
C830 C832 1.327 . S
C830 H855 0.950 . S
C831 C830 1.349 . S
C831 C847 1.349 . S
C832 C830 1.327 . S
C832 C851 1.429 . S
C832 H856 0.950 . S
C833 C850 1.574 . S
C833 C852 1.368 . S
C833 H857 0.949 . S
H834 C838 0.949 . S
C835 C836 1.349 . S
C835 C837 1.327 . S
C835 H858 0.950 . S
C836 C835 1.349 . S
C836 C848 1.349 . S
C837 C835 1.327 . S
C837 C853 1.429 . S
C837 H859 0.950 . S
C838 H834 0.949 . S
C838 C846 1.574 . S
C838 C854 1.368 . S
H839 C847 0.950 . S
H840 C845 0.950 . S
H841 C846 0.949 . S
H842 C848 0.950 . S
H843 C849 0.950 . S
H844 C850 0.949 . S
C845 H840 0.950 . S
C845 C847 1.327 . S
C845 C851 1.429 . S
C846 C838 1.574 . S
C846 H841 0.949 . S
C846 C852 1.368 . S
C847 C831 1.349 . S
C847 H839 0.950 . S
C847 C845 1.327 . S
C848 C836 1.349 . S
C848 H842 0.950 . S
C848 C849 1.327 . S
C849 H843 0.950 . S
C849 C848 1.327 . S
C849 C853 1.429 . S
C850 C833 1.574 . S
C850 H844 0.949 . S
C850 C854 1.368 . S
C851 C832 1.429 . S
C851 C845 1.429 . S
C851 C852 1.523 . S
C852 C833 1.368 . S
C852 C846 1.368 . S
C852 C851 1.523 . S
C853 C837 1.429 . S
C853 C849 1.429 . S
C853 C854 1.523 . S
C854 C838 1.368 . S
C854 C850 1.368 . S
C854 C853 1.523 . S
H855 C830 0.950 . S
H856 C832 0.950 . S
H857 C833 0.949 . S
H858 C835 0.950 . S
H859 C837 0.950 . S
C860 C861 1.349 . S
C860 C862 1.327 . S
C860 H885 0.950 . S
C861 C860 1.349 . S
C861 C877 1.349 . S
C862 C860 1.327 . S
C862 C881 1.429 . S
C862 H886 0.950 . S
C863 C880 1.574 . S
C863 C882 1.368 . S
C863 H887 0.949 . S
H864 C868 0.949 . S
C865 C866 1.349 . S
C865 C867 1.327 . S
C865 H888 0.950 . S
C866 C865 1.349 . S
C866 C878 1.349 . S
C867 C865 1.327 . S
C867 C883 1.429 . S
C867 H889 0.950 . S
C868 H864 0.949 . S
C868 C876 1.574 . S
C868 C884 1.368 . S
H869 C877 0.950 . S
H870 C875 0.950 . S
H871 C876 0.949 . S
H872 C878 0.950 . S
H873 C879 0.950 . S
H874 C880 0.949 . S
C875 H870 0.950 . S
C875 C877 1.327 . S
C875 C881 1.429 . S
C876 C868 1.574 . S
C876 H871 0.949 . S
C876 C882 1.368 . S
C877 C861 1.349 . S
C877 H869 0.950 . S
C877 C875 1.327 . S
C878 C866 1.349 . S
C878 H872 0.950 . S
C878 C879 1.327 . S
C879 H873 0.950 . S
C879 C878 1.327 . S
C879 C883 1.429 . S
C880 C863 1.574 . S
C880 H874 0.949 . S
C880 C884 1.368 . S
C881 C862 1.429 . S
C881 C875 1.429 . S
C881 C882 1.523 . S
C882 C863 1.368 . S
C882 C876 1.368 . S
C882 C881 1.523 . S
C883 C867 1.429 . S
C883 C879 1.429 . S
C883 C884 1.523 . S
C884 C868 1.368 . S
C884 C880 1.368 . S
C884 C883 1.523 . S
H885 C860 0.950 . S
H886 C862 0.950 . S
H887 C863 0.949 . S
H888 C865 0.950 . S
H889 C867 0.950 . S
C890 C891 1.349 . S
C890 C892 1.327 . S
C890 H915 0.950 . S
C891 C890 1.349 . S
C891 C907 1.349 . S
C892 C890 1.327 . S
C892 C911 1.429 . S
C892 H916 0.950 . S
C893 C910 1.574 . S
C893 C912 1.368 . S
C893 H917 0.949 . S
H894 C898 0.949 . S
C895 C896 1.349 . S
C895 C897 1.327 . S
C895 H918 0.950 . S
C896 C895 1.349 . S
C896 C908 1.349 . S
C897 C895 1.327 . S
C897 C913 1.429 . S
C897 H919 0.950 . S
C898 H894 0.949 . S
C898 C906 1.574 . S
C898 C914 1.368 . S
H899 C907 0.950 . S
H900 C905 0.950 . S
H901 C906 0.949 . S
H902 C908 0.950 . S
H903 C909 0.950 . S
H904 C910 0.949 . S
C905 H900 0.950 . S
C905 C907 1.327 . S
C905 C911 1.429 . S
C906 C898 1.574 . S
C906 H901 0.949 . S
C906 C912 1.368 . S
C907 C891 1.349 . S
C907 H899 0.950 . S
C907 C905 1.327 . S
C908 C896 1.349 . S
C908 H902 0.950 . S
C908 C909 1.327 . S
C909 H903 0.950 . S
C909 C908 1.327 . S
C909 C913 1.429 . S
C910 C893 1.574 . S
C910 H904 0.949 . S
C910 C914 1.368 . S
C911 C892 1.429 . S
C911 C905 1.429 . S
C911 C912 1.523 . S
C912 C893 1.368 . S
C912 C906 1.368 . S
C912 C911 1.523 . S
C913 C897 1.429 . S
C913 C909 1.429 . S
C913 C914 1.523 . S
C914 C898 1.368 . S
C914 C910 1.368 . S
C914 C913 1.523 . S
H915 C890 0.950 . S
H916 C892 0.950 . S
H917 C893 0.949 . S
H918 C895 0.950 . S
H919 C897 0.950 . S
C920 C921 1.349 . S
C920 C922 1.327 . S
C920 H945 0.950 . S
C921 C920 1.349 . S
C921 C937 1.349 . S
C922 C920 1.327 . S
C922 C941 1.429 . S
C922 H946 0.950 . S
C923 C940 1.574 1_455 S
C923 C942 1.368 . S
C923 H947 0.949 . S
H924 C928 0.949 . S
C925 C926 1.349 . S
C925 C927 1.327 . S
C925 H948 0.950 . S
C926 C925 1.349 . S
C926 C938 1.349 . S
C927 C925 1.327 . S
C927 C943 1.429 . S
C927 H949 0.950 . S
C928 H924 0.949 . S
C928 C936 1.574 1_655 S
C928 C944 1.368 . S
H929 C937 0.950 . S
H930 C935 0.950 . S
H931 C936 0.949 . S
H932 C938 0.950 . S
H933 C939 0.950 . S
H934 C940 0.949 . S
C935 H930 0.950 . S
C935 C937 1.327 . S
C935 C941 1.429 . S
C936 C928 1.574 1_455 S
C936 H931 0.949 . S
C936 C942 1.368 . S
C937 C921 1.349 . S
C937 H929 0.950 . S
C937 C935 1.327 . S
C938 C926 1.349 . S
C938 H932 0.950 . S
C938 C939 1.327 . S
C939 H933 0.950 . S
C939 C938 1.327 . S
C939 C943 1.429 . S
C940 C923 1.574 1_655 S
C940 H934 0.949 . S
C940 C944 1.368 . S
C941 C922 1.429 . S
C941 C935 1.429 . S
C941 C942 1.523 . S
C942 C923 1.368 . S
C942 C936 1.368 . S
C942 C941 1.523 . S
C943 C927 1.429 . S
C943 C939 1.429 . S
C943 C944 1.523 . S
C944 C928 1.368 . S
C944 C940 1.368 . S
C944 C943 1.523 . S
H945 C920 0.950 . S
H946 C922 0.950 . S
H947 C923 0.949 . S
H948 C925 0.950 . S
H949 C927 0.950 . S
C950 C951 1.349 . S
C950 C952 1.327 . S
C950 H975 0.950 . S
C951 C950 1.349 . S
C951 C967 1.349 . S
C952 C950 1.327 . S
C952 C971 1.429 . S
C952 H976 0.950 . S
C953 C970 1.574 1_655 S
C953 C972 1.368 . S
C953 H977 0.949 . S
H954 C958 0.949 . S
C955 C956 1.349 . S
C955 C957 1.327 . S
C955 H978 0.950 . S
C956 C955 1.349 . S
C956 C968 1.349 . S
C957 C955 1.327 . S
C957 C973 1.429 . S
C957 H979 0.950 . S
C958 H954 0.949 . S
C958 C966 1.574 1_455 S
C958 C974 1.368 . S
H959 C967 0.950 . S
H960 C965 0.950 . S
H961 C966 0.949 . S
H962 C968 0.950 . S
H963 C969 0.950 . S
H964 C970 0.949 . S
C965 H960 0.950 . S
C965 C967 1.327 . S
C965 C971 1.429 . S
C966 C958 1.574 1_655 S
C966 H961 0.949 . S
C966 C972 1.368 . S
C967 C951 1.349 . S
C967 H959 0.950 . S
C967 C965 1.327 . S
C968 C956 1.349 . S
C968 H962 0.950 . S
C968 C969 1.327 . S
C969 H963 0.950 . S
C969 C968 1.327 . S
C969 C973 1.429 . S
C970 C953 1.574 1_455 S
C970 H964 0.949 . S
C970 C974 1.368 . S
C971 C952 1.429 . S
C971 C965 1.429 . S
C971 C972 1.523 . S
C972 C953 1.368 . S
C972 C966 1.368 . S
C972 C971 1.523 . S
C973 C957 1.429 . S
C973 C969 1.429 . S
C973 C974 1.523 . S
C974 C958 1.368 . S
C974 C970 1.368 . S
C974 C973 1.523 . S
H975 C950 0.950 . S
H976 C952 0.950 . S
H977 C953 0.949 . S
H978 C955 0.950 . S
H979 C957 0.950 . S
C980 C981 1.349 . S
C980 C982 1.327 . S
C980 H1005 0.950 . S
C981 C980 1.349 . S
C981 C997 1.349 . S
C982 C980 1.327 . S
C982 C1001 1.429 . S
C982 H1006 0.950 . S
C983 C1000 1.574 . S
C983 C1002 1.368 . S
C983 H1007 0.949 . S
H984 C988 0.949 . S
C985 C986 1.349 . S
C985 C987 1.327 . S
C985 H1008 0.950 . S
C986 C985 1.349 . S
C986 C998 1.349 . S
C987 C985 1.327 . S
C987 C1003 1.429 . S
C987 H1009 0.950 . S
C988 H984 0.949 . S
C988 C996 1.574 . S
C988 C1004 1.368 . S
H989 C997 0.950 . S
H990 C995 0.950 . S
H991 C996 0.949 . S
H992 C998 0.950 . S
H993 C999 0.950 . S
H994 C1000 0.949 . S
C995 H990 0.950 . S
C995 C997 1.327 . S
C995 C1001 1.429 . S
C996 C988 1.574 . S
C996 H991 0.949 . S
C996 C1002 1.368 . S
C997 C981 1.349 . S
C997 H989 0.950 . S
C997 C995 1.327 . S
C998 C986 1.349 . S
C998 H992 0.950 . S
C998 C999 1.327 . S
C999 H993 0.950 . S
C999 C998 1.327 . S
C999 C1003 1.429 . S
C1000 C983 1.574 . S
C1000 H994 0.949 . S
C1000 C1004 1.368 . S
C1001 C982 1.429 . S
C1001 C995 1.429 . S
C1001 C1002 1.523 . S
C1002 C983 1.368 . S
C1002 C996 1.368 . S
C1002 C1001 1.523 . S
C1003 C987 1.429 . S
C1003 C999 1.429 . S
C1003 C1004 1.523 . S
C1004 C988 1.368 . S
C1004 C1000 1.368 . S
C1004 C1003 1.523 . S
H1005 C980 0.950 . S
H1006 C982 0.950 . S
H1007 C983 0.949 . S
H1008 C985 0.950 . S
H1009 C987 0.950 . S
C1010 C1011 1.349 . S
C1010 C1012 1.327 . S
C1010 H1035 0.950 . S
C1011 C1010 1.349 . S
C1011 C1027 1.349 . S
C1012 C1010 1.327 . S
C1012 C1031 1.429 . S
C1012 H1036 0.950 . S
C1013 C1030 1.574 . S
C1013 C1032 1.368 . S
C1013 H1037 0.949 . S
H1014 C1018 0.949 . S
C1015 C1016 1.349 . S
C1015 C1017 1.327 . S
C1015 H1038 0.950 . S
C1016 C1015 1.349 . S
C1016 C1028 1.349 . S
C1017 C1015 1.327 . S
C1017 C1033 1.429 . S
C1017 H1039 0.950 . S
C1018 H1014 0.949 . S
C1018 C1026 1.574 . S
C1018 C1034 1.368 . S
H1019 C1027 0.950 . S
H1020 C1025 0.950 . S
H1021 C1026 0.949 . S
H1022 C1028 0.950 . S
H1023 C1029 0.950 . S
H1024 C1030 0.949 . S
C1025 H1020 0.950 . S
C1025 C1027 1.327 . S
C1025 C1031 1.429 . S
C1026 C1018 1.574 . S
C1026 H1021 0.949 . S
C1026 C1032 1.368 . S
C1027 C1011 1.349 . S
C1027 H1019 0.950 . S
C1027 C1025 1.327 . S
C1028 C1016 1.349 . S
C1028 H1022 0.950 . S
C1028 C1029 1.327 . S
C1029 H1023 0.950 . S
C1029 C1028 1.327 . S
C1029 C1033 1.429 . S
C1030 C1013 1.574 . S
C1030 H1024 0.949 . S
C1030 C1034 1.368 . S
C1031 C1012 1.429 . S
C1031 C1025 1.429 . S
C1031 C1032 1.523 . S
C1032 C1013 1.368 . S
C1032 C1026 1.368 . S
C1032 C1031 1.523 . S
C1033 C1017 1.429 . S
C1033 C1029 1.429 . S
C1033 C1034 1.523 . S
C1034 C1018 1.368 . S
C1034 C1030 1.368 . S
C1034 C1033 1.523 . S
H1035 C1010 0.950 . S
H1036 C1012 0.950 . S
H1037 C1013 0.949 . S
H1038 C1015 0.950 . S
H1039 C1017 0.950 . S
C321 C6 1.725 . S
C326 C286 1.724 . S
C351 C246 1.725 . S
C356 C46 1.724 . S
C381 C206 1.725 . S
C386 C86 1.724 . S
C411 C166 1.725 . S
C416 C126 1.724 . S
C441 C89 1.858 . S
C446 C9 1.858 . S
C471 C49 1.858 . S
C476 C129 1.858 . S
C501 C138 1.212 . S
C506 C58 1.212 . S
C531 C98 1.212 . S
C536 C18 1.212 . S
C561 C169 1.758 1_554 S
C566 C249 1.758 1_556 S
C591 C209 1.758 1_554 S
C596 C289 1.758 1_556 S
C621 C298 1.111 1_554 S
C626 C218 1.111 1_556 S
C651 C258 1.111 1_554 S
C656 C178 1.111 1_556 S
C681 C19 2.093 . S
C686 C10 2.093 . S
C711 C59 2.093 . S
C716 C50 2.093 . S
C741 C90 2.093 . S
C746 C99 2.093 . S
C771 C139 2.093 . S
C776 C130 2.093 . S
C801 C170 2.092 . S
C806 C179 2.092 . S
C831 C219 2.092 . S
C836 C210 2.092 . S
C861 C259 2.092 . S
C866 C250 2.092 . S
C891 C299 2.092 . S
C896 C290 2.092 . S
C921 C15 2.406 . S
C926 C55 2.406 . S
C951 C135 2.406 . S
C956 C95 2.406 . S
C981 C175 2.407 . S
C986 C215 2.407 . S
C1011 C295 2.407 . S
C1016 C255 2.407 . S
