# Generated by pormake.
# Topology wht, (6)-cn, num edge types: 1
# Building blocks:
#     Node 0, Type 0, BuildingBlock: VOLQOD_clean_sbu_1, # of connection points: 6
#     Node 1, Type 0, BuildingBlock: VOLQOD_clean_sbu_1, # of connection points: 6
#     Node 2, Type 0, BuildingBlock: VOLQOD_clean_sbu_1, # of connection points: 6
#     Node 3, Type 0, BuildingBlock: VOLQOD_clean_sbu_1, # of connection points: 6
#     Node 4, Type 0, BuildingBlock: VOLQOD_clean_sbu_1, # of connection points: 6
#     Node 5, Type 0, BuildingBlock: VOLQOD_clean_sbu_1, # of connection points: 6
#     Node 6, Type 0, BuildingBlock: VOLQOD_clean_sbu_1, # of connection points: 6
#     Node 7, Type 0, BuildingBlock: VOLQOD_clean_sbu_1, # of connection points: 6
#     Edge 8, Type (0, 0), BuildingBlock: XUDNAN_clean_linker_2, # of connection points: 2
#     Edge 9, Type (0, 0), BuildingBlock: XUDNAN_clean_linker_2, # of connection points: 2
#     Edge 10, Type (0, 0), BuildingBlock: XUDNAN_clean_linker_2, # of connection points: 2
#     Edge 11, Type (0, 0), BuildingBlock: XUDNAN_clean_linker_2, # of connection points: 2
#     Edge 12, Type (0, 0), BuildingBlock: XUDNAN_clean_linker_2, # of connection points: 2
#     Edge 13, Type (0, 0), BuildingBlock: XUDNAN_clean_linker_2, # of connection points: 2
#     Edge 14, Type (0, 0), BuildingBlock: XUDNAN_clean_linker_2, # of connection points: 2
#     Edge 15, Type (0, 0), BuildingBlock: XUDNAN_clean_linker_2, # of connection points: 2
#     Edge 16, Type (0, 0), BuildingBlock: XUDNAN_clean_linker_2, # of connection points: 2
#     Edge 17, Type (0, 0), BuildingBlock: XUDNAN_clean_linker_2, # of connection points: 2
#     Edge 18, Type (0, 0), BuildingBlock: XUDNAN_clean_linker_2, # of connection points: 2
#     Edge 19, Type (0, 0), BuildingBlock: XUDNAN_clean_linker_2, # of connection points: 2
#     Edge 20, Type (0, 0), BuildingBlock: XUDNAN_clean_linker_2, # of connection points: 2
#     Edge 21, Type (0, 0), BuildingBlock: XUDNAN_clean_linker_2, # of connection points: 2
#     Edge 22, Type (0, 0), BuildingBlock: XUDNAN_clean_linker_2, # of connection points: 2
#     Edge 23, Type (0, 0), BuildingBlock: XUDNAN_clean_linker_2, # of connection points: 2
#     Edge 24, Type (0, 0), BuildingBlock: XUDNAN_clean_linker_2, # of connection points: 2
#     Edge 25, Type (0, 0), BuildingBlock: XUDNAN_clean_linker_2, # of connection points: 2
#     Edge 26, Type (0, 0), BuildingBlock: XUDNAN_clean_linker_2, # of connection points: 2
#     Edge 27, Type (0, 0), BuildingBlock: XUDNAN_clean_linker_2, # of connection points: 2
#     Edge 28, Type (0, 0), BuildingBlock: XUDNAN_clean_linker_2, # of connection points: 2
#     Edge 29, Type (0, 0), BuildingBlock: XUDNAN_clean_linker_2, # of connection points: 2
#     Edge 30, Type (0, 0), BuildingBlock: XUDNAN_clean_linker_2, # of connection points: 2
#     Edge 31, Type (0, 0), BuildingBlock: XUDNAN_clean_linker_2, # of connection points: 2
# Relax obj value: 0.362
# Max RMSD: 0.253
# Mean RMSD: 0.253
data_MOF--net-wht--node1-VOLQOD_clean_sbu_1--edge1-XUDNAN_clean_linker_2
_symmetry_space_group_name_H-M    P1
_symmetry_Int_Tables_number       1
_symmetry_cell_setting            triclinic
loop_
_symmetry_equiv_pos_as_xyz
'x, y, z'
_cell_length_a     27.643953
_cell_length_b     27.58964
_cell_length_c     48.611662
_cell_angle_alpha  89.978812
_cell_angle_beta   90.070423
_cell_angle_gamma 89.945188
loop_
_atom_site_label
_atom_site_type_symbol
_atom_site_fract_x
_atom_site_fract_y
_atom_site_fract_z
_atom_type_partial_charge
O0 O 0.17383 0.30646 0.19598 0.0
Zn1 Zn 0.17328 0.29197 0.15536 0.0
O2 O 0.10894 0.27083 0.14714 0.0
Zn3 Zn 0.11596 0.20213 0.14875 0.0
Zn4 Zn 0.06081 0.29019 0.17386 0.0
Zn5 Zn 0.09461 0.29206 0.11066 0.0
O6 O 0.11959 0.17528 0.1111 0.0
O7 O 0.10371 0.23736 0.08334 0.0
O8 O 0.21917 0.23708 0.14396 0.0
O9 O 0.17742 0.18383 0.16741 0.0
O10 O 0.06193 0.1709 0.16781 0.0
O11 O 0.02568 0.23152 0.18953 0.0
O12 O 0.00811 0.33 0.15477 0.0
O13 O 0.18844 0.3535 0.13429 0.0
O14 O 0.02739 0.3164 0.11075 0.0
O15 O 0.13477 0.35018 0.10039 0.0
C16 C 0.14084 0.32082 0.21254 0.0
C17 C 0.11401 0.19274 0.08713 0.0
C18 C 0.02956 0.18656 0.18398 0.0
C19 C 0.21488 0.19436 0.15366 0.0
C20 C -0.00107 0.33305 0.12904 0.0
C21 C 0.16981 0.37126 0.11246 0.0
O22 O 0.09611 0.32207 0.20569 0.0
O23 O 0.28543 0.65441 0.34373 0.0
Zn24 Zn 0.25172 0.67184 0.37852 0.0
O25 O 0.25495 0.61754 0.40339 0.0
Zn26 Zn 0.19174 0.58914 0.40819 0.0
Zn27 Zn 0.3009 0.56989 0.38979 0.0
Zn28 Zn 0.27648 0.64073 0.43855 0.0
O29 O 0.17935 0.57975 0.44879 0.0
O30 O 0.22369 0.63931 0.46665 0.0
O31 O 0.18164 0.6903 0.37014 0.0
O32 O 0.14023 0.63363 0.39275 0.0
O33 O 0.18736 0.52551 0.38731 0.0
O34 O 0.2644 0.51245 0.37642 0.0
O35 O 0.34624 0.54616 0.41972 0.0
O36 O 0.29429 0.72654 0.39237 0.0
O37 O 0.32576 0.59573 0.45369 0.0
O38 O 0.31148 0.70365 0.435 0.0
C39 C 0.32202 0.62753 0.33906 0.0
C40 C 0.19192 0.60612 0.46915 0.0
C41 C 0.22023 0.4996 0.37622 0.0
C42 C 0.14155 0.67137 0.37763 0.0
C43 C 0.35066 0.56064 0.44448 0.0
C44 C 0.31729 0.73256 0.41487 0.0
O45 O 0.33639 0.5959 0.35642 0.0
O46 O 0.84284 0.68541 0.69816 0.0
Zn47 Zn 0.83516 0.70095 0.65756 0.0
O48 O 0.89913 0.71604 0.64275 0.0
Zn49 Zn 0.90435 0.78427 0.63584 0.0
Zn50 Zn 0.94976 0.6968 0.66853 0.0
Zn51 Zn 0.90823 0.68352 0.60824 0.0
O52 O 0.92667 0.79949 0.59781 0.0
O53 O 0.91076 0.73008 0.57635 0.0
O54 O 0.78796 0.75858 0.65229 0.0
O55 O 0.83986 0.81411 0.6375 0.0
O56 O 0.94444 0.817 0.66432 0.0
O57 O 0.98013 0.75562 0.68593 0.0
O58 O 0.00268 0.65706 0.65049 0.0
O59 O 0.81045 0.63858 0.63921 0.0
O60 O 0.97098 0.64931 0.60865 0.0
O61 O 0.8593 0.63133 0.60318 0.0
C62 C 0.87797 0.66514 0.71081 0.0
C63 C 0.9226 0.77468 0.5759 0.0
C64 C 0.97299 0.80083 0.68267 0.0
C65 C 0.79719 0.8015 0.6438 0.0
C66 C 0.00427 0.64087 0.626 0.0
C67 C 0.8242 0.61591 0.61764 0.0
O68 O 0.91976 0.66071 0.70002 0.0
O69 O 0.77551 0.33722 0.96526 0.0
Zn70 Zn 0.76592 0.32138 0.92515 0.0
O71 O 0.74968 0.3799 0.90711 0.0
Zn72 Zn 0.68022 0.38396 0.91015 0.0
Zn73 Zn 0.78139 0.43228 0.92494 0.0
Zn74 Zn 0.77188 0.37375 0.87017 0.0
O75 O 0.65155 0.37675 0.87237 0.0
O76 O 0.71506 0.35869 0.84579 0.0
O77 O 0.71057 0.27488 0.9166 0.0
O78 O 0.65442 0.32613 0.93048 0.0
O79 O 0.65937 0.44582 0.92921 0.0
O80 O 0.73145 0.47815 0.93789 0.0
O81 O 0.82178 0.47189 0.89827 0.0
O82 O 0.83047 0.29941 0.91045 0.0
O83 O 0.8 0.43683 0.85884 0.0
O84 O 0.82827 0.32695 0.86753 0.0
C85 C 0.80059 0.37229 0.97486 0.0
C86 C 0.66957 0.36391 0.84936 0.0
C87 C 0.68557 0.47987 0.93882 0.0
C88 C 0.66637 0.28411 0.92214 0.0
C89 C 0.82115 0.47057 0.87203 0.0
C90 C 0.84957 0.30375 0.88673 0.0
O91 O 0.81333 0.40808 0.95978 0.0
O92 O 0.61841 0.18888 0.54886 0.0
Zn93 Zn 0.62286 0.20262 0.58948 0.0
O94 O 0.55789 0.22085 0.60234 0.0
Zn95 Zn 0.55673 0.28665 0.61578 0.0
Zn96 Zn 0.50958 0.21614 0.573 0.0
Zn97 Zn 0.53999 0.17932 0.63253 0.0
O98 O 0.54138 0.29123 0.65557 0.0
O99 O 0.54078 0.21429 0.66896 0.0
O100 O 0.67144 0.25868 0.59534 0.0
O101 O 0.62209 0.31395 0.61316 0.0
O102 O 0.51516 0.33102 0.59333 0.0
O103 O 0.48878 0.28227 0.56039 0.0
O104 O 0.44893 0.18081 0.5857 0.0
O105 O 0.64476 0.13812 0.60711 0.0
O106 O 0.4737 0.15504 0.62671 0.0
O107 O 0.58305 0.12181 0.63477 0.0
C108 C 0.58349 0.18091 0.53228 0.0
C109 C 0.53913 0.25937 0.67439 0.0
C110 C 0.49253 0.32433 0.57087 0.0
C111 C 0.66381 0.30096 0.60524 0.0
C112 C 0.44166 0.1577 0.60801 0.0
C113 C 0.62328 0.10996 0.62407 0.0
O114 O 0.53948 0.18586 0.53959 0.0
O115 O 0.2659 0.13638 0.7814 0.0
Zn116 Zn 0.26436 0.14532 0.82261 0.0
O117 O 0.2516 0.08223 0.83887 0.0
Zn118 Zn 0.18428 0.079 0.84919 0.0
Zn119 Zn 0.26563 0.02965 0.81312 0.0
Zn120 Zn 0.29132 0.07607 0.87122 0.0
O121 O 0.17653 0.0687 0.88964 0.0
O122 O 0.25176 0.07533 0.9055 0.0
O123 O 0.21056 0.19381 0.8329 0.0
O124 O 0.15168 0.14152 0.84231 0.0
O125 O 0.14788 0.02912 0.82823 0.0
O126 O 0.20515 0.99223 0.80414 0.0
O127 O 0.31404 0.98097 0.82864 0.0
O128 O 0.33113 0.16953 0.83485 0.0
O129 O 0.32574 0.01338 0.87003 0.0
O130 O 0.34281 0.12701 0.87317 0.0
C131 C 0.27766 0.10022 0.76643 0.0
C132 C 0.20661 0.07013 0.90943 0.0
C133 C 0.16106 0.99696 0.81112 0.0
C134 C 0.16623 0.18444 0.83808 0.0
C135 C 0.33319 0.98016 0.85249 0.0
C136 C 0.356 0.15963 0.85629 0.0
O137 O 0.28504 0.05822 0.77665 0.0
O138 O 0.37766 0.7979 0.02389 0.0
Zn139 Zn 0.35779 0.78655 0.06344 0.0
O140 O 0.4162 0.78046 0.08562 0.0
Zn141 Zn 0.42881 0.71414 0.09547 0.0
Zn142 Zn 0.47139 0.80563 0.06573 0.0
Zn143 Zn 0.40738 0.81519 0.11936 0.0
O144 O 0.43957 0.70528 0.13615 0.0
O145 O 0.4014 0.77051 0.15174 0.0
O146 O 0.3161 0.72449 0.06698 0.0
O147 O 0.36982 0.67671 0.08769 0.0
O148 O 0.48304 0.68534 0.07341 0.0
O149 O 0.51572 0.75175 0.05568 0.0
O150 O 0.51052 0.85286 0.08846 0.0
O151 O 0.32208 0.84835 0.07515 0.0
O152 O 0.46548 0.85556 0.12634 0.0
O153 O 0.35254 0.8618 0.1168 0.0
C154 C 0.41436 0.81981 0.0139 0.0
C155 C 0.42086 0.72924 0.15586 0.0
C156 C 0.51535 0.70609 0.059 0.0
C157 C 0.32813 0.68353 0.07735 0.0
C158 C 0.50261 0.86817 0.11274 0.0
C159 C 0.32386 0.87308 0.09734 0.0
O160 O 0.45052 0.83136 0.02888 0.0
O161 O 0.78037 0.88403 0.40369 0.0
Zn162 Zn 0.74938 0.85763 0.36942 0.0
O163 O 0.74816 0.90753 0.34178 0.0
Zn164 Zn 0.68406 0.93056 0.33575 0.0
Zn165 Zn 0.78925 0.95974 0.35444 0.0
Zn166 Zn 0.77093 0.88277 0.30739 0.0
O167 O 0.67099 0.93684 0.29552 0.0
O168 O 0.71865 0.87954 0.27824 0.0
O169 O 0.68067 0.83487 0.37826 0.0
O170 O 0.63625 0.88438 0.35222 0.0
O171 O 0.67434 0.99394 0.35496 0.0
O172 O 0.74747 0.01169 0.37111 0.0
O173 O 0.82839 0.98789 0.32321 0.0
O174 O 0.79683 0.80484 0.35743 0.0
O175 O 0.81669 0.93059 0.29188 0.0
O176 O 0.81001 0.82245 0.31345 0.0
C177 C 0.81923 0.90877 0.40468 0.0
C178 C 0.68486 0.91075 0.2754 0.0
C179 C 0.70243 0.02092 0.36897 0.0
C180 C 0.63964 0.8495 0.36928 0.0
C181 C 0.83586 0.97029 0.29936 0.0
C182 C 0.81891 0.79701 0.33477 0.0
O183 O 0.83302 0.93478 0.38451 0.0
H184 H 0.97994 0.19329 0.23302 0.0
H185 H 0.00654 0.09857 0.16326 0.0
H186 H 0.95904 0.03426 0.18533 0.0
H187 H 0.99146 0.10258 0.28415 0.0
H188 H 0.94393 0.1253 0.30599 0.0
H189 H 0.97683 0.16628 0.28409 0.0
H190 H 0.89662 0.19514 0.2618 0.0
H191 H 0.8634 0.15465 0.28388 0.0
H192 H 0.85598 0.1511 0.24709 0.0
H193 H 0.9138 0.9792 0.21492 0.0
H194 H 0.86841 0.93563 0.25044 0.0
H195 H 0.8704 0.06414 0.30224 0.0
C196 C 0.9749 0.15932 0.22225 0.0
C197 C 0.99684 0.15082 0.19647 0.0
C198 C 0.99021 0.1057 0.18311 0.0
C199 C 0.96325 0.06896 0.19541 0.0
C200 C 0.94321 0.07789 0.2211 0.0
C201 C 0.94826 0.12185 0.2344 0.0
C202 C 0.92423 0.12071 0.26242 0.0
C203 C 0.96134 0.12922 0.28552 0.0
C204 C 0.88258 0.15759 0.26387 0.0
C205 C 0.90549 0.06909 0.26275 0.0
C206 C 0.91687 0.04534 0.2386 0.0
C207 C 0.90426 0.99736 0.23388 0.0
C208 C 0.87854 0.97295 0.25426 0.0
C209 C 0.86571 0.99651 0.27913 0.0
C210 C 0.87979 0.04515 0.28349 0.0
H211 H 0.37638 0.46465 0.44322 0.0
H212 H 0.39284 0.59693 0.4906 0.0
H213 H 0.4334 0.55099 0.52752 0.0
H214 H 0.34589 0.39081 0.4986 0.0
H215 H 0.37786 0.33773 0.48689 0.0
H216 H 0.35584 0.38136 0.46234 0.0
H217 H 0.44215 0.39161 0.44243 0.0
H218 H 0.46434 0.34728 0.4666 0.0
H219 H 0.49146 0.40662 0.46518 0.0
H220 H 0.46532 0.49043 0.56086 0.0
H221 H 0.49126 0.41909 0.58765 0.0
H222 H 0.45231 0.32561 0.51919 0.0
C223 C 0.38988 0.48408 0.46099 0.0
C224 C 0.38187 0.53432 0.46402 0.0
C225 C 0.3988 0.55841 0.48789 0.0
C226 C 0.42184 0.53267 0.50896 0.0
C227 C 0.42757 0.48288 0.50585 0.0
C228 C 0.41255 0.45881 0.4824 0.0
C229 C 0.42031 0.40467 0.48509 0.0
C230 C 0.3721 0.37704 0.48312 0.0
C231 C 0.45675 0.38648 0.46355 0.0
C232 C 0.4412 0.40213 0.51386 0.0
C233 C 0.44532 0.44767 0.52539 0.0
C234 C 0.4627 0.45455 0.55199 0.0
C235 C 0.4771 0.41376 0.5671 0.0
C236 C 0.47378 0.3667 0.55558 0.0
C237 C 0.45519 0.36102 0.52866 0.0
H238 H 0.06206 0.79641 0.70738 0.0
H239 H 0.9304 0.88182 0.70274 0.0
H240 H 0.96197 0.93693 0.73845 0.0
H241 H 0.08433 0.80932 0.78039 0.0
H242 H 0.14886 0.81584 0.77662 0.0
H243 H 0.11499 0.78087 0.75193 0.0
H244 H 0.14836 0.83408 0.7123 0.0
H245 H 0.18275 0.86876 0.73682 0.0
H246 H 0.14118 0.89898 0.71392 0.0
H247 H 0.00624 0.98123 0.77498 0.0
H248 H 0.06611 0.02082 0.805 0.0
H249 H 0.1721 0.91087 0.78351 0.0
C250 C 0.04001 0.82671 0.71399 0.0
C251 C 0.99384 0.83498 0.70254 0.0
C252 C 0.96604 0.87522 0.71126 0.0
C253 C 0.98342 0.90637 0.73167 0.0
C254 C 0.02891 0.89708 0.74277 0.0
C255 C 0.05732 0.85892 0.73389 0.0
C256 C 0.10642 0.85947 0.74772 0.0
C257 C 0.11407 0.81365 0.76521 0.0
C258 C 0.14707 0.86572 0.72642 0.0
C259 C 0.10111 0.90404 0.76563 0.0
C260 C 0.0557 0.92444 0.76288 0.0
C261 C 0.042 0.96576 0.77729 0.0
C262 C 0.07619 0.98779 0.79441 0.0
C263 C 0.12374 0.96892 0.7965 0.0
C264 C 0.13602 0.92605 0.78226 0.0
H265 H 0.50567 0.61162 0.04259 0.0
H266 H 0.60195 0.73572 0.03849 0.0
H267 H 0.65427 0.69159 0.006 0.0
H268 H 0.59931 0.51802 0.03761 0.0
H269 H 0.56231 0.47912 0.01653 0.0
H270 H 0.53439 0.51933 0.041 0.0
H271 H 0.48242 0.55626 0.00182 0.0
H272 H 0.51092 0.51689 0.97712 0.0
H273 H 0.5119 0.58161 0.97205 0.0
H274 H 0.69394 0.63652 0.97298 0.0
H275 H 0.72306 0.57021 0.94342 0.0
H276 H 0.60007 0.48213 0.96749 0.0
C277 C 0.53837 0.62903 0.03534 0.0
C278 C 0.55001 0.67693 0.04312 0.0
C279 C 0.5925 0.69897 0.03278 0.0
C280 C 0.62232 0.67431 0.01428 0.0
C281 C 0.60893 0.62782 0.00627 0.0
C282 C 0.56832 0.6051 0.01661 0.0
C283 C 0.56163 0.55538 0.00397 0.0
C284 C 0.56461 0.51561 0.0261 0.0
C285 C 0.51388 0.55239 0.98778 0.0
C286 C 0.60485 0.55383 0.98491 0.0
C287 C 0.63151 0.5961 0.98661 0.0
C288 C 0.6735 0.6032 0.97146 0.0
C289 C 0.68962 0.56542 0.9547 0.0
C290 C 0.66364 0.52127 0.95316 0.0
C291 C 0.62015 0.51581 0.968 0.0
H292 H 0.09324 0.38261 0.24756 0.0
H293 H 0.2209 0.29172 0.24078 0.0
H294 H 0.24679 0.31728 0.28706 0.0
H295 H 0.15176 0.48009 0.27722 0.0
H296 H 0.1029 0.4976 0.29966 0.0
H297 H 0.09009 0.46586 0.26822 0.0
H298 H 0.04443 0.3998 0.29582 0.0
H299 H 0.05764 0.43127 0.32746 0.0
H300 H 0.07491 0.36865 0.32348 0.0
H301 H 0.2641 0.35897 0.33072 0.0
H302 H 0.27566 0.41993 0.36714 0.0
H303 H 0.13764 0.48522 0.34626 0.0
C304 C 0.12605 0.3673 0.25612 0.0
C305 C 0.15495 0.335 0.24069 0.0
C306 C 0.19827 0.3166 0.25224 0.0
C307 C 0.21301 0.33048 0.27863 0.0
C308 C 0.18406 0.36281 0.29321 0.0
C309 C 0.14163 0.38128 0.28236 0.0
C310 C 0.12047 0.42006 0.30088 0.0
C311 C 0.11609 0.46877 0.28558 0.0
C312 C 0.07145 0.40396 0.31261 0.0
C313 C 0.15878 0.42194 0.32319 0.0
C314 C 0.19447 0.3877 0.31867 0.0
C315 C 0.23601 0.38533 0.33482 0.0
C316 C 0.24227 0.4201 0.35544 0.0
C317 C 0.2073 0.45686 0.35962 0.0
C318 C 0.16422 0.45665 0.34399 0.0
H319 H 0.08876 0.6822 0.61283 0.0
H320 H 0.01077 0.54661 0.61195 0.0
H321 H 0.06486 0.51562 0.57573 0.0
H322 H 0.09003 0.6974 0.54785 0.0
H323 H 0.14917 0.72348 0.54296 0.0
H324 H 0.11974 0.72889 0.57564 0.0
H325 H 0.19207 0.68824 0.60037 0.0
H326 H 0.2231 0.68431 0.56783 0.0
H327 H 0.21441 0.63062 0.58837 0.0
H328 H 0.10707 0.50991 0.53152 0.0
H329 H 0.14298 0.52521 0.48595 0.0
H330 H 0.19347 0.66558 0.51414 0.0
C331 C 0.08586 0.64471 0.60643 0.0
C332 C 0.04705 0.616 0.61558 0.0
C333 C 0.04158 0.56822 0.60571 0.0
C334 C 0.07194 0.55057 0.58499 0.0
C335 C 0.10741 0.58131 0.5745 0.0
C336 C 0.11548 0.62704 0.58538 0.0
C337 C 0.14908 0.65629 0.56721 0.0
C338 C 0.12555 0.70428 0.55787 0.0
C339 C 0.19756 0.66538 0.58182 0.0
C340 C 0.15518 0.62157 0.54341 0.0
C341 C 0.1318 0.57815 0.54827 0.0
C342 C 0.12697 0.54304 0.52784 0.0
C343 C 0.14688 0.55235 0.50189 0.0
C344 C 0.17112 0.59653 0.49656 0.0
C345 C 0.17581 0.63115 0.51776 0.0
H346 H 0.87827 0.46481 0.82701 0.0
H347 H 0.80302 0.56653 0.87962 0.0
H348 H 0.81523 0.63126 0.84498 0.0
H349 H 0.96755 0.55607 0.79787 0.0
H350 H 0.96611 0.52659 0.7648 0.0
H351 H 0.95848 0.49148 0.79577 0.0
H352 H 0.87775 0.458 0.77651 0.0
H353 H 0.88428 0.49383 0.74587 0.0
H354 H 0.8306 0.49974 0.76661 0.0
H355 H 0.81967 0.67829 0.80052 0.0
H356 H 0.83005 0.70929 0.75299 0.0
H357 H 0.90875 0.57896 0.73126 0.0
C358 C 0.86633 0.50131 0.83167 0.0
C359 C 0.84025 0.51119 0.85591 0.0
C360 C 0.82398 0.55882 0.86132 0.0
C361 C 0.83042 0.59558 0.84168 0.0
C362 C 0.8543 0.58409 0.81726 0.0
C363 C 0.87348 0.53849 0.81263 0.0
C364 C 0.89507 0.53448 0.78415 0.0
C365 C 0.95007 0.52672 0.78575 0.0
C366 C 0.87043 0.49414 0.76731 0.0
C367 C 0.8829 0.58409 0.77293 0.0
C368 C 0.85918 0.61219 0.79225 0.0
C369 C 0.83955 0.65727 0.78551 0.0
C370 C 0.84512 0.67435 0.75849 0.0
C371 C 0.87067 0.64662 0.73882 0.0
C372 C 0.88998 0.60118 0.74621 0.0
H373 H 0.9891 0.40619 0.09323 0.0
H374 H 0.90825 0.30028 0.1398 0.0
H375 H 0.83871 0.31061 0.10828 0.0
H376 H 0.87804 0.48266 0.06867 0.0
H377 H 0.90736 0.4919 0.03598 0.0
H378 H 0.94294 0.48833 0.06704 0.0
H379 H 0.99384 0.41992 0.04496 0.0
H380 H 0.95776 0.42178 0.01433 0.0
H381 H 0.96405 0.3657 0.03303 0.0
H382 H 0.79056 0.31361 0.06488 0.0
H383 H 0.76205 0.31806 0.01676 0.0
H384 H 0.87365 0.42374 -0.00131 0.0
C385 C 0.95542 0.38781 0.09776 0.0
C386 C 0.95321 0.35331 0.11907 0.0
C387 C 0.90977 0.32795 0.124 0.0
C388 C 0.87033 0.33336 0.10603 0.0
C389 C 0.87496 0.36496 0.08373 0.0
C390 C 0.91594 0.39307 0.08009 0.0
C391 C 0.91542 0.41854 0.0525 0.0
C392 C 0.91063 0.47363 0.05628 0.0
C393 C 0.9604 0.40565 0.03522 0.0
C394 C 0.86993 0.39729 0.04023 0.0
C395 C 0.84657 0.36714 0.05866 0.0
C396 C 0.80752 0.33845 0.05062 0.0
C397 C 0.79194 0.34078 0.02317 0.0
C398 C 0.81548 0.37151 0.00406 0.0
C399 C 0.85433 0.40067 0.01296 0.0
H400 H 0.6709 0.15231 0.51135 0.0
H401 H 0.5206 0.17559 0.48876 0.0
H402 H 0.53852 0.1487 0.44148 0.0
H403 H 0.72467 0.18801 0.44459 0.0
H404 H 0.77017 0.14129 0.44651 0.0
H405 H 0.7471 0.16835 0.4776 0.0
H406 H 0.72363 0.08334 0.49605 0.0
H407 H 0.747 0.05614 0.46522 0.0
H408 H 0.6854 0.04478 0.47546 0.0
H409 H 0.57035 0.11142 0.39849 0.0
H410 H 0.61258 0.06166 0.36387 0.0
H411 H 0.74228 0.0636 0.41429 0.0
C412 C 0.6419 0.1526 0.49636 0.0
C413 C 0.59439 0.16619 0.50374 0.0
C414 C 0.55729 0.16527 0.4836 0.0
C415 C 0.56719 0.15046 0.45663 0.0
C416 C 0.61435 0.13695 0.45011 0.0
C417 C 0.65109 0.13779 0.46941 0.0
C418 C 0.69754 0.1171 0.4579 0.0
C419 C 0.73721 0.15603 0.45657 0.0
C420 C 0.71433 0.07271 0.47464 0.0
C421 C 0.68071 0.10288 0.42941 0.0
C422 C 0.63285 0.11541 0.42515 0.0
C423 C 0.60807 0.10215 0.40136 0.0
C424 C 0.63235 0.07388 0.38182 0.0
C425 C 0.6808 0.05905 0.38631 0.0
C426 C 0.70563 0.07525 0.40998 0.0
H427 H 0.32595 0.04208 0.73039 0.0
H428 H 0.24171 0.17443 0.73493 0.0
H429 H 0.25585 0.18877 0.68552 0.0
H430 H 0.41633 0.08825 0.69444 0.0
H431 H 0.42911 0.03532 0.67392 0.0
H432 H 0.40024 0.02864 0.7066 0.0
H433 H 0.32973 0.98263 0.68287 0.0
H434 H 0.35833 0.99051 0.64983 0.0
H435 H 0.2971 0.011 0.65505 0.0
H436 H 0.29227 0.19806 0.63957 0.0
H437 H 0.35788 0.20884 0.60585 0.0
H438 H 0.41972 0.07158 0.63044 0.0
C439 C 0.30913 0.07321 0.72074 0.0
C440 C 0.28263 0.107 0.73642 0.0
C441 C 0.26224 0.14803 0.72329 0.0
C442 C 0.26946 0.15609 0.69511 0.0
C443 C 0.29695 0.12269 0.68029 0.0
C444 C 0.31664 0.08207 0.69276 0.0
C445 C 0.3525 0.05699 0.6741 0.0
C446 C 0.40245 0.05212 0.68809 0.0
C447 C 0.33324 0.00734 0.66492 0.0
C448 C 0.35336 0.09231 0.65026 0.0
C449 C 0.31919 0.1286 0.6535 0.0
C450 C 0.31819 0.16921 0.63634 0.0
C451 C 0.35533 0.17489 0.61697 0.0
C452 C 0.39326 0.14069 0.61559 0.0
C453 C 0.39014 0.09736 0.63082 0.0
H454 H 0.33949 0.81473 0.97698 0.0
H455 H 0.49101 0.85392 0.98392 0.0
H456 H 0.49085 0.88042 0.93553 0.0
H457 H 0.34234 0.77798 0.90167 0.0
H458 H 0.28349 0.80431 0.89588 0.0
H459 H 0.29805 0.77806 0.92886 0.0
H460 H 0.27586 0.8589 0.95311 0.0
H461 H 0.26042 0.88463 0.9204 0.0
H462 H 0.30449 0.91422 0.94197 0.0
H463 H 0.47073 0.91774 0.8908 0.0
H464 H 0.43031 0.96818 0.85562 0.0
H465 H 0.29311 0.90256 0.87592 0.0
C466 C 0.37301 0.82758 0.96809 0.0
C467 C 0.41523 0.83215 0.98425 0.0
C468 C 0.45811 0.8501 0.97199 0.0
C469 C 0.45855 0.86474 0.94439 0.0
C470 C 0.416 0.86075 0.92915 0.0
C471 C 0.37399 0.84249 0.94058 0.0
C472 C 0.33142 0.84872 0.9213 0.0
C473 C 0.31274 0.79931 0.91134 0.0
C474 C 0.29072 0.87841 0.93501 0.0
C475 C 0.35531 0.87637 0.89808 0.0
C476 C 0.40449 0.88165 0.90258 0.0
C477 C 0.43272 0.91238 0.8864 0.0
C478 C 0.40967 0.94058 0.86626 0.0
C479 C 0.35914 0.93751 0.86251 0.0
C480 C 0.3322 0.9033 0.87755 0.0
H481 H 0.58932 0.83405 0.12861 0.0
H482 H 0.49483 0.95873 0.13347 0.0
H483 H 0.54322 0.99109 0.17199 0.0
H484 H 0.59094 0.8124 0.19475 0.0
H485 H 0.65274 0.79263 0.19866 0.0
H486 H 0.62315 0.78686 0.16595 0.0
H487 H 0.6903 0.83713 0.14232 0.0
H488 H 0.72125 0.84194 0.17489 0.0
H489 H 0.7061 0.8959 0.1558 0.0
H490 H 0.58675 0.99911 0.21567 0.0
H491 H 0.62659 0.98599 0.26026 0.0
H492 H 0.69193 0.85378 0.22907 0.0
C493 C 0.58114 0.86973 0.13668 0.0
C494 C 0.53977 0.89504 0.12768 0.0
C495 C 0.52754 0.93997 0.13966 0.0
C496 C 0.5547 0.95839 0.16159 0.0
C497 C 0.59359 0.93106 0.17132 0.0
C498 C 0.60739 0.88797 0.159 0.0
C499 C 0.64452 0.86133 0.17635 0.0
C500 C 0.62673 0.81033 0.1844 0.0
C501 C 0.69346 0.85896 0.16145 0.0
C502 C 0.64701 0.89451 0.20109 0.0
C503 C 0.61819 0.935 0.19745 0.0
C504 C 0.61048 0.96828 0.21849 0.0
C505 C 0.63288 0.96015 0.24388 0.0
C506 C 0.66245 0.91881 0.24816 0.0
C507 C 0.67005 0.886 0.2263 0.0
H508 H 0.13756 0.12985 0.92882 0.0
H509 H 0.23789 0.017 0.95315 0.0
H510 H 0.21446 0.02857 0.0019 0.0
H511 H 0.16982 0.2075 0.98022 0.0
H512 H 0.11071 0.23331 0.98577 0.0
H513 H 0.12604 0.20871 0.95269 0.0
H514 H 0.05197 0.15148 0.95478 0.0
H515 H 0.03595 0.17621 0.98786 0.0
H516 H 0.04437 0.11178 0.98392 0.0
H517 H 0.18634 0.05754 0.04755 0.0
H518 H 0.16217 0.10657 0.08748 0.0
H519 H 0.08707 0.2069 0.03337 0.0
C520 C 0.15302 0.10639 0.94441 0.0
C521 C 0.18837 0.07171 0.93757 0.0
C522 C 0.21002 0.0431 0.95829 0.0
C523 C 0.19678 0.04931 0.98587 0.0
C524 C 0.16257 0.0848 0.99214 0.0
C525 C 0.14126 0.11317 0.97202 0.0
C526 C 0.11167 0.15384 0.98438 0.0
C527 C 0.13074 0.20376 0.97523 0.0
C528 C 0.05779 0.14794 0.97732 0.0
C529 C 0.12096 0.1449 0.0146 0.0
C530 C 0.14914 0.10404 0.01862 0.0
C531 C 0.16393 0.08934 0.04468 0.0
C532 C 0.15017 0.1176 0.06721 0.0
C533 C 0.1232 0.16083 0.06343 0.0
C534 C 0.10779 0.17412 0.03682 0.0
H535 H 0.382 0.76939 0.20219 0.0
H536 H 0.45461 0.64002 0.17245 0.0
H537 H 0.44437 0.6019 0.21809 0.0
H538 H 0.42839 0.7643 0.27373 0.0
H539 H 0.3717 0.78566 0.28743 0.0
H540 H 0.39098 0.80465 0.25371 0.0
H541 H 0.31017 0.77304 0.23321 0.0
H542 H 0.29104 0.75359 0.26676 0.0
H543 H 0.29302 0.71077 0.23879 0.0
H544 H 0.4195 0.57544 0.26612 0.0
H545 H 0.38046 0.56291 0.31149 0.0
H546 H 0.32341 0.70936 0.30816 0.0
C547 C 0.39667 0.7334 0.20533 0.0
C548 C 0.41921 0.70778 0.18374 0.0
C549 C 0.43737 0.6605 0.18872 0.0
C550 C 0.43184 0.63856 0.2146 0.0
C551 C 0.40843 0.66454 0.23526 0.0
C552 C 0.39141 0.71106 0.2309 0.0
C553 C 0.36422 0.73 0.25559 0.0
C554 C 0.3904 0.77373 0.26836 0.0
C555 C 0.31151 0.74255 0.24813 0.0
C556 C 0.36702 0.68626 0.27418 0.0
C557 C 0.39337 0.64909 0.26243 0.0
C558 C 0.39917 0.60448 0.27561 0.0
C559 C 0.37691 0.59765 0.30131 0.0
C560 C 0.34864 0.635 0.31315 0.0
C561 C 0.34445 0.67995 0.2995 0.0
H562 H 0.79878 0.92433 0.45845 0.0
H563 H 0.91008 0.87226 0.40325 0.0
H564 H 0.95661 0.84077 0.443 0.0
H565 H 0.8856 0.9566 0.51699 0.0
H566 H 0.84202 0.9383 0.54248 0.0
H567 H 0.82185 0.96444 0.51045 0.0
H568 H 0.76812 0.88954 0.5014 0.0
H569 H 0.7878 0.86283 0.53319 0.0
H570 H 0.79508 0.82998 0.5014 0.0
H571 H 0.97873 0.79734 0.48649 0.0
H572 H 0.98287 0.75797 0.53239 0.0
H573 H 0.86266 0.84596 0.56004 0.0
C574 C 0.83393 0.90803 0.455 0.0
C575 C 0.85147 0.90101 0.42814 0.0
C576 C 0.89686 0.87866 0.42391 0.0
C577 C 0.92326 0.86048 0.44628 0.0
C578 C 0.90414 0.86619 0.4726 0.0
C579 C 0.86127 0.89091 0.47715 0.0
C580 C 0.84694 0.88937 0.50716 0.0
C581 C 0.84926 0.94021 0.52003 0.0
C582 C 0.79653 0.86654 0.51098 0.0
C583 C 0.88648 0.85702 0.51838 0.0
C584 C 0.91926 0.84405 0.49819 0.0
C585 C 0.95463 0.80875 0.50278 0.0
C586 C 0.95657 0.78638 0.5287 0.0
C587 C 0.92387 0.80017 0.54956 0.0
C588 C 0.88905 0.83632 0.5445 0.0
H589 H 0.60162 0.32599 0.69302 0.0
H590 H 0.48994 0.22665 0.71986 0.0
H591 H 0.50465 0.25116 0.76838 0.0
H592 H 0.68217 0.29473 0.74468 0.0
H593 H 0.70799 0.35438 0.74823 0.0
H594 H 0.68244 0.33594 0.71587 0.0
H595 H 0.62563 0.41054 0.71629 0.0
H596 H 0.65099 0.42947 0.74871 0.0
H597 H 0.58661 0.42079 0.74542 0.0
H598 H 0.53418 0.28552 0.81393 0.0
H599 H 0.58344 0.31642 0.85275 0.0
H600 H 0.6823 0.38358 0.7951 0.0
C601 C 0.57927 0.31052 0.70908 0.0
C602 C 0.54379 0.27558 0.70296 0.0
C603 C 0.5167 0.25418 0.72439 0.0
C604 C 0.5247 0.26804 0.75184 0.0
C605 C 0.56053 0.30242 0.75725 0.0
C606 C 0.58787 0.32271 0.73641 0.0
C607 C 0.62866 0.35339 0.74755 0.0
C608 C 0.67822 0.33338 0.73855 0.0
C609 C 0.62257 0.40671 0.73899 0.0
C610 C 0.62057 0.34676 0.77801 0.0
C611 C 0.58029 0.31849 0.78327 0.0
C612 C 0.56581 0.30756 0.81002 0.0
C613 C 0.59392 0.32515 0.83187 0.0
C614 C 0.63678 0.35161 0.82667 0.0
C615 C 0.64979 0.36308 0.79948 0.0
H616 H 0.23638 0.10784 0.17768 0.0
H617 H 0.24951 0.18721 0.10107 0.0
H618 H 0.27349 0.11166 0.07727 0.0
H619 H 0.33991 0.026 0.16553 0.0
H620 H 0.31003 0.97598 0.18223 0.0
H621 H 0.29728 0.03718 0.19284 0.0
H622 H 0.20601 0.02148 0.18434 0.0
H623 H 0.21867 0.96081 0.17274 0.0
H624 H 0.18601 0.00214 0.15078 0.0
H625 H 0.28665 0.02472 0.061 0.0
H626 H 0.3073 0.93782 0.05571 0.0
H627 H 0.28908 0.91705 0.1435 0.0
C628 C 0.24576 0.10956 0.15607 0.0
C629 C 0.24159 0.15341 0.14128 0.0
C630 C 0.25351 0.15422 0.11294 0.0
C631 C 0.26645 0.11132 0.09917 0.0
C632 C 0.26781 0.06817 0.11413 0.0
C633 C 0.25931 0.06735 0.14215 0.0
C634 C 0.26389 0.01658 0.15366 0.0
C635 C 0.30525 0.01378 0.1748 0.0
C636 C 0.21577 0.99926 0.16611 0.0
C637 C 0.27592 0.98877 0.12773 0.0
C638 C 0.27707 0.0189 0.10502 0.0
C639 C 0.28642 0.00094 0.07872 0.0
C640 C 0.29741 0.95141 0.07584 0.0
C641 C 0.29961 0.92075 0.09919 0.0
C642 C 0.28746 0.93962 0.12529 0.0
H643 H 0.35975 0.7795 0.37116 0.0
H644 H 0.37544 0.75383 0.45888 0.0
H645 H 0.4598 0.782 0.45664 0.0
H646 H 0.47031 0.73638 0.35173 0.0
H647 H 0.48241 0.78076 0.32541 0.0
H648 H 0.42097 0.76605 0.33423 0.0
H649 H 0.40285 0.85633 0.34461 0.0
H650 H 0.464 0.87151 0.33517 0.0
H651 H 0.44088 0.88899 0.36837 0.0
H652 H 0.54606 0.79812 0.44347 0.0
H653 H 0.62444 0.8188 0.42194 0.0
H654 H 0.55229 0.83812 0.3434 0.0
C655 C 0.38012 0.78177 0.39016 0.0
C656 C 0.36071 0.76425 0.41521 0.0
C657 C 0.38924 0.76707 0.43944 0.0
C658 C 0.43744 0.78269 0.43835 0.0
C659 C 0.45645 0.79629 0.41299 0.0
C660 C 0.4283 0.79756 0.38947 0.0
C661 C 0.4582 0.81169 0.36458 0.0
C662 C 0.45794 0.77131 0.34272 0.0
C663 C 0.44043 0.86002 0.35248 0.0
C664 C 0.50772 0.81691 0.37771 0.0
C665 C 0.506 0.80737 0.40559 0.0
C666 C 0.54772 0.8067 0.42176 0.0
C667 C 0.59214 0.81784 0.40932 0.0
C668 C 0.59434 0.83012 0.38108 0.0
C669 C 0.55156 0.82916 0.3651 0.0
H670 H 0.70216 0.06319 0.60102 0.0
H671 H 0.58807 0.04511 0.66155 0.0
H672 H 0.61582 0.96192 0.6706 0.0
H673 H 0.69754 0.94085 0.57417 0.0
H674 H 0.76206 0.93569 0.56989 0.0
H675 H 0.73327 0.99414 0.56734 0.0
H676 H 0.78922 0.0283 0.60543 0.0
H677 H 0.81909 0.97044 0.60759 0.0
H678 H 0.79321 0.9973 0.63802 0.0
H679 H 0.65629 0.87987 0.67354 0.0
H680 H 0.71156 0.80891 0.67269 0.0
H681 H 0.79847 0.8807 0.61058 0.0
C682 C 0.68315 0.04186 0.61626 0.0
C683 C 0.64287 0.061 0.6305 0.0
C684 C 0.619 0.03155 0.65026 0.0
C685 C 0.63431 0.98399 0.65551 0.0
C686 C 0.67358 0.96602 0.64086 0.0
C687 C 0.69793 0.99413 0.62178 0.0
C688 C 0.73998 0.96648 0.60945 0.0
C689 C 0.73276 0.95886 0.57837 0.0
C690 C 0.78822 0.99215 0.6155 0.0
C691 C 0.73594 0.91901 0.625 0.0
C692 C 0.69704 0.91905 0.64274 0.0
C693 C 0.68684 0.87933 0.65964 0.0
C694 C 0.71815 0.83907 0.65894 0.0
C695 C 0.7593 0.83931 0.64169 0.0
C696 C 0.76737 0.87945 0.62411 0.0
H697 H 0.39209 0.20166 0.90287 0.0
H698 H 0.42928 0.16342 0.81908 0.0
H699 H 0.51497 0.18437 0.82833 0.0
H700 H 0.47408 0.30682 0.90576 0.0
H701 H 0.48732 0.29758 0.9417 0.0
H702 H 0.42956 0.27952 0.92796 0.0
H703 H 0.44408 0.19267 0.94663 0.0
H704 H 0.50252 0.21014 0.95969 0.0
H705 H 0.49743 0.15985 0.93621 0.0
H706 H 0.59788 0.20153 0.84857 0.0
H707 H 0.66835 0.23396 0.87388 0.0
H708 H 0.5756 0.26903 0.94295 0.0
C709 C 0.41824 0.1986 0.88638 0.0
C710 C 0.40437 0.18108 0.86025 0.0
C711 C 0.4393 0.17737 0.83911 0.0
C712 C 0.48806 0.18857 0.84431 0.0
C713 C 0.50092 0.20432 0.87059 0.0
C714 C 0.46672 0.21103 0.89097 0.0
C715 C 0.48948 0.23129 0.91691 0.0
C716 C 0.4689 0.2818 0.92346 0.0
C717 C 0.48298 0.19639 0.94129 0.0
C718 C 0.54199 0.23409 0.90815 0.0
C719 C 0.54801 0.21727 0.88159 0.0
C720 C 0.59351 0.21512 0.8693 0.0
C721 C 0.63346 0.23301 0.88399 0.0
C722 C 0.62749 0.25355 0.91048 0.0
C723 C 0.58126 0.2531 0.92285 0.0
H724 H 0.7572 0.56225 0.64683 0.0
H725 H 0.84671 0.55872 0.57346 0.0
H726 H 0.82214 0.47435 0.56498 0.0
H727 H 0.77974 0.43956 0.66857 0.0
H728 H 0.71863 0.42914 0.68003 0.0
H729 H 0.74353 0.48945 0.68081 0.0
H730 H 0.67244 0.5211 0.65088 0.0
H731 H 0.64696 0.46111 0.65063 0.0
H732 H 0.65917 0.49173 0.61862 0.0
H733 H 0.78852 0.38916 0.56455 0.0
H734 H 0.73896 0.31462 0.56898 0.0
H735 H 0.67181 0.37413 0.64216 0.0
C736 C 0.77127 0.54398 0.62883 0.0
C737 C 0.804 0.5674 0.6109 0.0
C738 C 0.82159 0.54183 0.58759 0.0
C739 C 0.80816 0.49362 0.58265 0.0
C740 C 0.77698 0.47121 0.60113 0.0
C741 C 0.75816 0.49576 0.62352 0.0
C742 C 0.72379 0.46388 0.63962 0.0
C743 C 0.74257 0.45499 0.66899 0.0
C744 C 0.67256 0.48575 0.63993 0.0
C745 C 0.72586 0.41794 0.62258 0.0
C746 C 0.75728 0.42249 0.6007 0.0
C747 C 0.7639 0.38507 0.58168 0.0
C748 C 0.73606 0.34267 0.58448 0.0
C749 C 0.70179 0.3386 0.60592 0.0
C750 C 0.69796 0.37616 0.62561 0.0
H751 H 0.08488 0.20637 0.80934 0.0
H752 H 0.16581 0.24214 0.88283 0.0
H753 H 0.09286 0.2801 0.90284 0.0
H754 H 0.00448 0.31995 0.81055 0.0
H755 H 0.9538 0.28581 0.79758 0.0
H756 H 0.01446 0.26992 0.78739 0.0
H757 H -0.00079 0.18225 0.80423 0.0
H758 H 0.93929 0.19808 0.81545 0.0
H759 H 0.98168 0.17201 0.83948 0.0
H760 H 0.00826 0.2965 0.91846 0.0
H761 H 0.92065 0.30886 0.92512 0.0
H762 H 0.89459 0.2693 0.84003 0.0
C763 C 0.0878 0.22496 0.8289 0.0
C764 C 0.13113 0.22282 0.84428 0.0
C765 C 0.13337 0.24516 0.8704 0.0
C766 C 0.09192 0.26614 0.88204 0.0
C767 C 0.04896 0.26535 0.86696 0.0
C768 C 0.04699 0.24707 0.8405 0.0
C769 C 0.99567 0.24823 0.82936 0.0
C770 C 0.99188 0.28306 0.80476 0.0
C771 C 0.97796 0.1971 0.82169 0.0
C772 C 0.96877 0.26779 0.85412 0.0
C773 C 0.00019 0.27699 0.87565 0.0
C774 C 0.98349 0.29079 0.90151 0.0
C775 C 0.93359 0.297 0.9052 0.0
C776 C 0.9009 0.2901 0.88307 0.0
C777 C 0.91883 0.27519 0.85722 0.0
H778 H 0.33296 0.60782 0.11261 0.0
H779 H 0.24685 0.66508 0.04532 0.0
H780 H 0.19612 0.59061 0.04651 0.0
H781 H 0.33548 0.48624 0.09086 0.0
H782 H 0.33188 0.46173 0.12517 0.0
H783 H 0.3591 0.52013 0.11958 0.0
H784 H 0.2997 0.55911 0.15439 0.0
H785 H 0.27257 0.50074 0.16034 0.0
H786 H 0.23548 0.55118 0.14973 0.0
H787 H 0.15784 0.50651 0.05437 0.0
H788 H 0.13235 0.42498 0.0697 0.0
H789 H 0.24542 0.42581 0.13176 0.0
C790 C 0.30335 0.60507 0.09808 0.0
C791 C 0.29404 0.64216 0.07869 0.0
C792 C 0.25452 0.63716 0.06037 0.0
C793 C 0.22577 0.59493 0.06085 0.0
C794 C 0.23693 0.55856 0.07992 0.0
C795 C 0.27457 0.56373 0.09836 0.0
C796 C 0.27991 0.51993 0.1168 0.0
C797 C 0.32953 0.49558 0.11285 0.0
C798 C 0.27138 0.53357 0.1471 0.0
C799 C 0.23958 0.48862 0.1058 0.0
C800 C 0.21512 0.51127 0.08452 0.0
C801 C 0.1767 0.4887 0.07108 0.0
C802 C 0.16264 0.44224 0.07988 0.0
C803 C 0.1869 0.4188 0.10197 0.0
C804 C 0.22606 0.4425 0.11485 0.0
H805 H 0.86267 0.74992 0.37854 0.0
H806 H 0.87746 0.77696 0.29089 0.0
H807 H 0.96089 0.74628 0.2925 0.0
H808 H 0.97618 0.78676 0.39808 0.0
H809 H 0.98708 0.74048 0.42353 0.0
H810 H 0.92609 0.75844 0.4155 0.0
H811 H 0.9034 0.66993 0.40368 0.0
H812 H 0.96401 0.65122 0.41237 0.0
H813 H 0.93921 0.63679 0.37906 0.0
H814 H 0.04655 0.72678 0.30485 0.0
H815 H 0.12485 0.70294 0.32549 0.0
H816 H 0.0543 0.68152 0.40419 0.0
C817 C 0.88274 0.74772 0.35946 0.0
C818 C 0.86316 0.76615 0.33459 0.0
C819 C 0.89126 0.76317 0.31023 0.0
C820 C 0.93897 0.746 0.31093 0.0
C821 C 0.95802 0.73083 0.33601 0.0
C822 C 0.9304 0.72994 0.35969 0.0
C823 C 0.96032 0.71288 0.38409 0.0
C824 C 0.96254 0.75197 0.40662 0.0
C825 C 0.94056 0.66484 0.39546 0.0
C826 C 0.00929 0.70584 0.37053 0.0
C827 C 0.00718 0.71694 0.34284 0.0
C828 C 0.04845 0.7169 0.32636 0.0
C829 C 0.09283 0.70385 0.33831 0.0
C830 C 0.0955 0.69022 0.36633 0.0
C831 C 0.05312 0.69134 0.38262 0.0
loop_
_geom_bond_atom_site_label_1
_geom_bond_atom_site_label_2
_geom_bond_distance
_geom_bond_site_symmetry_2
_ccdc_geom_bond_type
O0 Zn1 1.953 . S
O0 C16 1.225 . S
Zn1 O0 1.953 . S
Zn1 O2 1.949 . S
Zn1 O8 1.919 . S
Zn1 O13 1.924 . S
O2 Zn1 1.949 . S
O2 Zn3 1.923 . S
O2 Zn4 1.950 . S
O2 Zn5 1.945 . S
Zn3 O2 1.923 . S
Zn3 O6 1.933 . S
Zn3 O9 1.941 . S
Zn3 O10 1.954 1_455 S
Zn4 O2 1.950 . S
Zn4 O11 1.938 1_455 S
Zn4 O12 1.906 1_455 S
Zn4 O22 1.953 . S
Zn5 O2 1.945 . S
Zn5 O7 1.932 . S
Zn5 O14 1.977 . S
Zn5 O15 1.910 . S
O6 Zn3 1.933 . S
O6 C17 1.226 . S
O7 Zn5 1.932 . S
O7 C17 1.307 . S
O8 Zn1 1.919 . S
O8 C19 1.253 . S
O9 Zn3 1.941 . S
O9 C19 1.283 . S
O10 Zn3 1.954 1_655 S
O10 C18 1.310 . S
O11 Zn4 1.938 1_655 S
O11 C18 1.247 . S
O12 Zn4 1.906 1_655 S
O12 C20 1.304 . S
O13 Zn1 1.924 . S
O13 C21 1.311 . S
O14 Zn5 1.977 . S
O14 C20 1.272 1_455 S
O15 Zn5 1.910 . S
O15 C21 1.231 . S
C16 O0 1.225 . S
C16 O22 1.298 . S
C17 O6 1.226 . S
C17 O7 1.307 . S
C18 O10 1.310 . S
C18 O11 1.247 . S
C19 O8 1.253 . S
C19 O9 1.283 . S
C20 O12 1.304 . S
C20 O14 1.272 1_655 S
C21 O13 1.311 . S
C21 O15 1.231 . S
O22 Zn4 1.953 . S
O22 C16 1.298 . S
O23 Zn24 1.953 . S
O23 C39 1.225 . S
Zn24 O23 1.953 . S
Zn24 O25 1.949 . S
Zn24 O31 1.919 . S
Zn24 O36 1.924 . S
O25 Zn24 1.949 . S
O25 Zn26 1.923 . S
O25 Zn27 1.950 . S
O25 Zn28 1.945 . S
Zn26 O25 1.923 . S
Zn26 O29 1.933 . S
Zn26 O32 1.941 . S
Zn26 O33 1.965 . S
Zn27 O25 1.950 . S
Zn27 O34 1.938 . S
Zn27 O35 1.906 . S
Zn27 O45 1.953 . S
Zn28 O25 1.945 . S
Zn28 O30 1.932 . S
Zn28 O37 1.977 . S
Zn28 O38 1.910 . S
O29 Zn26 1.933 . S
O29 C40 1.226 . S
O30 Zn28 1.932 . S
O30 C40 1.307 . S
O31 Zn24 1.919 . S
O31 C42 1.253 . S
O32 Zn26 1.941 . S
O32 C42 1.283 . S
O33 Zn26 1.965 . S
O33 C41 1.303 . S
O34 Zn27 1.938 . S
O34 C41 1.247 . S
O35 Zn27 1.906 . S
O35 C43 1.304 . S
O36 Zn24 1.924 . S
O36 C44 1.311 . S
O37 Zn28 1.977 . S
O37 C43 1.272 . S
O38 Zn28 1.910 . S
O38 C44 1.231 . S
C39 O23 1.225 . S
C39 O45 1.298 . S
C40 O29 1.226 . S
C40 O30 1.307 . S
C41 O33 1.303 . S
C41 O34 1.247 . S
C42 O31 1.253 . S
C42 O32 1.283 . S
C43 O35 1.304 . S
C43 O37 1.272 . S
C44 O36 1.311 . S
C44 O38 1.231 . S
O45 Zn27 1.953 . S
O45 C39 1.298 . S
O46 Zn47 1.953 . S
O46 C62 1.225 . S
Zn47 O46 1.953 . S
Zn47 O48 1.949 . S
Zn47 O54 1.919 . S
Zn47 O59 1.924 . S
O48 Zn47 1.949 . S
O48 Zn49 1.923 . S
O48 Zn50 1.950 . S
O48 Zn51 1.945 . S
Zn49 O48 1.923 . S
Zn49 O52 1.933 . S
Zn49 O55 1.941 . S
Zn49 O56 1.967 1_655 S
Zn50 O48 1.950 . S
Zn50 O57 1.938 1_655 S
Zn50 O58 1.906 1_655 S
Zn50 O68 1.953 . S
Zn51 O48 1.945 . S
Zn51 O53 1.932 . S
Zn51 O60 1.977 . S
Zn51 O61 1.910 . S
O52 Zn49 1.933 . S
O52 C63 1.226 . S
O53 Zn51 1.932 . S
O53 C63 1.307 . S
O54 Zn47 1.919 . S
O54 C65 1.253 . S
O55 Zn49 1.941 . S
O55 C65 1.283 . S
O56 Zn49 1.967 1_455 S
O56 C64 1.302 . S
O57 Zn50 1.938 1_455 S
O57 C64 1.247 . S
O58 Zn50 1.906 1_455 S
O58 C66 1.304 . S
O59 Zn47 1.924 . S
O59 C67 1.311 . S
O60 Zn51 1.977 . S
O60 C66 1.272 1_655 S
O61 Zn51 1.910 . S
O61 C67 1.231 . S
C62 O46 1.225 . S
C62 O68 1.298 . S
C63 O52 1.226 . S
C63 O53 1.307 . S
C64 O56 1.302 . S
C64 O57 1.247 . S
C65 O54 1.253 . S
C65 O55 1.283 . S
C66 O58 1.304 . S
C66 O60 1.272 1_455 S
C67 O59 1.311 . S
C67 O61 1.231 . S
O68 Zn50 1.953 . S
O68 C62 1.298 . S
O69 Zn70 1.953 . S
O69 C85 1.225 . S
Zn70 O69 1.953 . S
Zn70 O71 1.949 . S
Zn70 O77 1.919 . S
Zn70 O82 1.924 . S
O71 Zn70 1.949 . S
O71 Zn72 1.923 . S
O71 Zn73 1.950 . S
O71 Zn74 1.945 . S
Zn72 O71 1.923 . S
Zn72 O75 1.933 . S
Zn72 O78 1.941 . S
Zn72 O79 1.965 . S
Zn73 O71 1.950 . S
Zn73 O80 1.938 . S
Zn73 O81 1.906 . S
Zn73 O91 1.953 . S
Zn74 O71 1.945 . S
Zn74 O76 1.932 . S
Zn74 O83 1.977 . S
Zn74 O84 1.910 . S
O75 Zn72 1.933 . S
O75 C86 1.226 . S
O76 Zn74 1.932 . S
O76 C86 1.307 . S
O77 Zn70 1.919 . S
O77 C88 1.253 . S
O78 Zn72 1.941 . S
O78 C88 1.283 . S
O79 Zn72 1.965 . S
O79 C87 1.303 . S
O80 Zn73 1.938 . S
O80 C87 1.247 . S
O81 Zn73 1.906 . S
O81 C89 1.304 . S
O82 Zn70 1.924 . S
O82 C90 1.311 . S
O83 Zn74 1.977 . S
O83 C89 1.272 . S
O84 Zn74 1.910 . S
O84 C90 1.231 . S
C85 O69 1.225 . S
C85 O91 1.298 . S
C86 O75 1.226 . S
C86 O76 1.307 . S
C87 O79 1.303 . S
C87 O80 1.247 . S
C88 O77 1.253 . S
C88 O78 1.283 . S
C89 O81 1.304 . S
C89 O83 1.272 . S
C90 O82 1.311 . S
C90 O84 1.231 . S
O91 Zn73 1.953 . S
O91 C85 1.298 . S
O92 Zn93 1.953 . S
O92 C108 1.225 . S
Zn93 O92 1.953 . S
Zn93 O94 1.949 . S
Zn93 O100 1.919 . S
Zn93 O105 1.924 . S
O94 Zn93 1.949 . S
O94 Zn95 1.923 . S
O94 Zn96 1.950 . S
O94 Zn97 1.945 . S
Zn95 O94 1.923 . S
Zn95 O98 1.933 . S
Zn95 O101 1.941 . S
Zn95 O102 1.965 . S
Zn96 O94 1.950 . S
Zn96 O103 1.938 . S
Zn96 O104 1.906 . S
Zn96 O114 1.953 . S
Zn97 O94 1.945 . S
Zn97 O99 1.932 . S
Zn97 O106 1.977 . S
Zn97 O107 1.910 . S
O98 Zn95 1.933 . S
O98 C109 1.226 . S
O99 Zn97 1.932 . S
O99 C109 1.307 . S
O100 Zn93 1.919 . S
O100 C111 1.253 . S
O101 Zn95 1.941 . S
O101 C111 1.283 . S
O102 Zn95 1.965 . S
O102 C110 1.303 . S
O103 Zn96 1.938 . S
O103 C110 1.247 . S
O104 Zn96 1.906 . S
O104 C112 1.304 . S
O105 Zn93 1.924 . S
O105 C113 1.311 . S
O106 Zn97 1.977 . S
O106 C112 1.272 . S
O107 Zn97 1.910 . S
O107 C113 1.231 . S
C108 O92 1.225 . S
C108 O114 1.298 . S
C109 O98 1.226 . S
C109 O99 1.307 . S
C110 O102 1.303 . S
C110 O103 1.247 . S
C111 O100 1.253 . S
C111 O101 1.283 . S
C112 O104 1.304 . S
C112 O106 1.272 . S
C113 O105 1.311 . S
C113 O107 1.231 . S
O114 Zn96 1.953 . S
O114 C108 1.298 . S
O115 Zn116 1.953 . S
O115 C131 1.225 . S
Zn116 O115 1.953 . S
Zn116 O117 1.949 . S
Zn116 O123 1.919 . S
Zn116 O128 1.924 . S
O117 Zn116 1.949 . S
O117 Zn118 1.923 . S
O117 Zn119 1.950 . S
O117 Zn120 1.945 . S
Zn118 O117 1.923 . S
Zn118 O121 1.933 . S
Zn118 O124 1.941 . S
Zn118 O125 1.953 1_545 S
Zn119 O117 1.950 . S
Zn119 O126 1.938 1_545 S
Zn119 O127 1.906 1_545 S
Zn119 O137 1.953 . S
Zn120 O117 1.945 . S
Zn120 O122 1.932 . S
Zn120 O129 1.977 . S
Zn120 O130 1.910 . S
O121 Zn118 1.933 . S
O121 C132 1.226 . S
O122 Zn120 1.932 . S
O122 C132 1.307 . S
O123 Zn116 1.919 . S
O123 C134 1.253 . S
O124 Zn118 1.941 . S
O124 C134 1.283 . S
O125 Zn118 1.953 1_565 S
O125 C133 1.311 . S
O126 Zn119 1.938 1_565 S
O126 C133 1.247 . S
O127 Zn119 1.906 1_565 S
O127 C135 1.304 . S
O128 Zn116 1.924 . S
O128 C136 1.311 . S
O129 Zn120 1.977 . S
O129 C135 1.272 1_545 S
O130 Zn120 1.910 . S
O130 C136 1.231 . S
C131 O115 1.225 . S
C131 O137 1.298 . S
C132 O121 1.226 . S
C132 O122 1.307 . S
C133 O125 1.311 . S
C133 O126 1.247 . S
C134 O123 1.253 . S
C134 O124 1.283 . S
C135 O127 1.304 . S
C135 O129 1.272 1_565 S
C136 O128 1.311 . S
C136 O130 1.231 . S
O137 Zn119 1.953 . S
O137 C131 1.298 . S
O138 Zn139 1.953 . S
O138 C154 1.225 . S
Zn139 O138 1.953 . S
Zn139 O140 1.949 . S
Zn139 O146 1.919 . S
Zn139 O151 1.924 . S
O140 Zn139 1.949 . S
O140 Zn141 1.923 . S
O140 Zn142 1.950 . S
O140 Zn143 1.945 . S
Zn141 O140 1.923 . S
Zn141 O144 1.933 . S
Zn141 O147 1.941 . S
Zn141 O148 1.965 . S
Zn142 O140 1.950 . S
Zn142 O149 1.938 . S
Zn142 O150 1.906 . S
Zn142 O160 1.953 . S
Zn143 O140 1.945 . S
Zn143 O145 1.932 . S
Zn143 O152 1.977 . S
Zn143 O153 1.910 . S
O144 Zn141 1.933 . S
O144 C155 1.226 . S
O145 Zn143 1.932 . S
O145 C155 1.307 . S
O146 Zn139 1.919 . S
O146 C157 1.253 . S
O147 Zn141 1.941 . S
O147 C157 1.283 . S
O148 Zn141 1.965 . S
O148 C156 1.303 . S
O149 Zn142 1.938 . S
O149 C156 1.247 . S
O150 Zn142 1.906 . S
O150 C158 1.304 . S
O151 Zn139 1.924 . S
O151 C159 1.311 . S
O152 Zn143 1.977 . S
O152 C158 1.272 . S
O153 Zn143 1.910 . S
O153 C159 1.231 . S
C154 O138 1.225 . S
C154 O160 1.298 . S
C155 O144 1.226 . S
C155 O145 1.307 . S
C156 O148 1.303 . S
C156 O149 1.247 . S
C157 O146 1.253 . S
C157 O147 1.283 . S
C158 O150 1.304 . S
C158 O152 1.272 . S
C159 O151 1.311 . S
C159 O153 1.231 . S
O160 Zn142 1.953 . S
O160 C154 1.298 . S
O161 Zn162 1.953 . S
O161 C177 1.225 . S
Zn162 O161 1.953 . S
Zn162 O163 1.949 . S
Zn162 O169 1.919 . S
Zn162 O174 1.924 . S
O163 Zn162 1.949 . S
O163 Zn164 1.923 . S
O163 Zn165 1.950 . S
O163 Zn166 1.945 . S
Zn164 O163 1.923 . S
Zn164 O167 1.933 . S
Zn164 O170 1.941 . S
Zn164 O171 1.965 1_565 S
Zn165 O163 1.950 . S
Zn165 O172 1.938 1_565 S
Zn165 O173 1.906 1_565 S
Zn165 O183 1.953 . S
Zn166 O163 1.945 . S
Zn166 O168 1.932 . S
Zn166 O175 1.977 . S
Zn166 O176 1.910 . S
O167 Zn164 1.933 . S
O167 C178 1.226 . S
O168 Zn166 1.932 . S
O168 C178 1.307 . S
O169 Zn162 1.919 . S
O169 C180 1.253 . S
O170 Zn164 1.941 . S
O170 C180 1.283 . S
O171 Zn164 1.965 1_545 S
O171 C179 1.303 . S
O172 Zn165 1.938 1_545 S
O172 C179 1.247 . S
O173 Zn165 1.906 1_545 S
O173 C181 1.304 . S
O174 Zn162 1.924 . S
O174 C182 1.311 . S
O175 Zn166 1.977 . S
O175 C181 1.272 1_565 S
O176 Zn166 1.910 . S
O176 C182 1.231 . S
C177 O161 1.225 . S
C177 O183 1.298 . S
C178 O167 1.226 . S
C178 O168 1.307 . S
C179 O171 1.303 . S
C179 O172 1.247 . S
C180 O169 1.253 . S
C180 O170 1.283 . S
C181 O173 1.304 . S
C181 O175 1.272 1_545 S
C182 O174 1.311 . S
C182 O176 1.231 . S
O183 Zn165 1.953 . S
O183 C177 1.298 . S
H184 C196 0.930 . S
H185 C198 0.930 . S
H186 C199 0.930 . S
H187 C203 0.959 . S
H188 C203 0.959 . S
H189 C203 0.961 . S
H190 C204 0.960 . S
H191 C204 0.961 . S
H192 C204 0.959 . S
H193 C207 0.929 1_565 S
H194 C208 0.931 1_565 S
H195 C210 0.930 . S
C196 H184 0.930 . S
C196 C197 1.399 . S
C196 C201 1.399 . S
C197 C196 1.399 . S
C197 C198 1.376 . S
C198 H185 0.930 . S
C198 C197 1.376 . S
C198 C199 1.388 . S
C199 H186 0.930 . S
C199 C198 1.388 . S
C199 C200 1.390 . S
C200 C199 1.390 . S
C200 C201 1.394 . S
C200 C206 1.465 . S
C201 C196 1.399 . S
C201 C200 1.394 . S
C201 C202 1.516 . S
C202 C201 1.516 . S
C202 C203 1.502 . S
C202 C204 1.561 . S
C202 C205 1.526 . S
C203 H187 0.959 . S
C203 H188 0.959 . S
C203 H189 0.961 . S
C203 C202 1.502 . S
C204 H190 0.960 . S
C204 H191 0.961 . S
C204 H192 0.959 . S
C204 C202 1.561 . S
C205 C202 1.526 . S
C205 C206 1.396 . S
C205 C210 1.390 . S
C206 C200 1.465 . S
C206 C205 1.396 . S
C206 C207 1.399 . S
C207 H193 0.929 1_545 S
C207 C206 1.399 . S
C207 C208 1.385 . S
C208 H194 0.931 1_545 S
C208 C207 1.385 . S
C208 C209 1.389 . S
C209 C208 1.389 . S
C209 C210 1.387 . S
C210 H195 0.930 . S
C210 C205 1.390 . S
C210 C209 1.387 . S
H211 C223 0.930 . S
H212 C225 0.930 . S
H213 C226 0.930 . S
H214 C230 0.959 . S
H215 C230 0.959 . S
H216 C230 0.961 . S
H217 C231 0.960 . S
H218 C231 0.961 . S
H219 C231 0.959 . S
H220 C234 0.929 . S
H221 C235 0.931 . S
H222 C237 0.930 . S
C223 H211 0.930 . S
C223 C224 1.399 . S
C223 C228 1.399 . S
C224 C223 1.399 . S
C224 C225 1.376 . S
C225 H212 0.930 . S
C225 C224 1.376 . S
C225 C226 1.388 . S
C226 H213 0.930 . S
C226 C225 1.388 . S
C226 C227 1.390 . S
C227 C226 1.390 . S
C227 C228 1.394 . S
C227 C233 1.465 . S
C228 C223 1.399 . S
C228 C227 1.394 . S
C228 C229 1.516 . S
C229 C228 1.516 . S
C229 C230 1.502 . S
C229 C231 1.561 . S
C229 C232 1.526 . S
C230 H214 0.959 . S
C230 H215 0.959 . S
C230 H216 0.961 . S
C230 C229 1.502 . S
C231 H217 0.960 . S
C231 H218 0.961 . S
C231 H219 0.959 . S
C231 C229 1.561 . S
C232 C229 1.526 . S
C232 C233 1.396 . S
C232 C237 1.390 . S
C233 C227 1.465 . S
C233 C232 1.396 . S
C233 C234 1.399 . S
C234 H220 0.929 . S
C234 C233 1.399 . S
C234 C235 1.385 . S
C235 H221 0.931 . S
C235 C234 1.385 . S
C235 C236 1.389 . S
C236 C235 1.389 . S
C236 C237 1.387 . S
C237 H222 0.930 . S
C237 C232 1.390 . S
C237 C236 1.387 . S
H238 C250 0.930 . S
H239 C252 0.930 1_655 S
H240 C253 0.930 . S
H241 C257 0.959 . S
H242 C257 0.959 . S
H243 C257 0.961 . S
H244 C258 0.960 . S
H245 C258 0.961 . S
H246 C258 0.959 . S
H247 C261 0.929 . S
H248 C262 0.931 1_545 S
H249 C264 0.930 . S
C250 H238 0.930 . S
C250 C251 1.399 . S
C250 C255 1.399 . S
C251 C250 1.399 . S
C251 C252 1.376 . S
C252 H239 0.930 1_455 S
C252 C251 1.376 . S
C252 C253 1.388 . S
C253 H240 0.930 . S
C253 C252 1.388 . S
C253 C254 1.390 . S
C254 C253 1.390 . S
C254 C255 1.394 . S
C254 C260 1.465 . S
C255 C250 1.399 . S
C255 C254 1.394 . S
C255 C256 1.516 . S
C256 C255 1.516 . S
C256 C257 1.502 . S
C256 C258 1.561 . S
C256 C259 1.526 . S
C257 H241 0.959 . S
C257 H242 0.959 . S
C257 H243 0.961 . S
C257 C256 1.502 . S
C258 H244 0.960 . S
C258 H245 0.961 . S
C258 H246 0.959 . S
C258 C256 1.561 . S
C259 C256 1.526 . S
C259 C260 1.396 . S
C259 C264 1.390 . S
C260 C254 1.465 . S
C260 C259 1.396 . S
C260 C261 1.399 . S
C261 H247 0.929 . S
C261 C260 1.399 . S
C261 C262 1.385 . S
C262 H248 0.931 1_565 S
C262 C261 1.385 . S
C262 C263 1.389 . S
C263 C262 1.389 . S
C263 C264 1.387 . S
C264 H249 0.930 . S
C264 C259 1.390 . S
C264 C263 1.387 . S
H265 C277 0.930 . S
H266 C279 0.930 . S
H267 C280 0.930 1_556 S
H268 C284 0.959 . S
H269 C284 0.959 . S
H270 C284 0.961 . S
H271 C285 0.960 . S
H272 C285 0.961 . S
H273 C285 0.959 . S
H274 C288 0.929 . S
H275 C289 0.931 . S
H276 C291 0.930 . S
C277 H265 0.930 . S
C277 C278 1.399 . S
C277 C282 1.399 . S
C278 C277 1.399 . S
C278 C279 1.376 . S
C279 H266 0.930 . S
C279 C278 1.376 . S
C279 C280 1.388 . S
C280 H267 0.930 1_554 S
C280 C279 1.388 . S
C280 C281 1.390 . S
C281 C280 1.390 . S
C281 C282 1.394 . S
C281 C287 1.465 1_554 S
C282 C277 1.399 . S
C282 C281 1.394 . S
C282 C283 1.516 . S
C283 C282 1.516 . S
C283 C284 1.502 . S
C283 C285 1.561 . S
C283 C286 1.526 1_554 S
C284 H268 0.959 . S
C284 H269 0.959 . S
C284 H270 0.961 . S
C284 C283 1.502 . S
C285 H271 0.960 . S
C285 H272 0.961 . S
C285 H273 0.959 . S
C285 C283 1.561 . S
C286 C283 1.526 1_556 S
C286 C287 1.396 . S
C286 C291 1.390 . S
C287 C281 1.465 1_556 S
C287 C286 1.396 . S
C287 C288 1.399 . S
C288 H274 0.929 . S
C288 C287 1.399 . S
C288 C289 1.385 . S
C289 H275 0.931 . S
C289 C288 1.385 . S
C289 C290 1.389 . S
C290 C289 1.389 . S
C290 C291 1.387 . S
C291 H276 0.930 . S
C291 C286 1.390 . S
C291 C290 1.387 . S
H292 C304 0.930 . S
H293 C306 0.930 . S
H294 C307 0.930 . S
H295 C311 0.959 . S
H296 C311 0.959 . S
H297 C311 0.961 . S
H298 C312 0.960 . S
H299 C312 0.961 . S
H300 C312 0.959 . S
H301 C315 0.929 . S
H302 C316 0.931 . S
H303 C318 0.930 . S
C304 H292 0.930 . S
C304 C305 1.399 . S
C304 C309 1.399 . S
C305 C304 1.399 . S
C305 C306 1.376 . S
C306 H293 0.930 . S
C306 C305 1.376 . S
C306 C307 1.388 . S
C307 H294 0.930 . S
C307 C306 1.388 . S
C307 C308 1.390 . S
C308 C307 1.390 . S
C308 C309 1.394 . S
C308 C314 1.465 . S
C309 C304 1.399 . S
C309 C308 1.394 . S
C309 C310 1.516 . S
C310 C309 1.516 . S
C310 C311 1.502 . S
C310 C312 1.561 . S
C310 C313 1.526 . S
C311 H295 0.959 . S
C311 H296 0.959 . S
C311 H297 0.961 . S
C311 C310 1.502 . S
C312 H298 0.960 . S
C312 H299 0.961 . S
C312 H300 0.959 . S
C312 C310 1.561 . S
C313 C310 1.526 . S
C313 C314 1.396 . S
C313 C318 1.390 . S
C314 C308 1.465 . S
C314 C313 1.396 . S
C314 C315 1.399 . S
C315 H301 0.929 . S
C315 C314 1.399 . S
C315 C316 1.385 . S
C316 H302 0.931 . S
C316 C315 1.385 . S
C316 C317 1.389 . S
C317 C316 1.389 . S
C317 C318 1.387 . S
C318 H303 0.930 . S
C318 C313 1.390 . S
C318 C317 1.387 . S
H319 C331 0.930 . S
H320 C333 0.930 1_655 S
H321 C334 0.930 . S
H322 C338 0.959 . S
H323 C338 0.959 . S
H324 C338 0.961 . S
H325 C339 0.960 . S
H326 C339 0.961 . S
H327 C339 0.959 . S
H328 C342 0.929 . S
H329 C343 0.931 . S
H330 C345 0.930 . S
C331 H319 0.930 . S
C331 C332 1.399 . S
C331 C336 1.399 . S
C332 C331 1.399 . S
C332 C333 1.376 . S
C333 H320 0.930 1_455 S
C333 C332 1.376 . S
C333 C334 1.388 . S
C334 H321 0.930 . S
C334 C333 1.388 . S
C334 C335 1.390 . S
C335 C334 1.390 . S
C335 C336 1.394 . S
C335 C341 1.465 . S
C336 C331 1.399 . S
C336 C335 1.394 . S
C336 C337 1.516 . S
C337 C336 1.516 . S
C337 C338 1.502 . S
C337 C339 1.561 . S
C337 C340 1.526 . S
C338 H322 0.959 . S
C338 H323 0.959 . S
C338 H324 0.961 . S
C338 C337 1.502 . S
C339 H325 0.960 . S
C339 H326 0.961 . S
C339 H327 0.959 . S
C339 C337 1.561 . S
C340 C337 1.526 . S
C340 C341 1.396 . S
C340 C345 1.390 . S
C341 C335 1.465 . S
C341 C340 1.396 . S
C341 C342 1.399 . S
C342 H328 0.929 . S
C342 C341 1.399 . S
C342 C343 1.385 . S
C343 H329 0.931 . S
C343 C342 1.385 . S
C343 C344 1.389 . S
C344 C343 1.389 . S
C344 C345 1.387 . S
C345 H330 0.930 . S
C345 C340 1.390 . S
C345 C344 1.387 . S
H346 C358 0.930 . S
H347 C360 0.930 . S
H348 C361 0.930 . S
H349 C365 0.959 . S
H350 C365 0.959 . S
H351 C365 0.961 . S
H352 C366 0.960 . S
H353 C366 0.961 . S
H354 C366 0.959 . S
H355 C369 0.929 . S
H356 C370 0.931 . S
H357 C372 0.930 . S
C358 H346 0.930 . S
C358 C359 1.399 . S
C358 C363 1.399 . S
C359 C358 1.399 . S
C359 C360 1.376 . S
C360 H347 0.930 . S
C360 C359 1.376 . S
C360 C361 1.388 . S
C361 H348 0.930 . S
C361 C360 1.388 . S
C361 C362 1.390 . S
C362 C361 1.390 . S
C362 C363 1.394 . S
C362 C368 1.465 . S
C363 C358 1.399 . S
C363 C362 1.394 . S
C363 C364 1.516 . S
C364 C363 1.516 . S
C364 C365 1.502 . S
C364 C366 1.561 . S
C364 C367 1.526 . S
C365 H349 0.959 . S
C365 H350 0.959 . S
C365 H351 0.961 . S
C365 C364 1.502 . S
C366 H352 0.960 . S
C366 H353 0.961 . S
C366 H354 0.959 . S
C366 C364 1.561 . S
C367 C364 1.526 . S
C367 C368 1.396 . S
C367 C372 1.390 . S
C368 C362 1.465 . S
C368 C367 1.396 . S
C368 C369 1.399 . S
C369 H355 0.929 . S
C369 C368 1.399 . S
C369 C370 1.385 . S
C370 H356 0.931 . S
C370 C369 1.385 . S
C370 C371 1.389 . S
C371 C370 1.389 . S
C371 C372 1.387 . S
C372 H357 0.930 . S
C372 C367 1.390 . S
C372 C371 1.387 . S
H373 C385 0.930 . S
H374 C387 0.930 . S
H375 C388 0.930 . S
H376 C392 0.959 . S
H377 C392 0.959 . S
H378 C392 0.961 . S
H379 C393 0.960 1_455 S
H380 C393 0.961 1_556 S
H381 C393 0.964 . S
H382 C396 0.929 . S
H383 C397 0.931 . S
H384 C399 0.930 . S
C385 H373 0.930 . S
C385 C386 1.399 . S
C385 C390 1.399 . S
C386 C385 1.399 . S
C386 C387 1.376 . S
C387 H374 0.930 . S
C387 C386 1.376 . S
C387 C388 1.388 . S
C388 H375 0.930 . S
C388 C387 1.388 . S
C388 C389 1.390 . S
C389 C388 1.390 . S
C389 C390 1.394 . S
C389 C395 1.465 . S
C390 C385 1.399 . S
C390 C389 1.394 . S
C390 C391 1.516 . S
C391 C390 1.516 . S
C391 C392 1.502 . S
C391 C393 1.561 . S
C391 C394 1.526 . S
C392 H376 0.959 . S
C392 H377 0.959 . S
C392 H378 0.961 . S
C392 C391 1.502 . S
C393 H379 0.960 1_655 S
C393 H380 0.961 1_554 S
C393 H381 0.964 . S
C393 C391 1.561 . S
C394 C391 1.526 . S
C394 C395 1.396 . S
C394 C399 1.390 1_554 S
C395 C389 1.465 . S
C395 C394 1.396 . S
C395 C396 1.399 . S
C396 H382 0.929 . S
C396 C395 1.399 . S
C396 C397 1.385 1_554 S
C397 H383 0.931 . S
C397 C396 1.385 1_556 S
C397 C398 1.389 . S
C398 C397 1.389 . S
C398 C399 1.387 . S
C399 H384 0.930 . S
C399 C394 1.390 1_556 S
C399 C398 1.387 . S
H400 C412 0.930 . S
H401 C414 0.930 . S
H402 C415 0.930 . S
H403 C419 0.959 . S
H404 C419 0.959 . S
H405 C419 0.961 . S
H406 C420 0.960 . S
H407 C420 0.961 . S
H408 C420 0.959 . S
H409 C423 0.929 . S
H410 C424 0.931 . S
H411 C426 0.930 . S
C412 H400 0.930 . S
C412 C413 1.399 . S
C412 C417 1.399 . S
C413 C412 1.399 . S
C413 C414 1.376 . S
C414 H401 0.930 . S
C414 C413 1.376 . S
C414 C415 1.388 . S
C415 H402 0.930 . S
C415 C414 1.388 . S
C415 C416 1.390 . S
C416 C415 1.390 . S
C416 C417 1.394 . S
C416 C422 1.465 . S
C417 C412 1.399 . S
C417 C416 1.394 . S
C417 C418 1.516 . S
C418 C417 1.516 . S
C418 C419 1.502 . S
C418 C420 1.561 . S
C418 C421 1.526 . S
C419 H403 0.959 . S
C419 H404 0.959 . S
C419 H405 0.961 . S
C419 C418 1.502 . S
C420 H406 0.960 . S
C420 H407 0.961 . S
C420 H408 0.959 . S
C420 C418 1.561 . S
C421 C418 1.526 . S
C421 C422 1.396 . S
C421 C426 1.390 . S
C422 C416 1.465 . S
C422 C421 1.396 . S
C422 C423 1.399 . S
C423 H409 0.929 . S
C423 C422 1.399 . S
C423 C424 1.385 . S
C424 H410 0.931 . S
C424 C423 1.385 . S
C424 C425 1.389 . S
C425 C424 1.389 . S
C425 C426 1.387 . S
C426 H411 0.930 . S
C426 C421 1.390 . S
C426 C425 1.387 . S
H427 C439 0.930 . S
H428 C441 0.930 . S
H429 C442 0.930 . S
H430 C446 0.959 . S
H431 C446 0.959 . S
H432 C446 0.961 . S
H433 C447 0.960 . S
H434 C447 0.961 . S
H435 C447 0.959 . S
H436 C450 0.929 . S
H437 C451 0.931 . S
H438 C453 0.930 . S
C439 H427 0.930 . S
C439 C440 1.399 . S
C439 C444 1.399 . S
C440 C439 1.399 . S
C440 C441 1.376 . S
C441 H428 0.930 . S
C441 C440 1.376 . S
C441 C442 1.388 . S
C442 H429 0.930 . S
C442 C441 1.388 . S
C442 C443 1.390 . S
C443 C442 1.390 . S
C443 C444 1.394 . S
C443 C449 1.465 . S
C444 C439 1.399 . S
C444 C443 1.394 . S
C444 C445 1.516 . S
C445 C444 1.516 . S
C445 C446 1.502 . S
C445 C447 1.561 . S
C445 C448 1.526 . S
C446 H430 0.959 . S
C446 H431 0.959 . S
C446 H432 0.961 . S
C446 C445 1.502 . S
C447 H433 0.960 . S
C447 H434 0.961 . S
C447 H435 0.959 . S
C447 C445 1.561 . S
C448 C445 1.526 . S
C448 C449 1.396 . S
C448 C453 1.390 . S
C449 C443 1.465 . S
C449 C448 1.396 . S
C449 C450 1.399 . S
C450 H436 0.929 . S
C450 C449 1.399 . S
C450 C451 1.385 . S
C451 H437 0.931 . S
C451 C450 1.385 . S
C451 C452 1.389 . S
C452 C451 1.389 . S
C452 C453 1.387 . S
C453 H438 0.930 . S
C453 C448 1.390 . S
C453 C452 1.387 . S
H454 C466 0.930 . S
H455 C468 0.930 . S
H456 C469 0.930 . S
H457 C473 0.959 . S
H458 C473 0.959 . S
H459 C473 0.961 . S
H460 C474 0.960 . S
H461 C474 0.961 . S
H462 C474 0.959 . S
H463 C477 0.929 . S
H464 C478 0.931 1_545 S
H465 C480 0.930 . S
C466 H454 0.930 . S
C466 C467 1.399 1_556 S
C466 C471 1.399 . S
C467 C466 1.399 1_554 S
C467 C468 1.376 . S
C468 H455 0.930 . S
C468 C467 1.376 . S
C468 C469 1.388 . S
C469 H456 0.930 . S
C469 C468 1.388 . S
C469 C470 1.390 1_554 S
C470 C469 1.390 1_556 S
C470 C471 1.394 . S
C470 C476 1.465 . S
C471 C466 1.399 . S
C471 C470 1.394 . S
C471 C472 1.516 . S
C472 C471 1.516 . S
C472 C473 1.502 . S
C472 C474 1.561 . S
C472 C475 1.526 . S
C473 H457 0.959 . S
C473 H458 0.959 . S
C473 H459 0.961 . S
C473 C472 1.502 . S
C474 H460 0.960 . S
C474 H461 0.961 . S
C474 H462 0.959 . S
C474 C472 1.561 . S
C475 C472 1.526 . S
C475 C476 1.396 . S
C475 C480 1.390 . S
C476 C470 1.465 . S
C476 C475 1.396 . S
C476 C477 1.399 . S
C477 H463 0.929 . S
C477 C476 1.399 . S
C477 C478 1.385 . S
C478 H464 0.931 1_565 S
C478 C477 1.385 . S
C478 C479 1.389 . S
C479 C478 1.389 . S
C479 C480 1.387 . S
C480 H465 0.930 . S
C480 C475 1.390 . S
C480 C479 1.387 . S
H481 C493 0.930 . S
H482 C495 0.930 . S
H483 C496 0.930 . S
H484 C500 0.959 . S
H485 C500 0.959 . S
H486 C500 0.961 . S
H487 C501 0.960 . S
H488 C501 0.961 . S
H489 C501 0.959 . S
H490 C504 0.929 . S
H491 C505 0.931 . S
H492 C507 0.930 . S
C493 H481 0.930 . S
C493 C494 1.399 . S
C493 C498 1.399 . S
C494 C493 1.399 . S
C494 C495 1.376 . S
C495 H482 0.930 . S
C495 C494 1.376 . S
C495 C496 1.388 . S
C496 H483 0.930 . S
C496 C495 1.388 . S
C496 C497 1.390 . S
C497 C496 1.390 . S
C497 C498 1.394 . S
C497 C503 1.465 . S
C498 C493 1.399 . S
C498 C497 1.394 . S
C498 C499 1.516 . S
C499 C498 1.516 . S
C499 C500 1.502 . S
C499 C501 1.561 . S
C499 C502 1.526 . S
C500 H484 0.959 . S
C500 H485 0.959 . S
C500 H486 0.961 . S
C500 C499 1.502 . S
C501 H487 0.960 . S
C501 H488 0.961 . S
C501 H489 0.959 . S
C501 C499 1.561 . S
C502 C499 1.526 . S
C502 C503 1.396 . S
C502 C507 1.390 . S
C503 C497 1.465 . S
C503 C502 1.396 . S
C503 C504 1.399 . S
C504 H490 0.929 . S
C504 C503 1.399 . S
C504 C505 1.385 . S
C505 H491 0.931 . S
C505 C504 1.385 . S
C505 C506 1.389 . S
C506 C505 1.389 . S
C506 C507 1.387 . S
C507 H492 0.930 . S
C507 C502 1.390 . S
C507 C506 1.387 . S
H508 C520 0.930 . S
H509 C522 0.930 . S
H510 C523 0.930 . S
H511 C527 0.959 . S
H512 C527 0.959 1_554 S
H513 C527 0.961 . S
H514 C528 0.971 . S
H515 C528 0.961 . S
H516 C528 0.959 . S
H517 C531 0.929 . S
H518 C532 0.931 . S
H519 C534 0.930 . S
C520 H508 0.930 . S
C520 C521 1.399 . S
C520 C525 1.399 . S
C521 C520 1.399 . S
C521 C522 1.376 . S
C522 H509 0.930 . S
C522 C521 1.376 . S
C522 C523 1.388 . S
C523 H510 0.930 . S
C523 C522 1.388 . S
C523 C524 1.390 . S
C524 C523 1.390 . S
C524 C525 1.394 . S
C524 C530 1.465 1_556 S
C525 C520 1.399 . S
C525 C524 1.394 . S
C525 C526 1.516 1_556 S
C526 C525 1.516 1_554 S
C526 C527 1.502 1_554 S
C526 C528 1.561 . S
C526 C529 1.526 . S
C527 H511 0.959 . S
C527 H512 0.959 1_556 S
C527 H513 0.961 . S
C527 C526 1.502 1_556 S
C528 H514 0.971 . S
C528 H515 0.961 . S
C528 H516 0.959 . S
C528 C526 1.561 . S
C529 C526 1.526 . S
C529 C530 1.396 . S
C529 C534 1.390 . S
C530 C524 1.465 1_554 S
C530 C529 1.396 . S
C530 C531 1.399 . S
C531 H517 0.929 . S
C531 C530 1.399 . S
C531 C532 1.385 . S
C532 H518 0.931 . S
C532 C531 1.385 . S
C532 C533 1.389 . S
C533 C532 1.389 . S
C533 C534 1.387 . S
C534 H519 0.930 . S
C534 C529 1.390 . S
C534 C533 1.387 . S
H535 C547 0.930 . S
H536 C549 0.930 . S
H537 C550 0.930 . S
H538 C554 0.959 . S
H539 C554 0.959 . S
H540 C554 0.961 . S
H541 C555 0.960 . S
H542 C555 0.961 . S
H543 C555 0.959 . S
H544 C558 0.929 . S
H545 C559 0.931 . S
H546 C561 0.930 . S
C547 H535 0.930 . S
C547 C548 1.399 . S
C547 C552 1.399 . S
C548 C547 1.399 . S
C548 C549 1.376 . S
C549 H536 0.930 . S
C549 C548 1.376 . S
C549 C550 1.388 . S
C550 H537 0.930 . S
C550 C549 1.388 . S
C550 C551 1.390 . S
C551 C550 1.390 . S
C551 C552 1.394 . S
C551 C557 1.465 . S
C552 C547 1.399 . S
C552 C551 1.394 . S
C552 C553 1.516 . S
C553 C552 1.516 . S
C553 C554 1.502 . S
C553 C555 1.561 . S
C553 C556 1.526 . S
C554 H538 0.959 . S
C554 H539 0.959 . S
C554 H540 0.961 . S
C554 C553 1.502 . S
C555 H541 0.960 . S
C555 H542 0.961 . S
C555 H543 0.959 . S
C555 C553 1.561 . S
C556 C553 1.526 . S
C556 C557 1.396 . S
C556 C561 1.390 . S
C557 C551 1.465 . S
C557 C556 1.396 . S
C557 C558 1.399 . S
C558 H544 0.929 . S
C558 C557 1.399 . S
C558 C559 1.385 . S
C559 H545 0.931 . S
C559 C558 1.385 . S
C559 C560 1.389 . S
C560 C559 1.389 . S
C560 C561 1.387 . S
C561 H546 0.930 . S
C561 C556 1.390 . S
C561 C560 1.387 . S
H562 C574 0.930 . S
H563 C576 0.930 . S
H564 C577 0.930 . S
H565 C581 0.959 . S
H566 C581 0.959 . S
H567 C581 0.961 . S
H568 C582 0.960 . S
H569 C582 0.961 . S
H570 C582 0.959 . S
H571 C585 0.929 . S
H572 C586 0.931 . S
H573 C588 0.930 . S
C574 H562 0.930 . S
C574 C575 1.399 . S
C574 C579 1.399 . S
C575 C574 1.399 . S
C575 C576 1.376 . S
C576 H563 0.930 . S
C576 C575 1.376 . S
C576 C577 1.388 . S
C577 H564 0.930 . S
C577 C576 1.388 . S
C577 C578 1.390 . S
C578 C577 1.390 . S
C578 C579 1.394 . S
C578 C584 1.465 . S
C579 C574 1.399 . S
C579 C578 1.394 . S
C579 C580 1.516 . S
C580 C579 1.516 . S
C580 C581 1.502 . S
C580 C582 1.561 . S
C580 C583 1.526 . S
C581 H565 0.959 . S
C581 H566 0.959 . S
C581 H567 0.961 . S
C581 C580 1.502 . S
C582 H568 0.960 . S
C582 H569 0.961 . S
C582 H570 0.959 . S
C582 C580 1.561 . S
C583 C580 1.526 . S
C583 C584 1.396 . S
C583 C588 1.390 . S
C584 C578 1.465 . S
C584 C583 1.396 . S
C584 C585 1.399 . S
C585 H571 0.929 . S
C585 C584 1.399 . S
C585 C586 1.385 . S
C586 H572 0.931 . S
C586 C585 1.385 . S
C586 C587 1.389 . S
C587 C586 1.389 . S
C587 C588 1.387 . S
C588 H573 0.930 . S
C588 C583 1.390 . S
C588 C587 1.387 . S
H589 C601 0.930 . S
H590 C603 0.930 . S
H591 C604 0.930 . S
H592 C608 0.959 . S
H593 C608 0.959 . S
H594 C608 0.961 . S
H595 C609 0.960 . S
H596 C609 0.961 . S
H597 C609 0.959 . S
H598 C612 0.929 . S
H599 C613 0.931 . S
H600 C615 0.930 . S
C601 H589 0.930 . S
C601 C602 1.399 . S
C601 C606 1.399 . S
C602 C601 1.399 . S
C602 C603 1.376 . S
C603 H590 0.930 . S
C603 C602 1.376 . S
C603 C604 1.388 . S
C604 H591 0.930 . S
C604 C603 1.388 . S
C604 C605 1.390 . S
C605 C604 1.390 . S
C605 C606 1.394 . S
C605 C611 1.465 . S
C606 C601 1.399 . S
C606 C605 1.394 . S
C606 C607 1.516 . S
C607 C606 1.516 . S
C607 C608 1.502 . S
C607 C609 1.561 . S
C607 C610 1.526 . S
C608 H592 0.959 . S
C608 H593 0.959 . S
C608 H594 0.961 . S
C608 C607 1.502 . S
C609 H595 0.960 . S
C609 H596 0.961 . S
C609 H597 0.959 . S
C609 C607 1.561 . S
C610 C607 1.526 . S
C610 C611 1.396 . S
C610 C615 1.390 . S
C611 C605 1.465 . S
C611 C610 1.396 . S
C611 C612 1.399 . S
C612 H598 0.929 . S
C612 C611 1.399 . S
C612 C613 1.385 . S
C613 H599 0.931 . S
C613 C612 1.385 . S
C613 C614 1.389 . S
C614 C613 1.389 . S
C614 C615 1.387 . S
C615 H600 0.930 . S
C615 C610 1.390 . S
C615 C614 1.387 . S
H616 C628 0.930 . S
H617 C630 0.930 . S
H618 C631 0.930 . S
H619 C635 0.959 . S
H620 C635 0.959 1_565 S
H621 C635 0.961 . S
H622 C636 0.960 . S
H623 C636 0.961 . S
H624 C636 0.959 . S
H625 C639 0.929 . S
H626 C640 0.931 . S
H627 C642 0.930 . S
C628 H616 0.930 . S
C628 C629 1.399 . S
C628 C633 1.399 . S
C629 C628 1.399 . S
C629 C630 1.376 . S
C630 H617 0.930 . S
C630 C629 1.376 . S
C630 C631 1.388 . S
C631 H618 0.930 . S
C631 C630 1.388 . S
C631 C632 1.390 . S
C632 C631 1.390 . S
C632 C633 1.394 . S
C632 C638 1.465 1_545 S
C633 C628 1.399 . S
C633 C632 1.394 . S
C633 C634 1.516 1_545 S
C634 C633 1.516 1_565 S
C634 C635 1.502 1_565 S
C634 C636 1.561 . S
C634 C637 1.526 . S
C635 H619 0.959 . S
C635 H620 0.959 1_545 S
C635 H621 0.961 . S
C635 C634 1.502 1_545 S
C636 H622 0.960 . S
C636 H623 0.961 . S
C636 H624 0.959 . S
C636 C634 1.561 . S
C637 C634 1.526 . S
C637 C638 1.396 . S
C637 C642 1.390 . S
C638 C632 1.465 1_565 S
C638 C637 1.396 . S
C638 C639 1.399 . S
C639 H625 0.929 . S
C639 C638 1.399 . S
C639 C640 1.385 . S
C640 H626 0.931 . S
C640 C639 1.385 . S
C640 C641 1.389 . S
C641 C640 1.389 . S
C641 C642 1.387 . S
C642 H627 0.930 . S
C642 C637 1.390 . S
C642 C641 1.387 . S
H643 C655 0.930 . S
H644 C657 0.930 . S
H645 C658 0.930 . S
H646 C662 0.959 . S
H647 C662 0.959 . S
H648 C662 0.961 . S
H649 C663 0.960 . S
H650 C663 0.961 . S
H651 C663 0.959 . S
H652 C666 0.929 . S
H653 C667 0.931 . S
H654 C669 0.930 . S
C655 H643 0.930 . S
C655 C656 1.399 . S
C655 C660 1.399 . S
C656 C655 1.399 . S
C656 C657 1.376 . S
C657 H644 0.930 . S
C657 C656 1.376 . S
C657 C658 1.388 . S
C658 H645 0.930 . S
C658 C657 1.388 . S
C658 C659 1.390 . S
C659 C658 1.390 . S
C659 C660 1.394 . S
C659 C665 1.465 . S
C660 C655 1.399 . S
C660 C659 1.394 . S
C660 C661 1.516 . S
C661 C660 1.516 . S
C661 C662 1.502 . S
C661 C663 1.561 . S
C661 C664 1.526 . S
C662 H646 0.959 . S
C662 H647 0.959 . S
C662 H648 0.961 . S
C662 C661 1.502 . S
C663 H649 0.960 . S
C663 H650 0.961 . S
C663 H651 0.959 . S
C663 C661 1.561 . S
C664 C661 1.526 . S
C664 C665 1.396 . S
C664 C669 1.390 . S
C665 C659 1.465 . S
C665 C664 1.396 . S
C665 C666 1.399 . S
C666 H652 0.929 . S
C666 C665 1.399 . S
C666 C667 1.385 . S
C667 H653 0.931 . S
C667 C666 1.385 . S
C667 C668 1.389 . S
C668 C667 1.389 . S
C668 C669 1.387 . S
C669 H654 0.930 . S
C669 C664 1.390 . S
C669 C668 1.387 . S
H670 C682 0.930 . S
H671 C684 0.930 . S
H672 C685 0.930 . S
H673 C689 0.959 . S
H674 C689 0.959 . S
H675 C689 0.961 . S
H676 C690 0.960 . S
H677 C690 0.961 . S
H678 C690 0.959 . S
H679 C693 0.929 . S
H680 C694 0.931 . S
H681 C696 0.930 . S
C682 H670 0.930 . S
C682 C683 1.399 . S
C682 C687 1.399 . S
C683 C682 1.399 . S
C683 C684 1.376 . S
C684 H671 0.930 . S
C684 C683 1.376 . S
C684 C685 1.388 . S
C685 H672 0.930 . S
C685 C684 1.388 . S
C685 C686 1.390 . S
C686 C685 1.390 . S
C686 C687 1.394 . S
C686 C692 1.465 1_545 S
C687 C682 1.399 . S
C687 C686 1.394 . S
C687 C688 1.516 . S
C688 C687 1.516 . S
C688 C689 1.502 . S
C688 C690 1.561 . S
C688 C691 1.526 1_545 S
C689 H673 0.959 . S
C689 H674 0.959 . S
C689 H675 0.961 . S
C689 C688 1.502 . S
C690 H676 0.960 . S
C690 H677 0.961 . S
C690 H678 0.959 . S
C690 C688 1.561 . S
C691 C688 1.526 1_565 S
C691 C692 1.396 . S
C691 C696 1.390 . S
C692 C686 1.465 1_565 S
C692 C691 1.396 . S
C692 C693 1.399 . S
C693 H679 0.929 . S
C693 C692 1.399 . S
C693 C694 1.385 . S
C694 H680 0.931 . S
C694 C693 1.385 . S
C694 C695 1.389 . S
C695 C694 1.389 . S
C695 C696 1.387 . S
C696 H681 0.930 . S
C696 C691 1.390 . S
C696 C695 1.387 . S
H697 C709 0.930 . S
H698 C711 0.930 . S
H699 C712 0.930 . S
H700 C716 0.959 . S
H701 C716 0.959 . S
H702 C716 0.961 . S
H703 C717 0.960 . S
H704 C717 0.961 . S
H705 C717 0.959 . S
H706 C720 0.929 . S
H707 C721 0.931 . S
H708 C723 0.930 . S
C709 H697 0.930 . S
C709 C710 1.399 . S
C709 C714 1.399 . S
C710 C709 1.399 . S
C710 C711 1.376 . S
C711 H698 0.930 . S
C711 C710 1.376 . S
C711 C712 1.388 . S
C712 H699 0.930 . S
C712 C711 1.388 . S
C712 C713 1.390 . S
C713 C712 1.390 . S
C713 C714 1.394 . S
C713 C719 1.465 . S
C714 C709 1.399 . S
C714 C713 1.394 . S
C714 C715 1.516 . S
C715 C714 1.516 . S
C715 C716 1.502 . S
C715 C717 1.561 . S
C715 C718 1.526 . S
C716 H700 0.959 . S
C716 H701 0.959 . S
C716 H702 0.961 . S
C716 C715 1.502 . S
C717 H703 0.960 . S
C717 H704 0.961 . S
C717 H705 0.959 . S
C717 C715 1.561 . S
C718 C715 1.526 . S
C718 C719 1.396 . S
C718 C723 1.390 . S
C719 C713 1.465 . S
C719 C718 1.396 . S
C719 C720 1.399 . S
C720 H706 0.929 . S
C720 C719 1.399 . S
C720 C721 1.385 . S
C721 H707 0.931 . S
C721 C720 1.385 . S
C721 C722 1.389 . S
C722 C721 1.389 . S
C722 C723 1.387 . S
C723 H708 0.930 . S
C723 C718 1.390 . S
C723 C722 1.387 . S
H724 C736 0.930 . S
H725 C738 0.930 . S
H726 C739 0.930 . S
H727 C743 0.959 . S
H728 C743 0.959 . S
H729 C743 0.961 . S
H730 C744 0.960 . S
H731 C744 0.961 . S
H732 C744 0.959 . S
H733 C747 0.929 . S
H734 C748 0.931 . S
H735 C750 0.930 . S
C736 H724 0.930 . S
C736 C737 1.399 . S
C736 C741 1.399 . S
C737 C736 1.399 . S
C737 C738 1.376 . S
C738 H725 0.930 . S
C738 C737 1.376 . S
C738 C739 1.388 . S
C739 H726 0.930 . S
C739 C738 1.388 . S
C739 C740 1.390 . S
C740 C739 1.390 . S
C740 C741 1.394 . S
C740 C746 1.465 . S
C741 C736 1.399 . S
C741 C740 1.394 . S
C741 C742 1.516 . S
C742 C741 1.516 . S
C742 C743 1.502 . S
C742 C744 1.561 . S
C742 C745 1.526 . S
C743 H727 0.959 . S
C743 H728 0.959 . S
C743 H729 0.961 . S
C743 C742 1.502 . S
C744 H730 0.960 . S
C744 H731 0.961 . S
C744 H732 0.959 . S
C744 C742 1.561 . S
C745 C742 1.526 . S
C745 C746 1.396 . S
C745 C750 1.390 . S
C746 C740 1.465 . S
C746 C745 1.396 . S
C746 C747 1.399 . S
C747 H733 0.929 . S
C747 C746 1.399 . S
C747 C748 1.385 . S
C748 H734 0.931 . S
C748 C747 1.385 . S
C748 C749 1.389 . S
C749 C748 1.389 . S
C749 C750 1.387 . S
C750 H735 0.930 . S
C750 C745 1.390 . S
C750 C749 1.387 . S
H751 C763 0.930 . S
H752 C765 0.930 . S
H753 C766 0.930 . S
H754 C770 0.959 . S
H755 C770 0.944 1_655 S
H756 C770 0.961 . S
H757 C771 0.960 1_455 S
H758 C771 0.961 . S
H759 C771 0.959 . S
H760 C774 0.929 . S
H761 C775 0.931 . S
H762 C777 0.930 . S
C763 H751 0.930 . S
C763 C764 1.399 . S
C763 C768 1.399 . S
C764 C763 1.399 . S
C764 C765 1.376 . S
C765 H752 0.930 . S
C765 C764 1.376 . S
C765 C766 1.388 . S
C766 H753 0.930 . S
C766 C765 1.388 . S
C766 C767 1.390 . S
C767 C766 1.390 . S
C767 C768 1.394 . S
C767 C773 1.465 1_455 S
C768 C763 1.399 . S
C768 C767 1.394 . S
C768 C769 1.505 1_455 S
C769 C768 1.505 1_655 S
C769 C770 1.494 1_655 S
C769 C771 1.569 . S
C769 C772 1.539 . S
C770 H754 0.959 . S
C770 H755 0.944 1_455 S
C770 H756 0.961 . S
C770 C769 1.494 1_455 S
C771 H757 0.960 1_655 S
C771 H758 0.961 . S
C771 H759 0.959 . S
C771 C769 1.569 . S
C772 C769 1.539 . S
C772 C773 1.396 . S
C772 C777 1.390 . S
C773 C767 1.465 1_655 S
C773 C772 1.396 . S
C773 C774 1.399 . S
C774 H760 0.929 . S
C774 C773 1.399 . S
C774 C775 1.385 . S
C775 H761 0.931 . S
C775 C774 1.385 . S
C775 C776 1.389 . S
C776 C775 1.389 . S
C776 C777 1.387 . S
C777 H762 0.930 . S
C777 C772 1.390 . S
C777 C776 1.387 . S
H778 C790 0.930 . S
H779 C792 0.930 . S
H780 C793 0.930 . S
H781 C797 0.959 . S
H782 C797 0.959 . S
H783 C797 0.961 . S
H784 C798 0.960 . S
H785 C798 0.961 . S
H786 C798 0.959 . S
H787 C801 0.929 . S
H788 C802 0.931 . S
H789 C804 0.930 . S
C790 H778 0.930 . S
C790 C791 1.399 . S
C790 C795 1.399 . S
C791 C790 1.399 . S
C791 C792 1.376 . S
C792 H779 0.930 . S
C792 C791 1.376 . S
C792 C793 1.388 . S
C793 H780 0.930 . S
C793 C792 1.388 . S
C793 C794 1.390 . S
C794 C793 1.390 . S
C794 C795 1.394 . S
C794 C800 1.465 . S
C795 C790 1.399 . S
C795 C794 1.394 . S
C795 C796 1.516 . S
C796 C795 1.516 . S
C796 C797 1.502 . S
C796 C798 1.561 . S
C796 C799 1.526 . S
C797 H781 0.959 . S
C797 H782 0.959 . S
C797 H783 0.961 . S
C797 C796 1.502 . S
C798 H784 0.960 . S
C798 H785 0.961 . S
C798 H786 0.959 . S
C798 C796 1.561 . S
C799 C796 1.526 . S
C799 C800 1.396 . S
C799 C804 1.390 . S
C800 C794 1.465 . S
C800 C799 1.396 . S
C800 C801 1.399 . S
C801 H787 0.929 . S
C801 C800 1.399 . S
C801 C802 1.385 . S
C802 H788 0.931 . S
C802 C801 1.385 . S
C802 C803 1.389 . S
C803 C802 1.389 . S
C803 C804 1.387 . S
C804 H789 0.930 . S
C804 C799 1.390 . S
C804 C803 1.387 . S
H805 C817 0.930 . S
H806 C819 0.930 . S
H807 C820 0.930 . S
H808 C824 0.959 . S
H809 C824 0.959 . S
H810 C824 0.961 . S
H811 C825 0.961 . S
H812 C825 0.961 . S
H813 C825 0.959 . S
H814 C828 0.929 . S
H815 C829 0.931 . S
H816 C831 0.930 . S
C817 H805 0.930 . S
C817 C818 1.399 . S
C817 C822 1.399 . S
C818 C817 1.399 . S
C818 C819 1.376 . S
C819 H806 0.930 . S
C819 C818 1.376 . S
C819 C820 1.388 . S
C820 H807 0.930 . S
C820 C819 1.388 . S
C820 C821 1.390 . S
C821 C820 1.390 . S
C821 C822 1.394 . S
C821 C827 1.465 1_655 S
C822 C817 1.399 . S
C822 C821 1.394 . S
C822 C823 1.516 1_655 S
C823 C822 1.516 1_455 S
C823 C824 1.502 . S
C823 C825 1.561 . S
C823 C826 1.526 . S
C824 H808 0.959 . S
C824 H809 0.959 . S
C824 H810 0.961 . S
C824 C823 1.502 . S
C825 H811 0.961 . S
C825 H812 0.961 . S
C825 H813 0.959 . S
C825 C823 1.561 . S
C826 C823 1.526 . S
C826 C827 1.396 . S
C826 C831 1.390 . S
C827 C821 1.465 1_455 S
C827 C826 1.396 . S
C827 C828 1.399 . S
C828 H814 0.929 . S
C828 C827 1.399 . S
C828 C829 1.385 . S
C829 H815 0.931 . S
C829 C828 1.385 . S
C829 C830 1.389 . S
C830 C829 1.389 . S
C830 C831 1.387 . S
C831 H816 0.930 . S
C831 C826 1.390 . S
C831 C830 1.387 . S
C197 C18 1.193 . S
C209 C181 1.127 . S
C224 C43 1.150 . S
C236 C110 1.194 . S
C251 C64 1.219 . S
C263 C133 1.217 . S
C278 C156 1.196 . S
C290 C87 1.208 . S
C305 C16 1.260 . S
C317 C41 1.291 . S
C332 C66 1.178 . S
C344 C40 1.220 . S
C359 C89 1.285 . S
C371 C62 1.233 . S
C386 C20 1.276 . S
C398 C85 1.225 . S
C413 C108 1.311 . S
C425 C179 1.314 . S
C440 C131 1.219 . S
C452 C112 1.270 . S
C467 C154 1.225 . S
C479 C135 1.235 . S
C494 C158 1.212 . S
C506 C178 1.253 . S
C521 C132 0.853 . S
C533 C17 0.840 . S
C548 C155 0.940 . S
C560 C39 0.879 . S
C575 C177 0.862 . S
C587 C63 0.928 . S
C602 C109 0.902 . S
C614 C86 0.850 . S
C629 C19 1.864 . S
C641 C159 1.906 . S
C656 C44 1.879 . S
C668 C180 1.822 . S
C683 C113 1.823 . S
C695 C65 1.831 . S
C710 C136 1.879 . S
C722 C88 1.854 . S
C737 C67 1.888 . S
C749 C111 1.871 . S
C764 C134 1.835 . S
C776 C90 1.879 . S
C791 C157 1.826 . S
C803 C21 1.821 . S
C818 C182 1.877 . S
C830 C42 1.825 . S
