# Generated by pormake.
# Topology umo, (4)-cn, num edge types: 1
# Building blocks:
#     Node 0, Type 0, BuildingBlock: QUQFOY_clean_sbu_1, # of connection points: 4
#     Node 1, Type 0, BuildingBlock: QUQFOY_clean_sbu_1, # of connection points: 4
#     Node 2, Type 0, BuildingBlock: QUQFOY_clean_sbu_1, # of connection points: 4
#     Node 3, Type 0, BuildingBlock: QUQFOY_clean_sbu_1, # of connection points: 4
#     Node 4, Type 0, BuildingBlock: QUQFOY_clean_sbu_1, # of connection points: 4
#     Node 5, Type 0, BuildingBlock: QUQFOY_clean_sbu_1, # of connection points: 4
#     Node 6, Type 0, BuildingBlock: QUQFOY_clean_sbu_1, # of connection points: 4
#     Node 7, Type 0, BuildingBlock: QUQFOY_clean_sbu_1, # of connection points: 4
#     Node 8, Type 0, BuildingBlock: QUQFOY_clean_sbu_1, # of connection points: 4
#     Node 9, Type 0, BuildingBlock: QUQFOY_clean_sbu_1, # of connection points: 4
#     Node 10, Type 0, BuildingBlock: QUQFOY_clean_sbu_1, # of connection points: 4
#     Node 11, Type 0, BuildingBlock: QUQFOY_clean_sbu_1, # of connection points: 4
#     Edge 12, Type (0, 0), BuildingBlock: CIFDUS_clean_linker_0, # of connection points: 2
#     Edge 13, Type (0, 0), BuildingBlock: CIFDUS_clean_linker_0, # of connection points: 2
#     Edge 14, Type (0, 0), BuildingBlock: CIFDUS_clean_linker_0, # of connection points: 2
#     Edge 15, Type (0, 0), BuildingBlock: CIFDUS_clean_linker_0, # of connection points: 2
#     Edge 16, Type (0, 0), BuildingBlock: CIFDUS_clean_linker_0, # of connection points: 2
#     Edge 17, Type (0, 0), BuildingBlock: CIFDUS_clean_linker_0, # of connection points: 2
#     Edge 18, Type (0, 0), BuildingBlock: CIFDUS_clean_linker_0, # of connection points: 2
#     Edge 19, Type (0, 0), BuildingBlock: CIFDUS_clean_linker_0, # of connection points: 2
#     Edge 20, Type (0, 0), BuildingBlock: CIFDUS_clean_linker_0, # of connection points: 2
#     Edge 21, Type (0, 0), BuildingBlock: CIFDUS_clean_linker_0, # of connection points: 2
#     Edge 22, Type (0, 0), BuildingBlock: CIFDUS_clean_linker_0, # of connection points: 2
#     Edge 23, Type (0, 0), BuildingBlock: CIFDUS_clean_linker_0, # of connection points: 2
#     Edge 24, Type (0, 0), BuildingBlock: CIFDUS_clean_linker_0, # of connection points: 2
#     Edge 25, Type (0, 0), BuildingBlock: CIFDUS_clean_linker_0, # of connection points: 2
#     Edge 26, Type (0, 0), BuildingBlock: CIFDUS_clean_linker_0, # of connection points: 2
#     Edge 27, Type (0, 0), BuildingBlock: CIFDUS_clean_linker_0, # of connection points: 2
#     Edge 28, Type (0, 0), BuildingBlock: CIFDUS_clean_linker_0, # of connection points: 2
#     Edge 29, Type (0, 0), BuildingBlock: CIFDUS_clean_linker_0, # of connection points: 2
#     Edge 30, Type (0, 0), BuildingBlock: CIFDUS_clean_linker_0, # of connection points: 2
#     Edge 31, Type (0, 0), BuildingBlock: CIFDUS_clean_linker_0, # of connection points: 2
#     Edge 32, Type (0, 0), BuildingBlock: CIFDUS_clean_linker_0, # of connection points: 2
#     Edge 33, Type (0, 0), BuildingBlock: CIFDUS_clean_linker_0, # of connection points: 2
#     Edge 34, Type (0, 0), BuildingBlock: CIFDUS_clean_linker_0, # of connection points: 2
#     Edge 35, Type (0, 0), BuildingBlock: CIFDUS_clean_linker_0, # of connection points: 2
# Relax obj value: 0.084
# Max RMSD: 0.126
# Mean RMSD: 0.126
data_MOF--net-umo--node1-QUQFOY_clean_sbu_1--edge1-CIFDUS_clean_linker_0
_symmetry_space_group_name_H-M    P1
_symmetry_Int_Tables_number       1
_symmetry_cell_setting            triclinic
loop_
_symmetry_equiv_pos_as_xyz
'x, y, z'
_cell_length_a     46.841908
_cell_length_b     46.883589
_cell_length_c     32.933758
_cell_angle_alpha  89.707366
_cell_angle_beta   90.285322
_cell_angle_gamma 119.75329
loop_
_atom_site_label
_atom_site_type_symbol
_atom_site_fract_x
_atom_site_fract_y
_atom_site_fract_z
_atom_type_partial_charge
O0 O 0.14872 0.5622 0.47992 0.0
Cd1 Cd 0.14067 0.56606 0.41966 0.0
Cd2 Cd 0.19098 0.55147 0.41396 0.0
O3 O 0.17962 0.53885 0.47537 0.0
O4 O 0.09657 0.56256 0.41693 0.0
O5 O 0.10763 0.52659 0.38819 0.0
C6 C 0.08652 0.53583 0.39655 0.0
C7 C 0.2106 0.52706 0.36733 0.0
C8 C 0.16433 0.54963 0.49676 0.0
C9 C 0.20372 0.62082 0.39571 0.0
O10 O 0.21435 0.60122 0.40369 0.0
O11 O 0.1732 0.61124 0.3964 0.0
O12 O 0.22662 0.54115 0.39993 0.0
O13 O 0.18178 0.52397 0.36287 0.0
O14 O 0.57163 0.15277 0.62651 0.0
Cd15 Cd 0.56418 0.15158 0.56515 0.0
Cd16 Cd 0.62752 0.19778 0.57221 0.0
O17 O 0.62576 0.17714 0.62936 0.0
O18 O 0.52145 0.11007 0.55907 0.0
O19 O 0.56766 0.11738 0.53195 0.0
C20 C 0.53682 0.09813 0.53944 0.0
C21 C 0.66739 0.21496 0.52015 0.0
C22 C 0.59782 0.16253 0.64704 0.0
C23 C 0.57427 0.21643 0.56174 0.0
O24 O 0.60261 0.22344 0.5747 0.0
O25 O 0.55499 0.18826 0.54708 0.0
O26 O 0.67367 0.23054 0.55419 0.0
O27 O 0.63938 0.18815 0.51691 0.0
O28 O 0.46494 0.62429 0.80559 0.0
Cd29 Cd 0.44505 0.59177 0.75856 0.0
Cd30 Cd 0.42444 0.63608 0.73592 0.0
O31 O 0.42916 0.6414 0.79902 0.0
O32 O 0.46112 0.56071 0.77302 0.0
O33 O 0.47084 0.58571 0.71352 0.0
C34 C 0.47433 0.56589 0.73768 0.0
C35 C 0.44248 0.67989 0.68883 0.0
C36 C 0.44822 0.63592 0.82128 0.0
C37 C 0.37352 0.56729 0.74158 0.0
O38 O 0.38251 0.59329 0.72081 0.0
O39 O 0.39446 0.56332 0.76181 0.0
O40 O 0.41866 0.67306 0.71358 0.0
O41 O 0.45713 0.66276 0.6919 0.0
O42 O 0.85444 0.41954 0.96152 0.0
Cd43 Cd 0.85704 0.41374 0.90044 0.0
Cd44 Cd 0.8122 0.4359 0.90317 0.0
O45 O 0.83076 0.45026 0.96251 0.0
O46 O 0.89521 0.40626 0.8954 0.0
O47 O 0.89508 0.44971 0.86928 0.0
C48 C 0.91058 0.43384 0.87636 0.0
C49 C 0.79726 0.46113 0.85146 0.0
C50 C 0.84441 0.4361 0.98116 0.0
C51 C 0.78898 0.36427 0.88651 0.0
O52 O 0.78282 0.38618 0.89901 0.0
O53 O 0.81819 0.37075 0.87941 0.0
O54 O 0.78163 0.45253 0.88553 0.0
O55 O 0.82375 0.45909 0.84875 0.0
O56 O 0.43517 0.85745 0.13359 0.0
Cd57 Cd 0.44332 0.85323 0.07352 0.0
Cd58 Cd 0.38147 0.80933 0.08022 0.0
O59 O 0.38128 0.83521 0.13136 0.0
O60 O 0.48345 0.89558 0.06089 0.0
O61 O 0.43466 0.88073 0.03386 0.0
C62 C 0.46512 0.90293 0.03892 0.0
C63 C 0.34394 0.7879 0.02578 0.0
C64 C 0.40834 0.85049 0.15091 0.0
C65 C 0.43354 0.78902 0.08187 0.0
O66 O 0.40526 0.78351 0.09279 0.0
O67 O 0.4531 0.8156 0.06374 0.0
O68 O 0.33592 0.77564 0.06189 0.0
O69 O 0.37234 0.81403 0.02134 0.0
O70 O 0.57125 0.41728 0.29376 0.0
Cd71 Cd 0.57273 0.42423 0.23218 0.0
Cd72 Cd 0.55558 0.35913 0.23524 0.0
O73 O 0.54526 0.36295 0.29649 0.0
O74 O 0.57523 0.4676 0.22528 0.0
O75 O 0.53372 0.42142 0.20186 0.0
C76 C 0.54739 0.45282 0.20664 0.0
C77 C 0.52824 0.31697 0.18705 0.0
C78 C 0.55843 0.39084 0.31431 0.0
C79 C 0.62495 0.41065 0.21204 0.0
O80 O 0.60503 0.38195 0.22473 0.0
O81 O 0.61619 0.4321 0.20795 0.0
O82 O 0.54108 0.31235 0.21943 0.0
O83 O 0.5275 0.34415 0.18445 0.0
O84 O 0.40834 0.8597 0.40805 0.0
Cd85 Cd 0.39779 0.8559 0.46868 0.0
Cd86 Cd 0.42419 0.81915 0.46361 0.0
O87 O 0.44694 0.84593 0.41131 0.0
O88 O 0.39307 0.89478 0.48135 0.0
O89 O 0.43394 0.88818 0.50468 0.0
C90 C 0.42058 0.90645 0.50076 0.0
C91 C 0.44418 0.80372 0.52016 0.0
C92 C 0.43091 0.85665 0.39097 0.0
C93 C 0.35062 0.78822 0.46458 0.0
O94 O 0.37562 0.7869 0.45238 0.0
O95 O 0.35421 0.81391 0.48204 0.0
O96 O 0.44309 0.79159 0.48465 0.0
O97 O 0.43702 0.82701 0.52262 0.0
O98 O 0.57928 0.42754 0.56686 0.0
Cd99 Cd 0.56818 0.42422 0.62712 0.0
Cd100 Cd 0.63202 0.43327 0.62972 0.0
O101 O 0.6326 0.44462 0.56753 0.0
O102 O 0.52907 0.43047 0.62584 0.0
O103 O 0.57407 0.46266 0.66089 0.0
C104 C 0.5451 0.45578 0.64868 0.0
C105 C 0.67501 0.45743 0.67848 0.0
C106 C 0.60593 0.43628 0.54802 0.0
C107 C 0.57166 0.36596 0.64828 0.0
O108 O 0.6021 0.38389 0.64056 0.0
O109 O 0.55237 0.37767 0.64832 0.0
O110 O 0.67698 0.44164 0.64765 0.0
O111 O 0.65002 0.46208 0.67974 0.0
O112 O 0.16338 0.55874 0.75383 0.0
Cd113 Cd 0.15802 0.55046 0.8151 0.0
Cd114 Cd 0.20871 0.61305 0.81385 0.0
O115 O 0.19289 0.61291 0.75416 0.0
O116 O 0.11329 0.51141 0.82043 0.0
O117 O 0.12652 0.56014 0.84542 0.0
C118 C 0.10435 0.53 0.83855 0.0
C119 C 0.22695 0.65626 0.86141 0.0
C120 C 0.17694 0.5859 0.73484 0.0
C121 C 0.2209 0.55601 0.83217 0.0
O122 O 0.23165 0.58544 0.82031 0.0
O123 O 0.19041 0.53699 0.83809 0.0
O124 O 0.24366 0.65893 0.82918 0.0
O125 O 0.19863 0.62995 0.86521 0.0
O126 O 0.57406 0.14899 0.90359 0.0
Cd127 Cd 0.57976 0.14783 0.96518 0.0
Cd128 Cd 0.55674 0.18924 0.95783 0.0
O129 O 0.53922 0.16776 0.90099 0.0
O130 O 0.58819 0.11043 0.97242 0.0
O131 O 0.54414 0.11006 0.99689 0.0
C132 C 0.5605 0.09495 0.99104 0.0
C133 C 0.53234 0.20252 1.01152 0.0
C134 C 0.55547 0.15621 0.88313 0.0
C135 C 0.6294 0.21493 0.96873 0.0
O136 O 0.60657 0.21923 0.95447 0.0
O137 O 0.62274 0.18762 0.98466 0.0
O138 O 0.53877 0.21799 0.97722 0.0
O139 O 0.53698 0.17754 1.01393 0.0
O140 O 0.41335 0.5747 0.06621 0.0
Cd141 Cd 0.42052 0.57177 0.12708 0.0
Cd142 Cd 0.35927 0.5675 0.12864 0.0
O143 O 0.3622 0.56524 0.06525 0.0
O144 O 0.45941 0.56527 0.12908 0.0
O145 O 0.41122 0.52927 0.15456 0.0
C146 C 0.44146 0.53768 0.14726 0.0
C147 C 0.31148 0.54017 0.1691 0.0
C148 C 0.3887 0.57201 0.04663 0.0
C149 C 0.41964 0.62964 0.15871 0.0
O150 O 0.38931 0.6142 0.14953 0.0
O151 O 0.43743 0.61645 0.15469 0.0
O152 O 0.31427 0.56063 0.14104 0.0
O153 O 0.33465 0.5329 0.17208 0.0
O154 O 0.85116 0.42491 0.23905 0.0
Cd155 Cd 0.84759 0.43002 0.30033 0.0
Cd156 Cd 0.80716 0.36705 0.29137 0.0
O157 O 0.83162 0.37134 0.23663 0.0
O158 O 0.88656 0.4731 0.31425 0.0
O159 O 0.87945 0.42562 0.33756 0.0
C160 C 0.8976 0.45717 0.33484 0.0
C161 C 0.79039 0.32974 0.34624 0.0
C162 C 0.84464 0.39934 0.2189 0.0
C163 C 0.78082 0.41394 0.29582 0.0
O164 O 0.77742 0.38688 0.28327 0.0
O165 O 0.80717 0.43456 0.31352 0.0
O166 O 0.77698 0.32068 0.31078 0.0
O167 O 0.81554 0.359 0.34937 0.0
H168 H 0.20726 0.6687 0.44369 0.0
H169 H 0.25554 0.64957 0.34511 0.0
H170 H 0.3051 0.70255 0.35606 0.0
H171 H 0.33684 0.74921 0.40005 0.0
H172 H 0.29105 0.76782 0.50205 0.0
H173 H 0.23802 0.71987 0.48364 0.0
C174 C 0.22826 0.6769 0.42369 0.0
C175 C 0.22796 0.65578 0.39335 0.0
C176 C 0.25721 0.70657 0.43169 0.0
C177 C 0.25537 0.66587 0.36822 0.0
C178 C 0.28374 0.69586 0.37485 0.0
C179 C 0.31525 0.74286 0.41832 0.0
C180 C 0.31788 0.7613 0.45304 0.0
C181 C 0.28535 0.71553 0.40767 0.0
C182 C 0.28958 0.75353 0.47558 0.0
C183 C 0.25937 0.72624 0.46498 0.0
H184 H 0.57832 0.23969 0.63593 0.0
H185 H 0.54139 0.24053 0.51611 0.0
H186 H 0.52858 0.28319 0.53752 0.0
H187 H 0.53795 0.32665 0.58681 0.0
H188 H 0.5801 0.32816 0.70386 0.0
H189 H 0.5796 0.27701 0.68798 0.0
C190 C 0.56707 0.249 0.61466 0.0
C191 C 0.56159 0.23801 0.5743 0.0
C192 C 0.5604 0.2735 0.62705 0.0
C193 C 0.5462 0.24923 0.54716 0.0
C194 C 0.53894 0.2735 0.55944 0.0
C195 C 0.54546 0.31474 0.60943 0.0
C196 C 0.5586 0.33053 0.64664 0.0
C197 C 0.54716 0.28668 0.59887 0.0
C198 C 0.56934 0.31586 0.67545 0.0
C199 C 0.56957 0.28703 0.66604 0.0
H200 H 0.22966 0.53299 0.76318 0.0
H201 H 0.2625 0.552 0.88744 0.0
H202 H 0.31092 0.54734 0.87 0.0
H203 H 0.34924 0.55136 0.81685 0.0
H204 H 0.32043 0.54326 0.69107 0.0
H205 H 0.26471 0.52921 0.71119 0.0
C206 C 0.24682 0.53469 0.78662 0.0
C207 C 0.24268 0.54236 0.8265 0.0
C208 C 0.27553 0.53444 0.77568 0.0
C209 C 0.26519 0.54554 0.85672 0.0
C210 C 0.29298 0.54328 0.84657 0.0
C211 C 0.33029 0.54506 0.79397 0.0
C212 C 0.33861 0.54808 0.75256 0.0
C213 C 0.29925 0.53962 0.80577 0.0
C214 C 0.3143 0.54081 0.72305 0.0
C215 C 0.28264 0.53314 0.73459 0.0
H216 H 0.77857 0.31996 0.94427 0.0
H217 H 0.73824 0.33561 0.83409 0.0
H218 H 0.6846 0.28813 0.84966 0.0
H219 H 0.64808 0.24832 0.8992 0.0
H220 H 0.68655 0.23325 1.01149 0.0
H221 H 0.74247 0.27485 0.99092 0.0
C222 C 0.75826 0.31192 0.92299 0.0
C223 C 0.76206 0.33048 0.88776 0.0
C224 C 0.72722 0.28574 0.93332 0.0
C225 C 0.73569 0.32097 0.86083 0.0
C226 C 0.70504 0.29427 0.87011 0.0
C227 C 0.6687 0.25421 0.9193 0.0
C228 C 0.66335 0.23877 0.95737 0.0
C229 C 0.70029 0.2776 0.90712 0.0
C230 C 0.69025 0.24549 0.98242 0.0
C231 C 0.72207 0.26906 0.97055 0.0
H232 H 0.42019 0.75934 0.15396 0.0
H233 H 0.47158 0.76826 0.04226 0.0
H234 H 0.48048 0.72292 0.06365 0.0
H235 H 0.46325 0.67435 0.10778 0.0
H236 H 0.40654 0.66316 0.21529 0.0
H237 H 0.41135 0.71683 0.20313 0.0
C238 C 0.43374 0.7516 0.13452 0.0
C239 C 0.44435 0.76614 0.09612 0.0
C240 C 0.43808 0.72545 0.14669 0.0
C241 C 0.46277 0.75687 0.07167 0.0
C242 C 0.46779 0.73103 0.08392 0.0
C243 C 0.45346 0.68457 0.12955 0.0
C244 C 0.43478 0.66526 0.16253 0.0
C245 C 0.45426 0.71425 0.12058 0.0
C246 C 0.42136 0.67801 0.19011 0.0
C247 C 0.42362 0.70834 0.1827 0.0
H248 H 0.74692 0.39536 0.2266 0.0
H249 H 0.7618 0.45435 0.33312 0.0
H250 H 0.71813 0.46534 0.31006 0.0
H251 H 0.67075 0.45092 0.26447 0.0
H252 H 0.65445 0.38822 0.16155 0.0
H253 H 0.7048 0.38683 0.17733 0.0
C254 C 0.74064 0.41066 0.24486 0.0
C255 C 0.75658 0.42316 0.28216 0.0
C256 C 0.7158 0.41662 0.23152 0.0
C257 C 0.74924 0.44397 0.30472 0.0
C258 C 0.72445 0.4503 0.29144 0.0
C259 C 0.67921 0.43826 0.24461 0.0
C260 C 0.65961 0.42012 0.21157 0.0
C261 C 0.70697 0.43594 0.25545 0.0
C262 C 0.66978 0.40281 0.18658 0.0
C263 C 0.69815 0.40159 0.19603 0.0
H264 H 0.1753 0.53862 0.6869 0.0
H265 H 0.17641 0.63113 0.68205 0.0
H266 H 0.17184 0.62729 0.60776 0.0
H267 H 0.16659 0.5971 0.54475 0.0
H268 H 0.16976 0.50674 0.54912 0.0
H269 H 0.17364 0.5102 0.62351 0.0
C270 C 0.17446 0.55793 0.66957 0.0
C271 C 0.17571 0.58495 0.6899 0.0
C272 C 0.17255 0.55584 0.62702 0.0
C273 C 0.17538 0.61012 0.66708 0.0
C274 C 0.17268 0.60784 0.62469 0.0
C275 C 0.16796 0.57803 0.562 0.0
C276 C 0.16731 0.55133 0.54158 0.0
C277 C 0.17103 0.5807 0.60444 0.0
C278 C 0.16999 0.52734 0.56419 0.0
C279 C 0.17218 0.52935 0.60664 0.0
H280 H 0.54661 0.15604 0.6916 0.0
H281 H 0.64223 0.16425 0.70361 0.0
H282 H 0.63628 0.16127 0.77776 0.0
H283 H 0.60447 0.15756 0.83857 0.0
H284 H 0.51064 0.15337 0.82654 0.0
H285 H 0.51533 0.15346 0.75235 0.0
C286 C 0.56611 0.15685 0.71032 0.0
C287 C 0.59474 0.15993 0.69197 0.0
C288 C 0.5628 0.15591 0.75272 0.0
C289 C 0.61996 0.16171 0.71686 0.0
C290 C 0.61652 0.16001 0.75921 0.0
C291 C 0.58478 0.15629 0.81981 0.0
C292 C 0.55693 0.15499 0.83816 0.0
C293 C 0.58809 0.15721 0.77739 0.0
C294 C 0.53215 0.15417 0.81328 0.0
C295 C 0.53488 0.15426 0.77091 0.0
H296 H 0.4461 0.60069 1.00515 0.0
H297 H 0.34267 0.56758 0.99036 0.0
H298 H 0.35285 0.5888 0.92052 0.0
H299 H 0.39115 0.61491 0.86287 0.0
H300 H 0.49414 0.64685 0.87895 0.0
H301 H 0.48419 0.62878 0.94975 0.0
C302 C 0.42556 0.59774 0.98674 0.0
C303 C 0.39348 0.58198 1.00303 0.0
C304 C 0.43169 0.61046 0.94709 0.0
C305 C 0.36749 0.57912 0.97859 0.0
C306 C 0.37337 0.59149 0.93873 0.0
C307 C 0.41156 0.61885 0.88227 0.0
C308 C 0.44353 0.63277 0.86585 0.0
C309 C 0.40541 0.60724 0.92266 0.0
C310 C 0.4695 0.6367 0.89102 0.0
C311 C 0.46372 0.62598 0.93133 0.0
H312 H 0.8455 0.4476 0.17257 0.0
H313 H 0.8494 0.35776 0.16395 0.0
H314 H 0.85134 0.36258 0.08964 0.0
H315 H 0.85007 0.3913 0.02765 0.0
H316 H 0.84183 0.47879 0.03628 0.0
H317 H 0.84341 0.47586 0.1106 0.0
C318 C 0.8472 0.4292 0.15456 0.0
C319 C 0.84776 0.40249 0.17394 0.0
C320 C 0.84731 0.43167 0.112 0.0
C321 C 0.84915 0.37858 0.14993 0.0
C322 C 0.8502 0.38135 0.10747 0.0
C323 C 0.84892 0.41 0.04567 0.0
C324 C 0.84618 0.43553 0.02627 0.0
C325 C 0.84905 0.40766 0.08824 0.0
C326 C 0.84405 0.45903 0.05029 0.0
C327 C 0.84497 0.45733 0.09277 0.0
H328 H 0.45771 0.862 0.20302 0.0
H329 H 0.36043 0.85061 0.19873 0.0
H330 H 0.36072 0.85489 0.2729 0.0
H331 H 0.38693 0.85787 0.33848 0.0
H332 H 0.48207 0.86421 0.34291 0.0
H333 H 0.4844 0.86612 0.26855 0.0
C334 C 0.43667 0.86091 0.21814 0.0
C335 C 0.40906 0.85615 0.19526 0.0
C336 C 0.43663 0.8623 0.26067 0.0
C337 C 0.38193 0.8543 0.21555 0.0
C338 C 0.38211 0.85669 0.25792 0.0
C339 C 0.40848 0.86015 0.32332 0.0
C340 C 0.43445 0.86107 0.34632 0.0
C341 C 0.4091 0.86013 0.28074 0.0
C342 C 0.46184 0.86351 0.32601 0.0
C343 C 0.46311 0.86453 0.28353 0.0
H344 H 0.61004 0.43798 0.35589 0.0
H345 H 0.51667 0.34975 0.37318 0.0
H346 H 0.52368 0.35653 0.44709 0.0
H347 H 0.55574 0.38826 0.50627 0.0
H348 H 0.65095 0.47421 0.48944 0.0
H349 H 0.64402 0.46754 0.41538 0.0
C350 C 0.59114 0.42026 0.37586 0.0
C351 C 0.56252 0.39363 0.35911 0.0
C352 C 0.59577 0.42395 0.41815 0.0
C353 C 0.53871 0.37047 0.3853 0.0
C354 C 0.54275 0.37441 0.42749 0.0
C355 C 0.57501 0.40563 0.48639 0.0
C356 C 0.60366 0.4321 0.50326 0.0
C357 C 0.57105 0.40118 0.44416 0.0
C358 C 0.6287 0.45383 0.4772 0.0
C359 C 0.62463 0.45001 0.43494 0.0
H360 H 0.941 0.43493 0.34182 0.0
H361 H 0.92955 0.5192 0.36456 0.0
H362 H 0.9869 0.55073 0.38653 0.0
H363 H 0.04073 0.55509 0.39657 0.0
H364 H 0.05378 0.47236 0.36932 0.0
H365 H 0.9955 0.43957 0.35136 0.0
C366 C 0.95102 0.46003 0.35221 0.0
C367 C 0.9311 0.47468 0.35207 0.0
C368 C 0.98437 0.4784 0.36337 0.0
C369 C 0.94445 0.50743 0.36465 0.0
C370 C 0.97724 0.52548 0.37704 0.0
C371 C 0.03085 0.52986 0.38674 0.0
C372 C 0.05157 0.51619 0.38429 0.0
C373 C 0.99752 0.51136 0.376 0.0
C374 C 0.0384 0.48354 0.37124 0.0
C375 C 0.00505 0.46473 0.36116 0.0
H376 H 0.48621 0.94858 0.50073 0.0
H377 H 0.39318 0.9421 0.52765 0.0
H378 H 0.42103 0.00111 0.5414 0.0
H379 H 0.4715 0.05463 0.54376 0.0
H380 H 0.56436 0.06204 0.51279 0.0
H381 H 0.53686 0.00266 0.50181 0.0
C382 C 0.47218 0.96007 0.5103 0.0
C383 C 0.4378 0.94106 0.51386 0.0
C384 C 0.48823 0.99421 0.5166 0.0
C385 C 0.41972 0.95627 0.52514 0.0
C386 C 0.43559 0.99 0.53273 0.0
C387 C 0.48574 0.04331 0.5344 0.0
C388 C 0.51994 0.06277 0.52904 0.0
C389 C 0.46978 0.00925 0.52806 0.0
C390 C 0.53798 0.04769 0.51682 0.0
C391 C 0.5223 0.0137 0.51084 0.0
H392 H 0.4715 0.53721 0.66548 0.0
H393 H 0.51677 0.55615 0.78381 0.0
H394 H 0.54463 0.52545 0.76607 0.0
H395 H 0.55433 0.49119 0.71761 0.0
H396 H 0.50387 0.46714 0.60229 0.0
H397 H 0.47979 0.50159 0.61794 0.0
C398 C 0.48778 0.53484 0.68708 0.0
C399 C 0.49247 0.5491 0.72564 0.0
C400 C 0.50254 0.51598 0.67728 0.0
C401 C 0.51297 0.54538 0.75386 0.0
C402 C 0.52883 0.52782 0.74376 0.0
C403 C 0.53817 0.49368 0.69594 0.0
C404 C 0.53092 0.47679 0.65887 0.0
C405 C 0.52353 0.51269 0.70571 0.0
C406 C 0.50964 0.47981 0.63117 0.0
C407 C 0.49595 0.49958 0.64001 0.0
H408 H 0.05529 0.46659 0.83816 0.0
H409 H 0.07453 0.56519 0.86047 0.0
H410 H 0.01578 0.54444 0.87124 0.0
H411 H 0.9587 0.49798 0.87417 0.0
H412 H 0.94064 0.3994 0.85558 0.0
H413 H 0.99907 0.42045 0.84281 0.0
C414 C 0.04669 0.48357 0.84555 0.0
C415 C 0.06928 0.51739 0.8485 0.0
C416 C 0.013 0.47148 0.85187 0.0
C417 C 0.0577 0.53901 0.85828 0.0
C418 C 0.02407 0.52718 0.86417 0.0
C419 C 0.9676 0.48125 0.8668 0.0
C420 C 0.94544 0.44725 0.8653 0.0
C421 C 0.00145 0.49347 0.8608 0.0
C422 C 0.95727 0.42568 0.85666 0.0
C423 C 0.99067 0.43769 0.84953 0.0
H424 H 0.49672 0.04624 0.9909 0.0
H425 H 0.59535 0.066 1.01565 0.0
H426 H 0.57471 0.0079 0.03061 0.0
H427 H 0.52873 0.95168 0.03697 0.0
H428 H 0.43018 0.93092 1.00893 0.0
H429 H 0.45072 0.98904 0.99396 0.0
C430 C 0.51355 0.03777 1.00004 0.0
C431 C 0.5474 0.06031 1.00287 0.0
C432 C 0.50161 0.00413 1.00728 0.0
C433 C 0.56915 0.04905 1.01365 0.0
C434 C 0.55739 0.01585 0.022 0.0
C435 C 0.51176 0.95978 0.02719 0.0
C436 C 0.47797 0.93699 0.02414 0.0
C437 C 0.52371 0.99318 1.01876 0.0
C438 C 0.45634 0.94791 1.01127 0.0
C439 C 0.46803 0.9812 1.00306 0.0
H440 H 0.50575 0.55538 0.15037 0.0
H441 H 0.40877 0.4728 0.17032 0.0
H442 H 0.43281 0.43831 0.18799 0.0
H443 H 0.48191 0.43209 0.1988 0.0
H444 H 0.57845 0.51633 0.18253 0.0
H445 H 0.55408 0.54961 0.16193 0.0
C446 C 0.4898 0.52981 0.1585 0.0
C447 C 0.45553 0.51665 0.15893 0.0
C448 C 0.50377 0.51039 0.1691 0.0
C449 C 0.43526 0.48355 0.16989 0.0
C450 C 0.44899 0.4638 0.17985 0.0
C451 C 0.49749 0.45765 0.19034 0.0
C452 C 0.5319 0.47174 0.19194 0.0
C453 C 0.48326 0.47698 0.1796 0.0
C454 C 0.5519 0.50498 0.18156 0.0
C455 C 0.538 0.52404 0.16983 0.0
H456 H 0.19837 0.52439 0.28598 0.0
H457 H 0.2611 0.51406 0.37399 0.0
H458 H 0.2954 0.51225 0.31948 0.0
H459 H 0.31176 0.5209 0.24739 0.0
H460 H 0.25174 0.53626 0.16014 0.0
H461 H 0.21221 0.52842 0.21326 0.0
C462 C 0.21904 0.52087 0.29316 0.0
C463 C 0.22706 0.51927 0.3341 0.0
C464 C 0.23948 0.52116 0.26162 0.0
C465 C 0.25432 0.51532 0.34281 0.0
C466 C 0.27407 0.51445 0.3116 0.0
C467 C 0.28961 0.5217 0.23983 0.0
C468 C 0.28475 0.52912 0.19974 0.0
C469 C 0.26753 0.5184 0.27094 0.0
C470 C 0.25614 0.53061 0.19068 0.0
C471 C 0.23355 0.52626 0.22113 0.0
H472 H 0.73675 0.2677 0.34994 0.0
H473 H 0.80835 0.34524 0.42583 0.0
H474 H 0.77812 0.31557 0.48639 0.0
H475 H 0.72854 0.27001 0.5178 0.0
H476 H 0.65702 0.19241 0.44193 0.0
H477 H 0.69004 0.21944 0.38191 0.0
C478 C 0.7461 0.2779 0.37973 0.0
C479 C 0.77485 0.3089 0.38302 0.0
C480 C 0.72835 0.26075 0.41468 0.0
C481 C 0.78641 0.32154 0.42209 0.0
C482 C 0.76898 0.3046 0.45688 0.0
C483 C 0.72036 0.25872 0.48823 0.0
C484 C 0.69005 0.22919 0.48463 0.0
C485 C 0.73949 0.27456 0.45356 0.0
C486 C 0.68009 0.21504 0.44589 0.0
C487 C 0.69897 0.2306 0.41138 0.0
H488 H 0.43109 0.73162 0.68722 0.0
H489 H 0.47195 0.6836 0.61613 0.0
H490 H 0.4786 0.71936 0.55832 0.0
H491 H 0.46809 0.76101 0.52592 0.0
H492 H 0.42961 0.81067 0.5983 0.0
H493 H 0.42727 0.77805 0.65748 0.0
C494 C 0.44184 0.72927 0.65923 0.0
C495 C 0.45069 0.70469 0.65595 0.0
C496 C 0.44596 0.75022 0.62617 0.0
C497 C 0.46493 0.70226 0.61958 0.0
C498 C 0.46861 0.72264 0.58638 0.0
C499 C 0.45974 0.76512 0.55482 0.0
C500 C 0.4488 0.78818 0.55739 0.0
C501 C 0.45855 0.74625 0.58901 0.0
C502 C 0.43825 0.79322 0.59525 0.0
C503 C 0.43668 0.77436 0.62917 0.0
H504 H 0.74538 0.47291 0.84811 0.0
H505 H 0.81493 0.46348 0.77201 0.0
H506 H 0.78474 0.46384 0.71155 0.0
H507 H 0.73528 0.46103 0.68036 0.0
H508 H 0.66675 0.4724 0.7561 0.0
H509 H 0.69984 0.47737 0.81606 0.0
C510 C 0.75434 0.47159 0.81828 0.0
C511 C 0.78243 0.46797 0.81492 0.0
C512 C 0.73677 0.47182 0.78333 0.0
C513 C 0.79356 0.46638 0.77581 0.0
C514 C 0.77611 0.46635 0.74106 0.0
C515 C 0.72786 0.46516 0.70988 0.0
C516 C 0.6983 0.46608 0.71352 0.0
C517 C 0.74719 0.46818 0.74445 0.0
C518 C 0.68931 0.47164 0.75214 0.0
C519 C 0.70818 0.47431 0.78662 0.0
H520 H 0.2815 0.73495 0.02539 0.0
H521 H 0.35934 0.80083 0.94534 0.0
H522 H 0.32894 0.76739 0.88702 0.0
H523 H 0.28264 0.71659 0.85933 0.0
H524 H 0.20439 0.65106 0.9391 0.0
H525 H 0.23231 0.68725 0.99652 0.0
C526 C 0.29162 0.74231 0.99513 0.0
C527 C 0.32289 0.77036 0.99 0.0
C528 C 0.27398 0.72282 0.96153 0.0
C529 C 0.33541 0.77947 0.9504 0.0
C530 C 0.31808 0.76021 0.91694 0.0
C531 C 0.27142 0.71043 0.88915 0.0
C532 C 0.24149 0.68089 0.89476 0.0
C533 C 0.2877 0.7314 0.92221 0.0
C534 C 0.22733 0.67354 0.9337 0.0
C535 C 0.24341 0.6942 0.9667 0.0
H536 H 0.5251 0.25707 0.18396 0.0
H537 H 0.51326 0.3265 0.10952 0.0
H538 H 0.51046 0.29558 0.04873 0.0
H539 H 0.5178 0.25239 1.01582 0.0
H540 H 0.52909 0.18268 0.09042 0.0
H541 H 0.52531 0.20981 0.15158 0.0
C542 C 0.52123 0.26511 0.15455 0.0
C543 C 0.51967 0.29436 0.15155 0.0
C544 C 0.51989 0.24727 0.11946 0.0
C545 C 0.51455 0.30418 0.11301 0.0
C546 C 0.51316 0.28658 0.07805 0.0
C547 C 0.51885 0.24274 0.04544 0.0
C548 C 0.52405 0.21559 0.04825 0.0
C549 C 0.51679 0.25862 0.08075 0.0
C550 C 0.52516 0.20347 0.08707 0.0
C551 C 0.52316 0.21912 0.12221 0.0
loop_
_geom_bond_atom_site_label_1
_geom_bond_atom_site_label_2
_geom_bond_distance
_geom_bond_site_symmetry_2
_ccdc_geom_bond_type
O0 Cd1 2.223 . S
O0 C8 1.315 . S
Cd1 O0 2.223 . S
Cd1 O4 2.297 . S
Cd1 O5 2.439 . S
Cd1 O11 2.240 . S
Cd2 O3 2.240 . S
Cd2 O10 2.223 . S
Cd2 O12 2.297 . S
Cd2 O13 2.439 . S
O3 Cd2 2.240 . S
O3 C8 1.279 . S
O4 Cd1 2.297 . S
O4 C6 1.247 . S
O5 Cd1 2.439 . S
O5 C6 1.208 . S
C6 O4 1.247 . S
C6 O5 1.208 . S
C7 O12 1.247 . S
C7 O13 1.208 . S
C8 O0 1.315 . S
C8 O3 1.279 . S
C9 O10 1.315 . S
C9 O11 1.279 . S
O10 Cd2 2.223 . S
O10 C9 1.315 . S
O11 Cd1 2.240 . S
O11 C9 1.279 . S
O12 Cd2 2.297 . S
O12 C7 1.247 . S
O13 Cd2 2.439 . S
O13 C7 1.208 . S
O14 Cd15 2.223 . S
O14 C22 1.315 . S
Cd15 O14 2.223 . S
Cd15 O18 2.297 . S
Cd15 O19 2.439 . S
Cd15 O25 2.240 . S
Cd16 O17 2.240 . S
Cd16 O24 2.223 . S
Cd16 O26 2.297 . S
Cd16 O27 2.439 . S
O17 Cd16 2.240 . S
O17 C22 1.279 . S
O18 Cd15 2.297 . S
O18 C20 1.247 . S
O19 Cd15 2.439 . S
O19 C20 1.208 . S
C20 O18 1.247 . S
C20 O19 1.208 . S
C21 O26 1.247 . S
C21 O27 1.208 . S
C22 O14 1.315 . S
C22 O17 1.279 . S
C23 O24 1.315 . S
C23 O25 1.279 . S
O24 Cd16 2.223 . S
O24 C23 1.315 . S
O25 Cd15 2.240 . S
O25 C23 1.279 . S
O26 Cd16 2.297 . S
O26 C21 1.247 . S
O27 Cd16 2.439 . S
O27 C21 1.208 . S
O28 Cd29 2.223 . S
O28 C36 1.315 . S
Cd29 O28 2.223 . S
Cd29 O32 2.297 . S
Cd29 O33 2.439 . S
Cd29 O39 2.240 . S
Cd30 O31 2.240 . S
Cd30 O38 2.223 . S
Cd30 O40 2.297 . S
Cd30 O41 2.439 . S
O31 Cd30 2.240 . S
O31 C36 1.279 . S
O32 Cd29 2.297 . S
O32 C34 1.247 . S
O33 Cd29 2.439 . S
O33 C34 1.208 . S
C34 O32 1.247 . S
C34 O33 1.208 . S
C35 O40 1.247 . S
C35 O41 1.208 . S
C36 O28 1.315 . S
C36 O31 1.279 . S
C37 O38 1.315 . S
C37 O39 1.279 . S
O38 Cd30 2.223 . S
O38 C37 1.315 . S
O39 Cd29 2.240 . S
O39 C37 1.279 . S
O40 Cd30 2.297 . S
O40 C35 1.247 . S
O41 Cd30 2.439 . S
O41 C35 1.208 . S
O42 Cd43 2.223 . S
O42 C50 1.315 . S
Cd43 O42 2.223 . S
Cd43 O46 2.297 . S
Cd43 O47 2.439 . S
Cd43 O53 2.240 . S
Cd44 O45 2.240 . S
Cd44 O52 2.223 . S
Cd44 O54 2.297 . S
Cd44 O55 2.439 . S
O45 Cd44 2.240 . S
O45 C50 1.279 . S
O46 Cd43 2.297 . S
O46 C48 1.247 . S
O47 Cd43 2.439 . S
O47 C48 1.208 . S
C48 O46 1.247 . S
C48 O47 1.208 . S
C49 O54 1.247 . S
C49 O55 1.208 . S
C50 O42 1.315 . S
C50 O45 1.279 . S
C51 O52 1.315 . S
C51 O53 1.279 . S
O52 Cd44 2.223 . S
O52 C51 1.315 . S
O53 Cd43 2.240 . S
O53 C51 1.279 . S
O54 Cd44 2.297 . S
O54 C49 1.247 . S
O55 Cd44 2.439 . S
O55 C49 1.208 . S
O56 Cd57 2.223 . S
O56 C64 1.315 . S
Cd57 O56 2.223 . S
Cd57 O60 2.297 . S
Cd57 O61 2.439 . S
Cd57 O67 2.240 . S
Cd58 O59 2.240 . S
Cd58 O66 2.223 . S
Cd58 O68 2.297 . S
Cd58 O69 2.439 . S
O59 Cd58 2.240 . S
O59 C64 1.279 . S
O60 Cd57 2.297 . S
O60 C62 1.247 . S
O61 Cd57 2.439 . S
O61 C62 1.208 . S
C62 O60 1.247 . S
C62 O61 1.208 . S
C63 O68 1.247 1_556 S
C63 O69 1.208 1_556 S
C64 O56 1.315 . S
C64 O59 1.279 . S
C65 O66 1.315 . S
C65 O67 1.279 . S
O66 Cd58 2.223 . S
O66 C65 1.315 . S
O67 Cd57 2.240 . S
O67 C65 1.279 . S
O68 Cd58 2.297 . S
O68 C63 1.247 1_554 S
O69 Cd58 2.439 . S
O69 C63 1.208 1_554 S
O70 Cd71 2.223 . S
O70 C78 1.315 . S
Cd71 O70 2.223 . S
Cd71 O74 2.297 . S
Cd71 O75 2.439 . S
Cd71 O81 2.240 . S
Cd72 O73 2.240 . S
Cd72 O80 2.223 . S
Cd72 O82 2.297 . S
Cd72 O83 2.439 . S
O73 Cd72 2.240 . S
O73 C78 1.279 . S
O74 Cd71 2.297 . S
O74 C76 1.247 . S
O75 Cd71 2.439 . S
O75 C76 1.208 . S
C76 O74 1.247 . S
C76 O75 1.208 . S
C77 O82 1.247 . S
C77 O83 1.208 . S
C78 O70 1.315 . S
C78 O73 1.279 . S
C79 O80 1.315 . S
C79 O81 1.279 . S
O80 Cd72 2.223 . S
O80 C79 1.315 . S
O81 Cd71 2.240 . S
O81 C79 1.279 . S
O82 Cd72 2.297 . S
O82 C77 1.247 . S
O83 Cd72 2.439 . S
O83 C77 1.208 . S
O84 Cd85 2.223 . S
O84 C92 1.315 . S
Cd85 O84 2.223 . S
Cd85 O88 2.297 . S
Cd85 O89 2.439 . S
Cd85 O95 2.240 . S
Cd86 O87 2.240 . S
Cd86 O94 2.223 . S
Cd86 O96 2.297 . S
Cd86 O97 2.439 . S
O87 Cd86 2.240 . S
O87 C92 1.279 . S
O88 Cd85 2.297 . S
O88 C90 1.247 . S
O89 Cd85 2.439 . S
O89 C90 1.208 . S
C90 O88 1.247 . S
C90 O89 1.208 . S
C91 O96 1.247 . S
C91 O97 1.208 . S
C92 O84 1.315 . S
C92 O87 1.279 . S
C93 O94 1.315 . S
C93 O95 1.279 . S
O94 Cd86 2.223 . S
O94 C93 1.315 . S
O95 Cd85 2.240 . S
O95 C93 1.279 . S
O96 Cd86 2.297 . S
O96 C91 1.247 . S
O97 Cd86 2.439 . S
O97 C91 1.208 . S
O98 Cd99 2.223 . S
O98 C106 1.315 . S
Cd99 O98 2.223 . S
Cd99 O102 2.297 . S
Cd99 O103 2.439 . S
Cd99 O109 2.240 . S
Cd100 O101 2.240 . S
Cd100 O108 2.223 . S
Cd100 O110 2.297 . S
Cd100 O111 2.439 . S
O101 Cd100 2.240 . S
O101 C106 1.279 . S
O102 Cd99 2.297 . S
O102 C104 1.247 . S
O103 Cd99 2.439 . S
O103 C104 1.208 . S
C104 O102 1.247 . S
C104 O103 1.208 . S
C105 O110 1.247 . S
C105 O111 1.208 . S
C106 O98 1.315 . S
C106 O101 1.279 . S
C107 O108 1.315 . S
C107 O109 1.279 . S
O108 Cd100 2.223 . S
O108 C107 1.315 . S
O109 Cd99 2.240 . S
O109 C107 1.279 . S
O110 Cd100 2.297 . S
O110 C105 1.247 . S
O111 Cd100 2.439 . S
O111 C105 1.208 . S
O112 Cd113 2.223 . S
O112 C120 1.315 . S
Cd113 O112 2.223 . S
Cd113 O116 2.297 . S
Cd113 O117 2.439 . S
Cd113 O123 2.240 . S
Cd114 O115 2.240 . S
Cd114 O122 2.223 . S
Cd114 O124 2.297 . S
Cd114 O125 2.439 . S
O115 Cd114 2.240 . S
O115 C120 1.279 . S
O116 Cd113 2.297 . S
O116 C118 1.247 . S
O117 Cd113 2.439 . S
O117 C118 1.208 . S
C118 O116 1.247 . S
C118 O117 1.208 . S
C119 O124 1.247 . S
C119 O125 1.208 . S
C120 O112 1.315 . S
C120 O115 1.279 . S
C121 O122 1.315 . S
C121 O123 1.279 . S
O122 Cd114 2.223 . S
O122 C121 1.315 . S
O123 Cd113 2.240 . S
O123 C121 1.279 . S
O124 Cd114 2.297 . S
O124 C119 1.247 . S
O125 Cd114 2.439 . S
O125 C119 1.208 . S
O126 Cd127 2.223 . S
O126 C134 1.315 . S
Cd127 O126 2.223 . S
Cd127 O130 2.297 . S
Cd127 O131 2.439 . S
Cd127 O137 2.240 . S
Cd128 O129 2.240 . S
Cd128 O136 2.223 . S
Cd128 O138 2.297 . S
Cd128 O139 2.439 . S
O129 Cd128 2.240 . S
O129 C134 1.279 . S
O130 Cd127 2.297 . S
O130 C132 1.247 . S
O131 Cd127 2.439 . S
O131 C132 1.208 . S
C132 O130 1.247 . S
C132 O131 1.208 . S
C133 O138 1.247 1_554 S
C133 O139 1.208 1_554 S
C134 O126 1.315 . S
C134 O129 1.279 . S
C135 O136 1.315 . S
C135 O137 1.279 . S
O136 Cd128 2.223 . S
O136 C135 1.315 . S
O137 Cd127 2.240 . S
O137 C135 1.279 . S
O138 Cd128 2.297 . S
O138 C133 1.247 1_556 S
O139 Cd128 2.439 . S
O139 C133 1.208 1_556 S
O140 Cd141 2.223 . S
O140 C148 1.315 . S
Cd141 O140 2.223 . S
Cd141 O144 2.297 . S
Cd141 O145 2.439 . S
Cd141 O151 2.240 . S
Cd142 O143 2.240 . S
Cd142 O150 2.223 . S
Cd142 O152 2.297 . S
Cd142 O153 2.439 . S
O143 Cd142 2.240 . S
O143 C148 1.279 . S
O144 Cd141 2.297 . S
O144 C146 1.247 . S
O145 Cd141 2.439 . S
O145 C146 1.208 . S
C146 O144 1.247 . S
C146 O145 1.208 . S
C147 O152 1.247 . S
C147 O153 1.208 . S
C148 O140 1.315 . S
C148 O143 1.279 . S
C149 O150 1.315 . S
C149 O151 1.279 . S
O150 Cd142 2.223 . S
O150 C149 1.315 . S
O151 Cd141 2.240 . S
O151 C149 1.279 . S
O152 Cd142 2.297 . S
O152 C147 1.247 . S
O153 Cd142 2.439 . S
O153 C147 1.208 . S
O154 Cd155 2.223 . S
O154 C162 1.315 . S
Cd155 O154 2.223 . S
Cd155 O158 2.297 . S
Cd155 O159 2.439 . S
Cd155 O165 2.240 . S
Cd156 O157 2.240 . S
Cd156 O164 2.223 . S
Cd156 O166 2.297 . S
Cd156 O167 2.439 . S
O157 Cd156 2.240 . S
O157 C162 1.279 . S
O158 Cd155 2.297 . S
O158 C160 1.247 . S
O159 Cd155 2.439 . S
O159 C160 1.208 . S
C160 O158 1.247 . S
C160 O159 1.208 . S
C161 O166 1.247 . S
C161 O167 1.208 . S
C162 O154 1.315 . S
C162 O157 1.279 . S
C163 O164 1.315 . S
C163 O165 1.279 . S
O164 Cd156 2.223 . S
O164 C163 1.315 . S
O165 Cd155 2.240 . S
O165 C163 1.279 . S
O166 Cd156 2.297 . S
O166 C161 1.247 . S
O167 Cd156 2.439 . S
O167 C161 1.208 . S
H168 C174 0.930 . S
H169 C177 0.930 . S
H170 C178 0.930 . S
H171 C179 0.930 . S
H172 C182 0.930 . S
H173 C183 0.930 . S
C174 H168 0.930 . S
C174 C175 1.355 . S
C174 C176 1.415 . S
C175 C174 1.355 . S
C175 C177 1.419 . S
C176 C174 1.415 . S
C176 C181 1.425 . S
C176 C183 1.409 . S
C177 H169 0.930 . S
C177 C175 1.419 . S
C177 C178 1.362 . S
C178 H170 0.930 . S
C178 C177 1.362 . S
C178 C181 1.409 . S
C179 H171 0.930 . S
C179 C180 1.355 . S
C179 C181 1.415 . S
C180 C179 1.355 . S
C180 C182 1.419 . S
C181 C176 1.425 . S
C181 C178 1.409 . S
C181 C179 1.415 . S
C182 H172 0.930 . S
C182 C180 1.419 . S
C182 C183 1.362 . S
C183 H173 0.930 . S
C183 C176 1.409 . S
C183 C182 1.362 . S
H184 C190 0.930 . S
H185 C193 0.930 . S
H186 C194 0.930 . S
H187 C195 0.930 . S
H188 C198 0.930 . S
H189 C199 0.930 . S
C190 H184 0.930 . S
C190 C191 1.355 . S
C190 C192 1.415 . S
C191 C190 1.355 . S
C191 C193 1.419 . S
C192 C190 1.415 . S
C192 C197 1.425 . S
C192 C199 1.409 . S
C193 H185 0.930 . S
C193 C191 1.419 . S
C193 C194 1.362 . S
C194 H186 0.930 . S
C194 C193 1.362 . S
C194 C197 1.409 . S
C195 H187 0.930 . S
C195 C196 1.355 . S
C195 C197 1.415 . S
C196 C195 1.355 . S
C196 C198 1.419 . S
C197 C192 1.425 . S
C197 C194 1.409 . S
C197 C195 1.415 . S
C198 H188 0.930 . S
C198 C196 1.419 . S
C198 C199 1.362 . S
C199 H189 0.930 . S
C199 C192 1.409 . S
C199 C198 1.362 . S
H200 C206 0.930 . S
H201 C209 0.930 . S
H202 C210 0.930 . S
H203 C211 0.930 . S
H204 C214 0.930 . S
H205 C215 0.930 . S
C206 H200 0.930 . S
C206 C207 1.355 . S
C206 C208 1.415 . S
C207 C206 1.355 . S
C207 C209 1.419 . S
C208 C206 1.415 . S
C208 C213 1.425 . S
C208 C215 1.409 . S
C209 H201 0.930 . S
C209 C207 1.419 . S
C209 C210 1.362 . S
C210 H202 0.930 . S
C210 C209 1.362 . S
C210 C213 1.409 . S
C211 H203 0.930 . S
C211 C212 1.355 . S
C211 C213 1.415 . S
C212 C211 1.355 . S
C212 C214 1.419 . S
C213 C208 1.425 . S
C213 C210 1.409 . S
C213 C211 1.415 . S
C214 H204 0.930 . S
C214 C212 1.419 . S
C214 C215 1.362 . S
C215 H205 0.930 . S
C215 C208 1.409 . S
C215 C214 1.362 . S
H216 C222 0.930 . S
H217 C225 0.930 . S
H218 C226 0.930 . S
H219 C227 0.930 . S
H220 C230 0.930 . S
H221 C231 0.930 . S
C222 H216 0.930 . S
C222 C223 1.355 . S
C222 C224 1.415 . S
C223 C222 1.355 . S
C223 C225 1.419 . S
C224 C222 1.415 . S
C224 C229 1.425 . S
C224 C231 1.409 . S
C225 H217 0.930 . S
C225 C223 1.419 . S
C225 C226 1.362 . S
C226 H218 0.930 . S
C226 C225 1.362 . S
C226 C229 1.409 . S
C227 H219 0.930 . S
C227 C228 1.355 . S
C227 C229 1.415 . S
C228 C227 1.355 . S
C228 C230 1.419 . S
C229 C224 1.425 . S
C229 C226 1.409 . S
C229 C227 1.415 . S
C230 H220 0.930 . S
C230 C228 1.419 . S
C230 C231 1.362 . S
C231 H221 0.930 . S
C231 C224 1.409 . S
C231 C230 1.362 . S
H232 C238 0.930 . S
H233 C241 0.930 . S
H234 C242 0.930 . S
H235 C243 0.930 . S
H236 C246 0.930 . S
H237 C247 0.930 . S
C238 H232 0.930 . S
C238 C239 1.355 . S
C238 C240 1.415 . S
C239 C238 1.355 . S
C239 C241 1.419 . S
C240 C238 1.415 . S
C240 C245 1.425 . S
C240 C247 1.409 . S
C241 H233 0.930 . S
C241 C239 1.419 . S
C241 C242 1.362 . S
C242 H234 0.930 . S
C242 C241 1.362 . S
C242 C245 1.409 . S
C243 H235 0.930 . S
C243 C244 1.355 . S
C243 C245 1.415 . S
C244 C243 1.355 . S
C244 C246 1.419 . S
C245 C240 1.425 . S
C245 C242 1.409 . S
C245 C243 1.415 . S
C246 H236 0.930 . S
C246 C244 1.419 . S
C246 C247 1.362 . S
C247 H237 0.930 . S
C247 C240 1.409 . S
C247 C246 1.362 . S
H248 C254 0.930 . S
H249 C257 0.930 . S
H250 C258 0.930 . S
H251 C259 0.930 . S
H252 C262 0.930 . S
H253 C263 0.930 . S
C254 H248 0.930 . S
C254 C255 1.355 . S
C254 C256 1.415 . S
C255 C254 1.355 . S
C255 C257 1.419 . S
C256 C254 1.415 . S
C256 C261 1.425 . S
C256 C263 1.409 . S
C257 H249 0.930 . S
C257 C255 1.419 . S
C257 C258 1.362 . S
C258 H250 0.930 . S
C258 C257 1.362 . S
C258 C261 1.409 . S
C259 H251 0.930 . S
C259 C260 1.355 . S
C259 C261 1.415 . S
C260 C259 1.355 . S
C260 C262 1.419 . S
C261 C256 1.425 . S
C261 C258 1.409 . S
C261 C259 1.415 . S
C262 H252 0.930 . S
C262 C260 1.419 . S
C262 C263 1.362 . S
C263 H253 0.930 . S
C263 C256 1.409 . S
C263 C262 1.362 . S
H264 C270 0.930 . S
H265 C273 0.930 . S
H266 C274 0.930 . S
H267 C275 0.930 . S
H268 C278 0.930 . S
H269 C279 0.930 . S
C270 H264 0.930 . S
C270 C271 1.355 . S
C270 C272 1.415 . S
C271 C270 1.355 . S
C271 C273 1.419 . S
C272 C270 1.415 . S
C272 C277 1.425 . S
C272 C279 1.409 . S
C273 H265 0.930 . S
C273 C271 1.419 . S
C273 C274 1.362 . S
C274 H266 0.930 . S
C274 C273 1.362 . S
C274 C277 1.409 . S
C275 H267 0.930 . S
C275 C276 1.355 . S
C275 C277 1.415 . S
C276 C275 1.355 . S
C276 C278 1.419 . S
C277 C272 1.425 . S
C277 C274 1.409 . S
C277 C275 1.415 . S
C278 H268 0.930 . S
C278 C276 1.419 . S
C278 C279 1.362 . S
C279 H269 0.930 . S
C279 C272 1.409 . S
C279 C278 1.362 . S
H280 C286 0.930 . S
H281 C289 0.930 . S
H282 C290 0.930 . S
H283 C291 0.930 . S
H284 C294 0.930 . S
H285 C295 0.930 . S
C286 H280 0.930 . S
C286 C287 1.355 . S
C286 C288 1.415 . S
C287 C286 1.355 . S
C287 C289 1.419 . S
C288 C286 1.415 . S
C288 C293 1.425 . S
C288 C295 1.409 . S
C289 H281 0.930 . S
C289 C287 1.419 . S
C289 C290 1.362 . S
C290 H282 0.930 . S
C290 C289 1.362 . S
C290 C293 1.409 . S
C291 H283 0.930 . S
C291 C292 1.355 . S
C291 C293 1.415 . S
C292 C291 1.355 . S
C292 C294 1.419 . S
C293 C288 1.425 . S
C293 C290 1.409 . S
C293 C291 1.415 . S
C294 H284 0.930 . S
C294 C292 1.419 . S
C294 C295 1.362 . S
C295 H285 0.930 . S
C295 C288 1.409 . S
C295 C294 1.362 . S
H296 C302 0.930 . S
H297 C305 0.943 . S
H298 C306 0.930 . S
H299 C307 0.930 . S
H300 C310 0.930 . S
H301 C311 0.930 . S
C302 H296 0.930 . S
C302 C303 1.355 . S
C302 C304 1.415 . S
C303 C302 1.355 . S
C303 C305 1.419 . S
C304 C302 1.415 . S
C304 C309 1.425 . S
C304 C311 1.409 . S
C305 H297 0.943 . S
C305 C303 1.419 . S
C305 C306 1.362 . S
C306 H298 0.930 . S
C306 C305 1.362 . S
C306 C309 1.409 . S
C307 H299 0.930 . S
C307 C308 1.355 . S
C307 C309 1.415 . S
C308 C307 1.355 . S
C308 C310 1.419 . S
C309 C304 1.425 . S
C309 C306 1.409 . S
C309 C307 1.415 . S
C310 H300 0.930 . S
C310 C308 1.419 . S
C310 C311 1.362 . S
C311 H301 0.930 . S
C311 C304 1.409 . S
C311 C310 1.362 . S
H312 C318 0.930 . S
H313 C321 0.930 . S
H314 C322 0.930 . S
H315 C323 0.930 . S
H316 C326 0.930 . S
H317 C327 0.930 . S
C318 H312 0.930 . S
C318 C319 1.355 . S
C318 C320 1.415 . S
C319 C318 1.355 . S
C319 C321 1.419 . S
C320 C318 1.415 . S
C320 C325 1.425 . S
C320 C327 1.409 . S
C321 H313 0.930 . S
C321 C319 1.419 . S
C321 C322 1.362 . S
C322 H314 0.930 . S
C322 C321 1.362 . S
C322 C325 1.409 . S
C323 H315 0.930 . S
C323 C324 1.355 . S
C323 C325 1.415 . S
C324 C323 1.355 . S
C324 C326 1.419 . S
C325 C320 1.425 . S
C325 C322 1.409 . S
C325 C323 1.415 . S
C326 H316 0.930 . S
C326 C324 1.419 . S
C326 C327 1.362 . S
C327 H317 0.930 . S
C327 C320 1.409 . S
C327 C326 1.362 . S
H328 C334 0.930 . S
H329 C337 0.930 . S
H330 C338 0.930 . S
H331 C339 0.930 . S
H332 C342 0.930 . S
H333 C343 0.930 . S
C334 H328 0.930 . S
C334 C335 1.355 . S
C334 C336 1.415 . S
C335 C334 1.355 . S
C335 C337 1.419 . S
C336 C334 1.415 . S
C336 C341 1.425 . S
C336 C343 1.409 . S
C337 H329 0.930 . S
C337 C335 1.419 . S
C337 C338 1.362 . S
C338 H330 0.930 . S
C338 C337 1.362 . S
C338 C341 1.409 . S
C339 H331 0.930 . S
C339 C340 1.355 . S
C339 C341 1.415 . S
C340 C339 1.355 . S
C340 C342 1.419 . S
C341 C336 1.425 . S
C341 C338 1.409 . S
C341 C339 1.415 . S
C342 H332 0.930 . S
C342 C340 1.419 . S
C342 C343 1.362 . S
C343 H333 0.930 . S
C343 C336 1.409 . S
C343 C342 1.362 . S
H344 C350 0.930 . S
H345 C353 0.930 . S
H346 C354 0.930 . S
H347 C355 0.930 . S
H348 C358 0.930 . S
H349 C359 0.930 . S
C350 H344 0.930 . S
C350 C351 1.355 . S
C350 C352 1.415 . S
C351 C350 1.355 . S
C351 C353 1.419 . S
C352 C350 1.415 . S
C352 C357 1.425 . S
C352 C359 1.409 . S
C353 H345 0.930 . S
C353 C351 1.419 . S
C353 C354 1.362 . S
C354 H346 0.930 . S
C354 C353 1.362 . S
C354 C357 1.409 . S
C355 H347 0.930 . S
C355 C356 1.355 . S
C355 C357 1.415 . S
C356 C355 1.355 . S
C356 C358 1.419 . S
C357 C352 1.425 . S
C357 C354 1.409 . S
C357 C355 1.415 . S
C358 H348 0.930 . S
C358 C356 1.419 . S
C358 C359 1.362 . S
C359 H349 0.930 . S
C359 C352 1.409 . S
C359 C358 1.362 . S
H360 C366 0.930 . S
H361 C369 0.930 . S
H362 C370 0.930 1_455 S
H363 C371 0.930 . S
H364 C374 0.930 . S
H365 C375 0.930 1_655 S
C366 H360 0.930 . S
C366 C367 1.355 . S
C366 C368 1.415 . S
C367 C366 1.355 . S
C367 C369 1.419 . S
C368 C366 1.415 . S
C368 C373 1.425 1_655 S
C368 C375 1.409 1_655 S
C369 H361 0.930 . S
C369 C367 1.419 . S
C369 C370 1.362 . S
C370 H362 0.930 1_655 S
C370 C369 1.362 . S
C370 C373 1.409 1_655 S
C371 H363 0.930 . S
C371 C372 1.355 . S
C371 C373 1.415 . S
C372 C371 1.355 . S
C372 C374 1.419 . S
C373 C368 1.425 1_455 S
C373 C370 1.409 1_455 S
C373 C371 1.415 . S
C374 H364 0.930 . S
C374 C372 1.419 . S
C374 C375 1.362 . S
C375 H365 0.930 1_455 S
C375 C368 1.409 1_455 S
C375 C374 1.362 . S
H376 C382 0.930 . S
H377 C385 0.930 . S
H378 C386 0.930 . S
H379 C387 0.930 . S
H380 C390 0.930 . S
H381 C391 0.930 . S
C382 H376 0.930 . S
C382 C383 1.355 . S
C382 C384 1.415 . S
C383 C382 1.355 . S
C383 C385 1.419 . S
C384 C382 1.415 . S
C384 C389 1.425 1_565 S
C384 C391 1.409 1_565 S
C385 H377 0.930 . S
C385 C383 1.419 . S
C385 C386 1.362 . S
C386 H378 0.930 . S
C386 C385 1.362 . S
C386 C389 1.409 1_565 S
C387 H379 0.930 . S
C387 C388 1.355 . S
C387 C389 1.415 . S
C388 C387 1.355 . S
C388 C390 1.419 . S
C389 C384 1.425 1_545 S
C389 C386 1.409 1_545 S
C389 C387 1.415 . S
C390 H380 0.930 . S
C390 C388 1.419 . S
C390 C391 1.362 . S
C391 H381 0.930 . S
C391 C384 1.409 1_545 S
C391 C390 1.362 . S
H392 C398 0.930 . S
H393 C401 0.930 . S
H394 C402 0.930 . S
H395 C403 0.930 . S
H396 C406 0.930 . S
H397 C407 0.930 . S
C398 H392 0.930 . S
C398 C399 1.355 . S
C398 C400 1.415 . S
C399 C398 1.355 . S
C399 C401 1.419 . S
C400 C398 1.415 . S
C400 C405 1.425 . S
C400 C407 1.409 . S
C401 H393 0.930 . S
C401 C399 1.419 . S
C401 C402 1.362 . S
C402 H394 0.930 . S
C402 C401 1.362 . S
C402 C405 1.409 . S
C403 H395 0.930 . S
C403 C404 1.355 . S
C403 C405 1.415 . S
C404 C403 1.355 . S
C404 C406 1.419 . S
C405 C400 1.425 . S
C405 C402 1.409 . S
C405 C403 1.415 . S
C406 H396 0.930 . S
C406 C404 1.419 . S
C406 C407 1.362 . S
C407 H397 0.930 . S
C407 C400 1.409 . S
C407 C406 1.362 . S
H408 C414 0.930 . S
H409 C417 0.930 . S
H410 C418 0.930 1_655 S
H411 C419 0.930 . S
H412 C422 0.930 . S
H413 C423 0.930 1_455 S
C414 H408 0.930 . S
C414 C415 1.355 . S
C414 C416 1.415 . S
C415 C414 1.355 . S
C415 C417 1.419 . S
C416 C414 1.415 . S
C416 C421 1.425 1_455 S
C416 C423 1.409 1_455 S
C417 H409 0.930 . S
C417 C415 1.419 . S
C417 C418 1.362 . S
C418 H410 0.930 1_455 S
C418 C417 1.362 . S
C418 C421 1.409 1_455 S
C419 H411 0.930 . S
C419 C420 1.355 . S
C419 C421 1.415 . S
C420 C419 1.355 . S
C420 C422 1.419 . S
C421 C416 1.425 1_655 S
C421 C418 1.409 1_655 S
C421 C419 1.415 . S
C422 H412 0.930 . S
C422 C420 1.419 . S
C422 C423 1.362 . S
C423 H413 0.930 1_655 S
C423 C416 1.409 1_655 S
C423 C422 1.362 . S
H424 C430 0.930 . S
H425 C433 0.930 . S
H426 C434 0.930 1_565 S
H427 C435 0.930 . S
H428 C438 0.930 . S
H429 C439 0.930 1_545 S
C430 H424 0.930 . S
C430 C431 1.355 1_554 S
C430 C432 1.415 . S
C431 C430 1.355 1_556 S
C431 C433 1.419 . S
C432 C430 1.415 . S
C432 C437 1.425 1_544 S
C432 C439 1.409 1_545 S
C433 H425 0.930 . S
C433 C431 1.419 . S
C433 C434 1.362 . S
C434 H426 0.930 1_545 S
C434 C433 1.362 . S
C434 C437 1.409 1_545 S
C435 H427 0.930 . S
C435 C436 1.355 1_556 S
C435 C437 1.415 . S
C436 C435 1.355 1_554 S
C436 C438 1.419 . S
C437 C432 1.425 1_566 S
C437 C434 1.409 1_565 S
C437 C435 1.415 . S
C438 H428 0.930 . S
C438 C436 1.419 . S
C438 C439 1.362 . S
C439 H429 0.930 1_565 S
C439 C432 1.409 1_565 S
C439 C438 1.362 . S
H440 C446 0.930 . S
H441 C449 0.930 . S
H442 C450 0.930 . S
H443 C451 0.930 . S
H444 C454 0.930 . S
H445 C455 0.930 . S
C446 H440 0.930 . S
C446 C447 1.355 . S
C446 C448 1.415 . S
C447 C446 1.355 . S
C447 C449 1.419 . S
C448 C446 1.415 . S
C448 C453 1.425 . S
C448 C455 1.409 . S
C449 H441 0.930 . S
C449 C447 1.419 . S
C449 C450 1.362 . S
C450 H442 0.930 . S
C450 C449 1.362 . S
C450 C453 1.409 . S
C451 H443 0.930 . S
C451 C452 1.355 . S
C451 C453 1.415 . S
C452 C451 1.355 . S
C452 C454 1.419 . S
C453 C448 1.425 . S
C453 C450 1.409 . S
C453 C451 1.415 . S
C454 H444 0.930 . S
C454 C452 1.419 . S
C454 C455 1.362 . S
C455 H445 0.930 . S
C455 C448 1.409 . S
C455 C454 1.362 . S
H456 C462 0.930 . S
H457 C465 0.930 . S
H458 C466 0.930 . S
H459 C467 0.930 . S
H460 C470 0.930 . S
H461 C471 0.930 . S
C462 H456 0.930 . S
C462 C463 1.355 . S
C462 C464 1.415 . S
C463 C462 1.355 . S
C463 C465 1.419 . S
C464 C462 1.415 . S
C464 C469 1.425 . S
C464 C471 1.409 . S
C465 H457 0.930 . S
C465 C463 1.419 . S
C465 C466 1.362 . S
C466 H458 0.930 . S
C466 C465 1.362 . S
C466 C469 1.409 . S
C467 H459 0.930 . S
C467 C468 1.355 . S
C467 C469 1.415 . S
C468 C467 1.355 . S
C468 C470 1.419 . S
C469 C464 1.425 . S
C469 C466 1.409 . S
C469 C467 1.415 . S
C470 H460 0.930 . S
C470 C468 1.419 . S
C470 C471 1.362 . S
C471 H461 0.930 . S
C471 C464 1.409 . S
C471 C470 1.362 . S
H472 C478 0.930 . S
H473 C481 0.930 . S
H474 C482 0.930 . S
H475 C483 0.930 . S
H476 C486 0.930 . S
H477 C487 0.930 . S
C478 H472 0.930 . S
C478 C479 1.355 . S
C478 C480 1.415 . S
C479 C478 1.355 . S
C479 C481 1.419 . S
C480 C478 1.415 . S
C480 C485 1.425 . S
C480 C487 1.409 . S
C481 H473 0.930 . S
C481 C479 1.419 . S
C481 C482 1.362 . S
C482 H474 0.930 . S
C482 C481 1.362 . S
C482 C485 1.409 . S
C483 H475 0.930 . S
C483 C484 1.355 . S
C483 C485 1.415 . S
C484 C483 1.355 . S
C484 C486 1.419 . S
C485 C480 1.425 . S
C485 C482 1.409 . S
C485 C483 1.415 . S
C486 H476 0.930 . S
C486 C484 1.419 . S
C486 C487 1.362 . S
C487 H477 0.930 . S
C487 C480 1.409 . S
C487 C486 1.362 . S
H488 C494 0.930 . S
H489 C497 0.930 . S
H490 C498 0.930 . S
H491 C499 0.930 . S
H492 C502 0.930 . S
H493 C503 0.930 . S
C494 H488 0.930 . S
C494 C495 1.355 . S
C494 C496 1.415 . S
C495 C494 1.355 . S
C495 C497 1.419 . S
C496 C494 1.415 . S
C496 C501 1.425 . S
C496 C503 1.409 . S
C497 H489 0.930 . S
C497 C495 1.419 . S
C497 C498 1.362 . S
C498 H490 0.930 . S
C498 C497 1.362 . S
C498 C501 1.409 . S
C499 H491 0.930 . S
C499 C500 1.355 . S
C499 C501 1.415 . S
C500 C499 1.355 . S
C500 C502 1.419 . S
C501 C496 1.425 . S
C501 C498 1.409 . S
C501 C499 1.415 . S
C502 H492 0.930 . S
C502 C500 1.419 . S
C502 C503 1.362 . S
C503 H493 0.930 . S
C503 C496 1.409 . S
C503 C502 1.362 . S
H504 C510 0.930 . S
H505 C513 0.930 . S
H506 C514 0.930 . S
H507 C515 0.930 . S
H508 C518 0.930 . S
H509 C519 0.930 . S
C510 H504 0.930 . S
C510 C511 1.355 . S
C510 C512 1.415 . S
C511 C510 1.355 . S
C511 C513 1.419 . S
C512 C510 1.415 . S
C512 C517 1.425 . S
C512 C519 1.409 . S
C513 H505 0.930 . S
C513 C511 1.419 . S
C513 C514 1.362 . S
C514 H506 0.930 . S
C514 C513 1.362 . S
C514 C517 1.409 . S
C515 H507 0.930 . S
C515 C516 1.355 . S
C515 C517 1.415 . S
C516 C515 1.355 . S
C516 C518 1.419 . S
C517 C512 1.425 . S
C517 C514 1.409 . S
C517 C515 1.415 . S
C518 H508 0.930 . S
C518 C516 1.419 . S
C518 C519 1.362 . S
C519 H509 0.930 . S
C519 C512 1.409 . S
C519 C518 1.362 . S
H520 C526 0.930 . S
H521 C529 0.930 . S
H522 C530 0.930 . S
H523 C531 0.930 . S
H524 C534 0.930 . S
H525 C535 0.930 . S
C526 H520 0.930 . S
C526 C527 1.355 . S
C526 C528 1.415 . S
C527 C526 1.355 . S
C527 C529 1.419 . S
C528 C526 1.415 . S
C528 C533 1.425 . S
C528 C535 1.409 . S
C529 H521 0.930 . S
C529 C527 1.419 . S
C529 C530 1.362 . S
C530 H522 0.930 . S
C530 C529 1.362 . S
C530 C533 1.409 . S
C531 H523 0.930 . S
C531 C532 1.355 . S
C531 C533 1.415 . S
C532 C531 1.355 . S
C532 C534 1.419 . S
C533 C528 1.425 . S
C533 C530 1.409 . S
C533 C531 1.415 . S
C534 H524 0.930 . S
C534 C532 1.419 . S
C534 C535 1.362 . S
C535 H525 0.930 . S
C535 C528 1.409 . S
C535 C534 1.362 . S
H536 C542 0.930 . S
H537 C545 0.930 . S
H538 C546 0.930 . S
H539 C547 0.930 . S
H540 C550 0.930 . S
H541 C551 0.930 . S
C542 H536 0.930 . S
C542 C543 1.355 . S
C542 C544 1.415 . S
C543 C542 1.355 . S
C543 C545 1.419 . S
C544 C542 1.415 . S
C544 C549 1.425 . S
C544 C551 1.409 . S
C545 H537 0.930 . S
C545 C543 1.419 . S
C545 C546 1.362 . S
C546 H538 0.930 . S
C546 C545 1.362 . S
C546 C549 1.409 . S
C547 H539 0.930 . S
C547 C548 1.355 . S
C547 C549 1.415 . S
C548 C547 1.355 . S
C548 C550 1.419 . S
C549 C544 1.425 . S
C549 C546 1.409 . S
C549 C547 1.415 . S
C550 H540 0.930 . S
C550 C548 1.419 . S
C550 C551 1.362 . S
C551 H541 0.930 . S
C551 C544 1.409 . S
C551 C550 1.362 . S
C175 C9 1.001 . S
C180 C93 1.081 . S
C191 C23 1.006 . S
C196 C107 1.058 . S
C207 C121 1.047 . S
C212 C37 1.017 . S
C223 C51 0.988 . S
C228 C135 1.080 . S
C239 C65 1.011 . S
C244 C149 1.053 . S
C255 C163 1.068 . S
C260 C79 1.018 . S
C271 C120 1.648 . S
C276 C8 1.658 . S
C287 C22 1.648 . S
C292 C134 1.634 . S
C303 C148 1.615 1_556 S
C308 C36 1.606 . S
C319 C162 1.625 . S
C324 C50 1.639 1_554 S
C335 C64 1.635 . S
C340 C92 1.621 . S
C351 C78 1.615 . S
C356 C106 1.629 . S
C367 C160 1.394 . S
C372 C6 1.428 . S
C383 C90 1.387 . S
C388 C20 1.431 . S
C399 C34 1.406 . S
C404 C104 1.417 . S
C415 C118 1.419 . S
C420 C48 1.404 . S
C431 C132 1.397 . S
C436 C62 1.424 . S
C447 C146 1.424 . S
C452 C76 1.398 . S
C463 C7 1.258 . S
C468 C147 1.254 . S
C479 C161 1.290 . S
C484 C21 1.315 . S
C495 C35 1.298 . S
C500 C91 1.320 . S
C511 C49 1.290 . S
C516 C105 1.315 . S
C527 C63 1.322 . S
C532 C119 1.302 . S
C543 C77 1.269 . S
C548 C133 1.296 . S
