# Generated by pormake.
# Topology umx, (4)-cn, num edge types: 1
# Building blocks:
#     Node 0, Type 0, BuildingBlock: MUDLON_clean_sbu_0, # of connection points: 4
#     Node 1, Type 0, BuildingBlock: MUDLON_clean_sbu_0, # of connection points: 4
#     Node 2, Type 0, BuildingBlock: MUDLON_clean_sbu_0, # of connection points: 4
#     Node 3, Type 0, BuildingBlock: MUDLON_clean_sbu_0, # of connection points: 4
#     Node 4, Type 0, BuildingBlock: MUDLON_clean_sbu_0, # of connection points: 4
#     Node 5, Type 0, BuildingBlock: MUDLON_clean_sbu_0, # of connection points: 4
#     Node 6, Type 0, BuildingBlock: MUDLON_clean_sbu_0, # of connection points: 4
#     Node 7, Type 0, BuildingBlock: MUDLON_clean_sbu_0, # of connection points: 4
#     Edge 8, Type (0, 0), BuildingBlock: AJUNOK_clean_linker_0, # of connection points: 2
#     Edge 9, Type (0, 0), BuildingBlock: AJUNOK_clean_linker_0, # of connection points: 2
#     Edge 10, Type (0, 0), BuildingBlock: AJUNOK_clean_linker_0, # of connection points: 2
#     Edge 11, Type (0, 0), BuildingBlock: AJUNOK_clean_linker_0, # of connection points: 2
#     Edge 12, Type (0, 0), BuildingBlock: AJUNOK_clean_linker_0, # of connection points: 2
#     Edge 13, Type (0, 0), BuildingBlock: AJUNOK_clean_linker_0, # of connection points: 2
#     Edge 14, Type (0, 0), BuildingBlock: AJUNOK_clean_linker_0, # of connection points: 2
#     Edge 15, Type (0, 0), BuildingBlock: AJUNOK_clean_linker_0, # of connection points: 2
#     Edge 16, Type (0, 0), BuildingBlock: AJUNOK_clean_linker_0, # of connection points: 2
#     Edge 17, Type (0, 0), BuildingBlock: AJUNOK_clean_linker_0, # of connection points: 2
#     Edge 18, Type (0, 0), BuildingBlock: AJUNOK_clean_linker_0, # of connection points: 2
#     Edge 19, Type (0, 0), BuildingBlock: AJUNOK_clean_linker_0, # of connection points: 2
#     Edge 20, Type (0, 0), BuildingBlock: AJUNOK_clean_linker_0, # of connection points: 2
#     Edge 21, Type (0, 0), BuildingBlock: AJUNOK_clean_linker_0, # of connection points: 2
#     Edge 22, Type (0, 0), BuildingBlock: AJUNOK_clean_linker_0, # of connection points: 2
#     Edge 23, Type (0, 0), BuildingBlock: AJUNOK_clean_linker_0, # of connection points: 2
# Relax obj value: 0.023
# Max RMSD: 0.223
# Mean RMSD: 0.222
data_MOF--net-umx--node1-MUDLON_clean_sbu_0--edge1-AJUNOK_clean_linker_0
_symmetry_space_group_name_H-M    P1
_symmetry_Int_Tables_number       1
_symmetry_cell_setting            triclinic
loop_
_symmetry_equiv_pos_as_xyz
'x, y, z'
_cell_length_a     30.238254
_cell_length_b     30.162804
_cell_length_c     22.146979
_cell_angle_alpha  90.38178
_cell_angle_beta   90.34798
_cell_angle_gamma 89.887267
loop_
_atom_site_label
_atom_site_type_symbol
_atom_site_fract_x
_atom_site_fract_y
_atom_site_fract_z
_atom_type_partial_charge
Mg0 Mg 0.18835 0.46028 0.04091 0.0
C1 C 0.10266 0.49818 1.0081 0.0
O2 O 0.13152 0.52691 0.988 0.0
C3 C 0.26225 0.40171 0.04072 0.0
O4 O 0.27717 0.44262 0.04006 0.0
C5 C 0.20493 0.46745 0.1715 0.0
O6 O 0.19643 0.42515 0.16326 0.0
O7 O 0.20531 0.49263 0.12562 0.0
O8 O 0.11666 0.46331 0.03414 0.0
O9 O 0.21232 0.49197 0.95964 0.0
C10 C 0.21068 0.46735 0.9128 0.0
O11 O 0.19792 0.42602 0.9189 0.0
O12 O 0.22063 0.39595 0.04188 0.0
Mg13 Mg 0.54773 0.19066 0.5439 0.0
C14 C 0.53877 0.20754 0.41458 0.0
O15 O 0.58098 0.19873 0.42225 0.0
C16 C 0.53772 0.20727 0.67371 0.0
O17 O 0.58032 0.20022 0.66723 0.0
C18 C 0.60076 0.2695 0.55087 0.0
O19 O 0.55925 0.28222 0.55461 0.0
O20 O 0.60878 0.22828 0.54562 0.0
O21 O 0.51396 0.20802 0.46078 0.0
O22 O 0.55275 0.11911 0.54226 0.0
C23 C 0.51512 0.10027 0.54115 0.0
O24 O 0.47954 0.12537 0.54105 0.0
O25 O 0.5132 0.20659 0.62681 0.0
Mg26 Mg 0.82432 0.55937 0.04842 0.0
C27 C 0.9174 0.54913 1.00144 0.0
O28 O 0.89656 0.5548 0.94992 0.0
C29 C 0.75971 0.62999 0.0353 0.0
O30 O 0.73787 0.59328 1.02358 0.0
C31 C 0.79792 0.55351 0.17677 0.0
O32 O 0.80739 0.59574 0.17103 0.0
O33 O 0.80052 0.52852 0.13037 0.0
O34 O 0.89577 0.55171 0.05038 0.0
O35 O 0.80135 0.52854 0.96453 0.0
C36 C 0.79837 0.5531 0.91809 0.0
O37 O 0.80758 0.59546 0.92378 0.0
O38 O 0.80045 0.6274 0.04921 0.0
Mg39 Mg 0.4522 0.82037 0.53774 0.0
C40 C 0.46303 0.8004 0.40821 0.0
O41 O 0.42092 0.81078 0.41229 0.0
C42 C 0.46119 0.80147 0.66767 0.0
O43 O 0.41899 0.81116 0.66188 0.0
C44 C 0.39564 0.74474 0.53241 0.0
O45 O 0.43666 0.73043 0.52916 0.0
O46 O 0.38917 0.78629 0.53662 0.0
O47 O 0.48636 0.80038 0.45619 0.0
O48 O 0.45207 0.89213 0.53778 0.0
C49 C 0.49093 0.90835 0.53828 0.0
O50 O 0.52466 0.88083 0.53858 0.0
O51 O 0.48514 0.80128 0.62065 0.0
Mg52 Mg 0.18243 0.55393 0.54404 0.0
C53 C 0.1994 0.5429 0.41375 0.0
O54 O 0.19038 0.58539 0.41884 0.0
C55 C 0.20668 0.54378 0.67289 0.0
O56 O 0.20002 0.5867 0.66856 0.0
C57 C 0.25881 0.60929 0.53644 0.0
O58 O 0.27234 0.56793 0.53251 0.0
O59 O 0.21763 0.61644 0.54249 0.0
O60 O 0.19963 0.51942 0.46125 0.0
O61 O 0.11085 0.55582 0.54579 0.0
C62 C 0.09364 0.51736 0.54328 0.0
O63 O 0.12017 0.48288 0.54011 0.0
O64 O 0.20291 0.51999 0.62551 0.0
Mg65 Mg 0.4496 0.18423 0.04363 0.0
C66 C 0.46129 0.20496 0.17343 0.0
O67 O 0.41842 0.19861 0.16889 0.0
C68 C 0.46055 0.20136 0.9135 0.0
O69 O 0.41824 0.19208 0.91765 0.0
C70 C 0.39545 0.26202 0.03887 0.0
O71 O 0.43686 0.27489 0.03529 0.0
O72 O 0.38779 0.22076 0.04324 0.0
O73 O 0.48447 0.20246 0.1258 0.0
O74 O 0.4462 0.11262 0.04361 0.0
C75 C 0.48405 0.09408 0.0435 0.0
O76 O 0.51935 0.11943 0.04337 0.0
O77 O 0.48385 0.20171 0.96152 0.0
Mg78 Mg 0.81074 0.46515 0.54639 0.0
C79 C 0.90171 0.49765 0.5486 0.0
O80 O 0.87746 0.53376 0.55241 0.0
C81 C 0.73364 0.40914 0.55261 0.0
O82 O 0.71923 0.45009 0.55833 0.0
C83 C 0.79172 0.47641 0.41651 0.0
O84 O 0.79893 0.43357 0.42101 0.0
O85 O 0.79282 0.49991 0.4644 0.0
O86 O 0.88215 0.46037 0.5456 0.0
O87 O 0.79403 0.49954 0.62954 0.0
C88 C 0.79523 0.47599 0.67696 0.0
O89 O 0.80461 0.4336 0.6714 0.0
O90 O 0.77493 0.40297 0.54624 0.0
Mg91 Mg 0.54716 0.8142 0.03892 0.0
C92 C 0.53984 0.79198 0.16844 0.0
O93 O 0.58246 0.79852 0.16215 0.0
C94 C 0.53616 0.79842 0.90976 0.0
O95 O 0.57828 0.8078 0.91671 0.0
C96 C 0.64814 0.78499 0.04898 0.0
O97 O 0.65722 0.82014 0.08208 0.0
O98 O 0.60893 0.77835 0.03019 0.0
O99 O 0.51511 0.79449 0.1219 0.0
O100 O 0.54854 0.88595 0.04103 0.0
C101 C 0.50967 0.90224 0.04233 0.0
O102 O 0.47603 0.87475 0.0426 0.0
O103 O 0.51175 0.79778 0.95637 0.0
C104 C 0.20566 0.53201 0.2431 0.0
C105 C 0.2087 0.48597 0.23359 0.0
C106 C 0.20405 0.55001 0.30152 0.0
C107 C 0.20555 0.52279 0.35296 0.0
H108 H 0.20305 0.55437 0.20518 0.0
H109 H 0.2005 0.58561 0.30614 0.0
S110 S 0.21838 0.40033 0.35286 0.0
N111 N 0.21678 0.41366 0.28072 0.0
N112 N 0.21369 0.44753 0.39041 0.0
C113 C 0.21069 0.47683 0.34418 0.0
C114 C 0.21226 0.45844 0.28459 0.0
C115 C 0.47267 0.20543 0.74302 0.0
C116 C 0.51842 0.21085 0.73501 0.0
C117 C 0.45426 0.20374 0.80087 0.0
C118 C 0.48078 0.20753 0.85318 0.0
H119 H 0.45094 0.20098 0.70439 0.0
H120 H 0.41898 0.19829 0.80438 0.0
S121 S 0.60195 0.22729 0.85685 0.0
N122 N 0.58948 0.22373 0.78433 0.0
N123 N 0.55487 0.22051 0.89293 0.0
C124 C 0.52634 0.21506 0.84581 0.0
C125 C 0.54513 0.21671 0.78682 0.0
C126 C 0.79085 0.47002 0.30381 0.0
C127 C 0.78756 0.4969 0.35588 0.0
C128 C 0.79217 0.48845 0.24594 0.0
C129 C 0.79033 0.5346 0.23761 0.0
H130 H 0.79384 0.43435 0.30763 0.0
H131 H 0.7963 0.4663 0.20768 0.0
S132 S 0.7759 0.61948 0.35834 0.0
N133 N 0.77837 0.57198 0.39477 0.0
N134 N 0.78074 0.60664 0.28612 0.0
C135 C 0.78459 0.56179 0.289 0.0
C136 C 0.78322 0.54298 0.34803 0.0
C137 C 0.47155 0.79904 0.8386 0.0
C138 C 0.51721 0.79361 0.84818 0.0
C139 C 0.45367 0.79999 0.78009 0.0
C140 C 0.48069 0.79542 0.72877 0.0
H141 H 0.44955 0.80424 0.87642 0.0
H142 H 0.41845 0.80566 0.77524 0.0
S143 S 0.60178 0.7746 0.72973 0.0
N144 N 0.58865 0.77936 0.8017 0.0
N145 N 0.55508 0.78124 0.69187 0.0
C146 C 0.52614 0.78763 0.73785 0.0
C147 C 0.54436 0.78672 0.79748 0.0
C148 C 0.79689 0.46944 0.7895 0.0
C149 C 0.79052 0.49603 0.73807 0.0
C150 C 0.79728 0.48781 0.84778 0.0
C151 C 0.79142 0.53359 0.8571 0.0
H152 H 0.80301 0.4342 0.78486 0.0
H153 H 0.80398 0.46611 0.88553 0.0
S154 S 0.76758 0.61703 0.73857 0.0
N155 N 0.77397 0.57004 0.70096 0.0
N156 N 0.77459 0.60454 0.81045 0.0
C157 C 0.78259 0.56026 0.80642 0.0
C158 C 0.78216 0.54152 0.74698 0.0
C159 C 0.47485 0.79433 0.23781 0.0
C160 C 0.52055 0.78821 0.22967 0.0
C161 C 0.45653 0.79671 0.29568 0.0
C162 C 0.48308 0.79296 0.34791 0.0
H163 H 0.45313 0.79898 0.19929 0.0
H164 H 0.42134 0.80282 0.29927 0.0
S165 S 0.60396 0.7711 0.35125 0.0
N166 N 0.59147 0.77437 0.27876 0.0
N167 N 0.55701 0.77891 0.38746 0.0
C168 C 0.52851 0.7845 0.34042 0.0
C169 C 0.54722 0.78212 0.28138 0.0
C170 C 0.21407 0.53231 0.8433 0.0
C171 C 0.21616 0.48618 0.85161 0.0
C172 C 0.21275 0.55058 0.78531 0.0
C173 C 0.21357 0.52352 0.7332 0.0
H174 H 0.21157 0.55451 0.88178 0.0
H175 H 0.20961 0.58623 0.78154 0.0
S176 S 0.22492 0.40091 0.73044 0.0
N177 N 0.2234 0.41398 0.80288 0.0
N178 N 0.22087 0.4483 0.69398 0.0
C179 C 0.2182 0.47746 0.74089 0.0
C180 C 0.21949 0.45883 0.80002 0.0
C181 C 0.4739 0.21179 0.34397 0.0
C182 C 0.52 0.21189 0.35276 0.0
C183 C 0.45537 0.21106 0.28582 0.0
C184 C 0.48212 0.21048 0.23395 0.0
H185 H 0.4518 0.2109 0.38225 0.0
H186 H 0.41968 0.2098 0.28175 0.0
S187 S 0.60482 0.21507 0.23207 0.0
N188 N 0.59207 0.21483 0.30441 0.0
N189 N 0.55722 0.21335 0.19531 0.0
C190 C 0.52827 0.21264 0.24201 0.0
C191 C 0.54718 0.21335 0.3013 0.0
C192 C 0.98203 0.51143 0.05052 0.0
C193 C 0.96466 0.5362 1.00211 0.0
C194 C 0.02636 0.49752 0.05112 0.0
C195 C 0.05505 0.50873 1.00396 0.0
H196 H 0.96114 0.50234 0.088 0.0
H197 H 0.03854 0.47901 0.08956 0.0
S198 S 0.02596 0.57219 0.86634 0.0
N199 N 0.97956 0.57031 0.90513 0.0
N200 N 0.06296 0.5451 0.90703 0.0
C201 C 0.03809 0.5332 0.95521 0.0
C202 C 0.99287 0.54669 0.95406 0.0
C203 C 0.46199 0.98621 0.53886 0.0
C204 C 0.49832 0.95706 0.53878 0.0
C205 C 0.46795 0.03225 0.53955 0.0
C206 C 0.5105 0.05124 0.54021 0.0
H207 H 0.42852 0.97347 0.53844 0.0
H208 H 0.43872 0.05306 0.53964 0.0
S209 S 0.61691 0.98966 0.54004 0.0
N210 N 0.57871 0.95066 0.53922 0.0
N211 N 0.58971 0.03715 0.54054 0.0
C212 C 0.54721 0.02255 0.54004 0.0
C213 C 0.54117 0.97554 0.53932 0.0
C214 C 0.01684 0.54803 0.55175 0.0
C215 C 0.04489 0.51118 0.54436 0.0
C216 C 0.97079 0.54314 0.55321 0.0
C217 C 0.9507 0.50119 0.54732 0.0
H218 H 0.03047 0.58105 0.5566 0.0
H219 H 0.95084 0.5727 0.55906 0.0
S220 S 0.00914 0.39389 0.5262 0.0
N221 N 0.04905 0.43104 0.53058 0.0
N222 N 0.96259 0.42202 0.53337 0.0
C223 C 0.9783 0.46399 0.53982 0.0
C224 C 0.02529 0.46895 0.53832 0.0
C225 C 0.53814 0.98021 0.04215 0.0
C226 C 0.50204 0.95095 0.04299 0.0
C227 C 0.53183 0.02625 0.04238 0.0
C228 C 0.48914 0.04508 0.04343 0.0
H229 H 0.57169 0.96757 0.04122 0.0
H230 H 0.56088 0.04719 0.04163 0.0
S231 S 0.38323 0.98313 0.04625 0.0
N232 N 0.42172 0.94428 0.04518 0.0
N233 N 0.41007 0.0307 0.04557 0.0
C234 C 0.45267 0.01625 0.04439 0.0
C235 C 0.45906 0.96929 0.04419 0.0
C236 C 0.33901 0.3737 0.02867 0.0
C237 C 0.29417 0.36434 0.03915 0.0
C238 C 0.37091 0.34025 1.02814 0.0
C239 C 0.35963 0.2957 0.03813 0.0
H240 H 0.34991 0.40735 1.02082 0.0
H241 H 0.40487 0.34973 1.01998 0.0
S242 S 0.24672 0.25303 0.06725 0.0
N243 N 0.23981 0.30702 0.05924 0.0
N244 N 0.30014 0.24372 0.05833 0.0
C245 C 0.31483 0.28551 0.04806 0.0
C246 C 0.28205 0.31988 0.04854 0.0
C247 C 0.65683 0.38121 0.56454 0.0
C248 C 0.70163 0.3719 0.55328 0.0
C249 C 0.625 0.34774 0.56415 0.0
C250 C 0.63637 0.30327 0.55251 0.0
H251 H 0.64589 0.41481 0.57357 0.0
H252 H 0.59104 0.35713 0.57292 0.0
S253 S 0.74925 0.26073 0.52099 0.0
N254 N 0.75602 0.31463 0.53074 0.0
N255 N 0.6959 0.25143 0.53003 0.0
C256 C 0.68114 0.29315 0.54182 0.0
C257 C 0.7138 0.32749 0.54219 0.0
C258 C 0.74427 0.70611 0.07613 0.0
C259 C 0.73637 0.67288 0.03256 0.0
C260 C 0.71709 0.74394 0.07939 0.0
C261 C 0.68146 0.74967 0.03891 0.0
H262 H 0.76997 0.70171 0.10987 0.0
H263 H 0.72265 0.76757 0.11568 0.0
S264 S 0.65301 0.67609 0.90923 0.0
N265 N 0.69457 0.65082 0.94338 0.0
N266 N 0.6441 0.72186 0.94859 0.0
C267 C 0.67569 0.7182 0.99227 0.0
C268 C 0.70298 0.67977 0.98937 0.0
C269 C 0.36871 0.66743 0.52001 0.0
C270 C 0.35889 0.71224 0.53171 0.0
C271 C 0.33593 0.63496 0.52106 0.0
C272 C 0.29167 0.64566 0.53389 0.0
H273 H 0.4022 0.65696 0.51016 0.0
H274 H 0.34573 0.60102 0.51197 0.0
S275 S 0.24796 0.75832 0.56668 0.0
N276 N 0.30138 0.76599 0.55568 0.0
N277 N 0.2394 0.7046 0.55767 0.0
C278 C 0.28099 0.69045 0.54483 0.0
C279 C 0.31465 0.72379 0.54374 0.0
loop_
_geom_bond_atom_site_label_1
_geom_bond_atom_site_label_2
_geom_bond_distance
_geom_bond_site_symmetry_2
_ccdc_geom_bond_type
Mg0 O7 2.141 . S
Mg0 O8 2.048 . S
Mg0 O9 2.048 1_554 S
Mg0 O12 2.141 . S
C1 O2 1.313 1_554 S
C1 O8 1.195 . S
O2 C1 1.313 1_556 S
C3 O4 1.245 . S
C3 O12 1.289 . S
O4 C3 1.245 . S
C5 O6 1.245 . S
C5 O7 1.289 . S
O6 C5 1.245 . S
O7 Mg0 2.141 . S
O7 C5 1.289 . S
O8 Mg0 2.048 . S
O8 C1 1.195 . S
O9 Mg0 2.048 1_556 S
O9 C10 1.195 . S
C10 O9 1.195 . S
C10 O11 1.313 . S
O11 C10 1.313 . S
O12 Mg0 2.141 . S
O12 C3 1.289 . S
Mg13 O20 2.141 . S
Mg13 O21 2.048 . S
Mg13 O22 2.048 . S
Mg13 O25 2.141 . S
C14 O15 1.313 . S
C14 O21 1.195 . S
O15 C14 1.313 . S
C16 O17 1.245 . S
C16 O25 1.289 . S
O17 C16 1.245 . S
C18 O19 1.245 . S
C18 O20 1.289 . S
O19 C18 1.245 . S
O20 Mg13 2.141 . S
O20 C18 1.289 . S
O21 Mg13 2.048 . S
O21 C14 1.195 . S
O22 Mg13 2.048 . S
O22 C23 1.195 . S
C23 O22 1.195 . S
C23 O24 1.313 . S
O24 C23 1.313 . S
O25 Mg13 2.141 . S
O25 C16 1.289 . S
Mg26 O33 2.141 . S
Mg26 O34 2.048 . S
Mg26 O35 2.048 1_554 S
Mg26 O38 2.141 . S
C27 O28 1.313 1_554 S
C27 O34 1.195 . S
O28 C27 1.313 1_556 S
C29 O30 1.245 . S
C29 O38 1.289 . S
O30 C29 1.245 . S
C31 O32 1.245 . S
C31 O33 1.289 . S
O32 C31 1.245 . S
O33 Mg26 2.141 . S
O33 C31 1.289 . S
O34 Mg26 2.048 . S
O34 C27 1.195 . S
O35 Mg26 2.048 1_556 S
O35 C36 1.195 . S
C36 O35 1.195 . S
C36 O37 1.313 . S
O37 C36 1.313 . S
O38 Mg26 2.141 . S
O38 C29 1.289 . S
Mg39 O46 2.141 . S
Mg39 O47 2.048 . S
Mg39 O48 2.048 . S
Mg39 O51 2.141 . S
C40 O41 1.313 . S
C40 O47 1.195 . S
O41 C40 1.313 . S
C42 O43 1.245 . S
C42 O51 1.289 . S
O43 C42 1.245 . S
C44 O45 1.245 . S
C44 O46 1.289 . S
O45 C44 1.245 . S
O46 Mg39 2.141 . S
O46 C44 1.289 . S
O47 Mg39 2.048 . S
O47 C40 1.195 . S
O48 Mg39 2.048 . S
O48 C49 1.195 . S
C49 O48 1.195 . S
C49 O50 1.313 . S
O50 C49 1.313 . S
O51 Mg39 2.141 . S
O51 C42 1.289 . S
Mg52 O59 2.141 . S
Mg52 O60 2.048 . S
Mg52 O61 2.048 . S
Mg52 O64 2.141 . S
C53 O54 1.313 . S
C53 O60 1.195 . S
O54 C53 1.313 . S
C55 O56 1.245 . S
C55 O64 1.289 . S
O56 C55 1.245 . S
C57 O58 1.245 . S
C57 O59 1.289 . S
O58 C57 1.245 . S
O59 Mg52 2.141 . S
O59 C57 1.289 . S
O60 Mg52 2.048 . S
O60 C53 1.195 . S
O61 Mg52 2.048 . S
O61 C62 1.195 . S
C62 O61 1.195 . S
C62 O63 1.313 . S
O63 C62 1.313 . S
O64 Mg52 2.141 . S
O64 C55 1.289 . S
Mg65 O72 2.141 . S
Mg65 O73 2.048 . S
Mg65 O74 2.048 . S
Mg65 O77 2.141 1_554 S
C66 O67 1.313 . S
C66 O73 1.195 . S
O67 C66 1.313 . S
C68 O69 1.245 . S
C68 O77 1.289 . S
O69 C68 1.245 . S
C70 O71 1.245 . S
C70 O72 1.289 . S
O71 C70 1.245 . S
O72 Mg65 2.141 . S
O72 C70 1.289 . S
O73 Mg65 2.048 . S
O73 C66 1.195 . S
O74 Mg65 2.048 . S
O74 C75 1.195 . S
C75 O74 1.195 . S
C75 O76 1.313 . S
O76 C75 1.313 . S
O77 Mg65 2.141 1_556 S
O77 C68 1.289 . S
Mg78 O85 2.141 . S
Mg78 O86 2.048 . S
Mg78 O87 2.048 . S
Mg78 O90 2.141 . S
C79 O80 1.313 . S
C79 O86 1.195 . S
O80 C79 1.313 . S
C81 O82 1.245 . S
C81 O90 1.289 . S
O82 C81 1.245 . S
C83 O84 1.245 . S
C83 O85 1.289 . S
O84 C83 1.245 . S
O85 Mg78 2.141 . S
O85 C83 1.289 . S
O86 Mg78 2.048 . S
O86 C79 1.195 . S
O87 Mg78 2.048 . S
O87 C88 1.195 . S
C88 O87 1.195 . S
C88 O89 1.313 . S
O89 C88 1.313 . S
O90 Mg78 2.141 . S
O90 C81 1.289 . S
Mg91 O98 2.141 . S
Mg91 O99 2.048 . S
Mg91 O100 2.048 . S
Mg91 O103 2.141 1_554 S
C92 O93 1.313 . S
C92 O99 1.195 . S
O93 C92 1.313 . S
C94 O95 1.245 . S
C94 O103 1.289 . S
O95 C94 1.245 . S
C96 O97 1.245 . S
C96 O98 1.289 . S
O97 C96 1.245 . S
O98 Mg91 2.141 . S
O98 C96 1.289 . S
O99 Mg91 2.048 . S
O99 C92 1.195 . S
O100 Mg91 2.048 . S
O100 C101 1.195 . S
C101 O100 1.195 . S
C101 O102 1.313 . S
O102 C101 1.313 . S
O103 Mg91 2.141 1_556 S
O103 C94 1.289 . S
C104 C105 1.369 . S
C104 C106 1.419 . S
C104 H108 0.930 . S
C105 C104 1.369 . S
C105 C114 1.429 . S
C106 C104 1.419 . S
C106 C107 1.363 . S
C106 H109 0.929 . S
C107 C106 1.363 . S
C107 C113 1.428 . S
H108 C104 0.930 . S
H109 C106 0.929 . S
S110 N111 1.613 . S
S110 N112 1.610 . S
N111 S110 1.613 . S
N111 C114 1.350 . S
N112 S110 1.610 . S
N112 C113 1.351 . S
C113 C107 1.428 . S
C113 N112 1.351 . S
C113 C114 1.434 . S
C114 C105 1.429 . S
C114 N111 1.350 . S
C114 C113 1.434 . S
C115 C116 1.369 . S
C115 C117 1.419 . S
C115 H119 0.930 . S
C116 C115 1.369 . S
C116 C125 1.429 . S
C117 C115 1.419 . S
C117 C118 1.363 . S
C117 H120 0.929 . S
C118 C117 1.363 . S
C118 C124 1.428 . S
H119 C115 0.930 . S
H120 C117 0.929 . S
S121 N122 1.613 . S
S121 N123 1.610 . S
N122 S121 1.613 . S
N122 C125 1.350 . S
N123 S121 1.610 . S
N123 C124 1.351 . S
C124 C118 1.428 . S
C124 N123 1.351 . S
C124 C125 1.434 . S
C125 C116 1.429 . S
C125 N122 1.350 . S
C125 C124 1.434 . S
C126 C127 1.369 . S
C126 C128 1.419 . S
C126 H130 0.930 . S
C127 C126 1.369 . S
C127 C136 1.429 . S
C128 C126 1.419 . S
C128 C129 1.363 . S
C128 H131 0.929 . S
C129 C128 1.363 . S
C129 C135 1.428 . S
H130 C126 0.930 . S
H131 C128 0.929 . S
S132 N133 1.613 . S
S132 N134 1.610 . S
N133 S132 1.613 . S
N133 C136 1.350 . S
N134 S132 1.610 . S
N134 C135 1.351 . S
C135 C129 1.428 . S
C135 N134 1.351 . S
C135 C136 1.434 . S
C136 C127 1.429 . S
C136 N133 1.350 . S
C136 C135 1.434 . S
C137 C138 1.369 . S
C137 C139 1.419 . S
C137 H141 0.930 . S
C138 C137 1.369 . S
C138 C147 1.429 . S
C139 C137 1.419 . S
C139 C140 1.363 . S
C139 H142 0.929 . S
C140 C139 1.363 . S
C140 C146 1.428 . S
H141 C137 0.930 . S
H142 C139 0.929 . S
S143 N144 1.613 . S
S143 N145 1.610 . S
N144 S143 1.613 . S
N144 C147 1.350 . S
N145 S143 1.610 . S
N145 C146 1.351 . S
C146 C140 1.428 . S
C146 N145 1.351 . S
C146 C147 1.434 . S
C147 C138 1.429 . S
C147 N144 1.350 . S
C147 C146 1.434 . S
C148 C149 1.369 . S
C148 C150 1.419 . S
C148 H152 0.930 . S
C149 C148 1.369 . S
C149 C158 1.429 . S
C150 C148 1.419 . S
C150 C151 1.363 . S
C150 H153 0.929 . S
C151 C150 1.363 . S
C151 C157 1.428 . S
H152 C148 0.930 . S
H153 C150 0.929 . S
S154 N155 1.613 . S
S154 N156 1.610 . S
N155 S154 1.613 . S
N155 C158 1.350 . S
N156 S154 1.610 . S
N156 C157 1.351 . S
C157 C151 1.428 . S
C157 N156 1.351 . S
C157 C158 1.434 . S
C158 C149 1.429 . S
C158 N155 1.350 . S
C158 C157 1.434 . S
C159 C160 1.369 . S
C159 C161 1.419 . S
C159 H163 0.930 . S
C160 C159 1.369 . S
C160 C169 1.429 . S
C161 C159 1.419 . S
C161 C162 1.363 . S
C161 H164 0.929 . S
C162 C161 1.363 . S
C162 C168 1.428 . S
H163 C159 0.930 . S
H164 C161 0.929 . S
S165 N166 1.613 . S
S165 N167 1.610 . S
N166 S165 1.613 . S
N166 C169 1.350 . S
N167 S165 1.610 . S
N167 C168 1.351 . S
C168 C162 1.428 . S
C168 N167 1.351 . S
C168 C169 1.434 . S
C169 C160 1.429 . S
C169 N166 1.350 . S
C169 C168 1.434 . S
C170 C171 1.369 . S
C170 C172 1.419 . S
C170 H174 0.930 . S
C171 C170 1.369 . S
C171 C180 1.429 . S
C172 C170 1.419 . S
C172 C173 1.363 . S
C172 H175 0.929 . S
C173 C172 1.363 . S
C173 C179 1.428 . S
H174 C170 0.930 . S
H175 C172 0.929 . S
S176 N177 1.613 . S
S176 N178 1.610 . S
N177 S176 1.613 . S
N177 C180 1.350 . S
N178 S176 1.610 . S
N178 C179 1.351 . S
C179 C173 1.428 . S
C179 N178 1.351 . S
C179 C180 1.434 . S
C180 C171 1.429 . S
C180 N177 1.350 . S
C180 C179 1.434 . S
C181 C182 1.369 . S
C181 C183 1.419 . S
C181 H185 0.930 . S
C182 C181 1.369 . S
C182 C191 1.429 . S
C183 C181 1.419 . S
C183 C184 1.363 . S
C183 H186 0.929 . S
C184 C183 1.363 . S
C184 C190 1.428 . S
H185 C181 0.930 . S
H186 C183 0.929 . S
S187 N188 1.613 . S
S187 N189 1.610 . S
N188 S187 1.613 . S
N188 C191 1.350 . S
N189 S187 1.610 . S
N189 C190 1.351 . S
C190 C184 1.428 . S
C190 N189 1.351 . S
C190 C191 1.434 . S
C191 C182 1.429 . S
C191 N188 1.350 . S
C191 C190 1.434 . S
C192 C193 1.369 . S
C192 C194 1.419 1_655 S
C192 H196 0.930 . S
C193 C192 1.369 . S
C193 C202 1.429 1_554 S
C194 C192 1.419 1_455 S
C194 C195 1.363 . S
C194 H197 0.929 . S
C195 C194 1.363 . S
C195 C201 1.428 1_554 S
H196 C192 0.930 . S
H197 C194 0.929 . S
S198 N199 1.613 . S
S198 N200 1.610 1_655 S
N199 S198 1.613 . S
N199 C202 1.350 . S
N200 S198 1.610 1_455 S
N200 C201 1.351 . S
C201 C195 1.428 1_556 S
C201 N200 1.351 . S
C201 C202 1.434 1_455 S
C202 C193 1.429 1_556 S
C202 N199 1.350 . S
C202 C201 1.434 1_655 S
C203 C204 1.369 . S
C203 C205 1.419 1_565 S
C203 H207 0.930 . S
C204 C203 1.369 . S
C204 C213 1.429 . S
C205 C203 1.419 1_545 S
C205 C206 1.363 . S
C205 H208 0.929 . S
C206 C205 1.363 . S
C206 C212 1.428 . S
H207 C203 0.930 . S
H208 C205 0.929 . S
S209 N210 1.613 1_545 S
S209 N211 1.610 . S
N210 S209 1.613 1_565 S
N210 C213 1.350 . S
N211 S209 1.610 . S
N211 C212 1.351 . S
C212 C206 1.428 . S
C212 N211 1.351 . S
C212 C213 1.434 1_545 S
C213 C204 1.429 . S
C213 N210 1.350 . S
C213 C212 1.434 1_565 S
C214 C215 1.369 . S
C214 C216 1.419 1_455 S
C214 H218 0.930 . S
C215 C214 1.369 . S
C215 C224 1.429 . S
C216 C214 1.419 1_655 S
C216 C217 1.363 . S
C216 H219 0.929 . S
C217 C216 1.363 . S
C217 C223 1.428 . S
H218 C214 0.930 . S
H219 C216 0.929 . S
S220 N221 1.613 . S
S220 N222 1.610 1_455 S
N221 S220 1.613 . S
N221 C224 1.350 . S
N222 S220 1.610 1_655 S
N222 C223 1.351 . S
C223 C217 1.428 . S
C223 N222 1.351 . S
C223 C224 1.434 1_655 S
C224 C215 1.429 . S
C224 N221 1.350 . S
C224 C223 1.434 1_455 S
C225 C226 1.369 1_556 S
C225 C227 1.419 1_565 S
C225 H229 0.930 . S
C226 C225 1.369 1_554 S
C226 C235 1.429 . S
C227 C225 1.419 1_545 S
C227 C228 1.363 1_556 S
C227 H230 0.929 . S
C228 C227 1.363 1_554 S
C228 C234 1.428 . S
H229 C225 0.930 . S
H230 C227 0.929 . S
S231 N232 1.613 1_545 S
S231 N233 1.610 . S
N232 S231 1.613 1_565 S
N232 C235 1.350 . S
N233 S231 1.610 . S
N233 C234 1.351 . S
C234 C228 1.428 . S
C234 N233 1.351 . S
C234 C235 1.434 1_545 S
C235 C226 1.429 . S
C235 N232 1.350 . S
C235 C234 1.434 1_565 S
C236 C237 1.369 1_556 S
C236 C238 1.419 . S
C236 H240 0.930 . S
C237 C236 1.369 1_554 S
C237 C246 1.429 . S
C238 C236 1.419 . S
C238 C239 1.363 1_556 S
C238 H241 0.929 . S
C239 C238 1.363 1_554 S
C239 C245 1.428 . S
H240 C236 0.930 . S
H241 C238 0.929 . S
S242 N243 1.613 . S
S242 N244 1.610 . S
N243 S242 1.613 . S
N243 C246 1.350 . S
N244 S242 1.610 . S
N244 C245 1.351 . S
C245 C239 1.428 . S
C245 N244 1.351 . S
C245 C246 1.434 . S
C246 C237 1.429 . S
C246 N243 1.350 . S
C246 C245 1.434 . S
C247 C248 1.369 . S
C247 C249 1.419 . S
C247 H251 0.930 . S
C248 C247 1.369 . S
C248 C257 1.429 . S
C249 C247 1.419 . S
C249 C250 1.363 . S
C249 H252 0.929 . S
C250 C249 1.363 . S
C250 C256 1.428 . S
H251 C247 0.930 . S
H252 C249 0.929 . S
S253 N254 1.613 . S
S253 N255 1.610 . S
N254 S253 1.613 . S
N254 C257 1.350 . S
N255 S253 1.610 . S
N255 C256 1.351 . S
C256 C250 1.428 . S
C256 N255 1.351 . S
C256 C257 1.434 . S
C257 C248 1.429 . S
C257 N254 1.350 . S
C257 C256 1.434 . S
C258 C259 1.369 . S
C258 C260 1.419 . S
C258 H262 0.930 . S
C259 C258 1.369 . S
C259 C268 1.429 1_554 S
C260 C258 1.419 . S
C260 C261 1.363 . S
C260 H263 0.929 . S
C261 C260 1.363 . S
C261 C267 1.428 1_554 S
H262 C258 0.930 . S
H263 C260 0.929 . S
S264 N265 1.613 . S
S264 N266 1.610 . S
N265 S264 1.613 . S
N265 C268 1.350 . S
N266 S264 1.610 . S
N266 C267 1.351 . S
C267 C261 1.428 1_556 S
C267 N266 1.351 . S
C267 C268 1.434 . S
C268 C259 1.429 1_556 S
C268 N265 1.350 . S
C268 C267 1.434 . S
C269 C270 1.369 . S
C269 C271 1.419 . S
C269 H273 0.930 . S
C270 C269 1.369 . S
C270 C279 1.429 . S
C271 C269 1.419 . S
C271 C272 1.363 . S
C271 H274 0.929 . S
C272 C271 1.363 . S
C272 C278 1.428 . S
H273 C269 0.930 . S
H274 C271 0.929 . S
S275 N276 1.613 . S
S275 N277 1.610 . S
N276 S275 1.613 . S
N276 C279 1.350 . S
N277 S275 1.610 . S
N277 C278 1.351 . S
C278 C272 1.428 . S
C278 N277 1.351 . S
C278 C279 1.434 . S
C279 C270 1.429 . S
C279 N276 1.350 . S
C279 C278 1.434 . S
C105 C5 1.544 . S
C107 C53 1.536 . S
C116 C16 1.489 . S
C118 C68 1.489 . S
C127 C83 1.532 . S
C129 C31 1.533 . S
C138 C94 1.487 . S
C140 C42 1.491 . S
C149 C88 1.627 . S
C151 C36 1.629 . S
C160 C92 1.586 . S
C162 C40 1.588 . S
C171 C10 1.616 . S
C173 C55 1.623 . S
C182 C14 1.582 . S
C184 C66 1.587 . S
C193 C27 1.923 . S
C195 C1 1.924 . S
C204 C49 2.055 . S
C206 C23 2.049 . S
C215 C62 1.918 . S
C217 C79 1.928 . S
C226 C101 2.054 . S
C228 C75 2.049 . S
C237 C3 1.801 . S
C239 C70 1.874 . S
C248 C81 1.801 . S
C250 C18 1.874 . S
C259 C29 1.801 . S
C261 C96 1.873 . S
C270 C44 1.873 . S
C272 C57 1.804 . S
