# Generated by pormake.
# Topology umg, (4)-cn, num edge types: 1
# Building blocks:
#     Node 0, Type 0, BuildingBlock: KOZSID_clean_sbu_0, # of connection points: 4
#     Node 1, Type 0, BuildingBlock: KOZSID_clean_sbu_0, # of connection points: 4
#     Node 2, Type 0, BuildingBlock: KOZSID_clean_sbu_0, # of connection points: 4
#     Node 3, Type 0, BuildingBlock: KOZSID_clean_sbu_0, # of connection points: 4
#     Node 4, Type 0, BuildingBlock: KOZSID_clean_sbu_0, # of connection points: 4
#     Node 5, Type 0, BuildingBlock: KOZSID_clean_sbu_0, # of connection points: 4
#     Node 6, Type 0, BuildingBlock: KOZSID_clean_sbu_0, # of connection points: 4
#     Node 7, Type 0, BuildingBlock: KOZSID_clean_sbu_0, # of connection points: 4
#     Node 8, Type 0, BuildingBlock: KOZSID_clean_sbu_0, # of connection points: 4
#     Node 9, Type 0, BuildingBlock: KOZSID_clean_sbu_0, # of connection points: 4
#     Node 10, Type 0, BuildingBlock: KOZSID_clean_sbu_0, # of connection points: 4
#     Node 11, Type 0, BuildingBlock: KOZSID_clean_sbu_0, # of connection points: 4
#     Edge 12, Type (0, 0), None
#     Edge 13, Type (0, 0), None
#     Edge 14, Type (0, 0), None
#     Edge 15, Type (0, 0), None
#     Edge 16, Type (0, 0), None
#     Edge 17, Type (0, 0), None
#     Edge 18, Type (0, 0), None
#     Edge 19, Type (0, 0), None
#     Edge 20, Type (0, 0), None
#     Edge 21, Type (0, 0), None
#     Edge 22, Type (0, 0), None
#     Edge 23, Type (0, 0), None
#     Edge 24, Type (0, 0), None
#     Edge 25, Type (0, 0), None
#     Edge 26, Type (0, 0), None
#     Edge 27, Type (0, 0), None
#     Edge 28, Type (0, 0), None
#     Edge 29, Type (0, 0), None
#     Edge 30, Type (0, 0), None
#     Edge 31, Type (0, 0), None
#     Edge 32, Type (0, 0), None
#     Edge 33, Type (0, 0), None
#     Edge 34, Type (0, 0), None
#     Edge 35, Type (0, 0), None
# Relax obj value: 0.042
# Max RMSD: 0.178
# Mean RMSD: 0.178
data_MOF--net-umg--node1-KOZSID_clean_sbu_0--edge1-none
_symmetry_space_group_name_H-M    P1
_symmetry_Int_Tables_number       1
_symmetry_cell_setting            triclinic
loop_
_symmetry_equiv_pos_as_xyz
'x, y, z'
_cell_length_a     22.328132
_cell_length_b     22.321652
_cell_length_c     45.531428
_cell_angle_alpha  89.999857
_cell_angle_beta   90.00002
_cell_angle_gamma 119.97555
loop_
_atom_site_label
_atom_site_type_symbol
_atom_site_fract_x
_atom_site_fract_y
_atom_site_fract_z
_atom_type_partial_charge
C0 C 0.25081 0.5539 0.16061 0.0
C1 C 0.20937 0.50569 0.18154 0.0
C2 C 0.18586 0.44141 0.16945 0.0
C3 C 0.21361 0.45313 0.14171 0.0
N4 N 0.25458 0.52096 0.1357 0.0
Co5 Co 0.29745 0.55848 0.09651 0.0
N6 N 0.26051 0.46498 0.07746 0.0
C7 C 0.22285 0.40401 0.09121 0.0
C8 C 0.20563 0.34851 0.07305 0.0
C9 C 0.23178 0.37626 0.04585 0.0
C10 C 0.26133 0.44724 0.04852 0.0
N11 N 0.34124 0.5982 0.05782 0.0
C12 C 0.34467 0.56449 0.03376 0.0
C13 C 0.3974 0.60858 0.01502 0.0
C14 C 0.4251 0.67331 0.02676 0.0
C15 C 0.38882 0.66452 0.05222 0.0
N16 N 0.33689 0.65358 0.11467 0.0
C17 C 0.37992 0.71413 0.10117 0.0
C18 C 0.39877 0.77146 0.1181 0.0
C19 C 0.36493 0.74674 0.14398 0.0
C20 C 0.32652 0.6751 0.14136 0.0
N21 N 0.384 0.55323 0.10756 0.0
C22 C 0.49891 0.52712 0.11077 0.0
C23 C 0.50767 0.59184 0.10224 0.0
C24 C 0.45061 0.60371 0.10087 0.0
C25 C 0.4319 0.47809 0.11971 0.0
C26 C 0.37694 0.49259 0.11869 0.0
N27 N 0.207 0.55613 0.08593 0.0
C28 C 0.12079 0.59055 0.09675 0.0
C29 C 0.06604 0.52761 0.08612 0.0
C30 C 0.08431 0.48252 0.07332 0.0
C31 C 0.15355 0.49825 0.07267 0.0
C32 C 0.19001 0.60357 0.09656 0.0
H33 H 0.16064 0.461 0.06107 0.0
H34 H 0.2286 0.65219 0.1054 0.0
H35 H 0.46181 0.65406 0.09407 0.0
H36 H 0.32852 0.45282 0.12673 0.0
C37 C 0.20102 0.40223 0.12039 0.0
C38 C 0.27988 0.63019 0.16463 0.0
C39 C 0.28688 0.49816 0.02393 0.0
C40 C 0.40227 0.71601 0.07253 0.0
H41 H 0.19563 0.51606 0.20296 0.0
H42 H 0.15094 0.39202 0.17944 0.0
H43 H 0.17671 0.29421 0.07876 0.0
H44 H 0.23053 0.3474 0.02665 0.0
H45 H 0.41011 0.59613 0.99389 0.0
H46 H 0.46621 0.72104 0.01768 0.0
H47 H 0.43279 0.82506 0.11222 0.0
H48 H 0.36792 0.7783 0.16256 0.0
H49 H 0.55829 0.63308 0.09575 0.0
H50 H 0.42154 0.42821 0.12784 0.0
H51 H 0.1101 0.62906 0.10586 0.0
H52 H 0.04505 0.43504 0.06321 0.0
C53 C 0.71619 0.24126 0.49394 0.0
C54 C 0.72298 0.19982 0.51487 0.0
C55 C 0.76375 0.1763 0.50278 0.0
C56 C 0.77977 0.20405 0.47504 0.0
N57 N 0.75288 0.24502 0.46903 0.0
Co58 Co 0.75822 0.28789 0.42984 0.0
N59 N 0.81476 0.25091 0.41079 0.0
C60 C 0.83812 0.21328 0.42454 0.0
C61 C 0.87635 0.19601 0.40638 0.0
C62 C 0.87467 0.2221 0.37917 0.0
C63 C 0.83324 0.25166 0.38185 0.0
N64 N 0.76229 0.3317 0.39115 0.0
C65 C 0.7994 0.33509 0.36709 0.0
C66 C 0.80806 0.38786 0.34835 0.0
C67 C 0.77107 0.41561 0.36008 0.0
C68 C 0.74358 0.37933 0.38554 0.0
N69 N 0.7026 0.32738 0.44799 0.0
C70 C 0.68509 0.37045 0.43449 0.0
C71 C 0.6466 0.3893 0.45142 0.0
C72 C 0.63744 0.35541 0.47729 0.0
C73 C 0.67068 0.31698 0.47467 0.0
N74 N 0.84999 0.37446 0.44088 0.0
C75 C 0.99095 0.48937 0.44408 0.0
C76 C 0.93501 0.49816 0.43555 0.0
C77 C 0.86612 0.4411 0.43419 0.0
C78 C 0.97296 0.42233 0.45304 0.0
C79 C 0.90355 0.36739 0.45202 0.0
N80 N 0.67016 0.19742 0.41926 0.0
C81 C 0.54945 0.11138 0.42996 0.0
C82 C 0.5576 0.05649 0.41943 0.0
C83 C 0.62102 0.07462 0.40674 0.0
C84 C 0.67459 0.14384 0.40611 0.0
C85 C 0.60571 0.18058 0.42979 0.0
H86 H 0.71897 0.15077 0.39462 0.0
H87 H 0.59571 0.21928 0.43854 0.0
H88 H 0.827 0.45233 0.42738 0.0
H89 H 0.8949 0.31896 0.46008 0.0
C90 C 0.81808 0.19146 0.45373 0.0
C91 C 0.66896 0.27033 0.49794 0.0
C92 C 0.8079 0.27725 0.35725 0.0
C93 C 0.70557 0.39281 0.40586 0.0
H94 H 0.69887 0.18607 0.53628 0.0
H95 H 0.77824 0.14138 0.51278 0.0
H96 H 0.90172 0.16708 0.41209 0.0
H97 H 0.90223 0.2208 0.35997 0.0
H98 H 0.83321 0.40056 0.32721 0.0
H99 H 0.76448 0.45676 0.351 0.0
H100 H 0.62703 0.42334 0.44553 0.0
H101 H 0.60884 0.35838 0.49587 0.0
H102 H 0.9444 0.54879 0.42905 0.0
H103 H 1.01246 0.41196 0.46117 0.0
H104 H 0.50025 0.10083 0.43899 0.0
H105 H 0.62924 0.03527 0.39673 0.0
C106 C 0.49385 0.70641 0.82728 0.0
C107 C 0.54206 0.71311 0.84819 0.0
C108 C 0.6063 0.75379 0.83608 0.0
C109 C 0.59456 0.76986 0.80835 0.0
N110 N 0.52675 0.74309 0.80236 0.0
Co111 Co 0.48921 0.7485 0.76318 0.0
N112 N 0.58267 0.80497 0.74412 0.0
C113 C 0.64363 0.82819 0.75785 0.0
C114 C 0.6991 0.86646 0.73969 0.0
C115 C 0.67133 0.86494 0.71249 0.0
C116 C 0.60037 0.82356 0.71518 0.0
N117 N 0.44946 0.75262 0.7245 0.0
C118 C 0.48313 0.7897 0.70043 0.0
C119 C 0.43902 0.79836 0.6817 0.0
C120 C 0.37432 0.76139 0.69345 0.0
C121 C 0.38315 0.73393 0.71891 0.0
N122 N 0.39415 0.69295 0.78136 0.0
C123 C 0.3336 0.67549 0.76787 0.0
C124 C 0.27631 0.63709 0.78482 0.0
C125 C 0.30105 0.62794 0.81069 0.0
C126 C 0.37267 0.6611 0.80806 0.0
N127 N 0.4945 0.84033 0.77424 0.0
C128 C 0.52068 0.98138 0.77746 0.0
C129 C 0.45597 0.9255 0.76892 0.0
C130 C 0.44406 0.85656 0.76755 0.0
C131 C 0.56967 0.9633 0.78641 0.0
C132 C 0.55513 0.89383 0.78538 0.0
N133 N 0.49152 0.66038 0.75259 0.0
C134 C 0.45731 0.53984 0.7635 0.0
C135 C 0.52018 0.54801 0.75279 0.0
C136 C 0.5651 0.61127 0.73989 0.0
C137 C 0.54929 0.66474 0.73924 0.0
C138 C 0.44422 0.59602 0.7633 0.0
H139 H 0.58636 0.70898 0.72756 0.0
H140 H 0.39567 0.58604 0.7722 0.0
H141 H 0.39373 0.81747 0.76074 0.0
H142 H 0.59487 0.8851 0.79342 0.0
C143 C 0.64543 0.80812 0.78703 0.0
C144 C 0.41758 0.65927 0.8313 0.0
C145 C 0.54945 0.7982 0.69059 0.0
C146 C 0.3317 0.69595 0.73924 0.0
H147 H 0.5317 0.68899 0.86961 0.0
H148 H 0.65569 0.7682 0.84606 0.0
H149 H 0.75338 0.89177 0.74538 0.0
H150 H 0.70017 0.89254 0.6933 0.0
H151 H 0.45141 0.82348 0.66056 0.0
H152 H 0.3266 0.75481 0.68438 0.0
H153 H 0.22273 0.61756 0.77895 0.0
H154 H 0.26952 0.59939 0.82928 0.0
H155 H 0.41477 0.93496 0.76243 0.0
H156 H 0.61954 1.00276 0.79454 0.0
H157 H 0.41892 0.4907 0.77267 0.0
H158 H 0.6125 0.61942 0.72973 0.0
C159 C 0.80656 0.48439 0.16062 0.0
C160 C 0.848 0.53261 0.18154 0.0
C161 C 0.8715 0.59688 0.16945 0.0
C162 C 0.84374 0.58516 0.14171 0.0
N163 N 0.80278 0.51733 0.13571 0.0
Co164 Co 0.75992 0.47981 0.09652 0.0
N165 N 0.79684 0.57331 0.07747 0.0
C166 C 0.83447 0.63428 0.09121 0.0
C167 C 0.85169 0.68978 0.07305 0.0
C168 C 0.82556 0.66202 0.04585 0.0
C169 C 0.79603 0.59104 0.04853 0.0
N170 N 0.71613 0.44008 0.05783 0.0
C171 C 0.7127 0.47379 0.03376 0.0
C172 C 0.65997 0.42969 0.01502 0.0
C173 C 0.63228 0.36497 0.02676 0.0
C174 C 0.66855 0.37376 0.05222 0.0
N175 N 0.72048 0.38471 0.11467 0.0
C176 C 0.67745 0.32415 0.10117 0.0
C177 C 0.65861 0.26683 0.11811 0.0
C178 C 0.69246 0.29155 0.14398 0.0
C179 C 0.73087 0.3632 0.14136 0.0
N180 N 0.67335 0.48504 0.10756 0.0
C181 C 0.55844 0.51115 0.11077 0.0
C182 C 0.54969 0.44643 0.10223 0.0
C183 C 0.60674 0.43457 0.10087 0.0
C184 C 0.62545 0.56017 0.11972 0.0
C185 C 0.6804 0.54568 0.1187 0.0
N186 N 0.85037 0.48217 0.08593 0.0
C187 C 0.93655 0.44769 0.09672 0.0
C188 C 0.99131 0.51065 0.08612 0.0
C189 C 0.97307 0.55579 0.07334 0.0
C190 C 0.90384 0.54008 0.0727 0.0
C191 C 0.86733 0.43469 0.09654 0.0
H192 H 0.89678 0.57738 0.06113 0.0
H193 H 0.82872 0.38605 0.10536 0.0
H194 H 0.59555 0.38423 0.09405 0.0
H195 H 0.72882 0.58544 0.12675 0.0
C196 C 0.85631 0.63606 0.1204 0.0
C197 C 0.77751 0.40811 0.16463 0.0
C198 C 0.77049 0.54012 0.02393 0.0
C199 C 0.6551 0.32228 0.07254 0.0
H200 H 0.86175 0.52224 0.20296 0.0
H201 H 0.9064 0.64628 0.17944 0.0
H202 H 0.8806 0.74407 0.07876 0.0
H203 H 0.82681 0.69088 0.02665 0.0
H204 H 0.64726 0.44213 0.99388 0.0
H205 H 0.59117 0.31724 0.01768 0.0
H206 H 0.62459 0.21323 0.11222 0.0
H207 H 0.68948 0.25999 0.16257 0.0
H208 H 0.49907 0.40521 0.09573 0.0
H209 H 0.6358 0.61004 0.12786 0.0
H210 H 0.94722 0.40915 0.10581 0.0
H211 H 1.01234 0.6033 0.06327 0.0
C212 C 0.34117 0.79702 0.49394 0.0
C213 C 0.33437 0.83846 0.51486 0.0
C214 C 0.29359 0.86197 0.50278 0.0
C215 C 0.27757 0.83421 0.47504 0.0
N216 N 0.30447 0.79325 0.46903 0.0
Co217 Co 0.29913 0.75038 0.42984 0.0
N218 N 0.24259 0.78735 0.41079 0.0
C219 C 0.21921 0.82496 0.42454 0.0
C220 C 0.18098 0.84224 0.40638 0.0
C221 C 0.18268 0.81617 0.37917 0.0
C222 C 0.22413 0.78662 0.38185 0.0
N223 N 0.29508 0.70658 0.39115 0.0
C224 C 0.25798 0.70319 0.36709 0.0
C225 C 0.24932 0.65043 0.34835 0.0
C226 C 0.28631 0.62268 0.36008 0.0
C227 C 0.31379 0.65895 0.38554 0.0
N228 N 0.35477 0.7109 0.44799 0.0
C229 C 0.37227 0.66783 0.43449 0.0
C230 C 0.41077 0.64899 0.45142 0.0
C231 C 0.41994 0.68289 0.47729 0.0
C232 C 0.38669 0.72132 0.47467 0.0
N233 N 0.20737 0.6638 0.44088 0.0
C234 C 0.06641 0.54889 0.44408 0.0
C235 C 0.12235 0.54011 0.43554 0.0
C236 C 0.19124 0.59717 0.43418 0.0
C237 C 0.0844 0.61592 0.45305 0.0
C238 C 0.15381 0.67087 0.45203 0.0
N239 N 0.38719 0.84086 0.41926 0.0
C240 C 0.50793 0.92687 0.42993 0.0
C241 C 0.49978 0.98177 0.41943 0.0
C242 C 0.43634 0.96367 0.40677 0.0
C243 C 0.38275 0.89446 0.40613 0.0
C244 C 0.45166 0.85767 0.42976 0.0
H245 H 0.33835 0.88756 0.39467 0.0
H246 H 0.46166 0.81896 0.4385 0.0
H247 H 0.23036 0.58594 0.42736 0.0
H248 H 0.16246 0.7193 0.46009 0.0
C249 C 0.23924 0.84679 0.45373 0.0
C250 C 0.38841 0.76796 0.49794 0.0
C251 C 0.24947 0.76103 0.35725 0.0
C252 C 0.3518 0.64547 0.40586 0.0
H253 H 0.35848 0.85221 0.53628 0.0
H254 H 0.27909 0.89688 0.51278 0.0
H255 H 0.1556 0.87116 0.41209 0.0
H256 H 0.15512 0.81747 0.35997 0.0
H257 H 0.22418 0.63774 0.32721 0.0
H258 H 0.29291 0.58153 0.351 0.0
H259 H 0.43034 0.61495 0.44553 0.0
H260 H 0.44854 0.67994 0.49587 0.0
H261 H 0.11296 0.48948 0.42904 0.0
H262 H 0.0449 0.6263 0.46118 0.0
H263 H 0.55714 0.93741 0.43894 0.0
H264 H 0.4281 1.00304 0.39678 0.0
C265 C 0.56353 0.33186 0.82727 0.0
C266 C 0.51531 0.32516 0.84819 0.0
C267 C 0.45107 0.28447 0.83608 0.0
C268 C 0.46281 0.2684 0.80835 0.0
N269 N 0.53062 0.29518 0.80236 0.0
Co270 Co 0.56817 0.28977 0.76318 0.0
N271 N 0.47471 0.2333 0.74412 0.0
C272 C 0.41375 0.21006 0.75785 0.0
C273 C 0.35827 0.1718 0.73969 0.0
C274 C 0.38604 0.17334 0.71249 0.0
C275 C 0.457 0.21472 0.71518 0.0
N276 N 0.60791 0.28566 0.7245 0.0
C277 C 0.57425 0.24858 0.70043 0.0
C278 C 0.61836 0.23993 0.68169 0.0
C279 C 0.68305 0.27689 0.69344 0.0
C280 C 0.67423 0.30435 0.71891 0.0
N281 N 0.66322 0.34532 0.78136 0.0
C282 C 0.72377 0.36278 0.76787 0.0
C283 C 0.78106 0.4012 0.78482 0.0
C284 C 0.75632 0.41035 0.81069 0.0
C285 C 0.6847 0.37718 0.80806 0.0
N286 N 0.56288 0.19794 0.77424 0.0
C287 C 0.5367 0.05689 0.77746 0.0
C288 C 0.60141 0.11277 0.76891 0.0
C289 C 0.61331 0.18171 0.76755 0.0
C290 C 0.48772 0.07497 0.78641 0.0
C291 C 0.50225 0.14444 0.78539 0.0
N292 N 0.56585 0.37789 0.75259 0.0
C293 C 0.6001 0.49845 0.76348 0.0
C294 C 0.53722 0.49028 0.75279 0.0
C295 C 0.49226 0.42701 0.73991 0.0
C296 C 0.50806 0.37352 0.73926 0.0
C297 C 0.61318 0.44226 0.76328 0.0
H298 H 0.47095 0.32927 0.7276 0.0
H299 H 0.66174 0.45224 0.77217 0.0
H300 H 0.66365 0.2208 0.76073 0.0
H301 H 0.46252 0.15317 0.79343 0.0
C302 C 0.41194 0.23014 0.78703 0.0
C303 C 0.63979 0.37901 0.8313 0.0
C304 C 0.50793 0.24009 0.69059 0.0
C305 C 0.72567 0.34232 0.73924 0.0
H306 H 0.52566 0.34928 0.8696 0.0
H307 H 0.40168 0.27006 0.84606 0.0
H308 H 0.30399 0.14649 0.74538 0.0
H309 H 0.35721 0.14574 0.6933 0.0
H310 H 0.60596 0.21481 0.66055 0.0
H311 H 0.73078 0.28347 0.68437 0.0
H312 H 0.83465 0.42072 0.77895 0.0
H313 H 0.78785 0.43891 0.82928 0.0
H314 H 0.6426 0.10331 0.76242 0.0
H315 H 0.43785 0.03551 0.79455 0.0
H316 H 0.63851 0.54759 0.77264 0.0
H317 H 0.44485 0.41884 0.72976 0.0
C318 C 0.49388 0.79703 0.52904 0.0
C319 C 0.5421 0.83853 0.50813 0.0
C320 C 0.60633 0.86207 0.52024 0.0
C321 C 0.59459 0.83427 0.54797 0.0
N322 N 0.52677 0.79326 0.55396 0.0
Co323 Co 0.48921 0.75032 0.59313 0.0
N324 N 0.58267 0.78727 0.6122 0.0
C325 C 0.64364 0.82496 0.59847 0.0
C326 C 0.6991 0.84215 0.61664 0.0
C327 C 0.67132 0.81594 0.64384 0.0
C328 C 0.60036 0.78639 0.64114 0.0
N329 N 0.44944 0.70649 0.63182 0.0
C330 C 0.48309 0.70311 0.6559 0.0
C331 C 0.43897 0.65038 0.67464 0.0
C332 C 0.37429 0.62266 0.66288 0.0
C333 C 0.38312 0.65891 0.63741 0.0
N334 N 0.39415 0.71086 0.57495 0.0
C335 C 0.3336 0.66781 0.58844 0.0
C336 C 0.27631 0.64893 0.57149 0.0
C337 C 0.30106 0.68279 0.54561 0.0
C338 C 0.37268 0.72123 0.54825 0.0
N339 N 0.49449 0.66378 0.58209 0.0
C340 C 0.52068 0.54891 0.57887 0.0
C341 C 0.45597 0.5401 0.58742 0.0
C342 C 0.44407 0.59714 0.58879 0.0
C343 C 0.56965 0.61594 0.56991 0.0
C344 C 0.55512 0.67088 0.57093 0.0
N345 N 0.49154 0.84077 0.60372 0.0
C346 C 0.45731 0.9271 0.59282 0.0
C347 C 0.52019 0.98179 0.60351 0.0
C348 C 0.56513 0.96343 0.6164 0.0
C349 C 0.54932 0.89416 0.61706 0.0
C350 C 0.44422 0.85783 0.59302 0.0
H351 H 0.58642 0.88699 0.62872 0.0
H352 H 0.39566 0.81928 0.58413 0.0
H353 H 0.39374 0.58592 0.59561 0.0
H354 H 0.59484 0.71932 0.56288 0.0
C355 C 0.64545 0.84685 0.5693 0.0
C356 C 0.41761 0.7679 0.525 0.0
C357 C 0.54941 0.76092 0.66572 0.0
C358 C 0.33169 0.64545 0.61707 0.0
H359 H 0.53175 0.85228 0.4867 0.0
H360 H 0.65572 0.89702 0.51026 0.0
H361 H 0.75339 0.87109 0.61095 0.0
H362 H 0.70015 0.81718 0.66304 0.0
H363 H 0.45136 0.63768 0.69579 0.0
H364 H 0.32656 0.58154 0.67196 0.0
H365 H 0.22273 0.61489 0.57736 0.0
H366 H 0.26953 0.6798 0.52702 0.0
H367 H 0.41479 0.48946 0.59392 0.0
H368 H 0.61952 0.62633 0.56177 0.0
H369 H 0.4189 0.93785 0.58366 0.0
H370 H 0.61254 1.00266 0.62656 0.0
C371 C 0.71616 0.48452 0.86238 0.0
C372 C 0.72293 0.53276 0.84146 0.0
C373 C 0.76365 0.59702 0.85356 0.0
C374 C 0.77967 0.58526 0.8813 0.0
N375 N 0.75284 0.51743 0.8873 0.0
Co376 Co 0.75818 0.47986 0.92648 0.0
N377 N 0.8147 0.57334 0.94554 0.0
C378 C 0.83804 0.63433 0.9318 0.0
C379 C 0.87626 0.68981 0.94997 0.0
C380 C 0.87458 0.66202 0.97717 0.0
C381 C 0.83317 0.59105 0.97448 0.0
N382 N 0.76223 0.44008 0.96517 0.0
C383 C 0.79925 0.47375 0.98924 0.0
C384 C 0.80789 0.42963 1.00799 0.0
C385 C 0.77096 0.36492 0.99624 0.0
C386 C 0.74354 0.37375 0.97076 0.0
N387 N 0.70259 0.38477 0.90831 0.0
C388 C 0.68511 0.3242 0.9218 0.0
C389 C 0.64666 0.26689 0.90486 0.0
C390 C 0.6375 0.29164 0.87899 0.0
C391 C 0.67071 0.36329 0.88162 0.0
N392 N 0.84996 0.48506 0.91543 0.0
C393 C 0.99094 0.51117 0.91223 0.0
C394 C 0.93506 0.44646 0.92078 0.0
C395 C 0.86615 0.4346 0.92214 0.0
C396 C 0.9729 0.56017 0.90325 0.0
C397 C 0.90347 0.54567 0.90427 0.0
N398 N 0.67012 0.48226 0.93706 0.0
C399 C 0.54944 0.44769 0.92633 0.0
C400 C 0.55759 0.5107 0.93688 0.0
C401 C 0.62097 0.55592 0.9496 0.0
C402 C 0.67453 0.54024 0.95024 0.0
C403 C 0.60569 0.43471 0.92651 0.0
H404 H 0.71888 0.57762 0.96176 0.0
H405 H 0.5957 0.38603 0.91773 0.0
H406 H 0.82706 0.38426 0.92897 0.0
H407 H 0.89477 0.58542 0.8962 0.0
C408 C 0.81799 0.63615 0.90261 0.0
C409 C 0.66902 0.40824 0.85836 0.0
C410 C 0.80772 0.54009 0.99906 0.0
C411 C 0.70557 0.32229 0.95043 0.0
H412 H 0.69884 0.52241 0.82004 0.0
H413 H 0.77812 0.64642 0.84357 0.0
H414 H 0.90161 0.74411 0.94427 0.0
H415 H 0.90211 0.69086 0.99638 0.0
H416 H 0.83298 0.44205 0.02914 0.0
H417 H 0.76436 0.31718 1.00531 0.0
H418 H 0.62711 0.21328 0.91074 0.0
H419 H 0.60894 0.2601 0.86041 0.0
H420 H 0.94449 0.40525 0.92729 0.0
H421 H 1.01237 0.61003 0.89511 0.0
H422 H 0.50026 0.40909 0.91727 0.0
H423 H 0.62918 0.60347 0.95964 0.0
C424 C 0.25081 0.70667 0.1957 0.0
C425 C 0.2094 0.7135 0.17477 0.0
C426 C 0.1859 0.75428 0.18686 0.0
C427 C 0.21365 0.77029 0.21461 0.0
N428 N 0.25458 0.74337 0.22061 0.0
Co429 Co 0.29742 0.74866 0.25981 0.0
N430 N 0.2605 0.80526 0.27886 0.0
C431 C 0.22293 0.82868 0.2651 0.0
C432 C 0.20567 0.86693 0.28327 0.0
C433 C 0.23172 0.8652 0.31048 0.0
C434 C 0.26124 0.82372 0.3078 0.0
N435 N 0.34119 0.75267 0.2985 0.0
C436 C 0.34455 0.78973 0.32257 0.0
C437 C 0.39727 0.79834 0.34132 0.0
C438 C 0.42501 0.76135 0.32958 0.0
C439 C 0.38878 0.73392 0.30411 0.0
N440 N 0.33686 0.69298 0.24165 0.0
C441 C 0.37989 0.67544 0.25515 0.0
C442 C 0.39872 0.63693 0.23822 0.0
C443 C 0.36486 0.62781 0.21234 0.0
C444 C 0.32646 0.66107 0.21496 0.0
N445 N 0.384 0.84043 0.24877 0.0
C446 C 0.49892 0.98141 0.24558 0.0
C447 C 0.50767 0.92544 0.25412 0.0
C448 C 0.45061 0.85654 0.25548 0.0
C449 C 0.43192 0.96344 0.23661 0.0
C450 C 0.37696 0.89402 0.23762 0.0
N451 N 0.20694 0.66061 0.27038 0.0
C452 C 0.12089 0.53987 0.25968 0.0
C453 C 0.06604 0.54806 0.2702 0.0
C454 C 0.08418 0.61151 0.28288 0.0
C455 C 0.15339 0.66508 0.28352 0.0
C456 C 0.19009 0.59612 0.25986 0.0
H457 H 0.16033 0.70949 0.295 0.0
H458 H 0.22876 0.5861 0.2511 0.0
H459 H 0.46181 0.8174 0.2623 0.0
H460 H 0.32857 0.88539 0.22955 0.0
C461 C 0.20109 0.80864 0.23592 0.0
C462 C 0.27989 0.65945 0.19169 0.0
C463 C 0.28673 0.79826 0.33238 0.0
C464 C 0.40225 0.6959 0.28378 0.0
H465 H 0.19566 0.6894 0.15335 0.0
H466 H 0.15102 0.76881 0.17687 0.0
H467 H 0.17677 0.89233 0.27757 0.0
H468 H 0.23041 0.89275 0.32969 0.0
H469 H 0.40994 0.82346 0.36247 0.0
H470 H 0.46612 0.75472 0.33866 0.0
H471 H 0.43274 0.61734 0.2441 0.0
H472 H 0.36784 0.59923 0.19376 0.0
H473 H 0.55828 0.93481 0.26062 0.0
H474 H 0.42157 1.00297 0.22847 0.0
H475 H 0.11032 0.49064 0.25066 0.0
H476 H 0.04485 0.61977 0.29289 0.0
C477 C 0.56349 0.24127 0.52904 0.0
C478 C 0.51527 0.19978 0.50813 0.0
C479 C 0.45103 0.17625 0.52024 0.0
C480 C 0.46278 0.20405 0.54797 0.0
N481 N 0.5306 0.24506 0.55396 0.0
Co482 Co 0.56816 0.28799 0.59313 0.0
N483 N 0.4747 0.25106 0.6122 0.0
C484 C 0.41374 0.21338 0.59847 0.0
C485 C 0.35827 0.19619 0.61664 0.0
C486 C 0.38605 0.22237 0.64384 0.0
C487 C 0.45701 0.25191 0.64114 0.0
N488 N 0.60794 0.33182 0.63182 0.0
C489 C 0.57429 0.33518 0.6559 0.0
C490 C 0.6184 0.38791 0.67465 0.0
C491 C 0.68309 0.41564 0.66289 0.0
C492 C 0.67425 0.3794 0.63741 0.0
N493 N 0.66322 0.32744 0.57496 0.0
C494 C 0.72377 0.3705 0.58844 0.0
C495 C 0.78106 0.38936 0.57149 0.0
C496 C 0.75631 0.3555 0.54562 0.0
C497 C 0.68469 0.31707 0.54826 0.0
N498 N 0.5629 0.37454 0.58209 0.0
C499 C 0.53671 0.48941 0.57887 0.0
C500 C 0.60141 0.49821 0.58743 0.0
C501 C 0.61331 0.44117 0.58879 0.0
C502 C 0.48774 0.42238 0.5699 0.0
C503 C 0.50228 0.36745 0.57093 0.0
N504 N 0.56583 0.19754 0.60372 0.0
C505 C 0.60012 0.11124 0.59285 0.0
C506 C 0.53722 0.05653 0.60352 0.0
C507 C 0.49223 0.07486 0.61637 0.0
C508 C 0.50801 0.14413 0.61703 0.0
C509 C 0.61319 0.1805 0.59304 0.0
H510 H 0.47087 0.15127 0.62867 0.0
H511 H 0.66176 0.21907 0.58417 0.0
H512 H 0.66364 0.4524 0.59562 0.0
H513 H 0.46256 0.31901 0.56287 0.0
C514 C 0.41192 0.19149 0.56929 0.0
C515 C 0.63976 0.2704 0.52501 0.0
C516 C 0.50796 0.27738 0.66572 0.0
C517 C 0.72569 0.39286 0.61707 0.0
H518 H 0.52562 0.18602 0.48671 0.0
H519 H 0.40164 0.14131 0.51026 0.0
H520 H 0.30399 0.16725 0.61095 0.0
H521 H 0.35723 0.22112 0.66304 0.0
H522 H 0.60601 0.4006 0.6958 0.0
H523 H 0.73082 0.45675 0.67196 0.0
H524 H 0.83465 0.42341 0.57736 0.0
H525 H 0.78784 0.35848 0.52702 0.0
H526 H 0.64259 0.54885 0.59393 0.0
H527 H 0.43788 0.412 0.56176 0.0
H528 H 0.63855 0.1005 0.5837 0.0
H529 H 0.44479 0.03562 0.62651 0.0
C530 C 0.34119 0.55376 0.86238 0.0
C531 C 0.33441 0.50552 0.84146 0.0
C532 C 0.29367 0.44126 0.85356 0.0
C533 C 0.27765 0.45302 0.8813 0.0
N534 N 0.3045 0.52086 0.88729 0.0
Co535 Co 0.29916 0.55843 0.92648 0.0
N536 N 0.24263 0.46495 0.94554 0.0
C537 C 0.21925 0.40396 0.93179 0.0
C538 C 0.18104 0.34849 0.94996 0.0
C539 C 0.18276 0.37627 0.97717 0.0
C540 C 0.22419 0.44725 0.97448 0.0
N541 N 0.29513 0.59822 0.96516 0.0
C542 C 0.25813 0.56455 0.98925 0.0
C543 C 0.2495 0.60867 1.00799 0.0
C544 C 0.28643 0.67338 0.99624 0.0
C545 C 0.31384 0.66455 0.97076 0.0
N546 N 0.35477 0.65352 0.90831 0.0
C547 C 0.37225 0.71409 0.9218 0.0
C548 C 0.41072 0.7714 0.90486 0.0
C549 C 0.41989 0.74665 0.879 0.0
C550 C 0.38667 0.675 0.88162 0.0
N551 N 0.2074 0.55325 0.91543 0.0
C552 C 0.06642 0.52715 0.91223 0.0
C553 C 0.1223 0.59184 0.92079 0.0
C554 C 0.19121 0.60371 0.92215 0.0
C555 C 0.08446 0.47816 0.90324 0.0
C556 C 0.15389 0.49265 0.90425 0.0
N557 N 0.38722 0.55601 0.93706 0.0
C558 C 0.50794 0.59067 0.92637 0.0
C559 C 0.49978 0.52763 0.93688 0.0
C560 C 0.43637 0.48234 0.94956 0.0
C561 C 0.38279 0.49799 0.9502 0.0
C562 C 0.45168 0.60363 0.92655 0.0
H563 H 0.33841 0.46053 0.96168 0.0
H564 H 0.46167 0.65233 0.9178 0.0
H565 H 0.23029 0.65403 0.92899 0.0
H566 H 0.16259 0.45292 0.89617 0.0
C567 C 0.23931 0.40214 0.90261 0.0
C568 C 0.38836 0.63004 0.85836 0.0
C569 C 0.24965 0.49821 0.99906 0.0
C570 C 0.3518 0.71601 0.95043 0.0
H571 H 0.35851 0.51586 0.82004 0.0
H572 H 0.27919 0.39185 0.84357 0.0
H573 H 0.15568 0.29419 0.94427 0.0
H574 H 0.15523 0.34744 0.99638 0.0
H575 H 0.22442 0.59627 0.02914 0.0
H576 H 0.29303 0.72113 1.00532 0.0
H577 H 0.43028 0.82501 0.91074 0.0
H578 H 0.44846 0.77818 0.86041 0.0
H579 H 0.11286 0.63305 0.92731 0.0
H580 H 0.04499 0.42831 0.89508 0.0
H581 H 0.55715 0.62931 0.91735 0.0
H582 H 0.42815 0.43475 0.95956 0.0
C583 C 0.80657 0.33162 0.1957 0.0
C584 C 0.84798 0.32479 0.17477 0.0
C585 C 0.87146 0.28399 0.18686 0.0
C586 C 0.84371 0.26798 0.21461 0.0
N587 N 0.80279 0.29491 0.22061 0.0
Co588 Co 0.75994 0.28962 0.2598 0.0
N589 N 0.79685 0.23301 0.27885 0.0
C590 C 0.83441 0.20958 0.2651 0.0
C591 C 0.85167 0.17133 0.28327 0.0
C592 C 0.82564 0.17308 0.31048 0.0
C593 C 0.79613 0.21456 0.3078 0.0
N594 N 0.71618 0.28563 0.2985 0.0
C595 C 0.71282 0.24857 0.32257 0.0
C596 C 0.66011 0.23996 0.34132 0.0
C597 C 0.63237 0.27695 0.32958 0.0
C598 C 0.6686 0.30438 0.3041 0.0
N599 N 0.72052 0.34531 0.24165 0.0
C600 C 0.67748 0.36285 0.25515 0.0
C601 C 0.65866 0.40136 0.23822 0.0
C602 C 0.69253 0.4105 0.21234 0.0
C603 C 0.73093 0.37723 0.21496 0.0
N604 N 0.67336 0.19786 0.24877 0.0
C605 C 0.55844 0.05688 0.24558 0.0
C606 C 0.5497 0.11285 0.25413 0.0
C607 C 0.60675 0.18174 0.25548 0.0
C608 C 0.62544 0.07484 0.2366 0.0
C609 C 0.68039 0.14427 0.23761 0.0
N610 N 0.85043 0.37767 0.27037 0.0
C611 C 0.93645 0.49843 0.25971 0.0
C612 C 0.99132 0.49024 0.27021 0.0
C613 C 0.9732 0.42678 0.28286 0.0
C614 C 0.904 0.3732 0.2835 0.0
C615 C 0.86726 0.44217 0.25988 0.0
H616 H 0.89708 0.32877 0.29495 0.0
H617 H 0.82857 0.4522 0.25114 0.0
H618 H 0.59556 0.22089 0.26231 0.0
H619 H 0.72878 0.1529 0.22954 0.0
C620 C 0.85625 0.22962 0.23592 0.0
C621 C 0.7775 0.37885 0.19169 0.0
C622 C 0.77065 0.24004 0.33238 0.0
C623 C 0.65513 0.3424 0.28378 0.0
H624 H 0.86172 0.34889 0.15335 0.0
H625 H 0.90634 0.26946 0.17687 0.0
H626 H 0.88056 0.14592 0.27757 0.0
H627 H 0.82694 0.14553 0.32969 0.0
H628 H 0.64744 0.21485 0.36247 0.0
H629 H 0.59126 0.28359 0.33866 0.0
H630 H 0.62464 0.42096 0.2441 0.0
H631 H 0.68955 0.43908 0.19376 0.0
H632 H 0.49909 0.10348 0.26063 0.0
H633 H 0.63578 0.03532 0.22846 0.0
H634 H 0.94701 0.54767 0.2507 0.0
H635 H 1.01255 0.41851 0.29285 0.0
loop_
_geom_bond_atom_site_label_1
_geom_bond_atom_site_label_2
_geom_bond_distance
_geom_bond_site_symmetry_2
_ccdc_geom_bond_type
C0 C1 1.443 . S
C0 N4 1.376 . S
C0 C38 1.389 . S
C1 C0 1.443 . S
C1 C2 1.340 . S
C1 H41 0.951 . S
C2 C1 1.340 . S
C2 C3 1.439 . S
C2 H42 0.950 . S
C3 C2 1.439 . S
C3 N4 1.374 . S
C3 C37 1.395 . S
N4 C0 1.376 . S
N4 C3 1.374 . S
N4 Co5 2.008 . S
Co5 N4 2.008 . S
Co5 N6 1.995 . S
Co5 N11 2.008 . S
Co5 N16 1.995 . S
Co5 N21 2.282 . S
Co5 N27 2.282 . S
N6 Co5 1.995 . S
N6 C7 1.376 . S
N6 C10 1.383 . S
C7 N6 1.376 . S
C7 C8 1.446 . S
C7 C37 1.391 . S
C8 C7 1.446 . S
C8 C9 1.339 . S
C8 H43 0.949 . S
C9 C8 1.339 . S
C9 C10 1.439 . S
C9 H44 0.950 . S
C10 N6 1.383 . S
C10 C9 1.439 . S
C10 C39 1.392 . S
N11 Co5 2.008 . S
N11 C12 1.376 . S
N11 C15 1.374 . S
C12 N11 1.376 . S
C12 C13 1.443 . S
C12 C39 1.389 . S
C13 C12 1.443 . S
C13 C14 1.340 . S
C13 H45 0.951 1_554 S
C14 C13 1.340 . S
C14 C15 1.439 . S
C14 H46 0.950 . S
C15 N11 1.374 . S
C15 C14 1.439 . S
C15 C40 1.395 . S
N16 Co5 1.995 . S
N16 C17 1.376 . S
N16 C20 1.383 . S
C17 N16 1.376 . S
C17 C18 1.446 . S
C17 C40 1.391 . S
C18 C17 1.446 . S
C18 C19 1.339 . S
C18 H47 0.949 . S
C19 C18 1.339 . S
C19 C20 1.439 . S
C19 H48 0.950 . S
C20 N16 1.383 . S
C20 C19 1.439 . S
C20 C38 1.392 . S
N21 Co5 2.282 . S
N21 C24 1.332 . S
N21 C26 1.332 . S
C22 C23 1.386 . S
C22 C25 1.388 . S
C23 C22 1.386 . S
C23 C24 1.382 . S
C23 H49 0.950 . S
C24 N21 1.332 . S
C24 C23 1.382 . S
C24 H35 0.952 . S
C25 C22 1.388 . S
C25 C26 1.382 . S
C25 H50 0.950 . S
C26 N21 1.332 . S
C26 C25 1.382 . S
C26 H36 0.948 . S
N27 Co5 2.282 . S
N27 C31 1.332 . S
N27 C32 1.332 . S
C28 C29 1.388 . S
C28 C32 1.382 . S
C28 H51 0.950 . S
C29 C28 1.388 . S
C29 C30 1.386 . S
C30 C29 1.386 . S
C30 C31 1.382 . S
C30 H52 0.950 1_455 S
C31 N27 1.332 . S
C31 C30 1.382 . S
C31 H33 0.952 . S
C32 N27 1.332 . S
C32 C28 1.382 . S
C32 H34 0.948 . S
H33 C31 0.952 . S
H34 C32 0.948 . S
H35 C24 0.952 . S
H36 C26 0.948 . S
C37 C3 1.395 . S
C37 C7 1.391 . S
C38 C0 1.389 . S
C38 C20 1.392 . S
C39 C10 1.392 . S
C39 C12 1.389 . S
C40 C15 1.395 . S
C40 C17 1.391 . S
H41 C1 0.951 . S
H42 C2 0.950 . S
H43 C8 0.949 . S
H44 C9 0.950 . S
H45 C13 0.951 1_556 S
H46 C14 0.950 . S
H47 C18 0.949 . S
H48 C19 0.950 . S
H49 C23 0.950 . S
H50 C25 0.950 . S
H51 C28 0.950 . S
H52 C30 0.950 1_655 S
C53 C54 1.443 . S
C53 N57 1.376 . S
C53 C91 1.389 . S
C54 C53 1.443 . S
C54 C55 1.340 . S
C54 H94 0.951 . S
C55 C54 1.340 . S
C55 C56 1.439 . S
C55 H95 0.950 . S
C56 C55 1.439 . S
C56 N57 1.374 . S
C56 C90 1.395 . S
N57 C53 1.376 . S
N57 C56 1.374 . S
N57 Co58 2.008 . S
Co58 N57 2.008 . S
Co58 N59 1.995 . S
Co58 N64 2.008 . S
Co58 N69 1.995 . S
Co58 N74 2.282 . S
Co58 N80 2.282 . S
N59 Co58 1.995 . S
N59 C60 1.376 . S
N59 C63 1.383 . S
C60 N59 1.376 . S
C60 C61 1.446 . S
C60 C90 1.391 . S
C61 C60 1.446 . S
C61 C62 1.339 . S
C61 H96 0.949 . S
C62 C61 1.339 . S
C62 C63 1.439 . S
C62 H97 0.950 . S
C63 N59 1.383 . S
C63 C62 1.439 . S
C63 C92 1.392 . S
N64 Co58 2.008 . S
N64 C65 1.376 . S
N64 C68 1.374 . S
C65 N64 1.376 . S
C65 C66 1.443 . S
C65 C92 1.389 . S
C66 C65 1.443 . S
C66 C67 1.340 . S
C66 H98 0.951 . S
C67 C66 1.340 . S
C67 C68 1.439 . S
C67 H99 0.950 . S
C68 N64 1.374 . S
C68 C67 1.439 . S
C68 C93 1.395 . S
N69 Co58 1.995 . S
N69 C70 1.376 . S
N69 C73 1.383 . S
C70 N69 1.376 . S
C70 C71 1.446 . S
C70 C93 1.391 . S
C71 C70 1.446 . S
C71 C72 1.339 . S
C71 H100 0.949 . S
C72 C71 1.339 . S
C72 C73 1.439 . S
C72 H101 0.950 . S
C73 N69 1.383 . S
C73 C72 1.439 . S
C73 C91 1.392 . S
N74 Co58 2.282 . S
N74 C77 1.332 . S
N74 C79 1.332 . S
C75 C76 1.386 . S
C75 C78 1.388 . S
C76 C75 1.386 . S
C76 C77 1.382 . S
C76 H102 0.950 . S
C77 N74 1.332 . S
C77 C76 1.382 . S
C77 H88 0.952 . S
C78 C75 1.388 . S
C78 C79 1.382 . S
C78 H103 0.950 . S
C79 N74 1.332 . S
C79 C78 1.382 . S
C79 H89 0.948 . S
N80 Co58 2.282 . S
N80 C84 1.332 . S
N80 C85 1.332 . S
C81 C82 1.388 . S
C81 C85 1.382 . S
C81 H104 0.950 . S
C82 C81 1.388 . S
C82 C83 1.386 . S
C83 C82 1.386 . S
C83 C84 1.382 . S
C83 H105 0.950 1_545 S
C84 N80 1.332 . S
C84 C83 1.382 . S
C84 H86 0.952 . S
C85 N80 1.332 . S
C85 C81 1.382 . S
C85 H87 0.948 . S
H86 C84 0.952 . S
H87 C85 0.948 . S
H88 C77 0.952 . S
H89 C79 0.948 . S
C90 C56 1.395 . S
C90 C60 1.391 . S
C91 C53 1.389 . S
C91 C73 1.392 . S
C92 C63 1.392 . S
C92 C65 1.389 . S
C93 C68 1.395 . S
C93 C70 1.391 . S
H94 C54 0.951 . S
H95 C55 0.950 . S
H96 C61 0.949 . S
H97 C62 0.950 . S
H98 C66 0.951 . S
H99 C67 0.950 . S
H100 C71 0.949 . S
H101 C72 0.950 . S
H102 C76 0.950 . S
H103 C78 0.950 . S
H104 C81 0.950 . S
H105 C83 0.950 1_565 S
C106 C107 1.443 . S
C106 N110 1.376 . S
C106 C144 1.389 . S
C107 C106 1.443 . S
C107 C108 1.340 . S
C107 H147 0.951 . S
C108 C107 1.340 . S
C108 C109 1.439 . S
C108 H148 0.950 . S
C109 C108 1.439 . S
C109 N110 1.374 . S
C109 C143 1.395 . S
N110 C106 1.376 . S
N110 C109 1.374 . S
N110 Co111 2.008 . S
Co111 N110 2.008 . S
Co111 N112 1.995 . S
Co111 N117 2.008 . S
Co111 N122 1.995 . S
Co111 N127 2.282 . S
Co111 N133 2.282 . S
N112 Co111 1.995 . S
N112 C113 1.376 . S
N112 C116 1.383 . S
C113 N112 1.376 . S
C113 C114 1.446 . S
C113 C143 1.391 . S
C114 C113 1.446 . S
C114 C115 1.339 . S
C114 H149 0.949 . S
C115 C114 1.339 . S
C115 C116 1.439 . S
C115 H150 0.950 . S
C116 N112 1.383 . S
C116 C115 1.439 . S
C116 C145 1.392 . S
N117 Co111 2.008 . S
N117 C118 1.376 . S
N117 C121 1.374 . S
C118 N117 1.376 . S
C118 C119 1.443 . S
C118 C145 1.389 . S
C119 C118 1.443 . S
C119 C120 1.340 . S
C119 H151 0.951 . S
C120 C119 1.340 . S
C120 C121 1.439 . S
C120 H152 0.950 . S
C121 N117 1.374 . S
C121 C120 1.439 . S
C121 C146 1.395 . S
N122 Co111 1.995 . S
N122 C123 1.376 . S
N122 C126 1.383 . S
C123 N122 1.376 . S
C123 C124 1.446 . S
C123 C146 1.391 . S
C124 C123 1.446 . S
C124 C125 1.339 . S
C124 H153 0.949 . S
C125 C124 1.339 . S
C125 C126 1.439 . S
C125 H154 0.950 . S
C126 N122 1.383 . S
C126 C125 1.439 . S
C126 C144 1.392 . S
N127 Co111 2.282 . S
N127 C130 1.332 . S
N127 C132 1.332 . S
C128 C129 1.386 . S
C128 C131 1.388 . S
C129 C128 1.386 . S
C129 C130 1.382 . S
C129 H155 0.950 . S
C130 N127 1.332 . S
C130 C129 1.382 . S
C130 H141 0.952 . S
C131 C128 1.388 . S
C131 C132 1.382 . S
C131 H156 0.950 . S
C132 N127 1.332 . S
C132 C131 1.382 . S
C132 H142 0.948 . S
N133 Co111 2.282 . S
N133 C137 1.332 . S
N133 C138 1.332 . S
C134 C135 1.388 . S
C134 C138 1.382 . S
C134 H157 0.950 . S
C135 C134 1.388 . S
C135 C136 1.386 . S
C136 C135 1.386 . S
C136 C137 1.382 . S
C136 H158 0.950 . S
C137 N133 1.332 . S
C137 C136 1.382 . S
C137 H139 0.952 . S
C138 N133 1.332 . S
C138 C134 1.382 . S
C138 H140 0.948 . S
H139 C137 0.952 . S
H140 C138 0.948 . S
H141 C130 0.952 . S
H142 C132 0.948 . S
C143 C109 1.395 . S
C143 C113 1.391 . S
C144 C106 1.389 . S
C144 C126 1.392 . S
C145 C116 1.392 . S
C145 C118 1.389 . S
C146 C121 1.395 . S
C146 C123 1.391 . S
H147 C107 0.951 . S
H148 C108 0.950 . S
H149 C114 0.949 . S
H150 C115 0.950 . S
H151 C119 0.951 . S
H152 C120 0.950 . S
H153 C124 0.949 . S
H154 C125 0.950 . S
H155 C129 0.950 . S
H156 C131 0.950 . S
H157 C134 0.950 . S
H158 C136 0.950 . S
C159 C160 1.443 . S
C159 N163 1.376 . S
C159 C197 1.389 . S
C160 C159 1.443 . S
C160 C161 1.340 . S
C160 H200 0.951 . S
C161 C160 1.340 . S
C161 C162 1.439 . S
C161 H201 0.950 . S
C162 C161 1.439 . S
C162 N163 1.374 . S
C162 C196 1.395 . S
N163 C159 1.376 . S
N163 C162 1.374 . S
N163 Co164 2.008 . S
Co164 N163 2.008 . S
Co164 N165 1.995 . S
Co164 N170 2.008 . S
Co164 N175 1.995 . S
Co164 N180 2.282 . S
Co164 N186 2.282 . S
N165 Co164 1.995 . S
N165 C166 1.376 . S
N165 C169 1.383 . S
C166 N165 1.376 . S
C166 C167 1.446 . S
C166 C196 1.391 . S
C167 C166 1.446 . S
C167 C168 1.339 . S
C167 H202 0.949 . S
C168 C167 1.339 . S
C168 C169 1.439 . S
C168 H203 0.950 . S
C169 N165 1.383 . S
C169 C168 1.439 . S
C169 C198 1.392 . S
N170 Co164 2.008 . S
N170 C171 1.376 . S
N170 C174 1.374 . S
C171 N170 1.376 . S
C171 C172 1.443 . S
C171 C198 1.389 . S
C172 C171 1.443 . S
C172 C173 1.340 . S
C172 H204 0.951 1_554 S
C173 C172 1.340 . S
C173 C174 1.439 . S
C173 H205 0.950 . S
C174 N170 1.374 . S
C174 C173 1.439 . S
C174 C199 1.395 . S
N175 Co164 1.995 . S
N175 C176 1.376 . S
N175 C179 1.383 . S
C176 N175 1.376 . S
C176 C177 1.446 . S
C176 C199 1.391 . S
C177 C176 1.446 . S
C177 C178 1.339 . S
C177 H206 0.949 . S
C178 C177 1.339 . S
C178 C179 1.439 . S
C178 H207 0.950 . S
C179 N175 1.383 . S
C179 C178 1.439 . S
C179 C197 1.392 . S
N180 Co164 2.282 . S
N180 C183 1.332 . S
N180 C185 1.332 . S
C181 C182 1.386 . S
C181 C184 1.388 . S
C182 C181 1.386 . S
C182 C183 1.382 . S
C182 H208 0.950 . S
C183 N180 1.332 . S
C183 C182 1.382 . S
C183 H194 0.952 . S
C184 C181 1.388 . S
C184 C185 1.382 . S
C184 H209 0.950 . S
C185 N180 1.332 . S
C185 C184 1.382 . S
C185 H195 0.948 . S
N186 Co164 2.282 . S
N186 C190 1.332 . S
N186 C191 1.332 . S
C187 C188 1.388 . S
C187 C191 1.382 . S
C187 H210 0.950 . S
C188 C187 1.388 . S
C188 C189 1.386 . S
C189 C188 1.386 . S
C189 C190 1.382 . S
C189 H211 0.950 1_655 S
C190 N186 1.332 . S
C190 C189 1.382 . S
C190 H192 0.952 . S
C191 N186 1.332 . S
C191 C187 1.382 . S
C191 H193 0.948 . S
H192 C190 0.952 . S
H193 C191 0.948 . S
H194 C183 0.952 . S
H195 C185 0.948 . S
C196 C162 1.395 . S
C196 C166 1.391 . S
C197 C159 1.389 . S
C197 C179 1.392 . S
C198 C169 1.392 . S
C198 C171 1.389 . S
C199 C174 1.395 . S
C199 C176 1.391 . S
H200 C160 0.951 . S
H201 C161 0.950 . S
H202 C167 0.949 . S
H203 C168 0.950 . S
H204 C172 0.951 1_556 S
H205 C173 0.950 . S
H206 C177 0.949 . S
H207 C178 0.950 . S
H208 C182 0.950 . S
H209 C184 0.950 . S
H210 C187 0.950 . S
H211 C189 0.950 1_455 S
C212 C213 1.443 . S
C212 N216 1.376 . S
C212 C250 1.389 . S
C213 C212 1.443 . S
C213 C214 1.340 . S
C213 H253 0.951 . S
C214 C213 1.340 . S
C214 C215 1.439 . S
C214 H254 0.950 . S
C215 C214 1.439 . S
C215 N216 1.374 . S
C215 C249 1.395 . S
N216 C212 1.376 . S
N216 C215 1.374 . S
N216 Co217 2.008 . S
Co217 N216 2.008 . S
Co217 N218 1.995 . S
Co217 N223 2.008 . S
Co217 N228 1.995 . S
Co217 N233 2.282 . S
Co217 N239 2.282 . S
N218 Co217 1.995 . S
N218 C219 1.376 . S
N218 C222 1.383 . S
C219 N218 1.376 . S
C219 C220 1.446 . S
C219 C249 1.391 . S
C220 C219 1.446 . S
C220 C221 1.339 . S
C220 H255 0.949 . S
C221 C220 1.339 . S
C221 C222 1.439 . S
C221 H256 0.950 . S
C222 N218 1.383 . S
C222 C221 1.439 . S
C222 C251 1.392 . S
N223 Co217 2.008 . S
N223 C224 1.376 . S
N223 C227 1.374 . S
C224 N223 1.376 . S
C224 C225 1.443 . S
C224 C251 1.389 . S
C225 C224 1.443 . S
C225 C226 1.340 . S
C225 H257 0.951 . S
C226 C225 1.340 . S
C226 C227 1.439 . S
C226 H258 0.950 . S
C227 N223 1.374 . S
C227 C226 1.439 . S
C227 C252 1.395 . S
N228 Co217 1.995 . S
N228 C229 1.376 . S
N228 C232 1.383 . S
C229 N228 1.376 . S
C229 C230 1.446 . S
C229 C252 1.391 . S
C230 C229 1.446 . S
C230 C231 1.339 . S
C230 H259 0.949 . S
C231 C230 1.339 . S
C231 C232 1.439 . S
C231 H260 0.950 . S
C232 N228 1.383 . S
C232 C231 1.439 . S
C232 C250 1.392 . S
N233 Co217 2.282 . S
N233 C236 1.332 . S
N233 C238 1.332 . S
C234 C235 1.386 . S
C234 C237 1.388 . S
C235 C234 1.386 . S
C235 C236 1.382 . S
C235 H261 0.950 . S
C236 N233 1.332 . S
C236 C235 1.382 . S
C236 H247 0.952 . S
C237 C234 1.388 . S
C237 C238 1.382 . S
C237 H262 0.950 . S
C238 N233 1.332 . S
C238 C237 1.382 . S
C238 H248 0.948 . S
N239 Co217 2.282 . S
N239 C243 1.332 . S
N239 C244 1.332 . S
C240 C241 1.388 . S
C240 C244 1.382 . S
C240 H263 0.950 . S
C241 C240 1.388 . S
C241 C242 1.386 . S
C242 C241 1.386 . S
C242 C243 1.382 . S
C242 H264 0.950 1_565 S
C243 N239 1.332 . S
C243 C242 1.382 . S
C243 H245 0.952 . S
C244 N239 1.332 . S
C244 C240 1.382 . S
C244 H246 0.948 . S
H245 C243 0.952 . S
H246 C244 0.948 . S
H247 C236 0.952 . S
H248 C238 0.948 . S
C249 C215 1.395 . S
C249 C219 1.391 . S
C250 C212 1.389 . S
C250 C232 1.392 . S
C251 C222 1.392 . S
C251 C224 1.389 . S
C252 C227 1.395 . S
C252 C229 1.391 . S
H253 C213 0.951 . S
H254 C214 0.950 . S
H255 C220 0.949 . S
H256 C221 0.950 . S
H257 C225 0.951 . S
H258 C226 0.950 . S
H259 C230 0.949 . S
H260 C231 0.950 . S
H261 C235 0.950 . S
H262 C237 0.950 . S
H263 C240 0.950 . S
H264 C242 0.950 1_545 S
C265 C266 1.443 . S
C265 N269 1.376 . S
C265 C303 1.389 . S
C266 C265 1.443 . S
C266 C267 1.340 . S
C266 H306 0.951 . S
C267 C266 1.340 . S
C267 C268 1.439 . S
C267 H307 0.950 . S
C268 C267 1.439 . S
C268 N269 1.374 . S
C268 C302 1.395 . S
N269 C265 1.376 . S
N269 C268 1.374 . S
N269 Co270 2.008 . S
Co270 N269 2.008 . S
Co270 N271 1.995 . S
Co270 N276 2.008 . S
Co270 N281 1.995 . S
Co270 N286 2.282 . S
Co270 N292 2.282 . S
N271 Co270 1.995 . S
N271 C272 1.376 . S
N271 C275 1.383 . S
C272 N271 1.376 . S
C272 C273 1.446 . S
C272 C302 1.391 . S
C273 C272 1.446 . S
C273 C274 1.339 . S
C273 H308 0.949 . S
C274 C273 1.339 . S
C274 C275 1.439 . S
C274 H309 0.950 . S
C275 N271 1.383 . S
C275 C274 1.439 . S
C275 C304 1.392 . S
N276 Co270 2.008 . S
N276 C277 1.376 . S
N276 C280 1.374 . S
C277 N276 1.376 . S
C277 C278 1.443 . S
C277 C304 1.389 . S
C278 C277 1.443 . S
C278 C279 1.340 . S
C278 H310 0.951 . S
C279 C278 1.340 . S
C279 C280 1.439 . S
C279 H311 0.950 . S
C280 N276 1.374 . S
C280 C279 1.439 . S
C280 C305 1.395 . S
N281 Co270 1.995 . S
N281 C282 1.376 . S
N281 C285 1.383 . S
C282 N281 1.376 . S
C282 C283 1.446 . S
C282 C305 1.391 . S
C283 C282 1.446 . S
C283 C284 1.339 . S
C283 H312 0.949 . S
C284 C283 1.339 . S
C284 C285 1.439 . S
C284 H313 0.950 . S
C285 N281 1.383 . S
C285 C284 1.439 . S
C285 C303 1.392 . S
N286 Co270 2.282 . S
N286 C289 1.332 . S
N286 C291 1.332 . S
C287 C288 1.386 . S
C287 C290 1.388 . S
C288 C287 1.386 . S
C288 C289 1.382 . S
C288 H314 0.950 . S
C289 N286 1.332 . S
C289 C288 1.382 . S
C289 H300 0.952 . S
C290 C287 1.388 . S
C290 C291 1.382 . S
C290 H315 0.950 . S
C291 N286 1.332 . S
C291 C290 1.382 . S
C291 H301 0.948 . S
N292 Co270 2.282 . S
N292 C296 1.332 . S
N292 C297 1.332 . S
C293 C294 1.388 . S
C293 C297 1.382 . S
C293 H316 0.950 . S
C294 C293 1.388 . S
C294 C295 1.386 . S
C295 C294 1.386 . S
C295 C296 1.382 . S
C295 H317 0.950 . S
C296 N292 1.332 . S
C296 C295 1.382 . S
C296 H298 0.952 . S
C297 N292 1.332 . S
C297 C293 1.382 . S
C297 H299 0.948 . S
H298 C296 0.952 . S
H299 C297 0.948 . S
H300 C289 0.952 . S
H301 C291 0.948 . S
C302 C268 1.395 . S
C302 C272 1.391 . S
C303 C265 1.389 . S
C303 C285 1.392 . S
C304 C275 1.392 . S
C304 C277 1.389 . S
C305 C280 1.395 . S
C305 C282 1.391 . S
H306 C266 0.951 . S
H307 C267 0.950 . S
H308 C273 0.949 . S
H309 C274 0.950 . S
H310 C278 0.951 . S
H311 C279 0.950 . S
H312 C283 0.949 . S
H313 C284 0.950 . S
H314 C288 0.950 . S
H315 C290 0.950 . S
H316 C293 0.950 . S
H317 C295 0.950 . S
C318 C319 1.443 . S
C318 N322 1.376 . S
C318 C356 1.389 . S
C319 C318 1.443 . S
C319 C320 1.340 . S
C319 H359 0.951 . S
C320 C319 1.340 . S
C320 C321 1.439 . S
C320 H360 0.950 . S
C321 C320 1.439 . S
C321 N322 1.374 . S
C321 C355 1.395 . S
N322 C318 1.376 . S
N322 C321 1.374 . S
N322 Co323 2.008 . S
Co323 N322 2.008 . S
Co323 N324 1.995 . S
Co323 N329 2.008 . S
Co323 N334 1.995 . S
Co323 N339 2.282 . S
Co323 N345 2.282 . S
N324 Co323 1.995 . S
N324 C325 1.376 . S
N324 C328 1.383 . S
C325 N324 1.376 . S
C325 C326 1.446 . S
C325 C355 1.391 . S
C326 C325 1.446 . S
C326 C327 1.339 . S
C326 H361 0.949 . S
C327 C326 1.339 . S
C327 C328 1.439 . S
C327 H362 0.950 . S
C328 N324 1.383 . S
C328 C327 1.439 . S
C328 C357 1.392 . S
N329 Co323 2.008 . S
N329 C330 1.376 . S
N329 C333 1.374 . S
C330 N329 1.376 . S
C330 C331 1.443 . S
C330 C357 1.389 . S
C331 C330 1.443 . S
C331 C332 1.340 . S
C331 H363 0.951 . S
C332 C331 1.340 . S
C332 C333 1.439 . S
C332 H364 0.950 . S
C333 N329 1.374 . S
C333 C332 1.439 . S
C333 C358 1.395 . S
N334 Co323 1.995 . S
N334 C335 1.376 . S
N334 C338 1.383 . S
C335 N334 1.376 . S
C335 C336 1.446 . S
C335 C358 1.391 . S
C336 C335 1.446 . S
C336 C337 1.339 . S
C336 H365 0.949 . S
C337 C336 1.339 . S
C337 C338 1.439 . S
C337 H366 0.950 . S
C338 N334 1.383 . S
C338 C337 1.439 . S
C338 C356 1.392 . S
N339 Co323 2.282 . S
N339 C342 1.332 . S
N339 C344 1.332 . S
C340 C341 1.386 . S
C340 C343 1.388 . S
C341 C340 1.386 . S
C341 C342 1.382 . S
C341 H367 0.950 . S
C342 N339 1.332 . S
C342 C341 1.382 . S
C342 H353 0.952 . S
C343 C340 1.388 . S
C343 C344 1.382 . S
C343 H368 0.950 . S
C344 N339 1.332 . S
C344 C343 1.382 . S
C344 H354 0.948 . S
N345 Co323 2.282 . S
N345 C349 1.332 . S
N345 C350 1.332 . S
C346 C347 1.388 . S
C346 C350 1.382 . S
C346 H369 0.950 . S
C347 C346 1.388 . S
C347 C348 1.386 . S
C348 C347 1.386 . S
C348 C349 1.382 . S
C348 H370 0.950 1_565 S
C349 N345 1.332 . S
C349 C348 1.382 . S
C349 H351 0.952 . S
C350 N345 1.332 . S
C350 C346 1.382 . S
C350 H352 0.948 . S
H351 C349 0.952 . S
H352 C350 0.948 . S
H353 C342 0.952 . S
H354 C344 0.948 . S
C355 C321 1.395 . S
C355 C325 1.391 . S
C356 C318 1.389 . S
C356 C338 1.392 . S
C357 C328 1.392 . S
C357 C330 1.389 . S
C358 C333 1.395 . S
C358 C335 1.391 . S
H359 C319 0.951 . S
H360 C320 0.950 . S
H361 C326 0.949 . S
H362 C327 0.950 . S
H363 C331 0.951 . S
H364 C332 0.950 . S
H365 C336 0.949 . S
H366 C337 0.950 . S
H367 C341 0.950 . S
H368 C343 0.950 . S
H369 C346 0.950 . S
H370 C348 0.950 1_545 S
C371 C372 1.443 . S
C371 N375 1.376 . S
C371 C409 1.389 . S
C372 C371 1.443 . S
C372 C373 1.340 . S
C372 H412 0.951 . S
C373 C372 1.340 . S
C373 C374 1.439 . S
C373 H413 0.950 . S
C374 C373 1.439 . S
C374 N375 1.374 . S
C374 C408 1.395 . S
N375 C371 1.376 . S
N375 C374 1.374 . S
N375 Co376 2.008 . S
Co376 N375 2.008 . S
Co376 N377 1.995 . S
Co376 N382 2.008 . S
Co376 N387 1.995 . S
Co376 N392 2.282 . S
Co376 N398 2.282 . S
N377 Co376 1.995 . S
N377 C378 1.376 . S
N377 C381 1.383 . S
C378 N377 1.376 . S
C378 C379 1.446 . S
C378 C408 1.391 . S
C379 C378 1.446 . S
C379 C380 1.339 . S
C379 H414 0.949 . S
C380 C379 1.339 . S
C380 C381 1.439 . S
C380 H415 0.950 . S
C381 N377 1.383 . S
C381 C380 1.439 . S
C381 C410 1.392 . S
N382 Co376 2.008 . S
N382 C383 1.376 . S
N382 C386 1.374 . S
C383 N382 1.376 . S
C383 C384 1.443 . S
C383 C410 1.389 . S
C384 C383 1.443 . S
C384 C385 1.340 . S
C384 H416 0.951 1_556 S
C385 C384 1.340 . S
C385 C386 1.439 . S
C385 H417 0.950 . S
C386 N382 1.374 . S
C386 C385 1.439 . S
C386 C411 1.395 . S
N387 Co376 1.995 . S
N387 C388 1.376 . S
N387 C391 1.383 . S
C388 N387 1.376 . S
C388 C389 1.446 . S
C388 C411 1.391 . S
C389 C388 1.446 . S
C389 C390 1.339 . S
C389 H418 0.949 . S
C390 C389 1.339 . S
C390 C391 1.439 . S
C390 H419 0.950 . S
C391 N387 1.383 . S
C391 C390 1.439 . S
C391 C409 1.392 . S
N392 Co376 2.282 . S
N392 C395 1.332 . S
N392 C397 1.332 . S
C393 C394 1.386 . S
C393 C396 1.388 . S
C394 C393 1.386 . S
C394 C395 1.382 . S
C394 H420 0.950 . S
C395 N392 1.332 . S
C395 C394 1.382 . S
C395 H406 0.952 . S
C396 C393 1.388 . S
C396 C397 1.382 . S
C396 H421 0.950 . S
C397 N392 1.332 . S
C397 C396 1.382 . S
C397 H407 0.948 . S
N398 Co376 2.282 . S
N398 C402 1.332 . S
N398 C403 1.332 . S
C399 C400 1.388 . S
C399 C403 1.382 . S
C399 H422 0.950 . S
C400 C399 1.388 . S
C400 C401 1.386 . S
C401 C400 1.386 . S
C401 C402 1.382 . S
C401 H423 0.950 . S
C402 N398 1.332 . S
C402 C401 1.382 . S
C402 H404 0.952 . S
C403 N398 1.332 . S
C403 C399 1.382 . S
C403 H405 0.948 . S
H404 C402 0.952 . S
H405 C403 0.948 . S
H406 C395 0.952 . S
H407 C397 0.948 . S
C408 C374 1.395 . S
C408 C378 1.391 . S
C409 C371 1.389 . S
C409 C391 1.392 . S
C410 C381 1.392 . S
C410 C383 1.389 . S
C411 C386 1.395 . S
C411 C388 1.391 . S
H412 C372 0.951 . S
H413 C373 0.950 . S
H414 C379 0.949 . S
H415 C380 0.950 . S
H416 C384 0.951 1_554 S
H417 C385 0.950 . S
H418 C389 0.949 . S
H419 C390 0.950 . S
H420 C394 0.950 . S
H421 C396 0.950 . S
H422 C399 0.950 . S
H423 C401 0.950 . S
C424 C425 1.443 . S
C424 N428 1.376 . S
C424 C462 1.389 . S
C425 C424 1.443 . S
C425 C426 1.340 . S
C425 H465 0.951 . S
C426 C425 1.340 . S
C426 C427 1.439 . S
C426 H466 0.950 . S
C427 C426 1.439 . S
C427 N428 1.374 . S
C427 C461 1.395 . S
N428 C424 1.376 . S
N428 C427 1.374 . S
N428 Co429 2.008 . S
Co429 N428 2.008 . S
Co429 N430 1.995 . S
Co429 N435 2.008 . S
Co429 N440 1.995 . S
Co429 N445 2.282 . S
Co429 N451 2.282 . S
N430 Co429 1.995 . S
N430 C431 1.376 . S
N430 C434 1.383 . S
C431 N430 1.376 . S
C431 C432 1.446 . S
C431 C461 1.391 . S
C432 C431 1.446 . S
C432 C433 1.339 . S
C432 H467 0.949 . S
C433 C432 1.339 . S
C433 C434 1.439 . S
C433 H468 0.950 . S
C434 N430 1.383 . S
C434 C433 1.439 . S
C434 C463 1.392 . S
N435 Co429 2.008 . S
N435 C436 1.376 . S
N435 C439 1.374 . S
C436 N435 1.376 . S
C436 C437 1.443 . S
C436 C463 1.389 . S
C437 C436 1.443 . S
C437 C438 1.340 . S
C437 H469 0.951 . S
C438 C437 1.340 . S
C438 C439 1.439 . S
C438 H470 0.950 . S
C439 N435 1.374 . S
C439 C438 1.439 . S
C439 C464 1.395 . S
N440 Co429 1.995 . S
N440 C441 1.376 . S
N440 C444 1.383 . S
C441 N440 1.376 . S
C441 C442 1.446 . S
C441 C464 1.391 . S
C442 C441 1.446 . S
C442 C443 1.339 . S
C442 H471 0.949 . S
C443 C442 1.339 . S
C443 C444 1.439 . S
C443 H472 0.950 . S
C444 N440 1.383 . S
C444 C443 1.439 . S
C444 C462 1.392 . S
N445 Co429 2.282 . S
N445 C448 1.332 . S
N445 C450 1.332 . S
C446 C447 1.386 . S
C446 C449 1.388 . S
C447 C446 1.386 . S
C447 C448 1.382 . S
C447 H473 0.950 . S
C448 N445 1.332 . S
C448 C447 1.382 . S
C448 H459 0.952 . S
C449 C446 1.388 . S
C449 C450 1.382 . S
C449 H474 0.950 . S
C450 N445 1.332 . S
C450 C449 1.382 . S
C450 H460 0.948 . S
N451 Co429 2.282 . S
N451 C455 1.332 . S
N451 C456 1.332 . S
C452 C453 1.388 . S
C452 C456 1.382 . S
C452 H475 0.950 . S
C453 C452 1.388 . S
C453 C454 1.386 . S
C454 C453 1.386 . S
C454 C455 1.382 . S
C454 H476 0.950 1_455 S
C455 N451 1.332 . S
C455 C454 1.382 . S
C455 H457 0.952 . S
C456 N451 1.332 . S
C456 C452 1.382 . S
C456 H458 0.948 . S
H457 C455 0.952 . S
H458 C456 0.948 . S
H459 C448 0.952 . S
H460 C450 0.948 . S
C461 C427 1.395 . S
C461 C431 1.391 . S
C462 C424 1.389 . S
C462 C444 1.392 . S
C463 C434 1.392 . S
C463 C436 1.389 . S
C464 C439 1.395 . S
C464 C441 1.391 . S
H465 C425 0.951 . S
H466 C426 0.950 . S
H467 C432 0.949 . S
H468 C433 0.950 . S
H469 C437 0.951 . S
H470 C438 0.950 . S
H471 C442 0.949 . S
H472 C443 0.950 . S
H473 C447 0.950 . S
H474 C449 0.950 . S
H475 C452 0.950 . S
H476 C454 0.950 1_655 S
C477 C478 1.443 . S
C477 N481 1.376 . S
C477 C515 1.389 . S
C478 C477 1.443 . S
C478 C479 1.340 . S
C478 H518 0.951 . S
C479 C478 1.340 . S
C479 C480 1.439 . S
C479 H519 0.950 . S
C480 C479 1.439 . S
C480 N481 1.374 . S
C480 C514 1.395 . S
N481 C477 1.376 . S
N481 C480 1.374 . S
N481 Co482 2.008 . S
Co482 N481 2.008 . S
Co482 N483 1.995 . S
Co482 N488 2.008 . S
Co482 N493 1.995 . S
Co482 N498 2.282 . S
Co482 N504 2.282 . S
N483 Co482 1.995 . S
N483 C484 1.376 . S
N483 C487 1.383 . S
C484 N483 1.376 . S
C484 C485 1.446 . S
C484 C514 1.391 . S
C485 C484 1.446 . S
C485 C486 1.339 . S
C485 H520 0.949 . S
C486 C485 1.339 . S
C486 C487 1.439 . S
C486 H521 0.950 . S
C487 N483 1.383 . S
C487 C486 1.439 . S
C487 C516 1.392 . S
N488 Co482 2.008 . S
N488 C489 1.376 . S
N488 C492 1.374 . S
C489 N488 1.376 . S
C489 C490 1.443 . S
C489 C516 1.389 . S
C490 C489 1.443 . S
C490 C491 1.340 . S
C490 H522 0.951 . S
C491 C490 1.340 . S
C491 C492 1.439 . S
C491 H523 0.950 . S
C492 N488 1.374 . S
C492 C491 1.439 . S
C492 C517 1.395 . S
N493 Co482 1.995 . S
N493 C494 1.376 . S
N493 C497 1.383 . S
C494 N493 1.376 . S
C494 C495 1.446 . S
C494 C517 1.391 . S
C495 C494 1.446 . S
C495 C496 1.339 . S
C495 H524 0.949 . S
C496 C495 1.339 . S
C496 C497 1.439 . S
C496 H525 0.950 . S
C497 N493 1.383 . S
C497 C496 1.439 . S
C497 C515 1.392 . S
N498 Co482 2.282 . S
N498 C501 1.332 . S
N498 C503 1.332 . S
C499 C500 1.386 . S
C499 C502 1.388 . S
C500 C499 1.386 . S
C500 C501 1.382 . S
C500 H526 0.950 . S
C501 N498 1.332 . S
C501 C500 1.382 . S
C501 H512 0.952 . S
C502 C499 1.388 . S
C502 C503 1.382 . S
C502 H527 0.950 . S
C503 N498 1.332 . S
C503 C502 1.382 . S
C503 H513 0.948 . S
N504 Co482 2.282 . S
N504 C508 1.332 . S
N504 C509 1.332 . S
C505 C506 1.388 . S
C505 C509 1.382 . S
C505 H528 0.950 . S
C506 C505 1.388 . S
C506 C507 1.386 . S
C507 C506 1.386 . S
C507 C508 1.382 . S
C507 H529 0.950 1_545 S
C508 N504 1.332 . S
C508 C507 1.382 . S
C508 H510 0.952 . S
C509 N504 1.332 . S
C509 C505 1.382 . S
C509 H511 0.948 . S
H510 C508 0.952 . S
H511 C509 0.948 . S
H512 C501 0.952 . S
H513 C503 0.948 . S
C514 C480 1.395 . S
C514 C484 1.391 . S
C515 C477 1.389 . S
C515 C497 1.392 . S
C516 C487 1.392 . S
C516 C489 1.389 . S
C517 C492 1.395 . S
C517 C494 1.391 . S
H518 C478 0.951 . S
H519 C479 0.950 . S
H520 C485 0.949 . S
H521 C486 0.950 . S
H522 C490 0.951 . S
H523 C491 0.950 . S
H524 C495 0.949 . S
H525 C496 0.950 . S
H526 C500 0.950 . S
H527 C502 0.950 . S
H528 C505 0.950 . S
H529 C507 0.950 1_565 S
C530 C531 1.443 . S
C530 N534 1.376 . S
C530 C568 1.389 . S
C531 C530 1.443 . S
C531 C532 1.340 . S
C531 H571 0.951 . S
C532 C531 1.340 . S
C532 C533 1.439 . S
C532 H572 0.950 . S
C533 C532 1.439 . S
C533 N534 1.374 . S
C533 C567 1.395 . S
N534 C530 1.376 . S
N534 C533 1.374 . S
N534 Co535 2.008 . S
Co535 N534 2.008 . S
Co535 N536 1.995 . S
Co535 N541 2.008 . S
Co535 N546 1.995 . S
Co535 N551 2.282 . S
Co535 N557 2.282 . S
N536 Co535 1.995 . S
N536 C537 1.376 . S
N536 C540 1.383 . S
C537 N536 1.376 . S
C537 C538 1.446 . S
C537 C567 1.391 . S
C538 C537 1.446 . S
C538 C539 1.339 . S
C538 H573 0.949 . S
C539 C538 1.339 . S
C539 C540 1.439 . S
C539 H574 0.950 . S
C540 N536 1.383 . S
C540 C539 1.439 . S
C540 C569 1.392 . S
N541 Co535 2.008 . S
N541 C542 1.376 . S
N541 C545 1.374 . S
C542 N541 1.376 . S
C542 C543 1.443 . S
C542 C569 1.389 . S
C543 C542 1.443 . S
C543 C544 1.340 . S
C543 H575 0.951 1_556 S
C544 C543 1.340 . S
C544 C545 1.439 . S
C544 H576 0.950 . S
C545 N541 1.374 . S
C545 C544 1.439 . S
C545 C570 1.395 . S
N546 Co535 1.995 . S
N546 C547 1.376 . S
N546 C550 1.383 . S
C547 N546 1.376 . S
C547 C548 1.446 . S
C547 C570 1.391 . S
C548 C547 1.446 . S
C548 C549 1.339 . S
C548 H577 0.949 . S
C549 C548 1.339 . S
C549 C550 1.439 . S
C549 H578 0.950 . S
C550 N546 1.383 . S
C550 C549 1.439 . S
C550 C568 1.392 . S
N551 Co535 2.282 . S
N551 C554 1.332 . S
N551 C556 1.332 . S
C552 C553 1.386 . S
C552 C555 1.388 . S
C553 C552 1.386 . S
C553 C554 1.382 . S
C553 H579 0.950 . S
C554 N551 1.332 . S
C554 C553 1.382 . S
C554 H565 0.952 . S
C555 C552 1.388 . S
C555 C556 1.382 . S
C555 H580 0.950 . S
C556 N551 1.332 . S
C556 C555 1.382 . S
C556 H566 0.948 . S
N557 Co535 2.282 . S
N557 C561 1.332 . S
N557 C562 1.332 . S
C558 C559 1.388 . S
C558 C562 1.382 . S
C558 H581 0.950 . S
C559 C558 1.388 . S
C559 C560 1.386 . S
C560 C559 1.386 . S
C560 C561 1.382 . S
C560 H582 0.950 . S
C561 N557 1.332 . S
C561 C560 1.382 . S
C561 H563 0.952 . S
C562 N557 1.332 . S
C562 C558 1.382 . S
C562 H564 0.948 . S
H563 C561 0.952 . S
H564 C562 0.948 . S
H565 C554 0.952 . S
H566 C556 0.948 . S
C567 C533 1.395 . S
C567 C537 1.391 . S
C568 C530 1.389 . S
C568 C550 1.392 . S
C569 C540 1.392 . S
C569 C542 1.389 . S
C570 C545 1.395 . S
C570 C547 1.391 . S
H571 C531 0.951 . S
H572 C532 0.950 . S
H573 C538 0.949 . S
H574 C539 0.950 . S
H575 C543 0.951 1_554 S
H576 C544 0.950 . S
H577 C548 0.949 . S
H578 C549 0.950 . S
H579 C553 0.950 . S
H580 C555 0.950 . S
H581 C558 0.950 . S
H582 C560 0.950 . S
C583 C584 1.443 . S
C583 N587 1.376 . S
C583 C621 1.389 . S
C584 C583 1.443 . S
C584 C585 1.340 . S
C584 H624 0.951 . S
C585 C584 1.340 . S
C585 C586 1.439 . S
C585 H625 0.950 . S
C586 C585 1.439 . S
C586 N587 1.374 . S
C586 C620 1.395 . S
N587 C583 1.376 . S
N587 C586 1.374 . S
N587 Co588 2.008 . S
Co588 N587 2.008 . S
Co588 N589 1.995 . S
Co588 N594 2.008 . S
Co588 N599 1.995 . S
Co588 N604 2.282 . S
Co588 N610 2.282 . S
N589 Co588 1.995 . S
N589 C590 1.376 . S
N589 C593 1.383 . S
C590 N589 1.376 . S
C590 C591 1.446 . S
C590 C620 1.391 . S
C591 C590 1.446 . S
C591 C592 1.339 . S
C591 H626 0.949 . S
C592 C591 1.339 . S
C592 C593 1.439 . S
C592 H627 0.950 . S
C593 N589 1.383 . S
C593 C592 1.439 . S
C593 C622 1.392 . S
N594 Co588 2.008 . S
N594 C595 1.376 . S
N594 C598 1.374 . S
C595 N594 1.376 . S
C595 C596 1.443 . S
C595 C622 1.389 . S
C596 C595 1.443 . S
C596 C597 1.340 . S
C596 H628 0.951 . S
C597 C596 1.340 . S
C597 C598 1.439 . S
C597 H629 0.950 . S
C598 N594 1.374 . S
C598 C597 1.439 . S
C598 C623 1.395 . S
N599 Co588 1.995 . S
N599 C600 1.376 . S
N599 C603 1.383 . S
C600 N599 1.376 . S
C600 C601 1.446 . S
C600 C623 1.391 . S
C601 C600 1.446 . S
C601 C602 1.339 . S
C601 H630 0.949 . S
C602 C601 1.339 . S
C602 C603 1.439 . S
C602 H631 0.950 . S
C603 N599 1.383 . S
C603 C602 1.439 . S
C603 C621 1.392 . S
N604 Co588 2.282 . S
N604 C607 1.332 . S
N604 C609 1.332 . S
C605 C606 1.386 . S
C605 C608 1.388 . S
C606 C605 1.386 . S
C606 C607 1.382 . S
C606 H632 0.950 . S
C607 N604 1.332 . S
C607 C606 1.382 . S
C607 H618 0.952 . S
C608 C605 1.388 . S
C608 C609 1.382 . S
C608 H633 0.950 . S
C609 N604 1.332 . S
C609 C608 1.382 . S
C609 H619 0.948 . S
N610 Co588 2.282 . S
N610 C614 1.332 . S
N610 C615 1.332 . S
C611 C612 1.388 . S
C611 C615 1.382 . S
C611 H634 0.950 . S
C612 C611 1.388 . S
C612 C613 1.386 . S
C613 C612 1.386 . S
C613 C614 1.382 . S
C613 H635 0.950 1_655 S
C614 N610 1.332 . S
C614 C613 1.382 . S
C614 H616 0.952 . S
C615 N610 1.332 . S
C615 C611 1.382 . S
C615 H617 0.948 . S
H616 C614 0.952 . S
H617 C615 0.948 . S
H618 C607 0.952 . S
H619 C609 0.948 . S
C620 C586 1.395 . S
C620 C590 1.391 . S
C621 C583 1.389 . S
C621 C603 1.392 . S
C622 C593 1.392 . S
C622 C595 1.389 . S
C623 C598 1.395 . S
C623 C600 1.391 . S
H624 C584 0.951 . S
H625 C585 0.950 . S
H626 C591 0.949 . S
H627 C592 0.950 . S
H628 C596 0.951 . S
H629 C597 0.950 . S
H630 C601 0.949 . S
H631 C602 0.950 . S
H632 C606 0.950 . S
H633 C608 0.950 . S
H634 C611 0.950 . S
H635 C613 0.950 1_455 S
C569 C39 2.307 1_556 S
C92 C622 2.307 . S
C145 C357 2.307 . S
C198 C410 2.307 1_554 S
C463 C251 2.307 . S
C304 C516 2.307 . S
C462 C38 2.722 . S
C91 C515 2.722 . S
C144 C568 2.722 . S
C197 C621 2.722 . S
C356 C250 2.722 . S
C409 C303 2.722 . S
C188 C29 1.321 1_655 S
C82 C241 1.322 1_545 S
C294 C135 1.322 . S
C506 C347 1.321 1_545 S
C559 C400 1.322 . S
C453 C612 1.322 1_455 S
C181 C22 2.109 . S
C75 C234 2.110 1_655 S
C287 C128 2.110 1_545 S
C340 C499 2.109 . S
C552 C393 2.110 1_455 S
C446 C605 2.110 1_565 S
