# Generated by pormake.
# Topology qtz-e, (6)-cn, num edge types: 1
# Building blocks:
#     Node 0, Type 0, BuildingBlock: INOVEN_clean_sbu_0, # of connection points: 6
#     Node 1, Type 0, BuildingBlock: INOVEN_clean_sbu_0, # of connection points: 6
#     Node 2, Type 0, BuildingBlock: INOVEN_clean_sbu_0, # of connection points: 6
#     Node 3, Type 0, BuildingBlock: INOVEN_clean_sbu_0, # of connection points: 6
#     Node 4, Type 0, BuildingBlock: INOVEN_clean_sbu_0, # of connection points: 6
#     Node 5, Type 0, BuildingBlock: INOVEN_clean_sbu_0, # of connection points: 6
#     Edge 6, Type (0, 0), BuildingBlock: UVAHIK_clean_linker_0, # of connection points: 2
#     Edge 7, Type (0, 0), BuildingBlock: UVAHIK_clean_linker_0, # of connection points: 2
#     Edge 8, Type (0, 0), BuildingBlock: UVAHIK_clean_linker_0, # of connection points: 2
#     Edge 9, Type (0, 0), BuildingBlock: UVAHIK_clean_linker_0, # of connection points: 2
#     Edge 10, Type (0, 0), BuildingBlock: UVAHIK_clean_linker_0, # of connection points: 2
#     Edge 11, Type (0, 0), BuildingBlock: UVAHIK_clean_linker_0, # of connection points: 2
#     Edge 12, Type (0, 0), BuildingBlock: UVAHIK_clean_linker_0, # of connection points: 2
#     Edge 13, Type (0, 0), BuildingBlock: UVAHIK_clean_linker_0, # of connection points: 2
#     Edge 14, Type (0, 0), BuildingBlock: UVAHIK_clean_linker_0, # of connection points: 2
#     Edge 15, Type (0, 0), BuildingBlock: UVAHIK_clean_linker_0, # of connection points: 2
#     Edge 16, Type (0, 0), BuildingBlock: UVAHIK_clean_linker_0, # of connection points: 2
#     Edge 17, Type (0, 0), BuildingBlock: UVAHIK_clean_linker_0, # of connection points: 2
#     Edge 18, Type (0, 0), BuildingBlock: UVAHIK_clean_linker_0, # of connection points: 2
#     Edge 19, Type (0, 0), BuildingBlock: UVAHIK_clean_linker_0, # of connection points: 2
#     Edge 20, Type (0, 0), BuildingBlock: UVAHIK_clean_linker_0, # of connection points: 2
#     Edge 21, Type (0, 0), BuildingBlock: UVAHIK_clean_linker_0, # of connection points: 2
#     Edge 22, Type (0, 0), BuildingBlock: UVAHIK_clean_linker_0, # of connection points: 2
#     Edge 23, Type (0, 0), BuildingBlock: UVAHIK_clean_linker_0, # of connection points: 2
# Relax obj value: 0.096
# Max RMSD: 0.171
# Mean RMSD: 0.171
data_MOF--net-qtz-e--node1-INOVEN_clean_sbu_0--edge1-UVAHIK_clean_linker_0
_symmetry_space_group_name_H-M    P1
_symmetry_Int_Tables_number       1
_symmetry_cell_setting            triclinic
loop_
_symmetry_equiv_pos_as_xyz
'x, y, z'
_cell_length_a     33.231847
_cell_length_b     33.159052
_cell_length_c     62.538544
_cell_angle_alpha  90.062578
_cell_angle_beta   90.001526
_cell_angle_gamma 119.94865
loop_
_atom_site_label
_atom_site_type_symbol
_atom_site_fract_x
_atom_site_fract_y
_atom_site_fract_z
_atom_type_partial_charge
Gd0 Gd 0.17686 0.4546 0.04964 0.0
Gd1 Gd 0.16825 0.35988 0.04211 0.0
C2 C 0.14762 0.37856 0.08916 0.0
C3 C 0.16445 0.52181 0.06245 0.0
C4 C 0.16422 0.54167 0.08365 0.0
C5 C 0.1974 0.58809 0.08819 0.0
C6 C 0.13301 0.51443 0.09982 0.0
C7 C 0.17001 0.57911 0.12498 0.0
C8 C 0.13584 0.533 0.12025 0.0
C9 C 0.20039 0.60657 0.10863 0.0
C10 C 0.25692 0.45419 0.05289 0.0
C11 C 0.20054 0.43693 1.00348 0.0
C12 C 0.17882 0.29236 0.02785 0.0
C13 C 0.19285 0.28279 1.00689 0.0
C14 C 0.18939 0.30462 0.98831 0.0
C15 C 0.21037 0.25219 1.00533 0.0
C16 C 0.22181 0.26625 0.9669 0.0
C17 C 0.22447 0.24376 0.98549 0.0
C18 C 0.20403 0.29674 0.96857 0.0
C19 C 0.08952 0.36433 0.03863 0.0
O20 O 0.14935 0.41646 0.08118 0.0
O21 O 0.15882 0.35216 0.0776 0.0
O22 O 0.20465 0.52813 0.05603 0.0
O23 O 0.13027 0.47997 0.05819 0.0
O24 O 0.25342 0.48849 0.0451 0.0
O25 O 0.21839 0.42252 0.0599 0.0
O26 O 0.20398 0.40266 1.01251 0.0
O27 O 0.18229 0.45859 1.01394 0.0
O28 O 0.13882 0.29102 0.02826 0.0
O29 O 0.21109 0.32773 0.03855 0.0
O30 O 0.0912 0.33055 0.04827 0.0
O31 O 0.12895 0.39281 0.03151 0.0
H32 H 0.22168 0.6099 0.076 0.0
H33 H 0.10704 0.47847 0.09688 0.0
H34 H 0.11214 0.51079 0.13252 0.0
H35 H 0.22661 0.64242 0.11164 0.0
H36 H 0.17533 0.32782 0.98904 0.0
H37 H 0.21332 0.23498 0.01946 0.0
H38 H 0.2383 0.22032 0.98475 0.0
H39 H 0.20096 0.31415 0.95454 0.0
Gd40 Gd 0.71375 0.1862 0.38461 0.0
Gd41 Gd 0.80487 0.18768 0.37691 0.0
C42 C 0.7623 0.15652 0.42301 0.0
C43 C 0.63184 0.16584 0.39759 0.0
C44 C 0.61274 0.16835 0.41872 0.0
C45 C 0.60381 0.20474 0.42309 0.0
C46 C 0.60494 0.13587 0.43496 0.0
C47 C 0.58236 0.17786 0.4598 0.0
C48 C 0.58992 0.14059 0.45525 0.0
C49 C 0.58902 0.20957 0.44339 0.0
C50 C 0.7892 0.26947 0.3917 0.0
C51 C 0.75623 0.21636 0.33868 0.0
C52 C 0.88634 0.20679 0.36359 0.0
C53 C 0.91166 0.22333 0.34308 0.0
C54 C 0.93584 0.20223 0.33475 0.0
C55 C 0.91014 0.25844 0.33117 0.0
C56 C 0.9552 0.24986 0.30248 0.0
C57 C 0.93139 0.27136 0.31108 0.0
C58 C 0.9575 0.21541 0.31473 0.0
C59 C 0.72603 0.10528 0.3712 0.0
O60 O 0.72466 0.15475 0.4148 0.0
O61 O 0.80172 0.17424 0.41219 0.0
O62 O 0.6609 0.20568 0.38876 0.0
O63 O 0.64491 0.1348 0.39536 0.0
O64 O 0.75044 0.26364 0.38414 0.0
O65 O 0.78573 0.23097 0.3966 0.0
O66 O 0.79504 0.22259 0.34768 0.0
O67 O 0.71621 0.19486 0.349 0.0
O68 O 0.85029 0.16478 0.36335 0.0
O69 O 0.87876 0.23624 0.37437 0.0
O70 O 0.76255 0.10914 0.38068 0.0
O71 O 0.73393 0.14462 0.3652 0.0
H72 H 0.60897 0.23001 0.41087 0.0
H73 H 0.61113 0.10718 0.43215 0.0
H74 H 0.58539 0.11568 0.46754 0.0
H75 H 0.58272 0.23818 0.44623 0.0
H76 H 0.9376 0.17514 0.34366 0.0
H77 H 0.89174 0.27537 0.3372 0.0
H78 H 0.92812 0.29747 0.30209 0.0
H79 H 0.97615 0.19861 0.30889 0.0
Gd80 Gd 0.52131 0.71604 0.7172 0.0
Gd81 Gd 0.61378 0.80353 0.70875 0.0
C82 C 0.59927 0.7645 0.7558 0.0
C83 C 0.45681 0.63516 0.73007 0.0
C84 C 0.43563 0.61512 0.75108 0.0
C85 C 0.38909 0.60219 0.75494 0.0
C86 C 0.46156 0.61029 0.76766 0.0
C87 C 0.39539 0.58238 0.79184 0.0
C88 C 0.44163 0.59407 0.78781 0.0
C89 C 0.36924 0.58617 0.77509 0.0
C90 C 0.51864 0.79483 0.72241 0.0
C91 C 0.53469 0.75784 0.67125 0.0
C92 C 0.67976 0.88165 0.6938 0.0
C93 C 0.68864 0.90437 0.67266 0.0
C94 C 0.66566 0.8785 0.65436 0.0
C95 C 0.71989 0.9522 0.67064 0.0
C96 C 0.70447 0.94821 0.63228 0.0
C97 C 0.72795 0.97392 0.65062 0.0
C98 C 0.67323 0.90021 0.63442 0.0
C99 C 0.61137 0.7213 0.70406 0.0
O100 O 0.56179 0.72752 0.74808 0.0
O101 O 0.62376 0.80241 0.74415 0.0
O102 O 0.44826 0.66684 0.72244 0.0
O103 O 0.49991 0.6456 0.72707 0.0
O104 O 0.48428 0.75626 0.71535 0.0
O105 O 0.55227 0.78954 0.72794 0.0
O106 O 0.56842 0.79605 0.68015 0.0
O107 O 0.5152 0.71778 0.68158 0.0
O108 O 0.68208 0.84347 0.69459 0.0
O109 O 0.64422 0.87819 0.70439 0.0
O110 O 0.64497 0.75685 0.71368 0.0
O111 O 0.58179 0.73154 0.69775 0.0
H112 H 0.36818 0.60515 0.74242 0.0
H113 H 0.4975 0.61979 0.76524 0.0
H114 H 0.46285 0.59187 0.80039 0.0
H115 H 0.33333 0.57673 0.77755 0.0
H116 H 0.64189 0.84142 0.65546 0.0
H117 H 0.73798 0.9728 0.68455 0.0
H118 H 0.75195 0.01099 0.64955 0.0
H119 H 0.65502 0.87927 0.62061 0.0
Gd120 Gd 0.79644 0.52921 0.05068 0.0
Gd121 Gd 0.79485 0.61966 0.04381 0.0
C122 C 0.81704 0.60255 0.09087 0.0
C123 C 0.81635 0.46733 0.06394 0.0
C124 C 0.81192 0.44656 0.08522 0.0
C125 C 0.83095 0.41801 0.08943 0.0
C126 C 0.78812 0.45509 0.10153 0.0
C127 C 0.8019 0.40627 0.1261 0.0
C128 C 0.78326 0.4353 0.12175 0.0
C129 C 0.82606 0.39805 0.1097 0.0
C130 C 0.71211 0.5207 0.0538 0.0
C131 C 0.77433 0.54678 1.00405 0.0
C132 C 0.77441 0.68114 0.03049 0.0
C133 C 0.75752 0.6893 1.00995 0.0
C134 C 0.77519 0.73487 1.00241 0.0
C135 C 0.72587 0.652 0.99718 0.0
C136 C 0.73098 0.70579 0.96924 0.0
C137 C 0.7129 0.66011 0.97704 0.0
C138 C 0.76198 0.74308 0.98233 0.0
C139 C 0.87864 0.62567 0.04174 0.0
O140 O 0.81886 0.56651 0.08273 0.0
O141 O 0.80354 0.62713 0.07935 0.0
O142 O 0.77709 0.45688 0.05461 0.0
O143 O 0.84727 0.51156 0.06234 0.0
O144 O 0.71943 0.48873 0.04602 0.0
O145 O 0.74914 0.55441 0.06089 0.0
O146 O 0.76669 0.57857 1.01301 0.0
O147 O 0.79373 0.52671 1.01488 0.0
O148 O 0.81662 0.68767 0.03021 0.0
O149 O 0.74541 0.64401 0.04131 0.0
O150 O 0.87193 0.6569 0.051 0.0
O151 O 0.84129 0.59419 0.03388 0.0
H152 H 0.84936 0.41095 0.07701 0.0
H153 H 0.77312 0.47702 0.09859 0.0
H154 H 0.76521 0.44312 0.13404 0.0
H155 H 0.8405 0.37557 0.11241 0.0
H156 H 0.79965 0.7642 1.01199 0.0
H157 H 0.71177 0.61644 1.00257 0.0
H158 H 0.68955 0.63041 0.96738 0.0
H159 H 0.77604 0.77874 0.97711 0.0
Gd160 Gd 0.25594 0.79418 0.3843 0.0
Gd161 Gd 0.16893 0.80136 0.37586 0.0
C162 C 0.21157 0.82959 0.42242 0.0
C163 C 0.33649 0.80942 0.39687 0.0
C164 C 0.35669 0.80871 0.4179 0.0
C165 C 0.36922 0.77482 0.42203 0.0
C166 C 0.36191 0.84015 0.43426 0.0
C167 C 0.38926 0.80192 0.45882 0.0
C168 C 0.378 0.83676 0.45449 0.0
C169 C 0.38518 0.77135 0.44226 0.0
C170 C 0.17582 0.7151 0.39117 0.0
C171 C 0.21245 0.76467 0.33848 0.0
C172 C 0.08952 0.78834 0.36249 0.0
C173 C 0.06255 0.77052 0.34247 0.0
C174 C 0.03921 0.79226 0.33392 0.0
C175 C 0.06178 0.73353 0.33119 0.0
C176 C 0.01616 0.74144 0.30256 0.0
C177 C 0.03918 0.71937 0.31141 0.0
C178 C 0.01608 0.77777 0.31425 0.0
C179 C 0.25173 0.87938 0.37014 0.0
O180 O 0.24719 0.82651 0.41477 0.0
O181 O 0.17353 0.81691 0.41099 0.0
O182 O 0.30422 0.7691 0.38958 0.0
O183 O 0.32677 0.84262 0.39363 0.0
O184 O 0.2131 0.71654 0.38403 0.0
O185 O 0.18338 0.75527 0.39581 0.0
O186 O 0.17486 0.76205 0.34723 0.0
O187 O 0.2525 0.78421 0.3488 0.0
O188 O 0.12813 0.82821 0.36093 0.0
O189 O 0.09397 0.75827 0.37439 0.0
O190 O 0.21663 0.87942 0.37924 0.0
O191 O 0.24046 0.83881 0.36449 0.0
H192 H 0.36594 0.75043 0.40967 0.0
H193 H 0.35276 0.86686 0.43162 0.0
H194 H 0.3804 0.86066 0.46691 0.0
H195 H 0.39432 0.74465 0.44494 0.0
H196 H 0.03924 0.82081 0.34237 0.0
H197 H 0.07923 0.71596 0.33752 0.0
H198 H 0.04074 0.69176 0.30288 0.0
H199 H -0.00193 0.7951 0.30826 0.0
Gd200 Gd 0.45117 0.26479 0.71884 0.0
Gd201 Gd 0.3623 0.17154 0.71103 0.0
C202 C 0.37431 0.21287 0.75754 0.0
C203 C 0.51085 0.34757 0.73197 0.0
C204 C 0.53144 0.3652 0.75319 0.0
C205 C 0.56443 0.41227 0.75616 0.0
C206 C 0.51911 0.33449 0.77054 0.0
C207 C 0.57358 0.39752 0.79361 0.0
C208 C 0.53986 0.35046 0.79054 0.0
C209 C 0.5853 0.42836 0.77621 0.0
C210 C 0.46041 0.18976 0.72497 0.0
C211 C 0.43881 0.223 0.67267 0.0
C212 C 0.30168 0.08932 0.69758 0.0
C213 C 0.29287 0.06429 0.67696 0.0
C214 C 0.24759 0.04004 0.66871 0.0
C215 C 0.32935 0.06612 0.66486 0.0
C216 C 0.27558 0.02137 0.63613 0.0
C217 C 0.32088 0.04518 0.64464 0.0
C218 C 0.23897 0.01868 0.64859 0.0
C219 C 0.35574 0.24894 0.70651 0.0
O220 O 0.40924 0.25134 0.74936 0.0
O221 O 0.35311 0.17356 0.74649 0.0
O222 O 0.52266 0.3194 0.72295 0.0
O223 O 0.46638 0.33278 0.73027 0.0
O224 O 0.49333 0.22909 0.71782 0.0
O225 O 0.42545 0.19286 0.73011 0.0
O226 O 0.40702 0.18357 0.68158 0.0
O227 O 0.45654 0.26295 0.68314 0.0
O228 O 0.29424 0.12451 0.69776 0.0
O229 O 0.33941 0.09804 0.708 0.0
O230 O 0.32395 0.21136 0.71568 0.0
O231 O 0.38815 0.24293 0.70007 0.0
H232 H 0.57443 0.43647 0.74293 0.0
H233 H 0.49372 0.29796 0.76857 0.0
H234 H 0.52934 0.32588 0.80362 0.0
H235 H 0.61136 0.46472 0.77793 0.0
H236 H 0.21884 0.038 0.67777 0.0
H237 H 0.36463 0.08443 0.67085 0.0
H238 H 0.35013 0.04866 0.63552 0.0
H239 H 0.20352 -4e-05 0.64284 0.0
C240 C 0.16605 0.72121 0.30623 0.0
C241 C 0.20927 0.74576 0.3166 0.0
C242 C 0.1626 0.70313 0.28569 0.0
C243 C 0.2306 0.71589 0.237 0.0
H244 H 0.12899 0.59233 0.22391 0.0
C245 C 0.21889 0.62505 0.15631 0.0
C246 C 0.17477 0.59822 0.14699 0.0
C247 C 0.22356 0.64279 0.17703 0.0
C248 C 0.15724 0.62713 0.22717 0.0
H249 H 0.28297 0.77055 0.31331 0.0
H250 H 0.27692 0.73883 0.27739 0.0
H251 H 0.1366 0.62375 0.25986 0.0
H252 H 0.10095 0.56949 0.15211 0.0
H253 H 0.10901 0.60092 0.18814 0.0
H254 H 0.25098 0.71956 0.20427 0.0
C255 C 0.24567 0.7339 0.28518 0.0
C256 C 0.16167 0.64511 0.24783 0.0
C257 C 0.24909 0.75186 0.30583 0.0
C258 C 0.1354 0.58957 0.15891 0.0
C259 C 0.14007 0.60753 0.17961 0.0
C260 C 0.22606 0.698 0.21629 0.0
C261 C 0.20232 0.70918 0.2749 0.0
C262 C 0.19832 0.68976 0.253 0.0
C263 C 0.18423 0.63435 0.18897 0.0
C264 C 0.18925 0.65339 0.21108 0.0
H265 H 0.13466 0.71571 0.31397 0.0
H266 H 0.12875 0.68483 0.27815 0.0
H267 H 0.25887 0.75064 0.24036 0.0
H268 H 0.2499 0.63171 0.1477 0.0
H269 H 0.25806 0.66252 0.18381 0.0
C270 C 0.48996 0.2614 0.64057 0.0
C271 C 0.45439 0.22144 0.65054 0.0
C272 C 0.50511 0.25874 0.61993 0.0
C273 C 0.50702 0.17389 0.58198 0.0
H274 H 0.53037 0.26704 0.53892 0.0
C275 C 0.53509 0.14575 0.49337 0.0
C276 C 0.56834 0.18413 0.48165 0.0
C277 C 0.52228 0.15167 0.51395 0.0
C278 C 0.5246 0.241 0.55082 0.0
H279 H 0.40626 0.14771 0.64622 0.0
H280 H 0.43236 0.14311 0.6106 0.0
H281 H 0.50689 0.2757 0.57486 0.0
H282 H 0.61467 0.25884 0.48259 0.0
H283 H 0.59266 0.26913 0.51852 0.0
H284 H 0.52484 0.13922 0.55813 0.0
C285 C 0.44917 0.17638 0.61877 0.0
C286 C 0.51111 0.246 0.57144 0.0
C287 C 0.43401 0.17908 0.63925 0.0
C288 C 0.58842 0.2286 0.49104 0.0
C289 C 0.57576 0.23451 0.51166 0.0
C290 C 0.52065 0.16898 0.56144 0.0
C291 C 0.48517 0.21602 0.60888 0.0
C292 C 0.50169 0.21223 0.58721 0.0
C293 C 0.54255 0.19611 0.52342 0.0
C294 C 0.52922 0.20221 0.5455 0.0
H295 H 0.50646 0.29462 0.64877 0.0
H296 H 0.53307 0.28991 0.6128 0.0
H297 H 0.50091 0.14767 0.59385 0.0
H298 H 0.51845 0.11112 0.48651 0.0
H299 H 0.49597 0.12137 0.52233 0.0
C300 C 0.21242 0.48474 0.97032 0.0
C301 C 0.2188 0.45154 0.98146 0.0
C302 C 0.23073 0.49887 0.94972 0.0
C303 C 0.32145 0.50414 0.91363 0.0
H304 H 0.24948 0.51967 0.86896 0.0
C305 C 0.38262 0.53601 0.82556 0.0
C306 C 0.37472 0.56718 0.81353 0.0
C307 C 0.36324 0.52195 0.84596 0.0
C308 C 0.27033 0.51609 0.8813 0.0
H309 H 0.24965 0.40731 0.97958 0.0
H310 H 0.28081 0.4314 0.94378 0.0
H311 H 0.21633 0.49562 0.90463 0.0
H312 H 0.34094 0.60872 0.81375 0.0
H313 H 0.3076 0.58466 0.84933 0.0
H314 H 0.3756 0.52493 0.89045 0.0
C315 C 0.26208 0.44691 0.95098 0.0
C316 C 0.25125 0.50224 0.90176 0.0
C317 C 0.24375 0.43274 0.97149 0.0
C318 C 0.34709 0.58406 0.82243 0.0
C319 C 0.3279 0.57019 0.84286 0.0
C320 C 0.3406 0.51817 0.89321 0.0
C321 C 0.25604 0.48032 0.93986 0.0
C322 C 0.27651 0.4959 0.91816 0.0
C323 C 0.33567 0.5389 0.85491 0.0
C324 C 0.31527 0.52419 0.87673 0.0
H325 H 0.19347 0.5 0.97752 0.0
H326 H 0.22578 0.52498 0.94167 0.0
H327 H 0.34218 0.50034 0.92597 0.0
H328 H 0.40325 0.52189 0.81908 0.0
H329 H 0.36939 0.49723 0.85458 0.0
C330 C 0.72061 0.23508 0.30733 0.0
C331 C 0.75839 0.23344 0.31652 0.0
C332 C 0.72393 0.25273 0.28662 0.0
C333 C 0.81127 0.32842 0.24644 0.0
H334 H 0.70872 0.26985 0.20645 0.0
C335 C 0.83233 0.38143 0.15737 0.0
C336 C 0.79589 0.38467 0.14764 0.0
C337 C 0.8269 0.3622 0.17781 0.0
C338 C 0.73754 0.28696 0.21749 0.0
H339 H 0.82854 0.24749 0.31071 0.0
H340 H 0.83428 0.27788 0.2749 0.0
H341 H 0.70024 0.23802 0.24241 0.0
H342 H 0.72467 0.36901 0.15172 0.0
H343 H 0.7156 0.33646 0.18746 0.0
H344 H 0.84858 0.37738 0.22162 0.0
C345 C 0.80243 0.2666 0.28377 0.0
C346 C 0.73264 0.26869 0.23813 0.0
C347 C 0.79909 0.24902 0.30437 0.0
C348 C 0.75372 0.36767 0.15881 0.0
C349 C 0.74829 0.34844 0.17923 0.0
C350 C 0.81615 0.34668 0.22585 0.0
C351 C 0.76509 0.26911 0.27466 0.0
C352 C 0.76955 0.28906 0.25284 0.0
C353 C 0.78488 0.34565 0.18906 0.0
C354 C 0.77944 0.3261 0.21105 0.0
H355 H 0.68873 0.22338 0.31622 0.0
H356 H 0.69458 0.25443 0.28015 0.0
H357 H 0.84014 0.34556 0.25746 0.0
H358 H 0.8654 0.39449 0.14934 0.0
H359 H 0.85565 0.3601 0.18476 0.0
C360 C 0.48632 0.72079 0.63836 0.0
C361 C 0.51904 0.76084 0.64938 0.0
C362 C 0.47175 0.72428 0.61775 0.0
C363 C 0.46491 0.80832 0.58113 0.0
H364 H 0.45148 0.72043 0.53691 0.0
C365 C 0.43519 0.83607 0.49259 0.0
C366 C 0.40422 0.79678 0.48062 0.0
C367 C 0.44883 0.83111 0.51314 0.0
C368 C 0.45448 0.74495 0.54913 0.0
H369 H 0.56188 0.83604 0.6473 0.0
H370 H 0.53706 0.84192 0.61148 0.0
H371 H 0.47523 0.71227 0.57282 0.0
H372 H 0.36268 0.72146 0.48108 0.0
H373 H 0.38618 0.7128 0.51691 0.0
H374 H 0.44401 0.84092 0.55756 0.0
C375 C 0.52222 0.80785 0.61879 0.0
C376 C 0.46813 0.74025 0.56973 0.0
C377 C 0.53679 0.80437 0.63931 0.0
C378 C 0.3872 0.75242 0.48971 0.0
C379 C 0.40071 0.74746 0.51028 0.0
C380 C 0.45115 0.81294 0.56058 0.0
C381 C 0.48941 0.7679 0.60776 0.0
C382 C 0.47374 0.77203 0.58596 0.0
C383 C 0.4317 0.78673 0.52228 0.0
C384 C 0.44594 0.78145 0.54426 0.0
H385 H 0.4719 0.68674 0.64564 0.0
H386 H 0.44611 0.69286 0.60977 0.0
H387 H 0.46813 0.83295 0.59334 0.0
H388 H 0.44942 0.87071 0.48597 0.0
H389 H 0.47333 0.86211 0.52175 0.0
C390 C 0.75323 0.49125 0.973 0.0
C391 C 0.75935 0.53317 0.98156 0.0
C392 C 0.73538 0.47718 0.95229 0.0
C393 C 0.66588 0.49658 0.91138 0.0
H394 H 0.71069 0.43564 0.87311 0.0
C395 C 0.60616 0.45724 0.82319 0.0
C396 C 0.59675 0.41399 0.81482 0.0
C397 C 0.6273 0.47221 0.84323 0.0
C398 C 0.69743 0.4522 0.88368 0.0
H399 H 0.75402 0.59435 0.97456 0.0
H400 H 0.72338 0.5702 0.93867 0.0
H401 H 0.74565 0.46073 0.90847 0.0
H402 H 0.60334 0.35313 0.82091 0.0
H403 H 0.63926 0.37879 0.85595 0.0
H404 H 0.61761 0.48797 0.8867 0.0
C405 C 0.73107 0.54744 0.94806 0.0
C406 C 0.7175 0.46657 0.90397 0.0
C407 C 0.74877 0.56138 0.96868 0.0
C408 C 0.60946 0.38636 0.82695 0.0
C409 C 0.63064 0.40135 0.84696 0.0
C410 C 0.64586 0.48224 0.89112 0.0
C411 C 0.7234 0.50481 0.93968 0.0
C412 C 0.70206 0.48907 0.91808 0.0
C413 C 0.63969 0.44439 0.85542 0.0
C414 C 0.66138 0.45991 0.87697 0.0
H415 H 0.76094 0.46865 0.98251 0.0
H416 H 0.72968 0.444 0.94641 0.0
H417 H 0.65243 0.51296 0.92194 0.0
H418 H 0.59656 0.47929 0.81439 0.0
H419 H 0.63421 0.5058 0.84912 0.0
C420 C 0.34114 0.49223 0.04613 0.0
C421 C 0.3018 0.4569 0.05635 0.0
C422 C 0.38472 0.49771 0.05004 0.0
C423 C 0.44413 0.43675 0.06893 0.0
H424 H 0.54922 0.56257 0.06953 0.0
C425 C 0.65865 0.54248 0.07181 0.0
C426 C 0.66553 0.5135 0.05775 0.0
C427 C 0.61378 0.53397 0.07597 0.0
C428 C 0.52037 0.5272 0.06984 0.0
H429 H 0.27645 0.39882 0.07832 0.0
H430 H 0.35351 0.40874 0.08548 0.0
H431 H 0.47087 0.55035 0.06972 0.0
H432 H 0.63177 0.45357 0.03679 0.0
H433 H 0.55384 0.43977 0.04331 0.0
H434 H 0.49373 0.41361 0.06927 0.0
C435 C 0.35043 0.43203 0.07434 0.0
C436 C 0.47542 0.52019 0.06964 0.0
C437 C 0.30647 0.42634 0.07027 0.0
C438 C 0.62721 0.47622 0.04781 0.0
C439 C 0.58254 0.46802 0.05176 0.0
C440 C 0.48916 0.44374 0.06938 0.0
C441 C 0.39004 0.46821 0.06443 0.0
C442 C 0.43692 0.47498 0.06834 0.0
C443 C 0.57524 0.49667 0.06593 0.0
C444 C 0.52776 0.48908 0.06903 0.0
H445 H 0.33831 0.5159 0.03511 0.0
H446 H 0.41428 0.52498 0.04163 0.0
H447 H 0.41518 0.40149 0.06798 0.0
H448 H 0.68782 0.5713 0.07976 0.0
H449 H 0.6093 0.55647 0.08709 0.0
C450 C 0.09516 0.67217 0.40566 0.0
C451 C 0.13456 0.67187 0.39781 0.0
C452 C 0.05568 0.63044 0.41131 0.0
C453 C 0.01335 0.50833 0.42521 0.0
H454 H 0.90499 0.48249 0.3917 0.0
C455 C 0.87059 0.32279 0.40376 0.0
C456 C 0.82588 0.31483 0.39938 0.0
C457 C 0.90605 0.3675 0.40907 0.0
C458 C 0.93428 0.48921 0.40171 0.0
H459 H 0.1647 0.6286 0.39046 0.0
H460 H 0.09598 0.55591 0.40054 0.0
H461 H 0.97158 0.56045 0.39198 0.0
H462 H 0.78163 0.34562 0.39905 0.0
H463 H 0.84249 0.42268 0.40944 0.0
H464 H 0.97635 0.4369 0.43474 0.0
C465 C 0.09556 0.5882 0.40235 0.0
C466 C 0.97249 0.53399 0.40178 0.0
C467 C 0.13462 0.62968 0.39638 0.0
C468 C 0.81621 0.35118 0.40186 0.0
C469 C 0.85116 0.3954 0.40772 0.0
C470 C 0.97476 0.46357 0.42543 0.0
C471 C 0.05561 0.58818 0.40956 0.0
C472 C 0.01277 0.5435 0.41298 0.0
C473 C 0.89688 0.40457 0.41062 0.0
C474 C 0.9353 0.45318 0.41313 0.0
H475 H 0.09462 0.70443 0.40713 0.0
H476 H 0.02506 0.63103 0.4168 0.0
H477 H 0.04416 0.51518 0.43406 0.0
H478 H 0.87855 0.29501 0.40228 0.0
H479 H 0.94091 0.37328 0.41102 0.0
C480 C 0.42887 0.10789 0.73711 0.0
C481 C 0.46622 0.14963 0.72954 0.0
C482 C 0.43419 0.06917 0.7403 0.0
C483 C 0.51772 0.03048 0.74939 0.0
H484 H 0.4352 0.92364 0.71485 0.0
C485 C 0.55197 0.87898 0.73161 0.0
C486 C 0.51335 0.83484 0.72807 0.0
C487 C 0.54588 0.91728 0.735 0.0
C488 C 0.45791 0.95259 0.72504 0.0
H489 H 0.53886 0.18479 0.72037 0.0
H490 H 0.5483 0.1172 0.72637 0.0
H491 H 0.42422 0.99063 0.71608 0.0
H492 H 0.4381 0.79491 0.72707 0.0
H493 H 0.4273 0.86064 0.7342 0.0
H494 H 0.55119 -0.00769 0.75859 0.0
C495 C 0.51498 0.11441 0.72965 0.0
C496 C 0.45163 -0.00899 0.72563 0.0
C497 C 0.50945 0.15281 0.72609 0.0
C498 C 0.46858 0.82887 0.72929 0.0
C499 C 0.46241 0.86666 0.73324 0.0
C500 C 0.52352 -0.00844 0.74915 0.0
C501 C 0.47719 0.07215 0.73642 0.0
C502 C 0.48175 0.03035 0.73759 0.0
C503 C 0.50094 0.9116 0.73541 0.0
C504 C 0.49391 0.95232 0.73678 0.0
H505 H 0.39545 0.10492 0.74021 0.0
H506 H 0.40466 0.03678 0.74558 0.0
H507 H 0.5413 0.06069 0.75873 0.0
H508 H 0.58677 0.88416 0.73105 0.0
H509 H 0.57638 0.95142 0.73651 0.0
C510 C 0.57151 0.64006 0.6924 0.0
C511 C 0.59793 0.67275 0.7081 0.0
C512 C 0.54353 0.59354 0.69782 0.0
C513 C 0.4578 0.51816 0.71812 0.0
H514 H 0.48607 0.42881 0.74367 0.0
C515 C 0.3592 0.30831 0.73201 0.0
C516 C 0.36379 0.29562 0.71108 0.0
C517 C 0.38032 0.35541 0.73765 0.0
C518 C 0.47753 0.45387 0.73716 0.0
H519 H 0.61992 0.68257 0.74124 0.0
H520 H 0.57038 0.60013 0.75084 0.0
H521 H 0.54685 0.5111 0.74155 0.0
H522 H 0.39006 0.32077 0.67933 0.0
H523 H 0.42425 0.40285 0.68882 0.0
H524 H 0.38997 0.46048 0.71196 0.0
C525 C 0.57153 0.61073 0.73437 0.0
C526 C 0.51223 0.50067 0.73584 0.0
C527 C 0.60008 0.65764 0.72885 0.0
C528 C 0.38574 0.32998 0.69547 0.0
C529 C 0.40541 0.3767 0.70091 0.0
C530 C 0.42346 0.47156 0.71928 0.0
C531 C 0.54106 0.57908 0.71911 0.0
C532 C 0.50315 0.53252 0.72522 0.0
C533 C 0.40446 0.38968 0.72217 0.0
C534 C 0.43378 0.43887 0.7279 0.0
H535 H 0.56943 0.65112 0.67633 0.0
H536 H 0.52125 0.56941 0.68566 0.0
H537 H 0.44977 0.54247 0.71033 0.0
H538 H 0.34286 0.28214 0.74434 0.0
H539 H 0.37961 0.36502 0.75415 0.0
C540 C 0.04878 0.40524 0.02756 0.0
C541 C 0.05574 0.37923 0.04321 0.0
C542 C 0.03111 0.43392 0.03316 0.0
C543 C 0.04326 0.52098 0.05322 0.0
H544 H 0.92729 0.49416 0.0799 0.0
C545 C 0.92996 0.61771 0.06835 0.0
C546 C 0.91651 0.61701 0.04698 0.0
C547 C 0.95557 0.59622 0.07394 0.0
C548 C 0.96043 0.50231 0.07304 0.0
H549 H 0.04592 0.35895 0.07658 0.0
H550 H 0.01455 0.40971 0.0865 0.0
H551 H 0.94824 0.43287 0.07769 0.0
H552 H 0.92162 0.59713 1.01459 0.0
H553 H 0.96886 0.56238 0.02411 0.0
H554 H 0.05358 0.58891 0.0469 0.0
C555 C 0.02278 0.40768 0.06992 0.0
C556 C 0.97222 0.46733 0.07168 0.0
C557 C 0.04027 0.37844 0.06422 0.0
C558 C 0.93223 0.59849 0.03109 0.0
C559 C 0.95899 0.57855 0.03655 0.0
C560 C 0.03132 0.55559 0.05442 0.0
C561 C 0.02068 0.43752 0.05459 0.0
C562 C 0.01252 0.47585 0.06069 0.0
C563 C 0.96926 0.57564 0.05806 0.0
C564 C -0.01117 0.54579 0.06342 0.0
H565 H 0.06059 0.40632 1.0113 0.0
H566 H 0.0286 0.45576 0.02097 0.0
H567 H 0.07514 0.5286 0.04514 0.0
H568 H 0.91749 0.63129 0.08087 0.0
H569 H 0.96296 0.59391 0.09062 0.0
C570 C 0.31459 0.93644 0.39406 0.0
C571 C 0.30044 0.91362 0.37422 0.0
C572 C 0.36126 0.95706 0.40027 0.0
C573 C 0.47253 0.01747 0.39697 0.0
H574 H 0.51784 0.93026 0.39103 0.0
C575 C 0.6438 0.06288 0.36104 0.0
C576 C 0.67841 0.06835 0.37547 0.0
C577 C 0.59744 0.03913 0.36715 0.0
C578 C 0.50549 0.95463 0.39341 0.0
H579 H 0.32335 0.89748 0.34467 0.0
H580 H 0.40468 0.93423 0.35529 0.0
H581 H 0.43413 0.90173 0.39029 0.0
H582 H 0.69217 0.051 0.40704 0.0
H583 H 0.6098 0.00847 0.41773 0.0
H584 H 0.54405 0.07076 0.39799 0.0
C585 C 0.37991 0.93546 0.36616 0.0
C586 C 0.45789 0.93849 0.39288 0.0
C587 C 0.33368 0.91508 0.35999 0.0
C588 C 0.66583 0.0465 0.39556 0.0
C589 C 0.61906 0.02277 0.40176 0.0
C590 C 0.52017 0.03362 0.39734 0.0
C591 C 0.3936 0.9547 0.38665 0.0
C592 C 0.44137 0.97012 0.39356 0.0
C593 C 0.58505 0.02066 0.38779 0.0
C594 C 0.53682 0.00247 0.39457 0.0
H595 H 0.28925 0.93506 0.40538 0.0
H596 H 0.37151 0.97226 0.41606 0.0
H597 H 0.46037 0.0423 0.39741 0.0
H598 H 0.65289 0.07978 0.34555 0.0
H599 H 0.57138 0.03733 0.35614 0.0
C600 C 0.32653 0.17489 0.79056 0.0
C601 C 0.3588 0.21516 0.77958 0.0
C602 C 0.31206 0.17801 0.81128 0.0
C603 C 0.34492 0.25959 0.85781 0.0
H604 H 0.21691 0.17923 0.8749 0.0
C605 C 0.26539 0.29619 0.93236 0.0
C606 C 0.23782 0.25841 0.94586 0.0
C607 C 0.28043 0.28904 0.91256 0.0
C608 C 0.25288 0.20162 0.87043 0.0
H609 H 0.40057 0.29045 0.78179 0.0
H610 H 0.37467 0.29592 0.81731 0.0
H611 H 0.24241 0.17002 0.83951 0.0
H612 H 0.20397 0.1834 0.94897 0.0
H613 H 0.23 0.17087 0.91422 0.0
H614 H 0.35496 0.29195 0.88853 0.0
C615 C 0.36134 0.26169 0.81032 0.0
C616 C 0.26761 0.19627 0.85014 0.0
C617 C 0.37604 0.25855 0.78978 0.0
C618 C 0.22547 0.21325 0.93901 0.0
C619 C 0.24004 0.20604 0.91905 0.0
C620 C 0.33007 0.26523 0.87795 0.0
C621 C 0.32927 0.22152 0.82146 0.0
C622 C 0.31379 0.22548 0.84346 0.0
C623 C 0.26786 0.24389 0.90563 0.0
C624 C 0.28382 0.23657 0.88446 0.0
H625 H 0.31263 0.14092 0.78321 0.0
H626 H 0.28775 0.14622 0.8194 0.0
H627 H 0.381 0.28203 0.85354 0.0
H628 H 0.27576 0.33143 0.93722 0.0
H629 H 0.30148 0.3189 0.90252 0.0
C630 C 0.97655 0.22906 0.26697 0.0
C631 C 0.97687 0.26287 0.28075 0.0
C632 C -0.00386 0.24114 0.2465 0.0
C633 C 0.02743 0.32966 0.20439 0.0
H634 H 0.10526 0.28243 0.18264 0.0
C635 C 0.12745 0.39711 0.1251 0.0
C636 C 0.13145 0.36538 0.11157 0.0
C637 C 0.10981 0.38435 0.14582 0.0
C638 C 0.08311 0.29547 0.18831 0.0
H639 H -0.00067 0.33638 0.28364 0.0
H640 H 0.03254 0.35707 0.24789 0.0
H641 H 0.07174 0.26032 0.21838 0.0
H642 H 0.12027 0.29528 0.10941 0.0
H643 H 0.08859 0.2726 0.14542 0.0
H644 H 0.03786 0.36412 0.17433 0.0
C645 C 0.01673 0.32109 0.25291 0.0
C646 C 0.06397 0.28285 0.20885 0.0
C647 C -0.00248 0.30913 0.27344 0.0
C648 C 0.11796 0.3207 0.11943 0.0
C649 C 0.09991 0.30776 0.14016 0.0
C650 C 0.04619 0.34196 0.18381 0.0
C651 C 0.01621 0.28725 0.23916 0.0
C652 C 0.03613 0.30003 0.2172 0.0
C653 C 0.09519 0.3393 0.1536 0.0
C654 C 0.0746 0.32534 0.17549 0.0
H655 H 0.9603 0.19294 0.27179 0.0
H656 H -0.00536 0.2141 0.23622 0.0
H657 H 0.00547 0.34286 0.21017 0.0
H658 H 0.13791 0.432 0.1197 0.0
H659 H 0.10782 0.41005 0.15577 0.0
C660 C 0.6745 0.96105 0.5975 0.0
C661 C 0.71224 0.97127 0.61102 0.0
C662 C 0.68161 0.98267 0.57754 0.0
C663 C 0.7693 0.04179 0.5354 0.0
H664 H 0.68891 0.08929 0.51788 0.0
C665 C 0.79866 0.1447 0.45613 0.0
C666 C 0.75895 0.13719 0.44481 0.0
C667 C 0.79465 0.12606 0.47669 0.0
C668 C 0.71135 0.0757 0.52233 0.0
H669 H 0.78716 0.01178 0.61398 0.0
H670 H 0.7996 0.04943 0.57905 0.0
H671 H 0.67835 0.05319 0.55285 0.0
H672 H 0.68372 0.10313 0.44612 0.0
H673 H 0.67671 0.07008 0.48139 0.0
H674 H 0.80169 0.06333 0.50471 0.0
C675 C 0.76449 0.0247 0.58394 0.0
C676 C 0.70532 0.05509 0.54246 0.0
C677 C 0.75732 0.00345 0.60402 0.0
C678 C 0.7152 0.11026 0.45443 0.0
C679 C 0.71116 0.09141 0.47482 0.0
C680 C 0.77508 0.06204 0.51514 0.0
C681 C 0.72669 0.01472 0.57049 0.0
C682 C 0.73403 0.03765 0.54922 0.0
C683 C 0.75078 0.09919 0.48634 0.0
C684 C 0.74596 0.07904 0.50824 0.0
H685 H 0.6393 0.93668 0.60245 0.0
H686 H 0.65177 0.97388 0.56751 0.0
H687 H 0.79173 0.02831 0.54004 0.0
H688 H 0.8329 0.16531 0.44921 0.0
H689 H 0.82603 0.1333 0.4851 0.0
C690 C 0.65711 0.79608 0.7861 0.0
C691 C 0.61349 0.76242 0.77813 0.0
C692 C 0.67071 0.79249 0.80693 0.0
C693 C 0.62361 0.73808 0.85951 0.0
H694 H 0.74665 0.756 0.86937 0.0
C695 C 0.67276 0.68637 0.93946 0.0
C696 C 0.718 0.71439 0.9475 0.0
C697 C 0.66078 0.69403 0.91901 0.0
C698 C 0.71238 0.75153 0.86702 0.0
H699 H 0.54977 0.6989 0.78606 0.0
H700 H 0.57333 0.69291 0.82218 0.0
H701 H 0.72471 0.76732 0.83359 0.0
H702 H 0.78622 0.77239 0.93992 0.0
H703 H 0.76495 0.78669 0.90466 0.0
H704 H 0.61119 0.72263 0.89287 0.0
C705 C 0.59702 0.72218 0.81241 0.0
C706 C 0.6998 0.75799 0.84645 0.0
C707 C 0.58364 0.7255 0.79159 0.0
C708 C 0.75086 0.75044 0.93448 0.0
C709 C 0.73881 0.75825 0.91405 0.0
C710 C 0.63626 0.73194 0.88009 0.0
C711 C 0.64079 0.75546 0.82033 0.0
C712 C 0.65511 0.75091 0.8424 0.0
C713 C 0.69359 0.73012 0.90599 0.0
C714 C 0.68068 0.73814 0.88413 0.0
H715 H 0.68103 0.82488 0.77616 0.0
H716 H 0.70453 0.81891 0.8126 0.0
H717 H 0.58914 0.73304 0.85703 0.0
H718 H 0.64629 0.65861 0.94903 0.0
H719 H 0.6258 0.67116 0.91331 0.0
C720 C -0.00674 0.76019 0.26695 0.0
C721 C -0.00695 0.72709 0.28114 0.0
C722 C 0.97238 0.74687 0.24676 0.0
C723 C 0.93879 0.65618 0.20572 0.0
H724 H 0.85901 0.7012 0.18415 0.0
C725 C 0.83776 0.58531 0.12692 0.0
C726 C 0.83241 0.61609 0.11335 0.0
C727 C 0.85537 0.59875 0.14762 0.0
C728 C 0.8817 0.68876 0.18975 0.0
H729 H 0.96932 0.6535 0.28505 0.0
H730 H 0.93417 0.63069 0.2497 0.0
H731 H 0.89413 0.72533 0.21954 0.0
H732 H 0.84116 0.68522 0.11106 0.0
H733 H 0.87311 0.70926 0.14697 0.0
H734 H 0.92767 0.62061 0.17591 0.0
C735 C 0.95077 0.66705 0.25424 0.0
C736 C 0.90171 0.70252 0.2101 0.0
C737 C 0.97116 0.68025 0.27451 0.0
C738 C 0.84446 0.6605 0.12114 0.0
C739 C 0.86268 0.67421 0.14182 0.0
C740 C 0.91927 0.64286 0.18531 0.0
C741 C 0.95121 0.7002 0.2401 0.0
C742 C 0.93026 0.68614 0.21838 0.0
C743 C 0.86887 0.64367 0.15529 0.0
C744 C 0.89013 0.65864 0.17704 0.0
H745 H 0.01043 0.7967 0.27121 0.0
H746 H 0.97379 0.77334 0.23615 0.0
H747 H 0.96126 0.64358 0.21148 0.0
H748 H 0.8286 0.55072 0.12155 0.0
H749 H 0.8584 0.57372 0.15759 0.0
C750 C 0.23301 0.00041 0.60077 0.0
C751 C 0.26666 -2e-05 0.6143 0.0
C752 C 0.22491 0.98073 0.58028 0.0
C753 C 0.24517 0.89939 0.54668 0.0
H754 H 0.21765 0.95834 0.49983 0.0
C755 C 0.25079 0.85199 0.45822 0.0
C756 C 0.21493 0.84721 0.44461 0.0
C757 C 0.25489 0.86919 0.479 0.0
C758 C 0.2248 0.94117 0.51279 0.0
H759 H 0.31783 0.97773 0.61664 0.0
H760 H 0.30502 0.94517 0.5808 0.0
H761 H 0.22972 -0.00854 0.53569 0.0
H762 H 0.15527 0.85702 0.4423 0.0
H763 H 0.16269 0.88748 0.47867 0.0
H764 H 0.24126 0.84975 0.5236 0.0
C765 C 0.28414 0.95994 0.58615 0.0
C766 C 0.23165 0.9601 0.53341 0.0
C767 C 0.29202 0.97933 0.60668 0.0
C768 C 0.18322 0.86013 0.45236 0.0
C769 C 0.18764 0.87784 0.47314 0.0
C770 C 0.23872 0.88075 0.52604 0.0
C771 C 0.25042 0.96028 0.57263 0.0
C772 C 0.24215 0.93961 0.55066 0.0
C773 C 0.2235 0.8825 0.48673 0.0
C774 C 0.22867 0.9015 0.50882 0.0
H775 H 0.21318 0.01652 0.60586 0.0
H776 H 0.19827 0.98126 0.57051 0.0
H777 H 0.25217 0.88195 0.55955 0.0
H778 H 0.27583 0.84234 0.45286 0.0
H779 H 0.28321 0.87279 0.48893 0.0
loop_
_geom_bond_atom_site_label_1
_geom_bond_atom_site_label_2
_geom_bond_distance
_geom_bond_site_symmetry_2
_ccdc_geom_bond_type
Gd0 C3 2.818 . S
Gd0 O20 2.377 . S
Gd0 O22 2.448 . S
Gd0 O23 2.506 . S
Gd0 O24 2.435 . S
Gd0 O25 2.717 . S
Gd0 O27 2.395 . S
Gd0 O31 2.327 . S
Gd1 C12 2.818 1_554 S
Gd1 O21 2.395 . S
Gd1 O25 2.327 . S
Gd1 O26 2.377 1_554 S
Gd1 O28 2.448 1_554 S
Gd1 O29 2.506 1_554 S
Gd1 O30 2.435 . S
Gd1 O31 2.717 . S
C2 O20 1.240 . S
C2 O21 1.240 . S
C3 Gd0 2.818 . S
C3 C4 1.510 . S
C3 O22 1.249 . S
C3 O23 1.252 . S
C4 C3 1.510 . S
C4 C5 1.404 . S
C4 C6 1.352 . S
C5 C4 1.404 . S
C5 C9 1.389 . S
C5 H32 0.930 . S
C6 C4 1.352 . S
C6 C8 1.374 . S
C6 H33 0.931 . S
C7 C8 1.359 . S
C7 C9 1.364 . S
C8 C6 1.374 . S
C8 C7 1.359 . S
C8 H34 0.931 . S
C9 C5 1.389 . S
C9 C7 1.364 . S
C9 H35 0.931 . S
C10 O24 1.256 . S
C10 O25 1.257 . S
C11 O26 1.240 . S
C11 O27 1.240 1_556 S
C12 Gd1 2.818 1_556 S
C12 C13 1.510 . S
C12 O28 1.249 . S
C12 O29 1.252 . S
C13 C12 1.510 . S
C13 C14 1.404 . S
C13 C15 1.352 . S
C14 C13 1.404 . S
C14 C18 1.389 . S
C14 H36 0.930 . S
C15 C13 1.352 . S
C15 C17 1.374 . S
C15 H37 0.931 . S
C16 C17 1.359 . S
C16 C18 1.364 . S
C17 C15 1.374 . S
C17 C16 1.359 . S
C17 H38 0.931 . S
C18 C14 1.389 . S
C18 C16 1.364 . S
C18 H39 0.931 . S
C19 O30 1.256 . S
C19 O31 1.257 . S
O20 Gd0 2.377 . S
O20 C2 1.240 . S
O21 Gd1 2.395 . S
O21 C2 1.240 . S
O22 Gd0 2.448 . S
O22 C3 1.249 . S
O23 Gd0 2.506 . S
O23 C3 1.252 . S
O24 Gd0 2.435 . S
O24 C10 1.256 . S
O25 Gd0 2.717 . S
O25 Gd1 2.327 . S
O25 C10 1.257 . S
O26 Gd1 2.377 1_556 S
O26 C11 1.240 . S
O27 Gd0 2.395 . S
O27 C11 1.240 1_554 S
O28 Gd1 2.448 1_556 S
O28 C12 1.249 . S
O29 Gd1 2.506 1_556 S
O29 C12 1.252 . S
O30 Gd1 2.435 . S
O30 C19 1.256 . S
O31 Gd0 2.327 . S
O31 Gd1 2.717 . S
O31 C19 1.257 . S
H32 C5 0.930 . S
H33 C6 0.931 . S
H34 C8 0.931 . S
H35 C9 0.931 . S
H36 C14 0.930 . S
H37 C15 0.931 . S
H38 C17 0.931 . S
H39 C18 0.931 . S
Gd40 C43 2.818 . S
Gd40 O60 2.377 . S
Gd40 O62 2.448 . S
Gd40 O63 2.506 . S
Gd40 O64 2.435 . S
Gd40 O65 2.717 . S
Gd40 O67 2.395 . S
Gd40 O71 2.327 . S
Gd41 C52 2.818 . S
Gd41 O61 2.395 . S
Gd41 O65 2.327 . S
Gd41 O66 2.377 . S
Gd41 O68 2.448 . S
Gd41 O69 2.506 . S
Gd41 O70 2.435 . S
Gd41 O71 2.717 . S
C42 O60 1.240 . S
C42 O61 1.240 . S
C43 Gd40 2.818 . S
C43 C44 1.510 . S
C43 O62 1.249 . S
C43 O63 1.252 . S
C44 C43 1.510 . S
C44 C45 1.404 . S
C44 C46 1.352 . S
C45 C44 1.404 . S
C45 C49 1.389 . S
C45 H72 0.930 . S
C46 C44 1.352 . S
C46 C48 1.374 . S
C46 H73 0.931 . S
C47 C48 1.359 . S
C47 C49 1.364 . S
C48 C46 1.374 . S
C48 C47 1.359 . S
C48 H74 0.931 . S
C49 C45 1.389 . S
C49 C47 1.364 . S
C49 H75 0.931 . S
C50 O64 1.256 . S
C50 O65 1.257 . S
C51 O66 1.240 . S
C51 O67 1.240 . S
C52 Gd41 2.818 . S
C52 C53 1.510 . S
C52 O68 1.249 . S
C52 O69 1.252 . S
C53 C52 1.510 . S
C53 C54 1.404 . S
C53 C55 1.352 . S
C54 C53 1.404 . S
C54 C58 1.389 . S
C54 H76 0.930 . S
C55 C53 1.352 . S
C55 C57 1.374 . S
C55 H77 0.931 . S
C56 C57 1.359 . S
C56 C58 1.364 . S
C57 C55 1.374 . S
C57 C56 1.359 . S
C57 H78 0.931 . S
C58 C54 1.389 . S
C58 C56 1.364 . S
C58 H79 0.931 . S
C59 O70 1.256 . S
C59 O71 1.257 . S
O60 Gd40 2.377 . S
O60 C42 1.240 . S
O61 Gd41 2.395 . S
O61 C42 1.240 . S
O62 Gd40 2.448 . S
O62 C43 1.249 . S
O63 Gd40 2.506 . S
O63 C43 1.252 . S
O64 Gd40 2.435 . S
O64 C50 1.256 . S
O65 Gd40 2.717 . S
O65 Gd41 2.327 . S
O65 C50 1.257 . S
O66 Gd41 2.377 . S
O66 C51 1.240 . S
O67 Gd40 2.395 . S
O67 C51 1.240 . S
O68 Gd41 2.448 . S
O68 C52 1.249 . S
O69 Gd41 2.506 . S
O69 C52 1.252 . S
O70 Gd41 2.435 . S
O70 C59 1.256 . S
O71 Gd40 2.327 . S
O71 Gd41 2.717 . S
O71 C59 1.257 . S
H72 C45 0.930 . S
H73 C46 0.931 . S
H74 C48 0.931 . S
H75 C49 0.931 . S
H76 C54 0.930 . S
H77 C55 0.931 . S
H78 C57 0.931 . S
H79 C58 0.931 . S
Gd80 C83 2.818 . S
Gd80 O100 2.377 . S
Gd80 O102 2.448 . S
Gd80 O103 2.506 . S
Gd80 O104 2.435 . S
Gd80 O105 2.717 . S
Gd80 O107 2.395 . S
Gd80 O111 2.327 . S
Gd81 C92 2.818 . S
Gd81 O101 2.395 . S
Gd81 O105 2.327 . S
Gd81 O106 2.377 . S
Gd81 O108 2.448 . S
Gd81 O109 2.506 . S
Gd81 O110 2.435 . S
Gd81 O111 2.717 . S
C82 O100 1.240 . S
C82 O101 1.240 . S
C83 Gd80 2.818 . S
C83 C84 1.510 . S
C83 O102 1.249 . S
C83 O103 1.252 . S
C84 C83 1.510 . S
C84 C85 1.404 . S
C84 C86 1.352 . S
C85 C84 1.404 . S
C85 C89 1.389 . S
C85 H112 0.930 . S
C86 C84 1.352 . S
C86 C88 1.374 . S
C86 H113 0.931 . S
C87 C88 1.359 . S
C87 C89 1.364 . S
C88 C86 1.374 . S
C88 C87 1.359 . S
C88 H114 0.931 . S
C89 C85 1.389 . S
C89 C87 1.364 . S
C89 H115 0.931 . S
C90 O104 1.256 . S
C90 O105 1.257 . S
C91 O106 1.240 . S
C91 O107 1.240 . S
C92 Gd81 2.818 . S
C92 C93 1.510 . S
C92 O108 1.249 . S
C92 O109 1.252 . S
C93 C92 1.510 . S
C93 C94 1.404 . S
C93 C95 1.352 . S
C94 C93 1.404 . S
C94 C98 1.389 . S
C94 H116 0.930 . S
C95 C93 1.352 . S
C95 C97 1.374 . S
C95 H117 0.931 . S
C96 C97 1.359 . S
C96 C98 1.364 . S
C97 C95 1.374 . S
C97 C96 1.359 . S
C97 H118 0.931 . S
C98 C94 1.389 . S
C98 C96 1.364 . S
C98 H119 0.931 . S
C99 O110 1.256 . S
C99 O111 1.257 . S
O100 Gd80 2.377 . S
O100 C82 1.240 . S
O101 Gd81 2.395 . S
O101 C82 1.240 . S
O102 Gd80 2.448 . S
O102 C83 1.249 . S
O103 Gd80 2.506 . S
O103 C83 1.252 . S
O104 Gd80 2.435 . S
O104 C90 1.256 . S
O105 Gd80 2.717 . S
O105 Gd81 2.327 . S
O105 C90 1.257 . S
O106 Gd81 2.377 . S
O106 C91 1.240 . S
O107 Gd80 2.395 . S
O107 C91 1.240 . S
O108 Gd81 2.448 . S
O108 C92 1.249 . S
O109 Gd81 2.506 . S
O109 C92 1.252 . S
O110 Gd81 2.435 . S
O110 C99 1.256 . S
O111 Gd80 2.327 . S
O111 Gd81 2.717 . S
O111 C99 1.257 . S
H112 C85 0.930 . S
H113 C86 0.931 . S
H114 C88 0.931 . S
H115 C89 0.931 . S
H116 C94 0.930 . S
H117 C95 0.931 . S
H118 C97 0.931 . S
H119 C98 0.931 . S
Gd120 C123 2.818 . S
Gd120 O140 2.377 . S
Gd120 O142 2.448 . S
Gd120 O143 2.506 . S
Gd120 O144 2.435 . S
Gd120 O145 2.717 . S
Gd120 O147 2.395 . S
Gd120 O151 2.327 . S
Gd121 C132 2.818 1_554 S
Gd121 O141 2.395 . S
Gd121 O145 2.327 . S
Gd121 O146 2.377 1_554 S
Gd121 O148 2.448 1_554 S
Gd121 O149 2.506 1_554 S
Gd121 O150 2.435 . S
Gd121 O151 2.717 . S
C122 O140 1.240 . S
C122 O141 1.240 . S
C123 Gd120 2.818 . S
C123 C124 1.510 . S
C123 O142 1.249 . S
C123 O143 1.252 . S
C124 C123 1.510 . S
C124 C125 1.404 . S
C124 C126 1.352 . S
C125 C124 1.404 . S
C125 C129 1.389 . S
C125 H152 0.930 . S
C126 C124 1.352 . S
C126 C128 1.374 . S
C126 H153 0.931 . S
C127 C128 1.359 . S
C127 C129 1.364 . S
C128 C126 1.374 . S
C128 C127 1.359 . S
C128 H154 0.931 . S
C129 C125 1.389 . S
C129 C127 1.364 . S
C129 H155 0.931 . S
C130 O144 1.256 . S
C130 O145 1.257 . S
C131 O146 1.240 . S
C131 O147 1.240 1_556 S
C132 Gd121 2.818 1_556 S
C132 C133 1.510 . S
C132 O148 1.249 . S
C132 O149 1.252 . S
C133 C132 1.510 . S
C133 C134 1.404 . S
C133 C135 1.352 . S
C134 C133 1.404 . S
C134 C138 1.389 . S
C134 H156 0.930 . S
C135 C133 1.352 . S
C135 C137 1.374 . S
C135 H157 0.931 . S
C136 C137 1.359 . S
C136 C138 1.364 . S
C137 C135 1.374 . S
C137 C136 1.359 . S
C137 H158 0.931 . S
C138 C134 1.389 . S
C138 C136 1.364 . S
C138 H159 0.931 . S
C139 O150 1.256 . S
C139 O151 1.257 . S
O140 Gd120 2.377 . S
O140 C122 1.240 . S
O141 Gd121 2.395 . S
O141 C122 1.240 . S
O142 Gd120 2.448 . S
O142 C123 1.249 . S
O143 Gd120 2.506 . S
O143 C123 1.252 . S
O144 Gd120 2.435 . S
O144 C130 1.256 . S
O145 Gd120 2.717 . S
O145 Gd121 2.327 . S
O145 C130 1.257 . S
O146 Gd121 2.377 1_556 S
O146 C131 1.240 . S
O147 Gd120 2.395 . S
O147 C131 1.240 1_554 S
O148 Gd121 2.448 1_556 S
O148 C132 1.249 . S
O149 Gd121 2.506 1_556 S
O149 C132 1.252 . S
O150 Gd121 2.435 . S
O150 C139 1.256 . S
O151 Gd120 2.327 . S
O151 Gd121 2.717 . S
O151 C139 1.257 . S
H152 C125 0.930 . S
H153 C126 0.931 . S
H154 C128 0.931 . S
H155 C129 0.931 . S
H156 C134 0.930 . S
H157 C135 0.931 . S
H158 C137 0.931 . S
H159 C138 0.931 . S
Gd160 C163 2.818 . S
Gd160 O180 2.377 . S
Gd160 O182 2.448 . S
Gd160 O183 2.506 . S
Gd160 O184 2.435 . S
Gd160 O185 2.717 . S
Gd160 O187 2.395 . S
Gd160 O191 2.327 . S
Gd161 C172 2.818 . S
Gd161 O181 2.395 . S
Gd161 O185 2.327 . S
Gd161 O186 2.377 . S
Gd161 O188 2.448 . S
Gd161 O189 2.506 . S
Gd161 O190 2.435 . S
Gd161 O191 2.717 . S
C162 O180 1.240 . S
C162 O181 1.240 . S
C163 Gd160 2.818 . S
C163 C164 1.510 . S
C163 O182 1.249 . S
C163 O183 1.252 . S
C164 C163 1.510 . S
C164 C165 1.404 . S
C164 C166 1.352 . S
C165 C164 1.404 . S
C165 C169 1.389 . S
C165 H192 0.930 . S
C166 C164 1.352 . S
C166 C168 1.374 . S
C166 H193 0.931 . S
C167 C168 1.359 . S
C167 C169 1.364 . S
C168 C166 1.374 . S
C168 C167 1.359 . S
C168 H194 0.931 . S
C169 C165 1.389 . S
C169 C167 1.364 . S
C169 H195 0.931 . S
C170 O184 1.256 . S
C170 O185 1.257 . S
C171 O186 1.240 . S
C171 O187 1.240 . S
C172 Gd161 2.818 . S
C172 C173 1.510 . S
C172 O188 1.249 . S
C172 O189 1.252 . S
C173 C172 1.510 . S
C173 C174 1.404 . S
C173 C175 1.352 . S
C174 C173 1.404 . S
C174 C178 1.389 . S
C174 H196 0.930 . S
C175 C173 1.352 . S
C175 C177 1.374 . S
C175 H197 0.931 . S
C176 C177 1.359 . S
C176 C178 1.364 . S
C177 C175 1.374 . S
C177 C176 1.359 . S
C177 H198 0.931 . S
C178 C174 1.389 . S
C178 C176 1.364 . S
C178 H199 0.931 . S
C179 O190 1.256 . S
C179 O191 1.257 . S
O180 Gd160 2.377 . S
O180 C162 1.240 . S
O181 Gd161 2.395 . S
O181 C162 1.240 . S
O182 Gd160 2.448 . S
O182 C163 1.249 . S
O183 Gd160 2.506 . S
O183 C163 1.252 . S
O184 Gd160 2.435 . S
O184 C170 1.256 . S
O185 Gd160 2.717 . S
O185 Gd161 2.327 . S
O185 C170 1.257 . S
O186 Gd161 2.377 . S
O186 C171 1.240 . S
O187 Gd160 2.395 . S
O187 C171 1.240 . S
O188 Gd161 2.448 . S
O188 C172 1.249 . S
O189 Gd161 2.506 . S
O189 C172 1.252 . S
O190 Gd161 2.435 . S
O190 C179 1.256 . S
O191 Gd160 2.327 . S
O191 Gd161 2.717 . S
O191 C179 1.257 . S
H192 C165 0.930 . S
H193 C166 0.931 . S
H194 C168 0.931 . S
H195 C169 0.931 . S
H196 C174 0.930 . S
H197 C175 0.931 . S
H198 C177 0.931 . S
H199 C178 0.931 . S
Gd200 C203 2.818 . S
Gd200 O220 2.377 . S
Gd200 O222 2.448 . S
Gd200 O223 2.506 . S
Gd200 O224 2.435 . S
Gd200 O225 2.717 . S
Gd200 O227 2.395 . S
Gd200 O231 2.327 . S
Gd201 C212 2.818 . S
Gd201 O221 2.395 . S
Gd201 O225 2.327 . S
Gd201 O226 2.377 . S
Gd201 O228 2.448 . S
Gd201 O229 2.506 . S
Gd201 O230 2.435 . S
Gd201 O231 2.717 . S
C202 O220 1.240 . S
C202 O221 1.240 . S
C203 Gd200 2.818 . S
C203 C204 1.510 . S
C203 O222 1.249 . S
C203 O223 1.252 . S
C204 C203 1.510 . S
C204 C205 1.404 . S
C204 C206 1.352 . S
C205 C204 1.404 . S
C205 C209 1.389 . S
C205 H232 0.930 . S
C206 C204 1.352 . S
C206 C208 1.374 . S
C206 H233 0.931 . S
C207 C208 1.359 . S
C207 C209 1.364 . S
C208 C206 1.374 . S
C208 C207 1.359 . S
C208 H234 0.931 . S
C209 C205 1.389 . S
C209 C207 1.364 . S
C209 H235 0.931 . S
C210 O224 1.256 . S
C210 O225 1.257 . S
C211 O226 1.240 . S
C211 O227 1.240 . S
C212 Gd201 2.818 . S
C212 C213 1.510 . S
C212 O228 1.249 . S
C212 O229 1.252 . S
C213 C212 1.510 . S
C213 C214 1.404 . S
C213 C215 1.352 . S
C214 C213 1.404 . S
C214 C218 1.389 . S
C214 H236 0.930 . S
C215 C213 1.352 . S
C215 C217 1.374 . S
C215 H237 0.931 . S
C216 C217 1.359 . S
C216 C218 1.364 . S
C217 C215 1.374 . S
C217 C216 1.359 . S
C217 H238 0.931 . S
C218 C214 1.389 . S
C218 C216 1.364 . S
C218 H239 0.931 . S
C219 O230 1.256 . S
C219 O231 1.257 . S
O220 Gd200 2.377 . S
O220 C202 1.240 . S
O221 Gd201 2.395 . S
O221 C202 1.240 . S
O222 Gd200 2.448 . S
O222 C203 1.249 . S
O223 Gd200 2.506 . S
O223 C203 1.252 . S
O224 Gd200 2.435 . S
O224 C210 1.256 . S
O225 Gd200 2.717 . S
O225 Gd201 2.327 . S
O225 C210 1.257 . S
O226 Gd201 2.377 . S
O226 C211 1.240 . S
O227 Gd200 2.395 . S
O227 C211 1.240 . S
O228 Gd201 2.448 . S
O228 C212 1.249 . S
O229 Gd201 2.506 . S
O229 C212 1.252 . S
O230 Gd201 2.435 . S
O230 C219 1.256 . S
O231 Gd200 2.327 . S
O231 Gd201 2.717 . S
O231 C219 1.257 . S
H232 C205 0.930 . S
H233 C206 0.931 . S
H234 C208 0.931 . S
H235 C209 0.931 . S
H236 C214 0.930 . S
H237 C215 0.931 . S
H238 C217 0.931 . S
H239 C218 0.931 . S
C240 C241 1.349 . S
C240 C242 1.327 . S
C240 H265 0.950 . S
C241 C240 1.349 . S
C241 C257 1.349 . S
C242 C240 1.327 . S
C242 C261 1.429 . S
C242 H266 0.950 . S
C243 C260 1.574 . S
C243 C262 1.368 . S
C243 H267 0.949 . S
H244 C248 0.949 . S
C245 C246 1.349 . S
C245 C247 1.327 . S
C245 H268 0.950 . S
C246 C245 1.349 . S
C246 C258 1.349 . S
C247 C245 1.327 . S
C247 C263 1.429 . S
C247 H269 0.950 . S
C248 H244 0.949 . S
C248 C256 1.574 . S
C248 C264 1.368 . S
H249 C257 0.950 . S
H250 C255 0.950 . S
H251 C256 0.949 . S
H252 C258 0.950 . S
H253 C259 0.950 . S
H254 C260 0.949 . S
C255 H250 0.950 . S
C255 C257 1.327 . S
C255 C261 1.429 . S
C256 C248 1.574 . S
C256 H251 0.949 . S
C256 C262 1.368 . S
C257 C241 1.349 . S
C257 H249 0.950 . S
C257 C255 1.327 . S
C258 C246 1.349 . S
C258 H252 0.950 . S
C258 C259 1.327 . S
C259 H253 0.950 . S
C259 C258 1.327 . S
C259 C263 1.429 . S
C260 C243 1.574 . S
C260 H254 0.949 . S
C260 C264 1.368 . S
C261 C242 1.429 . S
C261 C255 1.429 . S
C261 C262 1.523 . S
C262 C243 1.368 . S
C262 C256 1.368 . S
C262 C261 1.523 . S
C263 C247 1.429 . S
C263 C259 1.429 . S
C263 C264 1.523 . S
C264 C248 1.368 . S
C264 C260 1.368 . S
C264 C263 1.523 . S
H265 C240 0.950 . S
H266 C242 0.950 . S
H267 C243 0.949 . S
H268 C245 0.950 . S
H269 C247 0.950 . S
C270 C271 1.349 . S
C270 C272 1.327 . S
C270 H295 0.950 . S
C271 C270 1.349 . S
C271 C287 1.349 . S
C272 C270 1.327 . S
C272 C291 1.429 . S
C272 H296 0.950 . S
C273 C290 1.574 . S
C273 C292 1.368 . S
C273 H297 0.949 . S
H274 C278 0.949 . S
C275 C276 1.349 . S
C275 C277 1.327 . S
C275 H298 0.950 . S
C276 C275 1.349 . S
C276 C288 1.349 . S
C277 C275 1.327 . S
C277 C293 1.429 . S
C277 H299 0.950 . S
C278 H274 0.949 . S
C278 C286 1.574 . S
C278 C294 1.368 . S
H279 C287 0.950 . S
H280 C285 0.950 . S
H281 C286 0.949 . S
H282 C288 0.950 . S
H283 C289 0.950 . S
H284 C290 0.949 . S
C285 H280 0.950 . S
C285 C287 1.327 . S
C285 C291 1.429 . S
C286 C278 1.574 . S
C286 H281 0.949 . S
C286 C292 1.368 . S
C287 C271 1.349 . S
C287 H279 0.950 . S
C287 C285 1.327 . S
C288 C276 1.349 . S
C288 H282 0.950 . S
C288 C289 1.327 . S
C289 H283 0.950 . S
C289 C288 1.327 . S
C289 C293 1.429 . S
C290 C273 1.574 . S
C290 H284 0.949 . S
C290 C294 1.368 . S
C291 C272 1.429 . S
C291 C285 1.429 . S
C291 C292 1.523 . S
C292 C273 1.368 . S
C292 C286 1.368 . S
C292 C291 1.523 . S
C293 C277 1.429 . S
C293 C289 1.429 . S
C293 C294 1.523 . S
C294 C278 1.368 . S
C294 C290 1.368 . S
C294 C293 1.523 . S
H295 C270 0.950 . S
H296 C272 0.950 . S
H297 C273 0.949 . S
H298 C275 0.950 . S
H299 C277 0.950 . S
C300 C301 1.349 . S
C300 C302 1.327 . S
C300 H325 0.950 . S
C301 C300 1.349 . S
C301 C317 1.349 . S
C302 C300 1.327 . S
C302 C321 1.429 . S
C302 H326 0.950 . S
C303 C320 1.574 . S
C303 C322 1.368 . S
C303 H327 0.949 . S
H304 C308 0.949 . S
C305 C306 1.349 . S
C305 C307 1.327 . S
C305 H328 0.950 . S
C306 C305 1.349 . S
C306 C318 1.349 . S
C307 C305 1.327 . S
C307 C323 1.429 . S
C307 H329 0.950 . S
C308 H304 0.949 . S
C308 C316 1.574 . S
C308 C324 1.368 . S
H309 C317 0.950 . S
H310 C315 0.950 . S
H311 C316 0.949 . S
H312 C318 0.950 . S
H313 C319 0.950 . S
H314 C320 0.949 . S
C315 H310 0.950 . S
C315 C317 1.327 . S
C315 C321 1.429 . S
C316 C308 1.574 . S
C316 H311 0.949 . S
C316 C322 1.368 . S
C317 C301 1.349 . S
C317 H309 0.950 . S
C317 C315 1.327 . S
C318 C306 1.349 . S
C318 H312 0.950 . S
C318 C319 1.327 . S
C319 H313 0.950 . S
C319 C318 1.327 . S
C319 C323 1.429 . S
C320 C303 1.574 . S
C320 H314 0.949 . S
C320 C324 1.368 . S
C321 C302 1.429 . S
C321 C315 1.429 . S
C321 C322 1.523 . S
C322 C303 1.368 . S
C322 C316 1.368 . S
C322 C321 1.523 . S
C323 C307 1.429 . S
C323 C319 1.429 . S
C323 C324 1.523 . S
C324 C308 1.368 . S
C324 C320 1.368 . S
C324 C323 1.523 . S
H325 C300 0.950 . S
H326 C302 0.950 . S
H327 C303 0.949 . S
H328 C305 0.950 . S
H329 C307 0.950 . S
C330 C331 1.349 . S
C330 C332 1.327 . S
C330 H355 0.950 . S
C331 C330 1.349 . S
C331 C347 1.349 . S
C332 C330 1.327 . S
C332 C351 1.429 . S
C332 H356 0.950 . S
C333 C350 1.574 . S
C333 C352 1.368 . S
C333 H357 0.949 . S
H334 C338 0.949 . S
C335 C336 1.349 . S
C335 C337 1.327 . S
C335 H358 0.950 . S
C336 C335 1.349 . S
C336 C348 1.349 . S
C337 C335 1.327 . S
C337 C353 1.429 . S
C337 H359 0.950 . S
C338 H334 0.949 . S
C338 C346 1.574 . S
C338 C354 1.368 . S
H339 C347 0.950 . S
H340 C345 0.950 . S
H341 C346 0.949 . S
H342 C348 0.950 . S
H343 C349 0.950 . S
H344 C350 0.949 . S
C345 H340 0.950 . S
C345 C347 1.327 . S
C345 C351 1.429 . S
C346 C338 1.574 . S
C346 H341 0.949 . S
C346 C352 1.368 . S
C347 C331 1.349 . S
C347 H339 0.950 . S
C347 C345 1.327 . S
C348 C336 1.349 . S
C348 H342 0.950 . S
C348 C349 1.327 . S
C349 H343 0.950 . S
C349 C348 1.327 . S
C349 C353 1.429 . S
C350 C333 1.574 . S
C350 H344 0.949 . S
C350 C354 1.368 . S
C351 C332 1.429 . S
C351 C345 1.429 . S
C351 C352 1.523 . S
C352 C333 1.368 . S
C352 C346 1.368 . S
C352 C351 1.523 . S
C353 C337 1.429 . S
C353 C349 1.429 . S
C353 C354 1.523 . S
C354 C338 1.368 . S
C354 C350 1.368 . S
C354 C353 1.523 . S
H355 C330 0.950 . S
H356 C332 0.950 . S
H357 C333 0.949 . S
H358 C335 0.950 . S
H359 C337 0.950 . S
C360 C361 1.349 . S
C360 C362 1.327 . S
C360 H385 0.950 . S
C361 C360 1.349 . S
C361 C377 1.349 . S
C362 C360 1.327 . S
C362 C381 1.429 . S
C362 H386 0.950 . S
C363 C380 1.574 . S
C363 C382 1.368 . S
C363 H387 0.949 . S
H364 C368 0.949 . S
C365 C366 1.349 . S
C365 C367 1.327 . S
C365 H388 0.950 . S
C366 C365 1.349 . S
C366 C378 1.349 . S
C367 C365 1.327 . S
C367 C383 1.429 . S
C367 H389 0.950 . S
C368 H364 0.949 . S
C368 C376 1.574 . S
C368 C384 1.368 . S
H369 C377 0.950 . S
H370 C375 0.950 . S
H371 C376 0.949 . S
H372 C378 0.950 . S
H373 C379 0.950 . S
H374 C380 0.949 . S
C375 H370 0.950 . S
C375 C377 1.327 . S
C375 C381 1.429 . S
C376 C368 1.574 . S
C376 H371 0.949 . S
C376 C382 1.368 . S
C377 C361 1.349 . S
C377 H369 0.950 . S
C377 C375 1.327 . S
C378 C366 1.349 . S
C378 H372 0.950 . S
C378 C379 1.327 . S
C379 H373 0.950 . S
C379 C378 1.327 . S
C379 C383 1.429 . S
C380 C363 1.574 . S
C380 H374 0.949 . S
C380 C384 1.368 . S
C381 C362 1.429 . S
C381 C375 1.429 . S
C381 C382 1.523 . S
C382 C363 1.368 . S
C382 C376 1.368 . S
C382 C381 1.523 . S
C383 C367 1.429 . S
C383 C379 1.429 . S
C383 C384 1.523 . S
C384 C368 1.368 . S
C384 C380 1.368 . S
C384 C383 1.523 . S
H385 C360 0.950 . S
H386 C362 0.950 . S
H387 C363 0.949 . S
H388 C365 0.950 . S
H389 C367 0.950 . S
C390 C391 1.349 . S
C390 C392 1.327 . S
C390 H415 0.950 . S
C391 C390 1.349 . S
C391 C407 1.349 . S
C392 C390 1.327 . S
C392 C411 1.429 . S
C392 H416 0.950 . S
C393 C410 1.574 . S
C393 C412 1.368 . S
C393 H417 0.949 . S
H394 C398 0.949 . S
C395 C396 1.349 . S
C395 C397 1.327 . S
C395 H418 0.950 . S
C396 C395 1.349 . S
C396 C408 1.349 . S
C397 C395 1.327 . S
C397 C413 1.429 . S
C397 H419 0.950 . S
C398 H394 0.949 . S
C398 C406 1.574 . S
C398 C414 1.368 . S
H399 C407 0.950 . S
H400 C405 0.950 . S
H401 C406 0.949 . S
H402 C408 0.950 . S
H403 C409 0.950 . S
H404 C410 0.949 . S
C405 H400 0.950 . S
C405 C407 1.327 . S
C405 C411 1.429 . S
C406 C398 1.574 . S
C406 H401 0.949 . S
C406 C412 1.368 . S
C407 C391 1.349 . S
C407 H399 0.950 . S
C407 C405 1.327 . S
C408 C396 1.349 . S
C408 H402 0.950 . S
C408 C409 1.327 . S
C409 H403 0.950 . S
C409 C408 1.327 . S
C409 C413 1.429 . S
C410 C393 1.574 . S
C410 H404 0.949 . S
C410 C414 1.368 . S
C411 C392 1.429 . S
C411 C405 1.429 . S
C411 C412 1.523 . S
C412 C393 1.368 . S
C412 C406 1.368 . S
C412 C411 1.523 . S
C413 C397 1.429 . S
C413 C409 1.429 . S
C413 C414 1.523 . S
C414 C398 1.368 . S
C414 C410 1.368 . S
C414 C413 1.523 . S
H415 C390 0.950 . S
H416 C392 0.950 . S
H417 C393 0.949 . S
H418 C395 0.950 . S
H419 C397 0.950 . S
C420 C421 1.349 . S
C420 C422 1.327 . S
C420 H445 0.950 . S
C421 C420 1.349 . S
C421 C437 1.349 . S
C422 C420 1.327 . S
C422 C441 1.429 . S
C422 H446 0.950 . S
C423 C440 1.574 . S
C423 C442 1.368 . S
C423 H447 0.949 . S
H424 C428 0.949 . S
C425 C426 1.349 . S
C425 C427 1.327 . S
C425 H448 0.950 . S
C426 C425 1.349 . S
C426 C438 1.349 . S
C427 C425 1.327 . S
C427 C443 1.429 . S
C427 H449 0.950 . S
C428 H424 0.949 . S
C428 C436 1.574 . S
C428 C444 1.368 . S
H429 C437 0.950 . S
H430 C435 0.950 . S
H431 C436 0.949 . S
H432 C438 0.950 . S
H433 C439 0.950 . S
H434 C440 0.949 . S
C435 H430 0.950 . S
C435 C437 1.327 . S
C435 C441 1.429 . S
C436 C428 1.574 . S
C436 H431 0.949 . S
C436 C442 1.368 . S
C437 C421 1.349 . S
C437 H429 0.950 . S
C437 C435 1.327 . S
C438 C426 1.349 . S
C438 H432 0.950 . S
C438 C439 1.327 . S
C439 H433 0.950 . S
C439 C438 1.327 . S
C439 C443 1.429 . S
C440 C423 1.574 . S
C440 H434 0.949 . S
C440 C444 1.368 . S
C441 C422 1.429 . S
C441 C435 1.429 . S
C441 C442 1.523 . S
C442 C423 1.368 . S
C442 C436 1.368 . S
C442 C441 1.523 . S
C443 C427 1.429 . S
C443 C439 1.429 . S
C443 C444 1.523 . S
C444 C428 1.368 . S
C444 C440 1.368 . S
C444 C443 1.523 . S
H445 C420 0.950 . S
H446 C422 0.950 . S
H447 C423 0.949 . S
H448 C425 0.950 . S
H449 C427 0.950 . S
C450 C451 1.349 . S
C450 C452 1.327 . S
C450 H475 0.950 . S
C451 C450 1.349 . S
C451 C467 1.349 . S
C452 C450 1.327 . S
C452 C471 1.429 . S
C452 H476 0.950 . S
C453 C470 1.574 . S
C453 C472 1.368 . S
C453 H477 0.949 . S
H454 C458 0.949 . S
C455 C456 1.349 . S
C455 C457 1.327 . S
C455 H478 0.950 . S
C456 C455 1.349 . S
C456 C468 1.349 . S
C457 C455 1.327 . S
C457 C473 1.429 . S
C457 H479 0.950 . S
C458 H454 0.949 . S
C458 C466 1.574 . S
C458 C474 1.368 . S
H459 C467 0.950 . S
H460 C465 0.950 . S
H461 C466 0.949 . S
H462 C468 0.950 . S
H463 C469 0.950 . S
H464 C470 0.949 . S
C465 H460 0.950 . S
C465 C467 1.327 . S
C465 C471 1.429 . S
C466 C458 1.574 . S
C466 H461 0.949 . S
C466 C472 1.368 1_655 S
C467 C451 1.349 . S
C467 H459 0.950 . S
C467 C465 1.327 . S
C468 C456 1.349 . S
C468 H462 0.950 . S
C468 C469 1.327 . S
C469 H463 0.950 . S
C469 C468 1.327 . S
C469 C473 1.429 . S
C470 C453 1.574 . S
C470 H464 0.949 . S
C470 C474 1.368 1_455 S
C471 C452 1.429 . S
C471 C465 1.429 . S
C471 C472 1.523 . S
C472 C453 1.368 . S
C472 C466 1.368 1_455 S
C472 C471 1.523 . S
C473 C457 1.429 . S
C473 C469 1.429 . S
C473 C474 1.523 . S
C474 C458 1.368 . S
C474 C470 1.368 1_655 S
C474 C473 1.523 . S
H475 C450 0.950 . S
H476 C452 0.950 . S
H477 C453 0.949 . S
H478 C455 0.950 . S
H479 C457 0.950 . S
C480 C481 1.349 . S
C480 C482 1.327 . S
C480 H505 0.950 . S
C481 C480 1.349 . S
C481 C497 1.349 . S
C482 C480 1.327 . S
C482 C501 1.429 . S
C482 H506 0.950 . S
C483 C500 1.574 . S
C483 C502 1.368 1_565 S
C483 H507 0.949 . S
H484 C488 0.949 . S
C485 C486 1.349 . S
C485 C487 1.327 . S
C485 H508 0.950 . S
C486 C485 1.349 . S
C486 C498 1.349 . S
C487 C485 1.327 . S
C487 C503 1.429 . S
C487 H509 0.950 . S
C488 H484 0.949 . S
C488 C496 1.574 . S
C488 C504 1.368 1_545 S
H489 C497 0.950 . S
H490 C495 0.950 . S
H491 C496 0.949 . S
H492 C498 0.950 . S
H493 C499 0.950 . S
H494 C500 0.949 . S
C495 H490 0.950 . S
C495 C497 1.327 . S
C495 C501 1.429 . S
C496 C488 1.574 . S
C496 H491 0.949 . S
C496 C502 1.368 . S
C497 C481 1.349 . S
C497 H489 0.950 . S
C497 C495 1.327 . S
C498 C486 1.349 . S
C498 H492 0.950 . S
C498 C499 1.327 . S
C499 H493 0.950 . S
C499 C498 1.327 . S
C499 C503 1.429 . S
C500 C483 1.574 . S
C500 H494 0.949 . S
C500 C504 1.368 . S
C501 C482 1.429 . S
C501 C495 1.429 . S
C501 C502 1.523 . S
C502 C483 1.368 1_545 S
C502 C496 1.368 . S
C502 C501 1.523 . S
C503 C487 1.429 . S
C503 C499 1.429 . S
C503 C504 1.523 . S
C504 C488 1.368 1_565 S
C504 C500 1.368 . S
C504 C503 1.523 . S
H505 C480 0.950 . S
H506 C482 0.950 . S
H507 C483 0.949 . S
H508 C485 0.950 . S
H509 C487 0.950 . S
C510 C511 1.349 . S
C510 C512 1.327 . S
C510 H535 0.950 . S
C511 C510 1.349 . S
C511 C527 1.349 . S
C512 C510 1.327 . S
C512 C531 1.429 . S
C512 H536 0.950 . S
C513 C530 1.574 . S
C513 C532 1.368 . S
C513 H537 0.949 . S
H514 C518 0.949 . S
C515 C516 1.349 . S
C515 C517 1.327 . S
C515 H538 0.950 . S
C516 C515 1.349 . S
C516 C528 1.349 . S
C517 C515 1.327 . S
C517 C533 1.429 . S
C517 H539 0.950 . S
C518 H514 0.949 . S
C518 C526 1.574 . S
C518 C534 1.368 . S
H519 C527 0.950 . S
H520 C525 0.950 . S
H521 C526 0.949 . S
H522 C528 0.950 . S
H523 C529 0.950 . S
H524 C530 0.949 . S
C525 H520 0.950 . S
C525 C527 1.327 . S
C525 C531 1.429 . S
C526 C518 1.574 . S
C526 H521 0.949 . S
C526 C532 1.368 . S
C527 C511 1.349 . S
C527 H519 0.950 . S
C527 C525 1.327 . S
C528 C516 1.349 . S
C528 H522 0.950 . S
C528 C529 1.327 . S
C529 H523 0.950 . S
C529 C528 1.327 . S
C529 C533 1.429 . S
C530 C513 1.574 . S
C530 H524 0.949 . S
C530 C534 1.368 . S
C531 C512 1.429 . S
C531 C525 1.429 . S
C531 C532 1.523 . S
C532 C513 1.368 . S
C532 C526 1.368 . S
C532 C531 1.523 . S
C533 C517 1.429 . S
C533 C529 1.429 . S
C533 C534 1.523 . S
C534 C518 1.368 . S
C534 C530 1.368 . S
C534 C533 1.523 . S
H535 C510 0.950 . S
H536 C512 0.950 . S
H537 C513 0.949 . S
H538 C515 0.950 . S
H539 C517 0.950 . S
C540 C541 1.349 . S
C540 C542 1.327 . S
C540 H565 0.950 . S
C541 C540 1.349 . S
C541 C557 1.349 . S
C542 C540 1.327 . S
C542 C561 1.429 . S
C542 H566 0.967 . S
C543 C560 1.574 . S
C543 C562 1.368 . S
C543 H567 0.949 . S
H544 C548 0.958 . S
C545 C546 1.349 . S
C545 C547 1.327 . S
C545 H568 0.950 . S
C546 C545 1.349 . S
C546 C558 1.349 . S
C547 C545 1.327 . S
C547 C563 1.429 . S
C547 H569 0.950 . S
C548 H544 0.958 . S
C548 C556 1.574 . S
C548 C564 1.368 . S
H549 C557 0.950 . S
H550 C555 0.950 . S
H551 C556 0.958 . S
H552 C558 0.950 . S
H553 C559 0.967 . S
H554 C560 0.949 . S
C555 H550 0.950 . S
C555 C557 1.327 . S
C555 C561 1.429 . S
C556 C548 1.574 . S
C556 H551 0.958 . S
C556 C562 1.368 1_655 S
C557 C541 1.349 . S
C557 H549 0.950 . S
C557 C555 1.327 . S
C558 C546 1.349 . S
C558 H552 0.950 . S
C558 C559 1.327 . S
C559 H553 0.967 . S
C559 C558 1.327 . S
C559 C563 1.429 . S
C560 C543 1.574 . S
C560 H554 0.949 . S
C560 C564 1.368 1_455 S
C561 C542 1.429 . S
C561 C555 1.429 . S
C561 C562 1.523 . S
C562 C543 1.368 . S
C562 C556 1.368 1_455 S
C562 C561 1.523 . S
C563 C547 1.429 . S
C563 C559 1.429 . S
C563 C564 1.523 . S
C564 C548 1.368 . S
C564 C560 1.368 1_655 S
C564 C563 1.523 . S
H565 C540 0.950 . S
H566 C542 0.967 . S
H567 C543 0.949 . S
H568 C545 0.950 . S
H569 C547 0.950 . S
C570 C571 1.349 . S
C570 C572 1.327 . S
C570 H595 0.950 . S
C571 C570 1.349 . S
C571 C587 1.349 . S
C572 C570 1.327 . S
C572 C591 1.429 . S
C572 H596 0.950 . S
C573 C590 1.574 . S
C573 C592 1.368 1_545 S
C573 H597 0.949 . S
H574 C578 0.949 . S
C575 C576 1.349 . S
C575 C577 1.327 . S
C575 H598 0.950 . S
C576 C575 1.349 . S
C576 C588 1.349 . S
C577 C575 1.327 . S
C577 C593 1.429 . S
C577 H599 0.950 . S
C578 H574 0.949 . S
C578 C586 1.574 . S
C578 C594 1.368 1_565 S
H579 C587 0.950 . S
H580 C585 0.950 . S
H581 C586 0.949 . S
H582 C588 0.950 . S
H583 C589 0.950 . S
H584 C590 0.949 . S
C585 H580 0.950 . S
C585 C587 1.327 . S
C585 C591 1.429 . S
C586 C578 1.574 . S
C586 H581 0.949 . S
C586 C592 1.368 . S
C587 C571 1.349 . S
C587 H579 0.950 . S
C587 C585 1.327 . S
C588 C576 1.349 . S
C588 H582 0.950 . S
C588 C589 1.327 . S
C589 H583 0.950 . S
C589 C588 1.327 . S
C589 C593 1.429 . S
C590 C573 1.574 . S
C590 H584 0.949 . S
C590 C594 1.368 . S
C591 C572 1.429 . S
C591 C585 1.429 . S
C591 C592 1.523 . S
C592 C573 1.368 1_565 S
C592 C586 1.368 . S
C592 C591 1.523 . S
C593 C577 1.429 . S
C593 C589 1.429 . S
C593 C594 1.523 . S
C594 C578 1.368 1_545 S
C594 C590 1.368 . S
C594 C593 1.523 . S
H595 C570 0.950 . S
H596 C572 0.950 . S
H597 C573 0.949 . S
H598 C575 0.950 . S
H599 C577 0.950 . S
C600 C601 1.349 . S
C600 C602 1.327 . S
C600 H625 0.950 . S
C601 C600 1.349 . S
C601 C617 1.349 . S
C602 C600 1.327 . S
C602 C621 1.429 . S
C602 H626 0.950 . S
C603 C620 1.574 . S
C603 C622 1.368 . S
C603 H627 0.949 . S
H604 C608 0.949 . S
C605 C606 1.349 . S
C605 C607 1.327 . S
C605 H628 0.950 . S
C606 C605 1.349 . S
C606 C618 1.349 . S
C607 C605 1.327 . S
C607 C623 1.429 . S
C607 H629 0.950 . S
C608 H604 0.949 . S
C608 C616 1.574 . S
C608 C624 1.368 . S
H609 C617 0.950 . S
H610 C615 0.950 . S
H611 C616 0.949 . S
H612 C618 0.950 . S
H613 C619 0.950 . S
H614 C620 0.949 . S
C615 H610 0.950 . S
C615 C617 1.327 . S
C615 C621 1.429 . S
C616 C608 1.574 . S
C616 H611 0.949 . S
C616 C622 1.368 . S
C617 C601 1.349 . S
C617 H609 0.950 . S
C617 C615 1.327 . S
C618 C606 1.349 . S
C618 H612 0.950 . S
C618 C619 1.327 . S
C619 H613 0.950 . S
C619 C618 1.327 . S
C619 C623 1.429 . S
C620 C603 1.574 . S
C620 H614 0.949 . S
C620 C624 1.368 . S
C621 C602 1.429 . S
C621 C615 1.429 . S
C621 C622 1.523 . S
C622 C603 1.368 . S
C622 C616 1.368 . S
C622 C621 1.523 . S
C623 C607 1.429 . S
C623 C619 1.429 . S
C623 C624 1.523 . S
C624 C608 1.368 . S
C624 C620 1.368 . S
C624 C623 1.523 . S
H625 C600 0.950 . S
H626 C602 0.950 . S
H627 C603 0.949 . S
H628 C605 0.950 . S
H629 C607 0.950 . S
C630 C631 1.349 . S
C630 C632 1.327 . S
C630 H655 0.950 . S
C631 C630 1.349 . S
C631 C647 1.349 . S
C632 C630 1.327 . S
C632 C651 1.434 . S
C632 H656 0.950 . S
C633 C650 1.574 . S
C633 C652 1.368 . S
C633 H657 0.949 . S
H634 C638 0.949 . S
C635 C636 1.349 . S
C635 C637 1.327 . S
C635 H658 0.950 . S
C636 C635 1.349 . S
C636 C648 1.349 . S
C637 C635 1.327 . S
C637 C653 1.429 . S
C637 H659 0.950 . S
C638 H634 0.949 . S
C638 C646 1.575 . S
C638 C654 1.368 . S
H639 C647 0.950 1_455 S
H640 C645 0.950 . S
H641 C646 0.947 1_655 S
H642 C648 0.950 . S
H643 C649 0.950 . S
H644 C650 0.949 . S
C645 H640 0.950 . S
C645 C647 1.327 1_455 S
C645 C651 1.427 1_455 S
C646 C638 1.575 . S
C646 H641 0.947 1_455 S
C646 C652 1.370 . S
C647 C631 1.349 . S
C647 H639 0.950 1_655 S
C647 C645 1.327 1_655 S
C648 C636 1.349 . S
C648 H642 0.950 . S
C648 C649 1.327 . S
C649 H643 0.950 . S
C649 C648 1.327 . S
C649 C653 1.429 . S
C650 C633 1.574 . S
C650 H644 0.949 . S
C650 C654 1.368 . S
C651 C632 1.434 . S
C651 C645 1.427 1_655 S
C651 C652 1.520 1_655 S
C652 C633 1.368 . S
C652 C646 1.370 . S
C652 C651 1.520 1_455 S
C653 C637 1.429 . S
C653 C649 1.429 . S
C653 C654 1.523 . S
C654 C638 1.368 . S
C654 C650 1.368 . S
C654 C653 1.523 . S
H655 C630 0.950 . S
H656 C632 0.950 . S
H657 C633 0.949 . S
H658 C635 0.950 . S
H659 C637 0.950 . S
C660 C661 1.349 . S
C660 C662 1.327 . S
C660 H685 0.950 . S
C661 C660 1.349 . S
C661 C677 1.349 . S
C662 C660 1.327 . S
C662 C681 1.434 . S
C662 H686 0.950 . S
C663 C680 1.574 . S
C663 C682 1.368 . S
C663 H687 0.949 . S
H664 C668 0.949 . S
C665 C666 1.349 . S
C665 C667 1.327 . S
C665 H688 0.950 . S
C666 C665 1.349 . S
C666 C678 1.349 . S
C667 C665 1.327 . S
C667 C683 1.429 . S
C667 H689 0.950 . S
C668 H664 0.949 . S
C668 C676 1.572 1_545 S
C668 C684 1.368 . S
H669 C677 0.950 1_545 S
H670 C675 0.950 . S
H671 C676 0.952 . S
H672 C678 0.950 . S
H673 C679 0.950 . S
H674 C680 0.949 . S
C675 H670 0.950 . S
C675 C677 1.327 1_545 S
C675 C681 1.428 1_545 S
C676 C668 1.572 1_565 S
C676 H671 0.952 . S
C676 C682 1.367 1_565 S
C677 C661 1.349 . S
C677 H669 0.950 1_565 S
C677 C675 1.327 1_565 S
C678 C666 1.349 . S
C678 H672 0.950 . S
C678 C679 1.327 . S
C679 H673 0.950 . S
C679 C678 1.327 . S
C679 C683 1.429 . S
C680 C663 1.574 . S
C680 H674 0.949 . S
C680 C684 1.368 . S
C681 C662 1.434 . S
C681 C675 1.428 1_565 S
C681 C682 1.519 1_565 S
C682 C663 1.368 . S
C682 C676 1.367 1_545 S
C682 C681 1.519 1_545 S
C683 C667 1.429 . S
C683 C679 1.429 . S
C683 C684 1.523 . S
C684 C668 1.368 . S
C684 C680 1.368 . S
C684 C683 1.523 . S
H685 C660 0.950 . S
H686 C662 0.950 . S
H687 C663 0.949 . S
H688 C665 0.950 . S
H689 C667 0.950 . S
C690 C691 1.349 . S
C690 C692 1.327 . S
C690 H715 0.950 . S
C691 C690 1.349 . S
C691 C707 1.349 . S
C692 C690 1.327 . S
C692 C711 1.429 . S
C692 H716 0.950 . S
C693 C710 1.574 . S
C693 C712 1.368 . S
C693 H717 0.949 . S
H694 C698 0.949 . S
C695 C696 1.349 . S
C695 C697 1.327 . S
C695 H718 0.950 . S
C696 C695 1.349 . S
C696 C708 1.349 . S
C697 C695 1.327 . S
C697 C713 1.429 . S
C697 H719 0.950 . S
C698 H694 0.949 . S
C698 C706 1.574 . S
C698 C714 1.368 . S
H699 C707 0.950 . S
H700 C705 0.950 . S
H701 C706 0.949 . S
H702 C708 0.950 . S
H703 C709 0.950 . S
H704 C710 0.949 . S
C705 H700 0.950 . S
C705 C707 1.327 . S
C705 C711 1.429 . S
C706 C698 1.574 . S
C706 H701 0.949 . S
C706 C712 1.368 . S
C707 C691 1.349 . S
C707 H699 0.950 . S
C707 C705 1.327 . S
C708 C696 1.349 . S
C708 H702 0.950 . S
C708 C709 1.327 . S
C709 H703 0.950 . S
C709 C708 1.327 . S
C709 C713 1.429 . S
C710 C693 1.574 . S
C710 H704 0.949 . S
C710 C714 1.368 . S
C711 C692 1.429 . S
C711 C705 1.429 . S
C711 C712 1.523 . S
C712 C693 1.368 . S
C712 C706 1.368 . S
C712 C711 1.523 . S
C713 C697 1.429 . S
C713 C709 1.429 . S
C713 C714 1.523 . S
C714 C698 1.368 . S
C714 C710 1.368 . S
C714 C713 1.523 . S
H715 C690 0.950 . S
H716 C692 0.950 . S
H717 C693 0.949 . S
H718 C695 0.950 . S
H719 C697 0.950 . S
C720 C721 1.349 . S
C720 C722 1.327 . S
C720 H745 0.950 . S
C721 C720 1.349 . S
C721 C737 1.349 . S
C722 C720 1.327 . S
C722 C741 1.434 . S
C722 H746 0.950 . S
C723 C740 1.574 . S
C723 C742 1.368 . S
C723 H747 0.949 . S
H724 C728 0.949 . S
C725 C726 1.349 . S
C725 C727 1.327 . S
C725 H748 0.950 . S
C726 C725 1.349 . S
C726 C738 1.349 . S
C727 C725 1.327 . S
C727 C743 1.429 . S
C727 H749 0.950 . S
C728 H724 0.949 . S
C728 C736 1.577 . S
C728 C744 1.368 . S
H729 C737 0.950 1_655 S
H730 C735 0.950 . S
H731 C736 0.944 1_455 S
H732 C738 0.950 . S
H733 C739 0.950 . S
H734 C740 0.949 . S
C735 H730 0.950 . S
C735 C737 1.327 1_655 S
C735 C741 1.427 1_655 S
C736 C728 1.577 . S
C736 H731 0.944 1_655 S
C736 C742 1.371 . S
C737 C721 1.349 . S
C737 H729 0.950 1_455 S
C737 C735 1.327 1_455 S
C738 C726 1.349 . S
C738 H732 0.950 . S
C738 C739 1.327 . S
C739 H733 0.950 . S
C739 C738 1.327 . S
C739 C743 1.429 . S
C740 C723 1.574 . S
C740 H734 0.949 . S
C740 C744 1.368 . S
C741 C722 1.434 . S
C741 C735 1.427 1_455 S
C741 C742 1.520 1_455 S
C742 C723 1.368 . S
C742 C736 1.371 . S
C742 C741 1.520 1_655 S
C743 C727 1.429 . S
C743 C739 1.429 . S
C743 C744 1.523 . S
C744 C728 1.368 . S
C744 C740 1.368 . S
C744 C743 1.523 . S
H745 C720 0.950 . S
H746 C722 0.950 . S
H747 C723 0.949 . S
H748 C725 0.950 . S
H749 C727 0.950 . S
C750 C751 1.349 . S
C750 C752 1.327 . S
C750 H775 0.950 . S
C751 C750 1.349 . S
C751 C767 1.349 . S
C752 C750 1.327 . S
C752 C771 1.435 . S
C752 H776 0.950 . S
C753 C770 1.574 . S
C753 C772 1.368 . S
C753 H777 0.949 . S
H754 C758 0.949 . S
C755 C756 1.349 . S
C755 C757 1.327 . S
C755 H778 0.950 . S
C756 C755 1.349 . S
C756 C768 1.349 . S
C757 C755 1.327 . S
C757 C773 1.429 . S
C757 H779 0.950 . S
C758 H754 0.949 . S
C758 C766 1.564 1_565 S
C758 C774 1.368 . S
H759 C767 0.950 1_565 S
H760 C765 0.950 . S
H761 C766 0.962 . S
H762 C768 0.950 . S
H763 C769 0.950 . S
H764 C770 0.949 . S
C765 H760 0.950 . S
C765 C767 1.327 1_565 S
C765 C771 1.427 1_565 S
C766 C758 1.564 1_545 S
C766 H761 0.962 . S
C766 C772 1.363 1_545 S
C767 C751 1.349 . S
C767 H759 0.950 1_545 S
C767 C765 1.327 1_545 S
C768 C756 1.349 . S
C768 H762 0.950 . S
C768 C769 1.327 . S
C769 H763 0.950 . S
C769 C768 1.327 . S
C769 C773 1.429 . S
C770 C753 1.574 . S
C770 H764 0.949 . S
C770 C774 1.368 . S
C771 C752 1.435 . S
C771 C765 1.427 1_545 S
C771 C772 1.519 1_545 S
C772 C753 1.368 . S
C772 C766 1.363 1_565 S
C772 C771 1.519 1_565 S
C773 C757 1.429 . S
C773 C769 1.429 . S
C773 C774 1.523 . S
C774 C758 1.368 . S
C774 C770 1.368 . S
C774 C773 1.523 . S
H775 C750 0.950 . S
H776 C752 0.950 . S
H777 C753 0.949 . S
H778 C755 0.950 . S
H779 C757 0.950 . S
C241 C171 1.158 . S
C246 C7 1.160 . S
C271 C211 1.159 . S
C276 C47 1.160 . S
C301 C11 1.159 . S
C306 C87 1.161 . S
C331 C51 1.158 . S
C336 C127 1.160 . S
C361 C91 1.159 . S
C366 C167 1.161 . S
C391 C131 1.159 . S
C396 C207 1.161 . S
C421 C10 0.693 . S
C426 C130 0.693 . S
C451 C170 0.693 . S
C456 C50 0.693 . S
C481 C210 0.693 . S
C486 C90 0.693 . S
C511 C99 0.694 . S
C516 C219 0.694 . S
C541 C19 0.695 . S
C546 C139 0.695 . S
C571 C179 0.695 . S
C576 C59 0.695 . S
C601 C202 1.248 . S
C606 C16 1.229 . S
C631 C56 1.229 . S
C636 C2 1.249 . S
C661 C96 1.229 . S
C666 C42 1.248 . S
C691 C82 1.249 . S
C696 C136 1.229 . S
C721 C176 1.229 . S
C726 C122 1.249 . S
C751 C216 1.229 . S
C756 C162 1.249 . S
