# Generated by pormake.
# Topology ukb, (4)-cn, num edge types: 1
# Building blocks:
#     Node 0, Type 0, BuildingBlock: UXUYUI_clean_sbu_0, # of connection points: 4
#     Node 1, Type 0, BuildingBlock: UXUYUI_clean_sbu_0, # of connection points: 4
#     Node 2, Type 0, BuildingBlock: UXUYUI_clean_sbu_0, # of connection points: 4
#     Node 3, Type 0, BuildingBlock: UXUYUI_clean_sbu_0, # of connection points: 4
#     Node 4, Type 0, BuildingBlock: UXUYUI_clean_sbu_0, # of connection points: 4
#     Node 5, Type 0, BuildingBlock: UXUYUI_clean_sbu_0, # of connection points: 4
#     Node 6, Type 0, BuildingBlock: UXUYUI_clean_sbu_0, # of connection points: 4
#     Node 7, Type 0, BuildingBlock: UXUYUI_clean_sbu_0, # of connection points: 4
#     Node 8, Type 0, BuildingBlock: UXUYUI_clean_sbu_0, # of connection points: 4
#     Node 9, Type 0, BuildingBlock: UXUYUI_clean_sbu_0, # of connection points: 4
#     Node 10, Type 0, BuildingBlock: UXUYUI_clean_sbu_0, # of connection points: 4
#     Node 11, Type 0, BuildingBlock: UXUYUI_clean_sbu_0, # of connection points: 4
#     Node 12, Type 0, BuildingBlock: UXUYUI_clean_sbu_0, # of connection points: 4
#     Node 13, Type 0, BuildingBlock: UXUYUI_clean_sbu_0, # of connection points: 4
#     Node 14, Type 0, BuildingBlock: UXUYUI_clean_sbu_0, # of connection points: 4
#     Node 15, Type 0, BuildingBlock: UXUYUI_clean_sbu_0, # of connection points: 4
#     Edge 16, Type (0, 0), None
#     Edge 17, Type (0, 0), None
#     Edge 18, Type (0, 0), None
#     Edge 19, Type (0, 0), None
#     Edge 20, Type (0, 0), None
#     Edge 21, Type (0, 0), None
#     Edge 22, Type (0, 0), None
#     Edge 23, Type (0, 0), None
#     Edge 24, Type (0, 0), None
#     Edge 25, Type (0, 0), None
#     Edge 26, Type (0, 0), None
#     Edge 27, Type (0, 0), None
#     Edge 28, Type (0, 0), None
#     Edge 29, Type (0, 0), None
#     Edge 30, Type (0, 0), None
#     Edge 31, Type (0, 0), None
#     Edge 32, Type (0, 0), None
#     Edge 33, Type (0, 0), None
#     Edge 34, Type (0, 0), None
#     Edge 35, Type (0, 0), None
#     Edge 36, Type (0, 0), None
#     Edge 37, Type (0, 0), None
#     Edge 38, Type (0, 0), None
#     Edge 39, Type (0, 0), None
#     Edge 40, Type (0, 0), None
#     Edge 41, Type (0, 0), None
#     Edge 42, Type (0, 0), None
#     Edge 43, Type (0, 0), None
#     Edge 44, Type (0, 0), None
#     Edge 45, Type (0, 0), None
#     Edge 46, Type (0, 0), None
#     Edge 47, Type (0, 0), None
# Relax obj value: 0.234
# Max RMSD: 0.198
# Mean RMSD: 0.198
data_MOF--net-ukb--node1-UXUYUI_clean_sbu_0--edge1-none
_symmetry_space_group_name_H-M    P1
_symmetry_Int_Tables_number       1
_symmetry_cell_setting            triclinic
loop_
_symmetry_equiv_pos_as_xyz
'x, y, z'
_cell_length_a     38.532837
_cell_length_b     38.533176
_cell_length_c     36.843437
_cell_angle_alpha  90.001908
_cell_angle_beta   89.998184
_cell_angle_gamma 90.002015
loop_
_atom_site_label
_atom_site_type_symbol
_atom_site_fract_x
_atom_site_fract_y
_atom_site_fract_z
_atom_type_partial_charge
Li0 Li 0.51572 0.20926 0.14338 0.0
Li1 Li 0.53335 0.23079 0.20331 0.0
Li2 Li 0.54573 0.1708 0.18553 0.0
Li3 Li 0.48643 0.19007 0.19886 0.0
C4 C 0.58249 0.22638 0.13576 0.0
N5 N 0.61936 0.25286 0.07771 0.0
C6 C 0.59082 0.26168 0.13453 0.0
C7 C 0.59316 0.20451 0.10764 0.0
C8 C 0.60945 0.27456 0.10492 0.0
C9 C 0.61168 0.21841 0.07846 0.0
C10 C 0.45456 0.24707 0.17999 0.0
C11 C 0.40462 0.26554 0.21434 0.0
N12 N 0.38472 0.2627 0.18399 0.0
C13 C 0.4337 0.24447 0.14909 0.0
C14 C 0.44002 0.25784 0.21286 0.0
C15 C 0.39841 0.25246 0.15168 0.0
C16 C 0.50144 0.19911 0.06796 0.0
N17 N 0.51067 0.22261 0.09368 0.0
C18 C 0.5161 0.26709 0.04878 0.0
C19 C 0.51713 0.25625 0.08492 0.0
C20 C 0.50729 0.24335 0.02124 0.0
C21 C 0.49933 0.209 0.03149 0.0
H22 H 0.49581 0.17265 0.07573 0.0
H23 H 0.52379 0.27456 0.10603 0.0
C24 C 0.58943 0.26421 0.23336 0.0
N25 N 0.55482 0.2683 0.2279 0.0
C26 C 0.60888 0.29059 0.2492 0.0
C27 C 0.55655 0.32491 0.2543 0.0
C28 C 0.53801 0.2977 0.23823 0.0
C29 C 0.59259 0.32167 0.25939 0.0
H30 H 0.60204 0.24051 0.22475 0.0
H31 H 0.51045 0.30026 0.23336 0.0
C32 C 0.50575 0.12691 0.1501 0.0
N33 N 0.51366 0.0567 0.13736 0.0
C34 C 0.48757 0.10277 0.1711 0.0
C35 C 0.52777 0.11536 0.1225 0.0
C36 C 0.49195 0.06737 0.16424 0.0
C37 C 0.53149 0.07975 0.11653 0.0
C38 C 0.53918 0.19771 0.26468 0.0
C39 C 0.57234 0.18717 0.27541 0.0
C40 C 0.51989 0.21968 0.28714 0.0
C41 C 0.58577 0.19903 0.30838 0.0
C42 C 0.53426 0.23102 0.31987 0.0
N43 N 0.56663 0.22056 0.32972 0.0
C44 C 0.61272 0.14294 0.18529 0.0
C45 C 0.57082 0.10634 0.21262 0.0
C46 C 0.63951 0.1216 0.19746 0.0
N47 N 0.57923 0.1353 0.19343 0.0
C48 C 0.59683 0.08396 0.22499 0.0
C49 C 0.63188 0.09191 0.21826 0.0
H50 H 0.61885 0.1668 0.17129 0.0
H51 H 0.5441 0.10157 0.22 0.0
C52 C 0.41696 0.16573 0.19629 0.0
N53 N 0.44394 0.17335 0.2187 0.0
C54 C 0.38862 0.14675 0.20923 0.0
C55 C 0.41583 0.145 0.26829 0.0
C56 C 0.44351 0.16409 0.25427 0.0
C57 C 0.38835 0.1351 0.24541 0.0
H58 H 0.41838 0.1726 0.16788 0.0
H59 H 0.46568 0.16958 0.27126 0.0
O60 O 0.56372 0.21336 0.16418 0.0
O61 O 0.48902 0.23888 0.17815 0.0
O62 O 0.50207 0.16166 0.15655 0.0
O63 O 0.52588 0.1871 0.23208 0.0
H64 H 0.58258 0.27904 0.15593 0.0
H65 H 0.58702 0.17714 0.10824 0.0
H66 H 0.61589 0.30186 0.10349 0.0
H67 H 0.61993 0.20182 0.0564 0.0
H68 H 0.39295 0.27374 0.23963 0.0
H69 H 0.44455 0.2361 0.12346 0.0
H70 H 0.45585 0.26 0.237 0.0
H71 H 0.3819 0.25042 0.12804 0.0
H72 H 0.52296 0.29367 0.0426 0.0
H73 H 0.49149 0.18983 0.01165 0.0
H74 H 0.63648 0.2868 0.25311 0.0
H75 H 0.54307 0.34858 0.26152 0.0
H76 H 0.47054 0.11118 0.19269 0.0
H77 H 0.54194 0.1337 0.10594 0.0
H78 H 0.47816 0.0484 0.18038 0.0
H79 H 0.54856 0.07045 0.09535 0.0
H80 H 0.58772 0.1703 0.25836 0.0
H81 H 0.49427 0.22824 0.27916 0.0
H82 H 0.61146 0.19122 0.31693 0.0
H83 H 0.51971 0.24822 0.3374 0.0
H84 H 0.666 0.12954 0.19232 0.0
H85 H 0.58957 0.06134 0.24067 0.0
H86 H 0.36793 0.13994 0.19066 0.0
H87 H 0.41723 0.13608 0.29612 0.0
Li88 Li 0.3267 0.54572 0.68553 0.0
Li89 Li 0.30742 0.48641 0.69886 0.0
Li90 Li 0.28823 0.5157 0.64339 0.0
Li91 Li 0.2667 0.53333 0.70331 0.0
C92 C 0.37059 0.50574 0.6501 0.0
N93 N 0.4408 0.51365 0.63736 0.0
C94 C 0.39473 0.48756 0.6711 0.0
C95 C 0.38213 0.52776 0.6225 0.0
C96 C 0.43012 0.49194 0.66424 0.0
C97 C 0.41774 0.53148 0.61653 0.0
C98 C 0.29979 0.53916 0.76469 0.0
C99 C 0.26648 0.53424 0.81987 0.0
N100 N 0.27694 0.56661 0.82972 0.0
C101 C 0.31033 0.57232 0.77542 0.0
C102 C 0.27781 0.51987 0.78714 0.0
C103 C 0.29847 0.58575 0.80839 0.0
C104 C 0.35454 0.61272 0.6853 0.0
N105 N 0.3622 0.57922 0.69343 0.0
C106 C 0.41353 0.59683 0.72499 0.0
C107 C 0.39115 0.57081 0.71261 0.0
C108 C 0.40557 0.63188 0.71827 0.0
C109 C 0.37588 0.63951 0.69747 0.0
H110 H 0.33068 0.61884 0.67132 0.0
H111 H 0.39594 0.5441 0.71999 0.0
C112 C 0.33177 0.41695 0.69629 0.0
N113 N 0.32415 0.44393 0.7187 0.0
C114 C 0.35074 0.38861 0.70922 0.0
C115 C 0.35249 0.41582 0.76829 0.0
C116 C 0.3334 0.4435 0.75427 0.0
C117 C 0.36239 0.38834 0.74541 0.0
H118 H 0.32489 0.41836 0.66788 0.0
H119 H 0.32792 0.46567 0.77126 0.0
C120 C 0.27111 0.58248 0.63577 0.0
N121 N 0.24464 0.61935 0.57772 0.0
C122 C 0.23582 0.5908 0.63454 0.0
C123 C 0.29299 0.59315 0.60764 0.0
C124 C 0.22294 0.60943 0.60493 0.0
C125 C 0.27909 0.61167 0.57847 0.0
C126 C 0.25043 0.45455 0.67999 0.0
C127 C 0.25303 0.43368 0.64909 0.0
C128 C 0.23965 0.44 0.71285 0.0
C129 C 0.24504 0.3984 0.65168 0.0
C130 C 0.23195 0.4046 0.71433 0.0
N131 N 0.23479 0.38471 0.68398 0.0
C132 C 0.29838 0.50143 0.56796 0.0
C133 C 0.24125 0.51712 0.58492 0.0
C134 C 0.28849 0.49933 0.53149 0.0
N135 N 0.27488 0.51066 0.59368 0.0
C136 C 0.2304 0.51609 0.54878 0.0
C137 C 0.25415 0.50728 0.52124 0.0
H138 H 0.32484 0.4958 0.57573 0.0
H139 H 0.22293 0.52377 0.60603 0.0
C140 C 0.23329 0.58942 0.73336 0.0
N141 N 0.22919 0.5548 0.72791 0.0
C142 C 0.20691 0.60886 0.74921 0.0
C143 C 0.17259 0.55653 0.7543 0.0
C144 C 0.1998 0.53799 0.73823 0.0
C145 C 0.17583 0.59258 0.7594 0.0
H146 H 0.25699 0.60202 0.72476 0.0
H147 H 0.19723 0.51043 0.73336 0.0
O148 O 0.33583 0.50206 0.65655 0.0
O149 O 0.31039 0.52587 0.73208 0.0
O150 O 0.28414 0.56371 0.66419 0.0
O151 O 0.25862 0.48901 0.67815 0.0
H152 H 0.38632 0.47053 0.69269 0.0
H153 H 0.3638 0.54192 0.60594 0.0
H154 H 0.4491 0.47815 0.68037 0.0
H155 H 0.42705 0.54854 0.59535 0.0
H156 H 0.24927 0.51969 0.83739 0.0
H157 H 0.3272 0.58771 0.75837 0.0
H158 H 0.26926 0.49425 0.77916 0.0
H159 H 0.30628 0.61144 0.81695 0.0
H160 H 0.43616 0.58957 0.74066 0.0
H161 H 0.36793 0.666 0.69234 0.0
H162 H 0.35755 0.36792 0.69065 0.0
H163 H 0.36141 0.41722 0.79612 0.0
H164 H 0.21846 0.58257 0.65594 0.0
H165 H 0.32036 0.58701 0.60825 0.0
H166 H 0.19565 0.61588 0.6035 0.0
H167 H 0.29568 0.61992 0.55641 0.0
H168 H 0.2614 0.44453 0.62346 0.0
H169 H 0.23749 0.45583 0.73699 0.0
H170 H 0.24708 0.38188 0.62803 0.0
H171 H 0.22374 0.39293 0.73962 0.0
H172 H 0.30766 0.49149 0.51165 0.0
H173 H 0.20382 0.52295 0.54261 0.0
H174 H 0.2107 0.63646 0.75312 0.0
H175 H 0.14891 0.54306 0.76152 0.0
Li176 Li 0.95177 0.3267 0.18553 0.0
Li177 Li 0.01107 0.30742 0.19886 0.0
Li178 Li 0.98178 0.28823 0.14338 0.0
Li179 Li 0.96415 0.2667 0.2033 0.0
C180 C 0.99175 0.37059 0.1501 0.0
N181 N 0.98384 0.4408 0.13737 0.0
C182 C 0.00993 0.39473 0.1711 0.0
C183 C 0.96972 0.38213 0.1225 0.0
C184 C 0.00555 0.43012 0.16425 0.0
C185 C 0.96601 0.41774 0.11654 0.0
C186 C 0.95832 0.29979 0.26468 0.0
C187 C 0.96324 0.26648 0.31987 0.0
N188 N 0.93087 0.27694 0.32971 0.0
C189 C 0.92516 0.31033 0.27541 0.0
C190 C 0.97761 0.27781 0.28714 0.0
C191 C 0.91173 0.29846 0.30838 0.0
C192 C 0.88477 0.35455 0.18529 0.0
N193 N 0.91827 0.3622 0.19343 0.0
C194 C 0.90067 0.41353 0.225 0.0
C195 C 0.92668 0.39115 0.21262 0.0
C196 C 0.86562 0.40558 0.21827 0.0
C197 C 0.85798 0.3759 0.19746 0.0
H198 H 0.87865 0.33069 0.1713 0.0
H199 H 0.9534 0.39593 0.22 0.0
C200 C 0.08054 0.33177 0.19628 0.0
N201 N 0.05356 0.32415 0.2187 0.0
C202 C 0.10888 0.35074 0.20922 0.0
C203 C 0.08167 0.35249 0.26829 0.0
C204 C 0.05398 0.3334 0.25427 0.0
C205 C 0.10915 0.36239 0.24541 0.0
H206 H 0.07912 0.32489 0.16787 0.0
H207 H 0.03182 0.32792 0.27125 0.0
C208 C 0.915 0.27111 0.13576 0.0
N209 N 0.87814 0.24463 0.07771 0.0
C210 C 0.90668 0.23582 0.13453 0.0
C211 C 0.90434 0.29298 0.10764 0.0
C212 C 0.88805 0.22293 0.10492 0.0
C213 C 0.88582 0.27908 0.07846 0.0
C214 C 0.04293 0.25043 0.17998 0.0
C215 C 0.0638 0.25303 0.14908 0.0
C216 C 0.05748 0.23965 0.21284 0.0
C217 C 0.09908 0.24504 0.15167 0.0
C218 C 0.09288 0.23195 0.21432 0.0
N219 N 0.11277 0.23479 0.18397 0.0
C220 C 0.99605 0.29839 0.06795 0.0
C221 C 0.98036 0.24125 0.08491 0.0
C222 C 0.99816 0.2885 0.03148 0.0
N223 N 0.98683 0.27488 0.09368 0.0
C224 C 0.98139 0.23041 0.04877 0.0
C225 C 0.99021 0.25415 0.02124 0.0
H226 H 0.00169 0.32485 0.07572 0.0
H227 H 0.97371 0.22293 0.10602 0.0
C228 C 0.90806 0.23329 0.23335 0.0
N229 N 0.94268 0.22919 0.2279 0.0
C230 C 0.88862 0.20691 0.2492 0.0
C231 C 0.94095 0.17259 0.25429 0.0
C232 C 0.95949 0.1998 0.23822 0.0
C233 C 0.9049 0.17582 0.25938 0.0
H234 H 0.89546 0.25699 0.22475 0.0
H235 H 0.98705 0.19724 0.23335 0.0
O236 O 0.99543 0.33583 0.15655 0.0
O237 O 0.97162 0.31039 0.23207 0.0
O238 O 0.93378 0.28414 0.16418 0.0
O239 O 0.00847 0.25862 0.17814 0.0
H240 H 0.02696 0.38632 0.19269 0.0
H241 H 0.95556 0.36379 0.10594 0.0
H242 H 0.01934 0.4491 0.18038 0.0
H243 H 0.94894 0.42705 0.09536 0.0
H244 H 0.97779 0.24928 0.33739 0.0
H245 H 0.90977 0.32719 0.25836 0.0
H246 H 0.00323 0.26926 0.27915 0.0
H247 H 0.88604 0.30627 0.31694 0.0
H248 H 0.90793 0.43615 0.24068 0.0
H249 H 0.8315 0.36795 0.19232 0.0
H250 H 0.12957 0.35755 0.19065 0.0
H251 H 0.08027 0.36141 0.29612 0.0
H252 H 0.91492 0.21846 0.15593 0.0
H253 H 0.91047 0.32036 0.10824 0.0
H254 H 0.88161 0.19564 0.10349 0.0
H255 H 0.87757 0.29567 0.0564 0.0
H256 H 0.05295 0.2614 0.12345 0.0
H257 H 0.04165 0.23749 0.23698 0.0
H258 H 0.1156 0.24707 0.12802 0.0
H259 H 0.10455 0.22375 0.23961 0.0
H260 H 0.006 0.30766 0.01165 0.0
H261 H 0.97453 0.20383 0.04259 0.0
H262 H 0.86102 0.2107 0.25311 0.0
H263 H 0.95442 0.14891 0.2615 0.0
Li264 Li 0.17081 0.95176 0.68555 0.0
Li265 Li 0.19009 0.01107 0.69887 0.0
Li266 Li 0.20928 0.98178 0.6434 0.0
Li267 Li 0.2308 0.96415 0.70332 0.0
C268 C 0.12692 0.99174 0.65011 0.0
N269 N 0.05671 0.98383 0.63737 0.0
C270 C 0.10278 0.00992 0.67111 0.0
C271 C 0.11538 0.96971 0.62251 0.0
C272 C 0.06739 0.00554 0.66425 0.0
C273 C 0.07977 0.96599 0.61655 0.0
C274 C 0.19771 0.95833 0.7647 0.0
C275 C 0.23102 0.96326 0.81989 0.0
N276 N 0.22056 0.93089 0.82974 0.0
C277 C 0.18717 0.92517 0.77543 0.0
C278 C 0.21969 0.97762 0.78716 0.0
C279 C 0.19903 0.91174 0.8084 0.0
C280 C 0.14296 0.88477 0.68531 0.0
N281 N 0.13531 0.91826 0.69344 0.0
C282 C 0.08397 0.90066 0.72501 0.0
C283 C 0.10635 0.92667 0.71263 0.0
C284 C 0.09193 0.86561 0.71828 0.0
C285 C 0.12162 0.85798 0.69748 0.0
H286 H 0.16682 0.87864 0.67132 0.0
H287 H 0.10157 0.95339 0.72001 0.0
C288 C 0.16574 0.08053 0.6963 0.0
N289 N 0.17336 0.05356 0.71871 0.0
C290 C 0.14676 0.10887 0.70922 0.0
C291 C 0.14501 0.08167 0.7683 0.0
C292 C 0.1641 0.05399 0.75428 0.0
C293 C 0.13511 0.10915 0.74541 0.0
H294 H 0.17262 0.07912 0.66788 0.0
H295 H 0.16958 0.03182 0.77127 0.0
C296 C 0.2264 0.915 0.63578 0.0
N297 N 0.25288 0.87813 0.57773 0.0
C298 C 0.26169 0.90668 0.63455 0.0
C299 C 0.20453 0.90433 0.60766 0.0
C300 C 0.27458 0.88805 0.60494 0.0
C301 C 0.21843 0.88581 0.57848 0.0
C302 C 0.24708 0.04294 0.68 0.0
C303 C 0.24448 0.0638 0.6491 0.0
C304 C 0.25786 0.05748 0.71286 0.0
C305 C 0.25248 0.09908 0.65169 0.0
C306 C 0.26556 0.09288 0.71435 0.0
N307 N 0.26272 0.11278 0.68399 0.0
C308 C 0.19913 0.99605 0.56797 0.0
C309 C 0.25626 0.98036 0.58493 0.0
C310 C 0.20902 0.99815 0.5315 0.0
N311 N 0.22263 0.98682 0.5937 0.0
C312 C 0.26711 0.98139 0.54879 0.0
C313 C 0.24336 0.9902 0.52125 0.0
H314 H 0.17266 0.00169 0.57574 0.0
H315 H 0.27458 0.97371 0.60604 0.0
C316 C 0.26421 0.90807 0.73338 0.0
N317 N 0.26831 0.94269 0.72792 0.0
C318 C 0.29059 0.88863 0.74922 0.0
C319 C 0.32492 0.94095 0.75431 0.0
C320 C 0.29771 0.95949 0.73824 0.0
C321 C 0.32168 0.90491 0.75941 0.0
H322 H 0.24051 0.89547 0.72477 0.0
H323 H 0.30027 0.98705 0.73337 0.0
O324 O 0.16168 0.99542 0.65656 0.0
O325 O 0.18711 0.97162 0.73209 0.0
O326 O 0.21337 0.93377 0.6642 0.0
O327 O 0.23889 0.00847 0.67816 0.0
H328 H 0.11119 0.02695 0.6927 0.0
H329 H 0.13372 0.95555 0.60595 0.0
H330 H 0.04841 0.01932 0.68039 0.0
H331 H 0.07046 0.94893 0.59536 0.0
H332 H 0.24822 0.97781 0.83741 0.0
H333 H 0.17031 0.90978 0.75838 0.0
H334 H 0.22824 0.00324 0.77917 0.0
H335 H 0.19122 0.88605 0.81696 0.0
H336 H 0.06135 0.90792 0.74068 0.0
H337 H 0.12957 0.83149 0.69235 0.0
H338 H 0.13996 0.12956 0.69065 0.0
H339 H 0.13608 0.08027 0.79612 0.0
H340 H 0.27905 0.91492 0.65595 0.0
H341 H 0.17715 0.91047 0.60826 0.0
H342 H 0.30187 0.88161 0.60352 0.0
H343 H 0.20184 0.87756 0.55642 0.0
H344 H 0.23611 0.05295 0.62347 0.0
H345 H 0.26001 0.04165 0.737 0.0
H346 H 0.25044 0.1156 0.62804 0.0
H347 H 0.27376 0.10455 0.73964 0.0
H348 H 0.18985 0.00599 0.51167 0.0
H349 H 0.29368 0.97453 0.54261 0.0
H350 H 0.2868 0.86103 0.75314 0.0
H351 H 0.34859 0.95443 0.76153 0.0
Li352 Li 0.48642 0.30742 0.8046 0.0
Li353 Li 0.54572 0.32669 0.81793 0.0
Li354 Li 0.53334 0.2667 0.80015 0.0
Li355 Li 0.51571 0.28822 0.86008 0.0
C356 C 0.53917 0.29978 0.73878 0.0
N357 N 0.56661 0.27693 0.67374 0.0
C358 C 0.57233 0.31033 0.72804 0.0
C359 C 0.51988 0.27781 0.71632 0.0
C360 C 0.58576 0.29846 0.69508 0.0
C361 C 0.53424 0.26647 0.68359 0.0
C362 C 0.50574 0.37058 0.85336 0.0
C363 C 0.53148 0.41774 0.88693 0.0
N364 N 0.51365 0.44079 0.86611 0.0
C365 C 0.48757 0.39472 0.83237 0.0
C366 C 0.52777 0.38213 0.88097 0.0
C367 C 0.49194 0.43011 0.83923 0.0
C368 C 0.41695 0.33176 0.80717 0.0
N369 N 0.44393 0.32414 0.78476 0.0
C370 C 0.41582 0.35249 0.73517 0.0
C371 C 0.44351 0.3334 0.74919 0.0
C372 C 0.38834 0.36238 0.75806 0.0
C373 C 0.38861 0.35073 0.79424 0.0
H374 H 0.41837 0.32488 0.83559 0.0
H375 H 0.46567 0.32792 0.73221 0.0
C376 C 0.61272 0.35454 0.81816 0.0
N377 N 0.57923 0.36219 0.81003 0.0
C378 C 0.63951 0.37588 0.80599 0.0
C379 C 0.59683 0.41353 0.77847 0.0
C380 C 0.57082 0.39115 0.79085 0.0
C381 C 0.63188 0.40557 0.7852 0.0
H382 H 0.61885 0.33068 0.83215 0.0
H383 H 0.5441 0.39593 0.78348 0.0
C384 C 0.45455 0.25042 0.82347 0.0
N385 N 0.38471 0.23478 0.81949 0.0
C386 C 0.43369 0.25302 0.85438 0.0
C387 C 0.44001 0.23964 0.79061 0.0
C388 C 0.3984 0.24503 0.85179 0.0
C389 C 0.4046 0.23194 0.78913 0.0
C390 C 0.58248 0.27111 0.86769 0.0
C391 C 0.59081 0.23582 0.86892 0.0
C392 C 0.59316 0.29298 0.89582 0.0
C393 C 0.60944 0.22293 0.89854 0.0
C394 C 0.61168 0.27908 0.92499 0.0
N395 N 0.61936 0.24464 0.92574 0.0
C396 C 0.58942 0.23329 0.7701 0.0
C397 C 0.538 0.19979 0.76523 0.0
C398 C 0.60887 0.20691 0.75425 0.0
N399 N 0.5548 0.22919 0.77555 0.0
C400 C 0.55654 0.17258 0.74916 0.0
C401 C 0.59258 0.17582 0.74406 0.0
H402 H 0.60202 0.25699 0.7787 0.0
H403 H 0.51044 0.19723 0.7701 0.0
C404 C 0.50144 0.29838 0.93551 0.0
N405 N 0.51066 0.27488 0.90978 0.0
C406 C 0.49933 0.28849 0.97197 0.0
C407 C 0.5161 0.2304 0.95468 0.0
C408 C 0.51713 0.24124 0.91854 0.0
C409 C 0.50729 0.25414 0.98222 0.0
H410 H 0.4958 0.32484 0.92774 0.0
H411 H 0.52378 0.22292 0.89743 0.0
O412 O 0.52587 0.31039 0.77139 0.0
O413 O 0.50207 0.33582 0.84691 0.0
O414 O 0.48901 0.25861 0.82532 0.0
O415 O 0.56371 0.28413 0.83927 0.0
H416 H 0.58771 0.32719 0.74509 0.0
H417 H 0.49425 0.26925 0.7243 0.0
H418 H 0.61145 0.30627 0.68652 0.0
H419 H 0.51969 0.24927 0.66607 0.0
H420 H 0.54855 0.42704 0.90812 0.0
H421 H 0.47054 0.38631 0.81078 0.0
H422 H 0.54193 0.36379 0.89753 0.0
H423 H 0.47816 0.44909 0.82309 0.0
H424 H 0.41723 0.36141 0.70735 0.0
H425 H 0.36792 0.35754 0.81281 0.0
H426 H 0.666 0.36793 0.81112 0.0
H427 H 0.58957 0.43615 0.7628 0.0
H428 H 0.44454 0.26139 0.88 0.0
H429 H 0.45584 0.23749 0.76647 0.0
H430 H 0.38189 0.24707 0.87544 0.0
H431 H 0.39294 0.22374 0.76384 0.0
H432 H 0.58257 0.21845 0.84753 0.0
H433 H 0.58702 0.32036 0.89521 0.0
H434 H 0.61588 0.19564 0.89996 0.0
H435 H 0.61992 0.29567 0.94705 0.0
H436 H 0.63647 0.2107 0.75034 0.0
H437 H 0.54306 0.14891 0.74194 0.0
H438 H 0.49149 0.30765 0.99181 0.0
H439 H 0.52296 0.20382 0.96086 0.0
Li440 Li 0.1708 0.54573 0.31793 0.0
Li441 Li 0.19008 0.48642 0.3046 0.0
Li442 Li 0.20927 0.51571 0.36008 0.0
Li443 Li 0.23079 0.53335 0.30015 0.0
C444 C 0.12691 0.50575 0.35336 0.0
N445 N 0.0567 0.51366 0.36611 0.0
C446 C 0.10277 0.48757 0.33237 0.0
C447 C 0.11537 0.52777 0.38097 0.0
C448 C 0.06738 0.49195 0.33922 0.0
C449 C 0.07976 0.53149 0.38693 0.0
C450 C 0.19771 0.53917 0.23878 0.0
C451 C 0.23102 0.53425 0.18359 0.0
N452 N 0.22056 0.56662 0.17375 0.0
C453 C 0.18717 0.57234 0.22805 0.0
C454 C 0.21969 0.51989 0.21632 0.0
C455 C 0.19904 0.58576 0.19509 0.0
C456 C 0.14295 0.61272 0.31818 0.0
N457 N 0.1353 0.57923 0.31004 0.0
C458 C 0.08397 0.59682 0.27847 0.0
C459 C 0.10635 0.57081 0.29084 0.0
C460 C 0.09192 0.63188 0.2852 0.0
C461 C 0.1216 0.63951 0.30601 0.0
H462 H 0.16681 0.61885 0.33217 0.0
H463 H 0.10157 0.5441 0.28346 0.0
C464 C 0.16573 0.41696 0.30717 0.0
N465 N 0.17335 0.44393 0.28476 0.0
C466 C 0.14676 0.38862 0.29424 0.0
C467 C 0.145 0.41583 0.23517 0.0
C468 C 0.1641 0.44351 0.24919 0.0
C469 C 0.1351 0.38835 0.25805 0.0
H470 H 0.17261 0.41837 0.33558 0.0
H471 H 0.16958 0.46568 0.23221 0.0
C472 C 0.22639 0.58249 0.3677 0.0
N473 N 0.25287 0.61936 0.42575 0.0
C474 C 0.26168 0.59082 0.36893 0.0
C475 C 0.20452 0.59316 0.39583 0.0
C476 C 0.27457 0.60944 0.39854 0.0
C477 C 0.21842 0.61168 0.425 0.0
C478 C 0.24707 0.45456 0.32347 0.0
C479 C 0.24447 0.4337 0.35437 0.0
C480 C 0.25785 0.44002 0.29061 0.0
C481 C 0.25247 0.39841 0.35178 0.0
C482 C 0.26555 0.40462 0.28912 0.0
N483 N 0.26271 0.38472 0.31948 0.0
C484 C 0.19911 0.50144 0.43551 0.0
C485 C 0.25625 0.51713 0.41854 0.0
C486 C 0.209 0.49933 0.47197 0.0
N487 N 0.22262 0.51067 0.40978 0.0
C488 C 0.2671 0.5161 0.45468 0.0
C489 C 0.24335 0.50728 0.48222 0.0
H490 H 0.17265 0.4958 0.42773 0.0
H491 H 0.27457 0.52378 0.39743 0.0
C492 C 0.26421 0.58943 0.27011 0.0
N493 N 0.26831 0.55481 0.27556 0.0
C494 C 0.29059 0.60888 0.25426 0.0
C495 C 0.32491 0.55654 0.24916 0.0
C496 C 0.2977 0.53801 0.26523 0.0
C497 C 0.32168 0.59259 0.24407 0.0
H498 H 0.24051 0.60203 0.27871 0.0
H499 H 0.30026 0.51045 0.2701 0.0
O500 O 0.16167 0.50207 0.34691 0.0
O501 O 0.18711 0.52588 0.27139 0.0
O502 O 0.21336 0.56372 0.33928 0.0
O503 O 0.23888 0.48902 0.32532 0.0
H504 H 0.11118 0.47054 0.31077 0.0
H505 H 0.1337 0.54193 0.39753 0.0
H506 H 0.0484 0.47816 0.32309 0.0
H507 H 0.07045 0.54855 0.40812 0.0
H508 H 0.24822 0.51971 0.16607 0.0
H509 H 0.17031 0.58772 0.2451 0.0
H510 H 0.22824 0.49426 0.2243 0.0
H511 H 0.19122 0.61146 0.18653 0.0
H512 H 0.06135 0.58956 0.26279 0.0
H513 H 0.12955 0.666 0.31114 0.0
H514 H 0.13995 0.36793 0.3128 0.0
H515 H 0.13608 0.41723 0.20734 0.0
H516 H 0.27904 0.58258 0.34753 0.0
H517 H 0.17714 0.58702 0.39522 0.0
H518 H 0.30186 0.61588 0.39997 0.0
H519 H 0.20183 0.61992 0.44706 0.0
H520 H 0.2361 0.44455 0.38 0.0
H521 H 0.26 0.45585 0.26647 0.0
H522 H 0.25043 0.3819 0.37543 0.0
H523 H 0.27375 0.39295 0.26383 0.0
H524 H 0.18984 0.49149 0.49181 0.0
H525 H 0.29368 0.52296 0.46086 0.0
H526 H 0.2868 0.63648 0.25035 0.0
H527 H 0.34859 0.54307 0.24194 0.0
Li528 Li 0.96416 0.2308 0.80014 0.0
Li529 Li 0.98178 0.20927 0.86007 0.0
Li530 Li 0.01108 0.19008 0.80459 0.0
Li531 Li 0.95177 0.17081 0.81792 0.0
C532 C 0.04294 0.24708 0.82346 0.0
N533 N 0.11278 0.26272 0.81947 0.0
C534 C 0.0638 0.24448 0.85436 0.0
C535 C 0.05749 0.25785 0.7906 0.0
C536 C 0.09909 0.25247 0.85177 0.0
C537 C 0.09289 0.26555 0.78912 0.0
C538 C 0.91501 0.22639 0.86768 0.0
C539 C 0.88581 0.21843 0.92498 0.0
N540 N 0.87813 0.25287 0.92573 0.0
C541 C 0.90668 0.26169 0.86891 0.0
C542 C 0.90433 0.20453 0.89581 0.0
C543 C 0.88805 0.27458 0.89852 0.0
C544 C 0.90807 0.2642 0.77009 0.0
N545 N 0.94269 0.26831 0.77554 0.0
C546 C 0.94096 0.32491 0.74915 0.0
C547 C 0.9595 0.2977 0.76522 0.0
C548 C 0.90491 0.32167 0.74405 0.0
C549 C 0.88863 0.29058 0.75424 0.0
H550 H 0.89547 0.2405 0.77869 0.0
H551 H 0.98706 0.30027 0.77009 0.0
C552 C 0.99605 0.19912 0.93549 0.0
N553 N 0.98683 0.22262 0.90977 0.0
C554 C 0.99816 0.20901 0.97196 0.0
C555 C 0.98139 0.2671 0.95468 0.0
C556 C 0.98036 0.25626 0.91853 0.0
C557 C 0.99021 0.24336 0.98221 0.0
H558 H 0.00169 0.17266 0.92772 0.0
H559 H 0.97371 0.27457 0.89743 0.0
C560 C 0.95833 0.19771 0.73877 0.0
N561 N 0.93089 0.22055 0.67373 0.0
C562 C 0.92517 0.18717 0.72803 0.0
C563 C 0.97762 0.21968 0.71631 0.0
C564 C 0.91175 0.19903 0.69506 0.0
C565 C 0.96326 0.23102 0.68357 0.0
C566 C 0.99174 0.12692 0.85335 0.0
C567 C 0.00992 0.10278 0.83236 0.0
C568 C 0.96972 0.11538 0.88095 0.0
C569 C 0.00554 0.06738 0.83921 0.0
C570 C 0.966 0.07977 0.88692 0.0
N571 N 0.98383 0.05671 0.86609 0.0
C572 C 0.08054 0.16574 0.80717 0.0
C573 C 0.05399 0.1641 0.74918 0.0
C574 C 0.10888 0.14676 0.79424 0.0
N575 N 0.05357 0.17335 0.78475 0.0
C576 C 0.08168 0.145 0.73517 0.0
C577 C 0.10915 0.13511 0.75805 0.0
H578 H 0.07912 0.17262 0.83558 0.0
H579 H 0.03183 0.16958 0.7322 0.0
C580 C 0.88477 0.14296 0.81815 0.0
N581 N 0.91827 0.13531 0.81002 0.0
C582 C 0.85798 0.12161 0.80598 0.0
C583 C 0.90066 0.08397 0.77846 0.0
C584 C 0.92668 0.10635 0.79083 0.0
C585 C 0.86561 0.09192 0.78518 0.0
H586 H 0.87865 0.16682 0.83215 0.0
H587 H 0.9534 0.10157 0.78345 0.0
O588 O 0.00848 0.23889 0.82531 0.0
O589 O 0.93378 0.21337 0.83926 0.0
O590 O 0.97162 0.18711 0.77137 0.0
O591 O 0.99542 0.16167 0.8469 0.0
H592 H 0.05295 0.23611 0.87999 0.0
H593 H 0.04166 0.26001 0.76646 0.0
H594 H 0.1156 0.25044 0.87542 0.0
H595 H 0.10455 0.27376 0.76383 0.0
H596 H 0.87756 0.20184 0.94704 0.0
H597 H 0.91492 0.27905 0.84751 0.0
H598 H 0.91047 0.17715 0.8952 0.0
H599 H 0.88161 0.30187 0.89995 0.0
H600 H 0.95443 0.34859 0.74193 0.0
H601 H 0.86103 0.28679 0.75033 0.0
H602 H 0.006 0.18985 0.99179 0.0
H603 H 0.97453 0.29368 0.96085 0.0
H604 H 0.90978 0.1703 0.74508 0.0
H605 H 0.00325 0.22824 0.72429 0.0
H606 H 0.88605 0.19122 0.6865 0.0
H607 H 0.97781 0.24821 0.66605 0.0
H608 H 0.02695 0.11118 0.81076 0.0
H609 H 0.95556 0.13371 0.89751 0.0
H610 H 0.01933 0.0484 0.82308 0.0
H611 H 0.94893 0.07046 0.9081 0.0
H612 H 0.12957 0.13996 0.81281 0.0
H613 H 0.08028 0.13608 0.70734 0.0
H614 H 0.83149 0.12956 0.81112 0.0
H615 H 0.90792 0.06135 0.76278 0.0
Li616 Li 0.26671 0.96414 0.30016 0.0
Li617 Li 0.28824 0.98177 0.36008 0.0
Li618 Li 0.30742 0.01107 0.30461 0.0
Li619 Li 0.3267 0.95176 0.31793 0.0
C620 C 0.25043 0.04293 0.32348 0.0
N621 N 0.23479 0.11277 0.3195 0.0
C622 C 0.25303 0.06379 0.35438 0.0
C623 C 0.23965 0.05747 0.29062 0.0
C624 C 0.24504 0.09908 0.3518 0.0
C625 C 0.23195 0.09287 0.28914 0.0
C626 C 0.27112 0.915 0.3677 0.0
C627 C 0.27908 0.88581 0.425 0.0
N628 N 0.24464 0.87813 0.42575 0.0
C629 C 0.23582 0.90667 0.36893 0.0
C630 C 0.29299 0.90433 0.39583 0.0
C631 C 0.22293 0.88805 0.39855 0.0
C632 C 0.2333 0.90806 0.27011 0.0
N633 N 0.2292 0.94268 0.27556 0.0
C634 C 0.17259 0.94094 0.24917 0.0
C635 C 0.1998 0.95948 0.26524 0.0
C636 C 0.17583 0.9049 0.24408 0.0
C637 C 0.20691 0.88861 0.25427 0.0
H638 H 0.257 0.89546 0.27871 0.0
H639 H 0.19724 0.98704 0.27012 0.0
C640 C 0.29839 0.99605 0.43551 0.0
N641 N 0.27489 0.98682 0.40979 0.0
C642 C 0.2885 0.99815 0.47198 0.0
C643 C 0.23041 0.98139 0.45469 0.0
C644 C 0.24125 0.98036 0.41855 0.0
C645 C 0.25416 0.9902 0.48223 0.0
H646 H 0.32485 0.00168 0.42774 0.0
H647 H 0.22294 0.97371 0.39744 0.0
C648 C 0.29979 0.95832 0.23878 0.0
N649 N 0.27694 0.93087 0.17375 0.0
C650 C 0.31034 0.92515 0.22805 0.0
C651 C 0.27782 0.9776 0.21633 0.0
C652 C 0.29847 0.91173 0.19509 0.0
C653 C 0.26648 0.96324 0.1836 0.0
C654 C 0.37059 0.99174 0.35336 0.0
C655 C 0.39473 0.00992 0.33237 0.0
C656 C 0.38214 0.96972 0.38096 0.0
C657 C 0.43013 0.00555 0.33922 0.0
C658 C 0.41775 0.966 0.38692 0.0
N659 N 0.4408 0.98384 0.3661 0.0
C660 C 0.33177 0.08053 0.30718 0.0
C661 C 0.33341 0.05398 0.2492 0.0
C662 C 0.35074 0.10887 0.29425 0.0
N663 N 0.32415 0.05356 0.28477 0.0
C664 C 0.3525 0.08166 0.23518 0.0
C665 C 0.3624 0.10914 0.25806 0.0
H666 H 0.32489 0.07912 0.33559 0.0
H667 H 0.32792 0.03181 0.23221 0.0
C668 C 0.35456 0.88477 0.31817 0.0
N669 N 0.3622 0.91827 0.31003 0.0
C670 C 0.37591 0.85798 0.306 0.0
C671 C 0.41354 0.90067 0.27847 0.0
C672 C 0.39116 0.92668 0.29084 0.0
C673 C 0.40559 0.86562 0.2852 0.0
H674 H 0.3307 0.87864 0.33216 0.0
H675 H 0.39593 0.95339 0.28346 0.0
O676 O 0.25862 0.00847 0.32533 0.0
O677 O 0.28414 0.93377 0.33928 0.0
O678 O 0.3104 0.97161 0.27139 0.0
O679 O 0.33584 0.99542 0.34691 0.0
H680 H 0.2614 0.05294 0.38001 0.0
H681 H 0.2375 0.04164 0.26648 0.0
H682 H 0.24707 0.11559 0.37544 0.0
H683 H 0.22375 0.10454 0.26385 0.0
H684 H 0.29567 0.87757 0.44706 0.0
H685 H 0.21846 0.91491 0.34753 0.0
H686 H 0.32036 0.91047 0.39522 0.0
H687 H 0.19564 0.88161 0.39997 0.0
H688 H 0.14891 0.95442 0.24196 0.0
H689 H 0.2107 0.86101 0.25035 0.0
H690 H 0.30767 0.00599 0.49181 0.0
H691 H 0.20383 0.97453 0.46087 0.0
H692 H 0.3272 0.90977 0.2451 0.0
H693 H 0.26926 0.00323 0.22431 0.0
H694 H 0.30628 0.88603 0.18653 0.0
H695 H 0.24928 0.97778 0.16607 0.0
H696 H 0.38632 0.02695 0.31078 0.0
H697 H 0.3638 0.95555 0.39752 0.0
H698 H 0.4491 0.01933 0.32308 0.0
H699 H 0.42705 0.94894 0.40811 0.0
H700 H 0.35755 0.12956 0.31282 0.0
H701 H 0.36142 0.08026 0.20735 0.0
H702 H 0.36796 0.83149 0.31114 0.0
H703 H 0.43616 0.90793 0.26278 0.0
Li704 Li 0.47622 0.78411 0.8589 0.0
Li705 Li 0.50689 0.80761 0.80702 0.0
Li706 Li 0.44344 0.81478 0.81225 0.0
Li707 Li 0.46769 0.75781 0.7973 0.0
C708 C 0.48231 0.85717 0.87094 0.0
N709 N 0.48731 0.90466 0.92687 0.0
C710 C 0.5127 0.87649 0.87558 0.0
C711 C 0.45443 0.86209 0.89464 0.0
C712 C 0.51473 0.90034 0.90405 0.0
C713 C 0.45747 0.8862 0.92277 0.0
C714 C 0.54191 0.75506 0.84573 0.0
C715 C 0.59066 0.71953 0.8631 0.0
N716 N 0.60282 0.74591 0.88408 0.0
C717 C 0.55487 0.78181 0.86744 0.0
C718 C 0.55987 0.72365 0.84352 0.0
C719 C 0.5857 0.77669 0.88664 0.0
C720 C 0.46377 0.74235 0.91973 0.0
N721 N 0.47844 0.77298 0.90968 0.0
C722 C 0.49393 0.78513 0.97132 0.0
C723 C 0.49392 0.79404 0.93457 0.0
C724 C 0.47883 0.75378 0.98237 0.0
C725 C 0.46394 0.73202 0.95611 0.0
H726 H 0.45192 0.72592 0.8994 0.0
H727 H 0.5065 0.81768 0.9261 0.0
C728 C 0.53449 0.86261 0.77264 0.0
N729 N 0.54535 0.83284 0.78865 0.0
C730 C 0.55825 0.88531 0.75716 0.0
C731 C 0.60451 0.84666 0.77529 0.0
C732 C 0.57955 0.82411 0.78978 0.0
C733 C 0.59395 0.878 0.75898 0.0
H734 H 0.50707 0.8686 0.77182 0.0
H735 H 0.58756 0.79995 0.80205 0.0
C736 C 0.39787 0.76981 0.84008 0.0
N737 N 0.32685 0.77241 0.84976 0.0
C738 C 0.3757 0.75672 0.81337 0.0
C739 C 0.384 0.78372 0.87194 0.0
C740 C 0.33985 0.75842 0.8187 0.0
C741 C 0.348 0.78493 0.87627 0.0
C742 C 0.48657 0.79897 0.73616 0.0
C743 C 0.47646 0.82086 0.70785 0.0
C744 C 0.51366 0.77537 0.73086 0.0
C745 C 0.49356 0.81864 0.67449 0.0
C746 C 0.53011 0.77396 0.69711 0.0
N747 N 0.5198 0.79544 0.66986 0.0
C748 C 0.39872 0.87491 0.81531 0.0
C749 C 0.38672 0.83235 0.7706 0.0
C750 C 0.37126 0.89546 0.80283 0.0
N751 N 0.40563 0.84388 0.79927 0.0
C752 C 0.35905 0.85186 0.7574 0.0
C753 C 0.35094 0.88387 0.77358 0.0
H754 H 0.4147 0.88404 0.83736 0.0
H755 H 0.39349 0.80806 0.7577 0.0
C756 C 0.45444 0.68597 0.78776 0.0
N757 N 0.45559 0.71714 0.77056 0.0
C758 C 0.43965 0.65715 0.77054 0.0
C759 C 0.42925 0.69271 0.71766 0.0
C760 C 0.44356 0.72086 0.73609 0.0
C761 C 0.42603 0.6605 0.73522 0.0
H762 H 0.46336 0.68393 0.81552 0.0
H763 H 0.44345 0.74604 0.72331 0.0
O764 O 0.4801 0.8335 0.84337 0.0
O765 O 0.51152 0.75925 0.82706 0.0
O766 O 0.43301 0.7689 0.83511 0.0
O767 O 0.47053 0.80125 0.76917 0.0
H768 H 0.53452 0.873 0.85744 0.0
H769 H 0.43076 0.84736 0.89142 0.0
H770 H 0.53811 0.91541 0.90802 0.0
H771 H 0.43613 0.89022 0.94137 0.0
H772 H 0.60485 0.69535 0.86165 0.0
H773 H 0.54142 0.80631 0.86926 0.0
H774 H 0.55008 0.70265 0.82688 0.0
H775 H 0.59605 0.7972 0.90351 0.0
H776 H 0.50611 0.80227 0.99084 0.0
H777 H 0.45211 0.70759 0.96375 0.0
H778 H 0.54852 0.90838 0.74386 0.0
H779 H 0.63169 0.83987 0.77746 0.0
H780 H 0.38608 0.74567 0.78864 0.0
H781 H 0.40085 0.79337 0.89314 0.0
H782 H 0.32235 0.74865 0.79814 0.0
H783 H 0.33687 0.79576 0.90073 0.0
H784 H 0.45566 0.8394 0.71167 0.0
H785 H 0.52194 0.7584 0.7526 0.0
H786 H 0.48602 0.8354 0.6523 0.0
H787 H 0.5511 0.75583 0.69259 0.0
H788 H 0.36589 0.92 0.81601 0.0
H789 H 0.34459 0.84229 0.73427 0.0
H790 H 0.43725 0.63314 0.78557 0.0
H791 H 0.41964 0.69659 0.69035 0.0
Li792 Li 0.68989 0.50689 0.30702 0.0
Li793 Li 0.71338 0.47623 0.35889 0.0
Li794 Li 0.73969 0.4677 0.2973 0.0
Li795 Li 0.68272 0.44345 0.31224 0.0
C796 C 0.74243 0.54191 0.34573 0.0
N797 N 0.75159 0.60282 0.3841 0.0
C798 C 0.71569 0.55488 0.36745 0.0
C799 C 0.77385 0.55988 0.34353 0.0
C800 C 0.72081 0.58571 0.38664 0.0
C801 C 0.77797 0.59066 0.36312 0.0
C802 C 0.64033 0.48231 0.37094 0.0
C803 C 0.6113 0.45746 0.42277 0.0
N804 N 0.59285 0.4873 0.42687 0.0
C805 C 0.62101 0.51269 0.37558 0.0
C806 C 0.63541 0.45442 0.39463 0.0
C807 C 0.59716 0.51472 0.40406 0.0
C808 C 0.63489 0.5345 0.27265 0.0
N809 N 0.66466 0.54536 0.28865 0.0
C810 C 0.65084 0.60451 0.27529 0.0
C811 C 0.67339 0.57955 0.28978 0.0
C812 C 0.6195 0.59396 0.25898 0.0
C813 C 0.61219 0.55825 0.25717 0.0
H814 H 0.6289 0.50708 0.27183 0.0
H815 H 0.69756 0.58757 0.30204 0.0
C816 C 0.75515 0.46377 0.41973 0.0
N817 N 0.72452 0.47845 0.40968 0.0
C818 C 0.76547 0.46393 0.45611 0.0
C819 C 0.71237 0.49393 0.47131 0.0
C820 C 0.70346 0.49393 0.43456 0.0
C821 C 0.74372 0.47882 0.48236 0.0
H822 H 0.77157 0.45192 0.39939 0.0
H823 H 0.67982 0.50651 0.4261 0.0
C824 C 0.69852 0.48658 0.23615 0.0
N825 N 0.70203 0.51982 0.16986 0.0
C826 C 0.67662 0.47647 0.20785 0.0
C827 C 0.72212 0.51367 0.23085 0.0
C828 C 0.67882 0.49358 0.1745 0.0
C829 C 0.72352 0.53012 0.1971 0.0
C830 C 0.72769 0.39788 0.34006 0.0
C831 C 0.74078 0.37572 0.31334 0.0
C832 C 0.71378 0.384 0.37192 0.0
C833 C 0.73909 0.33986 0.31867 0.0
C834 C 0.71258 0.348 0.37624 0.0
N835 N 0.7251 0.32686 0.34972 0.0
C836 C 0.81153 0.45444 0.28776 0.0
C837 C 0.77664 0.44358 0.23608 0.0
C838 C 0.84034 0.43965 0.27055 0.0
N839 N 0.78036 0.4556 0.27056 0.0
C840 C 0.8048 0.42927 0.21765 0.0
C841 C 0.83701 0.42604 0.23522 0.0
H842 H 0.81356 0.46335 0.31553 0.0
H843 H 0.75147 0.44348 0.2233 0.0
C844 C 0.62259 0.39871 0.3153 0.0
N845 N 0.65362 0.40563 0.29926 0.0
C846 C 0.60204 0.37126 0.30282 0.0
C847 C 0.64563 0.35906 0.25739 0.0
C848 C 0.66515 0.38673 0.27059 0.0
C849 C 0.61363 0.35094 0.27356 0.0
H850 H 0.61347 0.41469 0.33735 0.0
H851 H 0.68944 0.3935 0.25768 0.0
O852 O 0.73825 0.51153 0.32706 0.0
O853 O 0.66399 0.4801 0.34337 0.0
O854 O 0.69625 0.47054 0.26917 0.0
O855 O 0.7286 0.43301 0.3351 0.0
H856 H 0.69118 0.54142 0.36925 0.0
H857 H 0.79485 0.55009 0.3269 0.0
H858 H 0.70029 0.59605 0.40352 0.0
H859 H 0.80215 0.60486 0.36167 0.0
H860 H 0.60729 0.43612 0.44137 0.0
H861 H 0.6245 0.53452 0.35745 0.0
H862 H 0.65014 0.43076 0.39141 0.0
H863 H 0.58209 0.5381 0.40803 0.0
H864 H 0.65763 0.63169 0.27746 0.0
H865 H 0.58911 0.54852 0.24387 0.0
H866 H 0.7899 0.4521 0.46375 0.0
H867 H 0.69524 0.50611 0.49084 0.0
H868 H 0.65808 0.45567 0.21168 0.0
H869 H 0.73909 0.52195 0.25259 0.0
H870 H 0.66205 0.48603 0.15231 0.0
H871 H 0.74164 0.55112 0.19258 0.0
H872 H 0.75183 0.3861 0.28861 0.0
H873 H 0.70413 0.40085 0.39312 0.0
H874 H 0.74886 0.32237 0.2981 0.0
H875 H 0.70174 0.33687 0.4007 0.0
H876 H 0.86435 0.43724 0.28558 0.0
H877 H 0.80092 0.41967 0.19034 0.0
H878 H 0.57751 0.36588 0.316 0.0
H879 H 0.65521 0.3446 0.23425 0.0
Li880 Li 0.02128 0.71337 0.8589 0.0
Li881 Li 0.99062 0.68988 0.80703 0.0
Li882 Li 0.05406 0.68271 0.81224 0.0
Li883 Li 0.02981 0.73968 0.79731 0.0
C884 C 0.01519 0.64032 0.87094 0.0
N885 N 0.01019 0.59284 0.92687 0.0
C886 C 0.98481 0.621 0.87558 0.0
C887 C 0.04308 0.6354 0.89464 0.0
C888 C 0.98278 0.59715 0.90406 0.0
C889 C 0.04003 0.61129 0.92277 0.0
C890 C 0.9556 0.74242 0.84574 0.0
C891 C 0.90685 0.77796 0.86313 0.0
N892 N 0.89469 0.75158 0.88411 0.0
C893 C 0.94263 0.71568 0.86745 0.0
C894 C 0.93764 0.77384 0.84355 0.0
C895 C 0.9118 0.7208 0.88665 0.0
C896 C 0.03374 0.75514 0.91974 0.0
N897 N 0.01906 0.72451 0.90969 0.0
C898 C 0.00357 0.71236 0.97132 0.0
C899 C 0.00358 0.70345 0.93457 0.0
C900 C 0.01868 0.74371 0.98237 0.0
C901 C 0.03357 0.76546 0.95612 0.0
H902 H 0.04559 0.77156 0.89941 0.0
H903 H 0.99099 0.67981 0.92611 0.0
C904 C 0.96301 0.63488 0.77265 0.0
N905 N 0.95215 0.66465 0.78866 0.0
C906 C 0.93925 0.61218 0.75717 0.0
C907 C 0.89299 0.65083 0.77529 0.0
C908 C 0.91795 0.67338 0.78979 0.0
C909 C 0.90355 0.61949 0.75898 0.0
H910 H 0.99043 0.62889 0.77183 0.0
H911 H 0.90994 0.69755 0.80205 0.0
C912 C 0.09963 0.72768 0.84007 0.0
N913 N 0.17065 0.72508 0.84974 0.0
C914 C 0.1218 0.74077 0.81336 0.0
C915 C 0.11351 0.71377 0.87193 0.0
C916 C 0.15765 0.73907 0.81868 0.0
C917 C 0.14951 0.71256 0.87625 0.0
C918 C 0.01093 0.69851 0.73616 0.0
C919 C 0.02104 0.67662 0.70786 0.0
C920 C 0.98384 0.72211 0.73086 0.0
C921 C 0.00393 0.67883 0.6745 0.0
C922 C 0.96739 0.72352 0.69711 0.0
N923 N 0.97769 0.70203 0.66987 0.0
C924 C 0.09879 0.62257 0.8153 0.0
C925 C 0.11078 0.66514 0.77059 0.0
C926 C 0.12624 0.60203 0.80282 0.0
N927 N 0.09187 0.65361 0.79927 0.0
C928 C 0.13845 0.64562 0.75739 0.0
C929 C 0.14656 0.61362 0.77357 0.0
H930 H 0.0828 0.61345 0.83736 0.0
H931 H 0.10401 0.68943 0.75769 0.0
C932 C 0.04307 0.81152 0.78777 0.0
N933 N 0.04191 0.78034 0.77057 0.0
C934 C 0.05786 0.84033 0.77055 0.0
C935 C 0.06825 0.80478 0.71767 0.0
C936 C 0.05394 0.77663 0.73609 0.0
C937 C 0.07147 0.83699 0.73523 0.0
H938 H 0.03415 0.81355 0.81553 0.0
H939 H 0.05405 0.75145 0.72331 0.0
O940 O 0.0174 0.66398 0.84338 0.0
O941 O 0.98598 0.73824 0.82707 0.0
O942 O 0.0645 0.72859 0.83511 0.0
O943 O 0.02697 0.69624 0.76918 0.0
H944 H 0.96298 0.62449 0.85745 0.0
H945 H 0.06674 0.65013 0.89142 0.0
H946 H 0.9594 0.58208 0.90803 0.0
H947 H 0.06138 0.60728 0.94137 0.0
H948 H 0.89266 0.80214 0.86168 0.0
H949 H 0.95608 0.69117 0.86926 0.0
H950 H 0.94743 0.79484 0.82691 0.0
H951 H 0.90146 0.70028 0.90352 0.0
H952 H 0.99139 0.69522 0.99085 0.0
H953 H 0.04541 0.78989 0.96376 0.0
H954 H 0.94898 0.5891 0.74387 0.0
H955 H 0.86581 0.65762 0.77746 0.0
H956 H 0.11142 0.75182 0.78863 0.0
H957 H 0.09666 0.70412 0.89313 0.0
H958 H 0.17515 0.74884 0.79812 0.0
H959 H 0.16064 0.70173 0.90071 0.0
H960 H 0.04184 0.65808 0.71168 0.0
H961 H 0.97556 0.73908 0.7526 0.0
H962 H 0.01148 0.66206 0.65231 0.0
H963 H 0.9464 0.74165 0.6926 0.0
H964 H 0.13162 0.57749 0.816 0.0
H965 H 0.1529 0.65519 0.73425 0.0
H966 H 0.06026 0.86435 0.78559 0.0
H967 H 0.07785 0.8009 0.69035 0.0
Li968 Li 0.78411 0.02127 0.35888 0.0
Li969 Li 0.80761 0.99061 0.30701 0.0
Li970 Li 0.81478 0.05405 0.31223 0.0
Li971 Li 0.7578 0.0298 0.29729 0.0
C972 C 0.85716 0.01519 0.37092 0.0
N973 N 0.90465 0.0102 0.42685 0.0
C974 C 0.87648 0.98481 0.37557 0.0
C975 C 0.86208 0.04308 0.39462 0.0
C976 C 0.90034 0.98278 0.40404 0.0
C977 C 0.88619 0.04004 0.42275 0.0
C978 C 0.75506 0.95559 0.34572 0.0
C979 C 0.71952 0.90684 0.36311 0.0
N980 N 0.7459 0.89468 0.38409 0.0
C981 C 0.7818 0.94262 0.36743 0.0
C982 C 0.72364 0.93762 0.34353 0.0
C983 C 0.77668 0.91179 0.38663 0.0
C984 C 0.74234 0.03373 0.41972 0.0
N985 N 0.77297 0.01905 0.40967 0.0
C986 C 0.78512 0.00357 0.4713 0.0
C987 C 0.79403 0.00358 0.43455 0.0
C988 C 0.75377 0.01868 0.48235 0.0
C989 C 0.73202 0.03357 0.4561 0.0
H990 H 0.72592 0.04558 0.39939 0.0
H991 H 0.81767 0.99099 0.42609 0.0
C992 C 0.8626 0.963 0.27264 0.0
N993 N 0.83283 0.95214 0.28864 0.0
C994 C 0.88531 0.93924 0.25716 0.0
C995 C 0.84665 0.89298 0.27528 0.0
C996 C 0.8241 0.91794 0.28977 0.0
C997 C 0.878 0.90353 0.25898 0.0
H998 H 0.8686 0.99042 0.27181 0.0
H999 H 0.79993 0.90993 0.30204 0.0
C1000 C 0.76981 0.09962 0.34005 0.0
N1001 N 0.7724 0.17064 0.34972 0.0
C1002 C 0.75671 0.12178 0.31334 0.0
C1003 C 0.78371 0.1135 0.37191 0.0
C1004 C 0.75841 0.15764 0.31867 0.0
C1005 C 0.78492 0.1495 0.37623 0.0
C1006 C 0.79898 0.01091 0.23614 0.0
C1007 C 0.82088 0.02102 0.20784 0.0
C1008 C 0.77537 0.98382 0.23084 0.0
C1009 C 0.81867 0.00391 0.17449 0.0
C1010 C 0.77398 0.96737 0.19709 0.0
N1011 N 0.79546 0.97767 0.16985 0.0
C1012 C 0.87491 0.09878 0.31528 0.0
C1013 C 0.83235 0.11077 0.27058 0.0
C1014 C 0.89545 0.12624 0.3028 0.0
N1015 N 0.84387 0.09187 0.29925 0.0
C1016 C 0.85186 0.13844 0.25738 0.0
C1017 C 0.88386 0.14655 0.27355 0.0
H1018 H 0.88403 0.0828 0.33734 0.0
H1019 H 0.80805 0.104 0.25768 0.0
C1020 C 0.68596 0.04306 0.28775 0.0
N1021 N 0.71714 0.04189 0.27055 0.0
C1022 C 0.65715 0.05785 0.27054 0.0
C1023 C 0.6927 0.06823 0.21765 0.0
C1024 C 0.72086 0.05392 0.23607 0.0
C1025 C 0.66049 0.07146 0.23521 0.0
H1026 H 0.68393 0.03415 0.31552 0.0
H1027 H 0.74603 0.05402 0.22329 0.0
O1028 O 0.8335 0.01739 0.34336 0.0
O1029 O 0.75924 0.98597 0.32705 0.0
O1030 O 0.76889 0.06449 0.33509 0.0
O1031 O 0.80124 0.02696 0.26916 0.0
H1032 H 0.873 0.96298 0.35743 0.0
H1033 H 0.84735 0.06674 0.39139 0.0
H1034 H 0.91541 0.9594 0.40801 0.0
H1035 H 0.8902 0.06139 0.44135 0.0
H1036 H 0.69534 0.89264 0.36166 0.0
H1037 H 0.80631 0.95608 0.36924 0.0
H1038 H 0.70264 0.94741 0.32689 0.0
H1039 H 0.79719 0.90145 0.40351 0.0
H1040 H 0.80226 0.99139 0.49083 0.0
H1041 H 0.70759 0.0454 0.46374 0.0
H1042 H 0.90839 0.94896 0.24386 0.0
H1043 H 0.83986 0.8658 0.27746 0.0
H1044 H 0.74566 0.1114 0.28861 0.0
H1045 H 0.79336 0.09665 0.39311 0.0
H1046 H 0.74864 0.17513 0.2981 0.0
H1047 H 0.79575 0.16063 0.40069 0.0
H1048 H 0.83941 0.04182 0.21167 0.0
H1049 H 0.7584 0.97554 0.25258 0.0
H1050 H 0.83544 0.01145 0.1523 0.0
H1051 H 0.75585 0.94637 0.19258 0.0
H1052 H 0.91999 0.13162 0.31599 0.0
H1053 H 0.84229 0.1529 0.23424 0.0
H1054 H 0.63314 0.06026 0.28557 0.0
H1055 H 0.69658 0.07782 0.19033 0.0
Li1056 Li 0.46771 0.73969 0.20617 0.0
Li1057 Li 0.44345 0.68271 0.19123 0.0
Li1058 Li 0.5069 0.68988 0.19644 0.0
Li1059 Li 0.47623 0.71338 0.14457 0.0
C1060 C 0.48659 0.69851 0.26731 0.0
N1061 N 0.51982 0.70202 0.3336 0.0
C1062 C 0.47648 0.67661 0.29561 0.0
C1063 C 0.51368 0.72211 0.27261 0.0
C1064 C 0.49358 0.67882 0.32896 0.0
C1065 C 0.53013 0.72351 0.30636 0.0
C1066 C 0.39788 0.72769 0.1634 0.0
C1067 C 0.348 0.71258 0.12722 0.0
N1068 N 0.32686 0.7251 0.15374 0.0
C1069 C 0.37572 0.74078 0.19012 0.0
C1070 C 0.384 0.71378 0.13154 0.0
C1071 C 0.33986 0.73908 0.1848 0.0
C1072 C 0.45444 0.81153 0.2157 0.0
N1073 N 0.45561 0.78035 0.2329 0.0
C1074 C 0.42928 0.8048 0.28581 0.0
C1075 C 0.44359 0.77664 0.26738 0.0
C1076 C 0.42605 0.837 0.26824 0.0
C1077 C 0.43965 0.84034 0.23292 0.0
H1078 H 0.46336 0.81356 0.18793 0.0
H1079 H 0.44349 0.75146 0.28017 0.0
C1080 C 0.39872 0.62258 0.18817 0.0
N1081 N 0.40563 0.65362 0.2042 0.0
C1082 C 0.37126 0.60204 0.20064 0.0
C1083 C 0.35906 0.64563 0.24608 0.0
C1084 C 0.38673 0.66515 0.23288 0.0
C1085 C 0.35095 0.61363 0.2299 0.0
H1086 H 0.4147 0.61346 0.16611 0.0
H1087 H 0.39351 0.68944 0.24578 0.0
C1088 C 0.54192 0.74243 0.15773 0.0
N1089 N 0.60283 0.75158 0.11937 0.0
C1090 C 0.55488 0.71569 0.13602 0.0
C1091 C 0.55988 0.77385 0.15993 0.0
C1092 C 0.58572 0.7208 0.11682 0.0
C1093 C 0.59067 0.77796 0.14035 0.0
C1094 C 0.48232 0.64033 0.13253 0.0
C1095 C 0.5127 0.62101 0.12788 0.0
C1096 C 0.45443 0.63541 0.10883 0.0
C1097 C 0.51472 0.59716 0.0994 0.0
C1098 C 0.45747 0.6113 0.08069 0.0
N1099 N 0.4873 0.59285 0.07659 0.0
C1100 C 0.5345 0.63489 0.23081 0.0
C1101 C 0.57956 0.67339 0.21368 0.0
C1102 C 0.55826 0.61218 0.24629 0.0
N1103 N 0.54536 0.66466 0.21481 0.0
C1104 C 0.60452 0.65084 0.22817 0.0
C1105 C 0.59396 0.6195 0.24448 0.0
H1106 H 0.50708 0.62889 0.23163 0.0
H1107 H 0.58757 0.69756 0.20142 0.0
C1108 C 0.46378 0.75514 0.08373 0.0
N1109 N 0.47845 0.72451 0.09379 0.0
C1110 C 0.46394 0.76547 0.04736 0.0
C1111 C 0.49394 0.71237 0.03215 0.0
C1112 C 0.49393 0.70346 0.0689 0.0
C1113 C 0.47883 0.74372 0.0211 0.0
H1114 H 0.45192 0.77157 0.10407 0.0
H1115 H 0.50652 0.67982 0.07736 0.0
O1116 O 0.47054 0.69625 0.23429 0.0
O1117 O 0.43302 0.7286 0.16836 0.0
O1118 O 0.51154 0.73824 0.1764 0.0
O1119 O 0.48011 0.66399 0.16009 0.0
H1120 H 0.45567 0.65808 0.29178 0.0
H1121 H 0.52196 0.73909 0.25088 0.0
H1122 H 0.48604 0.66205 0.35115 0.0
H1123 H 0.55112 0.74164 0.31088 0.0
H1124 H 0.33687 0.70174 0.10277 0.0
H1125 H 0.3861 0.75183 0.21485 0.0
H1126 H 0.40085 0.70413 0.11034 0.0
H1127 H 0.32237 0.74886 0.20536 0.0
H1128 H 0.41968 0.80092 0.31313 0.0
H1129 H 0.43724 0.86435 0.21788 0.0
H1130 H 0.36588 0.5775 0.18746 0.0
H1131 H 0.3446 0.6552 0.26922 0.0
H1132 H 0.54143 0.69118 0.13421 0.0
H1133 H 0.55009 0.79484 0.17657 0.0
H1134 H 0.59606 0.70029 0.09994 0.0
H1135 H 0.60487 0.80215 0.14179 0.0
H1136 H 0.53453 0.62449 0.14601 0.0
H1137 H 0.43076 0.65014 0.11205 0.0
H1138 H 0.5381 0.58209 0.09543 0.0
H1139 H 0.43612 0.60729 0.06209 0.0
H1140 H 0.54853 0.58911 0.25959 0.0
H1141 H 0.6317 0.65763 0.226 0.0
H1142 H 0.4521 0.7899 0.03971 0.0
H1143 H 0.50612 0.69523 0.01262 0.0
Li1144 Li 0.75781 0.46769 0.70616 0.0
Li1145 Li 0.81479 0.44344 0.69122 0.0
Li1146 Li 0.80762 0.50688 0.69644 0.0
Li1147 Li 0.78412 0.47622 0.64456 0.0
C1148 C 0.79898 0.48657 0.76731 0.0
N1149 N 0.79545 0.5198 0.8336 0.0
C1150 C 0.82087 0.47646 0.79561 0.0
C1151 C 0.77538 0.51366 0.77261 0.0
C1152 C 0.81866 0.49356 0.82897 0.0
C1153 C 0.77397 0.5301 0.80636 0.0
C1154 C 0.76981 0.39787 0.66339 0.0
C1155 C 0.78493 0.34799 0.6272 0.0
N1156 N 0.77241 0.32685 0.65371 0.0
C1157 C 0.75672 0.3757 0.6901 0.0
C1158 C 0.78372 0.38399 0.63152 0.0
C1159 C 0.75842 0.33984 0.68477 0.0
C1160 C 0.68597 0.45443 0.7157 0.0
N1161 N 0.71715 0.45559 0.7329 0.0
C1162 C 0.69271 0.42925 0.7858 0.0
C1163 C 0.72087 0.44356 0.76737 0.0
C1164 C 0.6605 0.42603 0.76824 0.0
C1165 C 0.65716 0.43964 0.73292 0.0
H1166 H 0.68394 0.46335 0.68794 0.0
H1167 H 0.74604 0.44345 0.78015 0.0
C1168 C 0.87492 0.39871 0.68816 0.0
N1169 N 0.84388 0.40562 0.70419 0.0
C1170 C 0.89546 0.37125 0.70063 0.0
C1171 C 0.85187 0.35905 0.74606 0.0
C1172 C 0.83235 0.38672 0.73286 0.0
C1173 C 0.88387 0.35094 0.72989 0.0
H1174 H 0.88404 0.41469 0.6661 0.0
H1175 H 0.80806 0.39349 0.74576 0.0
C1176 C 0.75507 0.5419 0.65773 0.0
N1177 N 0.74592 0.60281 0.61937 0.0
C1178 C 0.78181 0.55486 0.63602 0.0
C1179 C 0.72365 0.55986 0.65993 0.0
C1180 C 0.77669 0.5857 0.61682 0.0
C1181 C 0.71953 0.59065 0.64035 0.0
C1182 C 0.85717 0.48231 0.63252 0.0
C1183 C 0.87649 0.51269 0.62788 0.0
C1184 C 0.86209 0.45442 0.60882 0.0
C1185 C 0.90035 0.51472 0.59941 0.0
C1186 C 0.88621 0.45746 0.58069 0.0
N1187 N 0.90466 0.4873 0.57659 0.0
C1188 C 0.86261 0.53449 0.73082 0.0
C1189 C 0.82411 0.57954 0.71368 0.0
C1190 C 0.88531 0.55825 0.7463 0.0
N1191 N 0.83284 0.54535 0.71481 0.0
C1192 C 0.84666 0.60451 0.72818 0.0
C1193 C 0.87801 0.59395 0.74448 0.0
H1194 H 0.8686 0.50707 0.73164 0.0
H1195 H 0.79995 0.58756 0.70142 0.0
C1196 C 0.74235 0.46377 0.58373 0.0
N1197 N 0.77298 0.47844 0.59378 0.0
C1198 C 0.73203 0.46393 0.54735 0.0
C1199 C 0.78513 0.49392 0.53215 0.0
C1200 C 0.79404 0.49392 0.5689 0.0
C1201 C 0.75378 0.47882 0.5211 0.0
H1202 H 0.72592 0.45191 0.60406 0.0
H1203 H 0.81768 0.5065 0.57736 0.0
O1204 O 0.80125 0.47052 0.73429 0.0
O1205 O 0.7689 0.433 0.66835 0.0
O1206 O 0.75925 0.51152 0.6764 0.0
O1207 O 0.83351 0.4801 0.66009 0.0
H1208 H 0.83941 0.45566 0.79178 0.0
H1209 H 0.75841 0.52194 0.75087 0.0
H1210 H 0.83542 0.48602 0.85115 0.0
H1211 H 0.75584 0.5511 0.81087 0.0
H1212 H 0.79576 0.33687 0.60274 0.0
H1213 H 0.74567 0.38608 0.71483 0.0
H1214 H 0.79337 0.40084 0.61032 0.0
H1215 H 0.74865 0.32235 0.70533 0.0
H1216 H 0.69659 0.41964 0.81311 0.0
H1217 H 0.63314 0.43724 0.71789 0.0
H1218 H 0.92 0.36588 0.68745 0.0
H1219 H 0.8423 0.34459 0.7692 0.0
H1220 H 0.80632 0.54141 0.63421 0.0
H1221 H 0.70266 0.55007 0.67657 0.0
H1222 H 0.79721 0.59604 0.59995 0.0
H1223 H 0.69535 0.60484 0.64181 0.0
H1224 H 0.87301 0.53452 0.64602 0.0
H1225 H 0.84737 0.43075 0.61205 0.0
H1226 H 0.91542 0.5381 0.59544 0.0
H1227 H 0.89022 0.43612 0.56209 0.0
H1228 H 0.90839 0.54852 0.7596 0.0
H1229 H 0.83987 0.63168 0.72601 0.0
H1230 H 0.70759 0.4521 0.53971 0.0
H1231 H 0.80227 0.5061 0.51262 0.0
Li1232 Li 0.05406 0.81477 0.19124 0.0
Li1233 Li 0.0298 0.7578 0.20618 0.0
Li1234 Li 0.02128 0.7841 0.14458 0.0
Li1235 Li 0.99061 0.8076 0.19645 0.0
C1236 C 0.09963 0.7698 0.16341 0.0
N1237 N 0.17065 0.77239 0.15374 0.0
C1238 C 0.12179 0.7567 0.19012 0.0
C1239 C 0.11351 0.7837 0.13155 0.0
C1240 C 0.15764 0.7584 0.1848 0.0
C1241 C 0.14951 0.78491 0.12723 0.0
C1242 C 0.01091 0.79897 0.26732 0.0
C1243 C 0.96737 0.77397 0.30637 0.0
N1244 N 0.97768 0.79546 0.33361 0.0
C1245 C 0.02102 0.82087 0.29562 0.0
C1246 C 0.98383 0.77537 0.27262 0.0
C1247 C 0.00391 0.81866 0.32898 0.0
C1248 C 0.09879 0.8749 0.18818 0.0
N1249 N 0.09187 0.84387 0.20421 0.0
C1250 C 0.13845 0.85186 0.24608 0.0
C1251 C 0.11077 0.83234 0.23288 0.0
C1252 C 0.14656 0.88386 0.22991 0.0
C1253 C 0.12624 0.89545 0.20066 0.0
H1254 H 0.0828 0.88402 0.16613 0.0
H1255 H 0.104 0.80805 0.24578 0.0
C1256 C 0.04306 0.68596 0.21571 0.0
N1257 N 0.0419 0.71713 0.23291 0.0
C1258 C 0.05785 0.65715 0.23292 0.0
C1259 C 0.06823 0.69269 0.28582 0.0
C1260 C 0.05392 0.72085 0.26739 0.0
C1261 C 0.07146 0.66049 0.26825 0.0
H1262 H 0.03415 0.68393 0.18794 0.0
H1263 H 0.05402 0.74603 0.28017 0.0
C1264 C 0.01519 0.85715 0.13254 0.0
N1265 N 0.01021 0.90464 0.07661 0.0
C1266 C 0.98481 0.87647 0.1279 0.0
C1267 C 0.04308 0.86207 0.10884 0.0
C1268 C 0.98279 0.90033 0.09942 0.0
C1269 C 0.04004 0.88618 0.08071 0.0
C1270 C 0.95559 0.75505 0.15774 0.0
C1271 C 0.94263 0.78179 0.13603 0.0
C1272 C 0.93763 0.72363 0.15994 0.0
C1273 C 0.9118 0.77668 0.11683 0.0
C1274 C 0.90684 0.71952 0.14035 0.0
N1275 N 0.89468 0.7459 0.11937 0.0
C1276 C 0.03373 0.74234 0.08374 0.0
C1277 C 0.00358 0.79403 0.06891 0.0
C1278 C 0.03357 0.73202 0.04736 0.0
N1279 N 0.01906 0.77297 0.0938 0.0
C1280 C 0.00358 0.78512 0.03216 0.0
C1281 C 0.01868 0.75377 0.02111 0.0
H1282 H 0.04558 0.72591 0.10408 0.0
H1283 H 0.991 0.81766 0.07737 0.0
C1284 C 0.963 0.8626 0.23082 0.0
N1285 N 0.95214 0.83283 0.21482 0.0
C1286 C 0.93924 0.8853 0.2463 0.0
C1287 C 0.89298 0.84665 0.22818 0.0
C1288 C 0.91794 0.8241 0.21369 0.0
C1289 C 0.90354 0.87799 0.24448 0.0
H1290 H 0.99042 0.86859 0.23165 0.0
H1291 H 0.90993 0.79993 0.20143 0.0
O1292 O 0.06449 0.76889 0.16837 0.0
O1293 O 0.02696 0.80124 0.2343 0.0
O1294 O 0.0174 0.83349 0.1601 0.0
O1295 O 0.98597 0.75924 0.17641 0.0
H1296 H 0.1114 0.74566 0.21485 0.0
H1297 H 0.09666 0.79335 0.11035 0.0
H1298 H 0.17513 0.74863 0.20536 0.0
H1299 H 0.16064 0.79574 0.10277 0.0
H1300 H 0.94638 0.75584 0.31089 0.0
H1301 H 0.04182 0.83941 0.29179 0.0
H1302 H 0.97555 0.7584 0.25088 0.0
H1303 H 0.01146 0.83543 0.35116 0.0
H1304 H 0.1529 0.84228 0.26922 0.0
H1305 H 0.13162 0.91998 0.18748 0.0
H1306 H 0.06026 0.63314 0.21789 0.0
H1307 H 0.07783 0.69657 0.31313 0.0
H1308 H 0.96298 0.87299 0.14603 0.0
H1309 H 0.06675 0.84735 0.11207 0.0
H1310 H 0.95941 0.9154 0.09545 0.0
H1311 H 0.06139 0.89019 0.06211 0.0
H1312 H 0.95608 0.80631 0.13422 0.0
H1313 H 0.94742 0.70264 0.17657 0.0
H1314 H 0.90146 0.79719 0.09995 0.0
H1315 H 0.89265 0.69533 0.1418 0.0
H1316 H 0.0454 0.70758 0.03972 0.0
H1317 H 0.9914 0.80225 0.01263 0.0
H1318 H 0.94897 0.90838 0.2596 0.0
H1319 H 0.86581 0.83986 0.22601 0.0
Li1320 Li 0.68271 0.05406 0.69122 0.0
Li1321 Li 0.73969 0.02981 0.70615 0.0
Li1322 Li 0.71338 0.02128 0.64456 0.0
Li1323 Li 0.68988 0.99061 0.69643 0.0
C1324 C 0.72768 0.09963 0.66339 0.0
N1325 N 0.72509 0.17065 0.65373 0.0
C1326 C 0.74078 0.12179 0.69011 0.0
C1327 C 0.71378 0.11351 0.63153 0.0
C1328 C 0.73908 0.15765 0.68478 0.0
C1329 C 0.71257 0.14951 0.62721 0.0
C1330 C 0.69851 0.01092 0.7673 0.0
C1331 C 0.72351 0.96739 0.80635 0.0
N1332 N 0.70202 0.97769 0.83359 0.0
C1333 C 0.67661 0.02103 0.7956 0.0
C1334 C 0.72211 0.98384 0.7726 0.0
C1335 C 0.67882 0.00392 0.82896 0.0
C1336 C 0.62258 0.09878 0.68816 0.0
N1337 N 0.65362 0.09187 0.7042 0.0
C1338 C 0.64563 0.13844 0.74607 0.0
C1339 C 0.66514 0.11077 0.73287 0.0
C1340 C 0.61363 0.14655 0.72989 0.0
C1341 C 0.60204 0.12624 0.70064 0.0
H1342 H 0.61346 0.0828 0.66611 0.0
H1343 H 0.68943 0.104 0.74577 0.0
C1344 C 0.81153 0.04307 0.71569 0.0
N1345 N 0.78035 0.0419 0.73289 0.0
C1346 C 0.84034 0.05786 0.73291 0.0
C1347 C 0.80479 0.06824 0.7858 0.0
C1348 C 0.77663 0.05393 0.76737 0.0
C1349 C 0.837 0.07146 0.76823 0.0
H1350 H 0.81356 0.03415 0.68793 0.0
H1351 H 0.75145 0.05403 0.78015 0.0
C1352 C 0.64033 0.01519 0.63252 0.0
N1353 N 0.59284 0.0102 0.57659 0.0
C1354 C 0.62101 0.98481 0.62788 0.0
C1355 C 0.63541 0.04308 0.60882 0.0
C1356 C 0.59715 0.98278 0.5994 0.0
C1357 C 0.6113 0.04003 0.58069 0.0
C1358 C 0.74243 0.95559 0.65772 0.0
C1359 C 0.71568 0.94263 0.63601 0.0
C1360 C 0.77385 0.93763 0.65991 0.0
C1361 C 0.7208 0.9118 0.61681 0.0
C1362 C 0.77796 0.90685 0.64033 0.0
N1363 N 0.75158 0.89468 0.61935 0.0
C1364 C 0.75514 0.03374 0.58372 0.0
C1365 C 0.70345 0.00357 0.56889 0.0
C1366 C 0.76546 0.03357 0.54734 0.0
N1367 N 0.72451 0.01906 0.59378 0.0
C1368 C 0.71236 0.00357 0.53214 0.0
C1369 C 0.74371 0.01868 0.52109 0.0
H1370 H 0.77157 0.04559 0.60406 0.0
H1371 H 0.67982 0.99099 0.57735 0.0
C1372 C 0.63488 0.963 0.73081 0.0
N1373 N 0.66466 0.95214 0.7148 0.0
C1374 C 0.61218 0.93924 0.74629 0.0
C1375 C 0.65084 0.89299 0.72817 0.0
C1376 C 0.67338 0.91795 0.71368 0.0
C1377 C 0.61949 0.90354 0.74447 0.0
H1378 H 0.62889 0.99042 0.73163 0.0
H1379 H 0.69756 0.90994 0.70141 0.0
O1380 O 0.7286 0.06449 0.66835 0.0
O1381 O 0.69625 0.02697 0.73428 0.0
O1382 O 0.66399 0.0174 0.66009 0.0
O1383 O 0.73824 0.98597 0.67639 0.0
H1384 H 0.75182 0.11141 0.71484 0.0
H1385 H 0.70413 0.09666 0.61033 0.0
H1386 H 0.74885 0.17514 0.70535 0.0
H1387 H 0.70174 0.16064 0.60276 0.0
H1388 H 0.74164 0.94639 0.81087 0.0
H1389 H 0.65807 0.04183 0.79177 0.0
H1390 H 0.73909 0.97556 0.75086 0.0
H1391 H 0.66205 0.01147 0.85114 0.0
H1392 H 0.6552 0.1529 0.76921 0.0
H1393 H 0.5775 0.13162 0.68746 0.0
H1394 H 0.86435 0.06026 0.71787 0.0
H1395 H 0.80091 0.07784 0.81311 0.0
H1396 H 0.62449 0.96298 0.64601 0.0
H1397 H 0.65014 0.06674 0.61205 0.0
H1398 H 0.58208 0.9594 0.59543 0.0
H1399 H 0.60729 0.06138 0.56209 0.0
H1400 H 0.69117 0.95608 0.6342 0.0
H1401 H 0.79484 0.94743 0.67655 0.0
H1402 H 0.70029 0.90145 0.59994 0.0
H1403 H 0.80215 0.89265 0.64177 0.0
H1404 H 0.78989 0.04541 0.5397 0.0
H1405 H 0.69523 0.99139 0.51261 0.0
H1406 H 0.5891 0.94897 0.75959 0.0
H1407 H 0.65763 0.86581 0.726 0.0
loop_
_geom_bond_atom_site_label_1
_geom_bond_atom_site_label_2
_geom_bond_distance
_geom_bond_site_symmetry_2
_ccdc_geom_bond_type
Li0 N17 1.990 . S
Li0 O60 1.956 . S
Li0 O61 1.970 . S
Li0 O62 1.961 . S
Li1 N25 1.990 . S
Li1 O60 1.970 . S
Li1 O61 1.956 . S
Li1 O63 1.961 . S
Li2 N47 1.990 . S
Li2 O60 1.961 . S
Li2 O62 1.956 . S
Li2 O63 1.970 . S
Li3 N53 1.990 . S
Li3 O61 1.961 . S
Li3 O62 1.970 . S
Li3 O63 1.956 . S
C4 C6 1.348 . S
C4 C7 1.356 . S
C4 O60 1.325 . S
N5 C8 1.314 . S
N5 C9 1.279 . S
C6 C4 1.348 . S
C6 C8 1.353 . S
C6 H64 0.929 . S
C7 C4 1.356 . S
C7 C9 1.358 . S
C7 H65 0.930 . S
C8 N5 1.314 . S
C8 C6 1.353 . S
C8 H66 0.930 . S
C9 N5 1.279 . S
C9 C7 1.358 . S
C9 H67 0.930 . S
C10 C13 1.348 . S
C10 C14 1.356 . S
C10 O61 1.325 . S
C11 N12 1.279 . S
C11 C14 1.358 . S
C11 H68 0.930 . S
N12 C11 1.279 . S
N12 C15 1.314 . S
C13 C10 1.348 . S
C13 C15 1.353 . S
C13 H69 0.929 . S
C14 C10 1.356 . S
C14 C11 1.358 . S
C14 H70 0.930 . S
C15 N12 1.314 . S
C15 C13 1.353 . S
C15 H71 0.930 . S
C16 N17 1.314 . S
C16 C21 1.353 . S
C16 H22 0.930 . S
N17 Li0 1.990 . S
N17 C16 1.314 . S
N17 C19 1.279 . S
C18 C19 1.358 . S
C18 C20 1.356 . S
C18 H72 0.930 . S
C19 N17 1.279 . S
C19 C18 1.358 . S
C19 H23 0.930 . S
C20 C18 1.356 . S
C20 C21 1.348 . S
C21 C16 1.353 . S
C21 C20 1.348 . S
C21 H73 0.929 . S
H22 C16 0.930 . S
H23 C19 0.930 . S
C24 N25 1.314 . S
C24 C26 1.353 . S
C24 H30 0.930 . S
N25 Li1 1.990 . S
N25 C24 1.314 . S
N25 C28 1.279 . S
C26 C24 1.353 . S
C26 C29 1.348 . S
C26 H74 0.929 . S
C27 C28 1.358 . S
C27 C29 1.356 . S
C27 H75 0.930 . S
C28 N25 1.279 . S
C28 C27 1.358 . S
C28 H31 0.930 . S
C29 C26 1.348 . S
C29 C27 1.356 . S
H30 C24 0.930 . S
H31 C28 0.930 . S
C32 C34 1.348 . S
C32 C35 1.356 . S
C32 O62 1.325 . S
N33 C36 1.314 . S
N33 C37 1.279 . S
C34 C32 1.348 . S
C34 C36 1.353 . S
C34 H76 0.929 . S
C35 C32 1.356 . S
C35 C37 1.358 . S
C35 H77 0.930 . S
C36 N33 1.314 . S
C36 C34 1.353 . S
C36 H78 0.930 . S
C37 N33 1.279 . S
C37 C35 1.358 . S
C37 H79 0.930 . S
C38 C39 1.348 . S
C38 C40 1.356 . S
C38 O63 1.325 . S
C39 C38 1.348 . S
C39 C41 1.353 . S
C39 H80 0.929 . S
C40 C38 1.356 . S
C40 C42 1.358 . S
C40 H81 0.930 . S
C41 C39 1.353 . S
C41 N43 1.314 . S
C41 H82 0.930 . S
C42 C40 1.358 . S
C42 N43 1.279 . S
C42 H83 0.930 . S
N43 C41 1.314 . S
N43 C42 1.279 . S
C44 C46 1.353 . S
C44 N47 1.314 . S
C44 H50 0.930 . S
C45 N47 1.279 . S
C45 C48 1.358 . S
C45 H51 0.930 . S
C46 C44 1.353 . S
C46 C49 1.348 . S
C46 H84 0.929 . S
N47 Li2 1.990 . S
N47 C44 1.314 . S
N47 C45 1.279 . S
C48 C45 1.358 . S
C48 C49 1.356 . S
C48 H85 0.930 . S
C49 C46 1.348 . S
C49 C48 1.356 . S
H50 C44 0.930 . S
H51 C45 0.930 . S
C52 N53 1.314 . S
C52 C54 1.353 . S
C52 H58 0.930 . S
N53 Li3 1.990 . S
N53 C52 1.314 . S
N53 C56 1.279 . S
C54 C52 1.353 . S
C54 C57 1.348 . S
C54 H86 0.929 . S
C55 C56 1.358 . S
C55 C57 1.356 . S
C55 H87 0.930 . S
C56 N53 1.279 . S
C56 C55 1.358 . S
C56 H59 0.930 . S
C57 C54 1.348 . S
C57 C55 1.356 . S
H58 C52 0.930 . S
H59 C56 0.930 . S
O60 Li0 1.956 . S
O60 Li1 1.970 . S
O60 Li2 1.961 . S
O60 C4 1.325 . S
O61 Li0 1.970 . S
O61 Li1 1.956 . S
O61 Li3 1.961 . S
O61 C10 1.325 . S
O62 Li0 1.961 . S
O62 Li2 1.956 . S
O62 Li3 1.970 . S
O62 C32 1.325 . S
O63 Li1 1.961 . S
O63 Li2 1.970 . S
O63 Li3 1.956 . S
O63 C38 1.325 . S
H64 C6 0.929 . S
H65 C7 0.930 . S
H66 C8 0.930 . S
H67 C9 0.930 . S
H68 C11 0.930 . S
H69 C13 0.929 . S
H70 C14 0.930 . S
H71 C15 0.930 . S
H72 C18 0.930 . S
H73 C21 0.929 . S
H74 C26 0.929 . S
H75 C27 0.930 . S
H76 C34 0.929 . S
H77 C35 0.930 . S
H78 C36 0.930 . S
H79 C37 0.930 . S
H80 C39 0.929 . S
H81 C40 0.930 . S
H82 C41 0.930 . S
H83 C42 0.930 . S
H84 C46 0.929 . S
H85 C48 0.930 . S
H86 C54 0.929 . S
H87 C55 0.930 . S
Li88 N105 1.990 . S
Li88 O148 1.956 . S
Li88 O149 1.970 . S
Li88 O150 1.961 . S
Li89 N113 1.990 . S
Li89 O148 1.970 . S
Li89 O149 1.956 . S
Li89 O151 1.961 . S
Li90 N135 1.990 . S
Li90 O148 1.961 . S
Li90 O150 1.956 . S
Li90 O151 1.970 . S
Li91 N141 1.990 . S
Li91 O149 1.961 . S
Li91 O150 1.970 . S
Li91 O151 1.956 . S
C92 C94 1.348 . S
C92 C95 1.356 . S
C92 O148 1.325 . S
N93 C96 1.314 . S
N93 C97 1.279 . S
C94 C92 1.348 . S
C94 C96 1.353 . S
C94 H152 0.929 . S
C95 C92 1.356 . S
C95 C97 1.358 . S
C95 H153 0.930 . S
C96 N93 1.314 . S
C96 C94 1.353 . S
C96 H154 0.930 . S
C97 N93 1.279 . S
C97 C95 1.358 . S
C97 H155 0.930 . S
C98 C101 1.348 . S
C98 C102 1.356 . S
C98 O149 1.325 . S
C99 N100 1.279 . S
C99 C102 1.358 . S
C99 H156 0.930 . S
N100 C99 1.279 . S
N100 C103 1.314 . S
C101 C98 1.348 . S
C101 C103 1.353 . S
C101 H157 0.929 . S
C102 C98 1.356 . S
C102 C99 1.358 . S
C102 H158 0.930 . S
C103 N100 1.314 . S
C103 C101 1.353 . S
C103 H159 0.930 . S
C104 N105 1.314 . S
C104 C109 1.353 . S
C104 H110 0.930 . S
N105 Li88 1.990 . S
N105 C104 1.314 . S
N105 C107 1.279 . S
C106 C107 1.358 . S
C106 C108 1.356 . S
C106 H160 0.930 . S
C107 N105 1.279 . S
C107 C106 1.358 . S
C107 H111 0.930 . S
C108 C106 1.356 . S
C108 C109 1.348 . S
C109 C104 1.353 . S
C109 C108 1.348 . S
C109 H161 0.929 . S
H110 C104 0.930 . S
H111 C107 0.930 . S
C112 N113 1.314 . S
C112 C114 1.353 . S
C112 H118 0.930 . S
N113 Li89 1.990 . S
N113 C112 1.314 . S
N113 C116 1.279 . S
C114 C112 1.353 . S
C114 C117 1.348 . S
C114 H162 0.929 . S
C115 C116 1.358 . S
C115 C117 1.356 . S
C115 H163 0.930 . S
C116 N113 1.279 . S
C116 C115 1.358 . S
C116 H119 0.930 . S
C117 C114 1.348 . S
C117 C115 1.356 . S
H118 C112 0.930 . S
H119 C116 0.930 . S
C120 C122 1.348 . S
C120 C123 1.356 . S
C120 O150 1.325 . S
N121 C124 1.314 . S
N121 C125 1.279 . S
C122 C120 1.348 . S
C122 C124 1.353 . S
C122 H164 0.929 . S
C123 C120 1.356 . S
C123 C125 1.358 . S
C123 H165 0.930 . S
C124 N121 1.314 . S
C124 C122 1.353 . S
C124 H166 0.930 . S
C125 N121 1.279 . S
C125 C123 1.358 . S
C125 H167 0.930 . S
C126 C127 1.348 . S
C126 C128 1.356 . S
C126 O151 1.325 . S
C127 C126 1.348 . S
C127 C129 1.353 . S
C127 H168 0.929 . S
C128 C126 1.356 . S
C128 C130 1.358 . S
C128 H169 0.930 . S
C129 C127 1.353 . S
C129 N131 1.314 . S
C129 H170 0.930 . S
C130 C128 1.358 . S
C130 N131 1.279 . S
C130 H171 0.930 . S
N131 C129 1.314 . S
N131 C130 1.279 . S
C132 C134 1.353 . S
C132 N135 1.314 . S
C132 H138 0.930 . S
C133 N135 1.279 . S
C133 C136 1.358 . S
C133 H139 0.930 . S
C134 C132 1.353 . S
C134 C137 1.348 . S
C134 H172 0.929 . S
N135 Li90 1.990 . S
N135 C132 1.314 . S
N135 C133 1.279 . S
C136 C133 1.358 . S
C136 C137 1.356 . S
C136 H173 0.930 . S
C137 C134 1.348 . S
C137 C136 1.356 . S
H138 C132 0.930 . S
H139 C133 0.930 . S
C140 N141 1.314 . S
C140 C142 1.353 . S
C140 H146 0.930 . S
N141 Li91 1.990 . S
N141 C140 1.314 . S
N141 C144 1.279 . S
C142 C140 1.353 . S
C142 C145 1.348 . S
C142 H174 0.929 . S
C143 C144 1.358 . S
C143 C145 1.356 . S
C143 H175 0.930 . S
C144 N141 1.279 . S
C144 C143 1.358 . S
C144 H147 0.930 . S
C145 C142 1.348 . S
C145 C143 1.356 . S
H146 C140 0.930 . S
H147 C144 0.930 . S
O148 Li88 1.956 . S
O148 Li89 1.970 . S
O148 Li90 1.961 . S
O148 C92 1.325 . S
O149 Li88 1.970 . S
O149 Li89 1.956 . S
O149 Li91 1.961 . S
O149 C98 1.325 . S
O150 Li88 1.961 . S
O150 Li90 1.956 . S
O150 Li91 1.970 . S
O150 C120 1.325 . S
O151 Li89 1.961 . S
O151 Li90 1.970 . S
O151 Li91 1.956 . S
O151 C126 1.325 . S
H152 C94 0.929 . S
H153 C95 0.930 . S
H154 C96 0.930 . S
H155 C97 0.930 . S
H156 C99 0.930 . S
H157 C101 0.929 . S
H158 C102 0.930 . S
H159 C103 0.930 . S
H160 C106 0.930 . S
H161 C109 0.929 . S
H162 C114 0.929 . S
H163 C115 0.930 . S
H164 C122 0.929 . S
H165 C123 0.930 . S
H166 C124 0.930 . S
H167 C125 0.930 . S
H168 C127 0.929 . S
H169 C128 0.930 . S
H170 C129 0.930 . S
H171 C130 0.930 . S
H172 C134 0.929 . S
H173 C136 0.930 . S
H174 C142 0.929 . S
H175 C143 0.930 . S
Li176 N193 1.990 . S
Li176 O236 1.956 . S
Li176 O237 1.970 . S
Li176 O238 1.961 . S
Li177 N201 1.990 . S
Li177 O236 1.970 1_455 S
Li177 O237 1.956 1_455 S
Li177 O239 1.961 . S
Li178 N223 1.990 . S
Li178 O236 1.961 . S
Li178 O238 1.956 . S
Li178 O239 1.970 1_655 S
Li179 N229 1.990 . S
Li179 O237 1.961 . S
Li179 O238 1.970 . S
Li179 O239 1.956 1_655 S
C180 C182 1.362 . S
C180 C183 1.344 1_455 S
C180 O236 1.321 1_455 S
N181 C184 1.314 . S
N181 C185 1.279 1_455 S
C182 C180 1.362 . S
C182 C184 1.353 . S
C182 H240 0.929 . S
C183 C180 1.344 1_655 S
C183 C185 1.358 . S
C183 H241 0.930 . S
C184 N181 1.314 . S
C184 C182 1.353 . S
C184 H242 0.930 . S
C185 N181 1.279 1_655 S
C185 C183 1.358 . S
C185 H243 0.930 . S
C186 C189 1.348 . S
C186 C190 1.356 . S
C186 O237 1.325 . S
C187 N188 1.279 . S
C187 C190 1.358 . S
C187 H244 0.930 1_655 S
N188 C187 1.279 . S
N188 C191 1.314 . S
C189 C186 1.348 . S
C189 C191 1.353 . S
C189 H245 0.929 . S
C190 C186 1.356 . S
C190 C187 1.358 . S
C190 H246 0.930 1_655 S
C191 N188 1.314 . S
C191 C189 1.353 . S
C191 H247 0.930 . S
C192 N193 1.314 . S
C192 C197 1.353 . S
C192 H198 0.930 . S
N193 Li176 1.990 . S
N193 C192 1.314 . S
N193 C195 1.279 . S
C194 C195 1.358 . S
C194 C196 1.356 . S
C194 H248 0.930 . S
C195 N193 1.279 . S
C195 C194 1.358 . S
C195 H199 0.930 . S
C196 C194 1.356 . S
C196 C197 1.348 . S
C197 C192 1.353 . S
C197 C196 1.348 . S
C197 H249 0.929 . S
H198 C192 0.930 . S
H199 C195 0.930 . S
C200 N201 1.314 . S
C200 C202 1.353 . S
C200 H206 0.930 . S
N201 Li177 1.990 . S
N201 C200 1.314 . S
N201 C204 1.279 . S
C202 C200 1.353 . S
C202 C205 1.348 . S
C202 H250 0.929 . S
C203 C204 1.358 . S
C203 C205 1.356 . S
C203 H251 0.930 . S
C204 N201 1.279 . S
C204 C203 1.358 . S
C204 H207 0.930 . S
C205 C202 1.348 . S
C205 C203 1.356 . S
H206 C200 0.930 . S
H207 C204 0.930 . S
C208 C210 1.348 . S
C208 C211 1.356 . S
C208 O238 1.325 . S
N209 C212 1.314 . S
N209 C213 1.279 . S
C210 C208 1.348 . S
C210 C212 1.353 . S
C210 H252 0.929 . S
C211 C208 1.356 . S
C211 C213 1.358 . S
C211 H253 0.930 . S
C212 N209 1.314 . S
C212 C210 1.353 . S
C212 H254 0.930 . S
C213 N209 1.279 . S
C213 C211 1.358 . S
C213 H255 0.930 . S
C214 C215 1.348 . S
C214 C216 1.356 . S
C214 O239 1.325 . S
C215 C214 1.348 . S
C215 C217 1.353 . S
C215 H256 0.929 . S
C216 C214 1.356 . S
C216 C218 1.358 . S
C216 H257 0.930 . S
C217 C215 1.353 . S
C217 N219 1.314 . S
C217 H258 0.930 . S
C218 C216 1.358 . S
C218 N219 1.279 . S
C218 H259 0.930 . S
N219 C217 1.314 . S
N219 C218 1.279 . S
C220 C222 1.353 . S
C220 N223 1.314 1_455 S
C220 H226 0.930 . S
C221 N223 1.279 . S
C221 C224 1.358 . S
C221 H227 0.930 . S
C222 C220 1.353 . S
C222 C225 1.348 . S
C222 H260 0.929 . S
N223 Li178 1.990 . S
N223 C220 1.314 1_655 S
N223 C221 1.279 . S
C224 C221 1.358 . S
C224 C225 1.355 1_655 S
C224 H261 0.930 . S
C225 C222 1.348 . S
C225 C224 1.355 1_455 S
H226 C220 0.930 . S
H227 C221 0.930 . S
C228 N229 1.314 . S
C228 C230 1.353 . S
C228 H234 0.930 . S
N229 Li179 1.990 . S
N229 C228 1.314 . S
N229 C232 1.279 . S
C230 C228 1.353 . S
C230 C233 1.348 . S
C230 H262 0.929 . S
C231 C232 1.358 . S
C231 C233 1.356 . S
C231 H263 0.930 . S
C232 N229 1.279 . S
C232 C231 1.358 . S
C232 H235 0.930 1_655 S
C233 C230 1.348 . S
C233 C231 1.356 . S
H234 C228 0.930 . S
H235 C232 0.930 1_455 S
O236 Li176 1.956 . S
O236 Li177 1.970 1_655 S
O236 Li178 1.961 . S
O236 C180 1.321 1_655 S
O237 Li176 1.970 . S
O237 Li177 1.956 1_655 S
O237 Li179 1.961 . S
O237 C186 1.325 . S
O238 Li176 1.961 . S
O238 Li178 1.956 . S
O238 Li179 1.970 . S
O238 C208 1.325 . S
O239 Li177 1.961 . S
O239 Li178 1.970 1_455 S
O239 Li179 1.956 1_455 S
O239 C214 1.325 . S
H240 C182 0.929 . S
H241 C183 0.930 . S
H242 C184 0.930 . S
H243 C185 0.930 . S
H244 C187 0.930 1_455 S
H245 C189 0.929 . S
H246 C190 0.930 1_455 S
H247 C191 0.930 . S
H248 C194 0.930 . S
H249 C197 0.929 . S
H250 C202 0.929 . S
H251 C203 0.930 . S
H252 C210 0.929 . S
H253 C211 0.930 . S
H254 C212 0.930 . S
H255 C213 0.930 . S
H256 C215 0.929 . S
H257 C216 0.930 . S
H258 C217 0.930 . S
H259 C218 0.930 . S
H260 C222 0.929 . S
H261 C224 0.930 . S
H262 C230 0.929 . S
H263 C231 0.930 . S
Li264 N281 1.990 . S
Li264 O324 1.956 . S
Li264 O325 1.970 . S
Li264 O326 1.961 . S
Li265 N289 1.990 . S
Li265 O324 1.970 1_545 S
Li265 O325 1.956 1_545 S
Li265 O327 1.961 . S
Li266 N311 1.990 . S
Li266 O324 1.961 . S
Li266 O326 1.956 . S
Li266 O327 1.970 1_565 S
Li267 N317 1.990 . S
Li267 O325 1.961 . S
Li267 O326 1.970 . S
Li267 O327 1.956 1_565 S
C268 C270 1.362 . S
C268 C271 1.344 1_545 S
C268 O324 1.321 1_545 S
N269 C272 1.314 . S
N269 C273 1.279 1_545 S
C270 C268 1.362 . S
C270 C272 1.353 . S
C270 H328 0.929 . S
C271 C268 1.344 1_565 S
C271 C273 1.358 . S
C271 H329 0.930 . S
C272 N269 1.314 . S
C272 C270 1.353 . S
C272 H330 0.930 . S
C273 N269 1.279 1_565 S
C273 C271 1.358 . S
C273 H331 0.930 . S
C274 C277 1.348 . S
C274 C278 1.356 . S
C274 O325 1.325 . S
C275 N276 1.279 . S
C275 C278 1.358 . S
C275 H332 0.930 1_565 S
N276 C275 1.279 . S
N276 C279 1.314 . S
C277 C274 1.348 . S
C277 C279 1.353 . S
C277 H333 0.929 . S
C278 C274 1.356 . S
C278 C275 1.358 . S
C278 H334 0.930 1_565 S
C279 N276 1.314 . S
C279 C277 1.353 . S
C279 H335 0.930 . S
C280 N281 1.314 . S
C280 C285 1.353 . S
C280 H286 0.930 . S
N281 Li264 1.990 . S
N281 C280 1.314 . S
N281 C283 1.279 . S
C282 C283 1.358 . S
C282 C284 1.356 . S
C282 H336 0.930 . S
C283 N281 1.279 . S
C283 C282 1.358 . S
C283 H287 0.930 . S
C284 C282 1.356 . S
C284 C285 1.348 . S
C285 C280 1.353 . S
C285 C284 1.348 . S
C285 H337 0.929 . S
H286 C280 0.930 . S
H287 C283 0.930 . S
C288 N289 1.314 . S
C288 C290 1.353 . S
C288 H294 0.930 . S
N289 Li265 1.990 . S
N289 C288 1.314 . S
N289 C292 1.279 . S
C290 C288 1.353 . S
C290 C293 1.348 . S
C290 H338 0.929 . S
C291 C292 1.358 . S
C291 C293 1.356 . S
C291 H339 0.930 . S
C292 N289 1.279 . S
C292 C291 1.358 . S
C292 H295 0.930 . S
C293 C290 1.348 . S
C293 C291 1.356 . S
H294 C288 0.930 . S
H295 C292 0.930 . S
C296 C298 1.348 . S
C296 C299 1.356 . S
C296 O326 1.325 . S
N297 C300 1.314 . S
N297 C301 1.279 . S
C298 C296 1.348 . S
C298 C300 1.353 . S
C298 H340 0.929 . S
C299 C296 1.356 . S
C299 C301 1.358 . S
C299 H341 0.930 . S
C300 N297 1.314 . S
C300 C298 1.353 . S
C300 H342 0.930 . S
C301 N297 1.279 . S
C301 C299 1.358 . S
C301 H343 0.930 . S
C302 C303 1.348 . S
C302 C304 1.356 . S
C302 O327 1.325 . S
C303 C302 1.348 . S
C303 C305 1.353 . S
C303 H344 0.929 . S
C304 C302 1.356 . S
C304 C306 1.358 . S
C304 H345 0.930 . S
C305 C303 1.353 . S
C305 N307 1.314 . S
C305 H346 0.930 . S
C306 C304 1.358 . S
C306 N307 1.279 . S
C306 H347 0.930 . S
N307 C305 1.314 . S
N307 C306 1.279 . S
C308 C310 1.353 . S
C308 N311 1.314 1_545 S
C308 H314 0.930 . S
C309 N311 1.279 . S
C309 C312 1.358 . S
C309 H315 0.930 . S
C310 C308 1.353 . S
C310 C313 1.348 . S
C310 H348 0.929 . S
N311 Li266 1.990 . S
N311 C308 1.314 1_565 S
N311 C309 1.279 . S
C312 C309 1.358 . S
C312 C313 1.355 1_565 S
C312 H349 0.930 . S
C313 C310 1.348 . S
C313 C312 1.355 1_545 S
H314 C308 0.930 . S
H315 C309 0.930 . S
C316 N317 1.314 . S
C316 C318 1.353 . S
C316 H322 0.930 . S
N317 Li267 1.990 . S
N317 C316 1.314 . S
N317 C320 1.279 . S
C318 C316 1.353 . S
C318 C321 1.348 . S
C318 H350 0.929 . S
C319 C320 1.358 . S
C319 C321 1.356 . S
C319 H351 0.930 . S
C320 N317 1.279 . S
C320 C319 1.358 . S
C320 H323 0.930 1_565 S
C321 C318 1.348 . S
C321 C319 1.356 . S
H322 C316 0.930 . S
H323 C320 0.930 1_545 S
O324 Li264 1.956 . S
O324 Li265 1.970 1_565 S
O324 Li266 1.961 . S
O324 C268 1.321 1_565 S
O325 Li264 1.970 . S
O325 Li265 1.956 1_565 S
O325 Li267 1.961 . S
O325 C274 1.325 . S
O326 Li264 1.961 . S
O326 Li266 1.956 . S
O326 Li267 1.970 . S
O326 C296 1.325 . S
O327 Li265 1.961 . S
O327 Li266 1.970 1_545 S
O327 Li267 1.956 1_545 S
O327 C302 1.325 . S
H328 C270 0.929 . S
H329 C271 0.930 . S
H330 C272 0.930 . S
H331 C273 0.930 . S
H332 C275 0.930 1_545 S
H333 C277 0.929 . S
H334 C278 0.930 1_545 S
H335 C279 0.930 . S
H336 C282 0.930 . S
H337 C285 0.929 . S
H338 C290 0.929 . S
H339 C291 0.930 . S
H340 C298 0.929 . S
H341 C299 0.930 . S
H342 C300 0.930 . S
H343 C301 0.930 . S
H344 C303 0.929 . S
H345 C304 0.930 . S
H346 C305 0.930 . S
H347 C306 0.930 . S
H348 C310 0.929 . S
H349 C312 0.930 . S
H350 C318 0.929 . S
H351 C319 0.930 . S
Li352 N369 1.990 . S
Li352 O412 1.956 . S
Li352 O413 1.970 . S
Li352 O414 1.961 . S
Li353 N377 1.990 . S
Li353 O412 1.970 . S
Li353 O413 1.956 . S
Li353 O415 1.961 . S
Li354 N399 1.990 . S
Li354 O412 1.961 . S
Li354 O414 1.956 . S
Li354 O415 1.970 . S
Li355 N405 1.990 . S
Li355 O413 1.961 . S
Li355 O414 1.970 . S
Li355 O415 1.956 . S
C356 C358 1.348 . S
C356 C359 1.356 . S
C356 O412 1.325 . S
N357 C360 1.314 . S
N357 C361 1.279 . S
C358 C356 1.348 . S
C358 C360 1.353 . S
C358 H416 0.929 . S
C359 C356 1.356 . S
C359 C361 1.358 . S
C359 H417 0.930 . S
C360 N357 1.314 . S
C360 C358 1.353 . S
C360 H418 0.930 . S
C361 N357 1.279 . S
C361 C359 1.358 . S
C361 H419 0.930 . S
C362 C365 1.348 . S
C362 C366 1.356 . S
C362 O413 1.325 . S
C363 N364 1.279 . S
C363 C366 1.358 . S
C363 H420 0.930 . S
N364 C363 1.279 . S
N364 C367 1.314 . S
C365 C362 1.348 . S
C365 C367 1.353 . S
C365 H421 0.929 . S
C366 C362 1.356 . S
C366 C363 1.358 . S
C366 H422 0.930 . S
C367 N364 1.314 . S
C367 C365 1.353 . S
C367 H423 0.930 . S
C368 N369 1.314 . S
C368 C373 1.353 . S
C368 H374 0.930 . S
N369 Li352 1.990 . S
N369 C368 1.314 . S
N369 C371 1.279 . S
C370 C371 1.358 . S
C370 C372 1.356 . S
C370 H424 0.930 . S
C371 N369 1.279 . S
C371 C370 1.358 . S
C371 H375 0.930 . S
C372 C370 1.356 . S
C372 C373 1.348 . S
C373 C368 1.353 . S
C373 C372 1.348 . S
C373 H425 0.929 . S
H374 C368 0.930 . S
H375 C371 0.930 . S
C376 N377 1.314 . S
C376 C378 1.353 . S
C376 H382 0.930 . S
N377 Li353 1.990 . S
N377 C376 1.314 . S
N377 C380 1.279 . S
C378 C376 1.353 . S
C378 C381 1.348 . S
C378 H426 0.929 . S
C379 C380 1.358 . S
C379 C381 1.356 . S
C379 H427 0.930 . S
C380 N377 1.279 . S
C380 C379 1.358 . S
C380 H383 0.930 . S
C381 C378 1.348 . S
C381 C379 1.356 . S
H382 C376 0.930 . S
H383 C380 0.930 . S
C384 C386 1.348 . S
C384 C387 1.356 . S
C384 O414 1.325 . S
N385 C388 1.314 . S
N385 C389 1.279 . S
C386 C384 1.348 . S
C386 C388 1.353 . S
C386 H428 0.929 . S
C387 C384 1.356 . S
C387 C389 1.358 . S
C387 H429 0.930 . S
C388 N385 1.314 . S
C388 C386 1.353 . S
C388 H430 0.930 . S
C389 N385 1.279 . S
C389 C387 1.358 . S
C389 H431 0.930 . S
C390 C391 1.348 . S
C390 C392 1.356 . S
C390 O415 1.325 . S
C391 C390 1.348 . S
C391 C393 1.353 . S
C391 H432 0.929 . S
C392 C390 1.356 . S
C392 C394 1.358 . S
C392 H433 0.930 . S
C393 C391 1.353 . S
C393 N395 1.314 . S
C393 H434 0.930 . S
C394 C392 1.358 . S
C394 N395 1.279 . S
C394 H435 0.930 . S
N395 C393 1.314 . S
N395 C394 1.279 . S
C396 C398 1.353 . S
C396 N399 1.314 . S
C396 H402 0.930 . S
C397 N399 1.279 . S
C397 C400 1.358 . S
C397 H403 0.930 . S
C398 C396 1.353 . S
C398 C401 1.348 . S
C398 H436 0.929 . S
N399 Li354 1.990 . S
N399 C396 1.314 . S
N399 C397 1.279 . S
C400 C397 1.358 . S
C400 C401 1.356 . S
C400 H437 0.930 . S
C401 C398 1.348 . S
C401 C400 1.356 . S
H402 C396 0.930 . S
H403 C397 0.930 . S
C404 N405 1.314 . S
C404 C406 1.353 . S
C404 H410 0.930 . S
N405 Li355 1.990 . S
N405 C404 1.314 . S
N405 C408 1.279 . S
C406 C404 1.353 . S
C406 C409 1.348 . S
C406 H438 0.929 . S
C407 C408 1.358 . S
C407 C409 1.356 . S
C407 H439 0.930 . S
C408 N405 1.279 . S
C408 C407 1.358 . S
C408 H411 0.930 . S
C409 C406 1.348 . S
C409 C407 1.356 . S
H410 C404 0.930 . S
H411 C408 0.930 . S
O412 Li352 1.956 . S
O412 Li353 1.970 . S
O412 Li354 1.961 . S
O412 C356 1.325 . S
O413 Li352 1.970 . S
O413 Li353 1.956 . S
O413 Li355 1.961 . S
O413 C362 1.325 . S
O414 Li352 1.961 . S
O414 Li354 1.956 . S
O414 Li355 1.970 . S
O414 C384 1.325 . S
O415 Li353 1.961 . S
O415 Li354 1.970 . S
O415 Li355 1.956 . S
O415 C390 1.325 . S
H416 C358 0.929 . S
H417 C359 0.930 . S
H418 C360 0.930 . S
H419 C361 0.930 . S
H420 C363 0.930 . S
H421 C365 0.929 . S
H422 C366 0.930 . S
H423 C367 0.930 . S
H424 C370 0.930 . S
H425 C373 0.929 . S
H426 C378 0.929 . S
H427 C379 0.930 . S
H428 C386 0.929 . S
H429 C387 0.930 . S
H430 C388 0.930 . S
H431 C389 0.930 . S
H432 C391 0.929 . S
H433 C392 0.930 . S
H434 C393 0.930 . S
H435 C394 0.930 . S
H436 C398 0.929 . S
H437 C400 0.930 . S
H438 C406 0.929 . S
H439 C407 0.930 . S
Li440 N457 1.990 . S
Li440 O500 1.956 . S
Li440 O501 1.970 . S
Li440 O502 1.961 . S
Li441 N465 1.990 . S
Li441 O500 1.970 . S
Li441 O501 1.956 . S
Li441 O503 1.961 . S
Li442 N487 1.990 . S
Li442 O500 1.961 . S
Li442 O502 1.956 . S
Li442 O503 1.970 . S
Li443 N493 1.990 . S
Li443 O501 1.961 . S
Li443 O502 1.970 . S
Li443 O503 1.956 . S
C444 C446 1.348 . S
C444 C447 1.356 . S
C444 O500 1.325 . S
N445 C448 1.314 . S
N445 C449 1.279 . S
C446 C444 1.348 . S
C446 C448 1.353 . S
C446 H504 0.929 . S
C447 C444 1.356 . S
C447 C449 1.358 . S
C447 H505 0.930 . S
C448 N445 1.314 . S
C448 C446 1.353 . S
C448 H506 0.930 . S
C449 N445 1.279 . S
C449 C447 1.358 . S
C449 H507 0.930 . S
C450 C453 1.348 . S
C450 C454 1.356 . S
C450 O501 1.325 . S
C451 N452 1.279 . S
C451 C454 1.358 . S
C451 H508 0.930 . S
N452 C451 1.279 . S
N452 C455 1.314 . S
C453 C450 1.348 . S
C453 C455 1.353 . S
C453 H509 0.929 . S
C454 C450 1.356 . S
C454 C451 1.358 . S
C454 H510 0.930 . S
C455 N452 1.314 . S
C455 C453 1.353 . S
C455 H511 0.930 . S
C456 N457 1.314 . S
C456 C461 1.353 . S
C456 H462 0.930 . S
N457 Li440 1.990 . S
N457 C456 1.314 . S
N457 C459 1.279 . S
C458 C459 1.358 . S
C458 C460 1.356 . S
C458 H512 0.930 . S
C459 N457 1.279 . S
C459 C458 1.358 . S
C459 H463 0.930 . S
C460 C458 1.356 . S
C460 C461 1.348 . S
C461 C456 1.353 . S
C461 C460 1.348 . S
C461 H513 0.929 . S
H462 C456 0.930 . S
H463 C459 0.930 . S
C464 N465 1.314 . S
C464 C466 1.353 . S
C464 H470 0.930 . S
N465 Li441 1.990 . S
N465 C464 1.314 . S
N465 C468 1.279 . S
C466 C464 1.353 . S
C466 C469 1.348 . S
C466 H514 0.929 . S
C467 C468 1.358 . S
C467 C469 1.356 . S
C467 H515 0.930 . S
C468 N465 1.279 . S
C468 C467 1.358 . S
C468 H471 0.930 . S
C469 C466 1.348 . S
C469 C467 1.356 . S
H470 C464 0.930 . S
H471 C468 0.930 . S
C472 C474 1.348 . S
C472 C475 1.356 . S
C472 O502 1.325 . S
N473 C476 1.314 . S
N473 C477 1.279 . S
C474 C472 1.348 . S
C474 C476 1.353 . S
C474 H516 0.929 . S
C475 C472 1.356 . S
C475 C477 1.358 . S
C475 H517 0.930 . S
C476 N473 1.314 . S
C476 C474 1.353 . S
C476 H518 0.930 . S
C477 N473 1.279 . S
C477 C475 1.358 . S
C477 H519 0.930 . S
C478 C479 1.348 . S
C478 C480 1.356 . S
C478 O503 1.325 . S
C479 C478 1.348 . S
C479 C481 1.353 . S
C479 H520 0.929 . S
C480 C478 1.356 . S
C480 C482 1.358 . S
C480 H521 0.930 . S
C481 C479 1.353 . S
C481 N483 1.314 . S
C481 H522 0.930 . S
C482 C480 1.358 . S
C482 N483 1.279 . S
C482 H523 0.930 . S
N483 C481 1.314 . S
N483 C482 1.279 . S
C484 C486 1.353 . S
C484 N487 1.314 . S
C484 H490 0.930 . S
C485 N487 1.279 . S
C485 C488 1.358 . S
C485 H491 0.930 . S
C486 C484 1.353 . S
C486 C489 1.348 . S
C486 H524 0.929 . S
N487 Li442 1.990 . S
N487 C484 1.314 . S
N487 C485 1.279 . S
C488 C485 1.358 . S
C488 C489 1.356 . S
C488 H525 0.930 . S
C489 C486 1.348 . S
C489 C488 1.356 . S
H490 C484 0.930 . S
H491 C485 0.930 . S
C492 N493 1.314 . S
C492 C494 1.353 . S
C492 H498 0.930 . S
N493 Li443 1.990 . S
N493 C492 1.314 . S
N493 C496 1.279 . S
C494 C492 1.353 . S
C494 C497 1.348 . S
C494 H526 0.929 . S
C495 C496 1.358 . S
C495 C497 1.356 . S
C495 H527 0.930 . S
C496 N493 1.279 . S
C496 C495 1.358 . S
C496 H499 0.930 . S
C497 C494 1.348 . S
C497 C495 1.356 . S
H498 C492 0.930 . S
H499 C496 0.930 . S
O500 Li440 1.956 . S
O500 Li441 1.970 . S
O500 Li442 1.961 . S
O500 C444 1.325 . S
O501 Li440 1.970 . S
O501 Li441 1.956 . S
O501 Li443 1.961 . S
O501 C450 1.325 . S
O502 Li440 1.961 . S
O502 Li442 1.956 . S
O502 Li443 1.970 . S
O502 C472 1.325 . S
O503 Li441 1.961 . S
O503 Li442 1.970 . S
O503 Li443 1.956 . S
O503 C478 1.325 . S
H504 C446 0.929 . S
H505 C447 0.930 . S
H506 C448 0.930 . S
H507 C449 0.930 . S
H508 C451 0.930 . S
H509 C453 0.929 . S
H510 C454 0.930 . S
H511 C455 0.930 . S
H512 C458 0.930 . S
H513 C461 0.929 . S
H514 C466 0.929 . S
H515 C467 0.930 . S
H516 C474 0.929 . S
H517 C475 0.930 . S
H518 C476 0.930 . S
H519 C477 0.930 . S
H520 C479 0.929 . S
H521 C480 0.930 . S
H522 C481 0.930 . S
H523 C482 0.930 . S
H524 C486 0.929 . S
H525 C488 0.930 . S
H526 C494 0.929 . S
H527 C495 0.930 . S
Li528 N545 1.990 . S
Li528 O588 1.956 1_655 S
Li528 O589 1.970 . S
Li528 O590 1.961 . S
Li529 N553 1.990 . S
Li529 O588 1.970 1_655 S
Li529 O589 1.956 . S
Li529 O591 1.961 . S
Li530 N575 1.990 . S
Li530 O588 1.961 . S
Li530 O590 1.956 1_455 S
Li530 O591 1.970 1_455 S
Li531 N581 1.990 . S
Li531 O589 1.961 . S
Li531 O590 1.970 . S
Li531 O591 1.956 . S
C532 C534 1.348 . S
C532 C535 1.356 . S
C532 O588 1.325 . S
N533 C536 1.314 . S
N533 C537 1.279 . S
C534 C532 1.348 . S
C534 C536 1.353 . S
C534 H592 0.929 . S
C535 C532 1.356 . S
C535 C537 1.358 . S
C535 H593 0.930 . S
C536 N533 1.314 . S
C536 C534 1.353 . S
C536 H594 0.930 . S
C537 N533 1.279 . S
C537 C535 1.358 . S
C537 H595 0.930 . S
C538 C541 1.348 . S
C538 C542 1.356 . S
C538 O589 1.325 . S
C539 N540 1.279 . S
C539 C542 1.358 . S
C539 H596 0.930 . S
N540 C539 1.279 . S
N540 C543 1.314 . S
C541 C538 1.348 . S
C541 C543 1.353 . S
C541 H597 0.929 . S
C542 C538 1.356 . S
C542 C539 1.358 . S
C542 H598 0.930 . S
C543 N540 1.314 . S
C543 C541 1.353 . S
C543 H599 0.930 . S
C544 N545 1.314 . S
C544 C549 1.353 . S
C544 H550 0.930 . S
N545 Li528 1.990 . S
N545 C544 1.314 . S
N545 C547 1.279 . S
C546 C547 1.358 . S
C546 C548 1.356 . S
C546 H600 0.930 . S
C547 N545 1.279 . S
C547 C546 1.358 . S
C547 H551 0.930 1_655 S
C548 C546 1.356 . S
C548 C549 1.348 . S
C549 C544 1.353 . S
C549 C548 1.348 . S
C549 H601 0.929 . S
H550 C544 0.930 . S
H551 C547 0.930 1_455 S
C552 N553 1.314 1_455 S
C552 C554 1.353 . S
C552 H558 0.930 . S
N553 Li529 1.990 . S
N553 C552 1.314 1_655 S
N553 C556 1.279 . S
C554 C552 1.353 . S
C554 C557 1.348 . S
C554 H602 0.929 . S
C555 C556 1.358 . S
C555 C557 1.355 1_655 S
C555 H603 0.930 . S
C556 N553 1.279 . S
C556 C555 1.358 . S
C556 H559 0.930 . S
C557 C554 1.348 . S
C557 C555 1.355 1_455 S
H558 C552 0.930 . S
H559 C556 0.930 . S
C560 C562 1.348 . S
C560 C563 1.356 . S
C560 O590 1.325 . S
N561 C564 1.314 . S
N561 C565 1.279 . S
C562 C560 1.348 . S
C562 C564 1.353 . S
C562 H604 0.929 . S
C563 C560 1.356 . S
C563 C565 1.358 . S
C563 H605 0.930 1_655 S
C564 N561 1.314 . S
C564 C562 1.353 . S
C564 H606 0.930 . S
C565 N561 1.279 . S
C565 C563 1.358 . S
C565 H607 0.930 1_655 S
C566 C567 1.362 . S
C566 C568 1.344 1_455 S
C566 O591 1.321 1_455 S
C567 C566 1.362 . S
C567 C569 1.353 . S
C567 H608 0.929 . S
C568 C566 1.344 1_655 S
C568 C570 1.358 . S
C568 H609 0.930 . S
C569 C567 1.353 . S
C569 N571 1.314 . S
C569 H610 0.930 . S
C570 C568 1.358 . S
C570 N571 1.279 1_655 S
C570 H611 0.930 . S
N571 C569 1.314 . S
N571 C570 1.279 1_455 S
C572 C574 1.353 . S
C572 N575 1.314 . S
C572 H578 0.930 . S
C573 N575 1.279 . S
C573 C576 1.358 . S
C573 H579 0.930 . S
C574 C572 1.353 . S
C574 C577 1.348 . S
C574 H612 0.929 . S
N575 Li530 1.990 . S
N575 C572 1.314 . S
N575 C573 1.279 . S
C576 C573 1.358 . S
C576 C577 1.356 . S
C576 H613 0.930 . S
C577 C574 1.348 . S
C577 C576 1.356 . S
H578 C572 0.930 . S
H579 C573 0.930 . S
C580 N581 1.314 . S
C580 C582 1.353 . S
C580 H586 0.930 . S
N581 Li531 1.990 . S
N581 C580 1.314 . S
N581 C584 1.279 . S
C582 C580 1.353 . S
C582 C585 1.348 . S
C582 H614 0.929 . S
C583 C584 1.358 . S
C583 C585 1.356 . S
C583 H615 0.930 . S
C584 N581 1.279 . S
C584 C583 1.358 . S
C584 H587 0.930 . S
C585 C582 1.348 . S
C585 C583 1.356 . S
H586 C580 0.930 . S
H587 C584 0.930 . S
O588 Li528 1.956 1_455 S
O588 Li529 1.970 1_455 S
O588 Li530 1.961 . S
O588 C532 1.325 . S
O589 Li528 1.970 . S
O589 Li529 1.956 . S
O589 Li531 1.961 . S
O589 C538 1.325 . S
O590 Li528 1.961 . S
O590 Li530 1.956 1_655 S
O590 Li531 1.970 . S
O590 C560 1.325 . S
O591 Li529 1.961 . S
O591 Li530 1.970 1_655 S
O591 Li531 1.956 . S
O591 C566 1.321 1_655 S
H592 C534 0.929 . S
H593 C535 0.930 . S
H594 C536 0.930 . S
H595 C537 0.930 . S
H596 C539 0.930 . S
H597 C541 0.929 . S
H598 C542 0.930 . S
H599 C543 0.930 . S
H600 C546 0.930 . S
H601 C549 0.929 . S
H602 C554 0.929 . S
H603 C555 0.930 . S
H604 C562 0.929 . S
H605 C563 0.930 1_455 S
H606 C564 0.930 . S
H607 C565 0.930 1_455 S
H608 C567 0.929 . S
H609 C568 0.930 . S
H610 C569 0.930 . S
H611 C570 0.930 . S
H612 C574 0.929 . S
H613 C576 0.930 . S
H614 C582 0.929 . S
H615 C583 0.930 . S
Li616 N633 1.990 . S
Li616 O676 1.956 1_565 S
Li616 O677 1.970 . S
Li616 O678 1.961 . S
Li617 N641 1.990 . S
Li617 O676 1.970 1_565 S
Li617 O677 1.956 . S
Li617 O679 1.961 . S
Li618 N663 1.990 . S
Li618 O676 1.961 . S
Li618 O678 1.956 1_545 S
Li618 O679 1.970 1_545 S
Li619 N669 1.990 . S
Li619 O677 1.961 . S
Li619 O678 1.970 . S
Li619 O679 1.956 . S
C620 C622 1.348 . S
C620 C623 1.356 . S
C620 O676 1.325 . S
N621 C624 1.314 . S
N621 C625 1.279 . S
C622 C620 1.348 . S
C622 C624 1.353 . S
C622 H680 0.929 . S
C623 C620 1.356 . S
C623 C625 1.358 . S
C623 H681 0.930 . S
C624 N621 1.314 . S
C624 C622 1.353 . S
C624 H682 0.930 . S
C625 N621 1.279 . S
C625 C623 1.358 . S
C625 H683 0.930 . S
C626 C629 1.348 . S
C626 C630 1.356 . S
C626 O677 1.325 . S
C627 N628 1.279 . S
C627 C630 1.358 . S
C627 H684 0.930 . S
N628 C627 1.279 . S
N628 C631 1.314 . S
C629 C626 1.348 . S
C629 C631 1.353 . S
C629 H685 0.929 . S
C630 C626 1.356 . S
C630 C627 1.358 . S
C630 H686 0.930 . S
C631 N628 1.314 . S
C631 C629 1.353 . S
C631 H687 0.930 . S
C632 N633 1.314 . S
C632 C637 1.353 . S
C632 H638 0.930 . S
N633 Li616 1.990 . S
N633 C632 1.314 . S
N633 C635 1.279 . S
C634 C635 1.358 . S
C634 C636 1.356 . S
C634 H688 0.930 . S
C635 N633 1.279 . S
C635 C634 1.358 . S
C635 H639 0.930 1_565 S
C636 C634 1.356 . S
C636 C637 1.348 . S
C637 C632 1.353 . S
C637 C636 1.348 . S
C637 H689 0.929 . S
H638 C632 0.930 . S
H639 C635 0.930 1_545 S
C640 N641 1.314 1_545 S
C640 C642 1.353 . S
C640 H646 0.930 . S
N641 Li617 1.990 . S
N641 C640 1.314 1_565 S
N641 C644 1.279 . S
C642 C640 1.353 . S
C642 C645 1.348 . S
C642 H690 0.929 . S
C643 C644 1.358 . S
C643 C645 1.355 1_565 S
C643 H691 0.930 . S
C644 N641 1.279 . S
C644 C643 1.358 . S
C644 H647 0.930 . S
C645 C642 1.348 . S
C645 C643 1.355 1_545 S
H646 C640 0.930 . S
H647 C644 0.930 . S
C648 C650 1.348 . S
C648 C651 1.356 . S
C648 O678 1.325 . S
N649 C652 1.314 . S
N649 C653 1.279 . S
C650 C648 1.348 . S
C650 C652 1.353 . S
C650 H692 0.929 . S
C651 C648 1.356 . S
C651 C653 1.358 . S
C651 H693 0.930 1_565 S
C652 N649 1.314 . S
C652 C650 1.353 . S
C652 H694 0.930 . S
C653 N649 1.279 . S
C653 C651 1.358 . S
C653 H695 0.930 1_565 S
C654 C655 1.362 . S
C654 C656 1.344 1_545 S
C654 O679 1.321 1_545 S
C655 C654 1.362 . S
C655 C657 1.353 . S
C655 H696 0.929 . S
C656 C654 1.344 1_565 S
C656 C658 1.358 . S
C656 H697 0.930 . S
C657 C655 1.353 . S
C657 N659 1.314 . S
C657 H698 0.930 . S
C658 C656 1.358 . S
C658 N659 1.279 1_565 S
C658 H699 0.930 . S
N659 C657 1.314 . S
N659 C658 1.279 1_545 S
C660 C662 1.353 . S
C660 N663 1.314 . S
C660 H666 0.930 . S
C661 N663 1.279 . S
C661 C664 1.358 . S
C661 H667 0.930 . S
C662 C660 1.353 . S
C662 C665 1.348 . S
C662 H700 0.929 . S
N663 Li618 1.990 . S
N663 C660 1.314 . S
N663 C661 1.279 . S
C664 C661 1.358 . S
C664 C665 1.356 . S
C664 H701 0.930 . S
C665 C662 1.348 . S
C665 C664 1.356 . S
H666 C660 0.930 . S
H667 C661 0.930 . S
C668 N669 1.314 . S
C668 C670 1.353 . S
C668 H674 0.930 . S
N669 Li619 1.990 . S
N669 C668 1.314 . S
N669 C672 1.279 . S
C670 C668 1.353 . S
C670 C673 1.348 . S
C670 H702 0.929 . S
C671 C672 1.358 . S
C671 C673 1.356 . S
C671 H703 0.930 . S
C672 N669 1.279 . S
C672 C671 1.358 . S
C672 H675 0.930 . S
C673 C670 1.348 . S
C673 C671 1.356 . S
H674 C668 0.930 . S
H675 C672 0.930 . S
O676 Li616 1.956 1_545 S
O676 Li617 1.970 1_545 S
O676 Li618 1.961 . S
O676 C620 1.325 . S
O677 Li616 1.970 . S
O677 Li617 1.956 . S
O677 Li619 1.961 . S
O677 C626 1.325 . S
O678 Li616 1.961 . S
O678 Li618 1.956 1_565 S
O678 Li619 1.970 . S
O678 C648 1.325 . S
O679 Li617 1.961 . S
O679 Li618 1.970 1_565 S
O679 Li619 1.956 . S
O679 C654 1.321 1_565 S
H680 C622 0.929 . S
H681 C623 0.930 . S
H682 C624 0.930 . S
H683 C625 0.930 . S
H684 C627 0.930 . S
H685 C629 0.929 . S
H686 C630 0.930 . S
H687 C631 0.930 . S
H688 C634 0.930 . S
H689 C637 0.929 . S
H690 C642 0.929 . S
H691 C643 0.930 . S
H692 C650 0.929 . S
H693 C651 0.930 1_545 S
H694 C652 0.930 . S
H695 C653 0.930 1_545 S
H696 C655 0.929 . S
H697 C656 0.930 . S
H698 C657 0.930 . S
H699 C658 0.930 . S
H700 C662 0.929 . S
H701 C664 0.930 . S
H702 C670 0.929 . S
H703 C671 0.930 . S
Li704 N721 1.990 . S
Li704 O764 1.956 . S
Li704 O765 1.970 . S
Li704 O766 1.961 . S
Li705 N729 1.990 . S
Li705 O764 1.970 . S
Li705 O765 1.956 . S
Li705 O767 1.961 . S
Li706 N751 1.990 . S
Li706 O764 1.961 . S
Li706 O766 1.956 . S
Li706 O767 1.970 . S
Li707 N757 1.990 . S
Li707 O765 1.961 . S
Li707 O766 1.970 . S
Li707 O767 1.956 . S
C708 C710 1.348 . S
C708 C711 1.356 . S
C708 O764 1.325 . S
N709 C712 1.314 . S
N709 C713 1.279 . S
C710 C708 1.348 . S
C710 C712 1.353 . S
C710 H768 0.929 . S
C711 C708 1.356 . S
C711 C713 1.358 . S
C711 H769 0.930 . S
C712 N709 1.314 . S
C712 C710 1.353 . S
C712 H770 0.930 . S
C713 N709 1.279 . S
C713 C711 1.358 . S
C713 H771 0.930 . S
C714 C717 1.348 . S
C714 C718 1.356 . S
C714 O765 1.325 . S
C715 N716 1.279 . S
C715 C718 1.358 . S
C715 H772 0.930 . S
N716 C715 1.279 . S
N716 C719 1.314 . S
C717 C714 1.348 . S
C717 C719 1.353 . S
C717 H773 0.929 . S
C718 C714 1.356 . S
C718 C715 1.358 . S
C718 H774 0.930 . S
C719 N716 1.314 . S
C719 C717 1.353 . S
C719 H775 0.930 . S
C720 N721 1.314 . S
C720 C725 1.353 . S
C720 H726 0.930 . S
N721 Li704 1.990 . S
N721 C720 1.314 . S
N721 C723 1.279 . S
C722 C723 1.358 . S
C722 C724 1.356 . S
C722 H776 0.930 . S
C723 N721 1.279 . S
C723 C722 1.358 . S
C723 H727 0.930 . S
C724 C722 1.356 . S
C724 C725 1.348 . S
C725 C720 1.353 . S
C725 C724 1.348 . S
C725 H777 0.929 . S
H726 C720 0.930 . S
H727 C723 0.930 . S
C728 N729 1.314 . S
C728 C730 1.353 . S
C728 H734 0.930 . S
N729 Li705 1.990 . S
N729 C728 1.314 . S
N729 C732 1.279 . S
C730 C728 1.353 . S
C730 C733 1.348 . S
C730 H778 0.929 . S
C731 C732 1.358 . S
C731 C733 1.356 . S
C731 H779 0.930 . S
C732 N729 1.279 . S
C732 C731 1.358 . S
C732 H735 0.930 . S
C733 C730 1.348 . S
C733 C731 1.356 . S
H734 C728 0.930 . S
H735 C732 0.930 . S
C736 C738 1.348 . S
C736 C739 1.356 . S
C736 O766 1.325 . S
N737 C740 1.314 . S
N737 C741 1.279 . S
C738 C736 1.348 . S
C738 C740 1.353 . S
C738 H780 0.929 . S
C739 C736 1.356 . S
C739 C741 1.358 . S
C739 H781 0.930 . S
C740 N737 1.314 . S
C740 C738 1.353 . S
C740 H782 0.930 . S
C741 N737 1.279 . S
C741 C739 1.358 . S
C741 H783 0.930 . S
C742 C743 1.348 . S
C742 C744 1.356 . S
C742 O767 1.325 . S
C743 C742 1.348 . S
C743 C745 1.353 . S
C743 H784 0.929 . S
C744 C742 1.356 . S
C744 C746 1.358 . S
C744 H785 0.930 . S
C745 C743 1.353 . S
C745 N747 1.314 . S
C745 H786 0.930 . S
C746 C744 1.358 . S
C746 N747 1.279 . S
C746 H787 0.930 . S
N747 C745 1.314 . S
N747 C746 1.279 . S
C748 C750 1.353 . S
C748 N751 1.314 . S
C748 H754 0.930 . S
C749 N751 1.279 . S
C749 C752 1.358 . S
C749 H755 0.930 . S
C750 C748 1.353 . S
C750 C753 1.348 . S
C750 H788 0.929 . S
N751 Li706 1.990 . S
N751 C748 1.314 . S
N751 C749 1.279 . S
C752 C749 1.358 . S
C752 C753 1.356 . S
C752 H789 0.930 . S
C753 C750 1.348 . S
C753 C752 1.356 . S
H754 C748 0.930 . S
H755 C749 0.930 . S
C756 N757 1.314 . S
C756 C758 1.353 . S
C756 H762 0.930 . S
N757 Li707 1.990 . S
N757 C756 1.314 . S
N757 C760 1.279 . S
C758 C756 1.353 . S
C758 C761 1.348 . S
C758 H790 0.929 . S
C759 C760 1.358 . S
C759 C761 1.356 . S
C759 H791 0.930 . S
C760 N757 1.279 . S
C760 C759 1.358 . S
C760 H763 0.930 . S
C761 C758 1.348 . S
C761 C759 1.356 . S
H762 C756 0.930 . S
H763 C760 0.930 . S
O764 Li704 1.956 . S
O764 Li705 1.970 . S
O764 Li706 1.961 . S
O764 C708 1.325 . S
O765 Li704 1.970 . S
O765 Li705 1.956 . S
O765 Li707 1.961 . S
O765 C714 1.325 . S
O766 Li704 1.961 . S
O766 Li706 1.956 . S
O766 Li707 1.970 . S
O766 C736 1.325 . S
O767 Li705 1.961 . S
O767 Li706 1.970 . S
O767 Li707 1.956 . S
O767 C742 1.325 . S
H768 C710 0.929 . S
H769 C711 0.930 . S
H770 C712 0.930 . S
H771 C713 0.930 . S
H772 C715 0.930 . S
H773 C717 0.929 . S
H774 C718 0.930 . S
H775 C719 0.930 . S
H776 C722 0.930 . S
H777 C725 0.929 . S
H778 C730 0.929 . S
H779 C731 0.930 . S
H780 C738 0.929 . S
H781 C739 0.930 . S
H782 C740 0.930 . S
H783 C741 0.930 . S
H784 C743 0.929 . S
H785 C744 0.930 . S
H786 C745 0.930 . S
H787 C746 0.930 . S
H788 C750 0.929 . S
H789 C752 0.930 . S
H790 C758 0.929 . S
H791 C759 0.930 . S
Li792 N809 1.990 . S
Li792 O852 1.956 . S
Li792 O853 1.970 . S
Li792 O854 1.961 . S
Li793 N817 1.990 . S
Li793 O852 1.970 . S
Li793 O853 1.956 . S
Li793 O855 1.961 . S
Li794 N839 1.990 . S
Li794 O852 1.961 . S
Li794 O854 1.956 . S
Li794 O855 1.970 . S
Li795 N845 1.990 . S
Li795 O853 1.961 . S
Li795 O854 1.970 . S
Li795 O855 1.956 . S
C796 C798 1.348 . S
C796 C799 1.356 . S
C796 O852 1.325 . S
N797 C800 1.314 . S
N797 C801 1.279 . S
C798 C796 1.348 . S
C798 C800 1.353 . S
C798 H856 0.929 . S
C799 C796 1.356 . S
C799 C801 1.358 . S
C799 H857 0.930 . S
C800 N797 1.314 . S
C800 C798 1.353 . S
C800 H858 0.930 . S
C801 N797 1.279 . S
C801 C799 1.358 . S
C801 H859 0.930 . S
C802 C805 1.348 . S
C802 C806 1.356 . S
C802 O853 1.325 . S
C803 N804 1.279 . S
C803 C806 1.358 . S
C803 H860 0.930 . S
N804 C803 1.279 . S
N804 C807 1.314 . S
C805 C802 1.348 . S
C805 C807 1.353 . S
C805 H861 0.929 . S
C806 C802 1.356 . S
C806 C803 1.358 . S
C806 H862 0.930 . S
C807 N804 1.314 . S
C807 C805 1.353 . S
C807 H863 0.930 . S
C808 N809 1.314 . S
C808 C813 1.353 . S
C808 H814 0.930 . S
N809 Li792 1.990 . S
N809 C808 1.314 . S
N809 C811 1.279 . S
C810 C811 1.358 . S
C810 C812 1.356 . S
C810 H864 0.930 . S
C811 N809 1.279 . S
C811 C810 1.358 . S
C811 H815 0.930 . S
C812 C810 1.356 . S
C812 C813 1.348 . S
C813 C808 1.353 . S
C813 C812 1.348 . S
C813 H865 0.929 . S
H814 C808 0.930 . S
H815 C811 0.930 . S
C816 N817 1.314 . S
C816 C818 1.353 . S
C816 H822 0.930 . S
N817 Li793 1.990 . S
N817 C816 1.314 . S
N817 C820 1.279 . S
C818 C816 1.353 . S
C818 C821 1.348 . S
C818 H866 0.929 . S
C819 C820 1.358 . S
C819 C821 1.356 . S
C819 H867 0.930 . S
C820 N817 1.279 . S
C820 C819 1.358 . S
C820 H823 0.930 . S
C821 C818 1.348 . S
C821 C819 1.356 . S
H822 C816 0.930 . S
H823 C820 0.930 . S
C824 C826 1.348 . S
C824 C827 1.356 . S
C824 O854 1.325 . S
N825 C828 1.314 . S
N825 C829 1.279 . S
C826 C824 1.348 . S
C826 C828 1.353 . S
C826 H868 0.929 . S
C827 C824 1.356 . S
C827 C829 1.358 . S
C827 H869 0.930 . S
C828 N825 1.314 . S
C828 C826 1.353 . S
C828 H870 0.930 . S
C829 N825 1.279 . S
C829 C827 1.358 . S
C829 H871 0.930 . S
C830 C831 1.348 . S
C830 C832 1.356 . S
C830 O855 1.325 . S
C831 C830 1.348 . S
C831 C833 1.353 . S
C831 H872 0.929 . S
C832 C830 1.356 . S
C832 C834 1.358 . S
C832 H873 0.930 . S
C833 C831 1.353 . S
C833 N835 1.314 . S
C833 H874 0.930 . S
C834 C832 1.358 . S
C834 N835 1.279 . S
C834 H875 0.930 . S
N835 C833 1.314 . S
N835 C834 1.279 . S
C836 C838 1.353 . S
C836 N839 1.314 . S
C836 H842 0.930 . S
C837 N839 1.279 . S
C837 C840 1.358 . S
C837 H843 0.930 . S
C838 C836 1.353 . S
C838 C841 1.348 . S
C838 H876 0.929 . S
N839 Li794 1.990 . S
N839 C836 1.314 . S
N839 C837 1.279 . S
C840 C837 1.358 . S
C840 C841 1.356 . S
C840 H877 0.930 . S
C841 C838 1.348 . S
C841 C840 1.356 . S
H842 C836 0.930 . S
H843 C837 0.930 . S
C844 N845 1.314 . S
C844 C846 1.353 . S
C844 H850 0.930 . S
N845 Li795 1.990 . S
N845 C844 1.314 . S
N845 C848 1.279 . S
C846 C844 1.353 . S
C846 C849 1.348 . S
C846 H878 0.929 . S
C847 C848 1.358 . S
C847 C849 1.356 . S
C847 H879 0.930 . S
C848 N845 1.279 . S
C848 C847 1.358 . S
C848 H851 0.930 . S
C849 C846 1.348 . S
C849 C847 1.356 . S
H850 C844 0.930 . S
H851 C848 0.930 . S
O852 Li792 1.956 . S
O852 Li793 1.970 . S
O852 Li794 1.961 . S
O852 C796 1.325 . S
O853 Li792 1.970 . S
O853 Li793 1.956 . S
O853 Li795 1.961 . S
O853 C802 1.325 . S
O854 Li792 1.961 . S
O854 Li794 1.956 . S
O854 Li795 1.970 . S
O854 C824 1.325 . S
O855 Li793 1.961 . S
O855 Li794 1.970 . S
O855 Li795 1.956 . S
O855 C830 1.325 . S
H856 C798 0.929 . S
H857 C799 0.930 . S
H858 C800 0.930 . S
H859 C801 0.930 . S
H860 C803 0.930 . S
H861 C805 0.929 . S
H862 C806 0.930 . S
H863 C807 0.930 . S
H864 C810 0.930 . S
H865 C813 0.929 . S
H866 C818 0.929 . S
H867 C819 0.930 . S
H868 C826 0.929 . S
H869 C827 0.930 . S
H870 C828 0.930 . S
H871 C829 0.930 . S
H872 C831 0.929 . S
H873 C832 0.930 . S
H874 C833 0.930 . S
H875 C834 0.930 . S
H876 C838 0.929 . S
H877 C840 0.930 . S
H878 C846 0.929 . S
H879 C847 0.930 . S
Li880 N897 1.990 . S
Li880 O940 1.956 . S
Li880 O941 1.970 1_455 S
Li880 O942 1.961 . S
Li881 N905 1.990 . S
Li881 O940 1.970 1_655 S
Li881 O941 1.956 . S
Li881 O943 1.961 1_655 S
Li882 N927 1.990 . S
Li882 O940 1.961 . S
Li882 O942 1.956 . S
Li882 O943 1.970 . S
Li883 N933 1.990 . S
Li883 O941 1.961 1_455 S
Li883 O942 1.970 . S
Li883 O943 1.956 . S
C884 C886 1.348 . S
C884 C887 1.356 1_655 S
C884 O940 1.325 1_655 S
N885 C888 1.314 . S
N885 C889 1.279 1_655 S
C886 C884 1.348 . S
C886 C888 1.353 . S
C886 H944 0.929 . S
C887 C884 1.356 1_455 S
C887 C889 1.358 . S
C887 H945 0.930 . S
C888 N885 1.314 . S
C888 C886 1.353 . S
C888 H946 0.930 . S
C889 N885 1.279 1_455 S
C889 C887 1.358 . S
C889 H947 0.930 . S
C890 C893 1.348 . S
C890 C894 1.356 . S
C890 O941 1.325 . S
C891 N892 1.279 . S
C891 C894 1.358 . S
C891 H948 0.930 . S
N892 C891 1.279 . S
N892 C895 1.314 . S
C893 C890 1.348 . S
C893 C895 1.353 . S
C893 H949 0.929 . S
C894 C890 1.356 . S
C894 C891 1.358 . S
C894 H950 0.930 . S
C895 N892 1.314 . S
C895 C893 1.353 . S
C895 H951 0.930 . S
C896 N897 1.314 . S
C896 C901 1.353 . S
C896 H902 0.930 . S
N897 Li880 1.990 . S
N897 C896 1.314 . S
N897 C899 1.279 1_455 S
C898 C899 1.358 . S
C898 C900 1.356 . S
C898 H952 0.930 . S
C899 N897 1.279 1_655 S
C899 C898 1.358 . S
C899 H903 0.930 . S
C900 C898 1.356 . S
C900 C901 1.348 1_655 S
C901 C896 1.353 . S
C901 C900 1.348 1_455 S
C901 H953 0.929 . S
H902 C896 0.930 . S
H903 C899 0.930 . S
C904 N905 1.314 . S
C904 C906 1.353 . S
C904 H910 0.930 . S
N905 Li881 1.990 . S
N905 C904 1.314 . S
N905 C908 1.279 . S
C906 C904 1.353 . S
C906 C909 1.348 . S
C906 H954 0.929 . S
C907 C908 1.358 . S
C907 C909 1.356 . S
C907 H955 0.930 . S
C908 N905 1.279 . S
C908 C907 1.358 . S
C908 H911 0.930 . S
C909 C906 1.348 . S
C909 C907 1.356 . S
H910 C904 0.930 . S
H911 C908 0.930 . S
C912 C914 1.348 . S
C912 C915 1.356 . S
C912 O942 1.325 . S
N913 C916 1.314 . S
N913 C917 1.279 . S
C914 C912 1.348 . S
C914 C916 1.353 . S
C914 H956 0.929 . S
C915 C912 1.356 . S
C915 C917 1.358 . S
C915 H957 0.930 . S
C916 N913 1.314 . S
C916 C914 1.353 . S
C916 H958 0.930 . S
C917 N913 1.279 . S
C917 C915 1.358 . S
C917 H959 0.930 . S
C918 C919 1.348 . S
C918 C920 1.356 1_455 S
C918 O943 1.325 . S
C919 C918 1.348 . S
C919 C921 1.353 . S
C919 H960 0.929 . S
C920 C918 1.356 1_655 S
C920 C922 1.358 . S
C920 H961 0.930 . S
C921 C919 1.353 . S
C921 N923 1.314 . S
C921 H962 0.930 . S
C922 C920 1.358 . S
C922 N923 1.282 1_655 S
C922 H963 0.928 . S
N923 C921 1.314 . S
N923 C922 1.282 1_455 S
C924 C926 1.353 . S
C924 N927 1.314 . S
C924 H930 0.930 . S
C925 N927 1.279 . S
C925 C928 1.358 . S
C925 H931 0.930 . S
C926 C924 1.353 . S
C926 C929 1.348 . S
C926 H964 0.929 . S
N927 Li882 1.990 . S
N927 C924 1.314 . S
N927 C925 1.279 . S
C928 C925 1.358 . S
C928 C929 1.356 . S
C928 H965 0.930 . S
C929 C926 1.348 . S
C929 C928 1.356 . S
H930 C924 0.930 . S
H931 C925 0.930 . S
C932 N933 1.314 . S
C932 C934 1.353 . S
C932 H938 0.930 . S
N933 Li883 1.990 . S
N933 C932 1.314 . S
N933 C936 1.279 . S
C934 C932 1.353 . S
C934 C937 1.348 . S
C934 H966 0.929 . S
C935 C936 1.358 . S
C935 C937 1.356 . S
C935 H967 0.930 . S
C936 N933 1.279 . S
C936 C935 1.358 . S
C936 H939 0.930 . S
C937 C934 1.348 . S
C937 C935 1.356 . S
H938 C932 0.930 . S
H939 C936 0.930 . S
O940 Li880 1.956 . S
O940 Li881 1.970 1_455 S
O940 Li882 1.961 . S
O940 C884 1.325 1_455 S
O941 Li880 1.970 1_655 S
O941 Li881 1.956 . S
O941 Li883 1.961 1_655 S
O941 C890 1.325 . S
O942 Li880 1.961 . S
O942 Li882 1.956 . S
O942 Li883 1.970 . S
O942 C912 1.325 . S
O943 Li881 1.961 1_455 S
O943 Li882 1.970 . S
O943 Li883 1.956 . S
O943 C918 1.325 . S
H944 C886 0.929 . S
H945 C887 0.930 . S
H946 C888 0.930 . S
H947 C889 0.930 . S
H948 C891 0.930 . S
H949 C893 0.929 . S
H950 C894 0.930 . S
H951 C895 0.930 . S
H952 C898 0.930 . S
H953 C901 0.929 . S
H954 C906 0.929 . S
H955 C907 0.930 . S
H956 C914 0.929 . S
H957 C915 0.930 . S
H958 C916 0.930 . S
H959 C917 0.930 . S
H960 C919 0.929 . S
H961 C920 0.930 . S
H962 C921 0.930 . S
H963 C922 0.928 . S
H964 C926 0.929 . S
H965 C928 0.930 . S
H966 C934 0.929 . S
H967 C935 0.930 . S
Li968 N985 1.990 . S
Li968 O1028 1.956 . S
Li968 O1029 1.970 1_545 S
Li968 O1030 1.961 . S
Li969 N993 1.990 . S
Li969 O1028 1.970 1_565 S
Li969 O1029 1.956 . S
Li969 O1031 1.961 1_565 S
Li970 N1015 1.990 . S
Li970 O1028 1.961 . S
Li970 O1030 1.956 . S
Li970 O1031 1.970 . S
Li971 N1021 1.990 . S
Li971 O1029 1.961 1_545 S
Li971 O1030 1.970 . S
Li971 O1031 1.956 . S
C972 C974 1.348 . S
C972 C975 1.356 1_565 S
C972 O1028 1.325 1_565 S
N973 C976 1.314 . S
N973 C977 1.279 1_565 S
C974 C972 1.348 . S
C974 C976 1.353 . S
C974 H1032 0.929 . S
C975 C972 1.356 1_545 S
C975 C977 1.358 . S
C975 H1033 0.930 . S
C976 N973 1.314 . S
C976 C974 1.353 . S
C976 H1034 0.930 . S
C977 N973 1.279 1_545 S
C977 C975 1.358 . S
C977 H1035 0.930 . S
C978 C981 1.348 . S
C978 C982 1.356 . S
C978 O1029 1.325 . S
C979 N980 1.279 . S
C979 C982 1.358 . S
C979 H1036 0.930 . S
N980 C979 1.279 . S
N980 C983 1.314 . S
C981 C978 1.348 . S
C981 C983 1.353 . S
C981 H1037 0.929 . S
C982 C978 1.356 . S
C982 C979 1.358 . S
C982 H1038 0.930 . S
C983 N980 1.314 . S
C983 C981 1.353 . S
C983 H1039 0.930 . S
C984 N985 1.314 . S
C984 C989 1.353 . S
C984 H990 0.930 . S
N985 Li968 1.990 . S
N985 C984 1.314 . S
N985 C987 1.279 1_545 S
C986 C987 1.358 . S
C986 C988 1.356 . S
C986 H1040 0.930 . S
C987 N985 1.279 1_565 S
C987 C986 1.358 . S
C987 H991 0.930 . S
C988 C986 1.356 . S
C988 C989 1.348 1_565 S
C989 C984 1.353 . S
C989 C988 1.348 1_545 S
C989 H1041 0.929 . S
H990 C984 0.930 . S
H991 C987 0.930 . S
C992 N993 1.314 . S
C992 C994 1.353 . S
C992 H998 0.930 . S
N993 Li969 1.990 . S
N993 C992 1.314 . S
N993 C996 1.279 . S
C994 C992 1.353 . S
C994 C997 1.348 . S
C994 H1042 0.929 . S
C995 C996 1.358 . S
C995 C997 1.356 . S
C995 H1043 0.930 . S
C996 N993 1.279 . S
C996 C995 1.358 . S
C996 H999 0.930 . S
C997 C994 1.348 . S
C997 C995 1.356 . S
H998 C992 0.930 . S
H999 C996 0.930 . S
C1000 C1002 1.348 . S
C1000 C1003 1.356 . S
C1000 O1030 1.325 . S
N1001 C1004 1.314 . S
N1001 C1005 1.279 . S
C1002 C1000 1.348 . S
C1002 C1004 1.353 . S
C1002 H1044 0.929 . S
C1003 C1000 1.356 . S
C1003 C1005 1.358 . S
C1003 H1045 0.930 . S
C1004 N1001 1.314 . S
C1004 C1002 1.353 . S
C1004 H1046 0.930 . S
C1005 N1001 1.279 . S
C1005 C1003 1.358 . S
C1005 H1047 0.930 . S
C1006 C1007 1.348 . S
C1006 C1008 1.356 1_545 S
C1006 O1031 1.325 . S
C1007 C1006 1.348 . S
C1007 C1009 1.353 . S
C1007 H1048 0.929 . S
C1008 C1006 1.356 1_565 S
C1008 C1010 1.358 . S
C1008 H1049 0.930 . S
C1009 C1007 1.353 . S
C1009 N1011 1.314 . S
C1009 H1050 0.930 . S
C1010 C1008 1.358 . S
C1010 N1011 1.281 1_565 S
C1010 H1051 0.928 . S
N1011 C1009 1.314 . S
N1011 C1010 1.281 1_545 S
C1012 C1014 1.353 . S
C1012 N1015 1.314 . S
C1012 H1018 0.930 . S
C1013 N1015 1.279 . S
C1013 C1016 1.358 . S
C1013 H1019 0.930 . S
C1014 C1012 1.353 . S
C1014 C1017 1.348 . S
C1014 H1052 0.929 . S
N1015 Li970 1.990 . S
N1015 C1012 1.314 . S
N1015 C1013 1.279 . S
C1016 C1013 1.358 . S
C1016 C1017 1.356 . S
C1016 H1053 0.930 . S
C1017 C1014 1.348 . S
C1017 C1016 1.356 . S
H1018 C1012 0.930 . S
H1019 C1013 0.930 . S
C1020 N1021 1.314 . S
C1020 C1022 1.353 . S
C1020 H1026 0.930 . S
N1021 Li971 1.990 . S
N1021 C1020 1.314 . S
N1021 C1024 1.279 . S
C1022 C1020 1.353 . S
C1022 C1025 1.348 . S
C1022 H1054 0.929 . S
C1023 C1024 1.358 . S
C1023 C1025 1.356 . S
C1023 H1055 0.930 . S
C1024 N1021 1.279 . S
C1024 C1023 1.358 . S
C1024 H1027 0.930 . S
C1025 C1022 1.348 . S
C1025 C1023 1.356 . S
H1026 C1020 0.930 . S
H1027 C1024 0.930 . S
O1028 Li968 1.956 . S
O1028 Li969 1.970 1_545 S
O1028 Li970 1.961 . S
O1028 C972 1.325 1_545 S
O1029 Li968 1.970 1_565 S
O1029 Li969 1.956 . S
O1029 Li971 1.961 1_565 S
O1029 C978 1.325 . S
O1030 Li968 1.961 . S
O1030 Li970 1.956 . S
O1030 Li971 1.970 . S
O1030 C1000 1.325 . S
O1031 Li969 1.961 1_545 S
O1031 Li970 1.970 . S
O1031 Li971 1.956 . S
O1031 C1006 1.325 . S
H1032 C974 0.929 . S
H1033 C975 0.930 . S
H1034 C976 0.930 . S
H1035 C977 0.930 . S
H1036 C979 0.930 . S
H1037 C981 0.929 . S
H1038 C982 0.930 . S
H1039 C983 0.930 . S
H1040 C986 0.930 . S
H1041 C989 0.929 . S
H1042 C994 0.929 . S
H1043 C995 0.930 . S
H1044 C1002 0.929 . S
H1045 C1003 0.930 . S
H1046 C1004 0.930 . S
H1047 C1005 0.930 . S
H1048 C1007 0.929 . S
H1049 C1008 0.930 . S
H1050 C1009 0.930 . S
H1051 C1010 0.928 . S
H1052 C1014 0.929 . S
H1053 C1016 0.930 . S
H1054 C1022 0.929 . S
H1055 C1023 0.930 . S
Li1056 N1073 1.990 . S
Li1056 O1116 1.956 . S
Li1056 O1117 1.970 . S
Li1056 O1118 1.961 . S
Li1057 N1081 1.990 . S
Li1057 O1116 1.970 . S
Li1057 O1117 1.956 . S
Li1057 O1119 1.961 . S
Li1058 N1103 1.990 . S
Li1058 O1116 1.961 . S
Li1058 O1118 1.956 . S
Li1058 O1119 1.970 . S
Li1059 N1109 1.990 . S
Li1059 O1117 1.961 . S
Li1059 O1118 1.970 . S
Li1059 O1119 1.956 . S
C1060 C1062 1.348 . S
C1060 C1063 1.356 . S
C1060 O1116 1.325 . S
N1061 C1064 1.314 . S
N1061 C1065 1.279 . S
C1062 C1060 1.348 . S
C1062 C1064 1.353 . S
C1062 H1120 0.929 . S
C1063 C1060 1.356 . S
C1063 C1065 1.358 . S
C1063 H1121 0.930 . S
C1064 N1061 1.314 . S
C1064 C1062 1.353 . S
C1064 H1122 0.930 . S
C1065 N1061 1.279 . S
C1065 C1063 1.358 . S
C1065 H1123 0.930 . S
C1066 C1069 1.348 . S
C1066 C1070 1.356 . S
C1066 O1117 1.325 . S
C1067 N1068 1.279 . S
C1067 C1070 1.358 . S
C1067 H1124 0.930 . S
N1068 C1067 1.279 . S
N1068 C1071 1.314 . S
C1069 C1066 1.348 . S
C1069 C1071 1.353 . S
C1069 H1125 0.929 . S
C1070 C1066 1.356 . S
C1070 C1067 1.358 . S
C1070 H1126 0.930 . S
C1071 N1068 1.314 . S
C1071 C1069 1.353 . S
C1071 H1127 0.930 . S
C1072 N1073 1.314 . S
C1072 C1077 1.353 . S
C1072 H1078 0.930 . S
N1073 Li1056 1.990 . S
N1073 C1072 1.314 . S
N1073 C1075 1.279 . S
C1074 C1075 1.358 . S
C1074 C1076 1.356 . S
C1074 H1128 0.930 . S
C1075 N1073 1.279 . S
C1075 C1074 1.358 . S
C1075 H1079 0.930 . S
C1076 C1074 1.356 . S
C1076 C1077 1.348 . S
C1077 C1072 1.353 . S
C1077 C1076 1.348 . S
C1077 H1129 0.929 . S
H1078 C1072 0.930 . S
H1079 C1075 0.930 . S
C1080 N1081 1.314 . S
C1080 C1082 1.353 . S
C1080 H1086 0.930 . S
N1081 Li1057 1.990 . S
N1081 C1080 1.314 . S
N1081 C1084 1.279 . S
C1082 C1080 1.353 . S
C1082 C1085 1.348 . S
C1082 H1130 0.929 . S
C1083 C1084 1.358 . S
C1083 C1085 1.356 . S
C1083 H1131 0.930 . S
C1084 N1081 1.279 . S
C1084 C1083 1.358 . S
C1084 H1087 0.930 . S
C1085 C1082 1.348 . S
C1085 C1083 1.356 . S
H1086 C1080 0.930 . S
H1087 C1084 0.930 . S
C1088 C1090 1.348 . S
C1088 C1091 1.356 . S
C1088 O1118 1.325 . S
N1089 C1092 1.314 . S
N1089 C1093 1.279 . S
C1090 C1088 1.348 . S
C1090 C1092 1.353 . S
C1090 H1132 0.929 . S
C1091 C1088 1.356 . S
C1091 C1093 1.358 . S
C1091 H1133 0.930 . S
C1092 N1089 1.314 . S
C1092 C1090 1.353 . S
C1092 H1134 0.930 . S
C1093 N1089 1.279 . S
C1093 C1091 1.358 . S
C1093 H1135 0.930 . S
C1094 C1095 1.348 . S
C1094 C1096 1.356 . S
C1094 O1119 1.325 . S
C1095 C1094 1.348 . S
C1095 C1097 1.353 . S
C1095 H1136 0.929 . S
C1096 C1094 1.356 . S
C1096 C1098 1.358 . S
C1096 H1137 0.930 . S
C1097 C1095 1.353 . S
C1097 N1099 1.314 . S
C1097 H1138 0.930 . S
C1098 C1096 1.358 . S
C1098 N1099 1.279 . S
C1098 H1139 0.930 . S
N1099 C1097 1.314 . S
N1099 C1098 1.279 . S
C1100 C1102 1.353 . S
C1100 N1103 1.314 . S
C1100 H1106 0.930 . S
C1101 N1103 1.279 . S
C1101 C1104 1.358 . S
C1101 H1107 0.930 . S
C1102 C1100 1.353 . S
C1102 C1105 1.348 . S
C1102 H1140 0.929 . S
N1103 Li1058 1.990 . S
N1103 C1100 1.314 . S
N1103 C1101 1.279 . S
C1104 C1101 1.358 . S
C1104 C1105 1.356 . S
C1104 H1141 0.930 . S
C1105 C1102 1.348 . S
C1105 C1104 1.356 . S
H1106 C1100 0.930 . S
H1107 C1101 0.930 . S
C1108 N1109 1.314 . S
C1108 C1110 1.353 . S
C1108 H1114 0.930 . S
N1109 Li1059 1.990 . S
N1109 C1108 1.314 . S
N1109 C1112 1.279 . S
C1110 C1108 1.353 . S
C1110 C1113 1.348 . S
C1110 H1142 0.929 . S
C1111 C1112 1.358 . S
C1111 C1113 1.356 . S
C1111 H1143 0.930 . S
C1112 N1109 1.279 . S
C1112 C1111 1.358 . S
C1112 H1115 0.930 . S
C1113 C1110 1.348 . S
C1113 C1111 1.356 . S
H1114 C1108 0.930 . S
H1115 C1112 0.930 . S
O1116 Li1056 1.956 . S
O1116 Li1057 1.970 . S
O1116 Li1058 1.961 . S
O1116 C1060 1.325 . S
O1117 Li1056 1.970 . S
O1117 Li1057 1.956 . S
O1117 Li1059 1.961 . S
O1117 C1066 1.325 . S
O1118 Li1056 1.961 . S
O1118 Li1058 1.956 . S
O1118 Li1059 1.970 . S
O1118 C1088 1.325 . S
O1119 Li1057 1.961 . S
O1119 Li1058 1.970 . S
O1119 Li1059 1.956 . S
O1119 C1094 1.325 . S
H1120 C1062 0.929 . S
H1121 C1063 0.930 . S
H1122 C1064 0.930 . S
H1123 C1065 0.930 . S
H1124 C1067 0.930 . S
H1125 C1069 0.929 . S
H1126 C1070 0.930 . S
H1127 C1071 0.930 . S
H1128 C1074 0.930 . S
H1129 C1077 0.929 . S
H1130 C1082 0.929 . S
H1131 C1083 0.930 . S
H1132 C1090 0.929 . S
H1133 C1091 0.930 . S
H1134 C1092 0.930 . S
H1135 C1093 0.930 . S
H1136 C1095 0.929 . S
H1137 C1096 0.930 . S
H1138 C1097 0.930 . S
H1139 C1098 0.930 . S
H1140 C1102 0.929 . S
H1141 C1104 0.930 . S
H1142 C1110 0.929 . S
H1143 C1111 0.930 . S
Li1144 N1161 1.990 . S
Li1144 O1204 1.956 . S
Li1144 O1205 1.970 . S
Li1144 O1206 1.961 . S
Li1145 N1169 1.990 . S
Li1145 O1204 1.970 . S
Li1145 O1205 1.956 . S
Li1145 O1207 1.961 . S
Li1146 N1191 1.990 . S
Li1146 O1204 1.961 . S
Li1146 O1206 1.956 . S
Li1146 O1207 1.970 . S
Li1147 N1197 1.990 . S
Li1147 O1205 1.961 . S
Li1147 O1206 1.970 . S
Li1147 O1207 1.956 . S
C1148 C1150 1.348 . S
C1148 C1151 1.356 . S
C1148 O1204 1.325 . S
N1149 C1152 1.314 . S
N1149 C1153 1.279 . S
C1150 C1148 1.348 . S
C1150 C1152 1.353 . S
C1150 H1208 0.929 . S
C1151 C1148 1.356 . S
C1151 C1153 1.358 . S
C1151 H1209 0.930 . S
C1152 N1149 1.314 . S
C1152 C1150 1.353 . S
C1152 H1210 0.930 . S
C1153 N1149 1.279 . S
C1153 C1151 1.358 . S
C1153 H1211 0.930 . S
C1154 C1157 1.348 . S
C1154 C1158 1.356 . S
C1154 O1205 1.325 . S
C1155 N1156 1.279 . S
C1155 C1158 1.358 . S
C1155 H1212 0.930 . S
N1156 C1155 1.279 . S
N1156 C1159 1.314 . S
C1157 C1154 1.348 . S
C1157 C1159 1.353 . S
C1157 H1213 0.929 . S
C1158 C1154 1.356 . S
C1158 C1155 1.358 . S
C1158 H1214 0.930 . S
C1159 N1156 1.314 . S
C1159 C1157 1.353 . S
C1159 H1215 0.930 . S
C1160 N1161 1.314 . S
C1160 C1165 1.353 . S
C1160 H1166 0.930 . S
N1161 Li1144 1.990 . S
N1161 C1160 1.314 . S
N1161 C1163 1.279 . S
C1162 C1163 1.358 . S
C1162 C1164 1.356 . S
C1162 H1216 0.930 . S
C1163 N1161 1.279 . S
C1163 C1162 1.358 . S
C1163 H1167 0.930 . S
C1164 C1162 1.356 . S
C1164 C1165 1.348 . S
C1165 C1160 1.353 . S
C1165 C1164 1.348 . S
C1165 H1217 0.929 . S
H1166 C1160 0.930 . S
H1167 C1163 0.930 . S
C1168 N1169 1.314 . S
C1168 C1170 1.353 . S
C1168 H1174 0.930 . S
N1169 Li1145 1.990 . S
N1169 C1168 1.314 . S
N1169 C1172 1.279 . S
C1170 C1168 1.353 . S
C1170 C1173 1.348 . S
C1170 H1218 0.929 . S
C1171 C1172 1.358 . S
C1171 C1173 1.356 . S
C1171 H1219 0.930 . S
C1172 N1169 1.279 . S
C1172 C1171 1.358 . S
C1172 H1175 0.930 . S
C1173 C1170 1.348 . S
C1173 C1171 1.356 . S
H1174 C1168 0.930 . S
H1175 C1172 0.930 . S
C1176 C1178 1.348 . S
C1176 C1179 1.356 . S
C1176 O1206 1.325 . S
N1177 C1180 1.314 . S
N1177 C1181 1.279 . S
C1178 C1176 1.348 . S
C1178 C1180 1.353 . S
C1178 H1220 0.929 . S
C1179 C1176 1.356 . S
C1179 C1181 1.358 . S
C1179 H1221 0.930 . S
C1180 N1177 1.314 . S
C1180 C1178 1.353 . S
C1180 H1222 0.930 . S
C1181 N1177 1.279 . S
C1181 C1179 1.358 . S
C1181 H1223 0.930 . S
C1182 C1183 1.348 . S
C1182 C1184 1.356 . S
C1182 O1207 1.325 . S
C1183 C1182 1.348 . S
C1183 C1185 1.353 . S
C1183 H1224 0.929 . S
C1184 C1182 1.356 . S
C1184 C1186 1.358 . S
C1184 H1225 0.930 . S
C1185 C1183 1.353 . S
C1185 N1187 1.314 . S
C1185 H1226 0.930 . S
C1186 C1184 1.358 . S
C1186 N1187 1.279 . S
C1186 H1227 0.930 . S
N1187 C1185 1.314 . S
N1187 C1186 1.279 . S
C1188 C1190 1.353 . S
C1188 N1191 1.314 . S
C1188 H1194 0.930 . S
C1189 N1191 1.279 . S
C1189 C1192 1.358 . S
C1189 H1195 0.930 . S
C1190 C1188 1.353 . S
C1190 C1193 1.348 . S
C1190 H1228 0.929 . S
N1191 Li1146 1.990 . S
N1191 C1188 1.314 . S
N1191 C1189 1.279 . S
C1192 C1189 1.358 . S
C1192 C1193 1.356 . S
C1192 H1229 0.930 . S
C1193 C1190 1.348 . S
C1193 C1192 1.356 . S
H1194 C1188 0.930 . S
H1195 C1189 0.930 . S
C1196 N1197 1.314 . S
C1196 C1198 1.353 . S
C1196 H1202 0.930 . S
N1197 Li1147 1.990 . S
N1197 C1196 1.314 . S
N1197 C1200 1.279 . S
C1198 C1196 1.353 . S
C1198 C1201 1.348 . S
C1198 H1230 0.929 . S
C1199 C1200 1.358 . S
C1199 C1201 1.356 . S
C1199 H1231 0.930 . S
C1200 N1197 1.279 . S
C1200 C1199 1.358 . S
C1200 H1203 0.930 . S
C1201 C1198 1.348 . S
C1201 C1199 1.356 . S
H1202 C1196 0.930 . S
H1203 C1200 0.930 . S
O1204 Li1144 1.956 . S
O1204 Li1145 1.970 . S
O1204 Li1146 1.961 . S
O1204 C1148 1.325 . S
O1205 Li1144 1.970 . S
O1205 Li1145 1.956 . S
O1205 Li1147 1.961 . S
O1205 C1154 1.325 . S
O1206 Li1144 1.961 . S
O1206 Li1146 1.956 . S
O1206 Li1147 1.970 . S
O1206 C1176 1.325 . S
O1207 Li1145 1.961 . S
O1207 Li1146 1.970 . S
O1207 Li1147 1.956 . S
O1207 C1182 1.325 . S
H1208 C1150 0.929 . S
H1209 C1151 0.930 . S
H1210 C1152 0.930 . S
H1211 C1153 0.930 . S
H1212 C1155 0.930 . S
H1213 C1157 0.929 . S
H1214 C1158 0.930 . S
H1215 C1159 0.930 . S
H1216 C1162 0.930 . S
H1217 C1165 0.929 . S
H1218 C1170 0.929 . S
H1219 C1171 0.930 . S
H1220 C1178 0.929 . S
H1221 C1179 0.930 . S
H1222 C1180 0.930 . S
H1223 C1181 0.930 . S
H1224 C1183 0.929 . S
H1225 C1184 0.930 . S
H1226 C1185 0.930 . S
H1227 C1186 0.930 . S
H1228 C1190 0.929 . S
H1229 C1192 0.930 . S
H1230 C1198 0.929 . S
H1231 C1199 0.930 . S
Li1232 N1249 1.990 . S
Li1232 O1292 1.956 . S
Li1232 O1293 1.970 . S
Li1232 O1294 1.961 . S
Li1233 N1257 1.990 . S
Li1233 O1292 1.970 . S
Li1233 O1293 1.956 . S
Li1233 O1295 1.961 1_455 S
Li1234 N1279 1.990 . S
Li1234 O1292 1.961 . S
Li1234 O1294 1.956 . S
Li1234 O1295 1.970 1_455 S
Li1235 N1285 1.990 . S
Li1235 O1293 1.961 1_655 S
Li1235 O1294 1.970 1_655 S
Li1235 O1295 1.956 . S
C1236 C1238 1.348 . S
C1236 C1239 1.356 . S
C1236 O1292 1.325 . S
N1237 C1240 1.314 . S
N1237 C1241 1.279 . S
C1238 C1236 1.348 . S
C1238 C1240 1.353 . S
C1238 H1296 0.929 . S
C1239 C1236 1.356 . S
C1239 C1241 1.358 . S
C1239 H1297 0.930 . S
C1240 N1237 1.314 . S
C1240 C1238 1.353 . S
C1240 H1298 0.930 . S
C1241 N1237 1.279 . S
C1241 C1239 1.358 . S
C1241 H1299 0.930 . S
C1242 C1245 1.348 . S
C1242 C1246 1.356 1_455 S
C1242 O1293 1.325 . S
C1243 N1244 1.281 1_655 S
C1243 C1246 1.358 . S
C1243 H1300 0.928 . S
N1244 C1243 1.281 1_455 S
N1244 C1247 1.314 . S
C1245 C1242 1.348 . S
C1245 C1247 1.353 . S
C1245 H1301 0.929 . S
C1246 C1242 1.356 1_655 S
C1246 C1243 1.358 . S
C1246 H1302 0.930 . S
C1247 N1244 1.314 . S
C1247 C1245 1.353 . S
C1247 H1303 0.930 . S
C1248 N1249 1.314 . S
C1248 C1253 1.353 . S
C1248 H1254 0.930 . S
N1249 Li1232 1.990 . S
N1249 C1248 1.314 . S
N1249 C1251 1.279 . S
C1250 C1251 1.358 . S
C1250 C1252 1.356 . S
C1250 H1304 0.930 . S
C1251 N1249 1.279 . S
C1251 C1250 1.358 . S
C1251 H1255 0.930 . S
C1252 C1250 1.356 . S
C1252 C1253 1.348 . S
C1253 C1248 1.353 . S
C1253 C1252 1.348 . S
C1253 H1305 0.929 . S
H1254 C1248 0.930 . S
H1255 C1251 0.930 . S
C1256 N1257 1.314 . S
C1256 C1258 1.353 . S
C1256 H1262 0.930 . S
N1257 Li1233 1.990 . S
N1257 C1256 1.314 . S
N1257 C1260 1.279 . S
C1258 C1256 1.353 . S
C1258 C1261 1.348 . S
C1258 H1306 0.929 . S
C1259 C1260 1.358 . S
C1259 C1261 1.356 . S
C1259 H1307 0.930 . S
C1260 N1257 1.279 . S
C1260 C1259 1.358 . S
C1260 H1263 0.930 . S
C1261 C1258 1.348 . S
C1261 C1259 1.356 . S
H1262 C1256 0.930 . S
H1263 C1260 0.930 . S
C1264 C1266 1.348 . S
C1264 C1267 1.356 1_655 S
C1264 O1294 1.325 1_655 S
N1265 C1268 1.314 . S
N1265 C1269 1.279 1_655 S
C1266 C1264 1.348 . S
C1266 C1268 1.353 . S
C1266 H1308 0.929 . S
C1267 C1264 1.356 1_455 S
C1267 C1269 1.358 . S
C1267 H1309 0.930 . S
C1268 N1265 1.314 . S
C1268 C1266 1.353 . S
C1268 H1310 0.930 . S
C1269 N1265 1.279 1_455 S
C1269 C1267 1.358 . S
C1269 H1311 0.930 . S
C1270 C1271 1.348 . S
C1270 C1272 1.356 . S
C1270 O1295 1.325 . S
C1271 C1270 1.348 . S
C1271 C1273 1.353 . S
C1271 H1312 0.929 . S
C1272 C1270 1.356 . S
C1272 C1274 1.358 . S
C1272 H1313 0.930 . S
C1273 C1271 1.353 . S
C1273 N1275 1.314 . S
C1273 H1314 0.930 . S
C1274 C1272 1.358 . S
C1274 N1275 1.279 . S
C1274 H1315 0.930 . S
N1275 C1273 1.314 . S
N1275 C1274 1.279 . S
C1276 C1278 1.353 . S
C1276 N1279 1.314 . S
C1276 H1282 0.930 . S
C1277 N1279 1.279 1_655 S
C1277 C1280 1.358 . S
C1277 H1283 0.930 . S
C1278 C1276 1.353 . S
C1278 C1281 1.348 1_455 S
C1278 H1316 0.929 . S
N1279 Li1234 1.990 . S
N1279 C1276 1.314 . S
N1279 C1277 1.279 1_455 S
C1280 C1277 1.358 . S
C1280 C1281 1.356 . S
C1280 H1317 0.930 . S
C1281 C1278 1.348 1_655 S
C1281 C1280 1.356 . S
H1282 C1276 0.930 . S
H1283 C1277 0.930 . S
C1284 N1285 1.314 . S
C1284 C1286 1.353 . S
C1284 H1290 0.930 . S
N1285 Li1235 1.990 . S
N1285 C1284 1.314 . S
N1285 C1288 1.279 . S
C1286 C1284 1.353 . S
C1286 C1289 1.348 . S
C1286 H1318 0.929 . S
C1287 C1288 1.358 . S
C1287 C1289 1.356 . S
C1287 H1319 0.930 . S
C1288 N1285 1.279 . S
C1288 C1287 1.358 . S
C1288 H1291 0.930 . S
C1289 C1286 1.348 . S
C1289 C1287 1.356 . S
H1290 C1284 0.930 . S
H1291 C1288 0.930 . S
O1292 Li1232 1.956 . S
O1292 Li1233 1.970 . S
O1292 Li1234 1.961 . S
O1292 C1236 1.325 . S
O1293 Li1232 1.970 . S
O1293 Li1233 1.956 . S
O1293 Li1235 1.961 1_455 S
O1293 C1242 1.325 . S
O1294 Li1232 1.961 . S
O1294 Li1234 1.956 . S
O1294 Li1235 1.970 1_455 S
O1294 C1264 1.325 1_455 S
O1295 Li1233 1.961 1_655 S
O1295 Li1234 1.970 1_655 S
O1295 Li1235 1.956 . S
O1295 C1270 1.325 . S
H1296 C1238 0.929 . S
H1297 C1239 0.930 . S
H1298 C1240 0.930 . S
H1299 C1241 0.930 . S
H1300 C1243 0.928 . S
H1301 C1245 0.929 . S
H1302 C1246 0.930 . S
H1303 C1247 0.930 . S
H1304 C1250 0.930 . S
H1305 C1253 0.929 . S
H1306 C1258 0.929 . S
H1307 C1259 0.930 . S
H1308 C1266 0.929 . S
H1309 C1267 0.930 . S
H1310 C1268 0.930 . S
H1311 C1269 0.930 . S
H1312 C1271 0.929 . S
H1313 C1272 0.930 . S
H1314 C1273 0.930 . S
H1315 C1274 0.930 . S
H1316 C1278 0.929 . S
H1317 C1280 0.930 . S
H1318 C1286 0.929 . S
H1319 C1287 0.930 . S
Li1320 N1337 1.990 . S
Li1320 O1380 1.956 . S
Li1320 O1381 1.970 . S
Li1320 O1382 1.961 . S
Li1321 N1345 1.990 . S
Li1321 O1380 1.970 . S
Li1321 O1381 1.956 . S
Li1321 O1383 1.961 1_545 S
Li1322 N1367 1.990 . S
Li1322 O1380 1.961 . S
Li1322 O1382 1.956 . S
Li1322 O1383 1.970 1_545 S
Li1323 N1373 1.990 . S
Li1323 O1381 1.961 1_565 S
Li1323 O1382 1.970 1_565 S
Li1323 O1383 1.956 . S
C1324 C1326 1.348 . S
C1324 C1327 1.356 . S
C1324 O1380 1.325 . S
N1325 C1328 1.314 . S
N1325 C1329 1.279 . S
C1326 C1324 1.348 . S
C1326 C1328 1.353 . S
C1326 H1384 0.929 . S
C1327 C1324 1.356 . S
C1327 C1329 1.358 . S
C1327 H1385 0.930 . S
C1328 N1325 1.314 . S
C1328 C1326 1.353 . S
C1328 H1386 0.930 . S
C1329 N1325 1.279 . S
C1329 C1327 1.358 . S
C1329 H1387 0.930 . S
C1330 C1333 1.348 . S
C1330 C1334 1.356 1_545 S
C1330 O1381 1.325 . S
C1331 N1332 1.282 1_565 S
C1331 C1334 1.358 . S
C1331 H1388 0.928 . S
N1332 C1331 1.282 1_545 S
N1332 C1335 1.314 . S
C1333 C1330 1.348 . S
C1333 C1335 1.353 . S
C1333 H1389 0.929 . S
C1334 C1330 1.356 1_565 S
C1334 C1331 1.358 . S
C1334 H1390 0.930 . S
C1335 N1332 1.314 . S
C1335 C1333 1.353 . S
C1335 H1391 0.930 . S
C1336 N1337 1.314 . S
C1336 C1341 1.353 . S
C1336 H1342 0.930 . S
N1337 Li1320 1.990 . S
N1337 C1336 1.314 . S
N1337 C1339 1.279 . S
C1338 C1339 1.358 . S
C1338 C1340 1.356 . S
C1338 H1392 0.930 . S
C1339 N1337 1.279 . S
C1339 C1338 1.358 . S
C1339 H1343 0.930 . S
C1340 C1338 1.356 . S
C1340 C1341 1.348 . S
C1341 C1336 1.353 . S
C1341 C1340 1.348 . S
C1341 H1393 0.929 . S
H1342 C1336 0.930 . S
H1343 C1339 0.930 . S
C1344 N1345 1.314 . S
C1344 C1346 1.353 . S
C1344 H1350 0.930 . S
N1345 Li1321 1.990 . S
N1345 C1344 1.314 . S
N1345 C1348 1.279 . S
C1346 C1344 1.353 . S
C1346 C1349 1.348 . S
C1346 H1394 0.929 . S
C1347 C1348 1.358 . S
C1347 C1349 1.356 . S
C1347 H1395 0.930 . S
C1348 N1345 1.279 . S
C1348 C1347 1.358 . S
C1348 H1351 0.930 . S
C1349 C1346 1.348 . S
C1349 C1347 1.356 . S
H1350 C1344 0.930 . S
H1351 C1348 0.930 . S
C1352 C1354 1.348 . S
C1352 C1355 1.356 1_565 S
C1352 O1382 1.325 1_565 S
N1353 C1356 1.314 . S
N1353 C1357 1.279 1_565 S
C1354 C1352 1.348 . S
C1354 C1356 1.353 . S
C1354 H1396 0.929 . S
C1355 C1352 1.356 1_545 S
C1355 C1357 1.358 . S
C1355 H1397 0.930 . S
C1356 N1353 1.314 . S
C1356 C1354 1.353 . S
C1356 H1398 0.930 . S
C1357 N1353 1.279 1_545 S
C1357 C1355 1.358 . S
C1357 H1399 0.930 . S
C1358 C1359 1.348 . S
C1358 C1360 1.356 . S
C1358 O1383 1.325 . S
C1359 C1358 1.348 . S
C1359 C1361 1.353 . S
C1359 H1400 0.929 . S
C1360 C1358 1.356 . S
C1360 C1362 1.358 . S
C1360 H1401 0.930 . S
C1361 C1359 1.353 . S
C1361 N1363 1.314 . S
C1361 H1402 0.930 . S
C1362 C1360 1.358 . S
C1362 N1363 1.279 . S
C1362 H1403 0.930 . S
N1363 C1361 1.314 . S
N1363 C1362 1.279 . S
C1364 C1366 1.353 . S
C1364 N1367 1.314 . S
C1364 H1370 0.930 . S
C1365 N1367 1.279 1_565 S
C1365 C1368 1.358 . S
C1365 H1371 0.930 . S
C1366 C1364 1.353 . S
C1366 C1369 1.348 1_545 S
C1366 H1404 0.929 . S
N1367 Li1322 1.990 . S
N1367 C1364 1.314 . S
N1367 C1365 1.279 1_545 S
C1368 C1365 1.358 . S
C1368 C1369 1.356 . S
C1368 H1405 0.930 . S
C1369 C1366 1.348 1_565 S
C1369 C1368 1.356 . S
H1370 C1364 0.930 . S
H1371 C1365 0.930 . S
C1372 N1373 1.314 . S
C1372 C1374 1.353 . S
C1372 H1378 0.930 . S
N1373 Li1323 1.990 . S
N1373 C1372 1.314 . S
N1373 C1376 1.279 . S
C1374 C1372 1.353 . S
C1374 C1377 1.348 . S
C1374 H1406 0.929 . S
C1375 C1376 1.358 . S
C1375 C1377 1.356 . S
C1375 H1407 0.930 . S
C1376 N1373 1.279 . S
C1376 C1375 1.358 . S
C1376 H1379 0.930 . S
C1377 C1374 1.348 . S
C1377 C1375 1.356 . S
H1378 C1372 0.930 . S
H1379 C1376 0.930 . S
O1380 Li1320 1.956 . S
O1380 Li1321 1.970 . S
O1380 Li1322 1.961 . S
O1380 C1324 1.325 . S
O1381 Li1320 1.970 . S
O1381 Li1321 1.956 . S
O1381 Li1323 1.961 1_545 S
O1381 C1330 1.325 . S
O1382 Li1320 1.961 . S
O1382 Li1322 1.956 . S
O1382 Li1323 1.970 1_545 S
O1382 C1352 1.325 1_545 S
O1383 Li1321 1.961 1_565 S
O1383 Li1322 1.970 1_565 S
O1383 Li1323 1.956 . S
O1383 C1358 1.325 . S
H1384 C1326 0.929 . S
H1385 C1327 0.930 . S
H1386 C1328 0.930 . S
H1387 C1329 0.930 . S
H1388 C1331 0.928 . S
H1389 C1333 0.929 . S
H1390 C1334 0.930 . S
H1391 C1335 0.930 . S
H1392 C1338 0.930 . S
H1393 C1341 0.929 . S
H1394 C1346 0.929 . S
H1395 C1347 0.930 . S
H1396 C1354 0.929 . S
H1397 C1355 0.930 . S
H1398 C1356 0.930 . S
H1399 C1357 0.930 . S
H1400 C1359 0.929 . S
H1401 C1360 0.930 . S
H1402 C1361 0.930 . S
H1403 C1362 0.930 . S
H1404 C1366 0.929 . S
H1405 C1368 0.930 . S
H1406 C1374 0.929 . S
H1407 C1375 0.930 . S
C57 C665 1.366 . S
C117 C372 1.367 . S
C205 C469 1.366 . S
C293 C577 1.367 . S
C733 C1377 1.368 . S
C1105 C812 1.368 . S
C909 C1193 1.368 . S
C997 C1289 1.368 . S
C29 C849 2.364 . S
C145 C929 2.364 . S
C1017 C233 2.364 . S
C321 C753 2.364 . S
C401 C1340 2.364 . S
C1085 C497 2.364 . S
C1173 C548 2.364 . S
C1252 C636 2.364 . S
C108 C761 2.350 . S
C196 C841 2.350 . S
C937 C284 2.350 . S
C49 C1025 2.351 . S
C1076 C673 2.350 . S
C1164 C381 2.350 . S
C460 C1261 2.351 . S
C585 C1349 2.350 . S
C20 C409 1.798 1_554 S
C489 C137 1.798 . S
C225 C557 1.798 1_554 S
C645 C313 1.798 . S
C724 C1113 1.803 1_556 S
C1201 C821 1.803 . S
C1281 C900 1.802 1_554 S
C1369 C988 1.802 . S
