# Generated by pormake.
# Topology uot, (4)-cn, num edge types: 1
# Building blocks:
#     Node 0, Type 0, BuildingBlock: ICAMEG_clean_sbu_1, # of connection points: 4
#     Node 1, Type 0, BuildingBlock: ICAMEG_clean_sbu_1, # of connection points: 4
#     Node 2, Type 0, BuildingBlock: ICAMEG_clean_sbu_1, # of connection points: 4
#     Node 3, Type 0, BuildingBlock: ICAMEG_clean_sbu_1, # of connection points: 4
#     Node 4, Type 0, BuildingBlock: ICAMEG_clean_sbu_1, # of connection points: 4
#     Node 5, Type 0, BuildingBlock: ICAMEG_clean_sbu_1, # of connection points: 4
#     Node 6, Type 0, BuildingBlock: ICAMEG_clean_sbu_1, # of connection points: 4
#     Node 7, Type 0, BuildingBlock: ICAMEG_clean_sbu_1, # of connection points: 4
#     Node 8, Type 0, BuildingBlock: ICAMEG_clean_sbu_1, # of connection points: 4
#     Node 9, Type 0, BuildingBlock: ICAMEG_clean_sbu_1, # of connection points: 4
#     Node 10, Type 0, BuildingBlock: ICAMEG_clean_sbu_1, # of connection points: 4
#     Node 11, Type 0, BuildingBlock: ICAMEG_clean_sbu_1, # of connection points: 4
#     Node 12, Type 0, BuildingBlock: ICAMEG_clean_sbu_1, # of connection points: 4
#     Node 13, Type 0, BuildingBlock: ICAMEG_clean_sbu_1, # of connection points: 4
#     Node 14, Type 0, BuildingBlock: ICAMEG_clean_sbu_1, # of connection points: 4
#     Node 15, Type 0, BuildingBlock: ICAMEG_clean_sbu_1, # of connection points: 4
#     Edge 16, Type (0, 0), BuildingBlock: MIFKUJ_clean_linker_0, # of connection points: 2
#     Edge 17, Type (0, 0), BuildingBlock: MIFKUJ_clean_linker_0, # of connection points: 2
#     Edge 18, Type (0, 0), BuildingBlock: MIFKUJ_clean_linker_0, # of connection points: 2
#     Edge 19, Type (0, 0), BuildingBlock: MIFKUJ_clean_linker_0, # of connection points: 2
#     Edge 20, Type (0, 0), BuildingBlock: MIFKUJ_clean_linker_0, # of connection points: 2
#     Edge 21, Type (0, 0), BuildingBlock: MIFKUJ_clean_linker_0, # of connection points: 2
#     Edge 22, Type (0, 0), BuildingBlock: MIFKUJ_clean_linker_0, # of connection points: 2
#     Edge 23, Type (0, 0), BuildingBlock: MIFKUJ_clean_linker_0, # of connection points: 2
#     Edge 24, Type (0, 0), BuildingBlock: MIFKUJ_clean_linker_0, # of connection points: 2
#     Edge 25, Type (0, 0), BuildingBlock: MIFKUJ_clean_linker_0, # of connection points: 2
#     Edge 26, Type (0, 0), BuildingBlock: MIFKUJ_clean_linker_0, # of connection points: 2
#     Edge 27, Type (0, 0), BuildingBlock: MIFKUJ_clean_linker_0, # of connection points: 2
#     Edge 28, Type (0, 0), BuildingBlock: MIFKUJ_clean_linker_0, # of connection points: 2
#     Edge 29, Type (0, 0), BuildingBlock: MIFKUJ_clean_linker_0, # of connection points: 2
#     Edge 30, Type (0, 0), BuildingBlock: MIFKUJ_clean_linker_0, # of connection points: 2
#     Edge 31, Type (0, 0), BuildingBlock: MIFKUJ_clean_linker_0, # of connection points: 2
#     Edge 32, Type (0, 0), BuildingBlock: MIFKUJ_clean_linker_0, # of connection points: 2
#     Edge 33, Type (0, 0), BuildingBlock: MIFKUJ_clean_linker_0, # of connection points: 2
#     Edge 34, Type (0, 0), BuildingBlock: MIFKUJ_clean_linker_0, # of connection points: 2
#     Edge 35, Type (0, 0), BuildingBlock: MIFKUJ_clean_linker_0, # of connection points: 2
#     Edge 36, Type (0, 0), BuildingBlock: MIFKUJ_clean_linker_0, # of connection points: 2
#     Edge 37, Type (0, 0), BuildingBlock: MIFKUJ_clean_linker_0, # of connection points: 2
#     Edge 38, Type (0, 0), BuildingBlock: MIFKUJ_clean_linker_0, # of connection points: 2
#     Edge 39, Type (0, 0), BuildingBlock: MIFKUJ_clean_linker_0, # of connection points: 2
#     Edge 40, Type (0, 0), BuildingBlock: MIFKUJ_clean_linker_0, # of connection points: 2
#     Edge 41, Type (0, 0), BuildingBlock: MIFKUJ_clean_linker_0, # of connection points: 2
#     Edge 42, Type (0, 0), BuildingBlock: MIFKUJ_clean_linker_0, # of connection points: 2
#     Edge 43, Type (0, 0), BuildingBlock: MIFKUJ_clean_linker_0, # of connection points: 2
#     Edge 44, Type (0, 0), BuildingBlock: MIFKUJ_clean_linker_0, # of connection points: 2
#     Edge 45, Type (0, 0), BuildingBlock: MIFKUJ_clean_linker_0, # of connection points: 2
#     Edge 46, Type (0, 0), BuildingBlock: MIFKUJ_clean_linker_0, # of connection points: 2
#     Edge 47, Type (0, 0), BuildingBlock: MIFKUJ_clean_linker_0, # of connection points: 2
# Relax obj value: 0.030
# Max RMSD: 0.051
# Mean RMSD: 0.051
data_MOF--net-uot--node1-ICAMEG_clean_sbu_1--edge1-MIFKUJ_clean_linker_0
_symmetry_space_group_name_H-M    P1
_symmetry_Int_Tables_number       1
_symmetry_cell_setting            triclinic
loop_
_symmetry_equiv_pos_as_xyz
'x, y, z'
_cell_length_a     59.994208
_cell_length_b     59.969013
_cell_length_c     59.149565
_cell_angle_alpha  90.006443
_cell_angle_beta   90.004371
_cell_angle_gamma 89.987908
loop_
_atom_site_label
_atom_site_type_symbol
_atom_site_fract_x
_atom_site_fract_y
_atom_site_fract_z
_atom_type_partial_charge
Co0 Co 0.16196 0.43408 0.35865 0.0
Co1 Co 0.2024 0.42919 0.31755 0.0
O2 O 0.19203 0.4261 0.34874 0.0
C3 C 0.19046 0.45941 0.39068 0.0
O4 O 0.20183 0.46682 0.37326 0.0
C5 C 0.21327 0.38193 0.32852 0.0
O6 O 0.19303 0.37963 0.33664 0.0
O7 O 0.17589 0.41259 0.30587 0.0
O8 O 0.14875 0.42246 0.33002 0.0
H9 H 0.19379 0.44617 0.23485 0.0
H10 H 0.19074 0.40687 0.38861 0.0
O11 O 0.17428 0.44599 0.38771 0.0
H12 H 0.1247 0.36028 0.37343 0.0
H13 H 0.10016 0.44075 0.41585 0.0
H14 H 0.12259 0.45507 0.33698 0.0
H15 H 0.12768 0.39805 0.35722 0.0
H16 H 0.13772 0.43041 0.40252 0.0
O17 O 0.21945 0.40054 0.32025 0.0
H18 H 0.18129 0.44288 0.27442 0.0
H19 H 0.24583 0.42123 0.29423 0.0
H20 H 0.08481 0.46552 0.34954 0.0
H21 H 0.18835 0.36926 0.40533 0.0
H22 H 0.07338 0.45836 0.38925 0.0
H23 H 0.15517 0.34567 0.39771 0.0
O24 O 0.16444 0.46419 0.3446 0.0
H25 H 0.26682 0.44221 0.37019 0.0
H26 H 0.22548 0.47138 0.30452 0.0
H27 H 0.25747 0.49257 0.31948 0.0
H28 H 0.27841 0.47796 0.35255 0.0
H29 H 0.23457 0.4217 0.3548 0.0
H30 H 0.25898 0.4242 0.25484 0.0
H31 H 0.23289 0.43684 0.22484 0.0
O32 O 0.18602 0.45808 0.31414 0.0
C33 C 0.15541 0.41353 0.31165 0.0
C34 C 0.20534 0.44075 0.24778 0.0
C35 C 0.24191 0.42837 0.25899 0.0
N36 N 0.21285 0.432 0.28664 0.0
C37 C 0.19837 0.43889 0.27023 0.0
C38 C 0.23436 0.42666 0.28126 0.0
C39 C 0.22727 0.43547 0.24217 0.0
C40 C 0.17616 0.39678 0.3854 0.0
N41 N 0.15933 0.40469 0.37206 0.0
C42 C 0.17493 0.37547 0.39483 0.0
C43 C 0.15633 0.36222 0.39052 0.0
C44 C 0.13923 0.3704 0.37689 0.0
C45 C 0.14104 0.39179 0.36771 0.0
C46 C 0.10493 0.44392 0.3985 0.0
C47 C 0.11769 0.45178 0.35424 0.0
C48 C 0.12619 0.43814 0.39086 0.0
N49 N 0.13228 0.44199 0.36894 0.0
C50 C 0.0963 0.45779 0.36128 0.0
C51 C 0.08991 0.45379 0.38356 0.0
C52 C 0.17312 0.47041 0.32593 0.0
C53 C 0.25784 0.44874 0.35577 0.0
C54 C 0.23439 0.46503 0.319 0.0
C55 C 0.25256 0.47703 0.32735 0.0
C56 C 0.26431 0.46881 0.34588 0.0
N57 N 0.22811 0.44537 0.32881 0.0
C58 C 0.2396 0.43718 0.34694 0.0
Co59 Co 0.43154 0.84436 0.65041 0.0
Co60 Co 0.43065 0.80044 0.68849 0.0
O61 O 0.42638 0.81309 0.65828 0.0
C62 C 0.4603 0.81921 0.61831 0.0
O63 O 0.46537 0.80545 0.63478 0.0
C64 C 0.38339 0.78979 0.67784 0.0
O65 O 0.38086 0.8105 0.67111 0.0
O66 O 0.41412 0.82559 0.70308 0.0
O67 O 0.41631 0.85426 0.67866 0.0
H68 H 0.45113 0.80234 0.77083 0.0
H69 H 0.40982 0.81383 0.61779 0.0
O70 O 0.44693 0.83536 0.62174 0.0
H71 H 0.35544 0.87414 0.63083 0.0
H72 H 0.43535 0.90993 0.59735 0.0
H73 H 0.44569 0.88447 0.67593 0.0
H74 H 0.39214 0.87476 0.64962 0.0
H75 H 0.42851 0.87067 0.60768 0.0
O76 O 0.40217 0.78321 0.68538 0.0
H77 H 0.44583 0.81811 0.7327 0.0
H78 H 0.42416 0.75514 0.70827 0.0
H79 H 0.45251 0.92392 0.66638 0.0
H80 H 0.37341 0.81263 0.59846 0.0
H81 H 0.44735 0.93687 0.62684 0.0
H82 H 0.34589 0.8429 0.60501 0.0
O83 O 0.46089 0.84454 0.66634 0.0
H84 H 0.44239 0.73989 0.63097 0.0
H85 H 0.47414 0.77793 0.69748 0.0
H86 H 0.49524 0.74754 0.6793 0.0
H87 H 0.47934 0.72826 0.64581 0.0
H88 H 0.42199 0.77055 0.64952 0.0
H89 H 0.42906 0.73872 0.74618 0.0
H90 H 0.44271 0.76236 0.77776 0.0
O91 O 0.45919 0.81711 0.69217 0.0
C92 C 0.41039 0.84583 0.69752 0.0
C93 C 0.44522 0.79185 0.7572 0.0
C94 C 0.4328 0.75615 0.74337 0.0
N95 N 0.43479 0.78754 0.71826 0.0
C96 C 0.44223 0.80068 0.73556 0.0
C97 C 0.42999 0.76556 0.72196 0.0
C98 C 0.44047 0.76942 0.76108 0.0
C99 C 0.39799 0.82714 0.6206 0.0
N100 N 0.40307 0.84434 0.63485 0.0
C101 C 0.37737 0.82634 0.60966 0.0
C102 C 0.36193 0.84331 0.61337 0.0
C103 C 0.36727 0.86083 0.62787 0.0
C104 C 0.38803 0.86106 0.63855 0.0
C105 C 0.43762 0.9045 0.61464 0.0
C106 C 0.44326 0.89002 0.65871 0.0
C107 C 0.43382 0.88228 0.62058 0.0
N108 N 0.43655 0.87533 0.64242 0.0
C109 C 0.44722 0.91236 0.6534 0.0
C110 C 0.44434 0.91961 0.6312 0.0
C111 C 0.46917 0.83339 0.68269 0.0
C112 C 0.44948 0.74813 0.64558 0.0
C113 C 0.46718 0.76972 0.68285 0.0
C114 C 0.47916 0.75246 0.67267 0.0
C115 C 0.47022 0.74164 0.65389 0.0
N116 N 0.44685 0.77601 0.6746 0.0
C117 C 0.43796 0.76545 0.65621 0.0
Co118 Co 0.84261 0.57006 0.35742 0.0
Co119 Co 0.80052 0.57252 0.31767 0.0
O120 O 0.81161 0.57524 0.34868 0.0
C121 C 0.81673 0.5414 0.38906 0.0
O122 O 0.8037 0.53569 0.3722 0.0
C123 C 0.78695 0.61817 0.33096 0.0
O124 O 0.80748 0.6212 0.33799 0.0
O125 O 0.82494 0.59174 0.30578 0.0
O126 O 0.85354 0.5851 0.32936 0.0
H127 H 0.80707 0.55979 0.23396 0.0
H128 H 0.81142 0.59216 0.38911 0.0
O129 O 0.83275 0.55498 0.38593 0.0
H130 H 0.8723 0.64615 0.37734 0.0
H131 H 0.90668 0.56624 0.41233 0.0
H132 H 0.88324 0.55528 0.33318 0.0
H133 H 0.8732 0.60933 0.3588 0.0
H134 H 0.86779 0.5733 0.40084 0.0
O135 O 0.78127 0.59953 0.32234 0.0
H136 H 0.82098 0.56288 0.27307 0.0
H137 H 0.75565 0.57727 0.29655 0.0
H138 H 0.92235 0.54823 0.34389 0.0
H139 H 0.80992 0.6287 0.4082 0.0
H140 H 0.93428 0.5537 0.38372 0.0
H141 H 0.84048 0.65603 0.40228 0.0
O142 O 0.84285 0.54068 0.3416 0.0
H143 H 0.73835 0.55192 0.37063 0.0
H144 H 0.78227 0.52814 0.3044 0.0
H145 H 0.75285 0.50345 0.31926 0.0
H146 H 0.73062 0.51532 0.35259 0.0
H147 H 0.76811 0.57598 0.35538 0.0
H148 H 0.74104 0.57452 0.25765 0.0
H149 H 0.76682 0.56564 0.22605 0.0
O150 O 0.8195 0.54559 0.31228 0.0
C151 C 0.8454 0.59352 0.31135 0.0
C152 C 0.79565 0.56359 0.24759 0.0
C153 C 0.7586 0.57189 0.26089 0.0
N154 N 0.78911 0.57004 0.28709 0.0
C155 C 0.80342 0.56528 0.26979 0.0
C156 C 0.76697 0.57346 0.28287 0.0
C157 C 0.77308 0.56689 0.24317 0.0
C158 C 0.82486 0.60389 0.3866 0.0
N159 N 0.84237 0.59863 0.37282 0.0
C160 C 0.82389 0.62459 0.39739 0.0
C161 C 0.84102 0.63992 0.39404 0.0
C162 C 0.85886 0.6344 0.38003 0.0
C163 C 0.85925 0.61356 0.36949 0.0
C164 C 0.90169 0.56383 0.39491 0.0
C165 C 0.88834 0.55783 0.35052 0.0
C166 C 0.87968 0.56775 0.38832 0.0
N167 N 0.87329 0.56484 0.36633 0.0
C168 C 0.9105 0.55376 0.3565 0.0
C169 C 0.91717 0.55681 0.37885 0.0
C170 C 0.83419 0.53434 0.32296 0.0
C171 C 0.74787 0.5466 0.35606 0.0
C172 C 0.77273 0.53339 0.31896 0.0
C173 C 0.75605 0.51937 0.32726 0.0
C174 C 0.74357 0.52605 0.34595 0.0
N175 N 0.77684 0.55353 0.32897 0.0
C176 C 0.76467 0.5602 0.34728 0.0
Co177 Co 0.56543 0.1704 0.65221 0.0
Co178 Co 0.57152 0.21167 0.6917 0.0
O179 O 0.57418 0.20058 0.66079 0.0
C180 C 0.54082 0.19694 0.61773 0.0
O181 O 0.53098 0.20795 0.63412 0.0
C182 C 0.61832 0.2225 0.67972 0.0
O183 O 0.62058 0.2018 0.67288 0.0
O184 O 0.58898 0.18585 0.70338 0.0
O185 O 0.57564 0.15801 0.6819 0.0
H186 H 0.55695 0.20516 0.77509 0.0
H187 H 0.59483 0.19648 0.62185 0.0
O188 O 0.55512 0.18186 0.62219 0.0
H189 H 0.63783 0.12915 0.64158 0.0
H190 H 0.55737 0.10639 0.59773 0.0
H191 H 0.54216 0.13298 0.67511 0.0
H192 H 0.59978 0.13457 0.65641 0.0
H193 H 0.56906 0.14402 0.60962 0.0
O194 O 0.59974 0.22917 0.68768 0.0
H195 H 0.5598 0.19146 0.73588 0.0
H196 H 0.57889 0.25595 0.71341 0.0
H197 H 0.53042 0.09512 0.66399 0.0
H198 H 0.63274 0.19159 0.60649 0.0
H199 H 0.53799 0.08162 0.62504 0.0
H200 H 0.65452 0.15775 0.61641 0.0
O201 O 0.53522 0.175 0.66516 0.0
H202 H 0.55572 0.27501 0.63849 0.0
H203 H 0.52856 0.23323 0.70479 0.0
H204 H 0.50624 0.26444 0.68981 0.0
H205 H 0.51983 0.2856 0.65645 0.0
H206 H 0.57743 0.24355 0.6539 0.0
H207 H 0.57645 0.27031 0.75242 0.0
H208 H 0.56531 0.24486 0.78356 0.0
O209 O 0.54312 0.1946 0.69648 0.0
C210 C 0.58624 0.16519 0.69913 0.0
C211 C 0.56175 0.21643 0.76166 0.0
C212 C 0.57272 0.25299 0.74894 0.0
N213 N 0.56931 0.22293 0.72236 0.0
C214 C 0.56332 0.20878 0.73941 0.0
C215 C 0.57412 0.24475 0.72689 0.0
C216 C 0.56646 0.2387 0.7664 0.0
C217 C 0.60413 0.1816 0.62606 0.0
N218 N 0.59506 0.1658 0.63992 0.0
C219 C 0.62562 0.17897 0.61739 0.0
C220 C 0.63784 0.16 0.62299 0.0
C221 C 0.62848 0.14394 0.63713 0.0
C222 C 0.60696 0.14714 0.64552 0.0
C223 C 0.55402 0.11207 0.61477 0.0
C224 C 0.5457 0.12716 0.65819 0.0
C225 C 0.56057 0.13337 0.62159 0.0
N226 N 0.5565 0.14062 0.64312 0.0
C227 C 0.53893 0.10573 0.65197 0.0
C228 C 0.54316 0.09817 0.6301 0.0
C229 C 0.52987 0.18287 0.68444 0.0
C230 C 0.54966 0.26595 0.65307 0.0
C231 C 0.53456 0.24231 0.69023 0.0
C232 C 0.52186 0.26 0.68185 0.0
C233 C 0.5295 0.27187 0.66314 0.0
N234 N 0.55434 0.23665 0.6803 0.0
C235 C 0.56191 0.24818 0.66192 0.0
Co236 Co 0.16279 0.56485 0.65051 0.0
Co237 Co 0.20413 0.57229 0.68972 0.0
O238 O 0.19294 0.57413 0.65872 0.0
C239 C 0.19086 0.54092 0.61709 0.0
O240 O 0.20343 0.53428 0.63397 0.0
C241 C 0.21521 0.61882 0.6765 0.0
O242 O 0.19446 0.62124 0.66986 0.0
O243 O 0.17836 0.5901 0.7009 0.0
O244 O 0.15052 0.57616 0.67987 0.0
H245 H 0.19782 0.56036 0.77356 0.0
H246 H 0.18856 0.59348 0.61917 0.0
O247 O 0.17408 0.55343 0.6208 0.0
H248 H 0.12069 0.63633 0.63722 0.0
H249 H 0.0982 0.55448 0.59714 0.0
H250 H 0.126 0.54187 0.67455 0.0
H251 H 0.12662 0.59896 0.65351 0.0
H252 H 0.13583 0.56701 0.60816 0.0
O253 O 0.22171 0.60032 0.68479 0.0
H254 H 0.18402 0.56201 0.73431 0.0
H255 H 0.24848 0.58019 0.71106 0.0
H256 H 0.08822 0.52921 0.66429 0.0
H257 H 0.18324 0.63078 0.60241 0.0
H258 H 0.0741 0.53549 0.62534 0.0
H259 H 0.14912 0.65249 0.61148 0.0
O260 O 0.16777 0.53508 0.66432 0.0
H261 H 0.26746 0.55495 0.63699 0.0
H262 H 0.22559 0.52962 0.70398 0.0
H263 H 0.25671 0.50681 0.68958 0.0
H264 H 0.27791 0.51946 0.65588 0.0
H265 H 0.23608 0.57715 0.65182 0.0
H266 H 0.26294 0.57893 0.75009 0.0
H267 H 0.23755 0.56886 0.78164 0.0
O268 O 0.18708 0.54403 0.6955 0.0
C269 C 0.15768 0.5874 0.69671 0.0
C270 C 0.20906 0.56469 0.75994 0.0
C271 C 0.24561 0.57514 0.74677 0.0
N272 N 0.21547 0.57099 0.7204 0.0
C273 C 0.20136 0.56559 0.73768 0.0
C274 C 0.23731 0.57587 0.72472 0.0
C275 C 0.23135 0.56949 0.76447 0.0
C276 C 0.17359 0.60276 0.62304 0.0
N277 N 0.15788 0.59401 0.63721 0.0
C278 C 0.17071 0.62391 0.61357 0.0
C279 C 0.15157 0.63609 0.61869 0.0
C280 C 0.13563 0.62705 0.63317 0.0
C281 C 0.1391 0.60588 0.64237 0.0
C282 C 0.10415 0.55169 0.61418 0.0
C283 C 0.11992 0.5448 0.6576 0.0
C284 C 0.12545 0.55872 0.62051 0.0
N285 N 0.13303 0.55536 0.64203 0.0
C286 C 0.09854 0.53753 0.65188 0.0
C287 C 0.09063 0.54104 0.63001 0.0
C288 C 0.17558 0.53033 0.68377 0.0
C289 C 0.25839 0.54929 0.65173 0.0
C290 C 0.23468 0.53521 0.68925 0.0
C291 C 0.25232 0.52224 0.68122 0.0
C292 C 0.26422 0.52937 0.66231 0.0
N293 N 0.22908 0.55475 0.67879 0.0
C294 C 0.24067 0.56184 0.66026 0.0
Co295 Co 0.56939 0.84647 0.35775 0.0
Co296 Co 0.57405 0.80469 0.31825 0.0
O297 O 0.57627 0.81562 0.3494 0.0
C298 C 0.54365 0.81967 0.39124 0.0
O299 O 0.5383 0.80562 0.37512 0.0
C300 C 0.61963 0.7907 0.33179 0.0
O301 O 0.62302 0.81115 0.33894 0.0
O302 O 0.59346 0.82927 0.30709 0.0
O303 O 0.58248 0.85785 0.32884 0.0
H304 H 0.56284 0.81208 0.23439 0.0
H305 H 0.59459 0.81795 0.38961 0.0
O306 O 0.5561 0.83636 0.38707 0.0
H307 H 0.6441 0.88159 0.37337 0.0
H308 H 0.56364 0.91149 0.41134 0.0
H309 H 0.55079 0.88543 0.33334 0.0
H310 H 0.60676 0.87936 0.35609 0.0
H311 H 0.57276 0.87286 0.40041 0.0
O312 O 0.60091 0.78535 0.32318 0.0
H313 H 0.56538 0.82562 0.27367 0.0
H314 H 0.57909 0.75997 0.29675 0.0
H315 H 0.54164 0.92426 0.34348 0.0
H316 H 0.63172 0.81961 0.40746 0.0
H317 H 0.54805 0.93751 0.38274 0.0
H318 H 0.65678 0.85158 0.39931 0.0
O319 O 0.53956 0.84424 0.34318 0.0
H320 H 0.55276 0.74163 0.36987 0.0
H321 H 0.52997 0.78646 0.3039 0.0
H322 H 0.50521 0.75666 0.31779 0.0
H323 H 0.51659 0.73395 0.35097 0.0
H324 H 0.57689 0.77182 0.35562 0.0
H325 H 0.57688 0.74574 0.25768 0.0
H326 H 0.5686 0.77186 0.22619 0.0
O327 O 0.54712 0.8236 0.31244 0.0
C328 C 0.5927 0.85004 0.31166 0.0
C329 C 0.56637 0.80052 0.24797 0.0
C330 C 0.57429 0.76329 0.26104 0.0
N331 N 0.57216 0.79357 0.28751 0.0
C332 C 0.56776 0.80808 0.27026 0.0
C333 C 0.57556 0.77145 0.28312 0.0
C334 C 0.56963 0.77796 0.24338 0.0
C335 C 0.60533 0.832 0.38615 0.0
N336 N 0.59848 0.84857 0.3719 0.0
C337 C 0.62636 0.83281 0.39623 0.0
C338 C 0.64043 0.85074 0.39163 0.0
C339 C 0.63333 0.86757 0.37706 0.0
C340 C 0.61219 0.86619 0.36727 0.0
C341 C 0.56081 0.90592 0.39417 0.0
C342 C 0.55375 0.89111 0.35042 0.0
C343 C 0.56589 0.88405 0.38789 0.0
N344 N 0.56245 0.87694 0.36621 0.0
C345 C 0.54848 0.9131 0.35608 0.0
C346 C 0.55206 0.92052 0.37811 0.0
C347 C 0.53441 0.8365 0.32379 0.0
C348 C 0.54765 0.75137 0.35537 0.0
C349 C 0.53499 0.77676 0.31844 0.0
C350 C 0.52093 0.75984 0.32617 0.0
C351 C 0.52734 0.7471 0.34477 0.0
N352 N 0.55489 0.78085 0.32892 0.0
C353 C 0.56129 0.76842 0.34716 0.0
Co354 Co 0.84552 0.43947 0.65186 0.0
Co355 Co 0.80344 0.43551 0.69127 0.0
O356 O 0.81483 0.43225 0.66039 0.0
C357 C 0.81812 0.46379 0.6178 0.0
O358 O 0.80413 0.46937 0.63389 0.0
C359 C 0.79128 0.38891 0.67934 0.0
O360 O 0.81185 0.38596 0.67236 0.0
O361 O 0.82865 0.41767 0.70369 0.0
O362 O 0.85713 0.42715 0.68103 0.0
H363 H 0.80926 0.45082 0.77459 0.0
H364 H 0.81711 0.41286 0.6211 0.0
O365 O 0.83512 0.45185 0.62223 0.0
H366 H 0.88204 0.36512 0.63757 0.0
H367 H 0.91036 0.44569 0.59811 0.0
H368 H 0.88395 0.45959 0.67579 0.0
H369 H 0.87939 0.40296 0.65364 0.0
H370 H 0.87206 0.43557 0.60931 0.0
O371 O 0.78531 0.40768 0.68742 0.0
H372 H 0.82336 0.44727 0.73559 0.0
H373 H 0.75872 0.42953 0.71247 0.0
H374 H 0.92237 0.46992 0.66533 0.0
H375 H 0.81917 0.3752 0.60443 0.0
H376 H 0.93581 0.46295 0.62624 0.0
H377 H 0.85178 0.35102 0.61272 0.0
O378 O 0.84278 0.46963 0.66566 0.0
H379 H 0.74052 0.45164 0.63762 0.0
H380 H 0.78301 0.47934 0.70323 0.0
H381 H 0.75242 0.50211 0.68767 0.0
H382 H 0.7309 0.48826 0.65465 0.0
H383 H 0.77142 0.42952 0.65355 0.0
H384 H 0.74395 0.43273 0.75125 0.0
H385 H 0.76928 0.44353 0.78262 0.0
O386 O 0.82106 0.46349 0.69593 0.0
C387 C 0.84937 0.41796 0.69883 0.0
C388 C 0.79804 0.44618 0.76105 0.0
C389 C 0.76139 0.436 0.74796 0.0
N390 N 0.79184 0.43838 0.72175 0.0
C391 C 0.80591 0.44421 0.73893 0.0
C392 C 0.76986 0.43417 0.72604 0.0
C393 C 0.77561 0.44206 0.76555 0.0
C394 C 0.83143 0.4025 0.62463 0.0
N395 N 0.8481 0.41009 0.63836 0.0
C396 C 0.83248 0.38117 0.61521 0.0
C397 C 0.85076 0.36759 0.61989 0.0
C398 C 0.86773 0.37548 0.63385 0.0
C399 C 0.8661 0.3969 0.64299 0.0
C400 C 0.90471 0.44876 0.61521 0.0
C401 C 0.88972 0.45638 0.65878 0.0
C402 C 0.88304 0.44309 0.62164 0.0
N403 N 0.87584 0.44683 0.64323 0.0
C404 C 0.91148 0.46232 0.65295 0.0
C405 C 0.91899 0.45843 0.631 0.0
C406 C 0.83415 0.47578 0.68436 0.0
C407 C 0.74973 0.45783 0.65205 0.0
C408 C 0.77381 0.47324 0.68879 0.0
C409 C 0.75645 0.48618 0.6801 0.0
C410 C 0.74437 0.47839 0.66159 0.0
N411 N 0.77896 0.45309 0.67935 0.0
C412 C 0.76718 0.44533 0.66121 0.0
Co413 Co 0.43655 0.16371 0.35347 0.0
Co414 Co 0.43076 0.20218 0.31035 0.0
O415 O 0.42932 0.19347 0.34222 0.0
C416 C 0.47073 0.1731 0.38802 0.0
O417 O 0.48333 0.15901 0.37681 0.0
C418 C 0.3843 0.21345 0.3234 0.0
O419 O 0.3827 0.19345 0.33227 0.0
O420 O 0.41351 0.17532 0.30081 0.0
O421 O 0.42207 0.14935 0.32676 0.0
H422 H 0.4434 0.18987 0.22731 0.0
H423 H 0.41318 0.19577 0.38331 0.0
O424 O 0.45124 0.17771 0.38069 0.0
H425 H 0.36223 0.13164 0.37625 0.0
H426 H 0.44325 0.10411 0.41324 0.0
H427 H 0.45486 0.12259 0.33286 0.0
H428 H 0.39883 0.13135 0.3573 0.0
H429 H 0.43381 0.1415 0.39869 0.0
O430 O 0.40236 0.21954 0.31389 0.0
H431 H 0.44192 0.17905 0.2675 0.0
H432 H 0.42188 0.24459 0.2856 0.0
H433 H 0.46456 0.08502 0.34669 0.0
H434 H 0.37681 0.19668 0.40273 0.0
H435 H 0.45875 0.07558 0.38716 0.0
H436 H 0.35102 0.16447 0.3992 0.0
O437 O 0.46549 0.16412 0.33683 0.0
H438 H 0.44673 0.26978 0.35789 0.0
H439 H 0.47298 0.22329 0.29447 0.0
H440 H 0.49503 0.25602 0.30617 0.0
H441 H 0.48188 0.27956 0.33805 0.0
H442 H 0.42529 0.23678 0.34576 0.0
H443 H 0.42298 0.25609 0.24558 0.0
H444 H 0.43388 0.22865 0.21612 0.0
O445 O 0.45918 0.18528 0.30616 0.0
C446 C 0.41318 0.1553 0.30812 0.0
C447 C 0.43869 0.202 0.23999 0.0
C448 C 0.42719 0.23916 0.25024 0.0
N449 N 0.43197 0.21121 0.27889 0.0
C450 C 0.43788 0.19598 0.26278 0.0
C451 C 0.42655 0.23254 0.27287 0.0
C452 C 0.43332 0.22375 0.23372 0.0
C453 C 0.40215 0.18159 0.38189 0.0
N454 N 0.40818 0.16348 0.36927 0.0
C455 C 0.38154 0.18224 0.39285 0.0
C456 C 0.36706 0.16418 0.39082 0.0
C457 C 0.37333 0.14577 0.37793 0.0
C458 C 0.39405 0.14572 0.36718 0.0
C459 C 0.44582 0.10801 0.39557 0.0
C460 C 0.45223 0.11859 0.35048 0.0
C461 C 0.44048 0.12914 0.38723 0.0
N462 N 0.4437 0.13419 0.36492 0.0
C463 C 0.45777 0.0973 0.35822 0.0
C464 C 0.45452 0.09201 0.38092 0.0
C465 C 0.47141 0.17218 0.31779 0.0
C466 C 0.4526 0.25968 0.34394 0.0
C467 C 0.4672 0.23339 0.30842 0.0
C468 C 0.47973 0.25194 0.31494 0.0
C469 C 0.47234 0.26515 0.33282 0.0
N470 N 0.4478 0.2282 0.31935 0.0
C471 C 0.4405 0.24102 0.33695 0.0
Co472 Co 0.66065 0.94095 0.8514 0.0
Co473 Co 0.70277 0.93529 0.81239 0.0
O474 O 0.69115 0.93252 0.84324 0.0
C475 C 0.68849 0.96366 0.88618 0.0
O476 O 0.70326 0.9684 0.87055 0.0
C477 C 0.71402 0.88842 0.82454 0.0
O478 O 0.69344 0.88583 0.83162 0.0
O479 O 0.67717 0.91785 0.80007 0.0
O480 O 0.649 0.92973 0.8219 0.0
H481 H 0.69754 0.95044 0.72901 0.0
H482 H 0.6869 0.91285 0.88283 0.0
O483 O 0.67105 0.95256 0.88132 0.0
H484 H 0.62074 0.86801 0.86331 0.0
H485 H 0.59533 0.94843 0.90434 0.0
H486 H 0.62331 0.96309 0.82738 0.0
H487 H 0.62567 0.90572 0.8475 0.0
H488 H 0.63346 0.93739 0.8935 0.0
O489 O 0.72029 0.90708 0.81645 0.0
H490 H 0.68328 0.94746 0.768 0.0
H491 H 0.74736 0.92798 0.7913 0.0
H492 H 0.58501 0.97424 0.83744 0.0
H493 H 0.68255 0.87524 0.89916 0.0
H494 H 0.57078 0.9669 0.87617 0.0
H495 H 0.64931 0.85253 0.88935 0.0
O496 O 0.6648 0.97103 0.83799 0.0
H497 H 0.76597 0.95018 0.86606 0.0
H498 H 0.72442 0.97846 0.80009 0.0
H499 H 0.75557 1.00051 0.81553 0.0
H500 H 0.77663 0.98636 0.84872 0.0
H501 H 0.73448 0.92881 0.85027 0.0
H502 H 0.76226 0.93054 0.75253 0.0
H503 H 0.7373 0.94193 0.72108 0.0
O504 O 0.6858 0.96374 0.80748 0.0
C505 C 0.65643 0.9197 0.80445 0.0
C506 C 0.7086 0.94552 0.74258 0.0
C507 C 0.74492 0.93432 0.75578 0.0
N508 N 0.7145 0.93769 0.78193 0.0
C509 C 0.70063 0.94386 0.76471 0.0
C510 C 0.73637 0.93285 0.77769 0.0
C511 C 0.7309 0.94072 0.73814 0.0
C512 C 0.6723 0.90313 0.87865 0.0
N513 N 0.65652 0.91151 0.86433 0.0
C514 C 0.66997 0.88182 0.88787 0.0
C515 C 0.65133 0.86907 0.88233 0.0
C516 C 0.63531 0.87773 0.8677 0.0
C517 C 0.63822 0.89909 0.85876 0.0
C518 C 0.60131 0.95166 0.88739 0.0
C519 C 0.61719 0.95971 0.84422 0.0
C520 C 0.6229 0.94548 0.88116 0.0
N521 N 0.63053 0.94941 0.85975 0.0
C522 C 0.59551 0.96612 0.84984 0.0
C523 C 0.58755 0.96202 0.87158 0.0
C524 C 0.67327 0.97664 0.81906 0.0
C525 C 0.75695 0.9565 0.85157 0.0
C526 C 0.73338 0.97226 0.81464 0.0
C527 C 0.75107 0.98478 0.82325 0.0
C528 C 0.7629 0.97682 0.84185 0.0
N529 N 0.72763 0.95236 0.82426 0.0
C530 C 0.73917 0.94443 0.84248 0.0
Co531 Co 0.93364 0.34312 0.14751 0.0
Co532 Co 0.93116 0.30122 0.18797 0.0
O533 O 0.92759 0.31234 0.15694 0.0
C534 C 0.96148 0.3154 0.11652 0.0
O535 O 0.965 0.30126 0.13308 0.0
C536 C 0.88418 0.29061 0.17574 0.0
O537 O 0.88324 0.30943 0.16449 0.0
O538 O 0.9155 0.32767 0.20102 0.0
O539 O 0.91829 0.35474 0.17494 0.0
H540 H 0.952 0.30719 0.27002 0.0
H541 H 0.91205 0.31192 0.11545 0.0
O542 O 0.94931 0.33254 0.11956 0.0
H543 H 0.85844 0.37348 0.12539 0.0
H544 H 0.93943 0.40613 0.0915 0.0
H545 H 0.94824 0.3841 0.17132 0.0
H546 H 0.89466 0.37401 0.1451 0.0
H547 H 0.93183 0.36749 0.10351 0.0
O548 O 0.90193 0.28498 0.1861 0.0
H549 H 0.94712 0.32089 0.23103 0.0
H550 H 0.9228 0.25749 0.21055 0.0
H551 H 0.9558 0.42295 0.16007 0.0
H552 H 0.87614 0.31083 0.09517 0.0
H553 H 0.95141 0.43419 0.1199 0.0
H554 H 0.84901 0.34173 0.10016 0.0
O555 O 0.96273 0.34342 0.16387 0.0
H556 H 0.94041 0.23676 0.1345 0.0
H557 H 0.97371 0.2776 0.19848 0.0
H558 H 0.99349 0.24521 0.18242 0.0
H559 H 0.97679 0.22451 0.15023 0.0
H560 H 0.92135 0.26942 0.15089 0.0
H561 H 0.9272 0.24319 0.2494 0.0
H562 H 0.942 0.26809 0.27942 0.0
O563 O 0.96033 0.31697 0.19069 0.0
C564 C 0.91221 0.34761 0.19427 0.0
C565 C 0.9456 0.29617 0.25708 0.0
C566 C 0.93165 0.26026 0.2455 0.0
N567 N 0.93481 0.28997 0.2185 0.0
C568 C 0.94285 0.30381 0.23495 0.0
C569 C 0.92913 0.26847 0.22355 0.0
C570 C 0.93996 0.27423 0.26234 0.0
C571 C 0.90042 0.32553 0.11754 0.0
N572 N 0.90545 0.34301 0.13144 0.0
C573 C 0.88007 0.32477 0.10609 0.0
C574 C 0.86484 0.3421 0.10892 0.0
C575 C 0.87011 0.3599 0.12309 0.0
C576 C 0.8906 0.36007 0.1343 0.0
C577 C 0.94137 0.40144 0.10906 0.0
C578 C 0.94616 0.38888 0.15383 0.0
C579 C 0.93715 0.37957 0.11595 0.0
N580 N 0.93946 0.37357 0.13812 0.0
C581 C 0.95052 0.4109 0.14755 0.0
C582 C 0.94808 0.41719 0.12501 0.0
C583 C 0.97072 0.33265 0.18062 0.0
C584 C 0.94783 0.24561 0.14855 0.0
C585 C 0.96642 0.26878 0.18438 0.0
C586 C 0.97765 0.25039 0.17541 0.0
C587 C 0.96826 0.23877 0.15736 0.0
N588 N 0.94639 0.27539 0.17565 0.0
C589 C 0.93707 0.26406 0.15797 0.0
Co590 Co 0.34516 0.06919 0.85887 0.0
Co591 Co 0.30405 0.0721 0.81832 0.0
O592 O 0.31452 0.07522 0.84947 0.0
C593 C 0.31824 0.04222 0.89111 0.0
O594 O 0.30627 0.03506 0.87399 0.0
C595 C 0.29081 0.1183 0.83018 0.0
O596 O 0.31133 0.12149 0.83719 0.0
O597 O 0.32907 0.09074 0.80671 0.0
O598 O 0.35715 0.08258 0.83041 0.0
H599 H 0.31223 0.05765 0.73505 0.0
H600 H 0.31451 0.09384 0.88915 0.0
O601 O 0.33417 0.05586 0.88783 0.0
H602 H 0.37761 0.14485 0.87586 0.0
H603 H 0.40821 0.06529 0.91496 0.0
H604 H 0.38548 0.05163 0.83604 0.0
H605 H 0.37726 0.10728 0.85893 0.0
H606 H 0.36982 0.0734 0.9025 0.0
O607 O 0.28509 0.09944 0.82211 0.0
H608 H 0.32532 0.06123 0.77441 0.0
H609 H 0.25975 0.07727 0.79607 0.0
H610 H 0.4241 0.04347 0.84773 0.0
H611 H 0.31426 0.13119 0.90663 0.0
H612 H 0.43568 0.0503 0.88746 0.0
H613 H 0.34595 0.15701 0.89994 0.0
O614 O 0.34441 0.03919 0.84424 0.0
H615 H 0.24071 0.05313 0.87049 0.0
H616 H 0.2852 0.02791 0.80521 0.0
H617 H 0.25518 0.00386 0.81989 0.0
H618 H 0.23266 0.01646 0.85274 0.0
H619 H 0.27108 0.07655 0.85542 0.0
H620 H 0.24597 0.07403 0.75691 0.0
H621 H 0.27229 0.06407 0.72609 0.0
O622 O 0.32258 0.04472 0.81388 0.0
C623 C 0.34959 0.09142 0.81235 0.0
C624 C 0.30059 0.06193 0.74834 0.0
C625 C 0.26341 0.07115 0.7606 0.0
N626 N 0.29328 0.06927 0.78754 0.0
C627 C 0.30789 0.06392 0.77067 0.0
C628 C 0.27131 0.07301 0.78273 0.0
C629 C 0.27818 0.06556 0.74332 0.0
C630 C 0.32844 0.10492 0.88631 0.0
N631 N 0.34588 0.09838 0.87302 0.0
C632 C 0.32817 0.12607 0.89619 0.0
C633 C 0.34594 0.14057 0.89241 0.0
C634 C 0.3637 0.13376 0.87888 0.0
C635 C 0.36337 0.1125 0.86925 0.0
C636 C 0.40337 0.06227 0.8976 0.0
C637 C 0.39043 0.05476 0.85332 0.0
C638 C 0.38164 0.06677 0.89046 0.0
N639 N 0.37546 0.06311 0.86853 0.0
C640 C 0.41231 0.05006 0.85986 0.0
C641 C 0.41878 0.05387 0.88216 0.0
C642 C 0.3362 0.03291 0.82536 0.0
C643 C 0.25036 0.04749 0.85613 0.0
C644 C 0.27553 0.03348 0.81956 0.0
C645 C 0.25851 0.01982 0.82776 0.0
C646 C 0.24587 0.0269 0.84618 0.0
N647 N 0.27983 0.05366 0.8294 0.0
C648 C 0.26751 0.06072 0.84746 0.0
Co649 Co 0.06515 0.65774 0.14674 0.0
Co650 Co 0.07209 0.69745 0.18773 0.0
O651 O 0.07344 0.68793 0.1561 0.0
C652 C 0.04013 0.68634 0.11432 0.0
O653 O 0.03397 0.69901 0.13132 0.0
C654 C 0.11767 0.71107 0.17387 0.0
O655 O 0.12054 0.69088 0.16578 0.0
O656 O 0.09121 0.67194 0.19705 0.0
O657 O 0.07732 0.64464 0.17536 0.0
H658 H 0.06324 0.68589 0.27138 0.0
H659 H 0.09211 0.68585 0.11598 0.0
O660 O 0.05279 0.66961 0.11769 0.0
H661 H 0.13817 0.61932 0.13085 0.0
H662 H 0.05682 0.59493 0.09085 0.0
H663 H 0.04383 0.61915 0.16943 0.0
H664 H 0.10078 0.62293 0.14777 0.0
H665 H 0.06793 0.63258 0.1033 0.0
O666 O 0.09924 0.7164 0.1831 0.0
H667 H 0.06403 0.67446 0.23134 0.0
H668 H 0.07862 0.74091 0.2114 0.0
H669 H 0.03263 0.5813 0.15775 0.0
H670 H 0.12935 0.68282 0.09854 0.0
H671 H 0.03911 0.56897 0.1182 0.0
H672 H 0.15267 0.6494 0.106 0.0
O673 O 0.03543 0.66109 0.16127 0.0
H674 H 0.05081 0.76292 0.1393 0.0
H675 H 0.02896 0.71622 0.20424 0.0
H676 H 0.00451 0.74708 0.19228 0.0
H677 H 0.01542 0.77073 0.15962 0.0
H678 H 0.07464 0.73168 0.15166 0.0
H679 H 0.07805 0.75307 0.25125 0.0
H680 H 0.07025 0.72547 0.28155 0.0
O681 O 0.04476 0.67897 0.19322 0.0
C682 C 0.08881 0.65137 0.19218 0.0
C683 C 0.06656 0.6981 0.25832 0.0
C684 C 0.07491 0.73579 0.24702 0.0
N685 N 0.07117 0.70704 0.21904 0.0
C686 C 0.06698 0.69173 0.23561 0.0
C687 C 0.07524 0.72881 0.22449 0.0
C688 C 0.07052 0.7203 0.26402 0.0
C689 C 0.10209 0.67116 0.11912 0.0
N690 N 0.09424 0.65455 0.13278 0.0
C691 C 0.12319 0.66958 0.10928 0.0
C692 C 0.13628 0.65083 0.1135 0.0
C693 C 0.12816 0.63396 0.12746 0.0
C694 C 0.10699 0.63613 0.13703 0.0
C695 C 0.05395 0.60009 0.10814 0.0
C696 C 0.04683 0.61387 0.15223 0.0
C697 C 0.06016 0.6214 0.11528 0.0
N698 N 0.05669 0.62799 0.13712 0.0
C699 C 0.0404 0.59243 0.1457 0.0
C700 C 0.04402 0.58553 0.1235 0.0
C701 C 0.03105 0.66771 0.18127 0.0
C702 C 0.04591 0.75277 0.15359 0.0
C703 C 0.03378 0.72636 0.18994 0.0
C704 C 0.0199 0.74386 0.18329 0.0
C705 C 0.02604 0.75712 0.16498 0.0
N706 N 0.05325 0.7222 0.17869 0.0
C707 C 0.05938 0.73513 0.16073 0.0
Co708 Co 0.66103 0.07043 0.14678 0.0
Co709 Co 0.70411 0.07182 0.18559 0.0
O710 O 0.69205 0.07578 0.15517 0.0
C711 C 0.68656 0.04192 0.11484 0.0
O712 O 0.69952 0.03601 0.13168 0.0
C713 C 0.71535 0.11951 0.17723 0.0
O714 O 0.69401 0.12364 0.17472 0.0
O715 O 0.67903 0.08906 0.19945 0.0
O716 O 0.65049 0.08506 0.17511 0.0
H717 H 0.70095 0.0534 0.26841 0.0
H718 H 0.69196 0.09319 0.11532 0.0
O719 O 0.6707 0.05568 0.11803 0.0
H720 H 0.63061 0.14649 0.12793 0.0
H721 H 0.59641 0.06677 0.09256 0.0
H722 H 0.62075 0.05522 0.17133 0.0
H723 H 0.63003 0.10938 0.14587 0.0
H724 H 0.63537 0.07395 0.10369 0.0
O725 O 0.72211 0.09984 0.18166 0.0
H726 H 0.68566 0.05813 0.23001 0.0
H727 H 0.74927 0.07791 0.20571 0.0
H728 H 0.58157 0.04804 0.16098 0.0
H729 H 0.69315 0.13005 0.09683 0.0
H730 H 0.56918 0.05381 0.12134 0.0
H731 H 0.66236 0.15702 0.10317 0.0
O732 O 0.66103 0.04085 0.16228 0.0
H733 H 0.76507 0.05693 0.12928 0.0
H734 H 0.72509 0.02789 0.1959 0.0
H735 H 0.75507 0.00545 0.17868 0.0
H736 H 0.77531 0.01997 0.14514 0.0
H737 H 0.73483 0.07872 0.14688 0.0
H738 H 0.76522 0.07356 0.2439 0.0
H739 H 0.74102 0.06114 0.27555 0.0
O740 O 0.68667 0.04379 0.18983 0.0
C741 C 0.65865 0.09181 0.19381 0.0
C742 C 0.71169 0.05877 0.25475 0.0
C743 C 0.74775 0.07012 0.24099 0.0
N744 N 0.71658 0.06817 0.21562 0.0
C745 C 0.70313 0.06143 0.23296 0.0
C746 C 0.73861 0.07261 0.21942 0.0
C747 C 0.73416 0.06314 0.25875 0.0
C748 C 0.67844 0.1048 0.11806 0.0
N749 N 0.66097 0.09918 0.13173 0.0
C750 C 0.67923 0.12566 0.10758 0.0
C751 C 0.66196 0.14079 0.11116 0.0
C752 C 0.64416 0.13491 0.12507 0.0
C753 C 0.64395 0.11391 0.13528 0.0
C754 C 0.60159 0.06423 0.1099 0.0
C755 C 0.61544 0.05791 0.15408 0.0
C756 C 0.62365 0.06821 0.11629 0.0
N757 N 0.63028 0.06515 0.13818 0.0
C758 C 0.59325 0.05375 0.14831 0.0
C759 C 0.58632 0.05697 0.12605 0.0
C760 C 0.67117 0.03324 0.17963 0.0
C761 C 0.75642 0.05046 0.14393 0.0
C762 C 0.73378 0.0343 0.18127 0.0
C763 C 0.75077 0.02154 0.17163 0.0
C764 C 0.76214 0.02971 0.15282 0.0
N765 N 0.72828 0.05465 0.17247 0.0
C766 C 0.73936 0.06277 0.15404 0.0
Co767 Co 0.0698 0.34151 0.85662 0.0
Co768 Co 0.07365 0.29953 0.81698 0.0
O769 O 0.07673 0.31082 0.8479 0.0
C770 C 0.04377 0.31462 0.88977 0.0
O771 O 0.03753 0.30138 0.87326 0.0
C772 C 0.12039 0.28773 0.82858 0.0
O773 O 0.12323 0.30842 0.83527 0.0
O774 O 0.09141 0.32484 0.80462 0.0
O775 O 0.08283 0.35319 0.82784 0.0
H776 H 0.05855 0.30541 0.73363 0.0
H777 H 0.09534 0.31231 0.88756 0.0
O778 O 0.05675 0.33097 0.88587 0.0
H779 H 0.14438 0.37668 0.8729 0.0
H780 H 0.06364 0.40592 0.91096 0.0
H781 H 0.05071 0.38052 0.83275 0.0
H782 H 0.10686 0.37481 0.85598 0.0
H783 H 0.0734 0.36758 0.8995 0.0
O784 O 0.10156 0.28147 0.82089 0.0
H785 H 0.06198 0.31948 0.77265 0.0
H786 H 0.07984 0.25484 0.79573 0.0
H787 H 0.04075 0.419 0.84346 0.0
H788 H 0.13263 0.3136 0.90509 0.0
H789 H 0.04724 0.43193 0.88282 0.0
H790 H 0.15747 0.34593 0.8977 0.0
O791 O 0.03988 0.33946 0.84219 0.0
H792 H 0.0575 0.23663 0.87065 0.0
H793 H 0.02996 0.27895 0.80483 0.0
H794 H 0.00723 0.2483 0.82035 0.0
H795 H 0.021 0.22687 0.85346 0.0
H796 H 0.07959 0.26757 0.85475 0.0
H797 H 0.07677 0.24009 0.75693 0.0
H798 H 0.06597 0.26543 0.72556 0.0
O799 O 0.04567 0.31712 0.81227 0.0
C800 C 0.09168 0.34548 0.80984 0.0
C801 C 0.06319 0.29418 0.74716 0.0
C802 C 0.07345 0.25753 0.76023 0.0
N803 N 0.07091 0.28796 0.78648 0.0
C804 C 0.06509 0.30204 0.7693 0.0
C805 C 0.0752 0.26598 0.78216 0.0
C806 C 0.06738 0.27176 0.74264 0.0
C807 C 0.10599 0.32651 0.88441 0.0
N808 N 0.09895 0.34345 0.87072 0.0
C809 C 0.12711 0.32712 0.89432 0.0
C810 C 0.14105 0.34524 0.89015 0.0
C811 C 0.13373 0.36249 0.87621 0.0
C812 C 0.1125 0.3613 0.86658 0.0
C813 C 0.06079 0.40049 0.89375 0.0
C814 C 0.0537 0.38606 0.84988 0.0
C815 C 0.06625 0.3788 0.88717 0.0
N816 N 0.06277 0.37187 0.86544 0.0
C817 C 0.04798 0.40785 0.85586 0.0
C818 C 0.05159 0.41508 0.87795 0.0
C819 C 0.03364 0.33068 0.82359 0.0
C820 C 0.05135 0.2458 0.85618 0.0
C821 C 0.03603 0.26977 0.81931 0.0
C822 C 0.02311 0.25239 0.82798 0.0
C823 C 0.03086 0.24036 0.84655 0.0
N824 N 0.05612 0.27499 0.82883 0.0
C825 C 0.06382 0.26327 0.84704 0.0
Co826 Co 0.34214 0.92966 0.14937 0.0
Co827 Co 0.30106 0.92693 0.18994 0.0
O828 O 0.31138 0.92432 0.15867 0.0
C829 C 0.31626 0.95839 0.11777 0.0
O830 O 0.30499 0.96614 0.13511 0.0
C831 C 0.28677 0.88164 0.17645 0.0
O832 O 0.30717 0.8785 0.16908 0.0
O833 O 0.3255 0.90727 0.20099 0.0
O834 O 0.35379 0.91528 0.17751 0.0
H835 H 0.30977 0.9386 0.2736 0.0
H836 H 0.3108 0.90653 0.11859 0.0
O837 O 0.33145 0.94386 0.12073 0.0
H838 H 0.37267 0.85365 0.13038 0.0
H839 H 0.4053 0.9334 0.09339 0.0
H840 H 0.38287 0.94559 0.17264 0.0
H841 H 0.37329 0.89079 0.14824 0.0
H842 H 0.36672 0.92589 0.10563 0.0
O843 O 0.28139 0.90021 0.18539 0.0
H844 H 0.32269 0.9358 0.23413 0.0
H845 H 0.25665 0.92248 0.2121 0.0
H846 H 0.42166 0.95314 0.16117 0.0
H847 H 0.30958 0.86964 0.10018 0.0
H848 H 0.43309 0.94705 0.12128 0.0
H849 H 0.34064 0.84287 0.10611 0.0
O850 O 0.34216 0.95929 0.1647 0.0
H851 H 0.23831 0.94909 0.13835 0.0
H852 H 0.28347 0.97124 0.20431 0.0
H853 H 0.25404 0.99647 0.19039 0.0
H854 H 0.23119 0.98542 0.1572 0.0
H855 H 0.26805 0.92446 0.15271 0.0
H856 H 0.24302 0.92496 0.25137 0.0
H857 H 0.26965 0.93316 0.28243 0.0
O858 O 0.3205 0.95359 0.19519 0.0
C859 C 0.34598 0.90618 0.19533 0.0
C860 C 0.29798 0.93511 0.26021 0.0
C861 C 0.26052 0.92742 0.24773 0.0
N862 N 0.29041 0.92921 0.22081 0.0
C863 C 0.30519 0.93359 0.23781 0.0
C864 C 0.26834 0.926 0.22553 0.0
C865 C 0.27548 0.93203 0.26515 0.0
C866 C 0.32446 0.89504 0.1211 0.0
N867 N 0.34209 0.9008 0.13452 0.0
C868 C 0.32364 0.87415 0.11069 0.0
C869 C 0.34105 0.85913 0.11406 0.0
C870 C 0.35902 0.86515 0.12769 0.0
C871 C 0.35924 0.88617 0.13786 0.0
C872 C 0.40053 0.93609 0.11083 0.0
C873 C 0.38775 0.94277 0.15528 0.0
C874 C 0.3787 0.93192 0.11784 0.0
N875 N 0.37259 0.93517 0.13986 0.0
C876 C 0.40972 0.94713 0.14888 0.0
C877 C 0.41612 0.94373 0.12649 0.0
C878 C 0.33441 0.96523 0.18388 0.0
C879 C 0.24811 0.95406 0.15287 0.0
C880 C 0.27364 0.96634 0.18982 0.0
C881 C 0.25697 0.98067 0.18204 0.0
C882 C 0.24415 0.97446 0.16343 0.0
N883 N 0.2774 0.94635 0.17939 0.0
C884 C 0.26491 0.94014 0.16113 0.0
Co885 Co 0.93622 0.66873 0.85315 0.0
Co886 Co 0.93348 0.71082 0.81303 0.0
O887 O 0.9303 0.69959 0.844 0.0
C888 C 0.96329 0.69637 0.88531 0.0
O889 O 0.96583 0.71189 0.8699 0.0
C890 C 0.88635 0.72127 0.82442 0.0
O891 O 0.88446 0.70093 0.83243 0.0
O892 O 0.91689 0.68484 0.8002 0.0
O893 O 0.92078 0.65732 0.82566 0.0
H894 H 0.95153 0.70508 0.73028 0.0
H895 H 0.91446 0.70012 0.88493 0.0
O896 O 0.95196 0.67889 0.88119 0.0
H897 H 0.86097 0.63845 0.87519 0.0
H898 H 0.94201 0.60555 0.90894 0.0
H899 H 0.95093 0.62787 0.8292 0.0
H900 H 0.89732 0.63777 0.85574 0.0
H901 H 0.93418 0.64415 0.89701 0.0
O902 O 0.9048 0.7278 0.81605 0.0
H903 H 0.94757 0.69115 0.76931 0.0
H904 H 0.92582 0.75501 0.79119 0.0
H905 H 0.95874 0.58901 0.84037 0.0
H906 H 0.87841 0.7014 0.90492 0.0
H907 H 0.95431 0.57764 0.8805 0.0
H908 H 0.85133 0.67044 0.90003 0.0
O909 O 0.96528 0.66851 0.83675 0.0
H910 H 0.9455 0.77508 0.8662 0.0
H911 H 0.9766 0.73305 0.80186 0.0
H912 H 0.99759 0.76486 0.81751 0.0
H913 H 0.982 0.78616 0.84987 0.0
H914 H 0.92523 0.74296 0.85023 0.0
H915 H 0.92937 0.76959 0.75236 0.0
H916 H 0.94239 0.74456 0.7216 0.0
O917 O 0.96214 0.69429 0.80933 0.0
C918 C 0.91403 0.66474 0.80666 0.0
C919 C 0.9459 0.71616 0.74355 0.0
C920 C 0.93343 0.75236 0.75593 0.0
N921 N 0.93659 0.72228 0.78253 0.0
C922 C 0.94367 0.70839 0.76569 0.0
C923 C 0.93139 0.744 0.77787 0.0
C924 C 0.94075 0.73831 0.73869 0.0
C925 C 0.90285 0.6865 0.88287 0.0
N926 N 0.908 0.66887 0.86919 0.0
C927 C 0.88242 0.68735 0.89417 0.0
C928 C 0.86723 0.66999 0.89139 0.0
C929 C 0.87262 0.65205 0.87744 0.0
C930 C 0.89319 0.65179 0.86639 0.0
C931 C 0.94397 0.61028 0.89139 0.0
C932 C 0.94881 0.623 0.84666 0.0
C933 C 0.9396 0.63214 0.88454 0.0
N934 N 0.94195 0.63822 0.86239 0.0
C935 C 0.95332 0.601 0.8529 0.0
C936 C 0.95085 0.59464 0.87543 0.0
C937 C 0.9728 0.67883 0.81947 0.0
C938 C 0.95244 0.76596 0.85206 0.0
C939 C 0.9698 0.74211 0.81606 0.0
C940 C 0.98171 0.76018 0.82479 0.0
C941 C 0.97294 0.77214 0.84292 0.0
N942 N 0.94971 0.73614 0.82512 0.0
C943 C 0.94099 0.74782 0.84288 0.0
H944 H 0.25535 0.38101 0.31104 0.0
H945 H 0.28177 0.35019 0.311 0.0
H946 H 0.23434 0.30902 0.34644 0.0
H947 H 0.20762 0.34006 0.34675 0.0
H948 H 0.27699 0.30501 0.36384 0.0
H949 H 0.24241 0.30079 0.29114 0.0
H950 H 0.22892 0.31529 0.25461 0.0
H951 H 0.29573 0.3334 0.23619 0.0
H952 H 0.30959 0.31931 0.27276 0.0
H953 H 0.34354 0.20741 0.34374 0.0
H954 H 0.31236 0.23378 0.34524 0.0
H955 H 0.35088 0.28158 0.30728 0.0
H956 H 0.38189 0.25536 0.30545 0.0
H957 H 0.3094 0.27918 0.29124 0.0
H958 H 0.34361 0.28647 0.36452 0.0
H959 H 0.35765 0.27289 0.40121 0.0
H960 H 0.29215 0.24969 0.41859 0.0
H961 H 0.27778 0.26285 0.38183 0.0
C962 C 0.25042 0.36543 0.31884 0.0
C963 C 0.22924 0.363 0.32877 0.0
C964 C 0.26558 0.34777 0.31873 0.0
C965 C 0.25995 0.32717 0.32843 0.0
C966 C 0.239 0.32474 0.33876 0.0
C967 C 0.22372 0.34246 0.33884 0.0
C968 C 0.27609 0.30834 0.32761 0.0
C969 C 0.28377 0.29904 0.34796 0.0
C970 C 0.28526 0.30083 0.3069 0.0
C971 C 0.27702 0.30913 0.28478 0.0
C972 C 0.25421 0.308 0.27937 0.0
C973 C 0.2465 0.31613 0.25864 0.0
C974 C 0.26145 0.3253 0.24311 0.0
C975 C 0.28417 0.3263 0.24824 0.0
C976 C 0.29196 0.31822 0.26896 0.0
C977 C 0.34536 0.22352 0.33568 0.0
C978 C 0.36524 0.22924 0.32447 0.0
C979 C 0.32754 0.23863 0.33664 0.0
C980 C 0.3293 0.25976 0.3265 0.0
C981 C 0.34908 0.26539 0.31519 0.0
C982 C 0.36685 0.25036 0.31423 0.0
C983 C 0.31064 0.27611 0.32749 0.0
C984 C 0.30245 0.28494 0.30714 0.0
C985 C 0.3011 0.28322 0.34819 0.0
C986 C 0.30968 0.2754 0.37033 0.0
C987 C 0.33224 0.2783 0.37609 0.0
C988 C 0.34025 0.27071 0.39691 0.0
C989 C 0.32582 0.26037 0.41219 0.0
C990 C 0.30332 0.25766 0.40671 0.0
C991 C 0.29523 0.26519 0.38589 0.0
H992 H 0.33205 0.25451 0.4283 0.0
H993 H 0.25545 0.33159 0.22708 0.0
H994 H 0.38341 0.7461 0.69074 0.0
H995 H 0.35318 0.71917 0.6878 0.0
H996 H 0.31073 0.76948 0.65844 0.0
H997 H 0.34102 0.79682 0.66155 0.0
H998 H 0.28869 0.74454 0.69026 0.0
H999 H 0.33348 0.7302 0.62512 0.0
H1000 H 0.36839 0.7231 0.60433 0.0
H1001 H 0.37833 0.66265 0.6419 0.0
H1002 H 0.34364 0.66956 0.66318 0.0
H1003 H 0.20777 0.66127 0.66057 0.0
H1004 H 0.23464 0.69197 0.65812 0.0
H1005 H 0.28577 0.64941 0.68583 0.0
H1006 H 0.25926 0.61873 0.68809 0.0
H1007 H 0.30154 0.67266 0.65079 0.0
H1008 H 0.25916 0.68866 0.71821 0.0
H1009 H 0.22492 0.69586 0.74008 0.0
H1010 H 0.21081 0.75302 0.69876 0.0
H1011 H 0.24485 0.74597 0.67643 0.0
C1012 C 0.36767 0.75154 0.68365 0.0
C1013 C 0.3647 0.77366 0.6763 0.0
C1014 C 0.3504 0.73604 0.68191 0.0
C1015 C 0.32977 0.74219 0.6726 0.0
C1016 C 0.32654 0.76434 0.6656 0.0
C1017 C 0.34388 0.77993 0.66735 0.0
C1018 C 0.31174 0.72532 0.67028 0.0
C1019 C 0.29132 0.729 0.68126 0.0
C1020 C 0.3153 0.70488 0.65885 0.0
C1021 C 0.33602 0.70049 0.64586 0.0
C1022 C 0.34318 0.71546 0.62905 0.0
C1023 C 0.36292 0.71147 0.61717 0.0
C1024 C 0.37559 0.69246 0.62182 0.0
C1025 C 0.3685 0.67738 0.63832 0.0
C1026 C 0.34878 0.68131 0.65028 0.0
C1027 C 0.22474 0.65845 0.66612 0.0
C1028 C 0.2313 0.63754 0.67462 0.0
C1029 C 0.24007 0.67604 0.66477 0.0
C1030 C 0.26221 0.67307 0.67197 0.0
C1031 C 0.26882 0.65213 0.68015 0.0
C1032 C 0.25356 0.63459 0.68151 0.0
C1033 C 0.27863 0.69166 0.67117 0.0
C1034 C 0.29877 0.68831 0.65956 0.0
C1035 C 0.27482 0.71235 0.68206 0.0
C1036 C 0.2544 0.71663 0.69549 0.0
C1037 C 0.24866 0.70265 0.71367 0.0
C1038 C 0.22931 0.70673 0.72617 0.0
C1039 C 0.21566 0.72484 0.72077 0.0
C1040 C 0.22137 0.73896 0.70289 0.0
C1041 C 0.2407 0.73494 0.69032 0.0
H1042 H 0.20068 0.72797 0.73047 0.0
H1043 H 0.39087 0.6894 0.61261 0.0
H1044 H 0.61822 0.74751 0.31719 0.0
H1045 H 0.64749 0.71942 0.31937 0.0
H1046 H 0.69083 0.76672 0.3523 0.0
H1047 H 0.66159 0.79521 0.34989 0.0
H1048 H 0.71282 0.74368 0.31994 0.0
H1049 H 0.66567 0.72526 0.38243 0.0
H1050 H 0.63007 0.71695 0.40148 0.0
H1051 H 0.621 0.65952 0.35911 0.0
H1052 H 0.6564 0.66768 0.33957 0.0
H1053 H 0.79261 0.65994 0.34903 0.0
H1054 H 0.7651 0.69001 0.35138 0.0
H1055 H 0.71625 0.64786 0.31917 0.0
H1056 H 0.74348 0.61769 0.31703 0.0
H1057 H 0.69816 0.66953 0.35404 0.0
H1058 H 0.74353 0.68912 0.28996 0.0
H1059 H 0.77866 0.69746 0.27003 0.0
H1060 H 0.79071 0.75252 0.3148 0.0
H1061 H 0.75578 0.74432 0.3352 0.0
C1062 C 0.63393 0.75201 0.32496 0.0
C1063 C 0.6375 0.77365 0.33343 0.0
C1064 C 0.65066 0.73585 0.32627 0.0
C1065 C 0.67128 0.74083 0.33628 0.0
C1066 C 0.67502 0.76247 0.34457 0.0
C1067 C 0.65827 0.77872 0.34323 0.0
C1068 C 0.68894 0.72344 0.33775 0.0
C1069 C 0.70975 0.72761 0.32776 0.0
C1070 C 0.68481 0.70228 0.34754 0.0
C1071 C 0.66362 0.69719 0.35942 0.0
C1072 C 0.65602 0.71095 0.37707 0.0
C1073 C 0.63588 0.70625 0.38797 0.0
C1074 C 0.62326 0.68775 0.38148 0.0
C1075 C 0.63079 0.67386 0.36411 0.0
C1076 C 0.6509 0.6785 0.35313 0.0
C1077 C 0.77601 0.65706 0.34245 0.0
C1078 C 0.77031 0.63641 0.33274 0.0
C1079 C 0.76031 0.67431 0.34374 0.0
C1080 C 0.73864 0.6713 0.33523 0.0
C1081 C 0.73284 0.6506 0.32585 0.0
C1082 C 0.74849 0.63336 0.32458 0.0
C1083 C 0.72195 0.68967 0.33598 0.0
C1084 C 0.7013 0.68567 0.3464 0.0
C1085 C 0.72621 0.71095 0.32653 0.0
C1086 C 0.74718 0.71595 0.31426 0.0
C1087 C 0.75377 0.70289 0.29567 0.0
C1088 C 0.77362 0.70761 0.28427 0.0
C1089 C 0.78694 0.72547 0.29118 0.0
C1090 C 0.78039 0.73868 0.30948 0.0
C1091 C 0.76056 0.73401 0.32096 0.0
H1092 H 0.80231 0.7291 0.28233 0.0
H1093 H 0.60767 0.68415 0.38993 0.0
H1094 H 0.61985 0.26539 0.69515 0.0
H1095 H 0.65065 0.29173 0.69264 0.0
H1096 H 0.69051 0.24237 0.6583 0.0
H1097 H 0.65973 0.21559 0.66109 0.0
H1098 H 0.71478 0.26433 0.68983 0.0
H1099 H 0.66673 0.28499 0.62888 0.0
H1100 H 0.63097 0.29478 0.61088 0.0
H1101 H 0.62535 0.35237 0.65364 0.0
H1102 H 0.66093 0.34275 0.67214 0.0
H1103 H 0.79662 0.34709 0.66101 0.0
H1104 H 0.76873 0.31731 0.65851 0.0
H1105 H 0.72069 0.35957 0.69184 0.0
H1106 H 0.74818 0.38937 0.69407 0.0
H1107 H 0.7021 0.33931 0.65677 0.0
H1108 H 0.74823 0.31696 0.71977 0.0
H1109 H 0.78369 0.30715 0.73837 0.0
H1110 H 0.79279 0.25287 0.69192 0.0
H1111 H 0.7575 0.26256 0.67285 0.0
C1112 C 0.63514 0.26006 0.68703 0.0
C1113 C 0.63725 0.23837 0.67822 0.0
C1114 C 0.65274 0.27521 0.68553 0.0
C1115 C 0.67281 0.26918 0.67496 0.0
C1116 C 0.67516 0.24743 0.66646 0.0
C1117 C 0.65752 0.23216 0.66802 0.0
C1118 C 0.69122 0.2857 0.67291 0.0
C1119 C 0.71214 0.28059 0.68223 0.0
C1120 C 0.68771 0.30704 0.6633 0.0
C1121 C 0.66644 0.31305 0.652 0.0
C1122 C 0.65781 0.29967 0.63454 0.0
C1123 C 0.63757 0.30519 0.62424 0.0
C1124 C 0.62588 0.32416 0.63114 0.0
C1125 C 0.63443 0.33768 0.64832 0.0
C1126 C 0.65464 0.33221 0.6587 0.0
C1127 C 0.78012 0.35001 0.66784 0.0
C1128 C 0.77469 0.37061 0.67781 0.0
C1129 C 0.76421 0.33295 0.66645 0.0
C1130 C 0.74262 0.33611 0.67516 0.0
C1131 C 0.73719 0.35672 0.68496 0.0
C1132 C 0.753 0.37374 0.68629 0.0
C1133 C 0.72552 0.31814 0.67413 0.0
C1134 C 0.70483 0.32298 0.66416 0.0
C1135 C 0.72926 0.29659 0.68316 0.0
C1136 C 0.75036 0.29064 0.69473 0.0
C1137 C 0.75788 0.30304 0.71342 0.0
C1138 C 0.77793 0.29748 0.72406 0.0
C1139 C 0.79052 0.27944 0.71629 0.0
C1140 C 0.78304 0.26686 0.6979 0.0
C1141 C 0.76301 0.27237 0.68717 0.0
H1142 H 0.80605 0.27517 0.72454 0.0
H1143 H 0.61021 0.3284 0.62315 0.0
H1144 H 0.75707 0.88824 0.80965 0.0
H1145 H 0.78373 0.85764 0.81051 0.0
H1146 H 0.73484 0.81547 0.84255 0.0
H1147 H 0.70787 0.84628 0.84193 0.0
H1148 H 0.77669 0.81128 0.862 0.0
H1149 H 0.74553 0.80846 0.78766 0.0
H1150 H 0.73365 0.82369 0.75087 0.0
H1151 H 0.80113 0.84253 0.73604 0.0
H1152 H 0.81337 0.8277 0.7729 0.0
H1153 H 0.84473 0.7144 0.84261 0.0
H1154 H 0.81331 0.74055 0.84334 0.0
H1155 H 0.85325 0.78961 0.80868 0.0
H1156 H 0.88449 0.76365 0.80765 0.0
H1157 H 0.81255 0.78717 0.79046 0.0
H1158 H 0.84329 0.79301 0.86546 0.0
H1159 H 0.85569 0.77867 0.90245 0.0
H1160 H 0.7896 0.75473 0.91611 0.0
H1161 H 0.77687 0.76867 0.87903 0.0
C1162 C 0.75188 0.8725 0.81691 0.0
C1163 C 0.73021 0.8697 0.82558 0.0
C1164 C 0.76718 0.85496 0.81733 0.0
C1165 C 0.76121 0.83414 0.8263 0.0
C1166 C 0.73977 0.83136 0.83545 0.0
C1167 C 0.72436 0.84896 0.835 0.0
C1168 C 0.77746 0.8154 0.82585 0.0
C1169 C 0.78424 0.80569 0.84633 0.0
C1170 C 0.7876 0.80837 0.80543 0.0
C1171 C 0.78034 0.81711 0.78313 0.0
C1172 C 0.75782 0.81598 0.77662 0.0
C1173 C 0.75102 0.82453 0.75574 0.0
C1174 C 0.76662 0.83411 0.74114 0.0
C1175 C 0.78906 0.83511 0.74737 0.0
C1176 C 0.79594 0.82662 0.76825 0.0
C1177 C 0.84681 0.73075 0.83513 0.0
C1178 C 0.86716 0.7369 0.82507 0.0
C1179 C 0.82885 0.74572 0.83564 0.0
C1180 C 0.83094 0.76713 0.82619 0.0
C1181 C 0.8512 0.77319 0.81604 0.0
C1182 C 0.8691 0.75831 0.81554 0.0
C1183 C 0.81213 0.78332 0.82666 0.0
C1184 C 0.80484 0.79255 0.80613 0.0
C1185 C 0.80161 0.78993 0.84703 0.0
C1186 C 0.80919 0.78164 0.86936 0.0
C1187 C 0.83144 0.78453 0.87627 0.0
C1188 C 0.83853 0.7765 0.89726 0.0
C1189 C 0.82346 0.76573 0.91159 0.0
C1190 C 0.80126 0.76303 0.90497 0.0
C1191 C 0.7941 0.771 0.88398 0.0
H1192 H 0.82897 0.75953 0.92784 0.0
H1193 H 0.76132 0.84073 0.72499 0.0
H1194 H 0.70992 0.16339 0.18823 0.0
H1195 H 0.73794 0.19298 0.18682 0.0
H1196 H 0.78554 0.14646 0.1589 0.0
H1197 H 0.75803 0.11659 0.16194 0.0
H1198 H 0.80647 0.169 0.18591 0.0
H1199 H 0.75718 0.19028 0.12708 0.0
H1200 H 0.7213 0.19926 0.10889 0.0
H1201 H 0.71244 0.25461 0.15407 0.0
H1202 H 0.74813 0.24577 0.17276 0.0
H1203 H 0.85477 0.28299 0.14134 0.0
H1204 H 0.82575 0.25426 0.13972 0.0
H1205 H 0.84079 0.2355 0.20855 0.0
H1206 H 0.87081 0.26298 0.20951 0.0
H1207 H 0.78944 0.24499 0.15772 0.0
H1208 H 0.83238 0.18224 0.21924 0.0
H1209 H 0.87045 0.17137 0.23056 0.0
H1210 H 0.89596 0.19511 0.16715 0.0
H1211 H 0.85802 0.20579 0.15531 0.0
C1212 C 0.72636 0.15957 0.18172 0.0
C1213 C 0.73181 0.13774 0.17517 0.0
C1214 C 0.74237 0.17654 0.18075 0.0
C1215 C 0.76391 0.17222 0.17236 0.0
C1216 C 0.76917 0.15036 0.16553 0.0
C1217 C 0.7534 0.13328 0.16717 0.0
C1218 C 0.78119 0.19018 0.1714 0.0
C1219 C 0.80268 0.18556 0.17964 0.0
C1220 C 0.77667 0.21176 0.1627 0.0
C1221 C 0.75524 0.21724 0.15145 0.0
C1222 C 0.74751 0.20429 0.13323 0.0
C1223 C 0.72722 0.20936 0.12282 0.0
C1224 C 0.71458 0.22747 0.13035 0.0
C1225 C 0.72224 0.24058 0.14827 0.0
C1226 C 0.74251 0.23555 0.15877 0.0
C1227 C 0.85178 0.27272 0.1561 0.0
C1228 C 0.86514 0.275 0.17546 0.0
C1229 C 0.83517 0.25632 0.1552 0.0
C1230 C 0.83131 0.24221 0.17382 0.0
C1231 C 0.84386 0.24551 0.19363 0.0
C1232 C 0.86091 0.26137 0.19427 0.0
C1233 C 0.81457 0.2238 0.17243 0.0
C1234 C 0.79321 0.22836 0.16383 0.0
C1235 C 0.81953 0.20181 0.17968 0.0
C1236 C 0.84237 0.195 0.18649 0.0
C1237 C 0.8461 0.18502 0.20766 0.0
C1238 C 0.86765 0.17891 0.21418 0.0
C1239 C 0.88562 0.18261 0.19961 0.0
C1240 C 0.88204 0.19231 0.17845 0.0
C1241 C 0.86052 0.1984 0.17183 0.0
H1242 H 0.9023 0.17792 0.20471 0.0
H1243 H 0.69886 0.23137 0.12228 0.0
H1244 H 0.11982 0.24394 0.81588 0.0
H1245 H 0.15003 0.21688 0.81802 0.0
H1246 H 0.19332 0.26698 0.84642 0.0
H1247 H 0.16308 0.29444 0.8441 0.0
H1248 H 0.21463 0.24217 0.81412 0.0
H1249 H 0.17094 0.22757 0.88011 0.0
H1250 H 0.13644 0.22021 0.90149 0.0
H1251 H 0.12619 0.15985 0.86384 0.0
H1252 H 0.16047 0.16702 0.84199 0.0
H1253 H 0.29685 0.16115 0.8454 0.0
H1254 H 0.26917 0.19115 0.84698 0.0
H1255 H 0.21951 0.14683 0.8194 0.0
H1256 H 0.2469 0.11678 0.81796 0.0
H1257 H 0.20288 0.1704 0.85413 0.0
H1258 H 0.24488 0.186 0.78663 0.0
H1259 H 0.27914 0.19312 0.76474 0.0
H1260 H 0.29238 0.25132 0.80484 0.0
H1261 H 0.25836 0.24435 0.8272 0.0
C1262 C 0.13573 0.2493 0.82261 0.0
C1263 C 0.13896 0.2714 0.82991 0.0
C1264 C 0.15301 0.23373 0.82389 0.0
C1265 C 0.17389 0.23979 0.83266 0.0
C1266 C 0.17733 0.26191 0.83965 0.0
C1267 C 0.16 0.27756 0.83837 0.0
C1268 C 0.19197 0.22288 0.8345 0.0
C1269 C 0.21222 0.22664 0.82321 0.0
C1270 C 0.18871 0.20243 0.846 0.0
C1271 C 0.1682 0.19793 0.85929 0.0
C1272 C 0.16126 0.2128 0.87629 0.0
C1273 C 0.14175 0.20865 0.8885 0.0
C1274 C 0.12911 0.1896 0.884 0.0
C1275 C 0.13599 0.17461 0.8673 0.0
C1276 C 0.15548 0.1787 0.85502 0.0
C1277 C 0.28003 0.15778 0.83967 0.0
C1278 C 0.27415 0.13656 0.83146 0.0
C1279 C 0.26424 0.17498 0.84052 0.0
C1280 C 0.24228 0.17132 0.83312 0.0
C1281 C 0.23632 0.15007 0.82521 0.0
C1282 C 0.25207 0.13291 0.82433 0.0
C1283 C 0.22542 0.18953 0.83348 0.0
C1284 C 0.20538 0.18601 0.84521 0.0
C1285 C 0.22889 0.21015 0.82234 0.0
C1286 C 0.24921 0.21451 0.80875 0.0
C1287 C 0.25519 0.20022 0.79089 0.0
C1288 C 0.27455 0.20424 0.77838 0.0
C1289 C 0.28797 0.22261 0.78344 0.0
C1290 C 0.282 0.23706 0.80097 0.0
C1291 C 0.26267 0.2331 0.81356 0.0
H1292 H 0.30296 0.22568 0.77375 0.0
H1293 H 0.114 0.18642 0.89346 0.0
H1294 H 0.24388 0.88184 0.19209 0.0
H1295 H 0.21633 0.85199 0.18964 0.0
H1296 H 0.2636 0.81093 0.15374 0.0
H1297 H 0.29144 0.84064 0.15643 0.0
H1298 H 0.19677 0.83215 0.15466 0.0
H1299 H 0.25429 0.75604 0.16726 0.0
H1300 H 0.28994 0.74652 0.1857 0.0
H1301 H 0.28031 0.79933 0.23374 0.0
H1302 H 0.24448 0.80897 0.21578 0.0
H1303 H 0.15888 0.70686 0.15402 0.0
H1304 H 0.18841 0.73505 0.15188 0.0
H1305 H 0.14707 0.78119 0.18891 0.0
H1306 H 0.1175 0.75342 0.19082 0.0
H1307 H 0.21199 0.75629 0.18437 0.0
H1308 H 0.15565 0.83367 0.17091 0.0
H1309 H 0.11957 0.84307 0.15331 0.0
H1310 H 0.12632 0.7877 0.10779 0.0
H1311 H 0.16258 0.77817 0.12488 0.0
C1312 C 0.24847 0.86646 0.18368 0.0
C1313 C 0.26995 0.8636 0.17457 0.0
C1314 C 0.23264 0.84942 0.18223 0.0
C1315 C 0.23792 0.8291 0.17171 0.0
C1316 C 0.25923 0.82631 0.16227 0.0
C1317 C 0.27512 0.84335 0.16376 0.0
C1318 C 0.22103 0.81094 0.17071 0.0
C1319 C 0.20004 0.81563 0.16135 0.0
C1320 C 0.22545 0.78917 0.17888 0.0
C1321 C 0.24684 0.78338 0.18999 0.0
C1322 C 0.25976 0.76557 0.18179 0.0
C1323 C 0.28 0.76016 0.19216 0.0
C1324 C 0.28743 0.77237 0.21082 0.0
C1325 C 0.27458 0.78995 0.21922 0.0
C1326 C 0.25432 0.79542 0.20894 0.0
C1327 C 0.15607 0.72303 0.16165 0.0
C1328 C 0.13576 0.72789 0.1725 0.0
C1329 C 0.17298 0.73911 0.16046 0.0
C1330 C 0.16987 0.76035 0.16996 0.0
C1331 C 0.14973 0.76509 0.18106 0.0
C1332 C 0.13284 0.74911 0.18221 0.0
C1333 C 0.18764 0.77761 0.1686 0.0
C1334 C 0.20879 0.77275 0.17749 0.0
C1335 C 0.18336 0.79925 0.16005 0.0
C1336 C 0.16176 0.80511 0.14933 0.0
C1337 C 0.1495 0.82358 0.15706 0.0
C1338 C 0.129 0.82891 0.14719 0.0
C1339 C 0.12063 0.81595 0.12949 0.0
C1340 C 0.13279 0.79768 0.12156 0.0
C1341 C 0.1533 0.79229 0.13135 0.0
H1342 H 0.10474 0.82009 0.1219 0.0
H1343 H 0.30311 0.76816 0.21881 0.0
H1344 H 0.13643 0.496 0.33589 0.0
H1345 H 0.12342 0.52907 0.31552 0.0
H1346 H 0.18314 0.52826 0.2749 0.0
H1347 H 0.19559 0.49469 0.29421 0.0
H1348 H 0.13554 0.57045 0.30676 0.0
H1349 H 0.17164 0.54021 0.22106 0.0
H1350 H 0.18226 0.50486 0.20262 0.0
H1351 H 0.13591 0.46923 0.24449 0.0
H1352 H 0.12469 0.5044 0.26285 0.0
H1353 H 0.1208 0.65687 0.22506 0.0
H1354 H 0.13663 0.62813 0.24975 0.0
H1355 H 0.09433 0.57873 0.21851 0.0
H1356 H 0.07925 0.60695 0.19334 0.0
H1357 H 0.13255 0.56169 0.22339 0.0
H1358 H 0.08371 0.60253 0.27204 0.0
H1359 H 0.06873 0.63624 0.29048 0.0
H1360 H 0.13166 0.64722 0.32322 0.0
H1361 H 0.14714 0.61378 0.30464 0.0
C1362 C 0.14691 0.50301 0.32279 0.0
C1363 C 0.1669 0.49244 0.31644 0.0
C1364 C 0.13948 0.52199 0.31121 0.0
C1365 C 0.15205 0.53087 0.2933 0.0
C1366 C 0.17286 0.52139 0.28825 0.0
C1367 C 0.18002 0.5022 0.29942 0.0
C1368 C 0.1427 0.54874 0.27865 0.0
C1369 C 0.13492 0.56858 0.28853 0.0
C1370 C 0.14135 0.54612 0.25488 0.0
C1371 C 0.1475 0.52493 0.24347 0.0
C1372 C 0.16361 0.52485 0.22622 0.0
C1373 C 0.16974 0.50484 0.21579 0.0
C1374 C 0.1598 0.48481 0.2224 0.0
C1375 C 0.14362 0.48475 0.23939 0.0
C1376 C 0.13736 0.50472 0.24981 0.0
C1377 C 0.11495 0.63986 0.22343 0.0
C1378 C 0.09877 0.63425 0.20718 0.0
C1379 C 0.12391 0.62346 0.23765 0.0
C1380 C 0.11651 0.60124 0.23622 0.0
C1381 C 0.10042 0.59568 0.21994 0.0
C1382 C 0.09175 0.61192 0.20555 0.0
C1383 C 0.12551 0.58358 0.25139 0.0
C1384 C 0.13323 0.5637 0.2416 0.0
C1385 C 0.12603 0.5859 0.27524 0.0
C1386 C 0.11665 0.60577 0.28677 0.0
C1387 C 0.09439 0.61221 0.28307 0.0
C1388 C 0.08581 0.63126 0.29354 0.0
C1389 C 0.09925 0.64389 0.30797 0.0
C1390 C 0.12128 0.63744 0.31201 0.0
C1391 C 0.12997 0.61843 0.30152 0.0
H1392 H 0.09259 0.65865 0.31605 0.0
H1393 H 0.1646 0.46937 0.2143 0.0
H1394 H 0.49258 0.87197 0.67469 0.0
H1395 H 0.52742 0.88385 0.69242 0.0
H1396 H 0.53076 0.82159 0.72884 0.0
H1397 H 0.49569 0.80996 0.71186 0.0
H1398 H 0.53839 0.85326 0.75651 0.0
H1399 H 0.56674 0.83449 0.68383 0.0
H1400 H 0.56879 0.83476 0.6422 0.0
H1401 H 0.5814 0.90524 0.64294 0.0
H1402 H 0.5791 0.90545 0.68458 0.0
H1403 H 0.66278 0.88867 0.77058 0.0
H1404 H 0.63392 0.87132 0.74686 0.0
H1405 H 0.58388 0.91231 0.77872 0.0
H1406 H 0.61213 0.92913 0.80261 0.0
H1407 H 0.60307 0.88613 0.7162 0.0
H1408 H 0.53836 0.88315 0.78914 0.0
H1409 H 0.53833 0.88051 0.83076 0.0
H1410 H 0.60157 0.84701 0.82901 0.0
H1411 H 0.60183 0.84915 0.7874 0.0
C1412 C 0.50085 0.8607 0.68628 0.0
C1413 C 0.49126 0.84 0.69183 0.0
C1414 C 0.52087 0.86747 0.69634 0.0
C1415 C 0.5319 0.85355 0.71186 0.0
C1416 C 0.5226 0.83268 0.71698 0.0
C1417 C 0.50251 0.82601 0.70716 0.0
C1418 C 0.55231 0.86123 0.72388 0.0
C1419 C 0.55254 0.86031 0.74761 0.0
C1420 C 0.57106 0.87006 0.71238 0.0
C1421 C 0.57257 0.87001 0.68734 0.0
C1422 C 0.56979 0.85007 0.67512 0.0
C1423 C 0.57102 0.85014 0.65151 0.0
C1424 C 0.57517 0.87001 0.63993 0.0
C1425 C 0.57816 0.88986 0.65194 0.0
C1426 C 0.57693 0.88989 0.67554 0.0
C1427 C 0.64563 0.89401 0.77243 0.0
C1428 C 0.63974 0.91003 0.78877 0.0
C1429 C 0.62918 0.88415 0.75882 0.0
C1430 C 0.60669 0.89023 0.76133 0.0
C1431 C 0.60104 0.90698 0.77683 0.0
C1432 C 0.61729 0.9166 0.79051 0.0
C1433 C 0.58874 0.87859 0.74867 0.0
C1434 C 0.58896 0.87882 0.72495 0.0
C1435 C 0.57059 0.86857 0.76011 0.0
C1436 C 0.57017 0.86646 0.78514 0.0
C1437 C 0.55217 0.87506 0.79762 0.0
C1438 C 0.55214 0.8737 0.82123 0.0
C1439 C 0.56997 0.86367 0.83253 0.0
C1440 C 0.58781 0.85485 0.82025 0.0
C1441 C 0.5879 0.85614 0.79666 0.0
H1442 H 0.56996 0.8627 0.8508 0.0
H1443 H 0.57612 0.87003 0.62166 0.0
H1444 H 0.89354 0.3877 0.18357 0.0
H1445 H 0.88064 0.41662 0.20918 0.0
H1446 H 0.89542 0.37447 0.26632 0.0
H1447 H 0.90793 0.3449 0.24055 0.0
H1448 H 0.85743 0.39815 0.27346 0.0
H1449 H 0.9315 0.41451 0.25138 0.0
H1450 H 0.96296 0.41938 0.22504 0.0
H1451 H 0.92881 0.4737 0.19283 0.0
H1452 H 0.89693 0.46889 0.2187 0.0
H1453 H 0.8554 0.49895 0.34332 0.0
H1454 H 0.86916 0.46476 0.32508 0.0
H1455 H 0.8455 0.4886 0.26066 0.0
H1456 H 0.8313 0.52232 0.27863 0.0
H1457 H 0.89197 0.47256 0.26227 0.0
H1458 H 0.81621 0.45203 0.28328 0.0
H1459 H 0.78583 0.44664 0.31082 0.0
H1460 H 0.82608 0.39985 0.34762 0.0
H1461 H 0.85685 0.40525 0.32046 0.0
C1462 C 0.89384 0.38436 0.20154 0.0
C1463 C 0.90197 0.36399 0.20996 0.0
C1464 C 0.88653 0.40101 0.21621 0.0
C1465 C 0.88756 0.39795 0.23971 0.0
C1466 C 0.89462 0.37726 0.24825 0.0
C1467 C 0.90175 0.36038 0.23349 0.0
C1468 C 0.88214 0.41686 0.25503 0.0
C1469 C 0.86528 0.4143 0.2713 0.0
C1470 C 0.89241 0.43797 0.2523 0.0
C1471 C 0.91173 0.44123 0.23691 0.0
C1472 C 0.93062 0.42741 0.23859 0.0
C1473 C 0.94854 0.43016 0.22374 0.0
C1474 C 0.94787 0.44683 0.20726 0.0
C1475 C 0.9293 0.4608 0.20561 0.0
C1476 C 0.9113 0.45808 0.22038 0.0
C1477 C 0.85306 0.49684 0.32529 0.0
C1478 C 0.84218 0.51335 0.31245 0.0
C1479 C 0.8609 0.47732 0.31493 0.0
C1480 C 0.85834 0.47423 0.29154 0.0
C1481 C 0.84765 0.49071 0.27872 0.0
C1482 C 0.83945 0.50994 0.28908 0.0
C1483 C 0.86687 0.45395 0.28011 0.0
C1484 C 0.88439 0.4563 0.26462 0.0
C1485 C 0.85747 0.43264 0.28384 0.0
C1486 C 0.83892 0.42926 0.30002 0.0
C1487 C 0.81866 0.44076 0.29737 0.0
C1488 C 0.80135 0.43767 0.31288 0.0
C1489 C 0.80405 0.42297 0.331 0.0
C1490 C 0.82403 0.41127 0.33361 0.0
C1491 C 0.84141 0.41433 0.31816 0.0
H1492 H 0.79063 0.4206 0.343 0.0
H1493 H 0.96177 0.44896 0.1958 0.0
H1494 H 0.51594 0.18867 0.72801 0.0
H1495 H 0.48196 0.17451 0.74545 0.0
H1496 H 0.45989 0.14917 0.68107 0.0
H1497 H 0.49426 0.16285 0.66333 0.0
H1498 H 0.42612 0.17493 0.71682 0.0
H1499 H 0.47681 0.11199 0.70368 0.0
H1500 H 0.51466 0.09595 0.70474 0.0
H1501 H 0.51785 0.1072 0.77636 0.0
H1502 H 0.48016 0.12373 0.77563 0.0
H1503 H 0.34378 0.10428 0.76806 0.0
H1504 H 0.37167 0.12052 0.74272 0.0
H1505 H 0.41974 0.12033 0.79702 0.0
H1506 H 0.39252 0.10321 0.8219 0.0
H1507 H 0.43919 0.10629 0.76179 0.0
H1508 H 0.39167 0.16892 0.77738 0.0
H1509 H 0.3561 0.18946 0.77928 0.0
H1510 H 0.34828 0.1831 0.70741 0.0
H1511 H 0.38368 0.16224 0.70513 0.0
C1512 C 0.50379 0.18039 0.71738 0.0
C1513 C 0.50797 0.17672 0.69426 0.0
C1514 C 0.48433 0.17239 0.72741 0.0
C1515 C 0.46851 0.16086 0.71451 0.0
C1516 C 0.47193 0.15817 0.69122 0.0
C1517 C 0.49161 0.16588 0.68118 0.0
C1518 C 0.44979 0.1496 0.72607 0.0
C1519 C 0.4287 0.15967 0.7263 0.0
C1520 C 0.45354 0.13012 0.73893 0.0
C1521 C 0.47576 0.11926 0.73956 0.0
C1522 C 0.48564 0.11116 0.71963 0.0
C1523 C 0.50706 0.10198 0.72017 0.0
C1524 C 0.51869 0.10061 0.74059 0.0
C1525 C 0.50884 0.10829 0.76054 0.0
C1526 C 0.48745 0.11755 0.76008 0.0
C1527 C 0.36026 0.10782 0.77462 0.0
C1528 C 0.36581 0.10253 0.79711 0.0
C1529 C 0.37619 0.11719 0.76012 0.0
C1530 C 0.39783 0.12188 0.76796 0.0
C1531 C 0.40324 0.11682 0.79046 0.0
C1532 C 0.38752 0.10714 0.80479 0.0
C1533 C 0.41515 0.13162 0.75285 0.0
C1534 C 0.4362 0.12131 0.75203 0.0
C1535 C 0.41139 0.15113 0.73982 0.0
C1536 C 0.39019 0.16379 0.74112 0.0
C1537 C 0.38228 0.17176 0.76201 0.0
C1538 C 0.36216 0.18348 0.76315 0.0
C1539 C 0.3499 0.18752 0.74349 0.0
C1540 C 0.35777 0.17991 0.72263 0.0
C1541 C 0.37787 0.16815 0.7214 0.0
H1542 H 0.33432 0.19659 0.74441 0.0
H1543 H 0.5353 0.09357 0.74096 0.0
H1544 H 0.15829 0.49337 0.66272 0.0
H1545 H 0.14708 0.45817 0.68024 0.0
H1546 H 0.16804 0.48296 0.74536 0.0
H1547 H 0.18013 0.51766 0.7279 0.0
H1548 H 0.1785 0.44159 0.74303 0.0
H1549 H 0.11214 0.48344 0.72679 0.0
H1550 H 0.08605 0.50418 0.70238 0.0
H1551 H 0.07567 0.44556 0.66202 0.0
H1552 H 0.10199 0.42456 0.68603 0.0
H1553 H 0.10347 0.38858 0.8188 0.0
H1554 H 0.12042 0.41556 0.79333 0.0
H1555 H 0.12013 0.36703 0.73962 0.0
H1556 H 0.10371 0.33934 0.76535 0.0
H1557 H 0.10064 0.41582 0.73207 0.0
H1558 H 0.16583 0.3736 0.75436 0.0
H1559 H 0.19018 0.35543 0.78245 0.0
H1560 H 0.20026 0.41825 0.81576 0.0
H1561 H 0.17567 0.43673 0.78807 0.0
C1562 C 0.16069 0.49124 0.68075 0.0
C1563 C 0.16997 0.50843 0.69392 0.0
C1564 C 0.15418 0.47113 0.69076 0.0
C1565 C 0.15631 0.468 0.71422 0.0
C1566 C 0.16619 0.4849 0.72724 0.0
C1567 C 0.17304 0.50483 0.71721 0.0
C1568 C 0.14756 0.4476 0.7255 0.0
C1569 C 0.16147 0.43602 0.74058 0.0
C1570 C 0.12538 0.44006 0.72223 0.0
C1571 C 0.10923 0.45251 0.70804 0.0
C1572 C 0.10439 0.47501 0.71263 0.0
C1573 C 0.08956 0.48681 0.69887 0.0
C1574 C 0.07927 0.47622 0.68061 0.0
C1575 C 0.0837 0.45376 0.67614 0.0
C1576 C 0.09857 0.4419 0.68982 0.0
C1577 C 0.10719 0.38341 0.80169 0.0
C1578 C 0.10241 0.36163 0.79424 0.0
C1579 C 0.11682 0.39895 0.78713 0.0
C1580 C 0.12153 0.39323 0.76468 0.0
C1581 C 0.1166 0.37167 0.75695 0.0
C1582 C 0.10733 0.35588 0.7717 0.0
C1583 C 0.13156 0.41013 0.74956 0.0
C1584 C 0.11782 0.42115 0.73398 0.0
C1585 C 0.1537 0.41751 0.75277 0.0
C1586 C 0.16877 0.40651 0.76923 0.0
C1587 C 0.17309 0.3835 0.76778 0.0
C1588 C 0.18697 0.37316 0.78361 0.0
C1589 C 0.19672 0.38567 0.80091 0.0
C1590 C 0.19268 0.40857 0.80236 0.0
C1591 C 0.1788 0.419 0.78658 0.0
H1592 H 0.20745 0.37763 0.81316 0.0
H1593 H 0.06782 0.48539 0.66995 0.0
H1594 H 0.34029 0.8947 0.23998 0.0
H1595 H 0.36854 0.87957 0.26578 0.0
H1596 H 0.41577 0.8766 0.21095 0.0
H1597 H 0.38811 0.89212 0.18532 0.0
H1598 H 0.41557 0.8381 0.24036 0.0
H1599 H 0.41483 0.91922 0.24241 0.0
H1600 H 0.3953 0.95475 0.24894 0.0
H1601 H 0.38551 0.93739 0.31864 0.0
H1602 H 0.40381 0.90108 0.3122 0.0
H1603 H 0.52428 0.83714 0.27903 0.0
H1604 H 0.48909 0.84699 0.26133 0.0
H1605 H 0.46038 0.86021 0.32687 0.0
H1606 H 0.49622 0.85119 0.34479 0.0
H1607 H 0.44623 0.89029 0.29762 0.0
H1608 H 0.4491 0.81122 0.29788 0.0
H1609 H 0.46611 0.77422 0.29219 0.0
H1610 H 0.47044 0.78645 0.22081 0.0
H1611 H 0.45384 0.82372 0.2261 0.0
C1612 C 0.35659 0.89054 0.23335 0.0
C1613 C 0.36193 0.89471 0.21055 0.0
C1614 C 0.37268 0.8819 0.24812 0.0
C1615 C 0.39422 0.87703 0.24024 0.0
C1616 C 0.39921 0.88016 0.21732 0.0
C1617 C 0.38334 0.88912 0.20269 0.0
C1618 C 0.41228 0.87035 0.2559 0.0
C1619 C 0.42231 0.84946 0.2529 0.0
C1620 C 0.42055 0.885 0.2727 0.0
C1621 C 0.4104 0.90724 0.27674 0.0
C1622 C 0.40829 0.92282 0.25908 0.0
C1623 C 0.39743 0.94312 0.26275 0.0
C1624 C 0.38926 0.94839 0.28421 0.0
C1625 C 0.39183 0.93329 0.30201 0.0
C1626 C 0.40232 0.91277 0.29832 0.0
C1627 C 0.51052 0.8421 0.28975 0.0
C1628 C 0.51297 0.84308 0.31336 0.0
C1629 C 0.49033 0.84768 0.27959 0.0
C1630 C 0.47184 0.85375 0.29278 0.0
C1631 C 0.47435 0.85538 0.31635 0.0
C1632 C 0.4948 0.85018 0.32657 0.0
C1633 C 0.45003 0.85818 0.28166 0.0
C1634 C 0.43928 0.87866 0.28547 0.0
C1635 C 0.44085 0.84301 0.26579 0.0
C1636 C 0.4503 0.82034 0.26241 0.0
C1637 C 0.45375 0.80607 0.28097 0.0
C1638 C 0.46334 0.78504 0.27782 0.0
C1639 C 0.46937 0.778 0.25615 0.0
C1640 C 0.46575 0.79193 0.23758 0.0
C1641 C 0.45623 0.813 0.24064 0.0
H1642 H 0.47681 0.76173 0.25375 0.0
H1643 H 0.38096 0.96417 0.28703 0.0
H1644 H 0.85367 0.5112 0.66249 0.0
H1645 H 0.86444 0.54717 0.67876 0.0
H1646 H 0.83987 0.52589 0.74385 0.0
H1647 H 0.82822 0.49053 0.72758 0.0
H1648 H 0.82923 0.56681 0.73851 0.0
H1649 H 0.89697 0.52484 0.72778 0.0
H1650 H 0.92451 0.50367 0.70546 0.0
H1651 H 0.93633 0.56111 0.66381 0.0
H1652 H 0.90855 0.58252 0.68566 0.0
H1653 H 0.89519 0.62478 0.81764 0.0
H1654 H 0.87922 0.59706 0.79234 0.0
H1655 H 0.89251 0.63961 0.73519 0.0
H1656 H 0.90831 0.66793 0.76061 0.0
H1657 H 0.90746 0.5927 0.73141 0.0
H1658 H 0.84191 0.63558 0.74825 0.0
H1659 H 0.81551 0.65489 0.7735 0.0
H1660 H 0.80132 0.59318 0.80737 0.0
H1661 H 0.8279 0.57355 0.78255 0.0
C1662 C 0.85046 0.51426 0.68024 0.0
C1663 C 0.84018 0.49791 0.69373 0.0
C1664 C 0.8567 0.53481 0.68955 0.0
C1665 C 0.8533 0.53919 0.71266 0.0
C1666 C 0.84266 0.52302 0.72599 0.0
C1667 C 0.83607 0.5027 0.71664 0.0
C1668 C 0.86124 0.56025 0.72333 0.0
C1669 C 0.84637 0.57237 0.73697 0.0
C1670 C 0.8835 0.5679 0.72104 0.0
C1671 C 0.9005 0.55519 0.70817 0.0
C1672 C 0.90535 0.53291 0.71377 0.0
C1673 C 0.921 0.52087 0.70121 0.0
C1674 C 0.93211 0.53102 0.68319 0.0
C1675 C 0.92767 0.55326 0.67775 0.0
C1676 C 0.91197 0.56535 0.69021 0.0
C1677 C 0.89454 0.62847 0.79975 0.0
C1678 C 0.90296 0.64869 0.79121 0.0
C1679 C 0.88539 0.61255 0.7853 0.0
C1680 C 0.88463 0.61632 0.76193 0.0
C1681 C 0.89293 0.63644 0.75321 0.0
C1682 C 0.90182 0.65263 0.76777 0.0
C1683 C 0.87556 0.59877 0.74686 0.0
C1684 C 0.89023 0.58731 0.7325 0.0
C1685 C 0.85326 0.59142 0.74886 0.0
C1686 C 0.837 0.60312 0.7636 0.0
C1687 C 0.83327 0.62615 0.76118 0.0
C1688 C 0.81825 0.63715 0.7754 0.0
C1689 C 0.80677 0.62528 0.79205 0.0
C1690 C 0.81023 0.60236 0.79447 0.0
C1691 C 0.82524 0.59128 0.7803 0.0
H1692 H 0.79516 0.63383 0.80306 0.0
H1693 H 0.94421 0.52166 0.67347 0.0
H1694 H 0.61962 0.11282 0.1838 0.0
H1695 H 0.59257 0.12875 0.20981 0.0
H1696 H 0.63457 0.11132 0.26623 0.0
H1697 H 0.66229 0.09561 0.24003 0.0
H1698 H 0.58663 0.09745 0.2684 0.0
H1699 H 0.63228 0.16207 0.25718 0.0
H1700 H 0.65333 0.18931 0.23442 0.0
H1701 H 0.59324 0.20848 0.20009 0.0
H1702 H 0.57187 0.18109 0.22239 0.0
H1703 H 0.50573 0.14987 0.33881 0.0
H1704 H 0.54149 0.13883 0.32257 0.0
H1705 H 0.52229 0.16787 0.25872 0.0
H1706 H 0.48704 0.17981 0.27506 0.0
H1707 H 0.56364 0.1769 0.26583 0.0
H1708 H 0.51919 0.11009 0.27079 0.0
H1709 H 0.49654 0.08178 0.29046 0.0
H1710 H 0.55222 0.06538 0.33294 0.0
H1711 H 0.57512 0.09385 0.31373 0.0
C1712 C 0.62335 0.11255 0.20167 0.0
C1713 C 0.6432 0.10297 0.20979 0.0
C1714 C 0.60782 0.1217 0.21654 0.0
C1715 C 0.6116 0.12125 0.23991 0.0
C1716 C 0.63141 0.11184 0.24821 0.0
C1717 C 0.64725 0.103 0.23323 0.0
C1718 C 0.59424 0.13005 0.25533 0.0
C1719 C 0.58189 0.11491 0.26835 0.0
C1720 C 0.58775 0.1527 0.25464 0.0
C1721 C 0.60049 0.16942 0.24139 0.0
C1722 C 0.62357 0.17198 0.24467 0.0
C1723 C 0.63556 0.18747 0.23186 0.0
C1724 C 0.62464 0.2006 0.2158 0.0
C1725 C 0.60169 0.1983 0.21254 0.0
C1726 C 0.58962 0.18281 0.22529 0.0
C1727 C 0.50915 0.15406 0.32137 0.0
C1728 C 0.49339 0.1657 0.30828 0.0
C1729 C 0.52961 0.14762 0.31205 0.0
C1730 C 0.53454 0.15221 0.28929 0.0
C1731 C 0.51897 0.16414 0.27632 0.0
C1732 C 0.4987 0.17088 0.28571 0.0
C1733 C 0.55557 0.14422 0.27862 0.0
C1734 C 0.56858 0.1595 0.26637 0.0
C1735 C 0.56241 0.1216 0.27968 0.0
C1736 C 0.54877 0.10427 0.29102 0.0
C1737 C 0.52656 0.10054 0.28443 0.0
C1738 C 0.51368 0.08446 0.29548 0.0
C1739 C 0.52291 0.07184 0.31299 0.0
C1740 C 0.54508 0.07521 0.31941 0.0
C1741 C 0.55801 0.09131 0.30845 0.0
H1742 H 0.51291 0.05941 0.32154 0.0
H1743 H 0.63395 0.21257 0.20589 0.0
H1744 H 0.69047 0.9964 0.78114 0.0
H1745 H 0.67853 0.03101 0.76325 0.0
H1746 H 0.62972 0.04084 0.81588 0.0
H1747 H 0.64197 0.00651 0.83428 0.0
H1748 H 0.64058 0.04066 0.74502 0.0
H1749 H 0.61866 0.096 0.8226 0.0
H1750 H 0.63183 0.10216 0.86162 0.0
H1751 H 0.69688 0.07837 0.84331 0.0
H1752 H 0.68421 0.07237 0.80413 0.0
H1753 H 0.56902 0.12444 0.7087 0.0
H1754 H 0.58541 0.09513 0.7319 0.0
H1755 H 0.641 0.13808 0.74762 0.0
H1756 H 0.62405 0.168 0.72503 0.0
H1757 H 0.63072 0.11355 0.78349 0.0
H1758 H 0.64457 0.09857 0.70527 0.0
H1759 H 0.63394 0.09401 0.66526 0.0
H1760 H 0.59163 0.03896 0.68285 0.0
H1761 H 0.60179 0.04336 0.72303 0.0
C1762 C 0.67741 0.00604 0.78914 0.0
C1763 C 0.66722 0.9986 0.80922 0.0
C1764 C 0.67053 0.02583 0.77881 0.0
C1765 C 0.65329 0.03865 0.78823 0.0
C1766 C 0.64332 0.03148 0.80846 0.0
C1767 C 0.65031 0.01176 0.81893 0.0
C1768 C 0.64493 0.05877 0.77619 0.0
C1769 C 0.63853 0.05659 0.75346 0.0
C1770 C 0.64254 0.07973 0.787 0.0
C1771 C 0.6504 0.08354 0.81047 0.0
C1772 C 0.6358 0.09218 0.82687 0.0
C1773 C 0.64317 0.09562 0.84903 0.0
C1774 C 0.66515 0.09059 0.85495 0.0
C1775 C 0.67984 0.08218 0.83872 0.0
C1776 C 0.67256 0.07873 0.81654 0.0
C1777 C 0.58467 0.12772 0.71722 0.0
C1778 C 0.59547 0.14837 0.71479 0.0
C1779 C 0.59404 0.11093 0.73046 0.0
C1780 C 0.61475 0.11416 0.74103 0.0
C1781 C 0.62509 0.13515 0.73951 0.0
C1782 C 0.61544 0.1522 0.72658 0.0
C1783 C 0.62602 0.09521 0.75255 0.0
C1784 C 0.63292 0.09761 0.7751 0.0
C1785 C 0.62941 0.07456 0.74143 0.0
C1786 C 0.62385 0.07138 0.71718 0.0
C1787 C 0.63296 0.08552 0.70061 0.0
C1788 C 0.627 0.08299 0.67791 0.0
C1789 C 0.61208 0.06625 0.67152 0.0
C1790 C 0.60318 0.05193 0.68782 0.0
C1791 C 0.60906 0.05441 0.71056 0.0
H1792 H 0.60744 0.06435 0.65394 0.0
H1793 H 0.67082 0.09326 0.87212 0.0
H1794 H 0.16041 0.38424 0.27605 0.0
H1795 H 0.13102 0.36948 0.25139 0.0
H1796 H 0.08216 0.40882 0.28716 0.0
H1797 H 0.11098 0.42269 0.31223 0.0
H1798 H 0.06554 0.37093 0.28113 0.0
H1799 H 0.10291 0.42264 0.23246 0.0
H1800 H 0.13499 0.43925 0.21261 0.0
H1801 H 0.14629 0.37763 0.17749 0.0
H1802 H 0.11433 0.36057 0.19727 0.0
H1803 H 0.99389 0.37141 0.17278 0.0
H1804 H 0.02759 0.38426 0.19216 0.0
H1805 H 0.03122 0.32194 0.22835 0.0
H1806 H 0.99735 0.30925 0.20968 0.0
H1807 H 0.07044 0.37178 0.19739 0.0
H1808 H 0.04396 0.33152 0.2825 0.0
H1809 H 0.00933 0.32009 0.30181 0.0
H1810 H 0.9723 0.36866 0.26392 0.0
H1811 H 0.00674 0.38062 0.24468 0.0
C1812 C 0.14338 0.38969 0.27863 0.0
C1813 C 0.13808 0.40457 0.29621 0.0
C1814 C 0.1266 0.38135 0.26443 0.0
C1815 C 0.1043 0.38814 0.26724 0.0
C1816 C 0.09913 0.40314 0.28467 0.0
C1817 C 0.11573 0.41113 0.29902 0.0
C1818 C 0.08609 0.37948 0.25248 0.0
C1819 C 0.06674 0.3711 0.26283 0.0
C1820 C 0.08727 0.38004 0.22855 0.0
C1821 C 0.10638 0.39027 0.21651 0.0
C1822 C 0.11232 0.41259 0.22061 0.0
C1823 C 0.13047 0.42209 0.20937 0.0
C1824 C 0.14274 0.40949 0.19388 0.0
C1825 C 0.1368 0.38736 0.18952 0.0
C1826 C 0.11865 0.37778 0.20072 0.0
C1827 C 1.00203 0.3603 0.18463 0.0
C1828 C 0.99271 0.33939 0.18987 0.0
C1829 C 0.02135 0.36766 0.19564 0.0
C1830 C 0.03173 0.35422 0.21198 0.0
C1831 C 0.02327 0.33278 0.21611 0.0
C1832 C 0.00387 0.32553 0.20537 0.0
C1833 C 0.05016 0.36317 0.22613 0.0
C1834 C 0.06944 0.37155 0.2157 0.0
C1835 C 0.04862 0.36345 0.25002 0.0
C1836 C 0.02791 0.35679 0.262 0.0
C1837 C 0.02845 0.33984 0.27839 0.0
C1838 C 0.00885 0.33326 0.28931 0.0
C1839 C 0.98863 0.3436 0.28405 0.0
C1840 C 0.98796 0.36062 0.26794 0.0
C1841 C 0.00752 0.3673 0.25702 0.0
H1842 H 0.97348 0.33847 0.29251 0.0
H1843 H 0.1568 0.41688 0.18521 0.0
H1844 H 0.32833 0.0174 0.78275 0.0
H1845 H 0.33947 0.98204 0.76635 0.0
H1846 H 0.3702 0.96285 0.82936 0.0
H1847 H 0.35968 0.99891 0.84587 0.0
H1848 H 0.39614 0.95122 0.79523 0.0
H1849 H 0.31966 0.94024 0.81217 0.0
H1850 H 0.27967 0.94961 0.81345 0.0
H1851 H 0.27683 0.94884 0.74092 0.0
H1852 H 0.31691 0.93986 0.73917 0.0
H1853 H 0.4101 0.84284 0.74387 0.0
H1854 H 0.39557 0.87052 0.77075 0.0
H1855 H 0.37152 0.9104 0.71522 0.0
H1856 H 0.38622 0.88324 0.68844 0.0
H1857 H 0.34092 0.90648 0.75225 0.0
H1858 H 0.41891 0.92339 0.73673 0.0
H1859 H 0.4589 0.91391 0.73582 0.0
H1860 H 0.45806 0.90218 0.80744 0.0
H1861 H 0.41792 0.91124 0.80868 0.0
C1862 C 0.33739 0.00572 0.79327 0.0
C1863 C 0.34294 0.01103 0.81575 0.0
C1864 C 0.34366 0.98536 0.78385 0.0
C1865 C 0.35524 0.96948 0.79673 0.0
C1866 C 0.36112 0.97475 0.81911 0.0
C1867 C 0.35505 0.99535 0.82855 0.0
C1868 C 0.36145 0.94769 0.78639 0.0
C1869 C 0.38394 0.94117 0.78631 0.0
C1870 C 0.34561 0.93452 0.77461 0.0
C1871 C 0.32136 0.93947 0.77555 0.0
C1872 C 0.31054 0.94217 0.79648 0.0
C1873 C 0.28785 0.94742 0.79729 0.0
C1874 C 0.27572 0.94984 0.77728 0.0
C1875 C 0.28625 0.94695 0.75641 0.0
C1876 C 0.30895 0.94175 0.7555 0.0
C1877 C 0.40142 0.85734 0.73743 0.0
C1878 C 0.39941 0.86089 0.71399 0.0
C1879 C 0.3932 0.87315 0.75279 0.0
C1880 C 0.38255 0.89253 0.74494 0.0
C1881 C 0.37964 0.89554 0.72163 0.0
C1882 C 0.38815 0.88002 0.70632 0.0
C1883 C 0.37556 0.91051 0.76065 0.0
C1884 C 0.35294 0.91629 0.76168 0.0
C1885 C 0.39121 0.92284 0.77346 0.0
C1886 C 0.41537 0.91771 0.77275 0.0
C1887 C 0.42721 0.91861 0.75225 0.0
C1888 C 0.44991 0.91334 0.75167 0.0
C1889 C 0.461 0.90738 0.77155 0.0
C1890 C 0.44943 0.90675 0.79205 0.0
C1891 C 0.42671 0.91195 0.7927 0.0
H1892 H 0.47857 0.9033 0.77108 0.0
H1893 H 0.25816 0.95393 0.77794 0.0
H1894 H 0.83987 0.60217 0.26607 0.0
H1895 H 0.8676 0.61752 0.23984 0.0
H1896 H 0.91371 0.62615 0.29505 0.0
H1897 H 0.88656 0.61036 0.32114 0.0
H1898 H 0.91056 0.66357 0.26368 0.0
H1899 H 0.91988 0.58281 0.26576 0.0
H1900 H 0.90624 0.54426 0.26134 0.0
H1901 H 0.89012 0.55735 0.19186 0.0
H1902 H 0.90332 0.59613 0.196 0.0
H1903 H 0.01973 0.67033 0.2258 0.0
H1904 H 0.98473 0.66003 0.2435 0.0
H1905 H 0.95793 0.64116 0.17857 0.0
H1906 H 0.99356 0.65075 0.16064 0.0
H1907 H 0.94617 0.61158 0.20926 0.0
H1908 H 0.94231 0.69048 0.20501 0.0
H1909 H 0.95586 0.72909 0.20897 0.0
H1910 H 0.96026 0.72078 0.28092 0.0
H1911 H 0.94714 0.68198 0.27738 0.0
C1912 C 0.85581 0.60758 0.27267 0.0
C1913 C 0.86098 0.60498 0.29574 0.0
C1914 C 0.87162 0.61631 0.25766 0.0
C1915 C 0.89267 0.62292 0.26556 0.0
C1916 C 0.89751 0.62122 0.28867 0.0
C1917 C 0.88194 0.61213 0.30356 0.0
C1918 C 0.91032 0.63043 0.2498 0.0
C1919 C 0.91839 0.65227 0.25176 0.0
C1920 C 0.92 0.6158 0.23381 0.0
C1921 C 0.91231 0.59244 0.23127 0.0
C1922 C 0.91323 0.57753 0.2496 0.0
C1923 C 0.90562 0.55563 0.24714 0.0
C1924 C 0.89725 0.54838 0.22635 0.0
C1925 C 0.89655 0.563 0.20797 0.0
C1926 C 0.9041 0.58494 0.21036 0.0
C1927 C 0.00644 0.66408 0.21516 0.0
C1928 C 0.00944 0.66156 0.19172 0.0
C1929 C 0.98631 0.65829 0.22535 0.0
C1930 C 0.96844 0.65032 0.21233 0.0
C1931 C 0.97142 0.64744 0.18894 0.0
C1932 C 0.99176 0.65298 0.17872 0.0
C1933 C 0.94694 0.64468 0.2235 0.0
C1934 C 0.93811 0.62316 0.22074 0.0
C1935 C 0.93638 0.65971 0.2386 0.0
C1936 C 0.94382 0.68324 0.2409 0.0
C1937 C 0.94626 0.69684 0.22167 0.0
C1938 C 0.95388 0.71877 0.22384 0.0
C1939 C 0.95894 0.72737 0.24518 0.0
C1940 C 0.95633 0.71409 0.2644 0.0
C1941 C 0.94877 0.69213 0.26233 0.0
H1942 H 0.96486 0.74435 0.24682 0.0
H1943 H 0.89138 0.53141 0.22448 0.0
H1944 H 0.68866 0.0115 0.21624 0.0
H1945 H 0.67588 0.97697 0.23342 0.0
H1946 H 0.62523 0.97049 0.18209 0.0
H1947 H 0.63766 0.00548 0.16487 0.0
H1948 H 0.60793 0.96313 0.22239 0.0
H1949 H 0.67101 0.93587 0.18262 0.0
H1950 H 0.71007 0.93517 0.16968 0.0
H1951 H 0.73233 0.9261 0.23805 0.0
H1952 H 0.69342 0.92708 0.25146 0.0
H1953 H 0.61236 0.84187 0.27036 0.0
H1954 H 0.6262 0.86951 0.24318 0.0
H1955 H 0.61003 0.92234 0.28984 0.0
H1956 H 0.59608 0.89517 0.31684 0.0
H1957 H 0.65892 0.90176 0.24473 0.0
H1958 H 0.58758 0.96525 0.2614 0.0
H1959 H 0.54806 0.96465 0.27291 0.0
H1960 H 0.5411 0.89845 0.24617 0.0
H1961 H 0.58045 0.89879 0.23415 0.0
C1962 C 0.67492 0.00271 0.20838 0.0
C1963 C 0.66423 0.01136 0.18908 0.0
C1964 C 0.6677 0.98282 0.21822 0.0
C1965 C 0.64977 0.97093 0.20891 0.0
C1966 C 0.63916 0.97934 0.18953 0.0
C1967 C 0.64635 0.99932 0.17966 0.0
C1968 C 0.64146 0.95041 0.22028 0.0
C1969 C 0.61906 0.94964 0.22709 0.0
C1970 C 0.65583 0.93253 0.22605 0.0
C1971 C 0.67928 0.93167 0.21806 0.0
C1972 C 0.68424 0.93386 0.19492 0.0
C1973 C 0.70636 0.9334 0.1875 0.0
C1974 C 0.72367 0.93062 0.20304 0.0
C1975 C 0.7189 0.92824 0.22603 0.0
C1976 C 0.69681 0.92872 0.23355 0.0
C1977 C 0.61193 0.85936 0.27491 0.0
C1978 C 0.60295 0.86624 0.29578 0.0
C1979 C 0.61986 0.87512 0.25936 0.0
C1980 C 0.6188 0.89799 0.26435 0.0
C1981 C 0.61063 0.9048 0.28546 0.0
C1982 C 0.60273 0.88916 0.30094 0.0
C1983 C 0.62569 0.91501 0.2475 0.0
C1984 C 0.64777 0.91511 0.23971 0.0
C1985 C 0.61094 0.93209 0.24046 0.0
C1986 C 0.58703 0.93201 0.24701 0.0
C1987 C 0.57758 0.95063 0.25782 0.0
C1988 C 0.55521 0.95032 0.26446 0.0
C1989 C 0.5421 0.93151 0.26032 0.0
C1990 C 0.55129 0.91299 0.24942 0.0
C1991 C 0.57363 0.91324 0.2427 0.0
H1992 H 0.5248 0.93128 0.26553 0.0
H1993 H 0.74079 0.93028 0.19726 0.0
H1994 H 0.89315 0.40811 0.69083 0.0
H1995 H 0.91999 0.39119 0.7165 0.0
H1996 H 0.87009 0.38818 0.76878 0.0
H1997 H 0.84256 0.40451 0.74283 0.0
H1998 H 0.92078 0.40931 0.77618 0.0
H1999 H 0.87626 0.34403 0.75672 0.0
H2000 H 0.85695 0.31986 0.72924 0.0
H2001 H 0.91853 0.30918 0.69385 0.0
H2002 H 0.93812 0.33358 0.72094 0.0
H2003 H 0.99829 0.35061 0.84516 0.0
H2004 H 0.96308 0.3629 0.82836 0.0
H2005 H 0.98495 0.33892 0.76322 0.0
H2006 H 0.01949 0.32568 0.78004 0.0
H2007 H 0.94364 0.33033 0.76666 0.0
H2008 H 0.98803 0.39566 0.78083 0.0
H2009 H 0.00994 0.4215 0.80448 0.0
H2010 H 0.95224 0.43467 0.84531 0.0
H2011 H 0.93008 0.40859 0.82213 0.0
C2012 C 0.88766 0.40369 0.70766 0.0
C2013 C 0.86553 0.40747 0.71462 0.0
C2014 C 0.90312 0.39411 0.72235 0.0
C2015 C 0.89697 0.38845 0.74445 0.0
C2016 C 0.87508 0.39245 0.75172 0.0
C2017 C 0.85938 0.40167 0.73684 0.0
C2018 C 0.91372 0.37819 0.75959 0.0
C2019 C 0.92549 0.39191 0.77462 0.0
C2020 C 0.92027 0.35575 0.7568 0.0
C2021 C 0.9086 0.34078 0.74074 0.0
C2022 C 0.88563 0.33668 0.74296 0.0
C2023 C 0.87465 0.32291 0.72749 0.0
C2024 C 0.88649 0.31303 0.70978 0.0
C2025 C 0.90937 0.31685 0.70756 0.0
C2026 C 0.92043 0.33063 0.72299 0.0
C2027 C 0.99549 0.34781 0.82729 0.0
C2028 C 0.01179 0.33727 0.81393 0.0
C2029 C 0.97538 0.35493 0.81767 0.0
C2030 C 0.97143 0.35223 0.79438 0.0
C2031 C 0.98749 0.34122 0.7812 0.0
C2032 C 0.00734 0.33371 0.79087 0.0
C2033 C 0.95104 0.36144 0.78339 0.0
C2034 C 0.9387 0.3476 0.76885 0.0
C2035 C 0.94431 0.38395 0.78626 0.0
C2036 C 0.95748 0.39998 0.79992 0.0
C2037 C 0.98006 0.40398 0.79493 0.0
C2038 C 0.99252 0.41866 0.80825 0.0
C2039 C 0.98251 0.42967 0.82643 0.0
C2040 C 0.95999 0.42609 0.83126 0.0
C2041 C 0.94747 0.41136 0.81804 0.0
H2042 H 0.99219 0.44101 0.83674 0.0
H2043 H 0.87796 0.30239 0.6978 0.0
H2044 H 0.40042 0.15776 0.26349 0.0
H2045 H 0.3872 0.12729 0.23944 0.0
H2046 H 0.38966 0.08242 0.2964 0.0
H2047 H 0.4035 0.1124 0.32025 0.0
H2048 H 0.40819 0.06344 0.26186 0.0
H2049 H 0.33966 0.10364 0.27373 0.0
H2050 H 0.315 0.13654 0.2731 0.0
H2051 H 0.32288 0.14158 0.20113 0.0
H2052 H 0.34784 0.10887 0.20137 0.0
H2053 H 0.33661 0.97532 0.22869 0.0
H2054 H 0.35083 0.00931 0.24621 0.0
H2055 H 0.36452 0.03693 0.18039 0.0
H2056 H 0.3508 1.00249 0.16256 0.0
H2057 H 0.33978 0.06594 0.21482 0.0
H2058 H 0.40604 0.0228 0.20363 0.0
H2059 H 0.43029 0.98967 0.20545 0.0
H2060 H 0.42579 0.98978 0.27789 0.0
H2061 H 0.40103 0.0226 0.27649 0.0
C2062 C 0.39791 0.14146 0.27096 0.0
C2063 C 0.40303 0.1376 0.29386 0.0
C2064 C 0.3903 0.12404 0.25717 0.0
C2065 C 0.38731 0.10251 0.26609 0.0
C2066 C 0.39193 0.09881 0.28905 0.0
C2067 C 0.39974 0.11608 0.30274 0.0
C2068 C 0.38017 0.08351 0.25156 0.0
C2069 C 0.3931 0.06398 0.25177 0.0
C2070 C 0.36086 0.08435 0.23778 0.0
C2071 C 0.34582 0.10397 0.2376 0.0
C2072 C 0.33628 0.11188 0.25779 0.0
C2073 C 0.32222 0.13047 0.25751 0.0
C2074 C 0.31743 0.14119 0.2371 0.0
C2075 C 0.32664 0.13329 0.21693 0.0
C2076 C 0.34073 0.11472 0.21713 0.0
C2077 C 0.34255 0.98861 0.21787 0.0
C2078 C 0.34254 0.98622 0.19421 0.0
C2079 C 0.35073 0.008 0.22794 0.0
C2080 C 0.35872 0.02557 0.21459 0.0
C2081 C 0.35839 0.02351 0.19095 0.0
C2082 C 0.35064 0.00384 0.18082 0.0
C2083 C 0.36755 0.0459 0.22565 0.0
C2084 C 0.35496 0.0656 0.22479 0.0
C2085 C 0.38705 0.04518 0.23904 0.0
C2086 C 0.40149 0.02507 0.23993 0.0
C2087 C 0.40996 0.01559 0.21994 0.0
C2088 C 0.42387 0.99691 0.2209 0.0
C2089 C 0.42964 0.98768 0.24178 0.0
C2090 C 0.42138 0.99702 0.26173 0.0
C2091 C 0.40737 0.01563 0.26086 0.0
H2092 H 0.44043 0.97323 0.24249 0.0
H2093 H 0.30654 0.15558 0.23691 0.0
H2094 H 0.11367 0.5767 0.69998 0.0
H2095 H 0.08532 0.59415 0.72342 0.0
H2096 H 0.13462 0.63877 0.7512 0.0
H2097 H 0.1635 0.62079 0.7281 0.0
H2098 H 0.10605 0.62599 0.78346 0.0
H2099 H 0.09957 0.65665 0.70949 0.0
H2100 H 0.09701 0.65543 0.66792 0.0
H2101 H 0.03547 0.61915 0.67253 0.0
H2102 H 0.03779 0.61997 0.71417 0.0
H2103 H 0.99717 0.69994 0.78673 0.0
H2104 H 0.03146 0.68731 0.76883 0.0
H2105 H 0.03175 0.62887 0.81137 0.0
H2106 H 0.9977 0.64175 0.82991 0.0
H2107 H 0.03828 0.65309 0.74397 0.0
H2108 H 0.08445 0.6094 0.81837 0.0
H2109 H 0.08924 0.61403 0.85953 0.0
H2110 H 0.07476 0.6839 0.85358 0.0
H2111 H 0.0702 0.67976 0.81237 0.0
C2112 C 0.1186 0.59017 0.7111 0.0
C2113 C 0.14085 0.59753 0.71193 0.0
C2114 C 0.10231 0.60017 0.7245 0.0
C2115 C 0.10771 0.6181 0.73873 0.0
C2116 C 0.13004 0.62503 0.74025 0.0
C2117 C 0.1465 0.6148 0.72699 0.0
C2118 C 0.08977 0.62994 0.75127 0.0
C2119 C 0.09124 0.63198 0.77486 0.0
C2120 C 0.07071 0.63832 0.73999 0.0
C2121 C 0.06893 0.63826 0.71495 0.0
C2122 C 0.08553 0.64834 0.70164 0.0
C2123 C 0.08413 0.64771 0.67806 0.0
C2124 C 0.06613 0.63715 0.66758 0.0
C2125 C 0.04942 0.62731 0.68067 0.0
C2126 C 0.05074 0.62789 0.70427 0.0
C2127 C 0.00464 0.68455 0.79257 0.0
C2128 C 0.9946 0.6719 0.80984 0.0
C2129 C 0.02426 0.6773 0.78222 0.0
C2130 C 0.03433 0.65718 0.78877 0.0
C2131 C 0.02457 0.64465 0.80625 0.0
C2132 C 0.00501 0.65201 0.8168 0.0
C2133 C 0.05421 0.64872 0.77635 0.0
C2134 C 0.05309 0.64727 0.75267 0.0
C2135 C 0.07382 0.64151 0.78754 0.0
C2136 C 0.07678 0.6442 0.8123 0.0
C2137 C 0.08238 0.62577 0.82583 0.0
C2138 C 0.08504 0.6283 0.84918 0.0
C2139 C 0.08223 0.64923 0.85917 0.0
C2140 C 0.07684 0.66769 0.84583 0.0
C2141 C 0.07419 0.66524 0.82248 0.0
H2142 H 0.08428 0.65116 0.87725 0.0
H2143 H 0.0651 0.63663 0.64932 0.0
H2144 H 0.22612 0.51586 0.60177 0.0
H2145 H 0.23289 0.50293 0.56304 0.0
H2146 H 0.17254 0.53549 0.54103 0.0
H2147 H 0.16595 0.5488 0.57931 0.0
H2148 H 0.21007 0.476 0.53674 0.0
H2149 H 0.17646 0.55348 0.48798 0.0
H2150 H 0.17537 0.59434 0.49253 0.0
H2151 H 0.23318 0.59164 0.53523 0.0
H2152 H 0.23483 0.55081 0.53067 0.0
H2153 H 0.16901 0.44823 0.42973 0.0
H2154 H 0.17584 0.46227 0.46767 0.0
H2155 H 0.23027 0.50228 0.44271 0.0
H2156 H 0.22325 0.48853 0.4043 0.0
H2157 H 0.20499 0.52615 0.47021 0.0
H2158 H 0.24035 0.45568 0.47482 0.0
H2159 H 0.24437 0.41502 0.4702 0.0
H2160 H 0.1896 0.40421 0.51561 0.0
H2161 H 0.18503 0.44482 0.52025 0.0
C2162 C 0.21439 0.52039 0.58863 0.0
C2163 C 0.19553 0.53342 0.59366 0.0
C2164 C 0.21826 0.51296 0.56651 0.0
C2165 C 0.2034 0.51847 0.54901 0.0
C2166 C 0.18454 0.53141 0.55407 0.0
C2167 C 0.18073 0.53892 0.57607 0.0
C2168 C 0.20691 0.51005 0.52561 0.0
C2169 C 0.20913 0.48699 0.52221 0.0
C2170 C 0.20629 0.5244 0.50659 0.0
C2171 C 0.20567 0.54904 0.50908 0.0
C2172 C 0.18903 0.56161 0.49822 0.0
C2173 C 0.18829 0.58477 0.50083 0.0
C2174 C 0.20416 0.59557 0.5142 0.0
C2175 C 0.22086 0.58325 0.52493 0.0
C2176 C 0.22168 0.56009 0.52236 0.0
C2177 C 0.18256 0.4599 0.43222 0.0
C2178 C 0.19559 0.46725 0.4139 0.0
C2179 C 0.18652 0.46784 0.45403 0.0
C2180 C 0.20377 0.48312 0.45816 0.0
C2181 C 0.21692 0.49044 0.43995 0.0
C2182 C 0.21291 0.48253 0.41802 0.0
C2183 C 0.20722 0.49204 0.48138 0.0
C2184 C 0.20628 0.51519 0.48474 0.0
C2185 C 0.20949 0.47781 0.50035 0.0
C2186 C 0.21228 0.45333 0.49779 0.0
C2187 C 0.22908 0.44464 0.48372 0.0
C2188 C 0.23146 0.42159 0.48111 0.0
C2189 C 0.21723 0.40704 0.49258 0.0
C2190 C 0.20061 0.4155 0.50673 0.0
C2191 C 0.19814 0.43854 0.50939 0.0
H2192 H 0.2191 0.3892 0.49053 0.0
H2193 H 0.20355 0.6135 0.51622 0.0
H2194 H 0.53669 0.85195 0.42253 0.0
H2195 H 0.52369 0.84772 0.46125 0.0
H2196 H 0.51901 0.77649 0.45186 0.0
H2197 H 0.531 0.78087 0.41236 0.0
H2198 H 0.48569 0.78911 0.47617 0.0
H2199 H 0.56339 0.80198 0.48187 0.0
H2200 H 0.59935 0.82047 0.47441 0.0
H2201 H 0.57499 0.88071 0.50489 0.0
H2202 H 0.53875 0.86271 0.51222 0.0
H2203 H 0.47755 0.78119 0.59925 0.0
H2204 H 0.49315 0.77703 0.561 0.0
H2205 H 0.48154 0.84685 0.54829 0.0
H2206 H 0.46553 0.85104 0.58603 0.0
H2207 H 0.52647 0.82908 0.53689 0.0
H2208 H 0.44691 0.81473 0.52683 0.0
H2209 H 0.41224 0.79417 0.535 0.0
H2210 H 0.44328 0.73301 0.5141 0.0
H2211 H 0.47827 0.7532 0.50615 0.0
C2212 C 0.53289 0.83536 0.42868 0.0
C2213 C 0.53508 0.8167 0.41449 0.0
C2214 C 0.52558 0.83293 0.45091 0.0
C2215 C 0.521 0.8117 0.45982 0.0
C2216 C 0.52263 0.79303 0.4455 0.0
C2217 C 0.52949 0.79553 0.42295 0.0
C2218 C 0.51442 0.80932 0.48402 0.0
C2219 C 0.49491 0.7975 0.48946 0.0
C2220 C 0.52638 0.82017 0.50156 0.0
C2221 C 0.54829 0.83101 0.49748 0.0
C2222 C 0.56565 0.81921 0.48688 0.0
C2223 C 0.58609 0.8296 0.48268 0.0
C2224 C 0.58944 0.85176 0.48914 0.0
C2225 C 0.57237 0.86355 0.49989 0.0
C2226 C 0.55188 0.85325 0.50411 0.0
C2227 C 0.47839 0.79563 0.58829 0.0
C2228 C 0.47028 0.81643 0.5956 0.0
C2229 C 0.48724 0.79322 0.56648 0.0
C2230 C 0.48847 0.81165 0.55188 0.0
C2231 C 0.48075 0.83245 0.55933 0.0
C2232 C 0.47153 0.83478 0.58086 0.0
C2233 C 0.49758 0.8095 0.5287 0.0
C2234 C 0.51758 0.82043 0.52354 0.0
C2235 C 0.48635 0.79746 0.51159 0.0
C2236 C 0.46527 0.78542 0.51617 0.0
C2237 C 0.44641 0.79687 0.52419 0.0
C2238 C 0.42669 0.78529 0.52873 0.0
C2239 C 0.42558 0.76228 0.52514 0.0
C2240 C 0.44418 0.75082 0.51692 0.0
C2241 C 0.46395 0.76232 0.51239 0.0
H2242 H 0.4103 0.75335 0.52867 0.0
H2243 H 0.60527 0.85978 0.48586 0.0
H2244 H 0.84726 0.53839 0.42286 0.0
H2245 H 0.84214 0.52314 0.46076 0.0
H2246 H 0.77348 0.50831 0.44545 0.0
H2247 H 0.77859 0.5232 0.40699 0.0
H2248 H 0.78553 0.53308 0.49048 0.0
H2249 H 0.79965 0.46671 0.4466 0.0
H2250 H 0.82016 0.44448 0.41836 0.0
H2251 H 0.88001 0.45044 0.45771 0.0
H2252 H 0.85993 0.47302 0.48601 0.0
H2253 H 0.77895 0.47602 0.59718 0.0
H2254 H 0.77373 0.48713 0.5576 0.0
H2255 H 0.84456 0.48085 0.54631 0.0
H2256 H 0.8496 0.46873 0.58524 0.0
H2257 H 0.8252 0.46389 0.51271 0.0
H2258 H 0.81504 0.53302 0.55336 0.0
H2259 H 0.79769 0.55813 0.58132 0.0
H2260 H 0.73424 0.5502 0.54869 0.0
H2261 H 0.75119 0.52482 0.52068 0.0
C2262 C 0.83104 0.53191 0.42749 0.0
C2263 C 0.81332 0.53196 0.41192 0.0
C2264 C 0.82817 0.52319 0.44916 0.0
C2265 C 0.80746 0.51464 0.45585 0.0
C2266 C 0.78958 0.51489 0.44054 0.0
C2267 C 0.79256 0.52326 0.4186 0.0
C2268 C 0.80498 0.50522 0.47886 0.0
C2269 C 0.79375 0.5177 0.49536 0.0
C2270 C 0.81626 0.48551 0.48519 0.0
C2271 C 0.82831 0.4717 0.46834 0.0
C2272 C 0.81722 0.46343 0.44914 0.0
C2273 C 0.82876 0.45074 0.43314 0.0
C2274 C 0.85138 0.44608 0.43621 0.0
C2275 C 0.86249 0.45406 0.45534 0.0
C2276 C 0.85103 0.46679 0.47138 0.0
C2277 C 0.79336 0.47709 0.5862 0.0
C2278 C 0.81467 0.47148 0.59429 0.0
C2279 C 0.79039 0.48353 0.5636 0.0
C2280 C 0.80878 0.48507 0.54888 0.0
C2281 C 0.83005 0.47966 0.55715 0.0
C2282 C 0.83294 0.4728 0.57949 0.0
C2283 C 0.8062 0.49203 0.5248 0.0
C2284 C 0.81657 0.47909 0.50798 0.0
C2285 C 0.7945 0.51157 0.51831 0.0
C2286 C 0.78432 0.52682 0.53511 0.0
C2287 C 0.79736 0.5365 0.55226 0.0
C2288 C 0.7876 0.5508 0.56809 0.0
C2289 C 0.76486 0.5557 0.56683 0.0
C2290 C 0.75184 0.54635 0.54968 0.0
C2291 C 0.76151 0.53202 0.53381 0.0
H2292 H 0.75735 0.56677 0.5791 0.0
H2293 H 0.86029 0.43626 0.4238 0.0
H2294 H 0.4466 0.19634 0.41979 0.0
H2295 H 0.4577 0.20479 0.45876 0.0
H2296 H 0.52221 0.17544 0.44646 0.0
H2297 H 0.51129 0.16684 0.40775 0.0
H2298 H 0.50315 0.15877 0.48408 0.0
H2299 H 0.51576 0.23167 0.45185 0.0
H2300 H 0.50502 0.26578 0.43126 0.0
H2301 H 0.45418 0.27916 0.48053 0.0
H2302 H 0.46442 0.24494 0.50125 0.0
H2303 H 0.56387 0.18485 0.5801 0.0
H2304 H 0.55108 0.18568 0.541 0.0
H2305 H 0.48958 0.21662 0.56206 0.0
H2306 H 0.5026 0.2164 0.60143 0.0
H2307 H 0.50367 0.23298 0.52121 0.0
H2308 H 0.49151 0.1613 0.55424 0.0
H2309 H 0.50209 0.1275 0.57542 0.0
H2310 H 0.55076 0.11139 0.52477 0.0
H2311 H 0.54077 0.14533 0.50348 0.0
C2312 C 0.46327 0.192 0.42529 0.0
C2313 C 0.47802 0.18081 0.41066 0.0
C2314 C 0.46959 0.19686 0.44757 0.0
C2315 C 0.49079 0.19072 0.45554 0.0
C2316 C 0.50573 0.18023 0.44072 0.0
C2317 C 0.49946 0.17538 0.41854 0.0
C2318 C 0.49713 0.1939 0.47962 0.0
C2319 C 0.5035 0.17504 0.4921 0.0
C2320 C 0.49679 0.21501 0.49035 0.0
C2321 C 0.4907 0.23562 0.47796 0.0
C2322 C 0.50217 0.24178 0.45819 0.0
C2323 C 0.49619 0.26116 0.44652 0.0
C2324 C 0.47889 0.27459 0.45454 0.0
C2325 C 0.46756 0.26871 0.47431 0.0
C2326 C 0.47345 0.24934 0.48603 0.0
C2327 C 0.54773 0.19212 0.57643 0.0
C2328 C 0.5341 0.20029 0.59389 0.0
C2329 C 0.54043 0.19254 0.55405 0.0
C2330 C 0.51915 0.20072 0.54866 0.0
C2331 C 0.506 0.21011 0.56586 0.0
C2332 C 0.51344 0.20994 0.58833 0.0
C2333 C 0.51026 0.19791 0.52538 0.0
C2334 C 0.50325 0.21673 0.51317 0.0
C2335 C 0.50981 0.1767 0.51485 0.0
C2336 C 0.5155 0.15597 0.52734 0.0
C2337 C 0.50455 0.15062 0.54767 0.0
C2338 C 0.51045 0.13144 0.5597 0.0
C2339 C 0.52711 0.11733 0.55146 0.0
C2340 C 0.53786 0.12234 0.53114 0.0
C2341 C 0.53209 0.14155 0.51907 0.0
H2342 H 0.53164 0.10248 0.5608 0.0
H2343 H 0.47429 0.28958 0.44548 0.0
H2344 H 0.72389 0.02166 0.09739 0.0
H2345 H 0.72862 0.00634 0.05909 0.0
H2346 H 0.66105 0.0249 0.04286 0.0
H2347 H 0.65631 0.04047 0.08065 0.0
H2348 H 0.67355 0.97963 0.0312 0.0
H2349 H 0.69994 0.05641 0.02432 0.0
H2350 H 0.72481 0.08756 0.03454 0.0
H2351 H 0.78187 0.04827 0.01621 0.0
H2352 H 0.75732 0.01676 0.00619 0.0
H2353 H 0.65594 0.97482 0.91575 0.0
H2354 H 0.65988 0.98662 0.95491 0.0
H2355 H 0.73144 0.98115 0.9494 0.0
H2356 H 0.7275 0.97057 0.90942 0.0
H2357 H 0.72254 0.01526 0.97408 0.0
H2358 H 0.69795 0.94016 0.9767 0.0
H2359 H 0.67469 0.90763 0.96702 0.0
H2360 H 0.61717 0.94027 0.99478 0.0
H2361 H 0.63999 0.97315 0.00433 0.0
C2362 C 0.71007 0.02243 0.08563 0.0
C2363 C 0.68975 0.03231 0.09201 0.0
C2364 C 0.71281 0.01373 0.06379 0.0
C2365 C 0.69517 0.01452 0.04819 0.0
C2366 C 0.67484 0.02411 0.05467 0.0
C2367 C 0.67221 0.03309 0.07625 0.0
C2368 C 0.69758 0.00551 0.02499 0.0
C2369 C 0.6842 0.98741 0.01865 0.0
C2370 C 0.71213 0.01515 0.00893 0.0
C2371 C 0.72682 0.03416 0.01477 0.0
C2372 C 0.7178 0.05435 0.02266 0.0
C2373 C 0.73183 0.07208 0.02838 0.0
C2374 C 0.75491 0.06987 0.0261 0.0
C2375 C 0.764 0.04995 0.01802 0.0
C2376 C 0.75003 0.03215 0.01231 0.0
C2377 C 0.67253 0.97618 0.92285 0.0
C2378 C 0.69142 0.97156 0.90965 0.0
C2379 C 0.67478 0.98277 0.94533 0.0
C2380 C 0.69593 0.98408 0.95545 0.0
C2381 C 0.71492 0.98006 0.94209 0.0
C2382 C 0.71268 0.974 0.91928 0.0
C2383 C 0.69791 0.9897 0.97993 0.0
C2384 C 0.71215 0.00712 0.9866 0.0
C2385 C 0.68444 0.9791 0.99647 0.0
C2386 C 0.67069 0.95918 0.99113 0.0
C2387 C 0.68032 0.94045 0.98066 0.0
C2388 C 0.66721 0.92194 0.97519 0.0
C2389 C 0.64446 0.9219 0.98026 0.0
C2390 C 0.63479 0.94033 0.99087 0.0
C2391 C 0.64782 0.95889 0.99635 0.0
H2392 H 0.63434 0.90757 0.97599 0.0
H2393 H 0.76575 0.08362 0.03053 0.0
H2394 H 0.04413 0.34457 0.92425 0.0
H2395 H 0.0314 0.3394 0.96288 0.0
H2396 H 0.01255 0.27163 0.94749 0.0
H2397 H 0.02468 0.27702 0.90817 0.0
H2398 H 0.98197 0.28974 0.97332 0.0
H2399 H 0.06041 0.2837 0.97859 0.0
H2400 H 0.09971 0.29379 0.97203 0.0
H2401 H 0.09018 0.35526 0.00798 0.0
H2402 H 0.05071 0.34572 0.01445 0.0
H2403 H 0.97324 0.27578 0.09658 0.0
H2404 H 0.98841 0.27041 0.05826 0.0
H2405 H 0.98821 0.34156 0.04793 0.0
H2406 H 0.97246 0.34701 0.08565 0.0
H2407 H 0.03069 0.31429 0.03643 0.0
H2408 H 0.94992 0.32054 0.02505 0.0
H2409 H 0.91124 0.30849 0.03207 0.0
H2410 H 0.92724 0.24266 0.0085 0.0
H2411 H 0.96615 0.25427 1.00171 0.0
C2412 C 0.03735 0.3285 0.92901 0.0
C2413 C 0.03561 0.31112 0.91316 0.0
C2414 C 0.03016 0.32553 0.95122 0.0
C2415 C 0.02152 0.30494 0.95835 0.0
C2416 C 0.01932 0.28762 0.94246 0.0
C2417 C 0.02627 0.2907 0.92002 0.0
C2418 C 0.0146 0.30194 0.98236 0.0
C2419 C 0.99283 0.29466 0.98711 0.0
C2420 C 0.02871 0.30829 1.0005 0.0
C2421 C 0.05253 0.31403 0.9969 0.0
C2422 C 0.06665 0.29943 0.98499 0.0
C2423 C 0.08897 0.30505 0.98129 0.0
C2424 C 0.09743 0.32516 0.98956 0.0
C2425 C 0.0836 0.33968 1.00159 0.0
C2426 C 0.06125 0.33416 0.0053 0.0
C2427 C 0.97654 0.29024 0.08613 0.0
C2428 C 0.97163 0.3118 0.09404 0.0
C2429 C 0.98513 0.28715 0.0643 0.0
C2430 C 0.98939 0.30561 0.05036 0.0
C2431 C 0.98504 0.32713 0.05848 0.0
C2432 C 0.97598 0.33019 0.07998 0.0
C2433 C 0.99803 0.3028 0.02709 0.0
C2434 C 0.0201 0.30897 0.02257 0.0
C2435 C 0.98438 0.29507 0.00926 0.0
C2436 C 0.96099 0.28818 0.01319 0.0
C2437 C 0.94525 0.30343 0.02161 0.0
C2438 C 0.92327 0.2967 0.02549 0.0
C2439 C 0.9168 0.2748 0.02081 0.0
C2440 C 0.93228 0.25961 0.01217 0.0
C2441 C 0.9543 0.26625 0.00831 0.0
H2442 H 0.89978 0.26962 0.02381 0.0
H2443 H 0.11471 0.32949 0.98666 0.0
H2444 H 0.34362 0.04938 0.9286 0.0
H2445 H 0.33761 0.0355 0.96672 0.0
H2446 H 0.2767 0.00366 0.94519 0.0
H2447 H 0.28298 0.01709 0.90653 0.0
H2448 H 0.30757 0.04166 0.99753 0.0
H2449 H 0.2691 0.95623 0.97677 0.0
H2450 H 0.26839 0.92865 0.94579 0.0
H2451 H 0.3328 0.95083 0.92349 0.0
H2452 H 0.33399 0.97833 0.95449 0.0
H2453 H 0.28493 0.98898 0.10369 0.0
H2454 H 0.27928 0.00322 0.06522 0.0
H2455 H 0.33249 0.96104 0.04114 0.0
H2456 H 0.33788 0.9465 0.07909 0.0
H2457 H 0.29987 0.96053 0.01179 0.0
H2458 H 0.34038 0.01707 0.05302 0.0
H2459 H 0.34633 0.04409 0.08387 0.0
H2460 H 0.28661 0.07887 0.06491 0.0
H2461 H 0.28017 0.05185 0.0341 0.0
C2462 C 0.32888 0.03946 0.93188 0.0
C2463 C 0.31385 0.03422 0.91442 0.0
C2464 C 0.32541 0.03161 0.9538 0.0
C2465 C 0.30678 0.0184 0.9589 0.0
C2466 C 0.29139 0.01356 0.94163 0.0
C2467 C 0.29497 0.02127 0.91954 0.0
C2468 C 0.3042 0.00924 0.98216 0.0
C2469 C 0.30565 0.02393 1.00062 0.0
C2470 C 0.3019 0.9861 0.98631 0.0
C2471 C 0.30148 0.9695 0.96776 0.0
C2472 C 0.28312 0.95517 0.96527 0.0
C2473 C 0.28264 0.93956 0.94771 0.0
C2474 C 0.3005 0.93805 0.93263 0.0
C2475 C 0.31893 0.95208 0.93513 0.0
C2476 C 0.31951 0.96769 0.95267 0.0
C2477 C 0.29533 0.98268 0.09016 0.0
C2478 C 0.31196 0.96672 0.09455 0.0
C2479 C 0.29211 0.99085 0.06818 0.0
C2480 C 0.30559 0.98334 0.05027 0.0
C2481 C 0.32181 0.96705 0.0546 0.0
C2482 C 0.32496 0.95883 0.07642 0.0
C2483 C 0.30368 0.9929 0.02712 0.0
C2484 C 0.30131 0.9783 0.0087 0.0
C2485 C 0.30579 0.01606 0.02298 0.0
C2486 C 0.30964 0.0323 0.04146 0.0
C2487 C 0.32843 0.03038 0.05555 0.0
C2488 C 0.33191 0.04571 0.073 0.0
C2489 C 0.31682 0.06314 0.0764 0.0
C2490 C 0.29825 0.06532 0.06229 0.0
C2491 C 0.29468 0.05001 0.04483 0.0
H2492 H 0.31955 0.075 0.08991 0.0
H2493 H 0.30008 0.92597 0.91904 0.0
H2494 H 0.98071 0.66374 0.91135 0.0
H2495 H 0.99371 0.66645 0.95028 0.0
H2496 H 0.97965 0.73705 0.95025 0.0
H2497 H 0.96784 0.73454 0.91047 0.0
H2498 H 0.01523 0.7299 0.97461 0.0
H2499 H 0.94279 0.69788 0.97386 0.0
H2500 H 0.91325 0.67213 0.96128 0.0
H2501 H 0.95135 0.61636 0.98537 0.0
H2502 H 0.98129 0.64174 0.99776 0.0
H2503 H 0.01925 0.72389 0.09788 0.0
H2504 H 0.00527 0.73003 0.05927 0.0
H2505 H 0.02798 0.66448 0.0401 0.0
H2506 H 0.04208 0.65831 0.07819 0.0
H2507 H 0.98347 0.67397 0.02739 0.0
H2508 H 0.05731 0.70785 0.02468 0.0
H2509 H 0.0858 0.73478 0.03724 0.0
H2510 H 0.04198 0.7891 0.02099 0.0
H2511 H 0.0131 0.76244 0.00862 0.0
C2512 C 0.98065 0.67989 0.91956 0.0
C2513 C 0.97309 0.6989 0.90804 0.0
C2514 C 0.98792 0.68142 0.94188 0.0
C2515 C 0.98695 0.70182 0.95354 0.0
C2516 C 0.98035 0.72108 0.94172 0.0
C2517 C 0.97361 0.71966 0.91904 0.0
C2518 C 0.99215 0.70256 0.97817 0.0
C2519 C 0.00796 0.71793 0.98622 0.0
C2520 C 0.98263 0.68705 0.99347 0.0
C2521 C 0.96435 0.67174 0.98665 0.0
C2522 C 0.9449 0.68012 0.97642 0.0
C2523 C 0.92809 0.66559 0.9693 0.0
C2524 C 0.93043 0.64262 0.9725 0.0
C2525 C 0.94955 0.63415 0.98291 0.0
C2526 C 0.96644 0.64861 0.99001 0.0
C2527 C 0.02128 0.71083 0.0854 0.0
C2528 C 0.0318 0.69062 0.09113 0.0
C2529 C 0.01335 0.71438 0.06337 0.0
C2530 C 0.01562 0.69769 0.04685 0.0
C2531 C 0.02602 0.67755 0.0526 0.0
C2532 C 0.03416 0.6741 0.0744 0.0
C2533 C 0.00702 0.70075 0.02353 0.0
C2534 C 0.99045 0.68614 0.0158 0.0
C2535 C 0.01553 0.71719 0.00872 0.0
C2536 C 0.03296 0.73316 0.01598 0.0
C2537 C 0.05368 0.72553 0.02397 0.0
C2538 C 0.06991 0.74074 0.03102 0.0
C2539 C 0.06568 0.76363 0.02999 0.0
C2540 C 0.04522 0.77136 0.02183 0.0
C2541 C 0.02893 0.75621 0.01478 0.0
H2542 H 0.07826 0.77539 0.03546 0.0
H2543 H 0.91742 0.63139 0.96694 0.0
loop_
_geom_bond_atom_site_label_1
_geom_bond_atom_site_label_2
_geom_bond_distance
_geom_bond_site_symmetry_2
_ccdc_geom_bond_type
Co0 O2 2.143 . S
Co0 O8 2.074 . S
Co0 O11 2.093 . S
Co0 O24 2.097 . S
Co0 N41 2.151 . S
Co0 N49 2.214 . S
Co1 O2 2.160 . S
Co1 O7 2.058 . S
Co1 O17 2.057 . S
Co1 O32 2.037 . S
Co1 N36 2.145 . S
Co1 N57 2.257 . S
O2 Co0 2.143 . S
O2 Co1 2.160 . S
C3 O4 1.278 . S
C3 O11 1.224 . S
O4 C3 1.278 . S
C5 O6 1.245 . S
C5 O17 1.232 . S
O6 C5 1.245 . S
O7 Co1 2.058 . S
O7 C33 1.269 . S
O8 Co0 2.074 . S
O8 C33 1.257 . S
H9 C34 0.930 . S
H10 C40 0.930 . S
O11 Co0 2.093 . S
O11 C3 1.224 . S
H12 C44 0.929 . S
H13 C46 0.930 . S
H14 C47 0.930 . S
H15 C45 0.929 . S
H16 C48 0.928 . S
O17 Co1 2.057 . S
O17 C5 1.232 . S
H18 C37 0.929 . S
H19 C38 0.929 . S
H20 C50 0.931 . S
H21 C42 0.929 . S
H22 C51 0.930 . S
H23 C43 0.931 . S
O24 Co0 2.097 . S
O24 C52 1.214 . S
H25 C53 0.929 . S
H26 C54 0.929 . S
H27 C55 0.930 . S
H28 C56 0.929 . S
H29 C58 0.930 . S
H30 C35 0.930 . S
H31 C39 0.930 . S
O32 Co1 2.037 . S
O32 C52 1.234 . S
C33 O7 1.269 . S
C33 O8 1.257 . S
C34 H9 0.930 . S
C34 C37 1.388 . S
C34 C39 1.418 . S
C35 H30 0.930 . S
C35 C38 1.404 . S
C35 C39 1.353 . S
N36 Co1 2.145 . S
N36 C37 1.397 . S
N36 C38 1.334 . S
C37 H18 0.929 . S
C37 C34 1.388 . S
C37 N36 1.397 . S
C38 H19 0.929 . S
C38 C35 1.404 . S
C38 N36 1.334 . S
C39 H31 0.930 . S
C39 C34 1.418 . S
C39 C35 1.353 . S
C40 H10 0.930 . S
C40 N41 1.330 . S
C40 C42 1.446 . S
N41 Co0 2.151 . S
N41 C40 1.330 . S
N41 C45 1.418 . S
C42 H21 0.929 . S
C42 C40 1.446 . S
C42 C43 1.332 . S
C43 H23 0.931 . S
C43 C42 1.332 . S
C43 C44 1.267 . S
C44 H12 0.929 . S
C44 C43 1.267 . S
C44 C45 1.251 . S
C45 H15 0.929 . S
C45 N41 1.418 . S
C45 C44 1.251 . S
C46 H13 0.930 . S
C46 C48 1.406 . S
C46 C51 1.261 . S
C47 H14 0.930 . S
C47 N49 1.325 . S
C47 C50 1.357 . S
C48 H16 0.928 . S
C48 C46 1.406 . S
C48 N49 1.261 . S
N49 Co0 2.214 . S
N49 C47 1.325 . S
N49 C48 1.261 . S
C50 H20 0.931 . S
C50 C47 1.357 . S
C50 C51 1.312 . S
C51 H22 0.930 . S
C51 C46 1.261 . S
C51 C50 1.312 . S
C52 O24 1.214 . S
C52 O32 1.234 . S
C53 H25 0.929 . S
C53 C56 1.391 . S
C53 C58 1.391 . S
C54 H26 0.929 . S
C54 C55 1.390 . S
C54 N57 1.391 . S
C55 H27 0.930 . S
C55 C54 1.390 . S
C55 C56 1.392 . S
C56 H28 0.929 . S
C56 C53 1.391 . S
C56 C55 1.392 . S
N57 Co1 2.257 . S
N57 C54 1.391 . S
N57 C58 1.388 . S
C58 H29 0.930 . S
C58 C53 1.391 . S
C58 N57 1.388 . S
Co59 O61 2.143 . S
Co59 O67 2.074 . S
Co59 O70 2.093 . S
Co59 O83 2.097 . S
Co59 N100 2.151 . S
Co59 N108 2.214 . S
Co60 O61 2.160 . S
Co60 O66 2.058 . S
Co60 O76 2.057 . S
Co60 O91 2.037 . S
Co60 N95 2.145 . S
Co60 N116 2.257 . S
O61 Co59 2.143 . S
O61 Co60 2.160 . S
C62 O63 1.278 . S
C62 O70 1.224 . S
O63 C62 1.278 . S
C64 O65 1.245 . S
C64 O76 1.232 . S
O65 C64 1.245 . S
O66 Co60 2.058 . S
O66 C92 1.269 . S
O67 Co59 2.074 . S
O67 C92 1.257 . S
H68 C93 0.930 . S
H69 C99 0.930 . S
O70 Co59 2.093 . S
O70 C62 1.224 . S
H71 C103 0.929 . S
H72 C105 0.930 . S
H73 C106 0.930 . S
H74 C104 0.929 . S
H75 C107 0.928 . S
O76 Co60 2.057 . S
O76 C64 1.232 . S
H77 C96 0.929 . S
H78 C97 0.929 . S
H79 C109 0.931 . S
H80 C101 0.929 . S
H81 C110 0.930 . S
H82 C102 0.931 . S
O83 Co59 2.097 . S
O83 C111 1.214 . S
H84 C112 0.929 . S
H85 C113 0.929 . S
H86 C114 0.930 . S
H87 C115 0.929 . S
H88 C117 0.930 . S
H89 C94 0.930 . S
H90 C98 0.930 . S
O91 Co60 2.037 . S
O91 C111 1.234 . S
C92 O66 1.269 . S
C92 O67 1.257 . S
C93 H68 0.930 . S
C93 C96 1.388 . S
C93 C98 1.418 . S
C94 H89 0.930 . S
C94 C97 1.404 . S
C94 C98 1.353 . S
N95 Co60 2.145 . S
N95 C96 1.397 . S
N95 C97 1.334 . S
C96 H77 0.929 . S
C96 C93 1.388 . S
C96 N95 1.397 . S
C97 H78 0.929 . S
C97 C94 1.404 . S
C97 N95 1.334 . S
C98 H90 0.930 . S
C98 C93 1.418 . S
C98 C94 1.353 . S
C99 H69 0.930 . S
C99 N100 1.330 . S
C99 C101 1.446 . S
N100 Co59 2.151 . S
N100 C99 1.330 . S
N100 C104 1.418 . S
C101 H80 0.929 . S
C101 C99 1.446 . S
C101 C102 1.332 . S
C102 H82 0.931 . S
C102 C101 1.332 . S
C102 C103 1.267 . S
C103 H71 0.929 . S
C103 C102 1.267 . S
C103 C104 1.251 . S
C104 H74 0.929 . S
C104 N100 1.418 . S
C104 C103 1.251 . S
C105 H72 0.930 . S
C105 C107 1.406 . S
C105 C110 1.261 . S
C106 H73 0.930 . S
C106 N108 1.325 . S
C106 C109 1.357 . S
C107 H75 0.928 . S
C107 C105 1.406 . S
C107 N108 1.261 . S
N108 Co59 2.214 . S
N108 C106 1.325 . S
N108 C107 1.261 . S
C109 H79 0.931 . S
C109 C106 1.357 . S
C109 C110 1.312 . S
C110 H81 0.930 . S
C110 C105 1.261 . S
C110 C109 1.312 . S
C111 O83 1.214 . S
C111 O91 1.234 . S
C112 H84 0.929 . S
C112 C115 1.391 . S
C112 C117 1.391 . S
C113 H85 0.929 . S
C113 C114 1.390 . S
C113 N116 1.391 . S
C114 H86 0.930 . S
C114 C113 1.390 . S
C114 C115 1.392 . S
C115 H87 0.929 . S
C115 C112 1.391 . S
C115 C114 1.392 . S
N116 Co60 2.257 . S
N116 C113 1.391 . S
N116 C117 1.388 . S
C117 H88 0.930 . S
C117 C112 1.391 . S
C117 N116 1.388 . S
Co118 O120 2.143 . S
Co118 O126 2.074 . S
Co118 O129 2.093 . S
Co118 O142 2.097 . S
Co118 N159 2.151 . S
Co118 N167 2.214 . S
Co119 O120 2.160 . S
Co119 O125 2.058 . S
Co119 O135 2.057 . S
Co119 O150 2.037 . S
Co119 N154 2.145 . S
Co119 N175 2.257 . S
O120 Co118 2.143 . S
O120 Co119 2.160 . S
C121 O122 1.278 . S
C121 O129 1.224 . S
O122 C121 1.278 . S
C123 O124 1.245 . S
C123 O135 1.232 . S
O124 C123 1.245 . S
O125 Co119 2.058 . S
O125 C151 1.269 . S
O126 Co118 2.074 . S
O126 C151 1.257 . S
H127 C152 0.930 . S
H128 C158 0.930 . S
O129 Co118 2.093 . S
O129 C121 1.224 . S
H130 C162 0.929 . S
H131 C164 0.930 . S
H132 C165 0.930 . S
H133 C163 0.929 . S
H134 C166 0.928 . S
O135 Co119 2.057 . S
O135 C123 1.232 . S
H136 C155 0.929 . S
H137 C156 0.929 . S
H138 C168 0.931 . S
H139 C160 0.929 . S
H140 C169 0.930 . S
H141 C161 0.931 . S
O142 Co118 2.097 . S
O142 C170 1.214 . S
H143 C171 0.929 . S
H144 C172 0.929 . S
H145 C173 0.930 . S
H146 C174 0.929 . S
H147 C176 0.930 . S
H148 C153 0.930 . S
H149 C157 0.930 . S
O150 Co119 2.037 . S
O150 C170 1.234 . S
C151 O125 1.269 . S
C151 O126 1.257 . S
C152 H127 0.930 . S
C152 C155 1.388 . S
C152 C157 1.418 . S
C153 H148 0.930 . S
C153 C156 1.404 . S
C153 C157 1.353 . S
N154 Co119 2.145 . S
N154 C155 1.397 . S
N154 C156 1.334 . S
C155 H136 0.929 . S
C155 C152 1.388 . S
C155 N154 1.397 . S
C156 H137 0.929 . S
C156 C153 1.404 . S
C156 N154 1.334 . S
C157 H149 0.930 . S
C157 C152 1.418 . S
C157 C153 1.353 . S
C158 H128 0.930 . S
C158 N159 1.330 . S
C158 C160 1.446 . S
N159 Co118 2.151 . S
N159 C158 1.330 . S
N159 C163 1.418 . S
C160 H139 0.929 . S
C160 C158 1.446 . S
C160 C161 1.332 . S
C161 H141 0.931 . S
C161 C160 1.332 . S
C161 C162 1.267 . S
C162 H130 0.929 . S
C162 C161 1.267 . S
C162 C163 1.251 . S
C163 H133 0.929 . S
C163 N159 1.418 . S
C163 C162 1.251 . S
C164 H131 0.930 . S
C164 C166 1.406 . S
C164 C169 1.261 . S
C165 H132 0.930 . S
C165 N167 1.325 . S
C165 C168 1.357 . S
C166 H134 0.928 . S
C166 C164 1.406 . S
C166 N167 1.261 . S
N167 Co118 2.214 . S
N167 C165 1.325 . S
N167 C166 1.261 . S
C168 H138 0.931 . S
C168 C165 1.357 . S
C168 C169 1.312 . S
C169 H140 0.930 . S
C169 C164 1.261 . S
C169 C168 1.312 . S
C170 O142 1.214 . S
C170 O150 1.234 . S
C171 H143 0.929 . S
C171 C174 1.391 . S
C171 C176 1.391 . S
C172 H144 0.929 . S
C172 C173 1.390 . S
C172 N175 1.391 . S
C173 H145 0.930 . S
C173 C172 1.390 . S
C173 C174 1.392 . S
C174 H146 0.929 . S
C174 C171 1.391 . S
C174 C173 1.392 . S
N175 Co119 2.257 . S
N175 C172 1.391 . S
N175 C176 1.388 . S
C176 H147 0.930 . S
C176 C171 1.391 . S
C176 N175 1.388 . S
Co177 O179 2.143 . S
Co177 O185 2.074 . S
Co177 O188 2.093 . S
Co177 O201 2.097 . S
Co177 N218 2.151 . S
Co177 N226 2.214 . S
Co178 O179 2.160 . S
Co178 O184 2.058 . S
Co178 O194 2.057 . S
Co178 O209 2.037 . S
Co178 N213 2.145 . S
Co178 N234 2.257 . S
O179 Co177 2.143 . S
O179 Co178 2.160 . S
C180 O181 1.278 . S
C180 O188 1.224 . S
O181 C180 1.278 . S
C182 O183 1.245 . S
C182 O194 1.232 . S
O183 C182 1.245 . S
O184 Co178 2.058 . S
O184 C210 1.269 . S
O185 Co177 2.074 . S
O185 C210 1.257 . S
H186 C211 0.930 . S
H187 C217 0.930 . S
O188 Co177 2.093 . S
O188 C180 1.224 . S
H189 C221 0.929 . S
H190 C223 0.930 . S
H191 C224 0.930 . S
H192 C222 0.929 . S
H193 C225 0.928 . S
O194 Co178 2.057 . S
O194 C182 1.232 . S
H195 C214 0.929 . S
H196 C215 0.929 . S
H197 C227 0.931 . S
H198 C219 0.929 . S
H199 C228 0.930 . S
H200 C220 0.931 . S
O201 Co177 2.097 . S
O201 C229 1.214 . S
H202 C230 0.929 . S
H203 C231 0.929 . S
H204 C232 0.930 . S
H205 C233 0.929 . S
H206 C235 0.930 . S
H207 C212 0.930 . S
H208 C216 0.930 . S
O209 Co178 2.037 . S
O209 C229 1.234 . S
C210 O184 1.269 . S
C210 O185 1.257 . S
C211 H186 0.930 . S
C211 C214 1.388 . S
C211 C216 1.418 . S
C212 H207 0.930 . S
C212 C215 1.404 . S
C212 C216 1.353 . S
N213 Co178 2.145 . S
N213 C214 1.397 . S
N213 C215 1.334 . S
C214 H195 0.929 . S
C214 C211 1.388 . S
C214 N213 1.397 . S
C215 H196 0.929 . S
C215 C212 1.404 . S
C215 N213 1.334 . S
C216 H208 0.930 . S
C216 C211 1.418 . S
C216 C212 1.353 . S
C217 H187 0.930 . S
C217 N218 1.330 . S
C217 C219 1.446 . S
N218 Co177 2.151 . S
N218 C217 1.330 . S
N218 C222 1.418 . S
C219 H198 0.929 . S
C219 C217 1.446 . S
C219 C220 1.332 . S
C220 H200 0.931 . S
C220 C219 1.332 . S
C220 C221 1.267 . S
C221 H189 0.929 . S
C221 C220 1.267 . S
C221 C222 1.251 . S
C222 H192 0.929 . S
C222 N218 1.418 . S
C222 C221 1.251 . S
C223 H190 0.930 . S
C223 C225 1.406 . S
C223 C228 1.261 . S
C224 H191 0.930 . S
C224 N226 1.325 . S
C224 C227 1.357 . S
C225 H193 0.928 . S
C225 C223 1.406 . S
C225 N226 1.261 . S
N226 Co177 2.214 . S
N226 C224 1.325 . S
N226 C225 1.261 . S
C227 H197 0.931 . S
C227 C224 1.357 . S
C227 C228 1.312 . S
C228 H199 0.930 . S
C228 C223 1.261 . S
C228 C227 1.312 . S
C229 O201 1.214 . S
C229 O209 1.234 . S
C230 H202 0.929 . S
C230 C233 1.391 . S
C230 C235 1.391 . S
C231 H203 0.929 . S
C231 C232 1.390 . S
C231 N234 1.391 . S
C232 H204 0.930 . S
C232 C231 1.390 . S
C232 C233 1.392 . S
C233 H205 0.929 . S
C233 C230 1.391 . S
C233 C232 1.392 . S
N234 Co178 2.257 . S
N234 C231 1.391 . S
N234 C235 1.388 . S
C235 H206 0.930 . S
C235 C230 1.391 . S
C235 N234 1.388 . S
Co236 O238 2.143 . S
Co236 O244 2.074 . S
Co236 O247 2.093 . S
Co236 O260 2.097 . S
Co236 N277 2.151 . S
Co236 N285 2.214 . S
Co237 O238 2.160 . S
Co237 O243 2.058 . S
Co237 O253 2.057 . S
Co237 O268 2.037 . S
Co237 N272 2.145 . S
Co237 N293 2.257 . S
O238 Co236 2.143 . S
O238 Co237 2.160 . S
C239 O240 1.278 . S
C239 O247 1.224 . S
O240 C239 1.278 . S
C241 O242 1.245 . S
C241 O253 1.232 . S
O242 C241 1.245 . S
O243 Co237 2.058 . S
O243 C269 1.269 . S
O244 Co236 2.074 . S
O244 C269 1.257 . S
H245 C270 0.930 . S
H246 C276 0.930 . S
O247 Co236 2.093 . S
O247 C239 1.224 . S
H248 C280 0.929 . S
H249 C282 0.930 . S
H250 C283 0.930 . S
H251 C281 0.929 . S
H252 C284 0.928 . S
O253 Co237 2.057 . S
O253 C241 1.232 . S
H254 C273 0.929 . S
H255 C274 0.929 . S
H256 C286 0.931 . S
H257 C278 0.929 . S
H258 C287 0.930 . S
H259 C279 0.931 . S
O260 Co236 2.097 . S
O260 C288 1.214 . S
H261 C289 0.929 . S
H262 C290 0.929 . S
H263 C291 0.930 . S
H264 C292 0.929 . S
H265 C294 0.930 . S
H266 C271 0.930 . S
H267 C275 0.930 . S
O268 Co237 2.037 . S
O268 C288 1.234 . S
C269 O243 1.269 . S
C269 O244 1.257 . S
C270 H245 0.930 . S
C270 C273 1.388 . S
C270 C275 1.418 . S
C271 H266 0.930 . S
C271 C274 1.404 . S
C271 C275 1.353 . S
N272 Co237 2.145 . S
N272 C273 1.397 . S
N272 C274 1.334 . S
C273 H254 0.929 . S
C273 C270 1.388 . S
C273 N272 1.397 . S
C274 H255 0.929 . S
C274 C271 1.404 . S
C274 N272 1.334 . S
C275 H267 0.930 . S
C275 C270 1.418 . S
C275 C271 1.353 . S
C276 H246 0.930 . S
C276 N277 1.330 . S
C276 C278 1.446 . S
N277 Co236 2.151 . S
N277 C276 1.330 . S
N277 C281 1.418 . S
C278 H257 0.929 . S
C278 C276 1.446 . S
C278 C279 1.332 . S
C279 H259 0.931 . S
C279 C278 1.332 . S
C279 C280 1.267 . S
C280 H248 0.929 . S
C280 C279 1.267 . S
C280 C281 1.251 . S
C281 H251 0.929 . S
C281 N277 1.418 . S
C281 C280 1.251 . S
C282 H249 0.930 . S
C282 C284 1.406 . S
C282 C287 1.261 . S
C283 H250 0.930 . S
C283 N285 1.325 . S
C283 C286 1.357 . S
C284 H252 0.928 . S
C284 C282 1.406 . S
C284 N285 1.261 . S
N285 Co236 2.214 . S
N285 C283 1.325 . S
N285 C284 1.261 . S
C286 H256 0.931 . S
C286 C283 1.357 . S
C286 C287 1.312 . S
C287 H258 0.930 . S
C287 C282 1.261 . S
C287 C286 1.312 . S
C288 O260 1.214 . S
C288 O268 1.234 . S
C289 H261 0.929 . S
C289 C292 1.391 . S
C289 C294 1.391 . S
C290 H262 0.929 . S
C290 C291 1.390 . S
C290 N293 1.391 . S
C291 H263 0.930 . S
C291 C290 1.390 . S
C291 C292 1.392 . S
C292 H264 0.929 . S
C292 C289 1.391 . S
C292 C291 1.392 . S
N293 Co237 2.257 . S
N293 C290 1.391 . S
N293 C294 1.388 . S
C294 H265 0.930 . S
C294 C289 1.391 . S
C294 N293 1.388 . S
Co295 O297 2.143 . S
Co295 O303 2.074 . S
Co295 O306 2.093 . S
Co295 O319 2.097 . S
Co295 N336 2.151 . S
Co295 N344 2.214 . S
Co296 O297 2.160 . S
Co296 O302 2.058 . S
Co296 O312 2.057 . S
Co296 O327 2.037 . S
Co296 N331 2.145 . S
Co296 N352 2.257 . S
O297 Co295 2.143 . S
O297 Co296 2.160 . S
C298 O299 1.278 . S
C298 O306 1.224 . S
O299 C298 1.278 . S
C300 O301 1.245 . S
C300 O312 1.232 . S
O301 C300 1.245 . S
O302 Co296 2.058 . S
O302 C328 1.269 . S
O303 Co295 2.074 . S
O303 C328 1.257 . S
H304 C329 0.930 . S
H305 C335 0.930 . S
O306 Co295 2.093 . S
O306 C298 1.224 . S
H307 C339 0.929 . S
H308 C341 0.930 . S
H309 C342 0.930 . S
H310 C340 0.929 . S
H311 C343 0.928 . S
O312 Co296 2.057 . S
O312 C300 1.232 . S
H313 C332 0.929 . S
H314 C333 0.929 . S
H315 C345 0.931 . S
H316 C337 0.929 . S
H317 C346 0.930 . S
H318 C338 0.931 . S
O319 Co295 2.097 . S
O319 C347 1.214 . S
H320 C348 0.929 . S
H321 C349 0.929 . S
H322 C350 0.930 . S
H323 C351 0.929 . S
H324 C353 0.930 . S
H325 C330 0.930 . S
H326 C334 0.930 . S
O327 Co296 2.037 . S
O327 C347 1.234 . S
C328 O302 1.269 . S
C328 O303 1.257 . S
C329 H304 0.930 . S
C329 C332 1.388 . S
C329 C334 1.418 . S
C330 H325 0.930 . S
C330 C333 1.404 . S
C330 C334 1.353 . S
N331 Co296 2.145 . S
N331 C332 1.397 . S
N331 C333 1.334 . S
C332 H313 0.929 . S
C332 C329 1.388 . S
C332 N331 1.397 . S
C333 H314 0.929 . S
C333 C330 1.404 . S
C333 N331 1.334 . S
C334 H326 0.930 . S
C334 C329 1.418 . S
C334 C330 1.353 . S
C335 H305 0.930 . S
C335 N336 1.330 . S
C335 C337 1.446 . S
N336 Co295 2.151 . S
N336 C335 1.330 . S
N336 C340 1.418 . S
C337 H316 0.929 . S
C337 C335 1.446 . S
C337 C338 1.332 . S
C338 H318 0.931 . S
C338 C337 1.332 . S
C338 C339 1.267 . S
C339 H307 0.929 . S
C339 C338 1.267 . S
C339 C340 1.251 . S
C340 H310 0.929 . S
C340 N336 1.418 . S
C340 C339 1.251 . S
C341 H308 0.930 . S
C341 C343 1.406 . S
C341 C346 1.261 . S
C342 H309 0.930 . S
C342 N344 1.325 . S
C342 C345 1.357 . S
C343 H311 0.928 . S
C343 C341 1.406 . S
C343 N344 1.261 . S
N344 Co295 2.214 . S
N344 C342 1.325 . S
N344 C343 1.261 . S
C345 H315 0.931 . S
C345 C342 1.357 . S
C345 C346 1.312 . S
C346 H317 0.930 . S
C346 C341 1.261 . S
C346 C345 1.312 . S
C347 O319 1.214 . S
C347 O327 1.234 . S
C348 H320 0.929 . S
C348 C351 1.391 . S
C348 C353 1.391 . S
C349 H321 0.929 . S
C349 C350 1.390 . S
C349 N352 1.391 . S
C350 H322 0.930 . S
C350 C349 1.390 . S
C350 C351 1.392 . S
C351 H323 0.929 . S
C351 C348 1.391 . S
C351 C350 1.392 . S
N352 Co296 2.257 . S
N352 C349 1.391 . S
N352 C353 1.388 . S
C353 H324 0.930 . S
C353 C348 1.391 . S
C353 N352 1.388 . S
Co354 O356 2.143 . S
Co354 O362 2.074 . S
Co354 O365 2.093 . S
Co354 O378 2.097 . S
Co354 N395 2.151 . S
Co354 N403 2.214 . S
Co355 O356 2.160 . S
Co355 O361 2.058 . S
Co355 O371 2.057 . S
Co355 O386 2.037 . S
Co355 N390 2.145 . S
Co355 N411 2.257 . S
O356 Co354 2.143 . S
O356 Co355 2.160 . S
C357 O358 1.278 . S
C357 O365 1.224 . S
O358 C357 1.278 . S
C359 O360 1.245 . S
C359 O371 1.232 . S
O360 C359 1.245 . S
O361 Co355 2.058 . S
O361 C387 1.269 . S
O362 Co354 2.074 . S
O362 C387 1.257 . S
H363 C388 0.930 . S
H364 C394 0.930 . S
O365 Co354 2.093 . S
O365 C357 1.224 . S
H366 C398 0.929 . S
H367 C400 0.930 . S
H368 C401 0.930 . S
H369 C399 0.929 . S
H370 C402 0.928 . S
O371 Co355 2.057 . S
O371 C359 1.232 . S
H372 C391 0.929 . S
H373 C392 0.929 . S
H374 C404 0.931 . S
H375 C396 0.929 . S
H376 C405 0.930 . S
H377 C397 0.931 . S
O378 Co354 2.097 . S
O378 C406 1.214 . S
H379 C407 0.929 . S
H380 C408 0.929 . S
H381 C409 0.930 . S
H382 C410 0.929 . S
H383 C412 0.930 . S
H384 C389 0.930 . S
H385 C393 0.930 . S
O386 Co355 2.037 . S
O386 C406 1.234 . S
C387 O361 1.269 . S
C387 O362 1.257 . S
C388 H363 0.930 . S
C388 C391 1.388 . S
C388 C393 1.418 . S
C389 H384 0.930 . S
C389 C392 1.404 . S
C389 C393 1.353 . S
N390 Co355 2.145 . S
N390 C391 1.397 . S
N390 C392 1.334 . S
C391 H372 0.929 . S
C391 C388 1.388 . S
C391 N390 1.397 . S
C392 H373 0.929 . S
C392 C389 1.404 . S
C392 N390 1.334 . S
C393 H385 0.930 . S
C393 C388 1.418 . S
C393 C389 1.353 . S
C394 H364 0.930 . S
C394 N395 1.330 . S
C394 C396 1.446 . S
N395 Co354 2.151 . S
N395 C394 1.330 . S
N395 C399 1.418 . S
C396 H375 0.929 . S
C396 C394 1.446 . S
C396 C397 1.332 . S
C397 H377 0.931 . S
C397 C396 1.332 . S
C397 C398 1.267 . S
C398 H366 0.929 . S
C398 C397 1.267 . S
C398 C399 1.251 . S
C399 H369 0.929 . S
C399 N395 1.418 . S
C399 C398 1.251 . S
C400 H367 0.930 . S
C400 C402 1.406 . S
C400 C405 1.261 . S
C401 H368 0.930 . S
C401 N403 1.325 . S
C401 C404 1.357 . S
C402 H370 0.928 . S
C402 C400 1.406 . S
C402 N403 1.261 . S
N403 Co354 2.214 . S
N403 C401 1.325 . S
N403 C402 1.261 . S
C404 H374 0.931 . S
C404 C401 1.357 . S
C404 C405 1.312 . S
C405 H376 0.930 . S
C405 C400 1.261 . S
C405 C404 1.312 . S
C406 O378 1.214 . S
C406 O386 1.234 . S
C407 H379 0.929 . S
C407 C410 1.391 . S
C407 C412 1.391 . S
C408 H380 0.929 . S
C408 C409 1.390 . S
C408 N411 1.391 . S
C409 H381 0.930 . S
C409 C408 1.390 . S
C409 C410 1.392 . S
C410 H382 0.929 . S
C410 C407 1.391 . S
C410 C409 1.392 . S
N411 Co355 2.257 . S
N411 C408 1.391 . S
N411 C412 1.388 . S
C412 H383 0.930 . S
C412 C407 1.391 . S
C412 N411 1.388 . S
Co413 O415 2.143 . S
Co413 O421 2.074 . S
Co413 O424 2.093 . S
Co413 O437 2.097 . S
Co413 N454 2.151 . S
Co413 N462 2.214 . S
Co414 O415 2.160 . S
Co414 O420 2.058 . S
Co414 O430 2.057 . S
Co414 O445 2.037 . S
Co414 N449 2.145 . S
Co414 N470 2.257 . S
O415 Co413 2.143 . S
O415 Co414 2.160 . S
C416 O417 1.278 . S
C416 O424 1.224 . S
O417 C416 1.278 . S
C418 O419 1.245 . S
C418 O430 1.232 . S
O419 C418 1.245 . S
O420 Co414 2.058 . S
O420 C446 1.269 . S
O421 Co413 2.074 . S
O421 C446 1.257 . S
H422 C447 0.930 . S
H423 C453 0.930 . S
O424 Co413 2.093 . S
O424 C416 1.224 . S
H425 C457 0.929 . S
H426 C459 0.930 . S
H427 C460 0.930 . S
H428 C458 0.929 . S
H429 C461 0.928 . S
O430 Co414 2.057 . S
O430 C418 1.232 . S
H431 C450 0.929 . S
H432 C451 0.929 . S
H433 C463 0.931 . S
H434 C455 0.929 . S
H435 C464 0.930 . S
H436 C456 0.931 . S
O437 Co413 2.097 . S
O437 C465 1.214 . S
H438 C466 0.929 . S
H439 C467 0.929 . S
H440 C468 0.930 . S
H441 C469 0.929 . S
H442 C471 0.930 . S
H443 C448 0.930 . S
H444 C452 0.930 . S
O445 Co414 2.037 . S
O445 C465 1.234 . S
C446 O420 1.269 . S
C446 O421 1.257 . S
C447 H422 0.930 . S
C447 C450 1.388 . S
C447 C452 1.418 . S
C448 H443 0.930 . S
C448 C451 1.404 . S
C448 C452 1.353 . S
N449 Co414 2.145 . S
N449 C450 1.397 . S
N449 C451 1.334 . S
C450 H431 0.929 . S
C450 C447 1.388 . S
C450 N449 1.397 . S
C451 H432 0.929 . S
C451 C448 1.404 . S
C451 N449 1.334 . S
C452 H444 0.930 . S
C452 C447 1.418 . S
C452 C448 1.353 . S
C453 H423 0.930 . S
C453 N454 1.330 . S
C453 C455 1.446 . S
N454 Co413 2.151 . S
N454 C453 1.330 . S
N454 C458 1.418 . S
C455 H434 0.929 . S
C455 C453 1.446 . S
C455 C456 1.332 . S
C456 H436 0.931 . S
C456 C455 1.332 . S
C456 C457 1.267 . S
C457 H425 0.929 . S
C457 C456 1.267 . S
C457 C458 1.251 . S
C458 H428 0.929 . S
C458 N454 1.418 . S
C458 C457 1.251 . S
C459 H426 0.930 . S
C459 C461 1.406 . S
C459 C464 1.261 . S
C460 H427 0.930 . S
C460 N462 1.325 . S
C460 C463 1.357 . S
C461 H429 0.928 . S
C461 C459 1.406 . S
C461 N462 1.261 . S
N462 Co413 2.214 . S
N462 C460 1.325 . S
N462 C461 1.261 . S
C463 H433 0.931 . S
C463 C460 1.357 . S
C463 C464 1.312 . S
C464 H435 0.930 . S
C464 C459 1.261 . S
C464 C463 1.312 . S
C465 O437 1.214 . S
C465 O445 1.234 . S
C466 H438 0.929 . S
C466 C469 1.391 . S
C466 C471 1.391 . S
C467 H439 0.929 . S
C467 C468 1.390 . S
C467 N470 1.391 . S
C468 H440 0.930 . S
C468 C467 1.390 . S
C468 C469 1.392 . S
C469 H441 0.929 . S
C469 C466 1.391 . S
C469 C468 1.392 . S
N470 Co414 2.257 . S
N470 C467 1.391 . S
N470 C471 1.388 . S
C471 H442 0.930 . S
C471 C466 1.391 . S
C471 N470 1.388 . S
Co472 O474 2.143 . S
Co472 O480 2.074 . S
Co472 O483 2.093 . S
Co472 O496 2.097 . S
Co472 N513 2.151 . S
Co472 N521 2.214 . S
Co473 O474 2.160 . S
Co473 O479 2.058 . S
Co473 O489 2.057 . S
Co473 O504 2.037 . S
Co473 N508 2.145 . S
Co473 N529 2.257 . S
O474 Co472 2.143 . S
O474 Co473 2.160 . S
C475 O476 1.278 . S
C475 O483 1.224 . S
O476 C475 1.278 . S
C477 O478 1.245 . S
C477 O489 1.232 . S
O478 C477 1.245 . S
O479 Co473 2.058 . S
O479 C505 1.269 . S
O480 Co472 2.074 . S
O480 C505 1.257 . S
H481 C506 0.930 . S
H482 C512 0.930 . S
O483 Co472 2.093 . S
O483 C475 1.224 . S
H484 C516 0.929 . S
H485 C518 0.930 . S
H486 C519 0.930 . S
H487 C517 0.929 . S
H488 C520 0.928 . S
O489 Co473 2.057 . S
O489 C477 1.232 . S
H490 C509 0.929 . S
H491 C510 0.929 . S
H492 C522 0.931 . S
H493 C514 0.929 . S
H494 C523 0.930 . S
H495 C515 0.931 . S
O496 Co472 2.097 . S
O496 C524 1.214 . S
H497 C525 0.929 . S
H498 C526 0.929 . S
H499 C527 0.930 1_545 S
H500 C528 0.929 1_545 S
H501 C530 0.930 . S
H502 C507 0.930 . S
H503 C511 0.930 . S
O504 Co473 2.037 . S
O504 C524 1.234 . S
C505 O479 1.269 . S
C505 O480 1.257 . S
C506 H481 0.930 . S
C506 C509 1.388 . S
C506 C511 1.418 . S
C507 H502 0.930 . S
C507 C510 1.404 . S
C507 C511 1.353 . S
N508 Co473 2.145 . S
N508 C509 1.397 . S
N508 C510 1.334 . S
C509 H490 0.929 . S
C509 C506 1.388 . S
C509 N508 1.397 . S
C510 H491 0.929 . S
C510 C507 1.404 . S
C510 N508 1.334 . S
C511 H503 0.930 . S
C511 C506 1.418 . S
C511 C507 1.353 . S
C512 H482 0.930 . S
C512 N513 1.330 . S
C512 C514 1.446 . S
N513 Co472 2.151 . S
N513 C512 1.330 . S
N513 C517 1.418 . S
C514 H493 0.929 . S
C514 C512 1.446 . S
C514 C515 1.332 . S
C515 H495 0.931 . S
C515 C514 1.332 . S
C515 C516 1.267 . S
C516 H484 0.929 . S
C516 C515 1.267 . S
C516 C517 1.251 . S
C517 H487 0.929 . S
C517 N513 1.418 . S
C517 C516 1.251 . S
C518 H485 0.930 . S
C518 C520 1.406 . S
C518 C523 1.261 . S
C519 H486 0.930 . S
C519 N521 1.325 . S
C519 C522 1.357 . S
C520 H488 0.928 . S
C520 C518 1.406 . S
C520 N521 1.261 . S
N521 Co472 2.214 . S
N521 C519 1.325 . S
N521 C520 1.261 . S
C522 H492 0.931 . S
C522 C519 1.357 . S
C522 C523 1.312 . S
C523 H494 0.930 . S
C523 C518 1.261 . S
C523 C522 1.312 . S
C524 O496 1.214 . S
C524 O504 1.234 . S
C525 H497 0.929 . S
C525 C528 1.391 . S
C525 C530 1.391 . S
C526 H498 0.929 . S
C526 C527 1.390 . S
C526 N529 1.391 . S
C527 H499 0.930 1_565 S
C527 C526 1.390 . S
C527 C528 1.392 . S
C528 H500 0.929 1_565 S
C528 C525 1.391 . S
C528 C527 1.392 . S
N529 Co473 2.257 . S
N529 C526 1.391 . S
N529 C530 1.388 . S
C530 H501 0.930 . S
C530 C525 1.391 . S
C530 N529 1.388 . S
Co531 O533 2.143 . S
Co531 O539 2.074 . S
Co531 O542 2.093 . S
Co531 O555 2.097 . S
Co531 N572 2.151 . S
Co531 N580 2.214 . S
Co532 O533 2.160 . S
Co532 O538 2.058 . S
Co532 O548 2.057 . S
Co532 O563 2.037 . S
Co532 N567 2.145 . S
Co532 N588 2.257 . S
O533 Co531 2.143 . S
O533 Co532 2.160 . S
C534 O535 1.278 . S
C534 O542 1.224 . S
O535 C534 1.278 . S
C536 O537 1.245 . S
C536 O548 1.232 . S
O537 C536 1.245 . S
O538 Co532 2.058 . S
O538 C564 1.269 . S
O539 Co531 2.074 . S
O539 C564 1.257 . S
H540 C565 0.930 . S
H541 C571 0.930 . S
O542 Co531 2.093 . S
O542 C534 1.224 . S
H543 C575 0.929 . S
H544 C577 0.930 . S
H545 C578 0.930 . S
H546 C576 0.929 . S
H547 C579 0.928 . S
O548 Co532 2.057 . S
O548 C536 1.232 . S
H549 C568 0.929 . S
H550 C569 0.929 . S
H551 C581 0.931 . S
H552 C573 0.929 . S
H553 C582 0.930 . S
H554 C574 0.931 . S
O555 Co531 2.097 . S
O555 C583 1.214 . S
H556 C584 0.929 . S
H557 C585 0.929 . S
H558 C586 0.930 1_455 S
H559 C587 0.929 1_455 S
H560 C589 0.930 . S
H561 C566 0.930 . S
H562 C570 0.930 . S
O563 Co532 2.037 . S
O563 C583 1.234 . S
C564 O538 1.269 . S
C564 O539 1.257 . S
C565 H540 0.930 . S
C565 C568 1.388 . S
C565 C570 1.418 . S
C566 H561 0.930 . S
C566 C569 1.404 . S
C566 C570 1.353 . S
N567 Co532 2.145 . S
N567 C568 1.397 . S
N567 C569 1.334 . S
C568 H549 0.929 . S
C568 C565 1.388 . S
C568 N567 1.397 . S
C569 H550 0.929 . S
C569 C566 1.404 . S
C569 N567 1.334 . S
C570 H562 0.930 . S
C570 C565 1.418 . S
C570 C566 1.353 . S
C571 H541 0.930 . S
C571 N572 1.330 . S
C571 C573 1.446 . S
N572 Co531 2.151 . S
N572 C571 1.330 . S
N572 C576 1.418 . S
C573 H552 0.929 . S
C573 C571 1.446 . S
C573 C574 1.332 . S
C574 H554 0.931 . S
C574 C573 1.332 . S
C574 C575 1.267 . S
C575 H543 0.929 . S
C575 C574 1.267 . S
C575 C576 1.251 . S
C576 H546 0.929 . S
C576 N572 1.418 . S
C576 C575 1.251 . S
C577 H544 0.930 . S
C577 C579 1.406 . S
C577 C582 1.261 . S
C578 H545 0.930 . S
C578 N580 1.325 . S
C578 C581 1.357 . S
C579 H547 0.928 . S
C579 C577 1.406 . S
C579 N580 1.261 . S
N580 Co531 2.214 . S
N580 C578 1.325 . S
N580 C579 1.261 . S
C581 H551 0.931 . S
C581 C578 1.357 . S
C581 C582 1.312 . S
C582 H553 0.930 . S
C582 C577 1.261 . S
C582 C581 1.312 . S
C583 O555 1.214 . S
C583 O563 1.234 . S
C584 H556 0.929 . S
C584 C587 1.391 . S
C584 C589 1.391 . S
C585 H557 0.929 . S
C585 C586 1.390 . S
C585 N588 1.391 . S
C586 H558 0.930 1_655 S
C586 C585 1.390 . S
C586 C587 1.392 . S
C587 H559 0.929 1_655 S
C587 C584 1.391 . S
C587 C586 1.392 . S
N588 Co532 2.257 . S
N588 C585 1.391 . S
N588 C589 1.388 . S
C589 H560 0.930 . S
C589 C584 1.391 . S
C589 N588 1.388 . S
Co590 O592 2.143 . S
Co590 O598 2.074 . S
Co590 O601 2.093 . S
Co590 O614 2.097 . S
Co590 N631 2.151 . S
Co590 N639 2.214 . S
Co591 O592 2.160 . S
Co591 O597 2.058 . S
Co591 O607 2.057 . S
Co591 O622 2.037 . S
Co591 N626 2.145 . S
Co591 N647 2.257 . S
O592 Co590 2.143 . S
O592 Co591 2.160 . S
C593 O594 1.278 . S
C593 O601 1.224 . S
O594 C593 1.278 . S
C595 O596 1.245 . S
C595 O607 1.232 . S
O596 C595 1.245 . S
O597 Co591 2.058 . S
O597 C623 1.269 . S
O598 Co590 2.074 . S
O598 C623 1.257 . S
H599 C624 0.930 . S
H600 C630 0.930 . S
O601 Co590 2.093 . S
O601 C593 1.224 . S
H602 C634 0.929 . S
H603 C636 0.930 . S
H604 C637 0.930 . S
H605 C635 0.929 . S
H606 C638 0.928 . S
O607 Co591 2.057 . S
O607 C595 1.232 . S
H608 C627 0.929 . S
H609 C628 0.929 . S
H610 C640 0.931 . S
H611 C632 0.929 . S
H612 C641 0.930 . S
H613 C633 0.931 . S
O614 Co590 2.097 . S
O614 C642 1.214 . S
H615 C643 0.929 . S
H616 C644 0.929 . S
H617 C645 0.930 1_565 S
H618 C646 0.929 1_565 S
H619 C648 0.930 . S
H620 C625 0.930 . S
H621 C629 0.930 . S
O622 Co591 2.037 . S
O622 C642 1.234 . S
C623 O597 1.269 . S
C623 O598 1.257 . S
C624 H599 0.930 . S
C624 C627 1.388 . S
C624 C629 1.418 . S
C625 H620 0.930 . S
C625 C628 1.404 . S
C625 C629 1.353 . S
N626 Co591 2.145 . S
N626 C627 1.397 . S
N626 C628 1.334 . S
C627 H608 0.929 . S
C627 C624 1.388 . S
C627 N626 1.397 . S
C628 H609 0.929 . S
C628 C625 1.404 . S
C628 N626 1.334 . S
C629 H621 0.930 . S
C629 C624 1.418 . S
C629 C625 1.353 . S
C630 H600 0.930 . S
C630 N631 1.330 . S
C630 C632 1.446 . S
N631 Co590 2.151 . S
N631 C630 1.330 . S
N631 C635 1.418 . S
C632 H611 0.929 . S
C632 C630 1.446 . S
C632 C633 1.332 . S
C633 H613 0.931 . S
C633 C632 1.332 . S
C633 C634 1.267 . S
C634 H602 0.929 . S
C634 C633 1.267 . S
C634 C635 1.251 . S
C635 H605 0.929 . S
C635 N631 1.418 . S
C635 C634 1.251 . S
C636 H603 0.930 . S
C636 C638 1.406 . S
C636 C641 1.261 . S
C637 H604 0.930 . S
C637 N639 1.325 . S
C637 C640 1.357 . S
C638 H606 0.928 . S
C638 C636 1.406 . S
C638 N639 1.261 . S
N639 Co590 2.214 . S
N639 C637 1.325 . S
N639 C638 1.261 . S
C640 H610 0.931 . S
C640 C637 1.357 . S
C640 C641 1.312 . S
C641 H612 0.930 . S
C641 C636 1.261 . S
C641 C640 1.312 . S
C642 O614 1.214 . S
C642 O622 1.234 . S
C643 H615 0.929 . S
C643 C646 1.391 . S
C643 C648 1.391 . S
C644 H616 0.929 . S
C644 C645 1.390 . S
C644 N647 1.391 . S
C645 H617 0.930 1_545 S
C645 C644 1.390 . S
C645 C646 1.392 . S
C646 H618 0.929 1_545 S
C646 C643 1.391 . S
C646 C645 1.392 . S
N647 Co591 2.257 . S
N647 C644 1.391 . S
N647 C648 1.388 . S
C648 H619 0.930 . S
C648 C643 1.391 . S
C648 N647 1.388 . S
Co649 O651 2.143 . S
Co649 O657 2.074 . S
Co649 O660 2.093 . S
Co649 O673 2.097 . S
Co649 N690 2.151 . S
Co649 N698 2.214 . S
Co650 O651 2.160 . S
Co650 O656 2.058 . S
Co650 O666 2.057 . S
Co650 O681 2.037 . S
Co650 N685 2.145 . S
Co650 N706 2.257 . S
O651 Co649 2.143 . S
O651 Co650 2.160 . S
C652 O653 1.278 . S
C652 O660 1.224 . S
O653 C652 1.278 . S
C654 O655 1.245 . S
C654 O666 1.232 . S
O655 C654 1.245 . S
O656 Co650 2.058 . S
O656 C682 1.269 . S
O657 Co649 2.074 . S
O657 C682 1.257 . S
H658 C683 0.930 . S
H659 C689 0.930 . S
O660 Co649 2.093 . S
O660 C652 1.224 . S
H661 C693 0.929 . S
H662 C695 0.930 . S
H663 C696 0.930 . S
H664 C694 0.929 . S
H665 C697 0.928 . S
O666 Co650 2.057 . S
O666 C654 1.232 . S
H667 C686 0.929 . S
H668 C687 0.929 . S
H669 C699 0.931 . S
H670 C691 0.929 . S
H671 C700 0.930 . S
H672 C692 0.931 . S
O673 Co649 2.097 . S
O673 C701 1.214 . S
H674 C702 0.929 . S
H675 C703 0.929 . S
H676 C704 0.930 1_655 S
H677 C705 0.929 1_655 S
H678 C707 0.930 . S
H679 C684 0.930 . S
H680 C688 0.930 . S
O681 Co650 2.037 . S
O681 C701 1.234 . S
C682 O656 1.269 . S
C682 O657 1.257 . S
C683 H658 0.930 . S
C683 C686 1.388 . S
C683 C688 1.418 . S
C684 H679 0.930 . S
C684 C687 1.404 . S
C684 C688 1.353 . S
N685 Co650 2.145 . S
N685 C686 1.397 . S
N685 C687 1.334 . S
C686 H667 0.929 . S
C686 C683 1.388 . S
C686 N685 1.397 . S
C687 H668 0.929 . S
C687 C684 1.404 . S
C687 N685 1.334 . S
C688 H680 0.930 . S
C688 C683 1.418 . S
C688 C684 1.353 . S
C689 H659 0.930 . S
C689 N690 1.330 . S
C689 C691 1.446 . S
N690 Co649 2.151 . S
N690 C689 1.330 . S
N690 C694 1.418 . S
C691 H670 0.929 . S
C691 C689 1.446 . S
C691 C692 1.332 . S
C692 H672 0.931 . S
C692 C691 1.332 . S
C692 C693 1.267 . S
C693 H661 0.929 . S
C693 C692 1.267 . S
C693 C694 1.251 . S
C694 H664 0.929 . S
C694 N690 1.418 . S
C694 C693 1.251 . S
C695 H662 0.930 . S
C695 C697 1.406 . S
C695 C700 1.261 . S
C696 H663 0.930 . S
C696 N698 1.325 . S
C696 C699 1.357 . S
C697 H665 0.928 . S
C697 C695 1.406 . S
C697 N698 1.261 . S
N698 Co649 2.214 . S
N698 C696 1.325 . S
N698 C697 1.261 . S
C699 H669 0.931 . S
C699 C696 1.357 . S
C699 C700 1.312 . S
C700 H671 0.930 . S
C700 C695 1.261 . S
C700 C699 1.312 . S
C701 O673 1.214 . S
C701 O681 1.234 . S
C702 H674 0.929 . S
C702 C705 1.391 . S
C702 C707 1.391 . S
C703 H675 0.929 . S
C703 C704 1.390 . S
C703 N706 1.391 . S
C704 H676 0.930 1_455 S
C704 C703 1.390 . S
C704 C705 1.392 . S
C705 H677 0.929 1_455 S
C705 C702 1.391 . S
C705 C704 1.392 . S
N706 Co650 2.257 . S
N706 C703 1.391 . S
N706 C707 1.388 . S
C707 H678 0.930 . S
C707 C702 1.391 . S
C707 N706 1.388 . S
Co708 O710 2.143 . S
Co708 O716 2.074 . S
Co708 O719 2.093 . S
Co708 O732 2.097 . S
Co708 N749 2.151 . S
Co708 N757 2.214 . S
Co709 O710 2.160 . S
Co709 O715 2.058 . S
Co709 O725 2.057 . S
Co709 O740 2.037 . S
Co709 N744 2.145 . S
Co709 N765 2.257 . S
O710 Co708 2.143 . S
O710 Co709 2.160 . S
C711 O712 1.278 . S
C711 O719 1.224 . S
O712 C711 1.278 . S
C713 O714 1.245 . S
C713 O725 1.232 . S
O714 C713 1.245 . S
O715 Co709 2.058 . S
O715 C741 1.269 . S
O716 Co708 2.074 . S
O716 C741 1.257 . S
H717 C742 0.930 . S
H718 C748 0.930 . S
O719 Co708 2.093 . S
O719 C711 1.224 . S
H720 C752 0.929 . S
H721 C754 0.930 . S
H722 C755 0.930 . S
H723 C753 0.929 . S
H724 C756 0.928 . S
O725 Co709 2.057 . S
O725 C713 1.232 . S
H726 C745 0.929 . S
H727 C746 0.929 . S
H728 C758 0.931 . S
H729 C750 0.929 . S
H730 C759 0.930 . S
H731 C751 0.931 . S
O732 Co708 2.097 . S
O732 C760 1.214 . S
H733 C761 0.929 . S
H734 C762 0.929 . S
H735 C763 0.930 1_565 S
H736 C764 0.929 1_565 S
H737 C766 0.930 . S
H738 C743 0.930 . S
H739 C747 0.930 . S
O740 Co709 2.037 . S
O740 C760 1.234 . S
C741 O715 1.269 . S
C741 O716 1.257 . S
C742 H717 0.930 . S
C742 C745 1.388 . S
C742 C747 1.418 . S
C743 H738 0.930 . S
C743 C746 1.404 . S
C743 C747 1.353 . S
N744 Co709 2.145 . S
N744 C745 1.397 . S
N744 C746 1.334 . S
C745 H726 0.929 . S
C745 C742 1.388 . S
C745 N744 1.397 . S
C746 H727 0.929 . S
C746 C743 1.404 . S
C746 N744 1.334 . S
C747 H739 0.930 . S
C747 C742 1.418 . S
C747 C743 1.353 . S
C748 H718 0.930 . S
C748 N749 1.330 . S
C748 C750 1.446 . S
N749 Co708 2.151 . S
N749 C748 1.330 . S
N749 C753 1.418 . S
C750 H729 0.929 . S
C750 C748 1.446 . S
C750 C751 1.332 . S
C751 H731 0.931 . S
C751 C750 1.332 . S
C751 C752 1.267 . S
C752 H720 0.929 . S
C752 C751 1.267 . S
C752 C753 1.251 . S
C753 H723 0.929 . S
C753 N749 1.418 . S
C753 C752 1.251 . S
C754 H721 0.930 . S
C754 C756 1.406 . S
C754 C759 1.261 . S
C755 H722 0.930 . S
C755 N757 1.325 . S
C755 C758 1.357 . S
C756 H724 0.928 . S
C756 C754 1.406 . S
C756 N757 1.261 . S
N757 Co708 2.214 . S
N757 C755 1.325 . S
N757 C756 1.261 . S
C758 H728 0.931 . S
C758 C755 1.357 . S
C758 C759 1.312 . S
C759 H730 0.930 . S
C759 C754 1.261 . S
C759 C758 1.312 . S
C760 O732 1.214 . S
C760 O740 1.234 . S
C761 H733 0.929 . S
C761 C764 1.391 . S
C761 C766 1.391 . S
C762 H734 0.929 . S
C762 C763 1.390 . S
C762 N765 1.391 . S
C763 H735 0.930 1_545 S
C763 C762 1.390 . S
C763 C764 1.392 . S
C764 H736 0.929 1_545 S
C764 C761 1.391 . S
C764 C763 1.392 . S
N765 Co709 2.257 . S
N765 C762 1.391 . S
N765 C766 1.388 . S
C766 H737 0.930 . S
C766 C761 1.391 . S
C766 N765 1.388 . S
Co767 O769 2.143 . S
Co767 O775 2.074 . S
Co767 O778 2.093 . S
Co767 O791 2.097 . S
Co767 N808 2.151 . S
Co767 N816 2.214 . S
Co768 O769 2.160 . S
Co768 O774 2.058 . S
Co768 O784 2.057 . S
Co768 O799 2.037 . S
Co768 N803 2.145 . S
Co768 N824 2.257 . S
O769 Co767 2.143 . S
O769 Co768 2.160 . S
C770 O771 1.278 . S
C770 O778 1.224 . S
O771 C770 1.278 . S
C772 O773 1.245 . S
C772 O784 1.232 . S
O773 C772 1.245 . S
O774 Co768 2.058 . S
O774 C800 1.269 . S
O775 Co767 2.074 . S
O775 C800 1.257 . S
H776 C801 0.930 . S
H777 C807 0.930 . S
O778 Co767 2.093 . S
O778 C770 1.224 . S
H779 C811 0.929 . S
H780 C813 0.930 . S
H781 C814 0.930 . S
H782 C812 0.929 . S
H783 C815 0.928 . S
O784 Co768 2.057 . S
O784 C772 1.232 . S
H785 C804 0.929 . S
H786 C805 0.929 . S
H787 C817 0.931 . S
H788 C809 0.929 . S
H789 C818 0.930 . S
H790 C810 0.931 . S
O791 Co767 2.097 . S
O791 C819 1.214 . S
H792 C820 0.929 . S
H793 C821 0.929 . S
H794 C822 0.930 1_655 S
H795 C823 0.929 1_655 S
H796 C825 0.930 . S
H797 C802 0.930 . S
H798 C806 0.930 . S
O799 Co768 2.037 . S
O799 C819 1.234 . S
C800 O774 1.269 . S
C800 O775 1.257 . S
C801 H776 0.930 . S
C801 C804 1.388 . S
C801 C806 1.418 . S
C802 H797 0.930 . S
C802 C805 1.404 . S
C802 C806 1.353 . S
N803 Co768 2.145 . S
N803 C804 1.397 . S
N803 C805 1.334 . S
C804 H785 0.929 . S
C804 C801 1.388 . S
C804 N803 1.397 . S
C805 H786 0.929 . S
C805 C802 1.404 . S
C805 N803 1.334 . S
C806 H798 0.930 . S
C806 C801 1.418 . S
C806 C802 1.353 . S
C807 H777 0.930 . S
C807 N808 1.330 . S
C807 C809 1.446 . S
N808 Co767 2.151 . S
N808 C807 1.330 . S
N808 C812 1.418 . S
C809 H788 0.929 . S
C809 C807 1.446 . S
C809 C810 1.332 . S
C810 H790 0.931 . S
C810 C809 1.332 . S
C810 C811 1.267 . S
C811 H779 0.929 . S
C811 C810 1.267 . S
C811 C812 1.251 . S
C812 H782 0.929 . S
C812 N808 1.418 . S
C812 C811 1.251 . S
C813 H780 0.930 . S
C813 C815 1.406 . S
C813 C818 1.261 . S
C814 H781 0.930 . S
C814 N816 1.325 . S
C814 C817 1.357 . S
C815 H783 0.928 . S
C815 C813 1.406 . S
C815 N816 1.261 . S
N816 Co767 2.214 . S
N816 C814 1.325 . S
N816 C815 1.261 . S
C817 H787 0.931 . S
C817 C814 1.357 . S
C817 C818 1.312 . S
C818 H789 0.930 . S
C818 C813 1.261 . S
C818 C817 1.312 . S
C819 O791 1.214 . S
C819 O799 1.234 . S
C820 H792 0.929 . S
C820 C823 1.391 . S
C820 C825 1.391 . S
C821 H793 0.929 . S
C821 C822 1.390 . S
C821 N824 1.391 . S
C822 H794 0.930 1_455 S
C822 C821 1.390 . S
C822 C823 1.392 . S
C823 H795 0.929 1_455 S
C823 C820 1.391 . S
C823 C822 1.392 . S
N824 Co768 2.257 . S
N824 C821 1.391 . S
N824 C825 1.388 . S
C825 H796 0.930 . S
C825 C820 1.391 . S
C825 N824 1.388 . S
Co826 O828 2.143 . S
Co826 O834 2.074 . S
Co826 O837 2.093 . S
Co826 O850 2.097 . S
Co826 N867 2.151 . S
Co826 N875 2.214 . S
Co827 O828 2.160 . S
Co827 O833 2.058 . S
Co827 O843 2.057 . S
Co827 O858 2.037 . S
Co827 N862 2.145 . S
Co827 N883 2.257 . S
O828 Co826 2.143 . S
O828 Co827 2.160 . S
C829 O830 1.278 . S
C829 O837 1.224 . S
O830 C829 1.278 . S
C831 O832 1.245 . S
C831 O843 1.232 . S
O832 C831 1.245 . S
O833 Co827 2.058 . S
O833 C859 1.269 . S
O834 Co826 2.074 . S
O834 C859 1.257 . S
H835 C860 0.930 . S
H836 C866 0.930 . S
O837 Co826 2.093 . S
O837 C829 1.224 . S
H838 C870 0.929 . S
H839 C872 0.930 . S
H840 C873 0.930 . S
H841 C871 0.929 . S
H842 C874 0.928 . S
O843 Co827 2.057 . S
O843 C831 1.232 . S
H844 C863 0.929 . S
H845 C864 0.929 . S
H846 C876 0.931 . S
H847 C868 0.929 . S
H848 C877 0.930 . S
H849 C869 0.931 . S
O850 Co826 2.097 . S
O850 C878 1.214 . S
H851 C879 0.929 . S
H852 C880 0.929 . S
H853 C881 0.930 1_545 S
H854 C882 0.929 1_545 S
H855 C884 0.930 . S
H856 C861 0.930 . S
H857 C865 0.930 . S
O858 Co827 2.037 . S
O858 C878 1.234 . S
C859 O833 1.269 . S
C859 O834 1.257 . S
C860 H835 0.930 . S
C860 C863 1.388 . S
C860 C865 1.418 . S
C861 H856 0.930 . S
C861 C864 1.404 . S
C861 C865 1.353 . S
N862 Co827 2.145 . S
N862 C863 1.397 . S
N862 C864 1.334 . S
C863 H844 0.929 . S
C863 C860 1.388 . S
C863 N862 1.397 . S
C864 H845 0.929 . S
C864 C861 1.404 . S
C864 N862 1.334 . S
C865 H857 0.930 . S
C865 C860 1.418 . S
C865 C861 1.353 . S
C866 H836 0.930 . S
C866 N867 1.330 . S
C866 C868 1.446 . S
N867 Co826 2.151 . S
N867 C866 1.330 . S
N867 C871 1.418 . S
C868 H847 0.929 . S
C868 C866 1.446 . S
C868 C869 1.332 . S
C869 H849 0.931 . S
C869 C868 1.332 . S
C869 C870 1.267 . S
C870 H838 0.929 . S
C870 C869 1.267 . S
C870 C871 1.251 . S
C871 H841 0.929 . S
C871 N867 1.418 . S
C871 C870 1.251 . S
C872 H839 0.930 . S
C872 C874 1.406 . S
C872 C877 1.261 . S
C873 H840 0.930 . S
C873 N875 1.325 . S
C873 C876 1.357 . S
C874 H842 0.928 . S
C874 C872 1.406 . S
C874 N875 1.261 . S
N875 Co826 2.214 . S
N875 C873 1.325 . S
N875 C874 1.261 . S
C876 H846 0.931 . S
C876 C873 1.357 . S
C876 C877 1.312 . S
C877 H848 0.930 . S
C877 C872 1.261 . S
C877 C876 1.312 . S
C878 O850 1.214 . S
C878 O858 1.234 . S
C879 H851 0.929 . S
C879 C882 1.391 . S
C879 C884 1.391 . S
C880 H852 0.929 . S
C880 C881 1.390 . S
C880 N883 1.391 . S
C881 H853 0.930 1_565 S
C881 C880 1.390 . S
C881 C882 1.392 . S
C882 H854 0.929 1_565 S
C882 C879 1.391 . S
C882 C881 1.392 . S
N883 Co827 2.257 . S
N883 C880 1.391 . S
N883 C884 1.388 . S
C884 H855 0.930 . S
C884 C879 1.391 . S
C884 N883 1.388 . S
Co885 O887 2.143 . S
Co885 O893 2.074 . S
Co885 O896 2.093 . S
Co885 O909 2.097 . S
Co885 N926 2.151 . S
Co885 N934 2.214 . S
Co886 O887 2.160 . S
Co886 O892 2.058 . S
Co886 O902 2.057 . S
Co886 O917 2.037 . S
Co886 N921 2.145 . S
Co886 N942 2.257 . S
O887 Co885 2.143 . S
O887 Co886 2.160 . S
C888 O889 1.278 . S
C888 O896 1.224 . S
O889 C888 1.278 . S
C890 O891 1.245 . S
C890 O902 1.232 . S
O891 C890 1.245 . S
O892 Co886 2.058 . S
O892 C918 1.269 . S
O893 Co885 2.074 . S
O893 C918 1.257 . S
H894 C919 0.930 . S
H895 C925 0.930 . S
O896 Co885 2.093 . S
O896 C888 1.224 . S
H897 C929 0.929 . S
H898 C931 0.930 . S
H899 C932 0.930 . S
H900 C930 0.929 . S
H901 C933 0.928 . S
O902 Co886 2.057 . S
O902 C890 1.232 . S
H903 C922 0.929 . S
H904 C923 0.929 . S
H905 C935 0.931 . S
H906 C927 0.929 . S
H907 C936 0.930 . S
H908 C928 0.931 . S
O909 Co885 2.097 . S
O909 C937 1.214 . S
H910 C938 0.929 . S
H911 C939 0.929 . S
H912 C940 0.930 1_455 S
H913 C941 0.929 1_455 S
H914 C943 0.930 . S
H915 C920 0.930 . S
H916 C924 0.930 . S
O917 Co886 2.037 . S
O917 C937 1.234 . S
C918 O892 1.269 . S
C918 O893 1.257 . S
C919 H894 0.930 . S
C919 C922 1.388 . S
C919 C924 1.418 . S
C920 H915 0.930 . S
C920 C923 1.404 . S
C920 C924 1.353 . S
N921 Co886 2.145 . S
N921 C922 1.397 . S
N921 C923 1.334 . S
C922 H903 0.929 . S
C922 C919 1.388 . S
C922 N921 1.397 . S
C923 H904 0.929 . S
C923 C920 1.404 . S
C923 N921 1.334 . S
C924 H916 0.930 . S
C924 C919 1.418 . S
C924 C920 1.353 . S
C925 H895 0.930 . S
C925 N926 1.330 . S
C925 C927 1.446 . S
N926 Co885 2.151 . S
N926 C925 1.330 . S
N926 C930 1.418 . S
C927 H906 0.929 . S
C927 C925 1.446 . S
C927 C928 1.332 . S
C928 H908 0.931 . S
C928 C927 1.332 . S
C928 C929 1.267 . S
C929 H897 0.929 . S
C929 C928 1.267 . S
C929 C930 1.251 . S
C930 H900 0.929 . S
C930 N926 1.418 . S
C930 C929 1.251 . S
C931 H898 0.930 . S
C931 C933 1.406 . S
C931 C936 1.261 . S
C932 H899 0.930 . S
C932 N934 1.325 . S
C932 C935 1.357 . S
C933 H901 0.928 . S
C933 C931 1.406 . S
C933 N934 1.261 . S
N934 Co885 2.214 . S
N934 C932 1.325 . S
N934 C933 1.261 . S
C935 H905 0.931 . S
C935 C932 1.357 . S
C935 C936 1.312 . S
C936 H907 0.930 . S
C936 C931 1.261 . S
C936 C935 1.312 . S
C937 O909 1.214 . S
C937 O917 1.234 . S
C938 H910 0.929 . S
C938 C941 1.391 . S
C938 C943 1.391 . S
C939 H911 0.929 . S
C939 C940 1.390 . S
C939 N942 1.391 . S
C940 H912 0.930 1_655 S
C940 C939 1.390 . S
C940 C941 1.392 . S
C941 H913 0.929 1_655 S
C941 C938 1.391 . S
C941 C940 1.392 . S
N942 Co886 2.257 . S
N942 C939 1.391 . S
N942 C943 1.388 . S
C943 H914 0.930 . S
C943 C938 1.391 . S
C943 N942 1.388 . S
H944 C962 0.951 . S
H945 C964 0.951 . S
H946 C966 0.950 . S
H947 C967 0.950 . S
H948 C969 0.950 . S
H949 C972 0.950 . S
H950 C973 0.950 . S
H951 C975 0.950 . S
H952 C976 0.950 . S
H953 C977 0.951 . S
H954 C979 0.951 . S
H955 C981 0.950 . S
H956 C982 0.950 . S
H957 C984 0.950 . S
H958 C987 0.950 . S
H959 C988 0.950 . S
H960 C990 0.950 . S
H961 C991 0.950 . S
C962 H944 0.951 . S
C962 C963 1.366 . S
C962 C964 1.388 . S
C963 C962 1.366 . S
C963 C967 1.385 . S
C964 H945 0.951 . S
C964 C962 1.388 . S
C964 C965 1.366 . S
C965 C964 1.366 . S
C965 C966 1.414 . S
C965 C968 1.499 . S
C966 H946 0.950 . S
C966 C965 1.414 . S
C966 C967 1.374 . S
C967 H947 0.950 . S
C967 C963 1.385 . S
C967 C966 1.374 . S
C968 C965 1.499 . S
C968 C969 1.373 . S
C968 C970 1.389 . S
C969 H948 0.950 . S
C969 C968 1.373 . S
C969 C985 1.377 . S
C970 C968 1.389 . S
C970 C971 1.524 . S
C970 C984 1.377 . S
C971 C970 1.524 . S
C971 C972 1.397 . S
C971 C976 1.363 . S
C972 H949 0.950 . S
C972 C971 1.397 . S
C972 C973 1.334 . S
C973 H950 0.950 . S
C973 C972 1.334 . S
C973 C974 1.287 . S
C974 C973 1.287 . S
C974 C975 1.524 . S
C974 H993 0.913 . S
C975 H951 0.950 . S
C975 C974 1.524 . S
C975 C976 1.415 . S
C976 H952 0.950 . S
C976 C971 1.363 . S
C976 C975 1.415 . S
C977 H953 0.951 . S
C977 C978 1.366 . S
C977 C979 1.388 . S
C978 C977 1.366 . S
C978 C982 1.385 . S
C979 H954 0.951 . S
C979 C977 1.388 . S
C979 C980 1.366 . S
C980 C979 1.366 . S
C980 C981 1.414 . S
C980 C983 1.499 . S
C981 H955 0.950 . S
C981 C980 1.414 . S
C981 C982 1.374 . S
C982 H956 0.950 . S
C982 C978 1.385 . S
C982 C981 1.374 . S
C983 C980 1.499 . S
C983 C984 1.373 . S
C983 C985 1.389 . S
C984 H957 0.950 . S
C984 C970 1.377 . S
C984 C983 1.373 . S
C985 C969 1.377 . S
C985 C983 1.389 . S
C985 C986 1.524 . S
C986 C985 1.524 . S
C986 C987 1.397 . S
C986 C991 1.363 . S
C987 H958 0.950 . S
C987 C986 1.397 . S
C987 C988 1.334 . S
C988 H959 0.950 . S
C988 C987 1.334 . S
C988 C989 1.287 . S
C989 C988 1.287 . S
C989 C990 1.524 . S
C989 H992 0.999 . S
C990 H960 0.950 . S
C990 C989 1.524 . S
C990 C991 1.415 . S
C991 H961 0.950 . S
C991 C986 1.363 . S
C991 C990 1.415 . S
H992 C989 0.999 . S
H993 C974 0.913 . S
H994 C1012 0.951 . S
H995 C1014 0.951 . S
H996 C1016 0.950 . S
H997 C1017 0.950 . S
H998 C1019 0.950 . S
H999 C1022 0.950 . S
H1000 C1023 0.950 . S
H1001 C1025 0.950 . S
H1002 C1026 0.950 . S
H1003 C1027 0.951 . S
H1004 C1029 0.951 . S
H1005 C1031 0.950 . S
H1006 C1032 0.950 . S
H1007 C1034 0.950 . S
H1008 C1037 0.950 . S
H1009 C1038 0.950 . S
H1010 C1040 0.950 . S
H1011 C1041 0.950 . S
C1012 H994 0.951 . S
C1012 C1013 1.366 . S
C1012 C1014 1.388 . S
C1013 C1012 1.366 . S
C1013 C1017 1.385 . S
C1014 H995 0.951 . S
C1014 C1012 1.388 . S
C1014 C1015 1.366 . S
C1015 C1014 1.366 . S
C1015 C1016 1.414 . S
C1015 C1018 1.499 . S
C1016 H996 0.950 . S
C1016 C1015 1.414 . S
C1016 C1017 1.374 . S
C1017 H997 0.950 . S
C1017 C1013 1.385 . S
C1017 C1016 1.374 . S
C1018 C1015 1.499 . S
C1018 C1019 1.373 . S
C1018 C1020 1.389 . S
C1019 H998 0.950 . S
C1019 C1018 1.373 . S
C1019 C1035 1.377 . S
C1020 C1018 1.389 . S
C1020 C1021 1.524 . S
C1020 C1034 1.377 . S
C1021 C1020 1.524 . S
C1021 C1022 1.397 . S
C1021 C1026 1.363 . S
C1022 H999 0.950 . S
C1022 C1021 1.397 . S
C1022 C1023 1.334 . S
C1023 H1000 0.950 . S
C1023 C1022 1.334 . S
C1023 C1024 1.287 . S
C1024 C1023 1.287 . S
C1024 C1025 1.524 . S
C1024 H1043 0.913 . S
C1025 H1001 0.950 . S
C1025 C1024 1.524 . S
C1025 C1026 1.415 . S
C1026 H1002 0.950 . S
C1026 C1021 1.363 . S
C1026 C1025 1.415 . S
C1027 H1003 0.951 . S
C1027 C1028 1.366 . S
C1027 C1029 1.388 . S
C1028 C1027 1.366 . S
C1028 C1032 1.385 . S
C1029 H1004 0.951 . S
C1029 C1027 1.388 . S
C1029 C1030 1.366 . S
C1030 C1029 1.366 . S
C1030 C1031 1.414 . S
C1030 C1033 1.499 . S
C1031 H1005 0.950 . S
C1031 C1030 1.414 . S
C1031 C1032 1.374 . S
C1032 H1006 0.950 . S
C1032 C1028 1.385 . S
C1032 C1031 1.374 . S
C1033 C1030 1.499 . S
C1033 C1034 1.373 . S
C1033 C1035 1.389 . S
C1034 H1007 0.950 . S
C1034 C1020 1.377 . S
C1034 C1033 1.373 . S
C1035 C1019 1.377 . S
C1035 C1033 1.389 . S
C1035 C1036 1.524 . S
C1036 C1035 1.524 . S
C1036 C1037 1.397 . S
C1036 C1041 1.363 . S
C1037 H1008 0.950 . S
C1037 C1036 1.397 . S
C1037 C1038 1.334 . S
C1038 H1009 0.950 . S
C1038 C1037 1.334 . S
C1038 C1039 1.287 . S
C1039 C1038 1.287 . S
C1039 C1040 1.524 . S
C1039 H1042 0.999 . S
C1040 H1010 0.950 . S
C1040 C1039 1.524 . S
C1040 C1041 1.415 . S
C1041 H1011 0.950 . S
C1041 C1036 1.363 . S
C1041 C1040 1.415 . S
H1042 C1039 0.999 . S
H1043 C1024 0.913 . S
H1044 C1062 0.951 . S
H1045 C1064 0.951 . S
H1046 C1066 0.950 . S
H1047 C1067 0.950 . S
H1048 C1069 0.950 . S
H1049 C1072 0.950 . S
H1050 C1073 0.950 . S
H1051 C1075 0.950 . S
H1052 C1076 0.950 . S
H1053 C1077 0.951 . S
H1054 C1079 0.951 . S
H1055 C1081 0.950 . S
H1056 C1082 0.950 . S
H1057 C1084 0.950 . S
H1058 C1087 0.950 . S
H1059 C1088 0.950 . S
H1060 C1090 0.950 . S
H1061 C1091 0.950 . S
C1062 H1044 0.951 . S
C1062 C1063 1.366 . S
C1062 C1064 1.388 . S
C1063 C1062 1.366 . S
C1063 C1067 1.385 . S
C1064 H1045 0.951 . S
C1064 C1062 1.388 . S
C1064 C1065 1.366 . S
C1065 C1064 1.366 . S
C1065 C1066 1.414 . S
C1065 C1068 1.499 . S
C1066 H1046 0.950 . S
C1066 C1065 1.414 . S
C1066 C1067 1.374 . S
C1067 H1047 0.950 . S
C1067 C1063 1.385 . S
C1067 C1066 1.374 . S
C1068 C1065 1.499 . S
C1068 C1069 1.373 . S
C1068 C1070 1.389 . S
C1069 H1048 0.950 . S
C1069 C1068 1.373 . S
C1069 C1085 1.377 . S
C1070 C1068 1.389 . S
C1070 C1071 1.524 . S
C1070 C1084 1.377 . S
C1071 C1070 1.524 . S
C1071 C1072 1.397 . S
C1071 C1076 1.363 . S
C1072 H1049 0.950 . S
C1072 C1071 1.397 . S
C1072 C1073 1.334 . S
C1073 H1050 0.950 . S
C1073 C1072 1.334 . S
C1073 C1074 1.287 . S
C1074 C1073 1.287 . S
C1074 C1075 1.524 . S
C1074 H1093 0.913 . S
C1075 H1051 0.950 . S
C1075 C1074 1.524 . S
C1075 C1076 1.415 . S
C1076 H1052 0.950 . S
C1076 C1071 1.363 . S
C1076 C1075 1.415 . S
C1077 H1053 0.951 . S
C1077 C1078 1.366 . S
C1077 C1079 1.388 . S
C1078 C1077 1.366 . S
C1078 C1082 1.385 . S
C1079 H1054 0.951 . S
C1079 C1077 1.388 . S
C1079 C1080 1.366 . S
C1080 C1079 1.366 . S
C1080 C1081 1.414 . S
C1080 C1083 1.499 . S
C1081 H1055 0.950 . S
C1081 C1080 1.414 . S
C1081 C1082 1.374 . S
C1082 H1056 0.950 . S
C1082 C1078 1.385 . S
C1082 C1081 1.374 . S
C1083 C1080 1.499 . S
C1083 C1084 1.373 . S
C1083 C1085 1.389 . S
C1084 H1057 0.950 . S
C1084 C1070 1.377 . S
C1084 C1083 1.373 . S
C1085 C1069 1.377 . S
C1085 C1083 1.389 . S
C1085 C1086 1.524 . S
C1086 C1085 1.524 . S
C1086 C1087 1.397 . S
C1086 C1091 1.363 . S
C1087 H1058 0.950 . S
C1087 C1086 1.397 . S
C1087 C1088 1.334 . S
C1088 H1059 0.950 . S
C1088 C1087 1.334 . S
C1088 C1089 1.287 . S
C1089 C1088 1.287 . S
C1089 C1090 1.524 . S
C1089 H1092 0.999 . S
C1090 H1060 0.950 . S
C1090 C1089 1.524 . S
C1090 C1091 1.415 . S
C1091 H1061 0.950 . S
C1091 C1086 1.363 . S
C1091 C1090 1.415 . S
H1092 C1089 0.999 . S
H1093 C1074 0.913 . S
H1094 C1112 0.951 . S
H1095 C1114 0.951 . S
H1096 C1116 0.950 . S
H1097 C1117 0.950 . S
H1098 C1119 0.950 . S
H1099 C1122 0.950 . S
H1100 C1123 0.950 . S
H1101 C1125 0.950 . S
H1102 C1126 0.950 . S
H1103 C1127 0.951 . S
H1104 C1129 0.951 . S
H1105 C1131 0.950 . S
H1106 C1132 0.950 . S
H1107 C1134 0.950 . S
H1108 C1137 0.950 . S
H1109 C1138 0.950 . S
H1110 C1140 0.950 . S
H1111 C1141 0.950 . S
C1112 H1094 0.951 . S
C1112 C1113 1.366 . S
C1112 C1114 1.388 . S
C1113 C1112 1.366 . S
C1113 C1117 1.385 . S
C1114 H1095 0.951 . S
C1114 C1112 1.388 . S
C1114 C1115 1.366 . S
C1115 C1114 1.366 . S
C1115 C1116 1.414 . S
C1115 C1118 1.499 . S
C1116 H1096 0.950 . S
C1116 C1115 1.414 . S
C1116 C1117 1.374 . S
C1117 H1097 0.950 . S
C1117 C1113 1.385 . S
C1117 C1116 1.374 . S
C1118 C1115 1.499 . S
C1118 C1119 1.373 . S
C1118 C1120 1.389 . S
C1119 H1098 0.950 . S
C1119 C1118 1.373 . S
C1119 C1135 1.377 . S
C1120 C1118 1.389 . S
C1120 C1121 1.524 . S
C1120 C1134 1.377 . S
C1121 C1120 1.524 . S
C1121 C1122 1.397 . S
C1121 C1126 1.363 . S
C1122 H1099 0.950 . S
C1122 C1121 1.397 . S
C1122 C1123 1.334 . S
C1123 H1100 0.950 . S
C1123 C1122 1.334 . S
C1123 C1124 1.287 . S
C1124 C1123 1.287 . S
C1124 C1125 1.524 . S
C1124 H1143 0.913 . S
C1125 H1101 0.950 . S
C1125 C1124 1.524 . S
C1125 C1126 1.415 . S
C1126 H1102 0.950 . S
C1126 C1121 1.363 . S
C1126 C1125 1.415 . S
C1127 H1103 0.951 . S
C1127 C1128 1.366 . S
C1127 C1129 1.388 . S
C1128 C1127 1.366 . S
C1128 C1132 1.385 . S
C1129 H1104 0.951 . S
C1129 C1127 1.388 . S
C1129 C1130 1.366 . S
C1130 C1129 1.366 . S
C1130 C1131 1.414 . S
C1130 C1133 1.499 . S
C1131 H1105 0.950 . S
C1131 C1130 1.414 . S
C1131 C1132 1.374 . S
C1132 H1106 0.950 . S
C1132 C1128 1.385 . S
C1132 C1131 1.374 . S
C1133 C1130 1.499 . S
C1133 C1134 1.373 . S
C1133 C1135 1.389 . S
C1134 H1107 0.950 . S
C1134 C1120 1.377 . S
C1134 C1133 1.373 . S
C1135 C1119 1.377 . S
C1135 C1133 1.389 . S
C1135 C1136 1.524 . S
C1136 C1135 1.524 . S
C1136 C1137 1.397 . S
C1136 C1141 1.363 . S
C1137 H1108 0.950 . S
C1137 C1136 1.397 . S
C1137 C1138 1.334 . S
C1138 H1109 0.950 . S
C1138 C1137 1.334 . S
C1138 C1139 1.287 . S
C1139 C1138 1.287 . S
C1139 C1140 1.524 . S
C1139 H1142 0.999 . S
C1140 H1110 0.950 . S
C1140 C1139 1.524 . S
C1140 C1141 1.415 . S
C1141 H1111 0.950 . S
C1141 C1136 1.363 . S
C1141 C1140 1.415 . S
H1142 C1139 0.999 . S
H1143 C1124 0.913 . S
H1144 C1162 0.951 . S
H1145 C1164 0.951 . S
H1146 C1166 0.950 . S
H1147 C1167 0.950 . S
H1148 C1169 0.950 . S
H1149 C1172 0.950 . S
H1150 C1173 0.950 . S
H1151 C1175 0.950 . S
H1152 C1176 0.950 . S
H1153 C1177 0.951 . S
H1154 C1179 0.951 . S
H1155 C1181 0.950 . S
H1156 C1182 0.950 . S
H1157 C1184 0.950 . S
H1158 C1187 0.950 . S
H1159 C1188 0.950 . S
H1160 C1190 0.950 . S
H1161 C1191 0.950 . S
C1162 H1144 0.951 . S
C1162 C1163 1.366 . S
C1162 C1164 1.388 . S
C1163 C1162 1.366 . S
C1163 C1167 1.385 . S
C1164 H1145 0.951 . S
C1164 C1162 1.388 . S
C1164 C1165 1.366 . S
C1165 C1164 1.366 . S
C1165 C1166 1.414 . S
C1165 C1168 1.499 . S
C1166 H1146 0.950 . S
C1166 C1165 1.414 . S
C1166 C1167 1.374 . S
C1167 H1147 0.950 . S
C1167 C1163 1.385 . S
C1167 C1166 1.374 . S
C1168 C1165 1.499 . S
C1168 C1169 1.373 . S
C1168 C1170 1.389 . S
C1169 H1148 0.950 . S
C1169 C1168 1.373 . S
C1169 C1185 1.377 . S
C1170 C1168 1.389 . S
C1170 C1171 1.524 . S
C1170 C1184 1.377 . S
C1171 C1170 1.524 . S
C1171 C1172 1.397 . S
C1171 C1176 1.363 . S
C1172 H1149 0.950 . S
C1172 C1171 1.397 . S
C1172 C1173 1.334 . S
C1173 H1150 0.950 . S
C1173 C1172 1.334 . S
C1173 C1174 1.287 . S
C1174 C1173 1.287 . S
C1174 C1175 1.524 . S
C1174 H1193 0.913 . S
C1175 H1151 0.950 . S
C1175 C1174 1.524 . S
C1175 C1176 1.415 . S
C1176 H1152 0.950 . S
C1176 C1171 1.363 . S
C1176 C1175 1.415 . S
C1177 H1153 0.951 . S
C1177 C1178 1.366 . S
C1177 C1179 1.388 . S
C1178 C1177 1.366 . S
C1178 C1182 1.385 . S
C1179 H1154 0.951 . S
C1179 C1177 1.388 . S
C1179 C1180 1.366 . S
C1180 C1179 1.366 . S
C1180 C1181 1.414 . S
C1180 C1183 1.499 . S
C1181 H1155 0.950 . S
C1181 C1180 1.414 . S
C1181 C1182 1.374 . S
C1182 H1156 0.950 . S
C1182 C1178 1.385 . S
C1182 C1181 1.374 . S
C1183 C1180 1.499 . S
C1183 C1184 1.373 . S
C1183 C1185 1.389 . S
C1184 H1157 0.950 . S
C1184 C1170 1.377 . S
C1184 C1183 1.373 . S
C1185 C1169 1.377 . S
C1185 C1183 1.389 . S
C1185 C1186 1.524 . S
C1186 C1185 1.524 . S
C1186 C1187 1.397 . S
C1186 C1191 1.363 . S
C1187 H1158 0.950 . S
C1187 C1186 1.397 . S
C1187 C1188 1.334 . S
C1188 H1159 0.950 . S
C1188 C1187 1.334 . S
C1188 C1189 1.287 . S
C1189 C1188 1.287 . S
C1189 C1190 1.524 . S
C1189 H1192 0.999 . S
C1190 H1160 0.950 . S
C1190 C1189 1.524 . S
C1190 C1191 1.415 . S
C1191 H1161 0.950 . S
C1191 C1186 1.363 . S
C1191 C1190 1.415 . S
H1192 C1189 0.999 . S
H1193 C1174 0.913 . S
H1194 C1212 0.951 . S
H1195 C1214 0.951 . S
H1196 C1216 0.950 . S
H1197 C1217 0.950 . S
H1198 C1219 0.950 . S
H1199 C1222 0.950 . S
H1200 C1223 0.950 . S
H1201 C1225 0.950 . S
H1202 C1226 0.950 . S
H1203 C1227 0.951 . S
H1204 C1229 0.951 . S
H1205 C1231 0.950 . S
H1206 C1232 0.950 . S
H1207 C1234 0.950 . S
H1208 C1237 0.950 . S
H1209 C1238 0.950 . S
H1210 C1240 0.950 . S
H1211 C1241 0.950 . S
C1212 H1194 0.951 . S
C1212 C1213 1.366 . S
C1212 C1214 1.388 . S
C1213 C1212 1.366 . S
C1213 C1217 1.385 . S
C1214 H1195 0.951 . S
C1214 C1212 1.388 . S
C1214 C1215 1.366 . S
C1215 C1214 1.366 . S
C1215 C1216 1.414 . S
C1215 C1218 1.499 . S
C1216 H1196 0.950 . S
C1216 C1215 1.414 . S
C1216 C1217 1.374 . S
C1217 H1197 0.950 . S
C1217 C1213 1.385 . S
C1217 C1216 1.374 . S
C1218 C1215 1.499 . S
C1218 C1219 1.373 . S
C1218 C1220 1.389 . S
C1219 H1198 0.950 . S
C1219 C1218 1.373 . S
C1219 C1235 1.377 . S
C1220 C1218 1.389 . S
C1220 C1221 1.524 . S
C1220 C1234 1.377 . S
C1221 C1220 1.524 . S
C1221 C1222 1.397 . S
C1221 C1226 1.363 . S
C1222 H1199 0.950 . S
C1222 C1221 1.397 . S
C1222 C1223 1.334 . S
C1223 H1200 0.950 . S
C1223 C1222 1.334 . S
C1223 C1224 1.287 . S
C1224 C1223 1.287 . S
C1224 C1225 1.524 . S
C1224 H1243 0.913 . S
C1225 H1201 0.950 . S
C1225 C1224 1.524 . S
C1225 C1226 1.415 . S
C1226 H1202 0.950 . S
C1226 C1221 1.363 . S
C1226 C1225 1.415 . S
C1227 H1203 0.951 . S
C1227 C1228 1.366 . S
C1227 C1229 1.388 . S
C1228 C1227 1.366 . S
C1228 C1232 1.385 . S
C1229 H1204 0.951 . S
C1229 C1227 1.388 . S
C1229 C1230 1.366 . S
C1230 C1229 1.366 . S
C1230 C1231 1.414 . S
C1230 C1233 1.499 . S
C1231 H1205 0.950 . S
C1231 C1230 1.414 . S
C1231 C1232 1.374 . S
C1232 H1206 0.950 . S
C1232 C1228 1.385 . S
C1232 C1231 1.374 . S
C1233 C1230 1.499 . S
C1233 C1234 1.373 . S
C1233 C1235 1.389 . S
C1234 H1207 0.950 . S
C1234 C1220 1.377 . S
C1234 C1233 1.373 . S
C1235 C1219 1.377 . S
C1235 C1233 1.389 . S
C1235 C1236 1.524 . S
C1236 C1235 1.524 . S
C1236 C1237 1.397 . S
C1236 C1241 1.363 . S
C1237 H1208 0.950 . S
C1237 C1236 1.397 . S
C1237 C1238 1.334 . S
C1238 H1209 0.950 . S
C1238 C1237 1.334 . S
C1238 C1239 1.287 . S
C1239 C1238 1.287 . S
C1239 C1240 1.524 . S
C1239 H1242 0.999 . S
C1240 H1210 0.950 . S
C1240 C1239 1.524 . S
C1240 C1241 1.415 . S
C1241 H1211 0.950 . S
C1241 C1236 1.363 . S
C1241 C1240 1.415 . S
H1242 C1239 0.999 . S
H1243 C1224 0.913 . S
H1244 C1262 0.951 . S
H1245 C1264 0.951 . S
H1246 C1266 0.950 . S
H1247 C1267 0.950 . S
H1248 C1269 0.950 . S
H1249 C1272 0.950 . S
H1250 C1273 0.950 . S
H1251 C1275 0.950 . S
H1252 C1276 0.950 . S
H1253 C1277 0.951 . S
H1254 C1279 0.951 . S
H1255 C1281 0.950 . S
H1256 C1282 0.950 . S
H1257 C1284 0.950 . S
H1258 C1287 0.950 . S
H1259 C1288 0.950 . S
H1260 C1290 0.950 . S
H1261 C1291 0.950 . S
C1262 H1244 0.951 . S
C1262 C1263 1.366 . S
C1262 C1264 1.388 . S
C1263 C1262 1.366 . S
C1263 C1267 1.385 . S
C1264 H1245 0.951 . S
C1264 C1262 1.388 . S
C1264 C1265 1.366 . S
C1265 C1264 1.366 . S
C1265 C1266 1.414 . S
C1265 C1268 1.499 . S
C1266 H1246 0.950 . S
C1266 C1265 1.414 . S
C1266 C1267 1.374 . S
C1267 H1247 0.950 . S
C1267 C1263 1.385 . S
C1267 C1266 1.374 . S
C1268 C1265 1.499 . S
C1268 C1269 1.373 . S
C1268 C1270 1.389 . S
C1269 H1248 0.950 . S
C1269 C1268 1.373 . S
C1269 C1285 1.377 . S
C1270 C1268 1.389 . S
C1270 C1271 1.524 . S
C1270 C1284 1.377 . S
C1271 C1270 1.524 . S
C1271 C1272 1.397 . S
C1271 C1276 1.363 . S
C1272 H1249 0.950 . S
C1272 C1271 1.397 . S
C1272 C1273 1.334 . S
C1273 H1250 0.950 . S
C1273 C1272 1.334 . S
C1273 C1274 1.287 . S
C1274 C1273 1.287 . S
C1274 C1275 1.524 . S
C1274 H1293 0.913 . S
C1275 H1251 0.950 . S
C1275 C1274 1.524 . S
C1275 C1276 1.415 . S
C1276 H1252 0.950 . S
C1276 C1271 1.363 . S
C1276 C1275 1.415 . S
C1277 H1253 0.951 . S
C1277 C1278 1.366 . S
C1277 C1279 1.388 . S
C1278 C1277 1.366 . S
C1278 C1282 1.385 . S
C1279 H1254 0.951 . S
C1279 C1277 1.388 . S
C1279 C1280 1.366 . S
C1280 C1279 1.366 . S
C1280 C1281 1.414 . S
C1280 C1283 1.499 . S
C1281 H1255 0.950 . S
C1281 C1280 1.414 . S
C1281 C1282 1.374 . S
C1282 H1256 0.950 . S
C1282 C1278 1.385 . S
C1282 C1281 1.374 . S
C1283 C1280 1.499 . S
C1283 C1284 1.373 . S
C1283 C1285 1.389 . S
C1284 H1257 0.950 . S
C1284 C1270 1.377 . S
C1284 C1283 1.373 . S
C1285 C1269 1.377 . S
C1285 C1283 1.389 . S
C1285 C1286 1.524 . S
C1286 C1285 1.524 . S
C1286 C1287 1.397 . S
C1286 C1291 1.363 . S
C1287 H1258 0.950 . S
C1287 C1286 1.397 . S
C1287 C1288 1.334 . S
C1288 H1259 0.950 . S
C1288 C1287 1.334 . S
C1288 C1289 1.287 . S
C1289 C1288 1.287 . S
C1289 C1290 1.524 . S
C1289 H1292 0.999 . S
C1290 H1260 0.950 . S
C1290 C1289 1.524 . S
C1290 C1291 1.415 . S
C1291 H1261 0.950 . S
C1291 C1286 1.363 . S
C1291 C1290 1.415 . S
H1292 C1289 0.999 . S
H1293 C1274 0.913 . S
H1294 C1312 0.951 . S
H1295 C1314 0.951 . S
H1296 C1316 0.950 . S
H1297 C1317 0.950 . S
H1298 C1319 0.950 . S
H1299 C1322 0.950 . S
H1300 C1323 0.950 . S
H1301 C1325 0.950 . S
H1302 C1326 0.950 . S
H1303 C1327 0.951 . S
H1304 C1329 0.951 . S
H1305 C1331 0.950 . S
H1306 C1332 0.950 . S
H1307 C1334 0.950 . S
H1308 C1337 0.950 . S
H1309 C1338 0.950 . S
H1310 C1340 0.950 . S
H1311 C1341 0.950 . S
C1312 H1294 0.951 . S
C1312 C1313 1.366 . S
C1312 C1314 1.388 . S
C1313 C1312 1.366 . S
C1313 C1317 1.385 . S
C1314 H1295 0.951 . S
C1314 C1312 1.388 . S
C1314 C1315 1.366 . S
C1315 C1314 1.366 . S
C1315 C1316 1.414 . S
C1315 C1318 1.499 . S
C1316 H1296 0.950 . S
C1316 C1315 1.414 . S
C1316 C1317 1.374 . S
C1317 H1297 0.950 . S
C1317 C1313 1.385 . S
C1317 C1316 1.374 . S
C1318 C1315 1.499 . S
C1318 C1319 1.373 . S
C1318 C1320 1.389 . S
C1319 H1298 0.950 . S
C1319 C1318 1.373 . S
C1319 C1335 1.377 . S
C1320 C1318 1.389 . S
C1320 C1321 1.524 . S
C1320 C1334 1.377 . S
C1321 C1320 1.524 . S
C1321 C1322 1.397 . S
C1321 C1326 1.363 . S
C1322 H1299 0.950 . S
C1322 C1321 1.397 . S
C1322 C1323 1.334 . S
C1323 H1300 0.950 . S
C1323 C1322 1.334 . S
C1323 C1324 1.287 . S
C1324 C1323 1.287 . S
C1324 C1325 1.524 . S
C1324 H1343 0.913 . S
C1325 H1301 0.950 . S
C1325 C1324 1.524 . S
C1325 C1326 1.415 . S
C1326 H1302 0.950 . S
C1326 C1321 1.363 . S
C1326 C1325 1.415 . S
C1327 H1303 0.951 . S
C1327 C1328 1.366 . S
C1327 C1329 1.388 . S
C1328 C1327 1.366 . S
C1328 C1332 1.385 . S
C1329 H1304 0.951 . S
C1329 C1327 1.388 . S
C1329 C1330 1.366 . S
C1330 C1329 1.366 . S
C1330 C1331 1.414 . S
C1330 C1333 1.499 . S
C1331 H1305 0.950 . S
C1331 C1330 1.414 . S
C1331 C1332 1.374 . S
C1332 H1306 0.950 . S
C1332 C1328 1.385 . S
C1332 C1331 1.374 . S
C1333 C1330 1.499 . S
C1333 C1334 1.373 . S
C1333 C1335 1.389 . S
C1334 H1307 0.950 . S
C1334 C1320 1.377 . S
C1334 C1333 1.373 . S
C1335 C1319 1.377 . S
C1335 C1333 1.389 . S
C1335 C1336 1.524 . S
C1336 C1335 1.524 . S
C1336 C1337 1.397 . S
C1336 C1341 1.363 . S
C1337 H1308 0.950 . S
C1337 C1336 1.397 . S
C1337 C1338 1.334 . S
C1338 H1309 0.950 . S
C1338 C1337 1.334 . S
C1338 C1339 1.287 . S
C1339 C1338 1.287 . S
C1339 C1340 1.524 . S
C1339 H1342 0.999 . S
C1340 H1310 0.950 . S
C1340 C1339 1.524 . S
C1340 C1341 1.415 . S
C1341 H1311 0.950 . S
C1341 C1336 1.363 . S
C1341 C1340 1.415 . S
H1342 C1339 0.999 . S
H1343 C1324 0.913 . S
H1344 C1362 0.951 . S
H1345 C1364 0.951 . S
H1346 C1366 0.950 . S
H1347 C1367 0.950 . S
H1348 C1369 0.950 . S
H1349 C1372 0.950 . S
H1350 C1373 0.950 . S
H1351 C1375 0.950 . S
H1352 C1376 0.950 . S
H1353 C1377 0.951 . S
H1354 C1379 0.951 . S
H1355 C1381 0.950 . S
H1356 C1382 0.950 . S
H1357 C1384 0.950 . S
H1358 C1387 0.950 . S
H1359 C1388 0.950 . S
H1360 C1390 0.950 . S
H1361 C1391 0.950 . S
C1362 H1344 0.951 . S
C1362 C1363 1.366 . S
C1362 C1364 1.388 . S
C1363 C1362 1.366 . S
C1363 C1367 1.385 . S
C1364 H1345 0.951 . S
C1364 C1362 1.388 . S
C1364 C1365 1.366 . S
C1365 C1364 1.366 . S
C1365 C1366 1.414 . S
C1365 C1368 1.499 . S
C1366 H1346 0.950 . S
C1366 C1365 1.414 . S
C1366 C1367 1.374 . S
C1367 H1347 0.950 . S
C1367 C1363 1.385 . S
C1367 C1366 1.374 . S
C1368 C1365 1.499 . S
C1368 C1369 1.373 . S
C1368 C1370 1.389 . S
C1369 H1348 0.950 . S
C1369 C1368 1.373 . S
C1369 C1385 1.377 . S
C1370 C1368 1.389 . S
C1370 C1371 1.524 . S
C1370 C1384 1.377 . S
C1371 C1370 1.524 . S
C1371 C1372 1.397 . S
C1371 C1376 1.363 . S
C1372 H1349 0.950 . S
C1372 C1371 1.397 . S
C1372 C1373 1.334 . S
C1373 H1350 0.950 . S
C1373 C1372 1.334 . S
C1373 C1374 1.287 . S
C1374 C1373 1.287 . S
C1374 C1375 1.524 . S
C1374 H1393 0.913 . S
C1375 H1351 0.950 . S
C1375 C1374 1.524 . S
C1375 C1376 1.415 . S
C1376 H1352 0.950 . S
C1376 C1371 1.363 . S
C1376 C1375 1.415 . S
C1377 H1353 0.951 . S
C1377 C1378 1.366 . S
C1377 C1379 1.388 . S
C1378 C1377 1.366 . S
C1378 C1382 1.385 . S
C1379 H1354 0.951 . S
C1379 C1377 1.388 . S
C1379 C1380 1.366 . S
C1380 C1379 1.366 . S
C1380 C1381 1.414 . S
C1380 C1383 1.499 . S
C1381 H1355 0.950 . S
C1381 C1380 1.414 . S
C1381 C1382 1.374 . S
C1382 H1356 0.950 . S
C1382 C1378 1.385 . S
C1382 C1381 1.374 . S
C1383 C1380 1.499 . S
C1383 C1384 1.373 . S
C1383 C1385 1.389 . S
C1384 H1357 0.950 . S
C1384 C1370 1.377 . S
C1384 C1383 1.373 . S
C1385 C1369 1.377 . S
C1385 C1383 1.389 . S
C1385 C1386 1.524 . S
C1386 C1385 1.524 . S
C1386 C1387 1.397 . S
C1386 C1391 1.363 . S
C1387 H1358 0.950 . S
C1387 C1386 1.397 . S
C1387 C1388 1.334 . S
C1388 H1359 0.950 . S
C1388 C1387 1.334 . S
C1388 C1389 1.287 . S
C1389 C1388 1.287 . S
C1389 C1390 1.524 . S
C1389 H1392 0.999 . S
C1390 H1360 0.950 . S
C1390 C1389 1.524 . S
C1390 C1391 1.415 . S
C1391 H1361 0.950 . S
C1391 C1386 1.363 . S
C1391 C1390 1.415 . S
H1392 C1389 0.999 . S
H1393 C1374 0.913 . S
H1394 C1412 0.951 . S
H1395 C1414 0.951 . S
H1396 C1416 0.950 . S
H1397 C1417 0.950 . S
H1398 C1419 0.950 . S
H1399 C1422 0.950 . S
H1400 C1423 0.950 . S
H1401 C1425 0.950 . S
H1402 C1426 0.950 . S
H1403 C1427 0.951 . S
H1404 C1429 0.951 . S
H1405 C1431 0.950 . S
H1406 C1432 0.950 . S
H1407 C1434 0.950 . S
H1408 C1437 0.950 . S
H1409 C1438 0.950 . S
H1410 C1440 0.950 . S
H1411 C1441 0.950 . S
C1412 H1394 0.951 . S
C1412 C1413 1.366 . S
C1412 C1414 1.388 . S
C1413 C1412 1.366 . S
C1413 C1417 1.385 . S
C1414 H1395 0.951 . S
C1414 C1412 1.388 . S
C1414 C1415 1.366 . S
C1415 C1414 1.366 . S
C1415 C1416 1.414 . S
C1415 C1418 1.499 . S
C1416 H1396 0.950 . S
C1416 C1415 1.414 . S
C1416 C1417 1.374 . S
C1417 H1397 0.950 . S
C1417 C1413 1.385 . S
C1417 C1416 1.374 . S
C1418 C1415 1.499 . S
C1418 C1419 1.373 . S
C1418 C1420 1.389 . S
C1419 H1398 0.950 . S
C1419 C1418 1.373 . S
C1419 C1435 1.377 . S
C1420 C1418 1.389 . S
C1420 C1421 1.524 . S
C1420 C1434 1.377 . S
C1421 C1420 1.524 . S
C1421 C1422 1.397 . S
C1421 C1426 1.363 . S
C1422 H1399 0.950 . S
C1422 C1421 1.397 . S
C1422 C1423 1.334 . S
C1423 H1400 0.950 . S
C1423 C1422 1.334 . S
C1423 C1424 1.287 . S
C1424 C1423 1.287 . S
C1424 C1425 1.524 . S
C1424 H1443 0.913 . S
C1425 H1401 0.950 . S
C1425 C1424 1.524 . S
C1425 C1426 1.415 . S
C1426 H1402 0.950 . S
C1426 C1421 1.363 . S
C1426 C1425 1.415 . S
C1427 H1403 0.951 . S
C1427 C1428 1.366 . S
C1427 C1429 1.388 . S
C1428 C1427 1.366 . S
C1428 C1432 1.385 . S
C1429 H1404 0.951 . S
C1429 C1427 1.388 . S
C1429 C1430 1.366 . S
C1430 C1429 1.366 . S
C1430 C1431 1.414 . S
C1430 C1433 1.499 . S
C1431 H1405 0.950 . S
C1431 C1430 1.414 . S
C1431 C1432 1.374 . S
C1432 H1406 0.950 . S
C1432 C1428 1.385 . S
C1432 C1431 1.374 . S
C1433 C1430 1.499 . S
C1433 C1434 1.373 . S
C1433 C1435 1.389 . S
C1434 H1407 0.950 . S
C1434 C1420 1.377 . S
C1434 C1433 1.373 . S
C1435 C1419 1.377 . S
C1435 C1433 1.389 . S
C1435 C1436 1.524 . S
C1436 C1435 1.524 . S
C1436 C1437 1.397 . S
C1436 C1441 1.363 . S
C1437 H1408 0.950 . S
C1437 C1436 1.397 . S
C1437 C1438 1.334 . S
C1438 H1409 0.950 . S
C1438 C1437 1.334 . S
C1438 C1439 1.287 . S
C1439 C1438 1.287 . S
C1439 C1440 1.524 . S
C1439 H1442 0.999 . S
C1440 H1410 0.950 . S
C1440 C1439 1.524 . S
C1440 C1441 1.415 . S
C1441 H1411 0.950 . S
C1441 C1436 1.363 . S
C1441 C1440 1.415 . S
H1442 C1439 0.999 . S
H1443 C1424 0.913 . S
H1444 C1462 0.951 . S
H1445 C1464 0.951 . S
H1446 C1466 0.950 . S
H1447 C1467 0.950 . S
H1448 C1469 0.950 . S
H1449 C1472 0.950 . S
H1450 C1473 0.950 . S
H1451 C1475 0.950 . S
H1452 C1476 0.950 . S
H1453 C1477 0.951 . S
H1454 C1479 0.951 . S
H1455 C1481 0.950 . S
H1456 C1482 0.950 . S
H1457 C1484 0.950 . S
H1458 C1487 0.950 . S
H1459 C1488 0.950 . S
H1460 C1490 0.950 . S
H1461 C1491 0.950 . S
C1462 H1444 0.951 . S
C1462 C1463 1.366 . S
C1462 C1464 1.388 . S
C1463 C1462 1.366 . S
C1463 C1467 1.385 . S
C1464 H1445 0.951 . S
C1464 C1462 1.388 . S
C1464 C1465 1.366 . S
C1465 C1464 1.366 . S
C1465 C1466 1.414 . S
C1465 C1468 1.499 . S
C1466 H1446 0.950 . S
C1466 C1465 1.414 . S
C1466 C1467 1.374 . S
C1467 H1447 0.950 . S
C1467 C1463 1.385 . S
C1467 C1466 1.374 . S
C1468 C1465 1.499 . S
C1468 C1469 1.373 . S
C1468 C1470 1.389 . S
C1469 H1448 0.950 . S
C1469 C1468 1.373 . S
C1469 C1485 1.377 . S
C1470 C1468 1.389 . S
C1470 C1471 1.524 . S
C1470 C1484 1.377 . S
C1471 C1470 1.524 . S
C1471 C1472 1.397 . S
C1471 C1476 1.363 . S
C1472 H1449 0.950 . S
C1472 C1471 1.397 . S
C1472 C1473 1.334 . S
C1473 H1450 0.950 . S
C1473 C1472 1.334 . S
C1473 C1474 1.287 . S
C1474 C1473 1.287 . S
C1474 C1475 1.524 . S
C1474 H1493 0.913 . S
C1475 H1451 0.950 . S
C1475 C1474 1.524 . S
C1475 C1476 1.415 . S
C1476 H1452 0.950 . S
C1476 C1471 1.363 . S
C1476 C1475 1.415 . S
C1477 H1453 0.951 . S
C1477 C1478 1.366 . S
C1477 C1479 1.388 . S
C1478 C1477 1.366 . S
C1478 C1482 1.385 . S
C1479 H1454 0.951 . S
C1479 C1477 1.388 . S
C1479 C1480 1.366 . S
C1480 C1479 1.366 . S
C1480 C1481 1.414 . S
C1480 C1483 1.499 . S
C1481 H1455 0.950 . S
C1481 C1480 1.414 . S
C1481 C1482 1.374 . S
C1482 H1456 0.950 . S
C1482 C1478 1.385 . S
C1482 C1481 1.374 . S
C1483 C1480 1.499 . S
C1483 C1484 1.373 . S
C1483 C1485 1.389 . S
C1484 H1457 0.950 . S
C1484 C1470 1.377 . S
C1484 C1483 1.373 . S
C1485 C1469 1.377 . S
C1485 C1483 1.389 . S
C1485 C1486 1.524 . S
C1486 C1485 1.524 . S
C1486 C1487 1.397 . S
C1486 C1491 1.363 . S
C1487 H1458 0.950 . S
C1487 C1486 1.397 . S
C1487 C1488 1.334 . S
C1488 H1459 0.950 . S
C1488 C1487 1.334 . S
C1488 C1489 1.287 . S
C1489 C1488 1.287 . S
C1489 C1490 1.524 . S
C1489 H1492 0.999 . S
C1490 H1460 0.950 . S
C1490 C1489 1.524 . S
C1490 C1491 1.415 . S
C1491 H1461 0.950 . S
C1491 C1486 1.363 . S
C1491 C1490 1.415 . S
H1492 C1489 0.999 . S
H1493 C1474 0.913 . S
H1494 C1512 0.951 . S
H1495 C1514 0.951 . S
H1496 C1516 0.950 . S
H1497 C1517 0.950 . S
H1498 C1519 0.950 . S
H1499 C1522 0.950 . S
H1500 C1523 0.950 . S
H1501 C1525 0.950 . S
H1502 C1526 0.950 . S
H1503 C1527 0.951 . S
H1504 C1529 0.951 . S
H1505 C1531 0.950 . S
H1506 C1532 0.950 . S
H1507 C1534 0.950 . S
H1508 C1537 0.950 . S
H1509 C1538 0.950 . S
H1510 C1540 0.950 . S
H1511 C1541 0.950 . S
C1512 H1494 0.951 . S
C1512 C1513 1.366 . S
C1512 C1514 1.388 . S
C1513 C1512 1.366 . S
C1513 C1517 1.385 . S
C1514 H1495 0.951 . S
C1514 C1512 1.388 . S
C1514 C1515 1.366 . S
C1515 C1514 1.366 . S
C1515 C1516 1.414 . S
C1515 C1518 1.499 . S
C1516 H1496 0.950 . S
C1516 C1515 1.414 . S
C1516 C1517 1.374 . S
C1517 H1497 0.950 . S
C1517 C1513 1.385 . S
C1517 C1516 1.374 . S
C1518 C1515 1.499 . S
C1518 C1519 1.373 . S
C1518 C1520 1.389 . S
C1519 H1498 0.950 . S
C1519 C1518 1.373 . S
C1519 C1535 1.377 . S
C1520 C1518 1.389 . S
C1520 C1521 1.524 . S
C1520 C1534 1.377 . S
C1521 C1520 1.524 . S
C1521 C1522 1.397 . S
C1521 C1526 1.363 . S
C1522 H1499 0.950 . S
C1522 C1521 1.397 . S
C1522 C1523 1.334 . S
C1523 H1500 0.950 . S
C1523 C1522 1.334 . S
C1523 C1524 1.287 . S
C1524 C1523 1.287 . S
C1524 C1525 1.524 . S
C1524 H1543 0.913 . S
C1525 H1501 0.950 . S
C1525 C1524 1.524 . S
C1525 C1526 1.415 . S
C1526 H1502 0.950 . S
C1526 C1521 1.363 . S
C1526 C1525 1.415 . S
C1527 H1503 0.951 . S
C1527 C1528 1.366 . S
C1527 C1529 1.388 . S
C1528 C1527 1.366 . S
C1528 C1532 1.385 . S
C1529 H1504 0.951 . S
C1529 C1527 1.388 . S
C1529 C1530 1.366 . S
C1530 C1529 1.366 . S
C1530 C1531 1.414 . S
C1530 C1533 1.499 . S
C1531 H1505 0.950 . S
C1531 C1530 1.414 . S
C1531 C1532 1.374 . S
C1532 H1506 0.950 . S
C1532 C1528 1.385 . S
C1532 C1531 1.374 . S
C1533 C1530 1.499 . S
C1533 C1534 1.373 . S
C1533 C1535 1.389 . S
C1534 H1507 0.950 . S
C1534 C1520 1.377 . S
C1534 C1533 1.373 . S
C1535 C1519 1.377 . S
C1535 C1533 1.389 . S
C1535 C1536 1.524 . S
C1536 C1535 1.524 . S
C1536 C1537 1.397 . S
C1536 C1541 1.363 . S
C1537 H1508 0.950 . S
C1537 C1536 1.397 . S
C1537 C1538 1.334 . S
C1538 H1509 0.950 . S
C1538 C1537 1.334 . S
C1538 C1539 1.287 . S
C1539 C1538 1.287 . S
C1539 C1540 1.524 . S
C1539 H1542 0.999 . S
C1540 H1510 0.950 . S
C1540 C1539 1.524 . S
C1540 C1541 1.415 . S
C1541 H1511 0.950 . S
C1541 C1536 1.363 . S
C1541 C1540 1.415 . S
H1542 C1539 0.999 . S
H1543 C1524 0.913 . S
H1544 C1562 0.951 . S
H1545 C1564 0.951 . S
H1546 C1566 0.950 . S
H1547 C1567 0.950 . S
H1548 C1569 0.950 . S
H1549 C1572 0.950 . S
H1550 C1573 0.950 . S
H1551 C1575 0.950 . S
H1552 C1576 0.950 . S
H1553 C1577 0.951 . S
H1554 C1579 0.951 . S
H1555 C1581 0.950 . S
H1556 C1582 0.950 . S
H1557 C1584 0.950 . S
H1558 C1587 0.950 . S
H1559 C1588 0.950 . S
H1560 C1590 0.950 . S
H1561 C1591 0.950 . S
C1562 H1544 0.951 . S
C1562 C1563 1.366 . S
C1562 C1564 1.388 . S
C1563 C1562 1.366 . S
C1563 C1567 1.385 . S
C1564 H1545 0.951 . S
C1564 C1562 1.388 . S
C1564 C1565 1.366 . S
C1565 C1564 1.366 . S
C1565 C1566 1.414 . S
C1565 C1568 1.499 . S
C1566 H1546 0.950 . S
C1566 C1565 1.414 . S
C1566 C1567 1.374 . S
C1567 H1547 0.950 . S
C1567 C1563 1.385 . S
C1567 C1566 1.374 . S
C1568 C1565 1.499 . S
C1568 C1569 1.373 . S
C1568 C1570 1.389 . S
C1569 H1548 0.950 . S
C1569 C1568 1.373 . S
C1569 C1585 1.377 . S
C1570 C1568 1.389 . S
C1570 C1571 1.524 . S
C1570 C1584 1.377 . S
C1571 C1570 1.524 . S
C1571 C1572 1.397 . S
C1571 C1576 1.363 . S
C1572 H1549 0.950 . S
C1572 C1571 1.397 . S
C1572 C1573 1.334 . S
C1573 H1550 0.950 . S
C1573 C1572 1.334 . S
C1573 C1574 1.287 . S
C1574 C1573 1.287 . S
C1574 C1575 1.524 . S
C1574 H1593 0.913 . S
C1575 H1551 0.950 . S
C1575 C1574 1.524 . S
C1575 C1576 1.415 . S
C1576 H1552 0.950 . S
C1576 C1571 1.363 . S
C1576 C1575 1.415 . S
C1577 H1553 0.951 . S
C1577 C1578 1.366 . S
C1577 C1579 1.388 . S
C1578 C1577 1.366 . S
C1578 C1582 1.385 . S
C1579 H1554 0.951 . S
C1579 C1577 1.388 . S
C1579 C1580 1.366 . S
C1580 C1579 1.366 . S
C1580 C1581 1.414 . S
C1580 C1583 1.499 . S
C1581 H1555 0.950 . S
C1581 C1580 1.414 . S
C1581 C1582 1.374 . S
C1582 H1556 0.950 . S
C1582 C1578 1.385 . S
C1582 C1581 1.374 . S
C1583 C1580 1.499 . S
C1583 C1584 1.373 . S
C1583 C1585 1.389 . S
C1584 H1557 0.950 . S
C1584 C1570 1.377 . S
C1584 C1583 1.373 . S
C1585 C1569 1.377 . S
C1585 C1583 1.389 . S
C1585 C1586 1.524 . S
C1586 C1585 1.524 . S
C1586 C1587 1.397 . S
C1586 C1591 1.363 . S
C1587 H1558 0.950 . S
C1587 C1586 1.397 . S
C1587 C1588 1.334 . S
C1588 H1559 0.950 . S
C1588 C1587 1.334 . S
C1588 C1589 1.287 . S
C1589 C1588 1.287 . S
C1589 C1590 1.524 . S
C1589 H1592 0.999 . S
C1590 H1560 0.950 . S
C1590 C1589 1.524 . S
C1590 C1591 1.415 . S
C1591 H1561 0.950 . S
C1591 C1586 1.363 . S
C1591 C1590 1.415 . S
H1592 C1589 0.999 . S
H1593 C1574 0.913 . S
H1594 C1612 0.951 . S
H1595 C1614 0.951 . S
H1596 C1616 0.950 . S
H1597 C1617 0.950 . S
H1598 C1619 0.950 . S
H1599 C1622 0.950 . S
H1600 C1623 0.950 . S
H1601 C1625 0.950 . S
H1602 C1626 0.950 . S
H1603 C1627 0.951 . S
H1604 C1629 0.951 . S
H1605 C1631 0.950 . S
H1606 C1632 0.950 . S
H1607 C1634 0.950 . S
H1608 C1637 0.950 . S
H1609 C1638 0.950 . S
H1610 C1640 0.950 . S
H1611 C1641 0.950 . S
C1612 H1594 0.951 . S
C1612 C1613 1.366 . S
C1612 C1614 1.388 . S
C1613 C1612 1.366 . S
C1613 C1617 1.385 . S
C1614 H1595 0.951 . S
C1614 C1612 1.388 . S
C1614 C1615 1.366 . S
C1615 C1614 1.366 . S
C1615 C1616 1.414 . S
C1615 C1618 1.499 . S
C1616 H1596 0.950 . S
C1616 C1615 1.414 . S
C1616 C1617 1.374 . S
C1617 H1597 0.950 . S
C1617 C1613 1.385 . S
C1617 C1616 1.374 . S
C1618 C1615 1.499 . S
C1618 C1619 1.373 . S
C1618 C1620 1.389 . S
C1619 H1598 0.950 . S
C1619 C1618 1.373 . S
C1619 C1635 1.377 . S
C1620 C1618 1.389 . S
C1620 C1621 1.524 . S
C1620 C1634 1.377 . S
C1621 C1620 1.524 . S
C1621 C1622 1.397 . S
C1621 C1626 1.363 . S
C1622 H1599 0.950 . S
C1622 C1621 1.397 . S
C1622 C1623 1.334 . S
C1623 H1600 0.950 . S
C1623 C1622 1.334 . S
C1623 C1624 1.287 . S
C1624 C1623 1.287 . S
C1624 C1625 1.524 . S
C1624 H1643 0.913 . S
C1625 H1601 0.950 . S
C1625 C1624 1.524 . S
C1625 C1626 1.415 . S
C1626 H1602 0.950 . S
C1626 C1621 1.363 . S
C1626 C1625 1.415 . S
C1627 H1603 0.951 . S
C1627 C1628 1.366 . S
C1627 C1629 1.388 . S
C1628 C1627 1.366 . S
C1628 C1632 1.385 . S
C1629 H1604 0.951 . S
C1629 C1627 1.388 . S
C1629 C1630 1.366 . S
C1630 C1629 1.366 . S
C1630 C1631 1.414 . S
C1630 C1633 1.499 . S
C1631 H1605 0.950 . S
C1631 C1630 1.414 . S
C1631 C1632 1.374 . S
C1632 H1606 0.950 . S
C1632 C1628 1.385 . S
C1632 C1631 1.374 . S
C1633 C1630 1.499 . S
C1633 C1634 1.373 . S
C1633 C1635 1.389 . S
C1634 H1607 0.950 . S
C1634 C1620 1.377 . S
C1634 C1633 1.373 . S
C1635 C1619 1.377 . S
C1635 C1633 1.389 . S
C1635 C1636 1.524 . S
C1636 C1635 1.524 . S
C1636 C1637 1.397 . S
C1636 C1641 1.363 . S
C1637 H1608 0.950 . S
C1637 C1636 1.397 . S
C1637 C1638 1.334 . S
C1638 H1609 0.950 . S
C1638 C1637 1.334 . S
C1638 C1639 1.287 . S
C1639 C1638 1.287 . S
C1639 C1640 1.524 . S
C1639 H1642 0.999 . S
C1640 H1610 0.950 . S
C1640 C1639 1.524 . S
C1640 C1641 1.415 . S
C1641 H1611 0.950 . S
C1641 C1636 1.363 . S
C1641 C1640 1.415 . S
H1642 C1639 0.999 . S
H1643 C1624 0.913 . S
H1644 C1662 0.951 . S
H1645 C1664 0.951 . S
H1646 C1666 0.950 . S
H1647 C1667 0.950 . S
H1648 C1669 0.950 . S
H1649 C1672 0.950 . S
H1650 C1673 0.950 . S
H1651 C1675 0.950 . S
H1652 C1676 0.950 . S
H1653 C1677 0.951 . S
H1654 C1679 0.951 . S
H1655 C1681 0.950 . S
H1656 C1682 0.950 . S
H1657 C1684 0.950 . S
H1658 C1687 0.950 . S
H1659 C1688 0.950 . S
H1660 C1690 0.950 . S
H1661 C1691 0.950 . S
C1662 H1644 0.951 . S
C1662 C1663 1.366 . S
C1662 C1664 1.388 . S
C1663 C1662 1.366 . S
C1663 C1667 1.385 . S
C1664 H1645 0.951 . S
C1664 C1662 1.388 . S
C1664 C1665 1.366 . S
C1665 C1664 1.366 . S
C1665 C1666 1.414 . S
C1665 C1668 1.499 . S
C1666 H1646 0.950 . S
C1666 C1665 1.414 . S
C1666 C1667 1.374 . S
C1667 H1647 0.950 . S
C1667 C1663 1.385 . S
C1667 C1666 1.374 . S
C1668 C1665 1.499 . S
C1668 C1669 1.373 . S
C1668 C1670 1.389 . S
C1669 H1648 0.950 . S
C1669 C1668 1.373 . S
C1669 C1685 1.377 . S
C1670 C1668 1.389 . S
C1670 C1671 1.524 . S
C1670 C1684 1.377 . S
C1671 C1670 1.524 . S
C1671 C1672 1.397 . S
C1671 C1676 1.363 . S
C1672 H1649 0.950 . S
C1672 C1671 1.397 . S
C1672 C1673 1.334 . S
C1673 H1650 0.950 . S
C1673 C1672 1.334 . S
C1673 C1674 1.287 . S
C1674 C1673 1.287 . S
C1674 C1675 1.524 . S
C1674 H1693 0.913 . S
C1675 H1651 0.950 . S
C1675 C1674 1.524 . S
C1675 C1676 1.415 . S
C1676 H1652 0.950 . S
C1676 C1671 1.363 . S
C1676 C1675 1.415 . S
C1677 H1653 0.951 . S
C1677 C1678 1.366 . S
C1677 C1679 1.388 . S
C1678 C1677 1.366 . S
C1678 C1682 1.385 . S
C1679 H1654 0.951 . S
C1679 C1677 1.388 . S
C1679 C1680 1.366 . S
C1680 C1679 1.366 . S
C1680 C1681 1.414 . S
C1680 C1683 1.499 . S
C1681 H1655 0.950 . S
C1681 C1680 1.414 . S
C1681 C1682 1.374 . S
C1682 H1656 0.950 . S
C1682 C1678 1.385 . S
C1682 C1681 1.374 . S
C1683 C1680 1.499 . S
C1683 C1684 1.373 . S
C1683 C1685 1.389 . S
C1684 H1657 0.950 . S
C1684 C1670 1.377 . S
C1684 C1683 1.373 . S
C1685 C1669 1.377 . S
C1685 C1683 1.389 . S
C1685 C1686 1.524 . S
C1686 C1685 1.524 . S
C1686 C1687 1.397 . S
C1686 C1691 1.363 . S
C1687 H1658 0.950 . S
C1687 C1686 1.397 . S
C1687 C1688 1.334 . S
C1688 H1659 0.950 . S
C1688 C1687 1.334 . S
C1688 C1689 1.287 . S
C1689 C1688 1.287 . S
C1689 C1690 1.524 . S
C1689 H1692 0.999 . S
C1690 H1660 0.950 . S
C1690 C1689 1.524 . S
C1690 C1691 1.415 . S
C1691 H1661 0.950 . S
C1691 C1686 1.363 . S
C1691 C1690 1.415 . S
H1692 C1689 0.999 . S
H1693 C1674 0.913 . S
H1694 C1712 0.951 . S
H1695 C1714 0.951 . S
H1696 C1716 0.950 . S
H1697 C1717 0.950 . S
H1698 C1719 0.950 . S
H1699 C1722 0.950 . S
H1700 C1723 0.950 . S
H1701 C1725 0.950 . S
H1702 C1726 0.950 . S
H1703 C1727 0.951 . S
H1704 C1729 0.951 . S
H1705 C1731 0.950 . S
H1706 C1732 0.950 . S
H1707 C1734 0.950 . S
H1708 C1737 0.950 . S
H1709 C1738 0.950 . S
H1710 C1740 0.950 . S
H1711 C1741 0.950 . S
C1712 H1694 0.951 . S
C1712 C1713 1.366 . S
C1712 C1714 1.388 . S
C1713 C1712 1.366 . S
C1713 C1717 1.385 . S
C1714 H1695 0.951 . S
C1714 C1712 1.388 . S
C1714 C1715 1.366 . S
C1715 C1714 1.366 . S
C1715 C1716 1.414 . S
C1715 C1718 1.499 . S
C1716 H1696 0.950 . S
C1716 C1715 1.414 . S
C1716 C1717 1.374 . S
C1717 H1697 0.950 . S
C1717 C1713 1.385 . S
C1717 C1716 1.374 . S
C1718 C1715 1.499 . S
C1718 C1719 1.373 . S
C1718 C1720 1.389 . S
C1719 H1698 0.950 . S
C1719 C1718 1.373 . S
C1719 C1735 1.377 . S
C1720 C1718 1.389 . S
C1720 C1721 1.524 . S
C1720 C1734 1.377 . S
C1721 C1720 1.524 . S
C1721 C1722 1.397 . S
C1721 C1726 1.363 . S
C1722 H1699 0.950 . S
C1722 C1721 1.397 . S
C1722 C1723 1.334 . S
C1723 H1700 0.950 . S
C1723 C1722 1.334 . S
C1723 C1724 1.287 . S
C1724 C1723 1.287 . S
C1724 C1725 1.524 . S
C1724 H1743 0.913 . S
C1725 H1701 0.950 . S
C1725 C1724 1.524 . S
C1725 C1726 1.415 . S
C1726 H1702 0.950 . S
C1726 C1721 1.363 . S
C1726 C1725 1.415 . S
C1727 H1703 0.951 . S
C1727 C1728 1.366 . S
C1727 C1729 1.388 . S
C1728 C1727 1.366 . S
C1728 C1732 1.385 . S
C1729 H1704 0.951 . S
C1729 C1727 1.388 . S
C1729 C1730 1.366 . S
C1730 C1729 1.366 . S
C1730 C1731 1.414 . S
C1730 C1733 1.499 . S
C1731 H1705 0.950 . S
C1731 C1730 1.414 . S
C1731 C1732 1.374 . S
C1732 H1706 0.950 . S
C1732 C1728 1.385 . S
C1732 C1731 1.374 . S
C1733 C1730 1.499 . S
C1733 C1734 1.373 . S
C1733 C1735 1.389 . S
C1734 H1707 0.950 . S
C1734 C1720 1.377 . S
C1734 C1733 1.373 . S
C1735 C1719 1.377 . S
C1735 C1733 1.389 . S
C1735 C1736 1.524 . S
C1736 C1735 1.524 . S
C1736 C1737 1.397 . S
C1736 C1741 1.363 . S
C1737 H1708 0.950 . S
C1737 C1736 1.397 . S
C1737 C1738 1.334 . S
C1738 H1709 0.950 . S
C1738 C1737 1.334 . S
C1738 C1739 1.287 . S
C1739 C1738 1.287 . S
C1739 C1740 1.524 . S
C1739 H1742 0.999 . S
C1740 H1710 0.950 . S
C1740 C1739 1.524 . S
C1740 C1741 1.415 . S
C1741 H1711 0.950 . S
C1741 C1736 1.363 . S
C1741 C1740 1.415 . S
H1742 C1739 0.999 . S
H1743 C1724 0.913 . S
H1744 C1762 0.951 . S
H1745 C1764 0.951 . S
H1746 C1766 0.950 . S
H1747 C1767 0.950 1_565 S
H1748 C1769 0.950 . S
H1749 C1772 0.950 . S
H1750 C1773 0.950 . S
H1751 C1775 0.950 . S
H1752 C1776 0.950 . S
H1753 C1777 0.951 . S
H1754 C1779 0.951 . S
H1755 C1781 0.950 . S
H1756 C1782 0.950 . S
H1757 C1784 0.950 . S
H1758 C1787 0.950 . S
H1759 C1788 0.950 . S
H1760 C1790 0.950 . S
H1761 C1791 0.950 . S
C1762 H1744 0.951 . S
C1762 C1763 1.337 1_545 S
C1762 C1764 1.388 . S
C1763 C1762 1.337 1_565 S
C1763 C1767 1.380 1_565 S
C1764 H1745 0.951 . S
C1764 C1762 1.388 . S
C1764 C1765 1.366 . S
C1765 C1764 1.366 . S
C1765 C1766 1.414 . S
C1765 C1768 1.499 . S
C1766 H1746 0.950 . S
C1766 C1765 1.414 . S
C1766 C1767 1.374 . S
C1767 H1747 0.950 1_545 S
C1767 C1763 1.380 1_545 S
C1767 C1766 1.374 . S
C1768 C1765 1.499 . S
C1768 C1769 1.373 . S
C1768 C1770 1.389 . S
C1769 H1748 0.950 . S
C1769 C1768 1.373 . S
C1769 C1785 1.377 . S
C1770 C1768 1.389 . S
C1770 C1771 1.524 . S
C1770 C1784 1.377 . S
C1771 C1770 1.524 . S
C1771 C1772 1.397 . S
C1771 C1776 1.363 . S
C1772 H1749 0.950 . S
C1772 C1771 1.397 . S
C1772 C1773 1.334 . S
C1773 H1750 0.950 . S
C1773 C1772 1.334 . S
C1773 C1774 1.287 . S
C1774 C1773 1.287 . S
C1774 C1775 1.524 . S
C1774 H1793 0.913 . S
C1775 H1751 0.950 . S
C1775 C1774 1.524 . S
C1775 C1776 1.415 . S
C1776 H1752 0.950 . S
C1776 C1771 1.363 . S
C1776 C1775 1.415 . S
C1777 H1753 0.951 . S
C1777 C1778 1.366 . S
C1777 C1779 1.388 . S
C1778 C1777 1.366 . S
C1778 C1782 1.385 . S
C1779 H1754 0.951 . S
C1779 C1777 1.388 . S
C1779 C1780 1.366 . S
C1780 C1779 1.366 . S
C1780 C1781 1.414 . S
C1780 C1783 1.499 . S
C1781 H1755 0.950 . S
C1781 C1780 1.414 . S
C1781 C1782 1.374 . S
C1782 H1756 0.950 . S
C1782 C1778 1.385 . S
C1782 C1781 1.374 . S
C1783 C1780 1.499 . S
C1783 C1784 1.373 . S
C1783 C1785 1.389 . S
C1784 H1757 0.950 . S
C1784 C1770 1.377 . S
C1784 C1783 1.373 . S
C1785 C1769 1.377 . S
C1785 C1783 1.389 . S
C1785 C1786 1.524 . S
C1786 C1785 1.524 . S
C1786 C1787 1.397 . S
C1786 C1791 1.363 . S
C1787 H1758 0.950 . S
C1787 C1786 1.397 . S
C1787 C1788 1.334 . S
C1788 H1759 0.950 . S
C1788 C1787 1.334 . S
C1788 C1789 1.287 . S
C1789 C1788 1.287 . S
C1789 C1790 1.524 . S
C1789 H1792 0.999 . S
C1790 H1760 0.950 . S
C1790 C1789 1.524 . S
C1790 C1791 1.415 . S
C1791 H1761 0.950 . S
C1791 C1786 1.363 . S
C1791 C1790 1.415 . S
H1792 C1789 0.999 . S
H1793 C1774 0.913 . S
H1794 C1812 0.951 . S
H1795 C1814 0.951 . S
H1796 C1816 0.950 . S
H1797 C1817 0.950 . S
H1798 C1819 0.950 . S
H1799 C1822 0.950 . S
H1800 C1823 0.950 . S
H1801 C1825 0.950 . S
H1802 C1826 0.950 . S
H1803 C1827 0.951 1_655 S
H1804 C1829 0.951 . S
H1805 C1831 0.950 . S
H1806 C1832 0.950 . S
H1807 C1834 0.950 . S
H1808 C1837 0.950 . S
H1809 C1838 0.950 . S
H1810 C1840 0.950 . S
H1811 C1841 0.950 . S
C1812 H1794 0.951 . S
C1812 C1813 1.366 . S
C1812 C1814 1.388 . S
C1813 C1812 1.366 . S
C1813 C1817 1.385 . S
C1814 H1795 0.951 . S
C1814 C1812 1.388 . S
C1814 C1815 1.366 . S
C1815 C1814 1.366 . S
C1815 C1816 1.414 . S
C1815 C1818 1.499 . S
C1816 H1796 0.950 . S
C1816 C1815 1.414 . S
C1816 C1817 1.374 . S
C1817 H1797 0.950 . S
C1817 C1813 1.385 . S
C1817 C1816 1.374 . S
C1818 C1815 1.499 . S
C1818 C1819 1.373 . S
C1818 C1820 1.389 . S
C1819 H1798 0.950 . S
C1819 C1818 1.373 . S
C1819 C1835 1.377 . S
C1820 C1818 1.389 . S
C1820 C1821 1.524 . S
C1820 C1834 1.377 . S
C1821 C1820 1.524 . S
C1821 C1822 1.397 . S
C1821 C1826 1.363 . S
C1822 H1799 0.950 . S
C1822 C1821 1.397 . S
C1822 C1823 1.334 . S
C1823 H1800 0.950 . S
C1823 C1822 1.334 . S
C1823 C1824 1.287 . S
C1824 C1823 1.287 . S
C1824 C1825 1.524 . S
C1824 H1843 0.913 . S
C1825 H1801 0.950 . S
C1825 C1824 1.524 . S
C1825 C1826 1.415 . S
C1826 H1802 0.950 . S
C1826 C1821 1.363 . S
C1826 C1825 1.415 . S
C1827 H1803 0.951 1_455 S
C1827 C1828 1.361 1_455 S
C1827 C1829 1.388 . S
C1828 C1827 1.361 1_655 S
C1828 C1832 1.359 1_655 S
C1829 H1804 0.951 . S
C1829 C1827 1.388 . S
C1829 C1830 1.366 . S
C1830 C1829 1.366 . S
C1830 C1831 1.414 . S
C1830 C1833 1.499 . S
C1831 H1805 0.950 . S
C1831 C1830 1.414 . S
C1831 C1832 1.374 . S
C1832 H1806 0.950 . S
C1832 C1828 1.359 1_455 S
C1832 C1831 1.374 . S
C1833 C1830 1.499 . S
C1833 C1834 1.373 . S
C1833 C1835 1.389 . S
C1834 H1807 0.950 . S
C1834 C1820 1.377 . S
C1834 C1833 1.373 . S
C1835 C1819 1.377 . S
C1835 C1833 1.389 . S
C1835 C1836 1.524 . S
C1836 C1835 1.524 . S
C1836 C1837 1.397 . S
C1836 C1841 1.363 . S
C1837 H1808 0.950 . S
C1837 C1836 1.397 . S
C1837 C1838 1.334 1_455 S
C1838 H1809 0.950 . S
C1838 C1837 1.334 1_655 S
C1838 C1839 1.287 . S
C1839 C1838 1.287 . S
C1839 C1840 1.524 1_655 S
C1839 H1842 0.999 . S
C1840 H1810 0.950 . S
C1840 C1839 1.524 1_455 S
C1840 C1841 1.415 . S
C1841 H1811 0.950 . S
C1841 C1836 1.363 . S
C1841 C1840 1.415 . S
H1842 C1839 0.999 . S
H1843 C1824 0.913 . S
H1844 C1862 0.951 . S
H1845 C1864 0.951 . S
H1846 C1866 0.950 . S
H1847 C1867 0.950 . S
H1848 C1869 0.950 . S
H1849 C1872 0.950 . S
H1850 C1873 0.950 . S
H1851 C1875 0.950 . S
H1852 C1876 0.950 . S
H1853 C1877 0.951 . S
H1854 C1879 0.951 . S
H1855 C1881 0.950 . S
H1856 C1882 0.950 . S
H1857 C1884 0.950 . S
H1858 C1887 0.950 . S
H1859 C1888 0.950 . S
H1860 C1890 0.950 . S
H1861 C1891 0.950 . S
C1862 H1844 0.951 . S
C1862 C1863 1.367 . S
C1862 C1864 1.388 1_545 S
C1863 C1862 1.367 . S
C1863 C1867 1.350 1_545 S
C1864 H1845 0.951 . S
C1864 C1862 1.388 1_565 S
C1864 C1865 1.366 . S
C1865 C1864 1.366 . S
C1865 C1866 1.414 . S
C1865 C1868 1.499 . S
C1866 H1846 0.950 . S
C1866 C1865 1.414 . S
C1866 C1867 1.374 . S
C1867 H1847 0.950 . S
C1867 C1863 1.350 1_565 S
C1867 C1866 1.374 . S
C1868 C1865 1.499 . S
C1868 C1869 1.373 . S
C1868 C1870 1.389 . S
C1869 H1848 0.950 . S
C1869 C1868 1.373 . S
C1869 C1885 1.377 . S
C1870 C1868 1.389 . S
C1870 C1871 1.524 . S
C1870 C1884 1.377 . S
C1871 C1870 1.524 . S
C1871 C1872 1.397 . S
C1871 C1876 1.363 . S
C1872 H1849 0.950 . S
C1872 C1871 1.397 . S
C1872 C1873 1.334 . S
C1873 H1850 0.950 . S
C1873 C1872 1.334 . S
C1873 C1874 1.287 . S
C1874 C1873 1.287 . S
C1874 C1875 1.524 . S
C1874 H1893 0.913 . S
C1875 H1851 0.950 . S
C1875 C1874 1.524 . S
C1875 C1876 1.415 . S
C1876 H1852 0.950 . S
C1876 C1871 1.363 . S
C1876 C1875 1.415 . S
C1877 H1853 0.951 . S
C1877 C1878 1.366 . S
C1877 C1879 1.388 . S
C1878 C1877 1.366 . S
C1878 C1882 1.385 . S
C1879 H1854 0.951 . S
C1879 C1877 1.388 . S
C1879 C1880 1.366 . S
C1880 C1879 1.366 . S
C1880 C1881 1.414 . S
C1880 C1883 1.499 . S
C1881 H1855 0.950 . S
C1881 C1880 1.414 . S
C1881 C1882 1.374 . S
C1882 H1856 0.950 . S
C1882 C1878 1.385 . S
C1882 C1881 1.374 . S
C1883 C1880 1.499 . S
C1883 C1884 1.373 . S
C1883 C1885 1.389 . S
C1884 H1857 0.950 . S
C1884 C1870 1.377 . S
C1884 C1883 1.373 . S
C1885 C1869 1.377 . S
C1885 C1883 1.389 . S
C1885 C1886 1.524 . S
C1886 C1885 1.524 . S
C1886 C1887 1.397 . S
C1886 C1891 1.363 . S
C1887 H1858 0.950 . S
C1887 C1886 1.397 . S
C1887 C1888 1.334 . S
C1888 H1859 0.950 . S
C1888 C1887 1.334 . S
C1888 C1889 1.287 . S
C1889 C1888 1.287 . S
C1889 C1890 1.524 . S
C1889 H1892 0.999 . S
C1890 H1860 0.950 . S
C1890 C1889 1.524 . S
C1890 C1891 1.415 . S
C1891 H1861 0.950 . S
C1891 C1886 1.363 . S
C1891 C1890 1.415 . S
H1892 C1889 0.999 . S
H1893 C1874 0.913 . S
H1894 C1912 0.951 . S
H1895 C1914 0.951 . S
H1896 C1916 0.950 . S
H1897 C1917 0.950 . S
H1898 C1919 0.950 . S
H1899 C1922 0.950 . S
H1900 C1923 0.950 . S
H1901 C1925 0.950 . S
H1902 C1926 0.950 . S
H1903 C1927 0.951 . S
H1904 C1929 0.951 . S
H1905 C1931 0.950 . S
H1906 C1932 0.950 . S
H1907 C1934 0.950 . S
H1908 C1937 0.950 . S
H1909 C1938 0.950 . S
H1910 C1940 0.950 . S
H1911 C1941 0.950 . S
C1912 H1894 0.951 . S
C1912 C1913 1.366 . S
C1912 C1914 1.388 . S
C1913 C1912 1.366 . S
C1913 C1917 1.385 . S
C1914 H1895 0.951 . S
C1914 C1912 1.388 . S
C1914 C1915 1.366 . S
C1915 C1914 1.366 . S
C1915 C1916 1.414 . S
C1915 C1918 1.499 . S
C1916 H1896 0.950 . S
C1916 C1915 1.414 . S
C1916 C1917 1.374 . S
C1917 H1897 0.950 . S
C1917 C1913 1.385 . S
C1917 C1916 1.374 . S
C1918 C1915 1.499 . S
C1918 C1919 1.373 . S
C1918 C1920 1.389 . S
C1919 H1898 0.950 . S
C1919 C1918 1.373 . S
C1919 C1935 1.377 . S
C1920 C1918 1.389 . S
C1920 C1921 1.524 . S
C1920 C1934 1.377 . S
C1921 C1920 1.524 . S
C1921 C1922 1.397 . S
C1921 C1926 1.363 . S
C1922 H1899 0.950 . S
C1922 C1921 1.397 . S
C1922 C1923 1.334 . S
C1923 H1900 0.950 . S
C1923 C1922 1.334 . S
C1923 C1924 1.287 . S
C1924 C1923 1.287 . S
C1924 C1925 1.524 . S
C1924 H1943 0.913 . S
C1925 H1901 0.950 . S
C1925 C1924 1.524 . S
C1925 C1926 1.415 . S
C1926 H1902 0.950 . S
C1926 C1921 1.363 . S
C1926 C1925 1.415 . S
C1927 H1903 0.951 . S
C1927 C1928 1.371 . S
C1927 C1929 1.388 1_455 S
C1928 C1927 1.371 . S
C1928 C1932 1.347 1_455 S
C1929 H1904 0.951 . S
C1929 C1927 1.388 1_655 S
C1929 C1930 1.366 . S
C1930 C1929 1.366 . S
C1930 C1931 1.414 . S
C1930 C1933 1.499 . S
C1931 H1905 0.950 . S
C1931 C1930 1.414 . S
C1931 C1932 1.374 . S
C1932 H1906 0.950 . S
C1932 C1928 1.347 1_655 S
C1932 C1931 1.374 . S
C1933 C1930 1.499 . S
C1933 C1934 1.373 . S
C1933 C1935 1.389 . S
C1934 H1907 0.950 . S
C1934 C1920 1.377 . S
C1934 C1933 1.373 . S
C1935 C1919 1.377 . S
C1935 C1933 1.389 . S
C1935 C1936 1.524 . S
C1936 C1935 1.524 . S
C1936 C1937 1.397 . S
C1936 C1941 1.363 . S
C1937 H1908 0.950 . S
C1937 C1936 1.397 . S
C1937 C1938 1.334 . S
C1938 H1909 0.950 . S
C1938 C1937 1.334 . S
C1938 C1939 1.287 . S
C1939 C1938 1.287 . S
C1939 C1940 1.524 . S
C1939 H1942 0.999 . S
C1940 H1910 0.950 . S
C1940 C1939 1.524 . S
C1940 C1941 1.415 . S
C1941 H1911 0.950 . S
C1941 C1936 1.363 . S
C1941 C1940 1.415 . S
H1942 C1939 0.999 . S
H1943 C1924 0.913 . S
H1944 C1962 0.951 . S
H1945 C1964 0.951 . S
H1946 C1966 0.950 . S
H1947 C1967 0.940 1_545 S
H1948 C1969 0.950 . S
H1949 C1972 0.950 . S
H1950 C1973 0.950 . S
H1951 C1975 0.950 . S
H1952 C1976 0.950 . S
H1953 C1977 0.951 . S
H1954 C1979 0.951 . S
H1955 C1981 0.950 . S
H1956 C1982 0.950 . S
H1957 C1984 0.950 . S
H1958 C1987 0.950 . S
H1959 C1988 0.950 . S
H1960 C1990 0.950 . S
H1961 C1991 0.950 . S
C1962 H1944 0.951 . S
C1962 C1963 1.346 1_565 S
C1962 C1964 1.388 . S
C1963 C1962 1.346 1_545 S
C1963 C1967 1.371 1_545 S
C1964 H1945 0.951 . S
C1964 C1962 1.388 . S
C1964 C1965 1.366 . S
C1965 C1964 1.366 . S
C1965 C1966 1.414 . S
C1965 C1968 1.499 . S
C1966 H1946 0.950 . S
C1966 C1965 1.414 . S
C1966 C1967 1.374 . S
C1967 H1947 0.940 1_565 S
C1967 C1963 1.371 1_565 S
C1967 C1966 1.374 . S
C1968 C1965 1.499 . S
C1968 C1969 1.373 . S
C1968 C1970 1.389 . S
C1969 H1948 0.950 . S
C1969 C1968 1.373 . S
C1969 C1985 1.377 . S
C1970 C1968 1.389 . S
C1970 C1971 1.524 . S
C1970 C1984 1.377 . S
C1971 C1970 1.524 . S
C1971 C1972 1.397 . S
C1971 C1976 1.363 . S
C1972 H1949 0.950 . S
C1972 C1971 1.397 . S
C1972 C1973 1.334 . S
C1973 H1950 0.950 . S
C1973 C1972 1.334 . S
C1973 C1974 1.287 . S
C1974 C1973 1.287 . S
C1974 C1975 1.524 . S
C1974 H1993 0.913 . S
C1975 H1951 0.950 . S
C1975 C1974 1.524 . S
C1975 C1976 1.415 . S
C1976 H1952 0.950 . S
C1976 C1971 1.363 . S
C1976 C1975 1.415 . S
C1977 H1953 0.951 . S
C1977 C1978 1.366 . S
C1977 C1979 1.388 . S
C1978 C1977 1.366 . S
C1978 C1982 1.385 . S
C1979 H1954 0.951 . S
C1979 C1977 1.388 . S
C1979 C1980 1.366 . S
C1980 C1979 1.366 . S
C1980 C1981 1.414 . S
C1980 C1983 1.499 . S
C1981 H1955 0.950 . S
C1981 C1980 1.414 . S
C1981 C1982 1.374 . S
C1982 H1956 0.950 . S
C1982 C1978 1.385 . S
C1982 C1981 1.374 . S
C1983 C1980 1.499 . S
C1983 C1984 1.373 . S
C1983 C1985 1.389 . S
C1984 H1957 0.950 . S
C1984 C1970 1.377 . S
C1984 C1983 1.373 . S
C1985 C1969 1.377 . S
C1985 C1983 1.389 . S
C1985 C1986 1.524 . S
C1986 C1985 1.524 . S
C1986 C1987 1.397 . S
C1986 C1991 1.363 . S
C1987 H1958 0.950 . S
C1987 C1986 1.397 . S
C1987 C1988 1.334 . S
C1988 H1959 0.950 . S
C1988 C1987 1.334 . S
C1988 C1989 1.287 . S
C1989 C1988 1.287 . S
C1989 C1990 1.524 . S
C1989 H1992 0.999 . S
C1990 H1960 0.950 . S
C1990 C1989 1.524 . S
C1990 C1991 1.415 . S
C1991 H1961 0.950 . S
C1991 C1986 1.363 . S
C1991 C1990 1.415 . S
H1992 C1989 0.999 . S
H1993 C1974 0.913 . S
H1994 C2012 0.951 . S
H1995 C2014 0.951 . S
H1996 C2016 0.950 . S
H1997 C2017 0.950 . S
H1998 C2019 0.950 . S
H1999 C2022 0.950 . S
H2000 C2023 0.950 . S
H2001 C2025 0.950 . S
H2002 C2026 0.950 . S
H2003 C2027 0.951 . S
H2004 C2029 0.951 . S
H2005 C2031 0.950 . S
H2006 C2032 0.950 . S
H2007 C2034 0.950 . S
H2008 C2037 0.950 . S
H2009 C2038 0.950 . S
H2010 C2040 0.950 . S
H2011 C2041 0.950 . S
C2012 H1994 0.951 . S
C2012 C2013 1.366 . S
C2012 C2014 1.388 . S
C2013 C2012 1.366 . S
C2013 C2017 1.385 . S
C2014 H1995 0.951 . S
C2014 C2012 1.388 . S
C2014 C2015 1.366 . S
C2015 C2014 1.366 . S
C2015 C2016 1.414 . S
C2015 C2018 1.499 . S
C2016 H1996 0.950 . S
C2016 C2015 1.414 . S
C2016 C2017 1.374 . S
C2017 H1997 0.950 . S
C2017 C2013 1.385 . S
C2017 C2016 1.374 . S
C2018 C2015 1.499 . S
C2018 C2019 1.373 . S
C2018 C2020 1.389 . S
C2019 H1998 0.950 . S
C2019 C2018 1.373 . S
C2019 C2035 1.377 . S
C2020 C2018 1.389 . S
C2020 C2021 1.524 . S
C2020 C2034 1.377 . S
C2021 C2020 1.524 . S
C2021 C2022 1.397 . S
C2021 C2026 1.363 . S
C2022 H1999 0.950 . S
C2022 C2021 1.397 . S
C2022 C2023 1.334 . S
C2023 H2000 0.950 . S
C2023 C2022 1.334 . S
C2023 C2024 1.287 . S
C2024 C2023 1.287 . S
C2024 C2025 1.524 . S
C2024 H2043 0.913 . S
C2025 H2001 0.950 . S
C2025 C2024 1.524 . S
C2025 C2026 1.415 . S
C2026 H2002 0.950 . S
C2026 C2021 1.363 . S
C2026 C2025 1.415 . S
C2027 H2003 0.951 . S
C2027 C2028 1.329 1_655 S
C2027 C2029 1.388 . S
C2028 C2027 1.329 1_455 S
C2028 C2032 1.390 . S
C2029 H2004 0.951 . S
C2029 C2027 1.388 . S
C2029 C2030 1.366 . S
C2030 C2029 1.366 . S
C2030 C2031 1.414 . S
C2030 C2033 1.499 . S
C2031 H2005 0.950 . S
C2031 C2030 1.414 . S
C2031 C2032 1.374 1_655 S
C2032 H2006 0.950 . S
C2032 C2028 1.390 . S
C2032 C2031 1.374 1_455 S
C2033 C2030 1.499 . S
C2033 C2034 1.373 . S
C2033 C2035 1.389 . S
C2034 H2007 0.950 . S
C2034 C2020 1.377 . S
C2034 C2033 1.373 . S
C2035 C2019 1.377 . S
C2035 C2033 1.389 . S
C2035 C2036 1.524 . S
C2036 C2035 1.524 . S
C2036 C2037 1.397 . S
C2036 C2041 1.363 . S
C2037 H2008 0.950 . S
C2037 C2036 1.397 . S
C2037 C2038 1.334 . S
C2038 H2009 0.950 . S
C2038 C2037 1.334 . S
C2038 C2039 1.287 . S
C2039 C2038 1.287 . S
C2039 C2040 1.524 . S
C2039 H2042 0.999 . S
C2040 H2010 0.950 . S
C2040 C2039 1.524 . S
C2040 C2041 1.415 . S
C2041 H2011 0.950 . S
C2041 C2036 1.363 . S
C2041 C2040 1.415 . S
H2042 C2039 0.999 . S
H2043 C2024 0.913 . S
H2044 C2062 0.951 . S
H2045 C2064 0.951 . S
H2046 C2066 0.950 . S
H2047 C2067 0.950 . S
H2048 C2069 0.950 . S
H2049 C2072 0.950 . S
H2050 C2073 0.950 . S
H2051 C2075 0.950 . S
H2052 C2076 0.950 . S
H2053 C2077 0.951 . S
H2054 C2079 0.951 . S
H2055 C2081 0.950 . S
H2056 C2082 0.950 . S
H2057 C2084 0.950 . S
H2058 C2087 0.950 . S
H2059 C2088 0.950 1_565 S
H2060 C2090 0.950 1_565 S
H2061 C2091 0.950 . S
C2062 H2044 0.951 . S
C2062 C2063 1.366 . S
C2062 C2064 1.388 . S
C2063 C2062 1.366 . S
C2063 C2067 1.385 . S
C2064 H2045 0.951 . S
C2064 C2062 1.388 . S
C2064 C2065 1.366 . S
C2065 C2064 1.366 . S
C2065 C2066 1.414 . S
C2065 C2068 1.499 . S
C2066 H2046 0.950 . S
C2066 C2065 1.414 . S
C2066 C2067 1.374 . S
C2067 H2047 0.950 . S
C2067 C2063 1.385 . S
C2067 C2066 1.374 . S
C2068 C2065 1.499 . S
C2068 C2069 1.373 . S
C2068 C2070 1.389 . S
C2069 H2048 0.950 . S
C2069 C2068 1.373 . S
C2069 C2085 1.377 . S
C2070 C2068 1.389 . S
C2070 C2071 1.524 . S
C2070 C2084 1.377 . S
C2071 C2070 1.524 . S
C2071 C2072 1.397 . S
C2071 C2076 1.363 . S
C2072 H2049 0.950 . S
C2072 C2071 1.397 . S
C2072 C2073 1.334 . S
C2073 H2050 0.950 . S
C2073 C2072 1.334 . S
C2073 C2074 1.287 . S
C2074 C2073 1.287 . S
C2074 C2075 1.524 . S
C2074 H2093 0.913 . S
C2075 H2051 0.950 . S
C2075 C2074 1.524 . S
C2075 C2076 1.415 . S
C2076 H2052 0.950 . S
C2076 C2071 1.363 . S
C2076 C2075 1.415 . S
C2077 H2053 0.951 . S
C2077 C2078 1.368 . S
C2077 C2079 1.388 1_565 S
C2078 C2077 1.368 . S
C2078 C2082 1.351 1_565 S
C2079 H2054 0.951 . S
C2079 C2077 1.388 1_545 S
C2079 C2080 1.366 . S
C2080 C2079 1.366 . S
C2080 C2081 1.414 . S
C2080 C2083 1.499 . S
C2081 H2055 0.950 . S
C2081 C2080 1.414 . S
C2081 C2082 1.374 . S
C2082 H2056 0.950 . S
C2082 C2078 1.351 1_545 S
C2082 C2081 1.374 . S
C2083 C2080 1.499 . S
C2083 C2084 1.373 . S
C2083 C2085 1.389 . S
C2084 H2057 0.950 . S
C2084 C2070 1.377 . S
C2084 C2083 1.373 . S
C2085 C2069 1.377 . S
C2085 C2083 1.389 . S
C2085 C2086 1.524 . S
C2086 C2085 1.524 . S
C2086 C2087 1.397 . S
C2086 C2091 1.363 . S
C2087 H2058 0.950 . S
C2087 C2086 1.397 . S
C2087 C2088 1.334 . S
C2088 H2059 0.950 1_545 S
C2088 C2087 1.334 . S
C2088 C2089 1.287 1_545 S
C2089 C2088 1.287 1_565 S
C2089 C2090 1.524 1_565 S
C2089 H2092 0.999 . S
C2090 H2060 0.950 1_545 S
C2090 C2089 1.524 1_545 S
C2090 C2091 1.415 . S
C2091 H2061 0.950 . S
C2091 C2086 1.363 . S
C2091 C2090 1.415 . S
H2092 C2089 0.999 . S
H2093 C2074 0.913 . S
H2094 C2112 0.951 . S
H2095 C2114 0.951 . S
H2096 C2116 0.950 . S
H2097 C2117 0.950 . S
H2098 C2119 0.950 . S
H2099 C2122 0.950 . S
H2100 C2123 0.950 . S
H2101 C2125 0.950 . S
H2102 C2126 0.950 . S
H2103 C2127 0.951 . S
H2104 C2129 0.951 . S
H2105 C2131 0.950 . S
H2106 C2132 0.950 . S
H2107 C2134 0.950 . S
H2108 C2137 0.950 . S
H2109 C2138 0.950 . S
H2110 C2140 0.950 . S
H2111 C2141 0.950 . S
C2112 H2094 0.951 . S
C2112 C2113 1.366 . S
C2112 C2114 1.388 . S
C2113 C2112 1.366 . S
C2113 C2117 1.385 . S
C2114 H2095 0.951 . S
C2114 C2112 1.388 . S
C2114 C2115 1.366 . S
C2115 C2114 1.366 . S
C2115 C2116 1.414 . S
C2115 C2118 1.499 . S
C2116 H2096 0.950 . S
C2116 C2115 1.414 . S
C2116 C2117 1.374 . S
C2117 H2097 0.950 . S
C2117 C2113 1.385 . S
C2117 C2116 1.374 . S
C2118 C2115 1.499 . S
C2118 C2119 1.373 . S
C2118 C2120 1.389 . S
C2119 H2098 0.950 . S
C2119 C2118 1.373 . S
C2119 C2135 1.377 . S
C2120 C2118 1.389 . S
C2120 C2121 1.524 . S
C2120 C2134 1.377 . S
C2121 C2120 1.524 . S
C2121 C2122 1.397 . S
C2121 C2126 1.363 . S
C2122 H2099 0.950 . S
C2122 C2121 1.397 . S
C2122 C2123 1.334 . S
C2123 H2100 0.950 . S
C2123 C2122 1.334 . S
C2123 C2124 1.287 . S
C2124 C2123 1.287 . S
C2124 C2125 1.524 . S
C2124 H2143 0.913 . S
C2125 H2101 0.950 . S
C2125 C2124 1.524 . S
C2125 C2126 1.415 . S
C2126 H2102 0.950 . S
C2126 C2121 1.363 . S
C2126 C2125 1.415 . S
C2127 H2103 0.951 . S
C2127 C2128 1.331 1_455 S
C2127 C2129 1.388 . S
C2128 C2127 1.331 1_655 S
C2128 C2132 1.386 . S
C2129 H2104 0.951 . S
C2129 C2127 1.388 . S
C2129 C2130 1.366 . S
C2130 C2129 1.366 . S
C2130 C2131 1.414 . S
C2130 C2133 1.499 . S
C2131 H2105 0.950 . S
C2131 C2130 1.414 . S
C2131 C2132 1.374 1_455 S
C2132 H2106 0.950 . S
C2132 C2128 1.386 . S
C2132 C2131 1.374 1_655 S
C2133 C2130 1.499 . S
C2133 C2134 1.373 . S
C2133 C2135 1.389 . S
C2134 H2107 0.950 . S
C2134 C2120 1.377 . S
C2134 C2133 1.373 . S
C2135 C2119 1.377 . S
C2135 C2133 1.389 . S
C2135 C2136 1.524 . S
C2136 C2135 1.524 . S
C2136 C2137 1.397 . S
C2136 C2141 1.363 . S
C2137 H2108 0.950 . S
C2137 C2136 1.397 . S
C2137 C2138 1.334 . S
C2138 H2109 0.950 . S
C2138 C2137 1.334 . S
C2138 C2139 1.287 . S
C2139 C2138 1.287 . S
C2139 C2140 1.524 . S
C2139 H2142 0.999 . S
C2140 H2110 0.950 . S
C2140 C2139 1.524 . S
C2140 C2141 1.415 . S
C2141 H2111 0.950 . S
C2141 C2136 1.363 . S
C2141 C2140 1.415 . S
H2142 C2139 0.999 . S
H2143 C2124 0.913 . S
H2144 C2162 0.951 . S
H2145 C2164 0.951 . S
H2146 C2166 0.950 . S
H2147 C2167 0.950 . S
H2148 C2169 0.950 . S
H2149 C2172 0.950 . S
H2150 C2173 0.950 . S
H2151 C2175 0.950 . S
H2152 C2176 0.950 . S
H2153 C2177 0.951 . S
H2154 C2179 0.951 . S
H2155 C2181 0.950 . S
H2156 C2182 0.950 . S
H2157 C2184 0.950 . S
H2158 C2187 0.950 . S
H2159 C2188 0.950 . S
H2160 C2190 0.950 . S
H2161 C2191 0.950 . S
C2162 H2144 0.951 . S
C2162 C2163 1.366 . S
C2162 C2164 1.388 . S
C2163 C2162 1.366 . S
C2163 C2167 1.385 . S
C2164 H2145 0.951 . S
C2164 C2162 1.388 . S
C2164 C2165 1.366 . S
C2165 C2164 1.366 . S
C2165 C2166 1.414 . S
C2165 C2168 1.499 . S
C2166 H2146 0.950 . S
C2166 C2165 1.414 . S
C2166 C2167 1.374 . S
C2167 H2147 0.950 . S
C2167 C2163 1.385 . S
C2167 C2166 1.374 . S
C2168 C2165 1.499 . S
C2168 C2169 1.373 . S
C2168 C2170 1.389 . S
C2169 H2148 0.950 . S
C2169 C2168 1.373 . S
C2169 C2185 1.377 . S
C2170 C2168 1.389 . S
C2170 C2171 1.524 . S
C2170 C2184 1.377 . S
C2171 C2170 1.524 . S
C2171 C2172 1.397 . S
C2171 C2176 1.363 . S
C2172 H2149 0.950 . S
C2172 C2171 1.397 . S
C2172 C2173 1.334 . S
C2173 H2150 0.950 . S
C2173 C2172 1.334 . S
C2173 C2174 1.287 . S
C2174 C2173 1.287 . S
C2174 C2175 1.524 . S
C2174 H2193 0.913 . S
C2175 H2151 0.950 . S
C2175 C2174 1.524 . S
C2175 C2176 1.415 . S
C2176 H2152 0.950 . S
C2176 C2171 1.363 . S
C2176 C2175 1.415 . S
C2177 H2153 0.951 . S
C2177 C2178 1.366 . S
C2177 C2179 1.388 . S
C2178 C2177 1.366 . S
C2178 C2182 1.385 . S
C2179 H2154 0.951 . S
C2179 C2177 1.388 . S
C2179 C2180 1.366 . S
C2180 C2179 1.366 . S
C2180 C2181 1.414 . S
C2180 C2183 1.499 . S
C2181 H2155 0.950 . S
C2181 C2180 1.414 . S
C2181 C2182 1.374 . S
C2182 H2156 0.950 . S
C2182 C2178 1.385 . S
C2182 C2181 1.374 . S
C2183 C2180 1.499 . S
C2183 C2184 1.373 . S
C2183 C2185 1.389 . S
C2184 H2157 0.950 . S
C2184 C2170 1.377 . S
C2184 C2183 1.373 . S
C2185 C2169 1.377 . S
C2185 C2183 1.389 . S
C2185 C2186 1.524 . S
C2186 C2185 1.524 . S
C2186 C2187 1.397 . S
C2186 C2191 1.363 . S
C2187 H2158 0.950 . S
C2187 C2186 1.397 . S
C2187 C2188 1.334 . S
C2188 H2159 0.950 . S
C2188 C2187 1.334 . S
C2188 C2189 1.287 . S
C2189 C2188 1.287 . S
C2189 C2190 1.524 . S
C2189 H2192 0.999 . S
C2190 H2160 0.950 . S
C2190 C2189 1.524 . S
C2190 C2191 1.415 . S
C2191 H2161 0.950 . S
C2191 C2186 1.363 . S
C2191 C2190 1.415 . S
H2192 C2189 0.999 . S
H2193 C2174 0.913 . S
H2194 C2212 0.951 . S
H2195 C2214 0.951 . S
H2196 C2216 0.950 . S
H2197 C2217 0.950 . S
H2198 C2219 0.950 . S
H2199 C2222 0.950 . S
H2200 C2223 0.950 . S
H2201 C2225 0.950 . S
H2202 C2226 0.950 . S
H2203 C2227 0.951 . S
H2204 C2229 0.951 . S
H2205 C2231 0.950 . S
H2206 C2232 0.950 . S
H2207 C2234 0.950 . S
H2208 C2237 0.950 . S
H2209 C2238 0.950 . S
H2210 C2240 0.950 . S
H2211 C2241 0.950 . S
C2212 H2194 0.951 . S
C2212 C2213 1.366 . S
C2212 C2214 1.388 . S
C2213 C2212 1.366 . S
C2213 C2217 1.385 . S
C2214 H2195 0.951 . S
C2214 C2212 1.388 . S
C2214 C2215 1.366 . S
C2215 C2214 1.366 . S
C2215 C2216 1.414 . S
C2215 C2218 1.499 . S
C2216 H2196 0.950 . S
C2216 C2215 1.414 . S
C2216 C2217 1.374 . S
C2217 H2197 0.950 . S
C2217 C2213 1.385 . S
C2217 C2216 1.374 . S
C2218 C2215 1.499 . S
C2218 C2219 1.373 . S
C2218 C2220 1.389 . S
C2219 H2198 0.950 . S
C2219 C2218 1.373 . S
C2219 C2235 1.377 . S
C2220 C2218 1.389 . S
C2220 C2221 1.524 . S
C2220 C2234 1.377 . S
C2221 C2220 1.524 . S
C2221 C2222 1.397 . S
C2221 C2226 1.363 . S
C2222 H2199 0.950 . S
C2222 C2221 1.397 . S
C2222 C2223 1.334 . S
C2223 H2200 0.950 . S
C2223 C2222 1.334 . S
C2223 C2224 1.287 . S
C2224 C2223 1.287 . S
C2224 C2225 1.524 . S
C2224 H2243 0.913 . S
C2225 H2201 0.950 . S
C2225 C2224 1.524 . S
C2225 C2226 1.415 . S
C2226 H2202 0.950 . S
C2226 C2221 1.363 . S
C2226 C2225 1.415 . S
C2227 H2203 0.951 . S
C2227 C2228 1.366 . S
C2227 C2229 1.388 . S
C2228 C2227 1.366 . S
C2228 C2232 1.385 . S
C2229 H2204 0.951 . S
C2229 C2227 1.388 . S
C2229 C2230 1.366 . S
C2230 C2229 1.366 . S
C2230 C2231 1.414 . S
C2230 C2233 1.499 . S
C2231 H2205 0.950 . S
C2231 C2230 1.414 . S
C2231 C2232 1.374 . S
C2232 H2206 0.950 . S
C2232 C2228 1.385 . S
C2232 C2231 1.374 . S
C2233 C2230 1.499 . S
C2233 C2234 1.373 . S
C2233 C2235 1.389 . S
C2234 H2207 0.950 . S
C2234 C2220 1.377 . S
C2234 C2233 1.373 . S
C2235 C2219 1.377 . S
C2235 C2233 1.389 . S
C2235 C2236 1.524 . S
C2236 C2235 1.524 . S
C2236 C2237 1.397 . S
C2236 C2241 1.363 . S
C2237 H2208 0.950 . S
C2237 C2236 1.397 . S
C2237 C2238 1.334 . S
C2238 H2209 0.950 . S
C2238 C2237 1.334 . S
C2238 C2239 1.287 . S
C2239 C2238 1.287 . S
C2239 C2240 1.524 . S
C2239 H2242 0.999 . S
C2240 H2210 0.950 . S
C2240 C2239 1.524 . S
C2240 C2241 1.415 . S
C2241 H2211 0.950 . S
C2241 C2236 1.363 . S
C2241 C2240 1.415 . S
H2242 C2239 0.999 . S
H2243 C2224 0.913 . S
H2244 C2262 0.951 . S
H2245 C2264 0.951 . S
H2246 C2266 0.950 . S
H2247 C2267 0.950 . S
H2248 C2269 0.950 . S
H2249 C2272 0.950 . S
H2250 C2273 0.950 . S
H2251 C2275 0.950 . S
H2252 C2276 0.950 . S
H2253 C2277 0.951 . S
H2254 C2279 0.951 . S
H2255 C2281 0.950 . S
H2256 C2282 0.950 . S
H2257 C2284 0.950 . S
H2258 C2287 0.950 . S
H2259 C2288 0.950 . S
H2260 C2290 0.950 . S
H2261 C2291 0.950 . S
C2262 H2244 0.951 . S
C2262 C2263 1.366 . S
C2262 C2264 1.388 . S
C2263 C2262 1.366 . S
C2263 C2267 1.385 . S
C2264 H2245 0.951 . S
C2264 C2262 1.388 . S
C2264 C2265 1.366 . S
C2265 C2264 1.366 . S
C2265 C2266 1.414 . S
C2265 C2268 1.499 . S
C2266 H2246 0.950 . S
C2266 C2265 1.414 . S
C2266 C2267 1.374 . S
C2267 H2247 0.950 . S
C2267 C2263 1.385 . S
C2267 C2266 1.374 . S
C2268 C2265 1.499 . S
C2268 C2269 1.373 . S
C2268 C2270 1.389 . S
C2269 H2248 0.950 . S
C2269 C2268 1.373 . S
C2269 C2285 1.377 . S
C2270 C2268 1.389 . S
C2270 C2271 1.524 . S
C2270 C2284 1.377 . S
C2271 C2270 1.524 . S
C2271 C2272 1.397 . S
C2271 C2276 1.363 . S
C2272 H2249 0.950 . S
C2272 C2271 1.397 . S
C2272 C2273 1.334 . S
C2273 H2250 0.950 . S
C2273 C2272 1.334 . S
C2273 C2274 1.287 . S
C2274 C2273 1.287 . S
C2274 C2275 1.524 . S
C2274 H2293 0.913 . S
C2275 H2251 0.950 . S
C2275 C2274 1.524 . S
C2275 C2276 1.415 . S
C2276 H2252 0.950 . S
C2276 C2271 1.363 . S
C2276 C2275 1.415 . S
C2277 H2253 0.951 . S
C2277 C2278 1.366 . S
C2277 C2279 1.388 . S
C2278 C2277 1.366 . S
C2278 C2282 1.385 . S
C2279 H2254 0.951 . S
C2279 C2277 1.388 . S
C2279 C2280 1.366 . S
C2280 C2279 1.366 . S
C2280 C2281 1.414 . S
C2280 C2283 1.499 . S
C2281 H2255 0.950 . S
C2281 C2280 1.414 . S
C2281 C2282 1.374 . S
C2282 H2256 0.950 . S
C2282 C2278 1.385 . S
C2282 C2281 1.374 . S
C2283 C2280 1.499 . S
C2283 C2284 1.373 . S
C2283 C2285 1.389 . S
C2284 H2257 0.950 . S
C2284 C2270 1.377 . S
C2284 C2283 1.373 . S
C2285 C2269 1.377 . S
C2285 C2283 1.389 . S
C2285 C2286 1.524 . S
C2286 C2285 1.524 . S
C2286 C2287 1.397 . S
C2286 C2291 1.363 . S
C2287 H2258 0.950 . S
C2287 C2286 1.397 . S
C2287 C2288 1.334 . S
C2288 H2259 0.950 . S
C2288 C2287 1.334 . S
C2288 C2289 1.287 . S
C2289 C2288 1.287 . S
C2289 C2290 1.524 . S
C2289 H2292 0.999 . S
C2290 H2260 0.950 . S
C2290 C2289 1.524 . S
C2290 C2291 1.415 . S
C2291 H2261 0.950 . S
C2291 C2286 1.363 . S
C2291 C2290 1.415 . S
H2292 C2289 0.999 . S
H2293 C2274 0.913 . S
H2294 C2312 0.951 . S
H2295 C2314 0.951 . S
H2296 C2316 0.950 . S
H2297 C2317 0.950 . S
H2298 C2319 0.950 . S
H2299 C2322 0.950 . S
H2300 C2323 0.950 . S
H2301 C2325 0.950 . S
H2302 C2326 0.950 . S
H2303 C2327 0.951 . S
H2304 C2329 0.951 . S
H2305 C2331 0.950 . S
H2306 C2332 0.950 . S
H2307 C2334 0.950 . S
H2308 C2337 0.950 . S
H2309 C2338 0.950 . S
H2310 C2340 0.950 . S
H2311 C2341 0.950 . S
C2312 H2294 0.951 . S
C2312 C2313 1.366 . S
C2312 C2314 1.388 . S
C2313 C2312 1.366 . S
C2313 C2317 1.385 . S
C2314 H2295 0.951 . S
C2314 C2312 1.388 . S
C2314 C2315 1.366 . S
C2315 C2314 1.366 . S
C2315 C2316 1.414 . S
C2315 C2318 1.499 . S
C2316 H2296 0.950 . S
C2316 C2315 1.414 . S
C2316 C2317 1.374 . S
C2317 H2297 0.950 . S
C2317 C2313 1.385 . S
C2317 C2316 1.374 . S
C2318 C2315 1.499 . S
C2318 C2319 1.373 . S
C2318 C2320 1.389 . S
C2319 H2298 0.950 . S
C2319 C2318 1.373 . S
C2319 C2335 1.377 . S
C2320 C2318 1.389 . S
C2320 C2321 1.524 . S
C2320 C2334 1.377 . S
C2321 C2320 1.524 . S
C2321 C2322 1.397 . S
C2321 C2326 1.363 . S
C2322 H2299 0.950 . S
C2322 C2321 1.397 . S
C2322 C2323 1.334 . S
C2323 H2300 0.950 . S
C2323 C2322 1.334 . S
C2323 C2324 1.287 . S
C2324 C2323 1.287 . S
C2324 C2325 1.524 . S
C2324 H2343 0.913 . S
C2325 H2301 0.950 . S
C2325 C2324 1.524 . S
C2325 C2326 1.415 . S
C2326 H2302 0.950 . S
C2326 C2321 1.363 . S
C2326 C2325 1.415 . S
C2327 H2303 0.951 . S
C2327 C2328 1.366 . S
C2327 C2329 1.388 . S
C2328 C2327 1.366 . S
C2328 C2332 1.385 . S
C2329 H2304 0.951 . S
C2329 C2327 1.388 . S
C2329 C2330 1.366 . S
C2330 C2329 1.366 . S
C2330 C2331 1.414 . S
C2330 C2333 1.499 . S
C2331 H2305 0.950 . S
C2331 C2330 1.414 . S
C2331 C2332 1.374 . S
C2332 H2306 0.950 . S
C2332 C2328 1.385 . S
C2332 C2331 1.374 . S
C2333 C2330 1.499 . S
C2333 C2334 1.373 . S
C2333 C2335 1.389 . S
C2334 H2307 0.950 . S
C2334 C2320 1.377 . S
C2334 C2333 1.373 . S
C2335 C2319 1.377 . S
C2335 C2333 1.389 . S
C2335 C2336 1.524 . S
C2336 C2335 1.524 . S
C2336 C2337 1.397 . S
C2336 C2341 1.363 . S
C2337 H2308 0.950 . S
C2337 C2336 1.397 . S
C2337 C2338 1.334 . S
C2338 H2309 0.950 . S
C2338 C2337 1.334 . S
C2338 C2339 1.287 . S
C2339 C2338 1.287 . S
C2339 C2340 1.524 . S
C2339 H2342 0.999 . S
C2340 H2310 0.950 . S
C2340 C2339 1.524 . S
C2340 C2341 1.415 . S
C2341 H2311 0.950 . S
C2341 C2336 1.363 . S
C2341 C2340 1.415 . S
H2342 C2339 0.999 . S
H2343 C2324 0.913 . S
H2344 C2362 0.929 1_565 S
H2345 C2364 0.951 1_565 S
H2346 C2366 0.950 . S
H2347 C2367 0.950 . S
H2348 C2369 0.950 . S
H2349 C2372 0.950 . S
H2350 C2373 0.950 . S
H2351 C2375 0.950 . S
H2352 C2376 0.950 . S
H2353 C2377 0.929 1_545 S
H2354 C2379 0.951 1_545 S
H2355 C2381 0.950 . S
H2356 C2382 0.950 . S
H2357 C2384 0.950 . S
H2358 C2387 0.950 . S
H2359 C2388 0.950 . S
H2360 C2390 0.950 . S
H2361 C2391 0.950 . S
C2362 H2344 0.929 1_545 S
C2362 C2363 1.366 . S
C2362 C2364 1.388 . S
C2363 C2362 1.366 . S
C2363 C2367 1.385 . S
C2364 H2345 0.951 1_545 S
C2364 C2362 1.388 . S
C2364 C2365 1.366 . S
C2365 C2364 1.366 . S
C2365 C2366 1.414 . S
C2365 C2368 1.499 . S
C2366 H2346 0.950 . S
C2366 C2365 1.414 . S
C2366 C2367 1.374 . S
C2367 H2347 0.950 . S
C2367 C2363 1.385 . S
C2367 C2366 1.374 . S
C2368 C2365 1.499 . S
C2368 C2369 1.373 . S
C2368 C2370 1.405 . S
C2369 H2348 0.950 . S
C2369 C2368 1.373 . S
C2369 C2385 1.360 1_544 S
C2370 C2368 1.405 . S
C2370 C2371 1.529 . S
C2370 C2384 1.360 1_544 S
C2371 C2370 1.529 . S
C2371 C2372 1.397 . S
C2371 C2376 1.363 1_545 S
C2372 H2349 0.950 . S
C2372 C2371 1.397 . S
C2372 C2373 1.334 . S
C2373 H2350 0.950 . S
C2373 C2372 1.334 . S
C2373 C2374 1.287 . S
C2374 C2373 1.287 . S
C2374 C2375 1.524 1_545 S
C2374 H2393 0.913 . S
C2375 H2351 0.950 . S
C2375 C2374 1.524 1_565 S
C2375 C2376 1.415 . S
C2376 H2352 0.950 . S
C2376 C2371 1.363 1_565 S
C2376 C2375 1.415 . S
C2377 H2353 0.929 1_565 S
C2377 C2378 1.366 . S
C2377 C2379 1.388 . S
C2378 C2377 1.366 . S
C2378 C2382 1.385 . S
C2379 H2354 0.951 1_565 S
C2379 C2377 1.388 . S
C2379 C2380 1.366 . S
C2380 C2379 1.366 . S
C2380 C2381 1.414 . S
C2380 C2383 1.499 . S
C2381 H2355 0.950 . S
C2381 C2380 1.414 . S
C2381 C2382 1.374 . S
C2382 H2356 0.950 . S
C2382 C2378 1.385 . S
C2382 C2381 1.374 . S
C2383 C2380 1.499 . S
C2383 C2384 1.373 . S
C2383 C2385 1.405 . S
C2384 H2357 0.950 . S
C2384 C2370 1.360 1_566 S
C2384 C2383 1.373 . S
C2385 C2369 1.360 1_566 S
C2385 C2383 1.405 . S
C2385 C2386 1.529 . S
C2386 C2385 1.529 . S
C2386 C2387 1.397 . S
C2386 C2391 1.363 1_565 S
C2387 H2358 0.950 . S
C2387 C2386 1.397 . S
C2387 C2388 1.334 . S
C2388 H2359 0.950 . S
C2388 C2387 1.334 . S
C2388 C2389 1.287 . S
C2389 C2388 1.287 . S
C2389 C2390 1.524 1_565 S
C2389 H2392 0.999 . S
C2390 H2360 0.950 . S
C2390 C2389 1.524 1_545 S
C2390 C2391 1.415 . S
C2391 H2361 0.950 . S
C2391 C2386 1.363 1_545 S
C2391 C2390 1.415 . S
H2392 C2389 0.999 . S
H2393 C2374 0.913 . S
H2394 C2412 0.951 . S
H2395 C2414 0.951 . S
H2396 C2416 0.950 1_655 S
H2397 C2417 0.950 . S
H2398 C2419 0.950 . S
H2399 C2422 0.950 . S
H2400 C2423 0.950 . S
H2401 C2425 0.953 . S
H2402 C2426 0.950 . S
H2403 C2427 0.951 . S
H2404 C2429 0.951 . S
H2405 C2431 0.950 1_455 S
H2406 C2432 0.950 . S
H2407 C2434 0.950 . S
H2408 C2437 0.950 . S
H2409 C2438 0.950 . S
H2410 C2440 0.953 . S
H2411 C2441 0.950 . S
C2412 H2394 0.951 . S
C2412 C2413 1.366 . S
C2412 C2414 1.388 . S
C2413 C2412 1.366 . S
C2413 C2417 1.385 . S
C2414 H2395 0.951 . S
C2414 C2412 1.388 . S
C2414 C2415 1.366 . S
C2415 C2414 1.366 . S
C2415 C2416 1.414 . S
C2415 C2418 1.499 . S
C2416 H2396 0.950 1_455 S
C2416 C2415 1.414 . S
C2416 C2417 1.374 . S
C2417 H2397 0.950 . S
C2417 C2413 1.385 . S
C2417 C2416 1.374 . S
C2418 C2415 1.499 . S
C2418 C2419 1.373 1_455 S
C2418 C2420 1.389 . S
C2419 H2398 0.950 . S
C2419 C2418 1.373 1_655 S
C2419 C2435 1.377 1_556 S
C2420 C2418 1.389 . S
C2420 C2421 1.524 . S
C2420 C2434 1.377 1_556 S
C2421 C2420 1.524 . S
C2421 C2422 1.397 . S
C2421 C2426 1.363 1_556 S
C2422 H2399 0.950 . S
C2422 C2421 1.397 . S
C2422 C2423 1.334 . S
C2423 H2400 0.950 . S
C2423 C2422 1.334 . S
C2423 C2424 1.287 . S
C2424 C2423 1.287 . S
C2424 C2425 1.520 1_556 S
C2424 H2443 0.913 . S
C2425 H2401 0.953 . S
C2425 C2424 1.520 1_554 S
C2425 C2426 1.416 . S
C2426 H2402 0.950 . S
C2426 C2421 1.363 1_554 S
C2426 C2425 1.416 . S
C2427 H2403 0.951 . S
C2427 C2428 1.366 . S
C2427 C2429 1.388 . S
C2428 C2427 1.366 . S
C2428 C2432 1.385 . S
C2429 H2404 0.951 . S
C2429 C2427 1.388 . S
C2429 C2430 1.366 . S
C2430 C2429 1.366 . S
C2430 C2431 1.414 . S
C2430 C2433 1.499 . S
C2431 H2405 0.950 1_655 S
C2431 C2430 1.414 . S
C2431 C2432 1.374 . S
C2432 H2406 0.950 . S
C2432 C2428 1.385 . S
C2432 C2431 1.374 . S
C2433 C2430 1.499 . S
C2433 C2434 1.373 1_655 S
C2433 C2435 1.389 . S
C2434 H2407 0.950 . S
C2434 C2420 1.377 1_554 S
C2434 C2433 1.373 1_455 S
C2435 C2419 1.377 1_554 S
C2435 C2433 1.389 . S
C2435 C2436 1.524 . S
C2436 C2435 1.524 . S
C2436 C2437 1.397 . S
C2436 C2441 1.363 1_554 S
C2437 H2408 0.950 . S
C2437 C2436 1.397 . S
C2437 C2438 1.334 . S
C2438 H2409 0.950 . S
C2438 C2437 1.334 . S
C2438 C2439 1.287 . S
C2439 C2438 1.287 . S
C2439 C2440 1.520 1_554 S
C2439 H2442 0.999 . S
C2440 H2410 0.953 . S
C2440 C2439 1.520 1_556 S
C2440 C2441 1.416 . S
C2441 H2411 0.950 . S
C2441 C2436 1.363 1_556 S
C2441 C2440 1.416 . S
H2442 C2439 0.999 . S
H2443 C2424 0.913 . S
H2444 C2462 0.951 1_565 S
H2445 C2464 0.992 . S
H2446 C2466 0.950 . S
H2447 C2467 0.950 . S
H2448 C2469 0.950 . S
H2449 C2472 0.929 1_545 S
H2450 C2473 0.950 . S
H2451 C2475 0.950 . S
H2452 C2476 0.950 . S
H2453 C2477 0.951 1_545 S
H2454 C2479 0.992 . S
H2455 C2481 0.950 . S
H2456 C2482 0.950 . S
H2457 C2484 0.950 . S
H2458 C2487 0.929 1_565 S
H2459 C2488 0.950 . S
H2460 C2490 0.950 . S
H2461 C2491 0.950 . S
C2462 H2444 0.951 1_545 S
C2462 C2463 1.366 . S
C2462 C2464 1.376 1_545 S
C2463 C2462 1.366 . S
C2463 C2467 1.385 . S
C2464 H2445 0.992 . S
C2464 C2462 1.376 1_565 S
C2464 C2465 1.338 1_565 S
C2465 C2464 1.338 1_545 S
C2465 C2466 1.414 . S
C2465 C2468 1.499 . S
C2466 H2446 0.950 . S
C2466 C2465 1.414 . S
C2466 C2467 1.374 . S
C2467 H2447 0.950 . S
C2467 C2463 1.385 . S
C2467 C2466 1.374 . S
C2468 C2465 1.499 . S
C2468 C2469 1.373 . S
C2468 C2470 1.389 1_545 S
C2469 H2448 0.950 . S
C2469 C2468 1.373 . S
C2469 C2485 1.377 1_556 S
C2470 C2468 1.389 1_565 S
C2470 C2471 1.524 . S
C2470 C2484 1.377 1_556 S
C2471 C2470 1.524 . S
C2471 C2472 1.397 . S
C2471 C2476 1.363 . S
C2472 H2449 0.929 1_565 S
C2472 C2471 1.397 . S
C2472 C2473 1.334 . S
C2473 H2450 0.950 . S
C2473 C2472 1.334 . S
C2473 C2474 1.287 . S
C2474 C2473 1.287 . S
C2474 C2475 1.524 . S
C2474 H2493 0.913 . S
C2475 H2451 0.950 . S
C2475 C2474 1.524 . S
C2475 C2476 1.415 . S
C2476 H2452 0.950 . S
C2476 C2471 1.363 . S
C2476 C2475 1.415 . S
C2477 H2453 0.951 1_565 S
C2477 C2478 1.366 . S
C2477 C2479 1.376 1_565 S
C2478 C2477 1.366 . S
C2478 C2482 1.385 . S
C2479 H2454 0.992 . S
C2479 C2477 1.376 1_545 S
C2479 C2480 1.338 1_545 S
C2480 C2479 1.338 1_565 S
C2480 C2481 1.414 . S
C2480 C2483 1.499 . S
C2481 H2455 0.950 . S
C2481 C2480 1.414 . S
C2481 C2482 1.374 . S
C2482 H2456 0.950 . S
C2482 C2478 1.385 . S
C2482 C2481 1.374 . S
C2483 C2480 1.499 . S
C2483 C2484 1.373 . S
C2483 C2485 1.389 1_565 S
C2484 H2457 0.950 . S
C2484 C2470 1.377 1_554 S
C2484 C2483 1.373 . S
C2485 C2469 1.377 1_554 S
C2485 C2483 1.389 1_545 S
C2485 C2486 1.524 . S
C2486 C2485 1.524 . S
C2486 C2487 1.397 . S
C2486 C2491 1.363 . S
C2487 H2458 0.929 1_545 S
C2487 C2486 1.397 . S
C2487 C2488 1.334 . S
C2488 H2459 0.950 . S
C2488 C2487 1.334 . S
C2488 C2489 1.287 . S
C2489 C2488 1.287 . S
C2489 C2490 1.524 . S
C2489 H2492 0.999 . S
C2490 H2460 0.950 . S
C2490 C2489 1.524 . S
C2490 C2491 1.415 . S
C2491 H2461 0.950 . S
C2491 C2486 1.363 . S
C2491 C2490 1.415 . S
H2492 C2489 0.999 . S
H2493 C2474 0.913 . S
H2494 C2512 0.951 1_455 S
H2495 C2514 0.924 1_455 S
H2496 C2516 0.950 . S
H2497 C2517 0.950 . S
H2498 C2519 0.950 . S
H2499 C2522 0.950 . S
H2500 C2523 0.950 . S
H2501 C2525 0.950 . S
H2502 C2526 0.950 . S
H2503 C2527 0.951 1_655 S
H2504 C2529 0.924 1_655 S
H2505 C2531 0.950 . S
H2506 C2532 0.950 . S
H2507 C2534 0.950 . S
H2508 C2537 0.950 . S
H2509 C2538 0.950 . S
H2510 C2540 0.950 . S
H2511 C2541 0.950 . S
C2512 H2494 0.951 1_655 S
C2512 C2513 1.366 . S
C2512 C2514 1.396 . S
C2513 C2512 1.366 . S
C2513 C2517 1.385 . S
C2514 H2495 0.924 1_655 S
C2514 C2512 1.396 . S
C2514 C2515 1.384 . S
C2515 C2514 1.384 . S
C2515 C2516 1.414 . S
C2515 C2518 1.499 . S
C2516 H2496 0.950 . S
C2516 C2515 1.414 . S
C2516 C2517 1.374 . S
C2517 H2497 0.950 . S
C2517 C2513 1.385 . S
C2517 C2516 1.374 . S
C2518 C2515 1.499 . S
C2518 C2519 1.373 . S
C2518 C2520 1.389 1_655 S
C2519 H2498 0.950 . S
C2519 C2518 1.373 . S
C2519 C2535 1.377 1_556 S
C2520 C2518 1.389 1_455 S
C2520 C2521 1.524 . S
C2520 C2534 1.377 1_556 S
C2521 C2520 1.524 . S
C2521 C2522 1.397 1_455 S
C2521 C2526 1.363 . S
C2522 H2499 0.950 . S
C2522 C2521 1.397 1_655 S
C2522 C2523 1.334 . S
C2523 H2500 0.950 . S
C2523 C2522 1.334 . S
C2523 C2524 1.304 . S
C2524 C2523 1.304 . S
C2524 C2525 1.505 1_655 S
C2524 H2543 0.913 . S
C2525 H2501 0.950 . S
C2525 C2524 1.505 1_455 S
C2525 C2526 1.415 . S
C2526 H2502 0.950 . S
C2526 C2521 1.363 . S
C2526 C2525 1.415 . S
C2527 H2503 0.951 1_455 S
C2527 C2528 1.366 . S
C2527 C2529 1.396 . S
C2528 C2527 1.366 . S
C2528 C2532 1.385 . S
C2529 H2504 0.924 1_455 S
C2529 C2527 1.396 . S
C2529 C2530 1.384 . S
C2530 C2529 1.384 . S
C2530 C2531 1.414 . S
C2530 C2533 1.499 . S
C2531 H2505 0.950 . S
C2531 C2530 1.414 . S
C2531 C2532 1.374 . S
C2532 H2506 0.950 . S
C2532 C2528 1.385 . S
C2532 C2531 1.374 . S
C2533 C2530 1.499 . S
C2533 C2534 1.373 . S
C2533 C2535 1.389 1_455 S
C2534 H2507 0.950 . S
C2534 C2520 1.377 1_554 S
C2534 C2533 1.373 . S
C2535 C2519 1.377 1_554 S
C2535 C2533 1.389 1_655 S
C2535 C2536 1.524 . S
C2536 C2535 1.524 . S
C2536 C2537 1.397 1_655 S
C2536 C2541 1.363 . S
C2537 H2508 0.950 . S
C2537 C2536 1.397 1_455 S
C2537 C2538 1.334 . S
C2538 H2509 0.950 . S
C2538 C2537 1.334 . S
C2538 C2539 1.304 . S
C2539 C2538 1.304 . S
C2539 C2540 1.505 1_455 S
C2539 H2542 0.999 . S
C2540 H2510 0.950 . S
C2540 C2539 1.505 1_655 S
C2540 C2541 1.415 . S
C2541 H2511 0.950 . S
C2541 C2536 1.363 . S
C2541 C2540 1.415 . S
H2542 C2539 0.999 . S
H2543 C2524 0.913 . S
C963 C5 1.328 . S
C978 C418 1.328 . S
C1013 C64 1.328 . S
C1028 C241 1.328 . S
C1063 C300 1.328 . S
C1078 C123 1.328 . S
C1113 C182 1.328 . S
C1128 C359 1.328 . S
C1163 C477 1.328 . S
C1178 C890 1.328 . S
C1213 C713 1.328 . S
C1228 C536 1.328 . S
C1263 C772 1.328 . S
C1278 C595 1.328 . S
C1313 C831 1.328 . S
C1328 C654 1.328 . S
C1363 C52 1.522 . S
C1378 C682 1.521 . S
C1413 C111 1.522 . S
C1428 C505 1.521 . S
C1463 C564 1.521 . S
C1478 C170 1.522 . S
C1513 C229 1.522 . S
C1528 C623 1.521 . S
C1563 C288 1.522 . S
C1578 C800 1.521 . S
C1613 C859 1.521 . S
C1628 C347 1.522 . S
C1663 C406 1.522 . S
C1678 C918 1.521 . S
C1713 C741 1.521 . S
C1728 C465 1.522 . S
C1763 C524 1.556 . S
C1778 C210 1.521 . S
C1813 C33 1.521 . S
C1828 C583 1.554 . S
C1863 C642 1.555 . S
C1878 C92 1.521 . S
C1913 C151 1.521 . S
C1928 C701 1.555 . S
C1963 C760 1.556 . S
C1978 C328 1.521 . S
C2013 C387 1.521 . S
C2028 C819 1.555 . S
C2063 C446 1.521 . S
C2078 C878 1.554 . S
C2113 C269 1.521 . S
C2128 C937 1.556 . S
C2163 C239 1.663 . S
C2178 C3 1.663 . S
C2213 C298 1.663 . S
C2228 C62 1.663 . S
C2263 C121 1.663 . S
C2278 C357 1.663 . S
C2313 C416 1.663 . S
C2328 C180 1.663 . S
C2363 C711 1.663 . S
C2378 C475 1.663 . S
C2413 C770 1.663 . S
C2428 C534 1.663 . S
C2463 C593 1.663 . S
C2478 C829 1.663 . S
C2513 C888 1.663 . S
C2528 C652 1.663 . S
