# Generated by pormake.
# Topology zni, (4)-cn, num edge types: 1
# Building blocks:
#     Node 0, Type 0, BuildingBlock: GALJAG_clean_sbu_0, # of connection points: 4
#     Node 1, Type 0, BuildingBlock: GALJAG_clean_sbu_0, # of connection points: 4
#     Node 2, Type 0, BuildingBlock: GALJAG_clean_sbu_0, # of connection points: 4
#     Node 3, Type 0, BuildingBlock: GALJAG_clean_sbu_0, # of connection points: 4
#     Node 4, Type 0, BuildingBlock: GALJAG_clean_sbu_0, # of connection points: 4
#     Node 5, Type 0, BuildingBlock: GALJAG_clean_sbu_0, # of connection points: 4
#     Node 6, Type 0, BuildingBlock: GALJAG_clean_sbu_0, # of connection points: 4
#     Node 7, Type 0, BuildingBlock: GALJAG_clean_sbu_0, # of connection points: 4
#     Node 8, Type 0, BuildingBlock: GALJAG_clean_sbu_0, # of connection points: 4
#     Node 9, Type 0, BuildingBlock: GALJAG_clean_sbu_0, # of connection points: 4
#     Node 10, Type 0, BuildingBlock: GALJAG_clean_sbu_0, # of connection points: 4
#     Node 11, Type 0, BuildingBlock: GALJAG_clean_sbu_0, # of connection points: 4
#     Node 12, Type 0, BuildingBlock: GALJAG_clean_sbu_0, # of connection points: 4
#     Node 13, Type 0, BuildingBlock: GALJAG_clean_sbu_0, # of connection points: 4
#     Node 14, Type 0, BuildingBlock: GALJAG_clean_sbu_0, # of connection points: 4
#     Node 15, Type 0, BuildingBlock: GALJAG_clean_sbu_0, # of connection points: 4
#     Node 16, Type 0, BuildingBlock: GALJAG_clean_sbu_0, # of connection points: 4
#     Node 17, Type 0, BuildingBlock: GALJAG_clean_sbu_0, # of connection points: 4
#     Node 18, Type 0, BuildingBlock: GALJAG_clean_sbu_0, # of connection points: 4
#     Node 19, Type 0, BuildingBlock: GALJAG_clean_sbu_0, # of connection points: 4
#     Node 20, Type 0, BuildingBlock: GALJAG_clean_sbu_0, # of connection points: 4
#     Node 21, Type 0, BuildingBlock: GALJAG_clean_sbu_0, # of connection points: 4
#     Node 22, Type 0, BuildingBlock: GALJAG_clean_sbu_0, # of connection points: 4
#     Node 23, Type 0, BuildingBlock: GALJAG_clean_sbu_0, # of connection points: 4
#     Node 24, Type 0, BuildingBlock: GALJAG_clean_sbu_0, # of connection points: 4
#     Node 25, Type 0, BuildingBlock: GALJAG_clean_sbu_0, # of connection points: 4
#     Node 26, Type 0, BuildingBlock: GALJAG_clean_sbu_0, # of connection points: 4
#     Node 27, Type 0, BuildingBlock: GALJAG_clean_sbu_0, # of connection points: 4
#     Node 28, Type 0, BuildingBlock: GALJAG_clean_sbu_0, # of connection points: 4
#     Node 29, Type 0, BuildingBlock: GALJAG_clean_sbu_0, # of connection points: 4
#     Node 30, Type 0, BuildingBlock: GALJAG_clean_sbu_0, # of connection points: 4
#     Node 31, Type 0, BuildingBlock: GALJAG_clean_sbu_0, # of connection points: 4
#     Edge 32, Type (0, 0), BuildingBlock: KIFKEQ_clean_linker_1, # of connection points: 2
#     Edge 33, Type (0, 0), BuildingBlock: KIFKEQ_clean_linker_1, # of connection points: 2
#     Edge 34, Type (0, 0), BuildingBlock: KIFKEQ_clean_linker_1, # of connection points: 2
#     Edge 35, Type (0, 0), BuildingBlock: KIFKEQ_clean_linker_1, # of connection points: 2
#     Edge 36, Type (0, 0), BuildingBlock: KIFKEQ_clean_linker_1, # of connection points: 2
#     Edge 37, Type (0, 0), BuildingBlock: KIFKEQ_clean_linker_1, # of connection points: 2
#     Edge 38, Type (0, 0), BuildingBlock: KIFKEQ_clean_linker_1, # of connection points: 2
#     Edge 39, Type (0, 0), BuildingBlock: KIFKEQ_clean_linker_1, # of connection points: 2
#     Edge 40, Type (0, 0), BuildingBlock: KIFKEQ_clean_linker_1, # of connection points: 2
#     Edge 41, Type (0, 0), BuildingBlock: KIFKEQ_clean_linker_1, # of connection points: 2
#     Edge 42, Type (0, 0), BuildingBlock: KIFKEQ_clean_linker_1, # of connection points: 2
#     Edge 43, Type (0, 0), BuildingBlock: KIFKEQ_clean_linker_1, # of connection points: 2
#     Edge 44, Type (0, 0), BuildingBlock: KIFKEQ_clean_linker_1, # of connection points: 2
#     Edge 45, Type (0, 0), BuildingBlock: KIFKEQ_clean_linker_1, # of connection points: 2
#     Edge 46, Type (0, 0), BuildingBlock: KIFKEQ_clean_linker_1, # of connection points: 2
#     Edge 47, Type (0, 0), BuildingBlock: KIFKEQ_clean_linker_1, # of connection points: 2
#     Edge 48, Type (0, 0), BuildingBlock: KIFKEQ_clean_linker_1, # of connection points: 2
#     Edge 49, Type (0, 0), BuildingBlock: KIFKEQ_clean_linker_1, # of connection points: 2
#     Edge 50, Type (0, 0), BuildingBlock: KIFKEQ_clean_linker_1, # of connection points: 2
#     Edge 51, Type (0, 0), BuildingBlock: KIFKEQ_clean_linker_1, # of connection points: 2
#     Edge 52, Type (0, 0), BuildingBlock: KIFKEQ_clean_linker_1, # of connection points: 2
#     Edge 53, Type (0, 0), BuildingBlock: KIFKEQ_clean_linker_1, # of connection points: 2
#     Edge 54, Type (0, 0), BuildingBlock: KIFKEQ_clean_linker_1, # of connection points: 2
#     Edge 55, Type (0, 0), BuildingBlock: KIFKEQ_clean_linker_1, # of connection points: 2
#     Edge 56, Type (0, 0), BuildingBlock: KIFKEQ_clean_linker_1, # of connection points: 2
#     Edge 57, Type (0, 0), BuildingBlock: KIFKEQ_clean_linker_1, # of connection points: 2
#     Edge 58, Type (0, 0), BuildingBlock: KIFKEQ_clean_linker_1, # of connection points: 2
#     Edge 59, Type (0, 0), BuildingBlock: KIFKEQ_clean_linker_1, # of connection points: 2
#     Edge 60, Type (0, 0), BuildingBlock: KIFKEQ_clean_linker_1, # of connection points: 2
#     Edge 61, Type (0, 0), BuildingBlock: KIFKEQ_clean_linker_1, # of connection points: 2
#     Edge 62, Type (0, 0), BuildingBlock: KIFKEQ_clean_linker_1, # of connection points: 2
#     Edge 63, Type (0, 0), BuildingBlock: KIFKEQ_clean_linker_1, # of connection points: 2
#     Edge 64, Type (0, 0), BuildingBlock: KIFKEQ_clean_linker_1, # of connection points: 2
#     Edge 65, Type (0, 0), BuildingBlock: KIFKEQ_clean_linker_1, # of connection points: 2
#     Edge 66, Type (0, 0), BuildingBlock: KIFKEQ_clean_linker_1, # of connection points: 2
#     Edge 67, Type (0, 0), BuildingBlock: KIFKEQ_clean_linker_1, # of connection points: 2
#     Edge 68, Type (0, 0), BuildingBlock: KIFKEQ_clean_linker_1, # of connection points: 2
#     Edge 69, Type (0, 0), BuildingBlock: KIFKEQ_clean_linker_1, # of connection points: 2
#     Edge 70, Type (0, 0), BuildingBlock: KIFKEQ_clean_linker_1, # of connection points: 2
#     Edge 71, Type (0, 0), BuildingBlock: KIFKEQ_clean_linker_1, # of connection points: 2
#     Edge 72, Type (0, 0), BuildingBlock: KIFKEQ_clean_linker_1, # of connection points: 2
#     Edge 73, Type (0, 0), BuildingBlock: KIFKEQ_clean_linker_1, # of connection points: 2
#     Edge 74, Type (0, 0), BuildingBlock: KIFKEQ_clean_linker_1, # of connection points: 2
#     Edge 75, Type (0, 0), BuildingBlock: KIFKEQ_clean_linker_1, # of connection points: 2
#     Edge 76, Type (0, 0), BuildingBlock: KIFKEQ_clean_linker_1, # of connection points: 2
#     Edge 77, Type (0, 0), BuildingBlock: KIFKEQ_clean_linker_1, # of connection points: 2
#     Edge 78, Type (0, 0), BuildingBlock: KIFKEQ_clean_linker_1, # of connection points: 2
#     Edge 79, Type (0, 0), BuildingBlock: KIFKEQ_clean_linker_1, # of connection points: 2
#     Edge 80, Type (0, 0), BuildingBlock: KIFKEQ_clean_linker_1, # of connection points: 2
#     Edge 81, Type (0, 0), BuildingBlock: KIFKEQ_clean_linker_1, # of connection points: 2
#     Edge 82, Type (0, 0), BuildingBlock: KIFKEQ_clean_linker_1, # of connection points: 2
#     Edge 83, Type (0, 0), BuildingBlock: KIFKEQ_clean_linker_1, # of connection points: 2
#     Edge 84, Type (0, 0), BuildingBlock: KIFKEQ_clean_linker_1, # of connection points: 2
#     Edge 85, Type (0, 0), BuildingBlock: KIFKEQ_clean_linker_1, # of connection points: 2
#     Edge 86, Type (0, 0), BuildingBlock: KIFKEQ_clean_linker_1, # of connection points: 2
#     Edge 87, Type (0, 0), BuildingBlock: KIFKEQ_clean_linker_1, # of connection points: 2
#     Edge 88, Type (0, 0), BuildingBlock: KIFKEQ_clean_linker_1, # of connection points: 2
#     Edge 89, Type (0, 0), BuildingBlock: KIFKEQ_clean_linker_1, # of connection points: 2
#     Edge 90, Type (0, 0), BuildingBlock: KIFKEQ_clean_linker_1, # of connection points: 2
#     Edge 91, Type (0, 0), BuildingBlock: KIFKEQ_clean_linker_1, # of connection points: 2
#     Edge 92, Type (0, 0), BuildingBlock: KIFKEQ_clean_linker_1, # of connection points: 2
#     Edge 93, Type (0, 0), BuildingBlock: KIFKEQ_clean_linker_1, # of connection points: 2
#     Edge 94, Type (0, 0), BuildingBlock: KIFKEQ_clean_linker_1, # of connection points: 2
#     Edge 95, Type (0, 0), BuildingBlock: KIFKEQ_clean_linker_1, # of connection points: 2
# Relax obj value: 0.235
# Max RMSD: 0.125
# Mean RMSD: 0.125
data_MOF--net-zni--node1-GALJAG_clean_sbu_0--edge1-KIFKEQ_clean_linker_1
_symmetry_space_group_name_H-M    P1
_symmetry_Int_Tables_number       1
_symmetry_cell_setting            triclinic
loop_
_symmetry_equiv_pos_as_xyz
'x, y, z'
_cell_length_a     59.707811
_cell_length_b     59.715127
_cell_length_c     31.046368
_cell_angle_alpha  89.98896
_cell_angle_beta   89.923667
_cell_angle_gamma 89.977039
loop_
_atom_site_label
_atom_site_type_symbol
_atom_site_fract_x
_atom_site_fract_y
_atom_site_fract_z
_atom_type_partial_charge
In0 In 0.10249 0.09909 0.39552 0.0
O1 O 0.11671 0.08484 0.33274 0.0
O2 O 0.105 0.06202 0.38006 0.0
C3 C 0.11499 0.14229 0.38836 0.0
C4 C 0.05775 0.10199 0.3845 0.0
C5 C 0.12238 0.08976 0.47109 0.0
O6 O 0.12357 0.12703 0.36547 0.0
O7 O 0.10028 0.13569 0.41463 0.0
O8 O 0.10151 0.08841 0.46554 0.0
O9 O 0.13338 0.09556 0.4382 0.0
C10 C 0.11356 0.06469 0.34334 0.0
O11 O 0.06647 0.09379 0.41794 0.0
O12 O 0.07157 0.1084 0.35635 0.0
In13 In 0.14893 0.85237 0.6485 0.0
O14 O 0.16449 0.8699 0.59017 0.0
O15 O 0.18577 0.85102 0.63139 0.0
C16 C 0.1061 0.86451 0.63278 0.0
C17 C 0.1446 0.80728 0.6491 0.0
C18 C 0.16083 0.87476 0.72003 0.0
O19 O 0.12052 0.86327 0.60308 0.0
O20 O 0.11337 0.85975 0.66971 0.0
O21 O 0.16404 0.85402 0.71532 0.0
O22 O 0.15208 0.88442 0.68801 0.0
C23 C 0.18407 0.86305 0.59817 0.0
O24 O 0.14195 0.81916 0.68221 0.0
O25 O 0.14943 0.8181 0.61549 0.0
In26 In 0.39486 0.89744 0.88923 0.0
O27 O 0.42715 0.88807 0.92354 0.0
O28 O 0.42991 0.9054 0.86385 0.0
C29 C 0.37491 0.90413 0.96619 0.0
C30 C 0.38415 0.93182 0.8367 0.0
C31 C 0.38398 0.8554 0.86401 0.0
O32 O 0.39472 0.91015 0.95837 0.0
O33 O 0.36503 0.89495 0.93502 0.0
O34 O 0.3696 0.87083 0.86672 0.0
O35 O 0.40365 0.86137 0.87284 0.0
C36 C 0.43989 0.89637 0.89524 0.0
O37 O 0.38546 0.91189 0.82344 0.0
O38 O 0.38804 0.93428 0.87628 0.0
In39 In 0.35011 0.14639 0.13917 0.0
O40 O 0.33519 0.13286 0.07658 0.0
O41 O 0.3129 0.14177 0.1271 0.0
C42 C 0.39359 0.13667 0.12385 0.0
C43 C 0.35026 0.19135 0.13171 0.0
C44 C 0.3429 0.12612 0.21545 0.0
O45 O 0.37789 0.12441 0.11026 0.0
O46 O 0.38731 0.15358 0.14486 0.0
O47 O 0.33824 0.14641 0.2087 0.0
O48 O 0.35103 0.11591 0.1835 0.0
C49 C 0.31517 0.13441 0.08933 0.0
O50 O 0.34973 0.1815 0.16766 0.0
O51 O 0.35041 0.1785 0.0994 0.0
In52 In 0.10521 0.89916 0.09143 0.0
O53 O 0.06956 0.89853 0.06528 0.0
O54 O 0.07386 0.89442 0.13269 0.0
C55 C 0.12592 0.90945 0.01695 0.0
C56 C 0.11549 0.93449 0.14152 0.0
C57 C 0.11786 0.8561 0.1016 0.0
O58 O 0.10515 0.91194 0.02262 0.0
O59 O 0.13641 0.90208 0.04924 0.0
O60 O 0.12511 0.87154 0.12561 0.0
O61 O 0.10434 0.86244 0.07294 0.0
C62 C 0.06043 0.89546 0.10143 0.0
O63 O 0.12045 0.91467 0.15195 0.0
O64 O 0.10555 0.93638 0.10593 0.0
In65 In 0.34893 0.8527 0.34474 0.0
O66 O 0.33441 0.86649 0.40751 0.0
O67 O 0.31171 0.85638 0.35868 0.0
C68 C 0.39213 0.86495 0.3544 0.0
C69 C 0.35148 0.80786 0.35485 0.0
C70 C 0.33989 0.87202 0.26843 0.0
O71 O 0.37641 0.87464 0.37426 0.0
O72 O 0.38601 0.84917 0.33019 0.0
O73 O 0.33614 0.85162 0.27603 0.0
O74 O 0.34771 0.88291 0.29981 0.0
C75 C 0.31428 0.86423 0.396 0.0
O76 O 0.34826 0.81703 0.31881 0.0
O77 O 0.35313 0.82131 0.38604 0.0
In78 In 0.39617 0.10055 0.59123 0.0
O79 O 0.43176 0.10142 0.56519 0.0
O80 O 0.42736 0.1057 0.63261 0.0
C81 C 0.37617 0.09111 0.51572 0.0
C82 C 0.38618 0.06454 0.63995 0.0
C83 C 0.38361 0.14355 0.6027 0.0
O84 O 0.39682 0.08827 0.52216 0.0
O85 O 0.36539 0.09834 0.54781 0.0
O86 O 0.37578 0.12785 0.6255 0.0
O87 O 0.39761 0.13748 0.57463 0.0
C88 C 0.44083 0.1047 0.60128 0.0
O89 O 0.38021 0.08408 0.65038 0.0
O90 O 0.39696 0.06329 0.60513 0.0
In91 In 0.14764 0.14602 0.84327 0.0
O92 O 0.16316 0.13078 0.90387 0.0
O93 O 0.1849 0.14489 0.85691 0.0
C94 C 0.10432 0.13448 0.85432 0.0
C95 C 0.14484 0.19085 0.85269 0.0
C96 C 0.15708 0.12483 0.76895 0.0
O97 O 0.11979 0.12628 0.87716 0.0
O98 O 0.11077 0.14839 0.82641 0.0
O99 O 0.16039 0.1455 0.77439 0.0
O100 O 0.1493 0.11471 0.80134 0.0
C101 C 0.18303 0.13518 0.89277 0.0
O102 O 0.14739 0.18156 0.81655 0.0
O103 O 0.14391 0.17754 0.88422 0.0
In104 In 0.89635 0.8991 0.59947 0.0
O105 O 0.92931 0.8854 0.57261 0.0
O106 O 0.93091 0.90793 0.62541 0.0
C107 C 0.88034 0.90831 0.52053 0.0
C108 C 0.88302 0.93363 0.64935 0.0
C109 C 0.88194 0.85767 0.62176 0.0
O110 O 0.90105 0.90792 0.52874 0.0
O111 O 0.86776 0.90453 0.55239 0.0
O112 O 0.87331 0.86897 0.59186 0.0
O113 O 0.89751 0.8675 0.64159 0.0
C114 C 0.94148 0.89582 0.59905 0.0
O115 O 0.88014 0.9135 0.66042 0.0
O116 O 0.8923 0.93618 0.61324 0.0
In117 In 0.84948 0.14578 0.34599 0.0
O118 O 0.85147 0.18135 0.31919 0.0
O119 O 0.85368 0.17726 0.3869 0.0
C120 C 0.83843 0.12563 0.2717 0.0
C121 C 0.81391 0.13398 0.39426 0.0
C122 C 0.89253 0.13303 0.35612 0.0
O123 O 0.83655 0.14648 0.27746 0.0
O124 O 0.84541 0.11479 0.30395 0.0
O125 O 0.87859 0.13233 0.38672 0.0
O126 O 0.88474 0.14011 0.321 0.0
C127 C 0.85363 0.19059 0.35543 0.0
O128 O 0.8333 0.12648 0.4016 0.0
O129 O 0.8126 0.14717 0.36268 0.0
In130 In 0.60365 0.10059 0.09917 0.0
O131 O 0.61774 0.08621 0.16199 0.0
O132 O 0.60759 0.06351 0.11322 0.0
C133 C 0.62023 0.14077 0.1233 0.0
C134 C 0.5587 0.10603 0.09688 0.0
C135 C 0.61935 0.09139 0.01984 0.0
O136 O 0.62786 0.12975 0.09196 0.0
O137 O 0.60464 0.13119 0.14368 0.0
O138 O 0.59871 0.09306 0.028 0.0
O139 O 0.63205 0.09397 0.05188 0.0
C140 C 0.61554 0.06608 0.15043 0.0
O141 O 0.5721 0.11921 0.07836 0.0
O142 O 0.56794 0.08999 0.11644 0.0
In143 In 0.6468 0.85146 0.85603 0.0
O144 O 0.64484 0.8165 0.82706 0.0
O145 O 0.64693 0.81921 0.89532 0.0
C146 C 0.65272 0.8698 0.77748 0.0
C147 C 0.68266 0.86286 0.90418 0.0
C148 C 0.60421 0.86339 0.87517 0.0
O149 O 0.6569 0.84952 0.78539 0.0
O150 O 0.64575 0.88091 0.80931 0.0
O151 O 0.62042 0.87675 0.87934 0.0
O152 O 0.60954 0.8442 0.86187 0.0
C153 C 0.64541 0.8065 0.8629 0.0
O154 O 0.66286 0.86462 0.91792 0.0
O155 O 0.6843 0.85554 0.86627 0.0
In156 In 0.89486 0.09965 0.89808 0.0
O157 O 0.87949 0.08439 0.83745 0.0
O158 O 0.89269 0.06233 0.88475 0.0
C159 C 0.88376 0.14303 0.88635 0.0
C160 C 0.93974 0.10166 0.88794 0.0
C161 C 0.87393 0.09104 0.97314 0.0
O162 O 0.87488 0.12747 0.86476 0.0
O163 O 0.89816 0.13665 0.91336 0.0
O164 O 0.8945 0.08731 0.96729 0.0
O165 O 0.86377 0.09878 0.9408 0.0
C166 C 0.88323 0.06443 0.84871 0.0
O167 O 0.93052 0.09943 0.92425 0.0
O168 O 0.92633 0.10263 0.85661 0.0
In169 In 0.64905 0.14748 0.64451 0.0
O170 O 0.65044 0.18279 0.67251 0.0
O171 O 0.64799 0.17953 0.60456 0.0
C172 C 0.65572 0.12553 0.71909 0.0
C173 C 0.68346 0.13439 0.59423 0.0
C174 C 0.60539 0.13816 0.63171 0.0
O175 O 0.66171 0.14558 0.71347 0.0
O176 O 0.64689 0.11638 0.6867 0.0
O177 O 0.62079 0.12823 0.61134 0.0
O178 O 0.61207 0.15282 0.65791 0.0
C179 C 0.64904 0.19252 0.63655 0.0
O180 O 0.66333 0.13309 0.5822 0.0
O181 O 0.68617 0.14215 0.63162 0.0
In182 In 0.60113 0.89984 0.39807 0.0
O183 O 0.56525 0.90155 0.4228 0.0
O184 O 0.57006 0.89674 0.35563 0.0
C185 C 0.62062 0.90685 0.47501 0.0
C186 C 0.61393 0.93509 0.34967 0.0
C187 C 0.61179 0.85637 0.38618 0.0
O188 O 0.60033 0.9113 0.46775 0.0
O189 O 0.63132 0.89936 0.44305 0.0
O190 O 0.62182 0.87195 0.36653 0.0
O191 O 0.59644 0.86278 0.41121 0.0
C192 C 0.55636 0.89873 0.38639 0.0
O193 O 0.61692 0.91512 0.33772 0.0
O194 O 0.60473 0.93718 0.38598 0.0
In195 In 0.85256 0.8506 0.14424 0.0
O196 O 0.83679 0.86556 0.08344 0.0
O197 O 0.81517 0.85341 0.13245 0.0
C198 C 0.89593 0.86162 0.13338 0.0
C199 C 0.85409 0.80582 0.13275 0.0
C200 C 0.84614 0.8714 0.22011 0.0
O201 O 0.8805 0.87052 0.11139 0.0
O202 O 0.88941 0.8472 0.16033 0.0
O203 O 0.84329 0.85062 0.21517 0.0
O204 O 0.85183 0.88182 0.18648 0.0
C205 C 0.81692 0.86228 0.09581 0.0
O206 O 0.84726 0.81467 0.16724 0.0
O207 O 0.8599 0.81955 0.10393 0.0
In208 In 0.6006 0.59868 0.90626 0.0
O209 O 0.56588 0.60169 0.93674 0.0
O210 O 0.56769 0.59603 0.86932 0.0
C211 C 0.62288 0.58916 0.97936 0.0
C212 C 0.61212 0.56468 0.85386 0.0
C213 C 0.61099 0.64214 0.89239 0.0
O214 O 0.60253 0.5843 0.97391 0.0
O215 O 0.63216 0.59845 0.94751 0.0
O216 O 0.62012 0.62646 0.87149 0.0
O217 O 0.59661 0.63586 0.91952 0.0
C218 C 0.55541 0.59895 0.90192 0.0
O219 O 0.61321 0.5849 0.84213 0.0
O220 O 0.60545 0.56172 0.89201 0.0
In221 In 0.65005 0.35104 0.15531 0.0
O222 O 0.66416 0.3642 0.09171 0.0
O223 O 0.68715 0.35362 0.13971 0.0
C224 C 0.60658 0.36192 0.1436 0.0
C225 C 0.64835 0.30592 0.15083 0.0
C226 C 0.65947 0.37351 0.22831 0.0
O227 O 0.62213 0.37093 0.12213 0.0
O228 O 0.61298 0.34748 0.17051 0.0
O229 O 0.6637 0.35298 0.22344 0.0
O230 O 0.65086 0.3829 0.19593 0.0
C231 C 0.68435 0.36145 0.10242 0.0
O232 O 0.65023 0.31635 0.18594 0.0
O233 O 0.64748 0.31824 0.11784 0.0
In234 In 0.89686 0.39868 0.39574 0.0
O235 O 0.93299 0.40502 0.41687 0.0
O236 O 0.92773 0.38824 0.35748 0.0
C237 C 0.87661 0.40751 0.47128 0.0
C238 C 0.88556 0.43281 0.34307 0.0
C239 C 0.8845 0.35548 0.38863 0.0
O240 O 0.89753 0.4088 0.46614 0.0
O241 O 0.86578 0.40208 0.43801 0.0
O242 O 0.87635 0.37062 0.36492 0.0
O243 O 0.89867 0.36221 0.4158 0.0
C244 C 0.94163 0.39565 0.38447 0.0
O245 O 0.88282 0.41259 0.33266 0.0
O246 O 0.89385 0.43573 0.37991 0.0
In247 In 0.85157 0.64682 0.64985 0.0
O248 O 0.85345 0.68132 0.68111 0.0
O249 O 0.85528 0.67972 0.61292 0.0
C250 C 0.84069 0.62376 0.72138 0.0
C251 C 0.81626 0.6375 0.59903 0.0
C252 C 0.89459 0.63452 0.63732 0.0
O253 O 0.83762 0.64456 0.71768 0.0
O254 O 0.84898 0.61441 0.68859 0.0
O255 O 0.87931 0.62961 0.61087 0.0
O256 O 0.88812 0.64558 0.6696 0.0
C257 C 0.85535 0.69187 0.64614 0.0
O258 O 0.83603 0.63226 0.5887 0.0
O259 O 0.81442 0.64731 0.63478 0.0
In260 In 0.60228 0.40003 0.59884 0.0
O261 O 0.5667 0.39994 0.57246 0.0
O262 O 0.57088 0.39443 0.63956 0.0
C263 C 0.6231 0.41034 0.52445 0.0
C264 C 0.61217 0.43521 0.64973 0.0
C265 C 0.61493 0.35691 0.60834 0.0
O266 O 0.60231 0.41271 0.52994 0.0
O267 O 0.63356 0.40315 0.55691 0.0
O268 O 0.62253 0.37233 0.63203 0.0
O269 O 0.60105 0.3633 0.58037 0.0
C270 C 0.55751 0.39611 0.60829 0.0
O271 O 0.61745 0.4154 0.65962 0.0
O272 O 0.60209 0.43716 0.61429 0.0
In273 In 0.84763 0.35231 0.84388 0.0
O274 O 0.833 0.36663 0.90613 0.0
O275 O 0.81044 0.35436 0.85883 0.0
C276 C 0.89103 0.36391 0.85351 0.0
C277 C 0.85014 0.30748 0.85364 0.0
C278 C 0.83834 0.37311 0.76906 0.0
O279 O 0.87554 0.37322 0.87471 0.0
O280 O 0.88459 0.34884 0.82799 0.0
O281 O 0.83495 0.35249 0.77493 0.0
O282 O 0.84597 0.38339 0.80135 0.0
C283 C 0.81292 0.36305 0.8955 0.0
O284 O 0.84701 0.31667 0.81756 0.0
O285 O 0.8518 0.32089 0.88487 0.0
In286 In 0.89477 0.59745 0.08882 0.0
O287 O 0.92978 0.59902 0.05914 0.0
O288 O 0.92681 0.60469 0.12633 0.0
C289 C 0.87385 0.58541 0.01588 0.0
C290 C 0.88487 0.56203 0.13919 0.0
C291 C 0.88122 0.64023 0.09955 0.0
O292 O 0.89481 0.58413 0.0206 0.0
O293 O 0.86328 0.59238 0.0485 0.0
O294 O 0.88195 0.62648 0.13042 0.0
O295 O 0.88717 0.63235 0.06367 0.0
C296 C 0.93957 0.60342 0.09405 0.0
O297 O 0.87625 0.58108 0.14527 0.0
O298 O 0.89828 0.56098 0.10792 0.0
In299 In 0.64935 0.64701 0.34979 0.0
O300 O 0.66455 0.63316 0.41189 0.0
O301 O 0.68662 0.64539 0.3636 0.0
C302 C 0.60613 0.63485 0.35977 0.0
C303 C 0.64631 0.69187 0.35861 0.0
C304 C 0.65907 0.62603 0.27541 0.0
O305 O 0.62163 0.62637 0.38212 0.0
O306 O 0.61249 0.64933 0.3329 0.0
O307 O 0.66172 0.6468 0.28071 0.0
O308 O 0.65184 0.61568 0.30802 0.0
C309 C 0.68451 0.6368 0.40045 0.0
O310 O 0.64987 0.68251 0.32285 0.0
O311 O 0.64451 0.67862 0.39008 0.0
In312 In 0.39747 0.39876 0.09715 0.0
O313 O 0.38236 0.41393 0.15821 0.0
O314 O 0.39586 0.43603 0.11125 0.0
C315 C 0.3851 0.3556 0.10662 0.0
C316 C 0.44222 0.39562 0.10823 0.0
C317 C 0.37725 0.40815 0.02184 0.0
O318 O 0.37673 0.37108 0.12921 0.0
O319 O 0.39967 0.36194 0.07986 0.0
O320 O 0.39793 0.41105 0.02793 0.0
O321 O 0.36661 0.40097 0.05415 0.0
C322 C 0.38643 0.43389 0.14735 0.0
O323 O 0.43336 0.39906 0.07198 0.0
O324 O 0.42852 0.394 0.13905 0.0
In325 In 0.34965 0.6453 0.845 0.0
O326 O 0.33542 0.6434 0.91328 0.0
O327 O 0.31727 0.62764 0.86276 0.0
C328 C 0.39131 0.62979 0.86226 0.0
C329 C 0.35254 0.69061 0.83936 0.0
C330 C 0.33716 0.62693 0.76977 0.0
O331 O 0.37666 0.63164 0.89142 0.0
O332 O 0.38476 0.63544 0.82538 0.0
O333 O 0.33437 0.64748 0.77794 0.0
O334 O 0.3455 0.61563 0.80014 0.0
C335 C 0.31827 0.63241 0.90227 0.0
O336 O 0.36733 0.67753 0.82529 0.0
O337 O 0.33599 0.68094 0.85633 0.0
In338 In 0.10401 0.60082 0.60357 0.0
O339 O 0.11843 0.586 0.66562 0.0
O340 O 0.11254 0.56398 0.61338 0.0
C341 C 0.11512 0.64229 0.63038 0.0
C342 C 0.05879 0.60086 0.60548 0.0
C343 C 0.12143 0.5982 0.52348 0.0
O344 O 0.1296 0.62727 0.62362 0.0
O345 O 0.09512 0.63618 0.62476 0.0
O346 O 0.10597 0.58538 0.5361 0.0
O347 O 0.12813 0.612 0.55126 0.0
C348 C 0.119 0.56618 0.65172 0.0
O349 O 0.06979 0.60631 0.57235 0.0
O350 O 0.0706 0.5952 0.63734 0.0
In351 In 0.15011 0.35186 0.34533 0.0
O352 O 0.15002 0.31605 0.31952 0.0
O353 O 0.14552 0.32056 0.38673 0.0
C354 C 0.15966 0.37228 0.27036 0.0
C355 C 0.18553 0.36427 0.39345 0.0
C356 C 0.10679 0.36364 0.35562 0.0
O357 O 0.16241 0.35154 0.27623 0.0
O358 O 0.15269 0.38291 0.30289 0.0
O359 O 0.12105 0.36614 0.38525 0.0
O360 O 0.11439 0.35518 0.32143 0.0
C361 C 0.14692 0.30701 0.35571 0.0
O362 O 0.16593 0.37103 0.40138 0.0
O363 O 0.18718 0.35154 0.36123 0.0
In364 In 0.39656 0.60005 0.39726 0.0
O365 O 0.38238 0.58494 0.33546 0.0
O366 O 0.39361 0.56273 0.38436 0.0
C367 C 0.38611 0.64351 0.38502 0.0
C368 C 0.44155 0.60135 0.38887 0.0
C369 C 0.37444 0.59247 0.47144 0.0
O370 O 0.37685 0.628 0.3639 0.0
O371 O 0.40064 0.63705 0.41168 0.0
O372 O 0.39497 0.58812 0.46671 0.0
O373 O 0.36492 0.60019 0.43839 0.0
C374 C 0.38527 0.56493 0.34732 0.0
O375 O 0.43196 0.59903 0.42483 0.0
O376 O 0.42845 0.60278 0.35713 0.0
In377 In 0.14751 0.64642 0.13653 0.0
O378 O 0.14839 0.68139 0.16638 0.0
O379 O 0.15028 0.67891 0.09829 0.0
C380 C 0.15135 0.62622 0.21359 0.0
C381 C 0.18221 0.63141 0.0887 0.0
C382 C 0.10418 0.63797 0.11839 0.0
O383 O 0.16169 0.64403 0.20438 0.0
O384 O 0.13949 0.61834 0.18362 0.0
O385 O 0.11984 0.62576 0.10422 0.0
O386 O 0.1105 0.65438 0.14082 0.0
C387 C 0.14969 0.69153 0.13083 0.0
O388 O 0.16303 0.63478 0.07293 0.0
O389 O 0.18365 0.6351 0.12853 0.0
In390 In 0.10043 0.39882 0.896 0.0
O391 O 0.11717 0.41426 0.83672 0.0
O392 O 0.10222 0.43614 0.8824 0.0
C393 C 0.11127 0.35537 0.88444 0.0
C394 C 0.05563 0.39702 0.88469 0.0
C395 C 0.12097 0.40681 0.97169 0.0
O396 O 0.11987 0.37081 0.86207 0.0
O397 O 0.09727 0.3619 0.91214 0.0
O398 O 0.10035 0.41019 0.96587 0.0
O399 O 0.13138 0.39977 0.93901 0.0
C400 C 0.11275 0.43417 0.84739 0.0
O401 O 0.06456 0.40027 0.92094 0.0
O402 O 0.0693 0.39495 0.85391 0.0
In403 In 0.34898 0.35265 0.64744 0.0
O404 O 0.34769 0.31699 0.67376 0.0
O405 O 0.3512 0.32112 0.60615 0.0
C406 C 0.34057 0.37333 0.7228 0.0
C407 C 0.31477 0.36518 0.59619 0.0
C408 C 0.39265 0.363 0.63684 0.0
O409 O 0.33621 0.35294 0.71642 0.0
O410 O 0.34873 0.38347 0.69077 0.0
O411 O 0.3773 0.37301 0.61656 0.0
O412 O 0.38593 0.34784 0.66196 0.0
C413 C 0.34979 0.30773 0.63747 0.0
O414 O 0.33499 0.36715 0.58494 0.0
O415 O 0.31189 0.35711 0.6333 0.0
H416 H 0.10772 0.02043 0.3603 0.0
H417 H 0.13003 0.06609 0.26121 0.0
H418 H 0.11207 0.98916 0.31079 0.0
H419 H 0.13485 0.03463 0.21169 0.0
H420 H 0.13476 0.93464 0.2213 0.0
H421 H 0.13862 0.9665 0.27013 0.0
H422 H 0.10906 0.00978 0.17416 0.0
H423 H 0.10565 0.97814 0.12525 0.0
C424 C 0.11387 0.02373 0.32808 0.0
C425 C 0.11834 0.0457 0.31444 0.0
C426 C 0.11654 0.00578 0.2998 0.0
C427 C 0.12374 0.00943 0.25727 0.0
C428 C 0.129 0.03134 0.24412 0.0
C429 C 0.12634 0.04933 0.27247 0.0
C430 C 0.12937 0.95103 0.21052 0.0
C431 C 0.11975 0.95391 0.16966 0.0
C432 C 0.13149 0.96924 0.2385 0.0
C433 C 0.12403 0.99063 0.22608 0.0
C434 C 0.11522 0.99359 0.18453 0.0
C435 C 0.1131 0.97542 0.15661 0.0
H436 H 0.22748 0.85156 0.61208 0.0
H437 H 0.1843 0.88478 0.52057 0.0
H438 H 0.25901 0.8559 0.56313 0.0
H439 H 0.21609 0.88945 0.47158 0.0
H440 H 0.3156 0.87889 0.47926 0.0
H441 H 0.28409 0.88295 0.52891 0.0
H442 H 0.23851 0.86365 0.4275 0.0
H443 H 0.2699 0.85999 0.37782 0.0
C444 C 0.22481 0.86007 0.5817 0.0
C445 C 0.20341 0.86767 0.56996 0.0
C446 C 0.24293 0.86272 0.55378 0.0
C447 C 0.24004 0.87299 0.51346 0.0
C448 C 0.21877 0.88126 0.50228 0.0
C449 C 0.20061 0.87867 0.53035 0.0
C450 C 0.29881 0.87582 0.46749 0.0
C451 C 0.2952 0.86893 0.42483 0.0
C452 C 0.28079 0.87806 0.49592 0.0
C453 C 0.25883 0.87347 0.48219 0.0
C454 C 0.25518 0.86754 0.43897 0.0
C455 C 0.27319 0.86528 0.41059 0.0
H456 H 0.36292 0.06245 0.71582 0.0
H457 H 0.40007 0.02189 0.62532 0.0
H458 H 0.35827 0.02986 0.76265 0.0
H459 H 0.39604 0.98963 0.6724 0.0
H460 H 0.37415 0.93083 0.75091 0.0
H461 H 0.37056 0.96273 0.70222 0.0
H462 H 0.382 0.00787 0.80879 0.0
H463 H 0.38486 0.97607 0.85745 0.0
C464 C 0.36999 0.04655 0.70588 0.0
C465 C 0.38195 0.04471 0.66709 0.0
C466 C 0.36742 0.02793 0.73274 0.0
C467 C 0.37684 0.00715 0.72135 0.0
C468 C 0.38827 0.00526 0.6819 0.0
C469 C 0.39074 0.02381 0.65504 0.0
C470 C 0.3756 0.94759 0.76393 0.0
C471 C 0.37995 0.95098 0.80786 0.0
C472 C 0.37366 0.96586 0.73605 0.0
C473 C 0.37618 0.98786 0.75154 0.0
C474 C 0.3797 0.9912 0.79583 0.0
C475 C 0.3815 0.97295 0.8237 0.0
H476 H 0.22664 0.14466 0.87558 0.0
H477 H 0.18352 0.11526 0.97208 0.0
H478 H 0.25859 0.14037 0.92327 0.0
H479 H 0.21574 0.11041 0.01967 0.0
H480 H 0.27105 0.13925 0.10911 0.0
H481 H 0.23919 0.13546 0.06094 0.0
H482 H 0.28356 0.1144 0.95853 0.0
H483 H 0.31559 0.11879 0.00663 0.0
C484 C 0.22406 0.13695 0.90679 0.0
C485 C 0.20257 0.13049 0.92031 0.0
C486 C 0.24243 0.13431 0.93401 0.0
C487 C 0.23972 0.12509 0.97534 0.0
C488 C 0.21832 0.11784 0.98823 0.0
C489 C 0.1999 0.12053 0.96096 0.0
C490 C 0.27398 0.13356 0.07645 0.0
C491 C 0.29581 0.12955 0.06145 0.0
C492 C 0.25569 0.13122 0.04892 0.0
C493 C 0.25884 0.12475 0.00581 0.0
C494 C 0.28062 0.11975 0.99139 0.0
C495 C 0.29895 0.12216 0.01894 0.0
H496 H 0.86574 0.93267 0.73098 0.0
H497 H 0.88846 0.97782 0.63137 0.0
H498 H 0.86095 0.96437 0.77996 0.0
H499 H 0.8842 0.00929 0.68032 0.0
H500 H 0.86371 0.06456 0.76916 0.0
H501 H 0.85862 0.03265 0.72092 0.0
H502 H 0.88692 0.9888 0.81737 0.0
H503 H 0.89148 0.02051 0.86574 0.0
C504 C 0.86947 0.94938 0.71944 0.0
C505 C 0.87766 0.95278 0.67753 0.0
C506 C 0.86683 0.9675 0.74751 0.0
C507 C 0.87233 0.98933 0.73413 0.0
C508 C 0.87955 0.99276 0.69154 0.0
C509 C 0.88216 0.97468 0.66355 0.0
C510 C 0.86855 0.04804 0.78018 0.0
C511 C 0.87818 0.04503 0.821 0.0
C512 C 0.86571 0.02979 0.75254 0.0
C513 C 0.87249 0.00821 0.76521 0.0
C514 C 0.88126 0.00513 0.80678 0.0
C515 C 0.88405 0.02335 0.83439 0.0
H516 H 0.8131 0.1108 0.47027 0.0
H517 H 0.77069 0.146 0.3802 0.0
H518 H 0.78111 0.10595 0.51876 0.0
H519 H 0.73897 0.14145 0.42857 0.0
H520 H 0.68186 0.1196 0.51114 0.0
H521 H 0.71333 0.11451 0.46178 0.0
H522 H 0.7593 0.13211 0.56367 0.0
H523 H 0.72792 0.1368 0.6131 0.0
C524 C 0.79691 0.11725 0.46064 0.0
C525 C 0.79439 0.12893 0.42168 0.0
C526 C 0.77864 0.11456 0.48842 0.0
C527 C 0.75755 0.12337 0.47752 0.0
C528 C 0.75492 0.13421 0.43768 0.0
C529 C 0.77314 0.13698 0.4101 0.0
C530 C 0.69871 0.12204 0.5231 0.0
C531 C 0.70245 0.12883 0.56578 0.0
C532 C 0.71671 0.1192 0.49484 0.0
C533 C 0.73876 0.12308 0.50877 0.0
C534 C 0.74253 0.12878 0.55207 0.0
C535 C 0.72454 0.13164 0.5803 0.0
H536 H 0.60622 0.97904 0.36727 0.0
H537 H 0.63355 0.93501 0.27011 0.0
H538 H 0.61089 0.0108 0.31908 0.0
H539 H 0.63885 0.96698 0.22209 0.0
H540 H 0.60986 0.02191 0.13256 0.0
H541 H 0.61373 0.99044 0.18158 0.0
H542 H 0.63646 0.03531 0.28164 0.0
H543 H 0.63196 0.06702 0.23261 0.0
C544 C 0.61361 0.97622 0.33585 0.0
C545 C 0.61929 0.95453 0.32223 0.0
C546 C 0.61646 0.99447 0.30832 0.0
C547 C 0.62513 0.99142 0.26662 0.0
C548 C 0.63179 0.96983 0.25378 0.0
C549 C 0.62886 0.95154 0.28131 0.0
C550 C 0.61593 0.02504 0.16487 0.0
C551 C 0.62039 0.04693 0.17893 0.0
C552 C 0.61833 0.00696 0.19291 0.0
C553 C 0.62533 0.01035 0.23561 0.0
C554 C 0.63073 0.03219 0.24911 0.0
C555 C 0.62825 0.05032 0.22102 0.0
H556 H 0.72645 0.85653 0.88307 0.0
H557 H 0.68352 0.87961 0.986 0.0
H558 H 0.75892 0.86032 0.92976 0.0
H559 H 0.71616 0.88407 0.03253 0.0
H560 H 0.77326 0.85454 0.11551 0.0
H561 H 0.74093 0.85859 0.06875 0.0
H562 H 0.78347 0.88527 0.96834 0.0
H563 H 0.81607 0.88059 0.01505 0.0
C564 C 0.72402 0.86279 0.91549 0.0
C565 C 0.70245 0.86755 0.93109 0.0
C566 C 0.74266 0.86513 0.94217 0.0
C567 C 0.74014 0.87239 0.98498 0.0
C568 C 0.71862 0.8781 -7e-05 0.0
C569 C 0.69995 0.87564 0.97326 0.0
C570 C 0.7757 0.86149 0.08362 0.0
C571 C 0.7972 0.86706 0.06876 0.0
C572 C 0.75711 0.86399 0.05689 0.0
C573 C 0.7596 0.8722 0.01472 0.0
C574 C 0.78104 0.8786 0.00045 0.0
C575 C 0.79968 0.87603 0.02722 0.0
H576 H 0.63327 0.43545 0.72781 0.0
H577 H 0.60031 0.47857 0.63584 0.0
H578 H 0.63753 0.46714 0.77692 0.0
H579 H 0.60403 0.50999 0.6851 0.0
H580 H 0.6088 0.52017 0.87151 0.0
H581 H 0.61239 0.48909 0.82129 0.0
H582 H 0.62985 0.53544 0.7197 0.0
H583 H 0.62569 0.56664 0.7699 0.0
C584 C 0.62707 0.45172 0.71801 0.0
C585 C 0.61634 0.45453 0.67817 0.0
C586 C 0.62942 0.46983 0.74617 0.0
C587 C 0.62104 0.49107 0.735 0.0
C588 C 0.61095 0.49396 0.69449 0.0
C589 C 0.60866 0.47589 0.66637 0.0
C590 C 0.61365 0.5237 0.83857 0.0
C591 C 0.61675 0.54583 0.82449 0.0
C592 C 0.61586 0.50587 0.80984 0.0
C593 C 0.62129 0.50979 0.76642 0.0
C594 C 0.62532 0.5319 0.7528 0.0
C595 C 0.62305 0.54975 0.78156 0.0
H596 H 0.76886 0.35476 0.88007 0.0
H597 H 0.81394 0.38061 0.97675 0.0
H598 H 0.73777 0.35787 0.93042 0.0
H599 H 0.78264 0.38428 0.02701 0.0
H600 H 0.68268 0.37847 0.0208 0.0
H601 H 0.7138 0.38304 0.97041 0.0
H602 H 0.75959 0.35827 0.06708 0.0
H603 H 0.72865 0.35428 0.11756 0.0
C604 C 0.77205 0.36146 0.9119 0.0
C605 C 0.79384 0.36726 0.92464 0.0
C606 C 0.75419 0.3634 0.94069 0.0
C607 C 0.75773 0.37124 0.98282 0.0
C608 C 0.77943 0.37787 0.99498 0.0
C609 C 0.79732 0.37588 0.96616 0.0
C610 C 0.69944 0.37426 0.03135 0.0
C611 C 0.70324 0.36588 0.07296 0.0
C612 C 0.71724 0.37678 0.00247 0.0
C613 C 0.73916 0.37091 0.01465 0.0
C614 C 0.74298 0.36323 0.05681 0.0
C615 C 0.72522 0.36078 0.08566 0.0
H616 H 0.8889 0.47735 0.36037 0.0
H617 H 0.87142 0.43066 0.25957 0.0
H618 H 0.88468 0.50838 0.31004 0.0
H619 H 0.86696 0.46181 0.20922 0.0
H620 H 0.86186 0.56128 0.21541 0.0
H621 H 0.85773 0.52955 0.26473 0.0
H622 H 0.89435 0.48758 0.17579 0.0
H623 H 0.8983 0.51908 0.12661 0.0
C624 C 0.88384 0.47376 0.32759 0.0
C625 C 0.8807 0.4516 0.31373 0.0
C626 C 0.88126 0.49155 0.29886 0.0
C627 C 0.87558 0.48751 0.25567 0.0
C628 C 0.87159 0.46538 0.24224 0.0
C629 C 0.87407 0.44758 0.27105 0.0
C630 C 0.86876 0.54518 0.20626 0.0
C631 C 0.88054 0.54265 0.16739 0.0
C632 C 0.86647 0.52708 0.2345 0.0
C633 C 0.87576 0.50612 0.22412 0.0
C634 C 0.88678 0.50345 0.18446 0.0
C635 C 0.8892 0.52154 0.15645 0.0
H636 H 0.6843 0.62051 0.4827 0.0
H637 H 0.72847 0.64381 0.38189 0.0
H638 H 0.7163 0.61674 0.53117 0.0
H639 H 0.76029 0.64047 0.43038 0.0
H640 H 0.77262 0.64717 0.61586 0.0
H641 H 0.74078 0.64339 0.5676 0.0
H642 H 0.78396 0.6145 0.47055 0.0
H643 H 0.81601 0.6187 0.51877 0.0
C644 C 0.70086 0.62464 0.47083 0.0
C645 C 0.7039 0.63261 0.42868 0.0
C646 C 0.71915 0.62258 0.49859 0.0
C647 C 0.7408 0.62842 0.48466 0.0
C648 C 0.74388 0.63559 0.44196 0.0
C649 C 0.72562 0.63766 0.41426 0.0
C650 C 0.77529 0.63983 0.58437 0.0
C651 C 0.79681 0.6334 0.57091 0.0
C652 C 0.75701 0.63749 0.55683 0.0
C653 C 0.75986 0.62868 0.51523 0.0
C654 C 0.7813 0.62159 0.50226 0.0
C655 C 0.79961 0.62391 0.52988 0.0
H656 H 0.3948 0.47779 0.1306 0.0
H657 H 0.36769 0.4336 0.22772 0.0
H658 H 0.39062 0.50941 0.17934 0.0
H659 H 0.36301 0.46542 0.27639 0.0
H660 H 0.39202 0.52087 0.36546 0.0
H661 H 0.38847 0.4892 0.31662 0.0
H662 H 0.36436 0.53352 0.21682 0.0
H663 H 0.36843 0.56535 0.26557 0.0
C664 C 0.38762 0.4749 0.16218 0.0
C665 C 0.38175 0.45322 0.17553 0.0
C666 C 0.38506 0.49306 0.19002 0.0
C667 C 0.37654 0.48992 0.2318 0.0
C668 C 0.36989 0.46832 0.24458 0.0
C669 C 0.37248 0.45013 0.21669 0.0
C670 C 0.38572 0.52381 0.33324 0.0
C671 C 0.38071 0.54559 0.31915 0.0
C672 C 0.38353 0.50564 0.30534 0.0
C673 C 0.37624 0.50886 0.26275 0.0
C674 C 0.37033 0.53055 0.24925 0.0
C675 C 0.37256 0.54875 0.27719 0.0
H676 H 0.22409 0.62065 0.11662 0.0
H677 H 0.18499 0.63003 0.00107 0.0
H678 H 0.25785 0.61626 0.07313 0.0
H679 H 0.21878 0.62634 0.9576 0.0
H680 H 0.28099 0.60755 0.886 0.0
H681 H 0.24843 0.6025 0.93246 0.0
H682 H 0.28092 0.64131 0.03191 0.0
H683 H 0.31369 0.64577 0.98586 0.0
C684 C 0.22269 0.62155 0.08187 0.0
C685 C 0.20196 0.62585 0.0622 0.0
C686 C 0.24205 0.61918 0.05699 0.0
C687 C 0.24109 0.62119 0.01191 0.0
C688 C 0.22013 0.62445 0.99219 0.0
C689 C 0.20075 0.62668 0.01709 0.0
C690 C 0.28128 0.6147 0.91806 0.0
C691 C 0.29979 0.62719 0.93224 0.0
C692 C 0.26258 0.61192 0.94457 0.0
C693 C 0.26195 0.62167 0.98576 0.0
C694 C 0.28091 0.63335 0.00057 0.0
C695 C 0.29966 0.63603 0.97411 0.0
H696 H 0.10268 0.47784 0.86265 0.0
H697 H 0.13558 0.43445 0.77098 0.0
H698 H 0.10896 0.50969 0.81544 0.0
H699 H 0.14247 0.46656 0.72396 0.0
H700 H 0.11691 0.52203 0.63041 0.0
H701 H 0.11963 0.4901 0.67878 0.0
H702 H 0.13606 0.53457 0.78394 0.0
H703 H 0.13265 0.56664 0.73561 0.0
C704 C 0.11158 0.47519 0.83266 0.0
C705 C 0.11845 0.45364 0.82029 0.0
C706 C 0.11537 0.49349 0.80572 0.0
C707 C 0.12621 0.49069 0.76586 0.0
C708 C 0.13382 0.46923 0.75421 0.0
C709 C 0.12995 0.45086 0.78117 0.0
C710 C 0.12146 0.52495 0.6637 0.0
C711 C 0.12429 0.54682 0.67939 0.0
C712 C 0.12316 0.50663 0.69141 0.0
C713 C 0.12783 0.50979 0.73537 0.0
C714 C 0.13201 0.53161 0.75043 0.0
C715 C 0.1302 0.54996 0.72272 0.0
H716 H 0.18566 0.38695 0.46997 0.0
H717 H 0.22907 0.35313 0.3795 0.0
H718 H 0.21732 0.39196 0.51897 0.0
H719 H 0.26049 0.35782 0.42847 0.0
H720 H 0.27022 0.36173 0.61374 0.0
H721 H 0.23918 0.36595 0.56359 0.0
H722 H 0.28561 0.38473 0.46302 0.0
H723 H 0.31678 0.38012 0.51316 0.0
C724 C 0.20201 0.38083 0.46037 0.0
C725 C 0.2049 0.36949 0.42113 0.0
C726 C 0.22008 0.38361 0.48846 0.0
C727 C 0.24137 0.3752 0.47766 0.0
C728 C 0.24438 0.36473 0.43754 0.0
C729 C 0.22633 0.36189 0.40961 0.0
C730 C 0.27378 0.36704 0.58108 0.0
C731 C 0.29592 0.37036 0.5672 0.0
C732 C 0.25597 0.36963 0.55242 0.0
C733 C 0.25996 0.37555 0.50928 0.0
C734 C 0.28206 0.37986 0.49594 0.0
C735 C 0.29988 0.37731 0.52465 0.0
H736 H 0.09746 0.1775 0.43253 0.0
H737 H 0.14666 0.16087 0.33553 0.0
H738 H 0.10672 0.21698 0.42508 0.0
H739 H 0.15637 0.20048 0.32873 0.0
H740 H 0.1464 0.27506 0.29293 0.0
H741 H 0.14007 0.23496 0.30158 0.0
H742 H 0.13603 0.24367 0.43957 0.0
H743 H 0.14179 0.28384 0.43075 0.0
C744 C 0.1104 0.18228 0.40984 0.0
C745 C 0.1213 0.16611 0.38452 0.0
C746 C 0.11583 0.20491 0.40578 0.0
C747 C 0.13233 0.2119 0.37638 0.0
C748 C 0.1434 0.19567 0.35132 0.0
C749 C 0.13793 0.17299 0.35535 0.0
C750 C 0.14427 0.26837 0.32511 0.0
C751 C 0.14443 0.28258 0.36115 0.0
C752 C 0.14079 0.24537 0.3301 0.0
C753 C 0.13745 0.23611 0.37125 0.0
C754 C 0.13817 0.25031 0.40736 0.0
C755 C 0.14159 0.27331 0.40235 0.0
H756 H 0.96795 0.8701 0.54685 0.0
H757 H 0.97054 0.916 0.65427 0.0
H758 H 0.00833 0.86406 0.55272 0.0
H759 H 0.01085 0.91024 0.6597 0.0
H760 H 0.07375 0.86993 0.69334 0.0
H761 H 0.03448 0.879 0.68248 0.0
H762 H 0.04548 0.8824 0.54506 0.0
H763 H 0.08503 0.87297 0.55598 0.0
C764 C 0.97719 0.87907 0.57139 0.0
C765 C 0.96609 0.89337 0.60034 0.0
C766 C 0.00032 0.87572 0.57458 0.0
C767 C 0.01275 0.88656 0.60686 0.0
C768 C 0.00169 0.90138 0.63491 0.0
C769 C 0.97861 0.90475 0.63168 0.0
C770 C 0.06785 0.87269 0.66078 0.0
C771 C 0.08246 0.87072 0.62549 0.0
C772 C 0.04536 0.87804 0.65459 0.0
C773 C 0.03689 0.88153 0.61293 0.0
C774 C 0.05151 0.87965 0.57753 0.0
C775 C 0.07413 0.87437 0.58377 0.0
H776 H 0.34248 0.83728 0.84952 0.0
H777 H 0.41267 0.82029 0.85761 0.0
H778 H 0.33333 0.7977 0.83875 0.0
H779 H 0.4036 0.78099 0.84798 0.0
H780 H 0.38423 0.71414 0.79582 0.0
H781 H 0.39037 0.75442 0.79622 0.0
H782 H 0.33314 0.76294 0.88003 0.0
H783 H 0.32662 0.72252 0.8785 0.0
C784 C 0.35594 0.82512 0.84869 0.0
C785 C 0.37828 0.83186 0.85434 0.0
C786 C 0.3507 0.80246 0.84285 0.0
C787 C 0.36773 0.78616 0.84247 0.0
C788 C 0.39009 0.79308 0.84736 0.0
C789 C 0.39529 0.81564 0.85314 0.0
C790 C 0.37284 0.72463 0.81402 0.0
C791 C 0.35505 0.71519 0.83741 0.0
C792 C 0.37641 0.74772 0.81443 0.0
C793 C 0.36241 0.76191 0.83855 0.0
C794 C 0.34413 0.75252 0.86081 0.0
C795 C 0.34046 0.72937 0.86016 0.0
H796 H 0.4122 0.09812 0.09205 0.0
H797 H 0.42897 0.16404 0.13936 0.0
H798 H 0.45213 0.08994 0.08227 0.0
H799 H 0.46864 0.1559 0.12955 0.0
H800 H 0.53584 0.142 0.06565 0.0
H801 H 0.49555 0.14881 0.06883 0.0
H802 H 0.48597 0.08487 0.13114 0.0
H803 H 0.52633 0.07801 0.12798 0.0
C804 C 0.42439 0.11087 0.10013 0.0
C805 C 0.41751 0.1317 0.11649 0.0
C806 C 0.4472 0.10616 0.09473 0.0
C807 C 0.46345 0.12232 0.10504 0.0
C808 C 0.45648 0.14323 0.12085 0.0
C809 C 0.43378 0.14783 0.1267 0.0
C810 C 0.52512 0.12934 0.07977 0.0
C811 C 0.53422 0.10953 0.09678 0.0
C812 C 0.50209 0.13327 0.08173 0.0
C813 C 0.48766 0.1174 0.10038 0.0
C814 C 0.49669 0.09731 0.11629 0.0
C815 C 0.51978 0.09345 0.1147 0.0
H816 H 0.14487 0.72199 0.19581 0.0
H817 H 0.15211 0.71665 0.05773 0.0
H818 H 0.13913 0.76233 0.18892 0.0
H819 H 0.14682 0.75697 0.0509 0.0
H820 H 0.10466 0.82104 0.05204 0.0
H821 H 0.11485 0.78182 0.05958 0.0
H822 H 0.15658 0.7982 0.16872 0.0
H823 H 0.14602 0.83765 0.16153 0.0
C824 C 0.14558 0.7295 0.16407 0.0
C825 C 0.14874 0.71617 0.12727 0.0
C826 C 0.1424 0.75261 0.16014 0.0
C827 C 0.1423 0.76281 0.11932 0.0
C828 C 0.14639 0.74955 0.08272 0.0
C829 C 0.14956 0.72647 0.08665 0.0
C830 C 0.11606 0.81631 0.0776 0.0
C831 C 0.12453 0.83241 0.10624 0.0
C832 C 0.12204 0.79384 0.08172 0.0
C833 C 0.13665 0.7869 0.11458 0.0
C834 C 0.14518 0.80301 0.14325 0.0
C835 C 0.13921 0.82558 0.13905 0.0
H836 H 0.52413 0.90022 0.44862 0.0
H837 H 0.53343 0.8923 0.31146 0.0
H838 H 0.48408 0.89358 0.44018 0.0
H839 H 0.49329 0.88612 0.30285 0.0
H840 H 0.42795 0.84624 0.31402 0.0
H841 H 0.46723 0.85637 0.32099 0.0
H842 H 0.44938 0.90886 0.41051 0.0
H843 H 0.40992 0.89837 0.40408 0.0
C844 C 0.51756 0.89735 0.41659 0.0
C845 C 0.53191 0.89662 0.38072 0.0
C846 C 0.49459 0.89366 0.41173 0.0
C847 C 0.48551 0.88918 0.37088 0.0
C848 C 0.49982 0.88916 0.33485 0.0
C849 C 0.52278 0.89282 0.33972 0.0
C850 C 0.43239 0.85997 0.33515 0.0
C851 C 0.41588 0.87148 0.35859 0.0
C852 C 0.45489 0.86589 0.33888 0.0
C853 C 0.46143 0.8835 0.36614 0.0
C854 C 0.44489 0.89509 0.38952 0.0
C855 C 0.42231 0.88915 0.38574 0.0
H856 H 0.35298 0.16128 0.65903 0.0
H857 H 0.3995 0.17933 0.55816 0.0
H858 H 0.34242 0.20068 0.66693 0.0
H859 H 0.38941 0.21851 0.56661 0.0
H860 H 0.35281 0.28417 0.56252 0.0
H861 H 0.35888 0.24405 0.55395 0.0
H862 H 0.35813 0.23593 0.69228 0.0
H863 H 0.35147 0.27602 0.70074 0.0
C864 C 0.36096 0.17366 0.63865 0.0
C865 C 0.37704 0.16724 0.60797 0.0
C866 C 0.35499 0.19622 0.64326 0.0
C867 C 0.36499 0.21274 0.61725 0.0
C868 C 0.38106 0.2062 0.58661 0.0
C869 C 0.38698 0.18374 0.58199 0.0
C870 C 0.35373 0.27378 0.59107 0.0
C871 C 0.3518 0.28323 0.63229 0.0
C872 C 0.35735 0.25081 0.58619 0.0
C873 C 0.35922 0.2368 0.62245 0.0
C874 C 0.35658 0.2462 0.66368 0.0
C875 C 0.35288 0.26918 0.66854 0.0
H876 H 0.06888 0.15126 0.80995 0.0
H877 H 0.08597 0.10394 0.90991 0.0
H878 H 0.0295 0.14176 0.81801 0.0
H879 H 0.04642 0.09399 0.91739 0.0
H880 H 0.97135 0.10336 0.95123 0.0
H881 H 0.01143 0.11008 0.94298 0.0
H882 H 0.00348 0.11169 0.80467 0.0
H883 H 0.96334 0.10553 0.81304 0.0
C884 C 0.06422 0.13871 0.8335 0.0
C885 C 0.0805 0.12836 0.85935 0.0
C886 C 0.04164 0.13313 0.8379 0.0
C887 C 0.0348 0.11702 0.86818 0.0
C888 C 0.05112 0.10662 0.89404 0.0
C889 C 0.07376 0.11224 0.88966 0.0
C890 C 0.97821 0.105 0.91906 0.0
C891 C 0.96421 0.10406 0.88278 0.0
C892 C 0.0012 0.10873 0.91432 0.0
C893 C 0.01065 0.11155 0.87318 0.0
C894 C 0.99667 0.10998 0.83686 0.0
C895 C 0.9737 0.10631 0.84161 0.0
H896 H 0.85835 0.72098 0.71366 0.0
H897 H 0.8579 0.71824 0.57462 0.0
H898 H 0.86299 0.76161 0.71063 0.0
H899 H 0.86279 0.75875 0.57159 0.0
H900 H 0.85014 0.83323 0.58026 0.0
H901 H 0.84225 0.7934 0.58821 0.0
H902 H 0.89202 0.7889 0.68872 0.0
H903 H 0.89974 0.82891 0.68111 0.0
C904 C 0.85922 0.72907 0.68247 0.0
C905 C 0.85777 0.71646 0.64436 0.0
C906 C 0.86198 0.7523 0.68076 0.0
C907 C 0.86321 0.76338 0.64089 0.0
C908 C 0.86158 0.75074 0.60281 0.0
C909 C 0.85892 0.72753 0.60452 0.0
C910 C 0.85922 0.8238 0.60441 0.0
C911 C 0.87563 0.83415 0.62995 0.0
C912 C 0.85481 0.80096 0.60874 0.0
C913 C 0.86667 0.78797 0.63878 0.0
C914 C 0.8825 0.7985 0.66547 0.0
C915 C 0.88697 0.82138 0.66105 0.0
H916 H 0.92224 0.12465 0.29189 0.0
H917 H 0.91624 0.12666 0.43043 0.0
H918 H 0.9617 0.11521 0.29834 0.0
H919 H 0.95611 0.11819 0.43713 0.0
H920 H 0.02461 0.0848 0.43535 0.0
H921 H 0.9843 0.0905 0.42828 0.0
H922 H 0.9958 0.13235 0.31671 0.0
H923 H 0.03587 0.12582 0.32285 0.0
C924 C 0.92943 0.12316 0.32378 0.0
C925 C 0.91623 0.12648 0.36067 0.0
C926 C 0.95211 0.11789 0.32751 0.0
C927 C 0.96223 0.11615 0.36825 0.0
C928 C 0.94886 0.11912 0.40523 0.0
C929 C 0.92605 0.1241 0.40146 0.0
C930 C 0.01844 0.09507 0.40916 0.0
C931 C 0.03334 0.10481 0.37956 0.0
C932 C 0.99536 0.09848 0.40527 0.0
C933 C 0.98672 0.1119 0.37194 0.0
C934 C 0.00175 0.12156 0.3423 0.0
C935 C 0.02476 0.11794 0.34592 0.0
H936 H 0.64542 0.27987 0.07897 0.0
H937 H 0.64711 0.27639 0.21791 0.0
H938 H 0.64077 0.23934 0.07545 0.0
H939 H 0.64272 0.23575 0.21439 0.0
H940 H 0.60438 0.16917 0.18533 0.0
H941 H 0.61312 0.20889 0.19388 0.0
H942 H 0.66109 0.20437 0.08993 0.0
H943 H 0.65215 0.16481 0.08104 0.0
C944 C 0.64498 0.27041 0.10874 0.0
C945 C 0.64658 0.28128 0.1487 0.0
C946 C 0.64246 0.24718 0.10674 0.0
C947 C 0.64142 0.23434 0.14467 0.0
C948 C 0.64327 0.24521 0.18464 0.0
C949 C 0.64588 0.26845 0.18663 0.0
C950 C 0.61701 0.17661 0.16475 0.0
C951 C 0.62748 0.16394 0.13236 0.0
C952 C 0.62207 0.19933 0.16971 0.0
C953 C 0.63764 0.2098 0.14229 0.0
C954 C 0.64875 0.19686 0.11107 0.0
C955 C 0.64374 0.17417 0.10619 0.0
H956 H 0.58654 0.90551 0.88247 0.0
H957 H 0.56888 0.8354 0.88601 0.0
H958 H 0.54692 0.91552 0.89128 0.0
H959 H 0.52955 0.84537 0.89527 0.0
H960 H 0.46421 0.87124 0.95145 0.0
H961 H 0.50461 0.86485 0.951 0.0
H962 H 0.5116 0.91013 0.84342 0.0
H963 H 0.47108 0.91644 0.84357 0.0
C964 C 0.57423 0.89228 0.88563 0.0
C965 C 0.58072 0.86969 0.8835 0.0
C966 C 0.55162 0.898 0.89044 0.0
C967 C 0.53524 0.88121 0.89403 0.0
C968 C 0.54187 0.85865 0.89302 0.0
C969 C 0.56434 0.85295 0.88751 0.0
C970 C 0.47438 0.88002 0.92799 0.0
C971 C 0.4645 0.89422 0.89733 0.0
C972 C 0.49747 0.8763 0.92768 0.0
C973 C 0.51116 0.88693 0.89707 0.0
C974 C 0.50142 0.90186 0.86754 0.0
C975 C 0.47826 0.90536 0.86749 0.0
H976 H 0.85045 0.27576 0.79034 0.0
H977 H 0.85591 0.28404 0.92814 0.0
H978 H 0.85754 0.23571 0.79816 0.0
H979 H 0.86245 0.24396 0.93612 0.0
H980 H 0.90192 0.17868 0.928 0.0
H981 H 0.89235 0.21804 0.92002 0.0
H982 H 0.8421 0.20074 0.82566 0.0
H983 H 0.8521 0.1612 0.83302 0.0
C984 C 0.85291 0.26897 0.82234 0.0
C985 C 0.85278 0.28303 0.85861 0.0
C986 C 0.85685 0.24601 0.82685 0.0
C987 C 0.86071 0.23666 0.86774 0.0
C988 C 0.85994 0.25069 0.90409 0.0
C989 C 0.85606 0.27363 0.89957 0.0
C990 C 0.88882 0.18325 0.90555 0.0
C991 C 0.87776 0.16686 0.88111 0.0
C992 C 0.88322 0.20582 0.90121 0.0
C993 C 0.86636 0.21254 0.87241 0.0
C994 C 0.8553 0.19613 0.84785 0.0
C995 C 0.86095 0.17349 0.85218 0.0
H996 H 0.58672 0.1062 0.57993 0.0
H997 H 0.57003 0.15783 0.67199 0.0
H998 H 0.54705 0.09674 0.57323 0.0
H999 H 0.53048 0.14873 0.6647 0.0
H1000 H 0.46421 0.112 0.67542 0.0
H1001 H 0.50428 0.11905 0.68275 0.0
H1002 H 0.51235 0.11246 0.54498 0.0
H1003 H 0.47239 0.10495 0.53782 0.0
C1004 C 0.57457 0.11559 0.59853 0.0
C1005 C 0.58145 0.13273 0.62648 0.0
C1006 C 0.55186 0.11023 0.5946 0.0
C1007 C 0.53563 0.12193 0.61858 0.0
C1008 C 0.54258 0.13915 0.64633 0.0
C1009 C 0.56523 0.14448 0.65026 0.0
C1010 C 0.47459 0.11193 0.64678 0.0
C1011 C 0.46519 0.10799 0.60606 0.0
C1012 C 0.4975 0.1161 0.65091 0.0
C1013 C 0.51148 0.11644 0.61441 0.0
C1014 C 0.5021 0.11208 0.57377 0.0
C1015 C 0.47919 0.1079 0.56965 0.0
H1016 H 0.63838 0.71561 0.43206 0.0
H1017 H 0.64749 0.72328 0.29479 0.0
H1018 H 0.6314 0.7557 0.43865 0.0
H1019 H 0.64005 0.76334 0.30121 0.0
H1020 H 0.64495 0.83805 0.33637 0.0
H1021 H 0.65498 0.79844 0.33022 0.0
H1022 H 0.60165 0.78139 0.41854 0.0
H1023 H 0.59197 0.8208 0.42525 0.0
C1024 C 0.63895 0.72588 0.40332 0.0
C1025 C 0.64338 0.71632 0.3629 0.0
C1026 C 0.63482 0.74882 0.40704 0.0
C1027 C 0.635 0.76268 0.37039 0.0
C1028 C 0.63999 0.75316 0.3301 0.0
C1029 C 0.64413 0.73021 0.3264 0.0
C1030 C 0.63541 0.8258 0.35441 0.0
C1031 C 0.61771 0.8325 0.38133 0.0
C1032 C 0.64109 0.80313 0.35079 0.0
C1033 C 0.62919 0.78679 0.37409 0.0
C1034 C 0.61142 0.79358 0.40077 0.0
C1035 C 0.60575 0.81616 0.40436 0.0
H1036 H 0.93136 0.84362 0.17606 0.0
H1037 H 0.91436 0.89313 0.08003 0.0
H1038 H 0.97079 0.8531 0.16848 0.0
H1039 H 0.95393 0.90302 0.07306 0.0
H1040 H 0.02881 0.89448 0.03815 0.0
H1041 H 0.9888 0.88727 0.04601 0.0
H1042 H 0.9969 0.88291 0.18407 0.0
H1043 H 0.03699 0.88959 0.17605 0.0
C1044 C 0.93606 0.85663 0.15346 0.0
C1045 C 0.91979 0.86761 0.12857 0.0
C1046 C 0.95865 0.86218 0.14935 0.0
C1047 C 0.96552 0.87889 0.12032 0.0
C1048 C 0.94921 0.88991 0.09541 0.0
C1049 C 0.92656 0.88432 0.0995 0.0
C1050 C 0.022 0.89209 0.07018 0.0
C1051 C 0.03602 0.89246 0.10647 0.0
C1052 C 0.99906 0.88809 0.07471 0.0
C1053 C 0.98966 0.88441 0.11565 0.0
C1054 C 0.00366 0.88531 0.15202 0.0
C1055 C 0.0266 0.88926 0.14747 0.0
H1056 H 0.6435 0.78171 0.93655 0.0
H1057 H 0.64161 0.77595 0.7979 0.0
H1058 H 0.63661 0.74158 0.94308 0.0
H1059 H 0.63443 0.73582 0.80444 0.0
H1060 H 0.64104 0.6604 0.83559 0.0
H1061 H 0.65131 0.69993 0.82831 0.0
H1062 H 0.60449 0.71698 0.92932 0.0
H1063 H 0.59446 0.67768 0.93688 0.0
C1064 C 0.64175 0.77184 0.90747 0.0
C1065 C 0.64297 0.78197 0.86673 0.0
C1066 C 0.63768 0.74889 0.9112 0.0
C1067 C 0.63479 0.73558 0.87427 0.0
C1068 C 0.63673 0.7456 0.83348 0.0
C1069 C 0.64074 0.76859 0.82975 0.0
C1070 C 0.63296 0.67264 0.85615 0.0
C1071 C 0.61697 0.66597 0.88682 0.0
C1072 C 0.63878 0.69524 0.85192 0.0
C1073 C 0.62881 0.71154 0.87845 0.0
C1074 C 0.61275 0.7048 0.90891 0.0
C1075 C 0.60689 0.68229 0.91301 0.0
H1076 H 0.47436 0.39522 0.04572 0.0
H1077 H 0.46509 0.38936 0.18326 0.0
H1078 H 0.51431 0.38799 0.05438 0.0
H1079 H 0.50512 0.38268 0.19211 0.0
H1080 H 0.57084 0.34364 0.18507 0.0
H1081 H 0.53144 0.35307 0.17664 0.0
H1082 H 0.54894 0.40345 0.08248 0.0
H1083 H 0.58848 0.39359 0.09026 0.0
C1084 C 0.48092 0.39263 0.07786 0.0
C1085 C 0.4666 0.39273 0.1138 0.0
C1086 C 0.50383 0.38861 0.08285 0.0
C1087 C 0.51291 0.38464 0.12391 0.0
C1088 C 0.49861 0.38529 0.15995 0.0
C1089 C 0.4757 0.38925 0.15494 0.0
C1090 C 0.56629 0.35674 0.16256 0.0
C1091 C 0.58273 0.36786 0.13827 0.0
C1092 C 0.54371 0.36226 0.15797 0.0
C1093 C 0.53703 0.3791 0.12905 0.0
C1094 C 0.55351 0.39025 0.10473 0.0
C1095 C 0.57614 0.38468 0.10929 0.0
H1096 H 0.85703 0.22209 0.29209 0.0
H1097 H 0.85632 0.21417 0.43038 0.0
H1098 H 0.86323 0.26223 0.30064 0.0
H1099 H 0.86196 0.25436 0.43901 0.0
H1100 H 0.90055 0.32059 0.43568 0.0
H1101 H 0.8918 0.28102 0.42775 0.0
H1102 H 0.84566 0.29678 0.32496 0.0
H1103 H 0.85485 0.33649 0.33234 0.0
C1104 C 0.858 0.22898 0.32431 0.0
C1105 C 0.85633 0.21501 0.36057 0.0
C1106 C 0.8614 0.25199 0.32922 0.0
C1107 C 0.86316 0.26149 0.37051 0.0
C1108 C 0.86103 0.24752 0.40676 0.0
C1109 C 0.8577 0.22452 0.40183 0.0
C1110 C 0.88848 0.31563 0.41147 0.0
C1111 C 0.87841 0.33162 0.38456 0.0
C1112 C 0.88335 0.29295 0.40712 0.0
C1113 C 0.86799 0.28573 0.37578 0.0
C1114 C 0.85775 0.30178 0.34909 0.0
C1115 C 0.86291 0.32451 0.35346 0.0
H1116 H 0.91347 0.61241 0.569 0.0
H1117 H 0.92908 0.64171 0.69258 0.0
H1118 H 0.95283 0.60181 0.55997 0.0
H1119 H 0.96822 0.6314 0.6834 0.0
H1120 H 0.03213 0.59177 0.67452 0.0
H1121 H 0.99189 0.59786 0.68102 0.0
H1122 H 0.98957 0.62052 0.54895 0.0
H1123 H 0.02986 0.61412 0.54225 0.0
C1124 C 0.9253 0.61656 0.59418 0.0
C1125 C 0.91823 0.62788 0.63148 0.0
C1126 C 0.94781 0.61058 0.58896 0.0
C1127 C 0.96359 0.61567 0.62107 0.0
C1128 C 0.95642 0.62691 0.65839 0.0
C1129 C 0.93401 0.63296 0.6635 0.0
C1130 C 0.023 0.59782 0.64673 0.0
C1131 C 0.03415 0.60262 0.60797 0.0
C1132 C -2e-05 0.60143 0.65053 0.0
C1133 C 0.98761 0.60988 0.61563 0.0
C1134 C 0.99862 0.61386 0.57632 0.0
C1135 C 0.0217 0.6103 0.57255 0.0
H1136 H 0.64659 0.22344 0.70113 0.0
H1137 H 0.64722 0.21702 0.56257 0.0
H1138 H 0.63998 0.26361 0.69418 0.0
H1139 H 0.64118 0.25724 0.55554 0.0
H1140 H 0.59992 0.32166 0.56124 0.0
H1141 H 0.61027 0.28245 0.56806 0.0
H1142 H 0.65587 0.29924 0.6711 0.0
H1143 H 0.64506 0.33864 0.66481 0.0
C1144 C 0.64564 0.23068 0.66919 0.0
C1145 C 0.64724 0.21709 0.63239 0.0
C1146 C 0.64197 0.25371 0.6652 0.0
C1147 C 0.63986 0.26361 0.62431 0.0
C1148 C 0.6423 0.25007 0.58752 0.0
C1149 C 0.6459 0.22706 0.59152 0.0
C1150 C 0.61219 0.31701 0.58532 0.0
C1151 C 0.62166 0.33321 0.61254 0.0
C1152 C 0.61826 0.29454 0.58901 0.0
C1153 C 0.63401 0.2877 0.61996 0.0
C1154 C 0.64356 0.30394 0.64717 0.0
C1155 C 0.63744 0.32649 0.64347 0.0
H1156 H 0.02346 0.39861 0.94704 0.0
H1157 H 0.03262 0.38993 0.81003 0.0
H1158 H 0.98341 0.39189 0.93891 0.0
H1159 H 0.99247 0.38372 0.80168 0.0
H1160 H 0.9266 0.34491 0.81275 0.0
H1161 H 0.96601 0.35458 0.81963 0.0
H1162 H 0.94883 0.40703 0.90973 0.0
H1163 H 0.90928 0.39695 0.9035 0.0
C1164 C 0.01686 0.39553 0.91511 0.0
C1165 C 0.03118 0.39466 0.8792 0.0
C1166 C 0.99389 0.3918 0.91041 0.0
C1167 C 0.98474 0.38715 0.86968 0.0
C1168 C 0.99903 0.3869 0.83361 0.0
C1169 C 0.02201 0.39059 0.83833 0.0
C1170 C 0.93122 0.35852 0.83401 0.0
C1171 C 0.91487 0.37014 0.85769 0.0
C1172 C 0.95381 0.36419 0.8377 0.0
C1173 C 0.96059 0.38165 0.86509 0.0
C1174 C 0.94419 0.39335 0.88868 0.0
C1175 C 0.92154 0.38764 0.88501 0.0
H1176 H 0.87532 0.78351 0.06814 0.0
H1177 H 0.83745 0.77298 0.18497 0.0
H1178 H 0.88046 0.74331 0.06067 0.0
H1179 H 0.84173 0.73256 0.17666 0.0
H1180 H 0.87687 0.66388 0.17445 0.0
H1181 H 0.869 0.70379 0.18223 0.0
H1182 H 0.8621 0.70956 0.04401 0.0
H1183 H 0.87094 0.66998 0.03636 0.0
C1184 C 0.86782 0.77254 0.09192 0.0
C1185 C 0.85603 0.78136 0.12716 0.0
C1186 C 0.87063 0.74945 0.08753 0.0
C1187 C 0.86146 0.73459 0.11801 0.0
C1188 C 0.84932 0.74347 0.15293 0.0
C1189 C 0.84673 0.76662 0.15756 0.0
C1190 C 0.87355 0.67371 0.14583 0.0
C1191 C 0.87469 0.66391 0.10481 0.0
C1192 C 0.86891 0.69657 0.15025 0.0
C1193 C 0.86507 0.71001 0.11371 0.0
C1194 C 0.86548 0.6999 0.0728 0.0
C1195 C 0.87039 0.67716 0.0684 0.0
H1196 H 0.58782 0.60358 0.414 0.0
H1197 H 0.57074 0.65169 0.31543 0.0
H1198 H 0.5483 0.59323 0.42051 0.0
H1199 H 0.53143 0.64176 0.32248 0.0
H1200 H 0.46571 0.60527 0.31475 0.0
H1201 H 0.5059 0.61137 0.30752 0.0
H1202 H 0.51292 0.609 0.44597 0.0
H1203 H 0.47274 0.60236 0.45309 0.0
C1204 C 0.57563 0.61196 0.39382 0.0
C1205 C 0.58235 0.62843 0.3642 0.0
C1206 C 0.55301 0.6061 0.39765 0.0
C1207 C 0.53672 0.61659 0.37187 0.0
C1208 C 0.54356 0.63305 0.34228 0.0
C1209 C 0.56609 0.63887 0.33846 0.0
C1210 C 0.47587 0.60586 0.3436 0.0
C1211 C 0.46608 0.60348 0.38448 0.0
C1212 C 0.49888 0.60949 0.3395 0.0
C1213 C 0.5126 0.61089 0.3762 0.0
C1214 C 0.50287 0.60782 0.41705 0.0
C1215 C 0.47984 0.60414 0.42114 0.0
H1216 H 0.35413 0.33732 0.16146 0.0
H1217 H 0.40087 0.32038 0.06024 0.0
H1218 H 0.34315 0.29794 0.16693 0.0
H1219 H 0.39025 0.28119 0.06614 0.0
H1220 H 0.35252 0.21614 0.05806 0.0
H1221 H 0.35884 0.25636 0.05177 0.0
H1222 H 0.35925 0.26215 0.1905 0.0
H1223 H 0.35249 0.22199 0.19674 0.0
C1224 C 0.36206 0.32519 0.14047 0.0
C1225 C 0.37835 0.3319 0.11045 0.0
C1226 C 0.35584 0.30265 0.14368 0.0
C1227 C 0.36575 0.28646 0.11682 0.0
C1228 C 0.382 0.29328 0.08678 0.0
C1229 C 0.38822 0.31573 0.08363 0.0
C1230 C 0.35372 0.22605 0.08718 0.0
C1231 C 0.35215 0.21592 0.12788 0.0
C1232 C 0.35747 0.24906 0.0836 0.0
C1233 C 0.35976 0.26241 0.12065 0.0
C1234 C 0.3574 0.25237 0.16135 0.0
C1235 C 0.35364 0.22935 0.16492 0.0
H1236 H 0.41017 0.61465 0.93761 0.0
H1237 H 0.42516 0.6289 0.80425 0.0
H1238 H 0.44934 0.604 0.94931 0.0
H1239 H 0.46402 0.61921 0.81605 0.0
H1240 H 0.52912 0.58512 0.83561 0.0
H1241 H 0.48873 0.58926 0.82847 0.0
H1242 H 0.48585 0.62043 0.95408 0.0
H1243 H 0.52619 0.61527 0.96186 0.0
C1244 C 0.42181 0.61547 0.91087 0.0
C1245 C 0.41461 0.62256 0.87004 0.0
C1246 C 0.44425 0.6095 0.91757 0.0
C1247 C 0.45987 0.61063 0.88358 0.0
C1248 C 0.45246 0.61761 0.84278 0.0
C1249 C 0.43014 0.62337 0.83607 0.0
C1250 C 0.51979 0.59265 0.86183 0.0
C1251 C 0.53078 0.60007 0.89908 0.0
C1252 C 0.49665 0.59515 0.8577 0.0
C1253 C 0.48401 0.6055 0.89043 0.0
C1254 C 0.49497 0.6122 0.92839 0.0
C1255 C 0.51811 0.6094 0.93276 0.0
H1256 H 0.08747 0.67523 0.6594 0.0
H1257 H 0.15593 0.66232 0.62169 0.0
H1258 H 0.09612 0.715 0.66732 0.0
H1259 H 0.16451 0.70222 0.62922 0.0
H1260 H 0.15659 0.77753 0.58653 0.0
H1261 H 0.15106 0.73694 0.58673 0.0
H1262 H 0.12079 0.74116 0.71284 0.0
H1263 H 0.12649 0.78171 0.71289 0.0
C1264 C 0.10443 0.68087 0.65335 0.0
C1265 C 0.12103 0.66574 0.63989 0.0
C1266 C 0.10938 0.70359 0.658 0.0
C1267 C 0.13095 0.71163 0.64868 0.0
C1268 C 0.14771 0.69642 0.63629 0.0
C1269 C 0.14284 0.67362 0.63227 0.0
C1270 C 0.14888 0.76976 0.61437 0.0
C1271 C 0.1419 0.78274 0.64963 0.0
C1272 C 0.14586 0.74655 0.6146 0.0
C1273 C 0.13553 0.73598 0.64983 0.0
C1274 C 0.1287 0.74894 0.68522 0.0
C1275 C 0.13202 0.7721 0.68526 0.0
H1276 H 0.08378 0.37349 0.42952 0.0
H1277 H 0.07621 0.36812 0.29163 0.0
H1278 H 0.04392 0.38204 0.43644 0.0
H1279 H 0.03679 0.37764 0.29808 0.0
H1280 H 0.96301 0.36872 0.3271 0.0
H1281 H 0.00298 0.3617 0.321 0.0
H1282 H 0.01544 0.40896 0.42376 0.0
H1283 H 0.97518 0.41515 0.43104 0.0
C1284 C 0.07363 0.37441 0.40069 0.0
C1285 C 0.08301 0.36997 0.36011 0.0
C1286 C 0.05081 0.37945 0.40456 0.0
C1287 C 0.03702 0.38041 0.36783 0.0
C1288 C 0.0467 0.37654 0.32718 0.0
C1289 C 0.06937 0.37122 0.32341 0.0
C1290 C 0.97431 0.37768 0.34824 0.0
C1291 C 0.96601 0.3925 0.37949 0.0
C1292 C 0.99727 0.37377 0.34461 0.0
C1293 C 0.01255 0.38483 0.37176 0.0
C1294 C 0.00419 0.39989 0.40273 0.0
C1295 C 0.98114 0.40359 0.40671 0.0
H1296 H 0.4049 0.67911 0.42583 0.0
H1297 H 0.35389 0.66176 0.33312 0.0
H1298 H 0.39514 0.71849 0.41867 0.0
H1299 H 0.34373 0.70128 0.3266 0.0
H1300 H 0.35127 0.77626 0.29147 0.0
H1301 H 0.35876 0.73629 0.29868 0.0
H1302 H 0.36529 0.7443 0.43644 0.0
H1303 H 0.35831 0.78437 0.42904 0.0
C1304 C 0.39153 0.68372 0.40402 0.0
C1305 C 0.38017 0.66737 0.37999 0.0
C1306 C 0.38581 0.70628 0.40017 0.0
C1307 C 0.36856 0.71303 0.37228 0.0
C1308 C 0.35723 0.69665 0.34809 0.0
C1309 C 0.36299 0.67403 0.35191 0.0
C1310 C 0.35416 0.76944 0.32332 0.0
C1311 C 0.35433 0.78344 0.35968 0.0
C1312 C 0.35834 0.74652 0.32747 0.0
C1313 C 0.36275 0.73712 0.3681 0.0
C1314 C 0.36233 0.75108 0.40459 0.0
C1315 C 0.35819 0.774 0.40042 0.0
H1316 H 0.97048 0.60057 0.0293 0.0
H1317 H 0.96363 0.61519 0.16496 0.0
H1318 H 0.01057 0.60864 0.03348 0.0
H1319 H 0.00364 0.62301 0.16922 0.0
H1320 H 0.06857 0.66134 0.14919 0.0
H1321 H 0.02901 0.65234 0.1422 0.0
H1322 H 0.04584 0.59407 0.06633 0.0
H1323 H 0.08567 0.60324 0.07301 0.0
C1324 C 0.97757 0.60538 0.06004 0.0
C1325 C 0.96393 0.60736 0.09678 0.0
C1326 C 0.00051 0.60989 0.06245 0.0
C1327 C 0.01021 0.61659 0.1016 0.0
C1328 C 0.99658 0.61821 0.13844 0.0
C1329 C 0.9737 0.61362 0.13607 0.0
C1330 C 0.06386 0.64666 0.13081 0.0
C1331 C 0.08022 0.63295 0.11173 0.0
C1332 C 0.0412 0.64142 0.12708 0.0
C1333 C 0.03433 0.62238 0.10407 0.0
C1334 C 0.05065 0.60891 0.08409 0.0
C1335 C 0.07342 0.61412 0.088 0.0
H1336 H 0.14329 0.22226 0.78893 0.0
H1337 H 0.14008 0.21459 0.92715 0.0
H1338 H 0.13616 0.2623 0.79648 0.0
H1339 H 0.13349 0.25469 0.93483 0.0
H1340 H 0.0938 0.31993 0.92793 0.0
H1341 H 0.10328 0.28052 0.92015 0.0
H1342 H 0.15202 0.29738 0.82234 0.0
H1343 H 0.1421 0.33695 0.82953 0.0
C1344 C 0.14131 0.22919 0.82095 0.0
C1345 C 0.1421 0.2153 0.85745 0.0
C1346 C 0.13735 0.25215 0.8253 0.0
C1347 C 0.13412 0.26168 0.86624 0.0
C1348 C 0.13551 0.24782 0.90278 0.0
C1349 C 0.13942 0.22487 0.89842 0.0
C1350 C 0.10654 0.31524 0.90475 0.0
C1351 C 0.1172 0.33151 0.87931 0.0
C1352 C 0.1121 0.29266 0.90052 0.0
C1353 C 0.12851 0.2858 0.87081 0.0
C1354 C 0.13917 0.3021 0.84526 0.0
C1355 C 0.13356 0.32475 0.84947 0.0
H1356 H 0.41149 0.39569 0.58678 0.0
H1357 H 0.42789 0.34306 0.67686 0.0
H1358 H 0.4512 0.40516 0.58059 0.0
H1359 H 0.46746 0.35216 0.67006 0.0
H1360 H 0.53395 0.38811 0.68205 0.0
H1361 H 0.49382 0.38135 0.68914 0.0
H1362 H 0.48593 0.38972 0.55173 0.0
H1363 H 0.52598 0.39696 0.54483 0.0
C1364 C 0.42358 0.38611 0.6051 0.0
C1365 C 0.41661 0.36866 0.63231 0.0
C1366 C 0.44632 0.39146 0.60144 0.0
C1367 C 0.46249 0.37946 0.62496 0.0
C1368 C 0.45543 0.36197 0.65206 0.0
C1369 C 0.43275 0.35665 0.65571 0.0
C1370 C 0.52361 0.38864 0.65342 0.0
C1371 C 0.53309 0.39299 0.61288 0.0
C1372 C 0.50065 0.38464 0.65743 0.0
C1373 C 0.48669 0.38486 0.62096 0.0
C1374 C 0.49616 0.38965 0.58051 0.0
C1375 C 0.51912 0.39368 0.57652 0.0
H1376 H 0.16564 0.09848 0.49424 0.0
H1377 H 0.10216 0.07562 0.54464 0.0
H1378 H 0.18034 0.10107 0.56753 0.0
H1379 H 0.11663 0.07852 0.61751 0.0
H1380 H 0.14583 0.08209 0.74652 0.0
H1381 H 0.14302 0.06705 0.67355 0.0
H1382 H 0.1705 0.12862 0.62291 0.0
H1383 H 0.17363 0.14341 0.69556 0.0
C1384 C 0.15501 0.09354 0.5209 0.0
C1385 C 0.13265 0.08722 0.51392 0.0
C1386 C 0.1634 0.09508 0.5628 0.0
C1387 C 0.14957 0.09023 0.59829 0.0
C1388 C 0.12779 0.08218 0.59091 0.0
C1389 C 0.11942 0.08072 0.54913 0.0
C1390 C 0.1518 0.09214 0.71983 0.0
C1391 C 0.15956 0.11406 0.72653 0.0
C1392 C 0.15014 0.08356 0.6781 0.0
C1393 C 0.15627 0.09675 0.64248 0.0
C1394 C 0.16579 0.11794 0.64964 0.0
C1395 C 0.16741 0.12652 0.69128 0.0
H1396 H 0.1786 0.8569 0.7929 0.0
H1397 H 0.14968 0.91767 0.74188 0.0
H1398 H 0.17554 0.87181 0.86538 0.0
H1399 H 0.14706 0.93293 0.81471 0.0
H1400 H 0.10625 0.9244 0.94348 0.0
H1401 H 0.12107 0.9219 0.87081 0.0
H1402 H 0.18443 0.8987 0.92119 0.0
H1403 H 0.1693 0.90076 0.99425 0.0
C1404 C 0.17221 0.87375 0.7971 0.0
C1405 C 0.16395 0.88595 0.7619 0.0
C1406 C 0.17062 0.8824 0.8387 0.0
C1407 C 0.16075 0.90346 0.84589 0.0
C1408 C 0.15439 0.9165 0.81022 0.0
C1409 C 0.15597 0.90781 0.76853 0.0
C1410 C 0.1235 0.91925 0.93915 0.0
C1411 C 0.13648 0.91236 0.97439 0.0
C1412 C 0.1321 0.91801 0.89744 0.0
C1413 C 0.15388 0.90986 0.89015 0.0
C1414 C 0.16748 0.90472 0.92577 0.0
C1415 C 0.15884 0.90596 0.96757 0.0
H1416 H 0.3329 0.89155 0.99111 0.0
H1417 H 0.39449 0.92009 0.03905 0.0
H1418 H 0.31863 0.88887 0.06468 0.0
H1419 H 0.38057 0.91689 0.11238 0.0
H1420 H 0.35074 0.91431 0.24208 0.0
H1421 H 0.35411 0.92746 0.16784 0.0
H1422 H 0.32895 0.86386 0.12237 0.0
H1423 H 0.32508 0.85103 0.19622 0.0
C1424 C 0.34324 0.89756 0.01732 0.0
C1425 C 0.36492 0.90572 0.00951 0.0
C1426 C 0.33511 0.89597 0.05942 0.0
C1427 C 0.34855 0.90243 0.09442 0.0
C1428 C 0.36966 0.91197 0.08621 0.0
C1429 C 0.37774 0.91363 0.04415 0.0
C1430 C 0.34542 0.90339 0.21618 0.0
C1431 C 0.33796 0.88154 0.2248 0.0
C1432 C 0.34745 0.91087 0.17371 0.0
C1433 C 0.34208 0.89661 0.13919 0.0
C1434 C 0.33305 0.87537 0.14813 0.0
C1435 C 0.33099 0.86793 0.19051 0.0
H1436 H 0.33352 0.10152 0.49097 0.0
H1437 H 0.39647 0.07591 0.44303 0.0
H1438 H 0.31966 0.10457 0.41717 0.0
H1439 H 0.38291 0.07938 0.36964 0.0
H1440 H 0.35457 0.08367 0.23932 0.0
H1441 H 0.35719 0.06906 0.31264 0.0
H1442 H 0.3303 0.13125 0.36173 0.0
H1443 H 0.32723 0.14555 0.28872 0.0
C1444 C 0.3442 0.0961 0.46473 0.0
C1445 C 0.36619 0.08883 0.47259 0.0
C1446 C 0.33631 0.09793 0.42252 0.0
C1447 C 0.35028 0.0925 0.38754 0.0
C1448 C 0.37162 0.08354 0.39578 0.0
C1449 C 0.37949 0.08172 0.43789 0.0
C1450 C 0.34877 0.09398 0.26578 0.0
C1451 C 0.34104 0.11587 0.25847 0.0
C1452 C 0.35032 0.08565 0.30772 0.0
C1453 C 0.34419 0.09907 0.34302 0.0
C1454 C 0.33496 0.12036 0.3353 0.0
C1455 C 0.33339 0.12866 0.29344 0.0
H1456 H 0.8609 0.91309 0.24215 0.0
H1457 H 0.8299 0.85363 0.29445 0.0
H1458 H 0.86535 0.92801 0.31502 0.0
H1459 H 0.83435 0.86848 0.36697 0.0
H1460 H 0.83731 0.90251 0.49357 0.0
H1461 H 0.82439 0.89883 0.41928 0.0
H1462 H 0.89097 0.9143 0.37358 0.0
H1463 H 0.90386 0.91805 0.44767 0.0
C1464 C 0.85459 0.90345 0.26913 0.0
C1465 C 0.8453 0.8821 0.26281 0.0
C1466 C 0.8572 0.91196 0.31075 0.0
C1467 C 0.85031 0.89935 0.34659 0.0
C1468 C 0.83963 0.87868 0.33994 0.0
C1469 C 0.83722 0.87009 0.29844 0.0
C1470 C 0.84904 0.90564 0.46761 0.0
C1471 C 0.87166 0.91026 0.47629 0.0
C1472 C 0.84165 0.90347 0.42517 0.0
C1473 C 0.85671 0.90609 0.39075 0.0
C1474 C 0.87893 0.91237 0.39946 0.0
C1475 C 0.88636 0.91437 0.44188 0.0
H1476 H 0.89277 0.07523 0.04682 0.0
H1477 H 0.83121 0.10244 0.99583 0.0
H1478 H 0.87797 0.0785 0.11949 0.0
H1479 H 0.81614 0.10535 0.06882 0.0
H1480 H 0.82343 0.14569 0.19861 0.0
H1481 H 0.82672 0.13155 0.12551 0.0
H1482 H 0.85062 0.06817 0.17455 0.0
H1483 H 0.84769 0.08255 0.24802 0.0
C1484 C 0.87583 0.08137 0.05111 0.0
C1485 C 0.86328 0.08895 0.0158 0.0
C1486 C 0.86725 0.08307 0.09277 0.0
C1487 C 0.84594 0.09239 0.09994 0.0
C1488 C 0.83274 0.09838 0.0643 0.0
C1489 C 0.84133 0.09666 0.02255 0.0
C1490 C 0.82887 0.12855 0.19386 0.0
C1491 C 0.83569 0.11535 0.22888 0.0
C1492 C 0.83059 0.12036 0.15194 0.0
C1493 C 0.83919 0.09881 0.14422 0.0
C1494 C 0.84426 0.08496 0.17952 0.0
C1495 C 0.84249 0.09316 0.22154 0.0
H1496 H 0.63771 0.08525 0.7418 0.0
H1497 H 0.67472 0.1415 0.79257 0.0
H1498 H 0.63255 0.07083 0.81477 0.0
H1499 H 0.66942 0.12721 0.86534 0.0
H1500 H 0.66277 0.09426 0.99295 0.0
H1501 H 0.67612 0.09687 0.91867 0.0
H1502 H 0.6086 0.08657 0.87288 0.0
H1503 H 0.59534 0.0838 0.94687 0.0
C1504 C 0.64517 0.09425 0.76845 0.0
C1505 C 0.65635 0.11465 0.76167 0.0
C1506 C 0.64214 0.08604 0.81017 0.0
C1507 C 0.65039 0.09801 0.84572 0.0
C1508 C 0.66303 0.11751 0.83857 0.0
C1509 C 0.66594 0.12579 0.79691 0.0
C1510 C 0.65089 0.09206 0.96696 0.0
C1511 C 0.62798 0.08912 0.97558 0.0
C1512 C 0.65852 0.09362 0.92451 0.0
C1513 C 0.64338 0.09209 0.89004 0.0
C1514 C 0.62072 0.0876 0.89874 0.0
C1515 C 0.61308 0.08618 0.94113 0.0
H1516 H 0.60056 0.9223 0.54784 0.0
H1517 H 0.66208 0.89299 0.50083 0.0
H1518 H 0.61328 0.91725 0.62154 0.0
H1519 H 0.67506 0.88829 0.57489 0.0
H1520 H 0.66563 0.84849 0.70404 0.0
H1521 H 0.66243 0.86225 0.63054 0.0
H1522 H 0.63982 0.92636 0.67842 0.0
H1523 H 0.64261 0.91238 0.75215 0.0
C1524 C 0.61706 0.91528 0.55328 0.0
C1525 C 0.6302 0.90773 0.51869 0.0
C1526 C 0.62443 0.91253 0.59554 0.0
C1527 C 0.6451 0.90216 0.60405 0.0
C1528 C 0.65892 0.89603 0.5693 0.0
C1529 C 0.65154 0.89882 0.52694 0.0
C1530 C 0.66034 0.86564 0.69891 0.0
C1531 C 0.65405 0.87926 0.73371 0.0
C1532 C 0.65869 0.8736 0.65678 0.0
C1533 C 0.65072 0.89536 0.64867 0.0
C1534 C 0.64573 0.90942 0.68368 0.0
C1535 C 0.64738 0.90144 0.72585 0.0
H1536 H 0.60515 0.57226 0.05323 0.0
H1537 H 0.6656 0.60113 0.00056 0.0
H1538 H 0.62027 0.57593 0.12544 0.0
H1539 H 0.68108 0.60431 0.07306 0.0
H1540 H 0.67354 0.64542 0.20127 0.0
H1541 H 0.67042 0.63042 0.1289 0.0
H1542 H 0.64743 0.56729 0.18082 0.0
H1543 H 0.65007 0.58262 0.25359 0.0
C1544 C 0.62195 0.57879 0.05703 0.0
C1545 C 0.63402 0.58684 0.02144 0.0
C1546 C 0.63073 0.58073 0.09846 0.0
C1547 C 0.65178 0.5907 0.10506 0.0
C1548 C 0.66465 0.59692 0.06903 0.0
C1549 C 0.65582 0.59503 0.02754 0.0
C1550 C 0.6683 0.62818 0.19732 0.0
C1551 C 0.66163 0.61533 0.23293 0.0
C1552 C 0.6667 0.61948 0.15579 0.0
C1553 C 0.65843 0.59771 0.14905 0.0
C1554 C 0.65352 0.58423 0.18498 0.0
C1555 C 0.6551 0.59298 0.22662 0.0
H1556 H 0.66652 0.40161 0.50215 0.0
H1557 H 0.60347 0.42476 0.45054 0.0
H1558 H 0.68166 0.39885 0.4292 0.0
H1559 H 0.61831 0.42155 0.37797 0.0
H1560 H 0.64748 0.41631 0.24916 0.0
H1561 H 0.64434 0.43204 0.32155 0.0
H1562 H 0.67274 0.37138 0.37438 0.0
H1563 H 0.67632 0.356 0.30232 0.0
C1564 C 0.65607 0.40657 0.47529 0.0
C1565 C 0.6337 0.41301 0.48187 0.0
C1566 C 0.6647 0.40492 0.43355 0.0
C1567 C 0.6511 0.40968 0.39776 0.0
C1568 C 0.62933 0.41792 0.40474 0.0
C1569 C 0.62073 0.41958 0.44639 0.0
C1570 C 0.65359 0.40663 0.27621 0.0
C1571 C 0.66177 0.38479 0.27028 0.0
C1572 C 0.65172 0.41559 0.31763 0.0
C1573 C 0.65799 0.40285 0.35376 0.0
C1574 C 0.66791 0.38175 0.34732 0.0
C1575 C 0.66979 0.37283 0.30598 0.0
H1576 H 0.82269 0.35408 0.69539 0.0
H1577 H 0.85001 0.41566 0.74602 0.0
H1578 H 0.82697 0.36836 0.62249 0.0
H1579 H 0.854 0.43014 0.67283 0.0
H1580 H 0.89631 0.42108 0.54568 0.0
H1581 H 0.88116 0.41807 0.61814 0.0
H1582 H 0.81785 0.39585 0.56616 0.0
H1583 H 0.8332 0.39861 0.49331 0.0
C1584 C 0.82904 0.37092 0.69096 0.0
C1585 C 0.83641 0.3836 0.72626 0.0
C1586 C 0.83134 0.37919 0.64917 0.0
C1587 C 0.84108 0.40029 0.64191 0.0
C1588 C 0.84674 0.4137 0.67747 0.0
C1589 C 0.84439 0.40543 0.71933 0.0
C1590 C 0.87901 0.41602 0.54965 0.0
C1591 C 0.86604 0.40973 0.51399 0.0
C1592 C 0.87024 0.41447 0.59118 0.0
C1593 C 0.84835 0.40654 0.59787 0.0
C1594 C 0.83486 0.40177 0.56196 0.0
C1595 C 0.84362 0.40341 0.52031 0.0
H1596 H 0.89334 0.57003 0.94252 0.0
H1597 H 0.83039 0.59391 0.99362 0.0
H1598 H 0.87876 0.57323 0.86988 0.0
H1599 H 0.8155 0.59669 0.92055 0.0
H1600 H 0.82325 0.64078 0.79533 0.0
H1601 H 0.82545 0.62448 0.86679 0.0
H1602 H 0.85291 0.56369 0.81257 0.0
H1603 H 0.85113 0.58034 0.74075 0.0
C1604 C 0.87613 0.57532 0.93825 0.0
C1605 C 0.86316 0.58218 0.97359 0.0
C1606 C 0.86767 0.57698 0.89655 0.0
C1607 C 0.84605 0.58553 0.88938 0.0
C1608 C 0.83235 0.59039 0.92506 0.0
C1609 C 0.84084 0.58872 0.96687 0.0
C1610 C 0.82926 0.62374 0.79851 0.0
C1611 C 0.83746 0.612 0.76266 0.0
C1612 C 0.83033 0.61428 0.8395 0.0
C1613 C 0.83962 0.59286 0.84545 0.0
C1614 C 0.84599 0.58036 0.80904 0.0
C1615 C 0.84492 0.58986 0.76795 0.0
H1616 H 0.325 0.35419 0.7965 0.0
H1617 H 0.3527 0.4157 0.74619 0.0
H1618 H 0.32912 0.36836 0.86944 0.0
H1619 H 0.35642 0.43015 0.81942 0.0
H1620 H 0.39719 0.42252 0.94806 0.0
H1621 H 0.3828 0.41911 0.87519 0.0
H1622 H 0.3196 0.3953 0.92542 0.0
H1623 H 0.33425 0.39832 -0.00138 0.0
C1624 C 0.33142 0.37099 0.80101 0.0
C1625 C 0.33888 0.3837 0.76577 0.0
C1626 C 0.33362 0.37921 0.84284 0.0
C1627 C 0.34333 0.40031 0.85024 0.0
C1628 C 0.3492 0.4137 0.81473 0.0
C1629 C 0.34699 0.40546 0.77283 0.0
C1630 C 0.38006 0.41703 0.94361 0.0
C1631 C 0.36697 0.41033 0.97891 0.0
C1632 C 0.37172 0.41523 0.90182 0.0
C1633 C 0.35011 0.40671 0.8945 0.0
C1634 C 0.33643 0.40161 0.93006 0.0
C1635 C 0.34478 0.40342 0.97193 0.0
H1636 H 0.32422 0.64895 0.69703 0.0
H1637 H 0.34374 0.58376 0.74429 0.0
H1638 H 0.32772 0.63555 0.6233 0.0
H1639 H 0.34684 0.57019 0.67041 0.0
H1640 H 0.39138 0.57561 0.54595 0.0
H1641 H 0.37584 0.57966 0.61792 0.0
H1642 H 0.31652 0.61046 0.56458 0.0
H1643 H 0.33231 0.60667 0.49227 0.0
C1644 C 0.32859 0.63156 0.69166 0.0
C1645 C 0.33411 0.61751 0.7263 0.0
C1646 C 0.33048 0.62382 0.64939 0.0
C1647 C 0.33788 0.60188 0.64106 0.0
C1648 C 0.34148 0.58728 0.67587 0.0
C1649 C 0.33961 0.59503 0.71814 0.0
C1650 C 0.37482 0.58281 0.54948 0.0
C1651 C 0.36319 0.59112 0.51364 0.0
C1652 C 0.36581 0.58497 0.59073 0.0
C1653 C 0.345 0.59554 0.59695 0.0
C1654 C 0.3327 0.60248 0.56077 0.0
C1655 C 0.3417 0.60024 0.51942 0.0
H1656 H 0.1467 0.63033 0.48556 0.0
H1657 H 0.11515 0.56657 0.46096 0.0
H1658 H 0.15712 0.63325 0.41038 0.0
H1659 H 0.12671 0.56875 0.38558 0.0
H1660 H 0.1202 0.59851 0.24857 0.0
H1661 H 0.11617 0.58835 0.32393 0.0
H1662 H 0.17877 0.62167 0.35252 0.0
H1663 H 0.18191 0.63299 0.27731 0.0
C1664 C 0.14245 0.61667 0.46413 0.0
C1665 C 0.12992 0.59834 0.47892 0.0
C1666 C 0.14862 0.61821 0.42094 0.0
C1667 C 0.14275 0.60126 0.39157 0.0
C1668 C 0.13115 0.58234 0.407 0.0
C1669 C 0.12463 0.581 0.45021 0.0
C1670 C 0.13325 0.60334 0.27092 0.0
C1671 C 0.15119 0.6168 0.25738 0.0
C1672 C 0.13105 0.59739 0.31419 0.0
C1673 C 0.14698 0.60444 0.34469 0.0
C1674 C 0.16583 0.61649 0.33027 0.0
C1675 C 0.16776 0.62284 0.28714 0.0
H1676 H 0.14804 0.41478 0.24667 0.0
H1677 H 0.17455 0.35267 0.19664 0.0
H1678 H 0.14364 0.42883 0.17326 0.0
H1679 H 0.16983 0.36649 0.12357 0.0
H1680 H 0.16395 0.3963 0.99395 0.0
H1681 H 0.17912 0.3932 0.06676 0.0
H1682 H 0.11646 0.41746 0.11869 0.0
H1683 H 0.10152 0.42092 0.04618 0.0
C1684 C 0.15341 0.40434 0.22005 0.0
C1685 C 0.16134 0.38252 0.22727 0.0
C1686 C 0.15078 0.41235 0.17805 0.0
C1687 C 0.15612 0.39868 0.14262 0.0
C1688 C 0.16572 0.37753 0.1501 0.0
C1689 C 0.16829 0.36953 0.19202 0.0
C1690 C 0.15363 0.40145 0.02092 0.0
C1691 C 0.13146 0.40856 0.01452 0.0
C1692 C 0.16229 0.3996 0.06257 0.0
C1693 C 0.14893 0.40488 0.09849 0.0
C1694 C 0.12729 0.41347 0.09174 0.0
C1695 C 0.11864 0.41529 0.05017 0.0
loop_
_geom_bond_atom_site_label_1
_geom_bond_atom_site_label_2
_geom_bond_distance
_geom_bond_site_symmetry_2
_ccdc_geom_bond_type
In0 O1 2.294 . S
In0 O2 2.326 . S
In0 O6 2.266 . S
In0 O7 2.326 . S
In0 O8 2.266 . S
In0 O9 2.326 . S
In0 O11 2.294 . S
In0 O12 2.326 . S
O1 In0 2.294 . S
O1 C10 1.240 . S
O2 In0 2.326 . S
O2 C10 1.252 . S
C3 O6 1.252 . S
C3 O7 1.260 . S
C4 O11 1.240 . S
C4 O12 1.252 . S
C5 O8 1.252 . S
C5 O9 1.260 . S
O6 In0 2.266 . S
O6 C3 1.252 . S
O7 In0 2.326 . S
O7 C3 1.260 . S
O8 In0 2.266 . S
O8 C5 1.252 . S
O9 In0 2.326 . S
O9 C5 1.260 . S
C10 O1 1.240 . S
C10 O2 1.252 . S
O11 In0 2.294 . S
O11 C4 1.240 . S
O12 In0 2.326 . S
O12 C4 1.252 . S
In13 O14 2.294 . S
In13 O15 2.326 . S
In13 O19 2.266 . S
In13 O20 2.326 . S
In13 O21 2.266 . S
In13 O22 2.326 . S
In13 O24 2.294 . S
In13 O25 2.326 . S
O14 In13 2.294 . S
O14 C23 1.240 . S
O15 In13 2.326 . S
O15 C23 1.252 . S
C16 O19 1.252 . S
C16 O20 1.260 . S
C17 O24 1.240 . S
C17 O25 1.252 . S
C18 O21 1.252 . S
C18 O22 1.260 . S
O19 In13 2.266 . S
O19 C16 1.252 . S
O20 In13 2.326 . S
O20 C16 1.260 . S
O21 In13 2.266 . S
O21 C18 1.252 . S
O22 In13 2.326 . S
O22 C18 1.260 . S
C23 O14 1.240 . S
C23 O15 1.252 . S
O24 In13 2.294 . S
O24 C17 1.240 . S
O25 In13 2.326 . S
O25 C17 1.252 . S
In26 O27 2.294 . S
In26 O28 2.326 . S
In26 O32 2.266 . S
In26 O33 2.326 . S
In26 O34 2.266 . S
In26 O35 2.326 . S
In26 O37 2.294 . S
In26 O38 2.326 . S
O27 In26 2.294 . S
O27 C36 1.240 . S
O28 In26 2.326 . S
O28 C36 1.252 . S
C29 O32 1.252 . S
C29 O33 1.260 . S
C30 O37 1.240 . S
C30 O38 1.252 . S
C31 O34 1.252 . S
C31 O35 1.260 . S
O32 In26 2.266 . S
O32 C29 1.252 . S
O33 In26 2.326 . S
O33 C29 1.260 . S
O34 In26 2.266 . S
O34 C31 1.252 . S
O35 In26 2.326 . S
O35 C31 1.260 . S
C36 O27 1.240 . S
C36 O28 1.252 . S
O37 In26 2.294 . S
O37 C30 1.240 . S
O38 In26 2.326 . S
O38 C30 1.252 . S
In39 O40 2.294 . S
In39 O41 2.326 . S
In39 O45 2.266 . S
In39 O46 2.326 . S
In39 O47 2.266 . S
In39 O48 2.326 . S
In39 O50 2.294 . S
In39 O51 2.326 . S
O40 In39 2.294 . S
O40 C49 1.240 . S
O41 In39 2.326 . S
O41 C49 1.252 . S
C42 O45 1.252 . S
C42 O46 1.260 . S
C43 O50 1.240 . S
C43 O51 1.252 . S
C44 O47 1.252 . S
C44 O48 1.260 . S
O45 In39 2.266 . S
O45 C42 1.252 . S
O46 In39 2.326 . S
O46 C42 1.260 . S
O47 In39 2.266 . S
O47 C44 1.252 . S
O48 In39 2.326 . S
O48 C44 1.260 . S
C49 O40 1.240 . S
C49 O41 1.252 . S
O50 In39 2.294 . S
O50 C43 1.240 . S
O51 In39 2.326 . S
O51 C43 1.252 . S
In52 O53 2.294 . S
In52 O54 2.326 . S
In52 O58 2.266 . S
In52 O59 2.326 . S
In52 O60 2.266 . S
In52 O61 2.326 . S
In52 O63 2.294 . S
In52 O64 2.326 . S
O53 In52 2.294 . S
O53 C62 1.240 . S
O54 In52 2.326 . S
O54 C62 1.252 . S
C55 O58 1.252 . S
C55 O59 1.260 . S
C56 O63 1.240 . S
C56 O64 1.252 . S
C57 O60 1.252 . S
C57 O61 1.260 . S
O58 In52 2.266 . S
O58 C55 1.252 . S
O59 In52 2.326 . S
O59 C55 1.260 . S
O60 In52 2.266 . S
O60 C57 1.252 . S
O61 In52 2.326 . S
O61 C57 1.260 . S
C62 O53 1.240 . S
C62 O54 1.252 . S
O63 In52 2.294 . S
O63 C56 1.240 . S
O64 In52 2.326 . S
O64 C56 1.252 . S
In65 O66 2.294 . S
In65 O67 2.326 . S
In65 O71 2.266 . S
In65 O72 2.326 . S
In65 O73 2.266 . S
In65 O74 2.326 . S
In65 O76 2.294 . S
In65 O77 2.326 . S
O66 In65 2.294 . S
O66 C75 1.240 . S
O67 In65 2.326 . S
O67 C75 1.252 . S
C68 O71 1.252 . S
C68 O72 1.260 . S
C69 O76 1.240 . S
C69 O77 1.252 . S
C70 O73 1.252 . S
C70 O74 1.260 . S
O71 In65 2.266 . S
O71 C68 1.252 . S
O72 In65 2.326 . S
O72 C68 1.260 . S
O73 In65 2.266 . S
O73 C70 1.252 . S
O74 In65 2.326 . S
O74 C70 1.260 . S
C75 O66 1.240 . S
C75 O67 1.252 . S
O76 In65 2.294 . S
O76 C69 1.240 . S
O77 In65 2.326 . S
O77 C69 1.252 . S
In78 O79 2.294 . S
In78 O80 2.326 . S
In78 O84 2.266 . S
In78 O85 2.326 . S
In78 O86 2.266 . S
In78 O87 2.326 . S
In78 O89 2.294 . S
In78 O90 2.326 . S
O79 In78 2.294 . S
O79 C88 1.240 . S
O80 In78 2.326 . S
O80 C88 1.252 . S
C81 O84 1.252 . S
C81 O85 1.260 . S
C82 O89 1.240 . S
C82 O90 1.252 . S
C83 O86 1.252 . S
C83 O87 1.260 . S
O84 In78 2.266 . S
O84 C81 1.252 . S
O85 In78 2.326 . S
O85 C81 1.260 . S
O86 In78 2.266 . S
O86 C83 1.252 . S
O87 In78 2.326 . S
O87 C83 1.260 . S
C88 O79 1.240 . S
C88 O80 1.252 . S
O89 In78 2.294 . S
O89 C82 1.240 . S
O90 In78 2.326 . S
O90 C82 1.252 . S
In91 O92 2.294 . S
In91 O93 2.326 . S
In91 O97 2.266 . S
In91 O98 2.326 . S
In91 O99 2.266 . S
In91 O100 2.326 . S
In91 O102 2.294 . S
In91 O103 2.326 . S
O92 In91 2.294 . S
O92 C101 1.240 . S
O93 In91 2.326 . S
O93 C101 1.252 . S
C94 O97 1.252 . S
C94 O98 1.260 . S
C95 O102 1.240 . S
C95 O103 1.252 . S
C96 O99 1.252 . S
C96 O100 1.260 . S
O97 In91 2.266 . S
O97 C94 1.252 . S
O98 In91 2.326 . S
O98 C94 1.260 . S
O99 In91 2.266 . S
O99 C96 1.252 . S
O100 In91 2.326 . S
O100 C96 1.260 . S
C101 O92 1.240 . S
C101 O93 1.252 . S
O102 In91 2.294 . S
O102 C95 1.240 . S
O103 In91 2.326 . S
O103 C95 1.252 . S
In104 O105 2.294 . S
In104 O106 2.326 . S
In104 O110 2.266 . S
In104 O111 2.326 . S
In104 O112 2.266 . S
In104 O113 2.326 . S
In104 O115 2.294 . S
In104 O116 2.326 . S
O105 In104 2.294 . S
O105 C114 1.240 . S
O106 In104 2.326 . S
O106 C114 1.252 . S
C107 O110 1.252 . S
C107 O111 1.260 . S
C108 O115 1.240 . S
C108 O116 1.252 . S
C109 O112 1.252 . S
C109 O113 1.260 . S
O110 In104 2.266 . S
O110 C107 1.252 . S
O111 In104 2.326 . S
O111 C107 1.260 . S
O112 In104 2.266 . S
O112 C109 1.252 . S
O113 In104 2.326 . S
O113 C109 1.260 . S
C114 O105 1.240 . S
C114 O106 1.252 . S
O115 In104 2.294 . S
O115 C108 1.240 . S
O116 In104 2.326 . S
O116 C108 1.252 . S
In117 O118 2.294 . S
In117 O119 2.326 . S
In117 O123 2.266 . S
In117 O124 2.326 . S
In117 O125 2.266 . S
In117 O126 2.326 . S
In117 O128 2.294 . S
In117 O129 2.326 . S
O118 In117 2.294 . S
O118 C127 1.240 . S
O119 In117 2.326 . S
O119 C127 1.252 . S
C120 O123 1.252 . S
C120 O124 1.260 . S
C121 O128 1.240 . S
C121 O129 1.252 . S
C122 O125 1.252 . S
C122 O126 1.260 . S
O123 In117 2.266 . S
O123 C120 1.252 . S
O124 In117 2.326 . S
O124 C120 1.260 . S
O125 In117 2.266 . S
O125 C122 1.252 . S
O126 In117 2.326 . S
O126 C122 1.260 . S
C127 O118 1.240 . S
C127 O119 1.252 . S
O128 In117 2.294 . S
O128 C121 1.240 . S
O129 In117 2.326 . S
O129 C121 1.252 . S
In130 O131 2.294 . S
In130 O132 2.326 . S
In130 O136 2.266 . S
In130 O137 2.326 . S
In130 O138 2.266 . S
In130 O139 2.326 . S
In130 O141 2.294 . S
In130 O142 2.326 . S
O131 In130 2.294 . S
O131 C140 1.240 . S
O132 In130 2.326 . S
O132 C140 1.252 . S
C133 O136 1.252 . S
C133 O137 1.260 . S
C134 O141 1.240 . S
C134 O142 1.252 . S
C135 O138 1.252 . S
C135 O139 1.260 . S
O136 In130 2.266 . S
O136 C133 1.252 . S
O137 In130 2.326 . S
O137 C133 1.260 . S
O138 In130 2.266 . S
O138 C135 1.252 . S
O139 In130 2.326 . S
O139 C135 1.260 . S
C140 O131 1.240 . S
C140 O132 1.252 . S
O141 In130 2.294 . S
O141 C134 1.240 . S
O142 In130 2.326 . S
O142 C134 1.252 . S
In143 O144 2.294 . S
In143 O145 2.326 . S
In143 O149 2.266 . S
In143 O150 2.326 . S
In143 O151 2.266 . S
In143 O152 2.326 . S
In143 O154 2.294 . S
In143 O155 2.326 . S
O144 In143 2.294 . S
O144 C153 1.240 . S
O145 In143 2.326 . S
O145 C153 1.252 . S
C146 O149 1.252 . S
C146 O150 1.260 . S
C147 O154 1.240 . S
C147 O155 1.252 . S
C148 O151 1.252 . S
C148 O152 1.260 . S
O149 In143 2.266 . S
O149 C146 1.252 . S
O150 In143 2.326 . S
O150 C146 1.260 . S
O151 In143 2.266 . S
O151 C148 1.252 . S
O152 In143 2.326 . S
O152 C148 1.260 . S
C153 O144 1.240 . S
C153 O145 1.252 . S
O154 In143 2.294 . S
O154 C147 1.240 . S
O155 In143 2.326 . S
O155 C147 1.252 . S
In156 O157 2.294 . S
In156 O158 2.326 . S
In156 O162 2.266 . S
In156 O163 2.326 . S
In156 O164 2.266 . S
In156 O165 2.326 . S
In156 O167 2.294 . S
In156 O168 2.326 . S
O157 In156 2.294 . S
O157 C166 1.240 . S
O158 In156 2.326 . S
O158 C166 1.252 . S
C159 O162 1.252 . S
C159 O163 1.260 . S
C160 O167 1.240 . S
C160 O168 1.252 . S
C161 O164 1.252 . S
C161 O165 1.260 . S
O162 In156 2.266 . S
O162 C159 1.252 . S
O163 In156 2.326 . S
O163 C159 1.260 . S
O164 In156 2.266 . S
O164 C161 1.252 . S
O165 In156 2.326 . S
O165 C161 1.260 . S
C166 O157 1.240 . S
C166 O158 1.252 . S
O167 In156 2.294 . S
O167 C160 1.240 . S
O168 In156 2.326 . S
O168 C160 1.252 . S
In169 O170 2.294 . S
In169 O171 2.326 . S
In169 O175 2.266 . S
In169 O176 2.326 . S
In169 O177 2.266 . S
In169 O178 2.326 . S
In169 O180 2.294 . S
In169 O181 2.326 . S
O170 In169 2.294 . S
O170 C179 1.240 . S
O171 In169 2.326 . S
O171 C179 1.252 . S
C172 O175 1.252 . S
C172 O176 1.260 . S
C173 O180 1.240 . S
C173 O181 1.252 . S
C174 O177 1.252 . S
C174 O178 1.260 . S
O175 In169 2.266 . S
O175 C172 1.252 . S
O176 In169 2.326 . S
O176 C172 1.260 . S
O177 In169 2.266 . S
O177 C174 1.252 . S
O178 In169 2.326 . S
O178 C174 1.260 . S
C179 O170 1.240 . S
C179 O171 1.252 . S
O180 In169 2.294 . S
O180 C173 1.240 . S
O181 In169 2.326 . S
O181 C173 1.252 . S
In182 O183 2.294 . S
In182 O184 2.326 . S
In182 O188 2.266 . S
In182 O189 2.326 . S
In182 O190 2.266 . S
In182 O191 2.326 . S
In182 O193 2.294 . S
In182 O194 2.326 . S
O183 In182 2.294 . S
O183 C192 1.240 . S
O184 In182 2.326 . S
O184 C192 1.252 . S
C185 O188 1.252 . S
C185 O189 1.260 . S
C186 O193 1.240 . S
C186 O194 1.252 . S
C187 O190 1.252 . S
C187 O191 1.260 . S
O188 In182 2.266 . S
O188 C185 1.252 . S
O189 In182 2.326 . S
O189 C185 1.260 . S
O190 In182 2.266 . S
O190 C187 1.252 . S
O191 In182 2.326 . S
O191 C187 1.260 . S
C192 O183 1.240 . S
C192 O184 1.252 . S
O193 In182 2.294 . S
O193 C186 1.240 . S
O194 In182 2.326 . S
O194 C186 1.252 . S
In195 O196 2.294 . S
In195 O197 2.326 . S
In195 O201 2.266 . S
In195 O202 2.326 . S
In195 O203 2.266 . S
In195 O204 2.326 . S
In195 O206 2.294 . S
In195 O207 2.326 . S
O196 In195 2.294 . S
O196 C205 1.240 . S
O197 In195 2.326 . S
O197 C205 1.252 . S
C198 O201 1.252 . S
C198 O202 1.260 . S
C199 O206 1.240 . S
C199 O207 1.252 . S
C200 O203 1.252 . S
C200 O204 1.260 . S
O201 In195 2.266 . S
O201 C198 1.252 . S
O202 In195 2.326 . S
O202 C198 1.260 . S
O203 In195 2.266 . S
O203 C200 1.252 . S
O204 In195 2.326 . S
O204 C200 1.260 . S
C205 O196 1.240 . S
C205 O197 1.252 . S
O206 In195 2.294 . S
O206 C199 1.240 . S
O207 In195 2.326 . S
O207 C199 1.252 . S
In208 O209 2.294 . S
In208 O210 2.326 . S
In208 O214 2.266 . S
In208 O215 2.326 . S
In208 O216 2.266 . S
In208 O217 2.326 . S
In208 O219 2.294 . S
In208 O220 2.326 . S
O209 In208 2.294 . S
O209 C218 1.240 . S
O210 In208 2.326 . S
O210 C218 1.252 . S
C211 O214 1.252 . S
C211 O215 1.260 . S
C212 O219 1.240 . S
C212 O220 1.252 . S
C213 O216 1.252 . S
C213 O217 1.260 . S
O214 In208 2.266 . S
O214 C211 1.252 . S
O215 In208 2.326 . S
O215 C211 1.260 . S
O216 In208 2.266 . S
O216 C213 1.252 . S
O217 In208 2.326 . S
O217 C213 1.260 . S
C218 O209 1.240 . S
C218 O210 1.252 . S
O219 In208 2.294 . S
O219 C212 1.240 . S
O220 In208 2.326 . S
O220 C212 1.252 . S
In221 O222 2.294 . S
In221 O223 2.326 . S
In221 O227 2.266 . S
In221 O228 2.326 . S
In221 O229 2.266 . S
In221 O230 2.326 . S
In221 O232 2.294 . S
In221 O233 2.326 . S
O222 In221 2.294 . S
O222 C231 1.240 . S
O223 In221 2.326 . S
O223 C231 1.252 . S
C224 O227 1.252 . S
C224 O228 1.260 . S
C225 O232 1.240 . S
C225 O233 1.252 . S
C226 O229 1.252 . S
C226 O230 1.260 . S
O227 In221 2.266 . S
O227 C224 1.252 . S
O228 In221 2.326 . S
O228 C224 1.260 . S
O229 In221 2.266 . S
O229 C226 1.252 . S
O230 In221 2.326 . S
O230 C226 1.260 . S
C231 O222 1.240 . S
C231 O223 1.252 . S
O232 In221 2.294 . S
O232 C225 1.240 . S
O233 In221 2.326 . S
O233 C225 1.252 . S
In234 O235 2.294 . S
In234 O236 2.326 . S
In234 O240 2.266 . S
In234 O241 2.326 . S
In234 O242 2.266 . S
In234 O243 2.326 . S
In234 O245 2.294 . S
In234 O246 2.326 . S
O235 In234 2.294 . S
O235 C244 1.240 . S
O236 In234 2.326 . S
O236 C244 1.252 . S
C237 O240 1.252 . S
C237 O241 1.260 . S
C238 O245 1.240 . S
C238 O246 1.252 . S
C239 O242 1.252 . S
C239 O243 1.260 . S
O240 In234 2.266 . S
O240 C237 1.252 . S
O241 In234 2.326 . S
O241 C237 1.260 . S
O242 In234 2.266 . S
O242 C239 1.252 . S
O243 In234 2.326 . S
O243 C239 1.260 . S
C244 O235 1.240 . S
C244 O236 1.252 . S
O245 In234 2.294 . S
O245 C238 1.240 . S
O246 In234 2.326 . S
O246 C238 1.252 . S
In247 O248 2.294 . S
In247 O249 2.326 . S
In247 O253 2.266 . S
In247 O254 2.326 . S
In247 O255 2.266 . S
In247 O256 2.326 . S
In247 O258 2.294 . S
In247 O259 2.326 . S
O248 In247 2.294 . S
O248 C257 1.240 . S
O249 In247 2.326 . S
O249 C257 1.252 . S
C250 O253 1.252 . S
C250 O254 1.260 . S
C251 O258 1.240 . S
C251 O259 1.252 . S
C252 O255 1.252 . S
C252 O256 1.260 . S
O253 In247 2.266 . S
O253 C250 1.252 . S
O254 In247 2.326 . S
O254 C250 1.260 . S
O255 In247 2.266 . S
O255 C252 1.252 . S
O256 In247 2.326 . S
O256 C252 1.260 . S
C257 O248 1.240 . S
C257 O249 1.252 . S
O258 In247 2.294 . S
O258 C251 1.240 . S
O259 In247 2.326 . S
O259 C251 1.252 . S
In260 O261 2.294 . S
In260 O262 2.326 . S
In260 O266 2.266 . S
In260 O267 2.326 . S
In260 O268 2.266 . S
In260 O269 2.326 . S
In260 O271 2.294 . S
In260 O272 2.326 . S
O261 In260 2.294 . S
O261 C270 1.240 . S
O262 In260 2.326 . S
O262 C270 1.252 . S
C263 O266 1.252 . S
C263 O267 1.260 . S
C264 O271 1.240 . S
C264 O272 1.252 . S
C265 O268 1.252 . S
C265 O269 1.260 . S
O266 In260 2.266 . S
O266 C263 1.252 . S
O267 In260 2.326 . S
O267 C263 1.260 . S
O268 In260 2.266 . S
O268 C265 1.252 . S
O269 In260 2.326 . S
O269 C265 1.260 . S
C270 O261 1.240 . S
C270 O262 1.252 . S
O271 In260 2.294 . S
O271 C264 1.240 . S
O272 In260 2.326 . S
O272 C264 1.252 . S
In273 O274 2.294 . S
In273 O275 2.326 . S
In273 O279 2.266 . S
In273 O280 2.326 . S
In273 O281 2.266 . S
In273 O282 2.326 . S
In273 O284 2.294 . S
In273 O285 2.326 . S
O274 In273 2.294 . S
O274 C283 1.240 . S
O275 In273 2.326 . S
O275 C283 1.252 . S
C276 O279 1.252 . S
C276 O280 1.260 . S
C277 O284 1.240 . S
C277 O285 1.252 . S
C278 O281 1.252 . S
C278 O282 1.260 . S
O279 In273 2.266 . S
O279 C276 1.252 . S
O280 In273 2.326 . S
O280 C276 1.260 . S
O281 In273 2.266 . S
O281 C278 1.252 . S
O282 In273 2.326 . S
O282 C278 1.260 . S
C283 O274 1.240 . S
C283 O275 1.252 . S
O284 In273 2.294 . S
O284 C277 1.240 . S
O285 In273 2.326 . S
O285 C277 1.252 . S
In286 O287 2.294 . S
In286 O288 2.326 . S
In286 O292 2.266 . S
In286 O293 2.326 . S
In286 O294 2.266 . S
In286 O295 2.326 . S
In286 O297 2.294 . S
In286 O298 2.326 . S
O287 In286 2.294 . S
O287 C296 1.240 . S
O288 In286 2.326 . S
O288 C296 1.252 . S
C289 O292 1.252 . S
C289 O293 1.260 . S
C290 O297 1.240 . S
C290 O298 1.252 . S
C291 O294 1.252 . S
C291 O295 1.260 . S
O292 In286 2.266 . S
O292 C289 1.252 . S
O293 In286 2.326 . S
O293 C289 1.260 . S
O294 In286 2.266 . S
O294 C291 1.252 . S
O295 In286 2.326 . S
O295 C291 1.260 . S
C296 O287 1.240 . S
C296 O288 1.252 . S
O297 In286 2.294 . S
O297 C290 1.240 . S
O298 In286 2.326 . S
O298 C290 1.252 . S
In299 O300 2.294 . S
In299 O301 2.326 . S
In299 O305 2.266 . S
In299 O306 2.326 . S
In299 O307 2.266 . S
In299 O308 2.326 . S
In299 O310 2.294 . S
In299 O311 2.326 . S
O300 In299 2.294 . S
O300 C309 1.240 . S
O301 In299 2.326 . S
O301 C309 1.252 . S
C302 O305 1.252 . S
C302 O306 1.260 . S
C303 O310 1.240 . S
C303 O311 1.252 . S
C304 O307 1.252 . S
C304 O308 1.260 . S
O305 In299 2.266 . S
O305 C302 1.252 . S
O306 In299 2.326 . S
O306 C302 1.260 . S
O307 In299 2.266 . S
O307 C304 1.252 . S
O308 In299 2.326 . S
O308 C304 1.260 . S
C309 O300 1.240 . S
C309 O301 1.252 . S
O310 In299 2.294 . S
O310 C303 1.240 . S
O311 In299 2.326 . S
O311 C303 1.252 . S
In312 O313 2.294 . S
In312 O314 2.326 . S
In312 O318 2.266 . S
In312 O319 2.326 . S
In312 O320 2.266 . S
In312 O321 2.326 . S
In312 O323 2.294 . S
In312 O324 2.326 . S
O313 In312 2.294 . S
O313 C322 1.240 . S
O314 In312 2.326 . S
O314 C322 1.252 . S
C315 O318 1.252 . S
C315 O319 1.260 . S
C316 O323 1.240 . S
C316 O324 1.252 . S
C317 O320 1.252 . S
C317 O321 1.260 . S
O318 In312 2.266 . S
O318 C315 1.252 . S
O319 In312 2.326 . S
O319 C315 1.260 . S
O320 In312 2.266 . S
O320 C317 1.252 . S
O321 In312 2.326 . S
O321 C317 1.260 . S
C322 O313 1.240 . S
C322 O314 1.252 . S
O323 In312 2.294 . S
O323 C316 1.240 . S
O324 In312 2.326 . S
O324 C316 1.252 . S
In325 O326 2.294 . S
In325 O327 2.326 . S
In325 O331 2.266 . S
In325 O332 2.326 . S
In325 O333 2.266 . S
In325 O334 2.326 . S
In325 O336 2.294 . S
In325 O337 2.326 . S
O326 In325 2.294 . S
O326 C335 1.240 . S
O327 In325 2.326 . S
O327 C335 1.252 . S
C328 O331 1.252 . S
C328 O332 1.260 . S
C329 O336 1.240 . S
C329 O337 1.252 . S
C330 O333 1.252 . S
C330 O334 1.260 . S
O331 In325 2.266 . S
O331 C328 1.252 . S
O332 In325 2.326 . S
O332 C328 1.260 . S
O333 In325 2.266 . S
O333 C330 1.252 . S
O334 In325 2.326 . S
O334 C330 1.260 . S
C335 O326 1.240 . S
C335 O327 1.252 . S
O336 In325 2.294 . S
O336 C329 1.240 . S
O337 In325 2.326 . S
O337 C329 1.252 . S
In338 O339 2.294 . S
In338 O340 2.326 . S
In338 O344 2.266 . S
In338 O345 2.326 . S
In338 O346 2.266 . S
In338 O347 2.326 . S
In338 O349 2.294 . S
In338 O350 2.326 . S
O339 In338 2.294 . S
O339 C348 1.240 . S
O340 In338 2.326 . S
O340 C348 1.252 . S
C341 O344 1.252 . S
C341 O345 1.260 . S
C342 O349 1.240 . S
C342 O350 1.252 . S
C343 O346 1.252 . S
C343 O347 1.260 . S
O344 In338 2.266 . S
O344 C341 1.252 . S
O345 In338 2.326 . S
O345 C341 1.260 . S
O346 In338 2.266 . S
O346 C343 1.252 . S
O347 In338 2.326 . S
O347 C343 1.260 . S
C348 O339 1.240 . S
C348 O340 1.252 . S
O349 In338 2.294 . S
O349 C342 1.240 . S
O350 In338 2.326 . S
O350 C342 1.252 . S
In351 O352 2.294 . S
In351 O353 2.326 . S
In351 O357 2.266 . S
In351 O358 2.326 . S
In351 O359 2.266 . S
In351 O360 2.326 . S
In351 O362 2.294 . S
In351 O363 2.326 . S
O352 In351 2.294 . S
O352 C361 1.240 . S
O353 In351 2.326 . S
O353 C361 1.252 . S
C354 O357 1.252 . S
C354 O358 1.260 . S
C355 O362 1.240 . S
C355 O363 1.252 . S
C356 O359 1.252 . S
C356 O360 1.260 . S
O357 In351 2.266 . S
O357 C354 1.252 . S
O358 In351 2.326 . S
O358 C354 1.260 . S
O359 In351 2.266 . S
O359 C356 1.252 . S
O360 In351 2.326 . S
O360 C356 1.260 . S
C361 O352 1.240 . S
C361 O353 1.252 . S
O362 In351 2.294 . S
O362 C355 1.240 . S
O363 In351 2.326 . S
O363 C355 1.252 . S
In364 O365 2.294 . S
In364 O366 2.326 . S
In364 O370 2.266 . S
In364 O371 2.326 . S
In364 O372 2.266 . S
In364 O373 2.326 . S
In364 O375 2.294 . S
In364 O376 2.326 . S
O365 In364 2.294 . S
O365 C374 1.240 . S
O366 In364 2.326 . S
O366 C374 1.252 . S
C367 O370 1.252 . S
C367 O371 1.260 . S
C368 O375 1.240 . S
C368 O376 1.252 . S
C369 O372 1.252 . S
C369 O373 1.260 . S
O370 In364 2.266 . S
O370 C367 1.252 . S
O371 In364 2.326 . S
O371 C367 1.260 . S
O372 In364 2.266 . S
O372 C369 1.252 . S
O373 In364 2.326 . S
O373 C369 1.260 . S
C374 O365 1.240 . S
C374 O366 1.252 . S
O375 In364 2.294 . S
O375 C368 1.240 . S
O376 In364 2.326 . S
O376 C368 1.252 . S
In377 O378 2.294 . S
In377 O379 2.326 . S
In377 O383 2.266 . S
In377 O384 2.326 . S
In377 O385 2.266 . S
In377 O386 2.326 . S
In377 O388 2.294 . S
In377 O389 2.326 . S
O378 In377 2.294 . S
O378 C387 1.240 . S
O379 In377 2.326 . S
O379 C387 1.252 . S
C380 O383 1.252 . S
C380 O384 1.260 . S
C381 O388 1.240 . S
C381 O389 1.252 . S
C382 O385 1.252 . S
C382 O386 1.260 . S
O383 In377 2.266 . S
O383 C380 1.252 . S
O384 In377 2.326 . S
O384 C380 1.260 . S
O385 In377 2.266 . S
O385 C382 1.252 . S
O386 In377 2.326 . S
O386 C382 1.260 . S
C387 O378 1.240 . S
C387 O379 1.252 . S
O388 In377 2.294 . S
O388 C381 1.240 . S
O389 In377 2.326 . S
O389 C381 1.252 . S
In390 O391 2.294 . S
In390 O392 2.326 . S
In390 O396 2.266 . S
In390 O397 2.326 . S
In390 O398 2.266 . S
In390 O399 2.326 . S
In390 O401 2.294 . S
In390 O402 2.326 . S
O391 In390 2.294 . S
O391 C400 1.240 . S
O392 In390 2.326 . S
O392 C400 1.252 . S
C393 O396 1.252 . S
C393 O397 1.260 . S
C394 O401 1.240 . S
C394 O402 1.252 . S
C395 O398 1.252 . S
C395 O399 1.260 . S
O396 In390 2.266 . S
O396 C393 1.252 . S
O397 In390 2.326 . S
O397 C393 1.260 . S
O398 In390 2.266 . S
O398 C395 1.252 . S
O399 In390 2.326 . S
O399 C395 1.260 . S
C400 O391 1.240 . S
C400 O392 1.252 . S
O401 In390 2.294 . S
O401 C394 1.240 . S
O402 In390 2.326 . S
O402 C394 1.252 . S
In403 O404 2.294 . S
In403 O405 2.326 . S
In403 O409 2.266 . S
In403 O410 2.326 . S
In403 O411 2.266 . S
In403 O412 2.326 . S
In403 O414 2.294 . S
In403 O415 2.326 . S
O404 In403 2.294 . S
O404 C413 1.240 . S
O405 In403 2.326 . S
O405 C413 1.252 . S
C406 O409 1.252 . S
C406 O410 1.260 . S
C407 O414 1.240 . S
C407 O415 1.252 . S
C408 O411 1.252 . S
C408 O412 1.260 . S
O409 In403 2.266 . S
O409 C406 1.252 . S
O410 In403 2.326 . S
O410 C406 1.260 . S
O411 In403 2.266 . S
O411 C408 1.252 . S
O412 In403 2.326 . S
O412 C408 1.260 . S
C413 O404 1.240 . S
C413 O405 1.252 . S
O414 In403 2.294 . S
O414 C407 1.240 . S
O415 In403 2.326 . S
O415 C407 1.252 . S
H416 C424 0.950 . S
H417 C429 0.950 . S
H418 C426 0.950 . S
H419 C428 0.950 . S
H420 C430 0.950 . S
H421 C432 0.950 . S
H422 C434 0.950 . S
H423 C435 0.950 . S
C424 H416 0.950 . S
C424 C425 1.386 . S
C424 C426 1.391 . S
C425 C424 1.386 . S
C425 C429 1.393 . S
C426 H418 0.950 . S
C426 C424 1.391 . S
C426 C427 1.400 . S
C427 C426 1.400 . S
C427 C428 1.398 . S
C427 C433 1.491 1_545 S
C428 H419 0.950 . S
C428 C427 1.398 . S
C428 C429 1.391 . S
C429 H417 0.950 . S
C429 C425 1.393 . S
C429 C428 1.391 . S
C430 H420 0.950 . S
C430 C431 1.386 . S
C430 C432 1.391 . S
C431 C430 1.386 . S
C431 C435 1.393 . S
C432 H421 0.950 . S
C432 C430 1.391 . S
C432 C433 1.400 . S
C433 C427 1.491 1_565 S
C433 C432 1.400 . S
C433 C434 1.398 . S
C434 H422 0.950 . S
C434 C433 1.398 . S
C434 C435 1.391 . S
C435 H423 0.950 . S
C435 C431 1.393 . S
C435 C434 1.391 . S
H436 C444 0.950 . S
H437 C449 0.950 . S
H438 C446 0.950 . S
H439 C448 0.950 . S
H440 C450 0.950 . S
H441 C452 0.950 . S
H442 C454 0.950 . S
H443 C455 0.950 . S
C444 H436 0.950 . S
C444 C445 1.386 . S
C444 C446 1.391 . S
C445 C444 1.386 . S
C445 C449 1.393 . S
C446 H438 0.950 . S
C446 C444 1.391 . S
C446 C447 1.400 . S
C447 C446 1.400 . S
C447 C448 1.398 . S
C447 C453 1.491 . S
C448 H439 0.950 . S
C448 C447 1.398 . S
C448 C449 1.391 . S
C449 H437 0.950 . S
C449 C445 1.393 . S
C449 C448 1.391 . S
C450 H440 0.950 . S
C450 C451 1.386 . S
C450 C452 1.391 . S
C451 C450 1.386 . S
C451 C455 1.393 . S
C452 H441 0.950 . S
C452 C450 1.391 . S
C452 C453 1.400 . S
C453 C447 1.491 . S
C453 C452 1.400 . S
C453 C454 1.398 . S
C454 H442 0.950 . S
C454 C453 1.398 . S
C454 C455 1.391 . S
C455 H443 0.950 . S
C455 C451 1.393 . S
C455 C454 1.391 . S
H456 C464 0.950 . S
H457 C469 0.950 . S
H458 C466 0.950 . S
H459 C468 0.950 1_565 S
H460 C470 0.950 . S
H461 C472 0.950 . S
H462 C474 0.950 1_545 S
H463 C475 0.950 . S
C464 H456 0.950 . S
C464 C465 1.386 . S
C464 C466 1.391 . S
C465 C464 1.386 . S
C465 C469 1.393 . S
C466 H458 0.950 . S
C466 C464 1.391 . S
C466 C467 1.400 . S
C467 C466 1.400 . S
C467 C468 1.398 . S
C467 C473 1.491 1_545 S
C468 H459 0.950 1_545 S
C468 C467 1.398 . S
C468 C469 1.391 . S
C469 H457 0.950 . S
C469 C465 1.393 . S
C469 C468 1.391 . S
C470 H460 0.950 . S
C470 C471 1.386 . S
C470 C472 1.391 . S
C471 C470 1.386 . S
C471 C475 1.393 . S
C472 H461 0.950 . S
C472 C470 1.391 . S
C472 C473 1.400 . S
C473 C467 1.491 1_565 S
C473 C472 1.400 . S
C473 C474 1.398 . S
C474 H462 0.950 1_565 S
C474 C473 1.398 . S
C474 C475 1.391 . S
C475 H463 0.950 . S
C475 C471 1.393 . S
C475 C474 1.391 . S
H476 C484 0.950 . S
H477 C489 0.950 . S
H478 C486 0.950 . S
H479 C488 0.950 1_554 S
H480 C490 0.950 . S
H481 C492 0.950 . S
H482 C494 0.950 1_556 S
H483 C495 0.950 . S
C484 H476 0.950 . S
C484 C485 1.386 . S
C484 C486 1.391 . S
C485 C484 1.386 . S
C485 C489 1.393 . S
C486 H478 0.950 . S
C486 C484 1.391 . S
C486 C487 1.400 . S
C487 C486 1.400 . S
C487 C488 1.398 . S
C487 C493 1.491 1_556 S
C488 H479 0.950 1_556 S
C488 C487 1.398 . S
C488 C489 1.391 . S
C489 H477 0.950 . S
C489 C485 1.393 . S
C489 C488 1.391 . S
C490 H480 0.950 . S
C490 C491 1.386 . S
C490 C492 1.391 . S
C491 C490 1.386 . S
C491 C495 1.393 . S
C492 H481 0.950 . S
C492 C490 1.391 . S
C492 C493 1.400 . S
C493 C487 1.491 1_554 S
C493 C492 1.400 . S
C493 C494 1.398 . S
C494 H482 0.950 1_554 S
C494 C493 1.398 . S
C494 C495 1.391 . S
C495 H483 0.950 . S
C495 C491 1.393 . S
C495 C494 1.391 . S
H496 C504 0.950 . S
H497 C509 0.950 . S
H498 C506 0.950 . S
H499 C508 0.950 1_545 S
H500 C510 0.950 . S
H501 C512 0.950 . S
H502 C514 0.950 1_565 S
H503 C515 0.950 . S
C504 H496 0.950 . S
C504 C505 1.386 . S
C504 C506 1.391 . S
C505 C504 1.386 . S
C505 C509 1.393 . S
C506 H498 0.950 . S
C506 C504 1.391 . S
C506 C507 1.400 . S
C507 C506 1.400 . S
C507 C508 1.398 . S
C507 C513 1.491 1_565 S
C508 H499 0.950 1_565 S
C508 C507 1.398 . S
C508 C509 1.391 . S
C509 H497 0.950 . S
C509 C505 1.393 . S
C509 C508 1.391 . S
C510 H500 0.950 . S
C510 C511 1.386 . S
C510 C512 1.391 . S
C511 C510 1.386 . S
C511 C515 1.393 . S
C512 H501 0.950 . S
C512 C510 1.391 . S
C512 C513 1.400 . S
C513 C507 1.491 1_545 S
C513 C512 1.400 . S
C513 C514 1.398 . S
C514 H502 0.950 1_545 S
C514 C513 1.398 . S
C514 C515 1.391 . S
C515 H503 0.950 . S
C515 C511 1.393 . S
C515 C514 1.391 . S
H516 C524 0.950 . S
H517 C529 0.950 . S
H518 C526 0.950 . S
H519 C528 0.950 . S
H520 C530 0.950 . S
H521 C532 0.950 . S
H522 C534 0.950 . S
H523 C535 0.950 . S
C524 H516 0.950 . S
C524 C525 1.386 . S
C524 C526 1.391 . S
C525 C524 1.386 . S
C525 C529 1.393 . S
C526 H518 0.950 . S
C526 C524 1.391 . S
C526 C527 1.400 . S
C527 C526 1.400 . S
C527 C528 1.398 . S
C527 C533 1.491 . S
C528 H519 0.950 . S
C528 C527 1.398 . S
C528 C529 1.391 . S
C529 H517 0.950 . S
C529 C525 1.393 . S
C529 C528 1.391 . S
C530 H520 0.950 . S
C530 C531 1.386 . S
C530 C532 1.391 . S
C531 C530 1.386 . S
C531 C535 1.393 . S
C532 H521 0.950 . S
C532 C530 1.391 . S
C532 C533 1.400 . S
C533 C527 1.491 . S
C533 C532 1.400 . S
C533 C534 1.398 . S
C534 H522 0.950 . S
C534 C533 1.398 . S
C534 C535 1.391 . S
C535 H523 0.950 . S
C535 C531 1.393 . S
C535 C534 1.391 . S
H536 C544 0.950 . S
H537 C549 0.950 . S
H538 C546 0.950 1_545 S
H539 C548 0.950 . S
H540 C550 0.950 . S
H541 C552 0.950 1_565 S
H542 C554 0.950 . S
H543 C555 0.950 . S
C544 H536 0.950 . S
C544 C545 1.386 . S
C544 C546 1.391 . S
C545 C544 1.386 . S
C545 C549 1.393 . S
C546 H538 0.950 1_565 S
C546 C544 1.391 . S
C546 C547 1.400 . S
C547 C546 1.400 . S
C547 C548 1.398 . S
C547 C553 1.491 1_565 S
C548 H539 0.950 . S
C548 C547 1.398 . S
C548 C549 1.391 . S
C549 H537 0.950 . S
C549 C545 1.393 . S
C549 C548 1.391 . S
C550 H540 0.950 . S
C550 C551 1.386 . S
C550 C552 1.391 . S
C551 C550 1.386 . S
C551 C555 1.393 . S
C552 H541 0.950 1_545 S
C552 C550 1.391 . S
C552 C553 1.400 . S
C553 C547 1.491 1_545 S
C553 C552 1.400 . S
C553 C554 1.398 . S
C554 H542 0.950 . S
C554 C553 1.398 . S
C554 C555 1.391 . S
C555 H543 0.950 . S
C555 C551 1.393 . S
C555 C554 1.391 . S
H556 C564 0.950 . S
H557 C569 0.950 . S
H558 C566 0.950 . S
H559 C568 0.950 1_554 S
H560 C570 0.950 . S
H561 C572 0.950 . S
H562 C574 0.950 1_556 S
H563 C575 0.950 . S
C564 H556 0.950 . S
C564 C565 1.386 . S
C564 C566 1.391 . S
C565 C564 1.386 . S
C565 C569 1.393 . S
C566 H558 0.950 . S
C566 C564 1.391 . S
C566 C567 1.400 . S
C567 C566 1.400 . S
C567 C568 1.398 . S
C567 C573 1.491 1_556 S
C568 H559 0.950 1_556 S
C568 C567 1.398 . S
C568 C569 1.391 . S
C569 H557 0.950 . S
C569 C565 1.393 . S
C569 C568 1.391 . S
C570 H560 0.950 . S
C570 C571 1.386 . S
C570 C572 1.391 . S
C571 C570 1.386 . S
C571 C575 1.393 . S
C572 H561 0.950 . S
C572 C570 1.391 . S
C572 C573 1.400 . S
C573 C567 1.491 1_554 S
C573 C572 1.400 . S
C573 C574 1.398 . S
C574 H562 0.950 1_554 S
C574 C573 1.398 . S
C574 C575 1.391 . S
C575 H563 0.950 . S
C575 C571 1.393 . S
C575 C574 1.391 . S
H576 C584 0.950 . S
H577 C589 0.950 . S
H578 C586 0.950 . S
H579 C588 0.950 . S
H580 C590 0.950 . S
H581 C592 0.950 . S
H582 C594 0.950 . S
H583 C595 0.950 . S
C584 H576 0.950 . S
C584 C585 1.386 . S
C584 C586 1.391 . S
C585 C584 1.386 . S
C585 C589 1.393 . S
C586 H578 0.950 . S
C586 C584 1.391 . S
C586 C587 1.400 . S
C587 C586 1.400 . S
C587 C588 1.398 . S
C587 C593 1.491 . S
C588 H579 0.950 . S
C588 C587 1.398 . S
C588 C589 1.391 . S
C589 H577 0.950 . S
C589 C585 1.393 . S
C589 C588 1.391 . S
C590 H580 0.950 . S
C590 C591 1.386 . S
C590 C592 1.391 . S
C591 C590 1.386 . S
C591 C595 1.393 . S
C592 H581 0.950 . S
C592 C590 1.391 . S
C592 C593 1.400 . S
C593 C587 1.491 . S
C593 C592 1.400 . S
C593 C594 1.398 . S
C594 H582 0.950 . S
C594 C593 1.398 . S
C594 C595 1.391 . S
C595 H583 0.950 . S
C595 C591 1.393 . S
C595 C594 1.391 . S
H596 C604 0.950 . S
H597 C609 0.950 . S
H598 C606 0.950 . S
H599 C608 0.950 . S
H600 C610 0.950 . S
H601 C612 0.950 . S
H602 C614 0.950 . S
H603 C615 0.950 . S
C604 H596 0.950 . S
C604 C605 1.386 . S
C604 C606 1.391 . S
C605 C604 1.386 . S
C605 C609 1.393 . S
C606 H598 0.950 . S
C606 C604 1.391 . S
C606 C607 1.400 . S
C607 C606 1.400 . S
C607 C608 1.398 . S
C607 C613 1.491 1_556 S
C608 H599 0.950 . S
C608 C607 1.398 . S
C608 C609 1.391 . S
C609 H597 0.950 . S
C609 C605 1.393 . S
C609 C608 1.391 . S
C610 H600 0.950 . S
C610 C611 1.386 . S
C610 C612 1.391 . S
C611 C610 1.386 . S
C611 C615 1.393 . S
C612 H601 0.950 . S
C612 C610 1.391 . S
C612 C613 1.400 . S
C613 C607 1.491 1_554 S
C613 C612 1.400 . S
C613 C614 1.398 . S
C614 H602 0.950 . S
C614 C613 1.398 . S
C614 C615 1.391 . S
C615 H603 0.950 . S
C615 C611 1.393 . S
C615 C614 1.391 . S
H616 C624 0.950 . S
H617 C629 0.950 . S
H618 C626 0.950 . S
H619 C628 0.950 . S
H620 C630 0.950 . S
H621 C632 0.950 . S
H622 C634 0.950 . S
H623 C635 0.950 . S
C624 H616 0.950 . S
C624 C625 1.386 . S
C624 C626 1.391 . S
C625 C624 1.386 . S
C625 C629 1.393 . S
C626 H618 0.950 . S
C626 C624 1.391 . S
C626 C627 1.400 . S
C627 C626 1.400 . S
C627 C628 1.398 . S
C627 C633 1.491 . S
C628 H619 0.950 . S
C628 C627 1.398 . S
C628 C629 1.391 . S
C629 H617 0.950 . S
C629 C625 1.393 . S
C629 C628 1.391 . S
C630 H620 0.950 . S
C630 C631 1.386 . S
C630 C632 1.391 . S
C631 C630 1.386 . S
C631 C635 1.393 . S
C632 H621 0.950 . S
C632 C630 1.391 . S
C632 C633 1.400 . S
C633 C627 1.491 . S
C633 C632 1.400 . S
C633 C634 1.398 . S
C634 H622 0.950 . S
C634 C633 1.398 . S
C634 C635 1.391 . S
C635 H623 0.950 . S
C635 C631 1.393 . S
C635 C634 1.391 . S
H636 C644 0.950 . S
H637 C649 0.950 . S
H638 C646 0.950 . S
H639 C648 0.950 . S
H640 C650 0.950 . S
H641 C652 0.950 . S
H642 C654 0.950 . S
H643 C655 0.950 . S
C644 H636 0.950 . S
C644 C645 1.386 . S
C644 C646 1.391 . S
C645 C644 1.386 . S
C645 C649 1.393 . S
C646 H638 0.950 . S
C646 C644 1.391 . S
C646 C647 1.400 . S
C647 C646 1.400 . S
C647 C648 1.398 . S
C647 C653 1.491 . S
C648 H639 0.950 . S
C648 C647 1.398 . S
C648 C649 1.391 . S
C649 H637 0.950 . S
C649 C645 1.393 . S
C649 C648 1.391 . S
C650 H640 0.950 . S
C650 C651 1.386 . S
C650 C652 1.391 . S
C651 C650 1.386 . S
C651 C655 1.393 . S
C652 H641 0.950 . S
C652 C650 1.391 . S
C652 C653 1.400 . S
C653 C647 1.491 . S
C653 C652 1.400 . S
C653 C654 1.398 . S
C654 H642 0.950 . S
C654 C653 1.398 . S
C654 C655 1.391 . S
C655 H643 0.950 . S
C655 C651 1.393 . S
C655 C654 1.391 . S
H656 C664 0.950 . S
H657 C669 0.950 . S
H658 C666 0.950 . S
H659 C668 0.950 . S
H660 C670 0.950 . S
H661 C672 0.950 . S
H662 C674 0.950 . S
H663 C675 0.950 . S
C664 H656 0.950 . S
C664 C665 1.386 . S
C664 C666 1.391 . S
C665 C664 1.386 . S
C665 C669 1.393 . S
C666 H658 0.950 . S
C666 C664 1.391 . S
C666 C667 1.400 . S
C667 C666 1.400 . S
C667 C668 1.398 . S
C667 C673 1.491 . S
C668 H659 0.950 . S
C668 C667 1.398 . S
C668 C669 1.391 . S
C669 H657 0.950 . S
C669 C665 1.393 . S
C669 C668 1.391 . S
C670 H660 0.950 . S
C670 C671 1.386 . S
C670 C672 1.391 . S
C671 C670 1.386 . S
C671 C675 1.393 . S
C672 H661 0.950 . S
C672 C670 1.391 . S
C672 C673 1.400 . S
C673 C667 1.491 . S
C673 C672 1.400 . S
C673 C674 1.398 . S
C674 H662 0.950 . S
C674 C673 1.398 . S
C674 C675 1.391 . S
C675 H663 0.950 . S
C675 C671 1.393 . S
C675 C674 1.391 . S
H676 C684 0.950 . S
H677 C689 0.950 . S
H678 C686 0.950 . S
H679 C688 0.964 . S
H680 C690 0.950 . S
H681 C692 0.950 . S
H682 C694 0.964 . S
H683 C695 0.950 . S
C684 H676 0.950 . S
C684 C685 1.386 . S
C684 C686 1.391 . S
C685 C684 1.386 . S
C685 C689 1.393 . S
C686 H678 0.950 . S
C686 C684 1.391 . S
C686 C687 1.400 . S
C687 C686 1.400 . S
C687 C688 1.398 . S
C687 C693 1.491 1_554 S
C688 H679 0.964 . S
C688 C687 1.398 . S
C688 C689 1.391 . S
C689 H677 0.950 . S
C689 C685 1.393 . S
C689 C688 1.391 . S
C690 H680 0.950 . S
C690 C691 1.386 . S
C690 C692 1.391 . S
C691 C690 1.386 . S
C691 C695 1.393 . S
C692 H681 0.950 . S
C692 C690 1.391 . S
C692 C693 1.400 . S
C693 C687 1.491 1_556 S
C693 C692 1.400 . S
C693 C694 1.398 . S
C694 H682 0.964 . S
C694 C693 1.398 . S
C694 C695 1.391 . S
C695 H683 0.950 . S
C695 C691 1.393 . S
C695 C694 1.391 . S
H696 C704 0.950 . S
H697 C709 0.950 . S
H698 C706 0.950 . S
H699 C708 0.950 . S
H700 C710 0.950 . S
H701 C712 0.950 . S
H702 C714 0.950 . S
H703 C715 0.950 . S
C704 H696 0.950 . S
C704 C705 1.386 . S
C704 C706 1.391 . S
C705 C704 1.386 . S
C705 C709 1.393 . S
C706 H698 0.950 . S
C706 C704 1.391 . S
C706 C707 1.400 . S
C707 C706 1.400 . S
C707 C708 1.398 . S
C707 C713 1.491 . S
C708 H699 0.950 . S
C708 C707 1.398 . S
C708 C709 1.391 . S
C709 H697 0.950 . S
C709 C705 1.393 . S
C709 C708 1.391 . S
C710 H700 0.950 . S
C710 C711 1.386 . S
C710 C712 1.391 . S
C711 C710 1.386 . S
C711 C715 1.393 . S
C712 H701 0.950 . S
C712 C710 1.391 . S
C712 C713 1.400 . S
C713 C707 1.491 . S
C713 C712 1.400 . S
C713 C714 1.398 . S
C714 H702 0.950 . S
C714 C713 1.398 . S
C714 C715 1.391 . S
C715 H703 0.950 . S
C715 C711 1.393 . S
C715 C714 1.391 . S
H716 C724 0.950 . S
H717 C729 0.950 . S
H718 C726 0.950 . S
H719 C728 0.950 . S
H720 C730 0.950 . S
H721 C732 0.950 . S
H722 C734 0.950 . S
H723 C735 0.950 . S
C724 H716 0.950 . S
C724 C725 1.386 . S
C724 C726 1.391 . S
C725 C724 1.386 . S
C725 C729 1.393 . S
C726 H718 0.950 . S
C726 C724 1.391 . S
C726 C727 1.400 . S
C727 C726 1.400 . S
C727 C728 1.398 . S
C727 C733 1.491 . S
C728 H719 0.950 . S
C728 C727 1.398 . S
C728 C729 1.391 . S
C729 H717 0.950 . S
C729 C725 1.393 . S
C729 C728 1.391 . S
C730 H720 0.950 . S
C730 C731 1.386 . S
C730 C732 1.391 . S
C731 C730 1.386 . S
C731 C735 1.393 . S
C732 H721 0.950 . S
C732 C730 1.391 . S
C732 C733 1.400 . S
C733 C727 1.491 . S
C733 C732 1.400 . S
C733 C734 1.398 . S
C734 H722 0.950 . S
C734 C733 1.398 . S
C734 C735 1.391 . S
C735 H723 0.950 . S
C735 C731 1.393 . S
C735 C734 1.391 . S
H736 C744 0.950 . S
H737 C749 0.950 . S
H738 C746 0.950 . S
H739 C748 0.950 . S
H740 C750 0.950 . S
H741 C752 0.950 . S
H742 C754 0.950 . S
H743 C755 0.950 . S
C744 H736 0.950 . S
C744 C745 1.386 . S
C744 C746 1.391 . S
C745 C744 1.386 . S
C745 C749 1.393 . S
C746 H738 0.950 . S
C746 C744 1.391 . S
C746 C747 1.400 . S
C747 C746 1.400 . S
C747 C748 1.398 . S
C747 C753 1.491 . S
C748 H739 0.950 . S
C748 C747 1.398 . S
C748 C749 1.391 . S
C749 H737 0.950 . S
C749 C745 1.393 . S
C749 C748 1.391 . S
C750 H740 0.950 . S
C750 C751 1.386 . S
C750 C752 1.391 . S
C751 C750 1.386 . S
C751 C755 1.393 . S
C752 H741 0.950 . S
C752 C750 1.391 . S
C752 C753 1.400 . S
C753 C747 1.491 . S
C753 C752 1.400 . S
C753 C754 1.398 . S
C754 H742 0.950 . S
C754 C753 1.398 . S
C754 C755 1.391 . S
C755 H743 0.950 . S
C755 C751 1.393 . S
C755 C754 1.391 . S
H756 C764 0.950 . S
H757 C769 0.950 . S
H758 C766 0.927 1_455 S
H759 C768 0.950 1_455 S
H760 C770 0.950 . S
H761 C772 0.950 . S
H762 C774 0.950 . S
H763 C775 0.950 . S
C764 H756 0.950 . S
C764 C765 1.386 . S
C764 C766 1.436 . S
C765 C764 1.386 . S
C765 C769 1.393 . S
C766 H758 0.927 1_655 S
C766 C764 1.436 . S
C766 C767 1.379 1_655 S
C767 C766 1.379 1_455 S
C767 C768 1.398 1_455 S
C767 C773 1.491 . S
C768 H759 0.950 1_655 S
C768 C767 1.398 1_655 S
C768 C769 1.391 . S
C769 H757 0.950 . S
C769 C765 1.393 . S
C769 C768 1.391 . S
C770 H760 0.950 . S
C770 C771 1.386 . S
C770 C772 1.391 . S
C771 C770 1.386 . S
C771 C775 1.393 . S
C772 H761 0.950 . S
C772 C770 1.391 . S
C772 C773 1.400 . S
C773 C767 1.491 . S
C773 C772 1.400 . S
C773 C774 1.398 . S
C774 H762 0.950 . S
C774 C773 1.398 . S
C774 C775 1.391 . S
C775 H763 0.950 . S
C775 C771 1.393 . S
C775 C774 1.391 . S
H776 C784 0.950 . S
H777 C789 0.950 . S
H778 C786 0.950 . S
H779 C788 0.950 . S
H780 C790 0.950 . S
H781 C792 0.950 . S
H782 C794 0.950 . S
H783 C795 0.950 . S
C784 H776 0.950 . S
C784 C785 1.386 . S
C784 C786 1.391 . S
C785 C784 1.386 . S
C785 C789 1.393 . S
C786 H778 0.950 . S
C786 C784 1.391 . S
C786 C787 1.400 . S
C787 C786 1.400 . S
C787 C788 1.398 . S
C787 C793 1.491 . S
C788 H779 0.950 . S
C788 C787 1.398 . S
C788 C789 1.391 . S
C789 H777 0.950 . S
C789 C785 1.393 . S
C789 C788 1.391 . S
C790 H780 0.950 . S
C790 C791 1.386 . S
C790 C792 1.391 . S
C791 C790 1.386 . S
C791 C795 1.393 . S
C792 H781 0.950 . S
C792 C790 1.391 . S
C792 C793 1.400 . S
C793 C787 1.491 . S
C793 C792 1.400 . S
C793 C794 1.398 . S
C794 H782 0.950 . S
C794 C793 1.398 . S
C794 C795 1.391 . S
C795 H783 0.950 . S
C795 C791 1.393 . S
C795 C794 1.391 . S
H796 C804 0.950 . S
H797 C809 0.950 . S
H798 C806 0.950 . S
H799 C808 0.950 . S
H800 C810 0.950 . S
H801 C812 0.950 . S
H802 C814 0.950 . S
H803 C815 0.950 . S
C804 H796 0.950 . S
C804 C805 1.386 . S
C804 C806 1.391 . S
C805 C804 1.386 . S
C805 C809 1.393 . S
C806 H798 0.950 . S
C806 C804 1.391 . S
C806 C807 1.400 . S
C807 C806 1.400 . S
C807 C808 1.398 . S
C807 C813 1.491 . S
C808 H799 0.950 . S
C808 C807 1.398 . S
C808 C809 1.391 . S
C809 H797 0.950 . S
C809 C805 1.393 . S
C809 C808 1.391 . S
C810 H800 0.950 . S
C810 C811 1.386 . S
C810 C812 1.391 . S
C811 C810 1.386 . S
C811 C815 1.393 . S
C812 H801 0.950 . S
C812 C810 1.391 . S
C812 C813 1.400 . S
C813 C807 1.491 . S
C813 C812 1.400 . S
C813 C814 1.398 . S
C814 H802 0.950 . S
C814 C813 1.398 . S
C814 C815 1.391 . S
C815 H803 0.950 . S
C815 C811 1.393 . S
C815 C814 1.391 . S
H816 C824 0.950 . S
H817 C829 0.950 . S
H818 C826 0.950 . S
H819 C828 0.950 . S
H820 C830 0.950 . S
H821 C832 0.950 . S
H822 C834 0.950 . S
H823 C835 0.950 . S
C824 H816 0.950 . S
C824 C825 1.386 . S
C824 C826 1.391 . S
C825 C824 1.386 . S
C825 C829 1.393 . S
C826 H818 0.950 . S
C826 C824 1.391 . S
C826 C827 1.400 . S
C827 C826 1.400 . S
C827 C828 1.398 . S
C827 C833 1.491 . S
C828 H819 0.950 . S
C828 C827 1.398 . S
C828 C829 1.391 . S
C829 H817 0.950 . S
C829 C825 1.393 . S
C829 C828 1.391 . S
C830 H820 0.950 . S
C830 C831 1.386 . S
C830 C832 1.391 . S
C831 C830 1.386 . S
C831 C835 1.393 . S
C832 H821 0.950 . S
C832 C830 1.391 . S
C832 C833 1.400 . S
C833 C827 1.491 . S
C833 C832 1.400 . S
C833 C834 1.398 . S
C834 H822 0.950 . S
C834 C833 1.398 . S
C834 C835 1.391 . S
C835 H823 0.950 . S
C835 C831 1.393 . S
C835 C834 1.391 . S
H836 C844 0.950 . S
H837 C849 0.950 . S
H838 C846 0.950 . S
H839 C848 0.950 . S
H840 C850 0.950 . S
H841 C852 0.950 . S
H842 C854 0.950 . S
H843 C855 0.950 . S
C844 H836 0.950 . S
C844 C845 1.386 . S
C844 C846 1.391 . S
C845 C844 1.386 . S
C845 C849 1.393 . S
C846 H838 0.950 . S
C846 C844 1.391 . S
C846 C847 1.400 . S
C847 C846 1.400 . S
C847 C848 1.398 . S
C847 C853 1.491 . S
C848 H839 0.950 . S
C848 C847 1.398 . S
C848 C849 1.391 . S
C849 H837 0.950 . S
C849 C845 1.393 . S
C849 C848 1.391 . S
C850 H840 0.950 . S
C850 C851 1.386 . S
C850 C852 1.391 . S
C851 C850 1.386 . S
C851 C855 1.393 . S
C852 H841 0.950 . S
C852 C850 1.391 . S
C852 C853 1.400 . S
C853 C847 1.491 . S
C853 C852 1.400 . S
C853 C854 1.398 . S
C854 H842 0.950 . S
C854 C853 1.398 . S
C854 C855 1.391 . S
C855 H843 0.950 . S
C855 C851 1.393 . S
C855 C854 1.391 . S
H856 C864 0.950 . S
H857 C869 0.950 . S
H858 C866 0.950 . S
H859 C868 0.950 . S
H860 C870 0.950 . S
H861 C872 0.950 . S
H862 C874 0.950 . S
H863 C875 0.950 . S
C864 H856 0.950 . S
C864 C865 1.386 . S
C864 C866 1.391 . S
C865 C864 1.386 . S
C865 C869 1.393 . S
C866 H858 0.950 . S
C866 C864 1.391 . S
C866 C867 1.400 . S
C867 C866 1.400 . S
C867 C868 1.398 . S
C867 C873 1.491 . S
C868 H859 0.950 . S
C868 C867 1.398 . S
C868 C869 1.391 . S
C869 H857 0.950 . S
C869 C865 1.393 . S
C869 C868 1.391 . S
C870 H860 0.950 . S
C870 C871 1.386 . S
C870 C872 1.391 . S
C871 C870 1.386 . S
C871 C875 1.393 . S
C872 H861 0.950 . S
C872 C870 1.391 . S
C872 C873 1.400 . S
C873 C867 1.491 . S
C873 C872 1.400 . S
C873 C874 1.398 . S
C874 H862 0.950 . S
C874 C873 1.398 . S
C874 C875 1.391 . S
C875 H863 0.950 . S
C875 C871 1.393 . S
C875 C874 1.391 . S
H876 C884 0.950 . S
H877 C889 0.950 . S
H878 C886 0.950 . S
H879 C888 0.950 . S
H880 C890 0.950 . S
H881 C892 0.950 1_455 S
H882 C894 0.950 1_455 S
H883 C895 0.950 . S
C884 H876 0.950 . S
C884 C885 1.386 . S
C884 C886 1.391 . S
C885 C884 1.386 . S
C885 C889 1.393 . S
C886 H878 0.950 . S
C886 C884 1.391 . S
C886 C887 1.400 . S
C887 C886 1.400 . S
C887 C888 1.398 . S
C887 C893 1.491 . S
C888 H879 0.950 . S
C888 C887 1.398 . S
C888 C889 1.391 . S
C889 H877 0.950 . S
C889 C885 1.393 . S
C889 C888 1.391 . S
C890 H880 0.950 . S
C890 C891 1.386 . S
C890 C892 1.391 . S
C891 C890 1.386 . S
C891 C895 1.393 . S
C892 H881 0.950 1_655 S
C892 C890 1.391 . S
C892 C893 1.400 1_655 S
C893 C887 1.491 . S
C893 C892 1.400 1_455 S
C893 C894 1.398 1_455 S
C894 H882 0.950 1_655 S
C894 C893 1.398 1_655 S
C894 C895 1.391 . S
C895 H883 0.950 . S
C895 C891 1.393 . S
C895 C894 1.391 . S
H896 C904 0.950 . S
H897 C909 0.950 . S
H898 C906 0.950 . S
H899 C908 0.950 . S
H900 C910 0.950 . S
H901 C912 0.950 . S
H902 C914 0.950 . S
H903 C915 0.950 . S
C904 H896 0.950 . S
C904 C905 1.386 . S
C904 C906 1.391 . S
C905 C904 1.386 . S
C905 C909 1.393 . S
C906 H898 0.950 . S
C906 C904 1.391 . S
C906 C907 1.400 . S
C907 C906 1.400 . S
C907 C908 1.398 . S
C907 C913 1.491 . S
C908 H899 0.950 . S
C908 C907 1.398 . S
C908 C909 1.391 . S
C909 H897 0.950 . S
C909 C905 1.393 . S
C909 C908 1.391 . S
C910 H900 0.950 . S
C910 C911 1.386 . S
C910 C912 1.391 . S
C911 C910 1.386 . S
C911 C915 1.393 . S
C912 H901 0.950 . S
C912 C910 1.391 . S
C912 C913 1.400 . S
C913 C907 1.491 . S
C913 C912 1.400 . S
C913 C914 1.398 . S
C914 H902 0.950 . S
C914 C913 1.398 . S
C914 C915 1.391 . S
C915 H903 0.950 . S
C915 C911 1.393 . S
C915 C914 1.391 . S
H916 C924 0.950 . S
H917 C929 0.950 . S
H918 C926 0.950 . S
H919 C928 0.950 . S
H920 C930 0.950 . S
H921 C932 0.950 1_655 S
H922 C934 0.953 1_655 S
H923 C935 0.950 . S
C924 H916 0.950 . S
C924 C925 1.386 . S
C924 C926 1.391 . S
C925 C924 1.386 . S
C925 C929 1.393 . S
C926 H918 0.950 . S
C926 C924 1.391 . S
C926 C927 1.400 . S
C927 C926 1.400 . S
C927 C928 1.398 . S
C927 C933 1.491 . S
C928 H919 0.950 . S
C928 C927 1.398 . S
C928 C929 1.391 . S
C929 H917 0.950 . S
C929 C925 1.393 . S
C929 C928 1.391 . S
C930 H920 0.950 . S
C930 C931 1.386 . S
C930 C932 1.391 . S
C931 C930 1.386 . S
C931 C935 1.393 . S
C932 H921 0.950 1_455 S
C932 C930 1.391 . S
C932 C933 1.400 1_455 S
C933 C927 1.491 . S
C933 C932 1.400 1_655 S
C933 C934 1.401 1_655 S
C934 H922 0.953 1_455 S
C934 C933 1.401 1_455 S
C934 C935 1.386 . S
C935 H923 0.950 . S
C935 C931 1.393 . S
C935 C934 1.386 . S
H936 C944 0.950 . S
H937 C949 0.950 . S
H938 C946 0.950 . S
H939 C948 0.950 . S
H940 C950 0.950 . S
H941 C952 0.950 . S
H942 C954 0.950 . S
H943 C955 0.950 . S
C944 H936 0.950 . S
C944 C945 1.386 . S
C944 C946 1.391 . S
C945 C944 1.386 . S
C945 C949 1.393 . S
C946 H938 0.950 . S
C946 C944 1.391 . S
C946 C947 1.400 . S
C947 C946 1.400 . S
C947 C948 1.398 . S
C947 C953 1.491 . S
C948 H939 0.950 . S
C948 C947 1.398 . S
C948 C949 1.391 . S
C949 H937 0.950 . S
C949 C945 1.393 . S
C949 C948 1.391 . S
C950 H940 0.950 . S
C950 C951 1.386 . S
C950 C952 1.391 . S
C951 C950 1.386 . S
C951 C955 1.393 . S
C952 H941 0.950 . S
C952 C950 1.391 . S
C952 C953 1.400 . S
C953 C947 1.491 . S
C953 C952 1.400 . S
C953 C954 1.398 . S
C954 H942 0.950 . S
C954 C953 1.398 . S
C954 C955 1.391 . S
C955 H943 0.950 . S
C955 C951 1.393 . S
C955 C954 1.391 . S
H956 C964 0.950 . S
H957 C969 0.950 . S
H958 C966 0.950 . S
H959 C968 0.950 . S
H960 C970 0.950 . S
H961 C972 0.950 . S
H962 C974 0.950 . S
H963 C975 0.950 . S
C964 H956 0.950 . S
C964 C965 1.386 . S
C964 C966 1.391 . S
C965 C964 1.386 . S
C965 C969 1.393 . S
C966 H958 0.950 . S
C966 C964 1.391 . S
C966 C967 1.400 . S
C967 C966 1.400 . S
C967 C968 1.398 . S
C967 C973 1.491 . S
C968 H959 0.950 . S
C968 C967 1.398 . S
C968 C969 1.391 . S
C969 H957 0.950 . S
C969 C965 1.393 . S
C969 C968 1.391 . S
C970 H960 0.950 . S
C970 C971 1.386 . S
C970 C972 1.391 . S
C971 C970 1.386 . S
C971 C975 1.393 . S
C972 H961 0.950 . S
C972 C970 1.391 . S
C972 C973 1.400 . S
C973 C967 1.491 . S
C973 C972 1.400 . S
C973 C974 1.398 . S
C974 H962 0.950 . S
C974 C973 1.398 . S
C974 C975 1.391 . S
C975 H963 0.950 . S
C975 C971 1.393 . S
C975 C974 1.391 . S
H976 C984 0.950 . S
H977 C989 0.950 . S
H978 C986 0.950 . S
H979 C988 0.950 . S
H980 C990 0.950 . S
H981 C992 0.950 . S
H982 C994 0.950 . S
H983 C995 0.950 . S
C984 H976 0.950 . S
C984 C985 1.386 . S
C984 C986 1.391 . S
C985 C984 1.386 . S
C985 C989 1.393 . S
C986 H978 0.950 . S
C986 C984 1.391 . S
C986 C987 1.400 . S
C987 C986 1.400 . S
C987 C988 1.398 . S
C987 C993 1.491 . S
C988 H979 0.950 . S
C988 C987 1.398 . S
C988 C989 1.391 . S
C989 H977 0.950 . S
C989 C985 1.393 . S
C989 C988 1.391 . S
C990 H980 0.950 . S
C990 C991 1.386 . S
C990 C992 1.391 . S
C991 C990 1.386 . S
C991 C995 1.393 . S
C992 H981 0.950 . S
C992 C990 1.391 . S
C992 C993 1.400 . S
C993 C987 1.491 . S
C993 C992 1.400 . S
C993 C994 1.398 . S
C994 H982 0.950 . S
C994 C993 1.398 . S
C994 C995 1.391 . S
C995 H983 0.950 . S
C995 C991 1.393 . S
C995 C994 1.391 . S
H996 C1004 0.950 . S
H997 C1009 0.950 . S
H998 C1006 0.950 . S
H999 C1008 0.950 . S
H1000 C1010 0.950 . S
H1001 C1012 0.950 . S
H1002 C1014 0.950 . S
H1003 C1015 0.950 . S
C1004 H996 0.950 . S
C1004 C1005 1.386 . S
C1004 C1006 1.391 . S
C1005 C1004 1.386 . S
C1005 C1009 1.393 . S
C1006 H998 0.950 . S
C1006 C1004 1.391 . S
C1006 C1007 1.400 . S
C1007 C1006 1.400 . S
C1007 C1008 1.398 . S
C1007 C1013 1.491 . S
C1008 H999 0.950 . S
C1008 C1007 1.398 . S
C1008 C1009 1.391 . S
C1009 H997 0.950 . S
C1009 C1005 1.393 . S
C1009 C1008 1.391 . S
C1010 H1000 0.950 . S
C1010 C1011 1.386 . S
C1010 C1012 1.391 . S
C1011 C1010 1.386 . S
C1011 C1015 1.393 . S
C1012 H1001 0.950 . S
C1012 C1010 1.391 . S
C1012 C1013 1.400 . S
C1013 C1007 1.491 . S
C1013 C1012 1.400 . S
C1013 C1014 1.398 . S
C1014 H1002 0.950 . S
C1014 C1013 1.398 . S
C1014 C1015 1.391 . S
C1015 H1003 0.950 . S
C1015 C1011 1.393 . S
C1015 C1014 1.391 . S
H1016 C1024 0.950 . S
H1017 C1029 0.950 . S
H1018 C1026 0.950 . S
H1019 C1028 0.950 . S
H1020 C1030 0.950 . S
H1021 C1032 0.950 . S
H1022 C1034 0.950 . S
H1023 C1035 0.950 . S
C1024 H1016 0.950 . S
C1024 C1025 1.386 . S
C1024 C1026 1.391 . S
C1025 C1024 1.386 . S
C1025 C1029 1.393 . S
C1026 H1018 0.950 . S
C1026 C1024 1.391 . S
C1026 C1027 1.400 . S
C1027 C1026 1.400 . S
C1027 C1028 1.398 . S
C1027 C1033 1.491 . S
C1028 H1019 0.950 . S
C1028 C1027 1.398 . S
C1028 C1029 1.391 . S
C1029 H1017 0.950 . S
C1029 C1025 1.393 . S
C1029 C1028 1.391 . S
C1030 H1020 0.950 . S
C1030 C1031 1.386 . S
C1030 C1032 1.391 . S
C1031 C1030 1.386 . S
C1031 C1035 1.393 . S
C1032 H1021 0.950 . S
C1032 C1030 1.391 . S
C1032 C1033 1.400 . S
C1033 C1027 1.491 . S
C1033 C1032 1.400 . S
C1033 C1034 1.398 . S
C1034 H1022 0.950 . S
C1034 C1033 1.398 . S
C1034 C1035 1.391 . S
C1035 H1023 0.950 . S
C1035 C1031 1.393 . S
C1035 C1034 1.391 . S
H1036 C1044 0.950 . S
H1037 C1049 0.950 . S
H1038 C1046 0.950 . S
H1039 C1048 0.950 . S
H1040 C1050 0.950 . S
H1041 C1052 0.975 . S
H1042 C1054 0.950 1_655 S
H1043 C1055 0.950 . S
C1044 H1036 0.950 . S
C1044 C1045 1.386 . S
C1044 C1046 1.391 . S
C1045 C1044 1.386 . S
C1045 C1049 1.393 . S
C1046 H1038 0.950 . S
C1046 C1044 1.391 . S
C1046 C1047 1.400 . S
C1047 C1046 1.400 . S
C1047 C1048 1.398 . S
C1047 C1053 1.491 . S
C1048 H1039 0.950 . S
C1048 C1047 1.398 . S
C1048 C1049 1.391 . S
C1049 H1037 0.950 . S
C1049 C1045 1.393 . S
C1049 C1048 1.391 . S
C1050 H1040 0.950 . S
C1050 C1051 1.386 . S
C1050 C1052 1.350 1_455 S
C1051 C1050 1.386 . S
C1051 C1055 1.393 . S
C1052 H1041 0.975 . S
C1052 C1050 1.350 1_655 S
C1052 C1053 1.418 . S
C1053 C1047 1.491 . S
C1053 C1052 1.418 . S
C1053 C1054 1.398 1_655 S
C1054 H1042 0.950 1_455 S
C1054 C1053 1.398 1_455 S
C1054 C1055 1.391 . S
C1055 H1043 0.950 . S
C1055 C1051 1.393 . S
C1055 C1054 1.391 . S
H1056 C1064 0.950 . S
H1057 C1069 0.950 . S
H1058 C1066 0.950 . S
H1059 C1068 0.950 . S
H1060 C1070 0.950 . S
H1061 C1072 0.950 . S
H1062 C1074 0.950 . S
H1063 C1075 0.950 . S
C1064 H1056 0.950 . S
C1064 C1065 1.386 . S
C1064 C1066 1.391 . S
C1065 C1064 1.386 . S
C1065 C1069 1.393 . S
C1066 H1058 0.950 . S
C1066 C1064 1.391 . S
C1066 C1067 1.400 . S
C1067 C1066 1.400 . S
C1067 C1068 1.398 . S
C1067 C1073 1.491 . S
C1068 H1059 0.950 . S
C1068 C1067 1.398 . S
C1068 C1069 1.391 . S
C1069 H1057 0.950 . S
C1069 C1065 1.393 . S
C1069 C1068 1.391 . S
C1070 H1060 0.950 . S
C1070 C1071 1.386 . S
C1070 C1072 1.391 . S
C1071 C1070 1.386 . S
C1071 C1075 1.393 . S
C1072 H1061 0.950 . S
C1072 C1070 1.391 . S
C1072 C1073 1.400 . S
C1073 C1067 1.491 . S
C1073 C1072 1.400 . S
C1073 C1074 1.398 . S
C1074 H1062 0.950 . S
C1074 C1073 1.398 . S
C1074 C1075 1.391 . S
C1075 H1063 0.950 . S
C1075 C1071 1.393 . S
C1075 C1074 1.391 . S
H1076 C1084 0.950 . S
H1077 C1089 0.950 . S
H1078 C1086 0.950 . S
H1079 C1088 0.950 . S
H1080 C1090 0.950 . S
H1081 C1092 0.950 . S
H1082 C1094 0.950 . S
H1083 C1095 0.950 . S
C1084 H1076 0.950 . S
C1084 C1085 1.386 . S
C1084 C1086 1.391 . S
C1085 C1084 1.386 . S
C1085 C1089 1.393 . S
C1086 H1078 0.950 . S
C1086 C1084 1.391 . S
C1086 C1087 1.400 . S
C1087 C1086 1.400 . S
C1087 C1088 1.398 . S
C1087 C1093 1.491 . S
C1088 H1079 0.950 . S
C1088 C1087 1.398 . S
C1088 C1089 1.391 . S
C1089 H1077 0.950 . S
C1089 C1085 1.393 . S
C1089 C1088 1.391 . S
C1090 H1080 0.950 . S
C1090 C1091 1.386 . S
C1090 C1092 1.391 . S
C1091 C1090 1.386 . S
C1091 C1095 1.393 . S
C1092 H1081 0.950 . S
C1092 C1090 1.391 . S
C1092 C1093 1.400 . S
C1093 C1087 1.491 . S
C1093 C1092 1.400 . S
C1093 C1094 1.398 . S
C1094 H1082 0.950 . S
C1094 C1093 1.398 . S
C1094 C1095 1.391 . S
C1095 H1083 0.950 . S
C1095 C1091 1.393 . S
C1095 C1094 1.391 . S
H1096 C1104 0.950 . S
H1097 C1109 0.950 . S
H1098 C1106 0.950 . S
H1099 C1108 0.950 . S
H1100 C1110 0.950 . S
H1101 C1112 0.950 . S
H1102 C1114 0.950 . S
H1103 C1115 0.950 . S
C1104 H1096 0.950 . S
C1104 C1105 1.386 . S
C1104 C1106 1.391 . S
C1105 C1104 1.386 . S
C1105 C1109 1.393 . S
C1106 H1098 0.950 . S
C1106 C1104 1.391 . S
C1106 C1107 1.400 . S
C1107 C1106 1.400 . S
C1107 C1108 1.398 . S
C1107 C1113 1.491 . S
C1108 H1099 0.950 . S
C1108 C1107 1.398 . S
C1108 C1109 1.391 . S
C1109 H1097 0.950 . S
C1109 C1105 1.393 . S
C1109 C1108 1.391 . S
C1110 H1100 0.950 . S
C1110 C1111 1.386 . S
C1110 C1112 1.391 . S
C1111 C1110 1.386 . S
C1111 C1115 1.393 . S
C1112 H1101 0.950 . S
C1112 C1110 1.391 . S
C1112 C1113 1.400 . S
C1113 C1107 1.491 . S
C1113 C1112 1.400 . S
C1113 C1114 1.398 . S
C1114 H1102 0.950 . S
C1114 C1113 1.398 . S
C1114 C1115 1.391 . S
C1115 H1103 0.950 . S
C1115 C1111 1.393 . S
C1115 C1114 1.391 . S
H1116 C1124 0.950 . S
H1117 C1129 0.950 . S
H1118 C1126 0.950 . S
H1119 C1128 0.950 . S
H1120 C1130 0.950 . S
H1121 C1132 0.947 1_655 S
H1122 C1134 0.950 . S
H1123 C1135 0.950 . S
C1124 H1116 0.950 . S
C1124 C1125 1.386 . S
C1124 C1126 1.391 . S
C1125 C1124 1.386 . S
C1125 C1129 1.393 . S
C1126 H1118 0.950 . S
C1126 C1124 1.391 . S
C1126 C1127 1.400 . S
C1127 C1126 1.400 . S
C1127 C1128 1.398 . S
C1127 C1133 1.491 . S
C1128 H1119 0.950 . S
C1128 C1127 1.398 . S
C1128 C1129 1.391 . S
C1129 H1117 0.950 . S
C1129 C1125 1.393 . S
C1129 C1128 1.391 . S
C1130 H1120 0.950 . S
C1130 C1131 1.386 . S
C1130 C1132 1.391 . S
C1131 C1130 1.386 . S
C1131 C1135 1.393 . S
C1132 H1121 0.947 1_455 S
C1132 C1130 1.391 . S
C1132 C1133 1.400 1_455 S
C1133 C1127 1.491 . S
C1133 C1132 1.400 1_655 S
C1133 C1134 1.398 . S
C1134 H1122 0.950 . S
C1134 C1133 1.398 . S
C1134 C1135 1.391 1_655 S
C1135 H1123 0.950 . S
C1135 C1131 1.393 . S
C1135 C1134 1.391 1_455 S
H1136 C1144 0.950 . S
H1137 C1149 0.950 . S
H1138 C1146 0.950 . S
H1139 C1148 0.950 . S
H1140 C1150 0.950 . S
H1141 C1152 0.950 . S
H1142 C1154 0.950 . S
H1143 C1155 0.950 . S
C1144 H1136 0.950 . S
C1144 C1145 1.386 . S
C1144 C1146 1.391 . S
C1145 C1144 1.386 . S
C1145 C1149 1.393 . S
C1146 H1138 0.950 . S
C1146 C1144 1.391 . S
C1146 C1147 1.400 . S
C1147 C1146 1.400 . S
C1147 C1148 1.398 . S
C1147 C1153 1.491 . S
C1148 H1139 0.950 . S
C1148 C1147 1.398 . S
C1148 C1149 1.391 . S
C1149 H1137 0.950 . S
C1149 C1145 1.393 . S
C1149 C1148 1.391 . S
C1150 H1140 0.950 . S
C1150 C1151 1.386 . S
C1150 C1152 1.391 . S
C1151 C1150 1.386 . S
C1151 C1155 1.393 . S
C1152 H1141 0.950 . S
C1152 C1150 1.391 . S
C1152 C1153 1.400 . S
C1153 C1147 1.491 . S
C1153 C1152 1.400 . S
C1153 C1154 1.398 . S
C1154 H1142 0.950 . S
C1154 C1153 1.398 . S
C1154 C1155 1.391 . S
C1155 H1143 0.950 . S
C1155 C1151 1.393 . S
C1155 C1154 1.391 . S
H1156 C1164 0.950 . S
H1157 C1169 0.950 . S
H1158 C1166 0.950 . S
H1159 C1168 0.934 1_655 S
H1160 C1170 0.950 . S
H1161 C1172 0.950 . S
H1162 C1174 0.950 . S
H1163 C1175 0.950 . S
C1164 H1156 0.950 . S
C1164 C1165 1.386 . S
C1164 C1166 1.391 1_455 S
C1165 C1164 1.386 . S
C1165 C1169 1.393 . S
C1166 H1158 0.950 . S
C1166 C1164 1.391 1_655 S
C1166 C1167 1.400 . S
C1167 C1166 1.400 . S
C1167 C1168 1.398 1_655 S
C1167 C1173 1.491 . S
C1168 H1159 0.934 1_455 S
C1168 C1167 1.398 1_455 S
C1168 C1169 1.391 . S
C1169 H1157 0.950 . S
C1169 C1165 1.393 . S
C1169 C1168 1.391 . S
C1170 H1160 0.950 . S
C1170 C1171 1.386 . S
C1170 C1172 1.391 . S
C1171 C1170 1.386 . S
C1171 C1175 1.393 . S
C1172 H1161 0.950 . S
C1172 C1170 1.391 . S
C1172 C1173 1.400 . S
C1173 C1167 1.491 . S
C1173 C1172 1.400 . S
C1173 C1174 1.398 . S
C1174 H1162 0.950 . S
C1174 C1173 1.398 . S
C1174 C1175 1.391 . S
C1175 H1163 0.950 . S
C1175 C1171 1.393 . S
C1175 C1174 1.391 . S
H1176 C1184 0.950 . S
H1177 C1189 0.950 . S
H1178 C1186 0.950 . S
H1179 C1188 0.950 . S
H1180 C1190 0.950 . S
H1181 C1192 0.950 . S
H1182 C1194 0.950 . S
H1183 C1195 0.950 . S
C1184 H1176 0.950 . S
C1184 C1185 1.386 . S
C1184 C1186 1.391 . S
C1185 C1184 1.386 . S
C1185 C1189 1.393 . S
C1186 H1178 0.950 . S
C1186 C1184 1.391 . S
C1186 C1187 1.400 . S
C1187 C1186 1.400 . S
C1187 C1188 1.398 . S
C1187 C1193 1.491 . S
C1188 H1179 0.950 . S
C1188 C1187 1.398 . S
C1188 C1189 1.391 . S
C1189 H1177 0.950 . S
C1189 C1185 1.393 . S
C1189 C1188 1.391 . S
C1190 H1180 0.950 . S
C1190 C1191 1.386 . S
C1190 C1192 1.391 . S
C1191 C1190 1.386 . S
C1191 C1195 1.393 . S
C1192 H1181 0.950 . S
C1192 C1190 1.391 . S
C1192 C1193 1.400 . S
C1193 C1187 1.491 . S
C1193 C1192 1.400 . S
C1193 C1194 1.398 . S
C1194 H1182 0.950 . S
C1194 C1193 1.398 . S
C1194 C1195 1.391 . S
C1195 H1183 0.950 . S
C1195 C1191 1.393 . S
C1195 C1194 1.391 . S
H1196 C1204 0.950 . S
H1197 C1209 0.950 . S
H1198 C1206 0.950 . S
H1199 C1208 0.950 . S
H1200 C1210 0.950 . S
H1201 C1212 0.950 . S
H1202 C1214 0.950 . S
H1203 C1215 0.950 . S
C1204 H1196 0.950 . S
C1204 C1205 1.386 . S
C1204 C1206 1.391 . S
C1205 C1204 1.386 . S
C1205 C1209 1.393 . S
C1206 H1198 0.950 . S
C1206 C1204 1.391 . S
C1206 C1207 1.400 . S
C1207 C1206 1.400 . S
C1207 C1208 1.398 . S
C1207 C1213 1.491 . S
C1208 H1199 0.950 . S
C1208 C1207 1.398 . S
C1208 C1209 1.391 . S
C1209 H1197 0.950 . S
C1209 C1205 1.393 . S
C1209 C1208 1.391 . S
C1210 H1200 0.950 . S
C1210 C1211 1.386 . S
C1210 C1212 1.391 . S
C1211 C1210 1.386 . S
C1211 C1215 1.393 . S
C1212 H1201 0.950 . S
C1212 C1210 1.391 . S
C1212 C1213 1.400 . S
C1213 C1207 1.491 . S
C1213 C1212 1.400 . S
C1213 C1214 1.398 . S
C1214 H1202 0.950 . S
C1214 C1213 1.398 . S
C1214 C1215 1.391 . S
C1215 H1203 0.950 . S
C1215 C1211 1.393 . S
C1215 C1214 1.391 . S
H1216 C1224 0.950 . S
H1217 C1229 0.950 . S
H1218 C1226 0.950 . S
H1219 C1228 0.950 . S
H1220 C1230 0.950 . S
H1221 C1232 0.950 . S
H1222 C1234 0.950 . S
H1223 C1235 0.950 . S
C1224 H1216 0.950 . S
C1224 C1225 1.386 . S
C1224 C1226 1.391 . S
C1225 C1224 1.386 . S
C1225 C1229 1.393 . S
C1226 H1218 0.950 . S
C1226 C1224 1.391 . S
C1226 C1227 1.400 . S
C1227 C1226 1.400 . S
C1227 C1228 1.398 . S
C1227 C1233 1.491 . S
C1228 H1219 0.950 . S
C1228 C1227 1.398 . S
C1228 C1229 1.391 . S
C1229 H1217 0.950 . S
C1229 C1225 1.393 . S
C1229 C1228 1.391 . S
C1230 H1220 0.950 . S
C1230 C1231 1.386 . S
C1230 C1232 1.391 . S
C1231 C1230 1.386 . S
C1231 C1235 1.393 . S
C1232 H1221 0.950 . S
C1232 C1230 1.391 . S
C1232 C1233 1.400 . S
C1233 C1227 1.491 . S
C1233 C1232 1.400 . S
C1233 C1234 1.398 . S
C1234 H1222 0.950 . S
C1234 C1233 1.398 . S
C1234 C1235 1.391 . S
C1235 H1223 0.950 . S
C1235 C1231 1.393 . S
C1235 C1234 1.391 . S
H1236 C1244 0.950 . S
H1237 C1249 0.950 . S
H1238 C1246 0.950 . S
H1239 C1248 0.950 . S
H1240 C1250 0.950 . S
H1241 C1252 0.950 . S
H1242 C1254 0.950 . S
H1243 C1255 0.950 . S
C1244 H1236 0.950 . S
C1244 C1245 1.386 . S
C1244 C1246 1.391 . S
C1245 C1244 1.386 . S
C1245 C1249 1.393 . S
C1246 H1238 0.950 . S
C1246 C1244 1.391 . S
C1246 C1247 1.400 . S
C1247 C1246 1.400 . S
C1247 C1248 1.398 . S
C1247 C1253 1.491 . S
C1248 H1239 0.950 . S
C1248 C1247 1.398 . S
C1248 C1249 1.391 . S
C1249 H1237 0.950 . S
C1249 C1245 1.393 . S
C1249 C1248 1.391 . S
C1250 H1240 0.950 . S
C1250 C1251 1.386 . S
C1250 C1252 1.391 . S
C1251 C1250 1.386 . S
C1251 C1255 1.393 . S
C1252 H1241 0.950 . S
C1252 C1250 1.391 . S
C1252 C1253 1.400 . S
C1253 C1247 1.491 . S
C1253 C1252 1.400 . S
C1253 C1254 1.398 . S
C1254 H1242 0.950 . S
C1254 C1253 1.398 . S
C1254 C1255 1.391 . S
C1255 H1243 0.950 . S
C1255 C1251 1.393 . S
C1255 C1254 1.391 . S
H1256 C1264 0.950 . S
H1257 C1269 0.950 . S
H1258 C1266 0.950 . S
H1259 C1268 0.950 . S
H1260 C1270 0.950 . S
H1261 C1272 0.950 . S
H1262 C1274 0.950 . S
H1263 C1275 0.950 . S
C1264 H1256 0.950 . S
C1264 C1265 1.386 . S
C1264 C1266 1.391 . S
C1265 C1264 1.386 . S
C1265 C1269 1.393 . S
C1266 H1258 0.950 . S
C1266 C1264 1.391 . S
C1266 C1267 1.400 . S
C1267 C1266 1.400 . S
C1267 C1268 1.398 . S
C1267 C1273 1.491 . S
C1268 H1259 0.950 . S
C1268 C1267 1.398 . S
C1268 C1269 1.391 . S
C1269 H1257 0.950 . S
C1269 C1265 1.393 . S
C1269 C1268 1.391 . S
C1270 H1260 0.950 . S
C1270 C1271 1.386 . S
C1270 C1272 1.391 . S
C1271 C1270 1.386 . S
C1271 C1275 1.393 . S
C1272 H1261 0.950 . S
C1272 C1270 1.391 . S
C1272 C1273 1.400 . S
C1273 C1267 1.491 . S
C1273 C1272 1.400 . S
C1273 C1274 1.398 . S
C1274 H1262 0.950 . S
C1274 C1273 1.398 . S
C1274 C1275 1.391 . S
C1275 H1263 0.950 . S
C1275 C1271 1.393 . S
C1275 C1274 1.391 . S
H1276 C1284 0.950 . S
H1277 C1289 0.950 . S
H1278 C1286 0.950 . S
H1279 C1288 0.950 . S
H1280 C1290 0.950 . S
H1281 C1292 0.933 1_455 S
H1282 C1294 0.950 . S
H1283 C1295 0.950 . S
C1284 H1276 0.950 . S
C1284 C1285 1.386 . S
C1284 C1286 1.391 . S
C1285 C1284 1.386 . S
C1285 C1289 1.393 . S
C1286 H1278 0.950 . S
C1286 C1284 1.391 . S
C1286 C1287 1.400 . S
C1287 C1286 1.400 . S
C1287 C1288 1.398 . S
C1287 C1293 1.491 . S
C1288 H1279 0.950 . S
C1288 C1287 1.398 . S
C1288 C1289 1.391 . S
C1289 H1277 0.950 . S
C1289 C1285 1.393 . S
C1289 C1288 1.391 . S
C1290 H1280 0.950 . S
C1290 C1291 1.386 . S
C1290 C1292 1.391 . S
C1291 C1290 1.386 . S
C1291 C1295 1.393 . S
C1292 H1281 0.933 1_655 S
C1292 C1290 1.391 . S
C1292 C1293 1.400 1_655 S
C1293 C1287 1.491 . S
C1293 C1292 1.400 1_455 S
C1293 C1294 1.398 . S
C1294 H1282 0.950 . S
C1294 C1293 1.398 . S
C1294 C1295 1.391 1_455 S
C1295 H1283 0.950 . S
C1295 C1291 1.393 . S
C1295 C1294 1.391 1_655 S
H1296 C1304 0.950 . S
H1297 C1309 0.950 . S
H1298 C1306 0.950 . S
H1299 C1308 0.950 . S
H1300 C1310 0.950 . S
H1301 C1312 0.950 . S
H1302 C1314 0.950 . S
H1303 C1315 0.950 . S
C1304 H1296 0.950 . S
C1304 C1305 1.386 . S
C1304 C1306 1.391 . S
C1305 C1304 1.386 . S
C1305 C1309 1.393 . S
C1306 H1298 0.950 . S
C1306 C1304 1.391 . S
C1306 C1307 1.400 . S
C1307 C1306 1.400 . S
C1307 C1308 1.398 . S
C1307 C1313 1.491 . S
C1308 H1299 0.950 . S
C1308 C1307 1.398 . S
C1308 C1309 1.391 . S
C1309 H1297 0.950 . S
C1309 C1305 1.393 . S
C1309 C1308 1.391 . S
C1310 H1300 0.950 . S
C1310 C1311 1.386 . S
C1310 C1312 1.391 . S
C1311 C1310 1.386 . S
C1311 C1315 1.393 . S
C1312 H1301 0.950 . S
C1312 C1310 1.391 . S
C1312 C1313 1.400 . S
C1313 C1307 1.491 . S
C1313 C1312 1.400 . S
C1313 C1314 1.398 . S
C1314 H1302 0.950 . S
C1314 C1313 1.398 . S
C1314 C1315 1.391 . S
C1315 H1303 0.950 . S
C1315 C1311 1.393 . S
C1315 C1314 1.391 . S
H1316 C1324 0.950 . S
H1317 C1329 0.950 . S
H1318 C1326 0.950 . S
H1319 C1328 0.950 1_455 S
H1320 C1330 0.950 . S
H1321 C1332 0.950 . S
H1322 C1334 0.950 . S
H1323 C1335 0.950 . S
C1324 H1316 0.950 . S
C1324 C1325 1.386 . S
C1324 C1326 1.391 1_655 S
C1325 C1324 1.386 . S
C1325 C1329 1.393 . S
C1326 H1318 0.950 . S
C1326 C1324 1.391 1_455 S
C1326 C1327 1.400 . S
C1327 C1326 1.400 . S
C1327 C1328 1.398 1_455 S
C1327 C1333 1.491 . S
C1328 H1319 0.950 1_655 S
C1328 C1327 1.398 1_655 S
C1328 C1329 1.391 . S
C1329 H1317 0.950 . S
C1329 C1325 1.393 . S
C1329 C1328 1.391 . S
C1330 H1320 0.950 . S
C1330 C1331 1.386 . S
C1330 C1332 1.391 . S
C1331 C1330 1.386 . S
C1331 C1335 1.393 . S
C1332 H1321 0.950 . S
C1332 C1330 1.391 . S
C1332 C1333 1.400 . S
C1333 C1327 1.491 . S
C1333 C1332 1.400 . S
C1333 C1334 1.398 . S
C1334 H1322 0.950 . S
C1334 C1333 1.398 . S
C1334 C1335 1.391 . S
C1335 H1323 0.950 . S
C1335 C1331 1.393 . S
C1335 C1334 1.391 . S
H1336 C1344 0.950 . S
H1337 C1349 0.950 . S
H1338 C1346 0.950 . S
H1339 C1348 0.950 . S
H1340 C1350 0.950 . S
H1341 C1352 0.950 . S
H1342 C1354 0.950 . S
H1343 C1355 0.950 . S
C1344 H1336 0.950 . S
C1344 C1345 1.386 . S
C1344 C1346 1.391 . S
C1345 C1344 1.386 . S
C1345 C1349 1.393 . S
C1346 H1338 0.950 . S
C1346 C1344 1.391 . S
C1346 C1347 1.400 . S
C1347 C1346 1.400 . S
C1347 C1348 1.398 . S
C1347 C1353 1.491 . S
C1348 H1339 0.950 . S
C1348 C1347 1.398 . S
C1348 C1349 1.391 . S
C1349 H1337 0.950 . S
C1349 C1345 1.393 . S
C1349 C1348 1.391 . S
C1350 H1340 0.950 . S
C1350 C1351 1.386 . S
C1350 C1352 1.391 . S
C1351 C1350 1.386 . S
C1351 C1355 1.393 . S
C1352 H1341 0.950 . S
C1352 C1350 1.391 . S
C1352 C1353 1.400 . S
C1353 C1347 1.491 . S
C1353 C1352 1.400 . S
C1353 C1354 1.398 . S
C1354 H1342 0.950 . S
C1354 C1353 1.398 . S
C1354 C1355 1.391 . S
C1355 H1343 0.950 . S
C1355 C1351 1.393 . S
C1355 C1354 1.391 . S
H1356 C1364 0.950 . S
H1357 C1369 0.950 . S
H1358 C1366 0.950 . S
H1359 C1368 0.950 . S
H1360 C1370 0.950 . S
H1361 C1372 0.950 . S
H1362 C1374 0.950 . S
H1363 C1375 0.950 . S
C1364 H1356 0.950 . S
C1364 C1365 1.386 . S
C1364 C1366 1.391 . S
C1365 C1364 1.386 . S
C1365 C1369 1.393 . S
C1366 H1358 0.950 . S
C1366 C1364 1.391 . S
C1366 C1367 1.400 . S
C1367 C1366 1.400 . S
C1367 C1368 1.398 . S
C1367 C1373 1.491 . S
C1368 H1359 0.950 . S
C1368 C1367 1.398 . S
C1368 C1369 1.391 . S
C1369 H1357 0.950 . S
C1369 C1365 1.393 . S
C1369 C1368 1.391 . S
C1370 H1360 0.950 . S
C1370 C1371 1.386 . S
C1370 C1372 1.391 . S
C1371 C1370 1.386 . S
C1371 C1375 1.393 . S
C1372 H1361 0.950 . S
C1372 C1370 1.391 . S
C1372 C1373 1.400 . S
C1373 C1367 1.491 . S
C1373 C1372 1.400 . S
C1373 C1374 1.398 . S
C1374 H1362 0.950 . S
C1374 C1373 1.398 . S
C1374 C1375 1.391 . S
C1375 H1363 0.950 . S
C1375 C1371 1.393 . S
C1375 C1374 1.391 . S
H1376 C1384 0.950 . S
H1377 C1389 0.950 . S
H1378 C1386 0.950 . S
H1379 C1388 0.950 . S
H1380 C1390 0.950 . S
H1381 C1392 0.950 . S
H1382 C1394 0.950 . S
H1383 C1395 0.950 . S
C1384 H1376 0.950 . S
C1384 C1385 1.386 . S
C1384 C1386 1.391 . S
C1385 C1384 1.386 . S
C1385 C1389 1.393 . S
C1386 H1378 0.950 . S
C1386 C1384 1.391 . S
C1386 C1387 1.400 . S
C1387 C1386 1.400 . S
C1387 C1388 1.398 . S
C1387 C1393 1.491 . S
C1388 H1379 0.950 . S
C1388 C1387 1.398 . S
C1388 C1389 1.391 . S
C1389 H1377 0.950 . S
C1389 C1385 1.393 . S
C1389 C1388 1.391 . S
C1390 H1380 0.950 . S
C1390 C1391 1.386 . S
C1390 C1392 1.391 . S
C1391 C1390 1.386 . S
C1391 C1395 1.393 . S
C1392 H1381 0.950 . S
C1392 C1390 1.391 . S
C1392 C1393 1.400 . S
C1393 C1387 1.491 . S
C1393 C1392 1.400 . S
C1393 C1394 1.398 . S
C1394 H1382 0.950 . S
C1394 C1393 1.398 . S
C1394 C1395 1.391 . S
C1395 H1383 0.950 . S
C1395 C1391 1.393 . S
C1395 C1394 1.391 . S
H1396 C1404 0.950 . S
H1397 C1409 0.950 . S
H1398 C1406 0.950 . S
H1399 C1408 0.950 . S
H1400 C1410 0.950 . S
H1401 C1412 0.950 . S
H1402 C1414 0.950 . S
H1403 C1415 0.950 . S
C1404 H1396 0.950 . S
C1404 C1405 1.386 . S
C1404 C1406 1.391 . S
C1405 C1404 1.386 . S
C1405 C1409 1.393 . S
C1406 H1398 0.950 . S
C1406 C1404 1.391 . S
C1406 C1407 1.400 . S
C1407 C1406 1.400 . S
C1407 C1408 1.398 . S
C1407 C1413 1.491 . S
C1408 H1399 0.950 . S
C1408 C1407 1.398 . S
C1408 C1409 1.391 . S
C1409 H1397 0.950 . S
C1409 C1405 1.393 . S
C1409 C1408 1.391 . S
C1410 H1400 0.950 . S
C1410 C1411 1.386 . S
C1410 C1412 1.391 . S
C1411 C1410 1.386 . S
C1411 C1415 1.393 . S
C1412 H1401 0.950 . S
C1412 C1410 1.391 . S
C1412 C1413 1.400 . S
C1413 C1407 1.491 . S
C1413 C1412 1.400 . S
C1413 C1414 1.398 . S
C1414 H1402 0.950 . S
C1414 C1413 1.398 . S
C1414 C1415 1.391 . S
C1415 H1403 0.950 . S
C1415 C1411 1.393 . S
C1415 C1414 1.391 . S
H1416 C1424 0.950 . S
H1417 C1429 0.950 . S
H1418 C1426 0.950 . S
H1419 C1428 0.950 . S
H1420 C1430 0.950 . S
H1421 C1432 0.950 . S
H1422 C1434 0.950 . S
H1423 C1435 0.950 . S
C1424 H1416 0.950 . S
C1424 C1425 1.386 . S
C1424 C1426 1.391 . S
C1425 C1424 1.386 . S
C1425 C1429 1.393 . S
C1426 H1418 0.950 . S
C1426 C1424 1.391 . S
C1426 C1427 1.400 . S
C1427 C1426 1.400 . S
C1427 C1428 1.398 . S
C1427 C1433 1.491 . S
C1428 H1419 0.950 . S
C1428 C1427 1.398 . S
C1428 C1429 1.391 . S
C1429 H1417 0.950 . S
C1429 C1425 1.393 . S
C1429 C1428 1.391 . S
C1430 H1420 0.950 . S
C1430 C1431 1.386 . S
C1430 C1432 1.391 . S
C1431 C1430 1.386 . S
C1431 C1435 1.393 . S
C1432 H1421 0.950 . S
C1432 C1430 1.391 . S
C1432 C1433 1.400 . S
C1433 C1427 1.491 . S
C1433 C1432 1.400 . S
C1433 C1434 1.398 . S
C1434 H1422 0.950 . S
C1434 C1433 1.398 . S
C1434 C1435 1.391 . S
C1435 H1423 0.950 . S
C1435 C1431 1.393 . S
C1435 C1434 1.391 . S
H1436 C1444 0.950 . S
H1437 C1449 0.950 . S
H1438 C1446 0.950 . S
H1439 C1448 0.950 . S
H1440 C1450 0.950 . S
H1441 C1452 0.950 . S
H1442 C1454 0.950 . S
H1443 C1455 0.950 . S
C1444 H1436 0.950 . S
C1444 C1445 1.386 . S
C1444 C1446 1.391 . S
C1445 C1444 1.386 . S
C1445 C1449 1.393 . S
C1446 H1438 0.950 . S
C1446 C1444 1.391 . S
C1446 C1447 1.400 . S
C1447 C1446 1.400 . S
C1447 C1448 1.398 . S
C1447 C1453 1.491 . S
C1448 H1439 0.950 . S
C1448 C1447 1.398 . S
C1448 C1449 1.391 . S
C1449 H1437 0.950 . S
C1449 C1445 1.393 . S
C1449 C1448 1.391 . S
C1450 H1440 0.950 . S
C1450 C1451 1.386 . S
C1450 C1452 1.391 . S
C1451 C1450 1.386 . S
C1451 C1455 1.393 . S
C1452 H1441 0.950 . S
C1452 C1450 1.391 . S
C1452 C1453 1.400 . S
C1453 C1447 1.491 . S
C1453 C1452 1.400 . S
C1453 C1454 1.398 . S
C1454 H1442 0.950 . S
C1454 C1453 1.398 . S
C1454 C1455 1.391 . S
C1455 H1443 0.950 . S
C1455 C1451 1.393 . S
C1455 C1454 1.391 . S
H1456 C1464 0.950 . S
H1457 C1469 0.950 . S
H1458 C1466 0.950 . S
H1459 C1468 0.950 . S
H1460 C1470 0.950 . S
H1461 C1472 0.950 . S
H1462 C1474 0.950 . S
H1463 C1475 0.950 . S
C1464 H1456 0.950 . S
C1464 C1465 1.386 . S
C1464 C1466 1.391 . S
C1465 C1464 1.386 . S
C1465 C1469 1.393 . S
C1466 H1458 0.950 . S
C1466 C1464 1.391 . S
C1466 C1467 1.400 . S
C1467 C1466 1.400 . S
C1467 C1468 1.398 . S
C1467 C1473 1.491 . S
C1468 H1459 0.950 . S
C1468 C1467 1.398 . S
C1468 C1469 1.391 . S
C1469 H1457 0.950 . S
C1469 C1465 1.393 . S
C1469 C1468 1.391 . S
C1470 H1460 0.950 . S
C1470 C1471 1.386 . S
C1470 C1472 1.391 . S
C1471 C1470 1.386 . S
C1471 C1475 1.393 . S
C1472 H1461 0.950 . S
C1472 C1470 1.391 . S
C1472 C1473 1.400 . S
C1473 C1467 1.491 . S
C1473 C1472 1.400 . S
C1473 C1474 1.398 . S
C1474 H1462 0.950 . S
C1474 C1473 1.398 . S
C1474 C1475 1.391 . S
C1475 H1463 0.950 . S
C1475 C1471 1.393 . S
C1475 C1474 1.391 . S
H1476 C1484 0.950 . S
H1477 C1489 0.950 . S
H1478 C1486 0.950 . S
H1479 C1488 0.950 . S
H1480 C1490 0.950 . S
H1481 C1492 0.950 . S
H1482 C1494 0.950 . S
H1483 C1495 0.950 . S
C1484 H1476 0.950 . S
C1484 C1485 1.386 . S
C1484 C1486 1.391 . S
C1485 C1484 1.386 . S
C1485 C1489 1.393 . S
C1486 H1478 0.950 . S
C1486 C1484 1.391 . S
C1486 C1487 1.400 . S
C1487 C1486 1.400 . S
C1487 C1488 1.398 . S
C1487 C1493 1.491 . S
C1488 H1479 0.950 . S
C1488 C1487 1.398 . S
C1488 C1489 1.391 . S
C1489 H1477 0.950 . S
C1489 C1485 1.393 . S
C1489 C1488 1.391 . S
C1490 H1480 0.950 . S
C1490 C1491 1.386 . S
C1490 C1492 1.391 . S
C1491 C1490 1.386 . S
C1491 C1495 1.393 . S
C1492 H1481 0.950 . S
C1492 C1490 1.391 . S
C1492 C1493 1.400 . S
C1493 C1487 1.491 . S
C1493 C1492 1.400 . S
C1493 C1494 1.398 . S
C1494 H1482 0.950 . S
C1494 C1493 1.398 . S
C1494 C1495 1.391 . S
C1495 H1483 0.950 . S
C1495 C1491 1.393 . S
C1495 C1494 1.391 . S
H1496 C1504 0.950 . S
H1497 C1509 0.950 . S
H1498 C1506 0.950 . S
H1499 C1508 0.950 . S
H1500 C1510 0.950 . S
H1501 C1512 0.950 . S
H1502 C1514 0.950 . S
H1503 C1515 0.950 . S
C1504 H1496 0.950 . S
C1504 C1505 1.386 . S
C1504 C1506 1.391 . S
C1505 C1504 1.386 . S
C1505 C1509 1.393 . S
C1506 H1498 0.950 . S
C1506 C1504 1.391 . S
C1506 C1507 1.400 . S
C1507 C1506 1.400 . S
C1507 C1508 1.398 . S
C1507 C1513 1.491 . S
C1508 H1499 0.950 . S
C1508 C1507 1.398 . S
C1508 C1509 1.391 . S
C1509 H1497 0.950 . S
C1509 C1505 1.393 . S
C1509 C1508 1.391 . S
C1510 H1500 0.950 . S
C1510 C1511 1.386 . S
C1510 C1512 1.391 . S
C1511 C1510 1.386 . S
C1511 C1515 1.393 . S
C1512 H1501 0.950 . S
C1512 C1510 1.391 . S
C1512 C1513 1.400 . S
C1513 C1507 1.491 . S
C1513 C1512 1.400 . S
C1513 C1514 1.398 . S
C1514 H1502 0.950 . S
C1514 C1513 1.398 . S
C1514 C1515 1.391 . S
C1515 H1503 0.950 . S
C1515 C1511 1.393 . S
C1515 C1514 1.391 . S
H1516 C1524 0.950 . S
H1517 C1529 0.950 . S
H1518 C1526 0.950 . S
H1519 C1528 0.950 . S
H1520 C1530 0.950 . S
H1521 C1532 0.950 . S
H1522 C1534 0.950 . S
H1523 C1535 0.950 . S
C1524 H1516 0.950 . S
C1524 C1525 1.386 . S
C1524 C1526 1.391 . S
C1525 C1524 1.386 . S
C1525 C1529 1.393 . S
C1526 H1518 0.950 . S
C1526 C1524 1.391 . S
C1526 C1527 1.400 . S
C1527 C1526 1.400 . S
C1527 C1528 1.398 . S
C1527 C1533 1.491 . S
C1528 H1519 0.950 . S
C1528 C1527 1.398 . S
C1528 C1529 1.391 . S
C1529 H1517 0.950 . S
C1529 C1525 1.393 . S
C1529 C1528 1.391 . S
C1530 H1520 0.950 . S
C1530 C1531 1.386 . S
C1530 C1532 1.391 . S
C1531 C1530 1.386 . S
C1531 C1535 1.393 . S
C1532 H1521 0.950 . S
C1532 C1530 1.391 . S
C1532 C1533 1.400 . S
C1533 C1527 1.491 . S
C1533 C1532 1.400 . S
C1533 C1534 1.398 . S
C1534 H1522 0.950 . S
C1534 C1533 1.398 . S
C1534 C1535 1.391 . S
C1535 H1523 0.950 . S
C1535 C1531 1.393 . S
C1535 C1534 1.391 . S
H1536 C1544 0.950 . S
H1537 C1549 0.950 . S
H1538 C1546 0.950 . S
H1539 C1548 0.950 . S
H1540 C1550 0.950 . S
H1541 C1552 0.950 . S
H1542 C1554 0.950 . S
H1543 C1555 0.950 . S
C1544 H1536 0.950 . S
C1544 C1545 1.386 . S
C1544 C1546 1.391 . S
C1545 C1544 1.386 . S
C1545 C1549 1.393 . S
C1546 H1538 0.950 . S
C1546 C1544 1.391 . S
C1546 C1547 1.400 . S
C1547 C1546 1.400 . S
C1547 C1548 1.398 . S
C1547 C1553 1.491 . S
C1548 H1539 0.950 . S
C1548 C1547 1.398 . S
C1548 C1549 1.391 . S
C1549 H1537 0.950 . S
C1549 C1545 1.393 . S
C1549 C1548 1.391 . S
C1550 H1540 0.950 . S
C1550 C1551 1.386 . S
C1550 C1552 1.391 . S
C1551 C1550 1.386 . S
C1551 C1555 1.393 . S
C1552 H1541 0.950 . S
C1552 C1550 1.391 . S
C1552 C1553 1.400 . S
C1553 C1547 1.491 . S
C1553 C1552 1.400 . S
C1553 C1554 1.398 . S
C1554 H1542 0.950 . S
C1554 C1553 1.398 . S
C1554 C1555 1.391 . S
C1555 H1543 0.950 . S
C1555 C1551 1.393 . S
C1555 C1554 1.391 . S
H1556 C1564 0.950 . S
H1557 C1569 0.950 . S
H1558 C1566 0.950 . S
H1559 C1568 0.950 . S
H1560 C1570 0.950 . S
H1561 C1572 0.950 . S
H1562 C1574 0.950 . S
H1563 C1575 0.950 . S
C1564 H1556 0.950 . S
C1564 C1565 1.386 . S
C1564 C1566 1.391 . S
C1565 C1564 1.386 . S
C1565 C1569 1.393 . S
C1566 H1558 0.950 . S
C1566 C1564 1.391 . S
C1566 C1567 1.400 . S
C1567 C1566 1.400 . S
C1567 C1568 1.398 . S
C1567 C1573 1.491 . S
C1568 H1559 0.950 . S
C1568 C1567 1.398 . S
C1568 C1569 1.391 . S
C1569 H1557 0.950 . S
C1569 C1565 1.393 . S
C1569 C1568 1.391 . S
C1570 H1560 0.950 . S
C1570 C1571 1.386 . S
C1570 C1572 1.391 . S
C1571 C1570 1.386 . S
C1571 C1575 1.393 . S
C1572 H1561 0.950 . S
C1572 C1570 1.391 . S
C1572 C1573 1.400 . S
C1573 C1567 1.491 . S
C1573 C1572 1.400 . S
C1573 C1574 1.398 . S
C1574 H1562 0.950 . S
C1574 C1573 1.398 . S
C1574 C1575 1.391 . S
C1575 H1563 0.950 . S
C1575 C1571 1.393 . S
C1575 C1574 1.391 . S
H1576 C1584 0.950 . S
H1577 C1589 0.950 . S
H1578 C1586 0.950 . S
H1579 C1588 0.950 . S
H1580 C1590 0.950 . S
H1581 C1592 0.950 . S
H1582 C1594 0.950 . S
H1583 C1595 0.950 . S
C1584 H1576 0.950 . S
C1584 C1585 1.386 . S
C1584 C1586 1.391 . S
C1585 C1584 1.386 . S
C1585 C1589 1.393 . S
C1586 H1578 0.950 . S
C1586 C1584 1.391 . S
C1586 C1587 1.400 . S
C1587 C1586 1.400 . S
C1587 C1588 1.398 . S
C1587 C1593 1.491 . S
C1588 H1579 0.950 . S
C1588 C1587 1.398 . S
C1588 C1589 1.391 . S
C1589 H1577 0.950 . S
C1589 C1585 1.393 . S
C1589 C1588 1.391 . S
C1590 H1580 0.950 . S
C1590 C1591 1.386 . S
C1590 C1592 1.391 . S
C1591 C1590 1.386 . S
C1591 C1595 1.393 . S
C1592 H1581 0.950 . S
C1592 C1590 1.391 . S
C1592 C1593 1.400 . S
C1593 C1587 1.491 . S
C1593 C1592 1.400 . S
C1593 C1594 1.398 . S
C1594 H1582 0.950 . S
C1594 C1593 1.398 . S
C1594 C1595 1.391 . S
C1595 H1583 0.950 . S
C1595 C1591 1.393 . S
C1595 C1594 1.391 . S
H1596 C1604 0.950 . S
H1597 C1609 0.950 . S
H1598 C1606 0.950 . S
H1599 C1608 0.950 . S
H1600 C1610 0.950 . S
H1601 C1612 0.950 . S
H1602 C1614 0.950 . S
H1603 C1615 0.950 . S
C1604 H1596 0.950 . S
C1604 C1605 1.386 . S
C1604 C1606 1.391 . S
C1605 C1604 1.386 . S
C1605 C1609 1.393 . S
C1606 H1598 0.950 . S
C1606 C1604 1.391 . S
C1606 C1607 1.400 . S
C1607 C1606 1.400 . S
C1607 C1608 1.398 . S
C1607 C1613 1.491 . S
C1608 H1599 0.950 . S
C1608 C1607 1.398 . S
C1608 C1609 1.391 . S
C1609 H1597 0.950 . S
C1609 C1605 1.393 . S
C1609 C1608 1.391 . S
C1610 H1600 0.950 . S
C1610 C1611 1.386 . S
C1610 C1612 1.391 . S
C1611 C1610 1.386 . S
C1611 C1615 1.393 . S
C1612 H1601 0.950 . S
C1612 C1610 1.391 . S
C1612 C1613 1.400 . S
C1613 C1607 1.491 . S
C1613 C1612 1.400 . S
C1613 C1614 1.398 . S
C1614 H1602 0.950 . S
C1614 C1613 1.398 . S
C1614 C1615 1.391 . S
C1615 H1603 0.950 . S
C1615 C1611 1.393 . S
C1615 C1614 1.391 . S
H1616 C1624 0.950 . S
H1617 C1629 0.950 . S
H1618 C1626 0.950 . S
H1619 C1628 0.950 . S
H1620 C1630 0.950 . S
H1621 C1632 0.950 . S
H1622 C1634 0.950 . S
H1623 C1635 0.950 . S
C1624 H1616 0.950 . S
C1624 C1625 1.386 . S
C1624 C1626 1.391 . S
C1625 C1624 1.386 . S
C1625 C1629 1.393 . S
C1626 H1618 0.950 . S
C1626 C1624 1.391 . S
C1626 C1627 1.400 . S
C1627 C1626 1.400 . S
C1627 C1628 1.398 . S
C1627 C1633 1.491 . S
C1628 H1619 0.950 . S
C1628 C1627 1.398 . S
C1628 C1629 1.391 . S
C1629 H1617 0.950 . S
C1629 C1625 1.393 . S
C1629 C1628 1.391 . S
C1630 H1620 0.950 . S
C1630 C1631 1.386 . S
C1630 C1632 1.391 . S
C1631 C1630 1.386 . S
C1631 C1635 1.393 . S
C1632 H1621 0.950 . S
C1632 C1630 1.391 . S
C1632 C1633 1.400 . S
C1633 C1627 1.491 . S
C1633 C1632 1.400 . S
C1633 C1634 1.398 . S
C1634 H1622 0.950 . S
C1634 C1633 1.398 . S
C1634 C1635 1.391 . S
C1635 H1623 0.950 . S
C1635 C1631 1.393 . S
C1635 C1634 1.391 . S
H1636 C1644 0.950 . S
H1637 C1649 0.950 . S
H1638 C1646 0.950 . S
H1639 C1648 0.950 . S
H1640 C1650 0.950 . S
H1641 C1652 0.950 . S
H1642 C1654 0.950 . S
H1643 C1655 0.950 . S
C1644 H1636 0.950 . S
C1644 C1645 1.386 . S
C1644 C1646 1.391 . S
C1645 C1644 1.386 . S
C1645 C1649 1.393 . S
C1646 H1638 0.950 . S
C1646 C1644 1.391 . S
C1646 C1647 1.400 . S
C1647 C1646 1.400 . S
C1647 C1648 1.398 . S
C1647 C1653 1.491 . S
C1648 H1639 0.950 . S
C1648 C1647 1.398 . S
C1648 C1649 1.391 . S
C1649 H1637 0.950 . S
C1649 C1645 1.393 . S
C1649 C1648 1.391 . S
C1650 H1640 0.950 . S
C1650 C1651 1.386 . S
C1650 C1652 1.391 . S
C1651 C1650 1.386 . S
C1651 C1655 1.393 . S
C1652 H1641 0.950 . S
C1652 C1650 1.391 . S
C1652 C1653 1.400 . S
C1653 C1647 1.491 . S
C1653 C1652 1.400 . S
C1653 C1654 1.398 . S
C1654 H1642 0.950 . S
C1654 C1653 1.398 . S
C1654 C1655 1.391 . S
C1655 H1643 0.950 . S
C1655 C1651 1.393 . S
C1655 C1654 1.391 . S
H1656 C1664 0.950 . S
H1657 C1669 0.950 . S
H1658 C1666 0.950 . S
H1659 C1668 0.950 . S
H1660 C1670 0.950 . S
H1661 C1672 0.950 . S
H1662 C1674 0.950 . S
H1663 C1675 0.950 . S
C1664 H1656 0.950 . S
C1664 C1665 1.386 . S
C1664 C1666 1.391 . S
C1665 C1664 1.386 . S
C1665 C1669 1.393 . S
C1666 H1658 0.950 . S
C1666 C1664 1.391 . S
C1666 C1667 1.400 . S
C1667 C1666 1.400 . S
C1667 C1668 1.398 . S
C1667 C1673 1.491 . S
C1668 H1659 0.950 . S
C1668 C1667 1.398 . S
C1668 C1669 1.391 . S
C1669 H1657 0.950 . S
C1669 C1665 1.393 . S
C1669 C1668 1.391 . S
C1670 H1660 0.950 . S
C1670 C1671 1.386 . S
C1670 C1672 1.391 . S
C1671 C1670 1.386 . S
C1671 C1675 1.393 . S
C1672 H1661 0.950 . S
C1672 C1670 1.391 . S
C1672 C1673 1.400 . S
C1673 C1667 1.491 . S
C1673 C1672 1.400 . S
C1673 C1674 1.398 . S
C1674 H1662 0.950 . S
C1674 C1673 1.398 . S
C1674 C1675 1.391 . S
C1675 H1663 0.950 . S
C1675 C1671 1.393 . S
C1675 C1674 1.391 . S
H1676 C1684 0.950 . S
H1677 C1689 0.950 . S
H1678 C1686 0.950 . S
H1679 C1688 0.950 . S
H1680 C1690 0.950 . S
H1681 C1692 0.950 . S
H1682 C1694 0.950 . S
H1683 C1695 0.950 . S
C1684 H1676 0.950 . S
C1684 C1685 1.386 . S
C1684 C1686 1.391 . S
C1685 C1684 1.386 . S
C1685 C1689 1.393 . S
C1686 H1678 0.950 . S
C1686 C1684 1.391 . S
C1686 C1687 1.400 . S
C1687 C1686 1.400 . S
C1687 C1688 1.398 . S
C1687 C1693 1.491 . S
C1688 H1679 0.950 . S
C1688 C1687 1.398 . S
C1688 C1689 1.391 . S
C1689 H1677 0.950 . S
C1689 C1685 1.393 . S
C1689 C1688 1.391 . S
C1690 H1680 0.950 . S
C1690 C1691 1.386 . S
C1690 C1692 1.391 . S
C1691 C1690 1.386 . S
C1691 C1695 1.393 . S
C1692 H1681 0.950 . S
C1692 C1690 1.391 . S
C1692 C1693 1.400 . S
C1693 C1687 1.491 . S
C1693 C1692 1.400 . S
C1693 C1694 1.398 . S
C1694 H1682 0.950 . S
C1694 C1693 1.398 . S
C1694 C1695 1.391 . S
C1695 H1683 0.950 . S
C1695 C1691 1.393 . S
C1695 C1694 1.391 . S
C425 C10 1.468 . S
C431 C56 1.470 . S
C445 C23 1.468 . S
C451 C75 1.471 . S
C465 C82 1.486 . S
C471 C30 1.482 . S
C485 C101 1.476 . S
C491 C49 1.484 . S
C505 C108 1.477 . S
C511 C166 1.485 . S
C525 C121 1.481 . S
C531 C173 1.486 . S
C545 C186 1.478 . S
C551 C140 1.470 . S
C565 C147 1.486 . S
C571 C205 1.479 . S
C585 C264 1.483 . S
C591 C212 1.486 . S
C605 C283 1.469 . S
C611 C231 1.469 . S
C625 C238 1.470 . S
C631 C290 1.469 . S
C645 C309 1.485 . S
C651 C251 1.484 . S
C665 C322 1.478 . S
C671 C374 1.470 . S
C685 C381 1.471 . S
C691 C335 1.468 . S
C705 C400 1.482 . S
C711 C348 1.473 . S
C725 C355 1.468 . S
C731 C407 1.471 . S
C745 C3 1.674 . S
C751 C361 1.666 . S
C765 C114 1.673 . S
C771 C16 1.668 . S
C785 C31 1.676 . S
C791 C329 1.674 . S
C805 C42 1.675 . S
C811 C134 1.675 . S
C825 C387 1.676 . S
C831 C57 1.673 . S
C845 C192 1.676 . S
C851 C68 1.671 . S
C865 C83 1.671 . S
C871 C413 1.676 . S
C885 C94 1.678 . S
C891 C160 1.670 . S
C905 C257 1.674 . S
C911 C109 1.677 . S
C925 C122 1.668 . S
C931 C4 1.670 . S
C945 C225 1.669 . S
C951 C133 1.669 . S
C965 C148 1.669 . S
C971 C36 1.669 . S
C985 C277 1.666 . S
C991 C159 1.674 . S
C1005 C174 1.678 . S
C1011 C88 1.670 . S
C1025 C303 1.676 . S
C1031 C187 1.672 . S
C1045 C198 1.670 . S
C1051 C62 1.675 . S
C1065 C153 1.666 . S
C1071 C213 1.672 . S
C1085 C316 1.676 . S
C1091 C224 1.671 . S
C1105 C127 1.674 . S
C1111 C239 1.669 . S
C1125 C252 1.673 . S
C1131 C342 1.676 . S
C1145 C179 1.675 . S
C1151 C265 1.669 . S
C1165 C394 1.675 . S
C1171 C276 1.676 . S
C1185 C199 1.667 . S
C1191 C291 1.670 . S
C1205 C302 1.670 . S
C1211 C368 1.675 . S
C1225 C315 1.675 . S
C1231 C43 1.666 . S
C1245 C328 1.677 . S
C1251 C218 1.672 . S
C1265 C341 1.677 . S
C1271 C17 1.674 . S
C1285 C356 1.670 . S
C1291 C244 1.667 . S
C1305 C367 1.670 . S
C1311 C69 1.675 . S
C1325 C296 1.666 . S
C1331 C382 1.676 . S
C1345 C95 1.673 . S
C1351 C393 1.677 . S
C1365 C408 1.673 . S
C1371 C270 1.666 . S
C1385 C5 1.072 . S
C1391 C96 1.094 . S
C1405 C18 1.090 . S
C1411 C55 1.079 1_556 S
C1425 C29 1.077 1_554 S
C1431 C70 1.079 . S
C1445 C81 1.070 . S
C1451 C44 1.094 . S
C1465 C200 1.092 . S
C1471 C107 1.075 . S
C1485 C161 1.081 1_554 S
C1491 C120 1.088 . S
C1505 C172 1.089 . S
C1511 C135 1.080 1_556 S
C1525 C185 1.071 . S
C1531 C146 1.087 . S
C1545 C211 1.092 1_554 S
C1551 C304 1.075 . S
C1565 C263 1.069 . S
C1571 C226 1.094 . S
C1585 C278 1.092 . S
C1591 C237 1.076 . S
C1605 C289 1.094 1_556 S
C1611 C250 1.069 . S
C1625 C406 1.072 . S
C1631 C317 1.086 1_556 S
C1645 C330 1.085 . S
C1651 C369 1.084 . S
C1665 C343 1.091 . S
C1671 C380 1.068 . S
C1685 C354 1.086 . S
C1691 C395 1.083 1_554 S
