# Generated by pormake.
# Topology sqp, (5)-cn, num edge types: 1
# Building blocks:
#     Node 0, Type 0, BuildingBlock: XOMCOT_clean_sbu_0, # of connection points: 5
#     Node 1, Type 0, BuildingBlock: XOMCOT_clean_sbu_0, # of connection points: 5
#     Node 2, Type 0, BuildingBlock: XOMCOT_clean_sbu_0, # of connection points: 5
#     Node 3, Type 0, BuildingBlock: XOMCOT_clean_sbu_0, # of connection points: 5
#     Edge 4, Type (0, 0), BuildingBlock: ZUJKAS_clean_linker_0, # of connection points: 2
#     Edge 5, Type (0, 0), BuildingBlock: ZUJKAS_clean_linker_0, # of connection points: 2
#     Edge 6, Type (0, 0), BuildingBlock: ZUJKAS_clean_linker_0, # of connection points: 2
#     Edge 7, Type (0, 0), BuildingBlock: ZUJKAS_clean_linker_0, # of connection points: 2
#     Edge 8, Type (0, 0), BuildingBlock: ZUJKAS_clean_linker_0, # of connection points: 2
#     Edge 9, Type (0, 0), BuildingBlock: ZUJKAS_clean_linker_0, # of connection points: 2
#     Edge 10, Type (0, 0), BuildingBlock: ZUJKAS_clean_linker_0, # of connection points: 2
#     Edge 11, Type (0, 0), BuildingBlock: ZUJKAS_clean_linker_0, # of connection points: 2
#     Edge 12, Type (0, 0), BuildingBlock: ZUJKAS_clean_linker_0, # of connection points: 2
#     Edge 13, Type (0, 0), BuildingBlock: ZUJKAS_clean_linker_0, # of connection points: 2
# Relax obj value: 0.119
# Max RMSD: 0.202
# Mean RMSD: 0.202
data_MOF--net-sqp--node1-XOMCOT_clean_sbu_0--edge1-ZUJKAS_clean_linker_0
_symmetry_space_group_name_H-M    P1
_symmetry_Int_Tables_number       1
_symmetry_cell_setting            triclinic
loop_
_symmetry_equiv_pos_as_xyz
'x, y, z'
_cell_length_a     30.467763
_cell_length_b     24.743629
_cell_length_c     59.463851
_cell_angle_alpha  90.016389
_cell_angle_beta   89.505293
_cell_angle_gamma 90.006865
loop_
_atom_site_label
_atom_site_type_symbol
_atom_site_fract_x
_atom_site_fract_y
_atom_site_fract_z
_atom_type_partial_charge
Co0 Co 0.01814 1.0028 0.30489 0.0
C1 C 0.94694 0.08295 0.29472 0.0
C2 C 1.00743 0.11998 0.3047 0.0
C3 C 0.97673 0.15988 0.30177 0.0
N4 N 0.98896 0.07166 0.30029 0.0
N5 N 0.93868 0.13666 0.29558 0.0
H6 H 0.92243 0.05279 0.29093 0.0
H7 H 0.04073 0.12583 0.31037 0.0
C8 C 0.11567 0.0259 0.29535 0.0
O9 O 0.12807 0.98128 0.30536 0.0
N10 N 0.04709 0.93399 0.30942 0.0
C11 C 0.04934 0.90457 0.32844 0.0
C12 C 0.07442 0.85925 0.32422 0.0
C13 C 0.0688 0.90491 0.29368 0.0
N14 N 0.08717 0.85998 0.30242 0.0
C15 C 0.98806 0.03138 0.3483 0.0
C16 C 0.0676 0.03583 0.37011 0.0
C17 C 0.02879 0.04205 0.38269 0.0
C18 C 0.98873 0.04097 0.37136 0.0
C19 C 0.06546 0.02634 0.34692 0.0
N20 N 0.0259 0.02287 0.33635 0.0
H21 H 0.95668 0.02999 0.34002 0.0
H22 H 0.0956 0.02003 0.338 0.0
H23 H 0.0347 0.91572 0.34441 0.0
H24 H 0.07301 0.91813 0.27645 0.0
O25 O 0.96297 0.96588 0.30844 0.0
O26 O 0.99759 0.97669 0.27587 0.0
O27 O 0.07501 0.03916 0.2946 0.0
C28 C 0.96426 0.95654 0.28696 0.0
H29 H 0.98201 0.20277 0.3041 0.0
H30 H 0.08421 0.82951 0.33654 0.0
H31 H 0.0993 0.03623 0.37821 0.0
H32 H 0.95796 0.0469 0.38028 0.0
Co33 Co 0.02426 1.00374 0.70129 0.0
C34 C 0.09533 0.08308 0.71252 0.0
C35 C 0.03427 0.12084 0.70402 0.0
C36 C 0.06505 0.16052 0.7072 0.0
N37 N 0.05304 0.07218 0.70736 0.0
N38 N 0.10344 0.13685 0.71246 0.0
H39 H 0.12017 0.05266 0.71531 0.0
H40 H 1.0008 0.12716 0.69873 0.0
C41 C 0.92631 0.02542 0.71048 0.0
O42 O 0.91429 0.98141 0.69989 0.0
N43 N 0.99586 0.9353 0.69511 0.0
C44 C 0.99511 0.90822 0.67546 0.0
C45 C 0.97039 0.86208 0.67828 0.0
C46 C 0.97371 0.90386 0.70988 0.0
N47 N 0.95644 0.85976 0.69988 0.0
C48 C 0.05557 0.03611 0.65844 0.0
C49 C 0.97629 0.04319 0.63653 0.0
C50 C 0.01523 0.05039 0.62412 0.0
C51 C 0.05519 0.04775 0.63552 0.0
C52 C 0.97814 0.03167 0.65953 0.0
N53 N 0.01754 0.02694 0.67014 0.0
H54 H 0.08684 0.03325 0.66676 0.0
H55 H 0.94785 0.02495 0.66827 0.0
H56 H 1.01086 0.92129 0.66003 0.0
H57 H 0.96764 0.91535 0.7272 0.0
O58 O 0.07974 0.96734 0.69779 0.0
O59 O 0.04345 0.97492 0.73005 0.0
O60 O 0.96689 0.03884 0.71159 0.0
C61 C 0.07735 0.95592 0.71908 0.0
H62 H 0.05967 0.20358 0.70555 0.0
H63 H 0.96272 0.833 0.66531 0.0
H64 H 0.9446 0.04561 0.62848 0.0
H65 H 0.08618 0.05251 0.62668 0.0
Co66 Co 0.51873 0.50434 0.80415 0.0
C67 C 0.44794 0.5833 0.79178 0.0
C68 C 0.50869 0.62145 0.8005 0.0
C69 C 0.47845 0.66096 0.79593 0.0
N70 N 0.48985 0.57264 0.79778 0.0
N71 N 0.44021 0.63711 0.79042 0.0
H72 H 0.42348 0.55264 0.78865 0.0
H73 H 0.54189 0.62808 0.80617 0.0
C74 C 0.61654 0.52568 0.79473 0.0
O75 O 0.62854 0.48192 0.80549 0.0
N76 N 0.54725 0.43601 0.81049 0.0
C77 C 0.54854 0.40939 0.83024 0.0
C78 C 0.5734 0.36333 0.82744 0.0
C79 C 0.5692 0.40432 0.79571 0.0
N80 N 0.5869 0.36056 0.80578 0.0
C81 C 0.48783 0.5381 0.84688 0.0
C82 C 0.56722 0.54497 0.8687 0.0
C83 C 0.52837 0.55252 0.88114 0.0
C84 C 0.48835 0.55004 0.86978 0.0
C85 C 0.56522 0.53312 0.84573 0.0
N86 N 0.52576 0.5284 0.83517 0.0
H87 H 0.45651 0.53535 0.8386 0.0
H88 H 0.59545 0.52608 0.83698 0.0
H89 H 0.53313 0.42278 0.84571 0.0
H90 H 0.57489 0.41548 0.77833 0.0
O91 O 0.46336 0.46813 0.80803 0.0
O92 O 0.49917 0.47477 0.77558 0.0
O93 O 0.57598 0.53914 0.79358 0.0
C94 C 0.4654 0.45617 0.78679 0.0
H95 H 0.48391 0.70404 0.79733 0.0
H96 H 0.58148 0.33463 0.84049 0.0
H97 H 0.59896 0.54732 0.8767 0.0
H98 H 0.45742 0.55511 0.87864 0.0
Co99 Co 0.5253 0.50181 0.20009 0.0
C100 C 0.59607 0.58207 0.21108 0.0
C101 C 0.53525 0.61908 0.20164 0.0
C102 C 0.56579 0.65908 0.20481 0.0
N103 N 0.55401 0.57069 0.20557 0.0
N104 N 0.60405 0.63589 0.21065 0.0
H105 H 0.62085 0.55192 0.21442 0.0
H106 H 0.50193 0.62497 0.19603 0.0
C107 C 0.42744 0.52373 0.20933 0.0
O108 O 0.41527 0.47939 0.19903 0.0
N109 N 0.49696 0.43293 0.19457 0.0
C110 C 0.49615 0.4049 0.17516 0.0
C111 C 0.47093 0.35929 0.1783 0.0
C112 C 0.47442 0.40246 0.20957 0.0
N113 N 0.45671 0.35821 0.19987 0.0
C114 C 0.55623 0.53301 0.1571 0.0
C115 C 0.47705 0.53728 0.13493 0.0
C116 C 0.51603 0.54445 0.12258 0.0
C117 C 0.55589 0.54348 0.1341 0.0
C118 C 0.47886 0.52693 0.15805 0.0
N119 N 0.51824 0.52354 0.16879 0.0
H120 H 0.58745 0.53155 0.16553 0.0
H121 H 0.44862 0.51971 0.16678 0.0
H122 H 0.51203 0.41711 0.15965 0.0
H123 H 0.46815 0.41494 0.22675 0.0
O124 O 0.58077 0.46559 0.19664 0.0
O125 O 0.54495 0.4744 0.22901 0.0
O126 O 0.46803 0.53719 0.21026 0.0
C127 C 0.57878 0.45518 0.21803 0.0
H128 H 0.56029 0.70201 0.2028 0.0
H129 H 0.46293 0.32985 0.16552 0.0
H130 H 0.44549 0.53749 0.12669 0.0
H131 H 0.58677 0.55005 0.12535 0.0
H132 H 0.97509 0.9918 0.413 0.0
H133 H 0.97509 0.99999 0.4539 0.0
H134 H 0.08477 0.1098 0.44986 0.0
H135 H 0.08441 0.10278 0.40867 0.0
H136 H 0.0461 0.97516 0.48297 0.0
H137 H 0.99316 0.18984 0.49005 0.0
H138 H 0.98606 0.15083 0.46466 0.0
H139 H 0.03928 0.17637 0.4718 0.0
C140 C 0.99887 0.01832 0.42075 0.0
C141 C 0.02949 0.0471 0.40757 0.0
C142 C 0.99898 0.02266 0.44413 0.0
C143 C 0.02953 0.056 0.45485 0.0
C144 C 0.06047 0.08449 0.44185 0.0
H145 H 0.06671 0.1169 0.59802 0.0
H146 H 0.07121 0.11962 0.5569 0.0
C147 C 0.06049 0.08005 0.41837 0.0
C148 C 0.02942 0.0593 0.4797 0.0
H149 H 1.00837 0.14391 0.52389 0.0
C150 C 0.03796 0.01206 0.49194 0.0
C151 C 0.01898 0.10759 0.49129 0.0
C152 C 1.00851 0.15908 0.47886 0.0
C153 C 0.03617 0.01168 0.5155 0.0
C154 C 0.02458 0.0596 0.52711 0.0
C155 C 0.01697 0.10719 0.51491 0.0
C156 C 0.01979 0.06066 0.55191 0.0
C157 C 0.04712 0.96008 0.52777 0.0
C158 C 0.98849 0.02783 0.56267 0.0
C159 C 0.98603 0.02585 0.58612 0.0
C160 C 1.01466 0.05702 0.59928 0.0
C161 C 0.04468 0.09171 0.58839 0.0
C162 C 0.04715 0.09358 0.56491 0.0
H163 H 0.06662 0.93205 0.51703 0.0
H164 H 0.06584 0.96857 0.54332 0.0
H165 H 0.01622 0.9392 0.53261 0.0
H166 H 0.9665 1.00288 0.55291 0.0
H167 H 0.96277 0.9984 0.59391 0.0
H168 H 0.57064 0.49567 0.09226 0.0
H169 H 0.57064 0.50402 0.05137 0.0
H170 H 0.45987 0.61212 0.05545 0.0
H171 H 0.4602 0.60491 0.09664 0.0
H172 H 0.49914 0.47799 0.02247 0.0
H173 H 0.55085 0.69308 0.01502 0.0
H174 H 0.55868 0.65424 0.04039 0.0
H175 H 0.50515 0.67916 0.03349 0.0
C176 C 0.54665 0.5219 0.08453 0.0
C177 C 0.51566 0.55007 0.09772 0.0
C178 C 0.54654 0.52632 0.06115 0.0
C179 C 0.51562 0.55917 0.05045 0.0
C180 C 0.48442 0.58719 0.06346 0.0
H181 H 0.47709 0.61918 0.90731 0.0
H182 H 0.4729 0.6221 0.94843 0.0
C183 C 0.4844 0.58265 0.08693 0.0
C184 C 0.51552 0.56225 0.02559 0.0
H185 H 0.53568 0.64668 0.98127 0.0
C186 C 0.50702 0.51487 0.01344 0.0
C187 C 0.52559 0.61054 0.01393 0.0
C188 C 0.53591 0.6622 0.02628 0.0
C189 C 0.50852 0.51434 0.98987 0.0
C190 C 0.51978 0.56225 0.97818 0.0
C191 C 0.52735 0.60998 0.99031 0.0
C192 C 0.52433 0.56315 0.95336 0.0
C193 C 0.49757 0.46259 0.97769 0.0
C194 C 0.55553 0.53025 0.94255 0.0
C195 C 0.5578 0.52813 0.9191 0.0
C196 C 0.52909 0.55926 0.90598 0.0
C197 C 0.49917 0.59402 0.91691 0.0
C198 C 0.49689 0.596 0.94039 0.0
H199 H 0.47817 0.43463 0.9885 0.0
H200 H 0.47875 0.47086 0.96216 0.0
H201 H 0.52847 0.44172 0.97284 0.0
H202 H 0.57761 0.50536 0.95228 0.0
H203 H 0.58098 0.50062 0.91129 0.0
H204 H 0.10442 0.12125 0.27228 0.0
H205 H 0.16166 0.17851 0.25545 0.0
H206 H 0.26107 0.06996 0.27994 0.0
H207 H 0.20452 0.01227 0.29637 0.0
H208 H 0.23202 0.23204 0.27492 0.0
H209 H 0.29126 0.08005 0.2133 0.0
H210 H 0.24007 0.07269 0.22849 0.0
H211 H 0.29112 0.05561 0.24171 0.0
C212 C 0.13846 0.10951 0.27402 0.0
C213 C 0.14978 0.06187 0.28553 0.0
C214 C 0.17113 0.14231 0.26443 0.0
C215 C 0.21561 0.12797 0.26608 0.0
C216 C 0.22695 0.08116 0.27798 0.0
H217 H 0.44511 0.33221 0.24391 0.0
H218 H 0.38609 0.27705 0.26017 0.0
C219 C 0.19446 0.04835 0.28748 0.0
C220 C 0.25038 0.16192 0.25558 0.0
H221 H 0.3365 0.15753 0.21846 0.0
C222 C 0.25474 0.2159 0.26248 0.0
C223 C 0.27965 0.141 0.23913 0.0
C224 C 0.27512 0.08433 0.23004 0.0
C225 C 0.28819 0.24917 0.25375 0.0
C226 C 0.31859 0.22752 0.23801 0.0
C227 C 0.31359 0.17389 0.23076 0.0
C228 C 0.35508 0.26016 0.22831 0.0
C229 C 0.2902 0.30743 0.26117 0.0
C230 C 0.35822 0.26748 0.20496 0.0
C231 C 0.39207 0.29854 0.19563 0.0
C232 C 0.4237 0.32295 0.20945 0.0
C233 C 0.42101 0.31462 0.23283 0.0
C234 C 0.38716 0.28329 0.24215 0.0
H235 H 0.25833 0.32129 0.26834 0.0
H236 H 0.31543 0.31173 0.2744 0.0
H237 H 0.29933 0.33432 0.24693 0.0
H238 H 0.33394 0.2499 0.19394 0.0
H239 H 0.39262 0.30464 0.17762 0.0
H240 H 0.87523 0.10742 0.26619 0.0
H241 H 0.8098 0.15999 0.25629 0.0
H242 H 0.84437 0.28054 0.30543 0.0
H243 H 0.90959 0.22859 0.31525 0.0
H244 H 0.73695 0.20056 0.28139 0.0
H245 H 0.84026 0.36583 0.24642 0.0
H246 H 0.86219 0.30016 0.25318 0.0
H247 H 0.85203 0.34881 0.27509 0.0
C248 C 0.86852 0.14477 0.27505 0.0
C249 C 0.89799 0.16435 0.2912 0.0
C250 C 0.8312 0.17478 0.26938 0.0
C251 C 0.82274 0.22471 0.27981 0.0
C252 C 0.85083 0.24279 0.29679 0.0
H253 H 0.58498 0.4234 0.26231 0.0
H254 H 0.64273 0.36716 0.27902 0.0
C255 C 0.88815 0.21309 0.30234 0.0
C256 C 0.78598 0.25935 0.27219 0.0
H257 H 0.7639 0.38166 0.24825 0.0
C258 C 0.74272 0.2402 0.27417 0.0
C259 C 0.7937 0.31085 0.26259 0.0
C260 C 0.83954 0.33257 0.25897 0.0
C261 C 0.70695 0.2713 0.26679 0.0
C262 C 0.71472 0.32311 0.25748 0.0
C263 C 0.75797 0.34219 0.25561 0.0
C264 C 0.67907 0.35664 0.24787 0.0
C265 C 0.66132 0.24786 0.26838 0.0
C266 C 0.68085 0.37033 0.22501 0.0
C267 C 0.6484 0.40263 0.21556 0.0
C268 C 0.61332 0.42219 0.22875 0.0
C269 C 0.61156 0.40885 0.25172 0.0
C270 C 0.64432 0.3764 0.26124 0.0
H271 H 0.66189 0.20362 0.27155 0.0
H272 H 0.64329 0.26748 0.28246 0.0
H273 H 0.64288 0.25558 0.25267 0.0
H274 H 0.70739 0.35572 0.21439 0.0
H275 H 0.65081 0.41206 0.1978 0.0
H276 H 0.66832 0.60656 0.23956 0.0
H277 H 0.73373 0.65951 0.24929 0.0
H278 H 0.69755 0.78057 0.20072 0.0
H279 H 0.63237 0.7283 0.19111 0.0
H280 H 0.80594 0.70111 0.22409 0.0
H281 H 0.70244 0.86528 0.25978 0.0
H282 H 0.68068 0.79956 0.25294 0.0
H283 H 0.69025 0.84858 0.23112 0.0
C284 C 0.67468 0.64412 0.2308 0.0
C285 C 0.64477 0.66375 0.21488 0.0
C286 C 0.71198 0.67436 0.23637 0.0
C287 C 0.71999 0.72455 0.22606 0.0
C288 C 0.69146 0.74264 0.20928 0.0
H289 H 0.95729 0.92516 0.24262 0.0
H290 H 0.89944 0.86862 0.2261 0.0
C291 C 0.65415 0.71275 0.20384 0.0
C292 C 0.75675 0.75943 0.23358 0.0
H293 H 0.77867 0.88192 0.25747 0.0
C294 C 0.80008 0.74068 0.23137 0.0
C295 C 0.74896 0.81086 0.24326 0.0
C296 C 0.70308 0.8322 0.24714 0.0
C297 C 0.83585 0.7721 0.23857 0.0
C298 C 0.82801 0.82384 0.24793 0.0
C299 C 0.78467 0.84251 0.25006 0.0
C300 C 0.86368 0.85769 0.2574 0.0
C301 C 0.88157 0.74906 0.23673 0.0
C302 C 0.86226 0.87129 0.28028 0.0
C303 C 0.89476 0.90374 0.28962 0.0
C304 C 0.92956 0.92359 0.2763 0.0
C305 C 0.93093 0.91042 0.2533 0.0
C306 C 0.89813 0.87778 0.2439 0.0
H307 H 0.88119 0.70483 0.23351 0.0
H308 H 0.89923 0.76891 0.22258 0.0
H309 H 0.90027 0.75686 0.25234 0.0
H310 H 0.83597 0.85645 0.29101 0.0
H311 H 0.89262 0.91303 0.3074 0.0
H312 H 0.14331 0.88591 0.26841 0.0
H313 H 0.20072 0.829 0.25213 0.0
H314 H 0.163 0.69879 0.29642 0.0
H315 H 0.1051 0.75557 0.31278 0.0
H316 H 0.25335 0.71858 0.29556 0.0
H317 H 0.18775 0.70116 0.20906 0.0
H318 H 0.1932 0.7694 0.21894 0.0
H319 H 0.15482 0.72457 0.23249 0.0
C320 C 0.14648 0.84483 0.27439 0.0
C321 C 0.11923 0.82516 0.2918 0.0
C322 C 0.1795 0.81237 0.2651 0.0
C323 C 0.18581 0.75944 0.27287 0.0
C324 C 0.15862 0.73953 0.29015 0.0
H325 H 0.33912 0.50566 0.21116 0.0
H326 H 0.28225 0.56385 0.22705 0.0
C327 C 0.1256 0.77202 0.2995 0.0
C328 C 0.22168 0.72549 0.26347 0.0
H329 H 0.25993 0.66826 0.21485 0.0
C330 C 0.25479 0.70744 0.27793 0.0
C331 C 0.22329 0.71077 0.24049 0.0
C332 C 0.18769 0.72701 0.22435 0.0
C333 C 0.28966 0.67533 0.26999 0.0
C334 C 0.29175 0.66155 0.24692 0.0
C335 C 0.25848 0.67932 0.2325 0.0
C336 C 0.32703 0.62662 0.23754 0.0
C337 C 0.32342 0.65543 0.28646 0.0
C338 C 0.37122 0.64276 0.23801 0.0
C339 C 0.40405 0.60941 0.22895 0.0
C340 C 0.39317 0.55949 0.21911 0.0
C341 C 0.3488 0.54378 0.21857 0.0
C342 C 0.31613 0.57703 0.22764 0.0
H343 H 0.31164 0.65891 0.30414 0.0
H344 H 0.33211 0.6126 0.28306 0.0
H345 H 0.35368 0.68006 0.28467 0.0
H346 H 0.38028 0.68134 0.24522 0.0
H347 H 0.43785 0.62287 0.22955 0.0
H348 H 0.43132 0.73744 0.77285 0.0
H349 H 0.36338 0.78581 0.76545 0.0
H350 H 0.28842 0.64787 0.7878 0.0
H351 H 0.35672 0.599 0.79558 0.0
H352 H 0.25837 0.6926 0.74751 0.0
H353 H 0.27902 0.85186 0.81191 0.0
H354 H 0.32633 0.84508 0.79394 0.0
H355 H 0.31044 0.78995 0.81199 0.0
C356 C 0.40051 0.71743 0.77651 0.0
C357 C 0.39966 0.66444 0.7851 0.0
C358 C 0.36161 0.74527 0.77227 0.0
C359 C 0.32081 0.72098 0.77658 0.0
C360 C 0.3196 0.66759 0.78458 0.0
H361 H 0.08078 0.91913 0.76275 0.0
H362 H 0.13583 0.85795 0.77892 0.0
C363 C 0.35867 0.63958 0.78888 0.0
C364 C 0.27977 0.75118 0.77185 0.0
H365 H 0.22793 0.87118 0.78234 0.0
C366 C 0.25133 0.73124 0.75538 0.0
C367 C 0.27011 0.80117 0.78239 0.0
C368 C 0.29784 0.82305 0.80121 0.0
C369 C 0.21501 0.76148 0.74821 0.0
C370 C 0.20731 0.8133 0.75755 0.0
C371 C 0.23416 0.83177 0.77499 0.0
C372 C 0.17386 0.85047 0.74817 0.0
C373 C 0.18561 0.73805 0.7304 0.0
C374 C 0.17765 0.86756 0.72577 0.0
C375 C 0.14661 0.90244 0.71659 0.0
C376 C 0.11109 0.92134 0.72965 0.0
C377 C 0.10775 0.90521 0.75228 0.0
C378 C 0.13907 0.87021 0.7615 0.0
H379 H 0.18738 0.6932 0.73011 0.0
H380 H 0.15093 0.75037 0.73313 0.0
H381 H 0.19641 0.75303 0.71365 0.0
H382 H 0.20479 0.85395 0.71533 0.0
H383 H 0.15039 0.91427 0.69915 0.0
H384 H 0.16831 0.10646 0.74076 0.0
H385 H 0.23429 0.15871 0.75013 0.0
H386 H 0.19752 0.28066 0.70206 0.0
H387 H 0.1317 0.22912 0.69285 0.0
H388 H 0.30605 0.20002 0.72476 0.0
H389 H 0.20391 0.36455 0.76118 0.0
H390 H 0.18169 0.29912 0.75425 0.0
H391 H 0.19119 0.34843 0.73253 0.0
C392 C 0.17468 0.14407 0.73203 0.0
C393 C 0.14444 0.16422 0.7164 0.0
C394 C 0.21229 0.17389 0.73739 0.0
C395 C 0.22028 0.22413 0.72713 0.0
C396 C 0.19143 0.24268 0.71059 0.0
H397 H 0.45834 0.42319 0.74269 0.0
H398 H 0.40039 0.36626 0.72655 0.0
C399 C 0.15379 0.21323 0.70538 0.0
C400 C 0.25731 0.25866 0.73452 0.0
H401 H 0.28015 0.38076 0.75849 0.0
C402 C 0.3005 0.23957 0.73212 0.0
C403 C 0.24989 0.31003 0.74432 0.0
C404 C 0.20418 0.33167 0.74845 0.0
C405 C 0.33652 0.27063 0.73923 0.0
C406 C 0.32905 0.32234 0.7487 0.0
C407 C 0.28585 0.34135 0.75101 0.0
C408 C 0.36499 0.35594 0.758 0.0
C409 C 0.3821 0.24723 0.73719 0.0
C410 C 0.36383 0.36992 0.78084 0.0
C411 C 0.39637 0.40266 0.78996 0.0
C412 C 0.43094 0.42234 0.77645 0.0
C413 C 0.43216 0.40855 0.75352 0.0
C414 C 0.3993 0.3757 0.74433 0.0
H415 H 0.38142 0.20297 0.73406 0.0
H416 H 0.39955 0.26677 0.7229 0.0
H417 H 0.40117 0.25506 0.75269 0.0
H418 H 0.33765 0.35531 0.79169 0.0
H419 H 0.39439 0.41239 0.8077 0.0
H420 H 0.83749 0.01177 0.7087 0.0
H421 H 0.78039 0.06972 0.7245 0.0
H422 H 0.87911 0.1772 0.75055 0.0
H423 H 0.93682 0.11976 0.73437 0.0
H424 H 0.76483 0.09646 0.76832 0.0
H425 H 0.79774 0.28091 0.71779 0.0
H426 H 0.8211 0.21598 0.71075 0.0
H427 H 0.84441 0.25607 0.73286 0.0
C428 C 0.84725 0.04785 0.71768 0.0
C429 C 0.89187 0.06116 0.72017 0.0
C430 C 0.81445 0.08094 0.72674 0.0
C431 C 0.82537 0.12817 0.73847 0.0
C432 C 0.86985 0.14153 0.74116 0.0
H433 H 0.65036 0.30555 0.82795 0.0
H434 H 0.70724 0.24808 0.81158 0.0
C435 C 0.90282 0.10845 0.73202 0.0
C436 C 0.78996 0.16228 0.74833 0.0
H437 H 0.7452 0.28887 0.74731 0.0
C438 C 0.76052 0.13853 0.76371 0.0
C439 C 0.78399 0.21695 0.74207 0.0
C440 C 0.81319 0.24398 0.72481 0.0
C441 C 0.72556 0.16802 0.77317 0.0
C442 C 0.72031 0.22308 0.76738 0.0
C443 C 0.74945 0.24674 0.75183 0.0
C444 C 0.68485 0.25689 0.77735 0.0
C445 C 0.69408 0.13961 0.78893 0.0
C446 C 0.65359 0.28164 0.76354 0.0
C447 C 0.62084 0.31462 0.77288 0.0
C448 C 0.61882 0.32374 0.79623 0.0
C449 C 0.65017 0.2986 0.80999 0.0
C450 C 0.68289 0.26575 0.80064 0.0
H451 H 0.69542 0.09502 0.78682 0.0
H452 H 0.703 0.14909 0.80655 0.0
H453 H 0.65983 0.1533 0.78619 0.0
H454 H 0.65453 0.2754 0.74551 0.0
H455 H 0.59713 0.33299 0.7618 0.0
H456 H 0.70529 0.51214 0.79677 0.0
H457 H 0.76248 0.56994 0.78099 0.0
H458 H 0.66392 0.67675 0.75435 0.0
H459 H 0.6061 0.61945 0.77053 0.0
H460 H 0.77832 0.596 0.7371 0.0
H461 H 0.7448 0.78098 0.78726 0.0
H462 H 0.72146 0.71607 0.79436 0.0
H463 H 0.69831 0.75583 0.77212 0.0
C464 C 0.69558 0.54803 0.78766 0.0
C465 C 0.651 0.56122 0.785 0.0
C466 C 0.72842 0.58103 0.77862 0.0
C467 C 0.71755 0.62803 0.76674 0.0
C468 C 0.6731 0.64125 0.76386 0.0
H469 H 0.89332 0.80457 0.67758 0.0
H470 H 0.83629 0.74719 0.69386 0.0
C471 C 0.64008 0.60827 0.77299 0.0
C472 C 0.753 0.66203 0.75693 0.0
H473 H 0.79774 0.7886 0.75792 0.0
C474 C 0.78259 0.63811 0.74167 0.0
C475 C 0.75888 0.71675 0.76314 0.0
C476 C 0.72947 0.74392 0.78027 0.0
C477 C 0.81766 0.66749 0.7323 0.0
C478 C 0.82284 0.72259 0.73803 0.0
C479 C 0.79353 0.74642 0.75345 0.0
C480 C 0.85837 0.75627 0.72813 0.0
C481 C 0.84934 0.63894 0.71667 0.0
C482 C 0.88948 0.78112 0.74201 0.0
C483 C 0.92229 0.81405 0.73273 0.0
C484 C 0.9245 0.82298 0.70938 0.0
C485 C 0.89332 0.79773 0.69555 0.0
C486 C 0.86053 0.76495 0.70484 0.0
H487 H 0.84796 0.59436 0.71884 0.0
H488 H 0.84064 0.64823 0.69901 0.0
H489 H 0.88355 0.65266 0.7195 0.0
H490 H 0.88836 0.77501 0.76005 0.0
H491 H 0.94588 0.83255 0.74384 0.0
loop_
_geom_bond_atom_site_label_1
_geom_bond_atom_site_label_2
_geom_bond_distance
_geom_bond_site_symmetry_2
_ccdc_geom_bond_type
Co0 N4 2.148 1_465 S
Co0 N10 2.128 . S
Co0 N20 2.193 1_465 S
Co0 O25 2.351 1_455 S
Co0 O26 2.155 1_455 S
Co0 O27 2.096 1_565 S
C1 N4 1.301 . S
C1 N5 1.328 . S
C1 H6 0.930 . S
C2 C3 1.333 . S
C2 N4 1.317 . S
C2 H7 0.930 . S
C3 C2 1.333 . S
C3 N5 1.350 . S
C3 H29 0.931 . S
N4 Co0 2.148 1_645 S
N4 C1 1.301 . S
N4 C2 1.317 . S
N5 C1 1.328 . S
N5 C3 1.350 . S
H6 C1 0.930 . S
H7 C2 0.930 . S
C8 O9 1.224 . S
C8 O27 1.247 . S
O9 C8 1.224 . S
N10 Co0 2.128 . S
N10 C11 1.355 . S
N10 C13 1.311 . S
C11 N10 1.355 . S
C11 C12 1.363 . S
C11 H23 0.929 . S
C12 C11 1.363 . S
C12 N14 1.375 . S
C12 H30 0.931 . S
C13 N10 1.311 . S
C13 N14 1.347 . S
C13 H24 0.929 . S
N14 C12 1.375 . S
N14 C13 1.347 . S
C15 C18 1.365 . S
C15 N20 1.332 1_565 S
C15 H21 0.929 . S
C16 C17 1.362 . S
C16 C19 1.378 . S
C16 H31 0.929 . S
C17 C16 1.362 . S
C17 C18 1.366 1_445 S
C18 C15 1.365 . S
C18 C17 1.366 1_665 S
C18 H32 0.930 . S
C19 C16 1.378 . S
C19 N20 1.311 1_455 S
C19 H22 0.930 . S
N20 Co0 2.193 1_645 S
N20 C15 1.332 1_545 S
N20 C19 1.311 1_655 S
H21 C15 0.929 . S
H22 C19 0.930 . S
H23 C11 0.929 . S
H24 C13 0.929 . S
O25 Co0 2.351 1_655 S
O25 C28 1.244 . S
O26 Co0 2.155 1_655 S
O26 C28 1.240 . S
O27 Co0 2.096 1_545 S
O27 C8 1.247 . S
C28 O25 1.244 . S
C28 O26 1.240 . S
H29 C3 0.931 . S
H30 C12 0.931 . S
H31 C16 0.929 . S
H32 C18 0.930 . S
Co33 N37 2.148 1_565 S
Co33 N43 2.128 1_455 S
Co33 N53 2.194 1_565 S
Co33 O58 2.351 . S
Co33 O59 2.155 . S
Co33 O60 2.096 1_465 S
C34 N37 1.301 . S
C34 N38 1.328 . S
C34 H39 0.930 . S
C35 C36 1.333 . S
C35 N37 1.317 . S
C35 H40 0.930 . S
C36 C35 1.333 . S
C36 N38 1.350 . S
C36 H62 0.931 . S
N37 Co33 2.148 1_545 S
N37 C34 1.301 . S
N37 C35 1.317 . S
N38 C34 1.328 . S
N38 C36 1.350 . S
H39 C34 0.930 . S
H40 C35 0.930 . S
C41 O42 1.224 . S
C41 O60 1.247 . S
O42 C41 1.224 . S
N43 Co33 2.128 1_655 S
N43 C44 1.355 . S
N43 C46 1.311 . S
C44 N43 1.355 . S
C44 C45 1.363 . S
C44 H56 0.929 . S
C45 C44 1.363 . S
C45 N47 1.375 . S
C45 H63 0.931 . S
C46 N43 1.311 . S
C46 N47 1.347 . S
C46 H57 0.929 . S
N47 C45 1.375 . S
N47 C46 1.347 . S
C48 C51 1.365 . S
C48 N53 1.328 1_565 S
C48 H54 0.929 . S
C49 C50 1.362 1_655 S
C49 C52 1.378 . S
C49 H64 0.929 . S
C50 C49 1.362 1_455 S
C50 C51 1.366 1_545 S
C51 C48 1.365 . S
C51 C50 1.366 1_565 S
C51 H65 0.930 . S
C52 C49 1.378 . S
C52 N53 1.315 1_655 S
C52 H55 0.930 . S
N53 Co33 2.194 1_545 S
N53 C48 1.328 1_545 S
N53 C52 1.315 1_455 S
H54 C48 0.929 . S
H55 C52 0.930 . S
H56 C44 0.929 . S
H57 C46 0.929 . S
O58 Co33 2.351 . S
O58 C61 1.244 . S
O59 Co33 2.155 . S
O59 C61 1.240 . S
O60 Co33 2.096 1_645 S
O60 C41 1.247 . S
C61 O58 1.244 . S
C61 O59 1.240 . S
H62 C36 0.931 . S
H63 C45 0.931 . S
H64 C49 0.929 . S
H65 C51 0.930 . S
Co66 N70 2.148 . S
Co66 N76 2.128 . S
Co66 N86 2.194 . S
Co66 O91 2.351 . S
Co66 O92 2.155 . S
Co66 O93 2.096 . S
C67 N70 1.301 . S
C67 N71 1.328 . S
C67 H72 0.930 . S
C68 C69 1.333 . S
C68 N70 1.317 . S
C68 H73 0.930 . S
C69 C68 1.333 . S
C69 N71 1.350 . S
C69 H95 0.931 . S
N70 Co66 2.148 . S
N70 C67 1.301 . S
N70 C68 1.317 . S
N71 C67 1.328 . S
N71 C69 1.350 . S
H72 C67 0.930 . S
H73 C68 0.930 . S
C74 O75 1.224 . S
C74 O93 1.247 . S
O75 C74 1.224 . S
N76 Co66 2.128 . S
N76 C77 1.355 . S
N76 C79 1.311 . S
C77 N76 1.355 . S
C77 C78 1.363 . S
C77 H89 0.929 . S
C78 C77 1.363 . S
C78 N80 1.375 . S
C78 H96 0.931 . S
C79 N76 1.311 . S
C79 N80 1.347 . S
C79 H90 0.929 . S
N80 C78 1.375 . S
N80 C79 1.347 . S
C81 C84 1.365 . S
C81 N86 1.328 . S
C81 H87 0.929 . S
C82 C83 1.362 . S
C82 C85 1.378 . S
C82 H97 0.929 . S
C83 C82 1.362 . S
C83 C84 1.366 . S
C84 C81 1.365 . S
C84 C83 1.366 . S
C84 H98 0.930 . S
C85 C82 1.378 . S
C85 N86 1.315 . S
C85 H88 0.930 . S
N86 Co66 2.194 . S
N86 C81 1.328 . S
N86 C85 1.315 . S
H87 C81 0.929 . S
H88 C85 0.930 . S
H89 C77 0.929 . S
H90 C79 0.929 . S
O91 Co66 2.351 . S
O91 C94 1.244 . S
O92 Co66 2.155 . S
O92 C94 1.240 . S
O93 Co66 2.096 . S
O93 C74 1.247 . S
C94 O91 1.244 . S
C94 O92 1.240 . S
H95 C69 0.931 . S
H96 C78 0.931 . S
H97 C82 0.929 . S
H98 C84 0.930 . S
Co99 N103 2.148 . S
Co99 N109 2.128 . S
Co99 N119 2.194 . S
Co99 O124 2.351 . S
Co99 O125 2.155 . S
Co99 O126 2.096 . S
C100 N103 1.301 . S
C100 N104 1.328 . S
C100 H105 0.930 . S
C101 C102 1.333 . S
C101 N103 1.317 . S
C101 H106 0.930 . S
C102 C101 1.333 . S
C102 N104 1.350 . S
C102 H128 0.931 . S
N103 Co99 2.148 . S
N103 C100 1.301 . S
N103 C101 1.317 . S
N104 C100 1.328 . S
N104 C102 1.350 . S
H105 C100 0.930 . S
H106 C101 0.930 . S
C107 O108 1.224 . S
C107 O126 1.247 . S
O108 C107 1.224 . S
N109 Co99 2.128 . S
N109 C110 1.355 . S
N109 C112 1.311 . S
C110 N109 1.355 . S
C110 C111 1.363 . S
C110 H122 0.929 . S
C111 C110 1.363 . S
C111 N113 1.375 . S
C111 H129 0.931 . S
C112 N109 1.311 . S
C112 N113 1.347 . S
C112 H123 0.929 . S
N113 C111 1.375 . S
N113 C112 1.347 . S
C114 C117 1.365 . S
C114 N119 1.328 . S
C114 H120 0.929 . S
C115 C116 1.362 . S
C115 C118 1.378 . S
C115 H130 0.929 . S
C116 C115 1.362 . S
C116 C117 1.366 . S
C117 C114 1.365 . S
C117 C116 1.366 . S
C117 H131 0.930 . S
C118 C115 1.378 . S
C118 N119 1.315 . S
C118 H121 0.930 . S
N119 Co99 2.194 . S
N119 C114 1.328 . S
N119 C118 1.315 . S
H120 C114 0.929 . S
H121 C118 0.930 . S
H122 C110 0.929 . S
H123 C112 0.929 . S
O124 Co99 2.351 . S
O124 C127 1.244 . S
O125 Co99 2.155 . S
O125 C127 1.240 . S
O126 Co99 2.096 . S
O126 C107 1.247 . S
C127 O124 1.244 . S
C127 O125 1.240 . S
H128 C102 0.931 . S
H129 C111 0.931 . S
H130 C115 0.929 . S
H131 C117 0.930 . S
H132 C140 0.929 . S
H133 C142 0.930 . S
H134 C144 0.930 . S
H135 C147 0.929 . S
H136 C150 0.930 . S
H137 C152 0.960 . S
H138 C152 0.960 . S
H139 C152 0.960 . S
C140 H132 0.929 . S
C140 C141 1.377 1_665 S
C140 C142 1.384 . S
C141 C140 1.377 1_445 S
C141 C147 1.390 . S
C142 H133 0.930 . S
C142 C140 1.384 . S
C142 C143 1.372 1_665 S
C143 C142 1.372 1_445 S
C143 C144 1.400 . S
C143 C148 1.490 1_545 S
C144 H134 0.930 . S
C144 C143 1.400 . S
C144 C147 1.386 . S
H145 C161 0.930 . S
H146 C162 0.931 . S
C147 H135 0.929 . S
C147 C141 1.390 . S
C147 C144 1.386 . S
C148 C143 1.490 1_565 S
C148 C150 1.397 . S
C148 C151 1.400 1_465 S
H149 C155 0.930 . S
C150 H136 0.930 . S
C150 C148 1.397 . S
C150 C153 1.403 . S
C151 C148 1.400 1_645 S
C151 C152 1.524 . S
C151 C155 1.400 . S
C152 H137 0.960 . S
C152 H138 0.960 . S
C152 H139 0.960 . S
C152 C151 1.524 . S
C153 C150 1.403 . S
C153 C154 1.392 . S
C153 C157 1.495 . S
C154 C153 1.392 . S
C154 C155 1.385 1_465 S
C154 C156 1.478 . S
C155 H149 0.930 . S
C155 C151 1.400 . S
C155 C154 1.385 1_645 S
C156 C154 1.478 . S
C156 C158 1.381 1_455 S
C156 C162 1.383 1_565 S
C157 C153 1.495 . S
C157 H163 0.959 . S
C157 H164 0.961 . S
C157 H165 0.960 . S
C158 C156 1.381 1_655 S
C158 C159 1.394 . S
C158 H166 0.930 . S
C159 C158 1.394 . S
C159 C160 1.383 1_655 S
C159 H167 0.929 . S
C160 C159 1.383 1_455 S
C160 C161 1.377 1_565 S
C161 H145 0.930 . S
C161 C160 1.377 1_545 S
C161 C162 1.379 . S
C162 H146 0.931 . S
C162 C156 1.383 1_545 S
C162 C161 1.379 . S
H163 C157 0.959 . S
H164 C157 0.961 . S
H165 C157 0.960 . S
H166 C158 0.930 . S
H167 C159 0.929 . S
H168 C176 0.929 . S
H169 C178 0.930 . S
H170 C180 0.930 . S
H171 C183 0.929 . S
H172 C186 0.930 . S
H173 C188 0.960 . S
H174 C188 0.960 . S
H175 C188 0.960 . S
C176 H168 0.929 . S
C176 C177 1.377 . S
C176 C178 1.384 . S
C177 C176 1.377 . S
C177 C183 1.390 . S
C178 H169 0.930 . S
C178 C176 1.384 . S
C178 C179 1.372 . S
C179 C178 1.372 . S
C179 C180 1.400 . S
C179 C184 1.490 . S
C180 H170 0.930 . S
C180 C179 1.400 . S
C180 C183 1.386 . S
H181 C197 0.930 . S
H182 C198 0.931 . S
C183 H171 0.929 . S
C183 C177 1.390 . S
C183 C180 1.386 . S
C184 C179 1.490 . S
C184 C186 1.395 . S
C184 C187 1.403 . S
H185 C191 0.930 . S
C186 H172 0.930 . S
C186 C184 1.395 . S
C186 C189 1.403 1_554 S
C187 C184 1.403 . S
C187 C188 1.524 . S
C187 C191 1.400 1_554 S
C188 H173 0.960 . S
C188 H174 0.960 . S
C188 H175 0.960 . S
C188 C187 1.524 . S
C189 C186 1.403 1_556 S
C189 C190 1.392 . S
C189 C193 1.495 . S
C190 C189 1.392 . S
C190 C191 1.385 . S
C190 C192 1.478 . S
C191 H185 0.930 . S
C191 C187 1.400 1_556 S
C191 C190 1.385 . S
C192 C190 1.478 . S
C192 C194 1.381 . S
C192 C198 1.383 . S
C193 C189 1.495 . S
C193 H199 0.959 . S
C193 H200 0.961 . S
C193 H201 0.960 . S
C194 C192 1.381 . S
C194 C195 1.394 . S
C194 H202 0.930 . S
C195 C194 1.394 . S
C195 C196 1.383 . S
C195 H203 0.929 . S
C196 C195 1.383 . S
C196 C197 1.377 . S
C197 H181 0.930 . S
C197 C196 1.377 . S
C197 C198 1.379 . S
C198 H182 0.931 . S
C198 C192 1.383 . S
C198 C197 1.379 . S
H199 C193 0.959 . S
H200 C193 0.961 . S
H201 C193 0.960 . S
H202 C194 0.930 . S
H203 C195 0.929 . S
H204 C212 0.929 . S
H205 C214 0.930 . S
H206 C216 0.930 . S
H207 C219 0.929 . S
H208 C222 0.930 . S
H209 C224 0.960 . S
H210 C224 0.960 . S
H211 C224 0.960 . S
C212 H204 0.929 . S
C212 C213 1.377 . S
C212 C214 1.384 . S
C213 C212 1.377 . S
C213 C219 1.390 . S
C214 H205 0.930 . S
C214 C212 1.384 . S
C214 C215 1.372 . S
C215 C214 1.372 . S
C215 C216 1.400 . S
C215 C220 1.490 . S
C216 H206 0.930 . S
C216 C215 1.400 . S
C216 C219 1.386 . S
H217 C233 0.930 . S
H218 C234 0.931 . S
C219 H207 0.929 . S
C219 C213 1.390 . S
C219 C216 1.386 . S
C220 C215 1.490 . S
C220 C222 1.395 . S
C220 C223 1.403 . S
H221 C227 0.930 . S
C222 H208 0.930 . S
C222 C220 1.395 . S
C222 C225 1.403 . S
C223 C220 1.403 . S
C223 C224 1.524 . S
C223 C227 1.400 . S
C224 H209 0.960 . S
C224 H210 0.960 . S
C224 H211 0.960 . S
C224 C223 1.524 . S
C225 C222 1.403 . S
C225 C226 1.392 . S
C225 C229 1.495 . S
C226 C225 1.392 . S
C226 C227 1.385 . S
C226 C228 1.478 . S
C227 H221 0.930 . S
C227 C223 1.400 . S
C227 C226 1.385 . S
C228 C226 1.478 . S
C228 C230 1.381 . S
C228 C234 1.383 . S
C229 C225 1.495 . S
C229 H235 0.959 . S
C229 H236 0.961 . S
C229 H237 0.960 . S
C230 C228 1.381 . S
C230 C231 1.394 . S
C230 H238 0.930 . S
C231 C230 1.394 . S
C231 C232 1.383 . S
C231 H239 0.929 . S
C232 C231 1.383 . S
C232 C233 1.377 . S
C233 H217 0.930 . S
C233 C232 1.377 . S
C233 C234 1.379 . S
C234 H218 0.931 . S
C234 C228 1.383 . S
C234 C233 1.379 . S
H235 C229 0.959 . S
H236 C229 0.961 . S
H237 C229 0.960 . S
H238 C230 0.930 . S
H239 C231 0.929 . S
H240 C248 0.929 . S
H241 C250 0.930 . S
H242 C252 0.930 . S
H243 C255 0.929 . S
H244 C258 0.930 . S
H245 C260 0.960 . S
H246 C260 0.960 . S
H247 C260 0.960 . S
C248 H240 0.929 . S
C248 C249 1.377 . S
C248 C250 1.384 . S
C249 C248 1.377 . S
C249 C255 1.390 . S
C250 H241 0.930 . S
C250 C248 1.384 . S
C250 C251 1.372 . S
C251 C250 1.372 . S
C251 C252 1.400 . S
C251 C256 1.490 . S
C252 H242 0.930 . S
C252 C251 1.400 . S
C252 C255 1.386 . S
H253 C269 0.930 . S
H254 C270 0.931 . S
C255 H243 0.929 . S
C255 C249 1.390 . S
C255 C252 1.386 . S
C256 C251 1.490 . S
C256 C258 1.395 . S
C256 C259 1.403 . S
H257 C263 0.930 . S
C258 H244 0.930 . S
C258 C256 1.395 . S
C258 C261 1.403 . S
C259 C256 1.403 . S
C259 C260 1.524 . S
C259 C263 1.400 . S
C260 H245 0.960 . S
C260 H246 0.960 . S
C260 H247 0.960 . S
C260 C259 1.524 . S
C261 C258 1.403 . S
C261 C262 1.392 . S
C261 C265 1.495 . S
C262 C261 1.392 . S
C262 C263 1.385 . S
C262 C264 1.478 . S
C263 H257 0.930 . S
C263 C259 1.400 . S
C263 C262 1.385 . S
C264 C262 1.478 . S
C264 C266 1.381 . S
C264 C270 1.383 . S
C265 C261 1.495 . S
C265 H271 0.959 . S
C265 H272 0.961 . S
C265 H273 0.960 . S
C266 C264 1.381 . S
C266 C267 1.394 . S
C266 H274 0.930 . S
C267 C266 1.394 . S
C267 C268 1.383 . S
C267 H275 0.929 . S
C268 C267 1.383 . S
C268 C269 1.377 . S
C269 H253 0.930 . S
C269 C268 1.377 . S
C269 C270 1.379 . S
C270 H254 0.931 . S
C270 C264 1.383 . S
C270 C269 1.379 . S
H271 C265 0.959 . S
H272 C265 0.961 . S
H273 C265 0.960 . S
H274 C266 0.930 . S
H275 C267 0.929 . S
H276 C284 0.929 . S
H277 C286 0.930 . S
H278 C288 0.930 . S
H279 C291 0.929 . S
H280 C294 0.930 . S
H281 C296 0.960 . S
H282 C296 0.960 . S
H283 C296 0.960 . S
C284 H276 0.929 . S
C284 C285 1.377 . S
C284 C286 1.384 . S
C285 C284 1.377 . S
C285 C291 1.390 . S
C286 H277 0.930 . S
C286 C284 1.384 . S
C286 C287 1.372 . S
C287 C286 1.372 . S
C287 C288 1.400 . S
C287 C292 1.490 . S
C288 H278 0.930 . S
C288 C287 1.400 . S
C288 C291 1.386 . S
H289 C305 0.930 . S
H290 C306 0.931 . S
C291 H279 0.929 . S
C291 C285 1.390 . S
C291 C288 1.386 . S
C292 C287 1.490 . S
C292 C294 1.395 . S
C292 C295 1.403 . S
H293 C299 0.930 . S
C294 H280 0.930 . S
C294 C292 1.395 . S
C294 C297 1.403 . S
C295 C292 1.403 . S
C295 C296 1.524 . S
C295 C299 1.400 . S
C296 H281 0.960 . S
C296 H282 0.960 . S
C296 H283 0.960 . S
C296 C295 1.524 . S
C297 C294 1.403 . S
C297 C298 1.392 . S
C297 C301 1.495 . S
C298 C297 1.392 . S
C298 C299 1.385 . S
C298 C300 1.478 . S
C299 H293 0.930 . S
C299 C295 1.400 . S
C299 C298 1.385 . S
C300 C298 1.478 . S
C300 C302 1.381 . S
C300 C306 1.383 . S
C301 C297 1.495 . S
C301 H307 0.959 . S
C301 H308 0.961 . S
C301 H309 0.960 . S
C302 C300 1.381 . S
C302 C303 1.394 . S
C302 H310 0.930 . S
C303 C302 1.394 . S
C303 C304 1.383 . S
C303 H311 0.929 . S
C304 C303 1.383 . S
C304 C305 1.377 . S
C305 H289 0.930 . S
C305 C304 1.377 . S
C305 C306 1.379 . S
C306 H290 0.931 . S
C306 C300 1.383 . S
C306 C305 1.379 . S
H307 C301 0.959 . S
H308 C301 0.961 . S
H309 C301 0.960 . S
H310 C302 0.930 . S
H311 C303 0.929 . S
H312 C320 0.929 . S
H313 C322 0.930 . S
H314 C324 0.930 . S
H315 C327 0.929 . S
H316 C330 0.930 . S
H317 C332 0.960 . S
H318 C332 0.960 . S
H319 C332 0.960 . S
C320 H312 0.929 . S
C320 C321 1.377 . S
C320 C322 1.384 . S
C321 C320 1.377 . S
C321 C327 1.390 . S
C322 H313 0.930 . S
C322 C320 1.384 . S
C322 C323 1.372 . S
C323 C322 1.372 . S
C323 C324 1.400 . S
C323 C328 1.490 . S
C324 H314 0.930 . S
C324 C323 1.400 . S
C324 C327 1.386 . S
H325 C341 0.930 . S
H326 C342 0.931 . S
C327 H315 0.929 . S
C327 C321 1.390 . S
C327 C324 1.386 . S
C328 C323 1.490 . S
C328 C330 1.395 . S
C328 C331 1.403 . S
H329 C335 0.930 . S
C330 H316 0.930 . S
C330 C328 1.395 . S
C330 C333 1.403 . S
C331 C328 1.403 . S
C331 C332 1.524 . S
C331 C335 1.400 . S
C332 H317 0.960 . S
C332 H318 0.960 . S
C332 H319 0.960 . S
C332 C331 1.524 . S
C333 C330 1.403 . S
C333 C334 1.392 . S
C333 C337 1.495 . S
C334 C333 1.392 . S
C334 C335 1.385 . S
C334 C336 1.478 . S
C335 H329 0.930 . S
C335 C331 1.400 . S
C335 C334 1.385 . S
C336 C334 1.478 . S
C336 C338 1.381 . S
C336 C342 1.383 . S
C337 C333 1.495 . S
C337 H343 0.959 . S
C337 H344 0.961 . S
C337 H345 0.960 . S
C338 C336 1.381 . S
C338 C339 1.394 . S
C338 H346 0.930 . S
C339 C338 1.394 . S
C339 C340 1.383 . S
C339 H347 0.929 . S
C340 C339 1.383 . S
C340 C341 1.377 . S
C341 H325 0.930 . S
C341 C340 1.377 . S
C341 C342 1.379 . S
C342 H326 0.931 . S
C342 C336 1.383 . S
C342 C341 1.379 . S
H343 C337 0.959 . S
H344 C337 0.961 . S
H345 C337 0.960 . S
H346 C338 0.930 . S
H347 C339 0.929 . S
H348 C356 0.929 . S
H349 C358 0.930 . S
H350 C360 0.930 . S
H351 C363 0.929 . S
H352 C366 0.930 . S
H353 C368 0.960 . S
H354 C368 0.960 . S
H355 C368 0.960 . S
C356 H348 0.929 . S
C356 C357 1.377 . S
C356 C358 1.384 . S
C357 C356 1.377 . S
C357 C363 1.390 . S
C358 H349 0.930 . S
C358 C356 1.384 . S
C358 C359 1.372 . S
C359 C358 1.372 . S
C359 C360 1.400 . S
C359 C364 1.490 . S
C360 H350 0.930 . S
C360 C359 1.400 . S
C360 C363 1.386 . S
H361 C377 0.930 . S
H362 C378 0.931 . S
C363 H351 0.929 . S
C363 C357 1.390 . S
C363 C360 1.386 . S
C364 C359 1.490 . S
C364 C366 1.395 . S
C364 C367 1.403 . S
H365 C371 0.930 . S
C366 H352 0.930 . S
C366 C364 1.395 . S
C366 C369 1.403 . S
C367 C364 1.403 . S
C367 C368 1.524 . S
C367 C371 1.400 . S
C368 H353 0.960 . S
C368 H354 0.960 . S
C368 H355 0.960 . S
C368 C367 1.524 . S
C369 C366 1.403 . S
C369 C370 1.392 . S
C369 C373 1.495 . S
C370 C369 1.392 . S
C370 C371 1.385 . S
C370 C372 1.478 . S
C371 H365 0.930 . S
C371 C367 1.400 . S
C371 C370 1.385 . S
C372 C370 1.478 . S
C372 C374 1.381 . S
C372 C378 1.383 . S
C373 C369 1.495 . S
C373 H379 0.959 . S
C373 H380 0.961 . S
C373 H381 0.960 . S
C374 C372 1.381 . S
C374 C375 1.394 . S
C374 H382 0.930 . S
C375 C374 1.394 . S
C375 C376 1.383 . S
C375 H383 0.929 . S
C376 C375 1.383 . S
C376 C377 1.377 . S
C377 H361 0.930 . S
C377 C376 1.377 . S
C377 C378 1.379 . S
C378 H362 0.931 . S
C378 C372 1.383 . S
C378 C377 1.379 . S
H379 C373 0.959 . S
H380 C373 0.961 . S
H381 C373 0.960 . S
H382 C374 0.930 . S
H383 C375 0.929 . S
H384 C392 0.929 . S
H385 C394 0.930 . S
H386 C396 0.930 . S
H387 C399 0.929 . S
H388 C402 0.930 . S
H389 C404 0.960 . S
H390 C404 0.960 . S
H391 C404 0.960 . S
C392 H384 0.929 . S
C392 C393 1.377 . S
C392 C394 1.384 . S
C393 C392 1.377 . S
C393 C399 1.390 . S
C394 H385 0.930 . S
C394 C392 1.384 . S
C394 C395 1.372 . S
C395 C394 1.372 . S
C395 C396 1.400 . S
C395 C400 1.490 . S
C396 H386 0.930 . S
C396 C395 1.400 . S
C396 C399 1.386 . S
H397 C413 0.930 . S
H398 C414 0.931 . S
C399 H387 0.929 . S
C399 C393 1.390 . S
C399 C396 1.386 . S
C400 C395 1.490 . S
C400 C402 1.395 . S
C400 C403 1.403 . S
H401 C407 0.930 . S
C402 H388 0.930 . S
C402 C400 1.395 . S
C402 C405 1.403 . S
C403 C400 1.403 . S
C403 C404 1.524 . S
C403 C407 1.400 . S
C404 H389 0.960 . S
C404 H390 0.960 . S
C404 H391 0.960 . S
C404 C403 1.524 . S
C405 C402 1.403 . S
C405 C406 1.392 . S
C405 C409 1.495 . S
C406 C405 1.392 . S
C406 C407 1.385 . S
C406 C408 1.478 . S
C407 H401 0.930 . S
C407 C403 1.400 . S
C407 C406 1.385 . S
C408 C406 1.478 . S
C408 C410 1.381 . S
C408 C414 1.383 . S
C409 C405 1.495 . S
C409 H415 0.959 . S
C409 H416 0.961 . S
C409 H417 0.960 . S
C410 C408 1.381 . S
C410 C411 1.394 . S
C410 H418 0.930 . S
C411 C410 1.394 . S
C411 C412 1.383 . S
C411 H419 0.929 . S
C412 C411 1.383 . S
C412 C413 1.377 . S
C413 H397 0.930 . S
C413 C412 1.377 . S
C413 C414 1.379 . S
C414 H398 0.931 . S
C414 C408 1.383 . S
C414 C413 1.379 . S
H415 C409 0.959 . S
H416 C409 0.961 . S
H417 C409 0.960 . S
H418 C410 0.930 . S
H419 C411 0.929 . S
H420 C428 0.929 . S
H421 C430 0.930 . S
H422 C432 0.930 . S
H423 C435 0.929 . S
H424 C438 0.930 . S
H425 C440 0.960 . S
H426 C440 0.960 . S
H427 C440 0.960 . S
C428 H420 0.929 . S
C428 C429 1.377 . S
C428 C430 1.384 . S
C429 C428 1.377 . S
C429 C435 1.390 . S
C430 H421 0.930 . S
C430 C428 1.384 . S
C430 C431 1.372 . S
C431 C430 1.372 . S
C431 C432 1.400 . S
C431 C436 1.490 . S
C432 H422 0.930 . S
C432 C431 1.400 . S
C432 C435 1.386 . S
H433 C449 0.930 . S
H434 C450 0.931 . S
C435 H423 0.929 . S
C435 C429 1.390 . S
C435 C432 1.386 . S
C436 C431 1.490 . S
C436 C438 1.395 . S
C436 C439 1.403 . S
H437 C443 0.930 . S
C438 H424 0.930 . S
C438 C436 1.395 . S
C438 C441 1.403 . S
C439 C436 1.403 . S
C439 C440 1.524 . S
C439 C443 1.400 . S
C440 H425 0.960 . S
C440 H426 0.960 . S
C440 H427 0.960 . S
C440 C439 1.524 . S
C441 C438 1.403 . S
C441 C442 1.392 . S
C441 C445 1.495 . S
C442 C441 1.392 . S
C442 C443 1.385 . S
C442 C444 1.478 . S
C443 H437 0.930 . S
C443 C439 1.400 . S
C443 C442 1.385 . S
C444 C442 1.478 . S
C444 C446 1.381 . S
C444 C450 1.383 . S
C445 C441 1.495 . S
C445 H451 0.959 . S
C445 H452 0.961 . S
C445 H453 0.960 . S
C446 C444 1.381 . S
C446 C447 1.394 . S
C446 H454 0.930 . S
C447 C446 1.394 . S
C447 C448 1.383 . S
C447 H455 0.929 . S
C448 C447 1.383 . S
C448 C449 1.377 . S
C449 H433 0.930 . S
C449 C448 1.377 . S
C449 C450 1.379 . S
C450 H434 0.931 . S
C450 C444 1.383 . S
C450 C449 1.379 . S
H451 C445 0.959 . S
H452 C445 0.961 . S
H453 C445 0.960 . S
H454 C446 0.930 . S
H455 C447 0.929 . S
H456 C464 0.929 . S
H457 C466 0.930 . S
H458 C468 0.930 . S
H459 C471 0.929 . S
H460 C474 0.930 . S
H461 C476 0.960 . S
H462 C476 0.960 . S
H463 C476 0.960 . S
C464 H456 0.929 . S
C464 C465 1.377 . S
C464 C466 1.384 . S
C465 C464 1.377 . S
C465 C471 1.390 . S
C466 H457 0.930 . S
C466 C464 1.384 . S
C466 C467 1.372 . S
C467 C466 1.372 . S
C467 C468 1.400 . S
C467 C472 1.490 . S
C468 H458 0.930 . S
C468 C467 1.400 . S
C468 C471 1.386 . S
H469 C485 0.930 . S
H470 C486 0.931 . S
C471 H459 0.929 . S
C471 C465 1.390 . S
C471 C468 1.386 . S
C472 C467 1.490 . S
C472 C474 1.395 . S
C472 C475 1.403 . S
H473 C479 0.930 . S
C474 H460 0.930 . S
C474 C472 1.395 . S
C474 C477 1.403 . S
C475 C472 1.403 . S
C475 C476 1.524 . S
C475 C479 1.400 . S
C476 H461 0.960 . S
C476 H462 0.960 . S
C476 H463 0.960 . S
C476 C475 1.524 . S
C477 C474 1.403 . S
C477 C478 1.392 . S
C477 C481 1.495 . S
C478 C477 1.392 . S
C478 C479 1.385 . S
C478 C480 1.478 . S
C479 H473 0.930 . S
C479 C475 1.400 . S
C479 C478 1.385 . S
C480 C478 1.478 . S
C480 C482 1.381 . S
C480 C486 1.383 . S
C481 C477 1.495 . S
C481 H487 0.959 . S
C481 H488 0.961 . S
C481 H489 0.960 . S
C482 C480 1.381 . S
C482 C483 1.394 . S
C482 H490 0.930 . S
C483 C482 1.394 . S
C483 C484 1.383 . S
C483 H491 0.929 . S
C484 C483 1.383 . S
C484 C485 1.377 . S
C485 H469 0.930 . S
C485 C484 1.377 . S
C485 C486 1.379 . S
C486 H470 0.931 . S
C486 C480 1.383 . S
C486 C485 1.379 . S
H487 C481 0.959 . S
H488 C481 0.961 . S
H489 C481 0.960 . S
H490 C482 0.930 . S
H491 C483 0.929 . S
C141 C17 1.484 . S
C160 C50 1.481 1_565 S
C177 C116 1.484 . S
C196 C83 1.481 . S
C213 C8 1.499 . S
C232 N113 1.492 . S
C249 N5 1.347 . S
C268 C127 1.418 . S
C285 N104 1.345 . S
C304 C28 1.419 . S
C321 N14 1.479 . S
C340 C107 1.503 . S
C357 N71 1.349 . S
C376 C61 1.411 . S
C393 N38 1.346 . S
C412 C94 1.417 . S
C429 C41 1.497 . S
C448 N80 1.457 . S
C465 C74 1.497 . S
C484 N47 1.459 . S
