# Generated by pormake.
# Topology upa, (4)-cn, num edge types: 1
# Building blocks:
#     Node 0, Type 0, BuildingBlock: AZAVOO_clean_sbu_0, # of connection points: 4
#     Node 1, Type 0, BuildingBlock: AZAVOO_clean_sbu_0, # of connection points: 4
#     Node 2, Type 0, BuildingBlock: AZAVOO_clean_sbu_0, # of connection points: 4
#     Node 3, Type 0, BuildingBlock: AZAVOO_clean_sbu_0, # of connection points: 4
#     Node 4, Type 0, BuildingBlock: AZAVOO_clean_sbu_0, # of connection points: 4
#     Node 5, Type 0, BuildingBlock: AZAVOO_clean_sbu_0, # of connection points: 4
#     Node 6, Type 0, BuildingBlock: AZAVOO_clean_sbu_0, # of connection points: 4
#     Node 7, Type 0, BuildingBlock: AZAVOO_clean_sbu_0, # of connection points: 4
#     Edge 8, Type (0, 0), BuildingBlock: TEMPAE_clean_linker_10, # of connection points: 2
#     Edge 9, Type (0, 0), BuildingBlock: TEMPAE_clean_linker_10, # of connection points: 2
#     Edge 10, Type (0, 0), BuildingBlock: TEMPAE_clean_linker_10, # of connection points: 2
#     Edge 11, Type (0, 0), BuildingBlock: TEMPAE_clean_linker_10, # of connection points: 2
#     Edge 12, Type (0, 0), BuildingBlock: TEMPAE_clean_linker_10, # of connection points: 2
#     Edge 13, Type (0, 0), BuildingBlock: TEMPAE_clean_linker_10, # of connection points: 2
#     Edge 14, Type (0, 0), BuildingBlock: TEMPAE_clean_linker_10, # of connection points: 2
#     Edge 15, Type (0, 0), BuildingBlock: TEMPAE_clean_linker_10, # of connection points: 2
#     Edge 16, Type (0, 0), BuildingBlock: TEMPAE_clean_linker_10, # of connection points: 2
#     Edge 17, Type (0, 0), BuildingBlock: TEMPAE_clean_linker_10, # of connection points: 2
#     Edge 18, Type (0, 0), BuildingBlock: TEMPAE_clean_linker_10, # of connection points: 2
#     Edge 19, Type (0, 0), BuildingBlock: TEMPAE_clean_linker_10, # of connection points: 2
#     Edge 20, Type (0, 0), BuildingBlock: TEMPAE_clean_linker_10, # of connection points: 2
#     Edge 21, Type (0, 0), BuildingBlock: TEMPAE_clean_linker_10, # of connection points: 2
#     Edge 22, Type (0, 0), BuildingBlock: TEMPAE_clean_linker_10, # of connection points: 2
#     Edge 23, Type (0, 0), BuildingBlock: TEMPAE_clean_linker_10, # of connection points: 2
# Relax obj value: 0.204
# Max RMSD: 0.199
# Mean RMSD: 0.199
data_MOF--net-upa--node1-AZAVOO_clean_sbu_0--edge1-TEMPAE_clean_linker_10
_symmetry_space_group_name_H-M    P1
_symmetry_Int_Tables_number       1
_symmetry_cell_setting            triclinic
loop_
_symmetry_equiv_pos_as_xyz
'x, y, z'
_cell_length_a     27.054837
_cell_length_b     26.994206
_cell_length_c     43.864345
_cell_angle_alpha  89.966192
_cell_angle_beta   90.034837
_cell_angle_gamma 89.901985
loop_
_atom_site_label
_atom_site_type_symbol
_atom_site_fract_x
_atom_site_fract_y
_atom_site_fract_z
_atom_type_partial_charge
Mg0 Mg 0.08206 0.25774 0.33413 0.0
O1 O 0.06273 0.17675 0.34354 0.0
O2 O 0.1237 0.14037 0.36951 0.0
Mg3 Mg 0.18474 0.19811 0.37545 0.0
C4 C 0.08116 0.13906 0.35695 0.0
C5 C 0.97188 0.26277 0.31566 0.0
O6 O 0.96989 0.26117 0.34555 0.0
O7 O 0.13618 0.23537 0.29575 0.0
O8 O 0.19639 0.20123 0.32392 0.0
O9 O 0.05271 0.27752 0.38049 0.0
O10 O 0.13049 0.25821 0.37119 0.0
C11 C 0.1785 0.2143 0.29818 0.0
C12 C 0.0967 0.26867 0.39067 0.0
O13 O 0.01403 0.2618 0.30269 0.0
Mg14 Mg 0.32256 0.69387 0.82928 0.0
O15 O 0.38709 0.64968 0.81064 0.0
O16 O 0.4575 0.69158 0.81525 0.0
Mg17 Mg 0.43649 0.76716 0.83531 0.0
C18 C 0.43367 0.6529 0.80743 0.0
C19 C 0.26277 0.59634 0.82473 0.0
O20 O 0.27325 0.59761 0.85395 0.0
O21 O 0.31955 0.74434 0.78725 0.0
O22 O 0.38837 0.78888 0.79436 0.0
O23 O 0.33992 0.6663 0.87621 0.0
O24 O 0.37003 0.73549 0.85707 0.0
C25 C 0.34884 0.77936 0.77953 0.0
C26 C 0.36812 0.7046 0.87933 0.0
O27 O 0.27421 0.63337 0.80818 0.0
Mg28 Mg 0.89326 0.70617 0.3241 0.0
O29 O 0.90391 0.78639 0.3388 0.0
O30 O 0.85906 0.80709 0.37941 0.0
Mg31 Mg 0.8097 0.7392 0.38713 0.0
C32 C 0.89112 0.81756 0.35909 0.0
C33 C 0.98491 0.74337 0.29141 0.0
O34 O 0.99216 0.75532 0.32007 0.0
O35 O 0.82242 0.73025 0.29907 0.0
O36 O 0.77642 0.74992 0.33969 0.0
O37 O 0.94668 0.68369 0.36024 0.0
O38 O 0.86593 0.68993 0.36734 0.0
C39 C 0.78214 0.74628 0.31087 0.0
C40 C 0.90942 0.68424 0.37867 0.0
O41 O 0.94517 0.72121 0.28389 0.0
Mg42 Mg 0.73089 0.30291 0.81233 0.0
O43 O 0.65772 0.33872 0.79931 0.0
O44 O 0.59446 0.29309 0.81582 0.0
Mg45 Mg 0.62814 0.22173 0.83515 0.0
C46 C 0.61155 0.33172 0.80282 0.0
C47 C 0.78772 0.39936 0.80074 0.0
O48 O 0.79155 0.39301 0.83031 0.0
O49 O 0.7257 0.24785 0.77242 0.0
O50 O 0.66349 0.20068 0.78941 0.0
O51 O 0.72336 0.33639 0.85866 0.0
O52 O 0.69614 0.2618 0.84702 0.0
C53 C 0.69646 0.21086 0.76951 0.0
C54 C 0.69986 0.29688 0.86667 0.0
O55 O 0.76793 0.3652 0.78485 0.0
Mg56 Mg 0.57913 0.25638 0.14066 0.0
O57 O 0.5609 0.33905 0.13656 0.0
O58 O 0.62235 0.37763 0.11243 0.0
Mg59 Mg 0.68253 0.32012 0.10303 0.0
C60 C 0.57998 0.37812 0.1252 0.0
C61 C 0.47363 0.2269 0.16105 0.0
O62 O 0.4758 0.20877 0.13331 0.0
O63 O 0.63412 0.27066 0.17993 0.0
O64 O 0.69476 0.30862 0.15416 0.0
O65 O 0.54847 0.2454 0.09362 0.0
O66 O 0.62689 0.26105 0.10351 0.0
C67 C 0.67666 0.29138 0.17886 0.0
C68 C 0.59254 0.25452 0.08371 0.0
O69 O 0.51176 0.24803 0.17203 0.0
Mg70 Mg 0.22701 0.20306 0.66263 0.0
O71 O 0.15286 0.16663 0.67066 0.0
O72 O 0.08993 0.21285 0.6543 0.0
Mg73 Mg 0.12547 0.28623 0.63956 0.0
C74 C 0.10692 0.17316 0.66613 0.0
C75 C 0.25027 0.09525 0.67573 0.0
O76 O 0.22463 0.09554 0.65032 0.0
O77 O 0.21659 0.25249 0.70475 0.0
O78 O 0.15593 0.30169 0.68749 0.0
O79 O 0.22617 0.17654 0.61438 0.0
O80 O 0.19569 0.24866 0.62874 0.0
C81 C 0.18682 0.28903 0.70816 0.0
C82 C 0.20246 0.2166 0.60751 0.0
O83 O 0.25996 0.13652 0.68858 0.0
Mg84 Mg 0.39678 0.81778 0.14264 0.0
O85 O 0.40666 0.73502 0.13527 0.0
O86 O 0.35814 0.70856 0.09755 0.0
Mg87 Mg 0.31269 0.77625 0.0823 0.0
C88 C 0.391 0.70064 0.11791 0.0
C89 C 0.48356 0.83723 0.18467 0.0
O90 O 0.48751 0.8721 0.16391 0.0
O91 O 0.32437 0.80301 0.16828 0.0
O92 O 0.27554 0.78196 0.12908 0.0
O93 O 0.45239 0.82957 0.10593 0.0
O94 O 0.37166 0.82574 0.09812 0.0
C95 C 0.2822 0.79086 0.15738 0.0
C96 C 0.41569 0.827 0.0871 0.0
O97 O 0.44553 0.80965 0.18443 0.0
Mg98 Mg 0.82373 0.79983 0.64451 0.0
O99 O 0.88904 0.84737 0.65738 0.0
O100 O 0.96057 0.80911 0.6489 0.0
Mg101 Mg 0.93982 0.73179 0.63121 0.0
C102 C 0.93597 0.84685 0.65762 0.0
C103 C 0.77319 0.90086 0.65305 0.0
O104 O 0.7892 0.90253 0.62483 0.0
O105 O 0.83166 0.75152 0.68751 0.0
O106 O 0.9003 0.70967 0.67525 0.0
O107 O 0.83063 0.82466 0.59581 0.0
O108 O 0.86765 0.75842 0.61425 0.0
C109 C 0.86379 0.71775 0.69305 0.0
C110 C 0.86007 0.78755 0.5916 0.0
O111 O 0.77794 0.86061 0.668 0.0
C112 C 1.00342 0.09148 0.34676 0.0
C113 C 0.05182 0.09271 0.35832 0.0
C114 C 0.97524 0.04792 0.34777 0.0
C115 C 0.99594 1.00445 0.36056 0.0
C116 C 0.04451 1.00547 0.37255 0.0
C117 C 0.07185 0.04958 0.37133 0.0
C118 C 0.92359 0.04821 0.33467 0.0
C119 C 0.06789 0.95974 0.38625 0.0
C120 C 0.91114 0.89883 0.3841 0.0
C121 C 0.91601 0.86645 0.35928 0.0
C122 C 0.93672 0.94409 0.3848 0.0
C123 C 0.96768 0.95726 0.36006 0.0
C124 C 0.97217 0.92506 0.33478 0.0
C125 C 0.9464 0.88012 0.33473 0.0
C126 C 0.93114 0.97754 0.41216 0.0
C127 C 0.00484 0.93766 0.30794 0.0
H128 H 0.98742 0.12458 0.33679 0.0
H129 H 0.10913 0.05008 0.38037 0.0
H130 H 0.92149 0.0221 0.31518 0.0
H131 H 0.89674 0.03535 0.35205 0.0
H132 H 0.91218 0.08556 0.32664 0.0
H133 H 0.10524 0.96719 0.39572 0.0
H134 H 0.04415 0.94488 0.40472 0.0
H135 H 0.07114 0.93045 0.36864 0.0
H136 H 0.88799 0.88848 0.40323 0.0
H137 H 0.95034 0.85553 0.31535 0.0
H138 H 0.91763 0.01452 0.40486 0.0
H139 H 0.96762 0.98308 0.4232 0.0
H140 H 0.90509 0.96227 0.42931 0.0
H141 H 0.99546 0.97493 0.29895 0.0
H142 H 1.00139 0.91038 0.28911 0.0
H143 H 0.04402 0.9387 0.31538 0.0
C144 C 0.43693 0.57086 0.78113 0.0
C145 C 0.46083 0.60785 0.79809 0.0
C146 C 0.45923 0.52451 0.7764 0.0
C147 C 0.50584 0.51455 0.78974 0.0
C148 C 0.53104 0.55251 0.80574 0.0
C149 C 0.50848 0.59895 0.80934 0.0
C150 C 0.43193 0.48562 0.75831 0.0
C151 C 0.58043 0.54313 0.82079 0.0
C152 C 0.53921 0.38474 0.81544 0.0
C153 C 0.57804 0.37323 0.79557 0.0
C154 C 0.51384 0.42992 0.81297 0.0
C155 C 0.52665 0.46354 0.78945 0.0
C156 C 0.56299 0.45013 0.76776 0.0
C157 C 0.58899 0.40548 0.77144 0.0
C158 C 0.47604 0.44322 0.83696 0.0
C159 C 0.57627 0.48402 0.74165 0.0
H160 H 0.40015 0.57772 0.77221 0.0
H161 H 0.52691 0.62726 0.82267 0.0
H162 H 0.45729 0.46695 0.74207 0.0
H163 H 0.41733 0.45688 0.77396 0.0
H164 H 0.40036 0.50161 0.74539 0.0
H165 H 0.59573 0.57695 0.83167 0.0
H166 H 0.57638 0.51404 0.83851 0.0
H167 H 0.60753 0.52933 0.80384 0.0
H168 H 0.53108 0.36009 0.8343 0.0
H169 H 0.6189 0.39644 0.75595 0.0
H170 H 0.44075 0.45456 0.82614 0.0
H171 H 0.48954 0.47522 0.85047 0.0
H172 H 0.46854 0.41199 0.85279 0.0
H173 H 0.54243 0.49945 0.73091 0.0
H174 H 0.59833 0.46458 0.72395 0.0
H175 H 0.59834 0.51561 0.75031 0.0
C176 C 0.56982 0.46789 0.11179 0.0
C177 C 0.5511 0.42496 0.12566 0.0
C178 C 0.54213 0.51187 0.11094 0.0
C179 C 0.49454 0.51309 0.12432 0.0
C180 C 0.47552 0.47013 0.13858 0.0
C181 C 0.50398 0.42659 0.13906 0.0
C182 C 0.56373 0.55701 0.09558 0.0
C183 C 0.42501 0.47012 0.15321 0.0
C184 C 0.44511 0.64012 0.1454 0.0
C185 C 0.4141 0.65096 0.12057 0.0
C186 C 0.47054 0.59492 0.14726 0.0
C187 C 0.46506 0.55965 0.12366 0.0
C188 C 0.43295 0.56976 0.09889 0.0
C189 C 0.40773 0.61527 0.09768 0.0
C190 C 0.50425 0.58547 0.17412 0.0
C191 C 0.42633 0.53309 0.07324 0.0
H192 H 0.60609 0.46713 0.10132 0.0
H193 H 0.48907 0.3937 0.14982 0.0
H194 H 0.53917 0.56933 0.07677 0.0
H195 H 0.56622 0.588 0.1121 0.0
H196 H 0.60115 0.54988 0.08612 0.0
H197 H 0.41561 0.43367 0.16344 0.0
H198 H 0.42329 0.49878 0.17129 0.0
H199 H 0.39645 0.47966 0.13601 0.0
H200 H 0.45013 0.66731 0.16331 0.0
H201 H 0.38409 0.62338 0.07834 0.0
H202 H 0.54295 0.58157 0.16611 0.0
H203 H 0.49407 0.55023 0.18549 0.0
H204 H 0.50276 0.61581 0.19121 0.0
H205 H 0.46208 0.52741 0.06136 0.0
H206 H 0.39847 0.54565 0.05629 0.0
H207 H 0.41471 0.49665 0.08245 0.0
C208 C 0.08538 0.09652 0.69468 0.0
C209 C 0.07407 0.13054 0.67152 0.0
C210 C 0.06052 0.05112 0.69673 0.0
C211 C 0.02468 0.03892 0.67448 0.0
C212 C 0.01151 0.07414 0.65189 0.0
C213 C 0.03596 0.11993 0.65095 0.0
C214 C 0.07449 0.01528 0.72175 0.0
C215 C 0.97414 0.06214 0.6274 0.0
C216 C 0.00841 0.9037 0.65322 0.0
C217 C 0.96172 0.89342 0.66544 0.0
C218 C 0.02974 0.95074 0.65654 0.0
C219 C 1.00421 0.98793 0.67307 0.0
C220 C 0.95829 0.9769 0.68689 0.0
C221 C 0.93734 0.92991 0.68262 0.0
C222 C 0.07852 0.96132 0.64111 0.0
C223 C 0.93065 0.01508 0.70542 0.0
H224 H 0.11482 0.10482 0.71067 0.0
H225 H 0.02762 0.14597 0.63282 0.0
H226 H 0.04094 0.99889 0.7322 0.0
H227 H 0.09662 0.98447 0.71204 0.0
H228 H 0.09671 0.03336 0.7399 0.0
H229 H 0.966 0.09452 0.61257 0.0
H230 H 0.98847 0.0316 0.61294 0.0
H231 H 0.93908 0.04917 0.63774 0.0
H232 H 0.0272 0.87579 0.63974 0.0
H233 H 0.90132 0.92204 0.69229 0.0
H234 H 0.10601 0.97433 0.65806 0.0
H235 H 0.07365 0.9914 0.6241 0.0
H236 H 0.0938 0.92825 0.62934 0.0
H237 H 0.95538 0.03138 0.72292 0.0
H238 H 0.89772 0.99919 0.71695 0.0
H239 H 0.91817 0.04573 0.69041 0.0
C240 C 0.1566 0.26779 0.43348 0.0
C241 C 0.10748 0.26474 0.42352 0.0
C242 C 0.16883 0.26076 0.46416 0.0
C243 C 0.13103 0.24986 0.48537 0.0
C244 C 0.08118 0.24749 0.4756 0.0
C245 C 0.06989 0.25536 0.44469 0.0
C246 C 0.22236 0.26432 0.47376 0.0
C247 C 0.04006 0.23544 0.49762 0.0
C248 C 0.17729 0.18466 0.55639 0.0
C249 C 0.18104 0.22419 0.57693 0.0
C250 C 0.15873 0.19206 0.52687 0.0
C251 C 0.14435 0.24026 0.51765 0.0
C252 C 0.14693 0.28005 0.53856 0.0
C253 C 0.16501 0.27146 0.56804 0.0
C254 C 0.15595 0.14862 0.50526 0.0
C255 C 0.13255 0.33207 0.52941 0.0
H256 H 0.1857 0.27546 0.41717 0.0
H257 H 0.03192 0.25268 0.43698 0.0
H258 H 0.22647 0.29206 0.49224 0.0
H259 H 0.23503 0.22816 0.48294 0.0
H260 H 0.24698 0.27493 0.45459 0.0
H261 H 1.00312 0.23637 0.48656 0.0
H262 H 0.04608 0.198 0.50741 0.0
H263 H 0.04019 0.26207 0.51686 0.0
H264 H 0.18919 0.14796 0.56329 0.0
H265 H 0.16796 0.30218 0.58383 0.0
H266 H 0.18284 0.15379 0.48644 0.0
H267 H 0.11863 0.14641 0.49485 0.0
H268 H 0.16418 0.11289 0.51679 0.0
H269 H 0.15845 0.34582 0.51173 0.0
H270 H 0.13326 0.35813 0.549 0.0
H271 H 0.09498 0.33241 0.5193 0.0
C272 C 0.42378 0.75751 0.9108 0.0
C273 C 0.39388 0.71527 0.90829 0.0
C274 C 0.4396 0.77456 0.93931 0.0
C275 C 0.42459 0.74907 0.96586 0.0
C276 C 0.39876 0.70367 0.96329 0.0
C277 C 0.38376 0.68718 0.93441 0.0
C278 C 0.46819 0.82245 0.94111 0.0
C279 C 0.38276 0.67503 -0.00884 0.0
C280 C 0.46464 0.78743 0.04543 0.0
C281 C 0.4232 0.81469 0.0548 0.0
C282 C 0.46684 0.76708 0.01599 0.0
C283 C 0.42671 0.77451 -0.00424 0.0
C284 C 0.38629 0.8046 0.00464 0.0
C285 C 0.38507 0.82427 0.03407 0.0
C286 C 0.51061 0.7354 0.00728 0.0
C287 C 0.343 0.81404 0.98361 0.0
H288 H 0.43237 0.77919 0.89074 0.0
H289 H 0.3612 0.65416 0.93261 0.0
H290 H 0.44283 0.85286 0.94789 0.0
H291 H 0.49775 0.82004 0.9586 0.0
H292 H 0.48516 0.83231 0.91887 0.0
H293 H 0.3698 0.63718 0.9853 0.0
H294 H 0.41354 0.672 0.00777 0.0
H295 H 0.35205 0.69507 0.00256 0.0
H296 H 0.49398 0.77961 0.06158 0.0
H297 H 0.3532 0.84564 0.04132 0.0
H298 H 0.52222 0.74277 0.98346 0.0
H299 H 0.50011 0.69577 0.0088 0.0
H300 H 0.54262 0.74169 0.02267 0.0
H301 H 0.35608 0.82952 0.96162 0.0
H302 H 0.31567 0.84015 -0.00641 0.0
H303 H 0.32393 0.7786 0.97858 0.0
C304 C 0.91258 0.73506 0.55782 0.0
C305 C 0.88267 0.77714 0.56162 0.0
C306 C 0.92769 0.71971 0.5288 0.0
C307 C 0.91198 0.74678 0.50299 0.0
C308 C 0.8851 0.79144 0.50678 0.0
C309 C 0.87076 0.80616 0.53615 0.0
C310 C 0.95708 0.67238 0.52568 0.0
C311 C 0.86818 0.82159 0.47969 0.0
C312 C 0.95637 0.71824 0.42281 0.0
C313 C 0.91615 0.69112 0.41161 0.0
C314 C 0.95679 0.73519 0.45308 0.0
C315 C 0.91617 0.72437 0.47227 0.0
C316 C 0.8772 0.69409 0.46151 0.0
C317 C 0.87767 0.67794 0.43126 0.0
C318 C 0.99901 0.76724 0.46378 0.0
C319 C 0.83348 0.68114 0.48139 0.0
H320 H 0.9222 0.71242 0.57732 0.0
H321 H 0.84806 0.83897 0.53894 0.0
H322 H 0.97343 0.66047 0.54774 0.0
H323 H 0.9325 0.64242 0.51735 0.0
H324 H 0.9872 0.67689 0.50876 0.0
H325 H 0.85322 0.85828 0.48655 0.0
H326 H 0.89914 0.82743 0.46352 0.0
H327 H 0.83882 0.80113 0.46732 0.0
H328 H 0.98586 0.729 0.40746 0.0
H329 H 0.84666 0.65687 0.42251 0.0
H330 H 0.01058 0.75692 0.48721 0.0
H331 H 0.98679 0.80648 0.46437 0.0
H332 H 0.0315 0.76447 0.44839 0.0
H333 H 0.84623 0.66443 0.50313 0.0
H334 H 0.80784 0.6548 0.47007 0.0
H335 H 0.81261 0.71532 0.48711 0.0
C336 C 0.67141 0.33422 0.91575 0.0
C337 C 0.67637 0.29261 0.8969 0.0
C338 C 0.65222 0.32973 0.94533 0.0
C339 C 0.63843 0.28241 0.95633 0.0
C340 C 0.64172 0.24061 0.937 0.0
C341 C 0.66043 0.24628 0.90743 0.0
C342 C 0.64861 0.37523 0.96521 0.0
C343 C 0.62794 0.18946 0.94804 0.0
C344 C 0.65235 0.25965 0.04096 0.0
C345 C 0.60321 0.26115 0.051 0.0
C346 C 0.66412 0.26655 0.01022 0.0
C347 C 0.62581 0.27567 -0.01102 0.0
C348 C 0.57604 0.27742 -0.00109 0.0
C349 C 0.56524 0.26975 0.02989 0.0
C350 C 0.71763 0.26378 0.00046 0.0
C351 C 0.53439 0.28763 0.97686 0.0
H352 H 0.68323 0.37021 0.90758 0.0
H353 H 0.66425 0.21397 0.89296 0.0
H354 H 0.61157 0.37752 0.97596 0.0
H355 H 0.67625 0.3728 0.98385 0.0
H356 H 0.65537 0.40987 0.95218 0.0
H357 H 0.6286 0.16162 0.9294 0.0
H358 H 0.65427 0.17752 0.96602 0.0
H359 H 0.59053 0.18982 0.95836 0.0
H360 H 0.68181 0.25258 0.05716 0.0
H361 H 0.52723 0.27119 0.03764 0.0
H362 H 0.72888 0.29922 -0.01028 0.0
H363 H 0.72243 0.2342 0.98315 0.0
H364 H 0.74291 0.25605 0.01986 0.0
H365 H 0.54053 0.32366 0.96528 0.0
H366 H 0.4978 0.28862 -0.01167 0.0
H367 H 0.5336 0.25871 0.95892 0.0
C368 C 0.42237 0.24673 0.20716 0.0
C369 C 0.42676 0.22404 0.17854 0.0
C370 C 0.37794 0.24444 0.22367 0.0
C371 C 0.33691 0.21869 0.21135 0.0
C372 C 0.34091 0.19618 0.18234 0.0
C373 C 0.38572 0.19916 0.1663 0.0
C374 C 0.37514 0.26901 0.25454 0.0
C375 C 0.29815 0.16821 0.1685 0.0
C376 C 0.24775 0.17227 0.27139 0.0
C377 C 0.21165 0.20964 0.27151 0.0
C378 C 0.2872 0.1733 0.25072 0.0
C379 C 0.29098 0.21297 0.22976 0.0
C380 C 0.25283 0.249 0.22833 0.0
C381 C 0.21334 0.24676 0.24918 0.0
C382 C 0.32653 0.13364 0.25271 0.0
C383 C 0.25544 0.29175 0.20621 0.0
H384 H 0.45371 0.26629 0.21672 0.0
H385 H 0.38862 0.18161 0.14415 0.0
H386 H 0.34358 0.29529 0.2552 0.0
H387 H 0.36858 0.24065 0.2724 0.0
H388 H 0.40951 0.28946 0.26029 0.0
H389 H 0.30638 0.15495 0.14507 0.0
H390 H 0.289 0.13574 0.18294 0.0
H391 H 0.26479 0.19214 0.16768 0.0
H392 H 0.24639 0.1433 0.28851 0.0
H393 H 0.18578 0.27596 0.24935 0.0
H394 H 0.3613 0.15002 0.26154 0.0
H395 H 0.33457 0.11831 0.22979 0.0
H396 H 0.31558 0.10275 0.26801 0.0
H397 H 0.28556 0.3172 0.21319 0.0
H398 H 0.2203 0.31306 0.20537 0.0
H399 H 0.26427 0.27832 0.18295 0.0
C400 C 0.36831 0.84533 0.74166 0.0
C401 C 0.33282 0.81659 0.7568 0.0
C402 C 0.35492 0.88876 0.7261 0.0
C403 C 0.30493 0.90432 0.72617 0.0
C404 C 0.2685 0.87395 0.73988 0.0
C405 C 0.28285 0.83012 0.7548 0.0
C406 C 0.39469 0.91933 0.71101 0.0
C407 C 0.21484 0.8894 0.74059 0.0
C408 C 0.28127 0.04301 0.71921 0.0
C409 C 0.2659 0.04708 0.68881 0.0
C410 C 0.29364 0.99664 0.73175 0.0
C411 C 0.29128 0.95355 0.71329 0.0
C412 C 0.27641 0.95762 0.6825 0.0
C413 C 0.2636 1.0042 0.67072 0.0
C414 C 0.30877 0.99364 0.76483 0.0
C415 C 0.27411 0.91278 0.66197 0.0
H416 H 0.40699 0.83498 0.74314 0.0
H417 H 0.25534 0.80845 0.76681 0.0
H418 H 0.3837 0.92909 0.68738 0.0
H419 H 0.39966 0.95451 0.72371 0.0
H420 H 0.43075 0.89963 0.71028 0.0
H421 H 0.19061 0.85991 0.74996 0.0
H422 H 0.21073 0.92303 0.75491 0.0
H423 H 0.20178 0.89908 0.71736 0.0
H424 H 0.28275 0.0759 0.73334 0.0
H425 H 0.25192 0.00698 0.64714 0.0
H426 H 0.34677 0.97844 0.76668 0.0
H427 H 0.28385 0.96798 0.77724 0.0
H428 H 0.30772 0.03034 0.77626 0.0
H429 H 0.31087 0.89457 0.66098 0.0
H430 H 0.26247 0.92237 0.6384 0.0
H431 H 0.24773 0.8853 0.67134 0.0
C432 C 0.73852 0.74935 0.26014 0.0
C433 C 0.73984 0.76094 0.29129 0.0
C434 C 0.69709 0.76162 0.24224 0.0
C435 C 0.65638 0.78628 0.25581 0.0
C436 C 0.65789 0.7987 0.28708 0.0
C437 C 0.69944 0.78587 0.30438 0.0
C438 C 0.69658 0.74775 0.20891 0.0
C439 C 0.61542 0.82532 0.30236 0.0
C440 C 0.56628 0.85822 0.20631 0.0
C441 C 0.52622 0.82543 0.20451 0.0
C442 C 0.60904 0.84578 0.22273 0.0
C443 C 0.61194 0.79927 0.23752 0.0
C444 C 0.57152 0.7661 0.23598 0.0
C445 C 0.529 0.7797 0.21962 0.0
C446 C 0.65113 0.88238 0.22422 0.0
C447 C 0.57332 0.71613 0.25144 0.0
H448 H 0.76946 0.73005 0.24986 0.0
H449 H 0.70008 0.79542 0.32837 0.0
H450 H 0.66499 0.72274 0.20418 0.0
H451 H 0.69136 0.78137 0.19471 0.0
H452 H 0.73126 0.72897 0.20175 0.0
H453 H 0.62274 0.83291 0.32684 0.0
H454 H 0.60808 0.86103 0.29066 0.0
H455 H 0.5813 0.80276 0.3006 0.0
H456 H 0.5644 0.8936 0.19466 0.0
H457 H 0.4984 0.75394 0.21807 0.0
H458 H 0.68533 0.8653 0.21502 0.0
H459 H 0.65864 0.89249 0.24829 0.0
H460 H 0.64322 0.9168 0.21119 0.0
H461 H 0.60572 0.69477 0.24318 0.0
H462 H 0.53939 0.69402 0.24724 0.0
H463 H 0.57787 0.72101 0.27639 0.0
C464 C 0.66605 0.14193 0.73676 0.0
C465 C 0.70475 0.17366 0.7452 0.0
C466 C 0.6749 0.09937 0.71926 0.0
C467 C 0.72377 0.08791 0.7102 0.0
C468 C 0.76257 0.12139 0.71698 0.0
C469 C 0.75253 0.16412 0.73428 0.0
C470 C 0.63234 0.0652 0.71203 0.0
C471 C 0.81521 0.11045 0.70771 0.0
C472 C 0.75586 0.95164 0.6997 0.0
C473 C 0.75642 0.94726 0.66788 0.0
C474 C 0.74537 0.99727 0.71373 0.0
C475 C 0.73463 0.03934 0.6955 0.0
C476 C 0.73393 0.0348 0.66339 0.0
C477 C 0.74505 0.98891 0.64998 0.0
C478 C 0.74671 1.00068 0.74808 0.0
C479 C 0.72214 0.07857 0.64319 0.0
H480 H 0.62896 0.14926 0.74498 0.0
H481 H 0.78268 0.18821 0.74094 0.0
H482 H 0.6322 0.05561 0.68744 0.0
H483 H 0.63666 0.03013 0.72497 0.0
H484 H 0.59603 0.08185 0.71799 0.0
H485 H 0.84015 0.14238 0.71191 0.0
H486 H 0.82915 0.07818 0.72086 0.0
H487 H 0.81708 0.10048 0.68321 0.0
H488 H 0.76512 0.9198 0.71366 0.0
H489 H 0.74538 0.98584 0.62534 0.0
H490 H 0.71049 0.0138 0.75677 0.0
H491 H 0.77492 0.02815 0.7552 0.0
H492 H 0.75549 0.96456 0.75898 0.0
H493 H 0.68558 0.09431 0.64936 0.0
H494 H 0.72165 0.06853 0.61863 0.0
H495 H 0.74997 0.10816 0.64671 0.0
C496 C 0.88135 0.28071 0.31234 0.0
C497 C 0.92543 0.2665 0.29784 0.0
C498 C 0.83694 0.28523 0.29599 0.0
C499 C 0.8363 0.27447 0.26444 0.0
C500 C 0.88047 0.25917 0.24977 0.0
C501 C 0.92461 0.25582 0.26659 0.0
C502 C 0.79095 0.30255 0.31234 0.0
C503 C 0.88117 0.24668 0.21623 0.0
C504 C 0.71607 0.24704 0.22255 0.0
C505 C 0.70979 0.29063 0.20563 0.0
C506 C 0.75625 0.2417 0.2427 0.0
C507 C 0.7901 0.2813 0.24636 0.0
C508 C 0.78156 0.32667 0.23102 0.0
C509 C 0.74189 0.33054 0.21055 0.0
C510 C 0.76436 0.19256 0.25838 0.0
C511 C 0.81588 0.37028 0.23489 0.0
H512 H 0.88168 0.28922 0.33649 0.0
H513 H 0.95841 0.24446 0.25531 0.0
H514 H 0.77803 0.33804 0.30231 0.0
H515 H 0.76076 0.27524 0.30935 0.0
H516 H 0.7973 0.30813 0.33713 0.0
H517 H 0.9178 0.23272 0.20863 0.0
H518 H 0.85286 0.21816 0.21114 0.0
H519 H 0.87176 0.28007 0.20265 0.0
H520 H 0.69176 0.21587 0.21839 0.0
H521 H 0.73707 0.36426 0.19742 0.0
H522 H 0.7711 0.19803 0.28309 0.0
H523 H 0.79772 0.17441 0.24876 0.0
H524 H 0.73239 0.16722 0.25548 0.0
H525 H 0.82239 0.37774 0.25944 0.0
H526 H 0.80105 0.40443 0.22406 0.0
H527 H 0.85221 0.36164 0.22444 0.0
C528 C 0.15417 0.35547 0.74207 0.0
C529 C 0.19317 0.32372 0.73402 0.0
C530 C 0.16229 0.39723 0.76039 0.0
C531 C 0.2107 0.40774 0.77072 0.0
C532 C 0.24945 0.37371 0.76474 0.0
C533 C 0.24014 0.33182 0.74658 0.0
C534 C 0.11977 0.43206 0.76667 0.0
C535 C 0.30158 0.38354 0.77544 0.0
C536 C 0.24581 0.5433 0.77909 0.0
C537 C 0.24512 0.54954 0.81081 0.0
C538 C 0.23446 0.49738 0.76584 0.0
C539 C 0.2217 0.45675 0.78473 0.0
C540 C 0.21963 0.46312 0.81671 0.0
C541 C 0.2315 0.50939 0.82937 0.0
C542 C 0.23715 0.49208 0.7316 0.0
C543 C 0.2058 0.42084 0.83756 0.0
H544 H 0.11767 0.34918 0.73261 0.0
H545 H 0.27051 0.30764 0.74032 0.0
H546 H 0.11912 0.4429 0.79105 0.0
H547 H 0.12451 0.46639 0.75307 0.0
H548 H 0.08354 0.41535 0.76068 0.0
H549 H 0.32607 0.35089 0.77218 0.0
H550 H 0.3172 0.41515 0.76245 0.0
H551 H 0.30189 0.39397 0.79989 0.0
H552 H 0.2566 0.57395 0.76459 0.0
H553 H 0.23086 0.51384 0.85392 0.0
H554 H 0.20103 0.47939 0.72256 0.0
H555 H 0.26507 0.4636 0.72551 0.0
H556 H 0.24714 0.52737 0.72013 0.0
H557 H 0.16949 0.4053 0.83077 0.0
H558 H 0.2038 0.43242 0.86182 0.0
H559 H 0.23343 0.39062 0.83548 0.0
C560 C 0.1924 0.80281 0.16653 0.0
C561 C 0.23871 0.78766 0.17753 0.0
C562 C 0.14975 0.79796 0.18437 0.0
C563 C 0.15328 0.77599 0.21356 0.0
C564 C 0.20003 0.76075 0.22487 0.0
C565 C 0.24244 0.76751 0.20684 0.0
C566 C 0.10093 0.81621 0.17193 0.0
C567 C 0.20503 0.73624 0.25566 0.0
C568 C 0.0528 0.79662 0.27245 0.0
C569 C 0.02432 0.75365 0.26921 0.0
C570 C 0.09397 0.80512 0.25382 0.0
C571 C 0.10797 0.76884 0.2322 0.0
C572 C 0.07889 0.72558 0.22858 0.0
C573 C 0.03679 0.71887 0.24686 0.0
C574 C 0.12284 0.85256 0.25762 0.0
C575 C 0.09324 0.68562 0.20618 0.0
H576 H 0.1896 0.81883 0.14391 0.0
H577 H 0.27821 0.75543 0.2152 0.0
H578 H 0.07498 0.78473 0.16935 0.0
H579 H 0.08385 0.84274 0.18813 0.0
H580 H 0.10498 0.83474 0.14944 0.0
H581 H 0.24385 0.72575 0.26088 0.0
H582 H 0.19155 0.7615 0.27378 0.0
H583 H 0.18178 0.70243 0.25646 0.0
H584 H 0.04297 0.82352 0.28978 0.0
H585 H 0.01504 0.68535 0.24469 0.0
H586 H 0.12696 0.87144 0.23529 0.0
H587 H 0.16054 0.84408 0.26611 0.0
H588 H 0.10483 0.87852 0.27384 0.0
H589 H 0.09524 0.70113 0.1828 0.0
H590 H 0.06674 0.65423 0.20617 0.0
H591 H 0.13055 0.67118 0.21191 0.0
C592 C 0.79812 0.45599 0.75567 0.0
C593 C 0.80077 0.44804 0.78721 0.0
C594 C 0.80809 0.50289 0.74314 0.0
C595 C 0.82053 0.54288 0.76263 0.0
C596 C 0.82305 0.53512 0.79447 0.0
C597 C 0.81344 0.48782 0.80633 0.0
C598 C 0.80549 0.50961 0.709 0.0
C599 C 0.83573 0.57684 0.81601 0.0
C600 C 0.89222 0.64683 0.72506 0.0
C601 C 0.85439 0.6801 0.71704 0.0
C602 C 0.88197 0.60303 0.74102 0.0
C603 C 0.83271 0.59231 0.7495 0.0
C604 C 0.79494 0.62755 0.74371 0.0
C605 C 0.80623 0.67112 0.72752 0.0
C606 C 0.92343 0.56672 0.74695 0.0
C607 C 0.74208 0.61783 0.7529 0.0
H608 H 0.78816 0.42559 0.74076 0.0
H609 H 0.8152 0.48228 0.83078 0.0
H610 H 0.77809 0.53878 0.70325 0.0
H611 H 0.84187 0.52211 0.70024 0.0
H612 H 0.79502 0.47494 0.69701 0.0
H613 H 0.83492 0.565 0.84027 0.0
H614 H 0.87312 0.59132 0.81077 0.0
H615 H 0.8093 0.60791 0.81295 0.0
H616 H 0.92965 0.65362 0.71731 0.0
H617 H 0.77671 0.69643 0.72139 0.0
H618 H 0.91757 0.53285 0.73309 0.0
H619 H 0.92373 0.55528 0.77123 0.0
H620 H 0.96022 0.58235 0.74116 0.0
H621 H 0.72674 0.58753 0.73869 0.0
H622 H 0.71833 0.65112 0.75004 0.0
H623 H 0.74021 0.60554 0.77701 0.0
loop_
_geom_bond_atom_site_label_1
_geom_bond_atom_site_label_2
_geom_bond_distance
_geom_bond_site_symmetry_2
_ccdc_geom_bond_type
Mg0 O1 2.028 . S
Mg0 O7 1.986 . S
Mg0 O9 2.114 . S
Mg0 O10 2.251 . S
Mg0 O13 2.010 . S
O1 Mg0 2.028 . S
O1 C4 1.250 . S
O2 Mg3 2.028 . S
O2 C4 1.248 . S
Mg3 O2 2.028 . S
Mg3 O8 2.032 . S
Mg3 O10 2.079 . S
C4 O1 1.250 . S
C4 O2 1.248 . S
C5 O6 1.264 . S
C5 O13 1.249 1_655 S
O6 C5 1.264 . S
O7 Mg0 1.986 . S
O7 C11 1.246 . S
O8 Mg3 2.032 . S
O8 C11 1.259 . S
O9 Mg0 2.114 . S
O9 C12 1.252 . S
O10 Mg0 2.251 . S
O10 Mg3 2.079 . S
O10 C12 1.273 . S
C11 O7 1.246 . S
C11 O8 1.259 . S
C12 O9 1.252 . S
C12 O10 1.273 . S
O13 Mg0 2.010 . S
O13 C5 1.249 1_455 S
Mg14 O15 2.028 . S
Mg14 O21 1.986 . S
Mg14 O23 2.114 . S
Mg14 O24 2.251 . S
Mg14 O27 2.010 . S
O15 Mg14 2.028 . S
O15 C18 1.250 . S
O16 Mg17 2.028 . S
O16 C18 1.248 . S
Mg17 O16 2.028 . S
Mg17 O22 2.032 . S
Mg17 O24 2.079 . S
C18 O15 1.250 . S
C18 O16 1.248 . S
C19 O20 1.264 . S
C19 O27 1.249 . S
O20 C19 1.264 . S
O21 Mg14 1.986 . S
O21 C25 1.246 . S
O22 Mg17 2.032 . S
O22 C25 1.259 . S
O23 Mg14 2.114 . S
O23 C26 1.252 . S
O24 Mg14 2.251 . S
O24 Mg17 2.079 . S
O24 C26 1.273 . S
C25 O21 1.246 . S
C25 O22 1.259 . S
C26 O23 1.252 . S
C26 O24 1.273 . S
O27 Mg14 2.010 . S
O27 C19 1.249 . S
Mg28 O29 2.028 . S
Mg28 O35 1.986 . S
Mg28 O37 2.114 . S
Mg28 O38 2.251 . S
Mg28 O41 2.010 . S
O29 Mg28 2.028 . S
O29 C32 1.250 . S
O30 Mg31 2.028 . S
O30 C32 1.248 . S
Mg31 O30 2.028 . S
Mg31 O36 2.032 . S
Mg31 O38 2.079 . S
C32 O29 1.250 . S
C32 O30 1.248 . S
C33 O34 1.264 . S
C33 O41 1.249 1_455 S
O34 C33 1.264 . S
O35 Mg28 1.986 . S
O35 C39 1.246 . S
O36 Mg31 2.032 . S
O36 C39 1.259 . S
O37 Mg28 2.114 . S
O37 C40 1.252 . S
O38 Mg28 2.251 . S
O38 Mg31 2.079 . S
O38 C40 1.273 . S
C39 O35 1.246 . S
C39 O36 1.259 . S
C40 O37 1.252 . S
C40 O38 1.273 . S
O41 Mg28 2.010 . S
O41 C33 1.249 1_655 S
Mg42 O43 2.028 . S
Mg42 O49 1.986 . S
Mg42 O51 2.114 . S
Mg42 O52 2.251 . S
Mg42 O55 2.010 . S
O43 Mg42 2.028 . S
O43 C46 1.250 . S
O44 Mg45 2.028 . S
O44 C46 1.248 . S
Mg45 O44 2.028 . S
Mg45 O50 2.032 . S
Mg45 O52 2.079 . S
C46 O43 1.250 . S
C46 O44 1.248 . S
C47 O48 1.264 . S
C47 O55 1.249 . S
O48 C47 1.264 . S
O49 Mg42 1.986 . S
O49 C53 1.246 . S
O50 Mg45 2.032 . S
O50 C53 1.259 . S
O51 Mg42 2.114 . S
O51 C54 1.252 . S
O52 Mg42 2.251 . S
O52 Mg45 2.079 . S
O52 C54 1.273 . S
C53 O49 1.246 . S
C53 O50 1.259 . S
C54 O51 1.252 . S
C54 O52 1.273 . S
O55 Mg42 2.010 . S
O55 C47 1.249 . S
Mg56 O57 2.028 . S
Mg56 O63 1.986 . S
Mg56 O65 2.114 . S
Mg56 O66 2.251 . S
Mg56 O69 2.010 . S
O57 Mg56 2.028 . S
O57 C60 1.250 . S
O58 Mg59 2.028 . S
O58 C60 1.248 . S
Mg59 O58 2.028 . S
Mg59 O64 2.032 . S
Mg59 O66 2.079 . S
C60 O57 1.250 . S
C60 O58 1.248 . S
C61 O62 1.264 . S
C61 O69 1.249 . S
O62 C61 1.264 . S
O63 Mg56 1.986 . S
O63 C67 1.246 . S
O64 Mg59 2.032 . S
O64 C67 1.259 . S
O65 Mg56 2.114 . S
O65 C68 1.252 . S
O66 Mg56 2.251 . S
O66 Mg59 2.079 . S
O66 C68 1.273 . S
C67 O63 1.246 . S
C67 O64 1.259 . S
C68 O65 1.252 . S
C68 O66 1.273 . S
O69 Mg56 2.010 . S
O69 C61 1.249 . S
Mg70 O71 2.028 . S
Mg70 O77 1.986 . S
Mg70 O79 2.114 . S
Mg70 O80 2.251 . S
Mg70 O83 2.010 . S
O71 Mg70 2.028 . S
O71 C74 1.250 . S
O72 Mg73 2.028 . S
O72 C74 1.248 . S
Mg73 O72 2.028 . S
Mg73 O78 2.032 . S
Mg73 O80 2.079 . S
C74 O71 1.250 . S
C74 O72 1.248 . S
C75 O76 1.264 . S
C75 O83 1.249 1_565 S
O76 C75 1.264 . S
O77 Mg70 1.986 . S
O77 C81 1.246 . S
O78 Mg73 2.032 . S
O78 C81 1.259 . S
O79 Mg70 2.114 . S
O79 C82 1.252 . S
O80 Mg70 2.251 . S
O80 Mg73 2.079 . S
O80 C82 1.273 . S
C81 O77 1.246 . S
C81 O78 1.259 . S
C82 O79 1.252 . S
C82 O80 1.273 . S
O83 Mg70 2.010 . S
O83 C75 1.249 1_545 S
Mg84 O85 2.028 . S
Mg84 O91 1.986 . S
Mg84 O93 2.114 . S
Mg84 O94 2.251 . S
Mg84 O97 2.010 . S
O85 Mg84 2.028 . S
O85 C88 1.250 . S
O86 Mg87 2.028 . S
O86 C88 1.248 . S
Mg87 O86 2.028 . S
Mg87 O92 2.032 . S
Mg87 O94 2.079 . S
C88 O85 1.250 . S
C88 O86 1.248 . S
C89 O90 1.264 . S
C89 O97 1.249 . S
O90 C89 1.264 . S
O91 Mg84 1.986 . S
O91 C95 1.246 . S
O92 Mg87 2.032 . S
O92 C95 1.259 . S
O93 Mg84 2.114 . S
O93 C96 1.252 . S
O94 Mg84 2.251 . S
O94 Mg87 2.079 . S
O94 C96 1.273 . S
C95 O91 1.246 . S
C95 O92 1.259 . S
C96 O93 1.252 . S
C96 O94 1.273 . S
O97 Mg84 2.010 . S
O97 C89 1.249 . S
Mg98 O99 2.028 . S
Mg98 O105 1.986 . S
Mg98 O107 2.114 . S
Mg98 O108 2.251 . S
Mg98 O111 2.010 . S
O99 Mg98 2.028 . S
O99 C102 1.250 . S
O100 Mg101 2.028 . S
O100 C102 1.248 . S
Mg101 O100 2.028 . S
Mg101 O106 2.032 . S
Mg101 O108 2.079 . S
C102 O99 1.250 . S
C102 O100 1.248 . S
C103 O104 1.264 . S
C103 O111 1.249 1_545 S
O104 C103 1.264 . S
O105 Mg98 1.986 . S
O105 C109 1.246 . S
O106 Mg101 2.032 . S
O106 C109 1.259 . S
O107 Mg98 2.114 . S
O107 C110 1.252 . S
O108 Mg98 2.251 . S
O108 Mg101 2.079 . S
O108 C110 1.273 . S
C109 O105 1.246 . S
C109 O106 1.259 . S
C110 O107 1.252 . S
C110 O108 1.273 . S
O111 Mg98 2.010 . S
O111 C103 1.249 1_565 S
C112 C113 1.391 . S
C112 C114 1.394 . S
C112 H128 0.931 . S
C113 C112 1.391 . S
C113 C117 1.376 . S
C114 C112 1.394 . S
C114 C115 1.369 . S
C114 C118 1.531 1_455 S
C115 C114 1.369 . S
C115 C116 1.410 . S
C115 C123 1.503 1_445 S
C116 C115 1.410 . S
C116 C117 1.392 . S
C116 C119 1.511 1_545 S
C117 C113 1.376 . S
C117 C116 1.392 . S
C117 H129 0.929 . S
C118 C114 1.531 1_655 S
C118 H130 0.960 . S
C118 H131 0.962 . S
C118 H132 0.960 . S
C119 C116 1.511 1_565 S
C119 H133 0.961 . S
C119 H134 0.961 . S
C119 H135 0.961 . S
C120 C121 1.370 . S
C120 C122 1.363 . S
C120 H136 0.931 . S
C121 C120 1.370 . S
C121 C125 1.408 . S
C122 C120 1.363 . S
C122 C123 1.370 . S
C122 C126 1.524 1_565 S
C123 C115 1.503 1_665 S
C123 C122 1.370 . S
C123 C124 1.403 1_655 S
C124 C123 1.403 1_455 S
C124 C125 1.404 1_455 S
C124 C127 1.539 . S
C125 C121 1.408 . S
C125 C124 1.404 1_655 S
C125 H137 0.930 . S
C126 C122 1.524 1_545 S
C126 H138 0.956 . S
C126 H139 0.961 . S
C126 H140 0.961 . S
C127 C124 1.539 . S
C127 H141 0.958 . S
C127 H142 0.961 . S
C127 H143 0.960 . S
H128 C112 0.931 . S
H129 C117 0.929 . S
H130 C118 0.960 . S
H131 C118 0.962 . S
H132 C118 0.960 . S
H133 C119 0.961 . S
H134 C119 0.961 . S
H135 C119 0.961 . S
H136 C120 0.931 . S
H137 C125 0.930 . S
H138 C126 0.956 . S
H139 C126 0.961 . S
H140 C126 0.961 . S
H141 C127 0.958 . S
H142 C127 0.961 . S
H143 C127 0.960 . S
C144 C145 1.391 . S
C144 C146 1.394 . S
C144 H160 0.931 . S
C145 C144 1.391 . S
C145 C149 1.376 . S
C146 C144 1.394 . S
C146 C147 1.369 . S
C146 C150 1.531 . S
C147 C146 1.369 . S
C147 C148 1.410 . S
C147 C155 1.503 . S
C148 C147 1.410 . S
C148 C149 1.392 . S
C148 C151 1.511 . S
C149 C145 1.376 . S
C149 C148 1.392 . S
C149 H161 0.929 . S
C150 C146 1.531 . S
C150 H162 0.960 . S
C150 H163 0.962 . S
C150 H164 0.960 . S
C151 C148 1.511 . S
C151 H165 0.961 . S
C151 H166 0.961 . S
C151 H167 0.961 . S
C152 C153 1.370 . S
C152 C154 1.363 . S
C152 H168 0.931 . S
C153 C152 1.370 . S
C153 C157 1.408 . S
C154 C152 1.363 . S
C154 C155 1.370 . S
C154 C158 1.524 . S
C155 C147 1.503 . S
C155 C154 1.370 . S
C155 C156 1.403 . S
C156 C155 1.403 . S
C156 C157 1.404 . S
C156 C159 1.539 . S
C157 C153 1.408 . S
C157 C156 1.404 . S
C157 H169 0.930 . S
C158 C154 1.524 . S
C158 H170 0.956 . S
C158 H171 0.961 . S
C158 H172 0.961 . S
C159 C156 1.539 . S
C159 H173 0.958 . S
C159 H174 0.961 . S
C159 H175 0.960 . S
H160 C144 0.931 . S
H161 C149 0.929 . S
H162 C150 0.960 . S
H163 C150 0.962 . S
H164 C150 0.960 . S
H165 C151 0.961 . S
H166 C151 0.961 . S
H167 C151 0.961 . S
H168 C152 0.931 . S
H169 C157 0.930 . S
H170 C158 0.956 . S
H171 C158 0.961 . S
H172 C158 0.961 . S
H173 C159 0.958 . S
H174 C159 0.961 . S
H175 C159 0.960 . S
C176 C177 1.391 . S
C176 C178 1.394 . S
C176 H192 0.931 . S
C177 C176 1.391 . S
C177 C181 1.376 . S
C178 C176 1.394 . S
C178 C179 1.369 . S
C178 C182 1.531 . S
C179 C178 1.369 . S
C179 C180 1.410 . S
C179 C187 1.503 . S
C180 C179 1.410 . S
C180 C181 1.392 . S
C180 C183 1.511 . S
C181 C177 1.376 . S
C181 C180 1.392 . S
C181 H193 0.929 . S
C182 C178 1.531 . S
C182 H194 0.960 . S
C182 H195 0.962 . S
C182 H196 0.960 . S
C183 C180 1.511 . S
C183 H197 0.961 . S
C183 H198 0.961 . S
C183 H199 0.961 . S
C184 C185 1.370 . S
C184 C186 1.363 . S
C184 H200 0.931 . S
C185 C184 1.370 . S
C185 C189 1.408 . S
C186 C184 1.363 . S
C186 C187 1.370 . S
C186 C190 1.524 . S
C187 C179 1.503 . S
C187 C186 1.370 . S
C187 C188 1.403 . S
C188 C187 1.403 . S
C188 C189 1.404 . S
C188 C191 1.539 . S
C189 C185 1.408 . S
C189 C188 1.404 . S
C189 H201 0.930 . S
C190 C186 1.524 . S
C190 H202 0.956 . S
C190 H203 0.961 . S
C190 H204 0.961 . S
C191 C188 1.539 . S
C191 H205 0.958 . S
C191 H206 0.961 . S
C191 H207 0.960 . S
H192 C176 0.931 . S
H193 C181 0.929 . S
H194 C182 0.960 . S
H195 C182 0.962 . S
H196 C182 0.960 . S
H197 C183 0.961 . S
H198 C183 0.961 . S
H199 C183 0.961 . S
H200 C184 0.931 . S
H201 C189 0.930 . S
H202 C190 0.956 . S
H203 C190 0.961 . S
H204 C190 0.961 . S
H205 C191 0.958 . S
H206 C191 0.961 . S
H207 C191 0.960 . S
C208 C209 1.391 . S
C208 C210 1.394 . S
C208 H224 0.931 . S
C209 C208 1.391 . S
C209 C213 1.376 . S
C210 C208 1.394 . S
C210 C211 1.369 . S
C210 C214 1.531 1_455 S
C211 C210 1.369 . S
C211 C212 1.410 . S
C211 C219 1.503 1_445 S
C212 C211 1.410 . S
C212 C213 1.392 . S
C212 C215 1.511 1_545 S
C213 C209 1.376 . S
C213 C212 1.392 . S
C213 H225 0.929 . S
C214 C210 1.531 1_655 S
C214 H226 0.960 . S
C214 H227 0.962 . S
C214 H228 0.960 . S
C215 C212 1.511 1_565 S
C215 H229 0.961 . S
C215 H230 0.961 . S
C215 H231 0.961 1_565 S
C216 C217 1.370 . S
C216 C218 1.363 . S
C216 H232 0.931 . S
C217 C216 1.370 . S
C217 C221 1.408 . S
C218 C216 1.363 . S
C218 C219 1.370 . S
C218 C222 1.524 1_655 S
C219 C211 1.503 1_665 S
C219 C218 1.370 . S
C219 C220 1.403 1_565 S
C220 C219 1.403 1_545 S
C220 C221 1.404 1_545 S
C220 C223 1.539 . S
C221 C217 1.408 . S
C221 C220 1.404 1_565 S
C221 H233 0.930 . S
C222 C218 1.524 1_455 S
C222 H234 0.956 . S
C222 H235 0.961 . S
C222 H236 0.961 . S
C223 C220 1.539 . S
C223 H237 0.958 . S
C223 H238 0.961 . S
C223 H239 0.960 . S
H224 C208 0.931 . S
H225 C213 0.929 . S
H226 C214 0.960 . S
H227 C214 0.962 . S
H228 C214 0.960 . S
H229 C215 0.961 . S
H230 C215 0.961 . S
H231 C215 0.961 1_545 S
H232 C216 0.931 . S
H233 C221 0.930 . S
H234 C222 0.956 . S
H235 C222 0.961 . S
H236 C222 0.961 . S
H237 C223 0.958 . S
H238 C223 0.961 . S
H239 C223 0.960 . S
C240 C241 1.391 . S
C240 C242 1.394 . S
C240 H256 0.931 . S
C241 C240 1.391 . S
C241 C245 1.376 . S
C242 C240 1.394 . S
C242 C243 1.369 . S
C242 C246 1.531 . S
C243 C242 1.369 . S
C243 C244 1.410 . S
C243 C251 1.503 . S
C244 C243 1.410 . S
C244 C245 1.392 . S
C244 C247 1.511 . S
C245 C241 1.376 . S
C245 C244 1.392 . S
C245 H257 0.929 . S
C246 C242 1.531 . S
C246 H258 0.960 . S
C246 H259 0.962 . S
C246 H260 0.960 . S
C247 C244 1.511 . S
C247 H261 0.961 . S
C247 H262 0.961 . S
C247 H263 0.961 . S
C248 C249 1.370 . S
C248 C250 1.363 . S
C248 H264 0.931 . S
C249 C248 1.370 . S
C249 C253 1.408 . S
C250 C248 1.363 . S
C250 C251 1.370 . S
C250 C254 1.524 . S
C251 C243 1.503 . S
C251 C250 1.370 . S
C251 C252 1.403 . S
C252 C251 1.403 . S
C252 C253 1.404 . S
C252 C255 1.539 . S
C253 C249 1.408 . S
C253 C252 1.404 . S
C253 H265 0.930 . S
C254 C250 1.524 . S
C254 H266 0.956 . S
C254 H267 0.961 . S
C254 H268 0.961 . S
C255 C252 1.539 . S
C255 H269 0.958 . S
C255 H270 0.961 . S
C255 H271 0.960 . S
H256 C240 0.931 . S
H257 C245 0.929 . S
H258 C246 0.960 . S
H259 C246 0.962 . S
H260 C246 0.960 . S
H261 C247 0.961 . S
H262 C247 0.961 . S
H263 C247 0.961 . S
H264 C248 0.931 . S
H265 C253 0.930 . S
H266 C254 0.956 . S
H267 C254 0.961 . S
H268 C254 0.961 . S
H269 C255 0.958 . S
H270 C255 0.961 . S
H271 C255 0.960 . S
C272 C273 1.391 . S
C272 C274 1.394 . S
C272 H288 0.931 . S
C273 C272 1.391 . S
C273 C277 1.376 . S
C274 C272 1.394 . S
C274 C275 1.369 . S
C274 C278 1.531 . S
C275 C274 1.369 . S
C275 C276 1.410 . S
C275 C283 1.503 1_556 S
C276 C275 1.410 . S
C276 C277 1.392 . S
C276 C279 1.511 1_556 S
C277 C273 1.376 . S
C277 C276 1.392 . S
C277 H289 0.929 . S
C278 C274 1.531 . S
C278 H290 0.960 . S
C278 H291 0.962 . S
C278 H292 0.960 . S
C279 C276 1.511 1_554 S
C279 H293 0.961 . S
C279 H294 0.961 . S
C279 H295 0.961 . S
C280 C281 1.370 . S
C280 C282 1.363 . S
C280 H296 0.931 . S
C281 C280 1.370 . S
C281 C285 1.408 . S
C282 C280 1.363 . S
C282 C283 1.370 . S
C282 C286 1.524 . S
C283 C275 1.503 1_554 S
C283 C282 1.370 . S
C283 C284 1.403 . S
C284 C283 1.403 . S
C284 C285 1.404 . S
C284 C287 1.539 . S
C285 C281 1.408 . S
C285 C284 1.404 . S
C285 H297 0.930 . S
C286 C282 1.524 . S
C286 H298 0.956 . S
C286 H299 0.961 . S
C286 H300 0.961 . S
C287 C284 1.539 . S
C287 H301 0.958 1_554 S
C287 H302 0.961 . S
C287 H303 0.960 1_554 S
H288 C272 0.931 . S
H289 C277 0.929 . S
H290 C278 0.960 . S
H291 C278 0.962 . S
H292 C278 0.960 . S
H293 C279 0.961 . S
H294 C279 0.961 . S
H295 C279 0.961 . S
H296 C280 0.931 . S
H297 C285 0.930 . S
H298 C286 0.956 . S
H299 C286 0.961 . S
H300 C286 0.961 . S
H301 C287 0.958 1_556 S
H302 C287 0.961 . S
H303 C287 0.960 1_556 S
C304 C305 1.391 . S
C304 C306 1.394 . S
C304 H320 0.931 . S
C305 C304 1.391 . S
C305 C309 1.376 . S
C306 C304 1.394 . S
C306 C307 1.369 . S
C306 C310 1.531 . S
C307 C306 1.369 . S
C307 C308 1.410 . S
C307 C315 1.503 . S
C308 C307 1.410 . S
C308 C309 1.392 . S
C308 C311 1.511 . S
C309 C305 1.376 . S
C309 C308 1.392 . S
C309 H321 0.929 . S
C310 C306 1.531 . S
C310 H322 0.960 . S
C310 H323 0.962 . S
C310 H324 0.960 . S
C311 C308 1.511 . S
C311 H325 0.961 . S
C311 H326 0.961 . S
C311 H327 0.961 . S
C312 C313 1.370 . S
C312 C314 1.363 . S
C312 H328 0.931 . S
C313 C312 1.370 . S
C313 C317 1.408 . S
C314 C312 1.363 . S
C314 C315 1.370 . S
C314 C318 1.524 . S
C315 C307 1.503 . S
C315 C314 1.370 . S
C315 C316 1.403 . S
C316 C315 1.403 . S
C316 C317 1.404 . S
C316 C319 1.539 . S
C317 C313 1.408 . S
C317 C316 1.404 . S
C317 H329 0.930 . S
C318 C314 1.524 . S
C318 H330 0.956 . S
C318 H331 0.961 . S
C318 H332 0.961 . S
C319 C316 1.539 . S
C319 H333 0.958 . S
C319 H334 0.961 . S
C319 H335 0.960 . S
H320 C304 0.931 . S
H321 C309 0.929 . S
H322 C310 0.960 . S
H323 C310 0.962 . S
H324 C310 0.960 . S
H325 C311 0.961 . S
H326 C311 0.961 . S
H327 C311 0.961 . S
H328 C312 0.931 . S
H329 C317 0.930 . S
H330 C318 0.956 . S
H331 C318 0.961 . S
H332 C318 0.961 . S
H333 C319 0.958 . S
H334 C319 0.961 . S
H335 C319 0.960 . S
C336 C337 1.391 . S
C336 C338 1.394 . S
C336 H352 0.931 . S
C337 C336 1.391 . S
C337 C341 1.376 . S
C338 C336 1.394 . S
C338 C339 1.369 . S
C338 C342 1.531 . S
C339 C338 1.369 . S
C339 C340 1.410 . S
C339 C347 1.503 1_556 S
C340 C339 1.410 . S
C340 C341 1.392 . S
C340 C343 1.511 1_556 S
C341 C337 1.376 . S
C341 C340 1.392 . S
C341 H353 0.929 . S
C342 C338 1.531 . S
C342 H354 0.960 . S
C342 H355 0.962 . S
C342 H356 0.960 . S
C343 C340 1.511 1_554 S
C343 H357 0.963 . S
C343 H358 0.961 . S
C343 H359 0.960 . S
C344 C345 1.370 . S
C344 C346 1.363 . S
C344 H360 0.931 . S
C345 C344 1.370 . S
C345 C349 1.408 . S
C346 C344 1.363 . S
C346 C347 1.370 . S
C346 C350 1.524 . S
C347 C339 1.503 1_554 S
C347 C346 1.370 . S
C347 C348 1.403 . S
C348 C347 1.403 . S
C348 C349 1.404 . S
C348 C351 1.539 1_554 S
C349 C345 1.408 . S
C349 C348 1.404 . S
C349 H361 0.930 . S
C350 C346 1.524 . S
C350 H362 0.956 . S
C350 H363 0.961 . S
C350 H364 0.961 . S
C351 C348 1.539 1_556 S
C351 H365 0.958 . S
C351 H366 0.961 1_556 S
C351 H367 0.960 . S
H352 C336 0.931 . S
H353 C341 0.929 . S
H354 C342 0.960 . S
H355 C342 0.962 . S
H356 C342 0.960 . S
H357 C343 0.963 . S
H358 C343 0.961 . S
H359 C343 0.960 . S
H360 C344 0.931 . S
H361 C349 0.930 . S
H362 C350 0.956 . S
H363 C350 0.961 . S
H364 C350 0.961 . S
H365 C351 0.958 . S
H366 C351 0.961 1_554 S
H367 C351 0.960 . S
C368 C369 1.391 . S
C368 C370 1.394 . S
C368 H384 0.931 . S
C369 C368 1.391 . S
C369 C373 1.376 . S
C370 C368 1.394 . S
C370 C371 1.369 . S
C370 C374 1.531 . S
C371 C370 1.369 . S
C371 C372 1.410 . S
C371 C379 1.503 . S
C372 C371 1.410 . S
C372 C373 1.392 . S
C372 C375 1.511 . S
C373 C369 1.376 . S
C373 C372 1.392 . S
C373 H385 0.929 . S
C374 C370 1.531 . S
C374 H386 0.960 . S
C374 H387 0.962 . S
C374 H388 0.960 . S
C375 C372 1.511 . S
C375 H389 0.961 . S
C375 H390 0.961 . S
C375 H391 0.961 . S
C376 C377 1.370 . S
C376 C378 1.363 . S
C376 H392 0.931 . S
C377 C376 1.370 . S
C377 C381 1.408 . S
C378 C376 1.363 . S
C378 C379 1.370 . S
C378 C382 1.524 . S
C379 C371 1.503 . S
C379 C378 1.370 . S
C379 C380 1.403 . S
C380 C379 1.403 . S
C380 C381 1.404 . S
C380 C383 1.539 . S
C381 C377 1.408 . S
C381 C380 1.404 . S
C381 H393 0.930 . S
C382 C378 1.524 . S
C382 H394 0.956 . S
C382 H395 0.961 . S
C382 H396 0.961 . S
C383 C380 1.539 . S
C383 H397 0.958 . S
C383 H398 0.961 . S
C383 H399 0.960 . S
H384 C368 0.931 . S
H385 C373 0.929 . S
H386 C374 0.960 . S
H387 C374 0.962 . S
H388 C374 0.960 . S
H389 C375 0.961 . S
H390 C375 0.961 . S
H391 C375 0.961 . S
H392 C376 0.931 . S
H393 C381 0.930 . S
H394 C382 0.956 . S
H395 C382 0.961 . S
H396 C382 0.961 . S
H397 C383 0.958 . S
H398 C383 0.961 . S
H399 C383 0.960 . S
C400 C401 1.391 . S
C400 C402 1.394 . S
C400 H416 0.931 . S
C401 C400 1.391 . S
C401 C405 1.376 . S
C402 C400 1.394 . S
C402 C403 1.369 . S
C402 C406 1.531 . S
C403 C402 1.369 . S
C403 C404 1.410 . S
C403 C411 1.503 . S
C404 C403 1.410 . S
C404 C405 1.392 . S
C404 C407 1.511 . S
C405 C401 1.376 . S
C405 C404 1.392 . S
C405 H417 0.929 . S
C406 C402 1.531 . S
C406 H418 0.960 . S
C406 H419 0.962 . S
C406 H420 0.960 . S
C407 C404 1.511 . S
C407 H421 0.961 . S
C407 H422 0.961 . S
C407 H423 0.961 . S
C408 C409 1.370 . S
C408 C410 1.363 . S
C408 H424 0.931 . S
C409 C408 1.370 . S
C409 C413 1.408 . S
C410 C408 1.363 . S
C410 C411 1.370 . S
C410 C414 1.524 . S
C411 C403 1.503 . S
C411 C410 1.370 . S
C411 C412 1.403 . S
C412 C411 1.403 . S
C412 C413 1.404 . S
C412 C415 1.539 . S
C413 C409 1.408 . S
C413 C412 1.404 . S
C413 H425 0.930 . S
C414 C410 1.524 . S
C414 H426 0.956 . S
C414 H427 0.961 . S
C414 H428 0.961 . S
C415 C412 1.539 . S
C415 H429 0.958 . S
C415 H430 0.961 . S
C415 H431 0.960 . S
H416 C400 0.931 . S
H417 C405 0.929 . S
H418 C406 0.960 . S
H419 C406 0.962 . S
H420 C406 0.960 . S
H421 C407 0.961 . S
H422 C407 0.961 . S
H423 C407 0.961 . S
H424 C408 0.931 . S
H425 C413 0.930 . S
H426 C414 0.956 . S
H427 C414 0.961 . S
H428 C414 0.961 . S
H429 C415 0.958 . S
H430 C415 0.961 . S
H431 C415 0.960 . S
C432 C433 1.391 . S
C432 C434 1.394 . S
C432 H448 0.931 . S
C433 C432 1.391 . S
C433 C437 1.376 . S
C434 C432 1.394 . S
C434 C435 1.369 . S
C434 C438 1.531 . S
C435 C434 1.369 . S
C435 C436 1.410 . S
C435 C443 1.503 . S
C436 C435 1.410 . S
C436 C437 1.392 . S
C436 C439 1.511 . S
C437 C433 1.376 . S
C437 C436 1.392 . S
C437 H449 0.929 . S
C438 C434 1.531 . S
C438 H450 0.960 . S
C438 H451 0.962 . S
C438 H452 0.960 . S
C439 C436 1.511 . S
C439 H453 0.961 . S
C439 H454 0.961 . S
C439 H455 0.961 . S
C440 C441 1.370 . S
C440 C442 1.363 . S
C440 H456 0.931 . S
C441 C440 1.370 . S
C441 C445 1.408 . S
C442 C440 1.363 . S
C442 C443 1.370 . S
C442 C446 1.524 . S
C443 C435 1.503 . S
C443 C442 1.370 . S
C443 C444 1.403 . S
C444 C443 1.403 . S
C444 C445 1.404 . S
C444 C447 1.539 . S
C445 C441 1.408 . S
C445 C444 1.404 . S
C445 H457 0.930 . S
C446 C442 1.524 . S
C446 H458 0.956 . S
C446 H459 0.961 . S
C446 H460 0.961 . S
C447 C444 1.539 . S
C447 H461 0.958 . S
C447 H462 0.961 . S
C447 H463 0.960 . S
H448 C432 0.931 . S
H449 C437 0.929 . S
H450 C438 0.960 . S
H451 C438 0.962 . S
H452 C438 0.960 . S
H453 C439 0.961 . S
H454 C439 0.961 . S
H455 C439 0.961 . S
H456 C440 0.931 . S
H457 C445 0.930 . S
H458 C446 0.956 . S
H459 C446 0.961 . S
H460 C446 0.961 . S
H461 C447 0.958 . S
H462 C447 0.961 . S
H463 C447 0.960 . S
C464 C465 1.391 . S
C464 C466 1.394 . S
C464 H480 0.931 . S
C465 C464 1.391 . S
C465 C469 1.376 . S
C466 C464 1.394 . S
C466 C467 1.369 . S
C466 C470 1.531 . S
C467 C466 1.369 . S
C467 C468 1.410 . S
C467 C475 1.503 . S
C468 C467 1.410 . S
C468 C469 1.392 . S
C468 C471 1.511 . S
C469 C465 1.376 . S
C469 C468 1.392 . S
C469 H481 0.929 . S
C470 C466 1.531 . S
C470 H482 0.960 . S
C470 H483 0.962 . S
C470 H484 0.960 . S
C471 C468 1.511 . S
C471 H485 0.961 . S
C471 H486 0.961 . S
C471 H487 0.961 . S
C472 C473 1.370 . S
C472 C474 1.363 . S
C472 H488 0.931 . S
C473 C472 1.370 . S
C473 C477 1.408 . S
C474 C472 1.363 . S
C474 C475 1.370 . S
C474 C478 1.524 . S
C475 C467 1.503 . S
C475 C474 1.370 . S
C475 C476 1.403 . S
C476 C475 1.403 . S
C476 C477 1.404 . S
C476 C479 1.539 . S
C477 C473 1.408 . S
C477 C476 1.404 . S
C477 H489 0.930 . S
C478 C474 1.524 . S
C478 H490 0.956 . S
C478 H491 0.961 . S
C478 H492 0.961 . S
C479 C476 1.539 . S
C479 H493 0.958 . S
C479 H494 0.961 . S
C479 H495 0.960 . S
H480 C464 0.931 . S
H481 C469 0.929 . S
H482 C470 0.960 . S
H483 C470 0.962 . S
H484 C470 0.960 . S
H485 C471 0.961 . S
H486 C471 0.961 . S
H487 C471 0.961 . S
H488 C472 0.931 . S
H489 C477 0.930 . S
H490 C478 0.956 . S
H491 C478 0.961 . S
H492 C478 0.961 . S
H493 C479 0.958 . S
H494 C479 0.961 . S
H495 C479 0.960 . S
C496 C497 1.391 . S
C496 C498 1.394 . S
C496 H512 0.931 . S
C497 C496 1.391 . S
C497 C501 1.376 . S
C498 C496 1.394 . S
C498 C499 1.369 . S
C498 C502 1.531 . S
C499 C498 1.369 . S
C499 C500 1.410 . S
C499 C507 1.503 . S
C500 C499 1.410 . S
C500 C501 1.392 . S
C500 C503 1.511 . S
C501 C497 1.376 . S
C501 C500 1.392 . S
C501 H513 0.929 . S
C502 C498 1.531 . S
C502 H514 0.960 . S
C502 H515 0.962 . S
C502 H516 0.960 . S
C503 C500 1.511 . S
C503 H517 0.961 . S
C503 H518 0.961 . S
C503 H519 0.961 . S
C504 C505 1.370 . S
C504 C506 1.363 . S
C504 H520 0.931 . S
C505 C504 1.370 . S
C505 C509 1.408 . S
C506 C504 1.363 . S
C506 C507 1.370 . S
C506 C510 1.524 . S
C507 C499 1.503 . S
C507 C506 1.370 . S
C507 C508 1.403 . S
C508 C507 1.403 . S
C508 C509 1.404 . S
C508 C511 1.539 . S
C509 C505 1.408 . S
C509 C508 1.404 . S
C509 H521 0.930 . S
C510 C506 1.524 . S
C510 H522 0.956 . S
C510 H523 0.961 . S
C510 H524 0.961 . S
C511 C508 1.539 . S
C511 H525 0.958 . S
C511 H526 0.961 . S
C511 H527 0.960 . S
H512 C496 0.931 . S
H513 C501 0.929 . S
H514 C502 0.960 . S
H515 C502 0.962 . S
H516 C502 0.960 . S
H517 C503 0.961 . S
H518 C503 0.961 . S
H519 C503 0.961 . S
H520 C504 0.931 . S
H521 C509 0.930 . S
H522 C510 0.956 . S
H523 C510 0.961 . S
H524 C510 0.961 . S
H525 C511 0.958 . S
H526 C511 0.961 . S
H527 C511 0.960 . S
C528 C529 1.391 . S
C528 C530 1.394 . S
C528 H544 0.931 . S
C529 C528 1.391 . S
C529 C533 1.376 . S
C530 C528 1.394 . S
C530 C531 1.369 . S
C530 C534 1.531 . S
C531 C530 1.369 . S
C531 C532 1.410 . S
C531 C539 1.503 . S
C532 C531 1.410 . S
C532 C533 1.392 . S
C532 C535 1.511 . S
C533 C529 1.376 . S
C533 C532 1.392 . S
C533 H545 0.929 . S
C534 C530 1.531 . S
C534 H546 0.960 . S
C534 H547 0.962 . S
C534 H548 0.960 . S
C535 C532 1.511 . S
C535 H549 0.961 . S
C535 H550 0.961 . S
C535 H551 0.961 . S
C536 C537 1.370 . S
C536 C538 1.363 . S
C536 H552 0.931 . S
C537 C536 1.370 . S
C537 C541 1.408 . S
C538 C536 1.363 . S
C538 C539 1.370 . S
C538 C542 1.524 . S
C539 C531 1.503 . S
C539 C538 1.370 . S
C539 C540 1.403 . S
C540 C539 1.403 . S
C540 C541 1.404 . S
C540 C543 1.539 . S
C541 C537 1.408 . S
C541 C540 1.404 . S
C541 H553 0.930 . S
C542 C538 1.524 . S
C542 H554 0.956 . S
C542 H555 0.961 . S
C542 H556 0.961 . S
C543 C540 1.539 . S
C543 H557 0.958 . S
C543 H558 0.961 . S
C543 H559 0.960 . S
H544 C528 0.931 . S
H545 C533 0.929 . S
H546 C534 0.960 . S
H547 C534 0.962 . S
H548 C534 0.960 . S
H549 C535 0.961 . S
H550 C535 0.961 . S
H551 C535 0.961 . S
H552 C536 0.931 . S
H553 C541 0.930 . S
H554 C542 0.956 . S
H555 C542 0.961 . S
H556 C542 0.961 . S
H557 C543 0.958 . S
H558 C543 0.961 . S
H559 C543 0.960 . S
C560 C561 1.391 . S
C560 C562 1.394 . S
C560 H576 0.931 . S
C561 C560 1.391 . S
C561 C565 1.376 . S
C562 C560 1.394 . S
C562 C563 1.369 . S
C562 C566 1.531 . S
C563 C562 1.369 . S
C563 C564 1.410 . S
C563 C571 1.503 . S
C564 C563 1.410 . S
C564 C565 1.392 . S
C564 C567 1.511 . S
C565 C561 1.376 . S
C565 C564 1.392 . S
C565 H577 0.929 . S
C566 C562 1.531 . S
C566 H578 0.960 . S
C566 H579 0.962 . S
C566 H580 0.960 . S
C567 C564 1.511 . S
C567 H581 0.961 . S
C567 H582 0.961 . S
C567 H583 0.961 . S
C568 C569 1.370 . S
C568 C570 1.363 . S
C568 H584 0.931 . S
C569 C568 1.370 . S
C569 C573 1.408 . S
C570 C568 1.363 . S
C570 C571 1.370 . S
C570 C574 1.524 . S
C571 C563 1.503 . S
C571 C570 1.370 . S
C571 C572 1.403 . S
C572 C571 1.403 . S
C572 C573 1.404 . S
C572 C575 1.539 . S
C573 C569 1.408 . S
C573 C572 1.404 . S
C573 H585 0.930 . S
C574 C570 1.524 . S
C574 H586 0.956 . S
C574 H587 0.961 . S
C574 H588 0.961 . S
C575 C572 1.539 . S
C575 H589 0.958 . S
C575 H590 0.961 . S
C575 H591 0.960 . S
H576 C560 0.931 . S
H577 C565 0.929 . S
H578 C566 0.960 . S
H579 C566 0.962 . S
H580 C566 0.960 . S
H581 C567 0.961 . S
H582 C567 0.961 . S
H583 C567 0.961 . S
H584 C568 0.931 . S
H585 C573 0.930 . S
H586 C574 0.956 . S
H587 C574 0.961 . S
H588 C574 0.961 . S
H589 C575 0.958 . S
H590 C575 0.961 . S
H591 C575 0.960 . S
C592 C593 1.391 . S
C592 C594 1.394 . S
C592 H608 0.931 . S
C593 C592 1.391 . S
C593 C597 1.376 . S
C594 C592 1.394 . S
C594 C595 1.369 . S
C594 C598 1.531 . S
C595 C594 1.369 . S
C595 C596 1.410 . S
C595 C603 1.503 . S
C596 C595 1.410 . S
C596 C597 1.392 . S
C596 C599 1.511 . S
C597 C593 1.376 . S
C597 C596 1.392 . S
C597 H609 0.929 . S
C598 C594 1.531 . S
C598 H610 0.960 . S
C598 H611 0.962 . S
C598 H612 0.960 . S
C599 C596 1.511 . S
C599 H613 0.961 . S
C599 H614 0.961 . S
C599 H615 0.961 . S
C600 C601 1.370 . S
C600 C602 1.363 . S
C600 H616 0.931 . S
C601 C600 1.370 . S
C601 C605 1.408 . S
C602 C600 1.363 . S
C602 C603 1.370 . S
C602 C606 1.524 . S
C603 C595 1.503 . S
C603 C602 1.370 . S
C603 C604 1.403 . S
C604 C603 1.403 . S
C604 C605 1.404 . S
C604 C607 1.539 . S
C605 C601 1.408 . S
C605 C604 1.404 . S
C605 H617 0.930 . S
C606 C602 1.524 . S
C606 H618 0.956 . S
C606 H619 0.961 . S
C606 H620 0.961 . S
C607 C604 1.539 . S
C607 H621 0.958 . S
C607 H622 0.961 . S
C607 H623 0.960 . S
H608 C592 0.931 . S
H609 C597 0.929 . S
H610 C598 0.960 . S
H611 C598 0.962 . S
H612 C598 0.960 . S
H613 C599 0.961 . S
H614 C599 0.961 . S
H615 C599 0.961 . S
H616 C600 0.931 . S
H617 C605 0.930 . S
H618 C606 0.956 . S
H619 C606 0.961 . S
H620 C606 0.961 . S
H621 C607 0.958 . S
H622 C607 0.961 . S
H623 C607 0.960 . S
C113 C4 0.362 . S
C121 C32 0.339 . S
C145 C18 0.395 . S
C153 C46 0.337 . S
C177 C60 0.248 . S
C185 C88 0.274 . S
C209 C74 0.259 . S
C217 C102 0.297 . S
C241 C12 1.562 . S
C249 C82 1.532 . S
C273 C26 1.540 . S
C281 C96 1.548 . S
C305 C110 1.523 . S
C313 C40 1.553 . S
C337 C54 1.530 . S
C345 C68 1.551 . S
C369 C61 1.468 . S
C377 C11 1.481 . S
C401 C25 1.439 . S
C409 C75 1.423 . S
C433 C39 1.487 . S
C441 C89 1.454 . S
C465 C53 1.488 . S
C473 C103 1.444 . S
C497 C5 1.404 . S
C505 C67 1.457 . S
C529 C81 1.482 . S
C537 C19 1.440 . S
C561 C95 1.435 . S
C569 C33 1.425 . S
C593 C47 1.425 . S
C601 C109 1.472 . S
