# Generated by pormake.
# Topology ukj, (4)-cn, num edge types: 1
# Building blocks:
#     Node 0, Type 0, BuildingBlock: ESEHIV_clean_sbu_0, # of connection points: 4
#     Node 1, Type 0, BuildingBlock: ESEHIV_clean_sbu_0, # of connection points: 4
#     Node 2, Type 0, BuildingBlock: ESEHIV_clean_sbu_0, # of connection points: 4
#     Node 3, Type 0, BuildingBlock: ESEHIV_clean_sbu_0, # of connection points: 4
#     Node 4, Type 0, BuildingBlock: ESEHIV_clean_sbu_0, # of connection points: 4
#     Node 5, Type 0, BuildingBlock: ESEHIV_clean_sbu_0, # of connection points: 4
#     Node 6, Type 0, BuildingBlock: ESEHIV_clean_sbu_0, # of connection points: 4
#     Node 7, Type 0, BuildingBlock: ESEHIV_clean_sbu_0, # of connection points: 4
#     Node 8, Type 0, BuildingBlock: ESEHIV_clean_sbu_0, # of connection points: 4
#     Node 9, Type 0, BuildingBlock: ESEHIV_clean_sbu_0, # of connection points: 4
#     Node 10, Type 0, BuildingBlock: ESEHIV_clean_sbu_0, # of connection points: 4
#     Node 11, Type 0, BuildingBlock: ESEHIV_clean_sbu_0, # of connection points: 4
#     Node 12, Type 0, BuildingBlock: ESEHIV_clean_sbu_0, # of connection points: 4
#     Node 13, Type 0, BuildingBlock: ESEHIV_clean_sbu_0, # of connection points: 4
#     Node 14, Type 0, BuildingBlock: ESEHIV_clean_sbu_0, # of connection points: 4
#     Node 15, Type 0, BuildingBlock: ESEHIV_clean_sbu_0, # of connection points: 4
#     Node 16, Type 0, BuildingBlock: ESEHIV_clean_sbu_0, # of connection points: 4
#     Node 17, Type 0, BuildingBlock: ESEHIV_clean_sbu_0, # of connection points: 4
#     Node 18, Type 0, BuildingBlock: ESEHIV_clean_sbu_0, # of connection points: 4
#     Node 19, Type 0, BuildingBlock: ESEHIV_clean_sbu_0, # of connection points: 4
#     Node 20, Type 0, BuildingBlock: ESEHIV_clean_sbu_0, # of connection points: 4
#     Node 21, Type 0, BuildingBlock: ESEHIV_clean_sbu_0, # of connection points: 4
#     Node 22, Type 0, BuildingBlock: ESEHIV_clean_sbu_0, # of connection points: 4
#     Node 23, Type 0, BuildingBlock: ESEHIV_clean_sbu_0, # of connection points: 4
#     Node 24, Type 0, BuildingBlock: ESEHIV_clean_sbu_0, # of connection points: 4
#     Node 25, Type 0, BuildingBlock: ESEHIV_clean_sbu_0, # of connection points: 4
#     Node 26, Type 0, BuildingBlock: ESEHIV_clean_sbu_0, # of connection points: 4
#     Node 27, Type 0, BuildingBlock: ESEHIV_clean_sbu_0, # of connection points: 4
#     Node 28, Type 0, BuildingBlock: ESEHIV_clean_sbu_0, # of connection points: 4
#     Node 29, Type 0, BuildingBlock: ESEHIV_clean_sbu_0, # of connection points: 4
#     Node 30, Type 0, BuildingBlock: ESEHIV_clean_sbu_0, # of connection points: 4
#     Node 31, Type 0, BuildingBlock: ESEHIV_clean_sbu_0, # of connection points: 4
#     Edge 32, Type (0, 0), None
#     Edge 33, Type (0, 0), None
#     Edge 34, Type (0, 0), None
#     Edge 35, Type (0, 0), None
#     Edge 36, Type (0, 0), None
#     Edge 37, Type (0, 0), None
#     Edge 38, Type (0, 0), None
#     Edge 39, Type (0, 0), None
#     Edge 40, Type (0, 0), None
#     Edge 41, Type (0, 0), None
#     Edge 42, Type (0, 0), None
#     Edge 43, Type (0, 0), None
#     Edge 44, Type (0, 0), None
#     Edge 45, Type (0, 0), None
#     Edge 46, Type (0, 0), None
#     Edge 47, Type (0, 0), None
#     Edge 48, Type (0, 0), None
#     Edge 49, Type (0, 0), None
#     Edge 50, Type (0, 0), None
#     Edge 51, Type (0, 0), None
#     Edge 52, Type (0, 0), None
#     Edge 53, Type (0, 0), None
#     Edge 54, Type (0, 0), None
#     Edge 55, Type (0, 0), None
#     Edge 56, Type (0, 0), None
#     Edge 57, Type (0, 0), None
#     Edge 58, Type (0, 0), None
#     Edge 59, Type (0, 0), None
#     Edge 60, Type (0, 0), None
#     Edge 61, Type (0, 0), None
#     Edge 62, Type (0, 0), None
#     Edge 63, Type (0, 0), None
#     Edge 64, Type (0, 0), None
#     Edge 65, Type (0, 0), None
#     Edge 66, Type (0, 0), None
#     Edge 67, Type (0, 0), None
#     Edge 68, Type (0, 0), None
#     Edge 69, Type (0, 0), None
#     Edge 70, Type (0, 0), None
#     Edge 71, Type (0, 0), None
#     Edge 72, Type (0, 0), None
#     Edge 73, Type (0, 0), None
#     Edge 74, Type (0, 0), None
#     Edge 75, Type (0, 0), None
#     Edge 76, Type (0, 0), None
#     Edge 77, Type (0, 0), None
#     Edge 78, Type (0, 0), None
#     Edge 79, Type (0, 0), None
#     Edge 80, Type (0, 0), None
#     Edge 81, Type (0, 0), None
#     Edge 82, Type (0, 0), None
#     Edge 83, Type (0, 0), None
#     Edge 84, Type (0, 0), None
#     Edge 85, Type (0, 0), None
#     Edge 86, Type (0, 0), None
#     Edge 87, Type (0, 0), None
#     Edge 88, Type (0, 0), None
#     Edge 89, Type (0, 0), None
#     Edge 90, Type (0, 0), None
#     Edge 91, Type (0, 0), None
#     Edge 92, Type (0, 0), None
#     Edge 93, Type (0, 0), None
#     Edge 94, Type (0, 0), None
#     Edge 95, Type (0, 0), None
# Relax obj value: 0.005
# Max RMSD: 0.127
# Mean RMSD: 0.127
data_MOF--net-ukj--node1-ESEHIV_clean_sbu_0--edge1-none
_symmetry_space_group_name_H-M    P1
_symmetry_Int_Tables_number       1
_symmetry_cell_setting            triclinic
loop_
_symmetry_equiv_pos_as_xyz
'x, y, z'
_cell_length_a     20.139692
_cell_length_b     36.986864
_cell_length_c     25.541587
_cell_angle_alpha  90.474129
_cell_angle_beta   90.512394
_cell_angle_gamma 89.824646
loop_
_atom_site_label
_atom_site_type_symbol
_atom_site_fract_x
_atom_site_fract_y
_atom_site_fract_z
_atom_type_partial_charge
Cu0 Cu 0.20328 0.34956 0.25158 0.0
N1 N 0.29577 0.35073 0.2447 0.0
N2 N 0.39756 0.37439 0.24542 0.0
C3 C 0.33336 0.37954 0.25789 0.0
C4 C 0.40112 0.34106 0.22376 0.0
C5 C 0.33786 0.3265 0.22324 0.0
O6 O 0.18383 0.36045 0.32365 0.0
C7 C 0.19012 0.39012 0.15828 0.0
O8 O 0.25498 0.38735 0.15579 0.0
H9 H 0.31351 0.40411 0.27489 0.0
H10 H 0.32338 0.30063 0.20685 0.0
N11 N 0.16429 0.30455 0.24164 0.0
N12 N 0.07896 0.26636 0.24165 0.0
C13 C 0.09786 0.30111 0.23865 0.0
C14 C 0.18838 0.27075 0.24691 0.0
C15 C 0.13547 0.24691 0.24658 0.0
C16 C 0.18285 0.39144 0.34489 0.0
O17 O 0.19113 0.42041 0.3163 0.0
H18 H 0.06417 0.32392 0.23731 0.0
H19 H 0.24001 0.26407 0.25375 0.0
O20 O 0.16041 0.3803 0.19966 0.0
H21 H 0.44543 0.32865 0.20799 0.0
H22 H 0.1383 0.21798 0.25214 0.0
Cu23 Cu 0.1367 0.92686 0.25225 0.0
N24 N 1.04364 0.92543 0.24799 0.0
N25 N 0.9407 0.90339 0.24665 0.0
C26 C 1.00596 0.8953 0.24804 0.0
C27 C 0.93653 0.93972 0.24538 0.0
C28 C 1.0003 0.95326 0.24589 0.0
O29 O 0.16241 0.90958 0.32107 0.0
C30 C 0.14613 0.9 0.14863 0.0
O31 O 0.08463 0.91164 0.14516 0.0
H32 H 1.02587 0.86814 0.24942 0.0
H33 H 1.01381 0.98145 0.24447 0.0
N34 N 0.17078 0.97365 0.25004 0.0
N35 N 0.24977 0.01563 0.24652 0.0
C36 C 0.23314 0.9812 0.23502 0.0
C37 C 0.14767 1.00431 0.27231 0.0
C38 C 0.19626 0.0305 0.26972 0.0
C39 C 0.15587 0.87726 0.33628 0.0
O40 O 0.13645 0.85222 0.30283 0.0
H41 H 0.26669 0.96123 0.21883 0.0
H42 H 0.10095 1.0068 0.29251 0.0
O43 O 0.17616 0.90118 0.19283 0.0
H44 H 0.89097 0.95525 0.24342 0.0
H45 H 0.19397 0.05738 0.28664 0.0
Cu46 Cu 0.19741 0.91738 0.99244 0.0
N47 N 0.28952 0.92034 0.00239 0.0
N48 N 0.39678 0.90498 0.00323 0.0
C49 C 0.33501 0.89557 0.98743 0.0
C50 C 0.39025 0.93674 0.02902 0.0
C51 C 0.32384 0.94613 0.02846 0.0
O52 O 0.18044 0.88631 0.93153 0.0
C53 C 0.18405 0.89509 0.10004 0.0
O54 O 0.24911 0.89358 0.10236 0.0
H55 H 0.32276 0.87102 0.96621 0.0
H56 H 0.30186 0.96972 0.04675 0.0
N57 N 0.15998 0.96283 0.98033 0.0
N58 N 0.08239 1.00557 0.97311 0.0
C59 C 0.09455 0.97037 0.98241 0.0
C60 C 0.18997 0.99433 0.96919 0.0
C61 C 0.14198 0.02094 0.96486 0.0
C62 C 0.16814 0.89877 0.88595 0.0
O63 O 0.16233 0.93376 0.87912 0.0
H64 H 0.057 0.95055 0.99132 0.0
H65 H 0.24291 0.99772 0.96463 0.0
O66 O 0.15479 0.90093 0.05639 0.0
H67 H 0.43013 0.95185 0.04742 0.0
H68 H 0.15026 0.04915 0.95624 0.0
Cu69 Cu 0.14879 0.36748 0.0028 0.0
N70 N 0.05647 0.36277 0.00675 0.0
N71 N 0.95008 0.37949 0.00638 0.0
C72 C 1.0133 0.39033 0.00039 0.0
C73 C 0.9529 0.3439 0.01699 0.0
C74 C 1.01898 0.33365 0.01753 0.0
O75 O 0.16638 0.39474 0.93987 0.0
C76 C 0.15211 0.39185 0.10904 0.0
O77 O 0.08863 0.38399 0.1095 0.0
H78 H 1.02812 0.41776 0.99196 0.0
H79 H 1.03815 0.30709 0.0265 0.0
N80 N 0.19429 0.32344 0.99769 0.0
N81 N 0.28078 0.2857 0.99545 0.0
C82 C 0.26037 0.31983 0.00498 0.0
C83 C 0.17245 0.29045 0.98296 0.0
C84 C 0.22587 0.26699 0.98166 0.0
C85 C 0.1677 0.37834 0.89579 0.0
O86 O 0.16052 0.34312 0.89375 0.0
H87 H 0.29267 0.34194 0.01619 0.0
H88 H 0.12185 0.28411 0.97201 0.0
O89 O 0.1838 0.39038 0.06609 0.0
H90 H 0.9107 0.3269 0.02528 0.0
H91 H 0.22448 0.23875 0.97039 0.0
Cu92 Cu 0.89477 0.6652 0.77398 0.0
N93 N 0.80212 0.66379 0.77635 0.0
N94 N 0.70049 0.64051 0.77076 0.0
C95 C 0.766 0.63366 0.76779 0.0
C96 C 0.69451 0.67603 0.7819 0.0
C97 C 0.75766 0.69034 0.78574 0.0
O98 O 0.91955 0.6365 0.71398 0.0
C99 C 0.90378 0.64628 0.88126 0.0
O100 O 0.84148 0.65668 0.88333 0.0
H101 H 0.78732 0.60741 0.75915 0.0
H102 H 0.76999 0.71798 0.79557 0.0
N103 N 0.93078 0.71143 0.76616 0.0
N104 N 1.00935 0.75334 0.75829 0.0
C105 C 0.99641 0.71837 0.7683 0.0
C106 C 0.90149 0.74315 0.754 0.0
C107 C 0.95004 0.76922 0.74938 0.0
C108 C 0.91718 0.64991 0.66829 0.0
O109 O 0.90162 0.6841 0.66207 0.0
H110 H 1.03377 0.69798 0.77606 0.0
H111 H 0.84902 0.74692 0.74691 0.0
O112 O 0.93336 0.64553 0.83745 0.0
H113 H 0.6482 0.6903 0.78798 0.0
H114 H 0.94247 0.79714 0.73849 0.0
Cu115 Cu 0.95484 0.09927 0.73163 0.0
N116 N 1.04616 0.09472 0.74324 0.0
N117 N 0.15111 0.11255 0.75268 0.0
C118 C 0.08935 0.12211 0.73771 0.0
C119 C 0.14747 0.07782 0.76792 0.0
C120 C 0.08213 0.06688 0.76228 0.0
O121 O 0.94217 0.12565 0.66761 0.0
C122 C 0.94341 0.13601 0.83032 0.0
O123 O 1.00788 0.14091 0.82968 0.0
H124 H 0.07518 0.14883 0.72468 0.0
H125 H 0.06199 0.041 0.77324 0.0
N126 N 0.90952 0.05559 0.72597 0.0
N127 N 0.82157 0.01941 0.72104 0.0
C128 C 0.84287 0.05354 0.72793 0.0
C129 C 0.93109 0.02155 0.71742 0.0
C130 C 0.87655 0.99897 0.71454 0.0
C131 C 0.93212 0.10932 0.62424 0.0
O132 O 0.92718 0.07397 0.62261 0.0
H133 H 0.81092 0.0767 0.73426 0.0
H134 H 0.98247 0.01377 0.71264 0.0
O135 O 0.91352 0.12327 0.79027 0.0
H136 H 0.18813 0.06218 0.7841 0.0
H137 H 0.87733 0.97007 0.7077 0.0
Cu138 Cu 0.91067 0.11369 0.98423 0.0
N139 N 0.8175 0.11535 0.98789 0.0
N140 N 0.71478 0.13819 0.98743 0.0
C141 C 0.77771 0.14247 0.97114 0.0
C142 C 0.71448 0.10738 0.01533 0.0
C143 C 0.77808 0.09341 0.01564 0.0
O144 O 0.94813 0.13246 0.04906 0.0
C145 C 0.90974 0.13286 0.88046 0.0
O146 O 0.85415 0.11445 0.88164 0.0
H147 H 0.79547 0.16582 0.9503 0.0
H148 H 0.79512 0.06997 0.03696 0.0
N149 N 0.94378 0.06674 0.97807 0.0
N150 N 1.02002 0.02309 0.9737 0.0
C151 C 1.00909 0.05896 0.97681 0.0
C152 C 0.91236 0.03464 0.97525 0.0
C153 C 0.95961 1.00745 0.97278 0.0
C154 C 0.914 0.15353 0.07757 0.0
O155 O 0.85801 0.16688 0.05956 0.0
H156 H 1.04763 0.07924 0.97908 0.0
H157 H 0.85909 0.03119 0.97516 0.0
O158 O 0.94151 0.1386 0.92292 0.0
H159 H 0.67222 0.09639 0.03554 0.0
H160 H 0.95029 0.97869 0.9704 0.0
Cu161 Cu 0.97225 0.69385 0.01465 0.0
N162 N 0.06215 0.69043 -0.00211 0.0
N163 N 0.16194 0.66426 0.99456 0.0
C164 C 0.10123 0.66367 0.01614 0.0
C165 C 0.16173 0.69261 0.96161 0.0
C166 C 0.09961 0.70877 0.96369 0.0
O167 O 0.96844 0.68391 0.08832 0.0
C168 C 0.9443 0.64687 0.9292 0.0
O169 O 1.00887 0.64347 0.92486 0.0
H170 H 0.08434 0.64348 0.04332 0.0
H171 H 0.0823 0.73133 0.94056 0.0
N172 N 0.93351 0.73905 0.00522 0.0
N173 N 0.84987 0.7785 0.00079 0.0
C174 C 0.86725 0.7436 0.00625 0.0
C175 C 0.95918 0.7723 -0.0012 0.0
C176 C 0.90725 0.79691 0.99597 0.0
C177 C 0.91847 0.67638 0.11598 0.0
O178 O 0.8599 0.67145 0.09416 0.0
H179 H 0.83271 0.72163 0.01159 0.0
H180 H 1.01165 0.77827 0.99713 0.0
O181 O 0.9201 0.66188 0.96983 0.0
H182 H 0.20245 0.70042 0.93683 0.0
H183 H 0.91153 0.82588 0.99163 0.0
Cu184 Cu 0.18797 0.85688 0.73479 0.0
N185 N 0.28052 0.85684 0.73562 0.0
N186 N 0.38332 0.87831 0.73023 0.0
C187 C 0.31922 0.88334 0.71677 0.0
C188 C 0.38538 0.84786 0.7589 0.0
C189 C 0.32161 0.83474 0.76233 0.0
O190 O 0.16262 0.88722 0.79391 0.0
C191 C 0.18574 0.8643 0.6249 0.0
O192 O 0.24347 0.84786 0.62818 0.0
H193 H 0.30029 0.90661 0.69595 0.0
H194 H 0.30596 0.81181 0.78503 0.0
N195 N 0.15105 0.81111 0.74421 0.0
N196 N 0.07255 0.76943 0.75406 0.0
C197 C 0.08574 0.80502 0.75078 0.0
C198 C 0.17986 0.77817 0.7428 0.0
C199 C 0.13135 0.75226 0.74925 0.0
C200 C 0.17052 0.87467 0.83997 0.0
O201 O 0.19011 0.84105 0.84589 0.0
H202 H 0.04878 0.82628 0.75241 0.0
H203 H 0.23201 0.77321 0.73613 0.0
O204 O 0.15532 0.87311 0.66677 0.0
H205 H 0.4292 0.83652 0.77734 0.0
H206 H 0.13853 0.72327 0.74878 0.0
Cu207 Cu 0.14826 0.40723 0.73862 0.0
N208 N 0.05595 0.40822 0.73154 0.0
N209 N 0.95244 0.38728 0.72993 0.0
C210 C 1.01688 0.37914 0.73794 0.0
C211 C 0.95027 0.42269 0.71795 0.0
C212 C 1.01465 0.43557 0.71871 0.0
O213 O 0.16779 0.38203 0.80316 0.0
C214 C 0.15987 0.38322 0.63323 0.0
O215 O 0.09634 0.39082 0.62917 0.0
H216 H 1.0355 0.35263 0.74818 0.0
H217 H 1.03015 0.46273 0.70959 0.0
N218 N 0.18761 0.45282 0.74196 0.0
N219 N 0.26934 0.49328 0.74109 0.0
C220 C 0.2527 0.45839 0.73354 0.0
C221 C 0.16231 0.48535 0.75528 0.0
C222 C 0.21287 0.51052 0.75474 0.0
C223 C 0.16752 0.39877 0.84697 0.0
O224 O 0.15804 0.43387 0.84841 0.0
H225 H 0.28713 0.43707 0.7231 0.0
H226 H 0.11134 0.49028 0.7662 0.0
O227 O 0.18813 0.3841 0.67803 0.0
H228 H 0.90588 0.43787 0.70828 0.0
H229 H 0.20854 0.53893 0.76456 0.0
Cu230 Cu 0.22008 0.42851 0.49686 0.0
N231 N 0.31182 0.42099 0.50076 0.0
N232 N 0.40802 0.39118 0.49642 0.0
C233 C 0.3415 0.38879 0.49211 0.0
C234 C 0.42121 0.4261 0.50794 0.0
C235 C 0.36141 0.44451 0.51066 0.0
O236 O 0.1952 0.42404 0.42408 0.0
C237 C 0.20166 0.38683 0.58683 0.0
O238 O 0.26533 0.39266 0.59411 0.0
H239 H 0.3147 0.36423 0.48279 0.0
H240 H 0.35463 0.47295 0.51926 0.0
N241 N 0.19052 0.47413 0.5172 0.0
N242 N 0.10995 0.51417 0.53292 0.0
C243 C 0.12809 0.47915 0.53423 0.0
C244 C 0.21291 0.50723 0.50481 0.0
C245 C 0.16308 0.53218 0.51471 0.0
C246 C 0.18442 0.39383 0.40215 0.0
O247 O 0.18545 0.36425 0.43024 0.0
H248 H 0.09468 0.4571 0.54237 0.0
H249 H 0.25954 0.51247 0.48567 0.0
O250 O 0.17452 0.39577 0.54356 0.0
H251 H 0.47011 0.4374 0.51446 0.0
H252 H 0.16435 0.5607 0.50572 0.0
Cu253 Cu 0.13259 0.82183 0.47902 0.0
N254 N 1.04125 0.82169 0.49045 0.0
N255 N 0.93973 0.84417 0.50172 0.0
C256 C 1.00225 0.85122 0.48696 0.0
C257 C 0.93835 0.80883 0.51411 0.0
C258 C 1.00157 0.79495 0.50716 0.0
O259 O 0.14533 0.83772 0.40771 0.0
C260 C 0.14931 0.86296 0.57482 0.0
O261 O 0.08457 0.86659 0.57541 0.0
H262 H 1.02019 0.87764 0.47605 0.0
H263 H 1.01795 0.76772 0.51553 0.0
N264 N 0.17079 0.77597 0.48137 0.0
N265 N 0.25404 0.73621 0.48489 0.0
C266 C 0.23455 0.77035 0.4953 0.0
C267 C 0.14922 0.74428 0.46122 0.0
C268 C 0.20074 0.71947 0.46354 0.0
C269 C 0.16052 0.86912 0.39245 0.0
O270 O 0.17193 0.89494 0.42694 0.0
H271 H 0.26677 0.7915 0.51009 0.0
H272 H 0.10083 0.74009 0.44353 0.0
O273 O 0.17775 0.84915 0.53483 0.0
H274 H 0.89589 0.79464 0.52939 0.0
H275 H 0.1998 0.692 0.44864 0.0
Cu276 Cu 0.88335 0.17204 0.23756 0.0
N277 N 0.79476 0.17252 0.25846 0.0
N278 N 0.69062 0.15248 0.26165 0.0
C279 C 0.74924 0.15024 0.23695 0.0
C280 C 0.69889 0.17729 0.30019 0.0
C281 C 0.76378 0.18962 0.29819 0.0
O282 O 0.8804 0.16237 0.16385 0.0
C283 C 0.90881 0.1196 0.31534 0.0
O284 O 0.84428 0.1149 0.31645 0.0
H285 H 0.7599 0.13197 0.20481 0.0
H286 H 0.78721 0.2087 0.3248 0.0
N287 N 0.92712 0.21586 0.24563 0.0
N288 N 1.01309 0.25355 0.24465 0.0
C289 C 0.99375 0.21879 0.24551 0.0
C290 C 0.90346 0.24993 0.24491 0.0
C291 C 0.95674 0.27344 0.24442 0.0
C292 C 0.92882 0.15729 0.13331 0.0
O293 O 0.98959 0.15406 0.15173 0.0
H294 H 1.02705 0.19581 0.24395 0.0
H295 H 0.85138 0.25708 0.24288 0.0
O296 O 0.93424 0.13768 0.27847 0.0
H297 H 0.66172 0.18517 0.32844 0.0
H298 H 0.95404 0.30262 0.2427 0.0
Cu299 Cu 0.92925 0.62319 0.25726 0.0
N300 N 1.02214 0.62091 0.2523 0.0
N301 N 0.12866 0.63681 0.2583 0.0
C302 C 0.06625 0.64428 0.27367 0.0
C303 C 0.12414 0.60781 0.22613 0.0
C304 C 0.05814 0.59805 0.22253 0.0
O305 O 0.89395 0.64735 0.19584 0.0
C306 C 0.93676 0.63359 0.36354 0.0
O307 O 0.98601 0.61073 0.35676 0.0
H308 H 0.05243 0.667 0.29825 0.0
H309 H 1.03751 0.57645 0.19873 0.0
N310 N 0.89208 0.5772 0.25641 0.0
N311 N 0.81502 0.53424 0.25168 0.0
C312 C 0.8282 0.56957 0.24486 0.0
C313 C 0.92002 0.54571 0.27103 0.0
C314 C 0.8724 0.51899 0.26811 0.0
C315 C 0.92998 0.66965 0.17164 0.0
O316 O 0.98559 0.68094 0.19322 0.0
H317 H 0.792 0.58967 0.23316 0.0
H318 H 0.97096 0.54261 0.28405 0.0
O319 O 0.9046 0.64484 0.32373 0.0
H320 H 0.16508 0.59498 0.20602 0.0
H321 H 0.87935 0.49084 0.27796 0.0
Cu322 Cu 0.90683 0.60542 0.51836 0.0
N323 N 0.81578 0.59725 0.5097 0.0
N324 N 0.70843 0.61038 0.49926 0.0
C325 C 0.76909 0.6234 0.5112 0.0
C326 C 0.71646 0.57469 0.49026 0.0
C327 C 0.78319 0.56667 0.49651 0.0
O328 O 0.91813 0.63864 0.57663 0.0
C329 C 0.91104 0.63848 0.4165 0.0
O330 O 0.85 0.64993 0.42336 0.0
H331 H 0.77985 0.65156 0.51927 0.0
H332 H 0.80653 0.54068 0.48996 0.0
N333 N 0.95583 0.56346 0.53184 0.0
N334 N 1.04458 0.52757 0.53854 0.0
C335 C 1.02187 0.56048 0.52479 0.0
C336 C 0.93625 0.53134 0.55075 0.0
C337 C 0.99112 0.50902 0.5549 0.0
C338 C 0.9216 0.62596 0.62276 0.0
O339 O 0.92056 0.59088 0.62979 0.0
H340 H 0.05223 0.58191 0.50937 0.0
H341 H 0.88588 0.52476 0.56132 0.0
O342 O 0.94259 0.62311 0.45352 0.0
H343 H 0.6777 0.55624 0.47784 0.0
H344 H 0.99147 0.48143 0.56866 0.0
Cu345 Cu 0.94745 0.1404 0.47038 0.0
N346 N 1.04018 0.14296 0.47003 0.0
N347 N 0.14481 0.1241 0.47863 0.0
C348 C 0.08041 0.11457 0.47977 0.0
C349 C 0.14582 0.15966 0.4676 0.0
C350 C 0.08083 0.17124 0.46199 0.0
O351 O 0.9257 0.11353 0.53189 0.0
C352 C 0.94631 0.11772 0.36459 0.0
O353 O 1.00861 0.12805 0.36522 0.0
H354 H 0.06271 0.08763 0.48797 0.0
H355 H 0.06463 0.19823 0.45216 0.0
N356 N 0.90439 0.18519 0.47589 0.0
N357 N 0.81991 0.2241 0.48214 0.0
C358 C 0.83835 0.19005 0.46977 0.0
C359 C 0.9282 0.21733 0.4926 0.0
C360 C 0.87608 0.24148 0.49645 0.0
C361 C 0.93547 0.12941 0.57561 0.0
O362 O 0.95678 0.1629 0.57671 0.0
H363 H 0.80451 0.1687 0.45824 0.0
H364 H 0.9792 0.22249 0.50367 0.0
O365 O 0.91382 0.11754 0.40707 0.0
H366 H 0.19004 0.17582 0.46294 0.0
H367 H 0.87928 0.26925 0.50981 0.0
Cu368 Cu 0.70244 0.34374 0.7401 0.0
N369 N 0.79485 0.34251 0.73592 0.0
N370 N 0.89835 0.36321 0.73212 0.0
C371 C 0.83373 0.37208 0.73614 0.0
C372 C 0.90081 0.32682 0.72931 0.0
C373 C 0.83646 0.31406 0.73141 0.0
O374 O 0.68069 0.37676 0.79715 0.0
C375 C 0.6951 0.36028 0.6301 0.0
O376 O 0.75998 0.35699 0.62938 0.0
H377 H 0.81487 0.39944 0.73908 0.0
H378 H 0.82117 0.28611 0.72905 0.0
N379 N 0.66449 0.29865 0.7533 0.0
N380 N 0.58501 0.25694 0.75732 0.0
C381 C 0.60098 0.29045 0.7415 0.0
C382 C 0.68948 0.26924 0.77745 0.0
C383 C 0.64028 0.24331 0.78001 0.0
C384 C 0.67902 0.36589 0.84437 0.0
O385 O 0.68802 0.33152 0.85463 0.0
H386 H 0.56716 0.30897 0.72234 0.0
H387 H 0.73928 0.26711 0.7933 0.0
O388 O 0.66416 0.3587 0.67338 0.0
H389 H 0.94544 0.31074 0.725 0.0
H390 H 0.64468 0.21692 0.79769 0.0
Cu391 Cu 0.62616 0.9279 0.74685 0.0
N392 N 0.5381 0.92544 0.72474 0.0
N393 N 0.43674 0.90187 0.72076 0.0
C394 C 0.49629 0.90106 0.74478 0.0
C395 C 0.44029 0.92802 0.68436 0.0
C396 C 0.50364 0.94259 0.68682 0.0
O397 O 0.62233 0.92382 0.82158 0.0
C398 C 0.65527 0.8726 0.67367 0.0
O399 O 0.59109 0.86705 0.66995 0.0
H400 H 0.51021 0.88248 0.77549 0.0
H401 H 0.52361 0.96336 0.66194 0.0
N402 N 0.66865 0.97087 0.7315 0.0
N403 N 0.75515 1.00741 0.72199 0.0
C404 C 0.73493 0.97299 0.72642 0.0
C405 C 0.64599 1.00514 0.73003 0.0
C406 C 0.69971 0.02796 0.72413 0.0
C407 C 0.67001 0.92224 0.85418 0.0
O408 O 0.73166 0.92055 0.83805 0.0
H409 H 0.76775 0.94983 0.72863 0.0
H410 H 0.59463 0.013 0.73497 0.0
O411 O 0.67832 0.89074 0.71223 0.0
H412 H 0.40106 0.93524 0.65714 0.0
H413 H 0.69819 0.05718 0.72307 0.0
Cu414 Cu 0.69555 0.89564 0.52087 0.0
N415 N 0.78814 0.8937 0.51979 0.0
N416 N 0.88869 0.86976 0.50947 0.0
C417 C 0.82305 0.86326 0.51021 0.0
C418 C 0.89605 0.90539 0.51919 0.0
C419 C 0.83357 0.92014 0.52588 0.0
O420 O 0.66623 0.87237 0.45704 0.0
C421 C 0.69376 0.87279 0.62531 0.0
O422 O 0.75419 0.88602 0.62659 0.0
H423 H 0.80068 0.83707 0.50332 0.0
H424 H 0.82242 0.94804 0.53505 0.0
N425 N 0.65968 0.94234 0.52296 0.0
N426 N 0.58097 0.98477 0.52736 0.0
C427 C 0.5958 0.94959 0.53449 0.0
C428 C 0.68595 0.97411 0.50819 0.0
C429 C 0.63736 1.00044 0.51093 0.0
C430 C 0.67008 0.88939 0.41411 0.0
O431 O 0.68929 0.92326 0.41424 0.0
H432 H 0.56044 0.92913 0.54556 0.0
H433 H 0.73567 0.97763 0.49365 0.0
O434 O 0.66235 0.87121 0.58192 0.0
H435 H 0.94293 0.9195 0.52223 0.0
H436 H 0.6426 0.02845 0.49987 0.0
Cu437 Cu 0.64265 0.32702 0.47942 0.0
N438 N 0.55065 0.33316 0.48434 0.0
N439 N 0.45432 0.36265 0.49097 0.0
C440 C 0.52062 0.36576 0.48659 0.0
C441 C 0.44157 0.32687 0.49111 0.0
C442 C 0.50146 0.30865 0.48708 0.0
O443 O 0.6657 0.34145 0.40943 0.0
C444 C 0.65689 0.35552 0.58129 0.0
O445 O 0.59455 0.34572 0.58479 0.0
H446 H 0.54712 0.39114 0.48562 0.0
H447 H 0.50859 0.27967 0.48687 0.0
N448 N 0.67354 0.27962 0.48328 0.0
N449 N 0.75481 0.2385 0.48185 0.0
C450 C 0.73745 0.2725 0.49521 0.0
C451 C 0.64956 0.24897 0.46145 0.0
C452 C 0.69977 0.22329 0.46087 0.0
C453 C 0.67394 0.3735 0.39384 0.0
O454 O 0.67296 0.40042 0.42766 0.0
H455 H 0.77171 0.2929 0.50934 0.0
H456 H 0.60115 0.24642 0.44317 0.0
O457 O 0.6864 0.35262 0.5374 0.0
H458 H 0.393 0.3148 0.49487 0.0
H459 H 0.6972 0.19667 0.44309 0.0
Cu460 Cu 0.38054 0.67624 0.25005 0.0
N461 N 0.29148 0.67552 0.26954 0.0
N462 N 0.18654 0.65672 0.2706 0.0
C463 C 0.2464 0.65289 0.24816 0.0
C464 C 0.19365 0.68279 0.30749 0.0
C465 C 0.25897 0.69434 0.30681 0.0
O466 O 0.38067 0.66773 0.17573 0.0
C467 C 0.40814 0.6245 0.32889 0.0
O468 O 0.34359 0.62032 0.3317 0.0
H469 H 0.25772 0.63381 0.21716 0.0
H470 H 0.28138 0.71454 0.33218 0.0
N471 N 0.42088 0.72075 0.26107 0.0
N472 N 0.50377 0.76027 0.26668 0.0
C473 C 0.48712 0.7251 0.26412 0.0
C474 C 0.3947 0.75429 0.26176 0.0
C475 C 0.44609 0.77894 0.26526 0.0
C476 C 0.4282 0.65712 0.1472 0.0
O477 O 0.48534 0.6477 0.16822 0.0
H478 H 0.52223 0.70294 0.26237 0.0
H479 H 0.34228 0.76038 0.25828 0.0
O480 O 0.43247 0.64235 0.29129 0.0
H481 H 0.15512 0.69231 0.33348 0.0
H482 H 0.44137 0.80808 0.26557 0.0
Cu483 Cu 0.43459 0.11722 0.25053 0.0
N484 N 0.52748 0.11444 0.24574 0.0
N485 N 0.63348 0.13165 0.25033 0.0
C486 C 0.57186 0.13667 0.26937 0.0
C487 C 0.62809 0.10531 0.21371 0.0
C488 C 0.56253 0.09486 0.21085 0.0
O489 O 0.39971 0.14483 0.1917 0.0
C490 C 0.43888 0.11996 0.35742 0.0
O491 O 0.48483 0.09555 0.34795 0.0
H492 H 0.55838 0.15757 0.29722 0.0
H493 H 0.54123 0.07599 0.1829 0.0
N494 N 0.39468 0.07191 0.2447 0.0
N495 N 0.3134 0.03121 0.24244 0.0
C496 C 0.32894 0.06633 0.24923 0.0
C497 C 0.42151 0.03912 0.23507 0.0
C498 C 0.37118 0.01382 0.23347 0.0
C499 C 0.43831 0.16431 0.16489 0.0
O500 O 0.49849 0.17106 0.18224 0.0
H501 H 0.29344 0.08764 0.25721 0.0
H502 H 0.47386 0.03383 0.23005 0.0
O503 O 0.41037 0.13557 0.31906 0.0
H504 H 0.66777 0.09542 0.18913 0.0
H505 H 0.37686 0.98502 0.2272 0.0
Cu506 Cu 0.39622 0.08624 0.50934 0.0
N507 N 0.30456 0.08295 0.49843 0.0
N508 N 0.20012 0.10116 0.48598 0.0
C509 C 0.26235 0.11129 0.49876 0.0
C510 C 0.20247 0.06516 0.47764 0.0
C511 C 0.26742 0.05398 0.4851 0.0
O512 O 0.41122 0.11932 0.56751 0.0
C513 C 0.41215 0.12261 0.41044 0.0
O514 O 0.35595 0.13961 0.41888 0.0
H515 H 0.27731 0.13883 0.50714 0.0
H516 H 0.2865 0.02687 0.47963 0.0
N517 N 0.43618 0.04168 0.5236 0.0
N518 N 0.5176 1.00104 0.53082 0.0
C519 C 0.50114 0.03484 0.51627 0.0
C520 C 0.41075 0.01113 0.5436 0.0
C521 C 0.46116 0.98581 0.54802 0.0
C522 C 0.42414 0.10822 0.61358 0.0
O523 O 0.43246 0.07359 0.62225 0.0
H524 H 0.53537 0.05437 0.50059 0.0
H525 H 0.35955 1.00767 0.55485 0.0
O526 O 0.43708 0.10208 0.4452 0.0
H527 H 0.16106 0.04851 0.46517 0.0
H528 H 0.45663 0.95864 0.56288 0.0
Cu529 Cu 0.45047 0.63998 0.48443 0.0
N530 N 0.54284 0.64524 0.48363 0.0
N531 N 0.64986 0.63079 0.49187 0.0
C532 C 0.58697 0.61858 0.4933 0.0
C533 C 0.64578 0.66627 0.48068 0.0
C534 C 0.57939 0.6751 0.47531 0.0
O535 O 0.4305 0.61154 0.54532 0.0
C536 C 0.44799 0.6215 0.37701 0.0
O537 O 0.50884 0.63413 0.3773 0.0
H538 H 0.57318 0.591 0.50178 0.0
H539 H 0.55939 0.70136 0.46554 0.0
N540 N 0.40481 0.68395 0.49018 0.0
N541 N 0.31907 0.72222 0.4904 0.0
C542 C 0.33974 0.68839 0.47905 0.0
C543 C 0.42573 0.71612 0.50912 0.0
C544 C 0.37278 0.73988 0.50927 0.0
C545 C 0.43374 0.62689 0.59004 0.0
O546 O 0.44745 0.66149 0.59343 0.0
H547 H 0.30819 0.66701 0.464 0.0
H548 H 0.47528 0.72162 0.52361 0.0
O549 O 0.41774 0.61782 0.42015 0.0
H550 H 0.68752 0.68425 0.47583 0.0
H551 H 0.37365 0.76761 0.52304 0.0
Cu552 Cu 0.69162 0.85925 0.25767 0.0
N553 N 0.78376 0.85781 0.24936 0.0
N554 N 0.8872 0.87884 0.24609 0.0
C555 C 0.82375 0.88636 0.25833 0.0
C556 C 0.88795 0.84427 0.22903 0.0
C557 C 0.82357 0.83135 0.23082 0.0
O558 O 0.67437 0.886 0.32159 0.0
C559 C 0.67935 0.89507 0.15865 0.0
O560 O 0.74243 0.90349 0.16272 0.0
H561 H 0.80621 0.91236 0.27227 0.0
H562 H 0.80682 0.80499 0.21789 0.0
N563 N 0.65183 0.81393 0.26233 0.0
N564 N 0.56869 0.77455 0.26663 0.0
C565 C 0.58558 0.80937 0.26009 0.0
C566 C 0.67773 0.7808 0.27064 0.0
C567 C 0.62619 0.75625 0.27316 0.0
C568 C 0.66564 0.86956 0.36459 0.0
O569 O 0.66369 0.83412 0.36533 0.0
H570 H 0.5507 0.83129 0.25419 0.0
H571 H 0.73 0.77498 0.27571 0.0
O572 O 0.64973 0.88056 0.19684 0.0
H573 H 0.93106 0.82998 0.21449 0.0
H574 H 0.63067 0.72752 0.28005 0.0
Cu575 Cu 0.64337 0.42725 0.25249 0.0
N576 N 0.55058 0.42423 0.25215 0.0
N577 N 0.44936 0.3999 0.25054 0.0
C578 C 0.51484 0.39385 0.24414 0.0
C579 C 0.44332 0.43519 0.26342 0.0
C580 C 0.50611 0.45013 0.2645 0.0
O581 O 0.67269 0.41279 0.32149 0.0
C582 C 0.64981 0.40041 0.15014 0.0
O583 O 0.59045 0.41507 0.14745 0.0
H584 H 0.53662 0.36784 0.23478 0.0
H585 H 0.51858 0.47774 0.2747 0.0
N586 N 0.67589 0.47391 0.24516 0.0
N587 N 0.75302 0.51693 0.24532 0.0
C588 C 0.7389 0.48255 0.25771 0.0
C589 C 0.64918 0.50385 0.22376 0.0
C590 C 0.69694 0.53074 0.22404 0.0
C591 C 0.67121 0.38049 0.33737 0.0
O592 O 0.65555 0.35435 0.30443 0.0
H593 H 0.77386 0.46361 0.27466 0.0
H594 H 0.59935 0.50572 0.20787 0.0
O595 O 0.68051 0.39995 0.19401 0.0
H596 H 0.39726 0.44912 0.27175 0.0
H597 H 0.69131 0.55777 0.20875 0.0
Cu598 Cu 0.69444 0.41468 0.99262 0.0
N599 N 0.78663 0.41841 0.00015 0.0
N600 N 0.89276 0.4015 0.00483 0.0
C601 C 0.82966 0.39048 0.99745 0.0
C602 C 0.88994 0.43755 0.01247 0.0
C603 C 0.82403 0.44792 0.00986 0.0
O604 O 0.67758 0.38123 0.93495 0.0
C605 C 0.68576 0.39409 0.1011 0.0
O606 O 0.75085 0.39239 0.10194 0.0
H607 H 0.81489 0.36274 0.99042 0.0
H608 H 0.80477 0.47497 0.01548 0.0
N609 N 0.65372 0.45906 0.97814 0.0
N610 N 0.57421 0.50106 0.97521 0.0
C611 C 0.58979 0.46691 0.98865 0.0
C612 C 0.67912 0.48928 0.95713 0.0
C613 C 0.62999 0.51543 0.95543 0.0
C614 C 0.67697 0.39212 0.8877 0.0
O615 O 0.68348 0.42667 0.87782 0.0
H616 H 0.55595 0.44815 0.00662 0.0
H617 H 0.72962 0.49211 0.94381 0.0
O618 O 0.65487 0.39948 0.05809 0.0
H619 H 0.93202 0.4549 0.02058 0.0
H620 H 0.63491 0.54265 0.94078 0.0
Cu621 Cu 0.65694 0.87631 0.00065 0.0
N622 N 0.56414 0.8712 0.99413 0.0
N623 N 0.45621 0.88533 0.99523 0.0
C624 C 0.51789 0.8951 0.01065 0.0
C625 C 0.46339 0.85419 0.96803 0.0
C626 C 0.53023 0.8456 0.9673 0.0
O627 O 0.69156 0.89993 0.93917 0.0
C628 C 0.64879 0.89115 0.10672 0.0
O629 O 0.59704 0.86986 0.10175 0.0
H630 H 0.52975 0.91969 0.03189 0.0
H631 H 0.55276 0.82292 0.94713 0.0
N632 N 0.70041 0.83185 0.00249 0.0
N633 N 0.78469 0.7927 0.0024 0.0
C634 C 0.76642 0.82751 0.99669 0.0
C635 C 0.67629 0.79873 0.01245 0.0
C636 C 0.72839 0.77435 0.01225 0.0
C637 C 0.65344 0.91789 0.9093 0.0
O638 O 0.593 0.92574 0.92441 0.0
H639 H 0.80018 0.84953 0.98927 0.0
H640 H 0.62479 0.79285 0.02031 0.0
O641 O 0.68058 0.90013 0.06605 0.0
H642 H 0.42378 0.83927 0.94893 0.0
H643 H 0.7251 0.74567 0.01974 0.0
Cu644 Cu 0.40384 0.15279 0.76245 0.0
N645 N 0.31112 0.15465 0.76263 0.0
N646 N 0.20657 0.13558 0.75703 0.0
C647 C 0.27096 0.12572 0.75753 0.0
C648 C 0.20555 0.17186 0.76223 0.0
C649 C 0.27045 0.18358 0.76602 0.0
O650 O 0.42809 0.12179 0.70444 0.0
C651 C 0.40647 0.13857 0.87118 0.0
O652 O 0.34547 0.15118 0.87018 0.0
H653 H 0.28864 0.09818 0.75355 0.0
H654 H 0.28665 0.21121 0.77125 0.0
N655 N 0.44331 0.19801 0.75313 0.0
N656 N 0.52257 0.23996 0.75174 0.0
C657 C 0.50644 0.20621 0.7665 0.0
C658 C 0.41901 0.22761 0.72911 0.0
C659 C 0.4679 0.25366 0.72827 0.0
C660 C 0.41964 0.13325 0.65801 0.0
O661 O 0.39787 0.16629 0.65043 0.0
H662 H 0.54003 0.18749 0.78552 0.0
H663 H 0.37003 0.22975 0.71177 0.0
O664 O 0.43779 0.13448 0.82847 0.0
H665 H 0.16135 0.18852 0.76401 0.0
H666 H 0.46387 0.28011 0.71075 0.0
Cu667 Cu 0.45435 0.59426 0.74528 0.0
N668 N 0.54627 0.59336 0.75542 0.0
N669 N 0.64849 0.61534 0.76493 0.0
C670 C 0.58503 0.62285 0.75221 0.0
C671 C 0.65063 0.57981 0.77611 0.0
C672 C 0.58696 0.56627 0.77043 0.0
O673 O 0.43702 0.62119 0.68212 0.0
C674 C 0.44036 0.62975 0.84538 0.0
O675 O 0.50401 0.63706 0.84431 0.0
H676 H 0.56655 0.64947 0.74238 0.0
H677 H 0.5712 0.53897 0.77845 0.0
N678 N 0.41542 0.5487 0.73908 0.0
N679 N 0.33349 0.50836 0.73763 0.0
C680 C 0.35012 0.54312 0.74624 0.0
C681 C 0.44099 0.51628 0.72544 0.0
C682 C 0.39023 0.49116 0.72453 0.0
C683 C 0.43201 0.60547 0.63775 0.0
O684 O 0.43444 0.57007 0.63447 0.0
H685 H 0.31562 0.56434 0.75696 0.0
H686 H 0.4924 0.5114 0.71574 0.0
O687 O 0.41165 0.61571 0.80562 0.0
H688 H 0.69412 0.56521 0.78954 0.0
H689 H 0.3947 0.46279 0.71451 0.0
Cu690 Cu 0.40737 0.61026 0.00016 0.0
N691 N 0.31446 0.61374 0.00446 0.0
N692 N 0.21357 0.63892 0.00288 0.0
C693 C 0.27647 0.64092 0.98556 0.0
C694 C 0.21146 0.60952 0.03373 0.0
C695 C 0.27397 0.59414 0.03478 0.0
O696 O 0.44591 0.62873 0.06489 0.0
C697 C 0.40713 0.62666 0.89578 0.0
O698 O 0.35301 0.60703 0.89789 0.0
H699 H 0.29563 0.66279 0.96229 0.0
H700 H 0.28965 0.57152 0.05844 0.0
N701 N 0.43832 0.56285 0.99342 0.0
N702 N 0.51274 0.51876 0.98265 0.0
C703 C 0.50179 0.55467 0.98195 0.0
C704 C 0.40807 0.53092 0.00131 0.0
C705 C 0.45422 0.50349 0.99484 0.0
C706 C 0.41503 0.65258 0.09116 0.0
O707 O 0.36278 0.6685 0.07064 0.0
H708 H 0.53945 0.5748 0.97481 0.0
H709 H 0.35658 0.52774 0.01182 0.0
O710 O 0.43803 0.63436 0.93805 0.0
H711 H 0.16886 0.60058 0.05555 0.0
H712 H 0.44556 0.47482 -0.00081 0.0
Cu713 Cu 0.47079 0.18799 0.00608 0.0
N714 N 0.56012 0.18674 0.9873 0.0
N715 N 0.66139 0.16269 0.98107 0.0
C716 C 0.60176 0.16071 0.00418 0.0
C717 C 0.65791 0.19125 0.94859 0.0
C718 C 0.59481 0.20608 0.95245 0.0
O719 O 0.4706 0.17431 0.0786 0.0
C720 C 0.44456 0.1403 0.92032 0.0
O721 O 0.50891 0.13489 0.91881 0.0
H722 H 0.58744 0.13998 0.03145 0.0
H723 H 0.57495 0.22842 0.9301 0.0
N724 N 0.43086 0.23328 0.00164 0.0
N725 N 0.34646 0.27229 -0.00171 0.0
C726 C 0.36519 0.23748 0.99357 0.0
C727 C 0.45464 0.26663 0.01182 0.0
C728 C 0.40229 0.29098 0.00968 0.0
C729 C 0.42257 0.17261 0.11029 0.0
O730 O 0.36107 0.17681 0.09394 0.0
H731 H 0.33163 0.21515 0.98656 0.0
H732 H 0.50576 0.2726 0.02188 0.0
O733 O 0.41927 0.15728 0.9589 0.0
H734 H 0.69697 0.19998 0.92282 0.0
H735 H 0.40493 0.31977 0.01722 0.0
loop_
_geom_bond_atom_site_label_1
_geom_bond_atom_site_label_2
_geom_bond_distance
_geom_bond_site_symmetry_2
_ccdc_geom_bond_type
Cu0 N1 1.999 . S
Cu0 O6 1.974 . S
Cu0 N11 1.985 . S
Cu0 O20 1.959 . S
N1 Cu0 1.999 . S
N1 C3 1.263 . S
N1 C5 1.389 . S
N2 C3 1.358 . S
N2 C4 1.400 . S
C3 N1 1.263 . S
C3 N2 1.358 . S
C3 H9 0.930 . S
C4 N2 1.400 . S
C4 C5 1.351 . S
C4 H21 0.930 . S
C5 N1 1.389 . S
C5 C4 1.351 . S
C5 H10 0.930 . S
O6 Cu0 1.974 . S
O6 C16 1.282 . S
C7 O8 1.261 . S
C7 O20 1.251 . S
O8 C7 1.261 . S
H9 C3 0.930 . S
H10 C5 0.930 . S
N11 Cu0 1.985 . S
N11 C13 1.335 . S
N11 C14 1.390 . S
N12 C13 1.345 . S
N12 C15 1.336 . S
C13 N11 1.335 . S
C13 N12 1.345 . S
C13 H18 0.930 . S
C14 N11 1.390 . S
C14 C15 1.346 . S
C14 H19 0.930 . S
C15 N12 1.336 . S
C15 C14 1.346 . S
C15 H22 0.929 1_455 S
C16 O6 1.282 . S
C16 O17 1.216 . S
O17 C16 1.216 . S
H18 C13 0.930 . S
H19 C14 0.930 . S
O20 Cu0 1.959 . S
O20 C7 1.251 . S
H21 C4 0.930 . S
H22 C15 0.929 1_655 S
Cu23 N24 1.999 1_455 S
Cu23 O29 1.974 . S
Cu23 N34 1.985 . S
Cu23 O43 1.959 . S
N24 Cu23 1.999 1_655 S
N24 C26 1.263 . S
N24 C28 1.389 . S
N25 C26 1.358 . S
N25 C27 1.400 . S
C26 N24 1.263 . S
C26 N25 1.358 . S
C26 H32 0.930 . S
C27 N25 1.400 . S
C27 C28 1.351 . S
C27 H44 0.930 . S
C28 N24 1.389 . S
C28 C27 1.351 . S
C28 H33 0.930 . S
O29 Cu23 1.974 . S
O29 C39 1.282 . S
C30 O31 1.261 . S
C30 O43 1.251 . S
O31 C30 1.261 . S
H32 C26 0.930 . S
H33 C28 0.930 . S
N34 Cu23 1.985 . S
N34 C36 1.335 . S
N34 C37 1.390 . S
N35 C36 1.345 . S
N35 C38 1.336 . S
C36 N34 1.335 . S
C36 N35 1.345 . S
C36 H41 0.930 . S
C37 N34 1.390 . S
C37 C38 1.346 . S
C37 H42 0.930 . S
C38 N35 1.336 . S
C38 C37 1.346 . S
C38 H45 0.929 . S
C39 O29 1.282 . S
C39 O40 1.216 . S
O40 C39 1.216 . S
H41 C36 0.930 . S
H42 C37 0.930 . S
O43 Cu23 1.959 . S
O43 C30 1.251 . S
H44 C27 0.930 . S
H45 C38 0.929 . S
Cu46 N47 1.999 1_556 S
Cu46 O52 1.974 . S
Cu46 N57 1.985 . S
Cu46 O66 1.959 1_556 S
N47 Cu46 1.999 1_554 S
N47 C49 1.263 1_554 S
N47 C51 1.389 . S
N48 C49 1.358 1_554 S
N48 C50 1.400 . S
C49 N47 1.263 1_556 S
C49 N48 1.358 1_556 S
C49 H55 0.930 . S
C50 N48 1.400 . S
C50 C51 1.351 . S
C50 H67 0.930 . S
C51 N47 1.389 . S
C51 C50 1.351 . S
C51 H56 0.930 . S
O52 Cu46 1.974 . S
O52 C62 1.282 . S
C53 O54 1.261 . S
C53 O66 1.251 . S
O54 C53 1.261 . S
H55 C49 0.930 . S
H56 C51 0.930 . S
N57 Cu46 1.985 . S
N57 C59 1.335 1_556 S
N57 C60 1.390 . S
N58 C59 1.345 1_556 S
N58 C61 1.336 . S
C59 N57 1.335 1_554 S
C59 N58 1.345 1_554 S
C59 H64 0.930 . S
C60 N57 1.390 . S
C60 C61 1.346 . S
C60 H65 0.930 . S
C61 N58 1.336 . S
C61 C60 1.346 . S
C61 H68 0.929 1_455 S
C62 O52 1.282 . S
C62 O63 1.216 . S
O63 C62 1.216 . S
H64 C59 0.930 . S
H65 C60 0.930 . S
O66 Cu46 1.959 1_554 S
O66 C53 1.251 . S
H67 C50 0.930 . S
H68 C61 0.929 1_655 S
Cu69 N70 1.999 1_456 S
Cu69 O75 1.974 . S
Cu69 N80 1.985 . S
Cu69 O89 1.959 1_556 S
N70 Cu69 1.999 1_654 S
N70 C72 1.263 1_554 S
N70 C74 1.389 . S
N71 C72 1.358 1_554 S
N71 C73 1.400 . S
C72 N70 1.263 1_556 S
C72 N71 1.358 1_556 S
C72 H78 0.930 . S
C73 N71 1.400 . S
C73 C74 1.351 . S
C73 H90 0.930 . S
C74 N70 1.389 . S
C74 C73 1.351 . S
C74 H79 0.930 . S
O75 Cu69 1.974 . S
O75 C85 1.282 . S
C76 O77 1.261 . S
C76 O89 1.251 . S
O77 C76 1.261 . S
H78 C72 0.930 . S
H79 C74 0.930 . S
N80 Cu69 1.985 . S
N80 C82 1.335 1_556 S
N80 C83 1.390 . S
N81 C82 1.345 1_556 S
N81 C84 1.336 . S
C82 N80 1.335 1_554 S
C82 N81 1.345 1_554 S
C82 H87 0.930 . S
C83 N80 1.390 . S
C83 C84 1.346 . S
C83 H88 0.930 . S
C84 N81 1.336 . S
C84 C83 1.346 . S
C84 H91 0.929 . S
C85 O75 1.282 . S
C85 O86 1.216 . S
O86 C85 1.216 . S
H87 C82 0.930 . S
H88 C83 0.930 . S
O89 Cu69 1.959 1_554 S
O89 C76 1.251 . S
H90 C73 0.930 . S
H91 C84 0.929 . S
Cu92 N93 1.999 . S
Cu92 O98 1.974 . S
Cu92 N103 1.985 . S
Cu92 O112 1.959 . S
N93 Cu92 1.999 . S
N93 C95 1.263 . S
N93 C97 1.389 . S
N94 C95 1.358 . S
N94 C96 1.400 . S
C95 N93 1.263 . S
C95 N94 1.358 . S
C95 H101 0.930 . S
C96 N94 1.400 . S
C96 C97 1.351 . S
C96 H113 0.930 . S
C97 N93 1.389 . S
C97 C96 1.351 . S
C97 H102 0.930 . S
O98 Cu92 1.974 . S
O98 C108 1.282 . S
C99 O100 1.261 . S
C99 O112 1.251 . S
O100 C99 1.261 . S
H101 C95 0.930 . S
H102 C97 0.930 . S
N103 Cu92 1.985 . S
N103 C105 1.335 . S
N103 C106 1.390 . S
N104 C105 1.345 . S
N104 C107 1.336 . S
C105 N103 1.335 . S
C105 N104 1.345 . S
C105 H110 0.930 . S
C106 N103 1.390 . S
C106 C107 1.346 . S
C106 H111 0.930 . S
C107 N104 1.336 . S
C107 C106 1.346 . S
C107 H114 0.929 1_655 S
C108 O98 1.282 . S
C108 O109 1.216 . S
O109 C108 1.216 . S
H110 C105 0.930 . S
H111 C106 0.930 . S
O112 Cu92 1.959 . S
O112 C99 1.251 . S
H113 C96 0.930 . S
H114 C107 0.929 1_455 S
Cu115 N116 1.999 1_655 S
Cu115 O121 1.974 . S
Cu115 N126 1.985 . S
Cu115 O135 1.959 . S
N116 Cu115 1.999 1_455 S
N116 C118 1.263 . S
N116 C120 1.389 . S
N117 C118 1.358 . S
N117 C119 1.400 . S
C118 N116 1.263 . S
C118 N117 1.358 . S
C118 H124 0.930 . S
C119 N117 1.400 . S
C119 C120 1.351 . S
C119 H136 0.930 . S
C120 N116 1.389 . S
C120 C119 1.351 . S
C120 H125 0.930 . S
O121 Cu115 1.974 . S
O121 C131 1.282 . S
C122 O123 1.261 . S
C122 O135 1.251 . S
O123 C122 1.261 . S
H124 C118 0.930 . S
H125 C120 0.930 . S
N126 Cu115 1.985 . S
N126 C128 1.335 . S
N126 C129 1.390 . S
N127 C128 1.345 . S
N127 C130 1.336 . S
C128 N126 1.335 . S
C128 N127 1.345 . S
C128 H133 0.930 . S
C129 N126 1.390 . S
C129 C130 1.346 . S
C129 H134 0.930 . S
C130 N127 1.336 . S
C130 C129 1.346 . S
C130 H137 0.929 . S
C131 O121 1.282 . S
C131 O132 1.216 . S
O132 C131 1.216 . S
H133 C128 0.930 . S
H134 C129 0.930 . S
O135 Cu115 1.959 . S
O135 C122 1.251 . S
H136 C119 0.930 . S
H137 C130 0.929 . S
Cu138 N139 1.999 1_554 S
Cu138 O144 1.974 . S
Cu138 N149 1.985 . S
Cu138 O158 1.959 1_554 S
N139 Cu138 1.999 1_556 S
N139 C141 1.263 1_556 S
N139 C143 1.389 . S
N140 C141 1.358 1_556 S
N140 C142 1.400 . S
C141 N139 1.263 1_554 S
C141 N140 1.358 1_554 S
C141 H147 0.930 . S
C142 N140 1.400 . S
C142 C143 1.351 . S
C142 H159 0.930 . S
C143 N139 1.389 . S
C143 C142 1.351 . S
C143 H148 0.930 . S
O144 Cu138 1.974 . S
O144 C154 1.282 . S
C145 O146 1.261 . S
C145 O158 1.251 . S
O146 C145 1.261 . S
H147 C141 0.930 . S
H148 C143 0.930 . S
N149 Cu138 1.985 . S
N149 C151 1.335 1_554 S
N149 C152 1.390 . S
N150 C151 1.345 1_554 S
N150 C153 1.336 . S
C151 N149 1.335 1_556 S
C151 N150 1.345 1_556 S
C151 H156 0.930 . S
C152 N149 1.390 . S
C152 C153 1.346 . S
C152 H157 0.930 . S
C153 N150 1.336 . S
C153 C152 1.346 . S
C153 H160 0.929 1_655 S
C154 O144 1.282 . S
C154 O155 1.216 . S
O155 C154 1.216 . S
H156 C151 0.930 . S
H157 C152 0.930 . S
O158 Cu138 1.959 1_556 S
O158 C145 1.251 . S
H159 C142 0.930 . S
H160 C153 0.929 1_455 S
Cu161 N162 1.999 1_654 S
Cu161 O167 1.974 . S
Cu161 N172 1.985 . S
Cu161 O181 1.959 1_554 S
N162 Cu161 1.999 1_456 S
N162 C164 1.263 1_556 S
N162 C166 1.389 . S
N163 C164 1.358 1_556 S
N163 C165 1.400 . S
C164 N162 1.263 1_554 S
C164 N163 1.358 1_554 S
C164 H170 0.930 . S
C165 N163 1.400 . S
C165 C166 1.351 . S
C165 H182 0.930 . S
C166 N162 1.389 . S
C166 C165 1.351 . S
C166 H171 0.930 . S
O167 Cu161 1.974 . S
O167 C177 1.282 . S
C168 O169 1.261 . S
C168 O181 1.251 . S
O169 C168 1.261 . S
H170 C164 0.930 . S
H171 C166 0.930 . S
N172 Cu161 1.985 . S
N172 C174 1.335 1_554 S
N172 C175 1.390 . S
N173 C174 1.345 1_554 S
N173 C176 1.336 . S
C174 N172 1.335 1_556 S
C174 N173 1.345 1_556 S
C174 H179 0.930 . S
C175 N172 1.390 . S
C175 C176 1.346 . S
C175 H180 0.930 . S
C176 N173 1.336 . S
C176 C175 1.346 . S
C176 H183 0.929 . S
C177 O167 1.282 . S
C177 O178 1.216 . S
O178 C177 1.216 . S
H179 C174 0.930 . S
H180 C175 0.930 . S
O181 Cu161 1.959 1_556 S
O181 C168 1.251 . S
H182 C165 0.930 . S
H183 C176 0.929 . S
Cu184 N185 1.999 . S
Cu184 O190 1.974 . S
Cu184 N195 1.985 . S
Cu184 O204 1.959 . S
N185 Cu184 1.999 . S
N185 C187 1.263 . S
N185 C189 1.389 . S
N186 C187 1.358 . S
N186 C188 1.400 . S
C187 N185 1.263 . S
C187 N186 1.358 . S
C187 H193 0.930 . S
C188 N186 1.400 . S
C188 C189 1.351 . S
C188 H205 0.930 . S
C189 N185 1.389 . S
C189 C188 1.351 . S
C189 H194 0.930 . S
O190 Cu184 1.974 . S
O190 C200 1.282 . S
C191 O192 1.261 . S
C191 O204 1.251 . S
O192 C191 1.261 . S
H193 C187 0.930 . S
H194 C189 0.930 . S
N195 Cu184 1.985 . S
N195 C197 1.335 . S
N195 C198 1.390 . S
N196 C197 1.345 . S
N196 C199 1.336 . S
C197 N195 1.335 . S
C197 N196 1.345 . S
C197 H202 0.930 . S
C198 N195 1.390 . S
C198 C199 1.346 . S
C198 H203 0.930 . S
C199 N196 1.336 . S
C199 C198 1.346 . S
C199 H206 0.929 1_455 S
C200 O190 1.282 . S
C200 O201 1.216 . S
O201 C200 1.216 . S
H202 C197 0.930 . S
H203 C198 0.930 . S
O204 Cu184 1.959 . S
O204 C191 1.251 . S
H205 C188 0.930 . S
H206 C199 0.929 1_655 S
Cu207 N208 1.999 1_455 S
Cu207 O213 1.974 . S
Cu207 N218 1.985 . S
Cu207 O227 1.959 . S
N208 Cu207 1.999 1_655 S
N208 C210 1.263 . S
N208 C212 1.389 . S
N209 C210 1.358 . S
N209 C211 1.400 . S
C210 N208 1.263 . S
C210 N209 1.358 . S
C210 H216 0.930 . S
C211 N209 1.400 . S
C211 C212 1.351 . S
C211 H228 0.930 . S
C212 N208 1.389 . S
C212 C211 1.351 . S
C212 H217 0.930 . S
O213 Cu207 1.974 . S
O213 C223 1.282 . S
C214 O215 1.261 . S
C214 O227 1.251 . S
O215 C214 1.261 . S
H216 C210 0.930 . S
H217 C212 0.930 . S
N218 Cu207 1.985 . S
N218 C220 1.335 . S
N218 C221 1.390 . S
N219 C220 1.345 . S
N219 C222 1.336 . S
C220 N218 1.335 . S
C220 N219 1.345 . S
C220 H225 0.930 . S
C221 N218 1.390 . S
C221 C222 1.346 . S
C221 H226 0.930 . S
C222 N219 1.336 . S
C222 C221 1.346 . S
C222 H229 0.929 . S
C223 O213 1.282 . S
C223 O224 1.216 . S
O224 C223 1.216 . S
H225 C220 0.930 . S
H226 C221 0.930 . S
O227 Cu207 1.959 . S
O227 C214 1.251 . S
H228 C211 0.930 . S
H229 C222 0.929 . S
Cu230 N231 1.999 . S
Cu230 O236 1.974 . S
Cu230 N241 1.985 . S
Cu230 O250 1.959 . S
N231 Cu230 1.999 . S
N231 C233 1.263 . S
N231 C235 1.389 . S
N232 C233 1.358 . S
N232 C234 1.400 . S
C233 N231 1.263 . S
C233 N232 1.358 . S
C233 H239 0.930 . S
C234 N232 1.400 . S
C234 C235 1.351 . S
C234 H251 0.930 . S
C235 N231 1.389 . S
C235 C234 1.351 . S
C235 H240 0.930 . S
O236 Cu230 1.974 . S
O236 C246 1.282 . S
C237 O238 1.261 . S
C237 O250 1.251 . S
O238 C237 1.261 . S
H239 C233 0.930 . S
H240 C235 0.930 . S
N241 Cu230 1.985 . S
N241 C243 1.335 . S
N241 C244 1.390 . S
N242 C243 1.345 . S
N242 C245 1.336 . S
C243 N241 1.335 . S
C243 N242 1.345 . S
C243 H248 0.930 . S
C244 N241 1.390 . S
C244 C245 1.346 . S
C244 H249 0.930 . S
C245 N242 1.336 . S
C245 C244 1.346 . S
C245 H252 0.929 1_455 S
C246 O236 1.282 . S
C246 O247 1.216 . S
O247 C246 1.216 . S
H248 C243 0.930 . S
H249 C244 0.930 . S
O250 Cu230 1.959 . S
O250 C237 1.251 . S
H251 C234 0.930 . S
H252 C245 0.929 1_655 S
Cu253 N254 1.999 1_455 S
Cu253 O259 1.974 . S
Cu253 N264 1.985 . S
Cu253 O273 1.959 . S
N254 Cu253 1.999 1_655 S
N254 C256 1.263 . S
N254 C258 1.389 . S
N255 C256 1.358 . S
N255 C257 1.400 . S
C256 N254 1.263 . S
C256 N255 1.358 . S
C256 H262 0.930 . S
C257 N255 1.400 . S
C257 C258 1.351 . S
C257 H274 0.930 . S
C258 N254 1.389 . S
C258 C257 1.351 . S
C258 H263 0.930 . S
O259 Cu253 1.974 . S
O259 C269 1.282 . S
C260 O261 1.261 . S
C260 O273 1.251 . S
O261 C260 1.261 . S
H262 C256 0.930 . S
H263 C258 0.930 . S
N264 Cu253 1.985 . S
N264 C266 1.335 . S
N264 C267 1.390 . S
N265 C266 1.345 . S
N265 C268 1.336 . S
C266 N264 1.335 . S
C266 N265 1.345 . S
C266 H271 0.930 . S
C267 N264 1.390 . S
C267 C268 1.346 . S
C267 H272 0.930 . S
C268 N265 1.336 . S
C268 C267 1.346 . S
C268 H275 0.929 . S
C269 O259 1.282 . S
C269 O270 1.216 . S
O270 C269 1.216 . S
H271 C266 0.930 . S
H272 C267 0.930 . S
O273 Cu253 1.959 . S
O273 C260 1.251 . S
H274 C257 0.930 . S
H275 C268 0.929 . S
Cu276 N277 1.999 . S
Cu276 O282 1.974 . S
Cu276 N287 1.985 . S
Cu276 O296 1.959 . S
N277 Cu276 1.999 . S
N277 C279 1.263 . S
N277 C281 1.389 . S
N278 C279 1.358 . S
N278 C280 1.400 . S
C279 N277 1.263 . S
C279 N278 1.358 . S
C279 H285 0.930 . S
C280 N278 1.400 . S
C280 C281 1.351 . S
C280 H297 0.930 . S
C281 N277 1.389 . S
C281 C280 1.351 . S
C281 H286 0.930 . S
O282 Cu276 1.974 . S
O282 C292 1.282 . S
C283 O284 1.261 . S
C283 O296 1.251 . S
O284 C283 1.261 . S
H285 C279 0.930 . S
H286 C281 0.930 . S
N287 Cu276 1.985 . S
N287 C289 1.335 . S
N287 C290 1.390 . S
N288 C289 1.345 . S
N288 C291 1.336 . S
C289 N287 1.335 . S
C289 N288 1.345 . S
C289 H294 0.930 . S
C290 N287 1.390 . S
C290 C291 1.346 . S
C290 H295 0.930 . S
C291 N288 1.336 . S
C291 C290 1.346 . S
C291 H298 0.929 1_655 S
C292 O282 1.282 . S
C292 O293 1.216 . S
O293 C292 1.216 . S
H294 C289 0.930 . S
H295 C290 0.930 . S
O296 Cu276 1.959 . S
O296 C283 1.251 . S
H297 C280 0.930 . S
H298 C291 0.929 1_455 S
Cu299 N300 1.999 1_655 S
Cu299 O305 1.974 . S
Cu299 N310 1.985 . S
Cu299 O319 1.959 . S
N300 Cu299 1.999 1_455 S
N300 C302 1.263 . S
N300 C304 1.389 . S
N301 C302 1.358 . S
N301 C303 1.400 . S
C302 N300 1.263 . S
C302 N301 1.358 . S
C302 H308 0.930 . S
C303 N301 1.400 . S
C303 C304 1.351 . S
C303 H320 0.930 . S
C304 N300 1.389 . S
C304 C303 1.351 . S
C304 H309 0.930 . S
O305 Cu299 1.974 . S
O305 C315 1.282 . S
C306 O307 1.261 . S
C306 O319 1.251 . S
O307 C306 1.261 . S
H308 C302 0.930 . S
H309 C304 0.930 . S
N310 Cu299 1.985 . S
N310 C312 1.335 . S
N310 C313 1.390 . S
N311 C312 1.345 . S
N311 C314 1.336 . S
C312 N310 1.335 . S
C312 N311 1.345 . S
C312 H317 0.930 . S
C313 N310 1.390 . S
C313 C314 1.346 . S
C313 H318 0.930 . S
C314 N311 1.336 . S
C314 C313 1.346 . S
C314 H321 0.929 . S
C315 O305 1.282 . S
C315 O316 1.216 . S
O316 C315 1.216 . S
H317 C312 0.930 . S
H318 C313 0.930 . S
O319 Cu299 1.959 . S
O319 C306 1.251 . S
H320 C303 0.930 . S
H321 C314 0.929 . S
Cu322 N323 1.999 . S
Cu322 O328 1.974 . S
Cu322 N333 1.985 . S
Cu322 O342 1.959 . S
N323 Cu322 1.999 . S
N323 C325 1.263 . S
N323 C327 1.389 . S
N324 C325 1.358 . S
N324 C326 1.400 . S
C325 N323 1.263 . S
C325 N324 1.358 . S
C325 H331 0.930 . S
C326 N324 1.400 . S
C326 C327 1.351 . S
C326 H343 0.930 . S
C327 N323 1.389 . S
C327 C326 1.351 . S
C327 H332 0.930 . S
O328 Cu322 1.974 . S
O328 C338 1.282 . S
C329 O330 1.261 . S
C329 O342 1.251 . S
O330 C329 1.261 . S
H331 C325 0.930 . S
H332 C327 0.930 . S
N333 Cu322 1.985 . S
N333 C335 1.335 . S
N333 C336 1.390 . S
N334 C335 1.345 . S
N334 C337 1.336 . S
C335 N333 1.335 . S
C335 N334 1.345 . S
C335 H340 0.930 . S
C336 N333 1.390 . S
C336 C337 1.346 . S
C336 H341 0.930 . S
C337 N334 1.336 . S
C337 C336 1.346 . S
C337 H344 0.929 1_655 S
C338 O328 1.282 . S
C338 O339 1.216 . S
O339 C338 1.216 . S
H340 C335 0.930 . S
H341 C336 0.930 . S
O342 Cu322 1.959 . S
O342 C329 1.251 . S
H343 C326 0.930 . S
H344 C337 0.929 1_455 S
Cu345 N346 1.999 1_655 S
Cu345 O351 1.974 . S
Cu345 N356 1.985 . S
Cu345 O365 1.959 . S
N346 Cu345 1.999 1_455 S
N346 C348 1.263 . S
N346 C350 1.389 . S
N347 C348 1.358 . S
N347 C349 1.400 . S
C348 N346 1.263 . S
C348 N347 1.358 . S
C348 H354 0.930 . S
C349 N347 1.400 . S
C349 C350 1.351 . S
C349 H366 0.930 . S
C350 N346 1.389 . S
C350 C349 1.351 . S
C350 H355 0.930 . S
O351 Cu345 1.974 . S
O351 C361 1.282 . S
C352 O353 1.261 . S
C352 O365 1.251 . S
O353 C352 1.261 . S
H354 C348 0.930 . S
H355 C350 0.930 . S
N356 Cu345 1.985 . S
N356 C358 1.335 . S
N356 C359 1.390 . S
N357 C358 1.345 . S
N357 C360 1.336 . S
C358 N356 1.335 . S
C358 N357 1.345 . S
C358 H363 0.930 . S
C359 N356 1.390 . S
C359 C360 1.346 . S
C359 H364 0.930 . S
C360 N357 1.336 . S
C360 C359 1.346 . S
C360 H367 0.929 . S
C361 O351 1.282 . S
C361 O362 1.216 . S
O362 C361 1.216 . S
H363 C358 0.930 . S
H364 C359 0.930 . S
O365 Cu345 1.959 . S
O365 C352 1.251 . S
H366 C349 0.930 . S
H367 C360 0.929 . S
Cu368 N369 1.999 . S
Cu368 O374 1.974 . S
Cu368 N379 1.985 . S
Cu368 O388 1.959 . S
N369 Cu368 1.999 . S
N369 C371 1.263 . S
N369 C373 1.389 . S
N370 C371 1.358 . S
N370 C372 1.400 . S
C371 N369 1.263 . S
C371 N370 1.358 . S
C371 H377 0.930 . S
C372 N370 1.400 . S
C372 C373 1.351 . S
C372 H389 0.930 . S
C373 N369 1.389 . S
C373 C372 1.351 . S
C373 H378 0.930 . S
O374 Cu368 1.974 . S
O374 C384 1.282 . S
C375 O376 1.261 . S
C375 O388 1.251 . S
O376 C375 1.261 . S
H377 C371 0.930 . S
H378 C373 0.930 . S
N379 Cu368 1.985 . S
N379 C381 1.335 . S
N379 C382 1.390 . S
N380 C381 1.345 . S
N380 C383 1.336 . S
C381 N379 1.335 . S
C381 N380 1.345 . S
C381 H386 0.930 . S
C382 N379 1.390 . S
C382 C383 1.346 . S
C382 H387 0.930 . S
C383 N380 1.336 . S
C383 C382 1.346 . S
C383 H390 0.929 . S
C384 O374 1.282 . S
C384 O385 1.216 . S
O385 C384 1.216 . S
H386 C381 0.930 . S
H387 C382 0.930 . S
O388 Cu368 1.959 . S
O388 C375 1.251 . S
H389 C372 0.930 . S
H390 C383 0.929 . S
Cu391 N392 1.999 . S
Cu391 O397 1.974 . S
Cu391 N402 1.985 . S
Cu391 O411 1.959 . S
N392 Cu391 1.999 . S
N392 C394 1.263 . S
N392 C396 1.389 . S
N393 C394 1.358 . S
N393 C395 1.400 . S
C394 N392 1.263 . S
C394 N393 1.358 . S
C394 H400 0.930 . S
C395 N393 1.400 . S
C395 C396 1.351 . S
C395 H412 0.930 . S
C396 N392 1.389 . S
C396 C395 1.351 . S
C396 H401 0.930 . S
O397 Cu391 1.974 . S
O397 C407 1.282 . S
C398 O399 1.261 . S
C398 O411 1.251 . S
O399 C398 1.261 . S
H400 C394 0.930 . S
H401 C396 0.930 . S
N402 Cu391 1.985 . S
N402 C404 1.335 . S
N402 C405 1.390 . S
N403 C404 1.345 . S
N403 C406 1.336 . S
C404 N402 1.335 . S
C404 N403 1.345 . S
C404 H409 0.930 . S
C405 N402 1.390 . S
C405 C406 1.346 . S
C405 H410 0.930 . S
C406 N403 1.336 . S
C406 C405 1.346 . S
C406 H413 0.929 . S
C407 O397 1.282 . S
C407 O408 1.216 . S
O408 C407 1.216 . S
H409 C404 0.930 . S
H410 C405 0.930 . S
O411 Cu391 1.959 . S
O411 C398 1.251 . S
H412 C395 0.930 . S
H413 C406 0.929 . S
Cu414 N415 1.999 . S
Cu414 O420 1.974 . S
Cu414 N425 1.985 . S
Cu414 O434 1.959 . S
N415 Cu414 1.999 . S
N415 C417 1.263 . S
N415 C419 1.389 . S
N416 C417 1.358 . S
N416 C418 1.400 . S
C417 N415 1.263 . S
C417 N416 1.358 . S
C417 H423 0.930 . S
C418 N416 1.400 . S
C418 C419 1.351 . S
C418 H435 0.930 . S
C419 N415 1.389 . S
C419 C418 1.351 . S
C419 H424 0.930 . S
O420 Cu414 1.974 . S
O420 C430 1.282 . S
C421 O422 1.261 . S
C421 O434 1.251 . S
O422 C421 1.261 . S
H423 C417 0.930 . S
H424 C419 0.930 . S
N425 Cu414 1.985 . S
N425 C427 1.335 . S
N425 C428 1.390 . S
N426 C427 1.345 . S
N426 C429 1.336 . S
C427 N425 1.335 . S
C427 N426 1.345 . S
C427 H432 0.930 . S
C428 N425 1.390 . S
C428 C429 1.346 . S
C428 H433 0.930 . S
C429 N426 1.336 . S
C429 C428 1.346 . S
C429 H436 0.929 . S
C430 O420 1.282 . S
C430 O431 1.216 . S
O431 C430 1.216 . S
H432 C427 0.930 . S
H433 C428 0.930 . S
O434 Cu414 1.959 . S
O434 C421 1.251 . S
H435 C418 0.930 . S
H436 C429 0.929 . S
Cu437 N438 1.999 . S
Cu437 O443 1.974 . S
Cu437 N448 1.985 . S
Cu437 O457 1.959 . S
N438 Cu437 1.999 . S
N438 C440 1.263 . S
N438 C442 1.389 . S
N439 C440 1.358 . S
N439 C441 1.400 . S
C440 N438 1.263 . S
C440 N439 1.358 . S
C440 H446 0.930 . S
C441 N439 1.400 . S
C441 C442 1.351 . S
C441 H458 0.930 . S
C442 N438 1.389 . S
C442 C441 1.351 . S
C442 H447 0.930 . S
O443 Cu437 1.974 . S
O443 C453 1.282 . S
C444 O445 1.261 . S
C444 O457 1.251 . S
O445 C444 1.261 . S
H446 C440 0.930 . S
H447 C442 0.930 . S
N448 Cu437 1.985 . S
N448 C450 1.335 . S
N448 C451 1.390 . S
N449 C450 1.345 . S
N449 C452 1.336 . S
C450 N448 1.335 . S
C450 N449 1.345 . S
C450 H455 0.930 . S
C451 N448 1.390 . S
C451 C452 1.346 . S
C451 H456 0.930 . S
C452 N449 1.336 . S
C452 C451 1.346 . S
C452 H459 0.929 . S
C453 O443 1.282 . S
C453 O454 1.216 . S
O454 C453 1.216 . S
H455 C450 0.930 . S
H456 C451 0.930 . S
O457 Cu437 1.959 . S
O457 C444 1.251 . S
H458 C441 0.930 . S
H459 C452 0.929 . S
Cu460 N461 1.999 . S
Cu460 O466 1.974 . S
Cu460 N471 1.985 . S
Cu460 O480 1.959 . S
N461 Cu460 1.999 . S
N461 C463 1.263 . S
N461 C465 1.389 . S
N462 C463 1.358 . S
N462 C464 1.400 . S
C463 N461 1.263 . S
C463 N462 1.358 . S
C463 H469 0.930 . S
C464 N462 1.400 . S
C464 C465 1.351 . S
C464 H481 0.930 . S
C465 N461 1.389 . S
C465 C464 1.351 . S
C465 H470 0.930 . S
O466 Cu460 1.974 . S
O466 C476 1.282 . S
C467 O468 1.261 . S
C467 O480 1.251 . S
O468 C467 1.261 . S
H469 C463 0.930 . S
H470 C465 0.930 . S
N471 Cu460 1.985 . S
N471 C473 1.335 . S
N471 C474 1.390 . S
N472 C473 1.345 . S
N472 C475 1.336 . S
C473 N471 1.335 . S
C473 N472 1.345 . S
C473 H478 0.930 . S
C474 N471 1.390 . S
C474 C475 1.346 . S
C474 H479 0.930 . S
C475 N472 1.336 . S
C475 C474 1.346 . S
C475 H482 0.929 . S
C476 O466 1.282 . S
C476 O477 1.216 . S
O477 C476 1.216 . S
H478 C473 0.930 . S
H479 C474 0.930 . S
O480 Cu460 1.959 . S
O480 C467 1.251 . S
H481 C464 0.930 . S
H482 C475 0.929 . S
Cu483 N484 1.999 . S
Cu483 O489 1.974 . S
Cu483 N494 1.985 . S
Cu483 O503 1.959 . S
N484 Cu483 1.999 . S
N484 C486 1.263 . S
N484 C488 1.389 . S
N485 C486 1.358 . S
N485 C487 1.400 . S
C486 N484 1.263 . S
C486 N485 1.358 . S
C486 H492 0.930 . S
C487 N485 1.400 . S
C487 C488 1.351 . S
C487 H504 0.930 . S
C488 N484 1.389 . S
C488 C487 1.351 . S
C488 H493 0.930 . S
O489 Cu483 1.974 . S
O489 C499 1.282 . S
C490 O491 1.261 . S
C490 O503 1.251 . S
O491 C490 1.261 . S
H492 C486 0.930 . S
H493 C488 0.930 . S
N494 Cu483 1.985 . S
N494 C496 1.335 . S
N494 C497 1.390 . S
N495 C496 1.345 . S
N495 C498 1.336 . S
C496 N494 1.335 . S
C496 N495 1.345 . S
C496 H501 0.930 . S
C497 N494 1.390 . S
C497 C498 1.346 . S
C497 H502 0.930 . S
C498 N495 1.336 . S
C498 C497 1.346 . S
C498 H505 0.929 . S
C499 O489 1.282 . S
C499 O500 1.216 . S
O500 C499 1.216 . S
H501 C496 0.930 . S
H502 C497 0.930 . S
O503 Cu483 1.959 . S
O503 C490 1.251 . S
H504 C487 0.930 . S
H505 C498 0.929 . S
Cu506 N507 1.999 . S
Cu506 O512 1.974 . S
Cu506 N517 1.985 . S
Cu506 O526 1.959 . S
N507 Cu506 1.999 . S
N507 C509 1.263 . S
N507 C511 1.389 . S
N508 C509 1.358 . S
N508 C510 1.400 . S
C509 N507 1.263 . S
C509 N508 1.358 . S
C509 H515 0.930 . S
C510 N508 1.400 . S
C510 C511 1.351 . S
C510 H527 0.930 . S
C511 N507 1.389 . S
C511 C510 1.351 . S
C511 H516 0.930 . S
O512 Cu506 1.974 . S
O512 C522 1.282 . S
C513 O514 1.261 . S
C513 O526 1.251 . S
O514 C513 1.261 . S
H515 C509 0.930 . S
H516 C511 0.930 . S
N517 Cu506 1.985 . S
N517 C519 1.335 . S
N517 C520 1.390 . S
N518 C519 1.345 . S
N518 C521 1.336 . S
C519 N517 1.335 . S
C519 N518 1.345 . S
C519 H524 0.930 . S
C520 N517 1.390 . S
C520 C521 1.346 . S
C520 H525 0.930 . S
C521 N518 1.336 . S
C521 C520 1.346 . S
C521 H528 0.929 . S
C522 O512 1.282 . S
C522 O523 1.216 . S
O523 C522 1.216 . S
H524 C519 0.930 . S
H525 C520 0.930 . S
O526 Cu506 1.959 . S
O526 C513 1.251 . S
H527 C510 0.930 . S
H528 C521 0.929 . S
Cu529 N530 1.999 . S
Cu529 O535 1.974 . S
Cu529 N540 1.985 . S
Cu529 O549 1.959 . S
N530 Cu529 1.999 . S
N530 C532 1.263 . S
N530 C534 1.389 . S
N531 C532 1.358 . S
N531 C533 1.400 . S
C532 N530 1.263 . S
C532 N531 1.358 . S
C532 H538 0.930 . S
C533 N531 1.400 . S
C533 C534 1.351 . S
C533 H550 0.930 . S
C534 N530 1.389 . S
C534 C533 1.351 . S
C534 H539 0.930 . S
O535 Cu529 1.974 . S
O535 C545 1.282 . S
C536 O537 1.261 . S
C536 O549 1.251 . S
O537 C536 1.261 . S
H538 C532 0.930 . S
H539 C534 0.930 . S
N540 Cu529 1.985 . S
N540 C542 1.335 . S
N540 C543 1.390 . S
N541 C542 1.345 . S
N541 C544 1.336 . S
C542 N540 1.335 . S
C542 N541 1.345 . S
C542 H547 0.930 . S
C543 N540 1.390 . S
C543 C544 1.346 . S
C543 H548 0.930 . S
C544 N541 1.336 . S
C544 C543 1.346 . S
C544 H551 0.929 . S
C545 O535 1.282 . S
C545 O546 1.216 . S
O546 C545 1.216 . S
H547 C542 0.930 . S
H548 C543 0.930 . S
O549 Cu529 1.959 . S
O549 C536 1.251 . S
H550 C533 0.930 . S
H551 C544 0.929 . S
Cu552 N553 1.999 . S
Cu552 O558 1.974 . S
Cu552 N563 1.985 . S
Cu552 O572 1.959 . S
N553 Cu552 1.999 . S
N553 C555 1.263 . S
N553 C557 1.389 . S
N554 C555 1.358 . S
N554 C556 1.400 . S
C555 N553 1.263 . S
C555 N554 1.358 . S
C555 H561 0.930 . S
C556 N554 1.400 . S
C556 C557 1.351 . S
C556 H573 0.930 . S
C557 N553 1.389 . S
C557 C556 1.351 . S
C557 H562 0.930 . S
O558 Cu552 1.974 . S
O558 C568 1.282 . S
C559 O560 1.261 . S
C559 O572 1.251 . S
O560 C559 1.261 . S
H561 C555 0.930 . S
H562 C557 0.930 . S
N563 Cu552 1.985 . S
N563 C565 1.335 . S
N563 C566 1.390 . S
N564 C565 1.345 . S
N564 C567 1.336 . S
C565 N563 1.335 . S
C565 N564 1.345 . S
C565 H570 0.930 . S
C566 N563 1.390 . S
C566 C567 1.346 . S
C566 H571 0.930 . S
C567 N564 1.336 . S
C567 C566 1.346 . S
C567 H574 0.929 . S
C568 O558 1.282 . S
C568 O569 1.216 . S
O569 C568 1.216 . S
H570 C565 0.930 . S
H571 C566 0.930 . S
O572 Cu552 1.959 . S
O572 C559 1.251 . S
H573 C556 0.930 . S
H574 C567 0.929 . S
Cu575 N576 1.999 . S
Cu575 O581 1.974 . S
Cu575 N586 1.985 . S
Cu575 O595 1.959 . S
N576 Cu575 1.999 . S
N576 C578 1.263 . S
N576 C580 1.389 . S
N577 C578 1.358 . S
N577 C579 1.400 . S
C578 N576 1.263 . S
C578 N577 1.358 . S
C578 H584 0.930 . S
C579 N577 1.400 . S
C579 C580 1.351 . S
C579 H596 0.930 . S
C580 N576 1.389 . S
C580 C579 1.351 . S
C580 H585 0.930 . S
O581 Cu575 1.974 . S
O581 C591 1.282 . S
C582 O583 1.261 . S
C582 O595 1.251 . S
O583 C582 1.261 . S
H584 C578 0.930 . S
H585 C580 0.930 . S
N586 Cu575 1.985 . S
N586 C588 1.335 . S
N586 C589 1.390 . S
N587 C588 1.345 . S
N587 C590 1.336 . S
C588 N586 1.335 . S
C588 N587 1.345 . S
C588 H593 0.930 . S
C589 N586 1.390 . S
C589 C590 1.346 . S
C589 H594 0.930 . S
C590 N587 1.336 . S
C590 C589 1.346 . S
C590 H597 0.929 . S
C591 O581 1.282 . S
C591 O592 1.216 . S
O592 C591 1.216 . S
H593 C588 0.930 . S
H594 C589 0.930 . S
O595 Cu575 1.959 . S
O595 C582 1.251 . S
H596 C579 0.930 . S
H597 C590 0.929 . S
Cu598 N599 1.999 1_556 S
Cu598 O604 1.974 . S
Cu598 N609 1.985 . S
Cu598 O618 1.959 1_556 S
N599 Cu598 1.999 1_554 S
N599 C601 1.263 1_554 S
N599 C603 1.389 . S
N600 C601 1.358 1_554 S
N600 C602 1.400 . S
C601 N599 1.263 1_556 S
C601 N600 1.358 1_556 S
C601 H607 0.930 . S
C602 N600 1.400 . S
C602 C603 1.351 . S
C602 H619 0.930 . S
C603 N599 1.389 . S
C603 C602 1.351 . S
C603 H608 0.930 . S
O604 Cu598 1.974 . S
O604 C614 1.282 . S
C605 O606 1.261 . S
C605 O618 1.251 . S
O606 C605 1.261 . S
H607 C601 0.930 . S
H608 C603 0.930 . S
N609 Cu598 1.985 . S
N609 C611 1.335 1_556 S
N609 C612 1.390 . S
N610 C611 1.345 1_556 S
N610 C613 1.336 . S
C611 N609 1.335 1_554 S
C611 N610 1.345 1_554 S
C611 H616 0.930 . S
C612 N609 1.390 . S
C612 C613 1.346 . S
C612 H617 0.930 . S
C613 N610 1.336 . S
C613 C612 1.346 . S
C613 H620 0.929 . S
C614 O604 1.282 . S
C614 O615 1.216 . S
O615 C614 1.216 . S
H616 C611 0.930 . S
H617 C612 0.930 . S
O618 Cu598 1.959 1_554 S
O618 C605 1.251 . S
H619 C602 0.930 . S
H620 C613 0.929 . S
Cu621 N622 1.999 1_556 S
Cu621 O627 1.974 . S
Cu621 N632 1.985 . S
Cu621 O641 1.959 1_556 S
N622 Cu621 1.999 1_554 S
N622 C624 1.263 1_554 S
N622 C626 1.389 . S
N623 C624 1.358 1_554 S
N623 C625 1.400 . S
C624 N622 1.263 1_556 S
C624 N623 1.358 1_556 S
C624 H630 0.930 . S
C625 N623 1.400 . S
C625 C626 1.351 . S
C625 H642 0.930 . S
C626 N622 1.389 . S
C626 C625 1.351 . S
C626 H631 0.930 . S
O627 Cu621 1.974 . S
O627 C637 1.282 . S
C628 O629 1.261 . S
C628 O641 1.251 . S
O629 C628 1.261 . S
H630 C624 0.930 . S
H631 C626 0.930 . S
N632 Cu621 1.985 . S
N632 C634 1.335 1_556 S
N632 C635 1.390 . S
N633 C634 1.345 1_556 S
N633 C636 1.336 . S
C634 N632 1.335 1_554 S
C634 N633 1.345 1_554 S
C634 H639 0.930 . S
C635 N632 1.390 . S
C635 C636 1.346 . S
C635 H640 0.930 . S
C636 N633 1.336 . S
C636 C635 1.346 . S
C636 H643 0.929 . S
C637 O627 1.282 . S
C637 O638 1.216 . S
O638 C637 1.216 . S
H639 C634 0.930 . S
H640 C635 0.930 . S
O641 Cu621 1.959 1_554 S
O641 C628 1.251 . S
H642 C625 0.930 . S
H643 C636 0.929 . S
Cu644 N645 1.999 . S
Cu644 O650 1.974 . S
Cu644 N655 1.985 . S
Cu644 O664 1.959 . S
N645 Cu644 1.999 . S
N645 C647 1.263 . S
N645 C649 1.389 . S
N646 C647 1.358 . S
N646 C648 1.400 . S
C647 N645 1.263 . S
C647 N646 1.358 . S
C647 H653 0.930 . S
C648 N646 1.400 . S
C648 C649 1.351 . S
C648 H665 0.930 . S
C649 N645 1.389 . S
C649 C648 1.351 . S
C649 H654 0.930 . S
O650 Cu644 1.974 . S
O650 C660 1.282 . S
C651 O652 1.261 . S
C651 O664 1.251 . S
O652 C651 1.261 . S
H653 C647 0.930 . S
H654 C649 0.930 . S
N655 Cu644 1.985 . S
N655 C657 1.335 . S
N655 C658 1.390 . S
N656 C657 1.345 . S
N656 C659 1.336 . S
C657 N655 1.335 . S
C657 N656 1.345 . S
C657 H662 0.930 . S
C658 N655 1.390 . S
C658 C659 1.346 . S
C658 H663 0.930 . S
C659 N656 1.336 . S
C659 C658 1.346 . S
C659 H666 0.929 . S
C660 O650 1.282 . S
C660 O661 1.216 . S
O661 C660 1.216 . S
H662 C657 0.930 . S
H663 C658 0.930 . S
O664 Cu644 1.959 . S
O664 C651 1.251 . S
H665 C648 0.930 . S
H666 C659 0.929 . S
Cu667 N668 1.999 . S
Cu667 O673 1.974 . S
Cu667 N678 1.985 . S
Cu667 O687 1.959 . S
N668 Cu667 1.999 . S
N668 C670 1.263 . S
N668 C672 1.389 . S
N669 C670 1.358 . S
N669 C671 1.400 . S
C670 N668 1.263 . S
C670 N669 1.358 . S
C670 H676 0.930 . S
C671 N669 1.400 . S
C671 C672 1.351 . S
C671 H688 0.930 . S
C672 N668 1.389 . S
C672 C671 1.351 . S
C672 H677 0.930 . S
O673 Cu667 1.974 . S
O673 C683 1.282 . S
C674 O675 1.261 . S
C674 O687 1.251 . S
O675 C674 1.261 . S
H676 C670 0.930 . S
H677 C672 0.930 . S
N678 Cu667 1.985 . S
N678 C680 1.335 . S
N678 C681 1.390 . S
N679 C680 1.345 . S
N679 C682 1.336 . S
C680 N678 1.335 . S
C680 N679 1.345 . S
C680 H685 0.930 . S
C681 N678 1.390 . S
C681 C682 1.346 . S
C681 H686 0.930 . S
C682 N679 1.336 . S
C682 C681 1.346 . S
C682 H689 0.929 . S
C683 O673 1.282 . S
C683 O684 1.216 . S
O684 C683 1.216 . S
H685 C680 0.930 . S
H686 C681 0.930 . S
O687 Cu667 1.959 . S
O687 C674 1.251 . S
H688 C671 0.930 . S
H689 C682 0.929 . S
Cu690 N691 1.999 1_554 S
Cu690 O696 1.974 . S
Cu690 N701 1.985 . S
Cu690 O710 1.959 1_554 S
N691 Cu690 1.999 1_556 S
N691 C693 1.263 1_556 S
N691 C695 1.389 . S
N692 C693 1.358 1_556 S
N692 C694 1.400 . S
C693 N691 1.263 1_554 S
C693 N692 1.358 1_554 S
C693 H699 0.930 . S
C694 N692 1.400 . S
C694 C695 1.351 . S
C694 H711 0.930 . S
C695 N691 1.389 . S
C695 C694 1.351 . S
C695 H700 0.930 . S
O696 Cu690 1.974 . S
O696 C706 1.282 . S
C697 O698 1.261 . S
C697 O710 1.251 . S
O698 C697 1.261 . S
H699 C693 0.930 . S
H700 C695 0.930 . S
N701 Cu690 1.985 . S
N701 C703 1.335 1_554 S
N701 C704 1.390 . S
N702 C703 1.345 1_554 S
N702 C705 1.336 . S
C703 N701 1.335 1_556 S
C703 N702 1.345 1_556 S
C703 H708 0.930 . S
C704 N701 1.390 . S
C704 C705 1.346 . S
C704 H709 0.930 . S
C705 N702 1.336 . S
C705 C704 1.346 . S
C705 H712 0.929 . S
C706 O696 1.282 . S
C706 O707 1.216 . S
O707 C706 1.216 . S
H708 C703 0.930 . S
H709 C704 0.930 . S
O710 Cu690 1.959 1_556 S
O710 C697 1.251 . S
H711 C694 0.930 . S
H712 C705 0.929 . S
Cu713 N714 1.999 1_554 S
Cu713 O719 1.974 . S
Cu713 N724 1.985 . S
Cu713 O733 1.959 1_554 S
N714 Cu713 1.999 1_556 S
N714 C716 1.263 1_556 S
N714 C718 1.389 . S
N715 C716 1.358 1_556 S
N715 C717 1.400 . S
C716 N714 1.263 1_554 S
C716 N715 1.358 1_554 S
C716 H722 0.930 . S
C717 N715 1.400 . S
C717 C718 1.351 . S
C717 H734 0.930 . S
C718 N714 1.389 . S
C718 C717 1.351 . S
C718 H723 0.930 . S
O719 Cu713 1.974 . S
O719 C729 1.282 . S
C720 O721 1.261 . S
C720 O733 1.251 . S
O721 C720 1.261 . S
H722 C716 0.930 . S
H723 C718 0.930 . S
N724 Cu713 1.985 . S
N724 C726 1.335 1_554 S
N724 C727 1.390 . S
N725 C726 1.345 1_554 S
N725 C728 1.336 . S
C726 N724 1.335 1_556 S
C726 N725 1.345 1_556 S
C726 H731 0.930 . S
C727 N724 1.390 . S
C727 C728 1.346 . S
C727 H732 0.930 . S
C728 N725 1.336 . S
C728 C727 1.346 . S
C728 H735 0.929 . S
C729 O719 1.282 . S
C729 O730 1.216 . S
O730 C729 1.216 . S
H731 C726 0.930 . S
H732 C727 0.930 . S
O733 Cu713 1.959 1_556 S
O733 C720 1.251 . S
H734 C717 0.930 . S
H735 C728 0.929 . S
C7 C76 1.751 . S
C53 C30 1.751 . S
C99 C168 1.751 . S
C145 C122 1.751 . S
C191 C260 1.751 . S
C237 C214 1.751 . S
C283 C352 1.751 . S
C306 C329 1.751 . S
C444 C375 1.751 . S
C398 C421 1.751 . S
C467 C536 1.751 . S
C513 C490 1.751 . S
C559 C628 1.751 . S
C605 C582 1.751 . S
C651 C720 1.751 . S
C674 C697 1.751 . S
N288 N12 1.777 1_655 S
N35 N495 1.777 1_565 S
N58 N150 1.776 1_466 S
N725 N81 1.776 1_554 S
N104 N196 1.777 1_655 S
N403 N127 1.777 1_565 S
N633 N173 1.776 1_556 S
N679 N219 1.777 . S
N334 N242 1.776 1_655 S
N541 N265 1.776 . S
N311 N587 1.777 . S
N449 N357 1.776 . S
N656 N380 1.777 . S
N518 N426 1.776 1_545 S
N564 N472 1.777 . S
N610 N702 1.776 1_556 S
C246 C16 1.739 . S
C39 C269 1.739 . S
C200 C62 1.739 . S
C223 C85 1.739 . S
C108 C338 1.739 . S
C131 C361 1.739 . S
C292 C154 1.739 . S
C177 C315 1.739 . S
C614 C384 1.739 . S
C637 C407 1.739 . S
C430 C568 1.739 . S
C453 C591 1.739 . S
C476 C706 1.739 . S
C499 C729 1.739 . S
C660 C522 1.739 . S
C683 C545 1.739 . S
N2 N577 1.361 . S
N554 N25 1.361 . S
N48 N623 1.362 . S
N71 N600 1.362 . S
N94 N669 1.361 . S
N117 N646 1.361 . S
N715 N140 1.362 . S
N692 N163 1.362 . S
N393 N186 1.361 . S
N370 N209 1.361 . S
N232 N439 1.362 . S
N255 N416 1.362 . S
N485 N278 1.361 . S
N301 N462 1.361 . S
N324 N531 1.362 . S
N347 N508 1.362 . S
