# Generated by pormake.
# Topology uov, (4)-cn, num edge types: 1
# Building blocks:
#     Node 0, Type 0, BuildingBlock: ICAMEG_clean_sbu_1, # of connection points: 4
#     Node 1, Type 0, BuildingBlock: ICAMEG_clean_sbu_1, # of connection points: 4
#     Node 2, Type 0, BuildingBlock: ICAMEG_clean_sbu_1, # of connection points: 4
#     Node 3, Type 0, BuildingBlock: ICAMEG_clean_sbu_1, # of connection points: 4
#     Node 4, Type 0, BuildingBlock: ICAMEG_clean_sbu_1, # of connection points: 4
#     Node 5, Type 0, BuildingBlock: ICAMEG_clean_sbu_1, # of connection points: 4
#     Node 6, Type 0, BuildingBlock: ICAMEG_clean_sbu_1, # of connection points: 4
#     Node 7, Type 0, BuildingBlock: ICAMEG_clean_sbu_1, # of connection points: 4
#     Edge 8, Type (0, 0), BuildingBlock: ZUJKAS_clean_linker_0, # of connection points: 2
#     Edge 9, Type (0, 0), BuildingBlock: ZUJKAS_clean_linker_0, # of connection points: 2
#     Edge 10, Type (0, 0), BuildingBlock: ZUJKAS_clean_linker_0, # of connection points: 2
#     Edge 11, Type (0, 0), BuildingBlock: ZUJKAS_clean_linker_0, # of connection points: 2
#     Edge 12, Type (0, 0), BuildingBlock: ZUJKAS_clean_linker_0, # of connection points: 2
#     Edge 13, Type (0, 0), BuildingBlock: ZUJKAS_clean_linker_0, # of connection points: 2
#     Edge 14, Type (0, 0), BuildingBlock: ZUJKAS_clean_linker_0, # of connection points: 2
#     Edge 15, Type (0, 0), BuildingBlock: ZUJKAS_clean_linker_0, # of connection points: 2
#     Edge 16, Type (0, 0), BuildingBlock: ZUJKAS_clean_linker_0, # of connection points: 2
#     Edge 17, Type (0, 0), BuildingBlock: ZUJKAS_clean_linker_0, # of connection points: 2
#     Edge 18, Type (0, 0), BuildingBlock: ZUJKAS_clean_linker_0, # of connection points: 2
#     Edge 19, Type (0, 0), BuildingBlock: ZUJKAS_clean_linker_0, # of connection points: 2
#     Edge 20, Type (0, 0), BuildingBlock: ZUJKAS_clean_linker_0, # of connection points: 2
#     Edge 21, Type (0, 0), BuildingBlock: ZUJKAS_clean_linker_0, # of connection points: 2
#     Edge 22, Type (0, 0), BuildingBlock: ZUJKAS_clean_linker_0, # of connection points: 2
#     Edge 23, Type (0, 0), BuildingBlock: ZUJKAS_clean_linker_0, # of connection points: 2
# Relax obj value: 0.052
# Max RMSD: 0.043
# Mean RMSD: 0.043
data_MOF--net-uov--node1-ICAMEG_clean_sbu_1--edge1-ZUJKAS_clean_linker_0
_symmetry_space_group_name_H-M    P1
_symmetry_Int_Tables_number       1
_symmetry_cell_setting            triclinic
loop_
_symmetry_equiv_pos_as_xyz
'x, y, z'
_cell_length_a     40.706304
_cell_length_b     40.695631
_cell_length_c     60.240223
_cell_angle_alpha  89.985811
_cell_angle_beta   90.005123
_cell_angle_gamma 90.015795
loop_
_atom_site_label
_atom_site_type_symbol
_atom_site_fract_x
_atom_site_fract_y
_atom_site_fract_z
_atom_type_partial_charge
Co0 Co 0.07169 0.22511 0.61178 0.0
Co1 Co 0.10398 0.28308 0.5762 0.0
O2 O 0.09 0.26852 0.60563 0.0
C3 C 0.12674 0.23012 0.64375 0.0
O4 O 0.14536 0.23991 0.62723 0.0
C5 C 0.05658 0.33383 0.59021 0.0
O6 O 0.0369 0.30964 0.5958 0.0
O7 O 0.06154 0.26898 0.56276 0.0
O8 O 0.04638 0.22555 0.58337 0.0
H9 H 0.12 0.27275 0.49379 0.0
H10 H 0.06611 0.27762 0.64566 0.0
O11 O 0.09656 0.22349 0.64043 0.0
H12 H 0.95213 0.2464 0.62763 0.0
H13 H 0.02278 0.13785 0.66097 0.0
H14 H 0.06062 0.16465 0.58534 0.0
H15 H 0.99876 0.21845 0.60956 0.0
H16 H 0.04496 0.19282 0.65239 0.0
O17 O 0.08488 0.32761 0.58219 0.0
H18 H 0.10298 0.25412 0.53103 0.0
H19 H 0.13409 0.34478 0.55893 0.0
H20 H 0.03838 0.10946 0.59315 0.0
H21 H 0.0202 0.30602 0.66426 0.0
H22 H 0.01926 0.09577 0.6312 0.0
H23 H 0.96272 0.29051 0.65521 0.0
O24 O 0.10894 0.20327 0.59634 0.0
H25 H 0.17488 0.33871 0.6332 0.0
H26 H 0.17444 0.2729 0.56447 0.0
H27 H 0.2273 0.28882 0.58135 0.0
H28 H 0.22773 0.32201 0.61596 0.0
H29 H 0.12257 0.32201 0.61584 0.0
H30 H 0.1512 0.3645 0.52196 0.0
H31 H 0.14429 0.32832 0.48909 0.0
O32 O 0.12319 0.23891 0.56952 0.0
C33 C 0.04315 0.24421 0.56649 0.0
C34 C 0.12323 0.2887 0.508 0.0
C35 C 0.1407 0.34022 0.52381 0.0
N36 N 0.1178 0.29824 0.54714 0.0
C37 C 0.11373 0.27826 0.52913 0.0
C38 C 0.13091 0.32894 0.54468 0.0
C39 C 0.13683 0.3199 0.50537 0.0
C40 C 0.04117 0.27052 0.64181 0.0
N41 N 0.03513 0.24631 0.62664 0.0
C42 C 0.01527 0.28678 0.65232 0.0
C43 C 0.98302 0.2781 0.64721 0.0
C44 C 0.97706 0.25337 0.63172 0.0
C45 C 0.00357 0.23768 0.62151 0.0
C46 C 0.03095 0.14355 0.64431 0.0
C47 C 0.05213 0.15895 0.6019 0.0
C48 C 0.04357 0.17461 0.63936 0.0
N49 N 0.05377 0.18203 0.61833 0.0
C50 C 0.03966 0.12763 0.60624 0.0
C51 C 0.02897 0.11995 0.6276 0.0
C52 C 0.12488 0.21076 0.57881 0.0
C53 C 0.17501 0.32433 0.61809 0.0
C54 C 0.17443 0.28726 0.57956 0.0
C55 C 0.20443 0.29627 0.58902 0.0
C56 C 0.20465 0.31491 0.60842 0.0
N57 N 0.14546 0.29665 0.58912 0.0
C58 C 0.14548 0.31492 0.60814 0.0
Co59 Co 0.22604 0.93034 0.39019 0.0
Co60 Co 0.28264 0.8965 0.42634 0.0
O61 O 0.26868 0.91059 0.39677 0.0
C62 C 0.22952 0.87373 0.35937 0.0
O63 O 0.23903 0.85564 0.37624 0.0
C64 C 0.3338 0.94298 0.41174 0.0
O65 O 0.30987 0.96186 0.40465 0.0
O66 O 0.26862 0.93892 0.43978 0.0
O67 O 0.22769 0.95703 0.41799 0.0
H68 H 0.27043 0.88015 0.50861 0.0
H69 H 0.27859 0.93204 0.35613 0.0
O70 O 0.22336 0.90415 0.36212 0.0
H71 H 0.25213 0.04809 0.37142 0.0
H72 H 0.14061 0.98009 0.33995 0.0
H73 H 0.16644 0.94572 0.41649 0.0
H74 H 0.2224 0.00359 0.39063 0.0
H75 H 0.19461 0.95603 0.34896 0.0
O76 O 0.3274 0.91549 0.4209 0.0
H77 H 0.2527 0.89738 0.47122 0.0
H78 H 0.34379 0.86604 0.44416 0.0
H79 H 0.11223 0.9699 0.40825 0.0
H80 H 0.30873 0.97577 0.33638 0.0
H81 H 0.09903 0.98727 0.36974 0.0
H82 H 0.29563 0.03428 0.34406 0.0
O83 O 0.20264 0.89474 0.40645 0.0
H84 H 0.3389 0.82555 0.36968 0.0
H85 H 0.27179 0.82603 0.43784 0.0
H86 H 0.28769 0.77315 0.42097 0.0
H87 H 0.32152 0.77271 0.38665 0.0
H88 H 0.32223 0.87788 0.38701 0.0
H89 H 0.36263 0.8487 0.48129 0.0
H90 H 0.32577 0.85561 0.51382 0.0
O91 O 0.23825 0.87755 0.43251 0.0
C92 C 0.24548 0.959 0.43537 0.0
C93 C 0.28667 0.8769 0.49455 0.0
C94 C 0.33843 0.85929 0.47922 0.0
N95 N 0.29708 0.88245 0.45551 0.0
C96 C 0.27672 0.88652 0.47334 0.0
C97 C 0.32766 0.8692 0.45825 0.0
C98 C 0.31774 0.86317 0.49747 0.0
C99 C 0.27251 0.95744 0.35938 0.0
N100 N 0.24868 0.96524 0.37445 0.0
C101 C 0.28976 0.98209 0.34822 0.0
C102 C 0.28244 0.01492 0.35256 0.0
C103 C 0.25805 0.02268 0.36793 0.0
C104 C 0.24136 0.99738 0.3788 0.0
C105 C 0.1461 0.97268 0.3568 0.0
C106 C 0.16095 0.95341 0.39972 0.0
C107 C 0.1766 0.95898 0.362 0.0
N108 N 0.18374 0.94971 0.38327 0.0
C109 C 0.13018 0.967 0.39514 0.0
C110 C 0.12278 0.97671 0.37352 0.0
C111 C 0.20985 0.8776 0.42351 0.0
C112 C 0.32424 0.82543 0.38467 0.0
C113 C 0.28646 0.82604 0.42288 0.0
C114 C 0.29544 0.79602 0.41343 0.0
C115 C 0.31444 0.79579 0.39418 0.0
N116 N 0.29622 0.855 0.41347 0.0
C117 C 0.31484 0.85498 0.3946 0.0
Co118 Co 0.93092 0.7762 0.61213 0.0
Co119 Co 0.89586 0.71937 0.57672 0.0
O120 O 0.911 0.73352 0.60598 0.0
C121 C 0.87521 0.77305 0.64369 0.0
O122 O 0.85672 0.76321 0.62711 0.0
C123 C 0.94342 0.66838 0.58995 0.0
O124 O 0.96309 0.69252 0.59564 0.0
O125 O 0.93775 0.73346 0.56247 0.0
O126 O 0.95673 0.77431 0.584 0.0
H127 H 0.87642 0.73088 0.49471 0.0
H128 H 0.93355 0.72366 0.64618 0.0
O129 O 0.90555 0.77914 0.64054 0.0
H130 H 0.04913 0.75012 0.62936 0.0
H131 H 0.98226 0.86194 0.6614 0.0
H132 H 0.94563 0.83561 0.58542 0.0
H133 H 0.00412 0.7799 0.61076 0.0
H134 H 0.95786 0.80789 0.65289 0.0
O135 O 0.91503 0.67468 0.5821 0.0
H136 H 0.89504 0.74895 0.53171 0.0
H137 H 0.86481 0.65802 0.55967 0.0
H138 H 0.97014 0.88986 0.59314 0.0
H139 H 0.97781 0.69345 0.66532 0.0
H140 H 0.98865 0.90331 0.63137 0.0
H141 H 0.03608 0.70656 0.65688 0.0
O142 O 0.8949 0.79955 0.59626 0.0
H143 H 0.82705 0.66339 0.63474 0.0
H144 H 0.825 0.73008 0.56638 0.0
H145 H 0.77278 0.71424 0.58419 0.0
H146 H 0.7736 0.68063 0.6186 0.0
H147 H 0.87871 0.68 0.61648 0.0
H148 H 0.8461 0.63884 0.52293 0.0
H149 H 0.85175 0.67545 0.49015 0.0
O150 O 0.87667 0.76369 0.57069 0.0
C151 C 0.95804 0.75657 0.56657 0.0
C152 C 0.87373 0.71474 0.50888 0.0
C153 C 0.85675 0.66307 0.52472 0.0
N154 N 0.88076 0.70467 0.54785 0.0
C155 C 0.88413 0.72488 0.52988 0.0
C156 C 0.86744 0.67404 0.54547 0.0
C157 C 0.85992 0.68363 0.50633 0.0
C158 C 0.95885 0.72972 0.64259 0.0
N159 N 0.96624 0.75361 0.62745 0.0
C160 C 0.98381 0.71244 0.65341 0.0
C161 C 0.0165 0.71977 0.64864 0.0
C162 C 0.02384 0.74419 0.63319 0.0
C163 C 0.99824 0.76092 0.62267 0.0
C164 C 0.97435 0.85635 0.64467 0.0
C165 C 0.95381 0.84122 0.60206 0.0
C166 C 0.96045 0.82582 0.63976 0.0
N167 N 0.95055 0.81854 0.61865 0.0
C168 C 0.96759 0.872 0.60635 0.0
C169 C 0.97793 0.87954 0.62781 0.0
C170 C 0.87715 0.7922 0.57951 0.0
C171 C 0.82637 0.67796 0.61971 0.0
C172 C 0.82556 0.71551 0.58138 0.0
C173 C 0.79591 0.70656 0.59136 0.0
C174 C 0.79639 0.68768 0.61067 0.0
N175 N 0.85486 0.70583 0.59034 0.0
C176 C 0.85553 0.68732 0.60925 0.0
Co177 Co 0.77534 0.06901 0.3897 0.0
Co178 Co 0.7183 0.1045 0.42494 0.0
O179 O 0.73275 0.08924 0.39576 0.0
C180 C 0.77304 0.12596 0.35911 0.0
O181 O 0.76273 0.14375 0.3759 0.0
C182 C 0.66811 0.05629 0.41119 0.0
O183 O 0.69233 0.03773 0.40416 0.0
O184 O 0.73332 0.06315 0.43954 0.0
O185 O 0.77235 0.04218 0.41731 0.0
H186 H 0.7301 0.12603 0.50667 0.0
H187 H 0.72373 0.06855 0.35494 0.0
O188 O 0.77928 0.09554 0.3618 0.0
H189 H 0.74797 0.95193 0.36998 0.0
H190 H 0.86152 0.01869 0.34034 0.0
H191 H 0.83366 0.05173 0.41681 0.0
H192 H 0.77785 0.99574 0.3898 0.0
H193 H 0.80772 0.04365 0.34873 0.0
O194 O 0.67403 0.08415 0.41997 0.0
H195 H 0.74828 0.10712 0.46976 0.0
H196 H 0.65628 0.1342 0.44198 0.0
H197 H 0.88762 0.02661 0.4092 0.0
H198 H 0.69346 0.02552 0.33461 0.0
H199 H 0.90186 0.00991 0.37072 0.0
H200 H 0.70544 0.96672 0.34215 0.0
O201 O 0.79893 0.10398 0.40652 0.0
H202 H 0.66092 0.17068 0.36617 0.0
H203 H 0.72671 0.17583 0.4348 0.0
H204 H 0.70965 0.22729 0.41649 0.0
H205 H 0.67647 0.2249 0.38192 0.0
H206 H 0.67876 0.11984 0.38493 0.0
H207 H 0.63699 0.15315 0.47863 0.0
H208 H 0.67407 0.14923 0.51128 0.0
O209 O 0.76215 0.12488 0.43057 0.0
C210 C 0.75535 0.04184 0.43509 0.0
C211 C 0.71375 0.12797 0.49256 0.0
C212 C 0.66147 0.14314 0.47683 0.0
N213 N 0.70346 0.1198 0.45372 0.0
C214 C 0.72394 0.11739 0.47161 0.0
C215 C 0.67251 0.13231 0.45613 0.0
C216 C 0.6823 0.14095 0.49514 0.0
C217 C 0.72933 0.04302 0.35814 0.0
N218 N 0.75263 0.03467 0.37346 0.0
C219 C 0.712 0.01876 0.34665 0.0
C220 C 0.7187 0.98578 0.35092 0.0
C221 C 0.74254 0.97746 0.36654 0.0
C222 C 0.75933 0.00238 0.37775 0.0
C223 C 0.8556 0.02583 0.35718 0.0
C224 C 0.8396 0.04437 0.40005 0.0
C225 C 0.82521 0.04006 0.36202 0.0
N226 N 0.81751 0.049 0.38326 0.0
C227 C 0.87023 0.03024 0.39583 0.0
C228 C 0.87821 0.0209 0.37423 0.0
C229 C 0.79107 0.12305 0.42249 0.0
C230 C 0.67531 0.17204 0.38125 0.0
C231 C 0.71239 0.1746 0.41973 0.0
C232 C 0.70272 0.20381 0.40947 0.0
C233 C 0.68408 0.20245 0.39008 0.0
N234 N 0.70367 0.14488 0.41097 0.0
C235 C 0.68537 0.14334 0.39199 0.0
Co236 Co 0.92871 0.22596 0.11292 0.0
Co237 Co 0.89818 0.28425 0.07684 0.0
O238 O 0.91097 0.26956 0.10652 0.0
C239 C 0.87283 0.23138 0.14425 0.0
O240 O 0.85461 0.24113 0.12751 0.0
C241 C 0.94487 0.33469 0.09237 0.0
O242 O 0.9634 0.31049 0.09948 0.0
O243 O 0.94097 0.26988 0.06415 0.0
O244 O 0.95487 0.22612 0.08484 0.0
H245 H 0.88509 0.27375 0.9942 0.0
H246 H 0.93384 0.27814 0.14708 0.0
O247 O 0.90305 0.22459 0.14125 0.0
H248 H 0.04801 0.24605 0.1304 0.0
H249 H 0.9753 0.13818 0.16271 0.0
H250 H 0.93987 0.1654 0.08662 0.0
H251 H 0.00164 0.21872 0.11159 0.0
H252 H 0.95395 0.19338 0.15387 0.0
O253 O 0.9175 0.32865 0.08296 0.0
H254 H 0.90056 0.25512 0.03175 0.0
H255 H 0.86923 0.34613 0.05897 0.0
H256 H 0.96129 0.10999 0.09469 0.0
H257 H 0.97948 0.30588 0.16644 0.0
H258 H 0.97919 0.09608 0.13298 0.0
H259 H 0.03705 0.28994 0.15807 0.0
O260 O 0.89167 0.20453 0.09701 0.0
H261 H 0.82579 0.34052 0.13264 0.0
H262 H 0.82805 0.27467 0.06394 0.0
H263 H 0.77476 0.29108 0.07995 0.0
H264 H 0.77341 0.32429 0.11453 0.0
H265 H 0.87854 0.32335 0.11615 0.0
H266 H 0.85366 0.36585 0.0217 0.0
H267 H 0.86146 0.32949 0.989 0.0
O268 O 0.87877 0.24021 0.06991 0.0
C269 C 0.95892 0.24487 0.06808 0.0
C270 C 0.88146 0.28978 0.00833 0.0
C271 C 0.86386 0.34149 0.02376 0.0
N272 N 0.88553 0.29941 0.04754 0.0
C273 C 0.89009 0.27933 0.02963 0.0
C274 C 0.87278 0.33021 0.04481 0.0
C275 C 0.86824 0.32107 0.00542 0.0
C276 C 0.95882 0.27082 0.14354 0.0
N277 N 0.96506 0.24676 0.1283 0.0
C278 C 0.98456 0.28672 0.15447 0.0
C279 C 0.01686 0.27781 0.14974 0.0
C280 C 0.02303 0.2532 0.1342 0.0
C281 C 0.99667 0.23788 0.12355 0.0
C282 C 0.96766 0.14397 0.14595 0.0
C283 C 0.94783 0.15961 0.10328 0.0
C284 C 0.95551 0.17516 0.14085 0.0
N285 N 0.94598 0.18269 0.1197 0.0
C286 C 0.95984 0.12816 0.10777 0.0
C287 C 0.96985 0.12036 0.12926 0.0
C288 C 0.8764 0.21214 0.07924 0.0
C289 C 0.82606 0.32614 0.11753 0.0
C290 C 0.82767 0.28905 0.07902 0.0
C291 C 0.79742 0.29833 0.08799 0.0
C292 C 0.79668 0.31698 0.10738 0.0
N293 N 0.85637 0.29819 0.08906 0.0
C294 C 0.85585 0.31646 0.10807 0.0
Co295 Co 0.22565 0.06942 0.89057 0.0
Co296 Co 0.28345 0.1048 0.9253 0.0
O297 O 0.26835 0.08972 0.89621 0.0
C298 C 0.22714 0.12624 0.85978 0.0
O299 O 0.23812 0.14419 0.8763 0.0
C300 C 0.33362 0.05704 0.91083 0.0
O301 O 0.30937 0.03837 0.90397 0.0
O302 O 0.26905 0.06322 0.9399 0.0
O303 O 0.22926 0.04262 0.91814 0.0
H304 H 0.27359 0.12546 0.00726 0.0
H305 H 0.27645 0.06899 0.85529 0.0
O306 O 0.22098 0.09586 0.8627 0.0
H307 H 0.25267 0.95235 0.87063 0.0
H308 H 0.13839 0.01883 0.84216 0.0
H309 H 0.16792 0.05224 0.91828 0.0
H310 H 0.22321 0.99614 0.89073 0.0
H311 H 0.19238 0.04382 0.84998 0.0
O312 O 0.32771 0.08479 0.91976 0.0
H313 H 0.2546 0.10678 0.97048 0.0
H314 H 0.34571 0.13477 0.94177 0.0
H315 H 0.11378 0.02709 0.91124 0.0
H316 H 0.3063 0.02598 0.83467 0.0
H317 H 0.09871 0.01021 0.87295 0.0
H318 H 0.29454 0.96718 0.84236 0.0
O319 O 0.20243 0.10439 0.9076 0.0
H320 H 0.33907 0.17191 0.86623 0.0
H321 H 0.27482 0.17598 0.93555 0.0
H322 H 0.29117 0.22772 0.9173 0.0
H323 H 0.32356 0.22587 0.88238 0.0
H324 H 0.32195 0.12077 0.88495 0.0
H325 H 0.36581 0.15349 0.97828 0.0
H326 H 0.32958 0.14899 0.01133 0.0
O327 O 0.23963 0.12484 0.93153 0.0
C328 C 0.2468 0.04203 0.93567 0.0
C329 C 0.28957 0.12764 0.99297 0.0
C330 C 0.34134 0.14333 0.97671 0.0
N331 N 0.29893 0.11993 0.95398 0.0
C332 C 0.27891 0.11721 0.97209 0.0
C333 C 0.32985 0.13263 0.95609 0.0
C334 C 0.321 0.14081 0.99524 0.0
C335 C 0.27095 0.04346 0.85856 0.0
N336 N 0.24801 0.03509 0.87412 0.0
C337 C 0.28803 0.01921 0.8469 0.0
C338 C 0.28147 0.98622 0.85125 0.0
C339 C 0.258 0.97788 0.86713 0.0
C340 C 0.24144 0.00279 0.87849 0.0
C341 C 0.14468 0.02605 0.85892 0.0
C342 C 0.16161 0.0448 0.90159 0.0
C343 C 0.17518 0.0403 0.86344 0.0
N344 N 0.18334 0.04934 0.88458 0.0
C345 C 0.13089 0.03064 0.8977 0.0
C346 C 0.12244 0.02121 0.87621 0.0
C347 C 0.21057 0.12319 0.92365 0.0
C348 C 0.32502 0.17304 0.88146 0.0
C349 C 0.2888 0.17499 0.92033 0.0
C350 C 0.29807 0.20436 0.9101 0.0
C351 C 0.31627 0.20331 0.89051 0.0
N352 N 0.29749 0.1454 0.91135 0.0
C353 C 0.31536 0.14417 0.89218 0.0
Co354 Co 0.07216 0.77668 0.11314 0.0
Co355 Co 0.1053 0.71962 0.07704 0.0
O356 O 0.09144 0.73381 0.10662 0.0
C357 C 0.12879 0.77281 0.14395 0.0
O358 O 0.1468 0.76316 0.12709 0.0
C359 C 0.05841 0.66889 0.0918 0.0
O360 O 0.03973 0.693 0.09885 0.0
O361 O 0.06299 0.73404 0.06363 0.0
O362 O 0.04542 0.77525 0.08537 0.0
H363 H 0.12152 0.73143 0.99474 0.0
H364 H 0.06999 0.72422 0.14727 0.0
O365 O 0.09842 0.77916 0.1412 0.0
H366 H 0.95422 0.7519 0.13206 0.0
H367 H 0.02344 0.86279 0.1633 0.0
H368 H 0.05737 0.83639 0.08677 0.0
H369 H 0.99898 0.78112 0.11277 0.0
H370 H 0.0469 0.8085 0.15435 0.0
O371 O 0.08591 0.67505 0.08259 0.0
H372 H 0.10459 0.74945 0.03212 0.0
H373 H 0.13508 0.65809 0.05929 0.0
H374 H 0.03379 0.89089 0.09495 0.0
H375 H 0.026 0.69459 0.1671 0.0
H376 H 0.01665 0.90438 0.13346 0.0
H377 H 0.96763 0.7083 0.15946 0.0
O378 O 0.10797 0.79967 0.09683 0.0
H379 H 0.17585 0.66285 0.13372 0.0
H380 H 0.17582 0.72971 0.06544 0.0
H381 H 0.22857 0.71334 0.08226 0.0
H382 H 0.2288 0.67963 0.11664 0.0
H383 H 0.12365 0.67998 0.11643 0.0
H384 H 0.15211 0.63897 0.02217 0.0
H385 H 0.14547 0.67582 0.98959 0.0
O386 O 0.12468 0.76381 0.07079 0.0
C387 C 0.04319 0.75744 0.06801 0.0
C388 C 0.12465 0.7152 0.00882 0.0
C389 C 0.14177 0.66329 0.02421 0.0
N390 N 0.11911 0.70496 0.04788 0.0
C391 C 0.1152 0.7253 0.03003 0.0
C392 C 0.13204 0.67422 0.04517 0.0
C393 C 0.13805 0.68398 0.00594 0.0
C394 C 0.04465 0.73056 0.14404 0.0
N395 N 0.03707 0.75445 0.12894 0.0
C396 C 0.01985 0.7136 0.15524 0.0
C397 C 0.98711 0.72127 0.15092 0.0
C398 C 0.97956 0.74571 0.13553 0.0
C399 C 0.00501 0.76211 0.12461 0.0
C400 C 0.03076 0.85718 0.14645 0.0
C401 C 0.04978 0.84201 0.10354 0.0
C402 C 0.04412 0.82651 0.14129 0.0
N403 N 0.05326 0.81921 0.12002 0.0
C404 C 0.03653 0.87294 0.10808 0.0
C405 C 0.02695 0.8805 0.12969 0.0
C406 C 0.12497 0.79224 0.07976 0.0
C407 C 0.17607 0.67746 0.11871 0.0
C408 C 0.17571 0.7151 0.08042 0.0
C409 C 0.20566 0.70585 0.08985 0.0
C410 C 0.20577 0.68692 0.10913 0.0
N411 N 0.14669 0.70566 0.08989 0.0
C412 C 0.14659 0.68711 0.1088 0.0
Co413 Co 0.77648 0.93199 0.8907 0.0
Co414 Co 0.71897 0.8983 0.92625 0.0
O415 O 0.73368 0.91221 0.89679 0.0
C416 C 0.77393 0.87538 0.85977 0.0
O417 O 0.76369 0.85723 0.87642 0.0
C418 C 0.66795 0.94444 0.91093 0.0
O419 O 0.69193 0.96338 0.90398 0.0
O420 O 0.73247 0.9409 0.93971 0.0
O421 O 0.77411 0.95872 0.91843 0.0
H422 H 0.72906 0.8827 0.00872 0.0
H423 H 0.72486 0.93356 0.856 0.0
O424 O 0.77999 0.90578 0.86268 0.0
H425 H 0.75083 0.04967 0.87151 0.0
H426 H 0.86321 0.98183 0.84149 0.0
H427 H 0.83539 0.9474 0.91771 0.0
H428 H 0.78007 0.00525 0.89112 0.0
H429 H 0.80898 0.95775 0.84986 0.0
O430 O 0.67429 0.91704 0.92022 0.0
H431 H 0.74771 0.89971 0.97149 0.0
H432 H 0.65748 0.86768 0.94344 0.0
H433 H 0.88981 0.9716 0.91012 0.0
H434 H 0.69522 0.97722 0.83584 0.0
H435 H 0.90401 0.98899 0.87178 0.0
H436 H 0.70808 0.03576 0.84362 0.0
O437 O 0.79946 0.89644 0.90726 0.0
H438 H 0.66443 0.82667 0.8692 0.0
H439 H 0.72979 0.82797 0.93813 0.0
H440 H 0.71451 0.77489 0.92127 0.0
H441 H 0.68156 0.77403 0.88657 0.0
H442 H 0.68047 0.8792 0.88653 0.0
H443 H 0.63774 0.85056 0.98039 0.0
H444 H 0.67369 0.85793 0.01334 0.0
O445 O 0.76326 0.87958 0.93304 0.0
C446 C 0.7558 0.96089 0.93555 0.0
C447 C 0.71321 0.87925 0.99448 0.0
C448 C 0.66194 0.86125 0.97858 0.0
N449 N 0.70382 0.88442 0.9553 0.0
C450 C 0.72367 0.88874 0.97335 0.0
C451 C 0.67323 0.87105 0.95771 0.0
C452 C 0.68213 0.86539 0.99706 0.0
C453 C 0.73083 0.95897 0.8593 0.0
N454 N 0.75425 0.96684 0.87465 0.0
C455 C 0.71387 0.98359 0.84791 0.0
C456 C 0.72105 0.01643 0.85231 0.0
C457 C 0.74501 0.02425 0.86797 0.0
C458 C 0.76143 0.99899 0.87907 0.0
C459 C 0.85729 0.9744 0.85828 0.0
C460 C 0.84132 0.95509 0.90101 0.0
C461 C 0.82665 0.96069 0.8631 0.0
N462 N 0.81895 0.9514 0.88428 0.0
C463 C 0.8722 0.9687 0.8968 0.0
C464 C 0.88016 0.97842 0.87528 0.0
C465 C 0.79186 0.87952 0.92435 0.0
C466 C 0.67871 0.82672 0.88436 0.0
C467 C 0.71551 0.82779 0.923 0.0
C468 C 0.70688 0.79766 0.91356 0.0
C469 C 0.68837 0.7972 0.89409 0.0
N470 N 0.70588 0.85664 0.91337 0.0
C471 C 0.68774 0.85639 0.89429 0.0
H472 H 0.00061 0.64554 0.60826 0.0
H473 H 0.01984 0.58855 0.60989 0.0
H474 H 0.93072 0.5562 0.57798 0.0
H475 H 0.91131 0.61298 0.57615 0.0
H476 H 0.98883 0.53127 0.62957 0.0
H477 H 0.00631 0.52008 0.53838 0.0
H478 H 0.00215 0.55927 0.55214 0.0
H479 H 0.96652 0.53439 0.54697 0.0
C480 C 0.98507 0.62631 0.6016 0.0
C481 C 0.95455 0.63385 0.5919 0.0
C482 C 0.99606 0.59377 0.60261 0.0
C483 C 0.97687 0.56828 0.5938 0.0
C484 C 0.94609 0.57561 0.58458 0.0
H485 H 0.99898 0.35664 0.60802 0.0
H486 H 0.98013 0.4137 0.61001 0.0
C487 C 0.93501 0.60808 0.58363 0.0
C488 C 0.98924 0.53405 0.59389 0.0
H489 H 0.01284 0.47158 0.55961 0.0
C490 C 0.99413 0.51817 0.61431 0.0
C491 C 0.99646 0.51724 0.57394 0.0
C492 C 0.9929 0.53361 0.55158 0.0
C493 C 0.00561 0.48563 0.61528 0.0
C494 C 0.01207 0.46857 0.59529 0.0
C495 C 0.00762 0.48466 0.5749 0.0
C496 C 0.02395 0.43415 0.59507 0.0
C497 C 0.01119 0.4699 0.63764 0.0
C498 C 0.05467 0.42672 0.58581 0.0
C499 C 0.06548 0.39419 0.58458 0.0
C500 C 0.04561 0.36838 0.59242 0.0
C501 C 0.0149 0.37592 0.60185 0.0
C502 C 0.00416 0.40853 0.60312 0.0
H503 H 0.01235 0.48845 0.65114 0.0
H504 H 0.9906 0.45287 0.6413 0.0
H505 H 0.03433 0.45544 0.63769 0.0
H506 H 0.07025 0.44613 0.57943 0.0
H507 H 0.08924 0.38928 0.5772 0.0
H508 H 0.64338 0.01184 0.38161 0.0
H509 H 0.5863 0.99352 0.37804 0.0
H510 H 0.5591 0.05495 0.43347 0.0
H511 H 0.61559 0.07465 0.43626 0.0
H512 H 0.54855 0.96064 0.4037 0.0
H513 H 0.48936 0.08124 0.3916 0.0
H514 H 0.53336 0.0763 0.39093 0.0
H515 H 0.51213 0.08096 0.41703 0.0
C516 C 0.6251 0.02161 0.39289 0.0
C517 C 0.63382 0.04487 0.40909 0.0
C518 C 0.59249 0.01114 0.39085 0.0
C519 C 0.5681 0.02339 0.40515 0.0
C520 C 0.57707 0.04603 0.42169 0.0
H521 H 0.3862 0.92446 0.43691 0.0
H522 H 0.44289 0.94356 0.43391 0.0
C523 C 0.60947 0.05706 0.42341 0.0
C524 C 0.53362 0.01145 0.40345 0.0
H525 H 0.45379 0.03716 0.40303 0.0
C526 C 0.52785 0.97742 0.40327 0.0
C527 C 0.50648 0.03319 0.40235 0.0
C528 C 0.51068 0.06992 0.40022 0.0
C529 C 0.49584 0.96457 0.40278 0.0
C530 C 0.4687 0.98634 0.40349 0.0
C531 C 0.47448 0.02036 0.40289 0.0
C532 C 0.43419 0.97449 0.40521 0.0
C533 C 0.49165 0.92779 0.40113 0.0
C534 C 0.40991 0.98654 0.39073 0.0
C535 C 0.37722 0.97644 0.39289 0.0
C536 C 0.36827 0.95374 0.40939 0.0
C537 C 0.3925 0.94163 0.42383 0.0
C538 C 0.42501 0.95232 0.42199 0.0
H539 H 0.51302 0.91623 0.39273 0.0
H540 H 0.4901 0.91723 0.41809 0.0
H541 H 0.46904 0.92114 0.39186 0.0
H542 H 0.41626 0.00379 0.37772 0.0
H543 H 0.35902 0.98612 0.38151 0.0
H544 H 0.98856 0.35939 0.1225 0.0
H545 H 0.00671 0.41651 0.12636 0.0
H546 H 0.94612 0.44394 0.07055 0.0
H547 H 0.92662 0.38743 0.06744 0.0
H548 H 0.04 0.45426 0.10092 0.0
H549 H 0.91946 0.51375 0.11225 0.0
H550 H 0.92426 0.46973 0.11296 0.0
H551 H 0.91994 0.49097 0.08683 0.0
C552 C 0.97891 0.37774 0.11121 0.0
C553 C 0.95598 0.36906 0.0948 0.0
C554 C 0.98928 0.41037 0.11342 0.0
C555 C 0.97724 0.43483 0.09908 0.0
C556 C 0.95487 0.42592 0.08237 0.0
H557 H 0.07683 0.61608 0.06698 0.0
H558 H 0.05752 0.5595 0.07026 0.0
C559 C 0.94395 0.3935 0.08047 0.0
C560 C 0.98923 0.4693 0.10085 0.0
H561 H 0.96371 0.54921 0.10085 0.0
C562 C 0.02327 0.475 0.1012 0.0
C563 C 0.96755 0.4965 0.10175 0.0
C564 C 0.93081 0.49239 0.10369 0.0
C565 C 0.03618 0.50699 0.10162 0.0
C566 C 0.01449 0.53419 0.10068 0.0
C567 C 0.98045 0.52849 0.10115 0.0
C568 C 0.02644 0.56866 0.0988 0.0
C569 C 0.07294 0.51112 0.10342 0.0
C570 C 0.01437 0.59316 0.11308 0.0
C571 C 0.02461 0.62581 0.11076 0.0
C572 C 0.04745 0.63448 0.09429 0.0
C573 C 0.05955 0.61001 0.08003 0.0
C574 C 0.04875 0.57756 0.08203 0.0
H575 H 0.08435 0.48982 0.112 0.0
H576 H 0.08367 0.51245 0.08652 0.0
H577 H 0.07954 0.53384 0.1126 0.0
H578 H 0.99701 0.58704 0.12607 0.0
H579 H 0.01492 0.64418 0.12201 0.0
H580 H 0.38642 0.07548 0.93561 0.0
H581 H 0.44291 0.05598 0.93246 0.0
H582 H 0.4152 0.9948 0.877 0.0
H583 H 0.35811 0.01292 0.88094 0.0
H584 H 0.45323 0.96184 0.90234 0.0
H585 H 0.5123 0.08253 0.89045 0.0
H586 H 0.48976 0.08213 0.91596 0.0
H587 H 0.4683 0.0776 0.88993 0.0
C588 C 0.39243 0.058 0.92267 0.0
C589 C 0.36793 0.0458 0.90846 0.0
C590 C 0.42483 0.04708 0.92074 0.0
C591 C 0.43366 0.02457 0.90409 0.0
C592 C 0.40912 0.01234 0.88989 0.0
H593 H 0.64294 0.9876 0.8806 0.0
H594 H 0.58572 0.00521 0.8766 0.0
C595 C 0.37651 0.02269 0.89214 0.0
C596 C 0.46814 0.01267 0.90223 0.0
H597 H 0.54796 0.03844 0.90183 0.0
C598 C 0.47391 0.97864 0.90193 0.0
C599 C 0.49526 0.03444 0.90115 0.0
C600 C 0.49105 0.07117 0.89912 0.0
C601 C 0.50593 0.96582 0.90139 0.0
C602 C 0.53307 0.98761 0.90217 0.0
C603 C 0.52728 0.02163 0.90164 0.0
C604 C 0.56757 0.97578 0.90396 0.0
C605 C 0.51013 0.92906 0.89964 0.0
C606 C 0.57662 0.95355 0.92074 0.0
C607 C 0.60912 0.94291 0.92271 0.0
C608 C 0.63348 0.95511 0.90839 0.0
C609 C 0.62465 0.97784 0.89189 0.0
C610 C 0.59196 0.98791 0.8896 0.0
H611 H 0.4888 0.91756 0.89114 0.0
H612 H 0.53279 0.92248 0.89041 0.0
H613 H 0.51157 0.91839 0.91656 0.0
H614 H 0.55866 0.94474 0.93258 0.0
H615 H 0.61532 0.92572 0.93579 0.0
H616 H 0.27425 0.97033 0.47596 0.0
H617 H 0.25872 0.01177 0.50351 0.0
H618 H 0.18431 0.04878 0.45915 0.0
H619 H 0.19925 0.00751 0.43165 0.0
H620 H 0.25631 0.08149 0.50073 0.0
H621 H 0.13341 0.02757 0.51641 0.0
H622 H 0.16556 0.00551 0.50213 0.0
H623 H 0.14129 0.03553 0.48758 0.0
C624 C 0.25468 0.98738 0.47199 0.0
C625 C 0.23787 0.98537 0.4516 0.0
C626 C 0.24586 0.01103 0.48778 0.0
C627 C 0.22 0.03292 0.4835 0.0
C628 C 0.2039 0.03166 0.46294 0.0
H629 H 0.16063 0.21591 0.54045 0.0
H630 H 0.18715 0.17183 0.51981 0.0
C631 C 0.21264 0.0081 0.44718 0.0
C632 C 0.20943 0.05698 0.50052 0.0
H633 H 0.14251 0.08174 0.53022 0.0
C634 C 0.23155 0.08141 0.50738 0.0
C635 C 0.17731 0.05644 0.50946 0.0
C636 C 0.15309 0.02967 0.50371 0.0
C637 C 0.22191 0.1062 0.52226 0.0
C638 C 0.18917 0.10674 0.53018 0.0
C639 C 0.16752 0.08148 0.52401 0.0
C640 C 0.17618 0.13402 0.54397 0.0
C641 C 0.24684 0.13155 0.52931 0.0
C642 C 0.16093 0.12746 0.5644 0.0
C643 C 0.14537 0.15261 0.57621 0.0
C644 C 0.14458 0.18484 0.56773 0.0
C645 C 0.16079 0.19147 0.54757 0.0
C646 C 0.17624 0.16629 0.53577 0.0
H647 H 0.27231 0.12199 0.52777 0.0
H648 H 0.24469 0.15341 0.51839 0.0
H649 H 0.24273 0.13948 0.54673 0.0
H650 H 0.16043 0.10267 0.57097 0.0
H651 H 0.13312 0.14654 0.59164 0.0
H652 H 0.21413 0.84032 0.46127 0.0
H653 H 0.16952 0.81381 0.48138 0.0
H654 H 0.10096 0.84418 0.4308 0.0
H655 H 0.14538 0.87154 0.41069 0.0
H656 H 0.08003 0.86036 0.47166 0.0
H657 H 0.11834 0.72999 0.47187 0.0
H658 H 0.15019 0.75659 0.48189 0.0
H659 H 0.1365 0.76008 0.45356 0.0
C660 C 0.18969 0.841 0.45416 0.0
C661 C 0.18342 0.85821 0.43433 0.0
C662 C 0.1642 0.82553 0.46564 0.0
C663 C 0.13195 0.82656 0.45745 0.0
C664 C 0.12571 0.8429 0.43736 0.0
H665 H 0.96783 0.72838 0.52558 0.0
H666 H 0.00867 0.744 0.4976 0.0
C667 C 0.15118 0.85851 0.42587 0.0
C668 C 0.10443 0.81339 0.47096 0.0
H669 H 0.07844 0.74561 0.49949 0.0
C670 C 0.07946 0.83514 0.47747 0.0
C671 C 0.10344 0.78039 0.47836 0.0
C672 C 0.12838 0.75534 0.47086 0.0
C673 C 0.05437 0.82519 0.49194 0.0
C674 C 0.05457 0.7928 0.50046 0.0
C675 C 0.07862 0.77058 0.49317 0.0
C676 C 0.03079 0.78215 0.51764 0.0
C677 C 0.02797 0.84957 0.49812 0.0
C678 C 0.03029 0.79787 0.53834 0.0
C679 C 0.00709 0.78909 0.55432 0.0
C680 C 0.98396 0.76417 0.55001 0.0
C681 C 0.9852 0.74771 0.52947 0.0
C682 C 0.0085 0.75659 0.51344 0.0
H683 H 0.02584 0.86949 0.48558 0.0
H684 H 0.00372 0.83732 0.49983 0.0
H685 H 0.03427 0.86105 0.51427 0.0
H686 H 0.04773 0.8172 0.54208 0.0
H687 H 0.00711 0.80221 0.56996 0.0
H688 H 0.72895 0.03415 0.47682 0.0
H689 H 0.74474 0.99371 0.50503 0.0
H690 H 0.81398 0.9507 0.45937 0.0
H691 H 0.79879 0.99088 0.43123 0.0
H692 H 0.7442 0.92367 0.50432 0.0
H693 H 0.87011 0.97347 0.51411 0.0
H694 H 0.83773 0.99594 0.50035 0.0
H695 H 0.85972 0.96421 0.48583 0.0
C696 C 0.7474 0.01597 0.47271 0.0
C697 C 0.76274 0.016 0.45175 0.0
C698 C 0.75638 0.99291 0.48887 0.0
C699 C 0.78094 0.96964 0.4844 0.0
C700 C 0.79545 0.96889 0.4633 0.0
H701 H 0.83774 0.78728 0.54281 0.0
H702 H 0.81114 0.83168 0.52254 0.0
C703 C 0.78656 0.99185 0.44718 0.0
C704 C 0.79189 0.94624 0.50174 0.0
H705 H 0.86024 0.92027 0.52943 0.0
C706 C 0.76946 0.9231 0.51003 0.0
C707 C 0.8247 0.94596 0.50947 0.0
C708 C 0.8494 0.97143 0.50217 0.0
C709 C 0.77941 0.89867 0.5251 0.0
C710 C 0.81274 0.89714 0.53175 0.0
C711 C 0.83475 0.92124 0.52421 0.0
C712 C 0.8259 0.86986 0.54548 0.0
C713 C 0.75416 0.87469 0.53368 0.0
C714 C 0.84334 0.8765 0.56508 0.0
C715 C 0.85897 0.85113 0.57666 0.0
C716 C 0.85761 0.81859 0.56878 0.0
C717 C 0.83927 0.81195 0.54947 0.0
C718 C 0.82376 0.83733 0.5379 0.0
H719 H 0.72903 0.88529 0.53303 0.0
H720 H 0.75436 0.85236 0.52311 0.0
H721 H 0.75957 0.86724 0.55103 0.0
H722 H 0.84549 0.90146 0.57115 0.0
H723 H 0.8729 0.85722 0.59142 0.0
H724 H 0.85749 0.11277 0.42081 0.0
H725 H 0.89966 0.13939 0.44337 0.0
H726 H 0.82663 0.20441 0.47095 0.0
H727 H 0.78409 0.177 0.44919 0.0
H728 H 0.92396 0.20015 0.44823 0.0
H729 H 0.86195 0.16232 0.52616 0.0
H730 H 0.84908 0.14763 0.49932 0.0
H731 H 0.83676 0.18773 0.50879 0.0
C732 C 0.85041 0.13295 0.4315 0.0
C733 C 0.8173 0.14241 0.43344 0.0
C734 C 0.87458 0.14817 0.44439 0.0
C735 C 0.86618 0.17332 0.4593 0.0
C736 C 0.83354 0.18436 0.46009 0.0
H737 H 0.01752 0.28301 0.53336 0.0
H738 H 0.97412 0.26853 0.50692 0.0
C739 C 0.80926 0.16881 0.4475 0.0
C740 C 0.89125 0.18667 0.47479 0.0
H741 H 0.90863 0.19624 0.52985 0.0
C742 C 0.92064 0.19937 0.46609 0.0
C743 C 0.88707 0.18516 0.49812 0.0
C744 C 0.85718 0.16969 0.50869 0.0
C745 C 0.94607 0.21034 0.48004 0.0
C746 C 0.94156 0.20946 0.50334 0.0
C747 C 0.91198 0.19717 0.512 0.0
C748 C 0.96787 0.21891 0.51922 0.0
C749 C 0.97792 0.22151 0.46967 0.0
C750 C 0.9781 0.19627 0.53538 0.0
C751 C 0.00226 0.2047 0.55077 0.0
C752 C 0.01706 0.23592 0.55027 0.0
C753 C 0.00681 0.25867 0.53409 0.0
C754 C 0.98218 0.25034 0.51884 0.0
H755 H 0.98052 0.21246 0.45236 0.0
H756 H 0.97849 0.24876 0.46921 0.0
H757 H 0.99936 0.21286 0.47945 0.0
H758 H 0.96744 0.17189 0.53605 0.0
H759 H 0.00955 0.18649 0.56292 0.0
H760 H 0.80256 0.00896 0.93232 0.0
H761 H 0.8171 0.05024 0.95989 0.0
H762 H 0.74088 0.0144 0.00328 0.0
H763 H 0.72577 0.97288 0.97565 0.0
H764 H 0.74465 0.08461 1.00003 0.0
H765 H 0.8656 0.02804 0.01819 0.0
H766 H 0.8588 0.0356 0.98918 0.0
H767 H 0.83337 0.00647 0.00363 0.0
C768 C 0.78867 0.00981 0.94764 0.0
C769 C 0.76307 0.98735 0.95177 0.0
C770 C 0.79717 0.03339 0.96344 0.0
C771 C 0.78045 0.03497 0.98375 0.0
C772 C 0.75421 0.0134 0.98773 0.0
H773 H 0.86618 0.14836 0.09242 0.0
H774 H 0.83849 0.10479 0.0717 0.0
C775 C 0.74563 0.9897 0.9719 0.0
C776 C 0.79088 0.05896 1.00084 0.0
H777 H 0.85729 0.0826 0.03148 0.0
C778 C 0.76913 0.08404 0.00712 0.0
C779 C 0.82263 0.05779 0.01035 0.0
C780 C 0.84637 0.03035 0.00519 0.0
C781 C 0.77886 0.10887 0.02195 0.0
C782 C 0.8113 0.10875 0.03043 0.0
C783 C 0.8325 0.08284 0.02486 0.0
C784 C 0.82449 0.13598 0.04418 0.0
C785 C 0.75434 0.13498 0.02834 0.0
C786 C 0.82557 0.16807 0.0357 0.0
C787 C 0.84125 0.19309 0.04752 0.0
C788 C 0.85656 0.18646 0.068 0.0
C789 C 0.85466 0.15443 0.07673 0.0
C790 C 0.83886 0.12944 0.0649 0.0
H791 H 0.7287 0.12603 0.02646 0.0
H792 H 0.75802 0.14318 0.04575 0.0
H793 H 0.75745 0.15654 0.01726 0.0
H794 H 0.81537 0.17357 0.01951 0.0
H795 H 0.84229 0.21738 0.0402 0.0
H796 H 0.2181 0.17605 0.95129 0.0
H797 H 0.17582 0.20313 0.97343 0.0
H798 H 0.10212 0.13989 0.94476 0.0
H799 H 0.14403 0.1136 0.92183 0.0
H800 H 0.07863 0.20076 0.95031 0.0
H801 H 0.13945 0.16003 0.02798 0.0
H802 H 0.16517 0.18557 0.01105 0.0
H803 H 0.15236 0.14591 1.00101 0.0
C804 C 0.19284 0.16817 0.94945 0.0
C805 C 0.18454 0.14237 0.93494 0.0
C806 C 0.16872 0.18353 0.96226 0.0
C807 C 0.13595 0.1729 0.96125 0.0
C808 C 0.1273 0.14834 0.94596 0.0
H809 H 0.99181 0.18671 0.06465 0.0
H810 H 0.03406 0.17167 0.03797 0.0
C811 C 0.15133 0.13331 0.93284 0.0
C812 C 0.11094 0.18615 0.97683 0.0
H813 H 0.09334 0.19471 0.03193 0.0
C814 C 0.08182 0.19949 0.96817 0.0
C815 C 0.11492 0.184 1.00014 0.0
C816 C 0.14449 0.16781 0.01063 0.0
C817 C 0.05648 0.21054 0.98215 0.0
C818 C 0.06083 0.2091 0.00546 0.0
C819 C 0.09012 0.19609 0.01408 0.0
C820 C 0.03464 0.21885 0.02134 0.0
C821 C 0.02489 0.22243 0.97179 0.0
C822 C 0.02093 0.25053 0.02106 0.0
C823 C 0.99623 0.25912 0.03618 0.0
C824 C 0.98532 0.23637 0.05216 0.0
C825 C 0.99962 0.20491 0.05264 0.0
C826 C 0.02384 0.19624 0.03736 0.0
H827 H 0.02218 0.21362 0.95443 0.0
H828 H 0.00324 0.21409 0.98149 0.0
H829 H 0.02487 0.24969 0.97145 0.0
H830 H 0.02946 0.26872 0.00928 0.0
H831 H 0.98594 0.28364 0.03548 0.0
H832 H 0.16242 0.78734 0.04212 0.0
H833 H 0.18946 0.83157 0.02193 0.0
H834 H 0.15941 0.90079 0.07217 0.0
H835 H 0.13156 0.85676 0.09237 0.0
H836 H 0.14349 0.92139 0.0311 0.0
H837 H 0.27363 0.88231 0.03145 0.0
H838 H 0.24685 0.8505 0.02157 0.0
H839 H 0.24334 0.86458 0.0498 0.0
C840 C 0.16193 0.81184 0.04914 0.0
C841 C 0.14466 0.81841 0.0689 0.0
C842 C 0.1777 0.83711 0.03761 0.0
C843 C 0.17691 0.86944 0.04568 0.0
C844 C 0.16052 0.87597 0.06571 0.0
H845 H 0.27473 0.03339 0.97689 0.0
H846 H 0.25941 0.99276 0.00512 0.0
C847 C 0.14462 0.85072 0.07724 0.0
C848 C 0.19032 0.89675 0.03208 0.0
H849 H 0.25837 0.92201 0.00356 0.0
C850 C 0.16875 0.92175 0.02536 0.0
C851 C 0.22336 0.89746 0.02476 0.0
C852 C 0.24821 0.87245 0.03246 0.0
C853 C 0.1789 0.94658 0.01074 0.0
C854 C 0.21132 0.94609 0.00232 0.0
C855 C 0.23339 0.92204 0.00982 0.0
C856 C 0.22209 0.96951 0.98496 0.0
C857 C 0.15469 0.97296 0.00424 0.0
C858 C 0.20678 0.96926 0.96412 0.0
C859 C 0.21541 0.99229 0.94799 0.0
C860 C 0.23973 0.01606 0.9523 0.0
C861 C 0.25587 0.01552 0.97299 0.0
C862 C 0.24716 0.99235 0.98915 0.0
H863 H 0.13451 0.97521 0.01657 0.0
H864 H 0.16702 0.99718 0.00257 0.0
H865 H 0.14356 0.96659 0.98799 0.0
H866 H 0.1878 0.95142 0.96041 0.0
H867 H 0.20255 0.99172 0.93225 0.0
H868 H 0.85659 0.87322 0.91223 0.0
H869 H 0.90051 0.84607 0.93296 0.0
H870 H 0.83082 0.81657 0.98306 0.0
H871 H 0.7867 0.84286 0.96233 0.0
H872 H 0.92074 0.86257 0.97398 0.0
H873 H 0.88165 0.73237 0.97428 0.0
H874 H 0.86402 0.76243 0.95572 0.0
H875 H 0.84985 0.7593 0.98395 0.0
C876 C 0.85044 0.86043 0.92744 0.0
C877 C 0.81802 0.86029 0.93557 0.0
C878 C 0.87562 0.84495 0.93929 0.0
C879 C 0.86892 0.8289 0.95942 0.0
C880 C 0.8365 0.82807 0.96731 0.0
H881 H 0.99474 0.80367 0.07199 0.0
H882 H 0.95366 0.81919 0.04452 0.0
C883 C 0.81129 0.8434 0.95546 0.0
C884 C 0.89611 0.81572 0.97322 0.0
H885 H 0.92153 0.74786 0.00187 0.0
C886 C 0.92111 0.83737 0.97983 0.0
C887 C 0.89684 0.78274 0.98068 0.0
C888 C 0.87182 0.75778 0.9731 0.0
C889 C 0.94607 0.82732 0.99438 0.0
C890 C 0.94567 0.79491 0.00288 0.0
C891 C 0.9215 0.77283 0.99557 0.0
C892 C 0.96962 0.78398 0.01988 0.0
C893 C 0.97261 0.85155 1.00057 0.0
C894 C 0.99147 0.75813 0.01547 0.0
C895 C 0.01498 0.74894 0.03125 0.0
C896 C 0.01692 0.76536 0.05179 0.0
C897 C 0.99421 0.79057 0.05635 0.0
C898 C 0.97077 0.79966 0.0406 0.0
H899 H 0.97481 0.87151 0.98806 0.0
H900 H 0.96641 0.863 0.01675 0.0
H901 H 0.9968 0.83919 0.00222 0.0
H902 H 0.9908 0.74557 0.99962 0.0
H903 H 0.03201 0.7294 0.02717 0.0
H904 H 0.19031 0.24032 0.65754 0.0
H905 H 0.21335 0.22946 0.69445 0.0
H906 H 0.11813 0.1978 0.71743 0.0
H907 H 0.09486 0.20898 0.68094 0.0
H908 H 0.15034 0.23833 0.74755 0.0
H909 H 0.23105 0.13679 0.7184 0.0
H910 H 0.23655 0.1757 0.70479 0.0
H911 H 0.19865 0.15365 0.70144 0.0
C912 C 0.17426 0.23117 0.67049 0.0
C913 C 0.1408 0.22526 0.66621 0.0
C914 C 0.1875 0.22485 0.69154 0.0
C915 C 0.16754 0.21238 0.70859 0.0
C916 C 0.134 0.20735 0.7045 0.0
H917 H 0.20055 0.09665 0.82336 0.0
H918 H 0.18941 0.12088 0.78716 0.0
C919 C 0.12076 0.21368 0.68357 0.0
C920 C 0.18131 0.20359 0.73061 0.0
H921 H 0.23165 0.14858 0.75659 0.0
C922 C 0.1684 0.21897 0.74957 0.0
C923 C 0.20464 0.17811 0.73314 0.0
C924 C 0.21843 0.15985 0.71343 0.0
C925 C 0.17748 0.20892 0.77102 0.0
C926 C 0.20052 0.18316 0.77355 0.0
C927 C 0.21415 0.16845 0.75458 0.0
C928 C 0.20842 0.16892 0.7956 0.0
C929 C 0.16114 0.22486 0.79076 0.0
C930 C 0.22317 0.18782 0.81238 0.0
C931 C 0.22945 0.17404 0.83328 0.0
C932 C 0.22128 0.14107 0.83766 0.0
C933 C 0.2071 0.12213 0.82063 0.0
C934 C 0.20077 0.13592 0.79986 0.0
H935 H 0.13929 0.23952 0.78587 0.0
H936 H 0.15339 0.20605 0.80305 0.0
H937 H 0.17888 0.24159 0.799 0.0
H938 H 0.22984 0.21318 0.80932 0.0
H939 H 0.24065 0.1892 0.84597 0.0
H940 H 0.19275 0.7622 0.15672 0.0
H941 H 0.21675 0.77119 0.19359 0.0
H942 H 0.12241 0.80285 0.21813 0.0
H943 H 0.09823 0.79357 0.18171 0.0
H944 H 0.22051 0.82876 0.21702 0.0
H945 H 0.14999 0.7373 0.26526 0.0
H946 H 0.15162 0.73677 0.2353 0.0
H947 H 0.12344 0.76363 0.24951 0.0
C948 C 0.17707 0.77079 0.17003 0.0
C949 C 0.14355 0.77711 0.16626 0.0
C950 C 0.19082 0.77589 0.19108 0.0
C951 C 0.17124 0.78711 0.20872 0.0
C952 C 0.13782 0.79337 0.20495 0.0
H953 H 0.20848 0.90429 0.32166 0.0
H954 H 0.19928 0.88015 0.28522 0.0
C955 C 0.12409 0.78828 0.18401 0.0
C956 C 0.18579 0.79438 0.23077 0.0
H957 H 0.17409 0.78176 0.28625 0.0
C958 C 0.21077 0.81807 0.23214 0.0
C959 C 0.17355 0.77999 0.25051 0.0
C960 C 0.14842 0.75275 0.25008 0.0
C961 C 0.22235 0.82924 0.25276 0.0
C962 C 0.20813 0.81683 0.2725 0.0
C963 C 0.18467 0.79163 0.27112 0.0
C964 C 0.21533 0.83138 0.29456 0.0
C965 C 0.24937 0.85462 0.25318 0.0
C966 C 0.22668 0.81181 0.31218 0.0
C967 C 0.23172 0.82553 0.33324 0.0
C968 C 0.22522 0.85901 0.33706 0.0
C969 C 0.21391 0.87847 0.31933 0.0
C970 C 0.20887 0.86476 0.29838 0.0
H971 H 0.26481 0.85319 0.238 0.0
H972 H 0.23828 0.87951 0.25376 0.0
H973 H 0.2654 0.85155 0.26796 0.0
H974 H 0.23154 0.78591 0.30964 0.0
H975 H 0.24043 0.80986 0.34653 0.0
H976 H 0.81186 0.76164 0.65746 0.0
H977 H 0.78851 0.77225 0.69431 0.0
H978 H 0.88279 0.80693 0.71709 0.0
H979 H 0.90637 0.79598 0.68067 0.0
H980 H 0.85228 0.76571 0.7473 0.0
H981 H 0.76754 0.86398 0.71825 0.0
H982 H 0.76324 0.82482 0.70478 0.0
H983 H 0.80031 0.84817 0.70115 0.0
C984 C 0.82761 0.77146 0.67034 0.0
C985 C 0.86092 0.7782 0.66604 0.0
C986 C 0.8142 0.77763 0.69135 0.0
C987 C 0.83381 0.79081 0.70834 0.0
C988 C 0.86718 0.79681 0.70421 0.0
H989 H 0.79822 0.90574 0.82291 0.0
H990 H 0.80927 0.88174 0.78666 0.0
C991 C 0.8806 0.7906 0.68332 0.0
C992 C 0.81987 0.79916 0.7304 0.0
H993 H 0.76764 0.85227 0.75646 0.0
C994 C 0.8335 0.78437 0.74934 0.0
C995 C 0.79556 0.82372 0.73296 0.0
C996 C 0.78091 0.84136 0.71327 0.0
C997 C 0.82423 0.79415 0.7708 0.0
C998 C 0.80024 0.81901 0.77337 0.0
C999 C 0.78587 0.83308 0.75442 0.0
C1000 C 0.79212 0.83312 0.79542 0.0
C1001 C 0.84139 0.77897 0.79051 0.0
C1002 C 0.77838 0.81383 0.81239 0.0
C1003 C 0.77217 0.82749 0.83333 0.0
C1004 C 0.77939 0.86072 0.83756 0.0
C1005 C 0.79244 0.88005 0.82031 0.0
C1006 C 0.79871 0.86639 0.79951 0.0
H1007 H 0.8637 0.76507 0.78556 0.0
H1008 H 0.8486 0.79814 0.80269 0.0
H1009 H 0.82438 0.76167 0.79891 0.0
H1010 H 0.77254 0.78823 0.80946 0.0
H1011 H 0.76185 0.81201 0.84619 0.0
H1012 H 0.76102 0.18964 0.34636 0.0
H1013 H 0.77018 0.2141 0.30965 0.0
H1014 H 0.80567 0.12098 0.28535 0.0
H1015 H 0.79622 0.09632 0.32163 0.0
H1016 H 0.828 0.22 0.28669 0.0
H1017 H 0.73985 0.1463 0.23777 0.0
H1018 H 0.73883 0.14782 0.26773 0.0
H1019 H 0.76699 0.12078 0.25367 0.0
C1020 C 0.77054 0.17433 0.33314 0.0
C1021 C 0.77782 0.141 0.33694 0.0
C1022 C 0.77573 0.18834 0.31218 0.0
C1023 C 0.78802 0.16922 0.29465 0.0
C1024 C 0.79536 0.13601 0.29845 0.0
H1025 H 0.90419 0.21161 0.18196 0.0
H1026 H 0.88043 0.20143 0.21839 0.0
C1027 C 0.79017 0.122 0.3193 0.0
C1028 C 0.7951 0.18411 0.27266 0.0
H1029 H 0.78327 0.17259 0.21709 0.0
C1030 C 0.81781 0.21001 0.27149 0.0
C1031 C 0.78135 0.17152 0.25283 0.0
C1032 C 0.75513 0.14531 0.25304 0.0
C1033 C 0.82863 0.22227 0.25096 0.0
C1034 C 0.81685 0.20785 0.23112 0.0
C1035 C 0.79264 0.18336 0.2323 0.0
C1036 C 0.83116 0.21594 0.20912 0.0
C1037 C 0.85294 0.25026 0.25074 0.0
C1038 C 0.81123 0.22686 0.19157 0.0
C1039 C 0.82475 0.2325 0.17052 0.0
C1040 C 0.85838 0.227 0.16664 0.0
C1041 C 0.87822 0.21624 0.18433 0.0
C1042 C 0.86473 0.21064 0.20528 0.0
H1043 H 0.85096 0.26537 0.26604 0.0
H1044 H 0.87823 0.24013 0.25006 0.0
H1045 H 0.84924 0.2664 0.23609 0.0
H1046 H 0.78519 0.23083 0.19414 0.0
H1047 H 0.80878 0.24073 0.15725 0.0
loop_
_geom_bond_atom_site_label_1
_geom_bond_atom_site_label_2
_geom_bond_distance
_geom_bond_site_symmetry_2
_ccdc_geom_bond_type
Co0 O2 2.143 . S
Co0 O8 2.074 . S
Co0 O11 2.093 . S
Co0 O24 2.097 . S
Co0 N41 2.151 . S
Co0 N49 2.214 . S
Co1 O2 2.160 . S
Co1 O7 2.058 . S
Co1 O17 2.057 . S
Co1 O32 2.037 . S
Co1 N36 2.145 . S
Co1 N57 2.257 . S
O2 Co0 2.143 . S
O2 Co1 2.160 . S
C3 O4 1.278 . S
C3 O11 1.224 . S
O4 C3 1.278 . S
C5 O6 1.245 . S
C5 O17 1.232 . S
O6 C5 1.245 . S
O7 Co1 2.058 . S
O7 C33 1.269 . S
O8 Co0 2.074 . S
O8 C33 1.257 . S
H9 C34 0.930 . S
H10 C40 0.930 . S
O11 Co0 2.093 . S
O11 C3 1.224 . S
H12 C44 0.929 . S
H13 C46 0.930 . S
H14 C47 0.930 . S
H15 C45 0.929 . S
H16 C48 0.928 . S
O17 Co1 2.057 . S
O17 C5 1.232 . S
H18 C37 0.929 . S
H19 C38 0.929 . S
H20 C50 0.931 . S
H21 C42 0.929 . S
H22 C51 0.930 . S
H23 C43 0.931 . S
O24 Co0 2.097 . S
O24 C52 1.214 . S
H25 C53 0.929 . S
H26 C54 0.929 . S
H27 C55 0.930 . S
H28 C56 0.929 . S
H29 C58 0.930 . S
H30 C35 0.930 . S
H31 C39 0.930 . S
O32 Co1 2.037 . S
O32 C52 1.234 . S
C33 O7 1.269 . S
C33 O8 1.257 . S
C34 H9 0.930 . S
C34 C37 1.388 . S
C34 C39 1.418 . S
C35 H30 0.930 . S
C35 C38 1.404 . S
C35 C39 1.353 . S
N36 Co1 2.145 . S
N36 C37 1.397 . S
N36 C38 1.334 . S
C37 H18 0.929 . S
C37 C34 1.388 . S
C37 N36 1.397 . S
C38 H19 0.929 . S
C38 C35 1.404 . S
C38 N36 1.334 . S
C39 H31 0.930 . S
C39 C34 1.418 . S
C39 C35 1.353 . S
C40 H10 0.930 . S
C40 N41 1.330 . S
C40 C42 1.446 . S
N41 Co0 2.151 . S
N41 C40 1.330 . S
N41 C45 1.418 . S
C42 H21 0.929 . S
C42 C40 1.446 . S
C42 C43 1.332 1_455 S
C43 H23 0.931 . S
C43 C42 1.332 1_655 S
C43 C44 1.267 . S
C44 H12 0.929 . S
C44 C43 1.267 . S
C44 C45 1.251 1_655 S
C45 H15 0.929 . S
C45 N41 1.418 . S
C45 C44 1.251 1_455 S
C46 H13 0.930 . S
C46 C48 1.406 . S
C46 C51 1.261 . S
C47 H14 0.930 . S
C47 N49 1.325 . S
C47 C50 1.357 . S
C48 H16 0.928 . S
C48 C46 1.406 . S
C48 N49 1.261 . S
N49 Co0 2.214 . S
N49 C47 1.325 . S
N49 C48 1.261 . S
C50 H20 0.931 . S
C50 C47 1.357 . S
C50 C51 1.312 . S
C51 H22 0.930 . S
C51 C46 1.261 . S
C51 C50 1.312 . S
C52 O24 1.214 . S
C52 O32 1.234 . S
C53 H25 0.929 . S
C53 C56 1.391 . S
C53 C58 1.391 . S
C54 H26 0.929 . S
C54 C55 1.390 . S
C54 N57 1.391 . S
C55 H27 0.930 . S
C55 C54 1.390 . S
C55 C56 1.392 . S
C56 H28 0.929 . S
C56 C53 1.391 . S
C56 C55 1.392 . S
N57 Co1 2.257 . S
N57 C54 1.391 . S
N57 C58 1.388 . S
C58 H29 0.930 . S
C58 C53 1.391 . S
C58 N57 1.388 . S
Co59 O61 2.143 . S
Co59 O67 2.074 . S
Co59 O70 2.093 . S
Co59 O83 2.097 . S
Co59 N100 2.151 . S
Co59 N108 2.214 . S
Co60 O61 2.160 . S
Co60 O66 2.058 . S
Co60 O76 2.057 . S
Co60 O91 2.037 . S
Co60 N95 2.145 . S
Co60 N116 2.257 . S
O61 Co59 2.143 . S
O61 Co60 2.160 . S
C62 O63 1.278 . S
C62 O70 1.224 . S
O63 C62 1.278 . S
C64 O65 1.245 . S
C64 O76 1.232 . S
O65 C64 1.245 . S
O66 Co60 2.058 . S
O66 C92 1.269 . S
O67 Co59 2.074 . S
O67 C92 1.257 . S
H68 C93 0.930 . S
H69 C99 0.930 . S
O70 Co59 2.093 . S
O70 C62 1.224 . S
H71 C103 0.929 . S
H72 C105 0.930 . S
H73 C106 0.930 . S
H74 C104 0.929 . S
H75 C107 0.928 . S
O76 Co60 2.057 . S
O76 C64 1.232 . S
H77 C96 0.929 . S
H78 C97 0.929 . S
H79 C109 0.931 . S
H80 C101 0.929 . S
H81 C110 0.930 . S
H82 C102 0.931 . S
O83 Co59 2.097 . S
O83 C111 1.214 . S
H84 C112 0.929 . S
H85 C113 0.929 . S
H86 C114 0.930 . S
H87 C115 0.929 . S
H88 C117 0.930 . S
H89 C94 0.930 . S
H90 C98 0.930 . S
O91 Co60 2.037 . S
O91 C111 1.234 . S
C92 O66 1.269 . S
C92 O67 1.257 . S
C93 H68 0.930 . S
C93 C96 1.388 . S
C93 C98 1.418 . S
C94 H89 0.930 . S
C94 C97 1.404 . S
C94 C98 1.353 . S
N95 Co60 2.145 . S
N95 C96 1.397 . S
N95 C97 1.334 . S
C96 H77 0.929 . S
C96 C93 1.388 . S
C96 N95 1.397 . S
C97 H78 0.929 . S
C97 C94 1.404 . S
C97 N95 1.334 . S
C98 H90 0.930 . S
C98 C93 1.418 . S
C98 C94 1.353 . S
C99 H69 0.930 . S
C99 N100 1.330 . S
C99 C101 1.446 . S
N100 Co59 2.151 . S
N100 C99 1.330 . S
N100 C104 1.418 . S
C101 H80 0.929 . S
C101 C99 1.446 . S
C101 C102 1.332 1_565 S
C102 H82 0.931 . S
C102 C101 1.332 1_545 S
C102 C103 1.267 . S
C103 H71 0.929 . S
C103 C102 1.267 . S
C103 C104 1.251 1_545 S
C104 H74 0.929 . S
C104 N100 1.418 . S
C104 C103 1.251 1_565 S
C105 H72 0.930 . S
C105 C107 1.406 . S
C105 C110 1.261 . S
C106 H73 0.930 . S
C106 N108 1.325 . S
C106 C109 1.357 . S
C107 H75 0.928 . S
C107 C105 1.406 . S
C107 N108 1.261 . S
N108 Co59 2.214 . S
N108 C106 1.325 . S
N108 C107 1.261 . S
C109 H79 0.931 . S
C109 C106 1.357 . S
C109 C110 1.312 . S
C110 H81 0.930 . S
C110 C105 1.261 . S
C110 C109 1.312 . S
C111 O83 1.214 . S
C111 O91 1.234 . S
C112 H84 0.929 . S
C112 C115 1.391 . S
C112 C117 1.391 . S
C113 H85 0.929 . S
C113 C114 1.390 . S
C113 N116 1.391 . S
C114 H86 0.930 . S
C114 C113 1.390 . S
C114 C115 1.392 . S
C115 H87 0.929 . S
C115 C112 1.391 . S
C115 C114 1.392 . S
N116 Co60 2.257 . S
N116 C113 1.391 . S
N116 C117 1.388 . S
C117 H88 0.930 . S
C117 C112 1.391 . S
C117 N116 1.388 . S
Co118 O120 2.143 . S
Co118 O126 2.074 . S
Co118 O129 2.093 . S
Co118 O142 2.097 . S
Co118 N159 2.151 . S
Co118 N167 2.214 . S
Co119 O120 2.160 . S
Co119 O125 2.058 . S
Co119 O135 2.057 . S
Co119 O150 2.037 . S
Co119 N154 2.145 . S
Co119 N175 2.257 . S
O120 Co118 2.143 . S
O120 Co119 2.160 . S
C121 O122 1.278 . S
C121 O129 1.224 . S
O122 C121 1.278 . S
C123 O124 1.245 . S
C123 O135 1.232 . S
O124 C123 1.245 . S
O125 Co119 2.058 . S
O125 C151 1.269 . S
O126 Co118 2.074 . S
O126 C151 1.257 . S
H127 C152 0.930 . S
H128 C158 0.930 . S
O129 Co118 2.093 . S
O129 C121 1.224 . S
H130 C162 0.929 . S
H131 C164 0.930 . S
H132 C165 0.930 . S
H133 C163 0.929 . S
H134 C166 0.928 . S
O135 Co119 2.057 . S
O135 C123 1.232 . S
H136 C155 0.929 . S
H137 C156 0.929 . S
H138 C168 0.931 . S
H139 C160 0.929 . S
H140 C169 0.930 . S
H141 C161 0.931 . S
O142 Co118 2.097 . S
O142 C170 1.214 . S
H143 C171 0.929 . S
H144 C172 0.929 . S
H145 C173 0.930 . S
H146 C174 0.929 . S
H147 C176 0.930 . S
H148 C153 0.930 . S
H149 C157 0.930 . S
O150 Co119 2.037 . S
O150 C170 1.234 . S
C151 O125 1.269 . S
C151 O126 1.257 . S
C152 H127 0.930 . S
C152 C155 1.388 . S
C152 C157 1.418 . S
C153 H148 0.930 . S
C153 C156 1.404 . S
C153 C157 1.353 . S
N154 Co119 2.145 . S
N154 C155 1.397 . S
N154 C156 1.334 . S
C155 H136 0.929 . S
C155 C152 1.388 . S
C155 N154 1.397 . S
C156 H137 0.929 . S
C156 C153 1.404 . S
C156 N154 1.334 . S
C157 H149 0.930 . S
C157 C152 1.418 . S
C157 C153 1.353 . S
C158 H128 0.930 . S
C158 N159 1.330 . S
C158 C160 1.446 . S
N159 Co118 2.151 . S
N159 C158 1.330 . S
N159 C163 1.418 . S
C160 H139 0.929 . S
C160 C158 1.446 . S
C160 C161 1.332 1_655 S
C161 H141 0.931 . S
C161 C160 1.332 1_455 S
C161 C162 1.267 . S
C162 H130 0.929 . S
C162 C161 1.267 . S
C162 C163 1.251 1_455 S
C163 H133 0.929 . S
C163 N159 1.418 . S
C163 C162 1.251 1_655 S
C164 H131 0.930 . S
C164 C166 1.406 . S
C164 C169 1.261 . S
C165 H132 0.930 . S
C165 N167 1.325 . S
C165 C168 1.357 . S
C166 H134 0.928 . S
C166 C164 1.406 . S
C166 N167 1.261 . S
N167 Co118 2.214 . S
N167 C165 1.325 . S
N167 C166 1.261 . S
C168 H138 0.931 . S
C168 C165 1.357 . S
C168 C169 1.312 . S
C169 H140 0.930 . S
C169 C164 1.261 . S
C169 C168 1.312 . S
C170 O142 1.214 . S
C170 O150 1.234 . S
C171 H143 0.929 . S
C171 C174 1.391 . S
C171 C176 1.391 . S
C172 H144 0.929 . S
C172 C173 1.390 . S
C172 N175 1.391 . S
C173 H145 0.930 . S
C173 C172 1.390 . S
C173 C174 1.392 . S
C174 H146 0.929 . S
C174 C171 1.391 . S
C174 C173 1.392 . S
N175 Co119 2.257 . S
N175 C172 1.391 . S
N175 C176 1.388 . S
C176 H147 0.930 . S
C176 C171 1.391 . S
C176 N175 1.388 . S
Co177 O179 2.143 . S
Co177 O185 2.074 . S
Co177 O188 2.093 . S
Co177 O201 2.097 . S
Co177 N218 2.151 . S
Co177 N226 2.214 . S
Co178 O179 2.160 . S
Co178 O184 2.058 . S
Co178 O194 2.057 . S
Co178 O209 2.037 . S
Co178 N213 2.145 . S
Co178 N234 2.257 . S
O179 Co177 2.143 . S
O179 Co178 2.160 . S
C180 O181 1.278 . S
C180 O188 1.224 . S
O181 C180 1.278 . S
C182 O183 1.245 . S
C182 O194 1.232 . S
O183 C182 1.245 . S
O184 Co178 2.058 . S
O184 C210 1.269 . S
O185 Co177 2.074 . S
O185 C210 1.257 . S
H186 C211 0.930 . S
H187 C217 0.930 . S
O188 Co177 2.093 . S
O188 C180 1.224 . S
H189 C221 0.929 . S
H190 C223 0.930 . S
H191 C224 0.930 . S
H192 C222 0.929 . S
H193 C225 0.928 . S
O194 Co178 2.057 . S
O194 C182 1.232 . S
H195 C214 0.929 . S
H196 C215 0.929 . S
H197 C227 0.931 . S
H198 C219 0.929 . S
H199 C228 0.930 . S
H200 C220 0.931 . S
O201 Co177 2.097 . S
O201 C229 1.214 . S
H202 C230 0.929 . S
H203 C231 0.929 . S
H204 C232 0.930 . S
H205 C233 0.929 . S
H206 C235 0.930 . S
H207 C212 0.930 . S
H208 C216 0.930 . S
O209 Co178 2.037 . S
O209 C229 1.234 . S
C210 O184 1.269 . S
C210 O185 1.257 . S
C211 H186 0.930 . S
C211 C214 1.388 . S
C211 C216 1.418 . S
C212 H207 0.930 . S
C212 C215 1.404 . S
C212 C216 1.353 . S
N213 Co178 2.145 . S
N213 C214 1.397 . S
N213 C215 1.334 . S
C214 H195 0.929 . S
C214 C211 1.388 . S
C214 N213 1.397 . S
C215 H196 0.929 . S
C215 C212 1.404 . S
C215 N213 1.334 . S
C216 H208 0.930 . S
C216 C211 1.418 . S
C216 C212 1.353 . S
C217 H187 0.930 . S
C217 N218 1.330 . S
C217 C219 1.446 . S
N218 Co177 2.151 . S
N218 C217 1.330 . S
N218 C222 1.418 . S
C219 H198 0.929 . S
C219 C217 1.446 . S
C219 C220 1.332 1_545 S
C220 H200 0.931 . S
C220 C219 1.332 1_565 S
C220 C221 1.267 . S
C221 H189 0.929 . S
C221 C220 1.267 . S
C221 C222 1.251 1_565 S
C222 H192 0.929 . S
C222 N218 1.418 . S
C222 C221 1.251 1_545 S
C223 H190 0.930 . S
C223 C225 1.406 . S
C223 C228 1.261 . S
C224 H191 0.930 . S
C224 N226 1.325 . S
C224 C227 1.357 . S
C225 H193 0.928 . S
C225 C223 1.406 . S
C225 N226 1.261 . S
N226 Co177 2.214 . S
N226 C224 1.325 . S
N226 C225 1.261 . S
C227 H197 0.931 . S
C227 C224 1.357 . S
C227 C228 1.312 . S
C228 H199 0.930 . S
C228 C223 1.261 . S
C228 C227 1.312 . S
C229 O201 1.214 . S
C229 O209 1.234 . S
C230 H202 0.929 . S
C230 C233 1.391 . S
C230 C235 1.391 . S
C231 H203 0.929 . S
C231 C232 1.390 . S
C231 N234 1.391 . S
C232 H204 0.930 . S
C232 C231 1.390 . S
C232 C233 1.392 . S
C233 H205 0.929 . S
C233 C230 1.391 . S
C233 C232 1.392 . S
N234 Co178 2.257 . S
N234 C231 1.391 . S
N234 C235 1.388 . S
C235 H206 0.930 . S
C235 C230 1.391 . S
C235 N234 1.388 . S
Co236 O238 2.143 . S
Co236 O244 2.074 . S
Co236 O247 2.093 . S
Co236 O260 2.097 . S
Co236 N277 2.151 . S
Co236 N285 2.214 . S
Co237 O238 2.160 . S
Co237 O243 2.058 . S
Co237 O253 2.057 . S
Co237 O268 2.037 . S
Co237 N272 2.145 . S
Co237 N293 2.257 . S
O238 Co236 2.143 . S
O238 Co237 2.160 . S
C239 O240 1.278 . S
C239 O247 1.224 . S
O240 C239 1.278 . S
C241 O242 1.245 . S
C241 O253 1.232 . S
O242 C241 1.245 . S
O243 Co237 2.058 . S
O243 C269 1.269 . S
O244 Co236 2.074 . S
O244 C269 1.257 . S
H245 C270 0.930 . S
H246 C276 0.930 . S
O247 Co236 2.093 . S
O247 C239 1.224 . S
H248 C280 0.929 . S
H249 C282 0.930 . S
H250 C283 0.930 . S
H251 C281 0.929 . S
H252 C284 0.928 . S
O253 Co237 2.057 . S
O253 C241 1.232 . S
H254 C273 0.929 . S
H255 C274 0.929 . S
H256 C286 0.931 . S
H257 C278 0.929 . S
H258 C287 0.930 . S
H259 C279 0.931 . S
O260 Co236 2.097 . S
O260 C288 1.214 . S
H261 C289 0.929 . S
H262 C290 0.929 . S
H263 C291 0.930 . S
H264 C292 0.929 . S
H265 C294 0.930 . S
H266 C271 0.930 . S
H267 C275 0.930 . S
O268 Co237 2.037 . S
O268 C288 1.234 . S
C269 O243 1.269 . S
C269 O244 1.257 . S
C270 H245 0.930 . S
C270 C273 1.388 1_556 S
C270 C275 1.418 . S
C271 H266 0.930 . S
C271 C274 1.404 . S
C271 C275 1.353 1_554 S
N272 Co237 2.145 . S
N272 C273 1.397 . S
N272 C274 1.334 . S
C273 H254 0.929 . S
C273 C270 1.388 1_554 S
C273 N272 1.397 . S
C274 H255 0.929 . S
C274 C271 1.404 . S
C274 N272 1.334 . S
C275 H267 0.930 . S
C275 C270 1.418 . S
C275 C271 1.353 1_556 S
C276 H246 0.930 . S
C276 N277 1.330 . S
C276 C278 1.446 . S
N277 Co236 2.151 . S
N277 C276 1.330 . S
N277 C281 1.418 . S
C278 H257 0.929 . S
C278 C276 1.446 . S
C278 C279 1.332 1_655 S
C279 H259 0.931 . S
C279 C278 1.332 1_455 S
C279 C280 1.267 . S
C280 H248 0.929 . S
C280 C279 1.267 . S
C280 C281 1.251 1_455 S
C281 H251 0.929 . S
C281 N277 1.418 . S
C281 C280 1.251 1_655 S
C282 H249 0.930 . S
C282 C284 1.406 . S
C282 C287 1.261 . S
C283 H250 0.930 . S
C283 N285 1.325 . S
C283 C286 1.357 . S
C284 H252 0.928 . S
C284 C282 1.406 . S
C284 N285 1.261 . S
N285 Co236 2.214 . S
N285 C283 1.325 . S
N285 C284 1.261 . S
C286 H256 0.931 . S
C286 C283 1.357 . S
C286 C287 1.312 . S
C287 H258 0.930 . S
C287 C282 1.261 . S
C287 C286 1.312 . S
C288 O260 1.214 . S
C288 O268 1.234 . S
C289 H261 0.929 . S
C289 C292 1.391 . S
C289 C294 1.391 . S
C290 H262 0.929 . S
C290 C291 1.390 . S
C290 N293 1.391 . S
C291 H263 0.930 . S
C291 C290 1.390 . S
C291 C292 1.392 . S
C292 H264 0.929 . S
C292 C289 1.391 . S
C292 C291 1.392 . S
N293 Co237 2.257 . S
N293 C290 1.391 . S
N293 C294 1.388 . S
C294 H265 0.930 . S
C294 C289 1.391 . S
C294 N293 1.388 . S
Co295 O297 2.143 . S
Co295 O303 2.074 . S
Co295 O306 2.093 . S
Co295 O319 2.097 . S
Co295 N336 2.151 . S
Co295 N344 2.214 . S
Co296 O297 2.160 . S
Co296 O302 2.058 . S
Co296 O312 2.057 . S
Co296 O327 2.037 . S
Co296 N331 2.145 . S
Co296 N352 2.257 . S
O297 Co295 2.143 . S
O297 Co296 2.160 . S
C298 O299 1.278 . S
C298 O306 1.224 . S
O299 C298 1.278 . S
C300 O301 1.245 . S
C300 O312 1.232 . S
O301 C300 1.245 . S
O302 Co296 2.058 . S
O302 C328 1.269 . S
O303 Co295 2.074 . S
O303 C328 1.257 . S
H304 C329 0.930 . S
H305 C335 0.930 . S
O306 Co295 2.093 . S
O306 C298 1.224 . S
H307 C339 0.929 . S
H308 C341 0.930 . S
H309 C342 0.930 . S
H310 C340 0.929 . S
H311 C343 0.928 . S
O312 Co296 2.057 . S
O312 C300 1.232 . S
H313 C332 0.929 . S
H314 C333 0.929 . S
H315 C345 0.931 . S
H316 C337 0.929 . S
H317 C346 0.930 . S
H318 C338 0.931 . S
O319 Co295 2.097 . S
O319 C347 1.214 . S
H320 C348 0.929 . S
H321 C349 0.929 . S
H322 C350 0.930 . S
H323 C351 0.929 . S
H324 C353 0.930 . S
H325 C330 0.930 . S
H326 C334 0.930 . S
O327 Co296 2.037 . S
O327 C347 1.234 . S
C328 O302 1.269 . S
C328 O303 1.257 . S
C329 H304 0.930 . S
C329 C332 1.388 1_554 S
C329 C334 1.418 . S
C330 H325 0.930 . S
C330 C333 1.404 . S
C330 C334 1.353 1_556 S
N331 Co296 2.145 . S
N331 C332 1.397 . S
N331 C333 1.334 . S
C332 H313 0.929 . S
C332 C329 1.388 1_556 S
C332 N331 1.397 . S
C333 H314 0.929 . S
C333 C330 1.404 . S
C333 N331 1.334 . S
C334 H326 0.930 . S
C334 C329 1.418 . S
C334 C330 1.353 1_554 S
C335 H305 0.930 . S
C335 N336 1.330 . S
C335 C337 1.446 . S
N336 Co295 2.151 . S
N336 C335 1.330 . S
N336 C340 1.418 . S
C337 H316 0.929 . S
C337 C335 1.446 . S
C337 C338 1.332 1_545 S
C338 H318 0.931 . S
C338 C337 1.332 1_565 S
C338 C339 1.267 . S
C339 H307 0.929 . S
C339 C338 1.267 . S
C339 C340 1.251 1_565 S
C340 H310 0.929 . S
C340 N336 1.418 . S
C340 C339 1.251 1_545 S
C341 H308 0.930 . S
C341 C343 1.406 . S
C341 C346 1.261 . S
C342 H309 0.930 . S
C342 N344 1.325 . S
C342 C345 1.357 . S
C343 H311 0.928 . S
C343 C341 1.406 . S
C343 N344 1.261 . S
N344 Co295 2.214 . S
N344 C342 1.325 . S
N344 C343 1.261 . S
C345 H315 0.931 . S
C345 C342 1.357 . S
C345 C346 1.312 . S
C346 H317 0.930 . S
C346 C341 1.261 . S
C346 C345 1.312 . S
C347 O319 1.214 . S
C347 O327 1.234 . S
C348 H320 0.929 . S
C348 C351 1.391 . S
C348 C353 1.391 . S
C349 H321 0.929 . S
C349 C350 1.390 . S
C349 N352 1.391 . S
C350 H322 0.930 . S
C350 C349 1.390 . S
C350 C351 1.392 . S
C351 H323 0.929 . S
C351 C348 1.391 . S
C351 C350 1.392 . S
N352 Co296 2.257 . S
N352 C349 1.391 . S
N352 C353 1.388 . S
C353 H324 0.930 . S
C353 C348 1.391 . S
C353 N352 1.388 . S
Co354 O356 2.143 . S
Co354 O362 2.074 . S
Co354 O365 2.093 . S
Co354 O378 2.097 . S
Co354 N395 2.151 . S
Co354 N403 2.214 . S
Co355 O356 2.160 . S
Co355 O361 2.058 . S
Co355 O371 2.057 . S
Co355 O386 2.037 . S
Co355 N390 2.145 . S
Co355 N411 2.257 . S
O356 Co354 2.143 . S
O356 Co355 2.160 . S
C357 O358 1.278 . S
C357 O365 1.224 . S
O358 C357 1.278 . S
C359 O360 1.245 . S
C359 O371 1.232 . S
O360 C359 1.245 . S
O361 Co355 2.058 . S
O361 C387 1.269 . S
O362 Co354 2.074 . S
O362 C387 1.257 . S
H363 C388 0.930 . S
H364 C394 0.930 . S
O365 Co354 2.093 . S
O365 C357 1.224 . S
H366 C398 0.929 . S
H367 C400 0.930 . S
H368 C401 0.930 . S
H369 C399 0.929 . S
H370 C402 0.928 . S
O371 Co355 2.057 . S
O371 C359 1.232 . S
H372 C391 0.929 . S
H373 C392 0.929 . S
H374 C404 0.931 . S
H375 C396 0.929 . S
H376 C405 0.930 . S
H377 C397 0.931 . S
O378 Co354 2.097 . S
O378 C406 1.214 . S
H379 C407 0.929 . S
H380 C408 0.929 . S
H381 C409 0.930 . S
H382 C410 0.929 . S
H383 C412 0.930 . S
H384 C389 0.930 . S
H385 C393 0.930 . S
O386 Co355 2.037 . S
O386 C406 1.234 . S
C387 O361 1.269 . S
C387 O362 1.257 . S
C388 H363 0.930 . S
C388 C391 1.388 1_556 S
C388 C393 1.418 . S
C389 H384 0.930 . S
C389 C392 1.404 . S
C389 C393 1.353 1_554 S
N390 Co355 2.145 . S
N390 C391 1.397 . S
N390 C392 1.334 . S
C391 H372 0.929 . S
C391 C388 1.388 1_554 S
C391 N390 1.397 . S
C392 H373 0.929 . S
C392 C389 1.404 . S
C392 N390 1.334 . S
C393 H385 0.930 . S
C393 C388 1.418 . S
C393 C389 1.353 1_556 S
C394 H364 0.930 . S
C394 N395 1.330 . S
C394 C396 1.446 . S
N395 Co354 2.151 . S
N395 C394 1.330 . S
N395 C399 1.418 . S
C396 H375 0.929 . S
C396 C394 1.446 . S
C396 C397 1.332 1_455 S
C397 H377 0.931 . S
C397 C396 1.332 1_655 S
C397 C398 1.267 . S
C398 H366 0.929 . S
C398 C397 1.267 . S
C398 C399 1.251 1_655 S
C399 H369 0.929 . S
C399 N395 1.418 . S
C399 C398 1.251 1_455 S
C400 H367 0.930 . S
C400 C402 1.406 . S
C400 C405 1.261 . S
C401 H368 0.930 . S
C401 N403 1.325 . S
C401 C404 1.357 . S
C402 H370 0.928 . S
C402 C400 1.406 . S
C402 N403 1.261 . S
N403 Co354 2.214 . S
N403 C401 1.325 . S
N403 C402 1.261 . S
C404 H374 0.931 . S
C404 C401 1.357 . S
C404 C405 1.312 . S
C405 H376 0.930 . S
C405 C400 1.261 . S
C405 C404 1.312 . S
C406 O378 1.214 . S
C406 O386 1.234 . S
C407 H379 0.929 . S
C407 C410 1.391 . S
C407 C412 1.391 . S
C408 H380 0.929 . S
C408 C409 1.390 . S
C408 N411 1.391 . S
C409 H381 0.930 . S
C409 C408 1.390 . S
C409 C410 1.392 . S
C410 H382 0.929 . S
C410 C407 1.391 . S
C410 C409 1.392 . S
N411 Co355 2.257 . S
N411 C408 1.391 . S
N411 C412 1.388 . S
C412 H383 0.930 . S
C412 C407 1.391 . S
C412 N411 1.388 . S
Co413 O415 2.143 . S
Co413 O421 2.074 . S
Co413 O424 2.093 . S
Co413 O437 2.097 . S
Co413 N454 2.151 . S
Co413 N462 2.214 . S
Co414 O415 2.160 . S
Co414 O420 2.058 . S
Co414 O430 2.057 . S
Co414 O445 2.037 . S
Co414 N449 2.145 . S
Co414 N470 2.257 . S
O415 Co413 2.143 . S
O415 Co414 2.160 . S
C416 O417 1.278 . S
C416 O424 1.224 . S
O417 C416 1.278 . S
C418 O419 1.245 . S
C418 O430 1.232 . S
O419 C418 1.245 . S
O420 Co414 2.058 . S
O420 C446 1.269 . S
O421 Co413 2.074 . S
O421 C446 1.257 . S
H422 C447 0.930 . S
H423 C453 0.930 . S
O424 Co413 2.093 . S
O424 C416 1.224 . S
H425 C457 0.929 . S
H426 C459 0.930 . S
H427 C460 0.930 . S
H428 C458 0.929 . S
H429 C461 0.928 . S
O430 Co414 2.057 . S
O430 C418 1.232 . S
H431 C450 0.929 . S
H432 C451 0.929 . S
H433 C463 0.931 . S
H434 C455 0.929 . S
H435 C464 0.930 . S
H436 C456 0.931 . S
O437 Co413 2.097 . S
O437 C465 1.214 . S
H438 C466 0.929 . S
H439 C467 0.929 . S
H440 C468 0.930 . S
H441 C469 0.929 . S
H442 C471 0.930 . S
H443 C448 0.930 . S
H444 C452 0.930 . S
O445 Co414 2.037 . S
O445 C465 1.234 . S
C446 O420 1.269 . S
C446 O421 1.257 . S
C447 H422 0.930 . S
C447 C450 1.388 1_554 S
C447 C452 1.418 . S
C448 H443 0.930 . S
C448 C451 1.404 . S
C448 C452 1.353 1_556 S
N449 Co414 2.145 . S
N449 C450 1.397 . S
N449 C451 1.334 . S
C450 H431 0.929 . S
C450 C447 1.388 1_556 S
C450 N449 1.397 . S
C451 H432 0.929 . S
C451 C448 1.404 . S
C451 N449 1.334 . S
C452 H444 0.930 . S
C452 C447 1.418 . S
C452 C448 1.353 1_554 S
C453 H423 0.930 . S
C453 N454 1.330 . S
C453 C455 1.446 . S
N454 Co413 2.151 . S
N454 C453 1.330 . S
N454 C458 1.418 . S
C455 H434 0.929 . S
C455 C453 1.446 . S
C455 C456 1.332 1_565 S
C456 H436 0.931 . S
C456 C455 1.332 1_545 S
C456 C457 1.267 . S
C457 H425 0.929 . S
C457 C456 1.267 . S
C457 C458 1.251 1_545 S
C458 H428 0.929 . S
C458 N454 1.418 . S
C458 C457 1.251 1_565 S
C459 H426 0.930 . S
C459 C461 1.406 . S
C459 C464 1.261 . S
C460 H427 0.930 . S
C460 N462 1.325 . S
C460 C463 1.357 . S
C461 H429 0.928 . S
C461 C459 1.406 . S
C461 N462 1.261 . S
N462 Co413 2.214 . S
N462 C460 1.325 . S
N462 C461 1.261 . S
C463 H433 0.931 . S
C463 C460 1.357 . S
C463 C464 1.312 . S
C464 H435 0.930 . S
C464 C459 1.261 . S
C464 C463 1.312 . S
C465 O437 1.214 . S
C465 O445 1.234 . S
C466 H438 0.929 . S
C466 C469 1.391 . S
C466 C471 1.391 . S
C467 H439 0.929 . S
C467 C468 1.390 . S
C467 N470 1.391 . S
C468 H440 0.930 . S
C468 C467 1.390 . S
C468 C469 1.392 . S
C469 H441 0.929 . S
C469 C466 1.391 . S
C469 C468 1.392 . S
N470 Co414 2.257 . S
N470 C467 1.391 . S
N470 C471 1.388 . S
C471 H442 0.930 . S
C471 C466 1.391 . S
C471 N470 1.388 . S
H472 C480 0.929 . S
H473 C482 0.947 . S
H474 C484 0.930 . S
H475 C487 0.929 . S
H476 C490 0.930 . S
H477 C492 0.960 1_455 S
H478 C492 0.960 1_455 S
H479 C492 0.960 . S
C480 H472 0.929 . S
C480 C481 1.377 . S
C480 C482 1.384 . S
C481 C480 1.377 . S
C481 C487 1.390 . S
C482 H473 0.947 . S
C482 C480 1.384 . S
C482 C483 1.372 . S
C483 C482 1.372 . S
C483 C484 1.400 . S
C483 C488 1.490 . S
C484 H474 0.930 . S
C484 C483 1.400 . S
C484 C487 1.386 . S
H485 C501 0.930 . S
H486 C502 0.931 1_655 S
C487 H475 0.929 . S
C487 C481 1.390 . S
C487 C484 1.386 . S
C488 C483 1.490 . S
C488 C490 1.395 . S
C488 C491 1.403 . S
H489 C495 0.930 . S
C490 H476 0.930 . S
C490 C488 1.395 . S
C490 C493 1.403 1_655 S
C491 C488 1.403 . S
C491 C492 1.524 . S
C491 C495 1.400 1_655 S
C492 H477 0.960 1_655 S
C492 H478 0.960 1_655 S
C492 H479 0.960 . S
C492 C491 1.524 . S
C493 C490 1.403 1_455 S
C493 C494 1.392 . S
C493 C497 1.495 . S
C494 C493 1.392 . S
C494 C495 1.385 . S
C494 C496 1.478 . S
C495 H489 0.930 . S
C495 C491 1.400 1_455 S
C495 C494 1.385 . S
C496 C494 1.478 . S
C496 C498 1.381 . S
C496 C502 1.383 . S
C497 C493 1.495 . S
C497 H503 0.959 1_455 S
C497 H504 0.961 1_455 S
C497 H505 0.960 . S
C498 C496 1.381 . S
C498 C499 1.394 . S
C498 H506 0.930 . S
C499 C498 1.394 . S
C499 C500 1.383 . S
C499 H507 0.929 . S
C500 C499 1.383 . S
C500 C501 1.377 . S
C501 H485 0.930 . S
C501 C500 1.377 . S
C501 C502 1.379 . S
C502 H486 0.931 1_455 S
C502 C496 1.383 . S
C502 C501 1.379 . S
H503 C497 0.959 1_655 S
H504 C497 0.961 1_655 S
H505 C497 0.960 . S
H506 C498 0.930 . S
H507 C499 0.929 . S
H508 C516 0.929 . S
H509 C518 0.930 . S
H510 C520 0.930 . S
H511 C523 0.929 . S
H512 C526 0.930 . S
H513 C528 0.960 . S
H514 C528 0.960 . S
H515 C528 0.960 . S
C516 H508 0.929 . S
C516 C517 1.377 . S
C516 C518 1.384 . S
C517 C516 1.377 . S
C517 C523 1.390 . S
C518 H509 0.930 . S
C518 C516 1.384 . S
C518 C519 1.372 . S
C519 C518 1.372 . S
C519 C520 1.400 . S
C519 C524 1.490 . S
C520 H510 0.930 . S
C520 C519 1.400 . S
C520 C523 1.386 . S
H521 C537 0.930 . S
H522 C538 0.931 . S
C523 H511 0.929 . S
C523 C517 1.390 . S
C523 C520 1.386 . S
C524 C519 1.490 . S
C524 C526 1.395 1_545 S
C524 C527 1.403 . S
H525 C531 0.930 . S
C526 H512 0.930 . S
C526 C524 1.395 1_565 S
C526 C529 1.403 . S
C527 C524 1.403 . S
C527 C528 1.524 . S
C527 C531 1.400 . S
C528 H513 0.960 . S
C528 H514 0.960 . S
C528 H515 0.960 . S
C528 C527 1.524 . S
C529 C526 1.403 . S
C529 C530 1.392 . S
C529 C533 1.495 . S
C530 C529 1.392 . S
C530 C531 1.385 1_565 S
C530 C532 1.478 . S
C531 H525 0.930 . S
C531 C527 1.400 . S
C531 C530 1.385 1_545 S
C532 C530 1.478 . S
C532 C534 1.381 . S
C532 C538 1.383 . S
C533 C529 1.495 . S
C533 H539 0.959 . S
C533 H540 0.961 . S
C533 H541 0.960 . S
C534 C532 1.381 . S
C534 C535 1.394 . S
C534 H542 0.930 . S
C535 C534 1.394 . S
C535 C536 1.383 . S
C535 H543 0.929 . S
C536 C535 1.383 . S
C536 C537 1.377 . S
C537 H521 0.930 . S
C537 C536 1.377 . S
C537 C538 1.379 . S
C538 H522 0.931 . S
C538 C532 1.383 . S
C538 C537 1.379 . S
H539 C533 0.959 . S
H540 C533 0.961 . S
H541 C533 0.960 . S
H542 C534 0.930 . S
H543 C535 0.929 . S
H544 C552 0.929 . S
H545 C554 0.930 . S
H546 C556 0.930 . S
H547 C559 0.929 . S
H548 C562 0.930 . S
H549 C564 0.960 . S
H550 C564 0.960 . S
H551 C564 0.960 . S
C552 H544 0.929 . S
C552 C553 1.377 . S
C552 C554 1.384 . S
C553 C552 1.377 . S
C553 C559 1.390 . S
C554 H545 0.930 . S
C554 C552 1.384 . S
C554 C555 1.372 . S
C555 C554 1.372 . S
C555 C556 1.400 . S
C555 C560 1.490 . S
C556 H546 0.930 . S
C556 C555 1.400 . S
C556 C559 1.386 . S
H557 C573 0.930 . S
H558 C574 0.931 . S
C559 H547 0.929 . S
C559 C553 1.390 . S
C559 C556 1.386 . S
C560 C555 1.490 . S
C560 C562 1.395 1_655 S
C560 C563 1.403 . S
H561 C567 0.930 . S
C562 H548 0.930 . S
C562 C560 1.395 1_455 S
C562 C565 1.403 . S
C563 C560 1.403 . S
C563 C564 1.524 . S
C563 C567 1.400 . S
C564 H549 0.960 . S
C564 H550 0.960 . S
C564 H551 0.960 . S
C564 C563 1.524 . S
C565 C562 1.403 . S
C565 C566 1.392 . S
C565 C569 1.495 . S
C566 C565 1.392 . S
C566 C567 1.385 1_455 S
C566 C568 1.478 . S
C567 H561 0.930 . S
C567 C563 1.400 . S
C567 C566 1.385 1_655 S
C568 C566 1.478 . S
C568 C570 1.381 . S
C568 C574 1.383 . S
C569 C565 1.495 . S
C569 H575 0.959 . S
C569 H576 0.961 . S
C569 H577 0.960 . S
C570 C568 1.381 . S
C570 C571 1.394 . S
C570 H578 0.930 . S
C571 C570 1.394 . S
C571 C572 1.383 . S
C571 H579 0.929 . S
C572 C571 1.383 . S
C572 C573 1.377 . S
C573 H557 0.930 . S
C573 C572 1.377 . S
C573 C574 1.379 . S
C574 H558 0.931 . S
C574 C568 1.383 . S
C574 C573 1.379 . S
H575 C569 0.959 . S
H576 C569 0.961 . S
H577 C569 0.960 . S
H578 C570 0.930 . S
H579 C571 0.929 . S
H580 C588 0.929 . S
H581 C590 0.944 . S
H582 C592 0.930 . S
H583 C595 0.929 . S
H584 C598 0.930 . S
H585 C600 0.960 . S
H586 C600 0.960 . S
H587 C600 0.960 . S
C588 H580 0.929 . S
C588 C589 1.377 . S
C588 C590 1.384 . S
C589 C588 1.377 . S
C589 C595 1.390 . S
C590 H581 0.944 . S
C590 C588 1.384 . S
C590 C591 1.372 . S
C591 C590 1.372 . S
C591 C592 1.400 . S
C591 C596 1.490 . S
C592 H582 0.930 . S
C592 C591 1.400 . S
C592 C595 1.386 . S
H593 C609 0.930 . S
H594 C610 0.931 . S
C595 H583 0.929 . S
C595 C589 1.390 . S
C595 C592 1.386 . S
C596 C591 1.490 . S
C596 C598 1.395 1_545 S
C596 C599 1.403 . S
H597 C603 0.930 . S
C598 H584 0.930 . S
C598 C596 1.395 1_565 S
C598 C601 1.403 . S
C599 C596 1.403 . S
C599 C600 1.524 . S
C599 C603 1.400 . S
C600 H585 0.960 . S
C600 H586 0.960 . S
C600 H587 0.960 . S
C600 C599 1.524 . S
C601 C598 1.403 . S
C601 C602 1.392 . S
C601 C605 1.495 . S
C602 C601 1.392 . S
C602 C603 1.385 1_565 S
C602 C604 1.478 . S
C603 H597 0.930 . S
C603 C599 1.400 . S
C603 C602 1.385 1_545 S
C604 C602 1.478 . S
C604 C606 1.381 . S
C604 C610 1.383 . S
C605 C601 1.495 . S
C605 H611 0.959 . S
C605 H612 0.961 . S
C605 H613 0.960 . S
C606 C604 1.381 . S
C606 C607 1.394 . S
C606 H614 0.930 . S
C607 C606 1.394 . S
C607 C608 1.383 . S
C607 H615 0.929 . S
C608 C607 1.383 . S
C608 C609 1.377 . S
C609 H593 0.930 . S
C609 C608 1.377 . S
C609 C610 1.379 . S
C610 H594 0.931 . S
C610 C604 1.383 . S
C610 C609 1.379 . S
H611 C605 0.959 . S
H612 C605 0.961 . S
H613 C605 0.960 . S
H614 C606 0.930 . S
H615 C607 0.929 . S
H616 C624 0.929 1_565 S
H617 C626 0.930 . S
H618 C628 0.930 . S
H619 C631 0.929 . S
H620 C634 0.930 . S
H621 C636 0.960 . S
H622 C636 0.960 . S
H623 C636 0.960 . S
C624 H616 0.929 1_545 S
C624 C625 1.377 1_545 S
C624 C626 1.384 . S
C625 C624 1.377 1_565 S
C625 C631 1.390 . S
C626 H617 0.930 . S
C626 C624 1.384 . S
C626 C627 1.372 . S
C627 C626 1.372 . S
C627 C628 1.400 . S
C627 C632 1.490 . S
C628 H618 0.930 . S
C628 C627 1.400 . S
C628 C631 1.386 1_545 S
H629 C645 0.930 . S
H630 C646 0.931 . S
C631 H619 0.929 . S
C631 C625 1.390 . S
C631 C628 1.386 1_565 S
C632 C627 1.490 . S
C632 C634 1.395 . S
C632 C635 1.403 . S
H633 C639 0.930 . S
C634 H620 0.930 . S
C634 C632 1.395 . S
C634 C637 1.403 . S
C635 C632 1.403 . S
C635 C636 1.524 . S
C635 C639 1.400 . S
C636 H621 0.960 . S
C636 H622 0.960 . S
C636 H623 0.960 . S
C636 C635 1.524 . S
C637 C634 1.403 . S
C637 C638 1.392 . S
C637 C641 1.495 . S
C638 C637 1.392 . S
C638 C639 1.385 . S
C638 C640 1.478 . S
C639 H633 0.930 . S
C639 C635 1.400 . S
C639 C638 1.385 . S
C640 C638 1.478 . S
C640 C642 1.381 . S
C640 C646 1.383 . S
C641 C637 1.495 . S
C641 H647 0.959 . S
C641 H648 0.961 . S
C641 H649 0.960 . S
C642 C640 1.381 . S
C642 C643 1.394 . S
C642 H650 0.930 . S
C643 C642 1.394 . S
C643 C644 1.383 . S
C643 H651 0.929 . S
C644 C643 1.383 . S
C644 C645 1.377 . S
C645 H629 0.930 . S
C645 C644 1.377 . S
C645 C646 1.379 . S
C646 H630 0.931 . S
C646 C640 1.383 . S
C646 C645 1.379 . S
H647 C641 0.959 . S
H648 C641 0.961 . S
H649 C641 0.960 . S
H650 C642 0.930 . S
H651 C643 0.929 . S
H652 C660 0.929 . S
H653 C662 0.930 . S
H654 C664 0.930 . S
H655 C667 0.929 . S
H656 C670 0.930 . S
H657 C672 0.960 . S
H658 C672 0.960 . S
H659 C672 0.960 . S
C660 H652 0.929 . S
C660 C661 1.377 . S
C660 C662 1.384 . S
C661 C660 1.377 . S
C661 C667 1.390 . S
C662 H653 0.930 . S
C662 C660 1.384 . S
C662 C663 1.372 . S
C663 C662 1.372 . S
C663 C664 1.400 . S
C663 C668 1.490 . S
C664 H654 0.930 . S
C664 C663 1.400 . S
C664 C667 1.386 . S
H665 C681 0.930 . S
H666 C682 0.931 . S
C667 H655 0.929 . S
C667 C661 1.390 . S
C667 C664 1.386 . S
C668 C663 1.490 . S
C668 C670 1.395 . S
C668 C671 1.403 . S
H669 C675 0.930 . S
C670 H656 0.930 . S
C670 C668 1.395 . S
C670 C673 1.403 . S
C671 C668 1.403 . S
C671 C672 1.524 . S
C671 C675 1.400 . S
C672 H657 0.960 . S
C672 H658 0.960 . S
C672 H659 0.960 . S
C672 C671 1.524 . S
C673 C670 1.403 . S
C673 C674 1.392 . S
C673 C677 1.495 . S
C674 C673 1.392 . S
C674 C675 1.385 . S
C674 C676 1.478 . S
C675 H669 0.930 . S
C675 C671 1.400 . S
C675 C674 1.385 . S
C676 C674 1.478 . S
C676 C678 1.381 . S
C676 C682 1.383 . S
C677 C673 1.495 . S
C677 H683 0.959 . S
C677 H684 0.961 . S
C677 H685 0.960 . S
C678 C676 1.381 . S
C678 C679 1.394 1_455 S
C678 H686 0.930 . S
C679 C678 1.394 1_655 S
C679 C680 1.383 . S
C679 H687 0.929 . S
C680 C679 1.383 . S
C680 C681 1.377 1_655 S
C681 H665 0.930 . S
C681 C680 1.377 1_455 S
C681 C682 1.379 . S
C682 H666 0.931 . S
C682 C676 1.383 . S
C682 C681 1.379 . S
H683 C677 0.959 . S
H684 C677 0.961 . S
H685 C677 0.960 . S
H686 C678 0.930 . S
H687 C679 0.929 . S
H688 C696 0.929 . S
H689 C698 0.930 . S
H690 C700 0.930 . S
H691 C703 0.929 . S
H692 C706 0.930 . S
H693 C708 0.960 . S
H694 C708 0.960 . S
H695 C708 0.960 . S
C696 H688 0.929 . S
C696 C697 1.377 . S
C696 C698 1.384 1_545 S
C697 C696 1.377 . S
C697 C703 1.390 1_545 S
C698 H689 0.930 . S
C698 C696 1.384 1_565 S
C698 C699 1.372 . S
C699 C698 1.372 . S
C699 C700 1.400 . S
C699 C704 1.490 . S
C700 H690 0.930 . S
C700 C699 1.400 . S
C700 C703 1.386 . S
H701 C717 0.930 . S
H702 C718 0.931 . S
C703 H691 0.929 . S
C703 C697 1.390 1_565 S
C703 C700 1.386 . S
C704 C699 1.490 . S
C704 C706 1.395 . S
C704 C707 1.403 . S
H705 C711 0.930 . S
C706 H692 0.930 . S
C706 C704 1.395 . S
C706 C709 1.403 . S
C707 C704 1.403 . S
C707 C708 1.524 . S
C707 C711 1.400 . S
C708 H693 0.960 . S
C708 H694 0.960 . S
C708 H695 0.960 . S
C708 C707 1.524 . S
C709 C706 1.403 . S
C709 C710 1.392 . S
C709 C713 1.495 . S
C710 C709 1.392 . S
C710 C711 1.385 . S
C710 C712 1.478 . S
C711 H705 0.930 . S
C711 C707 1.400 . S
C711 C710 1.385 . S
C712 C710 1.478 . S
C712 C714 1.381 . S
C712 C718 1.383 . S
C713 C709 1.495 . S
C713 H719 0.959 . S
C713 H720 0.961 . S
C713 H721 0.960 . S
C714 C712 1.381 . S
C714 C715 1.394 . S
C714 H722 0.930 . S
C715 C714 1.394 . S
C715 C716 1.383 . S
C715 H723 0.929 . S
C716 C715 1.383 . S
C716 C717 1.377 . S
C717 H701 0.930 . S
C717 C716 1.377 . S
C717 C718 1.379 . S
C718 H702 0.931 . S
C718 C712 1.383 . S
C718 C717 1.379 . S
H719 C713 0.959 . S
H720 C713 0.961 . S
H721 C713 0.960 . S
H722 C714 0.930 . S
H723 C715 0.929 . S
H724 C732 0.929 . S
H725 C734 0.930 . S
H726 C736 0.930 . S
H727 C739 0.929 . S
H728 C742 0.930 . S
H729 C744 0.960 . S
H730 C744 0.960 . S
H731 C744 0.960 . S
C732 H724 0.929 . S
C732 C733 1.377 . S
C732 C734 1.384 . S
C733 C732 1.377 . S
C733 C739 1.390 . S
C734 H725 0.930 . S
C734 C732 1.384 . S
C734 C735 1.372 . S
C735 C734 1.372 . S
C735 C736 1.400 . S
C735 C740 1.490 . S
C736 H726 0.930 . S
C736 C735 1.400 . S
C736 C739 1.386 . S
H737 C753 0.930 . S
H738 C754 0.931 . S
C739 H727 0.929 . S
C739 C733 1.390 . S
C739 C736 1.386 . S
C740 C735 1.490 . S
C740 C742 1.395 . S
C740 C743 1.403 . S
H741 C747 0.930 . S
C742 H728 0.930 . S
C742 C740 1.395 . S
C742 C745 1.403 . S
C743 C740 1.403 . S
C743 C744 1.524 . S
C743 C747 1.400 . S
C744 H729 0.960 . S
C744 H730 0.960 . S
C744 H731 0.960 . S
C744 C743 1.524 . S
C745 C742 1.403 . S
C745 C746 1.392 . S
C745 C749 1.495 . S
C746 C745 1.392 . S
C746 C747 1.385 . S
C746 C748 1.478 . S
C747 H741 0.930 . S
C747 C743 1.400 . S
C747 C746 1.385 . S
C748 C746 1.478 . S
C748 C750 1.386 . S
C748 C754 1.383 . S
C749 C745 1.495 . S
C749 H755 0.959 . S
C749 H756 0.961 . S
C749 H757 0.960 . S
C750 C748 1.386 . S
C750 C751 1.390 1_655 S
C750 H758 0.929 1_655 S
C751 C750 1.390 1_455 S
C751 C752 1.383 . S
C751 H759 0.929 . S
C752 C751 1.383 . S
C752 C753 1.377 1_455 S
C753 H737 0.930 . S
C753 C752 1.377 1_655 S
C753 C754 1.379 . S
C754 H738 0.931 . S
C754 C748 1.383 . S
C754 C753 1.379 . S
H755 C749 0.959 . S
H756 C749 0.961 . S
H757 C749 0.960 . S
H758 C750 0.929 1_455 S
H759 C751 0.929 . S
H760 C768 0.929 . S
H761 C770 0.930 . S
H762 C772 0.930 . S
H763 C775 0.929 . S
H764 C778 0.930 . S
H765 C780 0.960 . S
H766 C780 0.960 . S
H767 C780 0.960 . S
C768 H760 0.929 . S
C768 C769 1.377 . S
C768 C770 1.384 1_565 S
C769 C768 1.377 . S
C769 C775 1.390 . S
C770 H761 0.930 . S
C770 C768 1.384 1_545 S
C770 C771 1.372 . S
C771 C770 1.372 . S
C771 C772 1.400 . S
C771 C776 1.490 . S
C772 H762 0.930 . S
C772 C771 1.400 . S
C772 C775 1.386 1_545 S
H773 C789 0.930 . S
H774 C790 0.931 . S
C775 H763 0.929 . S
C775 C769 1.390 . S
C775 C772 1.386 1_565 S
C776 C771 1.490 . S
C776 C778 1.395 . S
C776 C779 1.403 1_556 S
H777 C783 0.930 . S
C778 H764 0.930 . S
C778 C776 1.395 . S
C778 C781 1.403 . S
C779 C776 1.403 1_554 S
C779 C780 1.524 . S
C779 C783 1.400 . S
C780 H765 0.960 . S
C780 H766 0.960 . S
C780 H767 0.960 . S
C780 C779 1.524 . S
C781 C778 1.403 . S
C781 C782 1.392 1_556 S
C781 C785 1.495 . S
C782 C781 1.392 1_554 S
C782 C783 1.385 . S
C782 C784 1.478 . S
C783 H777 0.930 . S
C783 C779 1.400 . S
C783 C782 1.385 . S
C784 C782 1.478 . S
C784 C786 1.381 . S
C784 C790 1.383 . S
C785 C781 1.495 . S
C785 H791 0.959 . S
C785 H792 0.961 . S
C785 H793 0.960 . S
C786 C784 1.381 . S
C786 C787 1.394 . S
C786 H794 0.930 . S
C787 C786 1.394 . S
C787 C788 1.383 . S
C787 H795 0.929 . S
C788 C787 1.383 . S
C788 C789 1.377 . S
C789 H773 0.930 . S
C789 C788 1.377 . S
C789 C790 1.379 . S
C790 H774 0.931 . S
C790 C784 1.383 . S
C790 C789 1.379 . S
H791 C785 0.959 . S
H792 C785 0.961 . S
H793 C785 0.960 . S
H794 C786 0.930 . S
H795 C787 0.929 . S
H796 C804 0.929 . S
H797 C806 0.930 . S
H798 C808 0.930 . S
H799 C811 0.929 . S
H800 C814 0.930 . S
H801 C816 0.960 . S
H802 C816 0.960 . S
H803 C816 0.960 1_556 S
C804 H796 0.929 . S
C804 C805 1.377 . S
C804 C806 1.384 . S
C805 C804 1.377 . S
C805 C811 1.390 . S
C806 H797 0.930 . S
C806 C804 1.384 . S
C806 C807 1.372 . S
C807 C806 1.372 . S
C807 C808 1.400 . S
C807 C812 1.490 . S
C808 H798 0.930 . S
C808 C807 1.400 . S
C808 C811 1.386 . S
H809 C825 0.930 . S
H810 C826 0.935 . S
C811 H799 0.929 . S
C811 C805 1.390 . S
C811 C808 1.386 . S
C812 C807 1.490 . S
C812 C814 1.395 . S
C812 C815 1.403 1_556 S
H813 C819 0.930 . S
C814 H800 0.930 . S
C814 C812 1.395 . S
C814 C817 1.403 . S
C815 C812 1.403 1_554 S
C815 C816 1.524 . S
C815 C819 1.400 . S
C816 H801 0.960 . S
C816 H802 0.960 . S
C816 H803 0.960 1_554 S
C816 C815 1.524 . S
C817 C814 1.403 . S
C817 C818 1.392 1_556 S
C817 C821 1.495 . S
C818 C817 1.392 1_554 S
C818 C819 1.385 . S
C818 C820 1.478 . S
C819 H813 0.930 . S
C819 C815 1.400 . S
C819 C818 1.385 . S
C820 C818 1.478 . S
C820 C822 1.381 . S
C820 C826 1.383 . S
C821 C817 1.495 . S
C821 H827 0.959 . S
C821 H828 0.961 . S
C821 H829 0.960 1_556 S
C822 C820 1.381 . S
C822 C823 1.394 . S
C822 H830 0.930 . S
C823 C822 1.394 . S
C823 C824 1.383 1_455 S
C823 H831 0.929 . S
C824 C823 1.383 1_655 S
C824 C825 1.377 . S
C825 H809 0.930 . S
C825 C824 1.377 . S
C825 C826 1.379 1_655 S
C826 H810 0.935 . S
C826 C820 1.383 . S
C826 C825 1.379 1_455 S
H827 C821 0.959 . S
H828 C821 0.961 . S
H829 C821 0.960 1_554 S
H830 C822 0.930 . S
H831 C823 0.929 . S
H832 C840 0.929 . S
H833 C842 0.930 . S
H834 C844 0.930 . S
H835 C847 0.929 . S
H836 C850 0.930 . S
H837 C852 0.960 . S
H838 C852 0.960 . S
H839 C852 0.960 . S
C840 H832 0.929 . S
C840 C841 1.377 . S
C840 C842 1.384 . S
C841 C840 1.377 . S
C841 C847 1.390 . S
C842 H833 0.930 . S
C842 C840 1.384 . S
C842 C843 1.372 . S
C843 C842 1.372 . S
C843 C844 1.400 . S
C843 C848 1.490 . S
C844 H834 0.930 . S
C844 C843 1.400 . S
C844 C847 1.386 . S
H845 C861 0.930 . S
H846 C862 0.931 . S
C847 H835 0.929 . S
C847 C841 1.390 . S
C847 C844 1.386 . S
C848 C843 1.490 . S
C848 C850 1.395 . S
C848 C851 1.403 1_554 S
H849 C855 0.930 . S
C850 H836 0.930 . S
C850 C848 1.395 . S
C850 C853 1.403 . S
C851 C848 1.403 1_556 S
C851 C852 1.524 . S
C851 C855 1.400 . S
C852 H837 0.960 . S
C852 H838 0.960 . S
C852 H839 0.960 . S
C852 C851 1.524 . S
C853 C850 1.403 . S
C853 C854 1.392 1_554 S
C853 C857 1.495 . S
C854 C853 1.392 1_556 S
C854 C855 1.385 . S
C854 C856 1.478 . S
C855 H849 0.930 . S
C855 C851 1.400 . S
C855 C854 1.385 . S
C856 C854 1.478 . S
C856 C858 1.381 . S
C856 C862 1.383 . S
C857 C853 1.495 . S
C857 H863 0.959 . S
C857 H864 0.961 . S
C857 H865 0.960 . S
C858 C856 1.381 . S
C858 C859 1.394 1_565 S
C858 H866 0.930 . S
C859 C858 1.394 1_545 S
C859 C860 1.383 . S
C859 H867 0.929 . S
C860 C859 1.383 . S
C860 C861 1.377 1_545 S
C861 H845 0.930 . S
C861 C860 1.377 1_565 S
C861 C862 1.379 . S
C862 H846 0.931 . S
C862 C856 1.383 . S
C862 C861 1.379 . S
H863 C857 0.959 . S
H864 C857 0.961 . S
H865 C857 0.960 . S
H866 C858 0.930 . S
H867 C859 0.929 . S
H868 C876 0.929 . S
H869 C878 0.930 . S
H870 C880 0.930 . S
H871 C883 0.929 . S
H872 C886 0.930 . S
H873 C888 0.960 . S
H874 C888 0.960 . S
H875 C888 0.960 . S
C876 H868 0.929 . S
C876 C877 1.377 . S
C876 C878 1.384 . S
C877 C876 1.377 . S
C877 C883 1.390 . S
C878 H869 0.930 . S
C878 C876 1.384 . S
C878 C879 1.372 . S
C879 C878 1.372 . S
C879 C880 1.400 . S
C879 C884 1.490 . S
C880 H870 0.930 . S
C880 C879 1.400 . S
C880 C883 1.386 . S
H881 C897 0.929 1_455 S
H882 C898 0.931 . S
C883 H871 0.929 . S
C883 C877 1.390 . S
C883 C880 1.386 . S
C884 C879 1.490 . S
C884 C886 1.395 . S
C884 C887 1.403 1_556 S
H885 C891 0.930 . S
C886 H872 0.930 . S
C886 C884 1.395 . S
C886 C889 1.403 . S
C887 C884 1.403 1_554 S
C887 C888 1.524 . S
C887 C891 1.400 . S
C888 H873 0.960 . S
C888 H874 0.960 . S
C888 H875 0.960 . S
C888 C887 1.524 . S
C889 C886 1.403 . S
C889 C890 1.392 1_556 S
C889 C893 1.495 . S
C890 C889 1.392 1_554 S
C890 C891 1.385 . S
C890 C892 1.478 . S
C891 H885 0.930 . S
C891 C887 1.400 . S
C891 C890 1.385 . S
C892 C890 1.478 . S
C892 C894 1.381 . S
C892 C898 1.383 . S
C893 C889 1.495 . S
C893 H899 0.959 . S
C893 H900 0.961 . S
C893 H901 0.960 . S
C894 C892 1.381 . S
C894 C895 1.394 1_655 S
C894 H902 0.930 . S
C895 C894 1.394 1_455 S
C895 C896 1.383 . S
C895 H903 0.929 . S
C896 C895 1.383 . S
C896 C897 1.374 1_455 S
C897 H881 0.929 1_655 S
C897 C896 1.374 1_655 S
C897 C898 1.383 . S
C898 H882 0.931 . S
C898 C892 1.383 . S
C898 C897 1.383 . S
H899 C893 0.959 . S
H900 C893 0.961 . S
H901 C893 0.960 . S
H902 C894 0.930 . S
H903 C895 0.929 . S
H904 C912 0.929 . S
H905 C914 0.930 . S
H906 C916 0.930 . S
H907 C919 0.929 . S
H908 C922 0.930 . S
H909 C924 0.960 . S
H910 C924 0.960 . S
H911 C924 0.960 . S
C912 H904 0.929 . S
C912 C913 1.377 . S
C912 C914 1.384 . S
C913 C912 1.377 . S
C913 C919 1.390 . S
C914 H905 0.930 . S
C914 C912 1.384 . S
C914 C915 1.372 . S
C915 C914 1.372 . S
C915 C916 1.400 . S
C915 C920 1.490 . S
C916 H906 0.930 . S
C916 C915 1.400 . S
C916 C919 1.386 . S
H917 C933 0.930 . S
H918 C934 0.931 . S
C919 H907 0.929 . S
C919 C913 1.390 . S
C919 C916 1.386 . S
C920 C915 1.490 . S
C920 C922 1.395 . S
C920 C923 1.403 . S
H921 C927 0.930 . S
C922 H908 0.930 . S
C922 C920 1.395 . S
C922 C925 1.403 . S
C923 C920 1.403 . S
C923 C924 1.524 . S
C923 C927 1.400 . S
C924 H909 0.960 . S
C924 H910 0.960 . S
C924 H911 0.960 . S
C924 C923 1.524 . S
C925 C922 1.403 . S
C925 C926 1.392 . S
C925 C929 1.495 . S
C926 C925 1.392 . S
C926 C927 1.385 . S
C926 C928 1.478 . S
C927 H921 0.930 . S
C927 C923 1.400 . S
C927 C926 1.385 . S
C928 C926 1.478 . S
C928 C930 1.381 . S
C928 C934 1.383 . S
C929 C925 1.495 . S
C929 H935 0.959 . S
C929 H936 0.961 . S
C929 H937 0.960 . S
C930 C928 1.381 . S
C930 C931 1.394 . S
C930 H938 0.930 . S
C931 C930 1.394 . S
C931 C932 1.383 . S
C931 H939 0.929 . S
C932 C931 1.383 . S
C932 C933 1.377 . S
C933 H917 0.930 . S
C933 C932 1.377 . S
C933 C934 1.379 . S
C934 H918 0.931 . S
C934 C928 1.383 . S
C934 C933 1.379 . S
H935 C929 0.959 . S
H936 C929 0.961 . S
H937 C929 0.960 . S
H938 C930 0.930 . S
H939 C931 0.929 . S
H940 C948 0.929 . S
H941 C950 0.930 . S
H942 C952 0.930 . S
H943 C955 0.929 . S
H944 C958 0.930 . S
H945 C960 0.960 . S
H946 C960 0.960 . S
H947 C960 0.960 . S
C948 H940 0.929 . S
C948 C949 1.377 . S
C948 C950 1.384 . S
C949 C948 1.377 . S
C949 C955 1.390 . S
C950 H941 0.930 . S
C950 C948 1.384 . S
C950 C951 1.372 . S
C951 C950 1.372 . S
C951 C952 1.400 . S
C951 C956 1.490 . S
C952 H942 0.930 . S
C952 C951 1.400 . S
C952 C955 1.386 . S
H953 C969 0.930 . S
H954 C970 0.931 . S
C955 H943 0.929 . S
C955 C949 1.390 . S
C955 C952 1.386 . S
C956 C951 1.490 . S
C956 C958 1.395 . S
C956 C959 1.403 . S
H957 C963 0.930 . S
C958 H944 0.930 . S
C958 C956 1.395 . S
C958 C961 1.403 . S
C959 C956 1.403 . S
C959 C960 1.524 . S
C959 C963 1.400 . S
C960 H945 0.960 . S
C960 H946 0.960 . S
C960 H947 0.960 . S
C960 C959 1.524 . S
C961 C958 1.403 . S
C961 C962 1.392 . S
C961 C965 1.495 . S
C962 C961 1.392 . S
C962 C963 1.385 . S
C962 C964 1.478 . S
C963 H957 0.930 . S
C963 C959 1.400 . S
C963 C962 1.385 . S
C964 C962 1.478 . S
C964 C966 1.381 . S
C964 C970 1.383 . S
C965 C961 1.495 . S
C965 H971 0.959 . S
C965 H972 0.961 . S
C965 H973 0.960 . S
C966 C964 1.381 . S
C966 C967 1.394 . S
C966 H974 0.930 . S
C967 C966 1.394 . S
C967 C968 1.383 . S
C967 H975 0.929 . S
C968 C967 1.383 . S
C968 C969 1.377 . S
C969 H953 0.930 . S
C969 C968 1.377 . S
C969 C970 1.379 . S
C970 H954 0.931 . S
C970 C964 1.383 . S
C970 C969 1.379 . S
H971 C965 0.959 . S
H972 C965 0.961 . S
H973 C965 0.960 . S
H974 C966 0.930 . S
H975 C967 0.929 . S
H976 C984 0.929 . S
H977 C986 0.930 . S
H978 C988 0.930 . S
H979 C991 0.929 . S
H980 C994 0.930 . S
H981 C996 0.960 . S
H982 C996 0.960 . S
H983 C996 0.960 . S
C984 H976 0.929 . S
C984 C985 1.377 . S
C984 C986 1.384 . S
C985 C984 1.377 . S
C985 C991 1.390 . S
C986 H977 0.930 . S
C986 C984 1.384 . S
C986 C987 1.372 . S
C987 C986 1.372 . S
C987 C988 1.400 . S
C987 C992 1.490 . S
C988 H978 0.930 . S
C988 C987 1.400 . S
C988 C991 1.386 . S
H989 C1005 0.930 . S
H990 C1006 0.931 . S
C991 H979 0.929 . S
C991 C985 1.390 . S
C991 C988 1.386 . S
C992 C987 1.490 . S
C992 C994 1.395 . S
C992 C995 1.403 . S
H993 C999 0.930 . S
C994 H980 0.930 . S
C994 C992 1.395 . S
C994 C997 1.403 . S
C995 C992 1.403 . S
C995 C996 1.524 . S
C995 C999 1.400 . S
C996 H981 0.960 . S
C996 H982 0.960 . S
C996 H983 0.960 . S
C996 C995 1.524 . S
C997 C994 1.403 . S
C997 C998 1.392 . S
C997 C1001 1.495 . S
C998 C997 1.392 . S
C998 C999 1.385 . S
C998 C1000 1.478 . S
C999 H993 0.930 . S
C999 C995 1.400 . S
C999 C998 1.385 . S
C1000 C998 1.478 . S
C1000 C1002 1.381 . S
C1000 C1006 1.383 . S
C1001 C997 1.495 . S
C1001 H1007 0.959 . S
C1001 H1008 0.961 . S
C1001 H1009 0.960 . S
C1002 C1000 1.381 . S
C1002 C1003 1.394 . S
C1002 H1010 0.930 . S
C1003 C1002 1.394 . S
C1003 C1004 1.383 . S
C1003 H1011 0.929 . S
C1004 C1003 1.383 . S
C1004 C1005 1.377 . S
C1005 H989 0.930 . S
C1005 C1004 1.377 . S
C1005 C1006 1.379 . S
C1006 H990 0.931 . S
C1006 C1000 1.383 . S
C1006 C1005 1.379 . S
H1007 C1001 0.959 . S
H1008 C1001 0.961 . S
H1009 C1001 0.960 . S
H1010 C1002 0.930 . S
H1011 C1003 0.929 . S
H1012 C1020 0.929 . S
H1013 C1022 0.930 . S
H1014 C1024 0.930 . S
H1015 C1027 0.929 . S
H1016 C1030 0.930 . S
H1017 C1032 0.960 . S
H1018 C1032 0.960 . S
H1019 C1032 0.960 . S
C1020 H1012 0.929 . S
C1020 C1021 1.377 . S
C1020 C1022 1.384 . S
C1021 C1020 1.377 . S
C1021 C1027 1.390 . S
C1022 H1013 0.930 . S
C1022 C1020 1.384 . S
C1022 C1023 1.372 . S
C1023 C1022 1.372 . S
C1023 C1024 1.400 . S
C1023 C1028 1.490 . S
C1024 H1014 0.930 . S
C1024 C1023 1.400 . S
C1024 C1027 1.386 . S
H1025 C1041 0.930 . S
H1026 C1042 0.931 . S
C1027 H1015 0.929 . S
C1027 C1021 1.390 . S
C1027 C1024 1.386 . S
C1028 C1023 1.490 . S
C1028 C1030 1.395 . S
C1028 C1031 1.403 . S
H1029 C1035 0.930 . S
C1030 H1016 0.930 . S
C1030 C1028 1.395 . S
C1030 C1033 1.403 . S
C1031 C1028 1.403 . S
C1031 C1032 1.524 . S
C1031 C1035 1.400 . S
C1032 H1017 0.960 . S
C1032 H1018 0.960 . S
C1032 H1019 0.960 . S
C1032 C1031 1.524 . S
C1033 C1030 1.403 . S
C1033 C1034 1.392 . S
C1033 C1037 1.495 . S
C1034 C1033 1.392 . S
C1034 C1035 1.385 . S
C1034 C1036 1.478 . S
C1035 H1029 0.930 . S
C1035 C1031 1.400 . S
C1035 C1034 1.385 . S
C1036 C1034 1.478 . S
C1036 C1038 1.381 . S
C1036 C1042 1.383 . S
C1037 C1033 1.495 . S
C1037 H1043 0.959 . S
C1037 H1044 0.961 . S
C1037 H1045 0.960 . S
C1038 C1036 1.381 . S
C1038 C1039 1.394 . S
C1038 H1046 0.930 . S
C1039 C1038 1.394 . S
C1039 C1040 1.383 . S
C1039 H1047 0.929 . S
C1040 C1039 1.383 . S
C1040 C1041 1.377 . S
C1041 H1025 0.930 . S
C1041 C1040 1.377 . S
C1041 C1042 1.379 . S
C1042 H1026 0.931 . S
C1042 C1036 1.383 . S
C1042 C1041 1.379 . S
H1043 C1037 0.959 . S
H1044 C1037 0.961 . S
H1045 C1037 0.960 . S
H1046 C1038 0.930 . S
H1047 C1039 0.929 . S
C481 C123 1.451 . S
C500 C5 1.452 . S
C517 C182 1.456 . S
C536 C64 1.468 . S
C553 C241 1.456 . S
C572 C359 1.468 . S
C589 C300 1.453 . S
C608 C418 1.470 . S
C625 C92 1.306 . S
C644 C52 1.304 . S
C661 C111 1.296 . S
C680 C151 1.300 . S
C697 C210 1.305 . S
C716 C170 1.308 . S
C733 C229 1.295 . S
C752 C33 1.301 . S
C769 C446 1.305 . S
C788 C288 1.300 . S
C805 C347 1.299 . S
C824 C269 1.303 . S
C841 C406 1.296 . S
C860 C328 1.300 . S
C877 C465 1.300 . S
C896 C387 1.299 . S
C913 C3 1.689 . S
C932 C298 1.699 . S
C949 C357 1.694 . S
C968 C62 1.698 . S
C985 C121 1.690 . S
C1004 C416 1.688 . S
C1021 C180 1.695 . S
C1040 C239 1.703 . S
